# Generated by pormake.
# Topology zzz, (3,6)-cn, num edge types: 1
# Building blocks:
#     Node 0, Type 0, BuildingBlock: BELTOD_clean_linker_0, # of connection points: 3
#     Node 1, Type 0, BuildingBlock: BELTOD_clean_linker_0, # of connection points: 3
#     Node 2, Type 0, BuildingBlock: BELTOD_clean_linker_0, # of connection points: 3
#     Node 3, Type 0, BuildingBlock: BELTOD_clean_linker_0, # of connection points: 3
#     Node 4, Type 0, BuildingBlock: BELTOD_clean_linker_0, # of connection points: 3
#     Node 5, Type 0, BuildingBlock: BELTOD_clean_linker_0, # of connection points: 3
#     Node 6, Type 0, BuildingBlock: BELTOD_clean_linker_0, # of connection points: 3
#     Node 7, Type 0, BuildingBlock: BELTOD_clean_linker_0, # of connection points: 3
#     Node 8, Type 1, BuildingBlock: MIFKUJ_clean_sbu_0, # of connection points: 6
#     Node 9, Type 1, BuildingBlock: MIFKUJ_clean_sbu_0, # of connection points: 6
#     Node 10, Type 1, BuildingBlock: MIFKUJ_clean_sbu_0, # of connection points: 6
#     Node 11, Type 1, BuildingBlock: MIFKUJ_clean_sbu_0, # of connection points: 6
#     Edge 12, Type (0, 1), BuildingBlock: MIFKUJ_clean_linker_0, # of connection points: 2
#     Edge 13, Type (0, 1), BuildingBlock: MIFKUJ_clean_linker_0, # of connection points: 2
#     Edge 14, Type (0, 1), BuildingBlock: MIFKUJ_clean_linker_0, # of connection points: 2
#     Edge 15, Type (0, 1), BuildingBlock: MIFKUJ_clean_linker_0, # of connection points: 2
#     Edge 16, Type (0, 1), BuildingBlock: MIFKUJ_clean_linker_0, # of connection points: 2
#     Edge 17, Type (0, 1), BuildingBlock: MIFKUJ_clean_linker_0, # of connection points: 2
#     Edge 18, Type (0, 1), BuildingBlock: MIFKUJ_clean_linker_0, # of connection points: 2
#     Edge 19, Type (0, 1), BuildingBlock: MIFKUJ_clean_linker_0, # of connection points: 2
#     Edge 20, Type (0, 1), BuildingBlock: MIFKUJ_clean_linker_0, # of connection points: 2
#     Edge 21, Type (0, 1), BuildingBlock: MIFKUJ_clean_linker_0, # of connection points: 2
#     Edge 22, Type (0, 1), BuildingBlock: MIFKUJ_clean_linker_0, # of connection points: 2
#     Edge 23, Type (0, 1), BuildingBlock: MIFKUJ_clean_linker_0, # of connection points: 2
#     Edge 24, Type (0, 1), BuildingBlock: MIFKUJ_clean_linker_0, # of connection points: 2
#     Edge 25, Type (0, 1), BuildingBlock: MIFKUJ_clean_linker_0, # of connection points: 2
#     Edge 26, Type (0, 1), BuildingBlock: MIFKUJ_clean_linker_0, # of connection points: 2
#     Edge 27, Type (0, 1), BuildingBlock: MIFKUJ_clean_linker_0, # of connection points: 2
#     Edge 28, Type (0, 1), BuildingBlock: MIFKUJ_clean_linker_0, # of connection points: 2
#     Edge 29, Type (0, 1), BuildingBlock: MIFKUJ_clean_linker_0, # of connection points: 2
#     Edge 30, Type (0, 1), BuildingBlock: MIFKUJ_clean_linker_0, # of connection points: 2
#     Edge 31, Type (0, 1), BuildingBlock: MIFKUJ_clean_linker_0, # of connection points: 2
#     Edge 32, Type (0, 1), BuildingBlock: MIFKUJ_clean_linker_0, # of connection points: 2
#     Edge 33, Type (0, 1), BuildingBlock: MIFKUJ_clean_linker_0, # of connection points: 2
#     Edge 34, Type (0, 1), BuildingBlock: MIFKUJ_clean_linker_0, # of connection points: 2
#     Edge 35, Type (0, 1), BuildingBlock: MIFKUJ_clean_linker_0, # of connection points: 2
# Relax obj value: 0.280
# Max RMSD: 0.201
# Mean RMSD: 0.182
data_MOF--net-zzz--node1-MIFKUJ_clean_sbu_0--node2-BELTOD_clean_linker_0--edge1-MIFKUJ_clean_linker_0
_symmetry_space_group_name_H-M    P1
_symmetry_Int_Tables_number       1
_symmetry_cell_setting            triclinic
loop_
_symmetry_equiv_pos_as_xyz
'x, y, z'
_cell_length_a     67.331526
_cell_length_b     68.655893
_cell_length_c     24.751239
_cell_angle_alpha  89.21782
_cell_angle_beta   89.792028
_cell_angle_gamma 90.74382
loop_
_atom_site_label
_atom_site_type_symbol
_atom_site_fract_x
_atom_site_fract_y
_atom_site_fract_z
_atom_type_partial_charge
P0 P 0.73609 0.55162 0.05635 0.0
H1 H 0.74339 0.53066 0.15743 0.0
H2 H 0.76618 0.53799 0.23023 0.0
H3 H 0.77257 0.59714 0.16964 0.0
H4 H 0.75002 0.58939 0.09556 0.0
H5 H 0.70008 0.52948 0.03434 0.0
H6 H 0.6688 0.53877 0.99337 0.0
H7 H 0.68626 0.59938 7e-05 0.0
H8 H 0.71769 0.59002 0.04332 0.0
H9 H 0.77868 0.54989 0.05182 0.0
H10 H 0.73208 0.57281 0.95087 0.0
O11 O 0.73707 0.52735 0.05425 0.0
H12 H 0.80335 0.56175 0.98755 0.0
H13 H 0.75694 0.58547 0.8869 0.0
C14 C 0.74523 0.5594 0.12073 0.0
C15 C 0.7491 0.5454 0.16081 0.0
C16 C 0.76218 0.54967 0.2027 0.0
C17 C 0.77157 0.56808 0.20525 0.0
C18 C 0.76593 0.5827 0.16819 0.0
C19 C 0.7528 0.57838 0.12624 0.0
C20 C 0.71125 0.55907 0.04154 0.0
C21 C 0.697 0.54482 0.02905 0.0
C22 C 0.67909 0.55013 0.0057 0.0
C23 C 0.67526 0.56975 0.99384 0.0
C24 C 0.68896 0.58417 0.00929 0.0
C25 C 0.7068 0.57884 0.03404 0.0
C26 C 0.75357 0.56083 0.00699 0.0
C27 C 0.77377 0.55786 0.01631 0.0
C28 C 0.7879 0.56493 0.97979 0.0
C29 C 0.78214 0.57512 0.93282 0.0
C30 C 0.76182 0.57796 0.92315 0.0
C31 C 0.7476 0.57075 0.9599 0.0
P32 P 0.02936 0.73206 0.10226 0.0
H33 H 0.04543 0.74537 0.20508 0.0
H34 H 0.0345 0.77108 0.26525 0.0
H35 H 0.97881 0.77416 0.18041 0.0
H36 H 0.98999 0.74892 0.11879 0.0
H37 H 0.04787 0.69713 0.06299 0.0
H38 H 0.03404 0.66906 0.01627 0.0
H39 H 0.97481 0.6876 0.05546 0.0
H40 H 0.98872 0.71539 0.10444 0.0
H41 H 0.04211 0.77161 0.07932 0.0
H42 H 0.00746 0.72732 -0.00123 0.0
O43 O 0.0538 0.73039 0.11197 0.0
H44 H 0.03153 0.79557 0.01203 0.0
H45 H -0.00349 0.75136 0.93258 0.0
C46 C 0.01842 0.74489 0.15785 0.0
C47 C 0.03057 0.75097 0.20049 0.0
C48 C 0.02438 0.76574 0.23473 0.0
C49 C 0.00583 0.77448 0.22733 0.0
C50 C 0.99304 0.7674 0.18732 0.0
C51 C -0.00063 0.7528 0.15249 0.0
C52 C 0.01937 0.70828 0.08786 0.0
C53 C 0.03195 0.69471 0.06404 0.0
C54 C 0.02404 0.67874 0.03697 0.0
C55 C 0.00341 0.67634 0.03233 0.0
C56 C 0.99078 0.68923 0.0588 0.0
C57 C -0.00126 0.705 0.08712 0.0
C58 C 0.02541 0.74775 0.04479 0.0
C59 C 0.03249 0.76696 0.04682 0.0
C60 C 0.02622 0.78067 0.00887 0.0
C61 C 0.01274 0.77534 0.96831 0.0
C62 C 0.00671 0.75582 0.96397 0.0
C63 C 0.01298 0.74209 0.00209 0.0
P64 P 0.76026 0.95491 0.08562 0.0
H65 H 0.76556 0.96156 0.20048 0.0
H66 H 0.74275 0.95429 0.27513 0.0
H67 H 0.71013 0.91448 0.17361 0.0
H68 H 0.73359 0.92091 0.10064 0.0
H69 H 0.79275 0.97969 0.04943 0.0
H70 H 0.82214 0.97266 -0.00354 0.0
H71 H 0.81159 0.91101 0.02002 0.0
H72 H 0.782 0.91813 0.07505 0.0
H73 H 0.72166 0.97041 0.06222 0.0
H74 H 0.76084 0.92845 0.99124 0.0
O75 O 0.75932 0.9787 0.09847 0.0
H76 H 0.69595 0.96153 -0.00208 0.0
H77 H 0.73497 0.91941 0.92692 0.0
C78 C 0.75083 0.94233 0.14455 0.0
C79 C 0.7541 0.95053 0.19522 0.0
C80 C 0.74089 0.94652 0.23764 0.0
C81 C 0.72414 0.93444 0.2295 0.0
C82 C 0.72272 0.92402 0.18116 0.0
C83 C 0.73613 0.92782 0.13907 0.0
C84 C 0.78514 0.94941 0.06579 0.0
C85 C 0.79708 0.96465 0.04535 0.0
C86 C 0.81383 0.96065 0.0148 0.0
C87 C 0.81874 0.94135 0.00364 0.0
C88 C 0.80796 0.926 0.02832 0.0
C89 C 0.79118 0.93006 0.05973 0.0
C90 C 0.74327 0.95034 0.03127 0.0
C91 C 0.72485 0.95949 0.03235 0.0
C92 C 0.71007 0.95415 0.99619 0.0
C93 C 0.71338 0.93944 0.9584 0.0
C94 C 0.73205 0.93066 0.95605 0.0
C95 C 0.74687 0.93596 0.99268 0.0
P96 P 0.42975 0.76548 0.10787 0.0
H97 H 0.41811 0.75511 0.21868 0.0
H98 H 0.43079 0.73068 0.28174 0.0
H99 H 0.48107 0.7217 0.17649 0.0
H100 H 0.4685 0.74646 0.11407 0.0
H101 H 0.41014 0.7994 0.06423 0.0
H102 H 0.42293 0.82856 0.01859 0.0
H103 H 0.4826 0.81321 0.06452 0.0
H104 H 0.46956 0.78395 0.1112 0.0
H105 H 0.40879 0.7306 0.07323 0.0
H106 H 0.45728 0.76693 0.01482 0.0
O107 O 0.40563 0.76682 0.12314 0.0
H108 H 0.41608 0.70684 0.00352 0.0
H109 H 0.46492 0.74314 0.94648 0.0
C110 C 0.44226 0.75253 0.16141 0.0
C111 C 0.43216 0.74833 0.20985 0.0
C112 C 0.43933 0.73418 0.24566 0.0
C113 C 0.45673 0.72393 0.23361 0.0
C114 C 0.46766 0.72932 0.18709 0.0
C115 C 0.46047 0.74352 0.15131 0.0
C116 C 0.43887 0.7896 0.09161 0.0
C117 C 0.42589 0.80267 0.06655 0.0
C118 C 0.43324 0.81935 0.04027 0.0
C119 C 0.45378 0.8231 0.03775 0.0
C120 C 0.4667 0.8106 0.06566 0.0
C121 C 0.45926 0.794 0.09278 0.0
C122 C 0.4323 0.75064 0.04905 0.0
C123 C 0.42069 0.73369 0.0447 0.0
C124 C 0.42502 0.72005 0.00525 0.0
C125 C 0.44123 0.72303 0.96998 0.0
C126 C 0.45223 0.7405 0.97272 0.0
C127 C 0.44784 0.75415 0.01207 0.0
P128 P 0.25689 0.39133 0.1394 0.0
H129 H 0.24546 0.37997 0.02972 0.0
H130 H 0.22281 0.39482 0.96453 0.0
H131 H 0.21912 0.44581 0.06422 0.0
H132 H 0.24161 0.43085 0.12932 0.0
H133 H 0.28745 0.37419 0.20533 0.0
H134 H 0.3161 0.38843 0.25103 0.0
H135 H 0.30766 0.44243 0.16302 0.0
H136 H 0.27919 0.42794 0.11659 0.0
H137 H 0.21945 0.37301 0.17353 0.0
H138 H 0.25867 0.41858 0.2296 0.0
O139 O 0.25784 0.3676 0.12598 0.0
H140 H 0.19444 0.38267 0.23962 0.0
H141 H 0.23384 0.4286 0.29374 0.0
C142 C 0.24516 0.40425 0.08452 0.0
C143 C 0.24022 0.39456 0.03684 0.0
C144 C 0.22727 0.40308 -0.00048 0.0
C145 C 0.21897 0.42139 0.0096 0.0
C146 C 0.22503 0.43157 0.05573 0.0
C147 C 0.23802 0.42308 0.09278 0.0
C148 C 0.28129 0.39993 0.15729 0.0
C149 C 0.2922 0.38886 0.19438 0.0
C150 C 0.30838 0.3971 0.22106 0.0
C151 C 0.31388 0.41664 0.21128 0.0
C152 C 0.30378 0.42732 0.17126 0.0
C153 C 0.28752 0.41903 0.14458 0.0
C154 C 0.24101 0.39488 0.19691 0.0
C155 C 0.22291 0.38469 0.20103 0.0
C156 C 0.20857 0.39037 0.23846 0.0
C157 C 0.21205 0.40653 0.2717 0.0
C158 C 0.23071 0.41591 0.26953 0.0
C159 C 0.24501 0.41017 0.23242 0.0
P160 P 0.03294 0.27386 0.09441 0.0
H161 H 0.04464 0.26627 0.98272 0.0
H162 H 0.0333 0.24106 0.92026 0.0
H163 H 0.98396 0.22731 0.02623 0.0
H164 H 0.99473 0.25296 0.08739 0.0
H165 H 0.05312 0.30571 0.14547 0.0
H166 H 0.03979 0.33256 0.1969 0.0
H167 H 0.98171 0.32163 0.13007 0.0
H168 H 0.99521 0.29453 0.07776 0.0
H169 H 0.05224 0.24026 0.14375 0.0
H170 H 0.00138 0.27596 0.17687 0.0
O171 O 0.05741 0.27411 0.08324 0.0
H172 H 0.04179 0.21779 0.21641 0.0
H173 H 0.99092 0.25351 0.24832 0.0
C174 C 0.02079 0.26122 0.04029 0.0
C175 C 0.03094 0.25839 0.9915 0.0
C176 C 0.0245 0.24399 0.9559 0.0
C177 C 0.00797 0.23219 0.96914 0.0
C178 C -0.00317 0.23621 0.01554 0.0
C179 C 0.00303 0.25086 0.05048 0.0
C180 C 0.02517 0.2982 0.10766 0.0
C181 C 0.03775 0.30964 0.1395 0.0
C182 C 0.03009 0.32481 0.16941 0.0
C183 C 0.00975 0.32875 0.16787 0.0
C184 C -0.00253 0.31872 0.13164 0.0
C185 C 0.00521 0.30344 0.10139 0.0
C186 C 0.02782 0.25996 0.15511 0.0
C187 C 0.03921 0.2436 0.1675 0.0
C188 C 0.03324 0.23081 0.20893 0.0
C189 C 0.01557 0.23406 0.23766 0.0
C190 C 0.00459 0.25079 0.22664 0.0
C191 C 0.01071 0.26369 0.18583 0.0
P192 P 0.23392 0.11376 0.11155 0.0
H193 H 0.24379 0.1233 -0.00183 0.0
H194 H 0.26754 0.10846 0.936 0.0
H195 H 0.27513 0.06064 0.04866 0.0
H196 H 0.25113 0.07513 0.10983 0.0
H197 H 0.2018 0.13101 0.17131 0.0
H198 H 0.17269 0.11681 0.21613 0.0
H199 H 0.18393 0.06184 0.13924 0.0
H200 H 0.21333 0.0761 0.09556 0.0
H201 H 0.27516 0.12485 0.12674 0.0
H202 H 0.22941 0.09462 0.21892 0.0
O203 O 0.23276 0.13733 0.09465 0.0
H204 H 0.30027 0.11215 0.1887 0.0
H205 H 0.25437 0.08229 0.28095 0.0
C206 C 0.24578 0.10037 0.05868 0.0
C207 C 0.25002 0.10929 0.00861 0.0
C208 C 0.26361 0.10086 0.97325 0.0
C209 C 0.27328 0.0836 0.98817 0.0
C210 C 0.26796 0.07405 0.03662 0.0
C211 C 0.25415 0.08226 0.07132 0.0
C212 C 0.20962 0.1047 0.12976 0.0
C213 C 0.19762 0.11609 0.16273 0.0
C214 C 0.18096 0.1079 0.18841 0.0
C215 C 0.17604 0.08811 0.18165 0.0
C216 C 0.18749 0.07704 0.146 0.0
C217 C 0.20422 0.08525 0.12048 0.0
C218 C 0.2504 0.11074 0.16801 0.0
C219 C 0.27041 0.11616 0.16142 0.0
C220 C 0.28475 0.10873 0.19637 0.0
C221 C 0.27919 0.09606 0.23892 0.0
C222 C 0.25898 0.09206 0.24839 0.0
C223 C 0.24468 0.09922 0.21288 0.0
P224 P 0.49799 0.24327 0.09884 0.0
H225 H 0.47637 0.25297 0.00031 0.0
H226 H 0.48332 0.27729 0.93051 0.0
H227 H 0.54365 0.28295 0.9881 0.0
H228 H 0.53628 0.25883 0.05926 0.0
H229 H 0.47452 0.20903 0.12885 0.0
H230 H 0.48364 0.17813 0.16874 0.0
H231 H 0.54558 0.19119 0.13653 0.0
H232 H 0.53615 0.22271 0.09665 0.0
H233 H 0.49873 0.28497 0.11243 0.0
H234 H 0.51877 0.23463 0.20231 0.0
O235 O 0.47333 0.24497 0.10338 0.0
H236 H 0.51284 0.3062 0.18063 0.0
H237 H 0.53327 0.25594 0.27037 0.0
C238 C 0.50571 0.25427 0.03548 0.0
C239 C 0.4913 0.25893 -0.00308 0.0
C240 C 0.49535 0.27292 0.95674 0.0
C241 C 0.51396 0.28248 0.95417 0.0
C242 C 0.52901 0.27626 0.98961 0.0
C243 C 0.52492 0.26221 0.02986 0.0
C244 C 0.50465 0.21821 0.10966 0.0
C245 C 0.49003 0.20507 0.1284 0.0
C246 C 0.49531 0.18724 0.15125 0.0
C247 C 0.51539 0.18215 0.15619 0.0
C248 C 0.52999 0.19475 0.13374 0.0
C249 C 0.52463 0.21265 0.11038 0.0
C250 C 0.50815 0.25825 0.1513 0.0
C251 C 0.50641 0.27848 0.14645 0.0
C252 C 0.51465 0.29061 0.18522 0.0
C253 C 0.52464 0.28272 0.23004 0.0
C254 C 0.52589 0.26239 0.2358 0.0
C255 C 0.51765 0.25021 0.19669 0.0
Zn256 Zn 0.98856 0.02905 0.59729 0.0
Zn257 Zn 0.00608 0.97735 0.59383 0.0
C258 C 0.97894 0.05418 0.68044 0.0
O259 O 0.96231 0.05287 0.65304 0.0
C260 C 0.00112 0.95579 0.49737 0.0
O261 O 0.01898 0.96329 0.48987 0.0
O262 O 0.97912 0.0498 0.54783 0.0
O263 O 0.01468 0.02249 0.56242 0.0
O264 O 0.02755 0.99318 0.55912 0.0
C265 C 0.99159 0.06381 0.5479 0.0
O266 O 0.00725 0.06265 0.57927 0.0
O267 O 0.9931 0.04295 0.6683 0.0
C268 C 0.00601 0.94645 0.65897 0.0
O269 O 0.98729 0.94912 0.64683 0.0
O270 O 0.0193 0.95741 0.63821 0.0
O271 O 0.98871 0.99096 0.648 0.0
O272 O 0.96704 0.00881 0.60587 0.0
O273 O 0.9911 0.96117 0.53813 0.0
C274 C 0.02852 0.01124 0.54845 0.0
C275 C 0.97077 0.99446 0.63659 0.0
Zn276 Zn 0.46805 0.01048 0.60993 0.0
Zn277 Zn 0.52586 -0.00301 0.58335 0.0
C278 C 0.43678 0.01091 0.68229 0.0
O279 O 0.43349 0.99481 0.65546 0.0
C280 C 0.55003 0.99494 0.49274 0.0
O281 O 0.5527 0.01317 0.50691 0.0
O282 O 0.44755 0.00588 0.55228 0.0
O283 O 0.48524 0.0319 0.57909 0.0
O284 O 0.5163 0.02353 0.5627 0.0
C285 C 0.43727 0.02114 0.54651 0.0
O286 O 0.44198 0.03673 0.57412 0.0
O287 O 0.45243 0.02086 0.67234 0.0
C288 C 0.5495 0.00143 0.67971 0.0
O289 O 0.5324 0.00095 0.70549 0.0
O290 O 0.5497 0.00111 0.62852 0.0
O291 O 0.50984 0.97668 0.62378 0.0
O292 O 0.47874 0.98534 0.63781 0.0
O293 O 0.53716 0.98462 0.51796 0.0
C294 C 0.50254 0.03594 0.56162 0.0
C295 C 0.49269 0.97327 0.64318 0.0
Zn296 Zn 0.50711 0.48803 0.56422 0.0
Zn297 Zn 0.48589 0.52047 0.61515 0.0
C298 C 0.5146 0.46368 0.65627 0.0
O299 O 0.5328 0.46895 0.64281 0.0
C300 C 0.47793 0.54529 0.52773 0.0
O301 O 0.46031 0.54123 0.54824 0.0
O302 O 0.51794 0.46771 0.51559 0.0
O303 O 0.48287 0.49727 0.52423 0.0
O304 O 0.46474 0.50077 0.59701 0.0
C305 C 0.50521 0.45393 0.51213 0.0
O306 O 0.48776 0.45576 0.53529 0.0
O307 O 0.5001 0.47118 0.63078 0.0
C308 C 0.48694 0.55544 0.66428 0.0
O309 O 0.50408 0.55445 0.63897 0.0
O310 O 0.47498 0.54096 0.66304 0.0
O311 O 0.50965 0.51139 0.65577 0.0
O312 O 0.52832 0.50779 0.58418 0.0
O313 O 0.49292 0.53658 0.54734 0.0
C314 C 0.46602 0.49669 0.54733 0.0
C315 C 0.52657 0.51258 0.63329 0.0
Zn316 Zn 0.03017 0.49957 0.61258 0.0
Zn317 Zn 0.96863 0.51124 0.58282 0.0
C318 C 0.04907 0.4869 0.71256 0.0
O319 O 0.04095 0.50255 0.73248 0.0
C320 C 0.94 0.51862 0.50957 0.0
O321 O 0.93612 0.5013 0.53063 0.0
O322 O 0.05078 0.50583 0.55734 0.0
O323 O 0.00638 0.48601 0.57604 0.0
O324 O 0.97472 0.4854 0.55237 0.0
C325 C 0.04934 0.50182 0.50766 0.0
O326 O 0.03228 0.49546 0.48876 0.0
O327 O 0.04505 0.48201 0.66439 0.0
C328 C 0.94877 0.50759 0.69008 0.0
O329 O 0.9661 0.50876 0.71408 0.0
O330 O 0.94784 0.50796 0.63898 0.0
O331 O 0.99413 0.52013 0.6135 0.0
O332 O 0.02294 0.52461 0.64946 0.0
O333 O 0.95582 0.52748 0.52395 0.0
C334 C 0.99172 0.47754 0.55331 0.0
C335 C 0.00527 0.53027 0.64322 0.0
H336 H 0.1765 0.05219 0.23092 0.0
H337 H 0.15194 0.03815 0.29354 0.0
H338 H 0.11576 0.08912 0.27426 0.0
H339 H 0.13997 0.10309 0.21027 0.0
H340 H 0.12314 0.07857 0.3828 0.0
H341 H 0.10146 0.04858 0.21724 0.0
H342 H 0.10552 0.02921 0.13488 0.0
H343 H 0.1224 0.97966 0.23111 0.0
H344 H 0.11875 -0.00116 0.31405 0.0
H345 H 0.03296 0.04795 0.50528 0.0
H346 H 0.05939 0.06005 0.4458 0.0
H347 H 0.08857 0.00458 0.45782 0.0
H348 H 0.06199 0.99221 0.51692 0.0
H349 H 0.08645 0.01636 0.35565 0.0
H350 H 0.10776 0.04421 0.52026 0.0
H351 H 0.10472 0.06236 0.60506 0.0
H352 H 0.09068 0.1143 0.51521 0.0
H353 H 0.09344 0.09638 0.42985 0.0
C354 C 0.1631 0.06024 0.23887 0.0
C355 C 0.1602 0.07878 0.21545 0.0
C356 C 0.14916 0.05223 0.27501 0.0
C357 C 0.1321 0.06263 0.28849 0.0
C358 C 0.12893 0.08095 0.26453 0.0
C359 C 0.14279 0.08891 0.22808 0.0
C360 C 0.11783 0.0547 0.32894 0.0
C361 C 0.11491 0.06509 0.37667 0.0
C362 C 0.10777 0.03673 0.32168 0.0
C363 C 0.11006 0.02522 0.2718 0.0
C364 C 0.10624 0.03362 0.22081 0.0
C365 C 0.10843 0.02266 0.17403 0.0
C366 C 0.11427 0.00323 0.17774 0.0
C367 C 0.11791 0.99472 0.22828 0.0
C368 C 0.11578 0.00563 0.27519 0.0
C369 C 0.04512 0.03838 0.49599 0.0
C370 C 0.04537 0.01911 0.51604 0.0
C371 C 0.06025 0.04535 0.46197 0.0
C372 C 0.07603 0.03326 0.44774 0.0
C373 C 0.07651 0.01414 0.46832 0.0
C374 C 0.06134 0.00712 0.50222 0.0
C375 C 0.0915 0.04035 0.40933 0.0
C376 C 0.09472 0.02979 0.36203 0.0
C377 C 0.10209 0.058 0.4174 0.0
C378 C 0.10058 0.06889 0.46864 0.0
C379 C 0.10387 0.05946 0.51858 0.0
C380 C 0.10224 0.06972 0.56676 0.0
C381 C 0.09745 0.08946 0.56554 0.0
C382 C 0.09436 0.099 0.51611 0.0
C383 C 0.09598 0.0888 0.4678 0.0
H384 H 0.09618 0.09737 0.60289 0.0
H385 H 0.11594 0.99477 0.14148 0.0
H386 H 0.54525 0.17985 0.23105 0.0
H387 H 0.54847 0.15527 0.30304 0.0
H388 H 0.49999 0.12228 0.23513 0.0
H389 H 0.49715 0.14627 0.16183 0.0
H390 H 0.49685 0.13965 0.35036 0.0
H391 H 0.53752 0.10076 0.2295 0.0
H392 H 0.56693 0.09476 0.17277 0.0
H393 H 0.60507 0.10515 0.3083 0.0
H394 H 0.57587 0.11151 0.36565 0.0
H395 H 0.47573 0.05547 0.50097 0.0
H396 H 0.48225 0.08202 0.43736 0.0
H397 H 0.5433 0.08502 0.4902 0.0
H398 H 0.53705 0.05718 0.55129 0.0
H399 H 0.5442 0.08673 0.39038 0.0
H400 H 0.50618 0.12273 0.51467 0.0
H401 H 0.47851 0.13048 0.57594 0.0
H402 H 0.43782 0.12917 0.44285 0.0
H403 H 0.46517 0.12115 0.38088 0.0
C404 C 0.53581 0.16697 0.23005 0.0
C405 C 0.52072 0.16518 0.19106 0.0
C406 C 0.5376 0.15301 0.27148 0.0
C407 C 0.52433 0.13714 0.2745 0.0
C408 C 0.5103 0.13453 0.23346 0.0
C409 C 0.50865 0.14829 0.19178 0.0
C410 C 0.52301 0.12484 0.32386 0.0
C411 C 0.50709 0.12796 0.3592 0.0
C412 C 0.53701 0.11038 0.33645 0.0
C413 C 0.55452 0.10692 0.30162 0.0
C414 C 0.55218 0.10205 0.24701 0.0
C415 C 0.56881 0.0985 0.2148 0.0
C416 C 0.58786 0.09966 0.23685 0.0
C417 C 0.59031 0.10432 0.29121 0.0
C418 C 0.57373 0.10789 0.32358 0.0
C419 C 0.49044 0.06206 0.49993 0.0
C420 C 0.50588 0.05432 0.53118 0.0
C421 C 0.49417 0.07739 0.46364 0.0
C422 C 0.51323 0.08591 0.45931 0.0
C423 C 0.52847 0.07875 0.49254 0.0
C424 C 0.52489 0.06294 0.52769 0.0
C425 C 0.51749 0.10096 0.41671 0.0
C426 C 0.53403 0.09855 0.38259 0.0
C427 C 0.50431 0.11647 0.40596 0.0
C428 C 0.48775 0.12126 0.44314 0.0
C429 C 0.49131 0.12398 0.49851 0.0
C430 C 0.47568 0.12844 0.53336 0.0
C431 C 0.45642 0.13032 0.5133 0.0
C432 C 0.45275 0.12774 0.45832 0.0
C433 C 0.46832 0.12327 0.4233 0.0
H434 H 0.44435 0.1338 0.54035 0.0
H435 H 0.60072 0.09687 0.21188 0.0
H436 H 0.3169 0.41398 0.32076 0.0
H437 H 0.34144 0.42962 0.37885 0.0
H438 H 0.36892 0.45707 0.2392 0.0
H439 H 0.34447 0.44118 0.18048 0.0
H440 H 0.39592 0.43939 0.30831 0.0
H441 H 0.34061 0.4833 0.32207 0.0
H442 H 0.30598 0.49249 0.34063 0.0
H443 H 0.31114 0.471 0.50364 0.0
H444 H 0.34571 0.46144 0.48585 0.0
H445 H 0.46099 0.50219 0.43978 0.0
H446 H 0.43334 0.49089 0.38457 0.0
H447 H 0.40374 0.46803 0.52729 0.0
H448 H 0.43122 0.48001 0.58323 0.0
H449 H 0.37751 0.48313 0.45797 0.0
H450 H 0.43158 0.4394 0.44888 0.0
H451 H 0.4666 0.43053 0.43584 0.0
H452 H 0.46372 0.44895 0.26963 0.0
H453 H 0.42886 0.4586 0.28212 0.0
C454 C 0.32827 0.42322 0.30233 0.0
C455 C 0.32891 0.42622 0.246 0.0
C456 C 0.34214 0.43231 0.33564 0.0
C457 C 0.35687 0.44461 0.31334 0.0
C458 C 0.35759 0.44765 0.25713 0.0
C459 C 0.34362 0.43864 0.22372 0.0
C460 C 0.37192 0.45377 0.34864 0.0
C461 C 0.39194 0.4492 0.3405 0.0
C462 C 0.36658 0.46593 0.39197 0.0
C463 C 0.34569 0.47147 0.40242 0.0
C464 C 0.3343 0.48035 0.3617 0.0
C465 C 0.31469 0.48567 0.37213 0.0
C466 C 0.30634 0.48228 0.42323 0.0
C467 C 0.3176 0.47359 0.46405 0.0
C468 C 0.33721 0.46823 0.45382 0.0
C469 C 0.44849 0.49493 0.45946 0.0
C470 C 0.44831 0.49169 0.51559 0.0
C471 C 0.43272 0.48848 0.42789 0.0
C472 C 0.41675 0.47819 0.45169 0.0
C473 C 0.41601 0.47583 0.50814 0.0
C474 C 0.43168 0.48263 0.53998 0.0
C475 C 0.4015 0.46896 0.41716 0.0
C476 C 0.38148 0.47338 0.42565 0.0
C477 C 0.4068 0.45633 0.3748 0.0
C478 C 0.42761 0.44992 0.3666 0.0
C479 C 0.43844 0.44173 0.40964 0.0
C480 C 0.4583 0.43664 0.40243 0.0
C481 C 0.4674 0.43923 0.352 0.0
C482 C 0.45666 0.44697 0.30871 0.0
C483 C 0.43686 0.45231 0.31587 0.0
H484 H 0.48275 0.43516 0.34644 0.0
H485 H 0.29117 0.48643 0.43124 0.0
H486 H 0.99351 0.36471 0.15475 0.0
H487 H 0.98708 0.38806 0.22703 0.0
H488 H 0.00179 0.34432 0.34669 0.0
H489 H 0.00807 0.32106 0.27468 0.0
H490 H 0.97247 0.36967 0.38308 0.0
H491 H 0.03739 0.37167 0.30278 0.0
H492 H 0.06109 0.37338 0.22667 0.0
H493 H 0.03917 0.42969 0.18101 0.0
H494 H 0.01502 0.42812 0.25626 0.0
H495 H 0.0052 0.44119 0.58055 0.0
H496 H 0.00668 0.41285 0.52018 0.0
H497 H 0.98663 0.44884 0.3874 0.0
H498 H 0.98467 0.4767 0.44735 0.0
H499 H 0.02018 0.42514 0.36445 0.0
H500 H 0.95432 0.42205 0.44534 0.0
H501 H 0.93092 0.4196 0.52204 0.0
H502 H 0.95589 0.3648 0.56972 0.0
H503 H 0.97969 0.36709 0.49373 0.0
C504 C 0.9947 0.36001 0.19656 0.0
C505 C 0.00145 0.34134 0.20961 0.0
C506 C 0.99108 0.37327 0.23771 0.0
C507 C 0.9943 0.36793 0.29205 0.0
C508 C -0.00074 0.3487 0.30508 0.0
C509 C 0.00293 0.33551 0.26405 0.0
C510 C 0.99556 0.38298 0.33405 0.0
C511 C 0.98299 0.38171 0.37936 0.0
C512 C 0.0095 0.39851 0.3294 0.0
C513 C 0.02427 0.39969 0.28481 0.0
C514 C 0.03753 0.38435 0.27628 0.0
C515 C 0.05104 0.3853 0.23331 0.0
C516 C 0.05161 0.40162 0.19896 0.0
C517 C 0.03869 0.41704 0.20761 0.0
C518 C 0.02508 0.41614 0.25041 0.0
C519 C 0.00136 0.44292 0.53832 0.0
C520 C 0.99484 0.46091 0.51813 0.0
C521 C 0.00208 0.42683 0.50414 0.0
C522 C -0.00335 0.42885 0.44959 0.0
C523 C 0.99083 0.44704 0.42939 0.0
C524 C 0.98973 0.46288 0.46352 0.0
C525 C -0.0033 0.41219 0.41266 0.0
C526 C 0.0097 0.41305 0.36839 0.0
C527 C 0.98329 0.39627 0.41871 0.0
C528 C 0.96898 0.39488 0.46431 0.0
C529 C 0.95498 0.40958 0.47253 0.0
C530 C 0.9416 0.4082 0.51579 0.0
C531 C 0.94196 0.39209 0.55086 0.0
C532 C 0.95567 0.3773 0.54261 0.0
C533 C 0.9691 0.37863 0.49945 0.0
H534 H 0.93159 0.39104 0.58431 0.0
H535 H 0.06209 0.40233 0.1657 0.0
H536 H 0.85525 0.92432 0.01004 0.0
H537 H 0.88137 0.92633 0.94026 0.0
H538 H 0.84021 0.95393 0.83084 0.0
H539 H 0.81424 0.95132 0.89942 0.0
H540 H 0.86525 0.93445 0.77439 0.0
H541 H 0.86864 0.9806 0.91675 0.0
H542 H 0.87038 0.99129 0.01132 0.0
H543 H 0.92649 0.96299 0.03017 0.0
H544 H 0.92488 0.9518 0.93585 0.0
H545 H 0.93056 -0.0017 0.62394 0.0
H546 H 0.90423 0.98446 0.68168 0.0
H547 H 0.9483 0.95624 0.78066 0.0
H548 H 0.97455 0.9709 0.72553 0.0
H549 H 0.92236 0.97352 0.84106 0.0
H550 H 0.91769 0.9325 0.68197 0.0
H551 H 0.91276 0.9269 0.5847 0.0
H552 H 0.85511 0.95272 0.5935 0.0
H553 H 0.85982 0.95863 0.69069 0.0
C554 C 0.85175 0.93013 0.97035 0.0
C555 C 0.83301 0.93793 0.95988 0.0
C556 C 0.8666 0.93139 0.9307 0.0
C557 C 0.86283 0.94074 0.88084 0.0
C558 C 0.84351 0.94676 0.86896 0.0
C559 C 0.82872 0.94537 0.9082 0.0
C560 C 0.87926 0.9469 0.84422 0.0
C561 C 0.87779 0.94294 0.78889 0.0
C562 C 0.89539 0.95831 0.86301 0.0
C563 C 0.89653 0.96516 0.91953 0.0
C564 C 0.88128 0.97654 0.94119 0.0
C565 C 0.88224 0.98269 0.99472 0.0
C566 C 0.89851 0.97777 0.02679 0.0
C567 C 0.91387 0.96674 0.00531 0.0
C568 C 0.91294 0.96047 0.95184 0.0
C569 C 0.93461 0.98907 0.65788 0.0
C570 C 0.95466 0.98544 0.66954 0.0
C571 C 0.91954 0.98104 0.69058 0.0
C572 C 0.92427 0.96895 0.73483 0.0
C573 C 0.94427 0.96533 0.7464 0.0
C574 C 0.95928 0.9736 0.71442 0.0
C575 C 0.9086 0.96082 0.77112 0.0
C576 C 0.9101 0.96464 0.82652 0.0
C577 C 0.8921 0.94998 0.75188 0.0
C578 C 0.88917 0.94604 0.69362 0.0
C579 C 0.90399 0.93698 0.66315 0.0
C580 C 0.90124 0.93378 0.608 0.0
C581 C 0.88364 0.93946 0.58291 0.0
C582 C 0.86874 0.94831 0.61297 0.0
C583 C 0.87144 0.95156 0.6681 0.0
H584 H 0.88154 0.937 0.5402 0.0
H585 H 0.89924 0.98256 0.06823 0.0
H586 H 0.44104 0.8606 0.02757 0.0
H587 H 0.44994 0.88421 0.95632 0.0
H588 H 0.49214 0.84388 0.8914 0.0
H589 H 0.48346 0.82031 0.96307 0.0
H590 H 0.50643 0.88038 0.88451 0.0
H591 H 0.44633 0.84768 0.83642 0.0
H592 H 0.41208 0.83521 0.8487 0.0
H593 H 0.39116 0.89361 0.86606 0.0
H594 H 0.42534 0.90642 0.85479 0.0
H595 H 0.5132 0.93897 0.6427 0.0
H596 H 0.5084 0.91078 0.70344 0.0
H597 H 0.46074 0.94051 0.78377 0.0
H598 H 0.4647 0.968 0.72153 0.0
H599 H 0.45061 0.90503 0.77388 0.0
H600 H 0.51297 0.93699 0.82874 0.0
H601 H 0.54764 0.94799 0.81338 0.0
H602 H 0.5646 0.8893 0.77976 0.0
H603 H 0.53001 0.87803 0.79383 0.0
C604 C 0.45242 0.85691 -0.00145 0.0
C605 C 0.4615 0.8386 0.00071 0.0
C606 C 0.45743 0.87034 0.95773 0.0
C607 C 0.47137 0.86561 0.9178 0.0
C608 C 0.48128 0.84779 0.92163 0.0
C609 C 0.47638 0.83439 0.96276 0.0
C610 C 0.47489 0.87894 0.87093 0.0
C611 C 0.49427 0.88565 0.85991 0.0
C612 C 0.45904 0.88567 0.83855 0.0
C613 C 0.43844 0.878 0.8452 0.0
C614 C 0.43446 0.85786 0.84327 0.0
C615 C 0.41505 0.85073 0.85001 0.0
C616 C 0.39946 0.86361 0.85827 0.0
C617 C 0.40325 0.88365 0.85972 0.0
C618 C 0.42264 0.89085 0.85313 0.0
C619 C 0.50159 0.93935 0.67306 0.0
C620 C 0.48933 0.95569 0.67738 0.0
C621 C 0.49896 0.9233 0.70805 0.0
C622 C 0.48447 0.92362 0.74909 0.0
C623 C 0.47203 0.93983 0.75257 0.0
C624 C 0.47431 0.95559 0.7169 0.0
C625 C 0.48204 0.90737 0.78908 0.0
C626 C 0.46282 0.89984 0.79842 0.0
C627 C 0.49808 0.89983 0.81957 0.0
C628 C 0.51886 0.90672 0.81169 0.0
C629 C 0.52408 0.92647 0.81772 0.0
C630 C 0.5437 0.93274 0.80924 0.0
C631 C 0.55825 0.91934 0.79538 0.0
C632 C 0.55327 0.89965 0.79028 0.0
C633 C 0.53367 0.89332 0.79845 0.0
H634 H 0.57339 0.92415 0.78856 0.0
H635 H 0.38445 0.85806 0.86344 0.0
H636 H 0.67715 0.58338 0.89098 0.0
H637 H 0.65135 0.57877 0.82275 0.0
H638 H 0.61006 0.56037 0.94771 0.0
H639 H 0.63607 0.56437 0.01556 0.0
H640 H 0.61661 0.53236 0.87728 0.0
H641 H 0.60207 0.60088 0.86558 0.0
H642 H 0.60959 0.63585 0.85209 0.0
H643 H 0.63147 0.62476 0.69244 0.0
H644 H 0.62434 0.58966 0.70522 0.0
H645 H 0.52814 0.5157 0.74202 0.0
H646 H 0.55496 0.52885 0.79626 0.0
H647 H 0.59057 0.53826 0.6528 0.0
H648 H 0.56339 0.52505 0.59732 0.0
H649 H 0.58991 0.57059 0.72307 0.0
H650 H 0.603 0.50264 0.73272 0.0
H651 H 0.59519 0.46768 0.74497 0.0
H652 H 0.57663 0.4777 0.90826 0.0
H653 H 0.584 0.51278 0.89675 0.0
C654 C 0.66227 0.57927 0.90396 0.0
C655 C 0.65845 0.57419 0.95819 0.0
C656 C 0.64756 0.5766 0.86499 0.0
C657 C 0.62885 0.56904 0.88013 0.0
C658 C 0.62445 0.5661 0.9352 0.0
C659 C 0.63921 0.56851 0.97396 0.0
C660 C 0.61538 0.56073 0.83906 0.0
C661 C 0.61053 0.54084 0.84408 0.0
C662 C 0.60838 0.57152 0.79405 0.0
C663 C 0.61289 0.5926 0.78662 0.0
C664 C 0.60869 0.60586 0.82782 0.0
C665 C 0.61283 0.62572 0.82024 0.0
C666 C 0.62106 0.63252 0.77151 0.0
C667 C 0.62513 0.61947 0.7302 0.0
C668 C 0.62103 0.59959 0.73758 0.0
C669 C 0.54167 0.52045 0.72175 0.0
C670 C 0.54367 0.51935 0.66534 0.0
C671 C 0.55702 0.52793 0.75292 0.0
C672 C 0.57474 0.5344 0.72852 0.0
C673 C 0.57695 0.53329 0.67221 0.0
C674 C 0.56152 0.52565 0.64075 0.0
C675 C 0.59063 0.54251 0.76283 0.0
C676 C 0.5961 0.5622 0.75627 0.0
C677 C 0.59834 0.53156 0.8065 0.0
C678 C 0.59393 0.5104 0.81369 0.0
C679 C 0.5971 0.49743 0.7711 0.0
C680 C 0.59277 0.47757 0.77794 0.0
C681 C 0.58538 0.47047 0.82732 0.0
C682 C 0.58234 0.48321 0.87002 0.0
C683 C 0.58661 0.50309 0.86337 0.0
H684 H 0.58203 0.4551 0.83252 0.0
H685 H 0.62423 0.6479 0.7657 0.0
H686 H 0.00726 0.63709 0.03828 0.0
H687 H 0.00061 0.61388 0.96613 0.0
H688 H 0.97695 0.66014 0.86672 0.0
H689 H 0.98291 0.68326 0.94002 0.0
H690 H 0.95792 0.62502 0.8469 0.0
H691 H 0.02425 0.64983 0.85298 0.0
H692 H 0.05619 0.65871 0.89508 0.0
H693 H 0.06582 0.59875 0.93774 0.0
H694 H 0.03378 0.58955 0.89669 0.0
H695 H 0.9866 0.56406 0.61417 0.0
H696 H 0.98017 0.59181 0.67398 0.0
H697 H 0.0004 0.55774 0.81046 0.0
H698 H 0.00745 0.53066 0.75104 0.0
H699 H 0.02047 0.59221 0.79727 0.0
H700 H 0.95253 0.56829 0.77819 0.0
H701 H 0.92304 0.56215 0.72256 0.0
H702 H 0.91589 0.62361 0.69715 0.0
H703 H 0.94665 0.63012 0.7478 0.0
C704 C 4e-05 0.6421 0.0017 0.0
C705 C 0.99555 0.66182 0.99442 0.0
C706 C 0.99632 0.62892 0.96046 0.0
C707 C 0.98865 0.63539 0.9107 0.0
C708 C 0.98285 0.65486 0.90477 0.0
C709 C 0.98625 0.66801 0.94654 0.0
C710 C 0.98916 0.62236 0.8635 0.0
C711 C 0.97158 0.61793 0.83549 0.0
C712 C 0.00712 0.61357 0.84782 0.0
C713 C 0.02654 0.61903 0.87207 0.0
C714 C 0.03312 0.63856 0.87163 0.0
C715 C 0.05125 0.64365 0.89529 0.0
C716 C 0.06301 0.62931 0.91914 0.0
C717 C 0.05669 0.60985 0.91928 0.0
C718 C 0.03855 0.60468 0.89578 0.0
C719 C 0.98922 0.56253 0.65717 0.0
C720 C -0.0024 0.54545 0.67838 0.0
C721 C 0.9856 0.57831 0.69114 0.0
C722 C 0.98996 0.57684 0.74656 0.0
C723 C -0.00289 0.55924 0.76779 0.0
C724 C 0.00106 0.54377 0.73397 0.0
C725 C 0.98901 0.59378 0.78278 0.0
C726 C 0.00673 0.59928 0.80828 0.0
C727 C 0.97124 0.60373 0.79484 0.0
C728 C 0.95228 0.59969 0.76605 0.0
C729 C 0.94502 0.58053 0.7598 0.0
C730 C 0.92807 0.57697 0.72892 0.0
C731 C 0.91749 0.59248 0.70666 0.0
C732 C 0.92411 0.61159 0.71434 0.0
C733 C 0.94148 0.61522 0.74352 0.0
H734 H 0.90417 0.58967 0.68357 0.0
H735 H 0.07704 0.63328 0.93744 0.0
H736 H 0.97908 0.21682 0.23451 0.0
H737 H 0.96843 0.18715 0.28321 0.0
H738 H 0.02352 0.18762 0.37192 0.0
H739 H 0.03438 0.21692 0.32228 0.0
H740 H 0.01833 0.15471 0.31844 0.0
H741 H 0.97762 0.19557 0.43234 0.0
H742 H 0.9509 0.21823 0.45583 0.0
H743 H 0.90772 0.17989 0.38481 0.0
H744 H 0.93421 0.15711 0.36037 0.0
H745 H 0.01586 0.09543 0.54163 0.0
H746 H 0.01389 0.1227 0.47866 0.0
H747 H 0.96081 0.0979 0.40885 0.0
H748 H 0.96256 0.07025 0.47267 0.0
H749 H 0.9592 0.13843 0.43109 0.0
H750 H 0.0009 0.09433 0.33882 0.0
H751 H 0.0281 0.07082 0.33089 0.0
H752 H 0.0706 0.11552 0.37014 0.0
H753 H 0.04368 0.13917 0.37978 0.0
C754 C 0.98862 0.21083 0.26552 0.0
C755 C 0.00762 0.21887 0.27451 0.0
C756 C 0.98252 0.19394 0.29327 0.0
C757 C 0.99528 0.18516 0.33068 0.0
C758 C 0.01358 0.19413 0.34268 0.0
C759 C 0.01977 0.2108 0.31449 0.0
C760 C 0.99106 0.16542 0.35225 0.0
C761 C 0.00543 0.15118 0.34329 0.0
C762 C 0.97366 0.16054 0.38191 0.0
C763 C 0.95795 0.17483 0.39359 0.0
C764 C 0.96248 0.19215 0.42084 0.0
C765 C 0.94735 0.20496 0.43461 0.0
C766 C 0.92764 0.20056 0.42156 0.0
C767 C 0.923 0.18334 0.39467 0.0
C768 C 0.93806 0.17048 0.38083 0.0
C769 C 0.00372 0.09571 0.51306 0.0
C770 C 0.98945 0.08066 0.51164 0.0
C771 C 0.00268 0.11125 0.47698 0.0
C772 C 0.98747 0.11196 0.43865 0.0
C773 C 0.97277 0.09734 0.43799 0.0
C774 C 0.97379 0.08166 0.47432 0.0
C775 C 0.98715 0.12842 0.40038 0.0
C776 C 0.97183 0.14189 0.40513 0.0
C777 C 0.00381 0.13271 0.36732 0.0
C778 C 0.02018 0.11857 0.3601 0.0
C779 C 0.01603 0.09914 0.34606 0.0
C780 C 0.03142 0.08577 0.34136 0.0
C781 C 0.05107 0.09165 0.35015 0.0
C782 C 0.05538 0.11095 0.36347 0.0
C783 C 0.04005 0.12436 0.36848 0.0
H784 H 0.06296 0.08127 0.34661 0.0
H785 H 0.91594 0.21044 0.43251 0.0
H786 H 0.30953 0.07506 0.19844 0.0
H787 H 0.33471 0.05695 0.24897 0.0
H788 H 0.30819 0.07485 0.39891 0.0
H789 H 0.28276 0.09279 0.34847 0.0
H790 H 0.35033 0.08247 0.38612 0.0
H791 H 0.30193 0.03067 0.3697 0.0
H792 H 0.27934 0.00832 0.3218 0.0
H793 H 0.32858 0.98575 0.23262 0.0
H794 H 0.35145 0.00818 0.2795 0.0
H795 H 0.4019 0.03389 0.57942 0.0
H796 H 0.373 0.04061 0.52348 0.0
H797 H 0.4029 0.01667 0.38539 0.0
H798 H 0.43181 0.00911 0.44253 0.0
H799 H 0.36012 0.01088 0.386 0.0
H800 H 0.40853 0.06261 0.40032 0.0
H801 H 0.43163 0.08366 0.45099 0.0
H802 H 0.38283 0.10619 0.542 0.0
H803 H 0.35946 0.08508 0.49234 0.0
C804 C 0.30915 0.07515 0.24221 0.0
C805 C 0.29444 0.08548 0.26978 0.0
C806 C 0.32335 0.06465 0.27087 0.0
C807 C 0.32315 0.06452 0.32747 0.0
C808 C 0.30844 0.07476 0.35514 0.0
C809 C 0.29402 0.085 0.32647 0.0
C810 C 0.33918 0.05492 0.35778 0.0
C811 C 0.35234 0.06681 0.38651 0.0
C812 C 0.34214 0.03456 0.3565 0.0
C813 C 0.32837 0.0213 0.3276 0.0
C814 C 0.30791 0.02113 0.33938 0.0
C815 C 0.29507 0.00839 0.31255 0.0
C816 C 0.30251 0.99567 0.27405 0.0
C817 C 0.32283 0.99565 0.26236 0.0
C818 C 0.33574 0.00836 0.28908 0.0
C819 C 0.40205 0.02953 0.53751 0.0
C820 C 0.41899 0.02124 0.51478 0.0
C821 C 0.38558 0.03334 0.50567 0.0
C822 C 0.38606 0.02952 0.45021 0.0
C823 C 0.40234 0.01975 0.42817 0.0
C824 C 0.41879 0.0155 0.4606 0.0
C825 C 0.37094 0.03844 0.41503 0.0
C826 C 0.35812 0.02653 0.38515 0.0
C827 C 0.36836 0.05886 0.41452 0.0
C828 C 0.38227 0.07219 0.44284 0.0
C829 C 0.40274 0.07203 0.43122 0.0
C830 C 0.41588 0.08396 0.45977 0.0
C831 C 0.4087 0.09621 0.49979 0.0
C832 C 0.38836 0.09668 0.51101 0.0
C833 C 0.37516 0.08477 0.48261 0.0
H834 H 0.41888 0.10533 0.52214 0.0
H835 H 0.29254 0.9858 0.25339 0.0
H836 H 0.546 0.31631 0.21503 0.0
H837 H 0.55019 0.34228 0.28023 0.0
H838 H 0.525 0.30502 0.40525 0.0
H839 H 0.52019 0.27913 0.3395 0.0
H840 H 0.50316 0.3363 0.38642 0.0
H841 H 0.57217 0.32584 0.41987 0.0
H842 H 0.60729 0.32034 0.39666 0.0
H843 H 0.60965 0.37476 0.30916 0.0
H844 H 0.57451 0.3805 0.33133 0.0
H845 H 0.49291 0.41865 0.54835 0.0
H846 H 0.50143 0.38701 0.51313 0.0
H847 H 0.53721 0.41495 0.38841 0.0
H848 H 0.52948 0.44687 0.42604 0.0
H849 H 0.5558 0.38562 0.42142 0.0
H850 H 0.48709 0.39181 0.36277 0.0
H851 H 0.45105 0.39707 0.37286 0.0
H852 H 0.44778 0.35219 0.49512 0.0
H853 H 0.48367 0.34626 0.48461 0.0
C854 C 0.54187 0.31348 0.25678 0.0
C855 C 0.53231 0.29593 0.27201 0.0
C856 C 0.54453 0.32825 0.29422 0.0
C857 C 0.53783 0.32561 0.34757 0.0
C858 C 0.53027 0.30732 0.36421 0.0
C859 C 0.52755 0.29253 0.32665 0.0
C860 C 0.5345 0.34291 0.38117 0.0
C861 C 0.51479 0.34685 0.39542 0.0
C862 C 0.54951 0.35702 0.39071 0.0
C863 C 0.57065 0.35355 0.37712 0.0
C864 C 0.58013 0.33657 0.39536 0.0
C865 C 0.60006 0.33343 0.38246 0.0
C866 C 0.61069 0.34718 0.35141 0.0
C867 C 0.60142 0.36412 0.33325 0.0
C868 C 0.58151 0.36735 0.34608 0.0
C869 C 0.50254 0.41803 0.51327 0.0
C870 C 0.51047 0.43509 0.48948 0.0
C871 C 0.50732 0.39992 0.49292 0.0
C872 C 0.51967 0.39851 0.44739 0.0
C873 C 0.52768 0.41563 0.42366 0.0
C874 C 0.52326 0.43383 0.44493 0.0
C875 C 0.52438 0.37918 0.42505 0.0
C876 C 0.54426 0.3749 0.41315 0.0
C877 C 0.50947 0.36489 0.41605 0.0
C878 C 0.48804 0.36874 0.42331 0.0
C879 C 0.47868 0.38315 0.39199 0.0
C880 C 0.45829 0.38621 0.39767 0.0
C881 C 0.44719 0.37514 0.43503 0.0
C882 C 0.4564 0.3608 0.46634 0.0
C883 C 0.47673 0.35748 0.46027 0.0
H884 H 0.43143 0.3776 0.43949 0.0
H885 H 0.62611 0.34472 0.34146 0.0
H886 H 0.21361 0.42334 0.37188 0.0
H887 H 0.18797 0.44301 0.41408 0.0
H888 H 0.14772 0.42914 0.28449 0.0
H889 H 0.17346 0.41041 0.24073 0.0
H890 H 0.14876 0.467 0.30003 0.0
H891 H 0.14301 0.40949 0.41422 0.0
H892 H 0.1545 0.38402 0.47752 0.0
H893 H 0.17123 0.42774 0.59174 0.0
H894 H 0.16011 0.45351 0.52875 0.0
H895 H 0.05345 0.48599 0.40755 0.0
H896 H 0.08422 0.47422 0.36793 0.0
H897 H 0.11771 0.49927 0.49858 0.0
H898 H 0.08709 0.51122 0.53842 0.0
H899 H 0.12339 0.45967 0.48762 0.0
H900 H 0.12571 0.51684 0.3773 0.0
H901 H 0.11189 0.54192 0.31652 0.0
H902 H 0.10021 0.49861 0.19682 0.0
H903 H 0.11369 0.47319 0.25723 0.0
C904 C 0.19924 0.42438 0.35258 0.0
C905 C 0.19563 0.41534 0.30278 0.0
C906 C 0.18457 0.43552 0.37695 0.0
C907 C 0.16596 0.43757 0.35231 0.0
C908 C 0.16203 0.42782 0.30402 0.0
C909 C 0.1767 0.41686 0.27945 0.0
C910 C 0.15084 0.45066 0.37488 0.0
C911 C 0.1431 0.46528 0.34093 0.0
C912 C 0.14402 0.44892 0.42889 0.0
C913 C 0.151 0.43344 0.4664 0.0
C914 C 0.14936 0.41369 0.45255 0.0
C915 C 0.15575 0.3992 0.48845 0.0
C916 C 0.16367 0.40426 0.53852 0.0
C917 C 0.16516 0.42384 0.55286 0.0
C918 C 0.15882 0.43839 0.51708 0.0
C919 C 0.0674 0.48953 0.42698 0.0
C920 C 0.0678 0.49926 0.47652 0.0
C921 C 0.08497 0.48278 0.40432 0.0
C922 C 0.10315 0.48576 0.43074 0.0
C923 C 0.10377 0.49675 0.47793 0.0
C924 C 0.08625 0.5036 0.50044 0.0
C925 C 0.121 0.47552 0.41225 0.0
C926 C 0.12929 0.46153 0.44699 0.0
C927 C 0.12829 0.47778 0.35904 0.0
C928 C 0.12063 0.49308 0.32194 0.0
C929 C 0.12011 0.51264 0.33812 0.0
C930 C 0.11234 0.52692 0.30372 0.0
C931 C 0.10515 0.52186 0.25287 0.0
C932 C 0.10579 0.50251 0.23623 0.0
C933 C 0.11353 0.48816 0.27049 0.0
H934 H 0.0991 0.53293 0.22633 0.0
H935 H 0.16858 0.39301 0.56628 0.0
H936 H 0.00977 0.77426 0.85824 0.0
H937 H 0.00336 0.80206 0.79791 0.0
H938 H 0.99196 0.83798 0.93612 0.0
H939 H -0.0023 0.81021 0.99617 0.0
H940 H 0.97098 0.85012 0.84807 0.0
H941 H 0.03858 0.83116 0.8935 0.0
H942 H 0.06643 0.80818 0.89602 0.0
H943 H 0.06568 0.805 0.72286 0.0
H944 H 0.03752 0.82764 0.71946 0.0
H945 H 0.00191 0.94295 0.76669 0.0
H946 H 0.00224 0.91228 0.81856 0.0
H947 H 0.01942 0.88173 0.67454 0.0
H948 H 0.02016 0.91258 0.62376 0.0
H949 H 0.03558 0.86567 0.75888 0.0
H950 H 0.97036 0.88777 0.71223 0.0
H951 H 0.94342 0.9116 0.70976 0.0
H952 H 0.93953 0.90973 0.88295 0.0
H953 H 0.96689 0.88615 0.88655 0.0
C954 C 0.00523 0.78792 0.87547 0.0
C955 C 0.00488 0.79041 0.93166 0.0
C956 C 0.00155 0.80373 0.84111 0.0
C957 C -0.00226 0.8221 0.86288 0.0
C958 C 0.99508 0.82395 0.91868 0.0
C959 C -0.00135 0.80818 0.95291 0.0
C960 C 0.00035 0.83992 0.82983 0.0
C961 C 0.98504 0.85356 0.82837 0.0
C962 C 0.01873 0.84426 0.80416 0.0
C963 C 0.03579 0.83085 0.80628 0.0
C964 C 0.04426 0.82543 0.85602 0.0
C965 C 0.06009 0.81247 0.8576 0.0
C966 C 0.06778 0.80509 0.80964 0.0
C967 C 0.05967 0.81068 0.75998 0.0
C968 C 0.04376 0.82354 0.75821 0.0
C969 C 0.00651 0.92972 0.74707 0.0
C970 C 0.01114 0.92976 0.69195 0.0
C971 C 0.00646 0.91228 0.77628 0.0
C972 C 0.01023 0.89475 0.74977 0.0
C973 C 0.01633 0.89512 0.69549 0.0
C974 C 0.01683 0.91263 0.66664 0.0
C975 C 0.00624 0.87594 0.77696 0.0
C976 C 0.02135 0.86216 0.77764 0.0
C977 C 0.98767 0.87152 0.80169 0.0
C978 C 0.97077 0.88524 0.79965 0.0
C979 C 0.96382 0.89247 0.74983 0.0
C980 C 0.94847 0.90597 0.74824 0.0
C981 C 0.9397 0.91216 0.79617 0.0
C982 C 0.94632 0.90489 0.84584 0.0
C983 C 0.96176 0.89146 0.84769 0.0
H984 H 0.92777 0.92256 0.79484 0.0
H985 H 0.08005 0.79507 0.81093 0.0
H986 H 0.67493 0.93116 0.98347 0.0
H987 H 0.64702 0.93415 0.92235 0.0
H988 H 0.68745 0.93825 0.78667 0.0
H989 H 0.7156 0.93618 0.84863 0.0
H990 H 0.66875 0.97006 0.79513 0.0
H991 H 0.64647 0.90444 0.79229 0.0
H992 H 0.6365 0.87155 0.82411 0.0
H993 H 0.58976 0.89579 0.91943 0.0
H994 H 0.5996 0.92883 0.88897 0.0
H995 H 0.58665 0.00039 0.63654 0.0
H996 H 0.61573 0.98589 0.67734 0.0
H997 H 0.58416 0.97908 0.8287 0.0
H998 H 0.5545 0.99292 0.78725 0.0
H999 H 0.5992 0.94592 0.79881 0.0
H1000 H 0.62559 0.0115 0.81132 0.0
H1001 H 0.63532 0.04421 0.77727 0.0
H1002 H 0.67405 0.01862 0.6605 0.0
H1003 H 0.66446 0.98577 0.69368 0.0
C1004 C 0.67782 0.93205 0.9404 0.0
C1005 C 0.69732 0.93417 0.92074 0.0
C1006 C 0.66182 0.93346 0.90526 0.0
C1007 C 0.66511 0.93673 0.84985 0.0
C1008 C 0.6846 0.93593 0.8294 0.0
C1009 C 0.70067 0.93472 0.86475 0.0
C1010 C 0.64928 0.94599 0.81753 0.0
C1011 C 0.65363 0.9644 0.7945 0.0
C1012 C 0.62941 0.93903 0.81833 0.0
C1013 C 0.6239 0.91919 0.83852 0.0
C1014 C 0.63422 0.9028 0.82057 0.0
C1015 C 0.62855 0.8841 0.83826 0.0
C1016 C 0.61254 0.88158 0.87385 0.0
C1017 C 0.60217 0.89776 0.8919 0.0
C1018 C 0.60779 0.91647 0.87439 0.0
C1019 C 0.58597 -0.00377 0.67889 0.0
C1020 C 0.56817 -0.00249 0.70848 0.0
C1021 C 0.60271 0.98803 0.70226 0.0
C1022 C 0.60212 0.98139 0.75602 0.0
C1023 C 0.58485 0.98404 0.78697 0.0
C1024 C 0.56797 0.99207 0.76339 0.0
C1025 C 0.6187 0.96986 0.77793 0.0
C1026 C 0.61441 0.95117 0.79875 0.0
C1027 C 0.63862 0.97645 0.775 0.0
C1028 C 0.64418 -0.0038 0.75467 0.0
C1029 C 0.63607 0.01286 0.77811 0.0
C1030 C 0.6416 0.03142 0.75906 0.0
C1031 C 0.65526 0.03349 0.71667 0.0
C1032 C 0.66346 0.017 0.69331 0.0
C1033 C 0.65802 -0.00158 0.71229 0.0
H1034 H 0.65953 0.04787 0.702 0.0
H1035 H 0.60814 0.8671 0.88736 0.0
H1036 H 0.44355 0.68444 0.99452 0.0
H1037 H 0.45415 0.65825 0.9363 0.0
H1038 H 0.46536 0.69971 0.80677 0.0
H1039 H 0.45403 0.72611 0.86467 0.0
H1040 H 0.44552 0.66923 0.77042 0.0
H1041 H 0.50442 0.67783 0.86947 0.0
H1042 H 0.52692 0.68218 0.94684 0.0
H1043 H 0.5088 0.62636 0.01149 0.0
H1044 H 0.48601 0.62175 0.93482 0.0
H1045 H 0.49826 0.59182 0.63372 0.0
H1046 H 0.49116 0.62231 0.67967 0.0
H1047 H 0.45709 0.59052 0.80043 0.0
H1048 H 0.46369 0.55988 0.75367 0.0
H1049 H 0.49229 0.61842 0.83263 0.0
H1050 H 0.4303 0.61343 0.72991 0.0
H1051 H 0.41179 0.60981 0.64473 0.0
H1052 H 0.44126 0.66072 0.57898 0.0
H1053 H 0.46002 0.66455 0.66368 0.0
C1054 C 0.44806 0.688 0.95347 0.0
C1055 C 0.4477 0.70729 0.93392 0.0
C1056 C 0.45444 0.67305 0.92051 0.0
C1057 C 0.46081 0.67708 0.86748 0.0
C1058 C 0.4606 0.69634 0.84773 0.0
C1059 C 0.45417 0.71137 0.88081 0.0
C1060 C 0.4664 0.66083 0.83222 0.0
C1061 C 0.45602 0.65832 0.78364 0.0
C1062 C 0.48014 0.6466 0.84932 0.0
C1063 C 0.49334 0.64953 0.89657 0.0
C1064 C 0.50504 0.66658 0.90049 0.0
C1065 C 0.51791 0.66906 0.94415 0.0
C1066 C 0.51925 0.65457 0.98412 0.0
C1067 C 0.50773 0.63757 0.98052 0.0
C1068 C 0.49485 0.63501 0.93693 0.0
C1069 C 0.48914 0.59137 0.66989 0.0
C1070 C 0.48158 0.57361 0.69061 0.0
C1071 C 0.48506 0.60874 0.69579 0.0
C1072 C 0.47366 0.60849 0.74315 0.0
C1073 C 0.46589 0.59083 0.76369 0.0
C1074 C 0.4696 0.57345 0.73706 0.0
C1075 C 0.47079 0.62661 0.77278 0.0
C1076 C 0.48188 0.62947 0.81975 0.0
C1077 C 0.45814 0.64135 0.75352 0.0
C1078 C 0.44669 0.63916 0.70288 0.0
C1079 C 0.43293 0.62376 0.69712 0.0
C1080 C 0.42235 0.62171 0.64898 0.0
C1081 C 0.42536 0.63501 0.60638 0.0
C1082 C 0.43891 0.65043 0.61195 0.0
C1083 C 0.44949 0.65257 0.66006 0.0
H1084 H 0.41718 0.63338 0.5691 0.0
H1085 H 0.52925 0.65651 0.01782 0.0
H1086 H 0.81912 0.59068 0.94924 0.0
H1087 H 0.84754 0.58468 0.89192 0.0
H1088 H 0.80839 0.56618 0.76411 0.0
H1089 H 0.77991 0.57067 0.82326 0.0
H1090 H 0.82789 0.53737 0.79422 0.0
H1091 H 0.84877 0.60088 0.74531 0.0
H1092 H 0.85833 0.63561 0.74891 0.0
H1093 H 0.90509 0.6221 0.86018 0.0
H1094 H 0.8956 0.58737 0.85823 0.0
H1095 H 0.91137 0.50185 0.65292 0.0
H1096 H 0.88133 0.51555 0.68971 0.0
H1097 H 0.91339 0.53315 0.83211 0.0
H1098 H 0.94402 0.52026 0.79386 0.0
H1099 H 0.89683 0.56284 0.78687 0.0
H1100 H 0.87295 0.49854 0.83359 0.0
H1101 H 0.8644 0.46401 0.81843 0.0
H1102 H 0.82365 0.48065 0.69353 0.0
H1103 H 0.83212 0.51527 0.70751 0.0
C1104 C 0.81653 0.58594 0.90825 0.0
C1105 C 0.79743 0.58018 0.89166 0.0
C1106 C 0.83285 0.58279 0.87498 0.0
C1107 C 0.83018 0.57439 0.82409 0.0
C1108 C 0.81082 0.57224 0.80376 0.0
C1109 C 0.79448 0.57494 0.83759 0.0
C1110 C 0.8466 0.56308 0.80051 0.0
C1111 C 0.84289 0.54322 0.79059 0.0
C1112 C 0.86632 0.57036 0.7978 0.0
C1113 C 0.87129 0.59146 0.802 0.0
C1114 C 0.86087 0.60533 0.7713 0.0
C1115 C 0.86634 0.62503 0.77288 0.0
C1116 C 0.88226 0.63106 0.80488 0.0
C1117 C 0.89272 0.61742 0.83554 0.0
C1118 C 0.88729 0.59772 0.83421 0.0
C1119 C 0.91197 0.50817 0.69277 0.0
C1120 C 0.93013 0.51036 0.72009 0.0
C1121 C 0.89467 0.51585 0.71403 0.0
C1122 C 0.89509 0.52541 0.76364 0.0
C1123 C 0.9128 0.52587 0.79358 0.0
C1124 C 0.93026 0.51839 0.77191 0.0
C1125 C 0.87808 0.53749 0.77963 0.0
C1126 C 0.88175 0.55733 0.78868 0.0
C1127 C 0.85832 0.53036 0.77988 0.0
C1128 C 0.85331 0.5095 0.77133 0.0
C1129 C 0.86229 0.49483 0.8026 0.0
C1130 C 0.85743 0.47524 0.79428 0.0
C1131 C 0.84353 0.47014 0.75496 0.0
C1132 C 0.83443 0.48462 0.72394 0.0
C1133 C 0.83923 0.50423 0.73211 0.0
H1134 H 0.83978 0.45497 0.7486 0.0
H1135 H 0.88654 0.64631 0.80581 0.0
H1136 H 0.01176 0.19554 0.00782 0.0
H1137 H 0.00781 0.16498 0.95852 0.0
H1138 H 0.99176 0.19737 0.81504 0.0
H1139 H 0.99637 0.22813 0.86404 0.0
H1140 H 0.96568 0.16218 0.85311 0.0
H1141 H 0.03249 0.18283 0.80586 0.0
H1142 H 0.06617 0.19455 0.8284 0.0
H1143 H 0.07596 0.14267 0.92292 0.0
H1144 H 0.04215 0.1308 0.9017 0.0
H1145 H 0.96563 0.09026 0.65922 0.0
H1146 H 0.97224 0.12004 0.70835 0.0
H1147 H 0.00752 0.08801 0.82362 0.0
H1148 H 0.0018 0.05801 0.77191 0.0
H1149 H 0.02418 0.12267 0.80427 0.0
H1150 H 0.95858 0.1014 0.85306 0.0
H1151 H 0.92461 0.08929 0.83525 0.0
H1152 H 0.91211 0.14151 0.74486 0.0
H1153 H 0.94608 0.15384 0.76167 0.0
C1154 C 0.00727 0.19607 0.96583 0.0
C1155 C 0.00424 0.21403 0.93953 0.0
C1156 C 0.00511 0.17869 0.93778 0.0
C1157 C -0.00044 0.17901 0.88328 0.0
C1158 C 0.99606 0.19693 0.85716 0.0
C1159 C -0.00132 0.21439 0.88496 0.0
C1160 C -0.00247 0.16053 0.85375 0.0
C1161 C 0.97844 0.15364 0.84171 0.0
C1162 C 0.01421 0.14916 0.8409 0.0
C1163 C 0.03471 0.15602 0.85266 0.0
C1164 C 0.04176 0.17399 0.83183 0.0
C1165 C 0.06088 0.18065 0.8443 0.0
C1166 C 0.07318 0.16938 0.8772 0.0
C1167 C 0.0664 0.15139 0.8975 0.0
C1168 C 0.04726 0.14468 0.88523 0.0
C1169 C 0.97467 0.08948 0.6953 0.0
C1170 C 0.9828 0.07175 0.71262 0.0
C1171 C 0.97846 0.10655 0.72337 0.0
C1172 C 0.98988 0.10622 0.7707 0.0
C1173 C -0.0015 0.08859 0.78749 0.0
C1174 C 0.99513 0.07147 0.75829 0.0
C1175 C 0.99221 0.12431 0.80265 0.0
C1176 C 0.01136 0.13113 0.8156 0.0
C1177 C 0.97553 0.13556 0.81713 0.0
C1178 C 0.95489 0.12849 0.80843 0.0
C1179 C 0.94858 0.11028 0.82932 0.0
C1180 C 0.92934 0.10338 0.81938 0.0
C1181 C 0.91622 0.11462 0.78889 0.0
C1182 C 0.92229 0.13283 0.7685 0.0
C1183 C 0.94152 0.1398 0.77833 0.0
H1184 H 0.90134 0.10922 0.7811 0.0
H1185 H 0.08798 0.17457 0.88686 0.0
H1186 H 0.31068 0.07755 0.02386 0.0
H1187 H 0.3393 0.06632 0.97188 0.0
H1188 H 0.30278 0.06251 0.82951 0.0
H1189 H 0.27412 0.07423 0.88126 0.0
H1190 H 0.32719 0.02789 0.85962 0.0
H1191 H 0.33163 0.09768 0.82985 0.0
H1192 H 0.33363 0.13191 0.85842 0.0
H1193 H 0.38734 0.12007 0.9452 0.0
H1194 H 0.38547 0.08566 0.9179 0.0
H1195 H 0.3976 0.00923 0.66141 0.0
H1196 H 0.37067 0.02312 0.7136 0.0
H1197 H 0.41292 0.04395 0.83108 0.0
H1198 H 0.44021 0.03123 0.77609 0.0
H1199 H 0.38607 0.0698 0.81819 0.0
H1200 H 0.38311 0.0013 0.85221 0.0
H1201 H 0.38275 0.96667 0.82696 0.0
H1202 H 0.32813 0.97477 0.741 0.0
H1203 H 0.32829 0.00952 0.76518 0.0
C1204 C 0.3088 0.07428 0.98146 0.0
C1205 C 0.29027 0.07661 0.95638 0.0
C1206 C 0.32512 0.06798 0.95189 0.0
C1207 C 0.32308 0.06368 0.89702 0.0
C1208 C 0.30456 0.06583 0.8719 0.0
C1209 C 0.28829 0.07251 0.90127 0.0
C1210 C 0.34025 0.05652 0.86622 0.0
C1211 C 0.33998 0.03707 0.8499 0.0
C1212 C 0.3572 0.06837 0.85577 0.0
C1213 C 0.35826 0.08903 0.87239 0.0
C1214 C 0.34374 0.10231 0.85556 0.0
C1215 C 0.34488 0.12176 0.8714 0.0
C1216 C 0.36056 0.12814 0.90376 0.0
C1217 C 0.37517 0.11509 0.92024 0.0
C1218 C 0.37408 0.09562 0.90458 0.0
C1219 C 0.40112 0.01674 0.69847 0.0
C1220 C 0.42085 0.01895 0.71542 0.0
C1221 C 0.38572 0.0246 0.72841 0.0
C1222 C 0.38967 0.03405 0.77723 0.0
C1223 C 0.40949 0.03658 0.79378 0.0
C1224 C 0.42502 0.02925 0.76267 0.0
C1225 C 0.37301 0.04112 0.81075 0.0
C1226 C 0.37336 0.06052 0.82797 0.0
C1227 C 0.3563 0.02909 0.82323 0.0
C1228 C 0.35576 0.00803 0.81031 0.0
C1229 C 0.37103 0.9957 0.82787 0.0
C1230 C 0.37088 0.97605 0.8137 0.0
C1231 C 0.35544 0.96853 0.78234 0.0
C1232 C 0.34007 0.98062 0.76532 0.0
C1233 C 0.34016 0.00028 0.77934 0.0
H1234 H 0.35538 0.95334 0.77128 0.0
H1235 H 0.36143 0.14321 0.91593 0.0
H1236 H 0.53434 0.31616 0.97796 0.0
H1237 H 0.53478 0.34681 0.9272 0.0
H1238 H 0.49884 0.32064 0.80313 0.0
H1239 H 0.49939 0.28952 0.85203 0.0
H1240 H 0.52393 0.34461 0.75785 0.0
H1241 H 0.47891 0.34894 0.90655 0.0
H1242 H 0.46864 0.34664 0.00215 0.0
H1243 H 0.51114 0.39123 0.04253 0.0
H1244 H 0.52192 0.39356 0.94724 0.0
H1245 H 0.48694 0.43436 0.64948 0.0
H1246 H 0.48642 0.40351 0.70101 0.0
H1247 H 0.53537 0.42402 0.7976 0.0
H1248 H 0.53639 0.45458 0.74508 0.0
H1249 H 0.50259 0.40325 0.85655 0.0
H1250 H 0.54726 0.3978 0.7044 0.0
H1251 H 0.55731 0.39836 0.60854 0.0
H1252 H 0.51306 0.35479 0.57369 0.0
H1253 H 0.5024 0.35428 0.66925 0.0
C1254 C 0.527 0.31668 0.93914 0.0
C1255 C 0.51665 0.3003 0.91946 0.0
C1256 C 0.52698 0.33439 0.91051 0.0
C1257 C 0.51632 0.33627 0.86205 0.0
C1258 C 0.50696 0.31968 0.84075 0.0
C1259 C 0.50716 0.30189 0.86903 0.0
C1260 C 0.51433 0.35562 0.83458 0.0
C1261 C 0.51897 0.35734 0.77935 0.0
C1262 C 0.50806 0.37238 0.8626 0.0
C1263 C 0.50135 0.3713 0.91979 0.0
C1264 C 0.48615 0.35818 0.93585 0.0
C1265 C 0.48023 0.35687 0.98999 0.0
C1266 C 0.48927 0.36875 0.02841 0.0
C1267 C 0.50418 0.38202 0.01273 0.0
C1268 C 0.51019 0.38335 0.95864 0.0
C1269 C 0.49727 0.43245 0.68253 0.0
C1270 C 0.51166 0.44686 0.6935 0.0
C1271 C 0.49705 0.41479 0.71164 0.0
C1272 C 0.51094 0.41146 0.75287 0.0
C1273 C 0.52454 0.42631 0.76596 0.0
C1274 C 0.52509 0.44374 0.73601 0.0
C1275 C 0.51219 0.39211 0.78008 0.0
C1276 C 0.5074 0.39044 0.83518 0.0
C1277 C 0.518 0.37532 0.75177 0.0
C1278 C 0.52386 0.37619 0.69391 0.0
C1279 C 0.53944 0.38857 0.67619 0.0
C1280 C 0.54531 0.38882 0.62194 0.0
C1281 C 0.53588 0.37657 0.58514 0.0
C1282 C 0.52039 0.36422 0.60234 0.0
C1283 C 0.5144 0.36398 0.6565 0.0
H1284 H 0.5406 0.37664 0.5433 0.0
H1285 H 0.48468 0.3677 0.07032 0.0
H1286 H 0.18427 0.43722 0.0434 0.0
H1287 H 0.15603 0.4472 0.98858 0.0
H1288 H 0.18776 0.43192 0.84386 0.0
H1289 H 0.21635 0.42206 0.89876 0.0
H1290 H 0.16732 0.46692 0.83298 0.0
H1291 H 0.15414 0.40157 0.89002 0.0
H1292 H 0.15099 0.37399 0.95438 0.0
H1293 H 0.10462 0.40346 0.03878 0.0
H1294 H 0.10774 0.43141 0.97549 0.0
H1295 H 0.07902 0.46516 0.67069 0.0
H1296 H 0.1084 0.45308 0.71797 0.0
H1297 H 0.08563 0.4749 0.86815 0.0
H1298 H 0.05642 0.48749 0.82097 0.0
H1299 H 0.1021 0.43484 0.87046 0.0
H1300 H 0.11751 0.50115 0.81594 0.0
H1301 H 0.12097 0.52849 0.75087 0.0
H1302 H 0.16333 0.49616 0.65943 0.0
H1303 H 0.15986 0.46847 0.72358 0.0
C1304 C 0.18542 0.43629 -0.00014 0.0
C1305 C 0.20257 0.42887 0.97539 0.0
C1306 C 0.16918 0.44184 0.96861 0.0
C1307 C 0.1697 0.44007 0.91222 0.0
C1308 C 0.18703 0.43331 0.88736 0.0
C1309 C 0.20329 0.42761 0.91873 0.0
C1310 C 0.15185 0.44478 0.8798 0.0
C1311 C 0.15314 0.45968 0.84053 0.0
C1312 C 0.13329 0.43549 0.89013 0.0
C1313 C 0.13132 0.41869 0.92828 0.0
C1314 C 0.1434 0.40226 0.9226 0.0
C1315 C 0.1416 0.38655 0.95885 0.0
C1316 C 0.12765 0.38699 0.00072 0.0
C1317 C 0.11544 0.40315 0.00636 0.0
C1318 C 0.11722 0.41893 0.9703 0.0
C1319 C 0.0801 0.46713 0.71393 0.0
C1320 C 0.06538 0.47726 0.74218 0.0
C1321 C 0.09695 0.46032 0.74076 0.0
C1322 C 0.09919 0.46322 0.7964 0.0
C1323 C 0.08413 0.47254 0.82515 0.0
C1324 C 0.06748 0.47971 0.79818 0.0
C1325 C 0.11755 0.45712 0.82437 0.0
C1326 C 0.11634 0.44194 0.8627 0.0
C1327 C 0.13617 0.46606 0.81291 0.0
C1328 C 0.1382 0.48263 0.77411 0.0
C1329 C 0.12737 0.49977 0.78159 0.0
C1330 C 0.12938 0.51536 0.74497 0.0
C1331 C 0.14231 0.51404 0.70092 0.0
C1332 C 0.15329 0.49714 0.69349 0.0
C1333 C 0.1513 0.4815 0.72997 0.0
H1334 H 0.14387 0.52613 0.67265 0.0
H1335 H 0.12627 0.3748 0.02872 0.0
H1336 H 0.02561 0.80869 0.21797 0.0
H1337 H 0.01933 0.83895 0.26537 0.0
H1338 H 0.96975 0.81159 0.34894 0.0
H1339 H 0.97557 0.7813 0.29906 0.0
H1340 H 0.96139 0.84889 0.32391 0.0
H1341 H 0.01474 0.81684 0.41176 0.0
H1342 H 0.04645 0.79937 0.41714 0.0
H1343 H 0.07727 0.84931 0.35033 0.0
H1344 H 0.0457 0.86699 0.34372 0.0
H1345 H 0.97175 0.92845 0.52006 0.0
H1346 H 0.96692 0.89697 0.47548 0.0
H1347 H 0.01212 0.91288 0.35858 0.0
H1348 H 0.01698 0.94412 0.40238 0.0
H1349 H 0.01977 0.8785 0.41465 0.0
H1350 H 0.96478 0.90917 0.32114 0.0
H1351 H 0.93252 0.92566 0.31569 0.0
H1352 H 0.90431 0.87745 0.39896 0.0
H1353 H 0.93647 0.86077 0.40553 0.0
C1354 C 0.01335 0.80917 0.2464 0.0
C1355 C 0.00127 0.79268 0.25577 0.0
C1356 C 0.00977 0.82644 0.27354 0.0
C1357 C 0.99439 0.82743 0.31188 0.0
C1358 C 0.9818 0.81113 0.31991 0.0
C1359 C 0.98517 0.79385 0.29175 0.0
C1360 C 0.99222 0.84535 0.34448 0.0
C1361 C 0.97404 0.85521 0.34461 0.0
C1362 C 0.00869 0.85361 0.37175 0.0
C1363 C 0.02782 0.84321 0.37705 0.0
C1364 C 0.02827 0.82408 0.39805 0.0
C1365 C 0.04622 0.81413 0.40129 0.0
C1366 C 0.06386 0.82322 0.38404 0.0
C1367 C 0.0636 0.8423 0.3637 0.0
C1368 C 0.04568 0.8523 0.36027 0.0
C1369 C 0.98025 0.92544 0.48397 0.0
C1370 C 0.99491 0.93872 0.46507 0.0
C1371 C 0.9775 0.90742 0.45862 0.0
C1372 C 0.98931 0.90251 0.414 0.0
C1373 C 0.00296 0.9163 0.39319 0.0
C1374 C 0.0057 0.93419 0.41829 0.0
C1375 C 0.98923 0.88248 0.39199 0.0
C1376 C 0.00702 0.87209 0.3945 0.0
C1377 C 0.97235 0.87372 0.36799 0.0
C1378 C 0.95308 0.88385 0.36448 0.0
C1379 C 0.95175 0.90218 0.33885 0.0
C1380 C 0.93346 0.91154 0.33541 0.0
C1381 C 0.91639 0.90264 0.35715 0.0
C1382 C 0.91755 0.88434 0.38226 0.0
C1383 C 0.9358 0.87493 0.38582 0.0
H1384 H 0.90225 0.9099 0.35439 0.0
H1385 H 0.07774 0.81548 0.38649 0.0
H1386 H 0.7097 0.96719 0.27436 0.0
H1387 H 0.67884 0.97107 0.32325 0.0
H1388 H 0.66664 0.90941 0.31249 0.0
H1389 H 0.69802 0.90529 0.26301 0.0
H1390 H 0.63427 0.93176 0.28439 0.0
H1391 H 0.67864 0.92772 0.43262 0.0
H1392 H 0.70918 0.93463 0.48396 0.0
H1393 H 0.69409 0.99511 0.49082 0.0
H1394 H 0.66365 0.98867 0.43868 0.0
H1395 H 0.55234 0.95636 0.46651 0.0
H1396 H 0.5804 0.94041 0.42292 0.0
H1397 H 0.60905 -0.00368 0.39713 0.0
H1398 H 0.58121 0.01238 0.44023 0.0
H1399 H 0.6319 0.96883 0.45493 0.0
H1400 H 0.59119 0.97349 0.29379 0.0
H1401 H 0.56064 0.96722 0.24185 0.0
H1402 H 0.56867 0.90557 0.26113 0.0
H1403 H 0.59914 0.9115 0.31396 0.0
C1404 C 0.70088 0.95427 0.28373 0.0
C1405 C 0.70659 0.93584 0.26564 0.0
C1406 C 0.68309 0.95656 0.3114 0.0
C1407 C 0.67059 0.94049 0.32219 0.0
C1408 C 0.67617 0.92198 0.30474 0.0
C1409 C 0.69409 0.91965 0.27671 0.0
C1410 C 0.65141 0.94366 0.3499 0.0
C1411 C 0.63368 0.93941 0.32241 0.0
C1412 C 0.65069 0.95378 0.39927 0.0
C1413 C 0.66885 0.9577 0.43155 0.0
C1414 C 0.68187 0.94252 0.44483 0.0
C1415 C 0.69918 0.94635 0.47408 0.0
C1416 C 0.70358 0.9653 0.49061 0.0
C1417 C 0.69066 0.98044 0.47803 0.0
C1418 C 0.67336 0.9767 0.44869 0.0
C1419 C 0.56441 0.96529 0.45045 0.0
C1420 C 0.56468 0.98562 0.45735 0.0
C1421 C 0.58041 0.95614 0.42569 0.0
C1422 C 0.59681 0.96721 0.40752 0.0
C1423 C 0.59655 0.98756 0.41146 0.0
C1424 C 0.58059 -0.0033 0.43589 0.0
C1425 C 0.615 0.95776 0.38814 0.0
C1426 C 0.63248 0.96075 0.41759 0.0
C1427 C 0.61542 0.9465 0.34082 0.0
C1428 C 0.5973 0.94294 0.30836 0.0
C1429 C 0.58635 0.9586 0.28735 0.0
C1430 C 0.56907 0.95511 0.25768 0.0
C1431 C 0.56268 0.93601 0.24834 0.0
C1432 C 0.57362 0.92036 0.26848 0.0
C1433 C 0.5909 0.92378 0.29826 0.0
H1434 H 0.54929 0.93333 0.22539 0.0
H1435 H 0.71699 0.96824 0.51321 0.0
H1436 H 0.43205 0.69533 0.27283 0.0
H1437 H 0.44064 0.66611 0.32382 0.0
H1438 H 0.50253 0.68312 0.31856 0.0
H1439 H 0.49396 0.7126 0.26675 0.0
H1440 H 0.49834 0.64498 0.29897 0.0
H1441 H 0.47571 0.68722 0.43524 0.0
H1442 H 0.4536 0.71051 0.47959 0.0
H1443 H 0.40682 0.66741 0.48497 0.0
H1444 H 0.42854 0.64394 0.43991 0.0
H1445 H 0.51175 0.56648 0.50102 0.0
H1446 H 0.51328 0.59751 0.45009 0.0
H1447 H 0.45043 0.59293 0.41889 0.0
H1448 H 0.44879 0.56222 0.46913 0.0
H1449 H 0.46121 0.62746 0.46649 0.0
H1450 H 0.48411 0.58661 0.32027 0.0
H1451 H 0.50709 0.564 0.27635 0.0
H1452 H 0.55496 0.60534 0.29383 0.0
H1453 H 0.53232 0.62808 0.33864 0.0
C1454 C 0.44747 0.69309 0.28325 0.0
C1455 C 0.46227 0.70651 0.26647 0.0
C1456 C 0.45238 0.6763 0.31233 0.0
C1457 C 0.4722 0.67255 0.32603 0.0
C1458 C 0.48712 0.68574 0.30874 0.0
C1459 C 0.4822 0.70258 0.27921 0.0
C1460 C 0.47704 0.65465 0.3577 0.0
C1461 C 0.49051 0.64131 0.3362 0.0
C1462 C 0.46687 0.6498 0.40634 0.0
C1463 C 0.45374 0.66385 0.43377 0.0
C1464 C 0.46066 0.68274 0.44551 0.0
C1465 C 0.4482 0.69597 0.47083 0.0
C1466 C 0.4288 0.69046 0.48494 0.0
C1467 C 0.42183 0.67168 0.47388 0.0
C1468 C 0.43423 0.65839 0.44854 0.0
C1469 C 0.49838 0.57189 0.48215 0.0
C1470 C 0.48011 0.56197 0.48941 0.0
C1471 C 0.49927 0.58963 0.45322 0.0
C1472 C 0.48192 0.59761 0.43109 0.0
C1473 C 0.46396 0.58715 0.436 0.0
C1474 C 0.46307 0.56954 0.46467 0.0
C1475 C 0.48174 0.61745 0.40638 0.0
C1476 C 0.46924 0.63126 0.42964 0.0
C1477 C 0.49296 0.62272 0.35986 0.0
C1478 C 0.50658 0.60893 0.33353 0.0
C1479 C 0.49959 0.59078 0.31536 0.0
C1480 C 0.51254 0.57796 0.29016 0.0
C1481 C 0.53249 0.5832 0.2825 0.0
C1482 C 0.53952 0.60128 0.29993 0.0
C1483 C 0.52663 0.61413 0.32523 0.0
H1484 H 0.54248 0.57327 0.26289 0.0
H1485 H 0.41918 0.70072 0.50458 0.0
H1486 H 0.77661 0.55435 0.30886 0.0
H1487 H 0.80755 0.55297 0.35917 0.0
H1488 H 0.83706 0.58714 0.2344 0.0
H1489 H 0.80644 0.58745 0.18204 0.0
H1490 H 0.85811 0.55698 0.25623 0.0
H1491 H 0.82848 0.60506 0.36665 0.0
H1492 H 0.80197 0.61998 0.42054 0.0
H1493 H 0.8023 0.57122 0.53098 0.0
H1494 H 0.82862 0.55587 0.47742 0.0
H1495 H 0.94437 0.55005 0.43939 0.0
H1496 H 0.9181 0.56516 0.38423 0.0
H1497 H 0.87547 0.52348 0.44842 0.0
H1498 H 0.90129 0.50819 0.50191 0.0
H1499 H 0.8649 0.56506 0.45412 0.0
H1500 H 0.88892 0.51488 0.33406 0.0
H1501 H 0.91395 0.49851 0.27837 0.0
H1502 H 0.92341 0.55116 0.18569 0.0
H1503 H 0.89861 0.56793 0.24147 0.0
C1504 C 0.78961 0.56176 0.29232 0.0
C1505 C 0.78901 0.57089 0.2412 0.0
C1506 C 0.80729 0.56118 0.32151 0.0
C1507 C 0.82468 0.57012 0.3009 0.0
C1508 C 0.82386 0.58017 0.25123 0.0
C1509 C 0.80622 0.58054 0.22163 0.0
C1510 C 0.84397 0.56723 0.32872 0.0
C1511 C 0.85976 0.5593 0.29926 0.0
C1512 C 0.84613 0.56996 0.38501 0.0
C1513 C 0.83051 0.5793 0.41788 0.0
C1514 C 0.82285 0.59748 0.40231 0.0
C1515 C 0.80785 0.60602 0.43282 0.0
C1516 C 0.80045 0.59655 0.47913 0.0
C1517 C 0.80806 0.57855 0.49513 0.0
C1518 C 0.82305 0.56995 0.46478 0.0
C1519 C 0.9294 0.54412 0.44139 0.0
C1520 C 0.9249 0.52793 0.4749 0.0
C1521 C 0.91447 0.55272 0.40994 0.0
C1522 C 0.8949 0.54543 0.41262 0.0
C1523 C 0.89048 0.52933 0.44602 0.0
C1524 C 0.90532 0.52057 0.47638 0.0
C1525 C 0.87859 0.55446 0.38177 0.0
C1526 C 0.86339 0.56345 0.41077 0.0
C1527 C 0.87696 0.55269 0.32519 0.0
C1528 C 0.89221 0.54276 0.29262 0.0
C1529 C 0.89657 0.52306 0.30239 0.0
C1530 C 0.91064 0.51368 0.27065 0.0
C1531 C 0.92034 0.52381 0.22871 0.0
C1532 C 0.91595 0.54335 0.21835 0.0
C1533 C 0.9019 0.5528 0.25003 0.0
H1534 H 0.9312 0.51651 0.20409 0.0
H1535 H 0.78882 0.60317 0.50264 0.0
loop_
_geom_bond_atom_site_label_1
_geom_bond_atom_site_label_2
_geom_bond_distance
_geom_bond_site_symmetry_2
_ccdc_geom_bond_type
P0 O11 1.490 . S
P0 C14 1.812 . S
P0 C20 1.803 . S
P0 C26 1.819 1_554 S
H1 C15 0.941 . S
H2 C16 0.939 . S
H3 C18 0.940 . S
H4 C19 0.940 . S
H5 C21 0.939 . S
H6 C22 0.942 . S
H7 C24 0.940 . S
H8 C25 0.939 . S
H9 C27 0.941 . S
H10 C31 0.939 . S
O11 P0 1.490 . S
H12 C28 0.939 . S
H13 C30 0.940 . S
C14 P0 1.812 . S
C14 C15 1.389 . S
C14 C19 1.391 . S
C15 H1 0.941 . S
C15 C14 1.389 . S
C15 C16 1.397 . S
C16 H2 0.939 . S
C16 C15 1.397 . S
C16 C17 1.378 . S
C17 C16 1.378 . S
C17 C18 1.378 . S
C18 H3 0.940 . S
C18 C17 1.378 . S
C18 C19 1.396 . S
C19 H4 0.940 . S
C19 C14 1.391 . S
C19 C18 1.396 . S
C20 P0 1.803 . S
C20 C21 1.378 1_554 S
C20 C25 1.400 . S
C21 H5 0.939 . S
C21 C20 1.378 1_556 S
C21 C22 1.361 . S
C22 H6 0.942 . S
C22 C21 1.361 . S
C22 C23 1.369 . S
C23 C22 1.369 . S
C23 C24 1.404 1_556 S
C24 H7 0.940 . S
C24 C23 1.404 1_554 S
C24 C25 1.389 . S
C25 H8 0.939 . S
C25 C20 1.400 . S
C25 C24 1.389 . S
C26 P0 1.819 1_556 S
C26 C27 1.391 . S
C26 C31 1.391 . S
C27 H9 0.941 . S
C27 C26 1.391 . S
C27 C28 1.396 . S
C28 H12 0.939 . S
C28 C27 1.396 . S
C28 C29 1.397 . S
C29 C28 1.397 . S
C29 C30 1.385 . S
C30 H13 0.940 . S
C30 C29 1.385 . S
C30 C31 1.388 . S
C31 H10 0.939 . S
C31 C26 1.391 . S
C31 C30 1.388 . S
P32 O43 1.490 . S
P32 C46 1.812 . S
P32 C52 1.803 . S
P32 C58 1.819 1_554 S
H33 C47 0.941 . S
H34 C48 0.939 . S
H35 C50 0.940 . S
H36 C51 0.950 . S
H37 C53 0.939 . S
H38 C54 0.942 . S
H39 C56 0.940 . S
H40 C57 0.959 . S
H41 C59 0.941 1_554 S
H42 C63 0.929 1_655 S
O43 P32 1.490 . S
H44 C60 0.939 . S
H45 C62 0.940 . S
C46 P32 1.812 . S
C46 C47 1.389 . S
C46 C51 1.375 1_455 S
C47 H33 0.941 . S
C47 C46 1.389 . S
C47 C48 1.397 . S
C48 H34 0.939 . S
C48 C47 1.397 . S
C48 C49 1.378 . S
C49 C48 1.378 . S
C49 C50 1.378 1_455 S
C50 H35 0.940 . S
C50 C49 1.378 1_655 S
C50 C51 1.403 . S
C51 H36 0.950 . S
C51 C46 1.375 1_655 S
C51 C50 1.403 . S
C52 P32 1.803 . S
C52 C53 1.378 1_554 S
C52 C57 1.369 1_455 S
C53 H37 0.939 . S
C53 C52 1.378 1_556 S
C53 C54 1.361 . S
C54 H38 0.942 . S
C54 C53 1.361 . S
C54 C55 1.370 . S
C55 C54 1.370 . S
C55 C56 1.402 1_456 S
C56 H39 0.940 . S
C56 C55 1.402 1_654 S
C56 C57 1.402 . S
C57 H40 0.959 . S
C57 C52 1.369 1_655 S
C57 C56 1.402 . S
C58 P32 1.819 1_556 S
C58 C59 1.391 . S
C58 C63 1.391 . S
C59 H41 0.941 1_556 S
C59 C58 1.391 . S
C59 C60 1.396 . S
C60 H44 0.939 . S
C60 C59 1.396 . S
C60 C61 1.397 . S
C61 C60 1.397 . S
C61 C62 1.385 1_455 S
C62 H45 0.940 . S
C62 C61 1.385 1_655 S
C62 C63 1.388 1_655 S
C63 H42 0.929 1_455 S
C63 C58 1.391 . S
C63 C62 1.388 1_455 S
P64 O75 1.490 . S
P64 C78 1.812 . S
P64 C84 1.803 . S
P64 C90 1.819 1_554 S
H65 C79 0.941 . S
H66 C80 0.939 . S
H67 C82 0.940 . S
H68 C83 0.940 . S
H69 C85 0.939 . S
H70 C86 0.942 . S
H71 C88 0.940 . S
H72 C89 0.939 . S
H73 C91 0.941 1_554 S
H74 C95 0.939 . S
O75 P64 1.490 . S
H76 C92 0.939 . S
H77 C94 0.940 . S
C78 P64 1.812 . S
C78 C79 1.389 . S
C78 C83 1.391 . S
C79 H65 0.941 . S
C79 C78 1.389 . S
C79 C80 1.397 . S
C80 H66 0.939 . S
C80 C79 1.397 . S
C80 C81 1.378 . S
C81 C80 1.378 . S
C81 C82 1.378 . S
C82 H67 0.940 . S
C82 C81 1.378 . S
C82 C83 1.396 . S
C83 H68 0.940 . S
C83 C78 1.391 . S
C83 C82 1.396 . S
C84 P64 1.803 . S
C84 C85 1.378 1_554 S
C84 C89 1.400 . S
C85 H69 0.939 . S
C85 C84 1.378 1_556 S
C85 C86 1.361 . S
C86 H70 0.942 . S
C86 C85 1.361 . S
C86 C87 1.369 . S
C87 C86 1.369 . S
C87 C88 1.404 1_556 S
C88 H71 0.940 . S
C88 C87 1.404 1_554 S
C88 C89 1.389 . S
C89 H72 0.939 . S
C89 C84 1.400 . S
C89 C88 1.389 . S
C90 P64 1.819 1_556 S
C90 C91 1.391 . S
C90 C95 1.391 . S
C91 H73 0.941 1_556 S
C91 C90 1.391 . S
C91 C92 1.396 . S
C92 H76 0.939 . S
C92 C91 1.396 . S
C92 C93 1.397 . S
C93 C92 1.397 . S
C93 C94 1.385 . S
C94 H77 0.940 . S
C94 C93 1.385 . S
C94 C95 1.388 . S
C95 H74 0.939 . S
C95 C90 1.391 . S
C95 C94 1.388 . S
P96 O107 1.490 . S
P96 C110 1.812 . S
P96 C116 1.803 . S
P96 C122 1.819 1_554 S
H97 C111 0.941 . S
H98 C112 0.939 . S
H99 C114 0.940 . S
H100 C115 0.940 . S
H101 C117 0.939 . S
H102 C118 0.942 . S
H103 C120 0.940 . S
H104 C121 0.939 . S
H105 C123 0.941 1_554 S
H106 C127 0.939 . S
O107 P96 1.490 . S
H108 C124 0.939 . S
H109 C126 0.940 . S
C110 P96 1.812 . S
C110 C111 1.389 . S
C110 C115 1.391 . S
C111 H97 0.941 . S
C111 C110 1.389 . S
C111 C112 1.397 . S
C112 H98 0.939 . S
C112 C111 1.397 . S
C112 C113 1.378 . S
C113 C112 1.378 . S
C113 C114 1.378 . S
C114 H99 0.940 . S
C114 C113 1.378 . S
C114 C115 1.396 . S
C115 H100 0.940 . S
C115 C110 1.391 . S
C115 C114 1.396 . S
C116 P96 1.803 . S
C116 C117 1.378 1_554 S
C116 C121 1.400 . S
C117 H101 0.939 . S
C117 C116 1.378 1_556 S
C117 C118 1.361 . S
C118 H102 0.942 . S
C118 C117 1.361 . S
C118 C119 1.375 . S
C119 C118 1.375 . S
C119 C120 1.393 1_556 S
C120 H103 0.940 . S
C120 C119 1.393 1_554 S
C120 C121 1.389 . S
C121 H104 0.939 . S
C121 C116 1.400 . S
C121 C120 1.389 . S
C122 P96 1.819 1_556 S
C122 C123 1.391 . S
C122 C127 1.391 . S
C123 H105 0.941 1_556 S
C123 C122 1.391 . S
C123 C124 1.396 . S
C124 H108 0.939 . S
C124 C123 1.396 . S
C124 C125 1.397 . S
C125 C124 1.397 . S
C125 C126 1.385 . S
C126 H109 0.940 . S
C126 C125 1.385 . S
C126 C127 1.388 . S
C127 H106 0.939 . S
C127 C122 1.391 . S
C127 C126 1.388 . S
P128 O139 1.490 . S
P128 C142 1.812 . S
P128 C148 1.803 . S
P128 C154 1.819 . S
H129 C143 0.941 . S
H130 C144 0.939 1_556 S
H131 C146 0.940 . S
H132 C147 0.940 . S
H133 C149 0.939 . S
H134 C150 0.942 . S
H135 C152 0.940 . S
H136 C153 0.939 . S
H137 C155 0.941 . S
H138 C159 0.939 . S
O139 P128 1.490 . S
H140 C156 0.939 . S
H141 C158 0.940 . S
C142 P128 1.812 . S
C142 C143 1.389 . S
C142 C147 1.391 . S
C143 H129 0.941 . S
C143 C142 1.389 . S
C143 C144 1.397 . S
C144 H130 0.939 1_554 S
C144 C143 1.397 . S
C144 C145 1.378 . S
C145 C144 1.378 . S
C145 C146 1.378 . S
C146 H131 0.940 . S
C146 C145 1.378 . S
C146 C147 1.396 . S
C147 H132 0.940 . S
C147 C142 1.391 . S
C147 C146 1.396 . S
C148 P128 1.803 . S
C148 C149 1.378 . S
C148 C153 1.400 . S
C149 H133 0.939 . S
C149 C148 1.378 . S
C149 C150 1.361 . S
C150 H134 0.942 . S
C150 C149 1.361 . S
C150 C151 1.369 . S
C151 C150 1.369 . S
C151 C152 1.404 . S
C152 H135 0.940 . S
C152 C151 1.404 . S
C152 C153 1.389 . S
C153 H136 0.939 . S
C153 C148 1.400 . S
C153 C152 1.389 . S
C154 P128 1.819 . S
C154 C155 1.391 . S
C154 C159 1.391 . S
C155 H137 0.941 . S
C155 C154 1.391 . S
C155 C156 1.396 . S
C156 H140 0.939 . S
C156 C155 1.396 . S
C156 C157 1.397 . S
C157 C156 1.397 . S
C157 C158 1.385 . S
C158 H141 0.940 . S
C158 C157 1.385 . S
C158 C159 1.388 . S
C159 H138 0.939 . S
C159 C154 1.391 . S
C159 C158 1.388 . S
P160 O171 1.490 . S
P160 C174 1.812 . S
P160 C180 1.803 . S
P160 C186 1.819 . S
H161 C175 0.941 . S
H162 C176 0.939 . S
H163 C178 0.940 . S
H164 C179 0.943 . S
H165 C181 0.939 . S
H166 C182 0.942 . S
H167 C184 0.940 . S
H168 C185 0.951 . S
H169 C187 0.941 . S
H170 C191 0.933 1_655 S
O171 P160 1.490 . S
H172 C188 0.939 . S
H173 C190 0.940 . S
C174 P160 1.812 . S
C174 C175 1.389 . S
C174 C179 1.387 1_455 S
C175 H161 0.941 . S
C175 C174 1.389 . S
C175 C176 1.397 1_554 S
C176 H162 0.939 . S
C176 C175 1.397 1_556 S
C176 C177 1.378 . S
C177 C176 1.378 . S
C177 C178 1.378 1_456 S
C178 H163 0.940 . S
C178 C177 1.378 1_654 S
C178 C179 1.398 . S
C179 H164 0.943 . S
C179 C174 1.387 1_655 S
C179 C178 1.398 . S
C180 P160 1.803 . S
C180 C181 1.378 . S
C180 C185 1.381 1_455 S
C181 H165 0.939 . S
C181 C180 1.378 . S
C181 C182 1.361 . S
C182 H166 0.942 . S
C182 C181 1.361 . S
C182 C183 1.369 . S
C183 C182 1.369 . S
C183 C184 1.404 1_455 S
C184 H167 0.940 . S
C184 C183 1.404 1_655 S
C184 C185 1.397 . S
C185 H168 0.951 . S
C185 C180 1.381 1_655 S
C185 C184 1.397 . S
C186 P160 1.819 . S
C186 C187 1.391 . S
C186 C191 1.391 . S
C187 H169 0.941 . S
C187 C186 1.391 . S
C187 C188 1.396 . S
C188 H172 0.939 . S
C188 C187 1.396 . S
C188 C189 1.397 . S
C189 C188 1.397 . S
C189 C190 1.385 1_455 S
C190 H173 0.940 . S
C190 C189 1.385 1_655 S
C190 C191 1.388 1_655 S
C191 H170 0.933 1_455 S
C191 C186 1.391 . S
C191 C190 1.388 1_455 S
P192 O203 1.490 . S
P192 C206 1.812 . S
P192 C212 1.803 . S
P192 C218 1.819 . S
H193 C207 0.941 . S
H194 C208 0.939 1_556 S
H195 C210 0.940 . S
H196 C211 0.940 . S
H197 C213 0.939 . S
H198 C214 0.942 . S
H199 C216 0.940 . S
H200 C217 0.939 . S
H201 C219 0.941 . S
H202 C223 0.939 . S
O203 P192 1.490 . S
H204 C220 0.939 . S
H205 C222 0.940 . S
C206 P192 1.812 . S
C206 C207 1.389 . S
C206 C211 1.391 . S
C207 H193 0.941 . S
C207 C206 1.389 . S
C207 C208 1.397 . S
C208 H194 0.939 1_554 S
C208 C207 1.397 . S
C208 C209 1.378 1_554 S
C209 C208 1.378 1_556 S
C209 C210 1.378 1_556 S
C210 H195 0.940 . S
C210 C209 1.378 1_554 S
C210 C211 1.396 . S
C211 H196 0.940 . S
C211 C206 1.391 . S
C211 C210 1.396 . S
C212 P192 1.803 . S
C212 C213 1.378 . S
C212 C217 1.400 . S
C213 H197 0.939 . S
C213 C212 1.378 . S
C213 C214 1.361 . S
C214 H198 0.942 . S
C214 C213 1.361 . S
C214 C215 1.369 . S
C215 C214 1.369 . S
C215 C216 1.404 . S
C216 H199 0.940 . S
C216 C215 1.404 . S
C216 C217 1.389 . S
C217 H200 0.939 . S
C217 C212 1.400 . S
C217 C216 1.389 . S
C218 P192 1.819 . S
C218 C219 1.391 . S
C218 C223 1.391 . S
C219 H201 0.941 . S
C219 C218 1.391 . S
C219 C220 1.396 . S
C220 H204 0.939 . S
C220 C219 1.396 . S
C220 C221 1.397 . S
C221 C220 1.397 . S
C221 C222 1.385 . S
C222 H205 0.940 . S
C222 C221 1.385 . S
C222 C223 1.388 . S
C223 H202 0.939 . S
C223 C218 1.391 . S
C223 C222 1.388 . S
P224 O235 1.490 . S
P224 C238 1.812 . S
P224 C244 1.803 . S
P224 C250 1.819 . S
H225 C239 0.941 . S
H226 C240 0.939 . S
H227 C242 0.940 . S
H228 C243 0.940 . S
H229 C245 0.939 . S
H230 C246 0.942 . S
H231 C248 0.940 . S
H232 C249 0.939 . S
H233 C251 0.941 . S
H234 C255 0.939 . S
O235 P224 1.490 . S
H236 C252 0.939 . S
H237 C254 0.940 . S
C238 P224 1.812 . S
C238 C239 1.389 . S
C238 C243 1.391 . S
C239 H225 0.941 . S
C239 C238 1.389 . S
C239 C240 1.397 1_554 S
C240 H226 0.939 . S
C240 C239 1.397 1_556 S
C240 C241 1.378 . S
C241 C240 1.378 . S
C241 C242 1.378 1_556 S
C242 H227 0.940 . S
C242 C241 1.378 1_554 S
C242 C243 1.396 . S
C243 H228 0.940 . S
C243 C238 1.391 . S
C243 C242 1.396 . S
C244 P224 1.803 . S
C244 C245 1.378 . S
C244 C249 1.400 . S
C245 H229 0.939 . S
C245 C244 1.378 . S
C245 C246 1.361 . S
C246 H230 0.942 . S
C246 C245 1.361 . S
C246 C247 1.369 . S
C247 C246 1.369 . S
C247 C248 1.404 . S
C248 H231 0.940 . S
C248 C247 1.404 . S
C248 C249 1.389 . S
C249 H232 0.939 . S
C249 C244 1.400 . S
C249 C248 1.389 . S
C250 P224 1.819 . S
C250 C251 1.391 . S
C250 C255 1.391 . S
C251 H233 0.941 . S
C251 C250 1.391 . S
C251 C252 1.396 . S
C252 H236 0.939 . S
C252 C251 1.396 . S
C252 C253 1.397 . S
C253 C252 1.397 . S
C253 C254 1.385 . S
C254 H237 0.940 . S
C254 C253 1.385 . S
C254 C255 1.388 . S
C255 H234 0.939 . S
C255 C250 1.391 . S
C255 C254 1.388 . S
Zn256 O262 1.969 . S
Zn256 O263 1.965 1_655 S
Zn256 O267 2.024 1_655 S
Zn256 O272 1.969 . S
Zn257 O264 1.969 . S
Zn257 O270 1.969 . S
Zn257 O271 1.965 1_455 S
Zn257 O273 2.024 1_455 S
C258 O259 1.229 1_455 S
C258 O267 1.058 . S
O259 C258 1.229 1_655 S
C260 O261 1.229 1_655 S
C260 O273 1.058 . S
O261 C260 1.229 1_455 S
O262 Zn256 1.969 . S
O262 C265 1.267 . S
O263 Zn256 1.965 1_455 S
O263 C274 1.260 . S
O264 Zn257 1.969 . S
O264 C274 1.258 1_565 S
C265 O262 1.267 . S
C265 O266 1.228 1_655 S
O266 C265 1.228 1_455 S
O267 Zn256 2.024 1_455 S
O267 C258 1.058 . S
C268 O269 1.228 1_455 S
C268 O270 1.267 . S
O269 C268 1.228 1_655 S
O270 Zn257 1.969 . S
O270 C268 1.267 . S
O271 Zn257 1.965 1_655 S
O271 C275 1.260 1_565 S
O272 Zn256 1.969 . S
O272 C275 1.258 . S
O273 Zn257 2.024 1_655 S
O273 C260 1.058 . S
C274 O263 1.260 . S
C274 O264 1.258 1_545 S
C275 O271 1.260 1_545 S
C275 O272 1.258 . S
Zn276 O282 1.969 . S
Zn276 O283 1.965 . S
Zn276 O287 2.024 . S
Zn276 O292 1.969 1_545 S
Zn277 O284 1.969 . S
Zn277 O290 1.969 . S
Zn277 O291 1.965 1_545 S
Zn277 O293 2.024 1_545 S
C278 O279 1.229 . S
C278 O287 1.058 . S
O279 C278 1.229 . S
C280 O281 1.229 1_565 S
C280 O293 1.058 . S
O281 C280 1.229 1_545 S
O282 Zn276 1.969 . S
O282 C285 1.267 . S
O283 Zn276 1.965 . S
O283 C294 1.260 . S
O284 Zn277 1.969 . S
O284 C294 1.258 . S
C285 O282 1.267 . S
C285 O286 1.228 . S
O286 C285 1.228 . S
O287 Zn276 2.024 . S
O287 C278 1.058 . S
C288 O289 1.228 . S
C288 O290 1.267 1_565 S
O289 C288 1.228 . S
O290 Zn277 1.969 . S
O290 C288 1.267 1_545 S
O291 Zn277 1.965 1_565 S
O291 C295 1.260 . S
O292 Zn276 1.969 1_565 S
O292 C295 1.258 . S
O293 Zn277 2.024 1_565 S
O293 C280 1.058 . S
C294 O283 1.260 . S
C294 O284 1.258 . S
C295 O291 1.260 . S
C295 O292 1.258 . S
Zn296 O302 1.969 . S
Zn296 O303 1.965 . S
Zn296 O307 2.024 . S
Zn296 O312 1.969 . S
Zn297 O304 1.969 . S
Zn297 O310 1.969 . S
Zn297 O311 1.965 . S
Zn297 O313 2.024 . S
C298 O299 1.229 . S
C298 O307 1.058 . S
O299 C298 1.229 . S
C300 O301 1.229 . S
C300 O313 1.058 . S
O301 C300 1.229 . S
O302 Zn296 1.969 . S
O302 C305 1.267 . S
O303 Zn296 1.965 . S
O303 C314 1.260 . S
O304 Zn297 1.969 . S
O304 C314 1.258 . S
C305 O302 1.267 . S
C305 O306 1.228 . S
O306 C305 1.228 . S
O307 Zn296 2.024 . S
O307 C298 1.058 . S
C308 O309 1.228 . S
C308 O310 1.267 . S
O309 C308 1.228 . S
O310 Zn297 1.969 . S
O310 C308 1.267 . S
O311 Zn297 1.965 . S
O311 C315 1.260 . S
O312 Zn296 1.969 . S
O312 C315 1.258 . S
O313 Zn297 2.024 . S
O313 C300 1.058 . S
C314 O303 1.260 . S
C314 O304 1.258 . S
C315 O311 1.260 . S
C315 O312 1.258 . S
Zn316 O322 1.969 . S
Zn316 O323 1.965 . S
Zn316 O327 2.024 . S
Zn316 O332 1.969 . S
Zn317 O324 1.969 . S
Zn317 O330 1.969 . S
Zn317 O331 1.965 . S
Zn317 O333 2.024 . S
C318 O319 1.229 . S
C318 O327 1.058 . S
O319 C318 1.229 . S
C320 O321 1.229 . S
C320 O333 1.058 . S
O321 C320 1.229 . S
O322 Zn316 1.969 . S
O322 C325 1.267 . S
O323 Zn316 1.965 . S
O323 C334 1.260 1_455 S
O324 Zn317 1.969 . S
O324 C334 1.258 . S
C325 O322 1.267 . S
C325 O326 1.228 . S
O326 C325 1.228 . S
O327 Zn316 2.024 . S
O327 C318 1.058 . S
C328 O329 1.228 . S
C328 O330 1.267 . S
O329 C328 1.228 . S
O330 Zn317 1.969 . S
O330 C328 1.267 . S
O331 Zn317 1.965 . S
O331 C335 1.260 1_655 S
O332 Zn316 1.969 . S
O332 C335 1.258 . S
O333 Zn317 2.024 . S
O333 C320 1.058 . S
C334 O323 1.260 1_655 S
C334 O324 1.258 . S
C335 O331 1.260 1_455 S
C335 O332 1.258 . S
H336 C354 0.951 . S
H337 C356 0.951 . S
H338 C358 0.950 . S
H339 C359 0.950 . S
H340 C361 0.950 . S
H341 C364 0.950 . S
H342 C365 0.950 . S
H343 C367 0.950 . S
H344 C368 0.936 1_565 S
H345 C369 0.951 . S
H346 C371 0.951 . S
H347 C373 0.950 . S
H348 C374 0.950 1_565 S
H349 C376 0.950 . S
H350 C379 0.950 . S
H351 C380 0.950 . S
H352 C382 0.950 . S
H353 C383 0.950 . S
C354 H336 0.951 . S
C354 C355 1.366 . S
C354 C356 1.388 . S
C355 C354 1.366 . S
C355 C359 1.385 . S
C356 H337 0.951 . S
C356 C354 1.388 . S
C356 C357 1.366 . S
C357 C356 1.366 . S
C357 C358 1.414 . S
C357 C360 1.499 . S
C358 H338 0.950 . S
C358 C357 1.414 . S
C358 C359 1.374 . S
C359 H339 0.950 . S
C359 C355 1.385 . S
C359 C358 1.374 . S
C360 C357 1.499 . S
C360 C361 1.373 . S
C360 C362 1.389 . S
C361 H340 0.950 . S
C361 C360 1.373 . S
C361 C377 1.377 . S
C362 C360 1.389 . S
C362 C363 1.524 . S
C362 C376 1.377 . S
C363 C362 1.524 . S
C363 C364 1.397 . S
C363 C368 1.363 . S
C364 H341 0.950 . S
C364 C363 1.397 . S
C364 C365 1.334 . S
C365 H342 0.950 . S
C365 C364 1.334 . S
C365 C366 1.287 . S
C366 C365 1.287 . S
C366 C367 1.524 1_545 S
C366 H385 0.913 . S
C367 H343 0.950 . S
C367 C366 1.524 1_565 S
C367 C368 1.415 1_565 S
C368 H344 0.936 1_545 S
C368 C363 1.363 . S
C368 C367 1.415 1_545 S
C369 H345 0.951 . S
C369 C370 1.366 . S
C369 C371 1.388 . S
C370 C369 1.366 . S
C370 C374 1.385 . S
C371 H346 0.951 . S
C371 C369 1.388 . S
C371 C372 1.366 . S
C372 C371 1.366 . S
C372 C373 1.414 . S
C372 C375 1.499 . S
C373 H347 0.950 . S
C373 C372 1.414 . S
C373 C374 1.374 . S
C374 H348 0.950 1_545 S
C374 C370 1.385 . S
C374 C373 1.374 . S
C375 C372 1.499 . S
C375 C376 1.373 . S
C375 C377 1.389 . S
C376 H349 0.950 . S
C376 C362 1.377 . S
C376 C375 1.373 . S
C377 C361 1.377 . S
C377 C375 1.389 . S
C377 C378 1.524 . S
C378 C377 1.524 . S
C378 C379 1.397 . S
C378 C383 1.363 . S
C379 H350 0.950 . S
C379 C378 1.397 . S
C379 C380 1.334 . S
C380 H351 0.950 . S
C380 C379 1.334 . S
C380 C381 1.287 . S
C381 C380 1.287 . S
C381 C382 1.524 . S
C381 H384 0.999 . S
C382 H352 0.950 . S
C382 C381 1.524 . S
C382 C383 1.415 . S
C383 H353 0.950 . S
C383 C378 1.363 . S
C383 C382 1.415 . S
H384 C381 0.999 . S
H385 C366 0.913 . S
H386 C404 0.951 . S
H387 C406 0.951 . S
H388 C408 0.950 . S
H389 C409 0.950 . S
H390 C411 0.950 . S
H391 C414 0.950 . S
H392 C415 0.950 . S
H393 C417 0.950 . S
H394 C418 0.950 . S
H395 C419 0.951 . S
H396 C421 0.951 . S
H397 C423 0.950 . S
H398 C424 0.950 . S
H399 C426 0.950 . S
H400 C429 0.950 . S
H401 C430 0.950 . S
H402 C432 0.950 . S
H403 C433 0.950 . S
C404 H386 0.951 . S
C404 C405 1.366 . S
C404 C406 1.388 . S
C405 C404 1.366 . S
C405 C409 1.385 . S
C406 H387 0.951 . S
C406 C404 1.388 . S
C406 C407 1.366 . S
C407 C406 1.366 . S
C407 C408 1.414 . S
C407 C410 1.499 . S
C408 H388 0.950 . S
C408 C407 1.414 . S
C408 C409 1.374 . S
C409 H389 0.950 . S
C409 C405 1.385 . S
C409 C408 1.374 . S
C410 C407 1.499 . S
C410 C411 1.373 . S
C410 C412 1.389 . S
C411 H390 0.950 . S
C411 C410 1.373 . S
C411 C427 1.377 . S
C412 C410 1.389 . S
C412 C413 1.524 . S
C412 C426 1.377 . S
C413 C412 1.524 . S
C413 C414 1.397 . S
C413 C418 1.363 . S
C414 H391 0.950 . S
C414 C413 1.397 . S
C414 C415 1.334 . S
C415 H392 0.950 . S
C415 C414 1.334 . S
C415 C416 1.287 . S
C416 C415 1.287 . S
C416 C417 1.524 . S
C416 H435 0.913 . S
C417 H393 0.950 . S
C417 C416 1.524 . S
C417 C418 1.415 . S
C418 H394 0.950 . S
C418 C413 1.363 . S
C418 C417 1.415 . S
C419 H395 0.951 . S
C419 C420 1.366 . S
C419 C421 1.388 . S
C420 C419 1.366 . S
C420 C424 1.385 . S
C421 H396 0.951 . S
C421 C419 1.388 . S
C421 C422 1.366 . S
C422 C421 1.366 . S
C422 C423 1.414 . S
C422 C425 1.499 . S
C423 H397 0.950 . S
C423 C422 1.414 . S
C423 C424 1.374 . S
C424 H398 0.950 . S
C424 C420 1.385 . S
C424 C423 1.374 . S
C425 C422 1.499 . S
C425 C426 1.373 . S
C425 C427 1.389 . S
C426 H399 0.950 . S
C426 C412 1.377 . S
C426 C425 1.373 . S
C427 C411 1.377 . S
C427 C425 1.389 . S
C427 C428 1.524 . S
C428 C427 1.524 . S
C428 C429 1.397 . S
C428 C433 1.363 . S
C429 H400 0.950 . S
C429 C428 1.397 . S
C429 C430 1.334 . S
C430 H401 0.950 . S
C430 C429 1.334 . S
C430 C431 1.287 . S
C431 C430 1.287 . S
C431 C432 1.524 . S
C431 H434 0.999 . S
C432 H402 0.950 . S
C432 C431 1.524 . S
C432 C433 1.415 . S
C433 H403 0.950 . S
C433 C428 1.363 . S
C433 C432 1.415 . S
H434 C431 0.999 . S
H435 C416 0.913 . S
H436 C454 0.951 . S
H437 C456 0.951 . S
H438 C458 0.950 . S
H439 C459 0.950 . S
H440 C461 0.950 . S
H441 C464 0.950 . S
H442 C465 0.950 . S
H443 C467 0.950 . S
H444 C468 0.950 . S
H445 C469 0.951 . S
H446 C471 0.951 . S
H447 C473 0.950 . S
H448 C474 0.950 . S
H449 C476 0.950 . S
H450 C479 0.950 . S
H451 C480 0.950 . S
H452 C482 0.950 . S
H453 C483 0.950 . S
C454 H436 0.951 . S
C454 C455 1.366 . S
C454 C456 1.388 . S
C455 C454 1.366 . S
C455 C459 1.385 . S
C456 H437 0.951 . S
C456 C454 1.388 . S
C456 C457 1.366 . S
C457 C456 1.366 . S
C457 C458 1.414 . S
C457 C460 1.499 . S
C458 H438 0.950 . S
C458 C457 1.414 . S
C458 C459 1.374 . S
C459 H439 0.950 . S
C459 C455 1.385 . S
C459 C458 1.374 . S
C460 C457 1.499 . S
C460 C461 1.373 . S
C460 C462 1.389 . S
C461 H440 0.950 . S
C461 C460 1.373 . S
C461 C477 1.377 . S
C462 C460 1.389 . S
C462 C463 1.524 . S
C462 C476 1.377 . S
C463 C462 1.524 . S
C463 C464 1.397 . S
C463 C468 1.363 . S
C464 H441 0.950 . S
C464 C463 1.397 . S
C464 C465 1.334 . S
C465 H442 0.950 . S
C465 C464 1.334 . S
C465 C466 1.287 . S
C466 C465 1.287 . S
C466 C467 1.524 . S
C466 H485 0.913 . S
C467 H443 0.950 . S
C467 C466 1.524 . S
C467 C468 1.415 . S
C468 H444 0.950 . S
C468 C463 1.363 . S
C468 C467 1.415 . S
C469 H445 0.951 . S
C469 C470 1.366 . S
C469 C471 1.388 . S
C470 C469 1.366 . S
C470 C474 1.385 . S
C471 H446 0.951 . S
C471 C469 1.388 . S
C471 C472 1.366 . S
C472 C471 1.366 . S
C472 C473 1.414 . S
C472 C475 1.499 . S
C473 H447 0.950 . S
C473 C472 1.414 . S
C473 C474 1.374 . S
C474 H448 0.950 . S
C474 C470 1.385 . S
C474 C473 1.374 . S
C475 C472 1.499 . S
C475 C476 1.373 . S
C475 C477 1.389 . S
C476 H449 0.950 . S
C476 C462 1.377 . S
C476 C475 1.373 . S
C477 C461 1.377 . S
C477 C475 1.389 . S
C477 C478 1.524 . S
C478 C477 1.524 . S
C478 C479 1.397 . S
C478 C483 1.363 . S
C479 H450 0.950 . S
C479 C478 1.397 . S
C479 C480 1.334 . S
C480 H451 0.950 . S
C480 C479 1.334 . S
C480 C481 1.287 . S
C481 C480 1.287 . S
C481 C482 1.524 . S
C481 H484 0.999 . S
C482 H452 0.950 . S
C482 C481 1.524 . S
C482 C483 1.415 . S
C483 H453 0.950 . S
C483 C478 1.363 . S
C483 C482 1.415 . S
H484 C481 0.999 . S
H485 C466 0.913 . S
H486 C504 0.951 . S
H487 C506 0.951 . S
H488 C508 0.950 . S
H489 C509 0.950 . S
H490 C511 0.950 . S
H491 C514 0.950 . S
H492 C515 0.950 . S
H493 C517 0.950 . S
H494 C518 0.950 . S
H495 C519 0.946 1_455 S
H496 C521 0.945 1_455 S
H497 C523 0.950 . S
H498 C524 0.950 . S
H499 C526 0.950 . S
H500 C529 0.950 . S
H501 C530 0.950 . S
H502 C532 0.950 . S
H503 C533 0.950 . S
C504 H486 0.951 . S
C504 C505 1.366 . S
C504 C506 1.388 . S
C505 C504 1.366 . S
C505 C509 1.384 1_655 S
C506 H487 0.951 . S
C506 C504 1.388 . S
C506 C507 1.366 1_655 S
C507 C506 1.366 1_455 S
C507 C508 1.413 . S
C507 C510 1.499 1_455 S
C508 H488 0.950 . S
C508 C507 1.413 . S
C508 C509 1.374 . S
C509 H489 0.950 . S
C509 C505 1.384 1_455 S
C509 C508 1.374 . S
C510 C507 1.499 1_655 S
C510 C511 1.379 . S
C510 C512 1.385 1_655 S
C511 H490 0.950 . S
C511 C510 1.379 . S
C511 C527 1.377 . S
C512 C510 1.385 1_455 S
C512 C513 1.524 . S
C512 C526 1.377 . S
C513 C512 1.524 . S
C513 C514 1.397 . S
C513 C518 1.363 . S
C514 H491 0.950 . S
C514 C513 1.397 . S
C514 C515 1.334 . S
C515 H492 0.950 . S
C515 C514 1.334 . S
C515 C516 1.287 . S
C516 C515 1.287 . S
C516 C517 1.524 . S
C516 H535 0.913 . S
C517 H493 0.950 . S
C517 C516 1.524 . S
C517 C518 1.415 . S
C518 H494 0.950 . S
C518 C513 1.363 . S
C518 C517 1.415 . S
C519 H495 0.946 1_655 S
C519 C520 1.372 . S
C519 C521 1.388 . S
C520 C519 1.372 . S
C520 C524 1.385 . S
C521 H496 0.945 1_655 S
C521 C519 1.388 . S
C521 C522 1.372 . S
C522 C521 1.372 . S
C522 C523 1.414 . S
C522 C525 1.499 . S
C523 H497 0.950 . S
C523 C522 1.414 . S
C523 C524 1.374 . S
C524 H498 0.950 . S
C524 C520 1.385 . S
C524 C523 1.374 . S
C525 C522 1.499 . S
C525 C526 1.373 1_655 S
C525 C527 1.389 . S
C526 H499 0.950 . S
C526 C512 1.377 . S
C526 C525 1.373 1_455 S
C527 C511 1.377 . S
C527 C525 1.389 . S
C527 C528 1.524 . S
C528 C527 1.524 . S
C528 C529 1.397 . S
C528 C533 1.363 . S
C529 H500 0.950 . S
C529 C528 1.397 . S
C529 C530 1.334 . S
C530 H501 0.950 . S
C530 C529 1.334 . S
C530 C531 1.287 . S
C531 C530 1.287 . S
C531 C532 1.524 . S
C531 H534 0.999 . S
C532 H502 0.950 . S
C532 C531 1.524 . S
C532 C533 1.415 . S
C533 H503 0.950 . S
C533 C528 1.363 . S
C533 C532 1.415 . S
H534 C531 0.999 . S
H535 C516 0.913 . S
H536 C554 0.951 . S
H537 C556 0.951 . S
H538 C558 0.950 . S
H539 C559 0.950 . S
H540 C561 0.950 . S
H541 C564 0.950 . S
H542 C565 0.950 . S
H543 C567 0.950 . S
H544 C568 0.950 . S
H545 C569 0.953 . S
H546 C571 0.951 . S
H547 C573 0.950 . S
H548 C574 0.950 . S
H549 C576 0.950 . S
H550 C579 0.950 . S
H551 C580 0.950 . S
H552 C582 0.950 . S
H553 C583 0.950 . S
C554 H536 0.951 . S
C554 C555 1.366 . S
C554 C556 1.388 . S
C555 C554 1.366 . S
C555 C559 1.385 . S
C556 H537 0.951 . S
C556 C554 1.388 . S
C556 C557 1.366 . S
C557 C556 1.366 . S
C557 C558 1.414 . S
C557 C560 1.499 . S
C558 H538 0.950 . S
C558 C557 1.414 . S
C558 C559 1.374 . S
C559 H539 0.950 . S
C559 C555 1.385 . S
C559 C558 1.374 . S
C560 C557 1.499 . S
C560 C561 1.373 . S
C560 C562 1.389 . S
C561 H540 0.950 . S
C561 C560 1.373 . S
C561 C577 1.377 . S
C562 C560 1.389 . S
C562 C563 1.524 . S
C562 C576 1.377 . S
C563 C562 1.524 . S
C563 C564 1.397 . S
C563 C568 1.363 . S
C564 H541 0.950 . S
C564 C563 1.397 . S
C564 C565 1.334 1_556 S
C565 H542 0.950 . S
C565 C564 1.334 1_554 S
C565 C566 1.287 . S
C566 C565 1.287 . S
C566 C567 1.524 . S
C566 H585 0.913 . S
C567 H543 0.950 . S
C567 C566 1.524 . S
C567 C568 1.415 1_554 S
C568 H544 0.950 . S
C568 C563 1.363 . S
C568 C567 1.415 1_556 S
C569 H545 0.953 . S
C569 C570 1.365 1_545 S
C569 C571 1.386 1_545 S
C570 C569 1.365 1_565 S
C570 C574 1.385 . S
C571 H546 0.951 . S
C571 C569 1.386 1_565 S
C571 C572 1.366 . S
C572 C571 1.366 . S
C572 C573 1.414 . S
C572 C575 1.499 . S
C573 H547 0.950 . S
C573 C572 1.414 . S
C573 C574 1.374 . S
C574 H548 0.950 . S
C574 C570 1.385 . S
C574 C573 1.374 . S
C575 C572 1.499 . S
C575 C576 1.373 . S
C575 C577 1.389 . S
C576 H549 0.950 . S
C576 C562 1.377 . S
C576 C575 1.373 . S
C577 C561 1.377 . S
C577 C575 1.389 . S
C577 C578 1.524 . S
C578 C577 1.524 . S
C578 C579 1.397 . S
C578 C583 1.363 . S
C579 H550 0.950 . S
C579 C578 1.397 . S
C579 C580 1.334 . S
C580 H551 0.950 . S
C580 C579 1.334 . S
C580 C581 1.287 . S
C581 C580 1.287 . S
C581 C582 1.524 . S
C581 H584 0.999 . S
C582 H552 0.950 . S
C582 C581 1.524 . S
C582 C583 1.415 . S
C583 H553 0.950 . S
C583 C578 1.363 . S
C583 C582 1.415 . S
H584 C581 0.999 . S
H585 C566 0.913 . S
H586 C604 0.951 1_554 S
H587 C606 0.951 . S
H588 C608 0.950 . S
H589 C609 0.950 . S
H590 C611 0.950 . S
H591 C614 0.950 . S
H592 C615 0.950 . S
H593 C617 0.950 . S
H594 C618 0.950 . S
H595 C619 0.951 . S
H596 C621 0.951 . S
H597 C623 0.950 . S
H598 C624 0.950 . S
H599 C626 0.950 . S
H600 C629 0.950 . S
H601 C630 0.950 . S
H602 C632 0.950 . S
H603 C633 0.950 . S
C604 H586 0.951 1_556 S
C604 C605 1.366 . S
C604 C606 1.388 . S
C605 C604 1.366 . S
C605 C609 1.385 . S
C606 H587 0.951 . S
C606 C604 1.388 . S
C606 C607 1.366 . S
C607 C606 1.366 . S
C607 C608 1.414 . S
C607 C610 1.499 . S
C608 H588 0.950 . S
C608 C607 1.414 . S
C608 C609 1.374 . S
C609 H589 0.950 . S
C609 C605 1.385 . S
C609 C608 1.374 . S
C610 C607 1.499 . S
C610 C611 1.373 . S
C610 C612 1.389 . S
C611 H590 0.950 . S
C611 C610 1.373 . S
C611 C627 1.377 . S
C612 C610 1.389 . S
C612 C613 1.524 . S
C612 C626 1.377 . S
C613 C612 1.524 . S
C613 C614 1.397 . S
C613 C618 1.363 . S
C614 H591 0.950 . S
C614 C613 1.397 . S
C614 C615 1.334 . S
C615 H592 0.950 . S
C615 C614 1.334 . S
C615 C616 1.287 . S
C616 C615 1.287 . S
C616 C617 1.524 . S
C616 H635 0.913 . S
C617 H593 0.950 . S
C617 C616 1.524 . S
C617 C618 1.415 . S
C618 H594 0.950 . S
C618 C613 1.363 . S
C618 C617 1.415 . S
C619 H595 0.951 . S
C619 C620 1.366 . S
C619 C621 1.388 . S
C620 C619 1.366 . S
C620 C624 1.385 . S
C621 H596 0.951 . S
C621 C619 1.388 . S
C621 C622 1.366 . S
C622 C621 1.366 . S
C622 C623 1.414 . S
C622 C625 1.499 . S
C623 H597 0.950 . S
C623 C622 1.414 . S
C623 C624 1.374 . S
C624 H598 0.950 . S
C624 C620 1.385 . S
C624 C623 1.374 . S
C625 C622 1.499 . S
C625 C626 1.373 . S
C625 C627 1.389 . S
C626 H599 0.950 . S
C626 C612 1.377 . S
C626 C625 1.373 . S
C627 C611 1.377 . S
C627 C625 1.389 . S
C627 C628 1.524 . S
C628 C627 1.524 . S
C628 C629 1.397 . S
C628 C633 1.363 . S
C629 H600 0.950 . S
C629 C628 1.397 . S
C629 C630 1.334 . S
C630 H601 0.950 . S
C630 C629 1.334 . S
C630 C631 1.287 . S
C631 C630 1.287 . S
C631 C632 1.524 . S
C631 H634 0.999 . S
C632 H602 0.950 . S
C632 C631 1.524 . S
C632 C633 1.415 . S
C633 H603 0.950 . S
C633 C628 1.363 . S
C633 C632 1.415 . S
H634 C631 0.999 . S
H635 C616 0.913 . S
H636 C654 0.951 . S
H637 C656 0.951 . S
H638 C658 0.950 . S
H639 C659 0.950 1_554 S
H640 C661 0.950 . S
H641 C664 0.950 . S
H642 C665 0.950 . S
H643 C667 0.950 . S
H644 C668 0.950 . S
H645 C669 0.951 . S
H646 C671 0.951 . S
H647 C673 0.950 . S
H648 C674 0.950 . S
H649 C676 0.950 . S
H650 C679 0.950 . S
H651 C680 0.950 . S
H652 C682 0.950 . S
H653 C683 0.950 . S
C654 H636 0.951 . S
C654 C655 1.366 . S
C654 C656 1.388 . S
C655 C654 1.366 . S
C655 C659 1.385 . S
C656 H637 0.951 . S
C656 C654 1.388 . S
C656 C657 1.366 . S
C657 C656 1.366 . S
C657 C658 1.414 . S
C657 C660 1.499 . S
C658 H638 0.950 . S
C658 C657 1.414 . S
C658 C659 1.374 . S
C659 H639 0.950 1_556 S
C659 C655 1.385 . S
C659 C658 1.374 . S
C660 C657 1.499 . S
C660 C661 1.373 . S
C660 C662 1.389 . S
C661 H640 0.950 . S
C661 C660 1.373 . S
C661 C677 1.377 . S
C662 C660 1.389 . S
C662 C663 1.524 . S
C662 C676 1.377 . S
C663 C662 1.524 . S
C663 C664 1.397 . S
C663 C668 1.363 . S
C664 H641 0.950 . S
C664 C663 1.397 . S
C664 C665 1.334 . S
C665 H642 0.950 . S
C665 C664 1.334 . S
C665 C666 1.287 . S
C666 C665 1.287 . S
C666 C667 1.524 . S
C666 H685 0.913 . S
C667 H643 0.950 . S
C667 C666 1.524 . S
C667 C668 1.415 . S
C668 H644 0.950 . S
C668 C663 1.363 . S
C668 C667 1.415 . S
C669 H645 0.951 . S
C669 C670 1.366 . S
C669 C671 1.388 . S
C670 C669 1.366 . S
C670 C674 1.385 . S
C671 H646 0.951 . S
C671 C669 1.388 . S
C671 C672 1.366 . S
C672 C671 1.366 . S
C672 C673 1.414 . S
C672 C675 1.499 . S
C673 H647 0.950 . S
C673 C672 1.414 . S
C673 C674 1.374 . S
C674 H648 0.950 . S
C674 C670 1.385 . S
C674 C673 1.374 . S
C675 C672 1.499 . S
C675 C676 1.373 . S
C675 C677 1.389 . S
C676 H649 0.950 . S
C676 C662 1.377 . S
C676 C675 1.373 . S
C677 C661 1.377 . S
C677 C675 1.389 . S
C677 C678 1.524 . S
C678 C677 1.524 . S
C678 C679 1.397 . S
C678 C683 1.363 . S
C679 H650 0.950 . S
C679 C678 1.397 . S
C679 C680 1.334 . S
C680 H651 0.950 . S
C680 C679 1.334 . S
C680 C681 1.287 . S
C681 C680 1.287 . S
C681 C682 1.524 . S
C681 H684 0.999 . S
C682 H652 0.950 . S
C682 C681 1.524 . S
C682 C683 1.415 . S
C683 H653 0.950 . S
C683 C678 1.363 . S
C683 C682 1.415 . S
H684 C681 0.999 . S
H685 C666 0.913 . S
H686 C704 0.951 1_554 S
H687 C706 0.951 . S
H688 C708 0.950 . S
H689 C709 0.950 . S
H690 C711 0.950 . S
H691 C714 0.950 . S
H692 C715 0.950 . S
H693 C717 0.950 . S
H694 C718 0.950 . S
H695 C719 0.951 . S
H696 C721 0.951 . S
H697 C723 0.950 . S
H698 C724 0.950 . S
H699 C726 0.950 . S
H700 C729 0.950 . S
H701 C730 0.950 . S
H702 C732 0.950 . S
H703 C733 0.950 . S
C704 H686 0.951 1_556 S
C704 C705 1.365 . S
C704 C706 1.388 . S
C705 C704 1.365 . S
C705 C709 1.385 1_455 S
C706 H687 0.951 . S
C706 C704 1.388 . S
C706 C707 1.366 . S
C707 C706 1.366 . S
C707 C708 1.414 1_455 S
C707 C710 1.499 . S
C708 H688 0.950 . S
C708 C707 1.414 1_655 S
C708 C709 1.374 . S
C709 H689 0.950 . S
C709 C705 1.385 1_655 S
C709 C708 1.374 . S
C710 C707 1.499 . S
C710 C711 1.373 1_455 S
C710 C712 1.389 . S
C711 H690 0.950 . S
C711 C710 1.373 1_655 S
C711 C727 1.377 . S
C712 C710 1.389 . S
C712 C713 1.524 . S
C712 C726 1.377 . S
C713 C712 1.524 . S
C713 C714 1.397 . S
C713 C718 1.363 . S
C714 H691 0.950 . S
C714 C713 1.397 . S
C714 C715 1.334 . S
C715 H692 0.950 . S
C715 C714 1.334 . S
C715 C716 1.287 . S
C716 C715 1.287 . S
C716 C717 1.524 . S
C716 H735 0.913 . S
C717 H693 0.950 . S
C717 C716 1.524 . S
C717 C718 1.415 . S
C718 H694 0.950 . S
C718 C713 1.363 . S
C718 C717 1.415 . S
C719 H695 0.951 . S
C719 C720 1.366 1_655 S
C719 C721 1.388 . S
C720 C719 1.366 1_455 S
C720 C724 1.385 . S
C721 H696 0.951 . S
C721 C719 1.388 . S
C721 C722 1.366 1_655 S
C722 C721 1.366 1_455 S
C722 C723 1.414 . S
C722 C725 1.499 . S
C723 H697 0.950 . S
C723 C722 1.414 . S
C723 C724 1.374 . S
C724 H698 0.950 . S
C724 C720 1.385 . S
C724 C723 1.374 . S
C725 C722 1.499 . S
C725 C726 1.373 . S
C725 C727 1.389 1_455 S
C726 H699 0.950 . S
C726 C712 1.377 . S
C726 C725 1.373 . S
C727 C711 1.377 . S
C727 C725 1.389 1_655 S
C727 C728 1.524 . S
C728 C727 1.524 . S
C728 C729 1.397 . S
C728 C733 1.363 . S
C729 H700 0.950 . S
C729 C728 1.397 . S
C729 C730 1.334 . S
C730 H701 0.950 . S
C730 C729 1.334 . S
C730 C731 1.287 . S
C731 C730 1.287 . S
C731 C732 1.524 . S
C731 H734 0.999 . S
C732 H702 0.950 . S
C732 C731 1.524 . S
C732 C733 1.415 . S
C733 H703 0.950 . S
C733 C728 1.363 . S
C733 C732 1.415 . S
H734 C731 0.999 . S
H735 C716 0.913 . S
H736 C754 0.951 . S
H737 C756 0.951 . S
H738 C758 0.950 . S
H739 C759 0.950 . S
H740 C761 0.950 . S
H741 C764 0.950 . S
H742 C765 0.950 . S
H743 C767 0.950 . S
H744 C768 0.950 . S
H745 C769 0.951 . S
H746 C771 0.951 . S
H747 C773 0.950 . S
H748 C774 0.950 . S
H749 C776 0.950 . S
H750 C779 0.950 . S
H751 C780 0.950 . S
H752 C782 0.950 . S
H753 C783 0.950 . S
C754 H736 0.951 . S
C754 C755 1.339 1_655 S
C754 C756 1.388 . S
C755 C754 1.339 1_455 S
C755 C759 1.409 . S
C756 H737 0.951 . S
C756 C754 1.388 . S
C756 C757 1.366 . S
C757 C756 1.366 . S
C757 C758 1.414 1_655 S
C757 C760 1.499 . S
C758 H738 0.950 . S
C758 C757 1.414 1_455 S
C758 C759 1.374 . S
C759 H739 0.950 . S
C759 C755 1.409 . S
C759 C758 1.374 . S
C760 C757 1.499 . S
C760 C761 1.373 1_655 S
C760 C762 1.389 . S
C761 H740 0.950 . S
C761 C760 1.373 1_455 S
C761 C777 1.377 . S
C762 C760 1.389 . S
C762 C763 1.524 . S
C762 C776 1.377 . S
C763 C762 1.524 . S
C763 C764 1.397 . S
C763 C768 1.363 . S
C764 H741 0.950 . S
C764 C763 1.397 . S
C764 C765 1.334 . S
C765 H742 0.950 . S
C765 C764 1.334 . S
C765 C766 1.287 . S
C766 C765 1.287 . S
C766 C767 1.524 . S
C766 H785 0.913 . S
C767 H743 0.950 . S
C767 C766 1.524 . S
C767 C768 1.415 . S
C768 H744 0.950 . S
C768 C763 1.363 . S
C768 C767 1.415 . S
C769 H745 0.951 . S
C769 C770 1.366 1_455 S
C769 C771 1.388 . S
C770 C769 1.366 1_655 S
C770 C774 1.385 . S
C771 H746 0.951 . S
C771 C769 1.388 . S
C771 C772 1.366 1_455 S
C772 C771 1.366 1_655 S
C772 C773 1.414 . S
C772 C775 1.499 . S
C773 H747 0.950 . S
C773 C772 1.414 . S
C773 C774 1.374 . S
C774 H748 0.950 . S
C774 C770 1.385 . S
C774 C773 1.374 . S
C775 C772 1.499 . S
C775 C776 1.373 . S
C775 C777 1.389 1_655 S
C776 H749 0.950 . S
C776 C762 1.377 . S
C776 C775 1.373 . S
C777 C761 1.377 . S
C777 C775 1.389 1_455 S
C777 C778 1.524 . S
C778 C777 1.524 . S
C778 C779 1.397 . S
C778 C783 1.363 . S
C779 H750 0.950 . S
C779 C778 1.397 . S
C779 C780 1.334 . S
C780 H751 0.950 . S
C780 C779 1.334 . S
C780 C781 1.287 . S
C781 C780 1.287 . S
C781 C782 1.524 . S
C781 H784 0.999 . S
C782 H752 0.950 . S
C782 C781 1.524 . S
C782 C783 1.415 . S
C783 H753 0.950 . S
C783 C778 1.363 . S
C783 C782 1.415 . S
H784 C781 0.999 . S
H785 C766 0.913 . S
H786 C804 0.951 . S
H787 C806 0.951 . S
H788 C808 0.950 . S
H789 C809 0.950 . S
H790 C811 0.950 . S
H791 C814 0.950 . S
H792 C815 0.950 . S
H793 C817 0.950 . S
H794 C818 0.950 . S
H795 C819 0.951 . S
H796 C821 0.951 . S
H797 C823 0.950 . S
H798 C824 0.950 . S
H799 C826 0.950 . S
H800 C829 0.950 . S
H801 C830 0.950 . S
H802 C832 0.950 . S
H803 C833 0.950 . S
C804 H786 0.951 . S
C804 C805 1.366 . S
C804 C806 1.388 . S
C805 C804 1.366 . S
C805 C809 1.385 . S
C806 H787 0.951 . S
C806 C804 1.388 . S
C806 C807 1.366 . S
C807 C806 1.366 . S
C807 C808 1.414 . S
C807 C810 1.499 . S
C808 H788 0.950 . S
C808 C807 1.414 . S
C808 C809 1.374 . S
C809 H789 0.950 . S
C809 C805 1.385 . S
C809 C808 1.374 . S
C810 C807 1.499 . S
C810 C811 1.373 . S
C810 C812 1.389 . S
C811 H790 0.950 . S
C811 C810 1.373 . S
C811 C827 1.377 . S
C812 C810 1.389 . S
C812 C813 1.524 . S
C812 C826 1.377 . S
C813 C812 1.524 . S
C813 C814 1.397 . S
C813 C818 1.363 . S
C814 H791 0.950 . S
C814 C813 1.397 . S
C814 C815 1.334 . S
C815 H792 0.950 . S
C815 C814 1.334 . S
C815 C816 1.287 1_545 S
C816 C815 1.287 1_565 S
C816 C817 1.524 . S
C816 H835 0.913 . S
C817 H793 0.950 . S
C817 C816 1.524 . S
C817 C818 1.415 1_565 S
C818 H794 0.950 . S
C818 C813 1.363 . S
C818 C817 1.415 1_545 S
C819 H795 0.951 . S
C819 C820 1.366 . S
C819 C821 1.388 . S
C820 C819 1.366 . S
C820 C824 1.385 . S
C821 H796 0.951 . S
C821 C819 1.388 . S
C821 C822 1.366 . S
C822 C821 1.366 . S
C822 C823 1.414 . S
C822 C825 1.499 . S
C823 H797 0.950 . S
C823 C822 1.414 . S
C823 C824 1.374 . S
C824 H798 0.950 . S
C824 C820 1.385 . S
C824 C823 1.374 . S
C825 C822 1.499 . S
C825 C826 1.373 . S
C825 C827 1.389 . S
C826 H799 0.950 . S
C826 C812 1.377 . S
C826 C825 1.373 . S
C827 C811 1.377 . S
C827 C825 1.389 . S
C827 C828 1.524 . S
C828 C827 1.524 . S
C828 C829 1.397 . S
C828 C833 1.363 . S
C829 H800 0.950 . S
C829 C828 1.397 . S
C829 C830 1.334 . S
C830 H801 0.950 . S
C830 C829 1.334 . S
C830 C831 1.287 . S
C831 C830 1.287 . S
C831 C832 1.524 . S
C831 H834 0.999 . S
C832 H802 0.950 . S
C832 C831 1.524 . S
C832 C833 1.415 . S
C833 H803 0.950 . S
C833 C828 1.363 . S
C833 C832 1.415 . S
H834 C831 0.999 . S
H835 C816 0.913 . S
H836 C854 0.951 . S
H837 C856 0.951 . S
H838 C858 0.950 . S
H839 C859 0.950 . S
H840 C861 0.950 . S
H841 C864 0.950 . S
H842 C865 0.950 . S
H843 C867 0.950 . S
H844 C868 0.950 . S
H845 C869 0.951 . S
H846 C871 0.951 . S
H847 C873 0.950 . S
H848 C874 0.950 . S
H849 C876 0.950 . S
H850 C879 0.950 . S
H851 C880 0.950 . S
H852 C882 0.950 . S
H853 C883 0.950 . S
C854 H836 0.951 . S
C854 C855 1.366 . S
C854 C856 1.388 . S
C855 C854 1.366 . S
C855 C859 1.385 . S
C856 H837 0.951 . S
C856 C854 1.388 . S
C856 C857 1.366 . S
C857 C856 1.366 . S
C857 C858 1.414 . S
C857 C860 1.499 . S
C858 H838 0.950 . S
C858 C857 1.414 . S
C858 C859 1.374 . S
C859 H839 0.950 . S
C859 C855 1.385 . S
C859 C858 1.374 . S
C860 C857 1.499 . S
C860 C861 1.373 . S
C860 C862 1.389 . S
C861 H840 0.950 . S
C861 C860 1.373 . S
C861 C877 1.377 . S
C862 C860 1.389 . S
C862 C863 1.524 . S
C862 C876 1.377 . S
C863 C862 1.524 . S
C863 C864 1.397 . S
C863 C868 1.363 . S
C864 H841 0.950 . S
C864 C863 1.397 . S
C864 C865 1.334 . S
C865 H842 0.950 . S
C865 C864 1.334 . S
C865 C866 1.287 . S
C866 C865 1.287 . S
C866 C867 1.524 . S
C866 H885 0.913 . S
C867 H843 0.950 . S
C867 C866 1.524 . S
C867 C868 1.415 . S
C868 H844 0.950 . S
C868 C863 1.363 . S
C868 C867 1.415 . S
C869 H845 0.951 . S
C869 C870 1.366 . S
C869 C871 1.388 . S
C870 C869 1.366 . S
C870 C874 1.385 . S
C871 H846 0.951 . S
C871 C869 1.388 . S
C871 C872 1.366 . S
C872 C871 1.366 . S
C872 C873 1.414 . S
C872 C875 1.499 . S
C873 H847 0.950 . S
C873 C872 1.414 . S
C873 C874 1.374 . S
C874 H848 0.950 . S
C874 C870 1.385 . S
C874 C873 1.374 . S
C875 C872 1.499 . S
C875 C876 1.373 . S
C875 C877 1.389 . S
C876 H849 0.950 . S
C876 C862 1.377 . S
C876 C875 1.373 . S
C877 C861 1.377 . S
C877 C875 1.389 . S
C877 C878 1.524 . S
C878 C877 1.524 . S
C878 C879 1.397 . S
C878 C883 1.363 . S
C879 H850 0.950 . S
C879 C878 1.397 . S
C879 C880 1.334 . S
C880 H851 0.950 . S
C880 C879 1.334 . S
C880 C881 1.287 . S
C881 C880 1.287 . S
C881 C882 1.524 . S
C881 H884 0.999 . S
C882 H852 0.950 . S
C882 C881 1.524 . S
C882 C883 1.415 . S
C883 H853 0.950 . S
C883 C878 1.363 . S
C883 C882 1.415 . S
H884 C881 0.999 . S
H885 C866 0.913 . S
H886 C904 0.951 . S
H887 C906 0.951 . S
H888 C908 0.950 . S
H889 C909 0.950 . S
H890 C911 0.950 . S
H891 C914 0.950 . S
H892 C915 0.950 . S
H893 C917 0.950 . S
H894 C918 0.950 . S
H895 C919 0.951 . S
H896 C921 0.951 . S
H897 C923 0.950 . S
H898 C924 0.950 . S
H899 C926 0.950 . S
H900 C929 0.950 . S
H901 C930 0.950 . S
H902 C932 0.950 . S
H903 C933 0.950 . S
C904 H886 0.951 . S
C904 C905 1.366 . S
C904 C906 1.388 . S
C905 C904 1.366 . S
C905 C909 1.385 . S
C906 H887 0.951 . S
C906 C904 1.388 . S
C906 C907 1.366 . S
C907 C906 1.366 . S
C907 C908 1.414 . S
C907 C910 1.499 . S
C908 H888 0.950 . S
C908 C907 1.414 . S
C908 C909 1.374 . S
C909 H889 0.950 . S
C909 C905 1.385 . S
C909 C908 1.374 . S
C910 C907 1.499 . S
C910 C911 1.373 . S
C910 C912 1.389 . S
C911 H890 0.950 . S
C911 C910 1.373 . S
C911 C927 1.377 . S
C912 C910 1.389 . S
C912 C913 1.524 . S
C912 C926 1.377 . S
C913 C912 1.524 . S
C913 C914 1.397 . S
C913 C918 1.363 . S
C914 H891 0.950 . S
C914 C913 1.397 . S
C914 C915 1.334 . S
C915 H892 0.950 . S
C915 C914 1.334 . S
C915 C916 1.287 . S
C916 C915 1.287 . S
C916 C917 1.524 . S
C916 H935 0.913 . S
C917 H893 0.950 . S
C917 C916 1.524 . S
C917 C918 1.415 . S
C918 H894 0.950 . S
C918 C913 1.363 . S
C918 C917 1.415 . S
C919 H895 0.951 . S
C919 C920 1.366 . S
C919 C921 1.388 . S
C920 C919 1.366 . S
C920 C924 1.385 . S
C921 H896 0.951 . S
C921 C919 1.388 . S
C921 C922 1.366 . S
C922 C921 1.366 . S
C922 C923 1.414 . S
C922 C925 1.499 . S
C923 H897 0.950 . S
C923 C922 1.414 . S
C923 C924 1.374 . S
C924 H898 0.950 . S
C924 C920 1.385 . S
C924 C923 1.374 . S
C925 C922 1.499 . S
C925 C926 1.373 . S
C925 C927 1.389 . S
C926 H899 0.950 . S
C926 C912 1.377 . S
C926 C925 1.373 . S
C927 C911 1.377 . S
C927 C925 1.389 . S
C927 C928 1.524 . S
C928 C927 1.524 . S
C928 C929 1.397 . S
C928 C933 1.363 . S
C929 H900 0.950 . S
C929 C928 1.397 . S
C929 C930 1.334 . S
C930 H901 0.950 . S
C930 C929 1.334 . S
C930 C931 1.287 . S
C931 C930 1.287 . S
C931 C932 1.524 . S
C931 H934 0.999 . S
C932 H902 0.950 . S
C932 C931 1.524 . S
C932 C933 1.415 . S
C933 H903 0.950 . S
C933 C928 1.363 . S
C933 C932 1.415 . S
H934 C931 0.999 . S
H935 C916 0.913 . S
H936 C954 0.951 . S
H937 C956 0.951 . S
H938 C958 0.955 . S
H939 C959 0.950 . S
H940 C961 0.950 . S
H941 C964 0.950 . S
H942 C965 0.950 . S
H943 C967 0.950 . S
H944 C968 0.950 . S
H945 C969 0.951 . S
H946 C971 0.951 . S
H947 C973 0.950 . S
H948 C974 0.950 . S
H949 C976 0.950 . S
H950 C979 0.950 . S
H951 C980 0.950 . S
H952 C982 0.950 . S
H953 C983 0.950 . S
C954 H936 0.951 . S
C954 C955 1.360 1_455 S
C954 C956 1.388 . S
C955 C954 1.360 1_655 S
C955 C959 1.388 . S
C956 H937 0.951 . S
C956 C954 1.388 . S
C956 C957 1.366 . S
C957 C956 1.366 . S
C957 C958 1.407 1_455 S
C957 C960 1.499 . S
C958 H938 0.955 . S
C958 C957 1.407 1_655 S
C958 C959 1.377 . S
C959 H939 0.950 . S
C959 C955 1.388 . S
C959 C958 1.377 . S
C960 C957 1.499 . S
C960 C961 1.373 1_455 S
C960 C962 1.389 . S
C961 H940 0.950 . S
C961 C960 1.373 1_655 S
C961 C977 1.377 . S
C962 C960 1.389 . S
C962 C963 1.524 . S
C962 C976 1.377 . S
C963 C962 1.524 . S
C963 C964 1.397 . S
C963 C968 1.363 . S
C964 H941 0.950 . S
C964 C963 1.397 . S
C964 C965 1.334 . S
C965 H942 0.950 . S
C965 C964 1.334 . S
C965 C966 1.287 . S
C966 C965 1.287 . S
C966 C967 1.524 . S
C966 H985 0.913 . S
C967 H943 0.950 . S
C967 C966 1.524 . S
C967 C968 1.415 . S
C968 H944 0.950 . S
C968 C963 1.363 . S
C968 C967 1.415 . S
C969 H945 0.951 . S
C969 C970 1.366 . S
C969 C971 1.388 . S
C970 C969 1.366 . S
C970 C974 1.385 . S
C971 H946 0.951 . S
C971 C969 1.388 . S
C971 C972 1.366 . S
C972 C971 1.366 . S
C972 C973 1.414 . S
C972 C975 1.499 . S
C973 H947 0.950 . S
C973 C972 1.414 . S
C973 C974 1.374 . S
C974 H948 0.950 . S
C974 C970 1.385 . S
C974 C973 1.374 . S
C975 C972 1.499 . S
C975 C976 1.373 . S
C975 C977 1.389 1_455 S
C976 H949 0.950 . S
C976 C962 1.377 . S
C976 C975 1.373 . S
C977 C961 1.377 . S
C977 C975 1.389 1_655 S
C977 C978 1.524 . S
C978 C977 1.524 . S
C978 C979 1.397 . S
C978 C983 1.363 . S
C979 H950 0.950 . S
C979 C978 1.397 . S
C979 C980 1.334 . S
C980 H951 0.950 . S
C980 C979 1.334 . S
C980 C981 1.287 . S
C981 C980 1.287 . S
C981 C982 1.524 . S
C981 H984 0.999 . S
C982 H952 0.950 . S
C982 C981 1.524 . S
C982 C983 1.415 . S
C983 H953 0.950 . S
C983 C978 1.363 . S
C983 C982 1.415 . S
H984 C981 0.999 . S
H985 C966 0.913 . S
H986 C1004 0.951 . S
H987 C1006 0.951 . S
H988 C1008 0.950 . S
H989 C1009 0.950 . S
H990 C1011 0.950 . S
H991 C1014 0.950 . S
H992 C1015 0.950 . S
H993 C1017 0.950 . S
H994 C1018 0.950 . S
H995 C1019 0.955 . S
H996 C1021 0.951 . S
H997 C1023 0.950 . S
H998 C1024 0.950 . S
H999 C1026 0.950 . S
H1000 C1029 0.950 . S
H1001 C1030 0.950 . S
H1002 C1032 0.950 . S
H1003 C1033 0.950 1_565 S
C1004 H986 0.951 . S
C1004 C1005 1.366 . S
C1004 C1006 1.388 . S
C1005 C1004 1.366 . S
C1005 C1009 1.385 . S
C1006 H987 0.951 . S
C1006 C1004 1.388 . S
C1006 C1007 1.366 . S
C1007 C1006 1.366 . S
C1007 C1008 1.414 . S
C1007 C1010 1.499 . S
C1008 H988 0.950 . S
C1008 C1007 1.414 . S
C1008 C1009 1.374 . S
C1009 H989 0.950 . S
C1009 C1005 1.385 . S
C1009 C1008 1.374 . S
C1010 C1007 1.499 . S
C1010 C1011 1.373 . S
C1010 C1012 1.389 . S
C1011 H990 0.950 . S
C1011 C1010 1.373 . S
C1011 C1027 1.377 . S
C1012 C1010 1.389 . S
C1012 C1013 1.524 . S
C1012 C1026 1.377 . S
C1013 C1012 1.524 . S
C1013 C1014 1.397 . S
C1013 C1018 1.363 . S
C1014 H991 0.950 . S
C1014 C1013 1.397 . S
C1014 C1015 1.334 . S
C1015 H992 0.950 . S
C1015 C1014 1.334 . S
C1015 C1016 1.287 . S
C1016 C1015 1.287 . S
C1016 C1017 1.524 . S
C1016 H1035 0.913 . S
C1017 H993 0.950 . S
C1017 C1016 1.524 . S
C1017 C1018 1.415 . S
C1018 H994 0.950 . S
C1018 C1013 1.363 . S
C1018 C1017 1.415 . S
C1019 H995 0.955 . S
C1019 C1020 1.366 . S
C1019 C1021 1.388 . S
C1020 C1019 1.366 . S
C1020 C1024 1.385 . S
C1021 H996 0.951 . S
C1021 C1019 1.388 . S
C1021 C1022 1.366 . S
C1022 C1021 1.366 . S
C1022 C1023 1.414 . S
C1022 C1025 1.499 . S
C1023 H997 0.950 . S
C1023 C1022 1.414 . S
C1023 C1024 1.374 . S
C1024 H998 0.950 . S
C1024 C1020 1.385 . S
C1024 C1023 1.374 . S
C1025 C1022 1.499 . S
C1025 C1026 1.373 . S
C1025 C1027 1.389 . S
C1026 H999 0.950 . S
C1026 C1012 1.377 . S
C1026 C1025 1.373 . S
C1027 C1011 1.377 . S
C1027 C1025 1.389 . S
C1027 C1028 1.524 1_565 S
C1028 C1027 1.524 1_545 S
C1028 C1029 1.397 . S
C1028 C1033 1.363 . S
C1029 H1000 0.950 . S
C1029 C1028 1.397 . S
C1029 C1030 1.334 . S
C1030 H1001 0.950 . S
C1030 C1029 1.334 . S
C1030 C1031 1.287 . S
C1031 C1030 1.287 . S
C1031 C1032 1.524 . S
C1031 H1034 0.999 . S
C1032 H1002 0.950 . S
C1032 C1031 1.524 . S
C1032 C1033 1.415 . S
C1033 H1003 0.950 1_545 S
C1033 C1028 1.363 . S
C1033 C1032 1.415 . S
H1034 C1031 0.999 . S
H1035 C1016 0.913 . S
H1036 C1054 0.951 . S
H1037 C1056 0.951 . S
H1038 C1058 0.950 . S
H1039 C1059 0.950 . S
H1040 C1061 0.950 . S
H1041 C1064 0.950 . S
H1042 C1065 0.950 . S
H1043 C1067 0.950 1_554 S
H1044 C1068 0.950 . S
H1045 C1069 0.951 . S
H1046 C1071 0.951 . S
H1047 C1073 0.950 . S
H1048 C1074 0.950 . S
H1049 C1076 0.950 . S
H1050 C1079 0.950 . S
H1051 C1080 0.950 . S
H1052 C1082 0.950 . S
H1053 C1083 0.950 . S
C1054 H1036 0.951 . S
C1054 C1055 1.366 . S
C1054 C1056 1.388 . S
C1055 C1054 1.366 . S
C1055 C1059 1.385 . S
C1056 H1037 0.951 . S
C1056 C1054 1.388 . S
C1056 C1057 1.366 . S
C1057 C1056 1.366 . S
C1057 C1058 1.414 . S
C1057 C1060 1.499 . S
C1058 H1038 0.950 . S
C1058 C1057 1.414 . S
C1058 C1059 1.374 . S
C1059 H1039 0.950 . S
C1059 C1055 1.385 . S
C1059 C1058 1.374 . S
C1060 C1057 1.499 . S
C1060 C1061 1.373 . S
C1060 C1062 1.389 . S
C1061 H1040 0.950 . S
C1061 C1060 1.373 . S
C1061 C1077 1.377 . S
C1062 C1060 1.389 . S
C1062 C1063 1.524 . S
C1062 C1076 1.377 . S
C1063 C1062 1.524 . S
C1063 C1064 1.397 . S
C1063 C1068 1.363 . S
C1064 H1041 0.950 . S
C1064 C1063 1.397 . S
C1064 C1065 1.334 . S
C1065 H1042 0.950 . S
C1065 C1064 1.334 . S
C1065 C1066 1.287 . S
C1066 C1065 1.287 . S
C1066 C1067 1.524 . S
C1066 H1085 0.913 1_556 S
C1067 H1043 0.950 1_556 S
C1067 C1066 1.524 . S
C1067 C1068 1.415 . S
C1068 H1044 0.950 . S
C1068 C1063 1.363 . S
C1068 C1067 1.415 . S
C1069 H1045 0.951 . S
C1069 C1070 1.366 . S
C1069 C1071 1.388 . S
C1070 C1069 1.366 . S
C1070 C1074 1.385 . S
C1071 H1046 0.951 . S
C1071 C1069 1.388 . S
C1071 C1072 1.366 . S
C1072 C1071 1.366 . S
C1072 C1073 1.414 . S
C1072 C1075 1.499 . S
C1073 H1047 0.950 . S
C1073 C1072 1.414 . S
C1073 C1074 1.374 . S
C1074 H1048 0.950 . S
C1074 C1070 1.385 . S
C1074 C1073 1.374 . S
C1075 C1072 1.499 . S
C1075 C1076 1.373 . S
C1075 C1077 1.389 . S
C1076 H1049 0.950 . S
C1076 C1062 1.377 . S
C1076 C1075 1.373 . S
C1077 C1061 1.377 . S
C1077 C1075 1.389 . S
C1077 C1078 1.524 . S
C1078 C1077 1.524 . S
C1078 C1079 1.397 . S
C1078 C1083 1.363 . S
C1079 H1050 0.950 . S
C1079 C1078 1.397 . S
C1079 C1080 1.334 . S
C1080 H1051 0.950 . S
C1080 C1079 1.334 . S
C1080 C1081 1.287 . S
C1081 C1080 1.287 . S
C1081 C1082 1.524 . S
C1081 H1084 0.999 . S
C1082 H1052 0.950 . S
C1082 C1081 1.524 . S
C1082 C1083 1.415 . S
C1083 H1053 0.950 . S
C1083 C1078 1.363 . S
C1083 C1082 1.415 . S
H1084 C1081 0.999 . S
H1085 C1066 0.913 1_554 S
H1086 C1104 0.951 . S
H1087 C1106 0.951 . S
H1088 C1108 0.950 . S
H1089 C1109 0.950 . S
H1090 C1111 0.950 . S
H1091 C1114 0.950 . S
H1092 C1115 0.950 . S
H1093 C1117 0.950 . S
H1094 C1118 0.950 . S
H1095 C1119 0.951 . S
H1096 C1121 0.951 . S
H1097 C1123 0.950 . S
H1098 C1124 0.950 . S
H1099 C1126 0.950 . S
H1100 C1129 0.950 . S
H1101 C1130 0.950 . S
H1102 C1132 0.950 . S
H1103 C1133 0.950 . S
C1104 H1086 0.951 . S
C1104 C1105 1.366 . S
C1104 C1106 1.388 . S
C1105 C1104 1.366 . S
C1105 C1109 1.385 . S
C1106 H1087 0.951 . S
C1106 C1104 1.388 . S
C1106 C1107 1.366 . S
C1107 C1106 1.366 . S
C1107 C1108 1.414 . S
C1107 C1110 1.499 . S
C1108 H1088 0.950 . S
C1108 C1107 1.414 . S
C1108 C1109 1.374 . S
C1109 H1089 0.950 . S
C1109 C1105 1.385 . S
C1109 C1108 1.374 . S
C1110 C1107 1.499 . S
C1110 C1111 1.373 . S
C1110 C1112 1.389 . S
C1111 H1090 0.950 . S
C1111 C1110 1.373 . S
C1111 C1127 1.377 . S
C1112 C1110 1.389 . S
C1112 C1113 1.524 . S
C1112 C1126 1.377 . S
C1113 C1112 1.524 . S
C1113 C1114 1.397 . S
C1113 C1118 1.363 . S
C1114 H1091 0.950 . S
C1114 C1113 1.397 . S
C1114 C1115 1.334 . S
C1115 H1092 0.950 . S
C1115 C1114 1.334 . S
C1115 C1116 1.287 . S
C1116 C1115 1.287 . S
C1116 C1117 1.524 . S
C1116 H1135 0.913 . S
C1117 H1093 0.950 . S
C1117 C1116 1.524 . S
C1117 C1118 1.415 . S
C1118 H1094 0.950 . S
C1118 C1113 1.363 . S
C1118 C1117 1.415 . S
C1119 H1095 0.951 . S
C1119 C1120 1.366 . S
C1119 C1121 1.388 . S
C1120 C1119 1.366 . S
C1120 C1124 1.385 . S
C1121 H1096 0.951 . S
C1121 C1119 1.388 . S
C1121 C1122 1.366 . S
C1122 C1121 1.366 . S
C1122 C1123 1.414 . S
C1122 C1125 1.499 . S
C1123 H1097 0.950 . S
C1123 C1122 1.414 . S
C1123 C1124 1.374 . S
C1124 H1098 0.950 . S
C1124 C1120 1.385 . S
C1124 C1123 1.374 . S
C1125 C1122 1.499 . S
C1125 C1126 1.373 . S
C1125 C1127 1.389 . S
C1126 H1099 0.950 . S
C1126 C1112 1.377 . S
C1126 C1125 1.373 . S
C1127 C1111 1.377 . S
C1127 C1125 1.389 . S
C1127 C1128 1.524 . S
C1128 C1127 1.524 . S
C1128 C1129 1.397 . S
C1128 C1133 1.363 . S
C1129 H1100 0.950 . S
C1129 C1128 1.397 . S
C1129 C1130 1.334 . S
C1130 H1101 0.950 . S
C1130 C1129 1.334 . S
C1130 C1131 1.287 . S
C1131 C1130 1.287 . S
C1131 C1132 1.524 . S
C1131 H1134 0.999 . S
C1132 H1102 0.950 . S
C1132 C1131 1.524 . S
C1132 C1133 1.415 . S
C1133 H1103 0.950 . S
C1133 C1128 1.363 . S
C1133 C1132 1.415 . S
H1134 C1131 0.999 . S
H1135 C1116 0.913 . S
H1136 C1154 0.951 1_554 S
H1137 C1156 0.951 . S
H1138 C1158 0.950 . S
H1139 C1159 0.950 . S
H1140 C1161 0.950 . S
H1141 C1164 0.950 . S
H1142 C1165 0.950 . S
H1143 C1167 0.950 . S
H1144 C1168 0.950 . S
H1145 C1169 0.951 . S
H1146 C1171 0.951 . S
H1147 C1173 0.950 . S
H1148 C1174 0.950 . S
H1149 C1176 0.950 . S
H1150 C1179 0.950 . S
H1151 C1180 0.950 . S
H1152 C1182 0.950 . S
H1153 C1183 0.950 . S
C1154 H1136 0.951 1_556 S
C1154 C1155 1.382 . S
C1154 C1156 1.388 . S
C1155 C1154 1.382 . S
C1155 C1159 1.370 1_455 S
C1156 H1137 0.951 . S
C1156 C1154 1.388 . S
C1156 C1157 1.366 . S
C1157 C1156 1.366 . S
C1157 C1158 1.414 1_455 S
C1157 C1160 1.499 . S
C1158 H1138 0.950 . S
C1158 C1157 1.414 1_655 S
C1158 C1159 1.374 . S
C1159 H1139 0.950 . S
C1159 C1155 1.370 1_655 S
C1159 C1158 1.374 . S
C1160 C1157 1.499 . S
C1160 C1161 1.373 1_455 S
C1160 C1162 1.389 . S
C1161 H1140 0.950 . S
C1161 C1160 1.373 1_655 S
C1161 C1177 1.377 . S
C1162 C1160 1.389 . S
C1162 C1163 1.524 . S
C1162 C1176 1.377 . S
C1163 C1162 1.524 . S
C1163 C1164 1.397 . S
C1163 C1168 1.363 . S
C1164 H1141 0.950 . S
C1164 C1163 1.397 . S
C1164 C1165 1.334 . S
C1165 H1142 0.950 . S
C1165 C1164 1.334 . S
C1165 C1166 1.287 . S
C1166 C1165 1.287 . S
C1166 C1167 1.524 . S
C1166 H1185 0.913 . S
C1167 H1143 0.950 . S
C1167 C1166 1.524 . S
C1167 C1168 1.415 . S
C1168 H1144 0.950 . S
C1168 C1163 1.363 . S
C1168 C1167 1.415 . S
C1169 H1145 0.951 . S
C1169 C1170 1.366 1_655 S
C1169 C1171 1.388 . S
C1170 C1169 1.366 1_455 S
C1170 C1174 1.385 . S
C1171 H1146 0.951 . S
C1171 C1169 1.388 . S
C1171 C1172 1.366 1_655 S
C1172 C1171 1.366 1_455 S
C1172 C1173 1.414 . S
C1172 C1175 1.499 . S
C1173 H1147 0.950 . S
C1173 C1172 1.414 . S
C1173 C1174 1.374 . S
C1174 H1148 0.950 . S
C1174 C1170 1.385 . S
C1174 C1173 1.374 . S
C1175 C1172 1.499 . S
C1175 C1176 1.373 . S
C1175 C1177 1.389 1_455 S
C1176 H1149 0.950 . S
C1176 C1162 1.377 . S
C1176 C1175 1.373 . S
C1177 C1161 1.377 . S
C1177 C1175 1.389 1_655 S
C1177 C1178 1.524 . S
C1178 C1177 1.524 . S
C1178 C1179 1.397 . S
C1178 C1183 1.363 . S
C1179 H1150 0.950 . S
C1179 C1178 1.397 . S
C1179 C1180 1.334 . S
C1180 H1151 0.950 . S
C1180 C1179 1.334 . S
C1180 C1181 1.287 . S
C1181 C1180 1.287 . S
C1181 C1182 1.524 . S
C1181 H1184 0.999 . S
C1182 H1152 0.950 . S
C1182 C1181 1.524 . S
C1182 C1183 1.415 . S
C1183 H1153 0.950 . S
C1183 C1178 1.363 . S
C1183 C1182 1.415 . S
H1184 C1181 0.999 . S
H1185 C1166 0.913 . S
H1186 C1204 0.951 1_554 S
H1187 C1206 0.951 . S
H1188 C1208 0.950 . S
H1189 C1209 0.950 . S
H1190 C1211 0.950 . S
H1191 C1214 0.950 . S
H1192 C1215 0.950 . S
H1193 C1217 0.950 . S
H1194 C1218 0.950 . S
H1195 C1219 0.951 . S
H1196 C1221 0.951 . S
H1197 C1223 0.950 . S
H1198 C1224 0.950 . S
H1199 C1226 0.950 . S
H1200 C1229 0.950 . S
H1201 C1230 0.950 . S
H1202 C1232 0.950 . S
H1203 C1233 0.950 . S
C1204 H1186 0.951 1_556 S
C1204 C1205 1.366 . S
C1204 C1206 1.388 . S
C1205 C1204 1.366 . S
C1205 C1209 1.385 . S
C1206 H1187 0.951 . S
C1206 C1204 1.388 . S
C1206 C1207 1.366 . S
C1207 C1206 1.366 . S
C1207 C1208 1.414 . S
C1207 C1210 1.499 . S
C1208 H1188 0.950 . S
C1208 C1207 1.414 . S
C1208 C1209 1.374 . S
C1209 H1189 0.950 . S
C1209 C1205 1.385 . S
C1209 C1208 1.374 . S
C1210 C1207 1.499 . S
C1210 C1211 1.373 . S
C1210 C1212 1.389 . S
C1211 H1190 0.950 . S
C1211 C1210 1.373 . S
C1211 C1227 1.377 . S
C1212 C1210 1.389 . S
C1212 C1213 1.524 . S
C1212 C1226 1.377 . S
C1213 C1212 1.524 . S
C1213 C1214 1.397 . S
C1213 C1218 1.363 . S
C1214 H1191 0.950 . S
C1214 C1213 1.397 . S
C1214 C1215 1.334 . S
C1215 H1192 0.950 . S
C1215 C1214 1.334 . S
C1215 C1216 1.287 . S
C1216 C1215 1.287 . S
C1216 C1217 1.524 . S
C1216 H1235 0.913 . S
C1217 H1193 0.950 . S
C1217 C1216 1.524 . S
C1217 C1218 1.415 . S
C1218 H1194 0.950 . S
C1218 C1213 1.363 . S
C1218 C1217 1.415 . S
C1219 H1195 0.951 . S
C1219 C1220 1.366 . S
C1219 C1221 1.388 . S
C1220 C1219 1.366 . S
C1220 C1224 1.385 . S
C1221 H1196 0.951 . S
C1221 C1219 1.388 . S
C1221 C1222 1.366 . S
C1222 C1221 1.366 . S
C1222 C1223 1.414 . S
C1222 C1225 1.499 . S
C1223 H1197 0.950 . S
C1223 C1222 1.414 . S
C1223 C1224 1.374 . S
C1224 H1198 0.950 . S
C1224 C1220 1.385 . S
C1224 C1223 1.374 . S
C1225 C1222 1.499 . S
C1225 C1226 1.373 . S
C1225 C1227 1.389 . S
C1226 H1199 0.950 . S
C1226 C1212 1.377 . S
C1226 C1225 1.373 . S
C1227 C1211 1.377 . S
C1227 C1225 1.389 . S
C1227 C1228 1.524 . S
C1228 C1227 1.524 . S
C1228 C1229 1.397 . S
C1228 C1233 1.363 . S
C1229 H1200 0.950 . S
C1229 C1228 1.397 . S
C1229 C1230 1.334 1_545 S
C1230 H1201 0.950 . S
C1230 C1229 1.334 1_565 S
C1230 C1231 1.287 . S
C1231 C1230 1.287 . S
C1231 C1232 1.524 . S
C1231 H1234 0.999 . S
C1232 H1202 0.950 . S
C1232 C1231 1.524 . S
C1232 C1233 1.415 1_565 S
C1233 H1203 0.950 . S
C1233 C1228 1.363 . S
C1233 C1232 1.415 1_545 S
H1234 C1231 0.999 . S
H1235 C1216 0.913 . S
H1236 C1254 0.951 . S
H1237 C1256 0.951 . S
H1238 C1258 0.950 . S
H1239 C1259 0.950 . S
H1240 C1261 0.950 . S
H1241 C1264 0.950 . S
H1242 C1265 0.950 . S
H1243 C1267 0.950 . S
H1244 C1268 0.950 . S
H1245 C1269 0.951 . S
H1246 C1271 0.951 . S
H1247 C1273 0.950 . S
H1248 C1274 0.950 . S
H1249 C1276 0.950 . S
H1250 C1279 0.950 . S
H1251 C1280 0.950 . S
H1252 C1282 0.950 . S
H1253 C1283 0.950 . S
C1254 H1236 0.951 . S
C1254 C1255 1.366 . S
C1254 C1256 1.388 . S
C1255 C1254 1.366 . S
C1255 C1259 1.385 . S
C1256 H1237 0.951 . S
C1256 C1254 1.388 . S
C1256 C1257 1.366 . S
C1257 C1256 1.366 . S
C1257 C1258 1.414 . S
C1257 C1260 1.499 . S
C1258 H1238 0.950 . S
C1258 C1257 1.414 . S
C1258 C1259 1.374 . S
C1259 H1239 0.950 . S
C1259 C1255 1.385 . S
C1259 C1258 1.374 . S
C1260 C1257 1.499 . S
C1260 C1261 1.373 . S
C1260 C1262 1.389 . S
C1261 H1240 0.950 . S
C1261 C1260 1.373 . S
C1261 C1277 1.377 . S
C1262 C1260 1.389 . S
C1262 C1263 1.524 . S
C1262 C1276 1.377 . S
C1263 C1262 1.524 . S
C1263 C1264 1.397 . S
C1263 C1268 1.363 . S
C1264 H1241 0.950 . S
C1264 C1263 1.397 . S
C1264 C1265 1.334 1_556 S
C1265 H1242 0.950 . S
C1265 C1264 1.334 1_554 S
C1265 C1266 1.287 . S
C1266 C1265 1.287 . S
C1266 C1267 1.524 . S
C1266 H1285 0.913 . S
C1267 H1243 0.950 . S
C1267 C1266 1.524 . S
C1267 C1268 1.415 1_554 S
C1268 H1244 0.950 . S
C1268 C1263 1.363 . S
C1268 C1267 1.415 1_556 S
C1269 H1245 0.951 . S
C1269 C1270 1.366 . S
C1269 C1271 1.388 . S
C1270 C1269 1.366 . S
C1270 C1274 1.385 . S
C1271 H1246 0.951 . S
C1271 C1269 1.388 . S
C1271 C1272 1.366 . S
C1272 C1271 1.366 . S
C1272 C1273 1.414 . S
C1272 C1275 1.499 . S
C1273 H1247 0.950 . S
C1273 C1272 1.414 . S
C1273 C1274 1.374 . S
C1274 H1248 0.950 . S
C1274 C1270 1.385 . S
C1274 C1273 1.374 . S
C1275 C1272 1.499 . S
C1275 C1276 1.373 . S
C1275 C1277 1.389 . S
C1276 H1249 0.950 . S
C1276 C1262 1.377 . S
C1276 C1275 1.373 . S
C1277 C1261 1.377 . S
C1277 C1275 1.389 . S
C1277 C1278 1.524 . S
C1278 C1277 1.524 . S
C1278 C1279 1.397 . S
C1278 C1283 1.363 . S
C1279 H1250 0.950 . S
C1279 C1278 1.397 . S
C1279 C1280 1.334 . S
C1280 H1251 0.950 . S
C1280 C1279 1.334 . S
C1280 C1281 1.287 . S
C1281 C1280 1.287 . S
C1281 C1282 1.524 . S
C1281 H1284 0.999 . S
C1282 H1252 0.950 . S
C1282 C1281 1.524 . S
C1282 C1283 1.415 . S
C1283 H1253 0.950 . S
C1283 C1278 1.363 . S
C1283 C1282 1.415 . S
H1284 C1281 0.999 . S
H1285 C1266 0.913 . S
H1286 C1304 0.951 1_554 S
H1287 C1306 0.951 . S
H1288 C1308 0.950 . S
H1289 C1309 0.950 . S
H1290 C1311 0.950 . S
H1291 C1314 0.950 . S
H1292 C1315 0.950 . S
H1293 C1317 0.950 . S
H1294 C1318 0.950 . S
H1295 C1319 0.951 . S
H1296 C1321 0.951 . S
H1297 C1323 0.950 . S
H1298 C1324 0.950 . S
H1299 C1326 0.950 . S
H1300 C1329 0.950 . S
H1301 C1330 0.950 . S
H1302 C1332 0.950 . S
H1303 C1333 0.950 . S
C1304 H1286 0.951 1_556 S
C1304 C1305 1.366 . S
C1304 C1306 1.388 . S
C1305 C1304 1.366 . S
C1305 C1309 1.385 . S
C1306 H1287 0.951 . S
C1306 C1304 1.388 . S
C1306 C1307 1.366 . S
C1307 C1306 1.366 . S
C1307 C1308 1.414 . S
C1307 C1310 1.499 . S
C1308 H1288 0.950 . S
C1308 C1307 1.414 . S
C1308 C1309 1.374 . S
C1309 H1289 0.950 . S
C1309 C1305 1.385 . S
C1309 C1308 1.374 . S
C1310 C1307 1.499 . S
C1310 C1311 1.373 . S
C1310 C1312 1.389 . S
C1311 H1290 0.950 . S
C1311 C1310 1.373 . S
C1311 C1327 1.377 . S
C1312 C1310 1.389 . S
C1312 C1313 1.524 . S
C1312 C1326 1.377 . S
C1313 C1312 1.524 . S
C1313 C1314 1.397 . S
C1313 C1318 1.363 . S
C1314 H1291 0.950 . S
C1314 C1313 1.397 . S
C1314 C1315 1.334 . S
C1315 H1292 0.950 . S
C1315 C1314 1.334 . S
C1315 C1316 1.287 . S
C1316 C1315 1.287 . S
C1316 C1317 1.524 1_556 S
C1316 H1335 0.913 1_556 S
C1317 H1293 0.950 . S
C1317 C1316 1.524 1_554 S
C1317 C1318 1.415 1_554 S
C1318 H1294 0.950 . S
C1318 C1313 1.363 . S
C1318 C1317 1.415 1_556 S
C1319 H1295 0.951 . S
C1319 C1320 1.366 . S
C1319 C1321 1.388 . S
C1320 C1319 1.366 . S
C1320 C1324 1.385 . S
C1321 H1296 0.951 . S
C1321 C1319 1.388 . S
C1321 C1322 1.366 . S
C1322 C1321 1.366 . S
C1322 C1323 1.414 . S
C1322 C1325 1.499 . S
C1323 H1297 0.950 . S
C1323 C1322 1.414 . S
C1323 C1324 1.374 . S
C1324 H1298 0.950 . S
C1324 C1320 1.385 . S
C1324 C1323 1.374 . S
C1325 C1322 1.499 . S
C1325 C1326 1.373 . S
C1325 C1327 1.389 . S
C1326 H1299 0.950 . S
C1326 C1312 1.377 . S
C1326 C1325 1.373 . S
C1327 C1311 1.377 . S
C1327 C1325 1.389 . S
C1327 C1328 1.524 . S
C1328 C1327 1.524 . S
C1328 C1329 1.397 . S
C1328 C1333 1.363 . S
C1329 H1300 0.950 . S
C1329 C1328 1.397 . S
C1329 C1330 1.334 . S
C1330 H1301 0.950 . S
C1330 C1329 1.334 . S
C1330 C1331 1.287 . S
C1331 C1330 1.287 . S
C1331 C1332 1.524 . S
C1331 H1334 0.999 . S
C1332 H1302 0.950 . S
C1332 C1331 1.524 . S
C1332 C1333 1.415 . S
C1333 H1303 0.950 . S
C1333 C1328 1.363 . S
C1333 C1332 1.415 . S
H1334 C1331 0.999 . S
H1335 C1316 0.913 1_554 S
H1336 C1354 0.951 . S
H1337 C1356 0.951 . S
H1338 C1358 0.950 . S
H1339 C1359 0.950 . S
H1340 C1361 0.950 . S
H1341 C1364 0.950 . S
H1342 C1365 0.950 . S
H1343 C1367 0.950 . S
H1344 C1368 0.950 . S
H1345 C1369 0.951 . S
H1346 C1371 0.951 . S
H1347 C1373 0.950 . S
H1348 C1374 0.950 . S
H1349 C1376 0.950 . S
H1350 C1379 0.950 . S
H1351 C1380 0.950 . S
H1352 C1382 0.950 . S
H1353 C1383 0.950 . S
C1354 H1336 0.951 . S
C1354 C1355 1.342 1_455 S
C1354 C1356 1.388 . S
C1355 C1354 1.342 1_655 S
C1355 C1359 1.410 . S
C1356 H1337 0.951 . S
C1356 C1354 1.388 . S
C1356 C1357 1.366 1_455 S
C1357 C1356 1.366 1_655 S
C1357 C1358 1.414 . S
C1357 C1360 1.499 . S
C1358 H1338 0.950 . S
C1358 C1357 1.414 . S
C1358 C1359 1.374 . S
C1359 H1339 0.950 . S
C1359 C1355 1.410 . S
C1359 C1358 1.374 . S
C1360 C1357 1.499 . S
C1360 C1361 1.373 . S
C1360 C1362 1.389 1_655 S
C1361 H1340 0.950 . S
C1361 C1360 1.373 . S
C1361 C1377 1.377 . S
C1362 C1360 1.389 1_455 S
C1362 C1363 1.524 . S
C1362 C1376 1.377 . S
C1363 C1362 1.524 . S
C1363 C1364 1.397 . S
C1363 C1368 1.363 . S
C1364 H1341 0.950 . S
C1364 C1363 1.397 . S
C1364 C1365 1.334 . S
C1365 H1342 0.950 . S
C1365 C1364 1.334 . S
C1365 C1366 1.287 . S
C1366 C1365 1.287 . S
C1366 C1367 1.524 . S
C1366 H1385 0.913 . S
C1367 H1343 0.950 . S
C1367 C1366 1.524 . S
C1367 C1368 1.415 . S
C1368 H1344 0.950 . S
C1368 C1363 1.363 . S
C1368 C1367 1.415 . S
C1369 H1345 0.951 . S
C1369 C1370 1.366 . S
C1369 C1371 1.388 . S
C1370 C1369 1.366 . S
C1370 C1374 1.385 1_655 S
C1371 H1346 0.951 . S
C1371 C1369 1.388 . S
C1371 C1372 1.366 . S
C1372 C1371 1.366 . S
C1372 C1373 1.414 1_655 S
C1372 C1375 1.499 . S
C1373 H1347 0.950 . S
C1373 C1372 1.414 1_455 S
C1373 C1374 1.374 . S
C1374 H1348 0.950 . S
C1374 C1370 1.385 1_455 S
C1374 C1373 1.374 . S
C1375 C1372 1.499 . S
C1375 C1376 1.373 1_655 S
C1375 C1377 1.389 . S
C1376 H1349 0.950 . S
C1376 C1362 1.377 . S
C1376 C1375 1.373 1_455 S
C1377 C1361 1.377 . S
C1377 C1375 1.389 . S
C1377 C1378 1.524 . S
C1378 C1377 1.524 . S
C1378 C1379 1.397 . S
C1378 C1383 1.363 . S
C1379 H1350 0.950 . S
C1379 C1378 1.397 . S
C1379 C1380 1.334 . S
C1380 H1351 0.950 . S
C1380 C1379 1.334 . S
C1380 C1381 1.287 . S
C1381 C1380 1.287 . S
C1381 C1382 1.524 . S
C1381 H1384 0.999 . S
C1382 H1352 0.950 . S
C1382 C1381 1.524 . S
C1382 C1383 1.415 . S
C1383 H1353 0.950 . S
C1383 C1378 1.363 . S
C1383 C1382 1.415 . S
H1384 C1381 0.999 . S
H1385 C1366 0.913 . S
H1386 C1404 0.951 . S
H1387 C1406 0.951 . S
H1388 C1408 0.950 . S
H1389 C1409 0.950 . S
H1390 C1411 0.950 . S
H1391 C1414 0.950 . S
H1392 C1415 0.950 . S
H1393 C1417 0.950 1_545 S
H1394 C1418 0.950 . S
H1395 C1419 0.951 . S
H1396 C1421 0.951 . S
H1397 C1423 0.950 . S
H1398 C1424 0.950 1_545 S
H1399 C1426 0.950 . S
H1400 C1429 0.950 . S
H1401 C1430 0.950 . S
H1402 C1432 0.950 . S
H1403 C1433 0.950 . S
C1404 H1386 0.951 . S
C1404 C1405 1.366 . S
C1404 C1406 1.388 . S
C1405 C1404 1.366 . S
C1405 C1409 1.385 . S
C1406 H1387 0.951 . S
C1406 C1404 1.388 . S
C1406 C1407 1.366 . S
C1407 C1406 1.366 . S
C1407 C1408 1.414 . S
C1407 C1410 1.499 . S
C1408 H1388 0.950 . S
C1408 C1407 1.414 . S
C1408 C1409 1.374 . S
C1409 H1389 0.950 . S
C1409 C1405 1.385 . S
C1409 C1408 1.374 . S
C1410 C1407 1.499 . S
C1410 C1411 1.373 . S
C1410 C1412 1.389 . S
C1411 H1390 0.950 . S
C1411 C1410 1.373 . S
C1411 C1427 1.377 . S
C1412 C1410 1.389 . S
C1412 C1413 1.524 . S
C1412 C1426 1.377 . S
C1413 C1412 1.524 . S
C1413 C1414 1.397 . S
C1413 C1418 1.363 . S
C1414 H1391 0.950 . S
C1414 C1413 1.397 . S
C1414 C1415 1.334 . S
C1415 H1392 0.950 . S
C1415 C1414 1.334 . S
C1415 C1416 1.287 . S
C1416 C1415 1.287 . S
C1416 C1417 1.524 . S
C1416 H1435 0.913 . S
C1417 H1393 0.950 1_565 S
C1417 C1416 1.524 . S
C1417 C1418 1.415 . S
C1418 H1394 0.950 . S
C1418 C1413 1.363 . S
C1418 C1417 1.415 . S
C1419 H1395 0.951 . S
C1419 C1420 1.366 . S
C1419 C1421 1.388 . S
C1420 C1419 1.366 . S
C1420 C1424 1.385 . S
C1421 H1396 0.951 . S
C1421 C1419 1.388 . S
C1421 C1422 1.366 . S
C1422 C1421 1.366 . S
C1422 C1423 1.414 . S
C1422 C1425 1.499 . S
C1423 H1397 0.950 . S
C1423 C1422 1.414 . S
C1423 C1424 1.374 . S
C1424 H1398 0.950 1_565 S
C1424 C1420 1.385 . S
C1424 C1423 1.374 . S
C1425 C1422 1.499 . S
C1425 C1426 1.373 . S
C1425 C1427 1.389 . S
C1426 H1399 0.950 . S
C1426 C1412 1.377 . S
C1426 C1425 1.373 . S
C1427 C1411 1.377 . S
C1427 C1425 1.389 . S
C1427 C1428 1.524 . S
C1428 C1427 1.524 . S
C1428 C1429 1.397 . S
C1428 C1433 1.363 . S
C1429 H1400 0.950 . S
C1429 C1428 1.397 . S
C1429 C1430 1.334 . S
C1430 H1401 0.950 . S
C1430 C1429 1.334 . S
C1430 C1431 1.287 . S
C1431 C1430 1.287 . S
C1431 C1432 1.524 . S
C1431 H1434 0.999 . S
C1432 H1402 0.950 . S
C1432 C1431 1.524 . S
C1432 C1433 1.415 . S
C1433 H1403 0.950 . S
C1433 C1428 1.363 . S
C1433 C1432 1.415 . S
H1434 C1431 0.999 . S
H1435 C1416 0.913 . S
H1436 C1454 0.951 . S
H1437 C1456 0.951 . S
H1438 C1458 0.950 . S
H1439 C1459 0.950 . S
H1440 C1461 0.950 . S
H1441 C1464 0.950 . S
H1442 C1465 0.950 . S
H1443 C1467 0.950 . S
H1444 C1468 0.950 . S
H1445 C1469 0.951 . S
H1446 C1471 0.951 . S
H1447 C1473 0.950 . S
H1448 C1474 0.950 . S
H1449 C1476 0.950 . S
H1450 C1479 0.950 . S
H1451 C1480 0.950 . S
H1452 C1482 0.950 . S
H1453 C1483 0.950 . S
C1454 H1436 0.951 . S
C1454 C1455 1.366 . S
C1454 C1456 1.388 . S
C1455 C1454 1.366 . S
C1455 C1459 1.385 . S
C1456 H1437 0.951 . S
C1456 C1454 1.388 . S
C1456 C1457 1.366 . S
C1457 C1456 1.366 . S
C1457 C1458 1.414 . S
C1457 C1460 1.499 . S
C1458 H1438 0.950 . S
C1458 C1457 1.414 . S
C1458 C1459 1.374 . S
C1459 H1439 0.950 . S
C1459 C1455 1.385 . S
C1459 C1458 1.374 . S
C1460 C1457 1.499 . S
C1460 C1461 1.373 . S
C1460 C1462 1.389 . S
C1461 H1440 0.950 . S
C1461 C1460 1.373 . S
C1461 C1477 1.377 . S
C1462 C1460 1.389 . S
C1462 C1463 1.524 . S
C1462 C1476 1.377 . S
C1463 C1462 1.524 . S
C1463 C1464 1.397 . S
C1463 C1468 1.363 . S
C1464 H1441 0.950 . S
C1464 C1463 1.397 . S
C1464 C1465 1.334 . S
C1465 H1442 0.950 . S
C1465 C1464 1.334 . S
C1465 C1466 1.287 . S
C1466 C1465 1.287 . S
C1466 C1467 1.524 . S
C1466 H1485 0.913 . S
C1467 H1443 0.950 . S
C1467 C1466 1.524 . S
C1467 C1468 1.415 . S
C1468 H1444 0.950 . S
C1468 C1463 1.363 . S
C1468 C1467 1.415 . S
C1469 H1445 0.951 . S
C1469 C1470 1.366 . S
C1469 C1471 1.388 . S
C1470 C1469 1.366 . S
C1470 C1474 1.385 . S
C1471 H1446 0.951 . S
C1471 C1469 1.388 . S
C1471 C1472 1.366 . S
C1472 C1471 1.366 . S
C1472 C1473 1.414 . S
C1472 C1475 1.499 . S
C1473 H1447 0.950 . S
C1473 C1472 1.414 . S
C1473 C1474 1.374 . S
C1474 H1448 0.950 . S
C1474 C1470 1.385 . S
C1474 C1473 1.374 . S
C1475 C1472 1.499 . S
C1475 C1476 1.373 . S
C1475 C1477 1.389 . S
C1476 H1449 0.950 . S
C1476 C1462 1.377 . S
C1476 C1475 1.373 . S
C1477 C1461 1.377 . S
C1477 C1475 1.389 . S
C1477 C1478 1.524 . S
C1478 C1477 1.524 . S
C1478 C1479 1.397 . S
C1478 C1483 1.363 . S
C1479 H1450 0.950 . S
C1479 C1478 1.397 . S
C1479 C1480 1.334 . S
C1480 H1451 0.950 . S
C1480 C1479 1.334 . S
C1480 C1481 1.287 . S
C1481 C1480 1.287 . S
C1481 C1482 1.524 . S
C1481 H1484 0.999 . S
C1482 H1452 0.950 . S
C1482 C1481 1.524 . S
C1482 C1483 1.415 . S
C1483 H1453 0.950 . S
C1483 C1478 1.363 . S
C1483 C1482 1.415 . S
H1484 C1481 0.999 . S
H1485 C1466 0.913 . S
H1486 C1504 0.951 . S
H1487 C1506 0.951 . S
H1488 C1508 0.950 . S
H1489 C1509 0.950 . S
H1490 C1511 0.950 . S
H1491 C1514 0.950 . S
H1492 C1515 0.950 . S
H1493 C1517 0.950 . S
H1494 C1518 0.950 . S
H1495 C1519 0.951 . S
H1496 C1521 0.951 . S
H1497 C1523 0.950 . S
H1498 C1524 0.950 . S
H1499 C1526 0.950 . S
H1500 C1529 0.950 . S
H1501 C1530 0.950 . S
H1502 C1532 0.950 . S
H1503 C1533 0.950 . S
C1504 H1486 0.951 . S
C1504 C1505 1.366 . S
C1504 C1506 1.388 . S
C1505 C1504 1.366 . S
C1505 C1509 1.385 . S
C1506 H1487 0.951 . S
C1506 C1504 1.388 . S
C1506 C1507 1.366 . S
C1507 C1506 1.366 . S
C1507 C1508 1.414 . S
C1507 C1510 1.499 . S
C1508 H1488 0.950 . S
C1508 C1507 1.414 . S
C1508 C1509 1.374 . S
C1509 H1489 0.950 . S
C1509 C1505 1.385 . S
C1509 C1508 1.374 . S
C1510 C1507 1.499 . S
C1510 C1511 1.373 . S
C1510 C1512 1.389 . S
C1511 H1490 0.950 . S
C1511 C1510 1.373 . S
C1511 C1527 1.377 . S
C1512 C1510 1.389 . S
C1512 C1513 1.524 . S
C1512 C1526 1.377 . S
C1513 C1512 1.524 . S
C1513 C1514 1.397 . S
C1513 C1518 1.363 . S
C1514 H1491 0.950 . S
C1514 C1513 1.397 . S
C1514 C1515 1.334 . S
C1515 H1492 0.950 . S
C1515 C1514 1.334 . S
C1515 C1516 1.287 . S
C1516 C1515 1.287 . S
C1516 C1517 1.524 . S
C1516 H1535 0.913 . S
C1517 H1493 0.950 . S
C1517 C1516 1.524 . S
C1517 C1518 1.415 . S
C1518 H1494 0.950 . S
C1518 C1513 1.363 . S
C1518 C1517 1.415 . S
C1519 H1495 0.951 . S
C1519 C1520 1.366 . S
C1519 C1521 1.388 . S
C1520 C1519 1.366 . S
C1520 C1524 1.385 . S
C1521 H1496 0.951 . S
C1521 C1519 1.388 . S
C1521 C1522 1.366 . S
C1522 C1521 1.366 . S
C1522 C1523 1.414 . S
C1522 C1525 1.499 . S
C1523 H1497 0.950 . S
C1523 C1522 1.414 . S
C1523 C1524 1.374 . S
C1524 H1498 0.950 . S
C1524 C1520 1.385 . S
C1524 C1523 1.374 . S
C1525 C1522 1.499 . S
C1525 C1526 1.373 . S
C1525 C1527 1.389 . S
C1526 H1499 0.950 . S
C1526 C1512 1.377 . S
C1526 C1525 1.373 . S
C1527 C1511 1.377 . S
C1527 C1525 1.389 . S
C1527 C1528 1.524 . S
C1528 C1527 1.524 . S
C1528 C1529 1.397 . S
C1528 C1533 1.363 . S
C1529 H1500 0.950 . S
C1529 C1528 1.397 . S
C1529 C1530 1.334 . S
C1530 H1501 0.950 . S
C1530 C1529 1.334 . S
C1530 C1531 1.287 . S
C1531 C1530 1.287 . S
C1531 C1532 1.524 . S
C1531 H1534 0.999 . S
C1532 H1502 0.950 . S
C1532 C1531 1.524 . S
C1532 C1533 1.415 . S
C1533 H1503 0.950 . S
C1533 C1528 1.363 . S
C1533 C1532 1.415 . S
H1534 C1531 0.999 . S
H1535 C1516 0.913 . S
C355 C215 1.665 . S
C370 C274 1.639 . S
C420 C294 1.375 . S
C405 C247 1.359 . S
C470 C314 1.614 . S
C455 C151 1.636 . S
C520 C334 1.360 . S
C505 C183 1.363 1_655 S
C570 C275 1.644 1_565 S
C555 C87 1.562 . S
C605 C119 1.410 . S
C620 C295 1.376 . S
C655 C23 1.529 . S
C670 C315 1.614 . S
C705 C55 1.360 . S
C720 C335 1.361 . S
C770 C265 0.501 . S
C755 C189 0.437 . S
C820 C285 0.601 . S
C805 C221 0.535 . S
C870 C305 0.527 . S
C855 C253 0.516 . S
C905 C157 0.463 . S
C920 C325 0.570 . S
C955 C61 0.438 1_655 S
C970 C268 0.493 . S
C1020 C288 0.599 . S
C1005 C93 0.625 . S
C1070 C308 0.526 . S
C1055 C125 0.483 . S
C1105 C29 0.607 . S
C1120 C328 0.575 . S
C1155 C177 1.758 . S
C1170 C258 1.721 . S
C1205 C209 1.847 . S
C1220 C278 1.774 . S
C1270 C298 1.633 . S
C1255 C241 1.646 . S
C1320 C318 1.881 . S
C1305 C145 1.955 1_556 S
C1355 C49 1.758 1_655 S
C1370 C260 1.722 . S
C1420 C280 1.773 . S
C1405 C81 1.764 . S
C1470 C300 1.632 . S
C1455 C113 1.700 . S
C1505 C17 1.868 . S
C1520 C320 1.884 . S
