# Generated by pormake.
# Topology ctn, (3,4)-cn, num edge types: 1
# Building blocks:
#     Node 0, Type 0, BuildingBlock: MIDCAF_clean_linker_0, # of connection points: 3
#     Node 1, Type 0, BuildingBlock: MIDCAF_clean_linker_0, # of connection points: 3
#     Node 2, Type 0, BuildingBlock: MIDCAF_clean_linker_0, # of connection points: 3
#     Node 3, Type 0, BuildingBlock: MIDCAF_clean_linker_0, # of connection points: 3
#     Node 4, Type 0, BuildingBlock: MIDCAF_clean_linker_0, # of connection points: 3
#     Node 5, Type 0, BuildingBlock: MIDCAF_clean_linker_0, # of connection points: 3
#     Node 6, Type 0, BuildingBlock: MIDCAF_clean_linker_0, # of connection points: 3
#     Node 7, Type 0, BuildingBlock: MIDCAF_clean_linker_0, # of connection points: 3
#     Node 8, Type 0, BuildingBlock: MIDCAF_clean_linker_0, # of connection points: 3
#     Node 9, Type 0, BuildingBlock: MIDCAF_clean_linker_0, # of connection points: 3
#     Node 10, Type 0, BuildingBlock: MIDCAF_clean_linker_0, # of connection points: 3
#     Node 11, Type 0, BuildingBlock: MIDCAF_clean_linker_0, # of connection points: 3
#     Node 12, Type 0, BuildingBlock: MIDCAF_clean_linker_0, # of connection points: 3
#     Node 13, Type 0, BuildingBlock: MIDCAF_clean_linker_0, # of connection points: 3
#     Node 14, Type 0, BuildingBlock: MIDCAF_clean_linker_0, # of connection points: 3
#     Node 15, Type 0, BuildingBlock: MIDCAF_clean_linker_0, # of connection points: 3
#     Node 16, Type 1, BuildingBlock: KUFVIS_clean_sbu_0, # of connection points: 4
#     Node 17, Type 1, BuildingBlock: KUFVIS_clean_sbu_0, # of connection points: 4
#     Node 18, Type 1, BuildingBlock: KUFVIS_clean_sbu_0, # of connection points: 4
#     Node 19, Type 1, BuildingBlock: KUFVIS_clean_sbu_0, # of connection points: 4
#     Node 20, Type 1, BuildingBlock: KUFVIS_clean_sbu_0, # of connection points: 4
#     Node 21, Type 1, BuildingBlock: KUFVIS_clean_sbu_0, # of connection points: 4
#     Node 22, Type 1, BuildingBlock: KUFVIS_clean_sbu_0, # of connection points: 4
#     Node 23, Type 1, BuildingBlock: KUFVIS_clean_sbu_0, # of connection points: 4
#     Node 24, Type 1, BuildingBlock: KUFVIS_clean_sbu_0, # of connection points: 4
#     Node 25, Type 1, BuildingBlock: KUFVIS_clean_sbu_0, # of connection points: 4
#     Node 26, Type 1, BuildingBlock: KUFVIS_clean_sbu_0, # of connection points: 4
#     Node 27, Type 1, BuildingBlock: KUFVIS_clean_sbu_0, # of connection points: 4
#     Edge 28, Type (0, 1), None
#     Edge 29, Type (0, 1), None
#     Edge 30, Type (0, 1), None
#     Edge 31, Type (0, 1), None
#     Edge 32, Type (0, 1), None
#     Edge 33, Type (0, 1), None
#     Edge 34, Type (0, 1), None
#     Edge 35, Type (0, 1), None
#     Edge 36, Type (0, 1), None
#     Edge 37, Type (0, 1), None
#     Edge 38, Type (0, 1), None
#     Edge 39, Type (0, 1), None
#     Edge 40, Type (0, 1), None
#     Edge 41, Type (0, 1), None
#     Edge 42, Type (0, 1), None
#     Edge 43, Type (0, 1), None
#     Edge 44, Type (0, 1), None
#     Edge 45, Type (0, 1), None
#     Edge 46, Type (0, 1), None
#     Edge 47, Type (0, 1), None
#     Edge 48, Type (0, 1), None
#     Edge 49, Type (0, 1), None
#     Edge 50, Type (0, 1), None
#     Edge 51, Type (0, 1), None
#     Edge 52, Type (0, 1), None
#     Edge 53, Type (0, 1), None
#     Edge 54, Type (0, 1), None
#     Edge 55, Type (0, 1), None
#     Edge 56, Type (0, 1), None
#     Edge 57, Type (0, 1), None
#     Edge 58, Type (0, 1), None
#     Edge 59, Type (0, 1), None
#     Edge 60, Type (0, 1), None
#     Edge 61, Type (0, 1), None
#     Edge 62, Type (0, 1), None
#     Edge 63, Type (0, 1), None
#     Edge 64, Type (0, 1), None
#     Edge 65, Type (0, 1), None
#     Edge 66, Type (0, 1), None
#     Edge 67, Type (0, 1), None
#     Edge 68, Type (0, 1), None
#     Edge 69, Type (0, 1), None
#     Edge 70, Type (0, 1), None
#     Edge 71, Type (0, 1), None
#     Edge 72, Type (0, 1), None
#     Edge 73, Type (0, 1), None
#     Edge 74, Type (0, 1), None
#     Edge 75, Type (0, 1), None
# Relax obj value: 0.012
# Max RMSD: 0.062
# Mean RMSD: 0.030
data_MOF--net-ctn--node1-KUFVIS_clean_sbu_0--node2-MIDCAF_clean_linker_0--edge1-none
_symmetry_space_group_name_H-M    P1
_symmetry_Int_Tables_number       1
_symmetry_cell_setting            triclinic
loop_
_symmetry_equiv_pos_as_xyz
'x, y, z'
_cell_length_a     35.511717
_cell_length_b     35.412789
_cell_length_c     35.590164
_cell_angle_alpha  91.187186
_cell_angle_beta   90.353762
_cell_angle_gamma 91.965053
loop_
_atom_site_label
_atom_site_type_symbol
_atom_site_fract_x
_atom_site_fract_y
_atom_site_fract_z
_atom_type_partial_charge
C0 C 0.96648 0.04444 0.16731 0.0
C1 C 0.97111 0.00906 0.1838 0.0
C2 C 0.99893 0.98559 0.16918 0.0
C3 C 0.02098 0.9969 0.13855 0.0
H4 H 0.12398 0.97948 0.08511 0.0
H5 H 0.17527 0.94037 0.06497 0.0
H6 H 0.17648 0.99444 0.95724 0.0
H7 H 0.12512 0.03402 0.97762 0.0
H8 H 0.08387 0.11824 0.97803 0.0
H9 H 0.06329 0.1703 0.9403 0.0
H10 H 0.95988 0.17368 1.00341 0.0
H11 H 0.98065 0.12174 0.04147 0.0
H12 H 0.98335 0.08276 0.12435 0.0
H13 H 0.94534 0.06333 0.1776 0.0
H14 H 1.00335 0.95815 0.18102 0.0
H15 H 0.04172 0.9778 0.12781 0.0
N16 N 0.06769 0.02312 0.0764 0.0
N17 N 0.07645 0.06264 0.02477 0.0
N18 N 0.02703 0.07292 0.0669 0.0
C19 C 0.08742 0.03266 0.0451 0.0
C20 C 0.04628 0.08299 0.0355 0.0
C21 C 0.0375 0.04307 0.08758 0.0
C22 C 0.12006 0.00993 0.033 0.0
C23 C 0.13519 0.98328 0.05716 0.0
C24 C 0.16488 0.96084 0.0456 0.0
C25 C 0.18023 0.96405 0.00937 0.0
C26 C 0.1655 0.99109 0.98534 0.0
C27 C 0.13596 0.01386 0.99707 0.0
C28 C 0.03399 0.11551 0.01287 0.0
C29 C 0.05679 0.13009 0.98404 0.0
C30 C 0.04498 0.16019 0.96242 0.0
C31 C 0.00984 0.17645 0.96871 0.0
C32 C 0.98711 0.16203 0.9977 0.0
C33 C 0.9991 0.13214 0.01959 0.0
C34 C 0.01556 0.03183 0.12144 0.0
C35 C 0.98825 0.05557 0.13652 0.0
C36 C 0.24739 0.5988 0.24565 0.0
C37 C 0.22643 0.58361 0.21517 0.0
C38 C 0.23543 0.59477 0.1786 0.0
C39 C 0.26338 0.6231 0.17302 0.0
H40 H 0.31561 0.71691 0.09743 0.0
H41 H 0.30248 0.76398 0.05014 0.0
H42 H 0.31511 0.85276 0.13465 0.0
H43 H 0.33012 0.80564 0.1817 0.0
H44 H 0.38713 0.77485 0.25842 0.0
H45 H 0.4322 0.78344 0.31043 0.0
H46 H 0.44659 0.66311 0.31281 0.0
H47 H 0.40043 0.65414 0.26143 0.0
H48 H 0.29085 0.63764 0.26441 0.0
H49 H 0.24133 0.58999 0.27403 0.0
H50 H 0.21988 0.58276 0.15469 0.0
H51 H 0.26892 0.63262 0.1448 0.0
N52 N 0.30706 0.69692 0.17232 0.0
N53 N 0.35633 0.73473 0.19938 0.0
N54 N 0.33851 0.67693 0.22611 0.0
C55 C 0.32959 0.72886 0.17208 0.0
C56 C 0.36135 0.70833 0.22606 0.0
C57 C 0.31117 0.67107 0.19966 0.0
C58 C 0.32385 0.75765 0.14317 0.0
C59 C 0.31619 0.74653 0.10573 0.0
C60 C 0.30898 0.77351 0.07864 0.0
C61 C 0.308 0.81208 0.08869 0.0
C62 C 0.31594 0.82327 0.1261 0.0
C63 C 0.32449 0.79634 0.15296 0.0
C64 C 0.39027 0.71389 0.2559 0.0
C65 C 0.39997 0.75025 0.26989 0.0
C66 C 0.42544 0.7551 0.29981 0.0
C67 C 0.44205 0.72377 0.31591 0.0
C68 C 0.4336 0.68752 0.30112 0.0
C69 C 0.40731 0.68253 0.27179 0.0
C70 C 0.28357 0.63922 0.20386 0.0
C71 C 0.27586 0.62598 0.24005 0.0
C72 C 1.00428 0.35415 0.99754 0.0
C73 C 0.98522 0.34975 0.963 0.0
C74 C 0.96487 0.37991 0.94942 0.0
C75 C 0.96197 0.41325 0.97062 0.0
H76 H 0.8839 0.49714 0.98916 0.0
H77 H 0.82886 0.53586 0.9804 0.0
H78 H 0.8697 0.61229 0.06879 0.0
H79 H 0.92425 0.57408 0.07759 0.0
H80 H 0.99752 0.55947 0.12124 0.0
H81 H 0.0405 0.57667 0.17277 0.0
H82 H 0.09092 0.46761 0.1621 0.0
H83 H 0.04812 0.45049 0.11047 0.0
H84 H 0.01598 0.39023 0.04576 0.0
H85 H 0.02018 0.33122 0.00854 0.0
H86 H 0.95099 0.37776 0.92232 0.0
H87 H 0.94552 0.43564 0.95934 0.0
N88 N 0.94601 0.47565 0.02103 0.0
N89 N 0.96472 0.51614 0.07108 0.0
N90 N 0.99821 0.46142 0.05841 0.0
C91 C 0.94075 0.50754 0.04201 0.0
C92 C 0.99349 0.49339 0.07952 0.0
C93 C 0.97471 0.45245 0.02897 0.0
C94 C 0.90851 0.53217 0.03437 0.0
C95 C 0.88131 0.52239 1.00651 0.0
C96 C 0.84976 0.54462 1.00139 0.0
C97 C 0.84476 0.57705 0.02401 0.0
C98 C 0.87252 0.5874 0.05096 0.0
C99 C 0.90392 0.56534 0.05605 0.0
C100 C 0.01934 0.50356 0.11148 0.0
C101 C 0.01766 0.53904 0.12992 0.0
C102 C 0.04237 0.54897 0.15958 0.0
C103 C 0.06923 0.52359 0.17177 0.0
C104 C 0.07057 0.48793 0.15362 0.0
C105 C 0.04605 0.4781 0.12382 0.0
C106 C 0.97981 0.41752 1.00587 0.0
C107 C 1.00172 0.38786 0.01879 0.0
C108 C 0.73457 0.73662 0.10601 0.0
C109 C 0.70143 0.71922 0.09113 0.0
C110 C 0.66641 0.73092 0.10438 0.0
C111 C 0.66467 0.7591 0.13246 0.0
H112 H 0.59377 0.81778 0.22376 0.0
H113 H 0.54675 0.80589 0.2725 0.0
H114 H 0.63376 0.81696 0.35765 0.0
H115 H 0.68055 0.83076 0.30891 0.0
H116 H 0.7554 0.88528 0.27624 0.0
H117 H 0.80692 0.93188 0.28481 0.0
H118 H 0.81684 0.94191 0.16468 0.0
H119 H 0.7655 0.89388 0.15575 0.0
H120 H 0.75889 0.77826 0.14409 0.0
H121 H 0.76196 0.72854 0.09601 0.0
H122 H 0.64043 0.71807 0.09328 0.0
H123 H 0.63736 0.76733 0.14255 0.0
N124 N 0.66862 0.8044 0.20314 0.0
N125 N 0.69815 0.85471 0.23716 0.0
N126 N 0.72483 0.83262 0.18105 0.0
C127 C 0.6694 0.82867 0.23323 0.0
C128 C 0.72554 0.85732 0.21077 0.0
C129 C 0.69653 0.80593 0.17721 0.0
C130 C 0.64064 0.82502 0.26269 0.0
C131 C 0.60261 0.81846 0.25296 0.0
C132 C 0.57575 0.81201 0.28085 0.0
C133 C 0.58671 0.8107 0.31879 0.0
C134 C 0.62463 0.81809 0.32861 0.0
C135 C 0.6513 0.8259 0.30079 0.0
C136 C 0.75656 0.88588 0.21535 0.0
C137 C 0.76846 0.89734 0.25158 0.0
C138 C 0.79803 0.92382 0.25649 0.0
C139 C 0.81605 0.93976 0.22533 0.0
C140 C 0.80354 0.92948 0.18901 0.0
C141 C 0.77438 0.90207 0.18401 0.0
C142 C 0.69788 0.77682 0.14692 0.0
C143 C 0.7328 0.7654 0.13325 0.0
C144 C 0.03657 0.87275 0.59747 0.0
C145 C 0.01079 0.84331 0.58715 0.0
C146 C 0.98926 0.84679 0.55417 0.0
C147 C 0.99467 0.87834 0.53123 0.0
H148 H 0.94699 0.94938 0.44409 0.0
H149 H 0.91107 0.95707 0.38612 0.0
H150 H 0.00749 0.0123 0.33541 0.0
H151 H 0.0436 1.00533 0.39368 0.0
H152 H 0.12235 0.0163 0.44655 0.0
H153 H 0.17594 0.06026 0.45806 0.0
H154 H 0.1523 0.06128 0.57673 0.0
H155 H 0.09914 0.01598 0.5655 0.0
H156 H 0.06275 0.92566 0.58341 0.0
H157 H 0.05346 0.87121 0.62281 0.0
H158 H 0.96915 0.8246 0.54543 0.0
H159 H 0.97849 0.87959 0.50542 0.0
N160 N 0.01033 0.94351 0.48306 0.0
N161 N 0.05191 0.99301 0.46562 0.0
N162 N 0.06169 0.96169 0.52205 0.0
C163 C 0.02059 0.9709 0.45836 0.0
C164 C 0.07239 0.98877 0.49749 0.0
C165 C 0.03093 0.9386 0.51495 0.0
C166 C 0.99827 0.97655 0.42355 0.0
C167 C 0.96056 0.96339 0.42076 0.0
C168 C 0.93992 0.96793 0.38763 0.0
C169 C 0.95657 0.98538 0.35649 0.0
C170 C 0.99391 0.99931 0.35931 0.0
C171 C 0.01453 0.99512 0.39262 0.0
C172 C 0.10618 0.01334 0.50505 0.0
C173 C 0.1286 0.0258 0.47511 0.0
C174 C 0.15905 0.0511 0.48164 0.0
C175 C 0.16692 0.06539 0.51801 0.0
C176 C 0.14604 0.05132 0.54832 0.0
C177 C 0.11579 0.02545 0.54188 0.0
C178 C 0.02174 0.90703 0.54082 0.0
C179 C 0.04195 0.90411 0.57471 0.0
C180 C 0.25171 0.78895 0.93047 0.0
C181 C 0.22063 0.80678 0.94613 0.0
C182 C 0.18411 0.79427 0.93576 0.0
C183 C 0.17891 0.76565 0.90818 0.0
H184 H 0.13569 0.75633 0.78847 0.0
H185 H 0.08546 0.76129 0.74195 0.0
H186 H 0.0836 0.64026 0.7243 0.0
H187 H 0.13532 0.63547 0.76961 0.0
H188 H 0.21773 0.59055 0.81338 0.0
H189 H 0.26653 0.54459 0.80153 0.0
H190 H 0.35258 0.63253 0.81793 0.0
H191 H 0.30374 0.67817 0.83168 0.0
H192 H 0.2712 0.74733 0.89163 0.0
H193 H 0.28016 0.79791 0.93855 0.0
H194 H 0.15983 0.80748 0.9479 0.0
H195 H 0.15052 0.7571 0.89962 0.0
N196 N 0.17522 0.71945 0.83807 0.0
N197 N 0.19701 0.66599 0.80583 0.0
N198 N 0.23181 0.69282 0.85659 0.0
C199 C 0.17096 0.69308 0.80993 0.0
C200 C 0.22762 0.6659 0.82903 0.0
C201 C 0.20534 0.71923 0.86172 0.0
C202 C 0.13957 0.69552 0.78261 0.0
C203 C 0.1248 0.7308 0.77448 0.0
C204 C 0.09618 0.7337 0.74769 0.0
C205 C 0.08083 0.70122 0.72932 0.0
C206 C 0.09505 0.6658 0.73791 0.0
C207 C 0.1246 0.66305 0.76384 0.0
C208 C 0.25702 0.63783 0.82334 0.0
C209 C 0.24709 0.59987 0.81498 0.0
C210 C 0.27501 0.57358 0.80855 0.0
C211 C 0.31332 0.58503 0.80908 0.0
C212 C 0.32327 0.62296 0.81762 0.0
C213 C 0.29538 0.64899 0.8254 0.0
C214 C 0.21019 0.74845 0.89176 0.0
C215 C 0.24657 0.75992 0.90376 0.0
C216 C 0.04046 0.64643 0.56326 0.0
C217 C 0.00921 0.66449 0.57834 0.0
C218 C 0.97302 0.65375 0.56513 0.0
C219 C 0.96779 0.62358 0.53953 0.0
H220 H 0.91166 0.50746 0.53545 0.0
H221 H 0.85332 0.46903 0.53906 0.0
H222 H 0.86001 0.44518 0.41982 0.0
H223 H 0.9189 0.48185 0.41683 0.0
H224 H 0.02319 0.48087 0.39342 0.0
H225 H 0.06357 0.4806 0.33734 0.0
H226 H 0.09274 0.59857 0.35848 0.0
H227 H 0.05413 0.59853 0.41405 0.0
H228 H 0.05979 0.6028 0.52596 0.0
H229 H 0.06873 0.65489 0.57236 0.0
H230 H 0.94862 0.66855 0.5749 0.0
H231 H 0.93941 0.61548 0.53048 0.0
N232 N 0.962 0.54958 0.50004 0.0
N233 N 0.97941 0.51797 0.44439 0.0
N234 N 0.01695 0.56882 0.46859 0.0
C235 C 0.95513 0.52179 0.4737 0.0
C236 C 0.01047 0.54142 0.44172 0.0
C237 C 0.99291 0.57305 0.49775 0.0
C238 C 0.92027 0.49747 0.47601 0.0
C239 C 0.90095 0.49349 0.51023 0.0
C240 C 0.86747 0.4715 0.5123 0.0
C241 C 0.85192 0.45393 0.47983 0.0
C242 C 0.87113 0.45817 0.44553 0.0
C243 C 0.90509 0.47918 0.44375 0.0
C244 C 0.03547 0.53971 0.40834 0.0
C245 C 0.03858 0.50657 0.38608 0.0
C246 C 0.06178 0.50635 0.35409 0.0
C247 C 0.08141 0.53954 0.34329 0.0
C248 C 0.07815 0.57242 0.36575 0.0
C249 C 0.05595 0.5724 0.39789 0.0
C250 C 0.99885 0.60458 0.5253 0.0
C251 C 0.03533 0.61672 0.53684 0.0
C252 C 0.92058 0.74715 0.76499 0.0
C253 C 0.93137 0.76725 0.73297 0.0
C254 C 0.91678 0.80314 0.72751 0.0
C255 C 0.89058 0.8178 0.75283 0.0
H256 H 0.76464 0.85775 0.75679 0.0
H257 H 0.71799 0.90388 0.73963 0.0
H258 H 0.73067 0.95791 0.84902 0.0
H259 H 0.77598 0.9103 0.86691 0.0
H260 H 0.75157 0.80866 0.90976 0.0
H261 H 0.72634 0.76315 0.95371 0.0
H262 H 0.82308 0.69426 0.93713 0.0
H263 H 0.84859 0.73987 0.89238 0.0
H264 H 0.88701 0.74504 0.81431 0.0
H265 H 0.93157 0.71957 0.77024 0.0
H266 H 0.92453 0.81924 0.70302 0.0
H267 H 0.87902 0.84508 0.7474 0.0
N268 N 0.82782 0.84019 0.8009 0.0
N269 N 0.79262 0.83193 0.85598 0.0
N270 N 0.84169 0.79159 0.84211 0.0
C271 C 0.79968 0.85116 0.82407 0.0
C272 C 0.8134 0.80195 0.86517 0.0
C273 C 0.8494 0.81067 0.81013 0.0
C274 C 0.77404 0.88086 0.81297 0.0
C275 C 0.75746 0.87953 0.77708 0.0
C276 C 0.73047 0.90556 0.7675 0.0
C277 C 0.72054 0.93411 0.79321 0.0
C278 C 0.73772 0.93596 0.82886 0.0
C279 C 0.76369 0.909 0.83896 0.0
C280 C 0.80184 0.7777 0.8969 0.0
C281 C 0.76794 0.78421 0.91573 0.0
C282 C 0.75334 0.758 0.94091 0.0
C283 C 0.77245 0.72485 0.94833 0.0
C284 C 0.80772 0.71954 0.93181 0.0
C285 C 0.82221 0.74565 0.90611 0.0
C286 C 0.87899 0.79704 0.78432 0.0
C287 C 0.89498 0.76189 0.7904 0.0
C288 C 0.42058 0.24715 0.26499 0.0
C289 C 0.43137 0.26725 0.23297 0.0
C290 C 0.41678 0.30314 0.22751 0.0
C291 C 0.39058 0.3178 0.25283 0.0
H292 H 0.26464 0.35775 0.25679 0.0
H293 H 0.21799 0.40388 0.23963 0.0
H294 H 0.23067 0.45791 0.34902 0.0
H295 H 0.27598 0.4103 0.36691 0.0
H296 H 0.25157 0.30866 0.40976 0.0
H297 H 0.22634 0.26315 0.45371 0.0
H298 H 0.32308 0.19426 0.43713 0.0
H299 H 0.34859 0.23987 0.39238 0.0
H300 H 0.38701 0.24504 0.31431 0.0
H301 H 0.43157 0.21957 0.27025 0.0
H302 H 0.42453 0.31924 0.20302 0.0
H303 H 0.37902 0.34508 0.2474 0.0
N304 N 0.32782 0.34019 0.3009 0.0
N305 N 0.29262 0.33193 0.35598 0.0
N306 N 0.34169 0.29159 0.34211 0.0
C307 C 0.29968 0.35116 0.32407 0.0
C308 C 0.3134 0.30195 0.36517 0.0
C309 C 0.3494 0.31067 0.31013 0.0
C310 C 0.27404 0.38086 0.31297 0.0
C311 C 0.25746 0.37953 0.27708 0.0
C312 C 0.23047 0.40556 0.2675 0.0
C313 C 0.22054 0.43411 0.29321 0.0
C314 C 0.23772 0.43596 0.32886 0.0
C315 C 0.26369 0.409 0.33896 0.0
C316 C 0.30184 0.2777 0.3969 0.0
C317 C 0.26794 0.28421 0.41573 0.0
C318 C 0.25334 0.258 0.44091 0.0
C319 C 0.27245 0.22485 0.44833 0.0
C320 C 0.30772 0.21954 0.43181 0.0
C321 C 0.32221 0.24565 0.40611 0.0
C322 C 0.37899 0.29704 0.28432 0.0
C323 C 0.39498 0.26189 0.2904 0.0
C324 C 0.50428 0.85415 0.49754 0.0
C325 C 0.48522 0.84975 0.463 0.0
C326 C 0.46487 0.87991 0.44942 0.0
C327 C 0.46197 0.91325 0.47062 0.0
H328 H 0.3839 0.99714 0.48916 0.0
H329 H 0.32886 0.03586 0.4804 0.0
H330 H 0.3697 0.11229 0.56879 0.0
H331 H 0.42425 0.07408 0.57759 0.0
H332 H 0.49752 0.05947 0.62124 0.0
H333 H 0.5405 0.07667 0.67277 0.0
H334 H 0.59092 0.96761 0.6621 0.0
H335 H 0.54812 0.95049 0.61047 0.0
H336 H 0.51598 0.89023 0.54576 0.0
H337 H 0.52018 0.83122 0.50854 0.0
H338 H 0.45099 0.87776 0.42232 0.0
H339 H 0.44552 0.93564 0.45934 0.0
N340 N 0.44601 0.97565 0.52103 0.0
N341 N 0.46472 0.01614 0.57108 0.0
N342 N 0.49821 0.96142 0.55841 0.0
C343 C 0.44075 0.00754 0.54201 0.0
C344 C 0.49349 0.99339 0.57952 0.0
C345 C 0.47471 0.95245 0.52897 0.0
C346 C 0.40851 0.03217 0.53437 0.0
C347 C 0.38131 0.02239 0.50651 0.0
C348 C 0.34976 0.04462 0.50139 0.0
C349 C 0.34476 0.07705 0.52401 0.0
C350 C 0.37252 0.0874 0.55096 0.0
C351 C 0.40392 0.06534 0.55605 0.0
C352 C 0.51934 1.00356 0.61148 0.0
C353 C 0.51766 0.03904 0.62992 0.0
C354 C 0.54237 0.04897 0.65958 0.0
C355 C 0.56923 0.02359 0.67177 0.0
C356 C 0.57057 0.98793 0.65362 0.0
C357 C 0.54605 0.9781 0.62382 0.0
C358 C 0.47981 0.91752 0.50587 0.0
C359 C 0.50172 0.88786 0.51879 0.0
C360 C 0.23457 0.23662 0.60601 0.0
C361 C 0.20143 0.21922 0.59113 0.0
C362 C 0.16641 0.23092 0.60438 0.0
C363 C 0.16467 0.2591 0.63246 0.0
H364 H 0.09377 0.31778 0.72376 0.0
H365 H 0.04675 0.30589 0.7725 0.0
H366 H 0.13376 0.31696 0.85765 0.0
H367 H 0.18055 0.33076 0.80891 0.0
H368 H 0.2554 0.38528 0.77624 0.0
H369 H 0.30692 0.43188 0.78481 0.0
H370 H 0.31684 0.44191 0.66468 0.0
H371 H 0.2655 0.39388 0.65575 0.0
H372 H 0.25889 0.27826 0.64409 0.0
H373 H 0.26196 0.22854 0.59601 0.0
H374 H 0.14043 0.21807 0.59328 0.0
H375 H 0.13736 0.26733 0.64255 0.0
N376 N 0.16862 0.3044 0.70314 0.0
N377 N 0.19815 0.35471 0.73716 0.0
N378 N 0.22483 0.33262 0.68105 0.0
C379 C 0.1694 0.32867 0.73323 0.0
C380 C 0.22554 0.35732 0.71077 0.0
C381 C 0.19653 0.30593 0.67721 0.0
C382 C 0.14063 0.32502 0.76269 0.0
C383 C 0.10261 0.31846 0.75296 0.0
C384 C 0.07575 0.31201 0.78085 0.0
C385 C 0.08671 0.3107 0.81879 0.0
C386 C 0.12463 0.31809 0.82861 0.0
C387 C 0.1513 0.3259 0.80079 0.0
C388 C 0.25656 0.38588 0.71535 0.0
C389 C 0.26846 0.39734 0.75158 0.0
C390 C 0.29803 0.42382 0.75649 0.0
C391 C 0.31605 0.43976 0.72533 0.0
C392 C 0.30354 0.42948 0.68901 0.0
C393 C 0.27438 0.40207 0.68401 0.0
C394 C 0.19788 0.27682 0.64692 0.0
C395 C 0.2328 0.2654 0.63325 0.0
C396 C 0.74739 0.0988 0.74565 0.0
C397 C 0.72643 0.08361 0.71517 0.0
C398 C 0.73543 0.09477 0.6786 0.0
C399 C 0.76338 0.1231 0.67302 0.0
H400 H 0.81561 0.21691 0.59743 0.0
H401 H 0.80248 0.26398 0.55014 0.0
H402 H 0.81511 0.35276 0.63465 0.0
H403 H 0.83012 0.30564 0.6817 0.0
H404 H 0.88713 0.27485 0.75842 0.0
H405 H 0.9322 0.28344 0.81043 0.0
H406 H 0.94659 0.16311 0.81281 0.0
H407 H 0.90043 0.15414 0.76143 0.0
H408 H 0.79085 0.13764 0.76441 0.0
H409 H 0.74133 0.08999 0.77403 0.0
H410 H 0.71988 0.08276 0.65469 0.0
H411 H 0.76892 0.13262 0.6448 0.0
N412 N 0.80706 0.19692 0.67232 0.0
N413 N 0.85633 0.23473 0.69938 0.0
N414 N 0.83851 0.17693 0.72611 0.0
C415 C 0.82959 0.22886 0.67208 0.0
C416 C 0.86135 0.20833 0.72606 0.0
C417 C 0.81117 0.17107 0.69966 0.0
C418 C 0.82385 0.25765 0.64317 0.0
C419 C 0.81619 0.24653 0.60573 0.0
C420 C 0.80898 0.27351 0.57864 0.0
C421 C 0.808 0.31208 0.58869 0.0
C422 C 0.81594 0.32327 0.6261 0.0
C423 C 0.82449 0.29634 0.65296 0.0
C424 C 0.89027 0.21389 0.7559 0.0
C425 C 0.89997 0.25025 0.76989 0.0
C426 C 0.92544 0.2551 0.79981 0.0
C427 C 0.94205 0.22377 0.81591 0.0
C428 C 0.9336 0.18752 0.80112 0.0
C429 C 0.90731 0.18253 0.77179 0.0
C430 C 0.78357 0.13922 0.70386 0.0
C431 C 0.77586 0.12598 0.74005 0.0
C432 C 0.46648 0.54444 0.66731 0.0
C433 C 0.47111 0.50906 0.6838 0.0
C434 C 0.49893 0.48559 0.66918 0.0
C435 C 0.52098 0.4969 0.63855 0.0
H436 H 0.62398 0.47948 0.58511 0.0
H437 H 0.67527 0.44037 0.56497 0.0
H438 H 0.67648 0.49444 0.45724 0.0
H439 H 0.62512 0.53402 0.47762 0.0
H440 H 0.58387 0.61824 0.47803 0.0
H441 H 0.56329 0.6703 0.4403 0.0
H442 H 0.45988 0.67368 0.50341 0.0
H443 H 0.48065 0.62174 0.54147 0.0
H444 H 0.48335 0.58276 0.62435 0.0
H445 H 0.44534 0.56333 0.6776 0.0
H446 H 0.50335 0.45815 0.68102 0.0
H447 H 0.54172 0.4778 0.62781 0.0
N448 N 0.56769 0.52312 0.5764 0.0
N449 N 0.57645 0.56264 0.52477 0.0
N450 N 0.52703 0.57292 0.5669 0.0
C451 C 0.58741 0.53266 0.5451 0.0
C452 C 0.54628 0.58299 0.5355 0.0
C453 C 0.5375 0.54307 0.58758 0.0
C454 C 0.62006 0.50993 0.533 0.0
C455 C 0.63519 0.48328 0.55716 0.0
C456 C 0.66488 0.46084 0.5456 0.0
C457 C 0.68023 0.46405 0.50937 0.0
C458 C 0.6655 0.49109 0.48534 0.0
C459 C 0.63596 0.51386 0.49707 0.0
C460 C 0.53399 0.61551 0.51287 0.0
C461 C 0.55679 0.63009 0.48404 0.0
C462 C 0.54498 0.66019 0.46242 0.0
C463 C 0.50984 0.67645 0.46871 0.0
C464 C 0.48711 0.66203 0.4977 0.0
C465 C 0.4991 0.63214 0.51959 0.0
C466 C 0.51556 0.53183 0.62144 0.0
C467 C 0.48825 0.55557 0.63652 0.0
C468 C 0.53657 0.37275 0.09747 0.0
C469 C 0.51079 0.34331 0.08715 0.0
C470 C 0.48926 0.34679 0.05417 0.0
C471 C 0.49467 0.37834 0.03123 0.0
H472 H 0.44699 0.44938 0.94409 0.0
H473 H 0.41107 0.45707 0.88612 0.0
H474 H 0.50749 0.5123 0.83541 0.0
H475 H 0.5436 0.50533 0.89368 0.0
H476 H 0.62235 0.5163 0.94655 0.0
H477 H 0.67594 0.56026 0.95806 0.0
H478 H 0.6523 0.56128 0.07673 0.0
H479 H 0.59914 0.51598 0.0655 0.0
H480 H 0.56276 0.42566 0.08341 0.0
H481 H 0.55346 0.37121 0.12281 0.0
H482 H 0.46915 0.3246 0.04543 0.0
H483 H 0.47849 0.37959 1.00542 0.0
N484 N 0.51033 0.44351 0.98306 0.0
N485 N 0.55191 0.49301 0.96562 0.0
N486 N 0.56169 0.46169 0.02205 0.0
C487 C 0.52059 0.4709 0.95836 0.0
C488 C 0.57239 0.48877 0.99749 0.0
C489 C 0.53093 0.4386 0.01495 0.0
C490 C 0.49827 0.47655 0.92355 0.0
C491 C 0.46056 0.46339 0.92076 0.0
C492 C 0.43992 0.46793 0.88763 0.0
C493 C 0.45657 0.48538 0.85649 0.0
C494 C 0.49391 0.49931 0.85931 0.0
C495 C 0.51453 0.49512 0.89262 0.0
C496 C 0.60618 0.51334 1.00505 0.0
C497 C 0.6286 0.5258 0.97511 0.0
C498 C 0.65905 0.5511 0.98164 0.0
C499 C 0.66692 0.56539 0.01801 0.0
C500 C 0.64604 0.55132 0.04832 0.0
C501 C 0.61579 0.52545 0.04188 0.0
C502 C 0.52174 0.40703 0.04082 0.0
C503 C 0.54195 0.40411 0.07471 0.0
C504 C 0.75171 0.28895 0.43047 0.0
C505 C 0.72063 0.30678 0.44613 0.0
C506 C 0.68411 0.29427 0.43576 0.0
C507 C 0.67891 0.26565 0.40818 0.0
H508 H 0.63569 0.25633 0.28847 0.0
H509 H 0.58546 0.26129 0.24195 0.0
H510 H 0.5836 0.14026 0.2243 0.0
H511 H 0.63532 0.13547 0.26961 0.0
H512 H 0.71773 0.09055 0.31338 0.0
H513 H 0.76653 0.04459 0.30153 0.0
H514 H 0.85258 0.13253 0.31793 0.0
H515 H 0.80374 0.17817 0.33168 0.0
H516 H 0.7712 0.24733 0.39163 0.0
H517 H 0.78016 0.29791 0.43855 0.0
H518 H 0.65983 0.30748 0.4479 0.0
H519 H 0.65052 0.2571 0.39962 0.0
N520 N 0.67522 0.21945 0.33807 0.0
N521 N 0.69701 0.16599 0.30583 0.0
N522 N 0.73181 0.19282 0.35659 0.0
C523 C 0.67096 0.19308 0.30993 0.0
C524 C 0.72762 0.1659 0.32903 0.0
C525 C 0.70533 0.21923 0.36172 0.0
C526 C 0.63957 0.19552 0.28261 0.0
C527 C 0.6248 0.2308 0.27448 0.0
C528 C 0.59618 0.2337 0.24769 0.0
C529 C 0.58083 0.20122 0.22932 0.0
C530 C 0.59505 0.1658 0.23791 0.0
C531 C 0.6246 0.16305 0.26384 0.0
C532 C 0.75702 0.13783 0.32334 0.0
C533 C 0.74709 0.09987 0.31498 0.0
C534 C 0.77501 0.07358 0.30855 0.0
C535 C 0.81332 0.08503 0.30908 0.0
C536 C 0.82327 0.12296 0.31762 0.0
C537 C 0.79538 0.14899 0.3254 0.0
C538 C 0.71019 0.24845 0.39176 0.0
C539 C 0.74657 0.25992 0.40376 0.0
C540 C 0.54046 0.14643 0.06326 0.0
C541 C 0.50921 0.16449 0.07834 0.0
C542 C 0.47302 0.15375 0.06513 0.0
C543 C 0.46779 0.12358 0.03953 0.0
H544 H 0.41166 0.00746 0.03545 0.0
H545 H 0.35332 0.96903 0.03906 0.0
H546 H 0.36001 0.94518 0.91982 0.0
H547 H 0.4189 0.98185 0.91683 0.0
H548 H 0.52319 0.98087 0.89342 0.0
H549 H 0.56357 0.9806 0.83734 0.0
H550 H 0.59274 0.09857 0.85848 0.0
H551 H 0.55413 0.09853 0.91405 0.0
H552 H 0.55979 0.1028 0.02596 0.0
H553 H 0.56873 0.15489 0.07236 0.0
H554 H 0.44862 0.16855 0.0749 0.0
H555 H 0.43941 0.11548 0.03048 0.0
N556 N 0.462 0.04958 1.00004 0.0
N557 N 0.47941 0.01797 0.94439 0.0
N558 N 0.51695 0.06882 0.96859 0.0
C559 C 0.45513 0.02179 0.9737 0.0
C560 C 0.51047 0.04142 0.94172 0.0
C561 C 0.49291 0.07305 0.99775 0.0
C562 C 0.42027 0.99747 0.97601 0.0
C563 C 0.40095 0.99349 0.01023 0.0
C564 C 0.36747 0.9715 0.0123 0.0
C565 C 0.35192 0.95393 0.97983 0.0
C566 C 0.37113 0.95817 0.94553 0.0
C567 C 0.40509 0.97918 0.94375 0.0
C568 C 0.53547 0.03971 0.90834 0.0
C569 C 0.53858 0.00657 0.88608 0.0
C570 C 0.56178 0.00635 0.85409 0.0
C571 C 0.58141 0.03954 0.84329 0.0
C572 C 0.57815 0.07242 0.86575 0.0
C573 C 0.55595 0.0724 0.89789 0.0
C574 C 0.49885 0.10458 0.0253 0.0
C575 C 0.53533 0.11672 0.03684 0.0
Mn576 Mn 0.26289 0.87462 0.0166 0.0
Mn577 Mn 0.25006 0.90516 0.92839 0.0
C578 C 0.22779 0.83849 0.97275 0.0
C579 C 0.29478 0.83944 0.061 0.0
C580 C 0.20994 0.93798 0.99638 0.0
O581 O 0.30585 0.91463 0.01085 0.0
O582 O 0.297 0.92899 0.94983 0.0
C583 C 0.31547 0.86916 0.89297 0.0
N584 N 0.27771 0.8746 0.89405 0.0
C585 C 0.26679 0.8322 0.84107 0.0
C586 C 0.30565 0.82688 0.83886 0.0
C587 C 0.33007 0.84525 0.86509 0.0
C588 C 0.25389 0.85642 0.86944 0.0
H589 H 0.33426 0.88254 0.91351 0.0
C590 C 0.31579 0.93155 0.98072 0.0
O591 O 0.27403 0.86731 0.07108 0.0
O592 O 0.29913 0.83373 0.02519 0.0
N593 N 0.20595 0.88304 0.90435 0.0
C594 C 0.16903 0.88875 0.91216 0.0
C595 C 0.14085 0.87115 0.8894 0.0
C596 C 0.15088 0.84802 0.85879 0.0
C597 C 0.18905 0.84265 0.85124 0.0
C598 C 0.2159 0.86112 0.87472 0.0
H599 H 0.16111 0.90658 0.93556 0.0
O600 O 0.22227 0.8339 0.0084 0.0
O601 O 0.2523 0.86472 0.96445 0.0
O602 O 0.22363 0.91561 0.02013 0.0
O603 O 0.21919 0.93762 0.96167 0.0
C604 C 0.20147 0.81913 0.82176 0.0
C605 C 0.24029 0.81369 0.81682 0.0
H606 H 0.31699 0.80826 0.81754 0.0
H607 H 0.36004 0.84079 0.86396 0.0
H608 H 0.11145 0.87538 0.89547 0.0
H609 H 0.12906 0.83425 0.84148 0.0
H610 H 0.18141 0.80465 0.80304 0.0
H611 H 0.24942 0.79485 0.79457 0.0
Mn612 Mn 0.16008 0.51 0.25356 0.0
Mn613 Mn 0.13103 0.59946 0.24964 0.0
C614 C 0.19582 0.55599 0.22285 0.0
C615 C 0.19432 0.4631 0.28147 0.0
C616 C 0.09658 0.53449 0.20226 0.0
O617 O 0.12037 0.51204 0.29559 0.0
O618 O 0.10796 0.57414 0.29358 0.0
C619 C 0.1691 0.62981 0.31874 0.0
N620 N 0.16277 0.63163 0.28105 0.0
C621 C 0.2057 0.68541 0.27625 0.0
C622 C 0.21199 0.68461 0.31515 0.0
C623 C 0.1938 0.65653 0.33643 0.0
C624 C 0.18072 0.65808 0.26019 0.0
H625 H 0.15571 0.60791 0.3351 0.0
C626 C 0.10432 0.54152 0.30844 0.0
O627 O 0.16675 0.45481 0.25832 0.0
O628 O 0.20049 0.4985 0.29037 0.0
N629 N 0.15205 0.62719 0.20865 0.0
C630 C 0.14463 0.62276 0.17117 0.0
C631 C 0.1615 0.64795 0.14581 0.0
C632 C 0.18564 0.67753 0.15922 0.0
C633 C 0.19264 0.6817 0.19792 0.0
C634 C 0.17476 0.65595 0.22189 0.0
H635 H 0.12601 0.60018 0.16065 0.0
O636 O 0.19996 0.52053 0.21475 0.0
O637 O 0.17098 0.56311 0.24828 0.0
O638 O 0.11899 0.50964 0.21332 0.0
O639 O 0.09749 0.5685 0.21522 0.0
C640 C 0.21717 0.71001 0.21357 0.0
C641 C 0.22383 0.71175 0.25268 0.0
H642 H 0.23109 0.70509 0.3289 0.0
H643 H 0.19894 0.65538 0.36638 0.0
H644 H 0.15597 0.64452 0.11598 0.0
H645 H 0.19888 0.69668 0.13954 0.0
H646 H 0.23153 0.73021 0.19571 0.0
H647 H 0.24322 0.73325 0.26425 0.0
Mn648 Mn 0.75311 0.63061 0.02315 0.0
Mn649 Mn 0.67271 0.66313 0.98585 0.0
C650 C 0.69764 0.59403 0.0238 0.0
C651 C 0.80991 0.59891 0.02174 0.0
C652 C 0.70389 0.69052 0.06057 0.0
O653 O 0.77312 0.6724 0.98929 0.0
O654 O 0.71741 0.69282 0.96827 0.0
C655 C 0.68664 0.64124 0.90653 0.0
N656 N 0.66425 0.63998 0.93744 0.0
C657 C 0.61586 0.604 0.90356 0.0
C658 C 0.63832 0.60506 0.8713 0.0
C659 C 0.67393 0.62363 0.87285 0.0
C660 C 0.63006 0.62197 0.93633 0.0
H661 H 0.71393 0.65565 0.90757 0.0
C662 C 0.75347 0.69493 0.97031 0.0
O663 O 0.80341 0.62516 0.0465 0.0
O664 O 0.78369 0.59159 0.99671 0.0
N665 N 0.62705 0.63717 1.00012 0.0
C666 C 0.60989 0.63688 0.03425 0.0
C667 C 0.57454 0.61834 0.03787 0.0
C668 C 0.55697 0.60081 1.00628 0.0
C669 C 0.57498 0.60191 0.97135 0.0
C670 C 0.61021 0.62075 0.96948 0.0
H671 H 0.6232 0.65052 0.05855 0.0
O672 O 0.7239 0.58908 0.04859 0.0
O673 O 0.7041 0.6207 0.9999 0.0
O674 O 0.73312 0.67074 0.05926 0.0
O675 O 0.67809 0.6887 0.0355 0.0
C676 C 0.55967 0.5845 0.93845 0.0
C677 C 0.58014 0.58546 0.9046 0.0
H678 H 0.62862 0.59151 0.84527 0.0
H679 H 0.69147 0.62447 0.84811 0.0
H680 H 0.56083 0.6176 0.06493 0.0
H681 H 0.52981 0.58635 0.00922 0.0
H682 H 0.5324 0.56985 0.939 0.0
H683 H 0.5683 0.5716 0.8796 0.0
Mn684 Mn 0.87989 0.01459 0.26646 0.0
Mn685 Mn 0.91438 0.92741 0.25568 0.0
C686 C 0.84685 0.9678 0.23215 0.0
C687 C 0.84201 0.05822 0.29681 0.0
C688 C 0.94539 0.99595 0.21425 0.0
O689 O 0.91816 0.01243 0.3098 0.0
O690 O 0.93624 0.95195 0.30217 0.0
C691 C 0.8804 0.8904 0.3219 0.0
N692 N 0.88475 0.89203 0.28398 0.0
C693 C 0.84286 0.83778 0.27408 0.0
C694 C 0.838 0.83555 0.31304 0.0
C695 C 0.85687 0.86199 0.33704 0.0
C696 C 0.86683 0.86662 0.26063 0.0
H697 H 0.89472 0.91064 0.34043 0.0
C698 C 0.93653 0.9838 0.32007 0.0
O699 O 0.87023 0.06911 0.27621 0.0
O700 O 0.8374 0.0222 0.3019 0.0
N701 N 0.89398 0.901 0.21217 0.0
C702 C 0.90003 0.9082 0.17517 0.0
C703 C 0.88266 0.88463 0.14747 0.0
C704 C 0.85926 0.85393 0.15803 0.0
C705 C 0.8535 0.84702 0.19625 0.0
C706 C 0.87188 0.87124 0.22262 0.0
H707 H 0.91784 0.93181 0.1668 0.0
O708 O 0.84138 1.00314 0.2257 0.0
O709 O 0.87234 0.96142 0.25714 0.0
O710 O 0.922 0.01911 0.22764 0.0
O711 O 0.94606 0.96144 0.22409 0.0
C712 C 0.82963 0.81754 0.20917 0.0
C713 C 0.82425 0.81296 0.24806 0.0
H714 H 0.81967 0.81383 0.32481 0.0
H715 H 0.8532 0.86053 0.36715 0.0
H716 H 0.88715 0.89022 0.11803 0.0
H717 H 0.84559 0.83606 0.13658 0.0
H718 H 0.81488 0.79852 0.18943 0.0
H719 H 0.80542 0.7905 0.25764 0.0
Mn720 Mn 0.25311 0.13061 0.52315 0.0
Mn721 Mn 0.17271 0.16313 0.48585 0.0
C722 C 0.19764 0.09403 0.5238 0.0
C723 C 0.30991 0.09891 0.52174 0.0
C724 C 0.20389 0.19052 0.56057 0.0
O725 O 0.27312 0.1724 0.48929 0.0
O726 O 0.21741 0.19282 0.46827 0.0
C727 C 0.18664 0.14124 0.40653 0.0
N728 N 0.16425 0.13998 0.43744 0.0
C729 C 0.11586 0.104 0.40356 0.0
C730 C 0.13832 0.10506 0.3713 0.0
C731 C 0.17393 0.12363 0.37285 0.0
C732 C 0.13006 0.12197 0.43633 0.0
H733 H 0.21393 0.15565 0.40757 0.0
C734 C 0.25347 0.19493 0.47031 0.0
O735 O 0.30341 0.12516 0.5465 0.0
O736 O 0.28369 0.09159 0.49671 0.0
N737 N 0.12705 0.13717 0.50012 0.0
C738 C 0.10989 0.13688 0.53425 0.0
C739 C 0.07454 0.11834 0.53787 0.0
C740 C 0.05697 0.10081 0.50628 0.0
C741 C 0.07498 0.10191 0.47135 0.0
C742 C 0.11021 0.12075 0.46948 0.0
H743 H 0.1232 0.15052 0.55855 0.0
O744 O 0.2239 0.08908 0.54859 0.0
O745 O 0.2041 0.1207 0.4999 0.0
O746 O 0.23312 0.17074 0.55926 0.0
O747 O 0.17809 0.1887 0.5355 0.0
C748 C 0.05967 0.08449 0.43845 0.0
C749 C 0.08014 0.08546 0.4046 0.0
H750 H 0.12862 0.09151 0.34527 0.0
H751 H 0.19147 0.12447 0.34811 0.0
H752 H 0.06083 0.1176 0.56493 0.0
H753 H 0.02981 0.08635 0.50922 0.0
H754 H 0.0324 0.06985 0.439 0.0
H755 H 0.0683 0.0716 0.3796 0.0
Mn756 Mn 0.37989 0.51459 0.76646 0.0
Mn757 Mn 0.41438 0.42741 0.75568 0.0
C758 C 0.34685 0.4678 0.73215 0.0
C759 C 0.34201 0.55822 0.79681 0.0
C760 C 0.44539 0.49595 0.71425 0.0
O761 O 0.41816 0.51243 0.8098 0.0
O762 O 0.43624 0.45195 0.80217 0.0
C763 C 0.3804 0.3904 0.8219 0.0
N764 N 0.38475 0.39203 0.78398 0.0
C765 C 0.34285 0.33778 0.77408 0.0
C766 C 0.338 0.33555 0.81304 0.0
C767 C 0.35687 0.36199 0.83704 0.0
C768 C 0.36683 0.36662 0.76063 0.0
H769 H 0.39472 0.41064 0.84043 0.0
C770 C 0.43653 0.4838 0.82007 0.0
O771 O 0.37023 0.56911 0.77621 0.0
O772 O 0.3374 0.5222 0.8019 0.0
N773 N 0.39398 0.401 0.71217 0.0
C774 C 0.40003 0.4082 0.67517 0.0
C775 C 0.38266 0.38463 0.64747 0.0
C776 C 0.35926 0.35393 0.65803 0.0
C777 C 0.3535 0.34702 0.69625 0.0
C778 C 0.37188 0.37124 0.72262 0.0
H779 H 0.41784 0.43181 0.6668 0.0
O780 O 0.34138 0.50314 0.7257 0.0
O781 O 0.37234 0.46142 0.75714 0.0
O782 O 0.422 0.51911 0.72764 0.0
O783 O 0.44606 0.46144 0.72409 0.0
C784 C 0.32963 0.31754 0.70917 0.0
C785 C 0.32425 0.31296 0.74806 0.0
H786 H 0.31967 0.31383 0.82481 0.0
H787 H 0.3532 0.36053 0.86715 0.0
H788 H 0.38715 0.39022 0.61803 0.0
H789 H 0.34559 0.33606 0.63658 0.0
H790 H 0.31488 0.29852 0.68943 0.0
H791 H 0.30542 0.2905 0.75764 0.0
Mn792 Mn 0.76289 0.37462 0.5166 0.0
Mn793 Mn 0.75006 0.40516 0.42839 0.0
C794 C 0.72779 0.33849 0.47275 0.0
C795 C 0.79478 0.33944 0.561 0.0
C796 C 0.70994 0.43798 0.49638 0.0
O797 O 0.80585 0.41463 0.51085 0.0
O798 O 0.797 0.42899 0.44983 0.0
C799 C 0.81547 0.36916 0.39297 0.0
N800 N 0.77771 0.3746 0.39405 0.0
C801 C 0.76679 0.3322 0.34107 0.0
C802 C 0.80565 0.32688 0.33886 0.0
C803 C 0.83007 0.34525 0.36509 0.0
C804 C 0.75389 0.35642 0.36944 0.0
H805 H 0.83426 0.38254 0.41351 0.0
C806 C 0.81579 0.43155 0.48072 0.0
O807 O 0.77403 0.36731 0.57108 0.0
O808 O 0.79913 0.33373 0.52519 0.0
N809 N 0.70595 0.38304 0.40435 0.0
C810 C 0.66903 0.38875 0.41216 0.0
C811 C 0.64085 0.37115 0.3894 0.0
C812 C 0.65088 0.34802 0.35879 0.0
C813 C 0.68905 0.34265 0.35124 0.0
C814 C 0.7159 0.36112 0.37472 0.0
H815 H 0.6611 0.40658 0.43556 0.0
O816 O 0.72227 0.3339 0.5084 0.0
O817 O 0.7523 0.36472 0.46445 0.0
O818 O 0.72363 0.41561 0.52013 0.0
O819 O 0.71919 0.43762 0.46167 0.0
C820 C 0.70147 0.31913 0.32176 0.0
C821 C 0.74029 0.31369 0.31682 0.0
H822 H 0.81699 0.30826 0.31754 0.0
H823 H 0.86004 0.34079 0.36396 0.0
H824 H 0.61145 0.37538 0.39547 0.0
H825 H 0.62906 0.33425 0.34148 0.0
H826 H 0.68141 0.30465 0.30304 0.0
H827 H 0.74943 0.29485 0.29457 0.0
Mn828 Mn 0.66008 0.01 0.75356 0.0
Mn829 Mn 0.63103 0.09946 0.74964 0.0
C830 C 0.69582 0.05599 0.72285 0.0
C831 C 0.69433 0.9631 0.78147 0.0
C832 C 0.59658 0.03449 0.70226 0.0
O833 O 0.62037 0.01204 0.79559 0.0
O834 O 0.60796 0.07414 0.79358 0.0
C835 C 0.6691 0.12981 0.81874 0.0
N836 N 0.66277 0.13163 0.78105 0.0
C837 C 0.7057 0.18541 0.77625 0.0
C838 C 0.71199 0.18461 0.81515 0.0
C839 C 0.6938 0.15653 0.83643 0.0
C840 C 0.68072 0.15808 0.76019 0.0
H841 H 0.65571 0.10791 0.8351 0.0
C842 C 0.60432 0.04152 0.80844 0.0
O843 O 0.66675 0.95481 0.75832 0.0
O844 O 0.70049 0.9985 0.79037 0.0
N845 N 0.65205 0.12719 0.70865 0.0
C846 C 0.64463 0.12276 0.67117 0.0
C847 C 0.6615 0.14795 0.64581 0.0
C848 C 0.68564 0.17753 0.65922 0.0
C849 C 0.69264 0.1817 0.69792 0.0
C850 C 0.67476 0.15595 0.72189 0.0
H851 H 0.62601 0.10018 0.66065 0.0
O852 O 0.69996 0.02053 0.71475 0.0
O853 O 0.67098 0.06311 0.74828 0.0
O854 O 0.61899 0.00964 0.71332 0.0
O855 O 0.59749 0.0685 0.71522 0.0
C856 C 0.71717 0.21001 0.71357 0.0
C857 C 0.72383 0.21175 0.75268 0.0
H858 H 0.73109 0.20509 0.8289 0.0
H859 H 0.69894 0.15538 0.86638 0.0
H860 H 0.65597 0.14452 0.61598 0.0
H861 H 0.69888 0.19668 0.63954 0.0
H862 H 0.73153 0.23021 0.69571 0.0
H863 H 0.74322 0.23325 0.76425 0.0
Mn864 Mn 0.01555 0.26278 0.88201 0.0
Mn865 Mn 0.92825 0.24866 0.91648 0.0
C866 C 0.96957 0.23007 0.84664 0.0
C867 C 0.05957 0.29661 0.8468 0.0
C868 C 0.99659 0.20708 0.94411 0.0
O869 O 0.01289 0.30341 0.92375 0.0
O870 O 0.95151 0.29565 0.94005 0.0
C871 C 0.88969 0.31477 0.88666 0.0
N872 N 0.89256 0.27665 0.88881 0.0
C873 C 0.83909 0.26601 0.84755 0.0
C874 C 0.83571 0.30518 0.84486 0.0
C875 C 0.86113 0.32966 0.86454 0.0
C876 C 0.86808 0.25283 0.87015 0.0
H877 H 0.90901 0.33361 0.90173 0.0
C878 C 0.98369 0.31337 0.94195 0.0
O879 O 0.06997 0.27402 0.87287 0.0
O880 O 0.02373 0.30152 0.84293 0.0
N881 N 0.90337 0.20464 0.89426 0.0
C882 C 0.91158 0.16759 0.89812 0.0
C883 C 0.8891 0.13948 0.87966 0.0
C884 C 0.85839 0.14967 0.85745 0.0
C885 C 0.85045 0.18793 0.85389 0.0
C886 C 0.87369 0.21471 0.87316 0.0
H887 H 0.93517 0.15949 0.91505 0.0
O888 O 1.00495 0.2245 0.84039 0.0
O889 O 0.96265 0.25319 0.87417 0.0
O890 O 0.01959 0.22103 0.92043 0.0
O891 O 0.96239 0.21709 0.94643 0.0
C892 C 0.8208 0.20057 0.83144 0.0
C893 C 0.81519 0.23958 0.82819 0.0
H894 H 0.81382 0.31675 0.82766 0.0
H895 H 0.85875 0.35995 0.86263 0.0
H896 H 0.8955 0.11 0.88245 0.0
H897 H 0.84131 0.12792 0.843 0.0
H898 H 0.80232 0.18056 0.81631 0.0
H899 H 0.79261 0.249 0.81052 0.0
Mn900 Mn 0.51555 0.76278 0.38201 0.0
Mn901 Mn 0.42825 0.74866 0.41648 0.0
C902 C 0.46957 0.73007 0.34664 0.0
C903 C 0.55957 0.79661 0.3468 0.0
C904 C 0.49659 0.70708 0.44411 0.0
O905 O 0.51289 0.80341 0.42375 0.0
O906 O 0.45151 0.79565 0.44005 0.0
C907 C 0.38969 0.81477 0.38666 0.0
N908 N 0.39256 0.77665 0.38881 0.0
C909 C 0.33909 0.76601 0.34755 0.0
C910 C 0.33571 0.80518 0.34486 0.0
C911 C 0.36113 0.82966 0.36454 0.0
C912 C 0.36808 0.75283 0.37015 0.0
H913 H 0.40901 0.83361 0.40173 0.0
C914 C 0.48369 0.81337 0.44195 0.0
O915 O 0.56997 0.77402 0.37287 0.0
O916 O 0.52373 0.80152 0.34293 0.0
N917 N 0.40337 0.70464 0.39426 0.0
C918 C 0.41158 0.66759 0.39812 0.0
C919 C 0.3891 0.63948 0.37966 0.0
C920 C 0.35839 0.64967 0.35745 0.0
C921 C 0.35045 0.68793 0.35389 0.0
C922 C 0.37369 0.71471 0.37316 0.0
H923 H 0.43517 0.65949 0.41505 0.0
O924 O 0.50495 0.7245 0.34039 0.0
O925 O 0.46266 0.75319 0.37417 0.0
O926 O 0.51959 0.72103 0.42043 0.0
O927 O 0.46239 0.71709 0.44643 0.0
C928 C 0.3208 0.70057 0.33144 0.0
C929 C 0.31519 0.73958 0.32819 0.0
H930 H 0.31382 0.81675 0.32766 0.0
H931 H 0.35875 0.85995 0.36263 0.0
H932 H 0.3955 0.61 0.38245 0.0
H933 H 0.34131 0.62792 0.343 0.0
H934 H 0.30232 0.68056 0.31631 0.0
H935 H 0.29261 0.749 0.31052 0.0
Mn936 Mn 0.01149 0.7514 0.64199 0.0
Mn937 Mn 0.97524 0.66906 0.67545 0.0
C938 C 0.01385 0.69571 0.60632 0.0
C939 C 0.00897 0.80832 0.60953 0.0
C940 C 0.04923 0.70426 0.70245 0.0
O941 O 0.97617 0.76959 0.68319 0.0
O942 O 0.95422 0.71284 0.70302 0.0
C943 C 0.89577 0.67598 0.65151 0.0
N944 N 0.92799 0.65624 0.65175 0.0
C945 C 0.89757 0.60357 0.61859 0.0
C946 C 0.86399 0.62329 0.61807 0.0
C947 C 0.86316 0.65973 0.63442 0.0
C948 C 0.92919 0.62131 0.63582 0.0
H949 H 0.89497 0.70383 0.66439 0.0
C950 C 0.95566 0.74908 0.70468 0.0
O951 O 0.03363 0.80309 0.6357 0.0
O952 O 0.98465 0.78069 0.60269 0.0
N953 N 0.99294 0.62441 0.65136 0.0
C954 C 0.02832 0.61067 0.6514 0.0
C955 C 0.03444 0.57514 0.63476 0.0
C956 C 1.00405 0.55393 0.61876 0.0
C957 C 0.96792 0.56869 0.61914 0.0
C958 C 0.96358 0.60435 0.63585 0.0
H959 H 0.0517 0.62683 0.66378 0.0
O960 O 0.0381 0.72335 0.60098 0.0
O961 O 0.98943 0.70105 0.63277 0.0
O962 O 0.04821 0.73327 0.68197 0.0
O963 O 0.02373 0.67813 0.7018 0.0
C964 C 0.93613 0.54959 0.60321 0.0
C965 C 0.90102 0.56712 0.60255 0.0
H966 H 0.83875 0.61082 0.60501 0.0
H967 H 0.83737 0.67514 0.63405 0.0
H968 H 0.06246 0.56407 0.63438 0.0
H969 H 0.00885 0.52652 0.60592 0.0
H970 H 0.93861 0.52146 0.59133 0.0
H971 H 0.87694 0.55241 0.58949 0.0
Mn972 Mn 0.51149 0.2514 0.14199 0.0
Mn973 Mn 0.47524 0.16906 0.17545 0.0
C974 C 0.51385 0.19572 0.10632 0.0
C975 C 0.50897 0.30832 0.10953 0.0
C976 C 0.54923 0.20426 0.20245 0.0
O977 O 0.47617 0.26959 0.18319 0.0
O978 O 0.45422 0.21284 0.20302 0.0
C979 C 0.39577 0.17598 0.15151 0.0
N980 N 0.42799 0.15624 0.15175 0.0
C981 C 0.39757 0.10357 0.11859 0.0
C982 C 0.36399 0.12329 0.11807 0.0
C983 C 0.36316 0.15973 0.13442 0.0
C984 C 0.42919 0.12131 0.13582 0.0
H985 H 0.39497 0.20383 0.16439 0.0
C986 C 0.45566 0.24908 0.20468 0.0
O987 O 0.53363 0.30309 0.1357 0.0
O988 O 0.48465 0.28069 0.10269 0.0
N989 N 0.49294 0.12441 0.15136 0.0
C990 C 0.52832 0.11067 0.1514 0.0
C991 C 0.53444 0.07514 0.13476 0.0
C992 C 0.50405 0.05393 0.11876 0.0
C993 C 0.46792 0.06869 0.11914 0.0
C994 C 0.46358 0.10435 0.13585 0.0
H995 H 0.5517 0.12683 0.16378 0.0
O996 O 0.5381 0.22335 0.10098 0.0
O997 O 0.48943 0.20105 0.13277 0.0
O998 O 0.54821 0.23327 0.18197 0.0
O999 O 0.52373 0.17813 0.2018 0.0
C1000 C 0.43613 0.04959 0.10321 0.0
C1001 C 0.40102 0.06712 0.10255 0.0
H1002 H 0.33875 0.11082 0.10501 0.0
H1003 H 0.33737 0.17514 0.13405 0.0
H1004 H 0.56246 0.06407 0.13438 0.0
H1005 H 0.50885 0.02652 0.10592 0.0
H1006 H 0.43861 0.02146 0.09133 0.0
H1007 H 0.37694 0.05241 0.08949 0.0
loop_
_geom_bond_atom_site_label_1
_geom_bond_atom_site_label_2
_geom_bond_distance
_geom_bond_site_symmetry_2
_ccdc_geom_bond_type
C0 C1 1.384 . S
C0 H13 0.947 . S
C0 C35 1.382 . S
C1 C0 1.384 . S
C1 C2 1.378 1_545 S
C2 C1 1.378 1_565 S
C2 C3 1.401 . S
C2 H14 0.952 . S
C3 C2 1.401 . S
C3 H15 0.941 1_655 S
C3 C34 1.369 1_565 S
H4 C23 0.947 . S
H5 C24 0.946 . S
H6 C26 0.953 . S
H7 C27 0.945 1_546 S
H8 C29 0.952 . S
H9 C30 0.949 . S
H10 C32 0.950 . S
H11 C33 0.948 1_655 S
H12 C35 0.951 . S
H13 C0 0.947 . S
H14 C2 0.952 . S
H15 C3 0.941 1_455 S
N16 C19 1.382 . S
N16 C21 1.363 . S
N17 C19 1.371 . S
N17 C20 1.372 . S
N18 C20 1.361 . S
N18 C21 1.377 . S
C19 N16 1.382 . S
C19 N17 1.371 . S
C19 C22 1.480 1_545 S
C20 N17 1.372 . S
C20 N18 1.361 . S
C20 C28 1.457 1_554 S
C21 N16 1.363 . S
C21 N18 1.377 . S
C21 C34 1.479 1_455 S
C22 C19 1.480 1_565 S
C22 C23 1.383 . S
C22 C27 1.385 . S
C23 H4 0.947 . S
C23 C22 1.383 . S
C23 C24 1.388 . S
C24 H5 0.946 . S
C24 C23 1.388 . S
C24 C25 1.384 . S
C25 C24 1.384 . S
C25 C26 1.377 1_554 S
C26 H6 0.953 . S
C26 C25 1.377 1_556 S
C26 C27 1.369 1_556 S
C27 H7 0.945 1_564 S
C27 C22 1.385 . S
C27 C26 1.369 1_554 S
C28 C20 1.457 1_556 S
C28 C29 1.372 . S
C28 C33 1.364 1_556 S
C29 H8 0.952 . S
C29 C28 1.372 . S
C29 C30 1.389 . S
C30 H9 0.949 . S
C30 C29 1.389 . S
C30 C31 1.387 . S
C31 C30 1.387 . S
C31 C32 1.372 1_455 S
C32 H10 0.950 . S
C32 C31 1.372 1_655 S
C32 C33 1.379 1_656 S
C33 H11 0.948 1_455 S
C33 C28 1.364 1_554 S
C33 C32 1.379 1_454 S
C34 C3 1.369 1_545 S
C34 C21 1.479 1_655 S
C34 C35 1.398 . S
C35 C0 1.382 . S
C35 H12 0.951 . S
C35 C34 1.398 . S
C36 C37 1.384 . S
C36 H49 0.947 . S
C36 C71 1.382 . S
C37 C36 1.384 . S
C37 C38 1.378 . S
C38 C37 1.378 . S
C38 C39 1.378 . S
C38 H50 0.952 . S
C39 C38 1.378 . S
C39 H51 0.950 . S
C39 C70 1.383 . S
H40 C59 0.947 . S
H41 C60 0.946 . S
H42 C62 0.953 . S
H43 C63 0.945 . S
H44 C65 0.952 . S
H45 C66 0.949 . S
H46 C68 0.950 . S
H47 C69 0.948 . S
H48 C71 0.951 . S
H49 C36 0.947 . S
H50 C38 0.952 . S
H51 C39 0.950 . S
N52 C55 1.382 . S
N52 C57 1.363 . S
N53 C55 1.371 . S
N53 C56 1.372 . S
N54 C56 1.361 . S
N54 C57 1.377 . S
C55 N52 1.382 . S
C55 N53 1.371 . S
C55 C58 1.480 . S
C56 N53 1.372 . S
C56 N54 1.361 . S
C56 C64 1.457 . S
C57 N52 1.363 . S
C57 N54 1.377 . S
C57 C70 1.479 . S
C58 C55 1.480 . S
C58 C59 1.383 . S
C58 C63 1.385 . S
C59 H40 0.947 . S
C59 C58 1.383 . S
C59 C60 1.388 . S
C60 H41 0.946 . S
C60 C59 1.388 . S
C60 C61 1.384 . S
C61 C60 1.384 . S
C61 C62 1.377 . S
C62 H42 0.953 . S
C62 C61 1.377 . S
C62 C63 1.369 . S
C63 H43 0.945 . S
C63 C58 1.385 . S
C63 C62 1.369 . S
C64 C56 1.457 . S
C64 C65 1.372 . S
C64 C69 1.364 . S
C65 H44 0.952 . S
C65 C64 1.372 . S
C65 C66 1.389 . S
C66 H45 0.949 . S
C66 C65 1.389 . S
C66 C67 1.387 . S
C67 C66 1.387 . S
C67 C68 1.372 . S
C68 H46 0.950 . S
C68 C67 1.372 . S
C68 C69 1.379 . S
C69 H47 0.948 . S
C69 C64 1.364 . S
C69 C68 1.379 . S
C70 C39 1.383 . S
C70 C57 1.479 . S
C70 C71 1.398 . S
C71 C36 1.382 . S
C71 H48 0.951 . S
C71 C70 1.398 . S
C72 C73 1.384 1_455 S
C72 H85 0.947 . S
C72 C107 1.382 . S
C73 C72 1.384 1_655 S
C73 C74 1.378 . S
C74 C73 1.378 . S
C74 C75 1.378 . S
C74 H86 0.952 . S
C75 C74 1.378 . S
C75 H87 0.950 . S
C75 C106 1.383 . S
H76 C95 0.947 . S
H77 C96 0.946 . S
H78 C98 0.953 . S
H79 C99 0.945 . S
H80 C101 0.952 1_655 S
H81 C102 0.949 . S
H82 C104 0.950 . S
H83 C105 0.948 . S
H84 C107 0.951 1_554 S
H85 C72 0.947 . S
H86 C74 0.952 . S
H87 C75 0.950 . S
N88 C91 1.382 . S
N88 C93 1.363 . S
N89 C91 1.371 . S
N89 C92 1.372 . S
N90 C92 1.361 1_455 S
N90 C93 1.377 1_455 S
C91 N88 1.382 . S
C91 N89 1.371 . S
C91 C94 1.480 . S
C92 N89 1.372 . S
C92 N90 1.361 1_655 S
C92 C100 1.457 1_655 S
C93 N88 1.363 . S
C93 N90 1.377 1_655 S
C93 C106 1.479 1_554 S
C94 C91 1.480 . S
C94 C95 1.383 1_554 S
C94 C99 1.385 . S
C95 H76 0.947 . S
C95 C94 1.383 1_556 S
C95 C96 1.388 . S
C96 H77 0.946 . S
C96 C95 1.388 . S
C96 C97 1.384 1_556 S
C97 C96 1.384 1_554 S
C97 C98 1.377 . S
C98 H78 0.953 . S
C98 C97 1.377 . S
C98 C99 1.369 . S
C99 H79 0.945 . S
C99 C94 1.385 . S
C99 C98 1.369 . S
C100 C92 1.457 1_455 S
C100 C101 1.372 . S
C100 C105 1.364 . S
C101 H80 0.952 1_455 S
C101 C100 1.372 . S
C101 C102 1.389 . S
C102 H81 0.949 . S
C102 C101 1.389 . S
C102 C103 1.387 . S
C103 C102 1.387 . S
C103 C104 1.372 . S
C104 H82 0.950 . S
C104 C103 1.372 . S
C104 C105 1.379 . S
C105 H83 0.948 . S
C105 C100 1.364 . S
C105 C104 1.379 . S
C106 C75 1.383 . S
C106 C93 1.479 1_556 S
C106 C107 1.398 1_655 S
C107 C72 1.382 . S
C107 H84 0.951 1_556 S
C107 C106 1.398 1_455 S
C108 C109 1.384 . S
C108 H121 0.947 . S
C108 C143 1.382 . S
C109 C108 1.384 . S
C109 C110 1.378 . S
C110 C109 1.378 . S
C110 C111 1.378 . S
C110 H122 0.952 . S
C111 C110 1.378 . S
C111 H123 0.950 . S
C111 C142 1.383 . S
H112 C131 0.947 . S
H113 C132 0.946 . S
H114 C134 0.953 . S
H115 C135 0.945 . S
H116 C137 0.952 . S
H117 C138 0.949 . S
H118 C140 0.950 . S
H119 C141 0.948 . S
H120 C143 0.951 . S
H121 C108 0.947 . S
H122 C110 0.952 . S
H123 C111 0.950 . S
N124 C127 1.382 . S
N124 C129 1.363 . S
N125 C127 1.371 . S
N125 C128 1.372 . S
N126 C128 1.361 . S
N126 C129 1.377 . S
C127 N124 1.382 . S
C127 N125 1.371 . S
C127 C130 1.480 . S
C128 N125 1.372 . S
C128 N126 1.361 . S
C128 C136 1.457 . S
C129 N124 1.363 . S
C129 N126 1.377 . S
C129 C142 1.479 . S
C130 C127 1.480 . S
C130 C131 1.383 . S
C130 C135 1.385 . S
C131 H112 0.947 . S
C131 C130 1.383 . S
C131 C132 1.388 . S
C132 H113 0.946 . S
C132 C131 1.388 . S
C132 C133 1.384 . S
C133 C132 1.384 . S
C133 C134 1.377 . S
C134 H114 0.953 . S
C134 C133 1.377 . S
C134 C135 1.369 . S
C135 H115 0.945 . S
C135 C130 1.385 . S
C135 C134 1.369 . S
C136 C128 1.457 . S
C136 C137 1.372 . S
C136 C141 1.364 . S
C137 H116 0.952 . S
C137 C136 1.372 . S
C137 C138 1.389 . S
C138 H117 0.949 . S
C138 C137 1.389 . S
C138 C139 1.387 . S
C139 C138 1.387 . S
C139 C140 1.372 . S
C140 H118 0.950 . S
C140 C139 1.372 . S
C140 C141 1.379 . S
C141 H119 0.948 . S
C141 C136 1.364 . S
C141 C140 1.379 . S
C142 C111 1.383 . S
C142 C129 1.479 . S
C142 C143 1.398 . S
C143 C108 1.382 . S
C143 H120 0.951 . S
C143 C142 1.398 . S
C144 C145 1.384 . S
C144 H157 0.947 . S
C144 C179 1.382 . S
C145 C144 1.384 . S
C145 C146 1.378 1_455 S
C146 C145 1.378 1_655 S
C146 C147 1.378 1_655 S
C146 H158 0.952 . S
C147 C146 1.378 1_455 S
C147 H159 0.950 1_455 S
C147 C178 1.383 . S
H148 C167 0.947 . S
H149 C168 0.946 . S
H150 C170 0.953 . S
H151 C171 0.945 . S
H152 C173 0.952 . S
H153 C174 0.949 . S
H154 C176 0.950 . S
H155 C177 0.948 1_565 S
H156 C179 0.951 . S
H157 C144 0.947 . S
H158 C146 0.952 . S
H159 C147 0.950 1_655 S
N160 C163 1.382 . S
N160 C165 1.363 . S
N161 C163 1.366 1_545 S
N161 C164 1.370 1_545 S
N162 C164 1.361 . S
N162 C165 1.377 . S
C163 N160 1.382 . S
C163 N161 1.366 1_565 S
C163 C166 1.480 1_455 S
C164 N161 1.370 1_565 S
C164 N162 1.361 . S
C164 C172 1.457 1_565 S
C165 N160 1.363 . S
C165 N162 1.377 . S
C165 C178 1.479 . S
C166 C163 1.480 1_655 S
C166 C167 1.383 . S
C166 C171 1.385 1_665 S
C167 H148 0.947 . S
C167 C166 1.383 . S
C167 C168 1.388 . S
C168 H149 0.946 . S
C168 C167 1.388 . S
C168 C169 1.384 . S
C169 C168 1.384 . S
C169 C170 1.377 1_565 S
C170 H150 0.953 . S
C170 C169 1.377 1_545 S
C170 C171 1.369 1_655 S
C171 H151 0.945 . S
C171 C166 1.385 1_445 S
C171 C170 1.369 1_455 S
C172 C164 1.457 1_545 S
C172 C173 1.372 . S
C172 C177 1.364 . S
C173 H152 0.952 . S
C173 C172 1.372 . S
C173 C174 1.389 . S
C174 H153 0.949 . S
C174 C173 1.389 . S
C174 C175 1.387 . S
C175 C174 1.387 . S
C175 C176 1.372 . S
C176 H154 0.950 . S
C176 C175 1.372 . S
C176 C177 1.379 . S
C177 H155 0.948 1_545 S
C177 C172 1.364 . S
C177 C176 1.379 . S
C178 C147 1.383 . S
C178 C165 1.479 . S
C178 C179 1.398 . S
C179 C144 1.382 . S
C179 H156 0.951 . S
C179 C178 1.398 . S
C180 C181 1.384 . S
C180 H193 0.947 . S
C180 C215 1.382 . S
C181 C180 1.384 . S
C181 C182 1.378 . S
C182 C181 1.378 . S
C182 C183 1.378 . S
C182 H194 0.952 . S
C183 C182 1.378 . S
C183 H195 0.950 . S
C183 C214 1.383 . S
H184 C203 0.947 . S
H185 C204 0.946 . S
H186 C206 0.953 . S
H187 C207 0.945 . S
H188 C209 0.952 . S
H189 C210 0.949 . S
H190 C212 0.950 . S
H191 C213 0.948 . S
H192 C215 0.951 . S
H193 C180 0.947 . S
H194 C182 0.952 . S
H195 C183 0.950 . S
N196 C199 1.382 . S
N196 C201 1.363 . S
N197 C199 1.371 . S
N197 C200 1.372 . S
N198 C200 1.361 . S
N198 C201 1.377 . S
C199 N196 1.382 . S
C199 N197 1.371 . S
C199 C202 1.480 . S
C200 N197 1.372 . S
C200 N198 1.361 . S
C200 C208 1.457 . S
C201 N196 1.363 . S
C201 N198 1.377 . S
C201 C214 1.479 . S
C202 C199 1.480 . S
C202 C203 1.383 . S
C202 C207 1.385 . S
C203 H184 0.947 . S
C203 C202 1.383 . S
C203 C204 1.388 . S
C204 H185 0.946 . S
C204 C203 1.388 . S
C204 C205 1.384 . S
C205 C204 1.384 . S
C205 C206 1.377 . S
C206 H186 0.953 . S
C206 C205 1.377 . S
C206 C207 1.369 . S
C207 H187 0.945 . S
C207 C202 1.385 . S
C207 C206 1.369 . S
C208 C200 1.457 . S
C208 C209 1.372 . S
C208 C213 1.364 . S
C209 H188 0.952 . S
C209 C208 1.372 . S
C209 C210 1.389 . S
C210 H189 0.949 . S
C210 C209 1.389 . S
C210 C211 1.387 . S
C211 C210 1.387 . S
C211 C212 1.372 . S
C212 H190 0.950 . S
C212 C211 1.372 . S
C212 C213 1.379 . S
C213 H191 0.948 . S
C213 C208 1.364 . S
C213 C212 1.379 . S
C214 C183 1.383 . S
C214 C201 1.479 . S
C214 C215 1.398 . S
C215 C180 1.382 . S
C215 H192 0.951 . S
C215 C214 1.398 . S
C216 C217 1.401 . S
C216 H229 0.947 . S
C216 C251 1.382 . S
C217 C216 1.401 . S
C217 C218 1.359 1_455 S
C218 C217 1.359 1_655 S
C218 C219 1.378 . S
C218 H230 0.952 . S
C219 C218 1.378 . S
C219 H231 0.950 . S
C219 C250 1.383 . S
H220 C239 0.947 . S
H221 C240 0.946 . S
H222 C242 0.953 . S
H223 C243 0.945 . S
H224 C245 0.952 1_655 S
H225 C246 0.949 . S
H226 C248 0.950 . S
H227 C249 0.948 . S
H228 C251 0.951 . S
H229 C216 0.947 . S
H230 C218 0.952 . S
H231 C219 0.950 . S
N232 C235 1.382 . S
N232 C237 1.363 . S
N233 C235 1.371 . S
N233 C236 1.372 1_655 S
N234 C236 1.361 . S
N234 C237 1.377 1_455 S
C235 N232 1.382 . S
C235 N233 1.371 . S
C235 C238 1.480 . S
C236 N233 1.372 1_455 S
C236 N234 1.361 . S
C236 C244 1.457 . S
C237 N232 1.363 . S
C237 N234 1.377 1_655 S
C237 C250 1.479 . S
C238 C235 1.480 . S
C238 C239 1.383 . S
C238 C243 1.385 . S
C239 H220 0.947 . S
C239 C238 1.383 . S
C239 C240 1.388 . S
C240 H221 0.946 . S
C240 C239 1.388 . S
C240 C241 1.384 . S
C241 C240 1.384 . S
C241 C242 1.377 . S
C242 H222 0.953 . S
C242 C241 1.377 . S
C242 C243 1.369 . S
C243 H223 0.945 . S
C243 C238 1.385 . S
C243 C242 1.369 . S
C244 C236 1.457 . S
C244 C245 1.372 . S
C244 C249 1.364 . S
C245 H224 0.952 1_455 S
C245 C244 1.372 . S
C245 C246 1.389 . S
C246 H225 0.949 . S
C246 C245 1.389 . S
C246 C247 1.387 . S
C247 C246 1.387 . S
C247 C248 1.372 . S
C248 H226 0.950 . S
C248 C247 1.372 . S
C248 C249 1.379 . S
C249 H227 0.948 . S
C249 C244 1.364 . S
C249 C248 1.379 . S
C250 C219 1.383 . S
C250 C237 1.479 . S
C250 C251 1.398 1_655 S
C251 C216 1.382 . S
C251 H228 0.951 . S
C251 C250 1.398 1_455 S
C252 C253 1.384 . S
C252 H265 0.947 . S
C252 C287 1.382 . S
C253 C252 1.384 . S
C253 C254 1.378 . S
C254 C253 1.378 . S
C254 C255 1.378 . S
C254 H266 0.952 . S
C255 C254 1.378 . S
C255 H267 0.950 . S
C255 C286 1.383 . S
H256 C275 0.947 . S
H257 C276 0.946 . S
H258 C278 0.953 . S
H259 C279 0.945 . S
H260 C281 0.952 . S
H261 C282 0.949 . S
H262 C284 0.950 . S
H263 C285 0.948 . S
H264 C287 0.951 . S
H265 C252 0.947 . S
H266 C254 0.952 . S
H267 C255 0.950 . S
N268 C271 1.382 . S
N268 C273 1.363 . S
N269 C271 1.371 . S
N269 C272 1.372 . S
N270 C272 1.361 . S
N270 C273 1.377 . S
C271 N268 1.382 . S
C271 N269 1.371 . S
C271 C274 1.480 . S
C272 N269 1.372 . S
C272 N270 1.361 . S
C272 C280 1.457 . S
C273 N268 1.363 . S
C273 N270 1.377 . S
C273 C286 1.479 . S
C274 C271 1.480 . S
C274 C275 1.383 . S
C274 C279 1.385 . S
C275 H256 0.947 . S
C275 C274 1.383 . S
C275 C276 1.388 . S
C276 H257 0.946 . S
C276 C275 1.388 . S
C276 C277 1.384 . S
C277 C276 1.384 . S
C277 C278 1.377 . S
C278 H258 0.953 . S
C278 C277 1.377 . S
C278 C279 1.369 . S
C279 H259 0.945 . S
C279 C274 1.385 . S
C279 C278 1.369 . S
C280 C272 1.457 . S
C280 C281 1.372 . S
C280 C285 1.364 . S
C281 H260 0.952 . S
C281 C280 1.372 . S
C281 C282 1.389 . S
C282 H261 0.949 . S
C282 C281 1.389 . S
C282 C283 1.387 . S
C283 C282 1.387 . S
C283 C284 1.372 . S
C284 H262 0.950 . S
C284 C283 1.372 . S
C284 C285 1.379 . S
C285 H263 0.948 . S
C285 C280 1.364 . S
C285 C284 1.379 . S
C286 C255 1.383 . S
C286 C273 1.479 . S
C286 C287 1.398 . S
C287 C252 1.382 . S
C287 H264 0.951 . S
C287 C286 1.398 . S
C288 C289 1.384 . S
C288 H301 0.947 . S
C288 C323 1.382 . S
C289 C288 1.384 . S
C289 C290 1.378 . S
C290 C289 1.378 . S
C290 C291 1.378 . S
C290 H302 0.952 . S
C291 C290 1.378 . S
C291 H303 0.950 . S
C291 C322 1.383 . S
H292 C311 0.947 . S
H293 C312 0.946 . S
H294 C314 0.953 . S
H295 C315 0.945 . S
H296 C317 0.952 . S
H297 C318 0.949 . S
H298 C320 0.950 . S
H299 C321 0.948 . S
H300 C323 0.951 . S
H301 C288 0.947 . S
H302 C290 0.952 . S
H303 C291 0.950 . S
N304 C307 1.382 . S
N304 C309 1.363 . S
N305 C307 1.371 . S
N305 C308 1.372 . S
N306 C308 1.361 . S
N306 C309 1.377 . S
C307 N304 1.382 . S
C307 N305 1.371 . S
C307 C310 1.480 . S
C308 N305 1.372 . S
C308 N306 1.361 . S
C308 C316 1.457 . S
C309 N304 1.363 . S
C309 N306 1.377 . S
C309 C322 1.479 . S
C310 C307 1.480 . S
C310 C311 1.383 . S
C310 C315 1.385 . S
C311 H292 0.947 . S
C311 C310 1.383 . S
C311 C312 1.388 . S
C312 H293 0.946 . S
C312 C311 1.388 . S
C312 C313 1.384 . S
C313 C312 1.384 . S
C313 C314 1.377 . S
C314 H294 0.953 . S
C314 C313 1.377 . S
C314 C315 1.369 . S
C315 H295 0.945 . S
C315 C310 1.385 . S
C315 C314 1.369 . S
C316 C308 1.457 . S
C316 C317 1.372 . S
C316 C321 1.364 . S
C317 H296 0.952 . S
C317 C316 1.372 . S
C317 C318 1.389 . S
C318 H297 0.949 . S
C318 C317 1.389 . S
C318 C319 1.387 . S
C319 C318 1.387 . S
C319 C320 1.372 . S
C320 H298 0.950 . S
C320 C319 1.372 . S
C320 C321 1.379 . S
C321 H299 0.948 . S
C321 C316 1.364 . S
C321 C320 1.379 . S
C322 C291 1.383 . S
C322 C309 1.479 . S
C322 C323 1.398 . S
C323 C288 1.382 . S
C323 H300 0.951 . S
C323 C322 1.398 . S
C324 C325 1.384 . S
C324 H337 0.947 . S
C324 C359 1.382 . S
C325 C324 1.384 . S
C325 C326 1.378 . S
C326 C325 1.378 . S
C326 C327 1.378 . S
C326 H338 0.952 . S
C327 C326 1.378 . S
C327 H339 0.950 . S
C327 C358 1.383 . S
H328 C347 0.947 1_565 S
H329 C348 0.946 . S
H330 C350 0.953 . S
H331 C351 0.945 . S
H332 C353 0.952 . S
H333 C354 0.949 . S
H334 C356 0.950 . S
H335 C357 0.948 . S
H336 C359 0.951 . S
H337 C324 0.947 . S
H338 C326 0.952 . S
H339 C327 0.950 . S
N340 C343 1.382 . S
N340 C345 1.363 . S
N341 C343 1.369 1_545 S
N341 C344 1.362 1_545 S
N342 C344 1.361 . S
N342 C345 1.377 . S
C343 N340 1.382 . S
C343 N341 1.369 1_565 S
C343 C346 1.480 1_565 S
C344 N341 1.362 1_565 S
C344 N342 1.361 . S
C344 C352 1.457 . S
C345 N340 1.363 . S
C345 N342 1.377 . S
C345 C358 1.479 . S
C346 C343 1.480 1_545 S
C346 C347 1.383 . S
C346 C351 1.385 . S
C347 H328 0.947 1_545 S
C347 C346 1.383 . S
C347 C348 1.388 . S
C348 H329 0.946 . S
C348 C347 1.388 . S
C348 C349 1.384 . S
C349 C348 1.384 . S
C349 C350 1.377 . S
C350 H330 0.953 . S
C350 C349 1.377 . S
C350 C351 1.369 . S
C351 H331 0.945 . S
C351 C346 1.385 . S
C351 C350 1.369 . S
C352 C344 1.457 . S
C352 C353 1.372 1_565 S
C352 C357 1.364 . S
C353 H332 0.952 . S
C353 C352 1.372 1_545 S
C353 C354 1.389 . S
C354 H333 0.949 . S
C354 C353 1.389 . S
C354 C355 1.387 1_545 S
C355 C354 1.387 1_565 S
C355 C356 1.372 . S
C356 H334 0.950 . S
C356 C355 1.372 . S
C356 C357 1.379 . S
C357 H335 0.948 . S
C357 C352 1.364 . S
C357 C356 1.379 . S
C358 C327 1.383 . S
C358 C345 1.479 . S
C358 C359 1.398 . S
C359 C324 1.382 . S
C359 H336 0.951 . S
C359 C358 1.398 . S
C360 C361 1.384 . S
C360 H373 0.947 . S
C360 C395 1.382 . S
C361 C360 1.384 . S
C361 C362 1.378 . S
C362 C361 1.378 . S
C362 C363 1.378 . S
C362 H374 0.952 . S
C363 C362 1.378 . S
C363 H375 0.950 . S
C363 C394 1.383 . S
H364 C383 0.947 . S
H365 C384 0.946 . S
H366 C386 0.953 . S
H367 C387 0.945 . S
H368 C389 0.952 . S
H369 C390 0.949 . S
H370 C392 0.950 . S
H371 C393 0.948 . S
H372 C395 0.951 . S
H373 C360 0.947 . S
H374 C362 0.952 . S
H375 C363 0.950 . S
N376 C379 1.382 . S
N376 C381 1.363 . S
N377 C379 1.371 . S
N377 C380 1.372 . S
N378 C380 1.361 . S
N378 C381 1.377 . S
C379 N376 1.382 . S
C379 N377 1.371 . S
C379 C382 1.480 . S
C380 N377 1.372 . S
C380 N378 1.361 . S
C380 C388 1.457 . S
C381 N376 1.363 . S
C381 N378 1.377 . S
C381 C394 1.479 . S
C382 C379 1.480 . S
C382 C383 1.383 . S
C382 C387 1.385 . S
C383 H364 0.947 . S
C383 C382 1.383 . S
C383 C384 1.388 . S
C384 H365 0.946 . S
C384 C383 1.388 . S
C384 C385 1.384 . S
C385 C384 1.384 . S
C385 C386 1.377 . S
C386 H366 0.953 . S
C386 C385 1.377 . S
C386 C387 1.369 . S
C387 H367 0.945 . S
C387 C382 1.385 . S
C387 C386 1.369 . S
C388 C380 1.457 . S
C388 C389 1.372 . S
C388 C393 1.364 . S
C389 H368 0.952 . S
C389 C388 1.372 . S
C389 C390 1.389 . S
C390 H369 0.949 . S
C390 C389 1.389 . S
C390 C391 1.387 . S
C391 C390 1.387 . S
C391 C392 1.372 . S
C392 H370 0.950 . S
C392 C391 1.372 . S
C392 C393 1.379 . S
C393 H371 0.948 . S
C393 C388 1.364 . S
C393 C392 1.379 . S
C394 C363 1.383 . S
C394 C381 1.479 . S
C394 C395 1.398 . S
C395 C360 1.382 . S
C395 H372 0.951 . S
C395 C394 1.398 . S
C396 C397 1.384 . S
C396 H409 0.947 . S
C396 C431 1.382 . S
C397 C396 1.384 . S
C397 C398 1.378 . S
C398 C397 1.378 . S
C398 C399 1.378 . S
C398 H410 0.952 . S
C399 C398 1.378 . S
C399 H411 0.950 . S
C399 C430 1.383 . S
H400 C419 0.947 . S
H401 C420 0.946 . S
H402 C422 0.953 . S
H403 C423 0.945 . S
H404 C425 0.952 . S
H405 C426 0.949 . S
H406 C428 0.950 . S
H407 C429 0.948 . S
H408 C431 0.951 . S
H409 C396 0.947 . S
H410 C398 0.952 . S
H411 C399 0.950 . S
N412 C415 1.382 . S
N412 C417 1.363 . S
N413 C415 1.371 . S
N413 C416 1.372 . S
N414 C416 1.361 . S
N414 C417 1.377 . S
C415 N412 1.382 . S
C415 N413 1.371 . S
C415 C418 1.480 . S
C416 N413 1.372 . S
C416 N414 1.361 . S
C416 C424 1.457 . S
C417 N412 1.363 . S
C417 N414 1.377 . S
C417 C430 1.479 . S
C418 C415 1.480 . S
C418 C419 1.383 . S
C418 C423 1.385 . S
C419 H400 0.947 . S
C419 C418 1.383 . S
C419 C420 1.388 . S
C420 H401 0.946 . S
C420 C419 1.388 . S
C420 C421 1.384 . S
C421 C420 1.384 . S
C421 C422 1.377 . S
C422 H402 0.953 . S
C422 C421 1.377 . S
C422 C423 1.369 . S
C423 H403 0.945 . S
C423 C418 1.385 . S
C423 C422 1.369 . S
C424 C416 1.457 . S
C424 C425 1.372 . S
C424 C429 1.364 . S
C425 H404 0.952 . S
C425 C424 1.372 . S
C425 C426 1.389 . S
C426 H405 0.949 . S
C426 C425 1.389 . S
C426 C427 1.387 . S
C427 C426 1.387 . S
C427 C428 1.372 . S
C428 H406 0.950 . S
C428 C427 1.372 . S
C428 C429 1.379 . S
C429 H407 0.948 . S
C429 C424 1.364 . S
C429 C428 1.379 . S
C430 C399 1.383 . S
C430 C417 1.479 . S
C430 C431 1.398 . S
C431 C396 1.382 . S
C431 H408 0.951 . S
C431 C430 1.398 . S
C432 C433 1.384 . S
C432 H445 0.947 . S
C432 C467 1.382 . S
C433 C432 1.384 . S
C433 C434 1.378 . S
C434 C433 1.378 . S
C434 C435 1.378 . S
C434 H446 0.952 . S
C435 C434 1.378 . S
C435 H447 0.950 . S
C435 C466 1.383 . S
H436 C455 0.947 . S
H437 C456 0.946 . S
H438 C458 0.953 . S
H439 C459 0.945 . S
H440 C461 0.952 . S
H441 C462 0.949 . S
H442 C464 0.950 . S
H443 C465 0.948 . S
H444 C467 0.951 . S
H445 C432 0.947 . S
H446 C434 0.952 . S
H447 C435 0.950 . S
N448 C451 1.382 . S
N448 C453 1.363 . S
N449 C451 1.371 . S
N449 C452 1.372 . S
N450 C452 1.361 . S
N450 C453 1.377 . S
C451 N448 1.382 . S
C451 N449 1.371 . S
C451 C454 1.480 . S
C452 N449 1.372 . S
C452 N450 1.361 . S
C452 C460 1.457 . S
C453 N448 1.363 . S
C453 N450 1.377 . S
C453 C466 1.479 . S
C454 C451 1.480 . S
C454 C455 1.383 . S
C454 C459 1.385 . S
C455 H436 0.947 . S
C455 C454 1.383 . S
C455 C456 1.388 . S
C456 H437 0.946 . S
C456 C455 1.388 . S
C456 C457 1.384 . S
C457 C456 1.384 . S
C457 C458 1.377 . S
C458 H438 0.953 . S
C458 C457 1.377 . S
C458 C459 1.369 . S
C459 H439 0.945 . S
C459 C454 1.385 . S
C459 C458 1.369 . S
C460 C452 1.457 . S
C460 C461 1.372 . S
C460 C465 1.364 . S
C461 H440 0.952 . S
C461 C460 1.372 . S
C461 C462 1.389 . S
C462 H441 0.949 . S
C462 C461 1.389 . S
C462 C463 1.387 . S
C463 C462 1.387 . S
C463 C464 1.372 . S
C464 H442 0.950 . S
C464 C463 1.372 . S
C464 C465 1.379 . S
C465 H443 0.948 . S
C465 C460 1.364 . S
C465 C464 1.379 . S
C466 C435 1.383 . S
C466 C453 1.479 . S
C466 C467 1.398 . S
C467 C432 1.382 . S
C467 H444 0.951 . S
C467 C466 1.398 . S
C468 C469 1.384 . S
C468 H481 0.947 . S
C468 C503 1.382 . S
C469 C468 1.384 . S
C469 C470 1.378 . S
C470 C469 1.378 . S
C470 C471 1.378 . S
C470 H482 0.952 . S
C471 C470 1.378 . S
C471 H483 0.950 1_554 S
C471 C502 1.383 . S
H472 C491 0.947 . S
H473 C492 0.946 . S
H474 C494 0.953 . S
H475 C495 0.945 . S
H476 C497 0.952 . S
H477 C498 0.949 . S
H478 C500 0.950 . S
H479 C501 0.948 . S
H480 C503 0.951 . S
H481 C468 0.947 . S
H482 C470 0.952 . S
H483 C471 0.950 1_556 S
N484 C487 1.382 . S
N484 C489 1.363 . S
N485 C487 1.371 . S
N485 C488 1.372 . S
N486 C488 1.361 . S
N486 C489 1.377 . S
C487 N484 1.382 . S
C487 N485 1.371 . S
C487 C490 1.480 . S
C488 N485 1.372 . S
C488 N486 1.361 . S
C488 C496 1.457 . S
C489 N484 1.363 . S
C489 N486 1.377 . S
C489 C502 1.479 1_556 S
C490 C487 1.480 . S
C490 C491 1.383 . S
C490 C495 1.385 . S
C491 H472 0.947 . S
C491 C490 1.383 . S
C491 C492 1.388 . S
C492 H473 0.946 . S
C492 C491 1.388 . S
C492 C493 1.384 . S
C493 C492 1.384 . S
C493 C494 1.377 . S
C494 H474 0.953 . S
C494 C493 1.377 . S
C494 C495 1.369 . S
C495 H475 0.945 . S
C495 C490 1.385 . S
C495 C494 1.369 . S
C496 C488 1.457 . S
C496 C497 1.372 . S
C496 C501 1.364 1_556 S
C497 H476 0.952 . S
C497 C496 1.372 . S
C497 C498 1.389 . S
C498 H477 0.949 . S
C498 C497 1.389 . S
C498 C499 1.387 . S
C499 C498 1.387 . S
C499 C500 1.372 1_556 S
C500 H478 0.950 . S
C500 C499 1.372 1_554 S
C500 C501 1.379 . S
C501 H479 0.948 . S
C501 C496 1.364 1_554 S
C501 C500 1.379 . S
C502 C471 1.383 . S
C502 C489 1.479 1_554 S
C502 C503 1.398 . S
C503 C468 1.382 . S
C503 H480 0.951 . S
C503 C502 1.398 . S
C504 C505 1.384 . S
C504 H517 0.947 . S
C504 C539 1.382 . S
C505 C504 1.384 . S
C505 C506 1.378 . S
C506 C505 1.378 . S
C506 C507 1.378 . S
C506 H518 0.952 . S
C507 C506 1.378 . S
C507 H519 0.950 . S
C507 C538 1.383 . S
H508 C527 0.947 . S
H509 C528 0.946 . S
H510 C530 0.953 . S
H511 C531 0.945 . S
H512 C533 0.952 . S
H513 C534 0.949 . S
H514 C536 0.950 . S
H515 C537 0.948 . S
H516 C539 0.951 . S
H517 C504 0.947 . S
H518 C506 0.952 . S
H519 C507 0.950 . S
N520 C523 1.382 . S
N520 C525 1.363 . S
N521 C523 1.371 . S
N521 C524 1.372 . S
N522 C524 1.361 . S
N522 C525 1.377 . S
C523 N520 1.382 . S
C523 N521 1.371 . S
C523 C526 1.480 . S
C524 N521 1.372 . S
C524 N522 1.361 . S
C524 C532 1.457 . S
C525 N520 1.363 . S
C525 N522 1.377 . S
C525 C538 1.479 . S
C526 C523 1.480 . S
C526 C527 1.383 . S
C526 C531 1.385 . S
C527 H508 0.947 . S
C527 C526 1.383 . S
C527 C528 1.388 . S
C528 H509 0.946 . S
C528 C527 1.388 . S
C528 C529 1.384 . S
C529 C528 1.384 . S
C529 C530 1.377 . S
C530 H510 0.953 . S
C530 C529 1.377 . S
C530 C531 1.369 . S
C531 H511 0.945 . S
C531 C526 1.385 . S
C531 C530 1.369 . S
C532 C524 1.457 . S
C532 C533 1.372 . S
C532 C537 1.364 . S
C533 H512 0.952 . S
C533 C532 1.372 . S
C533 C534 1.389 . S
C534 H513 0.949 . S
C534 C533 1.389 . S
C534 C535 1.387 . S
C535 C534 1.387 . S
C535 C536 1.372 . S
C536 H514 0.950 . S
C536 C535 1.372 . S
C536 C537 1.379 . S
C537 H515 0.948 . S
C537 C532 1.364 . S
C537 C536 1.379 . S
C538 C507 1.383 . S
C538 C525 1.479 . S
C538 C539 1.398 . S
C539 C504 1.382 . S
C539 H516 0.951 . S
C539 C538 1.398 . S
C540 C541 1.384 . S
C540 H553 0.947 . S
C540 C575 1.382 . S
C541 C540 1.384 . S
C541 C542 1.378 . S
C542 C541 1.378 . S
C542 C543 1.378 . S
C542 H554 0.952 . S
C543 C542 1.378 . S
C543 H555 0.950 . S
C543 C574 1.383 . S
H544 C563 0.947 1_545 S
H545 C564 0.946 . S
H546 C566 0.953 . S
H547 C567 0.945 . S
H548 C569 0.952 . S
H549 C570 0.949 . S
H550 C572 0.950 . S
H551 C573 0.948 . S
H552 C575 0.951 1_556 S
H553 C540 0.947 . S
H554 C542 0.952 . S
H555 C543 0.950 . S
N556 C559 1.382 1_554 S
N556 C561 1.363 . S
N557 C559 1.371 . S
N557 C560 1.372 . S
N558 C560 1.361 . S
N558 C561 1.377 1_556 S
C559 N556 1.382 1_556 S
C559 N557 1.371 . S
C559 C562 1.480 1_545 S
C560 N557 1.372 . S
C560 N558 1.361 . S
C560 C568 1.457 . S
C561 N556 1.363 . S
C561 N558 1.377 1_554 S
C561 C574 1.479 . S
C562 C559 1.480 1_565 S
C562 C563 1.383 1_556 S
C562 C567 1.385 . S
C563 H544 0.947 1_565 S
C563 C562 1.383 1_554 S
C563 C564 1.388 . S
C564 H545 0.946 . S
C564 C563 1.388 . S
C564 C565 1.379 1_554 S
C565 C564 1.379 1_556 S
C565 C566 1.383 . S
C566 H546 0.953 . S
C566 C565 1.383 . S
C566 C567 1.369 . S
C567 H547 0.945 . S
C567 C562 1.385 . S
C567 C566 1.369 . S
C568 C560 1.457 . S
C568 C569 1.372 1_545 S
C568 C573 1.364 . S
C569 H548 0.952 . S
C569 C568 1.372 1_565 S
C569 C570 1.389 . S
C570 H549 0.949 . S
C570 C569 1.389 . S
C570 C571 1.387 1_565 S
C571 C570 1.387 1_545 S
C571 C572 1.372 . S
C572 H550 0.950 . S
C572 C571 1.372 . S
C572 C573 1.379 . S
C573 H551 0.948 . S
C573 C568 1.364 . S
C573 C572 1.379 . S
C574 C543 1.383 . S
C574 C561 1.479 . S
C574 C575 1.398 . S
C575 C540 1.382 . S
C575 H552 0.951 1_554 S
C575 C574 1.398 . S
Mn576 O581 2.095 . S
Mn576 O591 2.162 . S
Mn576 O592 2.297 . S
Mn576 O600 2.385 1_554 S
Mn576 O601 2.209 1_554 S
Mn576 O602 2.094 . S
Mn577 O582 2.121 . S
Mn577 N584 2.257 . S
Mn577 N593 2.282 . S
Mn577 O601 2.215 . S
Mn577 O603 2.117 . S
C578 O600 1.234 . S
C578 O601 1.283 . S
C579 O591 1.281 . S
C579 O592 1.236 . S
C580 O602 1.240 . S
C580 O603 1.264 1_554 S
O581 Mn576 2.095 . S
O581 C590 1.236 1_554 S
O582 Mn577 2.121 . S
O582 C590 1.276 . S
C583 N584 1.326 . S
C583 C587 1.460 . S
C583 H589 0.929 . S
N584 Mn577 2.257 . S
N584 C583 1.326 . S
N584 C588 1.362 . S
C585 C586 1.258 . S
C585 C588 1.431 . S
C585 C605 1.449 . S
C586 C585 1.258 . S
C586 C587 1.477 . S
C586 H606 0.931 . S
C587 C583 1.460 . S
C587 C586 1.477 . S
C587 H607 0.930 . S
C588 N584 1.362 . S
C588 C585 1.431 . S
C588 C598 1.476 . S
H589 C583 0.929 . S
C590 O581 1.236 1_556 S
C590 O582 1.276 . S
O591 Mn576 2.162 . S
O591 C579 1.281 . S
O592 Mn576 2.297 . S
O592 C579 1.236 . S
N593 Mn577 2.282 . S
N593 C594 1.328 . S
N593 C598 1.318 . S
C594 N593 1.328 . S
C594 C595 1.457 . S
C594 H599 0.929 . S
C595 C594 1.457 . S
C595 C596 1.291 . S
C595 H608 0.931 . S
C596 C595 1.291 . S
C596 C597 1.373 . S
C596 H609 0.929 . S
C597 C596 1.373 . S
C597 C598 1.396 . S
C597 C604 1.403 . S
C598 C588 1.476 . S
C598 N593 1.318 . S
C598 C597 1.396 . S
H599 C594 0.929 . S
O600 Mn576 2.385 1_556 S
O600 C578 1.234 . S
O601 Mn576 2.209 1_556 S
O601 Mn577 2.215 . S
O601 C578 1.283 . S
O602 Mn576 2.094 . S
O602 C580 1.240 . S
O603 Mn577 2.117 . S
O603 C580 1.264 1_556 S
C604 C597 1.403 . S
C604 C605 1.399 . S
C604 H610 0.929 . S
C605 C585 1.449 . S
C605 C604 1.399 . S
C605 H611 0.930 . S
H606 C586 0.931 . S
H607 C587 0.930 . S
H608 C595 0.931 . S
H609 C596 0.929 . S
H610 C604 0.929 . S
H611 C605 0.930 . S
Mn612 O617 2.095 . S
Mn612 O627 2.162 . S
Mn612 O628 2.297 . S
Mn612 O636 2.385 . S
Mn612 O637 2.209 . S
Mn612 O638 2.094 . S
Mn613 O618 2.121 . S
Mn613 N620 2.257 . S
Mn613 N629 2.282 . S
Mn613 O637 2.215 . S
Mn613 O639 2.117 . S
C614 O636 1.234 . S
C614 O637 1.283 . S
C615 O627 1.281 . S
C615 O628 1.236 . S
C616 O638 1.240 . S
C616 O639 1.264 . S
O617 Mn612 2.095 . S
O617 C626 1.250 . S
O618 Mn613 2.121 . S
O618 C626 1.258 . S
C619 N620 1.326 . S
C619 C623 1.460 . S
C619 H625 0.929 . S
N620 Mn613 2.257 . S
N620 C619 1.326 . S
N620 C624 1.362 . S
C621 C622 1.258 . S
C621 C624 1.431 . S
C621 C641 1.449 . S
C622 C621 1.258 . S
C622 C623 1.477 . S
C622 H642 0.931 . S
C623 C619 1.460 . S
C623 C622 1.477 . S
C623 H643 0.930 . S
C624 N620 1.362 . S
C624 C621 1.431 . S
C624 C634 1.476 . S
H625 C619 0.929 . S
C626 O617 1.250 . S
C626 O618 1.258 . S
O627 Mn612 2.162 . S
O627 C615 1.281 . S
O628 Mn612 2.297 . S
O628 C615 1.236 . S
N629 Mn613 2.282 . S
N629 C630 1.328 . S
N629 C634 1.318 . S
C630 N629 1.328 . S
C630 C631 1.457 . S
C630 H635 0.929 . S
C631 C630 1.457 . S
C631 C632 1.291 . S
C631 H644 0.931 . S
C632 C631 1.291 . S
C632 C633 1.373 . S
C632 H645 0.929 . S
C633 C632 1.373 . S
C633 C634 1.396 . S
C633 C640 1.403 . S
C634 C624 1.476 . S
C634 N629 1.318 . S
C634 C633 1.396 . S
H635 C630 0.929 . S
O636 Mn612 2.385 . S
O636 C614 1.234 . S
O637 Mn612 2.209 . S
O637 Mn613 2.215 . S
O637 C614 1.283 . S
O638 Mn612 2.094 . S
O638 C616 1.240 . S
O639 Mn613 2.117 . S
O639 C616 1.264 . S
C640 C633 1.403 . S
C640 C641 1.399 . S
C640 H646 0.929 . S
C641 C621 1.449 . S
C641 C640 1.399 . S
C641 H647 0.930 . S
H642 C622 0.931 . S
H643 C623 0.930 . S
H644 C631 0.931 . S
H645 C632 0.929 . S
H646 C640 0.929 . S
H647 C641 0.930 . S
Mn648 O653 2.095 1_554 S
Mn648 O663 2.162 . S
Mn648 O664 2.297 1_554 S
Mn648 O672 2.385 . S
Mn648 O673 2.209 1_554 S
Mn648 O674 2.094 . S
Mn649 O654 2.121 . S
Mn649 N656 2.257 . S
Mn649 N665 2.282 . S
Mn649 O673 2.215 . S
Mn649 O675 2.117 1_556 S
C650 O672 1.252 . S
C650 O673 1.270 1_554 S
C651 O663 1.281 . S
C651 O664 1.236 1_554 S
C652 O674 1.240 . S
C652 O675 1.264 . S
O653 Mn648 2.095 1_556 S
O653 C662 1.250 . S
O654 Mn649 2.121 . S
O654 C662 1.258 . S
C655 N656 1.326 . S
C655 C659 1.460 . S
C655 H661 0.929 . S
N656 Mn649 2.257 . S
N656 C655 1.326 . S
N656 C660 1.362 . S
C657 C658 1.258 . S
C657 C660 1.431 . S
C657 C677 1.449 . S
C658 C657 1.258 . S
C658 C659 1.477 . S
C658 H678 0.931 . S
C659 C655 1.460 . S
C659 C658 1.477 . S
C659 H679 0.930 . S
C660 N656 1.362 . S
C660 C657 1.431 . S
C660 C670 1.476 . S
H661 C655 0.929 . S
C662 O653 1.250 . S
C662 O654 1.258 . S
O663 Mn648 2.162 . S
O663 C651 1.281 . S
O664 Mn648 2.297 1_556 S
O664 C651 1.236 1_556 S
N665 Mn649 2.282 . S
N665 C666 1.328 1_556 S
N665 C670 1.318 . S
C666 N665 1.328 1_554 S
C666 C667 1.457 . S
C666 H671 0.929 . S
C667 C666 1.457 . S
C667 C668 1.291 . S
C667 H680 0.931 . S
C668 C667 1.291 . S
C668 C669 1.373 1_554 S
C668 H681 0.929 . S
C669 C668 1.373 1_556 S
C669 C670 1.396 . S
C669 C676 1.403 . S
C670 C660 1.476 . S
C670 N665 1.318 . S
C670 C669 1.396 . S
H671 C666 0.929 . S
O672 Mn648 2.385 . S
O672 C650 1.252 . S
O673 Mn648 2.209 1_556 S
O673 Mn649 2.215 . S
O673 C650 1.270 1_556 S
O674 Mn648 2.094 . S
O674 C652 1.240 . S
O675 Mn649 2.117 1_554 S
O675 C652 1.264 . S
C676 C669 1.403 . S
C676 C677 1.399 . S
C676 H682 0.929 . S
C677 C657 1.449 . S
C677 C676 1.399 . S
C677 H683 0.930 . S
H678 C658 0.931 . S
H679 C659 0.930 . S
H680 C667 0.931 . S
H681 C668 0.929 . S
H682 C676 0.929 . S
H683 C677 0.930 . S
Mn684 O689 2.095 . S
Mn684 O699 2.162 . S
Mn684 O700 2.297 . S
Mn684 O708 2.385 1_545 S
Mn684 O709 2.209 1_545 S
Mn684 O710 2.094 . S
Mn685 O690 2.121 . S
Mn685 N692 2.257 . S
Mn685 N701 2.282 . S
Mn685 O709 2.215 . S
Mn685 O711 2.117 . S
C686 O708 1.234 . S
C686 O709 1.283 . S
C687 O699 1.281 . S
C687 O700 1.236 . S
C688 O710 1.240 . S
C688 O711 1.264 1_545 S
O689 Mn684 2.095 . S
O689 C698 1.250 1_545 S
O690 Mn685 2.121 . S
O690 C698 1.258 . S
C691 N692 1.326 . S
C691 C695 1.460 . S
C691 H697 0.929 . S
N692 Mn685 2.257 . S
N692 C691 1.326 . S
N692 C696 1.362 . S
C693 C694 1.258 . S
C693 C696 1.431 . S
C693 C713 1.449 . S
C694 C693 1.258 . S
C694 C695 1.477 . S
C694 H714 0.931 . S
C695 C691 1.460 . S
C695 C694 1.477 . S
C695 H715 0.930 . S
C696 N692 1.362 . S
C696 C693 1.431 . S
C696 C706 1.476 . S
H697 C691 0.929 . S
C698 O689 1.250 1_565 S
C698 O690 1.258 . S
O699 Mn684 2.162 . S
O699 C687 1.281 . S
O700 Mn684 2.297 . S
O700 C687 1.236 . S
N701 Mn685 2.282 . S
N701 C702 1.328 . S
N701 C706 1.318 . S
C702 N701 1.328 . S
C702 C703 1.457 . S
C702 H707 0.929 . S
C703 C702 1.457 . S
C703 C704 1.291 . S
C703 H716 0.931 . S
C704 C703 1.291 . S
C704 C705 1.373 . S
C704 H717 0.929 . S
C705 C704 1.373 . S
C705 C706 1.396 . S
C705 C712 1.403 . S
C706 C696 1.476 . S
C706 N701 1.318 . S
C706 C705 1.396 . S
H707 C702 0.929 . S
O708 Mn684 2.385 1_565 S
O708 C686 1.234 . S
O709 Mn684 2.209 1_565 S
O709 Mn685 2.215 . S
O709 C686 1.283 . S
O710 Mn684 2.094 . S
O710 C688 1.240 . S
O711 Mn685 2.117 . S
O711 C688 1.264 1_565 S
C712 C705 1.403 . S
C712 C713 1.399 . S
C712 H718 0.929 . S
C713 C693 1.449 . S
C713 C712 1.399 . S
C713 H719 0.930 . S
H714 C694 0.931 . S
H715 C695 0.930 . S
H716 C703 0.931 . S
H717 C704 0.929 . S
H718 C712 0.929 . S
H719 C713 0.930 . S
Mn720 O725 2.095 . S
Mn720 O735 2.162 . S
Mn720 O736 2.297 . S
Mn720 O744 2.385 . S
Mn720 O745 2.209 . S
Mn720 O746 2.094 . S
Mn721 O726 2.121 . S
Mn721 N728 2.257 . S
Mn721 N737 2.282 . S
Mn721 O745 2.215 . S
Mn721 O747 2.117 . S
C722 O744 1.234 . S
C722 O745 1.283 . S
C723 O735 1.281 . S
C723 O736 1.236 . S
C724 O746 1.240 . S
C724 O747 1.264 . S
O725 Mn720 2.095 . S
O725 C734 1.250 . S
O726 Mn721 2.121 . S
O726 C734 1.258 . S
C727 N728 1.326 . S
C727 C731 1.460 . S
C727 H733 0.929 . S
N728 Mn721 2.257 . S
N728 C727 1.326 . S
N728 C732 1.362 . S
C729 C730 1.258 . S
C729 C732 1.431 . S
C729 C749 1.449 . S
C730 C729 1.258 . S
C730 C731 1.477 . S
C730 H750 0.931 . S
C731 C727 1.460 . S
C731 C730 1.477 . S
C731 H751 0.930 . S
C732 N728 1.362 . S
C732 C729 1.431 . S
C732 C742 1.476 . S
H733 C727 0.929 . S
C734 O725 1.250 . S
C734 O726 1.258 . S
O735 Mn720 2.162 . S
O735 C723 1.281 . S
O736 Mn720 2.297 . S
O736 C723 1.236 . S
N737 Mn721 2.282 . S
N737 C738 1.328 . S
N737 C742 1.318 . S
C738 N737 1.328 . S
C738 C739 1.457 . S
C738 H743 0.929 . S
C739 C738 1.457 . S
C739 C740 1.291 . S
C739 H752 0.931 . S
C740 C739 1.291 . S
C740 C741 1.373 . S
C740 H753 0.929 . S
C741 C740 1.373 . S
C741 C742 1.396 . S
C741 C748 1.403 . S
C742 C732 1.476 . S
C742 N737 1.318 . S
C742 C741 1.396 . S
H743 C738 0.929 . S
O744 Mn720 2.385 . S
O744 C722 1.234 . S
O745 Mn720 2.209 . S
O745 Mn721 2.215 . S
O745 C722 1.283 . S
O746 Mn720 2.094 . S
O746 C724 1.240 . S
O747 Mn721 2.117 . S
O747 C724 1.264 . S
C748 C741 1.403 . S
C748 C749 1.399 . S
C748 H754 0.929 . S
C749 C729 1.449 . S
C749 C748 1.399 . S
C749 H755 0.930 . S
H750 C730 0.931 . S
H751 C731 0.930 . S
H752 C739 0.931 . S
H753 C740 0.929 . S
H754 C748 0.929 . S
H755 C749 0.930 . S
Mn756 O761 2.095 . S
Mn756 O771 2.162 . S
Mn756 O772 2.297 . S
Mn756 O780 2.385 . S
Mn756 O781 2.209 . S
Mn756 O782 2.094 . S
Mn757 O762 2.121 . S
Mn757 N764 2.257 . S
Mn757 N773 2.282 . S
Mn757 O781 2.215 . S
Mn757 O783 2.117 . S
C758 O780 1.234 . S
C758 O781 1.283 . S
C759 O771 1.281 . S
C759 O772 1.236 . S
C760 O782 1.240 . S
C760 O783 1.264 . S
O761 Mn756 2.095 . S
O761 C770 1.250 . S
O762 Mn757 2.121 . S
O762 C770 1.258 . S
C763 N764 1.326 . S
C763 C767 1.460 . S
C763 H769 0.929 . S
N764 Mn757 2.257 . S
N764 C763 1.326 . S
N764 C768 1.362 . S
C765 C766 1.258 . S
C765 C768 1.431 . S
C765 C785 1.449 . S
C766 C765 1.258 . S
C766 C767 1.477 . S
C766 H786 0.931 . S
C767 C763 1.460 . S
C767 C766 1.477 . S
C767 H787 0.930 . S
C768 N764 1.362 . S
C768 C765 1.431 . S
C768 C778 1.476 . S
H769 C763 0.929 . S
C770 O761 1.250 . S
C770 O762 1.258 . S
O771 Mn756 2.162 . S
O771 C759 1.281 . S
O772 Mn756 2.297 . S
O772 C759 1.236 . S
N773 Mn757 2.282 . S
N773 C774 1.328 . S
N773 C778 1.318 . S
C774 N773 1.328 . S
C774 C775 1.457 . S
C774 H779 0.929 . S
C775 C774 1.457 . S
C775 C776 1.291 . S
C775 H788 0.931 . S
C776 C775 1.291 . S
C776 C777 1.373 . S
C776 H789 0.929 . S
C777 C776 1.373 . S
C777 C778 1.396 . S
C777 C784 1.403 . S
C778 C768 1.476 . S
C778 N773 1.318 . S
C778 C777 1.396 . S
H779 C774 0.929 . S
O780 Mn756 2.385 . S
O780 C758 1.234 . S
O781 Mn756 2.209 . S
O781 Mn757 2.215 . S
O781 C758 1.283 . S
O782 Mn756 2.094 . S
O782 C760 1.240 . S
O783 Mn757 2.117 . S
O783 C760 1.264 . S
C784 C777 1.403 . S
C784 C785 1.399 . S
C784 H790 0.929 . S
C785 C765 1.449 . S
C785 C784 1.399 . S
C785 H791 0.930 . S
H786 C766 0.931 . S
H787 C767 0.930 . S
H788 C775 0.931 . S
H789 C776 0.929 . S
H790 C784 0.929 . S
H791 C785 0.930 . S
Mn792 O797 2.095 . S
Mn792 O807 2.162 . S
Mn792 O808 2.297 . S
Mn792 O816 2.385 . S
Mn792 O817 2.209 . S
Mn792 O818 2.094 . S
Mn793 O798 2.121 . S
Mn793 N800 2.257 . S
Mn793 N809 2.282 . S
Mn793 O817 2.215 . S
Mn793 O819 2.117 . S
C794 O816 1.234 . S
C794 O817 1.283 . S
C795 O807 1.281 . S
C795 O808 1.236 . S
C796 O818 1.240 . S
C796 O819 1.264 . S
O797 Mn792 2.095 . S
O797 C806 1.250 . S
O798 Mn793 2.121 . S
O798 C806 1.258 . S
C799 N800 1.326 . S
C799 C803 1.460 . S
C799 H805 0.929 . S
N800 Mn793 2.257 . S
N800 C799 1.326 . S
N800 C804 1.362 . S
C801 C802 1.258 . S
C801 C804 1.431 . S
C801 C821 1.449 . S
C802 C801 1.258 . S
C802 C803 1.477 . S
C802 H822 0.931 . S
C803 C799 1.460 . S
C803 C802 1.477 . S
C803 H823 0.930 . S
C804 N800 1.362 . S
C804 C801 1.431 . S
C804 C814 1.476 . S
H805 C799 0.929 . S
C806 O797 1.250 . S
C806 O798 1.258 . S
O807 Mn792 2.162 . S
O807 C795 1.281 . S
O808 Mn792 2.297 . S
O808 C795 1.236 . S
N809 Mn793 2.282 . S
N809 C810 1.328 . S
N809 C814 1.318 . S
C810 N809 1.328 . S
C810 C811 1.457 . S
C810 H815 0.929 . S
C811 C810 1.457 . S
C811 C812 1.291 . S
C811 H824 0.931 . S
C812 C811 1.291 . S
C812 C813 1.373 . S
C812 H825 0.929 . S
C813 C812 1.373 . S
C813 C814 1.396 . S
C813 C820 1.403 . S
C814 C804 1.476 . S
C814 N809 1.318 . S
C814 C813 1.396 . S
H815 C810 0.929 . S
O816 Mn792 2.385 . S
O816 C794 1.234 . S
O817 Mn792 2.209 . S
O817 Mn793 2.215 . S
O817 C794 1.283 . S
O818 Mn792 2.094 . S
O818 C796 1.240 . S
O819 Mn793 2.117 . S
O819 C796 1.264 . S
C820 C813 1.403 . S
C820 C821 1.399 . S
C820 H826 0.929 . S
C821 C801 1.449 . S
C821 C820 1.399 . S
C821 H827 0.930 . S
H822 C802 0.931 . S
H823 C803 0.930 . S
H824 C811 0.931 . S
H825 C812 0.929 . S
H826 C820 0.929 . S
H827 C821 0.930 . S
Mn828 O833 2.095 . S
Mn828 O843 2.162 . S
Mn828 O844 2.297 . S
Mn828 O852 2.385 1_565 S
Mn828 O853 2.209 1_565 S
Mn828 O854 2.094 . S
Mn829 O834 2.121 . S
Mn829 N836 2.257 . S
Mn829 N845 2.282 . S
Mn829 O853 2.215 . S
Mn829 O855 2.117 . S
C830 O852 1.234 . S
C830 O853 1.283 . S
C831 O843 1.281 . S
C831 O844 1.236 . S
C832 O854 1.220 1_545 S
C832 O855 1.290 . S
O833 Mn828 2.095 . S
O833 C842 1.250 1_565 S
O834 Mn829 2.121 . S
O834 C842 1.258 . S
C835 N836 1.326 . S
C835 C839 1.460 . S
C835 H841 0.929 . S
N836 Mn829 2.257 . S
N836 C835 1.326 . S
N836 C840 1.362 . S
C837 C838 1.258 . S
C837 C840 1.431 . S
C837 C857 1.449 . S
C838 C837 1.258 . S
C838 C839 1.477 . S
C838 H858 0.931 . S
C839 C835 1.460 . S
C839 C838 1.477 . S
C839 H859 0.930 . S
C840 N836 1.362 . S
C840 C837 1.431 . S
C840 C850 1.476 . S
H841 C835 0.929 . S
C842 O833 1.250 1_545 S
C842 O834 1.258 . S
O843 Mn828 2.162 . S
O843 C831 1.281 . S
O844 Mn828 2.297 . S
O844 C831 1.236 . S
N845 Mn829 2.282 . S
N845 C846 1.328 . S
N845 C850 1.318 . S
C846 N845 1.328 . S
C846 C847 1.457 . S
C846 H851 0.929 . S
C847 C846 1.457 . S
C847 C848 1.291 . S
C847 H860 0.931 . S
C848 C847 1.291 . S
C848 C849 1.373 . S
C848 H861 0.929 . S
C849 C848 1.373 . S
C849 C850 1.396 . S
C849 C856 1.403 . S
C850 C840 1.476 . S
C850 N845 1.318 . S
C850 C849 1.396 . S
H851 C846 0.929 . S
O852 Mn828 2.385 1_545 S
O852 C830 1.234 . S
O853 Mn828 2.209 1_545 S
O853 Mn829 2.215 . S
O853 C830 1.283 . S
O854 Mn828 2.094 . S
O854 C832 1.220 1_565 S
O855 Mn829 2.117 . S
O855 C832 1.290 . S
C856 C849 1.403 . S
C856 C857 1.399 . S
C856 H862 0.929 . S
C857 C837 1.449 . S
C857 C856 1.399 . S
C857 H863 0.930 . S
H858 C838 0.931 . S
H859 C839 0.930 . S
H860 C847 0.931 . S
H861 C848 0.929 . S
H862 C856 0.929 . S
H863 C857 0.930 . S
Mn864 O869 2.095 . S
Mn864 O879 2.162 . S
Mn864 O880 2.297 . S
Mn864 O888 2.385 1_455 S
Mn864 O889 2.209 1_455 S
Mn864 O890 2.094 . S
Mn865 O870 2.121 . S
Mn865 N872 2.257 . S
Mn865 N881 2.282 . S
Mn865 O889 2.215 . S
Mn865 O891 2.117 . S
C866 O888 1.234 . S
C866 O889 1.283 . S
C867 O879 1.281 . S
C867 O880 1.236 . S
C868 O890 1.240 . S
C868 O891 1.264 1_455 S
O869 Mn864 2.095 . S
O869 C878 1.250 1_455 S
O870 Mn865 2.121 . S
O870 C878 1.258 . S
C871 N872 1.326 . S
C871 C875 1.460 . S
C871 H877 0.929 . S
N872 Mn865 2.257 . S
N872 C871 1.326 . S
N872 C876 1.362 . S
C873 C874 1.258 . S
C873 C876 1.431 . S
C873 C893 1.449 . S
C874 C873 1.258 . S
C874 C875 1.477 . S
C874 H894 0.931 . S
C875 C871 1.460 . S
C875 C874 1.477 . S
C875 H895 0.930 . S
C876 N872 1.362 . S
C876 C873 1.431 . S
C876 C886 1.476 . S
H877 C871 0.929 . S
C878 O869 1.250 1_655 S
C878 O870 1.258 . S
O879 Mn864 2.162 . S
O879 C867 1.281 . S
O880 Mn864 2.297 . S
O880 C867 1.236 . S
N881 Mn865 2.282 . S
N881 C882 1.328 . S
N881 C886 1.318 . S
C882 N881 1.328 . S
C882 C883 1.457 . S
C882 H887 0.929 . S
C883 C882 1.457 . S
C883 C884 1.291 . S
C883 H896 0.931 . S
C884 C883 1.291 . S
C884 C885 1.373 . S
C884 H897 0.929 . S
C885 C884 1.373 . S
C885 C886 1.396 . S
C885 C892 1.403 . S
C886 C876 1.476 . S
C886 N881 1.318 . S
C886 C885 1.396 . S
H887 C882 0.929 . S
O888 Mn864 2.385 1_655 S
O888 C866 1.234 . S
O889 Mn864 2.209 1_655 S
O889 Mn865 2.215 . S
O889 C866 1.283 . S
O890 Mn864 2.094 . S
O890 C868 1.240 . S
O891 Mn865 2.117 . S
O891 C868 1.264 1_655 S
C892 C885 1.403 . S
C892 C893 1.399 . S
C892 H898 0.929 . S
C893 C873 1.449 . S
C893 C892 1.399 . S
C893 H899 0.930 . S
H894 C874 0.931 . S
H895 C875 0.930 . S
H896 C883 0.931 . S
H897 C884 0.929 . S
H898 C892 0.929 . S
H899 C893 0.930 . S
Mn900 O905 2.095 . S
Mn900 O915 2.162 . S
Mn900 O916 2.297 . S
Mn900 O924 2.385 . S
Mn900 O925 2.209 . S
Mn900 O926 2.094 . S
Mn901 O906 2.121 . S
Mn901 N908 2.257 . S
Mn901 N917 2.282 . S
Mn901 O925 2.215 . S
Mn901 O927 2.117 . S
C902 O924 1.234 . S
C902 O925 1.283 . S
C903 O915 1.281 . S
C903 O916 1.236 . S
C904 O926 1.240 . S
C904 O927 1.264 . S
O905 Mn900 2.095 . S
O905 C914 1.250 . S
O906 Mn901 2.121 . S
O906 C914 1.258 . S
C907 N908 1.326 . S
C907 C911 1.460 . S
C907 H913 0.929 . S
N908 Mn901 2.257 . S
N908 C907 1.326 . S
N908 C912 1.362 . S
C909 C910 1.258 . S
C909 C912 1.431 . S
C909 C929 1.449 . S
C910 C909 1.258 . S
C910 C911 1.477 . S
C910 H930 0.931 . S
C911 C907 1.460 . S
C911 C910 1.477 . S
C911 H931 0.930 . S
C912 N908 1.362 . S
C912 C909 1.431 . S
C912 C922 1.476 . S
H913 C907 0.929 . S
C914 O905 1.250 . S
C914 O906 1.258 . S
O915 Mn900 2.162 . S
O915 C903 1.281 . S
O916 Mn900 2.297 . S
O916 C903 1.236 . S
N917 Mn901 2.282 . S
N917 C918 1.328 . S
N917 C922 1.318 . S
C918 N917 1.328 . S
C918 C919 1.457 . S
C918 H923 0.929 . S
C919 C918 1.457 . S
C919 C920 1.291 . S
C919 H932 0.931 . S
C920 C919 1.291 . S
C920 C921 1.373 . S
C920 H933 0.929 . S
C921 C920 1.373 . S
C921 C922 1.396 . S
C921 C928 1.403 . S
C922 C912 1.476 . S
C922 N917 1.318 . S
C922 C921 1.396 . S
H923 C918 0.929 . S
O924 Mn900 2.385 . S
O924 C902 1.234 . S
O925 Mn900 2.209 . S
O925 Mn901 2.215 . S
O925 C902 1.283 . S
O926 Mn900 2.094 . S
O926 C904 1.240 . S
O927 Mn901 2.117 . S
O927 C904 1.264 . S
C928 C921 1.403 . S
C928 C929 1.399 . S
C928 H934 0.929 . S
C929 C909 1.449 . S
C929 C928 1.399 . S
C929 H935 0.930 . S
H930 C910 0.931 . S
H931 C911 0.930 . S
H932 C919 0.931 . S
H933 C920 0.929 . S
H934 C928 0.929 . S
H935 C929 0.930 . S
Mn936 O941 2.095 1_455 S
Mn936 O951 2.162 . S
Mn936 O952 2.297 1_455 S
Mn936 O960 2.385 . S
Mn936 O961 2.209 1_455 S
Mn936 O962 2.094 . S
Mn937 O942 2.121 . S
Mn937 N944 2.257 . S
Mn937 N953 2.282 1_655 S
Mn937 O961 2.215 . S
Mn937 O963 2.117 1_655 S
C938 O960 1.234 . S
C938 O961 1.283 1_455 S
C939 O951 1.281 . S
C939 O952 1.236 1_455 S
C940 O962 1.240 . S
C940 O963 1.264 . S
O941 Mn936 2.095 1_655 S
O941 C950 1.250 . S
O942 Mn937 2.121 . S
O942 C950 1.258 . S
C943 N944 1.326 . S
C943 C947 1.460 . S
C943 H949 0.929 . S
N944 Mn937 2.257 . S
N944 C943 1.326 . S
N944 C948 1.362 . S
C945 C946 1.258 . S
C945 C948 1.431 . S
C945 C965 1.449 . S
C946 C945 1.258 . S
C946 C947 1.477 . S
C946 H966 0.931 . S
C947 C943 1.460 . S
C947 C946 1.477 . S
C947 H967 0.930 . S
C948 N944 1.362 . S
C948 C945 1.431 . S
C948 C958 1.476 . S
H949 C943 0.929 . S
C950 O941 1.250 . S
C950 O942 1.258 . S
O951 Mn936 2.162 . S
O951 C939 1.281 . S
O952 Mn936 2.297 1_655 S
O952 C939 1.236 1_655 S
N953 Mn937 2.282 1_455 S
N953 C954 1.328 . S
N953 C958 1.318 1_455 S
C954 N953 1.328 . S
C954 C955 1.457 . S
C954 H959 0.929 . S
C955 C954 1.457 . S
C955 C956 1.291 . S
C955 H968 0.931 . S
C956 C955 1.291 . S
C956 C957 1.373 1_455 S
C956 H969 0.929 . S
C957 C956 1.373 1_655 S
C957 C958 1.396 . S
C957 C964 1.403 . S
C958 C948 1.476 . S
C958 N953 1.318 1_655 S
C958 C957 1.396 . S
H959 C954 0.929 . S
O960 Mn936 2.385 . S
O960 C938 1.234 . S
O961 Mn936 2.209 1_655 S
O961 Mn937 2.215 . S
O961 C938 1.283 1_655 S
O962 Mn936 2.094 . S
O962 C940 1.240 . S
O963 Mn937 2.117 1_455 S
O963 C940 1.264 . S
C964 C957 1.403 . S
C964 C965 1.399 . S
C964 H970 0.929 . S
C965 C945 1.449 . S
C965 C964 1.399 . S
C965 H971 0.930 . S
H966 C946 0.931 . S
H967 C947 0.930 . S
H968 C955 0.931 . S
H969 C956 0.929 . S
H970 C964 0.929 . S
H971 C965 0.930 . S
Mn972 O977 2.095 . S
Mn972 O987 2.162 . S
Mn972 O988 2.297 . S
Mn972 O996 2.385 . S
Mn972 O997 2.209 . S
Mn972 O998 2.094 . S
Mn973 O978 2.121 . S
Mn973 N980 2.257 . S
Mn973 N989 2.282 . S
Mn973 O997 2.215 . S
Mn973 O999 2.117 . S
C974 O996 1.234 . S
C974 O997 1.283 . S
C975 O987 1.281 . S
C975 O988 1.236 . S
C976 O998 1.240 . S
C976 O999 1.264 . S
O977 Mn972 2.095 . S
O977 C986 1.250 . S
O978 Mn973 2.121 . S
O978 C986 1.258 . S
C979 N980 1.326 . S
C979 C983 1.460 . S
C979 H985 0.929 . S
N980 Mn973 2.257 . S
N980 C979 1.326 . S
N980 C984 1.362 . S
C981 C982 1.258 . S
C981 C984 1.431 . S
C981 C1001 1.449 . S
C982 C981 1.258 . S
C982 C983 1.477 . S
C982 H1002 0.931 . S
C983 C979 1.460 . S
C983 C982 1.477 . S
C983 H1003 0.930 . S
C984 N980 1.362 . S
C984 C981 1.431 . S
C984 C994 1.476 . S
H985 C979 0.929 . S
C986 O977 1.250 . S
C986 O978 1.258 . S
O987 Mn972 2.162 . S
O987 C975 1.281 . S
O988 Mn972 2.297 . S
O988 C975 1.236 . S
N989 Mn973 2.282 . S
N989 C990 1.328 . S
N989 C994 1.318 . S
C990 N989 1.328 . S
C990 C991 1.457 . S
C990 H995 0.929 . S
C991 C990 1.457 . S
C991 C992 1.291 . S
C991 H1004 0.931 . S
C992 C991 1.291 . S
C992 C993 1.373 . S
C992 H1005 0.929 . S
C993 C992 1.373 . S
C993 C994 1.396 . S
C993 C1000 1.403 . S
C994 C984 1.476 . S
C994 N989 1.318 . S
C994 C993 1.396 . S
H995 C990 0.929 . S
O996 Mn972 2.385 . S
O996 C974 1.234 . S
O997 Mn972 2.209 . S
O997 Mn973 2.215 . S
O997 C974 1.283 . S
O998 Mn972 2.094 . S
O998 C976 1.240 . S
O999 Mn973 2.117 . S
O999 C976 1.264 . S
C1000 C993 1.403 . S
C1000 C1001 1.399 . S
C1000 H1006 0.929 . S
C1001 C981 1.449 . S
C1001 C1000 1.399 . S
C1001 H1007 0.930 . S
H1002 C982 0.931 . S
H1003 C983 0.930 . S
H1004 C991 0.931 . S
H1005 C992 0.929 . S
H1006 C1000 0.929 . S
H1007 C1001 0.930 . S
C578 C181 1.657 . S
C626 C247 1.766 . S
C283 C662 1.576 . S
C698 C169 1.582 . S
C724 C361 1.734 . S
C760 C433 1.591 . S
C421 C795 1.760 . S
C832 C355 1.677 1_545 S
C427 C866 1.635 . S
C914 C325 1.666 . S
C385 C867 1.785 . S
C904 C463 1.661 . S
C253 C950 1.613 . S
C145 C939 1.634 . S
C205 C940 1.722 . S
C217 C938 1.701 . S
C139 C686 1.776 . S
C535 C687 1.740 . S
C590 C565 1.706 . S
C615 C313 1.640 . S
C175 C722 1.673 . S
C830 C397 1.677 . S
C723 C349 1.621 . S
C796 C457 1.635 . S
C794 C505 1.657 . S
C571 C842 1.766 . S
C319 C734 1.576 . S
C770 C493 1.582 . S
C109 C652 1.734 . S
C688 C1 1.591 . S
C579 C61 1.760 . S
C616 C103 1.681 . S
C67 C902 1.635 . S
C73 C878 1.666 . S
C133 C903 1.785 . S
C31 C868 1.661 . S
C986 C289 1.613 . S
C975 C469 1.634 . S
C976 C529 1.722 . S
C541 C974 1.699 . S
C391 C758 1.776 . S
C759 C211 1.739 . S
C806 C241 1.706 . S
C831 C277 1.642 . S
C499 C650 1.669 1_556 S
C614 C37 1.678 . S
C97 C651 1.621 . S
C580 C25 1.635 . S
