# Generated by pormake.
# Topology zzz, (3,6)-cn, num edge types: 1
# Building blocks:
#     Node 0, Type 0, BuildingBlock: BETDAH_clean_linker_0, # of connection points: 3
#     Node 1, Type 0, BuildingBlock: BETDAH_clean_linker_0, # of connection points: 3
#     Node 2, Type 0, BuildingBlock: BETDAH_clean_linker_0, # of connection points: 3
#     Node 3, Type 0, BuildingBlock: BETDAH_clean_linker_0, # of connection points: 3
#     Node 4, Type 0, BuildingBlock: BETDAH_clean_linker_0, # of connection points: 3
#     Node 5, Type 0, BuildingBlock: BETDAH_clean_linker_0, # of connection points: 3
#     Node 6, Type 0, BuildingBlock: BETDAH_clean_linker_0, # of connection points: 3
#     Node 7, Type 0, BuildingBlock: BETDAH_clean_linker_0, # of connection points: 3
#     Node 8, Type 1, BuildingBlock: LEVNOQ01_clean_sbu_1, # of connection points: 6
#     Node 9, Type 1, BuildingBlock: LEVNOQ01_clean_sbu_1, # of connection points: 6
#     Node 10, Type 1, BuildingBlock: LEVNOQ01_clean_sbu_1, # of connection points: 6
#     Node 11, Type 1, BuildingBlock: LEVNOQ01_clean_sbu_1, # of connection points: 6
#     Edge 12, Type (0, 1), BuildingBlock: TEMPAE_clean_linker_10, # of connection points: 2
#     Edge 13, Type (0, 1), BuildingBlock: TEMPAE_clean_linker_10, # of connection points: 2
#     Edge 14, Type (0, 1), BuildingBlock: TEMPAE_clean_linker_10, # of connection points: 2
#     Edge 15, Type (0, 1), BuildingBlock: TEMPAE_clean_linker_10, # of connection points: 2
#     Edge 16, Type (0, 1), BuildingBlock: TEMPAE_clean_linker_10, # of connection points: 2
#     Edge 17, Type (0, 1), BuildingBlock: TEMPAE_clean_linker_10, # of connection points: 2
#     Edge 18, Type (0, 1), BuildingBlock: TEMPAE_clean_linker_10, # of connection points: 2
#     Edge 19, Type (0, 1), BuildingBlock: TEMPAE_clean_linker_10, # of connection points: 2
#     Edge 20, Type (0, 1), BuildingBlock: TEMPAE_clean_linker_10, # of connection points: 2
#     Edge 21, Type (0, 1), BuildingBlock: TEMPAE_clean_linker_10, # of connection points: 2
#     Edge 22, Type (0, 1), BuildingBlock: TEMPAE_clean_linker_10, # of connection points: 2
#     Edge 23, Type (0, 1), BuildingBlock: TEMPAE_clean_linker_10, # of connection points: 2
#     Edge 24, Type (0, 1), BuildingBlock: TEMPAE_clean_linker_10, # of connection points: 2
#     Edge 25, Type (0, 1), BuildingBlock: TEMPAE_clean_linker_10, # of connection points: 2
#     Edge 26, Type (0, 1), BuildingBlock: TEMPAE_clean_linker_10, # of connection points: 2
#     Edge 27, Type (0, 1), BuildingBlock: TEMPAE_clean_linker_10, # of connection points: 2
#     Edge 28, Type (0, 1), BuildingBlock: TEMPAE_clean_linker_10, # of connection points: 2
#     Edge 29, Type (0, 1), BuildingBlock: TEMPAE_clean_linker_10, # of connection points: 2
#     Edge 30, Type (0, 1), BuildingBlock: TEMPAE_clean_linker_10, # of connection points: 2
#     Edge 31, Type (0, 1), BuildingBlock: TEMPAE_clean_linker_10, # of connection points: 2
#     Edge 32, Type (0, 1), BuildingBlock: TEMPAE_clean_linker_10, # of connection points: 2
#     Edge 33, Type (0, 1), BuildingBlock: TEMPAE_clean_linker_10, # of connection points: 2
#     Edge 34, Type (0, 1), BuildingBlock: TEMPAE_clean_linker_10, # of connection points: 2
#     Edge 35, Type (0, 1), BuildingBlock: TEMPAE_clean_linker_10, # of connection points: 2
# Relax obj value: 0.137
# Max RMSD: 0.181
# Mean RMSD: 0.107
data_MOF--net-zzz--node1-LEVNOQ01_clean_sbu_1--node2-BETDAH_clean_linker_0--edge1-TEMPAE_clean_linker_10
_symmetry_space_group_name_H-M    P1
_symmetry_Int_Tables_number       1
_symmetry_cell_setting            triclinic
loop_
_symmetry_equiv_pos_as_xyz
'x, y, z'
_cell_length_a     50.892561
_cell_length_b     50.950702
_cell_length_c     16.000152
_cell_angle_alpha  90.269624
_cell_angle_beta   90.120542
_cell_angle_gamma 90.053514
loop_
_atom_site_label
_atom_site_type_symbol
_atom_site_fract_x
_atom_site_fract_y
_atom_site_fract_z
_atom_type_partial_charge
H0 H 0.84125 0.5441 0.1395 0.0
H1 H 0.76503 0.55606 0.03362 0.0
H2 H 0.77474 0.55085 0.30201 0.0
C3 C 0.82024 0.54657 0.14805 0.0
C4 C 0.81025 0.54835 0.22876 0.0
C5 C 0.80441 0.55105 0.07831 0.0
C6 C 0.77724 0.55288 0.08816 0.0
C7 C 0.76626 0.5516 0.16933 0.0
C8 C 0.78295 0.55005 0.23964 0.0
N9 N 0.73873 0.55305 0.18211 0.0
C10 C 0.72084 0.55215 0.11657 0.0
H11 H 0.98717 0.83209 0.14057 0.0
H12 H 0.96147 0.75874 0.04077 0.0
H13 H 0.95624 0.77357 0.30621 0.0
C14 C 0.97964 0.81248 0.15141 0.0
C15 C 0.97065 0.80575 0.23084 0.0
C16 C 0.97441 0.79643 0.08252 0.0
C17 C 0.96561 0.77094 0.0948 0.0
C18 C 0.96104 0.76185 0.17673 0.0
C19 C 0.96227 0.77974 0.24446 0.0
N20 N 0.9543 0.7352 0.19098 0.0
C21 C 0.95902 0.71614 0.13031 0.0
H22 H 0.69892 0.9212 0.18581 0.0
H23 H 0.74714 0.97046 0.03265 0.0
H24 H 0.7445 0.98307 0.29521 0.0
C25 C 0.71381 0.93625 0.17912 0.0
C26 C 0.71914 0.95222 0.24836 0.0
C27 C 0.71867 0.94688 0.09978 0.0
C28 C 0.74074 0.96338 0.09286 0.0
C29 C 0.75194 0.97451 0.1653 0.0
C30 C 0.73956 0.97063 0.24231 0.0
N31 N 0.77332 0.99211 0.15984 0.0
C32 C 0.79222 0.98879 0.09857 0.0
H33 H 0.5615 0.6743 0.13168 0.0
H34 H 0.56665 0.75209 0.03286 0.0
H35 H 0.5474 0.74002 0.29327 0.0
C36 C 0.56063 0.69537 0.14118 0.0
C37 C 0.55367 0.70497 0.21967 0.0
C38 C 0.56549 0.71215 0.07397 0.0
C39 C 0.56345 0.73924 0.08561 0.0
C40 C 0.55733 0.74945 0.16557 0.0
C41 C 0.55279 0.73221 0.23258 0.0
N42 N 0.55462 0.77683 0.17943 0.0
C43 C 0.55225 0.79455 0.11423 0.0
H44 H 0.19044 0.48469 0.25393 0.0
H45 H 0.25604 0.45245 0.3867 0.0
H46 H 0.25645 0.45509 0.1169 0.0
C47 C 0.21033 0.47688 0.25321 0.0
C48 C 0.22195 0.47099 0.17692 0.0
C49 C 0.22163 0.46867 0.32809 0.0
C50 C 0.24724 0.45869 0.32841 0.0
C51 C 0.2606 0.45519 0.25182 0.0
C52 C 0.24722 0.45993 0.17594 0.0
N53 N 0.28676 0.44555 0.2491 0.0
C54 C 0.3045 0.44834 0.31493 0.0
H55 H 0.0797 0.17848 0.30939 0.0
H56 H 0.05282 0.25488 0.38 0.0
H57 H 0.0778 0.24016 0.12836 0.0
C58 C 0.07828 0.19929 0.29535 0.0
C59 C 0.07968 0.20704 0.21202 0.0
C60 C 0.06562 0.21562 0.35319 0.0
C61 C 0.06272 0.24231 0.33531 0.0
C62 C 0.06963 0.2518 0.25554 0.0
C63 C 0.07654 0.23374 0.19271 0.0
N64 N 0.06684 0.27869 0.23437 0.0
C65 C 0.06245 0.29809 0.29398 0.0
H66 H 0.34235 0.06513 0.28304 0.0
H67 H 0.26496 0.06385 0.38604 0.0
H68 H 0.27627 0.05214 0.12091 0.0
C69 C 0.32122 0.06445 0.27349 0.0
C70 C 0.31146 0.05811 0.1944 0.0
C71 C 0.30467 0.06574 0.34269 0.0
C72 C 0.27753 0.06361 0.33151 0.0
C73 C 0.26701 0.0599 0.25057 0.0
C74 C 0.28415 0.05696 0.18205 0.0
N75 N 0.23956 0.0569 0.23768 0.0
C76 C 0.22213 0.05295 0.30322 0.0
H77 H 0.44947 0.33754 0.2963 0.0
H78 H 0.46229 0.26021 0.38719 0.0
H79 H 0.45966 0.27413 0.12144 0.0
C80 C 0.45059 0.31664 0.2832 0.0
C81 C 0.45343 0.30809 0.20071 0.0
C82 C 0.45434 0.29949 0.3499 0.0
C83 C 0.45832 0.2729 0.33456 0.0
C84 C 0.45915 0.26337 0.25173 0.0
C85 C 0.4572 0.28114 0.18498 0.0
N86 N 0.46384 0.23642 0.23471 0.0
C87 C 0.46618 0.21835 0.29894 0.0
O88 O 0.04601 0.96204 0.8678 0.0
Mg89 Mg 0.05094 0.97132 0.74002 0.0
O90 O 0.00898 0.97557 0.81739 0.0
Mg91 Mg 0.01334 0.00864 0.72401 0.0
O92 O 0.05955 0.0084 0.69704 0.0
O93 O 0.08903 0.97593 0.71686 0.0
O94 O 0.01358 0.043 0.62033 0.0
O95 O 0.0246 0.03635 0.83733 0.0
Mg96 Mg 0.98332 0.04221 0.72708 0.0
O97 O 0.9685 0.00651 0.75911 0.0
O98 O 0.97131 0.05083 0.60759 0.0
O99 O 0.01076 0.07047 0.77039 0.0
O100 O 0.95536 0.04451 0.81483 0.0
C101 C 0.0125 0.95577 0.6055 0.0
C102 C 0.02131 0.96142 0.86883 0.0
C103 C 0.08365 -0.00043 0.69419 0.0
C104 C 0.9946 0.05511 0.5841 0.0
C105 C 0.02401 0.0611 0.82916 0.0
C106 C 0.9523 0.01962 0.80543 0.0
O107 O 0.03157 0.9475 0.64924 0.0
O108 O 0.00307 0.97871 0.61749 0.0
O109 O 0.4836 0.99418 0.90118 0.0
Mg110 Mg 0.48513 0.97651 0.78193 0.0
O111 O 0.47921 0.02276 0.80248 0.0
Mg112 Mg 0.51159 0.00902 0.70432 0.0
O113 O 0.51906 0.96269 0.73595 0.0
O114 O 0.48702 0.93796 0.79389 0.0
O115 O 0.54365 -0.00189 0.60223 0.0
O116 O 0.54313 0.01309 0.80446 0.0
Mg117 Mg 0.54609 0.05018 0.66499 0.0
O118 O 0.5064 0.05428 0.6738 0.0
O119 O 0.55837 0.03519 0.55042 0.0
O120 O 0.57109 0.04337 0.76517 0.0
O121 O 0.53564 0.08765 0.66541 0.0
C122 C 0.45596 0.99527 0.63239 0.0
C123 C 0.47391 0.01552 0.8765 0.0
C124 C 0.51025 0.94014 0.76277 0.0
C125 C 0.55771 0.01041 0.54917 0.0
C126 C 0.56443 0.02558 0.81504 0.0
C127 C 0.51174 0.07923 0.66596 0.0
O128 O 0.45371 0.98426 0.70249 0.0
O129 O 0.47836 0.00313 0.60768 0.0
O130 O 0.53694 0.44339 0.78732 0.0
Mg131 Mg 0.5574 0.4648 0.6908 0.0
O132 O 0.50702 0.47381 0.81745 0.0
Mg133 Mg 0.51206 0.50556 0.71849 0.0
O134 O 0.55731 0.50296 0.72771 0.0
O135 O 0.59416 0.47985 0.71222 0.0
O136 O 0.51558 0.53907 0.62154 0.0
O137 O 0.51919 0.53695 0.81514 0.0
Mg138 Mg 0.46945 0.54296 0.76914 0.0
O139 O 0.4665 0.5067 0.71474 0.0
O140 O 0.48624 0.56709 0.67403 0.0
O141 O 0.48565 0.5488 0.88983 0.0
O142 O 0.43167 0.52958 0.75778 0.0
C143 C 0.51994 0.46183 0.5624 0.0
C144 C 0.51756 0.45157 0.83038 0.0
C145 C 0.58269 0.50148 0.73283 0.0
C146 C 0.50421 0.56151 0.62141 0.0
C147 C 0.5099 0.55059 0.87424 0.0
C148 C 0.44117 0.50949 0.71891 0.0
O149 O 0.54466 0.4632 0.56537 0.0
O150 O 0.50647 0.47406 0.61686 0.0
O151 O 0.95121 0.48169 0.77693 0.0
Mg152 Mg 0.97675 0.46959 0.6828 0.0
O153 O 0.98382 0.50165 0.83911 0.0
Mg154 Mg 0.01089 0.50442 0.72535 0.0
O155 O 0.01447 0.45784 0.69462 0.0
O156 O 0.97936 0.43086 0.6878 0.0
O157 O 0.03881 0.50903 0.61511 0.0
O158 O 0.04639 0.48931 0.80935 0.0
Mg159 Mg 0.04209 0.5357 0.78929 0.0
O160 O 0.00706 0.55132 0.75699 0.0
O161 O 0.06935 0.52616 0.69554 0.0
O162 O 0.04721 0.51841 0.90863 0.0
O163 O 0.0426 0.57459 0.79835 0.0
C164 C 0.96486 0.50651 0.57253 0.0
C165 C 0.9599 0.49482 0.83775 0.0
C166 C 0.00447 0.43427 0.68684 0.0
C167 C 0.06234 0.51652 0.62616 0.0
C168 C 0.05448 0.49638 0.88127 0.0
C169 C 0.01821 0.57367 0.77676 0.0
O170 O 0.96749 0.48212 0.56301 0.0
O171 O 0.97591 0.51768 0.63507 0.0
C172 C 0.19173 0.02356 0.3754 0.0
C173 C 0.20498 0.04752 0.37249 0.0
C174 C 0.17416 0.01812 0.44039 0.0
C175 C 0.16964 0.03734 0.50311 0.0
C176 C 0.18415 0.06105 0.50262 0.0
C177 C 0.20173 0.06592 0.43679 0.0
C178 C 0.15961 0.99227 0.43985 0.0
C179 C 0.1807 0.08137 0.57061 0.0
C180 C 0.10079 0.03139 0.58981 0.0
C181 C 0.10521 0.01521 0.6587 0.0
C182 C 0.12197 0.04025 0.54135 0.0
C183 C 0.14801 0.03327 0.56397 0.0
C184 C 0.15257 0.0192 0.6386 0.0
C185 C 0.13105 0.01019 0.68474 0.0
C186 C 0.1164 0.05537 0.46239 0.0
C187 C 0.17984 0.01132 0.66596 0.0
H188 H 0.19477 0.00923 0.32599 0.0
H189 H 0.21261 0.08422 0.4349 0.0
H190 H 0.16057 0.98295 0.50229 0.0
H191 H 0.13858 0.99578 0.4252 0.0
H192 H 0.16765 0.97833 0.39287 0.0
H193 H 0.19451 0.09812 0.56369 0.0
H194 H 0.16028 0.08898 0.56945 0.0
H195 H 0.18387 0.07232 0.63277 0.0
H196 H 0.08081 0.03529 0.56982 0.0
H197 H 0.13447 -0.00213 0.73879 0.0
H198 H 0.12493 0.04505 0.40759 0.0
H199 H 0.12577 0.07501 0.46633 0.0
H200 H 0.09503 0.05784 0.45111 0.0
H201 H 0.18506 0.99242 0.63551 0.0
H202 H 0.18076 0.00841 0.73471 0.0
H203 H 0.19478 0.02609 0.64801 0.0
C204 C 0.49182 0.1996 0.41411 0.0
C205 C 0.46785 0.20237 0.37248 0.0
C206 C 0.49402 0.18265 0.48257 0.0
C207 C 0.47168 0.16815 0.5084 0.0
C208 C 0.44687 0.17336 0.47218 0.0
C209 C 0.44527 0.19032 0.40364 0.0
C210 C 0.52072 0.17851 0.52158 0.0
C211 C 0.42247 0.15935 0.50153 0.0
C212 C 0.48746 0.09724 0.54987 0.0
C213 C 0.49205 0.09758 0.63578 0.0
C214 C 0.48008 0.1201 0.50829 0.0
C215 C 0.47551 0.14337 0.55493 0.0
C216 C 0.47699 0.14288 0.64336 0.0
C217 C 0.48609 0.12004 0.68277 0.0
C218 C 0.47998 0.11994 0.41375 0.0
C219 C 0.47124 0.1668 0.69612 0.0
H220 H 0.50903 0.20987 0.39125 0.0
H221 H 0.42656 0.19344 0.37272 0.0
H222 H 0.51919 0.17578 0.59006 0.0
H223 H 0.52969 0.16052 0.49466 0.0
H224 H 0.53409 0.19531 0.50932 0.0
H225 H 0.4043 0.1689 0.47813 0.0
H226 H 0.42275 0.13876 0.47864 0.0
H227 H 0.42191 0.15879 0.57087 0.0
H228 H 0.49288 0.07998 0.51384 0.0
H229 H 0.49026 0.12033 0.74929 0.0
H230 H 0.49533 0.13353 0.39034 0.0
H231 H 0.46078 0.12687 0.38968 0.0
H232 H 0.48385 0.10013 0.38727 0.0
H233 H 0.4897 0.17794 0.70671 0.0
H234 H 0.46355 0.16102 0.75833 0.0
H235 H 0.45683 0.18 0.66559 0.0
C236 C 0.31772 0.46225 0.45698 0.0
C237 C 0.32443 0.45247 0.37808 0.0
C238 C 0.3373 0.46824 0.51626 0.0
C239 C 0.36413 0.46451 0.49536 0.0
C240 C 0.3708 0.45394 0.41614 0.0
C241 C 0.35081 0.44802 0.3584 0.0
C242 C 0.32933 0.47969 0.59961 0.0
C243 C 0.39913 0.44993 0.39119 0.0
C244 C 0.41242 0.51133 0.59691 0.0
C245 C 0.42373 0.49594 0.65936 0.0
C246 C 0.39336 0.50117 0.54289 0.0
C247 C 0.38521 0.47478 0.55153 0.0
C248 C 0.39712 0.45871 0.61333 0.0
C249 C 0.41642 0.46954 0.66701 0.0
C250 C 0.38153 0.51907 0.47793 0.0
C251 C 0.38875 0.43054 0.62476 0.0
H252 H 0.29723 0.46581 0.47164 0.0
H253 H 0.35585 0.44054 0.29692 0.0
H254 H 0.34028 0.47012 0.65119 0.0
H255 H 0.33427 0.5009 0.6013 0.0
H256 H 0.30792 0.47754 0.6112 0.0
H257 H 0.40102 0.44098 0.32805 0.0
H258 H 0.40961 0.46905 0.39149 0.0
H259 H 0.40913 0.4371 0.43717 0.0
H260 H 0.41825 0.53174 0.59137 0.0
H261 H 0.42506 0.45773 0.71609 0.0
H262 H 0.36044 0.52232 0.49196 0.0
H263 H 0.38275 0.50991 0.41504 0.0
H264 H 0.39148 0.53848 0.47585 0.0
H265 H 0.36908 0.43008 0.65459 0.0
H266 H 0.40271 0.41951 0.66484 0.0
H267 H 0.387 0.42033 0.56357 0.0
C268 C 0.06857 0.31294 0.43884 0.0
C269 C 0.05821 0.31719 0.35906 0.0
C270 C 0.0642 0.33108 0.50368 0.0
C271 C 0.04886 0.35368 0.48792 0.0
C272 C 0.03868 0.35811 0.40652 0.0
C273 C 0.04357 0.33975 0.34282 0.0
C274 C 0.07583 0.32602 0.5889 0.0
C275 C 0.0225 0.38215 0.3869 0.0
C276 C 0.00871 0.38678 0.65568 0.0
C277 C 0.02061 0.41163 0.65982 0.0
C278 C 0.01861 0.36709 0.60338 0.0
C279 C 0.04172 0.37193 0.55698 0.0
C280 C 0.05568 0.39576 0.56916 0.0
C281 C 0.0449 0.41544 0.62071 0.0
C282 C 0.00266 0.34234 0.59088 0.0
C283 C 0.08119 0.40115 0.52455 0.0
H284 H 0.07997 0.29536 0.45059 0.0
H285 H 0.03574 0.34289 0.28056 0.0
H286 H 0.08739 0.34334 0.60975 0.0
H287 H 0.05992 0.32306 0.63517 0.0
H288 H 0.08875 0.30846 0.58933 0.0
H289 H 0.01476 0.38187 0.32191 0.0
H290 H 0.00569 0.38372 0.43072 0.0
H291 H 0.03474 0.40001 0.39525 0.0
H292 H 0.9902 0.38348 0.68736 0.0
H293 H 0.05442 0.43443 0.62482 0.0
H294 H 0.01515 0.32473 0.599 0.0
H295 H 0.9948 0.3418 0.5261 0.0
H296 H 0.98586 0.34107 0.63491 0.0
H297 H 0.09726 0.39045 0.55663 0.0
H298 H 0.08603 0.42239 0.52505 0.0
H299 H 0.08061 0.39425 0.45872 0.0
C300 C 0.80944 0.9861 0.95486 0.0
C301 C 0.81287 0.98281 0.04089 0.0
C302 C 0.83088 0.98313 0.9005 0.0
C303 C 0.85602 0.97761 0.93439 0.0
C304 C 0.85858 0.97138 0.02023 0.0
C305 C 0.83682 0.97415 0.07259 0.0
C306 C 0.82731 0.98855 0.80848 0.0
C307 C 0.88499 0.9658 0.05953 0.0
C308 C 0.92191 0.981 0.82377 0.0
C309 C 0.92805 0.00758 0.83713 0.0
C310 C 0.89758 0.97082 0.85014 0.0
C311 C 0.8796 0.98767 0.89148 0.0
C312 C 0.88568 0.01457 0.90277 0.0
C313 C 0.90979 0.02399 0.87615 0.0
C314 C 0.89108 0.94235 0.83353 0.0
C315 C 0.86695 0.03367 0.94426 0.0
H316 H 0.79046 0.99213 0.93073 0.0
H317 H 0.839 0.97115 0.13934 0.0
H318 H 0.83594 0.0079 0.79274 0.0
H319 H 0.83777 0.97354 0.77073 0.0
H320 H 0.80624 0.98871 0.79019 0.0
H321 H 0.88294 0.95666 0.12208 0.0
H322 H 0.89692 0.95267 0.01944 0.0
H323 H 0.89594 0.98452 0.06712 0.0
H324 H 0.9359 0.9683 0.79247 0.0
H325 H 0.91419 0.0446 0.88576 0.0
H326 H 0.87147 0.94071 0.80346 0.0
H327 H 0.89009 0.93142 0.89317 0.0
H328 H 0.90589 0.93272 0.7927 0.0
H329 H 0.84906 0.0359 0.90531 0.0
H330 H 0.87574 0.05347 0.95302 0.0
H331 H 0.86081 0.02636 0.00637 0.0
C332 C 0.56726 0.8132 0.98099 0.0
C333 C 0.54869 0.81214 0.04518 0.0
C334 C 0.56441 0.83119 0.9153 0.0
C335 C 0.54273 0.84855 0.91532 0.0
C336 C 0.52317 0.84632 0.97802 0.0
C337 C 0.52646 0.82809 0.04246 0.0
C338 C 0.58496 0.83221 0.84765 0.0
C339 C 0.4992 0.8638 0.97866 0.0
C340 C 0.54559 0.91838 0.83969 0.0
C341 C 0.52749 0.91745 0.77388 0.0
C342 C 0.55265 0.89543 0.8822 0.0
C343 C 0.54169 0.87107 0.85673 0.0
C344 C 0.52601 0.86975 0.78362 0.0
C345 C 0.519 0.8931 0.74314 0.0
C346 C 0.56905 0.89772 0.96073 0.0
C347 C 0.51482 0.84406 0.75225 0.0
H348 H 0.58419 0.80031 0.98292 0.0
H349 H 0.51191 0.82667 0.09171 0.0
H350 H 0.57554 0.83336 0.78518 0.0
H351 H 0.59713 0.85012 0.85586 0.0
H352 H 0.5981 0.81482 0.84907 0.0
H353 H 0.48558 0.85906 0.03064 0.0
H354 H 0.50528 0.88464 0.9848 0.0
H355 H 0.48835 0.86175 0.91875 0.0
H356 H 0.55154 0.93728 0.86479 0.0
H357 H 0.50479 0.89258 0.69255 0.0
H358 H 0.5855 0.88346 0.95901 0.0
H359 H 0.55678 0.89296 0.01592 0.0
H360 H 0.5772 0.91776 0.96961 0.0
H361 H 0.53102 0.83161 0.72819 0.0
H362 H 0.50029 0.84692 0.70116 0.0
H363 H 0.50518 0.83314 0.80359 0.0
C364 C 0.68945 0.57263 0.02012 0.0
C365 C 0.7028 0.55034 0.04756 0.0
C366 C 0.67015 0.57063 0.95765 0.0
C367 C 0.66395 0.5457 0.92355 0.0
C368 C 0.67885 0.52344 0.94747 0.0
C369 C 0.69815 0.52606 0.00962 0.0
C370 C 0.6552 0.59489 0.93337 0.0
C371 C 0.67357 0.49662 0.91035 0.0
C372 C 0.5953 0.52531 0.86092 0.0
C373 C 0.59854 0.52156 0.77495 0.0
C374 C 0.616 0.53524 0.90983 0.0
C375 C 0.6401 0.54195 0.87101 0.0
C376 C 0.64214 0.54115 0.78287 0.0
C377 C 0.62136 0.53057 0.73583 0.0
C378 C 0.61307 0.5358 0.00372 0.0
C379 C 0.66694 0.54954 0.73891 0.0
H380 H 0.69351 0.59147 0.04923 0.0
H381 H 0.70904 0.50898 0.03035 0.0
H382 H 0.64839 0.59411 0.86751 0.0
H383 H 0.63777 0.59633 0.97425 0.0
H384 H 0.66722 0.61288 0.94283 0.0
H385 H 0.6879 0.48171 0.9322 0.0
H386 H 0.6535 0.49007 0.92762 0.0
H387 H 0.67441 0.4975 0.84114 0.0
H388 H 0.57774 0.51791 0.89106 0.0
H389 H 0.6237 0.52752 0.66913 0.0
H390 H 0.61993 0.55487 0.02942 0.0
H391 H 0.62547 0.52019 0.03159 0.0
H392 H 0.59241 0.53258 0.02351 0.0
H393 H 0.67153 0.57023 0.75526 0.0
H394 H 0.66522 0.54782 0.66986 0.0
H395 H 0.68375 0.53739 0.75999 0.0
C396 C 0.95426 0.70124 0.98426 0.0
C397 C 0.96629 0.69888 0.06262 0.0
C398 C 0.96147 0.68463 0.91774 0.0
C399 C 0.98078 0.66512 0.93106 0.0
C400 C 0.9941 0.66398 0.00895 0.0
C401 C 0.98659 0.68087 0.07403 0.0
C402 C 0.94812 0.68755 0.8341 0.0
C403 C 0.01596 0.64452 0.02408 0.0
C404 C 0.97992 0.59735 0.83568 0.0
C405 C 0.00295 0.59794 0.78835 0.0
C406 C 0.9709 0.62012 0.87619 0.0
C407 C 0.98523 0.64387 0.86853 0.0
C408 C 0.00662 0.64517 0.81231 0.0
C409 C 0.01516 0.62211 0.77259 0.0
C410 C 0.94786 0.61798 0.93491 0.0
C411 C 0.02166 0.67034 0.79814 0.0
H412 H 0.93913 0.71593 0.97519 0.0
H413 H 0.99643 0.67984 0.13414 0.0
H414 H 0.96281 0.68706 0.78299 0.0
H415 H 0.93443 0.67088 0.82387 0.0
H416 H 0.93682 0.70615 0.82991 0.0
H417 H 0.02513 0.64702 0.08669 0.0
H418 H 0.0082 0.62422 0.01885 0.0
H419 H 0.03143 0.64682 0.97586 0.0
H420 H 0.97066 0.57868 0.84865 0.0
H421 H 0.03279 0.62253 0.73464 0.0
H422 H 0.93376 0.6342 0.92402 0.0
H423 H 0.95489 0.6196 0.00048 0.0
H424 H 0.93743 0.599 0.92737 0.0
H425 H 0.01012 0.68312 0.75584 0.0
H426 H 0.04107 0.66668 0.76862 0.0
H427 H 0.02485 0.68128 0.8574 0.0
C428 C 0.05054 0.19649 0.48902 0.0
C429 C 0.046 0.20213 0.40482 0.0
C430 C 0.03736 0.17537 0.52674 0.0
C431 C 0.02162 0.15857 0.47623 0.0
C432 C 0.01571 0.16554 0.39297 0.0
C433 C 0.02656 0.18836 0.36051 0.0
C434 C 0.04221 0.16984 0.61806 0.0
C435 C 0.00079 0.14736 0.33461 0.0
C436 C 0.02575 0.08579 0.51696 0.0
C437 C 0.00017 0.08021 0.54295 0.0
C438 C 0.03314 0.11144 0.4971 0.0
C439 C 0.01453 0.13198 0.50454 0.0
C440 C 0.98855 0.12648 0.52974 0.0
C441 C 0.98151 0.10053 0.54709 0.0
C442 C 0.06088 0.11648 0.46796 0.0
C443 C 0.96867 0.14813 0.54289 0.0
H444 H 0.06537 0.20737 0.52348 0.0
H445 H 0.02305 0.19311 0.29535 0.0
H446 H 0.02596 0.15835 0.64616 0.0
H447 H 0.06071 0.15858 0.62518 0.0
H448 H 0.04455 0.18848 0.65363 0.0
H449 H -6e-05 0.1549 0.2696 0.0
H450 H 0.01035 0.12777 0.33301 0.0
H451 H 0.98042 0.14453 0.35709 0.0
H452 H 0.04022 0.07018 0.51469 0.0
H453 H 0.96178 0.09652 0.5691 0.0
H454 H 0.07072 0.13075 0.51009 0.0
H455 H 0.06053 0.1251 0.40437 0.0
H456 H 0.07287 0.09834 0.46642 0.0
H457 H 0.97545 0.16107 0.59466 0.0
H458 H 0.94888 0.14041 0.55865 0.0
H459 H 0.96693 0.16057 0.48653 0.0
C460 C 0.33766 0.07805 0.44848 0.0
C461 C 0.31725 0.06122 0.42391 0.0
C462 C 0.35964 0.06818 0.49054 0.0
C463 C 0.36075 0.04105 0.50845 0.0
C464 C 0.33856 0.02489 0.49437 0.0
C465 C 0.31671 0.0354 0.45339 0.0
C466 C 0.3827 0.08615 0.50721 0.0
C467 C 0.33898 0.99595 0.51454 0.0
C468 C 0.42796 0.00877 0.51049 0.0
C469 C 0.4318 0.00595 0.5964 0.0
C470 C 0.40459 0.02006 0.48039 0.0
C471 C 0.38546 0.02922 0.53819 0.0
C472 C 0.3897 0.02677 0.62472 0.0
C473 C 0.41269 0.01503 0.65256 0.0
C474 C 0.40025 0.02203 0.38723 0.0
C475 C 0.37035 0.03711 0.68832 0.0
H476 H 0.33797 0.09801 0.4252 0.0
H477 H 0.30089 0.02242 0.43402 0.0
H478 H 0.39149 0.08226 0.56942 0.0
H479 H 0.39812 0.08253 0.45959 0.0
H480 H 0.37697 0.10716 0.50408 0.0
H481 H 0.3197 0.98637 0.50275 0.0
H482 H 0.35408 0.98598 0.47577 0.0
H483 H 0.34446 0.99293 0.58094 0.0
H484 H 0.44291 0.00194 0.46743 0.0
H485 H 0.41604 0.01366 0.71928 0.0
H486 H 0.39738 0.04284 0.36932 0.0
H487 H 0.38211 0.01125 0.36937 0.0
H488 H 0.41698 0.01391 0.35086 0.0
H489 H 0.37003 0.05886 0.68598 0.0
H490 H 0.37555 0.03108 0.75284 0.0
H491 H 0.35018 0.03009 0.67424 0.0
C492 C 0.48995 0.31575 0.4351 0.0
C493 C 0.46282 0.31164 0.42834 0.0
C494 C 0.49955 0.33982 0.46381 0.0
C495 C 0.48151 0.35887 0.49256 0.0
C496 C 0.45456 0.35264 0.50087 0.0
C497 C 0.44541 0.32883 0.4681 0.0
C498 C 0.52842 0.34601 0.45347 0.0
C499 C 0.43504 0.37238 0.53412 0.0
C500 C 0.51009 0.41717 0.6028 0.0
C501 C 0.50959 0.4362 0.54021 0.0
C502 C 0.50057 0.39205 0.58849 0.0
C503 C 0.4906 0.38578 0.50878 0.0
C504 C 0.48993 0.40498 0.44447 0.0
C505 C 0.49965 0.43027 0.46116 0.0
C506 C 0.50118 0.37232 0.65881 0.0
C507 C 0.47976 0.39878 0.35779 0.0
H508 H 0.50329 0.3022 0.40438 0.0
H509 H 0.42443 0.32543 0.46274 0.0
H510 H 0.5308 0.36223 0.40797 0.0
H511 H 0.53699 0.35277 0.51359 0.0
H512 H 0.53982 0.32882 0.43077 0.0
H513 H 0.41584 0.36311 0.54886 0.0
H514 H 0.44272 0.38219 0.59123 0.0
H515 H 0.43171 0.3878 0.48646 0.0
H516 H 0.51804 0.42202 0.66351 0.0
H517 H 0.49955 0.44519 0.41305 0.0
H518 H 0.51375 0.3554 0.64143 0.0
H519 H 0.48112 0.36461 0.67021 0.0
H520 H 0.50883 0.3809 0.71805 0.0
H521 H 0.49536 0.38855 0.32191 0.0
H522 H 0.47434 0.41689 0.32338 0.0
H523 H 0.46238 0.38567 0.35974 0.0
C524 C 0.20355 0.48492 0.4629 0.0
C525 C 0.20346 0.4662 0.39883 0.0
C526 C 0.18021 0.49063 0.50607 0.0
C527 C 0.15647 0.47853 0.47981 0.0
C528 C 0.15691 0.45818 0.41967 0.0
C529 C 0.18082 0.45116 0.38386 0.0
C530 C 0.18057 0.51085 0.57529 0.0
C531 C 0.13202 0.44637 0.38379 0.0
C532 C 0.09436 0.48216 0.60597 0.0
C533 C 0.08304 0.50518 0.57576 0.0
C534 C 0.11858 0.47359 0.57644 0.0
C535 C 0.131 0.4878 0.51211 0.0
C536 C 0.11868 0.51025 0.4772 0.0
C537 C 0.09495 0.51919 0.51146 0.0
C538 C 0.13119 0.44981 0.61577 0.0
C539 C 0.13078 0.52525 0.40575 0.0
H540 H 0.22111 0.49645 0.47452 0.0
H541 H 0.18095 0.43675 0.33365 0.0
H542 H 0.17106 0.52917 0.55358 0.0
H543 H 0.16925 0.50367 0.62989 0.0
H544 H 0.2009 0.51562 0.59577 0.0
H545 H 0.13582 0.42722 0.35264 0.0
H546 H 0.1167 0.44356 0.43183 0.0
H547 H 0.12395 0.46001 0.33631 0.0
H548 H 0.08493 0.47172 0.65668 0.0
H549 H 0.08617 0.53732 0.48981 0.0
H550 H 0.15143 0.45466 0.63673 0.0
H551 H 0.13281 0.43376 0.56907 0.0
H552 H 0.11983 0.44242 0.67006 0.0
H553 H 0.14651 0.53829 0.43019 0.0
H554 H 0.11604 0.53771 0.37344 0.0
H555 H 0.13974 0.51174 0.35927 0.0
C556 C 0.95164 0.82916 0.00245 0.0
C557 C 0.97136 0.80999 0.00254 0.0
C558 C 0.95734 0.85438 0.97426 0.0
C559 C 0.98117 0.85864 0.93123 0.0
C560 C -0.00215 0.8372 0.91193 0.0
C561 C 0.99332 0.81307 0.95123 0.0
C562 C 0.94047 0.8769 0.00469 0.0
C563 C 0.02236 0.84073 0.8604 0.0
C564 C 0.9886 0.92666 0.84376 0.0
C565 C 0.00818 0.93733 0.89589 0.0
C566 C 0.98041 0.90073 0.85249 0.0
C567 C 0.99054 0.88574 0.91908 0.0
C568 C 0.00914 0.89696 0.97543 0.0
C569 C 0.01817 0.92254 0.96179 0.0
C570 C 0.96205 0.88913 0.78758 0.0
C571 C 0.02051 0.88233 0.04906 0.0
H572 H 0.93454 0.82629 0.04184 0.0
H573 H 0.00834 0.79799 0.94997 0.0
H574 H 0.95185 0.88875 0.05067 0.0
H575 H 0.935 0.8901 0.95282 0.0
H576 H 0.9222 0.87004 0.03561 0.0
H577 H 0.029 0.82177 0.83315 0.0
H578 H 0.01899 0.85496 0.80911 0.0
H579 H 0.03835 0.84849 0.90084 0.0
H580 H 0.98106 0.93787 0.79148 0.0
H581 H 0.03347 0.93072 0.00145 0.0
H582 H 0.94191 0.88766 0.81323 0.0
H583 H 0.96843 0.86907 0.76946 0.0
H584 H 0.96105 0.90137 0.73032 0.0
H585 H 0.01751 0.89402 0.10704 0.0
H586 H 0.04206 0.88024 0.04056 0.0
H587 H 0.01195 0.86263 0.05861 0.0
C588 C 0.67003 0.95018 0.07588 0.0
C589 C 0.69569 0.95112 0.04243 0.0
C590 C 0.64898 0.96246 0.03697 0.0
C591 C 0.65308 0.97516 0.96029 0.0
C592 C 0.67793 0.97426 0.92112 0.0
C593 C 0.69898 0.96202 0.96236 0.0
C594 C 0.62262 0.96311 0.08075 0.0
C595 C 0.68257 0.98759 0.8383 0.0
C596 C 0.58988 0.98633 0.84532 0.0
C597 C 0.58519 0.01289 0.86221 0.0
C598 C 0.61277 0.97424 0.87306 0.0
C599 C 0.63082 0.9889 0.92143 0.0
C600 C 0.62601 0.01573 0.93981 0.0
C601 C 0.60327 0.0276 0.90845 0.0
C602 C 0.61785 0.94593 0.8495 0.0
C603 C 0.64432 0.03177 0.99408 0.0
H604 H 0.66616 0.94185 0.13644 0.0
H605 H 0.71817 0.96222 0.93336 0.0
H606 H 0.61633 0.98374 0.09066 0.0
H607 H 0.60749 0.95341 0.04133 0.0
H608 H 0.62306 0.95319 0.14243 0.0
H609 H 0.70236 0.98326 0.8126 0.0
H610 H 0.66748 0.98141 0.79202 0.0
H611 H 0.6807 0.00916 0.84641 0.0
H612 H 0.57632 0.97537 0.80607 0.0
H613 H 0.59968 0.04831 0.91938 0.0
H614 H 0.61905 0.9337 0.9065 0.0
H615 H 0.63703 0.94427 0.81709 0.0
H616 H 0.60232 0.93775 0.80801 0.0
H617 H 0.6396 0.02805 0.06066 0.0
H618 H 0.64202 0.05314 0.98251 0.0
H619 H 0.66517 0.02633 0.98392 0.0
C620 C 0.54881 0.69978 0.93466 0.0
C621 C 0.56974 0.69972 0.99173 0.0
C622 C 0.54213 0.67663 0.89156 0.0
C623 C 0.55583 0.65326 0.91108 0.0
C624 C 0.57965 0.65469 0.95662 0.0
C625 C 0.58752 0.6788 0.99027 0.0
C626 C 0.51855 0.67661 0.83436 0.0
C627 C 0.59427 0.6303 0.98272 0.0
C628 C 0.51447 0.59282 0.95289 0.0
C629 C 0.52356 0.57562 0.89124 0.0
C630 C 0.52432 0.61848 0.95856 0.0
C631 C 0.54317 0.6273 0.89952 0.0
C632 C 0.55195 0.61021 0.83595 0.0
C633 C 0.54265 0.58441 0.83405 0.0
C634 C 0.51459 0.63602 0.02814 0.0
C635 C 0.57003 0.61949 0.76724 0.0
H636 H 0.5356 0.71645 0.93248 0.0
H637 H 0.60426 0.6794 0.03235 0.0
H638 H 0.51896 0.65986 0.78973 0.0
H639 H 0.50032 0.67534 0.872 0.0
H640 H 0.51767 0.69522 0.79856 0.0
H641 H 0.61277 0.63498 0.01662 0.0
H642 H 0.58163 0.61841 0.02454 0.0
H643 H 0.59897 0.61801 0.92755 0.0
H644 H 0.49938 0.58631 -0.00414 0.0
H645 H 0.54936 0.57161 0.78419 0.0
H646 H 0.50471 0.65351 0.00188 0.0
H647 H 0.53146 0.64296 0.06623 0.0
H648 H 0.50043 0.62586 0.06961 0.0
H649 H 0.55923 0.63354 0.72704 0.0
H650 H 0.57711 0.60304 0.7274 0.0
H651 H 0.5873 0.63007 0.79294 0.0
C652 C 0.82052 0.53704 0.93933 0.0
C653 C 0.81824 0.5568 -0.00024 0.0
C654 C 0.84454 0.5334 0.89783 0.0
C655 C 0.86672 0.54811 0.92461 0.0
C656 C 0.86311 0.57049 0.97595 0.0
C657 C 0.83794 0.57598 0.00581 0.0
C658 C 0.84697 0.5117 0.83385 0.0
C659 C 0.88569 0.58675 0.00944 0.0
C660 C 0.92487 0.5023 0.94211 0.0
C661 C 0.94077 0.51168 0.87817 0.0
C662 C 0.90143 0.5153 0.96185 0.0
C663 C 0.89329 0.53702 0.91262 0.0
C664 C 0.91017 0.54723 0.85086 0.0
C665 C 0.93399 0.5346 0.83541 0.0
C666 C 0.88498 0.50517 0.03324 0.0
C667 C 0.90226 0.56998 0.79631 0.0
H668 H 0.80491 0.52274 0.93169 0.0
H669 H 0.8355 0.59191 0.05043 0.0
H670 H 0.86202 0.51659 0.78616 0.0
H671 H 0.85302 0.49327 0.86508 0.0
H672 H 0.82789 0.50805 0.802 0.0
H673 H 0.88195 0.59288 0.07512 0.0
H674 H 0.90472 0.57622 0.00803 0.0
H675 H 0.88744 0.60491 0.9719 0.0
H676 H 0.93017 0.4843 0.97386 0.0
H677 H 0.94626 0.54121 0.78423 0.0
H678 H 0.86725 0.49512 0.0085 0.0
H679 H 0.87837 0.52171 0.07328 0.0
H680 H 0.89597 0.49099 0.07262 0.0
H681 H 0.88556 0.56394 0.75583 0.0
H682 H 0.91867 0.57672 0.75601 0.0
H683 H 0.8956 0.5868 0.83481 0.0
C684 C 0.09091 0.16428 0.14358 0.0
C685 C 0.0746 0.18636 0.14885 0.0
C686 C 0.08311 0.14196 0.09791 0.0
C687 C 0.05832 0.14168 0.05754 0.0
C688 C 0.04151 0.16369 0.06455 0.0
C689 C 0.04996 0.18584 0.10948 0.0
C690 C 0.10138 0.11871 0.09263 0.0
C691 C 0.0143 0.1636 0.02656 0.0
C692 C 0.04925 0.10136 0.86044 0.0
C693 C 0.03592 0.07925 0.88993 0.0
C694 C 0.05724 0.12137 0.91508 0.0
C695 C 0.05107 0.11956 0.00108 0.0
C696 C 0.0375 0.0972 0.03138 0.0
C697 C 0.0305 0.07699 0.97532 0.0
C698 C 0.07143 0.14494 0.88019 0.0
C699 C 0.02973 0.09489 0.1221 0.0
H700 H 0.10947 0.16428 0.17699 0.0
H701 H 0.03671 0.20231 0.11752 0.0
H702 H 0.0909 0.10046 0.11018 0.0
H703 H 0.10817 0.11623 0.02721 0.0
H704 H 0.11883 0.12102 0.13385 0.0
H705 H 0.00395 0.18258 0.0359 0.0
H706 H 0.01537 0.15941 0.95856 0.0
H707 H 0.00238 0.1478 0.0553 0.0
H708 H 0.05299 0.10321 0.79399 0.0
H709 H 0.01952 0.06015 -0.00261 0.0
H710 H 0.09004 0.14832 0.91497 0.0
H711 H 0.05912 0.16274 0.88821 0.0
H712 H 0.07604 0.14264 0.81272 0.0
H713 H 0.04746 0.09105 0.16053 0.0
H714 H 0.0155 0.07867 0.13234 0.0
H715 H 0.0209 0.11346 0.14511 0.0
C716 C 0.34991 0.03091 0.15553 0.0
C717 C 0.33067 0.04909 0.1311 0.0
C718 C 0.37189 0.02596 0.10591 0.0
C719 C 0.37436 0.03887 0.0283 0.0
C720 C 0.35388 0.05551 -0.00016 0.0
C721 C 0.33219 0.06054 0.05202 0.0
C722 C 0.39319 0.00814 0.13922 0.0
C723 C 0.35512 0.06832 0.9152 0.0
C724 C 0.4454 0.04606 0.95965 0.0
C725 C 0.44846 0.02333 0.91154 0.0
C726 C 0.4208 0.05218 0.99483 0.0
C727 C 0.39897 0.03542 0.97961 0.0
C728 C 0.40188 0.0133 0.9268 0.0
C729 C 0.4267 0.00732 0.89466 0.0
C730 C 0.41844 0.07581 0.0515 0.0
C731 C 0.37925 0.99503 0.90774 0.0
H732 H 0.34841 0.02154 0.21611 0.0
H733 H 0.31713 0.07429 0.03278 0.0
H734 H 0.39835 0.99292 0.09233 0.0
H735 H 0.41119 0.01983 0.15196 0.0
H736 H 0.3873 -0.00181 0.19793 0.0
H737 H 0.33911 0.08284 0.90606 0.0
H738 H 0.37431 0.07825 0.90627 0.0
H739 H 0.3533 0.05299 0.86616 0.0
H740 H 0.46228 0.0585 0.97173 0.0
H741 H 0.4292 0.98982 0.85664 0.0
H742 H 0.41517 0.0692 0.11667 0.0
H743 H 0.40125 0.08789 0.03324 0.0
H744 H 0.43634 0.0883 0.0502 0.0
H745 H 0.37692 0.98099 0.96 0.0
H746 H 0.38277 0.98354 0.84961 0.0
H747 H 0.36054 0.00596 0.9009 0.0
C748 C 0.44285 0.35158 0.13706 0.0
C749 C 0.45786 0.32844 0.13619 0.0
C750 C 0.45088 0.37385 0.09271 0.0
C751 C 0.47385 0.37258 0.04329 0.0
C752 C 0.48854 0.34899 0.03965 0.0
C753 C 0.48043 0.32724 0.0864 0.0
C754 C 0.43507 0.39881 0.10051 0.0
C755 C 0.51352 0.34712 0.98915 0.0
C756 C 0.48481 0.41698 0.85792 0.0
C757 C 0.50466 0.4335 0.88808 0.0
C758 C 0.47355 0.3979 0.9095 0.0
C759 C 0.48241 0.39547 0.99303 0.0
C760 C 0.50143 0.41327 0.02505 0.0
C761 C 0.5124 0.43216 0.97175 0.0
C762 C 0.45319 0.37946 0.87341 0.0
C763 C 0.51049 0.4121 0.1149 0.0
H764 H 0.42545 0.35264 0.17593 0.0
H765 H 0.49258 0.30978 0.08752 0.0
H766 H 0.44813 0.41607 0.10883 0.0
H767 H 0.42357 0.40183 0.0424 0.0
H768 H 0.42117 0.39811 0.15395 0.0
H769 H 0.522 0.32704 0.98966 0.0
H770 H 0.50972 0.35285 0.9234 0.0
H771 H 0.52836 0.36096 0.01489 0.0
H772 H 0.47865 0.4185 0.79316 0.0
H773 H 0.5274 0.44549 0.99481 0.0
H774 H 0.43555 0.37898 0.91397 0.0
H775 H 0.46129 0.35925 0.87107 0.0
H776 H 0.44707 0.38514 0.8093 0.0
H777 H 0.49401 0.41766 0.15665 0.0
H778 H 0.52724 0.42557 0.12744 0.0
H779 H 0.51647 0.39186 0.13161 0.0
C780 C 0.1924 0.49614 0.08425 0.0
C781 C 0.20441 0.47216 0.10338 0.0
C782 C 0.16814 0.49694 0.04263 0.0
C783 C 0.15566 0.47315 0.01914 0.0
C784 C 0.16857 0.44895 0.03306 0.0
C785 C 0.19294 0.44877 0.07469 0.0
C786 C 0.15497 0.52317 0.02957 0.0
C787 C 0.15585 0.42321 0.00916 0.0
C788 C 0.08168 0.4812 0.00188 0.0
C789 C 0.07863 0.48474 0.91577 0.0
C790 C 0.10643 0.47517 0.036 0.0
C791 C 0.1287 0.4739 0.98282 0.0
C792 C 0.1254 0.47649 0.89547 0.0
C793 C 0.1003 0.48137 0.86291 0.0
C794 C 0.10895 0.47177 0.12938 0.0
C795 C 0.14867 0.47622 0.83708 0.0
H796 H 0.20088 0.51416 0.10869 0.0
H797 H 0.20181 0.4302 0.09177 0.0
H798 H 0.14802 0.52502 0.96409 0.0
H799 H 0.1375 0.52469 0.07069 0.0
H800 H 0.1683 0.53987 0.04399 0.0
H801 H 0.16769 0.40604 0.02923 0.0
H802 H 0.13604 0.42176 0.03766 0.0
H803 H 0.15321 0.42223 0.94039 0.0
H804 H 0.06489 0.48394 0.04262 0.0
H805 H 0.09803 0.48468 0.79648 0.0
H806 H 0.11847 0.48938 0.15703 0.0
H807 H 0.12151 0.45461 0.14414 0.0
H808 H 0.08952 0.46907 0.15973 0.0
H809 H 0.16237 0.49238 0.85385 0.0
H810 H 0.14275 0.47871 0.77081 0.0
H811 H 0.15963 0.45754 0.84341 0.0
C812 C 0.95948 0.85222 0.26581 0.0
C813 C 0.96796 0.8274 0.29334 0.0
C814 C 0.96238 0.87468 0.31558 0.0
C815 C 0.97282 0.8722 0.39704 0.0
C816 C 0.97828 0.84681 0.42904 0.0
C817 C 0.97614 0.82465 0.37635 0.0
C818 C 0.9566 0.90104 0.27682 0.0
C819 C 0.98798 0.84331 0.51743 0.0
C820 C 0.01757 0.92477 0.48686 0.0
C821 C 0.00099 0.93774 0.54308 0.0
C822 C 0.00815 0.90436 0.4359 0.0
C823 C 0.98173 0.89597 0.4439 0.0
C824 C 0.96459 0.90969 0.49845 0.0
C825 C 0.97439 0.9307 0.54692 0.0
C826 C 0.02672 0.89126 0.37514 0.0
C827 C 0.93617 0.90172 0.50714 0.0
H828 H 0.952 0.85444 0.20268 0.0
H829 H 0.98222 0.80554 0.39869 0.0
H830 H 0.95112 0.91606 0.32397 0.0
H831 H 0.97445 0.90801 0.24385 0.0
H832 H 0.94055 0.89948 0.22983 0.0
H833 H 0.98876 0.82231 0.53568 0.0
H834 H 0.00798 0.85181 0.52375 0.0
H835 H 0.97499 0.85398 0.56165 0.0
H836 H 0.03813 0.93032 0.48395 0.0
H837 H 0.96165 0.94065 0.59109 0.0
H838 H 0.01803 0.89114 0.31144 0.0
H839 H 0.02987 0.87052 0.39355 0.0
H840 H 0.04611 0.90124 0.3726 0.0
H841 H 0.92586 0.90437 0.44659 0.0
H842 H 0.92579 0.9134 0.5557 0.0
H843 H 0.93479 0.88061 0.52338 0.0
C844 C 0.67966 0.97872 0.27333 0.0
C845 C 0.69625 0.95856 0.30078 0.0
C846 C 0.65528 0.98311 0.31077 0.0
C847 C 0.64769 0.96761 0.3797 0.0
C848 C 0.66429 0.94702 0.40738 0.0
C849 C 0.6883 0.94239 0.36634 0.0
C850 C 0.63779 0.00455 0.27698 0.0
C851 C 0.65665 0.93002 0.4803 0.0
C852 C 0.60517 0.00597 0.52862 0.0
C853 C 0.5799 -0.00292 0.50848 0.0
C854 C 0.62736 0.99537 0.49033 0.0
C855 C 0.62428 0.97555 0.42898 0.0
C856 C 0.5988 0.9657 0.41018 0.0
C857 C 0.57674 0.97651 0.45103 0.0
C858 C 0.65407 0.00628 0.51318 0.0
C859 C 0.59457 0.94491 0.34405 0.0
H860 H 0.68544 0.99048 0.22005 0.0
H861 H 0.70077 0.92621 0.3851 0.0
H862 H 0.61771 -0.00317 0.2655 0.0
H863 H 0.63617 0.02063 0.32367 0.0
H864 H 0.6454 0.01288 0.21772 0.0
H865 H 0.67195 0.91522 0.49528 0.0
H866 H 0.6532 0.94239 0.53648 0.0
H867 H 0.63798 0.91966 0.46595 0.0
H868 H 0.60755 0.02158 0.57438 0.0
H869 H 0.55714 0.9696 0.43588 0.0
H870 H 0.66205 0.01754 0.45971 0.0
H871 H 0.66802 0.99011 0.52665 0.0
H872 H 0.65328 0.01951 0.56851 0.0
H873 H 0.59289 0.95452 0.28217 0.0
H874 H 0.57614 0.93378 0.35525 0.0
H875 H 0.61123 0.93092 0.34113 0.0
C876 C 0.55783 0.6858 0.36354 0.0
C877 C 0.54608 0.68569 0.28438 0.0
C878 C 0.55289 0.66538 0.4204 0.0
C879 C 0.53609 0.64438 0.3967 0.0
C880 C 0.52414 0.64435 0.31687 0.0
C881 C 0.52889 0.6652 0.2625 0.0
C882 C 0.56601 0.66603 0.50505 0.0
C883 C 0.50612 0.62238 0.28897 0.0
C884 C 0.53523 0.57941 0.51329 0.0
C885 C 0.51266 0.58232 0.56272 0.0
C886 C 0.54363 0.59973 0.46035 0.0
C887 C 0.52911 0.62342 0.45703 0.0
C888 C 0.5065 0.62651 0.50723 0.0
C889 C 0.49859 0.606 0.55934 0.0
C890 C 0.56774 0.59571 0.40702 0.0
C891 C 0.49053 0.6515 0.50555 0.0
H892 H 0.57139 0.70142 0.38001 0.0
H893 H 0.51945 0.66529 0.2017 0.0
H894 H 0.55146 0.66239 0.55526 0.0
H895 H 0.58091 0.6502 0.5084 0.0
H896 H 0.57592 0.6851 0.51751 0.0
H897 H 0.50101 0.62371 0.22167 0.0
H898 H 0.51541 0.60302 0.30036 0.0
H899 H 0.48767 0.62306 0.3257 0.0
H900 H 0.54641 0.56134 0.51619 0.0
H901 H 0.48121 0.60859 0.59753 0.0
H902 H 0.58225 0.61151 0.41962 0.0
H903 H 0.56232 0.59692 0.33992 0.0
H904 H 0.57725 0.57644 0.41847 0.0
H905 H 0.50306 0.66835 0.52444 0.0
H906 H 0.47327 0.65068 0.54781 0.0
H907 H 0.48344 0.65537 0.44116 0.0
C908 C 0.85124 0.56741 0.28693 0.0
C909 C 0.82955 0.55067 0.29785 0.0
C910 C 0.87387 0.56486 0.33576 0.0
C911 C 0.87436 0.54592 0.39984 0.0
C912 C 0.85137 0.53119 0.41786 0.0
C913 C 0.82918 0.53352 0.36578 0.0
C914 C 0.89798 0.58048 0.31232 0.0
C915 C 0.851 0.51151 0.48803 0.0
C916 C 0.93718 0.5091 0.44496 0.0
C917 C 0.94499 0.52015 0.52145 0.0
C918 C 0.91482 0.51813 0.40309 0.0
C919 C 0.89977 0.53862 0.43903 0.0
C920 C 0.90854 0.5511 0.51325 0.0
C921 C 0.93118 0.54173 0.55373 0.0
C922 C 0.90662 0.50488 0.32238 0.0
C923 C 0.89336 0.57351 0.55173 0.0
H924 H 0.85134 0.58109 0.23515 0.0
H925 H 0.8124 0.52072 0.37466 0.0
H926 H 0.90915 0.58684 0.36843 0.0
H927 H 0.91116 0.56794 0.27404 0.0
H928 H 0.89285 0.59806 0.27486 0.0
H929 H 0.83106 0.5033 0.49852 0.0
H930 H 0.86459 0.49511 0.47334 0.0
H931 H 0.858 0.52083 0.54684 0.0
H932 H 0.94802 0.4926 0.41936 0.0
H933 H 0.93715 0.55031 0.61293 0.0
H934 H 0.9036 0.51969 0.27269 0.0
H935 H 0.88766 0.49452 0.33144 0.0
H936 H 0.9214 0.4904 0.30023 0.0
H937 H 0.88971 0.58898 0.5046 0.0
H938 H 0.90388 0.58244 0.60568 0.0
H939 H 0.87393 0.56635 0.57318 0.0
loop_
_geom_bond_atom_site_label_1
_geom_bond_atom_site_label_2
_geom_bond_distance
_geom_bond_site_symmetry_2
_ccdc_geom_bond_type
H0 C3 0.929 . S
H1 C6 0.929 1_556 S
H2 C8 0.930 . S
C3 H0 0.929 . S
C3 C4 1.398 . S
C3 C5 1.396 . S
C4 C3 1.398 . S
C4 C8 1.407 . S
C5 C3 1.396 . S
C5 C6 1.394 . S
C6 H1 0.929 1_554 S
C6 C5 1.394 . S
C6 C7 1.382 . S
C7 C6 1.382 . S
C7 C8 1.392 . S
C7 N9 1.420 . S
C8 H2 0.930 . S
C8 C4 1.407 . S
C8 C7 1.392 . S
N9 C7 1.420 . S
N9 C10 1.244 . S
C10 N9 1.244 . S
H11 C14 0.929 . S
H12 C17 0.929 1_556 S
H13 C19 0.930 . S
C14 H11 0.929 . S
C14 C15 1.398 . S
C14 C16 1.396 . S
C15 C14 1.398 . S
C15 C19 1.407 . S
C16 C14 1.396 . S
C16 C17 1.394 . S
C17 H12 0.929 1_554 S
C17 C16 1.394 . S
C17 C18 1.382 . S
C18 C17 1.382 . S
C18 C19 1.392 . S
C18 N20 1.420 . S
C19 H13 0.930 . S
C19 C15 1.407 . S
C19 C18 1.392 . S
N20 C18 1.420 . S
N20 C21 1.244 . S
C21 N20 1.244 . S
H22 C25 0.929 . S
H23 C28 0.929 1_556 S
H24 C30 0.930 . S
C25 H22 0.929 . S
C25 C26 1.398 . S
C25 C27 1.396 . S
C26 C25 1.398 . S
C26 C30 1.407 . S
C27 C25 1.396 . S
C27 C28 1.394 . S
C28 H23 0.929 1_554 S
C28 C27 1.394 . S
C28 C29 1.382 . S
C29 C28 1.382 . S
C29 C30 1.392 . S
C29 N31 1.420 . S
C30 H24 0.930 . S
C30 C26 1.407 . S
C30 C29 1.392 . S
N31 C29 1.420 . S
N31 C32 1.244 . S
C32 N31 1.244 . S
H33 C36 0.929 . S
H34 C39 0.929 1_556 S
H35 C41 0.930 . S
C36 H33 0.929 . S
C36 C37 1.398 . S
C36 C38 1.396 . S
C37 C36 1.398 . S
C37 C41 1.407 . S
C38 C36 1.396 . S
C38 C39 1.394 . S
C39 H34 0.929 1_554 S
C39 C38 1.394 . S
C39 C40 1.382 . S
C40 C39 1.382 . S
C40 C41 1.392 . S
C40 N42 1.420 . S
C41 H35 0.930 . S
C41 C37 1.407 . S
C41 C40 1.392 . S
N42 C40 1.420 . S
N42 C43 1.244 . S
C43 N42 1.244 . S
H44 C47 0.929 . S
H45 C50 0.929 . S
H46 C52 0.930 . S
C47 H44 0.929 . S
C47 C48 1.398 . S
C47 C49 1.396 . S
C48 C47 1.398 . S
C48 C52 1.407 . S
C49 C47 1.396 . S
C49 C50 1.394 . S
C50 H45 0.929 . S
C50 C49 1.394 . S
C50 C51 1.382 . S
C51 C50 1.382 . S
C51 C52 1.392 . S
C51 N53 1.420 . S
C52 H46 0.930 . S
C52 C48 1.407 . S
C52 C51 1.392 . S
N53 C51 1.420 . S
N53 C54 1.244 . S
C54 N53 1.244 . S
H55 C58 0.929 . S
H56 C61 0.929 . S
H57 C63 0.930 . S
C58 H55 0.929 . S
C58 C59 1.398 . S
C58 C60 1.396 . S
C59 C58 1.398 . S
C59 C63 1.407 . S
C60 C58 1.396 . S
C60 C61 1.394 . S
C61 H56 0.929 . S
C61 C60 1.394 . S
C61 C62 1.382 . S
C62 C61 1.382 . S
C62 C63 1.392 . S
C62 N64 1.420 . S
C63 H57 0.930 . S
C63 C59 1.407 . S
C63 C62 1.392 . S
N64 C62 1.420 . S
N64 C65 1.244 . S
C65 N64 1.244 . S
H66 C69 0.929 . S
H67 C72 0.929 . S
H68 C74 0.930 . S
C69 H66 0.929 . S
C69 C70 1.398 . S
C69 C71 1.396 . S
C70 C69 1.398 . S
C70 C74 1.407 . S
C71 C69 1.396 . S
C71 C72 1.394 . S
C72 H67 0.929 . S
C72 C71 1.394 . S
C72 C73 1.382 . S
C73 C72 1.382 . S
C73 C74 1.392 . S
C73 N75 1.420 . S
C74 H68 0.930 . S
C74 C70 1.407 . S
C74 C73 1.392 . S
N75 C73 1.420 . S
N75 C76 1.244 . S
C76 N75 1.244 . S
H77 C80 0.929 . S
H78 C83 0.929 . S
H79 C85 0.930 . S
C80 H77 0.929 . S
C80 C81 1.398 . S
C80 C82 1.396 . S
C81 C80 1.398 . S
C81 C85 1.407 . S
C82 C80 1.396 . S
C82 C83 1.394 . S
C83 H78 0.929 . S
C83 C82 1.394 . S
C83 C84 1.382 . S
C84 C83 1.382 . S
C84 C85 1.392 . S
C84 N86 1.420 . S
C85 H79 0.930 . S
C85 C81 1.407 . S
C85 C84 1.392 . S
N86 C84 1.420 . S
N86 C87 1.244 . S
C87 N86 1.244 . S
O88 Mg89 1.990 . S
O88 C102 1.253 . S
Mg89 O88 1.990 . S
Mg89 O92 2.180 1_565 S
Mg89 O93 2.117 . S
Mg89 O107 2.030 . S
O90 Mg91 2.072 1_565 S
O90 C102 1.260 . S
Mg91 O90 2.072 1_545 S
Mg91 O92 2.099 . S
Mg91 O94 2.079 . S
Mg91 O95 2.072 . S
Mg91 O97 2.099 1_455 S
Mg91 O108 2.079 1_545 S
O92 Mg89 2.180 1_545 S
O92 Mg91 2.099 . S
O92 C103 1.279 . S
O93 Mg89 2.117 . S
O93 C103 1.250 1_565 S
O94 Mg91 2.079 . S
O94 C104 1.264 . S
O95 Mg91 2.072 . S
O95 C105 1.260 . S
Mg96 O97 2.180 . S
Mg96 O98 2.030 . S
Mg96 O99 1.965 1_655 S
Mg96 O100 2.117 . S
O97 Mg91 2.099 1_655 S
O97 Mg96 2.180 . S
O97 C106 1.279 . S
O98 Mg96 2.030 . S
O98 C104 1.248 1_655 S
O99 Mg96 1.965 1_455 S
O99 C105 1.284 . S
O100 Mg96 2.117 . S
O100 C106 1.250 . S
C101 O107 1.248 . S
C101 O108 1.264 . S
C102 O88 1.253 . S
C102 O90 1.260 . S
C103 O92 1.279 . S
C103 O93 1.250 1_545 S
C104 O94 1.264 . S
C104 O98 1.248 1_455 S
C105 O95 1.260 . S
C105 O99 1.284 . S
C106 O97 1.279 . S
C106 O100 1.250 . S
O107 Mg89 2.030 . S
O107 C101 1.248 . S
O108 Mg91 2.079 1_565 S
O108 C101 1.264 . S
O109 Mg110 1.990 . S
O109 C123 1.253 1_565 S
Mg110 O109 1.990 . S
Mg110 O113 2.180 . S
Mg110 O114 2.117 . S
Mg110 O128 2.030 . S
O111 Mg112 2.072 . S
O111 C123 1.260 . S
Mg112 O111 2.072 . S
Mg112 O113 2.099 1_545 S
Mg112 O115 2.079 1_545 S
Mg112 O116 2.072 . S
Mg112 O118 2.099 . S
Mg112 O129 2.079 . S
O113 Mg110 2.180 . S
O113 Mg112 2.099 1_565 S
O113 C124 1.279 . S
O114 Mg110 2.117 . S
O114 C124 1.250 . S
O115 Mg112 2.079 1_565 S
O115 C125 1.264 1_565 S
O116 Mg112 2.072 . S
O116 C126 1.260 . S
Mg117 O118 2.180 . S
Mg117 O119 2.030 . S
Mg117 O120 1.990 . S
Mg117 O121 2.117 . S
O118 Mg112 2.099 . S
O118 Mg117 2.180 . S
O118 C127 1.279 . S
O119 Mg117 2.030 . S
O119 C125 1.248 . S
O120 Mg117 1.990 . S
O120 C126 1.253 . S
O121 Mg117 2.117 . S
O121 C127 1.250 . S
C122 O128 1.248 1_545 S
C122 O129 1.264 . S
C123 O109 1.253 1_545 S
C123 O111 1.260 . S
C124 O113 1.279 . S
C124 O114 1.250 . S
C125 O115 1.264 1_545 S
C125 O119 1.248 . S
C126 O116 1.260 . S
C126 O120 1.253 . S
C127 O118 1.279 . S
C127 O121 1.250 . S
O128 Mg110 2.030 . S
O128 C122 1.248 1_565 S
O129 Mg112 2.079 . S
O129 C122 1.264 . S
O130 Mg131 1.990 . S
O130 C144 1.253 . S
Mg131 O130 1.990 . S
Mg131 O134 2.180 . S
Mg131 O135 2.117 . S
Mg131 O149 2.030 . S
O132 Mg133 2.072 . S
O132 C144 1.260 . S
Mg133 O132 2.072 . S
Mg133 O134 2.099 . S
Mg133 O136 2.079 . S
Mg133 O137 2.072 . S
Mg133 O139 2.099 . S
Mg133 O150 2.079 . S
O134 Mg131 2.180 . S
O134 Mg133 2.099 . S
O134 C145 1.279 . S
O135 Mg131 2.117 . S
O135 C145 1.250 . S
O136 Mg133 2.079 . S
O136 C146 1.264 . S
O137 Mg133 2.072 . S
O137 C147 1.260 . S
Mg138 O139 2.180 . S
Mg138 O140 2.030 . S
Mg138 O141 1.990 . S
Mg138 O142 2.117 . S
O139 Mg133 2.099 . S
O139 Mg138 2.180 . S
O139 C148 1.279 . S
O140 Mg138 2.030 . S
O140 C146 1.248 . S
O141 Mg138 1.990 . S
O141 C147 1.253 . S
O142 Mg138 2.117 . S
O142 C148 1.250 . S
C143 O149 1.248 . S
C143 O150 1.264 . S
C144 O130 1.253 . S
C144 O132 1.260 . S
C145 O134 1.279 . S
C145 O135 1.250 . S
C146 O136 1.264 . S
C146 O140 1.248 . S
C147 O137 1.260 . S
C147 O141 1.253 . S
C148 O139 1.279 . S
C148 O142 1.250 . S
O149 Mg131 2.030 . S
O149 C143 1.248 . S
O150 Mg133 2.079 . S
O150 C143 1.264 . S
O151 Mg152 1.990 . S
O151 C165 1.253 . S
Mg152 O151 1.990 . S
Mg152 O155 2.180 1_655 S
Mg152 O156 2.117 . S
Mg152 O170 2.030 . S
O153 Mg154 2.072 1_655 S
O153 C165 1.260 . S
Mg154 O153 2.072 1_455 S
Mg154 O155 2.099 . S
Mg154 O157 2.079 . S
Mg154 O158 2.072 . S
Mg154 O160 2.099 . S
Mg154 O171 2.079 1_455 S
O155 Mg152 2.180 1_455 S
O155 Mg154 2.099 . S
O155 C166 1.279 . S
O156 Mg152 2.117 . S
O156 C166 1.250 1_655 S
O157 Mg154 2.079 . S
O157 C167 1.264 . S
O158 Mg154 2.072 . S
O158 C168 1.260 . S
Mg159 O160 2.180 . S
Mg159 O161 2.030 . S
Mg159 O162 1.990 . S
Mg159 O163 2.117 . S
O160 Mg154 2.099 . S
O160 Mg159 2.180 . S
O160 C169 1.279 . S
O161 Mg159 2.030 . S
O161 C167 1.248 . S
O162 Mg159 1.990 . S
O162 C168 1.253 . S
O163 Mg159 2.117 . S
O163 C169 1.250 . S
C164 O170 1.248 . S
C164 O171 1.264 . S
C165 O151 1.253 . S
C165 O153 1.260 . S
C166 O155 1.279 . S
C166 O156 1.250 1_455 S
C167 O157 1.264 . S
C167 O161 1.248 . S
C168 O158 1.260 . S
C168 O162 1.253 . S
C169 O160 1.279 . S
C169 O163 1.250 . S
O170 Mg152 2.030 . S
O170 C164 1.248 . S
O171 Mg154 2.079 1_655 S
O171 C164 1.264 . S
C172 C173 1.391 . S
C172 C174 1.394 . S
C172 H188 0.931 . S
C173 C172 1.391 . S
C173 C177 1.376 . S
C174 C172 1.394 . S
C174 C175 1.369 . S
C174 C178 1.531 1_545 S
C175 C174 1.369 . S
C175 C176 1.410 . S
C175 C183 1.503 . S
C176 C175 1.410 . S
C176 C177 1.392 . S
C176 C179 1.511 . S
C177 C173 1.376 . S
C177 C176 1.392 . S
C177 H189 0.929 . S
C178 C174 1.531 1_565 S
C178 H190 0.960 . S
C178 H191 0.962 . S
C178 H192 0.960 . S
C179 C176 1.511 . S
C179 H193 0.961 . S
C179 H194 0.961 . S
C179 H195 0.961 . S
C180 C181 1.370 . S
C180 C182 1.363 . S
C180 H196 0.931 . S
C181 C180 1.370 . S
C181 C185 1.408 . S
C182 C180 1.363 . S
C182 C183 1.370 . S
C182 C186 1.524 . S
C183 C175 1.503 . S
C183 C182 1.370 . S
C183 C184 1.403 . S
C184 C183 1.403 . S
C184 C185 1.404 . S
C184 C187 1.548 . S
C185 C181 1.408 . S
C185 C184 1.404 . S
C185 H197 0.930 1_545 S
C186 C182 1.524 . S
C186 H198 0.956 . S
C186 H199 0.961 . S
C186 H200 0.961 . S
C187 C184 1.548 . S
C187 H201 0.936 1_545 S
C187 H202 0.961 . S
C187 H203 0.974 . S
H188 C172 0.931 . S
H189 C177 0.929 . S
H190 C178 0.960 . S
H191 C178 0.962 . S
H192 C178 0.960 . S
H193 C179 0.961 . S
H194 C179 0.961 . S
H195 C179 0.961 . S
H196 C180 0.931 . S
H197 C185 0.930 1_565 S
H198 C186 0.956 . S
H199 C186 0.961 . S
H200 C186 0.961 . S
H201 C187 0.936 1_565 S
H202 C187 0.961 . S
H203 C187 0.974 . S
C204 C205 1.391 . S
C204 C206 1.394 . S
C204 H220 0.931 . S
C205 C204 1.391 . S
C205 C209 1.376 . S
C206 C204 1.394 . S
C206 C207 1.369 . S
C206 C210 1.531 . S
C207 C206 1.369 . S
C207 C208 1.410 . S
C207 C215 1.503 . S
C208 C207 1.410 . S
C208 C209 1.392 . S
C208 C211 1.511 . S
C209 C205 1.376 . S
C209 C208 1.392 . S
C209 H221 0.929 . S
C210 C206 1.531 . S
C210 H222 0.960 . S
C210 H223 0.962 . S
C210 H224 0.960 . S
C211 C208 1.511 . S
C211 H225 0.961 . S
C211 H226 0.961 . S
C211 H227 0.961 . S
C212 C213 1.370 . S
C212 C214 1.363 . S
C212 H228 0.931 . S
C213 C212 1.370 . S
C213 C217 1.408 . S
C214 C212 1.363 . S
C214 C215 1.370 . S
C214 C218 1.524 . S
C215 C207 1.503 . S
C215 C214 1.370 . S
C215 C216 1.403 . S
C216 C215 1.403 . S
C216 C217 1.404 . S
C216 C219 1.539 . S
C217 C213 1.408 . S
C217 C216 1.404 . S
C217 H229 0.930 . S
C218 C214 1.524 . S
C218 H230 0.956 . S
C218 H231 0.961 . S
C218 H232 0.961 . S
C219 C216 1.539 . S
C219 H233 0.958 . S
C219 H234 0.961 . S
C219 H235 0.960 . S
H220 C204 0.931 . S
H221 C209 0.929 . S
H222 C210 0.960 . S
H223 C210 0.962 . S
H224 C210 0.960 . S
H225 C211 0.961 . S
H226 C211 0.961 . S
H227 C211 0.961 . S
H228 C212 0.931 . S
H229 C217 0.930 . S
H230 C218 0.956 . S
H231 C218 0.961 . S
H232 C218 0.961 . S
H233 C219 0.958 . S
H234 C219 0.961 . S
H235 C219 0.960 . S
C236 C237 1.391 . S
C236 C238 1.394 . S
C236 H252 0.931 . S
C237 C236 1.391 . S
C237 C241 1.376 . S
C238 C236 1.394 . S
C238 C239 1.369 . S
C238 C242 1.531 . S
C239 C238 1.369 . S
C239 C240 1.410 . S
C239 C247 1.503 . S
C240 C239 1.410 . S
C240 C241 1.392 . S
C240 C243 1.511 . S
C241 C237 1.376 . S
C241 C240 1.392 . S
C241 H253 0.929 . S
C242 C238 1.531 . S
C242 H254 0.960 . S
C242 H255 0.962 . S
C242 H256 0.960 . S
C243 C240 1.511 . S
C243 H257 0.961 . S
C243 H258 0.961 . S
C243 H259 0.961 . S
C244 C245 1.370 . S
C244 C246 1.363 . S
C244 H260 0.931 . S
C245 C244 1.370 . S
C245 C249 1.408 . S
C246 C244 1.363 . S
C246 C247 1.370 . S
C246 C250 1.524 . S
C247 C239 1.503 . S
C247 C246 1.370 . S
C247 C248 1.403 . S
C248 C247 1.403 . S
C248 C249 1.404 . S
C248 C251 1.539 . S
C249 C245 1.408 . S
C249 C248 1.404 . S
C249 H261 0.930 . S
C250 C246 1.524 . S
C250 H262 0.956 . S
C250 H263 0.961 . S
C250 H264 0.961 . S
C251 C248 1.539 . S
C251 H265 0.958 . S
C251 H266 0.961 . S
C251 H267 0.960 . S
H252 C236 0.931 . S
H253 C241 0.929 . S
H254 C242 0.960 . S
H255 C242 0.962 . S
H256 C242 0.960 . S
H257 C243 0.961 . S
H258 C243 0.961 . S
H259 C243 0.961 . S
H260 C244 0.931 . S
H261 C249 0.930 . S
H262 C250 0.956 . S
H263 C250 0.961 . S
H264 C250 0.961 . S
H265 C251 0.958 . S
H266 C251 0.961 . S
H267 C251 0.960 . S
C268 C269 1.391 . S
C268 C270 1.394 . S
C268 H284 0.931 . S
C269 C268 1.391 . S
C269 C273 1.376 . S
C270 C268 1.394 . S
C270 C271 1.369 . S
C270 C274 1.531 . S
C271 C270 1.369 . S
C271 C272 1.410 . S
C271 C279 1.503 . S
C272 C271 1.410 . S
C272 C273 1.392 . S
C272 C275 1.511 . S
C273 C269 1.376 . S
C273 C272 1.392 . S
C273 H285 0.929 . S
C274 C270 1.531 . S
C274 H286 0.960 . S
C274 H287 0.962 . S
C274 H288 0.960 . S
C275 C272 1.511 . S
C275 H289 0.961 . S
C275 H290 0.961 . S
C275 H291 0.961 . S
C276 C277 1.370 . S
C276 C278 1.363 . S
C276 H292 0.931 1_455 S
C277 C276 1.370 . S
C277 C281 1.408 . S
C278 C276 1.363 . S
C278 C279 1.370 . S
C278 C282 1.524 1_455 S
C279 C271 1.503 . S
C279 C278 1.370 . S
C279 C280 1.403 . S
C280 C279 1.403 . S
C280 C281 1.404 . S
C280 C283 1.539 . S
C281 C277 1.408 . S
C281 C280 1.404 . S
C281 H293 0.930 . S
C282 C278 1.524 1_655 S
C282 H294 0.956 1_655 S
C282 H295 0.961 . S
C282 H296 0.961 . S
C283 C280 1.539 . S
C283 H297 0.958 . S
C283 H298 0.961 . S
C283 H299 0.960 . S
H284 C268 0.931 . S
H285 C273 0.929 . S
H286 C274 0.960 . S
H287 C274 0.962 . S
H288 C274 0.960 . S
H289 C275 0.961 . S
H290 C275 0.961 . S
H291 C275 0.961 . S
H292 C276 0.931 1_655 S
H293 C281 0.930 . S
H294 C282 0.956 1_455 S
H295 C282 0.961 . S
H296 C282 0.961 . S
H297 C283 0.958 . S
H298 C283 0.961 . S
H299 C283 0.960 . S
C300 C301 1.391 1_556 S
C300 C302 1.394 . S
C300 H316 0.931 . S
C301 C300 1.391 1_554 S
C301 C305 1.376 . S
C302 C300 1.394 . S
C302 C303 1.369 . S
C302 C306 1.531 1_565 S
C303 C302 1.369 . S
C303 C304 1.410 1_556 S
C303 C311 1.503 . S
C304 C303 1.410 1_554 S
C304 C305 1.392 . S
C304 C307 1.511 . S
C305 C301 1.376 . S
C305 C304 1.392 . S
C305 H317 0.929 . S
C306 C302 1.531 1_545 S
C306 H318 0.960 . S
C306 H319 0.962 1_545 S
C306 H320 0.960 . S
C307 C304 1.511 . S
C307 H321 0.961 . S
C307 H322 0.961 . S
C307 H323 0.961 . S
C308 C309 1.370 1_565 S
C308 C310 1.363 . S
C308 H324 0.931 . S
C309 C308 1.370 1_545 S
C309 C313 1.408 . S
C310 C308 1.363 . S
C310 C311 1.370 . S
C310 C314 1.524 . S
C311 C303 1.503 . S
C311 C310 1.370 . S
C311 C312 1.403 1_565 S
C312 C311 1.403 1_545 S
C312 C313 1.404 . S
C312 C315 1.539 . S
C313 C309 1.408 . S
C313 C312 1.404 . S
C313 H325 0.930 . S
C314 C310 1.524 . S
C314 H326 0.956 . S
C314 H327 0.961 . S
C314 H328 0.961 . S
C315 C312 1.539 . S
C315 H329 0.958 . S
C315 H330 0.961 . S
C315 H331 0.960 . S
H316 C300 0.931 . S
H317 C305 0.929 . S
H318 C306 0.960 . S
H319 C306 0.962 1_565 S
H320 C306 0.960 . S
H321 C307 0.961 . S
H322 C307 0.961 . S
H323 C307 0.961 . S
H324 C308 0.931 . S
H325 C313 0.930 . S
H326 C314 0.956 . S
H327 C314 0.961 . S
H328 C314 0.961 . S
H329 C315 0.958 . S
H330 C315 0.961 . S
H331 C315 0.960 . S
C332 C333 1.391 1_556 S
C332 C334 1.394 . S
C332 H348 0.931 . S
C333 C332 1.391 1_554 S
C333 C337 1.376 . S
C334 C332 1.394 . S
C334 C335 1.369 . S
C334 C338 1.531 . S
C335 C334 1.369 . S
C335 C336 1.410 . S
C335 C343 1.503 . S
C336 C335 1.410 . S
C336 C337 1.392 1_556 S
C336 C339 1.511 1_556 S
C337 C333 1.376 . S
C337 C336 1.392 1_554 S
C337 H349 0.929 . S
C338 C334 1.531 . S
C338 H350 0.960 . S
C338 H351 0.962 . S
C338 H352 0.960 . S
C339 C336 1.511 1_554 S
C339 H353 0.961 . S
C339 H354 0.961 1_554 S
C339 H355 0.961 1_554 S
C340 C341 1.370 . S
C340 C342 1.363 . S
C340 H356 0.931 . S
C341 C340 1.370 . S
C341 C345 1.408 . S
C342 C340 1.363 . S
C342 C343 1.370 . S
C342 C346 1.524 . S
C343 C335 1.503 . S
C343 C342 1.370 . S
C343 C344 1.403 . S
C344 C343 1.403 . S
C344 C345 1.404 . S
C344 C347 1.539 . S
C345 C341 1.408 . S
C345 C344 1.404 . S
C345 H357 0.930 . S
C346 C342 1.524 . S
C346 H358 0.956 . S
C346 H359 0.961 1_556 S
C346 H360 0.961 1_556 S
C347 C344 1.539 . S
C347 H361 0.958 . S
C347 H362 0.961 . S
C347 H363 0.960 . S
H348 C332 0.931 . S
H349 C337 0.929 . S
H350 C338 0.960 . S
H351 C338 0.962 . S
H352 C338 0.960 . S
H353 C339 0.961 . S
H354 C339 0.961 1_556 S
H355 C339 0.961 1_556 S
H356 C340 0.931 . S
H357 C345 0.930 . S
H358 C346 0.956 . S
H359 C346 0.961 1_554 S
H360 C346 0.961 1_554 S
H361 C347 0.958 . S
H362 C347 0.961 . S
H363 C347 0.960 . S
C364 C365 1.391 1_556 S
C364 C366 1.394 . S
C364 H380 0.931 1_556 S
C365 C364 1.391 1_554 S
C365 C369 1.376 1_554 S
C366 C364 1.394 . S
C366 C367 1.369 . S
C366 C370 1.531 . S
C367 C366 1.369 . S
C367 C368 1.410 . S
C367 C375 1.503 . S
C368 C367 1.410 . S
C368 C369 1.392 . S
C368 C371 1.511 . S
C369 C365 1.376 1_556 S
C369 C368 1.392 . S
C369 H381 0.929 . S
C370 C366 1.531 . S
C370 H382 0.960 . S
C370 H383 0.962 . S
C370 H384 0.960 . S
C371 C368 1.511 . S
C371 H385 0.961 . S
C371 H386 0.961 . S
C371 H387 0.961 . S
C372 C373 1.370 . S
C372 C374 1.363 . S
C372 H388 0.931 . S
C373 C372 1.370 . S
C373 C377 1.408 . S
C374 C372 1.363 . S
C374 C375 1.370 . S
C374 C378 1.524 1_556 S
C375 C367 1.503 . S
C375 C374 1.370 . S
C375 C376 1.403 . S
C376 C375 1.403 . S
C376 C377 1.404 . S
C376 C379 1.539 . S
C377 C373 1.408 . S
C377 C376 1.404 . S
C377 H389 0.930 . S
C378 C374 1.524 1_554 S
C378 H390 0.956 . S
C378 H391 0.961 . S
C378 H392 0.961 . S
C379 C376 1.539 . S
C379 H393 0.958 . S
C379 H394 0.961 . S
C379 H395 0.960 . S
H380 C364 0.931 1_554 S
H381 C369 0.929 . S
H382 C370 0.960 . S
H383 C370 0.962 . S
H384 C370 0.960 . S
H385 C371 0.961 . S
H386 C371 0.961 . S
H387 C371 0.961 . S
H388 C372 0.931 . S
H389 C377 0.930 . S
H390 C378 0.956 . S
H391 C378 0.961 . S
H392 C378 0.961 . S
H393 C379 0.958 . S
H394 C379 0.961 . S
H395 C379 0.960 . S
C396 C397 1.391 1_556 S
C396 C398 1.394 . S
C396 H412 0.931 . S
C397 C396 1.391 1_554 S
C397 C401 1.376 . S
C398 C396 1.394 . S
C398 C399 1.369 . S
C398 C402 1.531 . S
C399 C398 1.369 . S
C399 C400 1.410 1_656 S
C399 C407 1.503 . S
C400 C399 1.410 1_454 S
C400 C401 1.392 1_455 S
C400 C403 1.511 . S
C401 C397 1.376 . S
C401 C400 1.392 1_655 S
C401 H413 0.929 1_655 S
C402 C398 1.531 . S
C402 H414 0.960 . S
C402 H415 0.962 . S
C402 H416 0.960 . S
C403 C400 1.511 . S
C403 H417 0.961 . S
C403 H418 0.961 . S
C403 H419 0.961 . S
C404 C405 1.370 1_655 S
C404 C406 1.363 . S
C404 H420 0.931 . S
C405 C404 1.370 1_455 S
C405 C409 1.408 . S
C406 C404 1.363 . S
C406 C407 1.370 . S
C406 C410 1.524 . S
C407 C399 1.503 . S
C407 C406 1.370 . S
C407 C408 1.403 1_655 S
C408 C407 1.403 1_455 S
C408 C409 1.404 . S
C408 C411 1.539 . S
C409 C405 1.408 . S
C409 C408 1.404 . S
C409 H421 0.930 . S
C410 C406 1.524 . S
C410 H422 0.956 . S
C410 H423 0.961 1_556 S
C410 H424 0.961 . S
C411 C408 1.539 . S
C411 H425 0.958 . S
C411 H426 0.961 . S
C411 H427 0.960 . S
H412 C396 0.931 . S
H413 C401 0.929 1_455 S
H414 C402 0.960 . S
H415 C402 0.962 . S
H416 C402 0.960 . S
H417 C403 0.961 . S
H418 C403 0.961 . S
H419 C403 0.961 . S
H420 C404 0.931 . S
H421 C409 0.930 . S
H422 C410 0.956 . S
H423 C410 0.961 1_554 S
H424 C410 0.961 . S
H425 C411 0.958 . S
H426 C411 0.961 . S
H427 C411 0.960 . S
C428 C429 1.391 . S
C428 C430 1.394 . S
C428 H444 0.931 . S
C429 C428 1.391 . S
C429 C433 1.376 . S
C430 C428 1.394 . S
C430 C431 1.369 . S
C430 C434 1.531 . S
C431 C430 1.369 . S
C431 C432 1.410 . S
C431 C439 1.503 . S
C432 C431 1.410 . S
C432 C433 1.392 . S
C432 C435 1.511 . S
C433 C429 1.376 . S
C433 C432 1.392 . S
C433 H445 0.929 . S
C434 C430 1.531 . S
C434 H446 0.960 . S
C434 H447 0.962 . S
C434 H448 0.960 . S
C435 C432 1.511 . S
C435 H449 0.961 . S
C435 H450 0.961 . S
C435 H451 0.961 . S
C436 C437 1.370 . S
C436 C438 1.363 . S
C436 H452 0.931 . S
C437 C436 1.370 . S
C437 C441 1.408 1_455 S
C438 C436 1.363 . S
C438 C439 1.370 . S
C438 C442 1.524 . S
C439 C431 1.503 . S
C439 C438 1.370 . S
C439 C440 1.403 1_455 S
C440 C439 1.403 1_655 S
C440 C441 1.404 . S
C440 C443 1.539 . S
C441 C437 1.408 1_655 S
C441 C440 1.404 . S
C441 H453 0.930 . S
C442 C438 1.524 . S
C442 H454 0.956 . S
C442 H455 0.961 . S
C442 H456 0.961 . S
C443 C440 1.539 . S
C443 H457 0.958 . S
C443 H458 0.961 . S
C443 H459 0.960 . S
H444 C428 0.931 . S
H445 C433 0.929 . S
H446 C434 0.960 . S
H447 C434 0.962 . S
H448 C434 0.960 . S
H449 C435 0.961 . S
H450 C435 0.961 . S
H451 C435 0.961 . S
H452 C436 0.931 . S
H453 C441 0.930 . S
H454 C442 0.956 . S
H455 C442 0.961 . S
H456 C442 0.961 . S
H457 C443 0.958 . S
H458 C443 0.961 . S
H459 C443 0.960 . S
C460 C461 1.391 . S
C460 C462 1.394 . S
C460 H476 0.931 . S
C461 C460 1.391 . S
C461 C465 1.376 . S
C462 C460 1.394 . S
C462 C463 1.369 . S
C462 C466 1.531 . S
C463 C462 1.369 . S
C463 C464 1.410 . S
C463 C471 1.503 . S
C464 C463 1.410 . S
C464 C465 1.392 . S
C464 C467 1.511 1_545 S
C465 C461 1.376 . S
C465 C464 1.392 . S
C465 H477 0.929 . S
C466 C462 1.531 . S
C466 H478 0.960 . S
C466 H479 0.962 . S
C466 H480 0.960 . S
C467 C464 1.511 1_565 S
C467 H481 0.961 . S
C467 H482 0.961 . S
C467 H483 0.961 . S
C468 C469 1.370 . S
C468 C470 1.363 . S
C468 H484 0.931 . S
C469 C468 1.370 . S
C469 C473 1.408 . S
C470 C468 1.363 . S
C470 C471 1.370 . S
C470 C474 1.524 . S
C471 C463 1.503 . S
C471 C470 1.370 . S
C471 C472 1.403 . S
C472 C471 1.403 . S
C472 C473 1.404 . S
C472 C475 1.539 . S
C473 C469 1.408 . S
C473 C472 1.404 . S
C473 H485 0.930 . S
C474 C470 1.524 . S
C474 H486 0.956 . S
C474 H487 0.961 . S
C474 H488 0.961 . S
C475 C472 1.539 . S
C475 H489 0.958 . S
C475 H490 0.961 . S
C475 H491 0.960 . S
H476 C460 0.931 . S
H477 C465 0.929 . S
H478 C466 0.960 . S
H479 C466 0.962 . S
H480 C466 0.960 . S
H481 C467 0.961 . S
H482 C467 0.961 . S
H483 C467 0.961 . S
H484 C468 0.931 . S
H485 C473 0.930 . S
H486 C474 0.956 . S
H487 C474 0.961 . S
H488 C474 0.961 . S
H489 C475 0.958 . S
H490 C475 0.961 . S
H491 C475 0.960 . S
C492 C493 1.391 . S
C492 C494 1.394 . S
C492 H508 0.931 . S
C493 C492 1.391 . S
C493 C497 1.376 . S
C494 C492 1.394 . S
C494 C495 1.369 . S
C494 C498 1.531 . S
C495 C494 1.369 . S
C495 C496 1.410 . S
C495 C503 1.503 . S
C496 C495 1.410 . S
C496 C497 1.392 . S
C496 C499 1.511 . S
C497 C493 1.376 . S
C497 C496 1.392 . S
C497 H509 0.929 . S
C498 C494 1.531 . S
C498 H510 0.960 . S
C498 H511 0.962 . S
C498 H512 0.960 . S
C499 C496 1.511 . S
C499 H513 0.961 . S
C499 H514 0.961 . S
C499 H515 0.961 . S
C500 C501 1.370 . S
C500 C502 1.363 . S
C500 H516 0.931 . S
C501 C500 1.370 . S
C501 C505 1.408 . S
C502 C500 1.363 . S
C502 C503 1.370 . S
C502 C506 1.524 . S
C503 C495 1.503 . S
C503 C502 1.370 . S
C503 C504 1.403 . S
C504 C503 1.403 . S
C504 C505 1.404 . S
C504 C507 1.539 . S
C505 C501 1.408 . S
C505 C504 1.404 . S
C505 H517 0.930 . S
C506 C502 1.524 . S
C506 H518 0.956 . S
C506 H519 0.961 . S
C506 H520 0.961 . S
C507 C504 1.539 . S
C507 H521 0.958 . S
C507 H522 0.961 . S
C507 H523 0.960 . S
H508 C492 0.931 . S
H509 C497 0.929 . S
H510 C498 0.960 . S
H511 C498 0.962 . S
H512 C498 0.960 . S
H513 C499 0.961 . S
H514 C499 0.961 . S
H515 C499 0.961 . S
H516 C500 0.931 . S
H517 C505 0.930 . S
H518 C506 0.956 . S
H519 C506 0.961 . S
H520 C506 0.961 . S
H521 C507 0.958 . S
H522 C507 0.961 . S
H523 C507 0.960 . S
C524 C525 1.391 . S
C524 C526 1.394 . S
C524 H540 0.931 . S
C525 C524 1.391 . S
C525 C529 1.376 . S
C526 C524 1.394 . S
C526 C527 1.369 . S
C526 C530 1.531 . S
C527 C526 1.369 . S
C527 C528 1.410 . S
C527 C535 1.503 . S
C528 C527 1.410 . S
C528 C529 1.392 . S
C528 C531 1.511 . S
C529 C525 1.376 . S
C529 C528 1.392 . S
C529 H541 0.929 . S
C530 C526 1.531 . S
C530 H542 0.960 . S
C530 H543 0.962 . S
C530 H544 0.960 . S
C531 C528 1.511 . S
C531 H545 0.961 . S
C531 H546 0.961 . S
C531 H547 0.961 . S
C532 C533 1.370 . S
C532 C534 1.363 . S
C532 H548 0.931 . S
C533 C532 1.370 . S
C533 C537 1.408 . S
C534 C532 1.363 . S
C534 C535 1.370 . S
C534 C538 1.524 . S
C535 C527 1.503 . S
C535 C534 1.370 . S
C535 C536 1.403 . S
C536 C535 1.403 . S
C536 C537 1.404 . S
C536 C539 1.539 . S
C537 C533 1.408 . S
C537 C536 1.404 . S
C537 H549 0.930 . S
C538 C534 1.524 . S
C538 H550 0.956 . S
C538 H551 0.961 . S
C538 H552 0.961 . S
C539 C536 1.539 . S
C539 H553 0.958 . S
C539 H554 0.961 . S
C539 H555 0.960 . S
H540 C524 0.931 . S
H541 C529 0.929 . S
H542 C530 0.960 . S
H543 C530 0.962 . S
H544 C530 0.960 . S
H545 C531 0.961 . S
H546 C531 0.961 . S
H547 C531 0.961 . S
H548 C532 0.931 . S
H549 C537 0.930 . S
H550 C538 0.956 . S
H551 C538 0.961 . S
H552 C538 0.961 . S
H553 C539 0.958 . S
H554 C539 0.961 . S
H555 C539 0.960 . S
C556 C557 1.391 . S
C556 C558 1.394 . S
C556 H572 0.931 . S
C557 C556 1.391 . S
C557 C561 1.376 1_554 S
C558 C556 1.394 . S
C558 C559 1.369 1_554 S
C558 C562 1.531 . S
C559 C558 1.369 1_556 S
C559 C560 1.410 1_655 S
C559 C567 1.503 1_655 S
C560 C559 1.410 1_455 S
C560 C561 1.392 1_455 S
C560 C563 1.511 . S
C561 C557 1.376 1_556 S
C561 C560 1.392 1_655 S
C561 H573 0.929 1_655 S
C562 C558 1.531 . S
C562 H574 0.960 . S
C562 H575 0.962 . S
C562 H576 0.960 . S
C563 C560 1.511 . S
C563 H577 0.961 . S
C563 H578 0.961 . S
C563 H579 0.961 . S
C564 C565 1.370 1_655 S
C564 C566 1.363 . S
C564 H580 0.931 . S
C565 C564 1.370 1_455 S
C565 C569 1.408 . S
C566 C564 1.363 . S
C566 C567 1.370 1_655 S
C566 C570 1.524 . S
C567 C559 1.503 1_455 S
C567 C566 1.370 1_455 S
C567 C568 1.403 . S
C568 C567 1.403 . S
C568 C569 1.404 . S
C568 C571 1.539 1_556 S
C569 C565 1.408 . S
C569 C568 1.404 . S
C569 H581 0.930 . S
C570 C566 1.524 . S
C570 H582 0.956 . S
C570 H583 0.961 . S
C570 H584 0.961 . S
C571 C568 1.539 1_554 S
C571 H585 0.958 . S
C571 H586 0.961 . S
C571 H587 0.960 . S
H572 C556 0.931 . S
H573 C561 0.929 1_455 S
H574 C562 0.960 . S
H575 C562 0.962 . S
H576 C562 0.960 . S
H577 C563 0.961 . S
H578 C563 0.961 . S
H579 C563 0.961 . S
H580 C564 0.931 . S
H581 C569 0.930 . S
H582 C570 0.956 . S
H583 C570 0.961 . S
H584 C570 0.961 . S
H585 C571 0.958 . S
H586 C571 0.961 . S
H587 C571 0.960 . S
C588 C589 1.391 . S
C588 C590 1.394 . S
C588 H604 0.931 . S
C589 C588 1.391 . S
C589 C593 1.376 1_554 S
C590 C588 1.394 . S
C590 C591 1.369 1_554 S
C590 C594 1.531 . S
C591 C590 1.369 1_556 S
C591 C592 1.410 . S
C591 C599 1.500 1_565 S
C592 C591 1.410 . S
C592 C593 1.392 . S
C592 C595 1.511 1_565 S
C593 C589 1.376 1_556 S
C593 C592 1.392 . S
C593 H605 0.929 . S
C594 C590 1.531 . S
C594 H606 0.960 . S
C594 H607 0.962 . S
C594 H608 0.960 . S
C595 C592 1.511 1_545 S
C595 H609 0.947 1_545 S
C595 H610 0.961 . S
C595 H611 0.961 . S
C596 C597 1.370 1_565 S
C596 C598 1.363 . S
C596 H612 0.931 . S
C597 C596 1.370 1_545 S
C597 C601 1.408 . S
C598 C596 1.363 . S
C598 C599 1.362 1_565 S
C598 C602 1.524 . S
C599 C591 1.500 1_545 S
C599 C598 1.362 1_545 S
C599 C600 1.414 . S
C600 C599 1.414 . S
C600 C601 1.404 . S
C600 C603 1.539 . S
C601 C597 1.408 . S
C601 C600 1.404 . S
C601 H613 0.930 . S
C602 C598 1.524 . S
C602 H614 0.956 . S
C602 H615 0.961 . S
C602 H616 0.961 . S
C603 C600 1.539 . S
C603 H617 0.958 1_556 S
C603 H618 0.961 . S
C603 H619 0.960 . S
H604 C588 0.931 . S
H605 C593 0.929 . S
H606 C594 0.960 . S
H607 C594 0.962 . S
H608 C594 0.960 . S
H609 C595 0.947 1_565 S
H610 C595 0.961 . S
H611 C595 0.961 . S
H612 C596 0.931 . S
H613 C601 0.930 . S
H614 C602 0.956 . S
H615 C602 0.961 . S
H616 C602 0.961 . S
H617 C603 0.958 1_554 S
H618 C603 0.961 . S
H619 C603 0.960 . S
C620 C621 1.391 1_556 S
C620 C622 1.394 . S
C620 H636 0.931 . S
C621 C620 1.391 1_554 S
C621 C625 1.376 . S
C622 C620 1.394 . S
C622 C623 1.369 . S
C622 C626 1.531 . S
C623 C622 1.369 . S
C623 C624 1.410 . S
C623 C631 1.503 . S
C624 C623 1.410 . S
C624 C625 1.392 1_556 S
C624 C627 1.511 1_556 S
C625 C621 1.376 . S
C625 C624 1.392 1_554 S
C625 H637 0.929 . S
C626 C622 1.531 . S
C626 H638 0.960 . S
C626 H639 0.962 . S
C626 H640 0.960 . S
C627 C624 1.511 1_554 S
C627 H641 0.961 . S
C627 H642 0.961 . S
C627 H643 0.961 1_554 S
C628 C629 1.370 . S
C628 C630 1.363 . S
C628 H644 0.931 . S
C629 C628 1.370 . S
C629 C633 1.408 . S
C630 C628 1.363 . S
C630 C631 1.370 . S
C630 C634 1.524 1_556 S
C631 C623 1.503 . S
C631 C630 1.370 . S
C631 C632 1.403 . S
C632 C631 1.403 . S
C632 C633 1.404 . S
C632 C635 1.539 . S
C633 C629 1.408 . S
C633 C632 1.404 . S
C633 H645 0.930 . S
C634 C630 1.524 1_554 S
C634 H646 0.956 1_554 S
C634 H647 0.961 . S
C634 H648 0.961 . S
C635 C632 1.539 . S
C635 H649 0.958 . S
C635 H650 0.961 . S
C635 H651 0.960 . S
H636 C620 0.931 . S
H637 C625 0.929 . S
H638 C626 0.960 . S
H639 C626 0.962 . S
H640 C626 0.960 . S
H641 C627 0.961 . S
H642 C627 0.961 . S
H643 C627 0.961 1_556 S
H644 C628 0.931 . S
H645 C633 0.930 . S
H646 C634 0.956 1_556 S
H647 C634 0.961 . S
H648 C634 0.961 . S
H649 C635 0.958 . S
H650 C635 0.961 . S
H651 C635 0.960 . S
C652 C653 1.391 1_556 S
C652 C654 1.394 . S
C652 H668 0.931 . S
C653 C652 1.391 1_554 S
C653 C657 1.376 . S
C654 C652 1.394 . S
C654 C655 1.369 . S
C654 C658 1.531 . S
C655 C654 1.369 . S
C655 C656 1.399 1_556 S
C655 C663 1.503 . S
C656 C655 1.399 1_554 S
C656 C657 1.398 . S
C656 C659 1.516 . S
C657 C653 1.376 . S
C657 C656 1.398 . S
C657 H669 0.929 . S
C658 C654 1.531 . S
C658 H670 0.960 . S
C658 H671 0.962 . S
C658 H672 0.960 . S
C659 C656 1.516 . S
C659 H673 0.961 . S
C659 H674 0.961 . S
C659 H675 0.961 . S
C660 C661 1.370 . S
C660 C662 1.363 . S
C660 H676 0.931 . S
C661 C660 1.370 . S
C661 C665 1.408 . S
C662 C660 1.363 . S
C662 C663 1.370 . S
C662 C666 1.524 . S
C663 C655 1.503 . S
C663 C662 1.370 . S
C663 C664 1.403 . S
C664 C663 1.403 . S
C664 C665 1.404 . S
C664 C667 1.539 . S
C665 C661 1.408 . S
C665 C664 1.404 . S
C665 H677 0.930 . S
C666 C662 1.524 . S
C666 H678 0.956 . S
C666 H679 0.961 1_556 S
C666 H680 0.961 1_556 S
C667 C664 1.539 . S
C667 H681 0.958 . S
C667 H682 0.961 . S
C667 H683 0.960 . S
H668 C652 0.931 . S
H669 C657 0.929 . S
H670 C658 0.960 . S
H671 C658 0.962 . S
H672 C658 0.960 . S
H673 C659 0.961 . S
H674 C659 0.961 . S
H675 C659 0.961 . S
H676 C660 0.931 . S
H677 C665 0.930 . S
H678 C666 0.956 . S
H679 C666 0.961 1_554 S
H680 C666 0.961 1_554 S
H681 C667 0.958 . S
H682 C667 0.961 . S
H683 C667 0.960 . S
C684 C685 1.391 . S
C684 C686 1.394 . S
C684 H700 0.931 . S
C685 C684 1.391 . S
C685 C689 1.376 . S
C686 C684 1.394 . S
C686 C687 1.369 . S
C686 C690 1.531 . S
C687 C686 1.369 . S
C687 C688 1.410 . S
C687 C695 1.503 . S
C688 C687 1.410 . S
C688 C689 1.392 . S
C688 C691 1.511 1_455 S
C689 C685 1.376 . S
C689 C688 1.392 . S
C689 H701 0.929 . S
C690 C686 1.531 . S
C690 H702 0.960 . S
C690 H703 0.962 . S
C690 H704 0.960 . S
C691 C688 1.511 1_655 S
C691 H705 0.961 . S
C691 H706 0.961 1_654 S
C691 H707 0.961 . S
C692 C693 1.370 . S
C692 C694 1.363 . S
C692 H708 0.931 . S
C693 C692 1.370 . S
C693 C697 1.408 . S
C694 C692 1.363 . S
C694 C695 1.370 1_556 S
C694 C698 1.524 . S
C695 C687 1.503 . S
C695 C694 1.370 1_554 S
C695 C696 1.403 . S
C696 C695 1.403 . S
C696 C697 1.404 1_554 S
C696 C699 1.539 . S
C697 C693 1.408 . S
C697 C696 1.404 1_556 S
C697 H709 0.930 1_556 S
C698 C694 1.524 . S
C698 H710 0.956 . S
C698 H711 0.961 . S
C698 H712 0.961 . S
C699 C696 1.539 . S
C699 H713 0.958 . S
C699 H714 0.961 . S
C699 H715 0.960 . S
H700 C684 0.931 . S
H701 C689 0.929 . S
H702 C690 0.960 . S
H703 C690 0.962 . S
H704 C690 0.960 . S
H705 C691 0.961 . S
H706 C691 0.961 1_456 S
H707 C691 0.961 . S
H708 C692 0.931 . S
H709 C697 0.930 1_554 S
H710 C698 0.956 . S
H711 C698 0.961 . S
H712 C698 0.961 . S
H713 C699 0.958 . S
H714 C699 0.961 . S
H715 C699 0.960 . S
C716 C717 1.391 . S
C716 C718 1.394 . S
C716 H732 0.931 . S
C717 C716 1.391 . S
C717 C721 1.376 . S
C718 C716 1.394 . S
C718 C719 1.369 . S
C718 C722 1.531 . S
C719 C718 1.369 . S
C719 C720 1.410 . S
C719 C727 1.508 . S
C720 C719 1.410 . S
C720 C721 1.392 . S
C720 C723 1.511 1_554 S
C721 C717 1.376 . S
C721 C720 1.392 . S
C721 H733 0.929 . S
C722 C718 1.531 . S
C722 H734 0.976 . S
C722 H735 0.962 . S
C722 H736 0.960 1_545 S
C723 C720 1.511 1_556 S
C723 H737 0.961 . S
C723 H738 0.961 . S
C723 H739 0.961 . S
C724 C725 1.370 . S
C724 C726 1.363 1_556 S
C724 H740 0.931 . S
C725 C724 1.370 . S
C725 C729 1.408 . S
C726 C724 1.363 1_554 S
C726 C727 1.371 . S
C726 C730 1.524 . S
C727 C719 1.508 . S
C727 C726 1.371 . S
C727 C728 1.398 1_554 S
C728 C727 1.398 1_556 S
C728 C729 1.404 . S
C728 C731 1.539 1_545 S
C729 C725 1.408 . S
C729 C728 1.404 . S
C729 H741 0.930 1_545 S
C730 C726 1.524 . S
C730 H742 0.956 . S
C730 H743 0.961 . S
C730 H744 0.961 . S
C731 C728 1.539 1_565 S
C731 H745 0.958 . S
C731 H746 0.961 . S
C731 H747 0.948 1_565 S
H732 C716 0.931 . S
H733 C721 0.929 . S
H734 C722 0.976 . S
H735 C722 0.962 . S
H736 C722 0.960 1_565 S
H737 C723 0.961 . S
H738 C723 0.961 . S
H739 C723 0.961 . S
H740 C724 0.931 . S
H741 C729 0.930 1_565 S
H742 C730 0.956 . S
H743 C730 0.961 . S
H744 C730 0.961 . S
H745 C731 0.958 . S
H746 C731 0.961 . S
H747 C731 0.948 1_545 S
C748 C749 1.391 . S
C748 C750 1.394 . S
C748 H764 0.931 . S
C749 C748 1.391 . S
C749 C753 1.376 . S
C750 C748 1.394 . S
C750 C751 1.369 . S
C750 C754 1.531 . S
C751 C750 1.369 . S
C751 C752 1.410 . S
C751 C759 1.503 . S
C752 C751 1.410 . S
C752 C753 1.392 . S
C752 C755 1.520 . S
C753 C749 1.376 . S
C753 C752 1.392 . S
C753 H765 0.929 . S
C754 C750 1.531 . S
C754 H766 0.960 . S
C754 H767 0.962 . S
C754 H768 0.960 . S
C755 C752 1.520 . S
C755 H769 0.957 1_554 S
C755 H770 0.951 1_554 S
C755 H771 0.966 . S
C756 C757 1.370 . S
C756 C758 1.363 . S
C756 H772 0.931 . S
C757 C756 1.370 . S
C757 C761 1.408 . S
C758 C756 1.363 . S
C758 C759 1.370 1_556 S
C758 C762 1.524 . S
C759 C751 1.503 . S
C759 C758 1.370 1_554 S
C759 C760 1.403 . S
C760 C759 1.403 . S
C760 C761 1.404 1_554 S
C760 C763 1.539 . S
C761 C757 1.408 . S
C761 C760 1.404 1_556 S
C761 H773 0.930 . S
C762 C758 1.524 . S
C762 H774 0.956 . S
C762 H775 0.961 . S
C762 H776 0.961 . S
C763 C760 1.539 . S
C763 H777 0.958 . S
C763 H778 0.961 . S
C763 H779 0.960 . S
H764 C748 0.931 . S
H765 C753 0.929 . S
H766 C754 0.960 . S
H767 C754 0.962 . S
H768 C754 0.960 . S
H769 C755 0.957 1_556 S
H770 C755 0.951 1_556 S
H771 C755 0.966 . S
H772 C756 0.931 . S
H773 C761 0.930 . S
H774 C762 0.956 . S
H775 C762 0.961 . S
H776 C762 0.961 . S
H777 C763 0.958 . S
H778 C763 0.961 . S
H779 C763 0.960 . S
C780 C781 1.391 . S
C780 C782 1.394 . S
C780 H796 0.931 . S
C781 C780 1.391 . S
C781 C785 1.376 . S
C782 C780 1.394 . S
C782 C783 1.369 . S
C782 C786 1.531 . S
C783 C782 1.369 . S
C783 C784 1.410 . S
C783 C791 1.503 1_554 S
C784 C783 1.410 . S
C784 C785 1.392 . S
C784 C787 1.511 . S
C785 C781 1.376 . S
C785 C784 1.392 . S
C785 H797 0.929 . S
C786 C782 1.531 . S
C786 H798 0.960 . S
C786 H799 0.962 . S
C786 H800 0.960 . S
C787 C784 1.511 . S
C787 H801 0.961 . S
C787 H802 0.961 . S
C787 H803 0.961 1_554 S
C788 C789 1.370 . S
C788 C790 1.363 1_556 S
C788 H804 0.931 1_556 S
C789 C788 1.370 . S
C789 C793 1.408 . S
C790 C788 1.363 1_554 S
C790 C791 1.370 1_554 S
C790 C794 1.524 . S
C791 C783 1.503 1_556 S
C791 C790 1.370 1_556 S
C791 C792 1.403 . S
C792 C791 1.403 . S
C792 C793 1.404 . S
C792 C795 1.539 . S
C793 C789 1.408 . S
C793 C792 1.404 . S
C793 H805 0.930 . S
C794 C790 1.524 . S
C794 H806 0.956 . S
C794 H807 0.961 . S
C794 H808 0.961 . S
C795 C792 1.539 . S
C795 H809 0.958 . S
C795 H810 0.961 . S
C795 H811 0.960 . S
H796 C780 0.931 . S
H797 C785 0.929 . S
H798 C786 0.960 . S
H799 C786 0.962 . S
H800 C786 0.960 . S
H801 C787 0.961 . S
H802 C787 0.961 . S
H803 C787 0.961 1_556 S
H804 C788 0.931 1_554 S
H805 C793 0.930 . S
H806 C794 0.956 . S
H807 C794 0.961 . S
H808 C794 0.961 . S
H809 C795 0.958 . S
H810 C795 0.961 . S
H811 C795 0.960 . S
C812 C813 1.391 . S
C812 C814 1.394 . S
C812 H828 0.931 . S
C813 C812 1.391 . S
C813 C817 1.376 . S
C814 C812 1.394 . S
C814 C815 1.369 . S
C814 C818 1.531 . S
C815 C814 1.369 . S
C815 C816 1.410 . S
C815 C823 1.503 . S
C816 C815 1.410 . S
C816 C817 1.392 . S
C816 C819 1.511 . S
C817 C813 1.376 . S
C817 C816 1.392 . S
C817 H829 0.929 . S
C818 C814 1.531 . S
C818 H830 0.960 . S
C818 H831 0.962 . S
C818 H832 0.960 . S
C819 C816 1.511 . S
C819 H833 0.961 . S
C819 H834 0.961 . S
C819 H835 0.961 . S
C820 C821 1.370 1_455 S
C820 C822 1.363 . S
C820 H836 0.931 . S
C821 C820 1.370 1_655 S
C821 C825 1.408 . S
C822 C820 1.363 . S
C822 C823 1.370 1_455 S
C822 C826 1.524 . S
C823 C815 1.503 . S
C823 C822 1.370 1_655 S
C823 C824 1.403 . S
C824 C823 1.403 . S
C824 C825 1.404 . S
C824 C827 1.539 . S
C825 C821 1.408 . S
C825 C824 1.404 . S
C825 H837 0.930 . S
C826 C822 1.524 . S
C826 H838 0.956 . S
C826 H839 0.961 . S
C826 H840 0.961 . S
C827 C824 1.539 . S
C827 H841 0.958 . S
C827 H842 0.961 . S
C827 H843 0.960 . S
H828 C812 0.931 . S
H829 C817 0.929 . S
H830 C818 0.960 . S
H831 C818 0.962 . S
H832 C818 0.960 . S
H833 C819 0.961 . S
H834 C819 0.961 . S
H835 C819 0.961 . S
H836 C820 0.931 . S
H837 C825 0.930 . S
H838 C826 0.956 . S
H839 C826 0.961 . S
H840 C826 0.961 . S
H841 C827 0.958 . S
H842 C827 0.961 . S
H843 C827 0.960 . S
C844 C845 1.391 . S
C844 C846 1.394 . S
C844 H860 0.913 1_565 S
C845 C844 1.391 . S
C845 C849 1.376 . S
C846 C844 1.394 . S
C846 C847 1.369 . S
C846 C850 1.531 1_565 S
C847 C846 1.369 . S
C847 C848 1.410 . S
C847 C855 1.503 . S
C848 C847 1.410 . S
C848 C849 1.392 . S
C848 C851 1.511 . S
C849 C845 1.376 . S
C849 C848 1.392 . S
C849 H861 0.929 . S
C850 C846 1.531 1_545 S
C850 H862 0.960 . S
C850 H863 0.962 . S
C850 H864 0.960 . S
C851 C848 1.511 . S
C851 H865 0.961 . S
C851 H866 0.961 . S
C851 H867 0.961 . S
C852 C853 1.370 1_545 S
C852 C854 1.363 1_545 S
C852 H868 0.931 . S
C853 C852 1.370 1_565 S
C853 C857 1.408 . S
C854 C852 1.363 1_565 S
C854 C855 1.370 . S
C854 C858 1.524 1_565 S
C855 C847 1.503 . S
C855 C854 1.370 . S
C855 C856 1.403 . S
C856 C855 1.403 . S
C856 C857 1.404 . S
C856 C859 1.539 . S
C857 C853 1.408 . S
C857 C856 1.404 . S
C857 H869 0.930 . S
C858 C854 1.524 1_545 S
C858 H870 0.956 . S
C858 H871 0.961 . S
C858 H872 0.961 . S
C859 C856 1.539 . S
C859 H873 0.958 . S
C859 H874 0.961 . S
C859 H875 0.960 . S
H860 C844 0.913 1_545 S
H861 C849 0.929 . S
H862 C850 0.960 . S
H863 C850 0.962 . S
H864 C850 0.960 . S
H865 C851 0.961 . S
H866 C851 0.961 . S
H867 C851 0.961 . S
H868 C852 0.931 . S
H869 C857 0.930 . S
H870 C858 0.956 . S
H871 C858 0.961 . S
H872 C858 0.961 . S
H873 C859 0.958 . S
H874 C859 0.961 . S
H875 C859 0.960 . S
C876 C877 1.391 . S
C876 C878 1.394 . S
C876 H892 0.931 . S
C877 C876 1.391 . S
C877 C881 1.376 . S
C878 C876 1.394 . S
C878 C879 1.369 . S
C878 C882 1.531 . S
C879 C878 1.369 . S
C879 C880 1.410 . S
C879 C887 1.503 . S
C880 C879 1.410 . S
C880 C881 1.392 . S
C880 C883 1.511 . S
C881 C877 1.376 . S
C881 C880 1.392 . S
C881 H893 0.929 . S
C882 C878 1.531 . S
C882 H894 0.960 . S
C882 H895 0.962 . S
C882 H896 0.960 . S
C883 C880 1.511 . S
C883 H897 0.961 . S
C883 H898 0.961 . S
C883 H899 0.961 . S
C884 C885 1.370 . S
C884 C886 1.363 . S
C884 H900 0.931 . S
C885 C884 1.370 . S
C885 C889 1.408 . S
C886 C884 1.363 . S
C886 C887 1.370 . S
C886 C890 1.524 . S
C887 C879 1.503 . S
C887 C886 1.370 . S
C887 C888 1.403 . S
C888 C887 1.403 . S
C888 C889 1.404 . S
C888 C891 1.539 . S
C889 C885 1.408 . S
C889 C888 1.404 . S
C889 H901 0.930 . S
C890 C886 1.524 . S
C890 H902 0.956 . S
C890 H903 0.961 . S
C890 H904 0.961 . S
C891 C888 1.539 . S
C891 H905 0.958 . S
C891 H906 0.961 . S
C891 H907 0.960 . S
H892 C876 0.931 . S
H893 C881 0.929 . S
H894 C882 0.960 . S
H895 C882 0.962 . S
H896 C882 0.960 . S
H897 C883 0.961 . S
H898 C883 0.961 . S
H899 C883 0.961 . S
H900 C884 0.931 . S
H901 C889 0.930 . S
H902 C890 0.956 . S
H903 C890 0.961 . S
H904 C890 0.961 . S
H905 C891 0.958 . S
H906 C891 0.961 . S
H907 C891 0.960 . S
C908 C909 1.391 . S
C908 C910 1.394 . S
C908 H924 0.931 . S
C909 C908 1.391 . S
C909 C913 1.376 . S
C910 C908 1.394 . S
C910 C911 1.369 . S
C910 C914 1.531 . S
C911 C910 1.369 . S
C911 C912 1.410 . S
C911 C919 1.503 . S
C912 C911 1.410 . S
C912 C913 1.392 . S
C912 C915 1.511 . S
C913 C909 1.376 . S
C913 C912 1.392 . S
C913 H925 0.929 . S
C914 C910 1.531 . S
C914 H926 0.960 . S
C914 H927 0.962 . S
C914 H928 0.960 . S
C915 C912 1.511 . S
C915 H929 0.961 . S
C915 H930 0.961 . S
C915 H931 0.961 . S
C916 C917 1.370 . S
C916 C918 1.363 . S
C916 H932 0.931 . S
C917 C916 1.370 . S
C917 C921 1.408 . S
C918 C916 1.363 . S
C918 C919 1.370 . S
C918 C922 1.524 . S
C919 C911 1.503 . S
C919 C918 1.370 . S
C919 C920 1.403 . S
C920 C919 1.403 . S
C920 C921 1.404 . S
C920 C923 1.539 . S
C921 C917 1.408 . S
C921 C920 1.404 . S
C921 H933 0.930 . S
C922 C918 1.524 . S
C922 H934 0.956 . S
C922 H935 0.961 . S
C922 H936 0.961 . S
C923 C920 1.539 . S
C923 H937 0.958 . S
C923 H938 0.961 . S
C923 H939 0.960 . S
H924 C908 0.931 . S
H925 C913 0.929 . S
H926 C914 0.960 . S
H927 C914 0.962 . S
H928 C914 0.960 . S
H929 C915 0.961 . S
H930 C915 0.961 . S
H931 C915 0.961 . S
H932 C916 0.931 . S
H933 C921 0.930 . S
H934 C922 0.956 . S
H935 C922 0.961 . S
H936 C922 0.961 . S
H937 C923 0.958 . S
H938 C923 0.961 . S
H939 C923 0.960 . S
C173 C76 1.532 . S
C181 C103 1.421 . S
C213 C127 1.437 . S
C205 C87 1.538 . S
C245 C148 1.444 . S
C237 C54 1.564 . S
C277 C166 1.436 . S
C269 C65 1.581 . S
C309 C106 1.327 . S
C301 C32 1.490 . S
C333 C43 1.467 . S
C341 C124 1.339 . S
C365 C10 1.470 . S
C373 C145 1.356 . S
C397 C21 1.471 . S
C405 C169 1.333 . S
C437 C104 0.641 . S
C429 C60 0.632 . S
C469 C122 0.612 . S
C461 C71 0.722 . S
C501 C143 0.670 . S
C493 C82 0.586 . S
C525 C49 0.581 . S
C533 C167 0.662 . S
C557 C16 0.672 . S
C565 C102 0.736 . S
C597 C126 0.728 . S
C589 C27 0.690 . S
C629 C147 0.734 . S
C621 C38 0.800 . S
C653 C5 0.798 . S
C661 C165 0.737 . S
C685 C59 1.564 . S
C693 C105 1.548 . S
C717 C70 1.606 . S
C725 C123 1.541 . S
C757 C144 1.545 . S
C749 C81 1.567 . S
C789 C168 1.552 . S
C781 C48 1.620 . S
C813 C15 1.462 . S
C821 C101 1.430 1_655 S
C853 C125 1.436 1_565 S
C845 C26 1.429 . S
C885 C146 1.402 . S
C877 C37 1.458 . S
C909 C4 1.475 . S
C917 C164 1.422 . S
