# Generated by pormake.
# Topology hwx, (6,3)-cn, num edge types: 1
# Building blocks:
#     Node 0, Type 0, BuildingBlock: OJICUG_clean_sbu_0, # of connection points: 6
#     Node 1, Type 0, BuildingBlock: OJICUG_clean_sbu_0, # of connection points: 6
#     Node 2, Type 0, BuildingBlock: OJICUG_clean_sbu_0, # of connection points: 6
#     Node 3, Type 0, BuildingBlock: OJICUG_clean_sbu_0, # of connection points: 6
#     Node 4, Type 1, BuildingBlock: MIDCAF_clean_linker_0, # of connection points: 3
#     Node 5, Type 1, BuildingBlock: MIDCAF_clean_linker_0, # of connection points: 3
#     Node 6, Type 1, BuildingBlock: MIDCAF_clean_linker_0, # of connection points: 3
#     Node 7, Type 1, BuildingBlock: MIDCAF_clean_linker_0, # of connection points: 3
#     Node 8, Type 1, BuildingBlock: MIDCAF_clean_linker_0, # of connection points: 3
#     Node 9, Type 1, BuildingBlock: MIDCAF_clean_linker_0, # of connection points: 3
#     Node 10, Type 1, BuildingBlock: MIDCAF_clean_linker_0, # of connection points: 3
#     Node 11, Type 1, BuildingBlock: MIDCAF_clean_linker_0, # of connection points: 3
#     Edge 12, Type (0, 1), BuildingBlock: CIFDUS_clean_linker_0, # of connection points: 2
#     Edge 13, Type (0, 1), BuildingBlock: CIFDUS_clean_linker_0, # of connection points: 2
#     Edge 14, Type (0, 1), BuildingBlock: CIFDUS_clean_linker_0, # of connection points: 2
#     Edge 15, Type (0, 1), BuildingBlock: CIFDUS_clean_linker_0, # of connection points: 2
#     Edge 16, Type (0, 1), BuildingBlock: CIFDUS_clean_linker_0, # of connection points: 2
#     Edge 17, Type (0, 1), BuildingBlock: CIFDUS_clean_linker_0, # of connection points: 2
#     Edge 18, Type (0, 1), BuildingBlock: CIFDUS_clean_linker_0, # of connection points: 2
#     Edge 19, Type (0, 1), BuildingBlock: CIFDUS_clean_linker_0, # of connection points: 2
#     Edge 20, Type (0, 1), BuildingBlock: CIFDUS_clean_linker_0, # of connection points: 2
#     Edge 21, Type (0, 1), BuildingBlock: CIFDUS_clean_linker_0, # of connection points: 2
#     Edge 22, Type (0, 1), BuildingBlock: CIFDUS_clean_linker_0, # of connection points: 2
#     Edge 23, Type (0, 1), BuildingBlock: CIFDUS_clean_linker_0, # of connection points: 2
#     Edge 24, Type (0, 1), BuildingBlock: CIFDUS_clean_linker_0, # of connection points: 2
#     Edge 25, Type (0, 1), BuildingBlock: CIFDUS_clean_linker_0, # of connection points: 2
#     Edge 26, Type (0, 1), BuildingBlock: CIFDUS_clean_linker_0, # of connection points: 2
#     Edge 27, Type (0, 1), BuildingBlock: CIFDUS_clean_linker_0, # of connection points: 2
#     Edge 28, Type (0, 1), BuildingBlock: CIFDUS_clean_linker_0, # of connection points: 2
#     Edge 29, Type (0, 1), BuildingBlock: CIFDUS_clean_linker_0, # of connection points: 2
#     Edge 30, Type (0, 1), BuildingBlock: CIFDUS_clean_linker_0, # of connection points: 2
#     Edge 31, Type (0, 1), BuildingBlock: CIFDUS_clean_linker_0, # of connection points: 2
#     Edge 32, Type (0, 1), BuildingBlock: CIFDUS_clean_linker_0, # of connection points: 2
#     Edge 33, Type (0, 1), BuildingBlock: CIFDUS_clean_linker_0, # of connection points: 2
#     Edge 34, Type (0, 1), BuildingBlock: CIFDUS_clean_linker_0, # of connection points: 2
#     Edge 35, Type (0, 1), BuildingBlock: CIFDUS_clean_linker_0, # of connection points: 2
# Relax obj value: 0.078
# Max RMSD: 0.103
# Mean RMSD: 0.095
data_MOF--net-hwx--node1-OJICUG_clean_sbu_0--node2-MIDCAF_clean_linker_0--edge1-CIFDUS_clean_linker_0
_symmetry_space_group_name_H-M    P1
_symmetry_Int_Tables_number       1
_symmetry_cell_setting            triclinic
loop_
_symmetry_equiv_pos_as_xyz
'x, y, z'
_cell_length_a     54.754411
_cell_length_b     54.758714
_cell_length_c     24.820044
_cell_angle_alpha  89.929557
_cell_angle_beta   90.210178
_cell_angle_gamma 89.962738
loop_
_atom_site_label
_atom_site_type_symbol
_atom_site_fract_x
_atom_site_fract_y
_atom_site_fract_z
_atom_type_partial_charge
Sc0 Sc 0.22181 0.22425 0.06006 0.0
Sc1 Sc 0.18472 0.18349 0.98627 0.0
Sc2 Sc 0.22974 0.21887 0.92104 0.0
O3 O 0.21199 0.20888 0.98913 0.0
C4 C 0.22231 0.26967 0.97859 0.0
C5 C 0.164 0.22214 0.07076 0.0
C6 C 0.1748 0.21267 0.87838 0.0
C7 C 0.21359 0.16835 0.09274 0.0
C8 C 0.27364 0.21902 0.00629 0.0
C9 C 0.22563 0.16165 0.90772 0.0
O10 O 0.22255 0.26037 0.02562 0.0
O11 O 0.16093 0.20406 0.03928 0.0
O12 O 0.19704 0.21869 0.87287 0.0
O13 O 0.22205 0.18965 0.10095 0.0
O14 O 0.26516 0.2202 0.9587 0.0
O15 O 0.20551 0.15983 0.93312 0.0
O16 O 0.26011 0.219 0.04757 0.0
O17 O 0.19987 0.16314 0.05294 0.0
O18 O 0.23706 0.18165 0.90215 0.0
O19 O 0.18477 0.2313 0.08081 0.0
O20 O 0.22387 0.25702 0.93584 0.0
O21 O 0.16681 0.20127 0.9193 0.0
Sc22 Sc 0.2755 0.72451 0.44329 0.0
Sc23 Sc 0.31486 0.68247 0.5079 0.0
Sc24 Sc 0.27585 0.72055 0.58404 0.0
O25 O 0.2888 0.70916 0.51174 0.0
C26 C 0.28022 0.77076 0.52055 0.0
C27 C 0.33216 0.71949 0.41607 0.0
C28 C 0.3329 0.71367 0.60846 0.0
C29 C 0.27926 0.66823 0.4112 0.0
C30 C 0.22714 0.7204 0.51346 0.0
C31 C 0.2797 0.66305 0.60113 0.0
O32 O 0.27817 0.76089 0.47449 0.0
O33 O 0.33597 0.70178 0.44823 0.0
O34 O 0.31164 0.7216 0.61893 0.0
O35 O 0.27134 0.68984 0.40515 0.0
O36 O 0.23843 0.72087 0.55817 0.0
O37 O 0.29677 0.65994 0.56717 0.0
O38 O 0.238 0.72102 0.46833 0.0
O39 O 0.29512 0.66241 0.44657 0.0
O40 O 0.27011 0.68375 0.61047 0.0
O41 O 0.31143 0.72965 0.41068 0.0
O42 O 0.28009 0.75861 0.56424 0.0
O43 O 0.33738 0.69979 0.56864 0.0
Sc44 Sc 0.77516 0.76796 0.91 0.0
Sc45 Sc 0.80489 0.81699 0.97501 0.0
Sc46 Sc 0.77598 0.77103 0.05113 0.0
O47 O 0.7854 0.78533 0.97866 0.0
C48 C 0.72732 0.76404 0.98372 0.0
C49 C 0.76633 0.82379 0.87938 0.0
C50 C 0.76995 0.82848 0.0733 0.0
C51 C 0.82918 0.78577 0.88101 0.0
C52 C 0.78752 0.72248 0.98363 0.0
C53 C 0.83081 0.78729 0.07074 0.0
O54 O 0.73836 0.7621 0.93882 0.0
O55 O 0.78172 0.83236 0.91291 0.0
O56 O 0.76732 0.80613 0.086 0.0
O57 O 0.81076 0.77198 0.87383 0.0
O58 O 0.78293 0.73371 0.02724 0.0
O59 O 0.8301 0.8049 0.03715 0.0
O60 O 0.78683 0.73285 0.93796 0.0
O61 O 0.82971 0.80261 0.91617 0.0
O62 O 0.81301 0.77286 0.07878 0.0
O63 O 0.76217 0.80111 0.87439 0.0
O64 O 0.73834 0.76825 0.02791 0.0
O65 O 0.7822 0.83525 0.03268 0.0
Sc66 Sc 0.71958 0.26475 0.57601 0.0
Sc67 Sc 0.68329 0.31109 0.51649 0.0
Sc68 Sc 0.72254 0.27461 0.43713 0.0
O69 O 0.70843 0.28356 0.50991 0.0
C70 C 0.7695 0.27123 0.51179 0.0
C71 C 0.71791 0.3199 0.61859 0.0
C72 C 0.71946 0.33274 0.42843 0.0
C73 C 0.66282 0.2716 0.59947 0.0
C74 C 0.71599 0.22194 0.49006 0.0
C75 C 0.66589 0.28236 0.41132 0.0
O76 O 0.75749 0.26622 0.55406 0.0
O77 O 0.70248 0.32749 0.58383 0.0
O78 O 0.72753 0.31196 0.4147 0.0
O79 O 0.68321 0.26092 0.60545 0.0
O80 O 0.7197 0.23588 0.45004 0.0
O81 O 0.66179 0.29714 0.44984 0.0
O82 O 0.71475 0.22974 0.53814 0.0
O83 O 0.65997 0.29024 0.56952 0.0
O84 O 0.68674 0.27304 0.40216 0.0
O85 O 0.72534 0.29789 0.62043 0.0
O86 O 0.75945 0.27536 0.46649 0.0
O87 O 0.70321 0.33557 0.46429 0.0
C88 C 0.24281 0.57959 0.14611 0.0
C89 C 0.24959 0.56681 0.19292 0.0
C90 C 0.24937 0.54118 0.19248 0.0
C91 C 0.24215 0.52858 0.14608 0.0
H92 H 0.22731 0.46082 0.08772 0.0
H93 H 0.22303 0.41678 0.08918 0.0
H94 H 0.19774 0.41798 0.92407 0.0
H95 H 0.20259 0.46222 0.92192 0.0
H96 H 0.22623 0.51306 0.85306 0.0
H97 H 0.22906 0.53819 0.7715 0.0
H98 H 0.21192 0.60238 0.86504 0.0
H99 H 0.20905 0.57754 0.94583 0.0
H100 H 0.23066 0.57763 0.06463 0.0
H101 H 0.24319 0.59937 0.14506 0.0
H102 H 0.25447 0.53094 0.22815 0.0
H103 H 0.2421 0.50881 0.14689 0.0
N104 N 0.22483 0.50389 0.04962 0.0
N105 N 0.2162 0.50467 0.95686 0.0
N106 N 0.22516 0.54095 0.00282 0.0
C107 C 0.21875 0.49189 0.00359 0.0
C108 C 0.21928 0.52927 0.95641 0.0
C109 C 0.22807 0.52842 0.04952 0.0
C110 C 0.2154 0.46511 0.00458 0.0
C111 C 0.22074 0.45181 0.05166 0.0
C112 C 0.21811 0.42652 0.0527 0.0
C113 C 0.20997 0.41391 0.00681 0.0
C114 C 0.20431 0.42718 0.95989 0.0
C115 C 0.20703 0.45254 0.95875 0.0
C116 C 0.21766 0.5434 0.90585 0.0
C117 C 0.22259 0.53247 0.85584 0.0
C118 C 0.22434 0.54682 0.8093 0.0
C119 C 0.22075 0.57221 0.81202 0.0
C120 C 0.21452 0.58283 0.86155 0.0
C121 C 0.21309 0.56861 0.90796 0.0
C122 C 0.23527 0.54144 0.09925 0.0
C123 C 0.23575 0.56708 0.09987 0.0
C124 C 0.94581 0.73667 0.65166 0.0
C125 C 0.92879 0.75564 0.65831 0.0
C126 C 0.92734 0.77417 0.61934 0.0
C127 C 0.94213 0.77347 0.57382 0.0
H128 H 0.03333 0.7181 0.54993 0.0
H129 H 0.0761 0.70574 0.55032 0.0
H130 H 0.08285 0.72922 0.38473 0.0
H131 H 0.04016 0.74076 0.38362 0.0
H132 H 0.98534 0.74791 0.31993 0.0
H133 H 0.96295 0.76045 0.23898 0.0
H134 H 0.92024 0.81068 0.33383 0.0
H135 H 0.94224 0.79799 0.41487 0.0
H136 H 0.97377 0.72124 0.6017 0.0
H137 H 0.94725 0.72221 0.68131 0.0
H138 H 0.91421 0.78887 0.62329 0.0
H139 H 0.94022 0.78782 0.54402 0.0
N140 N 0.99543 0.74199 0.51492 0.0
N141 N -0.00154 0.75078 0.42254 0.0
N142 N 0.96394 0.76315 0.47063 0.0
C143 C 0.00825 0.74095 0.46807 0.0
C144 C 0.97635 0.76191 0.42358 0.0
C145 C 0.97324 0.75313 0.51632 0.0
C146 C 0.03332 0.73076 0.467 0.0
C147 C 0.04384 0.72031 0.51336 0.0
C148 C 0.0684 0.71332 0.51367 0.0
C149 C 0.083 0.71675 0.46775 0.0
C150 C 0.07213 0.72607 0.42066 0.0
C151 C 0.0476 0.73289 0.42022 0.0
C152 C 0.96531 0.77176 0.37377 0.0
C153 C 0.9715 0.76196 0.32333 0.0
C154 C 0.95873 0.76909 0.27707 0.0
C155 C 0.93996 0.78651 0.28041 0.0
C156 C 0.93481 0.79739 0.33023 0.0
C157 C 0.94724 0.78995 0.3766 0.0
C158 C 0.95897 0.75441 0.56662 0.0
C159 C 0.96101 0.73621 0.60639 0.0
C160 C 0.7574 0.41046 0.88372 0.0
C161 C 0.75346 0.42219 0.8341 0.0
C162 C 0.7566 0.44765 0.83096 0.0
C163 C 0.76369 0.46102 0.87659 0.0
H164 H 0.77321 0.53202 0.93945 0.0
H165 H 0.77592 0.5764 0.94228 0.0
H166 H 0.80308 0.57261 0.10575 0.0
H167 H 0.79985 0.52839 0.10356 0.0
H168 H 0.77568 0.48 0.17176 0.0
H169 H 0.77241 0.45599 0.25477 0.0
H170 H 0.78717 0.39019 0.1648 0.0
H171 H 0.79045 0.41392 0.08243 0.0
H172 H 0.76718 0.41382 0.96635 0.0
H173 H 0.75466 0.39097 0.88793 0.0
H174 H 0.7538 0.45719 0.79318 0.0
H175 H 0.76594 0.4806 0.87299 0.0
N176 N 0.77759 0.4875 0.97498 0.0
N177 N 0.78516 0.48707 0.0683 0.0
N178 N 0.77687 0.45063 0.02289 0.0
C179 C 0.78311 0.4997 0.02129 0.0
C180 C 0.78215 0.46252 0.06929 0.0
C181 C 0.77448 0.46285 0.9756 0.0
C182 C 0.7861 0.52659 0.02139 0.0
C183 C 0.77989 0.54062 0.9759 0.0
C184 C 0.78157 0.56608 0.97742 0.0
C185 C 0.78962 0.57805 0.02435 0.0
C186 C 0.79641 0.56398 0.06931 0.0
C187 C 0.79464 0.53858 0.0679 0.0
C188 C 0.78311 0.4488 0.12052 0.0
C189 C 0.77865 0.46046 0.16998 0.0
C190 C 0.77666 0.44676 0.21739 0.0
C191 C 0.77954 0.42127 0.21616 0.0
C192 C 0.78515 0.40984 0.16711 0.0
C193 C 0.78681 0.42343 0.11981 0.0
C194 C 0.76766 0.44916 0.92621 0.0
C195 C 0.76446 0.4237 0.92898 0.0
C196 C 0.07644 0.25937 0.3302 0.0
C197 C 0.0629 0.25072 0.28598 0.0
C198 C 0.03749 0.24838 0.29044 0.0
C199 C 0.02581 0.25459 0.3385 0.0
H200 H 0.96013 0.27565 0.39823 0.0
H201 H 0.91618 0.28061 0.3989 0.0
H202 H 0.91795 0.29086 0.57146 0.0
H203 H 0.96214 0.28528 0.57124 0.0
H204 H 0.01313 0.2531 0.62671 0.0
H205 H 0.03807 0.24349 0.70562 0.0
H206 H 0.1013 0.27379 0.62578 0.0
H207 H 0.07664 0.28198 0.54617 0.0
H208 H 0.07584 0.27152 0.41198 0.0
H209 H 0.09612 0.26108 0.32788 0.0
H210 H 0.02671 0.24178 0.2568 0.0
H211 H 0.00618 0.25241 0.341 0.0
N212 N 0.00295 0.27204 0.43659 0.0
N213 N 0.00444 0.27456 0.53088 0.0
N214 N 0.04026 0.26735 0.4817 0.0
C215 C 0.99139 0.27562 0.48421 0.0
C216 C 0.02893 0.27056 0.52975 0.0
C217 C 0.02733 0.26792 0.43497 0.0
C218 C 0.96472 0.27986 0.48479 0.0
C219 C 0.95128 0.27907 0.43643 0.0
C220 C 0.92603 0.28212 0.43667 0.0
C221 C 0.91359 0.28614 0.4852 0.0
C222 C 0.92702 0.28749 0.53349 0.0
C223 C 0.95235 0.28436 0.53331 0.0
C224 C 0.04305 0.26798 0.58015 0.0
C225 C 0.03232 0.25791 0.62644 0.0
C226 C 0.04662 0.25249 0.67173 0.0
C227 C 0.07185 0.25743 0.67188 0.0
C228 C 0.08213 0.26894 0.62658 0.0
C229 C 0.06797 0.27386 0.58104 0.0
C230 C 0.03943 0.26279 0.38315 0.0
C231 C 0.06485 0.2652 0.3784 0.0
C232 C 0.69162 0.90985 0.33374 0.0
C233 C 0.71009 0.91525 0.29631 0.0
C234 C 0.72139 0.93836 0.29863 0.0
C235 C 0.71561 0.95484 0.33979 0.0
H236 H 0.68953 0.03211 0.39568 0.0
H237 H 0.68804 0.07669 0.402 0.0
H238 H 0.70191 0.07192 0.57317 0.0
H239 H 0.70282 0.02794 0.5674 0.0
H240 H 0.70621 0.98024 0.62694 0.0
H241 H 0.71777 0.95783 0.70807 0.0
H242 H 0.71508 0.89021 0.61871 0.0
H243 H 0.70303 0.91231 0.53827 0.0
H244 H 0.67308 0.92071 0.40561 0.0
H245 H 0.68195 0.89262 0.3323 0.0
H246 H 0.73579 0.94316 0.27081 0.0
H247 H 0.72566 0.97183 0.34271 0.0
N248 N 0.69664 0.98711 0.43076 0.0
N249 N 0.69857 0.98644 0.52533 0.0
N250 N 0.69874 0.9498 0.47746 0.0
C251 C 0.69692 -0.0007 0.47862 0.0
C252 C 0.69955 0.96174 0.52517 0.0
C253 C 0.69727 0.96224 0.43029 0.0
C254 C 0.69619 0.02635 0.48098 0.0
C255 C 0.6922 0.04061 0.43462 0.0
C256 C 0.69142 0.06615 0.43821 0.0
C257 C 0.69464 0.07785 0.48819 0.0
C258 C 0.69879 0.06353 0.53425 0.0
C259 C 0.69948 0.03819 0.53076 0.0
C260 C 0.70384 0.94811 0.57586 0.0
C261 C 0.70772 0.96055 0.62475 0.0
C262 C 0.7145 0.94775 0.67121 0.0
C263 C 0.71743 0.92228 0.66977 0.0
C264 C 0.71267 0.9098 0.62142 0.0
C265 C 0.7059 0.92254 0.57508 0.0
C266 C 0.69876 0.94832 0.37971 0.0
C267 C 0.68628 0.92605 0.37538 0.0
C268 C 0.58707 0.2015 0.86019 0.0
C269 C 0.57578 0.20887 0.81193 0.0
C270 C 0.55042 0.21263 0.81098 0.0
C271 C 0.53675 0.21004 0.85805 0.0
H272 H 0.46756 0.19374 0.92208 0.0
H273 H 0.42351 0.19732 0.91606 0.0
H274 H 0.42163 0.22837 0.076 0.0
H275 H 0.46594 0.22417 0.08276 0.0
H276 H 0.51835 0.22752 0.14958 0.0
H277 H 0.543 0.23589 0.2301 0.0
H278 H 0.60674 0.20755 0.1493 0.0
H279 H 0.5824 0.19892 0.07 0.0
H280 H 0.5829 0.19426 0.94421 0.0
H281 H 0.60664 0.1987 0.8622 0.0
H282 H 0.54129 0.21817 0.77415 0.0
H283 H 0.51734 0.21384 0.85643 0.0
N284 N 0.50988 0.2052 0.95798 0.0
N285 N 0.50963 0.21006 0.05199 0.0
N286 N 0.54672 0.2066 0.00562 0.0
C287 C 0.49725 0.20773 0.00462 0.0
C288 C 0.53446 0.20931 0.05267 0.0
C289 C 0.5346 0.2046 0.95815 0.0
C290 C 0.4703 0.20883 0.0028 0.0
C291 C 0.45782 0.20129 0.95613 0.0
C292 C 0.43254 0.20347 0.9525 0.0
C293 C 0.4191 0.21342 0.99525 0.0
C294 C 0.43147 0.22048 0.0425 0.0
C295 C 0.45685 0.21813 0.04631 0.0
C296 C 0.54842 0.21265 0.10327 0.0
C297 C 0.53755 0.22279 0.14941 0.0
C298 C 0.55167 0.22773 0.19532 0.0
C299 C 0.57677 0.22233 0.19602 0.0
C300 C 0.58738 0.21161 0.15037 0.0
C301 C 0.57341 0.20684 0.10465 0.0
C302 C 0.54828 0.20396 0.90701 0.0
C303 C 0.57348 0.19915 0.90728 0.0
C304 C 0.2681 0.07232 0.66028 0.0
C305 C 0.25743 0.0583 0.70131 0.0
C306 C 0.25347 0.03327 0.69293 0.0
C307 C 0.25992 0.02252 0.64387 0.0
H308 H 0.30166 0.96194 0.5671 0.0
H309 H 0.30639 0.91793 0.56147 0.0
H310 H 0.27563 0.91898 0.40077 0.0
H311 H 0.27187 0.96333 0.40567 0.0
H312 H 0.269 0.01926 0.34809 0.0
H313 H 0.26277 0.04723 0.27214 0.0
H314 H 0.27274 0.10871 0.3788 0.0
H315 H 0.27922 0.08114 0.45391 0.0
H316 H 0.28187 0.07318 0.57997 0.0
H317 H 0.27104 0.09175 0.66548 0.0
H318 H 0.24523 0.02214 0.72406 0.0
H319 H 0.25632 0.00326 0.63788 0.0
N320 N 0.27857 0.00213 0.54242 0.0
N321 N 0.28041 0.00718 0.44842 0.0
N322 N 0.27358 0.04091 0.50446 0.0
C323 C 0.28177 0.99246 0.49256 0.0
C324 C 0.27647 0.03155 0.45432 0.0
C325 C 0.27446 0.02634 0.54856 0.0
C326 C 0.28614 0.96602 0.48703 0.0
C327 C 0.29604 0.9528 0.53042 0.0
C328 C 0.29865 0.92754 0.52728 0.0
C329 C 0.29104 0.91486 0.48101 0.0
C330 C 0.28187 0.9282 0.43684 0.0
C331 C 0.2796 0.95359 0.4397 0.0
C332 C 0.27448 0.04796 0.40711 0.0
C333 C 0.27015 0.03874 0.35509 0.0
C334 C 0.26643 0.05472 0.31172 0.0
C335 C 0.26729 0.08013 0.31959 0.0
C336 C 0.27227 0.08923 0.3713 0.0
C337 C 0.27579 0.07337 0.41449 0.0
C338 C 0.26988 0.03681 0.60225 0.0
C339 C 0.27414 0.06173 0.61119 0.0
C340 C 0.41278 0.78994 0.15665 0.0
C341 C 0.42245 0.78099 0.20531 0.0
C342 C 0.44761 0.77599 0.2086 0.0
C343 C 0.46254 0.77876 0.16335 0.0
H344 H 0.5335 0.76957 0.10613 0.0
H345 H 0.57777 0.76566 0.10885 0.0
H346 H 0.58108 0.78279 0.93895 0.0
H347 H 0.53683 0.7858 0.93579 0.0
H348 H 0.47676 0.75041 0.88795 0.0
H349 H 0.44872 0.73973 0.81497 0.0
H350 H 0.40116 0.79904 0.86206 0.0
H351 H 0.42845 0.80853 0.93674 0.0
H352 H 0.41929 0.79874 0.07422 0.0
H353 H 0.39345 0.79375 0.15253 0.0
H354 H 0.45563 0.76934 0.24579 0.0
H355 H 0.48166 0.77389 0.16662 0.0
N356 N 0.49176 0.78306 0.06534 0.0
N357 N 0.4927 0.78001 0.97089 0.0
N358 N 0.45549 0.78566 0.01544 0.0
C359 C 0.50471 0.78052 0.01896 0.0
C360 C 0.46809 0.78275 0.96903 0.0
C361 C 0.4671 0.78573 0.06377 0.0
C362 C 0.5316 0.77799 0.02074 0.0
C363 C 0.54367 0.77244 0.06932 0.0
C364 C 0.56908 0.77031 0.07093 0.0
C365 C 0.58303 0.77391 0.02413 0.0
C366 C 0.57092 0.77943 0.97556 0.0
C367 C 0.54551 0.78131 0.97383 0.0
C368 C 0.4545 0.78005 0.91818 0.0
C369 C 0.46055 0.76143 0.88176 0.0
C370 C 0.44448 0.75537 0.83991 0.0
C371 C 0.42234 0.76814 0.83336 0.0
C372 C 0.4176 0.78825 0.86702 0.0
C373 C 0.43332 0.79389 0.90948 0.0
C374 C 0.45251 0.78639 0.11387 0.0
C375 C 0.42762 0.79261 0.11152 0.0
H376 H 0.122 0.19929 0.10168 0.0
H377 H 0.15933 0.26869 0.10563 0.0
H378 H 0.12923 0.28468 0.16823 0.0
H379 H 0.09571 0.27733 0.23072 0.0
H380 H 0.05877 0.20789 0.23048 0.0
H381 H 0.08494 0.19363 0.15701 0.0
C382 C 0.12316 0.21806 0.11536 0.0
C383 C 0.14305 0.23264 0.09986 0.0
C384 C 0.10603 0.22704 0.15246 0.0
C385 C 0.14439 0.25696 0.11779 0.0
C386 C 0.12721 0.26615 0.15361 0.0
C387 C 0.09324 0.25919 0.21402 0.0
C388 C 0.07571 0.24353 0.2362 0.0
C389 C 0.10854 0.25107 0.17272 0.0
C390 C 0.07226 0.22022 0.21386 0.0
C391 C 0.08729 0.21203 0.17216 0.0
H392 H 0.23595 0.6588 0.65047 0.0
H393 H 0.30294 0.61959 0.62055 0.0
H394 H 0.28913 0.58628 0.6787 0.0
H395 H 0.25981 0.57049 0.74518 0.0
H396 H 0.1931 0.61012 0.77501 0.0
H397 H 0.20496 0.64109 0.70924 0.0
C398 C 0.24751 0.64293 0.65645 0.0
C399 C 0.27062 0.64186 0.63203 0.0
C400 C 0.23951 0.62397 0.68991 0.0
C401 C 0.28514 0.62092 0.63921 0.0
C402 C 0.27727 0.6019 0.67251 0.0
C403 C 0.2476 0.58557 0.73622 0.0
C404 C 0.22572 0.58817 0.76516 0.0
C405 C 0.25472 0.60349 0.69897 0.0
C406 C 0.21017 0.60794 0.75363 0.0
C407 C 0.21696 0.62564 0.71616 0.0
H408 H 0.86214 0.82155 0.10964 0.0
H409 H 0.84926 0.74388 0.10374 0.0
H410 H 0.88414 0.73674 0.16316 0.0
H411 H 0.91582 0.75269 0.22307 0.0
H412 H 0.92678 0.83036 0.23622 0.0
H413 H 0.89529 0.83752 0.1674 0.0
C414 C 0.86725 0.80309 0.12086 0.0
C415 C 0.85319 0.78327 0.10266 0.0
C416 C 0.88688 0.79916 0.15646 0.0
C417 C 0.85974 0.75942 0.11777 0.0
C418 C 0.87968 0.75531 0.15162 0.0
C419 C 0.91165 0.77113 0.2099 0.0
C420 C 0.9236 0.79098 0.23404 0.0
C421 C 0.89303 0.77506 0.17207 0.0
C422 C 0.91775 0.81485 0.21782 0.0
C423 C 0.89974 0.81892 0.17872 0.0
H424 H 0.7036 0.36705 0.63882 0.0
H425 H 0.75559 0.3119 0.68837 0.0
H426 H 0.77217 0.33938 0.75588 0.0
H427 H 0.77121 0.37823 0.80335 0.0
H428 H 0.71854 0.43322 0.75809 0.0
H429 H 0.70347 0.40692 0.68548 0.0
C430 C 0.7186 0.36106 0.66425 0.0
C431 C 0.7281 0.33728 0.65863 0.0
C432 C 0.72808 0.37698 0.70361 0.0
C433 C 0.74765 0.32994 0.69194 0.0
C434 C 0.75726 0.34568 0.73058 0.0
C435 C 0.75636 0.38447 0.77775 0.0
C436 C 0.74584 0.40754 0.78656 0.0
C437 C 0.74745 0.36909 0.73717 0.0
C438 C 0.72706 0.41558 0.75205 0.0
C439 C 0.71829 0.40046 0.71083 0.0
H440 H 0.66041 0.23825 0.36578 0.0
H441 H 0.62536 0.30845 0.38044 0.0
H442 H 0.59311 0.29529 0.31796 0.0
H443 H 0.57693 0.26469 0.25384 0.0
H444 H 0.61201 0.19425 0.24262 0.0
H445 H 0.64222 0.20664 0.30952 0.0
C446 C 0.6457 0.25069 0.35531 0.0
C447 C 0.64545 0.27442 0.3767 0.0
C448 C 0.62728 0.24295 0.32008 0.0
C449 C 0.62598 0.29014 0.36404 0.0
C450 C 0.6076 0.28263 0.32835 0.0
C451 C 0.59088 0.2519 0.26692 0.0
C452 C 0.59246 0.22871 0.24272 0.0
C453 C 0.60829 0.25918 0.30545 0.0
C454 C 0.6107 0.21237 0.25989 0.0
C455 C 0.62796 0.21941 0.29815 0.0
H456 H 0.2019 0.12072 0.87275 0.0
H457 H 0.2732 0.15409 0.88319 0.0
H458 H 0.29025 0.12219 0.82655 0.0
H459 H 0.28383 0.08848 0.76406 0.0
H460 H 0.21254 0.05593 0.7486 0.0
H461 H 0.19667 0.08332 0.81823 0.0
C462 C 0.22124 0.12068 0.86345 0.0
C463 C 0.23615 0.13999 0.88115 0.0
C464 C 0.2309 0.1025 0.82976 0.0
C465 C 0.26122 0.1397 0.86907 0.0
C466 C 0.27103 0.12145 0.83678 0.0
C467 C 0.26493 0.08714 0.77673 0.0
C468 C 0.24926 0.07058 0.75101 0.0
C469 C 0.25587 0.10334 0.81529 0.0
C470 C 0.22491 0.06861 0.76807 0.0
C471 C 0.2158 0.08441 0.80744 0.0
H472 H 0.33558 0.76346 0.36605 0.0
H473 H 0.3749 0.69606 0.39201 0.0
H474 H 0.40746 0.71016 0.3326 0.0
H475 H 0.42311 0.74026 0.26795 0.0
H476 H 0.384 0.80782 0.24305 0.0
H477 H 0.35298 0.79498 0.30758 0.0
C478 C 0.3513 0.75185 0.35883 0.0
C479 C 0.35263 0.72859 0.38285 0.0
C480 C 0.36995 0.76007 0.32478 0.0
C481 C 0.37334 0.71399 0.37385 0.0
C482 C 0.39196 0.72203 0.33982 0.0
C483 C 0.40811 0.75243 0.27755 0.0
C484 C 0.40578 0.77489 0.25039 0.0
C485 C 0.39027 0.74488 0.31445 0.0
C486 C 0.38603 0.79029 0.26282 0.0
C487 C 0.3683 0.78297 0.29972 0.0
H488 H 0.77659 0.87156 0.85727 0.0
H489 H 0.72522 0.81389 0.8215 0.0
H490 H 0.70416 0.84024 0.7575 0.0
H491 H 0.70184 0.87849 0.70723 0.0
H492 H 0.75426 0.93557 0.73857 0.0
H493 H 0.77288 0.9109 0.80981 0.0
C494 C 0.76066 0.86484 0.83585 0.0
C495 C 0.75272 0.84068 0.84373 0.0
C496 C 0.74874 0.88 0.79838 0.0
C497 C 0.73198 0.83229 0.81569 0.0
C498 C 0.71984 0.84736 0.77914 0.0
C499 C 0.71733 0.88554 0.72968 0.0
C500 C 0.72678 0.9087 0.71727 0.0
C501 C 0.72835 0.87104 0.76939 0.0
C502 C 0.7465 0.91785 0.74757 0.0
C503 C 0.75732 0.90366 0.78798 0.0
H504 H 0.84254 0.74543 0.82393 0.0
H505 H 0.86413 0.81961 0.85867 0.0
H506 H 0.89797 0.81617 0.79562 0.0
H507 H 0.91985 0.79309 0.72629 0.0
H508 H 0.89912 0.71878 0.69217 0.0
H509 H 0.86677 0.72109 0.75992 0.0
C510 C 0.85471 0.7608 0.81782 0.0
C511 C 0.85062 0.78283 0.84551 0.0
C512 C 0.87431 0.75865 0.78175 0.0
C513 C 0.86681 0.80245 0.83784 0.0
C514 C 0.88616 0.80054 0.80169 0.0
C515 C 0.90836 0.77736 0.73416 0.0
C516 C 0.91165 0.75588 0.70422 0.0
C517 C 0.88984 0.77888 0.77286 0.0
C518 C 0.89693 0.73547 0.71504 0.0
C519 C 0.87835 0.73686 0.75341 0.0
H520 H 0.76365 0.33663 0.38175 0.0
H521 H 0.69736 0.37703 0.41118 0.0
H522 H 0.71182 0.41003 0.35268 0.0
H523 H 0.74105 0.42465 0.28446 0.0
H524 H 0.80685 0.38349 0.25476 0.0
H525 H 0.79489 0.3535 0.32256 0.0
C526 C 0.75243 0.35276 0.37574 0.0
C527 C 0.72928 0.35422 0.39981 0.0
C528 C 0.76073 0.37141 0.34186 0.0
C529 C 0.71519 0.37544 0.39275 0.0
C530 C 0.72341 0.39424 0.35917 0.0
C531 C 0.75305 0.40946 0.29391 0.0
C532 C 0.77465 0.40608 0.2643 0.0
C533 C 0.74584 0.39207 0.33231 0.0
C534 C 0.78996 0.38623 0.27656 0.0
C535 C 0.78313 0.3691 0.31522 0.0
H536 H 0.12724 0.22682 0.88659 0.0
H537 H 0.18457 0.21315 0.7717 0.0
H538 H 0.1575 0.225 0.69791 0.0
H539 H 0.11801 0.23944 0.66615 0.0
H540 H 0.06136 0.2569 0.78044 0.0
H541 H 0.08753 0.2429 0.85425 0.0
C542 C 0.13365 0.22632 0.84532 0.0
C543 C 0.15778 0.21908 0.83444 0.0
C544 C 0.11817 0.23381 0.80308 0.0
C545 C 0.16608 0.21877 0.78097 0.0
C546 C 0.15063 0.22551 0.73879 0.0
C547 C 0.11142 0.24068 0.7072 0.0
C548 C 0.08773 0.24943 0.71748 0.0
C549 C 0.12674 0.23326 0.74944 0.0
C550 C 0.0794 0.25005 0.77106 0.0
C551 C 0.09441 0.24217 0.8134 0.0
H552 H 0.2993 0.6241 0.38423 0.0
H553 H 0.23622 0.67002 0.35723 0.0
H554 H 0.22047 0.64131 0.29123 0.0
H555 H 0.22589 0.60504 0.23619 0.0
H556 H 0.28929 0.5594 0.25857 0.0
H557 H 0.30335 0.58575 0.33226 0.0
C558 C 0.282 0.62763 0.36429 0.0
C559 C 0.26917 0.64935 0.37503 0.0
C560 C 0.2731 0.61114 0.32554 0.0
C561 C 0.24671 0.65367 0.34901 0.0
C562 C 0.2376 0.63723 0.31135 0.0
C563 C 0.24276 0.60084 0.25733 0.0
C564 C 0.25673 0.58061 0.24165 0.0
C565 C 0.2509 0.61625 0.29845 0.0
C566 C 0.27824 0.57494 0.27009 0.0
C567 C 0.28635 0.59008 0.31188 0.0
H568 H 0.32866 0.73331 0.70757 0.0
H569 H 0.38243 0.71193 0.58994 0.0
H570 H 0.41506 0.7274 0.64854 0.0
H571 H 0.42798 0.74799 0.73266 0.0
H572 H 0.37326 0.76718 0.85045 0.0
H573 H 0.34133 0.75215 0.79133 0.0
C574 C 0.3475 0.732 0.69449 0.0
C575 C 0.35306 0.72159 0.64429 0.0
C576 C 0.366 0.74086 0.72812 0.0
C577 C 0.37764 0.7198 0.62849 0.0
C578 C 0.39628 0.72875 0.66186 0.0
C579 C 0.4091 0.74876 0.74552 0.0
C580 C 0.40314 0.75918 0.79572 0.0
C581 C 0.39064 0.73946 0.71171 0.0
C582 C 0.37848 0.76004 0.81149 0.0
C583 C 0.36014 0.75115 0.77796 0.0
H584 H 0.74987 0.82269 0.17265 0.0
H585 H 0.76405 0.87709 0.05065 0.0
H586 H 0.74576 0.90848 0.10742 0.0
H587 H 0.72634 0.92067 0.19247 0.0
H588 H 0.71467 0.86632 0.31609 0.0
H589 H 0.73077 0.83482 0.25732 0.0
C590 C 0.74889 0.84138 0.15826 0.0
C591 C 0.7584 0.84745 0.10743 0.0
C592 C 0.73859 0.85942 0.19129 0.0
C593 C 0.75702 0.87185 0.08972 0.0
C594 C 0.74651 0.88985 0.12212 0.0
C595 C 0.72741 0.90197 0.20673 0.0
C596 C 0.719 0.89602 0.25867 0.0
C597 C 0.73738 0.88388 0.17318 0.0
C598 C 0.72035 0.87153 0.27597 0.0
C599 C 0.72985 0.85344 0.24256 0.0
H600 H 0.65865 0.22661 0.64323 0.0
H601 H 0.61992 0.29482 0.62448 0.0
H602 H 0.58773 0.28001 0.68431 0.0
H603 H 0.57317 0.24943 0.7495 0.0
H604 H 0.61274 0.18182 0.76928 0.0
H605 H 0.64213 0.19468 0.70109 0.0
C606 C 0.64311 0.23824 0.65194 0.0
C607 C 0.64189 0.26196 0.63026 0.0
C608 C 0.62492 0.22975 0.68666 0.0
C609 C 0.62137 0.27656 0.64097 0.0
C610 C 0.60301 0.26812 0.67528 0.0
C611 C 0.58789 0.23728 0.73788 0.0
C612 C 0.59096 0.2148 0.76454 0.0
C613 C 0.60493 0.24499 0.69938 0.0
C614 C 0.61024 0.19933 0.74965 0.0
C615 C 0.62702 0.20668 0.71078 0.0
H616 H 0.25265 0.16813 0.15975 0.0
H617 H 0.19127 0.12418 0.10938 0.0
H618 H 0.20343 0.09213 0.17285 0.0
H619 H 0.2305 0.07757 0.24576 0.0
H620 H 0.29211 0.12162 0.29414 0.0
H621 H 0.28084 0.15269 0.22806 0.0
C622 C 0.24183 0.15159 0.16272 0.0
C623 C 0.2209 0.14869 0.13041 0.0
C624 C 0.24901 0.13325 0.19883 0.0
C625 C 0.20741 0.12692 0.13401 0.0
C626 C 0.21435 0.10859 0.17026 0.0
C627 C 0.24168 0.09378 0.24111 0.0
C628 C 0.262 0.09739 0.27503 0.0
C629 C 0.23503 0.11165 0.20315 0.0
C630 C 0.27619 0.11859 0.26898 0.0
C631 C 0.26978 0.13635 0.23122 0.0
H632 H 0.2045 0.301 0.05303 0.0
H633 H 0.2348 0.29831 0.89278 0.0
H634 H 0.23251 0.34278 0.88638 0.0
H635 H 0.22393 0.38239 0.92828 0.0
H636 H 0.19255 0.38486 0.08751 0.0
H637 H 0.19342 0.34036 0.09244 0.0
C638 C 0.21064 0.31013 0.0167 0.0
C639 C 0.22007 0.29643 0.97371 0.0
C640 C 0.20916 0.33561 0.01318 0.0
C641 C 0.22752 0.30848 0.92652 0.0
C642 C 0.22626 0.33388 0.92285 0.0
C643 C 0.21687 0.37319 0.96366 0.0
C644 C 0.20839 0.38691 0.00763 0.0
C645 C 0.21732 0.34763 0.96615 0.0
C646 C 0.19959 0.37471 0.05349 0.0
C647 C 0.19999 0.34929 0.05628 0.0
H648 H 0.1966 0.70476 0.43385 0.0
H649 H 0.19714 0.7337 0.59562 0.0
H650 H 0.15264 0.73361 0.59682 0.0
H651 H 0.11373 0.72767 0.55031 0.0
H652 H 0.1127 0.69735 0.38984 0.0
H653 H 0.15729 0.69575 0.38977 0.0
C654 C 0.18696 0.71104 0.46934 0.0
C655 C 0.20017 0.71945 0.51433 0.0
C656 C 0.16132 0.71075 0.47002 0.0
C657 C 0.18743 0.72716 0.56038 0.0
C658 C 0.16197 0.72715 0.56113 0.0
C659 C 0.12317 0.72017 0.51573 0.0
C660 C 0.10984 0.71279 0.47005 0.0
C661 C 0.14875 0.71921 0.51602 0.0
C662 C 0.1225 0.70353 0.42526 0.0
C663 C 0.148 0.70255 0.42521 0.0
H664 H 0.77916 0.69116 0.06678 0.0
H665 H 0.80647 0.69392 0.90385 0.0
H666 H 0.81068 0.6496 0.90312 0.0
H667 H 0.80462 0.60989 0.94688 0.0
H668 H 0.77552 0.60707 0.10817 0.0
H669 H 0.77442 0.65155 0.1116 0.0
C670 C 0.78631 0.68212 0.03131 0.0
C671 C 0.79234 0.69588 0.98537 0.0
C672 C 0.78831 0.65657 0.03076 0.0
C673 C 0.80149 0.6838 0.93969 0.0
C674 C 0.8039 0.65843 0.93916 0.0
C675 C 0.79794 0.61901 0.9827 0.0
C676 C 0.7901 0.60514 0.02708 0.0
C677 C 0.79695 0.6446 0.9841 0.0
C678 C 0.78194 0.61727 0.0736 0.0
C679 C 0.78114 0.64273 0.07551 0.0
H680 H 0.80031 0.29489 0.4443 0.0
H681 H 0.79887 0.25087 0.58872 0.0
H682 H 0.84334 0.2526 0.59454 0.0
H683 H 0.88259 0.26515 0.55652 0.0
H684 H 0.88401 0.31023 0.41377 0.0
H685 H 0.83947 0.30943 0.40927 0.0
C686 C 0.80973 0.28562 0.47697 0.0
C687 C 0.79635 0.27257 0.5157 0.0
C688 C 0.83524 0.28685 0.48036 0.0
C689 C 0.80877 0.261 0.55832 0.0
C690 C 0.83419 0.26196 0.56168 0.0
C691 C 0.87316 0.27517 0.52499 0.0
C692 C 0.88658 0.28761 0.48539 0.0
C693 C 0.84759 0.27471 0.52275 0.0
C694 C 0.87408 0.30021 0.4443 0.0
C695 C 0.84863 0.29982 0.44176 0.0
H696 H 0.69246 0.18911 0.55311 0.0
H697 H 0.73231 0.19558 0.40408 0.0
H698 H 0.72816 0.1517 0.38878 0.0
H699 H 0.71492 0.11121 0.42006 0.0
H700 H 0.67358 0.10526 0.56728 0.0
H701 H 0.67669 0.14922 0.58094 0.0
C702 C 0.70028 0.18091 0.51733 0.0
C703 C 0.71291 0.19551 0.48014 0.0
C704 C 0.6976 0.15576 0.50847 0.0
C705 C 0.72254 0.18471 0.43343 0.0
C706 C 0.7202 0.15962 0.42466 0.0
C707 C 0.70622 0.11958 0.45463 0.0
C708 C 0.69432 0.10489 0.49292 0.0
C709 C 0.70793 0.14494 0.46213 0.0
C710 C 0.68331 0.11605 0.53774 0.0
C711 C 0.68499 0.14121 0.54553 0.0
H712 H 0.30861 0.229 0.93248 0.0
H713 H 0.29871 0.20555 0.09714 0.0
H714 H 0.34289 0.20213 0.10861 0.0
H715 H 0.38427 0.20474 0.07099 0.0
H716 H 0.39385 0.22952 0.90721 0.0
H717 H 0.34977 0.23318 0.8962 0.0
C718 C 0.31608 0.22311 0.9709 0.0
C719 C 0.30038 0.21745 0.01376 0.0
C720 C 0.34143 0.2213 0.97733 0.0
C721 C 0.3104 0.21009 0.06346 0.0
C722 C 0.33566 0.20807 0.07006 0.0
C723 C 0.37672 0.21123 0.03313 0.0
C724 C 0.39233 0.21663 0.98987 0.0
C725 C 0.35134 0.21355 0.02719 0.0
C726 C 0.38223 0.22477 0.94085 0.0
C727 C 0.35704 0.22702 0.93458 0.0
H728 H 0.29355 0.80124 0.43966 0.0
H729 H 0.27217 0.80052 0.607 0.0
H730 H 0.27406 0.84506 0.60943 0.0
H731 H 0.27996 0.88399 0.56308 0.0
H732 H 0.30294 0.88479 0.3968 0.0
H733 H 0.30173 0.84022 0.39471 0.0
C734 C 0.28929 0.81081 0.47671 0.0
C735 C 0.28252 0.7976 0.52297 0.0
C736 C 0.29051 0.83635 0.47791 0.0
C737 C 0.27743 0.81025 0.57084 0.0
C738 C 0.27843 0.83571 0.57222 0.0
C739 C 0.28516 0.87447 0.52659 0.0
C740 C 0.29151 0.88777 0.48014 0.0
C741 C 0.28476 0.84891 0.52588 0.0
C742 C 0.29764 0.87505 0.43291 0.0
C743 C 0.2971 0.84956 0.43176 0.0
H744 H 0.69685 0.77914 0.06295 0.0
H745 H 0.69712 0.74569 0.90548 0.0
H746 H 0.65251 0.74489 0.90517 0.0
H747 H 0.61353 0.75448 0.9488 0.0
H748 H 0.61356 0.79022 0.10384 0.0
H749 H 0.65803 0.78881 0.10629 0.0
C750 C 0.6872 0.77147 0.02869 0.0
C751 C 0.70034 0.76244 0.98435 0.0
C752 C 0.6616 0.77142 0.02838 0.0
C753 C 0.68747 0.75282 0.94009 0.0
C754 C 0.66196 0.75234 0.93988 0.0
C755 C 0.62323 0.76216 0.98295 0.0
C756 C 0.61013 0.77243 0.02605 0.0
C757 C 0.64885 0.7618 0.9836 0.0
C758 C 0.62308 0.78186 0.07044 0.0
C759 C 0.64855 0.78124 0.07172 0.0
loop_
_geom_bond_atom_site_label_1
_geom_bond_atom_site_label_2
_geom_bond_distance
_geom_bond_site_symmetry_2
_ccdc_geom_bond_type
Sc0 O3 2.034 . S
Sc0 O10 2.105 . S
Sc0 O13 2.105 . S
Sc0 O16 2.105 . S
Sc0 O19 2.105 . S
Sc1 O3 2.025 . S
Sc1 O11 2.112 . S
Sc1 O15 2.098 1_554 S
Sc1 O17 2.111 . S
Sc1 O21 2.098 1_554 S
Sc2 O3 2.017 1_556 S
Sc2 O12 2.105 . S
Sc2 O14 2.105 . S
Sc2 O18 2.105 . S
Sc2 O20 2.105 . S
O3 Sc0 2.034 . S
O3 Sc1 2.025 . S
O3 Sc2 2.017 1_554 S
C4 O10 1.273 . S
C4 O20 1.264 1_554 S
C5 O11 1.268 . S
C5 O19 1.268 . S
C6 O12 1.268 . S
C6 O21 1.268 . S
C7 O13 1.268 . S
C7 O17 1.268 . S
C8 O14 1.256 1_554 S
C8 O16 1.280 . S
C9 O15 1.268 . S
C9 O18 1.268 . S
O10 Sc0 2.105 . S
O10 C4 1.273 . S
O11 Sc1 2.112 . S
O11 C5 1.268 . S
O12 Sc2 2.105 . S
O12 C6 1.268 . S
O13 Sc0 2.105 . S
O13 C7 1.268 . S
O14 Sc2 2.105 . S
O14 C8 1.256 1_556 S
O15 Sc1 2.098 1_556 S
O15 C9 1.268 . S
O16 Sc0 2.105 . S
O16 C8 1.280 . S
O17 Sc1 2.111 . S
O17 C7 1.268 . S
O18 Sc2 2.105 . S
O18 C9 1.268 . S
O19 Sc0 2.105 . S
O19 C5 1.268 . S
O20 Sc2 2.105 . S
O20 C4 1.264 1_556 S
O21 Sc1 2.098 1_556 S
O21 C6 1.268 . S
Sc22 O25 2.025 . S
Sc22 O32 2.105 . S
Sc22 O35 2.105 . S
Sc22 O38 2.105 . S
Sc22 O41 2.105 . S
Sc23 O25 2.025 . S
Sc23 O33 2.105 . S
Sc23 O37 2.105 . S
Sc23 O39 2.105 . S
Sc23 O43 2.105 . S
Sc24 O25 2.025 . S
Sc24 O34 2.105 . S
Sc24 O36 2.105 . S
Sc24 O40 2.105 . S
Sc24 O42 2.105 . S
O25 Sc22 2.025 . S
O25 Sc23 2.025 . S
O25 Sc24 2.025 . S
C26 O32 1.268 . S
C26 O42 1.268 . S
C27 O33 1.268 . S
C27 O41 1.268 . S
C28 O34 1.268 . S
C28 O43 1.268 . S
C29 O35 1.268 . S
C29 O39 1.268 . S
C30 O36 1.268 . S
C30 O38 1.268 . S
C31 O37 1.268 . S
C31 O40 1.268 . S
O32 Sc22 2.105 . S
O32 C26 1.268 . S
O33 Sc23 2.105 . S
O33 C27 1.268 . S
O34 Sc24 2.105 . S
O34 C28 1.268 . S
O35 Sc22 2.105 . S
O35 C29 1.268 . S
O36 Sc24 2.105 . S
O36 C30 1.268 . S
O37 Sc23 2.105 . S
O37 C31 1.268 . S
O38 Sc22 2.105 . S
O38 C30 1.268 . S
O39 Sc23 2.105 . S
O39 C29 1.268 . S
O40 Sc24 2.105 . S
O40 C31 1.268 . S
O41 Sc22 2.105 . S
O41 C27 1.268 . S
O42 Sc24 2.105 . S
O42 C26 1.268 . S
O43 Sc23 2.105 . S
O43 C28 1.268 . S
Sc44 O47 2.017 1_556 S
Sc44 O54 2.105 . S
Sc44 O57 2.105 . S
Sc44 O60 2.105 . S
Sc44 O63 2.105 . S
Sc45 O47 2.025 . S
Sc45 O55 2.098 1_554 S
Sc45 O59 2.111 . S
Sc45 O61 2.098 1_554 S
Sc45 O65 2.112 . S
Sc46 O47 2.034 . S
Sc46 O56 2.105 . S
Sc46 O58 2.105 . S
Sc46 O62 2.105 . S
Sc46 O64 2.105 . S
O47 Sc44 2.017 1_554 S
O47 Sc45 2.025 . S
O47 Sc46 2.034 . S
C48 O54 1.264 1_554 S
C48 O64 1.273 . S
C49 O55 1.268 . S
C49 O63 1.268 . S
C50 O56 1.268 . S
C50 O65 1.268 . S
C51 O57 1.268 . S
C51 O61 1.268 . S
C52 O58 1.280 . S
C52 O60 1.256 1_554 S
C53 O59 1.268 . S
C53 O62 1.268 . S
O54 Sc44 2.105 . S
O54 C48 1.264 1_556 S
O55 Sc45 2.098 1_556 S
O55 C49 1.268 . S
O56 Sc46 2.105 . S
O56 C50 1.268 . S
O57 Sc44 2.105 . S
O57 C51 1.268 . S
O58 Sc46 2.105 . S
O58 C52 1.280 . S
O59 Sc45 2.111 . S
O59 C53 1.268 . S
O60 Sc44 2.105 . S
O60 C52 1.256 1_556 S
O61 Sc45 2.098 1_556 S
O61 C51 1.268 . S
O62 Sc46 2.105 . S
O62 C53 1.268 . S
O63 Sc44 2.105 . S
O63 C49 1.268 . S
O64 Sc46 2.105 . S
O64 C48 1.273 . S
O65 Sc45 2.112 . S
O65 C50 1.268 . S
Sc66 O69 2.025 . S
Sc66 O76 2.105 . S
Sc66 O79 2.105 . S
Sc66 O82 2.105 . S
Sc66 O85 2.105 . S
Sc67 O69 2.025 . S
Sc67 O77 2.105 . S
Sc67 O81 2.105 . S
Sc67 O83 2.105 . S
Sc67 O87 2.105 . S
Sc68 O69 2.025 . S
Sc68 O78 2.105 . S
Sc68 O80 2.105 . S
Sc68 O84 2.105 . S
Sc68 O86 2.105 . S
O69 Sc66 2.025 . S
O69 Sc67 2.025 . S
O69 Sc68 2.025 . S
C70 O76 1.268 . S
C70 O86 1.268 . S
C71 O77 1.268 . S
C71 O85 1.268 . S
C72 O78 1.268 . S
C72 O87 1.268 . S
C73 O79 1.268 . S
C73 O83 1.268 . S
C74 O80 1.268 . S
C74 O82 1.268 . S
C75 O81 1.268 . S
C75 O84 1.268 . S
O76 Sc66 2.105 . S
O76 C70 1.268 . S
O77 Sc67 2.105 . S
O77 C71 1.268 . S
O78 Sc68 2.105 . S
O78 C72 1.268 . S
O79 Sc66 2.105 . S
O79 C73 1.268 . S
O80 Sc68 2.105 . S
O80 C74 1.268 . S
O81 Sc67 2.105 . S
O81 C75 1.268 . S
O82 Sc66 2.105 . S
O82 C74 1.268 . S
O83 Sc67 2.105 . S
O83 C73 1.268 . S
O84 Sc68 2.105 . S
O84 C75 1.268 . S
O85 Sc66 2.105 . S
O85 C71 1.268 . S
O86 Sc68 2.105 . S
O86 C70 1.268 . S
O87 Sc67 2.105 . S
O87 C72 1.268 . S
C88 C89 1.384 . S
C88 H101 0.947 . S
C88 C123 1.382 . S
C89 C88 1.384 . S
C89 C90 1.378 . S
C90 C89 1.378 . S
C90 C91 1.378 . S
C90 H102 0.952 . S
C91 C90 1.378 . S
C91 H103 0.950 . S
C91 C122 1.383 . S
H92 C111 0.947 . S
H93 C112 0.946 . S
H94 C114 0.953 . S
H95 C115 0.945 . S
H96 C117 0.952 . S
H97 C118 0.949 . S
H98 C120 0.950 . S
H99 C121 0.948 . S
H100 C123 0.951 . S
H101 C88 0.947 . S
H102 C90 0.952 . S
H103 C91 0.950 . S
N104 C107 1.364 1_554 S
N104 C109 1.363 . S
N105 C107 1.390 . S
N105 C108 1.372 . S
N106 C108 1.361 . S
N106 C109 1.377 1_556 S
C107 N104 1.364 1_556 S
C107 N105 1.390 . S
C107 C110 1.480 . S
C108 N105 1.372 . S
C108 N106 1.361 . S
C108 C116 1.457 . S
C109 N104 1.363 . S
C109 N106 1.377 1_554 S
C109 C122 1.479 . S
C110 C107 1.480 . S
C110 C111 1.383 1_556 S
C110 C115 1.385 . S
C111 H92 0.947 . S
C111 C110 1.383 1_554 S
C111 C112 1.388 . S
C112 H93 0.946 . S
C112 C111 1.388 . S
C112 C113 1.384 1_554 S
C113 C112 1.384 1_556 S
C113 C114 1.377 . S
C114 H94 0.953 . S
C114 C113 1.377 . S
C114 C115 1.369 . S
C115 H95 0.945 . S
C115 C110 1.385 . S
C115 C114 1.369 . S
C116 C108 1.457 . S
C116 C117 1.372 . S
C116 C121 1.364 . S
C117 H96 0.952 . S
C117 C116 1.372 . S
C117 C118 1.389 . S
C118 H97 0.949 . S
C118 C117 1.389 . S
C118 C119 1.387 . S
C119 C118 1.387 . S
C119 C120 1.372 . S
C120 H98 0.950 . S
C120 C119 1.372 . S
C120 C121 1.379 . S
C121 H99 0.948 . S
C121 C116 1.364 . S
C121 C120 1.379 . S
C122 C91 1.383 . S
C122 C109 1.479 . S
C122 C123 1.398 . S
C123 C88 1.382 . S
C123 H100 0.951 . S
C123 C122 1.398 . S
C124 C125 1.384 . S
C124 H137 0.947 . S
C124 C159 1.382 . S
C125 C124 1.384 . S
C125 C126 1.378 . S
C126 C125 1.378 . S
C126 C127 1.378 . S
C126 H138 0.952 . S
C127 C126 1.378 . S
C127 H139 0.950 . S
C127 C158 1.383 . S
H128 C147 0.947 . S
H129 C148 0.946 . S
H130 C150 0.953 . S
H131 C151 0.945 . S
H132 C153 0.952 . S
H133 C154 0.949 . S
H134 C156 0.950 . S
H135 C157 0.948 . S
H136 C159 0.951 . S
H137 C124 0.947 . S
H138 C126 0.952 . S
H139 C127 0.950 . S
N140 C143 1.382 1_655 S
N140 C145 1.363 . S
N141 C143 1.371 1_655 S
N141 C144 1.372 . S
N142 C144 1.361 . S
N142 C145 1.377 . S
C143 N140 1.382 1_455 S
C143 N141 1.371 1_455 S
C143 C146 1.480 . S
C144 N141 1.372 . S
C144 N142 1.361 . S
C144 C152 1.457 . S
C145 N140 1.363 . S
C145 N142 1.377 . S
C145 C158 1.479 . S
C146 C143 1.480 . S
C146 C147 1.383 . S
C146 C151 1.385 . S
C147 H128 0.947 . S
C147 C146 1.383 . S
C147 C148 1.388 . S
C148 H129 0.946 . S
C148 C147 1.388 . S
C148 C149 1.384 . S
C149 C148 1.384 . S
C149 C150 1.377 . S
C150 H130 0.953 . S
C150 C149 1.377 . S
C150 C151 1.369 . S
C151 H131 0.945 . S
C151 C146 1.385 . S
C151 C150 1.369 . S
C152 C144 1.457 . S
C152 C153 1.372 . S
C152 C157 1.364 . S
C153 H132 0.952 . S
C153 C152 1.372 . S
C153 C154 1.389 . S
C154 H133 0.949 . S
C154 C153 1.389 . S
C154 C155 1.387 . S
C155 C154 1.387 . S
C155 C156 1.372 . S
C156 H134 0.950 . S
C156 C155 1.372 . S
C156 C157 1.379 . S
C157 H135 0.948 . S
C157 C152 1.364 . S
C157 C156 1.379 . S
C158 C127 1.383 . S
C158 C145 1.479 . S
C158 C159 1.398 . S
C159 C124 1.382 . S
C159 H136 0.951 . S
C159 C158 1.398 . S
C160 C161 1.384 . S
C160 H173 0.947 . S
C160 C195 1.382 . S
C161 C160 1.384 . S
C161 C162 1.378 . S
C162 C161 1.378 . S
C162 C163 1.378 . S
C162 H174 0.952 . S
C163 C162 1.378 . S
C163 H175 0.950 . S
C163 C194 1.383 . S
H164 C183 0.947 . S
H165 C184 0.946 . S
H166 C186 0.953 . S
H167 C187 0.945 . S
H168 C189 0.952 . S
H169 C190 0.949 . S
H170 C192 0.950 . S
H171 C193 0.948 . S
H172 C195 0.951 . S
H173 C160 0.947 . S
H174 C162 0.952 . S
H175 C163 0.950 . S
N176 C179 1.382 1_556 S
N176 C181 1.363 . S
N177 C179 1.371 . S
N177 C180 1.372 . S
N178 C180 1.361 . S
N178 C181 1.377 1_554 S
C179 N176 1.382 1_554 S
C179 N177 1.371 . S
C179 C182 1.480 . S
C180 N177 1.372 . S
C180 N178 1.361 . S
C180 C188 1.457 . S
C181 N176 1.363 . S
C181 N178 1.377 1_556 S
C181 C194 1.479 . S
C182 C179 1.480 . S
C182 C183 1.383 1_554 S
C182 C187 1.385 . S
C183 H164 0.947 . S
C183 C182 1.383 1_556 S
C183 C184 1.388 . S
C184 H165 0.946 . S
C184 C183 1.388 . S
C184 C185 1.384 1_556 S
C185 C184 1.384 1_554 S
C185 C186 1.377 . S
C186 H166 0.953 . S
C186 C185 1.377 . S
C186 C187 1.369 . S
C187 H167 0.945 . S
C187 C182 1.385 . S
C187 C186 1.369 . S
C188 C180 1.457 . S
C188 C189 1.372 . S
C188 C193 1.364 . S
C189 H168 0.952 . S
C189 C188 1.372 . S
C189 C190 1.389 . S
C190 H169 0.949 . S
C190 C189 1.389 . S
C190 C191 1.387 . S
C191 C190 1.387 . S
C191 C192 1.372 . S
C192 H170 0.950 . S
C192 C191 1.372 . S
C192 C193 1.379 . S
C193 H171 0.948 . S
C193 C188 1.364 . S
C193 C192 1.379 . S
C194 C163 1.383 . S
C194 C181 1.479 . S
C194 C195 1.398 . S
C195 C160 1.382 . S
C195 H172 0.951 . S
C195 C194 1.398 . S
C196 C197 1.384 . S
C196 H209 0.947 . S
C196 C231 1.382 . S
C197 C196 1.384 . S
C197 C198 1.378 . S
C198 C197 1.378 . S
C198 C199 1.378 . S
C198 H210 0.952 . S
C199 C198 1.378 . S
C199 H211 0.950 . S
C199 C230 1.383 . S
H200 C219 0.947 . S
H201 C220 0.946 . S
H202 C222 0.953 . S
H203 C223 0.945 . S
H204 C225 0.952 . S
H205 C226 0.949 . S
H206 C228 0.950 . S
H207 C229 0.948 . S
H208 C231 0.951 . S
H209 C196 0.947 . S
H210 C198 0.952 . S
H211 C199 0.950 . S
N212 C215 1.382 1_455 S
N212 C217 1.363 . S
N213 C215 1.371 1_455 S
N213 C216 1.372 . S
N214 C216 1.361 . S
N214 C217 1.377 . S
C215 N212 1.382 1_655 S
C215 N213 1.371 1_655 S
C215 C218 1.480 . S
C216 N213 1.372 . S
C216 N214 1.361 . S
C216 C224 1.457 . S
C217 N212 1.363 . S
C217 N214 1.377 . S
C217 C230 1.479 . S
C218 C215 1.480 . S
C218 C219 1.383 . S
C218 C223 1.385 . S
C219 H200 0.947 . S
C219 C218 1.383 . S
C219 C220 1.388 . S
C220 H201 0.946 . S
C220 C219 1.388 . S
C220 C221 1.384 . S
C221 C220 1.384 . S
C221 C222 1.377 . S
C222 H202 0.953 . S
C222 C221 1.377 . S
C222 C223 1.369 . S
C223 H203 0.945 . S
C223 C218 1.385 . S
C223 C222 1.369 . S
C224 C216 1.457 . S
C224 C225 1.372 . S
C224 C229 1.364 . S
C225 H204 0.952 . S
C225 C224 1.372 . S
C225 C226 1.389 . S
C226 H205 0.949 . S
C226 C225 1.389 . S
C226 C227 1.387 . S
C227 C226 1.387 . S
C227 C228 1.372 . S
C228 H206 0.950 . S
C228 C227 1.372 . S
C228 C229 1.379 . S
C229 H207 0.948 . S
C229 C224 1.364 . S
C229 C228 1.379 . S
C230 C199 1.383 . S
C230 C217 1.479 . S
C230 C231 1.398 . S
C231 C196 1.382 . S
C231 H208 0.951 . S
C231 C230 1.398 . S
C232 C233 1.384 . S
C232 H245 0.947 . S
C232 C267 1.382 . S
C233 C232 1.384 . S
C233 C234 1.378 . S
C234 C233 1.378 . S
C234 C235 1.378 . S
C234 H246 0.952 . S
C235 C234 1.378 . S
C235 H247 0.950 . S
C235 C266 1.383 . S
H236 C255 0.947 . S
H237 C256 0.946 . S
H238 C258 0.953 . S
H239 C259 0.945 . S
H240 C261 0.952 . S
H241 C262 0.949 . S
H242 C264 0.950 . S
H243 C265 0.948 . S
H244 C267 0.951 . S
H245 C232 0.947 . S
H246 C234 0.952 . S
H247 C235 0.950 . S
N248 C251 1.382 1_565 S
N248 C253 1.363 . S
N249 C251 1.371 1_565 S
N249 C252 1.372 . S
N250 C252 1.361 . S
N250 C253 1.377 . S
C251 N248 1.382 1_545 S
C251 N249 1.371 1_545 S
C251 C254 1.480 . S
C252 N249 1.372 . S
C252 N250 1.361 . S
C252 C260 1.457 . S
C253 N248 1.363 . S
C253 N250 1.377 . S
C253 C266 1.479 . S
C254 C251 1.480 . S
C254 C255 1.383 . S
C254 C259 1.385 . S
C255 H236 0.947 . S
C255 C254 1.383 . S
C255 C256 1.388 . S
C256 H237 0.946 . S
C256 C255 1.388 . S
C256 C257 1.384 . S
C257 C256 1.384 . S
C257 C258 1.377 . S
C258 H238 0.953 . S
C258 C257 1.377 . S
C258 C259 1.369 . S
C259 H239 0.945 . S
C259 C254 1.385 . S
C259 C258 1.369 . S
C260 C252 1.457 . S
C260 C261 1.372 . S
C260 C265 1.364 . S
C261 H240 0.952 . S
C261 C260 1.372 . S
C261 C262 1.389 . S
C262 H241 0.949 . S
C262 C261 1.389 . S
C262 C263 1.387 . S
C263 C262 1.387 . S
C263 C264 1.372 . S
C264 H242 0.950 . S
C264 C263 1.372 . S
C264 C265 1.379 . S
C265 H243 0.948 . S
C265 C260 1.364 . S
C265 C264 1.379 . S
C266 C235 1.383 . S
C266 C253 1.479 . S
C266 C267 1.398 . S
C267 C232 1.382 . S
C267 H244 0.951 . S
C267 C266 1.398 . S
C268 C269 1.384 . S
C268 H281 0.947 . S
C268 C303 1.382 . S
C269 C268 1.384 . S
C269 C270 1.378 . S
C270 C269 1.378 . S
C270 C271 1.378 . S
C270 H282 0.952 . S
C271 C270 1.378 . S
C271 H283 0.950 . S
C271 C302 1.383 . S
H272 C291 0.947 . S
H273 C292 0.946 . S
H274 C294 0.953 . S
H275 C295 0.945 . S
H276 C297 0.952 . S
H277 C298 0.949 . S
H278 C300 0.950 . S
H279 C301 0.948 . S
H280 C303 0.951 . S
H281 C268 0.947 . S
H282 C270 0.952 . S
H283 C271 0.950 . S
N284 C287 1.382 1_556 S
N284 C289 1.363 . S
N285 C287 1.371 . S
N285 C288 1.372 . S
N286 C288 1.361 . S
N286 C289 1.377 1_554 S
C287 N284 1.382 1_554 S
C287 N285 1.371 . S
C287 C290 1.480 . S
C288 N285 1.372 . S
C288 N286 1.361 . S
C288 C296 1.457 . S
C289 N284 1.363 . S
C289 N286 1.377 1_556 S
C289 C302 1.479 . S
C290 C287 1.480 . S
C290 C291 1.383 1_554 S
C290 C295 1.385 . S
C291 H272 0.947 . S
C291 C290 1.383 1_556 S
C291 C292 1.388 . S
C292 H273 0.946 . S
C292 C291 1.388 . S
C292 C293 1.384 1_556 S
C293 C292 1.384 1_554 S
C293 C294 1.377 . S
C294 H274 0.953 . S
C294 C293 1.377 . S
C294 C295 1.369 . S
C295 H275 0.945 . S
C295 C290 1.385 . S
C295 C294 1.369 . S
C296 C288 1.457 . S
C296 C297 1.372 . S
C296 C301 1.364 . S
C297 H276 0.952 . S
C297 C296 1.372 . S
C297 C298 1.389 . S
C298 H277 0.949 . S
C298 C297 1.389 . S
C298 C299 1.387 . S
C299 C298 1.387 . S
C299 C300 1.372 . S
C300 H278 0.950 . S
C300 C299 1.372 . S
C300 C301 1.379 . S
C301 H279 0.948 . S
C301 C296 1.364 . S
C301 C300 1.379 . S
C302 C271 1.383 . S
C302 C289 1.479 . S
C302 C303 1.398 . S
C303 C268 1.382 . S
C303 H280 0.951 . S
C303 C302 1.398 . S
C304 C305 1.384 . S
C304 H317 0.947 . S
C304 C339 1.382 . S
C305 C304 1.384 . S
C305 C306 1.378 . S
C306 C305 1.378 . S
C306 C307 1.378 . S
C306 H318 0.952 . S
C307 C306 1.378 . S
C307 H319 0.950 . S
C307 C338 1.383 . S
H308 C327 0.947 . S
H309 C328 0.946 . S
H310 C330 0.953 . S
H311 C331 0.945 . S
H312 C333 0.952 . S
H313 C334 0.949 . S
H314 C336 0.950 . S
H315 C337 0.948 . S
H316 C339 0.951 . S
H317 C304 0.947 . S
H318 C306 0.952 . S
H319 C307 0.950 . S
N320 C323 1.382 1_545 S
N320 C325 1.363 . S
N321 C323 1.371 1_545 S
N321 C324 1.372 . S
N322 C324 1.361 . S
N322 C325 1.377 . S
C323 N320 1.382 1_565 S
C323 N321 1.371 1_565 S
C323 C326 1.480 . S
C324 N321 1.372 . S
C324 N322 1.361 . S
C324 C332 1.457 . S
C325 N320 1.363 . S
C325 N322 1.377 . S
C325 C338 1.479 . S
C326 C323 1.480 . S
C326 C327 1.383 . S
C326 C331 1.385 . S
C327 H308 0.947 . S
C327 C326 1.383 . S
C327 C328 1.388 . S
C328 H309 0.946 . S
C328 C327 1.388 . S
C328 C329 1.384 . S
C329 C328 1.384 . S
C329 C330 1.377 . S
C330 H310 0.953 . S
C330 C329 1.377 . S
C330 C331 1.369 . S
C331 H311 0.945 . S
C331 C326 1.385 . S
C331 C330 1.369 . S
C332 C324 1.457 . S
C332 C333 1.372 . S
C332 C337 1.364 . S
C333 H312 0.952 . S
C333 C332 1.372 . S
C333 C334 1.389 . S
C334 H313 0.949 . S
C334 C333 1.389 . S
C334 C335 1.387 . S
C335 C334 1.387 . S
C335 C336 1.372 . S
C336 H314 0.950 . S
C336 C335 1.372 . S
C336 C337 1.379 . S
C337 H315 0.948 . S
C337 C332 1.364 . S
C337 C336 1.379 . S
C338 C307 1.383 . S
C338 C325 1.479 . S
C338 C339 1.398 . S
C339 C304 1.382 . S
C339 H316 0.951 . S
C339 C338 1.398 . S
C340 C341 1.384 . S
C340 H353 0.947 . S
C340 C375 1.382 . S
C341 C340 1.384 . S
C341 C342 1.378 . S
C342 C341 1.378 . S
C342 C343 1.378 . S
C342 H354 0.952 . S
C343 C342 1.378 . S
C343 H355 0.950 . S
C343 C374 1.383 . S
H344 C363 0.947 . S
H345 C364 0.946 . S
H346 C366 0.953 . S
H347 C367 0.945 . S
H348 C369 0.952 . S
H349 C370 0.949 . S
H350 C372 0.950 . S
H351 C373 0.948 . S
H352 C375 0.951 . S
H353 C340 0.947 . S
H354 C342 0.952 . S
H355 C343 0.950 . S
N356 C359 1.382 1_554 S
N356 C361 1.363 . S
N357 C359 1.371 . S
N357 C360 1.372 . S
N358 C360 1.361 . S
N358 C361 1.377 1_556 S
C359 N356 1.382 1_556 S
C359 N357 1.371 . S
C359 C362 1.480 . S
C360 N357 1.372 . S
C360 N358 1.361 . S
C360 C368 1.457 . S
C361 N356 1.363 . S
C361 N358 1.377 1_554 S
C361 C374 1.479 . S
C362 C359 1.480 . S
C362 C363 1.383 1_556 S
C362 C367 1.385 . S
C363 H344 0.947 . S
C363 C362 1.383 1_554 S
C363 C364 1.388 . S
C364 H345 0.946 . S
C364 C363 1.388 . S
C364 C365 1.384 1_554 S
C365 C364 1.384 1_556 S
C365 C366 1.377 . S
C366 H346 0.953 . S
C366 C365 1.377 . S
C366 C367 1.369 . S
C367 H347 0.945 . S
C367 C362 1.385 . S
C367 C366 1.369 . S
C368 C360 1.457 . S
C368 C369 1.372 . S
C368 C373 1.364 . S
C369 H348 0.952 . S
C369 C368 1.372 . S
C369 C370 1.389 . S
C370 H349 0.949 . S
C370 C369 1.389 . S
C370 C371 1.387 . S
C371 C370 1.387 . S
C371 C372 1.372 . S
C372 H350 0.950 . S
C372 C371 1.372 . S
C372 C373 1.379 . S
C373 H351 0.948 . S
C373 C368 1.364 . S
C373 C372 1.379 . S
C374 C343 1.383 . S
C374 C361 1.479 . S
C374 C375 1.398 . S
C375 C340 1.382 . S
C375 H352 0.951 . S
C375 C374 1.398 . S
H376 C382 0.930 . S
H377 C385 0.930 . S
H378 C386 0.930 . S
H379 C387 0.930 . S
H380 C390 0.930 . S
H381 C391 0.930 . S
C382 H376 0.930 . S
C382 C383 1.355 . S
C382 C384 1.415 . S
C383 C382 1.355 . S
C383 C385 1.419 . S
C384 C382 1.415 . S
C384 C389 1.425 . S
C384 C391 1.409 . S
C385 H377 0.930 . S
C385 C383 1.419 . S
C385 C386 1.362 . S
C386 H378 0.930 . S
C386 C385 1.362 . S
C386 C389 1.409 . S
C387 H379 0.930 . S
C387 C388 1.355 . S
C387 C389 1.415 . S
C388 C387 1.355 . S
C388 C390 1.419 . S
C389 C384 1.425 . S
C389 C386 1.409 . S
C389 C387 1.415 . S
C390 H380 0.930 . S
C390 C388 1.419 . S
C390 C391 1.362 . S
C391 H381 0.930 . S
C391 C384 1.409 . S
C391 C390 1.362 . S
H392 C398 0.930 . S
H393 C401 0.930 . S
H394 C402 0.930 . S
H395 C403 0.930 . S
H396 C406 0.930 . S
H397 C407 0.930 . S
C398 H392 0.930 . S
C398 C399 1.355 . S
C398 C400 1.415 . S
C399 C398 1.355 . S
C399 C401 1.419 . S
C400 C398 1.415 . S
C400 C405 1.425 . S
C400 C407 1.409 . S
C401 H393 0.930 . S
C401 C399 1.419 . S
C401 C402 1.362 . S
C402 H394 0.930 . S
C402 C401 1.362 . S
C402 C405 1.409 . S
C403 H395 0.930 . S
C403 C404 1.355 . S
C403 C405 1.415 . S
C404 C403 1.355 . S
C404 C406 1.419 . S
C405 C400 1.425 . S
C405 C402 1.409 . S
C405 C403 1.415 . S
C406 H396 0.930 . S
C406 C404 1.419 . S
C406 C407 1.362 . S
C407 H397 0.930 . S
C407 C400 1.409 . S
C407 C406 1.362 . S
H408 C414 0.930 . S
H409 C417 0.930 . S
H410 C418 0.930 . S
H411 C419 0.930 . S
H412 C422 0.930 . S
H413 C423 0.930 . S
C414 H408 0.930 . S
C414 C415 1.355 . S
C414 C416 1.415 . S
C415 C414 1.355 . S
C415 C417 1.419 . S
C416 C414 1.415 . S
C416 C421 1.425 . S
C416 C423 1.409 . S
C417 H409 0.930 . S
C417 C415 1.419 . S
C417 C418 1.362 . S
C418 H410 0.930 . S
C418 C417 1.362 . S
C418 C421 1.409 . S
C419 H411 0.930 . S
C419 C420 1.355 . S
C419 C421 1.415 . S
C420 C419 1.355 . S
C420 C422 1.419 . S
C421 C416 1.425 . S
C421 C418 1.409 . S
C421 C419 1.415 . S
C422 H412 0.930 . S
C422 C420 1.419 . S
C422 C423 1.362 . S
C423 H413 0.930 . S
C423 C416 1.409 . S
C423 C422 1.362 . S
H424 C430 0.930 . S
H425 C433 0.930 . S
H426 C434 0.930 . S
H427 C435 0.930 . S
H428 C438 0.930 . S
H429 C439 0.930 . S
C430 H424 0.930 . S
C430 C431 1.355 . S
C430 C432 1.415 . S
C431 C430 1.355 . S
C431 C433 1.419 . S
C432 C430 1.415 . S
C432 C437 1.425 . S
C432 C439 1.409 . S
C433 H425 0.930 . S
C433 C431 1.419 . S
C433 C434 1.362 . S
C434 H426 0.930 . S
C434 C433 1.362 . S
C434 C437 1.409 . S
C435 H427 0.930 . S
C435 C436 1.355 . S
C435 C437 1.415 . S
C436 C435 1.355 . S
C436 C438 1.419 . S
C437 C432 1.425 . S
C437 C434 1.409 . S
C437 C435 1.415 . S
C438 H428 0.930 . S
C438 C436 1.419 . S
C438 C439 1.362 . S
C439 H429 0.930 . S
C439 C432 1.409 . S
C439 C438 1.362 . S
H440 C446 0.930 . S
H441 C449 0.930 . S
H442 C450 0.930 . S
H443 C451 0.930 . S
H444 C454 0.930 . S
H445 C455 0.930 . S
C446 H440 0.930 . S
C446 C447 1.355 . S
C446 C448 1.415 . S
C447 C446 1.355 . S
C447 C449 1.419 . S
C448 C446 1.415 . S
C448 C453 1.425 . S
C448 C455 1.409 . S
C449 H441 0.930 . S
C449 C447 1.419 . S
C449 C450 1.362 . S
C450 H442 0.930 . S
C450 C449 1.362 . S
C450 C453 1.409 . S
C451 H443 0.930 . S
C451 C452 1.355 . S
C451 C453 1.415 . S
C452 C451 1.355 . S
C452 C454 1.419 . S
C453 C448 1.425 . S
C453 C450 1.409 . S
C453 C451 1.415 . S
C454 H444 0.930 . S
C454 C452 1.419 . S
C454 C455 1.362 . S
C455 H445 0.930 . S
C455 C448 1.409 . S
C455 C454 1.362 . S
H456 C462 0.930 . S
H457 C465 0.930 . S
H458 C466 0.930 . S
H459 C467 0.930 . S
H460 C470 0.930 . S
H461 C471 0.930 . S
C462 H456 0.930 . S
C462 C463 1.355 . S
C462 C464 1.415 . S
C463 C462 1.355 . S
C463 C465 1.419 . S
C464 C462 1.415 . S
C464 C469 1.425 . S
C464 C471 1.409 . S
C465 H457 0.930 . S
C465 C463 1.419 . S
C465 C466 1.362 . S
C466 H458 0.930 . S
C466 C465 1.362 . S
C466 C469 1.409 . S
C467 H459 0.930 . S
C467 C468 1.355 . S
C467 C469 1.415 . S
C468 C467 1.355 . S
C468 C470 1.419 . S
C469 C464 1.425 . S
C469 C466 1.409 . S
C469 C467 1.415 . S
C470 H460 0.930 . S
C470 C468 1.419 . S
C470 C471 1.362 . S
C471 H461 0.930 . S
C471 C464 1.409 . S
C471 C470 1.362 . S
H472 C478 0.930 . S
H473 C481 0.930 . S
H474 C482 0.930 . S
H475 C483 0.930 . S
H476 C486 0.930 . S
H477 C487 0.930 . S
C478 H472 0.930 . S
C478 C479 1.355 . S
C478 C480 1.415 . S
C479 C478 1.355 . S
C479 C481 1.419 . S
C480 C478 1.415 . S
C480 C485 1.425 . S
C480 C487 1.409 . S
C481 H473 0.930 . S
C481 C479 1.419 . S
C481 C482 1.362 . S
C482 H474 0.930 . S
C482 C481 1.362 . S
C482 C485 1.409 . S
C483 H475 0.930 . S
C483 C484 1.355 . S
C483 C485 1.415 . S
C484 C483 1.355 . S
C484 C486 1.419 . S
C485 C480 1.425 . S
C485 C482 1.409 . S
C485 C483 1.415 . S
C486 H476 0.930 . S
C486 C484 1.419 . S
C486 C487 1.362 . S
C487 H477 0.930 . S
C487 C480 1.409 . S
C487 C486 1.362 . S
H488 C494 0.930 . S
H489 C497 0.930 . S
H490 C498 0.930 . S
H491 C499 0.930 . S
H492 C502 0.930 . S
H493 C503 0.930 . S
C494 H488 0.930 . S
C494 C495 1.355 . S
C494 C496 1.415 . S
C495 C494 1.355 . S
C495 C497 1.419 . S
C496 C494 1.415 . S
C496 C501 1.425 . S
C496 C503 1.409 . S
C497 H489 0.930 . S
C497 C495 1.419 . S
C497 C498 1.362 . S
C498 H490 0.930 . S
C498 C497 1.362 . S
C498 C501 1.409 . S
C499 H491 0.930 . S
C499 C500 1.355 . S
C499 C501 1.415 . S
C500 C499 1.355 . S
C500 C502 1.419 . S
C501 C496 1.425 . S
C501 C498 1.409 . S
C501 C499 1.415 . S
C502 H492 0.930 . S
C502 C500 1.419 . S
C502 C503 1.362 . S
C503 H493 0.930 . S
C503 C496 1.409 . S
C503 C502 1.362 . S
H504 C510 0.930 . S
H505 C513 0.930 . S
H506 C514 0.930 . S
H507 C515 0.930 . S
H508 C518 0.930 . S
H509 C519 0.930 . S
C510 H504 0.930 . S
C510 C511 1.355 . S
C510 C512 1.415 . S
C511 C510 1.355 . S
C511 C513 1.419 . S
C512 C510 1.415 . S
C512 C517 1.425 . S
C512 C519 1.409 . S
C513 H505 0.930 . S
C513 C511 1.419 . S
C513 C514 1.362 . S
C514 H506 0.930 . S
C514 C513 1.362 . S
C514 C517 1.409 . S
C515 H507 0.930 . S
C515 C516 1.355 . S
C515 C517 1.415 . S
C516 C515 1.355 . S
C516 C518 1.419 . S
C517 C512 1.425 . S
C517 C514 1.409 . S
C517 C515 1.415 . S
C518 H508 0.930 . S
C518 C516 1.419 . S
C518 C519 1.362 . S
C519 H509 0.930 . S
C519 C512 1.409 . S
C519 C518 1.362 . S
H520 C526 0.930 . S
H521 C529 0.930 . S
H522 C530 0.930 . S
H523 C531 0.930 . S
H524 C534 0.930 . S
H525 C535 0.930 . S
C526 H520 0.930 . S
C526 C527 1.355 . S
C526 C528 1.415 . S
C527 C526 1.355 . S
C527 C529 1.419 . S
C528 C526 1.415 . S
C528 C533 1.425 . S
C528 C535 1.409 . S
C529 H521 0.930 . S
C529 C527 1.419 . S
C529 C530 1.362 . S
C530 H522 0.930 . S
C530 C529 1.362 . S
C530 C533 1.409 . S
C531 H523 0.930 . S
C531 C532 1.355 . S
C531 C533 1.415 . S
C532 C531 1.355 . S
C532 C534 1.419 . S
C533 C528 1.425 . S
C533 C530 1.409 . S
C533 C531 1.415 . S
C534 H524 0.930 . S
C534 C532 1.419 . S
C534 C535 1.362 . S
C535 H525 0.930 . S
C535 C528 1.409 . S
C535 C534 1.362 . S
H536 C542 0.930 . S
H537 C545 0.930 . S
H538 C546 0.930 . S
H539 C547 0.930 . S
H540 C550 0.930 . S
H541 C551 0.930 . S
C542 H536 0.930 . S
C542 C543 1.355 . S
C542 C544 1.415 . S
C543 C542 1.355 . S
C543 C545 1.419 . S
C544 C542 1.415 . S
C544 C549 1.425 . S
C544 C551 1.409 . S
C545 H537 0.930 . S
C545 C543 1.419 . S
C545 C546 1.362 . S
C546 H538 0.930 . S
C546 C545 1.362 . S
C546 C549 1.409 . S
C547 H539 0.930 . S
C547 C548 1.355 . S
C547 C549 1.415 . S
C548 C547 1.355 . S
C548 C550 1.419 . S
C549 C544 1.425 . S
C549 C546 1.409 . S
C549 C547 1.415 . S
C550 H540 0.930 . S
C550 C548 1.419 . S
C550 C551 1.362 . S
C551 H541 0.930 . S
C551 C544 1.409 . S
C551 C550 1.362 . S
H552 C558 0.930 . S
H553 C561 0.930 . S
H554 C562 0.930 . S
H555 C563 0.930 . S
H556 C566 0.930 . S
H557 C567 0.930 . S
C558 H552 0.930 . S
C558 C559 1.355 . S
C558 C560 1.415 . S
C559 C558 1.355 . S
C559 C561 1.419 . S
C560 C558 1.415 . S
C560 C565 1.425 . S
C560 C567 1.409 . S
C561 H553 0.930 . S
C561 C559 1.419 . S
C561 C562 1.362 . S
C562 H554 0.930 . S
C562 C561 1.362 . S
C562 C565 1.409 . S
C563 H555 0.930 . S
C563 C564 1.355 . S
C563 C565 1.415 . S
C564 C563 1.355 . S
C564 C566 1.419 . S
C565 C560 1.425 . S
C565 C562 1.409 . S
C565 C563 1.415 . S
C566 H556 0.930 . S
C566 C564 1.419 . S
C566 C567 1.362 . S
C567 H557 0.930 . S
C567 C560 1.409 . S
C567 C566 1.362 . S
H568 C574 0.930 . S
H569 C577 0.930 . S
H570 C578 0.930 . S
H571 C579 0.930 . S
H572 C582 0.930 . S
H573 C583 0.930 . S
C574 H568 0.930 . S
C574 C575 1.355 . S
C574 C576 1.415 . S
C575 C574 1.355 . S
C575 C577 1.419 . S
C576 C574 1.415 . S
C576 C581 1.425 . S
C576 C583 1.409 . S
C577 H569 0.930 . S
C577 C575 1.419 . S
C577 C578 1.362 . S
C578 H570 0.930 . S
C578 C577 1.362 . S
C578 C581 1.409 . S
C579 H571 0.930 . S
C579 C580 1.355 . S
C579 C581 1.415 . S
C580 C579 1.355 . S
C580 C582 1.419 . S
C581 C576 1.425 . S
C581 C578 1.409 . S
C581 C579 1.415 . S
C582 H572 0.930 . S
C582 C580 1.419 . S
C582 C583 1.362 . S
C583 H573 0.930 . S
C583 C576 1.409 . S
C583 C582 1.362 . S
H584 C590 0.930 . S
H585 C593 0.930 . S
H586 C594 0.930 . S
H587 C595 0.930 . S
H588 C598 0.930 . S
H589 C599 0.930 . S
C590 H584 0.930 . S
C590 C591 1.355 . S
C590 C592 1.415 . S
C591 C590 1.355 . S
C591 C593 1.419 . S
C592 C590 1.415 . S
C592 C597 1.425 . S
C592 C599 1.409 . S
C593 H585 0.930 . S
C593 C591 1.419 . S
C593 C594 1.362 . S
C594 H586 0.930 . S
C594 C593 1.362 . S
C594 C597 1.409 . S
C595 H587 0.930 . S
C595 C596 1.355 . S
C595 C597 1.415 . S
C596 C595 1.355 . S
C596 C598 1.419 . S
C597 C592 1.425 . S
C597 C594 1.409 . S
C597 C595 1.415 . S
C598 H588 0.930 . S
C598 C596 1.419 . S
C598 C599 1.362 . S
C599 H589 0.930 . S
C599 C592 1.409 . S
C599 C598 1.362 . S
H600 C606 0.930 . S
H601 C609 0.930 . S
H602 C610 0.930 . S
H603 C611 0.930 . S
H604 C614 0.930 . S
H605 C615 0.930 . S
C606 H600 0.930 . S
C606 C607 1.355 . S
C606 C608 1.415 . S
C607 C606 1.355 . S
C607 C609 1.419 . S
C608 C606 1.415 . S
C608 C613 1.425 . S
C608 C615 1.409 . S
C609 H601 0.930 . S
C609 C607 1.419 . S
C609 C610 1.362 . S
C610 H602 0.930 . S
C610 C609 1.362 . S
C610 C613 1.409 . S
C611 H603 0.930 . S
C611 C612 1.355 . S
C611 C613 1.415 . S
C612 C611 1.355 . S
C612 C614 1.419 . S
C613 C608 1.425 . S
C613 C610 1.409 . S
C613 C611 1.415 . S
C614 H604 0.930 . S
C614 C612 1.419 . S
C614 C615 1.362 . S
C615 H605 0.930 . S
C615 C608 1.409 . S
C615 C614 1.362 . S
H616 C622 0.930 . S
H617 C625 0.930 . S
H618 C626 0.930 . S
H619 C627 0.930 . S
H620 C630 0.930 . S
H621 C631 0.930 . S
C622 H616 0.930 . S
C622 C623 1.355 . S
C622 C624 1.415 . S
C623 C622 1.355 . S
C623 C625 1.419 . S
C624 C622 1.415 . S
C624 C629 1.425 . S
C624 C631 1.409 . S
C625 H617 0.930 . S
C625 C623 1.419 . S
C625 C626 1.362 . S
C626 H618 0.930 . S
C626 C625 1.362 . S
C626 C629 1.409 . S
C627 H619 0.930 . S
C627 C628 1.355 . S
C627 C629 1.415 . S
C628 C627 1.355 . S
C628 C630 1.419 . S
C629 C624 1.425 . S
C629 C626 1.409 . S
C629 C627 1.415 . S
C630 H620 0.930 . S
C630 C628 1.419 . S
C630 C631 1.362 . S
C631 H621 0.930 . S
C631 C624 1.409 . S
C631 C630 1.362 . S
H632 C638 0.930 . S
H633 C641 0.930 . S
H634 C642 0.930 . S
H635 C643 0.930 . S
H636 C646 0.930 . S
H637 C647 0.930 . S
C638 H632 0.930 . S
C638 C639 1.355 1_554 S
C638 C640 1.415 . S
C639 C638 1.355 1_556 S
C639 C641 1.419 . S
C640 C638 1.415 . S
C640 C645 1.425 1_554 S
C640 C647 1.409 . S
C641 H633 0.930 . S
C641 C639 1.419 . S
C641 C642 1.362 . S
C642 H634 0.930 . S
C642 C641 1.362 . S
C642 C645 1.409 . S
C643 H635 0.930 . S
C643 C644 1.355 1_556 S
C643 C645 1.415 . S
C644 C643 1.355 1_554 S
C644 C646 1.419 . S
C645 C640 1.425 1_556 S
C645 C642 1.409 . S
C645 C643 1.415 . S
C646 H636 0.930 . S
C646 C644 1.419 . S
C646 C647 1.362 . S
C647 H637 0.930 . S
C647 C640 1.409 . S
C647 C646 1.362 . S
H648 C654 0.930 . S
H649 C657 0.930 . S
H650 C658 0.930 . S
H651 C659 0.930 . S
H652 C662 0.930 . S
H653 C663 0.930 . S
C654 H648 0.930 . S
C654 C655 1.355 . S
C654 C656 1.415 . S
C655 C654 1.355 . S
C655 C657 1.419 . S
C656 C654 1.415 . S
C656 C661 1.425 . S
C656 C663 1.409 . S
C657 H649 0.930 . S
C657 C655 1.419 . S
C657 C658 1.362 . S
C658 H650 0.930 . S
C658 C657 1.362 . S
C658 C661 1.409 . S
C659 H651 0.930 . S
C659 C660 1.355 . S
C659 C661 1.415 . S
C660 C659 1.355 . S
C660 C662 1.419 . S
C661 C656 1.425 . S
C661 C658 1.409 . S
C661 C659 1.415 . S
C662 H652 0.930 . S
C662 C660 1.419 . S
C662 C663 1.362 . S
C663 H653 0.930 . S
C663 C656 1.409 . S
C663 C662 1.362 . S
H664 C670 0.930 . S
H665 C673 0.930 . S
H666 C674 0.930 . S
H667 C675 0.930 . S
H668 C678 0.930 . S
H669 C679 0.930 . S
C670 H664 0.930 . S
C670 C671 1.355 . S
C670 C672 1.415 . S
C671 C670 1.355 . S
C671 C673 1.419 1_554 S
C672 C670 1.415 . S
C672 C677 1.425 1_554 S
C672 C679 1.409 . S
C673 H665 0.930 . S
C673 C671 1.419 1_556 S
C673 C674 1.362 . S
C674 H666 0.930 . S
C674 C673 1.362 . S
C674 C677 1.409 . S
C675 H667 0.930 . S
C675 C676 1.352 1_556 S
C675 C677 1.415 . S
C676 C675 1.352 1_554 S
C676 C678 1.423 . S
C677 C672 1.425 1_556 S
C677 C674 1.409 . S
C677 C675 1.415 . S
C678 H668 0.930 . S
C678 C676 1.423 . S
C678 C679 1.362 . S
C679 H669 0.930 . S
C679 C672 1.409 . S
C679 C678 1.362 . S
H680 C686 0.930 . S
H681 C689 0.930 . S
H682 C690 0.930 . S
H683 C691 0.930 . S
H684 C694 0.930 . S
H685 C695 0.930 . S
C686 H680 0.930 . S
C686 C687 1.355 . S
C686 C688 1.415 . S
C687 C686 1.355 . S
C687 C689 1.419 . S
C688 C686 1.415 . S
C688 C693 1.425 . S
C688 C695 1.409 . S
C689 H681 0.930 . S
C689 C687 1.419 . S
C689 C690 1.362 . S
C690 H682 0.930 . S
C690 C689 1.362 . S
C690 C693 1.409 . S
C691 H683 0.930 . S
C691 C692 1.355 . S
C691 C693 1.415 . S
C692 C691 1.355 . S
C692 C694 1.419 . S
C693 C688 1.425 . S
C693 C690 1.409 . S
C693 C691 1.415 . S
C694 H684 0.930 . S
C694 C692 1.419 . S
C694 C695 1.362 . S
C695 H685 0.930 . S
C695 C688 1.409 . S
C695 C694 1.362 . S
H696 C702 0.930 . S
H697 C705 0.930 . S
H698 C706 0.930 . S
H699 C707 0.930 . S
H700 C710 0.930 . S
H701 C711 0.930 . S
C702 H696 0.930 . S
C702 C703 1.355 . S
C702 C704 1.415 . S
C703 C702 1.355 . S
C703 C705 1.419 . S
C704 C702 1.415 . S
C704 C709 1.425 . S
C704 C711 1.409 . S
C705 H697 0.930 . S
C705 C703 1.419 . S
C705 C706 1.362 . S
C706 H698 0.930 . S
C706 C705 1.362 . S
C706 C709 1.409 . S
C707 H699 0.930 . S
C707 C708 1.355 . S
C707 C709 1.415 . S
C708 C707 1.355 . S
C708 C710 1.419 . S
C709 C704 1.425 . S
C709 C706 1.409 . S
C709 C707 1.415 . S
C710 H700 0.930 . S
C710 C708 1.419 . S
C710 C711 1.362 . S
C711 H701 0.930 . S
C711 C704 1.409 . S
C711 C710 1.362 . S
H712 C718 0.930 . S
H713 C721 0.930 . S
H714 C722 0.930 . S
H715 C723 0.930 . S
H716 C726 0.930 . S
H717 C727 0.930 . S
C718 H712 0.930 . S
C718 C719 1.352 1_556 S
C718 C720 1.415 . S
C719 C718 1.352 1_554 S
C719 C721 1.422 . S
C720 C718 1.415 . S
C720 C725 1.425 1_556 S
C720 C727 1.409 . S
C721 H713 0.930 . S
C721 C719 1.422 . S
C721 C722 1.362 . S
C722 H714 0.930 . S
C722 C721 1.362 . S
C722 C725 1.409 . S
C723 H715 0.930 . S
C723 C724 1.355 . S
C723 C725 1.415 . S
C724 C723 1.355 . S
C724 C726 1.419 1_554 S
C725 C720 1.425 1_554 S
C725 C722 1.409 . S
C725 C723 1.415 . S
C726 H716 0.930 . S
C726 C724 1.419 1_556 S
C726 C727 1.362 . S
C727 H717 0.930 . S
C727 C720 1.409 . S
C727 C726 1.362 . S
H728 C734 0.930 . S
H729 C737 0.930 . S
H730 C738 0.930 . S
H731 C739 0.930 . S
H732 C742 0.930 . S
H733 C743 0.930 . S
C734 H728 0.930 . S
C734 C735 1.355 . S
C734 C736 1.415 . S
C735 C734 1.355 . S
C735 C737 1.419 . S
C736 C734 1.415 . S
C736 C741 1.425 . S
C736 C743 1.409 . S
C737 H729 0.930 . S
C737 C735 1.419 . S
C737 C738 1.362 . S
C738 H730 0.930 . S
C738 C737 1.362 . S
C738 C741 1.409 . S
C739 H731 0.930 . S
C739 C740 1.355 . S
C739 C741 1.415 . S
C740 C739 1.355 . S
C740 C742 1.419 . S
C741 C736 1.425 . S
C741 C738 1.409 . S
C741 C739 1.415 . S
C742 H732 0.930 . S
C742 C740 1.419 . S
C742 C743 1.362 . S
C743 H733 0.930 . S
C743 C736 1.409 . S
C743 C742 1.362 . S
H744 C750 0.930 . S
H745 C753 0.930 . S
H746 C754 0.930 . S
H747 C755 0.930 . S
H748 C758 0.930 . S
H749 C759 0.930 . S
C750 H744 0.930 . S
C750 C751 1.355 . S
C750 C752 1.415 . S
C751 C750 1.355 . S
C751 C753 1.419 1_554 S
C752 C750 1.415 . S
C752 C757 1.425 1_554 S
C752 C759 1.409 . S
C753 H745 0.930 . S
C753 C751 1.419 1_556 S
C753 C754 1.362 . S
C754 H746 0.930 . S
C754 C753 1.362 . S
C754 C757 1.409 . S
C755 H747 0.930 . S
C755 C756 1.355 . S
C755 C757 1.415 . S
C756 C755 1.355 . S
C756 C758 1.419 1_556 S
C757 C752 1.425 1_556 S
C757 C754 1.409 . S
C757 C755 1.415 . S
C758 H748 0.930 . S
C758 C756 1.419 1_554 S
C758 C759 1.362 . S
C759 H749 0.930 . S
C759 C752 1.409 . S
C759 C758 1.362 . S
C383 C5 1.505 . S
C388 C197 1.491 . S
C399 C31 1.485 . S
C404 C119 1.500 . S
C420 C155 1.436 . S
C415 C53 1.520 . S
C431 C71 1.511 . S
C436 C161 1.483 . S
C452 C299 1.497 . S
C447 C75 1.485 . S
C468 C305 1.486 . S
C463 C9 1.510 . S
C484 C341 1.488 . S
C479 C27 1.512 . S
C500 C263 1.482 . S
C495 C49 1.486 . S
C511 C51 1.516 . S
C516 C125 1.453 . S
C527 C72 1.486 . S
C532 C191 1.516 . S
C543 C6 1.490 . S
C548 C227 1.506 . S
C564 C89 1.451 . S
C559 C29 1.509 . S
C575 C28 1.520 . S
C580 C371 1.471 . S
C596 C233 1.452 . S
C591 C50 1.513 . S
C612 C269 1.467 . S
C607 C73 1.514 . S
C623 C7 1.519 . S
C628 C335 1.469 . S
C644 C113 1.498 1_554 S
C639 C4 1.502 1_556 S
C660 C149 1.499 . S
C655 C30 1.499 . S
C671 C52 1.519 . S
C676 C185 1.503 . S
C687 C70 1.498 . S
C692 C221 1.518 . S
C708 C257 1.509 . S
C703 C74 1.496 . S
C719 C8 1.518 . S
C724 C293 1.457 . S
C735 C26 1.508 . S
C740 C329 1.505 . S
C751 C48 1.496 . S
C756 C365 1.515 . S
