# Generated by pormake.
# Topology anh, (6,3)-cn, num edge types: 1
# Building blocks:
#     Node 0, Type 0, BuildingBlock: BETDIP_clean_sbu_0, # of connection points: 6
#     Node 1, Type 0, BuildingBlock: BETDIP_clean_sbu_0, # of connection points: 6
#     Node 2, Type 0, BuildingBlock: BETDIP_clean_sbu_0, # of connection points: 6
#     Node 3, Type 1, BuildingBlock: MIDCAF_clean_linker_0, # of connection points: 3
#     Node 4, Type 1, BuildingBlock: MIDCAF_clean_linker_0, # of connection points: 3
#     Node 5, Type 1, BuildingBlock: MIDCAF_clean_linker_0, # of connection points: 3
#     Node 6, Type 1, BuildingBlock: MIDCAF_clean_linker_0, # of connection points: 3
#     Node 7, Type 1, BuildingBlock: MIDCAF_clean_linker_0, # of connection points: 3
#     Node 8, Type 1, BuildingBlock: MIDCAF_clean_linker_0, # of connection points: 3
#     Edge 9, Type (0, 1), BuildingBlock: XUDNAN_clean_linker_2, # of connection points: 2
#     Edge 10, Type (0, 1), BuildingBlock: XUDNAN_clean_linker_2, # of connection points: 2
#     Edge 11, Type (0, 1), BuildingBlock: XUDNAN_clean_linker_2, # of connection points: 2
#     Edge 12, Type (0, 1), BuildingBlock: XUDNAN_clean_linker_2, # of connection points: 2
#     Edge 13, Type (0, 1), BuildingBlock: XUDNAN_clean_linker_2, # of connection points: 2
#     Edge 14, Type (0, 1), BuildingBlock: XUDNAN_clean_linker_2, # of connection points: 2
#     Edge 15, Type (0, 1), BuildingBlock: XUDNAN_clean_linker_2, # of connection points: 2
#     Edge 16, Type (0, 1), BuildingBlock: XUDNAN_clean_linker_2, # of connection points: 2
#     Edge 17, Type (0, 1), BuildingBlock: XUDNAN_clean_linker_2, # of connection points: 2
#     Edge 18, Type (0, 1), BuildingBlock: XUDNAN_clean_linker_2, # of connection points: 2
#     Edge 19, Type (0, 1), BuildingBlock: XUDNAN_clean_linker_2, # of connection points: 2
#     Edge 20, Type (0, 1), BuildingBlock: XUDNAN_clean_linker_2, # of connection points: 2
#     Edge 21, Type (0, 1), BuildingBlock: XUDNAN_clean_linker_2, # of connection points: 2
#     Edge 22, Type (0, 1), BuildingBlock: XUDNAN_clean_linker_2, # of connection points: 2
#     Edge 23, Type (0, 1), BuildingBlock: XUDNAN_clean_linker_2, # of connection points: 2
#     Edge 24, Type (0, 1), BuildingBlock: XUDNAN_clean_linker_2, # of connection points: 2
#     Edge 25, Type (0, 1), BuildingBlock: XUDNAN_clean_linker_2, # of connection points: 2
#     Edge 26, Type (0, 1), BuildingBlock: XUDNAN_clean_linker_2, # of connection points: 2
# Relax obj value: 0.244
# Max RMSD: 0.184
# Mean RMSD: 0.156
data_MOF--net-anh--node1-BETDIP_clean_sbu_0--node2-MIDCAF_clean_linker_0--edge1-XUDNAN_clean_linker_2
_symmetry_space_group_name_H-M    P1
_symmetry_Int_Tables_number       1
_symmetry_cell_setting            triclinic
loop_
_symmetry_equiv_pos_as_xyz
'x, y, z'
_cell_length_a     37.788889
_cell_length_b     38.034323
_cell_length_c     66.35695
_cell_angle_alpha  90.131405
_cell_angle_beta   89.82481
_cell_angle_gamma 119.57178
loop_
_atom_site_label
_atom_site_type_symbol
_atom_site_fract_x
_atom_site_fract_y
_atom_site_fract_z
_atom_type_partial_charge
Tb0 Tb 0.10061 0.57878 0.16447 0.0
Tb1 Tb 0.06751 0.49344 0.16688 0.0
C2 C 0.13976 0.65328 0.17172 0.0
C3 C 0.17928 0.68947 0.16765 0.0
C4 C 0.21596 0.69448 0.17556 0.0
C5 C 0.25203 0.73133 0.17319 0.0
C6 C 0.25192 0.76356 0.16286 0.0
C7 C 0.21544 0.75766 0.15429 0.0
C8 C 0.17957 0.72109 0.15671 0.0
C9 C 0.08424 0.54301 0.12924 0.0
C10 C 0.16471 0.54125 0.16183 0.0
C11 C 1.02217 0.41896 0.16157 0.0
C12 C 0.97728 0.39661 0.16006 0.0
C13 C 0.95824 0.39371 0.14143 0.0
C14 C 0.91721 0.38308 0.14071 0.0
C15 C 0.89464 0.37528 0.1586 0.0
C16 C 0.91252 0.37392 0.17691 0.0
C17 C 0.9534 0.38436 0.17763 0.0
C18 C 0.08295 0.52898 0.20302 0.0
C19 C 1.00419 0.53068 0.16122 0.0
O20 O 0.13851 0.62583 0.18408 0.0
O21 O 0.11602 0.63752 0.15614 0.0
O22 O 0.0997 0.53549 0.14412 0.0
O23 O 0.08018 0.57416 0.13313 0.0
O24 O 0.15904 0.57357 0.16393 0.0
O25 O 0.13134 0.50478 0.16147 0.0
O26 O 1.04113 0.44434 0.14694 0.0
O27 O 1.03719 0.43493 0.17914 0.0
O28 O 0.06692 0.53659 0.18804 0.0
O29 O 0.09111 0.50094 0.19769 0.0
O30 O 1.01124 0.49935 0.15958 0.0
O31 O 1.03593 0.56634 0.16596 0.0
H32 H 0.21662 0.6705 0.18403 0.0
H33 H 0.27976 0.735 0.17989 0.0
H34 H 0.21402 0.78203 0.14661 0.0
H35 H 0.15161 0.71805 0.15062 0.0
H36 H 0.97568 0.40243 0.12755 0.0
H37 H 0.90411 0.38398 0.12635 0.0
H38 H 0.89536 0.36651 0.19085 0.0
H39 H 0.96687 0.38541 0.19217 0.0
Tb40 Tb 0.59011 1.02353 0.49543 0.0
Tb41 Tb 0.54878 0.06908 0.49782 0.0
C42 C 0.61628 0.97601 0.50324 0.0
C43 C 0.60179 0.93241 0.50319 0.0
C44 C 0.60985 0.91553 0.52006 0.0
C45 C 0.60144 0.87555 0.51967 0.0
C46 C 0.58488 0.85169 0.50233 0.0
C47 C 0.57458 0.86795 0.48583 0.0
C48 C 0.58285 0.90806 0.48628 0.0
C49 C 0.57533 0.04503 0.46046 0.0
C50 C 0.48892 0.97141 0.49251 0.0
C51 C 0.52889 0.12168 0.49111 0.0
C52 C 0.55349 0.16509 0.49539 0.0
C53 C 0.55533 0.19384 0.48159 0.0
C54 C 0.58408 0.2348 0.48409 0.0
C55 C 0.61132 0.24735 0.5004 0.0
C56 C 0.60891 0.21837 0.51426 0.0
C57 C 0.58034 0.17777 0.5118 0.0
C58 C 0.56207 0.04849 0.5341 0.0
C59 C 0.65 0.12036 0.4935 0.0
O60 O 0.60014 0.98893 0.51677 0.0
O61 O 0.62097 0.99358 0.48575 0.0
O62 O 0.55174 1.03189 0.47528 0.0
O63 O 0.60872 0.0447 0.46438 0.0
O64 O 0.52386 0.9704 0.49489 0.0
O65 O 0.49232 1.00835 0.49189 0.0
O66 O 0.54453 0.10874 0.47733 0.0
O67 O 0.51612 0.09785 0.50686 0.0
O68 O 0.58668 0.06014 0.51926 0.0
O69 O 0.53056 0.05142 0.52913 0.0
O70 O 0.61469 0.12087 0.49321 0.0
O71 O 0.6474 0.08426 0.49609 0.0
H72 H 0.62437 0.93384 0.53325 0.0
H73 H 0.61044 0.86426 0.53251 0.0
H74 H 0.56162 0.85015 0.47233 0.0
H75 H 0.57587 0.92038 0.47315 0.0
H76 H 0.53548 0.18446 0.46858 0.0
H77 H 0.58524 0.25652 0.4732 0.0
H78 H 0.6301 0.22683 0.52669 0.0
H79 H 0.58044 0.15606 0.52231 0.0
Tb80 Tb 0.53634 0.51953 0.83158 0.0
Tb81 Tb 0.6237 0.56336 0.82744 0.0
C82 C 0.46676 0.5001 0.84425 0.0
C83 C 0.44506 0.52312 0.84323 0.0
C84 C 0.42027 0.52165 0.85926 0.0
C85 C 0.40231 0.54611 0.85908 0.0
C86 C 0.4091 0.5726 0.84289 0.0
C87 C 0.43402 0.57398 0.82684 0.0
C88 C 0.45189 0.5495 0.82702 0.0
C89 C 0.56145 0.52763 0.79437 0.0
C90 C 0.58192 0.62015 0.82588 0.0
C91 C 0.69444 0.58557 0.815 0.0
C92 C 0.71603 0.56309 0.81063 0.0
C93 C 0.73489 0.56772 0.79184 0.0
C94 C 0.75368 0.54508 0.78696 0.0
C95 C 0.75439 0.51765 0.80092 0.0
C96 C 0.73501 0.51285 0.81969 0.0
C97 C 0.71574 0.53505 0.82442 0.0
C98 C 0.59837 0.55278 0.86573 0.0
C99 C 0.57558 0.46198 0.8264 0.0
O100 O 0.49902 0.51615 0.8558 0.0
O101 O 0.47336 0.48767 0.82696 0.0
O102 O 0.5759 0.55398 0.80803 0.0
O103 O 0.52968 0.49557 0.80106 0.0
O104 O 0.54854 0.58483 0.8304 0.0
O105 O 0.61656 0.61908 0.82298 0.0
O106 O 0.66384 0.57713 0.8031 0.0
O107 O 0.68585 0.5881 0.83389 0.0
O108 O 0.58384 0.52723 0.85151 0.0
O109 O 0.62925 0.58532 0.8587 0.0
O110 O 0.60973 0.49735 0.82266 0.0
O111 O 0.54286 0.46403 0.83256 0.0
H112 H 0.41505 0.50182 0.87197 0.0
H113 H 0.38254 0.54376 0.87148 0.0
H114 H 0.43997 0.59423 0.81424 0.0
H115 H 0.47151 0.55161 0.8146 0.0
H116 H 0.73495 0.58878 0.7809 0.0
H117 H 0.76778 0.54923 0.77228 0.0
H118 H 0.73555 0.49274 0.83105 0.0
H119 H 0.70082 0.53034 0.83892 0.0
C120 C 0.41095 0.04159 0.22489 0.0
C121 C 0.42259 0.04042 0.20483 0.0
C122 C 0.45288 0.07629 0.19598 0.0
C123 C 0.4722 0.11203 0.20715 0.0
H124 H 0.53164 0.24703 0.20736 0.0
H125 H 0.58576 0.29658 0.18598 0.0
H126 H 0.67367 0.31458 0.23218 0.0
H127 H 0.6194 0.26654 0.25374 0.0
H128 H 0.58563 0.19168 0.29193 0.0
H129 H 0.58959 0.1663 0.32511 0.0
H130 H 0.46013 0.11891 0.33303 0.0
H131 H 0.45619 0.14153 0.29927 0.0
H132 H 0.42187 0.07671 0.25173 0.0
H133 H 0.38692 1.01483 0.23203 0.0
H134 H 0.46289 0.07651 0.18065 0.0
H135 H 0.49647 0.13869 0.20005 0.0
N136 N 0.51307 0.18431 0.2314 0.0
N137 N 0.54337 0.21091 0.26271 0.0
N138 N 0.48885 0.14442 0.26036 0.0
C139 C 0.54084 0.21578 0.24254 0.0
C140 C 0.51669 0.17546 0.2717 0.0
C141 C 0.48711 0.14849 0.24014 0.0
C142 C 0.5715 0.2524 0.23204 0.0
C143 C 0.56244 0.26256 0.21314 0.0
C144 C 0.59346 0.29083 0.20086 0.0
C145 C 0.63423 0.30895 0.20711 0.0
C146 C 0.64268 0.30157 0.22684 0.0
C147 C 0.61153 0.27376 0.23924 0.0
C148 C 0.52057 0.16823 0.29313 0.0
C149 C 0.55828 0.17643 0.30102 0.0
C150 C 0.56047 0.16189 0.32007 0.0
C151 C 0.52502 0.13964 0.33173 0.0
C152 C 0.48787 0.13448 0.32429 0.0
C153 C 0.48557 0.14793 0.30505 0.0
C154 C 0.46206 0.11259 0.22751 0.0
C155 C 0.43066 0.07719 0.23614 0.0
C156 C 0.80995 0.52067 0.56936 0.0
C157 C 0.80424 0.51762 0.54832 0.0
C158 C 0.80637 0.55074 0.53791 0.0
C159 C 0.80821 0.58331 0.54846 0.0
H160 H 0.74099 0.63226 0.53862 0.0
H161 H 0.70019 0.65241 0.5188 0.0
H162 H 0.69477 0.72164 0.56934 0.0
H163 H 0.73402 0.69973 0.58954 0.0
H164 H 0.73276 0.6576 0.63274 0.0
H165 H 0.70253 0.63607 0.66588 0.0
H166 H 0.75115 0.55461 0.66971 0.0
H167 H 0.78066 0.57533 0.63619 0.0
H168 H 0.81149 0.55246 0.5963 0.0
H169 H 0.81006 0.49639 0.57781 0.0
H170 H 0.8024 0.54993 0.52173 0.0
H171 H 0.80644 0.60663 0.53993 0.0
N172 N 0.78044 0.62985 0.5694 0.0
N173 N 0.75643 0.64571 0.59857 0.0
N174 N 0.78868 0.60658 0.60071 0.0
C175 C 0.76153 0.64816 0.57829 0.0
C176 C 0.77012 0.62521 0.60995 0.0
C177 C 0.79445 0.60929 0.58039 0.0
C178 C 0.74076 0.66442 0.5657 0.0
C179 C 0.73143 0.65209 0.54549 0.0
C180 C 0.70796 0.66365 0.53407 0.0
C181 C 0.69377 0.68833 0.54248 0.0
C182 C 0.70421 0.70169 0.56252 0.0
C183 C 0.72716 0.68958 0.57405 0.0
C184 C 0.75862 0.61771 0.63157 0.0
C185 C 0.73761 0.63551 0.6407 0.0
C186 C 0.72043 0.62334 0.65983 0.0
C187 C 0.72393 0.59319 0.67035 0.0
C188 C 0.74721 0.57732 0.66181 0.0
C189 C 0.7644 0.58947 0.64264 0.0
C190 C 0.80724 0.58315 0.56967 0.0
C191 C 0.81108 0.55301 0.57998 0.0
C192 C 0.90655 0.42164 0.86749 0.0
C193 C 0.9191 0.42041 0.84759 0.0
C194 C 0.95708 0.42303 0.84445 0.0
C195 C 0.98385 0.43166 0.86049 0.0
H196 H 0.08808 0.55955 0.87227 0.0
H197 H 0.15459 0.60767 0.85858 0.0
H198 H 0.21182 0.57145 0.90425 0.0
H199 H 0.14583 0.52592 0.91852 0.0
H200 H 0.08352 0.46036 0.95308 0.0
H201 H 0.07967 0.45135 0.98942 0.0
H202 H 0.95805 0.43474 0.9894 0.0
H203 H 0.96177 0.4433 0.95256 0.0
H204 H 0.92413 0.43369 0.89858 0.0
H205 H 0.87759 0.42002 0.87046 0.0
H206 H 0.96726 0.42134 0.82938 0.0
H207 H 1.01413 0.43655 0.85741 0.0
N208 N 1.04157 0.48701 0.8895 0.0
N209 N 0.06555 0.49427 0.92248 0.0
N210 N 0.99782 0.44567 0.91513 0.0
C211 C 0.07194 0.50622 0.90298 0.0
C212 C 1.02863 0.46428 0.92869 0.0
C213 C 1.00471 0.45658 0.89536 0.0
C214 C 0.11195 0.53865 0.89624 0.0
C215 C 0.11512 0.56267 0.87955 0.0
C216 C 0.15323 0.59018 0.8717 0.0
C217 C 0.18887 0.59335 0.88005 0.0
C218 C 0.18546 0.57078 0.89751 0.0
C219 C 0.14745 0.54411 0.90563 0.0
C220 C 1.02301 0.45271 0.9501 0.0
C221 C 1.05564 0.454 0.96077 0.0
C222 C 1.05331 0.44855 0.98155 0.0
C223 C 1.01853 0.44229 0.9922 0.0
C224 C 0.98518 0.43951 0.98148 0.0
C225 C 0.98722 0.4442 0.96049 0.0
C226 C 0.97284 0.43703 0.88001 0.0
C227 C 0.93322 0.42967 0.88363 0.0
C228 C 0.18553 0.69343 0.45379 0.0
C229 C 0.21637 0.69773 0.46757 0.0
C230 C 0.20702 0.66004 0.4769 0.0
C231 C 0.16991 0.62179 0.47275 0.0
H232 H 1.02696 0.45292 0.48038 0.0
H233 H 0.96612 0.38832 0.48903 0.0
H234 H 0.89335 0.4172 0.45018 0.0
H235 H 0.9543 0.48118 0.44124 0.0
H236 H 1.00288 0.50664 0.39386 0.0
H237 H 1.00171 0.50717 0.35696 0.0
H238 H 0.13242 0.57947 0.3557 0.0
H239 H 0.13365 0.58007 0.39273 0.0
H240 H 0.12876 0.65606 0.4383 0.0
H241 H 0.18963 0.71966 0.44552 0.0
H242 H 0.22845 0.65992 0.48764 0.0
H243 H 0.166 0.59471 0.48009 0.0
N244 N 0.06993 0.54517 0.46091 0.0
N245 N 1.03767 0.51408 0.43012 0.0
N246 N 0.10012 0.57504 0.42957 0.0
C247 C 1.03682 0.5128 0.45071 0.0
C248 C 0.06884 0.5441 0.41941 0.0
C249 C 0.10218 0.57731 0.45015 0.0
C250 C 0.99751 0.4751 0.46026 0.0
C251 C 0.99811 0.44657 0.47394 0.0
C252 C 0.96223 0.4082 0.47877 0.0
C253 C 0.92243 0.39508 0.47056 0.0
C254 C 0.92176 0.42425 0.45738 0.0
C255 C 0.95772 0.46206 0.45222 0.0
C256 C 0.06834 0.54348 0.39657 0.0
C257 C 1.03149 0.52264 0.38582 0.0
C258 C 1.0308 0.52299 0.36455 0.0
C259 C 0.06698 0.54327 0.35315 0.0
C260 C 0.10395 0.56327 0.36384 0.0
C261 C 0.10458 0.56381 0.38516 0.0
C262 C 0.13931 0.61816 0.45884 0.0
C263 C 0.1493 0.65572 0.44955 0.0
C264 C 0.55559 0.15165 0.81096 0.0
C265 C 0.58025 0.19071 0.80192 0.0
C266 C 0.60848 0.19089 0.78762 0.0
C267 C 0.61067 0.1551 0.78225 0.0
H268 H 0.55196 0.96333 0.81783 0.0
H269 H 0.54892 0.89934 0.82747 0.0
H270 H 0.61845 0.90547 0.77488 0.0
H271 H 0.62134 0.96883 0.76535 0.0
H272 H 0.61332 1.0054 0.7254 0.0
H273 H 0.61348 1.00309 0.68894 0.0
H274 H 0.5614 0.08179 0.6867 0.0
H275 H 0.56368 0.08588 0.72356 0.0
H276 H 0.53763 0.0876 0.8131 0.0
H277 H 0.53321 0.14824 0.82213 0.0
H278 H 0.62826 0.21875 0.77976 0.0
H279 H 0.63198 0.15812 0.77052 0.0
N280 N 0.58437 0.04394 0.79212 0.0
N281 N 0.58782 1.01495 0.76104 0.0
N282 N 0.58649 0.07614 0.7611 0.0
C283 C 0.58614 1.01231 0.78159 0.0
C284 C 0.58752 0.0457 0.75063 0.0
C285 C 0.58512 0.07691 0.78172 0.0
C286 C 0.58724 0.97378 0.79056 0.0
C287 C 0.56729 0.95185 0.80831 0.0
C288 C 0.56516 0.91378 0.81379 0.0
C289 C 0.58312 0.89452 0.80215 0.0
C290 C 0.60398 0.91726 0.7848 0.0
C291 C 0.60557 0.95473 0.77921 0.0
C292 C 0.58823 0.04559 0.72778 0.0
C293 C 0.60193 1.02237 0.71723 0.0
C294 C 0.60157 1.02075 0.69601 0.0
C295 C 0.58653 0.04147 0.68422 0.0
C296 C 0.57348 0.0654 0.69481 0.0
C297 C 0.57458 0.06762 0.71615 0.0
C298 C 0.5859 0.11602 0.79109 0.0
C299 C 0.55846 0.11591 0.80589 0.0
C300 C 0.70439 0.50738 0.11578 0.0
C301 C 0.73018 0.52808 0.13237 0.0
C302 C 0.71619 0.5509 0.14386 0.0
C303 C 0.67921 0.55234 0.13904 0.0
H304 H 0.53983 0.57567 0.14906 0.0
H305 H 0.4792 0.57994 0.15912 0.0
H306 H 0.41093 0.49946 0.11087 0.0
H307 H 0.47129 0.4956 0.10083 0.0
H308 H 0.51825 0.51848 0.05789 0.0
H309 H 0.51551 0.51673 0.02115 0.0
H310 H 0.64277 0.55213 0.01849 0.0
H311 H 0.64554 0.55345 0.05549 0.0
H312 H 0.65168 0.49279 0.09766 0.0
H313 H 0.71242 0.48975 0.10588 0.0
H314 H 0.7337 0.56763 0.15685 0.0
H315 H 0.67126 0.57089 0.14829 0.0
N316 N 0.58454 0.5359 0.12447 0.0
N317 N 0.55227 0.53561 0.09378 0.0
N318 N 0.6144 0.5356 0.09298 0.0
C319 C 0.55151 0.53585 0.11438 0.0
C320 C 0.58315 0.53599 0.08291 0.0
C321 C 0.61655 0.53533 0.11358 0.0
C322 C 0.51232 0.5347 0.12401 0.0
C323 C 0.51195 0.55806 0.14071 0.0
C324 C 0.4763 0.56091 0.14638 0.0
C325 C 0.43798 0.54031 0.13601 0.0
C326 C 0.43825 0.51602 0.11977 0.0
C327 C 0.47389 0.51378 0.11392 0.0
C328 C 0.58208 0.5359 0.06003 0.0
C329 C 0.54584 0.52603 0.04961 0.0
C330 C 0.54421 0.52488 0.02837 0.0
C331 C 0.57888 0.53418 0.01655 0.0
C332 C 0.61544 0.54502 0.02689 0.0
C333 C 0.61692 0.54548 0.04824 0.0
C334 C 0.65382 0.53144 0.1222 0.0
C335 C 0.66839 0.50922 0.1109 0.0
H336 H 0.19339 0.48691 0.14719 0.0
H337 H 0.23993 0.60867 0.16995 0.0
H338 H 0.31008 0.62037 0.1665 0.0
H339 H 0.27082 0.46718 0.17021 0.0
H340 H 0.27521 0.44016 0.14887 0.0
H341 H 0.22823 0.44031 0.15347 0.0
H342 H 0.23116 0.46778 0.11767 0.0
H343 H 0.27813 0.46767 0.11296 0.0
H344 H 0.2758 0.51352 0.10975 0.0
H345 H 0.37955 0.61915 0.16117 0.0
H346 H 0.43623 0.60703 0.15293 0.0
H347 H 0.34973 0.48716 0.13141 0.0
C348 C 0.21817 0.51615 0.15157 0.0
C349 C 0.20903 0.54671 0.15918 0.0
C350 C 0.24406 0.58425 0.16422 0.0
C351 C 0.28485 0.59127 0.16229 0.0
C352 C 0.29256 0.56092 0.15487 0.0
C353 C 0.25996 0.52404 0.14937 0.0
C354 C 0.27715 0.49703 0.1412 0.0
C355 C 0.26193 0.45888 0.1542 0.0
C356 C 0.26481 0.48581 0.11908 0.0
C357 C 0.32414 0.52403 0.14305 0.0
C358 C 0.33212 0.56074 0.15119 0.0
C359 C 0.37286 0.59033 0.15476 0.0
C360 C 0.40563 0.58287 0.15005 0.0
C361 C 0.39972 0.5459 0.14137 0.0
C362 C 0.35721 0.51616 0.13785 0.0
H363 H 0.67742 0.20773 0.4874 0.0
H364 H 0.72593 0.12598 0.49283 0.0
H365 H 0.79518 0.18316 0.48814 0.0
H366 H 0.75003 0.27591 0.44914 0.0
H367 H 0.75514 0.3216 0.46013 0.0
H368 H 0.70917 0.27404 0.46401 0.0
H369 H 0.71887 0.28506 0.50289 0.0
H370 H 0.7647 0.33261 0.49834 0.0
H371 H 0.7662 0.29468 0.51391 0.0
H372 H 0.86411 0.25249 0.48301 0.0
H373 H 0.92043 0.32156 0.47716 0.0
H374 H 0.83358 0.3645 0.47348 0.0
C375 C 0.70242 0.20148 0.48763 0.0
C376 C 0.69375 0.15993 0.49067 0.0
C377 C 0.72931 0.15569 0.49071 0.0
C378 C 0.76978 0.1888 0.48798 0.0
C379 C 0.77703 0.22847 0.48503 0.0
C380 C 0.74414 0.23506 0.48486 0.0
C381 C 0.76126 0.28134 0.4816 0.0
C382 C 0.74279 0.28869 0.46259 0.0
C383 C 0.75217 0.29955 0.50026 0.0
C384 C 0.80821 0.29935 0.47917 0.0
C385 C 0.8164 0.26799 0.48168 0.0
C386 C 0.85722 0.27671 0.481 0.0
C387 C 0.88987 0.31711 0.4777 0.0
C388 C 0.88389 0.35104 0.47465 0.0
C389 C 0.84117 0.34077 0.47543 0.0
H390 H 0.63392 0.70034 0.80693 0.0
H391 H 0.52096 0.63401 0.84012 0.0
H392 H 0.51022 0.69272 0.83799 0.0
H393 H 0.66427 0.80156 0.82851 0.0
H394 H 0.68409 0.82884 0.80527 0.0
H395 H 0.68421 0.78207 0.80949 0.0
H396 H 0.64419 0.75305 0.77658 0.0
H397 H 0.64398 0.79976 0.77226 0.0
H398 H 0.5967 0.75259 0.77292 0.0
H399 H 0.51124 0.76271 0.83287 0.0
H400 H 0.52183 0.83006 0.82415 0.0
H401 H 0.63284 0.85617 0.79261 0.0
C402 C 0.60691 0.69792 0.81392 0.0
C403 C 0.57846 0.66032 0.82398 0.0
C404 C 0.54371 0.66064 0.83235 0.0
C405 C 0.53725 0.6947 0.83123 0.0
C406 C 0.56536 0.73055 0.82139 0.0
C407 C 0.59956 0.73234 0.81269 0.0
C408 C 0.6243 0.77467 0.80251 0.0
C409 C 0.66676 0.79818 0.812 0.0
C410 C 0.62751 0.76973 0.77971 0.0
C411 C 0.59915 0.79634 0.80689 0.0
C412 C 0.56532 0.77006 0.81798 0.0
C413 C 0.53785 0.78295 0.82417 0.0
C414 C 0.54446 0.82243 0.81913 0.0
C415 C 0.57847 0.85119 0.80755 0.0
C416 C 0.6061 0.83659 0.80137 0.0
H417 H 0.96974 0.58514 0.16488 0.0
H418 H 0.93568 0.46301 0.14695 0.0
H419 H 0.86666 0.45024 0.1388 0.0
H420 H 0.86924 0.55942 0.18753 0.0
H421 H 0.86988 0.60468 0.17898 0.0
H422 H 0.91708 0.60507 0.18364 0.0
H423 H 0.94088 0.63041 0.14745 0.0
H424 H 0.89375 0.63006 0.14268 0.0
H425 H 0.90944 0.60215 0.12646 0.0
H426 H 0.79768 0.44945 0.132 0.0
H427 H 0.73958 0.46056 0.12717 0.0
H428 H 0.81198 0.58342 0.1491 0.0
C429 C 0.94788 0.55548 0.15934 0.0
C430 C 0.96021 0.52498 0.15687 0.0
C431 C 0.92891 0.48715 0.14939 0.0
C432 C 0.88883 0.47954 0.14461 0.0
C433 C 0.87794 0.5097 0.14724 0.0
C434 C 0.90666 0.54711 0.15452 0.0
C435 C 0.88626 0.57407 0.15585 0.0
C436 C 0.8856 0.58659 0.17781 0.0
C437 C 0.90895 0.61142 0.14231 0.0
C438 C 0.84208 0.54643 0.14806 0.0
C439 C 0.83837 0.50935 0.1432 0.0
C440 C 0.80109 0.47871 0.13566 0.0
C441 C 0.76751 0.4856 0.13282 0.0
C442 C 0.76903 0.52319 0.13724 0.0
C443 C 0.80792 0.55397 0.14535 0.0
H444 H 0.46007 0.88286 0.49174 0.0
H445 H 0.41509 0.96723 0.48473 0.0
H446 H 0.34641 0.91036 0.47851 0.0
H447 H 0.39338 0.80958 0.4529 0.0
H448 H 0.38376 0.76488 0.46663 0.0
H449 H 0.43035 0.81175 0.47071 0.0
H450 H 0.41468 0.80736 0.50869 0.0
H451 H 0.36803 0.76048 0.50474 0.0
H452 H 0.36692 0.80219 0.51708 0.0
H453 H 0.27844 0.84213 0.47242 0.0
H454 H 0.22166 0.77337 0.46762 0.0
H455 H 0.30308 0.72551 0.47817 0.0
C456 C 0.43593 0.88972 0.48895 0.0
C457 C 0.44543 0.93193 0.48896 0.0
C458 C 0.41103 0.93701 0.48506 0.0
C459 C 0.37092 0.90409 0.48141 0.0
C460 C 0.36285 0.86379 0.48151 0.0
C461 C 0.3945 0.85628 0.48525 0.0
C462 C 0.37647 0.80937 0.48448 0.0
C463 C 0.39725 0.79822 0.46769 0.0
C464 C 0.38187 0.79392 0.50496 0.0
C465 C 0.33025 0.79187 0.47972 0.0
C466 C 0.32358 0.82439 0.47806 0.0
C467 C 0.2841 0.81696 0.47366 0.0
C468 C 0.25123 0.77668 0.47074 0.0
C469 C 0.25542 0.74133 0.47202 0.0
C470 C 0.29675 0.75022 0.47692 0.0
H471 H 0.63531 0.43472 0.81685 0.0
H472 H 0.50669 0.38669 0.82869 0.0
H473 H 0.49523 0.31768 0.82406 0.0
H474 H 0.62702 0.36074 0.77889 0.0
H475 H 0.66877 0.35509 0.78807 0.0
H476 H 0.66813 0.40161 0.79238 0.0
H477 H 0.67541 0.39481 0.83048 0.0
H478 H 0.67506 0.34749 0.8269 0.0
H479 H 0.63875 0.35 0.84346 0.0
H480 H 0.49619 0.24909 0.8183 0.0
H481 H 0.50933 0.19283 0.81169 0.0
H482 H 0.63714 0.27895 0.80259 0.0
C483 C 0.60454 0.40988 0.81844 0.0
C484 C 0.57194 0.41856 0.82328 0.0
C485 C 0.53279 0.38324 0.82515 0.0
C486 C 0.52577 0.34293 0.82246 0.0
C487 C 0.55792 0.33564 0.81778 0.0
C488 C 0.59677 0.36832 0.81583 0.0
C489 C 0.62595 0.35118 0.81141 0.0
C490 C 0.64887 0.36819 0.79151 0.0
C491 C 0.65567 0.36156 0.82906 0.0
C492 C 0.59752 0.30442 0.81007 0.0
C493 C 0.5584 0.29638 0.81432 0.0
C494 C 0.52694 0.25581 0.81493 0.0
C495 C 0.53494 0.22323 0.81119 0.0
C496 C 0.57441 0.22907 0.80641 0.0
C497 C 0.60616 0.27151 0.80588 0.0
H498 H 0.56137 0.79263 0.53089 0.0
H499 H 0.61123 0.82508 0.47056 0.0
H500 H 0.63155 0.77291 0.47183 0.0
H501 H 0.63825 0.79012 0.55068 0.0
H502 H 0.61201 0.7478 0.56753 0.0
H503 H 0.58796 0.77603 0.5598 0.0
H504 H 0.52606 0.71111 0.54607 0.0
H505 H 0.54942 0.68214 0.55425 0.0
H506 H 0.53391 0.67955 0.52838 0.0
H507 H 0.66446 0.73448 0.48307 0.0
H508 H 0.70156 0.70772 0.50223 0.0
H509 H 0.63002 0.698 0.55539 0.0
C510 C 0.57484 0.78732 0.51762 0.0
C511 C 0.5847 0.81278 0.50065 0.0
C512 C 0.60273 0.80547 0.4836 0.0
C513 C 0.61456 0.77593 0.48422 0.0
C514 C 0.60751 0.75358 0.50186 0.0
C515 C 0.58707 0.75815 0.51811 0.0
C516 C 0.58932 0.73565 0.53642 0.0
C517 C 0.60802 0.76412 0.55465 0.0
C518 C 0.54717 0.69998 0.54157 0.0
C519 C 0.61732 0.72097 0.52849 0.0
C520 C 0.62658 0.73065 0.50838 0.0
C521 C 0.65624 0.72528 0.49858 0.0
C522 C 0.67725 0.71007 0.50964 0.0
C523 C 0.66865 0.70054 0.53035 0.0
C524 C 0.63744 0.70507 0.53962 0.0
H525 H 0.73663 0.44149 0.81269 0.0
H526 H 0.82708 0.54741 0.78076 0.0
H527 H 0.87315 0.51936 0.78062 0.0
H528 H 0.79699 0.44071 0.84677 0.0
H529 H 0.77655 0.38691 0.84928 0.0
H530 H 0.74499 0.40608 0.83999 0.0
H531 H 0.73098 0.36312 0.80663 0.0
H532 H 0.76105 0.34301 0.81744 0.0
H533 H 0.77344 0.36631 0.79289 0.0
H534 H 0.91563 0.4918 0.79198 0.0
H535 H 0.95139 0.47009 0.81514 0.0
H536 H 0.83633 0.38286 0.8419 0.0
C537 C 0.76563 0.45814 0.80511 0.0
C538 C 0.77808 0.49669 0.79679 0.0
C539 C 0.81626 0.51749 0.78693 0.0
C540 C 0.84278 0.5017 0.78675 0.0
C541 C 0.83071 0.46495 0.79639 0.0
C542 C 0.79273 0.4431 0.80521 0.0
C543 C 0.79017 0.40904 0.81808 0.0
C544 C 0.77641 0.41086 0.83979 0.0
C545 C 0.76225 0.36792 0.8082 0.0
C546 C 0.83402 0.41853 0.81727 0.0
C547 C 0.85626 0.4493 0.80371 0.0
C548 C 0.89834 0.46683 0.80214 0.0
C549 C 0.91845 0.45413 0.81541 0.0
C550 C 0.89657 0.42458 0.83033 0.0
C551 C 0.85369 0.40528 0.83055 0.0
H552 H 0.30192 0.80229 0.19461 0.0
H553 H 0.28149 0.8184 0.13185 0.0
H554 H 0.33026 0.89141 0.13472 0.0
H555 H 0.30224 0.8843 0.21278 0.0
H556 H 0.34208 0.89865 0.23116 0.0
H557 H 0.31276 0.8468 0.22338 0.0
H558 H 0.37838 0.84599 0.21279 0.0
H559 H 0.40822 0.89773 0.22102 0.0
H560 H 0.41367 0.88392 0.19566 0.0
H561 H 0.36992 0.96326 0.14619 0.0
H562 H 0.40249 1.02807 0.16458 0.0
H563 H 0.40027 0.96477 0.21939 0.0
C564 C 0.30913 0.82079 0.18121 0.0
C565 C 0.28793 0.8047 0.16301 0.0
C566 C 0.29724 0.83021 0.14598 0.0
C567 C 0.32503 0.87166 0.14744 0.0
C568 C 0.34376 0.88695 0.16593 0.0
C569 C 0.33692 0.86215 0.1824 0.0
C570 C 0.35769 0.88651 0.20105 0.0
C571 C 0.32684 0.87858 0.21808 0.0
C572 C 0.39151 0.87804 0.20804 0.0
C573 C 0.37522 0.92889 0.19278 0.0
C574 C 0.36738 0.92857 0.17245 0.0
C575 C 0.37731 0.96399 0.16198 0.0
C576 C 0.39582 1.00069 0.17258 0.0
C577 C 0.40411 1.00168 0.19346 0.0
C578 C 0.39411 0.96519 0.2035 0.0
H579 H 0.63411 0.29007 0.53545 0.0
H580 H 0.66037 0.30124 0.47137 0.0
H581 H 0.71829 0.37022 0.47694 0.0
H582 H 0.65636 0.39137 0.54354 0.0
H583 H 0.67766 0.39424 0.56817 0.0
H584 H 0.63926 0.3463 0.55849 0.0
H585 H 0.68791 0.31736 0.56423 0.0
H586 H 0.72696 0.36567 0.57338 0.0
H587 H 0.73747 0.34167 0.55254 0.0
H588 H 0.77486 0.43788 0.49029 0.0
H589 H 0.81712 0.50134 0.50902 0.0
H590 H 0.75097 0.44364 0.56386 0.0
C591 C 0.65215 0.30687 0.52256 0.0
C592 C 0.64314 0.29014 0.50303 0.0
C593 C 0.6667 0.31359 0.48648 0.0
C594 C 0.69988 0.35257 0.48953 0.0
C595 C 0.70884 0.36746 0.50919 0.0
C596 C 0.68513 0.34546 0.52534 0.0
C597 C 0.69954 0.36857 0.54486 0.0
C598 C 0.66624 0.37555 0.55431 0.0
C599 C 0.71382 0.34702 0.55962 0.0
C600 C 0.73491 0.40742 0.53723 0.0
C601 C 0.74041 0.40612 0.51671 0.0
C602 C 0.77066 0.43923 0.50636 0.0
C603 C 0.79449 0.47517 0.51714 0.0
C604 C 0.78745 0.47781 0.53798 0.0
C605 C 0.75812 0.44283 0.54812 0.0
H606 H 0.39838 0.61407 0.87374 0.0
H607 H 0.37033 0.58304 0.81073 0.0
H608 H 0.32233 0.609 0.81159 0.0
H609 H 0.30675 0.576 0.88964 0.0
H610 H 0.31287 0.61315 0.90828 0.0
H611 H 0.35562 0.60775 0.90115 0.0
H612 H 0.3961 0.6836 0.8916 0.0
H613 H 0.35315 0.68932 0.89884 0.0
H614 H 0.37483 0.7041 0.87398 0.0
H615 H 0.2637 0.6149 0.82144 0.0
H616 H 0.20108 0.60002 0.83908 0.0
H617 H 0.26612 0.63231 0.89594 0.0
C618 C 0.38321 0.61431 0.85997 0.0
C619 C 0.3879 0.59652 0.84222 0.0
C620 C 0.36762 0.59704 0.82444 0.0
C621 C 0.34033 0.61189 0.82478 0.0
C622 C 0.33417 0.62674 0.84291 0.0
C623 C 0.35574 0.62891 0.86014 0.0
C624 C 0.33817 0.63857 0.8785 0.0
C625 C 0.3277 0.60696 0.89534 0.0
C626 C 0.3673 0.68146 0.88618 0.0
C627 C 0.3004 0.63624 0.86936 0.0
C628 C 0.29959 0.63116 0.84867 0.0
C629 C 0.26458 0.62048 0.83748 0.0
C630 C 0.22888 0.61216 0.84774 0.0
C631 C 0.22836 0.61458 0.86905 0.0
C632 C 0.26539 0.62975 0.87968 0.0
H633 H 0.86528 0.40935 0.18515 0.0
H634 H 0.83198 0.33306 0.13204 0.0
H635 H 0.76214 0.32253 0.13422 0.0
H636 H 0.78336 0.35011 0.21232 0.0
H637 H 0.77738 0.38918 0.22462 0.0
H638 H 0.82653 0.39996 0.21569 0.0
H639 H 0.83205 0.45942 0.19383 0.0
H640 H 0.78314 0.44893 0.20355 0.0
H641 H 0.79136 0.4502 0.17678 0.0
H642 H 0.69454 0.3081 0.14625 0.0
H643 H 0.63474 0.2876 0.16776 0.0
H644 H 0.71065 0.37403 0.21323 0.0
C645 C 0.8434 0.39093 0.17379 0.0
C646 C 0.85379 0.37164 0.15855 0.0
C647 C 0.82466 0.34827 0.14378 0.0
C648 C 0.78503 0.34239 0.14483 0.0
C649 C 0.77534 0.36068 0.16053 0.0
C650 C 0.80388 0.38483 0.17465 0.0
C651 C 0.78459 0.39588 0.19175 0.0
C652 C 0.79347 0.38297 0.21228 0.0
C653 C 0.79864 0.44131 0.19145 0.0
C654 C 0.74019 0.37104 0.18604 0.0
C655 C 0.73565 0.35227 0.16758 0.0
C656 C 0.69763 0.32356 0.1604 0.0
C657 C 0.66364 0.31222 0.17278 0.0
C658 C 0.66787 0.32927 0.19226 0.0
C659 C 0.70641 0.36053 0.19842 0.0
H660 H 1.04282 0.55061 0.0973 0.0
H661 H 0.0998 0.48283 0.1187 0.0
H662 H 0.07926 0.44211 0.08754 0.0
H663 H 0.95745 0.46666 0.0703 0.0
H664 H 0.95951 0.4986 0.04978 0.0
H665 H 0.97436 0.51937 0.07477 0.0
H666 H 1.04467 0.57381 0.06117 0.0
H667 H 1.02984 0.55354 0.03618 0.0
H668 H 0.07554 0.55822 0.04716 0.0
H669 H 1.05781 0.41268 0.05333 0.0
H670 H 1.042 0.40043 0.01704 0.0
H671 H 0.99996 0.48788 0.0173 0.0
C672 C 1.05054 0.52689 0.09546 0.0
C673 C 0.0723 0.51934 0.11046 0.0
C674 C 0.08249 0.48855 0.10749 0.0
C675 C 0.07086 0.4652 0.08989 0.0
C676 C 1.04916 0.47315 0.07539 0.0
C677 C 1.03933 0.50342 0.07789 0.0
C678 C 1.01902 0.50809 0.05924 0.0
C679 C 0.97496 0.49754 0.0638 0.0
C680 C 1.04376 0.55094 0.05042 0.0
C681 C 1.02031 0.4767 0.04562 0.0
C682 C 1.03709 0.45636 0.0554 0.0
C683 C 1.04415 0.428 0.04556 0.0
C684 C 1.03512 0.42126 0.02499 0.0
C685 C 1.0195 0.44298 0.01448 0.0
C686 C 1.01089 0.47012 0.0251 0.0
H687 H 0.61884 0.10655 0.43387 0.0
H688 H 0.50235 0.99839 0.44305 0.0
H689 H 0.4779 1.0099 0.41058 0.0
H690 H 0.57611 0.16471 0.41388 0.0
H691 H 0.61664 0.1923 0.39609 0.0
H692 H 0.62673 0.17375 0.41907 0.0
H693 H 0.65548 0.13543 0.39852 0.0
H694 H 0.64565 0.15398 0.37544 0.0
H695 H 0.62466 0.1004 0.37916 0.0
H696 H 0.46637 1.03227 0.37745 0.0
H697 H 0.46578 0.06654 0.34633 0.0
H698 H 0.58693 0.16526 0.3601 0.0
C699 C 0.58853 0.08504 0.42874 0.0
C700 C 0.56259 0.05118 0.44056 0.0
C701 C 0.52263 1.02423 0.43394 0.0
C702 C 0.50856 1.0305 0.41558 0.0
C703 C 0.53459 0.06437 0.40429 0.0
C704 C 0.57354 0.0915 0.41064 0.0
C705 C 0.59395 0.12702 0.39628 0.0
C706 C 0.60393 0.16679 0.40697 0.0
C707 C 0.6322 0.12932 0.38679 0.0
C708 C 0.56048 0.11532 0.38082 0.0
C709 C 0.52677 0.07887 0.38569 0.0
C710 C 0.49233 0.06116 0.37359 0.0
C711 C 0.49217 0.08127 0.356 0.0
C712 C 0.52595 0.11927 0.35077 0.0
C713 C 0.56058 0.13632 0.36347 0.0
H714 H 0.61462 0.59518 0.77347 0.0
H715 H 0.55551 0.46428 0.77267 0.0
H716 H 0.59334 0.46705 0.74168 0.0
H717 H 0.61195 0.60652 0.71963 0.0
H718 H 0.66048 0.65231 0.7186 0.0
H719 H 0.62974 0.64009 0.74104 0.0
H720 H 0.68955 0.64475 0.76252 0.0
H721 H 0.72017 0.65822 0.73997 0.0
H722 H 0.71341 0.61587 0.75486 0.0
H723 H 0.63775 0.48403 0.71114 0.0
H724 H 0.68171 0.51358 0.68136 0.0
H725 H 0.71174 0.63374 0.70173 0.0
C726 C 0.60974 0.56719 0.7667 0.0
C727 C 0.58239 0.52951 0.77536 0.0
C728 C 0.57628 0.4934 0.76612 0.0
C729 C 0.59779 0.4947 0.74864 0.0
C730 C 0.6249 0.53236 0.74054 0.0
C731 C 0.63063 0.56795 0.74912 0.0
C732 C 0.66025 0.60431 0.73689 0.0
C733 C 0.63934 0.62714 0.72854 0.0
C734 C 0.69807 0.63245 0.74932 0.0
C735 C 0.67057 0.58359 0.72021 0.0
C736 C 0.65001 0.54212 0.72268 0.0
C737 C 0.65417 0.51648 0.70907 0.0
C738 C 0.67955 0.53361 0.6923 0.0
C739 C 0.70044 0.57602 0.68923 0.0
C740 C 0.69608 0.60122 0.70357 0.0
H741 H 0.57494 0.09932 0.56677 0.0
H742 H 0.56648 0.98507 0.5506 0.0
H743 H 0.57272 0.97182 0.58648 0.0
H744 H 0.64943 0.12367 0.60825 0.0
H745 H 0.62691 0.14635 0.62381 0.0
H746 H 0.62382 0.14785 0.59675 0.0
H747 H 0.54548 0.11416 0.59929 0.0
H748 H 0.54829 0.11216 0.62633 0.0
H749 H 0.51732 0.06653 0.61224 0.0
H750 H 0.57386 0.96805 0.6246 0.0
H751 H 0.57604 0.97604 0.66127 0.0
H752 H 0.58862 0.09531 0.65411 0.0
C753 C 0.57536 0.07196 0.57079 0.0
C754 C 0.57153 0.04376 0.5556 0.0
C755 C 0.57103 1.00786 0.56164 0.0
C756 C 0.57402 0.99984 0.58213 0.0
C757 C 0.57764 1.02805 0.5967 0.0
C758 C 0.57892 0.06373 0.59131 0.0
C759 C 0.58288 0.08877 0.61011 0.0
C760 C 0.62316 0.12905 0.6097 0.0
C761 C 0.54631 0.09581 0.6121 0.0
C762 C 0.58285 0.06131 0.62691 0.0
C763 C 0.57961 1.0264 0.61874 0.0
C764 C 0.57735 0.99573 0.63107 0.0
C765 C 0.57906 1.00089 0.65215 0.0
C766 C 0.5837 0.03686 0.66127 0.0
C767 C 0.58523 0.06733 0.64813 0.0
H768 H 0.64137 0.59818 0.8992 0.0
H769 H 0.53411 0.48587 0.88269 0.0
H770 H 0.51769 0.46967 0.91879 0.0
H771 H 0.66839 0.55741 0.94228 0.0
H772 H 0.68619 0.60248 0.95735 0.0
H773 H 0.68898 0.60609 0.93026 0.0
H774 H 0.64774 0.64379 0.93082 0.0
H775 H 0.64486 0.64033 0.95791 0.0
H776 H 0.59892 0.62097 0.94324 0.0
H777 H 0.51197 0.46602 0.95717 0.0
H778 H 0.51895 0.47338 0.99412 0.0
H779 H 0.63185 0.58641 0.98681 0.0
C780 C 0.61431 0.57022 0.90317 0.0
C781 C 0.58878 0.54348 0.88785 0.0
C782 C 0.55401 0.50707 0.89391 0.0
C783 C 0.54446 0.49757 0.91449 0.0
C784 C 0.57015 0.52446 0.92916 0.0
C785 C 0.6046 0.55995 0.92377 0.0
C786 C 0.62764 0.58305 0.94261 0.0
C787 C 0.67034 0.58752 0.94315 0.0
C788 C 0.62992 0.6245 0.9437 0.0
C789 C 0.60075 0.55518 0.95942 0.0
C790 C 0.56758 0.5217 0.95125 0.0
C791 C 0.53794 0.49211 0.96363 0.0
C792 C 0.5421 0.49669 0.98474 0.0
C793 C 0.57589 0.53048 0.99372 0.0
C794 C 0.60576 0.55998 0.98065 0.0
H795 H 0.11841 0.51686 0.23692 0.0
H796 H 1.03621 0.55968 0.21873 0.0
H797 H 1.02377 0.56827 0.25462 0.0
H798 H 0.06377 0.46168 0.28065 0.0
H799 H 0.10834 0.4758 0.29578 0.0
H800 H 0.11136 0.4736 0.26875 0.0
H801 H 0.16993 0.54774 0.26815 0.0
H802 H 0.16724 0.55012 0.2952 0.0
H803 H 0.16261 0.58658 0.27977 0.0
H804 H 1.01651 0.5676 0.29313 0.0
H805 H 1.01999 0.5641 0.33023 0.0
H806 H 0.11052 0.52628 0.32415 0.0
C807 C 0.09805 0.5284 0.24048 0.0
C808 C 0.07822 0.53752 0.22479 0.0
C809 C 1.05191 0.55259 0.23027 0.0
C810 C 1.04454 0.55742 0.25072 0.0
C811 C 0.06412 0.54769 0.26578 0.0
C812 C 0.09088 0.53409 0.26089 0.0
C813 C 0.10848 0.52636 0.27999 0.0
C814 C 0.09732 0.48171 0.28137 0.0
C815 C 0.15482 0.55437 0.28082 0.0
C816 C 0.08709 0.53715 0.29641 0.0
C817 C 0.06133 0.54904 0.28785 0.0
C818 C 1.03696 0.55875 0.29989 0.0
C819 C 1.03901 0.5565 0.32105 0.0
C820 C 0.06564 0.54515 0.33036 0.0
C821 C 0.09017 0.53557 0.31767 0.0
loop_
_geom_bond_atom_site_label_1
_geom_bond_atom_site_label_2
_geom_bond_distance
_geom_bond_site_symmetry_2
_ccdc_geom_bond_type
Tb0 C2 2.809 . S
Tb0 O20 2.484 . S
Tb0 O21 2.440 . S
Tb0 O22 2.658 . S
Tb0 O23 2.409 . S
Tb0 O24 2.378 . S
Tb0 O28 2.325 . S
Tb0 O31 2.341 1_455 S
Tb1 C11 2.809 . S
Tb1 O22 2.325 1_655 S
Tb1 O25 2.341 1_655 S
Tb1 O26 2.484 . S
Tb1 O27 2.440 . S
Tb1 O28 2.658 1_655 S
Tb1 O29 2.409 1_655 S
Tb1 O30 2.378 . S
C2 Tb0 2.809 . S
C2 C3 1.514 . S
C2 O20 1.248 . S
C2 O21 1.266 . S
C3 C2 1.514 . S
C3 C4 1.359 . S
C3 C8 1.348 . S
C4 C3 1.359 . S
C4 C5 1.380 . S
C4 H32 0.929 . S
C5 C4 1.380 . S
C5 C6 1.347 . S
C5 H33 0.931 . S
C6 C5 1.347 . S
C6 C7 1.369 . S
C7 C6 1.369 . S
C7 C8 1.408 . S
C7 H34 0.930 . S
C8 C3 1.348 . S
C8 C7 1.408 . S
C8 H35 0.930 . S
C9 O22 1.281 . S
C9 O23 1.254 . S
C10 O24 1.236 . S
C10 O25 1.266 . S
C11 Tb1 2.809 . S
C11 C12 1.514 . S
C11 O26 1.248 . S
C11 O27 1.266 . S
C12 C11 1.514 . S
C12 C13 1.359 . S
C12 C17 1.348 . S
C13 C12 1.359 . S
C13 C14 1.380 . S
C13 H36 0.929 . S
C14 C13 1.380 . S
C14 C15 1.347 . S
C14 H37 0.931 . S
C15 C14 1.347 . S
C15 C16 1.369 . S
C16 C15 1.369 . S
C16 C17 1.408 . S
C16 H38 0.930 . S
C17 C12 1.348 . S
C17 C16 1.408 . S
C17 H39 0.930 . S
C18 O28 1.281 . S
C18 O29 1.254 . S
C19 O30 1.236 . S
C19 O31 1.266 . S
O20 Tb0 2.484 . S
O20 C2 1.248 . S
O21 Tb0 2.440 . S
O21 C2 1.266 . S
O22 Tb0 2.658 . S
O22 Tb1 2.325 1_455 S
O22 C9 1.281 . S
O23 Tb0 2.409 . S
O23 C9 1.254 . S
O24 Tb0 2.378 . S
O24 C10 1.236 . S
O25 Tb1 2.341 1_455 S
O25 C10 1.266 . S
O26 Tb1 2.484 . S
O26 C11 1.248 . S
O27 Tb1 2.440 . S
O27 C11 1.266 . S
O28 Tb0 2.325 . S
O28 Tb1 2.658 1_455 S
O28 C18 1.281 . S
O29 Tb1 2.409 1_455 S
O29 C18 1.254 . S
O30 Tb1 2.378 . S
O30 C19 1.236 . S
O31 Tb0 2.341 1_655 S
O31 C19 1.266 . S
H32 C4 0.929 . S
H33 C5 0.931 . S
H34 C7 0.930 . S
H35 C8 0.930 . S
H36 C13 0.929 . S
H37 C14 0.931 . S
H38 C16 0.930 . S
H39 C17 0.930 . S
Tb40 C42 2.801 1_545 S
Tb40 O60 2.478 1_545 S
Tb40 O61 2.433 1_545 S
Tb40 O62 2.665 . S
Tb40 O63 2.410 . S
Tb40 O64 2.377 1_545 S
Tb40 O68 2.329 . S
Tb40 O71 2.348 . S
Tb41 C51 2.809 . S
Tb41 O62 2.325 . S
Tb41 O65 2.341 1_545 S
Tb41 O66 2.484 . S
Tb41 O67 2.440 . S
Tb41 O68 2.658 . S
Tb41 O69 2.409 . S
Tb41 O70 2.378 . S
C42 Tb40 2.801 1_565 S
C42 C43 1.514 . S
C42 O60 1.248 . S
C42 O61 1.266 . S
C43 C42 1.514 . S
C43 C44 1.359 . S
C43 C48 1.348 . S
C44 C43 1.359 . S
C44 C45 1.380 . S
C44 H72 0.929 . S
C45 C44 1.380 . S
C45 C46 1.347 . S
C45 H73 0.931 . S
C46 C45 1.347 . S
C46 C47 1.369 . S
C47 C46 1.369 . S
C47 C48 1.408 . S
C47 H74 0.930 . S
C48 C43 1.348 . S
C48 C47 1.408 . S
C48 H75 0.930 . S
C49 O62 1.281 . S
C49 O63 1.254 . S
C50 O64 1.236 . S
C50 O65 1.266 . S
C51 Tb41 2.809 . S
C51 C52 1.514 . S
C51 O66 1.248 . S
C51 O67 1.266 . S
C52 C51 1.514 . S
C52 C53 1.359 . S
C52 C57 1.348 . S
C53 C52 1.359 . S
C53 C54 1.380 . S
C53 H76 0.929 . S
C54 C53 1.380 . S
C54 C55 1.347 . S
C54 H77 0.931 . S
C55 C54 1.347 . S
C55 C56 1.369 . S
C56 C55 1.369 . S
C56 C57 1.408 . S
C56 H78 0.930 . S
C57 C52 1.348 . S
C57 C56 1.408 . S
C57 H79 0.930 . S
C58 O68 1.281 . S
C58 O69 1.254 . S
C59 O70 1.236 . S
C59 O71 1.266 . S
O60 Tb40 2.478 1_565 S
O60 C42 1.248 . S
O61 Tb40 2.433 1_565 S
O61 C42 1.266 . S
O62 Tb40 2.665 . S
O62 Tb41 2.325 . S
O62 C49 1.281 . S
O63 Tb40 2.410 . S
O63 C49 1.254 . S
O64 Tb40 2.377 1_565 S
O64 C50 1.236 . S
O65 Tb41 2.341 1_565 S
O65 C50 1.266 . S
O66 Tb41 2.484 . S
O66 C51 1.248 . S
O67 Tb41 2.440 . S
O67 C51 1.266 . S
O68 Tb40 2.329 . S
O68 Tb41 2.658 . S
O68 C58 1.281 . S
O69 Tb41 2.409 . S
O69 C58 1.254 . S
O70 Tb41 2.378 . S
O70 C59 1.236 . S
O71 Tb40 2.348 . S
O71 C59 1.266 . S
H72 C44 0.929 . S
H73 C45 0.931 . S
H74 C47 0.930 . S
H75 C48 0.930 . S
H76 C53 0.929 . S
H77 C54 0.931 . S
H78 C56 0.930 . S
H79 C57 0.930 . S
Tb80 C82 2.809 . S
Tb80 O100 2.484 . S
Tb80 O101 2.440 . S
Tb80 O102 2.658 . S
Tb80 O103 2.409 . S
Tb80 O104 2.378 . S
Tb80 O108 2.325 . S
Tb80 O111 2.341 . S
Tb81 C91 2.809 . S
Tb81 O102 2.325 . S
Tb81 O105 2.341 . S
Tb81 O106 2.484 . S
Tb81 O107 2.440 . S
Tb81 O108 2.658 . S
Tb81 O109 2.409 . S
Tb81 O110 2.378 . S
C82 Tb80 2.809 . S
C82 C83 1.514 . S
C82 O100 1.248 . S
C82 O101 1.266 . S
C83 C82 1.514 . S
C83 C84 1.359 . S
C83 C88 1.348 . S
C84 C83 1.359 . S
C84 C85 1.380 . S
C84 H112 0.929 . S
C85 C84 1.380 . S
C85 C86 1.347 . S
C85 H113 0.931 . S
C86 C85 1.347 . S
C86 C87 1.369 . S
C87 C86 1.369 . S
C87 C88 1.408 . S
C87 H114 0.930 . S
C88 C83 1.348 . S
C88 C87 1.408 . S
C88 H115 0.930 . S
C89 O102 1.281 . S
C89 O103 1.254 . S
C90 O104 1.236 . S
C90 O105 1.266 . S
C91 Tb81 2.809 . S
C91 C92 1.514 . S
C91 O106 1.248 . S
C91 O107 1.266 . S
C92 C91 1.514 . S
C92 C93 1.359 . S
C92 C97 1.348 . S
C93 C92 1.359 . S
C93 C94 1.380 . S
C93 H116 0.929 . S
C94 C93 1.380 . S
C94 C95 1.347 . S
C94 H117 0.931 . S
C95 C94 1.347 . S
C95 C96 1.369 . S
C96 C95 1.369 . S
C96 C97 1.408 . S
C96 H118 0.930 . S
C97 C92 1.348 . S
C97 C96 1.408 . S
C97 H119 0.930 . S
C98 O108 1.281 . S
C98 O109 1.254 . S
C99 O110 1.236 . S
C99 O111 1.266 . S
O100 Tb80 2.484 . S
O100 C82 1.248 . S
O101 Tb80 2.440 . S
O101 C82 1.266 . S
O102 Tb80 2.658 . S
O102 Tb81 2.325 . S
O102 C89 1.281 . S
O103 Tb80 2.409 . S
O103 C89 1.254 . S
O104 Tb80 2.378 . S
O104 C90 1.236 . S
O105 Tb81 2.341 . S
O105 C90 1.266 . S
O106 Tb81 2.484 . S
O106 C91 1.248 . S
O107 Tb81 2.440 . S
O107 C91 1.266 . S
O108 Tb80 2.325 . S
O108 Tb81 2.658 . S
O108 C98 1.281 . S
O109 Tb81 2.409 . S
O109 C98 1.254 . S
O110 Tb81 2.378 . S
O110 C99 1.236 . S
O111 Tb80 2.341 . S
O111 C99 1.266 . S
H112 C84 0.929 . S
H113 C85 0.931 . S
H114 C87 0.930 . S
H115 C88 0.930 . S
H116 C93 0.929 . S
H117 C94 0.931 . S
H118 C96 0.930 . S
H119 C97 0.930 . S
C120 C121 1.384 . S
C120 H133 0.947 . S
C120 C155 1.382 . S
C121 C120 1.384 . S
C121 C122 1.378 . S
C122 C121 1.378 . S
C122 C123 1.378 . S
C122 H134 0.952 . S
C123 C122 1.378 . S
C123 H135 0.948 1_565 S
C123 C154 1.383 . S
H124 C143 0.947 . S
H125 C144 0.946 . S
H126 C146 0.953 . S
H127 C147 0.945 . S
H128 C149 0.952 . S
H129 C150 0.949 . S
H130 C152 0.950 1_565 S
H131 C153 0.948 1_565 S
H132 C155 0.951 . S
H133 C120 0.947 . S
H134 C122 0.952 . S
H135 C123 0.948 1_545 S
N136 C139 1.382 . S
N136 C141 1.363 . S
N137 C139 1.371 . S
N137 C140 1.372 . S
N138 C140 1.361 . S
N138 C141 1.377 . S
C139 N136 1.382 . S
C139 N137 1.371 . S
C139 C142 1.480 . S
C140 N137 1.372 . S
C140 N138 1.361 . S
C140 C148 1.457 . S
C141 N136 1.363 . S
C141 N138 1.377 . S
C141 C154 1.479 1_545 S
C142 C139 1.480 . S
C142 C143 1.383 . S
C142 C147 1.385 . S
C143 H124 0.947 . S
C143 C142 1.383 . S
C143 C144 1.388 . S
C144 H125 0.946 . S
C144 C143 1.388 . S
C144 C145 1.384 . S
C145 C144 1.384 . S
C145 C146 1.377 . S
C146 H126 0.953 . S
C146 C145 1.377 . S
C146 C147 1.369 . S
C147 H127 0.945 . S
C147 C142 1.385 . S
C147 C146 1.369 . S
C148 C140 1.457 . S
C148 C149 1.372 . S
C148 C153 1.364 . S
C149 H128 0.952 . S
C149 C148 1.372 . S
C149 C150 1.389 . S
C150 H129 0.949 . S
C150 C149 1.389 . S
C150 C151 1.387 . S
C151 C150 1.387 . S
C151 C152 1.372 . S
C152 H130 0.950 1_545 S
C152 C151 1.372 . S
C152 C153 1.379 . S
C153 H131 0.948 1_545 S
C153 C148 1.364 . S
C153 C152 1.379 . S
C154 C123 1.383 . S
C154 C141 1.479 1_565 S
C154 C155 1.398 . S
C155 C120 1.382 . S
C155 H132 0.951 . S
C155 C154 1.398 . S
C156 C157 1.384 . S
C156 H169 0.947 . S
C156 C191 1.382 . S
C157 C156 1.384 . S
C157 C158 1.378 . S
C158 C157 1.378 . S
C158 C159 1.378 . S
C158 H170 0.952 . S
C159 C158 1.378 . S
C159 H171 0.950 . S
C159 C190 1.383 . S
H160 C179 0.947 . S
H161 C180 0.946 . S
H162 C182 0.953 . S
H163 C183 0.945 . S
H164 C185 0.952 . S
H165 C186 0.949 . S
H166 C188 0.950 . S
H167 C189 0.948 . S
H168 C191 0.951 . S
H169 C156 0.947 . S
H170 C158 0.952 . S
H171 C159 0.950 . S
N172 C175 1.382 . S
N172 C177 1.363 . S
N173 C175 1.371 . S
N173 C176 1.372 . S
N174 C176 1.361 . S
N174 C177 1.377 . S
C175 N172 1.382 . S
C175 N173 1.371 . S
C175 C178 1.480 . S
C176 N173 1.372 . S
C176 N174 1.361 . S
C176 C184 1.457 . S
C177 N172 1.363 . S
C177 N174 1.377 . S
C177 C190 1.479 . S
C178 C175 1.480 . S
C178 C179 1.383 . S
C178 C183 1.385 . S
C179 H160 0.947 . S
C179 C178 1.383 . S
C179 C180 1.388 . S
C180 H161 0.946 . S
C180 C179 1.388 . S
C180 C181 1.384 . S
C181 C180 1.384 . S
C181 C182 1.377 . S
C182 H162 0.953 . S
C182 C181 1.377 . S
C182 C183 1.369 . S
C183 H163 0.945 . S
C183 C178 1.385 . S
C183 C182 1.369 . S
C184 C176 1.457 . S
C184 C185 1.372 . S
C184 C189 1.364 . S
C185 H164 0.952 . S
C185 C184 1.372 . S
C185 C186 1.389 . S
C186 H165 0.949 . S
C186 C185 1.389 . S
C186 C187 1.387 . S
C187 C186 1.387 . S
C187 C188 1.372 . S
C188 H166 0.950 . S
C188 C187 1.372 . S
C188 C189 1.379 . S
C189 H167 0.948 . S
C189 C184 1.364 . S
C189 C188 1.379 . S
C190 C159 1.383 . S
C190 C177 1.479 . S
C190 C191 1.398 . S
C191 C156 1.382 . S
C191 H168 0.951 . S
C191 C190 1.398 . S
C192 C193 1.384 . S
C192 H205 0.947 . S
C192 C227 1.382 . S
C193 C192 1.384 . S
C193 C194 1.378 . S
C194 C193 1.378 . S
C194 C195 1.378 . S
C194 H206 0.952 . S
C195 C194 1.378 . S
C195 H207 0.950 . S
C195 C226 1.383 . S
H196 C215 0.947 . S
H197 C216 0.946 . S
H198 C218 0.953 . S
H199 C219 0.945 . S
H200 C221 0.952 . S
H201 C222 0.949 . S
H202 C224 0.950 . S
H203 C225 0.948 . S
H204 C227 0.951 . S
H205 C192 0.947 . S
H206 C194 0.952 . S
H207 C195 0.950 . S
N208 C211 1.382 1_655 S
N208 C213 1.363 . S
N209 C211 1.371 . S
N209 C212 1.401 . S
N210 C212 1.332 1_655 S
N210 C213 1.377 . S
C211 N208 1.382 1_455 S
C211 N209 1.371 . S
C211 C214 1.480 . S
C212 N209 1.401 . S
C212 N210 1.332 1_455 S
C212 C220 1.457 . S
C213 N208 1.363 . S
C213 N210 1.377 . S
C213 C226 1.479 . S
C214 C211 1.480 . S
C214 C215 1.383 . S
C214 C219 1.385 . S
C215 H196 0.947 . S
C215 C214 1.383 . S
C215 C216 1.388 . S
C216 H197 0.946 . S
C216 C215 1.388 . S
C216 C217 1.384 . S
C217 C216 1.384 . S
C217 C218 1.377 . S
C218 H198 0.953 . S
C218 C217 1.377 . S
C218 C219 1.369 . S
C219 H199 0.945 . S
C219 C214 1.385 . S
C219 C218 1.369 . S
C220 C212 1.457 . S
C220 C221 1.390 . S
C220 C225 1.346 1_455 S
C221 H200 0.952 . S
C221 C220 1.390 . S
C221 C222 1.389 . S
C222 H201 0.949 . S
C222 C221 1.389 . S
C222 C223 1.387 . S
C223 C222 1.387 . S
C223 C224 1.372 1_455 S
C224 H202 0.950 . S
C224 C223 1.372 1_655 S
C224 C225 1.379 . S
C225 H203 0.948 . S
C225 C220 1.346 1_655 S
C225 C224 1.379 . S
C226 C195 1.383 . S
C226 C213 1.479 . S
C226 C227 1.398 . S
C227 C192 1.382 . S
C227 H204 0.951 . S
C227 C226 1.398 . S
C228 C229 1.384 . S
C228 H241 0.947 . S
C228 C263 1.382 . S
C229 C228 1.384 . S
C229 C230 1.378 . S
C230 C229 1.378 . S
C230 C231 1.378 . S
C230 H242 0.952 . S
C231 C230 1.378 . S
C231 H243 0.950 . S
C231 C262 1.383 . S
H232 C251 0.947 1_455 S
H233 C252 0.946 . S
H234 C254 0.953 . S
H235 C255 0.945 . S
H236 C257 0.952 1_655 S
H237 C258 0.949 1_655 S
H238 C260 0.950 . S
H239 C261 0.948 . S
H240 C263 0.951 . S
H241 C228 0.947 . S
H242 C230 0.952 . S
H243 C231 0.950 . S
N244 C247 1.382 . S
N244 C249 1.363 . S
N245 C247 1.371 . S
N245 C248 1.372 . S
N246 C248 1.361 . S
N246 C249 1.377 . S
C247 N244 1.382 . S
C247 N245 1.371 . S
C247 C250 1.480 1_455 S
C248 N245 1.372 . S
C248 N246 1.361 . S
C248 C256 1.457 . S
C249 N244 1.363 . S
C249 N246 1.377 . S
C249 C262 1.479 . S
C250 C247 1.480 1_655 S
C250 C251 1.383 . S
C250 C255 1.385 . S
C251 H232 0.947 1_655 S
C251 C250 1.383 . S
C251 C252 1.388 . S
C252 H233 0.946 . S
C252 C251 1.388 . S
C252 C253 1.384 . S
C253 C252 1.384 . S
C253 C254 1.377 . S
C254 H234 0.953 . S
C254 C253 1.377 . S
C254 C255 1.369 . S
C255 H235 0.945 . S
C255 C250 1.385 . S
C255 C254 1.369 . S
C256 C248 1.457 . S
C256 C257 1.372 . S
C256 C261 1.364 . S
C257 H236 0.952 1_455 S
C257 C256 1.372 . S
C257 C258 1.389 . S
C258 H237 0.949 1_455 S
C258 C257 1.389 . S
C258 C259 1.387 . S
C259 C258 1.387 . S
C259 C260 1.372 . S
C260 H238 0.950 . S
C260 C259 1.372 . S
C260 C261 1.379 . S
C261 H239 0.948 . S
C261 C256 1.364 . S
C261 C260 1.379 . S
C262 C231 1.383 . S
C262 C249 1.479 . S
C262 C263 1.398 . S
C263 C228 1.382 . S
C263 H240 0.951 . S
C263 C262 1.398 . S
C264 C265 1.384 . S
C264 H277 0.947 . S
C264 C299 1.382 . S
C265 C264 1.384 . S
C265 C266 1.378 . S
C266 C265 1.378 . S
C266 C267 1.378 . S
C266 H278 0.952 . S
C267 C266 1.378 . S
C267 H279 0.950 . S
C267 C298 1.383 . S
H268 C287 0.947 . S
H269 C288 0.946 . S
H270 C290 0.953 . S
H271 C291 0.945 . S
H272 C293 0.952 . S
H273 C294 0.949 . S
H274 C296 0.950 . S
H275 C297 0.948 . S
H276 C299 0.951 . S
H277 C264 0.947 . S
H278 C266 0.952 . S
H279 C267 0.950 . S
N280 C283 1.382 1_545 S
N280 C285 1.363 . S
N281 C283 1.371 . S
N281 C284 1.372 1_565 S
N282 C284 1.361 . S
N282 C285 1.377 . S
C283 N280 1.382 1_565 S
C283 N281 1.371 . S
C283 C286 1.480 . S
C284 N281 1.372 1_545 S
C284 N282 1.361 . S
C284 C292 1.457 . S
C285 N280 1.363 . S
C285 N282 1.377 . S
C285 C298 1.479 . S
C286 C283 1.480 . S
C286 C287 1.383 . S
C286 C291 1.385 . S
C287 H268 0.947 . S
C287 C286 1.383 . S
C287 C288 1.388 . S
C288 H269 0.946 . S
C288 C287 1.388 . S
C288 C289 1.384 . S
C289 C288 1.384 . S
C289 C290 1.377 . S
C290 H270 0.953 . S
C290 C289 1.377 . S
C290 C291 1.369 . S
C291 H271 0.945 . S
C291 C286 1.385 . S
C291 C290 1.369 . S
C292 C284 1.457 . S
C292 C293 1.372 1_545 S
C292 C297 1.364 . S
C293 H272 0.952 . S
C293 C292 1.372 1_565 S
C293 C294 1.389 . S
C294 H273 0.949 . S
C294 C293 1.389 . S
C294 C295 1.387 1_565 S
C295 C294 1.387 1_545 S
C295 C296 1.372 . S
C296 H274 0.950 . S
C296 C295 1.372 . S
C296 C297 1.379 . S
C297 H275 0.948 . S
C297 C292 1.364 . S
C297 C296 1.379 . S
C298 C267 1.383 . S
C298 C285 1.479 . S
C298 C299 1.398 . S
C299 C264 1.382 . S
C299 H276 0.951 . S
C299 C298 1.398 . S
C300 C301 1.384 . S
C300 H313 0.947 . S
C300 C335 1.382 . S
C301 C300 1.384 . S
C301 C302 1.378 . S
C302 C301 1.378 . S
C302 C303 1.378 . S
C302 H314 0.952 . S
C303 C302 1.378 . S
C303 H315 0.950 . S
C303 C334 1.383 . S
H304 C323 0.947 . S
H305 C324 0.946 . S
H306 C326 0.953 . S
H307 C327 0.945 . S
H308 C329 0.952 . S
H309 C330 0.949 . S
H310 C332 0.950 . S
H311 C333 0.948 . S
H312 C335 0.951 . S
H313 C300 0.947 . S
H314 C302 0.952 . S
H315 C303 0.950 . S
N316 C319 1.382 . S
N316 C321 1.363 . S
N317 C319 1.371 . S
N317 C320 1.372 . S
N318 C320 1.361 . S
N318 C321 1.377 . S
C319 N316 1.382 . S
C319 N317 1.371 . S
C319 C322 1.480 . S
C320 N317 1.372 . S
C320 N318 1.361 . S
C320 C328 1.457 . S
C321 N316 1.363 . S
C321 N318 1.377 . S
C321 C334 1.479 . S
C322 C319 1.480 . S
C322 C323 1.383 . S
C322 C327 1.385 . S
C323 H304 0.947 . S
C323 C322 1.383 . S
C323 C324 1.388 . S
C324 H305 0.946 . S
C324 C323 1.388 . S
C324 C325 1.384 . S
C325 C324 1.384 . S
C325 C326 1.377 . S
C326 H306 0.953 . S
C326 C325 1.377 . S
C326 C327 1.369 . S
C327 H307 0.945 . S
C327 C322 1.385 . S
C327 C326 1.369 . S
C328 C320 1.457 . S
C328 C329 1.372 . S
C328 C333 1.364 . S
C329 H308 0.952 . S
C329 C328 1.372 . S
C329 C330 1.389 . S
C330 H309 0.949 . S
C330 C329 1.389 . S
C330 C331 1.387 . S
C331 C330 1.387 . S
C331 C332 1.372 . S
C332 H310 0.950 . S
C332 C331 1.372 . S
C332 C333 1.379 . S
C333 H311 0.948 . S
C333 C328 1.364 . S
C333 C332 1.379 . S
C334 C303 1.383 . S
C334 C321 1.479 . S
C334 C335 1.398 . S
C335 C300 1.382 . S
C335 H312 0.951 . S
C335 C334 1.398 . S
H336 C348 0.930 . S
H337 C350 0.930 . S
H338 C351 0.930 . S
H339 C355 0.959 . S
H340 C355 0.959 . S
H341 C355 0.961 . S
H342 C356 0.960 . S
H343 C356 0.961 . S
H344 C356 0.959 . S
H345 C359 0.929 . S
H346 C360 0.931 . S
H347 C362 0.930 . S
C348 H336 0.930 . S
C348 C349 1.399 . S
C348 C353 1.399 . S
C349 C348 1.399 . S
C349 C350 1.376 . S
C350 H337 0.930 . S
C350 C349 1.376 . S
C350 C351 1.388 . S
C351 H338 0.930 . S
C351 C350 1.388 . S
C351 C352 1.390 . S
C352 C351 1.390 . S
C352 C353 1.394 . S
C352 C358 1.465 . S
C353 C348 1.399 . S
C353 C352 1.394 . S
C353 C354 1.516 . S
C354 C353 1.516 . S
C354 C355 1.502 . S
C354 C356 1.561 . S
C354 C357 1.526 . S
C355 H339 0.959 . S
C355 H340 0.959 . S
C355 H341 0.961 . S
C355 C354 1.502 . S
C356 H342 0.960 . S
C356 H343 0.961 . S
C356 H344 0.959 . S
C356 C354 1.561 . S
C357 C354 1.526 . S
C357 C358 1.396 . S
C357 C362 1.390 . S
C358 C352 1.465 . S
C358 C357 1.396 . S
C358 C359 1.399 . S
C359 H345 0.929 . S
C359 C358 1.399 . S
C359 C360 1.385 . S
C360 H346 0.931 . S
C360 C359 1.385 . S
C360 C361 1.389 . S
C361 C360 1.389 . S
C361 C362 1.387 . S
C362 H347 0.930 . S
C362 C357 1.390 . S
C362 C361 1.387 . S
H363 C375 0.930 . S
H364 C377 0.930 . S
H365 C378 0.930 . S
H366 C382 0.959 . S
H367 C382 0.959 . S
H368 C382 0.961 . S
H369 C383 0.960 . S
H370 C383 0.961 . S
H371 C383 0.959 . S
H372 C386 0.929 . S
H373 C387 0.931 . S
H374 C389 0.930 . S
C375 H363 0.930 . S
C375 C376 1.399 . S
C375 C380 1.399 . S
C376 C375 1.399 . S
C376 C377 1.376 . S
C377 H364 0.930 . S
C377 C376 1.376 . S
C377 C378 1.388 . S
C378 H365 0.930 . S
C378 C377 1.388 . S
C378 C379 1.390 . S
C379 C378 1.390 . S
C379 C380 1.394 . S
C379 C385 1.465 . S
C380 C375 1.399 . S
C380 C379 1.394 . S
C380 C381 1.516 . S
C381 C380 1.516 . S
C381 C382 1.502 . S
C381 C383 1.561 . S
C381 C384 1.526 . S
C382 H366 0.959 . S
C382 H367 0.959 . S
C382 H368 0.961 . S
C382 C381 1.502 . S
C383 H369 0.960 . S
C383 H370 0.961 . S
C383 H371 0.959 . S
C383 C381 1.561 . S
C384 C381 1.526 . S
C384 C385 1.396 . S
C384 C389 1.390 . S
C385 C379 1.465 . S
C385 C384 1.396 . S
C385 C386 1.399 . S
C386 H372 0.929 . S
C386 C385 1.399 . S
C386 C387 1.385 . S
C387 H373 0.931 . S
C387 C386 1.385 . S
C387 C388 1.389 . S
C388 C387 1.389 . S
C388 C389 1.387 . S
C389 H374 0.930 . S
C389 C384 1.390 . S
C389 C388 1.387 . S
H390 C402 0.930 . S
H391 C404 0.930 . S
H392 C405 0.930 . S
H393 C409 0.959 . S
H394 C409 0.959 . S
H395 C409 0.961 . S
H396 C410 0.960 . S
H397 C410 0.961 . S
H398 C410 0.959 . S
H399 C413 0.929 . S
H400 C414 0.931 . S
H401 C416 0.930 . S
C402 H390 0.930 . S
C402 C403 1.399 . S
C402 C407 1.399 . S
C403 C402 1.399 . S
C403 C404 1.376 . S
C404 H391 0.930 . S
C404 C403 1.376 . S
C404 C405 1.388 . S
C405 H392 0.930 . S
C405 C404 1.388 . S
C405 C406 1.390 . S
C406 C405 1.390 . S
C406 C407 1.394 . S
C406 C412 1.465 . S
C407 C402 1.399 . S
C407 C406 1.394 . S
C407 C408 1.516 . S
C408 C407 1.516 . S
C408 C409 1.502 . S
C408 C410 1.561 . S
C408 C411 1.526 . S
C409 H393 0.959 . S
C409 H394 0.959 . S
C409 H395 0.961 . S
C409 C408 1.502 . S
C410 H396 0.960 . S
C410 H397 0.961 . S
C410 H398 0.959 . S
C410 C408 1.561 . S
C411 C408 1.526 . S
C411 C412 1.396 . S
C411 C416 1.390 . S
C412 C406 1.465 . S
C412 C411 1.396 . S
C412 C413 1.399 . S
C413 H399 0.929 . S
C413 C412 1.399 . S
C413 C414 1.385 . S
C414 H400 0.931 . S
C414 C413 1.385 . S
C414 C415 1.389 . S
C415 C414 1.389 . S
C415 C416 1.387 . S
C416 H401 0.930 . S
C416 C411 1.390 . S
C416 C415 1.387 . S
H417 C429 0.930 . S
H418 C431 0.930 . S
H419 C432 0.930 . S
H420 C436 0.959 . S
H421 C436 0.959 . S
H422 C436 0.961 . S
H423 C437 0.960 . S
H424 C437 0.961 . S
H425 C437 0.959 . S
H426 C440 0.929 . S
H427 C441 0.931 . S
H428 C443 0.930 . S
C429 H417 0.930 . S
C429 C430 1.399 . S
C429 C434 1.399 . S
C430 C429 1.399 . S
C430 C431 1.376 . S
C431 H418 0.930 . S
C431 C430 1.376 . S
C431 C432 1.388 . S
C432 H419 0.930 . S
C432 C431 1.388 . S
C432 C433 1.390 . S
C433 C432 1.390 . S
C433 C434 1.394 . S
C433 C439 1.465 . S
C434 C429 1.399 . S
C434 C433 1.394 . S
C434 C435 1.516 . S
C435 C434 1.516 . S
C435 C436 1.502 . S
C435 C437 1.561 . S
C435 C438 1.526 . S
C436 H420 0.959 . S
C436 H421 0.959 . S
C436 H422 0.961 . S
C436 C435 1.502 . S
C437 H423 0.960 . S
C437 H424 0.961 . S
C437 H425 0.959 . S
C437 C435 1.561 . S
C438 C435 1.526 . S
C438 C439 1.396 . S
C438 C443 1.390 . S
C439 C433 1.465 . S
C439 C438 1.396 . S
C439 C440 1.399 . S
C440 H426 0.929 . S
C440 C439 1.399 . S
C440 C441 1.385 . S
C441 H427 0.931 . S
C441 C440 1.385 . S
C441 C442 1.389 . S
C442 C441 1.389 . S
C442 C443 1.387 . S
C443 H428 0.930 . S
C443 C438 1.390 . S
C443 C442 1.387 . S
H444 C456 0.930 . S
H445 C458 0.930 . S
H446 C459 0.930 . S
H447 C463 0.959 . S
H448 C463 0.959 . S
H449 C463 0.961 . S
H450 C464 0.960 . S
H451 C464 0.961 . S
H452 C464 0.959 . S
H453 C467 0.929 . S
H454 C468 0.931 . S
H455 C470 0.930 . S
C456 H444 0.930 . S
C456 C457 1.399 . S
C456 C461 1.399 . S
C457 C456 1.399 . S
C457 C458 1.376 . S
C458 H445 0.930 . S
C458 C457 1.376 . S
C458 C459 1.388 . S
C459 H446 0.930 . S
C459 C458 1.388 . S
C459 C460 1.390 . S
C460 C459 1.390 . S
C460 C461 1.394 . S
C460 C466 1.465 . S
C461 C456 1.399 . S
C461 C460 1.394 . S
C461 C462 1.516 . S
C462 C461 1.516 . S
C462 C463 1.502 . S
C462 C464 1.561 . S
C462 C465 1.526 . S
C463 H447 0.959 . S
C463 H448 0.959 . S
C463 H449 0.961 . S
C463 C462 1.502 . S
C464 H450 0.960 . S
C464 H451 0.961 . S
C464 H452 0.959 . S
C464 C462 1.561 . S
C465 C462 1.526 . S
C465 C466 1.396 . S
C465 C470 1.390 . S
C466 C460 1.465 . S
C466 C465 1.396 . S
C466 C467 1.399 . S
C467 H453 0.929 . S
C467 C466 1.399 . S
C467 C468 1.385 . S
C468 H454 0.931 . S
C468 C467 1.385 . S
C468 C469 1.389 . S
C469 C468 1.389 . S
C469 C470 1.387 . S
C470 H455 0.930 . S
C470 C465 1.390 . S
C470 C469 1.387 . S
H471 C483 0.930 . S
H472 C485 0.930 . S
H473 C486 0.930 . S
H474 C490 0.959 . S
H475 C490 0.959 . S
H476 C490 0.961 . S
H477 C491 0.960 . S
H478 C491 0.961 . S
H479 C491 0.959 . S
H480 C494 0.929 . S
H481 C495 0.931 . S
H482 C497 0.930 . S
C483 H471 0.930 . S
C483 C484 1.399 . S
C483 C488 1.399 . S
C484 C483 1.399 . S
C484 C485 1.376 . S
C485 H472 0.930 . S
C485 C484 1.376 . S
C485 C486 1.388 . S
C486 H473 0.930 . S
C486 C485 1.388 . S
C486 C487 1.390 . S
C487 C486 1.390 . S
C487 C488 1.394 . S
C487 C493 1.465 . S
C488 C483 1.399 . S
C488 C487 1.394 . S
C488 C489 1.516 . S
C489 C488 1.516 . S
C489 C490 1.502 . S
C489 C491 1.561 . S
C489 C492 1.526 . S
C490 H474 0.959 . S
C490 H475 0.959 . S
C490 H476 0.961 . S
C490 C489 1.502 . S
C491 H477 0.960 . S
C491 H478 0.961 . S
C491 H479 0.959 . S
C491 C489 1.561 . S
C492 C489 1.526 . S
C492 C493 1.396 . S
C492 C497 1.390 . S
C493 C487 1.465 . S
C493 C492 1.396 . S
C493 C494 1.399 . S
C494 H480 0.929 . S
C494 C493 1.399 . S
C494 C495 1.385 . S
C495 H481 0.931 . S
C495 C494 1.385 . S
C495 C496 1.389 . S
C496 C495 1.389 . S
C496 C497 1.387 . S
C497 H482 0.930 . S
C497 C492 1.390 . S
C497 C496 1.387 . S
H498 C510 0.930 . S
H499 C512 0.930 . S
H500 C513 0.930 . S
H501 C517 0.959 . S
H502 C517 0.959 . S
H503 C517 0.961 . S
H504 C518 0.960 . S
H505 C518 0.961 . S
H506 C518 0.959 . S
H507 C521 0.929 . S
H508 C522 0.931 . S
H509 C524 0.930 . S
C510 H498 0.930 . S
C510 C511 1.399 . S
C510 C515 1.399 . S
C511 C510 1.399 . S
C511 C512 1.376 . S
C512 H499 0.930 . S
C512 C511 1.376 . S
C512 C513 1.388 . S
C513 H500 0.930 . S
C513 C512 1.388 . S
C513 C514 1.390 . S
C514 C513 1.390 . S
C514 C515 1.394 . S
C514 C520 1.465 . S
C515 C510 1.399 . S
C515 C514 1.394 . S
C515 C516 1.516 . S
C516 C515 1.516 . S
C516 C517 1.502 . S
C516 C518 1.561 . S
C516 C519 1.526 . S
C517 H501 0.959 . S
C517 H502 0.959 . S
C517 H503 0.961 . S
C517 C516 1.502 . S
C518 H504 0.960 . S
C518 H505 0.961 . S
C518 H506 0.959 . S
C518 C516 1.561 . S
C519 C516 1.526 . S
C519 C520 1.396 . S
C519 C524 1.390 . S
C520 C514 1.465 . S
C520 C519 1.396 . S
C520 C521 1.399 . S
C521 H507 0.929 . S
C521 C520 1.399 . S
C521 C522 1.385 . S
C522 H508 0.931 . S
C522 C521 1.385 . S
C522 C523 1.389 . S
C523 C522 1.389 . S
C523 C524 1.387 . S
C524 H509 0.930 . S
C524 C519 1.390 . S
C524 C523 1.387 . S
H525 C537 0.930 . S
H526 C539 0.930 . S
H527 C540 0.930 . S
H528 C544 0.959 . S
H529 C544 0.959 . S
H530 C544 0.961 . S
H531 C545 0.960 . S
H532 C545 0.961 . S
H533 C545 0.959 . S
H534 C548 0.929 . S
H535 C549 0.931 . S
H536 C551 0.930 . S
C537 H525 0.930 . S
C537 C538 1.399 . S
C537 C542 1.399 . S
C538 C537 1.399 . S
C538 C539 1.376 . S
C539 H526 0.930 . S
C539 C538 1.376 . S
C539 C540 1.388 . S
C540 H527 0.930 . S
C540 C539 1.388 . S
C540 C541 1.390 . S
C541 C540 1.390 . S
C541 C542 1.394 . S
C541 C547 1.465 . S
C542 C537 1.399 . S
C542 C541 1.394 . S
C542 C543 1.516 . S
C543 C542 1.516 . S
C543 C544 1.502 . S
C543 C545 1.561 . S
C543 C546 1.526 . S
C544 H528 0.959 . S
C544 H529 0.959 . S
C544 H530 0.961 . S
C544 C543 1.502 . S
C545 H531 0.960 . S
C545 H532 0.961 . S
C545 H533 0.959 . S
C545 C543 1.561 . S
C546 C543 1.526 . S
C546 C547 1.396 . S
C546 C551 1.390 . S
C547 C541 1.465 . S
C547 C546 1.396 . S
C547 C548 1.399 . S
C548 H534 0.929 . S
C548 C547 1.399 . S
C548 C549 1.385 . S
C549 H535 0.931 . S
C549 C548 1.385 . S
C549 C550 1.389 . S
C550 C549 1.389 . S
C550 C551 1.387 . S
C551 H536 0.930 . S
C551 C546 1.390 . S
C551 C550 1.387 . S
H552 C564 0.930 . S
H553 C566 0.930 . S
H554 C567 0.930 . S
H555 C571 0.959 . S
H556 C571 0.959 . S
H557 C571 0.961 . S
H558 C572 0.960 . S
H559 C572 0.961 . S
H560 C572 0.959 . S
H561 C575 0.929 . S
H562 C576 0.931 . S
H563 C578 0.930 . S
C564 H552 0.930 . S
C564 C565 1.399 . S
C564 C569 1.399 . S
C565 C564 1.399 . S
C565 C566 1.376 . S
C566 H553 0.930 . S
C566 C565 1.376 . S
C566 C567 1.388 . S
C567 H554 0.930 . S
C567 C566 1.388 . S
C567 C568 1.390 . S
C568 C567 1.390 . S
C568 C569 1.394 . S
C568 C574 1.465 . S
C569 C564 1.399 . S
C569 C568 1.394 . S
C569 C570 1.516 . S
C570 C569 1.516 . S
C570 C571 1.502 . S
C570 C572 1.561 . S
C570 C573 1.526 . S
C571 H555 0.959 . S
C571 H556 0.959 . S
C571 H557 0.961 . S
C571 C570 1.502 . S
C572 H558 0.960 . S
C572 H559 0.961 . S
C572 H560 0.959 . S
C572 C570 1.561 . S
C573 C570 1.526 . S
C573 C574 1.396 . S
C573 C578 1.390 . S
C574 C568 1.465 . S
C574 C573 1.396 . S
C574 C575 1.399 . S
C575 H561 0.929 . S
C575 C574 1.399 . S
C575 C576 1.385 . S
C576 H562 0.931 . S
C576 C575 1.385 . S
C576 C577 1.389 . S
C577 C576 1.389 . S
C577 C578 1.387 . S
C578 H563 0.930 . S
C578 C573 1.390 . S
C578 C577 1.387 . S
H579 C591 0.930 . S
H580 C593 0.930 . S
H581 C594 0.930 . S
H582 C598 0.959 . S
H583 C598 0.959 . S
H584 C598 0.961 . S
H585 C599 0.960 . S
H586 C599 0.961 . S
H587 C599 0.959 . S
H588 C602 0.929 . S
H589 C603 0.931 . S
H590 C605 0.930 . S
C591 H579 0.930 . S
C591 C592 1.399 . S
C591 C596 1.399 . S
C592 C591 1.399 . S
C592 C593 1.376 . S
C593 H580 0.930 . S
C593 C592 1.376 . S
C593 C594 1.388 . S
C594 H581 0.930 . S
C594 C593 1.388 . S
C594 C595 1.390 . S
C595 C594 1.390 . S
C595 C596 1.394 . S
C595 C601 1.465 . S
C596 C591 1.399 . S
C596 C595 1.394 . S
C596 C597 1.516 . S
C597 C596 1.516 . S
C597 C598 1.502 . S
C597 C599 1.561 . S
C597 C600 1.526 . S
C598 H582 0.959 . S
C598 H583 0.959 . S
C598 H584 0.961 . S
C598 C597 1.502 . S
C599 H585 0.960 . S
C599 H586 0.961 . S
C599 H587 0.959 . S
C599 C597 1.561 . S
C600 C597 1.526 . S
C600 C601 1.396 . S
C600 C605 1.390 . S
C601 C595 1.465 . S
C601 C600 1.396 . S
C601 C602 1.399 . S
C602 H588 0.929 . S
C602 C601 1.399 . S
C602 C603 1.385 . S
C603 H589 0.931 . S
C603 C602 1.385 . S
C603 C604 1.389 . S
C604 C603 1.389 . S
C604 C605 1.387 . S
C605 H590 0.930 . S
C605 C600 1.390 . S
C605 C604 1.387 . S
H606 C618 0.930 . S
H607 C620 0.930 . S
H608 C621 0.930 . S
H609 C625 0.959 . S
H610 C625 0.959 . S
H611 C625 0.961 . S
H612 C626 0.960 . S
H613 C626 0.961 . S
H614 C626 0.959 . S
H615 C629 0.929 . S
H616 C630 0.931 . S
H617 C632 0.930 . S
C618 H606 0.930 . S
C618 C619 1.399 . S
C618 C623 1.399 . S
C619 C618 1.399 . S
C619 C620 1.376 . S
C620 H607 0.930 . S
C620 C619 1.376 . S
C620 C621 1.388 . S
C621 H608 0.930 . S
C621 C620 1.388 . S
C621 C622 1.390 . S
C622 C621 1.390 . S
C622 C623 1.394 . S
C622 C628 1.465 . S
C623 C618 1.399 . S
C623 C622 1.394 . S
C623 C624 1.516 . S
C624 C623 1.516 . S
C624 C625 1.502 . S
C624 C626 1.561 . S
C624 C627 1.526 . S
C625 H609 0.959 . S
C625 H610 0.959 . S
C625 H611 0.961 . S
C625 C624 1.502 . S
C626 H612 0.960 . S
C626 H613 0.961 . S
C626 H614 0.959 . S
C626 C624 1.561 . S
C627 C624 1.526 . S
C627 C628 1.396 . S
C627 C632 1.390 . S
C628 C622 1.465 . S
C628 C627 1.396 . S
C628 C629 1.399 . S
C629 H615 0.929 . S
C629 C628 1.399 . S
C629 C630 1.385 . S
C630 H616 0.931 . S
C630 C629 1.385 . S
C630 C631 1.389 . S
C631 C630 1.389 . S
C631 C632 1.387 . S
C632 H617 0.930 . S
C632 C627 1.390 . S
C632 C631 1.387 . S
H633 C645 0.930 . S
H634 C647 0.930 . S
H635 C648 0.930 . S
H636 C652 0.959 . S
H637 C652 0.959 . S
H638 C652 0.961 . S
H639 C653 0.960 . S
H640 C653 0.961 . S
H641 C653 0.959 . S
H642 C656 0.929 . S
H643 C657 0.931 . S
H644 C659 0.930 . S
C645 H633 0.930 . S
C645 C646 1.399 . S
C645 C650 1.399 . S
C646 C645 1.399 . S
C646 C647 1.376 . S
C647 H634 0.930 . S
C647 C646 1.376 . S
C647 C648 1.388 . S
C648 H635 0.930 . S
C648 C647 1.388 . S
C648 C649 1.390 . S
C649 C648 1.390 . S
C649 C650 1.394 . S
C649 C655 1.465 . S
C650 C645 1.399 . S
C650 C649 1.394 . S
C650 C651 1.516 . S
C651 C650 1.516 . S
C651 C652 1.502 . S
C651 C653 1.561 . S
C651 C654 1.526 . S
C652 H636 0.959 . S
C652 H637 0.959 . S
C652 H638 0.961 . S
C652 C651 1.502 . S
C653 H639 0.960 . S
C653 H640 0.961 . S
C653 H641 0.959 . S
C653 C651 1.561 . S
C654 C651 1.526 . S
C654 C655 1.396 . S
C654 C659 1.390 . S
C655 C649 1.465 . S
C655 C654 1.396 . S
C655 C656 1.399 . S
C656 H642 0.929 . S
C656 C655 1.399 . S
C656 C657 1.385 . S
C657 H643 0.931 . S
C657 C656 1.385 . S
C657 C658 1.389 . S
C658 C657 1.389 . S
C658 C659 1.387 . S
C659 H644 0.930 . S
C659 C654 1.390 . S
C659 C658 1.387 . S
H660 C672 0.930 . S
H661 C674 0.930 . S
H662 C675 0.930 . S
H663 C679 0.959 . S
H664 C679 0.959 . S
H665 C679 0.961 . S
H666 C680 0.960 . S
H667 C680 0.961 . S
H668 C680 0.959 . S
H669 C683 0.929 . S
H670 C684 0.931 . S
H671 C686 0.930 . S
C672 H660 0.930 . S
C672 C673 1.399 . S
C672 C677 1.399 . S
C673 C672 1.399 . S
C673 C674 1.376 . S
C674 H661 0.930 . S
C674 C673 1.376 . S
C674 C675 1.388 . S
C675 H662 0.930 . S
C675 C674 1.388 . S
C675 C676 1.390 . S
C676 C675 1.390 . S
C676 C677 1.394 . S
C676 C682 1.465 . S
C677 C672 1.399 . S
C677 C676 1.394 . S
C677 C678 1.516 . S
C678 C677 1.516 . S
C678 C679 1.502 1_455 S
C678 C680 1.561 . S
C678 C681 1.526 . S
C679 H663 0.959 . S
C679 H664 0.959 . S
C679 H665 0.961 . S
C679 C678 1.502 1_655 S
C680 H666 0.960 . S
C680 H667 0.961 . S
C680 H668 0.959 . S
C680 C678 1.561 . S
C681 C678 1.526 . S
C681 C682 1.396 . S
C681 C686 1.390 . S
C682 C676 1.465 . S
C682 C681 1.396 . S
C682 C683 1.399 . S
C683 H669 0.929 . S
C683 C682 1.399 . S
C683 C684 1.385 . S
C684 H670 0.931 . S
C684 C683 1.385 . S
C684 C685 1.389 . S
C685 C684 1.389 . S
C685 C686 1.387 . S
C686 H671 0.930 . S
C686 C681 1.390 . S
C686 C685 1.387 . S
H687 C699 0.930 . S
H688 C701 0.930 . S
H689 C702 0.930 . S
H690 C706 0.959 . S
H691 C706 0.959 . S
H692 C706 0.961 . S
H693 C707 0.960 . S
H694 C707 0.961 . S
H695 C707 0.959 . S
H696 C710 0.929 . S
H697 C711 0.931 1_565 S
H698 C713 0.930 . S
C699 H687 0.930 . S
C699 C700 1.399 . S
C699 C704 1.399 . S
C700 C699 1.399 . S
C700 C701 1.376 1_545 S
C701 H688 0.930 . S
C701 C700 1.376 1_565 S
C701 C702 1.388 . S
C702 H689 0.930 . S
C702 C701 1.388 . S
C702 C703 1.390 1_565 S
C703 C702 1.390 1_545 S
C703 C704 1.394 . S
C703 C709 1.465 . S
C704 C699 1.399 . S
C704 C703 1.394 . S
C704 C705 1.516 . S
C705 C704 1.516 . S
C705 C706 1.502 . S
C705 C707 1.561 . S
C705 C708 1.526 . S
C706 H690 0.959 . S
C706 H691 0.959 . S
C706 H692 0.961 . S
C706 C705 1.502 . S
C707 H693 0.960 . S
C707 H694 0.961 . S
C707 H695 0.959 . S
C707 C705 1.561 . S
C708 C705 1.526 . S
C708 C709 1.396 . S
C708 C713 1.390 . S
C709 C703 1.465 . S
C709 C708 1.396 . S
C709 C710 1.399 1_545 S
C710 H696 0.929 . S
C710 C709 1.399 1_565 S
C710 C711 1.385 1_565 S
C711 H697 0.931 1_545 S
C711 C710 1.385 1_545 S
C711 C712 1.389 . S
C712 C711 1.389 . S
C712 C713 1.387 . S
C713 H698 0.930 . S
C713 C708 1.390 . S
C713 C712 1.387 . S
H714 C726 0.930 . S
H715 C728 0.930 . S
H716 C729 0.930 . S
H717 C733 0.959 . S
H718 C733 0.959 . S
H719 C733 0.961 . S
H720 C734 0.960 . S
H721 C734 0.961 . S
H722 C734 0.959 . S
H723 C737 0.929 . S
H724 C738 0.931 . S
H725 C740 0.930 . S
C726 H714 0.930 . S
C726 C727 1.399 . S
C726 C731 1.399 . S
C727 C726 1.399 . S
C727 C728 1.376 . S
C728 H715 0.930 . S
C728 C727 1.376 . S
C728 C729 1.388 . S
C729 H716 0.930 . S
C729 C728 1.388 . S
C729 C730 1.390 . S
C730 C729 1.390 . S
C730 C731 1.394 . S
C730 C736 1.465 . S
C731 C726 1.399 . S
C731 C730 1.394 . S
C731 C732 1.516 . S
C732 C731 1.516 . S
C732 C733 1.502 . S
C732 C734 1.561 . S
C732 C735 1.526 . S
C733 H717 0.959 . S
C733 H718 0.959 . S
C733 H719 0.961 . S
C733 C732 1.502 . S
C734 H720 0.960 . S
C734 H721 0.961 . S
C734 H722 0.959 . S
C734 C732 1.561 . S
C735 C732 1.526 . S
C735 C736 1.396 . S
C735 C740 1.390 . S
C736 C730 1.465 . S
C736 C735 1.396 . S
C736 C737 1.399 . S
C737 H723 0.929 . S
C737 C736 1.399 . S
C737 C738 1.385 . S
C738 H724 0.931 . S
C738 C737 1.385 . S
C738 C739 1.389 . S
C739 C738 1.389 . S
C739 C740 1.387 . S
C740 H725 0.930 . S
C740 C735 1.390 . S
C740 C739 1.387 . S
H741 C753 0.930 . S
H742 C755 0.930 . S
H743 C756 0.930 . S
H744 C760 0.959 . S
H745 C760 0.959 . S
H746 C760 0.961 . S
H747 C761 0.960 . S
H748 C761 0.961 . S
H749 C761 0.959 . S
H750 C764 0.929 . S
H751 C765 0.931 . S
H752 C767 0.930 . S
C753 H741 0.930 . S
C753 C754 1.399 . S
C753 C758 1.399 . S
C754 C753 1.399 . S
C754 C755 1.376 1_545 S
C755 H742 0.930 . S
C755 C754 1.376 1_565 S
C755 C756 1.388 . S
C756 H743 0.930 . S
C756 C755 1.388 . S
C756 C757 1.396 . S
C757 C756 1.396 . S
C757 C758 1.386 1_565 S
C757 C763 1.466 . S
C758 C753 1.399 . S
C758 C757 1.386 1_545 S
C758 C759 1.516 . S
C759 C758 1.516 . S
C759 C760 1.502 . S
C759 C761 1.561 . S
C759 C762 1.526 . S
C760 H744 0.959 . S
C760 H745 0.959 . S
C760 H746 0.961 . S
C760 C759 1.502 . S
C761 H747 0.960 . S
C761 H748 0.961 . S
C761 H749 0.959 . S
C761 C759 1.561 . S
C762 C759 1.526 . S
C762 C763 1.396 1_545 S
C762 C767 1.390 . S
C763 C757 1.466 . S
C763 C762 1.396 1_565 S
C763 C764 1.399 . S
C764 H750 0.929 . S
C764 C763 1.399 . S
C764 C765 1.385 . S
C765 H751 0.931 . S
C765 C764 1.385 . S
C765 C766 1.389 1_565 S
C766 C765 1.389 1_545 S
C766 C767 1.387 . S
C767 H752 0.930 . S
C767 C762 1.390 . S
C767 C766 1.387 . S
H768 C780 0.930 . S
H769 C782 0.930 . S
H770 C783 0.930 . S
H771 C787 0.959 . S
H772 C787 0.959 . S
H773 C787 0.961 . S
H774 C788 0.960 . S
H775 C788 0.961 . S
H776 C788 0.959 . S
H777 C791 0.929 . S
H778 C792 0.931 1_554 S
H779 C794 0.930 . S
C780 H768 0.930 . S
C780 C781 1.399 . S
C780 C785 1.399 . S
C781 C780 1.399 . S
C781 C782 1.376 . S
C782 H769 0.930 . S
C782 C781 1.376 . S
C782 C783 1.388 . S
C783 H770 0.930 . S
C783 C782 1.388 . S
C783 C784 1.390 . S
C784 C783 1.390 . S
C784 C785 1.394 . S
C784 C790 1.465 . S
C785 C780 1.399 . S
C785 C784 1.394 . S
C785 C786 1.516 . S
C786 C785 1.516 . S
C786 C787 1.502 . S
C786 C788 1.561 . S
C786 C789 1.526 . S
C787 H771 0.959 . S
C787 H772 0.959 . S
C787 H773 0.961 . S
C787 C786 1.502 . S
C788 H774 0.960 . S
C788 H775 0.961 . S
C788 H776 0.959 . S
C788 C786 1.561 . S
C789 C786 1.526 . S
C789 C790 1.396 . S
C789 C794 1.390 . S
C790 C784 1.465 . S
C790 C789 1.396 . S
C790 C791 1.399 . S
C791 H777 0.929 . S
C791 C790 1.399 . S
C791 C792 1.385 . S
C792 H778 0.931 1_556 S
C792 C791 1.385 . S
C792 C793 1.406 . S
C793 C792 1.406 . S
C793 C794 1.427 . S
C794 H779 0.930 . S
C794 C789 1.390 . S
C794 C793 1.427 . S
H795 C807 0.930 . S
H796 C809 0.930 1_655 S
H797 C810 0.930 . S
H798 C814 0.959 . S
H799 C814 0.959 . S
H800 C814 0.961 . S
H801 C815 0.960 . S
H802 C815 0.961 . S
H803 C815 0.959 . S
H804 C818 0.929 1_655 S
H805 C819 0.931 . S
H806 C821 0.930 . S
C807 H795 0.930 . S
C807 C808 1.399 . S
C807 C812 1.399 . S
C808 C807 1.399 . S
C808 C809 1.376 . S
C809 H796 0.930 1_455 S
C809 C808 1.376 . S
C809 C810 1.388 1_455 S
C810 H797 0.930 . S
C810 C809 1.388 1_655 S
C810 C811 1.390 1_655 S
C811 C810 1.390 1_455 S
C811 C812 1.394 . S
C811 C817 1.465 . S
C812 C807 1.399 . S
C812 C811 1.394 . S
C812 C813 1.516 . S
C813 C812 1.516 . S
C813 C814 1.502 . S
C813 C815 1.561 . S
C813 C816 1.526 . S
C814 H798 0.959 . S
C814 H799 0.959 . S
C814 H800 0.961 . S
C814 C813 1.502 . S
C815 H801 0.960 . S
C815 H802 0.961 . S
C815 H803 0.959 . S
C815 C813 1.561 . S
C816 C813 1.526 . S
C816 C817 1.396 . S
C816 C821 1.390 . S
C817 C811 1.465 . S
C817 C816 1.396 . S
C817 C818 1.399 . S
C818 H804 0.929 1_455 S
C818 C817 1.399 . S
C818 C819 1.385 . S
C819 H805 0.931 . S
C819 C818 1.385 . S
C819 C820 1.389 . S
C820 C819 1.389 . S
C820 C821 1.387 . S
C821 H806 0.930 . S
C821 C816 1.390 . S
C821 C820 1.387 . S
C349 C10 3.016 . S
C361 C325 2.960 . S
C376 C59 3.088 . S
C388 C253 3.030 . S
C403 C90 3.020 . S
C415 C289 2.967 . S
C430 C19 3.094 . S
C442 C301 3.039 . S
C469 C229 2.970 . S
C457 C50 2.998 . S
C496 C265 3.038 . S
C484 C99 3.088 . S
C511 C46 0.374 . S
C523 C181 0.436 . S
C538 C95 0.456 . S
C550 C193 0.346 . S
C565 C6 0.519 . S
C577 C121 0.481 . S
C604 C157 0.331 . S
C592 C55 0.487 . S
C631 C217 0.502 . S
C619 C86 0.503 . S
C646 C15 0.514 . S
C658 C145 0.396 . S
C685 C223 1.073 1_554 S
C673 C9 1.075 . S
C700 C49 1.008 . S
C712 C151 1.043 . S
C727 C89 1.067 . S
C739 C187 1.063 . S
C766 C295 1.790 . S
C754 C58 1.689 . S
C793 C331 1.717 1_556 S
C781 C98 1.740 . S
C808 C18 1.677 . S
C820 C259 1.783 . S
