# Generated by pormake.
# Topology nom, (4,4)-cn, num edge types: 1
# Building blocks:
#     Node 0, Type 0, BuildingBlock: MUDLON_clean_linker_0, # of connection points: 4
#     Node 1, Type 0, BuildingBlock: MUDLON_clean_linker_0, # of connection points: 4
#     Node 2, Type 0, BuildingBlock: MUDLON_clean_linker_0, # of connection points: 4
#     Node 3, Type 0, BuildingBlock: MUDLON_clean_linker_0, # of connection points: 4
#     Node 4, Type 0, BuildingBlock: MUDLON_clean_linker_0, # of connection points: 4
#     Node 5, Type 0, BuildingBlock: MUDLON_clean_linker_0, # of connection points: 4
#     Node 6, Type 1, BuildingBlock: QUQFOY_clean_sbu_3, # of connection points: 4
#     Node 7, Type 1, BuildingBlock: QUQFOY_clean_sbu_3, # of connection points: 4
#     Node 8, Type 1, BuildingBlock: QUQFOY_clean_sbu_3, # of connection points: 4
#     Node 9, Type 1, BuildingBlock: QUQFOY_clean_sbu_3, # of connection points: 4
#     Node 10, Type 1, BuildingBlock: QUQFOY_clean_sbu_3, # of connection points: 4
#     Node 11, Type 1, BuildingBlock: QUQFOY_clean_sbu_3, # of connection points: 4
#     Edge 12, Type (0, 1), BuildingBlock: TEMPAE_clean_linker_10, # of connection points: 2
#     Edge 13, Type (0, 1), BuildingBlock: TEMPAE_clean_linker_10, # of connection points: 2
#     Edge 14, Type (0, 1), BuildingBlock: TEMPAE_clean_linker_10, # of connection points: 2
#     Edge 15, Type (0, 1), BuildingBlock: TEMPAE_clean_linker_10, # of connection points: 2
#     Edge 16, Type (0, 1), BuildingBlock: TEMPAE_clean_linker_10, # of connection points: 2
#     Edge 17, Type (0, 1), BuildingBlock: TEMPAE_clean_linker_10, # of connection points: 2
#     Edge 18, Type (0, 1), BuildingBlock: TEMPAE_clean_linker_10, # of connection points: 2
#     Edge 19, Type (0, 1), BuildingBlock: TEMPAE_clean_linker_10, # of connection points: 2
#     Edge 20, Type (0, 1), BuildingBlock: TEMPAE_clean_linker_10, # of connection points: 2
#     Edge 21, Type (0, 1), BuildingBlock: TEMPAE_clean_linker_10, # of connection points: 2
#     Edge 22, Type (0, 1), BuildingBlock: TEMPAE_clean_linker_10, # of connection points: 2
#     Edge 23, Type (0, 1), BuildingBlock: TEMPAE_clean_linker_10, # of connection points: 2
#     Edge 24, Type (0, 1), BuildingBlock: TEMPAE_clean_linker_10, # of connection points: 2
#     Edge 25, Type (0, 1), BuildingBlock: TEMPAE_clean_linker_10, # of connection points: 2
#     Edge 26, Type (0, 1), BuildingBlock: TEMPAE_clean_linker_10, # of connection points: 2
#     Edge 27, Type (0, 1), BuildingBlock: TEMPAE_clean_linker_10, # of connection points: 2
#     Edge 28, Type (0, 1), BuildingBlock: TEMPAE_clean_linker_10, # of connection points: 2
#     Edge 29, Type (0, 1), BuildingBlock: TEMPAE_clean_linker_10, # of connection points: 2
#     Edge 30, Type (0, 1), BuildingBlock: TEMPAE_clean_linker_10, # of connection points: 2
#     Edge 31, Type (0, 1), BuildingBlock: TEMPAE_clean_linker_10, # of connection points: 2
#     Edge 32, Type (0, 1), BuildingBlock: TEMPAE_clean_linker_10, # of connection points: 2
#     Edge 33, Type (0, 1), BuildingBlock: TEMPAE_clean_linker_10, # of connection points: 2
#     Edge 34, Type (0, 1), BuildingBlock: TEMPAE_clean_linker_10, # of connection points: 2
#     Edge 35, Type (0, 1), BuildingBlock: TEMPAE_clean_linker_10, # of connection points: 2
# Relax obj value: 0.007
# Max RMSD: 0.104
# Mean RMSD: 0.061
data_MOF--net-nom--node1-QUQFOY_clean_sbu_3--node2-MUDLON_clean_linker_0--edge1-TEMPAE_clean_linker_10
_symmetry_space_group_name_H-M    P1
_symmetry_Int_Tables_number       1
_symmetry_cell_setting            triclinic
loop_
_symmetry_equiv_pos_as_xyz
'x, y, z'
_cell_length_a     61.176991
_cell_length_b     63.562804
_cell_length_c     61.504709
_cell_angle_alpha  90.4471
_cell_angle_beta   89.772863
_cell_angle_gamma 120.66751
loop_
_atom_site_label
_atom_site_type_symbol
_atom_site_fract_x
_atom_site_fract_y
_atom_site_fract_z
_atom_type_partial_charge
H0 H 0.13557 0.53659 0.31501 0.0
N1 N 0.09144 0.53328 0.32313 0.0
H2 H 0.17062 0.56757 0.29309 0.0
H3 H 0.08846 0.5654 0.29504 0.0
H4 H 0.12323 0.596 0.27294 0.0
H5 H 0.09878 0.57758 0.33672 0.0
H6 H 0.116 0.59711 0.3719 0.0
H7 H 0.09828 0.51285 0.35788 0.0
H8 H 0.11567 0.53231 0.3931 0.0
H9 H 0.06571 0.48665 0.3114 0.0
H10 H 0.05721 0.54905 0.32286 0.0
H11 H 0.02024 0.46137 0.30403 0.0
H12 H 0.01213 0.52447 0.3143 0.0
H13 H 0.86926 0.38852 0.27387 0.0
H14 H 0.85083 0.38513 0.23771 0.0
H15 H 0.90258 0.46218 0.22751 0.0
H16 H 0.9204 0.46571 0.26387 0.0
H17 H 0.89264 0.46512 0.29528 0.0
H18 H 0.85957 0.46548 0.31736 0.0
H19 H 0.84333 0.39764 0.34712 0.0
H20 H 0.87671 0.39754 0.32496 0.0
H21 H 0.94194 0.42641 0.27425 0.0
H22 H 0.98758 0.45276 0.27944 0.0
H23 H 0.97382 0.49331 0.32891 0.0
N24 N 0.90434 0.42894 0.29389 0.0
H25 H 0.92875 0.46811 0.32303 0.0
C26 C 0.10935 0.54848 0.30671 0.0
C27 C 0.13256 0.54911 0.30542 0.0
C28 C 0.15255 0.56687 0.29306 0.0
C29 C 0.14958 0.58419 0.2815 0.0
C30 C 0.12588 0.58272 0.28164 0.0
C31 C 0.10596 0.56513 0.2943 0.0
C32 C 0.0974 0.54373 0.34469 0.0
C33 C 0.10182 0.56734 0.3491 0.0
C34 C 0.11181 0.57856 0.36917 0.0
C35 C 0.11735 0.56631 0.38519 0.0
C36 C 0.11137 0.54214 0.38118 0.0
C37 C 0.10153 0.53101 0.36108 0.0
C38 C 0.0649 0.51967 0.31749 0.0
C39 C 0.05404 0.49495 0.31192 0.0
C40 C 0.02806 0.48061 0.30757 0.0
C41 C 0.01238 0.49083 0.30849 0.0
C42 C 0.02347 0.51583 0.31375 0.0
C43 C 0.0494 0.53006 0.31841 0.0
C44 C 0.89632 0.4272 0.27153 0.0
C45 C 0.87686 0.40457 0.26369 0.0
C46 C 0.86631 0.40269 0.24317 0.0
C47 C 0.87539 0.4234 0.22996 0.0
C48 C 0.89548 0.44594 0.2374 0.0
C49 C 0.90567 0.44793 0.25812 0.0
C50 C 0.88701 0.43114 0.30844 0.0
C51 C 0.88209 0.45042 0.30665 0.0
C52 C 0.86315 0.45057 0.31925 0.0
C53 C 0.84871 0.43147 0.33384 0.0
C54 C 0.85429 0.41271 0.33616 0.0
C55 C 0.87325 0.41257 0.32352 0.0
C56 C 0.9314 0.44526 0.29764 0.0
C57 C 0.94875 0.44121 0.286 0.0
C58 C 0.97491 0.45618 0.28916 0.0
C59 C 0.98452 0.47533 0.30453 0.0
C60 C 0.96723 0.47919 0.31651 0.0
C61 C 0.94107 0.46445 0.31313 0.0
H62 H 0.49271 0.88786 0.46192 0.0
N63 N 0.48334 0.92223 0.44908 0.0
H64 H 0.46667 0.85344 0.48603 0.0
H65 H 0.44391 0.91706 0.47471 0.0
H66 H 0.418 0.88293 0.49876 0.0
H67 H 0.43335 0.89828 0.43612 0.0
H68 H 0.41721 0.87995 0.40081 0.0
H69 H 0.51022 0.92837 0.41319 0.0
H70 H 0.49432 0.91221 0.37687 0.0
H71 H 0.53105 0.9545 0.45877 0.0
H72 H 0.45805 0.94749 0.44857 0.0
H73 H 0.54996 -0.00179 0.4652 0.0
H74 H 0.47612 0.99091 0.45696 0.0
H75 H 0.60535 0.13051 0.50196 0.0
H76 H 0.60759 0.14586 0.53911 0.0
H77 H 0.52566 0.1056 0.5427 0.0
H78 H 0.52359 0.08953 0.50579 0.0
H79 H 0.52694 0.1142 0.47586 0.0
H80 H 0.53071 0.14891 0.45652 0.0
H81 H 0.59929 0.15971 0.42544 0.0
H82 H 0.59654 0.1262 0.44683 0.0
H83 H 0.57507 0.07052 0.49567 0.0
H84 H 0.55382 0.02665 0.48996 0.0
H85 H 0.50166 0.03083 0.44533 0.0
N86 N 0.56393 0.10209 0.47874 0.0
H87 H 0.5217 0.07448 0.45273 0.0
C88 C 0.47035 0.90501 0.46637 0.0
C89 C 0.47682 0.8872 0.47039 0.0
C90 C 0.46196 0.86761 0.48419 0.0
C91 C 0.44019 0.86542 0.49413 0.0
C92 C 0.43455 0.88405 0.49113 0.0
C93 C 0.44952 0.90372 0.47744 0.0
C94 C 0.47313 0.91412 0.42753 0.0
C95 C 0.44684 0.90129 0.4234 0.0
C96 C 0.43758 0.89105 0.4029 0.0
C97 C 0.45436 0.89417 0.38579 0.0
C98 C 0.4807 0.90858 0.38969 0.0
C99 C 0.4899 0.91815 0.41038 0.0
C100 C 0.49317 0.94772 0.45377 0.0
C101 C 0.51902 0.96243 0.45846 0.0
C102 C 0.5297 0.98742 0.46231 0.0
C103 C 0.51457 -0.00171 0.46207 0.0
C104 C 0.4885 0.98339 0.4572 0.0
C105 C 0.47797 0.9584 0.45279 0.0
C106 C 0.56441 0.10922 0.50112 0.0
C107 C 0.58794 0.12475 0.51092 0.0
C108 C 0.58916 0.1334 0.53206 0.0
C109 C 0.56677 0.1269 0.54362 0.0
C110 C 0.54314 0.11092 0.534 0.0
C111 C 0.54195 0.10185 0.51297 0.0
C112 C 0.56201 0.11812 0.46335 0.0
C113 C 0.54276 0.12395 0.46487 0.0
C114 C 0.54479 0.14377 0.45342 0.0
C115 C 0.56571 0.15777 0.43967 0.0
C116 C 0.58343 0.15009 0.43647 0.0
C117 C 0.58173 0.13067 0.44841 0.0
C118 C 0.55023 0.07601 0.47469 0.0
C119 C 0.55886 0.06192 0.48483 0.0
C120 C 0.54681 0.03677 0.48128 0.0
C121 C 0.52617 0.02498 0.46682 0.0
C122 C 0.51729 0.03908 0.45675 0.0
C123 C 0.529 0.06428 0.46081 0.0
H124 H 0.43461 0.5586 0.67241 0.0
N125 N 0.41281 0.50927 0.67861 0.0
H126 H 0.41998 0.57829 0.64698 0.0
H127 H 0.37949 0.4879 0.64645 0.0
H128 H 0.36518 0.50759 0.62057 0.0
H129 H 0.37213 0.50181 0.7006 0.0
H130 H 0.37063 0.51998 0.73512 0.0
H131 H 0.45384 0.53892 0.70474 0.0
H132 H 0.45249 0.55534 0.7402 0.0
H133 H 0.45813 0.53679 0.65692 0.0
H134 H 0.41222 0.4692 0.69124 0.0
H135 H 0.49008 0.52567 0.65011 0.0
H136 H 0.44503 0.45861 0.68592 0.0
H137 H 0.59136 0.48844 0.62871 0.0
H138 H 0.60015 0.48051 0.59149 0.0
H139 H 0.51995 0.43108 0.5812 0.0
H140 H 0.51119 0.43925 0.61791 0.0
H141 H 0.52114 0.41649 0.64402 0.0
H142 H 0.52956 0.38822 0.66289 0.0
H143 H 0.5828 0.4469 0.70491 0.0
H144 H 0.57546 0.47569 0.68457 0.0
H145 H 0.55416 0.51058 0.65738 0.0
H146 H 0.52217 0.52161 0.66567 0.0
H147 H 0.4634 0.44535 0.66043 0.0
N148 N 0.54693 0.46649 0.64924 0.0
H149 H 0.49563 0.43455 0.65379 0.0
C150 C 0.40774 0.52166 0.66152 0.0
C151 C 0.41968 0.54735 0.66097 0.0
C152 C 0.41136 0.55858 0.64645 0.0
C153 C 0.39137 0.54441 0.63198 0.0
C154 C 0.38072 0.51892 0.6315 0.0
C155 C 0.38879 0.50766 0.64625 0.0
C156 C 0.41291 0.51861 0.70014 0.0
C157 C 0.38969 0.51339 0.70929 0.0
C158 C 0.38893 0.5237 0.72917 0.0
C159 C 0.41144 0.5391 0.74076 0.0
C160 C 0.43475 0.54395 0.73172 0.0
C161 C 0.43554 0.53418 0.71148 0.0
C162 C 0.43238 0.50349 0.67425 0.0
C163 C 0.45486 0.51951 0.66302 0.0
C164 C 0.47341 0.51325 0.65941 0.0
C165 C 0.47026 0.49116 0.66741 0.0
C166 C 0.44796 0.47548 0.67903 0.0
C167 C 0.42922 0.48155 0.68225 0.0
C168 C 0.55075 0.46445 0.62629 0.0
C169 C 0.57566 0.4764 0.61821 0.0
C170 C 0.58063 0.47187 0.59702 0.0
C171 C 0.5607 0.45504 0.58365 0.0
C172 C 0.53563 0.444 0.5913 0.0
C173 C 0.53065 0.44878 0.61236 0.0
C174 C 0.54817 0.44851 0.66254 0.0
C175 C 0.53453 0.42342 0.65732 0.0
C176 C 0.53918 0.40704 0.66843 0.0
C177 C 0.55713 0.41518 0.68539 0.0
C178 C 0.56934 0.44001 0.6916 0.0
C179 C 0.565 0.45648 0.68017 0.0
C180 C 0.52739 0.47189 0.65476 0.0
C181 C 0.53435 0.49631 0.65824 0.0
C182 C 0.51597 0.50255 0.66274 0.0
C183 C 0.49002 0.48443 0.66351 0.0
C184 C 0.48313 0.45984 0.66027 0.0
C185 C 0.50161 0.4536 0.6562 0.0
H186 H 0.14333 0.62412 0.81371 0.0
N187 N 0.10617 0.58516 0.7937 0.0
H188 H 0.17528 0.62549 0.83857 0.0
H189 H 0.10645 0.5455 0.81069 0.0
H190 H 0.13837 0.54676 0.83532 0.0
H191 H 0.12916 0.56189 0.77476 0.0
H192 H 0.14708 0.56863 0.73872 0.0
H193 H 0.10264 0.61183 0.76233 0.0
H194 H 0.11855 0.61701 0.72507 0.0
H195 H 0.07554 0.59511 0.81621 0.0
H196 H 0.07658 0.53799 0.77884 0.0
H197 H 0.02984 0.56866 0.82212 0.0
H198 H 0.03079 0.5113 0.78473 0.0
H199 H 0.89455 0.50513 0.83634 0.0
H200 H 0.87413 0.49311 0.87219 0.0
H201 H 0.89728 0.43956 0.87734 0.0
H202 H 0.91848 0.45228 0.84201 0.0
H203 H 0.91672 0.44295 0.80546 0.0
H204 H 0.88358 0.40835 0.78476 0.0
H205 H 0.84941 0.4513 0.76892 0.0
H206 H 0.88231 0.48564 0.79007 0.0
H207 H 0.95445 0.50964 0.84598 0.0
H208 H -1e-05 0.53106 0.84136 0.0
H209 H 0.9906 0.51014 0.77364 0.0
N210 N 0.918 0.48591 0.81466 0.0
H211 H 0.94475 0.48825 0.77803 0.0
C212 C 0.12262 0.58485 0.81028 0.0
C213 C 0.1419 0.60717 0.81873 0.0
C214 C 0.16003 0.6079 0.83294 0.0
C215 C 0.1593 0.58622 0.83876 0.0
C216 C 0.13942 0.56373 0.83096 0.0
C217 C 0.1211 0.563 0.81697 0.0
C218 C 0.11506 0.58695 0.7716 0.0
C219 C 0.12694 0.5742 0.76426 0.0
C220 C 0.13691 0.5778 0.74328 0.0
C221 C 0.1345 0.59352 0.72876 0.0
C222 C 0.12148 0.6053 0.73585 0.0
C223 C 0.1121 0.60219 0.75708 0.0
C224 C 0.07938 0.56865 0.79704 0.0
C225 C 0.06585 0.5768 0.80938 0.0
C226 C 0.03982 0.56161 0.81284 0.0
C227 C 0.02674 0.53785 0.80395 0.0
C228 C 0.04034 0.52957 0.79164 0.0
C229 C 0.0665 0.54479 0.7883 0.0
C230 C 0.90767 0.47943 0.83637 0.0
C231 C 0.89544 0.49102 0.84535 0.0
C232 C 0.88388 0.48419 0.86575 0.0
C233 C 0.88406 0.46533 0.87734 0.0
C234 C 0.89669 0.45398 0.86856 0.0
C235 C 0.90865 0.46112 0.84834 0.0
C236 C 0.90175 0.46683 0.7995 0.0
C237 C 0.90222 0.44499 0.79742 0.0
C238 C 0.88333 0.42526 0.78556 0.0
C239 C 0.86386 0.42712 0.77537 0.0
C240 C 0.8643 0.44942 0.77645 0.0
C241 C 0.88302 0.46902 0.7885 0.0
C242 C 0.94529 0.49574 0.8127 0.0
C243 C 0.96176 0.50864 0.8302 0.0
C244 C 0.98808 0.52136 0.82753 0.0
C245 C -0.0011 0.52219 0.80718 0.0
C246 C 0.98281 0.50938 0.78965 0.0
C247 C 0.95641 0.49667 0.79228 0.0
H248 H 0.52359 0.14407 0.96997 0.0
N249 N 0.52884 0.10712 0.95665 0.0
H250 H 0.55311 0.17903 0.99244 0.0
H251 H 0.56922 0.11099 0.97955 0.0
H252 H 0.59878 0.14583 0.00204 0.0
H253 H 0.57787 0.12961 0.94099 0.0
H254 H 0.59153 0.14429 0.90455 0.0
H255 H 0.49959 0.09934 0.92207 0.0
H256 H 0.513 0.11196 0.88459 0.0
H257 H 0.48592 0.07768 0.9773 0.0
H258 H 0.55118 0.07992 0.94801 0.0
H259 H 0.46756 0.03414 0.98489 0.0
H260 H 0.53294 0.03629 0.95551 0.0
H261 H 0.40043 0.9024 0.00492 0.0
H262 H 0.39514 0.88228 0.04006 0.0
H263 H 0.47584 0.90994 0.04238 0.0
H264 H 0.48113 0.93068 0.00765 0.0
H265 H 0.48501 0.92473 0.97075 0.0
H266 H 0.48475 0.89162 0.95 0.0
H267 H 0.40449 0.86017 0.93762 0.0
H268 H 0.40503 0.89342 0.95827 0.0
H269 H 0.45096 0.96221 0.01175 0.0
H270 H 0.47475 0.00618 0.00722 0.0
H271 H 0.4949 -0.00289 0.94198 0.0
N272 N 0.44294 0.92731 0.98199 0.0
H273 H 0.47131 0.95309 0.94629 0.0
C274 C 0.54416 0.125 0.97299 0.0
C275 C 0.53961 0.14408 0.97741 0.0
C276 C 0.55645 0.16397 0.99028 0.0
C277 C 0.57833 0.16521 -0.00112 0.0
C278 C 0.58217 0.14543 0.99546 0.0
C279 C 0.56517 0.12542 0.98272 0.0
C280 C 0.53756 0.11394 0.93453 0.0
C281 C 0.56348 0.12586 0.92896 0.0
C282 C 0.57133 0.13394 0.90779 0.0
C283 C 0.55346 0.12955 0.89138 0.0
C284 C 0.52744 0.11637 0.89679 0.0
C285 C 0.51966 0.1089 0.91817 0.0
C286 C 0.51969 0.08195 0.962 0.0
C287 C 0.49635 0.06877 0.97272 0.0
C288 C 0.486 0.04396 0.97711 0.0
C289 C 0.49883 0.03181 0.97077 0.0
C290 C 0.52254 0.04515 0.96039 0.0
C291 C 0.53299 0.07007 0.95615 0.0
C292 C 0.44101 0.91773 0.00358 0.0
C293 C 0.41698 0.9044 0.01322 0.0
C294 C 0.41402 0.89301 0.03322 0.0
C295 C 0.43509 0.8945 0.04377 0.0
C296 C 0.45931 0.90836 0.03441 0.0
C297 C 0.46231 0.9201 0.01457 0.0
C298 C 0.44488 0.9114 0.96618 0.0
C299 C 0.46749 0.91096 0.96324 0.0
C300 C 0.4673 0.89201 0.95138 0.0
C301 C 0.44455 0.87313 0.94233 0.0
C302 C 0.42241 0.87454 0.94414 0.0
C303 C 0.42263 0.89348 0.95597 0.0
C304 C 0.46011 0.9536 0.97992 0.0
C305 C 0.46115 0.96941 -0.00335 0.0
C306 C 0.47453 0.99473 0.99399 0.0
C307 C 0.48688 0.00511 0.97432 0.0
C308 C 0.48607 0.98964 0.95753 0.0
C309 C 0.47255 0.96424 0.96013 0.0
H310 H 0.52001 0.39792 0.16337 0.0
N311 N 0.52131 0.43914 0.1734 0.0
H312 H 0.5501 0.393 0.14057 0.0
H313 H 0.55842 0.47458 0.14732 0.0
H314 H 0.58804 0.46957 0.12428 0.0
H315 H 0.56857 0.47225 0.1891 0.0
H316 H 0.58486 0.47247 0.22527 0.0
H317 H 0.49566 0.41079 0.20668 0.0
H318 H 0.51204 0.41041 0.24287 0.0
H319 H 0.47556 0.42362 0.15704 0.0
H320 H 0.54351 0.48902 0.17818 0.0
H321 H 0.45572 0.44773 0.14901 0.0
H322 H 0.52418 0.51332 0.1697 0.0
H323 H 0.398 0.52387 0.11496 0.0
H324 H 0.39907 0.54135 0.07932 0.0
H325 H 0.48096 0.58458 0.08274 0.0
H326 H 0.47977 0.56644 0.11812 0.0
H327 H 0.47752 0.58017 0.15296 0.0
H328 H 0.47499 0.61242 0.17257 0.0
H329 H 0.39471 0.56293 0.18301 0.0
H330 H 0.39754 0.53072 0.16355 0.0
H331 H 0.4362 0.49983 0.11739 0.0
H332 H 0.4581 0.47761 0.12414 0.0
H333 H 0.49076 0.52017 0.18264 0.0
N334 N 0.43695 0.53549 0.1412 0.0
H335 H 0.46954 0.5428 0.17572 0.0
C336 C 0.53673 0.43646 0.15705 0.0
C337 C 0.53449 0.41351 0.1545 0.0
C338 C 0.55171 0.41076 0.14162 0.0
C339 C 0.57135 0.43094 0.13077 0.0
C340 C 0.57289 0.45371 0.13236 0.0
C341 C 0.55589 0.45655 0.14555 0.0
C342 C 0.53078 0.44144 0.19523 0.0
C343 C 0.55593 0.459 0.20084 0.0
C344 C 0.56532 0.45896 0.22149 0.0
C345 C 0.54981 0.44134 0.23689 0.0
C346 C 0.5244 0.42439 0.23147 0.0
C347 C 0.51502 0.42449 0.21083 0.0
C348 C 0.51091 0.45436 0.16819 0.0
C349 C 0.48625 0.44321 0.15975 0.0
C350 C 0.47504 0.45706 0.15508 0.0
C351 C 0.48839 0.48251 0.15867 0.0
C352 C 0.51325 0.49373 0.16701 0.0
C353 C 0.5244 0.47982 0.17176 0.0
C354 C 0.43867 0.54403 0.11924 0.0
C355 C 0.41616 0.53675 0.10779 0.0
C356 C 0.41684 0.5467 0.08749 0.0
C357 C 0.44011 0.56436 0.07839 0.0
C358 C 0.46279 0.57113 0.08953 0.0
C359 C 0.46211 0.56085 0.10972 0.0
C360 C 0.43758 0.55296 0.15673 0.0
C361 C 0.4595 0.57609 0.15986 0.0
C362 C 0.45801 0.59455 0.17103 0.0
C363 C 0.43459 0.59034 0.17914 0.0
C364 C 0.41311 0.56675 0.17719 0.0
C365 C 0.41464 0.5483 0.16608 0.0
C366 C 0.45166 0.52383 0.1454 0.0
C367 C 0.4485 0.50482 0.13146 0.0
C368 C 0.46081 0.49186 0.13548 0.0
C369 C 0.47627 0.49715 0.15391 0.0
C370 C 0.47941 0.51599 0.16804 0.0
C371 C 0.46715 0.52907 0.16397 0.0
C372 C 0.69379 0.41938 0.40451 0.0
O373 O 0.69435 0.43855 0.41132 0.0
Cd374 Cd 0.6571 0.43906 0.42277 0.0
O375 O 0.67289 0.39899 0.40394 0.0
Cd376 Cd 0.62738 0.3819 0.41307 0.0
C377 C 0.62028 0.41797 0.37679 0.0
O378 O 0.63382 0.40488 0.4465 0.0
O379 O 0.59551 0.38622 0.43387 0.0
O380 O 0.62193 0.34493 0.42989 0.0
C381 C 0.61072 0.39862 0.44909 0.0
O382 O 0.6333 0.4358 0.38974 0.0
C383 C 0.6078 0.33031 0.41513 0.0
O384 O 0.61637 0.39672 0.3809 0.0
O385 O 0.60248 0.33956 0.39925 0.0
C386 C 0.28366 0.60005 0.5584 0.0
O387 O 0.26125 0.58362 0.55312 0.0
Cd388 Cd 0.22913 0.59115 0.53958 0.0
O389 O 0.29058 0.62263 0.55727 0.0
Cd390 Cd 0.27077 0.64705 0.54756 0.0
C391 C 0.22349 0.61933 0.58475 0.0
O392 O 0.24954 0.62436 0.5148 0.0
O393 O 0.23837 0.64972 0.52596 0.0
O394 O 0.31099 0.67824 0.53205 0.0
C395 C 0.23694 0.63481 0.51143 0.0
O396 O 0.21242 0.60174 0.57121 0.0
C397 C 0.31259 0.69597 0.54304 0.0
O398 O 0.2459 0.6371 0.58125 0.0
O399 O 0.29489 0.6909 0.55661 0.0
C400 C 0.69896 0.28547 0.72053 0.0
O401 O 0.69703 0.26579 0.71339 0.0
Cd402 Cd 0.6572 0.23067 0.70272 0.0
O403 O 0.67935 0.28751 0.72214 0.0
Cd404 Cd 0.63315 0.26252 0.71465 0.0
C405 C 0.62352 0.2182 0.74998 0.0
O406 O 0.63587 0.24517 0.68018 0.0
O407 O 0.59855 0.22767 0.69471 0.0
O408 O 0.63138 0.29683 0.69947 0.0
C409 C 0.61231 0.2299 0.67839 0.0
O410 O 0.6327 0.21046 0.73551 0.0
C411 C 0.61628 0.29699 0.71358 0.0
O412 O 0.62342 0.23799 0.74741 0.0
O413 O 0.60911 0.28121 0.72859 0.0
C414 C 0.31847 0.60917 0.90866 0.0
O415 O 0.31902 0.59186 0.91832 0.0
Cd416 Cd 0.35813 0.59479 0.92937 0.0
O417 O 0.33889 0.62951 0.90552 0.0
Cd418 Cd 0.38499 0.65027 0.91353 0.0
C419 C 0.38939 0.61038 0.88013 0.0
O420 O 0.38167 0.63239 0.94888 0.0
O421 O 0.41902 0.64987 0.93449 0.0
O422 O 0.3818 0.68528 0.9244 0.0
C423 C 0.40499 0.63927 0.95079 0.0
O424 O 0.37988 0.59514 0.89566 0.0
C425 C 0.40025 0.7009 0.91303 0.0
O426 O 0.39165 0.63141 0.88145 0.0
O427 O 0.41184 0.69298 0.90145 0.0
C428 C 0.71828 0.4244 0.0639 0.0
O429 O 0.73887 0.44417 0.05999 0.0
Cd430 Cd 0.77634 0.44484 0.04744 0.0
O431 O 0.71686 0.40383 0.06128 0.0
Cd432 Cd 0.74449 0.3877 0.04954 0.0
C433 C 0.78756 0.41717 0.08978 0.0
O434 O 0.7638 0.41484 0.01863 0.0
O435 O 0.78042 0.39318 0.0274 0.0
O436 O 0.70795 0.35394 0.03145 0.0
C437 C 0.77927 0.40774 0.01412 0.0
O438 O 0.79445 0.43687 0.07947 0.0
C439 C 0.70851 0.33705 0.04184 0.0
O440 O 0.76917 0.39688 0.08298 0.0
O441 O 0.72599 0.34368 0.05592 0.0
C442 C 0.30633 0.72861 0.21928 0.0
O443 O 0.30712 0.74823 0.21391 0.0
Cd444 Cd 0.34551 0.78371 0.20129 0.0
O445 O 0.32639 0.72726 0.21889 0.0
Cd446 Cd 0.3721 0.75338 0.21064 0.0
C447 C 0.38151 0.79742 0.24709 0.0
O448 O 0.36639 0.76985 0.17695 0.0
O449 O 0.40484 0.78725 0.189 0.0
O450 O 0.36972 0.71619 0.19729 0.0
C451 C 0.38975 0.78516 0.17394 0.0
O452 O 0.37156 0.8047 0.23313 0.0
C453 C 0.38834 0.71842 0.20823 0.0
O454 O 0.38195 0.77778 0.24408 0.0
O455 O 0.3997 0.73715 0.22048 0.0
C456 C 0.17084 0.61094 0.2493 0.0
C457 C 0.17181 0.60503 0.27103 0.0
C458 C 0.19198 0.63084 0.23948 0.0
C459 C 0.21427 0.64538 0.25189 0.0
C460 C 0.21512 0.63964 0.27394 0.0
C461 C 0.19394 0.6194 0.28318 0.0
C462 C 0.19059 0.63617 0.21582 0.0
C463 C 0.23835 0.65495 0.28784 0.0
C464 C 0.27892 0.68372 0.22558 0.0
C465 C 0.28209 0.70718 0.22636 0.0
C466 C 0.25648 0.66328 0.23302 0.0
C467 C 0.23696 0.66647 0.24188 0.0
C468 C 0.23987 0.69004 0.24241 0.0
C469 C 0.26233 0.71011 0.23443 0.0
C470 C 0.25388 0.63837 0.23183 0.0
C471 C 0.21967 0.69422 0.25211 0.0
H472 H 0.15369 0.59975 0.23994 0.0
H473 H 0.1945 0.61501 0.3001 0.0
H474 H 0.19391 0.65493 0.21406 0.0
H475 H 0.20575 0.63539 0.20654 0.0
H476 H 0.17192 0.62302 0.20842 0.0
H477 H 0.23559 0.64845 0.3049 0.0
H478 H 0.2549 0.65454 0.28093 0.0
H479 H 0.24312 0.6743 0.28792 0.0
H480 H 0.29403 0.68131 0.21915 0.0
H481 H 0.26473 0.72821 0.23514 0.0
H482 H 0.23581 0.62512 0.22367 0.0
H483 H 0.25325 0.63151 0.24849 0.0
H484 H 0.26988 0.63871 0.2229 0.0
H485 H 0.20108 0.68205 0.24419 0.0
H486 H 0.22435 0.71347 0.25042 0.0
H487 H 0.21741 0.68957 0.26965 0.0
C488 C 0.55018 0.18532 0.4261 0.0
C489 C 0.57045 0.18161 0.43082 0.0
C490 C 0.55448 0.20874 0.4214 0.0
C491 C 0.57968 0.22885 0.42069 0.0
C492 C 0.60025 0.22497 0.42377 0.0
C493 C 0.59541 0.20157 0.42912 0.0
C494 C 0.532 0.21217 0.41849 0.0
C495 C 0.62746 0.24582 0.4226 0.0
C496 C 0.59431 0.28998 0.3973 0.0
C497 C 0.5986 0.30389 0.4163 0.0
C498 C 0.58771 0.26533 0.39838 0.0
C499 C 0.58464 0.25427 0.41895 0.0
C500 C 0.58786 0.26802 0.43814 0.0
C501 C 0.59519 0.29276 0.43658 0.0
C502 C 0.58514 0.25149 0.37758 0.0
C503 C 0.58412 0.25677 0.46039 0.0
H504 H 0.53083 0.17006 0.42674 0.0
H505 H 0.61135 0.19933 0.43301 0.0
H506 H 0.53098 0.22279 0.43247 0.0
H507 H 0.53423 0.22279 0.40359 0.0
H508 H 0.51376 0.19446 0.41748 0.0
H509 H 0.64118 0.23928 0.42238 0.0
H510 H 0.63047 0.25692 0.40784 0.0
H511 H 0.63171 0.25804 0.43692 0.0
H512 H 0.59712 0.29863 0.3816 0.0
H513 H 0.59829 0.30346 0.45128 0.0
H514 H 0.56682 0.23388 0.37728 0.0
H515 H 0.60051 0.2471 0.37673 0.0
H516 H 0.58631 0.26212 0.36293 0.0
H517 H 0.56541 0.23957 0.46127 0.0
H518 H 0.58513 0.26929 0.47356 0.0
H519 H 0.59896 0.25203 0.46339 0.0
C520 C 0.37154 0.57013 0.62975 0.0
C521 C 0.37971 0.55576 0.61916 0.0
C522 C 0.35762 0.57863 0.61865 0.0
C523 C 0.35214 0.57297 0.59629 0.0
C524 C 0.36143 0.55947 0.58525 0.0
C525 C 0.37486 0.55073 0.59691 0.0
C526 C 0.34765 0.59257 0.63112 0.0
C527 C 0.35647 0.55357 0.56132 0.0
C528 C 0.29204 0.56946 0.57568 0.0
C529 C 0.30147 0.5928 0.56684 0.0
C530 C 0.3084 0.56269 0.58501 0.0
C531 C 0.33492 0.57947 0.58507 0.0
C532 C 0.34467 0.60276 0.57549 0.0
C533 C 0.32778 0.60927 0.56671 0.0
C534 C 0.29721 0.53785 0.59543 0.0
C535 C 0.37287 0.6209 0.57482 0.0
H536 H 0.37502 0.57376 0.64704 0.0
H537 H 0.38129 0.53969 0.58872 0.0
H538 H 0.35328 0.61011 0.62296 0.0
H539 H 0.32657 0.58176 0.63143 0.0
H540 H 0.35469 0.59653 0.64815 0.0
H541 H 0.36739 0.54538 0.55466 0.0
H542 H 0.33594 0.54048 0.55865 0.0
H543 H 0.36152 0.57035 0.55202 0.0
H544 H 0.27172 0.5567 0.57594 0.0
H545 H 0.33519 0.62726 0.55972 0.0
H546 H 0.30197 0.54006 0.61301 0.0
H547 H 0.30552 0.52752 0.58805 0.0
H548 H 0.27621 0.52679 0.59368 0.0
H549 H 0.3802 0.62673 0.59159 0.0
H550 H 0.3775 0.63741 0.56524 0.0
H551 H 0.38305 0.61223 0.56764 0.0
C552 C 0.83252 0.40704 0.74504 0.0
C553 C 0.84192 0.40537 0.7653 0.0
C554 C 0.81024 0.3872 0.73642 0.0
C555 C 0.79689 0.36535 0.74853 0.0
C556 C 0.80669 0.36335 0.76873 0.0
C557 C 0.82918 0.38335 0.77681 0.0
C558 C 0.80059 0.38987 0.71467 0.0
C559 C 0.79286 0.34046 0.78225 0.0
C560 C 0.72576 0.3255 0.73963 0.0
C561 C 0.7241 0.3061 0.72726 0.0
C562 C 0.74935 0.34491 0.74658 0.0
C563 C 0.77188 0.34512 0.74078 0.0
C564 C 0.7704 0.3258 0.72802 0.0
C565 C 0.74651 0.30643 0.72154 0.0
C566 C 0.75012 0.36503 0.76039 0.0
C567 C 0.79404 0.32557 0.7213 0.0
H568 H 0.84247 0.42401 0.73606 0.0
H569 H 0.83622 0.38212 0.79261 0.0
H570 H 0.79684 0.37437 0.7038 0.0
H571 H 0.78233 0.38938 0.7169 0.0
H572 H 0.81424 0.40727 0.70653 0.0
H573 H 0.8037 0.34137 0.79702 0.0
H574 H 0.77415 0.33767 0.78736 0.0
H575 H 0.78916 0.32423 0.77248 0.0
H576 H 0.70856 0.32536 0.7442 0.0
H577 H 0.74541 0.29158 0.71187 0.0
H578 H 0.76182 0.38295 0.75232 0.0
H579 H 0.75919 0.36607 0.77627 0.0
H580 H 0.73088 0.36217 0.76345 0.0
H581 H 0.80711 0.34261 0.71244 0.0
H582 H 0.7897 0.30965 0.71073 0.0
H583 H 0.80429 0.32504 0.73592 0.0
C584 C 0.45437 0.83956 0.94472 0.0
C585 C 0.443 0.8506 0.93341 0.0
C586 C 0.44964 0.81624 0.93885 0.0
C587 C 0.43311 0.80362 0.92126 0.0
C588 C 0.42292 0.8153 0.90889 0.0
C589 C 0.42795 0.83866 0.91514 0.0
C590 C 0.46088 0.80443 0.95249 0.0
C591 C 0.40542 0.80255 0.88989 0.0
C592 C 0.4292 0.74466 0.90216 0.0
C593 C 0.40808 0.72712 0.91389 0.0
C594 C 0.4373 0.76968 0.90391 0.0
C595 C 0.42398 0.77722 0.91774 0.0
C596 C 0.40232 0.75951 0.92921 0.0
C597 C 0.39464 0.73473 0.92712 0.0
C598 C 0.4604 0.78805 0.89136 0.0
C599 C 0.38756 0.76678 0.94414 0.0
H600 H 0.46578 0.8485 0.95901 0.0
H601 H 0.4194 0.84725 0.90616 0.0
H602 H 0.4456 0.7894 0.96214 0.0
H603 H 0.46944 0.79628 0.94198 0.0
H604 H 0.47564 0.81765 0.96389 0.0
H605 H 0.40201 0.81525 0.88016 0.0
H606 H 0.41341 0.79406 0.8791 0.0
H607 H 0.38687 0.78764 0.89598 0.0
H608 H 0.43964 0.7389 0.89186 0.0
H609 H 0.37824 0.7213 0.93618 0.0
H610 H 0.47581 0.79997 0.90285 0.0
H611 H 0.45588 0.80005 0.88176 0.0
H612 H 0.46757 0.77913 0.88016 0.0
H613 H 0.40001 0.77847 0.95756 0.0
H614 H 0.37068 0.7507 0.95134 0.0
H615 H 0.3811 0.77768 0.93512 0.0
C616 C 0.59838 0.43694 0.09805 0.0
C617 C 0.59144 0.42871 0.11942 0.0
C618 C 0.61816 0.43569 0.0876 0.0
C619 C 0.63161 0.42656 0.09905 0.0
C620 C 0.62456 0.41818 0.12064 0.0
C621 C 0.6044 0.41915 0.13048 0.0
C622 C 0.6248 0.44431 0.06442 0.0
C623 C 0.63874 0.40877 0.13354 0.0
C624 C 0.67143 0.40481 0.06989 0.0
C625 C 0.69595 0.42527 0.07198 0.0
C626 C 0.65016 0.40524 0.07797 0.0
C627 C 0.65361 0.42645 0.08882 0.0
C628 C 0.6783 0.44723 0.09082 0.0
C629 C 0.69914 0.44647 0.08217 0.0
C630 C 0.62407 0.38292 0.07515 0.0
C631 C 0.6828 0.47001 0.10266 0.0
H632 H 0.58825 0.44424 0.08951 0.0
H633 H 0.59921 0.41309 0.14713 0.0
H634 H 0.6444 0.46031 0.06368 0.0
H635 H 0.62437 0.42968 0.05413 0.0
H636 H 0.61158 0.44959 0.05742 0.0
H637 H 0.63074 0.4028 0.1501 0.0
H638 H 0.63816 0.3931 0.12493 0.0
H639 H 0.65902 0.4233 0.13507 0.0
H640 H 0.66883 0.38845 0.06185 0.0
H641 H 0.71806 0.4623 0.08392 0.0
H642 H 0.6111 0.38807 0.06744 0.0
H643 H 0.61595 0.37506 0.09127 0.0
H644 H 0.62444 0.36855 0.06503 0.0
H645 H 0.67133 0.47706 0.0952 0.0
H646 H 0.70311 0.48475 0.10244 0.0
H647 H 0.67659 0.46557 0.11983 0.0
C648 C 0.3961 0.83064 0.50016 0.0
C649 C 0.42198 0.84252 0.50548 0.0
C650 C 0.37889 0.8075 0.50853 0.0
C651 C 0.38774 0.79603 0.52274 0.0
C652 C 0.41364 0.80842 0.52899 0.0
C653 C 0.43053 0.83147 0.52014 0.0
C654 C 0.35149 0.79482 0.50126 0.0
C655 C 0.42368 0.79694 0.54438 0.0
C656 C 0.33613 0.74063 0.55259 0.0
C657 C 0.33333 0.72142 0.53922 0.0
C658 C 0.35454 0.76503 0.548 0.0
C659 C 0.37023 0.77029 0.52945 0.0
C660 C 0.36797 0.7509 0.51628 0.0
C661 C 0.34966 0.72672 0.52141 0.0
C662 C 0.35669 0.7852 0.5626 0.0
C663 C 0.38418 0.75575 0.49624 0.0
H664 H 0.38946 0.83895 0.4886 0.0
H665 H 0.4505 0.84071 0.52439 0.0
H666 H 0.34699 0.77831 0.49153 0.0
H667 H 0.33863 0.78863 0.51555 0.0
H668 H 0.34734 0.80684 0.49124 0.0
H669 H 0.44355 0.80999 0.54948 0.0
H670 H 0.41153 0.79014 0.55909 0.0
H671 H 0.42312 0.78098 0.53637 0.0
H672 H 0.32366 0.73665 0.56647 0.0
H673 H 0.34763 0.71198 0.51101 0.0
H674 H 0.35046 0.79632 0.55365 0.0
H675 H 0.37677 0.79761 0.56746 0.0
H676 H 0.34491 0.77797 0.5775 0.0
H677 H 0.37998 0.76624 0.48432 0.0
H678 H 0.38085 0.73861 0.48829 0.0
H679 H 0.40461 0.76704 0.50049 0.0
C680 C 0.54679 0.37315 0.69695 0.0
C681 C 0.56458 0.39825 0.69502 0.0
C682 C 0.55442 0.35643 0.70235 0.0
C683 C 0.58037 0.36506 0.70658 0.0
C684 C 0.5981 0.3905 0.70641 0.0
C685 C 0.59009 0.40674 0.70035 0.0
C686 C 0.53495 0.32942 0.70212 0.0
C687 C 0.62586 0.40049 0.71135 0.0
C688 C 0.59843 0.32097 0.73062 0.0
C689 C 0.60706 0.31435 0.71211 0.0
C690 C 0.58995 0.33772 0.7292 0.0
C691 C 0.58944 0.34746 0.7087 0.0
C692 C 0.59778 0.34049 0.68994 0.0
C693 C 0.60681 0.32429 0.69193 0.0
C694 C 0.58187 0.34526 0.74962 0.0
C695 C 0.59702 0.35002 0.66769 0.0
H696 H 0.52693 0.36638 0.6935 0.0
H697 H 0.60416 0.42597 0.69876 0.0
H698 H 0.53889 0.32053 0.68827 0.0
H699 H 0.53619 0.32065 0.71721 0.0
H700 H 0.51525 0.32581 0.70046 0.0
H701 H 0.63635 0.42064 0.7138 0.0
H702 H 0.62802 0.39182 0.72614 0.0
H703 H 0.63481 0.39617 0.69767 0.0
H704 H 0.59877 0.3134 0.74626 0.0
H705 H 0.61327 0.31904 0.67756 0.0
H706 H 0.56189 0.34079 0.74812 0.0
H707 H 0.59376 0.36536 0.75193 0.0
H708 H 0.58357 0.33614 0.76432 0.0
H709 H 0.57744 0.34579 0.66399 0.0
H710 H 0.60323 0.34203 0.65465 0.0
H711 H 0.60953 0.3702 0.66739 0.0
C712 C 0.18935 0.60171 0.87034 0.0
C713 C 0.1804 0.58734 0.85144 0.0
C714 C 0.21071 0.60446 0.88139 0.0
C715 C 0.22361 0.59292 0.87306 0.0
C716 C 0.21427 0.57793 0.85425 0.0
C717 C 0.19267 0.5752 0.84375 0.0
C718 C 0.21986 0.62023 0.90161 0.0
C719 C 0.2277 0.5656 0.84469 0.0
C720 C 0.29397 0.62158 0.88492 0.0
C721 C 0.29406 0.60553 0.90039 0.0
C722 C 0.27113 0.6178 0.87609 0.0
C723 C 0.24778 0.59769 0.88314 0.0
C724 C 0.24767 0.58176 0.89916 0.0
C725 C 0.27084 0.58575 0.90747 0.0
C726 C 0.27205 0.63501 0.85882 0.0
C727 C 0.2231 0.56036 0.9073 0.0
H728 H 0.17975 0.61096 0.87636 0.0
H729 H 0.18595 0.56433 0.82897 0.0
H730 H 0.22235 0.61012 0.91507 0.0
H731 H 0.23866 0.63672 0.89848 0.0
H732 H 0.2065 0.62621 0.90698 0.0
H733 H 0.21733 0.55367 0.83058 0.0
H734 H 0.24704 0.57966 0.83929 0.0
H735 H 0.22997 0.55436 0.85719 0.0
H736 H 0.31182 0.63684 0.8793 0.0
H737 H 0.27076 0.57337 0.91953 0.0
H738 H 0.26065 0.64325 0.86398 0.0
H739 H 0.26356 0.6247 0.84353 0.0
H740 H 0.29175 0.64997 0.85536 0.0
H741 H 0.21027 0.56673 0.9132 0.0
H742 H 0.22621 0.55053 0.92068 0.0
H743 H 0.21319 0.54725 0.89379 0.0
C744 C 0.59174 0.20083 0.02422 0.0
C745 C 0.59826 0.18817 0.00926 0.0
C746 C 0.61 0.22419 0.03179 0.0
C747 C 0.63527 0.23522 0.02399 0.0
C748 C 0.6422 0.22205 0.00967 0.0
C749 C 0.62362 0.19864 0.00253 0.0
C750 C 0.60197 0.23752 0.04732 0.0
C751 C 0.66889 0.23323 0.00085 0.0
C752 C 0.67298 0.30439 0.01994 0.0
C753 C 0.6897 0.31097 0.0376 0.0
C754 C 0.65515 0.27981 0.01544 0.0
C755 C 0.65382 0.26132 0.02906 0.0
C756 C 0.67044 0.26783 0.04706 0.0
C757 C 0.68831 0.2926 0.05106 0.0
C758 C 0.63791 0.27361 -0.00404 0.0
C759 C 0.66938 0.24862 0.06203 0.0
H760 H 0.57219 0.19267 0.02961 0.0
H761 H 0.62869 0.18907 0.99076 0.0
H762 H 0.61537 0.24515 0.06122 0.0
H763 H 0.60247 0.25311 0.03886 0.0
H764 H 0.58247 0.22544 0.05371 0.0
H765 H 0.67175 0.21981 0.99147 0.0
H766 H 0.67293 0.24868 0.99 0.0
H767 H 0.68294 0.24072 0.01428 0.0
H768 H 0.67397 0.31847 0.00945 0.0
H769 H 0.70111 0.29759 0.06479 0.0
H770 H 0.61774 0.26341 0.00121 0.0
H771 H 0.64077 0.26157 0.9846 0.0
H772 H 0.64137 0.29015 0.98701 0.0
H773 H 0.64998 0.23747 0.06888 0.0
H774 H 0.68315 0.25673 0.07566 0.0
H775 H 0.67351 0.236 0.05276 0.0
C776 C 0.41597 0.60786 0.205 0.0
C777 C 0.43182 0.61096 0.18727 0.0
C778 C 0.41041 0.62606 0.21076 0.0
C779 C 0.42091 0.64782 0.19845 0.0
C780 C 0.43798 0.65159 0.18128 0.0
C781 C 0.4432 0.63312 0.17589 0.0
C782 C 0.39229 0.62147 0.22929 0.0
C783 C 0.44955 0.67451 0.16772 0.0
C784 C 0.38319 0.67977 0.19266 0.0
C785 C 0.39638 0.70009 0.20648 0.0
C786 C 0.39077 0.66247 0.19024 0.0
C787 C 0.41208 0.66549 0.20195 0.0
C788 C 0.42527 0.68574 0.2162 0.0
C789 C 0.41727 0.70284 0.2183 0.0
C790 C 0.37618 0.64113 0.17485 0.0
C791 C 0.44804 0.68951 0.22896 0.0
H792 H 0.40737 0.59091 0.21403 0.0
H793 H 0.45519 0.63556 0.16198 0.0
H794 H 0.40025 0.63747 0.24046 0.0
H795 H 0.37418 0.61886 0.22278 0.0
H796 H 0.38805 0.60498 0.23875 0.0
H797 H 0.46438 0.67573 0.15645 0.0
H798 H 0.43448 0.67478 0.15797 0.0
H799 H 0.45813 0.691 0.17833 0.0
H800 H 0.36699 0.67746 0.18352 0.0
H801 H 0.42752 0.71846 0.22905 0.0
H802 H 0.36923 0.62365 0.18359 0.0
H803 H 0.38891 0.64177 0.16164 0.0
H804 H 0.35965 0.64109 0.1674 0.0
H805 H 0.44297 0.67298 0.23865 0.0
H806 H 0.45549 0.70554 0.24012 0.0
H807 H 0.46344 0.69229 0.21763 0.0
C808 C 0.81002 0.43527 0.33459 0.0
C809 C 0.82698 0.43044 0.34564 0.0
C810 C 0.78885 0.43358 0.34516 0.0
C811 C 0.78453 0.42692 0.36734 0.0
C812 C 0.80168 0.42223 0.37868 0.0
C813 C 0.8227 0.42398 0.36766 0.0
C814 C 0.77091 0.43859 0.33247 0.0
C815 C 0.79773 0.41522 0.40238 0.0
C816 C 0.74067 0.44309 0.39733 0.0
C817 C 0.71741 0.42089 0.39639 0.0
C818 C 0.76286 0.44513 0.38852 0.0
C819 C 0.76175 0.42451 0.37846 0.0
C820 C 0.73852 0.40189 0.37796 0.0
C821 C 0.71664 0.40034 0.38696 0.0
C822 C 0.78734 0.46953 0.38944 0.0
C823 C 0.73659 0.37951 0.36734 0.0
H824 H 0.813 0.43987 0.31748 0.0
H825 H 0.83588 0.42043 0.37631 0.0
H826 H 0.75164 0.42204 0.33227 0.0
H827 H 0.76929 0.45345 0.34045 0.0
H828 H 0.77722 0.44395 0.31541 0.0
H829 H 0.8131 0.41265 0.40895 0.0
H830 H 0.79691 0.42956 0.41213 0.0
H831 H 0.7793 0.39798 0.40454 0.0
H832 H 0.7415 0.45905 0.40466 0.0
H833 H 0.69879 0.38309 0.38619 0.0
H834 H 0.79343 0.47658 0.37272 0.0
H835 H 0.80266 0.4674 0.39671 0.0
H836 H 0.78539 0.48335 0.39905 0.0
H837 H 0.74074 0.38282 0.34971 0.0
H838 H 0.71745 0.363 0.36931 0.0
H839 H 0.75092 0.37573 0.37435 0.0
C840 C 0.15358 0.60268 0.40324 0.0
C841 C 0.1318 0.57939 0.40501 0.0
C842 C 0.16979 0.61379 0.42106 0.0
C843 C 0.16404 0.60132 0.44112 0.0
C844 C 0.14127 0.57848 0.44337 0.0
C845 C 0.12545 0.56773 0.42524 0.0
C846 C 0.19392 0.63812 0.41799 0.0
C847 C 0.13433 0.56474 0.46458 0.0
C848 C 0.21897 0.61165 0.4769 0.0
C849 C 0.21891 0.62729 0.49305 0.0
C850 C 0.20137 0.60334 0.45982 0.0
C851 C 0.18314 0.61074 0.45892 0.0
C852 C 0.18314 0.62678 0.47501 0.0
C853 C 0.20113 0.63496 0.49189 0.0
C854 C 0.20215 0.58641 0.44285 0.0
C855 C 0.16393 0.63497 0.47457 0.0
H856 H 0.15874 0.61166 0.38758 0.0
H857 H 0.10847 0.54986 0.42672 0.0
H858 H 0.1964 0.65091 0.43142 0.0
H859 H 0.21049 0.63547 0.41836 0.0
H860 H 0.19412 0.64674 0.40229 0.0
H861 H 0.1147 0.54868 0.46436 0.0
H862 H 0.14772 0.55822 0.46781 0.0
H863 H 0.13604 0.57698 0.47825 0.0
H864 H 0.23273 0.60574 0.47765 0.0
H865 H 0.20097 0.64703 0.50436 0.0
H866 H 0.20446 0.59441 0.42643 0.0
H867 H 0.18394 0.56868 0.44288 0.0
H868 H 0.2179 0.58285 0.44565 0.0
H869 H 0.16503 0.64393 0.45887 0.0
H870 H 0.16685 0.64793 0.48801 0.0
H871 H 0.14445 0.61885 0.47588 0.0
C872 C 0.55648 0.15168 0.56864 0.0
C873 C 0.56837 0.13807 0.56514 0.0
C874 C 0.56081 0.16533 0.58784 0.0
C875 C 0.57705 0.16494 0.60397 0.0
C876 C 0.58784 0.15 0.60101 0.0
C877 C 0.5836 0.13695 0.58148 0.0
C878 C 0.54929 0.18132 0.59024 0.0
C879 C 0.60485 0.14871 0.61802 0.0
C880 C 0.61585 0.2207 0.63961 0.0
C881 C 0.60218 0.21373 0.65915 0.0
C882 C 0.60737 0.20525 0.62136 0.0
C883 C 0.58496 0.18202 0.62283 0.0
C884 C 0.57086 0.17497 0.64244 0.0
C885 C 0.57953 0.19107 0.66036 0.0
C886 C 0.62268 0.21365 0.6006 0.0
C887 C 0.54712 0.15019 0.64469 0.0
H888 H 0.54487 0.15266 0.55587 0.0
H889 H 0.59264 0.12626 0.57875 0.0
H890 H 0.53993 0.17849 0.60631 0.0
H891 H 0.56455 0.20083 0.58942 0.0
H892 H 0.53515 0.1777 0.57731 0.0
H893 H 0.60926 0.13413 0.61436 0.0
H894 H 0.62299 0.16648 0.6189 0.0
H895 H 0.59578 0.14529 0.63428 0.0
H896 H 0.63326 0.23831 0.63859 0.0
H897 H 0.56899 0.1856 0.6755 0.0
H898 H 0.61032 0.21226 0.58685 0.0
H899 H 0.63042 0.20163 0.59671 0.0
H900 H 0.63877 0.23281 0.60177 0.0
H901 H 0.53336 0.14736 0.63168 0.0
H902 H 0.53775 0.14791 0.66072 0.0
H903 H 0.55196 0.13567 0.64275 0.0
C904 C 0.38959 0.5379 0.77587 0.0
C905 C 0.41051 0.5504 0.76187 0.0
C906 C 0.38758 0.54884 0.79506 0.0
C907 C 0.40744 0.5725 0.80096 0.0
C908 C 0.42906 0.58491 0.78744 0.0
C909 C 0.43013 0.57392 0.76788 0.0
C910 C 0.36396 0.53518 0.80885 0.0
C911 C 0.45096 0.60988 0.79353 0.0
C912 C 0.39059 0.60886 0.83971 0.0
C913 C 0.39639 0.60278 0.85985 0.0
C914 C 0.39447 0.59943 0.82032 0.0
C915 C 0.40523 0.5843 0.82115 0.0
C916 C 0.41237 0.57921 0.84142 0.0
C917 C 0.40738 0.58813 0.8606 0.0
C918 C 0.3859 0.60466 0.79909 0.0
C919 C 0.42473 0.5639 0.8429 0.0
H920 H 0.37461 0.51951 0.77185 0.0
H921 H 0.44622 0.58404 0.75717 0.0
H922 H 0.36903 0.53184 0.82523 0.0
H923 H 0.35491 0.54638 0.81106 0.0
H924 H 0.3498 0.51731 0.80153 0.0
H925 H 0.46725 0.61622 0.78216 0.0
H926 H 0.44464 0.62342 0.79354 0.0
H927 H 0.45761 0.60957 0.81023 0.0
H928 H 0.38187 0.62002 0.83919 0.0
H929 H 0.41203 0.58361 0.87621 0.0
H930 H 0.37062 0.58729 0.79188 0.0
H931 H 0.40182 0.61272 0.78729 0.0
H932 H 0.3786 0.61736 0.80118 0.0
H933 H 0.41092 0.54475 0.83811 0.0
H934 H 0.43161 0.56388 0.85958 0.0
H935 H 0.44102 0.57082 0.83148 0.0
C936 C 0.85177 0.43219 0.90084 0.0
C937 C 0.87022 0.4569 0.89816 0.0
C938 C 0.83739 0.42405 0.92 0.0
C939 C 0.842 0.44098 0.937 0.0
C940 C 0.86112 0.46585 0.93457 0.0
C941 C 0.87482 0.47358 0.91503 0.0
C942 C 0.81683 0.39749 0.92181 0.0
C943 C 0.86692 0.48432 0.95251 0.0
C944 C 0.78897 0.42632 0.97721 0.0
C945 C 0.79555 0.4165 0.99459 0.0
C946 C 0.80387 0.43424 0.95832 0.0
C947 C 0.82618 0.43279 0.95701 0.0
C948 C 0.83314 0.42325 0.97466 0.0
C949 C 0.81756 0.41495 0.99317 0.0
C950 C 0.79556 0.44384 0.93965 0.0
C951 C 0.85707 0.42189 0.97401 0.0
H952 H 0.8481 0.41937 0.88766 0.0
H953 H 0.88923 0.49266 0.91293 0.0
H954 H 0.82015 0.38922 0.93631 0.0
H955 H 0.7981 0.39605 0.924 0.0
H956 H 0.81589 0.38664 0.90722 0.0
H957 H 0.88336 0.50262 0.94852 0.0
H958 H 0.85011 0.48619 0.95556 0.0
H959 H 0.87109 0.47795 0.96785 0.0
H960 H 0.77188 0.42741 0.97821 0.0
H961 H 0.82277 0.4075 0.00664 0.0
H962 H 0.79291 0.43275 0.9248 0.0
H963 H 0.81048 0.46294 0.936 0.0
H964 H 0.77752 0.44343 0.94316 0.0
H965 H 0.85604 0.40983 0.96043 0.0
H966 H 0.86024 0.41478 0.98939 0.0
H967 H 0.87376 0.44031 0.97095 0.0
C968 C 0.44066 0.86439 0.06517 0.0
C969 C 0.43147 0.88052 0.0639 0.0
C970 C 0.43543 0.84932 0.08333 0.0
C971 C 0.42103 0.85078 0.10074 0.0
C972 C 0.41254 0.86773 0.09987 0.0
C973 C 0.41764 0.88224 0.08132 0.0
C974 C 0.44444 0.83119 0.08351 0.0
C975 C 0.39754 0.87013 0.11828 0.0
C976 C 0.38272 0.79553 0.13661 0.0
C977 C 0.39838 0.80153 0.15494 0.0
C978 C 0.39014 0.81119 0.11869 0.0
C979 C 0.41358 0.83363 0.1193 0.0
C980 C 0.42956 0.83975 0.13772 0.0
C981 C 0.42186 0.82349 0.15527 0.0
C982 C 0.3728 0.80381 0.09916 0.0
C983 C 0.45449 0.86368 0.13907 0.0
H984 H 0.45113 0.8629 0.05157 0.0
H985 H 0.4107 0.89486 0.08036 0.0
H986 H 0.45551 0.8335 0.09848 0.0
H987 H 0.42779 0.8123 0.0836 0.0
H988 H 0.45643 0.83317 0.06917 0.0
H989 H 0.39404 0.88547 0.11579 0.0
H990 H 0.37894 0.85294 0.11982 0.0
H991 H 0.40779 0.87312 0.13389 0.0
H992 H 0.36462 0.7785 0.13625 0.0
H993 H 0.43397 0.82825 0.16947 0.0
H994 H 0.38324 0.80407 0.08427 0.0
H995 H 0.36641 0.81712 0.09676 0.0
H996 H 0.35576 0.78528 0.10089 0.0
H997 H 0.46685 0.86528 0.12518 0.0
H998 H 0.46484 0.86557 0.15444 0.0
H999 H 0.45101 0.87915 0.13797 0.0
C1000 C 0.58454 0.44199 0.25879 0.0
C1001 C 0.5605 0.43969 0.25802 0.0
C1002 C 0.59445 0.43922 0.27836 0.0
C1003 C 0.57991 0.43393 0.29764 0.0
C1004 C 0.5558 0.43194 0.29708 0.0
C1005 C 0.54637 0.43486 0.27726 0.0
C1006 C 0.62024 0.44146 0.27831 0.0
C1007 C 0.5398 0.42636 0.31734 0.0
C1008 C 0.59445 0.40241 0.34268 0.0
C1009 C 0.6096 0.42202 0.35672 0.0
C1010 C 0.58443 0.406 0.32353 0.0
C1011 C 0.58971 0.42978 0.31825 0.0
C1012 C 0.60482 0.44964 0.33239 0.0
C1013 C 0.61457 0.44552 0.35146 0.0
C1014 C 0.56834 0.38437 0.30885 0.0
C1015 C 0.6109 0.47526 0.32724 0.0
H1016 H 0.59539 0.44533 0.24393 0.0
H1017 H 0.5279 0.43332 0.27681 0.0
H1018 H 0.63287 0.45542 0.29038 0.0
H1019 H 0.61831 0.42381 0.28315 0.0
H1020 H 0.62953 0.44658 0.26211 0.0
H1021 H 0.52176 0.42607 0.31426 0.0
H1022 H 0.53516 0.40831 0.32383 0.0
H1023 H 0.5506 0.44021 0.33013 0.0
H1024 H 0.59043 0.38418 0.3466 0.0
H1025 H 0.62623 0.4608 0.36219 0.0
H1026 H 0.57744 0.38737 0.29264 0.0
H1027 H 0.54944 0.38242 0.3064 0.0
H1028 H 0.56556 0.36697 0.31553 0.0
H1029 H 0.6215 0.4813 0.31168 0.0
H1030 H 0.62245 0.48862 0.34017 0.0
H1031 H 0.59308 0.47559 0.32513 0.0
C1032 C 0.4581 0.8731 0.35233 0.0
C1033 C 0.44446 0.8815 0.36442 0.0
C1034 C 0.44862 0.86032 0.33267 0.0
C1035 C 0.42444 0.8549 0.32525 0.0
C1036 C 0.4105 0.86323 0.33725 0.0
C1037 C 0.42088 0.87682 0.35642 0.0
C1038 C 0.46439 0.85234 0.32 0.0
C1039 C 0.38438 0.85735 0.33009 0.0
C1040 C 0.40591 0.83762 0.2661 0.0
C1041 C 0.3927 0.81203 0.267 0.0
C1042 C 0.41679 0.85184 0.28488 0.0
C1043 C 0.41351 0.84012 0.30511 0.0
C1044 C 0.39983 0.81423 0.30613 0.0
C1045 C 0.38998 0.80048 0.28695 0.0
C1046 C 0.43204 0.87936 0.28302 0.0
C1047 C 0.39526 0.80108 0.3275 0.0
H1048 H 0.47604 0.87601 0.35839 0.0
H1049 H 0.41033 0.88363 0.36519 0.0
H1050 H 0.45474 0.83209 0.31978 0.0
H1051 H 0.46635 0.85841 0.30286 0.0
H1052 H 0.48367 0.85978 0.32702 0.0
H1053 H 0.37573 0.86465 0.34156 0.0
H1054 H 0.38541 0.8651 0.31377 0.0
H1055 H 0.37162 0.83724 0.32874 0.0
H1056 H 0.40819 0.84653 0.2506 0.0
H1057 H 0.37956 0.78067 0.28763 0.0
H1058 H 0.45148 0.88641 0.28951 0.0
H1059 H 0.42315 0.88765 0.29292 0.0
H1060 H 0.43356 0.88556 0.26595 0.0
H1061 H 0.41364 0.80558 0.33493 0.0
H1062 H 0.38341 0.7809 0.32559 0.0
H1063 H 0.38565 0.80726 0.33903 0.0
C1064 C 0.55667 0.42232 0.55859 0.0
C1065 C 0.56621 0.44723 0.56264 0.0
C1066 C 0.56312 0.41445 0.53956 0.0
C1067 C 0.57914 0.43193 0.52405 0.0
C1068 C 0.5882 0.45709 0.52776 0.0
C1069 C 0.58186 0.46449 0.54718 0.0
C1070 C 0.5535 0.38752 0.53642 0.0
C1071 C 0.60492 0.4762 0.51138 0.0
C1072 C 0.61752 0.41498 0.48695 0.0
C1073 C 0.60252 0.40715 0.46813 0.0
C1074 C 0.61011 0.42311 0.50525 0.0
C1075 C 0.58742 0.42391 0.50453 0.0
C1076 C 0.57239 0.41639 0.48543 0.0
C1077 C 0.57997 0.40781 0.46751 0.0
C1078 C 0.62638 0.43049 0.52547 0.0
C1079 C 0.54833 0.41744 0.48394 0.0
H1080 H 0.54483 0.40901 0.5707 0.0
H1081 H 0.58913 0.48375 0.55033 0.0
H1082 H 0.54311 0.381 0.52079 0.0
H1083 H 0.56981 0.38448 0.53565 0.0
H1084 H 0.54066 0.37625 0.54977 0.0
H1085 H 0.6088 0.49473 0.51597 0.0
H1086 H 0.6233 0.47679 0.50992 0.0
H1087 H 0.59581 0.47136 0.49511 0.0
H1088 H 0.63491 0.41439 0.4875 0.0
H1089 H 0.56844 0.40196 0.45291 0.0
H1090 H 0.61505 0.41897 0.53934 0.0
H1091 H 0.6328 0.44974 0.52984 0.0
H1092 H 0.64338 0.42865 0.5234 0.0
H1093 H 0.53443 0.40521 0.49625 0.0
H1094 H 0.53937 0.41191 0.46762 0.0
H1095 H 0.55252 0.43627 0.48757 0.0
C1096 C 0.15638 0.62111 0.69685 0.0
C1097 C 0.14615 0.59805 0.70663 0.0
C1098 C 0.16828 0.62584 0.67644 0.0
C1099 C 0.17085 0.60738 0.66586 0.0
C1100 C 0.16055 0.58409 0.67552 0.0
C1101 C 0.14791 0.57957 0.69552 0.0
C1102 C 0.17837 0.65069 0.66633 0.0
C1103 C 0.16331 0.56404 0.66492 0.0
C1104 C 0.1841 0.60865 0.60542 0.0
C1105 C 0.21044 0.61833 0.60524 0.0
C1106 C 0.17112 0.60606 0.62499 0.0
C1107 C 0.1847 0.61244 0.64485 0.0
C1108 C 0.21138 0.6225 0.6447 0.0
C1109 C 0.22401 0.62572 0.62481 0.0
C1110 C 0.14283 0.5961 0.62443 0.0
C1111 C 0.22641 0.62885 0.66558 0.0
H1112 H 0.1556 0.63573 0.70528 0.0
H1113 H 0.13954 0.56148 0.70248 0.0
H1114 H 0.19939 0.66028 0.66529 0.0
H1115 H 0.17104 0.64867 0.6495 0.0
H1116 H 0.17301 0.66234 0.67578 0.0
H1117 H 0.15494 0.54719 0.67491 0.0
H1118 H 0.1539 0.55929 0.64879 0.0
H1119 H 0.18372 0.57049 0.6622 0.0
H1120 H 0.17367 0.60311 0.59022 0.0
H1121 H 0.24435 0.63301 0.62464 0.0
H1122 H 0.13811 0.60824 0.63383 0.0
H1123 H 0.13267 0.57785 0.63217 0.0
H1124 H 0.13557 0.59428 0.60757 0.0
H1125 H 0.22353 0.64198 0.67533 0.0
H1126 H 0.2471 0.63695 0.66262 0.0
H1127 H 0.21955 0.61212 0.6755 0.0
C1128 C 0.58472 0.14247 0.86043 0.0
C1129 C 0.56211 0.13969 0.86911 0.0
C1130 C 0.59451 0.1544 0.84059 0.0
C1131 C 0.58088 0.1629 0.82863 0.0
C1132 C 0.55737 0.15898 0.83661 0.0
C1133 C 0.54851 0.14785 0.85689 0.0
C1134 C 0.61993 0.15869 0.83283 0.0
C1135 C 0.5419 0.16715 0.82399 0.0
C1136 C 0.61638 0.2161 0.78997 0.0
C1137 C 0.61277 0.20401 0.77002 0.0
C1138 C 0.60648 0.20289 0.80923 0.0
C1139 C 0.59183 0.17701 0.80833 0.0
C1140 C 0.58774 0.16474 0.78812 0.0
C1141 C 0.59869 0.17841 0.76922 0.0
C1142 C 0.61193 0.21661 0.83056 0.0
C1143 C 0.57147 0.13724 0.78642 0.0
H1144 H 0.5951 0.13567 0.86927 0.0
H1145 H 0.53126 0.14624 0.8634 0.0
H1146 H 0.61805 0.15063 0.81641 0.0
H1147 H 0.63357 0.17864 0.83151 0.0
H1148 H 0.62804 0.15075 0.84396 0.0
H1149 H 0.52277 0.16027 0.8312 0.0
H1150 H 0.55196 0.18741 0.82369 0.0
H1151 H 0.53957 0.16067 0.80689 0.0
H1152 H 0.62743 0.23592 0.79056 0.0
H1153 H 0.59571 0.16911 0.7537 0.0
H1154 H 0.62103 0.20998 0.84203 0.0
H1155 H 0.59391 0.21314 0.83812 0.0
H1156 H 0.62458 0.23666 0.82854 0.0
H1157 H 0.57971 0.12852 0.79637 0.0
H1158 H 0.56958 0.13057 0.76939 0.0
H1159 H 0.55221 0.13111 0.79296 0.0
C1160 C 0.45284 0.60241 0.05748 0.0
C1161 C 0.4403 0.57682 0.05811 0.0
C1162 C 0.45019 0.61444 0.03954 0.0
C1163 C 0.43487 0.60047 0.02177 0.0
C1164 C 0.42339 0.57468 0.02182 0.0
C1165 C 0.42608 0.56314 0.0401 0.0
C1166 C 0.4625 0.64193 0.04019 0.0
C1167 C 0.40726 0.55919 0.00303 0.0
C1168 C 0.39949 0.62357 0.98855 0.0
C1169 C 0.41412 0.63151 0.96955 0.0
C1170 C 0.40659 0.61424 0.00595 0.0
C1171 C 0.42867 0.61246 0.00416 0.0
C1172 C 0.44391 0.62102 0.98523 0.0
C1173 C 0.43654 0.63064 0.96817 0.0
C1174 C 0.39006 0.60568 0.02603 0.0
C1175 C 0.46743 0.61918 0.98269 0.0
H1176 H 0.46366 0.61298 0.07151 0.0
H1177 H 0.41657 0.54335 0.04054 0.0
H1178 H 0.47288 0.65005 0.02483 0.0
H1179 H 0.44759 0.64687 0.04178 0.0
H1180 H 0.47594 0.65025 0.05402 0.0
H1181 H 0.40196 0.53974 0.00457 0.0
H1182 H 0.38958 0.55997 0.00224 0.0
H1183 H 0.4175 0.56636 0.98743 0.0
H1184 H 0.38225 0.62439 0.98974 0.0
H1185 H 0.44786 0.63669 0.95346 0.0
H1186 H 0.40169 0.61451 0.04075 0.0
H1187 H 0.38152 0.58563 0.02783 0.0
H1188 H 0.37447 0.60979 0.0254 0.0
H1189 H 0.48024 0.62772 -0.00316 0.0
H1190 H 0.47809 0.62809 0.9676 0.0
H1191 H 0.46198 0.59964 0.98223 0.0
C1192 C 0.83681 0.4133 0.20849 0.0
C1193 C 0.8629 0.42178 0.20901 0.0
C1194 C 0.82469 0.41249 0.18894 0.0
C1195 C 0.83894 0.41982 0.16942 0.0
C1196 C 0.86524 0.42799 0.16983 0.0
C1197 C 0.87701 0.42918 0.18973 0.0
C1198 C 0.79675 0.4042 0.18925 0.0
C1199 C 0.88092 0.43544 0.14927 0.0
C1200 C 0.80124 0.39708 0.1169 0.0
C1201 C 0.80102 0.41792 0.10994 0.0
C1202 C 0.81404 0.3976 0.13598 0.0
C1203 C 0.82633 0.4193 0.14864 0.0
C1204 C 0.82604 0.44036 0.14175 0.0
C1205 C 0.81365 0.4395 0.12232 0.0
C1206 C 0.81442 0.37495 0.14257 0.0
C1207 C 0.83843 0.46366 0.15508 0.0
H1208 H 0.82603 0.40783 0.22351 0.0
H1209 H 0.89718 0.43565 0.19022 0.0
H1210 H 0.79388 0.41891 0.18287 0.0
H1211 H 0.78608 0.38802 0.17849 0.0
H1212 H 0.7885 0.39937 0.20585 0.0
H1213 H 0.90089 0.44039 0.15226 0.0
H1214 H 0.87236 0.42028 0.13719 0.0
H1215 H 0.881 0.45136 0.14191 0.0
H1216 H 0.79168 0.38042 0.10727 0.0
H1217 H 0.81338 0.45561 0.11707 0.0
H1218 H 0.80469 0.3683 0.15844 0.0
H1219 H 0.83432 0.37935 0.1447 0.0
H1220 H 0.80496 0.35994 0.13041 0.0
H1221 H 0.82983 0.46002 0.17155 0.0
H1222 H 0.83637 0.47836 0.1475 0.0
H1223 H 0.85896 0.47036 0.15717 0.0
loop_
_geom_bond_atom_site_label_1
_geom_bond_atom_site_label_2
_geom_bond_distance
_geom_bond_site_symmetry_2
_ccdc_geom_bond_type
H0 C27 0.929 . S
N1 C26 1.433 . S
N1 C32 1.435 . S
N1 C38 1.423 . S
H2 C28 0.930 . S
H3 C31 0.931 . S
H4 C30 0.929 . S
H5 C33 0.930 . S
H6 C34 0.932 . S
H7 C37 0.929 . S
H8 C36 0.931 . S
H9 C39 0.929 . S
H10 C43 0.932 . S
H11 C40 0.931 . S
H12 C42 0.929 . S
H13 C45 0.929 . S
H14 C46 0.930 . S
H15 C48 0.929 . S
H16 C49 0.931 . S
H17 C51 0.930 . S
H18 C52 0.932 . S
H19 C54 0.931 . S
H20 C55 0.929 . S
H21 C57 0.929 . S
H22 C58 0.931 . S
H23 C60 0.929 . S
N24 C44 1.433 . S
N24 C50 1.435 . S
N24 C56 1.423 . S
H25 C61 0.932 . S
C26 N1 1.433 . S
C26 C27 1.363 . S
C26 C31 1.370 . S
C27 H0 0.929 . S
C27 C26 1.363 . S
C27 C28 1.385 . S
C28 H2 0.930 . S
C28 C27 1.385 . S
C28 C29 1.357 . S
C29 C28 1.357 . S
C29 C30 1.406 . S
C30 H4 0.929 . S
C30 C29 1.406 . S
C30 C31 1.391 . S
C31 H3 0.931 . S
C31 C26 1.370 . S
C31 C30 1.391 . S
C32 N1 1.435 . S
C32 C33 1.358 . S
C32 C37 1.371 . S
C33 H5 0.930 . S
C33 C32 1.358 . S
C33 C34 1.405 . S
C34 H6 0.932 . S
C34 C33 1.405 . S
C34 C35 1.383 . S
C35 C34 1.383 . S
C35 C36 1.393 . S
C36 H8 0.931 . S
C36 C35 1.393 . S
C36 C37 1.382 . S
C37 H7 0.929 . S
C37 C32 1.371 . S
C37 C36 1.382 . S
C38 N1 1.423 . S
C38 C39 1.362 . S
C38 C43 1.388 . S
C39 H9 0.929 . S
C39 C38 1.362 . S
C39 C40 1.376 . S
C40 H11 0.931 . S
C40 C39 1.376 . S
C40 C41 1.396 . S
C41 C40 1.396 . S
C41 C42 1.348 . S
C41 C59 1.472 1_455 S
C42 H12 0.929 . S
C42 C41 1.348 . S
C42 C43 1.443 . S
C43 H10 0.932 . S
C43 C38 1.388 . S
C43 C42 1.443 . S
C44 N24 1.433 . S
C44 C45 1.363 . S
C44 C49 1.370 . S
C45 H13 0.929 . S
C45 C44 1.363 . S
C45 C46 1.385 . S
C46 H14 0.930 . S
C46 C45 1.385 . S
C46 C47 1.357 . S
C47 C46 1.357 . S
C47 C48 1.406 . S
C48 H15 0.929 . S
C48 C47 1.406 . S
C48 C49 1.391 . S
C49 H16 0.931 . S
C49 C44 1.370 . S
C49 C48 1.391 . S
C50 N24 1.435 . S
C50 C51 1.358 . S
C50 C55 1.371 . S
C51 H17 0.930 . S
C51 C50 1.358 . S
C51 C52 1.405 . S
C52 H18 0.932 . S
C52 C51 1.405 . S
C52 C53 1.383 . S
C53 C52 1.383 . S
C53 C54 1.393 . S
C54 H19 0.931 . S
C54 C53 1.393 . S
C54 C55 1.382 . S
C55 H20 0.929 . S
C55 C50 1.371 . S
C55 C54 1.382 . S
C56 N24 1.423 . S
C56 C57 1.362 . S
C56 C61 1.388 . S
C57 H21 0.929 . S
C57 C56 1.362 . S
C57 C58 1.376 . S
C58 H22 0.931 . S
C58 C57 1.376 . S
C58 C59 1.396 . S
C59 C41 1.472 1_655 S
C59 C58 1.396 . S
C59 C60 1.348 . S
C60 H23 0.929 . S
C60 C59 1.348 . S
C60 C61 1.443 . S
C61 H25 0.932 . S
C61 C56 1.388 . S
C61 C60 1.443 . S
H62 C89 0.929 . S
N63 C88 1.433 . S
N63 C94 1.435 . S
N63 C100 1.423 . S
H64 C90 0.930 . S
H65 C93 0.931 . S
H66 C92 0.929 . S
H67 C95 0.930 . S
H68 C96 0.932 . S
H69 C99 0.929 . S
H70 C98 0.931 . S
H71 C101 0.929 . S
H72 C105 0.932 . S
H73 C102 0.931 . S
H74 C104 0.929 1_545 S
H75 C107 0.929 . S
H76 C108 0.930 . S
H77 C110 0.929 . S
H78 C111 0.931 . S
H79 C113 0.930 . S
H80 C114 0.932 . S
H81 C116 0.931 . S
H82 C117 0.929 . S
H83 C119 0.929 . S
H84 C120 0.931 . S
H85 C122 0.929 . S
N86 C106 1.433 . S
N86 C112 1.435 . S
N86 C118 1.423 . S
H87 C123 0.932 . S
C88 N63 1.433 . S
C88 C89 1.363 . S
C88 C93 1.370 . S
C89 H62 0.929 . S
C89 C88 1.363 . S
C89 C90 1.385 . S
C90 H64 0.930 . S
C90 C89 1.385 . S
C90 C91 1.357 . S
C91 C90 1.357 . S
C91 C92 1.406 . S
C92 H66 0.929 . S
C92 C91 1.406 . S
C92 C93 1.391 . S
C93 H65 0.931 . S
C93 C88 1.370 . S
C93 C92 1.391 . S
C94 N63 1.435 . S
C94 C95 1.358 . S
C94 C99 1.371 . S
C95 H67 0.930 . S
C95 C94 1.358 . S
C95 C96 1.405 . S
C96 H68 0.932 . S
C96 C95 1.405 . S
C96 C97 1.383 . S
C97 C96 1.383 . S
C97 C98 1.393 . S
C98 H70 0.931 . S
C98 C97 1.393 . S
C98 C99 1.382 . S
C99 H69 0.929 . S
C99 C94 1.371 . S
C99 C98 1.382 . S
C100 N63 1.423 . S
C100 C101 1.362 . S
C100 C105 1.388 . S
C101 H71 0.929 . S
C101 C100 1.362 . S
C101 C102 1.376 . S
C102 H73 0.931 . S
C102 C101 1.376 . S
C102 C103 1.396 1_565 S
C103 C102 1.396 1_545 S
C103 C104 1.348 1_545 S
C103 C121 1.472 . S
C104 H74 0.929 1_565 S
C104 C103 1.348 1_565 S
C104 C105 1.443 . S
C105 H72 0.932 . S
C105 C100 1.388 . S
C105 C104 1.443 . S
C106 N86 1.433 . S
C106 C107 1.363 . S
C106 C111 1.370 . S
C107 H75 0.929 . S
C107 C106 1.363 . S
C107 C108 1.385 . S
C108 H76 0.930 . S
C108 C107 1.385 . S
C108 C109 1.357 . S
C109 C108 1.357 . S
C109 C110 1.406 . S
C110 H77 0.929 . S
C110 C109 1.406 . S
C110 C111 1.391 . S
C111 H78 0.931 . S
C111 C106 1.370 . S
C111 C110 1.391 . S
C112 N86 1.435 . S
C112 C113 1.358 . S
C112 C117 1.371 . S
C113 H79 0.930 . S
C113 C112 1.358 . S
C113 C114 1.405 . S
C114 H80 0.932 . S
C114 C113 1.405 . S
C114 C115 1.383 . S
C115 C114 1.383 . S
C115 C116 1.393 . S
C116 H81 0.931 . S
C116 C115 1.393 . S
C116 C117 1.382 . S
C117 H82 0.929 . S
C117 C112 1.371 . S
C117 C116 1.382 . S
C118 N86 1.423 . S
C118 C119 1.362 . S
C118 C123 1.388 . S
C119 H83 0.929 . S
C119 C118 1.362 . S
C119 C120 1.376 . S
C120 H84 0.931 . S
C120 C119 1.376 . S
C120 C121 1.396 . S
C121 C103 1.472 . S
C121 C120 1.396 . S
C121 C122 1.348 . S
C122 H85 0.929 . S
C122 C121 1.348 . S
C122 C123 1.443 . S
C123 H87 0.932 . S
C123 C118 1.388 . S
C123 C122 1.443 . S
H124 C151 0.929 . S
N125 C150 1.433 . S
N125 C156 1.435 . S
N125 C162 1.423 . S
H126 C152 0.930 . S
H127 C155 0.931 . S
H128 C154 0.929 . S
H129 C157 0.930 . S
H130 C158 0.932 . S
H131 C161 0.929 . S
H132 C160 0.931 . S
H133 C163 0.929 . S
H134 C167 0.932 . S
H135 C164 0.931 . S
H136 C166 0.929 . S
H137 C169 0.929 . S
H138 C170 0.930 . S
H139 C172 0.929 . S
H140 C173 0.931 . S
H141 C175 0.930 . S
H142 C176 0.932 . S
H143 C178 0.931 . S
H144 C179 0.929 . S
H145 C181 0.929 . S
H146 C182 0.931 . S
H147 C184 0.929 . S
N148 C168 1.433 . S
N148 C174 1.435 . S
N148 C180 1.423 . S
H149 C185 0.932 . S
C150 N125 1.433 . S
C150 C151 1.363 . S
C150 C155 1.370 . S
C151 H124 0.929 . S
C151 C150 1.363 . S
C151 C152 1.385 . S
C152 H126 0.930 . S
C152 C151 1.385 . S
C152 C153 1.357 . S
C153 C152 1.357 . S
C153 C154 1.406 . S
C154 H128 0.929 . S
C154 C153 1.406 . S
C154 C155 1.391 . S
C155 H127 0.931 . S
C155 C150 1.370 . S
C155 C154 1.391 . S
C156 N125 1.435 . S
C156 C157 1.358 . S
C156 C161 1.371 . S
C157 H129 0.930 . S
C157 C156 1.358 . S
C157 C158 1.405 . S
C158 H130 0.932 . S
C158 C157 1.405 . S
C158 C159 1.383 . S
C159 C158 1.383 . S
C159 C160 1.393 . S
C160 H132 0.931 . S
C160 C159 1.393 . S
C160 C161 1.382 . S
C161 H131 0.929 . S
C161 C156 1.371 . S
C161 C160 1.382 . S
C162 N125 1.423 . S
C162 C163 1.362 . S
C162 C167 1.388 . S
C163 H133 0.929 . S
C163 C162 1.362 . S
C163 C164 1.376 . S
C164 H135 0.931 . S
C164 C163 1.376 . S
C164 C165 1.396 . S
C165 C164 1.396 . S
C165 C166 1.348 . S
C165 C183 1.472 . S
C166 H136 0.929 . S
C166 C165 1.348 . S
C166 C167 1.443 . S
C167 H134 0.932 . S
C167 C162 1.388 . S
C167 C166 1.443 . S
C168 N148 1.433 . S
C168 C169 1.363 . S
C168 C173 1.370 . S
C169 H137 0.929 . S
C169 C168 1.363 . S
C169 C170 1.385 . S
C170 H138 0.930 . S
C170 C169 1.385 . S
C170 C171 1.357 . S
C171 C170 1.357 . S
C171 C172 1.406 . S
C172 H139 0.929 . S
C172 C171 1.406 . S
C172 C173 1.391 . S
C173 H140 0.931 . S
C173 C168 1.370 . S
C173 C172 1.391 . S
C174 N148 1.435 . S
C174 C175 1.358 . S
C174 C179 1.371 . S
C175 H141 0.930 . S
C175 C174 1.358 . S
C175 C176 1.405 . S
C176 H142 0.932 . S
C176 C175 1.405 . S
C176 C177 1.383 . S
C177 C176 1.383 . S
C177 C178 1.393 . S
C178 H143 0.931 . S
C178 C177 1.393 . S
C178 C179 1.382 . S
C179 H144 0.929 . S
C179 C174 1.371 . S
C179 C178 1.382 . S
C180 N148 1.423 . S
C180 C181 1.362 . S
C180 C185 1.388 . S
C181 H145 0.929 . S
C181 C180 1.362 . S
C181 C182 1.376 . S
C182 H146 0.931 . S
C182 C181 1.376 . S
C182 C183 1.396 . S
C183 C165 1.472 . S
C183 C182 1.396 . S
C183 C184 1.348 . S
C184 H147 0.929 . S
C184 C183 1.348 . S
C184 C185 1.443 . S
C185 H149 0.932 . S
C185 C180 1.388 . S
C185 C184 1.443 . S
H186 C213 0.929 . S
N187 C212 1.433 . S
N187 C218 1.435 . S
N187 C224 1.423 . S
H188 C214 0.930 . S
H189 C217 0.931 . S
H190 C216 0.929 . S
H191 C219 0.930 . S
H192 C220 0.932 . S
H193 C223 0.929 . S
H194 C222 0.931 . S
H195 C225 0.929 . S
H196 C229 0.932 . S
H197 C226 0.931 . S
H198 C228 0.929 . S
H199 C231 0.929 . S
H200 C232 0.930 . S
H201 C234 0.929 . S
H202 C235 0.931 . S
H203 C237 0.930 . S
H204 C238 0.932 . S
H205 C240 0.931 . S
H206 C241 0.929 . S
H207 C243 0.929 . S
H208 C244 0.931 . S
H209 C246 0.929 . S
N210 C230 1.433 . S
N210 C236 1.435 . S
N210 C242 1.423 . S
H211 C247 0.932 . S
C212 N187 1.433 . S
C212 C213 1.363 . S
C212 C217 1.370 . S
C213 H186 0.929 . S
C213 C212 1.363 . S
C213 C214 1.385 . S
C214 H188 0.930 . S
C214 C213 1.385 . S
C214 C215 1.357 . S
C215 C214 1.357 . S
C215 C216 1.406 . S
C216 H190 0.929 . S
C216 C215 1.406 . S
C216 C217 1.391 . S
C217 H189 0.931 . S
C217 C212 1.370 . S
C217 C216 1.391 . S
C218 N187 1.435 . S
C218 C219 1.358 . S
C218 C223 1.371 . S
C219 H191 0.930 . S
C219 C218 1.358 . S
C219 C220 1.405 . S
C220 H192 0.932 . S
C220 C219 1.405 . S
C220 C221 1.383 . S
C221 C220 1.383 . S
C221 C222 1.393 . S
C222 H194 0.931 . S
C222 C221 1.393 . S
C222 C223 1.382 . S
C223 H193 0.929 . S
C223 C218 1.371 . S
C223 C222 1.382 . S
C224 N187 1.423 . S
C224 C225 1.362 . S
C224 C229 1.388 . S
C225 H195 0.929 . S
C225 C224 1.362 . S
C225 C226 1.376 . S
C226 H197 0.931 . S
C226 C225 1.376 . S
C226 C227 1.396 . S
C227 C226 1.396 . S
C227 C228 1.348 . S
C227 C245 1.472 1_455 S
C228 H198 0.929 . S
C228 C227 1.348 . S
C228 C229 1.443 . S
C229 H196 0.932 . S
C229 C224 1.388 . S
C229 C228 1.443 . S
C230 N210 1.433 . S
C230 C231 1.363 . S
C230 C235 1.370 . S
C231 H199 0.929 . S
C231 C230 1.363 . S
C231 C232 1.385 . S
C232 H200 0.930 . S
C232 C231 1.385 . S
C232 C233 1.357 . S
C233 C232 1.357 . S
C233 C234 1.406 . S
C234 H201 0.929 . S
C234 C233 1.406 . S
C234 C235 1.391 . S
C235 H202 0.931 . S
C235 C230 1.370 . S
C235 C234 1.391 . S
C236 N210 1.435 . S
C236 C237 1.358 . S
C236 C241 1.371 . S
C237 H203 0.930 . S
C237 C236 1.358 . S
C237 C238 1.405 . S
C238 H204 0.932 . S
C238 C237 1.405 . S
C238 C239 1.383 . S
C239 C238 1.383 . S
C239 C240 1.393 . S
C240 H205 0.931 . S
C240 C239 1.393 . S
C240 C241 1.382 . S
C241 H206 0.929 . S
C241 C236 1.371 . S
C241 C240 1.382 . S
C242 N210 1.423 . S
C242 C243 1.362 . S
C242 C247 1.388 . S
C243 H207 0.929 . S
C243 C242 1.362 . S
C243 C244 1.376 . S
C244 H208 0.931 . S
C244 C243 1.376 . S
C244 C245 1.396 . S
C245 C227 1.472 1_655 S
C245 C244 1.396 . S
C245 C246 1.348 . S
C246 H209 0.929 . S
C246 C245 1.348 . S
C246 C247 1.443 . S
C247 H211 0.932 . S
C247 C242 1.388 . S
C247 C246 1.443 . S
H248 C275 0.929 . S
N249 C274 1.433 . S
N249 C280 1.435 . S
N249 C286 1.423 . S
H250 C276 0.930 . S
H251 C279 0.931 . S
H252 C278 0.929 . S
H253 C281 0.930 . S
H254 C282 0.932 . S
H255 C285 0.929 . S
H256 C284 0.931 . S
H257 C287 0.929 . S
H258 C291 0.932 . S
H259 C288 0.931 . S
H260 C290 0.929 . S
H261 C293 0.929 . S
H262 C294 0.930 . S
H263 C296 0.929 . S
H264 C297 0.931 . S
H265 C299 0.930 1_554 S
H266 C300 0.932 . S
H267 C302 0.931 . S
H268 C303 0.929 . S
H269 C305 0.929 . S
H270 C306 0.931 1_554 S
H271 C308 0.929 . S
N272 C292 1.433 . S
N272 C298 1.435 1_554 S
N272 C304 1.423 1_554 S
H273 C309 0.932 . S
C274 N249 1.433 . S
C274 C275 1.363 . S
C274 C279 1.370 . S
C275 H248 0.929 . S
C275 C274 1.363 . S
C275 C276 1.385 . S
C276 H250 0.930 . S
C276 C275 1.385 . S
C276 C277 1.357 1_556 S
C277 C276 1.357 1_554 S
C277 C278 1.406 . S
C278 H252 0.929 . S
C278 C277 1.406 . S
C278 C279 1.391 1_554 S
C279 H251 0.931 . S
C279 C274 1.370 . S
C279 C278 1.391 1_556 S
C280 N249 1.435 . S
C280 C281 1.358 . S
C280 C285 1.371 . S
C281 H253 0.930 . S
C281 C280 1.358 . S
C281 C282 1.405 . S
C282 H254 0.932 . S
C282 C281 1.405 . S
C282 C283 1.383 . S
C283 C282 1.383 . S
C283 C284 1.393 . S
C284 H256 0.931 . S
C284 C283 1.393 . S
C284 C285 1.382 . S
C285 H255 0.929 . S
C285 C280 1.371 . S
C285 C284 1.382 . S
C286 N249 1.423 . S
C286 C287 1.362 . S
C286 C291 1.388 . S
C287 H257 0.929 . S
C287 C286 1.362 . S
C287 C288 1.376 . S
C288 H259 0.931 . S
C288 C287 1.376 . S
C288 C289 1.396 . S
C289 C288 1.396 . S
C289 C290 1.348 . S
C289 C307 1.472 1_545 S
C290 H260 0.929 . S
C290 C289 1.348 . S
C290 C291 1.443 . S
C291 H258 0.932 . S
C291 C286 1.388 . S
C291 C290 1.443 . S
C292 N272 1.433 . S
C292 C293 1.363 . S
C292 C297 1.370 . S
C293 H261 0.929 . S
C293 C292 1.363 . S
C293 C294 1.385 . S
C294 H262 0.930 . S
C294 C293 1.385 . S
C294 C295 1.357 . S
C295 C294 1.357 . S
C295 C296 1.406 . S
C296 H263 0.929 . S
C296 C295 1.406 . S
C296 C297 1.391 . S
C297 H264 0.931 . S
C297 C292 1.370 . S
C297 C296 1.391 . S
C298 N272 1.435 1_556 S
C298 C299 1.358 . S
C298 C303 1.371 . S
C299 H265 0.930 1_556 S
C299 C298 1.358 . S
C299 C300 1.405 . S
C300 H266 0.932 . S
C300 C299 1.405 . S
C300 C301 1.383 . S
C301 C300 1.383 . S
C301 C302 1.393 . S
C302 H267 0.931 . S
C302 C301 1.393 . S
C302 C303 1.382 . S
C303 H268 0.929 . S
C303 C298 1.371 . S
C303 C302 1.382 . S
C304 N272 1.423 1_556 S
C304 C305 1.362 1_556 S
C304 C309 1.388 . S
C305 H269 0.929 . S
C305 C304 1.362 1_554 S
C305 C306 1.376 1_554 S
C306 H270 0.931 1_556 S
C306 C305 1.376 1_556 S
C306 C307 1.396 . S
C307 C289 1.472 1_565 S
C307 C306 1.396 . S
C307 C308 1.348 . S
C308 H271 0.929 . S
C308 C307 1.348 . S
C308 C309 1.443 . S
C309 H273 0.932 . S
C309 C304 1.388 . S
C309 C308 1.443 . S
H310 C337 0.929 . S
N311 C336 1.433 . S
N311 C342 1.435 . S
N311 C348 1.423 . S
H312 C338 0.930 . S
H313 C341 0.931 . S
H314 C340 0.929 . S
H315 C343 0.930 . S
H316 C344 0.932 . S
H317 C347 0.929 . S
H318 C346 0.931 . S
H319 C349 0.929 . S
H320 C353 0.932 . S
H321 C350 0.931 . S
H322 C352 0.929 . S
H323 C355 0.929 . S
H324 C356 0.930 . S
H325 C358 0.929 . S
H326 C359 0.931 . S
H327 C361 0.930 . S
H328 C362 0.932 . S
H329 C364 0.931 . S
H330 C365 0.929 . S
H331 C367 0.929 . S
H332 C368 0.931 . S
H333 C370 0.929 . S
N334 C354 1.433 . S
N334 C360 1.435 . S
N334 C366 1.423 . S
H335 C371 0.932 . S
C336 N311 1.433 . S
C336 C337 1.363 . S
C336 C341 1.370 . S
C337 H310 0.929 . S
C337 C336 1.363 . S
C337 C338 1.385 . S
C338 H312 0.930 . S
C338 C337 1.385 . S
C338 C339 1.357 . S
C339 C338 1.357 . S
C339 C340 1.406 . S
C340 H314 0.929 . S
C340 C339 1.406 . S
C340 C341 1.391 . S
C341 H313 0.931 . S
C341 C336 1.370 . S
C341 C340 1.391 . S
C342 N311 1.435 . S
C342 C343 1.358 . S
C342 C347 1.371 . S
C343 H315 0.930 . S
C343 C342 1.358 . S
C343 C344 1.405 . S
C344 H316 0.932 . S
C344 C343 1.405 . S
C344 C345 1.383 . S
C345 C344 1.383 . S
C345 C346 1.393 . S
C346 H318 0.931 . S
C346 C345 1.393 . S
C346 C347 1.382 . S
C347 H317 0.929 . S
C347 C342 1.371 . S
C347 C346 1.382 . S
C348 N311 1.423 . S
C348 C349 1.362 . S
C348 C353 1.388 . S
C349 H319 0.929 . S
C349 C348 1.362 . S
C349 C350 1.376 . S
C350 H321 0.931 . S
C350 C349 1.376 . S
C350 C351 1.396 . S
C351 C350 1.396 . S
C351 C352 1.348 . S
C351 C369 1.472 . S
C352 H322 0.929 . S
C352 C351 1.348 . S
C352 C353 1.443 . S
C353 H320 0.932 . S
C353 C348 1.388 . S
C353 C352 1.443 . S
C354 N334 1.433 . S
C354 C355 1.363 . S
C354 C359 1.370 . S
C355 H323 0.929 . S
C355 C354 1.363 . S
C355 C356 1.385 . S
C356 H324 0.930 . S
C356 C355 1.385 . S
C356 C357 1.357 . S
C357 C356 1.357 . S
C357 C358 1.406 . S
C358 H325 0.929 . S
C358 C357 1.406 . S
C358 C359 1.391 . S
C359 H326 0.931 . S
C359 C354 1.370 . S
C359 C358 1.391 . S
C360 N334 1.435 . S
C360 C361 1.358 . S
C360 C365 1.371 . S
C361 H327 0.930 . S
C361 C360 1.358 . S
C361 C362 1.405 . S
C362 H328 0.932 . S
C362 C361 1.405 . S
C362 C363 1.383 . S
C363 C362 1.383 . S
C363 C364 1.393 . S
C364 H329 0.931 . S
C364 C363 1.393 . S
C364 C365 1.382 . S
C365 H330 0.929 . S
C365 C360 1.371 . S
C365 C364 1.382 . S
C366 N334 1.423 . S
C366 C367 1.362 . S
C366 C371 1.388 . S
C367 H331 0.929 . S
C367 C366 1.362 . S
C367 C368 1.376 . S
C368 H332 0.931 . S
C368 C367 1.376 . S
C368 C369 1.396 . S
C369 C351 1.472 . S
C369 C368 1.396 . S
C369 C370 1.348 . S
C370 H333 0.929 . S
C370 C369 1.348 . S
C370 C371 1.443 . S
C371 H335 0.932 . S
C371 C366 1.388 . S
C371 C370 1.443 . S
C372 O373 1.306 . S
C372 O375 1.160 . S
O373 C372 1.306 . S
O373 Cd374 2.228 . S
Cd374 O373 2.228 . S
Cd374 O378 2.273 . S
Cd374 O382 2.277 . S
O375 C372 1.160 . S
O375 Cd376 2.203 . S
Cd376 O375 2.203 . S
Cd376 O378 2.411 . S
Cd376 O379 2.333 . S
Cd376 O380 2.352 . S
Cd376 O384 2.277 . S
Cd376 O385 2.356 . S
C377 O382 1.209 . S
C377 O384 1.226 . S
O378 Cd374 2.273 . S
O378 Cd376 2.411 . S
O378 C381 1.320 . S
O379 Cd376 2.333 . S
O379 C381 1.214 . S
O380 Cd376 2.352 . S
O380 C383 1.258 . S
C381 O378 1.320 . S
C381 O379 1.214 . S
O382 Cd374 2.277 . S
O382 C377 1.209 . S
C383 O380 1.258 . S
C383 O385 1.282 . S
O384 Cd376 2.277 . S
O384 C377 1.226 . S
O385 Cd376 2.356 . S
O385 C383 1.282 . S
C386 O387 1.306 . S
C386 O389 1.160 . S
O387 C386 1.306 . S
O387 Cd388 2.228 . S
Cd388 O387 2.228 . S
Cd388 O392 2.273 . S
Cd388 O396 2.277 . S
O389 C386 1.160 . S
O389 Cd390 2.203 . S
Cd390 O389 2.203 . S
Cd390 O392 2.411 . S
Cd390 O393 2.333 . S
Cd390 O394 2.352 . S
Cd390 O398 2.277 . S
Cd390 O399 2.356 . S
C391 O396 1.209 . S
C391 O398 1.226 . S
O392 Cd388 2.273 . S
O392 Cd390 2.411 . S
O392 C395 1.320 . S
O393 Cd390 2.333 . S
O393 C395 1.214 . S
O394 Cd390 2.352 . S
O394 C397 1.258 . S
C395 O392 1.320 . S
C395 O393 1.214 . S
O396 Cd388 2.277 . S
O396 C391 1.209 . S
C397 O394 1.258 . S
C397 O399 1.282 . S
O398 Cd390 2.277 . S
O398 C391 1.226 . S
O399 Cd390 2.356 . S
O399 C397 1.282 . S
C400 O401 1.306 . S
C400 O403 1.160 . S
O401 C400 1.306 . S
O401 Cd402 2.228 . S
Cd402 O401 2.228 . S
Cd402 O406 2.273 . S
Cd402 O410 2.277 . S
O403 C400 1.160 . S
O403 Cd404 2.203 . S
Cd404 O403 2.203 . S
Cd404 O406 2.411 . S
Cd404 O407 2.333 . S
Cd404 O408 2.352 . S
Cd404 O412 2.277 . S
Cd404 O413 2.356 . S
C405 O410 1.209 . S
C405 O412 1.226 . S
O406 Cd402 2.273 . S
O406 Cd404 2.411 . S
O406 C409 1.320 . S
O407 Cd404 2.333 . S
O407 C409 1.214 . S
O408 Cd404 2.352 . S
O408 C411 1.258 . S
C409 O406 1.320 . S
C409 O407 1.214 . S
O410 Cd402 2.277 . S
O410 C405 1.209 . S
C411 O408 1.258 . S
C411 O413 1.282 . S
O412 Cd404 2.277 . S
O412 C405 1.226 . S
O413 Cd404 2.356 . S
O413 C411 1.282 . S
C414 O415 1.306 . S
C414 O417 1.160 . S
O415 C414 1.306 . S
O415 Cd416 2.228 . S
Cd416 O415 2.228 . S
Cd416 O420 2.273 . S
Cd416 O424 2.277 . S
O417 C414 1.160 . S
O417 Cd418 2.203 . S
Cd418 O417 2.203 . S
Cd418 O420 2.411 . S
Cd418 O421 2.333 . S
Cd418 O422 2.352 . S
Cd418 O426 2.277 . S
Cd418 O427 2.356 . S
C419 O424 1.209 . S
C419 O426 1.226 . S
O420 Cd416 2.273 . S
O420 Cd418 2.411 . S
O420 C423 1.320 . S
O421 Cd418 2.333 . S
O421 C423 1.214 . S
O422 Cd418 2.352 . S
O422 C425 1.258 . S
C423 O420 1.320 . S
C423 O421 1.214 . S
O424 Cd416 2.277 . S
O424 C419 1.209 . S
C425 O422 1.258 . S
C425 O427 1.282 . S
O426 Cd418 2.277 . S
O426 C419 1.226 . S
O427 Cd418 2.356 . S
O427 C425 1.282 . S
C428 O429 1.306 . S
C428 O431 1.160 . S
O429 C428 1.306 . S
O429 Cd430 2.228 . S
Cd430 O429 2.228 . S
Cd430 O434 2.273 . S
Cd430 O438 2.277 . S
O431 C428 1.160 . S
O431 Cd432 2.203 . S
Cd432 O431 2.203 . S
Cd432 O434 2.411 . S
Cd432 O435 2.333 . S
Cd432 O436 2.352 . S
Cd432 O440 2.277 . S
Cd432 O441 2.356 . S
C433 O438 1.209 . S
C433 O440 1.226 . S
O434 Cd430 2.273 . S
O434 Cd432 2.411 . S
O434 C437 1.320 . S
O435 Cd432 2.333 . S
O435 C437 1.214 . S
O436 Cd432 2.352 . S
O436 C439 1.258 . S
C437 O434 1.320 . S
C437 O435 1.214 . S
O438 Cd430 2.277 . S
O438 C433 1.209 . S
C439 O436 1.258 . S
C439 O441 1.282 . S
O440 Cd432 2.277 . S
O440 C433 1.226 . S
O441 Cd432 2.356 . S
O441 C439 1.282 . S
C442 O443 1.306 . S
C442 O445 1.160 . S
O443 C442 1.306 . S
O443 Cd444 2.228 . S
Cd444 O443 2.228 . S
Cd444 O448 2.273 . S
Cd444 O452 2.277 . S
O445 C442 1.160 . S
O445 Cd446 2.203 . S
Cd446 O445 2.203 . S
Cd446 O448 2.411 . S
Cd446 O449 2.333 . S
Cd446 O450 2.352 . S
Cd446 O454 2.277 . S
Cd446 O455 2.356 . S
C447 O452 1.209 . S
C447 O454 1.226 . S
O448 Cd444 2.273 . S
O448 Cd446 2.411 . S
O448 C451 1.320 . S
O449 Cd446 2.333 . S
O449 C451 1.214 . S
O450 Cd446 2.352 . S
O450 C453 1.258 . S
C451 O448 1.320 . S
C451 O449 1.214 . S
O452 Cd444 2.277 . S
O452 C447 1.209 . S
C453 O450 1.258 . S
C453 O455 1.282 . S
O454 Cd446 2.277 . S
O454 C447 1.226 . S
O455 Cd446 2.356 . S
O455 C453 1.282 . S
C456 C457 1.391 . S
C456 C458 1.394 . S
C456 H472 0.931 . S
C457 C456 1.391 . S
C457 C461 1.376 . S
C458 C456 1.394 . S
C458 C459 1.369 . S
C458 C462 1.531 . S
C459 C458 1.369 . S
C459 C460 1.410 . S
C459 C467 1.503 . S
C460 C459 1.410 . S
C460 C461 1.392 . S
C460 C463 1.511 . S
C461 C457 1.376 . S
C461 C460 1.392 . S
C461 H473 0.929 . S
C462 C458 1.531 . S
C462 H474 0.960 . S
C462 H475 0.962 . S
C462 H476 0.960 . S
C463 C460 1.511 . S
C463 H477 0.961 . S
C463 H478 0.961 . S
C463 H479 0.961 . S
C464 C465 1.370 . S
C464 C466 1.363 . S
C464 H480 0.931 . S
C465 C464 1.370 . S
C465 C469 1.408 . S
C466 C464 1.363 . S
C466 C467 1.370 . S
C466 C470 1.524 . S
C467 C459 1.503 . S
C467 C466 1.370 . S
C467 C468 1.403 . S
C468 C467 1.403 . S
C468 C469 1.404 . S
C468 C471 1.539 . S
C469 C465 1.408 . S
C469 C468 1.404 . S
C469 H481 0.930 . S
C470 C466 1.524 . S
C470 H482 0.956 . S
C470 H483 0.961 . S
C470 H484 0.961 . S
C471 C468 1.539 . S
C471 H485 0.958 . S
C471 H486 0.961 . S
C471 H487 0.960 . S
H472 C456 0.931 . S
H473 C461 0.929 . S
H474 C462 0.960 . S
H475 C462 0.962 . S
H476 C462 0.960 . S
H477 C463 0.961 . S
H478 C463 0.961 . S
H479 C463 0.961 . S
H480 C464 0.931 . S
H481 C469 0.930 . S
H482 C470 0.956 . S
H483 C470 0.961 . S
H484 C470 0.961 . S
H485 C471 0.958 . S
H486 C471 0.961 . S
H487 C471 0.960 . S
C488 C489 1.391 . S
C488 C490 1.394 . S
C488 H504 0.931 . S
C489 C488 1.391 . S
C489 C493 1.376 . S
C490 C488 1.394 . S
C490 C491 1.369 . S
C490 C494 1.531 . S
C491 C490 1.369 . S
C491 C492 1.410 . S
C491 C499 1.503 . S
C492 C491 1.410 . S
C492 C493 1.392 . S
C492 C495 1.511 . S
C493 C489 1.376 . S
C493 C492 1.392 . S
C493 H505 0.929 . S
C494 C490 1.531 . S
C494 H506 0.960 . S
C494 H507 0.962 . S
C494 H508 0.960 . S
C495 C492 1.511 . S
C495 H509 0.961 . S
C495 H510 0.961 . S
C495 H511 0.961 . S
C496 C497 1.370 . S
C496 C498 1.363 . S
C496 H512 0.931 . S
C497 C496 1.370 . S
C497 C501 1.408 . S
C498 C496 1.363 . S
C498 C499 1.370 . S
C498 C502 1.524 . S
C499 C491 1.503 . S
C499 C498 1.370 . S
C499 C500 1.403 . S
C500 C499 1.403 . S
C500 C501 1.404 . S
C500 C503 1.539 . S
C501 C497 1.408 . S
C501 C500 1.404 . S
C501 H513 0.930 . S
C502 C498 1.524 . S
C502 H514 0.956 . S
C502 H515 0.961 . S
C502 H516 0.961 . S
C503 C500 1.539 . S
C503 H517 0.958 . S
C503 H518 0.961 . S
C503 H519 0.960 . S
H504 C488 0.931 . S
H505 C493 0.929 . S
H506 C494 0.960 . S
H507 C494 0.962 . S
H508 C494 0.960 . S
H509 C495 0.961 . S
H510 C495 0.961 . S
H511 C495 0.961 . S
H512 C496 0.931 . S
H513 C501 0.930 . S
H514 C502 0.956 . S
H515 C502 0.961 . S
H516 C502 0.961 . S
H517 C503 0.958 . S
H518 C503 0.961 . S
H519 C503 0.960 . S
C520 C521 1.391 . S
C520 C522 1.394 . S
C520 H536 0.931 . S
C521 C520 1.391 . S
C521 C525 1.376 . S
C522 C520 1.394 . S
C522 C523 1.369 . S
C522 C526 1.531 . S
C523 C522 1.369 . S
C523 C524 1.410 . S
C523 C531 1.503 . S
C524 C523 1.410 . S
C524 C525 1.392 . S
C524 C527 1.511 . S
C525 C521 1.376 . S
C525 C524 1.392 . S
C525 H537 0.929 . S
C526 C522 1.531 . S
C526 H538 0.960 . S
C526 H539 0.962 . S
C526 H540 0.960 . S
C527 C524 1.511 . S
C527 H541 0.961 . S
C527 H542 0.961 . S
C527 H543 0.961 . S
C528 C529 1.370 . S
C528 C530 1.363 . S
C528 H544 0.931 . S
C529 C528 1.370 . S
C529 C533 1.408 . S
C530 C528 1.363 . S
C530 C531 1.370 . S
C530 C534 1.524 . S
C531 C523 1.503 . S
C531 C530 1.370 . S
C531 C532 1.403 . S
C532 C531 1.403 . S
C532 C533 1.404 . S
C532 C535 1.539 . S
C533 C529 1.408 . S
C533 C532 1.404 . S
C533 H545 0.930 . S
C534 C530 1.524 . S
C534 H546 0.956 . S
C534 H547 0.961 . S
C534 H548 0.961 . S
C535 C532 1.539 . S
C535 H549 0.958 . S
C535 H550 0.961 . S
C535 H551 0.960 . S
H536 C520 0.931 . S
H537 C525 0.929 . S
H538 C526 0.960 . S
H539 C526 0.962 . S
H540 C526 0.960 . S
H541 C527 0.961 . S
H542 C527 0.961 . S
H543 C527 0.961 . S
H544 C528 0.931 . S
H545 C533 0.930 . S
H546 C534 0.956 . S
H547 C534 0.961 . S
H548 C534 0.961 . S
H549 C535 0.958 . S
H550 C535 0.961 . S
H551 C535 0.960 . S
C552 C553 1.391 . S
C552 C554 1.394 . S
C552 H568 0.931 . S
C553 C552 1.391 . S
C553 C557 1.376 . S
C554 C552 1.394 . S
C554 C555 1.369 . S
C554 C558 1.531 . S
C555 C554 1.369 . S
C555 C556 1.410 . S
C555 C563 1.503 . S
C556 C555 1.410 . S
C556 C557 1.392 . S
C556 C559 1.511 . S
C557 C553 1.376 . S
C557 C556 1.392 . S
C557 H569 0.929 . S
C558 C554 1.531 . S
C558 H570 0.960 . S
C558 H571 0.962 . S
C558 H572 0.960 . S
C559 C556 1.511 . S
C559 H573 0.961 . S
C559 H574 0.961 . S
C559 H575 0.961 . S
C560 C561 1.370 . S
C560 C562 1.363 . S
C560 H576 0.931 . S
C561 C560 1.370 . S
C561 C565 1.408 . S
C562 C560 1.363 . S
C562 C563 1.370 . S
C562 C566 1.524 . S
C563 C555 1.503 . S
C563 C562 1.370 . S
C563 C564 1.403 . S
C564 C563 1.403 . S
C564 C565 1.404 . S
C564 C567 1.539 . S
C565 C561 1.408 . S
C565 C564 1.404 . S
C565 H577 0.930 . S
C566 C562 1.524 . S
C566 H578 0.956 . S
C566 H579 0.961 . S
C566 H580 0.961 . S
C567 C564 1.539 . S
C567 H581 0.958 . S
C567 H582 0.961 . S
C567 H583 0.960 . S
H568 C552 0.931 . S
H569 C557 0.929 . S
H570 C558 0.960 . S
H571 C558 0.962 . S
H572 C558 0.960 . S
H573 C559 0.961 . S
H574 C559 0.961 . S
H575 C559 0.961 . S
H576 C560 0.931 . S
H577 C565 0.930 . S
H578 C566 0.956 . S
H579 C566 0.961 . S
H580 C566 0.961 . S
H581 C567 0.958 . S
H582 C567 0.961 . S
H583 C567 0.960 . S
C584 C585 1.391 . S
C584 C586 1.394 . S
C584 H600 0.931 . S
C585 C584 1.391 . S
C585 C589 1.376 . S
C586 C584 1.394 . S
C586 C587 1.369 . S
C586 C590 1.531 . S
C587 C586 1.369 . S
C587 C588 1.410 . S
C587 C595 1.503 . S
C588 C587 1.410 . S
C588 C589 1.392 . S
C588 C591 1.511 . S
C589 C585 1.376 . S
C589 C588 1.392 . S
C589 H601 0.929 . S
C590 C586 1.531 . S
C590 H602 0.960 . S
C590 H603 0.962 . S
C590 H604 0.960 . S
C591 C588 1.511 . S
C591 H605 0.961 . S
C591 H606 0.961 . S
C591 H607 0.961 . S
C592 C593 1.370 . S
C592 C594 1.363 . S
C592 H608 0.931 . S
C593 C592 1.370 . S
C593 C597 1.408 . S
C594 C592 1.363 . S
C594 C595 1.370 . S
C594 C598 1.524 . S
C595 C587 1.503 . S
C595 C594 1.370 . S
C595 C596 1.403 . S
C596 C595 1.403 . S
C596 C597 1.404 . S
C596 C599 1.539 . S
C597 C593 1.408 . S
C597 C596 1.404 . S
C597 H609 0.930 . S
C598 C594 1.524 . S
C598 H610 0.956 . S
C598 H611 0.961 . S
C598 H612 0.961 . S
C599 C596 1.539 . S
C599 H613 0.958 . S
C599 H614 0.961 . S
C599 H615 0.960 . S
H600 C584 0.931 . S
H601 C589 0.929 . S
H602 C590 0.960 . S
H603 C590 0.962 . S
H604 C590 0.960 . S
H605 C591 0.961 . S
H606 C591 0.961 . S
H607 C591 0.961 . S
H608 C592 0.931 . S
H609 C597 0.930 . S
H610 C598 0.956 . S
H611 C598 0.961 . S
H612 C598 0.961 . S
H613 C599 0.958 . S
H614 C599 0.961 . S
H615 C599 0.960 . S
C616 C617 1.391 . S
C616 C618 1.394 . S
C616 H632 0.931 . S
C617 C616 1.391 . S
C617 C621 1.376 . S
C618 C616 1.394 . S
C618 C619 1.369 . S
C618 C622 1.531 . S
C619 C618 1.369 . S
C619 C620 1.410 . S
C619 C627 1.503 . S
C620 C619 1.410 . S
C620 C621 1.392 . S
C620 C623 1.511 . S
C621 C617 1.376 . S
C621 C620 1.392 . S
C621 H633 0.929 . S
C622 C618 1.531 . S
C622 H634 0.960 . S
C622 H635 0.962 . S
C622 H636 0.960 . S
C623 C620 1.511 . S
C623 H637 0.961 . S
C623 H638 0.961 . S
C623 H639 0.961 . S
C624 C625 1.370 . S
C624 C626 1.363 . S
C624 H640 0.931 . S
C625 C624 1.370 . S
C625 C629 1.408 . S
C626 C624 1.363 . S
C626 C627 1.370 . S
C626 C630 1.524 . S
C627 C619 1.503 . S
C627 C626 1.370 . S
C627 C628 1.403 . S
C628 C627 1.403 . S
C628 C629 1.404 . S
C628 C631 1.539 . S
C629 C625 1.408 . S
C629 C628 1.404 . S
C629 H641 0.930 . S
C630 C626 1.524 . S
C630 H642 0.956 . S
C630 H643 0.961 . S
C630 H644 0.961 . S
C631 C628 1.539 . S
C631 H645 0.958 . S
C631 H646 0.961 . S
C631 H647 0.960 . S
H632 C616 0.931 . S
H633 C621 0.929 . S
H634 C622 0.960 . S
H635 C622 0.962 . S
H636 C622 0.960 . S
H637 C623 0.961 . S
H638 C623 0.961 . S
H639 C623 0.961 . S
H640 C624 0.931 . S
H641 C629 0.930 . S
H642 C630 0.956 . S
H643 C630 0.961 . S
H644 C630 0.961 . S
H645 C631 0.958 . S
H646 C631 0.961 . S
H647 C631 0.960 . S
C648 C649 1.391 . S
C648 C650 1.394 . S
C648 H664 0.931 . S
C649 C648 1.391 . S
C649 C653 1.376 . S
C650 C648 1.394 . S
C650 C651 1.369 . S
C650 C654 1.531 . S
C651 C650 1.369 . S
C651 C652 1.410 . S
C651 C659 1.503 . S
C652 C651 1.410 . S
C652 C653 1.392 . S
C652 C655 1.511 . S
C653 C649 1.376 . S
C653 C652 1.392 . S
C653 H665 0.929 . S
C654 C650 1.531 . S
C654 H666 0.960 . S
C654 H667 0.962 . S
C654 H668 0.960 . S
C655 C652 1.511 . S
C655 H669 0.961 . S
C655 H670 0.961 . S
C655 H671 0.961 . S
C656 C657 1.370 . S
C656 C658 1.363 . S
C656 H672 0.931 . S
C657 C656 1.370 . S
C657 C661 1.408 . S
C658 C656 1.363 . S
C658 C659 1.370 . S
C658 C662 1.524 . S
C659 C651 1.503 . S
C659 C658 1.370 . S
C659 C660 1.403 . S
C660 C659 1.403 . S
C660 C661 1.404 . S
C660 C663 1.539 . S
C661 C657 1.408 . S
C661 C660 1.404 . S
C661 H673 0.930 . S
C662 C658 1.524 . S
C662 H674 0.956 . S
C662 H675 0.961 . S
C662 H676 0.961 . S
C663 C660 1.539 . S
C663 H677 0.958 . S
C663 H678 0.961 . S
C663 H679 0.960 . S
H664 C648 0.931 . S
H665 C653 0.929 . S
H666 C654 0.960 . S
H667 C654 0.962 . S
H668 C654 0.960 . S
H669 C655 0.961 . S
H670 C655 0.961 . S
H671 C655 0.961 . S
H672 C656 0.931 . S
H673 C661 0.930 . S
H674 C662 0.956 . S
H675 C662 0.961 . S
H676 C662 0.961 . S
H677 C663 0.958 . S
H678 C663 0.961 . S
H679 C663 0.960 . S
C680 C681 1.391 . S
C680 C682 1.394 . S
C680 H696 0.931 . S
C681 C680 1.391 . S
C681 C685 1.376 . S
C682 C680 1.394 . S
C682 C683 1.369 . S
C682 C686 1.531 . S
C683 C682 1.369 . S
C683 C684 1.410 . S
C683 C691 1.503 . S
C684 C683 1.410 . S
C684 C685 1.392 . S
C684 C687 1.511 . S
C685 C681 1.376 . S
C685 C684 1.392 . S
C685 H697 0.929 . S
C686 C682 1.531 . S
C686 H698 0.960 . S
C686 H699 0.962 . S
C686 H700 0.960 . S
C687 C684 1.511 . S
C687 H701 0.961 . S
C687 H702 0.961 . S
C687 H703 0.961 . S
C688 C689 1.370 . S
C688 C690 1.363 . S
C688 H704 0.931 . S
C689 C688 1.370 . S
C689 C693 1.408 . S
C690 C688 1.363 . S
C690 C691 1.370 . S
C690 C694 1.524 . S
C691 C683 1.503 . S
C691 C690 1.370 . S
C691 C692 1.403 . S
C692 C691 1.403 . S
C692 C693 1.404 . S
C692 C695 1.539 . S
C693 C689 1.408 . S
C693 C692 1.404 . S
C693 H705 0.930 . S
C694 C690 1.524 . S
C694 H706 0.956 . S
C694 H707 0.961 . S
C694 H708 0.961 . S
C695 C692 1.539 . S
C695 H709 0.958 . S
C695 H710 0.961 . S
C695 H711 0.960 . S
H696 C680 0.931 . S
H697 C685 0.929 . S
H698 C686 0.960 . S
H699 C686 0.962 . S
H700 C686 0.960 . S
H701 C687 0.961 . S
H702 C687 0.961 . S
H703 C687 0.961 . S
H704 C688 0.931 . S
H705 C693 0.930 . S
H706 C694 0.956 . S
H707 C694 0.961 . S
H708 C694 0.961 . S
H709 C695 0.958 . S
H710 C695 0.961 . S
H711 C695 0.960 . S
C712 C713 1.391 . S
C712 C714 1.394 . S
C712 H728 0.931 . S
C713 C712 1.391 . S
C713 C717 1.376 . S
C714 C712 1.394 . S
C714 C715 1.369 . S
C714 C718 1.531 . S
C715 C714 1.369 . S
C715 C716 1.410 . S
C715 C723 1.503 . S
C716 C715 1.410 . S
C716 C717 1.392 . S
C716 C719 1.511 . S
C717 C713 1.376 . S
C717 C716 1.392 . S
C717 H729 0.929 . S
C718 C714 1.531 . S
C718 H730 0.960 . S
C718 H731 0.962 . S
C718 H732 0.960 . S
C719 C716 1.511 . S
C719 H733 0.961 . S
C719 H734 0.961 . S
C719 H735 0.961 . S
C720 C721 1.370 . S
C720 C722 1.363 . S
C720 H736 0.931 . S
C721 C720 1.370 . S
C721 C725 1.408 . S
C722 C720 1.363 . S
C722 C723 1.370 . S
C722 C726 1.524 . S
C723 C715 1.503 . S
C723 C722 1.370 . S
C723 C724 1.403 . S
C724 C723 1.403 . S
C724 C725 1.404 . S
C724 C727 1.539 . S
C725 C721 1.408 . S
C725 C724 1.404 . S
C725 H737 0.930 . S
C726 C722 1.524 . S
C726 H738 0.956 . S
C726 H739 0.961 . S
C726 H740 0.961 . S
C727 C724 1.539 . S
C727 H741 0.958 . S
C727 H742 0.961 . S
C727 H743 0.960 . S
H728 C712 0.931 . S
H729 C717 0.929 . S
H730 C718 0.960 . S
H731 C718 0.962 . S
H732 C718 0.960 . S
H733 C719 0.961 . S
H734 C719 0.961 . S
H735 C719 0.961 . S
H736 C720 0.931 . S
H737 C725 0.930 . S
H738 C726 0.956 . S
H739 C726 0.961 . S
H740 C726 0.961 . S
H741 C727 0.958 . S
H742 C727 0.961 . S
H743 C727 0.960 . S
C744 C745 1.391 . S
C744 C746 1.394 . S
C744 H760 0.931 . S
C745 C744 1.391 . S
C745 C749 1.376 . S
C746 C744 1.394 . S
C746 C747 1.369 . S
C746 C750 1.531 . S
C747 C746 1.369 . S
C747 C748 1.410 . S
C747 C755 1.503 . S
C748 C747 1.410 . S
C748 C749 1.392 . S
C748 C751 1.511 . S
C749 C745 1.376 . S
C749 C748 1.392 . S
C749 H761 0.929 . S
C750 C746 1.531 . S
C750 H762 0.960 . S
C750 H763 0.962 . S
C750 H764 0.960 . S
C751 C748 1.511 . S
C751 H765 0.961 . S
C751 H766 0.961 . S
C751 H767 0.961 . S
C752 C753 1.370 . S
C752 C754 1.363 . S
C752 H768 0.931 . S
C753 C752 1.370 . S
C753 C757 1.408 . S
C754 C752 1.363 . S
C754 C755 1.370 . S
C754 C758 1.524 . S
C755 C747 1.503 . S
C755 C754 1.370 . S
C755 C756 1.403 . S
C756 C755 1.403 . S
C756 C757 1.404 . S
C756 C759 1.539 . S
C757 C753 1.408 . S
C757 C756 1.404 . S
C757 H769 0.930 . S
C758 C754 1.524 . S
C758 H770 0.955 1_554 S
C758 H771 0.961 1_554 S
C758 H772 0.961 1_554 S
C759 C756 1.539 . S
C759 H773 0.958 . S
C759 H774 0.961 . S
C759 H775 0.960 . S
H760 C744 0.931 . S
H761 C749 0.929 . S
H762 C750 0.960 . S
H763 C750 0.962 . S
H764 C750 0.960 . S
H765 C751 0.961 . S
H766 C751 0.961 . S
H767 C751 0.961 . S
H768 C752 0.931 . S
H769 C757 0.930 . S
H770 C758 0.955 1_556 S
H771 C758 0.961 1_556 S
H772 C758 0.961 1_556 S
H773 C759 0.958 . S
H774 C759 0.961 . S
H775 C759 0.960 . S
C776 C777 1.391 . S
C776 C778 1.394 . S
C776 H792 0.931 . S
C777 C776 1.391 . S
C777 C781 1.376 . S
C778 C776 1.394 . S
C778 C779 1.369 . S
C778 C782 1.531 . S
C779 C778 1.369 . S
C779 C780 1.410 . S
C779 C787 1.503 . S
C780 C779 1.410 . S
C780 C781 1.392 . S
C780 C783 1.511 . S
C781 C777 1.376 . S
C781 C780 1.392 . S
C781 H793 0.929 . S
C782 C778 1.531 . S
C782 H794 0.960 . S
C782 H795 0.962 . S
C782 H796 0.960 . S
C783 C780 1.511 . S
C783 H797 0.961 . S
C783 H798 0.961 . S
C783 H799 0.961 . S
C784 C785 1.370 . S
C784 C786 1.363 . S
C784 H800 0.931 . S
C785 C784 1.370 . S
C785 C789 1.408 . S
C786 C784 1.363 . S
C786 C787 1.370 . S
C786 C790 1.524 . S
C787 C779 1.503 . S
C787 C786 1.370 . S
C787 C788 1.403 . S
C788 C787 1.403 . S
C788 C789 1.404 . S
C788 C791 1.539 . S
C789 C785 1.408 . S
C789 C788 1.404 . S
C789 H801 0.930 . S
C790 C786 1.524 . S
C790 H802 0.956 . S
C790 H803 0.961 . S
C790 H804 0.961 . S
C791 C788 1.539 . S
C791 H805 0.958 . S
C791 H806 0.961 . S
C791 H807 0.960 . S
H792 C776 0.931 . S
H793 C781 0.929 . S
H794 C782 0.960 . S
H795 C782 0.962 . S
H796 C782 0.960 . S
H797 C783 0.961 . S
H798 C783 0.961 . S
H799 C783 0.961 . S
H800 C784 0.931 . S
H801 C789 0.930 . S
H802 C790 0.956 . S
H803 C790 0.961 . S
H804 C790 0.961 . S
H805 C791 0.958 . S
H806 C791 0.961 . S
H807 C791 0.960 . S
C808 C809 1.391 . S
C808 C810 1.394 . S
C808 H824 0.931 . S
C809 C808 1.391 . S
C809 C813 1.376 . S
C810 C808 1.394 . S
C810 C811 1.369 . S
C810 C814 1.531 . S
C811 C810 1.369 . S
C811 C812 1.410 . S
C811 C819 1.503 . S
C812 C811 1.410 . S
C812 C813 1.392 . S
C812 C815 1.511 . S
C813 C809 1.376 . S
C813 C812 1.392 . S
C813 H825 0.929 . S
C814 C810 1.531 . S
C814 H826 0.960 . S
C814 H827 0.962 . S
C814 H828 0.960 . S
C815 C812 1.511 . S
C815 H829 0.961 . S
C815 H830 0.961 . S
C815 H831 0.961 . S
C816 C817 1.370 . S
C816 C818 1.363 . S
C816 H832 0.931 . S
C817 C816 1.370 . S
C817 C821 1.408 . S
C818 C816 1.363 . S
C818 C819 1.370 . S
C818 C822 1.524 . S
C819 C811 1.503 . S
C819 C818 1.370 . S
C819 C820 1.403 . S
C820 C819 1.403 . S
C820 C821 1.404 . S
C820 C823 1.539 . S
C821 C817 1.408 . S
C821 C820 1.404 . S
C821 H833 0.930 . S
C822 C818 1.524 . S
C822 H834 0.956 . S
C822 H835 0.961 . S
C822 H836 0.961 . S
C823 C820 1.539 . S
C823 H837 0.958 . S
C823 H838 0.961 . S
C823 H839 0.960 . S
H824 C808 0.931 . S
H825 C813 0.929 . S
H826 C814 0.960 . S
H827 C814 0.962 . S
H828 C814 0.960 . S
H829 C815 0.961 . S
H830 C815 0.961 . S
H831 C815 0.961 . S
H832 C816 0.931 . S
H833 C821 0.930 . S
H834 C822 0.956 . S
H835 C822 0.961 . S
H836 C822 0.961 . S
H837 C823 0.958 . S
H838 C823 0.961 . S
H839 C823 0.960 . S
C840 C841 1.391 . S
C840 C842 1.394 . S
C840 H856 0.931 . S
C841 C840 1.391 . S
C841 C845 1.376 . S
C842 C840 1.394 . S
C842 C843 1.369 . S
C842 C846 1.531 . S
C843 C842 1.369 . S
C843 C844 1.410 . S
C843 C851 1.503 . S
C844 C843 1.410 . S
C844 C845 1.392 . S
C844 C847 1.511 . S
C845 C841 1.376 . S
C845 C844 1.392 . S
C845 H857 0.929 . S
C846 C842 1.531 . S
C846 H858 0.960 . S
C846 H859 0.962 . S
C846 H860 0.960 . S
C847 C844 1.511 . S
C847 H861 0.961 . S
C847 H862 0.961 . S
C847 H863 0.961 . S
C848 C849 1.370 . S
C848 C850 1.363 . S
C848 H864 0.931 . S
C849 C848 1.370 . S
C849 C853 1.408 . S
C850 C848 1.363 . S
C850 C851 1.370 . S
C850 C854 1.524 . S
C851 C843 1.503 . S
C851 C850 1.370 . S
C851 C852 1.403 . S
C852 C851 1.403 . S
C852 C853 1.404 . S
C852 C855 1.539 . S
C853 C849 1.408 . S
C853 C852 1.404 . S
C853 H865 0.930 . S
C854 C850 1.524 . S
C854 H866 0.956 . S
C854 H867 0.961 . S
C854 H868 0.961 . S
C855 C852 1.539 . S
C855 H869 0.958 . S
C855 H870 0.961 . S
C855 H871 0.960 . S
H856 C840 0.931 . S
H857 C845 0.929 . S
H858 C846 0.960 . S
H859 C846 0.962 . S
H860 C846 0.960 . S
H861 C847 0.961 . S
H862 C847 0.961 . S
H863 C847 0.961 . S
H864 C848 0.931 . S
H865 C853 0.930 . S
H866 C854 0.956 . S
H867 C854 0.961 . S
H868 C854 0.961 . S
H869 C855 0.958 . S
H870 C855 0.961 . S
H871 C855 0.960 . S
C872 C873 1.391 . S
C872 C874 1.394 . S
C872 H888 0.931 . S
C873 C872 1.391 . S
C873 C877 1.376 . S
C874 C872 1.394 . S
C874 C875 1.369 . S
C874 C878 1.531 . S
C875 C874 1.369 . S
C875 C876 1.410 . S
C875 C883 1.503 . S
C876 C875 1.410 . S
C876 C877 1.392 . S
C876 C879 1.511 . S
C877 C873 1.376 . S
C877 C876 1.392 . S
C877 H889 0.929 . S
C878 C874 1.531 . S
C878 H890 0.960 . S
C878 H891 0.962 . S
C878 H892 0.960 . S
C879 C876 1.511 . S
C879 H893 0.961 . S
C879 H894 0.961 . S
C879 H895 0.961 . S
C880 C881 1.370 . S
C880 C882 1.363 . S
C880 H896 0.931 . S
C881 C880 1.370 . S
C881 C885 1.408 . S
C882 C880 1.363 . S
C882 C883 1.370 . S
C882 C886 1.524 . S
C883 C875 1.503 . S
C883 C882 1.370 . S
C883 C884 1.403 . S
C884 C883 1.403 . S
C884 C885 1.404 . S
C884 C887 1.539 . S
C885 C881 1.408 . S
C885 C884 1.404 . S
C885 H897 0.930 . S
C886 C882 1.524 . S
C886 H898 0.956 . S
C886 H899 0.961 . S
C886 H900 0.961 . S
C887 C884 1.539 . S
C887 H901 0.958 . S
C887 H902 0.961 . S
C887 H903 0.960 . S
H888 C872 0.931 . S
H889 C877 0.929 . S
H890 C878 0.960 . S
H891 C878 0.962 . S
H892 C878 0.960 . S
H893 C879 0.961 . S
H894 C879 0.961 . S
H895 C879 0.961 . S
H896 C880 0.931 . S
H897 C885 0.930 . S
H898 C886 0.956 . S
H899 C886 0.961 . S
H900 C886 0.961 . S
H901 C887 0.958 . S
H902 C887 0.961 . S
H903 C887 0.960 . S
C904 C905 1.391 . S
C904 C906 1.394 . S
C904 H920 0.931 . S
C905 C904 1.391 . S
C905 C909 1.376 . S
C906 C904 1.394 . S
C906 C907 1.369 . S
C906 C910 1.531 . S
C907 C906 1.369 . S
C907 C908 1.410 . S
C907 C915 1.503 . S
C908 C907 1.410 . S
C908 C909 1.392 . S
C908 C911 1.511 . S
C909 C905 1.376 . S
C909 C908 1.392 . S
C909 H921 0.929 . S
C910 C906 1.531 . S
C910 H922 0.960 . S
C910 H923 0.962 . S
C910 H924 0.960 . S
C911 C908 1.511 . S
C911 H925 0.961 . S
C911 H926 0.961 . S
C911 H927 0.961 . S
C912 C913 1.370 . S
C912 C914 1.363 . S
C912 H928 0.931 . S
C913 C912 1.370 . S
C913 C917 1.408 . S
C914 C912 1.363 . S
C914 C915 1.370 . S
C914 C918 1.524 . S
C915 C907 1.503 . S
C915 C914 1.370 . S
C915 C916 1.403 . S
C916 C915 1.403 . S
C916 C917 1.404 . S
C916 C919 1.539 . S
C917 C913 1.408 . S
C917 C916 1.404 . S
C917 H929 0.930 . S
C918 C914 1.524 . S
C918 H930 0.956 . S
C918 H931 0.961 . S
C918 H932 0.961 . S
C919 C916 1.539 . S
C919 H933 0.958 . S
C919 H934 0.961 . S
C919 H935 0.960 . S
H920 C904 0.931 . S
H921 C909 0.929 . S
H922 C910 0.960 . S
H923 C910 0.962 . S
H924 C910 0.960 . S
H925 C911 0.961 . S
H926 C911 0.961 . S
H927 C911 0.961 . S
H928 C912 0.931 . S
H929 C917 0.930 . S
H930 C918 0.956 . S
H931 C918 0.961 . S
H932 C918 0.961 . S
H933 C919 0.958 . S
H934 C919 0.961 . S
H935 C919 0.960 . S
C936 C937 1.391 . S
C936 C938 1.394 . S
C936 H952 0.931 . S
C937 C936 1.391 . S
C937 C941 1.376 . S
C938 C936 1.394 . S
C938 C939 1.369 . S
C938 C942 1.531 . S
C939 C938 1.369 . S
C939 C940 1.410 . S
C939 C947 1.503 . S
C940 C939 1.410 . S
C940 C941 1.392 . S
C940 C943 1.511 . S
C941 C937 1.376 . S
C941 C940 1.392 . S
C941 H953 0.929 . S
C942 C938 1.531 . S
C942 H954 0.960 . S
C942 H955 0.962 . S
C942 H956 0.960 . S
C943 C940 1.511 . S
C943 H957 0.961 . S
C943 H958 0.961 . S
C943 H959 0.961 . S
C944 C945 1.370 1_556 S
C944 C946 1.363 . S
C944 H960 0.931 . S
C945 C944 1.370 1_554 S
C945 C949 1.408 . S
C946 C944 1.363 . S
C946 C947 1.370 . S
C946 C950 1.524 . S
C947 C939 1.503 . S
C947 C946 1.370 . S
C947 C948 1.406 1_556 S
C948 C947 1.406 1_554 S
C948 C949 1.401 . S
C948 C951 1.539 . S
C949 C945 1.408 . S
C949 C948 1.401 . S
C949 H961 0.930 . S
C950 C946 1.524 . S
C950 H962 0.956 . S
C950 H963 0.961 . S
C950 H964 0.961 . S
C951 C948 1.539 . S
C951 H965 0.958 . S
C951 H966 0.961 . S
C951 H967 0.960 1_554 S
H952 C936 0.931 . S
H953 C941 0.929 . S
H954 C942 0.960 . S
H955 C942 0.962 . S
H956 C942 0.960 . S
H957 C943 0.961 . S
H958 C943 0.961 . S
H959 C943 0.961 . S
H960 C944 0.931 . S
H961 C949 0.930 . S
H962 C950 0.956 . S
H963 C950 0.961 . S
H964 C950 0.961 . S
H965 C951 0.958 . S
H966 C951 0.961 . S
H967 C951 0.960 1_556 S
C968 C969 1.391 . S
C968 C970 1.394 . S
C968 H984 0.931 . S
C969 C968 1.391 . S
C969 C973 1.376 . S
C970 C968 1.394 . S
C970 C971 1.369 . S
C970 C974 1.531 . S
C971 C970 1.369 . S
C971 C972 1.410 . S
C971 C979 1.503 . S
C972 C971 1.410 . S
C972 C973 1.392 . S
C972 C975 1.511 . S
C973 C969 1.376 . S
C973 C972 1.392 . S
C973 H985 0.929 . S
C974 C970 1.531 . S
C974 H986 0.960 . S
C974 H987 0.962 . S
C974 H988 0.960 . S
C975 C972 1.511 . S
C975 H989 0.961 . S
C975 H990 0.961 . S
C975 H991 0.961 . S
C976 C977 1.370 . S
C976 C978 1.363 . S
C976 H992 0.931 . S
C977 C976 1.370 . S
C977 C981 1.408 . S
C978 C976 1.363 . S
C978 C979 1.370 . S
C978 C982 1.524 . S
C979 C971 1.503 . S
C979 C978 1.370 . S
C979 C980 1.403 . S
C980 C979 1.403 . S
C980 C981 1.404 . S
C980 C983 1.539 . S
C981 C977 1.408 . S
C981 C980 1.404 . S
C981 H993 0.930 . S
C982 C978 1.524 . S
C982 H994 0.956 . S
C982 H995 0.961 . S
C982 H996 0.961 . S
C983 C980 1.539 . S
C983 H997 0.958 . S
C983 H998 0.961 . S
C983 H999 0.960 . S
H984 C968 0.931 . S
H985 C973 0.929 . S
H986 C974 0.960 . S
H987 C974 0.962 . S
H988 C974 0.960 . S
H989 C975 0.961 . S
H990 C975 0.961 . S
H991 C975 0.961 . S
H992 C976 0.931 . S
H993 C981 0.930 . S
H994 C982 0.956 . S
H995 C982 0.961 . S
H996 C982 0.961 . S
H997 C983 0.958 . S
H998 C983 0.961 . S
H999 C983 0.960 . S
C1000 C1001 1.391 . S
C1000 C1002 1.394 . S
C1000 H1016 0.931 . S
C1001 C1000 1.391 . S
C1001 C1005 1.376 . S
C1002 C1000 1.394 . S
C1002 C1003 1.369 . S
C1002 C1006 1.531 . S
C1003 C1002 1.369 . S
C1003 C1004 1.410 . S
C1003 C1011 1.503 . S
C1004 C1003 1.410 . S
C1004 C1005 1.392 . S
C1004 C1007 1.511 . S
C1005 C1001 1.376 . S
C1005 C1004 1.392 . S
C1005 H1017 0.929 . S
C1006 C1002 1.531 . S
C1006 H1018 0.960 . S
C1006 H1019 0.962 . S
C1006 H1020 0.960 . S
C1007 C1004 1.511 . S
C1007 H1021 0.961 . S
C1007 H1022 0.961 . S
C1007 H1023 0.961 . S
C1008 C1009 1.370 . S
C1008 C1010 1.363 . S
C1008 H1024 0.931 . S
C1009 C1008 1.370 . S
C1009 C1013 1.408 . S
C1010 C1008 1.363 . S
C1010 C1011 1.370 . S
C1010 C1014 1.524 . S
C1011 C1003 1.503 . S
C1011 C1010 1.370 . S
C1011 C1012 1.403 . S
C1012 C1011 1.403 . S
C1012 C1013 1.404 . S
C1012 C1015 1.539 . S
C1013 C1009 1.408 . S
C1013 C1012 1.404 . S
C1013 H1025 0.930 . S
C1014 C1010 1.524 . S
C1014 H1026 0.956 . S
C1014 H1027 0.961 . S
C1014 H1028 0.961 . S
C1015 C1012 1.539 . S
C1015 H1029 0.958 . S
C1015 H1030 0.961 . S
C1015 H1031 0.960 . S
H1016 C1000 0.931 . S
H1017 C1005 0.929 . S
H1018 C1006 0.960 . S
H1019 C1006 0.962 . S
H1020 C1006 0.960 . S
H1021 C1007 0.961 . S
H1022 C1007 0.961 . S
H1023 C1007 0.961 . S
H1024 C1008 0.931 . S
H1025 C1013 0.930 . S
H1026 C1014 0.956 . S
H1027 C1014 0.961 . S
H1028 C1014 0.961 . S
H1029 C1015 0.958 . S
H1030 C1015 0.961 . S
H1031 C1015 0.960 . S
C1032 C1033 1.391 . S
C1032 C1034 1.394 . S
C1032 H1048 0.931 . S
C1033 C1032 1.391 . S
C1033 C1037 1.376 . S
C1034 C1032 1.394 . S
C1034 C1035 1.369 . S
C1034 C1038 1.531 . S
C1035 C1034 1.369 . S
C1035 C1036 1.410 . S
C1035 C1043 1.503 . S
C1036 C1035 1.410 . S
C1036 C1037 1.392 . S
C1036 C1039 1.511 . S
C1037 C1033 1.376 . S
C1037 C1036 1.392 . S
C1037 H1049 0.929 . S
C1038 C1034 1.531 . S
C1038 H1050 0.960 . S
C1038 H1051 0.962 . S
C1038 H1052 0.960 . S
C1039 C1036 1.511 . S
C1039 H1053 0.961 . S
C1039 H1054 0.961 . S
C1039 H1055 0.961 . S
C1040 C1041 1.370 . S
C1040 C1042 1.363 . S
C1040 H1056 0.931 . S
C1041 C1040 1.370 . S
C1041 C1045 1.408 . S
C1042 C1040 1.363 . S
C1042 C1043 1.370 . S
C1042 C1046 1.524 . S
C1043 C1035 1.503 . S
C1043 C1042 1.370 . S
C1043 C1044 1.403 . S
C1044 C1043 1.403 . S
C1044 C1045 1.404 . S
C1044 C1047 1.539 . S
C1045 C1041 1.408 . S
C1045 C1044 1.404 . S
C1045 H1057 0.930 . S
C1046 C1042 1.524 . S
C1046 H1058 0.956 . S
C1046 H1059 0.961 . S
C1046 H1060 0.961 . S
C1047 C1044 1.539 . S
C1047 H1061 0.958 . S
C1047 H1062 0.961 . S
C1047 H1063 0.960 . S
H1048 C1032 0.931 . S
H1049 C1037 0.929 . S
H1050 C1038 0.960 . S
H1051 C1038 0.962 . S
H1052 C1038 0.960 . S
H1053 C1039 0.961 . S
H1054 C1039 0.961 . S
H1055 C1039 0.961 . S
H1056 C1040 0.931 . S
H1057 C1045 0.930 . S
H1058 C1046 0.956 . S
H1059 C1046 0.961 . S
H1060 C1046 0.961 . S
H1061 C1047 0.958 . S
H1062 C1047 0.961 . S
H1063 C1047 0.960 . S
C1064 C1065 1.391 . S
C1064 C1066 1.394 . S
C1064 H1080 0.931 . S
C1065 C1064 1.391 . S
C1065 C1069 1.376 . S
C1066 C1064 1.394 . S
C1066 C1067 1.369 . S
C1066 C1070 1.531 . S
C1067 C1066 1.369 . S
C1067 C1068 1.410 . S
C1067 C1075 1.503 . S
C1068 C1067 1.410 . S
C1068 C1069 1.392 . S
C1068 C1071 1.511 . S
C1069 C1065 1.376 . S
C1069 C1068 1.392 . S
C1069 H1081 0.929 . S
C1070 C1066 1.531 . S
C1070 H1082 0.960 . S
C1070 H1083 0.962 . S
C1070 H1084 0.960 . S
C1071 C1068 1.511 . S
C1071 H1085 0.961 . S
C1071 H1086 0.961 . S
C1071 H1087 0.961 . S
C1072 C1073 1.370 . S
C1072 C1074 1.363 . S
C1072 H1088 0.931 . S
C1073 C1072 1.370 . S
C1073 C1077 1.408 . S
C1074 C1072 1.363 . S
C1074 C1075 1.370 . S
C1074 C1078 1.524 . S
C1075 C1067 1.503 . S
C1075 C1074 1.370 . S
C1075 C1076 1.403 . S
C1076 C1075 1.403 . S
C1076 C1077 1.404 . S
C1076 C1079 1.539 . S
C1077 C1073 1.408 . S
C1077 C1076 1.404 . S
C1077 H1089 0.930 . S
C1078 C1074 1.524 . S
C1078 H1090 0.956 . S
C1078 H1091 0.961 . S
C1078 H1092 0.961 . S
C1079 C1076 1.539 . S
C1079 H1093 0.958 . S
C1079 H1094 0.961 . S
C1079 H1095 0.960 . S
H1080 C1064 0.931 . S
H1081 C1069 0.929 . S
H1082 C1070 0.960 . S
H1083 C1070 0.962 . S
H1084 C1070 0.960 . S
H1085 C1071 0.961 . S
H1086 C1071 0.961 . S
H1087 C1071 0.961 . S
H1088 C1072 0.931 . S
H1089 C1077 0.930 . S
H1090 C1078 0.956 . S
H1091 C1078 0.961 . S
H1092 C1078 0.961 . S
H1093 C1079 0.958 . S
H1094 C1079 0.961 . S
H1095 C1079 0.960 . S
C1096 C1097 1.391 . S
C1096 C1098 1.394 . S
C1096 H1112 0.931 . S
C1097 C1096 1.391 . S
C1097 C1101 1.376 . S
C1098 C1096 1.394 . S
C1098 C1099 1.369 . S
C1098 C1102 1.531 . S
C1099 C1098 1.369 . S
C1099 C1100 1.410 . S
C1099 C1107 1.503 . S
C1100 C1099 1.410 . S
C1100 C1101 1.392 . S
C1100 C1103 1.511 . S
C1101 C1097 1.376 . S
C1101 C1100 1.392 . S
C1101 H1113 0.929 . S
C1102 C1098 1.531 . S
C1102 H1114 0.960 . S
C1102 H1115 0.962 . S
C1102 H1116 0.960 . S
C1103 C1100 1.511 . S
C1103 H1117 0.961 . S
C1103 H1118 0.961 . S
C1103 H1119 0.961 . S
C1104 C1105 1.370 . S
C1104 C1106 1.363 . S
C1104 H1120 0.931 . S
C1105 C1104 1.370 . S
C1105 C1109 1.408 . S
C1106 C1104 1.363 . S
C1106 C1107 1.370 . S
C1106 C1110 1.524 . S
C1107 C1099 1.503 . S
C1107 C1106 1.370 . S
C1107 C1108 1.403 . S
C1108 C1107 1.403 . S
C1108 C1109 1.404 . S
C1108 C1111 1.539 . S
C1109 C1105 1.408 . S
C1109 C1108 1.404 . S
C1109 H1121 0.930 . S
C1110 C1106 1.524 . S
C1110 H1122 0.956 . S
C1110 H1123 0.961 . S
C1110 H1124 0.961 . S
C1111 C1108 1.539 . S
C1111 H1125 0.958 . S
C1111 H1126 0.961 . S
C1111 H1127 0.960 . S
H1112 C1096 0.931 . S
H1113 C1101 0.929 . S
H1114 C1102 0.960 . S
H1115 C1102 0.962 . S
H1116 C1102 0.960 . S
H1117 C1103 0.961 . S
H1118 C1103 0.961 . S
H1119 C1103 0.961 . S
H1120 C1104 0.931 . S
H1121 C1109 0.930 . S
H1122 C1110 0.956 . S
H1123 C1110 0.961 . S
H1124 C1110 0.961 . S
H1125 C1111 0.958 . S
H1126 C1111 0.961 . S
H1127 C1111 0.960 . S
C1128 C1129 1.391 . S
C1128 C1130 1.394 . S
C1128 H1144 0.931 . S
C1129 C1128 1.391 . S
C1129 C1133 1.376 . S
C1130 C1128 1.394 . S
C1130 C1131 1.369 . S
C1130 C1134 1.531 . S
C1131 C1130 1.369 . S
C1131 C1132 1.410 . S
C1131 C1139 1.503 . S
C1132 C1131 1.410 . S
C1132 C1133 1.392 . S
C1132 C1135 1.511 . S
C1133 C1129 1.376 . S
C1133 C1132 1.392 . S
C1133 H1145 0.929 . S
C1134 C1130 1.531 . S
C1134 H1146 0.960 . S
C1134 H1147 0.962 . S
C1134 H1148 0.960 . S
C1135 C1132 1.511 . S
C1135 H1149 0.961 . S
C1135 H1150 0.961 . S
C1135 H1151 0.961 . S
C1136 C1137 1.370 . S
C1136 C1138 1.363 . S
C1136 H1152 0.931 . S
C1137 C1136 1.370 . S
C1137 C1141 1.408 . S
C1138 C1136 1.363 . S
C1138 C1139 1.370 . S
C1138 C1142 1.524 . S
C1139 C1131 1.503 . S
C1139 C1138 1.370 . S
C1139 C1140 1.403 . S
C1140 C1139 1.403 . S
C1140 C1141 1.404 . S
C1140 C1143 1.539 . S
C1141 C1137 1.408 . S
C1141 C1140 1.404 . S
C1141 H1153 0.930 . S
C1142 C1138 1.524 . S
C1142 H1154 0.956 . S
C1142 H1155 0.961 . S
C1142 H1156 0.961 . S
C1143 C1140 1.539 . S
C1143 H1157 0.958 . S
C1143 H1158 0.961 . S
C1143 H1159 0.960 . S
H1144 C1128 0.931 . S
H1145 C1133 0.929 . S
H1146 C1134 0.960 . S
H1147 C1134 0.962 . S
H1148 C1134 0.960 . S
H1149 C1135 0.961 . S
H1150 C1135 0.961 . S
H1151 C1135 0.961 . S
H1152 C1136 0.931 . S
H1153 C1141 0.930 . S
H1154 C1142 0.956 . S
H1155 C1142 0.961 . S
H1156 C1142 0.961 . S
H1157 C1143 0.958 . S
H1158 C1143 0.961 . S
H1159 C1143 0.960 . S
C1160 C1161 1.391 . S
C1160 C1162 1.394 . S
C1160 H1176 0.931 . S
C1161 C1160 1.391 . S
C1161 C1165 1.376 . S
C1162 C1160 1.394 . S
C1162 C1163 1.327 1_554 S
C1162 C1166 1.531 . S
C1163 C1162 1.327 1_556 S
C1163 C1164 1.417 . S
C1163 C1171 1.538 . S
C1164 C1163 1.417 . S
C1164 C1165 1.392 1_556 S
C1164 C1167 1.511 . S
C1165 C1161 1.376 . S
C1165 C1164 1.392 1_554 S
C1165 H1177 0.929 . S
C1166 C1162 1.531 . S
C1166 H1178 0.960 . S
C1166 H1179 0.962 . S
C1166 H1180 0.960 . S
C1167 C1164 1.511 . S
C1167 H1181 0.961 . S
C1167 H1182 0.961 . S
C1167 H1183 0.961 . S
C1168 C1169 1.370 . S
C1168 C1170 1.363 . S
C1168 H1184 0.931 . S
C1169 C1168 1.370 . S
C1169 C1173 1.408 . S
C1170 C1168 1.363 . S
C1170 C1171 1.370 . S
C1170 C1174 1.524 1_556 S
C1171 C1163 1.538 . S
C1171 C1170 1.370 . S
C1171 C1172 1.403 . S
C1172 C1171 1.403 . S
C1172 C1173 1.404 . S
C1172 C1175 1.539 . S
C1173 C1169 1.408 . S
C1173 C1172 1.404 . S
C1173 H1185 0.930 . S
C1174 C1170 1.524 1_554 S
C1174 H1186 0.956 . S
C1174 H1187 0.961 . S
C1174 H1188 0.961 . S
C1175 C1172 1.539 . S
C1175 H1189 0.958 . S
C1175 H1190 0.961 . S
C1175 H1191 0.960 . S
H1176 C1160 0.931 . S
H1177 C1165 0.929 . S
H1178 C1166 0.960 . S
H1179 C1166 0.962 . S
H1180 C1166 0.960 . S
H1181 C1167 0.961 . S
H1182 C1167 0.961 . S
H1183 C1167 0.961 . S
H1184 C1168 0.931 . S
H1185 C1173 0.930 . S
H1186 C1174 0.956 . S
H1187 C1174 0.961 . S
H1188 C1174 0.961 . S
H1189 C1175 0.958 . S
H1190 C1175 0.961 . S
H1191 C1175 0.960 . S
C1192 C1193 1.391 . S
C1192 C1194 1.394 . S
C1192 H1208 0.931 . S
C1193 C1192 1.391 . S
C1193 C1197 1.376 . S
C1194 C1192 1.394 . S
C1194 C1195 1.369 . S
C1194 C1198 1.531 . S
C1195 C1194 1.369 . S
C1195 C1196 1.410 . S
C1195 C1203 1.503 . S
C1196 C1195 1.410 . S
C1196 C1197 1.392 . S
C1196 C1199 1.511 . S
C1197 C1193 1.376 . S
C1197 C1196 1.392 . S
C1197 H1209 0.929 . S
C1198 C1194 1.531 . S
C1198 H1210 0.960 . S
C1198 H1211 0.962 . S
C1198 H1212 0.960 . S
C1199 C1196 1.511 . S
C1199 H1213 0.961 . S
C1199 H1214 0.961 . S
C1199 H1215 0.961 . S
C1200 C1201 1.370 . S
C1200 C1202 1.363 . S
C1200 H1216 0.931 . S
C1201 C1200 1.370 . S
C1201 C1205 1.408 . S
C1202 C1200 1.363 . S
C1202 C1203 1.370 . S
C1202 C1206 1.524 . S
C1203 C1195 1.503 . S
C1203 C1202 1.370 . S
C1203 C1204 1.403 . S
C1204 C1203 1.403 . S
C1204 C1205 1.404 . S
C1204 C1207 1.539 . S
C1205 C1201 1.408 . S
C1205 C1204 1.404 . S
C1205 H1217 0.930 . S
C1206 C1202 1.524 . S
C1206 H1218 0.956 . S
C1206 H1219 0.961 . S
C1206 H1220 0.961 . S
C1207 C1204 1.539 . S
C1207 H1221 0.958 . S
C1207 H1222 0.961 . S
C1207 H1223 0.960 . S
H1208 C1192 0.931 . S
H1209 C1197 0.929 . S
H1210 C1198 0.960 . S
H1211 C1198 0.962 . S
H1212 C1198 0.960 . S
H1213 C1199 0.961 . S
H1214 C1199 0.961 . S
H1215 C1199 0.961 . S
H1216 C1200 0.931 . S
H1217 C1205 0.930 . S
H1218 C1206 0.956 . S
H1219 C1206 0.961 . S
H1220 C1206 0.961 . S
H1221 C1207 0.958 . S
H1222 C1207 0.961 . S
H1223 C1207 0.960 . S
C465 C442 1.678 . S
C457 C29 1.576 . S
C489 C115 1.530 . S
C497 C383 1.584 . S
C521 C153 1.565 . S
C529 C386 1.675 . S
C553 C239 1.543 . S
C561 C400 1.568 . S
C593 C425 1.626 . S
C585 C301 1.589 . S
C617 C339 1.788 . S
C625 C428 1.930 . S
C649 C91 1.517 . S
C657 C397 1.667 . S
C681 C177 1.509 . S
C689 C411 1.558 . S
C713 C215 1.550 . S
C721 C414 1.643 . S
C753 C439 1.913 . S
C745 C277 1.819 . S
C785 C453 1.605 . S
C777 C363 1.576 . S
C817 C372 1.528 . S
C809 C53 1.494 . S
C841 C35 1.534 . S
C849 C395 1.554 . S
C873 C109 1.435 . S
C881 C409 1.512 . S
C913 C419 1.468 . S
C905 C159 1.454 . S
C937 C233 1.601 . S
C945 C437 1.706 . S
C977 C451 1.539 . S
C969 C295 1.443 . S
C1009 C377 1.412 . S
C1001 C345 1.392 . S
C1041 C447 1.486 . S
C1033 C97 1.448 . S
C1065 C171 1.423 . S
C1073 C381 1.527 . S
C1105 C391 1.588 . S
C1097 C221 1.530 . S
C1129 C283 1.426 . S
C1137 C405 1.430 . S
C1161 C357 1.454 . S
C1169 C423 1.550 . S
C1193 C47 1.611 . S
C1201 C433 1.737 . S
