# Generated by pormake.
# Topology tbo, (3,4)-cn, num edge types: 1
# Building blocks:
#     Node 0, Type 0, BuildingBlock: WUSLED_clean_sbu_0, # of connection points: 3
#     Node 1, Type 0, BuildingBlock: WUSLED_clean_sbu_0, # of connection points: 3
#     Node 2, Type 0, BuildingBlock: WUSLED_clean_sbu_0, # of connection points: 3
#     Node 3, Type 0, BuildingBlock: WUSLED_clean_sbu_0, # of connection points: 3
#     Node 4, Type 0, BuildingBlock: WUSLED_clean_sbu_0, # of connection points: 3
#     Node 5, Type 0, BuildingBlock: WUSLED_clean_sbu_0, # of connection points: 3
#     Node 6, Type 0, BuildingBlock: WUSLED_clean_sbu_0, # of connection points: 3
#     Node 7, Type 0, BuildingBlock: WUSLED_clean_sbu_0, # of connection points: 3
#     Node 8, Type 0, BuildingBlock: WUSLED_clean_sbu_0, # of connection points: 3
#     Node 9, Type 0, BuildingBlock: WUSLED_clean_sbu_0, # of connection points: 3
#     Node 10, Type 0, BuildingBlock: WUSLED_clean_sbu_0, # of connection points: 3
#     Node 11, Type 0, BuildingBlock: WUSLED_clean_sbu_0, # of connection points: 3
#     Node 12, Type 0, BuildingBlock: WUSLED_clean_sbu_0, # of connection points: 3
#     Node 13, Type 0, BuildingBlock: WUSLED_clean_sbu_0, # of connection points: 3
#     Node 14, Type 0, BuildingBlock: WUSLED_clean_sbu_0, # of connection points: 3
#     Node 15, Type 0, BuildingBlock: WUSLED_clean_sbu_0, # of connection points: 3
#     Node 16, Type 0, BuildingBlock: WUSLED_clean_sbu_0, # of connection points: 3
#     Node 17, Type 0, BuildingBlock: WUSLED_clean_sbu_0, # of connection points: 3
#     Node 18, Type 0, BuildingBlock: WUSLED_clean_sbu_0, # of connection points: 3
#     Node 19, Type 0, BuildingBlock: WUSLED_clean_sbu_0, # of connection points: 3
#     Node 20, Type 0, BuildingBlock: WUSLED_clean_sbu_0, # of connection points: 3
#     Node 21, Type 0, BuildingBlock: WUSLED_clean_sbu_0, # of connection points: 3
#     Node 22, Type 0, BuildingBlock: WUSLED_clean_sbu_0, # of connection points: 3
#     Node 23, Type 0, BuildingBlock: WUSLED_clean_sbu_0, # of connection points: 3
#     Node 24, Type 0, BuildingBlock: WUSLED_clean_sbu_0, # of connection points: 3
#     Node 25, Type 0, BuildingBlock: WUSLED_clean_sbu_0, # of connection points: 3
#     Node 26, Type 0, BuildingBlock: WUSLED_clean_sbu_0, # of connection points: 3
#     Node 27, Type 0, BuildingBlock: WUSLED_clean_sbu_0, # of connection points: 3
#     Node 28, Type 0, BuildingBlock: WUSLED_clean_sbu_0, # of connection points: 3
#     Node 29, Type 0, BuildingBlock: WUSLED_clean_sbu_0, # of connection points: 3
#     Node 30, Type 0, BuildingBlock: WUSLED_clean_sbu_0, # of connection points: 3
#     Node 31, Type 0, BuildingBlock: WUSLED_clean_sbu_0, # of connection points: 3
#     Node 32, Type 1, BuildingBlock: GIZVER_clean_linker_0, # of connection points: 4
#     Node 33, Type 1, BuildingBlock: GIZVER_clean_linker_0, # of connection points: 4
#     Node 34, Type 1, BuildingBlock: GIZVER_clean_linker_0, # of connection points: 4
#     Node 35, Type 1, BuildingBlock: GIZVER_clean_linker_0, # of connection points: 4
#     Node 36, Type 1, BuildingBlock: GIZVER_clean_linker_0, # of connection points: 4
#     Node 37, Type 1, BuildingBlock: GIZVER_clean_linker_0, # of connection points: 4
#     Node 38, Type 1, BuildingBlock: GIZVER_clean_linker_0, # of connection points: 4
#     Node 39, Type 1, BuildingBlock: GIZVER_clean_linker_0, # of connection points: 4
#     Node 40, Type 1, BuildingBlock: GIZVER_clean_linker_0, # of connection points: 4
#     Node 41, Type 1, BuildingBlock: GIZVER_clean_linker_0, # of connection points: 4
#     Node 42, Type 1, BuildingBlock: GIZVER_clean_linker_0, # of connection points: 4
#     Node 43, Type 1, BuildingBlock: GIZVER_clean_linker_0, # of connection points: 4
#     Node 44, Type 1, BuildingBlock: GIZVER_clean_linker_0, # of connection points: 4
#     Node 45, Type 1, BuildingBlock: GIZVER_clean_linker_0, # of connection points: 4
#     Node 46, Type 1, BuildingBlock: GIZVER_clean_linker_0, # of connection points: 4
#     Node 47, Type 1, BuildingBlock: GIZVER_clean_linker_0, # of connection points: 4
#     Node 48, Type 1, BuildingBlock: GIZVER_clean_linker_0, # of connection points: 4
#     Node 49, Type 1, BuildingBlock: GIZVER_clean_linker_0, # of connection points: 4
#     Node 50, Type 1, BuildingBlock: GIZVER_clean_linker_0, # of connection points: 4
#     Node 51, Type 1, BuildingBlock: GIZVER_clean_linker_0, # of connection points: 4
#     Node 52, Type 1, BuildingBlock: GIZVER_clean_linker_0, # of connection points: 4
#     Node 53, Type 1, BuildingBlock: GIZVER_clean_linker_0, # of connection points: 4
#     Node 54, Type 1, BuildingBlock: GIZVER_clean_linker_0, # of connection points: 4
#     Node 55, Type 1, BuildingBlock: GIZVER_clean_linker_0, # of connection points: 4
#     Edge 56, Type (0, 1), BuildingBlock: KIFKEQ_clean_linker_1, # of connection points: 2
#     Edge 57, Type (0, 1), BuildingBlock: KIFKEQ_clean_linker_1, # of connection points: 2
#     Edge 58, Type (0, 1), BuildingBlock: KIFKEQ_clean_linker_1, # of connection points: 2
#     Edge 59, Type (0, 1), BuildingBlock: KIFKEQ_clean_linker_1, # of connection points: 2
#     Edge 60, Type (0, 1), BuildingBlock: KIFKEQ_clean_linker_1, # of connection points: 2
#     Edge 61, Type (0, 1), BuildingBlock: KIFKEQ_clean_linker_1, # of connection points: 2
#     Edge 62, Type (0, 1), BuildingBlock: KIFKEQ_clean_linker_1, # of connection points: 2
#     Edge 63, Type (0, 1), BuildingBlock: KIFKEQ_clean_linker_1, # of connection points: 2
#     Edge 64, Type (0, 1), BuildingBlock: KIFKEQ_clean_linker_1, # of connection points: 2
#     Edge 65, Type (0, 1), BuildingBlock: KIFKEQ_clean_linker_1, # of connection points: 2
#     Edge 66, Type (0, 1), BuildingBlock: KIFKEQ_clean_linker_1, # of connection points: 2
#     Edge 67, Type (0, 1), BuildingBlock: KIFKEQ_clean_linker_1, # of connection points: 2
#     Edge 68, Type (0, 1), BuildingBlock: KIFKEQ_clean_linker_1, # of connection points: 2
#     Edge 69, Type (0, 1), BuildingBlock: KIFKEQ_clean_linker_1, # of connection points: 2
#     Edge 70, Type (0, 1), BuildingBlock: KIFKEQ_clean_linker_1, # of connection points: 2
#     Edge 71, Type (0, 1), BuildingBlock: KIFKEQ_clean_linker_1, # of connection points: 2
#     Edge 72, Type (0, 1), BuildingBlock: KIFKEQ_clean_linker_1, # of connection points: 2
#     Edge 73, Type (0, 1), BuildingBlock: KIFKEQ_clean_linker_1, # of connection points: 2
#     Edge 74, Type (0, 1), BuildingBlock: KIFKEQ_clean_linker_1, # of connection points: 2
#     Edge 75, Type (0, 1), BuildingBlock: KIFKEQ_clean_linker_1, # of connection points: 2
#     Edge 76, Type (0, 1), BuildingBlock: KIFKEQ_clean_linker_1, # of connection points: 2
#     Edge 77, Type (0, 1), BuildingBlock: KIFKEQ_clean_linker_1, # of connection points: 2
#     Edge 78, Type (0, 1), BuildingBlock: KIFKEQ_clean_linker_1, # of connection points: 2
#     Edge 79, Type (0, 1), BuildingBlock: KIFKEQ_clean_linker_1, # of connection points: 2
#     Edge 80, Type (0, 1), BuildingBlock: KIFKEQ_clean_linker_1, # of connection points: 2
#     Edge 81, Type (0, 1), BuildingBlock: KIFKEQ_clean_linker_1, # of connection points: 2
#     Edge 82, Type (0, 1), BuildingBlock: KIFKEQ_clean_linker_1, # of connection points: 2
#     Edge 83, Type (0, 1), BuildingBlock: KIFKEQ_clean_linker_1, # of connection points: 2
#     Edge 84, Type (0, 1), BuildingBlock: KIFKEQ_clean_linker_1, # of connection points: 2
#     Edge 85, Type (0, 1), BuildingBlock: KIFKEQ_clean_linker_1, # of connection points: 2
#     Edge 86, Type (0, 1), BuildingBlock: KIFKEQ_clean_linker_1, # of connection points: 2
#     Edge 87, Type (0, 1), BuildingBlock: KIFKEQ_clean_linker_1, # of connection points: 2
#     Edge 88, Type (0, 1), BuildingBlock: KIFKEQ_clean_linker_1, # of connection points: 2
#     Edge 89, Type (0, 1), BuildingBlock: KIFKEQ_clean_linker_1, # of connection points: 2
#     Edge 90, Type (0, 1), BuildingBlock: KIFKEQ_clean_linker_1, # of connection points: 2
#     Edge 91, Type (0, 1), BuildingBlock: KIFKEQ_clean_linker_1, # of connection points: 2
#     Edge 92, Type (0, 1), BuildingBlock: KIFKEQ_clean_linker_1, # of connection points: 2
#     Edge 93, Type (0, 1), BuildingBlock: KIFKEQ_clean_linker_1, # of connection points: 2
#     Edge 94, Type (0, 1), BuildingBlock: KIFKEQ_clean_linker_1, # of connection points: 2
#     Edge 95, Type (0, 1), BuildingBlock: KIFKEQ_clean_linker_1, # of connection points: 2
#     Edge 96, Type (0, 1), BuildingBlock: KIFKEQ_clean_linker_1, # of connection points: 2
#     Edge 97, Type (0, 1), BuildingBlock: KIFKEQ_clean_linker_1, # of connection points: 2
#     Edge 98, Type (0, 1), BuildingBlock: KIFKEQ_clean_linker_1, # of connection points: 2
#     Edge 99, Type (0, 1), BuildingBlock: KIFKEQ_clean_linker_1, # of connection points: 2
#     Edge 100, Type (0, 1), BuildingBlock: KIFKEQ_clean_linker_1, # of connection points: 2
#     Edge 101, Type (0, 1), BuildingBlock: KIFKEQ_clean_linker_1, # of connection points: 2
#     Edge 102, Type (0, 1), BuildingBlock: KIFKEQ_clean_linker_1, # of connection points: 2
#     Edge 103, Type (0, 1), BuildingBlock: KIFKEQ_clean_linker_1, # of connection points: 2
#     Edge 104, Type (0, 1), BuildingBlock: KIFKEQ_clean_linker_1, # of connection points: 2
#     Edge 105, Type (0, 1), BuildingBlock: KIFKEQ_clean_linker_1, # of connection points: 2
#     Edge 106, Type (0, 1), BuildingBlock: KIFKEQ_clean_linker_1, # of connection points: 2
#     Edge 107, Type (0, 1), BuildingBlock: KIFKEQ_clean_linker_1, # of connection points: 2
#     Edge 108, Type (0, 1), BuildingBlock: KIFKEQ_clean_linker_1, # of connection points: 2
#     Edge 109, Type (0, 1), BuildingBlock: KIFKEQ_clean_linker_1, # of connection points: 2
#     Edge 110, Type (0, 1), BuildingBlock: KIFKEQ_clean_linker_1, # of connection points: 2
#     Edge 111, Type (0, 1), BuildingBlock: KIFKEQ_clean_linker_1, # of connection points: 2
#     Edge 112, Type (0, 1), BuildingBlock: KIFKEQ_clean_linker_1, # of connection points: 2
#     Edge 113, Type (0, 1), BuildingBlock: KIFKEQ_clean_linker_1, # of connection points: 2
#     Edge 114, Type (0, 1), BuildingBlock: KIFKEQ_clean_linker_1, # of connection points: 2
#     Edge 115, Type (0, 1), BuildingBlock: KIFKEQ_clean_linker_1, # of connection points: 2
#     Edge 116, Type (0, 1), BuildingBlock: KIFKEQ_clean_linker_1, # of connection points: 2
#     Edge 117, Type (0, 1), BuildingBlock: KIFKEQ_clean_linker_1, # of connection points: 2
#     Edge 118, Type (0, 1), BuildingBlock: KIFKEQ_clean_linker_1, # of connection points: 2
#     Edge 119, Type (0, 1), BuildingBlock: KIFKEQ_clean_linker_1, # of connection points: 2
#     Edge 120, Type (0, 1), BuildingBlock: KIFKEQ_clean_linker_1, # of connection points: 2
#     Edge 121, Type (0, 1), BuildingBlock: KIFKEQ_clean_linker_1, # of connection points: 2
#     Edge 122, Type (0, 1), BuildingBlock: KIFKEQ_clean_linker_1, # of connection points: 2
#     Edge 123, Type (0, 1), BuildingBlock: KIFKEQ_clean_linker_1, # of connection points: 2
#     Edge 124, Type (0, 1), BuildingBlock: KIFKEQ_clean_linker_1, # of connection points: 2
#     Edge 125, Type (0, 1), BuildingBlock: KIFKEQ_clean_linker_1, # of connection points: 2
#     Edge 126, Type (0, 1), BuildingBlock: KIFKEQ_clean_linker_1, # of connection points: 2
#     Edge 127, Type (0, 1), BuildingBlock: KIFKEQ_clean_linker_1, # of connection points: 2
#     Edge 128, Type (0, 1), BuildingBlock: KIFKEQ_clean_linker_1, # of connection points: 2
#     Edge 129, Type (0, 1), BuildingBlock: KIFKEQ_clean_linker_1, # of connection points: 2
#     Edge 130, Type (0, 1), BuildingBlock: KIFKEQ_clean_linker_1, # of connection points: 2
#     Edge 131, Type (0, 1), BuildingBlock: KIFKEQ_clean_linker_1, # of connection points: 2
#     Edge 132, Type (0, 1), BuildingBlock: KIFKEQ_clean_linker_1, # of connection points: 2
#     Edge 133, Type (0, 1), BuildingBlock: KIFKEQ_clean_linker_1, # of connection points: 2
#     Edge 134, Type (0, 1), BuildingBlock: KIFKEQ_clean_linker_1, # of connection points: 2
#     Edge 135, Type (0, 1), BuildingBlock: KIFKEQ_clean_linker_1, # of connection points: 2
#     Edge 136, Type (0, 1), BuildingBlock: KIFKEQ_clean_linker_1, # of connection points: 2
#     Edge 137, Type (0, 1), BuildingBlock: KIFKEQ_clean_linker_1, # of connection points: 2
#     Edge 138, Type (0, 1), BuildingBlock: KIFKEQ_clean_linker_1, # of connection points: 2
#     Edge 139, Type (0, 1), BuildingBlock: KIFKEQ_clean_linker_1, # of connection points: 2
#     Edge 140, Type (0, 1), BuildingBlock: KIFKEQ_clean_linker_1, # of connection points: 2
#     Edge 141, Type (0, 1), BuildingBlock: KIFKEQ_clean_linker_1, # of connection points: 2
#     Edge 142, Type (0, 1), BuildingBlock: KIFKEQ_clean_linker_1, # of connection points: 2
#     Edge 143, Type (0, 1), BuildingBlock: KIFKEQ_clean_linker_1, # of connection points: 2
#     Edge 144, Type (0, 1), BuildingBlock: KIFKEQ_clean_linker_1, # of connection points: 2
#     Edge 145, Type (0, 1), BuildingBlock: KIFKEQ_clean_linker_1, # of connection points: 2
#     Edge 146, Type (0, 1), BuildingBlock: KIFKEQ_clean_linker_1, # of connection points: 2
#     Edge 147, Type (0, 1), BuildingBlock: KIFKEQ_clean_linker_1, # of connection points: 2
#     Edge 148, Type (0, 1), BuildingBlock: KIFKEQ_clean_linker_1, # of connection points: 2
#     Edge 149, Type (0, 1), BuildingBlock: KIFKEQ_clean_linker_1, # of connection points: 2
#     Edge 150, Type (0, 1), BuildingBlock: KIFKEQ_clean_linker_1, # of connection points: 2
#     Edge 151, Type (0, 1), BuildingBlock: KIFKEQ_clean_linker_1, # of connection points: 2
# Relax obj value: 0.000
# Max RMSD: 0.035
# Mean RMSD: 0.017
data_MOF--net-tbo--node1-WUSLED_clean_sbu_0--node2-GIZVER_clean_linker_0--edge1-KIFKEQ_clean_linker_1
_symmetry_space_group_name_H-M    P1
_symmetry_Int_Tables_number       1
_symmetry_cell_setting            triclinic
loop_
_symmetry_equiv_pos_as_xyz
'x, y, z'
_cell_length_a     95.887158
_cell_length_b     96.258756
_cell_length_c     96.075259
_cell_angle_alpha  89.664967
_cell_angle_beta   90.406756
_cell_angle_gamma 90.842914
loop_
_atom_site_label
_atom_site_type_symbol
_atom_site_fract_x
_atom_site_fract_y
_atom_site_fract_z
_atom_type_partial_charge
C0 C 0.18155 0.14285 0.20183 0.0
C1 C 0.1954 0.14118 0.19756 0.0
C2 C 0.19702 0.11974 0.21117 0.0
C3 C 0.20307 0.12975 0.20222 0.0
C4 C 0.18304 0.12135 0.21515 0.0
C5 C 0.17541 0.1328 0.21055 0.0
U6 U 0.17469 0.17416 0.17793 0.0
O7 O 0.15481 0.1827 0.17042 0.0
O8 O 0.16887 0.19551 0.18331 0.0
C9 C 0.15665 0.19448 0.17711 0.0
C10 C 0.17349 0.15516 0.19768 0.0
C11 C 0.14469 0.19949 0.18514 0.0
C12 C 0.12581 0.19596 0.20168 0.0
C13 C 0.13708 0.19076 0.19417 0.0
C14 C 0.12969 0.21864 0.19126 0.0
C15 C 0.12203 0.21 0.20037 0.0
C16 C 0.14088 0.21343 0.18374 0.0
C17 C 0.19926 0.18105 0.1469 0.0
C18 C 0.19524 0.19721 0.12774 0.0
C19 C 0.21802 0.18712 0.131 0.0
C20 C 0.21311 0.17978 0.14261 0.0
C21 C 0.20916 0.1959 0.12334 0.0
C22 C 0.19034 0.18987 0.13942 0.0
C23 C 0.19444 0.17303 0.15912 0.0
O24 O 0.17995 0.16722 0.19913 0.0
O25 O 0.16647 0.15416 0.18591 0.0
O26 O 0.18233 0.16655 0.15786 0.0
O27 O 0.19614 0.17911 0.17123 0.0
H28 H 0.20031 0.14879 0.19076 0.0
H29 H 0.21375 0.12876 0.19881 0.0
H30 H 0.17809 0.11396 0.22216 0.0
H31 H 0.16474 0.13392 0.21397 0.0
H32 H 0.12022 0.18906 0.20871 0.0
H33 H 0.1399 0.17996 0.19545 0.0
H34 H 0.12697 0.22943 0.18983 0.0
H35 H 0.14659 0.22033 0.1768 0.0
H36 H 0.18807 0.20377 0.12206 0.0
H37 H 0.22886 0.18604 0.12814 0.0
H38 H 0.22018 0.17309 0.14829 0.0
H39 H 0.1796 0.19102 0.14258 0.0
C40 C 0.82987 0.17921 0.1432 0.0
C41 C 0.83519 0.1927 0.14103 0.0
C42 C 0.82064 0.19518 0.12024 0.0
C43 C 0.83059 0.20063 0.12966 0.0
C44 C 0.81556 0.18154 0.12236 0.0
C45 C 0.82012 0.17365 0.13375 0.0
U46 U 0.85388 0.17296 0.17444 0.0
O47 O 0.84892 0.1662 0.19573 0.0
O48 O 0.8624 0.15342 0.18279 0.0
C49 C 0.85553 0.15441 0.19453 0.0
C50 C 0.83417 0.17094 0.15539 0.0
C51 C 0.84781 0.14184 0.19907 0.0
C52 C 0.82629 0.12829 0.2012 0.0
C53 C 0.83358 0.13989 0.19596 0.0
C54 C 0.84744 0.12026 0.21234 0.0
C55 C 0.83309 0.11842 0.20963 0.0
C56 C 0.8547 0.13186 0.20714 0.0
C57 C 0.88367 0.19934 0.1815 0.0
C58 C 0.90257 0.19632 0.19824 0.0
C59 C 0.89873 0.21888 0.18772 0.0
C60 C 0.88751 0.21337 0.1801 0.0
C61 C 0.90638 0.21045 0.19692 0.0
C62 C 0.89126 0.19082 0.19063 0.0
C63 C 0.8717 0.19394 0.17339 0.0
O64 O 0.84625 0.16477 0.15437 0.0
O65 O 0.83238 0.17687 0.16752 0.0
O66 O 0.85952 0.19462 0.17949 0.0
O67 O 0.87356 0.18216 0.16684 0.0
H68 H 0.84279 0.19714 0.14819 0.0
H69 H 0.83484 0.21102 0.12825 0.0
H70 H 0.80777 0.17708 0.11543 0.0
H71 H 0.8159 0.16326 0.13528 0.0
H72 H 0.81523 0.1273 0.19899 0.0
H73 H 0.82807 0.14746 0.18971 0.0
H74 H 0.85309 0.11277 0.21856 0.0
H75 H 0.86569 0.13315 0.2096 0.0
H76 H 0.90815 0.18958 0.20534 0.0
H77 H 0.90149 0.22975 0.18632 0.0
H78 H 0.88179 0.2201 0.17308 0.0
H79 H 0.8884 0.17995 0.19191 0.0
C80 C 0.8315 0.8486 0.14557 0.0
C81 C 0.8365 0.83513 0.14363 0.0
C82 C 0.82239 0.83269 0.12248 0.0
C83 C 0.83196 0.82723 0.1322 0.0
C84 C 0.81763 0.84631 0.12441 0.0
C85 C 0.82213 0.85416 0.13585 0.0
U86 U 0.85528 0.85617 0.17705 0.0
O87 O 0.86319 0.87625 0.18501 0.0
O88 O 0.84986 0.86295 0.19812 0.0
C89 C 0.85632 0.87502 0.19675 0.0
C90 C 0.83568 0.85692 0.15779 0.0
C91 C 0.8485 0.8873 0.20115 0.0
C92 C 0.82716 0.90062 0.20231 0.0
C93 C 0.83452 0.88922 0.19727 0.0
C94 C 0.8478 0.90843 0.21483 0.0
C95 C 0.83367 0.91028 0.21131 0.0
C96 C 0.85511 0.89706 0.20982 0.0
C97 C 0.88607 0.83217 0.1851 0.0
C98 C 0.89905 0.83162 0.20696 0.0
C99 C 0.90732 0.81881 0.1871 0.0
C100 C 0.89599 0.82348 0.1792 0.0
C101 C 0.90894 0.82272 0.20112 0.0
C102 C 0.88773 0.83633 0.19901 0.0
C103 C 0.87394 0.83644 0.17667 0.0
O104 O 0.83402 0.85083 0.16996 0.0
O105 O 0.8476 0.86377 0.15675 0.0
O106 O 0.87538 0.84821 0.16978 0.0
O107 O 0.8617 0.83502 0.18264 0.0
H108 H 0.84381 0.83068 0.151 0.0
H109 H 0.83597 0.81685 0.13096 0.0
H110 H 0.81013 0.85079 0.11727 0.0
H111 H 0.81814 0.86453 0.13719 0.0
H112 H 0.81628 0.90164 0.19946 0.0
H113 H 0.82923 0.8818 0.19056 0.0
H114 H 0.85323 0.91577 0.22152 0.0
H115 H 0.86592 0.8958 0.21288 0.0
H116 H 0.90006 0.83495 0.21767 0.0
H117 H 0.91461 0.81184 0.18232 0.0
H118 H 0.89487 0.82014 0.16849 0.0
H119 H 0.88021 0.84311 0.20374 0.0
C120 C 0.14257 0.83013 0.18172 0.0
C121 C 0.14119 0.83316 0.19592 0.0
C122 C 0.1193 0.81988 0.19679 0.0
C123 C 0.12967 0.82807 0.20339 0.0
C124 C 0.12059 0.81725 0.18246 0.0
C125 C 0.13211 0.82229 0.17503 0.0
U126 U 0.1738 0.8547 0.17473 0.0
O127 O 0.19535 0.84967 0.16904 0.0
O128 O 0.18246 0.86205 0.15481 0.0
C129 C 0.19434 0.85562 0.15674 0.0
C130 C 0.15501 0.83457 0.17379 0.0
C131 C 0.19948 0.84748 0.14493 0.0
C132 C 0.19598 0.83088 0.12615 0.0
C133 C 0.19071 0.83843 0.13735 0.0
C134 C 0.21881 0.84129 0.13009 0.0
C135 C 0.21013 0.83218 0.12243 0.0
C136 C 0.21353 0.84885 0.1412 0.0
C137 C 0.1805 0.88628 0.19818 0.0
C138 C 0.20189 0.90017 0.1979 0.0
C139 C 0.1825 0.90722 0.21211 0.0
C140 C 0.17474 0.89569 0.20753 0.0
C141 C 0.19623 0.90956 0.20745 0.0
C142 C 0.19408 0.88864 0.19328 0.0
C143 C 0.1723 0.87392 0.19397 0.0
O144 O 0.1539 0.84616 0.1666 0.0
O145 O 0.16704 0.83349 0.18032 0.0
O146 O 0.17839 0.86192 0.19597 0.0
O147 O 0.16585 0.87478 0.18189 0.0
H148 H 0.14913 0.83924 0.20129 0.0
H149 H 0.12912 0.83022 0.21442 0.0
H150 H 0.11271 0.81122 0.17695 0.0
H151 H 0.13295 0.81991 0.16406 0.0
H152 H 0.18906 0.82386 0.12056 0.0
H153 H 0.17983 0.83718 0.14011 0.0
H154 H 0.22969 0.84269 0.1274 0.0
H155 H 0.22045 0.85581 0.14689 0.0
H156 H 0.21236 0.90173 0.19398 0.0
H157 H 0.17787 0.91411 0.2196 0.0
H158 H 0.16427 0.89401 0.21144 0.0
H159 H 0.19869 0.88151 0.186 0.0
C160 C 0.14066 0.83198 0.85188 0.0
C161 C 0.13826 0.83585 0.83797 0.0
C162 C 0.11709 0.82146 0.83732 0.0
C163 C 0.12659 0.83062 0.83074 0.0
C164 C 0.1194 0.81793 0.85138 0.0
C165 C 0.13108 0.82313 0.85857 0.0
U166 U 0.17211 0.85659 0.85659 0.0
O167 O 0.18145 0.8652 0.87574 0.0
O168 O 0.1938 0.85183 0.86229 0.0
C169 C 0.19319 0.85852 0.87415 0.0
C170 C 0.15326 0.83671 0.85945 0.0
C171 C 0.1984 0.85089 0.88641 0.0
C172 C 0.1955 0.83355 0.90473 0.0
C173 C 0.19009 0.84095 0.89334 0.0
C174 C 0.21751 0.84599 0.90234 0.0
C175 C 0.20933 0.8359 0.90928 0.0
C176 C 0.21209 0.85339 0.89103 0.0
C177 C 0.17823 0.88622 0.83027 0.0
C178 C 0.19537 0.9049 0.83309 0.0
C179 C 0.18419 0.9012 0.8107 0.0
C180 C 0.17651 0.89007 0.81629 0.0
C181 C 0.19375 0.90873 0.81901 0.0
C182 C 0.18771 0.89369 0.83866 0.0
C183 C 0.17015 0.87428 0.83576 0.0
O184 O 0.16511 0.83508 0.85291 0.0
O185 O 0.15242 0.84879 0.86566 0.0
O186 O 0.16407 0.87609 0.84783 0.0
O187 O 0.17614 0.86215 0.83471 0.0
H188 H 0.14554 0.84271 0.83263 0.0
H189 H 0.12524 0.83346 0.8199 0.0
H190 H 0.1122 0.81111 0.85686 0.0
H191 H 0.13272 0.82009 0.86933 0.0
H192 H 0.18897 0.82576 0.90976 0.0
H193 H 0.17951 0.83882 0.88986 0.0
H194 H 0.22812 0.84819 0.90567 0.0
H195 H 0.21864 0.86104 0.88581 0.0
H196 H 0.20275 0.91039 0.83972 0.0
H197 H 0.18257 0.90397 0.79987 0.0
H198 H 0.16923 0.88443 0.80966 0.0
H199 H 0.18925 0.89081 0.84948 0.0
C200 C 0.14256 0.18012 0.83077 0.0
C201 C 0.13629 0.19013 0.83916 0.0
C202 C 0.11985 0.19564 0.82045 0.0
C203 C 0.12499 0.1978 0.83406 0.0
C204 C 0.12616 0.1855 0.81218 0.0
C205 C 0.13738 0.17784 0.8173 0.0
U206 U 0.17296 0.17259 0.8561 0.0
O207 O 0.18041 0.15239 0.86386 0.0
O208 O 0.1942 0.16582 0.85139 0.0
C209 C 0.1924 0.15363 0.85739 0.0
C210 C 0.15454 0.17198 0.83569 0.0
C211 C 0.19665 0.14152 0.8492 0.0
C212 C 0.19718 0.12858 0.82753 0.0
C213 C 0.19247 0.13986 0.83527 0.0
C214 C 0.21002 0.12032 0.84766 0.0
C215 C 0.2061 0.1187 0.8336 0.0
C216 C 0.20536 0.13161 0.85535 0.0
C217 C 0.18006 0.19653 0.88749 0.0
C218 C 0.20179 0.1988 0.90061 0.0
C219 C 0.18073 0.20911 0.90937 0.0
C220 C 0.17331 0.20409 0.89782 0.0
C221 C 0.19513 0.20672 0.91083 0.0
C222 C 0.19433 0.19375 0.88905 0.0
C223 C 0.1721 0.19219 0.87501 0.0
O224 O 0.16681 0.17816 0.83468 0.0
O225 O 0.15288 0.16518 0.84748 0.0
O226 O 0.16504 0.18042 0.87604 0.0
O227 O 0.17853 0.19368 0.86304 0.0
H228 H 0.14019 0.19206 0.84959 0.0
H229 H 0.12047 0.2056 0.84065 0.0
H230 H 0.12236 0.18341 0.80175 0.0
H231 H 0.14204 0.17013 0.81068 0.0
H232 H 0.19383 0.12758 0.81679 0.0
H233 H 0.18569 0.14737 0.83034 0.0
H234 H 0.21701 0.11304 0.85263 0.0
H235 H 0.20872 0.13273 0.86608 0.0
H236 H 0.21287 0.19685 0.90131 0.0
H237 H 0.17518 0.21492 0.91713 0.0
H238 H 0.1623 0.20629 0.89685 0.0
H239 H 0.19974 0.18789 0.88121 0.0
C240 C 0.83037 0.14376 0.85437 0.0
C241 C 0.83364 0.14224 0.84024 0.0
C242 C 0.82047 0.12034 0.8394 0.0
C243 C 0.82872 0.13065 0.83282 0.0
C244 C 0.81757 0.12179 0.85366 0.0
C245 C 0.82244 0.13339 0.86104 0.0
U246 U 0.85413 0.17568 0.86022 0.0
O247 O 0.84861 0.1969 0.86632 0.0
O248 O 0.86233 0.18456 0.87975 0.0
C249 C 0.85524 0.19608 0.8783 0.0
C250 C 0.83471 0.15624 0.86222 0.0
C251 C 0.84733 0.20053 0.89055 0.0
C252 C 0.83004 0.19629 0.90857 0.0
C253 C 0.83754 0.1917 0.89703 0.0
C254 C 0.84203 0.21857 0.90721 0.0
C255 C 0.83218 0.20981 0.91382 0.0
C256 C 0.84951 0.21396 0.89573 0.0
C257 C 0.88408 0.1829 0.83436 0.0
C258 C 0.90265 0.20022 0.83708 0.0
C259 C 0.89945 0.18844 0.81505 0.0
C260 C 0.88823 0.18086 0.82059 0.0
C261 C 0.90679 0.19826 0.82319 0.0
C262 C 0.89135 0.19263 0.84261 0.0
C263 C 0.87216 0.17473 0.83977 0.0
O264 O 0.84678 0.15556 0.86873 0.0
O265 O 0.8328 0.16819 0.85585 0.0
O266 O 0.8599 0.18056 0.83857 0.0
O267 O 0.87404 0.16848 0.85183 0.0
H268 H 0.83978 0.15013 0.83489 0.0
H269 H 0.83106 0.12997 0.82184 0.0
H270 H 0.81149 0.11396 0.85915 0.0
H271 H 0.81988 0.13434 0.87196 0.0
H272 H 0.82265 0.18921 0.91345 0.0
H273 H 0.83569 0.18128 0.89316 0.0
H274 H 0.84379 0.22912 0.91074 0.0
H275 H 0.85696 0.22096 0.8908 0.0
H276 H 0.90799 0.20778 0.84359 0.0
H277 H 0.90246 0.18652 0.8044 0.0
H278 H 0.88278 0.17337 0.81408 0.0
H279 H 0.88826 0.19439 0.85327 0.0
C280 C 0.84799 0.88426 0.83108 0.0
C281 C 0.83879 0.89143 0.83969 0.0
C282 C 0.83253 0.9068 0.82037 0.0
C283 C 0.83116 0.90264 0.83439 0.0
C284 C 0.84181 0.89957 0.81186 0.0
C285 C 0.84944 0.88844 0.81717 0.0
U286 U 0.8555 0.85435 0.8569 0.0
O287 O 0.86244 0.83316 0.85253 0.0
O288 O 0.87574 0.84713 0.86497 0.0
C289 C 0.87457 0.83505 0.85873 0.0
C290 C 0.85618 0.87242 0.83625 0.0
C291 C 0.88688 0.8305 0.85095 0.0
C292 C 0.90045 0.82929 0.82967 0.0
C293 C 0.88902 0.83439 0.83701 0.0
C294 C 0.90785 0.81663 0.85022 0.0
C295 C 0.90992 0.8202 0.83615 0.0
C296 C 0.89645 0.82172 0.85751 0.0
C297 C 0.83122 0.84757 0.88814 0.0
C298 C 0.82889 0.82606 0.90146 0.0
C299 C 0.81848 0.84712 0.90993 0.0
C300 C 0.82357 0.85439 0.89834 0.0
C301 C 0.82088 0.83281 0.91157 0.0
C302 C 0.83402 0.83337 0.88986 0.0
C303 C 0.83565 0.85536 0.8756 0.0
O304 O 0.86292 0.87426 0.84808 0.0
O305 O 0.85006 0.86015 0.83534 0.0
O306 O 0.83429 0.84879 0.86369 0.0
O307 O 0.84741 0.86247 0.87665 0.0
H308 H 0.83747 0.88832 0.85046 0.0
H309 H 0.82401 0.90789 0.8412 0.0
H310 H 0.84328 0.90259 0.80109 0.0
H311 H 0.85652 0.88307 0.81037 0.0
H312 H 0.90163 0.83216 0.81883 0.0
H313 H 0.88175 0.84119 0.83175 0.0
H314 H 0.91503 0.80987 0.85563 0.0
H315 H 0.89501 0.81865 0.86829 0.0
H316 H 0.83086 0.81504 0.90228 0.0
H317 H 0.8126 0.85274 0.9176 0.0
H318 H 0.82136 0.86535 0.89725 0.0
H319 H 0.83995 0.82789 0.88212 0.0
C320 C 0.17953 0.643 0.70187 0.0
C321 C 0.18916 0.63661 0.69311 0.0
C322 C 0.19415 0.61929 0.71112 0.0
C323 C 0.1964 0.62485 0.69769 0.0
C324 C 0.18448 0.62581 0.7198 0.0
C325 C 0.17726 0.63751 0.7152 0.0
U326 U 0.17306 0.6739 0.67716 0.0
O327 O 0.15322 0.68267 0.66987 0.0
O328 O 0.16773 0.69547 0.68224 0.0
C329 C 0.15536 0.69452 0.67634 0.0
C330 C 0.17186 0.65544 0.69743 0.0
C331 C 0.14363 0.69977 0.68456 0.0
C332 C 0.1247 0.69645 0.70107 0.0
C333 C 0.13586 0.6911 0.69351 0.0
C334 C 0.12905 0.71916 0.69088 0.0
C335 C 0.12119 0.71058 0.69988 0.0
C336 C 0.14013 0.7138 0.68332 0.0
C337 C 0.19683 0.6797 0.64538 0.0
C338 C 0.19865 0.70102 0.6317 0.0
C339 C 0.21033 0.68031 0.62405 0.0
C340 C 0.20516 0.67304 0.63561 0.0
C341 C 0.2073 0.69445 0.62202 0.0
C342 C 0.19345 0.69371 0.64328 0.0
C343 C 0.19224 0.67195 0.65786 0.0
O344 O 0.17877 0.66729 0.6984 0.0
O345 O 0.16459 0.65433 0.68582 0.0
O346 O 0.17999 0.6657 0.65701 0.0
O347 O 0.19436 0.6782 0.66983 0.0
H348 H 0.19107 0.64072 0.68277 0.0
H349 H 0.20366 0.62006 0.69067 0.0
H350 H 0.18265 0.62203 0.73027 0.0
H351 H 0.16993 0.64235 0.72214 0.0
H352 H 0.11896 0.68959 0.70801 0.0
H353 H 0.13844 0.68023 0.69467 0.0
H354 H 0.12654 0.73002 0.68956 0.0
H355 H 0.14597 0.72065 0.67643 0.0
H356 H 0.19619 0.71191 0.63056 0.0
H357 H 0.21674 0.67483 0.61672 0.0
H358 H 0.20783 0.66222 0.63701 0.0
H359 H 0.18701 0.69904 0.6507 0.0
C360 C 0.82706 0.68077 0.64442 0.0
C361 C 0.83598 0.68972 0.63693 0.0
C362 C 0.81686 0.69589 0.62125 0.0
C363 C 0.83093 0.69717 0.62543 0.0
C364 C 0.80799 0.68693 0.62887 0.0
C365 C 0.81305 0.67944 0.64031 0.0
U366 U 0.85258 0.67493 0.67475 0.0
O367 O 0.8484 0.66821 0.69624 0.0
O368 O 0.8614 0.65542 0.68282 0.0
C369 C 0.85494 0.6564 0.69479 0.0
C370 C 0.83207 0.67282 0.65657 0.0
C371 C 0.84731 0.64385 0.6995 0.0
C372 C 0.82591 0.63011 0.70165 0.0
C373 C 0.8331 0.64177 0.6964 0.0
C374 C 0.84715 0.6223 0.71281 0.0
C375 C 0.83282 0.6203 0.71007 0.0
C376 C 0.8543 0.63396 0.7076 0.0
C377 C 0.88266 0.70114 0.68085 0.0
C378 C 0.90163 0.69804 0.69749 0.0
C379 C 0.8981 0.72052 0.68667 0.0
C380 C 0.88673 0.71508 0.6792 0.0
C381 C 0.90566 0.71209 0.69596 0.0
C382 C 0.89018 0.69261 0.69003 0.0
C383 C 0.87042 0.69586 0.67305 0.0
O384 O 0.84409 0.66662 0.65512 0.0
O385 O 0.83081 0.67897 0.66866 0.0
O386 O 0.85845 0.69658 0.67955 0.0
O387 O 0.87199 0.68408 0.66642 0.0
H388 H 0.84683 0.69092 0.63997 0.0
H389 H 0.83811 0.70385 0.61975 0.0
H390 H 0.79705 0.68585 0.62617 0.0
H391 H 0.80599 0.67266 0.64602 0.0
H392 H 0.81487 0.62901 0.69943 0.0
H393 H 0.82752 0.64927 0.69012 0.0
H394 H 0.85287 0.61486 0.71902 0.0
H395 H 0.86528 0.63534 0.71004 0.0
H396 H 0.90714 0.69131 0.70466 0.0
H397 H 0.90101 0.73132 0.68511 0.0
H398 H 0.88106 0.72181 0.67214 0.0
H399 H 0.88713 0.68183 0.69151 0.0
C400 C 0.83006 0.34854 0.64618 0.0
C401 C 0.83896 0.33979 0.63884 0.0
C402 C 0.81997 0.33346 0.62288 0.0
C403 C 0.83397 0.33234 0.62728 0.0
C404 C 0.81112 0.34218 0.63041 0.0
C405 C 0.81612 0.34963 0.6419 0.0
U406 U 0.85546 0.3558 0.67662 0.0
O407 O 0.86382 0.37585 0.68421 0.0
O408 O 0.85094 0.36269 0.69787 0.0
C409 C 0.85737 0.37473 0.69619 0.0
C410 C 0.83502 0.35668 0.65825 0.0
C411 C 0.84965 0.38704 0.70069 0.0
C412 C 0.82843 0.40057 0.70173 0.0
C413 C 0.83572 0.38913 0.6967 0.0
C414 C 0.84902 0.40809 0.71452 0.0
C415 C 0.83495 0.41011 0.71085 0.0
C416 C 0.85626 0.39667 0.7095 0.0
C417 C 0.88621 0.33132 0.68346 0.0
C418 C 0.90479 0.33548 0.7004 0.0
C419 C 0.90291 0.31326 0.68879 0.0
C420 C 0.89122 0.31789 0.68143 0.0
C421 C 0.90989 0.32198 0.69837 0.0
C422 C 0.89304 0.3401 0.69302 0.0
C423 C 0.87382 0.33581 0.67557 0.0
O424 O 0.83385 0.35053 0.67044 0.0
O425 O 0.84695 0.36341 0.65671 0.0
O426 O 0.87511 0.34756 0.66861 0.0
O427 O 0.86187 0.33458 0.6821 0.0
H428 H 0.84977 0.33878 0.64199 0.0
H429 H 0.84113 0.32584 0.6217 0.0
H430 H 0.80023 0.34311 0.62755 0.0
H431 H 0.80907 0.35626 0.64748 0.0
H432 H 0.81759 0.40171 0.69878 0.0
H433 H 0.83043 0.38181 0.68987 0.0
H434 H 0.85446 0.41533 0.7213 0.0
H435 H 0.86703 0.39527 0.71265 0.0
H436 H 0.90994 0.34252 0.70759 0.0
H437 H 0.90632 0.30272 0.68714 0.0
H438 H 0.88604 0.31093 0.67416 0.0
H439 H 0.8893 0.35051 0.69475 0.0
C440 C 0.14219 0.33033 0.68223 0.0
C441 C 0.13597 0.33833 0.69259 0.0
C442 C 0.11915 0.31961 0.69725 0.0
C443 C 0.12449 0.33303 0.70001 0.0
C444 C 0.12537 0.31175 0.68673 0.0
C445 C 0.13677 0.31707 0.67931 0.0
U446 U 0.1733 0.35546 0.67672 0.0
O447 O 0.19484 0.3506 0.67081 0.0
O448 O 0.18209 0.36385 0.65725 0.0
C449 C 0.19379 0.35701 0.65874 0.0
C450 C 0.15455 0.33536 0.67458 0.0
C451 C 0.19874 0.3492 0.64653 0.0
C452 C 0.21797 0.33842 0.63447 0.0
C453 C 0.2128 0.34545 0.64599 0.0
C454 C 0.19507 0.33871 0.62374 0.0
C455 C 0.20922 0.33505 0.62311 0.0
C456 C 0.18987 0.34569 0.63533 0.0
C457 C 0.17988 0.38544 0.70249 0.0
C458 C 0.19686 0.40426 0.69952 0.0
C459 C 0.18574 0.40065 0.72183 0.0
C460 C 0.17815 0.38941 0.71637 0.0
C461 C 0.19524 0.4082 0.71351 0.0
C462 C 0.18929 0.39293 0.69407 0.0
C463 C 0.17185 0.37339 0.69718 0.0
O464 O 0.15341 0.34741 0.66819 0.0
O465 O 0.16654 0.33395 0.68111 0.0
O466 O 0.17796 0.36132 0.6984 0.0
O467 O 0.16549 0.37507 0.68513 0.0
H468 H 0.14007 0.34858 0.69504 0.0
H469 H 0.12003 0.3393 0.70813 0.0
H470 H 0.12141 0.30147 0.6842 0.0
H471 H 0.14142 0.31075 0.67134 0.0
H472 H 0.22884 0.33553 0.63454 0.0
H473 H 0.21984 0.348 0.6545 0.0
H474 H 0.18803 0.33641 0.61516 0.0
H475 H 0.17896 0.34843 0.63546 0.0
H476 H 0.20419 0.40976 0.69288 0.0
H477 H 0.18408 0.4035 0.73258 0.0
H478 H 0.17092 0.38377 0.72302 0.0
H479 H 0.19083 0.38998 0.68333 0.0
C480 C 0.13975 0.33214 0.35333 0.0
C481 C 0.13786 0.33576 0.33928 0.0
C482 C 0.11657 0.32156 0.33822 0.0
C483 C 0.12637 0.3305 0.33178 0.0
C484 C 0.11837 0.31831 0.35242 0.0
C485 C 0.12985 0.32354 0.35988 0.0
U486 U 0.17144 0.35638 0.3592 0.0
O487 O 0.18016 0.36455 0.37887 0.0
O488 O 0.19277 0.3512 0.36565 0.0
C489 C 0.19176 0.35756 0.37767 0.0
C490 C 0.15218 0.33678 0.36123 0.0
C491 C 0.19601 0.3494 0.38997 0.0
C492 C 0.19618 0.32778 0.40322 0.0
C493 C 0.1914 0.3356 0.39185 0.0
C494 C 0.20987 0.34757 0.41117 0.0
C495 C 0.20557 0.33364 0.41295 0.0
C496 C 0.20515 0.35535 0.39977 0.0
C497 C 0.17901 0.38609 0.3332 0.0
C498 C 0.19583 0.405 0.33654 0.0
C499 C 0.18667 0.4001 0.3135 0.0
C500 C 0.17851 0.38926 0.31896 0.0
C501 C 0.1955 0.40805 0.32219 0.0
C502 C 0.18769 0.39406 0.342 0.0
C503 C 0.17056 0.37431 0.33849 0.0
O504 O 0.1642 0.33503 0.35505 0.0
O505 O 0.15128 0.34886 0.36744 0.0
O506 O 0.16417 0.37616 0.35038 0.0
O507 O 0.17632 0.36205 0.33753 0.0
H508 H 0.14539 0.34242 0.33404 0.0
H509 H 0.1254 0.33312 0.32084 0.0
H510 H 0.11092 0.31167 0.35779 0.0
H511 H 0.13111 0.32069 0.37074 0.0
H512 H 0.19253 0.31713 0.40437 0.0
H513 H 0.18426 0.33084 0.38444 0.0
H514 H 0.21722 0.35236 0.41836 0.0
H515 H 0.20883 0.36598 0.39848 0.0
H516 H 0.20263 0.41083 0.34349 0.0
H517 H 0.18606 0.40227 0.30244 0.0
H518 H 0.17186 0.38325 0.31201 0.0
H519 H 0.18829 0.39173 0.35303 0.0
C520 C 0.14307 0.67911 0.33332 0.0
C521 C 0.14187 0.69333 0.33619 0.0
C522 C 0.11995 0.69411 0.32311 0.0
C523 C 0.13042 0.70077 0.33112 0.0
C524 C 0.12108 0.67978 0.3206 0.0
C525 C 0.13253 0.67238 0.32563 0.0
U526 U 0.17436 0.67223 0.35765 0.0
O527 O 0.18232 0.65224 0.36544 0.0
O528 O 0.19557 0.66573 0.35246 0.0
C529 C 0.1941 0.65357 0.35862 0.0
C530 C 0.15536 0.67115 0.33782 0.0
C531 C 0.19828 0.64143 0.3504 0.0
C532 C 0.19873 0.62854 0.32869 0.0
C533 C 0.19407 0.63983 0.33646 0.0
C534 C 0.21153 0.62017 0.34878 0.0
C535 C 0.2076 0.61861 0.33473 0.0
C536 C 0.20693 0.63147 0.35651 0.0
C537 C 0.18152 0.69685 0.38859 0.0
C538 C 0.19845 0.6931 0.40718 0.0
C539 C 0.18669 0.71513 0.40527 0.0
C540 C 0.17939 0.71029 0.39358 0.0
C541 C 0.19629 0.7066 0.41228 0.0
C542 C 0.19113 0.68827 0.39543 0.0
C543 C 0.17353 0.6921 0.37629 0.0
O544 O 0.16754 0.67743 0.33638 0.0
O545 O 0.15416 0.66434 0.34966 0.0
O546 O 0.16677 0.68019 0.37759 0.0
O547 O 0.17984 0.69352 0.36426 0.0
H548 H 0.14988 0.69872 0.34216 0.0
H549 H 0.12997 0.7118 0.33316 0.0
H550 H 0.11312 0.67424 0.31472 0.0
H551 H 0.13322 0.6614 0.32337 0.0
H552 H 0.19536 0.62759 0.31795 0.0
H553 H 0.18732 0.64738 0.33156 0.0
H554 H 0.21849 0.61284 0.35373 0.0
H555 H 0.21031 0.63254 0.36725 0.0
H556 H 0.20568 0.68621 0.41236 0.0
H557 H 0.18494 0.72566 0.40867 0.0
H558 H 0.17207 0.71709 0.38839 0.0
H559 H 0.19293 0.67784 0.39171 0.0
C560 C 0.82777 0.64216 0.35198 0.0
C561 C 0.83615 0.63561 0.34213 0.0
C562 C 0.81704 0.61954 0.33638 0.0
C563 C 0.83084 0.62435 0.33442 0.0
C564 C 0.80878 0.62612 0.34636 0.0
C565 C 0.8141 0.6373 0.35406 0.0
U566 U 0.85355 0.67238 0.35973 0.0
O567 O 0.84902 0.69363 0.3664 0.0
O568 O 0.86111 0.67996 0.3801 0.0
C569 C 0.85479 0.69192 0.37873 0.0
C570 C 0.83289 0.65412 0.36015 0.0
C571 C 0.84636 0.6963 0.39066 0.0
C572 C 0.82419 0.69752 0.40271 0.0
C573 C 0.83224 0.69243 0.3918 0.0
C574 C 0.84439 0.71001 0.41171 0.0
C575 C 0.83012 0.70652 0.41271 0.0
C576 C 0.8524 0.70496 0.40078 0.0
C577 C 0.88508 0.67974 0.33625 0.0
C578 C 0.89854 0.70137 0.33613 0.0
C579 C 0.90642 0.68174 0.32281 0.0
C580 C 0.8949 0.6739 0.32737 0.0
C581 C 0.90831 0.69563 0.32701 0.0
C582 C 0.88705 0.69349 0.34074 0.0
C583 C 0.87264 0.67151 0.34027 0.0
O584 O 0.84467 0.65243 0.36701 0.0
O585 O 0.83206 0.6663 0.35399 0.0
O586 O 0.86063 0.67774 0.33864 0.0
O587 O 0.87357 0.66456 0.35205 0.0
H588 H 0.84673 0.63926 0.34034 0.0
H589 H 0.83743 0.6196 0.32673 0.0
H590 H 0.7982 0.62258 0.3483 0.0
H591 H 0.80749 0.64219 0.36165 0.0
H592 H 0.81328 0.6945 0.40325 0.0
H593 H 0.82739 0.68568 0.38413 0.0
H594 H 0.84927 0.71703 0.41911 0.0
H595 H 0.86328 0.70808 0.40006 0.0
H596 H 0.89976 0.71198 0.3397 0.0
H597 H 0.91361 0.67703 0.31567 0.0
H598 H 0.89354 0.66332 0.32377 0.0
H599 H 0.8796 0.69818 0.34766 0.0
C600 C 0.85053 0.3859 0.33277 0.0
C601 C 0.83659 0.38782 0.33661 0.0
C602 C 0.83562 0.40905 0.32259 0.0
C603 C 0.8292 0.39928 0.33156 0.0
C604 C 0.84969 0.40718 0.31905 0.0
C605 C 0.85704 0.39573 0.32408 0.0
U606 U 0.85675 0.35472 0.35721 0.0
O607 O 0.86324 0.33354 0.35218 0.0
O608 O 0.87657 0.34665 0.3655 0.0
C609 C 0.87525 0.33486 0.35875 0.0
C610 C 0.85839 0.37363 0.3374 0.0
C611 C 0.88764 0.33028 0.3511 0.0
C612 C 0.90139 0.32897 0.32995 0.0
C613 C 0.88994 0.33416 0.33718 0.0
C614 C 0.90853 0.31628 0.35057 0.0
C615 C 0.91075 0.31982 0.3365 0.0
C616 C 0.8971 0.32145 0.35775 0.0
C617 C 0.8315 0.34763 0.3876 0.0
C618 C 0.83523 0.33107 0.40646 0.0
C619 C 0.81279 0.34201 0.4037 0.0
C620 C 0.81778 0.34934 0.39211 0.0
C621 C 0.82144 0.33281 0.41109 0.0
C622 C 0.84021 0.33841 0.39481 0.0
C623 C 0.83643 0.35565 0.37542 0.0
O624 O 0.86497 0.37478 0.34939 0.0
O625 O 0.85203 0.36154 0.33583 0.0
O626 O 0.83521 0.3494 0.36334 0.0
O627 O 0.84837 0.36238 0.37695 0.0
H628 H 0.83138 0.38035 0.34335 0.0
H629 H 0.81836 0.40029 0.33441 0.0
H630 H 0.85507 0.41459 0.31239 0.0
H631 H 0.86782 0.39448 0.32106 0.0
H632 H 0.90268 0.33183 0.31911 0.0
H633 H 0.88276 0.341 0.33185 0.0
H634 H 0.91562 0.30948 0.35604 0.0
H635 H 0.89554 0.31838 0.36851 0.0
H636 H 0.84223 0.32417 0.41193 0.0
H637 H 0.80205 0.34343 0.40675 0.0
H638 H 0.81088 0.35635 0.38664 0.0
H639 H 0.85085 0.33693 0.39146 0.0
C640 C 0.68138 0.14219 0.70227 0.0
C641 C 0.69528 0.1407 0.69809 0.0
C642 C 0.6971 0.11927 0.71169 0.0
C643 C 0.70308 0.12937 0.70279 0.0
C644 C 0.68307 0.1207 0.71558 0.0
C645 C 0.67532 0.13205 0.71093 0.0
U646 U 0.6739 0.17321 0.67812 0.0
O647 O 0.65386 0.18135 0.67065 0.0
O648 O 0.66773 0.1945 0.68339 0.0
C649 C 0.65549 0.19319 0.67726 0.0
C650 C 0.67317 0.15438 0.69806 0.0
C651 C 0.64343 0.19797 0.6853 0.0
C652 C 0.62416 0.19383 0.70125 0.0
C653 C 0.63576 0.18897 0.694 0.0
C654 C 0.62792 0.21674 0.69131 0.0
C655 C 0.62005 0.20778 0.69994 0.0
C656 C 0.63945 0.21187 0.68407 0.0
C657 C 0.69786 0.17995 0.64659 0.0
C658 C 0.69951 0.20136 0.63304 0.0
C659 C 0.71118 0.18073 0.62516 0.0
C660 C 0.70613 0.17338 0.63672 0.0
C661 C 0.7081 0.19487 0.62324 0.0
C662 C 0.69443 0.19396 0.64461 0.0
C663 C 0.69336 0.17207 0.65903 0.0
O664 O 0.67951 0.16652 0.69933 0.0
O665 O 0.66601 0.15319 0.6864 0.0
O666 O 0.68134 0.16541 0.658 0.0
O667 O 0.69513 0.17834 0.67104 0.0
H668 H 0.70014 0.14837 0.69132 0.0
H669 H 0.71379 0.12852 0.69944 0.0
H670 H 0.67818 0.11323 0.72255 0.0
H671 H 0.66461 0.13302 0.71429 0.0
H672 H 0.61831 0.1866 0.70771 0.0
H673 H 0.63868 0.17819 0.69511 0.0
H674 H 0.62529 0.2276 0.69024 0.0
H675 H 0.64528 0.219 0.67746 0.0
H676 H 0.69701 0.21225 0.63197 0.0
H677 H 0.71754 0.17531 0.61773 0.0
H678 H 0.70883 0.16256 0.63802 0.0
H679 H 0.68803 0.19923 0.65212 0.0
C680 C 0.3269 0.18021 0.64457 0.0
C681 C 0.33546 0.18975 0.63738 0.0
C682 C 0.31602 0.19576 0.62206 0.0
C683 C 0.33007 0.19742 0.62617 0.0
C684 C 0.30755 0.18613 0.6293 0.0
C685 C 0.31296 0.17844 0.64043 0.0
U686 U 0.35291 0.17398 0.67448 0.0
O687 O 0.34889 0.16708 0.69594 0.0
O688 O 0.36158 0.15429 0.68225 0.0
C689 C 0.35519 0.15517 0.69426 0.0
C690 C 0.33218 0.17215 0.65652 0.0
C691 C 0.34716 0.14275 0.69864 0.0
C692 C 0.32568 0.12901 0.69886 0.0
C693 C 0.33338 0.14052 0.69406 0.0
C694 C 0.34557 0.12162 0.71255 0.0
C695 C 0.33165 0.11947 0.70826 0.0
C696 C 0.35324 0.13317 0.7078 0.0
C697 C 0.38312 0.20008 0.68058 0.0
C698 C 0.40187 0.19706 0.69748 0.0
C699 C 0.39886 0.21932 0.68604 0.0
C700 C 0.38747 0.2139 0.6786 0.0
C701 C 0.40616 0.211 0.69563 0.0
C702 C 0.39039 0.19165 0.69005 0.0
C703 C 0.37082 0.19486 0.67285 0.0
O704 O 0.3442 0.16601 0.65479 0.0
O705 O 0.33111 0.17815 0.6687 0.0
O706 O 0.3589 0.19555 0.67946 0.0
O707 O 0.37232 0.18312 0.66613 0.0
H708 H 0.34624 0.19133 0.64048 0.0
H709 H 0.33682 0.20486 0.62091 0.0
H710 H 0.29675 0.18448 0.62631 0.0
H711 H 0.30621 0.17111 0.64585 0.0
H712 H 0.31504 0.12757 0.69523 0.0
H713 H 0.32853 0.14777 0.68691 0.0
H714 H 0.35044 0.11459 0.7199 0.0
H715 H 0.36386 0.13473 0.71145 0.0
H716 H 0.40718 0.19042 0.70489 0.0
H717 H 0.40199 0.23003 0.68423 0.0
H718 H 0.38199 0.22055 0.67132 0.0
H719 H 0.38713 0.18096 0.69177 0.0
C720 C 0.32961 0.8483 0.64615 0.0
C721 C 0.33854 0.83963 0.63874 0.0
C722 C 0.31952 0.83324 0.62284 0.0
C723 C 0.33355 0.83219 0.62718 0.0
C724 C 0.31064 0.84187 0.63043 0.0
C725 C 0.31565 0.84932 0.64193 0.0
U726 U 0.35498 0.85541 0.67663 0.0
O727 O 0.36344 0.87541 0.68427 0.0
O728 O 0.35048 0.86227 0.69789 0.0
C729 C 0.35697 0.87429 0.69625 0.0
C730 C 0.33457 0.85642 0.65824 0.0
C731 C 0.3493 0.88662 0.70077 0.0
C732 C 0.32817 0.90029 0.70178 0.0
C733 C 0.33541 0.88883 0.69672 0.0
C734 C 0.34875 0.90761 0.7147 0.0
C735 C 0.33471 0.90975 0.71097 0.0
C736 C 0.35594 0.89617 0.70966 0.0
C737 C 0.3856 0.83071 0.68339 0.0
C738 C 0.40424 0.83467 0.70031 0.0
C739 C 0.40217 0.81251 0.68862 0.0
C740 C 0.39051 0.81726 0.68129 0.0
C741 C 0.40923 0.82114 0.69822 0.0
C742 C 0.39251 0.83941 0.69297 0.0
C743 C 0.37323 0.83533 0.67552 0.0
O744 O 0.33335 0.85026 0.67042 0.0
O745 O 0.34652 0.86311 0.65673 0.0
O746 O 0.37459 0.84709 0.66861 0.0
O747 O 0.36128 0.83414 0.68205 0.0
H748 H 0.34936 0.83867 0.64186 0.0
H749 H 0.34073 0.82576 0.62155 0.0
H750 H 0.29974 0.84275 0.62761 0.0
H751 H 0.30858 0.85589 0.64756 0.0
H752 H 0.31736 0.90152 0.69877 0.0
H753 H 0.3301 0.88157 0.68984 0.0
H754 H 0.3542 0.91478 0.72154 0.0
H755 H 0.36668 0.89468 0.71285 0.0
H756 H 0.40945 0.84165 0.70752 0.0
H757 H 0.4055 0.80195 0.68692 0.0
H758 H 0.38526 0.81036 0.67401 0.0
H759 H 0.38886 0.84984 0.69475 0.0
C760 C 0.64139 0.83058 0.68218 0.0
C761 C 0.63324 0.83974 0.6899 0.0
C762 C 0.61925 0.82028 0.69878 0.0
C763 C 0.62221 0.83464 0.69808 0.0
C764 C 0.62739 0.81121 0.69091 0.0
C765 C 0.63832 0.81631 0.68271 0.0
U766 U 0.67156 0.85612 0.67422 0.0
O767 O 0.69289 0.8518 0.66741 0.0
O768 O 0.67909 0.86411 0.65402 0.0
C769 C 0.69117 0.85793 0.65526 0.0
C770 C 0.65326 0.83552 0.6737 0.0
C771 C 0.69583 0.85009 0.64305 0.0
C772 C 0.69734 0.82869 0.62981 0.0
C773 C 0.69208 0.83607 0.64112 0.0
C774 C 0.70983 0.84934 0.62209 0.0
C775 C 0.70643 0.83519 0.62023 0.0
C776 C 0.70459 0.85669 0.63338 0.0
C777 C 0.67837 0.88724 0.69851 0.0
C778 C 0.69989 0.90089 0.70006 0.0
C779 C 0.67929 0.90841 0.71218 0.0
C780 C 0.67185 0.89692 0.70704 0.0
C781 C 0.69348 0.91046 0.70894 0.0
C782 C 0.6924 0.88939 0.69489 0.0
C783 C 0.67048 0.87476 0.69405 0.0
O784 O 0.65157 0.84725 0.66684 0.0
O785 O 0.6656 0.83458 0.67963 0.0
O786 O 0.67697 0.86289 0.6954 0.0
O787 O 0.6635 0.87583 0.68227 0.0
H788 H 0.63548 0.85081 0.68972 0.0
H789 H 0.61623 0.84189 0.70412 0.0
H790 H 0.6253 0.80012 0.69108 0.0
H791 H 0.64447 0.80907 0.67681 0.0
H792 H 0.69459 0.81779 0.62879 0.0
H793 H 0.6853 0.83079 0.64848 0.0
H794 H 0.71658 0.85477 0.61481 0.0
H795 H 0.70755 0.86752 0.63466 0.0
H796 H 0.71081 0.90206 0.69743 0.0
H797 H 0.67393 0.91567 0.71876 0.0
H798 H 0.66101 0.89547 0.70989 0.0
H799 H 0.69763 0.88204 0.68829 0.0
C800 C 0.63937 0.83155 0.35316 0.0
C801 C 0.63741 0.83516 0.33912 0.0
C802 C 0.61641 0.82054 0.33802 0.0
C803 C 0.62604 0.82969 0.33161 0.0
C804 C 0.61831 0.81724 0.3522 0.0
C805 C 0.62968 0.82268 0.35967 0.0
U806 U 0.67048 0.8565 0.35869 0.0
O807 O 0.67861 0.86568 0.37816 0.0
O808 O 0.6918 0.85208 0.36578 0.0
C809 C 0.6904 0.85892 0.37748 0.0
C810 C 0.65159 0.8366 0.36112 0.0
C811 C 0.69467 0.85148 0.39023 0.0
C812 C 0.69599 0.83035 0.40418 0.0
C813 C 0.69109 0.83743 0.39239 0.0
C814 C 0.70771 0.85138 0.41201 0.0
C815 C 0.70452 0.83719 0.41407 0.0
C816 C 0.70285 0.85842 0.4002 0.0
C817 C 0.67771 0.88551 0.33184 0.0
C818 C 0.69475 0.90427 0.33474 0.0
C819 C 0.68394 0.90031 0.31222 0.0
C820 C 0.67621 0.88922 0.31779 0.0
C821 C 0.69335 0.90796 0.3206 0.0
C822 C 0.68703 0.89309 0.34031 0.0
C823 C 0.66953 0.87363 0.33731 0.0
O824 O 0.66375 0.83487 0.35519 0.0
O825 O 0.65037 0.84885 0.36691 0.0
O826 O 0.66283 0.87572 0.34899 0.0
O827 O 0.6757 0.86155 0.33694 0.0
H828 H 0.64479 0.84202 0.33392 0.0
H829 H 0.625 0.83235 0.32068 0.0
H830 H 0.611 0.81044 0.35755 0.0
H831 H 0.63099 0.81984 0.37053 0.0
H832 H 0.69343 0.81941 0.40533 0.0
H833 H 0.68473 0.83188 0.38482 0.0
H834 H 0.71402 0.85706 0.4195 0.0
H835 H 0.70565 0.86928 0.39876 0.0
H836 H 0.702 0.90985 0.34144 0.0
H837 H 0.68247 0.90297 0.30134 0.0
H838 H 0.66905 0.88349 0.31111 0.0
H839 H 0.68839 0.89033 0.35118 0.0
C840 C 0.64347 0.18067 0.3327 0.0
C841 C 0.63691 0.19015 0.34147 0.0
C842 C 0.62013 0.19572 0.32308 0.0
C843 C 0.62534 0.1976 0.33671 0.0
C844 C 0.62685 0.18624 0.31436 0.0
C845 C 0.63836 0.1788 0.31913 0.0
U846 U 0.67422 0.17356 0.35761 0.0
O847 O 0.6819 0.15351 0.36552 0.0
O848 O 0.69546 0.1669 0.35275 0.0
C849 C 0.69379 0.15474 0.35887 0.0
C850 C 0.65559 0.17262 0.3374 0.0
C851 C 0.69794 0.1426 0.35066 0.0
C852 C 0.69832 0.12969 0.32896 0.0
C853 C 0.69372 0.14101 0.33673 0.0
C854 C 0.71109 0.12126 0.34906 0.0
C855 C 0.70714 0.11972 0.33501 0.0
C856 C 0.70654 0.13259 0.35678 0.0
C857 C 0.68126 0.19814 0.38856 0.0
C858 C 0.69804 0.19423 0.40726 0.0
C859 C 0.6867 0.21646 0.40511 0.0
C860 C 0.67935 0.21166 0.39344 0.0
C861 C 0.69613 0.20782 0.41223 0.0
C862 C 0.69067 0.18943 0.39552 0.0
C863 C 0.67332 0.19347 0.37621 0.0
O864 O 0.66779 0.17889 0.33619 0.0
O865 O 0.65416 0.16584 0.34924 0.0
O866 O 0.66642 0.18162 0.37744 0.0
O867 O 0.67977 0.19481 0.36424 0.0
H868 H 0.64072 0.19175 0.35199 0.0
H869 H 0.62038 0.20471 0.34376 0.0
H870 H 0.62335 0.18471 0.30373 0.0
H871 H 0.64333 0.17159 0.31218 0.0
H872 H 0.69495 0.12875 0.31822 0.0
H873 H 0.687 0.14858 0.33183 0.0
H874 H 0.718 0.1139 0.35401 0.0
H875 H 0.70992 0.13365 0.36752 0.0
H876 H 0.70511 0.18725 0.41252 0.0
H877 H 0.68515 0.22706 0.40841 0.0
H878 H 0.67219 0.21856 0.38815 0.0
H879 H 0.6923 0.17895 0.39189 0.0
C880 C 0.33111 0.1432 0.35295 0.0
C881 C 0.3342 0.14171 0.33878 0.0
C882 C 0.32099 0.11984 0.33805 0.0
C883 C 0.32917 0.13015 0.33139 0.0
C884 C 0.31827 0.12125 0.35235 0.0
C885 C 0.32326 0.13282 0.3597 0.0
U886 U 0.35512 0.17497 0.35906 0.0
O887 O 0.34975 0.19614 0.36533 0.0
O888 O 0.36321 0.18356 0.37881 0.0
C889 C 0.35615 0.1951 0.37743 0.0
C890 C 0.33557 0.15563 0.36081 0.0
C891 C 0.34799 0.19928 0.38964 0.0
C892 C 0.32636 0.19946 0.40273 0.0
C893 C 0.33413 0.19477 0.39142 0.0
C894 C 0.34635 0.2129 0.41078 0.0
C895 C 0.33235 0.20868 0.4125 0.0
C896 C 0.35407 0.20827 0.39946 0.0
C897 C 0.38526 0.18228 0.33343 0.0
C898 C 0.40387 0.19952 0.33635 0.0
C899 C 0.40068 0.18797 0.3142 0.0
C900 C 0.38944 0.18036 0.31965 0.0
C901 C 0.40802 0.19769 0.32245 0.0
C902 C 0.39254 0.19191 0.34179 0.0
C903 C 0.37328 0.17412 0.33871 0.0
O904 O 0.34761 0.15482 0.36735 0.0
O905 O 0.33378 0.16762 0.35448 0.0
O906 O 0.36105 0.18001 0.33749 0.0
O907 O 0.37506 0.16776 0.35073 0.0
H908 H 0.34029 0.14961 0.33338 0.0
H909 H 0.33137 0.12949 0.32037 0.0
H910 H 0.31225 0.11342 0.35789 0.0
H911 H 0.32084 0.13374 0.37065 0.0
H912 H 0.31567 0.19587 0.40382 0.0
H913 H 0.32926 0.18776 0.384 0.0
H914 H 0.35124 0.22011 0.41799 0.0
H915 H 0.36475 0.21188 0.39824 0.0
H916 H 0.40921 0.20701 0.34294 0.0
H917 H 0.40371 0.18614 0.30354 0.0
H918 H 0.38398 0.17294 0.31305 0.0
H919 H 0.38942 0.19358 0.35246 0.0
C920 C 0.34819 0.88464 0.33001 0.0
C921 C 0.33857 0.89136 0.33853 0.0
C922 C 0.33297 0.90746 0.31962 0.0
C923 C 0.33106 0.90272 0.33339 0.0
C924 C 0.34272 0.90071 0.31122 0.0
C925 C 0.35023 0.88943 0.31638 0.0
U926 U 0.35489 0.85394 0.35512 0.0
O927 O 0.36086 0.83259 0.35009 0.0
O928 O 0.37488 0.84566 0.36271 0.0
C929 C 0.37329 0.83394 0.35585 0.0
C930 C 0.35606 0.87249 0.33493 0.0
C931 C 0.3853 0.82924 0.34744 0.0
C932 C 0.39468 0.81378 0.3299 0.0
C933 C 0.38337 0.81882 0.33738 0.0
C934 C 0.41024 0.82934 0.34244 0.0
C935 C 0.40828 0.81895 0.33233 0.0
C936 C 0.3989 0.8344 0.34992 0.0
C937 C 0.3299 0.84727 0.38596 0.0
C938 C 0.33295 0.83017 0.40447 0.0
C939 C 0.31094 0.84194 0.40185 0.0
C940 C 0.31625 0.8494 0.3905 0.0
C941 C 0.31917 0.83217 0.40895 0.0
C942 C 0.33826 0.83762 0.39302 0.0
C943 C 0.33498 0.85515 0.37375 0.0
O944 O 0.36284 0.87388 0.3468 0.0
O945 O 0.34961 0.86042 0.33373 0.0
O946 O 0.33343 0.84894 0.36169 0.0
O947 O 0.34709 0.86161 0.37512 0.0
H948 H 0.3368 0.88776 0.34908 0.0
H949 H 0.32356 0.9076 0.34008 0.0
H950 H 0.3446 0.90419 0.30065 0.0
H951 H 0.35762 0.8844 0.30966 0.0
H952 H 0.39278 0.8056 0.32241 0.0
H953 H 0.3731 0.81438 0.33538 0.0
H954 H 0.42054 0.83362 0.34453 0.0
H955 H 0.40083 0.84229 0.35772 0.0
H956 H 0.33953 0.82264 0.40962 0.0
H957 H 0.30037 0.84391 0.40513 0.0
H958 H 0.30965 0.85682 0.38521 0.0
H959 H 0.34883 0.83579 0.38963 0.0
C960 C 0.67944 0.64188 0.20177 0.0
C961 C 0.68911 0.6355 0.19305 0.0
C962 C 0.69404 0.61817 0.21106 0.0
C963 C 0.69633 0.62374 0.19765 0.0
C964 C 0.68432 0.62467 0.2197 0.0
C965 C 0.6771 0.63637 0.21509 0.0
U966 U 0.67377 0.6733 0.17756 0.0
O967 O 0.65419 0.68223 0.16974 0.0
O968 O 0.66823 0.69472 0.18294 0.0
C969 C 0.65607 0.69391 0.17657 0.0
C970 C 0.67182 0.65435 0.19732 0.0
C971 C 0.64406 0.69891 0.18454 0.0
C972 C 0.62527 0.69534 0.20117 0.0
C973 C 0.63657 0.69018 0.19366 0.0
C974 C 0.62892 0.71797 0.19054 0.0
C975 C 0.62137 0.70934 0.19976 0.0
C976 C 0.64013 0.7128 0.18303 0.0
C977 C 0.6992 0.67989 0.14714 0.0
C978 C 0.69632 0.69685 0.12846 0.0
C979 C 0.71852 0.68558 0.13178 0.0
C980 C 0.71303 0.67806 0.14302 0.0
C981 C 0.71027 0.69512 0.12438 0.0
C982 C 0.69084 0.68934 0.13979 0.0
C983 C 0.69388 0.67188 0.15917 0.0
O984 O 0.67857 0.66622 0.19888 0.0
O985 O 0.66506 0.65348 0.18539 0.0
O986 O 0.68166 0.66569 0.15758 0.0
O987 O 0.69543 0.67785 0.17135 0.0
H988 H 0.69108 0.63963 0.18272 0.0
H989 H 0.70362 0.61897 0.19065 0.0
H990 H 0.68245 0.62089 0.23017 0.0
H991 H 0.66975 0.6412 0.222 0.0
H992 H 0.61977 0.68845 0.20827 0.0
H993 H 0.63949 0.67943 0.19502 0.0
H994 H 0.6261 0.72873 0.18904 0.0
H995 H 0.64576 0.71969 0.17602 0.0
H996 H 0.68972 0.7042 0.12308 0.0
H997 H 0.72923 0.68383 0.12882 0.0
H998 H 0.71963 0.67079 0.14853 0.0
H999 H 0.68014 0.69095 0.14286 0.0
C1000 C 0.32882 0.67898 0.14273 0.0
C1001 C 0.33289 0.69289 0.14061 0.0
C1002 C 0.31859 0.69397 0.11951 0.0
C1003 C 0.32781 0.70033 0.12911 0.0
C1004 C 0.31482 0.67992 0.12158 0.0
C1005 C 0.31987 0.67253 0.13308 0.0
U1006 U 0.35361 0.6732 0.17369 0.0
O1007 O 0.34896 0.66648 0.19508 0.0
O1008 O 0.3622 0.65365 0.18194 0.0
C1009 C 0.35554 0.65468 0.19379 0.0
C1010 C 0.33354 0.67108 0.15503 0.0
C1011 C 0.34789 0.64213 0.1985 0.0
C1012 C 0.32646 0.62846 0.20077 0.0
C1013 C 0.33367 0.64006 0.19542 0.0
C1014 C 0.34769 0.62067 0.21195 0.0
C1015 C 0.33334 0.61869 0.20926 0.0
C1016 C 0.35486 0.63227 0.20665 0.0
C1017 C 0.38388 0.6989 0.18041 0.0
C1018 C 0.40298 0.69492 0.19668 0.0
C1019 C 0.39962 0.71785 0.18682 0.0
C1020 C 0.38807 0.71286 0.17931 0.0
C1021 C 0.40727 0.70895 0.1956 0.0
C1022 C 0.39137 0.68995 0.18918 0.0
C1023 C 0.37167 0.69396 0.17235 0.0
O1024 O 0.34558 0.66488 0.15382 0.0
O1025 O 0.33205 0.67725 0.16709 0.0
O1026 O 0.3596 0.6948 0.17866 0.0
O1027 O 0.37318 0.68221 0.16564 0.0
H1028 H 0.33984 0.69804 0.14795 0.0
H1029 H 0.33084 0.71116 0.12795 0.0
H1030 H 0.30795 0.67461 0.11429 0.0
H1031 H 0.31669 0.66177 0.1345 0.0
H1032 H 0.31541 0.62736 0.19858 0.0
H1033 H 0.3281 0.64754 0.18911 0.0
H1034 H 0.3534 0.61326 0.21822 0.0
H1035 H 0.36584 0.63365 0.20907 0.0
H1036 H 0.40867 0.68772 0.20321 0.0
H1037 H 0.40242 0.72876 0.18591 0.0
H1038 H 0.38237 0.71995 0.17265 0.0
H1039 H 0.38826 0.67912 0.1902 0.0
C1040 C 0.33171 0.34855 0.14675 0.0
C1041 C 0.34065 0.34428 0.1361 0.0
C1042 C 0.32108 0.33328 0.12378 0.0
C1043 C 0.33538 0.33674 0.12473 0.0
C1044 C 0.31226 0.33736 0.13462 0.0
C1045 C 0.31751 0.34494 0.14592 0.0
U1046 U 0.35717 0.35704 0.17694 0.0
O1047 O 0.36535 0.37737 0.18395 0.0
O1048 O 0.35263 0.36448 0.198 0.0
C1049 C 0.35887 0.37656 0.19594 0.0
C1050 C 0.33673 0.35712 0.15856 0.0
C1051 C 0.35083 0.38885 0.19989 0.0
C1052 C 0.32958 0.40236 0.19921 0.0
C1053 C 0.33725 0.39092 0.19481 0.0
C1054 C 0.3491 0.40994 0.21354 0.0
C1055 C 0.33537 0.41197 0.20872 0.0
C1056 C 0.35672 0.3985 0.20918 0.0
C1057 C 0.388 0.33259 0.18419 0.0
C1058 C 0.4066 0.33666 0.20111 0.0
C1059 C 0.4047 0.31451 0.18938 0.0
C1060 C 0.39301 0.31918 0.18206 0.0
C1061 C 0.4117 0.32317 0.19899 0.0
C1062 C 0.39484 0.34132 0.19378 0.0
C1063 C 0.37558 0.33707 0.17635 0.0
O1064 O 0.33557 0.35145 0.17098 0.0
O1065 O 0.34854 0.36403 0.15685 0.0
O1066 O 0.37687 0.34868 0.16917 0.0
O1067 O 0.36367 0.336 0.18298 0.0
H1068 H 0.35167 0.34688 0.13647 0.0
H1069 H 0.34248 0.33388 0.11655 0.0
H1070 H 0.30126 0.33466 0.13444 0.0
H1071 H 0.31042 0.34808 0.15402 0.0
H1072 H 0.31911 0.40367 0.19516 0.0
H1073 H 0.33255 0.38361 0.18757 0.0
H1074 H 0.35383 0.417 0.221 0.0
H1075 H 0.36718 0.39706 0.21323 0.0
H1076 H 0.41177 0.34365 0.20835 0.0
H1077 H 0.4081 0.30398 0.18765 0.0
H1078 H 0.38781 0.31226 0.17477 0.0
H1079 H 0.3911 0.35172 0.19558 0.0
C1080 C 0.64347 0.32903 0.18206 0.0
C1081 C 0.6369 0.33782 0.19151 0.0
C1082 C 0.61988 0.31952 0.1971 0.0
C1083 C 0.6252 0.33312 0.19894 0.0
C1084 C 0.62657 0.31079 0.18759 0.0
C1085 C 0.63821 0.31552 0.18015 0.0
U1086 U 0.67473 0.35367 0.17628 0.0
O1087 O 0.69631 0.34881 0.17059 0.0
O1088 O 0.68365 0.36186 0.15678 0.0
C1089 C 0.69545 0.35525 0.15853 0.0
C1090 C 0.65592 0.33362 0.17429 0.0
C1091 C 0.70052 0.34746 0.14645 0.0
C1092 C 0.69709 0.33074 0.12777 0.0
C1093 C 0.69187 0.33811 0.13911 0.0
C1094 C 0.71964 0.34196 0.13105 0.0
C1095 C 0.71109 0.33251 0.12366 0.0
C1096 C 0.7144 0.34935 0.1423 0.0
C1097 C 0.681 0.3839 0.20187 0.0
C1098 C 0.69773 0.40294 0.19893 0.0
C1099 C 0.68686 0.39899 0.22131 0.0
C1100 C 0.67935 0.38772 0.21581 0.0
C1101 C 0.6962 0.40672 0.21297 0.0
C1102 C 0.69024 0.39158 0.19343 0.0
C1103 C 0.67305 0.3718 0.19654 0.0
O1104 O 0.65496 0.34553 0.1676 0.0
O1105 O 0.66787 0.33222 0.18089 0.0
O1106 O 0.67916 0.35975 0.19794 0.0
O1107 O 0.66683 0.37337 0.1844 0.0
H1108 H 0.64083 0.3483 0.19316 0.0
H1109 H 0.62026 0.34018 0.20606 0.0
H1110 H 0.62299 0.30019 0.18607 0.0
H1111 H 0.64321 0.30855 0.17298 0.0
H1112 H 0.69027 0.32345 0.1224 0.0
H1113 H 0.68112 0.33646 0.1422 0.0
H1114 H 0.73039 0.34373 0.12807 0.0
H1115 H 0.72123 0.35653 0.14782 0.0
H1116 H 0.70493 0.40858 0.19227 0.0
H1117 H 0.68528 0.40171 0.2321 0.0
H1118 H 0.67225 0.38194 0.22247 0.0
H1119 H 0.69171 0.38874 0.18265 0.0
C1120 C 0.64104 0.33115 0.85136 0.0
C1121 C 0.63911 0.33464 0.83727 0.0
C1122 C 0.61776 0.32052 0.83642 0.0
C1123 C 0.62758 0.32935 0.82987 0.0
C1124 C 0.61962 0.31737 0.85064 0.0
C1125 C 0.63115 0.32262 0.85801 0.0
U1126 U 0.67238 0.35584 0.85702 0.0
O1127 O 0.68089 0.36439 0.87663 0.0
O1128 O 0.69381 0.35119 0.86354 0.0
C1129 C 0.69259 0.35754 0.87555 0.0
C1130 C 0.65343 0.33596 0.85921 0.0
C1131 C 0.69702 0.34965 0.88804 0.0
C1132 C 0.70627 0.34967 0.9117 0.0
C1133 C 0.7014 0.35686 0.89998 0.0
C1134 C 0.70236 0.32786 0.89978 0.0
C1135 C 0.70698 0.33506 0.91172 0.0
C1136 C 0.69739 0.33506 0.8881 0.0
C1137 C 0.67921 0.38549 0.83073 0.0
C1138 C 0.6962 0.40429 0.83367 0.0
C1139 C 0.68531 0.40044 0.81117 0.0
C1140 C 0.67763 0.38929 0.81671 0.0
C1141 C 0.69473 0.40805 0.81955 0.0
C1142 C 0.68854 0.39305 0.8392 0.0
C1143 C 0.6711 0.37354 0.83613 0.0
O1144 O 0.66548 0.33435 0.85303 0.0
O1145 O 0.65237 0.34806 0.86537 0.0
O1146 O 0.66468 0.37538 0.84801 0.0
O1147 O 0.67719 0.36144 0.83531 0.0
H1148 H 0.64663 0.34125 0.83196 0.0
H1149 H 0.62657 0.33189 0.81891 0.0
H1150 H 0.61216 0.31082 0.8561 0.0
H1151 H 0.63242 0.31989 0.8689 0.0
H1152 H 0.70949 0.35557 0.92076 0.0
H1153 H 0.70115 0.36811 0.90019 0.0
H1154 H 0.70291 0.31665 0.89928 0.0
H1155 H 0.69404 0.32921 0.87905 0.0
H1156 H 0.70347 0.40985 0.84037 0.0
H1157 H 0.68379 0.40316 0.80032 0.0
H1158 H 0.67046 0.38359 0.81002 0.0
H1159 H 0.68996 0.39022 0.85005 0.0
C1160 C 0.64111 0.67904 0.83159 0.0
C1161 C 0.63441 0.68858 0.84019 0.0
C1162 C 0.61808 0.69418 0.82141 0.0
C1163 C 0.62295 0.69606 0.83516 0.0
C1164 C 0.62483 0.68452 0.81293 0.0
C1165 C 0.6362 0.67705 0.81797 0.0
U1166 U 0.6718 0.67217 0.85674 0.0
O1167 O 0.67961 0.65218 0.86468 0.0
O1168 O 0.69312 0.6657 0.85197 0.0
C1169 C 0.69157 0.65357 0.85818 0.0
C1170 C 0.65326 0.6711 0.83646 0.0
C1171 C 0.6962 0.64138 0.85029 0.0
C1172 C 0.69875 0.62868 0.82863 0.0
C1173 C 0.69348 0.63998 0.83598 0.0
C1174 C 0.70916 0.61987 0.84989 0.0
C1175 C 0.70682 0.61855 0.83547 0.0
C1176 C 0.70393 0.63116 0.85719 0.0
C1177 C 0.67876 0.6964 0.8879 0.0
C1178 C 0.70054 0.69879 0.90091 0.0
C1179 C 0.67949 0.70907 0.90971 0.0
C1180 C 0.67203 0.70398 0.89821 0.0
C1181 C 0.69389 0.70672 0.91114 0.0
C1182 C 0.69304 0.69367 0.8894 0.0
C1183 C 0.67075 0.6919 0.8755 0.0
O1184 O 0.66542 0.67745 0.83531 0.0
O1185 O 0.6518 0.66435 0.84831 0.0
O1186 O 0.66386 0.68006 0.87664 0.0
O1187 O 0.67708 0.6934 0.86347 0.0
H1188 H 0.63809 0.69031 0.85074 0.0
H1189 H 0.61808 0.7035 0.84192 0.0
H1190 H 0.62125 0.68265 0.80238 0.0
H1191 H 0.64121 0.6697 0.8112 0.0
H1192 H 0.69682 0.62809 0.81753 0.0
H1193 H 0.6875 0.64775 0.83045 0.0
H1194 H 0.71509 0.61217 0.85557 0.0
H1195 H 0.70608 0.63201 0.86825 0.0
H1196 H 0.71163 0.69687 0.90157 0.0
H1197 H 0.67395 0.71488 0.91749 0.0
H1198 H 0.661 0.70614 0.89728 0.0
H1199 H 0.69844 0.68779 0.88157 0.0
C1200 C 0.32718 0.64382 0.85184 0.0
C1201 C 0.33549 0.6373 0.84191 0.0
C1202 C 0.31646 0.62103 0.83648 0.0
C1203 C 0.33019 0.62596 0.83432 0.0
C1204 C 0.30826 0.6276 0.84652 0.0
C1205 C 0.31357 0.63886 0.8541 0.0
U1206 U 0.35268 0.67443 0.85863 0.0
O1207 O 0.34815 0.69564 0.86539 0.0
O1208 O 0.36094 0.68219 0.87868 0.0
C1209 C 0.35425 0.69398 0.87758 0.0
C1210 C 0.33232 0.65586 0.85989 0.0
C1211 C 0.34619 0.69821 0.88992 0.0
C1212 C 0.34602 0.70632 0.91389 0.0
C1213 C 0.35329 0.70153 0.90231 0.0
C1214 C 0.32435 0.70443 0.90092 0.0
C1215 C 0.33146 0.70802 0.91331 0.0
C1216 C 0.33162 0.69954 0.88939 0.0
C1217 C 0.383 0.68145 0.83312 0.0
C1218 C 0.40153 0.69878 0.83604 0.0
C1219 C 0.3988 0.68678 0.81409 0.0
C1220 C 0.38747 0.67925 0.81947 0.0
C1221 C 0.40594 0.69671 0.82226 0.0
C1222 C 0.39011 0.69124 0.84142 0.0
C1223 C 0.3708 0.67351 0.83825 0.0
O1224 O 0.34436 0.65439 0.86632 0.0
O1225 O 0.33105 0.66803 0.85378 0.0
O1226 O 0.35877 0.67981 0.8372 0.0
O1227 O 0.37239 0.66682 0.85011 0.0
H1228 H 0.34602 0.64103 0.83997 0.0
H1229 H 0.33673 0.62123 0.82658 0.0
H1230 H 0.29772 0.62398 0.84859 0.0
H1231 H 0.30701 0.64374 0.86175 0.0
H1232 H 0.35184 0.70872 0.92328 0.0
H1233 H 0.36451 0.70055 0.903 0.0
H1234 H 0.31319 0.70575 0.89996 0.0
H1235 H 0.32584 0.69704 0.87998 0.0
H1236 H 0.40671 0.70643 0.84257 0.0
H1237 H 0.40201 0.68475 0.80352 0.0
H1238 H 0.38214 0.6717 0.81291 0.0
H1239 H 0.38677 0.69313 0.85198 0.0
C1240 C 0.34926 0.38684 0.83319 0.0
C1241 C 0.33572 0.38881 0.83819 0.0
C1242 C 0.33357 0.40989 0.82408 0.0
C1243 C 0.32793 0.40021 0.83365 0.0
C1244 C 0.34725 0.40794 0.81932 0.0
C1245 C 0.35499 0.39653 0.82382 0.0
U1246 U 0.35678 0.35553 0.85701 0.0
O1247 O 0.36328 0.33445 0.85154 0.0
O1248 O 0.37696 0.34759 0.86447 0.0
C1249 C 0.37552 0.33585 0.85766 0.0
C1250 C 0.35747 0.37463 0.83732 0.0
C1251 C 0.38764 0.33157 0.84944 0.0
C1252 C 0.40111 0.3318 0.82806 0.0
C1253 C 0.38982 0.33652 0.83584 0.0
C1254 C 0.40829 0.31737 0.84748 0.0
C1255 C 0.41045 0.32208 0.83376 0.0
C1256 C 0.397 0.32206 0.85521 0.0
C1257 C 0.33273 0.34811 0.88839 0.0
C1258 C 0.33017 0.32633 0.90121 0.0
C1259 C 0.32003 0.34731 0.9102 0.0
C1260 C 0.32518 0.35478 0.89877 0.0
C1261 C 0.32227 0.33294 0.91149 0.0
C1262 C 0.33536 0.33384 0.88976 0.0
C1263 C 0.33723 0.35617 0.87606 0.0
O1264 O 0.36451 0.37573 0.84906 0.0
O1265 O 0.35117 0.36249 0.83589 0.0
O1266 O 0.33559 0.35005 0.86394 0.0
O1267 O 0.34917 0.36297 0.87722 0.0
H1268 H 0.33113 0.38147 0.84549 0.0
H1269 H 0.3175 0.40147 0.83766 0.0
H1270 H 0.35187 0.41505 0.81182 0.0
H1271 H 0.36542 0.39517 0.81983 0.0
H1272 H 0.40254 0.33578 0.81759 0.0
H1273 H 0.38273 0.34393 0.83122 0.0
H1274 H 0.41512 0.30976 0.85214 0.0
H1275 H 0.39547 0.31809 0.86568 0.0
H1276 H 0.33201 0.31527 0.90179 0.0
H1277 H 0.31423 0.35282 0.91801 0.0
H1278 H 0.3231 0.36579 0.89794 0.0
H1279 H 0.3412 0.32848 0.88187 0.0
H1280 H 0.27198 0.28801 1.00218 0.0
H1281 H 0.24008 0.25612 1.00198 0.0
H1282 H 0.26596 0.26238 0.96608 0.0
H1283 H 0.25117 0.2896 0.01706 0.0
H1284 H 0.2384 0.27609 0.01737 0.0
H1285 H 0.27183 0.28872 0.03198 0.0
H1286 H 0.2683 0.26164 0.06761 0.0
H1287 H 0.24149 0.2553 0.03215 0.0
C1288 C 0.26687 0.27928 0.99709 0.0
C1289 C 0.27073 0.27567 0.98347 0.0
C1290 C 0.25585 0.27223 1.00387 0.0
C1291 C 0.24885 0.26127 0.99698 0.0
C1292 C 0.25253 0.25753 0.98335 0.0
C1293 C 0.26361 0.26467 0.97684 0.0
C1294 C 0.24985 0.27809 0.01712 0.0
C1295 C 0.25632 0.27233 0.03034 0.0
C1296 C 0.26727 0.27965 0.03703 0.0
C1297 C 0.27175 0.27586 0.0505 0.0
C1298 C 0.26546 0.26425 0.05698 0.0
C1299 C 0.25461 0.25672 0.05047 0.0
C1300 C 0.25015 0.26077 0.03708 0.0
H1301 H 0.76939 0.24075 0.03092 0.0
H1302 H 0.74018 0.27429 0.03198 0.0
H1303 H 0.76826 0.26773 0.06637 0.0
H1304 H 0.74837 0.24043 0.01612 0.0
H1305 H 0.73644 0.25439 0.01637 0.0
H1306 H 0.76987 0.24191 1.00191 0.0
H1307 H 0.76789 0.27006 0.96714 0.0
H1308 H 0.73982 0.27472 1.00148 0.0
C1309 C 0.76532 0.24983 0.03603 0.0
C1310 C 0.77043 0.25358 0.04926 0.0
C1311 C 0.75452 0.25735 0.02962 0.0
C1312 C 0.74883 0.26876 0.03662 0.0
C1313 C 0.7539 0.27269 0.04982 0.0
C1314 C 0.76481 0.26516 0.05591 0.0
C1315 C 0.74775 0.25196 0.01639 0.0
C1316 C 0.75435 0.25789 1.00333 0.0
C1317 C 0.76547 0.25101 0.99696 0.0
C1318 C 0.77057 0.25552 0.98398 0.0
C1319 C 0.76448 0.26706 0.97747 0.0
C1320 C 0.75334 0.27407 0.9836 0.0
C1321 C 0.74849 0.26952 0.99667 0.0
H1322 H 0.74125 0.75457 0.0328 0.0
H1323 H 0.77121 0.78834 0.03222 0.0
H1324 H 0.76955 0.76037 0.06722 0.0
H1325 H 0.73759 0.77535 0.0182 0.0
H1326 H 0.7501 0.78912 0.01779 0.0
H1327 H 0.73907 0.75587 1.00234 0.0
H1328 H 0.76464 0.76263 0.9663 0.0
H1329 H 0.77083 0.78792 1.00262 0.0
C1330 C 0.75009 0.75998 0.03747 0.0
C1331 C 0.75508 0.75573 0.05061 0.0
C1332 C 0.756 0.77164 0.03064 0.0
C1333 C 0.767 0.77905 0.03715 0.0
C1334 C 0.77204 0.77498 0.05033 0.0
C1335 C 0.76618 0.76317 0.05679 0.0
C1336 C 0.749 0.77759 0.01779 0.0
C1337 C 0.75469 0.77214 1.00422 0.0
C1338 C 0.74774 0.76115 0.9973 0.0
C1339 C 0.75135 0.75756 0.98361 0.0
C1340 C 0.76234 0.76481 0.97709 0.0
C1341 C 0.76948 0.77577 0.98379 0.0
C1342 C 0.76568 0.77925 0.99746 0.0
H1343 H 0.26871 0.74066 0.02951 0.0
H1344 H 0.23995 0.77457 0.03061 0.0
H1345 H 0.26711 0.76692 0.06549 0.0
H1346 H 0.24795 0.74082 0.01438 0.0
H1347 H 0.23614 0.75488 0.01473 0.0
H1348 H 0.27015 0.74278 1.00105 0.0
H1349 H 0.26846 0.77092 0.96613 0.0
H1350 H 0.23929 0.77483 0.99953 0.0
C1351 C 0.26465 0.74968 0.03472 0.0
C1352 C 0.26951 0.75308 0.04815 0.0
C1353 C 0.25408 0.75746 0.02825 0.0
C1354 C 0.24842 0.76883 0.03533 0.0
C1355 C 0.25326 0.77244 0.0487 0.0
C1356 C 0.2639 0.76461 0.0549 0.0
C1357 C 0.24743 0.75235 0.01485 0.0
C1358 C 0.25425 0.7584 1.00196 0.0
C1359 C 0.26571 0.75175 0.99591 0.0
C1360 C 0.27103 0.75629 0.983 0.0
C1361 C 0.26491 0.76776 0.97638 0.0
C1362 C 0.2535 0.77452 0.98222 0.0
C1363 C 0.24828 0.76985 0.99508 0.0
H1364 H 0.02974 0.23933 0.25753 0.0
H1365 H 0.02782 0.26882 0.29096 0.0
H1366 H 0.06416 0.2674 0.26507 0.0
H1367 H 0.0134 0.23574 0.27653 0.0
H1368 H 0.01373 0.24689 0.29121 0.0
H1369 H 0.99802 0.24027 0.25675 0.0
H1370 H 0.96395 0.26765 0.26422 0.0
H1371 H 0.99964 0.2682 0.29159 0.0
C1372 C 0.03427 0.24803 0.26318 0.0
C1373 C 0.04763 0.25307 0.2596 0.0
C1374 C 0.02697 0.25378 0.2744 0.0
C1375 C 0.0332 0.26469 0.28204 0.0
C1376 C 0.04661 0.26976 0.27869 0.0
C1377 C 0.05358 0.26402 0.26732 0.0
C1378 C 0.0137 0.24687 0.27962 0.0
C1379 C 1.00056 0.25383 0.27444 0.0
C1380 C 0.9935 0.24864 0.26263 0.0
C1381 C 0.98033 0.2537 0.25881 0.0
C1382 C 0.97441 0.26426 0.26674 0.0
C1383 C 0.9812 0.26959 0.27861 0.0
C1384 C 0.9944 0.26441 0.2823 0.0
H1385 H 0.78798 0.0284 0.26145 0.0
H1386 H 0.75627 0.02917 0.29289 0.0
H1387 H 0.76253 0.06448 0.26597 0.0
H1388 H 0.78949 0.01384 0.2829 0.0
H1389 H 0.77549 0.01313 0.2949 0.0
H1390 H 0.78924 0.99948 0.26202 0.0
H1391 H 0.76122 0.96418 0.2629 0.0
H1392 H 0.75468 0.99847 0.29039 0.0
C1393 C 0.77933 0.03358 0.2663 0.0
C1394 C 0.77579 0.04709 0.262 0.0
C1395 C 0.77228 0.02699 0.27738 0.0
C1396 C 0.76143 0.034 0.28406 0.0
C1397 C 0.75771 0.0475 0.27987 0.0
C1398 C 0.76483 0.05382 0.26872 0.0
C1399 C 0.7779 0.01369 0.2836 0.0
C1400 C 0.77228 1.00069 0.2766 0.0
C1401 C 0.77989 0.99438 0.26591 0.0
C1402 C 0.77593 0.9812 0.26081 0.0
C1403 C 0.76396 0.97462 0.26623 0.0
C1404 C 0.75622 0.98072 0.27688 0.0
C1405 C 0.76037 0.99384 0.28192 0.0
H1406 H 0.99848 0.73879 0.27506 0.0
H1407 H 0.99858 0.77073 0.24355 0.0
H1408 H 0.96359 0.76608 0.271 0.0
H1409 H 0.01286 0.73678 0.25423 0.0
H1410 H 0.01275 0.74983 0.24111 0.0
H1411 H 0.02863 0.73853 0.27436 0.0
H1412 H 0.06503 0.76427 0.26781 0.0
H1413 H 0.0284 0.77014 0.24252 0.0
C1414 C 0.99365 0.74776 0.27028 0.0
C1415 C 0.98042 0.75196 0.27476 0.0
C1416 C 1.00034 0.75456 0.25909 0.0
C1417 C 0.99371 0.7658 0.25249 0.0
C1418 C 0.98048 0.77013 0.25682 0.0
C1419 C 0.97408 0.76329 0.2681 0.0
C1420 C 0.0131 0.74824 0.25259 0.0
C1421 C 0.02678 0.75406 0.25819 0.0
C1422 C 0.03374 0.74721 0.26915 0.0
C1423 C 0.04754 0.75092 0.2728 0.0
C1424 C 0.05415 0.7619 0.26561 0.0
C1425 C 0.04741 0.76893 0.25467 0.0
C1426 C 0.03361 0.76506 0.25117 0.0
H1427 H 0.23956 0.99906 0.26036 0.0
H1428 H 0.27289 0.99831 0.29063 0.0
H1429 H 0.26775 0.96477 0.26165 0.0
H1430 H 0.23838 0.01289 0.2816 0.0
H1431 H 0.25199 0.01246 0.29423 0.0
H1432 H 0.23992 0.02858 0.26111 0.0
H1433 H 0.26608 0.06469 0.26718 0.0
H1434 H 0.27174 0.02851 0.29294 0.0
C1435 C 0.24881 0.99421 0.26459 0.0
C1436 C 0.25304 0.98133 0.25935 0.0
C1437 C 0.25601 1.00052 0.27577 0.0
C1438 C 0.26763 0.9938 0.28168 0.0
C1439 C 0.27206 0.98097 0.27647 0.0
C1440 C 0.26482 0.97498 0.2652 0.0
C1441 C 0.24993 0.01306 0.28282 0.0
C1442 C 0.25558 0.02679 0.27728 0.0
C1443 C 0.24868 0.03365 0.26627 0.0
C1444 C 0.25257 0.0473 0.26243 0.0
C1445 C 0.26361 0.05392 0.26957 0.0
C1446 C 0.27057 0.04733 0.28064 0.0
C1447 C 0.26664 0.03363 0.28426 0.0
H1448 H 0.99895 0.76918 0.79093 0.0
H1449 H 0.99742 0.74135 0.75601 0.0
H1450 H 0.96339 0.76879 0.76339 0.0
H1451 H 0.01297 0.7478 0.79062 0.0
H1452 H 0.01269 0.73671 0.77589 0.0
H1453 H 0.02732 0.7695 0.79069 0.0
H1454 H 0.06363 0.76811 0.76476 0.0
H1455 H 0.029 0.74036 0.75691 0.0
C1456 C 0.99376 0.76546 0.78158 0.0
C1457 C 0.98057 0.77065 0.77787 0.0
C1458 C 0.99999 0.75498 0.77366 0.0
C1459 C 0.99292 0.74975 0.76187 0.0
C1460 C 0.97978 0.75484 0.758 0.0
C1461 C 0.97383 0.76539 0.76594 0.0
C1462 C 0.01295 0.74782 0.77903 0.0
C1463 C 0.0264 0.75456 0.77403 0.0
C1464 C 0.03267 0.7654 0.78174 0.0
C1465 C 0.0461 0.77043 0.77841 0.0
C1466 C 0.05303 0.76476 0.76698 0.0
C1467 C 0.047 0.75393 0.75915 0.0
C1468 C 0.03361 0.74894 0.76267 0.0
H1469 H 0.25572 0.99889 0.78909 0.0
H1470 H 0.29065 0.99948 0.76117 0.0
H1471 H 0.26232 0.96443 0.76184 0.0
H1472 H 0.27677 0.01339 0.79379 0.0
H1473 H 0.29067 0.01432 0.78167 0.0
H1474 H 0.25718 0.02896 0.79196 0.0
H1475 H 0.26216 0.06421 0.76467 0.0
H1476 H 0.2888 0.02899 0.76037 0.0
C1477 C 0.26146 0.99419 0.7807 0.0
C1478 C 0.25729 0.98107 0.77568 0.0
C1479 C 0.27342 1.00098 0.77541 0.0
C1480 C 0.28119 0.99449 0.76495 0.0
C1481 C 0.2772 0.98131 0.75987 0.0
C1482 C 0.26511 0.97485 0.76517 0.0
C1483 C 0.27909 0.01392 0.78247 0.0
C1484 C 0.27327 0.02723 0.77647 0.0
C1485 C 0.26217 0.03391 0.7831 0.0
C1486 C 0.25799 0.04724 0.77882 0.0
C1487 C 0.26483 0.05366 0.76756 0.0
C1488 C 0.27596 0.04724 0.76085 0.0
C1489 C 0.28002 0.03392 0.76526 0.0
H1490 H 0.99992 0.28927 0.75958 0.0
H1491 H 0.99877 0.2572 0.79106 0.0
H1492 H 0.96444 0.26163 0.76245 0.0
H1493 H 0.01501 0.2907 0.78051 0.0
H1494 H 0.01472 0.27726 0.79331 0.0
H1495 H 0.02913 0.28857 0.75922 0.0
H1496 H 0.06277 0.25963 0.76149 0.0
H1497 H 0.02939 0.25678 0.79103 0.0
C1498 C 0.99478 0.28034 0.7643 0.0
C1499 C 0.98157 0.276 0.75938 0.0
C1500 C 1.00118 0.27346 0.7756 0.0
C1501 C 0.99413 0.26224 0.78207 0.0
C1502 C 0.98091 0.25781 0.77726 0.0
C1503 C 0.97487 0.26463 0.76581 0.0
C1504 C 0.01459 0.27921 0.78188 0.0
C1505 C 0.0275 0.27305 0.77552 0.0
C1506 C 0.03385 0.27951 0.76393 0.0
C1507 C 0.04653 0.27462 0.75874 0.0
C1508 C 0.0527 0.26306 0.7651 0.0
C1509 C 0.04669 0.25659 0.77678 0.0
C1510 C 0.034 0.26157 0.78189 0.0
H1511 H 0.73959 0.99942 0.76134 0.0
H1512 H 0.77341 0.99802 0.79101 0.0
H1513 H 0.76669 0.96423 0.76262 0.0
H1514 H 0.739 0.01316 0.78267 0.0
H1515 H 0.75285 0.01251 0.79501 0.0
H1516 H 0.74067 0.02853 0.76178 0.0
H1517 H 0.76653 0.06484 0.76797 0.0
H1518 H 0.7723 0.02873 0.7938 0.0
C1519 C 0.74876 0.99432 0.76546 0.0
C1520 C 0.75246 0.98122 0.76031 0.0
C1521 C 0.75631 1.00052 0.77647 0.0
C1522 C 0.76786 0.99355 0.7822 0.0
C1523 C 0.77181 0.98053 0.77706 0.0
C1524 C 0.76415 0.9746 0.76603 0.0
C1525 C 0.75058 0.01317 0.78365 0.0
C1526 C 0.75626 0.02685 0.77802 0.0
C1527 C 0.74938 0.03366 0.76697 0.0
C1528 C 0.75318 0.04733 0.76314 0.0
C1529 C 0.76413 0.05404 0.77035 0.0
C1530 C 0.77106 0.04751 0.78148 0.0
C1531 C 0.76722 0.03379 0.78507 0.0
H1532 H 0.25704 0.74087 0.50238 0.0
H1533 H 0.28836 0.77341 0.50114 0.0
H1534 H 0.25922 0.76867 0.46726 0.0
H1535 H 0.27879 0.73949 0.51648 0.0
H1536 H 0.29106 0.7535 0.5167 0.0
H1537 H 0.25825 0.73949 0.53155 0.0
H1538 H 0.26107 0.76645 0.56703 0.0
H1539 H 0.28778 0.77363 0.53193 0.0
C1540 C 0.26159 0.74993 0.49731 0.0
C1541 C 0.25647 0.75422 0.48424 0.0
C1542 C 0.27297 0.75695 0.50362 0.0
C1543 C 0.27928 0.7683 0.49662 0.0
C1544 C 0.27425 0.77269 0.48355 0.0
C1545 C 0.26273 0.76572 0.47761 0.0
C1546 C 0.27969 0.75103 0.51664 0.0
C1547 C 0.27336 0.75628 0.53 0.0
C1548 C 0.26262 0.74862 0.5366 0.0
C1549 C 0.25801 0.75228 0.54996 0.0
C1550 C 0.26404 0.76396 0.55648 0.0
C1551 C 0.27476 0.77174 0.55011 0.0
C1552 C 0.27929 0.7679 0.53679 0.0
H1553 H 0.75782 0.79123 0.53113 0.0
H1554 H 0.78617 0.75699 0.53138 0.0
H1555 H 0.75908 0.76321 0.56615 0.0
H1556 H 0.77907 0.79175 0.51682 0.0
H1557 H 0.79056 0.77744 0.51678 0.0
H1558 H 0.75647 0.79057 0.50343 0.0
H1559 H 0.7592 0.76688 0.46581 0.0
H1560 H 0.78848 0.76005 0.49916 0.0
C1561 C 0.76173 0.78189 0.53606 0.0
C1562 C 0.75676 0.77786 0.54927 0.0
C1563 C 0.77228 0.77436 0.52949 0.0
C1564 C 0.77773 0.76256 0.53618 0.0
C1565 C 0.77288 0.75837 0.54936 0.0
C1566 C 0.76229 0.76597 0.55568 0.0
C1567 C 0.77933 0.7802 0.51662 0.0
C1568 C 0.7727 0.77528 0.50313 0.0
C1569 C 0.76117 0.78233 0.49752 0.0
C1570 C 0.75625 0.77937 0.48402 0.0
C1571 C 0.76278 0.76899 0.47632 0.0
C1572 C 0.77453 0.76205 0.48153 0.0
C1573 C 0.7792 0.76501 0.49514 0.0
H1574 H 0.78775 0.27364 0.53221 0.0
H1575 H 0.75801 0.23969 0.53219 0.0
H1576 H 0.76114 0.26689 0.56746 0.0
H1577 H 0.79093 0.25311 0.51729 0.0
H1578 H 0.77833 0.23939 0.51695 0.0
H1579 H 0.78875 0.27327 0.50201 0.0
H1580 H 0.76028 0.26905 0.46749 0.0
H1581 H 0.75694 0.24119 0.50247 0.0
C1582 C 0.77921 0.26803 0.53712 0.0
C1583 C 0.77476 0.27199 0.55044 0.0
C1584 C 0.7731 0.25646 0.53039 0.0
C1585 C 0.76242 0.24886 0.53714 0.0
C1586 C 0.75793 0.25261 0.55051 0.0
C1587 C 0.76403 0.26432 0.55691 0.0
C1588 C 0.7795 0.25091 0.5172 0.0
C1589 C 0.7732 0.25691 0.504 0.0
C1590 C 0.77972 0.26828 0.49724 0.0
C1591 C 0.77503 0.2728 0.48409 0.0
C1592 C 0.76353 0.26602 0.47789 0.0
C1593 C 0.75694 0.2546 0.48437 0.0
C1594 C 0.76176 0.25017 0.49751 0.0
H1595 H 0.25894 0.29241 0.53191 0.0
H1596 H 0.28712 0.25802 0.53232 0.0
H1597 H 0.25977 0.26424 0.56683 0.0
H1598 H 0.27958 0.29277 0.5172 0.0
H1599 H 0.29178 0.27907 0.51803 0.0
H1600 H 0.25825 0.29066 0.50245 0.0
H1601 H 0.26275 0.26425 0.46688 0.0
H1602 H 0.29005 0.25956 0.50224 0.0
C1603 C 0.26279 0.28308 0.53688 0.0
C1604 C 0.2577 0.27905 0.55004 0.0
C1605 C 0.27335 0.27549 0.53037 0.0
C1606 C 0.27869 0.26364 0.53706 0.0
C1607 C 0.27362 0.25939 0.55013 0.0
C1608 C 0.26308 0.26707 0.55642 0.0
C1609 C 0.28043 0.28125 0.51749 0.0
C1610 C 0.27446 0.2754 0.50408 0.0
C1611 C 0.2632 0.28199 0.49742 0.0
C1612 C 0.25883 0.27793 0.48402 0.0
C1613 C 0.26561 0.26693 0.47748 0.0
C1614 C 0.27691 0.26025 0.48389 0.0
C1615 C 0.28116 0.26444 0.4973 0.0
H1616 H 0.78888 0.5291 0.76069 0.0
H1617 H 0.7572 0.52882 0.79217 0.0
H1618 H 0.76315 0.56483 0.76609 0.0
H1619 H 0.79066 0.51417 0.78176 0.0
H1620 H 0.77685 0.51321 0.79395 0.0
H1621 H 0.79053 0.49962 0.76112 0.0
H1622 H 0.76247 0.46436 0.76195 0.0
H1623 H 0.75583 0.49872 0.78933 0.0
C1624 C 0.78017 0.53408 0.76567 0.0
C1625 C 0.77648 0.54763 0.76167 0.0
C1626 C 0.77323 0.52719 0.77663 0.0
C1627 C 0.76229 0.53392 0.78345 0.0
C1628 C 0.75844 0.54749 0.77961 0.0
C1629 C 0.76549 0.55412 0.76858 0.0
C1630 C 0.77909 0.51389 0.78262 0.0
C1631 C 0.77348 0.50089 0.77561 0.0
C1632 C 0.78114 0.49455 0.76498 0.0
C1633 C 0.7772 0.48136 0.75989 0.0
C1634 C 0.7652 0.4748 0.76527 0.0
C1635 C 0.75741 0.48094 0.77586 0.0
C1636 C 0.76154 0.49407 0.78089 0.0
H1637 H 0.25508 0.52969 0.74304 0.0
H1638 H 0.28627 0.53034 0.77556 0.0
H1639 H 0.25713 0.56368 0.77182 0.0
H1640 H 0.27577 0.51529 0.74139 0.0
H1641 H 0.28917 0.51623 0.75426 0.0
H1642 H 0.25498 0.49991 0.74477 0.0
H1643 H 0.26157 0.46491 0.77186 0.0
H1644 H 0.28922 0.5004 0.77407 0.0
C1645 C 0.25962 0.5345 0.75222 0.0
C1646 C 0.25446 0.54727 0.75688 0.0
C1647 C 0.27097 0.52819 0.75905 0.0
C1648 C 0.27722 0.53486 0.77058 0.0
C1649 C 0.27215 0.54761 0.77535 0.0
C1650 C 0.26066 0.55356 0.76856 0.0
C1651 C 0.27765 0.5155 0.75283 0.0
C1652 C 0.27236 0.50195 0.75911 0.0
C1653 C 0.26064 0.49508 0.75327 0.0
C1654 C 0.2566 0.48176 0.75796 0.0
C1655 C 0.26426 0.47545 0.76871 0.0
C1656 C 0.27608 0.48199 0.77456 0.0
C1657 C 0.27998 0.49535 0.7698 0.0
H1658 H 0.28962 0.52824 0.26144 0.0
H1659 H 0.25783 0.52855 0.29281 0.0
H1660 H 0.26348 0.56385 0.26576 0.0
H1661 H 0.2914 0.51392 0.28308 0.0
H1662 H 0.27733 0.51293 0.29496 0.0
H1663 H 0.2907 0.50069 0.26092 0.0
H1664 H 0.26536 0.46356 0.26231 0.0
H1665 H 0.25866 0.49608 0.2919 0.0
C1666 C 0.28085 0.53326 0.26624 0.0
C1667 C 0.27706 0.54669 0.26187 0.0
C1668 C 0.2739 0.52659 0.27733 0.0
C1669 C 0.2629 0.53343 0.28396 0.0
C1670 C 0.25895 0.54684 0.27972 0.0
C1671 C 0.26596 0.55323 0.26855 0.0
C1672 C 0.27982 0.51346 0.28367 0.0
C1673 C 0.2747 0.50025 0.27668 0.0
C1674 C 0.28201 0.49485 0.26528 0.0
C1675 C 0.27863 0.48161 0.26 0.0
C1676 C 0.26775 0.4739 0.26614 0.0
C1677 C 0.26061 0.47886 0.27777 0.0
C1678 C 0.26386 0.49226 0.28273 0.0
H1679 H 0.75509 0.52867 0.24277 0.0
H1680 H 0.78647 0.52927 0.2751 0.0
H1681 H 0.75725 0.56256 0.27166 0.0
H1682 H 0.77576 0.51436 0.24091 0.0
H1683 H 0.78931 0.51539 0.2536 0.0
H1684 H 0.75518 0.49875 0.24449 0.0
H1685 H 0.76276 0.46355 0.27103 0.0
H1686 H 0.78975 0.49954 0.27337 0.0
C1687 C 0.75966 0.53345 0.25195 0.0
C1688 C 0.75451 0.54619 0.25668 0.0
C1689 C 0.77107 0.52714 0.25868 0.0
C1690 C 0.77737 0.53379 0.2702 0.0
C1691 C 0.7723 0.54651 0.27505 0.0
C1692 C 0.76077 0.55246 0.26835 0.0
C1693 C 0.77778 0.51454 0.25233 0.0
C1694 C 0.77272 0.50092 0.25861 0.0
C1695 C 0.76103 0.49393 0.25287 0.0
C1696 C 0.75728 0.48049 0.25747 0.0
C1697 C 0.76521 0.47418 0.26802 0.0
C1698 C 0.777 0.48086 0.27379 0.0
C1699 C 0.78056 0.49435 0.26916 0.0
H1700 H 0.52849 0.2391 0.75728 0.0
H1701 H 0.52765 0.26905 0.79035 0.0
H1702 H 0.5638 0.2662 0.76435 0.0
H1703 H 0.51233 0.23615 0.77665 0.0
H1704 H 0.51271 0.24784 0.7909 0.0
H1705 H 0.49749 0.24041 0.75631 0.0
H1706 H 0.46383 0.26869 0.76221 0.0
H1707 H 0.4988 0.26918 0.79048 0.0
C1708 C 0.53332 0.24772 0.7628 0.0
C1709 C 0.54681 0.2523 0.75912 0.0
C1710 C 0.52626 0.25382 0.77399 0.0
C1711 C 0.53286 0.26464 0.78147 0.0
C1712 C 0.54639 0.26926 0.778 0.0
C1713 C 0.55313 0.26317 0.76668 0.0
C1714 C 0.51281 0.24738 0.77933 0.0
C1715 C 0.49988 0.25439 0.7737 0.0
C1716 C 0.493 0.24902 0.76186 0.0
C1717 C 0.48003 0.25424 0.75758 0.0
C1718 C 0.47414 0.26513 0.76508 0.0
C1719 C 0.48074 0.27059 0.77699 0.0
C1720 C 0.49373 0.26526 0.78115 0.0
H1721 H 0.49913 0.7882 0.75935 0.0
H1722 H 0.4979 0.75623 0.79093 0.0
H1723 H 0.46391 0.76019 0.76186 0.0
H1724 H 0.51363 0.79004 0.78052 0.0
H1725 H 0.51322 0.7768 0.79349 0.0
H1726 H 0.53042 0.7895 0.76179 0.0
H1727 H 0.56354 0.76008 0.76556 0.0
H1728 H 0.52692 0.75513 0.79068 0.0
C1729 C 0.49404 0.77919 0.764 0.0
C1730 C 0.48092 0.77473 0.75895 0.0
C1731 C 0.50037 0.77243 0.77542 0.0
C1732 C 0.49336 0.76114 0.78182 0.0
C1733 C 0.48025 0.75655 0.77686 0.0
C1734 C 0.47428 0.76328 0.76531 0.0
C1735 C 0.51345 0.77857 0.78203 0.0
C1736 C 0.5268 0.7726 0.77637 0.0
C1737 C 0.53448 0.77995 0.76615 0.0
C1738 C 0.54789 0.77562 0.76241 0.0
C1739 C 0.55318 0.76343 0.76836 0.0
C1740 C 0.54574 0.75596 0.77851 0.0
C1741 C 0.53253 0.76059 0.78251 0.0
H1742 H 0.52927 0.73819 0.25763 0.0
H1743 H 0.52762 0.76761 0.29114 0.0
H1744 H 0.56379 0.7662 0.26501 0.0
H1745 H 0.51311 0.73459 0.27694 0.0
H1746 H 0.51322 0.74606 0.29137 0.0
H1747 H 0.49819 0.73882 0.2567 0.0
H1748 H 0.46396 0.76638 0.2629 0.0
H1749 H 0.49885 0.76716 0.29124 0.0
C1750 C 0.53385 0.74686 0.26327 0.0
C1751 C 0.54719 0.75191 0.25961 0.0
C1752 C 0.52664 0.75261 0.27456 0.0
C1753 C 0.53294 0.76348 0.28219 0.0
C1754 C 0.54634 0.76852 0.27877 0.0
C1755 C 0.55322 0.76282 0.26733 0.0
C1756 C 0.51334 0.74578 0.2798 0.0
C1757 C 0.50026 0.7526 0.27427 0.0
C1758 C 0.4935 0.74725 0.26236 0.0
C1759 C 0.48042 0.75223 0.25813 0.0
C1760 C 0.47433 0.76295 0.26573 0.0
C1761 C 0.48084 0.76843 0.27768 0.0
C1762 C 0.49389 0.76326 0.28185 0.0
H1763 H 0.50132 0.28931 0.25992 0.0
H1764 H 0.50007 0.25689 0.29103 0.0
H1765 H 0.4658 0.26168 0.26241 0.0
H1766 H 0.51634 0.29053 0.28081 0.0
H1767 H 0.51588 0.27709 0.29359 0.0
H1768 H 0.53049 0.28822 0.2595 0.0
H1769 H 0.56459 0.25986 0.2627 0.0
H1770 H 0.53064 0.25674 0.29157 0.0
C1771 C 0.49616 0.28032 0.26452 0.0
C1772 C 0.48295 0.27606 0.25954 0.0
C1773 C 0.50253 0.27332 0.27576 0.0
C1774 C 0.49546 0.26202 0.28208 0.0
C1775 C 0.48225 0.25766 0.2772 0.0
C1776 C 0.47624 0.26462 0.26582 0.0
C1777 C 0.51588 0.27904 0.28217 0.0
C1778 C 0.52885 0.27288 0.27594 0.0
C1779 C 0.53528 0.27928 0.26438 0.0
C1780 C 0.54814 0.27454 0.25944 0.0
C1781 C 0.55439 0.26314 0.26606 0.0
C1782 C 0.54823 0.25667 0.27767 0.0
C1783 C 0.53537 0.26152 0.28248 0.0
H1784 H 0.20329 0.22264 0.11522 0.0
H1785 H 0.2273 0.18701 0.10338 0.0
H1786 H 0.21326 0.23587 0.09589 0.0
H1787 H 0.23739 0.20033 0.08419 0.0
H1788 H 0.26583 0.23551 0.06565 0.0
H1789 H 0.25389 0.21998 0.08198 0.0
H1790 H 0.21441 0.23777 0.07021 0.0
H1791 H 0.22643 0.25348 0.05399 0.0
C1792 C 0.21052 0.21754 0.1084 0.0
C1793 C 0.21455 0.20376 0.11099 0.0
C1794 C 0.21625 0.22515 0.09729 0.0
C1795 C 0.22618 0.21919 0.08851 0.0
C1796 C 0.22993 0.20531 0.09087 0.0
C1797 C 0.22416 0.19768 0.10192 0.0
C1798 C 0.25457 0.23595 0.06641 0.0
C1799 C 0.24708 0.24574 0.05855 0.0
C1800 C 0.24771 0.22701 0.07572 0.0
C1801 C 0.23319 0.22769 0.07749 0.0
C1802 C 0.22562 0.23709 0.06921 0.0
C1803 C 0.23248 0.24597 0.0598 0.0
H1804 H 0.81347 0.22256 0.12077 0.0
H1805 H 0.81533 0.18732 0.09326 0.0
H1806 H 0.80324 0.23638 0.10215 0.0
H1807 H 0.80519 0.20121 0.07451 0.0
H1808 H 0.76953 0.22533 0.05224 0.0
H1809 H 0.78317 0.21118 0.06829 0.0
H1810 H 0.8073 0.24753 0.0802 0.0
H1811 H 0.79345 0.26169 0.0643 0.0
C1812 C 0.81193 0.21783 0.11066 0.0
C1813 C 0.8152 0.20381 0.10854 0.0
C1814 C 0.80608 0.22577 0.09994 0.0
C1815 C 0.80338 0.21994 0.08677 0.0
C1816 C 0.80693 0.206 0.08456 0.0
C1817 C 0.81274 0.19803 0.09531 0.0
C1818 C 0.77798 0.23022 0.05803 0.0
C1819 C 0.78036 0.24464 0.05706 0.0
C1820 C 0.78581 0.22211 0.06727 0.0
C1821 C 0.79624 0.22822 0.07571 0.0
C1822 C 0.79914 0.24252 0.07412 0.0
C1823 C 0.79127 0.25063 0.06494 0.0
H1824 H 0.81777 0.84082 0.09541 0.0
H1825 H 0.81468 0.80518 0.12278 0.0
H1826 H 0.80762 0.82714 0.07647 0.0
H1827 H 0.80446 0.79155 0.10394 0.0
H1828 H 0.79469 0.7668 0.06569 0.0
H1829 H 0.80855 0.78075 0.08195 0.0
H1830 H 0.78543 0.81714 0.06989 0.0
H1831 H 0.77174 0.8032 0.05353 0.0
C1832 C 0.81492 0.83007 0.09739 0.0
C1833 C 0.81702 0.82413 0.11065 0.0
C1834 C 0.80909 0.82222 0.08653 0.0
C1835 C 0.80518 0.80822 0.08863 0.0
C1836 C 0.80756 0.80222 0.10182 0.0
C1837 C 0.81341 0.81005 0.11267 0.0
C1838 C 0.79272 0.77782 0.06638 0.0
C1839 C 0.78207 0.78387 0.05835 0.0
C1840 C 0.80061 0.78582 0.07576 0.0
C1841 C 0.79801 0.80006 0.07742 0.0
C1842 C 0.78784 0.80624 0.06884 0.0
C1843 C 0.77999 0.79825 0.05941 0.0
H1844 H 0.19851 0.82701 0.09668 0.0
H1845 H 0.23498 0.81869 0.1218 0.0
H1846 H 0.20856 0.81405 0.07746 0.0
H1847 H 0.24492 0.80567 0.10279 0.0
H1848 H 0.26576 0.7933 0.06354 0.0
H1849 H 0.255 0.80862 0.08036 0.0
H1850 H 0.21453 0.79092 0.07024 0.0
H1851 H 0.22535 0.77583 0.05315 0.0
C1852 C 0.20862 0.82233 0.09814 0.0
C1853 C 0.21597 0.82398 0.11076 0.0
C1854 C 0.21439 0.8149 0.08711 0.0
C1855 C 0.22765 0.80891 0.08847 0.0
C1856 C 0.23487 0.81043 0.10118 0.0
C1857 C 0.22914 0.81787 0.11214 0.0
C1858 C 0.25453 0.79286 0.06476 0.0
C1859 C 0.24641 0.78333 0.05707 0.0
C1860 C 0.24836 0.80155 0.07449 0.0
C1861 C 0.2339 0.80085 0.07689 0.0
C1862 C 0.22568 0.79182 0.06864 0.0
C1863 C 0.23186 0.78318 0.05882 0.0
H1864 H 0.19724 0.82865 0.93421 0.0
H1865 H 0.23514 0.82438 0.91072 0.0
H1866 H 0.20749 0.81527 0.95333 0.0
H1867 H 0.24528 0.81092 0.92961 0.0
H1868 H 0.26533 0.79696 0.96915 0.0
H1869 H 0.25431 0.81279 0.95266 0.0
H1870 H 0.2146 0.79217 0.95956 0.0
H1871 H 0.22564 0.77657 0.97634 0.0
C1872 C 0.20773 0.82479 0.9331 0.0
C1873 C 0.2154 0.82766 0.92096 0.0
C1874 C 0.21361 0.81712 0.94406 0.0
C1875 C 0.22728 0.81209 0.94311 0.0
C1876 C 0.23487 0.8149 0.93091 0.0
C1877 C 0.22903 0.8226 0.92002 0.0
C1878 C 0.2542 0.79597 0.96729 0.0
C1879 C 0.24636 0.78549 0.97399 0.0
C1880 C 0.24789 0.80496 0.95775 0.0
C1881 C 0.23359 0.80362 0.95455 0.0
C1882 C 0.22561 0.79358 0.9618 0.0
C1883 C 0.23192 0.78464 0.97145 0.0
H1884 H 0.21633 0.19509 0.92628 0.0
H1885 H 0.1923 0.23252 0.92222 0.0
H1886 H 0.22976 0.20566 0.94528 0.0
H1887 H 0.20561 0.24299 0.94115 0.0
H1888 H 0.22402 0.25545 0.98215 0.0
H1889 H 0.2098 0.2418 0.96599 0.0
H1890 H 0.24705 0.22409 0.9489 0.0
H1891 H 0.26125 0.23737 0.96544 0.0
C1892 C 0.21392 0.20557 0.9294 0.0
C1893 C 0.20317 0.21291 0.9227 0.0
C1894 C 0.22161 0.21162 0.94032 0.0
C1895 C 0.21873 0.22516 0.94483 0.0
C1896 C 0.20793 0.23244 0.93819 0.0
C1897 C 0.20028 0.22642 0.92729 0.0
C1898 C 0.22917 0.24836 0.97523 0.0
C1899 C 0.2438 0.24757 0.97507 0.0
C1900 C 0.22102 0.24067 0.9658 0.0
C1901 C 0.22727 0.23199 0.95597 0.0
C1902 C 0.24186 0.23062 0.95633 0.0
C1903 C 0.25001 0.23832 0.96575 0.0
H1904 H 0.84131 0.22636 0.93532 0.0
H1905 H 0.80452 0.20499 0.91974 0.0
H1906 H 0.82759 0.23629 0.95397 0.0
H1907 H 0.79087 0.21479 0.93851 0.0
H1908 H 0.77154 0.22747 0.97949 0.0
H1909 H 0.78729 0.21515 0.96402 0.0
H1910 H 0.80924 0.2537 0.95531 0.0
H1911 H 0.79366 0.2659 0.97088 0.0
C1912 C 0.8303 0.22376 0.93585 0.0
C1913 C 0.82402 0.21496 0.92589 0.0
C1914 C 0.82245 0.22943 0.94659 0.0
C1915 C 0.80811 0.22639 0.94772 0.0
C1916 C 0.80192 0.21721 0.93807 0.0
C1917 C 0.80977 0.21159 0.92728 0.0
C1918 C 0.77994 0.23322 0.97451 0.0
C1919 C 0.78135 0.24765 0.97638 0.0
C1920 C 0.78886 0.22621 0.96553 0.0
C1921 C 0.79947 0.23345 0.95834 0.0
C1922 C 0.80126 0.24777 0.96075 0.0
C1923 C 0.79229 0.25478 0.96962 0.0
H1924 H 0.83249 0.81181 0.92722 0.0
H1925 H 0.79496 0.83577 0.92288 0.0
H1926 H 0.8218 0.79854 0.94622 0.0
H1927 H 0.78437 0.82263 0.94182 0.0
H1928 H 0.77155 0.80419 0.98273 0.0
H1929 H 0.78534 0.81841 0.96668 0.0
H1930 H 0.80331 0.78134 0.94968 0.0
H1931 H 0.78987 0.76717 0.96607 0.0
C1932 C 0.82197 0.81425 0.93028 0.0
C1933 C 0.81463 0.82491 0.92349 0.0
C1934 C 0.81584 0.80665 0.94121 0.0
C1935 C 0.80223 0.80954 0.94563 0.0
C1936 C 0.79497 0.82029 0.93892 0.0
C1937 C 0.80106 0.82785 0.92801 0.0
C1938 C 0.77872 0.79909 0.97584 0.0
C1939 C 0.77954 0.78452 0.97566 0.0
C1940 C 0.78649 0.80724 0.96649 0.0
C1941 C 0.7953 0.80103 0.95672 0.0
C1942 C 0.79669 0.7865 0.95707 0.0
C1943 C 0.78891 0.77836 0.96641 0.0
H1944 H 0.12131 0.23493 0.21379 0.0
H1945 H 0.09627 0.19819 0.20562 0.0
H1946 H 0.10222 0.24481 0.22675 0.0
H1947 H 0.07697 0.20818 0.21854 0.0
H1948 H 0.05234 0.22526 0.25651 0.0
H1949 H 0.06961 0.21444 0.24162 0.0
H1950 H 0.07972 0.25458 0.22368 0.0
H1951 H 0.06271 0.26534 0.23878 0.0
C1952 C 0.11165 0.22901 0.21463 0.0
C1953 C 0.11032 0.21579 0.20857 0.0
C1954 C 0.10065 0.23471 0.22204 0.0
C1955 C 0.08793 0.2274 0.22359 0.0
C1956 C 0.08662 0.21409 0.21766 0.0
C1957 C 0.09769 0.20835 0.21026 0.0
C1958 C 0.05805 0.2317 0.24916 0.0
C1959 C 0.05622 0.24616 0.24888 0.0
C1960 C 0.06798 0.2255 0.24063 0.0
C1961 C 0.07627 0.23364 0.23158 0.0
C1962 C 0.07383 0.24801 0.23077 0.0
C1963 C 0.06399 0.25419 0.23934 0.0
H1964 H 0.836 0.10769 0.23592 0.0
H1965 H 0.81212 0.10234 0.19798 0.0
H1966 H 0.82276 0.08889 0.24677 0.0
H1967 H 0.79874 0.08349 0.20894 0.0
H1968 H 0.76711 0.06434 0.24093 0.0
H1969 H 0.78138 0.08046 0.22723 0.0
H1970 H 0.81858 0.06397 0.24636 0.0
H1971 H 0.80429 0.04821 0.26041 0.0
C1972 C 0.82807 0.10236 0.22979 0.0
C1973 C 0.82518 0.10655 0.21603 0.0
C1974 C 0.82047 0.09154 0.23604 0.0
C1975 C 0.80971 0.0846 0.22873 0.0
C1976 C 0.80686 0.0887 0.21492 0.0
C1977 C 0.81452 0.09953 0.20865 0.0
C1978 C 0.77835 0.06406 0.2421 0.0
C1979 C 0.78453 0.05504 0.25185 0.0
C1980 C 0.78655 0.07323 0.23416 0.0
C1981 C 0.80114 0.07364 0.2358 0.0
C1982 C 0.80736 0.0641 0.245 0.0
C1983 C 0.79917 0.05491 0.25292 0.0
H1984 H 0.93626 0.81944 0.1936 0.0
H1985 H 0.90809 0.81313 0.228 0.0
H1986 H 0.95496 0.80877 0.20709 0.0
H1987 H 0.9267 0.80237 0.24143 0.0
H1988 H 0.96469 0.79146 0.26654 0.0
H1989 H 0.94853 0.80591 0.25332 0.0
H1990 H 0.96127 0.78611 0.21532 0.0
H1991 H 0.9775 0.77184 0.22852 0.0
C1992 C 0.93405 0.81577 0.20404 0.0
C1993 C 0.92064 0.8171 0.20969 0.0
C1994 C 0.94478 0.80964 0.21178 0.0
C1995 C 0.94238 0.80464 0.22536 0.0
C1996 C 0.92904 0.80629 0.23111 0.0
C1997 C 0.91833 0.81245 0.22339 0.0
C1998 C 0.96416 0.79034 0.25533 0.0
C1999 C 0.97236 0.78047 0.2486 0.0
C2000 C 0.95484 0.79857 0.24776 0.0
C2001 C 0.95344 0.79709 0.23325 0.0
C2002 C 0.96214 0.78767 0.22645 0.0
C2003 C 0.9715 0.77948 0.23402 0.0
H2004 H 0.18795 0.93631 0.21217 0.0
H2005 H 0.22371 0.90969 0.21539 0.0
H2006 H 0.20147 0.95526 0.22266 0.0
H2007 H 0.23717 0.92854 0.22592 0.0
H2008 H 0.26175 0.96696 0.23656 0.0
H2009 H 0.24804 0.95087 0.22223 0.0
H2010 H 0.21103 0.96134 0.24508 0.0
H2011 H 0.22472 0.97752 0.25924 0.0
C2012 C 0.1987 0.93449 0.21512 0.0
C2013 C 0.20471 0.92144 0.21297 0.0
C2014 C 0.20645 0.94537 0.22113 0.0
C2015 C 0.22043 0.94347 0.22518 0.0
C2016 C 0.22653 0.9305 0.22273 0.0
C2017 C 0.21878 0.91965 0.21669 0.0
C2018 C 0.25064 0.96596 0.23837 0.0
C2019 C 0.24434 0.97347 0.24908 0.0
C2020 C 0.24279 0.95668 0.23021 0.0
C2021 C 0.22844 0.95463 0.2326 0.0
C2022 C 0.22201 0.96271 0.24283 0.0
C2023 C 0.22986 0.97204 0.25095 0.0
H2024 H 0.10699 0.79474 0.83883 0.0
H2025 H 0.10011 0.83388 0.81781 0.0
H2026 H 0.08811 0.78413 0.82544 0.0
H2027 H 0.08118 0.82317 0.8043 0.0
H2028 H 0.06253 0.79275 0.77094 0.0
H2029 H 0.07844 0.80609 0.78581 0.0
H2030 H 0.063 0.78381 0.82182 0.0
H2031 H 0.04743 0.77015 0.80688 0.0
C2032 C 0.10131 0.80117 0.83152 0.0
C2033 C 0.10511 0.81519 0.82944 0.0
C2034 C 0.09043 0.79507 0.82383 0.0
C2035 C 0.08306 0.8028 0.81381 0.0
C2036 C 0.08673 0.81687 0.81182 0.0
C2037 C 0.09761 0.823 0.81955 0.0
C2038 C 0.06242 0.79082 0.78206 0.0
C2039 C 0.05378 0.7803 0.7877 0.0
C2040 C 0.07148 0.79854 0.7906 0.0
C2041 C 0.07213 0.79591 0.80501 0.0
C2042 C 0.06293 0.78594 0.81074 0.0
C2043 C 0.05385 0.77823 0.80219 0.0
H2044 H 0.20943 0.09148 0.84151 0.0
H2045 H 0.21566 0.11954 0.80681 0.0
H2046 H 0.21999 0.07281 0.82832 0.0
H2047 H 0.22629 0.10098 0.79368 0.0
H2048 H 0.23663 0.06319 0.76895 0.0
H2049 H 0.22242 0.07934 0.78201 0.0
H2050 H 0.24255 0.06625 0.82016 0.0
H2051 H 0.25657 0.04999 0.80711 0.0
C2052 C 0.21306 0.09367 0.83107 0.0
C2053 C 0.21172 0.10705 0.82525 0.0
C2054 C 0.21913 0.08296 0.8235 0.0
C2055 C 0.22404 0.08534 0.80991 0.0
C2056 C 0.22242 0.09865 0.80401 0.0
C2057 C 0.21633 0.10934 0.81156 0.0
C2058 C 0.23787 0.06364 0.78016 0.0
C2059 C 0.24777 0.05534 0.78697 0.0
C2060 C 0.22978 0.07296 0.78764 0.0
C2061 C 0.23143 0.07427 0.80214 0.0
C2062 C 0.24086 0.06546 0.80904 0.0
C2063 C 0.24891 0.05609 0.80155 0.0
H2064 H 0.9322 0.20495 0.83505 0.0
H2065 H 0.90793 0.21031 0.79742 0.0
H2066 H 0.95158 0.21795 0.8245 0.0
H2067 H 0.92711 0.22332 0.78697 0.0
H2068 H 0.96683 0.2356 0.76624 0.0
H2069 H 0.94994 0.22037 0.77781 0.0
H2070 H 0.95863 0.24099 0.81683 0.0
H2071 H 0.97578 0.25602 0.80521 0.0
C2072 C 0.93096 0.20899 0.82457 0.0
C2073 C 0.91854 0.20649 0.81705 0.0
C2074 C 0.94208 0.21642 0.81852 0.0
C2075 C 0.94101 0.22157 0.80481 0.0
C2076 C 0.92849 0.21922 0.7974 0.0
C2077 C 0.91744 0.21178 0.80342 0.0
C2078 C 0.96528 0.23671 0.77733 0.0
C2079 C 0.97257 0.24705 0.7848 0.0
C2080 C 0.95552 0.22807 0.78396 0.0
C2081 C 0.95269 0.22961 0.79822 0.0
C2082 C 0.96056 0.23944 0.80586 0.0
C2083 C 0.97042 0.24805 0.79922 0.0
H2084 H 0.81927 0.90801 0.79513 0.0
H2085 H 0.82687 0.93201 0.83231 0.0
H2086 H 0.80603 0.92701 0.78519 0.0
H2087 H 0.81367 0.95122 0.82227 0.0
H2088 H 0.77511 0.97516 0.80491 0.0
H2089 H 0.79043 0.9581 0.81577 0.0
H2090 H 0.80859 0.94979 0.77568 0.0
H2091 H 0.79305 0.96659 0.76487 0.0
C2092 C 0.81826 0.91742 0.80113 0.0
C2093 C 0.82422 0.91848 0.8145 0.0
C2094 C 0.81068 0.92838 0.7954 0.0
C2095 C 0.80887 0.94078 0.80283 0.0
C2096 C 0.81474 0.94181 0.81627 0.0
C2097 C 0.8223 0.93079 0.82204 0.0
C2098 C 0.7826 0.96991 0.7985 0.0
C2099 C 0.78282 0.97216 0.78403 0.0
C2100 C 0.79139 0.96009 0.80471 0.0
C2101 C 0.80063 0.95235 0.79659 0.0
C2102 C 0.80137 0.95526 0.78223 0.0
C2103 C 0.79255 0.96498 0.77603 0.0
H2104 H 0.1889 0.09244 0.21452 0.0
H2105 H 0.224 0.1204 0.22068 0.0
H2106 H 0.2022 0.07352 0.22488 0.0
H2107 H 0.23721 0.10162 0.23116 0.0
H2108 H 0.26209 0.06393 0.24125 0.0
H2109 H 0.24876 0.08029 0.22718 0.0
H2110 H 0.21083 0.0661 0.2471 0.0
H2111 H 0.22418 0.04956 0.26092 0.0
C2112 C 0.19945 0.09455 0.2181 0.0
C2113 C 0.20536 0.10796 0.21677 0.0
C2114 C 0.20708 0.0837 0.22406 0.0
C2115 C 0.22082 0.08598 0.22889 0.0
C2116 C 0.22678 0.09935 0.22733 0.0
C2117 C 0.21918 0.11017 0.22133 0.0
C2118 C 0.25087 0.06417 0.24245 0.0
C2119 C 0.24421 0.05548 0.25224 0.0
C2120 C 0.24323 0.07362 0.23446 0.0
C2121 C 0.22871 0.07472 0.23612 0.0
C2122 C 0.22196 0.06551 0.24541 0.0
C2123 C 0.22961 0.05598 0.25335 0.0
H2124 H 0.19973 0.93433 0.83024 0.0
H2125 H 0.2069 0.90933 0.79389 0.0
H2126 H 0.21348 0.9533 0.81995 0.0
H2127 H 0.22077 0.92808 0.78373 0.0
H2128 H 0.23591 0.96693 0.76295 0.0
H2129 H 0.21943 0.95057 0.77357 0.0
H2130 H 0.23695 0.95978 0.81411 0.0
H2131 H 0.25315 0.97641 0.80345 0.0
C2132 C 0.20432 0.93286 0.82009 0.0
C2133 C 0.20217 0.92033 0.81286 0.0
C2134 C 0.2122 0.94373 0.81418 0.0
C2135 C 0.21819 0.94231 0.80094 0.0
C2136 C 0.21606 0.92973 0.79378 0.0
C2137 C 0.20814 0.91892 0.79964 0.0
C2138 C 0.23606 0.96561 0.77416 0.0
C2139 C 0.24584 0.97292 0.78236 0.0
C2140 C 0.2267 0.95614 0.78025 0.0
C2141 C 0.22698 0.95363 0.7947 0.0
C2142 C 0.23632 0.96149 0.80298 0.0
C2143 C 0.24562 0.97105 0.79688 0.0
H2144 H 0.09563 0.20329 0.83339 0.0
H2145 H 0.11766 0.20712 0.79448 0.0
H2146 H 0.07635 0.21661 0.82353 0.0
H2147 H 0.0986 0.22044 0.78471 0.0
H2148 H 0.05853 0.23364 0.76564 0.0
H2149 H 0.07508 0.21804 0.77676 0.0
H2150 H 0.07011 0.23966 0.81566 0.0
H2151 H 0.05325 0.25505 0.80452 0.0
C2152 C 0.09641 0.20705 0.82277 0.0
C2153 C 0.10816 0.20403 0.8147 0.0
C2154 C 0.08535 0.21467 0.81711 0.0
C2155 C 0.0858 0.21949 0.80325 0.0
C2156 C 0.09767 0.21661 0.79529 0.0
C2157 C 0.10866 0.20898 0.80091 0.0
C2158 C 0.06079 0.23488 0.77663 0.0
C2159 C 0.05464 0.2456 0.78419 0.0
C2160 C 0.07038 0.22603 0.78299 0.0
C2161 C 0.07419 0.22774 0.79706 0.0
C2162 C 0.06741 0.23797 0.80484 0.0
C2163 C 0.05771 0.24679 0.79847 0.0
H2164 H 0.83284 0.10517 0.81875 0.0
H2165 H 0.79446 0.10848 0.8417 0.0
H2166 H 0.82262 0.08611 0.80523 0.0
H2167 H 0.78435 0.08945 0.82832 0.0
H2168 H 0.77242 0.04837 0.80993 0.0
H2169 H 0.78575 0.06462 0.82436 0.0
H2170 H 0.80454 0.08246 0.78751 0.0
H2171 H 0.79155 0.06587 0.77311 0.0
C2172 C 0.82223 0.10187 0.82091 0.0
C2173 C 0.81451 0.10838 0.83137 0.0
C2174 C 0.81638 0.09091 0.81317 0.0
C2175 C 0.80268 0.08617 0.81572 0.0
C2176 C 0.79502 0.09261 0.82626 0.0
C2177 C 0.80084 0.10356 0.83395 0.0
C2178 C 0.77969 0.05548 0.80492 0.0
C2179 C 0.78086 0.05584 0.79034 0.0
C2180 C 0.78719 0.06495 0.81319 0.0
C2181 C 0.79607 0.075 0.8071 0.0
C2182 C 0.79784 0.07485 0.79258 0.0
C2183 C 0.79032 0.0654 0.78431 0.0
H2184 H 0.92694 0.83286 0.81674 0.0
H2185 H 0.91943 0.79354 0.83744 0.0
H2186 H 0.94573 0.82249 0.80345 0.0
H2187 H 0.9381 0.78322 0.82422 0.0
H2188 H 0.97857 0.76969 0.80632 0.0
H2189 H 0.963 0.7829 0.82102 0.0
H2190 H 0.94881 0.80589 0.78499 0.0
H2191 H 0.96478 0.79306 0.77041 0.0
C2192 C 0.92926 0.822 0.81844 0.0
C2193 C 0.92165 0.81406 0.8282 0.0
C2194 C 0.94006 0.81605 0.81083 0.0
C2195 C 0.94352 0.80201 0.81279 0.0
C2196 C 0.93597 0.79413 0.82263 0.0
C2197 C 0.92521 0.80006 0.83022 0.0
C2198 C 0.97243 0.77783 0.80159 0.0
C2199 C 0.97288 0.78024 0.78715 0.0
C2200 C 0.96333 0.78528 0.81 0.0
C2201 C 0.95445 0.79533 0.80419 0.0
C2202 C 0.9555 0.79828 0.78987 0.0
C2203 C 0.96459 0.79084 0.78147 0.0
H2204 H 0.83508 0.92012 0.23795 0.0
H2205 H 0.8141 0.92684 0.1986 0.0
H2206 H 0.82191 0.93879 0.24822 0.0
H2207 H 0.80085 0.94563 0.20894 0.0
H2208 H 0.76808 0.96501 0.23859 0.0
H2209 H 0.78248 0.94891 0.22573 0.0
H2210 H 0.81891 0.9636 0.24824 0.0
H2211 H 0.80442 0.97929 0.26148 0.0
C2212 C 0.82781 0.92572 0.23141 0.0
C2213 C 0.82571 0.92197 0.21741 0.0
C2214 C 0.82025 0.93648 0.23731 0.0
C2215 C 0.81036 0.94382 0.22941 0.0
C2216 C 0.80829 0.94013 0.21538 0.0
C2217 C 0.81587 0.92933 0.20945 0.0
C2218 C 0.77919 0.9649 0.2407 0.0
C2219 C 0.78505 0.97337 0.25118 0.0
C2220 C 0.78748 0.95573 0.23324 0.0
C2221 C 0.80185 0.9548 0.23606 0.0
C2222 C 0.80784 0.96385 0.24597 0.0
C2223 C 0.79955 0.97301 0.25344 0.0
H2224 H 0.10425 0.83166 0.21789 0.0
H2225 H 0.1076 0.7939 0.19412 0.0
H2226 H 0.0854 0.82103 0.23145 0.0
H2227 H 0.08879 0.7834 0.20754 0.0
H2228 H 0.04791 0.77076 0.22622 0.0
H2229 H 0.06391 0.78445 0.21185 0.0
H2230 H 0.08213 0.80268 0.24884 0.0
H2231 H 0.06578 0.78934 0.26319 0.0
C2232 C 0.101 0.8211 0.21556 0.0
C2233 C 0.10747 0.81367 0.20486 0.0
C2234 C 0.09017 0.81502 0.22332 0.0
C2235 C 0.08549 0.80138 0.22055 0.0
C2236 C 0.09188 0.79402 0.20978 0.0
C2237 C 0.10271 0.80007 0.20207 0.0
C2238 C 0.05505 0.77797 0.23128 0.0
C2239 C 0.05559 0.7789 0.24588 0.0
C2240 C 0.06438 0.78568 0.22304 0.0
C2241 C 0.07446 0.79452 0.22918 0.0
C2242 C 0.07448 0.79602 0.24374 0.0
C2243 C 0.06517 0.78829 0.25198 0.0
H2244 H 0.93213 0.19933 0.20218 0.0
H2245 H 0.90718 0.23527 0.21054 0.0
H2246 H 0.95142 0.20958 0.21557 0.0
H2247 H 0.92626 0.24541 0.22402 0.0
H2248 H 0.96571 0.26639 0.23794 0.0
H2249 H 0.94888 0.25575 0.22195 0.0
H2250 H 0.95835 0.21528 0.23896 0.0
H2251 H 0.97542 0.22596 0.25471 0.0
C2252 C 0.93073 0.20937 0.20695 0.0
C2253 C 0.91814 0.21651 0.20523 0.0
C2254 C 0.94179 0.21526 0.21463 0.0
C2255 C 0.94049 0.2284 0.22081 0.0
C2256 C 0.92782 0.23545 0.21914 0.0
C2257 C 0.91683 0.2296 0.21144 0.0
C2258 C 0.96433 0.2552 0.2381 0.0
C2259 C 0.97185 0.24702 0.24761 0.0
C2260 C 0.9546 0.24909 0.22902 0.0
C2261 C 0.95204 0.23466 0.2293 0.0
C2262 C 0.96009 0.22641 0.23835 0.0
C2263 C 0.96991 0.23252 0.24738 0.0
H2264 H 0.23378 0.69264 0.61176 0.0
H2265 H 0.19511 0.71431 0.60537 0.0
H2266 H 0.24433 0.70583 0.59282 0.0
H2267 H 0.20572 0.72758 0.58634 0.0
H2268 H 0.23635 0.76011 0.56652 0.0
H2269 H 0.22319 0.74566 0.58287 0.0
H2270 H 0.24418 0.70931 0.56792 0.0
H2271 H 0.25772 0.72386 0.55194 0.0
C2272 C 0.22743 0.70007 0.60618 0.0
C2273 C 0.21356 0.70236 0.61012 0.0
C2274 C 0.2335 0.70764 0.59526 0.0
C2275 C 0.22588 0.71775 0.58796 0.0
C2276 C 0.21196 0.71999 0.59182 0.0
C2277 C 0.20587 0.71239 0.60276 0.0
C2278 C 0.23806 0.74901 0.56663 0.0
C2279 C 0.24819 0.74318 0.55799 0.0
C2280 C 0.23043 0.74069 0.57594 0.0
C2281 C 0.23272 0.72632 0.57686 0.0
C2282 C 0.24231 0.72038 0.56767 0.0
C2283 C 0.24994 0.7287 0.55835 0.0
H2284 H 0.82334 0.72276 0.61371 0.0
H2285 H 0.79777 0.68752 0.60141 0.0
H2286 H 0.81348 0.7364 0.5947 0.0
H2287 H 0.78775 0.70128 0.58254 0.0
H2288 H 0.7607 0.7373 0.56438 0.0
H2289 H 0.77204 0.72133 0.58057 0.0
H2290 H 0.81227 0.73838 0.56903 0.0
H2291 H 0.80088 0.75453 0.55302 0.0
C2292 C 0.81577 0.71783 0.60685 0.0
C2293 C 0.81133 0.70403 0.60919 0.0
C2294 C 0.81011 0.72567 0.59593 0.0
C2295 C 0.7998 0.71994 0.5871 0.0
C2296 C 0.79553 0.70606 0.58926 0.0
C2297 C 0.80126 0.69819 0.60013 0.0
C2298 C 0.77198 0.7375 0.56517 0.0
C2299 C 0.77989 0.74719 0.55744 0.0
C2300 C 0.77849 0.7283 0.57439 0.0
C2301 C 0.79306 0.72865 0.57618 0.0
C2302 C 0.80101 0.73796 0.56802 0.0
C2303 C 0.7945 0.74709 0.55872 0.0
H2304 H 0.82607 0.30678 0.61516 0.0
H2305 H 0.80142 0.34205 0.6028 0.0
H2306 H 0.8161 0.29339 0.59596 0.0
H2307 H 0.79132 0.32856 0.58373 0.0
H2308 H 0.76332 0.29299 0.56533 0.0
H2309 H 0.77511 0.30868 0.58159 0.0
H2310 H 0.8148 0.29151 0.5703 0.0
H2311 H 0.80291 0.27564 0.55415 0.0
C2312 C 0.81869 0.31177 0.60825 0.0
C2313 C 0.8145 0.3255 0.61065 0.0
C2314 C 0.81296 0.30408 0.59722 0.0
C2315 C 0.80286 0.30988 0.58832 0.0
C2316 C 0.79892 0.3237 0.5905 0.0
C2317 C 0.80469 0.33142 0.60149 0.0
C2318 C 0.77458 0.29272 0.56617 0.0
C2319 C 0.78218 0.28306 0.55848 0.0
C2320 C 0.78136 0.30175 0.57545 0.0
C2321 C 0.79591 0.30129 0.57734 0.0
C2322 C 0.80357 0.29202 0.56921 0.0
C2323 C 0.79679 0.28305 0.55984 0.0
H2324 H 0.23475 0.33892 0.61087 0.0
H2325 H 0.19665 0.31466 0.60717 0.0
H2326 H 0.24477 0.32604 0.59185 0.0
H2327 H 0.20641 0.30229 0.58751 0.0
H2328 H 0.23588 0.27096 0.56672 0.0
H2329 H 0.22323 0.28512 0.58311 0.0
H2330 H 0.24462 0.32183 0.56763 0.0
H2331 H 0.25788 0.30752 0.55181 0.0
C2332 C 0.22846 0.33088 0.60596 0.0
C2333 C 0.21492 0.32776 0.61073 0.0
C2334 C 0.23415 0.32362 0.59484 0.0
C2335 C 0.22644 0.31307 0.58805 0.0
C2336 C 0.21274 0.31021 0.59257 0.0
C2337 C 0.20707 0.31743 0.60376 0.0
C2338 C 0.23784 0.28207 0.56676 0.0
C2339 C 0.24807 0.28804 0.55805 0.0
C2340 C 0.23046 0.29024 0.57609 0.0
C2341 C 0.233 0.30465 0.57689 0.0
C2342 C 0.24259 0.31074 0.56755 0.0
C2343 C 0.25005 0.30254 0.55828 0.0
H2344 H 0.21467 0.30686 0.41202 0.0
H2345 H 0.20969 0.34118 0.4402 0.0
H2346 H 0.22562 0.29345 0.43052 0.0
H2347 H 0.2205 0.32768 0.45885 0.0
H2348 H 0.25745 0.30617 0.48143 0.0
H2349 H 0.24304 0.31942 0.46531 0.0
H2350 H 0.22239 0.28148 0.45208 0.0
H2351 H 0.23705 0.26822 0.46806 0.0
C2352 C 0.21567 0.31146 0.42225 0.0
C2353 C 0.21134 0.32512 0.42459 0.0
C2354 C 0.22194 0.30374 0.4329 0.0
C2355 C 0.22399 0.30945 0.44623 0.0
C2356 C 0.21931 0.32301 0.44867 0.0
C2357 C 0.2131 0.33075 0.43798 0.0
C2358 C 0.2496 0.3007 0.47532 0.0
C2359 C 0.24844 0.28613 0.47598 0.0
C2360 C 0.24132 0.3083 0.46604 0.0
C2361 C 0.23162 0.30153 0.45724 0.0
C2362 C 0.22996 0.28702 0.45846 0.0
C2363 C 0.23829 0.27942 0.46768 0.0
H2364 H 0.18662 0.7229 0.43337 0.0
H2365 H 0.22377 0.7025 0.41934 0.0
H2366 H 0.19984 0.73323 0.45256 0.0
H2367 H 0.23693 0.71271 0.43864 0.0
H2368 H 0.25538 0.72611 0.48009 0.0
H2369 H 0.23988 0.71327 0.46423 0.0
H2370 H 0.21814 0.75116 0.45462 0.0
H2371 H 0.23346 0.76387 0.47059 0.0
C2372 C 0.19761 0.7206 0.43436 0.0
C2373 C 0.20414 0.71196 0.42467 0.0
C2374 C 0.20518 0.7265 0.4454 0.0
C2375 C 0.21947 0.72386 0.44712 0.0
C2376 C 0.2259 0.71483 0.43774 0.0
C2377 C 0.21834 0.70897 0.42665 0.0
C2378 C 0.24705 0.7316 0.47486 0.0
C2379 C 0.24565 0.746 0.47657 0.0
C2380 C 0.23829 0.72428 0.46564 0.0
C2381 C 0.22784 0.7312 0.45805 0.0
C2382 C 0.226 0.74547 0.46035 0.0
C2383 C 0.23482 0.75278 0.46946 0.0
H2384 H 0.8365 0.71072 0.44035 0.0
H2385 H 0.80393 0.71702 0.40977 0.0
H2386 H 0.82287 0.72323 0.45756 0.0
H2387 H 0.79025 0.72919 0.427 0.0
H2388 H 0.78053 0.76664 0.45414 0.0
H2389 H 0.79323 0.75204 0.43832 0.0
H2390 H 0.80056 0.72258 0.47152 0.0
H2391 H 0.78744 0.73719 0.48751 0.0
C2392 C 0.82639 0.71467 0.43733 0.0
C2393 C 0.82135 0.71293 0.42364 0.0
C2394 C 0.81854 0.72172 0.44723 0.0
C2395 C 0.80553 0.7273 0.44362 0.0
C2396 C 0.80031 0.72516 0.43007 0.0
C2397 C 0.8081 0.71806 0.42022 0.0
C2398 C 0.78457 0.75693 0.45809 0.0
C2399 C 0.78266 0.75298 0.47209 0.0
C2400 C 0.79192 0.74857 0.44898 0.0
C2401 C 0.79775 0.73605 0.45359 0.0
C2402 C 0.79619 0.73218 0.46765 0.0
C2403 C 0.78869 0.74055 0.47681 0.0
H2404 H 0.82637 0.30572 0.41868 0.0
H2405 H 0.80406 0.3421 0.43152 0.0
H2406 H 0.81624 0.29258 0.43799 0.0
H2407 H 0.79382 0.32889 0.45072 0.0
H2408 H 0.76443 0.29475 0.46951 0.0
H2409 H 0.77663 0.30998 0.45311 0.0
H2410 H 0.81551 0.29025 0.46358 0.0
H2411 H 0.8032 0.27481 0.47984 0.0
C2412 C 0.81948 0.311 0.42573 0.0
C2413 C 0.81597 0.32497 0.42342 0.0
C2414 C 0.81367 0.30345 0.43682 0.0
C2415 C 0.80416 0.30966 0.44589 0.0
C2416 C 0.80093 0.32372 0.44381 0.0
C2417 C 0.80678 0.33128 0.43276 0.0
C2418 C 0.77561 0.2938 0.46845 0.0
C2419 C 0.78284 0.28355 0.47595 0.0
C2420 C 0.78263 0.30258 0.4591 0.0
C2421 C 0.79705 0.30128 0.45694 0.0
C2422 C 0.80438 0.29141 0.46487 0.0
C2423 C 0.79736 0.28268 0.47432 0.0
H2424 H 0.09523 0.69909 0.70483 0.0
H2425 H 0.1207 0.73542 0.7135 0.0
H2426 H 0.076 0.7092 0.71772 0.0
H2427 H 0.10165 0.74543 0.72643 0.0
H2428 H 0.06229 0.76627 0.73851 0.0
H2429 H 0.07927 0.75549 0.72338 0.0
H2430 H 0.06865 0.71527 0.74084 0.0
H2431 H 0.05143 0.72611 0.75577 0.0
C2432 C 0.09677 0.70918 0.70958 0.0
C2433 C 0.1095 0.71647 0.70804 0.0
C2434 C 0.08573 0.71499 0.71696 0.0
C2435 C 0.08717 0.72822 0.72303 0.0
C2436 C 0.09999 0.73539 0.72162 0.0
C2437 C 0.11096 0.72962 0.71422 0.0
C2438 C 0.06345 0.7551 0.73896 0.0
C2439 C 0.05556 0.74706 0.74837 0.0
C2440 C 0.07326 0.74891 0.73037 0.0
C2441 C 0.07556 0.73451 0.73104 0.0
C2442 C 0.06714 0.72636 0.73996 0.0
C2443 C 0.05723 0.73257 0.74851 0.0
H2444 H 0.81206 0.60406 0.69828 0.0
H2445 H 0.83582 0.60943 0.7363 0.0
H2446 H 0.79892 0.58496 0.70908 0.0
H2447 H 0.82282 0.59036 0.74698 0.0
H2448 H 0.80496 0.54917 0.76006 0.0
H2449 H 0.81902 0.56533 0.74623 0.0
H2450 H 0.78158 0.5816 0.72741 0.0
H2451 H 0.76754 0.56511 0.74092 0.0
C2452 C 0.81448 0.6012 0.70893 0.0
C2453 C 0.82504 0.60831 0.71639 0.0
C2454 C 0.80696 0.59023 0.71511 0.0
C2455 C 0.80985 0.58606 0.72888 0.0
C2456 C 0.8205 0.59308 0.73627 0.0
C2457 C 0.82797 0.60405 0.73012 0.0
C2458 C 0.79974 0.55592 0.7527 0.0
C2459 C 0.7851 0.55588 0.75165 0.0
C2460 C 0.8078 0.56533 0.7449 0.0
C2461 C 0.80143 0.57491 0.73584 0.0
C2462 C 0.78684 0.57435 0.73423 0.0
C2463 C 0.77878 0.56496 0.74205 0.0
H2464 H 0.9168 0.32666 0.72579 0.0
H2465 H 0.93103 0.30555 0.68908 0.0
H2466 H 0.93601 0.31683 0.73918 0.0
H2467 H 0.95012 0.29559 0.70253 0.0
H2468 H 0.96785 0.26576 0.73659 0.0
H2469 H 0.95195 0.27806 0.72107 0.0
H2470 H 0.96169 0.31649 0.74224 0.0
H2471 H 0.97752 0.30407 0.75792 0.0
C2472 C 0.92413 0.32011 0.7205 0.0
C2473 C 0.92223 0.31682 0.70635 0.0
C2474 C 0.93518 0.31447 0.72819 0.0
C2475 C 0.94458 0.30536 0.72195 0.0
C2476 C 0.94294 0.3024 0.70771 0.0
C2477 C 0.93195 0.30809 0.70001 0.0
C2478 C 0.96676 0.27688 0.73777 0.0
C2479 C 0.97391 0.28394 0.74849 0.0
C2480 C 0.95769 0.28395 0.72884 0.0
C2481 C 0.95546 0.29826 0.73047 0.0
C2482 C 0.96306 0.30544 0.74082 0.0
C2483 C 0.97225 0.29837 0.74969 0.0
H2484 H 0.20821 0.40915 0.73889 0.0
H2485 H 0.20117 0.43376 0.70186 0.0
H2486 H 0.22156 0.4282 0.74911 0.0
H2487 H 0.21445 0.45304 0.7122 0.0
H2488 H 0.25325 0.47721 0.73005 0.0
H2489 H 0.23767 0.46022 0.71891 0.0
H2490 H 0.21921 0.45069 0.75881 0.0
H2491 H 0.23504 0.46738 0.7699 0.0
C2492 C 0.20937 0.41871 0.73299 0.0
C2493 C 0.20354 0.41993 0.71958 0.0
C2494 C 0.217 0.4297 0.73888 0.0
C2495 C 0.21898 0.44228 0.73158 0.0
C2496 C 0.21324 0.44349 0.7181 0.0
C2497 C 0.20563 0.43243 0.71216 0.0
C2498 C 0.24563 0.4717 0.73636 0.0
C2499 C 0.24541 0.47356 0.75085 0.0
C2500 C 0.2367 0.46193 0.72999 0.0
C2501 C 0.22732 0.45386 0.73798 0.0
C2502 C 0.22655 0.45641 0.75236 0.0
C2503 C 0.23552 0.46607 0.75872 0.0
H2504 H 0.10643 0.29489 0.33988 0.0
H2505 H 0.10022 0.33367 0.31799 0.0
H2506 H 0.08786 0.2841 0.32622 0.0
H2507 H 0.08157 0.32278 0.30421 0.0
H2508 H 0.06322 0.29193 0.27112 0.0
H2509 H 0.07896 0.30545 0.28602 0.0
H2510 H 0.06292 0.28375 0.32213 0.0
H2511 H 0.04759 0.26988 0.30719 0.0
C2512 C 0.10095 0.3012 0.33231 0.0
C2513 C 0.10484 0.31518 0.33008 0.0
C2514 C 0.09026 0.29499 0.32446 0.0
C2515 C 0.08314 0.30257 0.31414 0.0
C2516 C 0.08692 0.3166 0.31198 0.0
C2517 C 0.09763 0.32283 0.31986 0.0
C2518 C 0.06296 0.29015 0.28226 0.0
C2519 C 0.05423 0.27973 0.28793 0.0
C2520 C 0.07191 0.29798 0.29082 0.0
C2521 C 0.07235 0.29558 0.30527 0.0
C2522 C 0.06304 0.28571 0.31102 0.0
C2523 C 0.05409 0.27788 0.30246 0.0
H2524 H 0.21721 0.6195 0.30795 0.0
H2525 H 0.21075 0.59133 0.34252 0.0
H2526 H 0.22773 0.60093 0.29475 0.0
H2527 H 0.22118 0.57265 0.32925 0.0
H2528 H 0.25748 0.54951 0.30801 0.0
H2529 H 0.24362 0.56587 0.3211 0.0
H2530 H 0.22379 0.57942 0.28294 0.0
H2531 H 0.23786 0.56316 0.26985 0.0
C2532 C 0.2178 0.60927 0.31265 0.0
C2533 C 0.21317 0.60695 0.32633 0.0
C2534 C 0.22383 0.59858 0.30506 0.0
C2535 C 0.22535 0.58523 0.3109 0.0
C2536 C 0.2204 0.58283 0.32448 0.0
C2537 C 0.21441 0.59355 0.33209 0.0
C2538 C 0.24992 0.55574 0.30246 0.0
C2539 C 0.24882 0.55506 0.28788 0.0
C2540 C 0.24197 0.56517 0.30997 0.0
C2541 C 0.23267 0.57413 0.30309 0.0
C2542 C 0.23106 0.57292 0.28857 0.0
C2543 C 0.23906 0.56354 0.28107 0.0
H2544 H 0.90783 0.72263 0.31794 0.0
H2545 H 0.93551 0.68799 0.32324 0.0
H2546 H 0.92658 0.73614 0.30725 0.0
H2547 H 0.95438 0.70157 0.31265 0.0
H2548 H 0.97722 0.72369 0.27597 0.0
H2549 H 0.96086 0.71027 0.29014 0.0
H2550 H 0.94851 0.74783 0.31082 0.0
H2551 H 0.96476 0.76127 0.29645 0.0
C2552 C 0.918 0.71798 0.31706 0.0
C2553 C 0.92012 0.7042 0.32142 0.0
C2554 C 0.9288 0.72575 0.31094 0.0
C2555 C 0.94205 0.71997 0.30904 0.0
C2556 C 0.94427 0.70629 0.31373 0.0
C2557 C 0.93344 0.69851 0.31981 0.0
C2558 C 0.97127 0.72904 0.28378 0.0
C2559 C 0.97226 0.74357 0.28503 0.0
C2560 C 0.96184 0.72134 0.29191 0.0
C2561 C 0.9532 0.72796 0.30155 0.0
C2562 C 0.95475 0.74241 0.3033 0.0
C2563 C 0.96413 0.75011 0.29512 0.0
H2564 H 0.83682 0.41961 0.29608 0.0
H2565 H 0.81618 0.42532 0.33541 0.0
H2566 H 0.82351 0.43852 0.28599 0.0
H2567 H 0.80277 0.44429 0.32525 0.0
H2568 H 0.7695 0.46394 0.29563 0.0
H2569 H 0.78419 0.44766 0.30833 0.0
H2570 H 0.82029 0.46341 0.28635 0.0
H2571 H 0.8055 0.47936 0.2733 0.0
C2572 C 0.82959 0.42503 0.30266 0.0
C2573 C 0.82762 0.42091 0.31659 0.0
C2574 C 0.82195 0.43592 0.29686 0.0
C2575 C 0.81209 0.44301 0.30481 0.0
C2576 C 0.81017 0.43898 0.31878 0.0
C2577 C 0.81785 0.42807 0.3246 0.0
C2578 C 0.7806 0.46403 0.29362 0.0
C2579 C 0.78629 0.47289 0.28336 0.0
C2580 C 0.78905 0.45476 0.30098 0.0
C2581 C 0.80342 0.45408 0.29826 0.0
C2582 C 0.80923 0.46348 0.28854 0.0
C2583 C 0.80078 0.47278 0.28119 0.0
H2584 H 0.22166 0.61304 0.70673 0.0
H2585 H 0.18454 0.59753 0.72719 0.0
H2586 H 0.23485 0.59379 0.71649 0.0
H2587 H 0.1978 0.57838 0.73707 0.0
H2588 H 0.23144 0.56002 0.76703 0.0
H2589 H 0.21611 0.57606 0.7548 0.0
H2590 H 0.23787 0.56835 0.71647 0.0
H2591 H 0.25339 0.55243 0.72883 0.0
C2592 C 0.21624 0.60542 0.71312 0.0
C2593 C 0.20202 0.60696 0.71624 0.0
C2594 C 0.22382 0.59435 0.71872 0.0
C2595 C 0.21741 0.58456 0.72762 0.0
C2596 C 0.20312 0.58586 0.73042 0.0
C2597 C 0.19553 0.59688 0.72478 0.0
C2598 C 0.2328 0.56159 0.75595 0.0
C2599 C 0.24364 0.55498 0.74891 0.0
C2600 C 0.22397 0.57073 0.74891 0.0
C2601 C 0.22581 0.57359 0.73466 0.0
C2602 C 0.23628 0.56651 0.72748 0.0
C2603 C 0.24505 0.55726 0.73452 0.0
H2604 H 0.21104 0.40664 0.29861 0.0
H2605 H 0.20084 0.43439 0.33208 0.0
H2606 H 0.22625 0.42442 0.28855 0.0
H2607 H 0.21638 0.45224 0.32204 0.0
H2608 H 0.23488 0.48439 0.28909 0.0
H2609 H 0.21883 0.46781 0.30048 0.0
H2610 H 0.24885 0.43528 0.29532 0.0
H2611 H 0.26478 0.45167 0.28422 0.0
C2612 C 0.21198 0.41658 0.30378 0.0
C2613 C 0.20471 0.41909 0.31614 0.0
C2614 C 0.22081 0.42674 0.29808 0.0
C2615 C 0.22258 0.43972 0.30454 0.0
C2616 C 0.21517 0.44236 0.31679 0.0
C2617 C 0.20639 0.43211 0.3226 0.0
C2618 C 0.23806 0.47372 0.29051 0.0
C2619 C 0.25097 0.46929 0.28545 0.0
C2620 C 0.22889 0.46424 0.29704 0.0
C2621 C 0.23249 0.45018 0.29858 0.0
C2622 C 0.24561 0.44594 0.29398 0.0
C2623 C 0.25473 0.45536 0.28757 0.0
H2624 H 0.10812 0.69125 0.29725 0.0
H2625 H 0.10508 0.71523 0.33494 0.0
H2626 H 0.08924 0.70443 0.2869 0.0
H2627 H 0.08614 0.72855 0.32449 0.0
H2628 H 0.06606 0.75977 0.29289 0.0
H2629 H 0.0826 0.74573 0.30606 0.0
H2630 H 0.06439 0.70848 0.28831 0.0
H2631 H 0.04821 0.72254 0.27479 0.0
C2632 C 0.10329 0.6992 0.30343 0.0
C2633 C 0.10814 0.70211 0.31697 0.0
C2634 C 0.09242 0.70677 0.29748 0.0
C2635 C 0.08608 0.71752 0.30488 0.0
C2636 C 0.09087 0.72043 0.31845 0.0
C2637 C 0.10175 0.71281 0.32443 0.0
C2638 C 0.0655 0.74857 0.29191 0.0
C2639 C 0.05586 0.7423 0.28269 0.0
C2640 C 0.07492 0.7405 0.29955 0.0
C2641 C 0.07496 0.72597 0.29813 0.0
C2642 C 0.06482 0.71966 0.28948 0.0
C2643 C 0.05539 0.72772 0.28186 0.0
H2644 H 0.79116 0.61775 0.32442 0.0
H2645 H 0.82941 0.59502 0.32911 0.0
H2646 H 0.78104 0.59877 0.31101 0.0
H2647 H 0.81919 0.57582 0.31572 0.0
H2648 H 0.80022 0.55264 0.27702 0.0
H2649 H 0.81155 0.56948 0.29252 0.0
H2650 H 0.77235 0.57553 0.31339 0.0
H2651 H 0.76105 0.55897 0.29769 0.0
C2652 C 0.79737 0.60861 0.32273 0.0
C2653 C 0.81107 0.6079 0.32794 0.0
C2654 C 0.79154 0.59767 0.31505 0.0
C2655 C 0.79921 0.58563 0.31239 0.0
C2656 C 0.81299 0.58495 0.31748 0.0
C2657 C 0.81886 0.59596 0.32515 0.0
C2658 C 0.79412 0.55734 0.28514 0.0
C2659 C 0.77972 0.55456 0.28609 0.0
C2660 C 0.8006 0.56702 0.29402 0.0
C2661 C 0.79283 0.57409 0.30407 0.0
C2662 C 0.7786 0.5706 0.30554 0.0
C2663 C 0.77213 0.56102 0.29663 0.0
H2664 H 0.92795 0.33231 0.31714 0.0
H2665 H 0.9201 0.2931 0.33795 0.0
H2666 H 0.9467 0.32175 0.30395 0.0
H2667 H 0.93875 0.28261 0.32484 0.0
H2668 H 0.97921 0.26879 0.30706 0.0
H2669 H 0.96369 0.28215 0.32169 0.0
H2670 H 0.94963 0.30503 0.28554 0.0
H2671 H 0.96553 0.29203 0.27103 0.0
C2672 C 0.93018 0.32144 0.31889 0.0
C2673 C 0.92249 0.31359 0.32865 0.0
C2674 C 0.94096 0.31539 0.31134 0.0
C2675 C 0.94433 0.30133 0.31335 0.0
C2676 C 0.9367 0.29353 0.32321 0.0
C2677 C 0.92595 0.29957 0.33073 0.0
C2678 C 0.9731 0.27693 0.30229 0.0
C2679 C 0.97357 0.27926 0.28784 0.0
C2680 C 0.96404 0.28447 0.31066 0.0
C2681 C 0.95522 0.29454 0.30479 0.0
C2682 C 0.95628 0.29741 0.29046 0.0
C2683 C 0.96533 0.28987 0.2821 0.0
H2684 H 0.81565 0.42687 0.698 0.0
H2685 H 0.83622 0.41993 0.73752 0.0
H2686 H 0.80243 0.44572 0.70825 0.0
H2687 H 0.8231 0.43869 0.7477 0.0
H2688 H 0.80567 0.47933 0.76081 0.0
H2689 H 0.82021 0.46356 0.7477 0.0
H2690 H 0.78391 0.44901 0.72491 0.0
H2691 H 0.76947 0.46518 0.73764 0.0
C2692 C 0.81734 0.42933 0.70887 0.0
C2693 C 0.82705 0.42187 0.7169 0.0
C2694 C 0.80977 0.44016 0.71474 0.0
C2695 C 0.81173 0.44381 0.7288 0.0
C2696 C 0.82151 0.4364 0.73678 0.0
C2697 C 0.82905 0.4256 0.73092 0.0
C2698 C 0.80084 0.47306 0.75273 0.0
C2699 C 0.78637 0.47348 0.75035 0.0
C2700 C 0.80916 0.46385 0.74534 0.0
C2701 C 0.80322 0.45482 0.73538 0.0
C2702 C 0.78887 0.45581 0.73245 0.0
C2703 C 0.78056 0.46502 0.73984 0.0
H2704 H 0.09502 0.33223 0.70548 0.0
H2705 H 0.11677 0.29333 0.70786 0.0
H2706 H 0.07576 0.322 0.71882 0.0
H2707 H 0.09777 0.2832 0.72127 0.0
H2708 H 0.05799 0.26382 0.73536 0.0
H2709 H 0.07429 0.27521 0.71946 0.0
H2710 H 0.06972 0.31374 0.74173 0.0
H2711 H 0.05307 0.30234 0.75738 0.0
C2712 C 0.09573 0.32153 0.70892 0.0
C2713 C 0.1074 0.31357 0.70551 0.0
C2714 C 0.08468 0.31565 0.71656 0.0
C2715 C 0.08509 0.30171 0.72103 0.0
C2716 C 0.09686 0.29385 0.71771 0.0
C2717 C 0.10782 0.29968 0.71004 0.0
C2718 C 0.06028 0.27479 0.73667 0.0
C2719 C 0.05431 0.28217 0.74763 0.0
C2720 C 0.06973 0.28131 0.72765 0.0
C2721 C 0.07358 0.29535 0.72945 0.0
C2722 C 0.06698 0.30294 0.73995 0.0
C2723 C 0.0574 0.29643 0.74892 0.0
H2724 H 0.93126 0.70071 0.70139 0.0
H2725 H 0.90676 0.73706 0.7093 0.0
H2726 H 0.95062 0.71082 0.71478 0.0
H2727 H 0.9259 0.74706 0.7228 0.0
H2728 H 0.96542 0.76762 0.73702 0.0
H2729 H 0.94859 0.75711 0.72094 0.0
H2730 H 0.95756 0.71658 0.7381 0.0
H2731 H 0.97465 0.72714 0.75392 0.0
C2732 C 0.92998 0.71082 0.70606 0.0
C2733 C 0.91748 0.7181 0.70421 0.0
C2734 C 0.94108 0.71663 0.71374 0.0
C2735 C 0.93992 0.72983 0.71981 0.0
C2736 C 0.92736 0.73704 0.71801 0.0
C2737 C 0.91633 0.73127 0.71029 0.0
C2738 C 0.96393 0.75644 0.73718 0.0
C2739 C 0.97132 0.74822 0.74675 0.0
C2740 C 0.95421 0.75041 0.72805 0.0
C2741 C 0.9515 0.736 0.72835 0.0
C2742 C 0.95941 0.72769 0.73747 0.0
C2743 C 0.96924 0.73373 0.74654 0.0
H2744 H 0.73449 0.19319 0.61276 0.0
H2745 H 0.69569 0.21475 0.60677 0.0
H2746 H 0.74479 0.20639 0.5937 0.0
H2747 H 0.70606 0.22803 0.58761 0.0
H2748 H 0.73645 0.26052 0.56728 0.0
H2749 H 0.72348 0.24614 0.58384 0.0
H2750 H 0.74429 0.20973 0.56878 0.0
H2751 H 0.75764 0.2242 0.5526 0.0
C2752 C 0.72807 0.2006 0.60724 0.0
C2753 C 0.71422 0.20285 0.61132 0.0
C2754 C 0.73399 0.20818 0.59626 0.0
C2755 C 0.72626 0.21824 0.58902 0.0
C2756 C 0.71238 0.22046 0.59303 0.0
C2757 C 0.70643 0.21286 0.60404 0.0
C2758 C 0.73815 0.24942 0.56741 0.0
C2759 C 0.74819 0.24355 0.55868 0.0
C2760 C 0.73064 0.24114 0.57685 0.0
C2761 C 0.73295 0.22677 0.5778 0.0
C2762 C 0.74242 0.2208 0.56852 0.0
C2763 C 0.74994 0.22907 0.55908 0.0
H2764 H 0.2909 0.20874 0.62131 0.0
H2765 H 0.32766 0.20202 0.5967 0.0
H2766 H 0.281 0.22265 0.60262 0.0
H2767 H 0.31765 0.21582 0.57777 0.0
H2768 H 0.3014 0.25545 0.55506 0.0
H2769 H 0.31189 0.23922 0.57159 0.0
H2770 H 0.27115 0.22137 0.57991 0.0
H2771 H 0.26071 0.23786 0.56368 0.0
C2772 C 0.2968 0.21008 0.61181 0.0
C2773 C 0.31005 0.20422 0.61049 0.0
C2774 C 0.29109 0.21803 0.60103 0.0
C2775 C 0.29845 0.22029 0.58858 0.0
C2776 C 0.31173 0.21442 0.58725 0.0
C2777 C 0.31748 0.20651 0.5981 0.0
C2778 C 0.29476 0.24784 0.56021 0.0
C2779 C 0.28023 0.24796 0.55815 0.0
C2780 C 0.30075 0.23853 0.5697 0.0
C2781 C 0.29235 0.2291 0.57729 0.0
C2782 C 0.27791 0.22872 0.57456 0.0
C2783 C 0.27192 0.23808 0.56517 0.0
H2784 H 0.3258 0.80664 0.61501 0.0
H2785 H 0.30081 0.84174 0.60286 0.0
H2786 H 0.31589 0.79325 0.59578 0.0
H2787 H 0.29078 0.82825 0.58376 0.0
H2788 H 0.2631 0.79253 0.56515 0.0
H2789 H 0.27475 0.80822 0.58151 0.0
H2790 H 0.31461 0.79151 0.57011 0.0
H2791 H 0.30287 0.77563 0.55387 0.0
C2792 C 0.31835 0.81159 0.60814 0.0
C2793 C 0.31406 0.82527 0.61061 0.0
C2794 C 0.31267 0.8039 0.59709 0.0
C2795 C 0.3025 0.80966 0.58824 0.0
C2796 C 0.29844 0.82343 0.5905 0.0
C2797 C 0.30417 0.83115 0.6015 0.0
C2798 C 0.27437 0.79235 0.566 0.0
C2799 C 0.28206 0.78282 0.55824 0.0
C2800 C 0.28106 0.80139 0.57533 0.0
C2801 C 0.29562 0.80106 0.57721 0.0
C2802 C 0.30337 0.79192 0.56903 0.0
C2803 C 0.29667 0.78294 0.5596 0.0
H2804 H 0.69402 0.81533 0.60356 0.0
H2805 H 0.73322 0.83688 0.61069 0.0
H2806 H 0.70466 0.80209 0.58488 0.0
H2807 H 0.7438 0.82372 0.59212 0.0
H2808 H 0.75736 0.80625 0.55147 0.0
H2809 H 0.74399 0.82055 0.56724 0.0
H2810 H 0.72169 0.78401 0.58177 0.0
H2811 H 0.73467 0.76978 0.56558 0.0
C2812 C 0.70491 0.81722 0.60118 0.0
C2813 C 0.71273 0.82722 0.60863 0.0
C2814 C 0.71101 0.80964 0.59046 0.0
C2815 C 0.72508 0.81188 0.58691 0.0
C2816 C 0.73286 0.82192 0.59433 0.0
C2817 C 0.72678 0.82948 0.60502 0.0
C2818 C 0.74934 0.8013 0.55774 0.0
C2819 C 0.74715 0.78683 0.55729 0.0
C2820 C 0.74181 0.80949 0.56695 0.0
C2821 C 0.73189 0.80343 0.57595 0.0
C2822 C 0.72919 0.78906 0.57497 0.0
C2823 C 0.73672 0.78088 0.56576 0.0
H2824 H 0.69208 0.8169 0.43029 0.0
H2825 H 0.73081 0.8398 0.42513 0.0
H2826 H 0.70258 0.80355 0.44927 0.0
H2827 H 0.74119 0.8266 0.44407 0.0
H2828 H 0.75486 0.80772 0.48414 0.0
H2829 H 0.74072 0.82239 0.46902 0.0
H2830 H 0.72038 0.78585 0.45203 0.0
H2831 H 0.7342 0.77122 0.4675 0.0
C2832 C 0.70282 0.8191 0.43319 0.0
C2833 C 0.71058 0.82946 0.42614 0.0
C2834 C 0.70882 0.81147 0.4441 0.0
C2835 C 0.72272 0.81403 0.44826 0.0
C2836 C 0.73037 0.82454 0.44136 0.0
C2837 C 0.7244 0.83212 0.43046 0.0
C2838 C 0.74706 0.80284 0.47751 0.0
C2839 C 0.74573 0.78828 0.47697 0.0
C2840 C 0.73909 0.81124 0.46868 0.0
C2841 C 0.72958 0.8053 0.45912 0.0
C2842 C 0.72757 0.7908 0.45927 0.0
C2843 C 0.73556 0.78239 0.46808 0.0
H2844 H 0.72348 0.20319 0.41941 0.0
H2845 H 0.68679 0.22461 0.43311 0.0
H2846 H 0.73682 0.2133 0.43866 0.0
H2847 H 0.70019 0.23483 0.45222 0.0
H2848 H 0.73441 0.26477 0.4703 0.0
H2849 H 0.71895 0.25234 0.45422 0.0
H2850 H 0.73961 0.21396 0.46428 0.0
H2851 H 0.75525 0.2265 0.48024 0.0
C2852 C 0.71818 0.20987 0.42664 0.0
C2853 C 0.70406 0.21316 0.42458 0.0
C2854 C 0.72585 0.21567 0.43769 0.0
C2855 C 0.7196 0.22494 0.44696 0.0
C2856 C 0.70539 0.22791 0.44516 0.0
C2857 C 0.69772 0.22206 0.43415 0.0
C2858 C 0.7355 0.25364 0.46923 0.0
C2859 C 0.74607 0.24663 0.47651 0.0
C2860 C 0.7266 0.24649 0.46007 0.0
C2861 C 0.72809 0.23216 0.45788 0.0
C2862 C 0.73829 0.22503 0.46561 0.0
C2863 C 0.74714 0.23218 0.47488 0.0
H2864 H 0.30541 0.21769 0.41156 0.0
H2865 H 0.34024 0.21255 0.43975 0.0
H2866 H 0.29212 0.22831 0.43006 0.0
H2867 H 0.32688 0.22305 0.45838 0.0
H2868 H 0.30526 0.25924 0.48119 0.0
H2869 H 0.31848 0.24534 0.46494 0.0
H2870 H 0.2804 0.22466 0.45163 0.0
H2871 H 0.26718 0.23879 0.46775 0.0
C2872 C 0.31015 0.21859 0.42178 0.0
C2873 C 0.32393 0.2143 0.42413 0.0
C2874 C 0.30251 0.22467 0.43244 0.0
C2875 C 0.3084 0.22658 0.44577 0.0
C2876 C 0.32207 0.22197 0.44821 0.0
C2877 C 0.32974 0.21593 0.43752 0.0
C2878 C 0.29975 0.2515 0.47503 0.0
C2879 C 0.28515 0.25017 0.47572 0.0
C2880 C 0.30734 0.24351 0.46567 0.0
C2881 C 0.30052 0.23395 0.45681 0.0
C2882 C 0.28599 0.23213 0.45805 0.0
C2883 C 0.2784 0.24017 0.46735 0.0
H2884 H 0.29326 0.82014 0.41061 0.0
H2885 H 0.33153 0.82554 0.43403 0.0
H2886 H 0.2831 0.80717 0.42988 0.0
H2887 H 0.32127 0.81261 0.45353 0.0
H2888 H 0.30217 0.77466 0.47796 0.0
H2889 H 0.31355 0.78968 0.4607 0.0
H2890 H 0.27438 0.81002 0.45282 0.0
H2891 H 0.26303 0.79479 0.46979 0.0
C2892 C 0.29947 0.81869 0.41996 0.0
C2893 C 0.31319 0.82398 0.42078 0.0
C2894 C 0.29361 0.81128 0.43107 0.0
C2895 C 0.30127 0.80896 0.4434 0.0
C2896 C 0.31508 0.81411 0.44419 0.0
C2897 C 0.32097 0.82151 0.433 0.0
C2898 C 0.29609 0.78257 0.47276 0.0
C2899 C 0.28169 0.78349 0.47516 0.0
C2900 C 0.3026 0.79117 0.46283 0.0
C2901 C 0.29485 0.80093 0.45514 0.0
C2902 C 0.28062 0.80239 0.45823 0.0
C2903 C 0.27412 0.79375 0.46806 0.0
H2904 H 0.60042 0.22624 0.69071 0.0
H2905 H 0.61166 0.20144 0.72659 0.0
H2906 H 0.58126 0.23615 0.70369 0.0
H2907 H 0.59237 0.21126 0.7395 0.0
H2908 H 0.55031 0.22428 0.7562 0.0
H2909 H 0.56669 0.21255 0.74095 0.0
H2910 H 0.579 0.25217 0.72324 0.0
H2911 H 0.56251 0.2638 0.73829 0.0
C2912 C 0.59884 0.2229 0.70137 0.0
C2913 C 0.60773 0.21311 0.70761 0.0
C2914 C 0.58781 0.22857 0.7088 0.0
C2915 C 0.58529 0.22455 0.72266 0.0
C2916 C 0.59389 0.21446 0.72878 0.0
C2917 C 0.60498 0.20883 0.72137 0.0
C2918 C 0.55628 0.23042 0.74881 0.0
C2919 C 0.55512 0.24497 0.74845 0.0
C2920 C 0.56579 0.22373 0.74019 0.0
C2921 C 0.57425 0.23142 0.73094 0.0
C2922 C 0.5726 0.2459 0.73016 0.0
C2923 C 0.56319 0.25259 0.73883 0.0
H2924 H 0.30465 0.1197 0.71724 0.0
H2925 H 0.33967 0.0925 0.71245 0.0
H2926 H 0.29134 0.10088 0.72801 0.0
H2927 H 0.32627 0.07352 0.72309 0.0
H2928 H 0.30431 0.05035 0.75971 0.0
H2929 H 0.31766 0.06675 0.74549 0.0
H2930 H 0.27976 0.07907 0.72449 0.0
H2931 H 0.2664 0.06283 0.73897 0.0
C2932 C 0.30943 0.10962 0.71825 0.0
C2933 C 0.32325 0.10764 0.714 0.0
C2934 C 0.30177 0.09877 0.72442 0.0
C2935 C 0.3077 0.08562 0.72645 0.0
C2936 C 0.32143 0.08355 0.7219 0.0
C2937 C 0.32912 0.09443 0.71578 0.0
C2938 C 0.29888 0.05631 0.75182 0.0
C2939 C 0.28429 0.05534 0.75051 0.0
C2940 C 0.30654 0.06575 0.74365 0.0
C2941 C 0.29979 0.0744 0.73393 0.0
C2942 C 0.28528 0.07283 0.73209 0.0
C2943 C 0.27762 0.06346 0.74031 0.0
H2944 H 0.43023 0.80458 0.68884 0.0
H2945 H 0.41621 0.82567 0.72565 0.0
H2946 H 0.44929 0.79448 0.70222 0.0
H2947 H 0.43539 0.81569 0.73896 0.0
H2948 H 0.47686 0.80279 0.75758 0.0
H2949 H 0.46103 0.81527 0.74196 0.0
H2950 H 0.45121 0.77691 0.72069 0.0
H2951 H 0.46715 0.76455 0.73613 0.0
C2952 C 0.43119 0.80708 0.69978 0.0
C2953 C 0.42155 0.81586 0.70616 0.0
C2954 C 0.44217 0.80131 0.70744 0.0
C2955 C 0.44386 0.80422 0.72168 0.0
C2956 C 0.43452 0.81336 0.72797 0.0
C2957 C 0.42349 0.81909 0.72032 0.0
C2958 C 0.47158 0.79712 0.74933 0.0
C2959 C 0.47324 0.78269 0.74809 0.0
C2960 C 0.46238 0.80422 0.7405 0.0
C2961 C 0.45475 0.79707 0.73015 0.0
C2962 C 0.45698 0.78277 0.72847 0.0
C2963 C 0.46607 0.77567 0.73736 0.0
H2964 H 0.7135 0.92724 0.69674 0.0
H2965 H 0.69202 0.92019 0.73557 0.0
H2966 H 0.72712 0.94603 0.70749 0.0
H2967 H 0.70555 0.93886 0.74625 0.0
H2968 H 0.72393 0.97929 0.76018 0.0
H2969 H 0.70916 0.96371 0.74642 0.0
H2970 H 0.74545 0.9492 0.72479 0.0
H2971 H 0.76015 0.96522 0.73817 0.0
C2972 C 0.71169 0.92967 0.70756 0.0
C2973 C 0.70161 0.9222 0.71526 0.0
C2974 C 0.71949 0.94046 0.71372 0.0
C2975 C 0.71739 0.94405 0.72773 0.0
C2976 C 0.70725 0.93663 0.73536 0.0
C2977 C 0.69948 0.92587 0.72922 0.0
C2978 C 0.72872 0.97309 0.75221 0.0
C2979 C 0.74326 0.97347 0.75035 0.0
C2980 C 0.72027 0.96398 0.74446 0.0
C2981 C 0.72612 0.95501 0.73464 0.0
C2982 C 0.74056 0.95597 0.73222 0.0
C2983 C 0.74901 0.96508 0.73997 0.0
H2984 H 0.59982 0.83257 0.31796 0.0
H2985 H 0.60661 0.79374 0.33956 0.0
H2986 H 0.58119 0.82158 0.30425 0.0
H2987 H 0.58804 0.78283 0.32596 0.0
H2988 H 0.54759 0.76851 0.30724 0.0
H2989 H 0.56302 0.78237 0.32212 0.0
H2990 H 0.57865 0.80427 0.28596 0.0
H2991 H 0.56284 0.79076 0.27114 0.0
C2992 C 0.59737 0.8217 0.31977 0.0
C2993 C 0.60473 0.81406 0.3299 0.0
C2994 C 0.58667 0.81541 0.31193 0.0
C2995 C 0.58305 0.80133 0.31404 0.0
C2996 C 0.59032 0.79376 0.32425 0.0
C2997 C 0.60101 0.80003 0.33206 0.0
C2998 C 0.55402 0.77655 0.3025 0.0
C2999 C 0.55403 0.77846 0.28798 0.0
C3000 C 0.56302 0.78437 0.31101 0.0
C3001 C 0.57224 0.7943 0.30522 0.0
C3002 C 0.57168 0.79676 0.29079 0.0
C3003 C 0.56268 0.78893 0.28227 0.0
H3004 H 0.71679 0.12057 0.30826 0.0
H3005 H 0.71007 0.09241 0.34279 0.0
H3006 H 0.72715 0.10192 0.29503 0.0
H3007 H 0.72032 0.07365 0.32949 0.0
H3008 H 0.75631 0.05013 0.30817 0.0
H3009 H 0.74266 0.06663 0.32131 0.0
H3010 H 0.72298 0.0805 0.28318 0.0
H3011 H 0.73685 0.06412 0.27005 0.0
C3012 C 0.71729 0.11033 0.31294 0.0
C3013 C 0.71263 0.10803 0.32662 0.0
C3014 C 0.72323 0.09959 0.30533 0.0
C3015 C 0.72461 0.08622 0.31116 0.0
C3016 C 0.71964 0.08384 0.32473 0.0
C3017 C 0.71375 0.09461 0.33236 0.0
C3018 C 0.74883 0.05647 0.30263 0.0
C3019 C 0.74772 0.05584 0.28805 0.0
C3020 C 0.74099 0.06597 0.31017 0.0
C3021 C 0.7318 0.07506 0.30332 0.0
C3022 C 0.73017 0.07391 0.2888 0.0
C3023 C 0.73806 0.06445 0.28126 0.0
H3024 H 0.4092 0.21 0.29681 0.0
H3025 H 0.43344 0.20423 0.33438 0.0
H3026 H 0.42839 0.22311 0.28651 0.0
H3027 H 0.45284 0.21731 0.32398 0.0
H3028 H 0.47709 0.25555 0.30513 0.0
H3029 H 0.45992 0.24041 0.31656 0.0
H3030 H 0.45121 0.22027 0.27731 0.0
H3031 H 0.46812 0.23561 0.26591 0.0
C3032 C 0.4187 0.2114 0.30282 0.0
C3033 C 0.41979 0.20597 0.3164 0.0
C3034 C 0.42976 0.21889 0.29689 0.0
C3035 C 0.44228 0.22115 0.30432 0.0
C3036 C 0.44334 0.21586 0.31798 0.0
C3037 C 0.43221 0.20837 0.32395 0.0
C3038 C 0.47173 0.24767 0.29903 0.0
C3039 C 0.47388 0.24683 0.28461 0.0
C3040 C 0.46185 0.239 0.30557 0.0
C3041 C 0.45397 0.22926 0.29783 0.0
C3042 C 0.4568 0.22788 0.28355 0.0
C3043 C 0.46657 0.23659 0.27702 0.0
H3044 H 0.32065 0.90926 0.29397 0.0
H3045 H 0.32641 0.93215 0.33214 0.0
H3046 H 0.30738 0.92831 0.28416 0.0
H3047 H 0.3132 0.95143 0.32223 0.0
H3048 H 0.27465 0.97503 0.30426 0.0
H3049 H 0.29008 0.95807 0.31514 0.0
H3050 H 0.30977 0.95139 0.27546 0.0
H3051 H 0.29411 0.96805 0.26461 0.0
C3052 C 0.31923 0.91846 0.30022 0.0
C3053 C 0.32469 0.91919 0.31382 0.0
C3054 C 0.31164 0.92944 0.29457 0.0
C3055 C 0.30932 0.94155 0.30232 0.0
C3056 C 0.31468 0.94225 0.31598 0.0
C3057 C 0.32225 0.93119 0.32168 0.0
C3058 C 0.28251 0.97016 0.29795 0.0
C3059 C 0.28312 0.97281 0.28356 0.0
C3060 C 0.29135 0.9604 0.30418 0.0
C3061 C 0.30104 0.95314 0.29615 0.0
C3062 C 0.30219 0.95648 0.28191 0.0
C3063 C 0.29331 0.96612 0.2757 0.0
H3064 H 0.68929 0.09187 0.71495 0.0
H3065 H 0.72402 0.12023 0.72135 0.0
H3066 H 0.70275 0.0731 0.72537 0.0
H3067 H 0.7374 0.10159 0.73189 0.0
H3068 H 0.76266 0.06414 0.74207 0.0
H3069 H 0.74923 0.0804 0.72796 0.0
H3070 H 0.71133 0.06575 0.74762 0.0
H3071 H 0.72478 0.04931 0.76148 0.0
C3072 C 0.6998 0.09411 0.7186 0.0
C3073 C 0.70556 0.10759 0.71732 0.0
C3074 C 0.70752 0.08334 0.72459 0.0
C3075 C 0.7212 0.08576 0.72951 0.0
C3076 C 0.72702 0.0992 0.728 0.0
C3077 C 0.71932 0.10994 0.72196 0.0
C3078 C 0.75142 0.06426 0.7432 0.0
C3079 C 0.74479 0.05546 0.75292 0.0
C3080 C 0.74372 0.07365 0.73519 0.0
C3081 C 0.72918 0.07459 0.73676 0.0
C3082 C 0.72248 0.06528 0.746 0.0
C3083 C 0.73019 0.05581 0.75395 0.0
H3084 H 0.69915 0.93365 0.33173 0.0
H3085 H 0.70673 0.90847 0.2956 0.0
H3086 H 0.7128 0.95267 0.32138 0.0
H3087 H 0.72047 0.92728 0.28536 0.0
H3088 H 0.73492 0.96629 0.26431 0.0
H3089 H 0.71871 0.94975 0.27506 0.0
H3090 H 0.7363 0.95931 0.31549 0.0
H3091 H 0.75228 0.97609 0.3047 0.0
C3092 C 0.70381 0.93215 0.32162 0.0
C3093 C 0.70179 0.91956 0.31446 0.0
C3094 C 0.71163 0.94305 0.31568 0.0
C3095 C 0.71767 0.9416 0.30246 0.0
C3096 C 0.71571 0.92895 0.29539 0.0
C3097 C 0.70785 0.91811 0.30129 0.0
C3098 C 0.73516 0.96499 0.27552 0.0
C3099 C 0.7449 0.97245 0.28365 0.0
C3100 C 0.72595 0.95544 0.28169 0.0
C3101 C 0.72633 0.95298 0.29615 0.0
C3102 C 0.73561 0.96097 0.30435 0.0
C3103 C 0.74477 0.97062 0.29817 0.0
H3104 H 0.59867 0.18659 0.30624 0.0
H3105 H 0.61387 0.22303 0.32794 0.0
H3106 H 0.57967 0.20007 0.29629 0.0
H3107 H 0.59476 0.23644 0.31812 0.0
H3108 H 0.55324 0.25497 0.30572 0.0
H3109 H 0.56919 0.23932 0.31785 0.0
H3110 H 0.57762 0.21878 0.27901 0.0
H3111 H 0.56152 0.23424 0.267 0.0
C3112 C 0.59799 0.19748 0.30889 0.0
C3113 C 0.60793 0.20373 0.31782 0.0
C3114 C 0.58705 0.20519 0.30322 0.0
C3115 C 0.5857 0.21935 0.30636 0.0
C3116 C 0.59537 0.22551 0.31562 0.0
C3117 C 0.60635 0.21781 0.32125 0.0
C3118 C 0.55824 0.24689 0.29985 0.0
C3119 C 0.55614 0.24585 0.2854 0.0
C3120 C 0.56751 0.23804 0.30677 0.0
C3121 C 0.57479 0.22787 0.29939 0.0
C3122 C 0.57214 0.22642 0.28505 0.0
C3123 C 0.56297 0.23532 0.27814 0.0
H3124 H 0.29495 0.1081 0.34061 0.0
H3125 H 0.33307 0.10464 0.31726 0.0
H3126 H 0.28462 0.08912 0.32735 0.0
H3127 H 0.32263 0.08559 0.30386 0.0
H3128 H 0.29113 0.0655 0.27208 0.0
H3129 H 0.30438 0.082 0.28634 0.0
H3130 H 0.28583 0.0643 0.32338 0.0
H3131 H 0.27224 0.04815 0.30909 0.0
C3132 C 0.30123 0.10315 0.33279 0.0
C3133 C 0.31489 0.10792 0.33007 0.0
C3134 C 0.29529 0.09222 0.32517 0.0
C3135 C 0.3028 0.08574 0.31457 0.0
C3136 C 0.31649 0.09043 0.31187 0.0
C3137 C 0.32247 0.10137 0.31953 0.0
C3138 C 0.29 0.06503 0.28328 0.0
C3139 C 0.28053 0.05556 0.28942 0.0
C3140 C 0.29767 0.07443 0.29148 0.0
C3141 C 0.29605 0.0746 0.30601 0.0
C3142 C 0.28716 0.06461 0.3122 0.0
C3143 C 0.2795 0.05521 0.30401 0.0
H3144 H 0.4093 0.81216 0.30472 0.0
H3145 H 0.43455 0.81289 0.34212 0.0
H3146 H 0.42827 0.80155 0.29217 0.0
H3147 H 0.45384 0.80278 0.32937 0.0
H3148 H 0.47654 0.76729 0.30581 0.0
H3149 H 0.46017 0.7809 0.31926 0.0
H3150 H 0.45091 0.80551 0.28268 0.0
H3151 H 0.46707 0.79169 0.26923 0.0
C3152 C 0.41893 0.81012 0.31026 0.0
C3153 C 0.42032 0.81331 0.32448 0.0
C3154 C 0.42993 0.8042 0.303 0.0
C3155 C 0.44266 0.80131 0.30971 0.0
C3156 C 0.44416 0.80473 0.32387 0.0
C3157 C 0.43313 0.81068 0.33116 0.0
C3158 C 0.47126 0.77583 0.30074 0.0
C3159 C 0.47303 0.77835 0.28643 0.0
C3160 C 0.46184 0.78364 0.30845 0.0
C3161 C 0.45401 0.7942 0.30203 0.0
C3162 C 0.45647 0.79725 0.28791 0.0
C3163 C 0.46581 0.7894 0.2802 0.0
H3164 H 0.3156 0.9267 0.69808 0.0
H3165 H 0.33591 0.91947 0.73768 0.0
H3166 H 0.30247 0.9456 0.70833 0.0
H3167 H 0.32287 0.93828 0.74786 0.0
H3168 H 0.30565 0.97904 0.76099 0.0
H3169 H 0.32015 0.96317 0.74795 0.0
H3170 H 0.28388 0.94896 0.72489 0.0
H3171 H 0.26949 0.96521 0.73756 0.0
C3172 C 0.31725 0.9291 0.70897 0.0
C3173 C 0.32686 0.92154 0.71702 0.0
C3174 C 0.30973 0.93996 0.71484 0.0
C3175 C 0.31164 0.94355 0.72892 0.0
C3176 C 0.32133 0.93604 0.73692 0.0
C3177 C 0.32882 0.92521 0.73107 0.0
C3178 C 0.30082 0.97282 0.75287 0.0
C3179 C 0.28637 0.97336 0.75039 0.0
C3180 C 0.30911 0.96356 0.74552 0.0
C3181 C 0.30317 0.9546 0.7355 0.0
C3182 C 0.28885 0.9557 0.73248 0.0
C3183 C 0.28057 0.96496 0.73983 0.0
H3184 H 0.59269 0.83005 0.70256 0.0
H3185 H 0.62059 0.79775 0.71602 0.0
H3186 H 0.5746 0.8206 0.71805 0.0
H3187 H 0.60257 0.78822 0.73115 0.0
H3188 H 0.57459 0.78355 0.76798 0.0
H3189 H 0.59111 0.79528 0.75268 0.0
H3190 H 0.55901 0.79923 0.72121 0.0
H3191 H 0.54229 0.78739 0.73674 0.0
C3192 C 0.59496 0.82096 0.70883 0.0
C3193 C 0.60809 0.81465 0.70805 0.0
C3194 C 0.58457 0.81549 0.71759 0.0
C3195 C 0.58716 0.8037 0.72589 0.0
C3196 C 0.60027 0.79741 0.72504 0.0
C3197 C 0.61057 0.80279 0.71624 0.0
C3198 C 0.57102 0.78693 0.7578 0.0
C3199 C 0.55721 0.78429 0.75344 0.0
C3200 C 0.5805 0.79364 0.74902 0.0
C3201 C 0.57647 0.79794 0.73561 0.0
C3202 C 0.56244 0.79602 0.73148 0.0
C3203 C 0.55288 0.78925 0.74034 0.0
H3204 H 0.40752 0.2363 0.70831 0.0
H3205 H 0.4315 0.19933 0.70172 0.0
H3206 H 0.42664 0.24635 0.72178 0.0
H3207 H 0.45085 0.2095 0.7151 0.0
H3208 H 0.47453 0.22651 0.75418 0.0
H3209 H 0.45754 0.21579 0.73838 0.0
H3210 H 0.44953 0.25597 0.71992 0.0
H3211 H 0.46627 0.26666 0.73598 0.0
C3212 C 0.41697 0.23039 0.70958 0.0
C3213 C 0.41798 0.21703 0.70387 0.0
C3214 C 0.42799 0.23618 0.71728 0.0
C3215 C 0.4404 0.22882 0.71945 0.0
C3216 C 0.44142 0.21543 0.71376 0.0
C3217 C 0.43033 0.20959 0.70609 0.0
C3218 C 0.46936 0.23298 0.74652 0.0
C3219 C 0.47167 0.24744 0.74636 0.0
C3220 C 0.45959 0.22685 0.73746 0.0
C3221 C 0.45196 0.23503 0.72798 0.0
C3222 C 0.45492 0.24938 0.72731 0.0
C3223 C 0.4646 0.25551 0.73643 0.0
H3224 H 0.6984 0.70123 0.09895 0.0
H3225 H 0.73595 0.70772 0.12325 0.0
H3226 H 0.70878 0.71434 0.07965 0.0
H3227 H 0.74623 0.7209 0.10417 0.0
H3228 H 0.7668 0.73411 0.06473 0.0
H3229 H 0.75561 0.71851 0.08149 0.0
H3230 H 0.71589 0.73739 0.0726 0.0
H3231 H 0.72712 0.75275 0.05557 0.0
C3232 C 0.70883 0.70554 0.10021 0.0
C3233 C 0.71637 0.70334 0.11263 0.0
C3234 C 0.71479 0.71305 0.08914 0.0
C3235 C 0.72843 0.71859 0.09024 0.0
C3236 C 0.73586 0.7165 0.10274 0.0
C3237 C 0.72994 0.70896 0.11375 0.0
C3238 C 0.75564 0.73474 0.0662 0.0
C3239 C 0.74785 0.74468 0.05887 0.0
C3240 C 0.74922 0.72589 0.0759 0.0
C3241 C 0.73486 0.72683 0.07864 0.0
C3242 C 0.72694 0.73628 0.07074 0.0
C3243 C 0.73337 0.74508 0.06094 0.0
H3244 H 0.33159 0.7135 0.10284 0.0
H3245 H 0.29186 0.69282 0.10936 0.0
H3246 H 0.32135 0.7271 0.0839 0.0
H3247 H 0.28171 0.70629 0.09048 0.0
H3248 H 0.26873 0.72467 0.04966 0.0
H3249 H 0.2819 0.70976 0.06542 0.0
H3250 H 0.30455 0.74566 0.0809 0.0
H3251 H 0.29171 0.76049 0.06478 0.0
C3252 C 0.32068 0.71186 0.10026 0.0
C3253 C 0.31257 0.70203 0.10764 0.0
C3254 C 0.31482 0.71964 0.08938 0.0
C3255 C 0.30072 0.71775 0.0856 0.0
C3256 C 0.29268 0.70782 0.09289 0.0
C3257 C 0.29851 0.70008 0.10376 0.0
C3258 C 0.27679 0.72934 0.05613 0.0
C3259 C 0.27911 0.74379 0.05601 0.0
C3260 C 0.28421 0.72081 0.06532 0.0
C3261 C 0.29414 0.72653 0.07459 0.0
C3262 C 0.29702 0.74088 0.07389 0.0
C3263 C 0.28959 0.74941 0.06472 0.0
H3264 H 0.33294 0.31193 0.10924 0.0
H3265 H 0.29605 0.33713 0.11042 0.0
H3266 H 0.32307 0.29901 0.08967 0.0
H3267 H 0.28589 0.32375 0.09147 0.0
H3268 H 0.27313 0.30435 0.0514 0.0
H3269 H 0.28665 0.3188 0.06741 0.0
H3270 H 0.30543 0.28209 0.08503 0.0
H3271 H 0.29253 0.26773 0.06847 0.0
C3272 C 0.32276 0.31478 0.10531 0.0
C3273 C 0.31528 0.32555 0.11153 0.0
C3274 C 0.31702 0.30725 0.09415 0.0
C3275 C 0.30363 0.31026 0.08894 0.0
C3276 C 0.29629 0.3212 0.09501 0.0
C3277 C 0.30205 0.32876 0.10609 0.0
C3278 C 0.28046 0.29937 0.05839 0.0
C3279 C 0.28162 0.28482 0.05869 0.0
C3280 C 0.28806 0.30767 0.06776 0.0
C3281 C 0.29698 0.30164 0.07774 0.0
C3282 C 0.29873 0.28716 0.0775 0.0
C3283 C 0.2912 0.27888 0.06807 0.0
H3284 H 0.69901 0.32671 0.09826 0.0
H3285 H 0.73636 0.31985 0.12254 0.0
H3286 H 0.70894 0.31376 0.07897 0.0
H3287 H 0.74619 0.30682 0.10347 0.0
H3288 H 0.76631 0.29406 0.064 0.0
H3289 H 0.75562 0.30947 0.08079 0.0
H3290 H 0.71531 0.29075 0.07194 0.0
H3291 H 0.72604 0.2756 0.05487 0.0
C3292 C 0.70929 0.32236 0.09951 0.0
C3293 C 0.71692 0.3244 0.11192 0.0
C3294 C 0.715 0.31493 0.08845 0.0
C3295 C 0.72845 0.30933 0.08956 0.0
C3296 C 0.73597 0.31127 0.10205 0.0
C3297 C 0.7303 0.31872 0.11304 0.0
C3298 C 0.75512 0.29342 0.06549 0.0
C3299 C 0.74702 0.28359 0.05816 0.0
C3300 C 0.749 0.30216 0.07521 0.0
C3301 C 0.73461 0.30121 0.07796 0.0
C3302 C 0.72639 0.29186 0.07007 0.0
C3303 C 0.73253 0.28318 0.06025 0.0
H3304 H 0.72894 0.3428 0.92865 0.0
H3305 H 0.69847 0.30984 0.92253 0.0
H3306 H 0.73917 0.32987 0.94789 0.0
H3307 H 0.70925 0.29653 0.94119 0.0
H3308 H 0.72518 0.27833 0.98113 0.0
H3309 H 0.71332 0.2944 0.9655 0.0
H3310 H 0.75322 0.31019 0.95135 0.0
H3311 H 0.76501 0.29472 0.96752 0.0
C3312 C 0.72433 0.33285 0.93145 0.0
C3313 C 0.71287 0.32738 0.92393 0.0
C3314 C 0.73034 0.32532 0.9424 0.0
C3315 C 0.72514 0.31207 0.9461 0.0
C3316 C 0.71348 0.30675 0.93879 0.0
C3317 C 0.70741 0.31431 0.9279 0.0
C3318 C 0.73142 0.2855 0.97497 0.0
C3319 C 0.74607 0.28514 0.97554 0.0
C3320 C 0.72461 0.29458 0.96582 0.0
C3321 C 0.73227 0.3035 0.95697 0.0
C3322 C 0.74692 0.30358 0.95803 0.0
C3323 C 0.75371 0.29458 0.96722 0.0
H3324 H 0.69101 0.7325 0.92258 0.0
H3325 H 0.7152 0.69515 0.92648 0.0
H3326 H 0.70434 0.74298 0.94148 0.0
H3327 H 0.72867 0.70574 0.94544 0.0
H3328 H 0.7601 0.73757 0.96553 0.0
H3329 H 0.7459 0.72429 0.949 0.0
H3330 H 0.70862 0.74169 0.96635 0.0
H3331 H 0.72284 0.75533 0.98253 0.0
C3332 C 0.69903 0.72641 0.9276 0.0
C3333 C 0.70196 0.71293 0.92298 0.0
C3334 C 0.7067 0.73244 0.93849 0.0
C3335 C 0.71755 0.72519 0.94508 0.0
C3336 C 0.72047 0.71168 0.94053 0.0
C3337 C 0.71276 0.70562 0.92963 0.0
C3338 C 0.74886 0.73845 0.96591 0.0
C3339 C 0.74263 0.74761 0.97531 0.0
C3340 C 0.7407 0.73075 0.95649 0.0
C3341 C 0.72611 0.73203 0.95621 0.0
C3342 C 0.71985 0.74063 0.96611 0.0
C3343 C 0.728 0.74831 0.97554 0.0
H3344 H 0.30527 0.70094 0.9228 0.0
H3345 H 0.34016 0.72864 0.93119 0.0
H3346 H 0.29208 0.71193 0.94114 0.0
H3347 H 0.32728 0.73905 0.95008 0.0
H3348 H 0.29317 0.76677 0.96827 0.0
H3349 H 0.30846 0.75435 0.95275 0.0
H3350 H 0.28932 0.71543 0.9655 0.0
H3351 H 0.2735 0.72801 0.98054 0.0
C3352 C 0.31019 0.7093 0.9286 0.0
C3353 C 0.32378 0.71394 0.92535 0.0
C3354 C 0.30268 0.71549 0.93931 0.0
C3355 C 0.30856 0.72645 0.94714 0.0
C3356 C 0.32231 0.73078 0.94417 0.0
C3357 C 0.32979 0.72466 0.93342 0.0
C3358 C 0.29228 0.75555 0.96783 0.0
C3359 C 0.28198 0.74842 0.97555 0.0
C3360 C 0.30116 0.74838 0.95901 0.0
C3361 C 0.30009 0.73385 0.95771 0.0
C3362 C 0.29029 0.72664 0.96601 0.0
C3363 C 0.28135 0.73384 0.97482 0.0
H3364 H 0.29636 0.33585 0.92279 0.0
H3365 H 0.33375 0.31162 0.9268 0.0
H3366 H 0.28572 0.32257 0.9416 0.0
H3367 H 0.32302 0.29823 0.9457 0.0
H3368 H 0.29106 0.267 0.96569 0.0
H3369 H 0.3045 0.28113 0.94928 0.0
H3370 H 0.28673 0.31826 0.96637 0.0
H3371 H 0.2729 0.30408 0.98241 0.0
C3372 C 0.30241 0.32783 0.92782 0.0
C3373 C 0.31596 0.32487 0.92326 0.0
C3374 C 0.2963 0.3202 0.93866 0.0
C3375 C 0.30352 0.30936 0.94527 0.0
C3376 C 0.3171 0.30642 0.94077 0.0
C3377 C 0.32324 0.31408 0.92991 0.0
C3378 C 0.29013 0.27819 0.96603 0.0
C3379 C 0.2808 0.28438 0.97531 0.0
C3380 C 0.29792 0.28632 0.95668 0.0
C3381 C 0.29658 0.30085 0.95636 0.0
C3382 C 0.28783 0.30708 0.96615 0.0
C3383 C 0.28005 0.29895 0.97551 0.0
H3384 H 0.59573 0.69735 0.20523 0.0
H3385 H 0.6205 0.73434 0.21302 0.0
H3386 H 0.57646 0.7072 0.21827 0.0
H3387 H 0.60144 0.74409 0.22612 0.0
H3388 H 0.56193 0.76428 0.23863 0.0
H3389 H 0.57885 0.75365 0.22333 0.0
H3390 H 0.56924 0.71344 0.24137 0.0
H3391 H 0.55204 0.72413 0.25644 0.0
C3392 C 0.5971 0.70753 0.20981 0.0
C3393 C 0.60965 0.71508 0.20798 0.0
C3394 C 0.58605 0.7132 0.21728 0.0
C3395 C 0.58728 0.72654 0.22315 0.0
C3396 C 0.59991 0.73396 0.22146 0.0
C3397 C 0.6109 0.72834 0.21397 0.0
C3398 C 0.56329 0.75314 0.23916 0.0
C3399 C 0.55569 0.74506 0.24878 0.0
C3400 C 0.57308 0.74704 0.23048 0.0
C3401 C 0.57565 0.73269 0.23126 0.0
C3402 C 0.56751 0.72449 0.24039 0.0
C3403 C 0.55762 0.73061 0.24903 0.0
H3404 H 0.31254 0.60234 0.1977 0.0
H3405 H 0.33633 0.60817 0.23563 0.0
H3406 H 0.29942 0.58336 0.20874 0.0
H3407 H 0.32334 0.58925 0.24656 0.0
H3408 H 0.30554 0.54832 0.26031 0.0
H3409 H 0.31957 0.56429 0.24624 0.0
H3410 H 0.28211 0.58005 0.227 0.0
H3411 H 0.26811 0.56372 0.24073 0.0
C3412 C 0.31497 0.5996 0.20838 0.0
C3413 C 0.32555 0.6068 0.21574 0.0
C3414 C 0.30746 0.5887 0.2147 0.0
C3415 C 0.31037 0.5847 0.22852 0.0
C3416 C 0.32101 0.59182 0.23581 0.0
C3417 C 0.32848 0.60271 0.22952 0.0
C3418 C 0.30031 0.5549 0.2528 0.0
C3419 C 0.28568 0.55477 0.25171 0.0
C3420 C 0.30835 0.56421 0.24487 0.0
C3421 C 0.30197 0.57362 0.23563 0.0
C3422 C 0.28739 0.57294 0.23397 0.0
C3423 C 0.27935 0.56364 0.24192 0.0
H3424 H 0.43282 0.30685 0.18952 0.0
H3425 H 0.41857 0.32756 0.22646 0.0
H3426 H 0.45182 0.29663 0.20291 0.0
H3427 H 0.43769 0.31746 0.23978 0.0
H3428 H 0.47907 0.30417 0.25846 0.0
H3429 H 0.46339 0.31691 0.2429 0.0
H3430 H 0.45336 0.27881 0.22125 0.0
H3431 H 0.46914 0.2662 0.23663 0.0
C3432 C 0.43373 0.30925 0.20049 0.0
C3433 C 0.42403 0.31794 0.20692 0.0
C3434 C 0.44466 0.30341 0.20816 0.0
C3435 C 0.44625 0.30616 0.22244 0.0
C3436 C 0.43688 0.31526 0.22876 0.0
C3437 C 0.4259 0.32105 0.22111 0.0
C3438 C 0.47378 0.29861 0.25014 0.0
C3439 C 0.47532 0.28418 0.24876 0.0
C3440 C 0.46467 0.30586 0.24135 0.0
C3441 C 0.45703 0.29887 0.23089 0.0
C3442 C 0.45914 0.28456 0.2291 0.0
C3443 C 0.46814 0.27731 0.23796 0.0
H3444 H 0.70947 0.40751 0.2382 0.0
H3445 H 0.70169 0.43247 0.20156 0.0
H3446 H 0.72274 0.42658 0.24848 0.0
H3447 H 0.71487 0.45178 0.21197 0.0
H3448 H 0.75358 0.47621 0.22955 0.0
H3449 H 0.73806 0.45916 0.21844 0.0
H3450 H 0.72033 0.4489 0.2585 0.0
H3451 H 0.73612 0.46565 0.26956 0.0
C3452 C 0.71045 0.41716 0.2324 0.0
C3453 C 0.70444 0.41847 0.21908 0.0
C3454 C 0.71803 0.42815 0.23833 0.0
C3455 C 0.71978 0.44084 0.23115 0.0
C3456 C 0.71384 0.44214 0.21777 0.0
C3457 C 0.70629 0.43108 0.21179 0.0
C3458 C 0.74613 0.47052 0.23591 0.0
C3459 C 0.74611 0.4722 0.25043 0.0
C3460 C 0.73724 0.46072 0.22955 0.0
C3461 C 0.72808 0.45244 0.23758 0.0
C3462 C 0.7275 0.45479 0.25202 0.0
C3463 C 0.73645 0.46448 0.25836 0.0
H3464 H 0.60145 0.33263 0.81616 0.0
H3465 H 0.60727 0.29399 0.8384 0.0
H3466 H 0.58256 0.32188 0.80263 0.0
H3467 H 0.58844 0.28332 0.82498 0.0
H3468 H 0.54763 0.2697 0.80647 0.0
H3469 H 0.56341 0.28342 0.82113 0.0
H3470 H 0.5796 0.30431 0.78462 0.0
H3471 H 0.56347 0.29093 0.77002 0.0
C3472 C 0.59873 0.32185 0.81816 0.0
C3473 C 0.6059 0.3142 0.82841 0.0
C3474 C 0.58788 0.31569 0.81042 0.0
C3475 C 0.58391 0.30175 0.81275 0.0
C3476 C 0.59099 0.29416 0.82309 0.0
C3477 C 0.60183 0.3003 0.8308 0.0
C3478 C 0.55427 0.27749 0.8016 0.0
C3479 C 0.55433 0.27916 0.78705 0.0
C3480 C 0.56347 0.28523 0.80999 0.0
C3481 C 0.57293 0.29483 0.80405 0.0
C3482 C 0.57244 0.29705 0.78957 0.0
C3483 C 0.56325 0.2893 0.78118 0.0
H3484 H 0.73286 0.60771 0.83888 0.0
H3485 H 0.69533 0.60314 0.81408 0.0
H3486 H 0.74358 0.58915 0.8259 0.0
H3487 H 0.70615 0.5845 0.80099 0.0
H3488 H 0.73808 0.56511 0.77039 0.0
H3489 H 0.72466 0.58132 0.78417 0.0
H3490 H 0.74266 0.56438 0.82183 0.0
H3491 H 0.75646 0.54854 0.80802 0.0
C3492 C 0.72679 0.60261 0.83079 0.0
C3493 C 0.71318 0.60694 0.82759 0.0
C3494 C 0.73296 0.59192 0.82334 0.0
C3495 C 0.72572 0.58523 0.81243 0.0
C3496 C 0.71208 0.5895 0.80924 0.0
C3497 C 0.70589 0.60021 0.81673 0.0
C3498 C 0.73907 0.56476 0.78162 0.0
C3499 C 0.74844 0.55558 0.78807 0.0
C3500 C 0.73129 0.57399 0.78954 0.0
C3501 C 0.73268 0.57429 0.80412 0.0
C3502 C 0.7415 0.56461 0.81061 0.0
C3503 C 0.74928 0.55537 0.80269 0.0
H3504 H 0.43112 0.70376 0.83442 0.0
H3505 H 0.40737 0.70852 0.79639 0.0
H3506 H 0.45054 0.71684 0.82404 0.0
H3507 H 0.42657 0.72163 0.78611 0.0
H3508 H 0.46644 0.73418 0.76581 0.0
H3509 H 0.44952 0.7189 0.77727 0.0
H3510 H 0.45758 0.73981 0.81625 0.0
H3511 H 0.47477 0.75489 0.80476 0.0
C3512 C 0.43 0.70768 0.82389 0.0
C3513 C 0.41772 0.70499 0.81621 0.0
C3514 C 0.44114 0.71517 0.81793 0.0
C3515 C 0.44024 0.72018 0.80415 0.0
C3516 C 0.42785 0.71763 0.79659 0.0
C3517 C 0.41678 0.71014 0.80252 0.0
C3518 C 0.46475 0.73535 0.77688 0.0
C3519 C 0.47188 0.74577 0.78436 0.0
C3520 C 0.45496 0.72667 0.78344 0.0
C3521 C 0.45194 0.72827 0.79766 0.0
C3522 C 0.45965 0.73821 0.80532 0.0
C3523 C 0.46954 0.74685 0.79875 0.0
H3524 H 0.342 0.43691 0.81934 0.0
H3525 H 0.30599 0.40959 0.81646 0.0
H3526 H 0.32845 0.45581 0.80929 0.0
H3527 H 0.2925 0.42837 0.80634 0.0
H3528 H 0.26787 0.46647 0.79708 0.0
H3529 H 0.28183 0.45022 0.81065 0.0
H3530 H 0.31838 0.4626 0.78735 0.0
H3531 H 0.30442 0.47901 0.77397 0.0
C3532 C 0.3312 0.43492 0.81655 0.0
C3533 C 0.32511 0.42169 0.8187 0.0
C3534 C 0.32342 0.44577 0.81078 0.0
C3535 C 0.30935 0.44367 0.80698 0.0
C3536 C 0.30321 0.4305 0.80937 0.0
C3537 C 0.31097 0.41968 0.81516 0.0
C3538 C 0.27894 0.46586 0.79502 0.0
C3539 C 0.28502 0.47399 0.7844 0.0
C3540 C 0.28693 0.45647 0.80273 0.0
C3541 C 0.30122 0.4549 0.79998 0.0
C3542 C 0.30745 0.46358 0.78986 0.0
C3543 C 0.29944 0.47303 0.78219 0.0
H3544 H 0.72155 0.61197 0.2067 0.0
H3545 H 0.68446 0.59642 0.22718 0.0
H3546 H 0.73477 0.59274 0.21645 0.0
H3547 H 0.69776 0.5773 0.23706 0.0
H3548 H 0.73154 0.55896 0.26695 0.0
H3549 H 0.71615 0.575 0.25478 0.0
H3550 H 0.73774 0.56727 0.21635 0.0
H3551 H 0.75331 0.55135 0.22865 0.0
C3552 C 0.71614 0.60434 0.21309 0.0
C3553 C 0.70193 0.60586 0.21622 0.0
C3554 C 0.72374 0.59329 0.21869 0.0
C3555 C 0.71735 0.58349 0.2276 0.0
C3556 C 0.70306 0.58478 0.23041 0.0
C3557 C 0.69545 0.59578 0.22477 0.0
C3558 C 0.73285 0.56053 0.25586 0.0
C3559 C 0.74366 0.55392 0.24877 0.0
C3560 C 0.72399 0.56967 0.24886 0.0
C3561 C 0.72577 0.57252 0.2346 0.0
C3562 C 0.73619 0.56544 0.22737 0.0
C3563 C 0.745 0.55619 0.23437 0.0
H3564 H 0.70049 0.43373 0.83074 0.0
H3565 H 0.70808 0.40864 0.79454 0.0
H3566 H 0.71406 0.45281 0.8204 0.0
H3567 H 0.72174 0.4275 0.78432 0.0
H3568 H 0.73612 0.46652 0.7633 0.0
H3569 H 0.71992 0.44997 0.77406 0.0
H3570 H 0.73752 0.45953 0.81448 0.0
H3571 H 0.75347 0.47633 0.80368 0.0
C3572 C 0.70513 0.43226 0.82062 0.0
C3573 C 0.70313 0.41968 0.81344 0.0
C3574 C 0.71291 0.4432 0.81468 0.0
C3575 C 0.71893 0.44179 0.80145 0.0
C3576 C 0.71699 0.42914 0.79436 0.0
C3577 C 0.70918 0.41827 0.80025 0.0
C3578 C 0.73635 0.46522 0.77451 0.0
C3579 C 0.74609 0.47268 0.78263 0.0
C3580 C 0.72715 0.45566 0.78068 0.0
C3581 C 0.72754 0.4532 0.79514 0.0
C3582 C 0.73682 0.4612 0.80334 0.0
C3583 C 0.74597 0.47086 0.79716 0.0
H3584 H 0.61599 0.70643 0.7958 0.0
H3585 H 0.59341 0.70069 0.83418 0.0
H3586 H 0.59675 0.7196 0.78618 0.0
H3587 H 0.57394 0.71385 0.82446 0.0
H3588 H 0.55083 0.75293 0.80637 0.0
H3589 H 0.56735 0.73704 0.81735 0.0
H3590 H 0.57345 0.71708 0.77773 0.0
H3591 H 0.55729 0.73323 0.7668 0.0
C3592 C 0.60682 0.70783 0.80214 0.0
C3593 C 0.60623 0.7024 0.81574 0.0
C3594 C 0.59572 0.71536 0.79659 0.0
C3595 C 0.58365 0.71766 0.80445 0.0
C3596 C 0.58309 0.71235 0.81812 0.0
C3597 C 0.59426 0.70482 0.82371 0.0
C3598 C 0.55542 0.74487 0.80014 0.0
C3599 C 0.55283 0.74432 0.78574 0.0
C3600 C 0.56494 0.73579 0.8064 0.0
C3601 C 0.57199 0.72594 0.79838 0.0
C3602 C 0.56853 0.72477 0.78417 0.0
C3603 C 0.55915 0.7339 0.77792 0.0
H3604 H 0.29048 0.61896 0.82477 0.0
H3605 H 0.32897 0.59659 0.82923 0.0
H3606 H 0.28045 0.59987 0.81144 0.0
H3607 H 0.31885 0.57728 0.81595 0.0
H3608 H 0.30001 0.5539 0.77736 0.0
H3609 H 0.31122 0.57082 0.79285 0.0
H3610 H 0.27195 0.57661 0.8137 0.0
H3611 H 0.26078 0.55999 0.79798 0.0
C3612 C 0.29676 0.60987 0.82305 0.0
C3613 C 0.31051 0.6093 0.82816 0.0
C3614 C 0.29098 0.59886 0.81543 0.0
C3615 C 0.29875 0.5869 0.81272 0.0
C3616 C 0.31257 0.58635 0.81773 0.0
C3617 C 0.31839 0.59743 0.82534 0.0
C3618 C 0.29388 0.55856 0.78548 0.0
C3619 C 0.2795 0.55569 0.78641 0.0
C3620 C 0.30029 0.56829 0.79435 0.0
C3621 C 0.29245 0.5753 0.8044 0.0
C3622 C 0.27825 0.57172 0.80586 0.0
C3623 C 0.27185 0.5621 0.79694 0.0
H3624 H 0.43732 0.31674 0.84212 0.0
H3625 H 0.40994 0.31455 0.80629 0.0
H3626 H 0.45585 0.30618 0.82869 0.0
H3627 H 0.42839 0.30396 0.79291 0.0
H3628 H 0.46644 0.29358 0.76849 0.0
H3629 H 0.45069 0.30763 0.78221 0.0
H3630 H 0.46145 0.28394 0.81898 0.0
H3631 H 0.47731 0.27004 0.80526 0.0
C3632 C 0.43524 0.314 0.83138 0.0
C3633 C 0.42209 0.31648 0.82532 0.0
C3634 C 0.44588 0.30794 0.82368 0.0
C3635 C 0.44366 0.30417 0.8097 0.0
C3636 C 0.4306 0.30692 0.80356 0.0
C3637 C 0.41998 0.31301 0.81126 0.0
C3638 C 0.46557 0.29151 0.77955 0.0
C3639 C 0.47308 0.28064 0.78576 0.0
C3640 C 0.45648 0.29951 0.78741 0.0
C3641 C 0.4546 0.29681 0.80169 0.0
C3642 C 0.46268 0.28641 0.80804 0.0
C3643 C 0.47183 0.27844 0.80018 0.0
H3644 H 0.34389 0.43895 0.21343 0.0
H3645 H 0.3079 0.41161 0.21628 0.0
H3646 H 0.33049 0.45771 0.22355 0.0
H3647 H 0.29457 0.43025 0.22644 0.0
H3648 H 0.27002 0.46758 0.23675 0.0
H3649 H 0.28383 0.45218 0.22241 0.0
H3650 H 0.32085 0.46399 0.24565 0.0
H3651 H 0.30702 0.47957 0.25977 0.0
C3652 C 0.33312 0.43693 0.21621 0.0
C3653 C 0.32699 0.42373 0.21405 0.0
C3654 C 0.32543 0.44771 0.22201 0.0
C3655 C 0.31142 0.44556 0.22583 0.0
C3656 C 0.30524 0.43242 0.22339 0.0
C3657 C 0.3129 0.42168 0.21757 0.0
C3658 C 0.28117 0.46709 0.23858 0.0
C3659 C 0.28742 0.47474 0.24943 0.0
C3660 C 0.28908 0.45817 0.23044 0.0
C3661 C 0.30344 0.45661 0.23301 0.0
C3662 C 0.30985 0.46497 0.24329 0.0
C3663 C 0.30193 0.47395 0.25138 0.0
H3664 H 0.61366 0.32456 0.22447 0.0
H3665 H 0.59836 0.3025 0.18828 0.0
H3666 H 0.59454 0.31482 0.23814 0.0
H3667 H 0.57935 0.29261 0.20205 0.0
H3668 H 0.5613 0.26365 0.23696 0.0
H3669 H 0.57732 0.27554 0.22109 0.0
H3670 H 0.56894 0.31454 0.24117 0.0
H3671 H 0.55306 0.30254 0.25722 0.0
C3672 C 0.60611 0.31782 0.21935 0.0
C3673 C 0.60766 0.31427 0.20526 0.0
C3674 C 0.59512 0.31222 0.22721 0.0
C3675 C 0.58542 0.30289 0.22121 0.0
C3676 C 0.58675 0.29961 0.20705 0.0
C3677 C 0.5977 0.30525 0.19917 0.0
C3678 C 0.56273 0.27479 0.23785 0.0
C3679 C 0.55595 0.28215 0.24837 0.0
C3680 C 0.57186 0.28163 0.22871 0.0
C3681 C 0.5745 0.29598 0.22992 0.0
C3682 C 0.56726 0.30344 0.24007 0.0
C3683 C 0.55803 0.29661 0.24915 0.0
H3684 H 0.42728 0.7279 0.18728 0.0
H3685 H 0.41499 0.70238 0.22238 0.0
H3686 H 0.44647 0.73773 0.20101 0.0
H3687 H 0.43428 0.71207 0.236 0.0
H3688 H 0.47627 0.72437 0.25409 0.0
H3689 H 0.45994 0.71314 0.23791 0.0
H3690 H 0.449 0.75329 0.22112 0.0
H3691 H 0.46554 0.76446 0.2371 0.0
C3692 C 0.42863 0.72439 0.19792 0.0
C3693 C 0.41949 0.71438 0.20372 0.0
C3694 C 0.43968 0.73 0.20577 0.0
C3695 C 0.44192 0.72569 0.2196 0.0
C3696 C 0.43299 0.71546 0.22531 0.0
C3697 C 0.42191 0.7099 0.21748 0.0
C3698 C 0.47064 0.73076 0.2467 0.0
C3699 C 0.47218 0.74531 0.24689 0.0
C3700 C 0.46115 0.72434 0.23755 0.0
C3701 C 0.45306 0.73232 0.22831 0.0
C3702 C 0.45512 0.74682 0.22804 0.0
C3703 C 0.46453 0.75323 0.23724 0.0
loop_
_geom_bond_atom_site_label_1
_geom_bond_atom_site_label_2
_geom_bond_distance
_geom_bond_site_symmetry_2
_ccdc_geom_bond_type
C0 C1 1.264 . S
C0 C5 1.479 . S
C0 C10 1.465 . S
C1 C0 1.264 . S
C1 C3 1.339 . S
C1 H28 0.931 . S
C2 C3 1.395 . S
C2 C4 1.320 . S
C3 C1 1.339 . S
C3 C2 1.395 . S
C3 H29 0.929 . S
C4 C2 1.320 . S
C4 C5 1.405 . S
C4 H30 0.930 . S
C5 C0 1.479 . S
C5 C4 1.405 . S
C5 H31 0.931 . S
U6 O7 2.454 . S
U6 O8 2.458 . S
U6 C9 2.984 . S
U6 C10 2.847 . S
U6 C23 2.882 . S
U6 O24 2.441 . S
U6 O25 2.420 . S
U6 O26 2.455 . S
U6 O27 2.449 . S
O7 U6 2.454 . S
O7 C9 1.353 . S
O8 U6 2.458 . S
O8 C9 1.286 . S
C9 U6 2.984 . S
C9 O7 1.353 . S
C9 O8 1.286 . S
C9 C11 1.363 . S
C10 C0 1.465 . S
C10 U6 2.847 . S
C10 O24 1.249 . S
C10 O25 1.202 . S
C11 C9 1.363 . S
C11 C13 1.408 . S
C11 C16 1.342 . S
C12 C13 1.310 . S
C12 C15 1.461 . S
C12 H32 0.932 . S
C13 C11 1.408 . S
C13 C12 1.310 . S
C13 H33 0.930 . S
C14 C15 1.474 . S
C14 C16 1.285 . S
C14 H34 0.929 . S
C15 C12 1.461 . S
C15 C14 1.474 . S
C16 C11 1.342 . S
C16 C14 1.285 . S
C16 H35 0.930 . S
C17 C20 1.424 . S
C17 C22 1.245 . S
C17 C23 1.428 . S
C18 C21 1.260 . S
C18 C22 1.477 . S
C18 H36 0.932 . S
C19 C20 1.384 . S
C19 C21 1.479 . S
C19 H37 0.929 . S
C20 C17 1.424 . S
C20 C19 1.384 . S
C20 H38 0.928 . S
C21 C18 1.260 . S
C21 C19 1.479 . S
C22 C17 1.245 . S
C22 C18 1.477 . S
C22 H39 0.932 . S
C23 U6 2.882 . S
C23 C17 1.428 . S
C23 O26 1.301 . S
C23 O27 1.282 . S
O24 U6 2.441 . S
O24 C10 1.249 . S
O25 U6 2.420 . S
O25 C10 1.202 . S
O26 U6 2.455 . S
O26 C23 1.301 . S
O27 U6 2.449 . S
O27 C23 1.282 . S
H28 C1 0.931 . S
H29 C3 0.929 . S
H30 C4 0.930 . S
H31 C5 0.931 . S
H32 C12 0.932 . S
H33 C13 0.930 . S
H34 C14 0.929 . S
H35 C16 0.930 . S
H36 C18 0.932 . S
H37 C19 0.929 . S
H38 C20 0.928 . S
H39 C22 0.932 . S
C40 C41 1.264 . S
C40 C45 1.479 . S
C40 C50 1.465 . S
C41 C40 1.264 . S
C41 C43 1.339 . S
C41 H68 0.931 . S
C42 C43 1.395 . S
C42 C44 1.320 . S
C43 C41 1.339 . S
C43 C42 1.395 . S
C43 H69 0.929 . S
C44 C42 1.320 . S
C44 C45 1.405 . S
C44 H70 0.930 . S
C45 C40 1.479 . S
C45 C44 1.405 . S
C45 H71 0.931 . S
U46 O47 2.454 . S
U46 O48 2.458 . S
U46 C49 2.984 . S
U46 C50 2.847 . S
U46 C63 2.882 . S
U46 O64 2.441 . S
U46 O65 2.420 . S
U46 O66 2.455 . S
U46 O67 2.449 . S
O47 U46 2.454 . S
O47 C49 1.353 . S
O48 U46 2.458 . S
O48 C49 1.286 . S
C49 U46 2.984 . S
C49 O47 1.353 . S
C49 O48 1.286 . S
C49 C51 1.363 . S
C50 C40 1.465 . S
C50 U46 2.847 . S
C50 O64 1.249 . S
C50 O65 1.202 . S
C51 C49 1.363 . S
C51 C53 1.408 . S
C51 C56 1.342 . S
C52 C53 1.310 . S
C52 C55 1.461 . S
C52 H72 0.932 . S
C53 C51 1.408 . S
C53 C52 1.310 . S
C53 H73 0.930 . S
C54 C55 1.474 . S
C54 C56 1.285 . S
C54 H74 0.929 . S
C55 C52 1.461 . S
C55 C54 1.474 . S
C56 C51 1.342 . S
C56 C54 1.285 . S
C56 H75 0.930 . S
C57 C60 1.424 . S
C57 C62 1.245 . S
C57 C63 1.428 . S
C58 C61 1.260 . S
C58 C62 1.477 . S
C58 H76 0.932 . S
C59 C60 1.384 . S
C59 C61 1.479 . S
C59 H77 0.929 . S
C60 C57 1.424 . S
C60 C59 1.384 . S
C60 H78 0.928 . S
C61 C58 1.260 . S
C61 C59 1.479 . S
C62 C57 1.245 . S
C62 C58 1.477 . S
C62 H79 0.932 . S
C63 U46 2.882 . S
C63 C57 1.428 . S
C63 O66 1.301 . S
C63 O67 1.282 . S
O64 U46 2.441 . S
O64 C50 1.249 . S
O65 U46 2.420 . S
O65 C50 1.202 . S
O66 U46 2.455 . S
O66 C63 1.301 . S
O67 U46 2.449 . S
O67 C63 1.282 . S
H68 C41 0.931 . S
H69 C43 0.929 . S
H70 C44 0.930 . S
H71 C45 0.931 . S
H72 C52 0.932 . S
H73 C53 0.930 . S
H74 C54 0.929 . S
H75 C56 0.930 . S
H76 C58 0.932 . S
H77 C59 0.929 . S
H78 C60 0.928 . S
H79 C62 0.932 . S
C80 C81 1.264 . S
C80 C85 1.479 . S
C80 C90 1.465 . S
C81 C80 1.264 . S
C81 C83 1.339 . S
C81 H108 0.931 . S
C82 C83 1.395 . S
C82 C84 1.320 . S
C83 C81 1.339 . S
C83 C82 1.395 . S
C83 H109 0.929 . S
C84 C82 1.320 . S
C84 C85 1.405 . S
C84 H110 0.930 . S
C85 C80 1.479 . S
C85 C84 1.405 . S
C85 H111 0.931 . S
U86 O87 2.454 . S
U86 O88 2.458 . S
U86 C89 2.984 . S
U86 C90 2.847 . S
U86 C103 2.882 . S
U86 O104 2.441 . S
U86 O105 2.420 . S
U86 O106 2.455 . S
U86 O107 2.449 . S
O87 U86 2.454 . S
O87 C89 1.353 . S
O88 U86 2.458 . S
O88 C89 1.286 . S
C89 U86 2.984 . S
C89 O87 1.353 . S
C89 O88 1.286 . S
C89 C91 1.363 . S
C90 C80 1.465 . S
C90 U86 2.847 . S
C90 O104 1.249 . S
C90 O105 1.202 . S
C91 C89 1.363 . S
C91 C93 1.408 . S
C91 C96 1.342 . S
C92 C93 1.310 . S
C92 C95 1.461 . S
C92 H112 0.932 . S
C93 C91 1.408 . S
C93 C92 1.310 . S
C93 H113 0.930 . S
C94 C95 1.474 . S
C94 C96 1.285 . S
C94 H114 0.929 . S
C95 C92 1.461 . S
C95 C94 1.474 . S
C96 C91 1.342 . S
C96 C94 1.285 . S
C96 H115 0.930 . S
C97 C100 1.424 . S
C97 C102 1.245 . S
C97 C103 1.428 . S
C98 C101 1.260 . S
C98 C102 1.477 . S
C98 H116 0.932 . S
C99 C100 1.384 . S
C99 C101 1.479 . S
C99 H117 0.929 . S
C100 C97 1.424 . S
C100 C99 1.384 . S
C100 H118 0.928 . S
C101 C98 1.260 . S
C101 C99 1.479 . S
C102 C97 1.245 . S
C102 C98 1.477 . S
C102 H119 0.932 . S
C103 U86 2.882 . S
C103 C97 1.428 . S
C103 O106 1.301 . S
C103 O107 1.282 . S
O104 U86 2.441 . S
O104 C90 1.249 . S
O105 U86 2.420 . S
O105 C90 1.202 . S
O106 U86 2.455 . S
O106 C103 1.301 . S
O107 U86 2.449 . S
O107 C103 1.282 . S
H108 C81 0.931 . S
H109 C83 0.929 . S
H110 C84 0.930 . S
H111 C85 0.931 . S
H112 C92 0.932 . S
H113 C93 0.930 . S
H114 C94 0.929 . S
H115 C96 0.930 . S
H116 C98 0.932 . S
H117 C99 0.929 . S
H118 C100 0.928 . S
H119 C102 0.932 . S
C120 C121 1.264 . S
C120 C125 1.479 . S
C120 C130 1.465 . S
C121 C120 1.264 . S
C121 C123 1.339 . S
C121 H148 0.931 . S
C122 C123 1.395 . S
C122 C124 1.320 . S
C123 C121 1.339 . S
C123 C122 1.395 . S
C123 H149 0.929 . S
C124 C122 1.320 . S
C124 C125 1.405 . S
C124 H150 0.930 . S
C125 C120 1.479 . S
C125 C124 1.405 . S
C125 H151 0.931 . S
U126 O127 2.454 . S
U126 O128 2.458 . S
U126 C129 2.984 . S
U126 C130 2.847 . S
U126 C143 2.882 . S
U126 O144 2.441 . S
U126 O145 2.420 . S
U126 O146 2.455 . S
U126 O147 2.449 . S
O127 U126 2.454 . S
O127 C129 1.353 . S
O128 U126 2.458 . S
O128 C129 1.286 . S
C129 U126 2.984 . S
C129 O127 1.353 . S
C129 O128 1.286 . S
C129 C131 1.363 . S
C130 C120 1.465 . S
C130 U126 2.847 . S
C130 O144 1.249 . S
C130 O145 1.202 . S
C131 C129 1.363 . S
C131 C133 1.408 . S
C131 C136 1.342 . S
C132 C133 1.310 . S
C132 C135 1.461 . S
C132 H152 0.932 . S
C133 C131 1.408 . S
C133 C132 1.310 . S
C133 H153 0.930 . S
C134 C135 1.474 . S
C134 C136 1.285 . S
C134 H154 0.929 . S
C135 C132 1.461 . S
C135 C134 1.474 . S
C136 C131 1.342 . S
C136 C134 1.285 . S
C136 H155 0.930 . S
C137 C140 1.424 . S
C137 C142 1.245 . S
C137 C143 1.428 . S
C138 C141 1.260 . S
C138 C142 1.477 . S
C138 H156 0.932 . S
C139 C140 1.384 . S
C139 C141 1.479 . S
C139 H157 0.929 . S
C140 C137 1.424 . S
C140 C139 1.384 . S
C140 H158 0.928 . S
C141 C138 1.260 . S
C141 C139 1.479 . S
C142 C137 1.245 . S
C142 C138 1.477 . S
C142 H159 0.932 . S
C143 U126 2.882 . S
C143 C137 1.428 . S
C143 O146 1.301 . S
C143 O147 1.282 . S
O144 U126 2.441 . S
O144 C130 1.249 . S
O145 U126 2.420 . S
O145 C130 1.202 . S
O146 U126 2.455 . S
O146 C143 1.301 . S
O147 U126 2.449 . S
O147 C143 1.282 . S
H148 C121 0.931 . S
H149 C123 0.929 . S
H150 C124 0.930 . S
H151 C125 0.931 . S
H152 C132 0.932 . S
H153 C133 0.930 . S
H154 C134 0.929 . S
H155 C136 0.930 . S
H156 C138 0.932 . S
H157 C139 0.929 . S
H158 C140 0.928 . S
H159 C142 0.932 . S
C160 C161 1.264 . S
C160 C165 1.479 . S
C160 C170 1.465 . S
C161 C160 1.264 . S
C161 C163 1.339 . S
C161 H188 0.931 . S
C162 C163 1.395 . S
C162 C164 1.320 . S
C163 C161 1.339 . S
C163 C162 1.395 . S
C163 H189 0.929 . S
C164 C162 1.320 . S
C164 C165 1.405 . S
C164 H190 0.930 . S
C165 C160 1.479 . S
C165 C164 1.405 . S
C165 H191 0.931 . S
U166 O167 2.454 . S
U166 O168 2.458 . S
U166 C169 2.984 . S
U166 C170 2.847 . S
U166 C183 2.882 . S
U166 O184 2.441 . S
U166 O185 2.420 . S
U166 O186 2.455 . S
U166 O187 2.449 . S
O167 U166 2.454 . S
O167 C169 1.353 . S
O168 U166 2.458 . S
O168 C169 1.286 . S
C169 U166 2.984 . S
C169 O167 1.353 . S
C169 O168 1.286 . S
C169 C171 1.363 . S
C170 C160 1.465 . S
C170 U166 2.847 . S
C170 O184 1.249 . S
C170 O185 1.202 . S
C171 C169 1.363 . S
C171 C173 1.408 . S
C171 C176 1.342 . S
C172 C173 1.310 . S
C172 C175 1.461 . S
C172 H192 0.932 . S
C173 C171 1.408 . S
C173 C172 1.310 . S
C173 H193 0.930 . S
C174 C175 1.474 . S
C174 C176 1.285 . S
C174 H194 0.929 . S
C175 C172 1.461 . S
C175 C174 1.474 . S
C176 C171 1.342 . S
C176 C174 1.285 . S
C176 H195 0.930 . S
C177 C180 1.424 . S
C177 C182 1.245 . S
C177 C183 1.428 . S
C178 C181 1.260 . S
C178 C182 1.477 . S
C178 H196 0.932 . S
C179 C180 1.384 . S
C179 C181 1.479 . S
C179 H197 0.929 . S
C180 C177 1.424 . S
C180 C179 1.384 . S
C180 H198 0.928 . S
C181 C178 1.260 . S
C181 C179 1.479 . S
C182 C177 1.245 . S
C182 C178 1.477 . S
C182 H199 0.932 . S
C183 U166 2.882 . S
C183 C177 1.428 . S
C183 O186 1.301 . S
C183 O187 1.282 . S
O184 U166 2.441 . S
O184 C170 1.249 . S
O185 U166 2.420 . S
O185 C170 1.202 . S
O186 U166 2.455 . S
O186 C183 1.301 . S
O187 U166 2.449 . S
O187 C183 1.282 . S
H188 C161 0.931 . S
H189 C163 0.929 . S
H190 C164 0.930 . S
H191 C165 0.931 . S
H192 C172 0.932 . S
H193 C173 0.930 . S
H194 C174 0.929 . S
H195 C176 0.930 . S
H196 C178 0.932 . S
H197 C179 0.929 . S
H198 C180 0.928 . S
H199 C182 0.932 . S
C200 C201 1.264 . S
C200 C205 1.479 . S
C200 C210 1.465 . S
C201 C200 1.264 . S
C201 C203 1.339 . S
C201 H228 0.931 . S
C202 C203 1.395 . S
C202 C204 1.320 . S
C203 C201 1.339 . S
C203 C202 1.395 . S
C203 H229 0.929 . S
C204 C202 1.320 . S
C204 C205 1.405 . S
C204 H230 0.930 . S
C205 C200 1.479 . S
C205 C204 1.405 . S
C205 H231 0.931 . S
U206 O207 2.454 . S
U206 O208 2.458 . S
U206 C209 2.984 . S
U206 C210 2.847 . S
U206 C223 2.882 . S
U206 O224 2.441 . S
U206 O225 2.420 . S
U206 O226 2.455 . S
U206 O227 2.449 . S
O207 U206 2.454 . S
O207 C209 1.353 . S
O208 U206 2.458 . S
O208 C209 1.286 . S
C209 U206 2.984 . S
C209 O207 1.353 . S
C209 O208 1.286 . S
C209 C211 1.363 . S
C210 C200 1.465 . S
C210 U206 2.847 . S
C210 O224 1.249 . S
C210 O225 1.202 . S
C211 C209 1.363 . S
C211 C213 1.408 . S
C211 C216 1.342 . S
C212 C213 1.310 . S
C212 C215 1.461 . S
C212 H232 0.932 . S
C213 C211 1.408 . S
C213 C212 1.310 . S
C213 H233 0.930 . S
C214 C215 1.474 . S
C214 C216 1.285 . S
C214 H234 0.929 . S
C215 C212 1.461 . S
C215 C214 1.474 . S
C216 C211 1.342 . S
C216 C214 1.285 . S
C216 H235 0.930 . S
C217 C220 1.424 . S
C217 C222 1.245 . S
C217 C223 1.428 . S
C218 C221 1.260 . S
C218 C222 1.477 . S
C218 H236 0.932 . S
C219 C220 1.384 . S
C219 C221 1.479 . S
C219 H237 0.929 . S
C220 C217 1.424 . S
C220 C219 1.384 . S
C220 H238 0.928 . S
C221 C218 1.260 . S
C221 C219 1.479 . S
C222 C217 1.245 . S
C222 C218 1.477 . S
C222 H239 0.932 . S
C223 U206 2.882 . S
C223 C217 1.428 . S
C223 O226 1.301 . S
C223 O227 1.282 . S
O224 U206 2.441 . S
O224 C210 1.249 . S
O225 U206 2.420 . S
O225 C210 1.202 . S
O226 U206 2.455 . S
O226 C223 1.301 . S
O227 U206 2.449 . S
O227 C223 1.282 . S
H228 C201 0.931 . S
H229 C203 0.929 . S
H230 C204 0.930 . S
H231 C205 0.931 . S
H232 C212 0.932 . S
H233 C213 0.930 . S
H234 C214 0.929 . S
H235 C216 0.930 . S
H236 C218 0.932 . S
H237 C219 0.929 . S
H238 C220 0.928 . S
H239 C222 0.932 . S
C240 C241 1.264 . S
C240 C245 1.479 . S
C240 C250 1.465 . S
C241 C240 1.264 . S
C241 C243 1.339 . S
C241 H268 0.931 . S
C242 C243 1.395 . S
C242 C244 1.320 . S
C243 C241 1.339 . S
C243 C242 1.395 . S
C243 H269 0.929 . S
C244 C242 1.320 . S
C244 C245 1.405 . S
C244 H270 0.930 . S
C245 C240 1.479 . S
C245 C244 1.405 . S
C245 H271 0.931 . S
U246 O247 2.454 . S
U246 O248 2.458 . S
U246 C249 2.984 . S
U246 C250 2.847 . S
U246 C263 2.882 . S
U246 O264 2.441 . S
U246 O265 2.420 . S
U246 O266 2.455 . S
U246 O267 2.449 . S
O247 U246 2.454 . S
O247 C249 1.353 . S
O248 U246 2.458 . S
O248 C249 1.286 . S
C249 U246 2.984 . S
C249 O247 1.353 . S
C249 O248 1.286 . S
C249 C251 1.363 . S
C250 C240 1.465 . S
C250 U246 2.847 . S
C250 O264 1.249 . S
C250 O265 1.202 . S
C251 C249 1.363 . S
C251 C253 1.408 . S
C251 C256 1.342 . S
C252 C253 1.310 . S
C252 C255 1.461 . S
C252 H272 0.932 . S
C253 C251 1.408 . S
C253 C252 1.310 . S
C253 H273 0.930 . S
C254 C255 1.474 . S
C254 C256 1.285 . S
C254 H274 0.929 . S
C255 C252 1.461 . S
C255 C254 1.474 . S
C256 C251 1.342 . S
C256 C254 1.285 . S
C256 H275 0.930 . S
C257 C260 1.424 . S
C257 C262 1.245 . S
C257 C263 1.428 . S
C258 C261 1.260 . S
C258 C262 1.477 . S
C258 H276 0.932 . S
C259 C260 1.384 . S
C259 C261 1.479 . S
C259 H277 0.929 . S
C260 C257 1.424 . S
C260 C259 1.384 . S
C260 H278 0.928 . S
C261 C258 1.260 . S
C261 C259 1.479 . S
C262 C257 1.245 . S
C262 C258 1.477 . S
C262 H279 0.932 . S
C263 U246 2.882 . S
C263 C257 1.428 . S
C263 O266 1.301 . S
C263 O267 1.282 . S
O264 U246 2.441 . S
O264 C250 1.249 . S
O265 U246 2.420 . S
O265 C250 1.202 . S
O266 U246 2.455 . S
O266 C263 1.301 . S
O267 U246 2.449 . S
O267 C263 1.282 . S
H268 C241 0.931 . S
H269 C243 0.929 . S
H270 C244 0.930 . S
H271 C245 0.931 . S
H272 C252 0.932 . S
H273 C253 0.930 . S
H274 C254 0.929 . S
H275 C256 0.930 . S
H276 C258 0.932 . S
H277 C259 0.929 . S
H278 C260 0.928 . S
H279 C262 0.932 . S
C280 C281 1.264 . S
C280 C285 1.479 . S
C280 C290 1.465 . S
C281 C280 1.264 . S
C281 C283 1.339 . S
C281 H308 0.931 . S
C282 C283 1.395 . S
C282 C284 1.320 . S
C283 C281 1.339 . S
C283 C282 1.395 . S
C283 H309 0.929 . S
C284 C282 1.320 . S
C284 C285 1.405 . S
C284 H310 0.930 . S
C285 C280 1.479 . S
C285 C284 1.405 . S
C285 H311 0.931 . S
U286 O287 2.454 . S
U286 O288 2.458 . S
U286 C289 2.984 . S
U286 C290 2.847 . S
U286 C303 2.882 . S
U286 O304 2.441 . S
U286 O305 2.420 . S
U286 O306 2.455 . S
U286 O307 2.449 . S
O287 U286 2.454 . S
O287 C289 1.353 . S
O288 U286 2.458 . S
O288 C289 1.286 . S
C289 U286 2.984 . S
C289 O287 1.353 . S
C289 O288 1.286 . S
C289 C291 1.363 . S
C290 C280 1.465 . S
C290 U286 2.847 . S
C290 O304 1.249 . S
C290 O305 1.202 . S
C291 C289 1.363 . S
C291 C293 1.408 . S
C291 C296 1.342 . S
C292 C293 1.310 . S
C292 C295 1.461 . S
C292 H312 0.932 . S
C293 C291 1.408 . S
C293 C292 1.310 . S
C293 H313 0.930 . S
C294 C295 1.474 . S
C294 C296 1.285 . S
C294 H314 0.929 . S
C295 C292 1.461 . S
C295 C294 1.474 . S
C296 C291 1.342 . S
C296 C294 1.285 . S
C296 H315 0.930 . S
C297 C300 1.424 . S
C297 C302 1.245 . S
C297 C303 1.428 . S
C298 C301 1.260 . S
C298 C302 1.477 . S
C298 H316 0.932 . S
C299 C300 1.384 . S
C299 C301 1.479 . S
C299 H317 0.929 . S
C300 C297 1.424 . S
C300 C299 1.384 . S
C300 H318 0.928 . S
C301 C298 1.260 . S
C301 C299 1.479 . S
C302 C297 1.245 . S
C302 C298 1.477 . S
C302 H319 0.932 . S
C303 U286 2.882 . S
C303 C297 1.428 . S
C303 O306 1.301 . S
C303 O307 1.282 . S
O304 U286 2.441 . S
O304 C290 1.249 . S
O305 U286 2.420 . S
O305 C290 1.202 . S
O306 U286 2.455 . S
O306 C303 1.301 . S
O307 U286 2.449 . S
O307 C303 1.282 . S
H308 C281 0.931 . S
H309 C283 0.929 . S
H310 C284 0.930 . S
H311 C285 0.931 . S
H312 C292 0.932 . S
H313 C293 0.930 . S
H314 C294 0.929 . S
H315 C296 0.930 . S
H316 C298 0.932 . S
H317 C299 0.929 . S
H318 C300 0.928 . S
H319 C302 0.932 . S
C320 C321 1.264 . S
C320 C325 1.479 . S
C320 C330 1.465 . S
C321 C320 1.264 . S
C321 C323 1.339 . S
C321 H348 0.931 . S
C322 C323 1.395 . S
C322 C324 1.320 . S
C323 C321 1.339 . S
C323 C322 1.395 . S
C323 H349 0.929 . S
C324 C322 1.320 . S
C324 C325 1.405 . S
C324 H350 0.930 . S
C325 C320 1.479 . S
C325 C324 1.405 . S
C325 H351 0.931 . S
U326 O327 2.454 . S
U326 O328 2.458 . S
U326 C329 2.984 . S
U326 C330 2.847 . S
U326 C343 2.882 . S
U326 O344 2.441 . S
U326 O345 2.420 . S
U326 O346 2.455 . S
U326 O347 2.449 . S
O327 U326 2.454 . S
O327 C329 1.353 . S
O328 U326 2.458 . S
O328 C329 1.286 . S
C329 U326 2.984 . S
C329 O327 1.353 . S
C329 O328 1.286 . S
C329 C331 1.363 . S
C330 C320 1.465 . S
C330 U326 2.847 . S
C330 O344 1.249 . S
C330 O345 1.202 . S
C331 C329 1.363 . S
C331 C333 1.408 . S
C331 C336 1.342 . S
C332 C333 1.310 . S
C332 C335 1.461 . S
C332 H352 0.932 . S
C333 C331 1.408 . S
C333 C332 1.310 . S
C333 H353 0.930 . S
C334 C335 1.474 . S
C334 C336 1.285 . S
C334 H354 0.929 . S
C335 C332 1.461 . S
C335 C334 1.474 . S
C336 C331 1.342 . S
C336 C334 1.285 . S
C336 H355 0.930 . S
C337 C340 1.424 . S
C337 C342 1.245 . S
C337 C343 1.428 . S
C338 C341 1.260 . S
C338 C342 1.477 . S
C338 H356 0.932 . S
C339 C340 1.384 . S
C339 C341 1.479 . S
C339 H357 0.929 . S
C340 C337 1.424 . S
C340 C339 1.384 . S
C340 H358 0.928 . S
C341 C338 1.260 . S
C341 C339 1.479 . S
C342 C337 1.245 . S
C342 C338 1.477 . S
C342 H359 0.932 . S
C343 U326 2.882 . S
C343 C337 1.428 . S
C343 O346 1.301 . S
C343 O347 1.282 . S
O344 U326 2.441 . S
O344 C330 1.249 . S
O345 U326 2.420 . S
O345 C330 1.202 . S
O346 U326 2.455 . S
O346 C343 1.301 . S
O347 U326 2.449 . S
O347 C343 1.282 . S
H348 C321 0.931 . S
H349 C323 0.929 . S
H350 C324 0.930 . S
H351 C325 0.931 . S
H352 C332 0.932 . S
H353 C333 0.930 . S
H354 C334 0.929 . S
H355 C336 0.930 . S
H356 C338 0.932 . S
H357 C339 0.929 . S
H358 C340 0.928 . S
H359 C342 0.932 . S
C360 C361 1.264 . S
C360 C365 1.479 . S
C360 C370 1.465 . S
C361 C360 1.264 . S
C361 C363 1.339 . S
C361 H388 0.931 . S
C362 C363 1.395 . S
C362 C364 1.320 . S
C363 C361 1.339 . S
C363 C362 1.395 . S
C363 H389 0.929 . S
C364 C362 1.320 . S
C364 C365 1.405 . S
C364 H390 0.930 . S
C365 C360 1.479 . S
C365 C364 1.405 . S
C365 H391 0.931 . S
U366 O367 2.454 . S
U366 O368 2.458 . S
U366 C369 2.984 . S
U366 C370 2.847 . S
U366 C383 2.882 . S
U366 O384 2.441 . S
U366 O385 2.420 . S
U366 O386 2.455 . S
U366 O387 2.449 . S
O367 U366 2.454 . S
O367 C369 1.353 . S
O368 U366 2.458 . S
O368 C369 1.286 . S
C369 U366 2.984 . S
C369 O367 1.353 . S
C369 O368 1.286 . S
C369 C371 1.363 . S
C370 C360 1.465 . S
C370 U366 2.847 . S
C370 O384 1.249 . S
C370 O385 1.202 . S
C371 C369 1.363 . S
C371 C373 1.408 . S
C371 C376 1.342 . S
C372 C373 1.310 . S
C372 C375 1.461 . S
C372 H392 0.932 . S
C373 C371 1.408 . S
C373 C372 1.310 . S
C373 H393 0.930 . S
C374 C375 1.474 . S
C374 C376 1.285 . S
C374 H394 0.929 . S
C375 C372 1.461 . S
C375 C374 1.474 . S
C376 C371 1.342 . S
C376 C374 1.285 . S
C376 H395 0.930 . S
C377 C380 1.424 . S
C377 C382 1.245 . S
C377 C383 1.428 . S
C378 C381 1.260 . S
C378 C382 1.477 . S
C378 H396 0.932 . S
C379 C380 1.384 . S
C379 C381 1.479 . S
C379 H397 0.929 . S
C380 C377 1.424 . S
C380 C379 1.384 . S
C380 H398 0.928 . S
C381 C378 1.260 . S
C381 C379 1.479 . S
C382 C377 1.245 . S
C382 C378 1.477 . S
C382 H399 0.932 . S
C383 U366 2.882 . S
C383 C377 1.428 . S
C383 O386 1.301 . S
C383 O387 1.282 . S
O384 U366 2.441 . S
O384 C370 1.249 . S
O385 U366 2.420 . S
O385 C370 1.202 . S
O386 U366 2.455 . S
O386 C383 1.301 . S
O387 U366 2.449 . S
O387 C383 1.282 . S
H388 C361 0.931 . S
H389 C363 0.929 . S
H390 C364 0.930 . S
H391 C365 0.931 . S
H392 C372 0.932 . S
H393 C373 0.930 . S
H394 C374 0.929 . S
H395 C376 0.930 . S
H396 C378 0.932 . S
H397 C379 0.929 . S
H398 C380 0.928 . S
H399 C382 0.932 . S
C400 C401 1.264 . S
C400 C405 1.479 . S
C400 C410 1.465 . S
C401 C400 1.264 . S
C401 C403 1.339 . S
C401 H428 0.931 . S
C402 C403 1.395 . S
C402 C404 1.320 . S
C403 C401 1.339 . S
C403 C402 1.395 . S
C403 H429 0.929 . S
C404 C402 1.320 . S
C404 C405 1.405 . S
C404 H430 0.930 . S
C405 C400 1.479 . S
C405 C404 1.405 . S
C405 H431 0.931 . S
U406 O407 2.454 . S
U406 O408 2.458 . S
U406 C409 2.984 . S
U406 C410 2.847 . S
U406 C423 2.882 . S
U406 O424 2.441 . S
U406 O425 2.420 . S
U406 O426 2.455 . S
U406 O427 2.449 . S
O407 U406 2.454 . S
O407 C409 1.353 . S
O408 U406 2.458 . S
O408 C409 1.286 . S
C409 U406 2.984 . S
C409 O407 1.353 . S
C409 O408 1.286 . S
C409 C411 1.363 . S
C410 C400 1.465 . S
C410 U406 2.847 . S
C410 O424 1.249 . S
C410 O425 1.202 . S
C411 C409 1.363 . S
C411 C413 1.408 . S
C411 C416 1.342 . S
C412 C413 1.310 . S
C412 C415 1.461 . S
C412 H432 0.932 . S
C413 C411 1.408 . S
C413 C412 1.310 . S
C413 H433 0.930 . S
C414 C415 1.474 . S
C414 C416 1.285 . S
C414 H434 0.929 . S
C415 C412 1.461 . S
C415 C414 1.474 . S
C416 C411 1.342 . S
C416 C414 1.285 . S
C416 H435 0.930 . S
C417 C420 1.424 . S
C417 C422 1.245 . S
C417 C423 1.428 . S
C418 C421 1.260 . S
C418 C422 1.477 . S
C418 H436 0.932 . S
C419 C420 1.384 . S
C419 C421 1.479 . S
C419 H437 0.929 . S
C420 C417 1.424 . S
C420 C419 1.384 . S
C420 H438 0.928 . S
C421 C418 1.260 . S
C421 C419 1.479 . S
C422 C417 1.245 . S
C422 C418 1.477 . S
C422 H439 0.932 . S
C423 U406 2.882 . S
C423 C417 1.428 . S
C423 O426 1.301 . S
C423 O427 1.282 . S
O424 U406 2.441 . S
O424 C410 1.249 . S
O425 U406 2.420 . S
O425 C410 1.202 . S
O426 U406 2.455 . S
O426 C423 1.301 . S
O427 U406 2.449 . S
O427 C423 1.282 . S
H428 C401 0.931 . S
H429 C403 0.929 . S
H430 C404 0.930 . S
H431 C405 0.931 . S
H432 C412 0.932 . S
H433 C413 0.930 . S
H434 C414 0.929 . S
H435 C416 0.930 . S
H436 C418 0.932 . S
H437 C419 0.929 . S
H438 C420 0.928 . S
H439 C422 0.932 . S
C440 C441 1.264 . S
C440 C445 1.479 . S
C440 C450 1.465 . S
C441 C440 1.264 . S
C441 C443 1.339 . S
C441 H468 0.931 . S
C442 C443 1.395 . S
C442 C444 1.320 . S
C443 C441 1.339 . S
C443 C442 1.395 . S
C443 H469 0.929 . S
C444 C442 1.320 . S
C444 C445 1.405 . S
C444 H470 0.930 . S
C445 C440 1.479 . S
C445 C444 1.405 . S
C445 H471 0.931 . S
U446 O447 2.454 . S
U446 O448 2.458 . S
U446 C449 2.984 . S
U446 C450 2.847 . S
U446 C463 2.882 . S
U446 O464 2.441 . S
U446 O465 2.420 . S
U446 O466 2.455 . S
U446 O467 2.449 . S
O447 U446 2.454 . S
O447 C449 1.353 . S
O448 U446 2.458 . S
O448 C449 1.286 . S
C449 U446 2.984 . S
C449 O447 1.353 . S
C449 O448 1.286 . S
C449 C451 1.363 . S
C450 C440 1.465 . S
C450 U446 2.847 . S
C450 O464 1.249 . S
C450 O465 1.202 . S
C451 C449 1.363 . S
C451 C453 1.408 . S
C451 C456 1.342 . S
C452 C453 1.310 . S
C452 C455 1.461 . S
C452 H472 0.932 . S
C453 C451 1.408 . S
C453 C452 1.310 . S
C453 H473 0.930 . S
C454 C455 1.474 . S
C454 C456 1.285 . S
C454 H474 0.929 . S
C455 C452 1.461 . S
C455 C454 1.474 . S
C456 C451 1.342 . S
C456 C454 1.285 . S
C456 H475 0.930 . S
C457 C460 1.424 . S
C457 C462 1.245 . S
C457 C463 1.428 . S
C458 C461 1.260 . S
C458 C462 1.477 . S
C458 H476 0.932 . S
C459 C460 1.384 . S
C459 C461 1.479 . S
C459 H477 0.929 . S
C460 C457 1.424 . S
C460 C459 1.384 . S
C460 H478 0.928 . S
C461 C458 1.260 . S
C461 C459 1.479 . S
C462 C457 1.245 . S
C462 C458 1.477 . S
C462 H479 0.932 . S
C463 U446 2.882 . S
C463 C457 1.428 . S
C463 O466 1.301 . S
C463 O467 1.282 . S
O464 U446 2.441 . S
O464 C450 1.249 . S
O465 U446 2.420 . S
O465 C450 1.202 . S
O466 U446 2.455 . S
O466 C463 1.301 . S
O467 U446 2.449 . S
O467 C463 1.282 . S
H468 C441 0.931 . S
H469 C443 0.929 . S
H470 C444 0.930 . S
H471 C445 0.931 . S
H472 C452 0.932 . S
H473 C453 0.930 . S
H474 C454 0.929 . S
H475 C456 0.930 . S
H476 C458 0.932 . S
H477 C459 0.929 . S
H478 C460 0.928 . S
H479 C462 0.932 . S
C480 C481 1.264 . S
C480 C485 1.479 . S
C480 C490 1.465 . S
C481 C480 1.264 . S
C481 C483 1.339 . S
C481 H508 0.931 . S
C482 C483 1.395 . S
C482 C484 1.320 . S
C483 C481 1.339 . S
C483 C482 1.395 . S
C483 H509 0.929 . S
C484 C482 1.320 . S
C484 C485 1.405 . S
C484 H510 0.930 . S
C485 C480 1.479 . S
C485 C484 1.405 . S
C485 H511 0.931 . S
U486 O487 2.454 . S
U486 O488 2.458 . S
U486 C489 2.984 . S
U486 C490 2.847 . S
U486 C503 2.882 . S
U486 O504 2.441 . S
U486 O505 2.420 . S
U486 O506 2.455 . S
U486 O507 2.449 . S
O487 U486 2.454 . S
O487 C489 1.353 . S
O488 U486 2.458 . S
O488 C489 1.286 . S
C489 U486 2.984 . S
C489 O487 1.353 . S
C489 O488 1.286 . S
C489 C491 1.363 . S
C490 C480 1.465 . S
C490 U486 2.847 . S
C490 O504 1.249 . S
C490 O505 1.202 . S
C491 C489 1.363 . S
C491 C493 1.408 . S
C491 C496 1.342 . S
C492 C493 1.310 . S
C492 C495 1.461 . S
C492 H512 0.932 . S
C493 C491 1.408 . S
C493 C492 1.310 . S
C493 H513 0.930 . S
C494 C495 1.474 . S
C494 C496 1.285 . S
C494 H514 0.929 . S
C495 C492 1.461 . S
C495 C494 1.474 . S
C496 C491 1.342 . S
C496 C494 1.285 . S
C496 H515 0.930 . S
C497 C500 1.424 . S
C497 C502 1.245 . S
C497 C503 1.428 . S
C498 C501 1.260 . S
C498 C502 1.477 . S
C498 H516 0.932 . S
C499 C500 1.384 . S
C499 C501 1.479 . S
C499 H517 0.929 . S
C500 C497 1.424 . S
C500 C499 1.384 . S
C500 H518 0.928 . S
C501 C498 1.260 . S
C501 C499 1.479 . S
C502 C497 1.245 . S
C502 C498 1.477 . S
C502 H519 0.932 . S
C503 U486 2.882 . S
C503 C497 1.428 . S
C503 O506 1.301 . S
C503 O507 1.282 . S
O504 U486 2.441 . S
O504 C490 1.249 . S
O505 U486 2.420 . S
O505 C490 1.202 . S
O506 U486 2.455 . S
O506 C503 1.301 . S
O507 U486 2.449 . S
O507 C503 1.282 . S
H508 C481 0.931 . S
H509 C483 0.929 . S
H510 C484 0.930 . S
H511 C485 0.931 . S
H512 C492 0.932 . S
H513 C493 0.930 . S
H514 C494 0.929 . S
H515 C496 0.930 . S
H516 C498 0.932 . S
H517 C499 0.929 . S
H518 C500 0.928 . S
H519 C502 0.932 . S
C520 C521 1.264 . S
C520 C525 1.479 . S
C520 C530 1.465 . S
C521 C520 1.264 . S
C521 C523 1.339 . S
C521 H548 0.931 . S
C522 C523 1.395 . S
C522 C524 1.320 . S
C523 C521 1.339 . S
C523 C522 1.395 . S
C523 H549 0.929 . S
C524 C522 1.320 . S
C524 C525 1.405 . S
C524 H550 0.930 . S
C525 C520 1.479 . S
C525 C524 1.405 . S
C525 H551 0.931 . S
U526 O527 2.454 . S
U526 O528 2.458 . S
U526 C529 2.984 . S
U526 C530 2.847 . S
U526 C543 2.882 . S
U526 O544 2.441 . S
U526 O545 2.420 . S
U526 O546 2.455 . S
U526 O547 2.449 . S
O527 U526 2.454 . S
O527 C529 1.353 . S
O528 U526 2.458 . S
O528 C529 1.286 . S
C529 U526 2.984 . S
C529 O527 1.353 . S
C529 O528 1.286 . S
C529 C531 1.363 . S
C530 C520 1.465 . S
C530 U526 2.847 . S
C530 O544 1.249 . S
C530 O545 1.202 . S
C531 C529 1.363 . S
C531 C533 1.408 . S
C531 C536 1.342 . S
C532 C533 1.310 . S
C532 C535 1.461 . S
C532 H552 0.932 . S
C533 C531 1.408 . S
C533 C532 1.310 . S
C533 H553 0.930 . S
C534 C535 1.474 . S
C534 C536 1.285 . S
C534 H554 0.929 . S
C535 C532 1.461 . S
C535 C534 1.474 . S
C536 C531 1.342 . S
C536 C534 1.285 . S
C536 H555 0.930 . S
C537 C540 1.424 . S
C537 C542 1.245 . S
C537 C543 1.428 . S
C538 C541 1.260 . S
C538 C542 1.477 . S
C538 H556 0.932 . S
C539 C540 1.384 . S
C539 C541 1.479 . S
C539 H557 0.929 . S
C540 C537 1.424 . S
C540 C539 1.384 . S
C540 H558 0.928 . S
C541 C538 1.260 . S
C541 C539 1.479 . S
C542 C537 1.245 . S
C542 C538 1.477 . S
C542 H559 0.932 . S
C543 U526 2.882 . S
C543 C537 1.428 . S
C543 O546 1.301 . S
C543 O547 1.282 . S
O544 U526 2.441 . S
O544 C530 1.249 . S
O545 U526 2.420 . S
O545 C530 1.202 . S
O546 U526 2.455 . S
O546 C543 1.301 . S
O547 U526 2.449 . S
O547 C543 1.282 . S
H548 C521 0.931 . S
H549 C523 0.929 . S
H550 C524 0.930 . S
H551 C525 0.931 . S
H552 C532 0.932 . S
H553 C533 0.930 . S
H554 C534 0.929 . S
H555 C536 0.930 . S
H556 C538 0.932 . S
H557 C539 0.929 . S
H558 C540 0.928 . S
H559 C542 0.932 . S
C560 C561 1.264 . S
C560 C565 1.479 . S
C560 C570 1.465 . S
C561 C560 1.264 . S
C561 C563 1.339 . S
C561 H588 0.931 . S
C562 C563 1.395 . S
C562 C564 1.320 . S
C563 C561 1.339 . S
C563 C562 1.395 . S
C563 H589 0.929 . S
C564 C562 1.320 . S
C564 C565 1.405 . S
C564 H590 0.930 . S
C565 C560 1.479 . S
C565 C564 1.405 . S
C565 H591 0.931 . S
U566 O567 2.454 . S
U566 O568 2.458 . S
U566 C569 2.984 . S
U566 C570 2.847 . S
U566 C583 2.882 . S
U566 O584 2.441 . S
U566 O585 2.420 . S
U566 O586 2.455 . S
U566 O587 2.449 . S
O567 U566 2.454 . S
O567 C569 1.353 . S
O568 U566 2.458 . S
O568 C569 1.286 . S
C569 U566 2.984 . S
C569 O567 1.353 . S
C569 O568 1.286 . S
C569 C571 1.363 . S
C570 C560 1.465 . S
C570 U566 2.847 . S
C570 O584 1.249 . S
C570 O585 1.202 . S
C571 C569 1.363 . S
C571 C573 1.408 . S
C571 C576 1.342 . S
C572 C573 1.310 . S
C572 C575 1.461 . S
C572 H592 0.932 . S
C573 C571 1.408 . S
C573 C572 1.310 . S
C573 H593 0.930 . S
C574 C575 1.474 . S
C574 C576 1.285 . S
C574 H594 0.929 . S
C575 C572 1.461 . S
C575 C574 1.474 . S
C576 C571 1.342 . S
C576 C574 1.285 . S
C576 H595 0.930 . S
C577 C580 1.424 . S
C577 C582 1.245 . S
C577 C583 1.428 . S
C578 C581 1.260 . S
C578 C582 1.477 . S
C578 H596 0.932 . S
C579 C580 1.384 . S
C579 C581 1.479 . S
C579 H597 0.929 . S
C580 C577 1.424 . S
C580 C579 1.384 . S
C580 H598 0.928 . S
C581 C578 1.260 . S
C581 C579 1.479 . S
C582 C577 1.245 . S
C582 C578 1.477 . S
C582 H599 0.932 . S
C583 U566 2.882 . S
C583 C577 1.428 . S
C583 O586 1.301 . S
C583 O587 1.282 . S
O584 U566 2.441 . S
O584 C570 1.249 . S
O585 U566 2.420 . S
O585 C570 1.202 . S
O586 U566 2.455 . S
O586 C583 1.301 . S
O587 U566 2.449 . S
O587 C583 1.282 . S
H588 C561 0.931 . S
H589 C563 0.929 . S
H590 C564 0.930 . S
H591 C565 0.931 . S
H592 C572 0.932 . S
H593 C573 0.930 . S
H594 C574 0.929 . S
H595 C576 0.930 . S
H596 C578 0.932 . S
H597 C579 0.929 . S
H598 C580 0.928 . S
H599 C582 0.932 . S
C600 C601 1.264 . S
C600 C605 1.479 . S
C600 C610 1.465 . S
C601 C600 1.264 . S
C601 C603 1.339 . S
C601 H628 0.931 . S
C602 C603 1.395 . S
C602 C604 1.320 . S
C603 C601 1.339 . S
C603 C602 1.395 . S
C603 H629 0.929 . S
C604 C602 1.320 . S
C604 C605 1.405 . S
C604 H630 0.930 . S
C605 C600 1.479 . S
C605 C604 1.405 . S
C605 H631 0.931 . S
U606 O607 2.454 . S
U606 O608 2.458 . S
U606 C609 2.984 . S
U606 C610 2.847 . S
U606 C623 2.882 . S
U606 O624 2.441 . S
U606 O625 2.420 . S
U606 O626 2.455 . S
U606 O627 2.449 . S
O607 U606 2.454 . S
O607 C609 1.353 . S
O608 U606 2.458 . S
O608 C609 1.286 . S
C609 U606 2.984 . S
C609 O607 1.353 . S
C609 O608 1.286 . S
C609 C611 1.363 . S
C610 C600 1.465 . S
C610 U606 2.847 . S
C610 O624 1.249 . S
C610 O625 1.202 . S
C611 C609 1.363 . S
C611 C613 1.408 . S
C611 C616 1.342 . S
C612 C613 1.310 . S
C612 C615 1.461 . S
C612 H632 0.932 . S
C613 C611 1.408 . S
C613 C612 1.310 . S
C613 H633 0.930 . S
C614 C615 1.474 . S
C614 C616 1.285 . S
C614 H634 0.929 . S
C615 C612 1.461 . S
C615 C614 1.474 . S
C616 C611 1.342 . S
C616 C614 1.285 . S
C616 H635 0.930 . S
C617 C620 1.424 . S
C617 C622 1.245 . S
C617 C623 1.428 . S
C618 C621 1.260 . S
C618 C622 1.477 . S
C618 H636 0.932 . S
C619 C620 1.384 . S
C619 C621 1.479 . S
C619 H637 0.929 . S
C620 C617 1.424 . S
C620 C619 1.384 . S
C620 H638 0.928 . S
C621 C618 1.260 . S
C621 C619 1.479 . S
C622 C617 1.245 . S
C622 C618 1.477 . S
C622 H639 0.932 . S
C623 U606 2.882 . S
C623 C617 1.428 . S
C623 O626 1.301 . S
C623 O627 1.282 . S
O624 U606 2.441 . S
O624 C610 1.249 . S
O625 U606 2.420 . S
O625 C610 1.202 . S
O626 U606 2.455 . S
O626 C623 1.301 . S
O627 U606 2.449 . S
O627 C623 1.282 . S
H628 C601 0.931 . S
H629 C603 0.929 . S
H630 C604 0.930 . S
H631 C605 0.931 . S
H632 C612 0.932 . S
H633 C613 0.930 . S
H634 C614 0.929 . S
H635 C616 0.930 . S
H636 C618 0.932 . S
H637 C619 0.929 . S
H638 C620 0.928 . S
H639 C622 0.932 . S
C640 C641 1.264 . S
C640 C645 1.479 . S
C640 C650 1.465 . S
C641 C640 1.264 . S
C641 C643 1.339 . S
C641 H668 0.931 . S
C642 C643 1.395 . S
C642 C644 1.320 . S
C643 C641 1.339 . S
C643 C642 1.395 . S
C643 H669 0.929 . S
C644 C642 1.320 . S
C644 C645 1.405 . S
C644 H670 0.930 . S
C645 C640 1.479 . S
C645 C644 1.405 . S
C645 H671 0.931 . S
U646 O647 2.454 . S
U646 O648 2.458 . S
U646 C649 2.984 . S
U646 C650 2.847 . S
U646 C663 2.882 . S
U646 O664 2.441 . S
U646 O665 2.420 . S
U646 O666 2.455 . S
U646 O667 2.449 . S
O647 U646 2.454 . S
O647 C649 1.353 . S
O648 U646 2.458 . S
O648 C649 1.286 . S
C649 U646 2.984 . S
C649 O647 1.353 . S
C649 O648 1.286 . S
C649 C651 1.363 . S
C650 C640 1.465 . S
C650 U646 2.847 . S
C650 O664 1.249 . S
C650 O665 1.202 . S
C651 C649 1.363 . S
C651 C653 1.408 . S
C651 C656 1.342 . S
C652 C653 1.310 . S
C652 C655 1.461 . S
C652 H672 0.932 . S
C653 C651 1.408 . S
C653 C652 1.310 . S
C653 H673 0.930 . S
C654 C655 1.474 . S
C654 C656 1.285 . S
C654 H674 0.929 . S
C655 C652 1.461 . S
C655 C654 1.474 . S
C656 C651 1.342 . S
C656 C654 1.285 . S
C656 H675 0.930 . S
C657 C660 1.424 . S
C657 C662 1.245 . S
C657 C663 1.428 . S
C658 C661 1.260 . S
C658 C662 1.477 . S
C658 H676 0.932 . S
C659 C660 1.384 . S
C659 C661 1.479 . S
C659 H677 0.929 . S
C660 C657 1.424 . S
C660 C659 1.384 . S
C660 H678 0.928 . S
C661 C658 1.260 . S
C661 C659 1.479 . S
C662 C657 1.245 . S
C662 C658 1.477 . S
C662 H679 0.932 . S
C663 U646 2.882 . S
C663 C657 1.428 . S
C663 O666 1.301 . S
C663 O667 1.282 . S
O664 U646 2.441 . S
O664 C650 1.249 . S
O665 U646 2.420 . S
O665 C650 1.202 . S
O666 U646 2.455 . S
O666 C663 1.301 . S
O667 U646 2.449 . S
O667 C663 1.282 . S
H668 C641 0.931 . S
H669 C643 0.929 . S
H670 C644 0.930 . S
H671 C645 0.931 . S
H672 C652 0.932 . S
H673 C653 0.930 . S
H674 C654 0.929 . S
H675 C656 0.930 . S
H676 C658 0.932 . S
H677 C659 0.929 . S
H678 C660 0.928 . S
H679 C662 0.932 . S
C680 C681 1.264 . S
C680 C685 1.479 . S
C680 C690 1.465 . S
C681 C680 1.264 . S
C681 C683 1.339 . S
C681 H708 0.931 . S
C682 C683 1.395 . S
C682 C684 1.320 . S
C683 C681 1.339 . S
C683 C682 1.395 . S
C683 H709 0.929 . S
C684 C682 1.320 . S
C684 C685 1.405 . S
C684 H710 0.930 . S
C685 C680 1.479 . S
C685 C684 1.405 . S
C685 H711 0.931 . S
U686 O687 2.454 . S
U686 O688 2.458 . S
U686 C689 2.984 . S
U686 C690 2.847 . S
U686 C703 2.882 . S
U686 O704 2.441 . S
U686 O705 2.420 . S
U686 O706 2.455 . S
U686 O707 2.449 . S
O687 U686 2.454 . S
O687 C689 1.353 . S
O688 U686 2.458 . S
O688 C689 1.286 . S
C689 U686 2.984 . S
C689 O687 1.353 . S
C689 O688 1.286 . S
C689 C691 1.363 . S
C690 C680 1.465 . S
C690 U686 2.847 . S
C690 O704 1.249 . S
C690 O705 1.202 . S
C691 C689 1.363 . S
C691 C693 1.408 . S
C691 C696 1.342 . S
C692 C693 1.310 . S
C692 C695 1.461 . S
C692 H712 0.932 . S
C693 C691 1.408 . S
C693 C692 1.310 . S
C693 H713 0.930 . S
C694 C695 1.474 . S
C694 C696 1.285 . S
C694 H714 0.929 . S
C695 C692 1.461 . S
C695 C694 1.474 . S
C696 C691 1.342 . S
C696 C694 1.285 . S
C696 H715 0.930 . S
C697 C700 1.424 . S
C697 C702 1.245 . S
C697 C703 1.428 . S
C698 C701 1.260 . S
C698 C702 1.477 . S
C698 H716 0.932 . S
C699 C700 1.384 . S
C699 C701 1.479 . S
C699 H717 0.929 . S
C700 C697 1.424 . S
C700 C699 1.384 . S
C700 H718 0.928 . S
C701 C698 1.260 . S
C701 C699 1.479 . S
C702 C697 1.245 . S
C702 C698 1.477 . S
C702 H719 0.932 . S
C703 U686 2.882 . S
C703 C697 1.428 . S
C703 O706 1.301 . S
C703 O707 1.282 . S
O704 U686 2.441 . S
O704 C690 1.249 . S
O705 U686 2.420 . S
O705 C690 1.202 . S
O706 U686 2.455 . S
O706 C703 1.301 . S
O707 U686 2.449 . S
O707 C703 1.282 . S
H708 C681 0.931 . S
H709 C683 0.929 . S
H710 C684 0.930 . S
H711 C685 0.931 . S
H712 C692 0.932 . S
H713 C693 0.930 . S
H714 C694 0.929 . S
H715 C696 0.930 . S
H716 C698 0.932 . S
H717 C699 0.929 . S
H718 C700 0.928 . S
H719 C702 0.932 . S
C720 C721 1.264 . S
C720 C725 1.479 . S
C720 C730 1.465 . S
C721 C720 1.264 . S
C721 C723 1.339 . S
C721 H748 0.931 . S
C722 C723 1.395 . S
C722 C724 1.320 . S
C723 C721 1.339 . S
C723 C722 1.395 . S
C723 H749 0.929 . S
C724 C722 1.320 . S
C724 C725 1.405 . S
C724 H750 0.930 . S
C725 C720 1.479 . S
C725 C724 1.405 . S
C725 H751 0.931 . S
U726 O727 2.454 . S
U726 O728 2.458 . S
U726 C729 2.984 . S
U726 C730 2.847 . S
U726 C743 2.882 . S
U726 O744 2.441 . S
U726 O745 2.420 . S
U726 O746 2.455 . S
U726 O747 2.449 . S
O727 U726 2.454 . S
O727 C729 1.353 . S
O728 U726 2.458 . S
O728 C729 1.286 . S
C729 U726 2.984 . S
C729 O727 1.353 . S
C729 O728 1.286 . S
C729 C731 1.363 . S
C730 C720 1.465 . S
C730 U726 2.847 . S
C730 O744 1.249 . S
C730 O745 1.202 . S
C731 C729 1.363 . S
C731 C733 1.408 . S
C731 C736 1.342 . S
C732 C733 1.310 . S
C732 C735 1.461 . S
C732 H752 0.932 . S
C733 C731 1.408 . S
C733 C732 1.310 . S
C733 H753 0.930 . S
C734 C735 1.474 . S
C734 C736 1.285 . S
C734 H754 0.929 . S
C735 C732 1.461 . S
C735 C734 1.474 . S
C736 C731 1.342 . S
C736 C734 1.285 . S
C736 H755 0.930 . S
C737 C740 1.424 . S
C737 C742 1.245 . S
C737 C743 1.428 . S
C738 C741 1.260 . S
C738 C742 1.477 . S
C738 H756 0.932 . S
C739 C740 1.384 . S
C739 C741 1.479 . S
C739 H757 0.929 . S
C740 C737 1.424 . S
C740 C739 1.384 . S
C740 H758 0.928 . S
C741 C738 1.260 . S
C741 C739 1.479 . S
C742 C737 1.245 . S
C742 C738 1.477 . S
C742 H759 0.932 . S
C743 U726 2.882 . S
C743 C737 1.428 . S
C743 O746 1.301 . S
C743 O747 1.282 . S
O744 U726 2.441 . S
O744 C730 1.249 . S
O745 U726 2.420 . S
O745 C730 1.202 . S
O746 U726 2.455 . S
O746 C743 1.301 . S
O747 U726 2.449 . S
O747 C743 1.282 . S
H748 C721 0.931 . S
H749 C723 0.929 . S
H750 C724 0.930 . S
H751 C725 0.931 . S
H752 C732 0.932 . S
H753 C733 0.930 . S
H754 C734 0.929 . S
H755 C736 0.930 . S
H756 C738 0.932 . S
H757 C739 0.929 . S
H758 C740 0.928 . S
H759 C742 0.932 . S
C760 C761 1.264 . S
C760 C765 1.479 . S
C760 C770 1.465 . S
C761 C760 1.264 . S
C761 C763 1.339 . S
C761 H788 0.931 . S
C762 C763 1.395 . S
C762 C764 1.320 . S
C763 C761 1.339 . S
C763 C762 1.395 . S
C763 H789 0.929 . S
C764 C762 1.320 . S
C764 C765 1.405 . S
C764 H790 0.930 . S
C765 C760 1.479 . S
C765 C764 1.405 . S
C765 H791 0.931 . S
U766 O767 2.454 . S
U766 O768 2.458 . S
U766 C769 2.984 . S
U766 C770 2.847 . S
U766 C783 2.882 . S
U766 O784 2.441 . S
U766 O785 2.420 . S
U766 O786 2.455 . S
U766 O787 2.449 . S
O767 U766 2.454 . S
O767 C769 1.353 . S
O768 U766 2.458 . S
O768 C769 1.286 . S
C769 U766 2.984 . S
C769 O767 1.353 . S
C769 O768 1.286 . S
C769 C771 1.363 . S
C770 C760 1.465 . S
C770 U766 2.847 . S
C770 O784 1.249 . S
C770 O785 1.202 . S
C771 C769 1.363 . S
C771 C773 1.408 . S
C771 C776 1.342 . S
C772 C773 1.310 . S
C772 C775 1.461 . S
C772 H792 0.932 . S
C773 C771 1.408 . S
C773 C772 1.310 . S
C773 H793 0.930 . S
C774 C775 1.474 . S
C774 C776 1.285 . S
C774 H794 0.929 . S
C775 C772 1.461 . S
C775 C774 1.474 . S
C776 C771 1.342 . S
C776 C774 1.285 . S
C776 H795 0.930 . S
C777 C780 1.424 . S
C777 C782 1.245 . S
C777 C783 1.428 . S
C778 C781 1.260 . S
C778 C782 1.477 . S
C778 H796 0.932 . S
C779 C780 1.384 . S
C779 C781 1.479 . S
C779 H797 0.929 . S
C780 C777 1.424 . S
C780 C779 1.384 . S
C780 H798 0.928 . S
C781 C778 1.260 . S
C781 C779 1.479 . S
C782 C777 1.245 . S
C782 C778 1.477 . S
C782 H799 0.932 . S
C783 U766 2.882 . S
C783 C777 1.428 . S
C783 O786 1.301 . S
C783 O787 1.282 . S
O784 U766 2.441 . S
O784 C770 1.249 . S
O785 U766 2.420 . S
O785 C770 1.202 . S
O786 U766 2.455 . S
O786 C783 1.301 . S
O787 U766 2.449 . S
O787 C783 1.282 . S
H788 C761 0.931 . S
H789 C763 0.929 . S
H790 C764 0.930 . S
H791 C765 0.931 . S
H792 C772 0.932 . S
H793 C773 0.930 . S
H794 C774 0.929 . S
H795 C776 0.930 . S
H796 C778 0.932 . S
H797 C779 0.929 . S
H798 C780 0.928 . S
H799 C782 0.932 . S
C800 C801 1.264 . S
C800 C805 1.479 . S
C800 C810 1.465 . S
C801 C800 1.264 . S
C801 C803 1.339 . S
C801 H828 0.931 . S
C802 C803 1.395 . S
C802 C804 1.320 . S
C803 C801 1.339 . S
C803 C802 1.395 . S
C803 H829 0.929 . S
C804 C802 1.320 . S
C804 C805 1.405 . S
C804 H830 0.930 . S
C805 C800 1.479 . S
C805 C804 1.405 . S
C805 H831 0.931 . S
U806 O807 2.454 . S
U806 O808 2.458 . S
U806 C809 2.984 . S
U806 C810 2.847 . S
U806 C823 2.882 . S
U806 O824 2.441 . S
U806 O825 2.420 . S
U806 O826 2.455 . S
U806 O827 2.449 . S
O807 U806 2.454 . S
O807 C809 1.353 . S
O808 U806 2.458 . S
O808 C809 1.286 . S
C809 U806 2.984 . S
C809 O807 1.353 . S
C809 O808 1.286 . S
C809 C811 1.363 . S
C810 C800 1.465 . S
C810 U806 2.847 . S
C810 O824 1.249 . S
C810 O825 1.202 . S
C811 C809 1.363 . S
C811 C813 1.408 . S
C811 C816 1.342 . S
C812 C813 1.310 . S
C812 C815 1.461 . S
C812 H832 0.932 . S
C813 C811 1.408 . S
C813 C812 1.310 . S
C813 H833 0.930 . S
C814 C815 1.474 . S
C814 C816 1.285 . S
C814 H834 0.929 . S
C815 C812 1.461 . S
C815 C814 1.474 . S
C816 C811 1.342 . S
C816 C814 1.285 . S
C816 H835 0.930 . S
C817 C820 1.424 . S
C817 C822 1.245 . S
C817 C823 1.428 . S
C818 C821 1.260 . S
C818 C822 1.477 . S
C818 H836 0.932 . S
C819 C820 1.384 . S
C819 C821 1.479 . S
C819 H837 0.929 . S
C820 C817 1.424 . S
C820 C819 1.384 . S
C820 H838 0.928 . S
C821 C818 1.260 . S
C821 C819 1.479 . S
C822 C817 1.245 . S
C822 C818 1.477 . S
C822 H839 0.932 . S
C823 U806 2.882 . S
C823 C817 1.428 . S
C823 O826 1.301 . S
C823 O827 1.282 . S
O824 U806 2.441 . S
O824 C810 1.249 . S
O825 U806 2.420 . S
O825 C810 1.202 . S
O826 U806 2.455 . S
O826 C823 1.301 . S
O827 U806 2.449 . S
O827 C823 1.282 . S
H828 C801 0.931 . S
H829 C803 0.929 . S
H830 C804 0.930 . S
H831 C805 0.931 . S
H832 C812 0.932 . S
H833 C813 0.930 . S
H834 C814 0.929 . S
H835 C816 0.930 . S
H836 C818 0.932 . S
H837 C819 0.929 . S
H838 C820 0.928 . S
H839 C822 0.932 . S
C840 C841 1.264 . S
C840 C845 1.479 . S
C840 C850 1.465 . S
C841 C840 1.264 . S
C841 C843 1.339 . S
C841 H868 0.931 . S
C842 C843 1.395 . S
C842 C844 1.320 . S
C843 C841 1.339 . S
C843 C842 1.395 . S
C843 H869 0.929 . S
C844 C842 1.320 . S
C844 C845 1.405 . S
C844 H870 0.930 . S
C845 C840 1.479 . S
C845 C844 1.405 . S
C845 H871 0.931 . S
U846 O847 2.454 . S
U846 O848 2.458 . S
U846 C849 2.984 . S
U846 C850 2.847 . S
U846 C863 2.882 . S
U846 O864 2.441 . S
U846 O865 2.420 . S
U846 O866 2.455 . S
U846 O867 2.449 . S
O847 U846 2.454 . S
O847 C849 1.353 . S
O848 U846 2.458 . S
O848 C849 1.286 . S
C849 U846 2.984 . S
C849 O847 1.353 . S
C849 O848 1.286 . S
C849 C851 1.363 . S
C850 C840 1.465 . S
C850 U846 2.847 . S
C850 O864 1.249 . S
C850 O865 1.202 . S
C851 C849 1.363 . S
C851 C853 1.408 . S
C851 C856 1.342 . S
C852 C853 1.310 . S
C852 C855 1.461 . S
C852 H872 0.932 . S
C853 C851 1.408 . S
C853 C852 1.310 . S
C853 H873 0.930 . S
C854 C855 1.474 . S
C854 C856 1.285 . S
C854 H874 0.929 . S
C855 C852 1.461 . S
C855 C854 1.474 . S
C856 C851 1.342 . S
C856 C854 1.285 . S
C856 H875 0.930 . S
C857 C860 1.424 . S
C857 C862 1.245 . S
C857 C863 1.428 . S
C858 C861 1.260 . S
C858 C862 1.477 . S
C858 H876 0.932 . S
C859 C860 1.384 . S
C859 C861 1.479 . S
C859 H877 0.929 . S
C860 C857 1.424 . S
C860 C859 1.384 . S
C860 H878 0.928 . S
C861 C858 1.260 . S
C861 C859 1.479 . S
C862 C857 1.245 . S
C862 C858 1.477 . S
C862 H879 0.932 . S
C863 U846 2.882 . S
C863 C857 1.428 . S
C863 O866 1.301 . S
C863 O867 1.282 . S
O864 U846 2.441 . S
O864 C850 1.249 . S
O865 U846 2.420 . S
O865 C850 1.202 . S
O866 U846 2.455 . S
O866 C863 1.301 . S
O867 U846 2.449 . S
O867 C863 1.282 . S
H868 C841 0.931 . S
H869 C843 0.929 . S
H870 C844 0.930 . S
H871 C845 0.931 . S
H872 C852 0.932 . S
H873 C853 0.930 . S
H874 C854 0.929 . S
H875 C856 0.930 . S
H876 C858 0.932 . S
H877 C859 0.929 . S
H878 C860 0.928 . S
H879 C862 0.932 . S
C880 C881 1.264 . S
C880 C885 1.479 . S
C880 C890 1.465 . S
C881 C880 1.264 . S
C881 C883 1.339 . S
C881 H908 0.931 . S
C882 C883 1.395 . S
C882 C884 1.320 . S
C883 C881 1.339 . S
C883 C882 1.395 . S
C883 H909 0.929 . S
C884 C882 1.320 . S
C884 C885 1.405 . S
C884 H910 0.930 . S
C885 C880 1.479 . S
C885 C884 1.405 . S
C885 H911 0.931 . S
U886 O887 2.454 . S
U886 O888 2.458 . S
U886 C889 2.984 . S
U886 C890 2.847 . S
U886 C903 2.882 . S
U886 O904 2.441 . S
U886 O905 2.420 . S
U886 O906 2.455 . S
U886 O907 2.449 . S
O887 U886 2.454 . S
O887 C889 1.353 . S
O888 U886 2.458 . S
O888 C889 1.286 . S
C889 U886 2.984 . S
C889 O887 1.353 . S
C889 O888 1.286 . S
C889 C891 1.363 . S
C890 C880 1.465 . S
C890 U886 2.847 . S
C890 O904 1.249 . S
C890 O905 1.202 . S
C891 C889 1.363 . S
C891 C893 1.408 . S
C891 C896 1.342 . S
C892 C893 1.310 . S
C892 C895 1.461 . S
C892 H912 0.932 . S
C893 C891 1.408 . S
C893 C892 1.310 . S
C893 H913 0.930 . S
C894 C895 1.474 . S
C894 C896 1.285 . S
C894 H914 0.929 . S
C895 C892 1.461 . S
C895 C894 1.474 . S
C896 C891 1.342 . S
C896 C894 1.285 . S
C896 H915 0.930 . S
C897 C900 1.424 . S
C897 C902 1.245 . S
C897 C903 1.428 . S
C898 C901 1.260 . S
C898 C902 1.477 . S
C898 H916 0.932 . S
C899 C900 1.384 . S
C899 C901 1.479 . S
C899 H917 0.929 . S
C900 C897 1.424 . S
C900 C899 1.384 . S
C900 H918 0.928 . S
C901 C898 1.260 . S
C901 C899 1.479 . S
C902 C897 1.245 . S
C902 C898 1.477 . S
C902 H919 0.932 . S
C903 U886 2.882 . S
C903 C897 1.428 . S
C903 O906 1.301 . S
C903 O907 1.282 . S
O904 U886 2.441 . S
O904 C890 1.249 . S
O905 U886 2.420 . S
O905 C890 1.202 . S
O906 U886 2.455 . S
O906 C903 1.301 . S
O907 U886 2.449 . S
O907 C903 1.282 . S
H908 C881 0.931 . S
H909 C883 0.929 . S
H910 C884 0.930 . S
H911 C885 0.931 . S
H912 C892 0.932 . S
H913 C893 0.930 . S
H914 C894 0.929 . S
H915 C896 0.930 . S
H916 C898 0.932 . S
H917 C899 0.929 . S
H918 C900 0.928 . S
H919 C902 0.932 . S
C920 C921 1.264 . S
C920 C925 1.479 . S
C920 C930 1.465 . S
C921 C920 1.264 . S
C921 C923 1.339 . S
C921 H948 0.931 . S
C922 C923 1.395 . S
C922 C924 1.320 . S
C923 C921 1.339 . S
C923 C922 1.395 . S
C923 H949 0.929 . S
C924 C922 1.320 . S
C924 C925 1.405 . S
C924 H950 0.930 . S
C925 C920 1.479 . S
C925 C924 1.405 . S
C925 H951 0.931 . S
U926 O927 2.454 . S
U926 O928 2.458 . S
U926 C929 2.984 . S
U926 C930 2.847 . S
U926 C943 2.882 . S
U926 O944 2.441 . S
U926 O945 2.420 . S
U926 O946 2.455 . S
U926 O947 2.449 . S
O927 U926 2.454 . S
O927 C929 1.353 . S
O928 U926 2.458 . S
O928 C929 1.286 . S
C929 U926 2.984 . S
C929 O927 1.353 . S
C929 O928 1.286 . S
C929 C931 1.363 . S
C930 C920 1.465 . S
C930 U926 2.847 . S
C930 O944 1.249 . S
C930 O945 1.202 . S
C931 C929 1.363 . S
C931 C933 1.408 . S
C931 C936 1.342 . S
C932 C933 1.310 . S
C932 C935 1.461 . S
C932 H952 0.932 . S
C933 C931 1.408 . S
C933 C932 1.310 . S
C933 H953 0.930 . S
C934 C935 1.474 . S
C934 C936 1.285 . S
C934 H954 0.929 . S
C935 C932 1.461 . S
C935 C934 1.474 . S
C936 C931 1.342 . S
C936 C934 1.285 . S
C936 H955 0.930 . S
C937 C940 1.424 . S
C937 C942 1.245 . S
C937 C943 1.428 . S
C938 C941 1.260 . S
C938 C942 1.477 . S
C938 H956 0.932 . S
C939 C940 1.384 . S
C939 C941 1.479 . S
C939 H957 0.929 . S
C940 C937 1.424 . S
C940 C939 1.384 . S
C940 H958 0.928 . S
C941 C938 1.260 . S
C941 C939 1.479 . S
C942 C937 1.245 . S
C942 C938 1.477 . S
C942 H959 0.932 . S
C943 U926 2.882 . S
C943 C937 1.428 . S
C943 O946 1.301 . S
C943 O947 1.282 . S
O944 U926 2.441 . S
O944 C930 1.249 . S
O945 U926 2.420 . S
O945 C930 1.202 . S
O946 U926 2.455 . S
O946 C943 1.301 . S
O947 U926 2.449 . S
O947 C943 1.282 . S
H948 C921 0.931 . S
H949 C923 0.929 . S
H950 C924 0.930 . S
H951 C925 0.931 . S
H952 C932 0.932 . S
H953 C933 0.930 . S
H954 C934 0.929 . S
H955 C936 0.930 . S
H956 C938 0.932 . S
H957 C939 0.929 . S
H958 C940 0.928 . S
H959 C942 0.932 . S
C960 C961 1.264 . S
C960 C965 1.479 . S
C960 C970 1.465 . S
C961 C960 1.264 . S
C961 C963 1.339 . S
C961 H988 0.931 . S
C962 C963 1.395 . S
C962 C964 1.320 . S
C963 C961 1.339 . S
C963 C962 1.395 . S
C963 H989 0.929 . S
C964 C962 1.320 . S
C964 C965 1.405 . S
C964 H990 0.930 . S
C965 C960 1.479 . S
C965 C964 1.405 . S
C965 H991 0.931 . S
U966 O967 2.454 . S
U966 O968 2.458 . S
U966 C969 2.984 . S
U966 C970 2.847 . S
U966 C983 2.882 . S
U966 O984 2.441 . S
U966 O985 2.420 . S
U966 O986 2.455 . S
U966 O987 2.449 . S
O967 U966 2.454 . S
O967 C969 1.353 . S
O968 U966 2.458 . S
O968 C969 1.286 . S
C969 U966 2.984 . S
C969 O967 1.353 . S
C969 O968 1.286 . S
C969 C971 1.363 . S
C970 C960 1.465 . S
C970 U966 2.847 . S
C970 O984 1.249 . S
C970 O985 1.202 . S
C971 C969 1.363 . S
C971 C973 1.408 . S
C971 C976 1.342 . S
C972 C973 1.310 . S
C972 C975 1.461 . S
C972 H992 0.932 . S
C973 C971 1.408 . S
C973 C972 1.310 . S
C973 H993 0.930 . S
C974 C975 1.474 . S
C974 C976 1.285 . S
C974 H994 0.929 . S
C975 C972 1.461 . S
C975 C974 1.474 . S
C976 C971 1.342 . S
C976 C974 1.285 . S
C976 H995 0.930 . S
C977 C980 1.424 . S
C977 C982 1.245 . S
C977 C983 1.428 . S
C978 C981 1.260 . S
C978 C982 1.477 . S
C978 H996 0.932 . S
C979 C980 1.384 . S
C979 C981 1.479 . S
C979 H997 0.929 . S
C980 C977 1.424 . S
C980 C979 1.384 . S
C980 H998 0.928 . S
C981 C978 1.260 . S
C981 C979 1.479 . S
C982 C977 1.245 . S
C982 C978 1.477 . S
C982 H999 0.932 . S
C983 U966 2.882 . S
C983 C977 1.428 . S
C983 O986 1.301 . S
C983 O987 1.282 . S
O984 U966 2.441 . S
O984 C970 1.249 . S
O985 U966 2.420 . S
O985 C970 1.202 . S
O986 U966 2.455 . S
O986 C983 1.301 . S
O987 U966 2.449 . S
O987 C983 1.282 . S
H988 C961 0.931 . S
H989 C963 0.929 . S
H990 C964 0.930 . S
H991 C965 0.931 . S
H992 C972 0.932 . S
H993 C973 0.930 . S
H994 C974 0.929 . S
H995 C976 0.930 . S
H996 C978 0.932 . S
H997 C979 0.929 . S
H998 C980 0.928 . S
H999 C982 0.932 . S
C1000 C1001 1.264 . S
C1000 C1005 1.479 . S
C1000 C1010 1.465 . S
C1001 C1000 1.264 . S
C1001 C1003 1.339 . S
C1001 H1028 0.931 . S
C1002 C1003 1.395 . S
C1002 C1004 1.320 . S
C1003 C1001 1.339 . S
C1003 C1002 1.395 . S
C1003 H1029 0.929 . S
C1004 C1002 1.320 . S
C1004 C1005 1.405 . S
C1004 H1030 0.930 . S
C1005 C1000 1.479 . S
C1005 C1004 1.405 . S
C1005 H1031 0.931 . S
U1006 O1007 2.454 . S
U1006 O1008 2.458 . S
U1006 C1009 2.984 . S
U1006 C1010 2.847 . S
U1006 C1023 2.882 . S
U1006 O1024 2.441 . S
U1006 O1025 2.420 . S
U1006 O1026 2.455 . S
U1006 O1027 2.449 . S
O1007 U1006 2.454 . S
O1007 C1009 1.353 . S
O1008 U1006 2.458 . S
O1008 C1009 1.286 . S
C1009 U1006 2.984 . S
C1009 O1007 1.353 . S
C1009 O1008 1.286 . S
C1009 C1011 1.363 . S
C1010 C1000 1.465 . S
C1010 U1006 2.847 . S
C1010 O1024 1.249 . S
C1010 O1025 1.202 . S
C1011 C1009 1.363 . S
C1011 C1013 1.408 . S
C1011 C1016 1.342 . S
C1012 C1013 1.310 . S
C1012 C1015 1.461 . S
C1012 H1032 0.932 . S
C1013 C1011 1.408 . S
C1013 C1012 1.310 . S
C1013 H1033 0.930 . S
C1014 C1015 1.474 . S
C1014 C1016 1.285 . S
C1014 H1034 0.929 . S
C1015 C1012 1.461 . S
C1015 C1014 1.474 . S
C1016 C1011 1.342 . S
C1016 C1014 1.285 . S
C1016 H1035 0.930 . S
C1017 C1020 1.424 . S
C1017 C1022 1.245 . S
C1017 C1023 1.428 . S
C1018 C1021 1.260 . S
C1018 C1022 1.477 . S
C1018 H1036 0.932 . S
C1019 C1020 1.384 . S
C1019 C1021 1.479 . S
C1019 H1037 0.929 . S
C1020 C1017 1.424 . S
C1020 C1019 1.384 . S
C1020 H1038 0.928 . S
C1021 C1018 1.260 . S
C1021 C1019 1.479 . S
C1022 C1017 1.245 . S
C1022 C1018 1.477 . S
C1022 H1039 0.932 . S
C1023 U1006 2.882 . S
C1023 C1017 1.428 . S
C1023 O1026 1.301 . S
C1023 O1027 1.282 . S
O1024 U1006 2.441 . S
O1024 C1010 1.249 . S
O1025 U1006 2.420 . S
O1025 C1010 1.202 . S
O1026 U1006 2.455 . S
O1026 C1023 1.301 . S
O1027 U1006 2.449 . S
O1027 C1023 1.282 . S
H1028 C1001 0.931 . S
H1029 C1003 0.929 . S
H1030 C1004 0.930 . S
H1031 C1005 0.931 . S
H1032 C1012 0.932 . S
H1033 C1013 0.930 . S
H1034 C1014 0.929 . S
H1035 C1016 0.930 . S
H1036 C1018 0.932 . S
H1037 C1019 0.929 . S
H1038 C1020 0.928 . S
H1039 C1022 0.932 . S
C1040 C1041 1.264 . S
C1040 C1045 1.479 . S
C1040 C1050 1.465 . S
C1041 C1040 1.264 . S
C1041 C1043 1.339 . S
C1041 H1068 0.931 . S
C1042 C1043 1.395 . S
C1042 C1044 1.320 . S
C1043 C1041 1.339 . S
C1043 C1042 1.395 . S
C1043 H1069 0.929 . S
C1044 C1042 1.320 . S
C1044 C1045 1.405 . S
C1044 H1070 0.930 . S
C1045 C1040 1.479 . S
C1045 C1044 1.405 . S
C1045 H1071 0.931 . S
U1046 O1047 2.454 . S
U1046 O1048 2.458 . S
U1046 C1049 2.984 . S
U1046 C1050 2.847 . S
U1046 C1063 2.882 . S
U1046 O1064 2.441 . S
U1046 O1065 2.420 . S
U1046 O1066 2.455 . S
U1046 O1067 2.449 . S
O1047 U1046 2.454 . S
O1047 C1049 1.353 . S
O1048 U1046 2.458 . S
O1048 C1049 1.286 . S
C1049 U1046 2.984 . S
C1049 O1047 1.353 . S
C1049 O1048 1.286 . S
C1049 C1051 1.363 . S
C1050 C1040 1.465 . S
C1050 U1046 2.847 . S
C1050 O1064 1.249 . S
C1050 O1065 1.202 . S
C1051 C1049 1.363 . S
C1051 C1053 1.408 . S
C1051 C1056 1.342 . S
C1052 C1053 1.310 . S
C1052 C1055 1.461 . S
C1052 H1072 0.932 . S
C1053 C1051 1.408 . S
C1053 C1052 1.310 . S
C1053 H1073 0.930 . S
C1054 C1055 1.474 . S
C1054 C1056 1.285 . S
C1054 H1074 0.929 . S
C1055 C1052 1.461 . S
C1055 C1054 1.474 . S
C1056 C1051 1.342 . S
C1056 C1054 1.285 . S
C1056 H1075 0.930 . S
C1057 C1060 1.424 . S
C1057 C1062 1.245 . S
C1057 C1063 1.428 . S
C1058 C1061 1.260 . S
C1058 C1062 1.477 . S
C1058 H1076 0.932 . S
C1059 C1060 1.384 . S
C1059 C1061 1.479 . S
C1059 H1077 0.929 . S
C1060 C1057 1.424 . S
C1060 C1059 1.384 . S
C1060 H1078 0.928 . S
C1061 C1058 1.260 . S
C1061 C1059 1.479 . S
C1062 C1057 1.245 . S
C1062 C1058 1.477 . S
C1062 H1079 0.932 . S
C1063 U1046 2.882 . S
C1063 C1057 1.428 . S
C1063 O1066 1.301 . S
C1063 O1067 1.282 . S
O1064 U1046 2.441 . S
O1064 C1050 1.249 . S
O1065 U1046 2.420 . S
O1065 C1050 1.202 . S
O1066 U1046 2.455 . S
O1066 C1063 1.301 . S
O1067 U1046 2.449 . S
O1067 C1063 1.282 . S
H1068 C1041 0.931 . S
H1069 C1043 0.929 . S
H1070 C1044 0.930 . S
H1071 C1045 0.931 . S
H1072 C1052 0.932 . S
H1073 C1053 0.930 . S
H1074 C1054 0.929 . S
H1075 C1056 0.930 . S
H1076 C1058 0.932 . S
H1077 C1059 0.929 . S
H1078 C1060 0.928 . S
H1079 C1062 0.932 . S
C1080 C1081 1.264 . S
C1080 C1085 1.479 . S
C1080 C1090 1.465 . S
C1081 C1080 1.264 . S
C1081 C1083 1.339 . S
C1081 H1108 0.931 . S
C1082 C1083 1.395 . S
C1082 C1084 1.320 . S
C1083 C1081 1.339 . S
C1083 C1082 1.395 . S
C1083 H1109 0.929 . S
C1084 C1082 1.320 . S
C1084 C1085 1.405 . S
C1084 H1110 0.930 . S
C1085 C1080 1.479 . S
C1085 C1084 1.405 . S
C1085 H1111 0.931 . S
U1086 O1087 2.454 . S
U1086 O1088 2.458 . S
U1086 C1089 2.984 . S
U1086 C1090 2.847 . S
U1086 C1103 2.882 . S
U1086 O1104 2.441 . S
U1086 O1105 2.420 . S
U1086 O1106 2.455 . S
U1086 O1107 2.449 . S
O1087 U1086 2.454 . S
O1087 C1089 1.353 . S
O1088 U1086 2.458 . S
O1088 C1089 1.286 . S
C1089 U1086 2.984 . S
C1089 O1087 1.353 . S
C1089 O1088 1.286 . S
C1089 C1091 1.363 . S
C1090 C1080 1.465 . S
C1090 U1086 2.847 . S
C1090 O1104 1.249 . S
C1090 O1105 1.202 . S
C1091 C1089 1.363 . S
C1091 C1093 1.408 . S
C1091 C1096 1.342 . S
C1092 C1093 1.310 . S
C1092 C1095 1.461 . S
C1092 H1112 0.932 . S
C1093 C1091 1.408 . S
C1093 C1092 1.310 . S
C1093 H1113 0.930 . S
C1094 C1095 1.474 . S
C1094 C1096 1.285 . S
C1094 H1114 0.929 . S
C1095 C1092 1.461 . S
C1095 C1094 1.474 . S
C1096 C1091 1.342 . S
C1096 C1094 1.285 . S
C1096 H1115 0.930 . S
C1097 C1100 1.424 . S
C1097 C1102 1.245 . S
C1097 C1103 1.428 . S
C1098 C1101 1.260 . S
C1098 C1102 1.477 . S
C1098 H1116 0.932 . S
C1099 C1100 1.384 . S
C1099 C1101 1.479 . S
C1099 H1117 0.929 . S
C1100 C1097 1.424 . S
C1100 C1099 1.384 . S
C1100 H1118 0.928 . S
C1101 C1098 1.260 . S
C1101 C1099 1.479 . S
C1102 C1097 1.245 . S
C1102 C1098 1.477 . S
C1102 H1119 0.932 . S
C1103 U1086 2.882 . S
C1103 C1097 1.428 . S
C1103 O1106 1.301 . S
C1103 O1107 1.282 . S
O1104 U1086 2.441 . S
O1104 C1090 1.249 . S
O1105 U1086 2.420 . S
O1105 C1090 1.202 . S
O1106 U1086 2.455 . S
O1106 C1103 1.301 . S
O1107 U1086 2.449 . S
O1107 C1103 1.282 . S
H1108 C1081 0.931 . S
H1109 C1083 0.929 . S
H1110 C1084 0.930 . S
H1111 C1085 0.931 . S
H1112 C1092 0.932 . S
H1113 C1093 0.930 . S
H1114 C1094 0.929 . S
H1115 C1096 0.930 . S
H1116 C1098 0.932 . S
H1117 C1099 0.929 . S
H1118 C1100 0.928 . S
H1119 C1102 0.932 . S
C1120 C1121 1.264 . S
C1120 C1125 1.479 . S
C1120 C1130 1.465 . S
C1121 C1120 1.264 . S
C1121 C1123 1.339 . S
C1121 H1148 0.931 . S
C1122 C1123 1.395 . S
C1122 C1124 1.320 . S
C1123 C1121 1.339 . S
C1123 C1122 1.395 . S
C1123 H1149 0.929 . S
C1124 C1122 1.320 . S
C1124 C1125 1.405 . S
C1124 H1150 0.930 . S
C1125 C1120 1.479 . S
C1125 C1124 1.405 . S
C1125 H1151 0.931 . S
U1126 O1127 2.454 . S
U1126 O1128 2.458 . S
U1126 C1129 2.984 . S
U1126 C1130 2.847 . S
U1126 C1143 2.882 . S
U1126 O1144 2.441 . S
U1126 O1145 2.420 . S
U1126 O1146 2.455 . S
U1126 O1147 2.449 . S
O1127 U1126 2.454 . S
O1127 C1129 1.353 . S
O1128 U1126 2.458 . S
O1128 C1129 1.286 . S
C1129 U1126 2.984 . S
C1129 O1127 1.353 . S
C1129 O1128 1.286 . S
C1129 C1131 1.363 . S
C1130 C1120 1.465 . S
C1130 U1126 2.847 . S
C1130 O1144 1.249 . S
C1130 O1145 1.202 . S
C1131 C1129 1.363 . S
C1131 C1133 1.408 . S
C1131 C1136 1.342 . S
C1132 C1133 1.310 . S
C1132 C1135 1.461 . S
C1132 H1152 0.932 . S
C1133 C1131 1.408 . S
C1133 C1132 1.310 . S
C1133 H1153 0.930 . S
C1134 C1135 1.474 . S
C1134 C1136 1.285 . S
C1134 H1154 0.929 . S
C1135 C1132 1.461 . S
C1135 C1134 1.474 . S
C1136 C1131 1.342 . S
C1136 C1134 1.285 . S
C1136 H1155 0.930 . S
C1137 C1140 1.424 . S
C1137 C1142 1.245 . S
C1137 C1143 1.428 . S
C1138 C1141 1.260 . S
C1138 C1142 1.477 . S
C1138 H1156 0.932 . S
C1139 C1140 1.384 . S
C1139 C1141 1.479 . S
C1139 H1157 0.929 . S
C1140 C1137 1.424 . S
C1140 C1139 1.384 . S
C1140 H1158 0.928 . S
C1141 C1138 1.260 . S
C1141 C1139 1.479 . S
C1142 C1137 1.245 . S
C1142 C1138 1.477 . S
C1142 H1159 0.932 . S
C1143 U1126 2.882 . S
C1143 C1137 1.428 . S
C1143 O1146 1.301 . S
C1143 O1147 1.282 . S
O1144 U1126 2.441 . S
O1144 C1130 1.249 . S
O1145 U1126 2.420 . S
O1145 C1130 1.202 . S
O1146 U1126 2.455 . S
O1146 C1143 1.301 . S
O1147 U1126 2.449 . S
O1147 C1143 1.282 . S
H1148 C1121 0.931 . S
H1149 C1123 0.929 . S
H1150 C1124 0.930 . S
H1151 C1125 0.931 . S
H1152 C1132 0.932 . S
H1153 C1133 0.930 . S
H1154 C1134 0.929 . S
H1155 C1136 0.930 . S
H1156 C1138 0.932 . S
H1157 C1139 0.929 . S
H1158 C1140 0.928 . S
H1159 C1142 0.932 . S
C1160 C1161 1.264 . S
C1160 C1165 1.479 . S
C1160 C1170 1.465 . S
C1161 C1160 1.264 . S
C1161 C1163 1.339 . S
C1161 H1188 0.931 . S
C1162 C1163 1.395 . S
C1162 C1164 1.320 . S
C1163 C1161 1.339 . S
C1163 C1162 1.395 . S
C1163 H1189 0.929 . S
C1164 C1162 1.320 . S
C1164 C1165 1.405 . S
C1164 H1190 0.930 . S
C1165 C1160 1.479 . S
C1165 C1164 1.405 . S
C1165 H1191 0.931 . S
U1166 O1167 2.454 . S
U1166 O1168 2.458 . S
U1166 C1169 2.984 . S
U1166 C1170 2.847 . S
U1166 C1183 2.882 . S
U1166 O1184 2.441 . S
U1166 O1185 2.420 . S
U1166 O1186 2.455 . S
U1166 O1187 2.449 . S
O1167 U1166 2.454 . S
O1167 C1169 1.353 . S
O1168 U1166 2.458 . S
O1168 C1169 1.286 . S
C1169 U1166 2.984 . S
C1169 O1167 1.353 . S
C1169 O1168 1.286 . S
C1169 C1171 1.363 . S
C1170 C1160 1.465 . S
C1170 U1166 2.847 . S
C1170 O1184 1.249 . S
C1170 O1185 1.202 . S
C1171 C1169 1.363 . S
C1171 C1173 1.408 . S
C1171 C1176 1.342 . S
C1172 C1173 1.310 . S
C1172 C1175 1.461 . S
C1172 H1192 0.932 . S
C1173 C1171 1.408 . S
C1173 C1172 1.310 . S
C1173 H1193 0.930 . S
C1174 C1175 1.474 . S
C1174 C1176 1.285 . S
C1174 H1194 0.929 . S
C1175 C1172 1.461 . S
C1175 C1174 1.474 . S
C1176 C1171 1.342 . S
C1176 C1174 1.285 . S
C1176 H1195 0.930 . S
C1177 C1180 1.424 . S
C1177 C1182 1.245 . S
C1177 C1183 1.428 . S
C1178 C1181 1.260 . S
C1178 C1182 1.477 . S
C1178 H1196 0.932 . S
C1179 C1180 1.384 . S
C1179 C1181 1.479 . S
C1179 H1197 0.929 . S
C1180 C1177 1.424 . S
C1180 C1179 1.384 . S
C1180 H1198 0.928 . S
C1181 C1178 1.260 . S
C1181 C1179 1.479 . S
C1182 C1177 1.245 . S
C1182 C1178 1.477 . S
C1182 H1199 0.932 . S
C1183 U1166 2.882 . S
C1183 C1177 1.428 . S
C1183 O1186 1.301 . S
C1183 O1187 1.282 . S
O1184 U1166 2.441 . S
O1184 C1170 1.249 . S
O1185 U1166 2.420 . S
O1185 C1170 1.202 . S
O1186 U1166 2.455 . S
O1186 C1183 1.301 . S
O1187 U1166 2.449 . S
O1187 C1183 1.282 . S
H1188 C1161 0.931 . S
H1189 C1163 0.929 . S
H1190 C1164 0.930 . S
H1191 C1165 0.931 . S
H1192 C1172 0.932 . S
H1193 C1173 0.930 . S
H1194 C1174 0.929 . S
H1195 C1176 0.930 . S
H1196 C1178 0.932 . S
H1197 C1179 0.929 . S
H1198 C1180 0.928 . S
H1199 C1182 0.932 . S
C1200 C1201 1.264 . S
C1200 C1205 1.479 . S
C1200 C1210 1.465 . S
C1201 C1200 1.264 . S
C1201 C1203 1.339 . S
C1201 H1228 0.931 . S
C1202 C1203 1.395 . S
C1202 C1204 1.320 . S
C1203 C1201 1.339 . S
C1203 C1202 1.395 . S
C1203 H1229 0.929 . S
C1204 C1202 1.320 . S
C1204 C1205 1.405 . S
C1204 H1230 0.930 . S
C1205 C1200 1.479 . S
C1205 C1204 1.405 . S
C1205 H1231 0.931 . S
U1206 O1207 2.454 . S
U1206 O1208 2.458 . S
U1206 C1209 2.984 . S
U1206 C1210 2.847 . S
U1206 C1223 2.882 . S
U1206 O1224 2.441 . S
U1206 O1225 2.420 . S
U1206 O1226 2.455 . S
U1206 O1227 2.449 . S
O1207 U1206 2.454 . S
O1207 C1209 1.353 . S
O1208 U1206 2.458 . S
O1208 C1209 1.286 . S
C1209 U1206 2.984 . S
C1209 O1207 1.353 . S
C1209 O1208 1.286 . S
C1209 C1211 1.363 . S
C1210 C1200 1.465 . S
C1210 U1206 2.847 . S
C1210 O1224 1.249 . S
C1210 O1225 1.202 . S
C1211 C1209 1.363 . S
C1211 C1213 1.408 . S
C1211 C1216 1.342 . S
C1212 C1213 1.310 . S
C1212 C1215 1.461 . S
C1212 H1232 0.932 . S
C1213 C1211 1.408 . S
C1213 C1212 1.310 . S
C1213 H1233 0.930 . S
C1214 C1215 1.474 . S
C1214 C1216 1.285 . S
C1214 H1234 0.929 . S
C1215 C1212 1.461 . S
C1215 C1214 1.474 . S
C1216 C1211 1.342 . S
C1216 C1214 1.285 . S
C1216 H1235 0.930 . S
C1217 C1220 1.424 . S
C1217 C1222 1.245 . S
C1217 C1223 1.428 . S
C1218 C1221 1.260 . S
C1218 C1222 1.477 . S
C1218 H1236 0.932 . S
C1219 C1220 1.384 . S
C1219 C1221 1.479 . S
C1219 H1237 0.929 . S
C1220 C1217 1.424 . S
C1220 C1219 1.384 . S
C1220 H1238 0.928 . S
C1221 C1218 1.260 . S
C1221 C1219 1.479 . S
C1222 C1217 1.245 . S
C1222 C1218 1.477 . S
C1222 H1239 0.932 . S
C1223 U1206 2.882 . S
C1223 C1217 1.428 . S
C1223 O1226 1.301 . S
C1223 O1227 1.282 . S
O1224 U1206 2.441 . S
O1224 C1210 1.249 . S
O1225 U1206 2.420 . S
O1225 C1210 1.202 . S
O1226 U1206 2.455 . S
O1226 C1223 1.301 . S
O1227 U1206 2.449 . S
O1227 C1223 1.282 . S
H1228 C1201 0.931 . S
H1229 C1203 0.929 . S
H1230 C1204 0.930 . S
H1231 C1205 0.931 . S
H1232 C1212 0.932 . S
H1233 C1213 0.930 . S
H1234 C1214 0.929 . S
H1235 C1216 0.930 . S
H1236 C1218 0.932 . S
H1237 C1219 0.929 . S
H1238 C1220 0.928 . S
H1239 C1222 0.932 . S
C1240 C1241 1.264 . S
C1240 C1245 1.479 . S
C1240 C1250 1.465 . S
C1241 C1240 1.264 . S
C1241 C1243 1.339 . S
C1241 H1268 0.931 . S
C1242 C1243 1.395 . S
C1242 C1244 1.320 . S
C1243 C1241 1.339 . S
C1243 C1242 1.395 . S
C1243 H1269 0.929 . S
C1244 C1242 1.320 . S
C1244 C1245 1.405 . S
C1244 H1270 0.930 . S
C1245 C1240 1.479 . S
C1245 C1244 1.405 . S
C1245 H1271 0.931 . S
U1246 O1247 2.454 . S
U1246 O1248 2.458 . S
U1246 C1249 2.984 . S
U1246 C1250 2.847 . S
U1246 C1263 2.882 . S
U1246 O1264 2.441 . S
U1246 O1265 2.420 . S
U1246 O1266 2.455 . S
U1246 O1267 2.449 . S
O1247 U1246 2.454 . S
O1247 C1249 1.353 . S
O1248 U1246 2.458 . S
O1248 C1249 1.286 . S
C1249 U1246 2.984 . S
C1249 O1247 1.353 . S
C1249 O1248 1.286 . S
C1249 C1251 1.363 . S
C1250 C1240 1.465 . S
C1250 U1246 2.847 . S
C1250 O1264 1.249 . S
C1250 O1265 1.202 . S
C1251 C1249 1.363 . S
C1251 C1253 1.408 . S
C1251 C1256 1.342 . S
C1252 C1253 1.310 . S
C1252 C1255 1.461 . S
C1252 H1272 0.932 . S
C1253 C1251 1.408 . S
C1253 C1252 1.310 . S
C1253 H1273 0.930 . S
C1254 C1255 1.474 . S
C1254 C1256 1.285 . S
C1254 H1274 0.929 . S
C1255 C1252 1.461 . S
C1255 C1254 1.474 . S
C1256 C1251 1.342 . S
C1256 C1254 1.285 . S
C1256 H1275 0.930 . S
C1257 C1260 1.424 . S
C1257 C1262 1.245 . S
C1257 C1263 1.428 . S
C1258 C1261 1.260 . S
C1258 C1262 1.477 . S
C1258 H1276 0.932 . S
C1259 C1260 1.384 . S
C1259 C1261 1.479 . S
C1259 H1277 0.929 . S
C1260 C1257 1.424 . S
C1260 C1259 1.384 . S
C1260 H1278 0.928 . S
C1261 C1258 1.260 . S
C1261 C1259 1.479 . S
C1262 C1257 1.245 . S
C1262 C1258 1.477 . S
C1262 H1279 0.932 . S
C1263 U1246 2.882 . S
C1263 C1257 1.428 . S
C1263 O1266 1.301 . S
C1263 O1267 1.282 . S
O1264 U1246 2.441 . S
O1264 C1250 1.249 . S
O1265 U1246 2.420 . S
O1265 C1250 1.202 . S
O1266 U1246 2.455 . S
O1266 C1263 1.301 . S
O1267 U1246 2.449 . S
O1267 C1263 1.282 . S
H1268 C1241 0.931 . S
H1269 C1243 0.929 . S
H1270 C1244 0.930 . S
H1271 C1245 0.931 . S
H1272 C1252 0.932 . S
H1273 C1253 0.930 . S
H1274 C1254 0.929 . S
H1275 C1256 0.930 . S
H1276 C1258 0.932 . S
H1277 C1259 0.929 . S
H1278 C1260 0.928 . S
H1279 C1262 0.932 . S
H1280 C1288 0.930 . S
H1281 C1291 0.930 . S
H1282 C1293 0.930 . S
H1283 C1294 0.970 . S
H1284 C1294 0.970 . S
H1285 C1296 0.930 . S
H1286 C1298 0.930 . S
H1287 C1300 0.930 . S
C1288 H1280 0.930 . S
C1288 C1289 1.382 . S
C1288 C1290 1.426 . S
C1289 C1288 1.382 . S
C1289 C1293 1.389 . S
C1290 C1288 1.426 . S
C1290 C1291 1.375 . S
C1290 C1294 1.532 1_556 S
C1291 H1281 0.930 . S
C1291 C1290 1.375 . S
C1291 C1292 1.416 . S
C1292 C1291 1.416 . S
C1292 C1293 1.371 . S
C1293 H1282 0.930 . S
C1293 C1289 1.389 . S
C1293 C1292 1.371 . S
C1294 H1283 0.970 . S
C1294 H1284 0.970 . S
C1294 C1290 1.532 1_554 S
C1294 C1295 1.499 . S
C1295 C1294 1.499 . S
C1295 C1296 1.370 . S
C1295 C1300 1.415 . S
C1296 H1285 0.930 . S
C1296 C1295 1.370 . S
C1296 C1297 1.407 . S
C1297 C1296 1.407 . S
C1297 C1298 1.365 . S
C1298 H1286 0.930 . S
C1298 C1297 1.365 . S
C1298 C1299 1.393 . S
C1299 C1298 1.393 . S
C1299 C1300 1.387 . S
C1300 H1287 0.930 . S
C1300 C1295 1.415 . S
C1300 C1299 1.387 . S
H1301 C1309 0.930 . S
H1302 C1312 0.930 . S
H1303 C1314 0.930 . S
H1304 C1315 0.970 . S
H1305 C1315 0.970 . S
H1306 C1317 0.930 . S
H1307 C1319 0.930 . S
H1308 C1321 0.930 . S
C1309 H1301 0.930 . S
C1309 C1310 1.382 . S
C1309 C1311 1.426 . S
C1310 C1309 1.382 . S
C1310 C1314 1.389 . S
C1311 C1309 1.426 . S
C1311 C1312 1.375 . S
C1311 C1315 1.532 . S
C1312 H1302 0.930 . S
C1312 C1311 1.375 . S
C1312 C1313 1.416 . S
C1313 C1312 1.416 . S
C1313 C1314 1.371 . S
C1314 H1303 0.930 . S
C1314 C1310 1.389 . S
C1314 C1313 1.371 . S
C1315 H1304 0.970 . S
C1315 H1305 0.970 . S
C1315 C1311 1.532 . S
C1315 C1316 1.499 1_554 S
C1316 C1315 1.499 1_556 S
C1316 C1317 1.370 . S
C1316 C1321 1.415 . S
C1317 H1306 0.930 . S
C1317 C1316 1.370 . S
C1317 C1318 1.407 . S
C1318 C1317 1.407 . S
C1318 C1319 1.365 . S
C1319 H1307 0.930 . S
C1319 C1318 1.365 . S
C1319 C1320 1.393 . S
C1320 C1319 1.393 . S
C1320 C1321 1.387 . S
C1321 H1308 0.930 . S
C1321 C1316 1.415 . S
C1321 C1320 1.387 . S
H1322 C1330 0.930 . S
H1323 C1333 0.930 . S
H1324 C1335 0.930 . S
H1325 C1336 0.970 . S
H1326 C1336 0.970 . S
H1327 C1338 0.930 . S
H1328 C1340 0.930 . S
H1329 C1342 0.930 . S
C1330 H1322 0.930 . S
C1330 C1331 1.382 . S
C1330 C1332 1.426 . S
C1331 C1330 1.382 . S
C1331 C1335 1.389 . S
C1332 C1330 1.426 . S
C1332 C1333 1.375 . S
C1332 C1336 1.532 . S
C1333 H1323 0.930 . S
C1333 C1332 1.375 . S
C1333 C1334 1.416 . S
C1334 C1333 1.416 . S
C1334 C1335 1.371 . S
C1335 H1324 0.930 . S
C1335 C1331 1.389 . S
C1335 C1334 1.371 . S
C1336 H1325 0.970 . S
C1336 H1326 0.970 . S
C1336 C1332 1.532 . S
C1336 C1337 1.499 1_554 S
C1337 C1336 1.499 1_556 S
C1337 C1338 1.370 . S
C1337 C1342 1.415 . S
C1338 H1327 0.930 . S
C1338 C1337 1.370 . S
C1338 C1339 1.407 . S
C1339 C1338 1.407 . S
C1339 C1340 1.365 . S
C1340 H1328 0.930 . S
C1340 C1339 1.365 . S
C1340 C1341 1.393 . S
C1341 C1340 1.393 . S
C1341 C1342 1.387 . S
C1342 H1329 0.930 . S
C1342 C1337 1.415 . S
C1342 C1341 1.387 . S
H1343 C1351 0.930 . S
H1344 C1354 0.930 . S
H1345 C1356 0.930 . S
H1346 C1357 0.970 . S
H1347 C1357 0.970 . S
H1348 C1359 0.930 . S
H1349 C1361 0.930 . S
H1350 C1363 0.930 . S
C1351 H1343 0.930 . S
C1351 C1352 1.382 . S
C1351 C1353 1.426 . S
C1352 C1351 1.382 . S
C1352 C1356 1.389 . S
C1353 C1351 1.426 . S
C1353 C1354 1.375 . S
C1353 C1357 1.532 . S
C1354 H1344 0.930 . S
C1354 C1353 1.375 . S
C1354 C1355 1.416 . S
C1355 C1354 1.416 . S
C1355 C1356 1.371 . S
C1356 H1345 0.930 . S
C1356 C1352 1.389 . S
C1356 C1355 1.371 . S
C1357 H1346 0.970 . S
C1357 H1347 0.970 . S
C1357 C1353 1.532 . S
C1357 C1358 1.499 1_554 S
C1358 C1357 1.499 1_556 S
C1358 C1359 1.370 . S
C1358 C1363 1.415 . S
C1359 H1348 0.930 . S
C1359 C1358 1.370 . S
C1359 C1360 1.407 . S
C1360 C1359 1.407 . S
C1360 C1361 1.365 . S
C1361 H1349 0.930 . S
C1361 C1360 1.365 . S
C1361 C1362 1.393 . S
C1362 C1361 1.393 . S
C1362 C1363 1.387 . S
C1363 H1350 0.930 . S
C1363 C1358 1.415 . S
C1363 C1362 1.387 . S
H1364 C1372 0.930 . S
H1365 C1375 0.930 . S
H1366 C1377 0.930 . S
H1367 C1378 0.970 . S
H1368 C1378 0.970 . S
H1369 C1380 0.930 . S
H1370 C1382 0.930 . S
H1371 C1384 0.930 . S
C1372 H1364 0.930 . S
C1372 C1373 1.382 . S
C1372 C1374 1.426 . S
C1373 C1372 1.382 . S
C1373 C1377 1.389 . S
C1374 C1372 1.426 . S
C1374 C1375 1.375 . S
C1374 C1378 1.532 . S
C1375 H1365 0.930 . S
C1375 C1374 1.375 . S
C1375 C1376 1.416 . S
C1376 C1375 1.416 . S
C1376 C1377 1.371 . S
C1377 H1366 0.930 . S
C1377 C1373 1.389 . S
C1377 C1376 1.371 . S
C1378 H1367 0.970 . S
C1378 H1368 0.970 . S
C1378 C1374 1.532 . S
C1378 C1379 1.499 1_455 S
C1379 C1378 1.499 1_655 S
C1379 C1380 1.370 . S
C1379 C1384 1.415 . S
C1380 H1369 0.930 . S
C1380 C1379 1.370 . S
C1380 C1381 1.407 . S
C1381 C1380 1.407 . S
C1381 C1382 1.365 . S
C1382 H1370 0.930 . S
C1382 C1381 1.365 . S
C1382 C1383 1.393 . S
C1383 C1382 1.393 . S
C1383 C1384 1.387 . S
C1384 H1371 0.930 . S
C1384 C1379 1.415 . S
C1384 C1383 1.387 . S
H1385 C1393 0.930 . S
H1386 C1396 0.930 . S
H1387 C1398 0.930 . S
H1388 C1399 0.970 . S
H1389 C1399 0.970 . S
H1390 C1401 0.930 . S
H1391 C1403 0.930 . S
H1392 C1405 0.930 . S
C1393 H1385 0.930 . S
C1393 C1394 1.382 . S
C1393 C1395 1.426 . S
C1394 C1393 1.382 . S
C1394 C1398 1.389 . S
C1395 C1393 1.426 . S
C1395 C1396 1.375 . S
C1395 C1399 1.535 . S
C1396 H1386 0.930 . S
C1396 C1395 1.375 . S
C1396 C1397 1.416 . S
C1397 C1396 1.416 . S
C1397 C1398 1.371 . S
C1398 H1387 0.930 . S
C1398 C1394 1.389 . S
C1398 C1397 1.371 . S
C1399 H1388 0.970 . S
C1399 H1389 0.970 . S
C1399 C1395 1.535 . S
C1399 C1400 1.496 1_545 S
C1400 C1399 1.496 1_565 S
C1400 C1401 1.370 . S
C1400 C1405 1.415 . S
C1401 H1390 0.930 . S
C1401 C1400 1.370 . S
C1401 C1402 1.407 . S
C1402 C1401 1.407 . S
C1402 C1403 1.365 . S
C1403 H1391 0.930 . S
C1403 C1402 1.365 . S
C1403 C1404 1.393 . S
C1404 C1403 1.393 . S
C1404 C1405 1.387 . S
C1405 H1392 0.930 . S
C1405 C1400 1.415 . S
C1405 C1404 1.387 . S
H1406 C1414 0.930 . S
H1407 C1417 0.930 . S
H1408 C1419 0.930 . S
H1409 C1420 0.970 . S
H1410 C1420 0.970 . S
H1411 C1422 0.930 . S
H1412 C1424 0.930 . S
H1413 C1426 0.930 . S
C1414 H1406 0.930 . S
C1414 C1415 1.382 . S
C1414 C1416 1.426 . S
C1415 C1414 1.382 . S
C1415 C1419 1.389 . S
C1416 C1414 1.426 . S
C1416 C1417 1.375 . S
C1416 C1420 1.525 1_655 S
C1417 H1407 0.930 . S
C1417 C1416 1.375 . S
C1417 C1418 1.416 . S
C1418 C1417 1.416 . S
C1418 C1419 1.371 . S
C1419 H1408 0.930 . S
C1419 C1415 1.389 . S
C1419 C1418 1.371 . S
C1420 H1409 0.970 . S
C1420 H1410 0.970 . S
C1420 C1416 1.525 1_455 S
C1420 C1421 1.506 . S
C1421 C1420 1.506 . S
C1421 C1422 1.370 . S
C1421 C1426 1.415 . S
C1422 H1411 0.930 . S
C1422 C1421 1.370 . S
C1422 C1423 1.407 . S
C1423 C1422 1.407 . S
C1423 C1424 1.365 . S
C1424 H1412 0.930 . S
C1424 C1423 1.365 . S
C1424 C1425 1.393 . S
C1425 C1424 1.393 . S
C1425 C1426 1.387 . S
C1426 H1413 0.930 . S
C1426 C1421 1.415 . S
C1426 C1425 1.387 . S
H1427 C1435 0.930 . S
H1428 C1438 0.930 . S
H1429 C1440 0.930 . S
H1430 C1441 0.970 . S
H1431 C1441 0.970 . S
H1432 C1443 0.930 . S
H1433 C1445 0.930 . S
H1434 C1447 0.930 . S
C1435 H1427 0.930 . S
C1435 C1436 1.382 . S
C1435 C1437 1.426 . S
C1436 C1435 1.382 . S
C1436 C1440 1.389 . S
C1437 C1435 1.426 . S
C1437 C1438 1.375 . S
C1437 C1441 1.532 1_565 S
C1438 H1428 0.930 . S
C1438 C1437 1.375 . S
C1438 C1439 1.416 . S
C1439 C1438 1.416 . S
C1439 C1440 1.371 . S
C1440 H1429 0.930 . S
C1440 C1436 1.389 . S
C1440 C1439 1.371 . S
C1441 H1430 0.970 . S
C1441 H1431 0.970 . S
C1441 C1437 1.532 1_545 S
C1441 C1442 1.499 . S
C1442 C1441 1.499 . S
C1442 C1443 1.370 . S
C1442 C1447 1.415 . S
C1443 H1432 0.930 . S
C1443 C1442 1.370 . S
C1443 C1444 1.407 . S
C1444 C1443 1.407 . S
C1444 C1445 1.365 . S
C1445 H1433 0.930 . S
C1445 C1444 1.365 . S
C1445 C1446 1.393 . S
C1446 C1445 1.393 . S
C1446 C1447 1.387 . S
C1447 H1434 0.930 . S
C1447 C1442 1.415 . S
C1447 C1446 1.387 . S
H1448 C1456 0.930 . S
H1449 C1459 0.930 . S
H1450 C1461 0.930 . S
H1451 C1462 0.970 . S
H1452 C1462 0.970 . S
H1453 C1464 0.930 . S
H1454 C1466 0.930 . S
H1455 C1468 0.930 . S
C1456 H1448 0.930 . S
C1456 C1457 1.382 . S
C1456 C1458 1.426 . S
C1457 C1456 1.382 . S
C1457 C1461 1.389 . S
C1458 C1456 1.426 . S
C1458 C1459 1.375 . S
C1458 C1462 1.532 1_655 S
C1459 H1449 0.930 . S
C1459 C1458 1.375 . S
C1459 C1460 1.416 . S
C1460 C1459 1.416 . S
C1460 C1461 1.371 . S
C1461 H1450 0.930 . S
C1461 C1457 1.389 . S
C1461 C1460 1.371 . S
C1462 H1451 0.970 . S
C1462 H1452 0.970 . S
C1462 C1458 1.532 1_455 S
C1462 C1463 1.499 . S
C1463 C1462 1.499 . S
C1463 C1464 1.370 . S
C1463 C1468 1.415 . S
C1464 H1453 0.930 . S
C1464 C1463 1.370 . S
C1464 C1465 1.407 . S
C1465 C1464 1.407 . S
C1465 C1466 1.365 . S
C1466 H1454 0.930 . S
C1466 C1465 1.365 . S
C1466 C1467 1.393 . S
C1467 C1466 1.393 . S
C1467 C1468 1.387 . S
C1468 H1455 0.930 . S
C1468 C1463 1.415 . S
C1468 C1467 1.387 . S
H1469 C1477 0.930 . S
H1470 C1480 0.930 . S
H1471 C1482 0.930 . S
H1472 C1483 0.970 . S
H1473 C1483 0.970 . S
H1474 C1485 0.930 . S
H1475 C1487 0.930 . S
H1476 C1489 0.930 . S
C1477 H1469 0.930 . S
C1477 C1478 1.382 . S
C1477 C1479 1.426 . S
C1478 C1477 1.382 . S
C1478 C1482 1.389 . S
C1479 C1477 1.426 . S
C1479 C1480 1.375 . S
C1479 C1483 1.532 1_565 S
C1480 H1470 0.930 . S
C1480 C1479 1.375 . S
C1480 C1481 1.416 . S
C1481 C1480 1.416 . S
C1481 C1482 1.371 . S
C1482 H1471 0.930 . S
C1482 C1478 1.389 . S
C1482 C1481 1.371 . S
C1483 H1472 0.970 . S
C1483 H1473 0.970 . S
C1483 C1479 1.532 1_545 S
C1483 C1484 1.499 . S
C1484 C1483 1.499 . S
C1484 C1485 1.370 . S
C1484 C1489 1.415 . S
C1485 H1474 0.930 . S
C1485 C1484 1.370 . S
C1485 C1486 1.407 . S
C1486 C1485 1.407 . S
C1486 C1487 1.365 . S
C1487 H1475 0.930 . S
C1487 C1486 1.365 . S
C1487 C1488 1.393 . S
C1488 C1487 1.393 . S
C1488 C1489 1.387 . S
C1489 H1476 0.930 . S
C1489 C1484 1.415 . S
C1489 C1488 1.387 . S
H1490 C1498 0.930 . S
H1491 C1501 0.930 . S
H1492 C1503 0.930 . S
H1493 C1504 0.970 . S
H1494 C1504 0.970 . S
H1495 C1506 0.930 . S
H1496 C1508 0.930 . S
H1497 C1510 0.930 . S
C1498 H1490 0.930 . S
C1498 C1499 1.382 . S
C1498 C1500 1.426 . S
C1499 C1498 1.382 . S
C1499 C1503 1.389 . S
C1500 C1498 1.426 . S
C1500 C1501 1.375 . S
C1500 C1504 1.532 1_655 S
C1501 H1491 0.930 . S
C1501 C1500 1.375 . S
C1501 C1502 1.416 . S
C1502 C1501 1.416 . S
C1502 C1503 1.371 . S
C1503 H1492 0.930 . S
C1503 C1499 1.389 . S
C1503 C1502 1.371 . S
C1504 H1493 0.970 . S
C1504 H1494 0.970 . S
C1504 C1500 1.532 1_455 S
C1504 C1505 1.499 . S
C1505 C1504 1.499 . S
C1505 C1506 1.370 . S
C1505 C1510 1.415 . S
C1506 H1495 0.930 . S
C1506 C1505 1.370 . S
C1506 C1507 1.407 . S
C1507 C1506 1.407 . S
C1507 C1508 1.365 . S
C1508 H1496 0.930 . S
C1508 C1507 1.365 . S
C1508 C1509 1.393 . S
C1509 C1508 1.393 . S
C1509 C1510 1.387 . S
C1510 H1497 0.930 . S
C1510 C1505 1.415 . S
C1510 C1509 1.387 . S
H1511 C1519 0.930 . S
H1512 C1522 0.930 . S
H1513 C1524 0.930 . S
H1514 C1525 0.970 . S
H1515 C1525 0.970 . S
H1516 C1527 0.930 . S
H1517 C1529 0.930 . S
H1518 C1531 0.930 . S
C1519 H1511 0.930 . S
C1519 C1520 1.382 . S
C1519 C1521 1.426 . S
C1520 C1519 1.382 . S
C1520 C1524 1.389 . S
C1521 C1519 1.426 . S
C1521 C1522 1.375 . S
C1521 C1525 1.532 1_565 S
C1522 H1512 0.930 . S
C1522 C1521 1.375 . S
C1522 C1523 1.416 . S
C1523 C1522 1.416 . S
C1523 C1524 1.371 . S
C1524 H1513 0.930 . S
C1524 C1520 1.389 . S
C1524 C1523 1.371 . S
C1525 H1514 0.970 . S
C1525 H1515 0.970 . S
C1525 C1521 1.532 1_545 S
C1525 C1526 1.499 . S
C1526 C1525 1.499 . S
C1526 C1527 1.370 . S
C1526 C1531 1.415 . S
C1527 H1516 0.930 . S
C1527 C1526 1.370 . S
C1527 C1528 1.407 . S
C1528 C1527 1.407 . S
C1528 C1529 1.365 . S
C1529 H1517 0.930 . S
C1529 C1528 1.365 . S
C1529 C1530 1.393 . S
C1530 C1529 1.393 . S
C1530 C1531 1.387 . S
C1531 H1518 0.930 . S
C1531 C1526 1.415 . S
C1531 C1530 1.387 . S
H1532 C1540 0.930 . S
H1533 C1543 0.930 . S
H1534 C1545 0.930 . S
H1535 C1546 0.970 . S
H1536 C1546 0.970 . S
H1537 C1548 0.930 . S
H1538 C1550 0.930 . S
H1539 C1552 0.930 . S
C1540 H1532 0.930 . S
C1540 C1541 1.382 . S
C1540 C1542 1.426 . S
C1541 C1540 1.382 . S
C1541 C1545 1.389 . S
C1542 C1540 1.426 . S
C1542 C1543 1.375 . S
C1542 C1546 1.532 . S
C1543 H1533 0.930 . S
C1543 C1542 1.375 . S
C1543 C1544 1.416 . S
C1544 C1543 1.416 . S
C1544 C1545 1.371 . S
C1545 H1534 0.930 . S
C1545 C1541 1.389 . S
C1545 C1544 1.371 . S
C1546 H1535 0.970 . S
C1546 H1536 0.970 . S
C1546 C1542 1.532 . S
C1546 C1547 1.499 . S
C1547 C1546 1.499 . S
C1547 C1548 1.370 . S
C1547 C1552 1.415 . S
C1548 H1537 0.930 . S
C1548 C1547 1.370 . S
C1548 C1549 1.407 . S
C1549 C1548 1.407 . S
C1549 C1550 1.365 . S
C1550 H1538 0.930 . S
C1550 C1549 1.365 . S
C1550 C1551 1.393 . S
C1551 C1550 1.393 . S
C1551 C1552 1.387 . S
C1552 H1539 0.930 . S
C1552 C1547 1.415 . S
C1552 C1551 1.387 . S
H1553 C1561 0.930 . S
H1554 C1564 0.930 . S
H1555 C1566 0.930 . S
H1556 C1567 0.970 . S
H1557 C1567 0.970 . S
H1558 C1569 0.930 . S
H1559 C1571 0.930 . S
H1560 C1573 0.930 . S
C1561 H1553 0.930 . S
C1561 C1562 1.382 . S
C1561 C1563 1.426 . S
C1562 C1561 1.382 . S
C1562 C1566 1.389 . S
C1563 C1561 1.426 . S
C1563 C1564 1.375 . S
C1563 C1567 1.532 . S
C1564 H1554 0.930 . S
C1564 C1563 1.375 . S
C1564 C1565 1.416 . S
C1565 C1564 1.416 . S
C1565 C1566 1.371 . S
C1566 H1555 0.930 . S
C1566 C1562 1.389 . S
C1566 C1565 1.371 . S
C1567 H1556 0.970 . S
C1567 H1557 0.970 . S
C1567 C1563 1.532 . S
C1567 C1568 1.499 . S
C1568 C1567 1.499 . S
C1568 C1569 1.370 . S
C1568 C1573 1.415 . S
C1569 H1558 0.930 . S
C1569 C1568 1.370 . S
C1569 C1570 1.407 . S
C1570 C1569 1.407 . S
C1570 C1571 1.365 . S
C1571 H1559 0.930 . S
C1571 C1570 1.365 . S
C1571 C1572 1.393 . S
C1572 C1571 1.393 . S
C1572 C1573 1.387 . S
C1573 H1560 0.930 . S
C1573 C1568 1.415 . S
C1573 C1572 1.387 . S
H1574 C1582 0.930 . S
H1575 C1585 0.930 . S
H1576 C1587 0.930 . S
H1577 C1588 0.970 . S
H1578 C1588 0.970 . S
H1579 C1590 0.930 . S
H1580 C1592 0.930 . S
H1581 C1594 0.930 . S
C1582 H1574 0.930 . S
C1582 C1583 1.382 . S
C1582 C1584 1.426 . S
C1583 C1582 1.382 . S
C1583 C1587 1.389 . S
C1584 C1582 1.426 . S
C1584 C1585 1.375 . S
C1584 C1588 1.532 . S
C1585 H1575 0.930 . S
C1585 C1584 1.375 . S
C1585 C1586 1.416 . S
C1586 C1585 1.416 . S
C1586 C1587 1.371 . S
C1587 H1576 0.930 . S
C1587 C1583 1.389 . S
C1587 C1586 1.371 . S
C1588 H1577 0.970 . S
C1588 H1578 0.970 . S
C1588 C1584 1.532 . S
C1588 C1589 1.499 . S
C1589 C1588 1.499 . S
C1589 C1590 1.370 . S
C1589 C1594 1.415 . S
C1590 H1579 0.930 . S
C1590 C1589 1.370 . S
C1590 C1591 1.407 . S
C1591 C1590 1.407 . S
C1591 C1592 1.365 . S
C1592 H1580 0.930 . S
C1592 C1591 1.365 . S
C1592 C1593 1.393 . S
C1593 C1592 1.393 . S
C1593 C1594 1.387 . S
C1594 H1581 0.930 . S
C1594 C1589 1.415 . S
C1594 C1593 1.387 . S
H1595 C1603 0.930 . S
H1596 C1606 0.930 . S
H1597 C1608 0.930 . S
H1598 C1609 0.970 . S
H1599 C1609 0.970 . S
H1600 C1611 0.930 . S
H1601 C1613 0.930 . S
H1602 C1615 0.930 . S
C1603 H1595 0.930 . S
C1603 C1604 1.382 . S
C1603 C1605 1.426 . S
C1604 C1603 1.382 . S
C1604 C1608 1.389 . S
C1605 C1603 1.426 . S
C1605 C1606 1.375 . S
C1605 C1609 1.532 . S
C1606 H1596 0.930 . S
C1606 C1605 1.375 . S
C1606 C1607 1.416 . S
C1607 C1606 1.416 . S
C1607 C1608 1.371 . S
C1608 H1597 0.930 . S
C1608 C1604 1.389 . S
C1608 C1607 1.371 . S
C1609 H1598 0.970 . S
C1609 H1599 0.970 . S
C1609 C1605 1.532 . S
C1609 C1610 1.499 . S
C1610 C1609 1.499 . S
C1610 C1611 1.370 . S
C1610 C1615 1.415 . S
C1611 H1600 0.930 . S
C1611 C1610 1.370 . S
C1611 C1612 1.407 . S
C1612 C1611 1.407 . S
C1612 C1613 1.365 . S
C1613 H1601 0.930 . S
C1613 C1612 1.365 . S
C1613 C1614 1.393 . S
C1614 C1613 1.393 . S
C1614 C1615 1.387 . S
C1615 H1602 0.930 . S
C1615 C1610 1.415 . S
C1615 C1614 1.387 . S
H1616 C1624 0.930 . S
H1617 C1627 0.930 . S
H1618 C1629 0.930 . S
H1619 C1630 0.970 . S
H1620 C1630 0.970 . S
H1621 C1632 0.930 . S
H1622 C1634 0.930 . S
H1623 C1636 0.930 . S
C1624 H1616 0.930 . S
C1624 C1625 1.382 . S
C1624 C1626 1.426 . S
C1625 C1624 1.382 . S
C1625 C1629 1.389 . S
C1626 C1624 1.426 . S
C1626 C1627 1.375 . S
C1626 C1630 1.532 . S
C1627 H1617 0.930 . S
C1627 C1626 1.375 . S
C1627 C1628 1.416 . S
C1628 C1627 1.416 . S
C1628 C1629 1.371 . S
C1629 H1618 0.930 . S
C1629 C1625 1.389 . S
C1629 C1628 1.371 . S
C1630 H1619 0.970 . S
C1630 H1620 0.970 . S
C1630 C1626 1.532 . S
C1630 C1631 1.499 . S
C1631 C1630 1.499 . S
C1631 C1632 1.370 . S
C1631 C1636 1.415 . S
C1632 H1621 0.930 . S
C1632 C1631 1.370 . S
C1632 C1633 1.407 . S
C1633 C1632 1.407 . S
C1633 C1634 1.365 . S
C1634 H1622 0.930 . S
C1634 C1633 1.365 . S
C1634 C1635 1.393 . S
C1635 C1634 1.393 . S
C1635 C1636 1.387 . S
C1636 H1623 0.930 . S
C1636 C1631 1.415 . S
C1636 C1635 1.387 . S
H1637 C1645 0.930 . S
H1638 C1648 0.930 . S
H1639 C1650 0.930 . S
H1640 C1651 0.970 . S
H1641 C1651 0.970 . S
H1642 C1653 0.930 . S
H1643 C1655 0.930 . S
H1644 C1657 0.930 . S
C1645 H1637 0.930 . S
C1645 C1646 1.382 . S
C1645 C1647 1.426 . S
C1646 C1645 1.382 . S
C1646 C1650 1.389 . S
C1647 C1645 1.426 . S
C1647 C1648 1.375 . S
C1647 C1651 1.532 . S
C1648 H1638 0.930 . S
C1648 C1647 1.375 . S
C1648 C1649 1.416 . S
C1649 C1648 1.416 . S
C1649 C1650 1.371 . S
C1650 H1639 0.930 . S
C1650 C1646 1.389 . S
C1650 C1649 1.371 . S
C1651 H1640 0.970 . S
C1651 H1641 0.970 . S
C1651 C1647 1.532 . S
C1651 C1652 1.499 . S
C1652 C1651 1.499 . S
C1652 C1653 1.370 . S
C1652 C1657 1.415 . S
C1653 H1642 0.930 . S
C1653 C1652 1.370 . S
C1653 C1654 1.407 . S
C1654 C1653 1.407 . S
C1654 C1655 1.365 . S
C1655 H1643 0.930 . S
C1655 C1654 1.365 . S
C1655 C1656 1.393 . S
C1656 C1655 1.393 . S
C1656 C1657 1.387 . S
C1657 H1644 0.930 . S
C1657 C1652 1.415 . S
C1657 C1656 1.387 . S
H1658 C1666 0.930 . S
H1659 C1669 0.930 . S
H1660 C1671 0.930 . S
H1661 C1672 0.970 . S
H1662 C1672 0.970 . S
H1663 C1674 0.930 . S
H1664 C1676 0.930 . S
H1665 C1678 0.930 . S
C1666 H1658 0.930 . S
C1666 C1667 1.382 . S
C1666 C1668 1.426 . S
C1667 C1666 1.382 . S
C1667 C1671 1.389 . S
C1668 C1666 1.426 . S
C1668 C1669 1.375 . S
C1668 C1672 1.532 . S
C1669 H1659 0.930 . S
C1669 C1668 1.375 . S
C1669 C1670 1.416 . S
C1670 C1669 1.416 . S
C1670 C1671 1.371 . S
C1671 H1660 0.930 . S
C1671 C1667 1.389 . S
C1671 C1670 1.371 . S
C1672 H1661 0.970 . S
C1672 H1662 0.970 . S
C1672 C1668 1.532 . S
C1672 C1673 1.499 . S
C1673 C1672 1.499 . S
C1673 C1674 1.370 . S
C1673 C1678 1.415 . S
C1674 H1663 0.930 . S
C1674 C1673 1.370 . S
C1674 C1675 1.407 . S
C1675 C1674 1.407 . S
C1675 C1676 1.365 . S
C1676 H1664 0.930 . S
C1676 C1675 1.365 . S
C1676 C1677 1.393 . S
C1677 C1676 1.393 . S
C1677 C1678 1.387 . S
C1678 H1665 0.930 . S
C1678 C1673 1.415 . S
C1678 C1677 1.387 . S
H1679 C1687 0.930 . S
H1680 C1690 0.930 . S
H1681 C1692 0.930 . S
H1682 C1693 0.970 . S
H1683 C1693 0.970 . S
H1684 C1695 0.930 . S
H1685 C1697 0.930 . S
H1686 C1699 0.930 . S
C1687 H1679 0.930 . S
C1687 C1688 1.382 . S
C1687 C1689 1.426 . S
C1688 C1687 1.382 . S
C1688 C1692 1.389 . S
C1689 C1687 1.426 . S
C1689 C1690 1.375 . S
C1689 C1693 1.532 . S
C1690 H1680 0.930 . S
C1690 C1689 1.375 . S
C1690 C1691 1.416 . S
C1691 C1690 1.416 . S
C1691 C1692 1.371 . S
C1692 H1681 0.930 . S
C1692 C1688 1.389 . S
C1692 C1691 1.371 . S
C1693 H1682 0.970 . S
C1693 H1683 0.970 . S
C1693 C1689 1.532 . S
C1693 C1694 1.499 . S
C1694 C1693 1.499 . S
C1694 C1695 1.370 . S
C1694 C1699 1.415 . S
C1695 H1684 0.930 . S
C1695 C1694 1.370 . S
C1695 C1696 1.407 . S
C1696 C1695 1.407 . S
C1696 C1697 1.365 . S
C1697 H1685 0.930 . S
C1697 C1696 1.365 . S
C1697 C1698 1.393 . S
C1698 C1697 1.393 . S
C1698 C1699 1.387 . S
C1699 H1686 0.930 . S
C1699 C1694 1.415 . S
C1699 C1698 1.387 . S
H1700 C1708 0.930 . S
H1701 C1711 0.930 . S
H1702 C1713 0.930 . S
H1703 C1714 0.970 . S
H1704 C1714 0.970 . S
H1705 C1716 0.930 . S
H1706 C1718 0.930 . S
H1707 C1720 0.930 . S
C1708 H1700 0.930 . S
C1708 C1709 1.382 . S
C1708 C1710 1.426 . S
C1709 C1708 1.382 . S
C1709 C1713 1.389 . S
C1710 C1708 1.426 . S
C1710 C1711 1.375 . S
C1710 C1714 1.532 . S
C1711 H1701 0.930 . S
C1711 C1710 1.375 . S
C1711 C1712 1.416 . S
C1712 C1711 1.416 . S
C1712 C1713 1.371 . S
C1713 H1702 0.930 . S
C1713 C1709 1.389 . S
C1713 C1712 1.371 . S
C1714 H1703 0.970 . S
C1714 H1704 0.970 . S
C1714 C1710 1.532 . S
C1714 C1715 1.499 . S
C1715 C1714 1.499 . S
C1715 C1716 1.370 . S
C1715 C1720 1.415 . S
C1716 H1705 0.930 . S
C1716 C1715 1.370 . S
C1716 C1717 1.407 . S
C1717 C1716 1.407 . S
C1717 C1718 1.365 . S
C1718 H1706 0.930 . S
C1718 C1717 1.365 . S
C1718 C1719 1.393 . S
C1719 C1718 1.393 . S
C1719 C1720 1.387 . S
C1720 H1707 0.930 . S
C1720 C1715 1.415 . S
C1720 C1719 1.387 . S
H1721 C1729 0.930 . S
H1722 C1732 0.930 . S
H1723 C1734 0.930 . S
H1724 C1735 0.970 . S
H1725 C1735 0.970 . S
H1726 C1737 0.930 . S
H1727 C1739 0.930 . S
H1728 C1741 0.930 . S
C1729 H1721 0.930 . S
C1729 C1730 1.382 . S
C1729 C1731 1.426 . S
C1730 C1729 1.382 . S
C1730 C1734 1.389 . S
C1731 C1729 1.426 . S
C1731 C1732 1.375 . S
C1731 C1735 1.532 . S
C1732 H1722 0.930 . S
C1732 C1731 1.375 . S
C1732 C1733 1.416 . S
C1733 C1732 1.416 . S
C1733 C1734 1.371 . S
C1734 H1723 0.930 . S
C1734 C1730 1.389 . S
C1734 C1733 1.371 . S
C1735 H1724 0.970 . S
C1735 H1725 0.970 . S
C1735 C1731 1.532 . S
C1735 C1736 1.499 . S
C1736 C1735 1.499 . S
C1736 C1737 1.370 . S
C1736 C1741 1.415 . S
C1737 H1726 0.930 . S
C1737 C1736 1.370 . S
C1737 C1738 1.407 . S
C1738 C1737 1.407 . S
C1738 C1739 1.365 . S
C1739 H1727 0.930 . S
C1739 C1738 1.365 . S
C1739 C1740 1.393 . S
C1740 C1739 1.393 . S
C1740 C1741 1.387 . S
C1741 H1728 0.930 . S
C1741 C1736 1.415 . S
C1741 C1740 1.387 . S
H1742 C1750 0.930 . S
H1743 C1753 0.930 . S
H1744 C1755 0.930 . S
H1745 C1756 0.970 . S
H1746 C1756 0.970 . S
H1747 C1758 0.930 . S
H1748 C1760 0.930 . S
H1749 C1762 0.930 . S
C1750 H1742 0.930 . S
C1750 C1751 1.382 . S
C1750 C1752 1.426 . S
C1751 C1750 1.382 . S
C1751 C1755 1.389 . S
C1752 C1750 1.426 . S
C1752 C1753 1.375 . S
C1752 C1756 1.532 . S
C1753 H1743 0.930 . S
C1753 C1752 1.375 . S
C1753 C1754 1.416 . S
C1754 C1753 1.416 . S
C1754 C1755 1.371 . S
C1755 H1744 0.930 . S
C1755 C1751 1.389 . S
C1755 C1754 1.371 . S
C1756 H1745 0.970 . S
C1756 H1746 0.970 . S
C1756 C1752 1.532 . S
C1756 C1757 1.499 . S
C1757 C1756 1.499 . S
C1757 C1758 1.370 . S
C1757 C1762 1.415 . S
C1758 H1747 0.930 . S
C1758 C1757 1.370 . S
C1758 C1759 1.407 . S
C1759 C1758 1.407 . S
C1759 C1760 1.365 . S
C1760 H1748 0.930 . S
C1760 C1759 1.365 . S
C1760 C1761 1.393 . S
C1761 C1760 1.393 . S
C1761 C1762 1.387 . S
C1762 H1749 0.930 . S
C1762 C1757 1.415 . S
C1762 C1761 1.387 . S
H1763 C1771 0.930 . S
H1764 C1774 0.930 . S
H1765 C1776 0.930 . S
H1766 C1777 0.970 . S
H1767 C1777 0.970 . S
H1768 C1779 0.930 . S
H1769 C1781 0.930 . S
H1770 C1783 0.930 . S
C1771 H1763 0.930 . S
C1771 C1772 1.382 . S
C1771 C1773 1.426 . S
C1772 C1771 1.382 . S
C1772 C1776 1.389 . S
C1773 C1771 1.426 . S
C1773 C1774 1.375 . S
C1773 C1777 1.532 . S
C1774 H1764 0.930 . S
C1774 C1773 1.375 . S
C1774 C1775 1.416 . S
C1775 C1774 1.416 . S
C1775 C1776 1.371 . S
C1776 H1765 0.930 . S
C1776 C1772 1.389 . S
C1776 C1775 1.371 . S
C1777 H1766 0.970 . S
C1777 H1767 0.970 . S
C1777 C1773 1.532 . S
C1777 C1778 1.499 . S
C1778 C1777 1.499 . S
C1778 C1779 1.370 . S
C1778 C1783 1.415 . S
C1779 H1768 0.930 . S
C1779 C1778 1.370 . S
C1779 C1780 1.407 . S
C1780 C1779 1.407 . S
C1780 C1781 1.365 . S
C1781 H1769 0.930 . S
C1781 C1780 1.365 . S
C1781 C1782 1.393 . S
C1782 C1781 1.393 . S
C1782 C1783 1.387 . S
C1783 H1770 0.930 . S
C1783 C1778 1.415 . S
C1783 C1782 1.387 . S
H1784 C1792 0.950 . S
H1785 C1797 0.950 . S
H1786 C1794 0.950 . S
H1787 C1796 0.950 . S
H1788 C1798 0.950 . S
H1789 C1800 0.950 . S
H1790 C1802 0.950 . S
H1791 C1803 0.950 . S
C1792 H1784 0.950 . S
C1792 C1793 1.386 . S
C1792 C1794 1.391 . S
C1793 C1792 1.386 . S
C1793 C1797 1.393 . S
C1794 H1786 0.950 . S
C1794 C1792 1.391 . S
C1794 C1795 1.400 . S
C1795 C1794 1.400 . S
C1795 C1796 1.398 . S
C1795 C1801 1.491 . S
C1796 H1787 0.950 . S
C1796 C1795 1.398 . S
C1796 C1797 1.391 . S
C1797 H1785 0.950 . S
C1797 C1793 1.393 . S
C1797 C1796 1.391 . S
C1798 H1788 0.950 . S
C1798 C1799 1.386 . S
C1798 C1800 1.391 . S
C1799 C1798 1.386 . S
C1799 C1803 1.393 . S
C1800 H1789 0.950 . S
C1800 C1798 1.391 . S
C1800 C1801 1.400 . S
C1801 C1795 1.491 . S
C1801 C1800 1.400 . S
C1801 C1802 1.398 . S
C1802 H1790 0.950 . S
C1802 C1801 1.398 . S
C1802 C1803 1.391 . S
C1803 H1791 0.950 . S
C1803 C1799 1.393 . S
C1803 C1802 1.391 . S
H1804 C1812 0.950 . S
H1805 C1817 0.950 . S
H1806 C1814 0.950 . S
H1807 C1816 0.950 . S
H1808 C1818 0.950 . S
H1809 C1820 0.950 . S
H1810 C1822 0.950 . S
H1811 C1823 0.950 . S
C1812 H1804 0.950 . S
C1812 C1813 1.386 . S
C1812 C1814 1.391 . S
C1813 C1812 1.386 . S
C1813 C1817 1.393 . S
C1814 H1806 0.950 . S
C1814 C1812 1.391 . S
C1814 C1815 1.400 . S
C1815 C1814 1.400 . S
C1815 C1816 1.398 . S
C1815 C1821 1.491 . S
C1816 H1807 0.950 . S
C1816 C1815 1.398 . S
C1816 C1817 1.391 . S
C1817 H1805 0.950 . S
C1817 C1813 1.393 . S
C1817 C1816 1.391 . S
C1818 H1808 0.950 . S
C1818 C1819 1.386 . S
C1818 C1820 1.391 . S
C1819 C1818 1.386 . S
C1819 C1823 1.393 . S
C1820 H1809 0.950 . S
C1820 C1818 1.391 . S
C1820 C1821 1.400 . S
C1821 C1815 1.491 . S
C1821 C1820 1.400 . S
C1821 C1822 1.398 . S
C1822 H1810 0.950 . S
C1822 C1821 1.398 . S
C1822 C1823 1.391 . S
C1823 H1811 0.950 . S
C1823 C1819 1.393 . S
C1823 C1822 1.391 . S
H1824 C1832 0.950 . S
H1825 C1837 0.950 . S
H1826 C1834 0.950 . S
H1827 C1836 0.950 . S
H1828 C1838 0.950 . S
H1829 C1840 0.950 . S
H1830 C1842 0.950 . S
H1831 C1843 0.950 . S
C1832 H1824 0.950 . S
C1832 C1833 1.386 . S
C1832 C1834 1.391 . S
C1833 C1832 1.386 . S
C1833 C1837 1.393 . S
C1834 H1826 0.950 . S
C1834 C1832 1.391 . S
C1834 C1835 1.400 . S
C1835 C1834 1.400 . S
C1835 C1836 1.398 . S
C1835 C1841 1.491 . S
C1836 H1827 0.950 . S
C1836 C1835 1.398 . S
C1836 C1837 1.391 . S
C1837 H1825 0.950 . S
C1837 C1833 1.393 . S
C1837 C1836 1.391 . S
C1838 H1828 0.950 . S
C1838 C1839 1.386 . S
C1838 C1840 1.391 . S
C1839 C1838 1.386 . S
C1839 C1843 1.393 . S
C1840 H1829 0.950 . S
C1840 C1838 1.391 . S
C1840 C1841 1.400 . S
C1841 C1835 1.491 . S
C1841 C1840 1.400 . S
C1841 C1842 1.398 . S
C1842 H1830 0.950 . S
C1842 C1841 1.398 . S
C1842 C1843 1.391 . S
C1843 H1831 0.950 . S
C1843 C1839 1.393 . S
C1843 C1842 1.391 . S
H1844 C1852 0.950 . S
H1845 C1857 0.950 . S
H1846 C1854 0.950 . S
H1847 C1856 0.950 . S
H1848 C1858 0.950 . S
H1849 C1860 0.950 . S
H1850 C1862 0.950 . S
H1851 C1863 0.950 . S
C1852 H1844 0.950 . S
C1852 C1853 1.386 . S
C1852 C1854 1.391 . S
C1853 C1852 1.386 . S
C1853 C1857 1.393 . S
C1854 H1846 0.950 . S
C1854 C1852 1.391 . S
C1854 C1855 1.400 . S
C1855 C1854 1.400 . S
C1855 C1856 1.398 . S
C1855 C1861 1.491 . S
C1856 H1847 0.950 . S
C1856 C1855 1.398 . S
C1856 C1857 1.391 . S
C1857 H1845 0.950 . S
C1857 C1853 1.393 . S
C1857 C1856 1.391 . S
C1858 H1848 0.950 . S
C1858 C1859 1.386 . S
C1858 C1860 1.391 . S
C1859 C1858 1.386 . S
C1859 C1863 1.393 . S
C1860 H1849 0.950 . S
C1860 C1858 1.391 . S
C1860 C1861 1.400 . S
C1861 C1855 1.491 . S
C1861 C1860 1.400 . S
C1861 C1862 1.398 . S
C1862 H1850 0.950 . S
C1862 C1861 1.398 . S
C1862 C1863 1.391 . S
C1863 H1851 0.950 . S
C1863 C1859 1.393 . S
C1863 C1862 1.391 . S
H1864 C1872 0.950 . S
H1865 C1877 0.950 . S
H1866 C1874 0.950 . S
H1867 C1876 0.950 . S
H1868 C1878 0.950 . S
H1869 C1880 0.950 . S
H1870 C1882 0.950 . S
H1871 C1883 0.950 . S
C1872 H1864 0.950 . S
C1872 C1873 1.386 . S
C1872 C1874 1.391 . S
C1873 C1872 1.386 . S
C1873 C1877 1.393 . S
C1874 H1866 0.950 . S
C1874 C1872 1.391 . S
C1874 C1875 1.400 . S
C1875 C1874 1.400 . S
C1875 C1876 1.398 . S
C1875 C1881 1.491 . S
C1876 H1867 0.950 . S
C1876 C1875 1.398 . S
C1876 C1877 1.391 . S
C1877 H1865 0.950 . S
C1877 C1873 1.393 . S
C1877 C1876 1.391 . S
C1878 H1868 0.950 . S
C1878 C1879 1.386 . S
C1878 C1880 1.391 . S
C1879 C1878 1.386 . S
C1879 C1883 1.393 . S
C1880 H1869 0.950 . S
C1880 C1878 1.391 . S
C1880 C1881 1.400 . S
C1881 C1875 1.491 . S
C1881 C1880 1.400 . S
C1881 C1882 1.398 . S
C1882 H1870 0.950 . S
C1882 C1881 1.398 . S
C1882 C1883 1.391 . S
C1883 H1871 0.950 . S
C1883 C1879 1.393 . S
C1883 C1882 1.391 . S
H1884 C1892 0.950 . S
H1885 C1897 0.950 . S
H1886 C1894 0.950 . S
H1887 C1896 0.950 . S
H1888 C1898 0.950 . S
H1889 C1900 0.950 . S
H1890 C1902 0.950 . S
H1891 C1903 0.950 . S
C1892 H1884 0.950 . S
C1892 C1893 1.386 . S
C1892 C1894 1.391 . S
C1893 C1892 1.386 . S
C1893 C1897 1.393 . S
C1894 H1886 0.950 . S
C1894 C1892 1.391 . S
C1894 C1895 1.400 . S
C1895 C1894 1.400 . S
C1895 C1896 1.398 . S
C1895 C1901 1.491 . S
C1896 H1887 0.950 . S
C1896 C1895 1.398 . S
C1896 C1897 1.391 . S
C1897 H1885 0.950 . S
C1897 C1893 1.393 . S
C1897 C1896 1.391 . S
C1898 H1888 0.950 . S
C1898 C1899 1.386 . S
C1898 C1900 1.391 . S
C1899 C1898 1.386 . S
C1899 C1903 1.393 . S
C1900 H1889 0.950 . S
C1900 C1898 1.391 . S
C1900 C1901 1.400 . S
C1901 C1895 1.491 . S
C1901 C1900 1.400 . S
C1901 C1902 1.398 . S
C1902 H1890 0.950 . S
C1902 C1901 1.398 . S
C1902 C1903 1.391 . S
C1903 H1891 0.950 . S
C1903 C1899 1.393 . S
C1903 C1902 1.391 . S
H1904 C1912 0.950 . S
H1905 C1917 0.950 . S
H1906 C1914 0.950 . S
H1907 C1916 0.950 . S
H1908 C1918 0.950 . S
H1909 C1920 0.950 . S
H1910 C1922 0.950 . S
H1911 C1923 0.950 . S
C1912 H1904 0.950 . S
C1912 C1913 1.386 . S
C1912 C1914 1.391 . S
C1913 C1912 1.386 . S
C1913 C1917 1.393 . S
C1914 H1906 0.950 . S
C1914 C1912 1.391 . S
C1914 C1915 1.400 . S
C1915 C1914 1.400 . S
C1915 C1916 1.398 . S
C1915 C1921 1.491 . S
C1916 H1907 0.950 . S
C1916 C1915 1.398 . S
C1916 C1917 1.391 . S
C1917 H1905 0.950 . S
C1917 C1913 1.393 . S
C1917 C1916 1.391 . S
C1918 H1908 0.950 . S
C1918 C1919 1.386 . S
C1918 C1920 1.391 . S
C1919 C1918 1.386 . S
C1919 C1923 1.393 . S
C1920 H1909 0.950 . S
C1920 C1918 1.391 . S
C1920 C1921 1.400 . S
C1921 C1915 1.491 . S
C1921 C1920 1.400 . S
C1921 C1922 1.398 . S
C1922 H1910 0.950 . S
C1922 C1921 1.398 . S
C1922 C1923 1.391 . S
C1923 H1911 0.950 . S
C1923 C1919 1.393 . S
C1923 C1922 1.391 . S
H1924 C1932 0.950 . S
H1925 C1937 0.950 . S
H1926 C1934 0.950 . S
H1927 C1936 0.950 . S
H1928 C1938 0.950 . S
H1929 C1940 0.950 . S
H1930 C1942 0.950 . S
H1931 C1943 0.950 . S
C1932 H1924 0.950 . S
C1932 C1933 1.386 . S
C1932 C1934 1.391 . S
C1933 C1932 1.386 . S
C1933 C1937 1.393 . S
C1934 H1926 0.950 . S
C1934 C1932 1.391 . S
C1934 C1935 1.400 . S
C1935 C1934 1.400 . S
C1935 C1936 1.398 . S
C1935 C1941 1.491 . S
C1936 H1927 0.950 . S
C1936 C1935 1.398 . S
C1936 C1937 1.391 . S
C1937 H1925 0.950 . S
C1937 C1933 1.393 . S
C1937 C1936 1.391 . S
C1938 H1928 0.950 . S
C1938 C1939 1.386 . S
C1938 C1940 1.391 . S
C1939 C1938 1.386 . S
C1939 C1943 1.393 . S
C1940 H1929 0.950 . S
C1940 C1938 1.391 . S
C1940 C1941 1.400 . S
C1941 C1935 1.491 . S
C1941 C1940 1.400 . S
C1941 C1942 1.398 . S
C1942 H1930 0.950 . S
C1942 C1941 1.398 . S
C1942 C1943 1.391 . S
C1943 H1931 0.950 . S
C1943 C1939 1.393 . S
C1943 C1942 1.391 . S
H1944 C1952 0.950 . S
H1945 C1957 0.950 . S
H1946 C1954 0.950 . S
H1947 C1956 0.950 . S
H1948 C1958 0.950 . S
H1949 C1960 0.950 . S
H1950 C1962 0.950 . S
H1951 C1963 0.950 . S
C1952 H1944 0.950 . S
C1952 C1953 1.386 . S
C1952 C1954 1.391 . S
C1953 C1952 1.386 . S
C1953 C1957 1.393 . S
C1954 H1946 0.950 . S
C1954 C1952 1.391 . S
C1954 C1955 1.400 . S
C1955 C1954 1.400 . S
C1955 C1956 1.398 . S
C1955 C1961 1.491 . S
C1956 H1947 0.950 . S
C1956 C1955 1.398 . S
C1956 C1957 1.391 . S
C1957 H1945 0.950 . S
C1957 C1953 1.393 . S
C1957 C1956 1.391 . S
C1958 H1948 0.950 . S
C1958 C1959 1.386 . S
C1958 C1960 1.391 . S
C1959 C1958 1.386 . S
C1959 C1963 1.393 . S
C1960 H1949 0.950 . S
C1960 C1958 1.391 . S
C1960 C1961 1.400 . S
C1961 C1955 1.491 . S
C1961 C1960 1.400 . S
C1961 C1962 1.398 . S
C1962 H1950 0.950 . S
C1962 C1961 1.398 . S
C1962 C1963 1.391 . S
C1963 H1951 0.950 . S
C1963 C1959 1.393 . S
C1963 C1962 1.391 . S
H1964 C1972 0.950 . S
H1965 C1977 0.950 . S
H1966 C1974 0.950 . S
H1967 C1976 0.950 . S
H1968 C1978 0.950 . S
H1969 C1980 0.950 . S
H1970 C1982 0.950 . S
H1971 C1983 0.950 . S
C1972 H1964 0.950 . S
C1972 C1973 1.386 . S
C1972 C1974 1.391 . S
C1973 C1972 1.386 . S
C1973 C1977 1.393 . S
C1974 H1966 0.950 . S
C1974 C1972 1.391 . S
C1974 C1975 1.400 . S
C1975 C1974 1.400 . S
C1975 C1976 1.398 . S
C1975 C1981 1.491 . S
C1976 H1967 0.950 . S
C1976 C1975 1.398 . S
C1976 C1977 1.391 . S
C1977 H1965 0.950 . S
C1977 C1973 1.393 . S
C1977 C1976 1.391 . S
C1978 H1968 0.950 . S
C1978 C1979 1.386 . S
C1978 C1980 1.391 . S
C1979 C1978 1.386 . S
C1979 C1983 1.393 . S
C1980 H1969 0.950 . S
C1980 C1978 1.391 . S
C1980 C1981 1.400 . S
C1981 C1975 1.491 . S
C1981 C1980 1.400 . S
C1981 C1982 1.398 . S
C1982 H1970 0.950 . S
C1982 C1981 1.398 . S
C1982 C1983 1.391 . S
C1983 H1971 0.950 . S
C1983 C1979 1.393 . S
C1983 C1982 1.391 . S
H1984 C1992 0.950 . S
H1985 C1997 0.950 . S
H1986 C1994 0.950 . S
H1987 C1996 0.950 . S
H1988 C1998 0.950 . S
H1989 C2000 0.950 . S
H1990 C2002 0.950 . S
H1991 C2003 0.950 . S
C1992 H1984 0.950 . S
C1992 C1993 1.386 . S
C1992 C1994 1.391 . S
C1993 C1992 1.386 . S
C1993 C1997 1.393 . S
C1994 H1986 0.950 . S
C1994 C1992 1.391 . S
C1994 C1995 1.400 . S
C1995 C1994 1.400 . S
C1995 C1996 1.398 . S
C1995 C2001 1.491 . S
C1996 H1987 0.950 . S
C1996 C1995 1.398 . S
C1996 C1997 1.391 . S
C1997 H1985 0.950 . S
C1997 C1993 1.393 . S
C1997 C1996 1.391 . S
C1998 H1988 0.950 . S
C1998 C1999 1.386 . S
C1998 C2000 1.391 . S
C1999 C1998 1.386 . S
C1999 C2003 1.393 . S
C2000 H1989 0.950 . S
C2000 C1998 1.391 . S
C2000 C2001 1.400 . S
C2001 C1995 1.491 . S
C2001 C2000 1.400 . S
C2001 C2002 1.398 . S
C2002 H1990 0.950 . S
C2002 C2001 1.398 . S
C2002 C2003 1.391 . S
C2003 H1991 0.950 . S
C2003 C1999 1.393 . S
C2003 C2002 1.391 . S
H2004 C2012 0.950 . S
H2005 C2017 0.950 . S
H2006 C2014 0.950 . S
H2007 C2016 0.950 . S
H2008 C2018 0.950 . S
H2009 C2020 0.950 . S
H2010 C2022 0.950 . S
H2011 C2023 0.950 . S
C2012 H2004 0.950 . S
C2012 C2013 1.386 . S
C2012 C2014 1.391 . S
C2013 C2012 1.386 . S
C2013 C2017 1.393 . S
C2014 H2006 0.950 . S
C2014 C2012 1.391 . S
C2014 C2015 1.400 . S
C2015 C2014 1.400 . S
C2015 C2016 1.398 . S
C2015 C2021 1.491 . S
C2016 H2007 0.950 . S
C2016 C2015 1.398 . S
C2016 C2017 1.391 . S
C2017 H2005 0.950 . S
C2017 C2013 1.393 . S
C2017 C2016 1.391 . S
C2018 H2008 0.950 . S
C2018 C2019 1.386 . S
C2018 C2020 1.391 . S
C2019 C2018 1.386 . S
C2019 C2023 1.393 . S
C2020 H2009 0.950 . S
C2020 C2018 1.391 . S
C2020 C2021 1.400 . S
C2021 C2015 1.491 . S
C2021 C2020 1.400 . S
C2021 C2022 1.398 . S
C2022 H2010 0.950 . S
C2022 C2021 1.398 . S
C2022 C2023 1.391 . S
C2023 H2011 0.950 . S
C2023 C2019 1.393 . S
C2023 C2022 1.391 . S
H2024 C2032 0.950 . S
H2025 C2037 0.950 . S
H2026 C2034 0.950 . S
H2027 C2036 0.950 . S
H2028 C2038 0.950 . S
H2029 C2040 0.950 . S
H2030 C2042 0.950 . S
H2031 C2043 0.950 . S
C2032 H2024 0.950 . S
C2032 C2033 1.386 . S
C2032 C2034 1.391 . S
C2033 C2032 1.386 . S
C2033 C2037 1.393 . S
C2034 H2026 0.950 . S
C2034 C2032 1.391 . S
C2034 C2035 1.400 . S
C2035 C2034 1.400 . S
C2035 C2036 1.398 . S
C2035 C2041 1.491 . S
C2036 H2027 0.950 . S
C2036 C2035 1.398 . S
C2036 C2037 1.391 . S
C2037 H2025 0.950 . S
C2037 C2033 1.393 . S
C2037 C2036 1.391 . S
C2038 H2028 0.950 . S
C2038 C2039 1.386 . S
C2038 C2040 1.391 . S
C2039 C2038 1.386 . S
C2039 C2043 1.393 . S
C2040 H2029 0.950 . S
C2040 C2038 1.391 . S
C2040 C2041 1.400 . S
C2041 C2035 1.491 . S
C2041 C2040 1.400 . S
C2041 C2042 1.398 . S
C2042 H2030 0.950 . S
C2042 C2041 1.398 . S
C2042 C2043 1.391 . S
C2043 H2031 0.950 . S
C2043 C2039 1.393 . S
C2043 C2042 1.391 . S
H2044 C2052 0.950 . S
H2045 C2057 0.950 . S
H2046 C2054 0.950 . S
H2047 C2056 0.950 . S
H2048 C2058 0.950 . S
H2049 C2060 0.950 . S
H2050 C2062 0.950 . S
H2051 C2063 0.950 . S
C2052 H2044 0.950 . S
C2052 C2053 1.386 . S
C2052 C2054 1.391 . S
C2053 C2052 1.386 . S
C2053 C2057 1.393 . S
C2054 H2046 0.950 . S
C2054 C2052 1.391 . S
C2054 C2055 1.400 . S
C2055 C2054 1.400 . S
C2055 C2056 1.398 . S
C2055 C2061 1.491 . S
C2056 H2047 0.950 . S
C2056 C2055 1.398 . S
C2056 C2057 1.391 . S
C2057 H2045 0.950 . S
C2057 C2053 1.393 . S
C2057 C2056 1.391 . S
C2058 H2048 0.950 . S
C2058 C2059 1.386 . S
C2058 C2060 1.391 . S
C2059 C2058 1.386 . S
C2059 C2063 1.393 . S
C2060 H2049 0.950 . S
C2060 C2058 1.391 . S
C2060 C2061 1.400 . S
C2061 C2055 1.491 . S
C2061 C2060 1.400 . S
C2061 C2062 1.398 . S
C2062 H2050 0.950 . S
C2062 C2061 1.398 . S
C2062 C2063 1.391 . S
C2063 H2051 0.950 . S
C2063 C2059 1.393 . S
C2063 C2062 1.391 . S
H2064 C2072 0.950 . S
H2065 C2077 0.950 . S
H2066 C2074 0.950 . S
H2067 C2076 0.950 . S
H2068 C2078 0.950 . S
H2069 C2080 0.950 . S
H2070 C2082 0.950 . S
H2071 C2083 0.950 . S
C2072 H2064 0.950 . S
C2072 C2073 1.386 . S
C2072 C2074 1.391 . S
C2073 C2072 1.386 . S
C2073 C2077 1.393 . S
C2074 H2066 0.950 . S
C2074 C2072 1.391 . S
C2074 C2075 1.400 . S
C2075 C2074 1.400 . S
C2075 C2076 1.398 . S
C2075 C2081 1.491 . S
C2076 H2067 0.950 . S
C2076 C2075 1.398 . S
C2076 C2077 1.391 . S
C2077 H2065 0.950 . S
C2077 C2073 1.393 . S
C2077 C2076 1.391 . S
C2078 H2068 0.950 . S
C2078 C2079 1.386 . S
C2078 C2080 1.391 . S
C2079 C2078 1.386 . S
C2079 C2083 1.393 . S
C2080 H2069 0.950 . S
C2080 C2078 1.391 . S
C2080 C2081 1.400 . S
C2081 C2075 1.491 . S
C2081 C2080 1.400 . S
C2081 C2082 1.398 . S
C2082 H2070 0.950 . S
C2082 C2081 1.398 . S
C2082 C2083 1.391 . S
C2083 H2071 0.950 . S
C2083 C2079 1.393 . S
C2083 C2082 1.391 . S
H2084 C2092 0.950 . S
H2085 C2097 0.950 . S
H2086 C2094 0.950 . S
H2087 C2096 0.950 . S
H2088 C2098 0.950 . S
H2089 C2100 0.950 . S
H2090 C2102 0.950 . S
H2091 C2103 0.950 . S
C2092 H2084 0.950 . S
C2092 C2093 1.386 . S
C2092 C2094 1.391 . S
C2093 C2092 1.386 . S
C2093 C2097 1.393 . S
C2094 H2086 0.950 . S
C2094 C2092 1.391 . S
C2094 C2095 1.400 . S
C2095 C2094 1.400 . S
C2095 C2096 1.398 . S
C2095 C2101 1.491 . S
C2096 H2087 0.950 . S
C2096 C2095 1.398 . S
C2096 C2097 1.391 . S
C2097 H2085 0.950 . S
C2097 C2093 1.393 . S
C2097 C2096 1.391 . S
C2098 H2088 0.950 . S
C2098 C2099 1.386 . S
C2098 C2100 1.391 . S
C2099 C2098 1.386 . S
C2099 C2103 1.393 . S
C2100 H2089 0.950 . S
C2100 C2098 1.391 . S
C2100 C2101 1.400 . S
C2101 C2095 1.491 . S
C2101 C2100 1.400 . S
C2101 C2102 1.398 . S
C2102 H2090 0.950 . S
C2102 C2101 1.398 . S
C2102 C2103 1.391 . S
C2103 H2091 0.950 . S
C2103 C2099 1.393 . S
C2103 C2102 1.391 . S
H2104 C2112 0.950 . S
H2105 C2117 0.950 . S
H2106 C2114 0.950 . S
H2107 C2116 0.950 . S
H2108 C2118 0.950 . S
H2109 C2120 0.950 . S
H2110 C2122 0.950 . S
H2111 C2123 0.950 . S
C2112 H2104 0.950 . S
C2112 C2113 1.386 . S
C2112 C2114 1.391 . S
C2113 C2112 1.386 . S
C2113 C2117 1.393 . S
C2114 H2106 0.950 . S
C2114 C2112 1.391 . S
C2114 C2115 1.400 . S
C2115 C2114 1.400 . S
C2115 C2116 1.398 . S
C2115 C2121 1.491 . S
C2116 H2107 0.950 . S
C2116 C2115 1.398 . S
C2116 C2117 1.391 . S
C2117 H2105 0.950 . S
C2117 C2113 1.393 . S
C2117 C2116 1.391 . S
C2118 H2108 0.950 . S
C2118 C2119 1.386 . S
C2118 C2120 1.391 . S
C2119 C2118 1.386 . S
C2119 C2123 1.393 . S
C2120 H2109 0.950 . S
C2120 C2118 1.391 . S
C2120 C2121 1.400 . S
C2121 C2115 1.491 . S
C2121 C2120 1.400 . S
C2121 C2122 1.398 . S
C2122 H2110 0.950 . S
C2122 C2121 1.398 . S
C2122 C2123 1.391 . S
C2123 H2111 0.950 . S
C2123 C2119 1.393 . S
C2123 C2122 1.391 . S
H2124 C2132 0.950 . S
H2125 C2137 0.950 . S
H2126 C2134 0.950 . S
H2127 C2136 0.950 . S
H2128 C2138 0.950 . S
H2129 C2140 0.950 . S
H2130 C2142 0.950 . S
H2131 C2143 0.950 . S
C2132 H2124 0.950 . S
C2132 C2133 1.386 . S
C2132 C2134 1.391 . S
C2133 C2132 1.386 . S
C2133 C2137 1.393 . S
C2134 H2126 0.950 . S
C2134 C2132 1.391 . S
C2134 C2135 1.400 . S
C2135 C2134 1.400 . S
C2135 C2136 1.398 . S
C2135 C2141 1.491 . S
C2136 H2127 0.950 . S
C2136 C2135 1.398 . S
C2136 C2137 1.391 . S
C2137 H2125 0.950 . S
C2137 C2133 1.393 . S
C2137 C2136 1.391 . S
C2138 H2128 0.950 . S
C2138 C2139 1.386 . S
C2138 C2140 1.391 . S
C2139 C2138 1.386 . S
C2139 C2143 1.393 . S
C2140 H2129 0.950 . S
C2140 C2138 1.391 . S
C2140 C2141 1.400 . S
C2141 C2135 1.491 . S
C2141 C2140 1.400 . S
C2141 C2142 1.398 . S
C2142 H2130 0.950 . S
C2142 C2141 1.398 . S
C2142 C2143 1.391 . S
C2143 H2131 0.950 . S
C2143 C2139 1.393 . S
C2143 C2142 1.391 . S
H2144 C2152 0.950 . S
H2145 C2157 0.950 . S
H2146 C2154 0.950 . S
H2147 C2156 0.950 . S
H2148 C2158 0.950 . S
H2149 C2160 0.950 . S
H2150 C2162 0.950 . S
H2151 C2163 0.950 . S
C2152 H2144 0.950 . S
C2152 C2153 1.386 . S
C2152 C2154 1.391 . S
C2153 C2152 1.386 . S
C2153 C2157 1.393 . S
C2154 H2146 0.950 . S
C2154 C2152 1.391 . S
C2154 C2155 1.400 . S
C2155 C2154 1.400 . S
C2155 C2156 1.398 . S
C2155 C2161 1.491 . S
C2156 H2147 0.950 . S
C2156 C2155 1.398 . S
C2156 C2157 1.391 . S
C2157 H2145 0.950 . S
C2157 C2153 1.393 . S
C2157 C2156 1.391 . S
C2158 H2148 0.950 . S
C2158 C2159 1.386 . S
C2158 C2160 1.391 . S
C2159 C2158 1.386 . S
C2159 C2163 1.393 . S
C2160 H2149 0.950 . S
C2160 C2158 1.391 . S
C2160 C2161 1.400 . S
C2161 C2155 1.491 . S
C2161 C2160 1.400 . S
C2161 C2162 1.398 . S
C2162 H2150 0.950 . S
C2162 C2161 1.398 . S
C2162 C2163 1.391 . S
C2163 H2151 0.950 . S
C2163 C2159 1.393 . S
C2163 C2162 1.391 . S
H2164 C2172 0.950 . S
H2165 C2177 0.950 . S
H2166 C2174 0.950 . S
H2167 C2176 0.950 . S
H2168 C2178 0.950 . S
H2169 C2180 0.950 . S
H2170 C2182 0.950 . S
H2171 C2183 0.950 . S
C2172 H2164 0.950 . S
C2172 C2173 1.386 . S
C2172 C2174 1.391 . S
C2173 C2172 1.386 . S
C2173 C2177 1.393 . S
C2174 H2166 0.950 . S
C2174 C2172 1.391 . S
C2174 C2175 1.400 . S
C2175 C2174 1.400 . S
C2175 C2176 1.398 . S
C2175 C2181 1.491 . S
C2176 H2167 0.950 . S
C2176 C2175 1.398 . S
C2176 C2177 1.391 . S
C2177 H2165 0.950 . S
C2177 C2173 1.393 . S
C2177 C2176 1.391 . S
C2178 H2168 0.950 . S
C2178 C2179 1.386 . S
C2178 C2180 1.391 . S
C2179 C2178 1.386 . S
C2179 C2183 1.393 . S
C2180 H2169 0.950 . S
C2180 C2178 1.391 . S
C2180 C2181 1.400 . S
C2181 C2175 1.491 . S
C2181 C2180 1.400 . S
C2181 C2182 1.398 . S
C2182 H2170 0.950 . S
C2182 C2181 1.398 . S
C2182 C2183 1.391 . S
C2183 H2171 0.950 . S
C2183 C2179 1.393 . S
C2183 C2182 1.391 . S
H2184 C2192 0.950 . S
H2185 C2197 0.950 . S
H2186 C2194 0.950 . S
H2187 C2196 0.950 . S
H2188 C2198 0.950 . S
H2189 C2200 0.950 . S
H2190 C2202 0.950 . S
H2191 C2203 0.950 . S
C2192 H2184 0.950 . S
C2192 C2193 1.386 . S
C2192 C2194 1.391 . S
C2193 C2192 1.386 . S
C2193 C2197 1.393 . S
C2194 H2186 0.950 . S
C2194 C2192 1.391 . S
C2194 C2195 1.400 . S
C2195 C2194 1.400 . S
C2195 C2196 1.398 . S
C2195 C2201 1.491 . S
C2196 H2187 0.950 . S
C2196 C2195 1.398 . S
C2196 C2197 1.391 . S
C2197 H2185 0.950 . S
C2197 C2193 1.393 . S
C2197 C2196 1.391 . S
C2198 H2188 0.950 . S
C2198 C2199 1.386 . S
C2198 C2200 1.391 . S
C2199 C2198 1.386 . S
C2199 C2203 1.393 . S
C2200 H2189 0.950 . S
C2200 C2198 1.391 . S
C2200 C2201 1.400 . S
C2201 C2195 1.491 . S
C2201 C2200 1.400 . S
C2201 C2202 1.398 . S
C2202 H2190 0.950 . S
C2202 C2201 1.398 . S
C2202 C2203 1.391 . S
C2203 H2191 0.950 . S
C2203 C2199 1.393 . S
C2203 C2202 1.391 . S
H2204 C2212 0.950 . S
H2205 C2217 0.950 . S
H2206 C2214 0.950 . S
H2207 C2216 0.950 . S
H2208 C2218 0.950 . S
H2209 C2220 0.950 . S
H2210 C2222 0.950 . S
H2211 C2223 0.950 . S
C2212 H2204 0.950 . S
C2212 C2213 1.386 . S
C2212 C2214 1.391 . S
C2213 C2212 1.386 . S
C2213 C2217 1.393 . S
C2214 H2206 0.950 . S
C2214 C2212 1.391 . S
C2214 C2215 1.400 . S
C2215 C2214 1.400 . S
C2215 C2216 1.398 . S
C2215 C2221 1.491 . S
C2216 H2207 0.950 . S
C2216 C2215 1.398 . S
C2216 C2217 1.391 . S
C2217 H2205 0.950 . S
C2217 C2213 1.393 . S
C2217 C2216 1.391 . S
C2218 H2208 0.950 . S
C2218 C2219 1.386 . S
C2218 C2220 1.391 . S
C2219 C2218 1.386 . S
C2219 C2223 1.393 . S
C2220 H2209 0.950 . S
C2220 C2218 1.391 . S
C2220 C2221 1.400 . S
C2221 C2215 1.491 . S
C2221 C2220 1.400 . S
C2221 C2222 1.398 . S
C2222 H2210 0.950 . S
C2222 C2221 1.398 . S
C2222 C2223 1.391 . S
C2223 H2211 0.950 . S
C2223 C2219 1.393 . S
C2223 C2222 1.391 . S
H2224 C2232 0.950 . S
H2225 C2237 0.950 . S
H2226 C2234 0.950 . S
H2227 C2236 0.950 . S
H2228 C2238 0.950 . S
H2229 C2240 0.950 . S
H2230 C2242 0.950 . S
H2231 C2243 0.950 . S
C2232 H2224 0.950 . S
C2232 C2233 1.386 . S
C2232 C2234 1.391 . S
C2233 C2232 1.386 . S
C2233 C2237 1.393 . S
C2234 H2226 0.950 . S
C2234 C2232 1.391 . S
C2234 C2235 1.400 . S
C2235 C2234 1.400 . S
C2235 C2236 1.398 . S
C2235 C2241 1.491 . S
C2236 H2227 0.950 . S
C2236 C2235 1.398 . S
C2236 C2237 1.391 . S
C2237 H2225 0.950 . S
C2237 C2233 1.393 . S
C2237 C2236 1.391 . S
C2238 H2228 0.950 . S
C2238 C2239 1.386 . S
C2238 C2240 1.391 . S
C2239 C2238 1.386 . S
C2239 C2243 1.393 . S
C2240 H2229 0.950 . S
C2240 C2238 1.391 . S
C2240 C2241 1.400 . S
C2241 C2235 1.491 . S
C2241 C2240 1.400 . S
C2241 C2242 1.398 . S
C2242 H2230 0.950 . S
C2242 C2241 1.398 . S
C2242 C2243 1.391 . S
C2243 H2231 0.950 . S
C2243 C2239 1.393 . S
C2243 C2242 1.391 . S
H2244 C2252 0.950 . S
H2245 C2257 0.950 . S
H2246 C2254 0.950 . S
H2247 C2256 0.950 . S
H2248 C2258 0.950 . S
H2249 C2260 0.950 . S
H2250 C2262 0.950 . S
H2251 C2263 0.950 . S
C2252 H2244 0.950 . S
C2252 C2253 1.386 . S
C2252 C2254 1.391 . S
C2253 C2252 1.386 . S
C2253 C2257 1.393 . S
C2254 H2246 0.950 . S
C2254 C2252 1.391 . S
C2254 C2255 1.400 . S
C2255 C2254 1.400 . S
C2255 C2256 1.398 . S
C2255 C2261 1.491 . S
C2256 H2247 0.950 . S
C2256 C2255 1.398 . S
C2256 C2257 1.391 . S
C2257 H2245 0.950 . S
C2257 C2253 1.393 . S
C2257 C2256 1.391 . S
C2258 H2248 0.950 . S
C2258 C2259 1.386 . S
C2258 C2260 1.391 . S
C2259 C2258 1.386 . S
C2259 C2263 1.393 . S
C2260 H2249 0.950 . S
C2260 C2258 1.391 . S
C2260 C2261 1.400 . S
C2261 C2255 1.491 . S
C2261 C2260 1.400 . S
C2261 C2262 1.398 . S
C2262 H2250 0.950 . S
C2262 C2261 1.398 . S
C2262 C2263 1.391 . S
C2263 H2251 0.950 . S
C2263 C2259 1.393 . S
C2263 C2262 1.391 . S
H2264 C2272 0.950 . S
H2265 C2277 0.950 . S
H2266 C2274 0.950 . S
H2267 C2276 0.950 . S
H2268 C2278 0.950 . S
H2269 C2280 0.950 . S
H2270 C2282 0.950 . S
H2271 C2283 0.950 . S
C2272 H2264 0.950 . S
C2272 C2273 1.386 . S
C2272 C2274 1.391 . S
C2273 C2272 1.386 . S
C2273 C2277 1.393 . S
C2274 H2266 0.950 . S
C2274 C2272 1.391 . S
C2274 C2275 1.400 . S
C2275 C2274 1.400 . S
C2275 C2276 1.398 . S
C2275 C2281 1.491 . S
C2276 H2267 0.950 . S
C2276 C2275 1.398 . S
C2276 C2277 1.391 . S
C2277 H2265 0.950 . S
C2277 C2273 1.393 . S
C2277 C2276 1.391 . S
C2278 H2268 0.950 . S
C2278 C2279 1.386 . S
C2278 C2280 1.391 . S
C2279 C2278 1.386 . S
C2279 C2283 1.393 . S
C2280 H2269 0.950 . S
C2280 C2278 1.391 . S
C2280 C2281 1.400 . S
C2281 C2275 1.491 . S
C2281 C2280 1.400 . S
C2281 C2282 1.398 . S
C2282 H2270 0.950 . S
C2282 C2281 1.398 . S
C2282 C2283 1.391 . S
C2283 H2271 0.950 . S
C2283 C2279 1.393 . S
C2283 C2282 1.391 . S
H2284 C2292 0.950 . S
H2285 C2297 0.950 . S
H2286 C2294 0.950 . S
H2287 C2296 0.950 . S
H2288 C2298 0.950 . S
H2289 C2300 0.950 . S
H2290 C2302 0.950 . S
H2291 C2303 0.950 . S
C2292 H2284 0.950 . S
C2292 C2293 1.386 . S
C2292 C2294 1.391 . S
C2293 C2292 1.386 . S
C2293 C2297 1.393 . S
C2294 H2286 0.950 . S
C2294 C2292 1.391 . S
C2294 C2295 1.400 . S
C2295 C2294 1.400 . S
C2295 C2296 1.398 . S
C2295 C2301 1.491 . S
C2296 H2287 0.950 . S
C2296 C2295 1.398 . S
C2296 C2297 1.391 . S
C2297 H2285 0.950 . S
C2297 C2293 1.393 . S
C2297 C2296 1.391 . S
C2298 H2288 0.950 . S
C2298 C2299 1.386 . S
C2298 C2300 1.391 . S
C2299 C2298 1.386 . S
C2299 C2303 1.393 . S
C2300 H2289 0.950 . S
C2300 C2298 1.391 . S
C2300 C2301 1.400 . S
C2301 C2295 1.491 . S
C2301 C2300 1.400 . S
C2301 C2302 1.398 . S
C2302 H2290 0.950 . S
C2302 C2301 1.398 . S
C2302 C2303 1.391 . S
C2303 H2291 0.950 . S
C2303 C2299 1.393 . S
C2303 C2302 1.391 . S
H2304 C2312 0.950 . S
H2305 C2317 0.950 . S
H2306 C2314 0.950 . S
H2307 C2316 0.950 . S
H2308 C2318 0.950 . S
H2309 C2320 0.950 . S
H2310 C2322 0.950 . S
H2311 C2323 0.950 . S
C2312 H2304 0.950 . S
C2312 C2313 1.386 . S
C2312 C2314 1.391 . S
C2313 C2312 1.386 . S
C2313 C2317 1.393 . S
C2314 H2306 0.950 . S
C2314 C2312 1.391 . S
C2314 C2315 1.400 . S
C2315 C2314 1.400 . S
C2315 C2316 1.398 . S
C2315 C2321 1.491 . S
C2316 H2307 0.950 . S
C2316 C2315 1.398 . S
C2316 C2317 1.391 . S
C2317 H2305 0.950 . S
C2317 C2313 1.393 . S
C2317 C2316 1.391 . S
C2318 H2308 0.950 . S
C2318 C2319 1.386 . S
C2318 C2320 1.391 . S
C2319 C2318 1.386 . S
C2319 C2323 1.393 . S
C2320 H2309 0.950 . S
C2320 C2318 1.391 . S
C2320 C2321 1.400 . S
C2321 C2315 1.491 . S
C2321 C2320 1.400 . S
C2321 C2322 1.398 . S
C2322 H2310 0.950 . S
C2322 C2321 1.398 . S
C2322 C2323 1.391 . S
C2323 H2311 0.950 . S
C2323 C2319 1.393 . S
C2323 C2322 1.391 . S
H2324 C2332 0.950 . S
H2325 C2337 0.950 . S
H2326 C2334 0.950 . S
H2327 C2336 0.950 . S
H2328 C2338 0.950 . S
H2329 C2340 0.950 . S
H2330 C2342 0.950 . S
H2331 C2343 0.950 . S
C2332 H2324 0.950 . S
C2332 C2333 1.386 . S
C2332 C2334 1.391 . S
C2333 C2332 1.386 . S
C2333 C2337 1.393 . S
C2334 H2326 0.950 . S
C2334 C2332 1.391 . S
C2334 C2335 1.400 . S
C2335 C2334 1.400 . S
C2335 C2336 1.398 . S
C2335 C2341 1.491 . S
C2336 H2327 0.950 . S
C2336 C2335 1.398 . S
C2336 C2337 1.391 . S
C2337 H2325 0.950 . S
C2337 C2333 1.393 . S
C2337 C2336 1.391 . S
C2338 H2328 0.950 . S
C2338 C2339 1.386 . S
C2338 C2340 1.391 . S
C2339 C2338 1.386 . S
C2339 C2343 1.393 . S
C2340 H2329 0.950 . S
C2340 C2338 1.391 . S
C2340 C2341 1.400 . S
C2341 C2335 1.491 . S
C2341 C2340 1.400 . S
C2341 C2342 1.398 . S
C2342 H2330 0.950 . S
C2342 C2341 1.398 . S
C2342 C2343 1.391 . S
C2343 H2331 0.950 . S
C2343 C2339 1.393 . S
C2343 C2342 1.391 . S
H2344 C2352 0.950 . S
H2345 C2357 0.950 . S
H2346 C2354 0.950 . S
H2347 C2356 0.950 . S
H2348 C2358 0.950 . S
H2349 C2360 0.950 . S
H2350 C2362 0.950 . S
H2351 C2363 0.950 . S
C2352 H2344 0.950 . S
C2352 C2353 1.386 . S
C2352 C2354 1.391 . S
C2353 C2352 1.386 . S
C2353 C2357 1.393 . S
C2354 H2346 0.950 . S
C2354 C2352 1.391 . S
C2354 C2355 1.400 . S
C2355 C2354 1.400 . S
C2355 C2356 1.398 . S
C2355 C2361 1.491 . S
C2356 H2347 0.950 . S
C2356 C2355 1.398 . S
C2356 C2357 1.391 . S
C2357 H2345 0.950 . S
C2357 C2353 1.393 . S
C2357 C2356 1.391 . S
C2358 H2348 0.950 . S
C2358 C2359 1.386 . S
C2358 C2360 1.391 . S
C2359 C2358 1.386 . S
C2359 C2363 1.393 . S
C2360 H2349 0.950 . S
C2360 C2358 1.391 . S
C2360 C2361 1.400 . S
C2361 C2355 1.491 . S
C2361 C2360 1.400 . S
C2361 C2362 1.398 . S
C2362 H2350 0.950 . S
C2362 C2361 1.398 . S
C2362 C2363 1.391 . S
C2363 H2351 0.950 . S
C2363 C2359 1.393 . S
C2363 C2362 1.391 . S
H2364 C2372 0.950 . S
H2365 C2377 0.950 . S
H2366 C2374 0.950 . S
H2367 C2376 0.950 . S
H2368 C2378 0.950 . S
H2369 C2380 0.950 . S
H2370 C2382 0.950 . S
H2371 C2383 0.950 . S
C2372 H2364 0.950 . S
C2372 C2373 1.386 . S
C2372 C2374 1.391 . S
C2373 C2372 1.386 . S
C2373 C2377 1.393 . S
C2374 H2366 0.950 . S
C2374 C2372 1.391 . S
C2374 C2375 1.400 . S
C2375 C2374 1.400 . S
C2375 C2376 1.398 . S
C2375 C2381 1.491 . S
C2376 H2367 0.950 . S
C2376 C2375 1.398 . S
C2376 C2377 1.391 . S
C2377 H2365 0.950 . S
C2377 C2373 1.393 . S
C2377 C2376 1.391 . S
C2378 H2368 0.950 . S
C2378 C2379 1.386 . S
C2378 C2380 1.391 . S
C2379 C2378 1.386 . S
C2379 C2383 1.393 . S
C2380 H2369 0.950 . S
C2380 C2378 1.391 . S
C2380 C2381 1.400 . S
C2381 C2375 1.491 . S
C2381 C2380 1.400 . S
C2381 C2382 1.398 . S
C2382 H2370 0.950 . S
C2382 C2381 1.398 . S
C2382 C2383 1.391 . S
C2383 H2371 0.950 . S
C2383 C2379 1.393 . S
C2383 C2382 1.391 . S
H2384 C2392 0.950 . S
H2385 C2397 0.950 . S
H2386 C2394 0.950 . S
H2387 C2396 0.950 . S
H2388 C2398 0.950 . S
H2389 C2400 0.950 . S
H2390 C2402 0.950 . S
H2391 C2403 0.950 . S
C2392 H2384 0.950 . S
C2392 C2393 1.386 . S
C2392 C2394 1.391 . S
C2393 C2392 1.386 . S
C2393 C2397 1.393 . S
C2394 H2386 0.950 . S
C2394 C2392 1.391 . S
C2394 C2395 1.400 . S
C2395 C2394 1.400 . S
C2395 C2396 1.398 . S
C2395 C2401 1.491 . S
C2396 H2387 0.950 . S
C2396 C2395 1.398 . S
C2396 C2397 1.391 . S
C2397 H2385 0.950 . S
C2397 C2393 1.393 . S
C2397 C2396 1.391 . S
C2398 H2388 0.950 . S
C2398 C2399 1.386 . S
C2398 C2400 1.391 . S
C2399 C2398 1.386 . S
C2399 C2403 1.393 . S
C2400 H2389 0.950 . S
C2400 C2398 1.391 . S
C2400 C2401 1.400 . S
C2401 C2395 1.491 . S
C2401 C2400 1.400 . S
C2401 C2402 1.398 . S
C2402 H2390 0.950 . S
C2402 C2401 1.398 . S
C2402 C2403 1.391 . S
C2403 H2391 0.950 . S
C2403 C2399 1.393 . S
C2403 C2402 1.391 . S
H2404 C2412 0.950 . S
H2405 C2417 0.950 . S
H2406 C2414 0.950 . S
H2407 C2416 0.950 . S
H2408 C2418 0.950 . S
H2409 C2420 0.950 . S
H2410 C2422 0.950 . S
H2411 C2423 0.950 . S
C2412 H2404 0.950 . S
C2412 C2413 1.386 . S
C2412 C2414 1.391 . S
C2413 C2412 1.386 . S
C2413 C2417 1.393 . S
C2414 H2406 0.950 . S
C2414 C2412 1.391 . S
C2414 C2415 1.400 . S
C2415 C2414 1.400 . S
C2415 C2416 1.398 . S
C2415 C2421 1.491 . S
C2416 H2407 0.950 . S
C2416 C2415 1.398 . S
C2416 C2417 1.391 . S
C2417 H2405 0.950 . S
C2417 C2413 1.393 . S
C2417 C2416 1.391 . S
C2418 H2408 0.950 . S
C2418 C2419 1.386 . S
C2418 C2420 1.391 . S
C2419 C2418 1.386 . S
C2419 C2423 1.393 . S
C2420 H2409 0.950 . S
C2420 C2418 1.391 . S
C2420 C2421 1.400 . S
C2421 C2415 1.491 . S
C2421 C2420 1.400 . S
C2421 C2422 1.398 . S
C2422 H2410 0.950 . S
C2422 C2421 1.398 . S
C2422 C2423 1.391 . S
C2423 H2411 0.950 . S
C2423 C2419 1.393 . S
C2423 C2422 1.391 . S
H2424 C2432 0.950 . S
H2425 C2437 0.950 . S
H2426 C2434 0.950 . S
H2427 C2436 0.950 . S
H2428 C2438 0.950 . S
H2429 C2440 0.950 . S
H2430 C2442 0.950 . S
H2431 C2443 0.950 . S
C2432 H2424 0.950 . S
C2432 C2433 1.386 . S
C2432 C2434 1.391 . S
C2433 C2432 1.386 . S
C2433 C2437 1.393 . S
C2434 H2426 0.950 . S
C2434 C2432 1.391 . S
C2434 C2435 1.400 . S
C2435 C2434 1.400 . S
C2435 C2436 1.398 . S
C2435 C2441 1.491 . S
C2436 H2427 0.950 . S
C2436 C2435 1.398 . S
C2436 C2437 1.391 . S
C2437 H2425 0.950 . S
C2437 C2433 1.393 . S
C2437 C2436 1.391 . S
C2438 H2428 0.950 . S
C2438 C2439 1.386 . S
C2438 C2440 1.391 . S
C2439 C2438 1.386 . S
C2439 C2443 1.393 . S
C2440 H2429 0.950 . S
C2440 C2438 1.391 . S
C2440 C2441 1.400 . S
C2441 C2435 1.491 . S
C2441 C2440 1.400 . S
C2441 C2442 1.398 . S
C2442 H2430 0.950 . S
C2442 C2441 1.398 . S
C2442 C2443 1.391 . S
C2443 H2431 0.950 . S
C2443 C2439 1.393 . S
C2443 C2442 1.391 . S
H2444 C2452 0.950 . S
H2445 C2457 0.950 . S
H2446 C2454 0.950 . S
H2447 C2456 0.950 . S
H2448 C2458 0.950 . S
H2449 C2460 0.950 . S
H2450 C2462 0.950 . S
H2451 C2463 0.950 . S
C2452 H2444 0.950 . S
C2452 C2453 1.386 . S
C2452 C2454 1.391 . S
C2453 C2452 1.386 . S
C2453 C2457 1.393 . S
C2454 H2446 0.950 . S
C2454 C2452 1.391 . S
C2454 C2455 1.400 . S
C2455 C2454 1.400 . S
C2455 C2456 1.398 . S
C2455 C2461 1.491 . S
C2456 H2447 0.950 . S
C2456 C2455 1.398 . S
C2456 C2457 1.391 . S
C2457 H2445 0.950 . S
C2457 C2453 1.393 . S
C2457 C2456 1.391 . S
C2458 H2448 0.950 . S
C2458 C2459 1.386 . S
C2458 C2460 1.391 . S
C2459 C2458 1.386 . S
C2459 C2463 1.393 . S
C2460 H2449 0.950 . S
C2460 C2458 1.391 . S
C2460 C2461 1.400 . S
C2461 C2455 1.491 . S
C2461 C2460 1.400 . S
C2461 C2462 1.398 . S
C2462 H2450 0.950 . S
C2462 C2461 1.398 . S
C2462 C2463 1.391 . S
C2463 H2451 0.950 . S
C2463 C2459 1.393 . S
C2463 C2462 1.391 . S
H2464 C2472 0.950 . S
H2465 C2477 0.950 . S
H2466 C2474 0.950 . S
H2467 C2476 0.950 . S
H2468 C2478 0.950 . S
H2469 C2480 0.950 . S
H2470 C2482 0.950 . S
H2471 C2483 0.950 . S
C2472 H2464 0.950 . S
C2472 C2473 1.386 . S
C2472 C2474 1.391 . S
C2473 C2472 1.386 . S
C2473 C2477 1.393 . S
C2474 H2466 0.950 . S
C2474 C2472 1.391 . S
C2474 C2475 1.400 . S
C2475 C2474 1.400 . S
C2475 C2476 1.398 . S
C2475 C2481 1.491 . S
C2476 H2467 0.950 . S
C2476 C2475 1.398 . S
C2476 C2477 1.391 . S
C2477 H2465 0.950 . S
C2477 C2473 1.393 . S
C2477 C2476 1.391 . S
C2478 H2468 0.950 . S
C2478 C2479 1.386 . S
C2478 C2480 1.391 . S
C2479 C2478 1.386 . S
C2479 C2483 1.393 . S
C2480 H2469 0.950 . S
C2480 C2478 1.391 . S
C2480 C2481 1.400 . S
C2481 C2475 1.491 . S
C2481 C2480 1.400 . S
C2481 C2482 1.398 . S
C2482 H2470 0.950 . S
C2482 C2481 1.398 . S
C2482 C2483 1.391 . S
C2483 H2471 0.950 . S
C2483 C2479 1.393 . S
C2483 C2482 1.391 . S
H2484 C2492 0.950 . S
H2485 C2497 0.950 . S
H2486 C2494 0.950 . S
H2487 C2496 0.950 . S
H2488 C2498 0.950 . S
H2489 C2500 0.950 . S
H2490 C2502 0.950 . S
H2491 C2503 0.950 . S
C2492 H2484 0.950 . S
C2492 C2493 1.386 . S
C2492 C2494 1.391 . S
C2493 C2492 1.386 . S
C2493 C2497 1.393 . S
C2494 H2486 0.950 . S
C2494 C2492 1.391 . S
C2494 C2495 1.400 . S
C2495 C2494 1.400 . S
C2495 C2496 1.398 . S
C2495 C2501 1.491 . S
C2496 H2487 0.950 . S
C2496 C2495 1.398 . S
C2496 C2497 1.391 . S
C2497 H2485 0.950 . S
C2497 C2493 1.393 . S
C2497 C2496 1.391 . S
C2498 H2488 0.950 . S
C2498 C2499 1.386 . S
C2498 C2500 1.391 . S
C2499 C2498 1.386 . S
C2499 C2503 1.393 . S
C2500 H2489 0.950 . S
C2500 C2498 1.391 . S
C2500 C2501 1.400 . S
C2501 C2495 1.491 . S
C2501 C2500 1.400 . S
C2501 C2502 1.398 . S
C2502 H2490 0.950 . S
C2502 C2501 1.398 . S
C2502 C2503 1.391 . S
C2503 H2491 0.950 . S
C2503 C2499 1.393 . S
C2503 C2502 1.391 . S
H2504 C2512 0.950 . S
H2505 C2517 0.950 . S
H2506 C2514 0.950 . S
H2507 C2516 0.950 . S
H2508 C2518 0.950 . S
H2509 C2520 0.950 . S
H2510 C2522 0.950 . S
H2511 C2523 0.950 . S
C2512 H2504 0.950 . S
C2512 C2513 1.386 . S
C2512 C2514 1.391 . S
C2513 C2512 1.386 . S
C2513 C2517 1.393 . S
C2514 H2506 0.950 . S
C2514 C2512 1.391 . S
C2514 C2515 1.400 . S
C2515 C2514 1.400 . S
C2515 C2516 1.398 . S
C2515 C2521 1.491 . S
C2516 H2507 0.950 . S
C2516 C2515 1.398 . S
C2516 C2517 1.391 . S
C2517 H2505 0.950 . S
C2517 C2513 1.393 . S
C2517 C2516 1.391 . S
C2518 H2508 0.950 . S
C2518 C2519 1.386 . S
C2518 C2520 1.391 . S
C2519 C2518 1.386 . S
C2519 C2523 1.393 . S
C2520 H2509 0.950 . S
C2520 C2518 1.391 . S
C2520 C2521 1.400 . S
C2521 C2515 1.491 . S
C2521 C2520 1.400 . S
C2521 C2522 1.398 . S
C2522 H2510 0.950 . S
C2522 C2521 1.398 . S
C2522 C2523 1.391 . S
C2523 H2511 0.950 . S
C2523 C2519 1.393 . S
C2523 C2522 1.391 . S
H2524 C2532 0.950 . S
H2525 C2537 0.950 . S
H2526 C2534 0.950 . S
H2527 C2536 0.950 . S
H2528 C2538 0.950 . S
H2529 C2540 0.950 . S
H2530 C2542 0.950 . S
H2531 C2543 0.950 . S
C2532 H2524 0.950 . S
C2532 C2533 1.386 . S
C2532 C2534 1.391 . S
C2533 C2532 1.386 . S
C2533 C2537 1.393 . S
C2534 H2526 0.950 . S
C2534 C2532 1.391 . S
C2534 C2535 1.400 . S
C2535 C2534 1.400 . S
C2535 C2536 1.398 . S
C2535 C2541 1.491 . S
C2536 H2527 0.950 . S
C2536 C2535 1.398 . S
C2536 C2537 1.391 . S
C2537 H2525 0.950 . S
C2537 C2533 1.393 . S
C2537 C2536 1.391 . S
C2538 H2528 0.950 . S
C2538 C2539 1.386 . S
C2538 C2540 1.391 . S
C2539 C2538 1.386 . S
C2539 C2543 1.393 . S
C2540 H2529 0.950 . S
C2540 C2538 1.391 . S
C2540 C2541 1.400 . S
C2541 C2535 1.491 . S
C2541 C2540 1.400 . S
C2541 C2542 1.398 . S
C2542 H2530 0.950 . S
C2542 C2541 1.398 . S
C2542 C2543 1.391 . S
C2543 H2531 0.950 . S
C2543 C2539 1.393 . S
C2543 C2542 1.391 . S
H2544 C2552 0.950 . S
H2545 C2557 0.950 . S
H2546 C2554 0.950 . S
H2547 C2556 0.950 . S
H2548 C2558 0.950 . S
H2549 C2560 0.950 . S
H2550 C2562 0.950 . S
H2551 C2563 0.950 . S
C2552 H2544 0.950 . S
C2552 C2553 1.386 . S
C2552 C2554 1.391 . S
C2553 C2552 1.386 . S
C2553 C2557 1.393 . S
C2554 H2546 0.950 . S
C2554 C2552 1.391 . S
C2554 C2555 1.400 . S
C2555 C2554 1.400 . S
C2555 C2556 1.398 . S
C2555 C2561 1.491 . S
C2556 H2547 0.950 . S
C2556 C2555 1.398 . S
C2556 C2557 1.391 . S
C2557 H2545 0.950 . S
C2557 C2553 1.393 . S
C2557 C2556 1.391 . S
C2558 H2548 0.950 . S
C2558 C2559 1.386 . S
C2558 C2560 1.391 . S
C2559 C2558 1.386 . S
C2559 C2563 1.393 . S
C2560 H2549 0.950 . S
C2560 C2558 1.391 . S
C2560 C2561 1.400 . S
C2561 C2555 1.491 . S
C2561 C2560 1.400 . S
C2561 C2562 1.398 . S
C2562 H2550 0.950 . S
C2562 C2561 1.398 . S
C2562 C2563 1.391 . S
C2563 H2551 0.950 . S
C2563 C2559 1.393 . S
C2563 C2562 1.391 . S
H2564 C2572 0.950 . S
H2565 C2577 0.950 . S
H2566 C2574 0.950 . S
H2567 C2576 0.950 . S
H2568 C2578 0.950 . S
H2569 C2580 0.950 . S
H2570 C2582 0.950 . S
H2571 C2583 0.950 . S
C2572 H2564 0.950 . S
C2572 C2573 1.386 . S
C2572 C2574 1.391 . S
C2573 C2572 1.386 . S
C2573 C2577 1.393 . S
C2574 H2566 0.950 . S
C2574 C2572 1.391 . S
C2574 C2575 1.400 . S
C2575 C2574 1.400 . S
C2575 C2576 1.398 . S
C2575 C2581 1.491 . S
C2576 H2567 0.950 . S
C2576 C2575 1.398 . S
C2576 C2577 1.391 . S
C2577 H2565 0.950 . S
C2577 C2573 1.393 . S
C2577 C2576 1.391 . S
C2578 H2568 0.950 . S
C2578 C2579 1.386 . S
C2578 C2580 1.391 . S
C2579 C2578 1.386 . S
C2579 C2583 1.393 . S
C2580 H2569 0.950 . S
C2580 C2578 1.391 . S
C2580 C2581 1.400 . S
C2581 C2575 1.491 . S
C2581 C2580 1.400 . S
C2581 C2582 1.398 . S
C2582 H2570 0.950 . S
C2582 C2581 1.398 . S
C2582 C2583 1.391 . S
C2583 H2571 0.950 . S
C2583 C2579 1.393 . S
C2583 C2582 1.391 . S
H2584 C2592 0.950 . S
H2585 C2597 0.950 . S
H2586 C2594 0.950 . S
H2587 C2596 0.950 . S
H2588 C2598 0.950 . S
H2589 C2600 0.950 . S
H2590 C2602 0.950 . S
H2591 C2603 0.950 . S
C2592 H2584 0.950 . S
C2592 C2593 1.386 . S
C2592 C2594 1.391 . S
C2593 C2592 1.386 . S
C2593 C2597 1.393 . S
C2594 H2586 0.950 . S
C2594 C2592 1.391 . S
C2594 C2595 1.400 . S
C2595 C2594 1.400 . S
C2595 C2596 1.398 . S
C2595 C2601 1.491 . S
C2596 H2587 0.950 . S
C2596 C2595 1.398 . S
C2596 C2597 1.391 . S
C2597 H2585 0.950 . S
C2597 C2593 1.393 . S
C2597 C2596 1.391 . S
C2598 H2588 0.950 . S
C2598 C2599 1.386 . S
C2598 C2600 1.391 . S
C2599 C2598 1.386 . S
C2599 C2603 1.393 . S
C2600 H2589 0.950 . S
C2600 C2598 1.391 . S
C2600 C2601 1.400 . S
C2601 C2595 1.491 . S
C2601 C2600 1.400 . S
C2601 C2602 1.398 . S
C2602 H2590 0.950 . S
C2602 C2601 1.398 . S
C2602 C2603 1.391 . S
C2603 H2591 0.950 . S
C2603 C2599 1.393 . S
C2603 C2602 1.391 . S
H2604 C2612 0.950 . S
H2605 C2617 0.950 . S
H2606 C2614 0.950 . S
H2607 C2616 0.950 . S
H2608 C2618 0.950 . S
H2609 C2620 0.950 . S
H2610 C2622 0.950 . S
H2611 C2623 0.950 . S
C2612 H2604 0.950 . S
C2612 C2613 1.386 . S
C2612 C2614 1.391 . S
C2613 C2612 1.386 . S
C2613 C2617 1.393 . S
C2614 H2606 0.950 . S
C2614 C2612 1.391 . S
C2614 C2615 1.400 . S
C2615 C2614 1.400 . S
C2615 C2616 1.398 . S
C2615 C2621 1.491 . S
C2616 H2607 0.950 . S
C2616 C2615 1.398 . S
C2616 C2617 1.391 . S
C2617 H2605 0.950 . S
C2617 C2613 1.393 . S
C2617 C2616 1.391 . S
C2618 H2608 0.950 . S
C2618 C2619 1.386 . S
C2618 C2620 1.391 . S
C2619 C2618 1.386 . S
C2619 C2623 1.393 . S
C2620 H2609 0.950 . S
C2620 C2618 1.391 . S
C2620 C2621 1.400 . S
C2621 C2615 1.491 . S
C2621 C2620 1.400 . S
C2621 C2622 1.398 . S
C2622 H2610 0.950 . S
C2622 C2621 1.398 . S
C2622 C2623 1.391 . S
C2623 H2611 0.950 . S
C2623 C2619 1.393 . S
C2623 C2622 1.391 . S
H2624 C2632 0.950 . S
H2625 C2637 0.950 . S
H2626 C2634 0.950 . S
H2627 C2636 0.950 . S
H2628 C2638 0.950 . S
H2629 C2640 0.950 . S
H2630 C2642 0.950 . S
H2631 C2643 0.950 . S
C2632 H2624 0.950 . S
C2632 C2633 1.386 . S
C2632 C2634 1.391 . S
C2633 C2632 1.386 . S
C2633 C2637 1.393 . S
C2634 H2626 0.950 . S
C2634 C2632 1.391 . S
C2634 C2635 1.400 . S
C2635 C2634 1.400 . S
C2635 C2636 1.398 . S
C2635 C2641 1.491 . S
C2636 H2627 0.950 . S
C2636 C2635 1.398 . S
C2636 C2637 1.391 . S
C2637 H2625 0.950 . S
C2637 C2633 1.393 . S
C2637 C2636 1.391 . S
C2638 H2628 0.950 . S
C2638 C2639 1.386 . S
C2638 C2640 1.391 . S
C2639 C2638 1.386 . S
C2639 C2643 1.393 . S
C2640 H2629 0.950 . S
C2640 C2638 1.391 . S
C2640 C2641 1.400 . S
C2641 C2635 1.491 . S
C2641 C2640 1.400 . S
C2641 C2642 1.398 . S
C2642 H2630 0.950 . S
C2642 C2641 1.398 . S
C2642 C2643 1.391 . S
C2643 H2631 0.950 . S
C2643 C2639 1.393 . S
C2643 C2642 1.391 . S
H2644 C2652 0.950 . S
H2645 C2657 0.950 . S
H2646 C2654 0.950 . S
H2647 C2656 0.950 . S
H2648 C2658 0.950 . S
H2649 C2660 0.950 . S
H2650 C2662 0.950 . S
H2651 C2663 0.950 . S
C2652 H2644 0.950 . S
C2652 C2653 1.386 . S
C2652 C2654 1.391 . S
C2653 C2652 1.386 . S
C2653 C2657 1.393 . S
C2654 H2646 0.950 . S
C2654 C2652 1.391 . S
C2654 C2655 1.400 . S
C2655 C2654 1.400 . S
C2655 C2656 1.398 . S
C2655 C2661 1.491 . S
C2656 H2647 0.950 . S
C2656 C2655 1.398 . S
C2656 C2657 1.391 . S
C2657 H2645 0.950 . S
C2657 C2653 1.393 . S
C2657 C2656 1.391 . S
C2658 H2648 0.950 . S
C2658 C2659 1.386 . S
C2658 C2660 1.391 . S
C2659 C2658 1.386 . S
C2659 C2663 1.393 . S
C2660 H2649 0.950 . S
C2660 C2658 1.391 . S
C2660 C2661 1.400 . S
C2661 C2655 1.491 . S
C2661 C2660 1.400 . S
C2661 C2662 1.398 . S
C2662 H2650 0.950 . S
C2662 C2661 1.398 . S
C2662 C2663 1.391 . S
C2663 H2651 0.950 . S
C2663 C2659 1.393 . S
C2663 C2662 1.391 . S
H2664 C2672 0.950 . S
H2665 C2677 0.950 . S
H2666 C2674 0.950 . S
H2667 C2676 0.950 . S
H2668 C2678 0.950 . S
H2669 C2680 0.950 . S
H2670 C2682 0.950 . S
H2671 C2683 0.950 . S
C2672 H2664 0.950 . S
C2672 C2673 1.386 . S
C2672 C2674 1.391 . S
C2673 C2672 1.386 . S
C2673 C2677 1.393 . S
C2674 H2666 0.950 . S
C2674 C2672 1.391 . S
C2674 C2675 1.400 . S
C2675 C2674 1.400 . S
C2675 C2676 1.398 . S
C2675 C2681 1.491 . S
C2676 H2667 0.950 . S
C2676 C2675 1.398 . S
C2676 C2677 1.391 . S
C2677 H2665 0.950 . S
C2677 C2673 1.393 . S
C2677 C2676 1.391 . S
C2678 H2668 0.950 . S
C2678 C2679 1.386 . S
C2678 C2680 1.391 . S
C2679 C2678 1.386 . S
C2679 C2683 1.393 . S
C2680 H2669 0.950 . S
C2680 C2678 1.391 . S
C2680 C2681 1.400 . S
C2681 C2675 1.491 . S
C2681 C2680 1.400 . S
C2681 C2682 1.398 . S
C2682 H2670 0.950 . S
C2682 C2681 1.398 . S
C2682 C2683 1.391 . S
C2683 H2671 0.950 . S
C2683 C2679 1.393 . S
C2683 C2682 1.391 . S
H2684 C2692 0.950 . S
H2685 C2697 0.950 . S
H2686 C2694 0.950 . S
H2687 C2696 0.950 . S
H2688 C2698 0.950 . S
H2689 C2700 0.950 . S
H2690 C2702 0.950 . S
H2691 C2703 0.950 . S
C2692 H2684 0.950 . S
C2692 C2693 1.386 . S
C2692 C2694 1.391 . S
C2693 C2692 1.386 . S
C2693 C2697 1.393 . S
C2694 H2686 0.950 . S
C2694 C2692 1.391 . S
C2694 C2695 1.400 . S
C2695 C2694 1.400 . S
C2695 C2696 1.398 . S
C2695 C2701 1.491 . S
C2696 H2687 0.950 . S
C2696 C2695 1.398 . S
C2696 C2697 1.391 . S
C2697 H2685 0.950 . S
C2697 C2693 1.393 . S
C2697 C2696 1.391 . S
C2698 H2688 0.950 . S
C2698 C2699 1.386 . S
C2698 C2700 1.391 . S
C2699 C2698 1.386 . S
C2699 C2703 1.393 . S
C2700 H2689 0.950 . S
C2700 C2698 1.391 . S
C2700 C2701 1.400 . S
C2701 C2695 1.491 . S
C2701 C2700 1.400 . S
C2701 C2702 1.398 . S
C2702 H2690 0.950 . S
C2702 C2701 1.398 . S
C2702 C2703 1.391 . S
C2703 H2691 0.950 . S
C2703 C2699 1.393 . S
C2703 C2702 1.391 . S
H2704 C2712 0.950 . S
H2705 C2717 0.950 . S
H2706 C2714 0.950 . S
H2707 C2716 0.950 . S
H2708 C2718 0.950 . S
H2709 C2720 0.950 . S
H2710 C2722 0.950 . S
H2711 C2723 0.950 . S
C2712 H2704 0.950 . S
C2712 C2713 1.386 . S
C2712 C2714 1.391 . S
C2713 C2712 1.386 . S
C2713 C2717 1.393 . S
C2714 H2706 0.950 . S
C2714 C2712 1.391 . S
C2714 C2715 1.400 . S
C2715 C2714 1.400 . S
C2715 C2716 1.398 . S
C2715 C2721 1.491 . S
C2716 H2707 0.950 . S
C2716 C2715 1.398 . S
C2716 C2717 1.391 . S
C2717 H2705 0.950 . S
C2717 C2713 1.393 . S
C2717 C2716 1.391 . S
C2718 H2708 0.950 . S
C2718 C2719 1.386 . S
C2718 C2720 1.391 . S
C2719 C2718 1.386 . S
C2719 C2723 1.393 . S
C2720 H2709 0.950 . S
C2720 C2718 1.391 . S
C2720 C2721 1.400 . S
C2721 C2715 1.491 . S
C2721 C2720 1.400 . S
C2721 C2722 1.398 . S
C2722 H2710 0.950 . S
C2722 C2721 1.398 . S
C2722 C2723 1.391 . S
C2723 H2711 0.950 . S
C2723 C2719 1.393 . S
C2723 C2722 1.391 . S
H2724 C2732 0.950 . S
H2725 C2737 0.950 . S
H2726 C2734 0.950 . S
H2727 C2736 0.950 . S
H2728 C2738 0.950 . S
H2729 C2740 0.950 . S
H2730 C2742 0.950 . S
H2731 C2743 0.950 . S
C2732 H2724 0.950 . S
C2732 C2733 1.386 . S
C2732 C2734 1.391 . S
C2733 C2732 1.386 . S
C2733 C2737 1.393 . S
C2734 H2726 0.950 . S
C2734 C2732 1.391 . S
C2734 C2735 1.400 . S
C2735 C2734 1.400 . S
C2735 C2736 1.398 . S
C2735 C2741 1.491 . S
C2736 H2727 0.950 . S
C2736 C2735 1.398 . S
C2736 C2737 1.391 . S
C2737 H2725 0.950 . S
C2737 C2733 1.393 . S
C2737 C2736 1.391 . S
C2738 H2728 0.950 . S
C2738 C2739 1.386 . S
C2738 C2740 1.391 . S
C2739 C2738 1.386 . S
C2739 C2743 1.393 . S
C2740 H2729 0.950 . S
C2740 C2738 1.391 . S
C2740 C2741 1.400 . S
C2741 C2735 1.491 . S
C2741 C2740 1.400 . S
C2741 C2742 1.398 . S
C2742 H2730 0.950 . S
C2742 C2741 1.398 . S
C2742 C2743 1.391 . S
C2743 H2731 0.950 . S
C2743 C2739 1.393 . S
C2743 C2742 1.391 . S
H2744 C2752 0.950 . S
H2745 C2757 0.950 . S
H2746 C2754 0.950 . S
H2747 C2756 0.950 . S
H2748 C2758 0.950 . S
H2749 C2760 0.950 . S
H2750 C2762 0.950 . S
H2751 C2763 0.950 . S
C2752 H2744 0.950 . S
C2752 C2753 1.386 . S
C2752 C2754 1.391 . S
C2753 C2752 1.386 . S
C2753 C2757 1.393 . S
C2754 H2746 0.950 . S
C2754 C2752 1.391 . S
C2754 C2755 1.400 . S
C2755 C2754 1.400 . S
C2755 C2756 1.398 . S
C2755 C2761 1.491 . S
C2756 H2747 0.950 . S
C2756 C2755 1.398 . S
C2756 C2757 1.391 . S
C2757 H2745 0.950 . S
C2757 C2753 1.393 . S
C2757 C2756 1.391 . S
C2758 H2748 0.950 . S
C2758 C2759 1.386 . S
C2758 C2760 1.391 . S
C2759 C2758 1.386 . S
C2759 C2763 1.393 . S
C2760 H2749 0.950 . S
C2760 C2758 1.391 . S
C2760 C2761 1.400 . S
C2761 C2755 1.491 . S
C2761 C2760 1.400 . S
C2761 C2762 1.398 . S
C2762 H2750 0.950 . S
C2762 C2761 1.398 . S
C2762 C2763 1.391 . S
C2763 H2751 0.950 . S
C2763 C2759 1.393 . S
C2763 C2762 1.391 . S
H2764 C2772 0.950 . S
H2765 C2777 0.950 . S
H2766 C2774 0.950 . S
H2767 C2776 0.950 . S
H2768 C2778 0.950 . S
H2769 C2780 0.950 . S
H2770 C2782 0.950 . S
H2771 C2783 0.950 . S
C2772 H2764 0.950 . S
C2772 C2773 1.386 . S
C2772 C2774 1.391 . S
C2773 C2772 1.386 . S
C2773 C2777 1.393 . S
C2774 H2766 0.950 . S
C2774 C2772 1.391 . S
C2774 C2775 1.400 . S
C2775 C2774 1.400 . S
C2775 C2776 1.398 . S
C2775 C2781 1.491 . S
C2776 H2767 0.950 . S
C2776 C2775 1.398 . S
C2776 C2777 1.391 . S
C2777 H2765 0.950 . S
C2777 C2773 1.393 . S
C2777 C2776 1.391 . S
C2778 H2768 0.950 . S
C2778 C2779 1.386 . S
C2778 C2780 1.391 . S
C2779 C2778 1.386 . S
C2779 C2783 1.393 . S
C2780 H2769 0.950 . S
C2780 C2778 1.391 . S
C2780 C2781 1.400 . S
C2781 C2775 1.491 . S
C2781 C2780 1.400 . S
C2781 C2782 1.398 . S
C2782 H2770 0.950 . S
C2782 C2781 1.398 . S
C2782 C2783 1.391 . S
C2783 H2771 0.950 . S
C2783 C2779 1.393 . S
C2783 C2782 1.391 . S
H2784 C2792 0.950 . S
H2785 C2797 0.950 . S
H2786 C2794 0.950 . S
H2787 C2796 0.950 . S
H2788 C2798 0.950 . S
H2789 C2800 0.950 . S
H2790 C2802 0.950 . S
H2791 C2803 0.950 . S
C2792 H2784 0.950 . S
C2792 C2793 1.386 . S
C2792 C2794 1.391 . S
C2793 C2792 1.386 . S
C2793 C2797 1.393 . S
C2794 H2786 0.950 . S
C2794 C2792 1.391 . S
C2794 C2795 1.400 . S
C2795 C2794 1.400 . S
C2795 C2796 1.398 . S
C2795 C2801 1.491 . S
C2796 H2787 0.950 . S
C2796 C2795 1.398 . S
C2796 C2797 1.391 . S
C2797 H2785 0.950 . S
C2797 C2793 1.393 . S
C2797 C2796 1.391 . S
C2798 H2788 0.950 . S
C2798 C2799 1.386 . S
C2798 C2800 1.391 . S
C2799 C2798 1.386 . S
C2799 C2803 1.393 . S
C2800 H2789 0.950 . S
C2800 C2798 1.391 . S
C2800 C2801 1.400 . S
C2801 C2795 1.491 . S
C2801 C2800 1.400 . S
C2801 C2802 1.398 . S
C2802 H2790 0.950 . S
C2802 C2801 1.398 . S
C2802 C2803 1.391 . S
C2803 H2791 0.950 . S
C2803 C2799 1.393 . S
C2803 C2802 1.391 . S
H2804 C2812 0.950 . S
H2805 C2817 0.950 . S
H2806 C2814 0.950 . S
H2807 C2816 0.950 . S
H2808 C2818 0.950 . S
H2809 C2820 0.950 . S
H2810 C2822 0.950 . S
H2811 C2823 0.950 . S
C2812 H2804 0.950 . S
C2812 C2813 1.386 . S
C2812 C2814 1.391 . S
C2813 C2812 1.386 . S
C2813 C2817 1.393 . S
C2814 H2806 0.950 . S
C2814 C2812 1.391 . S
C2814 C2815 1.400 . S
C2815 C2814 1.400 . S
C2815 C2816 1.398 . S
C2815 C2821 1.491 . S
C2816 H2807 0.950 . S
C2816 C2815 1.398 . S
C2816 C2817 1.391 . S
C2817 H2805 0.950 . S
C2817 C2813 1.393 . S
C2817 C2816 1.391 . S
C2818 H2808 0.950 . S
C2818 C2819 1.386 . S
C2818 C2820 1.391 . S
C2819 C2818 1.386 . S
C2819 C2823 1.393 . S
C2820 H2809 0.950 . S
C2820 C2818 1.391 . S
C2820 C2821 1.400 . S
C2821 C2815 1.491 . S
C2821 C2820 1.400 . S
C2821 C2822 1.398 . S
C2822 H2810 0.950 . S
C2822 C2821 1.398 . S
C2822 C2823 1.391 . S
C2823 H2811 0.950 . S
C2823 C2819 1.393 . S
C2823 C2822 1.391 . S
H2824 C2832 0.950 . S
H2825 C2837 0.950 . S
H2826 C2834 0.950 . S
H2827 C2836 0.950 . S
H2828 C2838 0.950 . S
H2829 C2840 0.950 . S
H2830 C2842 0.950 . S
H2831 C2843 0.950 . S
C2832 H2824 0.950 . S
C2832 C2833 1.386 . S
C2832 C2834 1.391 . S
C2833 C2832 1.386 . S
C2833 C2837 1.393 . S
C2834 H2826 0.950 . S
C2834 C2832 1.391 . S
C2834 C2835 1.400 . S
C2835 C2834 1.400 . S
C2835 C2836 1.398 . S
C2835 C2841 1.491 . S
C2836 H2827 0.950 . S
C2836 C2835 1.398 . S
C2836 C2837 1.391 . S
C2837 H2825 0.950 . S
C2837 C2833 1.393 . S
C2837 C2836 1.391 . S
C2838 H2828 0.950 . S
C2838 C2839 1.386 . S
C2838 C2840 1.391 . S
C2839 C2838 1.386 . S
C2839 C2843 1.393 . S
C2840 H2829 0.950 . S
C2840 C2838 1.391 . S
C2840 C2841 1.400 . S
C2841 C2835 1.491 . S
C2841 C2840 1.400 . S
C2841 C2842 1.398 . S
C2842 H2830 0.950 . S
C2842 C2841 1.398 . S
C2842 C2843 1.391 . S
C2843 H2831 0.950 . S
C2843 C2839 1.393 . S
C2843 C2842 1.391 . S
H2844 C2852 0.950 . S
H2845 C2857 0.950 . S
H2846 C2854 0.950 . S
H2847 C2856 0.950 . S
H2848 C2858 0.950 . S
H2849 C2860 0.950 . S
H2850 C2862 0.950 . S
H2851 C2863 0.950 . S
C2852 H2844 0.950 . S
C2852 C2853 1.386 . S
C2852 C2854 1.391 . S
C2853 C2852 1.386 . S
C2853 C2857 1.393 . S
C2854 H2846 0.950 . S
C2854 C2852 1.391 . S
C2854 C2855 1.400 . S
C2855 C2854 1.400 . S
C2855 C2856 1.398 . S
C2855 C2861 1.491 . S
C2856 H2847 0.950 . S
C2856 C2855 1.398 . S
C2856 C2857 1.391 . S
C2857 H2845 0.950 . S
C2857 C2853 1.393 . S
C2857 C2856 1.391 . S
C2858 H2848 0.950 . S
C2858 C2859 1.386 . S
C2858 C2860 1.391 . S
C2859 C2858 1.386 . S
C2859 C2863 1.393 . S
C2860 H2849 0.950 . S
C2860 C2858 1.391 . S
C2860 C2861 1.400 . S
C2861 C2855 1.491 . S
C2861 C2860 1.400 . S
C2861 C2862 1.398 . S
C2862 H2850 0.950 . S
C2862 C2861 1.398 . S
C2862 C2863 1.391 . S
C2863 H2851 0.950 . S
C2863 C2859 1.393 . S
C2863 C2862 1.391 . S
H2864 C2872 0.950 . S
H2865 C2877 0.950 . S
H2866 C2874 0.950 . S
H2867 C2876 0.950 . S
H2868 C2878 0.950 . S
H2869 C2880 0.950 . S
H2870 C2882 0.950 . S
H2871 C2883 0.950 . S
C2872 H2864 0.950 . S
C2872 C2873 1.386 . S
C2872 C2874 1.391 . S
C2873 C2872 1.386 . S
C2873 C2877 1.393 . S
C2874 H2866 0.950 . S
C2874 C2872 1.391 . S
C2874 C2875 1.400 . S
C2875 C2874 1.400 . S
C2875 C2876 1.398 . S
C2875 C2881 1.491 . S
C2876 H2867 0.950 . S
C2876 C2875 1.398 . S
C2876 C2877 1.391 . S
C2877 H2865 0.950 . S
C2877 C2873 1.393 . S
C2877 C2876 1.391 . S
C2878 H2868 0.950 . S
C2878 C2879 1.386 . S
C2878 C2880 1.391 . S
C2879 C2878 1.386 . S
C2879 C2883 1.393 . S
C2880 H2869 0.950 . S
C2880 C2878 1.391 . S
C2880 C2881 1.400 . S
C2881 C2875 1.491 . S
C2881 C2880 1.400 . S
C2881 C2882 1.398 . S
C2882 H2870 0.950 . S
C2882 C2881 1.398 . S
C2882 C2883 1.391 . S
C2883 H2871 0.950 . S
C2883 C2879 1.393 . S
C2883 C2882 1.391 . S
H2884 C2892 0.950 . S
H2885 C2897 0.950 . S
H2886 C2894 0.950 . S
H2887 C2896 0.950 . S
H2888 C2898 0.950 . S
H2889 C2900 0.950 . S
H2890 C2902 0.950 . S
H2891 C2903 0.950 . S
C2892 H2884 0.950 . S
C2892 C2893 1.386 . S
C2892 C2894 1.391 . S
C2893 C2892 1.386 . S
C2893 C2897 1.393 . S
C2894 H2886 0.950 . S
C2894 C2892 1.391 . S
C2894 C2895 1.400 . S
C2895 C2894 1.400 . S
C2895 C2896 1.398 . S
C2895 C2901 1.491 . S
C2896 H2887 0.950 . S
C2896 C2895 1.398 . S
C2896 C2897 1.391 . S
C2897 H2885 0.950 . S
C2897 C2893 1.393 . S
C2897 C2896 1.391 . S
C2898 H2888 0.950 . S
C2898 C2899 1.386 . S
C2898 C2900 1.391 . S
C2899 C2898 1.386 . S
C2899 C2903 1.393 . S
C2900 H2889 0.950 . S
C2900 C2898 1.391 . S
C2900 C2901 1.400 . S
C2901 C2895 1.491 . S
C2901 C2900 1.400 . S
C2901 C2902 1.398 . S
C2902 H2890 0.950 . S
C2902 C2901 1.398 . S
C2902 C2903 1.391 . S
C2903 H2891 0.950 . S
C2903 C2899 1.393 . S
C2903 C2902 1.391 . S
H2904 C2912 0.950 . S
H2905 C2917 0.950 . S
H2906 C2914 0.950 . S
H2907 C2916 0.950 . S
H2908 C2918 0.950 . S
H2909 C2920 0.950 . S
H2910 C2922 0.950 . S
H2911 C2923 0.950 . S
C2912 H2904 0.950 . S
C2912 C2913 1.386 . S
C2912 C2914 1.391 . S
C2913 C2912 1.386 . S
C2913 C2917 1.393 . S
C2914 H2906 0.950 . S
C2914 C2912 1.391 . S
C2914 C2915 1.400 . S
C2915 C2914 1.400 . S
C2915 C2916 1.398 . S
C2915 C2921 1.491 . S
C2916 H2907 0.950 . S
C2916 C2915 1.398 . S
C2916 C2917 1.391 . S
C2917 H2905 0.950 . S
C2917 C2913 1.393 . S
C2917 C2916 1.391 . S
C2918 H2908 0.950 . S
C2918 C2919 1.386 . S
C2918 C2920 1.391 . S
C2919 C2918 1.386 . S
C2919 C2923 1.393 . S
C2920 H2909 0.950 . S
C2920 C2918 1.391 . S
C2920 C2921 1.400 . S
C2921 C2915 1.491 . S
C2921 C2920 1.400 . S
C2921 C2922 1.398 . S
C2922 H2910 0.950 . S
C2922 C2921 1.398 . S
C2922 C2923 1.391 . S
C2923 H2911 0.950 . S
C2923 C2919 1.393 . S
C2923 C2922 1.391 . S
H2924 C2932 0.950 . S
H2925 C2937 0.950 . S
H2926 C2934 0.950 . S
H2927 C2936 0.950 . S
H2928 C2938 0.950 . S
H2929 C2940 0.950 . S
H2930 C2942 0.950 . S
H2931 C2943 0.950 . S
C2932 H2924 0.950 . S
C2932 C2933 1.386 . S
C2932 C2934 1.391 . S
C2933 C2932 1.386 . S
C2933 C2937 1.393 . S
C2934 H2926 0.950 . S
C2934 C2932 1.391 . S
C2934 C2935 1.400 . S
C2935 C2934 1.400 . S
C2935 C2936 1.398 . S
C2935 C2941 1.491 . S
C2936 H2927 0.950 . S
C2936 C2935 1.398 . S
C2936 C2937 1.391 . S
C2937 H2925 0.950 . S
C2937 C2933 1.393 . S
C2937 C2936 1.391 . S
C2938 H2928 0.950 . S
C2938 C2939 1.386 . S
C2938 C2940 1.391 . S
C2939 C2938 1.386 . S
C2939 C2943 1.393 . S
C2940 H2929 0.950 . S
C2940 C2938 1.391 . S
C2940 C2941 1.400 . S
C2941 C2935 1.491 . S
C2941 C2940 1.400 . S
C2941 C2942 1.398 . S
C2942 H2930 0.950 . S
C2942 C2941 1.398 . S
C2942 C2943 1.391 . S
C2943 H2931 0.950 . S
C2943 C2939 1.393 . S
C2943 C2942 1.391 . S
H2944 C2952 0.950 . S
H2945 C2957 0.950 . S
H2946 C2954 0.950 . S
H2947 C2956 0.950 . S
H2948 C2958 0.950 . S
H2949 C2960 0.950 . S
H2950 C2962 0.950 . S
H2951 C2963 0.950 . S
C2952 H2944 0.950 . S
C2952 C2953 1.386 . S
C2952 C2954 1.391 . S
C2953 C2952 1.386 . S
C2953 C2957 1.393 . S
C2954 H2946 0.950 . S
C2954 C2952 1.391 . S
C2954 C2955 1.400 . S
C2955 C2954 1.400 . S
C2955 C2956 1.398 . S
C2955 C2961 1.491 . S
C2956 H2947 0.950 . S
C2956 C2955 1.398 . S
C2956 C2957 1.391 . S
C2957 H2945 0.950 . S
C2957 C2953 1.393 . S
C2957 C2956 1.391 . S
C2958 H2948 0.950 . S
C2958 C2959 1.386 . S
C2958 C2960 1.391 . S
C2959 C2958 1.386 . S
C2959 C2963 1.393 . S
C2960 H2949 0.950 . S
C2960 C2958 1.391 . S
C2960 C2961 1.400 . S
C2961 C2955 1.491 . S
C2961 C2960 1.400 . S
C2961 C2962 1.398 . S
C2962 H2950 0.950 . S
C2962 C2961 1.398 . S
C2962 C2963 1.391 . S
C2963 H2951 0.950 . S
C2963 C2959 1.393 . S
C2963 C2962 1.391 . S
H2964 C2972 0.950 . S
H2965 C2977 0.950 . S
H2966 C2974 0.950 . S
H2967 C2976 0.950 . S
H2968 C2978 0.950 . S
H2969 C2980 0.950 . S
H2970 C2982 0.950 . S
H2971 C2983 0.950 . S
C2972 H2964 0.950 . S
C2972 C2973 1.386 . S
C2972 C2974 1.391 . S
C2973 C2972 1.386 . S
C2973 C2977 1.393 . S
C2974 H2966 0.950 . S
C2974 C2972 1.391 . S
C2974 C2975 1.400 . S
C2975 C2974 1.400 . S
C2975 C2976 1.398 . S
C2975 C2981 1.491 . S
C2976 H2967 0.950 . S
C2976 C2975 1.398 . S
C2976 C2977 1.391 . S
C2977 H2965 0.950 . S
C2977 C2973 1.393 . S
C2977 C2976 1.391 . S
C2978 H2968 0.950 . S
C2978 C2979 1.386 . S
C2978 C2980 1.391 . S
C2979 C2978 1.386 . S
C2979 C2983 1.393 . S
C2980 H2969 0.950 . S
C2980 C2978 1.391 . S
C2980 C2981 1.400 . S
C2981 C2975 1.491 . S
C2981 C2980 1.400 . S
C2981 C2982 1.398 . S
C2982 H2970 0.950 . S
C2982 C2981 1.398 . S
C2982 C2983 1.391 . S
C2983 H2971 0.950 . S
C2983 C2979 1.393 . S
C2983 C2982 1.391 . S
H2984 C2992 0.950 . S
H2985 C2997 0.950 . S
H2986 C2994 0.950 . S
H2987 C2996 0.950 . S
H2988 C2998 0.950 . S
H2989 C3000 0.950 . S
H2990 C3002 0.950 . S
H2991 C3003 0.950 . S
C2992 H2984 0.950 . S
C2992 C2993 1.386 . S
C2992 C2994 1.391 . S
C2993 C2992 1.386 . S
C2993 C2997 1.393 . S
C2994 H2986 0.950 . S
C2994 C2992 1.391 . S
C2994 C2995 1.400 . S
C2995 C2994 1.400 . S
C2995 C2996 1.398 . S
C2995 C3001 1.491 . S
C2996 H2987 0.950 . S
C2996 C2995 1.398 . S
C2996 C2997 1.391 . S
C2997 H2985 0.950 . S
C2997 C2993 1.393 . S
C2997 C2996 1.391 . S
C2998 H2988 0.950 . S
C2998 C2999 1.386 . S
C2998 C3000 1.391 . S
C2999 C2998 1.386 . S
C2999 C3003 1.393 . S
C3000 H2989 0.950 . S
C3000 C2998 1.391 . S
C3000 C3001 1.400 . S
C3001 C2995 1.491 . S
C3001 C3000 1.400 . S
C3001 C3002 1.398 . S
C3002 H2990 0.950 . S
C3002 C3001 1.398 . S
C3002 C3003 1.391 . S
C3003 H2991 0.950 . S
C3003 C2999 1.393 . S
C3003 C3002 1.391 . S
H3004 C3012 0.950 . S
H3005 C3017 0.950 . S
H3006 C3014 0.950 . S
H3007 C3016 0.950 . S
H3008 C3018 0.950 . S
H3009 C3020 0.950 . S
H3010 C3022 0.950 . S
H3011 C3023 0.950 . S
C3012 H3004 0.950 . S
C3012 C3013 1.386 . S
C3012 C3014 1.391 . S
C3013 C3012 1.386 . S
C3013 C3017 1.393 . S
C3014 H3006 0.950 . S
C3014 C3012 1.391 . S
C3014 C3015 1.400 . S
C3015 C3014 1.400 . S
C3015 C3016 1.398 . S
C3015 C3021 1.491 . S
C3016 H3007 0.950 . S
C3016 C3015 1.398 . S
C3016 C3017 1.391 . S
C3017 H3005 0.950 . S
C3017 C3013 1.393 . S
C3017 C3016 1.391 . S
C3018 H3008 0.950 . S
C3018 C3019 1.386 . S
C3018 C3020 1.391 . S
C3019 C3018 1.386 . S
C3019 C3023 1.393 . S
C3020 H3009 0.950 . S
C3020 C3018 1.391 . S
C3020 C3021 1.400 . S
C3021 C3015 1.491 . S
C3021 C3020 1.400 . S
C3021 C3022 1.398 . S
C3022 H3010 0.950 . S
C3022 C3021 1.398 . S
C3022 C3023 1.391 . S
C3023 H3011 0.950 . S
C3023 C3019 1.393 . S
C3023 C3022 1.391 . S
H3024 C3032 0.950 . S
H3025 C3037 0.950 . S
H3026 C3034 0.950 . S
H3027 C3036 0.950 . S
H3028 C3038 0.950 . S
H3029 C3040 0.950 . S
H3030 C3042 0.950 . S
H3031 C3043 0.950 . S
C3032 H3024 0.950 . S
C3032 C3033 1.386 . S
C3032 C3034 1.391 . S
C3033 C3032 1.386 . S
C3033 C3037 1.393 . S
C3034 H3026 0.950 . S
C3034 C3032 1.391 . S
C3034 C3035 1.400 . S
C3035 C3034 1.400 . S
C3035 C3036 1.398 . S
C3035 C3041 1.491 . S
C3036 H3027 0.950 . S
C3036 C3035 1.398 . S
C3036 C3037 1.391 . S
C3037 H3025 0.950 . S
C3037 C3033 1.393 . S
C3037 C3036 1.391 . S
C3038 H3028 0.950 . S
C3038 C3039 1.386 . S
C3038 C3040 1.391 . S
C3039 C3038 1.386 . S
C3039 C3043 1.393 . S
C3040 H3029 0.950 . S
C3040 C3038 1.391 . S
C3040 C3041 1.400 . S
C3041 C3035 1.491 . S
C3041 C3040 1.400 . S
C3041 C3042 1.398 . S
C3042 H3030 0.950 . S
C3042 C3041 1.398 . S
C3042 C3043 1.391 . S
C3043 H3031 0.950 . S
C3043 C3039 1.393 . S
C3043 C3042 1.391 . S
H3044 C3052 0.950 . S
H3045 C3057 0.950 . S
H3046 C3054 0.950 . S
H3047 C3056 0.950 . S
H3048 C3058 0.950 . S
H3049 C3060 0.950 . S
H3050 C3062 0.950 . S
H3051 C3063 0.950 . S
C3052 H3044 0.950 . S
C3052 C3053 1.386 . S
C3052 C3054 1.391 . S
C3053 C3052 1.386 . S
C3053 C3057 1.393 . S
C3054 H3046 0.950 . S
C3054 C3052 1.391 . S
C3054 C3055 1.400 . S
C3055 C3054 1.400 . S
C3055 C3056 1.398 . S
C3055 C3061 1.491 . S
C3056 H3047 0.950 . S
C3056 C3055 1.398 . S
C3056 C3057 1.391 . S
C3057 H3045 0.950 . S
C3057 C3053 1.393 . S
C3057 C3056 1.391 . S
C3058 H3048 0.950 . S
C3058 C3059 1.386 . S
C3058 C3060 1.391 . S
C3059 C3058 1.386 . S
C3059 C3063 1.393 . S
C3060 H3049 0.950 . S
C3060 C3058 1.391 . S
C3060 C3061 1.400 . S
C3061 C3055 1.491 . S
C3061 C3060 1.400 . S
C3061 C3062 1.398 . S
C3062 H3050 0.950 . S
C3062 C3061 1.398 . S
C3062 C3063 1.391 . S
C3063 H3051 0.950 . S
C3063 C3059 1.393 . S
C3063 C3062 1.391 . S
H3064 C3072 0.950 . S
H3065 C3077 0.950 . S
H3066 C3074 0.950 . S
H3067 C3076 0.950 . S
H3068 C3078 0.950 . S
H3069 C3080 0.950 . S
H3070 C3082 0.950 . S
H3071 C3083 0.950 . S
C3072 H3064 0.950 . S
C3072 C3073 1.386 . S
C3072 C3074 1.391 . S
C3073 C3072 1.386 . S
C3073 C3077 1.393 . S
C3074 H3066 0.950 . S
C3074 C3072 1.391 . S
C3074 C3075 1.400 . S
C3075 C3074 1.400 . S
C3075 C3076 1.398 . S
C3075 C3081 1.491 . S
C3076 H3067 0.950 . S
C3076 C3075 1.398 . S
C3076 C3077 1.391 . S
C3077 H3065 0.950 . S
C3077 C3073 1.393 . S
C3077 C3076 1.391 . S
C3078 H3068 0.950 . S
C3078 C3079 1.386 . S
C3078 C3080 1.391 . S
C3079 C3078 1.386 . S
C3079 C3083 1.393 . S
C3080 H3069 0.950 . S
C3080 C3078 1.391 . S
C3080 C3081 1.400 . S
C3081 C3075 1.491 . S
C3081 C3080 1.400 . S
C3081 C3082 1.398 . S
C3082 H3070 0.950 . S
C3082 C3081 1.398 . S
C3082 C3083 1.391 . S
C3083 H3071 0.950 . S
C3083 C3079 1.393 . S
C3083 C3082 1.391 . S
H3084 C3092 0.950 . S
H3085 C3097 0.950 . S
H3086 C3094 0.950 . S
H3087 C3096 0.950 . S
H3088 C3098 0.950 . S
H3089 C3100 0.950 . S
H3090 C3102 0.950 . S
H3091 C3103 0.950 . S
C3092 H3084 0.950 . S
C3092 C3093 1.386 . S
C3092 C3094 1.391 . S
C3093 C3092 1.386 . S
C3093 C3097 1.393 . S
C3094 H3086 0.950 . S
C3094 C3092 1.391 . S
C3094 C3095 1.400 . S
C3095 C3094 1.400 . S
C3095 C3096 1.398 . S
C3095 C3101 1.491 . S
C3096 H3087 0.950 . S
C3096 C3095 1.398 . S
C3096 C3097 1.391 . S
C3097 H3085 0.950 . S
C3097 C3093 1.393 . S
C3097 C3096 1.391 . S
C3098 H3088 0.950 . S
C3098 C3099 1.386 . S
C3098 C3100 1.391 . S
C3099 C3098 1.386 . S
C3099 C3103 1.393 . S
C3100 H3089 0.950 . S
C3100 C3098 1.391 . S
C3100 C3101 1.400 . S
C3101 C3095 1.491 . S
C3101 C3100 1.400 . S
C3101 C3102 1.398 . S
C3102 H3090 0.950 . S
C3102 C3101 1.398 . S
C3102 C3103 1.391 . S
C3103 H3091 0.950 . S
C3103 C3099 1.393 . S
C3103 C3102 1.391 . S
H3104 C3112 0.950 . S
H3105 C3117 0.950 . S
H3106 C3114 0.950 . S
H3107 C3116 0.950 . S
H3108 C3118 0.950 . S
H3109 C3120 0.950 . S
H3110 C3122 0.950 . S
H3111 C3123 0.950 . S
C3112 H3104 0.950 . S
C3112 C3113 1.386 . S
C3112 C3114 1.391 . S
C3113 C3112 1.386 . S
C3113 C3117 1.393 . S
C3114 H3106 0.950 . S
C3114 C3112 1.391 . S
C3114 C3115 1.400 . S
C3115 C3114 1.400 . S
C3115 C3116 1.398 . S
C3115 C3121 1.491 . S
C3116 H3107 0.950 . S
C3116 C3115 1.398 . S
C3116 C3117 1.391 . S
C3117 H3105 0.950 . S
C3117 C3113 1.393 . S
C3117 C3116 1.391 . S
C3118 H3108 0.950 . S
C3118 C3119 1.386 . S
C3118 C3120 1.391 . S
C3119 C3118 1.386 . S
C3119 C3123 1.393 . S
C3120 H3109 0.950 . S
C3120 C3118 1.391 . S
C3120 C3121 1.400 . S
C3121 C3115 1.491 . S
C3121 C3120 1.400 . S
C3121 C3122 1.398 . S
C3122 H3110 0.950 . S
C3122 C3121 1.398 . S
C3122 C3123 1.391 . S
C3123 H3111 0.950 . S
C3123 C3119 1.393 . S
C3123 C3122 1.391 . S
H3124 C3132 0.950 . S
H3125 C3137 0.950 . S
H3126 C3134 0.950 . S
H3127 C3136 0.950 . S
H3128 C3138 0.950 . S
H3129 C3140 0.950 . S
H3130 C3142 0.950 . S
H3131 C3143 0.950 . S
C3132 H3124 0.950 . S
C3132 C3133 1.386 . S
C3132 C3134 1.391 . S
C3133 C3132 1.386 . S
C3133 C3137 1.393 . S
C3134 H3126 0.950 . S
C3134 C3132 1.391 . S
C3134 C3135 1.400 . S
C3135 C3134 1.400 . S
C3135 C3136 1.398 . S
C3135 C3141 1.491 . S
C3136 H3127 0.950 . S
C3136 C3135 1.398 . S
C3136 C3137 1.391 . S
C3137 H3125 0.950 . S
C3137 C3133 1.393 . S
C3137 C3136 1.391 . S
C3138 H3128 0.950 . S
C3138 C3139 1.386 . S
C3138 C3140 1.391 . S
C3139 C3138 1.386 . S
C3139 C3143 1.393 . S
C3140 H3129 0.950 . S
C3140 C3138 1.391 . S
C3140 C3141 1.400 . S
C3141 C3135 1.491 . S
C3141 C3140 1.400 . S
C3141 C3142 1.398 . S
C3142 H3130 0.950 . S
C3142 C3141 1.398 . S
C3142 C3143 1.391 . S
C3143 H3131 0.950 . S
C3143 C3139 1.393 . S
C3143 C3142 1.391 . S
H3144 C3152 0.950 . S
H3145 C3157 0.950 . S
H3146 C3154 0.950 . S
H3147 C3156 0.950 . S
H3148 C3158 0.950 . S
H3149 C3160 0.950 . S
H3150 C3162 0.950 . S
H3151 C3163 0.950 . S
C3152 H3144 0.950 . S
C3152 C3153 1.386 . S
C3152 C3154 1.391 . S
C3153 C3152 1.386 . S
C3153 C3157 1.393 . S
C3154 H3146 0.950 . S
C3154 C3152 1.391 . S
C3154 C3155 1.400 . S
C3155 C3154 1.400 . S
C3155 C3156 1.398 . S
C3155 C3161 1.491 . S
C3156 H3147 0.950 . S
C3156 C3155 1.398 . S
C3156 C3157 1.391 . S
C3157 H3145 0.950 . S
C3157 C3153 1.393 . S
C3157 C3156 1.391 . S
C3158 H3148 0.950 . S
C3158 C3159 1.386 . S
C3158 C3160 1.391 . S
C3159 C3158 1.386 . S
C3159 C3163 1.393 . S
C3160 H3149 0.950 . S
C3160 C3158 1.391 . S
C3160 C3161 1.400 . S
C3161 C3155 1.491 . S
C3161 C3160 1.400 . S
C3161 C3162 1.398 . S
C3162 H3150 0.950 . S
C3162 C3161 1.398 . S
C3162 C3163 1.391 . S
C3163 H3151 0.950 . S
C3163 C3159 1.393 . S
C3163 C3162 1.391 . S
H3164 C3172 0.950 . S
H3165 C3177 0.950 . S
H3166 C3174 0.950 . S
H3167 C3176 0.950 . S
H3168 C3178 0.950 . S
H3169 C3180 0.950 . S
H3170 C3182 0.950 . S
H3171 C3183 0.950 . S
C3172 H3164 0.950 . S
C3172 C3173 1.386 . S
C3172 C3174 1.391 . S
C3173 C3172 1.386 . S
C3173 C3177 1.393 . S
C3174 H3166 0.950 . S
C3174 C3172 1.391 . S
C3174 C3175 1.400 . S
C3175 C3174 1.400 . S
C3175 C3176 1.398 . S
C3175 C3181 1.491 . S
C3176 H3167 0.950 . S
C3176 C3175 1.398 . S
C3176 C3177 1.391 . S
C3177 H3165 0.950 . S
C3177 C3173 1.393 . S
C3177 C3176 1.391 . S
C3178 H3168 0.950 . S
C3178 C3179 1.386 . S
C3178 C3180 1.391 . S
C3179 C3178 1.386 . S
C3179 C3183 1.393 . S
C3180 H3169 0.950 . S
C3180 C3178 1.391 . S
C3180 C3181 1.400 . S
C3181 C3175 1.491 . S
C3181 C3180 1.400 . S
C3181 C3182 1.398 . S
C3182 H3170 0.950 . S
C3182 C3181 1.398 . S
C3182 C3183 1.391 . S
C3183 H3171 0.950 . S
C3183 C3179 1.393 . S
C3183 C3182 1.391 . S
H3184 C3192 0.950 . S
H3185 C3197 0.950 . S
H3186 C3194 0.950 . S
H3187 C3196 0.950 . S
H3188 C3198 0.950 . S
H3189 C3200 0.950 . S
H3190 C3202 0.950 . S
H3191 C3203 0.950 . S
C3192 H3184 0.950 . S
C3192 C3193 1.386 . S
C3192 C3194 1.391 . S
C3193 C3192 1.386 . S
C3193 C3197 1.393 . S
C3194 H3186 0.950 . S
C3194 C3192 1.391 . S
C3194 C3195 1.400 . S
C3195 C3194 1.400 . S
C3195 C3196 1.398 . S
C3195 C3201 1.491 . S
C3196 H3187 0.950 . S
C3196 C3195 1.398 . S
C3196 C3197 1.391 . S
C3197 H3185 0.950 . S
C3197 C3193 1.393 . S
C3197 C3196 1.391 . S
C3198 H3188 0.950 . S
C3198 C3199 1.386 . S
C3198 C3200 1.391 . S
C3199 C3198 1.386 . S
C3199 C3203 1.393 . S
C3200 H3189 0.950 . S
C3200 C3198 1.391 . S
C3200 C3201 1.400 . S
C3201 C3195 1.491 . S
C3201 C3200 1.400 . S
C3201 C3202 1.398 . S
C3202 H3190 0.950 . S
C3202 C3201 1.398 . S
C3202 C3203 1.391 . S
C3203 H3191 0.950 . S
C3203 C3199 1.393 . S
C3203 C3202 1.391 . S
H3204 C3212 0.950 . S
H3205 C3217 0.950 . S
H3206 C3214 0.950 . S
H3207 C3216 0.950 . S
H3208 C3218 0.950 . S
H3209 C3220 0.950 . S
H3210 C3222 0.950 . S
H3211 C3223 0.950 . S
C3212 H3204 0.950 . S
C3212 C3213 1.386 . S
C3212 C3214 1.391 . S
C3213 C3212 1.386 . S
C3213 C3217 1.393 . S
C3214 H3206 0.950 . S
C3214 C3212 1.391 . S
C3214 C3215 1.400 . S
C3215 C3214 1.400 . S
C3215 C3216 1.398 . S
C3215 C3221 1.491 . S
C3216 H3207 0.950 . S
C3216 C3215 1.398 . S
C3216 C3217 1.391 . S
C3217 H3205 0.950 . S
C3217 C3213 1.393 . S
C3217 C3216 1.391 . S
C3218 H3208 0.950 . S
C3218 C3219 1.386 . S
C3218 C3220 1.391 . S
C3219 C3218 1.386 . S
C3219 C3223 1.393 . S
C3220 H3209 0.950 . S
C3220 C3218 1.391 . S
C3220 C3221 1.400 . S
C3221 C3215 1.491 . S
C3221 C3220 1.400 . S
C3221 C3222 1.398 . S
C3222 H3210 0.950 . S
C3222 C3221 1.398 . S
C3222 C3223 1.391 . S
C3223 H3211 0.950 . S
C3223 C3219 1.393 . S
C3223 C3222 1.391 . S
H3224 C3232 0.950 . S
H3225 C3237 0.950 . S
H3226 C3234 0.950 . S
H3227 C3236 0.950 . S
H3228 C3238 0.950 . S
H3229 C3240 0.950 . S
H3230 C3242 0.950 . S
H3231 C3243 0.950 . S
C3232 H3224 0.950 . S
C3232 C3233 1.386 . S
C3232 C3234 1.391 . S
C3233 C3232 1.386 . S
C3233 C3237 1.393 . S
C3234 H3226 0.950 . S
C3234 C3232 1.391 . S
C3234 C3235 1.400 . S
C3235 C3234 1.400 . S
C3235 C3236 1.398 . S
C3235 C3241 1.491 . S
C3236 H3227 0.950 . S
C3236 C3235 1.398 . S
C3236 C3237 1.391 . S
C3237 H3225 0.950 . S
C3237 C3233 1.393 . S
C3237 C3236 1.391 . S
C3238 H3228 0.950 . S
C3238 C3239 1.386 . S
C3238 C3240 1.391 . S
C3239 C3238 1.386 . S
C3239 C3243 1.393 . S
C3240 H3229 0.950 . S
C3240 C3238 1.391 . S
C3240 C3241 1.400 . S
C3241 C3235 1.491 . S
C3241 C3240 1.400 . S
C3241 C3242 1.398 . S
C3242 H3230 0.950 . S
C3242 C3241 1.398 . S
C3242 C3243 1.391 . S
C3243 H3231 0.950 . S
C3243 C3239 1.393 . S
C3243 C3242 1.391 . S
H3244 C3252 0.950 . S
H3245 C3257 0.950 . S
H3246 C3254 0.950 . S
H3247 C3256 0.950 . S
H3248 C3258 0.950 . S
H3249 C3260 0.950 . S
H3250 C3262 0.950 . S
H3251 C3263 0.950 . S
C3252 H3244 0.950 . S
C3252 C3253 1.386 . S
C3252 C3254 1.391 . S
C3253 C3252 1.386 . S
C3253 C3257 1.393 . S
C3254 H3246 0.950 . S
C3254 C3252 1.391 . S
C3254 C3255 1.400 . S
C3255 C3254 1.400 . S
C3255 C3256 1.398 . S
C3255 C3261 1.491 . S
C3256 H3247 0.950 . S
C3256 C3255 1.398 . S
C3256 C3257 1.391 . S
C3257 H3245 0.950 . S
C3257 C3253 1.393 . S
C3257 C3256 1.391 . S
C3258 H3248 0.950 . S
C3258 C3259 1.386 . S
C3258 C3260 1.391 . S
C3259 C3258 1.386 . S
C3259 C3263 1.393 . S
C3260 H3249 0.950 . S
C3260 C3258 1.391 . S
C3260 C3261 1.400 . S
C3261 C3255 1.491 . S
C3261 C3260 1.400 . S
C3261 C3262 1.398 . S
C3262 H3250 0.950 . S
C3262 C3261 1.398 . S
C3262 C3263 1.391 . S
C3263 H3251 0.950 . S
C3263 C3259 1.393 . S
C3263 C3262 1.391 . S
H3264 C3272 0.950 . S
H3265 C3277 0.950 . S
H3266 C3274 0.950 . S
H3267 C3276 0.950 . S
H3268 C3278 0.950 . S
H3269 C3280 0.950 . S
H3270 C3282 0.950 . S
H3271 C3283 0.950 . S
C3272 H3264 0.950 . S
C3272 C3273 1.386 . S
C3272 C3274 1.391 . S
C3273 C3272 1.386 . S
C3273 C3277 1.393 . S
C3274 H3266 0.950 . S
C3274 C3272 1.391 . S
C3274 C3275 1.400 . S
C3275 C3274 1.400 . S
C3275 C3276 1.398 . S
C3275 C3281 1.491 . S
C3276 H3267 0.950 . S
C3276 C3275 1.398 . S
C3276 C3277 1.391 . S
C3277 H3265 0.950 . S
C3277 C3273 1.393 . S
C3277 C3276 1.391 . S
C3278 H3268 0.950 . S
C3278 C3279 1.386 . S
C3278 C3280 1.391 . S
C3279 C3278 1.386 . S
C3279 C3283 1.393 . S
C3280 H3269 0.950 . S
C3280 C3278 1.391 . S
C3280 C3281 1.400 . S
C3281 C3275 1.491 . S
C3281 C3280 1.400 . S
C3281 C3282 1.398 . S
C3282 H3270 0.950 . S
C3282 C3281 1.398 . S
C3282 C3283 1.391 . S
C3283 H3271 0.950 . S
C3283 C3279 1.393 . S
C3283 C3282 1.391 . S
H3284 C3292 0.950 . S
H3285 C3297 0.950 . S
H3286 C3294 0.950 . S
H3287 C3296 0.950 . S
H3288 C3298 0.950 . S
H3289 C3300 0.950 . S
H3290 C3302 0.950 . S
H3291 C3303 0.950 . S
C3292 H3284 0.950 . S
C3292 C3293 1.386 . S
C3292 C3294 1.391 . S
C3293 C3292 1.386 . S
C3293 C3297 1.393 . S
C3294 H3286 0.950 . S
C3294 C3292 1.391 . S
C3294 C3295 1.400 . S
C3295 C3294 1.400 . S
C3295 C3296 1.398 . S
C3295 C3301 1.491 . S
C3296 H3287 0.950 . S
C3296 C3295 1.398 . S
C3296 C3297 1.391 . S
C3297 H3285 0.950 . S
C3297 C3293 1.393 . S
C3297 C3296 1.391 . S
C3298 H3288 0.950 . S
C3298 C3299 1.386 . S
C3298 C3300 1.391 . S
C3299 C3298 1.386 . S
C3299 C3303 1.393 . S
C3300 H3289 0.950 . S
C3300 C3298 1.391 . S
C3300 C3301 1.400 . S
C3301 C3295 1.491 . S
C3301 C3300 1.400 . S
C3301 C3302 1.398 . S
C3302 H3290 0.950 . S
C3302 C3301 1.398 . S
C3302 C3303 1.391 . S
C3303 H3291 0.950 . S
C3303 C3299 1.393 . S
C3303 C3302 1.391 . S
H3304 C3312 0.950 . S
H3305 C3317 0.950 . S
H3306 C3314 0.950 . S
H3307 C3316 0.950 . S
H3308 C3318 0.950 . S
H3309 C3320 0.950 . S
H3310 C3322 0.950 . S
H3311 C3323 0.950 . S
C3312 H3304 0.950 . S
C3312 C3313 1.386 . S
C3312 C3314 1.391 . S
C3313 C3312 1.386 . S
C3313 C3317 1.393 . S
C3314 H3306 0.950 . S
C3314 C3312 1.391 . S
C3314 C3315 1.400 . S
C3315 C3314 1.400 . S
C3315 C3316 1.398 . S
C3315 C3321 1.491 . S
C3316 H3307 0.950 . S
C3316 C3315 1.398 . S
C3316 C3317 1.391 . S
C3317 H3305 0.950 . S
C3317 C3313 1.393 . S
C3317 C3316 1.391 . S
C3318 H3308 0.950 . S
C3318 C3319 1.386 . S
C3318 C3320 1.391 . S
C3319 C3318 1.386 . S
C3319 C3323 1.393 . S
C3320 H3309 0.950 . S
C3320 C3318 1.391 . S
C3320 C3321 1.400 . S
C3321 C3315 1.491 . S
C3321 C3320 1.400 . S
C3321 C3322 1.398 . S
C3322 H3310 0.950 . S
C3322 C3321 1.398 . S
C3322 C3323 1.391 . S
C3323 H3311 0.950 . S
C3323 C3319 1.393 . S
C3323 C3322 1.391 . S
H3324 C3332 0.950 . S
H3325 C3337 0.950 . S
H3326 C3334 0.950 . S
H3327 C3336 0.950 . S
H3328 C3338 0.950 . S
H3329 C3340 0.950 . S
H3330 C3342 0.950 . S
H3331 C3343 0.950 . S
C3332 H3324 0.950 . S
C3332 C3333 1.386 . S
C3332 C3334 1.391 . S
C3333 C3332 1.386 . S
C3333 C3337 1.393 . S
C3334 H3326 0.950 . S
C3334 C3332 1.391 . S
C3334 C3335 1.400 . S
C3335 C3334 1.400 . S
C3335 C3336 1.398 . S
C3335 C3341 1.491 . S
C3336 H3327 0.950 . S
C3336 C3335 1.398 . S
C3336 C3337 1.391 . S
C3337 H3325 0.950 . S
C3337 C3333 1.393 . S
C3337 C3336 1.391 . S
C3338 H3328 0.950 . S
C3338 C3339 1.386 . S
C3338 C3340 1.391 . S
C3339 C3338 1.386 . S
C3339 C3343 1.393 . S
C3340 H3329 0.950 . S
C3340 C3338 1.391 . S
C3340 C3341 1.400 . S
C3341 C3335 1.491 . S
C3341 C3340 1.400 . S
C3341 C3342 1.398 . S
C3342 H3330 0.950 . S
C3342 C3341 1.398 . S
C3342 C3343 1.391 . S
C3343 H3331 0.950 . S
C3343 C3339 1.393 . S
C3343 C3342 1.391 . S
H3344 C3352 0.950 . S
H3345 C3357 0.950 . S
H3346 C3354 0.950 . S
H3347 C3356 0.950 . S
H3348 C3358 0.950 . S
H3349 C3360 0.950 . S
H3350 C3362 0.950 . S
H3351 C3363 0.950 . S
C3352 H3344 0.950 . S
C3352 C3353 1.386 . S
C3352 C3354 1.391 . S
C3353 C3352 1.386 . S
C3353 C3357 1.393 . S
C3354 H3346 0.950 . S
C3354 C3352 1.391 . S
C3354 C3355 1.400 . S
C3355 C3354 1.400 . S
C3355 C3356 1.398 . S
C3355 C3361 1.491 . S
C3356 H3347 0.950 . S
C3356 C3355 1.398 . S
C3356 C3357 1.391 . S
C3357 H3345 0.950 . S
C3357 C3353 1.393 . S
C3357 C3356 1.391 . S
C3358 H3348 0.950 . S
C3358 C3359 1.386 . S
C3358 C3360 1.391 . S
C3359 C3358 1.386 . S
C3359 C3363 1.393 . S
C3360 H3349 0.950 . S
C3360 C3358 1.391 . S
C3360 C3361 1.400 . S
C3361 C3355 1.491 . S
C3361 C3360 1.400 . S
C3361 C3362 1.398 . S
C3362 H3350 0.950 . S
C3362 C3361 1.398 . S
C3362 C3363 1.391 . S
C3363 H3351 0.950 . S
C3363 C3359 1.393 . S
C3363 C3362 1.391 . S
H3364 C3372 0.950 . S
H3365 C3377 0.950 . S
H3366 C3374 0.950 . S
H3367 C3376 0.950 . S
H3368 C3378 0.950 . S
H3369 C3380 0.950 . S
H3370 C3382 0.950 . S
H3371 C3383 0.950 . S
C3372 H3364 0.950 . S
C3372 C3373 1.386 . S
C3372 C3374 1.391 . S
C3373 C3372 1.386 . S
C3373 C3377 1.393 . S
C3374 H3366 0.950 . S
C3374 C3372 1.391 . S
C3374 C3375 1.400 . S
C3375 C3374 1.400 . S
C3375 C3376 1.398 . S
C3375 C3381 1.491 . S
C3376 H3367 0.950 . S
C3376 C3375 1.398 . S
C3376 C3377 1.391 . S
C3377 H3365 0.950 . S
C3377 C3373 1.393 . S
C3377 C3376 1.391 . S
C3378 H3368 0.950 . S
C3378 C3379 1.386 . S
C3378 C3380 1.391 . S
C3379 C3378 1.386 . S
C3379 C3383 1.393 . S
C3380 H3369 0.950 . S
C3380 C3378 1.391 . S
C3380 C3381 1.400 . S
C3381 C3375 1.491 . S
C3381 C3380 1.400 . S
C3381 C3382 1.398 . S
C3382 H3370 0.950 . S
C3382 C3381 1.398 . S
C3382 C3383 1.391 . S
C3383 H3371 0.950 . S
C3383 C3379 1.393 . S
C3383 C3382 1.391 . S
H3384 C3392 0.950 . S
H3385 C3397 0.950 . S
H3386 C3394 0.950 . S
H3387 C3396 0.950 . S
H3388 C3398 0.950 . S
H3389 C3400 0.950 . S
H3390 C3402 0.950 . S
H3391 C3403 0.950 . S
C3392 H3384 0.950 . S
C3392 C3393 1.386 . S
C3392 C3394 1.391 . S
C3393 C3392 1.386 . S
C3393 C3397 1.393 . S
C3394 H3386 0.950 . S
C3394 C3392 1.391 . S
C3394 C3395 1.400 . S
C3395 C3394 1.400 . S
C3395 C3396 1.398 . S
C3395 C3401 1.491 . S
C3396 H3387 0.950 . S
C3396 C3395 1.398 . S
C3396 C3397 1.391 . S
C3397 H3385 0.950 . S
C3397 C3393 1.393 . S
C3397 C3396 1.391 . S
C3398 H3388 0.950 . S
C3398 C3399 1.386 . S
C3398 C3400 1.391 . S
C3399 C3398 1.386 . S
C3399 C3403 1.393 . S
C3400 H3389 0.950 . S
C3400 C3398 1.391 . S
C3400 C3401 1.400 . S
C3401 C3395 1.491 . S
C3401 C3400 1.400 . S
C3401 C3402 1.398 . S
C3402 H3390 0.950 . S
C3402 C3401 1.398 . S
C3402 C3403 1.391 . S
C3403 H3391 0.950 . S
C3403 C3399 1.393 . S
C3403 C3402 1.391 . S
H3404 C3412 0.950 . S
H3405 C3417 0.950 . S
H3406 C3414 0.950 . S
H3407 C3416 0.950 . S
H3408 C3418 0.950 . S
H3409 C3420 0.950 . S
H3410 C3422 0.950 . S
H3411 C3423 0.950 . S
C3412 H3404 0.950 . S
C3412 C3413 1.386 . S
C3412 C3414 1.391 . S
C3413 C3412 1.386 . S
C3413 C3417 1.393 . S
C3414 H3406 0.950 . S
C3414 C3412 1.391 . S
C3414 C3415 1.400 . S
C3415 C3414 1.400 . S
C3415 C3416 1.398 . S
C3415 C3421 1.491 . S
C3416 H3407 0.950 . S
C3416 C3415 1.398 . S
C3416 C3417 1.391 . S
C3417 H3405 0.950 . S
C3417 C3413 1.393 . S
C3417 C3416 1.391 . S
C3418 H3408 0.950 . S
C3418 C3419 1.386 . S
C3418 C3420 1.391 . S
C3419 C3418 1.386 . S
C3419 C3423 1.393 . S
C3420 H3409 0.950 . S
C3420 C3418 1.391 . S
C3420 C3421 1.400 . S
C3421 C3415 1.491 . S
C3421 C3420 1.400 . S
C3421 C3422 1.398 . S
C3422 H3410 0.950 . S
C3422 C3421 1.398 . S
C3422 C3423 1.391 . S
C3423 H3411 0.950 . S
C3423 C3419 1.393 . S
C3423 C3422 1.391 . S
H3424 C3432 0.950 . S
H3425 C3437 0.950 . S
H3426 C3434 0.950 . S
H3427 C3436 0.950 . S
H3428 C3438 0.950 . S
H3429 C3440 0.950 . S
H3430 C3442 0.950 . S
H3431 C3443 0.950 . S
C3432 H3424 0.950 . S
C3432 C3433 1.386 . S
C3432 C3434 1.391 . S
C3433 C3432 1.386 . S
C3433 C3437 1.393 . S
C3434 H3426 0.950 . S
C3434 C3432 1.391 . S
C3434 C3435 1.400 . S
C3435 C3434 1.400 . S
C3435 C3436 1.398 . S
C3435 C3441 1.491 . S
C3436 H3427 0.950 . S
C3436 C3435 1.398 . S
C3436 C3437 1.391 . S
C3437 H3425 0.950 . S
C3437 C3433 1.393 . S
C3437 C3436 1.391 . S
C3438 H3428 0.950 . S
C3438 C3439 1.386 . S
C3438 C3440 1.391 . S
C3439 C3438 1.386 . S
C3439 C3443 1.393 . S
C3440 H3429 0.950 . S
C3440 C3438 1.391 . S
C3440 C3441 1.400 . S
C3441 C3435 1.491 . S
C3441 C3440 1.400 . S
C3441 C3442 1.398 . S
C3442 H3430 0.950 . S
C3442 C3441 1.398 . S
C3442 C3443 1.391 . S
C3443 H3431 0.950 . S
C3443 C3439 1.393 . S
C3443 C3442 1.391 . S
H3444 C3452 0.950 . S
H3445 C3457 0.950 . S
H3446 C3454 0.950 . S
H3447 C3456 0.950 . S
H3448 C3458 0.950 . S
H3449 C3460 0.950 . S
H3450 C3462 0.950 . S
H3451 C3463 0.950 . S
C3452 H3444 0.950 . S
C3452 C3453 1.386 . S
C3452 C3454 1.391 . S
C3453 C3452 1.386 . S
C3453 C3457 1.393 . S
C3454 H3446 0.950 . S
C3454 C3452 1.391 . S
C3454 C3455 1.400 . S
C3455 C3454 1.400 . S
C3455 C3456 1.398 . S
C3455 C3461 1.491 . S
C3456 H3447 0.950 . S
C3456 C3455 1.398 . S
C3456 C3457 1.391 . S
C3457 H3445 0.950 . S
C3457 C3453 1.393 . S
C3457 C3456 1.391 . S
C3458 H3448 0.950 . S
C3458 C3459 1.386 . S
C3458 C3460 1.391 . S
C3459 C3458 1.386 . S
C3459 C3463 1.393 . S
C3460 H3449 0.950 . S
C3460 C3458 1.391 . S
C3460 C3461 1.400 . S
C3461 C3455 1.491 . S
C3461 C3460 1.400 . S
C3461 C3462 1.398 . S
C3462 H3450 0.950 . S
C3462 C3461 1.398 . S
C3462 C3463 1.391 . S
C3463 H3451 0.950 . S
C3463 C3459 1.393 . S
C3463 C3462 1.391 . S
H3464 C3472 0.950 . S
H3465 C3477 0.950 . S
H3466 C3474 0.950 . S
H3467 C3476 0.950 . S
H3468 C3478 0.950 . S
H3469 C3480 0.950 . S
H3470 C3482 0.950 . S
H3471 C3483 0.950 . S
C3472 H3464 0.950 . S
C3472 C3473 1.386 . S
C3472 C3474 1.391 . S
C3473 C3472 1.386 . S
C3473 C3477 1.393 . S
C3474 H3466 0.950 . S
C3474 C3472 1.391 . S
C3474 C3475 1.400 . S
C3475 C3474 1.400 . S
C3475 C3476 1.398 . S
C3475 C3481 1.491 . S
C3476 H3467 0.950 . S
C3476 C3475 1.398 . S
C3476 C3477 1.391 . S
C3477 H3465 0.950 . S
C3477 C3473 1.393 . S
C3477 C3476 1.391 . S
C3478 H3468 0.950 . S
C3478 C3479 1.386 . S
C3478 C3480 1.391 . S
C3479 C3478 1.386 . S
C3479 C3483 1.393 . S
C3480 H3469 0.950 . S
C3480 C3478 1.391 . S
C3480 C3481 1.400 . S
C3481 C3475 1.491 . S
C3481 C3480 1.400 . S
C3481 C3482 1.398 . S
C3482 H3470 0.950 . S
C3482 C3481 1.398 . S
C3482 C3483 1.391 . S
C3483 H3471 0.950 . S
C3483 C3479 1.393 . S
C3483 C3482 1.391 . S
H3484 C3492 0.950 . S
H3485 C3497 0.950 . S
H3486 C3494 0.950 . S
H3487 C3496 0.950 . S
H3488 C3498 0.950 . S
H3489 C3500 0.950 . S
H3490 C3502 0.950 . S
H3491 C3503 0.950 . S
C3492 H3484 0.950 . S
C3492 C3493 1.386 . S
C3492 C3494 1.391 . S
C3493 C3492 1.386 . S
C3493 C3497 1.393 . S
C3494 H3486 0.950 . S
C3494 C3492 1.391 . S
C3494 C3495 1.400 . S
C3495 C3494 1.400 . S
C3495 C3496 1.398 . S
C3495 C3501 1.491 . S
C3496 H3487 0.950 . S
C3496 C3495 1.398 . S
C3496 C3497 1.391 . S
C3497 H3485 0.950 . S
C3497 C3493 1.393 . S
C3497 C3496 1.391 . S
C3498 H3488 0.950 . S
C3498 C3499 1.386 . S
C3498 C3500 1.391 . S
C3499 C3498 1.386 . S
C3499 C3503 1.393 . S
C3500 H3489 0.950 . S
C3500 C3498 1.391 . S
C3500 C3501 1.400 . S
C3501 C3495 1.491 . S
C3501 C3500 1.400 . S
C3501 C3502 1.398 . S
C3502 H3490 0.950 . S
C3502 C3501 1.398 . S
C3502 C3503 1.391 . S
C3503 H3491 0.950 . S
C3503 C3499 1.393 . S
C3503 C3502 1.391 . S
H3504 C3512 0.950 . S
H3505 C3517 0.950 . S
H3506 C3514 0.950 . S
H3507 C3516 0.950 . S
H3508 C3518 0.950 . S
H3509 C3520 0.950 . S
H3510 C3522 0.950 . S
H3511 C3523 0.950 . S
C3512 H3504 0.950 . S
C3512 C3513 1.386 . S
C3512 C3514 1.391 . S
C3513 C3512 1.386 . S
C3513 C3517 1.393 . S
C3514 H3506 0.950 . S
C3514 C3512 1.391 . S
C3514 C3515 1.400 . S
C3515 C3514 1.400 . S
C3515 C3516 1.398 . S
C3515 C3521 1.491 . S
C3516 H3507 0.950 . S
C3516 C3515 1.398 . S
C3516 C3517 1.391 . S
C3517 H3505 0.950 . S
C3517 C3513 1.393 . S
C3517 C3516 1.391 . S
C3518 H3508 0.950 . S
C3518 C3519 1.386 . S
C3518 C3520 1.391 . S
C3519 C3518 1.386 . S
C3519 C3523 1.393 . S
C3520 H3509 0.950 . S
C3520 C3518 1.391 . S
C3520 C3521 1.400 . S
C3521 C3515 1.491 . S
C3521 C3520 1.400 . S
C3521 C3522 1.398 . S
C3522 H3510 0.950 . S
C3522 C3521 1.398 . S
C3522 C3523 1.391 . S
C3523 H3511 0.950 . S
C3523 C3519 1.393 . S
C3523 C3522 1.391 . S
H3524 C3532 0.950 . S
H3525 C3537 0.950 . S
H3526 C3534 0.950 . S
H3527 C3536 0.950 . S
H3528 C3538 0.950 . S
H3529 C3540 0.950 . S
H3530 C3542 0.950 . S
H3531 C3543 0.950 . S
C3532 H3524 0.950 . S
C3532 C3533 1.386 . S
C3532 C3534 1.391 . S
C3533 C3532 1.386 . S
C3533 C3537 1.393 . S
C3534 H3526 0.950 . S
C3534 C3532 1.391 . S
C3534 C3535 1.400 . S
C3535 C3534 1.400 . S
C3535 C3536 1.398 . S
C3535 C3541 1.491 . S
C3536 H3527 0.950 . S
C3536 C3535 1.398 . S
C3536 C3537 1.391 . S
C3537 H3525 0.950 . S
C3537 C3533 1.393 . S
C3537 C3536 1.391 . S
C3538 H3528 0.950 . S
C3538 C3539 1.386 . S
C3538 C3540 1.391 . S
C3539 C3538 1.386 . S
C3539 C3543 1.393 . S
C3540 H3529 0.950 . S
C3540 C3538 1.391 . S
C3540 C3541 1.400 . S
C3541 C3535 1.491 . S
C3541 C3540 1.400 . S
C3541 C3542 1.398 . S
C3542 H3530 0.950 . S
C3542 C3541 1.398 . S
C3542 C3543 1.391 . S
C3543 H3531 0.950 . S
C3543 C3539 1.393 . S
C3543 C3542 1.391 . S
H3544 C3552 0.950 . S
H3545 C3557 0.950 . S
H3546 C3554 0.950 . S
H3547 C3556 0.950 . S
H3548 C3558 0.950 . S
H3549 C3560 0.950 . S
H3550 C3562 0.950 . S
H3551 C3563 0.950 . S
C3552 H3544 0.950 . S
C3552 C3553 1.386 . S
C3552 C3554 1.391 . S
C3553 C3552 1.386 . S
C3553 C3557 1.393 . S
C3554 H3546 0.950 . S
C3554 C3552 1.391 . S
C3554 C3555 1.400 . S
C3555 C3554 1.400 . S
C3555 C3556 1.398 . S
C3555 C3561 1.491 . S
C3556 H3547 0.950 . S
C3556 C3555 1.398 . S
C3556 C3557 1.391 . S
C3557 H3545 0.950 . S
C3557 C3553 1.393 . S
C3557 C3556 1.391 . S
C3558 H3548 0.950 . S
C3558 C3559 1.386 . S
C3558 C3560 1.391 . S
C3559 C3558 1.386 . S
C3559 C3563 1.393 . S
C3560 H3549 0.950 . S
C3560 C3558 1.391 . S
C3560 C3561 1.400 . S
C3561 C3555 1.491 . S
C3561 C3560 1.400 . S
C3561 C3562 1.398 . S
C3562 H3550 0.950 . S
C3562 C3561 1.398 . S
C3562 C3563 1.391 . S
C3563 H3551 0.950 . S
C3563 C3559 1.393 . S
C3563 C3562 1.391 . S
H3564 C3572 0.950 . S
H3565 C3577 0.950 . S
H3566 C3574 0.950 . S
H3567 C3576 0.950 . S
H3568 C3578 0.950 . S
H3569 C3580 0.950 . S
H3570 C3582 0.950 . S
H3571 C3583 0.950 . S
C3572 H3564 0.950 . S
C3572 C3573 1.386 . S
C3572 C3574 1.391 . S
C3573 C3572 1.386 . S
C3573 C3577 1.393 . S
C3574 H3566 0.950 . S
C3574 C3572 1.391 . S
C3574 C3575 1.400 . S
C3575 C3574 1.400 . S
C3575 C3576 1.398 . S
C3575 C3581 1.491 . S
C3576 H3567 0.950 . S
C3576 C3575 1.398 . S
C3576 C3577 1.391 . S
C3577 H3565 0.950 . S
C3577 C3573 1.393 . S
C3577 C3576 1.391 . S
C3578 H3568 0.950 . S
C3578 C3579 1.386 . S
C3578 C3580 1.391 . S
C3579 C3578 1.386 . S
C3579 C3583 1.393 . S
C3580 H3569 0.950 . S
C3580 C3578 1.391 . S
C3580 C3581 1.400 . S
C3581 C3575 1.491 . S
C3581 C3580 1.400 . S
C3581 C3582 1.398 . S
C3582 H3570 0.950 . S
C3582 C3581 1.398 . S
C3582 C3583 1.391 . S
C3583 H3571 0.950 . S
C3583 C3579 1.393 . S
C3583 C3582 1.391 . S
H3584 C3592 0.950 . S
H3585 C3597 0.950 . S
H3586 C3594 0.950 . S
H3587 C3596 0.950 . S
H3588 C3598 0.950 . S
H3589 C3600 0.950 . S
H3590 C3602 0.950 . S
H3591 C3603 0.950 . S
C3592 H3584 0.950 . S
C3592 C3593 1.386 . S
C3592 C3594 1.391 . S
C3593 C3592 1.386 . S
C3593 C3597 1.393 . S
C3594 H3586 0.950 . S
C3594 C3592 1.391 . S
C3594 C3595 1.400 . S
C3595 C3594 1.400 . S
C3595 C3596 1.398 . S
C3595 C3601 1.491 . S
C3596 H3587 0.950 . S
C3596 C3595 1.398 . S
C3596 C3597 1.391 . S
C3597 H3585 0.950 . S
C3597 C3593 1.393 . S
C3597 C3596 1.391 . S
C3598 H3588 0.950 . S
C3598 C3599 1.386 . S
C3598 C3600 1.391 . S
C3599 C3598 1.386 . S
C3599 C3603 1.393 . S
C3600 H3589 0.950 . S
C3600 C3598 1.391 . S
C3600 C3601 1.400 . S
C3601 C3595 1.491 . S
C3601 C3600 1.400 . S
C3601 C3602 1.398 . S
C3602 H3590 0.950 . S
C3602 C3601 1.398 . S
C3602 C3603 1.391 . S
C3603 H3591 0.950 . S
C3603 C3599 1.393 . S
C3603 C3602 1.391 . S
H3604 C3612 0.950 . S
H3605 C3617 0.950 . S
H3606 C3614 0.950 . S
H3607 C3616 0.950 . S
H3608 C3618 0.950 . S
H3609 C3620 0.950 . S
H3610 C3622 0.950 . S
H3611 C3623 0.950 . S
C3612 H3604 0.950 . S
C3612 C3613 1.386 . S
C3612 C3614 1.391 . S
C3613 C3612 1.386 . S
C3613 C3617 1.393 . S
C3614 H3606 0.950 . S
C3614 C3612 1.391 . S
C3614 C3615 1.400 . S
C3615 C3614 1.400 . S
C3615 C3616 1.398 . S
C3615 C3621 1.491 . S
C3616 H3607 0.950 . S
C3616 C3615 1.398 . S
C3616 C3617 1.391 . S
C3617 H3605 0.950 . S
C3617 C3613 1.393 . S
C3617 C3616 1.391 . S
C3618 H3608 0.950 . S
C3618 C3619 1.386 . S
C3618 C3620 1.391 . S
C3619 C3618 1.386 . S
C3619 C3623 1.393 . S
C3620 H3609 0.950 . S
C3620 C3618 1.391 . S
C3620 C3621 1.400 . S
C3621 C3615 1.491 . S
C3621 C3620 1.400 . S
C3621 C3622 1.398 . S
C3622 H3610 0.950 . S
C3622 C3621 1.398 . S
C3622 C3623 1.391 . S
C3623 H3611 0.950 . S
C3623 C3619 1.393 . S
C3623 C3622 1.391 . S
H3624 C3632 0.950 . S
H3625 C3637 0.950 . S
H3626 C3634 0.950 . S
H3627 C3636 0.950 . S
H3628 C3638 0.950 . S
H3629 C3640 0.950 . S
H3630 C3642 0.950 . S
H3631 C3643 0.950 . S
C3632 H3624 0.950 . S
C3632 C3633 1.386 . S
C3632 C3634 1.391 . S
C3633 C3632 1.386 . S
C3633 C3637 1.393 . S
C3634 H3626 0.950 . S
C3634 C3632 1.391 . S
C3634 C3635 1.400 . S
C3635 C3634 1.400 . S
C3635 C3636 1.398 . S
C3635 C3641 1.491 . S
C3636 H3627 0.950 . S
C3636 C3635 1.398 . S
C3636 C3637 1.391 . S
C3637 H3625 0.950 . S
C3637 C3633 1.393 . S
C3637 C3636 1.391 . S
C3638 H3628 0.950 . S
C3638 C3639 1.386 . S
C3638 C3640 1.391 . S
C3639 C3638 1.386 . S
C3639 C3643 1.393 . S
C3640 H3629 0.950 . S
C3640 C3638 1.391 . S
C3640 C3641 1.400 . S
C3641 C3635 1.491 . S
C3641 C3640 1.400 . S
C3641 C3642 1.398 . S
C3642 H3630 0.950 . S
C3642 C3641 1.398 . S
C3642 C3643 1.391 . S
C3643 H3631 0.950 . S
C3643 C3639 1.393 . S
C3643 C3642 1.391 . S
H3644 C3652 0.950 . S
H3645 C3657 0.950 . S
H3646 C3654 0.950 . S
H3647 C3656 0.950 . S
H3648 C3658 0.950 . S
H3649 C3660 0.950 . S
H3650 C3662 0.950 . S
H3651 C3663 0.950 . S
C3652 H3644 0.950 . S
C3652 C3653 1.386 . S
C3652 C3654 1.391 . S
C3653 C3652 1.386 . S
C3653 C3657 1.393 . S
C3654 H3646 0.950 . S
C3654 C3652 1.391 . S
C3654 C3655 1.400 . S
C3655 C3654 1.400 . S
C3655 C3656 1.398 . S
C3655 C3661 1.491 . S
C3656 H3647 0.950 . S
C3656 C3655 1.398 . S
C3656 C3657 1.391 . S
C3657 H3645 0.950 . S
C3657 C3653 1.393 . S
C3657 C3656 1.391 . S
C3658 H3648 0.950 . S
C3658 C3659 1.386 . S
C3658 C3660 1.391 . S
C3659 C3658 1.386 . S
C3659 C3663 1.393 . S
C3660 H3649 0.950 . S
C3660 C3658 1.391 . S
C3660 C3661 1.400 . S
C3661 C3655 1.491 . S
C3661 C3660 1.400 . S
C3661 C3662 1.398 . S
C3662 H3650 0.950 . S
C3662 C3661 1.398 . S
C3662 C3663 1.391 . S
C3663 H3651 0.950 . S
C3663 C3659 1.393 . S
C3663 C3662 1.391 . S
H3664 C3672 0.950 . S
H3665 C3677 0.950 . S
H3666 C3674 0.950 . S
H3667 C3676 0.950 . S
H3668 C3678 0.950 . S
H3669 C3680 0.950 . S
H3670 C3682 0.950 . S
H3671 C3683 0.950 . S
C3672 H3664 0.950 . S
C3672 C3673 1.386 . S
C3672 C3674 1.391 . S
C3673 C3672 1.386 . S
C3673 C3677 1.393 . S
C3674 H3666 0.950 . S
C3674 C3672 1.391 . S
C3674 C3675 1.400 . S
C3675 C3674 1.400 . S
C3675 C3676 1.398 . S
C3675 C3681 1.491 . S
C3676 H3667 0.950 . S
C3676 C3675 1.398 . S
C3676 C3677 1.391 . S
C3677 H3665 0.950 . S
C3677 C3673 1.393 . S
C3677 C3676 1.391 . S
C3678 H3668 0.950 . S
C3678 C3679 1.386 . S
C3678 C3680 1.391 . S
C3679 C3678 1.386 . S
C3679 C3683 1.393 . S
C3680 H3669 0.950 . S
C3680 C3678 1.391 . S
C3680 C3681 1.400 . S
C3681 C3675 1.491 . S
C3681 C3680 1.400 . S
C3681 C3682 1.398 . S
C3682 H3670 0.950 . S
C3682 C3681 1.398 . S
C3682 C3683 1.391 . S
C3683 H3671 0.950 . S
C3683 C3679 1.393 . S
C3683 C3682 1.391 . S
H3684 C3692 0.950 . S
H3685 C3697 0.950 . S
H3686 C3694 0.950 . S
H3687 C3696 0.950 . S
H3688 C3698 0.950 . S
H3689 C3700 0.950 . S
H3690 C3702 0.950 . S
H3691 C3703 0.950 . S
C3692 H3684 0.950 . S
C3692 C3693 1.386 . S
C3692 C3694 1.391 . S
C3693 C3692 1.386 . S
C3693 C3697 1.393 . S
C3694 H3686 0.950 . S
C3694 C3692 1.391 . S
C3694 C3695 1.400 . S
C3695 C3694 1.400 . S
C3695 C3696 1.398 . S
C3695 C3701 1.491 . S
C3696 H3687 0.950 . S
C3696 C3695 1.398 . S
C3696 C3697 1.391 . S
C3697 H3685 0.950 . S
C3697 C3693 1.393 . S
C3697 C3696 1.391 . S
C3698 H3688 0.950 . S
C3698 C3699 1.386 . S
C3698 C3700 1.391 . S
C3699 C3698 1.386 . S
C3699 C3703 1.393 . S
C3700 H3689 0.950 . S
C3700 C3698 1.391 . S
C3700 C3701 1.400 . S
C3701 C3695 1.491 . S
C3701 C3700 1.400 . S
C3701 C3702 1.398 . S
C3702 H3690 0.950 . S
C3702 C3701 1.398 . S
C3702 C3703 1.391 . S
C3703 H3691 0.950 . S
C3703 C3699 1.393 . S
C3703 C3702 1.391 . S
C1799 C1299 1.497 . S
C1793 C21 1.556 . S
C1819 C1310 1.390 . S
C1813 C42 1.519 . S
C1833 C82 1.533 . S
C1839 C1334 1.421 . S
C1859 C1355 1.390 . S
C1853 C135 1.539 . S
C1873 C175 1.498 . S
C1879 C1362 1.419 . S
C1893 C221 1.546 . S
C1899 C1292 1.437 . S
C1913 C255 1.543 . S
C1919 C1318 1.426 . S
C1939 C1341 1.499 . S
C1933 C301 1.591 . S
C1959 C1373 1.427 . S
C1953 C15 1.540 . S
C1973 C55 1.510 . S
C1979 C1394 1.412 . S
C1993 C101 1.555 . S
C1999 C1418 1.446 . S
C2019 C1436 1.455 . S
C2013 C141 1.547 . S
C2033 C162 1.491 . S
C2039 C1465 1.406 . S
C2059 C1486 1.419 . S
C2053 C215 1.551 . S
C2073 C261 1.570 . S
C2079 C1502 1.419 . S
C2099 C1523 1.444 . S
C2093 C282 1.561 . S
C2113 C2 1.525 . S
C2119 C1444 1.427 . S
C2133 C181 1.480 . S
C2139 C1478 1.421 . S
C2159 C1509 1.501 . S
C2153 C202 1.554 . S
C2173 C242 1.556 . S
C2179 C1530 1.467 . S
C2199 C1457 1.441 . S
C2193 C295 1.539 . S
C2219 C1402 1.442 . S
C2213 C95 1.563 . S
C2233 C122 1.540 . S
C2239 C1425 1.452 . S
C2259 C1381 1.378 . S
C2253 C61 1.528 . S
C2279 C1549 1.453 . S
C2273 C341 1.541 . S
C2293 C362 1.519 . S
C2299 C1565 1.393 . S
C2313 C402 1.541 . S
C2319 C1583 1.474 . S
C2339 C1604 1.445 . S
C2333 C455 1.553 . S
C2353 C495 1.500 . S
C2359 C1612 1.398 . S
C2373 C541 1.550 . S
C2379 C1541 1.486 . S
C2393 C575 1.532 . S
C2399 C1572 1.450 . S
C2413 C621 1.587 . S
C2419 C1591 1.464 . S
C2439 C1467 1.468 . S
C2433 C335 1.544 . S
C2453 C375 1.508 . S
C2459 C1625 1.403 . S
C2479 C1499 1.493 . S
C2473 C421 1.559 . S
C2493 C461 1.555 . S
C2499 C1654 1.449 . S
C2513 C482 1.490 . S
C2519 C1376 1.400 . S
C2539 C1670 1.457 . S
C2533 C535 1.567 . S
C2553 C581 1.555 . S
C2559 C1415 1.429 . S
C2579 C1698 1.475 . S
C2573 C602 1.554 . S
C2593 C322 1.534 . S
C2599 C1646 1.458 . S
C2619 C1677 1.410 . S
C2613 C501 1.473 . S
C2633 C522 1.548 . S
C2639 C1423 1.456 . S
C2659 C1691 1.438 . S
C2653 C562 1.555 . S
C2673 C615 1.535 . S
C2679 C1383 1.439 . S
C2693 C415 1.559 . S
C2699 C1633 1.444 . S
C2713 C442 1.561 . S
C2719 C1507 1.421 . S
C2733 C381 1.534 . S
C2739 C1460 1.383 . S
C2753 C661 1.546 . S
C2759 C1586 1.449 . S
C2779 C1607 1.400 . S
C2773 C682 1.519 . S
C2793 C722 1.535 . S
C2799 C1551 1.477 . S
C2813 C775 1.542 . S
C2819 C1562 1.437 . S
C2833 C815 1.501 . S
C2839 C1570 1.397 . S
C2853 C861 1.546 . S
C2859 C1593 1.490 . S
C2879 C1614 1.428 . S
C2873 C895 1.530 . S
C2893 C941 1.595 . S
C2899 C1544 1.483 . S
C2919 C1709 1.434 . S
C2913 C655 1.541 . S
C2933 C695 1.500 . S
C2939 C1488 1.395 . S
C2959 C1730 1.479 . S
C2953 C741 1.547 . S
C2973 C781 1.556 . S
C2979 C1520 1.432 . S
C2993 C802 1.506 . S
C2999 C1754 1.397 . S
C3013 C855 1.561 . S
C3019 C1397 1.450 . S
C3039 C1775 1.446 . S
C3033 C901 1.558 . S
C3053 C922 1.561 . S
C3059 C1439 1.440 . S
C3079 C1528 1.435 . S
C3073 C642 1.533 . S
C3099 C1404 1.436 . S
C3093 C821 1.486 . S
C3113 C842 1.538 . S
C3119 C1782 1.474 . S
C3133 C882 1.550 . S
C3139 C1446 1.474 . S
C3159 C1761 1.455 . S
C3153 C935 1.541 . S
C3179 C1481 1.435 . S
C3173 C735 1.560 . S
C3199 C1738 1.422 . S
C3193 C762 1.549 . S
C3219 C1717 1.416 . S
C3213 C701 1.530 . S
C3233 C981 1.559 . S
C3239 C1331 1.492 . S
C3253 C1002 1.509 . S
C3259 C1352 1.411 . S
C3279 C1297 1.461 . S
C3273 C1042 1.543 . S
C3299 C1313 1.403 . S
C3293 C1095 1.550 . S
C3319 C1320 1.405 . S
C3313 C1135 1.492 . S
C3339 C1339 1.455 . S
C3333 C1181 1.540 . S
C3359 C1360 1.420 . S
C3353 C1215 1.541 . S
C3373 C1261 1.586 . S
C3379 C1289 1.479 . S
C3393 C975 1.546 . S
C3399 C1751 1.459 . S
C3419 C1667 1.411 . S
C3413 C1015 1.508 . S
C3439 C1772 1.472 . S
C3433 C1061 1.548 . S
C3459 C1696 1.444 . S
C3453 C1101 1.556 . S
C3473 C1122 1.507 . S
C3479 C1712 1.410 . S
C3499 C1628 1.423 . S
C3493 C1175 1.552 . S
C3519 C1733 1.417 . S
C3513 C1221 1.566 . S
C3533 C1242 1.550 . S
C3539 C1656 1.477 . S
C3559 C1688 1.456 . S
C3553 C962 1.531 . S
C3579 C1635 1.428 . S
C3573 C1141 1.477 . S
C3599 C1740 1.473 . S
C3593 C1162 1.540 . S
C3613 C1202 1.568 . S
C3619 C1649 1.451 . S
C3633 C1255 1.536 . S
C3639 C1719 1.456 . S
C3653 C1055 1.560 . S
C3659 C1675 1.431 . S
C3673 C1082 1.560 . S
C3679 C1780 1.425 . S
C3699 C1759 1.394 . S
C3693 C1021 1.529 . S
