# Generated by pormake.
# Topology ptr, (4,4)-cn, num edge types: 1
# Building blocks:
#     Node 0, Type 0, BuildingBlock: QUQFOY_clean_sbu_3, # of connection points: 4
#     Node 1, Type 0, BuildingBlock: QUQFOY_clean_sbu_3, # of connection points: 4
#     Node 2, Type 0, BuildingBlock: QUQFOY_clean_sbu_3, # of connection points: 4
#     Node 3, Type 0, BuildingBlock: QUQFOY_clean_sbu_3, # of connection points: 4
#     Node 4, Type 0, BuildingBlock: QUQFOY_clean_sbu_3, # of connection points: 4
#     Node 5, Type 0, BuildingBlock: QUQFOY_clean_sbu_3, # of connection points: 4
#     Node 6, Type 0, BuildingBlock: QUQFOY_clean_sbu_3, # of connection points: 4
#     Node 7, Type 0, BuildingBlock: QUQFOY_clean_sbu_3, # of connection points: 4
#     Node 8, Type 0, BuildingBlock: QUQFOY_clean_sbu_3, # of connection points: 4
#     Node 9, Type 0, BuildingBlock: QUQFOY_clean_sbu_3, # of connection points: 4
#     Node 10, Type 0, BuildingBlock: QUQFOY_clean_sbu_3, # of connection points: 4
#     Node 11, Type 0, BuildingBlock: QUQFOY_clean_sbu_3, # of connection points: 4
#     Node 12, Type 0, BuildingBlock: QUQFOY_clean_sbu_3, # of connection points: 4
#     Node 13, Type 0, BuildingBlock: QUQFOY_clean_sbu_3, # of connection points: 4
#     Node 14, Type 0, BuildingBlock: QUQFOY_clean_sbu_3, # of connection points: 4
#     Node 15, Type 0, BuildingBlock: QUQFOY_clean_sbu_3, # of connection points: 4
#     Node 16, Type 0, BuildingBlock: QUQFOY_clean_sbu_3, # of connection points: 4
#     Node 17, Type 0, BuildingBlock: QUQFOY_clean_sbu_3, # of connection points: 4
#     Node 18, Type 1, BuildingBlock: NAWXER_clean_linker_0, # of connection points: 4
#     Node 19, Type 1, BuildingBlock: NAWXER_clean_linker_0, # of connection points: 4
#     Node 20, Type 1, BuildingBlock: NAWXER_clean_linker_0, # of connection points: 4
#     Node 21, Type 1, BuildingBlock: NAWXER_clean_linker_0, # of connection points: 4
#     Node 22, Type 1, BuildingBlock: NAWXER_clean_linker_0, # of connection points: 4
#     Node 23, Type 1, BuildingBlock: NAWXER_clean_linker_0, # of connection points: 4
#     Node 24, Type 1, BuildingBlock: NAWXER_clean_linker_0, # of connection points: 4
#     Node 25, Type 1, BuildingBlock: NAWXER_clean_linker_0, # of connection points: 4
#     Node 26, Type 1, BuildingBlock: NAWXER_clean_linker_0, # of connection points: 4
#     Node 27, Type 1, BuildingBlock: NAWXER_clean_linker_0, # of connection points: 4
#     Node 28, Type 1, BuildingBlock: NAWXER_clean_linker_0, # of connection points: 4
#     Node 29, Type 1, BuildingBlock: NAWXER_clean_linker_0, # of connection points: 4
#     Node 30, Type 1, BuildingBlock: NAWXER_clean_linker_0, # of connection points: 4
#     Node 31, Type 1, BuildingBlock: NAWXER_clean_linker_0, # of connection points: 4
#     Node 32, Type 1, BuildingBlock: NAWXER_clean_linker_0, # of connection points: 4
#     Node 33, Type 1, BuildingBlock: NAWXER_clean_linker_0, # of connection points: 4
#     Node 34, Type 1, BuildingBlock: NAWXER_clean_linker_0, # of connection points: 4
#     Node 35, Type 1, BuildingBlock: NAWXER_clean_linker_0, # of connection points: 4
#     Edge 36, Type (0, 1), BuildingBlock: UVAHIK_clean_linker_0, # of connection points: 2
#     Edge 37, Type (0, 1), BuildingBlock: UVAHIK_clean_linker_0, # of connection points: 2
#     Edge 38, Type (0, 1), BuildingBlock: UVAHIK_clean_linker_0, # of connection points: 2
#     Edge 39, Type (0, 1), BuildingBlock: UVAHIK_clean_linker_0, # of connection points: 2
#     Edge 40, Type (0, 1), BuildingBlock: UVAHIK_clean_linker_0, # of connection points: 2
#     Edge 41, Type (0, 1), BuildingBlock: UVAHIK_clean_linker_0, # of connection points: 2
#     Edge 42, Type (0, 1), BuildingBlock: UVAHIK_clean_linker_0, # of connection points: 2
#     Edge 43, Type (0, 1), BuildingBlock: UVAHIK_clean_linker_0, # of connection points: 2
#     Edge 44, Type (0, 1), BuildingBlock: UVAHIK_clean_linker_0, # of connection points: 2
#     Edge 45, Type (0, 1), BuildingBlock: UVAHIK_clean_linker_0, # of connection points: 2
#     Edge 46, Type (0, 1), BuildingBlock: UVAHIK_clean_linker_0, # of connection points: 2
#     Edge 47, Type (0, 1), BuildingBlock: UVAHIK_clean_linker_0, # of connection points: 2
#     Edge 48, Type (0, 1), BuildingBlock: UVAHIK_clean_linker_0, # of connection points: 2
#     Edge 49, Type (0, 1), BuildingBlock: UVAHIK_clean_linker_0, # of connection points: 2
#     Edge 50, Type (0, 1), BuildingBlock: UVAHIK_clean_linker_0, # of connection points: 2
#     Edge 51, Type (0, 1), BuildingBlock: UVAHIK_clean_linker_0, # of connection points: 2
#     Edge 52, Type (0, 1), BuildingBlock: UVAHIK_clean_linker_0, # of connection points: 2
#     Edge 53, Type (0, 1), BuildingBlock: UVAHIK_clean_linker_0, # of connection points: 2
#     Edge 54, Type (0, 1), BuildingBlock: UVAHIK_clean_linker_0, # of connection points: 2
#     Edge 55, Type (0, 1), BuildingBlock: UVAHIK_clean_linker_0, # of connection points: 2
#     Edge 56, Type (0, 1), BuildingBlock: UVAHIK_clean_linker_0, # of connection points: 2
#     Edge 57, Type (0, 1), BuildingBlock: UVAHIK_clean_linker_0, # of connection points: 2
#     Edge 58, Type (0, 1), BuildingBlock: UVAHIK_clean_linker_0, # of connection points: 2
#     Edge 59, Type (0, 1), BuildingBlock: UVAHIK_clean_linker_0, # of connection points: 2
#     Edge 60, Type (0, 1), BuildingBlock: UVAHIK_clean_linker_0, # of connection points: 2
#     Edge 61, Type (0, 1), BuildingBlock: UVAHIK_clean_linker_0, # of connection points: 2
#     Edge 62, Type (0, 1), BuildingBlock: UVAHIK_clean_linker_0, # of connection points: 2
#     Edge 63, Type (0, 1), BuildingBlock: UVAHIK_clean_linker_0, # of connection points: 2
#     Edge 64, Type (0, 1), BuildingBlock: UVAHIK_clean_linker_0, # of connection points: 2
#     Edge 65, Type (0, 1), BuildingBlock: UVAHIK_clean_linker_0, # of connection points: 2
#     Edge 66, Type (0, 1), BuildingBlock: UVAHIK_clean_linker_0, # of connection points: 2
#     Edge 67, Type (0, 1), BuildingBlock: UVAHIK_clean_linker_0, # of connection points: 2
#     Edge 68, Type (0, 1), BuildingBlock: UVAHIK_clean_linker_0, # of connection points: 2
#     Edge 69, Type (0, 1), BuildingBlock: UVAHIK_clean_linker_0, # of connection points: 2
#     Edge 70, Type (0, 1), BuildingBlock: UVAHIK_clean_linker_0, # of connection points: 2
#     Edge 71, Type (0, 1), BuildingBlock: UVAHIK_clean_linker_0, # of connection points: 2
#     Edge 72, Type (0, 1), BuildingBlock: UVAHIK_clean_linker_0, # of connection points: 2
#     Edge 73, Type (0, 1), BuildingBlock: UVAHIK_clean_linker_0, # of connection points: 2
#     Edge 74, Type (0, 1), BuildingBlock: UVAHIK_clean_linker_0, # of connection points: 2
#     Edge 75, Type (0, 1), BuildingBlock: UVAHIK_clean_linker_0, # of connection points: 2
#     Edge 76, Type (0, 1), BuildingBlock: UVAHIK_clean_linker_0, # of connection points: 2
#     Edge 77, Type (0, 1), BuildingBlock: UVAHIK_clean_linker_0, # of connection points: 2
#     Edge 78, Type (0, 1), BuildingBlock: UVAHIK_clean_linker_0, # of connection points: 2
#     Edge 79, Type (0, 1), BuildingBlock: UVAHIK_clean_linker_0, # of connection points: 2
#     Edge 80, Type (0, 1), BuildingBlock: UVAHIK_clean_linker_0, # of connection points: 2
#     Edge 81, Type (0, 1), BuildingBlock: UVAHIK_clean_linker_0, # of connection points: 2
#     Edge 82, Type (0, 1), BuildingBlock: UVAHIK_clean_linker_0, # of connection points: 2
#     Edge 83, Type (0, 1), BuildingBlock: UVAHIK_clean_linker_0, # of connection points: 2
#     Edge 84, Type (0, 1), BuildingBlock: UVAHIK_clean_linker_0, # of connection points: 2
#     Edge 85, Type (0, 1), BuildingBlock: UVAHIK_clean_linker_0, # of connection points: 2
#     Edge 86, Type (0, 1), BuildingBlock: UVAHIK_clean_linker_0, # of connection points: 2
#     Edge 87, Type (0, 1), BuildingBlock: UVAHIK_clean_linker_0, # of connection points: 2
#     Edge 88, Type (0, 1), BuildingBlock: UVAHIK_clean_linker_0, # of connection points: 2
#     Edge 89, Type (0, 1), BuildingBlock: UVAHIK_clean_linker_0, # of connection points: 2
#     Edge 90, Type (0, 1), BuildingBlock: UVAHIK_clean_linker_0, # of connection points: 2
#     Edge 91, Type (0, 1), BuildingBlock: UVAHIK_clean_linker_0, # of connection points: 2
#     Edge 92, Type (0, 1), BuildingBlock: UVAHIK_clean_linker_0, # of connection points: 2
#     Edge 93, Type (0, 1), BuildingBlock: UVAHIK_clean_linker_0, # of connection points: 2
#     Edge 94, Type (0, 1), BuildingBlock: UVAHIK_clean_linker_0, # of connection points: 2
#     Edge 95, Type (0, 1), BuildingBlock: UVAHIK_clean_linker_0, # of connection points: 2
#     Edge 96, Type (0, 1), BuildingBlock: UVAHIK_clean_linker_0, # of connection points: 2
#     Edge 97, Type (0, 1), BuildingBlock: UVAHIK_clean_linker_0, # of connection points: 2
#     Edge 98, Type (0, 1), BuildingBlock: UVAHIK_clean_linker_0, # of connection points: 2
#     Edge 99, Type (0, 1), BuildingBlock: UVAHIK_clean_linker_0, # of connection points: 2
#     Edge 100, Type (0, 1), BuildingBlock: UVAHIK_clean_linker_0, # of connection points: 2
#     Edge 101, Type (0, 1), BuildingBlock: UVAHIK_clean_linker_0, # of connection points: 2
#     Edge 102, Type (0, 1), BuildingBlock: UVAHIK_clean_linker_0, # of connection points: 2
#     Edge 103, Type (0, 1), BuildingBlock: UVAHIK_clean_linker_0, # of connection points: 2
#     Edge 104, Type (0, 1), BuildingBlock: UVAHIK_clean_linker_0, # of connection points: 2
#     Edge 105, Type (0, 1), BuildingBlock: UVAHIK_clean_linker_0, # of connection points: 2
#     Edge 106, Type (0, 1), BuildingBlock: UVAHIK_clean_linker_0, # of connection points: 2
#     Edge 107, Type (0, 1), BuildingBlock: UVAHIK_clean_linker_0, # of connection points: 2
# Relax obj value: 0.029
# Max RMSD: 0.134
# Mean RMSD: 0.051
data_MOF--net-ptr--node1-QUQFOY_clean_sbu_3--node2-NAWXER_clean_linker_0--edge1-UVAHIK_clean_linker_0
_symmetry_space_group_name_H-M    P1
_symmetry_Int_Tables_number       1
_symmetry_cell_setting            triclinic
loop_
_symmetry_equiv_pos_as_xyz
'x, y, z'
_cell_length_a     109.51639
_cell_length_b     110.0712
_cell_length_c     81.095224
_cell_angle_alpha  90.316246
_cell_angle_beta   89.551988
_cell_angle_gamma 120.64242
loop_
_atom_site_label
_atom_site_type_symbol
_atom_site_fract_x
_atom_site_fract_y
_atom_site_fract_z
_atom_type_partial_charge
C0 C 0.9684 0.31292 -0.00223 0.0
O1 O 0.96094 0.31738 0.00456 0.0
Cd2 Cd 0.97151 0.34146 0.01326 0.0
O3 O 0.98189 0.32053 -0.00233 0.0
Cd4 Cd 0.00073 0.3431 0.00993 0.0
C5 C -0.00637 0.35925 0.97991 0.0
O6 O 0.9891 0.34702 0.03371 0.0
O7 O 0.00795 0.36524 0.02395 0.0
O8 O 0.00795 0.32989 0.02657 0.0
C9 C -0.00156 0.36003 0.03507 0.0
O10 O 0.98246 0.35544 0.98851 0.0
C11 C 0.02069 0.33571 0.02154 0.0
O12 O 0.00275 0.35595 0.98425 0.0
O13 O 0.02439 0.345 0.0103 0.0
C14 C 0.63989 0.67984 0.0184 0.0
O15 O 0.62691 0.67438 0.01462 0.0
Cd16 Cd 0.61355 0.65082 0.00407 0.0
O17 O 0.64664 0.67354 0.01495 0.0
Cd18 Cd 0.64315 0.65237 -0.00028 0.0
C19 C 0.62286 0.6326 0.03128 0.0
O20 O 0.62541 0.64983 0.97976 0.0
O21 O 0.62824 0.6319 0.98233 0.0
O22 O 0.66366 0.66791 0.98312 0.0
C23 C 0.62233 0.63762 0.97488 0.0
O24 O 0.61387 0.63566 0.02583 0.0
C25 C 0.67076 0.66203 0.98628 0.0
O26 O 0.63499 0.63755 0.02444 0.0
O27 O 0.66508 0.65152 -0.00398 0.0
C28 C 0.30888 0.96434 0.01356 0.0
O29 O 0.31259 0.95642 0.00645 0.0
Cd30 Cd 0.33621 0.96672 -0.00459 0.0
O31 O 0.31687 0.97769 0.01302 0.0
Cd32 Cd 0.33887 -0.00388 -0.0002 0.0
C33 C 0.3564 0.98868 0.02755 0.0
O34 O 0.33982 0.98384 0.97487 0.0
O35 O 0.35919 0.0027 0.98211 0.0
O36 O 0.32332 0.00388 0.98983 0.0
C37 C 0.35265 0.99297 0.97158 0.0
O38 O 0.35221 0.97757 0.01886 0.0
C39 C 0.33144 0.01688 0.99298 0.0
O40 O 0.35265 -0.00242 0.02401 0.0
O41 O 0.34325 0.02045 -0.00025 0.0
C42 C 0.95913 0.64727 -0.00119 0.0
O43 O 0.95293 0.63501 0.0051 0.0
Cd44 Cd 0.96565 0.62495 0.01744 0.0
O45 O 0.97257 0.65511 -0.00047 0.0
Cd46 Cd -0.00661 0.65496 0.01076 0.0
C47 C 0.9877 0.62891 0.98446 0.0
O48 O 0.983 0.64141 0.03612 0.0
O49 O 0.00293 0.64385 0.02794 0.0
O50 O 0.0006 0.67831 0.02114 0.0
C51 C -0.00679 0.63935 0.03879 0.0
O52 O 0.97768 0.62109 0.99439 0.0
C53 C 0.01332 0.68419 0.01599 0.0
O54 O -0.00513 0.64228 0.98645 0.0
O55 O 0.01683 0.67652 0.00785 0.0
C56 C 0.31808 0.35445 0.02068 0.0
O57 O 0.32387 0.3674 0.0168 0.0
Cd58 Cd 0.34555 0.3798 0.00155 0.0
O59 O 0.32346 0.34713 0.01589 0.0
Cd60 Cd 0.34368 0.3499 -0.00109 0.0
C61 C 0.36672 0.37301 0.0267 0.0
O62 O 0.34294 0.36545 0.97812 0.0
O63 O 0.36128 0.36305 0.97739 0.0
O64 O 0.32672 0.32675 0.98792 0.0
C65 C 0.35433 0.36809 0.97089 0.0
O66 O 0.3634 0.38164 0.02081 0.0
C67 C 0.33485 0.32172 0.98895 0.0
O68 O 0.36074 0.36031 0.02154 0.0
O69 O 0.34707 0.32972 0.99505 0.0
C70 C 0.67955 0.02632 -0.00439 0.0
O71 O 0.67435 0.03356 0.00108 0.0
Cd72 Cd 0.65144 0.02345 0.01389 0.0
O73 O 0.67301 0.01299 -0.00224 0.0
Cd74 Cd 0.65111 0.99411 0.01151 0.0
C75 C 0.63146 -0.00085 0.9835 0.0
O76 O 0.64956 0.00756 0.03495 0.0
O77 O 0.63118 0.98708 0.03021 0.0
O78 O 0.66676 0.98691 0.02326 0.0
C79 C 0.63715 -0.00199 0.03923 0.0
O80 O 0.63523 0.01048 0.99158 0.0
C81 C 0.659 0.97385 0.02008 0.0
O82 O 0.63604 0.99097 0.98739 0.0
O83 O 0.64755 0.97008 0.01233 0.0
C84 C 0.62842 0.64909 0.32693 0.0
O85 O 0.62087 0.65439 0.33085 0.0
Cd86 Cd 0.63084 0.67759 0.34229 0.0
O87 O 0.64162 0.65553 0.33031 0.0
Cd88 Cd 0.6595 0.67699 0.34554 0.0
C89 C 0.65859 0.69727 0.31504 0.0
O90 O 0.64346 0.67769 0.36622 0.0
O91 O 0.66448 0.69603 0.36506 0.0
O92 O 0.66557 0.66088 0.35849 0.0
C93 C 0.65246 0.68961 0.37214 0.0
O94 O 0.64638 0.69379 0.32081 0.0
C95 C 0.6789 0.66869 0.35676 0.0
O96 O 0.66581 0.69234 0.32129 0.0
O97 O 0.68334 0.68043 0.34951 0.0
C98 C 0.30658 0.01026 0.35915 0.0
O99 O 0.29341 0.00451 0.35621 0.0
Cd100 Cd 0.2795 0.98155 0.34432 0.0
O101 O 0.31345 0.00423 0.35494 0.0
Cd102 Cd 0.3088 0.98259 0.33953 0.0
C103 C 0.28714 0.96142 0.36996 0.0
O104 O 0.292 0.98247 0.31961 0.0
O105 O 0.29435 0.96419 0.3194 0.0
O106 O 0.33171 -0.0023 0.3261 0.0
C107 C 0.28898 0.97085 0.31293 0.0
O108 O 0.2782 0.96466 0.36484 0.0
C109 C 0.33616 0.98915 0.32772 0.0
O110 O 0.29942 0.96686 0.3634 0.0
O111 O 0.32804 0.97769 0.33526 0.0
C112 C 0.98026 0.3004 0.34943 0.0
O113 O 0.98411 0.29161 0.34577 0.0
Cd114 Cd 0.00681 0.29862 0.3339 0.0
O115 O 0.98805 0.31342 0.34582 0.0
Cd116 Cd 0.01045 0.3292 0.33083 0.0
C117 C 0.02911 0.32501 0.36087 0.0
O118 O 0.00816 0.31201 0.31014 0.0
O119 O 0.02818 0.33165 0.31041 0.0
O120 O -0.00286 0.33888 0.31847 0.0
C121 C 0.02026 0.31978 0.30363 0.0
O122 O 0.02424 0.31259 0.35515 0.0
C123 C 0.00649 0.35172 0.3209 0.0
O124 O 0.02547 0.33329 0.35469 0.0
O125 O 0.01774 0.35415 0.3282 0.0
C126 C 0.62737 0.97111 0.32891 0.0
O127 O 0.62115 0.95835 0.33366 0.0
Cd128 Cd 0.63318 0.94773 0.34594 0.0
O129 O 0.64054 0.97944 0.3317 0.0
Cd130 Cd 0.66025 0.97914 0.34649 0.0
C131 C 0.66007 0.95708 0.31725 0.0
O132 O 0.64607 0.96283 0.3684 0.0
O133 O 0.66765 0.96744 0.36638 0.0
O134 O 0.66628 0.00195 0.3583 0.0
C135 C 0.65592 0.96128 0.37412 0.0
O136 O 0.64859 0.94758 0.32395 0.0
C137 C 0.6794 0.00802 0.35474 0.0
O138 O 0.66639 0.96972 0.32262 0.0
O139 O 0.68359 0.0007 0.34706 0.0
C140 C 0.98218 0.68251 0.35614 0.0
O141 O 0.98702 0.69521 0.35174 0.0
Cd142 Cd 0.0103 0.70921 0.34029 0.0
O143 O 0.98929 0.67646 0.35345 0.0
Cd144 Cd 0.01167 0.68166 0.33966 0.0
C145 C 0.03016 0.7047 0.36978 0.0
O146 O 0.01213 0.6966 0.31709 0.0
O147 O 0.03172 0.69707 0.32191 0.0
O148 O -0.00215 0.65868 0.32667 0.0
C149 C 0.02476 0.7006 0.31269 0.0
O150 O 0.02674 0.71283 0.36268 0.0
C151 C 0.00642 0.65449 0.32991 0.0
O152 O 0.02553 0.69219 0.36451 0.0
O153 O 0.01742 0.66287 0.33808 0.0
C154 C 0.34509 0.36216 0.32446 0.0
O155 O 0.33893 0.36909 0.32733 0.0
Cd156 Cd 0.31605 0.35939 0.34 0.0
O157 O 0.33942 0.34932 0.32903 0.0
Cd158 Cd 0.31775 0.33147 0.34424 0.0
C159 C 0.29633 0.33112 0.31399 0.0
O160 O 0.31612 0.3473 0.36428 0.0
O161 O 0.298 0.32616 0.36294 0.0
O162 O 0.33203 0.32547 0.36128 0.0
C163 C 0.30412 0.33811 0.37002 0.0
O164 O 0.29954 0.34324 0.31952 0.0
C165 C 0.32587 0.31252 0.35734 0.0
O166 O 0.3018 0.32436 0.3202 0.0
O167 O 0.316 0.30825 0.34676 0.0
C168 C 0.30025 0.98848 0.65558 0.0
O169 O 0.29336 0.99477 0.65786 0.0
Cd170 Cd 0.30334 0.0179 0.66951 0.0
O171 O 0.31313 0.99419 0.66018 0.0
Cd172 Cd 0.33111 0.01611 0.67457 0.0
C173 C 0.33166 0.0366 0.64316 0.0
O174 O 0.31501 0.0179 0.69437 0.0
O175 O 0.33628 0.03581 0.69302 0.0
O176 O 0.33797 0.00126 0.68943 0.0
C177 C 0.32421 0.02987 0.69999 0.0
O178 O 0.31958 0.03394 0.64852 0.0
C179 C 0.3512 0.00908 0.68676 0.0
O180 O 0.33809 0.03099 0.64985 0.0
O181 O 0.35509 0.02007 0.67814 0.0
C182 C 0.96989 0.33451 0.69124 0.0
O183 O 0.95669 0.32581 0.68967 0.0
Cd184 Cd 0.94658 0.30518 0.67242 0.0
O185 O 0.97901 0.33238 0.68403 0.0
Cd186 Cd 0.97865 0.31362 0.66656 0.0
C187 C 0.95866 0.28656 0.69302 0.0
O188 O 0.96048 0.3117 0.64776 0.0
O189 O 0.96669 0.29614 0.64446 0.0
O190 O -0.00046 0.33145 0.65175 0.0
C191 C 0.95959 0.30154 0.63937 0.0
O192 O 0.94802 0.28703 0.68767 0.0
C193 C 0.00715 0.32603 0.65446 0.0
O194 O 0.97125 0.29577 0.68864 0.0
O195 O 0.00166 0.31495 0.66326 0.0
C196 C 0.65721 0.63496 0.69226 0.0
O197 O 0.6645 0.62921 0.6891 0.0
Cd198 Cd 0.68574 0.64009 0.67245 0.0
O199 O 0.66095 0.64713 0.68659 0.0
Cd200 Cd 0.67993 0.66557 0.66944 0.0
C201 C 0.70606 0.67014 0.69515 0.0
O202 O 0.68122 0.65003 0.64887 0.0
O203 O 0.69797 0.67188 0.648 0.0
O204 O 0.66231 0.66901 0.6558 0.0
C205 C 0.69215 0.65966 0.6416 0.0
O206 O 0.70441 0.65874 0.68899 0.0
C207 C 0.66801 0.68204 0.65919 0.0
O208 O 0.69774 0.67462 0.69147 0.0
O209 O 0.67928 0.6875 0.66773 0.0
C210 C 0.2903 0.30754 0.65876 0.0
O211 O 0.28333 0.29455 0.66261 0.0
Cd212 Cd 0.29354 0.28254 0.67597 0.0
O213 O 0.30336 0.31514 0.66257 0.0
Cd214 Cd 0.32184 0.31287 0.67748 0.0
C215 C 0.3209 0.2902 0.64859 0.0
O216 O 0.30643 0.29676 0.69905 0.0
O217 O 0.32762 0.30017 0.69766 0.0
O218 O 0.3284 0.33582 0.6891 0.0
C219 C 0.31575 0.29452 0.70507 0.0
O220 O 0.30906 0.28131 0.65514 0.0
C221 C 0.34166 0.34126 0.68688 0.0
O222 O 0.3278 0.30291 0.65373 0.0
O223 O 0.34576 0.33357 0.67994 0.0
C224 C 0.65888 0.0241 0.68783 0.0
O225 O 0.66636 0.03704 0.68386 0.0
Cd226 Cd 0.68687 0.04668 0.66628 0.0
O227 O 0.66207 0.01514 0.68252 0.0
Cd228 Cd 0.68068 0.01523 0.66485 0.0
C229 C 0.70738 0.03832 0.68964 0.0
O230 O 0.68026 0.03061 0.64366 0.0
O231 O 0.6971 0.02601 0.64145 0.0
O232 O 0.66245 0.99183 0.65539 0.0
C233 C 0.69055 0.03162 0.63531 0.0
O234 O 0.706 0.04797 0.68289 0.0
C235 C 0.67015 0.98633 0.65666 0.0
O236 O 0.69883 0.02535 0.68639 0.0
O237 O 0.68258 0.99415 0.6623 0.0
C238 C 0.00251 0.69166 0.65458 0.0
O239 O -0.00375 0.69858 0.6569 0.0
Cd240 Cd 0.97376 0.68982 0.67043 0.0
O241 O -0.00309 0.67895 0.65965 0.0
Cd242 Cd 0.97507 0.6613 0.67474 0.0
C243 C 0.95259 0.66118 0.64573 0.0
O244 O 0.97477 0.6781 0.69453 0.0
O245 O 0.95712 0.65671 0.69585 0.0
O246 O 0.99037 0.6542 0.68815 0.0
C247 C 0.96331 0.66916 0.70158 0.0
O248 O 0.95597 0.67334 0.65129 0.0
C249 C 0.98214 0.64102 0.68605 0.0
O250 O 0.9585 0.65462 0.65129 0.0
O251 O 0.97075 0.63724 0.6782 0.0
C252 C 0.19323 0.30701 0.13628 0.0
C253 C 0.19288 0.29961 0.12194 0.0
C254 C 0.1808 0.30315 0.14508 0.0
C255 C 0.1678 0.29171 0.13984 0.0
C256 C 0.17986 0.28808 0.11677 0.0
C257 C 0.1674 0.28424 0.1256 0.0
C258 C 0.1545 0.28831 0.14841 0.0
C259 C 0.18125 0.28021 0.18321 0.0
C260 C 0.18566 0.28934 0.19691 0.0
C261 C 0.17024 0.27877 0.17316 0.0
C262 C 0.16348 0.28647 0.17664 0.0
C263 C 0.17844 0.29652 0.20073 0.0
C264 C 0.16744 0.29504 0.19076 0.0
C265 C 0.15257 0.28611 0.1656 0.0
C266 C 0.09296 0.2758 0.17594 0.0
C267 C 0.09543 0.28284 0.19114 0.0
C268 C 0.10422 0.27631 0.16706 0.0
C269 C 0.11818 0.28422 0.17304 0.0
C270 C 0.10931 0.29034 0.19731 0.0
C271 C 0.12054 0.29102 0.18836 0.0
C272 C 0.13046 0.28542 0.16378 0.0
C273 C 0.11192 0.3047 0.13104 0.0
C274 C 0.10786 0.29867 0.11527 0.0
C275 C 0.11987 0.3012 0.14127 0.0
C276 C 0.12357 0.29126 0.13615 0.0
C277 C 0.11187 0.28902 0.10995 0.0
C278 C 0.11965 0.28535 0.1203 0.0
C279 C 0.13258 0.28799 0.14661 0.0
H280 H 0.20311 0.31588 0.14061 0.0
H281 H 0.1813 0.30932 0.15579 0.0
H282 H 0.17925 0.28232 0.10564 0.0
H283 H 0.15742 0.27552 0.12123 0.0
H284 H 0.1866 0.27452 0.17998 0.0
H285 H 0.16716 0.27184 0.16254 0.0
H286 H 0.1814 0.30341 0.21139 0.0
H287 H 0.16231 0.30098 0.19381 0.0
H288 H 0.08231 0.26982 0.17101 0.0
H289 H 0.10202 0.27058 0.15553 0.0
H290 H 0.11154 0.29599 0.20891 0.0
H291 H 0.13117 0.29713 0.19331 0.0
H292 H 0.10924 0.31239 0.13532 0.0
H293 H 0.12332 0.30646 0.15308 0.0
H294 H 0.10888 0.28422 0.09784 0.0
H295 H 0.12262 0.27788 0.11593 0.0
N296 N 0.14443 0.28911 0.13959 0.0
N297 N 0.14062 0.28473 0.17255 0.0
C298 C 0.68511 0.87986 0.12954 0.0
C299 C 0.6938 0.88661 0.11577 0.0
C300 C 0.68824 0.87186 0.14015 0.0
C301 C 0.70013 0.87047 0.13721 0.0
C302 C 0.70578 0.88533 0.11295 0.0
C303 C 0.70882 0.8772 0.12348 0.0
C304 C 0.7027 0.86095 0.14749 0.0
C305 C 0.71011 0.89719 0.18045 0.0
C306 C 0.70202 0.89322 0.19506 0.0
C307 C 0.71057 0.88698 0.17052 0.0
C308 C 0.70263 0.8726 0.17483 0.0
C309 C 0.69426 0.8789 0.19944 0.0
C310 C 0.69455 0.86872 0.18944 0.0
C311 C 0.70308 0.86148 0.1649 0.0
C312 C 0.70982 0.81164 0.18313 0.0
C313 C 0.69942 0.80599 0.19565 0.0
C314 C 0.71147 0.8229 0.17343 0.0
C315 C 0.70269 0.82861 0.17605 0.0
C316 C 0.6911 0.81216 0.19863 0.0
C317 C 0.69275 0.82335 0.18898 0.0
C318 C 0.70348 0.83996 0.16551 0.0
C319 C 0.68929 0.80234 0.13201 0.0
C320 C 0.69714 0.80498 0.11736 0.0
C321 C 0.69139 0.8135 0.14219 0.0
C322 C 0.70178 0.82747 0.13823 0.0
C323 C 0.7074 0.81891 0.11326 0.0
C324 C 0.70974 0.83005 0.12365 0.0
C325 C 0.70328 0.83953 0.14807 0.0
H326 H 0.67585 0.88072 0.13207 0.0
H327 H 0.68117 0.86648 0.15043 0.0
H328 H 0.71257 0.89029 0.10234 0.0
H329 H 0.71791 0.87608 0.12085 0.0
H330 H 0.71629 0.9082 0.17691 0.0
H331 H 0.71731 0.89037 0.15967 0.0
H332 H 0.68783 0.87555 0.21055 0.0
H333 H 0.68837 0.85774 0.19312 0.0
H334 H 0.71642 0.80714 0.18057 0.0
H335 H 0.71945 0.827 0.16376 0.0
H336 H 0.68323 0.80828 0.20841 0.0
H337 H 0.68596 0.82767 0.1914 0.0
H338 H 0.68109 0.79169 0.1352 0.0
H339 H 0.68455 0.8112 0.15285 0.0
H340 H 0.71348 0.82116 0.10193 0.0
H341 H 0.7176 0.84075 0.12015 0.0
N342 N 0.70298 0.85009 0.1398 0.0
N343 N 0.70338 0.85092 0.17314 0.0
C344 C 0.11045 0.80636 0.12008 0.0
C345 C 0.10256 0.80842 0.10799 0.0
C346 C 0.11853 0.81701 0.13142 0.0
C347 C 0.11885 0.82992 0.13093 0.0
C348 C 0.1027 0.82126 0.10767 0.0
C349 C 0.11091 0.83198 0.11895 0.0
C350 C 0.12866 0.84173 0.14167 0.0
C351 C 0.09566 0.81067 0.17806 0.0
C352 C 0.10118 0.80397 0.18768 0.0
C353 C 0.10465 0.82227 0.16818 0.0
C354 C 0.1193 0.82745 0.16795 0.0
C355 C 0.11583 0.80893 0.18679 0.0
C356 C 0.12479 0.82066 0.17723 0.0
C357 C 0.12917 0.84037 0.15886 0.0
C358 C 0.17687 0.89849 0.17936 0.0
C359 C 0.18322 0.8941 0.1911 0.0
C360 C 0.16581 0.88857 0.16947 0.0
C361 C 0.16104 0.87411 0.17102 0.0
C362 C 0.17801 0.87958 0.19301 0.0
C363 C 0.16705 0.86972 0.18311 0.0
C364 C 0.14982 0.86333 0.16028 0.0
C365 C 0.18636 0.88997 0.1264 0.0
C366 C 0.18324 0.89547 0.11257 0.0
C367 C 0.17546 0.88012 0.13646 0.0
C368 C 0.16126 0.87601 0.13328 0.0
C369 C 0.16909 0.89127 0.10917 0.0
C370 C 0.15818 0.88166 0.11951 0.0
C371 C 0.14954 0.86457 0.14293 0.0
H372 H 0.11047 0.79654 0.12068 0.0
H373 H 0.12491 0.81532 0.14021 0.0
H374 H 0.09682 0.82316 0.09838 0.0
H375 H 0.11121 0.84195 0.1182 0.0
H376 H 0.08449 0.80727 0.17854 0.0
H377 H 0.10026 0.82748 0.16116 0.0
H378 H 0.12045 0.80383 0.19358 0.0
H379 H 0.13608 0.82446 0.17708 0.0
H380 H 0.18063 0.9096 0.17761 0.0
H381 H 0.16111 0.8922 0.16051 0.0
H382 H 0.1824 0.8758 0.2022 0.0
H383 H 0.16345 0.85862 0.1847 0.0
H384 H 0.1972 0.89282 0.12898 0.0
H385 H 0.17816 0.87537 0.14637 0.0
H386 H 0.16648 0.8953 0.09843 0.0
H387 H 0.1473 0.87842 0.11657 0.0
N388 N 0.13884 0.85378 0.13436 0.0
N389 N 0.13968 0.8512 0.16749 0.0
C390 C 0.30531 0.11436 0.83541 0.0
C391 C 0.29518 0.10685 0.82314 0.0
C392 C 0.30362 0.12333 0.8462 0.0
C393 C 0.29165 0.12482 0.84513 0.0
C394 C 0.28313 0.10823 0.8222 0.0
C395 C 0.28144 0.11721 0.83302 0.0
C396 C 0.29051 0.13534 0.85542 0.0
C397 C 0.28908 0.10313 0.89079 0.0
C398 C 0.29989 0.10874 0.9027 0.0
C399 C 0.28666 0.11207 0.88093 0.0
C400 C 0.29516 0.1268 0.88263 0.0
C401 C 0.30817 0.12347 0.90455 0.0
C402 C 0.30582 0.13237 0.89463 0.0
C403 C 0.29279 0.13662 0.87264 0.0
C404 C 0.28771 0.18775 0.88996 0.0
C405 C 0.29892 0.19392 0.90135 0.0
C406 C 0.28516 0.17587 0.8808 0.0
C407 C 0.29397 0.17013 0.88261 0.0
C408 C 0.30727 0.18771 0.90363 0.0
C409 C 0.30484 0.17601 0.89435 0.0
C410 C 0.29203 0.15793 0.87269 0.0
C411 C 0.30154 0.1921 0.83599 0.0
C412 C 0.29048 0.18873 0.82485 0.0
C413 C 0.30124 0.1817 0.84604 0.0
C414 C 0.28977 0.16776 0.84533 0.0
C415 C 0.27908 0.17472 0.82404 0.0
C416 C 0.27877 0.16431 0.83414 0.0
C417 C 0.28968 0.15662 0.85549 0.0
H418 H 0.31467 0.11346 0.83653 0.0
H419 H 0.31188 0.1294 0.85509 0.0
H420 H 0.27524 0.10275 0.81274 0.0
H421 H 0.27225 0.11839 0.83179 0.0
H422 H 0.28255 0.09183 0.889 0.0
H423 H 0.27809 0.10747 0.87209 0.0
H424 H 0.31637 0.12817 0.91382 0.0
H425 H 0.31243 0.14369 0.89633 0.0
H426 H 0.28106 0.19224 0.88788 0.0
H427 H 0.27638 0.17127 0.87225 0.0
H428 H 0.31573 0.1919 0.91261 0.0
H429 H 0.31166 0.17167 0.8962 0.0
H430 H 0.31063 0.20271 0.83665 0.0
H431 H 0.31008 0.18451 0.85419 0.0
H432 H 0.27037 0.17181 0.81563 0.0
H433 H 0.26992 0.15358 0.83326 0.0
N434 N 0.28891 0.14533 0.84756 0.0
N435 N 0.29347 0.14787 0.8805 0.0
C436 C 0.8964 0.18165 0.88852 0.0
C437 C 0.89091 0.18844 0.89824 0.0
C438 C 0.88749 0.17046 0.87807 0.0
C439 C 0.87299 0.16593 0.87714 0.0
C440 C 0.87641 0.18393 0.89704 0.0
C441 C 0.86755 0.17274 0.88674 0.0
C442 C 0.86309 0.15369 0.86697 0.0
C443 C 0.89152 0.18742 0.83046 0.0
C444 C 0.8976 0.18311 0.81815 0.0
C445 C 0.8812 0.17752 0.84115 0.0
C446 C 0.87708 0.16317 0.84005 0.0
C447 C 0.89355 0.16881 0.81709 0.0
C448 C 0.88342 0.15895 0.82795 0.0
C449 C 0.86509 0.15226 0.85001 0.0
C450 C 0.80759 0.10639 0.82843 0.0
C451 C 0.8118 0.10062 0.81567 0.0
C452 C 0.81754 0.11588 0.83965 0.0
C453 C 0.83181 0.11941 0.83867 0.0
C454 C 0.82604 0.10415 0.81463 0.0
C455 C 0.83593 0.11342 0.82605 0.0
C456 C 0.8428 0.13049 0.84939 0.0
C457 C 0.81128 0.0974 0.88464 0.0
C458 C 0.80569 0.10253 0.89662 0.0
C459 C 0.82276 0.1068 0.87474 0.0
C460 C 0.82854 0.12146 0.87633 0.0
C461 C 0.8116 0.11716 0.89834 0.0
C462 C 0.82286 0.12651 0.88831 0.0
C463 C 0.84097 0.13181 0.86647 0.0
H464 H 0.90749 0.18476 0.88926 0.0
H465 H 0.89186 0.16518 0.87096 0.0
H466 H 0.87186 0.1891 0.90401 0.0
H467 H 0.85639 0.16943 0.88619 0.0
H468 H 0.89424 0.19835 0.83131 0.0
H469 H 0.87607 0.18106 0.84978 0.0
H470 H 0.89808 0.16522 0.80769 0.0
H471 H 0.8803 0.14793 0.82668 0.0
H472 H 0.79672 0.10403 0.82927 0.0
H473 H 0.81414 0.12081 0.84873 0.0
H474 H 0.82953 0.09986 0.80485 0.0
H475 H 0.8469 0.11613 0.82484 0.0
H476 H 0.80698 0.08615 0.88321 0.0
H477 H 0.82722 0.1026 0.86603 0.0
H478 H 0.8074 0.12138 0.90739 0.0
H479 H 0.82713 0.13774 0.88989 0.0
N480 N 0.85116 0.14342 0.87445 0.0
N481 N 0.85487 0.14069 0.84196 0.0
C482 C 0.80942 0.7145 0.89103 0.0
C483 C 0.80107 0.70194 0.89998 0.0
C484 C 0.82083 0.71622 0.88133 0.0
C485 C 0.82404 0.70541 0.88039 0.0
C486 C 0.80441 0.69121 0.89899 0.0
C487 C 0.81582 0.69298 0.88942 0.0
C488 C 0.8361 0.70688 0.87046 0.0
C489 C 0.80469 0.7045 0.83305 0.0
C490 C 0.81012 0.71527 0.82117 0.0
C491 C 0.81378 0.70333 0.84405 0.0
C492 C 0.82844 0.71316 0.84373 0.0
C493 C 0.82473 0.72525 0.82101 0.0
C494 C 0.83379 0.7242 0.8322 0.0
C495 C 0.83841 0.71092 0.85368 0.0
C496 C 0.87596 0.69068 0.83007 0.0
C497 C 0.88705 0.70224 0.82161 0.0
C498 C 0.86683 0.69253 0.84048 0.0
C499 C 0.86844 0.70592 0.84254 0.0
C500 C 0.88864 0.71568 0.82381 0.0
C501 C 0.87929 0.71746 0.83401 0.0
C502 C 0.85833 0.70761 0.85302 0.0
C503 C 0.88777 0.70285 0.88714 0.0
C504 C 0.8811 0.69131 0.89801 0.0
C505 C 0.87975 0.70693 0.87788 0.0
C506 C 0.86486 0.69939 0.87908 0.0
C507 C 0.86621 0.68393 0.89933 0.0
C508 C 0.85821 0.68792 0.88997 0.0
C509 C 0.85609 0.7037 0.8698 0.0
H510 H 0.80726 0.72305 0.89168 0.0
H511 H 0.82721 0.72602 0.87469 0.0
H512 H 0.79807 0.68129 0.90542 0.0
H513 H 0.8181 0.68448 0.88887 0.0
H514 H 0.79353 0.69648 0.83318 0.0
H515 H 0.80938 0.69432 0.85223 0.0
H516 H 0.82918 0.73363 0.81193 0.0
H517 H 0.84507 0.73179 0.83153 0.0
H518 H 0.87408 0.6801 0.82841 0.0
H519 H 0.85831 0.68343 0.8467 0.0
H520 H 0.89714 0.72488 0.81774 0.0
H521 H 0.88064 0.72787 0.83541 0.0
H522 H 0.89921 0.70874 0.88575 0.0
H523 H 0.88522 0.71611 0.87002 0.0
H524 H 0.86071 0.6752 0.90783 0.0
H525 H 0.84675 0.68203 0.89129 0.0
N526 N 0.84503 0.70345 0.8778 0.0
N527 N 0.84949 0.71117 0.84564 0.0
C528 C 0.76192 0.61771 0.45344 0.0
C529 C 0.76807 0.62842 0.44144 0.0
C530 C 0.77039 0.61436 0.46297 0.0
C531 C 0.78522 0.62186 0.46099 0.0
C532 C 0.78285 0.63543 0.43897 0.0
C533 C 0.7913 0.63219 0.44864 0.0
C534 C 0.79458 0.61914 0.47158 0.0
C535 C 0.77366 0.6349 0.50642 0.0
C536 C 0.76545 0.62548 0.51902 0.0
C537 C 0.78234 0.6321 0.49639 0.0
C538 C 0.78276 0.61967 0.49849 0.0
C539 C 0.76583 0.61299 0.52107 0.0
C540 C 0.77447 0.61016 0.51094 0.0
C541 C 0.79288 0.6173 0.48888 0.0
C542 C 0.84825 0.62641 0.51162 0.0
C543 C 0.84418 0.61566 0.5234 0.0
C544 C 0.83836 0.62609 0.5006 0.0
C545 C 0.8242 0.61492 0.50093 0.0
C546 C 0.82999 0.60445 0.52367 0.0
C547 C 0.82009 0.60414 0.5126 0.0
C548 C 0.81348 0.61518 0.49015 0.0
C549 C 0.84439 0.61107 0.45724 0.0
C550 C 0.85293 0.62368 0.44862 0.0
C551 C 0.83193 0.60875 0.46505 0.0
C552 C 0.8279 0.61897 0.46409 0.0
C553 C 0.84872 0.63371 0.4474 0.0
C554 C 0.83621 0.63131 0.45493 0.0
C555 C 0.81534 0.61732 0.47296 0.0
H556 H 0.75059 0.6121 0.45574 0.0
H557 H 0.76534 0.60601 0.47203 0.0
H558 H 0.78794 0.64346 0.42957 0.0
H559 H 0.80269 0.63801 0.44665 0.0
H560 H 0.77353 0.64456 0.50443 0.0
H561 H 0.78899 0.63985 0.48724 0.0
H562 H 0.75982 0.60563 0.53083 0.0
H563 H 0.77485 0.60063 0.51297 0.0
H564 H 0.85897 0.63539 0.51132 0.0
H565 H 0.8417 0.63483 0.49215 0.0
H566 H 0.82651 0.59596 0.53251 0.0
H567 H 0.80918 0.59552 0.51321 0.0
H568 H 0.84752 0.60322 0.45824 0.0
H569 H 0.82555 0.5991 0.47195 0.0
H570 H 0.85518 0.64346 0.4407 0.0
H571 H 0.83327 0.6393 0.45404 0.0
N572 N 0.80584 0.6192 0.46436 0.0
N573 N 0.80228 0.6152 0.49743 0.0
C574 C 0.35233 0.21617 0.46383 0.0
C575 C 0.35981 0.22208 0.44909 0.0
C576 C 0.35549 0.20768 0.47351 0.0
C577 C 0.36656 0.20536 0.46896 0.0
C578 C 0.3705 0.21933 0.44419 0.0
C579 C 0.37385 0.21106 0.45406 0.0
C580 C 0.36992 0.19621 0.47896 0.0
C581 C 0.37438 0.23104 0.51299 0.0
C582 C 0.3647 0.22568 0.52625 0.0
C583 C 0.37685 0.22194 0.50322 0.0
C584 C 0.36961 0.20737 0.50657 0.0
C585 C 0.35793 0.2112 0.52985 0.0
C586 C 0.36038 0.20218 0.52016 0.0
C587 C 0.37139 0.19722 0.4963 0.0
C588 C 0.38482 0.15126 0.51237 0.0
C589 C 0.3769 0.14663 0.52708 0.0
C590 C 0.38425 0.16137 0.5025 0.0
C591 C 0.37539 0.16667 0.50696 0.0
C592 C 0.3685 0.15235 0.53179 0.0
C593 C 0.36776 0.16224 0.52186 0.0
C594 C 0.37391 0.17688 0.49651 0.0
C595 C 0.35865 0.13797 0.46533 0.0
C596 C 0.36517 0.14009 0.44982 0.0
C597 C 0.36095 0.14949 0.47496 0.0
C598 C 0.37028 0.16336 0.46955 0.0
C599 C 0.37426 0.15391 0.4442 0.0
C600 C 0.37683 0.16546 0.45403 0.0
C601 C 0.37211 0.17566 0.4792 0.0
H602 H 0.34385 0.21791 0.46769 0.0
H603 H 0.34917 0.20284 0.48446 0.0
H604 H 0.37638 0.22374 0.43285 0.0
H605 H 0.38222 0.20918 0.4501 0.0
H606 H 0.37981 0.24217 0.50999 0.0
H607 H 0.38427 0.22623 0.49299 0.0
H608 H 0.35068 0.2068 0.54022 0.0
H609 H 0.35479 0.19102 0.52312 0.0
H610 H 0.3915 0.14712 0.50855 0.0
H611 H 0.39061 0.16493 0.49135 0.0
H612 H 0.36216 0.14887 0.54297 0.0
H613 H 0.3609 0.16618 0.52567 0.0
H614 H 0.35133 0.12739 0.46972 0.0
H615 H 0.35515 0.1475 0.48646 0.0
H616 H 0.3793 0.15577 0.4322 0.0
H617 H 0.38383 0.17604 0.44942 0.0
N618 N 0.37043 0.18551 0.47113 0.0
N619 N 0.37335 0.18754 0.50429 0.0
C620 C 0.78048 0.13736 0.44849 0.0
C621 C 0.77218 0.13869 0.43632 0.0
C622 C 0.78884 0.14862 0.45901 0.0
C623 C 0.78905 0.16142 0.45756 0.0
C624 C 0.77242 0.15153 0.43486 0.0
C625 C 0.78093 0.16288 0.44529 0.0
C626 C 0.79836 0.17347 0.4683 0.0
C627 C 0.76307 0.14173 0.50088 0.0
C628 C 0.7676 0.13704 0.51431 0.0
C629 C 0.77293 0.15316 0.49137 0.0
C630 C 0.7875 0.15987 0.49494 0.0
C631 C 0.78215 0.14374 0.51782 0.0
C632 C 0.79198 0.15504 0.50825 0.0
C633 C 0.79816 0.17241 0.48564 0.0
C634 C 0.84634 0.23004 0.5067 0.0
C635 C 0.85278 0.2254 0.518 0.0
C636 C 0.83512 0.22031 0.49683 0.0
C637 C 0.83028 0.20581 0.49802 0.0
C638 C 0.84749 0.21084 0.51956 0.0
C639 C 0.83636 0.20117 0.50972 0.0
C640 C 0.81902 0.19523 0.48718 0.0
C641 C 0.85588 0.22333 0.45444 0.0
C642 C 0.85266 0.22938 0.44125 0.0
C643 C 0.84502 0.2126 0.46374 0.0
C644 C 0.83075 0.20813 0.46044 0.0
C645 C 0.83844 0.2247 0.43759 0.0
C646 C 0.82755 0.21419 0.44719 0.0
C647 C 0.81912 0.19638 0.4698 0.0
H648 H 0.78043 0.12755 0.44995 0.0
H649 H 0.79526 0.14737 0.46817 0.0
H650 H 0.7662 0.15286 0.42548 0.0
H651 H 0.78112 0.17275 0.44387 0.0
H652 H 0.75189 0.13684 0.49807 0.0
H653 H 0.76912 0.15694 0.48152 0.0
H654 H 0.78593 0.14025 0.52801 0.0
H655 H 0.80314 0.16004 0.51128 0.0
H656 H 0.85016 0.24119 0.50524 0.0
H657 H 0.83037 0.22411 0.48814 0.0
H658 H 0.85197 0.20689 0.52843 0.0
H659 H 0.8327 0.19003 0.511 0.0
H660 H 0.8668 0.22657 0.45716 0.0
H661 H 0.84781 0.20762 0.47328 0.0
H662 H 0.83577 0.22913 0.4273 0.0
H663 H 0.81663 0.2107 0.44418 0.0
N664 N 0.80873 0.18546 0.46106 0.0
N665 N 0.80854 0.1833 0.49435 0.0
C666 C 0.97788 0.53155 0.16612 0.0
C667 C 0.9892 0.5394 0.15509 0.0
C668 C 0.97766 0.52102 0.1759 0.0
C669 C 0.98869 0.51808 0.17476 0.0
C670 C 0.00038 0.53659 0.15431 0.0
C671 C 2e-05 0.52592 0.16389 0.0
C672 C 0.98814 0.50642 0.18425 0.0
C673 C -0.00089 0.54068 0.22161 0.0
C674 C 0.98872 0.53734 0.23383 0.0
C675 C -0.00195 0.53031 0.21076 0.0
C676 C 0.98656 0.51641 0.21191 0.0
C677 C 0.97711 0.52347 0.23483 0.0
C678 C 0.97612 0.51305 0.22404 0.0
C679 C 0.98615 0.50517 0.2015 0.0
C680 C -0.00014 0.46117 0.21897 0.0
C681 C 0.98954 0.4536 0.23112 0.0
C682 C -0.00135 0.47066 0.20878 0.0
C683 C 0.98705 0.4727 0.21048 0.0
C684 C 0.97785 0.45553 0.23269 0.0
C685 C 0.97669 0.46511 0.22254 0.0
C686 C 0.98643 0.48368 0.20079 0.0
C687 C 0.97952 0.45018 0.1637 0.0
C688 C 0.99108 0.4544 0.15282 0.0
C689 C 0.97873 0.46004 0.17388 0.0
C690 C 0.98941 0.47433 0.17331 0.0
C691 C 0.00183 0.46874 0.15248 0.0
C692 C 0.00091 0.47861 0.16247 0.0
C693 C 0.98844 0.48495 0.18354 0.0
H694 H 0.96897 0.53322 0.16687 0.0
H695 H 0.96868 0.51492 0.18403 0.0
H696 H 0.00942 0.5426 0.14626 0.0
H697 H 0.00865 0.52382 0.16288 0.0
H698 H 0.00812 0.55131 0.22052 0.0
H699 H 0.00644 0.53308 0.20178 0.0
H700 H 0.96902 0.52059 0.24424 0.0
H701 H 0.96727 0.50234 0.22527 0.0
H702 H 0.00894 0.45982 0.21743 0.0
H703 H 0.007 0.47669 0.19988 0.0
H704 H 0.96982 0.44994 0.24206 0.0
H705 H 0.96777 0.46669 0.22419 0.0
H706 H 0.9709 0.43931 0.16411 0.0
H707 H 0.96963 0.45656 0.18197 0.0
H708 H 0.01104 0.47237 0.14456 0.0
H709 H 0.00927 0.48959 0.16188 0.0
N710 N 0.98927 0.4963 0.17591 0.0
N711 N 0.98531 0.49381 0.20912 0.0
C712 C 0.47898 0.43204 0.1625 0.0
C713 C 0.47413 0.43748 0.15017 0.0
C714 C 0.49042 0.44119 0.17255 0.0
C715 C 0.49709 0.4559 0.17044 0.0
C716 C 0.48116 0.45217 0.14783 0.0
C717 C 0.49248 0.46124 0.15781 0.0
C718 C 0.50894 0.46605 0.18102 0.0
C719 C 0.4709 0.4438 0.2141 0.0
C720 C 0.47225 0.43592 0.2268 0.0
C721 C 0.48271 0.45333 0.20486 0.0
C722 C 0.4961 0.45505 0.20791 0.0
C723 C 0.48573 0.43786 0.23007 0.0
C724 C 0.49757 0.44739 0.22073 0.0
C725 C 0.50866 0.46551 0.19842 0.0
C726 C 0.55251 0.52452 0.21695 0.0
C727 C 0.55811 0.522 0.23114 0.0
C728 C 0.54361 0.51338 0.20657 0.0
C729 C 0.54061 0.49957 0.20979 0.0
C730 C 0.55482 0.50819 0.23472 0.0
C731 C 0.54618 0.49707 0.22407 0.0
C732 C 0.5306 0.48756 0.19929 0.0
C733 C 0.56549 0.51867 0.16516 0.0
C734 C 0.56029 0.52438 0.15359 0.0
C735 C 0.55606 0.50671 0.17437 0.0
C736 C 0.54133 0.50033 0.17205 0.0
C737 C 0.54559 0.51768 0.15103 0.0
C738 C 0.53625 0.50578 0.16009 0.0
C739 C 0.53086 0.48804 0.18184 0.0
H740 H 0.47382 0.42077 0.16454 0.0
H741 H 0.49399 0.43679 0.18196 0.0
H742 H 0.47794 0.45669 0.13817 0.0
H743 H 0.49751 0.47251 0.1558 0.0
H744 H 0.46076 0.44286 0.21155 0.0
H745 H 0.48139 0.45953 0.19547 0.0
H746 H 0.48711 0.43194 0.23977 0.0
H747 H 0.50786 0.44873 0.22346 0.0
H748 H 0.55464 0.53505 0.2142 0.0
H749 H 0.53882 0.51556 0.19625 0.0
H750 H 0.55892 0.50603 0.24573 0.0
H751 H 0.54375 0.48648 0.22706 0.0
H752 H 0.57679 0.5236 0.1673 0.0
H753 H 0.56022 0.50253 0.18335 0.0
H754 H 0.54128 0.52164 0.14195 0.0
H755 H 0.52496 0.501 0.15797 0.0
N756 N 0.52001 0.47729 0.17351 0.0
N757 N 0.51957 0.47621 0.20686 0.0
C758 C 0.4615 0.0178 0.21958 0.0
C759 C 0.45564 0.00762 0.23218 0.0
C760 C 0.47252 0.01895 0.20961 0.0
C761 C 0.47771 0.00973 0.21178 0.0
C762 C 0.46111 -0.00136 0.23455 0.0
C763 C 0.472 -0.00031 0.22447 0.0
C764 C 0.48951 0.01083 0.20153 0.0
C765 C 0.45441 -0.00027 0.16534 0.0
C766 C 0.45754 0.00999 0.1532 0.0
C767 C 0.46505 0.00081 0.17569 0.0
C768 C 0.479 0.01225 0.17422 0.0
C769 C 0.47149 0.02151 0.15185 0.0
C770 C 0.48214 0.02256 0.16219 0.0
C771 C 0.49052 0.01285 0.18424 0.0
C772 C 0.53628 0.00107 0.16502 0.0
C773 C 0.54433 0.01197 0.15373 0.0
C774 C 0.52596 0.00142 0.17487 0.0
C775 C 0.52359 0.01279 0.17382 0.0
C776 C 0.54187 0.0233 0.15261 0.0
C777 C 0.53151 0.02364 0.16249 0.0
C778 C 0.51237 0.01296 0.18394 0.0
C779 C 0.54595 0.01787 0.21955 0.0
C780 C 0.54147 0.0054 0.22851 0.0
C781 C 0.53615 0.01969 0.21058 0.0
C782 C 0.52173 0.00914 0.21068 0.0
C783 C 0.52704 0.99493 0.22867 0.0
C784 C 0.51722 -0.00314 0.21998 0.0
C785 C 0.51124 0.01075 0.20113 0.0
H786 H 0.45752 0.02485 0.21731 0.0
H787 H 0.47703 0.02713 0.20031 0.0
H788 H 0.45713 0.9909 0.24436 0.0
H789 H 0.47594 0.99259 0.22658 0.0
H790 H 0.44376 0.99077 0.16672 0.0
H791 H 0.46243 0.99251 0.18459 0.0
H792 H 0.47427 0.02947 0.14245 0.0
H793 H 0.49288 0.03137 0.1607 0.0
H794 H 0.53796 0.99223 0.16627 0.0
H795 H 0.5197 0.9927 0.18316 0.0
H796 H 0.54775 0.03175 0.14387 0.0
H797 H 0.5297 0.0324 0.16132 0.0
H798 H 0.55705 0.02608 0.21929 0.0
H799 H 0.53979 0.02931 0.20359 0.0
H800 H 0.52335 0.98529 0.23563 0.0
H801 H 0.50612 0.98864 0.22024 0.0
N802 N 0.49988 0.00974 0.20925 0.0
N803 N 0.50199 0.01398 0.17614 0.0
C804 C 0.53576 0.99356 0.80032 0.0
C805 C 0.53481 0.98513 0.78675 0.0
C806 C 0.52357 0.99097 0.80888 0.0
C807 C 0.51021 0.97975 0.80422 0.0
C808 C 0.52142 0.97389 0.7821 0.0
C809 C 0.50921 0.97129 0.7907 0.0
C810 C 0.49722 0.97756 0.8126 0.0
C811 C 0.52203 0.96878 0.84958 0.0
C812 C 0.52666 0.97798 0.86322 0.0
C813 C 0.51183 0.9683 0.83885 0.0
C814 C 0.50621 0.97714 0.84144 0.0
C815 C 0.52061 0.98644 0.86606 0.0
C816 C 0.5105 0.986 0.85532 0.0
C817 C 0.49573 0.9772 0.82998 0.0
C818 C 0.43731 0.96811 0.84054 0.0
C819 C 0.44031 0.97941 0.85115 0.0
C820 C 0.44835 0.96749 0.83258 0.0
C821 C 0.46251 0.97803 0.83539 0.0
C822 C 0.45448 0.98997 0.85385 0.0
C823 C 0.46551 0.98919 0.84618 0.0
C824 C 0.47426 0.97752 0.82712 0.0
C825 C 0.45579 0.99333 0.78972 0.0
C826 C 0.4481 0.98333 0.77741 0.0
C827 C 0.46464 0.9914 0.80029 0.0
C828 C 0.466 0.97943 0.79876 0.0
C829 C 0.4495 0.97136 0.77584 0.0
C830 C 0.45852 0.96951 0.78634 0.0
C831 C 0.4756 0.9776 0.80982 0.0
H832 H 0.54593 0.00224 0.80427 0.0
H833 H 0.52458 -0.00209 0.81897 0.0
H834 H 0.52033 0.96735 0.77155 0.0
H835 H 0.49897 0.96273 0.78675 0.0
H836 H 0.52645 0.96212 0.84702 0.0
H837 H 0.5084 0.96106 0.82851 0.0
H838 H 0.52366 0.9934 0.87666 0.0
H839 H 0.5062 0.99279 0.85773 0.0
H840 H 0.42644 0.95985 0.83834 0.0
H841 H 0.44586 0.95875 0.82436 0.0
H842 H 0.45702 -0.00131 0.86213 0.0
H843 H 0.47638 -0.0026 0.84848 0.0
H844 H 0.45484 0.0026 0.79128 0.0
H845 H 0.47053 -0.00069 0.80961 0.0
H846 H 0.44379 0.96356 0.76636 0.0
H847 H 0.45955 0.96028 0.78488 0.0
N848 N 0.48702 0.9776 0.80318 0.0
N849 N 0.48435 0.97734 0.83656 0.0
C850 C -0.00356 0.53815 0.79434 0.0
C851 C 0.00648 0.54584 0.78197 0.0
C852 C -0.00181 0.52899 0.80458 0.0
C853 C 0.01003 0.52735 0.80269 0.0
C854 C 0.01839 0.54427 0.78016 0.0
C855 C 0.02006 0.53499 0.79033 0.0
C856 C 0.01132 0.51687 0.8127 0.0
C857 C 0.01802 0.55117 0.84894 0.0
C858 C 0.00688 0.54666 0.86051 0.0
C859 C 0.01898 0.54139 0.83873 0.0
C860 C 0.00887 0.52694 0.83997 0.0
C861 C -0.00339 0.53217 0.86135 0.0
C862 C -0.00229 0.52243 0.85134 0.0
C863 C 0.01011 0.51632 0.83006 0.0
C864 C 0.01849 0.46746 0.84706 0.0
C865 C 0.00839 0.46141 0.85983 0.0
C866 C 0.01924 0.47831 0.83737 0.0
C867 C 0.00982 0.48324 0.84014 0.0
C868 C -0.00087 0.46654 0.86272 0.0
C869 C -0.00013 0.47735 0.85303 0.0
C870 C 0.01053 0.49486 0.83017 0.0
C871 C -0.00466 0.45901 0.79407 0.0
C872 C 0.00624 0.46048 0.78356 0.0
C873 C -0.00275 0.47033 0.8038 0.0
C874 C 0.01001 0.48333 0.80299 0.0
C875 C 0.01909 0.47344 0.78286 0.0
C876 C 0.02089 0.48489 0.79236 0.0
C877 C 0.01162 0.49536 0.8128 0.0
H878 H 0.9872 0.5392 0.79609 0.0
H879 H 0.9901 0.52294 0.81373 0.0
H880 H 0.02621 0.54995 0.77062 0.0
H881 H 0.02916 0.53373 0.78851 0.0
H882 H 0.0262 0.56219 0.84807 0.0
H883 H 0.02781 0.54507 0.83017 0.0
H884 H 0.98768 0.52831 0.86977 0.0
H885 H 0.98976 0.51133 0.85242 0.0
H886 H 0.02577 0.46376 0.84448 0.0
H887 H 0.02731 0.48294 0.82784 0.0
H888 H 0.99141 0.46233 0.87265 0.0
H889 H -0.00741 0.48107 0.85556 0.0
H890 H 0.98536 0.44908 0.79477 0.0
H891 H 0.98868 0.469 0.8118 0.0
H892 H 0.02758 0.47476 0.77474 0.0
H893 H 0.03076 0.4949 0.79153 0.0
N894 N 0.01205 0.50636 0.80471 0.0
N895 N 0.00973 0.50533 0.83811 0.0
C896 C 0.51846 0.56145 0.78981 0.0
C897 C 0.5251 0.55581 0.7801 0.0
C898 C 0.50529 0.55253 0.79723 0.0
C899 C 0.49864 0.53782 0.7952 0.0
C900 C 0.51809 0.54114 0.77755 0.0
C901 C 0.505 0.53226 0.78499 0.0
C902 C 0.4852 0.52797 0.80373 0.0
C903 C 0.51773 0.54976 0.84337 0.0
C904 C 0.51459 0.55758 0.85459 0.0
C905 C 0.50748 0.54045 0.83231 0.0
C906 C 0.49397 0.53899 0.832 0.0
C907 C 0.50098 0.55594 0.85445 0.0
C908 C 0.49075 0.54668 0.84328 0.0
C909 C 0.4829 0.5287 0.82078 0.0
C910 C 0.43602 0.47121 0.83678 0.0
C911 C 0.42791 0.47403 0.84799 0.0
C912 C 0.4464 0.48198 0.82703 0.0
C913 C 0.44871 0.49574 0.82808 0.0
C914 C 0.43024 0.48781 0.849 0.0
C915 C 0.44061 0.49858 0.83919 0.0
C916 C 0.46046 0.50738 0.81879 0.0
C917 C 0.4291 0.47699 0.78227 0.0
C918 C 0.43476 0.47133 0.77103 0.0
C919 C 0.43806 0.48873 0.79195 0.0
C920 C 0.45287 0.49481 0.79091 0.0
C921 C 0.44959 0.47795 0.7694 0.0
C922 C 0.45851 0.4895 0.77925 0.0
C923 C 0.4627 0.50669 0.80169 0.0
H924 H 0.52359 0.57272 0.79196 0.0
H925 H 0.50041 0.55709 0.80473 0.0
H926 H 0.52275 0.53649 0.76982 0.0
H927 H 0.50001 0.52097 0.78308 0.0
H928 H 0.528 0.55055 0.84344 0.0
H929 H 0.51006 0.53422 0.82419 0.0
H930 H 0.49827 0.56184 0.86293 0.0
H931 H 0.48032 0.54553 0.84342 0.0
H932 H 0.43472 0.46079 0.83598 0.0
H933 H 0.45286 0.47963 0.81897 0.0
H934 H 0.42411 0.49029 0.85747 0.0
H935 H 0.44238 0.50917 0.84034 0.0
H936 H 0.41774 0.47218 0.78388 0.0
H937 H 0.43339 0.49291 0.80037 0.0
H938 H 0.45437 0.47419 0.76055 0.0
H939 H 0.46989 0.49411 0.77797 0.0
N940 N 0.47502 0.517 0.79491 0.0
N941 N 0.47058 0.51844 0.82761 0.0
C942 C 0.63352 0.7734 0.50668 0.0
C943 C 0.62307 0.76627 0.49461 0.0
C944 C 0.63309 0.78339 0.51696 0.0
C945 C 0.62211 0.78637 0.51553 0.0
C946 C 0.61202 0.7692 0.49329 0.0
C947 C 0.6116 0.77922 0.50358 0.0
C948 C 0.62231 0.79784 0.52534 0.0
C949 C 0.61646 0.76476 0.56259 0.0
C950 C 0.62804 0.76955 0.57338 0.0
C951 C 0.61519 0.77427 0.55237 0.0
C952 C 0.6255 0.7887 0.55278 0.0
C953 C 0.63833 0.78402 0.57363 0.0
C954 C 0.637 0.79348 0.56356 0.0
C955 C 0.6243 0.7991 0.54257 0.0
C956 C 0.62248 0.8522 0.55824 0.0
C957 C 0.63295 0.85764 0.57055 0.0
C958 C 0.61987 0.84032 0.54906 0.0
C959 C 0.6279 0.83383 0.55177 0.0
C960 C 0.64054 0.85075 0.57365 0.0
C961 C 0.63806 0.83902 0.56436 0.0
C962 C 0.62567 0.82143 0.54203 0.0
C963 C 0.64002 0.85647 0.50527 0.0
C964 C 0.62997 0.85418 0.49312 0.0
C965 C 0.638 0.84552 0.51564 0.0
C966 C 0.62578 0.83209 0.51426 0.0
C967 C 0.61779 0.84069 0.49169 0.0
C968 C 0.61577 0.82972 0.50209 0.0
C969 C 0.62395 0.82031 0.52472 0.0
H970 H 0.64236 0.77165 0.5078 0.0
H971 H 0.64162 0.78913 0.52566 0.0
H972 H 0.60373 0.76382 0.48422 0.0
H973 H 0.60313 0.78148 0.50214 0.0
H974 H 0.60825 0.75372 0.56222 0.0
H975 H 0.60609 0.77039 0.54435 0.0
H976 H 0.64756 0.78806 0.58148 0.0
H977 H 0.64508 0.80458 0.56405 0.0
H978 H 0.61644 0.85724 0.55549 0.0
H979 H 0.61162 0.83626 0.53983 0.0
H980 H 0.64841 0.85438 0.58331 0.0
H981 H 0.64425 0.83409 0.5669 0.0
H982 H 0.64948 0.86675 0.50676 0.0
H983 H 0.64608 0.84751 0.52463 0.0
H984 H 0.60996 0.83853 0.48228 0.0
H985 H 0.60639 0.81937 0.50064 0.0
N986 N 0.62216 0.80849 0.51708 0.0
N987 N 0.62588 0.81081 0.5502 0.0
C988 C 0.1507 0.76951 0.49269 0.0
C989 C 0.1371 0.76763 0.49493 0.0
C990 C 0.16192 0.77876 0.5028 0.0
C991 C 0.15973 0.78617 0.51547 0.0
C992 C 0.13484 0.77477 0.50795 0.0
C993 C 0.14607 0.78402 0.51806 0.0
C994 C 0.17204 0.7973 0.52455 0.0
C995 C 0.14437 0.78404 0.57525 0.0
C996 C 0.13776 0.7694 0.57266 0.0
C997 C 0.15591 0.79342 0.56552 0.0
C998 C 0.16105 0.78839 0.55293 0.0
C999 C 0.14328 0.76432 0.5605 0.0
C1000 C 0.15491 0.77373 0.55084 0.0
C1001 C 0.17255 0.79862 0.54191 0.0
C1002 C 0.21678 0.85898 0.55268 0.0
C1003 C 0.22402 0.85792 0.56633 0.0
C1004 C 0.20724 0.84693 0.54385 0.0
C1005 C 0.20492 0.83361 0.54834 0.0
C1006 C 0.22162 0.84454 0.57083 0.0
C1007 C 0.21209 0.8325 0.56197 0.0
C1008 C 0.19429 0.82072 0.53963 0.0
C1009 C 0.22882 0.84748 0.50309 0.0
C1010 C 0.2239 0.85098 0.48896 0.0
C1011 C 0.21924 0.83696 0.51386 0.0
C1012 C 0.20455 0.83004 0.5109 0.0
C1013 C 0.20927 0.84373 0.48578 0.0
C1014 C 0.19973 0.83339 0.49662 0.0
C1015 C 0.19399 0.81918 0.52228 0.0
H1016 H 0.15275 0.76405 0.48288 0.0
H1017 H 0.1724 0.78036 0.5005 0.0
H1018 H 0.12456 0.77375 0.50983 0.0
H1019 H 0.14421 0.78993 0.52745 0.0
H1020 H 0.14031 0.78829 0.58443 0.0
H1021 H 0.16049 0.80467 0.56745 0.0
H1022 H 0.13856 0.75309 0.55842 0.0
H1023 H 0.15896 0.76954 0.54158 0.0
H1024 H 0.21815 0.86907 0.5491 0.0
H1025 H 0.20148 0.848 0.5337 0.0
H1026 H 0.22709 0.84338 0.58122 0.0
H1027 H 0.21033 0.8223 0.56574 0.0
H1028 H 0.24007 0.8528 0.50572 0.0
H1029 H 0.22332 0.83426 0.52447 0.0
H1030 H 0.20515 0.84629 0.47509 0.0
H1031 H 0.18848 0.8282 0.49397 0.0
N1032 N 0.18282 0.80754 0.51549 0.0
N1033 N 0.18364 0.81033 0.54874 0.0
C1034 C 0.22655 0.37524 0.49997 0.0
C1035 C 0.222 0.36562 0.48673 0.0
C1036 C 0.21672 0.37695 0.50932 0.0
C1037 C 0.20217 0.36899 0.50567 0.0
C1038 C 0.20749 0.358 0.48285 0.0
C1039 C 0.19771 0.35969 0.49218 0.0
C1040 C 0.1914 0.37017 0.51562 0.0
C1041 C 0.20906 0.35104 0.54941 0.0
C1042 C 0.2165 0.35947 0.56301 0.0
C1043 C 0.20099 0.35458 0.53955 0.0
C1044 C 0.20032 0.36675 0.54293 0.0
C1045 C 0.21588 0.3717 0.56637 0.0
C1046 C 0.20773 0.37523 0.55648 0.0
C1047 C 0.191 0.36989 0.53303 0.0
C1048 C 0.13207 0.35698 0.54864 0.0
C1049 C 0.13461 0.36539 0.56272 0.0
C1050 C 0.14336 0.35857 0.53891 0.0
C1051 C 0.15738 0.36902 0.54267 0.0
C1052 C 0.14862 0.37549 0.56687 0.0
C1053 C 0.15992 0.37732 0.55688 0.0
C1054 C 0.16951 0.37051 0.53276 0.0
C1055 C 0.1407 0.3756 0.49724 0.0
C1056 C 0.13504 0.36476 0.48536 0.0
C1057 C 0.1522 0.3778 0.50697 0.0
C1058 C 0.15813 0.36916 0.5049 0.0
C1059 C 0.14135 0.35652 0.48301 0.0
C1060 C 0.15277 0.35872 0.49262 0.0
C1061 C 0.16981 0.37056 0.5153 0.0
H1062 H 0.23766 0.38128 0.50326 0.0
H1063 H 0.22049 0.38446 0.51941 0.0
H1064 H 0.20366 0.35074 0.47252 0.0
H1065 H 0.18657 0.35351 0.489 0.0
H1066 H 0.20943 0.34162 0.54642 0.0
H1067 H 0.19505 0.34765 0.52943 0.0
H1068 H 0.22139 0.37831 0.57688 0.0
H1069 H 0.20715 0.38454 0.55943 0.0
H1070 H 0.12135 0.3489 0.54543 0.0
H1071 H 0.14109 0.35145 0.52861 0.0
H1072 H 0.15081 0.38202 0.57775 0.0
H1073 H 0.17065 0.38522 0.56027 0.0
H1074 H 0.13608 0.38215 0.49923 0.0
H1075 H 0.15635 0.3861 0.51617 0.0
H1076 H 0.13745 0.34831 0.47369 0.0
H1077 H 0.15723 0.35201 0.49068 0.0
N1078 N 0.18075 0.37041 0.50751 0.0
N1079 N 0.1802 0.37026 0.54091 0.0
C1080 C 0.98895 0.36299 0.06211 0.0
C1081 C -0.00226 0.369 0.04823 0.0
C1082 C 0.9884 0.37162 0.07449 0.0
C1083 C 0.00797 0.40874 0.08999 0.0
H1084 H 0.97216 0.39807 0.11157 0.0
C1085 C -0.00237 0.44798 0.12569 0.0
C1086 C 0.99183 0.44399 0.14166 0.0
C1087 C -0.0015 0.43834 0.11524 0.0
C1088 C 0.98225 0.40109 0.10573 0.0
H1089 H 0.01264 0.38871 0.03627 0.0
H1090 H 0.0113 0.40369 0.0574 0.0
H1091 H 0.97335 0.38213 0.0914 0.0
H1092 H 0.98239 0.42655 0.15903 0.0
H1093 H 0.98345 0.40958 0.14042 0.0
H1094 H 0.01667 0.42797 0.10387 0.0
C1095 C 0.00518 0.39236 0.05912 0.0
C1096 C 0.98297 0.39195 0.09423 0.0
C1097 C 0.00587 0.38376 0.0469 0.0
C1098 C 0.98672 0.42998 0.14676 0.0
C1099 C 0.98738 0.42026 0.13617 0.0
C1100 C 0.00718 0.41794 0.10127 0.0
C1101 C -0.0035 0.38643 0.07313 0.0
C1102 C -0.00418 0.39573 0.08607 0.0
C1103 C -0.00663 0.4244 0.12036 0.0
C1104 C -0.0057 0.41426 0.10913 0.0
H1105 H 0.98262 0.35163 0.06349 0.0
H1106 H 0.98174 0.36666 0.08518 0.0
H1107 H 0.01813 0.41188 0.08431 0.0
H1108 H 0.00135 0.45853 0.12112 0.0
H1109 H 0.00298 0.44172 0.103 0.0
C1110 C 0.60708 0.62021 0.05533 0.0
C1111 C 0.61884 0.62292 0.04555 0.0
C1112 C 0.6025 0.61039 0.06809 0.0
C1113 C 0.61244 0.5895 0.09466 0.0
H1114 H 0.57156 0.5657 0.09856 0.0
C1115 C 0.58187 0.53873 0.13572 0.0
C1116 C 0.56989 0.53729 0.14405 0.0
C1117 C 0.58953 0.54998 0.12476 0.0
C1118 C 0.583 0.57234 0.09773 0.0
H1119 H 0.63534 0.61779 0.04187 0.0
H1120 H 0.62709 0.6003 0.06404 0.0
H1121 H 0.58162 0.58355 0.07716 0.0
H1122 H 0.55732 0.5471 0.14862 0.0
H1123 H 0.5706 0.56658 0.12956 0.0
H1124 H 0.61363 0.57789 0.11522 0.0
C1125 C 0.62153 0.60593 0.06192 0.0
C1126 C 0.58878 0.58261 0.08549 0.0
C1127 C 0.62622 0.61591 0.04918 0.0
C1128 C 0.56631 0.54777 0.14208 0.0
C1129 C 0.5739 0.55891 0.13118 0.0
C1130 C 0.60661 0.57907 0.10691 0.0
C1131 C 0.60943 0.60287 0.07131 0.0
C1132 C 0.60356 0.59151 0.08396 0.0
C1133 C 0.58529 0.55989 0.122 0.0
C1134 C 0.59181 0.57057 0.10872 0.0
H1135 H 0.60128 0.62559 0.05305 0.0
H1136 H 0.59338 0.6086 0.07535 0.0
H1137 H 0.62387 0.5962 0.09383 0.0
H1138 H 0.58485 0.53079 0.13701 0.0
H1139 H 0.59828 0.5505 0.11783 0.0
C1140 C 0.36843 0.98055 0.04687 0.0
C1141 C 0.36597 0.99126 0.04162 0.0
C1142 C 0.37799 0.98304 0.05951 0.0
C1143 C 0.3975 0.00702 0.09418 0.0
H1144 H 0.42179 0.99117 0.08836 0.0
C1145 C 0.44513 0.01981 0.13678 0.0
C1146 C 0.44649 0.00825 0.14136 0.0
C1147 C 0.43507 0.01817 0.12508 0.0
C1148 C 0.415 -0.00444 0.09024 0.0
H1149 H 0.37141 0.01293 0.04584 0.0
H1150 H 0.38835 0.01736 0.06783 0.0
H1151 H 0.40474 0.98765 0.0671 0.0
H1152 H 0.43836 0.98593 0.13728 0.0
H1153 H 0.42079 0.98306 0.11702 0.0
H1154 H 0.40797 0.01505 0.11733 0.0
C1155 C 0.38272 0.00697 0.06224 0.0
C1156 C 0.4052 0.99353 0.07807 0.0
C1157 C 0.37306 0.00445 0.0496 0.0
C1158 C 0.43749 0.99501 0.13415 0.0
C1159 C 0.42752 0.9934 0.12241 0.0
C1160 C 0.40739 0.00913 0.10635 0.0
C1161 C 0.38543 -0.00366 0.06718 0.0
C1162 C 0.3962 -0.00093 0.07997 0.0
C1163 C 0.42629 0.00498 0.11763 0.0
C1164 C 0.41612 0.00327 0.10457 0.0
H1165 H 0.36303 0.97021 0.04114 0.0
H1166 H 0.37956 0.97451 0.06326 0.0
H1167 H 0.39065 0.01134 0.09608 0.0
H1168 H 0.45186 0.03012 0.14223 0.0
H1169 H 0.4344 0.02729 0.12158 0.0
C1170 C 0.35249 0.98249 0.94399 0.0
C1171 C 0.36006 0.99176 0.95695 0.0
C1172 C 0.3597 0.98132 0.93031 0.0
C1173 C 0.39518 -0.00061 0.9096 0.0
H1174 H 0.38211 0.9624 0.89065 0.0
C1175 C 0.42765 0.99213 0.85879 0.0
C1176 C 0.42879 0.98004 0.85989 0.0
C1177 C 0.41754 0.99326 0.86819 0.0
C1178 C 0.38598 0.9728 0.89586 0.0
H1179 H 0.38106 0.00699 0.96585 0.0
H1180 H 0.3936 0.00457 0.94249 0.0
H1181 H 0.36817 0.96517 0.91221 0.0
H1182 H 0.42021 0.95953 0.87127 0.0
H1183 H 0.40297 0.96167 0.88831 0.0
H1184 H 0.41346 0.00688 0.8942 0.0
C1185 C 0.38211 -0.00148 0.94248 0.0
C1186 C 0.37784 0.97443 0.90808 0.0
C1187 C 0.37492 -0.00017 0.95599 0.0
C1188 C 0.41942 0.96892 0.87017 0.0
C1189 C 0.40949 0.97014 0.87983 0.0
C1190 C 0.40341 -0.00228 0.89761 0.0
C1191 C 0.37462 0.98927 0.92944 0.0
C1192 C 0.38249 0.98771 0.91533 0.0
C1193 C 0.40857 0.98243 0.87918 0.0
C1194 C 0.39905 0.98436 0.89076 0.0
H1195 H 0.34101 0.9762 0.94438 0.0
H1196 H 0.35357 0.97422 0.92041 0.0
H1197 H 0.39895 0.00985 0.9146 0.0
H1198 H 0.43471 0.00078 0.85078 0.0
H1199 H 0.41693 0.00272 0.86702 0.0
C1200 C 0.0096 0.37724 0.95884 0.0
C1201 C -0.00407 0.36802 0.96512 0.0
C1202 C 0.0116 0.38677 0.9462 0.0
C1203 C -0.00635 0.40453 0.92878 0.0
H1204 H 0.02082 0.41516 0.89294 0.0
C1205 C -0.00571 0.43861 0.87526 0.0
C1206 C 0.00755 0.44994 0.8703 0.0
C1207 C -0.00658 0.42827 0.88591 0.0
C1208 C 0.01326 0.41236 0.90297 0.0
H1209 H 0.97357 0.36084 0.96227 0.0
H1210 H 0.977 0.37704 0.94014 0.0
H1211 H 0.01837 0.3975 0.91306 0.0
H1212 H 0.03032 0.45903 0.87236 0.0
H1213 H 0.02876 0.44087 0.89094 0.0
H1214 H 0.98849 0.41927 0.91879 0.0
C1215 C 0.98625 0.37733 0.94527 0.0
C1216 C 0.01187 0.40227 0.91449 0.0
C1217 C 0.98427 0.36797 0.95791 0.0
C1218 C 0.01993 0.4504 0.87583 0.0
C1219 C 0.01905 0.43999 0.88648 0.0
C1220 C -0.00501 0.41452 0.91729 0.0
C1221 C -5e-05 0.38716 0.93959 0.0
C1222 C 0.00192 0.39813 0.92745 0.0
C1223 C 0.00578 0.42895 0.89185 0.0
C1224 C 0.00471 0.41847 0.90415 0.0
H1225 H 0.01878 0.37753 0.96416 0.0
H1226 H 0.02231 0.3942 0.94212 0.0
H1227 H 0.98616 0.40192 0.93885 0.0
H1228 H 0.98454 0.43775 0.87095 0.0
H1229 H 0.98302 0.41974 0.88956 0.0
C1230 C 0.60713 0.61591 0.95817 0.0
C1231 C 0.61148 0.62999 0.96208 0.0
C1232 C 0.59657 0.60856 0.94644 0.0
C1233 C 0.57871 0.61351 0.91108 0.0
H1234 H 0.54923 0.57496 0.9205 0.0
C1235 C 0.5396 0.5758 0.86191 0.0
C1236 C 0.52537 0.56703 0.86673 0.0
C1237 C 0.54991 0.58411 0.87351 0.0
C1238 C 0.55732 0.58576 0.91775 0.0
H1239 H 0.60832 0.64747 0.95664 0.0
H1240 H 0.58987 0.6346 0.93613 0.0
H1241 H 0.56769 0.58821 0.94083 0.0
H1242 H 0.51075 0.56022 0.88747 0.0
H1243 H 0.52875 0.57483 0.90773 0.0
H1244 H 0.56829 0.61105 0.88801 0.0
C1245 C 0.59468 0.62929 0.94209 0.0
C1246 C 0.56798 0.59329 0.9293 0.0
C1247 C 0.60519 0.63663 0.95388 0.0
C1248 C 0.52161 0.56695 0.88336 0.0
C1249 C 0.53194 0.5752 0.89498 0.0
C1250 C 0.56809 0.60595 0.89947 0.0
C1251 C 0.59019 0.61514 0.93832 0.0
C1252 C 0.57881 0.60723 0.92608 0.0
C1253 C 0.54621 0.58377 0.89021 0.0
C1254 C 0.55729 0.59198 0.90267 0.0
H1255 H 0.6118 0.61052 0.96424 0.0
H1256 H 0.59346 0.59773 0.94364 0.0
H1257 H 0.58697 0.62421 0.9082 0.0
H1258 H 0.54279 0.57618 0.84915 0.0
H1259 H 0.56084 0.59053 0.86948 0.0
C1260 C -0.00094 0.62995 0.95692 0.0
C1261 C 0.99076 0.62212 0.9705 0.0
C1262 C 0.00124 0.62311 0.94355 0.0
C1263 C 0.98574 0.58745 0.92468 0.0
H1264 H 0.02238 0.60252 0.90313 0.0
C1265 C 0.00113 0.55273 0.88825 0.0
C1266 C 0.00604 0.55683 0.87198 0.0
C1267 C -0.00037 0.56187 0.89889 0.0
C1268 C 0.01206 0.59831 0.90894 0.0
H1269 H 0.97875 0.60108 0.98098 0.0
H1270 H 0.98282 0.58936 0.95812 0.0
H1271 H 0.01907 0.61647 0.9245 0.0
H1272 H 0.01364 0.57405 0.85441 0.0
H1273 H 0.01143 0.59024 0.8734 0.0
H1274 H 0.97892 0.56908 0.90966 0.0
C1275 C 0.98728 0.60067 0.95742 0.0
C1276 C 0.01014 0.60628 0.92112 0.0
C1277 C 0.98502 0.60743 0.97062 0.0
C1278 C 0.00992 0.57056 0.86687 0.0
C1279 C 0.00862 0.57982 0.87768 0.0
C1280 C 0.98771 0.57947 0.91272 0.0
C1281 C -0.00479 0.60835 0.94359 0.0
C1282 C -0.00297 0.60077 0.92941 0.0
C1283 C 0.00323 0.57543 0.89368 0.0
C1284 C 0.00095 0.58468 0.90499 0.0
H1285 H 0.00363 0.64129 0.95648 0.0
H1286 H 0.00738 0.62934 0.93307 0.0
H1287 H 0.97538 0.58305 0.93044 0.0
H1288 H -0.00155 0.54244 0.89283 0.0
H1289 H -0.00431 0.55835 0.91129 0.0
C1290 C 0.3526 0.3841 0.95044 0.0
C1291 C 0.35996 0.37775 0.95663 0.0
C1292 C 0.35827 0.39373 0.93744 0.0
C1293 C 0.37751 0.42054 0.91817 0.0
H1294 H 0.3974 0.41486 0.88193 0.0
C1295 C 0.41714 0.46569 0.87603 0.0
C1296 C 0.41769 0.46277 0.85923 0.0
C1297 C 0.40843 0.45488 0.88693 0.0
C1298 C 0.39172 0.41653 0.89184 0.0
H1299 H 0.37889 0.37631 0.95386 0.0
H1300 H 0.38885 0.3932 0.9313 0.0
H1301 H 0.38512 0.39633 0.90243 0.0
H1302 H 0.40903 0.44635 0.84057 0.0
H1303 H 0.39378 0.42745 0.85963 0.0
H1304 H 0.38412 0.44075 0.90757 0.0
C1305 C 0.37862 0.39063 0.93636 0.0
C1306 C 0.38484 0.40598 0.90369 0.0
C1307 C 0.37296 0.38102 0.94936 0.0
C1308 C 0.409 0.44888 0.85349 0.0
C1309 C 0.40027 0.43807 0.8644 0.0
C1310 C 0.38441 0.4311 0.90632 0.0
C1311 C 0.3714 0.39718 0.93034 0.0
C1312 C 0.37782 0.40795 0.91711 0.0
C1313 C 0.40006 0.44091 0.88128 0.0
C1314 C 0.39176 0.42929 0.89314 0.0
H1315 H 0.34252 0.38175 0.95576 0.0
H1316 H 0.35237 0.39848 0.93294 0.0
H1317 H 0.3723 0.42242 0.92843 0.0
H1318 H 0.42386 0.47624 0.88088 0.0
H1319 H 0.40866 0.4574 0.8999 0.0
C1320 C 0.61346 0.98193 0.96325 0.0
C1321 C 0.62146 -0.00429 0.96963 0.0
C1322 C 0.60315 0.97879 0.95115 0.0
C1323 C 0.58093 0.99258 0.93544 0.0
H1324 H 0.57466 0.96861 0.89743 0.0
C1325 C 0.54821 0.99213 0.88071 0.0
C1326 C 0.53782 0.97895 0.87444 0.0
C1327 C 0.55826 0.99311 0.89193 0.0
C1328 C 0.57622 0.97521 0.90809 0.0
H1329 H 0.62552 0.01712 0.96758 0.0
H1330 H 0.60794 0.01173 0.94651 0.0
H1331 H 0.59267 0.97217 0.91778 0.0
H1332 H 0.53016 0.95647 0.87476 0.0
H1333 H 0.54793 0.95826 0.89431 0.0
H1334 H 0.56473 -0.00418 0.92575 0.0
C1335 C 0.60923 0.00324 0.95112 0.0
C1336 C 0.5865 0.97723 0.91974 0.0
C1337 C 0.61939 0.00634 0.96318 0.0
C1338 C 0.53806 0.9668 0.87926 0.0
C1339 C 0.54821 0.96781 0.89047 0.0
C1340 C 0.57078 0.99062 0.92383 0.0
C1341 C 0.60072 0.98938 0.94523 0.0
C1342 C 0.58915 0.98618 0.93338 0.0
C1343 C 0.55826 0.98096 0.89713 0.0
C1344 C 0.56847 0.98213 0.90987 0.0
H1345 H 0.61483 0.97352 0.96796 0.0
H1346 H 0.59677 0.968 0.94685 0.0
H1347 H 0.58241 -0.00079 0.94604 0.0
H1348 H 0.54858 0.00174 0.87695 0.0
H1349 H 0.56606 0.00343 0.89658 0.0
C1350 C 0.6348 0.01316 0.06082 0.0
C1351 C 0.62935 1e-05 0.05293 0.0
C1352 C 0.62688 0.01513 0.07307 0.0
C1353 C 0.59682 -0.00436 0.10204 0.0
H1354 H 0.59291 0.02866 0.09936 0.0
C1355 C 0.55196 -0.00153 0.13562 0.0
C1356 C 0.55502 0.01131 0.14296 0.0
C1357 C 0.56199 -0.00229 0.12563 0.0
C1358 C 0.59406 0.01949 0.10045 0.0
H1359 H 0.61148 0.97854 0.05195 0.0
H1360 H 0.59773 0.98197 0.07322 0.0
H1361 H 0.60905 0.02625 0.08051 0.0
H1362 H 0.57107 0.03343 0.1456 0.0
H1363 H 0.58864 0.03211 0.12812 0.0
H1364 H 0.58175 0.98878 0.12183 0.0
C1365 C 0.60813 0.99074 0.07006 0.0
C1366 C 0.60331 0.01811 0.08965 0.0
C1367 C 0.61599 0.98881 0.05779 0.0
C1368 C 0.56833 0.02341 0.13998 0.0
C1369 C 0.5784 0.02265 0.12997 0.0
C1370 C 0.58761 -0.00298 0.11285 0.0
C1371 C 0.61342 0.00395 0.07774 0.0
C1372 C 0.60461 0.00606 0.09015 0.0
C1373 C 0.57535 0.00977 0.12273 0.0
C1374 C 0.58593 0.00884 0.112 0.0
H1375 H 0.64507 0.022 0.05734 0.0
H1376 H 0.63128 0.0254 0.07887 0.0
H1377 H 0.59778 0.98634 0.10293 0.0
H1378 H 0.54171 0.98901 0.13741 0.0
H1379 H 0.55917 0.98769 0.11996 0.0
C1380 C 0.98305 0.62651 0.06544 0.0
C1381 C -0.00735 0.63007 0.05221 0.0
C1382 C 0.98211 0.61707 0.07758 0.0
C1383 C 0.98634 0.58694 0.08287 0.0
H1384 H -0.0076 0.59617 0.12942 0.0
C1385 C -0.00555 0.55181 0.12781 0.0
C1386 C 0.98912 0.55009 0.14399 0.0
C1387 C -0.00575 0.56165 0.11724 0.0
C1388 C 0.99042 0.59331 0.11651 0.0
H1389 H 0.00891 0.62671 0.04144 0.0
H1390 H 0.00697 0.61001 0.06237 0.0
H1391 H -0.00709 0.61334 0.10996 0.0
H1392 H 0.97949 0.5576 0.16172 0.0
H1393 H 0.97851 0.57429 0.14299 0.0
H1394 H 0.98349 0.56687 0.08918 0.0
C1395 C 0.00028 0.61459 0.06339 0.0
C1396 C 0.99077 0.60317 0.1054 0.0
C1397 C 0.00141 0.62419 0.05148 0.0
C1398 C 0.98353 0.55849 0.14929 0.0
C1399 C 0.98315 0.56822 0.1386 0.0
C1400 C 0.98574 0.57701 0.09394 0.0
C1401 C 0.99055 0.61086 0.07645 0.0
C1402 C 0.98901 0.60014 0.08847 0.0
C1403 C 0.98847 0.56989 0.12241 0.0
C1404 C 0.98807 0.58016 0.11087 0.0
H1405 H 0.9762 0.63092 0.06633 0.0
H1406 H 0.97452 0.6143 0.08757 0.0
H1407 H 0.98476 0.58433 0.06986 0.0
H1408 H -0.00137 0.5454 0.12315 0.0
H1409 H -0.00127 0.56281 0.105 0.0
C1410 C 0.38213 0.39105 0.04748 0.0
C1411 C 0.37754 0.37794 0.03985 0.0
C1412 C 0.39247 0.39603 0.05967 0.0
C1413 C 0.41066 0.38537 0.08946 0.0
H1414 H 0.43782 0.42563 0.08934 0.0
C1415 C 0.46044 0.41576 0.13249 0.0
C1416 C 0.46185 0.42812 0.13957 0.0
C1417 C 0.44981 0.40807 0.12085 0.0
C1418 C 0.43028 0.41437 0.08955 0.0
H1419 H 0.38012 0.35967 0.03925 0.0
H1420 H 0.39852 0.36857 0.06045 0.0
H1421 H 0.42043 0.41532 0.0674 0.0
H1422 H 0.4525 0.44137 0.14108 0.0
H1423 H 0.43425 0.42816 0.12064 0.0
H1424 H 0.42084 0.3846 0.11169 0.0
C1425 C 0.39393 0.37489 0.05707 0.0
C1426 C 0.42028 0.40846 0.07703 0.0
C1427 C 0.38344 0.36982 0.04489 0.0
C1428 C 0.45194 0.43213 0.13552 0.0
C1429 C 0.44147 0.42455 0.12387 0.0
C1430 C 0.42084 0.39131 0.10197 0.0
C1431 C 0.39866 0.38813 0.06447 0.0
C1432 C 0.4101 0.39396 0.07704 0.0
C1433 C 0.44053 0.41269 0.11609 0.0
C1434 C 0.4305 0.40593 0.1023 0.0
H1435 H 0.3777 0.39751 0.04409 0.0
H1436 H 0.39558 0.4061 0.06539 0.0
H1437 H 0.40295 0.37417 0.08985 0.0
H1438 H 0.46792 0.41243 0.13535 0.0
H1439 H 0.44927 0.39894 0.11501 0.0
C1440 C 0.63491 0.68956 0.39221 0.0
C1441 C 0.6488 0.69618 0.38579 0.0
C1442 C 0.63136 0.69601 0.40475 0.0
C1443 C 0.62519 0.71654 0.42319 0.0
H1444 H 0.65118 0.73563 0.45927 0.0
C1445 C 0.62128 0.75651 0.46608 0.0
C1446 C 0.62416 0.7564 0.48293 0.0
C1447 C 0.62326 0.74796 0.45488 0.0
C1448 C 0.64373 0.73022 0.44937 0.0
H1449 H 0.66988 0.71464 0.38764 0.0
H1450 H 0.66368 0.72589 0.40948 0.0
H1451 H 0.65676 0.72287 0.43874 0.0
H1452 H 0.63084 0.74675 0.50129 0.0
H1453 H 0.63438 0.73189 0.48171 0.0
H1454 H 0.61217 0.72392 0.43382 0.0
C1455 C 0.65556 0.71567 0.40492 0.0
C1456 C 0.64701 0.72305 0.43752 0.0
C1457 C 0.6591 0.70927 0.39233 0.0
C1458 C 0.62875 0.74727 0.48836 0.0
C1459 C 0.63077 0.73875 0.47715 0.0
C1460 C 0.62195 0.72378 0.43501 0.0
C1461 C 0.64164 0.70916 0.41121 0.0
C1462 C 0.63783 0.71623 0.42422 0.0
C1463 C 0.62821 0.73913 0.46026 0.0
C1464 C 0.63123 0.73079 0.44817 0.0
H1465 H 0.62674 0.67946 0.38745 0.0
H1466 H 0.62058 0.69065 0.40946 0.0
H1467 H 0.61796 0.71149 0.41302 0.0
H1468 H 0.61795 0.76357 0.46143 0.0
H1469 H 0.62137 0.74864 0.44192 0.0
C1470 C 0.2914 0.94509 0.38731 0.0
C1471 C 0.28307 0.95108 0.38355 0.0
C1472 C 0.28718 0.93493 0.39975 0.0
C1473 C 0.26439 0.92104 0.43675 0.0
H1474 H 0.26364 0.88617 0.42677 0.0
C1475 C 0.2324 0.86046 0.46053 0.0
C1476 C 0.23382 0.86241 0.4777 0.0
C1477 C 0.24069 0.87164 0.44984 0.0
C1478 C 0.26385 0.89588 0.42976 0.0
H1479 H 0.26393 0.95128 0.39016 0.0
H1480 H 0.25666 0.93367 0.41185 0.0
H1481 H 0.2737 0.90542 0.40672 0.0
H1482 H 0.24532 0.87747 0.49714 0.0
H1483 H 0.25984 0.89709 0.47841 0.0
H1484 H 0.25417 0.91138 0.45956 0.0
C1485 C 0.26647 0.93685 0.40522 0.0
C1486 C 0.26971 0.90693 0.41834 0.0
C1487 C 0.27059 0.94688 0.3927 0.0
C1488 C 0.24406 0.87565 0.48396 0.0
C1489 C 0.25228 0.88689 0.47326 0.0
C1490 C 0.25865 0.91005 0.44821 0.0
C1491 C 0.27465 0.93068 0.40881 0.0
C1492 C 0.26977 0.91952 0.42158 0.0
C1493 C 0.25051 0.88505 0.45609 0.0
C1494 C 0.25807 0.89724 0.44471 0.0
H1495 H 0.30107 0.94808 0.38049 0.0
H1496 H 0.29373 0.93041 0.40231 0.0
H1497 H 0.26442 0.93068 0.43964 0.0
H1498 H 0.22467 0.85033 0.45536 0.0
H1499 H 0.23899 0.86991 0.43669 0.0
C1500 C 0.04692 0.34417 0.37936 0.0
C1501 C 0.0392 0.32984 0.3748 0.0
C1502 C 0.05683 0.34869 0.39214 0.0
C1503 C 0.07847 0.33741 0.41499 0.0
H1504 H 0.08369 0.3664 0.44636 0.0
C1505 C 0.11183 0.34774 0.47249 0.0
C1506 C 0.12258 0.36179 0.47527 0.0
C1507 C 0.10108 0.34458 0.46123 0.0
C1508 C 0.08237 0.35836 0.4376 0.0
H1509 H 0.03543 0.30896 0.38051 0.0
H1510 H 0.05235 0.31675 0.40294 0.0
H1511 H 0.06595 0.35933 0.42453 0.0
H1512 H 0.12998 0.38363 0.46923 0.0
H1513 H 0.11095 0.37806 0.44946 0.0
H1514 H 0.09469 0.33627 0.42811 0.0
C1515 C 0.0511 0.32459 0.39638 0.0
C1516 C 0.07227 0.35434 0.42509 0.0
C1517 C 0.04132 0.3201 0.38355 0.0
C1518 C 0.12182 0.37271 0.46733 0.0
C1519 C 0.11096 0.36953 0.45603 0.0
C1520 C 0.08842 0.34133 0.42752 0.0
C1521 C 0.05913 0.33896 0.40068 0.0
C1522 C 0.0701 0.34369 0.41374 0.0
C1523 C 0.10076 0.3554 0.45252 0.0
C1524 C 0.09039 0.35173 0.43905 0.0
H1525 H 0.04554 0.35195 0.37285 0.0
H1526 H 0.06291 0.35985 0.39504 0.0
H1527 H 0.07739 0.32947 0.40622 0.0
H1528 H 0.11195 0.33912 0.47873 0.0
H1529 H 0.09316 0.33361 0.45903 0.0
C1530 C 0.03854 0.32376 0.2823 0.0
C1531 C 0.0253 0.31476 0.28969 0.0
C1532 C 0.04358 0.31883 0.26961 0.0
C1533 C 0.04058 0.28628 0.25382 0.0
H1534 H 0.06151 0.30981 0.2165 0.0
C1535 C 0.08254 0.28047 0.21756 0.0
C1536 C 0.08378 0.28286 0.20047 0.0
C1537 C 0.07278 0.28226 0.22682 0.0
C1538 C 0.0555 0.30301 0.2267 0.0
H1539 H 0.0068 0.29364 0.28935 0.0
H1540 H 0.01567 0.28502 0.2672 0.0
H1541 H 0.04938 0.31754 0.23547 0.0
H1542 H 0.07544 0.28841 0.17954 0.0
H1543 H 0.05831 0.29156 0.19579 0.0
H1544 H 0.04698 0.27191 0.24525 0.0
C1545 C 0.02216 0.29586 0.27129 0.0
C1546 C 0.0487 0.30751 0.23765 0.0
C1547 C 0.01708 0.30081 0.28393 0.0
C1548 C 0.07464 0.28644 0.19269 0.0
C1549 C 0.06494 0.28835 0.20199 0.0
C1550 C 0.04745 0.28182 0.24292 0.0
C1551 C 0.03552 0.30478 0.2641 0.0
C1552 C 0.04142 0.29933 0.25151 0.0
C1553 C 0.06412 0.28655 0.2192 0.0
C1554 C 0.05523 0.29028 0.22944 0.0
H1555 H 0.04511 0.33456 0.28646 0.0
H1556 H 0.054 0.3259 0.26445 0.0
H1557 H 0.03512 0.27979 0.26444 0.0
H1558 H 0.0894 0.2776 0.22383 0.0
H1559 H 0.0725 0.28092 0.24006 0.0
C1560 C 0.67879 0.71406 0.29664 0.0
C1561 C 0.6643 0.70718 0.30092 0.0
C1562 C 0.6841 0.72382 0.28366 0.0
C1563 C 0.673 0.73454 0.24629 0.0
H1564 H 0.70542 0.77183 0.25438 0.0
C1565 C 0.68294 0.78276 0.20898 0.0
C1566 C 0.6969 0.79354 0.20545 0.0
C1567 C 0.68034 0.77141 0.21898 0.0
C1568 C 0.69653 0.76139 0.25176 0.0
H1569 H 0.64401 0.70494 0.29467 0.0
H1570 H 0.65323 0.72177 0.27209 0.0
H1571 H 0.69841 0.75328 0.275 0.0
H1572 H 0.71911 0.80064 0.20931 0.0
H1573 H 0.71456 0.78061 0.22672 0.0
H1574 H 0.67093 0.74262 0.22322 0.0
C1575 C 0.66049 0.71964 0.27871 0.0
C1576 C 0.69251 0.75078 0.2636 0.0
C1577 C 0.65523 0.71006 0.29175 0.0
C1578 C 0.70824 0.79247 0.21178 0.0
C1579 C 0.70563 0.78108 0.22186 0.0
C1580 C 0.67706 0.7451 0.23444 0.0
C1581 C 0.67498 0.7267 0.27457 0.0
C1582 C 0.68046 0.73736 0.26117 0.0
C1583 C 0.69163 0.77047 0.22569 0.0
C1584 C 0.68862 0.75877 0.23723 0.0
H1585 H 0.68606 0.71209 0.30348 0.0
H1586 H 0.69531 0.72908 0.2807 0.0
H1587 H 0.66382 0.72422 0.24395 0.0
H1588 H 0.67397 0.78315 0.2041 0.0
H1589 H 0.66943 0.76357 0.22182 0.0
C1590 C 0.27752 0.95313 0.2903 0.0
C1591 C 0.27913 0.96498 0.29887 0.0
C1592 C 0.26805 0.94741 0.27718 0.0
C1593 C 0.23547 0.94409 0.2611 0.0
H1594 H 0.24596 0.93222 0.22098 0.0
C1595 C 0.19539 0.91626 0.20828 0.0
C1596 C 0.19529 0.90448 0.20132 0.0
C1597 C 0.2064 0.92545 0.21874 0.0
C1598 C 0.24282 0.93539 0.23214 0.0
H1599 H 0.27214 0.98019 0.30037 0.0
H1600 H 0.25541 0.97004 0.27752 0.0
H1601 H 0.26372 0.94474 0.24223 0.0
H1602 H 0.20703 0.89353 0.19928 0.0
H1603 H 0.22587 0.90919 0.21783 0.0
H1604 H 0.21445 0.9343 0.25135 0.0
C1605 C 0.26152 0.96522 0.28097 0.0
C1606 C 0.25301 0.94258 0.24428 0.0
C1607 C 0.27112 0.97105 0.29399 0.0
C1608 C 0.20665 0.90236 0.20465 0.0
C1609 C 0.21758 0.91149 0.21512 0.0
C1610 C 0.22523 0.93678 0.24901 0.0
C1611 C 0.25988 0.95334 0.27245 0.0
C1612 C 0.24938 0.9468 0.25899 0.0
C1613 C 0.21753 0.92306 0.22245 0.0
C1614 C 0.22872 0.93211 0.23451 0.0
H1615 H 0.28356 0.94824 0.29375 0.0
H1616 H 0.26688 0.93815 0.27095 0.0
H1617 H 0.23235 0.94712 0.27238 0.0
H1618 H 0.18677 0.91816 0.20601 0.0
H1619 H 0.20612 0.93437 0.22402 0.0
C1620 C 0.68 0.96249 0.29751 0.0
C1621 C 0.66602 0.95331 0.303 0.0
C1622 C 0.68564 0.95868 0.28428 0.0
C1623 C 0.67544 0.93507 0.24822 0.0
H1624 H 0.71143 0.93692 0.25439 0.0
C1625 C 0.69815 0.91359 0.19933 0.0
C1626 C 0.70149 0.90384 0.20582 0.0
C1627 C 0.69595 0.92242 0.20986 0.0
C1628 C 0.70143 0.93646 0.25245 0.0
H1629 H 0.64694 0.93308 0.29866 0.0
H1630 H 0.65675 0.92652 0.27557 0.0
H1631 H 0.70287 0.94693 0.27533 0.0
H1632 H 0.70603 0.89624 0.2282 0.0
H1633 H 0.70227 0.91167 0.24657 0.0
H1634 H 0.67373 0.92416 0.22566 0.0
C1635 C 0.66333 0.93666 0.28147 0.0
C1636 C 0.69658 0.94226 0.26436 0.0
C1637 C 0.65775 0.94038 0.29479 0.0
C1638 C 0.70334 0.90359 0.22291 0.0
C1639 C 0.70131 0.9125 0.23339 0.0
C1640 C 0.68035 0.9294 0.23625 0.0
C1641 C 0.67734 0.94572 0.27614 0.0
C1642 C 0.68335 0.94128 0.26256 0.0
C1643 C 0.69727 0.92177 0.22703 0.0
C1644 C 0.69322 0.92971 0.23845 0.0
H1645 H 0.68665 0.97254 0.30358 0.0
H1646 H 0.69647 0.96588 0.28037 0.0
H1647 H 0.66527 0.9343 0.24646 0.0
H1648 H 0.69663 0.91394 0.1862 0.0
H1649 H 0.69292 0.92952 0.20463 0.0
C1650 C 0.02314 0.71171 0.28655 0.0
C1651 C 0.03143 0.70987 0.29829 0.0
C1652 C 0.02956 0.72058 0.273 0.0
C1653 C 0.06381 0.73924 0.24976 0.0
H1654 H 0.04948 0.76305 0.23486 0.0
C1655 C 0.09729 0.7909 0.21428 0.0
C1656 C 0.09193 0.79221 0.19909 0.0
C1657 C 0.0889 0.77977 0.22491 0.0
C1658 C 0.05345 0.75632 0.23879 0.0
H1659 H 0.05289 0.71596 0.30518 0.0
H1660 H 0.06411 0.73181 0.28204 0.0
H1661 H 0.03675 0.74559 0.25647 0.0
H1662 H 0.0733 0.78282 0.18343 0.0
H1663 H 0.05842 0.76365 0.20254 0.0
H1664 H 0.08094 0.75059 0.23267 0.0
C1665 C 0.05264 0.72609 0.28288 0.0
C1666 C 0.04617 0.74628 0.25111 0.0
C1667 C 0.04622 0.71708 0.29626 0.0
C1668 C 0.07777 0.78226 0.19506 0.0
C1669 C 0.06926 0.77124 0.20591 0.0
C1670 C 0.07119 0.74942 0.23768 0.0
C1671 C 0.0444 0.72794 0.27103 0.0
C1672 C 0.0514 0.73778 0.25696 0.0
C1673 C 0.07485 0.76985 0.22082 0.0
C1674 C 0.06619 0.75816 0.23229 0.0
H1675 H 0.01169 0.7062 0.28777 0.0
H1676 H 0.02286 0.72159 0.26403 0.0
H1677 H 0.06796 0.73264 0.25359 0.0
H1678 H 0.10797 0.79856 0.21812 0.0
H1679 H 0.09335 0.77902 0.23649 0.0
C1680 C 0.27966 0.31071 0.29582 0.0
C1681 C 0.28619 0.32509 0.30012 0.0
C1682 C 0.2697 0.30519 0.28304 0.0
C1683 C 0.25782 0.31604 0.24629 0.0
H1684 H 0.22097 0.28285 0.25453 0.0
C1685 C 0.20825 0.30575 0.21149 0.0
C1686 C 0.19807 0.2919 0.2069 0.0
C1687 C 0.21977 0.30835 0.22126 0.0
C1688 C 0.23128 0.29198 0.2519 0.0
H1689 H 0.28755 0.34494 0.2941 0.0
H1690 H 0.27039 0.33538 0.27197 0.0
H1691 H 0.24001 0.28994 0.27461 0.0
H1692 H 0.19209 0.26991 0.20877 0.0
H1693 H 0.21236 0.27449 0.22595 0.0
H1694 H 0.24908 0.31835 0.22385 0.0
C1695 C 0.27295 0.32836 0.27837 0.0
C1696 C 0.24218 0.29603 0.2634 0.0
C1697 C 0.28273 0.33382 0.29118 0.0
C1698 C 0.1998 0.2807 0.21209 0.0
C1699 C 0.21133 0.28331 0.222 0.0
C1700 C 0.24697 0.31199 0.23483 0.0
C1701 C 0.26627 0.31399 0.27417 0.0
C1702 C 0.25543 0.30836 0.26094 0.0
C1703 C 0.22143 0.29718 0.22671 0.0
C1704 C 0.23345 0.30017 0.23773 0.0
H1705 H 0.28208 0.3037 0.30249 0.0
H1706 H 0.26472 0.29407 0.28004 0.0
H1707 H 0.268 0.32543 0.2439 0.0
H1708 H 0.20732 0.31462 0.20752 0.0
H1709 H 0.22723 0.31915 0.22483 0.0
C1710 C 0.28421 0.33088 0.39023 0.0
C1711 C 0.29717 0.34146 0.38355 0.0
C1712 C 0.27748 0.33408 0.40278 0.0
C1713 C 0.2749 0.36348 0.42036 0.0
H1714 H 0.2568 0.33782 0.45701 0.0
C1715 C 0.24544 0.37494 0.47206 0.0
C1716 C 0.23224 0.36344 0.4769 0.0
C1717 C 0.25466 0.37284 0.46201 0.0
C1718 C 0.26172 0.34505 0.4468 0.0
H1719 H 0.3133 0.36367 0.38489 0.0
H1720 H 0.3015 0.36925 0.4068 0.0
H1721 H 0.2704 0.333 0.43678 0.0
H1722 H 0.21866 0.34067 0.47556 0.0
H1723 H 0.2345 0.33705 0.45778 0.0
H1724 H 0.26594 0.37535 0.43011 0.0
C1725 C 0.29653 0.3585 0.40226 0.0
C1726 C 0.26951 0.34229 0.43522 0.0
C1727 C 0.30331 0.35529 0.38977 0.0
C1728 C 0.22865 0.34978 0.47184 0.0
C1729 C 0.23783 0.34769 0.46182 0.0
C1730 C 0.26705 0.36622 0.4319 0.0
C1731 C 0.28352 0.34794 0.40886 0.0
C1732 C 0.27603 0.35137 0.42175 0.0
C1733 C 0.25089 0.35919 0.45663 0.0
C1734 C 0.26019 0.35692 0.44514 0.0
H1735 H 0.27921 0.32013 0.38571 0.0
H1736 H 0.26738 0.32575 0.40747 0.0
H1737 H 0.27968 0.3706 0.41002 0.0
H1738 H 0.2485 0.3856 0.47567 0.0
H1739 H 0.26471 0.38191 0.45839 0.0
C1740 C 0.66419 0.94924 0.39331 0.0
C1741 C 0.65332 0.95139 0.38778 0.0
C1742 C 0.66151 0.93935 0.40564 0.0
C1743 C 0.63232 0.90718 0.42448 0.0
H1744 H 0.65988 0.91466 0.45865 0.0
C1745 C 0.62123 0.86788 0.47745 0.0
C1746 C 0.63241 0.86574 0.48174 0.0
C1747 C 0.62358 0.87873 0.46667 0.0
C1748 C 0.65213 0.91237 0.4491 0.0
H1749 H 0.63119 0.94511 0.39109 0.0
H1750 H 0.62655 0.92793 0.4127 0.0
H1751 H 0.66442 0.93306 0.43875 0.0
H1752 H 0.65475 0.87317 0.47784 0.0
H1753 H 0.65882 0.89206 0.45903 0.0
H1754 H 0.6201 0.88644 0.43471 0.0
C1755 C 0.6371 0.93375 0.40736 0.0
C1756 C 0.65473 0.92291 0.43771 0.0
C1757 C 0.63978 0.94366 0.39505 0.0
C1758 C 0.64597 0.87469 0.47501 0.0
C1759 C 0.64831 0.88553 0.46424 0.0
C1760 C 0.62972 0.89663 0.43587 0.0
C1761 C 0.6479 0.93139 0.41269 0.0
C1762 C 0.6449 0.92041 0.42521 0.0
C1763 C 0.63714 0.88768 0.45993 0.0
C1764 C 0.63964 0.89907 0.44823 0.0
H1765 H 0.67473 0.95503 0.38794 0.0
H1766 H 0.67002 0.93768 0.40935 0.0
H1767 H 0.62463 0.90484 0.41485 0.0
H1768 H 0.61071 0.86127 0.4826 0.0
H1769 H 0.61479 0.88023 0.46375 0.0
C1770 C 0.0445 0.72359 0.39043 0.0
C1771 C 0.03986 0.71002 0.38409 0.0
C1772 C 0.05418 0.72896 0.40337 0.0
C1773 C 0.07023 0.7191 0.43684 0.0
H1774 H 0.101 0.75784 0.43204 0.0
C1775 C 0.12874 0.76064 0.46591 0.0
C1776 C 0.12565 0.75927 0.48288 0.0
C1777 C 0.11792 0.75377 0.45439 0.0
C1778 C 0.09254 0.74698 0.43352 0.0
H1779 H 0.0415 0.69129 0.38673 0.0
H1780 H 0.05858 0.70076 0.40923 0.0
H1781 H 0.08259 0.7475 0.4112 0.0
H1782 H 0.1088 0.74919 0.50108 0.0
H1783 H 0.0898 0.73726 0.48086 0.0
H1784 H 0.08042 0.7186 0.4591 0.0
C1785 C 0.05459 0.70718 0.40426 0.0
C1786 C 0.08188 0.7411 0.42167 0.0
C1787 C 0.04486 0.70179 0.3913 0.0
C1788 C 0.1115 0.75054 0.48808 0.0
C1789 C 0.10065 0.74362 0.47652 0.0
C1790 C 0.08091 0.72502 0.44876 0.0
C1791 C 0.05951 0.72091 0.41027 0.0
C1792 C 0.07062 0.7271 0.42316 0.0
C1793 C 0.10374 0.74537 0.45954 0.0
C1794 C 0.09222 0.739 0.44715 0.0
H1795 H 0.04076 0.73017 0.3853 0.0
H1796 H 0.05757 0.73947 0.40793 0.0
H1797 H 0.06163 0.70831 0.43838 0.0
H1798 H 0.13949 0.76741 0.46146 0.0
H1799 H 0.12066 0.75517 0.4414 0.0
C1800 C 0.30697 0.03085 0.71972 0.0
C1801 C 0.32076 0.03707 0.71307 0.0
C1802 C 0.30367 0.03793 0.73172 0.0
C1803 C 0.31615 0.07375 0.74811 0.0
H1804 H 0.29252 0.05394 0.7859 0.0
C1805 C 0.31114 0.10337 0.80386 0.0
C1806 C 0.2976 0.09822 0.81084 0.0
C1807 C 0.31345 0.09554 0.79196 0.0
C1808 C 0.299 0.05958 0.77532 0.0
H1809 H 0.34195 0.05548 0.71401 0.0
H1810 H 0.33625 0.06773 0.73503 0.0
H1811 H 0.29754 0.04089 0.76511 0.0
H1812 H 0.27588 0.0807 0.81092 0.0
H1813 H 0.27989 0.06703 0.78994 0.0
H1814 H 0.31769 0.09243 0.7583 0.0
C1815 C 0.32792 0.05749 0.73079 0.0
C1816 C 0.30188 0.05211 0.76341 0.0
C1817 C 0.33121 0.05043 0.71881 0.0
C1818 C 0.28641 0.08499 0.8057 0.0
C1819 C 0.28874 0.07711 0.7938 0.0
C1820 C 0.3133 0.0812 0.76 0.0
C1821 C 0.31409 0.05138 0.73731 0.0
C1822 C 0.3106 0.05914 0.74974 0.0
C1823 C 0.30227 0.08236 0.78672 0.0
C1824 C 0.3048 0.07424 0.77382 0.0
H1825 H 0.29868 0.02057 0.71553 0.0
H1826 H 0.2929 0.03298 0.73638 0.0
H1827 H 0.32266 0.07943 0.73756 0.0
H1828 H 0.31995 0.1136 0.80739 0.0
H1829 H 0.32404 0.0998 0.78691 0.0
C1830 C 0.96565 0.27814 0.71792 0.0
C1831 C 0.95615 0.27543 0.70494 0.0
C1832 C 0.96223 0.26806 0.73031 0.0
C1833 C 0.94062 0.23059 0.74023 0.0
H1834 H 0.93585 0.24223 0.78383 0.0
C1835 C 0.90454 0.19019 0.7888 0.0
C1836 C 0.90726 0.19333 0.80564 0.0
C1837 C 0.91287 0.20017 0.77688 0.0
C1838 C 0.93743 0.2388 0.77189 0.0
H1839 H 0.93608 0.25987 0.69422 0.0
H1840 H 0.93038 0.24212 0.71551 0.0
H1841 H 0.94688 0.25974 0.76202 0.0
H1842 H 0.92114 0.2091 0.82326 0.0
H1843 H 0.93613 0.22639 0.80246 0.0
H1844 H 0.93132 0.2097 0.74992 0.0
C1845 C 0.94033 0.25207 0.71623 0.0
C1846 C 0.94372 0.24887 0.75937 0.0
C1847 C 0.94356 0.26224 0.70412 0.0
C1848 C 0.91876 0.20648 0.81034 0.0
C1849 C 0.92728 0.2164 0.79839 0.0
C1850 C 0.9346 0.22056 0.7528 0.0
C1851 C 0.94947 0.255 0.72962 0.0
C1852 C 0.945 0.24478 0.74335 0.0
C1853 C 0.92432 0.21347 0.78148 0.0
C1854 C 0.9325 0.22443 0.76869 0.0
H1855 H 0.97538 0.28826 0.71888 0.0
H1856 H 0.96942 0.27053 0.74056 0.0
H1857 H 0.94161 0.22722 0.72796 0.0
H1858 H 0.8956 0.1802 0.78485 0.0
H1859 H 0.90998 0.19757 0.76407 0.0
C1860 C 0.71615 0.68493 0.72057 0.0
C1861 C 0.71777 0.67805 0.70683 0.0
C1862 C 0.72683 0.69107 0.73248 0.0
C1863 C 0.75804 0.68921 0.74697 0.0
H1864 H 0.76516 0.72145 0.77377 0.0
C1865 C 0.8049 0.71548 0.79132 0.0
C1866 C 0.8008 0.71501 0.80787 0.0
C1867 C 0.79536 0.71305 0.77865 0.0
C1868 C 0.76324 0.71245 0.76633 0.0
H1869 H 0.7321 0.67305 0.69407 0.0
H1870 H 0.751 0.68442 0.71415 0.0
H1871 H 0.74756 0.7134 0.75169 0.0
H1872 H 0.78388 0.71249 0.82415 0.0
H1873 H 0.76722 0.7085 0.80182 0.0
H1874 H 0.77396 0.68851 0.76134 0.0
C1875 C 0.74128 0.68451 0.71634 0.0
C1876 C 0.75311 0.70776 0.75375 0.0
C1877 C 0.7305 0.67808 0.70472 0.0
C1878 C 0.78726 0.71287 0.81148 0.0
C1879 C 0.77779 0.71066 0.79875 0.0
C1880 C 0.7683 0.69406 0.75925 0.0
C1881 C 0.73945 0.6907 0.73066 0.0
C1882 C 0.75037 0.69605 0.7439 0.0
C1883 C 0.78164 0.71033 0.78228 0.0
C1884 C 0.77098 0.70569 0.76904 0.0
H1885 H 0.70638 0.685 0.72247 0.0
H1886 H 0.72494 0.69562 0.74337 0.0
H1887 H 0.75597 0.6799 0.74009 0.0
H1888 H 0.81521 0.71697 0.78819 0.0
H1889 H 0.79855 0.71285 0.76601 0.0
C1890 C 0.71159 0.66703 0.62074 0.0
C1891 C 0.69875 0.65643 0.62761 0.0
C1892 C 0.71827 0.66381 0.60817 0.0
C1893 C 0.71233 0.63729 0.57634 0.0
H1894 H 0.75287 0.6527 0.58047 0.0
C1895 C 0.74358 0.61864 0.53601 0.0
C1896 C 0.75713 0.62905 0.53052 0.0
C1897 C 0.73603 0.62202 0.54729 0.0
C1898 C 0.74158 0.64846 0.57901 0.0
H1899 H 0.68263 0.6342 0.62642 0.0
H1900 H 0.69434 0.62857 0.6045 0.0
H1901 H 0.7404 0.6587 0.60092 0.0
H1902 H 0.77339 0.65118 0.53262 0.0
H1903 H 0.76011 0.65713 0.55189 0.0
H1904 H 0.71354 0.62702 0.5544 0.0
C1905 C 0.6992 0.63939 0.60877 0.0
C1906 C 0.73444 0.6519 0.59073 0.0
C1907 C 0.69253 0.64261 0.62138 0.0
C1908 C 0.7629 0.64294 0.53642 0.0
C1909 C 0.75536 0.64631 0.54765 0.0
C1910 C 0.71949 0.63387 0.56457 0.0
C1911 C 0.71223 0.64992 0.60219 0.0
C1912 C 0.71975 0.64637 0.58953 0.0
C1913 C 0.7419 0.63588 0.55332 0.0
C1914 C 0.7342 0.63943 0.56577 0.0
H1915 H 0.71661 0.6778 0.62523 0.0
H1916 H 0.7282 0.67219 0.60317 0.0
H1917 H 0.70102 0.63298 0.57502 0.0
H1918 H 0.73879 0.60787 0.53158 0.0
H1919 H 0.72573 0.61371 0.55152 0.0
C1920 C 0.33017 0.05053 0.61981 0.0
C1921 C 0.33828 0.04651 0.62917 0.0
C1922 C 0.33641 0.06032 0.60706 0.0
C1923 C 0.37027 0.09028 0.59396 0.0
H1924 H 0.3501 0.08598 0.55322 0.0
C1925 C 0.37785 0.13692 0.55457 0.0
C1926 C 0.3768 0.13546 0.53734 0.0
C1927 C 0.37579 0.12569 0.56448 0.0
C1928 C 0.35601 0.08727 0.56439 0.0
H1929 H 0.35929 0.04949 0.6323 0.0
H1930 H 0.37025 0.0668 0.61006 0.0
H1931 H 0.341 0.06637 0.57263 0.0
H1932 H 0.3734 0.12134 0.5169 0.0
H1933 H 0.36978 0.10162 0.53427 0.0
H1934 H 0.38505 0.11134 0.58592 0.0
C1935 C 0.35904 0.06231 0.61264 0.0
C1936 C 0.35071 0.07609 0.57558 0.0
C1937 C 0.35276 0.05236 0.62531 0.0
C1938 C 0.37433 0.12277 0.53015 0.0
C1939 C 0.37215 0.11146 0.54009 0.0
C1940 C 0.37551 0.10152 0.58281 0.0
C1941 C 0.35094 0.06643 0.60344 0.0
C1942 C 0.35759 0.07759 0.59065 0.0
C1943 C 0.37254 0.11271 0.55738 0.0
C1944 C 0.36826 0.10024 0.56808 0.0
H1945 H 0.31899 0.04621 0.6224 0.0
H1946 H 0.32992 0.06342 0.60035 0.0
H1947 H 0.37577 0.09177 0.6055 0.0
H1948 H 0.37986 0.14664 0.56042 0.0
H1949 H 0.37605 0.12697 0.57775 0.0
C1950 C 0.94908 0.28445 0.61588 0.0
C1951 C 0.94976 0.29553 0.62529 0.0
C1952 C 0.93946 0.27852 0.6029 0.0
C1953 C 0.9055 0.27346 0.58854 0.0
H1954 H 0.91595 0.2632 0.54721 0.0
C1955 C 0.86516 0.24714 0.53579 0.0
C1956 C 0.86501 0.23557 0.52817 0.0
C1957 C 0.87626 0.25605 0.5463 0.0
C1958 C 0.91284 0.26592 0.55872 0.0
H1959 H 0.94105 0.30925 0.62829 0.0
H1960 H 0.92424 0.29887 0.60566 0.0
H1961 H 0.93394 0.27559 0.56831 0.0
H1962 H 0.87674 0.22471 0.52494 0.0
H1963 H 0.89582 0.23995 0.54353 0.0
H1964 H 0.88435 0.26347 0.57921 0.0
C1965 C 0.93108 0.29471 0.6084 0.0
C1966 C 0.92315 0.27302 0.57079 0.0
C1967 C 0.94075 0.30069 0.62131 0.0
C1968 C 0.87642 0.23339 0.53084 0.0
C1969 C 0.88748 0.24226 0.54134 0.0
C1970 C 0.89518 0.2663 0.57651 0.0
C1971 C 0.93027 0.28351 0.59912 0.0
C1972 C 0.91955 0.27672 0.5859 0.0
C1973 C 0.88745 0.25359 0.54938 0.0
C1974 C 0.89868 0.26228 0.56154 0.0
H1975 H 0.95589 0.28027 0.61864 0.0
H1976 H 0.93897 0.2698 0.59608 0.0
H1977 H 0.90237 0.27602 0.60014 0.0
H1978 H 0.8565 0.24907 0.53402 0.0
H1979 H 0.87601 0.2648 0.55214 0.0
C1980 C 0.34068 0.29382 0.62937 0.0
C1981 C 0.32659 0.28547 0.63495 0.0
C1982 C 0.34603 0.28881 0.61702 0.0
C1983 C 0.33884 0.25512 0.5982 0.0
H1984 H 0.36298 0.27832 0.56234 0.0
C1985 C 0.34732 0.23009 0.54119 0.0
C1986 C 0.36142 0.23491 0.53646 0.0
C1987 C 0.34417 0.23769 0.55249 0.0
C1988 C 0.35635 0.27179 0.57239 0.0
H1989 H 0.30691 0.26558 0.63141 0.0
H1990 H 0.31608 0.25704 0.60984 0.0
H1991 H 0.35539 0.28893 0.58381 0.0
H1992 H 0.38322 0.25196 0.53905 0.0
H1993 H 0.37762 0.26544 0.55883 0.0
H1994 H 0.3395 0.23796 0.58671 0.0
C1995 C 0.32317 0.26728 0.61526 0.0
C1996 C 0.35204 0.27784 0.58468 0.0
C1997 C 0.31788 0.27222 0.6276 0.0
C1998 C 0.37225 0.248 0.54248 0.0
C1999 C 0.36906 0.25569 0.55379 0.0
C2000 C 0.34304 0.2491 0.58593 0.0
C2001 C 0.33737 0.27537 0.61001 0.0
C2002 C 0.34299 0.26948 0.59755 0.0
C2003 C 0.35503 0.25035 0.55926 0.0
C2004 C 0.3516 0.25728 0.57273 0.0
H2005 H 0.34766 0.30409 0.63477 0.0
H2006 H 0.35703 0.29528 0.61327 0.0
H2007 H 0.33223 0.24846 0.60818 0.0
H2008 H 0.3387 0.22023 0.53645 0.0
H2009 H 0.33322 0.2335 0.55622 0.0
C2010 C 0.68924 0.04793 0.61502 0.0
C2011 C 0.69574 0.04047 0.62035 0.0
C2012 C 0.69478 0.05714 0.60164 0.0
C2013 C 0.7191 0.06719 0.56579 0.0
H2014 H 0.7247 0.1045 0.57356 0.0
C2015 C 0.75838 0.12712 0.54227 0.0
C2016 C 0.75724 0.12551 0.52507 0.0
C2017 C 0.74902 0.11616 0.55258 0.0
C2018 C 0.72315 0.09411 0.57119 0.0
H2019 H 0.7128 0.03635 0.61543 0.0
H2020 H 0.72255 0.05252 0.59211 0.0
H2021 H 0.71163 0.08584 0.59371 0.0
H2022 H 0.74534 0.1113 0.5051 0.0
H2023 H 0.72891 0.09197 0.52324 0.0
H2024 H 0.73108 0.07567 0.5435 0.0
C2025 C 0.7131 0.05118 0.59822 0.0
C2026 C 0.71556 0.08339 0.58264 0.0
C2027 C 0.70758 0.042 0.61165 0.0
C2028 C 0.7464 0.1128 0.51834 0.0
C2029 C 0.73709 0.10174 0.52868 0.0
C2030 C 0.72663 0.07791 0.55426 0.0
C2031 C 0.70691 0.05904 0.59327 0.0
C2032 C 0.71369 0.0699 0.58022 0.0
C2033 C 0.73835 0.10333 0.54591 0.0
C2034 C 0.72899 0.09155 0.55704 0.0
H2035 H 0.68003 0.04691 0.62141 0.0
H2036 H 0.68969 0.06294 0.59798 0.0
H2037 H 0.7177 0.05685 0.56354 0.0
H2038 H 0.76656 0.13687 0.54777 0.0
H2039 H 0.75034 0.11763 0.5658 0.0
C2040 C 0.93698 0.64117 0.62648 0.0
C2041 C 0.94142 0.65468 0.63293 0.0
C2042 C 0.92607 0.63507 0.61479 0.0
C2043 C 0.89557 0.6374 0.59977 0.0
H2044 H 0.89837 0.61872 0.56048 0.0
C2045 C 0.86882 0.62189 0.53166 0.0
C2046 C 0.85453 0.61671 0.53595 0.0
C2047 C 0.87885 0.62431 0.54377 0.0
C2048 C 0.89744 0.62391 0.5714 0.0
H2049 H 0.93802 0.67246 0.63183 0.0
H2050 H 0.91924 0.66193 0.61157 0.0
H2051 H 0.91725 0.62763 0.58107 0.0
H2052 H 0.83952 0.6095 0.55633 0.0
H2053 H 0.85692 0.6134 0.57736 0.0
H2054 H 0.87609 0.63419 0.58998 0.0
C2055 C 0.92399 0.65592 0.61569 0.0
C2056 C 0.90819 0.62889 0.58326 0.0
C2057 C 0.93485 0.662 0.62726 0.0
C2058 C 0.85041 0.61341 0.55255 0.0
C2059 C 0.86042 0.61581 0.56465 0.0
C2060 C 0.88485 0.63241 0.58799 0.0
C2061 C 0.91935 0.64234 0.60943 0.0
C2062 C 0.90748 0.63593 0.59743 0.0
C2063 C 0.87482 0.62159 0.56046 0.0
C2064 C 0.88573 0.62578 0.57354 0.0
H2065 H 0.94182 0.63524 0.63056 0.0
H2066 H 0.9227 0.62457 0.61022 0.0
H2067 H 0.89461 0.6426 0.61067 0.0
H2068 H 0.87233 0.62435 0.51895 0.0
H2069 H 0.88986 0.62885 0.5401 0.0
C2070 C 0.94728 0.66306 0.72604 0.0
C2071 C 0.95686 0.67323 0.71492 0.0
C2072 C 0.94074 0.66674 0.73832 0.0
C2073 C 0.94216 0.69792 0.7592 0.0
H2074 H 0.90381 0.66979 0.77218 0.0
C2075 C 0.90197 0.70812 0.79572 0.0
C2076 C 0.89662 0.70011 0.81027 0.0
C2077 C 0.9103 0.70555 0.7847 0.0
C2078 C 0.91455 0.67771 0.76869 0.0
H2079 H 0.96711 0.69523 0.70782 0.0
H2080 H 0.95517 0.70157 0.72865 0.0
H2081 H 0.91617 0.66389 0.75147 0.0
H2082 H 0.89651 0.68352 0.82483 0.0
H2083 H 0.91037 0.67862 0.80511 0.0
H2084 H 0.94002 0.7119 0.776 0.0
C2085 C 0.95304 0.69083 0.72838 0.0
C2086 C 0.92172 0.67432 0.75692 0.0
C2087 C 0.95984 0.6872 0.71634 0.0
C2088 C 0.90007 0.68966 0.8136 0.0
C2089 C 0.90812 0.68691 0.8024 0.0
C2090 C 0.93483 0.70139 0.77071 0.0
C2091 C 0.94332 0.68063 0.73952 0.0
C2092 C 0.93568 0.68434 0.75207 0.0
C2093 C 0.91321 0.69477 0.78784 0.0
C2094 C 0.92101 0.69127 0.77561 0.0
H2095 H 0.94491 0.65223 0.72531 0.0
H2096 H 0.93366 0.65864 0.74688 0.0
H2097 H 0.95296 0.70587 0.75607 0.0
H2098 H 0.89941 0.71609 0.79254 0.0
H2099 H 0.91407 0.71167 0.77345 0.0
C2100 C 0.29878 0.27725 0.72581 0.0
C2101 C 0.31249 0.28464 0.71893 0.0
C2102 C 0.29558 0.26742 0.73838 0.0
C2103 C 0.28991 0.24078 0.75638 0.0
H2104 H 0.31705 0.24803 0.791 0.0
C2105 C 0.28751 0.19673 0.79702 0.0
C2106 C 0.29116 0.19974 0.81374 0.0
C2107 C 0.28903 0.20733 0.78632 0.0
C2108 C 0.30927 0.24589 0.78153 0.0
H2109 H 0.33367 0.28769 0.72002 0.0
H2110 H 0.32806 0.27049 0.74185 0.0
H2111 H 0.3219 0.2665 0.7711 0.0
H2112 H 0.29867 0.21609 0.83248 0.0
H2113 H 0.30133 0.23459 0.81379 0.0
H2114 H 0.27727 0.22017 0.76684 0.0
C2115 C 0.31981 0.27238 0.73766 0.0
C2116 C 0.31213 0.25642 0.77002 0.0
C2117 C 0.323 0.28218 0.72508 0.0
C2118 C 0.296 0.21349 0.81961 0.0
C2119 C 0.29752 0.22409 0.80891 0.0
C2120 C 0.28706 0.23023 0.76788 0.0
C2121 C 0.30604 0.26481 0.74437 0.0
C2122 C 0.30256 0.25393 0.75721 0.0
C2123 C 0.29422 0.22117 0.7921 0.0
C2124 C 0.29678 0.23262 0.78048 0.0
H2125 H 0.29046 0.27894 0.72135 0.0
H2126 H 0.28491 0.26186 0.74343 0.0
H2127 H 0.28237 0.23849 0.74657 0.0
H2128 H 0.28393 0.1863 0.79207 0.0
H2129 H 0.28658 0.20478 0.7734 0.0
C2130 C 0.71702 0.0332 0.71488 0.0
C2131 C 0.71875 0.04232 0.70186 0.0
C2132 C 0.7273 0.03756 0.7272 0.0
C2133 C 0.76451 0.0612 0.73644 0.0
H2134 H 0.75246 0.06378 0.78075 0.0
C2135 C 0.80475 0.09543 0.78614 0.0
C2136 C 0.80157 0.09176 0.8028 0.0
C2137 C 0.79478 0.08775 0.77396 0.0
C2138 C 0.75603 0.06285 0.76858 0.0
H2139 H 0.7328 0.06288 0.6911 0.0
H2140 H 0.75098 0.07028 0.71234 0.0
H2141 H 0.73488 0.05284 0.759 0.0
H2142 H 0.78575 0.07697 0.81987 0.0
H2143 H 0.76851 0.06306 0.79858 0.0
H2144 H 0.78559 0.07091 0.74587 0.0
C2145 C 0.74159 0.05987 0.71311 0.0
C2146 C 0.74593 0.05664 0.75611 0.0
C2147 C 0.73117 0.05566 0.70103 0.0
C2148 C 0.78839 0.08004 0.80708 0.0
C2149 C 0.77849 0.07216 0.79486 0.0
C2150 C 0.7746 0.06714 0.74896 0.0
C2151 C 0.73963 0.05095 0.72643 0.0
C2152 C 0.75013 0.05604 0.73989 0.0
C2153 C 0.78146 0.07604 0.77813 0.0
C2154 C 0.77056 0.06837 0.76514 0.0
H2155 H 0.70751 0.02289 0.71586 0.0
H2156 H 0.7256 0.03053 0.73739 0.0
H2157 H 0.76795 0.06074 0.72401 0.0
H2158 H 0.81479 0.10456 0.78257 0.0
H2159 H 0.79741 0.09133 0.76133 0.0
C2160 C 0.02683 0.32463 0.0442 0.0
C2161 C 0.03072 0.33223 0.02933 0.0
C2162 C 0.03628 0.32182 0.05234 0.0
C2163 C 0.06599 0.3165 0.04754 0.0
H2164 H 0.07244 0.32677 0.09382 0.0
C2165 C 0.10363 0.30645 0.08789 0.0
C2166 C 0.09959 0.30261 0.10441 0.0
C2167 C 0.09613 0.31075 0.07793 0.0
C2168 C 0.07063 0.32364 0.08098 0.0
H2169 H 0.04749 0.34254 0.0111 0.0
H2170 H 0.06404 0.33725 0.02529 0.0
H2171 H 0.05779 0.33296 0.07761 0.0
H2172 H 0.08424 0.29973 0.12327 0.0
H2173 H 0.07089 0.30674 0.10588 0.0
H2174 H 0.07831 0.30663 0.05102 0.0
C2175 C 0.05364 0.33364 0.03062 0.0
C2176 C 0.06233 0.32731 0.07167 0.0
C2177 C 0.04422 0.33668 0.02255 0.0
C2178 C 0.08773 0.30284 0.11066 0.0
C2179 C 0.08013 0.30696 0.10068 0.0
C2180 C 0.07416 0.31263 0.05692 0.0
C2181 C 0.0498 0.32636 0.04572 0.0
C2182 C 0.05976 0.32361 0.05494 0.0
C2183 C 0.08433 0.31115 0.08423 0.0
C2184 C 0.07639 0.31595 0.07385 0.0
H2185 H 0.01653 0.32104 0.0498 0.0
H2186 H 0.03301 0.31607 0.06388 0.0
H2187 H 0.06407 0.31346 0.03467 0.0
H2188 H 0.11282 0.30648 0.0828 0.0
H2189 H 0.09979 0.31404 0.06541 0.0
C2190 C 0.64265 0.70328 0.02513 0.0
C2191 C 0.64717 0.69353 0.02709 0.0
C2192 C 0.6493 0.71608 0.03369 0.0
C2193 C 0.68129 0.73948 0.05924 0.0
H2194 H 0.65792 0.75478 0.07345 0.0
C2195 C 0.69392 0.78124 0.11117 0.0
C2196 C 0.69378 0.79328 0.10583 0.0
C2197 C 0.68961 0.76972 0.10057 0.0
C2198 C 0.66455 0.75063 0.06945 0.0
H2199 H 0.66214 0.68944 0.03955 0.0
H2200 H 0.67324 0.71138 0.05521 0.0
H2201 H 0.6474 0.73318 0.05717 0.0
H2202 H 0.68918 0.80289 0.0854 0.0
H2203 H 0.68117 0.78247 0.06701 0.0
H2204 H 0.69822 0.75671 0.0725 0.0
C2205 C 0.66494 0.70949 0.04661 0.0
C2206 C 0.65859 0.73832 0.06 0.0
C2207 C 0.65851 0.69684 0.03772 0.0
C2208 C 0.68948 0.79374 0.08969 0.0
C2209 C 0.68487 0.7821 0.07924 0.0
C2210 C 0.68715 0.75164 0.06904 0.0
C2211 C 0.66039 0.71928 0.04478 0.0
C2212 C 0.66688 0.73256 0.05469 0.0
C2213 C 0.6848 0.76999 0.08467 0.0
C2214 C 0.67882 0.75731 0.07413 0.0
H2215 H 0.63404 0.70106 0.01685 0.0
H2216 H 0.64571 0.72346 0.03156 0.0
H2217 H 0.68811 0.73558 0.05518 0.0
H2218 H 0.69719 0.7807 0.12358 0.0
H2219 H 0.68954 0.76041 0.10498 0.0
C2220 C 0.28429 0.94429 0.01948 0.0
C2221 C 0.29531 0.95815 0.0227 0.0
C2222 C 0.27153 0.93853 0.02831 0.0
C2223 C 0.25741 0.93997 0.06795 0.0
H2224 H 0.22079 0.92365 0.04663 0.0
C2225 C 0.20653 0.91716 0.1068 0.0
C2226 C 0.19475 0.90467 0.10111 0.0
C2227 C 0.21822 0.92497 0.09647 0.0
C2228 C 0.2309 0.928 0.0528 0.0
H2229 H 0.30164 0.97682 0.03767 0.0
H2230 H 0.27948 0.96655 0.0534 0.0
H2231 H 0.24244 0.93423 0.0299 0.0
H2232 H 0.18565 0.89056 0.08028 0.0
H2233 H 0.20626 0.90377 0.06241 0.0
H2234 H 0.24613 0.93323 0.09075 0.0
C2235 C 0.28069 0.96027 0.04391 0.0
C2236 C 0.24327 0.9341 0.0432 0.0
C2237 C 0.29332 0.96613 0.03489 0.0
C2238 C 0.19461 0.90028 0.08482 0.0
C2239 C 0.20642 0.90791 0.07459 0.0
C2240 C 0.24508 0.93364 0.07753 0.0
C2241 C 0.26971 0.94644 0.0407 0.0
C2242 C 0.2566 0.94012 0.05072 0.0
C2243 C 0.2185 0.92023 0.08038 0.0
C2244 C 0.23163 0.92755 0.07011 0.0
H2245 H 0.28551 0.93794 0.0101 0.0
H2246 H 0.26319 0.9278 0.02572 0.0
H2247 H 0.26761 0.94445 0.07399 0.0
H2248 H 0.20678 0.92074 0.11934 0.0
H2249 H 0.22714 0.93459 0.10125 0.0
C2250 C 0.31334 0.02276 0.98417 0.0
C2251 C 0.32754 0.02729 0.98786 0.0
C2252 C 0.30971 0.03203 0.97717 0.0
C2253 C 0.32333 0.0698 0.96718 0.0
H2254 H 0.29606 0.05352 0.93165 0.0
C2255 C 0.3165 0.10316 0.91747 0.0
C2256 C 0.30254 0.09937 0.91331 0.0
C2257 C 0.31904 0.0946 0.92781 0.0
C2258 C 0.30355 0.05818 0.94167 0.0
H2259 H 0.34901 0.0452 0.98782 0.0
H2260 H 0.34277 0.06136 0.97511 0.0
H2261 H 0.30144 0.03842 0.94803 0.0
H2262 H 0.28032 0.08359 0.91687 0.0
H2263 H 0.28481 0.06846 0.93463 0.0
H2264 H 0.32572 0.08968 0.96031 0.0
C2265 C 0.33437 0.05071 0.9779 0.0
C2266 C 0.30662 0.04953 0.95112 0.0
C2267 C 0.33798 0.04146 0.98514 0.0
C2268 C 0.2912 0.08672 0.91961 0.0
C2269 C 0.29376 0.07809 0.92984 0.0
C2270 C 0.32035 0.07848 0.9576 0.0
C2271 C 0.32024 0.04599 0.97344 0.0
C2272 C 0.31658 0.05522 0.96397 0.0
C2273 C 0.3077 0.08198 0.93409 0.0
C2274 C 0.31048 0.07276 0.9447 0.0
H2275 H 0.30504 0.01193 0.98634 0.0
H2276 H 0.29868 0.02813 0.97434 0.0
H2277 H 0.33091 0.07451 0.97711 0.0
H2278 H 0.3255 0.11268 0.9126 0.0
H2279 H 0.32991 0.09773 0.93065 0.0
C2280 C 0.94702 0.28917 0.9925 0.0
C2281 C 0.96134 0.29908 0.98927 0.0
C2282 C 0.94005 0.2765 0.98368 0.0
C2283 C 0.94605 0.25327 0.95511 0.0
H2284 H 0.90692 0.23986 0.94348 0.0
C2285 C 0.91402 0.2105 0.9052 0.0
C2286 C 0.9001 0.20013 0.9097 0.0
C2287 C 0.92217 0.22201 0.9156 0.0
C2288 C 0.91781 0.24342 0.94675 0.0
H2289 H 0.97967 0.30338 0.97445 0.0
H2290 H 0.96742 0.28153 0.95864 0.0
H2291 H 0.91977 0.26099 0.96028 0.0
H2292 H 0.88423 0.19333 0.92916 0.0
H2293 H 0.89829 0.21357 0.94698 0.0
H2294 H 0.94405 0.23581 0.94095 0.0
C2295 C 0.96161 0.28333 0.96827 0.0
C2296 C 0.92518 0.2555 0.95647 0.0
C2297 C 0.96864 0.29591 0.97728 0.0
C2298 C 0.89475 0.2013 0.92508 0.0
C2299 C 0.90281 0.21285 0.93534 0.0
C2300 C 0.9387 0.24127 0.94516 0.0
C2301 C 0.94717 0.27354 0.9712 0.0
C2302 C 0.93938 0.26056 0.96089 0.0
C2303 C 0.9165 0.22343 0.9306 0.0
C2304 C 0.92448 0.23619 0.94098 0.0
H2305 H 0.94114 0.29123 0.0018 0.0
H2306 H 0.92904 0.26908 0.98661 0.0
H2307 H 0.95691 0.25674 0.95841 0.0
H2308 H 0.91845 0.20999 0.89341 0.0
H2309 H 0.93269 0.23008 0.91164 0.0
C2310 C 0.6896 0.67729 0.96599 0.0
C2311 C 0.68482 0.6671 0.97856 0.0
C2312 C 0.70262 0.68184 0.95819 0.0
C2313 C 0.73727 0.6849 0.96297 0.0
H2314 H 0.73811 0.68567 0.91516 0.0
C2315 C 0.78559 0.69255 0.92521 0.0
C2316 C 0.78876 0.69982 0.91013 0.0
C2317 C 0.77341 0.68951 0.93414 0.0
C2318 C 0.73816 0.68578 0.92851 0.0
H2319 H 0.69007 0.6539 0.99303 0.0
H2320 H 0.71301 0.66202 0.97943 0.0
H2321 H 0.71593 0.67842 0.92972 0.0
H2322 H 0.78176 0.71002 0.89291 0.0
H2323 H 0.76081 0.70522 0.90881 0.0
H2324 H 0.75953 0.69244 0.96182 0.0
C2325 C 0.7066 0.66643 0.97566 0.0
C2326 C 0.72541 0.68155 0.93685 0.0
C2327 C 0.69347 0.66174 0.98337 0.0
C2328 C 0.77971 0.70447 0.90452 0.0
C2329 C 0.76757 0.70153 0.91353 0.0
C2330 C 0.75008 0.68928 0.95464 0.0
C2331 C 0.71122 0.67643 0.96287 0.0
C2332 C 0.72483 0.68101 0.95415 0.0
C2333 C 0.76413 0.69379 0.92831 0.0
C2334 C 0.75067 0.68972 0.93729 0.0
H2335 H 0.6832 0.68164 0.962 0.0
H2336 H 0.70599 0.68967 0.9485 0.0
H2337 H 0.73714 0.68473 0.97633 0.0
H2338 H 0.79246 0.68904 0.93008 0.0
H2339 H 0.77108 0.68343 0.94538 0.0
C2340 C 0.95709 0.66658 0.9854 0.0
C2341 C 0.95082 0.65232 0.98994 0.0
C2342 C 0.94953 0.67122 0.97619 0.0
C2343 C 0.9131 0.66085 0.9627 0.0
H2344 H 0.93327 0.68827 0.92813 0.0
C2345 C 0.88458 0.67279 0.91144 0.0
C2346 C 0.88956 0.68713 0.90825 0.0
C2347 C 0.89216 0.66885 0.92167 0.0
C2348 C 0.92754 0.6807 0.93783 0.0
H2349 H 0.93162 0.63177 0.98853 0.0
H2350 H 0.91856 0.63976 0.9721 0.0
H2351 H 0.94614 0.68081 0.94582 0.0
H2352 H 0.90653 0.70855 0.91329 0.0
H2353 H 0.91994 0.7016 0.93081 0.0
H2354 H 0.89443 0.66052 0.95434 0.0
C2355 C 0.92922 0.64745 0.97594 0.0
C2356 C 0.93491 0.67646 0.94802 0.0
C2357 C 0.93673 0.64284 0.98531 0.0
C2358 C 0.90248 0.69741 0.91526 0.0
C2359 C 0.91014 0.69345 0.92536 0.0
C2360 C 0.90572 0.66499 0.95239 0.0
C2361 C 0.93556 0.66168 0.97114 0.0
C2362 C 0.92777 0.66645 0.96057 0.0
C2363 C 0.90498 0.67914 0.92878 0.0
C2364 C 0.91286 0.67492 0.93984 0.0
H2365 H 0.96789 0.67418 0.9889 0.0
H2366 H 0.95466 0.6823 0.97301 0.0
H2367 H 0.90731 0.65333 0.97241 0.0
H2368 H 0.87483 0.66458 0.90598 0.0
H2369 H 0.88807 0.65773 0.9239 0.0
C2370 C 0.34075 0.3036 0.97965 0.0
C2371 C 0.33058 0.30758 0.98235 0.0
C2372 C 0.33698 0.29084 0.97179 0.0
C2373 C 0.3071 0.25583 0.96123 0.0
H2374 H 0.33064 0.25836 0.92392 0.0
C2375 C 0.2912 0.20889 0.91667 0.0
C2376 C 0.30213 0.20687 0.9107 0.0
C2377 C 0.29438 0.22104 0.92565 0.0
C2378 C 0.32405 0.25739 0.93445 0.0
H2379 H 0.30837 0.30106 0.97963 0.0
H2380 H 0.30176 0.27866 0.96613 0.0
H2381 H 0.33688 0.27938 0.94015 0.0
H2382 H 0.32501 0.21628 0.90921 0.0
H2383 H 0.33048 0.23699 0.9254 0.0
H2384 H 0.2944 0.23378 0.95577 0.0
C2385 C 0.31265 0.28545 0.97001 0.0
C2386 C 0.32763 0.26946 0.94371 0.0
C2387 C 0.31645 0.29829 0.97767 0.0
C2388 C 0.31629 0.21733 0.91384 0.0
C2389 C 0.31945 0.22936 0.92293 0.0
C2390 C 0.3036 0.24369 0.95208 0.0
C2391 C 0.32294 0.28175 0.96669 0.0
C2392 C 0.3192 0.2688 0.95719 0.0
C2393 C 0.30855 0.2314 0.92894 0.0
C2394 C 0.31205 0.24432 0.93857 0.0
H2395 H 0.35172 0.31054 0.98312 0.0
H2396 H 0.34508 0.28815 0.96952 0.0
H2397 H 0.30046 0.25505 0.97163 0.0
H2398 H 0.28018 0.20101 0.91461 0.0
H2399 H 0.28571 0.22234 0.9299 0.0
C2400 C 0.70006 0.02606 0.98179 0.0
C2401 C 0.69314 0.03341 0.9863 0.0
C2402 C 0.71273 0.03277 0.97272 0.0
C2403 C 0.74221 0.06844 0.96098 0.0
H2404 H 0.74899 0.04815 0.92631 0.0
C2405 C 0.78117 0.08173 0.90072 0.0
C2406 C 0.79373 0.0928 0.90743 0.0
C2407 C 0.76938 0.07353 0.91086 0.0
C2408 C 0.74723 0.054 0.93587 0.0
H2409 H 0.6941 0.05355 0.98466 0.0
H2410 H 0.71591 0.06509 0.9686 0.0
H2411 H 0.72731 0.03601 0.94278 0.0
H2412 H 0.8042 0.10345 0.93003 0.0
H2413 H 0.78389 0.08892 0.94781 0.0
H2414 H 0.76173 0.08658 0.95365 0.0
C2415 C 0.71178 0.05425 0.97238 0.0
C2416 C 0.73487 0.04698 0.94548 0.0
C2417 C 0.69919 0.0476 0.98153 0.0
C2418 C 0.79455 0.09511 0.92453 0.0
C2419 C 0.78287 0.08682 0.93468 0.0
C2420 C 0.75448 0.07547 0.95132 0.0
C2421 C 0.71874 0.04695 0.96787 0.0
C2422 C 0.73215 0.05416 0.95807 0.0
C2423 C 0.77001 0.07616 0.92795 0.0
C2424 C 0.75714 0.06838 0.93858 0.0
H2425 H 0.69571 0.01513 0.98531 0.0
H2426 H 0.71789 0.02687 0.96965 0.0
H2427 H 0.74062 0.07426 0.97072 0.0
H2428 H 0.78026 0.0798 0.88755 0.0
H2429 H 0.75964 0.06552 0.90519 0.0
C2430 C 0.65256 0.9491 0.02717 0.0
C2431 C 0.66278 0.96355 0.02623 0.0
C2432 C 0.65577 0.93971 0.03485 0.0
C2433 C 0.68531 0.93529 0.04888 0.0
H2434 H 0.65874 0.91144 0.08265 0.0
C2435 C 0.70061 0.90804 0.0985 0.0
C2436 C 0.69015 0.89466 0.10417 0.0
C2437 C 0.69709 0.91566 0.08774 0.0
C2438 C 0.66619 0.91782 0.07309 0.0
H2439 H 0.68455 0.97939 0.03188 0.0
H2440 H 0.69017 0.96299 0.04507 0.0
H2441 H 0.65287 0.92569 0.06527 0.0
H2442 H 0.66789 0.87857 0.10262 0.0
H2443 H 0.66178 0.89169 0.08361 0.0
H2444 H 0.69864 0.92745 0.05664 0.0
C2445 C 0.67968 0.95891 0.03993 0.0
C2446 C 0.6628 0.926 0.06312 0.0
C2447 C 0.67644 0.96831 0.03244 0.0
C2448 C 0.67614 0.88897 0.09867 0.0
C2449 C 0.67264 0.89652 0.08779 0.0
C2450 C 0.68864 0.92701 0.05874 0.0
C2451 C 0.6693 0.94456 0.04154 0.0
C2452 C 0.67241 0.93497 0.05106 0.0
C2453 C 0.68304 0.91002 0.08226 0.0
C2454 C 0.67921 0.91829 0.07114 0.0
H2455 H 0.64194 0.94512 0.02251 0.0
H2456 H 0.6476 0.92867 0.03579 0.0
H2457 H 0.69286 0.942 0.03957 0.0
H2458 H 0.71147 0.91274 0.10265 0.0
H2459 H 0.70535 0.92611 0.084 0.0
C2460 C 0.01897 0.70748 0.02773 0.0
C2461 C 0.02368 0.69897 0.02047 0.0
C2462 C 0.02868 0.7208 0.03399 0.0
C2463 C 0.06379 0.73939 0.05226 0.0
H2464 H 0.05924 0.77204 0.04975 0.0
C2465 C 0.10093 0.79055 0.08754 0.0
C2466 C 0.09456 0.79731 0.09551 0.0
C2467 C 0.09332 0.77974 0.07618 0.0
C2468 C 0.06059 0.76298 0.05067 0.0
H2469 H 0.04228 0.69798 0.01334 0.0
H2470 H 0.0593 0.72129 0.02441 0.0
H2471 H 0.04416 0.75115 0.03311 0.0
H2472 H 0.07532 0.79822 0.09768 0.0
H2473 H 0.06186 0.7791 0.07811 0.0
H2474 H 0.07979 0.75089 0.07025 0.0
C2475 C 0.04807 0.7176 0.02531 0.0
C2476 C 0.052 0.75106 0.04108 0.0
C2477 C 0.03834 0.7043 0.0189 0.0
C2478 C 0.08051 0.79324 0.09164 0.0
C2479 C 0.07284 0.78233 0.08036 0.0
C2480 C 0.0723 0.75126 0.06193 0.0
C2481 C 0.04331 0.72584 0.03323 0.0
C2482 C 0.05339 0.73907 0.04194 0.0
C2483 C 0.07911 0.77535 0.07261 0.0
C2484 C 0.07069 0.76314 0.06143 0.0
H2485 H 0.00774 0.70368 0.02907 0.0
H2486 H 0.02468 0.72684 0.04014 0.0
H2487 H 0.06495 0.73023 0.05341 0.0
H2488 H 0.11184 0.79366 0.09007 0.0
H2489 H 0.09858 0.77481 0.0702 0.0
C2490 C 0.30015 0.35632 0.03808 0.0
C2491 C 0.30516 0.34793 0.03111 0.0
C2492 C 0.2882 0.35031 0.04829 0.0
C2493 C 0.25591 0.31698 0.05843 0.0
H2494 H 0.25704 0.33668 0.09871 0.0
C2495 C 0.20932 0.2946 0.10539 0.0
C2496 C 0.20596 0.30437 0.11202 0.0
C2497 C 0.22166 0.29922 0.09597 0.0
C2498 C 0.25651 0.33111 0.08744 0.0
H2499 H 0.30139 0.32661 0.02926 0.0
H2500 H 0.2804 0.31611 0.04711 0.0
H2501 H 0.27809 0.34604 0.08123 0.0
H2502 H 0.21266 0.32658 0.11362 0.0
H2503 H 0.23407 0.33463 0.09717 0.0
H2504 H 0.23422 0.30218 0.0645 0.0
C2505 C 0.28578 0.32734 0.0446 0.0
C2506 C 0.26857 0.33646 0.07745 0.0
C2507 C 0.29782 0.33336 0.03444 0.0
C2508 C 0.21511 0.31882 0.10896 0.0
C2509 C 0.22739 0.32343 0.09954 0.0
C2510 C 0.2438 0.31164 0.06841 0.0
C2511 C 0.28093 0.33578 0.05172 0.0
C2512 C 0.26834 0.32957 0.06274 0.0
C2513 C 0.23084 0.31371 0.09298 0.0
C2514 C 0.24391 0.31876 0.08291 0.0
H2515 H 0.30553 0.36757 0.03575 0.0
H2516 H 0.28457 0.35705 0.05342 0.0
H2517 H 0.25542 0.3115 0.04709 0.0
H2518 H 0.2025 0.2834 0.10766 0.0
H2519 H 0.2241 0.29148 0.09122 0.0
C2520 C 0.70326 0.67431 0.36502 0.0
C2521 C 0.6887 0.66445 0.36347 0.0
C2522 C 0.71229 0.67046 0.37244 0.0
C2523 C 0.71584 0.63996 0.38313 0.0
H2524 H 0.74061 0.66428 0.41772 0.0
C2525 C 0.74549 0.62229 0.42656 0.0
C2526 C 0.7592 0.63249 0.43173 0.0
C2527 C 0.73716 0.62622 0.41765 0.0
C2528 C 0.73395 0.65746 0.40792 0.0
H2529 H 0.67226 0.64273 0.36803 0.0
H2530 H 0.68805 0.63599 0.38077 0.0
H2531 H 0.72599 0.6712 0.40259 0.0
H2532 H 0.7748 0.65493 0.43163 0.0
H2533 H 0.7606 0.66166 0.41555 0.0
H2534 H 0.72388 0.6263 0.38825 0.0
C2535 C 0.69247 0.64669 0.37629 0.0
C2536 C 0.72555 0.66143 0.39927 0.0
C2537 C 0.68343 0.65058 0.36907 0.0
C2538 C 0.76438 0.64672 0.42767 0.0
C2539 C 0.75613 0.65063 0.41863 0.0
C2540 C 0.72436 0.63605 0.39165 0.0
C2541 C 0.70696 0.65664 0.37825 0.0
C2542 C 0.71634 0.65269 0.38686 0.0
C2543 C 0.74237 0.64045 0.41357 0.0
C2544 C 0.73347 0.64471 0.40423 0.0
H2545 H 0.70764 0.68508 0.36084 0.0
H2546 H 0.72345 0.67831 0.37367 0.0
H2547 H 0.70893 0.63308 0.3735 0.0
H2548 H 0.74118 0.61121 0.42928 0.0
H2549 H 0.72656 0.6181 0.41416 0.0
C2550 C 0.30895 0.03354 0.36556 0.0
C2551 C 0.31397 0.02417 0.36739 0.0
C2552 C 0.31566 0.04661 0.37353 0.0
C2553 C 0.34858 0.0717 0.39662 0.0
H2554 H 0.32493 0.08658 0.41124 0.0
C2555 C 0.36315 0.11666 0.44496 0.0
C2556 C 0.36167 0.12784 0.43913 0.0
C2557 C 0.35867 0.10454 0.43535 0.0
C2558 C 0.33165 0.08256 0.40712 0.0
H2559 H 0.32992 0.02107 0.37896 0.0
H2560 H 0.34122 0.04356 0.39366 0.0
H2561 H 0.31421 0.06412 0.3967 0.0
H2562 H 0.35455 0.13528 0.41878 0.0
H2563 H 0.34628 0.11383 0.40216 0.0
H2564 H 0.36588 0.09001 0.40802 0.0
C2565 C 0.33241 0.0411 0.38561 0.0
C2566 C 0.32555 0.06973 0.39866 0.0
C2567 C 0.32589 0.02814 0.37728 0.0
C2568 C 0.35589 0.12683 0.42345 0.0
C2569 C 0.35113 0.1146 0.41401 0.0
C2570 C 0.35461 0.08441 0.40545 0.0
C2571 C 0.32734 0.0505 0.38392 0.0
C2572 C 0.33394 0.06415 0.39314 0.0
C2573 C 0.35237 0.10333 0.41996 0.0
C2574 C 0.34619 0.08996 0.41063 0.0
H2575 H 0.29991 0.03084 0.35779 0.0
H2576 H 0.31166 0.05366 0.37146 0.0
H2577 H 0.35545 0.06792 0.39239 0.0
H2578 H 0.36758 0.11724 0.45704 0.0
H2579 H 0.35964 0.09591 0.44018 0.0
C2580 C 0.95544 0.2814 0.35583 0.0
C2581 C 0.96653 0.29542 0.35782 0.0
C2582 C 0.94248 0.27661 0.3639 0.0
C2583 C 0.92747 0.27994 0.40109 0.0
H2584 H 0.89157 0.26305 0.37803 0.0
C2585 C 0.87509 0.25244 0.43745 0.0
C2586 C 0.86421 0.23983 0.43069 0.0
C2587 C 0.88688 0.26157 0.42788 0.0
C2588 C 0.90147 0.26759 0.3847 0.0
H2589 H 0.97283 0.31543 0.36978 0.0
H2590 H 0.95023 0.30678 0.3845 0.0
H2591 H 0.91377 0.27427 0.36235 0.0
H2592 H 0.85679 0.22684 0.40878 0.0
H2593 H 0.87762 0.24229 0.39224 0.0
H2594 H 0.91545 0.27246 0.42334 0.0
C2595 C 0.95156 0.29967 0.37641 0.0
C2596 C 0.91415 0.27411 0.37569 0.0
C2597 C 0.96442 0.30458 0.36801 0.0
C2598 C 0.86504 0.23663 0.41414 0.0
C2599 C 0.87697 0.24556 0.40467 0.0
C2600 C 0.91481 0.27315 0.41009 0.0
C2601 C 0.94052 0.28566 0.37438 0.0
C2602 C 0.92721 0.28015 0.38384 0.0
C2603 C 0.8882 0.25804 0.4115 0.0
C2604 C 0.90161 0.26666 0.40201 0.0
H2605 H 0.95676 0.27415 0.34798 0.0
H2606 H 0.9341 0.26572 0.36231 0.0
H2607 H 0.93747 0.28444 0.40757 0.0
H2608 H 0.87456 0.2551 0.45022 0.0
H2609 H 0.89511 0.27123 0.43348 0.0
C2610 C 0.99156 0.36016 0.30789 0.0
C2611 C 0.00455 0.36325 0.31483 0.0
C2612 C 0.98998 0.37086 0.30101 0.0
C2613 C 0.0108 0.40526 0.28135 0.0
H2614 H 0.97647 0.40699 0.28646 0.0
C2615 C 0.00442 0.44832 0.24962 0.0
C2616 C 0.99121 0.44401 0.24238 0.0
C2617 C 0.00613 0.43923 0.26001 0.0
C2618 C 0.98607 0.40657 0.2848 0.0
H2619 H 0.02594 0.38002 0.32045 0.0
H2620 H 0.02318 0.39875 0.30833 0.0
H2621 H 0.97931 0.38979 0.3023 0.0
H2622 H 0.96942 0.42687 0.24036 0.0
H2623 H 0.97243 0.41087 0.25829 0.0
H2624 H 0.01742 0.42171 0.26354 0.0
C2625 C 0.01426 0.38802 0.30816 0.0
C2626 C 0.98771 0.39676 0.29391 0.0
C2627 C 0.01582 0.37732 0.31516 0.0
C2628 C 0.97969 0.4305 0.2459 0.0
C2629 C 0.98141 0.42137 0.25621 0.0
C2630 C 0.00913 0.41501 0.27218 0.0
C2631 C 0.00138 0.38486 0.30082 0.0
C2632 C 4e-05 0.39593 0.29216 0.0
C2633 C -0.00532 0.4256 0.26331 0.0
C2634 C -0.00331 0.41569 0.27368 0.0
H2635 H 0.98267 0.34942 0.30749 0.0
H2636 H 0.97997 0.36809 0.2953 0.0
H2637 H 0.02031 0.40471 0.27955 0.0
H2638 H 0.01342 0.45877 0.24735 0.0
H2639 H 0.01641 0.44292 0.26551 0.0
C2640 C 0.60733 0.62543 0.32081 0.0
C2641 C 0.62178 0.6353 0.31842 0.0
C2642 C 0.60093 0.61246 0.31261 0.0
C2643 C 0.60917 0.58881 0.2874 0.0
H2644 H 0.56978 0.57239 0.27467 0.0
C2645 C 0.57917 0.54574 0.23702 0.0
C2646 C 0.56669 0.53375 0.24257 0.0
C2647 C 0.58659 0.55742 0.24739 0.0
C2648 C 0.58076 0.57683 0.27828 0.0
H2649 H 0.64091 0.6394 0.30555 0.0
H2650 H 0.62965 0.61714 0.29048 0.0
H2651 H 0.5813 0.59444 0.29011 0.0
H2652 H 0.55215 0.52439 0.26315 0.0
H2653 H 0.56491 0.54511 0.28116 0.0
H2654 H 0.60862 0.57142 0.27453 0.0
C2655 C 0.62328 0.61909 0.29915 0.0
C2656 C 0.58738 0.58943 0.28724 0.0
C2657 C 0.62975 0.63193 0.30769 0.0
C2658 C 0.56184 0.5335 0.2587 0.0
C2659 C 0.56907 0.54531 0.26893 0.0
C2660 C 0.60261 0.57637 0.27807 0.0
C2661 C 0.60875 0.60916 0.30145 0.0
C2662 C 0.60169 0.59561 0.292 0.0
C2663 C 0.58142 0.55739 0.26329 0.0
C2664 C 0.58835 0.57028 0.27351 0.0
H2665 H 0.60097 0.62768 0.32919 0.0
H2666 H 0.58984 0.60501 0.31512 0.0
H2667 H 0.62009 0.59302 0.29105 0.0
H2668 H 0.58304 0.54613 0.22458 0.0
H2669 H 0.59605 0.56668 0.24278 0.0
C2670 C 0.35285 0.9812 0.31858 0.0
C2671 C 0.34976 0.99206 0.3203 0.0
C2672 C 0.3651 0.9836 0.31022 0.0
C2673 C 0.39158 0.00799 0.2797 0.0
H2674 H 0.41145 0.98861 0.29177 0.0
C2675 C 0.44361 0.01848 0.2479 0.0
C2676 C 0.44395 0.00638 0.24291 0.0
C2677 C 0.43264 0.01727 0.258 0.0
C2678 C 0.40595 0.99404 0.28824 0.0
H2679 H 0.35737 0.01411 0.31527 0.0
H2680 H 0.37898 0.01846 0.3012 0.0
H2681 H 0.39177 0.98587 0.30887 0.0
H2682 H 0.4328 0.9835 0.24452 0.0
H2683 H 0.41392 0.98149 0.26248 0.0
H2684 H 0.40594 0.01628 0.25917 0.0
C2685 C 0.37175 0.00796 0.30584 0.0
C2686 C 0.39464 0.99245 0.29799 0.0
C2687 C 0.35942 0.0055 0.31402 0.0
C2688 C 0.43307 0.99307 0.24835 0.0
C2689 C 0.42221 0.99189 0.25861 0.0
C2690 C 0.40299 0.00972 0.27007 0.0
C2691 C 0.37463 -0.00303 0.30356 0.0
C2692 C 0.3872 -0.00072 0.29375 0.0
C2693 C 0.42187 0.00397 0.26351 0.0
C2694 C 0.41019 0.00264 0.27415 0.0
H2695 H 0.34558 0.9707 0.32321 0.0
H2696 H 0.36682 0.97482 0.30854 0.0
H2697 H 0.38596 0.01322 0.27584 0.0
H2698 H 0.45192 0.02892 0.24421 0.0
H2699 H 0.4327 0.02677 0.26172 0.0
C2700 C 0.62619 0.98763 0.30873 0.0
C2701 C 0.61927 0.97613 0.31958 0.0
C2702 C 0.61834 0.9916 0.29894 0.0
C2703 C 0.58183 0.97722 0.28282 0.0
H2704 H 0.59606 0.01614 0.27034 0.0
C2705 C 0.55241 0.99097 0.23513 0.0
C2706 C 0.55174 0.00321 0.23776 0.0
C2707 C 0.56148 0.9884 0.24451 0.0
C2708 C 0.59184 0.00523 0.27384 0.0
H2709 H 0.59881 0.96025 0.32934 0.0
H2710 H 0.58518 0.96753 0.3129 0.0
H2711 H 0.60983 0.01052 0.28892 0.0
H2712 H 0.56004 0.02248 0.25199 0.0
H2713 H 0.57552 0.01778 0.26893 0.0
H2714 H 0.56354 0.97196 0.26849 0.0
C2715 C 0.59661 0.97316 0.31138 0.0
C2716 C 0.59985 0.00197 0.28433 0.0
C2717 C 0.60442 0.96904 0.32092 0.0
C2718 C 0.56048 0.013 0.2497 0.0
C2719 C 0.56938 0.01031 0.25933 0.0
C2720 C 0.57375 0.98049 0.27256 0.0
C2721 C 0.60343 0.9843 0.3 0.0
C2722 C 0.59494 0.98792 0.28896 0.0
C2723 C 0.56987 -0.00212 0.25698 0.0
C2724 C 0.57865 0.99452 0.26786 0.0
H2725 H 0.63763 0.99325 0.30739 0.0
H2726 H 0.62397 0.00011 0.29021 0.0
H2727 H 0.57778 0.96624 0.28581 0.0
H2728 H 0.54588 0.98336 0.22581 0.0
H2729 H 0.56184 0.97891 0.24201 0.0
C2730 C 0.99116 0.63133 0.31588 0.0
C2731 C 0.00404 0.64085 0.32355 0.0
C2732 C 0.98932 0.61906 0.30843 0.0
C2733 C 0.00988 0.60558 0.28833 0.0
H2734 H 0.9749 0.56936 0.29096 0.0
C2735 C 0.00335 0.55699 0.25347 0.0
C2736 C 0.99026 0.54824 0.24579 0.0
C2737 C 0.00497 0.56748 0.26451 0.0
C2738 C 0.98469 0.57943 0.28997 0.0
H2739 H 0.02492 0.64474 0.32996 0.0
H2740 H 0.02174 0.62328 0.31681 0.0
H2741 H 0.97779 0.58902 0.30797 0.0
H2742 H 0.96856 0.54351 0.24367 0.0
H2743 H 0.97143 0.56206 0.26266 0.0
H2744 H 0.01665 0.59625 0.26999 0.0
C2745 C 0.0131 0.62538 0.31653 0.0
C2746 C 0.98635 0.59066 0.29977 0.0
C2747 C 0.01489 0.63761 0.32411 0.0
C2748 C 0.97874 0.55005 0.24952 0.0
C2749 C 0.98039 0.56064 0.26045 0.0
C2750 C 0.00818 0.5944 0.27845 0.0
C2751 C 0.00038 0.6161 0.30839 0.0
C2752 C -0.00107 0.60387 0.29895 0.0
C2753 C -0.00644 0.56954 0.268 0.0
C2754 C -0.00448 0.58122 0.27906 0.0
H2755 H 0.98258 0.63352 0.31528 0.0
H2756 H 0.97945 0.61216 0.30214 0.0
H2757 H 0.01959 0.61571 0.28724 0.0
H2758 H 0.01234 0.55565 0.25104 0.0
H2759 H 0.01517 0.57394 0.27034 0.0
C2760 C 0.36451 0.38284 0.30931 0.0
C2761 C 0.35875 0.36899 0.31527 0.0
C2762 C 0.37701 0.38915 0.29999 0.0
C2763 C 0.39755 0.39587 0.27164 0.0
H2764 H 0.43042 0.39347 0.28385 0.0
C2765 C 0.44641 0.41763 0.22927 0.0
C2766 C 0.45964 0.42612 0.23684 0.0
C2767 C 0.43425 0.4094 0.23877 0.0
C2768 C 0.42133 0.39425 0.28031 0.0
H2769 H 0.36183 0.35104 0.31636 0.0
H2770 H 0.38372 0.36212 0.30002 0.0
H2771 H 0.40895 0.38192 0.30098 0.0
H2772 H 0.47053 0.43226 0.26031 0.0
H2773 H 0.44926 0.41786 0.27692 0.0
H2774 H 0.40989 0.40839 0.2512 0.0
C2775 C 0.37854 0.36807 0.30266 0.0
C2776 C 0.40901 0.38754 0.29004 0.0
C2777 C 0.36597 0.36171 0.31195 0.0
C2778 C 0.46052 0.42574 0.2541 0.0
C2779 C 0.44833 0.41749 0.26362 0.0
C2780 C 0.40979 0.40249 0.2619 0.0
C2781 C 0.38409 0.3818 0.29641 0.0
C2782 C 0.39704 0.38841 0.28588 0.0
C2783 C 0.43502 0.40946 0.25606 0.0
C2784 C 0.42186 0.40184 0.26616 0.0
H2785 H 0.3593 0.3888 0.31168 0.0
H2786 H 0.38114 0.39982 0.29559 0.0
H2787 H 0.38844 0.39659 0.26799 0.0
H2788 H 0.44543 0.41747 0.21598 0.0
H2789 H 0.4242 0.40311 0.23256 0.0
C2790 C 0.33724 0.3069 0.38025 0.0
C2791 C 0.32961 0.30284 0.36541 0.0
C2792 C 0.34019 0.29763 0.38855 0.0
C2793 C 0.34589 0.26827 0.38381 0.0
H2794 H 0.33407 0.26028 0.4296 0.0
C2795 C 0.35348 0.22826 0.42202 0.0
C2796 C 0.35639 0.23106 0.43889 0.0
C2797 C 0.34985 0.23653 0.41254 0.0
C2798 C 0.33768 0.26255 0.41692 0.0
H2799 H 0.3194 0.28601 0.3474 0.0
H2800 H 0.32498 0.26986 0.36179 0.0
H2801 H 0.32877 0.27577 0.41383 0.0
H2802 H 0.35825 0.24487 0.45901 0.0
H2803 H 0.35256 0.2597 0.44246 0.0
H2804 H 0.35537 0.2556 0.38698 0.0
C2805 C 0.32849 0.2802 0.36701 0.0
C2806 C 0.33452 0.27134 0.40787 0.0
C2807 C 0.32528 0.28941 0.35883 0.0
C2808 C 0.35587 0.2424 0.44606 0.0
C2809 C 0.3525 0.25082 0.43655 0.0
C2810 C 0.34931 0.25967 0.39296 0.0
C2811 C 0.3358 0.28419 0.38206 0.0
C2812 C 0.33865 0.27433 0.39128 0.0
C2813 C 0.34928 0.24793 0.41968 0.0
C2814 C 0.34533 0.25676 0.40969 0.0
H2815 H 0.34069 0.31716 0.38567 0.0
H2816 H 0.34593 0.30096 0.40008 0.0
H2817 H 0.34926 0.27053 0.37104 0.0
H2818 H 0.35371 0.21948 0.41624 0.0
H2819 H 0.34724 0.2338 0.39969 0.0
C2820 C 0.70412 0.02841 0.35838 0.0
C2821 C 0.6894 0.02268 0.35999 0.0
C2822 C 0.71359 0.04185 0.36458 0.0
C2823 C 0.71677 0.07532 0.37838 0.0
H2824 H 0.74673 0.07804 0.40614 0.0
C2825 C 0.74904 0.12232 0.42256 0.0
C2826 C 0.76334 0.12666 0.42524 0.0
C2827 C 0.74048 0.11036 0.41299 0.0
C2828 C 0.73861 0.07759 0.39819 0.0
H2829 H 0.67307 0.02675 0.3688 0.0
H2830 H 0.68962 0.05025 0.37956 0.0
H2831 H 0.7311 0.05602 0.3919 0.0
H2832 H 0.78011 0.12236 0.4194 0.0
H2833 H 0.76533 0.10171 0.4024 0.0
H2834 H 0.72429 0.09691 0.38467 0.0
C2835 C 0.69383 0.04435 0.37348 0.0
C2836 C 0.72962 0.06493 0.39005 0.0
C2837 C 0.68435 0.03087 0.36741 0.0
C2838 C 0.76905 0.1191 0.41774 0.0
C2839 C 0.76055 0.10725 0.40806 0.0
C2840 C 0.72585 0.08805 0.38642 0.0
C2841 C 0.70854 0.04987 0.37239 0.0
C2842 C 0.71854 0.06362 0.38018 0.0
C2843 C 0.7461 0.10257 0.40579 0.0
C2844 C 0.73681 0.0893 0.39655 0.0
H2845 H 0.70834 0.02238 0.35269 0.0
H2846 H 0.72489 0.04591 0.36342 0.0
H2847 H 0.70839 0.07464 0.37071 0.0
H2848 H 0.74435 0.12791 0.42831 0.0
H2849 H 0.72936 0.10698 0.4117 0.0
C2850 C 0.95933 0.68034 0.36539 0.0
C2851 C 0.96841 0.67484 0.3649 0.0
C2852 C 0.94668 0.67353 0.37439 0.0
C2853 C 0.9213 0.63979 0.39499 0.0
H2854 H 0.9114 0.66403 0.41925 0.0
C2855 C 0.86676 0.61973 0.42688 0.0
C2856 C 0.8665 0.6268 0.44117 0.0
C2857 C 0.87953 0.62438 0.41832 0.0
C2858 C 0.91409 0.65707 0.41277 0.0
H2859 H 0.97122 0.65771 0.37318 0.0
H2860 H 0.94931 0.64602 0.38927 0.0
H2861 H 0.9328 0.6745 0.40258 0.0
H2862 H 0.87912 0.64355 0.45843 0.0
H2863 H 0.90153 0.65136 0.44396 0.0
H2864 H 0.9027 0.62233 0.40565 0.0
C2865 C 0.95183 0.65546 0.38245 0.0
C2866 C 0.92626 0.6631 0.40295 0.0
C2867 C 0.96443 0.6622 0.37329 0.0
C2868 C 0.87917 0.63802 0.44736 0.0
C2869 C 0.89193 0.64254 0.43898 0.0
C2870 C 0.90913 0.63373 0.40495 0.0
C2871 C 0.9429 0.66115 0.38328 0.0
C2872 C 0.92997 0.65456 0.39383 0.0
C2873 C 0.89219 0.6361 0.42405 0.0
C2874 C 0.90537 0.64232 0.41393 0.0
H2875 H 0.96202 0.68997 0.35889 0.0
H2876 H 0.93989 0.67803 0.37445 0.0
H2877 H 0.9238 0.6329 0.38803 0.0
H2878 H 0.85701 0.61111 0.42189 0.0
H2879 H 0.87932 0.61924 0.40681 0.0
C2880 C 0.35695 0.9929 0.70198 0.0
C2881 C 0.36158 0.00582 0.69394 0.0
C2882 C 0.3667 0.99014 0.7096 0.0
C2883 C 0.4017 0.00827 0.72878 0.0
H2884 H 0.3997 0.97219 0.72467 0.0
C2885 C 0.44343 -0.0013 0.759 0.0
C2886 C 0.43867 0.98547 0.76628 0.0
C2887 C 0.4344 0.00095 0.7491 0.0
C2888 C 0.40031 0.98226 0.72612 0.0
H2889 H 0.38008 0.02589 0.68733 0.0
H2890 H 0.39707 0.0211 0.70076 0.0
H2891 H 0.38318 0.97647 0.7093 0.0
H2892 H 0.42077 0.96419 0.76885 0.0
H2893 H 0.40483 0.96818 0.75187 0.0
H2894 H 0.4185 0.014 0.74591 0.0
C2895 C 0.3859 0.01313 0.70119 0.0
C2896 C 0.39087 0.98472 0.71725 0.0
C2897 C 0.37618 0.01583 0.69343 0.0
C2898 C 0.42475 0.97446 0.76326 0.0
C2899 C 0.41565 0.97675 0.75348 0.0
C2900 C 0.41104 0.00578 0.73775 0.0
C2901 C 0.38125 0.0003 0.70948 0.0
C2902 C 0.39147 -0.00225 0.7185 0.0
C2903 C 0.42032 0.99007 0.74638 0.0
C2904 C 0.41048 0.99274 0.73656 0.0
H2905 H 0.34578 0.98496 0.70257 0.0
H2906 H 0.36279 0.98021 0.716 0.0
H2907 H 0.40226 0.01834 0.7302 0.0
H2908 H 0.45419 0.00731 0.76093 0.0
H2909 H 0.43848 0.01125 0.74356 0.0
C2910 C 0.98781 0.35958 0.69828 0.0
C2911 C 0.97464 0.34736 0.70131 0.0
C2912 C 0.99188 0.37197 0.70719 0.0
C2913 C 0.97646 0.38873 0.7335 0.0
H2914 H 0.01595 0.41542 0.74308 0.0
C2915 C -0.00706 0.44283 0.7616 0.0
C2916 C 0.00395 0.4485 0.77313 0.0
C2917 C 0.99013 0.43097 0.75235 0.0
C2918 C 0.00485 0.40802 0.7407 0.0
H2919 H 0.95567 0.33828 0.71654 0.0
H2920 H 0.963 0.35958 0.73263 0.0
H2921 H 0.00958 0.39341 0.72907 0.0
H2922 H 0.02077 0.44649 0.78409 0.0
H2923 H 0.01551 0.42531 0.76848 0.0
H2924 H 0.9716 0.40287 0.7459 0.0
C2925 C 0.96999 0.35988 0.72292 0.0
C2926 C 0.0012 0.39546 0.7324 0.0
C2927 C 0.96581 0.34761 0.71378 0.0
C2928 C 0.01227 0.44228 0.77514 0.0
C2929 C 0.00928 0.43021 0.76612 0.0
C2930 C 0.98007 0.40114 0.74203 0.0
C2931 C 0.98296 0.37232 0.71957 0.0
C2932 C 0.98695 0.38565 0.72864 0.0
C2933 C -0.00194 0.4243 0.75471 0.0
C2934 C -0.00568 0.41103 0.74566 0.0
H2935 H -0.0052 0.3597 0.68866 0.0
H2936 H 0.00184 0.38135 0.70406 0.0
H2937 H 0.9654 0.38162 0.7306 0.0
H2938 H 0.98648 0.44758 0.75979 0.0
H2939 H 0.98167 0.42701 0.74338 0.0
C2940 C 0.64046 0.61455 0.71003 0.0
C2941 C 0.64417 0.62743 0.70241 0.0
C2942 C 0.62798 0.60734 0.71932 0.0
C2943 C 0.60059 0.61192 0.74079 0.0
H2944 H 0.57799 0.57122 0.73608 0.0
C2945 C 0.54286 0.57792 0.76528 0.0
C2946 C 0.53935 0.56503 0.77274 0.0
C2947 C 0.55604 0.5861 0.75752 0.0
C2948 C 0.58426 0.58257 0.73766 0.0
H2949 H 0.6377 0.64286 0.69868 0.0
H2950 H 0.61583 0.63014 0.71462 0.0
H2951 H 0.60025 0.58434 0.72092 0.0
H2952 H 0.54716 0.55101 0.77872 0.0
H2953 H 0.57004 0.56521 0.76509 0.0
H2954 H 0.58439 0.61008 0.75738 0.0
C2955 C 0.62268 0.62573 0.71365 0.0
C2956 C 0.59703 0.59009 0.729 0.0
C2957 C 0.63519 0.63299 0.70442 0.0
C2958 C 0.54942 0.56073 0.77273 0.0
C2959 C 0.56253 0.56886 0.76496 0.0
C2960 C 0.58775 0.60439 0.7494 0.0
C2961 C 0.6189 0.61279 0.72114 0.0
C2962 C 0.60537 0.60485 0.73049 0.0
C2963 C 0.5659 0.58152 0.75707 0.0
C2964 C 0.57949 0.58963 0.74796 0.0
H2965 H 0.64719 0.61003 0.70883 0.0
H2966 H 0.62549 0.5975 0.72516 0.0
H2967 H 0.60685 0.62327 0.74237 0.0
H2968 H 0.53528 0.58146 0.76499 0.0
H2969 H 0.55833 0.59578 0.75144 0.0
C2970 C 0.65189 0.68503 0.64027 0.0
C2971 C 0.66209 0.69049 0.65282 0.0
C2972 C 0.64689 0.69326 0.63339 0.0
C2973 C 0.65672 0.73062 0.62858 0.0
H2974 H 0.61845 0.71374 0.61154 0.0
C2975 C 0.63522 0.76378 0.6002 0.0
C2976 C 0.62962 0.7596 0.58424 0.0
C2977 C 0.63792 0.75499 0.60991 0.0
C2978 C 0.62916 0.71856 0.61624 0.0
H2979 H 0.67466 0.70864 0.66848 0.0
H2980 H 0.66556 0.72287 0.6569 0.0
H2981 H 0.62544 0.69918 0.62674 0.0
H2982 H 0.62197 0.74261 0.56627 0.0
H2983 H 0.62636 0.72711 0.5835 0.0
H2984 H 0.66032 0.75003 0.61822 0.0
C2985 C 0.66172 0.71238 0.65199 0.0
C2986 C 0.63321 0.71024 0.62488 0.0
C2987 C 0.66688 0.7042 0.65872 0.0
C2988 C 0.62616 0.74612 0.57855 0.0
C2989 C 0.6287 0.73725 0.58838 0.0
C2990 C 0.6526 0.73896 0.62017 0.0
C2991 C 0.65182 0.70709 0.63905 0.0
C2992 C 0.64712 0.71612 0.63096 0.0
C2993 C 0.63487 0.74174 0.604 0.0
C2994 C 0.63885 0.73297 0.61375 0.0
H2995 H 0.64805 0.67452 0.63539 0.0
H2996 H 0.63948 0.68888 0.62326 0.0
H2997 H 0.66758 0.73548 0.63277 0.0
H2998 H 0.63767 0.77392 0.60516 0.0
H2999 H 0.6425 0.7586 0.62202 0.0
C3000 C 0.27882 0.96784 0.64312 0.0
C3001 C 0.29323 0.97447 0.64741 0.0
C3002 C 0.27216 0.95473 0.63522 0.0
C3003 C 0.27935 0.93146 0.60951 0.0
H3004 H 0.24086 0.90327 0.62192 0.0
C3005 C 0.23318 0.87008 0.59353 0.0
C3006 C 0.23357 0.87065 0.57621 0.0
C3007 C 0.24146 0.88226 0.60286 0.0
C3008 C 0.25167 0.91095 0.61842 0.0
H3009 H 0.31193 0.97245 0.64678 0.0
H3010 H 0.30024 0.94949 0.63298 0.0
H3011 H 0.25333 0.9253 0.63738 0.0
H3012 H 0.24338 0.88435 0.55511 0.0
H3013 H 0.25765 0.90566 0.5714 0.0
H3014 H 0.27765 0.91708 0.59052 0.0
C3015 C 0.29415 0.95453 0.63566 0.0
C3016 C 0.25875 0.92364 0.62716 0.0
C3017 C 0.30082 0.96764 0.64364 0.0
C3018 C 0.24272 0.8836 0.56844 0.0
C3019 C 0.25102 0.89577 0.57777 0.0
C3020 C 0.27224 0.91877 0.60072 0.0
C3021 C 0.27974 0.94793 0.63137 0.0
C3022 C 0.2726 0.93411 0.62269 0.0
C3023 C 0.25032 0.89528 0.59509 0.0
C3024 C 0.25826 0.90843 0.60498 0.0
H3025 H 0.27264 0.97278 0.64579 0.0
H3026 H 0.2611 0.95003 0.63187 0.0
H3027 H 0.28998 0.93936 0.6057 0.0
H3028 H 0.22617 0.86031 0.59991 0.0
H3029 H 0.24081 0.8815 0.61619 0.0
C3030 C 0.02526 0.34122 0.63344 0.0
C3031 C 0.02136 0.33189 0.64684 0.0
C3032 C 0.03813 0.34586 0.62521 0.0
C3033 C 0.07388 0.35213 0.62866 0.0
H3034 H 0.07104 0.34416 0.58177 0.0
C3035 C 0.12192 0.35974 0.58987 0.0
C3036 C 0.12259 0.3633 0.57318 0.0
C3037 C 0.11 0.35669 0.59942 0.0
C3038 C 0.07214 0.34677 0.59477 0.0
H3039 H 0.02812 0.32055 0.66254 0.0
H3040 H 0.05091 0.32905 0.64834 0.0
H3041 H 0.04972 0.33789 0.59767 0.0
H3042 H 0.11178 0.3671 0.55346 0.0
H3043 H 0.0913 0.36255 0.57021 0.0
H3044 H 0.09633 0.36144 0.62578 0.0
C3045 C 0.04387 0.3326 0.64417 0.0
C3046 C 0.05987 0.34305 0.60388 0.0
C3047 C 0.03084 0.32771 0.65223 0.0
C3048 C 0.1114 0.36424 0.5663 0.0
C3049 C 0.09962 0.36149 0.5759 0.0
C3050 C 0.08624 0.35612 0.61948 0.0
C3051 C 0.04749 0.34149 0.6304 0.0
C3052 C 0.06062 0.34565 0.6209 0.0
C3053 C 0.0986 0.3574 0.59252 0.0
C3054 C 0.08554 0.35346 0.60239 0.0
H3055 H 0.01817 0.3446 0.62897 0.0
H3056 H 0.04074 0.35278 0.61467 0.0
H3057 H 0.0747 0.3543 0.64178 0.0
H3058 H 0.13042 0.35885 0.59538 0.0
H3059 H 0.10958 0.35338 0.61206 0.0
C3060 C 0.2905 0.32825 0.64559 0.0
C3061 C 0.28322 0.31379 0.64954 0.0
C3062 C 0.28384 0.33398 0.63649 0.0
C3063 C 0.25465 0.32364 0.60727 0.0
H3064 H 0.25743 0.35907 0.61953 0.0
C3065 C 0.21846 0.34099 0.57849 0.0
C3066 C 0.2245 0.35518 0.57382 0.0
C3067 C 0.22611 0.33665 0.58797 0.0
C3068 C 0.25671 0.34926 0.61584 0.0
H3069 H 0.26314 0.29408 0.64724 0.0
H3070 H 0.25158 0.30409 0.63148 0.0
H3071 H 0.27004 0.35018 0.63561 0.0
H3072 H 0.24319 0.37605 0.5757 0.0
H3073 H 0.25668 0.36843 0.59227 0.0
H3074 H 0.24137 0.32264 0.58753 0.0
C3075 C 0.26248 0.31096 0.63524 0.0
C3076 C 0.26391 0.34417 0.62504 0.0
C3077 C 0.2691 0.30524 0.64436 0.0
C3078 C 0.23825 0.36505 0.5792 0.0
C3079 C 0.24596 0.36069 0.58868 0.0
C3080 C 0.2475 0.32872 0.59807 0.0
C3081 C 0.26981 0.32536 0.6311 0.0
C3082 C 0.26279 0.33121 0.62097 0.0
C3083 C 0.24002 0.3464 0.59297 0.0
C3084 C 0.24827 0.34148 0.60237 0.0
H3085 H 0.30139 0.33513 0.6494 0.0
H3086 H 0.28977 0.3451 0.63339 0.0
H3087 H 0.25383 0.31377 0.60361 0.0
H3088 H 0.20777 0.3332 0.57484 0.0
H3089 H 0.2211 0.32563 0.5914 0.0
C3090 C 0.67501 0.96718 0.6489 0.0
C3091 C 0.66531 0.9719 0.65059 0.0
C3092 C 0.67093 0.95426 0.64131 0.0
C3093 C 0.64053 0.92001 0.62935 0.0
H3094 H 0.66556 0.92163 0.59424 0.0
C3095 C 0.6253 0.87307 0.5849 0.0
C3096 C 0.63616 0.87054 0.58002 0.0
C3097 C 0.62845 0.88522 0.59385 0.0
C3098 C 0.65854 0.9209 0.60416 0.0
H3099 H 0.64356 0.96647 0.64641 0.0
H3100 H 0.6364 0.94375 0.63331 0.0
H3101 H 0.67179 0.94276 0.6102 0.0
H3102 H 0.65892 0.879 0.58057 0.0
H3103 H 0.6643 0.89973 0.5967 0.0
H3104 H 0.62739 0.89806 0.62352 0.0
C3105 C 0.64716 0.95011 0.6378 0.0
C3106 C 0.66211 0.93303 0.61328 0.0
C3107 C 0.65127 0.96313 0.64524 0.0
C3108 C 0.65023 0.88046 0.58432 0.0
C3109 C 0.65336 0.8925 0.59338 0.0
C3110 C 0.63702 0.90778 0.62034 0.0
C3111 C 0.65705 0.94573 0.63542 0.0
C3112 C 0.65318 0.93271 0.62598 0.0
C3113 C 0.64253 0.89508 0.59821 0.0
C3114 C 0.64602 0.90808 0.60766 0.0
H3115 H 0.68589 0.97369 0.65291 0.0
H3116 H 0.67871 0.95103 0.6398 0.0
H3117 H 0.63349 0.91947 0.63914 0.0
H3118 H 0.61432 0.86559 0.58196 0.0
H3119 H 0.61985 0.88694 0.5972 0.0
C3120 C 0.02247 0.71239 0.64008 0.0
C3121 C 0.01656 0.69859 0.64623 0.0
C3122 C 0.03587 0.71918 0.63265 0.0
C3123 C 0.06258 0.71282 0.61275 0.0
H3124 H 0.0876 0.75267 0.62188 0.0
C3125 C 0.11292 0.74863 0.57403 0.0
C3126 C 0.12476 0.75958 0.58212 0.0
C3127 C 0.1002 0.74024 0.5826 0.0
C3128 C 0.08085 0.7415 0.61934 0.0
H3129 H 0.02012 0.68106 0.64922 0.0
H3130 H 0.04363 0.69301 0.63637 0.0
H3131 H 0.06458 0.73994 0.63546 0.0
H3132 H 0.13279 0.76982 0.60571 0.0
H3133 H 0.11066 0.7551 0.62072 0.0
H3134 H 0.07898 0.71439 0.59674 0.0
C3135 C 0.03779 0.6985 0.63717 0.0
C3136 C 0.06754 0.73424 0.62696 0.0
C3137 C 0.02434 0.69168 0.64459 0.0
C3138 C 0.12377 0.76161 0.59909 0.0
C3139 C 0.11109 0.7532 0.60767 0.0
C3140 C 0.07593 0.7201 0.60512 0.0
C3141 C 0.04376 0.71238 0.63122 0.0
C3142 C 0.05817 0.71986 0.62363 0.0
C3143 C 0.09906 0.74259 0.59946 0.0
C3144 C 0.08518 0.73456 0.60822 0.0
H3145 H 0.01676 0.71802 0.64102 0.0
H3146 H 0.04002 0.72977 0.62793 0.0
H3147 H 0.05559 0.70177 0.60983 0.0
H3148 H 0.1133 0.7469 0.56092 0.0
H3149 H 0.09112 0.73229 0.57583 0.0
C3150 C -0.00157 0.63511 0.70086 0.0
C3151 C 0.98528 0.63061 0.69332 0.0
C3152 C 0.00099 0.62546 0.70898 0.0
C3153 C 0.98217 0.59158 0.73053 0.0
H3154 H 0.01788 0.59235 0.72692 0.0
C3155 C 0.99094 0.55053 0.76377 0.0
C3156 C 0.00431 0.5552 0.77077 0.0
C3157 C 0.98877 0.55934 0.7534 0.0
C3158 C 0.00791 0.5921 0.72823 0.0
H3159 H 0.96464 0.61238 0.68801 0.0
H3160 H 0.9691 0.59554 0.70227 0.0
H3161 H 0.01391 0.60837 0.71018 0.0
H3162 H 0.0259 0.57279 0.77241 0.0
H3163 H 0.02207 0.58833 0.75459 0.0
H3164 H 0.97625 0.57563 0.74885 0.0
C3165 C 0.9774 0.60656 0.70196 0.0
C3166 C 0.00562 0.60125 0.71858 0.0
C3167 C 0.97488 0.61619 0.6937 0.0
C3168 C 0.01551 0.56886 0.76707 0.0
C3169 C 0.01331 0.57774 0.7568 0.0
C3170 C 0.98449 0.58253 0.74027 0.0
C3171 C 0.99042 0.61112 0.70987 0.0
C3172 C -0.00727 0.60109 0.71964 0.0
C3173 C -0.00011 0.57311 0.74988 0.0
C3174 C -0.0026 0.58266 0.73928 0.0
H3175 H 0.00667 0.64615 0.70078 0.0
H3176 H 0.01109 0.62931 0.71506 0.0
H3177 H 0.97222 0.59138 0.73183 0.0
H3178 H 0.98217 0.53997 0.76617 0.0
H3179 H 0.97837 0.55529 0.74804 0.0
C3180 C 0.36625 0.36002 0.69467 0.0
C3181 C 0.35181 0.3556 0.69296 0.0
C3182 C 0.37558 0.37305 0.70191 0.0
C3183 C 0.38099 0.40796 0.71187 0.0
H3184 H 0.40324 0.4071 0.7483 0.0
C3185 C 0.41225 0.45585 0.75525 0.0
C3186 C 0.42535 0.45839 0.7613 0.0
C3187 C 0.40342 0.44357 0.7463 0.0
C3188 C 0.39732 0.40763 0.73799 0.0
H3189 H 0.33595 0.36158 0.69681 0.0
H3190 H 0.35235 0.38447 0.70919 0.0
H3191 H 0.3881 0.38556 0.73292 0.0
H3192 H 0.43929 0.44979 0.76276 0.0
H3193 H 0.42435 0.4289 0.74653 0.0
H3194 H 0.39037 0.43006 0.71669 0.0
C3195 C 0.35639 0.37781 0.70503 0.0
C3196 C 0.38861 0.39525 0.72921 0.0
C3197 C 0.34701 0.36469 0.69802 0.0
C3198 C 0.42941 0.44836 0.75808 0.0
C3199 C 0.42069 0.43621 0.74898 0.0
C3200 C 0.38987 0.42041 0.72051 0.0
C3201 C 0.3707 0.38199 0.70732 0.0
C3202 C 0.38032 0.39529 0.71612 0.0
C3203 C 0.40753 0.43358 0.74306 0.0
C3204 C 0.39812 0.42039 0.73372 0.0
H3205 H 0.37025 0.35323 0.6909 0.0
H3206 H 0.38661 0.3761 0.70343 0.0
H3207 H 0.37475 0.40826 0.70175 0.0
H3208 H 0.40882 0.46339 0.75731 0.0
H3209 H 0.39329 0.44184 0.74213 0.0
C3210 C 0.64311 0.02933 0.7052 0.0
C3211 C 0.64633 0.01943 0.69866 0.0
C3212 C 0.63126 0.02498 0.71536 0.0
C3213 C 0.59657 0.99418 0.72569 0.0
H3214 H 0.59947 0.01634 0.76439 0.0
C3215 C 0.54997 0.97758 0.77163 0.0
C3216 C 0.54772 0.98841 0.77717 0.0
C3217 C 0.56217 0.98079 0.76258 0.0
C3218 C 0.59846 0.0101 0.75355 0.0
H3219 H 0.63961 -0.00283 0.69771 0.0
H3220 H 0.6189 0.98959 0.71552 0.0
H3221 H 0.62052 0.02299 0.74764 0.0
H3222 H 0.55631 0.01106 0.7772 0.0
H3223 H 0.57753 0.01663 0.76144 0.0
H3224 H 0.57446 0.98139 0.73151 0.0
C3225 C 0.62552 0.00071 0.71266 0.0
C3226 C 0.61051 0.01391 0.74397 0.0
C3227 C 0.63742 0.00507 0.70253 0.0
C3228 C 0.55787 0.00249 0.77339 0.0
C3229 C 0.57004 0.00569 0.76437 0.0
C3230 C 0.58449 0.99037 0.73528 0.0
C3231 C 0.62234 0.01063 0.71919 0.0
C3232 C 0.60967 0.00609 0.72983 0.0
C3233 C 0.57235 0.99488 0.75889 0.0
C3234 C 0.58528 -0.0016 0.7492 0.0
H3235 H 0.64972 0.04047 0.70245 0.0
H3236 H 0.62897 0.03286 0.72001 0.0
H3237 H 0.59557 0.98804 0.71477 0.0
H3238 H 0.5424 0.96665 0.77449 0.0
H3239 H 0.56372 0.97224 0.75867 0.0
loop_
_geom_bond_atom_site_label_1
_geom_bond_atom_site_label_2
_geom_bond_distance
_geom_bond_site_symmetry_2
_ccdc_geom_bond_type
C0 O1 1.306 1_556 S
C0 O3 1.160 . S
O1 C0 1.306 1_554 S
O1 Cd2 2.228 . S
Cd2 O1 2.228 . S
Cd2 O6 2.273 . S
Cd2 O10 2.277 1_554 S
O3 C0 1.160 . S
O3 Cd4 2.203 1_656 S
Cd4 O3 2.203 1_454 S
Cd4 O6 2.411 1_455 S
Cd4 O7 2.333 . S
Cd4 O8 2.352 . S
Cd4 O12 2.277 1_554 S
Cd4 O13 2.356 . S
C5 O10 1.209 1_455 S
C5 O12 1.226 . S
O6 Cd2 2.273 . S
O6 Cd4 2.411 1_655 S
O6 C9 1.320 1_655 S
O7 Cd4 2.333 . S
O7 C9 1.214 . S
O8 Cd4 2.352 . S
O8 C11 1.258 . S
C9 O6 1.320 1_455 S
C9 O7 1.214 . S
O10 Cd2 2.277 1_556 S
O10 C5 1.209 1_655 S
C11 O8 1.258 . S
C11 O13 1.282 . S
O12 Cd4 2.277 1_556 S
O12 C5 1.226 . S
O13 Cd4 2.356 . S
O13 C11 1.282 . S
C14 O15 1.306 . S
C14 O17 1.160 . S
O15 C14 1.306 . S
O15 Cd16 2.228 . S
Cd16 O15 2.228 . S
Cd16 O20 2.273 1_554 S
Cd16 O24 2.277 . S
O17 C14 1.160 . S
O17 Cd18 2.203 . S
Cd18 O17 2.203 . S
Cd18 O20 2.411 1_554 S
Cd18 O21 2.333 1_554 S
Cd18 O22 2.352 1_554 S
Cd18 O26 2.277 . S
Cd18 O27 2.356 . S
C19 O24 1.209 . S
C19 O26 1.226 . S
O20 Cd16 2.273 1_556 S
O20 Cd18 2.411 1_556 S
O20 C23 1.320 . S
O21 Cd18 2.333 1_556 S
O21 C23 1.214 . S
O22 Cd18 2.352 1_556 S
O22 C25 1.258 . S
C23 O20 1.320 . S
C23 O21 1.214 . S
O24 Cd16 2.277 . S
O24 C19 1.209 . S
C25 O22 1.258 . S
C25 O27 1.282 1_556 S
O26 Cd18 2.277 . S
O26 C19 1.226 . S
O27 Cd18 2.356 . S
O27 C25 1.282 1_554 S
C28 O29 1.306 . S
C28 O31 1.160 . S
O29 C28 1.306 . S
O29 Cd30 2.228 . S
Cd30 O29 2.228 . S
Cd30 O34 2.273 1_554 S
Cd30 O38 2.277 . S
O31 C28 1.160 . S
O31 Cd32 2.203 1_565 S
Cd32 O31 2.203 1_545 S
Cd32 O34 2.411 1_544 S
Cd32 O35 2.333 1_554 S
Cd32 O36 2.352 1_554 S
Cd32 O40 2.277 . S
Cd32 O41 2.356 . S
C33 O38 1.209 1_545 S
C33 O40 1.226 . S
O34 Cd30 2.273 1_556 S
O34 Cd32 2.411 1_566 S
O34 C37 1.320 1_565 S
O35 Cd32 2.333 1_556 S
O35 C37 1.214 . S
O36 Cd32 2.352 1_556 S
O36 C39 1.258 . S
C37 O34 1.320 1_545 S
C37 O35 1.214 . S
O38 Cd30 2.277 . S
O38 C33 1.209 1_565 S
C39 O36 1.258 . S
C39 O41 1.282 1_556 S
O40 Cd32 2.277 . S
O40 C33 1.226 . S
O41 Cd32 2.356 . S
O41 C39 1.282 1_554 S
C42 O43 1.306 1_556 S
C42 O45 1.160 . S
O43 C42 1.306 1_554 S
O43 Cd44 2.228 . S
Cd44 O43 2.228 . S
Cd44 O48 2.273 . S
Cd44 O52 2.277 1_554 S
O45 C42 1.160 . S
O45 Cd46 2.203 1_656 S
Cd46 O45 2.203 1_454 S
Cd46 O48 2.411 1_455 S
Cd46 O49 2.333 . S
Cd46 O50 2.352 . S
Cd46 O54 2.277 1_554 S
Cd46 O55 2.356 . S
C47 O52 1.209 1_455 S
C47 O54 1.226 . S
O48 Cd44 2.273 . S
O48 Cd46 2.411 1_655 S
O48 C51 1.394 . S
O49 Cd46 2.333 . S
O49 C51 1.153 1_455 S
O50 Cd46 2.352 . S
O50 C53 1.258 . S
C51 O48 1.394 . S
C51 O49 1.153 1_655 S
O52 Cd44 2.277 1_556 S
O52 C47 1.209 1_655 S
C53 O50 1.258 . S
C53 O55 1.282 . S
O54 Cd46 2.277 1_556 S
O54 C47 1.226 . S
O55 Cd46 2.356 . S
O55 C53 1.282 . S
C56 O57 1.306 . S
C56 O59 1.160 . S
O57 C56 1.306 . S
O57 Cd58 2.228 . S
Cd58 O57 2.228 . S
Cd58 O62 2.273 1_554 S
Cd58 O66 2.277 . S
O59 C56 1.160 . S
O59 Cd60 2.203 . S
Cd60 O59 2.203 . S
Cd60 O62 2.411 1_554 S
Cd60 O63 2.333 1_554 S
Cd60 O64 2.352 1_554 S
Cd60 O68 2.277 . S
Cd60 O69 2.377 . S
C61 O66 1.209 . S
C61 O68 1.226 . S
O62 Cd58 2.273 1_556 S
O62 Cd60 2.411 1_556 S
O62 C65 1.320 . S
O63 Cd60 2.333 1_556 S
O63 C65 1.214 . S
O64 Cd60 2.352 1_556 S
O64 C67 1.258 . S
C65 O62 1.320 . S
C65 O63 1.214 . S
O66 Cd58 2.277 . S
O66 C61 1.209 . S
C67 O64 1.258 . S
C67 O69 1.242 1_556 S
O68 Cd60 2.277 . S
O68 C61 1.226 . S
O69 Cd60 2.377 . S
O69 C67 1.242 1_554 S
C70 O71 1.306 1_556 S
C70 O73 1.160 . S
O71 C70 1.306 1_554 S
O71 Cd72 2.228 . S
Cd72 O71 2.228 . S
Cd72 O76 2.273 . S
Cd72 O80 2.277 1_554 S
O73 C70 1.160 . S
O73 Cd74 2.203 1_546 S
Cd74 O73 2.203 1_564 S
Cd74 O76 2.411 1_565 S
Cd74 O77 2.333 . S
Cd74 O78 2.352 . S
Cd74 O82 2.277 1_554 S
Cd74 O83 2.356 . S
C75 O80 1.209 1_565 S
C75 O82 1.226 . S
O76 Cd72 2.273 . S
O76 Cd74 2.411 1_545 S
O76 C79 1.320 . S
O77 Cd74 2.333 . S
O77 C79 1.214 1_565 S
O78 Cd74 2.352 . S
O78 C81 1.258 . S
C79 O76 1.320 . S
C79 O77 1.214 1_545 S
O80 Cd72 2.277 1_556 S
O80 C75 1.209 1_545 S
C81 O78 1.258 . S
C81 O83 1.282 . S
O82 Cd74 2.277 1_556 S
O82 C75 1.226 . S
O83 Cd74 2.356 . S
O83 C81 1.282 . S
C84 O85 1.306 . S
C84 O87 1.160 . S
O85 C84 1.306 . S
O85 Cd86 2.228 . S
Cd86 O85 2.228 . S
Cd86 O90 2.273 . S
Cd86 O94 2.277 . S
O87 C84 1.160 . S
O87 Cd88 2.203 . S
Cd88 O87 2.203 . S
Cd88 O90 2.411 . S
Cd88 O91 2.333 . S
Cd88 O92 2.352 . S
Cd88 O96 2.277 . S
Cd88 O97 2.356 . S
C89 O94 1.209 . S
C89 O96 1.226 . S
O90 Cd86 2.273 . S
O90 Cd88 2.411 . S
O90 C93 1.320 . S
O91 Cd88 2.333 . S
O91 C93 1.214 . S
O92 Cd88 2.352 . S
O92 C95 1.258 . S
C93 O90 1.320 . S
C93 O91 1.214 . S
O94 Cd86 2.277 . S
O94 C89 1.209 . S
C95 O92 1.258 . S
C95 O97 1.282 . S
O96 Cd88 2.277 . S
O96 C89 1.226 . S
O97 Cd88 2.356 . S
O97 C95 1.282 . S
C98 O99 1.306 . S
C98 O101 1.160 . S
O99 C98 1.306 . S
O99 Cd100 2.228 1_545 S
Cd100 O99 2.228 1_565 S
Cd100 O104 2.273 . S
Cd100 O108 2.277 . S
O101 C98 1.160 . S
O101 Cd102 2.203 1_545 S
Cd102 O101 2.203 1_565 S
Cd102 O104 2.411 . S
Cd102 O105 2.333 . S
Cd102 O106 2.352 . S
Cd102 O110 2.277 . S
Cd102 O111 2.356 . S
C103 O108 1.209 . S
C103 O110 1.226 . S
O104 Cd100 2.273 . S
O104 Cd102 2.411 . S
O104 C107 1.320 . S
O105 Cd102 2.333 . S
O105 C107 1.214 . S
O106 Cd102 2.352 . S
O106 C109 1.258 . S
C107 O104 1.320 . S
C107 O105 1.214 . S
O108 Cd100 2.277 . S
O108 C103 1.209 . S
C109 O106 1.258 . S
C109 O111 1.282 . S
O110 Cd102 2.277 . S
O110 C103 1.226 . S
O111 Cd102 2.356 . S
O111 C109 1.282 . S
C112 O113 1.306 1_655 S
C112 O115 1.160 1_655 S
O113 C112 1.306 1_455 S
O113 Cd114 2.228 . S
Cd114 O113 2.228 . S
Cd114 O118 2.273 . S
Cd114 O122 2.277 . S
O115 C112 1.160 1_455 S
O115 Cd116 2.203 . S
Cd116 O115 2.203 . S
Cd116 O118 2.411 . S
Cd116 O119 2.333 . S
Cd116 O120 2.352 . S
Cd116 O124 2.277 . S
Cd116 O125 2.356 . S
C117 O122 1.209 . S
C117 O124 1.226 . S
O118 Cd114 2.273 . S
O118 Cd116 2.411 . S
O118 C121 1.320 . S
O119 Cd116 2.333 . S
O119 C121 1.214 . S
O120 Cd116 2.352 . S
O120 C123 1.258 . S
C121 O118 1.320 . S
C121 O119 1.214 . S
O122 Cd114 2.277 . S
O122 C117 1.209 . S
C123 O120 1.258 . S
C123 O125 1.282 . S
O124 Cd116 2.277 . S
O124 C117 1.226 . S
O125 Cd116 2.356 . S
O125 C123 1.282 . S
C126 O127 1.306 . S
C126 O129 1.160 . S
O127 C126 1.306 . S
O127 Cd128 2.228 . S
Cd128 O127 2.228 . S
Cd128 O132 2.273 . S
Cd128 O136 2.277 . S
O129 C126 1.160 . S
O129 Cd130 2.203 . S
Cd130 O129 2.203 . S
Cd130 O132 2.411 . S
Cd130 O133 2.333 . S
Cd130 O134 2.352 1_565 S
Cd130 O138 2.277 . S
Cd130 O139 2.356 1_565 S
C131 O136 1.209 . S
C131 O138 1.226 . S
O132 Cd128 2.273 . S
O132 Cd130 2.411 . S
O132 C135 1.320 . S
O133 Cd130 2.333 . S
O133 C135 1.214 . S
O134 Cd130 2.352 1_545 S
O134 C137 1.258 . S
C135 O132 1.320 . S
C135 O133 1.214 . S
O136 Cd128 2.277 . S
O136 C131 1.209 . S
C137 O134 1.258 . S
C137 O139 1.282 . S
O138 Cd130 2.277 . S
O138 C131 1.226 . S
O139 Cd130 2.356 1_545 S
O139 C137 1.282 . S
C140 O141 1.306 . S
C140 O143 1.160 1_655 S
O141 C140 1.306 . S
O141 Cd142 2.228 1_655 S
Cd142 O141 2.228 1_455 S
Cd142 O146 2.273 . S
Cd142 O150 2.277 . S
O143 C140 1.160 1_455 S
O143 Cd144 2.203 . S
Cd144 O143 2.203 . S
Cd144 O146 2.411 . S
Cd144 O147 2.333 . S
Cd144 O148 2.352 . S
Cd144 O152 2.277 . S
Cd144 O153 2.356 . S
C145 O150 1.209 . S
C145 O152 1.226 . S
O146 Cd142 2.273 . S
O146 Cd144 2.411 . S
O146 C149 1.320 . S
O147 Cd144 2.333 . S
O147 C149 1.214 . S
O148 Cd144 2.352 . S
O148 C151 1.258 . S
C149 O146 1.320 . S
C149 O147 1.214 . S
O150 Cd142 2.277 . S
O150 C145 1.209 . S
C151 O148 1.258 . S
C151 O153 1.282 . S
O152 Cd144 2.277 . S
O152 C145 1.226 . S
O153 Cd144 2.356 . S
O153 C151 1.282 . S
C154 O155 1.306 . S
C154 O157 1.160 . S
O155 C154 1.306 . S
O155 Cd156 2.228 . S
Cd156 O155 2.228 . S
Cd156 O160 2.273 . S
Cd156 O164 2.277 . S
O157 C154 1.160 . S
O157 Cd158 2.203 . S
Cd158 O157 2.203 . S
Cd158 O160 2.411 . S
Cd158 O161 2.333 . S
Cd158 O162 2.352 . S
Cd158 O166 2.277 . S
Cd158 O167 2.356 . S
C159 O164 1.209 . S
C159 O166 1.226 . S
O160 Cd156 2.273 . S
O160 Cd158 2.411 . S
O160 C163 1.320 . S
O161 Cd158 2.333 . S
O161 C163 1.214 . S
O162 Cd158 2.352 . S
O162 C165 1.258 . S
C163 O160 1.320 . S
C163 O161 1.214 . S
O164 Cd156 2.277 . S
O164 C159 1.209 . S
C165 O162 1.258 . S
C165 O167 1.282 . S
O166 Cd158 2.277 . S
O166 C159 1.226 . S
O167 Cd158 2.356 . S
O167 C165 1.282 . S
C168 O169 1.306 . S
C168 O171 1.160 1_565 S
O169 C168 1.306 . S
O169 Cd170 2.228 1_565 S
Cd170 O169 2.228 1_545 S
Cd170 O174 2.273 . S
Cd170 O178 2.277 . S
O171 C168 1.160 1_545 S
O171 Cd172 2.203 . S
Cd172 O171 2.203 . S
Cd172 O174 2.411 . S
Cd172 O175 2.333 . S
Cd172 O176 2.352 . S
Cd172 O180 2.277 . S
Cd172 O181 2.356 . S
C173 O178 1.209 . S
C173 O180 1.226 . S
O174 Cd170 2.273 . S
O174 Cd172 2.411 . S
O174 C177 1.320 . S
O175 Cd172 2.333 . S
O175 C177 1.214 . S
O176 Cd172 2.352 . S
O176 C179 1.258 . S
C177 O174 1.320 . S
C177 O175 1.214 . S
O178 Cd170 2.277 . S
O178 C173 1.209 . S
C179 O176 1.258 . S
C179 O181 1.282 . S
O180 Cd172 2.277 . S
O180 C173 1.226 . S
O181 Cd172 2.356 . S
O181 C179 1.282 . S
C182 O183 1.306 . S
C182 O185 1.160 . S
O183 C182 1.306 . S
O183 Cd184 2.228 . S
Cd184 O183 2.228 . S
Cd184 O188 2.273 . S
Cd184 O192 2.277 . S
O185 C182 1.160 . S
O185 Cd186 2.203 . S
Cd186 O185 2.203 . S
Cd186 O188 2.411 . S
Cd186 O189 2.333 . S
Cd186 O190 2.352 1_655 S
Cd186 O194 2.277 . S
Cd186 O195 2.356 1_655 S
C187 O192 1.209 . S
C187 O194 1.226 . S
O188 Cd184 2.273 . S
O188 Cd186 2.411 . S
O188 C191 1.320 . S
O189 Cd186 2.333 . S
O189 C191 1.214 . S
O190 Cd186 2.352 1_455 S
O190 C193 1.258 . S
C191 O188 1.320 . S
C191 O189 1.214 . S
O192 Cd184 2.277 . S
O192 C187 1.209 . S
C193 O190 1.258 . S
C193 O195 1.282 . S
O194 Cd186 2.277 . S
O194 C187 1.226 . S
O195 Cd186 2.356 1_455 S
O195 C193 1.282 . S
C196 O197 1.306 . S
C196 O199 1.160 . S
O197 C196 1.306 . S
O197 Cd198 2.228 . S
Cd198 O197 2.228 . S
Cd198 O202 2.273 . S
Cd198 O206 2.277 . S
O199 C196 1.160 . S
O199 Cd200 2.203 . S
Cd200 O199 2.203 . S
Cd200 O202 2.411 . S
Cd200 O203 2.333 . S
Cd200 O204 2.352 . S
Cd200 O208 2.277 . S
Cd200 O209 2.356 . S
C201 O206 1.209 . S
C201 O208 1.226 . S
O202 Cd198 2.273 . S
O202 Cd200 2.411 . S
O202 C205 1.320 . S
O203 Cd200 2.333 . S
O203 C205 1.214 . S
O204 Cd200 2.352 . S
O204 C207 1.258 . S
C205 O202 1.320 . S
C205 O203 1.214 . S
O206 Cd198 2.277 . S
O206 C201 1.209 . S
C207 O204 1.258 . S
C207 O209 1.282 . S
O208 Cd200 2.277 . S
O208 C201 1.226 . S
O209 Cd200 2.356 . S
O209 C207 1.282 . S
C210 O211 1.306 . S
C210 O213 1.160 . S
O211 C210 1.306 . S
O211 Cd212 2.228 . S
Cd212 O211 2.228 . S
Cd212 O216 2.273 . S
Cd212 O220 2.277 . S
O213 C210 1.160 . S
O213 Cd214 2.203 . S
Cd214 O213 2.203 . S
Cd214 O216 2.411 . S
Cd214 O217 2.333 . S
Cd214 O218 2.352 . S
Cd214 O222 2.277 . S
Cd214 O223 2.356 . S
C215 O220 1.209 . S
C215 O222 1.226 . S
O216 Cd212 2.273 . S
O216 Cd214 2.411 . S
O216 C219 1.320 . S
O217 Cd214 2.333 . S
O217 C219 1.214 . S
O218 Cd214 2.352 . S
O218 C221 1.258 . S
C219 O216 1.320 . S
C219 O217 1.214 . S
O220 Cd212 2.277 . S
O220 C215 1.209 . S
C221 O218 1.258 . S
C221 O223 1.282 . S
O222 Cd214 2.277 . S
O222 C215 1.226 . S
O223 Cd214 2.356 . S
O223 C221 1.282 . S
C224 O225 1.306 . S
C224 O227 1.160 . S
O225 C224 1.306 . S
O225 Cd226 2.228 . S
Cd226 O225 2.228 . S
Cd226 O230 2.273 . S
Cd226 O234 2.277 . S
O227 C224 1.160 . S
O227 Cd228 2.203 . S
Cd228 O227 2.203 . S
Cd228 O230 2.411 . S
Cd228 O231 2.333 . S
Cd228 O232 2.352 1_545 S
Cd228 O236 2.277 . S
Cd228 O237 2.356 1_545 S
C229 O234 1.209 . S
C229 O236 1.226 . S
O230 Cd226 2.273 . S
O230 Cd228 2.411 . S
O230 C233 1.320 . S
O231 Cd228 2.333 . S
O231 C233 1.214 . S
O232 Cd228 2.352 1_565 S
O232 C235 1.258 . S
C233 O230 1.320 . S
C233 O231 1.214 . S
O234 Cd226 2.277 . S
O234 C229 1.209 . S
C235 O232 1.258 . S
C235 O237 1.282 . S
O236 Cd228 2.277 . S
O236 C229 1.226 . S
O237 Cd228 2.356 1_565 S
O237 C235 1.282 . S
C238 O239 1.306 . S
C238 O241 1.160 . S
O239 C238 1.306 . S
O239 Cd240 2.228 1_455 S
Cd240 O239 2.228 1_655 S
Cd240 O244 2.273 . S
Cd240 O248 2.277 . S
O241 C238 1.160 . S
O241 Cd242 2.203 1_455 S
Cd242 O241 2.203 1_655 S
Cd242 O244 2.411 . S
Cd242 O245 2.333 . S
Cd242 O246 2.352 . S
Cd242 O250 2.277 . S
Cd242 O251 2.356 . S
C243 O248 1.209 . S
C243 O250 1.226 . S
O244 Cd240 2.273 . S
O244 Cd242 2.411 . S
O244 C247 1.320 . S
O245 Cd242 2.333 . S
O245 C247 1.214 . S
O246 Cd242 2.352 . S
O246 C249 1.258 . S
C247 O244 1.320 . S
C247 O245 1.214 . S
O248 Cd240 2.277 . S
O248 C243 1.209 . S
C249 O246 1.258 . S
C249 O251 1.282 . S
O250 Cd242 2.277 . S
O250 C243 1.226 . S
O251 Cd242 2.356 . S
O251 C249 1.282 . S
C252 C253 1.384 . S
C252 C254 1.384 . S
C252 H280 0.931 . S
C253 C252 1.384 . S
C253 C256 1.382 . S
C254 C252 1.384 . S
C254 C255 1.381 . S
C254 H281 0.930 . S
C255 C254 1.381 . S
C255 C257 1.381 . S
C255 C258 1.487 . S
C256 C253 1.382 . S
C256 C257 1.387 . S
C256 H282 0.930 . S
C257 C255 1.381 . S
C257 C256 1.387 . S
C257 H283 0.931 . S
C258 C255 1.487 . S
C258 C265 1.399 . S
C258 N296 1.343 . S
C259 C260 1.384 . S
C259 C261 1.384 . S
C259 H284 0.931 . S
C260 C259 1.384 . S
C260 C263 1.382 . S
C261 C259 1.384 . S
C261 C262 1.381 . S
C261 H285 0.930 . S
C262 C261 1.381 . S
C262 C264 1.381 . S
C262 C265 1.487 . S
C263 C260 1.382 . S
C263 C264 1.387 . S
C263 H286 0.930 . S
C264 C262 1.381 . S
C264 C263 1.387 . S
C264 H287 0.931 . S
C265 C258 1.399 . S
C265 C262 1.487 . S
C265 N297 1.343 . S
C266 C267 1.384 . S
C266 C268 1.384 . S
C266 H288 0.931 . S
C267 C266 1.384 . S
C267 C270 1.382 . S
C268 C266 1.384 . S
C268 C269 1.381 . S
C268 H289 0.930 . S
C269 C268 1.381 . S
C269 C271 1.381 . S
C269 C272 1.487 . S
C270 C267 1.382 . S
C270 C271 1.387 . S
C270 H290 0.930 . S
C271 C269 1.381 . S
C271 C270 1.387 . S
C271 H291 0.931 . S
C272 C269 1.487 . S
C272 C279 1.399 . S
C272 N297 1.343 . S
C273 C274 1.384 . S
C273 C275 1.384 . S
C273 H292 0.931 . S
C274 C273 1.384 . S
C274 C277 1.382 . S
C275 C273 1.384 . S
C275 C276 1.381 . S
C275 H293 0.930 . S
C276 C275 1.381 . S
C276 C278 1.381 . S
C276 C279 1.487 . S
C277 C274 1.382 . S
C277 C278 1.387 . S
C277 H294 0.930 . S
C278 C276 1.381 . S
C278 C277 1.387 . S
C278 H295 0.931 . S
C279 C272 1.399 . S
C279 C276 1.487 . S
C279 N296 1.343 . S
H280 C252 0.931 . S
H281 C254 0.930 . S
H282 C256 0.930 . S
H283 C257 0.931 . S
H284 C259 0.931 . S
H285 C261 0.930 . S
H286 C263 0.930 . S
H287 C264 0.931 . S
H288 C266 0.931 . S
H289 C268 0.930 . S
H290 C270 0.930 . S
H291 C271 0.931 . S
H292 C273 0.931 . S
H293 C275 0.930 . S
H294 C277 0.930 . S
H295 C278 0.931 . S
N296 C258 1.343 . S
N296 C279 1.343 . S
N297 C265 1.343 . S
N297 C272 1.343 . S
C298 C299 1.384 . S
C298 C300 1.384 . S
C298 H326 0.931 . S
C299 C298 1.384 . S
C299 C302 1.382 . S
C300 C298 1.384 . S
C300 C301 1.381 . S
C300 H327 0.930 . S
C301 C300 1.381 . S
C301 C303 1.381 . S
C301 C304 1.487 . S
C302 C299 1.382 . S
C302 C303 1.387 . S
C302 H328 0.930 . S
C303 C301 1.381 . S
C303 C302 1.387 . S
C303 H329 0.931 . S
C304 C301 1.487 . S
C304 C311 1.399 . S
C304 N342 1.343 . S
C305 C306 1.384 . S
C305 C307 1.384 . S
C305 H330 0.931 . S
C306 C305 1.384 . S
C306 C309 1.382 . S
C307 C305 1.384 . S
C307 C308 1.381 . S
C307 H331 0.930 . S
C308 C307 1.381 . S
C308 C310 1.381 . S
C308 C311 1.487 . S
C309 C306 1.382 . S
C309 C310 1.387 . S
C309 H332 0.930 . S
C310 C308 1.381 . S
C310 C309 1.387 . S
C310 H333 0.931 . S
C311 C304 1.399 . S
C311 C308 1.487 . S
C311 N343 1.343 . S
C312 C313 1.384 . S
C312 C314 1.384 . S
C312 H334 0.931 . S
C313 C312 1.384 . S
C313 C316 1.382 . S
C314 C312 1.384 . S
C314 C315 1.381 . S
C314 H335 0.930 . S
C315 C314 1.381 . S
C315 C317 1.381 . S
C315 C318 1.487 . S
C316 C313 1.382 . S
C316 C317 1.387 . S
C316 H336 0.930 . S
C317 C315 1.381 . S
C317 C316 1.387 . S
C317 H337 0.931 . S
C318 C315 1.487 . S
C318 C325 1.399 . S
C318 N343 1.343 . S
C319 C320 1.384 . S
C319 C321 1.384 . S
C319 H338 0.931 . S
C320 C319 1.384 . S
C320 C323 1.382 . S
C321 C319 1.384 . S
C321 C322 1.381 . S
C321 H339 0.930 . S
C322 C321 1.381 . S
C322 C324 1.381 . S
C322 C325 1.487 . S
C323 C320 1.382 . S
C323 C324 1.387 . S
C323 H340 0.930 . S
C324 C322 1.381 . S
C324 C323 1.387 . S
C324 H341 0.931 . S
C325 C318 1.399 . S
C325 C322 1.487 . S
C325 N342 1.343 . S
H326 C298 0.931 . S
H327 C300 0.930 . S
H328 C302 0.930 . S
H329 C303 0.931 . S
H330 C305 0.931 . S
H331 C307 0.930 . S
H332 C309 0.930 . S
H333 C310 0.931 . S
H334 C312 0.931 . S
H335 C314 0.930 . S
H336 C316 0.930 . S
H337 C317 0.931 . S
H338 C319 0.931 . S
H339 C321 0.930 . S
H340 C323 0.930 . S
H341 C324 0.931 . S
N342 C304 1.343 . S
N342 C325 1.343 . S
N343 C311 1.343 . S
N343 C318 1.343 . S
C344 C345 1.384 . S
C344 C346 1.384 . S
C344 H372 0.931 . S
C345 C344 1.384 . S
C345 C348 1.382 . S
C346 C344 1.384 . S
C346 C347 1.381 . S
C346 H373 0.930 . S
C347 C346 1.381 . S
C347 C349 1.381 . S
C347 C350 1.487 . S
C348 C345 1.382 . S
C348 C349 1.387 . S
C348 H374 0.930 . S
C349 C347 1.381 . S
C349 C348 1.387 . S
C349 H375 0.931 . S
C350 C347 1.487 . S
C350 C357 1.399 . S
C350 N388 1.343 . S
C351 C352 1.384 . S
C351 C353 1.384 . S
C351 H376 0.931 . S
C352 C351 1.384 . S
C352 C355 1.382 . S
C353 C351 1.384 . S
C353 C354 1.381 . S
C353 H377 0.930 . S
C354 C353 1.381 . S
C354 C356 1.381 . S
C354 C357 1.487 . S
C355 C352 1.382 . S
C355 C356 1.387 . S
C355 H378 0.930 . S
C356 C354 1.381 . S
C356 C355 1.387 . S
C356 H379 0.931 . S
C357 C350 1.399 . S
C357 C354 1.487 . S
C357 N389 1.343 . S
C358 C359 1.384 . S
C358 C360 1.384 . S
C358 H380 0.931 . S
C359 C358 1.384 . S
C359 C362 1.382 . S
C360 C358 1.384 . S
C360 C361 1.381 . S
C360 H381 0.930 . S
C361 C360 1.381 . S
C361 C363 1.381 . S
C361 C364 1.487 . S
C362 C359 1.382 . S
C362 C363 1.387 . S
C362 H382 0.930 . S
C363 C361 1.381 . S
C363 C362 1.387 . S
C363 H383 0.931 . S
C364 C361 1.487 . S
C364 C371 1.399 . S
C364 N389 1.343 . S
C365 C366 1.384 . S
C365 C367 1.384 . S
C365 H384 0.931 . S
C366 C365 1.384 . S
C366 C369 1.382 . S
C367 C365 1.384 . S
C367 C368 1.381 . S
C367 H385 0.930 . S
C368 C367 1.381 . S
C368 C370 1.381 . S
C368 C371 1.487 . S
C369 C366 1.382 . S
C369 C370 1.387 . S
C369 H386 0.930 . S
C370 C368 1.381 . S
C370 C369 1.387 . S
C370 H387 0.931 . S
C371 C364 1.399 . S
C371 C368 1.487 . S
C371 N388 1.343 . S
H372 C344 0.931 . S
H373 C346 0.930 . S
H374 C348 0.930 . S
H375 C349 0.931 . S
H376 C351 0.931 . S
H377 C353 0.930 . S
H378 C355 0.930 . S
H379 C356 0.931 . S
H380 C358 0.931 . S
H381 C360 0.930 . S
H382 C362 0.930 . S
H383 C363 0.931 . S
H384 C365 0.931 . S
H385 C367 0.930 . S
H386 C369 0.930 . S
H387 C370 0.931 . S
N388 C350 1.343 . S
N388 C371 1.343 . S
N389 C357 1.343 . S
N389 C364 1.343 . S
C390 C391 1.384 . S
C390 C392 1.384 . S
C390 H418 0.931 . S
C391 C390 1.384 . S
C391 C394 1.382 . S
C392 C390 1.384 . S
C392 C393 1.381 . S
C392 H419 0.930 . S
C393 C392 1.381 . S
C393 C395 1.381 . S
C393 C396 1.487 . S
C394 C391 1.382 . S
C394 C395 1.387 . S
C394 H420 0.930 . S
C395 C393 1.381 . S
C395 C394 1.387 . S
C395 H421 0.931 . S
C396 C393 1.487 . S
C396 C403 1.399 . S
C396 N434 1.343 . S
C397 C398 1.384 . S
C397 C399 1.384 . S
C397 H422 0.931 . S
C398 C397 1.384 . S
C398 C401 1.382 . S
C399 C397 1.384 . S
C399 C400 1.381 . S
C399 H423 0.930 . S
C400 C399 1.381 . S
C400 C402 1.381 . S
C400 C403 1.487 . S
C401 C398 1.382 . S
C401 C402 1.387 . S
C401 H424 0.930 . S
C402 C400 1.381 . S
C402 C401 1.387 . S
C402 H425 0.931 . S
C403 C396 1.399 . S
C403 C400 1.487 . S
C403 N435 1.343 . S
C404 C405 1.384 . S
C404 C406 1.384 . S
C404 H426 0.931 . S
C405 C404 1.384 . S
C405 C408 1.382 . S
C406 C404 1.384 . S
C406 C407 1.381 . S
C406 H427 0.930 . S
C407 C406 1.381 . S
C407 C409 1.381 . S
C407 C410 1.487 . S
C408 C405 1.382 . S
C408 C409 1.387 . S
C408 H428 0.930 . S
C409 C407 1.381 . S
C409 C408 1.387 . S
C409 H429 0.931 . S
C410 C407 1.487 . S
C410 C417 1.399 . S
C410 N435 1.343 . S
C411 C412 1.384 . S
C411 C413 1.384 . S
C411 H430 0.931 . S
C412 C411 1.384 . S
C412 C415 1.382 . S
C413 C411 1.384 . S
C413 C414 1.381 . S
C413 H431 0.930 . S
C414 C413 1.381 . S
C414 C416 1.381 . S
C414 C417 1.487 . S
C415 C412 1.382 . S
C415 C416 1.387 . S
C415 H432 0.930 . S
C416 C414 1.381 . S
C416 C415 1.387 . S
C416 H433 0.931 . S
C417 C410 1.399 . S
C417 C414 1.487 . S
C417 N434 1.343 . S
H418 C390 0.931 . S
H419 C392 0.930 . S
H420 C394 0.930 . S
H421 C395 0.931 . S
H422 C397 0.931 . S
H423 C399 0.930 . S
H424 C401 0.930 . S
H425 C402 0.931 . S
H426 C404 0.931 . S
H427 C406 0.930 . S
H428 C408 0.930 . S
H429 C409 0.931 . S
H430 C411 0.931 . S
H431 C413 0.930 . S
H432 C415 0.930 . S
H433 C416 0.931 . S
N434 C396 1.343 . S
N434 C417 1.343 . S
N435 C403 1.343 . S
N435 C410 1.343 . S
C436 C437 1.384 . S
C436 C438 1.384 . S
C436 H464 0.931 . S
C437 C436 1.384 . S
C437 C440 1.382 . S
C438 C436 1.384 . S
C438 C439 1.381 . S
C438 H465 0.930 . S
C439 C438 1.381 . S
C439 C441 1.381 . S
C439 C442 1.487 . S
C440 C437 1.382 . S
C440 C441 1.387 . S
C440 H466 0.930 . S
C441 C439 1.381 . S
C441 C440 1.387 . S
C441 H467 0.931 . S
C442 C439 1.487 . S
C442 C449 1.399 . S
C442 N480 1.343 . S
C443 C444 1.384 . S
C443 C445 1.384 . S
C443 H468 0.931 . S
C444 C443 1.384 . S
C444 C447 1.382 . S
C445 C443 1.384 . S
C445 C446 1.381 . S
C445 H469 0.930 . S
C446 C445 1.381 . S
C446 C448 1.381 . S
C446 C449 1.487 . S
C447 C444 1.382 . S
C447 C448 1.387 . S
C447 H470 0.930 . S
C448 C446 1.381 . S
C448 C447 1.387 . S
C448 H471 0.931 . S
C449 C442 1.399 . S
C449 C446 1.487 . S
C449 N481 1.343 . S
C450 C451 1.384 . S
C450 C452 1.384 . S
C450 H472 0.931 . S
C451 C450 1.384 . S
C451 C454 1.382 . S
C452 C450 1.384 . S
C452 C453 1.381 . S
C452 H473 0.930 . S
C453 C452 1.381 . S
C453 C455 1.381 . S
C453 C456 1.487 . S
C454 C451 1.382 . S
C454 C455 1.387 . S
C454 H474 0.930 . S
C455 C453 1.381 . S
C455 C454 1.387 . S
C455 H475 0.931 . S
C456 C453 1.487 . S
C456 C463 1.399 . S
C456 N481 1.343 . S
C457 C458 1.384 . S
C457 C459 1.384 . S
C457 H476 0.931 . S
C458 C457 1.384 . S
C458 C461 1.382 . S
C459 C457 1.384 . S
C459 C460 1.381 . S
C459 H477 0.930 . S
C460 C459 1.381 . S
C460 C462 1.381 . S
C460 C463 1.487 . S
C461 C458 1.382 . S
C461 C462 1.387 . S
C461 H478 0.930 . S
C462 C460 1.381 . S
C462 C461 1.387 . S
C462 H479 0.931 . S
C463 C456 1.399 . S
C463 C460 1.487 . S
C463 N480 1.343 . S
H464 C436 0.931 . S
H465 C438 0.930 . S
H466 C440 0.930 . S
H467 C441 0.931 . S
H468 C443 0.931 . S
H469 C445 0.930 . S
H470 C447 0.930 . S
H471 C448 0.931 . S
H472 C450 0.931 . S
H473 C452 0.930 . S
H474 C454 0.930 . S
H475 C455 0.931 . S
H476 C457 0.931 . S
H477 C459 0.930 . S
H478 C461 0.930 . S
H479 C462 0.931 . S
N480 C442 1.343 . S
N480 C463 1.343 . S
N481 C449 1.343 . S
N481 C456 1.343 . S
C482 C483 1.384 . S
C482 C484 1.384 . S
C482 H510 0.931 . S
C483 C482 1.384 . S
C483 C486 1.382 . S
C484 C482 1.384 . S
C484 C485 1.381 . S
C484 H511 0.930 . S
C485 C484 1.381 . S
C485 C487 1.381 . S
C485 C488 1.487 . S
C486 C483 1.382 . S
C486 C487 1.387 . S
C486 H512 0.930 . S
C487 C485 1.381 . S
C487 C486 1.387 . S
C487 H513 0.931 . S
C488 C485 1.487 . S
C488 C495 1.399 . S
C488 N526 1.343 . S
C489 C490 1.384 . S
C489 C491 1.384 . S
C489 H514 0.931 . S
C490 C489 1.384 . S
C490 C493 1.382 . S
C491 C489 1.384 . S
C491 C492 1.381 . S
C491 H515 0.930 . S
C492 C491 1.381 . S
C492 C494 1.381 . S
C492 C495 1.487 . S
C493 C490 1.382 . S
C493 C494 1.387 . S
C493 H516 0.930 . S
C494 C492 1.381 . S
C494 C493 1.387 . S
C494 H517 0.931 . S
C495 C488 1.399 . S
C495 C492 1.487 . S
C495 N527 1.343 . S
C496 C497 1.384 . S
C496 C498 1.384 . S
C496 H518 0.931 . S
C497 C496 1.384 . S
C497 C500 1.382 . S
C498 C496 1.384 . S
C498 C499 1.381 . S
C498 H519 0.930 . S
C499 C498 1.381 . S
C499 C501 1.381 . S
C499 C502 1.487 . S
C500 C497 1.382 . S
C500 C501 1.387 . S
C500 H520 0.930 . S
C501 C499 1.381 . S
C501 C500 1.387 . S
C501 H521 0.931 . S
C502 C499 1.487 . S
C502 C509 1.399 . S
C502 N527 1.343 . S
C503 C504 1.384 . S
C503 C505 1.384 . S
C503 H522 0.931 . S
C504 C503 1.384 . S
C504 C507 1.382 . S
C505 C503 1.384 . S
C505 C506 1.381 . S
C505 H523 0.930 . S
C506 C505 1.381 . S
C506 C508 1.381 . S
C506 C509 1.487 . S
C507 C504 1.382 . S
C507 C508 1.387 . S
C507 H524 0.930 . S
C508 C506 1.381 . S
C508 C507 1.387 . S
C508 H525 0.931 . S
C509 C502 1.399 . S
C509 C506 1.487 . S
C509 N526 1.343 . S
H510 C482 0.931 . S
H511 C484 0.930 . S
H512 C486 0.930 . S
H513 C487 0.931 . S
H514 C489 0.931 . S
H515 C491 0.930 . S
H516 C493 0.930 . S
H517 C494 0.931 . S
H518 C496 0.931 . S
H519 C498 0.930 . S
H520 C500 0.930 . S
H521 C501 0.931 . S
H522 C503 0.931 . S
H523 C505 0.930 . S
H524 C507 0.930 . S
H525 C508 0.931 . S
N526 C488 1.343 . S
N526 C509 1.343 . S
N527 C495 1.343 . S
N527 C502 1.343 . S
C528 C529 1.384 . S
C528 C530 1.384 . S
C528 H556 0.931 . S
C529 C528 1.384 . S
C529 C532 1.382 . S
C530 C528 1.384 . S
C530 C531 1.381 . S
C530 H557 0.930 . S
C531 C530 1.381 . S
C531 C533 1.381 . S
C531 C534 1.487 . S
C532 C529 1.382 . S
C532 C533 1.387 . S
C532 H558 0.930 . S
C533 C531 1.381 . S
C533 C532 1.387 . S
C533 H559 0.931 . S
C534 C531 1.487 . S
C534 C541 1.399 . S
C534 N572 1.343 . S
C535 C536 1.384 . S
C535 C537 1.384 . S
C535 H560 0.931 . S
C536 C535 1.384 . S
C536 C539 1.382 . S
C537 C535 1.384 . S
C537 C538 1.381 . S
C537 H561 0.930 . S
C538 C537 1.381 . S
C538 C540 1.381 . S
C538 C541 1.487 . S
C539 C536 1.382 . S
C539 C540 1.387 . S
C539 H562 0.930 . S
C540 C538 1.381 . S
C540 C539 1.387 . S
C540 H563 0.931 . S
C541 C534 1.399 . S
C541 C538 1.487 . S
C541 N573 1.343 . S
C542 C543 1.384 . S
C542 C544 1.384 . S
C542 H564 0.931 . S
C543 C542 1.384 . S
C543 C546 1.382 . S
C544 C542 1.384 . S
C544 C545 1.381 . S
C544 H565 0.930 . S
C545 C544 1.381 . S
C545 C547 1.381 . S
C545 C548 1.487 . S
C546 C543 1.382 . S
C546 C547 1.387 . S
C546 H566 0.930 . S
C547 C545 1.381 . S
C547 C546 1.387 . S
C547 H567 0.931 . S
C548 C545 1.487 . S
C548 C555 1.399 . S
C548 N573 1.343 . S
C549 C550 1.384 . S
C549 C551 1.384 . S
C549 H568 0.931 . S
C550 C549 1.384 . S
C550 C553 1.382 . S
C551 C549 1.384 . S
C551 C552 1.381 . S
C551 H569 0.930 . S
C552 C551 1.381 . S
C552 C554 1.381 . S
C552 C555 1.487 . S
C553 C550 1.382 . S
C553 C554 1.387 . S
C553 H570 0.930 . S
C554 C552 1.381 . S
C554 C553 1.387 . S
C554 H571 0.931 . S
C555 C548 1.399 . S
C555 C552 1.487 . S
C555 N572 1.343 . S
H556 C528 0.931 . S
H557 C530 0.930 . S
H558 C532 0.930 . S
H559 C533 0.931 . S
H560 C535 0.931 . S
H561 C537 0.930 . S
H562 C539 0.930 . S
H563 C540 0.931 . S
H564 C542 0.931 . S
H565 C544 0.930 . S
H566 C546 0.930 . S
H567 C547 0.931 . S
H568 C549 0.931 . S
H569 C551 0.930 . S
H570 C553 0.930 . S
H571 C554 0.931 . S
N572 C534 1.343 . S
N572 C555 1.343 . S
N573 C541 1.343 . S
N573 C548 1.343 . S
C574 C575 1.384 . S
C574 C576 1.384 . S
C574 H602 0.931 . S
C575 C574 1.384 . S
C575 C578 1.382 . S
C576 C574 1.384 . S
C576 C577 1.381 . S
C576 H603 0.930 . S
C577 C576 1.381 . S
C577 C579 1.381 . S
C577 C580 1.487 . S
C578 C575 1.382 . S
C578 C579 1.387 . S
C578 H604 0.930 . S
C579 C577 1.381 . S
C579 C578 1.387 . S
C579 H605 0.931 . S
C580 C577 1.487 . S
C580 C587 1.399 . S
C580 N618 1.343 . S
C581 C582 1.384 . S
C581 C583 1.384 . S
C581 H606 0.931 . S
C582 C581 1.384 . S
C582 C585 1.382 . S
C583 C581 1.384 . S
C583 C584 1.381 . S
C583 H607 0.930 . S
C584 C583 1.381 . S
C584 C586 1.381 . S
C584 C587 1.487 . S
C585 C582 1.382 . S
C585 C586 1.387 . S
C585 H608 0.930 . S
C586 C584 1.381 . S
C586 C585 1.387 . S
C586 H609 0.931 . S
C587 C580 1.399 . S
C587 C584 1.487 . S
C587 N619 1.343 . S
C588 C589 1.384 . S
C588 C590 1.384 . S
C588 H610 0.931 . S
C589 C588 1.384 . S
C589 C592 1.382 . S
C590 C588 1.384 . S
C590 C591 1.381 . S
C590 H611 0.930 . S
C591 C590 1.381 . S
C591 C593 1.381 . S
C591 C594 1.487 . S
C592 C589 1.382 . S
C592 C593 1.387 . S
C592 H612 0.930 . S
C593 C591 1.381 . S
C593 C592 1.387 . S
C593 H613 0.931 . S
C594 C591 1.487 . S
C594 C601 1.399 . S
C594 N619 1.343 . S
C595 C596 1.384 . S
C595 C597 1.384 . S
C595 H614 0.931 . S
C596 C595 1.384 . S
C596 C599 1.382 . S
C597 C595 1.384 . S
C597 C598 1.381 . S
C597 H615 0.930 . S
C598 C597 1.381 . S
C598 C600 1.381 . S
C598 C601 1.487 . S
C599 C596 1.382 . S
C599 C600 1.387 . S
C599 H616 0.930 . S
C600 C598 1.381 . S
C600 C599 1.387 . S
C600 H617 0.931 . S
C601 C594 1.399 . S
C601 C598 1.487 . S
C601 N618 1.343 . S
H602 C574 0.931 . S
H603 C576 0.930 . S
H604 C578 0.930 . S
H605 C579 0.931 . S
H606 C581 0.931 . S
H607 C583 0.930 . S
H608 C585 0.930 . S
H609 C586 0.931 . S
H610 C588 0.931 . S
H611 C590 0.930 . S
H612 C592 0.930 . S
H613 C593 0.931 . S
H614 C595 0.931 . S
H615 C597 0.930 . S
H616 C599 0.930 . S
H617 C600 0.931 . S
N618 C580 1.343 . S
N618 C601 1.343 . S
N619 C587 1.343 . S
N619 C594 1.343 . S
C620 C621 1.384 . S
C620 C622 1.384 . S
C620 H648 0.931 . S
C621 C620 1.384 . S
C621 C624 1.382 . S
C622 C620 1.384 . S
C622 C623 1.381 . S
C622 H649 0.930 . S
C623 C622 1.381 . S
C623 C625 1.381 . S
C623 C626 1.487 . S
C624 C621 1.382 . S
C624 C625 1.387 . S
C624 H650 0.930 . S
C625 C623 1.381 . S
C625 C624 1.387 . S
C625 H651 0.931 . S
C626 C623 1.487 . S
C626 C633 1.399 . S
C626 N664 1.343 . S
C627 C628 1.384 . S
C627 C629 1.384 . S
C627 H652 0.931 . S
C628 C627 1.384 . S
C628 C631 1.382 . S
C629 C627 1.384 . S
C629 C630 1.381 . S
C629 H653 0.930 . S
C630 C629 1.381 . S
C630 C632 1.381 . S
C630 C633 1.487 . S
C631 C628 1.382 . S
C631 C632 1.387 . S
C631 H654 0.930 . S
C632 C630 1.381 . S
C632 C631 1.387 . S
C632 H655 0.931 . S
C633 C626 1.399 . S
C633 C630 1.487 . S
C633 N665 1.343 . S
C634 C635 1.384 . S
C634 C636 1.384 . S
C634 H656 0.931 . S
C635 C634 1.384 . S
C635 C638 1.382 . S
C636 C634 1.384 . S
C636 C637 1.381 . S
C636 H657 0.930 . S
C637 C636 1.381 . S
C637 C639 1.381 . S
C637 C640 1.487 . S
C638 C635 1.382 . S
C638 C639 1.387 . S
C638 H658 0.930 . S
C639 C637 1.381 . S
C639 C638 1.387 . S
C639 H659 0.931 . S
C640 C637 1.487 . S
C640 C647 1.399 . S
C640 N665 1.343 . S
C641 C642 1.384 . S
C641 C643 1.384 . S
C641 H660 0.931 . S
C642 C641 1.384 . S
C642 C645 1.382 . S
C643 C641 1.384 . S
C643 C644 1.381 . S
C643 H661 0.930 . S
C644 C643 1.381 . S
C644 C646 1.381 . S
C644 C647 1.487 . S
C645 C642 1.382 . S
C645 C646 1.387 . S
C645 H662 0.930 . S
C646 C644 1.381 . S
C646 C645 1.387 . S
C646 H663 0.931 . S
C647 C640 1.399 . S
C647 C644 1.487 . S
C647 N664 1.343 . S
H648 C620 0.931 . S
H649 C622 0.930 . S
H650 C624 0.930 . S
H651 C625 0.931 . S
H652 C627 0.931 . S
H653 C629 0.930 . S
H654 C631 0.930 . S
H655 C632 0.931 . S
H656 C634 0.931 . S
H657 C636 0.930 . S
H658 C638 0.930 . S
H659 C639 0.931 . S
H660 C641 0.931 . S
H661 C643 0.930 . S
H662 C645 0.930 . S
H663 C646 0.931 . S
N664 C626 1.343 . S
N664 C647 1.343 . S
N665 C633 1.343 . S
N665 C640 1.343 . S
C666 C667 1.384 . S
C666 C668 1.384 . S
C666 H694 0.931 . S
C667 C666 1.384 . S
C667 C670 1.382 1_655 S
C668 C666 1.384 . S
C668 C669 1.398 . S
C668 H695 0.930 . S
C669 C668 1.398 . S
C669 C671 1.373 1_655 S
C669 C672 1.475 1_655 S
C670 C667 1.382 1_455 S
C670 C671 1.387 . S
C670 H696 0.930 . S
C671 C669 1.373 1_455 S
C671 C670 1.387 . S
C671 H697 0.931 . S
C672 C669 1.475 1_455 S
C672 C679 1.399 1_455 S
C672 N710 1.315 . S
C673 C674 1.384 . S
C673 C675 1.384 . S
C673 H698 0.931 . S
C674 C673 1.384 . S
C674 C677 1.382 1_455 S
C675 C673 1.384 . S
C675 C676 1.382 . S
C675 H699 0.930 . S
C676 C675 1.382 . S
C676 C678 1.381 1_455 S
C676 C679 1.490 1_455 S
C677 C674 1.382 1_655 S
C677 C678 1.387 . S
C677 H700 0.930 . S
C678 C676 1.381 1_655 S
C678 C677 1.387 . S
C678 H701 0.931 . S
C679 C672 1.399 1_655 S
C679 C676 1.490 1_655 S
C679 N711 1.362 . S
C680 C681 1.384 . S
C680 C682 1.384 . S
C680 H702 0.931 . S
C681 C680 1.384 . S
C681 C684 1.382 1_455 S
C682 C680 1.384 . S
C682 C683 1.418 . S
C682 H703 0.930 . S
C683 C682 1.418 . S
C683 C685 1.363 1_455 S
C683 C686 1.466 . S
C684 C681 1.382 1_655 S
C684 C685 1.387 . S
C684 H704 0.930 . S
C685 C683 1.363 1_655 S
C685 C684 1.387 . S
C685 H705 0.931 . S
C686 C683 1.466 . S
C686 C693 1.399 . S
C686 N711 1.325 1_455 S
C687 C688 1.384 . S
C687 C689 1.384 . S
C687 H706 0.931 . S
C688 C687 1.384 . S
C688 C691 1.382 1_655 S
C689 C687 1.384 . S
C689 C690 1.382 1_655 S
C689 H707 0.930 . S
C690 C689 1.382 1_455 S
C690 C692 1.381 . S
C690 C693 1.499 . S
C691 C688 1.382 1_455 S
C691 C692 1.387 . S
C691 H708 0.930 . S
C692 C690 1.381 . S
C692 C691 1.387 . S
C692 H709 0.931 . S
C693 C686 1.399 . S
C693 C690 1.499 . S
C693 N710 1.362 . S
H694 C666 0.931 . S
H695 C668 0.930 . S
H696 C670 0.930 . S
H697 C671 0.931 . S
H698 C673 0.931 . S
H699 C675 0.930 . S
H700 C677 0.930 . S
H701 C678 0.931 . S
H702 C680 0.931 . S
H703 C682 0.930 . S
H704 C684 0.930 . S
H705 C685 0.931 . S
H706 C687 0.931 . S
H707 C689 0.930 . S
H708 C691 0.930 . S
H709 C692 0.931 . S
N710 C672 1.315 . S
N710 C693 1.362 . S
N711 C679 1.362 . S
N711 C686 1.325 1_655 S
C712 C713 1.384 . S
C712 C714 1.384 . S
C712 H740 0.931 . S
C713 C712 1.384 . S
C713 C716 1.382 . S
C714 C712 1.384 . S
C714 C715 1.381 . S
C714 H741 0.930 . S
C715 C714 1.381 . S
C715 C717 1.381 . S
C715 C718 1.487 . S
C716 C713 1.382 . S
C716 C717 1.387 . S
C716 H742 0.930 . S
C717 C715 1.381 . S
C717 C716 1.387 . S
C717 H743 0.931 . S
C718 C715 1.487 . S
C718 C725 1.399 . S
C718 N756 1.343 . S
C719 C720 1.384 . S
C719 C721 1.384 . S
C719 H744 0.931 . S
C720 C719 1.384 . S
C720 C723 1.382 . S
C721 C719 1.384 . S
C721 C722 1.381 . S
C721 H745 0.930 . S
C722 C721 1.381 . S
C722 C724 1.381 . S
C722 C725 1.487 . S
C723 C720 1.382 . S
C723 C724 1.387 . S
C723 H746 0.930 . S
C724 C722 1.381 . S
C724 C723 1.387 . S
C724 H747 0.931 . S
C725 C718 1.399 . S
C725 C722 1.487 . S
C725 N757 1.343 . S
C726 C727 1.384 . S
C726 C728 1.384 . S
C726 H748 0.931 . S
C727 C726 1.384 . S
C727 C730 1.382 . S
C728 C726 1.384 . S
C728 C729 1.381 . S
C728 H749 0.930 . S
C729 C728 1.381 . S
C729 C731 1.381 . S
C729 C732 1.487 . S
C730 C727 1.382 . S
C730 C731 1.387 . S
C730 H750 0.930 . S
C731 C729 1.381 . S
C731 C730 1.387 . S
C731 H751 0.931 . S
C732 C729 1.487 . S
C732 C739 1.399 . S
C732 N757 1.343 . S
C733 C734 1.384 . S
C733 C735 1.384 . S
C733 H752 0.931 . S
C734 C733 1.384 . S
C734 C737 1.382 . S
C735 C733 1.384 . S
C735 C736 1.381 . S
C735 H753 0.930 . S
C736 C735 1.381 . S
C736 C738 1.381 . S
C736 C739 1.487 . S
C737 C734 1.382 . S
C737 C738 1.387 . S
C737 H754 0.930 . S
C738 C736 1.381 . S
C738 C737 1.387 . S
C738 H755 0.931 . S
C739 C732 1.399 . S
C739 C736 1.487 . S
C739 N756 1.343 . S
H740 C712 0.931 . S
H741 C714 0.930 . S
H742 C716 0.930 . S
H743 C717 0.931 . S
H744 C719 0.931 . S
H745 C721 0.930 . S
H746 C723 0.930 . S
H747 C724 0.931 . S
H748 C726 0.931 . S
H749 C728 0.930 . S
H750 C730 0.930 . S
H751 C731 0.931 . S
H752 C733 0.931 . S
H753 C735 0.930 . S
H754 C737 0.930 . S
H755 C738 0.931 . S
N756 C718 1.343 . S
N756 C739 1.343 . S
N757 C725 1.343 . S
N757 C732 1.343 . S
C758 C759 1.384 1_545 S
C758 C760 1.384 . S
C758 H786 0.931 . S
C759 C758 1.384 1_565 S
C759 C762 1.382 . S
C760 C758 1.384 . S
C760 C761 1.381 1_545 S
C760 H787 0.930 . S
C761 C760 1.381 1_565 S
C761 C763 1.381 . S
C761 C764 1.487 . S
C762 C759 1.382 . S
C762 C763 1.387 . S
C762 H788 0.930 . S
C763 C761 1.381 . S
C763 C762 1.387 . S
C763 H789 0.931 . S
C764 C761 1.487 . S
C764 C771 1.399 1_565 S
C764 N802 1.343 . S
C765 C766 1.384 1_565 S
C765 C767 1.384 . S
C765 H790 0.931 . S
C766 C765 1.384 1_545 S
C766 C769 1.382 . S
C767 C765 1.384 . S
C767 C768 1.381 1_565 S
C767 H791 0.930 . S
C768 C767 1.381 1_545 S
C768 C770 1.381 . S
C768 C771 1.487 . S
C769 C766 1.382 . S
C769 C770 1.387 . S
C769 H792 0.930 . S
C770 C768 1.381 . S
C770 C769 1.387 . S
C770 H793 0.931 . S
C771 C764 1.399 1_545 S
C771 C768 1.487 . S
C771 N803 1.343 . S
C772 C773 1.384 1_565 S
C772 C774 1.384 . S
C772 H794 0.931 . S
C773 C772 1.384 1_545 S
C773 C776 1.382 . S
C774 C772 1.384 . S
C774 C775 1.381 1_565 S
C774 H795 0.930 . S
C775 C774 1.381 1_545 S
C775 C777 1.381 . S
C775 C778 1.457 . S
C776 C773 1.382 . S
C776 C777 1.387 . S
C776 H796 0.930 . S
C777 C775 1.381 . S
C777 C776 1.387 . S
C777 H797 0.931 . S
C778 C775 1.457 . S
C778 C785 1.390 1_545 S
C778 N803 1.390 . S
C779 C780 1.384 1_545 S
C779 C781 1.384 . S
C779 H798 0.931 . S
C780 C779 1.384 1_565 S
C780 C783 1.382 . S
C781 C779 1.384 . S
C781 C782 1.381 1_545 S
C781 H799 0.930 . S
C782 C781 1.381 1_565 S
C782 C784 1.381 . S
C782 C785 1.487 . S
C783 C780 1.382 . S
C783 C784 1.387 . S
C783 H800 0.930 . S
C784 C782 1.381 . S
C784 C783 1.387 . S
C784 H801 0.931 . S
C785 C778 1.390 1_565 S
C785 C782 1.487 . S
C785 N802 1.343 . S
H786 C758 0.931 . S
H787 C760 0.930 . S
H788 C762 0.930 . S
H789 C763 0.931 . S
H790 C765 0.931 . S
H791 C767 0.930 . S
H792 C769 0.930 . S
H793 C770 0.931 . S
H794 C772 0.931 . S
H795 C774 0.930 . S
H796 C776 0.930 . S
H797 C777 0.931 . S
H798 C779 0.931 . S
H799 C781 0.930 . S
H800 C783 0.930 . S
H801 C784 0.931 . S
N802 C764 1.343 . S
N802 C785 1.343 . S
N803 C771 1.343 . S
N803 C778 1.390 . S
C804 C805 1.384 . S
C804 C806 1.384 . S
C804 H832 0.931 . S
C805 C804 1.384 . S
C805 C808 1.382 1_545 S
C806 C804 1.384 . S
C806 C807 1.380 . S
C806 H833 0.930 . S
C807 C806 1.380 . S
C807 C809 1.385 1_545 S
C807 C810 1.488 1_545 S
C808 C805 1.382 1_565 S
C808 C809 1.387 . S
C808 H834 0.930 . S
C809 C807 1.385 1_565 S
C809 C808 1.387 . S
C809 H835 0.931 . S
C810 C807 1.488 1_565 S
C810 C817 1.399 1_565 S
C810 N848 1.363 . S
C811 C812 1.384 . S
C811 C813 1.384 . S
C811 H836 0.931 . S
C812 C811 1.384 . S
C812 C815 1.382 1_565 S
C813 C811 1.384 . S
C813 C814 1.391 . S
C813 H837 0.930 . S
C814 C813 1.391 . S
C814 C816 1.376 1_565 S
C814 C817 1.477 1_565 S
C815 C812 1.382 1_545 S
C815 C816 1.387 . S
C815 H838 0.930 . S
C816 C814 1.376 1_545 S
C816 C815 1.387 . S
C816 H839 0.931 . S
C817 C810 1.399 1_545 S
C817 C814 1.477 1_545 S
C817 N849 1.313 . S
C818 C819 1.384 . S
C818 C820 1.384 . S
C818 H840 0.931 . S
C819 C818 1.384 . S
C819 C822 1.382 1_565 S
C820 C818 1.384 . S
C820 C821 1.380 1_565 S
C820 H841 0.930 . S
C821 C820 1.380 1_545 S
C821 C823 1.385 . S
C821 C824 1.497 . S
C822 C819 1.382 1_545 S
C822 C823 1.387 . S
C822 H842 0.930 . S
C823 C821 1.385 . S
C823 C822 1.387 . S
C823 H843 0.931 . S
C824 C821 1.497 . S
C824 C831 1.399 1_545 S
C824 N849 1.363 . S
C825 C826 1.384 . S
C825 C827 1.384 . S
C825 H844 0.931 . S
C826 C825 1.384 . S
C826 C829 1.382 1_545 S
C827 C825 1.384 . S
C827 C828 1.412 . S
C827 H845 0.930 . S
C828 C827 1.412 . S
C828 C830 1.366 1_545 S
C828 C831 1.477 1_545 S
C829 C826 1.382 1_565 S
C829 C830 1.387 . S
C829 H846 0.930 . S
C830 C828 1.366 1_565 S
C830 C829 1.387 . S
C830 H847 0.931 . S
C831 C824 1.399 1_565 S
C831 C828 1.477 1_565 S
C831 N848 1.313 . S
H832 C804 0.931 . S
H833 C806 0.930 . S
H834 C808 0.930 . S
H835 C809 0.931 . S
H836 C811 0.931 . S
H837 C813 0.930 . S
H838 C815 0.930 . S
H839 C816 0.931 . S
H840 C818 0.931 . S
H841 C820 0.930 . S
H842 C822 0.930 . S
H843 C823 0.931 . S
H844 C825 0.931 . S
H845 C827 0.930 . S
H846 C829 0.930 . S
H847 C830 0.931 . S
N848 C810 1.363 . S
N848 C831 1.313 . S
N849 C817 1.313 . S
N849 C824 1.363 . S
C850 C851 1.384 . S
C850 C852 1.384 . S
C850 H878 0.931 . S
C851 C850 1.384 . S
C851 C854 1.382 1_655 S
C852 C850 1.384 . S
C852 C853 1.415 . S
C852 H879 0.930 . S
C853 C852 1.415 . S
C853 C855 1.364 1_655 S
C853 C856 1.467 . S
C854 C851 1.382 1_455 S
C854 C855 1.387 . S
C854 H880 0.930 . S
C855 C853 1.364 1_455 S
C855 C854 1.387 . S
C855 H881 0.931 . S
C856 C853 1.467 . S
C856 C863 1.399 . S
C856 N894 1.325 1_655 S
C857 C858 1.384 . S
C857 C859 1.384 . S
C857 H882 0.931 . S
C858 C857 1.384 . S
C858 C861 1.382 1_455 S
C859 C857 1.384 . S
C859 C860 1.382 1_455 S
C859 H883 0.930 . S
C860 C859 1.382 1_655 S
C860 C862 1.381 . S
C860 C863 1.499 . S
C861 C858 1.382 1_655 S
C861 C862 1.387 . S
C861 H884 0.930 . S
C862 C860 1.381 . S
C862 C861 1.387 . S
C862 H885 0.931 . S
C863 C856 1.399 . S
C863 C860 1.499 . S
C863 N895 1.362 . S
C864 C865 1.384 . S
C864 C866 1.384 . S
C864 H886 0.931 . S
C865 C864 1.384 . S
C865 C868 1.382 1_455 S
C866 C864 1.384 . S
C866 C867 1.395 . S
C866 H887 0.930 . S
C867 C866 1.395 . S
C867 C869 1.374 1_455 S
C867 C870 1.476 1_455 S
C868 C865 1.382 1_655 S
C868 C869 1.387 . S
C868 H888 0.930 . S
C869 C867 1.374 1_655 S
C869 C868 1.387 . S
C869 H889 0.931 . S
C870 C867 1.476 1_655 S
C870 C877 1.399 1_655 S
C870 N895 1.315 . S
C871 C872 1.384 . S
C871 C873 1.384 . S
C871 H890 0.931 . S
C872 C871 1.384 . S
C872 C875 1.382 1_655 S
C873 C871 1.384 . S
C873 C874 1.382 . S
C873 H891 0.930 . S
C874 C873 1.382 . S
C874 C876 1.381 1_655 S
C874 C877 1.490 1_655 S
C875 C872 1.382 1_455 S
C875 C876 1.387 . S
C875 H892 0.930 . S
C876 C874 1.381 1_455 S
C876 C875 1.387 . S
C876 H893 0.931 . S
C877 C870 1.399 1_455 S
C877 C874 1.490 1_455 S
C877 N894 1.362 . S
H878 C850 0.931 . S
H879 C852 0.930 . S
H880 C854 0.930 . S
H881 C855 0.931 . S
H882 C857 0.931 . S
H883 C859 0.930 . S
H884 C861 0.930 . S
H885 C862 0.931 . S
H886 C864 0.931 . S
H887 C866 0.930 . S
H888 C868 0.930 . S
H889 C869 0.931 . S
H890 C871 0.931 . S
H891 C873 0.930 . S
H892 C875 0.930 . S
H893 C876 0.931 . S
N894 C856 1.325 1_455 S
N894 C877 1.362 . S
N895 C863 1.362 . S
N895 C870 1.315 . S
C896 C897 1.384 . S
C896 C898 1.384 . S
C896 H924 0.931 . S
C897 C896 1.384 . S
C897 C900 1.382 . S
C898 C896 1.384 . S
C898 C899 1.381 . S
C898 H925 0.930 . S
C899 C898 1.381 . S
C899 C901 1.381 . S
C899 C902 1.487 . S
C900 C897 1.382 . S
C900 C901 1.387 . S
C900 H926 0.930 . S
C901 C899 1.381 . S
C901 C900 1.387 . S
C901 H927 0.931 . S
C902 C899 1.487 . S
C902 C909 1.399 . S
C902 N940 1.343 . S
C903 C904 1.384 . S
C903 C905 1.384 . S
C903 H928 0.931 . S
C904 C903 1.384 . S
C904 C907 1.382 . S
C905 C903 1.384 . S
C905 C906 1.381 . S
C905 H929 0.930 . S
C906 C905 1.381 . S
C906 C908 1.381 . S
C906 C909 1.487 . S
C907 C904 1.382 . S
C907 C908 1.387 . S
C907 H930 0.930 . S
C908 C906 1.381 . S
C908 C907 1.387 . S
C908 H931 0.931 . S
C909 C902 1.399 . S
C909 C906 1.487 . S
C909 N941 1.343 . S
C910 C911 1.384 . S
C910 C912 1.384 . S
C910 H932 0.931 . S
C911 C910 1.384 . S
C911 C914 1.382 . S
C912 C910 1.384 . S
C912 C913 1.381 . S
C912 H933 0.930 . S
C913 C912 1.381 . S
C913 C915 1.381 . S
C913 C916 1.487 . S
C914 C911 1.382 . S
C914 C915 1.387 . S
C914 H934 0.930 . S
C915 C913 1.381 . S
C915 C914 1.387 . S
C915 H935 0.931 . S
C916 C913 1.487 . S
C916 C923 1.399 . S
C916 N941 1.343 . S
C917 C918 1.384 . S
C917 C919 1.384 . S
C917 H936 0.931 . S
C918 C917 1.384 . S
C918 C921 1.382 . S
C919 C917 1.384 . S
C919 C920 1.381 . S
C919 H937 0.930 . S
C920 C919 1.381 . S
C920 C922 1.381 . S
C920 C923 1.487 . S
C921 C918 1.382 . S
C921 C922 1.387 . S
C921 H938 0.930 . S
C922 C920 1.381 . S
C922 C921 1.387 . S
C922 H939 0.931 . S
C923 C916 1.399 . S
C923 C920 1.487 . S
C923 N940 1.343 . S
H924 C896 0.931 . S
H925 C898 0.930 . S
H926 C900 0.930 . S
H927 C901 0.931 . S
H928 C903 0.931 . S
H929 C905 0.930 . S
H930 C907 0.930 . S
H931 C908 0.931 . S
H932 C910 0.931 . S
H933 C912 0.930 . S
H934 C914 0.930 . S
H935 C915 0.931 . S
H936 C917 0.931 . S
H937 C919 0.930 . S
H938 C921 0.930 . S
H939 C922 0.931 . S
N940 C902 1.343 . S
N940 C923 1.343 . S
N941 C909 1.343 . S
N941 C916 1.343 . S
C942 C943 1.384 . S
C942 C944 1.384 . S
C942 H970 0.931 . S
C943 C942 1.384 . S
C943 C946 1.382 . S
C944 C942 1.384 . S
C944 C945 1.381 . S
C944 H971 0.930 . S
C945 C944 1.381 . S
C945 C947 1.381 . S
C945 C948 1.487 . S
C946 C943 1.382 . S
C946 C947 1.387 . S
C946 H972 0.930 . S
C947 C945 1.381 . S
C947 C946 1.387 . S
C947 H973 0.931 . S
C948 C945 1.487 . S
C948 C955 1.399 . S
C948 N986 1.343 . S
C949 C950 1.384 . S
C949 C951 1.384 . S
C949 H974 0.931 . S
C950 C949 1.384 . S
C950 C953 1.382 . S
C951 C949 1.384 . S
C951 C952 1.381 . S
C951 H975 0.930 . S
C952 C951 1.381 . S
C952 C954 1.381 . S
C952 C955 1.487 . S
C953 C950 1.382 . S
C953 C954 1.387 . S
C953 H976 0.930 . S
C954 C952 1.381 . S
C954 C953 1.387 . S
C954 H977 0.931 . S
C955 C948 1.399 . S
C955 C952 1.487 . S
C955 N987 1.343 . S
C956 C957 1.384 . S
C956 C958 1.384 . S
C956 H978 0.931 . S
C957 C956 1.384 . S
C957 C960 1.382 . S
C958 C956 1.384 . S
C958 C959 1.381 . S
C958 H979 0.930 . S
C959 C958 1.381 . S
C959 C961 1.381 . S
C959 C962 1.487 . S
C960 C957 1.382 . S
C960 C961 1.387 . S
C960 H980 0.930 . S
C961 C959 1.381 . S
C961 C960 1.387 . S
C961 H981 0.931 . S
C962 C959 1.487 . S
C962 C969 1.399 . S
C962 N987 1.343 . S
C963 C964 1.384 . S
C963 C965 1.384 . S
C963 H982 0.931 . S
C964 C963 1.384 . S
C964 C967 1.382 . S
C965 C963 1.384 . S
C965 C966 1.381 . S
C965 H983 0.930 . S
C966 C965 1.381 . S
C966 C968 1.381 . S
C966 C969 1.487 . S
C967 C964 1.382 . S
C967 C968 1.387 . S
C967 H984 0.930 . S
C968 C966 1.381 . S
C968 C967 1.387 . S
C968 H985 0.931 . S
C969 C962 1.399 . S
C969 C966 1.487 . S
C969 N986 1.343 . S
H970 C942 0.931 . S
H971 C944 0.930 . S
H972 C946 0.930 . S
H973 C947 0.931 . S
H974 C949 0.931 . S
H975 C951 0.930 . S
H976 C953 0.930 . S
H977 C954 0.931 . S
H978 C956 0.931 . S
H979 C958 0.930 . S
H980 C960 0.930 . S
H981 C961 0.931 . S
H982 C963 0.931 . S
H983 C965 0.930 . S
H984 C967 0.930 . S
H985 C968 0.931 . S
N986 C948 1.343 . S
N986 C969 1.343 . S
N987 C955 1.343 . S
N987 C962 1.343 . S
C988 C989 1.384 . S
C988 C990 1.384 . S
C988 H1016 0.931 . S
C989 C988 1.384 . S
C989 C992 1.382 . S
C990 C988 1.384 . S
C990 C991 1.381 . S
C990 H1017 0.930 . S
C991 C990 1.381 . S
C991 C993 1.381 . S
C991 C994 1.487 . S
C992 C989 1.382 . S
C992 C993 1.387 . S
C992 H1018 0.930 . S
C993 C991 1.381 . S
C993 C992 1.387 . S
C993 H1019 0.931 . S
C994 C991 1.487 . S
C994 C1001 1.399 . S
C994 N1032 1.343 . S
C995 C996 1.384 . S
C995 C997 1.384 . S
C995 H1020 0.931 . S
C996 C995 1.384 . S
C996 C999 1.382 . S
C997 C995 1.384 . S
C997 C998 1.381 . S
C997 H1021 0.930 . S
C998 C997 1.381 . S
C998 C1000 1.381 . S
C998 C1001 1.487 . S
C999 C996 1.382 . S
C999 C1000 1.387 . S
C999 H1022 0.930 . S
C1000 C998 1.381 . S
C1000 C999 1.387 . S
C1000 H1023 0.931 . S
C1001 C994 1.399 . S
C1001 C998 1.487 . S
C1001 N1033 1.343 . S
C1002 C1003 1.384 . S
C1002 C1004 1.384 . S
C1002 H1024 0.931 . S
C1003 C1002 1.384 . S
C1003 C1006 1.382 . S
C1004 C1002 1.384 . S
C1004 C1005 1.381 . S
C1004 H1025 0.930 . S
C1005 C1004 1.381 . S
C1005 C1007 1.381 . S
C1005 C1008 1.487 . S
C1006 C1003 1.382 . S
C1006 C1007 1.387 . S
C1006 H1026 0.930 . S
C1007 C1005 1.381 . S
C1007 C1006 1.387 . S
C1007 H1027 0.931 . S
C1008 C1005 1.487 . S
C1008 C1015 1.399 . S
C1008 N1033 1.343 . S
C1009 C1010 1.384 . S
C1009 C1011 1.384 . S
C1009 H1028 0.931 . S
C1010 C1009 1.384 . S
C1010 C1013 1.382 . S
C1011 C1009 1.384 . S
C1011 C1012 1.381 . S
C1011 H1029 0.930 . S
C1012 C1011 1.381 . S
C1012 C1014 1.381 . S
C1012 C1015 1.487 . S
C1013 C1010 1.382 . S
C1013 C1014 1.387 . S
C1013 H1030 0.930 . S
C1014 C1012 1.381 . S
C1014 C1013 1.387 . S
C1014 H1031 0.931 . S
C1015 C1008 1.399 . S
C1015 C1012 1.487 . S
C1015 N1032 1.343 . S
H1016 C988 0.931 . S
H1017 C990 0.930 . S
H1018 C992 0.930 . S
H1019 C993 0.931 . S
H1020 C995 0.931 . S
H1021 C997 0.930 . S
H1022 C999 0.930 . S
H1023 C1000 0.931 . S
H1024 C1002 0.931 . S
H1025 C1004 0.930 . S
H1026 C1006 0.930 . S
H1027 C1007 0.931 . S
H1028 C1009 0.931 . S
H1029 C1011 0.930 . S
H1030 C1013 0.930 . S
H1031 C1014 0.931 . S
N1032 C994 1.343 . S
N1032 C1015 1.343 . S
N1033 C1001 1.343 . S
N1033 C1008 1.343 . S
C1034 C1035 1.384 . S
C1034 C1036 1.384 . S
C1034 H1062 0.931 . S
C1035 C1034 1.384 . S
C1035 C1038 1.382 . S
C1036 C1034 1.384 . S
C1036 C1037 1.381 . S
C1036 H1063 0.930 . S
C1037 C1036 1.381 . S
C1037 C1039 1.381 . S
C1037 C1040 1.487 . S
C1038 C1035 1.382 . S
C1038 C1039 1.387 . S
C1038 H1064 0.930 . S
C1039 C1037 1.381 . S
C1039 C1038 1.387 . S
C1039 H1065 0.931 . S
C1040 C1037 1.487 . S
C1040 C1047 1.399 . S
C1040 N1078 1.343 . S
C1041 C1042 1.384 . S
C1041 C1043 1.384 . S
C1041 H1066 0.931 . S
C1042 C1041 1.384 . S
C1042 C1045 1.382 . S
C1043 C1041 1.384 . S
C1043 C1044 1.381 . S
C1043 H1067 0.930 . S
C1044 C1043 1.381 . S
C1044 C1046 1.381 . S
C1044 C1047 1.487 . S
C1045 C1042 1.382 . S
C1045 C1046 1.387 . S
C1045 H1068 0.930 . S
C1046 C1044 1.381 . S
C1046 C1045 1.387 . S
C1046 H1069 0.931 . S
C1047 C1040 1.399 . S
C1047 C1044 1.487 . S
C1047 N1079 1.343 . S
C1048 C1049 1.384 . S
C1048 C1050 1.384 . S
C1048 H1070 0.931 . S
C1049 C1048 1.384 . S
C1049 C1052 1.382 . S
C1050 C1048 1.384 . S
C1050 C1051 1.381 . S
C1050 H1071 0.930 . S
C1051 C1050 1.381 . S
C1051 C1053 1.381 . S
C1051 C1054 1.487 . S
C1052 C1049 1.382 . S
C1052 C1053 1.387 . S
C1052 H1072 0.930 . S
C1053 C1051 1.381 . S
C1053 C1052 1.387 . S
C1053 H1073 0.931 . S
C1054 C1051 1.487 . S
C1054 C1061 1.399 . S
C1054 N1079 1.343 . S
C1055 C1056 1.384 . S
C1055 C1057 1.384 . S
C1055 H1074 0.931 . S
C1056 C1055 1.384 . S
C1056 C1059 1.382 . S
C1057 C1055 1.384 . S
C1057 C1058 1.381 . S
C1057 H1075 0.930 . S
C1058 C1057 1.381 . S
C1058 C1060 1.381 . S
C1058 C1061 1.487 . S
C1059 C1056 1.382 . S
C1059 C1060 1.387 . S
C1059 H1076 0.930 . S
C1060 C1058 1.381 . S
C1060 C1059 1.387 . S
C1060 H1077 0.931 . S
C1061 C1054 1.399 . S
C1061 C1058 1.487 . S
C1061 N1078 1.343 . S
H1062 C1034 0.931 . S
H1063 C1036 0.930 . S
H1064 C1038 0.930 . S
H1065 C1039 0.931 . S
H1066 C1041 0.931 . S
H1067 C1043 0.930 . S
H1068 C1045 0.930 . S
H1069 C1046 0.931 . S
H1070 C1048 0.931 . S
H1071 C1050 0.930 . S
H1072 C1052 0.930 . S
H1073 C1053 0.931 . S
H1074 C1055 0.931 . S
H1075 C1057 0.930 . S
H1076 C1059 0.930 . S
H1077 C1060 0.931 . S
N1078 C1040 1.343 . S
N1078 C1061 1.343 . S
N1079 C1047 1.343 . S
N1079 C1054 1.343 . S
C1080 C1081 1.352 . S
C1080 C1082 1.327 . S
C1080 H1105 0.950 . S
C1081 C1080 1.352 . S
C1081 C1097 1.379 1_655 S
C1082 C1080 1.327 . S
C1082 C1101 1.429 . S
C1082 H1106 0.950 . S
C1083 C1100 1.567 . S
C1083 C1102 1.392 1_455 S
C1083 H1107 0.954 . S
H1084 C1088 0.949 . S
C1085 C1086 1.349 . S
C1085 C1087 1.328 1_655 S
C1085 H1108 0.948 1_655 S
C1086 C1085 1.349 . S
C1086 C1098 1.349 . S
C1087 C1085 1.328 1_455 S
C1087 C1103 1.430 1_455 S
C1087 H1109 0.950 . S
C1088 H1084 0.949 . S
C1088 C1096 1.574 . S
C1088 C1104 1.368 . S
H1089 C1097 0.950 . S
H1090 C1095 0.921 . S
H1091 C1096 0.949 . S
H1092 C1098 0.950 . S
H1093 C1099 0.950 . S
H1094 C1100 0.932 . S
C1095 H1090 0.921 . S
C1095 C1097 1.364 . S
C1095 C1101 1.428 1_455 S
C1096 C1088 1.574 . S
C1096 H1091 0.949 . S
C1096 C1102 1.368 . S
C1097 C1081 1.379 1_455 S
C1097 H1089 0.950 . S
C1097 C1095 1.364 . S
C1098 C1086 1.349 . S
C1098 H1092 0.950 . S
C1098 C1099 1.327 . S
C1099 H1093 0.950 . S
C1099 C1098 1.327 . S
C1099 C1103 1.429 . S
C1100 C1083 1.567 . S
C1100 H1094 0.932 . S
C1100 C1104 1.371 1_455 S
C1101 C1082 1.429 . S
C1101 C1095 1.428 1_655 S
C1101 C1102 1.523 . S
C1102 C1083 1.392 1_655 S
C1102 C1096 1.368 . S
C1102 C1101 1.523 . S
C1103 C1087 1.430 1_655 S
C1103 C1099 1.429 . S
C1103 C1104 1.523 . S
C1104 C1088 1.368 . S
C1104 C1100 1.371 1_655 S
C1104 C1103 1.523 . S
H1105 C1080 0.950 . S
H1106 C1082 0.950 . S
H1107 C1083 0.954 . S
H1108 C1085 0.948 1_455 S
H1109 C1087 0.950 . S
C1110 C1111 1.349 . S
C1110 C1112 1.327 . S
C1110 H1135 0.950 . S
C1111 C1110 1.349 . S
C1111 C1127 1.349 . S
C1112 C1110 1.327 . S
C1112 C1131 1.429 . S
C1112 H1136 0.950 . S
C1113 C1130 1.574 . S
C1113 C1132 1.368 . S
C1113 H1137 0.949 . S
H1114 C1118 0.949 . S
C1115 C1116 1.349 . S
C1115 C1117 1.327 . S
C1115 H1138 0.950 . S
C1116 C1115 1.349 . S
C1116 C1128 1.349 . S
C1117 C1115 1.327 . S
C1117 C1133 1.429 . S
C1117 H1139 0.950 . S
C1118 H1114 0.949 . S
C1118 C1126 1.574 . S
C1118 C1134 1.368 . S
H1119 C1127 0.950 . S
H1120 C1125 0.950 . S
H1121 C1126 0.949 . S
H1122 C1128 0.950 . S
H1123 C1129 0.950 . S
H1124 C1130 0.949 . S
C1125 H1120 0.950 . S
C1125 C1127 1.327 . S
C1125 C1131 1.429 . S
C1126 C1118 1.574 . S
C1126 H1121 0.949 . S
C1126 C1132 1.368 . S
C1127 C1111 1.349 . S
C1127 H1119 0.950 . S
C1127 C1125 1.327 . S
C1128 C1116 1.349 . S
C1128 H1122 0.950 . S
C1128 C1129 1.327 . S
C1129 H1123 0.950 . S
C1129 C1128 1.327 . S
C1129 C1133 1.429 . S
C1130 C1113 1.574 . S
C1130 H1124 0.949 . S
C1130 C1134 1.368 . S
C1131 C1112 1.429 . S
C1131 C1125 1.429 . S
C1131 C1132 1.523 . S
C1132 C1113 1.368 . S
C1132 C1126 1.368 . S
C1132 C1131 1.523 . S
C1133 C1117 1.429 . S
C1133 C1129 1.429 . S
C1133 C1134 1.523 . S
C1134 C1118 1.368 . S
C1134 C1130 1.368 . S
C1134 C1133 1.523 . S
H1135 C1110 0.950 . S
H1136 C1112 0.950 . S
H1137 C1113 0.949 . S
H1138 C1115 0.950 . S
H1139 C1117 0.950 . S
C1140 C1141 1.349 1_565 S
C1140 C1142 1.327 . S
C1140 H1165 0.950 . S
C1141 C1140 1.349 1_545 S
C1141 C1157 1.349 . S
C1142 C1140 1.327 . S
C1142 C1161 1.429 1_565 S
C1142 H1166 0.950 . S
C1143 C1160 1.574 . S
C1143 C1162 1.368 . S
C1143 H1167 0.949 . S
H1144 C1148 0.949 . S
C1145 C1146 1.349 . S
C1145 C1147 1.327 . S
C1145 H1168 0.950 . S
C1146 C1145 1.349 . S
C1146 C1158 1.349 1_545 S
C1147 C1145 1.327 . S
C1147 C1163 1.429 . S
C1147 H1169 0.950 . S
C1148 H1144 0.949 . S
C1148 C1156 1.574 . S
C1148 C1164 1.368 1_565 S
H1149 C1157 0.950 . S
H1150 C1155 0.950 . S
H1151 C1156 0.949 . S
H1152 C1158 0.950 . S
H1153 C1159 0.950 . S
H1154 C1160 0.949 . S
C1155 H1150 0.950 . S
C1155 C1157 1.327 . S
C1155 C1161 1.429 . S
C1156 C1148 1.574 . S
C1156 H1151 0.949 . S
C1156 C1162 1.368 1_565 S
C1157 C1141 1.349 . S
C1157 H1149 0.950 . S
C1157 C1155 1.327 . S
C1158 C1146 1.349 1_565 S
C1158 H1152 0.950 . S
C1158 C1159 1.327 . S
C1159 H1153 0.950 . S
C1159 C1158 1.327 . S
C1159 C1163 1.429 1_565 S
C1160 C1143 1.574 . S
C1160 H1154 0.949 . S
C1160 C1164 1.368 . S
C1161 C1142 1.429 1_545 S
C1161 C1155 1.429 . S
C1161 C1162 1.523 . S
C1162 C1143 1.368 . S
C1162 C1156 1.368 1_545 S
C1162 C1161 1.523 . S
C1163 C1147 1.429 . S
C1163 C1159 1.429 1_545 S
C1163 C1164 1.523 . S
C1164 C1148 1.368 1_545 S
C1164 C1160 1.368 . S
C1164 C1163 1.523 . S
H1165 C1140 0.950 . S
H1166 C1142 0.950 . S
H1167 C1143 0.949 . S
H1168 C1145 0.950 . S
H1169 C1147 0.950 . S
C1170 C1171 1.354 1_565 S
C1170 C1172 1.327 . S
C1170 H1195 0.950 . S
C1171 C1170 1.354 1_545 S
C1171 C1187 1.347 . S
C1172 C1170 1.327 . S
C1172 C1191 1.437 . S
C1172 H1196 0.950 . S
C1173 C1190 1.574 . S
C1173 C1192 1.348 1_545 S
C1173 H1197 0.949 . S
H1174 C1178 0.949 . S
C1175 C1176 1.349 1_545 S
C1175 C1177 1.327 . S
C1175 H1198 0.950 . S
C1176 C1175 1.349 1_565 S
C1176 C1188 1.349 . S
C1177 C1175 1.327 . S
C1177 C1193 1.429 1_545 S
C1177 H1199 0.950 . S
C1178 H1174 0.949 . S
C1178 C1186 1.574 . S
C1178 C1194 1.368 . S
H1179 C1187 0.950 . S
H1180 C1185 0.950 . S
H1181 C1186 0.949 . S
H1182 C1188 0.950 . S
H1183 C1189 0.950 . S
H1184 C1190 0.949 . S
C1185 H1180 0.950 . S
C1185 C1187 1.327 . S
C1185 C1191 1.406 1_545 S
C1186 C1178 1.574 . S
C1186 H1181 0.949 . S
C1186 C1192 1.408 . S
C1187 C1171 1.347 . S
C1187 H1179 0.950 . S
C1187 C1185 1.327 . S
C1188 C1176 1.349 . S
C1188 H1182 0.950 . S
C1188 C1189 1.327 . S
C1189 H1183 0.950 . S
C1189 C1188 1.327 . S
C1189 C1193 1.429 . S
C1190 C1173 1.574 . S
C1190 H1184 0.949 . S
C1190 C1194 1.368 1_545 S
C1191 C1172 1.437 . S
C1191 C1185 1.406 1_565 S
C1191 C1192 1.513 . S
C1192 C1173 1.348 1_565 S
C1192 C1186 1.408 . S
C1192 C1191 1.513 . S
C1193 C1177 1.429 1_565 S
C1193 C1189 1.429 . S
C1193 C1194 1.523 . S
C1194 C1178 1.368 . S
C1194 C1190 1.368 1_565 S
C1194 C1193 1.523 . S
H1195 C1170 0.950 . S
H1196 C1172 0.950 . S
H1197 C1173 0.949 . S
H1198 C1175 0.950 . S
H1199 C1177 0.950 . S
C1200 C1201 1.349 . S
C1200 C1202 1.327 . S
C1200 H1225 0.950 . S
C1201 C1200 1.349 . S
C1201 C1217 1.349 1_455 S
C1202 C1200 1.327 . S
C1202 C1221 1.429 . S
C1202 H1226 0.950 . S
C1203 C1220 1.574 . S
C1203 C1222 1.368 1_655 S
C1203 H1227 0.949 . S
H1204 C1208 0.949 . S
C1205 C1206 1.349 1_655 S
C1205 C1207 1.327 . S
C1205 H1228 0.950 . S
C1206 C1205 1.349 1_455 S
C1206 C1218 1.349 . S
C1207 C1205 1.327 . S
C1207 C1223 1.429 1_655 S
C1207 H1229 0.950 . S
C1208 H1204 0.949 . S
C1208 C1216 1.574 . S
C1208 C1224 1.368 . S
H1209 C1217 0.950 . S
H1210 C1215 0.950 . S
H1211 C1216 0.949 . S
H1212 C1218 0.950 . S
H1213 C1219 0.950 . S
H1214 C1220 0.949 . S
C1215 H1210 0.950 . S
C1215 C1217 1.327 . S
C1215 C1221 1.429 1_655 S
C1216 C1208 1.574 . S
C1216 H1211 0.949 . S
C1216 C1222 1.368 . S
C1217 C1201 1.349 1_655 S
C1217 H1209 0.950 . S
C1217 C1215 1.327 . S
C1218 C1206 1.349 . S
C1218 H1212 0.950 . S
C1218 C1219 1.327 . S
C1219 H1213 0.950 . S
C1219 C1218 1.327 . S
C1219 C1223 1.429 . S
C1220 C1203 1.574 . S
C1220 H1214 0.949 . S
C1220 C1224 1.368 1_655 S
C1221 C1202 1.429 . S
C1221 C1215 1.429 1_455 S
C1221 C1222 1.523 . S
C1222 C1203 1.368 1_455 S
C1222 C1216 1.368 . S
C1222 C1221 1.523 . S
C1223 C1207 1.429 1_455 S
C1223 C1219 1.429 . S
C1223 C1224 1.523 . S
C1224 C1208 1.368 . S
C1224 C1220 1.368 1_455 S
C1224 C1223 1.523 . S
H1225 C1200 0.950 . S
H1226 C1202 0.950 . S
H1227 C1203 0.949 . S
H1228 C1205 0.950 . S
H1229 C1207 0.950 . S
C1230 C1231 1.349 . S
C1230 C1232 1.327 . S
C1230 H1255 0.950 . S
C1231 C1230 1.349 . S
C1231 C1247 1.349 . S
C1232 C1230 1.327 . S
C1232 C1251 1.429 . S
C1232 H1256 0.950 . S
C1233 C1250 1.574 . S
C1233 C1252 1.368 . S
C1233 H1257 0.949 . S
H1234 C1238 0.949 . S
C1235 C1236 1.349 . S
C1235 C1237 1.327 . S
C1235 H1258 0.950 . S
C1236 C1235 1.349 . S
C1236 C1248 1.349 . S
C1237 C1235 1.327 . S
C1237 C1253 1.429 . S
C1237 H1259 0.950 . S
C1238 H1234 0.949 . S
C1238 C1246 1.574 . S
C1238 C1254 1.368 . S
H1239 C1247 0.950 . S
H1240 C1245 0.950 . S
H1241 C1246 0.949 . S
H1242 C1248 0.950 . S
H1243 C1249 0.950 . S
H1244 C1250 0.949 . S
C1245 H1240 0.950 . S
C1245 C1247 1.327 . S
C1245 C1251 1.429 . S
C1246 C1238 1.574 . S
C1246 H1241 0.949 . S
C1246 C1252 1.368 . S
C1247 C1231 1.349 . S
C1247 H1239 0.950 . S
C1247 C1245 1.327 . S
C1248 C1236 1.349 . S
C1248 H1242 0.950 . S
C1248 C1249 1.327 . S
C1249 H1243 0.950 . S
C1249 C1248 1.327 . S
C1249 C1253 1.429 . S
C1250 C1233 1.574 . S
C1250 H1244 0.949 . S
C1250 C1254 1.368 . S
C1251 C1232 1.429 . S
C1251 C1245 1.429 . S
C1251 C1252 1.523 . S
C1252 C1233 1.368 . S
C1252 C1246 1.368 . S
C1252 C1251 1.523 . S
C1253 C1237 1.429 . S
C1253 C1249 1.429 . S
C1253 C1254 1.523 . S
C1254 C1238 1.368 . S
C1254 C1250 1.368 . S
C1254 C1253 1.523 . S
H1255 C1230 0.950 . S
H1256 C1232 0.950 . S
H1257 C1233 0.949 . S
H1258 C1235 0.950 . S
H1259 C1237 0.950 . S
C1260 C1261 1.349 . S
C1260 C1262 1.327 . S
C1260 H1285 0.950 . S
C1261 C1260 1.349 . S
C1261 C1277 1.349 1_455 S
C1262 C1260 1.327 . S
C1262 C1281 1.429 . S
C1262 H1286 0.950 . S
C1263 C1280 1.574 . S
C1263 C1282 1.368 1_655 S
C1263 H1287 0.949 . S
H1264 C1268 0.949 . S
C1265 C1266 1.349 1_655 S
C1265 C1267 1.327 . S
C1265 H1288 0.950 . S
C1266 C1265 1.349 1_455 S
C1266 C1278 1.349 . S
C1267 C1265 1.327 . S
C1267 C1283 1.429 1_655 S
C1267 H1289 0.950 . S
C1268 H1264 0.949 . S
C1268 C1276 1.574 . S
C1268 C1284 1.368 . S
H1269 C1277 0.950 . S
H1270 C1275 0.950 . S
H1271 C1276 0.949 . S
H1272 C1278 0.950 . S
H1273 C1279 0.950 . S
H1274 C1280 0.949 . S
C1275 H1270 0.950 . S
C1275 C1277 1.327 . S
C1275 C1281 1.429 1_655 S
C1276 C1268 1.574 . S
C1276 H1271 0.949 . S
C1276 C1282 1.368 . S
C1277 C1261 1.349 1_655 S
C1277 H1269 0.950 . S
C1277 C1275 1.327 . S
C1278 C1266 1.349 . S
C1278 H1272 0.950 . S
C1278 C1279 1.327 . S
C1279 H1273 0.950 . S
C1279 C1278 1.327 . S
C1279 C1283 1.429 . S
C1280 C1263 1.574 . S
C1280 H1274 0.949 . S
C1280 C1284 1.368 1_655 S
C1281 C1262 1.429 . S
C1281 C1275 1.429 1_455 S
C1281 C1282 1.523 . S
C1282 C1263 1.368 1_455 S
C1282 C1276 1.368 . S
C1282 C1281 1.523 . S
C1283 C1267 1.429 1_455 S
C1283 C1279 1.429 . S
C1283 C1284 1.523 . S
C1284 C1268 1.368 . S
C1284 C1280 1.368 1_455 S
C1284 C1283 1.523 . S
H1285 C1260 0.950 . S
H1286 C1262 0.950 . S
H1287 C1263 0.949 . S
H1288 C1265 0.950 . S
H1289 C1267 0.950 . S
C1290 C1291 1.349 . S
C1290 C1292 1.327 . S
C1290 H1315 0.950 . S
C1291 C1290 1.349 . S
C1291 C1307 1.349 . S
C1292 C1290 1.327 . S
C1292 C1311 1.429 . S
C1292 H1316 0.950 . S
C1293 C1310 1.574 . S
C1293 C1312 1.368 . S
C1293 H1317 0.949 . S
H1294 C1298 0.949 . S
C1295 C1296 1.349 . S
C1295 C1297 1.327 . S
C1295 H1318 0.950 . S
C1296 C1295 1.349 . S
C1296 C1308 1.349 . S
C1297 C1295 1.327 . S
C1297 C1313 1.429 . S
C1297 H1319 0.950 . S
C1298 H1294 0.949 . S
C1298 C1306 1.574 . S
C1298 C1314 1.368 . S
H1299 C1307 0.950 . S
H1300 C1305 0.950 . S
H1301 C1306 0.949 . S
H1302 C1308 0.950 . S
H1303 C1309 0.950 . S
H1304 C1310 0.949 . S
C1305 H1300 0.950 . S
C1305 C1307 1.327 . S
C1305 C1311 1.429 . S
C1306 C1298 1.574 . S
C1306 H1301 0.949 . S
C1306 C1312 1.368 . S
C1307 C1291 1.349 . S
C1307 H1299 0.950 . S
C1307 C1305 1.327 . S
C1308 C1296 1.349 . S
C1308 H1302 0.950 . S
C1308 C1309 1.327 . S
C1309 H1303 0.950 . S
C1309 C1308 1.327 . S
C1309 C1313 1.429 . S
C1310 C1293 1.574 . S
C1310 H1304 0.949 . S
C1310 C1314 1.368 . S
C1311 C1292 1.429 . S
C1311 C1305 1.429 . S
C1311 C1312 1.523 . S
C1312 C1293 1.368 . S
C1312 C1306 1.368 . S
C1312 C1311 1.523 . S
C1313 C1297 1.429 . S
C1313 C1309 1.429 . S
C1313 C1314 1.523 . S
C1314 C1298 1.368 . S
C1314 C1310 1.368 . S
C1314 C1313 1.523 . S
H1315 C1290 0.950 . S
H1316 C1292 0.950 . S
H1317 C1293 0.949 . S
H1318 C1295 0.950 . S
H1319 C1297 0.950 . S
C1320 C1321 1.349 . S
C1320 C1322 1.327 . S
C1320 H1345 0.950 . S
C1321 C1320 1.349 . S
C1321 C1337 1.349 1_565 S
C1322 C1320 1.327 . S
C1322 C1341 1.429 . S
C1322 H1346 0.950 . S
C1323 C1340 1.574 . S
C1323 C1342 1.368 1_545 S
C1323 H1347 0.949 . S
H1324 C1328 0.949 . S
C1325 C1326 1.349 1_545 S
C1325 C1327 1.327 . S
C1325 H1348 0.950 . S
C1326 C1325 1.349 1_565 S
C1326 C1338 1.349 . S
C1327 C1325 1.327 . S
C1327 C1343 1.429 1_545 S
C1327 H1349 0.950 . S
C1328 H1324 0.949 . S
C1328 C1336 1.574 . S
C1328 C1344 1.368 . S
H1329 C1337 0.950 . S
H1330 C1335 0.950 . S
H1331 C1336 0.949 . S
H1332 C1338 0.950 . S
H1333 C1339 0.950 . S
H1334 C1340 0.949 . S
C1335 H1330 0.950 . S
C1335 C1337 1.327 . S
C1335 C1341 1.429 1_545 S
C1336 C1328 1.574 . S
C1336 H1331 0.949 . S
C1336 C1342 1.368 . S
C1337 C1321 1.349 1_545 S
C1337 H1329 0.950 . S
C1337 C1335 1.327 . S
C1338 C1326 1.349 . S
C1338 H1332 0.950 . S
C1338 C1339 1.327 . S
C1339 H1333 0.950 . S
C1339 C1338 1.327 . S
C1339 C1343 1.429 . S
C1340 C1323 1.574 . S
C1340 H1334 0.949 . S
C1340 C1344 1.368 1_545 S
C1341 C1322 1.429 . S
C1341 C1335 1.429 1_565 S
C1341 C1342 1.523 . S
C1342 C1323 1.368 1_565 S
C1342 C1336 1.368 . S
C1342 C1341 1.523 . S
C1343 C1327 1.429 1_565 S
C1343 C1339 1.429 . S
C1343 C1344 1.523 . S
C1344 C1328 1.368 . S
C1344 C1340 1.368 1_565 S
C1344 C1343 1.523 . S
H1345 C1320 0.950 . S
H1346 C1322 0.950 . S
H1347 C1323 0.949 . S
H1348 C1325 0.950 . S
H1349 C1327 0.950 . S
C1350 C1351 1.349 . S
C1350 C1352 1.327 . S
C1350 H1375 0.950 . S
C1351 C1350 1.349 . S
C1351 C1367 1.349 1_545 S
C1352 C1350 1.327 . S
C1352 C1371 1.429 . S
C1352 H1376 0.950 . S
C1353 C1370 1.574 . S
C1353 C1372 1.368 1_565 S
C1353 H1377 0.949 . S
H1354 C1358 0.949 . S
C1355 C1356 1.349 1_565 S
C1355 C1357 1.327 . S
C1355 H1378 0.950 . S
C1356 C1355 1.349 1_545 S
C1356 C1368 1.349 . S
C1357 C1355 1.327 . S
C1357 C1373 1.429 1_565 S
C1357 H1379 0.950 . S
C1358 H1354 0.949 . S
C1358 C1366 1.574 . S
C1358 C1374 1.368 . S
H1359 C1367 0.950 . S
H1360 C1365 0.950 . S
H1361 C1366 0.949 . S
H1362 C1368 0.950 . S
H1363 C1369 0.950 . S
H1364 C1370 0.949 . S
C1365 H1360 0.950 . S
C1365 C1367 1.327 . S
C1365 C1371 1.429 1_565 S
C1366 C1358 1.574 . S
C1366 H1361 0.949 . S
C1366 C1372 1.368 . S
C1367 C1351 1.349 1_565 S
C1367 H1359 0.950 . S
C1367 C1365 1.327 . S
C1368 C1356 1.349 . S
C1368 H1362 0.950 . S
C1368 C1369 1.327 . S
C1369 H1363 0.950 . S
C1369 C1368 1.327 . S
C1369 C1373 1.429 . S
C1370 C1353 1.574 . S
C1370 H1364 0.949 . S
C1370 C1374 1.368 1_565 S
C1371 C1352 1.429 . S
C1371 C1365 1.429 1_545 S
C1371 C1372 1.523 . S
C1372 C1353 1.368 1_545 S
C1372 C1366 1.368 . S
C1372 C1371 1.523 . S
C1373 C1357 1.429 1_545 S
C1373 C1369 1.429 . S
C1373 C1374 1.523 . S
C1374 C1358 1.368 . S
C1374 C1370 1.368 1_545 S
C1374 C1373 1.523 . S
H1375 C1350 0.950 . S
H1376 C1352 0.950 . S
H1377 C1353 0.949 . S
H1378 C1355 0.950 . S
H1379 C1357 0.950 . S
C1380 C1381 1.350 . S
C1380 C1382 1.323 . S
C1380 H1405 0.954 1_655 S
C1381 C1380 1.350 . S
C1381 C1397 1.349 . S
C1382 C1380 1.323 . S
C1382 C1401 1.428 . S
C1382 H1406 0.949 1_655 S
C1383 C1400 1.574 . S
C1383 C1402 1.368 . S
C1383 H1407 0.949 . S
H1384 C1388 0.949 . S
C1385 C1386 1.349 . S
C1385 C1387 1.327 . S
C1385 H1408 0.950 . S
C1386 C1385 1.349 . S
C1386 C1398 1.346 1_655 S
C1387 C1385 1.327 . S
C1387 C1403 1.429 . S
C1387 H1409 0.950 . S
C1388 H1384 0.949 . S
C1388 C1396 1.572 . S
C1388 C1404 1.369 1_455 S
H1389 C1397 0.950 . S
H1390 C1395 0.950 . S
H1391 C1396 0.949 . S
H1392 C1398 0.949 . S
H1393 C1399 0.951 . S
H1394 C1400 0.949 . S
C1395 H1390 0.950 . S
C1395 C1397 1.327 . S
C1395 C1401 1.429 . S
C1396 C1388 1.572 . S
C1396 H1391 0.949 . S
C1396 C1402 1.368 1_455 S
C1397 C1381 1.349 . S
C1397 H1389 0.950 . S
C1397 C1395 1.327 . S
C1398 C1386 1.346 1_455 S
C1398 H1392 0.949 . S
C1398 C1399 1.329 . S
C1399 H1393 0.951 . S
C1399 C1398 1.329 . S
C1399 C1403 1.429 1_455 S
C1400 C1383 1.574 . S
C1400 H1394 0.949 . S
C1400 C1404 1.368 . S
C1401 C1382 1.428 . S
C1401 C1395 1.429 . S
C1401 C1402 1.523 . S
C1402 C1383 1.368 . S
C1402 C1396 1.368 1_655 S
C1402 C1401 1.523 . S
C1403 C1387 1.429 . S
C1403 C1399 1.429 1_655 S
C1403 C1404 1.523 . S
C1404 C1388 1.369 1_655 S
C1404 C1400 1.368 . S
C1404 C1403 1.523 . S
H1405 C1380 0.954 1_455 S
H1406 C1382 0.949 1_455 S
H1407 C1383 0.949 . S
H1408 C1385 0.950 . S
H1409 C1387 0.950 . S
C1410 C1411 1.349 . S
C1410 C1412 1.327 . S
C1410 H1435 0.950 . S
C1411 C1410 1.349 . S
C1411 C1427 1.349 . S
C1412 C1410 1.327 . S
C1412 C1431 1.429 . S
C1412 H1436 0.950 . S
C1413 C1430 1.574 . S
C1413 C1432 1.368 . S
C1413 H1437 0.949 . S
H1414 C1418 0.949 . S
C1415 C1416 1.349 . S
C1415 C1417 1.327 . S
C1415 H1438 0.950 . S
C1416 C1415 1.349 . S
C1416 C1428 1.349 . S
C1417 C1415 1.327 . S
C1417 C1433 1.429 . S
C1417 H1439 0.950 . S
C1418 H1414 0.949 . S
C1418 C1426 1.574 . S
C1418 C1434 1.368 . S
H1419 C1427 0.950 . S
H1420 C1425 0.950 . S
H1421 C1426 0.949 . S
H1422 C1428 0.950 . S
H1423 C1429 0.950 . S
H1424 C1430 0.949 . S
C1425 H1420 0.950 . S
C1425 C1427 1.327 . S
C1425 C1431 1.429 . S
C1426 C1418 1.574 . S
C1426 H1421 0.949 . S
C1426 C1432 1.368 . S
C1427 C1411 1.349 . S
C1427 H1419 0.950 . S
C1427 C1425 1.327 . S
C1428 C1416 1.349 . S
C1428 H1422 0.950 . S
C1428 C1429 1.327 . S
C1429 H1423 0.950 . S
C1429 C1428 1.327 . S
C1429 C1433 1.429 . S
C1430 C1413 1.574 . S
C1430 H1424 0.949 . S
C1430 C1434 1.368 . S
C1431 C1412 1.429 . S
C1431 C1425 1.429 . S
C1431 C1432 1.523 . S
C1432 C1413 1.368 . S
C1432 C1426 1.368 . S
C1432 C1431 1.523 . S
C1433 C1417 1.429 . S
C1433 C1429 1.429 . S
C1433 C1434 1.523 . S
C1434 C1418 1.368 . S
C1434 C1430 1.368 . S
C1434 C1433 1.523 . S
H1435 C1410 0.950 . S
H1436 C1412 0.950 . S
H1437 C1413 0.949 . S
H1438 C1415 0.950 . S
H1439 C1417 0.950 . S
C1440 C1441 1.349 . S
C1440 C1442 1.327 . S
C1440 H1465 0.950 . S
C1441 C1440 1.349 . S
C1441 C1457 1.349 . S
C1442 C1440 1.327 . S
C1442 C1461 1.429 . S
C1442 H1466 0.950 . S
C1443 C1460 1.574 . S
C1443 C1462 1.368 . S
C1443 H1467 0.949 . S
H1444 C1448 0.949 . S
C1445 C1446 1.349 . S
C1445 C1447 1.327 . S
C1445 H1468 0.950 . S
C1446 C1445 1.349 . S
C1446 C1458 1.349 . S
C1447 C1445 1.327 . S
C1447 C1463 1.429 . S
C1447 H1469 0.950 . S
C1448 H1444 0.949 . S
C1448 C1456 1.574 . S
C1448 C1464 1.368 . S
H1449 C1457 0.950 . S
H1450 C1455 0.950 . S
H1451 C1456 0.949 . S
H1452 C1458 0.950 . S
H1453 C1459 0.950 . S
H1454 C1460 0.949 . S
C1455 H1450 0.950 . S
C1455 C1457 1.327 . S
C1455 C1461 1.429 . S
C1456 C1448 1.574 . S
C1456 H1451 0.949 . S
C1456 C1462 1.368 . S
C1457 C1441 1.349 . S
C1457 H1449 0.950 . S
C1457 C1455 1.327 . S
C1458 C1446 1.349 . S
C1458 H1452 0.950 . S
C1458 C1459 1.327 . S
C1459 H1453 0.950 . S
C1459 C1458 1.327 . S
C1459 C1463 1.429 . S
C1460 C1443 1.574 . S
C1460 H1454 0.949 . S
C1460 C1464 1.368 . S
C1461 C1442 1.429 . S
C1461 C1455 1.429 . S
C1461 C1462 1.523 . S
C1462 C1443 1.368 . S
C1462 C1456 1.368 . S
C1462 C1461 1.523 . S
C1463 C1447 1.429 . S
C1463 C1459 1.429 . S
C1463 C1464 1.523 . S
C1464 C1448 1.368 . S
C1464 C1460 1.368 . S
C1464 C1463 1.523 . S
H1465 C1440 0.950 . S
H1466 C1442 0.950 . S
H1467 C1443 0.949 . S
H1468 C1445 0.950 . S
H1469 C1447 0.950 . S
C1470 C1471 1.349 . S
C1470 C1472 1.327 . S
C1470 H1495 0.950 . S
C1471 C1470 1.349 . S
C1471 C1487 1.349 . S
C1472 C1470 1.327 . S
C1472 C1491 1.429 . S
C1472 H1496 0.950 . S
C1473 C1490 1.574 . S
C1473 C1492 1.368 . S
C1473 H1497 0.949 . S
H1474 C1478 0.949 . S
C1475 C1476 1.349 . S
C1475 C1477 1.327 . S
C1475 H1498 0.950 . S
C1476 C1475 1.349 . S
C1476 C1488 1.349 . S
C1477 C1475 1.327 . S
C1477 C1493 1.429 . S
C1477 H1499 0.950 . S
C1478 H1474 0.949 . S
C1478 C1486 1.574 . S
C1478 C1494 1.368 . S
H1479 C1487 0.950 . S
H1480 C1485 0.950 . S
H1481 C1486 0.949 . S
H1482 C1488 0.950 . S
H1483 C1489 0.950 . S
H1484 C1490 0.949 . S
C1485 H1480 0.950 . S
C1485 C1487 1.327 . S
C1485 C1491 1.429 . S
C1486 C1478 1.574 . S
C1486 H1481 0.949 . S
C1486 C1492 1.368 . S
C1487 C1471 1.349 . S
C1487 H1479 0.950 . S
C1487 C1485 1.327 . S
C1488 C1476 1.349 . S
C1488 H1482 0.950 . S
C1488 C1489 1.327 . S
C1489 H1483 0.950 . S
C1489 C1488 1.327 . S
C1489 C1493 1.429 . S
C1490 C1473 1.574 . S
C1490 H1484 0.949 . S
C1490 C1494 1.368 . S
C1491 C1472 1.429 . S
C1491 C1485 1.429 . S
C1491 C1492 1.523 . S
C1492 C1473 1.368 . S
C1492 C1486 1.368 . S
C1492 C1491 1.523 . S
C1493 C1477 1.429 . S
C1493 C1489 1.429 . S
C1493 C1494 1.523 . S
C1494 C1478 1.368 . S
C1494 C1490 1.368 . S
C1494 C1493 1.523 . S
H1495 C1470 0.950 . S
H1496 C1472 0.950 . S
H1497 C1473 0.949 . S
H1498 C1475 0.950 . S
H1499 C1477 0.950 . S
C1500 C1501 1.349 . S
C1500 C1502 1.327 . S
C1500 H1525 0.950 . S
C1501 C1500 1.349 . S
C1501 C1517 1.349 . S
C1502 C1500 1.327 . S
C1502 C1521 1.429 . S
C1502 H1526 0.950 . S
C1503 C1520 1.574 . S
C1503 C1522 1.368 . S
C1503 H1527 0.949 . S
H1504 C1508 0.949 . S
C1505 C1506 1.349 . S
C1505 C1507 1.327 . S
C1505 H1528 0.950 . S
C1506 C1505 1.349 . S
C1506 C1518 1.349 . S
C1507 C1505 1.327 . S
C1507 C1523 1.429 . S
C1507 H1529 0.950 . S
C1508 H1504 0.949 . S
C1508 C1516 1.574 . S
C1508 C1524 1.368 . S
H1509 C1517 0.950 . S
H1510 C1515 0.950 . S
H1511 C1516 0.949 . S
H1512 C1518 0.950 . S
H1513 C1519 0.950 . S
H1514 C1520 0.949 . S
C1515 H1510 0.950 . S
C1515 C1517 1.327 . S
C1515 C1521 1.429 . S
C1516 C1508 1.574 . S
C1516 H1511 0.949 . S
C1516 C1522 1.368 . S
C1517 C1501 1.349 . S
C1517 H1509 0.950 . S
C1517 C1515 1.327 . S
C1518 C1506 1.349 . S
C1518 H1512 0.950 . S
C1518 C1519 1.327 . S
C1519 H1513 0.950 . S
C1519 C1518 1.327 . S
C1519 C1523 1.429 . S
C1520 C1503 1.574 . S
C1520 H1514 0.949 . S
C1520 C1524 1.368 . S
C1521 C1502 1.429 . S
C1521 C1515 1.429 . S
C1521 C1522 1.523 . S
C1522 C1503 1.368 . S
C1522 C1516 1.368 . S
C1522 C1521 1.523 . S
C1523 C1507 1.429 . S
C1523 C1519 1.429 . S
C1523 C1524 1.523 . S
C1524 C1508 1.368 . S
C1524 C1520 1.368 . S
C1524 C1523 1.523 . S
H1525 C1500 0.950 . S
H1526 C1502 0.950 . S
H1527 C1503 0.949 . S
H1528 C1505 0.950 . S
H1529 C1507 0.950 . S
C1530 C1531 1.349 . S
C1530 C1532 1.327 . S
C1530 H1555 0.950 . S
C1531 C1530 1.349 . S
C1531 C1547 1.349 . S
C1532 C1530 1.327 . S
C1532 C1551 1.429 . S
C1532 H1556 0.950 . S
C1533 C1550 1.574 . S
C1533 C1552 1.368 . S
C1533 H1557 0.949 . S
H1534 C1538 0.949 . S
C1535 C1536 1.349 . S
C1535 C1537 1.327 . S
C1535 H1558 0.950 . S
C1536 C1535 1.349 . S
C1536 C1548 1.349 . S
C1537 C1535 1.327 . S
C1537 C1553 1.429 . S
C1537 H1559 0.950 . S
C1538 H1534 0.949 . S
C1538 C1546 1.574 . S
C1538 C1554 1.368 . S
H1539 C1547 0.950 . S
H1540 C1545 0.950 . S
H1541 C1546 0.949 . S
H1542 C1548 0.950 . S
H1543 C1549 0.950 . S
H1544 C1550 0.949 . S
C1545 H1540 0.950 . S
C1545 C1547 1.327 . S
C1545 C1551 1.429 . S
C1546 C1538 1.574 . S
C1546 H1541 0.949 . S
C1546 C1552 1.368 . S
C1547 C1531 1.349 . S
C1547 H1539 0.950 . S
C1547 C1545 1.327 . S
C1548 C1536 1.349 . S
C1548 H1542 0.950 . S
C1548 C1549 1.327 . S
C1549 H1543 0.950 . S
C1549 C1548 1.327 . S
C1549 C1553 1.429 . S
C1550 C1533 1.574 . S
C1550 H1544 0.949 . S
C1550 C1554 1.368 . S
C1551 C1532 1.429 . S
C1551 C1545 1.429 . S
C1551 C1552 1.523 . S
C1552 C1533 1.368 . S
C1552 C1546 1.368 . S
C1552 C1551 1.523 . S
C1553 C1537 1.429 . S
C1553 C1549 1.429 . S
C1553 C1554 1.523 . S
C1554 C1538 1.368 . S
C1554 C1550 1.368 . S
C1554 C1553 1.523 . S
H1555 C1530 0.950 . S
H1556 C1532 0.950 . S
H1557 C1533 0.949 . S
H1558 C1535 0.950 . S
H1559 C1537 0.950 . S
C1560 C1561 1.349 . S
C1560 C1562 1.327 . S
C1560 H1585 0.950 . S
C1561 C1560 1.349 . S
C1561 C1577 1.349 . S
C1562 C1560 1.327 . S
C1562 C1581 1.429 . S
C1562 H1586 0.950 . S
C1563 C1580 1.574 . S
C1563 C1582 1.368 . S
C1563 H1587 0.949 . S
H1564 C1568 0.949 . S
C1565 C1566 1.349 . S
C1565 C1567 1.327 . S
C1565 H1588 0.950 . S
C1566 C1565 1.349 . S
C1566 C1578 1.349 . S
C1567 C1565 1.327 . S
C1567 C1583 1.429 . S
C1567 H1589 0.950 . S
C1568 H1564 0.949 . S
C1568 C1576 1.574 . S
C1568 C1584 1.368 . S
H1569 C1577 0.950 . S
H1570 C1575 0.950 . S
H1571 C1576 0.949 . S
H1572 C1578 0.950 . S
H1573 C1579 0.950 . S
H1574 C1580 0.949 . S
C1575 H1570 0.950 . S
C1575 C1577 1.327 . S
C1575 C1581 1.429 . S
C1576 C1568 1.574 . S
C1576 H1571 0.949 . S
C1576 C1582 1.368 . S
C1577 C1561 1.349 . S
C1577 H1569 0.950 . S
C1577 C1575 1.327 . S
C1578 C1566 1.349 . S
C1578 H1572 0.950 . S
C1578 C1579 1.327 . S
C1579 H1573 0.950 . S
C1579 C1578 1.327 . S
C1579 C1583 1.429 . S
C1580 C1563 1.574 . S
C1580 H1574 0.949 . S
C1580 C1584 1.368 . S
C1581 C1562 1.429 . S
C1581 C1575 1.429 . S
C1581 C1582 1.523 . S
C1582 C1563 1.368 . S
C1582 C1576 1.368 . S
C1582 C1581 1.523 . S
C1583 C1567 1.429 . S
C1583 C1579 1.429 . S
C1583 C1584 1.523 . S
C1584 C1568 1.368 . S
C1584 C1580 1.368 . S
C1584 C1583 1.523 . S
H1585 C1560 0.950 . S
H1586 C1562 0.950 . S
H1587 C1563 0.949 . S
H1588 C1565 0.950 . S
H1589 C1567 0.950 . S
C1590 C1591 1.349 . S
C1590 C1592 1.327 . S
C1590 H1615 0.950 . S
C1591 C1590 1.349 . S
C1591 C1607 1.349 . S
C1592 C1590 1.327 . S
C1592 C1611 1.429 . S
C1592 H1616 0.950 . S
C1593 C1610 1.574 . S
C1593 C1612 1.368 . S
C1593 H1617 0.949 . S
H1594 C1598 0.949 . S
C1595 C1596 1.349 . S
C1595 C1597 1.327 . S
C1595 H1618 0.950 . S
C1596 C1595 1.349 . S
C1596 C1608 1.349 . S
C1597 C1595 1.327 . S
C1597 C1613 1.429 . S
C1597 H1619 0.950 . S
C1598 H1594 0.949 . S
C1598 C1606 1.574 . S
C1598 C1614 1.368 . S
H1599 C1607 0.950 . S
H1600 C1605 0.950 . S
H1601 C1606 0.949 . S
H1602 C1608 0.950 . S
H1603 C1609 0.950 . S
H1604 C1610 0.949 . S
C1605 H1600 0.950 . S
C1605 C1607 1.327 . S
C1605 C1611 1.429 . S
C1606 C1598 1.574 . S
C1606 H1601 0.949 . S
C1606 C1612 1.368 . S
C1607 C1591 1.349 . S
C1607 H1599 0.950 . S
C1607 C1605 1.327 . S
C1608 C1596 1.349 . S
C1608 H1602 0.950 . S
C1608 C1609 1.327 . S
C1609 H1603 0.950 . S
C1609 C1608 1.327 . S
C1609 C1613 1.429 . S
C1610 C1593 1.574 . S
C1610 H1604 0.949 . S
C1610 C1614 1.368 . S
C1611 C1592 1.429 . S
C1611 C1605 1.429 . S
C1611 C1612 1.523 . S
C1612 C1593 1.368 . S
C1612 C1606 1.368 . S
C1612 C1611 1.523 . S
C1613 C1597 1.429 . S
C1613 C1609 1.429 . S
C1613 C1614 1.523 . S
C1614 C1598 1.368 . S
C1614 C1610 1.368 . S
C1614 C1613 1.523 . S
H1615 C1590 0.950 . S
H1616 C1592 0.950 . S
H1617 C1593 0.949 . S
H1618 C1595 0.950 . S
H1619 C1597 0.950 . S
C1620 C1621 1.349 . S
C1620 C1622 1.327 . S
C1620 H1645 0.950 . S
C1621 C1620 1.349 . S
C1621 C1637 1.349 . S
C1622 C1620 1.327 . S
C1622 C1641 1.429 . S
C1622 H1646 0.950 . S
C1623 C1640 1.574 . S
C1623 C1642 1.368 . S
C1623 H1647 0.949 . S
H1624 C1628 0.949 . S
C1625 C1626 1.349 . S
C1625 C1627 1.327 . S
C1625 H1648 0.950 . S
C1626 C1625 1.349 . S
C1626 C1638 1.349 . S
C1627 C1625 1.327 . S
C1627 C1643 1.429 . S
C1627 H1649 0.950 . S
C1628 H1624 0.949 . S
C1628 C1636 1.574 . S
C1628 C1644 1.368 . S
H1629 C1637 0.950 . S
H1630 C1635 0.950 . S
H1631 C1636 0.949 . S
H1632 C1638 0.950 . S
H1633 C1639 0.950 . S
H1634 C1640 0.949 . S
C1635 H1630 0.950 . S
C1635 C1637 1.327 . S
C1635 C1641 1.429 . S
C1636 C1628 1.574 . S
C1636 H1631 0.949 . S
C1636 C1642 1.368 . S
C1637 C1621 1.349 . S
C1637 H1629 0.950 . S
C1637 C1635 1.327 . S
C1638 C1626 1.349 . S
C1638 H1632 0.950 . S
C1638 C1639 1.327 . S
C1639 H1633 0.950 . S
C1639 C1638 1.327 . S
C1639 C1643 1.429 . S
C1640 C1623 1.574 . S
C1640 H1634 0.949 . S
C1640 C1644 1.368 . S
C1641 C1622 1.429 . S
C1641 C1635 1.429 . S
C1641 C1642 1.523 . S
C1642 C1623 1.368 . S
C1642 C1636 1.368 . S
C1642 C1641 1.523 . S
C1643 C1627 1.429 . S
C1643 C1639 1.429 . S
C1643 C1644 1.523 . S
C1644 C1628 1.368 . S
C1644 C1640 1.368 . S
C1644 C1643 1.523 . S
H1645 C1620 0.950 . S
H1646 C1622 0.950 . S
H1647 C1623 0.949 . S
H1648 C1625 0.950 . S
H1649 C1627 0.950 . S
C1650 C1651 1.349 . S
C1650 C1652 1.327 . S
C1650 H1675 0.950 . S
C1651 C1650 1.349 . S
C1651 C1667 1.349 . S
C1652 C1650 1.327 . S
C1652 C1671 1.429 . S
C1652 H1676 0.950 . S
C1653 C1670 1.574 . S
C1653 C1672 1.368 . S
C1653 H1677 0.949 . S
H1654 C1658 0.949 . S
C1655 C1656 1.349 . S
C1655 C1657 1.327 . S
C1655 H1678 0.950 . S
C1656 C1655 1.349 . S
C1656 C1668 1.349 . S
C1657 C1655 1.327 . S
C1657 C1673 1.429 . S
C1657 H1679 0.950 . S
C1658 H1654 0.949 . S
C1658 C1666 1.574 . S
C1658 C1674 1.368 . S
H1659 C1667 0.950 . S
H1660 C1665 0.950 . S
H1661 C1666 0.949 . S
H1662 C1668 0.950 . S
H1663 C1669 0.950 . S
H1664 C1670 0.949 . S
C1665 H1660 0.950 . S
C1665 C1667 1.327 . S
C1665 C1671 1.429 . S
C1666 C1658 1.574 . S
C1666 H1661 0.949 . S
C1666 C1672 1.368 . S
C1667 C1651 1.349 . S
C1667 H1659 0.950 . S
C1667 C1665 1.327 . S
C1668 C1656 1.349 . S
C1668 H1662 0.950 . S
C1668 C1669 1.327 . S
C1669 H1663 0.950 . S
C1669 C1668 1.327 . S
C1669 C1673 1.429 . S
C1670 C1653 1.574 . S
C1670 H1664 0.949 . S
C1670 C1674 1.368 . S
C1671 C1652 1.429 . S
C1671 C1665 1.429 . S
C1671 C1672 1.523 . S
C1672 C1653 1.368 . S
C1672 C1666 1.368 . S
C1672 C1671 1.523 . S
C1673 C1657 1.429 . S
C1673 C1669 1.429 . S
C1673 C1674 1.523 . S
C1674 C1658 1.368 . S
C1674 C1670 1.368 . S
C1674 C1673 1.523 . S
H1675 C1650 0.950 . S
H1676 C1652 0.950 . S
H1677 C1653 0.949 . S
H1678 C1655 0.950 . S
H1679 C1657 0.950 . S
C1680 C1681 1.349 . S
C1680 C1682 1.327 . S
C1680 H1705 0.950 . S
C1681 C1680 1.349 . S
C1681 C1697 1.349 . S
C1682 C1680 1.327 . S
C1682 C1701 1.429 . S
C1682 H1706 0.950 . S
C1683 C1700 1.574 . S
C1683 C1702 1.368 . S
C1683 H1707 0.949 . S
H1684 C1688 0.949 . S
C1685 C1686 1.349 . S
C1685 C1687 1.327 . S
C1685 H1708 0.950 . S
C1686 C1685 1.349 . S
C1686 C1698 1.349 . S
C1687 C1685 1.327 . S
C1687 C1703 1.429 . S
C1687 H1709 0.950 . S
C1688 H1684 0.949 . S
C1688 C1696 1.574 . S
C1688 C1704 1.368 . S
H1689 C1697 0.950 . S
H1690 C1695 0.950 . S
H1691 C1696 0.949 . S
H1692 C1698 0.950 . S
H1693 C1699 0.950 . S
H1694 C1700 0.949 . S
C1695 H1690 0.950 . S
C1695 C1697 1.327 . S
C1695 C1701 1.429 . S
C1696 C1688 1.574 . S
C1696 H1691 0.949 . S
C1696 C1702 1.368 . S
C1697 C1681 1.349 . S
C1697 H1689 0.950 . S
C1697 C1695 1.327 . S
C1698 C1686 1.349 . S
C1698 H1692 0.950 . S
C1698 C1699 1.327 . S
C1699 H1693 0.950 . S
C1699 C1698 1.327 . S
C1699 C1703 1.429 . S
C1700 C1683 1.574 . S
C1700 H1694 0.949 . S
C1700 C1704 1.368 . S
C1701 C1682 1.429 . S
C1701 C1695 1.429 . S
C1701 C1702 1.523 . S
C1702 C1683 1.368 . S
C1702 C1696 1.368 . S
C1702 C1701 1.523 . S
C1703 C1687 1.429 . S
C1703 C1699 1.429 . S
C1703 C1704 1.523 . S
C1704 C1688 1.368 . S
C1704 C1700 1.368 . S
C1704 C1703 1.523 . S
H1705 C1680 0.950 . S
H1706 C1682 0.950 . S
H1707 C1683 0.949 . S
H1708 C1685 0.950 . S
H1709 C1687 0.950 . S
C1710 C1711 1.349 . S
C1710 C1712 1.327 . S
C1710 H1735 0.950 . S
C1711 C1710 1.349 . S
C1711 C1727 1.349 . S
C1712 C1710 1.327 . S
C1712 C1731 1.429 . S
C1712 H1736 0.950 . S
C1713 C1730 1.574 . S
C1713 C1732 1.368 . S
C1713 H1737 0.949 . S
H1714 C1718 0.949 . S
C1715 C1716 1.349 . S
C1715 C1717 1.327 . S
C1715 H1738 0.950 . S
C1716 C1715 1.349 . S
C1716 C1728 1.349 . S
C1717 C1715 1.327 . S
C1717 C1733 1.429 . S
C1717 H1739 0.950 . S
C1718 H1714 0.949 . S
C1718 C1726 1.574 . S
C1718 C1734 1.368 . S
H1719 C1727 0.950 . S
H1720 C1725 0.950 . S
H1721 C1726 0.949 . S
H1722 C1728 0.950 . S
H1723 C1729 0.950 . S
H1724 C1730 0.949 . S
C1725 H1720 0.950 . S
C1725 C1727 1.327 . S
C1725 C1731 1.429 . S
C1726 C1718 1.574 . S
C1726 H1721 0.949 . S
C1726 C1732 1.368 . S
C1727 C1711 1.349 . S
C1727 H1719 0.950 . S
C1727 C1725 1.327 . S
C1728 C1716 1.349 . S
C1728 H1722 0.950 . S
C1728 C1729 1.327 . S
C1729 H1723 0.950 . S
C1729 C1728 1.327 . S
C1729 C1733 1.429 . S
C1730 C1713 1.574 . S
C1730 H1724 0.949 . S
C1730 C1734 1.368 . S
C1731 C1712 1.429 . S
C1731 C1725 1.429 . S
C1731 C1732 1.523 . S
C1732 C1713 1.368 . S
C1732 C1726 1.368 . S
C1732 C1731 1.523 . S
C1733 C1717 1.429 . S
C1733 C1729 1.429 . S
C1733 C1734 1.523 . S
C1734 C1718 1.368 . S
C1734 C1730 1.368 . S
C1734 C1733 1.523 . S
H1735 C1710 0.950 . S
H1736 C1712 0.950 . S
H1737 C1713 0.949 . S
H1738 C1715 0.950 . S
H1739 C1717 0.950 . S
C1740 C1741 1.349 . S
C1740 C1742 1.327 . S
C1740 H1765 0.950 . S
C1741 C1740 1.349 . S
C1741 C1757 1.349 . S
C1742 C1740 1.327 . S
C1742 C1761 1.429 . S
C1742 H1766 0.950 . S
C1743 C1760 1.574 . S
C1743 C1762 1.368 . S
C1743 H1767 0.949 . S
H1744 C1748 0.949 . S
C1745 C1746 1.349 . S
C1745 C1747 1.327 . S
C1745 H1768 0.950 . S
C1746 C1745 1.349 . S
C1746 C1758 1.349 . S
C1747 C1745 1.327 . S
C1747 C1763 1.429 . S
C1747 H1769 0.950 . S
C1748 H1744 0.949 . S
C1748 C1756 1.574 . S
C1748 C1764 1.368 . S
H1749 C1757 0.950 . S
H1750 C1755 0.950 . S
H1751 C1756 0.949 . S
H1752 C1758 0.950 . S
H1753 C1759 0.950 . S
H1754 C1760 0.949 . S
C1755 H1750 0.950 . S
C1755 C1757 1.327 . S
C1755 C1761 1.429 . S
C1756 C1748 1.574 . S
C1756 H1751 0.949 . S
C1756 C1762 1.368 . S
C1757 C1741 1.349 . S
C1757 H1749 0.950 . S
C1757 C1755 1.327 . S
C1758 C1746 1.349 . S
C1758 H1752 0.950 . S
C1758 C1759 1.327 . S
C1759 H1753 0.950 . S
C1759 C1758 1.327 . S
C1759 C1763 1.429 . S
C1760 C1743 1.574 . S
C1760 H1754 0.949 . S
C1760 C1764 1.368 . S
C1761 C1742 1.429 . S
C1761 C1755 1.429 . S
C1761 C1762 1.523 . S
C1762 C1743 1.368 . S
C1762 C1756 1.368 . S
C1762 C1761 1.523 . S
C1763 C1747 1.429 . S
C1763 C1759 1.429 . S
C1763 C1764 1.523 . S
C1764 C1748 1.368 . S
C1764 C1760 1.368 . S
C1764 C1763 1.523 . S
H1765 C1740 0.950 . S
H1766 C1742 0.950 . S
H1767 C1743 0.949 . S
H1768 C1745 0.950 . S
H1769 C1747 0.950 . S
C1770 C1771 1.349 . S
C1770 C1772 1.327 . S
C1770 H1795 0.950 . S
C1771 C1770 1.349 . S
C1771 C1787 1.349 . S
C1772 C1770 1.327 . S
C1772 C1791 1.429 . S
C1772 H1796 0.950 . S
C1773 C1790 1.574 . S
C1773 C1792 1.368 . S
C1773 H1797 0.949 . S
H1774 C1778 0.949 . S
C1775 C1776 1.349 . S
C1775 C1777 1.327 . S
C1775 H1798 0.950 . S
C1776 C1775 1.349 . S
C1776 C1788 1.349 . S
C1777 C1775 1.327 . S
C1777 C1793 1.429 . S
C1777 H1799 0.950 . S
C1778 H1774 0.949 . S
C1778 C1786 1.574 . S
C1778 C1794 1.368 . S
H1779 C1787 0.950 . S
H1780 C1785 0.950 . S
H1781 C1786 0.949 . S
H1782 C1788 0.950 . S
H1783 C1789 0.950 . S
H1784 C1790 0.949 . S
C1785 H1780 0.950 . S
C1785 C1787 1.327 . S
C1785 C1791 1.429 . S
C1786 C1778 1.574 . S
C1786 H1781 0.949 . S
C1786 C1792 1.368 . S
C1787 C1771 1.349 . S
C1787 H1779 0.950 . S
C1787 C1785 1.327 . S
C1788 C1776 1.349 . S
C1788 H1782 0.950 . S
C1788 C1789 1.327 . S
C1789 H1783 0.950 . S
C1789 C1788 1.327 . S
C1789 C1793 1.429 . S
C1790 C1773 1.574 . S
C1790 H1784 0.949 . S
C1790 C1794 1.368 . S
C1791 C1772 1.429 . S
C1791 C1785 1.429 . S
C1791 C1792 1.523 . S
C1792 C1773 1.368 . S
C1792 C1786 1.368 . S
C1792 C1791 1.523 . S
C1793 C1777 1.429 . S
C1793 C1789 1.429 . S
C1793 C1794 1.523 . S
C1794 C1778 1.368 . S
C1794 C1790 1.368 . S
C1794 C1793 1.523 . S
H1795 C1770 0.950 . S
H1796 C1772 0.950 . S
H1797 C1773 0.949 . S
H1798 C1775 0.950 . S
H1799 C1777 0.950 . S
C1800 C1801 1.349 . S
C1800 C1802 1.327 . S
C1800 H1825 0.950 . S
C1801 C1800 1.349 . S
C1801 C1817 1.349 . S
C1802 C1800 1.327 . S
C1802 C1821 1.429 . S
C1802 H1826 0.950 . S
C1803 C1820 1.574 . S
C1803 C1822 1.368 . S
C1803 H1827 0.949 . S
H1804 C1808 0.949 . S
C1805 C1806 1.349 . S
C1805 C1807 1.327 . S
C1805 H1828 0.950 . S
C1806 C1805 1.349 . S
C1806 C1818 1.349 . S
C1807 C1805 1.327 . S
C1807 C1823 1.429 . S
C1807 H1829 0.950 . S
C1808 H1804 0.949 . S
C1808 C1816 1.574 . S
C1808 C1824 1.368 . S
H1809 C1817 0.950 . S
H1810 C1815 0.950 . S
H1811 C1816 0.949 . S
H1812 C1818 0.950 . S
H1813 C1819 0.950 . S
H1814 C1820 0.949 . S
C1815 H1810 0.950 . S
C1815 C1817 1.327 . S
C1815 C1821 1.429 . S
C1816 C1808 1.574 . S
C1816 H1811 0.949 . S
C1816 C1822 1.368 . S
C1817 C1801 1.349 . S
C1817 H1809 0.950 . S
C1817 C1815 1.327 . S
C1818 C1806 1.349 . S
C1818 H1812 0.950 . S
C1818 C1819 1.327 . S
C1819 H1813 0.950 . S
C1819 C1818 1.327 . S
C1819 C1823 1.429 . S
C1820 C1803 1.574 . S
C1820 H1814 0.949 . S
C1820 C1824 1.368 . S
C1821 C1802 1.429 . S
C1821 C1815 1.429 . S
C1821 C1822 1.523 . S
C1822 C1803 1.368 . S
C1822 C1816 1.368 . S
C1822 C1821 1.523 . S
C1823 C1807 1.429 . S
C1823 C1819 1.429 . S
C1823 C1824 1.523 . S
C1824 C1808 1.368 . S
C1824 C1820 1.368 . S
C1824 C1823 1.523 . S
H1825 C1800 0.950 . S
H1826 C1802 0.950 . S
H1827 C1803 0.949 . S
H1828 C1805 0.950 . S
H1829 C1807 0.950 . S
C1830 C1831 1.349 . S
C1830 C1832 1.327 . S
C1830 H1855 0.950 . S
C1831 C1830 1.349 . S
C1831 C1847 1.349 . S
C1832 C1830 1.327 . S
C1832 C1851 1.429 . S
C1832 H1856 0.950 . S
C1833 C1850 1.574 . S
C1833 C1852 1.368 . S
C1833 H1857 0.949 . S
H1834 C1838 0.949 . S
C1835 C1836 1.349 . S
C1835 C1837 1.327 . S
C1835 H1858 0.950 . S
C1836 C1835 1.349 . S
C1836 C1848 1.349 . S
C1837 C1835 1.327 . S
C1837 C1853 1.429 . S
C1837 H1859 0.950 . S
C1838 H1834 0.949 . S
C1838 C1846 1.574 . S
C1838 C1854 1.368 . S
H1839 C1847 0.950 . S
H1840 C1845 0.950 . S
H1841 C1846 0.949 . S
H1842 C1848 0.950 . S
H1843 C1849 0.950 . S
H1844 C1850 0.949 . S
C1845 H1840 0.950 . S
C1845 C1847 1.327 . S
C1845 C1851 1.429 . S
C1846 C1838 1.574 . S
C1846 H1841 0.949 . S
C1846 C1852 1.368 . S
C1847 C1831 1.349 . S
C1847 H1839 0.950 . S
C1847 C1845 1.327 . S
C1848 C1836 1.349 . S
C1848 H1842 0.950 . S
C1848 C1849 1.327 . S
C1849 H1843 0.950 . S
C1849 C1848 1.327 . S
C1849 C1853 1.429 . S
C1850 C1833 1.574 . S
C1850 H1844 0.949 . S
C1850 C1854 1.368 . S
C1851 C1832 1.429 . S
C1851 C1845 1.429 . S
C1851 C1852 1.523 . S
C1852 C1833 1.368 . S
C1852 C1846 1.368 . S
C1852 C1851 1.523 . S
C1853 C1837 1.429 . S
C1853 C1849 1.429 . S
C1853 C1854 1.523 . S
C1854 C1838 1.368 . S
C1854 C1850 1.368 . S
C1854 C1853 1.523 . S
H1855 C1830 0.950 . S
H1856 C1832 0.950 . S
H1857 C1833 0.949 . S
H1858 C1835 0.950 . S
H1859 C1837 0.950 . S
C1860 C1861 1.349 . S
C1860 C1862 1.327 . S
C1860 H1885 0.950 . S
C1861 C1860 1.349 . S
C1861 C1877 1.349 . S
C1862 C1860 1.327 . S
C1862 C1881 1.429 . S
C1862 H1886 0.950 . S
C1863 C1880 1.574 . S
C1863 C1882 1.368 . S
C1863 H1887 0.949 . S
H1864 C1868 0.949 . S
C1865 C1866 1.349 . S
C1865 C1867 1.327 . S
C1865 H1888 0.950 . S
C1866 C1865 1.349 . S
C1866 C1878 1.349 . S
C1867 C1865 1.327 . S
C1867 C1883 1.429 . S
C1867 H1889 0.950 . S
C1868 H1864 0.949 . S
C1868 C1876 1.574 . S
C1868 C1884 1.368 . S
H1869 C1877 0.950 . S
H1870 C1875 0.950 . S
H1871 C1876 0.949 . S
H1872 C1878 0.950 . S
H1873 C1879 0.950 . S
H1874 C1880 0.949 . S
C1875 H1870 0.950 . S
C1875 C1877 1.327 . S
C1875 C1881 1.429 . S
C1876 C1868 1.574 . S
C1876 H1871 0.949 . S
C1876 C1882 1.368 . S
C1877 C1861 1.349 . S
C1877 H1869 0.950 . S
C1877 C1875 1.327 . S
C1878 C1866 1.349 . S
C1878 H1872 0.950 . S
C1878 C1879 1.327 . S
C1879 H1873 0.950 . S
C1879 C1878 1.327 . S
C1879 C1883 1.429 . S
C1880 C1863 1.574 . S
C1880 H1874 0.949 . S
C1880 C1884 1.368 . S
C1881 C1862 1.429 . S
C1881 C1875 1.429 . S
C1881 C1882 1.523 . S
C1882 C1863 1.368 . S
C1882 C1876 1.368 . S
C1882 C1881 1.523 . S
C1883 C1867 1.429 . S
C1883 C1879 1.429 . S
C1883 C1884 1.523 . S
C1884 C1868 1.368 . S
C1884 C1880 1.368 . S
C1884 C1883 1.523 . S
H1885 C1860 0.950 . S
H1886 C1862 0.950 . S
H1887 C1863 0.949 . S
H1888 C1865 0.950 . S
H1889 C1867 0.950 . S
C1890 C1891 1.349 . S
C1890 C1892 1.327 . S
C1890 H1915 0.950 . S
C1891 C1890 1.349 . S
C1891 C1907 1.349 . S
C1892 C1890 1.327 . S
C1892 C1911 1.429 . S
C1892 H1916 0.950 . S
C1893 C1910 1.574 . S
C1893 C1912 1.368 . S
C1893 H1917 0.949 . S
H1894 C1898 0.949 . S
C1895 C1896 1.349 . S
C1895 C1897 1.327 . S
C1895 H1918 0.950 . S
C1896 C1895 1.349 . S
C1896 C1908 1.349 . S
C1897 C1895 1.327 . S
C1897 C1913 1.429 . S
C1897 H1919 0.950 . S
C1898 H1894 0.949 . S
C1898 C1906 1.574 . S
C1898 C1914 1.368 . S
H1899 C1907 0.950 . S
H1900 C1905 0.950 . S
H1901 C1906 0.949 . S
H1902 C1908 0.950 . S
H1903 C1909 0.950 . S
H1904 C1910 0.949 . S
C1905 H1900 0.950 . S
C1905 C1907 1.327 . S
C1905 C1911 1.429 . S
C1906 C1898 1.574 . S
C1906 H1901 0.949 . S
C1906 C1912 1.368 . S
C1907 C1891 1.349 . S
C1907 H1899 0.950 . S
C1907 C1905 1.327 . S
C1908 C1896 1.349 . S
C1908 H1902 0.950 . S
C1908 C1909 1.327 . S
C1909 H1903 0.950 . S
C1909 C1908 1.327 . S
C1909 C1913 1.429 . S
C1910 C1893 1.574 . S
C1910 H1904 0.949 . S
C1910 C1914 1.368 . S
C1911 C1892 1.429 . S
C1911 C1905 1.429 . S
C1911 C1912 1.523 . S
C1912 C1893 1.368 . S
C1912 C1906 1.368 . S
C1912 C1911 1.523 . S
C1913 C1897 1.429 . S
C1913 C1909 1.429 . S
C1913 C1914 1.523 . S
C1914 C1898 1.368 . S
C1914 C1910 1.368 . S
C1914 C1913 1.523 . S
H1915 C1890 0.950 . S
H1916 C1892 0.950 . S
H1917 C1893 0.949 . S
H1918 C1895 0.950 . S
H1919 C1897 0.950 . S
C1920 C1921 1.349 . S
C1920 C1922 1.327 . S
C1920 H1945 0.950 . S
C1921 C1920 1.349 . S
C1921 C1937 1.349 . S
C1922 C1920 1.327 . S
C1922 C1941 1.429 . S
C1922 H1946 0.950 . S
C1923 C1940 1.574 . S
C1923 C1942 1.368 . S
C1923 H1947 0.949 . S
H1924 C1928 0.949 . S
C1925 C1926 1.349 . S
C1925 C1927 1.327 . S
C1925 H1948 0.950 . S
C1926 C1925 1.349 . S
C1926 C1938 1.349 . S
C1927 C1925 1.327 . S
C1927 C1943 1.429 . S
C1927 H1949 0.950 . S
C1928 H1924 0.949 . S
C1928 C1936 1.574 . S
C1928 C1944 1.368 . S
H1929 C1937 0.950 . S
H1930 C1935 0.950 . S
H1931 C1936 0.949 . S
H1932 C1938 0.950 . S
H1933 C1939 0.950 . S
H1934 C1940 0.949 . S
C1935 H1930 0.950 . S
C1935 C1937 1.327 . S
C1935 C1941 1.429 . S
C1936 C1928 1.574 . S
C1936 H1931 0.949 . S
C1936 C1942 1.368 . S
C1937 C1921 1.349 . S
C1937 H1929 0.950 . S
C1937 C1935 1.327 . S
C1938 C1926 1.349 . S
C1938 H1932 0.950 . S
C1938 C1939 1.327 . S
C1939 H1933 0.950 . S
C1939 C1938 1.327 . S
C1939 C1943 1.429 . S
C1940 C1923 1.574 . S
C1940 H1934 0.949 . S
C1940 C1944 1.368 . S
C1941 C1922 1.429 . S
C1941 C1935 1.429 . S
C1941 C1942 1.523 . S
C1942 C1923 1.368 . S
C1942 C1936 1.368 . S
C1942 C1941 1.523 . S
C1943 C1927 1.429 . S
C1943 C1939 1.429 . S
C1943 C1944 1.523 . S
C1944 C1928 1.368 . S
C1944 C1940 1.368 . S
C1944 C1943 1.523 . S
H1945 C1920 0.950 . S
H1946 C1922 0.950 . S
H1947 C1923 0.949 . S
H1948 C1925 0.950 . S
H1949 C1927 0.950 . S
C1950 C1951 1.349 . S
C1950 C1952 1.327 . S
C1950 H1975 0.950 . S
C1951 C1950 1.349 . S
C1951 C1967 1.349 . S
C1952 C1950 1.327 . S
C1952 C1971 1.429 . S
C1952 H1976 0.950 . S
C1953 C1970 1.574 . S
C1953 C1972 1.368 . S
C1953 H1977 0.949 . S
H1954 C1958 0.949 . S
C1955 C1956 1.349 . S
C1955 C1957 1.327 . S
C1955 H1978 0.950 . S
C1956 C1955 1.349 . S
C1956 C1968 1.349 . S
C1957 C1955 1.327 . S
C1957 C1973 1.429 . S
C1957 H1979 0.950 . S
C1958 H1954 0.949 . S
C1958 C1966 1.574 . S
C1958 C1974 1.368 . S
H1959 C1967 0.950 . S
H1960 C1965 0.950 . S
H1961 C1966 0.949 . S
H1962 C1968 0.950 . S
H1963 C1969 0.950 . S
H1964 C1970 0.949 . S
C1965 H1960 0.950 . S
C1965 C1967 1.327 . S
C1965 C1971 1.429 . S
C1966 C1958 1.574 . S
C1966 H1961 0.949 . S
C1966 C1972 1.368 . S
C1967 C1951 1.349 . S
C1967 H1959 0.950 . S
C1967 C1965 1.327 . S
C1968 C1956 1.349 . S
C1968 H1962 0.950 . S
C1968 C1969 1.327 . S
C1969 H1963 0.950 . S
C1969 C1968 1.327 . S
C1969 C1973 1.429 . S
C1970 C1953 1.574 . S
C1970 H1964 0.949 . S
C1970 C1974 1.368 . S
C1971 C1952 1.429 . S
C1971 C1965 1.429 . S
C1971 C1972 1.523 . S
C1972 C1953 1.368 . S
C1972 C1966 1.368 . S
C1972 C1971 1.523 . S
C1973 C1957 1.429 . S
C1973 C1969 1.429 . S
C1973 C1974 1.523 . S
C1974 C1958 1.368 . S
C1974 C1970 1.368 . S
C1974 C1973 1.523 . S
H1975 C1950 0.950 . S
H1976 C1952 0.950 . S
H1977 C1953 0.949 . S
H1978 C1955 0.950 . S
H1979 C1957 0.950 . S
C1980 C1981 1.349 . S
C1980 C1982 1.327 . S
C1980 H2005 0.950 . S
C1981 C1980 1.349 . S
C1981 C1997 1.349 . S
C1982 C1980 1.327 . S
C1982 C2001 1.429 . S
C1982 H2006 0.950 . S
C1983 C2000 1.574 . S
C1983 C2002 1.368 . S
C1983 H2007 0.949 . S
H1984 C1988 0.949 . S
C1985 C1986 1.349 . S
C1985 C1987 1.327 . S
C1985 H2008 0.950 . S
C1986 C1985 1.349 . S
C1986 C1998 1.349 . S
C1987 C1985 1.327 . S
C1987 C2003 1.429 . S
C1987 H2009 0.950 . S
C1988 H1984 0.949 . S
C1988 C1996 1.574 . S
C1988 C2004 1.368 . S
H1989 C1997 0.950 . S
H1990 C1995 0.950 . S
H1991 C1996 0.949 . S
H1992 C1998 0.950 . S
H1993 C1999 0.950 . S
H1994 C2000 0.949 . S
C1995 H1990 0.950 . S
C1995 C1997 1.327 . S
C1995 C2001 1.429 . S
C1996 C1988 1.574 . S
C1996 H1991 0.949 . S
C1996 C2002 1.368 . S
C1997 C1981 1.349 . S
C1997 H1989 0.950 . S
C1997 C1995 1.327 . S
C1998 C1986 1.349 . S
C1998 H1992 0.950 . S
C1998 C1999 1.327 . S
C1999 H1993 0.950 . S
C1999 C1998 1.327 . S
C1999 C2003 1.429 . S
C2000 C1983 1.574 . S
C2000 H1994 0.949 . S
C2000 C2004 1.368 . S
C2001 C1982 1.429 . S
C2001 C1995 1.429 . S
C2001 C2002 1.523 . S
C2002 C1983 1.368 . S
C2002 C1996 1.368 . S
C2002 C2001 1.523 . S
C2003 C1987 1.429 . S
C2003 C1999 1.429 . S
C2003 C2004 1.523 . S
C2004 C1988 1.368 . S
C2004 C2000 1.368 . S
C2004 C2003 1.523 . S
H2005 C1980 0.950 . S
H2006 C1982 0.950 . S
H2007 C1983 0.949 . S
H2008 C1985 0.950 . S
H2009 C1987 0.950 . S
C2010 C2011 1.349 . S
C2010 C2012 1.327 . S
C2010 H2035 0.950 . S
C2011 C2010 1.349 . S
C2011 C2027 1.349 . S
C2012 C2010 1.327 . S
C2012 C2031 1.429 . S
C2012 H2036 0.950 . S
C2013 C2030 1.574 . S
C2013 C2032 1.368 . S
C2013 H2037 0.949 . S
H2014 C2018 0.949 . S
C2015 C2016 1.349 . S
C2015 C2017 1.327 . S
C2015 H2038 0.950 . S
C2016 C2015 1.349 . S
C2016 C2028 1.349 . S
C2017 C2015 1.327 . S
C2017 C2033 1.429 . S
C2017 H2039 0.950 . S
C2018 H2014 0.949 . S
C2018 C2026 1.574 . S
C2018 C2034 1.368 . S
H2019 C2027 0.950 . S
H2020 C2025 0.950 . S
H2021 C2026 0.949 . S
H2022 C2028 0.950 . S
H2023 C2029 0.950 . S
H2024 C2030 0.949 . S
C2025 H2020 0.950 . S
C2025 C2027 1.327 . S
C2025 C2031 1.429 . S
C2026 C2018 1.574 . S
C2026 H2021 0.949 . S
C2026 C2032 1.368 . S
C2027 C2011 1.349 . S
C2027 H2019 0.950 . S
C2027 C2025 1.327 . S
C2028 C2016 1.349 . S
C2028 H2022 0.950 . S
C2028 C2029 1.327 . S
C2029 H2023 0.950 . S
C2029 C2028 1.327 . S
C2029 C2033 1.429 . S
C2030 C2013 1.574 . S
C2030 H2024 0.949 . S
C2030 C2034 1.368 . S
C2031 C2012 1.429 . S
C2031 C2025 1.429 . S
C2031 C2032 1.523 . S
C2032 C2013 1.368 . S
C2032 C2026 1.368 . S
C2032 C2031 1.523 . S
C2033 C2017 1.429 . S
C2033 C2029 1.429 . S
C2033 C2034 1.523 . S
C2034 C2018 1.368 . S
C2034 C2030 1.368 . S
C2034 C2033 1.523 . S
H2035 C2010 0.950 . S
H2036 C2012 0.950 . S
H2037 C2013 0.949 . S
H2038 C2015 0.950 . S
H2039 C2017 0.950 . S
C2040 C2041 1.349 . S
C2040 C2042 1.327 . S
C2040 H2065 0.950 . S
C2041 C2040 1.349 . S
C2041 C2057 1.349 . S
C2042 C2040 1.327 . S
C2042 C2061 1.429 . S
C2042 H2066 0.950 . S
C2043 C2060 1.574 . S
C2043 C2062 1.368 . S
C2043 H2067 0.949 . S
H2044 C2048 0.949 . S
C2045 C2046 1.349 . S
C2045 C2047 1.327 . S
C2045 H2068 0.950 . S
C2046 C2045 1.349 . S
C2046 C2058 1.349 . S
C2047 C2045 1.327 . S
C2047 C2063 1.429 . S
C2047 H2069 0.950 . S
C2048 H2044 0.949 . S
C2048 C2056 1.574 . S
C2048 C2064 1.368 . S
H2049 C2057 0.950 . S
H2050 C2055 0.950 . S
H2051 C2056 0.949 . S
H2052 C2058 0.950 . S
H2053 C2059 0.950 . S
H2054 C2060 0.949 . S
C2055 H2050 0.950 . S
C2055 C2057 1.327 . S
C2055 C2061 1.429 . S
C2056 C2048 1.574 . S
C2056 H2051 0.949 . S
C2056 C2062 1.368 . S
C2057 C2041 1.349 . S
C2057 H2049 0.950 . S
C2057 C2055 1.327 . S
C2058 C2046 1.349 . S
C2058 H2052 0.950 . S
C2058 C2059 1.327 . S
C2059 H2053 0.950 . S
C2059 C2058 1.327 . S
C2059 C2063 1.429 . S
C2060 C2043 1.574 . S
C2060 H2054 0.949 . S
C2060 C2064 1.368 . S
C2061 C2042 1.429 . S
C2061 C2055 1.429 . S
C2061 C2062 1.523 . S
C2062 C2043 1.368 . S
C2062 C2056 1.368 . S
C2062 C2061 1.523 . S
C2063 C2047 1.429 . S
C2063 C2059 1.429 . S
C2063 C2064 1.523 . S
C2064 C2048 1.368 . S
C2064 C2060 1.368 . S
C2064 C2063 1.523 . S
H2065 C2040 0.950 . S
H2066 C2042 0.950 . S
H2067 C2043 0.949 . S
H2068 C2045 0.950 . S
H2069 C2047 0.950 . S
C2070 C2071 1.349 . S
C2070 C2072 1.327 . S
C2070 H2095 0.950 . S
C2071 C2070 1.349 . S
C2071 C2087 1.349 . S
C2072 C2070 1.327 . S
C2072 C2091 1.429 . S
C2072 H2096 0.950 . S
C2073 C2090 1.574 . S
C2073 C2092 1.368 . S
C2073 H2097 0.949 . S
H2074 C2078 0.949 . S
C2075 C2076 1.349 . S
C2075 C2077 1.327 . S
C2075 H2098 0.950 . S
C2076 C2075 1.349 . S
C2076 C2088 1.349 . S
C2077 C2075 1.327 . S
C2077 C2093 1.429 . S
C2077 H2099 0.950 . S
C2078 H2074 0.949 . S
C2078 C2086 1.574 . S
C2078 C2094 1.368 . S
H2079 C2087 0.950 . S
H2080 C2085 0.950 . S
H2081 C2086 0.949 . S
H2082 C2088 0.950 . S
H2083 C2089 0.950 . S
H2084 C2090 0.949 . S
C2085 H2080 0.950 . S
C2085 C2087 1.327 . S
C2085 C2091 1.429 . S
C2086 C2078 1.574 . S
C2086 H2081 0.949 . S
C2086 C2092 1.368 . S
C2087 C2071 1.349 . S
C2087 H2079 0.950 . S
C2087 C2085 1.327 . S
C2088 C2076 1.349 . S
C2088 H2082 0.950 . S
C2088 C2089 1.327 . S
C2089 H2083 0.950 . S
C2089 C2088 1.327 . S
C2089 C2093 1.429 . S
C2090 C2073 1.574 . S
C2090 H2084 0.949 . S
C2090 C2094 1.368 . S
C2091 C2072 1.429 . S
C2091 C2085 1.429 . S
C2091 C2092 1.523 . S
C2092 C2073 1.368 . S
C2092 C2086 1.368 . S
C2092 C2091 1.523 . S
C2093 C2077 1.429 . S
C2093 C2089 1.429 . S
C2093 C2094 1.523 . S
C2094 C2078 1.368 . S
C2094 C2090 1.368 . S
C2094 C2093 1.523 . S
H2095 C2070 0.950 . S
H2096 C2072 0.950 . S
H2097 C2073 0.949 . S
H2098 C2075 0.950 . S
H2099 C2077 0.950 . S
C2100 C2101 1.349 . S
C2100 C2102 1.327 . S
C2100 H2125 0.950 . S
C2101 C2100 1.349 . S
C2101 C2117 1.349 . S
C2102 C2100 1.327 . S
C2102 C2121 1.429 . S
C2102 H2126 0.950 . S
C2103 C2120 1.574 . S
C2103 C2122 1.368 . S
C2103 H2127 0.949 . S
H2104 C2108 0.949 . S
C2105 C2106 1.349 . S
C2105 C2107 1.327 . S
C2105 H2128 0.950 . S
C2106 C2105 1.349 . S
C2106 C2118 1.349 . S
C2107 C2105 1.327 . S
C2107 C2123 1.429 . S
C2107 H2129 0.950 . S
C2108 H2104 0.949 . S
C2108 C2116 1.574 . S
C2108 C2124 1.368 . S
H2109 C2117 0.950 . S
H2110 C2115 0.950 . S
H2111 C2116 0.949 . S
H2112 C2118 0.950 . S
H2113 C2119 0.950 . S
H2114 C2120 0.949 . S
C2115 H2110 0.950 . S
C2115 C2117 1.327 . S
C2115 C2121 1.429 . S
C2116 C2108 1.574 . S
C2116 H2111 0.949 . S
C2116 C2122 1.368 . S
C2117 C2101 1.349 . S
C2117 H2109 0.950 . S
C2117 C2115 1.327 . S
C2118 C2106 1.349 . S
C2118 H2112 0.950 . S
C2118 C2119 1.327 . S
C2119 H2113 0.950 . S
C2119 C2118 1.327 . S
C2119 C2123 1.429 . S
C2120 C2103 1.574 . S
C2120 H2114 0.949 . S
C2120 C2124 1.368 . S
C2121 C2102 1.429 . S
C2121 C2115 1.429 . S
C2121 C2122 1.523 . S
C2122 C2103 1.368 . S
C2122 C2116 1.368 . S
C2122 C2121 1.523 . S
C2123 C2107 1.429 . S
C2123 C2119 1.429 . S
C2123 C2124 1.523 . S
C2124 C2108 1.368 . S
C2124 C2120 1.368 . S
C2124 C2123 1.523 . S
H2125 C2100 0.950 . S
H2126 C2102 0.950 . S
H2127 C2103 0.949 . S
H2128 C2105 0.950 . S
H2129 C2107 0.950 . S
C2130 C2131 1.349 . S
C2130 C2132 1.327 . S
C2130 H2155 0.950 . S
C2131 C2130 1.349 . S
C2131 C2147 1.349 . S
C2132 C2130 1.327 . S
C2132 C2151 1.429 . S
C2132 H2156 0.950 . S
C2133 C2150 1.574 . S
C2133 C2152 1.368 . S
C2133 H2157 0.949 . S
H2134 C2138 0.949 . S
C2135 C2136 1.349 . S
C2135 C2137 1.327 . S
C2135 H2158 0.950 . S
C2136 C2135 1.349 . S
C2136 C2148 1.349 . S
C2137 C2135 1.327 . S
C2137 C2153 1.429 . S
C2137 H2159 0.950 . S
C2138 H2134 0.949 . S
C2138 C2146 1.574 . S
C2138 C2154 1.368 . S
H2139 C2147 0.950 . S
H2140 C2145 0.950 . S
H2141 C2146 0.949 . S
H2142 C2148 0.950 . S
H2143 C2149 0.950 . S
H2144 C2150 0.949 . S
C2145 H2140 0.950 . S
C2145 C2147 1.327 . S
C2145 C2151 1.429 . S
C2146 C2138 1.574 . S
C2146 H2141 0.949 . S
C2146 C2152 1.368 . S
C2147 C2131 1.349 . S
C2147 H2139 0.950 . S
C2147 C2145 1.327 . S
C2148 C2136 1.349 . S
C2148 H2142 0.950 . S
C2148 C2149 1.327 . S
C2149 H2143 0.950 . S
C2149 C2148 1.327 . S
C2149 C2153 1.429 . S
C2150 C2133 1.574 . S
C2150 H2144 0.949 . S
C2150 C2154 1.368 . S
C2151 C2132 1.429 . S
C2151 C2145 1.429 . S
C2151 C2152 1.523 . S
C2152 C2133 1.368 . S
C2152 C2146 1.368 . S
C2152 C2151 1.523 . S
C2153 C2137 1.429 . S
C2153 C2149 1.429 . S
C2153 C2154 1.523 . S
C2154 C2138 1.368 . S
C2154 C2150 1.368 . S
C2154 C2153 1.523 . S
H2155 C2130 0.950 . S
H2156 C2132 0.950 . S
H2157 C2133 0.949 . S
H2158 C2135 0.950 . S
H2159 C2137 0.950 . S
C2160 C2161 1.349 . S
C2160 C2162 1.327 . S
C2160 H2185 0.950 . S
C2161 C2160 1.349 . S
C2161 C2177 1.349 . S
C2162 C2160 1.327 . S
C2162 C2181 1.429 . S
C2162 H2186 0.950 . S
C2163 C2180 1.574 . S
C2163 C2182 1.368 . S
C2163 H2187 0.949 . S
H2164 C2168 0.949 . S
C2165 C2166 1.349 . S
C2165 C2167 1.327 . S
C2165 H2188 0.950 . S
C2166 C2165 1.349 . S
C2166 C2178 1.349 . S
C2167 C2165 1.327 . S
C2167 C2183 1.429 . S
C2167 H2189 0.950 . S
C2168 H2164 0.949 . S
C2168 C2176 1.574 . S
C2168 C2184 1.368 . S
H2169 C2177 0.950 . S
H2170 C2175 0.950 . S
H2171 C2176 0.949 . S
H2172 C2178 0.950 . S
H2173 C2179 0.950 . S
H2174 C2180 0.949 . S
C2175 H2170 0.950 . S
C2175 C2177 1.327 . S
C2175 C2181 1.429 . S
C2176 C2168 1.574 . S
C2176 H2171 0.949 . S
C2176 C2182 1.368 . S
C2177 C2161 1.349 . S
C2177 H2169 0.950 . S
C2177 C2175 1.327 . S
C2178 C2166 1.349 . S
C2178 H2172 0.950 . S
C2178 C2179 1.327 . S
C2179 H2173 0.950 . S
C2179 C2178 1.327 . S
C2179 C2183 1.429 . S
C2180 C2163 1.574 . S
C2180 H2174 0.949 . S
C2180 C2184 1.368 . S
C2181 C2162 1.429 . S
C2181 C2175 1.429 . S
C2181 C2182 1.523 . S
C2182 C2163 1.368 . S
C2182 C2176 1.368 . S
C2182 C2181 1.523 . S
C2183 C2167 1.429 . S
C2183 C2179 1.429 . S
C2183 C2184 1.523 . S
C2184 C2168 1.368 . S
C2184 C2180 1.368 . S
C2184 C2183 1.523 . S
H2185 C2160 0.950 . S
H2186 C2162 0.950 . S
H2187 C2163 0.949 . S
H2188 C2165 0.950 . S
H2189 C2167 0.950 . S
C2190 C2191 1.349 . S
C2190 C2192 1.327 . S
C2190 H2215 0.950 . S
C2191 C2190 1.349 . S
C2191 C2207 1.349 . S
C2192 C2190 1.327 . S
C2192 C2211 1.429 . S
C2192 H2216 0.950 . S
C2193 C2210 1.574 . S
C2193 C2212 1.368 . S
C2193 H2217 0.949 . S
H2194 C2198 0.949 . S
C2195 C2196 1.349 . S
C2195 C2197 1.327 . S
C2195 H2218 0.950 . S
C2196 C2195 1.349 . S
C2196 C2208 1.349 . S
C2197 C2195 1.327 . S
C2197 C2213 1.429 . S
C2197 H2219 0.950 . S
C2198 H2194 0.949 . S
C2198 C2206 1.574 . S
C2198 C2214 1.368 . S
H2199 C2207 0.950 . S
H2200 C2205 0.950 . S
H2201 C2206 0.949 . S
H2202 C2208 0.950 . S
H2203 C2209 0.950 . S
H2204 C2210 0.949 . S
C2205 H2200 0.950 . S
C2205 C2207 1.327 . S
C2205 C2211 1.429 . S
C2206 C2198 1.574 . S
C2206 H2201 0.949 . S
C2206 C2212 1.368 . S
C2207 C2191 1.349 . S
C2207 H2199 0.950 . S
C2207 C2205 1.327 . S
C2208 C2196 1.349 . S
C2208 H2202 0.950 . S
C2208 C2209 1.327 . S
C2209 H2203 0.950 . S
C2209 C2208 1.327 . S
C2209 C2213 1.429 . S
C2210 C2193 1.574 . S
C2210 H2204 0.949 . S
C2210 C2214 1.368 . S
C2211 C2192 1.429 . S
C2211 C2205 1.429 . S
C2211 C2212 1.523 . S
C2212 C2193 1.368 . S
C2212 C2206 1.368 . S
C2212 C2211 1.523 . S
C2213 C2197 1.429 . S
C2213 C2209 1.429 . S
C2213 C2214 1.523 . S
C2214 C2198 1.368 . S
C2214 C2210 1.368 . S
C2214 C2213 1.523 . S
H2215 C2190 0.950 . S
H2216 C2192 0.950 . S
H2217 C2193 0.949 . S
H2218 C2195 0.950 . S
H2219 C2197 0.950 . S
C2220 C2221 1.349 . S
C2220 C2222 1.327 . S
C2220 H2245 0.950 . S
C2221 C2220 1.349 . S
C2221 C2237 1.349 . S
C2222 C2220 1.327 . S
C2222 C2241 1.429 . S
C2222 H2246 0.950 . S
C2223 C2240 1.574 . S
C2223 C2242 1.368 . S
C2223 H2247 0.949 . S
H2224 C2228 0.949 . S
C2225 C2226 1.349 . S
C2225 C2227 1.327 . S
C2225 H2248 0.950 . S
C2226 C2225 1.349 . S
C2226 C2238 1.349 . S
C2227 C2225 1.327 . S
C2227 C2243 1.429 . S
C2227 H2249 0.950 . S
C2228 H2224 0.949 . S
C2228 C2236 1.574 . S
C2228 C2244 1.368 . S
H2229 C2237 0.950 . S
H2230 C2235 0.950 . S
H2231 C2236 0.949 . S
H2232 C2238 0.950 . S
H2233 C2239 0.950 . S
H2234 C2240 0.949 . S
C2235 H2230 0.950 . S
C2235 C2237 1.327 . S
C2235 C2241 1.429 . S
C2236 C2228 1.574 . S
C2236 H2231 0.949 . S
C2236 C2242 1.368 . S
C2237 C2221 1.349 . S
C2237 H2229 0.950 . S
C2237 C2235 1.327 . S
C2238 C2226 1.349 . S
C2238 H2232 0.950 . S
C2238 C2239 1.327 . S
C2239 H2233 0.950 . S
C2239 C2238 1.327 . S
C2239 C2243 1.429 . S
C2240 C2223 1.574 . S
C2240 H2234 0.949 . S
C2240 C2244 1.368 . S
C2241 C2222 1.429 . S
C2241 C2235 1.429 . S
C2241 C2242 1.523 . S
C2242 C2223 1.368 . S
C2242 C2236 1.368 . S
C2242 C2241 1.523 . S
C2243 C2227 1.429 . S
C2243 C2239 1.429 . S
C2243 C2244 1.523 . S
C2244 C2228 1.368 . S
C2244 C2240 1.368 . S
C2244 C2243 1.523 . S
H2245 C2220 0.950 . S
H2246 C2222 0.950 . S
H2247 C2223 0.949 . S
H2248 C2225 0.950 . S
H2249 C2227 0.950 . S
C2250 C2251 1.349 . S
C2250 C2252 1.327 . S
C2250 H2275 0.950 . S
C2251 C2250 1.349 . S
C2251 C2267 1.349 . S
C2252 C2250 1.327 . S
C2252 C2271 1.429 . S
C2252 H2276 0.950 . S
C2253 C2270 1.574 . S
C2253 C2272 1.368 . S
C2253 H2277 0.949 . S
H2254 C2258 0.949 . S
C2255 C2256 1.349 . S
C2255 C2257 1.327 . S
C2255 H2278 0.950 . S
C2256 C2255 1.349 . S
C2256 C2268 1.349 . S
C2257 C2255 1.327 . S
C2257 C2273 1.429 . S
C2257 H2279 0.950 . S
C2258 H2254 0.949 . S
C2258 C2266 1.574 . S
C2258 C2274 1.368 . S
H2259 C2267 0.950 . S
H2260 C2265 0.950 . S
H2261 C2266 0.949 . S
H2262 C2268 0.950 . S
H2263 C2269 0.950 . S
H2264 C2270 0.949 . S
C2265 H2260 0.950 . S
C2265 C2267 1.327 . S
C2265 C2271 1.429 . S
C2266 C2258 1.574 . S
C2266 H2261 0.949 . S
C2266 C2272 1.368 . S
C2267 C2251 1.349 . S
C2267 H2259 0.950 . S
C2267 C2265 1.327 . S
C2268 C2256 1.349 . S
C2268 H2262 0.950 . S
C2268 C2269 1.327 . S
C2269 H2263 0.950 . S
C2269 C2268 1.327 . S
C2269 C2273 1.429 . S
C2270 C2253 1.574 . S
C2270 H2264 0.949 . S
C2270 C2274 1.368 . S
C2271 C2252 1.429 . S
C2271 C2265 1.429 . S
C2271 C2272 1.523 . S
C2272 C2253 1.368 . S
C2272 C2266 1.368 . S
C2272 C2271 1.523 . S
C2273 C2257 1.429 . S
C2273 C2269 1.429 . S
C2273 C2274 1.523 . S
C2274 C2258 1.368 . S
C2274 C2270 1.368 . S
C2274 C2273 1.523 . S
H2275 C2250 0.950 . S
H2276 C2252 0.950 . S
H2277 C2253 0.949 . S
H2278 C2255 0.950 . S
H2279 C2257 0.950 . S
C2280 C2281 1.349 . S
C2280 C2282 1.327 . S
C2280 H2305 0.950 1_556 S
C2281 C2280 1.349 . S
C2281 C2297 1.349 . S
C2282 C2280 1.327 . S
C2282 C2301 1.429 . S
C2282 H2306 0.950 . S
C2283 C2300 1.574 . S
C2283 C2302 1.368 . S
C2283 H2307 0.949 . S
H2284 C2288 0.949 . S
C2285 C2286 1.349 . S
C2285 C2287 1.327 . S
C2285 H2308 0.950 . S
C2286 C2285 1.349 . S
C2286 C2298 1.349 . S
C2287 C2285 1.327 . S
C2287 C2303 1.429 . S
C2287 H2309 0.950 . S
C2288 H2284 0.949 . S
C2288 C2296 1.574 . S
C2288 C2304 1.368 . S
H2289 C2297 0.950 . S
H2290 C2295 0.950 . S
H2291 C2296 0.949 . S
H2292 C2298 0.950 . S
H2293 C2299 0.950 . S
H2294 C2300 0.949 . S
C2295 H2290 0.950 . S
C2295 C2297 1.327 . S
C2295 C2301 1.429 . S
C2296 C2288 1.574 . S
C2296 H2291 0.949 . S
C2296 C2302 1.368 . S
C2297 C2281 1.349 . S
C2297 H2289 0.950 . S
C2297 C2295 1.327 . S
C2298 C2286 1.349 . S
C2298 H2292 0.950 . S
C2298 C2299 1.327 . S
C2299 H2293 0.950 . S
C2299 C2298 1.327 . S
C2299 C2303 1.429 . S
C2300 C2283 1.574 . S
C2300 H2294 0.949 . S
C2300 C2304 1.368 . S
C2301 C2282 1.429 . S
C2301 C2295 1.429 . S
C2301 C2302 1.523 . S
C2302 C2283 1.368 . S
C2302 C2296 1.368 . S
C2302 C2301 1.523 . S
C2303 C2287 1.429 . S
C2303 C2299 1.429 . S
C2303 C2304 1.523 . S
C2304 C2288 1.368 . S
C2304 C2300 1.368 . S
C2304 C2303 1.523 . S
H2305 C2280 0.950 1_554 S
H2306 C2282 0.950 . S
H2307 C2283 0.949 . S
H2308 C2285 0.950 . S
H2309 C2287 0.950 . S
C2310 C2311 1.349 . S
C2310 C2312 1.327 . S
C2310 H2335 0.950 . S
C2311 C2310 1.349 . S
C2311 C2327 1.349 . S
C2312 C2310 1.327 . S
C2312 C2331 1.429 . S
C2312 H2336 0.950 . S
C2313 C2330 1.574 . S
C2313 C2332 1.368 . S
C2313 H2337 0.949 . S
H2314 C2318 0.949 . S
C2315 C2316 1.349 . S
C2315 C2317 1.327 . S
C2315 H2338 0.950 . S
C2316 C2315 1.349 . S
C2316 C2328 1.349 . S
C2317 C2315 1.327 . S
C2317 C2333 1.429 . S
C2317 H2339 0.950 . S
C2318 H2314 0.949 . S
C2318 C2326 1.574 . S
C2318 C2334 1.368 . S
H2319 C2327 0.950 1_554 S
H2320 C2325 0.950 . S
H2321 C2326 0.949 . S
H2322 C2328 0.950 . S
H2323 C2329 0.950 . S
H2324 C2330 0.949 . S
C2325 H2320 0.950 . S
C2325 C2327 1.327 . S
C2325 C2331 1.429 . S
C2326 C2318 1.574 . S
C2326 H2321 0.949 . S
C2326 C2332 1.368 . S
C2327 C2311 1.349 . S
C2327 H2319 0.950 1_556 S
C2327 C2325 1.327 . S
C2328 C2316 1.349 . S
C2328 H2322 0.950 . S
C2328 C2329 1.327 . S
C2329 H2323 0.950 . S
C2329 C2328 1.327 . S
C2329 C2333 1.429 . S
C2330 C2313 1.574 . S
C2330 H2324 0.949 . S
C2330 C2334 1.368 . S
C2331 C2312 1.429 . S
C2331 C2325 1.429 . S
C2331 C2332 1.523 . S
C2332 C2313 1.368 . S
C2332 C2326 1.368 . S
C2332 C2331 1.523 . S
C2333 C2317 1.429 . S
C2333 C2329 1.429 . S
C2333 C2334 1.523 . S
C2334 C2318 1.368 . S
C2334 C2330 1.368 . S
C2334 C2333 1.523 . S
H2335 C2310 0.950 . S
H2336 C2312 0.950 . S
H2337 C2313 0.949 . S
H2338 C2315 0.950 . S
H2339 C2317 0.950 . S
C2340 C2341 1.349 . S
C2340 C2342 1.327 . S
C2340 H2365 0.950 . S
C2341 C2340 1.349 . S
C2341 C2357 1.349 . S
C2342 C2340 1.327 . S
C2342 C2361 1.429 . S
C2342 H2366 0.950 . S
C2343 C2360 1.574 . S
C2343 C2362 1.368 . S
C2343 H2367 0.949 . S
H2344 C2348 0.949 . S
C2345 C2346 1.349 . S
C2345 C2347 1.327 . S
C2345 H2368 0.950 . S
C2346 C2345 1.349 . S
C2346 C2358 1.349 . S
C2347 C2345 1.327 . S
C2347 C2363 1.429 . S
C2347 H2369 0.950 . S
C2348 H2344 0.949 . S
C2348 C2356 1.574 . S
C2348 C2364 1.368 . S
H2349 C2357 0.950 . S
H2350 C2355 0.950 . S
H2351 C2356 0.949 . S
H2352 C2358 0.950 . S
H2353 C2359 0.950 . S
H2354 C2360 0.949 . S
C2355 H2350 0.950 . S
C2355 C2357 1.327 . S
C2355 C2361 1.429 . S
C2356 C2348 1.574 . S
C2356 H2351 0.949 . S
C2356 C2362 1.368 . S
C2357 C2341 1.349 . S
C2357 H2349 0.950 . S
C2357 C2355 1.327 . S
C2358 C2346 1.349 . S
C2358 H2352 0.950 . S
C2358 C2359 1.327 . S
C2359 H2353 0.950 . S
C2359 C2358 1.327 . S
C2359 C2363 1.429 . S
C2360 C2343 1.574 . S
C2360 H2354 0.949 . S
C2360 C2364 1.368 . S
C2361 C2342 1.429 . S
C2361 C2355 1.429 . S
C2361 C2362 1.523 . S
C2362 C2343 1.368 . S
C2362 C2356 1.368 . S
C2362 C2361 1.523 . S
C2363 C2347 1.429 . S
C2363 C2359 1.429 . S
C2363 C2364 1.523 . S
C2364 C2348 1.368 . S
C2364 C2360 1.368 . S
C2364 C2363 1.523 . S
H2365 C2340 0.950 . S
H2366 C2342 0.950 . S
H2367 C2343 0.949 . S
H2368 C2345 0.950 . S
H2369 C2347 0.950 . S
C2370 C2371 1.349 . S
C2370 C2372 1.327 . S
C2370 H2395 0.950 . S
C2371 C2370 1.349 . S
C2371 C2387 1.349 . S
C2372 C2370 1.327 . S
C2372 C2391 1.429 . S
C2372 H2396 0.950 . S
C2373 C2390 1.574 . S
C2373 C2392 1.368 . S
C2373 H2397 0.949 . S
H2374 C2378 0.949 . S
C2375 C2376 1.349 . S
C2375 C2377 1.327 . S
C2375 H2398 0.950 . S
C2376 C2375 1.349 . S
C2376 C2388 1.349 . S
C2377 C2375 1.327 . S
C2377 C2393 1.429 . S
C2377 H2399 0.950 . S
C2378 H2374 0.949 . S
C2378 C2386 1.574 . S
C2378 C2394 1.368 . S
H2379 C2387 0.950 . S
H2380 C2385 0.950 . S
H2381 C2386 0.949 . S
H2382 C2388 0.950 . S
H2383 C2389 0.950 . S
H2384 C2390 0.949 . S
C2385 H2380 0.950 . S
C2385 C2387 1.327 . S
C2385 C2391 1.429 . S
C2386 C2378 1.574 . S
C2386 H2381 0.949 . S
C2386 C2392 1.368 . S
C2387 C2371 1.349 . S
C2387 H2379 0.950 . S
C2387 C2385 1.327 . S
C2388 C2376 1.349 . S
C2388 H2382 0.950 . S
C2388 C2389 1.327 . S
C2389 H2383 0.950 . S
C2389 C2388 1.327 . S
C2389 C2393 1.429 . S
C2390 C2373 1.574 . S
C2390 H2384 0.949 . S
C2390 C2394 1.368 . S
C2391 C2372 1.429 . S
C2391 C2385 1.429 . S
C2391 C2392 1.523 . S
C2392 C2373 1.368 . S
C2392 C2386 1.368 . S
C2392 C2391 1.523 . S
C2393 C2377 1.429 . S
C2393 C2389 1.429 . S
C2393 C2394 1.523 . S
C2394 C2378 1.368 . S
C2394 C2390 1.368 . S
C2394 C2393 1.523 . S
H2395 C2370 0.950 . S
H2396 C2372 0.950 . S
H2397 C2373 0.949 . S
H2398 C2375 0.950 . S
H2399 C2377 0.950 . S
C2400 C2401 1.349 . S
C2400 C2402 1.327 . S
C2400 H2425 0.950 1_556 S
C2401 C2400 1.349 . S
C2401 C2417 1.349 . S
C2402 C2400 1.327 . S
C2402 C2421 1.429 . S
C2402 H2426 0.950 . S
C2403 C2420 1.574 . S
C2403 C2422 1.368 . S
C2403 H2427 0.949 . S
H2404 C2408 0.949 . S
C2405 C2406 1.349 . S
C2405 C2407 1.327 . S
C2405 H2428 0.950 . S
C2406 C2405 1.349 . S
C2406 C2418 1.349 . S
C2407 C2405 1.327 . S
C2407 C2423 1.429 . S
C2407 H2429 0.950 . S
C2408 H2404 0.949 . S
C2408 C2416 1.574 . S
C2408 C2424 1.368 . S
H2409 C2417 0.950 . S
H2410 C2415 0.950 . S
H2411 C2416 0.949 . S
H2412 C2418 0.950 . S
H2413 C2419 0.950 . S
H2414 C2420 0.949 . S
C2415 H2410 0.950 . S
C2415 C2417 1.327 . S
C2415 C2421 1.429 . S
C2416 C2408 1.574 . S
C2416 H2411 0.949 . S
C2416 C2422 1.368 . S
C2417 C2401 1.349 . S
C2417 H2409 0.950 . S
C2417 C2415 1.327 . S
C2418 C2406 1.349 . S
C2418 H2412 0.950 . S
C2418 C2419 1.327 . S
C2419 H2413 0.950 . S
C2419 C2418 1.327 . S
C2419 C2423 1.429 . S
C2420 C2403 1.574 . S
C2420 H2414 0.949 . S
C2420 C2424 1.368 . S
C2421 C2402 1.429 . S
C2421 C2415 1.429 . S
C2421 C2422 1.523 . S
C2422 C2403 1.368 . S
C2422 C2416 1.368 . S
C2422 C2421 1.523 . S
C2423 C2407 1.429 . S
C2423 C2419 1.429 . S
C2423 C2424 1.523 . S
C2424 C2408 1.368 . S
C2424 C2420 1.368 . S
C2424 C2423 1.523 . S
H2425 C2400 0.950 1_554 S
H2426 C2402 0.950 . S
H2427 C2403 0.949 . S
H2428 C2405 0.950 . S
H2429 C2407 0.950 . S
C2430 C2431 1.349 . S
C2430 C2432 1.327 . S
C2430 H2455 0.950 . S
C2431 C2430 1.349 . S
C2431 C2447 1.349 . S
C2432 C2430 1.327 . S
C2432 C2451 1.429 . S
C2432 H2456 0.950 . S
C2433 C2450 1.574 . S
C2433 C2452 1.368 . S
C2433 H2457 0.949 . S
H2434 C2438 0.949 . S
C2435 C2436 1.349 . S
C2435 C2437 1.327 . S
C2435 H2458 0.950 . S
C2436 C2435 1.349 . S
C2436 C2448 1.349 . S
C2437 C2435 1.327 . S
C2437 C2453 1.429 . S
C2437 H2459 0.950 . S
C2438 H2434 0.949 . S
C2438 C2446 1.574 . S
C2438 C2454 1.368 . S
H2439 C2447 0.950 . S
H2440 C2445 0.950 . S
H2441 C2446 0.949 . S
H2442 C2448 0.950 . S
H2443 C2449 0.950 . S
H2444 C2450 0.949 . S
C2445 H2440 0.950 . S
C2445 C2447 1.327 . S
C2445 C2451 1.429 . S
C2446 C2438 1.574 . S
C2446 H2441 0.949 . S
C2446 C2452 1.368 . S
C2447 C2431 1.349 . S
C2447 H2439 0.950 . S
C2447 C2445 1.327 . S
C2448 C2436 1.349 . S
C2448 H2442 0.950 . S
C2448 C2449 1.327 . S
C2449 H2443 0.950 . S
C2449 C2448 1.327 . S
C2449 C2453 1.429 . S
C2450 C2433 1.574 . S
C2450 H2444 0.949 . S
C2450 C2454 1.368 . S
C2451 C2432 1.429 . S
C2451 C2445 1.429 . S
C2451 C2452 1.523 . S
C2452 C2433 1.368 . S
C2452 C2446 1.368 . S
C2452 C2451 1.523 . S
C2453 C2437 1.429 . S
C2453 C2449 1.429 . S
C2453 C2454 1.523 . S
C2454 C2438 1.368 . S
C2454 C2450 1.368 . S
C2454 C2453 1.523 . S
H2455 C2430 0.950 . S
H2456 C2432 0.950 . S
H2457 C2433 0.949 . S
H2458 C2435 0.950 . S
H2459 C2437 0.950 . S
C2460 C2461 1.349 . S
C2460 C2462 1.327 . S
C2460 H2485 0.950 . S
C2461 C2460 1.349 . S
C2461 C2477 1.349 . S
C2462 C2460 1.327 . S
C2462 C2481 1.429 . S
C2462 H2486 0.950 . S
C2463 C2480 1.574 . S
C2463 C2482 1.368 . S
C2463 H2487 0.949 . S
H2464 C2468 0.949 . S
C2465 C2466 1.349 . S
C2465 C2467 1.327 . S
C2465 H2488 0.950 . S
C2466 C2465 1.349 . S
C2466 C2478 1.349 . S
C2467 C2465 1.327 . S
C2467 C2483 1.429 . S
C2467 H2489 0.950 . S
C2468 H2464 0.949 . S
C2468 C2476 1.574 . S
C2468 C2484 1.368 . S
H2469 C2477 0.950 . S
H2470 C2475 0.950 . S
H2471 C2476 0.949 . S
H2472 C2478 0.950 . S
H2473 C2479 0.950 . S
H2474 C2480 0.949 . S
C2475 H2470 0.950 . S
C2475 C2477 1.327 . S
C2475 C2481 1.429 . S
C2476 C2468 1.574 . S
C2476 H2471 0.949 . S
C2476 C2482 1.368 . S
C2477 C2461 1.349 . S
C2477 H2469 0.950 . S
C2477 C2475 1.327 . S
C2478 C2466 1.349 . S
C2478 H2472 0.950 . S
C2478 C2479 1.327 . S
C2479 H2473 0.950 . S
C2479 C2478 1.327 . S
C2479 C2483 1.429 . S
C2480 C2463 1.574 . S
C2480 H2474 0.949 . S
C2480 C2484 1.368 . S
C2481 C2462 1.429 . S
C2481 C2475 1.429 . S
C2481 C2482 1.523 . S
C2482 C2463 1.368 . S
C2482 C2476 1.368 . S
C2482 C2481 1.523 . S
C2483 C2467 1.429 . S
C2483 C2479 1.429 . S
C2483 C2484 1.523 . S
C2484 C2468 1.368 . S
C2484 C2480 1.368 . S
C2484 C2483 1.523 . S
H2485 C2460 0.950 . S
H2486 C2462 0.950 . S
H2487 C2463 0.949 . S
H2488 C2465 0.950 . S
H2489 C2467 0.950 . S
C2490 C2491 1.349 . S
C2490 C2492 1.327 . S
C2490 H2515 0.950 . S
C2491 C2490 1.349 . S
C2491 C2507 1.349 . S
C2492 C2490 1.327 . S
C2492 C2511 1.429 . S
C2492 H2516 0.950 . S
C2493 C2510 1.574 . S
C2493 C2512 1.368 . S
C2493 H2517 0.949 . S
H2494 C2498 0.949 . S
C2495 C2496 1.349 . S
C2495 C2497 1.327 . S
C2495 H2518 0.950 . S
C2496 C2495 1.349 . S
C2496 C2508 1.349 . S
C2497 C2495 1.327 . S
C2497 C2513 1.429 . S
C2497 H2519 0.950 . S
C2498 H2494 0.949 . S
C2498 C2506 1.574 . S
C2498 C2514 1.368 . S
H2499 C2507 0.950 . S
H2500 C2505 0.950 . S
H2501 C2506 0.949 . S
H2502 C2508 0.950 . S
H2503 C2509 0.950 . S
H2504 C2510 0.949 . S
C2505 H2500 0.950 . S
C2505 C2507 1.327 . S
C2505 C2511 1.429 . S
C2506 C2498 1.574 . S
C2506 H2501 0.949 . S
C2506 C2512 1.368 . S
C2507 C2491 1.349 . S
C2507 H2499 0.950 . S
C2507 C2505 1.327 . S
C2508 C2496 1.349 . S
C2508 H2502 0.950 . S
C2508 C2509 1.327 . S
C2509 H2503 0.950 . S
C2509 C2508 1.327 . S
C2509 C2513 1.429 . S
C2510 C2493 1.574 . S
C2510 H2504 0.949 . S
C2510 C2514 1.368 . S
C2511 C2492 1.429 . S
C2511 C2505 1.429 . S
C2511 C2512 1.523 . S
C2512 C2493 1.368 . S
C2512 C2506 1.368 . S
C2512 C2511 1.523 . S
C2513 C2497 1.429 . S
C2513 C2509 1.429 . S
C2513 C2514 1.523 . S
C2514 C2498 1.368 . S
C2514 C2510 1.368 . S
C2514 C2513 1.523 . S
H2515 C2490 0.950 . S
H2516 C2492 0.950 . S
H2517 C2493 0.949 . S
H2518 C2495 0.950 . S
H2519 C2497 0.950 . S
C2520 C2521 1.349 . S
C2520 C2522 1.327 . S
C2520 H2545 0.950 . S
C2521 C2520 1.349 . S
C2521 C2537 1.349 . S
C2522 C2520 1.327 . S
C2522 C2541 1.429 . S
C2522 H2546 0.950 . S
C2523 C2540 1.574 . S
C2523 C2542 1.368 . S
C2523 H2547 0.949 . S
H2524 C2528 0.949 . S
C2525 C2526 1.349 . S
C2525 C2527 1.327 . S
C2525 H2548 0.950 . S
C2526 C2525 1.349 . S
C2526 C2538 1.349 . S
C2527 C2525 1.327 . S
C2527 C2543 1.429 . S
C2527 H2549 0.950 . S
C2528 H2524 0.949 . S
C2528 C2536 1.574 . S
C2528 C2544 1.368 . S
H2529 C2537 0.950 . S
H2530 C2535 0.950 . S
H2531 C2536 0.949 . S
H2532 C2538 0.950 . S
H2533 C2539 0.950 . S
H2534 C2540 0.949 . S
C2535 H2530 0.950 . S
C2535 C2537 1.327 . S
C2535 C2541 1.429 . S
C2536 C2528 1.574 . S
C2536 H2531 0.949 . S
C2536 C2542 1.368 . S
C2537 C2521 1.349 . S
C2537 H2529 0.950 . S
C2537 C2535 1.327 . S
C2538 C2526 1.349 . S
C2538 H2532 0.950 . S
C2538 C2539 1.327 . S
C2539 H2533 0.950 . S
C2539 C2538 1.327 . S
C2539 C2543 1.429 . S
C2540 C2523 1.574 . S
C2540 H2534 0.949 . S
C2540 C2544 1.368 . S
C2541 C2522 1.429 . S
C2541 C2535 1.429 . S
C2541 C2542 1.523 . S
C2542 C2523 1.368 . S
C2542 C2536 1.368 . S
C2542 C2541 1.523 . S
C2543 C2527 1.429 . S
C2543 C2539 1.429 . S
C2543 C2544 1.523 . S
C2544 C2528 1.368 . S
C2544 C2540 1.368 . S
C2544 C2543 1.523 . S
H2545 C2520 0.950 . S
H2546 C2522 0.950 . S
H2547 C2523 0.949 . S
H2548 C2525 0.950 . S
H2549 C2527 0.950 . S
C2550 C2551 1.349 . S
C2550 C2552 1.327 . S
C2550 H2575 0.950 . S
C2551 C2550 1.349 . S
C2551 C2567 1.349 . S
C2552 C2550 1.327 . S
C2552 C2571 1.429 . S
C2552 H2576 0.950 . S
C2553 C2570 1.574 . S
C2553 C2572 1.368 . S
C2553 H2577 0.949 . S
H2554 C2558 0.949 . S
C2555 C2556 1.349 . S
C2555 C2557 1.327 . S
C2555 H2578 0.950 . S
C2556 C2555 1.349 . S
C2556 C2568 1.349 . S
C2557 C2555 1.327 . S
C2557 C2573 1.429 . S
C2557 H2579 0.950 . S
C2558 H2554 0.949 . S
C2558 C2566 1.574 . S
C2558 C2574 1.368 . S
H2559 C2567 0.950 . S
H2560 C2565 0.950 . S
H2561 C2566 0.949 . S
H2562 C2568 0.950 . S
H2563 C2569 0.950 . S
H2564 C2570 0.949 . S
C2565 H2560 0.950 . S
C2565 C2567 1.327 . S
C2565 C2571 1.429 . S
C2566 C2558 1.574 . S
C2566 H2561 0.949 . S
C2566 C2572 1.368 . S
C2567 C2551 1.349 . S
C2567 H2559 0.950 . S
C2567 C2565 1.327 . S
C2568 C2556 1.349 . S
C2568 H2562 0.950 . S
C2568 C2569 1.327 . S
C2569 H2563 0.950 . S
C2569 C2568 1.327 . S
C2569 C2573 1.429 . S
C2570 C2553 1.574 . S
C2570 H2564 0.949 . S
C2570 C2574 1.368 . S
C2571 C2552 1.429 . S
C2571 C2565 1.429 . S
C2571 C2572 1.523 . S
C2572 C2553 1.368 . S
C2572 C2566 1.368 . S
C2572 C2571 1.523 . S
C2573 C2557 1.429 . S
C2573 C2569 1.429 . S
C2573 C2574 1.523 . S
C2574 C2558 1.368 . S
C2574 C2570 1.368 . S
C2574 C2573 1.523 . S
H2575 C2550 0.950 . S
H2576 C2552 0.950 . S
H2577 C2553 0.949 . S
H2578 C2555 0.950 . S
H2579 C2557 0.950 . S
C2580 C2581 1.349 . S
C2580 C2582 1.327 . S
C2580 H2605 0.950 . S
C2581 C2580 1.349 . S
C2581 C2597 1.349 . S
C2582 C2580 1.327 . S
C2582 C2601 1.429 . S
C2582 H2606 0.950 . S
C2583 C2600 1.574 . S
C2583 C2602 1.368 . S
C2583 H2607 0.949 . S
H2584 C2588 0.949 . S
C2585 C2586 1.349 . S
C2585 C2587 1.327 . S
C2585 H2608 0.950 . S
C2586 C2585 1.349 . S
C2586 C2598 1.349 . S
C2587 C2585 1.327 . S
C2587 C2603 1.429 . S
C2587 H2609 0.950 . S
C2588 H2584 0.949 . S
C2588 C2596 1.574 . S
C2588 C2604 1.368 . S
H2589 C2597 0.950 . S
H2590 C2595 0.950 . S
H2591 C2596 0.949 . S
H2592 C2598 0.950 . S
H2593 C2599 0.950 . S
H2594 C2600 0.949 . S
C2595 H2590 0.950 . S
C2595 C2597 1.327 . S
C2595 C2601 1.429 . S
C2596 C2588 1.574 . S
C2596 H2591 0.949 . S
C2596 C2602 1.368 . S
C2597 C2581 1.349 . S
C2597 H2589 0.950 . S
C2597 C2595 1.327 . S
C2598 C2586 1.349 . S
C2598 H2592 0.950 . S
C2598 C2599 1.327 . S
C2599 H2593 0.950 . S
C2599 C2598 1.327 . S
C2599 C2603 1.429 . S
C2600 C2583 1.574 . S
C2600 H2594 0.949 . S
C2600 C2604 1.368 . S
C2601 C2582 1.429 . S
C2601 C2595 1.429 . S
C2601 C2602 1.523 . S
C2602 C2583 1.368 . S
C2602 C2596 1.368 . S
C2602 C2601 1.523 . S
C2603 C2587 1.429 . S
C2603 C2599 1.429 . S
C2603 C2604 1.523 . S
C2604 C2588 1.368 . S
C2604 C2600 1.368 . S
C2604 C2603 1.523 . S
H2605 C2580 0.950 . S
H2606 C2582 0.950 . S
H2607 C2583 0.949 . S
H2608 C2585 0.950 . S
H2609 C2587 0.950 . S
C2610 C2611 1.349 . S
C2610 C2612 1.320 1_455 S
C2610 H2635 0.950 1_455 S
C2611 C2610 1.349 . S
C2611 C2627 1.349 . S
C2612 C2610 1.320 1_655 S
C2612 C2631 1.423 1_655 S
C2612 H2636 0.963 . S
C2613 C2630 1.574 . S
C2613 C2632 1.368 . S
C2613 H2637 0.949 . S
H2614 C2618 0.949 . S
C2615 C2616 1.349 . S
C2615 C2617 1.327 . S
C2615 H2638 0.950 . S
C2616 C2615 1.349 . S
C2616 C2628 1.349 1_455 S
C2617 C2615 1.327 . S
C2617 C2633 1.429 . S
C2617 H2639 0.950 . S
C2618 H2614 0.949 . S
C2618 C2626 1.574 . S
C2618 C2634 1.368 1_655 S
H2619 C2627 0.950 . S
H2620 C2625 0.950 . S
H2621 C2626 0.949 . S
H2622 C2628 0.950 . S
H2623 C2629 0.950 . S
H2624 C2630 0.949 . S
C2625 H2620 0.950 . S
C2625 C2627 1.327 . S
C2625 C2631 1.429 . S
C2626 C2618 1.574 . S
C2626 H2621 0.949 . S
C2626 C2632 1.368 1_655 S
C2627 C2611 1.349 . S
C2627 H2619 0.950 . S
C2627 C2625 1.327 . S
C2628 C2616 1.349 1_655 S
C2628 H2622 0.950 . S
C2628 C2629 1.327 . S
C2629 H2623 0.950 . S
C2629 C2628 1.327 . S
C2629 C2633 1.429 1_655 S
C2630 C2613 1.574 . S
C2630 H2624 0.949 . S
C2630 C2634 1.368 . S
C2631 C2612 1.423 1_455 S
C2631 C2625 1.429 . S
C2631 C2632 1.523 . S
C2632 C2613 1.368 . S
C2632 C2626 1.368 1_455 S
C2632 C2631 1.523 . S
C2633 C2617 1.429 . S
C2633 C2629 1.429 1_455 S
C2633 C2634 1.523 . S
C2634 C2618 1.368 1_455 S
C2634 C2630 1.368 . S
C2634 C2633 1.523 . S
H2635 C2610 0.950 1_655 S
H2636 C2612 0.963 . S
H2637 C2613 0.949 . S
H2638 C2615 0.950 . S
H2639 C2617 0.950 . S
C2640 C2641 1.349 . S
C2640 C2642 1.327 . S
C2640 H2665 0.950 . S
C2641 C2640 1.349 . S
C2641 C2657 1.349 . S
C2642 C2640 1.327 . S
C2642 C2661 1.429 . S
C2642 H2666 0.950 . S
C2643 C2660 1.574 . S
C2643 C2662 1.368 . S
C2643 H2667 0.949 . S
H2644 C2648 0.949 . S
C2645 C2646 1.349 . S
C2645 C2647 1.327 . S
C2645 H2668 0.950 . S
C2646 C2645 1.349 . S
C2646 C2658 1.349 . S
C2647 C2645 1.327 . S
C2647 C2663 1.429 . S
C2647 H2669 0.950 . S
C2648 H2644 0.949 . S
C2648 C2656 1.574 . S
C2648 C2664 1.368 . S
H2649 C2657 0.950 . S
H2650 C2655 0.950 . S
H2651 C2656 0.949 . S
H2652 C2658 0.950 . S
H2653 C2659 0.950 . S
H2654 C2660 0.949 . S
C2655 H2650 0.950 . S
C2655 C2657 1.327 . S
C2655 C2661 1.429 . S
C2656 C2648 1.574 . S
C2656 H2651 0.949 . S
C2656 C2662 1.368 . S
C2657 C2641 1.349 . S
C2657 H2649 0.950 . S
C2657 C2655 1.327 . S
C2658 C2646 1.349 . S
C2658 H2652 0.950 . S
C2658 C2659 1.327 . S
C2659 H2653 0.950 . S
C2659 C2658 1.327 . S
C2659 C2663 1.429 . S
C2660 C2643 1.574 . S
C2660 H2654 0.949 . S
C2660 C2664 1.368 . S
C2661 C2642 1.429 . S
C2661 C2655 1.429 . S
C2661 C2662 1.523 . S
C2662 C2643 1.368 . S
C2662 C2656 1.368 . S
C2662 C2661 1.523 . S
C2663 C2647 1.429 . S
C2663 C2659 1.429 . S
C2663 C2664 1.523 . S
C2664 C2648 1.368 . S
C2664 C2660 1.368 . S
C2664 C2663 1.523 . S
H2665 C2640 0.950 . S
H2666 C2642 0.950 . S
H2667 C2643 0.949 . S
H2668 C2645 0.950 . S
H2669 C2647 0.950 . S
C2670 C2671 1.349 . S
C2670 C2672 1.327 . S
C2670 H2695 0.950 . S
C2671 C2670 1.349 . S
C2671 C2687 1.349 1_565 S
C2672 C2670 1.327 . S
C2672 C2691 1.429 . S
C2672 H2696 0.950 . S
C2673 C2690 1.574 . S
C2673 C2692 1.368 1_545 S
C2673 H2697 0.949 . S
H2674 C2678 0.949 . S
C2675 C2676 1.349 1_545 S
C2675 C2677 1.327 . S
C2675 H2698 0.950 . S
C2676 C2675 1.349 1_565 S
C2676 C2688 1.349 . S
C2677 C2675 1.327 . S
C2677 C2693 1.429 1_545 S
C2677 H2699 0.950 . S
C2678 H2674 0.949 . S
C2678 C2686 1.574 . S
C2678 C2694 1.368 . S
H2679 C2687 0.950 . S
H2680 C2685 0.950 . S
H2681 C2686 0.949 . S
H2682 C2688 0.950 . S
H2683 C2689 0.950 . S
H2684 C2690 0.949 . S
C2685 H2680 0.950 . S
C2685 C2687 1.327 . S
C2685 C2691 1.429 1_545 S
C2686 C2678 1.574 . S
C2686 H2681 0.949 . S
C2686 C2692 1.368 . S
C2687 C2671 1.349 1_545 S
C2687 H2679 0.950 . S
C2687 C2685 1.327 . S
C2688 C2676 1.349 . S
C2688 H2682 0.950 . S
C2688 C2689 1.327 . S
C2689 H2683 0.950 . S
C2689 C2688 1.327 . S
C2689 C2693 1.429 . S
C2690 C2673 1.574 . S
C2690 H2684 0.949 . S
C2690 C2694 1.368 1_545 S
C2691 C2672 1.429 . S
C2691 C2685 1.429 1_565 S
C2691 C2692 1.523 . S
C2692 C2673 1.368 1_565 S
C2692 C2686 1.368 . S
C2692 C2691 1.523 . S
C2693 C2677 1.429 1_565 S
C2693 C2689 1.429 . S
C2693 C2694 1.523 . S
C2694 C2678 1.368 . S
C2694 C2690 1.368 1_565 S
C2694 C2693 1.523 . S
H2695 C2670 0.950 . S
H2696 C2672 0.950 . S
H2697 C2673 0.949 . S
H2698 C2675 0.950 . S
H2699 C2677 0.950 . S
C2700 C2701 1.283 1_545 S
C2700 C2702 1.376 . S
C2700 H2725 0.975 . S
C2701 C2700 1.283 1_565 S
C2701 C2717 1.349 . S
C2702 C2700 1.376 . S
C2702 C2721 1.429 1_545 S
C2702 H2726 0.950 . S
C2703 C2720 1.574 . S
C2703 C2722 1.368 . S
C2703 H2727 0.949 . S
H2704 C2708 0.949 . S
C2705 C2706 1.349 . S
C2705 C2707 1.327 . S
C2705 H2728 0.950 . S
C2706 C2705 1.349 . S
C2706 C2718 1.349 1_565 S
C2707 C2705 1.327 . S
C2707 C2723 1.429 . S
C2707 H2729 0.950 . S
C2708 H2704 0.949 . S
C2708 C2716 1.574 . S
C2708 C2724 1.368 1_545 S
H2709 C2717 0.950 . S
H2710 C2715 0.950 . S
H2711 C2716 0.949 . S
H2712 C2718 0.950 . S
H2713 C2719 0.950 . S
H2714 C2720 0.949 . S
C2715 H2710 0.950 . S
C2715 C2717 1.327 . S
C2715 C2721 1.429 . S
C2716 C2708 1.574 . S
C2716 H2711 0.949 . S
C2716 C2722 1.368 1_545 S
C2717 C2701 1.349 . S
C2717 H2709 0.950 . S
C2717 C2715 1.327 . S
C2718 C2706 1.349 1_545 S
C2718 H2712 0.950 . S
C2718 C2719 1.327 . S
C2719 H2713 0.950 . S
C2719 C2718 1.327 . S
C2719 C2723 1.429 1_545 S
C2720 C2703 1.574 . S
C2720 H2714 0.949 . S
C2720 C2724 1.368 . S
C2721 C2702 1.429 1_565 S
C2721 C2715 1.429 . S
C2721 C2722 1.523 . S
C2722 C2703 1.368 . S
C2722 C2716 1.368 1_565 S
C2722 C2721 1.523 . S
C2723 C2707 1.429 . S
C2723 C2719 1.429 1_565 S
C2723 C2724 1.523 . S
C2724 C2708 1.368 1_565 S
C2724 C2720 1.368 . S
C2724 C2723 1.523 . S
H2725 C2700 0.975 . S
H2726 C2702 0.950 . S
H2727 C2703 0.949 . S
H2728 C2705 0.950 . S
H2729 C2707 0.950 . S
C2730 C2731 1.353 . S
C2730 C2732 1.332 1_455 S
C2730 H2755 0.941 1_455 S
C2731 C2730 1.353 . S
C2731 C2747 1.349 . S
C2732 C2730 1.332 1_655 S
C2732 C2751 1.429 1_655 S
C2732 H2756 0.950 . S
C2733 C2750 1.574 . S
C2733 C2752 1.368 . S
C2733 H2757 0.949 . S
H2734 C2738 0.949 . S
C2735 C2736 1.349 . S
C2735 C2737 1.327 . S
C2735 H2758 0.950 . S
C2736 C2735 1.349 . S
C2736 C2748 1.349 1_455 S
C2737 C2735 1.327 . S
C2737 C2753 1.429 . S
C2737 H2759 0.950 . S
C2738 H2734 0.949 . S
C2738 C2746 1.574 . S
C2738 C2754 1.368 1_655 S
H2739 C2747 0.950 . S
H2740 C2745 0.950 . S
H2741 C2746 0.949 . S
H2742 C2748 0.950 . S
H2743 C2749 0.950 . S
H2744 C2750 0.949 . S
C2745 H2740 0.950 . S
C2745 C2747 1.327 . S
C2745 C2751 1.429 . S
C2746 C2738 1.574 . S
C2746 H2741 0.949 . S
C2746 C2752 1.368 1_655 S
C2747 C2731 1.349 . S
C2747 H2739 0.950 . S
C2747 C2745 1.327 . S
C2748 C2736 1.349 1_655 S
C2748 H2742 0.950 . S
C2748 C2749 1.327 . S
C2749 H2743 0.950 . S
C2749 C2748 1.327 . S
C2749 C2753 1.429 1_655 S
C2750 C2733 1.574 . S
C2750 H2744 0.949 . S
C2750 C2754 1.368 . S
C2751 C2732 1.429 1_455 S
C2751 C2745 1.429 . S
C2751 C2752 1.523 . S
C2752 C2733 1.368 . S
C2752 C2746 1.368 1_455 S
C2752 C2751 1.523 . S
C2753 C2737 1.429 . S
C2753 C2749 1.429 1_455 S
C2753 C2754 1.523 . S
C2754 C2738 1.368 1_455 S
C2754 C2750 1.368 . S
C2754 C2753 1.523 . S
H2755 C2730 0.941 1_655 S
H2756 C2732 0.950 . S
H2757 C2733 0.949 . S
H2758 C2735 0.950 . S
H2759 C2737 0.950 . S
C2760 C2761 1.349 . S
C2760 C2762 1.327 . S
C2760 H2785 0.950 . S
C2761 C2760 1.349 . S
C2761 C2777 1.349 . S
C2762 C2760 1.327 . S
C2762 C2781 1.429 . S
C2762 H2786 0.950 . S
C2763 C2780 1.574 . S
C2763 C2782 1.368 . S
C2763 H2787 0.949 . S
H2764 C2768 0.949 . S
C2765 C2766 1.349 . S
C2765 C2767 1.327 . S
C2765 H2788 0.950 . S
C2766 C2765 1.349 . S
C2766 C2778 1.349 . S
C2767 C2765 1.327 . S
C2767 C2783 1.429 . S
C2767 H2789 0.950 . S
C2768 H2764 0.949 . S
C2768 C2776 1.574 . S
C2768 C2784 1.368 . S
H2769 C2777 0.950 . S
H2770 C2775 0.950 . S
H2771 C2776 0.949 . S
H2772 C2778 0.950 . S
H2773 C2779 0.950 . S
H2774 C2780 0.949 . S
C2775 H2770 0.950 . S
C2775 C2777 1.327 . S
C2775 C2781 1.429 . S
C2776 C2768 1.574 . S
C2776 H2771 0.949 . S
C2776 C2782 1.368 . S
C2777 C2761 1.349 . S
C2777 H2769 0.950 . S
C2777 C2775 1.327 . S
C2778 C2766 1.349 . S
C2778 H2772 0.950 . S
C2778 C2779 1.327 . S
C2779 H2773 0.950 . S
C2779 C2778 1.327 . S
C2779 C2783 1.429 . S
C2780 C2763 1.574 . S
C2780 H2774 0.949 . S
C2780 C2784 1.368 . S
C2781 C2762 1.429 . S
C2781 C2775 1.429 . S
C2781 C2782 1.523 . S
C2782 C2763 1.368 . S
C2782 C2776 1.368 . S
C2782 C2781 1.523 . S
C2783 C2767 1.429 . S
C2783 C2779 1.429 . S
C2783 C2784 1.523 . S
C2784 C2768 1.368 . S
C2784 C2780 1.368 . S
C2784 C2783 1.523 . S
H2785 C2760 0.950 . S
H2786 C2762 0.950 . S
H2787 C2763 0.949 . S
H2788 C2765 0.950 . S
H2789 C2767 0.950 . S
C2790 C2791 1.349 . S
C2790 C2792 1.327 . S
C2790 H2815 0.950 . S
C2791 C2790 1.349 . S
C2791 C2807 1.349 . S
C2792 C2790 1.327 . S
C2792 C2811 1.429 . S
C2792 H2816 0.950 . S
C2793 C2810 1.574 . S
C2793 C2812 1.368 . S
C2793 H2817 0.949 . S
H2794 C2798 0.949 . S
C2795 C2796 1.349 . S
C2795 C2797 1.327 . S
C2795 H2818 0.950 . S
C2796 C2795 1.349 . S
C2796 C2808 1.349 . S
C2797 C2795 1.327 . S
C2797 C2813 1.429 . S
C2797 H2819 0.950 . S
C2798 H2794 0.949 . S
C2798 C2806 1.574 . S
C2798 C2814 1.368 . S
H2799 C2807 0.950 . S
H2800 C2805 0.950 . S
H2801 C2806 0.949 . S
H2802 C2808 0.950 . S
H2803 C2809 0.950 . S
H2804 C2810 0.949 . S
C2805 H2800 0.950 . S
C2805 C2807 1.327 . S
C2805 C2811 1.429 . S
C2806 C2798 1.574 . S
C2806 H2801 0.949 . S
C2806 C2812 1.368 . S
C2807 C2791 1.349 . S
C2807 H2799 0.950 . S
C2807 C2805 1.327 . S
C2808 C2796 1.349 . S
C2808 H2802 0.950 . S
C2808 C2809 1.327 . S
C2809 H2803 0.950 . S
C2809 C2808 1.327 . S
C2809 C2813 1.429 . S
C2810 C2793 1.574 . S
C2810 H2804 0.949 . S
C2810 C2814 1.368 . S
C2811 C2792 1.429 . S
C2811 C2805 1.429 . S
C2811 C2812 1.523 . S
C2812 C2793 1.368 . S
C2812 C2806 1.368 . S
C2812 C2811 1.523 . S
C2813 C2797 1.429 . S
C2813 C2809 1.429 . S
C2813 C2814 1.523 . S
C2814 C2798 1.368 . S
C2814 C2810 1.368 . S
C2814 C2813 1.523 . S
H2815 C2790 0.950 . S
H2816 C2792 0.950 . S
H2817 C2793 0.949 . S
H2818 C2795 0.950 . S
H2819 C2797 0.950 . S
C2820 C2821 1.349 . S
C2820 C2822 1.327 . S
C2820 H2845 0.950 . S
C2821 C2820 1.349 . S
C2821 C2837 1.349 . S
C2822 C2820 1.327 . S
C2822 C2841 1.429 . S
C2822 H2846 0.950 . S
C2823 C2840 1.574 . S
C2823 C2842 1.368 . S
C2823 H2847 0.949 . S
H2824 C2828 0.949 . S
C2825 C2826 1.349 . S
C2825 C2827 1.327 . S
C2825 H2848 0.950 . S
C2826 C2825 1.349 . S
C2826 C2838 1.349 . S
C2827 C2825 1.327 . S
C2827 C2843 1.429 . S
C2827 H2849 0.950 . S
C2828 H2824 0.949 . S
C2828 C2836 1.574 . S
C2828 C2844 1.368 . S
H2829 C2837 0.950 . S
H2830 C2835 0.950 . S
H2831 C2836 0.949 . S
H2832 C2838 0.950 . S
H2833 C2839 0.950 . S
H2834 C2840 0.949 . S
C2835 H2830 0.950 . S
C2835 C2837 1.327 . S
C2835 C2841 1.429 . S
C2836 C2828 1.574 . S
C2836 H2831 0.949 . S
C2836 C2842 1.368 . S
C2837 C2821 1.349 . S
C2837 H2829 0.950 . S
C2837 C2835 1.327 . S
C2838 C2826 1.349 . S
C2838 H2832 0.950 . S
C2838 C2839 1.327 . S
C2839 H2833 0.950 . S
C2839 C2838 1.327 . S
C2839 C2843 1.429 . S
C2840 C2823 1.574 . S
C2840 H2834 0.949 . S
C2840 C2844 1.368 . S
C2841 C2822 1.429 . S
C2841 C2835 1.429 . S
C2841 C2842 1.523 . S
C2842 C2823 1.368 . S
C2842 C2836 1.368 . S
C2842 C2841 1.523 . S
C2843 C2827 1.429 . S
C2843 C2839 1.429 . S
C2843 C2844 1.523 . S
C2844 C2828 1.368 . S
C2844 C2840 1.368 . S
C2844 C2843 1.523 . S
H2845 C2820 0.950 . S
H2846 C2822 0.950 . S
H2847 C2823 0.949 . S
H2848 C2825 0.950 . S
H2849 C2827 0.950 . S
C2850 C2851 1.349 . S
C2850 C2852 1.327 . S
C2850 H2875 0.950 . S
C2851 C2850 1.349 . S
C2851 C2867 1.349 . S
C2852 C2850 1.327 . S
C2852 C2871 1.429 . S
C2852 H2876 0.950 . S
C2853 C2870 1.574 . S
C2853 C2872 1.368 . S
C2853 H2877 0.949 . S
H2854 C2858 0.949 . S
C2855 C2856 1.349 . S
C2855 C2857 1.327 . S
C2855 H2878 0.950 . S
C2856 C2855 1.349 . S
C2856 C2868 1.349 . S
C2857 C2855 1.327 . S
C2857 C2873 1.429 . S
C2857 H2879 0.950 . S
C2858 H2854 0.949 . S
C2858 C2866 1.574 . S
C2858 C2874 1.368 . S
H2859 C2867 0.950 . S
H2860 C2865 0.950 . S
H2861 C2866 0.949 . S
H2862 C2868 0.950 . S
H2863 C2869 0.950 . S
H2864 C2870 0.949 . S
C2865 H2860 0.950 . S
C2865 C2867 1.327 . S
C2865 C2871 1.429 . S
C2866 C2858 1.574 . S
C2866 H2861 0.949 . S
C2866 C2872 1.368 . S
C2867 C2851 1.349 . S
C2867 H2859 0.950 . S
C2867 C2865 1.327 . S
C2868 C2856 1.349 . S
C2868 H2862 0.950 . S
C2868 C2869 1.327 . S
C2869 H2863 0.950 . S
C2869 C2868 1.327 . S
C2869 C2873 1.429 . S
C2870 C2853 1.574 . S
C2870 H2864 0.949 . S
C2870 C2874 1.368 . S
C2871 C2852 1.429 . S
C2871 C2865 1.429 . S
C2871 C2872 1.523 . S
C2872 C2853 1.368 . S
C2872 C2866 1.368 . S
C2872 C2871 1.523 . S
C2873 C2857 1.429 . S
C2873 C2869 1.429 . S
C2873 C2874 1.523 . S
C2874 C2858 1.368 . S
C2874 C2870 1.368 . S
C2874 C2873 1.523 . S
H2875 C2850 0.950 . S
H2876 C2852 0.950 . S
H2877 C2853 0.949 . S
H2878 C2855 0.950 . S
H2879 C2857 0.950 . S
C2880 C2881 1.423 . S
C2880 C2882 1.276 1_545 S
C2880 H2905 0.917 1_545 S
C2881 C2880 1.423 . S
C2881 C2897 1.349 . S
C2882 C2880 1.276 1_565 S
C2882 C2901 1.417 1_565 S
C2882 H2906 0.976 . S
C2883 C2900 1.574 . S
C2883 C2902 1.368 . S
C2883 H2907 0.949 . S
H2884 C2888 0.949 . S
C2885 C2886 1.349 . S
C2885 C2887 1.327 . S
C2885 H2908 0.950 . S
C2886 C2885 1.349 . S
C2886 C2898 1.349 1_545 S
C2887 C2885 1.327 . S
C2887 C2903 1.429 . S
C2887 H2909 0.950 . S
C2888 H2884 0.949 . S
C2888 C2896 1.574 . S
C2888 C2904 1.368 1_565 S
H2889 C2897 0.950 . S
H2890 C2895 0.950 . S
H2891 C2896 0.949 . S
H2892 C2898 0.950 . S
H2893 C2899 0.950 . S
H2894 C2900 0.949 . S
C2895 H2890 0.950 . S
C2895 C2897 1.327 . S
C2895 C2901 1.429 . S
C2896 C2888 1.574 . S
C2896 H2891 0.949 . S
C2896 C2902 1.368 1_565 S
C2897 C2881 1.349 . S
C2897 H2889 0.950 . S
C2897 C2895 1.327 . S
C2898 C2886 1.349 1_565 S
C2898 H2892 0.950 . S
C2898 C2899 1.327 . S
C2899 H2893 0.950 . S
C2899 C2898 1.327 . S
C2899 C2903 1.429 1_565 S
C2900 C2883 1.574 . S
C2900 H2894 0.949 . S
C2900 C2904 1.368 . S
C2901 C2882 1.417 1_545 S
C2901 C2895 1.429 . S
C2901 C2902 1.523 . S
C2902 C2883 1.368 . S
C2902 C2896 1.368 1_545 S
C2902 C2901 1.523 . S
C2903 C2887 1.429 . S
C2903 C2899 1.429 1_545 S
C2903 C2904 1.523 . S
C2904 C2888 1.368 1_545 S
C2904 C2900 1.368 . S
C2904 C2903 1.523 . S
H2905 C2880 0.917 1_565 S
H2906 C2882 0.976 . S
H2907 C2883 0.949 . S
H2908 C2885 0.950 . S
H2909 C2887 0.950 . S
C2910 C2911 1.349 1_455 S
C2910 C2912 1.327 . S
C2910 H2935 0.950 . S
C2911 C2910 1.349 1_655 S
C2911 C2927 1.349 . S
C2912 C2910 1.327 . S
C2912 C2931 1.429 1_455 S
C2912 H2936 0.950 . S
C2913 C2930 1.574 . S
C2913 C2932 1.368 . S
C2913 H2937 0.949 . S
H2914 C2918 0.949 . S
C2915 C2916 1.349 . S
C2915 C2917 1.327 . S
C2915 H2938 0.950 . S
C2916 C2915 1.349 . S
C2916 C2928 1.349 1_655 S
C2917 C2915 1.327 . S
C2917 C2933 1.429 . S
C2917 H2939 0.950 . S
C2918 H2914 0.949 . S
C2918 C2926 1.574 . S
C2918 C2934 1.368 1_455 S
H2919 C2927 0.950 . S
H2920 C2925 0.950 . S
H2921 C2926 0.949 . S
H2922 C2928 0.950 . S
H2923 C2929 0.950 . S
H2924 C2930 0.949 . S
C2925 H2920 0.950 . S
C2925 C2927 1.327 . S
C2925 C2931 1.429 . S
C2926 C2918 1.574 . S
C2926 H2921 0.949 . S
C2926 C2932 1.368 1_455 S
C2927 C2911 1.349 . S
C2927 H2919 0.950 . S
C2927 C2925 1.327 . S
C2928 C2916 1.349 1_455 S
C2928 H2922 0.950 . S
C2928 C2929 1.327 . S
C2929 H2923 0.950 . S
C2929 C2928 1.327 . S
C2929 C2933 1.429 1_455 S
C2930 C2913 1.574 . S
C2930 H2924 0.949 . S
C2930 C2934 1.368 . S
C2931 C2912 1.429 1_655 S
C2931 C2925 1.429 . S
C2931 C2932 1.523 . S
C2932 C2913 1.368 . S
C2932 C2926 1.368 1_655 S
C2932 C2931 1.523 . S
C2933 C2917 1.429 . S
C2933 C2929 1.429 1_655 S
C2933 C2934 1.523 . S
C2934 C2918 1.368 1_655 S
C2934 C2930 1.368 . S
C2934 C2933 1.523 . S
H2935 C2910 0.950 . S
H2936 C2912 0.950 . S
H2937 C2913 0.949 . S
H2938 C2915 0.950 . S
H2939 C2917 0.950 . S
C2940 C2941 1.349 . S
C2940 C2942 1.327 . S
C2940 H2965 0.950 . S
C2941 C2940 1.349 . S
C2941 C2957 1.349 . S
C2942 C2940 1.327 . S
C2942 C2961 1.429 . S
C2942 H2966 0.950 . S
C2943 C2960 1.574 . S
C2943 C2962 1.368 . S
C2943 H2967 0.949 . S
H2944 C2948 0.949 . S
C2945 C2946 1.349 . S
C2945 C2947 1.327 . S
C2945 H2968 0.950 . S
C2946 C2945 1.349 . S
C2946 C2958 1.349 . S
C2947 C2945 1.327 . S
C2947 C2963 1.429 . S
C2947 H2969 0.950 . S
C2948 H2944 0.949 . S
C2948 C2956 1.574 . S
C2948 C2964 1.368 . S
H2949 C2957 0.950 . S
H2950 C2955 0.950 . S
H2951 C2956 0.949 . S
H2952 C2958 0.950 . S
H2953 C2959 0.950 . S
H2954 C2960 0.949 . S
C2955 H2950 0.950 . S
C2955 C2957 1.327 . S
C2955 C2961 1.429 . S
C2956 C2948 1.574 . S
C2956 H2951 0.949 . S
C2956 C2962 1.368 . S
C2957 C2941 1.349 . S
C2957 H2949 0.950 . S
C2957 C2955 1.327 . S
C2958 C2946 1.349 . S
C2958 H2952 0.950 . S
C2958 C2959 1.327 . S
C2959 H2953 0.950 . S
C2959 C2958 1.327 . S
C2959 C2963 1.429 . S
C2960 C2943 1.574 . S
C2960 H2954 0.949 . S
C2960 C2964 1.368 . S
C2961 C2942 1.429 . S
C2961 C2955 1.429 . S
C2961 C2962 1.523 . S
C2962 C2943 1.368 . S
C2962 C2956 1.368 . S
C2962 C2961 1.523 . S
C2963 C2947 1.429 . S
C2963 C2959 1.429 . S
C2963 C2964 1.523 . S
C2964 C2948 1.368 . S
C2964 C2960 1.368 . S
C2964 C2963 1.523 . S
H2965 C2940 0.950 . S
H2966 C2942 0.950 . S
H2967 C2943 0.949 . S
H2968 C2945 0.950 . S
H2969 C2947 0.950 . S
C2970 C2971 1.349 . S
C2970 C2972 1.327 . S
C2970 H2995 0.950 . S
C2971 C2970 1.349 . S
C2971 C2987 1.349 . S
C2972 C2970 1.327 . S
C2972 C2991 1.429 . S
C2972 H2996 0.950 . S
C2973 C2990 1.574 . S
C2973 C2992 1.368 . S
C2973 H2997 0.949 . S
H2974 C2978 0.949 . S
C2975 C2976 1.349 . S
C2975 C2977 1.327 . S
C2975 H2998 0.950 . S
C2976 C2975 1.349 . S
C2976 C2988 1.349 . S
C2977 C2975 1.327 . S
C2977 C2993 1.429 . S
C2977 H2999 0.950 . S
C2978 H2974 0.949 . S
C2978 C2986 1.574 . S
C2978 C2994 1.368 . S
H2979 C2987 0.950 . S
H2980 C2985 0.950 . S
H2981 C2986 0.949 . S
H2982 C2988 0.950 . S
H2983 C2989 0.950 . S
H2984 C2990 0.949 . S
C2985 H2980 0.950 . S
C2985 C2987 1.327 . S
C2985 C2991 1.429 . S
C2986 C2978 1.574 . S
C2986 H2981 0.949 . S
C2986 C2992 1.368 . S
C2987 C2971 1.349 . S
C2987 H2979 0.950 . S
C2987 C2985 1.327 . S
C2988 C2976 1.349 . S
C2988 H2982 0.950 . S
C2988 C2989 1.327 . S
C2989 H2983 0.950 . S
C2989 C2988 1.327 . S
C2989 C2993 1.429 . S
C2990 C2973 1.574 . S
C2990 H2984 0.949 . S
C2990 C2994 1.368 . S
C2991 C2972 1.429 . S
C2991 C2985 1.429 . S
C2991 C2992 1.523 . S
C2992 C2973 1.368 . S
C2992 C2986 1.368 . S
C2992 C2991 1.523 . S
C2993 C2977 1.429 . S
C2993 C2989 1.429 . S
C2993 C2994 1.523 . S
C2994 C2978 1.368 . S
C2994 C2990 1.368 . S
C2994 C2993 1.523 . S
H2995 C2970 0.950 . S
H2996 C2972 0.950 . S
H2997 C2973 0.949 . S
H2998 C2975 0.950 . S
H2999 C2977 0.950 . S
C3000 C3001 1.349 . S
C3000 C3002 1.327 . S
C3000 H3025 0.950 . S
C3001 C3000 1.349 . S
C3001 C3017 1.349 . S
C3002 C3000 1.327 . S
C3002 C3021 1.429 . S
C3002 H3026 0.950 . S
C3003 C3020 1.574 . S
C3003 C3022 1.368 . S
C3003 H3027 0.949 . S
H3004 C3008 0.949 . S
C3005 C3006 1.349 . S
C3005 C3007 1.327 . S
C3005 H3028 0.950 . S
C3006 C3005 1.349 . S
C3006 C3018 1.349 . S
C3007 C3005 1.327 . S
C3007 C3023 1.429 . S
C3007 H3029 0.950 . S
C3008 H3004 0.949 . S
C3008 C3016 1.574 . S
C3008 C3024 1.368 . S
H3009 C3017 0.950 . S
H3010 C3015 0.950 . S
H3011 C3016 0.949 . S
H3012 C3018 0.950 . S
H3013 C3019 0.950 . S
H3014 C3020 0.949 . S
C3015 H3010 0.950 . S
C3015 C3017 1.327 . S
C3015 C3021 1.429 . S
C3016 C3008 1.574 . S
C3016 H3011 0.949 . S
C3016 C3022 1.368 . S
C3017 C3001 1.349 . S
C3017 H3009 0.950 . S
C3017 C3015 1.327 . S
C3018 C3006 1.349 . S
C3018 H3012 0.950 . S
C3018 C3019 1.327 . S
C3019 H3013 0.950 . S
C3019 C3018 1.327 . S
C3019 C3023 1.429 . S
C3020 C3003 1.574 . S
C3020 H3014 0.949 . S
C3020 C3024 1.368 . S
C3021 C3002 1.429 . S
C3021 C3015 1.429 . S
C3021 C3022 1.523 . S
C3022 C3003 1.368 . S
C3022 C3016 1.368 . S
C3022 C3021 1.523 . S
C3023 C3007 1.429 . S
C3023 C3019 1.429 . S
C3023 C3024 1.523 . S
C3024 C3008 1.368 . S
C3024 C3020 1.368 . S
C3024 C3023 1.523 . S
H3025 C3000 0.950 . S
H3026 C3002 0.950 . S
H3027 C3003 0.949 . S
H3028 C3005 0.950 . S
H3029 C3007 0.950 . S
C3030 C3031 1.349 . S
C3030 C3032 1.327 . S
C3030 H3055 0.950 . S
C3031 C3030 1.349 . S
C3031 C3047 1.349 . S
C3032 C3030 1.327 . S
C3032 C3051 1.429 . S
C3032 H3056 0.950 . S
C3033 C3050 1.574 . S
C3033 C3052 1.368 . S
C3033 H3057 0.949 . S
H3034 C3038 0.949 . S
C3035 C3036 1.349 . S
C3035 C3037 1.327 . S
C3035 H3058 0.950 . S
C3036 C3035 1.349 . S
C3036 C3048 1.349 . S
C3037 C3035 1.327 . S
C3037 C3053 1.429 . S
C3037 H3059 0.950 . S
C3038 H3034 0.949 . S
C3038 C3046 1.574 . S
C3038 C3054 1.368 . S
H3039 C3047 0.950 . S
H3040 C3045 0.950 . S
H3041 C3046 0.949 . S
H3042 C3048 0.950 . S
H3043 C3049 0.950 . S
H3044 C3050 0.949 . S
C3045 H3040 0.950 . S
C3045 C3047 1.327 . S
C3045 C3051 1.429 . S
C3046 C3038 1.574 . S
C3046 H3041 0.949 . S
C3046 C3052 1.368 . S
C3047 C3031 1.349 . S
C3047 H3039 0.950 . S
C3047 C3045 1.327 . S
C3048 C3036 1.349 . S
C3048 H3042 0.950 . S
C3048 C3049 1.327 . S
C3049 H3043 0.950 . S
C3049 C3048 1.327 . S
C3049 C3053 1.429 . S
C3050 C3033 1.574 . S
C3050 H3044 0.949 . S
C3050 C3054 1.368 . S
C3051 C3032 1.429 . S
C3051 C3045 1.429 . S
C3051 C3052 1.523 . S
C3052 C3033 1.368 . S
C3052 C3046 1.368 . S
C3052 C3051 1.523 . S
C3053 C3037 1.429 . S
C3053 C3049 1.429 . S
C3053 C3054 1.523 . S
C3054 C3038 1.368 . S
C3054 C3050 1.368 . S
C3054 C3053 1.523 . S
H3055 C3030 0.950 . S
H3056 C3032 0.950 . S
H3057 C3033 0.949 . S
H3058 C3035 0.950 . S
H3059 C3037 0.950 . S
C3060 C3061 1.349 . S
C3060 C3062 1.327 . S
C3060 H3085 0.950 . S
C3061 C3060 1.349 . S
C3061 C3077 1.349 . S
C3062 C3060 1.327 . S
C3062 C3081 1.429 . S
C3062 H3086 0.950 . S
C3063 C3080 1.574 . S
C3063 C3082 1.368 . S
C3063 H3087 0.949 . S
H3064 C3068 0.949 . S
C3065 C3066 1.349 . S
C3065 C3067 1.327 . S
C3065 H3088 0.950 . S
C3066 C3065 1.349 . S
C3066 C3078 1.349 . S
C3067 C3065 1.327 . S
C3067 C3083 1.429 . S
C3067 H3089 0.950 . S
C3068 H3064 0.949 . S
C3068 C3076 1.574 . S
C3068 C3084 1.368 . S
H3069 C3077 0.950 . S
H3070 C3075 0.950 . S
H3071 C3076 0.949 . S
H3072 C3078 0.950 . S
H3073 C3079 0.950 . S
H3074 C3080 0.949 . S
C3075 H3070 0.950 . S
C3075 C3077 1.327 . S
C3075 C3081 1.429 . S
C3076 C3068 1.574 . S
C3076 H3071 0.949 . S
C3076 C3082 1.368 . S
C3077 C3061 1.349 . S
C3077 H3069 0.950 . S
C3077 C3075 1.327 . S
C3078 C3066 1.349 . S
C3078 H3072 0.950 . S
C3078 C3079 1.327 . S
C3079 H3073 0.950 . S
C3079 C3078 1.327 . S
C3079 C3083 1.429 . S
C3080 C3063 1.574 . S
C3080 H3074 0.949 . S
C3080 C3084 1.368 . S
C3081 C3062 1.429 . S
C3081 C3075 1.429 . S
C3081 C3082 1.523 . S
C3082 C3063 1.368 . S
C3082 C3076 1.368 . S
C3082 C3081 1.523 . S
C3083 C3067 1.429 . S
C3083 C3079 1.429 . S
C3083 C3084 1.523 . S
C3084 C3068 1.368 . S
C3084 C3080 1.368 . S
C3084 C3083 1.523 . S
H3085 C3060 0.950 . S
H3086 C3062 0.950 . S
H3087 C3063 0.949 . S
H3088 C3065 0.950 . S
H3089 C3067 0.950 . S
C3090 C3091 1.349 . S
C3090 C3092 1.327 . S
C3090 H3115 0.950 . S
C3091 C3090 1.349 . S
C3091 C3107 1.349 . S
C3092 C3090 1.327 . S
C3092 C3111 1.429 . S
C3092 H3116 0.950 . S
C3093 C3110 1.574 . S
C3093 C3112 1.368 . S
C3093 H3117 0.949 . S
H3094 C3098 0.949 . S
C3095 C3096 1.349 . S
C3095 C3097 1.327 . S
C3095 H3118 0.950 . S
C3096 C3095 1.349 . S
C3096 C3108 1.349 . S
C3097 C3095 1.327 . S
C3097 C3113 1.429 . S
C3097 H3119 0.950 . S
C3098 H3094 0.949 . S
C3098 C3106 1.574 . S
C3098 C3114 1.368 . S
H3099 C3107 0.950 . S
H3100 C3105 0.950 . S
H3101 C3106 0.949 . S
H3102 C3108 0.950 . S
H3103 C3109 0.950 . S
H3104 C3110 0.949 . S
C3105 H3100 0.950 . S
C3105 C3107 1.327 . S
C3105 C3111 1.429 . S
C3106 C3098 1.574 . S
C3106 H3101 0.949 . S
C3106 C3112 1.368 . S
C3107 C3091 1.349 . S
C3107 H3099 0.950 . S
C3107 C3105 1.327 . S
C3108 C3096 1.349 . S
C3108 H3102 0.950 . S
C3108 C3109 1.327 . S
C3109 H3103 0.950 . S
C3109 C3108 1.327 . S
C3109 C3113 1.429 . S
C3110 C3093 1.574 . S
C3110 H3104 0.949 . S
C3110 C3114 1.368 . S
C3111 C3092 1.429 . S
C3111 C3105 1.429 . S
C3111 C3112 1.523 . S
C3112 C3093 1.368 . S
C3112 C3106 1.368 . S
C3112 C3111 1.523 . S
C3113 C3097 1.429 . S
C3113 C3109 1.429 . S
C3113 C3114 1.523 . S
C3114 C3098 1.368 . S
C3114 C3110 1.368 . S
C3114 C3113 1.523 . S
H3115 C3090 0.950 . S
H3116 C3092 0.950 . S
H3117 C3093 0.949 . S
H3118 C3095 0.950 . S
H3119 C3097 0.950 . S
C3120 C3121 1.349 . S
C3120 C3122 1.327 . S
C3120 H3145 0.950 . S
C3121 C3120 1.349 . S
C3121 C3137 1.349 . S
C3122 C3120 1.327 . S
C3122 C3141 1.429 . S
C3122 H3146 0.950 . S
C3123 C3140 1.574 . S
C3123 C3142 1.368 . S
C3123 H3147 0.949 . S
H3124 C3128 0.949 . S
C3125 C3126 1.349 . S
C3125 C3127 1.327 . S
C3125 H3148 0.950 . S
C3126 C3125 1.349 . S
C3126 C3138 1.349 . S
C3127 C3125 1.327 . S
C3127 C3143 1.429 . S
C3127 H3149 0.950 . S
C3128 H3124 0.949 . S
C3128 C3136 1.574 . S
C3128 C3144 1.368 . S
H3129 C3137 0.950 . S
H3130 C3135 0.950 . S
H3131 C3136 0.949 . S
H3132 C3138 0.950 . S
H3133 C3139 0.950 . S
H3134 C3140 0.949 . S
C3135 H3130 0.950 . S
C3135 C3137 1.327 . S
C3135 C3141 1.429 . S
C3136 C3128 1.574 . S
C3136 H3131 0.949 . S
C3136 C3142 1.368 . S
C3137 C3121 1.349 . S
C3137 H3129 0.950 . S
C3137 C3135 1.327 . S
C3138 C3126 1.349 . S
C3138 H3132 0.950 . S
C3138 C3139 1.327 . S
C3139 H3133 0.950 . S
C3139 C3138 1.327 . S
C3139 C3143 1.429 . S
C3140 C3123 1.574 . S
C3140 H3134 0.949 . S
C3140 C3144 1.368 . S
C3141 C3122 1.429 . S
C3141 C3135 1.429 . S
C3141 C3142 1.523 . S
C3142 C3123 1.368 . S
C3142 C3136 1.368 . S
C3142 C3141 1.523 . S
C3143 C3127 1.429 . S
C3143 C3139 1.429 . S
C3143 C3144 1.523 . S
C3144 C3128 1.368 . S
C3144 C3140 1.368 . S
C3144 C3143 1.523 . S
H3145 C3120 0.950 . S
H3146 C3122 0.950 . S
H3147 C3123 0.949 . S
H3148 C3125 0.950 . S
H3149 C3127 0.950 . S
C3150 C3151 1.349 1_455 S
C3150 C3152 1.327 . S
C3150 H3175 0.950 . S
C3151 C3150 1.349 1_655 S
C3151 C3167 1.349 . S
C3152 C3150 1.327 . S
C3152 C3171 1.429 1_455 S
C3152 H3176 0.950 . S
C3153 C3170 1.574 . S
C3153 C3172 1.368 . S
C3153 H3177 0.949 . S
H3154 C3158 0.949 . S
C3155 C3156 1.349 . S
C3155 C3157 1.327 . S
C3155 H3178 0.950 . S
C3156 C3155 1.349 . S
C3156 C3168 1.349 1_655 S
C3157 C3155 1.327 . S
C3157 C3173 1.429 . S
C3157 H3179 0.950 . S
C3158 H3154 0.949 . S
C3158 C3166 1.574 . S
C3158 C3174 1.368 1_455 S
H3159 C3167 0.950 . S
H3160 C3165 0.950 . S
H3161 C3166 0.949 . S
H3162 C3168 0.950 . S
H3163 C3169 0.950 . S
H3164 C3170 0.949 . S
C3165 H3160 0.950 . S
C3165 C3167 1.327 . S
C3165 C3171 1.429 . S
C3166 C3158 1.574 . S
C3166 H3161 0.949 . S
C3166 C3172 1.368 1_455 S
C3167 C3151 1.349 . S
C3167 H3159 0.950 . S
C3167 C3165 1.327 . S
C3168 C3156 1.349 1_455 S
C3168 H3162 0.950 . S
C3168 C3169 1.327 . S
C3169 H3163 0.950 . S
C3169 C3168 1.327 . S
C3169 C3173 1.429 1_455 S
C3170 C3153 1.574 . S
C3170 H3164 0.949 . S
C3170 C3174 1.368 . S
C3171 C3152 1.429 1_655 S
C3171 C3165 1.429 . S
C3171 C3172 1.523 . S
C3172 C3153 1.368 . S
C3172 C3166 1.368 1_655 S
C3172 C3171 1.523 . S
C3173 C3157 1.429 . S
C3173 C3169 1.429 1_655 S
C3173 C3174 1.523 . S
C3174 C3158 1.368 1_655 S
C3174 C3170 1.368 . S
C3174 C3173 1.523 . S
H3175 C3150 0.950 . S
H3176 C3152 0.950 . S
H3177 C3153 0.949 . S
H3178 C3155 0.950 . S
H3179 C3157 0.950 . S
C3180 C3181 1.349 . S
C3180 C3182 1.327 . S
C3180 H3205 0.950 . S
C3181 C3180 1.349 . S
C3181 C3197 1.349 . S
C3182 C3180 1.327 . S
C3182 C3201 1.429 . S
C3182 H3206 0.950 . S
C3183 C3200 1.574 . S
C3183 C3202 1.368 . S
C3183 H3207 0.949 . S
H3184 C3188 0.949 . S
C3185 C3186 1.349 . S
C3185 C3187 1.327 . S
C3185 H3208 0.950 . S
C3186 C3185 1.349 . S
C3186 C3198 1.349 . S
C3187 C3185 1.327 . S
C3187 C3203 1.429 . S
C3187 H3209 0.950 . S
C3188 H3184 0.949 . S
C3188 C3196 1.574 . S
C3188 C3204 1.368 . S
H3189 C3197 0.950 . S
H3190 C3195 0.950 . S
H3191 C3196 0.949 . S
H3192 C3198 0.950 . S
H3193 C3199 0.950 . S
H3194 C3200 0.949 . S
C3195 H3190 0.950 . S
C3195 C3197 1.327 . S
C3195 C3201 1.429 . S
C3196 C3188 1.574 . S
C3196 H3191 0.949 . S
C3196 C3202 1.368 . S
C3197 C3181 1.349 . S
C3197 H3189 0.950 . S
C3197 C3195 1.327 . S
C3198 C3186 1.349 . S
C3198 H3192 0.950 . S
C3198 C3199 1.327 . S
C3199 H3193 0.950 . S
C3199 C3198 1.327 . S
C3199 C3203 1.429 . S
C3200 C3183 1.574 . S
C3200 H3194 0.949 . S
C3200 C3204 1.368 . S
C3201 C3182 1.429 . S
C3201 C3195 1.429 . S
C3201 C3202 1.523 . S
C3202 C3183 1.368 . S
C3202 C3196 1.368 . S
C3202 C3201 1.523 . S
C3203 C3187 1.429 . S
C3203 C3199 1.429 . S
C3203 C3204 1.523 . S
C3204 C3188 1.368 . S
C3204 C3200 1.368 . S
C3204 C3203 1.523 . S
H3205 C3180 0.950 . S
H3206 C3182 0.950 . S
H3207 C3183 0.949 . S
H3208 C3185 0.950 . S
H3209 C3187 0.950 . S
C3210 C3211 1.349 . S
C3210 C3212 1.327 . S
C3210 H3235 0.950 . S
C3211 C3210 1.349 . S
C3211 C3227 1.352 . S
C3212 C3210 1.327 . S
C3212 C3231 1.429 . S
C3212 H3236 0.950 . S
C3213 C3230 1.574 . S
C3213 C3232 1.368 1_565 S
C3213 H3237 0.949 . S
H3214 C3218 0.949 . S
C3215 C3216 1.349 1_565 S
C3215 C3217 1.327 . S
C3215 H3238 0.950 . S
C3216 C3215 1.349 1_545 S
C3216 C3228 1.349 . S
C3217 C3215 1.327 . S
C3217 C3233 1.429 1_565 S
C3217 H3239 0.950 . S
C3218 H3214 0.949 . S
C3218 C3226 1.574 . S
C3218 C3234 1.368 . S
H3219 C3227 0.944 1_565 S
H3220 C3225 0.950 . S
H3221 C3226 0.949 . S
H3222 C3228 0.950 . S
H3223 C3229 0.950 . S
H3224 C3230 0.949 . S
C3225 H3220 0.950 . S
C3225 C3227 1.329 1_565 S
C3225 C3231 1.429 1_565 S
C3226 C3218 1.574 . S
C3226 H3221 0.949 . S
C3226 C3232 1.368 . S
C3227 C3211 1.352 . S
C3227 H3219 0.944 1_545 S
C3227 C3225 1.329 1_545 S
C3228 C3216 1.349 . S
C3228 H3222 0.950 . S
C3228 C3229 1.327 . S
C3229 H3223 0.950 . S
C3229 C3228 1.327 . S
C3229 C3233 1.429 . S
C3230 C3213 1.574 . S
C3230 H3224 0.949 . S
C3230 C3234 1.368 1_565 S
C3231 C3212 1.429 . S
C3231 C3225 1.429 1_545 S
C3231 C3232 1.523 . S
C3232 C3213 1.368 1_545 S
C3232 C3226 1.368 . S
C3232 C3231 1.523 . S
C3233 C3217 1.429 1_545 S
C3233 C3229 1.429 . S
C3233 C3234 1.523 . S
C3234 C3218 1.368 . S
C3234 C3230 1.368 1_545 S
C3234 C3233 1.523 . S
H3235 C3210 0.950 . S
H3236 C3212 0.950 . S
H3237 C3213 0.949 . S
H3238 C3215 0.950 . S
H3239 C3217 0.950 . S
C1081 C9 1.388 1_655 S
C1086 C688 1.434 . S
C1111 C19 1.570 . S
C1116 C734 1.556 . S
C1146 C766 1.492 . S
C1141 C33 1.485 . S
C1171 C37 1.440 . S
C1176 C819 1.453 . S
C1201 C5 1.429 . S
C1206 C865 1.442 . S
C1231 C23 1.602 . S
C1236 C904 1.595 . S
C1261 C47 1.448 . S
C1266 C858 1.453 . S
C1296 C911 1.616 . S
C1291 C65 1.623 . S
C1326 C812 1.457 . S
C1321 C75 1.450 . S
C1351 C79 1.372 . S
C1356 C773 1.379 . S
C1386 C667 1.474 . S
C1381 C51 1.444 . S
C1411 C61 1.592 . S
C1416 C713 1.577 . S
C1441 C93 1.725 . S
C1446 C943 1.714 . S
C1471 C103 1.648 . S
C1476 C1010 1.629 . S
C1506 C1056 1.644 . S
C1501 C117 1.662 . S
C1531 C121 1.606 . S
C1536 C267 1.587 . S
C1561 C89 1.645 . S
C1566 C313 1.626 . S
C1591 C107 1.654 . S
C1596 C359 1.632 . S
C1621 C131 1.590 . S
C1626 C306 1.572 . S
C1651 C149 1.667 . S
C1656 C352 1.646 . S
C1686 C260 1.617 . S
C1681 C159 1.635 . S
C1716 C1035 1.669 . S
C1711 C163 1.691 . S
C1746 C964 1.670 . S
C1741 C135 1.683 . S
C1776 C989 1.652 . S
C1771 C145 1.673 . S
C1801 C177 1.604 . S
C1806 C391 1.595 . S
C1831 C187 1.609 . S
C1836 C444 1.599 . S
C1861 C201 1.677 . S
C1866 C490 1.670 . S
C1891 C205 1.728 . S
C1896 C536 1.719 . S
C1926 C589 1.615 . S
C1921 C173 1.634 . S
C1956 C635 1.673 . S
C1951 C191 1.698 . S
C1986 C582 1.703 . S
C1981 C215 1.723 . S
C2016 C628 1.690 . S
C2011 C233 1.713 . S
C2041 C243 1.614 . S
C2046 C543 1.606 . S
C2076 C497 1.547 . S
C2071 C247 1.556 . S
C2101 C219 1.698 . S
C2106 C412 1.689 . S
C2136 C451 1.637 . S
C2131 C229 1.648 . S
C2166 C274 1.583 . S
C2161 C11 1.595 . S
C2191 C14 1.503 . S
C2196 C320 1.490 . S
C2226 C366 1.666 . S
C2221 C28 1.679 . S
C2256 C398 1.642 . S
C2251 C39 1.669 . S
C2286 C437 1.587 . S
C2281 C0 1.608 . S
C2316 C483 1.441 . S
C2311 C25 1.465 . S
C2341 C42 1.668 . S
C2346 C504 1.647 . S
C2371 C67 1.526 . S
C2376 C405 1.500 . S
C2401 C70 1.550 . S
C2406 C458 1.527 . S
C2431 C81 1.588 . S
C2436 C299 1.584 . S
C2466 C345 1.630 . S
C2461 C53 1.646 . S
C2491 C56 1.544 . S
C2496 C253 1.530 . S
C2526 C529 1.518 . S
C2521 C95 1.540 . S
C2551 C98 1.666 . S
C2556 C596 1.657 . S
C2581 C112 1.741 . S
C2586 C642 1.729 . S
C2616 C681 1.401 . S
C2611 C123 1.390 . S
C2641 C84 1.572 . S
C2646 C727 1.562 . S
C2671 C109 1.324 . S
C2676 C759 1.335 . S
C2701 C126 1.420 . S
C2706 C780 1.426 . S
C2731 C151 1.372 . S
C2736 C674 1.381 . S
C2766 C720 1.536 . S
C2761 C154 1.544 . S
C2791 C165 1.526 . S
C2796 C575 1.513 . S
C2821 C137 1.690 . S
C2826 C621 1.676 . S
C2856 C550 1.682 . S
C2851 C140 1.704 . S
C2886 C826 1.372 . S
C2881 C179 1.360 . S
C2911 C182 1.363 . S
C2916 C872 1.379 . S
C2941 C196 1.640 . S
C2946 C897 1.618 . S
C2976 C950 1.584 . S
C2971 C207 1.611 . S
C3006 C1003 1.650 . S
C3001 C168 1.660 . S
C3031 C193 1.636 . S
C3036 C1049 1.624 . S
C3061 C210 1.627 . S
C3066 C1042 1.615 . S
C3091 C235 1.689 . S
C3096 C957 1.664 . S
C3126 C996 1.616 . S
C3121 C238 1.624 . S
C3156 C851 1.326 . S
C3151 C249 1.314 . S
C3186 C918 1.576 . S
C3181 C221 1.600 . S
C3211 C224 1.395 . S
C3216 C805 1.408 . S
