# Generated by pormake.
# Topology nom, (4,4)-cn, num edge types: 1
# Building blocks:
#     Node 0, Type 0, BuildingBlock: MIFKUJ_clean_linker_1, # of connection points: 4
#     Node 1, Type 0, BuildingBlock: MIFKUJ_clean_linker_1, # of connection points: 4
#     Node 2, Type 0, BuildingBlock: MIFKUJ_clean_linker_1, # of connection points: 4
#     Node 3, Type 0, BuildingBlock: MIFKUJ_clean_linker_1, # of connection points: 4
#     Node 4, Type 0, BuildingBlock: MIFKUJ_clean_linker_1, # of connection points: 4
#     Node 5, Type 0, BuildingBlock: MIFKUJ_clean_linker_1, # of connection points: 4
#     Node 6, Type 1, BuildingBlock: KUFVIS_clean_sbu_0, # of connection points: 4
#     Node 7, Type 1, BuildingBlock: KUFVIS_clean_sbu_0, # of connection points: 4
#     Node 8, Type 1, BuildingBlock: KUFVIS_clean_sbu_0, # of connection points: 4
#     Node 9, Type 1, BuildingBlock: KUFVIS_clean_sbu_0, # of connection points: 4
#     Node 10, Type 1, BuildingBlock: KUFVIS_clean_sbu_0, # of connection points: 4
#     Node 11, Type 1, BuildingBlock: KUFVIS_clean_sbu_0, # of connection points: 4
#     Edge 12, Type (0, 1), BuildingBlock: KIFKEQ_clean_linker_1, # of connection points: 2
#     Edge 13, Type (0, 1), BuildingBlock: KIFKEQ_clean_linker_1, # of connection points: 2
#     Edge 14, Type (0, 1), BuildingBlock: KIFKEQ_clean_linker_1, # of connection points: 2
#     Edge 15, Type (0, 1), BuildingBlock: KIFKEQ_clean_linker_1, # of connection points: 2
#     Edge 16, Type (0, 1), BuildingBlock: KIFKEQ_clean_linker_1, # of connection points: 2
#     Edge 17, Type (0, 1), BuildingBlock: KIFKEQ_clean_linker_1, # of connection points: 2
#     Edge 18, Type (0, 1), BuildingBlock: KIFKEQ_clean_linker_1, # of connection points: 2
#     Edge 19, Type (0, 1), BuildingBlock: KIFKEQ_clean_linker_1, # of connection points: 2
#     Edge 20, Type (0, 1), BuildingBlock: KIFKEQ_clean_linker_1, # of connection points: 2
#     Edge 21, Type (0, 1), BuildingBlock: KIFKEQ_clean_linker_1, # of connection points: 2
#     Edge 22, Type (0, 1), BuildingBlock: KIFKEQ_clean_linker_1, # of connection points: 2
#     Edge 23, Type (0, 1), BuildingBlock: KIFKEQ_clean_linker_1, # of connection points: 2
#     Edge 24, Type (0, 1), BuildingBlock: KIFKEQ_clean_linker_1, # of connection points: 2
#     Edge 25, Type (0, 1), BuildingBlock: KIFKEQ_clean_linker_1, # of connection points: 2
#     Edge 26, Type (0, 1), BuildingBlock: KIFKEQ_clean_linker_1, # of connection points: 2
#     Edge 27, Type (0, 1), BuildingBlock: KIFKEQ_clean_linker_1, # of connection points: 2
#     Edge 28, Type (0, 1), BuildingBlock: KIFKEQ_clean_linker_1, # of connection points: 2
#     Edge 29, Type (0, 1), BuildingBlock: KIFKEQ_clean_linker_1, # of connection points: 2
#     Edge 30, Type (0, 1), BuildingBlock: KIFKEQ_clean_linker_1, # of connection points: 2
#     Edge 31, Type (0, 1), BuildingBlock: KIFKEQ_clean_linker_1, # of connection points: 2
#     Edge 32, Type (0, 1), BuildingBlock: KIFKEQ_clean_linker_1, # of connection points: 2
#     Edge 33, Type (0, 1), BuildingBlock: KIFKEQ_clean_linker_1, # of connection points: 2
#     Edge 34, Type (0, 1), BuildingBlock: KIFKEQ_clean_linker_1, # of connection points: 2
#     Edge 35, Type (0, 1), BuildingBlock: KIFKEQ_clean_linker_1, # of connection points: 2
# Relax obj value: 0.001
# Max RMSD: 0.099
# Mean RMSD: 0.062
data_MOF--net-nom--node1-KUFVIS_clean_sbu_0--node2-MIFKUJ_clean_linker_1--edge1-KIFKEQ_clean_linker_1
_symmetry_space_group_name_H-M    P1
_symmetry_Int_Tables_number       1
_symmetry_cell_setting            triclinic
loop_
_symmetry_equiv_pos_as_xyz
'x, y, z'
_cell_length_a     53.387252
_cell_length_b     53.911111
_cell_length_c     57.08356
_cell_angle_alpha  90.630197
_cell_angle_beta   90.644407
_cell_angle_gamma 120.01359
loop_
_atom_site_label
_atom_site_type_symbol
_atom_site_fract_x
_atom_site_fract_y
_atom_site_fract_z
_atom_type_partial_charge
H0 H 0.98905 0.49146 0.27384 0.0
H1 H 0.95627 0.47448 0.23969 0.0
H2 H 0.92014 0.52679 0.26167 0.0
H3 H 0.95318 0.54392 0.29567 0.0
H4 H 0.03077 0.54517 0.28542 0.0
H5 H 0.93995 0.47313 0.32127 0.0
H6 H 0.8886 0.45311 0.3304 0.0
H7 H 0.90861 0.53338 0.36386 0.0
H8 H 0.9595 0.55327 0.35442 0.0
H9 H 0.03565 0.58498 0.38252 0.0
H10 H 0.06829 0.60103 0.4168 0.0
H11 H 0.11426 0.56142 0.38763 0.0
H12 H 0.08078 0.54407 0.35391 0.0
H13 H 0.99802 0.53689 0.36735 0.0
H14 H 0.08212 0.6115 0.33189 0.0
H15 H 0.13253 0.64021 0.32003 0.0
H16 H 0.12635 0.56607 0.28463 0.0
H17 H 0.07594 0.53738 0.29668 0.0
C18 C 0.97332 0.51865 0.28749 0.0
C19 C 0.97406 0.49926 0.2713 0.0
C20 C 0.9554 0.48966 0.25176 0.0
C21 C 0.93561 0.49928 0.24802 0.0
C22 C 0.93486 0.51868 0.26427 0.0
C23 C 0.95369 0.52844 0.28372 0.0
C24 C 0.99387 0.52939 0.30779 0.0
C25 C 0.02363 0.54294 0.30339 0.0
C26 C 0.98457 0.52763 0.33113 0.0
C27 C 0.95353 0.51478 0.33701 0.0
C28 C 0.93319 0.48638 0.3305 0.0
C29 C 0.90392 0.47493 0.33584 0.0
C30 C 0.89452 0.49175 0.34767 0.0
C31 C 0.91506 0.52002 0.35439 0.0
C32 C 0.94421 0.53135 0.34919 0.0
C33 C 0.05585 0.56355 0.36537 0.0
C34 C 0.05263 0.57957 0.38349 0.0
C35 C 0.07128 0.58878 0.40306 0.0
C36 C 0.09379 0.58253 0.40473 0.0
C37 C 0.09725 0.56679 0.38657 0.0
C38 C 0.07823 0.55705 0.36723 0.0
C39 C 0.03511 0.55272 0.34507 0.0
C40 C 1.00529 0.53902 0.34943 0.0
C41 C 0.04437 0.55521 0.32161 0.0
C42 C 0.07533 0.57224 0.31531 0.0
C43 C 0.09171 0.60136 0.32177 0.0
C44 C 0.12042 0.61779 0.31483 0.0
C45 C 0.13337 0.60539 0.30135 0.0
C46 C 0.11704 0.57614 0.29516 0.0
C47 C 0.08822 0.55978 0.30193 0.0
H48 H 0.43083 0.96783 0.52721 0.0
H49 H 0.40514 0.91822 0.54013 0.0
H50 H 0.46023 0.89936 0.49782 0.0
H51 H 0.48698 0.94943 0.48576 0.0
H52 H 0.48277 0.00779 0.53432 0.0
H53 H 0.42805 0.96122 0.46164 0.0
H54 H 0.41313 0.92722 0.4284 0.0
H55 H 0.50269 0.96222 0.40995 0.0
H56 H 0.51743 0.99594 0.44319 0.0
H57 H 0.55573 0.08288 0.46212 0.0
H58 H 0.57757 0.1329 0.45019 0.0
H59 H 0.51025 0.14 0.48552 0.0
H60 H 0.48847 0.08997 0.49733 0.0
H61 H 0.50234 0.03767 0.45163 0.0
H62 H 0.55618 0.08947 0.51886 0.0
H63 H 0.57382 0.12285 0.55206 0.0
H64 H 0.48956 0.07637 0.58343 0.0
H65 H 0.47141 0.04476 0.5491 0.0
C66 C 0.4607 0.9625 0.50522 0.0
C67 C 0.43757 0.95314 0.52075 0.0
C68 C 0.42288 0.92479 0.52816 0.0
C69 C 0.43071 0.90501 0.51995 0.0
C70 C 0.45362 0.91416 0.50423 0.0
C71 C 0.46875 0.94274 0.49719 0.0
C72 C 0.4769 0.99318 0.49838 0.0
C73 C 0.4865 0.01434 0.5162 0.0
C74 C 0.48317 1.00181 0.47481 0.0
C75 C 0.47385 0.98095 0.45495 0.0
C76 C 0.44443 0.96143 0.45048 0.0
C77 C 0.43594 0.94217 0.43143 0.0
C78 C 0.45676 0.94202 0.41663 0.0
C79 C 0.48619 0.9616 0.42121 0.0
C80 C 0.49462 0.98098 0.44008 0.0
C81 C 0.52057 0.08273 0.48073 0.0
C82 C 0.54571 0.09524 0.46731 0.0
C83 C 0.55826 0.12385 0.46063 0.0
C84 C 0.54562 0.14038 0.46691 0.0
C85 C 0.52035 0.12775 0.48026 0.0
C86 C 0.50801 0.09924 0.48715 0.0
C87 C 0.50705 0.05222 0.48755 0.0
C88 C 0.49825 0.03116 0.46976 0.0
C89 C 0.50159 0.04372 0.5112 0.0
C90 C 0.51227 0.06476 0.53116 0.0
C91 C 0.54124 0.08693 0.53255 0.0
C92 C 0.55149 0.10575 0.55188 0.0
C93 C 0.53325 0.10237 0.57069 0.0
C94 C 0.50422 0.08011 0.56922 0.0
C95 C 0.49384 0.0617 0.54965 0.0
H96 H 0.52221 0.55325 0.71405 0.0
H97 H 0.50814 0.57077 0.74832 0.0
H98 H 0.41886 0.52339 0.72481 0.0
H99 H 0.43288 0.50523 0.69088 0.0
H100 H 0.50738 0.49969 0.70242 0.0
H101 H 0.49108 0.57342 0.6656 0.0
H102 H 0.45965 0.59339 0.6566 0.0
H103 H 0.39794 0.51326 0.62285 0.0
H104 H 0.42899 0.49339 0.6322 0.0
H105 H 0.47386 0.46251 0.60366 0.0
H106 H 0.4913 0.44779 0.57002 0.0
H107 H 0.57558 0.48377 0.60385 0.0
H108 H 0.5588 0.50087 0.63616 0.0
H109 H 0.48418 0.50965 0.61995 0.0
H110 H 0.49033 0.43352 0.65536 0.0
H111 H 0.51061 0.40357 0.66721 0.0
H112 H 0.57992 0.47584 0.70465 0.0
H113 H 0.55962 0.50579 0.69262 0.0
C114 C 0.4787 0.52821 0.69968 0.0
C115 C 0.4996 0.54664 0.71623 0.0
C116 C 0.49156 0.55663 0.73581 0.0
C117 C 0.46243 0.54851 0.73917 0.0
C118 C 0.44152 0.53031 0.72248 0.0
C119 C 0.44953 0.52 0.70305 0.0
C120 C 0.48746 0.51667 0.67957 0.0
C121 C 0.50274 0.50229 0.68435 0.0
C122 C 0.48008 0.51872 0.65605 0.0
C123 C 0.46224 0.53182 0.64976 0.0
C124 C 0.47076 0.56021 0.65628 0.0
C125 C 0.45288 0.57164 0.65102 0.0
C126 C 0.42618 0.5548 0.63923 0.0
C127 C 0.41811 0.52662 0.63232 0.0
C128 C 0.43597 0.51531 0.63746 0.0
C129 C 0.51483 0.48259 0.62272 0.0
C130 C 0.49618 0.46746 0.60374 0.0
C131 C 0.50614 0.45866 0.58457 0.0
C132 C 0.53495 0.46445 0.58402 0.0
C133 C 0.55343 0.47928 0.60325 0.0
C134 C 0.54364 0.48863 0.62212 0.0
C135 C 0.50455 0.49296 0.64273 0.0
C136 C 0.48904 0.50717 0.63797 0.0
C137 C 0.51071 0.4898 0.66636 0.0
C138 C 0.52357 0.47193 0.67298 0.0
C139 C 0.51002 0.44297 0.66597 0.0
C140 C 0.5215 0.42584 0.67288 0.0
C141 C 0.54683 0.43737 0.68688 0.0
C142 C 0.56053 0.46644 0.6937 0.0
C143 C 0.54887 0.48351 0.68696 0.0
H144 H 0.04531 0.56863 0.78104 0.0
H145 H 0.079 0.5869 0.74858 0.0
H146 H 0.09348 0.51508 0.7548 0.0
H147 H 0.06096 0.49801 0.78796 0.0
H148 H 0.99299 0.50672 0.78515 0.0
H149 H 0.08784 0.57616 0.82255 0.0
H150 H 0.13913 0.59333 0.83123 0.0
H151 H 0.11638 0.51033 0.85847 0.0
H152 H 0.0655 0.49324 0.84933 0.0
H153 H 0.99042 0.46274 0.87865 0.0
H154 H 0.95845 0.44555 0.91222 0.0
H155 H 0.91736 0.49295 0.88927 0.0
H156 H 0.95008 0.51087 0.85623 0.0
H157 H 0.03052 0.51301 0.86626 0.0
H158 H 0.94854 0.43964 0.82924 0.0
H159 H 0.89727 0.40845 0.82051 0.0
H160 H 0.8928 0.4802 0.79205 0.0
H161 H 0.94476 0.51122 0.80024 0.0
C162 C 0.05078 0.53207 0.78688 0.0
C163 C 0.05582 0.55691 0.77533 0.0
C164 C 0.07501 0.56721 0.75668 0.0
C165 C 0.08917 0.55257 0.74893 0.0
C166 C 0.0836 0.52737 0.76048 0.0
C167 C 0.06476 0.51736 0.77933 0.0
C168 C 0.03116 0.52165 0.80707 0.0
C169 C 1.00118 0.5087 0.80296 0.0
C170 C 0.04177 0.52249 0.83005 0.0
C171 C 0.07289 0.53336 0.83516 0.0
C172 C 0.09399 0.56164 0.8302 0.0
C173 C 0.12323 0.57147 0.83532 0.0
C174 C 0.13182 0.55313 0.84541 0.0
C175 C 0.11056 0.52486 0.85035 0.0
C176 C 0.08143 0.51513 0.84534 0.0
C177 C 0.97261 0.48799 0.86481 0.0
C178 C 0.97463 0.46954 0.88091 0.0
C179 C 0.95612 0.4595 0.89998 0.0
C180 C 0.93524 0.46779 0.90342 0.0
C181 C 0.93334 0.48635 0.88729 0.0
C182 C 0.95186 0.49639 0.86824 0.0
C183 C 0.99231 0.49871 0.84452 0.0
C184 C 0.02226 0.51156 0.84854 0.0
C185 C 0.98162 0.4963 0.8213 0.0
C186 C 0.95038 0.4778 0.8156 0.0
C187 C 0.93649 0.44869 0.82119 0.0
C188 C 0.90705 0.43091 0.81633 0.0
C189 C 0.89066 0.44181 0.80585 0.0
C190 C 0.90474 0.471 0.79999 0.0
C191 C 0.9344 0.4888 0.80471 0.0
H192 H 0.58867 0.07116 0.0228 0.0
H193 H 0.62094 0.12112 0.03427 0.0
H194 H 0.56192 0.14423 1.00226 0.0
H195 H 0.52951 0.09394 0.99084 0.0
H196 H 0.53457 0.0351 0.03536 0.0
H197 H 0.58268 0.07059 0.96009 0.0
H198 H 0.59874 0.10327 0.92722 0.0
H199 H 0.51099 0.08563 0.91588 0.0
H200 H 0.49506 0.05185 0.94806 0.0
H201 H 0.45278 0.95587 0.9642 0.0
H202 H 0.43217 0.90568 0.95132 0.0
H203 H 0.50376 0.90308 0.9848 0.0
H204 H 0.52431 0.95309 0.99738 0.0
H205 H 0.50509 1.00198 0.95302 0.0
H206 H 0.45674 0.95562 0.02264 0.0
H207 H 0.44175 0.92396 0.0563 0.0
H208 H 0.53076 0.96396 0.08047 0.0
H209 H 0.54559 0.99552 0.04686 0.0
C210 C 0.5567 0.07876 0.00589 0.0
C211 C 0.5826 0.08694 0.0183 0.0
C212 C 0.60099 0.11552 0.0249 0.0
C213 C 0.5939 0.13664 0.01931 0.0
C214 C 0.5681 0.12851 0.00665 0.0
C215 C 0.54958 0.09978 1.0001 0.0
C216 C 0.53717 0.04807 0.99953 0.0
C217 C 0.52828 0.02778 0.01735 0.0
C218 C 0.52801 0.03866 0.97615 0.0
C219 C 0.53772 0.05889 0.95648 0.0
C220 C 0.56697 0.07382 0.95046 0.0
C221 C 0.57612 0.09271 0.93174 0.0
C222 C 0.55624 0.09734 0.91879 0.0
C223 C 0.5269 0.08236 0.92508 0.0
C224 C 0.51773 0.06314 0.94358 0.0
C225 C 0.48993 0.95813 0.98192 0.0
C226 C 0.46391 0.94439 0.96883 0.0
C227 C 0.45211 0.91573 0.9616 0.0
C228 C 0.46641 0.90051 0.967 0.0
C229 C 0.4924 0.91433 0.98017 0.0
C230 C 0.50402 0.94283 0.98756 0.0
C231 C 0.50335 0.98885 0.98881 0.0
C232 C 0.51099 0.00919 0.9711 0.0
C233 C 0.5114 0.99828 0.01236 0.0
C234 C 0.50233 0.97797 0.03214 0.0
C235 C 0.47308 0.95733 0.03502 0.0
C236 C 0.46452 0.93922 0.05429 0.0
C237 C 0.48502 0.94153 0.07117 0.0
C238 C 0.51434 0.96194 0.06803 0.0
C239 C 0.52287 0.97996 0.04877 0.0
H240 H 0.50597 0.4886 0.21266 0.0
H241 H 0.52207 0.47259 0.2465 0.0
H242 H 0.61008 0.51971 0.22247 0.0
H243 H 0.59394 0.53672 0.18925 0.0
H244 H 0.52004 0.54228 0.20135 0.0
H245 H 0.53693 0.46821 0.16718 0.0
H246 H 0.56626 0.44701 0.15592 0.0
H247 H 0.61824 0.52034 0.11301 0.0
H248 H 0.59052 0.54227 0.12587 0.0
H249 H 0.55123 0.5773 0.10443 0.0
H250 H 0.53477 0.59418 0.07124 0.0
H251 H 0.45001 0.55776 0.10122 0.0
H252 H 0.46602 0.53972 0.13386 0.0
H253 H 0.53812 0.52823 0.1186 0.0
H254 H 0.53845 0.60746 0.15679 0.0
H255 H 0.51947 0.63881 0.16709 0.0
H256 H 0.44541 0.56737 0.19836 0.0
H257 H 0.46546 0.53647 0.18883 0.0
C258 C 0.54866 0.51363 0.19825 0.0
C259 C 0.52874 0.49548 0.21469 0.0
C260 C 0.53797 0.48611 0.23394 0.0
C261 C 0.56739 0.4947 0.23722 0.0
C262 C 0.58731 0.51285 0.22066 0.0
C263 C 0.57807 0.52237 0.20148 0.0
C264 C 0.53862 0.52408 0.17826 0.0
C265 C 0.52369 0.53883 0.18325 0.0
C266 C 0.54455 0.52082 0.15461 0.0
C267 C 0.56173 0.50711 0.14772 0.0
C268 C 0.555 0.47994 0.15572 0.0
C269 C 0.57159 0.46763 0.14894 0.0
C270 C 0.59488 0.48195 0.1336 0.0
C271 C 0.60105 0.50887 0.12529 0.0
C272 C 0.58488 0.52134 0.1324 0.0
C273 C 0.51002 0.55748 0.1219 0.0
C274 C 0.52904 0.57275 0.10384 0.0
C275 C 0.51967 0.58244 0.08491 0.0
C276 C 0.49119 0.57737 0.08378 0.0
C277 C 0.47219 0.56226 0.10186 0.0
C278 C 0.4814 0.55209 0.12057 0.0
C279 C 0.51995 0.5466 0.14174 0.0
C280 C 0.53454 0.53162 0.13674 0.0
C281 C 0.51506 0.5508 0.16538 0.0
C282 C 0.50328 0.56963 0.17193 0.0
C283 C 0.51813 0.59859 0.16588 0.0
C284 C 0.50704 0.61644 0.17163 0.0
C285 C 0.48065 0.60567 0.18339 0.0
C286 C 0.46592 0.57658 0.18956 0.0
C287 C 0.47727 0.55881 0.18405 0.0
Mn288 Mn 0.63249 0.39298 0.41653 0.0
Mn289 Mn 0.66634 0.46361 0.43062 0.0
C290 C 0.61273 0.41012 0.4439 0.0
C291 C 0.6244 0.34667 0.4223 0.0
C292 C 0.63109 0.43868 0.38576 0.0
O293 O 0.67319 0.40731 0.40423 0.0
O294 O 0.69356 0.45363 0.41554 0.0
C295 C 0.70685 0.46459 0.46695 0.0
N296 N 0.68563 0.47022 0.46034 0.0
C297 C 0.68787 0.49215 0.49781 0.0
C298 C 0.70985 0.48672 0.50501 0.0
C299 C 0.71927 0.47275 0.48954 0.0
C300 C 0.67619 0.48337 0.47516 0.0
H301 H 0.71427 0.45402 0.45505 0.0
C302 C 0.69487 0.43271 0.40595 0.0
O303 O 0.61808 0.35401 0.40248 0.0
O304 O 0.63643 0.36652 0.43844 0.0
N305 N 0.64293 0.47657 0.44553 0.0
C306 C 0.62041 0.47868 0.43636 0.0
C307 C 0.60775 0.49124 0.44991 0.0
C308 C 0.61871 0.50197 0.47255 0.0
C309 C 0.64216 0.4999 0.48147 0.0
C310 C 0.65373 0.48695 0.46724 0.0
H311 H 0.6121 0.47072 0.41889 0.0
O312 O 0.59663 0.38596 0.43287 0.0
O313 O 0.64002 0.42357 0.43875 0.0
O314 O 0.62379 0.41262 0.38949 0.0
O315 O 0.64685 0.45921 0.40003 0.0
C316 C 0.65434 0.50991 0.50401 0.0
C317 C 0.67698 0.5058 0.51227 0.0
H318 H 0.71953 0.49305 0.52239 0.0
H319 H 0.73616 0.4684 0.49498 0.0
H320 H 0.58966 0.49276 0.4429 0.0
H321 H 0.60887 0.51162 0.48296 0.0
H322 H 0.64618 0.52047 0.51527 0.0
H323 H 0.68576 0.51309 0.52981 0.0
Mn324 Mn 0.26232 0.65536 0.57522 0.0
Mn325 Mn 0.22292 0.58484 0.56123 0.0
C326 C 0.22526 0.63935 0.5475 0.0
C327 C 0.30223 0.70074 0.5693 0.0
C328 C 0.21555 0.61076 0.60632 0.0
O329 O 0.28726 0.6394 0.58804 0.0
O330 O 0.26095 0.59367 0.57488 0.0
C331 C 0.25866 0.58197 0.52319 0.0
N332 N 0.23271 0.57762 0.5308 0.0
C333 C 0.2101 0.55834 0.49316 0.0
C334 C 0.23655 0.56246 0.48495 0.0
C335 C 0.26094 0.57438 0.50003 0.0
C336 C 0.2091 0.56617 0.51645 0.0
H337 H 0.27747 0.59117 0.53472 0.0
C338 C 0.28338 0.61413 0.58518 0.0
O339 O 0.28868 0.69423 0.58902 0.0
O340 O 0.29334 0.68055 0.55343 0.0
N341 N 0.1857 0.57349 0.54764 0.0
C342 C 0.16231 0.57259 0.55784 0.0
C343 C 0.13636 0.56212 0.54485 0.0
C344 C 0.13465 0.55249 0.52161 0.0
C345 C 0.15892 0.55335 0.51157 0.0
C346 C 0.18415 0.56385 0.52541 0.0
H347 H 0.16349 0.57997 0.57569 0.0
O348 O 0.23455 0.66383 0.55821 0.0
O349 O 0.23801 0.62506 0.55323 0.0
O350 O 0.23358 0.63686 0.60188 0.0
O351 O 0.21071 0.58986 0.59264 0.0
C352 C 0.15927 0.54482 0.48821 0.0
C353 C 0.18484 0.54734 0.47901 0.0
H354 H 0.23844 0.55679 0.46706 0.0
H355 H 0.28146 0.57774 0.49379 0.0
H356 H 0.11773 0.56156 0.55272 0.0
H357 H 0.11469 0.5447 0.51158 0.0
H358 H 0.14013 0.53676 0.47706 0.0
H359 H 0.18497 0.54113 0.46092 0.0
Mn360 Mn 0.62679 0.26613 0.74304 0.0
Mn361 Mn 0.66285 0.23053 0.73303 0.0
C362 C 0.60876 0.22879 0.71588 0.0
C363 C 0.61835 0.30381 0.73545 0.0
C364 C 0.62663 0.22158 0.77601 0.0
O365 O 0.66696 0.2932 0.75688 0.0
O366 O 0.68962 0.2687 0.74752 0.0
C367 C 0.70267 0.26758 0.69666 0.0
N368 N 0.68173 0.24128 0.7036 0.0
C369 C 0.68287 0.2196 0.66685 0.0
C370 C 0.70457 0.24643 0.65935 0.0
C371 C 0.71444 0.27054 0.67429 0.0
C372 C 0.67199 0.21797 0.68933 0.0
H373 H 0.71032 0.28615 0.70811 0.0
C374 C 0.68944 0.29058 0.75634 0.0
O375 O 0.61143 0.29055 0.75524 0.0
O376 O 0.63088 0.29567 0.72033 0.0
N377 N 0.63964 0.19336 0.71889 0.0
C378 C 0.61726 0.16947 0.72818 0.0
C379 C 0.60413 0.14369 0.71508 0.0
C380 C 0.61435 0.14267 0.69272 0.0
C381 C 0.63758 0.16747 0.68364 0.0
C382 C 0.64978 0.19255 0.69748 0.0
H383 H 0.6094 0.17012 0.74539 0.0
O384 O 0.59182 0.23671 0.72533 0.0
O385 O 0.63584 0.24306 0.72252 0.0
O386 O 0.61763 0.23867 0.77042 0.0
O387 O 0.64393 0.21746 0.7635 0.0
C388 C 0.64881 0.16842 0.66125 0.0
C389 C 0.67132 0.19449 0.6528 0.0
H390 H 0.71366 0.24882 0.64209 0.0
H391 H 0.73109 0.29134 0.66858 0.0
H392 H 0.58618 0.12465 0.7222 0.0
H393 H 0.60407 0.12278 0.68263 0.0
H394 H 0.64 0.14929 0.65024 0.0
H395 H 0.6794 0.19505 0.63538 0.0
Mn396 Mn 0.39437 0.6499 0.91653 0.0
Mn397 Mn 0.36286 0.57985 0.93009 0.0
C398 C 0.41556 0.63509 0.94444 0.0
C399 C 0.39989 0.69534 0.92207 0.0
C400 C 0.39698 0.60424 0.88588 0.0
O401 O 0.35348 0.63359 0.90326 0.0
O402 O 0.33403 0.58786 0.91474 0.0
C403 C 0.32288 0.57863 0.96617 0.0
N404 N 0.3446 0.57384 0.95973 0.0
C405 C 0.34604 0.55574 0.99777 0.0
C406 C 0.32356 0.56033 0.00477 0.0
C407 C 0.31199 0.57189 0.98892 0.0
C408 C 0.35595 0.5628 0.97486 0.0
H409 H 0.31396 0.58755 0.95404 0.0
C410 C 0.33216 0.60813 0.90483 0.0
O411 O 0.4068 0.68794 0.90253 0.0
O412 O 0.38903 0.67608 0.93811 0.0
N413 N 0.38797 0.5689 0.94519 0.0
C414 C 0.41062 0.56728 0.93611 0.0
C415 C 0.42511 0.55682 0.94994 0.0
C416 C 0.41602 0.54791 0.97286 0.0
C417 C 0.39247 0.54949 0.98174 0.0
C418 C 0.37875 0.55993 0.96709 0.0
H419 H 0.41773 0.57414 0.91853 0.0
O420 O 0.43084 0.65912 0.93381 0.0
O421 O 0.38825 0.62047 0.93855 0.0
O422 O 0.4039 0.63025 0.88992 0.0
O423 O 0.38157 0.58384 0.89964 0.0
C424 C 0.3825 0.54175 0.00473 0.0
C425 C 0.35934 0.54492 0.01275 0.0
H426 H 0.31517 0.55526 0.02233 0.0
H427 H 0.29472 0.57561 0.99422 0.0
H428 H 0.44332 0.55573 0.94299 0.0
H429 H 0.42744 0.54012 0.98356 0.0
H430 H 0.39279 0.53376 0.0165 0.0
H431 H 0.35214 0.53929 0.03057 0.0
Mn432 Mn 0.76558 0.40057 0.07896 0.0
Mn433 Mn 0.80437 0.36899 0.09355 0.0
C434 C 0.80317 0.42234 0.10616 0.0
C435 C 0.72599 0.40699 0.08481 0.0
C436 C 0.81192 0.40039 0.04798 0.0
O437 O 0.74004 0.35948 0.06692 0.0
O438 O 0.76612 0.33992 0.08008 0.0
C439 C 0.76812 0.3329 0.13197 0.0
N440 N 0.79428 0.35354 0.12421 0.0
C441 C 0.81652 0.35839 0.16217 0.0
C442 C 0.78986 0.33706 0.17053 0.0
C443 C 0.76555 0.32431 0.15538 0.0
C444 C 0.81778 0.36602 0.13866 0.0
H445 H 0.74937 0.32312 0.1204 0.0
C446 C 0.74364 0.33801 0.06996 0.0
O447 O 0.73928 0.41294 0.06497 0.0
O448 O 0.7351 0.39646 0.10091 0.0
N449 N 0.84176 0.39457 0.10701 0.0
C450 C 0.86561 0.41558 0.09644 0.0
C451 C 0.8917 0.43075 0.1093 0.0
C452 C 0.89306 0.42402 0.13281 0.0
C453 C 0.86832 0.40214 0.14325 0.0
C454 C 0.843 0.38757 0.12949 0.0
H455 H 0.86473 0.4208 0.07836 0.0
O456 O 0.79395 0.43729 0.09524 0.0
O457 O 0.78997 0.39512 0.101 0.0
O458 O 0.79372 0.40863 0.05211 0.0
O459 O 0.81682 0.38493 0.06201 0.0
C460 C 0.86768 0.3945 0.16685 0.0
C461 C 0.84177 0.3727 0.17632 0.0
H462 H 0.78775 0.33045 0.18859 0.0
H463 H 0.74487 0.30793 0.16173 0.0
H464 H 0.9107 0.44761 0.10113 0.0
H465 H 0.91319 0.43587 0.1427 0.0
H466 H 0.88688 0.40553 0.17795 0.0
H467 H 0.84145 0.36727 0.19457 0.0
Mn468 Mn 0.38628 0.7737 0.24743 0.0
Mn469 Mn 0.45784 0.81069 0.26048 0.0
C470 C 0.40429 0.81095 0.27472 0.0
C471 C 0.33976 0.73553 0.25379 0.0
C472 C 0.43192 0.81988 0.21619 0.0
O473 O 0.40025 0.74727 0.23486 0.0
O474 O 0.44751 0.77336 0.24514 0.0
C475 C 0.45907 0.77231 0.2966 0.0
N476 N 0.46465 0.79881 0.29013 0.0
C477 C 0.48515 0.81885 0.32816 0.0
C478 C 0.47979 0.79181 0.33519 0.0
C479 C 0.46661 0.76842 0.31936 0.0
C480 C 0.47714 0.82141 0.30526 0.0
H481 H 0.44894 0.75429 0.28448 0.0
C482 C 0.42584 0.75105 0.23589 0.0
O483 O 0.34662 0.74866 0.23394 0.0
O484 O 0.36017 0.74398 0.26961 0.0
N485 N 0.47105 0.84717 0.27549 0.0
C486 C 0.4735 0.8715 0.26631 0.0
C487 C 0.48556 0.89671 0.28011 0.0
C488 C 0.49532 0.89674 0.30308 0.0
C489 C 0.49296 0.87155 0.31202 0.0
C490 C 0.48076 0.84709 0.29744 0.0
H491 H 0.46615 0.87162 0.24863 0.0
O492 O 0.37967 0.80263 0.26411 0.0
O493 O 0.41763 0.79715 0.26915 0.0
O494 O 0.40563 0.80136 0.2203 0.0
O495 O 0.45294 0.82485 0.23004 0.0
C496 C 0.50189 0.86966 0.33492 0.0
C497 C 0.49783 0.8433 0.34304 0.0
H498 H 0.48554 0.78872 0.35274 0.0
H499 H 0.46229 0.74746 0.32469 0.0
H500 H 0.48733 0.91607 0.27308 0.0
H501 H 0.50445 0.91618 0.31372 0.0
H502 H 0.51158 0.88828 0.34654 0.0
H503 H 0.50436 0.84201 0.36081 0.0
H504 H 0.1767 0.59224 0.30245 0.0
H505 H 0.15826 0.65847 0.28213 0.0
H506 H 0.22652 0.62163 0.28941 0.0
H507 H 0.20804 0.6879 0.26934 0.0
H508 H 0.32047 0.70083 0.29171 0.0
H509 H 0.2704 0.66792 0.30215 0.0
H510 H 0.24075 0.68779 0.23818 0.0
H511 H 0.29086 0.72074 0.22769 0.0
C512 C 0.18327 0.61301 0.2951 0.0
C513 C 0.16361 0.62309 0.29338 0.0
C514 C 0.21181 0.62989 0.28778 0.0
C515 C 0.22117 0.65704 0.2783 0.0
C516 C 0.20139 0.66696 0.27634 0.0
C517 C 0.17299 0.65024 0.2839 0.0
C518 C 0.30329 0.69793 0.27974 0.0
C519 C 0.30962 0.71346 0.25891 0.0
C520 C 0.27462 0.679 0.28569 0.0
C521 C 0.25164 0.6754 0.27106 0.0
C522 C 0.258 0.69037 0.24993 0.0
C523 C 0.2867 0.70909 0.24386 0.0
H524 H 0.6026 0.18249 0.46887 0.0
H525 H 0.51778 0.16647 0.44784 0.0
H526 H 0.62366 0.23228 0.45667 0.0
H527 H 0.53875 0.21622 0.43582 0.0
H528 H 0.58981 0.299 0.3954 0.0
H529 H 0.57202 0.24898 0.40523 0.0
H530 H 0.62186 0.27612 0.46996 0.0
H531 H 0.63962 0.32615 0.4602 0.0
C532 C 0.5885 0.18958 0.46153 0.0
C533 C 0.55853 0.17059 0.45935 0.0
C534 C 0.60052 0.21811 0.45469 0.0
C535 C 0.58287 0.22815 0.44524 0.0
C536 C 0.55295 0.20905 0.44282 0.0
C537 C 0.5409 0.18065 0.44992 0.0
C538 C 0.59726 0.29432 0.4116 0.0
C539 C 0.61608 0.31655 0.42705 0.0
C540 C 0.5869 0.26566 0.41729 0.0
C541 C 0.59539 0.2586 0.43844 0.0
C542 C 0.61505 0.28087 0.45348 0.0
C543 C 0.62516 0.30952 0.44791 0.0
H544 H 0.36791 0.52778 0.64512 0.0
H545 H 0.43976 0.60746 0.62213 0.0
H546 H 0.33452 0.54403 0.63367 0.0
H547 H 0.40614 0.62379 0.61046 0.0
H548 H 0.33462 0.64968 0.60918 0.0
H549 H 0.37009 0.6373 0.62426 0.0
H550 H 0.31798 0.55141 0.59592 0.0
H551 H 0.28273 0.56336 0.58125 0.0
C552 C 0.37657 0.54879 0.63758 0.0
C553 C 0.40643 0.56614 0.63418 0.0
C554 C 0.35744 0.55812 0.63102 0.0
C555 C 0.36762 0.58503 0.6208 0.0
C556 C 0.39762 0.603 0.61836 0.0
C557 C 0.41686 0.59364 0.62501 0.0
C558 C 0.33076 0.62816 0.6062 0.0
C559 C 0.30562 0.60751 0.59413 0.0
C560 C 0.35113 0.62112 0.61477 0.0
C561 C 0.34668 0.59327 0.61154 0.0
C562 C 0.32179 0.57287 0.59919 0.0
C563 C 0.3016 0.57985 0.59063 0.0
H564 H 0.85867 0.4415 0.76755 0.0
H565 H 0.85111 0.39808 0.83258 0.0
H566 H 0.80821 0.40672 0.75774 0.0
H567 H 0.80119 0.36286 0.82219 0.0
H568 H 0.73436 0.28631 0.77453 0.0
H569 H 0.78136 0.3249 0.78829 0.0
H570 H 0.75492 0.38681 0.77317 0.0
H571 H 0.70735 0.34794 0.75964 0.0
C572 C 0.84623 0.42489 0.77993 0.0
C573 C 0.8592 0.42243 0.80072 0.0
C574 C 0.81734 0.40495 0.77425 0.0
C575 C 0.80096 0.382 0.78912 0.0
C576 C 0.81349 0.38015 0.81028 0.0
C577 C 0.84217 0.40024 0.81611 0.0
C578 C 0.73843 0.30811 0.77429 0.0
C579 C 0.71716 0.3141 0.76599 0.0
C580 C 0.76529 0.33017 0.78229 0.0
C581 C 0.77171 0.35879 0.78181 0.0
C582 C 0.75047 0.36489 0.77366 0.0
C583 C 0.72327 0.34268 0.76606 0.0
H584 H 0.41055 0.8561 0.96865 0.0
H585 H 0.49589 0.87714 0.94643 0.0
H586 H 0.39187 0.80626 0.95593 0.0
H587 H 0.47737 0.82744 0.93401 0.0
H588 H 0.43001 0.74211 0.89472 0.0
H589 H 0.44412 0.7918 0.90401 0.0
H590 H 0.39812 0.76534 0.969 0.0
H591 H 0.38392 0.71564 0.95971 0.0
C592 C 0.42523 0.8501 0.9609 0.0
C593 C 0.45469 0.87047 0.95863 0.0
C594 C 0.4146 0.82157 0.95377 0.0
C595 C 0.43315 0.81295 0.94395 0.0
C596 C 0.46248 0.83347 0.94128 0.0
C597 C 0.47314 0.86187 0.94862 0.0
C598 C 0.42261 0.74684 0.91085 0.0
C599 C 0.40597 0.72496 0.92654 0.0
C600 C 0.43083 0.77532 0.91623 0.0
C601 C 0.42237 0.78249 0.9373 0.0
C602 C 0.4048 0.76046 0.95255 0.0
C603 C 0.39678 0.73201 0.94727 0.0
H604 H 0.6531 0.50967 0.12487 0.0
H605 H 0.57746 0.42494 0.1255 0.0
H606 H 0.68185 0.48919 0.1109 0.0
H607 H 0.60701 0.4045 0.11273 0.0
H608 H 0.68664 0.38685 0.11986 0.0
H609 H 0.65289 0.40313 0.13076 0.0
H610 H 0.68113 0.46063 0.07248 0.0
H611 H 0.71446 0.44401 0.06125 0.0
C612 C 0.64245 0.48672 0.1219 0.0
C613 C 0.61272 0.46908 0.12614 0.0
C614 C 0.65905 0.47502 0.11399 0.0
C615 C 0.64656 0.44533 0.11057 0.0
C616 C 0.61712 0.42749 0.11528 0.0
C617 C 0.6003 0.43924 0.12278 0.0
C618 C 0.68529 0.40262 0.10916 0.0
C619 C 0.70322 0.41422 0.08973 0.0
C620 C 0.66594 0.41185 0.11537 0.0
C621 C 0.66461 0.43324 0.10253 0.0
C622 C 0.68192 0.44424 0.08273 0.0
C623 C 0.70084 0.43461 0.07625 0.0
H624 H 0.41994 0.88628 0.56483 0.0
H625 H 0.40587 0.85613 0.49298 0.0
H626 H 0.39259 0.83703 0.57807 0.0
H627 H 0.37711 0.80687 0.50591 0.0
H628 H 0.34181 0.71864 0.53442 0.0
H629 H 0.37581 0.76773 0.52358 0.0
H630 H 0.34594 0.79895 0.58079 0.0
H631 H 0.31331 0.74992 0.59226 0.0
C632 C 0.41079 0.869 0.55188 0.0
C633 C 0.41493 0.87495 0.5279 0.0
C634 C 0.39493 0.84073 0.55942 0.0
C635 C 0.3823 0.81769 0.54313 0.0
C636 C 0.38684 0.82381 0.51909 0.0
C637 C 0.40318 0.85208 0.51159 0.0
C638 C 0.3429 0.73606 0.54486 0.0
C639 C 0.3249 0.73043 0.56419 0.0
C640 C 0.3622 0.76428 0.53851 0.0
C641 C 0.36359 0.78759 0.55108 0.0
C642 C 0.346 0.78178 0.57082 0.0
C643 C 0.3271 0.75357 0.5774 0.0
H644 H 0.60308 0.44934 0.68655 0.0
H645 H 0.51705 0.3838 0.705 0.0
H646 H 0.62219 0.41876 0.69947 0.0
H647 H 0.53606 0.35319 0.71768 0.0
H648 H 0.58445 0.31876 0.76049 0.0
H649 H 0.56839 0.3523 0.7495 0.0
H650 H 0.6183 0.37207 0.68646 0.0
H651 H 0.6344 0.33851 0.69742 0.0
C652 C 0.5883 0.42846 0.69345 0.0
C653 C 0.55857 0.41893 0.69472 0.0
C654 C 0.59919 0.4109 0.70069 0.0
C655 C 0.58063 0.38361 0.70963 0.0
C656 C 0.55094 0.37422 0.71109 0.0
C657 C 0.54002 0.39162 0.70361 0.0
C658 C 0.59223 0.33045 0.7444 0.0
C659 C 0.61062 0.32591 0.72978 0.0
C660 C 0.58288 0.34952 0.73804 0.0
C661 C 0.59195 0.36468 0.71705 0.0
C662 C 0.61109 0.36083 0.70281 0.0
C663 C 0.62022 0.34153 0.70905 0.0
H664 H 0.16174 0.525 0.83809 0.0
H665 H 0.17167 0.60424 0.8661 0.0
H666 H 0.21095 0.53954 0.85087 0.0
H667 H 0.22102 0.61881 0.87902 0.0
H668 H 0.3174 0.64418 0.8825 0.0
H669 H 0.27012 0.63231 0.86609 0.0
H670 H 0.23491 0.54504 0.88857 0.0
H671 H 0.28185 0.55658 0.90457 0.0
C672 C 0.17446 0.54554 0.84699 0.0
C673 C 0.16269 0.56332 0.85131 0.0
C674 C 0.20265 0.55388 0.85433 0.0
C675 C 0.2198 0.58018 0.86623 0.0
C676 C 0.20846 0.5985 0.86975 0.0
C677 C 0.18019 0.59015 0.86236 0.0
C678 C 0.29959 0.62244 0.88388 0.0
C679 C 0.30357 0.60134 0.89482 0.0
C680 C 0.27247 0.61569 0.87456 0.0
C681 C 0.24879 0.58769 0.87588 0.0
C682 C 0.25279 0.56669 0.88686 0.0
C683 C 0.27977 0.57341 0.89619 0.0
H684 H 0.62098 0.15611 0.06184 0.0
H685 H 0.61077 0.18557 0.99426 0.0
H686 H 0.65564 0.20514 0.07384 0.0
H687 H 0.64568 0.23492 0.00633 0.0
H688 H 0.69261 0.32299 0.04614 0.0
H689 H 0.65465 0.27481 0.03402 0.0
H690 H 0.70498 0.23966 0.06318 0.0
H691 H 0.74242 0.28721 0.07554 0.0
C692 C 0.62622 0.17308 0.04951 0.0
C693 C 0.61342 0.16689 0.02698 0.0
C694 C 0.64608 0.20119 0.05639 0.0
C695 C 0.65371 0.2239 0.04094 0.0
C696 C 0.64013 0.21791 0.01869 0.0
C697 C 0.62017 0.18966 0.01177 0.0
C698 C 0.69556 0.30497 0.04996 0.0
C699 C 0.72061 0.30908 0.0619 0.0
C700 C 0.67386 0.27739 0.04292 0.0
C701 C 0.6767 0.25339 0.04782 0.0
C702 C 0.70185 0.25761 0.05951 0.0
C703 C 0.72347 0.28501 0.06646 0.0
H704 H 0.48364 0.64991 0.15777 0.0
H705 H 0.45094 0.60526 0.2227 0.0
H706 H 0.46836 0.68395 0.16916 0.0
H707 H 0.43448 0.63868 0.23338 0.0
H708 H 0.38801 0.69317 0.23189 0.0
H709 H 0.39859 0.65616 0.21793 0.0
H710 H 0.48629 0.72151 0.20388 0.0
H711 H 0.47604 0.75826 0.21813 0.0
C712 C 0.4732 0.64725 0.17444 0.0
C713 C 0.46896 0.62494 0.18943 0.0
C714 C 0.46424 0.66665 0.18084 0.0
C715 C 0.45032 0.66394 0.20215 0.0
C716 C 0.44493 0.64106 0.21674 0.0
C717 C 0.45433 0.62188 0.21053 0.0
C718 C 0.40945 0.69958 0.22564 0.0
C719 C 0.43121 0.7286 0.22615 0.0
C720 C 0.41552 0.67844 0.2178 0.0
C721 C 0.44322 0.68605 0.20981 0.0
C722 C 0.4647 0.71509 0.20977 0.0
C723 C 0.45884 0.73609 0.21805 0.0
H724 H 0.85608 0.43921 0.36542 0.0
H725 H 0.8628 0.51822 0.34215 0.0
H726 H 0.80657 0.42275 0.3781 0.0
H727 H 0.81358 0.50183 0.35459 0.0
H728 H 0.74571 0.48342 0.40879 0.0
H729 H 0.79207 0.49513 0.39299 0.0
H730 H 0.75588 0.40873 0.36558 0.0
H731 H 0.70882 0.3966 0.38182 0.0
C732 C 0.84683 0.45284 0.36267 0.0
C733 C 0.8635 0.48021 0.35315 0.0
C734 C 0.81848 0.44341 0.3699 0.0
C735 C 0.80631 0.46117 0.3677 0.0
C736 C 0.82255 0.4879 0.35707 0.0
C737 C 0.85077 0.49731 0.34994 0.0
C738 C 0.74736 0.46676 0.39937 0.0
C739 C 0.72327 0.43904 0.39646 0.0
C740 C 0.77406 0.4736 0.39016 0.0
C741 C 0.77762 0.45301 0.37771 0.0
C742 C 0.75381 0.42507 0.37511 0.0
C743 C 0.72685 0.41816 0.38435 0.0
H744 H 0.07886 0.57349 0.45059 0.0
H745 H 0.15269 0.61283 0.40566 0.0
H746 H 0.111 0.58802 0.48495 0.0
H747 H 0.18503 0.62887 0.43993 0.0
H748 H 0.23521 0.62633 0.50402 0.0
H749 H 0.20373 0.61321 0.46942 0.0
H750 H 0.14287 0.62697 0.50895 0.0
H751 H 0.17406 0.6386 0.54383 0.0
C752 C 0.10203 0.58563 0.44816 0.0
C753 C 0.11336 0.59205 0.42556 0.0
C754 C 0.1205 0.59416 0.46783 0.0
C755 C 0.15074 0.6098 0.46535 0.0
C756 C 0.16195 0.61644 0.44261 0.0
C757 C 0.14346 0.60743 0.42294 0.0
C758 C 0.21485 0.62607 0.50527 0.0
C759 C 0.20627 0.63211 0.52668 0.0
C760 C 0.19699 0.61907 0.48536 0.0
C761 C 0.17043 0.61862 0.48633 0.0
C762 C 0.1627 0.62623 0.50764 0.0
C763 C 0.18057 0.63308 0.52759 0.0
H764 H 0.50476 0.12151 0.59912 0.0
H765 H 0.58767 0.12654 0.59092 0.0
H766 H 0.523 0.15106 0.63468 0.0
H767 H 0.6061 0.15749 0.62556 0.0
H768 H 0.63414 0.23817 0.67357 0.0
H769 H 0.61618 0.20742 0.6384 0.0
H770 H 0.54063 0.14688 0.67577 0.0
H771 H 0.55911 0.1775 0.71113 0.0
C772 C 0.52678 0.1287 0.60485 0.0
C773 C 0.54462 0.1214 0.59199 0.0
C774 C 0.53723 0.14577 0.6252 0.0
C775 C 0.56592 0.15641 0.63295 0.0
C776 C 0.58393 0.14962 0.61998 0.0
C777 C 0.57335 0.13207 0.59993 0.0
C778 C 0.61407 0.21793 0.67435 0.0
C779 C 0.59853 0.2095 0.69519 0.0
C780 C 0.60369 0.20048 0.65423 0.0
C781 C 0.57711 0.17469 0.65442 0.0
C782 C 0.56117 0.16667 0.67515 0.0
C783 C 0.57175 0.18402 0.69535 0.0
H784 H 0.47869 0.54752 0.7844 0.0
H785 H 0.42659 0.57103 0.74202 0.0
H786 H 0.46368 0.56216 0.81975 0.0
H787 H 0.41151 0.58571 0.77749 0.0
H788 H 0.41812 0.6365 0.84646 0.0
H789 H 0.43454 0.62398 0.81069 0.0
H790 H 0.41575 0.54343 0.84061 0.0
H791 H 0.39916 0.55562 0.87617 0.0
C792 C 0.46421 0.55604 0.78265 0.0
C793 C 0.45379 0.55814 0.76048 0.0
C794 C 0.45547 0.56422 0.80287 0.0
C795 C 0.43641 0.57502 0.80134 0.0
C796 C 0.42637 0.57762 0.77915 0.0
C797 C 0.4348 0.56904 0.75891 0.0
C798 C 0.41756 0.61615 0.84543 0.0
C799 C 0.40735 0.59709 0.86422 0.0
C800 C 0.4268 0.60895 0.82491 0.0
C801 C 0.42647 0.58278 0.82293 0.0
C802 C 0.41649 0.56386 0.84175 0.0
C803 C 0.40686 0.57083 0.86207 0.0
H804 H 0.90805 0.41389 0.92159 0.0
H805 H 0.91833 0.49805 0.93162 0.0
H806 H 0.87724 0.39713 0.95573 0.0
H807 H 0.88747 0.48127 0.96575 0.0
H808 H 0.80918 0.43378 0.01307 0.0
H809 H 0.83765 0.44934 0.97755 0.0
H810 H 0.88178 0.40399 0.99801 0.0
H811 H 0.85316 0.38805 0.0332 0.0
C812 C 0.90388 0.42887 0.93115 0.0
C813 C 0.91578 0.45735 0.92389 0.0
C814 C 0.88619 0.41925 0.95072 0.0
C815 C 0.87993 0.43787 0.96354 0.0
C816 C 0.89151 0.46625 0.9561 0.0
C817 C 0.90922 0.47588 0.93653 0.0
C818 C 0.82487 0.42702 0.00997 0.0
C819 C 0.82876 0.40958 0.02606 0.0
C820 C 0.84131 0.43609 0.98965 0.0
C821 C 0.86199 0.42789 0.9849 0.0
C822 C 0.86576 0.41036 1.00092 0.0
C823 C 0.84939 0.40134 0.02121 0.0
H824 H 0.5043 0.95767 0.11636 0.0
H825 H 0.44495 0.88421 0.07392 0.0
H826 H 0.49048 0.92802 0.15094 0.0
H827 H 0.43111 0.85438 0.10865 0.0
H828 H 0.39448 0.81699 0.1812 0.0
H829 H 0.40627 0.84611 0.14614 0.0
H830 H 0.49663 0.89006 0.16681 0.0
H831 H 0.48498 0.86163 0.20185 0.0
C832 C 0.48847 0.93511 0.11436 0.0
C833 C 0.47594 0.92329 0.0923 0.0
C834 C 0.48052 0.91808 0.13422 0.0
C835 C 0.45983 0.88874 0.13258 0.0
C836 C 0.4469 0.87696 0.11059 0.0
C837 C 0.45486 0.89405 0.09068 0.0
C838 C 0.41686 0.83287 0.17827 0.0
C839 C 0.43872 0.83694 0.19448 0.0
C840 C 0.42363 0.84946 0.15809 0.0
C841 C 0.45238 0.87055 0.1537 0.0
C842 C 0.4742 0.87439 0.16981 0.0
C843 C 0.46748 0.85786 0.18989 0.0
H844 H 0.61672 0.52622 0.26391 0.0
H845 H 0.54047 0.44224 0.25827 0.0
H846 H 0.63227 0.51171 0.29877 0.0
H847 H 0.55528 0.42821 0.29395 0.0
H848 H 0.60478 0.40419 0.34691 0.0
H849 H 0.59007 0.41705 0.31048 0.0
H850 H 0.61934 0.50205 0.3388 0.0
H851 H 0.63469 0.48955 0.37477 0.0
C852 C 0.60331 0.50459 0.27 0.0
C853 C 0.57728 0.48545 0.25821 0.0
C854 C 0.61204 0.49638 0.29024 0.0
C855 C 0.59492 0.46884 0.29937 0.0
C856 C 0.56913 0.44951 0.28737 0.0
C857 C 0.56045 0.4577 0.26705 0.0
C858 C 0.60804 0.42561 0.34537 0.0
C859 C 0.62109 0.44584 0.36379 0.0
C860 C 0.5995 0.43296 0.32449 0.0
C861 C 0.60369 0.46068 0.32158 0.0
C862 C 0.61634 0.48071 0.34016 0.0
C863 C 0.62499 0.47344 0.36092 0.0
H864 H 0.41364 0.92908 0.3842 0.0
H865 H 0.48007 0.90924 0.40324 0.0
H866 H 0.40026 0.89682 0.35011 0.0
H867 H 0.46695 0.87726 0.36915 0.0
H868 H 0.41706 0.80118 0.31848 0.0
H869 H 0.42868 0.83203 0.35333 0.0
H870 H 0.41953 0.89409 0.31235 0.0
H871 H 0.40751 0.8628 0.27763 0.0
C872 C 0.42528 0.91771 0.38114 0.0
C873 C 0.44797 0.92176 0.39633 0.0
C874 C 0.41783 0.89947 0.36149 0.0
C875 C 0.43274 0.88467 0.35673 0.0
C876 C 0.45505 0.88833 0.37223 0.0
C877 C 0.46269 0.90678 0.39171 0.0
C878 C 0.41798 0.82164 0.31696 0.0
C879 C 0.41248 0.83024 0.29534 0.0
C880 C 0.42452 0.83926 0.33688 0.0
C881 C 0.42527 0.86567 0.33562 0.0
C882 C 0.41895 0.87382 0.31399 0.0
C883 C 0.41231 0.8561 0.29409 0.0
H884 H 0.50542 0.41668 0.55506 0.0
H885 H 0.58953 0.49234 0.56569 0.0
H886 H 0.52354 0.40328 0.52099 0.0
H887 H 0.6077 0.47768 0.53279 0.0
H888 H 0.63639 0.42519 0.48765 0.0
H889 H 0.61719 0.43773 0.52167 0.0
H890 H 0.54233 0.42244 0.48039 0.0
H891 H 0.56199 0.41037 0.44624 0.0
C892 C 0.52767 0.43057 0.55019 0.0
C893 C 0.54591 0.45568 0.56336 0.0
C894 C 0.53806 0.42274 0.5307 0.0
C895 C 0.56706 0.4395 0.52417 0.0
C896 C 0.58533 0.46431 0.53741 0.0
C897 C 0.57486 0.47251 0.55652 0.0
C898 C 0.61611 0.42507 0.48581 0.0
C899 C 0.6012 0.41805 0.46419 0.0
C900 C 0.60502 0.43201 0.50527 0.0
C901 C 0.57838 0.43132 0.50363 0.0
C902 C 0.5629 0.42314 0.48217 0.0
C903 C 0.57416 0.41641 0.46265 0.0
H904 H 0.1389 0.55003 0.74268 0.0
H905 H 0.08564 0.57958 0.70935 0.0
H906 H 0.17039 0.56516 0.70892 0.0
H907 H 0.11813 0.59591 0.6762 0.0
H908 H 0.20209 0.64552 0.63228 0.0
H909 H 0.17261 0.63303 0.66752 0.0
H910 H 0.16223 0.54836 0.66514 0.0
H911 H 0.19116 0.56052 0.62987 0.0
C912 C 0.13377 0.55966 0.72822 0.0
C913 C 0.10941 0.56328 0.72882 0.0
C914 C 0.152 0.56852 0.70895 0.0
C915 C 0.14668 0.5817 0.68998 0.0
C916 C 0.1229 0.58608 0.69073 0.0
C917 C 0.10435 0.57679 0.70983 0.0
C918 C 0.19365 0.62431 0.63937 0.0
C919 C 0.19893 0.604 0.62826 0.0
C920 C 0.17667 0.61714 0.65943 0.0
C921 C 0.1652 0.58975 0.66903 0.0
C922 C 0.17098 0.56969 0.65821 0.0
C923 C 0.18743 0.57663 0.63794 0.0
H924 H 0.52693 0.09248 0.87742 0.0
H925 H 0.60784 0.14771 0.91418 0.0
H926 H 0.54355 0.12446 0.84416 0.0
H927 H 0.62476 0.17873 0.88033 0.0
H928 H 0.6534 0.19917 0.80205 0.0
H929 H 0.63605 0.17079 0.83738 0.0
H930 H 0.55912 0.17797 0.83472 0.0
H931 H 0.57667 0.20689 0.79945 0.0
C932 C 0.54809 0.11152 0.87862 0.0
C933 C 0.56601 0.11731 0.89862 0.0
C934 C 0.55762 0.12977 0.85946 0.0
C935 C 0.58545 0.15398 0.85967 0.0
C936 C 0.6033 0.16002 0.87964 0.0
C937 C 0.59362 0.14207 0.89896 0.0
C938 C 0.63285 0.19485 0.80903 0.0
C939 C 0.6164 0.20528 0.79794 0.0
C940 C 0.62302 0.17873 0.82933 0.0
C941 C 0.59628 0.17221 0.83875 0.0
C942 C 0.57978 0.18263 0.82773 0.0
C943 C 0.58989 0.19927 0.80765 0.0
H944 H 0.49615 0.56881 0.03736 0.0
H945 H 0.46365 0.60843 0.08484 0.0
H946 H 0.47869 0.58422 1.00407 0.0
H947 H 0.44736 0.6252 0.05164 0.0
H948 H 0.39338 0.62278 0.98792 0.0
H949 H 0.41234 0.61005 0.02192 0.0
H950 H 0.48641 0.62369 0.98189 0.0
H951 H 0.46632 0.63501 0.94764 0.0
C952 C 0.4856 0.5812 0.0406 0.0
C953 C 0.4812 0.58744 0.06362 0.0
C954 C 0.47574 0.59023 0.02154 0.0
C955 C 0.46169 0.60615 0.02504 0.0
C956 C 0.45761 0.6126 0.04818 0.0
C957 C 0.46705 0.60314 0.06724 0.0
C958 C 0.41352 0.62264 0.98645 0.0
C959 C 0.42777 0.62845 0.96503 0.0
C960 C 0.42471 0.61586 0.00601 0.0
C961 C 0.45077 0.61534 0.00466 0.0
C962 C 0.46586 0.62295 0.98344 0.0
C963 C 0.45453 0.62962 0.96386 0.0
H964 H 0.94904 0.4941 0.20284 0.0
H965 H 0.87792 0.4819 0.24596 0.0
H966 H 0.91667 0.47677 0.16858 0.0
H967 H 0.84563 0.46507 0.21157 0.0
H968 H 0.79235 0.40305 0.15042 0.0
H969 H 0.82414 0.42298 0.18496 0.0
H970 H 0.88821 0.49075 0.14292 0.0
H971 H 0.85621 0.47042 0.10833 0.0
C972 C 0.92648 0.48768 0.20499 0.0
C973 C 0.916 0.48927 0.22711 0.0
C974 C 0.90801 0.47804 0.18532 0.0
C975 C 0.8786 0.46956 0.18737 0.0
C976 C 0.86814 0.47125 0.20947 0.0
C977 C 0.88667 0.4811 0.22912 0.0
C978 C 0.81334 0.42211 0.14865 0.0
C979 C 0.82247 0.43471 0.12674 0.0
C980 C 0.83136 0.43373 0.16842 0.0
C981 C 0.8588 0.45829 0.16662 0.0
C982 C 0.8674 0.47151 0.14476 0.0
C983 C 0.84917 0.46 0.12502 0.0
loop_
_geom_bond_atom_site_label_1
_geom_bond_atom_site_label_2
_geom_bond_distance
_geom_bond_site_symmetry_2
_ccdc_geom_bond_type
H0 C19 0.949 . S
H1 C20 0.950 . S
H2 C22 0.950 . S
H3 C23 0.950 . S
H4 C25 0.950 . S
H5 C28 0.950 . S
H6 C29 0.950 . S
H7 C31 0.951 . S
H8 C32 0.949 . S
H9 C34 0.949 . S
H10 C35 0.950 . S
H11 C37 0.950 . S
H12 C38 0.950 . S
H13 C40 0.950 . S
H14 C43 0.950 . S
H15 C44 0.950 . S
H16 C46 0.951 . S
H17 C47 0.949 . S
C18 C19 1.376 . S
C18 C23 1.386 . S
C18 C24 1.483 . S
C19 H0 0.949 . S
C19 C18 1.376 . S
C19 C20 1.397 . S
C20 H1 0.950 . S
C20 C19 1.397 . S
C20 C21 1.391 . S
C21 C20 1.391 . S
C21 C22 1.405 . S
C22 H2 0.950 . S
C22 C21 1.405 . S
C22 C23 1.367 . S
C23 H3 0.950 . S
C23 C18 1.386 . S
C23 C22 1.367 . S
C24 C18 1.483 . S
C24 C25 1.382 1_655 S
C24 C26 1.403 . S
C25 H4 0.950 . S
C25 C24 1.382 1_455 S
C25 C41 1.411 . S
C26 C24 1.403 . S
C26 C27 1.489 . S
C26 C40 1.411 . S
C27 C26 1.489 . S
C27 C28 1.383 . S
C27 C32 1.382 . S
C28 H5 0.950 . S
C28 C27 1.383 . S
C28 C29 1.395 . S
C29 H6 0.950 . S
C29 C28 1.395 . S
C29 C30 1.288 . S
C30 C29 1.288 . S
C30 C31 1.392 . S
C31 H7 0.951 . S
C31 C30 1.392 . S
C31 C32 1.392 . S
C32 H8 0.949 . S
C32 C27 1.382 . S
C32 C31 1.392 . S
C33 C34 1.376 . S
C33 C38 1.386 . S
C33 C39 1.483 . S
C34 H9 0.949 . S
C34 C33 1.376 . S
C34 C35 1.397 . S
C35 H10 0.950 . S
C35 C34 1.397 . S
C35 C36 1.391 . S
C36 C35 1.391 . S
C36 C37 1.405 . S
C37 H11 0.950 . S
C37 C36 1.405 . S
C37 C38 1.367 . S
C38 H12 0.950 . S
C38 C33 1.386 . S
C38 C37 1.367 . S
C39 C33 1.483 . S
C39 C40 1.382 1_455 S
C39 C41 1.403 . S
C40 H13 0.950 . S
C40 C26 1.411 . S
C40 C39 1.382 1_655 S
C41 C25 1.411 . S
C41 C39 1.403 . S
C41 C42 1.489 . S
C42 C41 1.489 . S
C42 C43 1.383 . S
C42 C47 1.382 . S
C43 H14 0.950 . S
C43 C42 1.383 . S
C43 C44 1.395 . S
C44 H15 0.950 . S
C44 C43 1.395 . S
C44 C45 1.288 . S
C45 C44 1.288 . S
C45 C46 1.392 . S
C46 H16 0.951 . S
C46 C45 1.392 . S
C46 C47 1.392 . S
C47 H17 0.949 . S
C47 C42 1.382 . S
C47 C46 1.392 . S
H48 C67 0.949 . S
H49 C68 0.950 . S
H50 C70 0.950 . S
H51 C71 0.950 . S
H52 C73 0.952 . S
H53 C76 0.950 . S
H54 C77 0.950 . S
H55 C79 0.951 . S
H56 C80 0.949 . S
H57 C82 0.949 . S
H58 C83 0.950 . S
H59 C85 0.950 . S
H60 C86 0.950 . S
H61 C88 0.950 . S
H62 C91 0.950 . S
H63 C92 0.950 . S
H64 C94 0.951 . S
H65 C95 0.949 . S
C66 C67 1.376 . S
C66 C71 1.386 . S
C66 C72 1.483 . S
C67 H48 0.949 . S
C67 C66 1.376 . S
C67 C68 1.397 . S
C68 H49 0.950 . S
C68 C67 1.397 . S
C68 C69 1.391 . S
C69 C68 1.391 . S
C69 C70 1.405 . S
C70 H50 0.950 . S
C70 C69 1.405 . S
C70 C71 1.367 . S
C71 H51 0.950 . S
C71 C66 1.386 . S
C71 C70 1.367 . S
C72 C66 1.483 . S
C72 C73 1.382 1_565 S
C72 C74 1.403 . S
C73 H52 0.952 . S
C73 C72 1.382 1_545 S
C73 C89 1.411 . S
C74 C72 1.403 . S
C74 C75 1.489 . S
C74 C88 1.411 1_565 S
C75 C74 1.489 . S
C75 C76 1.383 . S
C75 C80 1.382 . S
C76 H53 0.950 . S
C76 C75 1.383 . S
C76 C77 1.395 . S
C77 H54 0.950 . S
C77 C76 1.395 . S
C77 C78 1.288 . S
C78 C77 1.288 . S
C78 C79 1.392 . S
C79 H55 0.951 . S
C79 C78 1.392 . S
C79 C80 1.392 . S
C80 H56 0.949 . S
C80 C75 1.382 . S
C80 C79 1.392 . S
C81 C82 1.376 . S
C81 C86 1.386 . S
C81 C87 1.483 . S
C82 H57 0.949 . S
C82 C81 1.376 . S
C82 C83 1.397 . S
C83 H58 0.950 . S
C83 C82 1.397 . S
C83 C84 1.391 . S
C84 C83 1.391 . S
C84 C85 1.405 . S
C85 H59 0.950 . S
C85 C84 1.405 . S
C85 C86 1.367 . S
C86 H60 0.950 . S
C86 C81 1.386 . S
C86 C85 1.367 . S
C87 C81 1.483 . S
C87 C88 1.382 . S
C87 C89 1.403 . S
C88 H61 0.950 . S
C88 C74 1.411 1_545 S
C88 C87 1.382 . S
C89 C73 1.411 . S
C89 C87 1.403 . S
C89 C90 1.489 . S
C90 C89 1.489 . S
C90 C91 1.383 . S
C90 C95 1.382 . S
C91 H62 0.950 . S
C91 C90 1.383 . S
C91 C92 1.395 . S
C92 H63 0.950 . S
C92 C91 1.395 . S
C92 C93 1.288 . S
C93 C92 1.288 . S
C93 C94 1.392 . S
C94 H64 0.951 . S
C94 C93 1.392 . S
C94 C95 1.392 . S
C95 H65 0.949 . S
C95 C90 1.382 . S
C95 C94 1.392 . S
H96 C115 0.949 . S
H97 C116 0.950 . S
H98 C118 0.950 . S
H99 C119 0.950 . S
H100 C121 0.950 . S
H101 C124 0.950 . S
H102 C125 0.950 . S
H103 C127 0.951 . S
H104 C128 0.949 . S
H105 C130 0.949 . S
H106 C131 0.950 . S
H107 C133 0.950 . S
H108 C134 0.950 . S
H109 C136 0.950 . S
H110 C139 0.950 . S
H111 C140 0.950 . S
H112 C142 0.951 . S
H113 C143 0.949 . S
C114 C115 1.376 . S
C114 C119 1.386 . S
C114 C120 1.483 . S
C115 H96 0.949 . S
C115 C114 1.376 . S
C115 C116 1.397 . S
C116 H97 0.950 . S
C116 C115 1.397 . S
C116 C117 1.391 . S
C117 C116 1.391 . S
C117 C118 1.405 . S
C118 H98 0.950 . S
C118 C117 1.405 . S
C118 C119 1.367 . S
C119 H99 0.950 . S
C119 C114 1.386 . S
C119 C118 1.367 . S
C120 C114 1.483 . S
C120 C121 1.382 . S
C120 C122 1.403 . S
C121 H100 0.950 . S
C121 C120 1.382 . S
C121 C137 1.411 . S
C122 C120 1.403 . S
C122 C123 1.489 . S
C122 C136 1.411 . S
C123 C122 1.489 . S
C123 C124 1.383 . S
C123 C128 1.382 . S
C124 H101 0.950 . S
C124 C123 1.383 . S
C124 C125 1.395 . S
C125 H102 0.950 . S
C125 C124 1.395 . S
C125 C126 1.288 . S
C126 C125 1.288 . S
C126 C127 1.392 . S
C127 H103 0.951 . S
C127 C126 1.392 . S
C127 C128 1.392 . S
C128 H104 0.949 . S
C128 C123 1.382 . S
C128 C127 1.392 . S
C129 C130 1.376 . S
C129 C134 1.386 . S
C129 C135 1.483 . S
C130 H105 0.949 . S
C130 C129 1.376 . S
C130 C131 1.397 . S
C131 H106 0.950 . S
C131 C130 1.397 . S
C131 C132 1.391 . S
C132 C131 1.391 . S
C132 C133 1.405 . S
C133 H107 0.950 . S
C133 C132 1.405 . S
C133 C134 1.367 . S
C134 H108 0.950 . S
C134 C129 1.386 . S
C134 C133 1.367 . S
C135 C129 1.483 . S
C135 C136 1.382 . S
C135 C137 1.403 . S
C136 H109 0.950 . S
C136 C122 1.411 . S
C136 C135 1.382 . S
C137 C121 1.411 . S
C137 C135 1.403 . S
C137 C138 1.489 . S
C138 C137 1.489 . S
C138 C139 1.383 . S
C138 C143 1.382 . S
C139 H110 0.950 . S
C139 C138 1.383 . S
C139 C140 1.395 . S
C140 H111 0.950 . S
C140 C139 1.395 . S
C140 C141 1.288 . S
C141 C140 1.288 . S
C141 C142 1.392 . S
C142 H112 0.951 . S
C142 C141 1.392 . S
C142 C143 1.392 . S
C143 H113 0.949 . S
C143 C138 1.382 . S
C143 C142 1.392 . S
H144 C163 0.949 . S
H145 C164 0.950 . S
H146 C166 0.950 . S
H147 C167 0.950 . S
H148 C169 0.950 . S
H149 C172 0.950 . S
H150 C173 0.950 . S
H151 C175 0.951 . S
H152 C176 0.949 . S
H153 C178 0.949 . S
H154 C179 0.950 . S
H155 C181 0.950 . S
H156 C182 0.950 . S
H157 C184 0.950 . S
H158 C187 0.950 . S
H159 C188 0.950 . S
H160 C190 0.951 . S
H161 C191 0.949 . S
C162 C163 1.376 . S
C162 C167 1.386 . S
C162 C168 1.483 . S
C163 H144 0.949 . S
C163 C162 1.376 . S
C163 C164 1.397 . S
C164 H145 0.950 . S
C164 C163 1.397 . S
C164 C165 1.391 . S
C165 C164 1.391 . S
C165 C166 1.405 . S
C166 H146 0.950 . S
C166 C165 1.405 . S
C166 C167 1.367 . S
C167 H147 0.950 . S
C167 C162 1.386 . S
C167 C166 1.367 . S
C168 C162 1.483 . S
C168 C169 1.382 1_455 S
C168 C170 1.403 . S
C169 H148 0.950 . S
C169 C168 1.382 1_655 S
C169 C185 1.411 . S
C170 C168 1.403 . S
C170 C171 1.489 . S
C170 C184 1.411 . S
C171 C170 1.489 . S
C171 C172 1.383 . S
C171 C176 1.382 . S
C172 H149 0.950 . S
C172 C171 1.383 . S
C172 C173 1.395 . S
C173 H150 0.950 . S
C173 C172 1.395 . S
C173 C174 1.288 . S
C174 C173 1.288 . S
C174 C175 1.392 . S
C175 H151 0.951 . S
C175 C174 1.392 . S
C175 C176 1.392 . S
C176 H152 0.949 . S
C176 C171 1.382 . S
C176 C175 1.392 . S
C177 C178 1.376 . S
C177 C182 1.386 . S
C177 C183 1.483 . S
C178 H153 0.949 . S
C178 C177 1.376 . S
C178 C179 1.397 . S
C179 H154 0.950 . S
C179 C178 1.397 . S
C179 C180 1.391 . S
C180 C179 1.391 . S
C180 C181 1.405 . S
C181 H155 0.950 . S
C181 C180 1.405 . S
C181 C182 1.367 . S
C182 H156 0.950 . S
C182 C177 1.386 . S
C182 C181 1.367 . S
C183 C177 1.483 . S
C183 C184 1.382 1_655 S
C183 C185 1.403 . S
C184 H157 0.950 . S
C184 C170 1.411 . S
C184 C183 1.382 1_455 S
C185 C169 1.411 . S
C185 C183 1.403 . S
C185 C186 1.489 . S
C186 C185 1.489 . S
C186 C187 1.383 . S
C186 C191 1.382 . S
C187 H158 0.950 . S
C187 C186 1.383 . S
C187 C188 1.395 . S
C188 H159 0.950 . S
C188 C187 1.395 . S
C188 C189 1.288 . S
C189 C188 1.288 . S
C189 C190 1.392 . S
C190 H160 0.951 . S
C190 C189 1.392 . S
C190 C191 1.392 . S
C191 H161 0.949 . S
C191 C186 1.382 . S
C191 C190 1.392 . S
H192 C211 0.949 . S
H193 C212 0.950 . S
H194 C214 0.950 . S
H195 C215 0.957 . S
H196 C217 0.950 . S
H197 C220 0.950 . S
H198 C221 0.950 . S
H199 C223 0.951 . S
H200 C224 0.949 . S
H201 C226 0.949 . S
H202 C227 0.950 . S
H203 C229 0.950 . S
H204 C230 0.950 . S
H205 C232 0.950 . S
H206 C235 0.950 . S
H207 C236 0.950 . S
H208 C238 0.951 . S
H209 C239 0.954 . S
C210 C211 1.376 . S
C210 C215 1.383 1_554 S
C210 C216 1.483 1_554 S
C211 H192 0.949 . S
C211 C210 1.376 . S
C211 C212 1.397 . S
C212 H193 0.950 . S
C212 C211 1.397 . S
C212 C213 1.391 . S
C213 C212 1.391 . S
C213 C214 1.405 . S
C214 H194 0.950 . S
C214 C213 1.405 . S
C214 C215 1.364 1_554 S
C215 H195 0.957 . S
C215 C210 1.383 1_556 S
C215 C214 1.364 1_556 S
C216 C210 1.483 1_556 S
C216 C217 1.382 1_556 S
C216 C218 1.403 . S
C217 H196 0.950 . S
C217 C216 1.382 1_554 S
C217 C233 1.435 . S
C218 C216 1.403 . S
C218 C219 1.489 . S
C218 C232 1.411 . S
C219 C218 1.489 . S
C219 C220 1.383 . S
C219 C224 1.382 . S
C220 H197 0.950 . S
C220 C219 1.383 . S
C220 C221 1.395 . S
C221 H198 0.950 . S
C221 C220 1.395 . S
C221 C222 1.288 . S
C222 C221 1.288 . S
C222 C223 1.392 . S
C223 H199 0.951 . S
C223 C222 1.392 . S
C223 C224 1.392 . S
C224 H200 0.949 . S
C224 C219 1.382 . S
C224 C223 1.392 . S
C225 C226 1.376 . S
C225 C230 1.386 . S
C225 C231 1.483 . S
C226 H201 0.949 . S
C226 C225 1.376 . S
C226 C227 1.397 . S
C227 H202 0.950 . S
C227 C226 1.397 . S
C227 C228 1.391 . S
C228 C227 1.391 . S
C228 C229 1.405 . S
C229 H203 0.950 . S
C229 C228 1.405 . S
C229 C230 1.367 . S
C230 H204 0.950 . S
C230 C225 1.386 . S
C230 C229 1.367 . S
C231 C225 1.483 . S
C231 C232 1.382 1_565 S
C231 C233 1.397 1_566 S
C232 H205 0.950 . S
C232 C218 1.411 . S
C232 C231 1.382 1_545 S
C233 C217 1.435 . S
C233 C231 1.397 1_544 S
C233 C234 1.473 1_545 S
C234 C233 1.473 1_565 S
C234 C235 1.383 . S
C234 C239 1.382 . S
C235 H206 0.950 . S
C235 C234 1.383 . S
C235 C236 1.395 . S
C236 H207 0.950 . S
C236 C235 1.395 . S
C236 C237 1.288 . S
C237 C236 1.288 . S
C237 C238 1.392 . S
C238 H208 0.951 . S
C238 C237 1.392 . S
C238 C239 1.392 . S
C239 H209 0.954 . S
C239 C234 1.382 . S
C239 C238 1.392 . S
H240 C259 0.949 . S
H241 C260 0.950 . S
H242 C262 0.950 . S
H243 C263 0.950 . S
H244 C265 0.950 . S
H245 C268 0.950 . S
H246 C269 0.950 . S
H247 C271 0.951 . S
H248 C272 0.949 . S
H249 C274 0.949 . S
H250 C275 0.950 . S
H251 C277 0.950 . S
H252 C278 0.950 . S
H253 C280 0.950 . S
H254 C283 0.950 . S
H255 C284 0.950 . S
H256 C286 0.951 . S
H257 C287 0.949 . S
C258 C259 1.376 . S
C258 C263 1.386 . S
C258 C264 1.483 . S
C259 H240 0.949 . S
C259 C258 1.376 . S
C259 C260 1.397 . S
C260 H241 0.950 . S
C260 C259 1.397 . S
C260 C261 1.391 . S
C261 C260 1.391 . S
C261 C262 1.405 . S
C262 H242 0.950 . S
C262 C261 1.405 . S
C262 C263 1.367 . S
C263 H243 0.950 . S
C263 C258 1.386 . S
C263 C262 1.367 . S
C264 C258 1.483 . S
C264 C265 1.382 . S
C264 C266 1.403 . S
C265 H244 0.950 . S
C265 C264 1.382 . S
C265 C281 1.411 . S
C266 C264 1.403 . S
C266 C267 1.489 . S
C266 C280 1.411 . S
C267 C266 1.489 . S
C267 C268 1.383 . S
C267 C272 1.382 . S
C268 H245 0.950 . S
C268 C267 1.383 . S
C268 C269 1.395 . S
C269 H246 0.950 . S
C269 C268 1.395 . S
C269 C270 1.288 . S
C270 C269 1.288 . S
C270 C271 1.392 . S
C271 H247 0.951 . S
C271 C270 1.392 . S
C271 C272 1.392 . S
C272 H248 0.949 . S
C272 C267 1.382 . S
C272 C271 1.392 . S
C273 C274 1.376 . S
C273 C278 1.386 . S
C273 C279 1.483 . S
C274 H249 0.949 . S
C274 C273 1.376 . S
C274 C275 1.397 . S
C275 H250 0.950 . S
C275 C274 1.397 . S
C275 C276 1.391 . S
C276 C275 1.391 . S
C276 C277 1.405 . S
C277 H251 0.950 . S
C277 C276 1.405 . S
C277 C278 1.367 . S
C278 H252 0.950 . S
C278 C273 1.386 . S
C278 C277 1.367 . S
C279 C273 1.483 . S
C279 C280 1.382 . S
C279 C281 1.403 . S
C280 H253 0.950 . S
C280 C266 1.411 . S
C280 C279 1.382 . S
C281 C265 1.411 . S
C281 C279 1.403 . S
C281 C282 1.489 . S
C282 C281 1.489 . S
C282 C283 1.383 . S
C282 C287 1.382 . S
C283 H254 0.950 . S
C283 C282 1.383 . S
C283 C284 1.395 . S
C284 H255 0.950 . S
C284 C283 1.395 . S
C284 C285 1.288 . S
C285 C284 1.288 . S
C285 C286 1.392 . S
C286 H256 0.951 . S
C286 C285 1.392 . S
C286 C287 1.392 . S
C287 H257 0.949 . S
C287 C282 1.382 . S
C287 C286 1.392 . S
Mn288 O293 2.095 . S
Mn288 O303 2.162 . S
Mn288 O304 2.297 . S
Mn288 O312 2.385 . S
Mn288 O313 2.209 . S
Mn288 O314 2.094 . S
Mn289 O294 2.121 . S
Mn289 N296 2.257 . S
Mn289 N305 2.282 . S
Mn289 O313 2.215 . S
Mn289 O315 2.117 . S
C290 O312 1.234 . S
C290 O313 1.283 . S
C291 O303 1.281 . S
C291 O304 1.236 . S
C292 O314 1.240 . S
C292 O315 1.264 . S
O293 Mn288 2.095 . S
O293 C302 1.250 . S
O294 Mn289 2.121 . S
O294 C302 1.258 . S
C295 N296 1.326 . S
C295 C299 1.460 . S
C295 H301 0.929 . S
N296 Mn289 2.257 . S
N296 C295 1.326 . S
N296 C300 1.362 . S
C297 C298 1.258 . S
C297 C300 1.431 . S
C297 C317 1.449 . S
C298 C297 1.258 . S
C298 C299 1.477 . S
C298 H318 0.931 . S
C299 C295 1.460 . S
C299 C298 1.477 . S
C299 H319 0.930 . S
C300 N296 1.362 . S
C300 C297 1.431 . S
C300 C310 1.476 . S
H301 C295 0.929 . S
C302 O293 1.250 . S
C302 O294 1.258 . S
O303 Mn288 2.162 . S
O303 C291 1.281 . S
O304 Mn288 2.297 . S
O304 C291 1.236 . S
N305 Mn289 2.282 . S
N305 C306 1.328 . S
N305 C310 1.318 . S
C306 N305 1.328 . S
C306 C307 1.457 . S
C306 H311 0.929 . S
C307 C306 1.457 . S
C307 C308 1.291 . S
C307 H320 0.931 . S
C308 C307 1.291 . S
C308 C309 1.373 . S
C308 H321 0.929 . S
C309 C308 1.373 . S
C309 C310 1.396 . S
C309 C316 1.403 . S
C310 C300 1.476 . S
C310 N305 1.318 . S
C310 C309 1.396 . S
H311 C306 0.929 . S
O312 Mn288 2.385 . S
O312 C290 1.234 . S
O313 Mn288 2.209 . S
O313 Mn289 2.215 . S
O313 C290 1.283 . S
O314 Mn288 2.094 . S
O314 C292 1.240 . S
O315 Mn289 2.117 . S
O315 C292 1.264 . S
C316 C309 1.403 . S
C316 C317 1.399 . S
C316 H322 0.929 . S
C317 C297 1.449 . S
C317 C316 1.399 . S
C317 H323 0.930 . S
H318 C298 0.931 . S
H319 C299 0.930 . S
H320 C307 0.931 . S
H321 C308 0.929 . S
H322 C316 0.929 . S
H323 C317 0.930 . S
Mn324 O329 2.095 . S
Mn324 O339 2.162 . S
Mn324 O340 2.297 . S
Mn324 O348 2.385 . S
Mn324 O349 2.209 . S
Mn324 O350 2.094 . S
Mn325 O330 2.121 . S
Mn325 N332 2.257 . S
Mn325 N341 2.282 . S
Mn325 O349 2.215 . S
Mn325 O351 2.117 . S
C326 O348 1.234 . S
C326 O349 1.283 . S
C327 O339 1.281 . S
C327 O340 1.236 . S
C328 O350 1.240 . S
C328 O351 1.264 . S
O329 Mn324 2.095 . S
O329 C338 1.250 . S
O330 Mn325 2.121 . S
O330 C338 1.258 . S
C331 N332 1.326 . S
C331 C335 1.460 . S
C331 H337 0.929 . S
N332 Mn325 2.257 . S
N332 C331 1.326 . S
N332 C336 1.362 . S
C333 C334 1.258 . S
C333 C336 1.431 . S
C333 C353 1.449 . S
C334 C333 1.258 . S
C334 C335 1.477 . S
C334 H354 0.931 . S
C335 C331 1.460 . S
C335 C334 1.477 . S
C335 H355 0.930 . S
C336 N332 1.362 . S
C336 C333 1.431 . S
C336 C346 1.476 . S
H337 C331 0.929 . S
C338 O329 1.250 . S
C338 O330 1.258 . S
O339 Mn324 2.162 . S
O339 C327 1.281 . S
O340 Mn324 2.297 . S
O340 C327 1.236 . S
N341 Mn325 2.282 . S
N341 C342 1.328 . S
N341 C346 1.318 . S
C342 N341 1.328 . S
C342 C343 1.457 . S
C342 H347 0.929 . S
C343 C342 1.457 . S
C343 C344 1.291 . S
C343 H356 0.931 . S
C344 C343 1.291 . S
C344 C345 1.373 . S
C344 H357 0.929 . S
C345 C344 1.373 . S
C345 C346 1.396 . S
C345 C352 1.403 . S
C346 C336 1.476 . S
C346 N341 1.318 . S
C346 C345 1.396 . S
H347 C342 0.929 . S
O348 Mn324 2.385 . S
O348 C326 1.234 . S
O349 Mn324 2.209 . S
O349 Mn325 2.215 . S
O349 C326 1.283 . S
O350 Mn324 2.094 . S
O350 C328 1.240 . S
O351 Mn325 2.117 . S
O351 C328 1.264 . S
C352 C345 1.403 . S
C352 C353 1.399 . S
C352 H358 0.929 . S
C353 C333 1.449 . S
C353 C352 1.399 . S
C353 H359 0.930 . S
H354 C334 0.931 . S
H355 C335 0.930 . S
H356 C343 0.931 . S
H357 C344 0.929 . S
H358 C352 0.929 . S
H359 C353 0.930 . S
Mn360 O365 2.095 . S
Mn360 O375 2.162 . S
Mn360 O376 2.297 . S
Mn360 O384 2.385 . S
Mn360 O385 2.209 . S
Mn360 O386 2.094 . S
Mn361 O366 2.121 . S
Mn361 N368 2.257 . S
Mn361 N377 2.282 . S
Mn361 O385 2.215 . S
Mn361 O387 2.117 . S
C362 O384 1.234 . S
C362 O385 1.283 . S
C363 O375 1.281 . S
C363 O376 1.236 . S
C364 O386 1.240 . S
C364 O387 1.264 . S
O365 Mn360 2.095 . S
O365 C374 1.250 . S
O366 Mn361 2.121 . S
O366 C374 1.258 . S
C367 N368 1.326 . S
C367 C371 1.460 . S
C367 H373 0.929 . S
N368 Mn361 2.257 . S
N368 C367 1.326 . S
N368 C372 1.362 . S
C369 C370 1.258 . S
C369 C372 1.431 . S
C369 C389 1.449 . S
C370 C369 1.258 . S
C370 C371 1.477 . S
C370 H390 0.931 . S
C371 C367 1.460 . S
C371 C370 1.477 . S
C371 H391 0.930 . S
C372 N368 1.362 . S
C372 C369 1.431 . S
C372 C382 1.476 . S
H373 C367 0.929 . S
C374 O365 1.250 . S
C374 O366 1.258 . S
O375 Mn360 2.162 . S
O375 C363 1.281 . S
O376 Mn360 2.297 . S
O376 C363 1.236 . S
N377 Mn361 2.282 . S
N377 C378 1.328 . S
N377 C382 1.318 . S
C378 N377 1.328 . S
C378 C379 1.457 . S
C378 H383 0.929 . S
C379 C378 1.457 . S
C379 C380 1.291 . S
C379 H392 0.931 . S
C380 C379 1.291 . S
C380 C381 1.373 . S
C380 H393 0.929 . S
C381 C380 1.373 . S
C381 C382 1.396 . S
C381 C388 1.403 . S
C382 C372 1.476 . S
C382 N377 1.318 . S
C382 C381 1.396 . S
H383 C378 0.929 . S
O384 Mn360 2.385 . S
O384 C362 1.234 . S
O385 Mn360 2.209 . S
O385 Mn361 2.215 . S
O385 C362 1.283 . S
O386 Mn360 2.094 . S
O386 C364 1.240 . S
O387 Mn361 2.117 . S
O387 C364 1.264 . S
C388 C381 1.403 . S
C388 C389 1.399 . S
C388 H394 0.929 . S
C389 C369 1.449 . S
C389 C388 1.399 . S
C389 H395 0.930 . S
H390 C370 0.931 . S
H391 C371 0.930 . S
H392 C379 0.931 . S
H393 C380 0.929 . S
H394 C388 0.929 . S
H395 C389 0.930 . S
Mn396 O401 2.095 . S
Mn396 O411 2.162 . S
Mn396 O412 2.297 . S
Mn396 O420 2.385 . S
Mn396 O421 2.209 . S
Mn396 O422 2.094 . S
Mn397 O402 2.121 . S
Mn397 N404 2.257 . S
Mn397 N413 2.282 . S
Mn397 O421 2.215 . S
Mn397 O423 2.117 . S
C398 O420 1.234 . S
C398 O421 1.283 . S
C399 O411 1.281 . S
C399 O412 1.236 . S
C400 O422 1.240 . S
C400 O423 1.264 . S
O401 Mn396 2.095 . S
O401 C410 1.250 . S
O402 Mn397 2.121 . S
O402 C410 1.258 . S
C403 N404 1.326 . S
C403 C407 1.460 . S
C403 H409 0.929 . S
N404 Mn397 2.257 . S
N404 C403 1.326 . S
N404 C408 1.362 . S
C405 C406 1.258 . S
C405 C408 1.431 . S
C405 C425 1.449 . S
C406 C405 1.258 . S
C406 C407 1.477 . S
C406 H426 0.931 . S
C407 C403 1.460 . S
C407 C406 1.477 . S
C407 H427 0.930 . S
C408 N404 1.362 . S
C408 C405 1.431 . S
C408 C418 1.476 . S
H409 C403 0.929 . S
C410 O401 1.250 . S
C410 O402 1.258 . S
O411 Mn396 2.162 . S
O411 C399 1.281 . S
O412 Mn396 2.297 . S
O412 C399 1.236 . S
N413 Mn397 2.282 . S
N413 C414 1.328 . S
N413 C418 1.318 . S
C414 N413 1.328 . S
C414 C415 1.457 . S
C414 H419 0.929 . S
C415 C414 1.457 . S
C415 C416 1.291 . S
C415 H428 0.931 . S
C416 C415 1.291 . S
C416 C417 1.373 . S
C416 H429 0.929 . S
C417 C416 1.373 . S
C417 C418 1.396 . S
C417 C424 1.403 . S
C418 C408 1.476 . S
C418 N413 1.318 . S
C418 C417 1.396 . S
H419 C414 0.929 . S
O420 Mn396 2.385 . S
O420 C398 1.234 . S
O421 Mn396 2.209 . S
O421 Mn397 2.215 . S
O421 C398 1.283 . S
O422 Mn396 2.094 . S
O422 C400 1.240 . S
O423 Mn397 2.117 . S
O423 C400 1.264 . S
C424 C417 1.403 . S
C424 C425 1.399 . S
C424 H430 0.929 . S
C425 C405 1.449 . S
C425 C424 1.399 . S
C425 H431 0.930 . S
H426 C406 0.931 . S
H427 C407 0.930 . S
H428 C415 0.931 . S
H429 C416 0.929 . S
H430 C424 0.929 . S
H431 C425 0.930 . S
Mn432 O437 2.095 . S
Mn432 O447 2.162 . S
Mn432 O448 2.297 . S
Mn432 O456 2.385 . S
Mn432 O457 2.209 . S
Mn432 O458 2.094 . S
Mn433 O438 2.121 . S
Mn433 N440 2.257 . S
Mn433 N449 2.282 . S
Mn433 O457 2.215 . S
Mn433 O459 2.117 . S
C434 O456 1.234 . S
C434 O457 1.283 . S
C435 O447 1.281 . S
C435 O448 1.236 . S
C436 O458 1.240 . S
C436 O459 1.264 . S
O437 Mn432 2.095 . S
O437 C446 1.250 . S
O438 Mn433 2.121 . S
O438 C446 1.258 . S
C439 N440 1.326 . S
C439 C443 1.460 . S
C439 H445 0.929 . S
N440 Mn433 2.257 . S
N440 C439 1.326 . S
N440 C444 1.362 . S
C441 C442 1.258 . S
C441 C444 1.431 . S
C441 C461 1.449 . S
C442 C441 1.258 . S
C442 C443 1.477 . S
C442 H462 0.931 . S
C443 C439 1.460 . S
C443 C442 1.477 . S
C443 H463 0.930 . S
C444 N440 1.362 . S
C444 C441 1.431 . S
C444 C454 1.476 . S
H445 C439 0.929 . S
C446 O437 1.250 . S
C446 O438 1.258 . S
O447 Mn432 2.162 . S
O447 C435 1.281 . S
O448 Mn432 2.297 . S
O448 C435 1.236 . S
N449 Mn433 2.282 . S
N449 C450 1.328 . S
N449 C454 1.318 . S
C450 N449 1.328 . S
C450 C451 1.457 . S
C450 H455 0.929 . S
C451 C450 1.457 . S
C451 C452 1.291 . S
C451 H464 0.931 . S
C452 C451 1.291 . S
C452 C453 1.373 . S
C452 H465 0.929 . S
C453 C452 1.373 . S
C453 C454 1.396 . S
C453 C460 1.403 . S
C454 C444 1.476 . S
C454 N449 1.318 . S
C454 C453 1.396 . S
H455 C450 0.929 . S
O456 Mn432 2.385 . S
O456 C434 1.234 . S
O457 Mn432 2.209 . S
O457 Mn433 2.215 . S
O457 C434 1.283 . S
O458 Mn432 2.094 . S
O458 C436 1.240 . S
O459 Mn433 2.117 . S
O459 C436 1.264 . S
C460 C453 1.403 . S
C460 C461 1.399 . S
C460 H466 0.929 . S
C461 C441 1.449 . S
C461 C460 1.399 . S
C461 H467 0.930 . S
H462 C442 0.931 . S
H463 C443 0.930 . S
H464 C451 0.931 . S
H465 C452 0.929 . S
H466 C460 0.929 . S
H467 C461 0.930 . S
Mn468 O473 2.095 . S
Mn468 O483 2.162 . S
Mn468 O484 2.297 . S
Mn468 O492 2.385 . S
Mn468 O493 2.209 . S
Mn468 O494 2.094 . S
Mn469 O474 2.121 . S
Mn469 N476 2.257 . S
Mn469 N485 2.282 . S
Mn469 O493 2.215 . S
Mn469 O495 2.117 . S
C470 O492 1.234 . S
C470 O493 1.283 . S
C471 O483 1.281 . S
C471 O484 1.236 . S
C472 O494 1.240 . S
C472 O495 1.264 . S
O473 Mn468 2.095 . S
O473 C482 1.250 . S
O474 Mn469 2.121 . S
O474 C482 1.258 . S
C475 N476 1.326 . S
C475 C479 1.460 . S
C475 H481 0.929 . S
N476 Mn469 2.257 . S
N476 C475 1.326 . S
N476 C480 1.362 . S
C477 C478 1.258 . S
C477 C480 1.431 . S
C477 C497 1.449 . S
C478 C477 1.258 . S
C478 C479 1.477 . S
C478 H498 0.931 . S
C479 C475 1.460 . S
C479 C478 1.477 . S
C479 H499 0.930 . S
C480 N476 1.362 . S
C480 C477 1.431 . S
C480 C490 1.476 . S
H481 C475 0.929 . S
C482 O473 1.250 . S
C482 O474 1.258 . S
O483 Mn468 2.162 . S
O483 C471 1.281 . S
O484 Mn468 2.297 . S
O484 C471 1.236 . S
N485 Mn469 2.282 . S
N485 C486 1.328 . S
N485 C490 1.318 . S
C486 N485 1.328 . S
C486 C487 1.457 . S
C486 H491 0.929 . S
C487 C486 1.457 . S
C487 C488 1.291 . S
C487 H500 0.931 . S
C488 C487 1.291 . S
C488 C489 1.373 . S
C488 H501 0.929 . S
C489 C488 1.373 . S
C489 C490 1.396 . S
C489 C496 1.403 . S
C490 C480 1.476 . S
C490 N485 1.318 . S
C490 C489 1.396 . S
H491 C486 0.929 . S
O492 Mn468 2.385 . S
O492 C470 1.234 . S
O493 Mn468 2.209 . S
O493 Mn469 2.215 . S
O493 C470 1.283 . S
O494 Mn468 2.094 . S
O494 C472 1.240 . S
O495 Mn469 2.117 . S
O495 C472 1.264 . S
C496 C489 1.403 . S
C496 C497 1.399 . S
C496 H502 0.929 . S
C497 C477 1.449 . S
C497 C496 1.399 . S
C497 H503 0.930 . S
H498 C478 0.931 . S
H499 C479 0.930 . S
H500 C487 0.931 . S
H501 C488 0.929 . S
H502 C496 0.929 . S
H503 C497 0.930 . S
H504 C512 0.950 . S
H505 C517 0.950 . S
H506 C514 0.950 . S
H507 C516 0.950 . S
H508 C518 0.950 . S
H509 C520 0.950 . S
H510 C522 0.950 . S
H511 C523 0.950 . S
C512 H504 0.950 . S
C512 C513 1.386 . S
C512 C514 1.391 . S
C513 C512 1.386 . S
C513 C517 1.393 . S
C514 H506 0.950 . S
C514 C512 1.391 . S
C514 C515 1.400 . S
C515 C514 1.400 . S
C515 C516 1.398 . S
C515 C521 1.491 . S
C516 H507 0.950 . S
C516 C515 1.398 . S
C516 C517 1.391 . S
C517 H505 0.950 . S
C517 C513 1.393 . S
C517 C516 1.391 . S
C518 H508 0.950 . S
C518 C519 1.386 . S
C518 C520 1.391 . S
C519 C518 1.386 . S
C519 C523 1.393 . S
C520 H509 0.950 . S
C520 C518 1.391 . S
C520 C521 1.400 . S
C521 C515 1.491 . S
C521 C520 1.400 . S
C521 C522 1.398 . S
C522 H510 0.950 . S
C522 C521 1.398 . S
C522 C523 1.391 . S
C523 H511 0.950 . S
C523 C519 1.393 . S
C523 C522 1.391 . S
H524 C532 0.950 . S
H525 C537 0.950 . S
H526 C534 0.950 . S
H527 C536 0.950 . S
H528 C538 0.950 . S
H529 C540 0.950 . S
H530 C542 0.950 . S
H531 C543 0.950 . S
C532 H524 0.950 . S
C532 C533 1.386 . S
C532 C534 1.391 . S
C533 C532 1.386 . S
C533 C537 1.393 . S
C534 H526 0.950 . S
C534 C532 1.391 . S
C534 C535 1.400 . S
C535 C534 1.400 . S
C535 C536 1.398 . S
C535 C541 1.491 . S
C536 H527 0.950 . S
C536 C535 1.398 . S
C536 C537 1.391 . S
C537 H525 0.950 . S
C537 C533 1.393 . S
C537 C536 1.391 . S
C538 H528 0.950 . S
C538 C539 1.386 . S
C538 C540 1.391 . S
C539 C538 1.386 . S
C539 C543 1.393 . S
C540 H529 0.950 . S
C540 C538 1.391 . S
C540 C541 1.400 . S
C541 C535 1.491 . S
C541 C540 1.400 . S
C541 C542 1.398 . S
C542 H530 0.950 . S
C542 C541 1.398 . S
C542 C543 1.391 . S
C543 H531 0.950 . S
C543 C539 1.393 . S
C543 C542 1.391 . S
H544 C552 0.950 . S
H545 C557 0.950 . S
H546 C554 0.950 . S
H547 C556 0.950 . S
H548 C558 0.950 . S
H549 C560 0.950 . S
H550 C562 0.950 . S
H551 C563 0.950 . S
C552 H544 0.950 . S
C552 C553 1.386 . S
C552 C554 1.391 . S
C553 C552 1.386 . S
C553 C557 1.393 . S
C554 H546 0.950 . S
C554 C552 1.391 . S
C554 C555 1.400 . S
C555 C554 1.400 . S
C555 C556 1.398 . S
C555 C561 1.491 . S
C556 H547 0.950 . S
C556 C555 1.398 . S
C556 C557 1.391 . S
C557 H545 0.950 . S
C557 C553 1.393 . S
C557 C556 1.391 . S
C558 H548 0.950 . S
C558 C559 1.386 . S
C558 C560 1.391 . S
C559 C558 1.386 . S
C559 C563 1.393 . S
C560 H549 0.950 . S
C560 C558 1.391 . S
C560 C561 1.400 . S
C561 C555 1.491 . S
C561 C560 1.400 . S
C561 C562 1.398 . S
C562 H550 0.950 . S
C562 C561 1.398 . S
C562 C563 1.391 . S
C563 H551 0.950 . S
C563 C559 1.393 . S
C563 C562 1.391 . S
H564 C572 0.950 . S
H565 C577 0.950 . S
H566 C574 0.950 . S
H567 C576 0.950 . S
H568 C578 0.950 . S
H569 C580 0.950 . S
H570 C582 0.950 . S
H571 C583 0.950 . S
C572 H564 0.950 . S
C572 C573 1.386 . S
C572 C574 1.391 . S
C573 C572 1.386 . S
C573 C577 1.393 . S
C574 H566 0.950 . S
C574 C572 1.391 . S
C574 C575 1.400 . S
C575 C574 1.400 . S
C575 C576 1.398 . S
C575 C581 1.491 . S
C576 H567 0.950 . S
C576 C575 1.398 . S
C576 C577 1.391 . S
C577 H565 0.950 . S
C577 C573 1.393 . S
C577 C576 1.391 . S
C578 H568 0.950 . S
C578 C579 1.386 . S
C578 C580 1.391 . S
C579 C578 1.386 . S
C579 C583 1.393 . S
C580 H569 0.950 . S
C580 C578 1.391 . S
C580 C581 1.400 . S
C581 C575 1.491 . S
C581 C580 1.400 . S
C581 C582 1.398 . S
C582 H570 0.950 . S
C582 C581 1.398 . S
C582 C583 1.391 . S
C583 H571 0.950 . S
C583 C579 1.393 . S
C583 C582 1.391 . S
H584 C592 0.950 . S
H585 C597 0.950 . S
H586 C594 0.950 . S
H587 C596 0.950 . S
H588 C598 0.950 . S
H589 C600 0.950 . S
H590 C602 0.950 . S
H591 C603 0.950 . S
C592 H584 0.950 . S
C592 C593 1.386 . S
C592 C594 1.391 . S
C593 C592 1.386 . S
C593 C597 1.393 . S
C594 H586 0.950 . S
C594 C592 1.391 . S
C594 C595 1.400 . S
C595 C594 1.400 . S
C595 C596 1.398 . S
C595 C601 1.491 . S
C596 H587 0.950 . S
C596 C595 1.398 . S
C596 C597 1.391 . S
C597 H585 0.950 . S
C597 C593 1.393 . S
C597 C596 1.391 . S
C598 H588 0.950 . S
C598 C599 1.386 . S
C598 C600 1.391 . S
C599 C598 1.386 . S
C599 C603 1.393 . S
C600 H589 0.950 . S
C600 C598 1.391 . S
C600 C601 1.400 . S
C601 C595 1.491 . S
C601 C600 1.400 . S
C601 C602 1.398 . S
C602 H590 0.950 . S
C602 C601 1.398 . S
C602 C603 1.391 . S
C603 H591 0.950 . S
C603 C599 1.393 . S
C603 C602 1.391 . S
H604 C612 0.950 . S
H605 C617 0.950 . S
H606 C614 0.950 . S
H607 C616 0.950 . S
H608 C618 0.950 . S
H609 C620 0.950 . S
H610 C622 0.950 . S
H611 C623 0.950 . S
C612 H604 0.950 . S
C612 C613 1.386 . S
C612 C614 1.391 . S
C613 C612 1.386 . S
C613 C617 1.393 . S
C614 H606 0.950 . S
C614 C612 1.391 . S
C614 C615 1.400 . S
C615 C614 1.400 . S
C615 C616 1.398 . S
C615 C621 1.491 . S
C616 H607 0.950 . S
C616 C615 1.398 . S
C616 C617 1.391 . S
C617 H605 0.950 . S
C617 C613 1.393 . S
C617 C616 1.391 . S
C618 H608 0.950 . S
C618 C619 1.386 . S
C618 C620 1.391 . S
C619 C618 1.386 . S
C619 C623 1.393 . S
C620 H609 0.950 . S
C620 C618 1.391 . S
C620 C621 1.400 . S
C621 C615 1.491 . S
C621 C620 1.400 . S
C621 C622 1.398 . S
C622 H610 0.950 . S
C622 C621 1.398 . S
C622 C623 1.391 . S
C623 H611 0.950 . S
C623 C619 1.393 . S
C623 C622 1.391 . S
H624 C632 0.950 . S
H625 C637 0.950 . S
H626 C634 0.950 . S
H627 C636 0.950 . S
H628 C638 0.950 . S
H629 C640 0.950 . S
H630 C642 0.950 . S
H631 C643 0.950 . S
C632 H624 0.950 . S
C632 C633 1.386 . S
C632 C634 1.391 . S
C633 C632 1.386 . S
C633 C637 1.393 . S
C634 H626 0.950 . S
C634 C632 1.391 . S
C634 C635 1.400 . S
C635 C634 1.400 . S
C635 C636 1.398 . S
C635 C641 1.491 . S
C636 H627 0.950 . S
C636 C635 1.398 . S
C636 C637 1.391 . S
C637 H625 0.950 . S
C637 C633 1.393 . S
C637 C636 1.391 . S
C638 H628 0.950 . S
C638 C639 1.386 . S
C638 C640 1.391 . S
C639 C638 1.386 . S
C639 C643 1.393 . S
C640 H629 0.950 . S
C640 C638 1.391 . S
C640 C641 1.400 . S
C641 C635 1.491 . S
C641 C640 1.400 . S
C641 C642 1.398 . S
C642 H630 0.950 . S
C642 C641 1.398 . S
C642 C643 1.391 . S
C643 H631 0.950 . S
C643 C639 1.393 . S
C643 C642 1.391 . S
H644 C652 0.950 . S
H645 C657 0.950 . S
H646 C654 0.950 . S
H647 C656 0.950 . S
H648 C658 0.950 . S
H649 C660 0.950 . S
H650 C662 0.950 . S
H651 C663 0.950 . S
C652 H644 0.950 . S
C652 C653 1.386 . S
C652 C654 1.391 . S
C653 C652 1.386 . S
C653 C657 1.393 . S
C654 H646 0.950 . S
C654 C652 1.391 . S
C654 C655 1.400 . S
C655 C654 1.400 . S
C655 C656 1.398 . S
C655 C661 1.491 . S
C656 H647 0.950 . S
C656 C655 1.398 . S
C656 C657 1.391 . S
C657 H645 0.950 . S
C657 C653 1.393 . S
C657 C656 1.391 . S
C658 H648 0.950 . S
C658 C659 1.386 . S
C658 C660 1.391 . S
C659 C658 1.386 . S
C659 C663 1.393 . S
C660 H649 0.950 . S
C660 C658 1.391 . S
C660 C661 1.400 . S
C661 C655 1.491 . S
C661 C660 1.400 . S
C661 C662 1.398 . S
C662 H650 0.950 . S
C662 C661 1.398 . S
C662 C663 1.391 . S
C663 H651 0.950 . S
C663 C659 1.393 . S
C663 C662 1.391 . S
H664 C672 0.950 . S
H665 C677 0.950 . S
H666 C674 0.950 . S
H667 C676 0.950 . S
H668 C678 0.950 . S
H669 C680 0.950 . S
H670 C682 0.950 . S
H671 C683 0.950 . S
C672 H664 0.950 . S
C672 C673 1.386 . S
C672 C674 1.391 . S
C673 C672 1.386 . S
C673 C677 1.393 . S
C674 H666 0.950 . S
C674 C672 1.391 . S
C674 C675 1.400 . S
C675 C674 1.400 . S
C675 C676 1.398 . S
C675 C681 1.491 . S
C676 H667 0.950 . S
C676 C675 1.398 . S
C676 C677 1.391 . S
C677 H665 0.950 . S
C677 C673 1.393 . S
C677 C676 1.391 . S
C678 H668 0.950 . S
C678 C679 1.386 . S
C678 C680 1.391 . S
C679 C678 1.386 . S
C679 C683 1.393 . S
C680 H669 0.950 . S
C680 C678 1.391 . S
C680 C681 1.400 . S
C681 C675 1.491 . S
C681 C680 1.400 . S
C681 C682 1.398 . S
C682 H670 0.950 . S
C682 C681 1.398 . S
C682 C683 1.391 . S
C683 H671 0.950 . S
C683 C679 1.393 . S
C683 C682 1.391 . S
H684 C692 0.950 . S
H685 C697 0.950 . S
H686 C694 0.950 . S
H687 C696 0.950 . S
H688 C698 0.950 . S
H689 C700 0.950 . S
H690 C702 0.950 . S
H691 C703 0.950 . S
C692 H684 0.950 . S
C692 C693 1.386 . S
C692 C694 1.391 . S
C693 C692 1.386 . S
C693 C697 1.393 . S
C694 H686 0.950 . S
C694 C692 1.391 . S
C694 C695 1.400 . S
C695 C694 1.400 . S
C695 C696 1.398 . S
C695 C701 1.491 . S
C696 H687 0.950 . S
C696 C695 1.398 . S
C696 C697 1.391 . S
C697 H685 0.950 . S
C697 C693 1.393 . S
C697 C696 1.391 . S
C698 H688 0.950 . S
C698 C699 1.386 . S
C698 C700 1.391 . S
C699 C698 1.386 . S
C699 C703 1.393 . S
C700 H689 0.950 . S
C700 C698 1.391 . S
C700 C701 1.400 . S
C701 C695 1.491 . S
C701 C700 1.400 . S
C701 C702 1.398 . S
C702 H690 0.950 . S
C702 C701 1.398 . S
C702 C703 1.391 . S
C703 H691 0.950 . S
C703 C699 1.393 . S
C703 C702 1.391 . S
H704 C712 0.950 . S
H705 C717 0.950 . S
H706 C714 0.950 . S
H707 C716 0.950 . S
H708 C718 0.950 . S
H709 C720 0.950 . S
H710 C722 0.950 . S
H711 C723 0.950 . S
C712 H704 0.950 . S
C712 C713 1.386 . S
C712 C714 1.391 . S
C713 C712 1.386 . S
C713 C717 1.393 . S
C714 H706 0.950 . S
C714 C712 1.391 . S
C714 C715 1.400 . S
C715 C714 1.400 . S
C715 C716 1.398 . S
C715 C721 1.491 . S
C716 H707 0.950 . S
C716 C715 1.398 . S
C716 C717 1.391 . S
C717 H705 0.950 . S
C717 C713 1.393 . S
C717 C716 1.391 . S
C718 H708 0.950 . S
C718 C719 1.386 . S
C718 C720 1.391 . S
C719 C718 1.386 . S
C719 C723 1.393 . S
C720 H709 0.950 . S
C720 C718 1.391 . S
C720 C721 1.400 . S
C721 C715 1.491 . S
C721 C720 1.400 . S
C721 C722 1.398 . S
C722 H710 0.950 . S
C722 C721 1.398 . S
C722 C723 1.391 . S
C723 H711 0.950 . S
C723 C719 1.393 . S
C723 C722 1.391 . S
H724 C732 0.950 . S
H725 C737 0.950 . S
H726 C734 0.950 . S
H727 C736 0.950 . S
H728 C738 0.950 . S
H729 C740 0.950 . S
H730 C742 0.950 . S
H731 C743 0.950 . S
C732 H724 0.950 . S
C732 C733 1.386 . S
C732 C734 1.391 . S
C733 C732 1.386 . S
C733 C737 1.393 . S
C734 H726 0.950 . S
C734 C732 1.391 . S
C734 C735 1.400 . S
C735 C734 1.400 . S
C735 C736 1.398 . S
C735 C741 1.491 . S
C736 H727 0.950 . S
C736 C735 1.398 . S
C736 C737 1.391 . S
C737 H725 0.950 . S
C737 C733 1.393 . S
C737 C736 1.391 . S
C738 H728 0.950 . S
C738 C739 1.386 . S
C738 C740 1.391 . S
C739 C738 1.386 . S
C739 C743 1.393 . S
C740 H729 0.950 . S
C740 C738 1.391 . S
C740 C741 1.400 . S
C741 C735 1.491 . S
C741 C740 1.400 . S
C741 C742 1.398 . S
C742 H730 0.950 . S
C742 C741 1.398 . S
C742 C743 1.391 . S
C743 H731 0.950 . S
C743 C739 1.393 . S
C743 C742 1.391 . S
H744 C752 0.950 . S
H745 C757 0.950 . S
H746 C754 0.950 . S
H747 C756 0.950 . S
H748 C758 0.950 . S
H749 C760 0.950 . S
H750 C762 0.950 . S
H751 C763 0.950 . S
C752 H744 0.950 . S
C752 C753 1.386 . S
C752 C754 1.391 . S
C753 C752 1.386 . S
C753 C757 1.393 . S
C754 H746 0.950 . S
C754 C752 1.391 . S
C754 C755 1.400 . S
C755 C754 1.400 . S
C755 C756 1.398 . S
C755 C761 1.491 . S
C756 H747 0.950 . S
C756 C755 1.398 . S
C756 C757 1.391 . S
C757 H745 0.950 . S
C757 C753 1.393 . S
C757 C756 1.391 . S
C758 H748 0.950 . S
C758 C759 1.386 . S
C758 C760 1.391 . S
C759 C758 1.386 . S
C759 C763 1.393 . S
C760 H749 0.950 . S
C760 C758 1.391 . S
C760 C761 1.400 . S
C761 C755 1.491 . S
C761 C760 1.400 . S
C761 C762 1.398 . S
C762 H750 0.950 . S
C762 C761 1.398 . S
C762 C763 1.391 . S
C763 H751 0.950 . S
C763 C759 1.393 . S
C763 C762 1.391 . S
H764 C772 0.950 . S
H765 C777 0.950 . S
H766 C774 0.950 . S
H767 C776 0.950 . S
H768 C778 0.950 . S
H769 C780 0.950 . S
H770 C782 0.950 . S
H771 C783 0.950 . S
C772 H764 0.950 . S
C772 C773 1.386 . S
C772 C774 1.391 . S
C773 C772 1.386 . S
C773 C777 1.393 . S
C774 H766 0.950 . S
C774 C772 1.391 . S
C774 C775 1.400 . S
C775 C774 1.400 . S
C775 C776 1.398 . S
C775 C781 1.491 . S
C776 H767 0.950 . S
C776 C775 1.398 . S
C776 C777 1.391 . S
C777 H765 0.950 . S
C777 C773 1.393 . S
C777 C776 1.391 . S
C778 H768 0.950 . S
C778 C779 1.386 . S
C778 C780 1.391 . S
C779 C778 1.386 . S
C779 C783 1.393 . S
C780 H769 0.950 . S
C780 C778 1.391 . S
C780 C781 1.400 . S
C781 C775 1.491 . S
C781 C780 1.400 . S
C781 C782 1.398 . S
C782 H770 0.950 . S
C782 C781 1.398 . S
C782 C783 1.391 . S
C783 H771 0.950 . S
C783 C779 1.393 . S
C783 C782 1.391 . S
H784 C792 0.950 . S
H785 C797 0.950 . S
H786 C794 0.950 . S
H787 C796 0.950 . S
H788 C798 0.950 . S
H789 C800 0.950 . S
H790 C802 0.950 . S
H791 C803 0.950 . S
C792 H784 0.950 . S
C792 C793 1.386 . S
C792 C794 1.391 . S
C793 C792 1.386 . S
C793 C797 1.393 . S
C794 H786 0.950 . S
C794 C792 1.391 . S
C794 C795 1.400 . S
C795 C794 1.400 . S
C795 C796 1.398 . S
C795 C801 1.491 . S
C796 H787 0.950 . S
C796 C795 1.398 . S
C796 C797 1.391 . S
C797 H785 0.950 . S
C797 C793 1.393 . S
C797 C796 1.391 . S
C798 H788 0.950 . S
C798 C799 1.386 . S
C798 C800 1.391 . S
C799 C798 1.386 . S
C799 C803 1.393 . S
C800 H789 0.950 . S
C800 C798 1.391 . S
C800 C801 1.400 . S
C801 C795 1.491 . S
C801 C800 1.400 . S
C801 C802 1.398 . S
C802 H790 0.950 . S
C802 C801 1.398 . S
C802 C803 1.391 . S
C803 H791 0.950 . S
C803 C799 1.393 . S
C803 C802 1.391 . S
H804 C812 0.950 . S
H805 C817 0.950 . S
H806 C814 0.950 . S
H807 C816 0.950 . S
H808 C818 0.950 . S
H809 C820 0.950 . S
H810 C822 0.950 . S
H811 C823 0.950 . S
C812 H804 0.950 . S
C812 C813 1.386 . S
C812 C814 1.391 . S
C813 C812 1.386 . S
C813 C817 1.393 . S
C814 H806 0.950 . S
C814 C812 1.391 . S
C814 C815 1.400 . S
C815 C814 1.400 . S
C815 C816 1.398 . S
C815 C821 1.491 . S
C816 H807 0.950 . S
C816 C815 1.398 . S
C816 C817 1.391 . S
C817 H805 0.950 . S
C817 C813 1.393 . S
C817 C816 1.391 . S
C818 H808 0.950 . S
C818 C819 1.386 . S
C818 C820 1.391 1_554 S
C819 C818 1.386 . S
C819 C823 1.393 . S
C820 H809 0.950 . S
C820 C818 1.391 1_556 S
C820 C821 1.400 . S
C821 C815 1.491 . S
C821 C820 1.400 . S
C821 C822 1.398 . S
C822 H810 0.950 . S
C822 C821 1.398 . S
C822 C823 1.391 1_556 S
C823 H811 0.950 . S
C823 C819 1.393 . S
C823 C822 1.391 1_554 S
H824 C832 0.950 . S
H825 C837 0.950 . S
H826 C834 0.950 . S
H827 C836 0.950 . S
H828 C838 0.950 . S
H829 C840 0.950 . S
H830 C842 0.950 . S
H831 C843 0.950 . S
C832 H824 0.950 . S
C832 C833 1.386 . S
C832 C834 1.391 . S
C833 C832 1.386 . S
C833 C837 1.393 . S
C834 H826 0.950 . S
C834 C832 1.391 . S
C834 C835 1.400 . S
C835 C834 1.400 . S
C835 C836 1.398 . S
C835 C841 1.491 . S
C836 H827 0.950 . S
C836 C835 1.398 . S
C836 C837 1.391 . S
C837 H825 0.950 . S
C837 C833 1.393 . S
C837 C836 1.391 . S
C838 H828 0.950 . S
C838 C839 1.386 . S
C838 C840 1.391 . S
C839 C838 1.386 . S
C839 C843 1.393 . S
C840 H829 0.950 . S
C840 C838 1.391 . S
C840 C841 1.400 . S
C841 C835 1.491 . S
C841 C840 1.400 . S
C841 C842 1.398 . S
C842 H830 0.950 . S
C842 C841 1.398 . S
C842 C843 1.391 . S
C843 H831 0.950 . S
C843 C839 1.393 . S
C843 C842 1.391 . S
H844 C852 0.950 . S
H845 C857 0.950 . S
H846 C854 0.950 . S
H847 C856 0.950 . S
H848 C858 0.950 . S
H849 C860 0.950 . S
H850 C862 0.950 . S
H851 C863 0.950 . S
C852 H844 0.950 . S
C852 C853 1.386 . S
C852 C854 1.391 . S
C853 C852 1.386 . S
C853 C857 1.393 . S
C854 H846 0.950 . S
C854 C852 1.391 . S
C854 C855 1.400 . S
C855 C854 1.400 . S
C855 C856 1.398 . S
C855 C861 1.491 . S
C856 H847 0.950 . S
C856 C855 1.398 . S
C856 C857 1.391 . S
C857 H845 0.950 . S
C857 C853 1.393 . S
C857 C856 1.391 . S
C858 H848 0.950 . S
C858 C859 1.386 . S
C858 C860 1.391 . S
C859 C858 1.386 . S
C859 C863 1.393 . S
C860 H849 0.950 . S
C860 C858 1.391 . S
C860 C861 1.400 . S
C861 C855 1.491 . S
C861 C860 1.400 . S
C861 C862 1.398 . S
C862 H850 0.950 . S
C862 C861 1.398 . S
C862 C863 1.391 . S
C863 H851 0.950 . S
C863 C859 1.393 . S
C863 C862 1.391 . S
H864 C872 0.950 . S
H865 C877 0.950 . S
H866 C874 0.950 . S
H867 C876 0.950 . S
H868 C878 0.950 . S
H869 C880 0.950 . S
H870 C882 0.950 . S
H871 C883 0.950 . S
C872 H864 0.950 . S
C872 C873 1.386 . S
C872 C874 1.391 . S
C873 C872 1.386 . S
C873 C877 1.393 . S
C874 H866 0.950 . S
C874 C872 1.391 . S
C874 C875 1.400 . S
C875 C874 1.400 . S
C875 C876 1.398 . S
C875 C881 1.491 . S
C876 H867 0.950 . S
C876 C875 1.398 . S
C876 C877 1.391 . S
C877 H865 0.950 . S
C877 C873 1.393 . S
C877 C876 1.391 . S
C878 H868 0.950 . S
C878 C879 1.386 . S
C878 C880 1.391 . S
C879 C878 1.386 . S
C879 C883 1.393 . S
C880 H869 0.950 . S
C880 C878 1.391 . S
C880 C881 1.400 . S
C881 C875 1.491 . S
C881 C880 1.400 . S
C881 C882 1.398 . S
C882 H870 0.950 . S
C882 C881 1.398 . S
C882 C883 1.391 . S
C883 H871 0.950 . S
C883 C879 1.393 . S
C883 C882 1.391 . S
H884 C892 0.950 . S
H885 C897 0.950 . S
H886 C894 0.950 . S
H887 C896 0.950 . S
H888 C898 0.950 . S
H889 C900 0.950 . S
H890 C902 0.950 . S
H891 C903 0.950 . S
C892 H884 0.950 . S
C892 C893 1.386 . S
C892 C894 1.391 . S
C893 C892 1.386 . S
C893 C897 1.393 . S
C894 H886 0.950 . S
C894 C892 1.391 . S
C894 C895 1.400 . S
C895 C894 1.400 . S
C895 C896 1.398 . S
C895 C901 1.491 . S
C896 H887 0.950 . S
C896 C895 1.398 . S
C896 C897 1.391 . S
C897 H885 0.950 . S
C897 C893 1.393 . S
C897 C896 1.391 . S
C898 H888 0.950 . S
C898 C899 1.386 . S
C898 C900 1.391 . S
C899 C898 1.386 . S
C899 C903 1.393 . S
C900 H889 0.950 . S
C900 C898 1.391 . S
C900 C901 1.400 . S
C901 C895 1.491 . S
C901 C900 1.400 . S
C901 C902 1.398 . S
C902 H890 0.950 . S
C902 C901 1.398 . S
C902 C903 1.391 . S
C903 H891 0.950 . S
C903 C899 1.393 . S
C903 C902 1.391 . S
H904 C912 0.950 . S
H905 C917 0.950 . S
H906 C914 0.950 . S
H907 C916 0.950 . S
H908 C918 0.950 . S
H909 C920 0.950 . S
H910 C922 0.950 . S
H911 C923 0.950 . S
C912 H904 0.950 . S
C912 C913 1.386 . S
C912 C914 1.391 . S
C913 C912 1.386 . S
C913 C917 1.393 . S
C914 H906 0.950 . S
C914 C912 1.391 . S
C914 C915 1.400 . S
C915 C914 1.400 . S
C915 C916 1.398 . S
C915 C921 1.491 . S
C916 H907 0.950 . S
C916 C915 1.398 . S
C916 C917 1.391 . S
C917 H905 0.950 . S
C917 C913 1.393 . S
C917 C916 1.391 . S
C918 H908 0.950 . S
C918 C919 1.386 . S
C918 C920 1.391 . S
C919 C918 1.386 . S
C919 C923 1.393 . S
C920 H909 0.950 . S
C920 C918 1.391 . S
C920 C921 1.400 . S
C921 C915 1.491 . S
C921 C920 1.400 . S
C921 C922 1.398 . S
C922 H910 0.950 . S
C922 C921 1.398 . S
C922 C923 1.391 . S
C923 H911 0.950 . S
C923 C919 1.393 . S
C923 C922 1.391 . S
H924 C932 0.950 . S
H925 C937 0.950 . S
H926 C934 0.950 . S
H927 C936 0.950 . S
H928 C938 0.950 . S
H929 C940 0.950 . S
H930 C942 0.950 . S
H931 C943 0.950 . S
C932 H924 0.950 . S
C932 C933 1.386 . S
C932 C934 1.391 . S
C933 C932 1.386 . S
C933 C937 1.393 . S
C934 H926 0.950 . S
C934 C932 1.391 . S
C934 C935 1.400 . S
C935 C934 1.400 . S
C935 C936 1.398 . S
C935 C941 1.491 . S
C936 H927 0.950 . S
C936 C935 1.398 . S
C936 C937 1.391 . S
C937 H925 0.950 . S
C937 C933 1.393 . S
C937 C936 1.391 . S
C938 H928 0.950 . S
C938 C939 1.386 . S
C938 C940 1.391 . S
C939 C938 1.386 . S
C939 C943 1.393 . S
C940 H929 0.950 . S
C940 C938 1.391 . S
C940 C941 1.400 . S
C941 C935 1.491 . S
C941 C940 1.400 . S
C941 C942 1.398 . S
C942 H930 0.950 . S
C942 C941 1.398 . S
C942 C943 1.391 . S
C943 H931 0.950 . S
C943 C939 1.393 . S
C943 C942 1.391 . S
H944 C952 0.950 . S
H945 C957 0.950 . S
H946 C954 0.950 . S
H947 C956 0.950 . S
H948 C958 0.950 . S
H949 C960 0.944 1_554 S
H950 C962 0.950 . S
H951 C963 0.950 . S
C952 H944 0.950 . S
C952 C953 1.386 . S
C952 C954 1.391 . S
C953 C952 1.386 . S
C953 C957 1.393 . S
C954 H946 0.950 . S
C954 C952 1.391 . S
C954 C955 1.400 . S
C955 C954 1.400 . S
C955 C956 1.398 . S
C955 C961 1.452 1_554 S
C956 H947 0.950 . S
C956 C955 1.398 . S
C956 C957 1.391 . S
C957 H945 0.950 . S
C957 C953 1.393 . S
C957 C956 1.391 . S
C958 H948 0.950 . S
C958 C959 1.386 . S
C958 C960 1.397 . S
C959 C958 1.386 . S
C959 C963 1.393 . S
C960 H949 0.944 1_556 S
C960 C958 1.397 . S
C960 C961 1.399 . S
C961 C955 1.452 1_556 S
C961 C960 1.399 . S
C961 C962 1.441 . S
C962 H950 0.950 . S
C962 C961 1.441 . S
C962 C963 1.391 . S
C963 H951 0.950 . S
C963 C959 1.393 . S
C963 C962 1.391 . S
H964 C972 0.950 . S
H965 C977 0.950 . S
H966 C974 0.950 . S
H967 C976 0.950 . S
H968 C978 0.950 . S
H969 C980 0.950 . S
H970 C982 0.950 . S
H971 C983 0.950 . S
C972 H964 0.950 . S
C972 C973 1.386 . S
C972 C974 1.391 . S
C973 C972 1.386 . S
C973 C977 1.393 . S
C974 H966 0.950 . S
C974 C972 1.391 . S
C974 C975 1.400 . S
C975 C974 1.400 . S
C975 C976 1.398 . S
C975 C981 1.491 . S
C976 H967 0.950 . S
C976 C975 1.398 . S
C976 C977 1.391 . S
C977 H965 0.950 . S
C977 C973 1.393 . S
C977 C976 1.391 . S
C978 H968 0.950 . S
C978 C979 1.386 . S
C978 C980 1.391 . S
C979 C978 1.386 . S
C979 C983 1.393 . S
C980 H969 0.950 . S
C980 C978 1.391 . S
C980 C981 1.400 . S
C981 C975 1.491 . S
C981 C980 1.400 . S
C981 C982 1.398 . S
C982 H970 0.950 . S
C982 C981 1.398 . S
C982 C983 1.391 . S
C983 H971 0.950 . S
C983 C979 1.393 . S
C983 C982 1.391 . S
C519 C471 1.606 . S
C513 C45 1.607 . S
C533 C84 1.644 . S
C539 C291 1.650 . S
C553 C126 1.590 . S
C559 C338 1.593 . S
C573 C189 1.560 . S
C579 C374 1.540 . S
C599 C399 1.589 . S
C593 C228 1.584 . S
C613 C270 1.558 . S
C619 C435 1.592 . S
C633 C69 1.608 . S
C639 C327 1.635 . S
C653 C141 1.592 . S
C659 C363 1.589 . S
C673 C174 1.531 . S
C679 C410 1.517 . S
C699 C446 1.579 . S
C693 C213 1.571 . S
C719 C482 1.576 . S
C713 C285 1.609 . S
C739 C302 1.598 . S
C733 C30 1.581 . S
C753 C36 1.490 . S
C759 C326 1.472 . S
C773 C93 1.500 . S
C779 C362 1.494 . S
C799 C400 1.496 . S
C793 C117 1.500 . S
C813 C180 1.508 . S
C819 C436 1.500 . S
C839 C472 1.465 . S
C833 C237 1.475 . S
C859 C292 1.454 . S
C853 C261 1.460 . S
C879 C470 1.472 . S
C873 C78 1.476 . S
C893 C132 1.489 . S
C899 C290 1.478 . S
C919 C328 1.485 . S
C913 C165 1.487 . S
C933 C222 1.486 . S
C939 C364 1.487 . S
C953 C276 1.532 . S
C959 C398 1.516 . S
C973 C21 1.508 . S
C979 C434 1.495 . S
