# Generated by pormake.
# Topology ctn, (3,4)-cn, num edge types: 1
# Building blocks:
#     Node 0, Type 0, BuildingBlock: BETDIP_clean_linker_0, # of connection points: 3
#     Node 1, Type 0, BuildingBlock: BETDIP_clean_linker_0, # of connection points: 3
#     Node 2, Type 0, BuildingBlock: BETDIP_clean_linker_0, # of connection points: 3
#     Node 3, Type 0, BuildingBlock: BETDIP_clean_linker_0, # of connection points: 3
#     Node 4, Type 0, BuildingBlock: BETDIP_clean_linker_0, # of connection points: 3
#     Node 5, Type 0, BuildingBlock: BETDIP_clean_linker_0, # of connection points: 3
#     Node 6, Type 0, BuildingBlock: BETDIP_clean_linker_0, # of connection points: 3
#     Node 7, Type 0, BuildingBlock: BETDIP_clean_linker_0, # of connection points: 3
#     Node 8, Type 0, BuildingBlock: BETDIP_clean_linker_0, # of connection points: 3
#     Node 9, Type 0, BuildingBlock: BETDIP_clean_linker_0, # of connection points: 3
#     Node 10, Type 0, BuildingBlock: BETDIP_clean_linker_0, # of connection points: 3
#     Node 11, Type 0, BuildingBlock: BETDIP_clean_linker_0, # of connection points: 3
#     Node 12, Type 0, BuildingBlock: BETDIP_clean_linker_0, # of connection points: 3
#     Node 13, Type 0, BuildingBlock: BETDIP_clean_linker_0, # of connection points: 3
#     Node 14, Type 0, BuildingBlock: BETDIP_clean_linker_0, # of connection points: 3
#     Node 15, Type 0, BuildingBlock: BETDIP_clean_linker_0, # of connection points: 3
#     Node 16, Type 1, BuildingBlock: NAHDIM_clean_sbu_0, # of connection points: 4
#     Node 17, Type 1, BuildingBlock: NAHDIM_clean_sbu_0, # of connection points: 4
#     Node 18, Type 1, BuildingBlock: NAHDIM_clean_sbu_0, # of connection points: 4
#     Node 19, Type 1, BuildingBlock: NAHDIM_clean_sbu_0, # of connection points: 4
#     Node 20, Type 1, BuildingBlock: NAHDIM_clean_sbu_0, # of connection points: 4
#     Node 21, Type 1, BuildingBlock: NAHDIM_clean_sbu_0, # of connection points: 4
#     Node 22, Type 1, BuildingBlock: NAHDIM_clean_sbu_0, # of connection points: 4
#     Node 23, Type 1, BuildingBlock: NAHDIM_clean_sbu_0, # of connection points: 4
#     Node 24, Type 1, BuildingBlock: NAHDIM_clean_sbu_0, # of connection points: 4
#     Node 25, Type 1, BuildingBlock: NAHDIM_clean_sbu_0, # of connection points: 4
#     Node 26, Type 1, BuildingBlock: NAHDIM_clean_sbu_0, # of connection points: 4
#     Node 27, Type 1, BuildingBlock: NAHDIM_clean_sbu_0, # of connection points: 4
#     Edge 28, Type (0, 1), BuildingBlock: TEMPAE_clean_linker_10, # of connection points: 2
#     Edge 29, Type (0, 1), BuildingBlock: TEMPAE_clean_linker_10, # of connection points: 2
#     Edge 30, Type (0, 1), BuildingBlock: TEMPAE_clean_linker_10, # of connection points: 2
#     Edge 31, Type (0, 1), BuildingBlock: TEMPAE_clean_linker_10, # of connection points: 2
#     Edge 32, Type (0, 1), BuildingBlock: TEMPAE_clean_linker_10, # of connection points: 2
#     Edge 33, Type (0, 1), BuildingBlock: TEMPAE_clean_linker_10, # of connection points: 2
#     Edge 34, Type (0, 1), BuildingBlock: TEMPAE_clean_linker_10, # of connection points: 2
#     Edge 35, Type (0, 1), BuildingBlock: TEMPAE_clean_linker_10, # of connection points: 2
#     Edge 36, Type (0, 1), BuildingBlock: TEMPAE_clean_linker_10, # of connection points: 2
#     Edge 37, Type (0, 1), BuildingBlock: TEMPAE_clean_linker_10, # of connection points: 2
#     Edge 38, Type (0, 1), BuildingBlock: TEMPAE_clean_linker_10, # of connection points: 2
#     Edge 39, Type (0, 1), BuildingBlock: TEMPAE_clean_linker_10, # of connection points: 2
#     Edge 40, Type (0, 1), BuildingBlock: TEMPAE_clean_linker_10, # of connection points: 2
#     Edge 41, Type (0, 1), BuildingBlock: TEMPAE_clean_linker_10, # of connection points: 2
#     Edge 42, Type (0, 1), BuildingBlock: TEMPAE_clean_linker_10, # of connection points: 2
#     Edge 43, Type (0, 1), BuildingBlock: TEMPAE_clean_linker_10, # of connection points: 2
#     Edge 44, Type (0, 1), BuildingBlock: TEMPAE_clean_linker_10, # of connection points: 2
#     Edge 45, Type (0, 1), BuildingBlock: TEMPAE_clean_linker_10, # of connection points: 2
#     Edge 46, Type (0, 1), BuildingBlock: TEMPAE_clean_linker_10, # of connection points: 2
#     Edge 47, Type (0, 1), BuildingBlock: TEMPAE_clean_linker_10, # of connection points: 2
#     Edge 48, Type (0, 1), BuildingBlock: TEMPAE_clean_linker_10, # of connection points: 2
#     Edge 49, Type (0, 1), BuildingBlock: TEMPAE_clean_linker_10, # of connection points: 2
#     Edge 50, Type (0, 1), BuildingBlock: TEMPAE_clean_linker_10, # of connection points: 2
#     Edge 51, Type (0, 1), BuildingBlock: TEMPAE_clean_linker_10, # of connection points: 2
#     Edge 52, Type (0, 1), BuildingBlock: TEMPAE_clean_linker_10, # of connection points: 2
#     Edge 53, Type (0, 1), BuildingBlock: TEMPAE_clean_linker_10, # of connection points: 2
#     Edge 54, Type (0, 1), BuildingBlock: TEMPAE_clean_linker_10, # of connection points: 2
#     Edge 55, Type (0, 1), BuildingBlock: TEMPAE_clean_linker_10, # of connection points: 2
#     Edge 56, Type (0, 1), BuildingBlock: TEMPAE_clean_linker_10, # of connection points: 2
#     Edge 57, Type (0, 1), BuildingBlock: TEMPAE_clean_linker_10, # of connection points: 2
#     Edge 58, Type (0, 1), BuildingBlock: TEMPAE_clean_linker_10, # of connection points: 2
#     Edge 59, Type (0, 1), BuildingBlock: TEMPAE_clean_linker_10, # of connection points: 2
#     Edge 60, Type (0, 1), BuildingBlock: TEMPAE_clean_linker_10, # of connection points: 2
#     Edge 61, Type (0, 1), BuildingBlock: TEMPAE_clean_linker_10, # of connection points: 2
#     Edge 62, Type (0, 1), BuildingBlock: TEMPAE_clean_linker_10, # of connection points: 2
#     Edge 63, Type (0, 1), BuildingBlock: TEMPAE_clean_linker_10, # of connection points: 2
#     Edge 64, Type (0, 1), BuildingBlock: TEMPAE_clean_linker_10, # of connection points: 2
#     Edge 65, Type (0, 1), BuildingBlock: TEMPAE_clean_linker_10, # of connection points: 2
#     Edge 66, Type (0, 1), BuildingBlock: TEMPAE_clean_linker_10, # of connection points: 2
#     Edge 67, Type (0, 1), BuildingBlock: TEMPAE_clean_linker_10, # of connection points: 2
#     Edge 68, Type (0, 1), BuildingBlock: TEMPAE_clean_linker_10, # of connection points: 2
#     Edge 69, Type (0, 1), BuildingBlock: TEMPAE_clean_linker_10, # of connection points: 2
#     Edge 70, Type (0, 1), BuildingBlock: TEMPAE_clean_linker_10, # of connection points: 2
#     Edge 71, Type (0, 1), BuildingBlock: TEMPAE_clean_linker_10, # of connection points: 2
#     Edge 72, Type (0, 1), BuildingBlock: TEMPAE_clean_linker_10, # of connection points: 2
#     Edge 73, Type (0, 1), BuildingBlock: TEMPAE_clean_linker_10, # of connection points: 2
#     Edge 74, Type (0, 1), BuildingBlock: TEMPAE_clean_linker_10, # of connection points: 2
#     Edge 75, Type (0, 1), BuildingBlock: TEMPAE_clean_linker_10, # of connection points: 2
# Relax obj value: 0.070
# Max RMSD: 0.190
# Mean RMSD: 0.117
data_MOF--net-ctn--node1-NAHDIM_clean_sbu_0--node2-BETDIP_clean_linker_0--edge1-TEMPAE_clean_linker_10
_symmetry_space_group_name_H-M    P1
_symmetry_Int_Tables_number       1
_symmetry_cell_setting            triclinic
loop_
_symmetry_equiv_pos_as_xyz
'x, y, z'
_cell_length_a     52.989411
_cell_length_b     53.587082
_cell_length_c     58.297939
_cell_angle_alpha  94.979465
_cell_angle_beta   93.839596
_cell_angle_gamma 95.400547
loop_
_atom_site_label
_atom_site_type_symbol
_atom_site_fract_x
_atom_site_fract_y
_atom_site_fract_z
_atom_type_partial_charge
H0 H 0.02059 0.07222 0.05833 0.0
H1 H 0.07466 0.04122 0.01499 0.0
H2 H 0.06581 0.01569 0.08217 0.0
H3 H 0.04886 0.05367 0.98661 0.0
C4 C 0.04357 0.07153 0.99409 0.0
C5 C 0.03493 0.05936 0.05545 0.0
C6 C 0.04179 0.04401 0.07266 0.0
C7 C 0.0465 0.0584 0.03456 0.0
C8 C 0.06532 0.04194 0.03094 0.0
C9 C 0.07228 0.02629 0.04796 0.0
C10 C 0.0605 0.02755 0.06886 0.0
N11 N 0.03938 0.07485 0.01794 0.0
H12 H 0.2555 0.67929 0.19433 0.0
H13 H 0.3237 0.72749 0.21597 0.0
H14 H 0.30838 0.6584 0.24708 0.0
H15 H 0.29794 0.75766 0.2064 0.0
C16 C 0.28807 0.7488 0.1904 0.0
C17 C 0.27295 0.68319 0.20539 0.0
C18 C 0.27982 0.66605 0.22109 0.0
C19 C 0.28828 0.70559 0.20386 0.0
C20 C 0.31141 0.71048 0.21744 0.0
C21 C 0.31888 0.69343 0.23294 0.0
C22 C 0.30286 0.6714 0.23486 0.0
N23 N 0.2802 0.72256 0.18813 0.0
H24 H 0.95432 0.49113 0.00215 0.0
H25 H 0.00738 0.46097 0.04865 0.0
H26 H 0.97405 0.52813 0.07052 0.0
H27 H 0.99039 0.42438 0.02857 0.0
C28 C 0.98966 0.42951 0.01093 0.0
C29 C 0.96495 0.49233 0.01881 0.0
C30 C 0.96214 0.51201 0.03577 0.0
C31 C 0.98069 0.47351 0.02347 0.0
C32 C 0.99457 0.47496 0.04503 0.0
C33 C 0.99205 0.49447 0.06212 0.0
C34 C 0.9757 0.51283 0.05744 0.0
N35 N 0.98246 0.45353 0.00611 0.0
H36 H 0.728 0.78241 0.18076 0.0
H37 H 0.74717 0.85016 0.22611 0.0
H38 H 0.79395 0.83232 0.17075 0.0
H39 H 0.72793 0.82774 0.25158 0.0
C40 C 0.71229 0.81621 0.24168 0.0
C41 C 0.74039 0.79954 0.18586 0.0
C42 C 0.76144 0.80572 0.17329 0.0
C43 C 0.73568 0.81489 0.2055 0.0
C44 C 0.7515 0.83736 0.21187 0.0
C45 C 0.7726 0.84388 0.19943 0.0
C46 C 0.77756 0.82773 0.18033 0.0
N47 N 0.71477 0.80735 0.2183 0.0
H48 H 0.02335 0.97017 0.4417 0.0
H49 H 0.09309 0.98925 0.4841 0.0
H50 H 0.07443 0.03388 0.42872 0.0
H51 H 0.08896 0.94606 0.4858 0.0
C52 C 0.06891 0.94305 0.48872 0.0
C53 C 0.04097 0.98219 0.44583 0.0
C54 C 0.04683 0.00272 0.43303 0.0
C55 C 0.05776 0.97689 0.46389 0.0
C56 C 0.08045 0.99263 0.46957 0.0
C57 C 0.08654 0.01334 0.45706 0.0
C58 C 0.06959 0.0183 0.43883 0.0
N59 N 0.051 0.95604 0.47645 0.0
H60 H 0.22563 0.7644 0.82059 0.0
H61 H 0.25579 0.71121 0.77302 0.0
H62 H 0.28915 0.72565 0.84275 0.0
H63 H 0.21822 0.70996 0.75373 0.0
C64 C 0.21052 0.72775 0.7577 0.0
C65 C 0.23935 0.75107 0.81694 0.0
C66 C 0.25745 0.7465 0.83434 0.0
C67 C 0.23819 0.73813 0.79498 0.0
C68 C 0.25603 0.72095 0.79008 0.0
C69 C 0.27446 0.71626 0.80725 0.0
C70 C 0.27483 0.72889 0.82946 0.0
N71 N 0.21889 0.74312 0.7784 0.0
H72 H 0.00645 0.57549 0.47411 0.0
H73 H 0.96678 0.50127 0.46244 0.0
H74 H 0.94938 0.5522 0.51901 0.0
H75 H 0.00343 0.49299 0.44566 0.0
C76 C 0.00768 0.50967 0.43672 0.0
C77 C 0.99247 0.56129 0.47914 0.0
C78 C 0.97861 0.56654 0.49835 0.0
C79 C 0.98855 0.53779 0.46628 0.0
C80 C 0.97017 0.51937 0.47248 0.0
C81 C 0.95589 0.52441 0.49154 0.0
C82 C 0.96029 0.54807 0.50432 0.0
N83 N 0.00288 0.53367 0.44682 0.0
H84 H 0.78727 0.81575 0.75953 0.0
H85 H 0.82077 0.76575 0.80382 0.0
H86 H 0.75532 0.80133 0.82368 0.0
H87 H 0.84131 0.75412 0.7736 0.0
C88 C 0.84174 0.76876 0.76186 0.0
C89 C 0.78734 0.80642 0.7753 0.0
C90 C 0.76898 0.81071 0.79108 0.0
C91 C 0.80586 0.79008 0.77943 0.0
C92 C 0.80627 0.77798 0.79992 0.0
C93 C 0.78779 0.78172 0.81572 0.0
C94 C 0.76912 0.79794 0.81114 0.0
N95 N 0.82398 0.78703 0.76277 0.0
H96 H 0.28653 0.31108 0.25323 0.0
H97 H 0.3191 0.25828 0.29502 0.0
H98 H 0.25852 0.29874 0.31935 0.0
H99 H 0.34038 0.24826 0.26547 0.0
C100 C 0.33957 0.26219 0.2531 0.0
C101 C 0.2871 0.30168 0.26896 0.0
C102 C 0.2704 0.30722 0.28598 0.0
C103 C 0.30459 0.28401 0.27183 0.0
C104 C 0.30536 0.27155 0.29211 0.0
C105 C 0.28868 0.27671 0.30929 0.0
C106 C 0.2713 0.29458 0.30609 0.0
N107 N 0.32141 0.28008 0.25416 0.0
H108 H 0.45281 0.97881 0.49488 0.0
H109 H 0.50071 0.94871 0.54584 0.0
H110 H 0.46412 0.01491 0.56433 0.0
H111 H 0.48676 0.91222 0.52409 0.0
C112 C 0.48799 0.91776 0.50668 0.0
C113 C 0.46153 0.97989 0.51235 0.0
C114 C 0.45656 -0.00079 0.52884 0.0
C115 C 0.4768 0.96121 0.51844 0.0
C116 C 0.48797 0.96239 0.54111 0.0
C117 C 0.48348 0.98169 0.55771 0.0
C118 C 0.46776 6e-05 0.55149 0.0
N119 N 0.4809 0.94168 0.5014 0.0
H120 H 0.21515 0.27535 0.67618 0.0
H121 H 0.23548 0.3432 0.72121 0.0
H122 H 0.2782 0.32733 0.66268 0.0
H123 H 0.19477 0.33876 0.72838 0.0
C124 C 0.18956 0.31862 0.72776 0.0
C125 C 0.22721 0.29281 0.6806 0.0
C126 C 0.24765 0.29914 0.66731 0.0
C127 C 0.22217 0.30888 0.69967 0.0
C128 C 0.23826 0.33122 0.70588 0.0
C129 C 0.25865 0.33791 0.69269 0.0
C130 C 0.26304 0.32185 0.67338 0.0
N131 N 0.20114 0.30177 0.71248 0.0
H132 H 0.75566 0.17359 0.6867 0.0
H133 H 0.82321 0.22261 0.70877 0.0
H134 H 0.80215 0.15975 0.7469 0.0
H135 H 0.8224 0.22748 0.6703 0.0
C136 C 0.80231 0.2287 0.66598 0.0
C137 C 0.77214 0.17865 0.69883 0.0
C138 C 0.77666 0.16415 0.71737 0.0
C139 C 0.78913 0.19927 0.69524 0.0
C140 C 0.81062 0.20595 0.71075 0.0
C141 C 0.81555 0.19173 0.72939 0.0
C142 C 0.79847 0.17083 0.73257 0.0
N143 N 0.78374 0.21328 0.67622 0.0
H144 H 0.5207 0.57325 0.56306 0.0
H145 H 0.57336 0.54065 0.51949 0.0
H146 H 0.56798 0.51871 0.58824 0.0
H147 H 0.54471 0.55021 0.49138 0.0
C148 C 0.54079 0.56888 0.49814 0.0
C149 C 0.53532 0.56064 0.56065 0.0
C150 C 0.54279 0.54609 0.57842 0.0
C151 C 0.546 0.55862 0.53935 0.0
C152 C 0.56473 0.54209 0.53579 0.0
C153 C 0.57256 0.52743 0.55328 0.0
C154 C 0.56151 0.52955 0.57454 0.0
N155 N 0.53813 0.57407 0.52213 0.0
H156 H 0.51598 0.47898 0.94621 0.0
H157 H 0.58012 0.50257 0.99474 0.0
H158 H 0.57441 0.53498 0.93013 0.0
H159 H 0.55164 0.48958 0.02019 0.0
C160 C 0.54278 0.47218 0.01087 0.0
C161 C 0.53379 0.49058 0.95069 0.0
C162 C 0.54336 0.5074 0.93538 0.0
C163 C 0.5467 0.48888 0.97216 0.0
C164 C 0.56969 0.504 0.97838 0.0
C165 C 0.57948 0.52097 0.9634 0.0
C166 C 0.56631 0.52247 0.94195 0.0
N167 N 0.53661 0.47107 0.98668 0.0
H168 H 0.72061 0.26813 0.31713 0.0
H169 H 0.7488 0.20975 0.27362 0.0
H170 H 0.78795 0.23513 0.33959 0.0
H171 H 0.71084 0.20684 0.25478 0.0
C172 C 0.70294 0.2247 0.25773 0.0
C173 C 0.73463 0.25497 0.31413 0.0
C174 C 0.7546 0.25366 0.33091 0.0
C175 C 0.73207 0.23906 0.29363 0.0
C176 C 0.74998 0.22171 0.28966 0.0
C177 C 0.77019 0.22023 0.3062 0.0
C178 C 0.77239 0.23625 0.32679 0.0
N179 N 0.71151 0.24165 0.27739 0.0
H180 H 0.49569 0.07774 0.96223 0.0
H181 H 0.45011 0.00656 0.95022 0.0
H182 H 0.44023 0.05705 0.00962 0.0
H183 H 0.48664 0.99528 0.93386 0.0
C184 C 0.49199 0.01161 0.92477 0.0
C185 C 0.48107 0.0644 0.96757 0.0
C186 C 0.46854 0.07035 0.98748 0.0
C187 C 0.47507 0.04122 0.95446 0.0
C188 C 0.45566 0.02403 0.96087 0.0
C189 C 0.44264 0.02985 0.98056 0.0
C190 C 0.44947 0.05289 0.99389 0.0
N191 N 0.4885 0.03611 0.93461 0.0
C192 C 0.20406 0.90651 0.01387 0.0
O193 O 0.20494 0.89582 0.99282 0.0
O194 O 0.24343 0.85794 0.99524 0.0
Zn195 Zn 0.25064 0.88306 0.02311 0.0
O196 O 0.28034 0.90669 0.01633 0.0
C197 C 0.24299 0.857 0.06363 0.0
O198 O 0.21944 0.86211 0.05949 0.0
O199 O 0.2212 0.90325 0.02931 0.0
C200 C 0.29932 0.9142 0.03052 0.0
O201 O 0.29979 0.90702 0.05151 0.0
C202 C 0.26282 0.84776 0.98877 0.0
O203 O 0.28468 0.85364 0.00094 0.0
O204 O 0.25974 0.86442 0.05045 0.0
C205 C 0.15573 0.44578 0.27085 0.0
O206 O 0.15861 0.46474 0.28698 0.0
O207 O 0.10152 0.48278 0.27897 0.0
Zn208 Zn 0.12243 0.47816 0.25156 0.0
O209 O 0.14889 0.50762 0.25126 0.0
C210 C 0.09205 0.49625 0.2158 0.0
O211 O 0.09924 0.51754 0.22847 0.0
O212 O 0.14047 0.44683 0.25327 0.0
C213 C 0.16035 0.51028 0.23303 0.0
O214 O 0.15474 0.4936 0.21509 0.0
C215 C 0.10991 0.49669 0.29717 0.0
O216 O 0.13277 0.50876 0.29814 0.0
O217 O 0.09943 0.47594 0.22238 0.0
C218 C 0.84114 0.64262 0.00658 0.0
O219 O 0.84754 0.66667 0.01275 0.0
O220 O 0.79684 0.67859 0.96702 0.0
Zn221 Zn 0.79132 0.65867 0.99438 0.0
O222 O 0.7581 0.63706 0.98769 0.0
C223 C 0.79911 0.70367 0.0281 0.0
O224 O 0.8121 0.71436 0.01253 0.0
O225 O 0.8186 0.63539 0.9983 0.0
C226 C 0.74408 0.63132 0.00368 0.0
O227 O 0.75137 0.63985 0.02514 0.0
C228 C 0.78364 0.69663 0.96321 0.0
O229 O 0.76695 0.70285 0.97782 0.0
O230 O 0.78952 0.68095 0.02391 0.0
C231 C 0.89399 0.0907 0.27935 0.0
O232 O 0.90521 0.08153 0.29707 0.0
O233 O 0.93892 0.04471 0.28002 0.0
Zn234 Zn 0.91588 0.05055 0.25238 0.0
O235 O 0.89032 0.02002 0.24429 0.0
C236 C 0.95393 0.04115 0.22061 0.0
O237 O 0.95854 0.02384 0.2345 0.0
O238 O 0.89648 0.08095 0.25904 0.0
C239 C 0.89656 0.99775 0.24513 0.0
O240 O 0.92011 0.99445 0.2517 0.0
C241 C 0.93018 0.03393 0.29683 0.0
O242 O 0.90569 0.02691 0.29629 0.0
O243 O 0.93677 0.05555 0.22502 0.0
C244 C 0.32486 0.11457 0.48571 0.0
O245 O 0.30532 0.10542 0.4714 0.0
O246 O 0.30009 0.17752 0.46338 0.0
Zn247 Zn 0.29518 0.15666 0.49027 0.0
O248 O 0.26351 0.13276 0.48274 0.0
C249 C 0.28733 0.20156 0.52043 0.0
O250 O 0.28859 0.21329 0.50161 0.0
O251 O 0.32509 0.13666 0.49569 0.0
C252 C 0.25066 0.12432 0.49853 0.0
O253 O 0.25853 0.13098 0.52024 0.0
C254 C 0.28045 0.18343 0.45216 0.0
O255 O 0.25791 0.17632 0.45885 0.0
O256 O 0.29025 0.17823 0.51945 0.0
C257 C 0.39579 0.58726 0.7683 0.0
O258 O 0.41982 0.59038 0.77614 0.0
O259 O 0.43013 0.53503 0.78088 0.0
Zn260 Zn 0.40848 0.53795 0.75175 0.0
O261 O 0.3851 0.50609 0.74535 0.0
C262 C 0.45189 0.55311 0.72545 0.0
O263 O 0.46302 0.5625 0.74557 0.0
O264 O 0.38703 0.56658 0.75699 0.0
C265 C 0.37311 0.50031 0.72573 0.0
O266 O 0.3763 0.51546 0.70938 0.0
C267 C 0.4491 0.52221 0.78155 0.0
O268 O 0.45576 0.51078 0.76236 0.0
O269 O 0.4293 0.54248 0.72436 0.0
C270 C 0.70537 0.40957 0.51666 0.0
O271 O 0.70369 0.39621 0.49653 0.0
O272 O 0.74918 0.37009 0.49158 0.0
Zn273 Zn 0.75447 0.38938 0.5234 0.0
O274 O 0.78586 0.41396 0.52433 0.0
C275 C 0.7575 0.34163 0.54303 0.0
O276 O 0.75177 0.33214 0.52157 0.0
O277 O 0.72489 0.40912 0.53047 0.0
C278 C 0.80771 0.40837 0.53126 0.0
O279 O 0.80991 0.38626 0.5389 0.0
C280 C 0.76845 0.36506 0.48078 0.0
O281 O 0.79127 0.37287 0.49033 0.0
O282 O 0.75927 0.36537 0.54778 0.0
C283 C 0.6506 0.94479 0.76852 0.0
O284 O 0.65117 0.96326 0.78496 0.0
O285 O 0.59544 0.98023 0.77316 0.0
Zn286 Zn 0.61787 0.97628 0.74675 0.0
O287 O 0.64303 0.00685 0.74705 0.0
C288 C 0.57587 0.98313 0.71477 0.0
O289 O 0.5681 0.99521 0.73315 0.0
O290 O 0.63715 0.94589 0.7498 0.0
C291 C 0.65445 0.0103 0.72893 0.0
O292 O 0.64954 0.99374 0.71082 0.0
C293 C 0.60248 0.99467 0.79137 0.0
O294 O 0.625 0.00753 0.79312 0.0
O295 O 0.5965 0.97284 0.71654 0.0
C296 C 0.01012 0.20691 0.88924 0.0
O297 O 0.98658 0.21143 0.88397 0.0
O298 O 0.98811 0.23556 0.8411 0.0
Zn299 Zn 0.01971 0.2478 0.86177 0.0
O300 O 0.01273 0.27782 0.88275 0.0
C301 C 0.04518 0.26416 0.82252 0.0
O302 O 0.02175 0.26563 0.81427 0.0
O303 O 0.02819 0.22026 0.88151 0.0
C304 C 0.03013 0.2946 0.89136 0.0
O305 O 0.0537 0.29254 0.88637 0.0
C306 C 0.97125 0.25019 0.83664 0.0
O307 O 0.97477 0.27381 0.84536 0.0
O308 O 0.04902 0.25697 0.84257 0.0
C309 C 0.51658 0.70032 0.38689 0.0
O310 O 0.49374 0.70696 0.38195 0.0
O311 O 0.49807 0.72864 0.3366 0.0
Zn312 Zn 0.52896 0.73958 0.35855 0.0
O313 O 0.52174 0.76951 0.37947 0.0
C314 C 0.55954 0.76703 0.32855 0.0
O315 O 0.54004 0.78047 0.32831 0.0
O316 O 0.53546 0.71163 0.37842 0.0
C317 C 0.53889 0.78531 0.39006 0.0
O318 O 0.56289 0.78242 0.38735 0.0
C319 C 0.48188 0.744 0.33231 0.0
O320 O 0.48587 0.76727 0.34187 0.0
O321 O 0.55923 0.7483 0.34054 0.0
C322 C 0.01725 0.80437 0.58724 0.0
O323 O 0.00441 0.78347 0.5777 0.0
O324 O 0.99256 0.77815 0.64695 0.0
Zn325 Zn 0.02114 0.77512 0.6261 0.0
O326 O 0.0141 0.74409 0.60376 0.0
C327 C 0.05275 0.76263 0.66463 0.0
O328 O 0.03058 0.75588 0.67224 0.0
O329 O 0.02589 0.80553 0.60823 0.0
C330 C 0.01159 0.72207 0.61032 0.0
O331 O 0.01328 0.71928 0.63252 0.0
C332 C 0.97021 0.76754 0.6417 0.0
O333 O 0.96487 0.75491 0.62134 0.0
O334 O 0.05348 0.77192 0.64532 0.0
C335 C 0.50834 0.31996 0.09856 0.0
O336 O 0.48523 0.3124 0.10362 0.0
O337 O 0.49104 0.27689 0.13946 0.0
Zn338 Zn 0.5205 0.27515 0.11931 0.0
O339 O 0.51359 0.24596 0.09488 0.0
C340 C 0.55 0.26024 0.15814 0.0
O341 O 0.52729 0.25429 0.16503 0.0
O342 O 0.52647 0.30709 0.10386 0.0
C343 C 0.51254 0.22359 0.10067 0.0
O344 O 0.51575 0.22001 0.12263 0.0
C345 C 0.46931 0.26482 0.13417 0.0
O346 O 0.46502 0.25131 0.11415 0.0
O347 O 0.55193 0.26992 0.13909 0.0
C348 C 0.25869 0.74739 0.8774 0.0
C349 C 0.25817 0.76034 0.85752 0.0
C350 C 0.2587 0.76034 0.89939 0.0
C351 C 0.25858 0.78686 0.90148 0.0
C352 C 0.25825 0.80001 0.88144 0.0
C353 C 0.25789 0.78656 0.85969 0.0
C354 C 0.25875 0.74568 0.92037 0.0
C355 C 0.25852 0.82832 0.88299 0.0
C356 C 0.23794 0.82186 0.95545 0.0
C357 C 0.26145 0.83093 0.96713 0.0
C358 C 0.23668 0.80681 0.93436 0.0
C359 C 0.25946 0.80105 0.92463 0.0
C360 C 0.28321 0.80984 0.93652 0.0
C361 C 0.2839 0.82453 0.95769 0.0
C362 C 0.211 0.79746 0.92229 0.0
C363 C 0.30792 0.80434 0.92657 0.0
H364 H 0.25865 0.72708 0.87568 0.0
H365 H 0.25773 0.79659 0.84431 0.0
H366 H 0.27604 0.75193 0.93199 0.0
H367 H 0.24211 0.7494 0.93026 0.0
H368 H 0.25819 0.72507 0.91574 0.0
H369 H 0.2582 0.83566 0.86574 0.0
H370 H 0.24184 0.83421 0.8918 0.0
H371 H 0.2758 0.8372 0.89348 0.0
H372 H 0.22052 0.82662 0.96272 0.0
H373 H 0.30215 0.83151 0.96658 0.0
H374 H 0.20955 0.77673 0.9183 0.0
H375 H 0.20872 0.80586 0.90563 0.0
H376 H 0.19512 0.80227 0.93282 0.0
H377 H 0.30843 0.78374 0.92295 0.0
H378 H 0.32477 0.81192 0.93833 0.0
H379 H 0.30939 0.81275 0.90991 0.0
C380 C 0.02453 0.52771 0.40191 0.0
C381 C 0.02169 0.50757 0.41566 0.0
C382 C 0.03822 0.52593 0.38215 0.0
C383 C 0.04958 0.5036 0.37622 0.0
C384 C 0.04659 0.48316 0.38998 0.0
C385 C 0.03247 0.48533 0.40946 0.0
C386 C 0.04066 0.54797 0.3677 0.0
C387 C 0.05865 0.45916 0.38433 0.0
C388 C 0.06837 0.49031 0.31494 0.0
C389 C 0.09438 0.49868 0.31729 0.0
C390 C 0.05349 0.49195 0.33395 0.0
C391 C 0.065 0.50185 0.35587 0.0
C392 C 0.09127 0.51021 0.35837 0.0
C393 C 0.10561 0.50869 0.33901 0.0
C394 C 0.02545 0.4832 0.33056 0.0
C395 C 0.10428 0.5206 0.38153 0.0
H396 H 0.01599 0.54487 0.40652 0.0
H397 H 0.03023 0.46977 0.42011 0.0
H398 H 0.06095 0.55524 0.36759 0.0
H399 H 0.0336 0.54185 0.34955 0.0
H400 H 0.02991 0.56362 0.3742 0.0
H401 H 0.05437 0.44496 0.3967 0.0
H402 H 0.05184 0.45082 0.36667 0.0
H403 H 0.07959 0.46336 0.38459 0.0
H404 H 0.05955 0.48265 0.29818 0.0
H405 H 0.12574 0.51505 0.34097 0.0
H406 H 0.01421 0.49888 0.33591 0.0
H407 H 0.0208 0.46783 0.34162 0.0
H408 H 0.01935 0.47628 0.31233 0.0
H409 H 0.09544 0.53747 0.38821 0.0
H410 H 0.12494 0.52591 0.38062 0.0
H411 H 0.10179 0.50643 0.3942 0.0
C412 C 0.76647 0.75449 0.84281 0.0
C413 C 0.78818 0.76906 0.83729 0.0
C414 C 0.76645 0.74252 0.86328 0.0
C415 C 0.78849 0.7457 0.87881 0.0
C416 C 0.81043 0.76057 0.87335 0.0
C417 C 0.81009 0.77186 0.85249 0.0
C418 C 0.74286 0.72641 0.86826 0.0
C419 C 0.83409 0.76484 0.88967 0.0
C420 C 0.77808 0.73377 0.94093 0.0
C421 C 0.78614 0.7097 0.94204 0.0
C422 C 0.77942 0.74601 0.92065 0.0
C423 C 0.78846 0.7336 0.90084 0.0
C424 C 0.79677 0.70935 0.9019 0.0
C425 C 0.79578 0.6978 0.92259 0.0
C426 C 0.77092 0.77211 0.92034 0.0
C427 C 0.80606 0.69532 0.88102 0.0
H428 H 0.7496 0.75224 0.83093 0.0
H429 H 0.82679 0.78334 0.84825 0.0
H430 H 0.7476 0.7071 0.87102 0.0
H431 H 0.73534 0.73426 0.88437 0.0
H432 H 0.72764 0.72516 0.85403 0.0
H433 H 0.84945 0.77709 0.88295 0.0
H434 H 0.82952 0.77369 0.90662 0.0
H435 H 0.84134 0.74657 0.89277 0.0
H436 H 0.77079 0.7431 0.95599 0.0
H437 H 0.80188 0.67912 0.92331 0.0
H438 H 0.75416 0.77176 0.90782 0.0
H439 H 0.78624 0.78516 0.91459 0.0
H440 H 0.76579 0.77971 0.93756 0.0
H441 H 0.79072 0.69235 0.86685 0.0
H442 H 0.81213 0.67672 0.88478 0.0
H443 H 0.82231 0.70661 0.87464 0.0
C444 C 0.02262 0.03186 0.41084 0.0
C445 C 0.02946 0.00754 0.41327 0.0
C446 C 0.00632 0.03666 0.39211 0.0
C447 C 0.9969 0.01668 0.37532 0.0
C448 C 0.00384 0.9921 0.37766 0.0
C449 C 0.01994 0.98781 0.39669 0.0
C450 C -0.00091 0.06305 0.39033 0.0
C451 C 0.99441 0.97039 0.35996 0.0
C452 C 0.93716 0.02263 0.33731 0.0
C453 C 0.94727 0.02974 0.31695 0.0
C454 C 0.95311 0.0186 0.35654 0.0
C455 C 0.97979 0.02146 0.35527 0.0
C456 C 0.99012 0.02858 0.33475 0.0
C457 C 0.97373 0.03278 0.31586 0.0
C458 C 0.94142 0.01128 0.37823 0.0
C459 C 0.01848 0.03154 0.33267 0.0
H460 H 0.02981 0.04709 0.42377 0.0
H461 H 0.02547 0.96905 0.3984 0.0
H462 H 0.00515 0.07 0.37398 0.0
H463 H 0.97812 0.06305 0.38992 0.0
H464 H 0.00783 0.07641 0.40497 0.0
H465 H 0.00173 0.95246 0.36425 0.0
H466 H 0.97334 0.96772 0.35867 0.0
H467 H 0.00036 0.9746 0.3427 0.0
H468 H 0.91673 0.02037 0.33831 0.0
H469 H 0.98166 0.03817 0.30014 0.0
H470 H 0.94874 0.02504 0.39305 0.0
H471 H 0.94692 0.99261 0.38234 0.0
H472 H 0.92034 0.0104 0.37659 0.0
H473 H 0.02778 0.04596 0.34618 0.0
H474 H 0.02346 0.03715 0.31551 0.0
H475 H 0.02649 0.01356 0.33551 0.0
C476 C 0.27804 0.27838 0.64266 0.0
C477 C 0.25291 0.28251 0.6468 0.0
C478 C 0.28364 0.26441 0.6225 0.0
C479 C 0.26362 0.25417 0.60613 0.0
C480 C 0.23814 0.25759 0.61052 0.0
C481 C 0.23309 0.27176 0.63081 0.0
C482 C 0.31104 0.2611 0.6185 0.0
C483 C 0.21629 0.24684 0.59349 0.0
C484 C 0.27972 0.24108 0.544 0.0
C485 C 0.28153 0.21506 0.54242 0.0
C486 C 0.2738 0.25401 0.56462 0.0
C487 C 0.26947 0.24057 0.58409 0.0
C488 C 0.27119 0.2143 0.5826 0.0
C489 C 0.27726 0.20187 0.56181 0.0
C490 C 0.27228 0.28209 0.5656 0.0
C491 C 0.26661 0.19933 0.60298 0.0
H492 H 0.29341 0.28629 0.65515 0.0
H493 H 0.21366 0.27507 0.63381 0.0
H494 H 0.31362 0.2408 0.61554 0.0
H495 H 0.31634 0.26996 0.60275 0.0
H496 H 0.32431 0.26961 0.63327 0.0
H497 H 0.19753 0.25004 0.60003 0.0
H498 H 0.21786 0.25561 0.57703 0.0
H499 H 0.21702 0.2263 0.58955 0.0
H500 H 0.28298 0.25142 0.52912 0.0
H501 H 0.27849 0.18173 0.56072 0.0
H502 H 0.28632 0.29189 0.57917 0.0
H503 H 0.25317 0.28657 0.57033 0.0
H504 H 0.27599 0.28972 0.5489 0.0
H505 H 0.28046 0.20657 0.61771 0.0
H506 H 0.26832 0.17895 0.5989 0.0
H507 H 0.24734 0.20159 0.60872 0.0
C508 C 0.52455 0.57127 0.61066 0.0
C509 C 0.53078 0.54797 0.60085 0.0
C510 C 0.51223 0.5731 0.63123 0.0
C511 C 0.50634 0.55119 0.64253 0.0
C512 C 0.51309 0.52773 0.63307 0.0
C513 C 0.52502 0.52636 0.61227 0.0
C514 C 0.50514 0.59843 0.64068 0.0
C515 C 0.50736 0.50397 0.64473 0.0
C516 C 0.49241 0.55826 0.7058 0.0
C517 C 0.46582 0.5537 0.70429 0.0
C518 C 0.50588 0.55758 0.68584 0.0
C519 C 0.4924 0.55263 0.66386 0.0
C520 C 0.46552 0.54857 0.66223 0.0
C521 C 0.45258 0.54895 0.68246 0.0
C522 C 0.53456 0.56163 0.68828 0.0
C523 C 0.45043 0.54364 0.6391 0.0
H524 H 0.52933 0.58816 0.60225 0.0
H525 H 0.52936 0.50821 0.60473 0.0
H526 H 0.48423 0.59766 0.64158 0.0
H527 H 0.51391 0.60329 0.65851 0.0
H528 H 0.51126 0.6137 0.62993 0.0
H529 H 0.51513 0.48749 0.63586 0.0
H530 H 0.51546 0.50663 0.66293 0.0
H531 H 0.4865 0.49968 0.64503 0.0
H532 H 0.50277 0.56179 0.72262 0.0
H533 H 0.43202 0.54556 0.68116 0.0
H534 H 0.54134 0.57757 0.67859 0.0
H535 H 0.54257 0.54465 0.68071 0.0
H536 H 0.54217 0.56562 0.70658 0.0
H537 H 0.45518 0.55918 0.62823 0.0
H538 H 0.42959 0.54181 0.64078 0.0
H539 H 0.45552 0.52606 0.62984 0.0
C540 C 0.81372 0.25773 0.63649 0.0
C541 C 0.79486 0.2451 0.64811 0.0
C542 C 0.80735 0.27345 0.61942 0.0
C543 C 0.78148 0.2767 0.61402 0.0
C544 C 0.76234 0.26408 0.62582 0.0
C545 C 0.76926 0.24835 0.64273 0.0
C546 C 0.82828 0.2865 0.60712 0.0
C547 C 0.73458 0.26724 0.62062 0.0
C548 C 0.76746 0.3348 0.58446 0.0
C549 C 0.76279 0.32492 0.56132 0.0
C550 C 0.77322 0.31925 0.60185 0.0
C551 C 0.77449 0.29324 0.59593 0.0
C552 C 0.76958 0.28311 0.57264 0.0
C553 C 0.76372 0.29906 0.55562 0.0
C554 C 0.7782 0.33069 0.62653 0.0
C555 C 0.77089 0.25548 0.56567 0.0
H556 H 0.83351 0.25523 0.6407 0.0
H557 H 0.7546 0.23872 0.65176 0.0
H558 H 0.82531 0.28097 0.58827 0.0
H559 H 0.82778 0.3072 0.6097 0.0
H560 H 0.84743 0.28189 0.6133 0.0
H561 H 0.72206 0.25628 0.63149 0.0
H562 H 0.7314 0.28741 0.62351 0.0
H563 H 0.72885 0.26107 0.6022 0.0
H564 H 0.76672 0.35475 0.58901 0.0
H565 H 0.76017 0.29127 0.53779 0.0
H566 H 0.79787 0.32815 0.63302 0.0
H567 H 0.76512 0.32092 0.63772 0.0
H568 H 0.77572 0.3511 0.62835 0.0
H569 H 0.79029 0.25034 0.57017 0.0
H570 H 0.76615 0.25049 0.54688 0.0
H571 H 0.75756 0.24391 0.57531 0.0
C572 C 0.49369 0.9608 0.59337 0.0
C573 C 0.49535 0.98249 0.58153 0.0
C574 C 0.50582 0.96082 0.6155 0.0
C575 C 0.52023 0.983 0.62587 0.0
C576 C 0.5217 0.00507 0.6141 0.0
C577 C 0.50906 0.0046 0.59209 0.0
C578 C 0.50349 0.93704 0.62765 0.0
C579 C 0.53714 0.02898 0.6245 0.0
C580 C 0.53663 0.98976 0.69069 0.0
C581 C 0.56141 0.98253 0.69209 0.0
C582 C 0.52291 0.98984 0.66925 0.0
C583 C 0.53439 0.98285 0.64874 0.0
C584 C 0.55941 0.97558 0.65004 0.0
C585 C 0.57256 0.97534 0.67171 0.0
C586 C 0.49614 0.99737 0.66855 0.0
C587 C 0.57238 0.96825 0.62852 0.0
H588 H 0.48286 0.94376 0.58526 0.0
H589 H 0.5105 0.02132 0.58284 0.0
H590 H 0.52248 0.93023 0.63048 0.0
H591 H 0.49621 0.94092 0.64488 0.0
H592 H 0.49058 0.92177 0.61766 0.0
H593 H 0.53585 0.04467 0.61334 0.0
H594 H 0.53057 0.03491 0.64162 0.0
H595 H 0.5574 0.02556 0.62727 0.0
H596 H 0.52787 0.99526 0.70638 0.0
H597 H 0.59176 0.96989 0.67265 0.0
H598 H 0.48278 0.9819 0.65948 0.0
H599 H 0.49485 0.01405 0.65867 0.0
H600 H 0.48982 0.00193 0.68608 0.0
H601 H 0.56129 0.95181 0.61849 0.0
H602 H 0.59203 0.9634 0.63249 0.0
H603 H 0.57319 0.98396 0.61729 0.0
C604 C 0.83701 0.19876 0.76944 0.0
C605 C 0.8385 0.1989 0.74552 0.0
C606 C 0.85843 0.20629 0.78483 0.0
C607 C 0.88183 0.21426 0.77607 0.0
C608 C 0.88353 0.21415 0.75194 0.0
C609 C 0.86188 0.2064 0.73696 0.0
C610 C 0.85592 0.20611 0.81046 0.0
C611 C 0.90817 0.2225 0.74195 0.0
C612 C 0.93079 0.25757 0.81485 0.0
C613 C 0.94816 0.24086 0.82149 0.0
C614 C 0.90901 0.24911 0.80021 0.0
C615 C 0.90444 0.2233 0.79212 0.0
C616 C 0.92174 0.20627 0.79895 0.0
C617 C 0.94344 0.21527 0.81352 0.0
C618 C 0.89104 0.26785 0.7932 0.0
C619 C 0.91741 0.17858 0.79074 0.0
H620 H 0.81894 0.19325 0.77618 0.0
H621 H 0.86325 0.20617 0.71848 0.0
H622 H 0.87009 0.19463 0.81812 0.0
H623 H 0.85994 0.22553 0.819 0.0
H624 H 0.83664 0.19846 0.81443 0.0
H625 H 0.90639 0.22096 0.72277 0.0
H626 H 0.91447 0.24236 0.74837 0.0
H627 H 0.92329 0.21095 0.74769 0.0
H628 H 0.93429 0.27738 0.82092 0.0
H629 H 0.95672 0.20221 0.81864 0.0
H630 H 0.87164 0.26207 0.79814 0.0
H631 H 0.88983 0.26824 0.77417 0.0
H632 H 0.89712 0.2872 0.80131 0.0
H633 H 0.89864 0.17057 0.79558 0.0
H634 H 0.93234 0.16772 0.7981 0.0
H635 H 0.9171 0.17601 0.77163 0.0
C636 C 0.50109 0.87564 0.49463 0.0
C637 C 0.49568 0.89943 0.48869 0.0
C638 C 0.50848 0.85769 0.47813 0.0
C639 C 0.51057 0.86375 0.45513 0.0
C640 C 0.50526 0.88784 0.44904 0.0
C641 C 0.49784 0.90544 0.46592 0.0
C642 C 0.5139 0.83218 0.48528 0.0
C643 C 0.50733 0.89496 0.42469 0.0
C644 C 0.55043 0.82344 0.41815 0.0
C645 C 0.53172 0.80619 0.40588 0.0
C646 C 0.5438 0.84266 0.43388 0.0
C647 C 0.51786 0.84461 0.43742 0.0
C648 C 0.49887 0.82757 0.42476 0.0
C649 C 0.50603 0.80859 0.40913 0.0
C650 C 0.56457 0.86056 0.44704 0.0
C651 C 0.471 0.82904 0.42808 0.0
H652 H 0.49946 0.87104 0.51225 0.0
H653 H 0.49376 0.92387 0.46127 0.0
H654 H 0.50086 0.81724 0.47507 0.0
H655 H 0.53358 0.82855 0.48163 0.0
H656 H 0.51164 0.83057 0.50392 0.0
H657 H 0.50296 0.9146 0.42286 0.0
H658 H 0.52681 0.89294 0.41939 0.0
H659 H 0.49405 0.88203 0.41258 0.0
H660 H 0.57032 0.82178 0.41569 0.0
H661 H 0.49141 0.79541 0.39967 0.0
H662 H 0.56438 0.85838 0.46579 0.0
H663 H 0.56117 0.88031 0.44463 0.0
H664 H 0.58373 0.85727 0.4415 0.0
H665 H 0.4672 0.82574 0.44611 0.0
H666 H 0.45856 0.81502 0.4162 0.0
H667 H 0.46571 0.84813 0.42519 0.0
C668 C 0.15786 0.32697 0.75626 0.0
C669 C 0.16899 0.30953 0.74185 0.0
C670 C 0.13811 0.3192 0.76971 0.0
C671 C 0.12927 0.29333 0.76866 0.0
C672 C 0.14059 0.27558 0.75425 0.0
C673 C 0.16037 0.28389 0.74101 0.0
C674 C 0.12656 0.3387 0.78488 0.0
C675 C 0.13164 0.24784 0.75268 0.0
C676 C 0.09195 0.27149 0.81798 0.0
C677 C 0.06679 0.27101 0.80864 0.0
C678 C 0.11251 0.27845 0.80508 0.0
C679 C 0.10778 0.285 0.78228 0.0
C680 C 0.08244 0.28425 0.77267 0.0
C681 C 0.06227 0.27732 0.78597 0.0
C682 C 0.13927 0.27911 0.81594 0.0
C683 C 0.07663 0.29104 0.7484 0.0
H684 H 0.16457 0.34679 0.75695 0.0
H685 H 0.16895 0.27031 0.72992 0.0
H686 H 0.10606 0.33861 0.7795 0.0
H687 H 0.12797 0.33407 0.80307 0.0
H688 H 0.13599 0.35799 0.7841 0.0
H689 H 0.14275 0.23642 0.741 0.0
H690 H 0.13318 0.24094 0.77007 0.0
H691 H 0.1113 0.24472 0.74625 0.0
H692 H 0.09563 0.26666 0.83548 0.0
H693 H 0.0429 0.27693 0.77857 0.0
H694 H 0.14888 0.29852 0.81684 0.0
H695 H 0.15042 0.26682 0.80512 0.0
H696 H 0.13975 0.27288 0.83363 0.0
H697 H 0.0841 0.31084 0.74696 0.0
H698 H 0.05591 0.28883 0.74325 0.0
H699 H 0.08625 0.27899 0.73597 0.0
C700 C 0.53387 0.61299 0.48984 0.0
C701 C 0.53691 0.5881 0.48185 0.0
C702 C 0.53069 0.63127 0.47432 0.0
C703 C 0.53039 0.6244 0.45028 0.0
C704 C 0.53334 0.59925 0.44215 0.0
C705 C 0.53668 0.58142 0.45808 0.0
C706 C 0.52777 0.65794 0.48363 0.0
C707 C 0.53293 0.59117 0.41665 0.0
C708 C 0.49911 0.66626 0.40987 0.0
C709 C 0.52023 0.68048 0.40264 0.0
C710 C 0.50216 0.64778 0.42519 0.0
C711 C 0.52692 0.64354 0.43363 0.0
C712 C 0.54832 0.65774 0.42633 0.0
C713 C 0.54473 0.67597 0.41084 0.0
C714 C 0.47889 0.63286 0.43244 0.0
C715 C 0.57501 0.65386 0.43508 0.0
H716 H 0.53417 0.6183 0.50823 0.0
H717 H 0.53907 0.56216 0.45192 0.0
H718 H 0.54301 0.67103 0.47779 0.0
H719 H 0.50934 0.66362 0.47678 0.0
H720 H 0.52862 0.66025 0.5028 0.0
H721 H 0.53526 0.57083 0.41317 0.0
H722 H 0.51471 0.59501 0.40779 0.0
H723 H 0.5484 0.60223 0.40892 0.0
H724 H 0.48012 0.66955 0.40356 0.0
H725 H 0.56113 0.68693 0.40539 0.0
H726 H 0.47801 0.63599 0.45142 0.0
H727 H 0.48003 0.61244 0.42815 0.0
H728 H 0.461 0.63809 0.42393 0.0
H729 H 0.5772 0.65755 0.45417 0.0
H730 H 0.58963 0.66635 0.42764 0.0
H731 H 0.57868 0.63401 0.43077 0.0
C732 C 0.87718 0.75014 0.74274 0.0
C733 C 0.86024 0.76867 0.74394 0.0
C734 C 0.89497 0.74966 0.72594 0.0
C735 C 0.89577 0.76819 0.71002 0.0
C736 C 0.87864 0.78691 0.71113 0.0
C737 C 0.86108 0.78693 0.72809 0.0
C738 C 0.91296 0.72941 0.72528 0.0
C739 C 0.87894 0.80698 0.69446 0.0
C740 C 0.95674 0.78168 0.68065 0.0
C741 C 0.95088 0.76825 0.65889 0.0
C742 C 0.93897 0.78183 0.69743 0.0
C743 C 0.91475 0.7682 0.69236 0.0
C744 C 0.90864 0.75472 0.67041 0.0
C745 C 0.92677 0.75493 0.65392 0.0
C746 C 0.94614 0.79651 0.72062 0.0
C747 C 0.883 0.73996 0.6644 0.0
H748 H 0.87654 0.73602 0.75499 0.0
H749 H 0.84804 0.80134 0.7289 0.0
H750 H 0.91073 0.71845 0.70811 0.0
H751 H 0.9329 0.73812 0.72785 0.0
H752 H 0.90969 0.71624 0.73874 0.0
H753 H 0.86419 0.82005 0.6975 0.0
H754 H 0.89784 0.81809 0.69606 0.0
H755 H 0.87578 0.79811 0.67645 0.0
H756 H 0.97532 0.79201 0.68466 0.0
H757 H 0.9221 0.74446 0.63718 0.0
H758 H 0.94481 0.78368 0.73454 0.0
H759 H 0.93265 0.81081 0.7239 0.0
H760 H 0.96572 0.80621 0.72179 0.0
H761 H 0.8798 0.72544 0.67663 0.0
H762 H 0.88121 0.73052 0.64655 0.0
H763 H 0.86772 0.75265 0.66611 0.0
C764 C 0.07763 0.90711 0.51121 0.0
C765 C 0.06044 0.92347 0.50364 0.0
C766 C 0.07012 0.88808 0.52512 0.0
C767 C 0.0449 0.88569 0.53188 0.0
C768 C 0.02755 0.90247 0.52459 0.0
C769 C 0.03549 0.92111 0.5104 0.0
C770 C 0.08907 0.87034 0.53234 0.0
C771 C 0.00062 0.9007 0.53173 0.0
C772 C 0.01912 0.82211 0.54911 0.0
C773 C 0.02305 0.82564 0.57325 0.0
C774 C 0.02592 0.84159 0.53545 0.0
C775 C 0.03659 0.86527 0.54622 0.0
C776 C 0.04 0.86917 0.5706 0.0
C777 C 0.03335 0.84924 0.58384 0.0
C778 C 0.02225 0.83665 0.50948 0.0
C779 C 0.05099 0.8943 0.58268 0.0
H780 H 0.09692 0.909 0.50598 0.0
H781 H 0.0222 0.93391 0.50475 0.0
H782 H 0.09156 0.87126 0.55144 0.0
H783 H 0.08183 0.85069 0.52597 0.0
H784 H 0.10794 0.87477 0.5256 0.0
H785 H 0.98974 0.9157 0.52519 0.0
H786 H 0.99053 0.88213 0.52513 0.0
H787 H 0.00072 0.90213 0.55084 0.0
H788 H 0.01126 0.8039 0.5408 0.0
H789 H 0.0363 0.85212 0.6025 0.0
H790 H 0.04091 0.83919 0.50195 0.0
H791 H 0.01021 0.85038 0.50231 0.0
H792 H 0.01326 0.81733 0.50383 0.0
H793 H 0.07073 0.89871 0.57795 0.0
H794 H 0.05122 0.89462 0.60177 0.0
H795 H 0.0398 0.90945 0.577 0.0
C796 C 0.17811 0.75687 0.74733 0.0
C797 C 0.18868 0.73405 0.74294 0.0
C798 C 0.1566 0.7623 0.73407 0.0
C799 C 0.14539 0.74447 0.71607 0.0
C800 C 0.1563 0.72164 0.71126 0.0
C801 C 0.1779 0.71674 0.72476 0.0
C802 C 0.14556 0.78691 0.73961 0.0
C803 C 0.14484 0.70216 0.69222 0.0
C804 C 0.07548 0.74635 0.69828 0.0
C805 C 0.07651 0.75846 0.67793 0.0
C806 C 0.09778 0.74164 0.71081 0.0
C807 C 0.12168 0.74931 0.70285 0.0
C808 C 0.12289 0.76168 0.68241 0.0
C809 C 0.10027 0.76608 0.67016 0.0
C810 C 0.09574 0.72834 0.73253 0.0
C811 C 0.14807 0.77023 0.67348 0.0
H812 H 0.18647 0.77043 0.76128 0.0
H813 H 0.18611 0.69912 0.72136 0.0
H814 H 0.14408 0.79724 0.72397 0.0
H815 H 0.12605 0.78318 0.74517 0.0
H816 H 0.15719 0.79921 0.75351 0.0
H817 H 0.15618 0.68581 0.69015 0.0
H818 H 0.12529 0.69525 0.69598 0.0
H819 H 0.14335 0.71071 0.67558 0.0
H820 H 0.05722 0.74034 0.70438 0.0
H821 H 0.10123 0.77546 0.65446 0.0
H822 H 0.10563 0.74043 0.74747 0.0
H823 H 0.10525 0.71076 0.73084 0.0
H824 H 0.0757 0.72351 0.73632 0.0
H825 H 0.15954 0.78346 0.68674 0.0
H826 H 0.14573 0.7797 0.65737 0.0
H827 H 0.15905 0.75385 0.67002 0.0
C828 C 0.96334 0.60364 0.52045 0.0
C829 C 0.9836 0.59099 0.51266 0.0
C830 C 0.96776 0.62569 0.53554 0.0
C831 C 0.99304 0.63532 0.54296 0.0
C832 C 0.0136 0.62309 0.53461 0.0
C833 C 0.00863 0.60104 0.51954 0.0
C834 C 0.94535 0.63832 0.54399 0.0
C835 C 0.04082 0.63287 0.54212 0.0
C836 C 0.00523 0.703 0.56939 0.0
C837 C 0.00684 0.69989 0.59309 0.0
C838 C 0.00082 0.68214 0.55285 0.0
C839 C 0.99794 0.65763 0.5602 0.0
C840 C -0.00046 0.65436 0.58407 0.0
C841 C 0.00398 0.67554 0.60024 0.0
C842 C -0.00077 0.68633 0.52753 0.0
C843 C 0.99652 0.62847 0.59253 0.0
H844 H 0.94398 0.59613 0.51489 0.0
H845 H 0.02433 0.59119 0.51374 0.0
H846 H 0.94517 0.63793 0.56298 0.0
H847 H 0.94706 0.65837 0.54037 0.0
H848 H 0.92693 0.62903 0.53579 0.0
H849 H 0.05462 0.62197 0.53305 0.0
H850 H 0.04441 0.65292 0.53881 0.0
H851 H 0.04438 0.63189 0.56097 0.0
H852 H 0.00742 0.72176 0.56371 0.0
H853 H 0.0052 0.67298 0.6185 0.0
H854 H 0.98042 0.6783 0.51924 0.0
H855 H 0.01385 0.67642 0.51868 0.0
H856 H 0.00202 0.7066 0.52468 0.0
H857 H 0.9776 0.61874 0.58622 0.0
H858 H 0.99841 0.62915 0.61168 0.0
H859 H 0.01104 0.61692 0.5855 0.0
C860 C 0.7963 0.87509 0.22983 0.0
C861 C 0.78954 0.86745 0.20641 0.0
C862 C 0.81282 0.89691 0.2366 0.0
C863 C 0.82307 0.91126 0.21953 0.0
C864 C 0.81613 0.90384 0.19589 0.0
C865 C 0.79933 0.88214 0.18963 0.0
C866 C 0.81964 0.90435 0.26199 0.0
C867 C 0.8268 0.9186 0.17719 0.0
C868 C 0.85161 0.9787 0.23604 0.0
C869 C 0.87763 0.97573 0.23875 0.0
C870 C 0.83357 0.95784 0.23003 0.0
C871 C 0.84181 0.93353 0.22636 0.0
C872 C 0.86804 0.93044 0.22901 0.0
C873 C 0.88562 0.95155 0.23531 0.0
C874 C 0.80571 0.96179 0.22763 0.0
C875 C 0.87758 0.90485 0.22499 0.0
H876 H 0.7891 0.86372 0.24291 0.0
H877 H 0.79383 0.87667 0.17151 0.0
H878 H 0.84026 0.90338 0.26602 0.0
H879 H 0.81574 0.9241 0.26649 0.0
H880 H 0.8089 0.892 0.27311 0.0
H881 H 0.81918 0.91053 0.15962 0.0
H882 H 0.8223 0.93841 0.17968 0.0
H883 H 0.84781 0.91892 0.17826 0.0
H884 H 0.8453 0.99731 0.2388 0.0
H885 H 0.9057 0.94912 0.23727 0.0
H886 H 0.79512 0.95035 0.23951 0.0
H887 H 0.79765 0.95536 0.20982 0.0
H888 H 0.80241 0.98184 0.23148 0.0
H889 H 0.86904 0.8919 0.23685 0.0
H890 H 0.89861 0.90568 0.22767 0.0
H891 H 0.87167 0.8966 0.2071 0.0
C892 C 0.81511 0.20969 0.30478 0.0
C893 C 0.789 0.2019 0.30194 0.0
C894 C 0.83309 0.1925 0.3007 0.0
C895 C 0.8247 0.16687 0.294 0.0
C896 C 0.79833 0.15891 0.2912 0.0
C897 C 0.78079 0.17658 0.29504 0.0
C898 C 0.86103 0.20174 0.30354 0.0
C899 C 0.78865 0.13168 0.28443 0.0
C900 C 0.86828 0.12374 0.26468 0.0
C901 C 0.87728 0.11109 0.28317 0.0
C902 C 0.8516 0.14237 0.26804 0.0
C903 C 0.84346 0.14821 0.29035 0.0
C904 C 0.85268 0.13569 0.30911 0.0
C905 C 0.86962 0.11741 0.30532 0.0
C906 C 0.84244 0.1556 0.24769 0.0
C907 C 0.84421 0.14118 0.3331 0.0
H908 H 0.82144 0.22934 0.30991 0.0
H909 H 0.76059 0.17053 0.29304 0.0
H910 H 0.87069 0.19208 0.3172 0.0
H911 H 0.87003 0.19708 0.28727 0.0
H912 H 0.86437 0.22239 0.3082 0.0
H913 H 0.76756 0.12859 0.28299 0.0
H914 H 0.79565 0.12525 0.26762 0.0
H915 H 0.79608 0.11971 0.29742 0.0
H916 H 0.87423 0.11904 0.24753 0.0
H917 H 0.8764 0.10766 0.31969 0.0
H918 H 0.84649 0.17629 0.25157 0.0
H919 H 0.82155 0.15145 0.24437 0.0
H920 H 0.85154 0.14978 0.23172 0.0
H921 H 0.84859 0.16148 0.33891 0.0
H922 H 0.85349 0.13008 0.3459 0.0
H923 H 0.82331 0.13679 0.33293 0.0
C924 C 0.39953 0.0213 0.99495 0.0
C925 C 0.42175 0.01213 0.98729 0.0
C926 C 0.37989 0.00507 0.00208 0.0
C927 C 0.38242 0.97897 0.00136 0.0
C928 C 0.40465 0.9695 0.9934 0.0
C929 C 0.42409 0.98622 0.98648 0.0
C930 C 0.35643 0.01586 0.01039 0.0
C931 C 0.40794 0.94175 0.99232 0.0
C932 C 0.34094 0.94075 0.03902 0.0
C933 C 0.32085 0.93046 0.02312 0.0
C934 C 0.36131 0.95635 0.03212 0.0
C935 C 0.36161 0.96162 0.00875 0.0
C936 C 0.34156 0.95102 0.99257 0.0
C937 C 0.3214 0.93563 -5e-05 0.0
C938 C 0.38232 0.96745 0.04988 0.0
C939 C 0.34129 0.95613 0.96748 0.0
H940 H 0.39741 0.04125 0.99525 0.0
H941 H 0.44133 0.97906 0.9808 0.0
H942 H 0.33938 0.00736 -0.00064 0.0
H943 H 0.35364 0.01116 0.02827 0.0
H944 H 0.35759 0.03664 0.01015 0.0
H945 H 0.42625 0.93739 0.98547 0.0
H946 H 0.40713 0.93518 0.00981 0.0
H947 H 0.39216 0.93087 0.98118 0.0
H948 H 0.34067 0.93683 0.05694 0.0
H949 H 0.30603 0.92762 0.9875 0.0
H950 H 0.3832 0.9883 0.05127 0.0
H951 H 0.40095 0.96226 0.04442 0.0
H952 H 0.3796 0.96098 0.06722 0.0
H953 H 0.34073 0.97657 0.96598 0.0
H954 H 0.32471 0.94576 0.95694 0.0
H955 H 0.35896 0.95067 0.9601 0.0
C956 C 0.26049 0.34925 0.27406 0.0
C957 C 0.25241 0.32656 0.2829 0.0
C958 C 0.24394 0.36791 0.27143 0.0
C959 C 0.21874 0.36387 0.27796 0.0
C960 C 0.21036 0.34094 0.2867 0.0
C961 C 0.22729 0.32252 0.28903 0.0
C962 C 0.25358 0.39214 0.26205 0.0
C963 C 0.18362 0.33599 0.29386 0.0
C964 C 0.18604 0.4224 0.29323 0.0
C965 C 0.17083 0.42409 0.2729 0.0
C966 C 0.20132 0.40261 0.29525 0.0
C967 C 0.2015 0.3841 0.27643 0.0
C968 C 0.1859 0.38544 0.25597 0.0
C969 C 0.17068 0.40541 0.25447 0.0
C970 C 0.21759 0.40174 0.3174 0.0
C971 C 0.1857 0.36607 0.23552 0.0
H972 H 0.27996 0.35265 0.26959 0.0
H973 H 0.22083 0.30489 0.29556 0.0
H974 H 0.2411 0.39562 0.24685 0.0
H975 H 0.25303 0.40819 0.27532 0.0
H976 H 0.27335 0.39189 0.25686 0.0
H977 H 0.1799 0.31693 0.2998 0.0
H978 H 0.18027 0.35019 0.30805 0.0
H979 H 0.16968 0.33787 0.2792 0.0
H980 H 0.18618 0.43668 0.30761 0.0
H981 H 0.15899 0.40659 0.23869 0.0
H982 H 0.23797 0.40341 0.31389 0.0
H983 H 0.21339 0.38338 0.32452 0.0
H984 H 0.21454 0.41705 0.33073 0.0
H985 H 0.2049 0.36659 0.22895 0.0
H986 H 0.17182 0.36927 0.2212 0.0
H987 H 0.18099 0.3469 0.24082 0.0
C988 C 0.13346 0.01888 0.46737 0.0
C989 C 0.11071 0.02964 0.46299 0.0
C990 C 0.15645 0.03401 0.47315 0.0
C991 C 0.15665 0.06053 0.47462 0.0
C992 C 0.13375 0.07152 0.47019 0.0
C993 C 0.11104 0.05593 0.46437 0.0
C994 C 0.18052 0.02162 0.47761 0.0
C995 C 0.13323 0.09974 0.47171 0.0
C996 C 0.21151 0.09996 0.50978 0.0
C997 C 0.2268 0.10771 0.49246 0.0
C998 C 0.18859 0.08462 0.50421 0.0
C999 C 0.18086 0.07678 0.48078 0.0
C1000 C 0.19626 0.08442 0.46323 0.0
C1001 C 0.21903 0.09983 0.46928 0.0
C1002 C 0.17261 0.07688 0.52339 0.0
C1003 C 0.18866 0.07633 0.43805 0.0
H1004 H 0.13333 -0.00143 0.46602 0.0
H1005 H 0.09344 0.0643 0.46124 0.0
H1006 H 0.19465 0.02747 0.4654 0.0
H1007 H 0.18909 0.02782 0.49531 0.0
H1008 H 0.17711 0.00075 0.47574 0.0
H1009 H 0.11386 0.10528 0.4677 0.0
H1010 H 0.14021 0.10812 0.48933 0.0
H1011 H 0.14615 0.10795 0.45951 0.0
H1012 H 0.21735 0.10601 0.52773 0.0
H1013 H 0.23074 0.10571 0.45578 0.0
H1014 H 0.16997 0.05606 0.52291 0.0
H1015 H 0.15345 0.08344 0.52093 0.0
H1016 H 0.18128 0.08464 0.54073 0.0
H1017 H 0.18638 0.05548 0.43512 0.0
H1018 H 0.20285 0.08378 0.42652 0.0
H1019 H 0.17002 0.08297 0.43309 0.0
C1020 C 0.73247 0.14283 0.71739 0.0
C1021 C 0.75882 0.14182 0.72055 0.0
C1022 C 0.71541 0.12162 0.71943 0.0
C1023 C 0.72493 0.09888 0.72489 0.0
C1024 C 0.75148 0.09783 0.72853 0.0
C1025 C 0.76811 0.1193 0.72624 0.0
C1026 C 0.68722 0.12345 0.71541 0.0
C1027 C 0.76233 0.07391 0.73443 0.0
C1028 C 0.6797 0.04939 0.74792 0.0
C1029 C 0.67273 0.0328 0.72807 0.0
C1030 C 0.69684 0.07089 0.7472 0.0
C1031 C 0.70712 0.07596 0.7261 0.0
C1032 C 0.70021 0.05927 0.70603 0.0
C1033 C 0.68316 0.03785 0.70727 0.0
C1034 C 0.70392 0.0882 0.76899 0.0
C1035 C 0.71068 0.06414 0.68318 0.0
H1036 H 0.72514 0.16028 0.71335 0.0
H1037 H 0.78845 0.11826 0.72841 0.0
H1038 H 0.6792 0.10994 0.70063 0.0
H1039 H 0.67739 0.11825 0.73078 0.0
H1040 H 0.68289 0.14265 0.71173 0.0
H1041 H 0.78334 0.07654 0.73774 0.0
H1042 H 0.75394 0.06712 0.74997 0.0
H1043 H 0.75732 0.05895 0.72004 0.0
H1044 H 0.67178 0.04558 0.76408 0.0
H1045 H 0.67785 0.02516 0.69184 0.0
H1046 H 0.69846 0.10731 0.76645 0.0
H1047 H 0.72481 0.08999 0.773 0.0
H1048 H 0.69454 0.08138 0.78407 0.0
H1049 H 0.70544 0.08252 0.67798 0.0
H1050 H 0.70349 0.04924 0.66921 0.0
H1051 H 0.73174 0.06526 0.68488 0.0
C1052 C 0.44073 0.02955 0.50217 0.0
C1053 C 0.43883 0.01782 0.52266 0.0
C1054 C 0.42338 0.04643 0.49574 0.0
C1055 C 0.40353 0.05144 0.51004 0.0
C1056 C 0.40171 0.03987 0.53088 0.0
C1057 C 0.41945 0.02328 0.53697 0.0
C1058 C 0.42609 0.05863 0.47353 0.0
C1059 C 0.38066 0.04453 0.54646 0.0
C1060 C 0.36781 0.10915 0.50429 0.0
C1061 C 0.34562 0.0988 0.49103 0.0
C1062 C 0.38712 0.09407 0.51017 0.0
C1063 C 0.38402 0.06801 0.50283 0.0
C1064 C 0.36181 0.05754 0.4892 0.0
C1065 C 0.34296 0.07308 0.48337 0.0
C1066 C 0.41066 0.10595 0.52453 0.0
C1067 C 0.35771 0.02978 0.48119 0.0
H1068 H 0.45585 0.02554 0.49118 0.0
H1069 H 0.41774 0.01401 0.55269 0.0
H1070 H 0.40912 0.05266 0.46143 0.0
H1071 H 0.42717 0.07941 0.47697 0.0
H1072 H 0.44327 0.05367 0.46493 0.0
H1073 H 0.38235 0.0346 0.56237 0.0
H1074 H 0.38082 0.06498 0.55154 0.0
H1075 H 0.36197 0.03809 0.53705 0.0
H1076 H 0.37007 0.12903 0.51019 0.0
H1077 H 0.32586 0.0649 0.47316 0.0
H1078 H 0.4279 0.10186 0.51566 0.0
H1079 H 0.41199 0.09774 0.54134 0.0
H1080 H 0.41073 0.12669 0.52788 0.0
H1081 H 0.37368 0.02421 0.47116 0.0
H1082 H 0.33965 0.02469 0.47029 0.0
H1083 H 0.35737 0.01864 0.49636 0.0
C1084 C 0.61402 0.51753 0.53818 0.0
C1085 C 0.59226 0.50988 0.5492 0.0
C1086 C 0.63231 0.5009 0.53337 0.0
C1087 C 0.62879 0.476 0.53978 0.0
C1088 C 0.60704 0.46824 0.5512 0.0
C1089 C 0.58903 0.48528 0.55578 0.0
C1090 C 0.65532 0.50994 0.52128 0.0
C1091 C 0.60264 0.44183 0.55829 0.0
C1092 C 0.66407 0.42713 0.50745 0.0
C1093 C 0.68521 0.42576 0.52295 0.0
C1094 C 0.64535 0.44311 0.51287 0.0
C1095 C 0.64782 0.45807 0.5343 0.0
C1096 C 0.66887 0.45647 0.55018 0.0
C1097 C 0.68731 0.44035 0.54432 0.0
C1098 C 0.62314 0.4443 0.4955 0.0
C1099 C 0.67214 0.4721 0.57321 0.0
H1100 H 0.61681 0.53663 0.53337 0.0
H1101 H 0.57212 0.47918 0.5641 0.0
H1102 H 0.67295 0.50784 0.53203 0.0
H1103 H 0.65593 0.49824 0.50471 0.0
H1104 H 0.65535 0.52996 0.51766 0.0
H1105 H 0.58508 0.43894 0.56752 0.0
H1106 H 0.60114 0.42805 0.54281 0.0
H1107 H 0.61904 0.43768 0.56969 0.0
H1108 H 0.66225 0.41592 0.49093 0.0
H1109 H 0.70353 0.43939 0.55644 0.0
H1110 H 0.62326 0.46361 0.48997 0.0
H1111 H 0.60499 0.4401 0.5035 0.0
H1112 H 0.62356 0.43086 0.47994 0.0
H1113 H 0.67402 0.49241 0.57049 0.0
H1114 H 0.68914 0.46806 0.58394 0.0
H1115 H 0.65509 0.46852 0.58296 0.0
C1116 C 0.7613 0.26054 0.37402 0.0
C1117 C 0.75653 0.27031 0.35279 0.0
C1118 C 0.76252 0.27599 0.39485 0.0
C1119 C 0.75901 0.30181 0.3944 0.0
C1120 C 0.75423 0.31179 0.37302 0.0
C1121 C 0.75303 0.29591 0.35246 0.0
C1122 C 0.76759 0.26467 0.41735 0.0
C1123 C 0.7506 0.33928 0.37184 0.0
C1124 C 0.7418 0.33774 0.44936 0.0
C1125 C 0.76558 0.34961 0.45829 0.0
C1126 C 0.73932 0.32218 0.4285 0.0
C1127 C 0.76111 0.31857 0.41628 0.0
C1128 C 0.78507 0.3308 0.42504 0.0
C1129 C 0.78702 0.34611 0.44594 0.0
C1130 C 0.71347 0.30938 0.41967 0.0
C1131 C 0.80871 0.32753 0.41243 0.0
H1132 H 0.76367 0.2407 0.37435 0.0
H1133 H 0.74961 0.30358 0.33607 0.0
H1134 H 0.78537 0.27417 0.42659 0.0
H1135 H 0.75195 0.26771 0.42869 0.0
H1136 H 0.76942 0.24416 0.41474 0.0
H1137 H 0.74653 0.34395 0.35386 0.0
H1138 H 0.73468 0.34438 0.38216 0.0
H1139 H 0.76795 0.35112 0.37944 0.0
H1140 H 0.72518 0.34031 0.45883 0.0
H1141 H 0.80546 0.35528 0.45266 0.0
H1142 H 0.71392 0.28864 0.41833 0.0
H1143 H 0.70835 0.31462 0.40208 0.0
H1144 H 0.69837 0.31441 0.43105 0.0
H1145 H 0.81228 0.30741 0.41087 0.0
H1146 H 0.82581 0.33879 0.42133 0.0
H1147 H 0.806 0.33324 0.39465 0.0
C1148 C 0.51725 0.98583 0.89912 0.0
C1149 C 0.50674 0.00847 0.90428 0.0
C1150 C 0.53245 0.98286 0.88045 0.0
C1151 C 0.53679 0.0029 0.86643 0.0
C1152 C 0.52559 0.02557 0.8712 0.0
C1153 C 0.51083 0.02816 0.89019 0.0
C1154 C 0.54433 0.95853 0.87606 0.0
C1155 C 0.52944 0.04718 0.85639 0.0
C1156 C 0.59556 0.00683 0.83262 0.0
C1157 C 0.58566 0.99667 0.81053 0.0
C1158 C 0.57991 0.00865 0.85104 0.0
C1159 C 0.55365 0.00047 0.84716 0.0
C1160 C 0.54351 0.99032 0.82486 0.0
C1161 C 0.55969 0.98835 0.80684 0.0
C1162 C 0.59147 0.01926 0.87466 0.0
C1163 C 0.51553 0.98178 0.82001 0.0
H1164 H 0.51405 0.97063 0.91004 0.0
H1165 H 0.5025 0.04562 0.89399 0.0
H1166 H 0.53871 0.95 0.85822 0.0
H1167 H 0.56536 0.96235 0.87762 0.0
H1168 H 0.53872 0.94463 0.88833 0.0
H1169 H 0.51841 0.06305 0.86176 0.0
H1170 H 0.54987 0.05428 0.85742 0.0
H1171 H 0.52367 0.04067 0.83804 0.0
H1172 H 0.61565 0.01314 0.83561 0.0
H1173 H 0.55191 0.98059 0.78975 0.0
H1174 H 0.58765 0.00542 0.88742 0.0
H1175 H 0.5826 0.03645 0.88039 0.0
H1176 H 0.61234 0.02412 0.87493 0.0
H1177 H 0.50979 0.96682 0.83117 0.0
H1178 H 0.51065 0.97442 0.80168 0.0
H1179 H 0.50418 0.99772 0.82418 0.0
C1180 C 0.28856 0.27684 0.35229 0.0
C1181 C 0.28936 0.26344 0.33062 0.0
C1182 C 0.28826 0.26441 0.3725 0.0
C1183 C 0.28867 0.23794 0.37099 0.0
C1184 C 0.28991 0.22437 0.34921 0.0
C1185 C 0.29028 0.2373 0.32929 0.0
C1186 C 0.28711 0.27955 0.39543 0.0
C1187 C 0.29023 0.19612 0.3469 0.0
C1188 C 0.30669 0.20646 0.42491 0.0
C1189 C 0.28275 0.19779 0.43167 0.0
C1190 C 0.30894 0.21972 0.40527 0.0
C1191 C 0.28673 0.22432 0.39206 0.0
C1192 C 0.26253 0.21571 0.39886 0.0
C1193 C 0.26083 0.20261 0.41859 0.0
C1194 C 0.33506 0.22873 0.39859 0.0
C1195 C 0.2384 0.2202 0.38519 0.0
H1196 H 0.28821 0.2971 0.35342 0.0
H1197 H 0.29066 0.22685 0.31256 0.0
H1198 H 0.26923 0.2736 0.4032 0.0
H1199 H 0.30309 0.27598 0.4076 0.0
H1200 H 0.28796 0.3001 0.39375 0.0
H1201 H 0.29223 0.1885 0.32884 0.0
H1202 H 0.30616 0.19069 0.35813 0.0
H1203 H 0.27236 0.1871 0.35272 0.0
H1204 H 0.32371 0.20286 0.43494 0.0
H1205 H 0.24225 0.19597 0.42366 0.0
H1206 H 0.33675 0.24943 0.39786 0.0
H1207 H 0.33801 0.22012 0.3811 0.0
H1208 H 0.35043 0.22399 0.4109 0.0
H1209 H 0.23747 0.24068 0.38427 0.0
H1210 H 0.22106 0.21237 0.39285 0.0
H1211 H 0.23833 0.21146 0.36722 0.0
C1212 C 0.5169 0.48776 0.89978 0.0
C1213 C 0.52952 0.50929 0.91257 0.0
C1214 C 0.50372 0.48938 0.87835 0.0
C1215 C 0.50362 0.51299 0.86921 0.0
C1216 C 0.51655 0.53473 0.88183 0.0
C1217 C 0.52904 0.53267 0.90346 0.0
C1218 C 0.48978 0.46584 0.86555 0.0
C1219 C 0.51714 0.5602 0.87251 0.0
C1220 C 0.48826 0.5136 0.80467 0.0
C1221 C 0.46312 0.51979 0.80388 0.0
C1222 C 0.50177 0.5115 0.82585 0.0
C1223 C 0.48961 0.51508 0.84662 0.0
C1224 C 0.4641 0.52096 0.84587 0.0
C1225 C 0.45126 0.52354 0.82451 0.0
C1226 C 0.52914 0.50576 0.82604 0.0
C1227 C 0.45032 0.52438 0.8676 0.0
H1228 H 0.51749 0.46953 0.90641 0.0
H1229 H 0.53825 0.54953 0.91333 0.0
H1230 H 0.46938 0.46848 0.86224 0.0
H1231 H 0.49755 0.46214 0.84852 0.0
H1232 H 0.49126 0.44903 0.87525 0.0
H1233 H 0.52907 0.57503 0.88397 0.0
H1234 H 0.52464 0.55922 0.85517 0.0
H1235 H 0.49757 0.56587 0.87048 0.0
H1236 H 0.49752 0.51084 0.78875 0.0
H1237 H 0.43174 0.52811 0.82395 0.0
H1238 H 0.53144 0.48807 0.83416 0.0
H1239 H 0.5415 0.52101 0.83656 0.0
H1240 H 0.5359 0.5038 0.8084 0.0
H1241 H 0.45059 0.50727 0.87702 0.0
H1242 H 0.43024 0.52811 0.86396 0.0
H1243 H 0.46014 0.54032 0.87926 0.0
C1244 C 0.79116 0.78181 0.15052 0.0
C1245 C 0.76674 0.78933 0.15273 0.0
C1246 C 0.79683 0.76727 0.13069 0.0
C1247 C 0.7777 0.76043 0.1125 0.0
C1248 C 0.75293 0.76781 0.11474 0.0
C1249 C 0.7477 0.78203 0.13493 0.0
C1250 C 0.82333 0.75939 0.12912 0.0
C1251 C 0.73213 0.76113 0.0956 0.0
C1252 C 0.79871 0.74453 0.05233 0.0
C1253 C 0.79448 0.71818 0.04995 0.0
C1254 C 0.79325 0.75853 0.07258 0.0
C1255 C 0.7837 0.74583 0.091 0.0
C1256 C 0.77981 0.71921 0.08884 0.0
C1257 C 0.78507 0.70572 0.06828 0.0
C1258 C 0.79736 0.78691 0.07415 0.0
C1259 C 0.77004 0.70499 0.10823 0.0
H1260 H 0.80582 0.78727 0.16439 0.0
H1261 H 0.72888 0.78805 0.13656 0.0
H1262 H 0.8225 0.73861 0.12584 0.0
H1263 H 0.83219 0.76757 0.11439 0.0
H1264 H 0.83575 0.76549 0.14512 0.0
H1265 H 0.71385 0.76815 0.10013 0.0
H1266 H 0.7379 0.76927 0.07966 0.0
H1267 H 0.72901 0.74041 0.09159 0.0
H1268 H 0.80582 0.75429 0.03819 0.0
H1269 H 0.78186 0.68534 0.0666 0.0
H1270 H 0.81101 0.79406 0.08905 0.0
H1271 H 0.77919 0.79497 0.07714 0.0
H1272 H 0.80475 0.79391 0.05825 0.0
H1273 H 0.78278 0.71005 0.12418 0.0
H1274 H 0.76867 0.68426 0.10403 0.0
H1275 H 0.75095 0.71036 0.11208 0.0
C1276 C 0.04359 0.05048 0.11569 0.0
C1277 C 0.02918 0.04495 0.09453 0.0
C1278 C 0.03182 0.05125 0.13658 0.0
C1279 C 0.00511 0.04571 0.13622 0.0
C1280 C 0.99052 0.04006 0.11482 0.0
C1281 C 0.00273 0.04005 0.09419 0.0
C1282 C 0.04795 0.05788 0.15901 0.0
C1283 C 0.9621 0.03348 0.11373 0.0
C1284 C 0.97829 0.02165 0.18984 0.0
C1285 C 0.96756 0.04275 0.19939 0.0
C1286 C 0.99046 0.02235 0.16924 0.0
C1287 C 0.99251 0.04491 0.15823 0.0
C1288 C 0.98218 0.06645 0.16805 0.0
C1289 C 0.96951 0.06502 0.18838 0.0
C1290 C 0.00072 -0.00119 0.15905 0.0
C1291 C 0.98453 0.09099 0.15708 0.0
H1292 H 0.06405 0.05444 0.11585 0.0
H1293 H 0.99169 0.03563 0.07776 0.0
H1294 H 0.04067 0.07384 0.16911 0.0
H1295 H 0.04679 0.04167 0.16962 0.0
H1296 H 0.06823 0.0631 0.15623 0.0
H1297 H 0.95353 0.02963 0.0957 0.0
H1298 H 0.95769 0.01658 0.12304 0.0
H1299 H 0.95293 0.04909 0.12245 0.0
H1300 H 0.97663 0.00433 0.19819 0.0
H1301 H 0.96137 0.08141 0.19581 0.0
H1302 H 0.02146 0.00242 0.15751 0.0
H1303 H 0.99166 0.99336 0.14138 0.0
H1304 H 0.99729 0.98272 0.16962 0.0
H1305 H 0.00482 0.09696 0.15505 0.0
H1306 H 0.97642 0.10629 0.16741 0.0
H1307 H 0.97456 0.08845 0.13956 0.0
C1308 C 0.28601 0.79098 0.17608 0.0
C1309 C 0.28118 0.76478 0.17199 0.0
C1310 C 0.27977 0.80668 0.15895 0.0
C1311 C 0.26867 0.79582 0.13717 0.0
C1312 C 0.26382 0.76932 0.13294 0.0
C1313 C 0.27006 0.75409 0.15045 0.0
C1314 C 0.28508 0.83486 0.16413 0.0
C1315 C 0.25218 0.75706 0.10986 0.0
C1316 C 0.23184 0.83542 0.09851 0.0
C1317 C 0.24979 0.84202 0.08288 0.0
C1318 C 0.23784 0.82065 0.11646 0.0
C1319 C 0.2623 0.81214 0.11872 0.0
C1320 C 0.28056 0.81889 0.10312 0.0
C1321 C 0.27411 0.83383 0.08544 0.0
C1322 C 0.21795 0.81398 0.13289 0.0
C1323 C 0.3068 0.81006 0.10493 0.0
H1324 H 0.29462 0.79921 0.19276 0.0
H1325 H 0.26641 0.73381 0.14716 0.0
H1326 H 0.29839 0.84248 0.15196 0.0
H1327 H 0.26722 0.8439 0.16163 0.0
H1328 H 0.29344 0.84031 0.18206 0.0
H1329 H 0.24965 0.7362 0.10935 0.0
H1330 H 0.23338 0.76388 0.10593 0.0
H1331 H 0.26442 0.76238 0.09599 0.0
H1332 H 0.21304 0.84175 0.0967 0.0
H1333 H 0.28808 0.83881 0.07342 0.0
H1334 H 0.22535 0.82028 0.15092 0.0
H1335 H 0.21348 0.79324 0.1318 0.0
H1336 H 0.20007 0.82265 0.12915 0.0
H1337 H 0.31642 0.81637 0.12222 0.0
H1338 H 0.31889 0.81721 0.09159 0.0
H1339 H 0.30531 0.78918 0.10301 0.0
C1340 C 0.03256 0.49288 0.08628 0.0
C1341 C 0.00646 0.49551 0.08492 0.0
C1342 C 0.04636 0.49327 0.10772 0.0
C1343 C 0.03365 0.49607 0.12825 0.0
C1344 C 0.00728 0.49878 0.12698 0.0
C1345 C 0.99401 0.49862 0.10529 0.0
C1346 C 0.07453 0.49069 0.10839 0.0
C1347 C 0.99304 0.50154 0.14849 0.0
C1348 C 0.06526 0.47347 0.182 0.0
C1349 C 0.0765 0.49617 0.19373 0.0
C1350 C 0.0509 0.4732 0.16084 0.0
C1351 C 0.04801 0.49614 0.15106 0.0
C1352 C 0.05924 0.51911 0.16285 0.0
C1353 C 0.07322 0.51886 0.18412 0.0
C1354 C 0.03895 0.44836 0.14887 0.0
C1355 C 0.05681 0.54392 0.15284 0.0
H1356 H 0.04224 0.49073 0.07053 0.0
H1357 H 0.97377 0.50041 0.10423 0.0
H1358 H 0.08521 0.50722 0.11865 0.0
H1359 H 0.07879 0.47375 0.11703 0.0
H1360 H 0.08161 0.4891 0.09087 0.0
H1361 H 0.97255 0.50342 0.14451 0.0
H1362 H 0.99477 0.48492 0.15838 0.0
H1363 H 0.00149 0.51834 0.15985 0.0
H1364 H 0.06763 0.45588 0.18938 0.0
H1365 H 0.08196 0.53647 0.19303 0.0
H1366 H 0.04679 0.44489 0.13184 0.0
H1367 H 0.01815 0.44894 0.14562 0.0
H1368 H 0.04229 0.4323 0.15913 0.0
H1369 H 0.0651 0.54363 0.13585 0.0
H1370 H 0.06653 0.56013 0.16428 0.0
H1371 H 0.03647 0.54691 0.14986 0.0
C1372 C 0.34451 0.69591 0.27093 0.0
C1373 C 0.34334 0.69889 0.24724 0.0
C1374 C 0.36728 0.70216 0.2848 0.0
C1375 C 0.38938 0.71158 0.2747 0.0
C1376 C 0.38844 0.71411 0.2507 0.0
C1377 C 0.36543 0.70773 0.23726 0.0
C1378 C 0.36756 0.69927 0.31035 0.0
C1379 C 0.41165 0.72397 0.2393 0.0
C1380 C 0.44041 0.75262 0.31314 0.0
C1381 C 0.45844 0.73566 0.31728 0.0
C1382 C 0.41786 0.74499 0.29933 0.0
C1383 C 0.41322 0.71979 0.28939 0.0
C1384 C 0.43135 0.70258 0.2934 0.0
C1385 C 0.45376 0.71072 0.30732 0.0
C1386 C 0.39896 0.7639 0.29542 0.0
C1387 C 0.42704 0.67556 0.28303 0.0
H1388 H 0.32742 0.6893 0.27874 0.0
H1389 H 0.36468 0.7097 0.21888 0.0
H1390 H 0.3827 0.68747 0.31553 0.0
H1391 H 0.37194 0.71799 0.32026 0.0
H1392 H 0.34908 0.69059 0.31531 0.0
H1393 H 0.40797 0.72387 0.22031 0.0
H1394 H 0.41799 0.74354 0.24662 0.0
H1395 H 0.42754 0.71243 0.24285 0.0
H1396 H 0.44385 0.77193 0.32077 0.0
H1397 H 0.46758 0.69748 0.31045 0.0
H1398 H 0.38038 0.75721 0.3016 0.0
H1399 H 0.39577 0.76584 0.27668 0.0
H1400 H 0.40541 0.78277 0.30445 0.0
H1401 H 0.40932 0.66631 0.28893 0.0
H1402 H 0.44304 0.66456 0.28778 0.0
H1403 H 0.42454 0.6749 0.26394 0.0
C1404 C 0.00146 0.38708 0.99812 0.0
C1405 C 0.99513 0.41065 0.99235 0.0
C1406 C 0.00707 0.36871 0.98112 0.0
C1407 C 0.00634 0.37409 0.95775 0.0
C1408 C -8e-05 0.39789 0.95178 0.0
C1409 C 0.99438 0.41595 0.96919 0.0
C1410 C 0.01379 0.34355 0.98817 0.0
C1411 C -0.00106 0.40428 0.92704 0.0
C1412 C 0.04317 0.33368 0.91787 0.0
C1413 C 0.02392 0.31572 0.90745 0.0
C1414 C 0.03764 0.35315 0.9339 0.0
C1415 C 0.01225 0.35467 0.93962 0.0
C1416 C 0.99265 0.33693 0.9288 0.0
C1417 C -0.00128 0.31767 0.91285 0.0
C1418 C 0.05904 0.37175 0.94508 0.0
C1419 C 0.96534 0.33795 0.93444 0.0
H1420 H 0.00206 0.38301 0.01604 0.0
H1421 H 0.98953 0.43418 0.96464 0.0
H1422 H 0.00021 0.32822 0.97917 0.0
H1423 H 0.03302 0.34012 0.98296 0.0
H1424 H 0.0135 0.34237 0.00709 0.0
H1425 H 0.99361 0.42362 0.92527 0.0
H1426 H 0.01774 0.40265 0.92005 0.0
H1427 H 0.98497 0.39069 0.91625 0.0
H1428 H 0.06268 0.33238 0.91376 0.0
H1429 H 0.98369 0.30394 0.90482 0.0
H1430 H 0.06091 0.37014 0.96395 0.0
H1431 H 0.05478 0.39126 0.94262 0.0
H1432 H 0.07755 0.36868 0.93796 0.0
H1433 H 0.96357 0.33503 0.9529 0.0
H1434 H 0.95219 0.32346 0.92372 0.0
H1435 H 0.95921 0.35678 0.93177 0.0
C1436 C 0.66914 0.79248 0.24233 0.0
C1437 C 0.68944 0.80855 0.25364 0.0
C1438 C 0.64763 0.78524 0.25396 0.0
C1439 C 0.64645 0.79436 0.27737 0.0
C1440 C 0.66689 0.81066 0.28879 0.0
C1441 C 0.68815 0.81753 0.27677 0.0
C1442 C 0.62621 0.76781 0.24124 0.0
C1443 C 0.66632 0.82085 0.31372 0.0
C1444 C 0.58219 0.79494 0.30259 0.0
C1445 C 0.5816 0.77374 0.31516 0.0
C1446 C 0.60307 0.80172 0.29002 0.0
C1447 C 0.62384 0.78693 0.28999 0.0
C1448 C 0.62327 0.76539 0.30247 0.0
C1449 C 0.60218 0.75907 0.31492 0.0
C1450 C 0.603 0.82486 0.27697 0.0
C1451 C 0.64506 0.74914 0.30282 0.0
H1452 H 0.67003 0.78548 0.22443 0.0
H1453 H 0.70385 0.82998 0.2855 0.0
H1454 H 0.62304 0.75047 0.25021 0.0
H1455 H 0.60831 0.77701 0.2412 0.0
H1456 H 0.63008 0.76235 0.22308 0.0
H1457 H 0.68374 0.83339 0.32004 0.0
H1458 H 0.64957 0.83157 0.31578 0.0
H1459 H 0.66437 0.80507 0.32481 0.0
H1460 H 0.56639 0.80638 0.30264 0.0
H1461 H 0.60187 0.74263 0.32454 0.0
H1462 H 0.60543 0.81979 0.25845 0.0
H1463 H 0.61926 0.83871 0.28372 0.0
H1464 H 0.58516 0.83405 0.27837 0.0
H1465 H 0.64855 0.74221 0.28494 0.0
H1466 H 0.64142 0.73269 0.31291 0.0
H1467 H 0.66271 0.76046 0.31045 0.0
C1468 C 0.0337 0.11539 0.98779 0.0
C1469 C 0.03891 0.09147 0.97876 0.0
C1470 C 0.0294 0.13431 0.9732 0.0
C1471 C 0.03018 0.12908 0.94904 0.0
C1472 C 0.03547 0.10495 0.93987 0.0
C1473 C 0.03988 0.08646 0.95488 0.0
C1474 C 0.02399 0.15987 0.98362 0.0
C1475 C 0.0363 0.09863 0.91419 0.0
C1476 C 0.9954 0.1702 0.91034 0.0
C1477 C 0.0154 0.18676 0.90421 0.0
C1478 C -2e-05 0.15119 0.92473 0.0
C1479 C 0.02516 0.1488 0.93335 0.0
C1480 C 0.04546 0.1654 0.92719 0.0
C1481 C 0.04035 0.18413 0.91261 0.0
C1482 C 0.97786 0.13371 0.93077 0.0
C1483 C 0.07255 0.16352 0.93619 0.0
H1484 H 0.03308 0.11944 0.00627 0.0
H1485 H 0.04395 0.06796 0.94792 0.0
H1486 H 0.03816 0.17462 0.97862 0.0
H1487 H 0.00499 0.16421 0.97684 0.0
H1488 H 0.02449 0.16102 0.00277 0.0
H1489 H 0.04072 0.07899 0.90985 0.0
H1490 H 0.01772 0.10115 0.90519 0.0
H1491 H 0.05087 0.11166 0.90736 0.0
H1492 H 0.97607 0.17204 0.90385 0.0
H1493 H 0.05591 0.19688 0.908 0.0
H1494 H 0.97644 0.13543 0.94974 0.0
H1495 H 0.98095 0.11389 0.92555 0.0
H1496 H 0.95949 0.13776 0.92227 0.0
H1497 H 0.07415 0.1661 0.95534 0.0
H1498 H 0.08619 0.17778 0.92967 0.0
H1499 H 0.07814 0.14451 0.93104 0.0
C1500 C 0.35686 0.27933 0.21799 0.0
C1501 C 0.35783 0.26237 0.23499 0.0
C1502 C 0.3745 0.27983 0.20109 0.0
C1503 C 0.39357 0.26304 0.20126 0.0
C1504 C 0.39452 0.24577 0.21828 0.0
C1505 C 0.37658 0.24563 0.23494 0.0
C1506 C 0.37285 0.29847 0.18318 0.0
C1507 C 0.41463 0.22761 0.21902 0.0
C1508 C 0.42661 0.24947 0.14634 0.0
C1509 C 0.44956 0.26497 0.15097 0.0
C1510 C 0.40818 0.24868 0.16255 0.0
C1511 C 0.41278 0.26382 0.18382 0.0
C1512 C 0.43577 0.2797 0.18849 0.0
C1513 C 0.4539 0.28006 0.17203 0.0
C1514 C 0.38389 0.23148 0.15699 0.0
C1515 C 0.4413 0.29621 0.21095 0.0
H1516 H 0.34237 0.29231 0.21787 0.0
H1517 H 0.37734 0.23254 0.24809 0.0
H1518 H 0.39067 0.31133 0.18442 0.0
H1519 H 0.37078 0.28841 0.1656 0.0
H1520 H 0.35661 0.30996 0.18521 0.0
H1521 H 0.41251 0.21513 0.23317 0.0
H1522 H 0.41367 0.21572 0.20237 0.0
H1523 H 0.43379 0.23819 0.22146 0.0
H1524 H 0.42313 0.2377 0.13015 0.0
H1525 H 0.47157 0.29211 0.17574 0.0
H1526 H 0.36726 0.24255 0.15782 0.0
H1527 H 0.38204 0.21762 0.17001 0.0
H1528 H 0.38313 0.22107 0.13959 0.0
H1529 H 0.42623 0.30907 0.21318 0.0
H1530 H 0.45998 0.30769 0.21181 0.0
H1531 H 0.44119 0.2844 0.22567 0.0
C1532 C 0.52699 0.42678 0.01231 0.0
C1533 C 0.53658 0.45016 0.02381 0.0
C1534 C 0.52198 0.4057 0.0246 0.0
C1535 C 0.52655 0.40814 0.04894 0.0
C1536 C 0.53593 0.43179 0.06064 0.0
C1537 C 0.54093 0.45251 0.04789 0.0
C1538 C 0.51214 0.38074 0.01151 0.0
C1539 C 0.5409 0.43515 0.08659 0.0
C1540 C 0.49362 0.35822 0.08216 0.0
C1541 C 0.51312 0.34282 0.08631 0.0
C1542 C 0.49779 0.37969 0.07021 0.0
C1543 C 0.52198 0.38581 0.0621 0.0
C1544 C 0.54177 0.37042 0.06631 0.0
C1545 C 0.53713 0.34916 0.07844 0.0
C1546 C 0.47628 0.39577 0.06617 0.0
C1547 C 0.56779 0.37627 0.05781 0.0
H1548 H 0.52369 0.42482 0.99367 0.0
H1549 H 0.54836 0.4706 0.05677 0.0
H1550 H 0.52573 0.36663 0.01454 0.0
H1551 H 0.4938 0.37362 0.01789 0.0
H1552 H 0.50925 0.38209 0.99263 0.0
H1553 H 0.54751 0.45494 0.09309 0.0
H1554 H 0.52333 0.42928 0.09489 0.0
H1555 H 0.55553 0.42292 0.09206 0.0
H1556 H 0.47504 0.3535 0.08825 0.0
H1557 H 0.55229 0.33735 0.08152 0.0
H1558 H 0.47178 0.39624 0.04737 0.0
H1559 H 0.48207 0.41543 0.07352 0.0
H1560 H 0.45877 0.38872 0.07401 0.0
H1561 H 0.56622 0.37624 0.03873 0.0
H1562 H 0.58116 0.3625 0.06265 0.0
H1563 H 0.57598 0.39537 0.06504 0.0
C1564 C 0.67114 0.21224 0.2243 0.0
C1565 C 0.68138 0.23022 0.24218 0.0
C1566 C 0.65017 0.21675 0.20977 0.0
C1567 C 0.63932 0.23982 0.21324 0.0
C1568 C 0.64987 0.2582 0.23106 0.0
C1569 C 0.67078 0.25317 0.24533 0.0
C1570 C 0.63939 0.19671 0.19095 0.0
C1571 C 0.63885 0.28304 0.23525 0.0
C1572 C 0.59729 0.26148 0.16504 0.0
C1573 C 0.57293 0.25495 0.17208 0.0
C1574 C 0.61911 0.25642 0.17814 0.0
C1575 C 0.61646 0.24453 0.19871 0.0
C1576 C 0.59194 0.23774 0.20582 0.0
C1577 C 0.57047 0.24306 0.19243 0.0
C1578 C 0.64499 0.26398 0.17008 0.0
C1579 C 0.58837 0.225 0.22767 0.0
H1580 H 0.67938 0.19452 0.22186 0.0
H1581 H 0.67867 0.26724 0.25905 0.0
H1582 H 0.61945 0.19032 0.19395 0.0
H1583 H 0.63908 0.20455 0.17395 0.0
H1584 H 0.65048 0.18011 0.19011 0.0
H1585 H 0.64975 0.29561 0.2494 0.0
H1586 H 0.63861 0.29291 0.21929 0.0
H1587 H 0.61888 0.27971 0.23976 0.0
H1588 H 0.59935 0.27063 0.14931 0.0
H1589 H 0.55173 0.23787 0.19797 0.0
H1590 H 0.65583 0.2473 0.16797 0.0
H1591 H 0.65598 0.27769 0.18327 0.0
H1592 H 0.64377 0.2726 0.15343 0.0
H1593 H 0.59779 0.20735 0.22697 0.0
H1594 H 0.56799 0.22041 0.23049 0.0
H1595 H 0.59746 0.2374 0.24278 0.0
C1596 C 0.45665 0.10809 0.01112 0.0
C1597 C 0.47559 0.09448 0.00196 0.0
C1598 C 0.46297 0.12992 0.02622 0.0
C1599 C 0.48887 0.13841 0.03219 0.0
C1600 C 0.50809 0.12524 0.02243 0.0
C1601 C 0.50122 0.10337 0.00744 0.0
C1602 C 0.44194 0.14352 0.03625 0.0
C1603 C 0.53591 0.13379 0.02836 0.0
C1604 C 0.50441 0.20551 0.05948 0.0
C1605 C 0.5071 0.20185 0.08302 0.0
C1606 C 0.49882 0.185 0.04266 0.0
C1607 C 0.49577 0.16031 0.0496 0.0
C1608 C 0.49868 0.15648 0.07331 0.0
C1609 C 0.50436 0.1773 0.08973 0.0
C1610 C 0.49595 0.18975 0.01751 0.0
C1611 C 0.49549 0.1304 0.08136 0.0
H1612 H 0.43681 0.10152 0.00662 0.0
H1613 H 0.51593 0.09279 0.00058 0.0
H1614 H 0.44305 0.14293 0.05527 0.0
H1615 H 0.44419 0.16362 0.03284 0.0
H1616 H 0.42278 0.1351 0.02905 0.0
H1617 H 0.54845 0.12248 0.01808 0.0
H1618 H 0.53999 0.15388 0.02535 0.0
H1619 H 0.54078 0.13221 0.04695 0.0
H1620 H 0.50658 0.22443 0.05415 0.0
H1621 H 0.50642 0.1743 0.10788 0.0
H1622 H 0.47642 0.1829 0.01016 0.0
H1623 H 0.50927 0.1791 0.00759 0.0
H1624 H 0.49965 0.21003 0.01493 0.0
H1625 H 0.47597 0.12147 0.07613 0.0
H1626 H 0.49885 0.13062 0.1004 0.0
H1627 H 0.50889 0.11839 0.07306 0.0
C1628 C 0.30166 0.36234 0.69751 0.0
C1629 C 0.27528 0.36178 0.69884 0.0
C1630 C 0.31753 0.3849 0.70225 0.0
C1631 C 0.30678 0.40745 0.70863 0.0
C1632 C 0.28023 0.40698 0.71041 0.0
C1633 C 0.26478 0.38415 0.70543 0.0
C1634 C 0.34577 0.38466 0.7002 0.0
C1635 C 0.26812 0.43065 0.71726 0.0
C1636 C 0.35084 0.46174 0.73946 0.0
C1637 C 0.35584 0.47675 0.7214 0.0
C1638 C 0.33467 0.43928 0.73561 0.0
C1639 C 0.32334 0.43157 0.71314 0.0
C1640 C 0.3282 0.44667 0.69485 0.0
C1641 C 0.34434 0.46913 0.69922 0.0
C1642 C 0.32981 0.42372 0.75556 0.0
C1643 C 0.31653 0.43896 0.67063 0.0
H1644 H 0.30994 0.34505 0.69278 0.0
H1645 H 0.24438 0.38391 0.70623 0.0
H1646 H 0.35203 0.39727 0.6871 0.0
H1647 H 0.35632 0.39195 0.71688 0.0
H1648 H 0.35113 0.36549 0.6952 0.0
H1649 H 0.2473 0.42694 0.71857 0.0
H1650 H 0.27697 0.43955 0.73414 0.0
H1651 H 0.27145 0.44444 0.70437 0.0
H1652 H 0.35957 0.46754 0.75668 0.0
H1653 H 0.34811 0.4806 0.68517 0.0
H1654 H 0.33636 0.40481 0.75195 0.0
H1655 H 0.30911 0.42092 0.75767 0.0
H1656 H 0.33965 0.43263 0.77208 0.0
H1657 H 0.32264 0.42053 0.66425 0.0
H1658 H 0.32197 0.45297 0.6584 0.0
H1659 H 0.2955 0.43658 0.67058 0.0
C1660 C 0.3057 0.6988 0.78138 0.0
C1661 C 0.29334 0.69823 0.8019 0.0
C1662 C 0.3231 0.68148 0.77577 0.0
C1663 C 0.32822 0.66312 0.79103 0.0
C1664 C 0.31606 0.66264 0.81192 0.0
C1665 C 0.29879 0.68025 0.81712 0.0
C1666 C 0.3358 0.68266 0.75341 0.0
C1667 C 0.32097 0.64327 0.82857 0.0
C1668 C 0.35271 0.60282 0.76652 0.0
C1669 C 0.37873 0.60705 0.77353 0.0
C1670 C 0.3361 0.62095 0.77204 0.0
C1671 C 0.34574 0.64393 0.78482 0.0
C1672 C 0.37202 0.64846 0.79174 0.0
C1673 C 0.3882 0.62994 0.78603 0.0
C1674 C 0.30818 0.61543 0.76439 0.0
C1675 C 0.38298 0.67279 0.8053 0.0
H1676 H 0.30182 0.71291 0.76973 0.0
H1677 H 0.28911 0.67961 0.83289 0.0
H1678 H 0.35677 0.68477 0.75692 0.0
H1679 H 0.33067 0.66483 0.74224 0.0
H1680 H 0.33027 0.69853 0.74375 0.0
H1681 H 0.31054 0.64591 0.84437 0.0
H1682 H 0.31508 0.6241 0.82001 0.0
H1683 H 0.34159 0.64423 0.83374 0.0
H1684 H 0.3452 0.58519 0.75687 0.0
H1685 H 0.40828 0.63338 0.7915 0.0
H1686 H 0.30206 0.63006 0.75348 0.0
H1687 H 0.29677 0.61601 0.77966 0.0
H1688 H 0.30375 0.59671 0.75443 0.0
H1689 H 0.37874 0.689 0.79559 0.0
H1690 H 0.40389 0.67358 0.80903 0.0
H1691 H 0.37399 0.67506 0.82191 0.0
C1692 C 0.93258 0.50249 0.52135 0.0
C1693 C 0.93597 0.50538 0.498 0.0
C1694 C 0.91251 0.48627 0.52781 0.0
C1695 C 0.89571 0.47218 0.51051 0.0
C1696 C 0.89959 0.47421 0.48693 0.0
C1697 C 0.91956 0.49093 0.48095 0.0
C1698 C 0.90887 0.48473 0.55314 0.0
C1699 C 0.88225 0.4592 0.46799 0.0
C1700 C 0.85425 0.41553 0.52646 0.0
C1701 C 0.8306 0.42513 0.52768 0.0
C1702 C 0.87568 0.43066 0.52099 0.0
C1703 C 0.87346 0.45608 0.51707 0.0
C1704 C 0.84982 0.46608 0.51899 0.0
C1705 C 0.8286 0.45041 0.52408 0.0
C1706 C 0.9005 0.41925 0.51875 0.0
C1707 C 0.84684 0.49325 0.51536 0.0
H1708 H 0.94549 0.51316 0.53464 0.0
H1709 H 0.92183 0.49322 0.46289 0.0
H1710 H 0.8902 0.49114 0.55715 0.0
H1711 H 0.9087 0.46495 0.55741 0.0
H1712 H 0.92401 0.49645 0.56445 0.0
H1713 H 0.88892 0.46157 0.45058 0.0
H1714 H 0.88087 0.4389 0.47072 0.0
H1715 H 0.86281 0.46524 0.46845 0.0
H1716 H 0.85585 0.39593 0.52904 0.0
H1717 H 0.81038 0.45794 0.52511 0.0
H1718 H 0.91577 0.43026 0.53038 0.0
H1719 H 0.90625 0.42 0.50084 0.0
H1720 H 0.89922 0.39935 0.52291 0.0
H1721 H 0.86087 0.50586 0.52705 0.0
H1722 H 0.82746 0.49839 0.51853 0.0
H1723 H 0.85071 0.49679 0.4974 0.0
C1724 C 0.72479 0.82405 0.79153 0.0
C1725 C 0.75032 0.82919 0.78695 0.0
C1726 C 0.70724 0.84171 0.78816 0.0
C1727 C 0.71544 0.86501 0.77998 0.0
C1728 C 0.7411 0.87018 0.77507 0.0
C1729 C 0.75823 0.85226 0.77869 0.0
C1730 C 0.68002 0.83557 0.79359 0.0
C1731 C 0.75059 0.89484 0.76636 0.0
C1732 C 0.66784 0.90507 0.75339 0.0
C1733 C 0.66609 0.92356 0.77163 0.0
C1734 C 0.68343 0.88555 0.75599 0.0
C1735 C 0.6975 0.88448 0.77734 0.0
C1736 C 0.69536 0.90275 0.79596 0.0
C1737 C 0.67972 0.92208 0.79286 0.0
C1738 C 0.68532 0.86642 0.73574 0.0
C1739 C 0.71 0.9022 0.81902 0.0
H1740 H 0.7185 0.80615 0.79767 0.0
H1741 H 0.778 0.85654 0.77546 0.0
H1742 H 0.6751 0.84939 0.80747 0.0
H1743 H 0.66699 0.83707 0.77817 0.0
H1744 H 0.67654 0.81636 0.79924 0.0
H1745 H 0.77088 0.89551 0.7625 0.0
H1746 H 0.73905 0.89796 0.75046 0.0
H1747 H 0.74844 0.91063 0.77948 0.0
H1748 H 0.65736 0.90607 0.73694 0.0
H1749 H 0.67839 0.9362 0.8071 0.0
H1750 H 0.68089 0.84709 0.74079 0.0
H1751 H 0.70506 0.86778 0.73036 0.0
H1752 H 0.67223 0.86916 0.72067 0.0
H1753 H 0.70587 0.88363 0.82576 0.0
H1754 H 0.70534 0.91712 0.83205 0.0
H1755 H 0.73071 0.90477 0.81692 0.0
C1756 C 0.60503 0.56295 0.96729 0.0
C1757 C 0.60355 0.53714 0.97005 0.0
C1758 C 0.62773 0.57849 0.97321 0.0
C1759 C 0.64949 0.5679 0.98191 0.0
C1760 C 0.64807 0.54185 0.98481 0.0
C1761 C 0.62505 0.52678 0.97893 0.0
C1762 C 0.62845 0.60623 0.9701 0.0
C1763 C 0.67096 0.52986 0.99382 0.0
C1764 C 0.71385 0.60315 0.97582 0.0
C1765 C 0.71991 0.61505 0.99817 0.0
C1766 C 0.69107 0.58759 0.97035 0.0
C1767 C 0.67385 0.58402 0.98759 0.0
C1768 C 0.6798 0.59601 0.01016 0.0
C1769 C 0.70283 0.61132 0.01521 0.0
C1770 C 0.68544 0.57495 0.94613 0.0
C1771 C 0.66178 0.5928 0.02893 0.0
H1772 H 0.58832 0.57101 0.96066 0.0
H1773 H 0.62398 0.50678 0.98085 0.0
H1774 H 0.63447 0.6175 0.98677 0.0
H1775 H 0.64265 0.61136 0.95772 0.0
H1776 H 0.6097 0.61159 0.96362 0.0
H1777 H 0.66661 0.5094 0.99531 0.0
H1778 H 0.6865 0.53244 0.98214 0.0
H1779 H 0.67817 0.53919 0.01105 0.0
H1780 H 0.72699 0.60587 0.96258 0.0
H1781 H 0.70734 0.6205 0.0325 0.0
H1782 H 0.66765 0.58104 0.93827 0.0
H1783 H 0.68243 0.55423 0.94658 0.0
H1784 H 0.70103 0.57935 0.93483 0.0
H1785 H 0.64318 0.59928 0.02358 0.0
H1786 H 0.66922 0.60346 0.04558 0.0
H1787 H 0.65824 0.57259 0.03172 0.0
C1788 C 0.27293 0.61984 0.22604 0.0
C1789 C 0.26282 0.64277 0.22322 0.0
C1790 C 0.25703 0.59781 0.22811 0.0
C1791 C 0.23036 0.59865 0.22705 0.0
C1792 C 0.22002 0.62167 0.22417 0.0
C1793 C 0.23637 0.64347 0.22245 0.0
C1794 C 0.26874 0.57361 0.23132 0.0
C1795 C 0.19166 0.62328 0.22282 0.0
C1796 C 0.18725 0.53827 0.21026 0.0
C1797 C 0.17895 0.53238 0.23166 0.0
C1798 C 0.20415 0.55969 0.20853 0.0
C1799 C 0.21319 0.57541 0.22874 0.0
C1800 C 0.20527 0.5693 0.25046 0.0
C1801 C 0.1881 0.54793 0.25165 0.0
C1802 C 0.21195 0.56576 0.18503 0.0
C1803 C 0.21475 0.58547 0.27242 0.0
H1804 H 0.29331 0.61903 0.22634 0.0
H1805 H 0.22839 0.66116 0.2207 0.0
H1806 H 0.26254 0.56582 0.24729 0.0
H1807 H 0.26213 0.55937 0.21668 0.0
H1808 H 0.28985 0.57628 0.23247 0.0
H1809 H 0.18666 0.64257 0.22026 0.0
H1810 H 0.18228 0.61013 0.20834 0.0
H1811 H 0.18376 0.61749 0.23892 0.0
H1812 H 0.18017 0.5264 0.19473 0.0
H1813 H 0.18187 0.5434 0.26827 0.0
H1814 H 0.23295 0.56716 0.18482 0.0
H1815 H 0.20586 0.58432 0.18122 0.0
H1816 H 0.20356 0.55137 0.17106 0.0
H1817 H 0.23584 0.5874 0.27426 0.0
H1818 H 0.20754 0.57758 0.28801 0.0
H1819 H 0.20871 0.60466 0.27166 0.0
C1820 C 0.94449 0.54227 0.00989 0.0
C1821 C 0.94487 0.53157 0.03102 0.0
C1822 C 0.92825 0.56077 0.00526 0.0
C1823 C 0.912 0.56873 0.02216 0.0
C1824 C 0.91234 0.55805 0.04354 0.0
C1825 C 0.92874 0.5396 0.0477 0.0
C1826 C 0.92844 0.57176 0.98228 0.0
C1827 C 0.8952 0.56596 0.06195 0.0
C1828 C 0.8844 0.6315 0.0196 0.0
C1829 C 0.85965 0.6239 0.00986 0.0
C1830 C 0.90178 0.61377 0.02342 0.0
C1831 C 0.89421 0.58786 0.01736 0.0
C1832 C 0.86938 0.58011 0.00725 0.0
C1833 C 0.85241 0.5982 0.00362 0.0
C1834 C 0.92813 0.62274 0.03422 0.0
C1835 C 0.8606 0.55264 0.00056 0.0
H1836 H 0.95713 0.53636 0.99704 0.0
H1837 H 0.92868 0.53116 0.06393 0.0
H1838 H 0.90928 0.56818 0.97302 0.0
H1839 H 0.9331 0.59248 0.985 0.0
H1840 H 0.94241 0.56373 0.97109 0.0
H1841 H 0.89813 0.55618 0.07782 0.0
H1842 H 0.89867 0.58656 0.06667 0.0
H1843 H 0.87501 0.56185 0.05523 0.0
H1844 H 0.89018 0.6513 0.02444 0.0
H1845 H 0.83335 0.59213 0.99605 0.0
H1846 H 0.94263 0.61607 0.02291 0.0
H1847 H 0.93119 0.61466 0.05095 0.0
H1848 H 0.93131 0.64358 0.03728 0.0
H1849 H 0.87346 0.5444 0.98838 0.0
H1850 H 0.84088 0.54978 0.99235 0.0
H1851 H 0.86139 0.54206 0.01609 0.0
C1852 C 0.11434 0.01637 0.03422 0.0
C1853 C 0.09165 0.00846 0.04373 0.0
C1854 C 0.13253 -0.00043 0.02962 0.0
C1855 C 0.12787 0.97421 0.03455 0.0
C1856 C 0.10506 0.96613 0.04426 0.0
C1857 C 0.08725 0.98338 0.0488 0.0
C1858 C 0.15673 0.00895 0.01945 0.0
C1859 C 0.09937 0.93921 0.04964 0.0
C1860 C 0.16446 0.92611 0.0027 0.0
C1861 C 0.184 0.9231 0.01939 0.0
C1862 C 0.14586 0.94242 0.00752 0.0
C1863 C 0.14689 0.95615 0.02949 0.0
C1864 C 0.16639 0.953 0.04649 0.0
C1865 C 0.18466 0.93647 0.04126 0.0
C1866 C 0.12524 0.94518 0.989 0.0
C1867 C 0.16817 0.96737 0.0701 0.0
H1868 H 0.11794 0.03582 0.03055 0.0
H1869 H 0.0696 0.97712 0.0559 0.0
H1870 H 0.17344 0.00587 0.03099 0.0
H1871 H 0.15838 0.99816 0.00259 0.0
H1872 H 0.15754 0.02928 0.01682 0.0
H1873 H 0.08084 0.93599 0.05732 0.0
H1874 H 0.09904 0.92634 0.03363 0.0
H1875 H 0.11458 0.93406 0.06185 0.0
H1876 H 0.16376 0.91581 0.98579 0.0
H1877 H 0.19968 0.93428 0.05427 0.0
H1878 H 0.1264 0.96494 0.98451 0.0
H1879 H 0.10626 0.94084 0.99549 0.0
H1880 H 0.12667 0.93262 0.97305 0.0
H1881 H 0.1707 0.9879 0.0684 0.0
H1882 H 0.18423 0.96245 0.08152 0.0
H1883 H 0.15026 0.96347 0.07855 0.0
loop_
_geom_bond_atom_site_label_1
_geom_bond_atom_site_label_2
_geom_bond_distance
_geom_bond_site_symmetry_2
_ccdc_geom_bond_type
H0 C5 0.930 . S
H1 C8 0.930 . S
H2 C10 0.930 . S
H3 C4 1.016 1_556 S
C4 H3 1.016 1_554 S
C4 N11 1.286 . S
C5 H0 0.930 . S
C5 C6 1.397 . S
C5 C7 1.361 . S
C6 C5 1.397 . S
C6 C10 1.390 . S
C7 C5 1.361 . S
C7 C8 1.393 . S
C7 N11 1.413 . S
C8 H1 0.930 . S
C8 C7 1.393 . S
C8 C9 1.399 . S
C9 C8 1.399 . S
C9 C10 1.381 . S
C10 H2 0.930 . S
C10 C6 1.390 . S
C10 C9 1.381 . S
N11 C4 1.286 . S
N11 C7 1.413 . S
H12 C17 0.930 . S
H13 C20 0.930 . S
H14 C22 0.930 . S
H15 C16 1.016 . S
C16 H15 1.016 . S
C16 N23 1.286 . S
C17 H12 0.930 . S
C17 C18 1.397 . S
C17 C19 1.361 . S
C18 C17 1.397 . S
C18 C22 1.390 . S
C19 C17 1.361 . S
C19 C20 1.393 . S
C19 N23 1.413 . S
C20 H13 0.930 . S
C20 C19 1.393 . S
C20 C21 1.399 . S
C21 C20 1.399 . S
C21 C22 1.381 . S
C22 H14 0.930 . S
C22 C18 1.390 . S
C22 C21 1.381 . S
N23 C16 1.286 . S
N23 C19 1.413 . S
H24 C29 0.930 . S
H25 C32 0.930 . S
H26 C34 0.930 . S
H27 C28 1.016 1_455 S
C28 H27 1.016 1_655 S
C28 N35 1.286 . S
C29 H24 0.930 . S
C29 C30 1.397 . S
C29 C31 1.361 . S
C30 C29 1.397 . S
C30 C34 1.390 . S
C31 C29 1.361 . S
C31 C32 1.393 . S
C31 N35 1.413 . S
C32 H25 0.930 . S
C32 C31 1.393 . S
C32 C33 1.399 . S
C33 C32 1.399 . S
C33 C34 1.381 . S
C34 H26 0.930 . S
C34 C30 1.390 . S
C34 C33 1.381 . S
N35 C28 1.286 . S
N35 C31 1.413 . S
H36 C41 0.930 . S
H37 C44 0.930 . S
H38 C46 0.930 . S
H39 C40 1.016 . S
C40 H39 1.016 . S
C40 N47 1.286 . S
C41 H36 0.930 . S
C41 C42 1.397 . S
C41 C43 1.361 . S
C42 C41 1.397 . S
C42 C46 1.390 . S
C43 C41 1.361 . S
C43 C44 1.393 . S
C43 N47 1.413 . S
C44 H37 0.930 . S
C44 C43 1.393 . S
C44 C45 1.399 . S
C45 C44 1.399 . S
C45 C46 1.381 . S
C46 H38 0.930 . S
C46 C42 1.390 . S
C46 C45 1.381 . S
N47 C40 1.286 . S
N47 C43 1.413 . S
H48 C53 0.930 . S
H49 C56 0.930 . S
H50 C58 0.930 . S
H51 C52 1.016 . S
C52 H51 1.016 . S
C52 N59 1.286 . S
C53 H48 0.930 . S
C53 C54 1.397 . S
C53 C55 1.361 . S
C54 C53 1.397 . S
C54 C58 1.390 1_565 S
C55 C53 1.361 . S
C55 C56 1.393 . S
C55 N59 1.413 . S
C56 H49 0.930 . S
C56 C55 1.393 . S
C56 C57 1.399 1_565 S
C57 C56 1.399 1_545 S
C57 C58 1.381 . S
C58 H50 0.930 . S
C58 C54 1.390 1_545 S
C58 C57 1.381 . S
N59 C52 1.286 . S
N59 C55 1.413 . S
H60 C65 0.930 . S
H61 C68 0.930 . S
H62 C70 0.930 . S
H63 C64 1.016 . S
C64 H63 1.016 . S
C64 N71 1.286 . S
C65 H60 0.930 . S
C65 C66 1.397 . S
C65 C67 1.361 . S
C66 C65 1.397 . S
C66 C70 1.390 . S
C67 C65 1.361 . S
C67 C68 1.393 . S
C67 N71 1.413 . S
C68 H61 0.930 . S
C68 C67 1.393 . S
C68 C69 1.399 . S
C69 C68 1.399 . S
C69 C70 1.381 . S
C70 H62 0.930 . S
C70 C66 1.390 . S
C70 C69 1.381 . S
N71 C64 1.286 . S
N71 C67 1.413 . S
H72 C77 0.930 1_455 S
H73 C80 0.930 . S
H74 C82 0.930 . S
H75 C76 1.016 . S
C76 H75 1.016 . S
C76 N83 1.286 . S
C77 H72 0.930 1_655 S
C77 C78 1.397 . S
C77 C79 1.361 . S
C78 C77 1.397 . S
C78 C82 1.390 . S
C79 C77 1.361 . S
C79 C80 1.393 . S
C79 N83 1.413 1_655 S
C80 H73 0.930 . S
C80 C79 1.393 . S
C80 C81 1.399 . S
C81 C80 1.399 . S
C81 C82 1.381 . S
C82 H74 0.930 . S
C82 C78 1.390 . S
C82 C81 1.381 . S
N83 C76 1.286 . S
N83 C79 1.413 1_455 S
H84 C89 0.930 . S
H85 C92 0.930 . S
H86 C94 0.930 . S
H87 C88 1.016 . S
C88 H87 1.016 . S
C88 N95 1.286 . S
C89 H84 0.930 . S
C89 C90 1.397 . S
C89 C91 1.361 . S
C90 C89 1.397 . S
C90 C94 1.390 . S
C91 C89 1.361 . S
C91 C92 1.393 . S
C91 N95 1.413 . S
C92 H85 0.930 . S
C92 C91 1.393 . S
C92 C93 1.399 . S
C93 C92 1.399 . S
C93 C94 1.381 . S
C94 H86 0.930 . S
C94 C90 1.390 . S
C94 C93 1.381 . S
N95 C88 1.286 . S
N95 C91 1.413 . S
H96 C101 0.930 . S
H97 C104 0.930 . S
H98 C106 0.930 . S
H99 C100 1.016 . S
C100 H99 1.016 . S
C100 N107 1.286 . S
C101 H96 0.930 . S
C101 C102 1.397 . S
C101 C103 1.361 . S
C102 C101 1.397 . S
C102 C106 1.390 . S
C103 C101 1.361 . S
C103 C104 1.393 . S
C103 N107 1.413 . S
C104 H97 0.930 . S
C104 C103 1.393 . S
C104 C105 1.399 . S
C105 C104 1.399 . S
C105 C106 1.381 . S
C106 H98 0.930 . S
C106 C102 1.390 . S
C106 C105 1.381 . S
N107 C100 1.286 . S
N107 C103 1.413 . S
H108 C113 0.930 . S
H109 C116 0.930 . S
H110 C118 0.930 . S
H111 C112 1.016 . S
C112 H111 1.016 . S
C112 N119 1.286 . S
C113 H108 0.930 . S
C113 C114 1.397 1_565 S
C113 C115 1.361 . S
C114 C113 1.397 1_545 S
C114 C118 1.390 . S
C115 C113 1.361 . S
C115 C116 1.393 . S
C115 N119 1.413 . S
C116 H109 0.930 . S
C116 C115 1.393 . S
C116 C117 1.399 . S
C117 C116 1.399 . S
C117 C118 1.381 1_565 S
C118 H110 0.930 . S
C118 C114 1.390 . S
C118 C117 1.381 1_545 S
N119 C112 1.286 . S
N119 C115 1.413 . S
H120 C125 0.930 . S
H121 C128 0.930 . S
H122 C130 0.930 . S
H123 C124 1.016 . S
C124 H123 1.016 . S
C124 N131 1.286 . S
C125 H120 0.930 . S
C125 C126 1.397 . S
C125 C127 1.361 . S
C126 C125 1.397 . S
C126 C130 1.390 . S
C127 C125 1.361 . S
C127 C128 1.393 . S
C127 N131 1.413 . S
C128 H121 0.930 . S
C128 C127 1.393 . S
C128 C129 1.399 . S
C129 C128 1.399 . S
C129 C130 1.381 . S
C130 H122 0.930 . S
C130 C126 1.390 . S
C130 C129 1.381 . S
N131 C124 1.286 . S
N131 C127 1.413 . S
H132 C137 0.930 . S
H133 C140 0.930 . S
H134 C142 0.930 . S
H135 C136 1.016 . S
C136 H135 1.016 . S
C136 N143 1.286 . S
C137 H132 0.930 . S
C137 C138 1.397 . S
C137 C139 1.361 . S
C138 C137 1.397 . S
C138 C142 1.390 . S
C139 C137 1.361 . S
C139 C140 1.393 . S
C139 N143 1.413 . S
C140 H133 0.930 . S
C140 C139 1.393 . S
C140 C141 1.399 . S
C141 C140 1.399 . S
C141 C142 1.381 . S
C142 H134 0.930 . S
C142 C138 1.390 . S
C142 C141 1.381 . S
N143 C136 1.286 . S
N143 C139 1.413 . S
H144 C149 0.930 . S
H145 C152 0.930 . S
H146 C154 0.930 . S
H147 C148 1.016 . S
C148 H147 1.016 . S
C148 N155 1.286 . S
C149 H144 0.930 . S
C149 C150 1.397 . S
C149 C151 1.361 . S
C150 C149 1.397 . S
C150 C154 1.390 . S
C151 C149 1.361 . S
C151 C152 1.393 . S
C151 N155 1.413 . S
C152 H145 0.930 . S
C152 C151 1.393 . S
C152 C153 1.399 . S
C153 C152 1.399 . S
C153 C154 1.381 . S
C154 H146 0.930 . S
C154 C150 1.390 . S
C154 C153 1.381 . S
N155 C148 1.286 . S
N155 C151 1.413 . S
H156 C161 0.930 . S
H157 C164 0.930 . S
H158 C166 0.930 . S
H159 C160 1.016 1_554 S
C160 H159 1.016 1_556 S
C160 N167 1.286 . S
C161 H156 0.930 . S
C161 C162 1.397 . S
C161 C163 1.361 . S
C162 C161 1.397 . S
C162 C166 1.390 . S
C163 C161 1.361 . S
C163 C164 1.393 . S
C163 N167 1.413 . S
C164 H157 0.930 . S
C164 C163 1.393 . S
C164 C165 1.399 . S
C165 C164 1.399 . S
C165 C166 1.381 . S
C166 H158 0.930 . S
C166 C162 1.390 . S
C166 C165 1.381 . S
N167 C160 1.286 . S
N167 C163 1.413 . S
H168 C173 0.930 . S
H169 C176 0.930 . S
H170 C178 0.930 . S
H171 C172 1.016 . S
C172 H171 1.016 . S
C172 N179 1.286 . S
C173 H168 0.930 . S
C173 C174 1.397 . S
C173 C175 1.361 . S
C174 C173 1.397 . S
C174 C178 1.390 . S
C175 C173 1.361 . S
C175 C176 1.393 . S
C175 N179 1.413 . S
C176 H169 0.930 . S
C176 C175 1.393 . S
C176 C177 1.399 . S
C177 C176 1.399 . S
C177 C178 1.381 . S
C178 H170 0.930 . S
C178 C174 1.390 . S
C178 C177 1.381 . S
N179 C172 1.286 . S
N179 C175 1.413 . S
H180 C185 0.930 . S
H181 C188 0.930 . S
H182 C190 0.930 1_554 S
H183 C184 1.016 . S
C184 H183 1.016 . S
C184 N191 1.286 . S
C185 H180 0.930 . S
C185 C186 1.397 . S
C185 C187 1.361 . S
C186 C185 1.397 . S
C186 C190 1.390 . S
C187 C185 1.361 . S
C187 C188 1.393 . S
C187 N191 1.413 . S
C188 H181 0.930 . S
C188 C187 1.393 . S
C188 C189 1.399 . S
C189 C188 1.399 . S
C189 C190 1.381 . S
C190 H182 0.930 1_556 S
C190 C186 1.390 . S
C190 C189 1.381 . S
N191 C184 1.286 . S
N191 C187 1.413 . S
C192 O193 1.194 . S
C192 O199 1.185 . S
O193 C192 1.194 . S
O194 Zn195 1.899 1_556 S
O194 C202 1.284 . S
Zn195 O194 1.899 1_554 S
Zn195 O196 2.032 . S
Zn195 O199 2.086 . S
Zn195 O204 1.977 . S
O196 Zn195 2.032 . S
O196 C200 1.278 . S
C197 O198 1.203 . S
C197 O204 1.267 . S
O198 C197 1.203 . S
O199 C192 1.185 . S
O199 Zn195 2.086 . S
C200 O196 1.278 . S
C200 O201 1.211 . S
O201 C200 1.211 . S
C202 O194 1.284 . S
C202 O203 1.273 . S
O203 C202 1.273 . S
O204 Zn195 1.977 . S
O204 C197 1.267 . S
C205 O206 1.160 . S
C205 O212 1.185 . S
O206 C205 1.160 . S
O207 Zn208 1.899 . S
O207 C215 1.284 . S
Zn208 O207 1.899 . S
Zn208 O209 2.032 . S
Zn208 O212 2.086 . S
Zn208 O217 1.977 . S
O209 Zn208 2.032 . S
O209 C213 1.278 . S
C210 O211 1.203 . S
C210 O217 1.267 . S
O211 C210 1.203 . S
O212 C205 1.185 . S
O212 Zn208 2.086 . S
C213 O209 1.278 . S
C213 O214 1.211 . S
O214 C213 1.211 . S
C215 O207 1.284 . S
C215 O216 1.273 . S
O216 C215 1.273 . S
O217 Zn208 1.977 . S
O217 C210 1.267 . S
C218 O219 1.160 1_554 S
C218 O225 1.185 . S
O219 C218 1.160 1_556 S
O220 Zn221 1.899 1_556 S
O220 C228 1.284 . S
Zn221 O220 1.899 1_554 S
Zn221 O222 2.032 1_554 S
Zn221 O225 2.086 . S
Zn221 O230 1.977 . S
O222 Zn221 2.032 1_556 S
O222 C226 1.278 . S
C223 O224 1.203 . S
C223 O230 1.267 . S
O224 C223 1.203 . S
O225 C218 1.185 . S
O225 Zn221 2.086 . S
C226 O222 1.278 . S
C226 O227 1.211 1_556 S
O227 C226 1.211 1_554 S
C228 O220 1.284 . S
C228 O229 1.273 . S
O229 C228 1.273 . S
O230 Zn221 1.977 . S
O230 C223 1.267 . S
C231 O232 1.160 . S
C231 O238 1.185 . S
O232 C231 1.160 . S
O233 Zn234 1.899 . S
O233 C241 1.284 . S
Zn234 O233 1.899 . S
Zn234 O235 2.032 . S
Zn234 O238 2.086 . S
Zn234 O243 1.977 . S
O235 Zn234 2.032 . S
O235 C239 1.278 1_545 S
C236 O237 1.203 . S
C236 O243 1.267 . S
O237 C236 1.203 . S
O238 C231 1.185 . S
O238 Zn234 2.086 . S
C239 O235 1.278 1_565 S
C239 O240 1.211 . S
O240 C239 1.211 . S
C241 O233 1.284 . S
C241 O242 1.273 . S
O242 C241 1.273 . S
O243 Zn234 1.977 . S
O243 C236 1.267 . S
C244 O245 1.160 . S
C244 O251 1.185 . S
O245 C244 1.160 . S
O246 Zn247 1.899 . S
O246 C254 1.284 . S
Zn247 O246 1.899 . S
Zn247 O248 2.032 . S
Zn247 O251 2.086 . S
Zn247 O256 1.977 . S
O248 Zn247 2.032 . S
O248 C252 1.278 . S
C249 O250 1.203 . S
C249 O256 1.267 . S
O250 C249 1.203 . S
O251 C244 1.185 . S
O251 Zn247 2.086 . S
C252 O248 1.278 . S
C252 O253 1.211 . S
O253 C252 1.211 . S
C254 O246 1.284 . S
C254 O255 1.273 . S
O255 C254 1.273 . S
O256 Zn247 1.977 . S
O256 C249 1.267 . S
C257 O258 1.160 . S
C257 O264 1.185 . S
O258 C257 1.160 . S
O259 Zn260 1.899 . S
O259 C267 1.284 . S
Zn260 O259 1.899 . S
Zn260 O261 2.032 . S
Zn260 O264 2.086 . S
Zn260 O269 1.977 . S
O261 Zn260 2.032 . S
O261 C265 1.278 . S
C262 O263 1.203 . S
C262 O269 1.267 . S
O263 C262 1.203 . S
O264 C257 1.185 . S
O264 Zn260 2.086 . S
C265 O261 1.278 . S
C265 O266 1.211 . S
O266 C265 1.211 . S
C267 O259 1.284 . S
C267 O268 1.273 . S
O268 C267 1.273 . S
O269 Zn260 1.977 . S
O269 C262 1.267 . S
C270 O271 1.160 . S
C270 O277 1.185 . S
O271 C270 1.160 . S
O272 Zn273 1.899 . S
O272 C280 1.284 . S
Zn273 O272 1.899 . S
Zn273 O274 2.032 . S
Zn273 O277 2.086 . S
Zn273 O282 1.977 . S
O274 Zn273 2.032 . S
O274 C278 1.278 . S
C275 O276 1.203 . S
C275 O282 1.267 . S
O276 C275 1.203 . S
O277 C270 1.185 . S
O277 Zn273 2.086 . S
C278 O274 1.278 . S
C278 O279 1.211 . S
O279 C278 1.211 . S
C280 O272 1.284 . S
C280 O281 1.273 . S
O281 C280 1.273 . S
O282 Zn273 1.977 . S
O282 C275 1.267 . S
C283 O284 1.160 . S
C283 O290 1.185 . S
O284 C283 1.160 . S
O285 Zn286 1.899 . S
O285 C293 1.284 1_565 S
Zn286 O285 1.899 . S
Zn286 O287 2.032 1_565 S
Zn286 O290 2.086 . S
Zn286 O295 1.977 . S
O287 Zn286 2.032 1_545 S
O287 C291 1.278 . S
C288 O289 1.203 1_565 S
C288 O295 1.267 . S
O289 C288 1.203 1_545 S
O290 C283 1.185 . S
O290 Zn286 2.086 . S
C291 O287 1.278 . S
C291 O292 1.211 . S
O292 C291 1.211 . S
C293 O285 1.284 1_545 S
C293 O294 1.273 . S
O294 C293 1.273 . S
O295 Zn286 1.977 . S
O295 C288 1.267 . S
C296 O297 1.160 1_455 S
C296 O303 1.185 . S
O297 C296 1.160 1_655 S
O298 Zn299 1.899 1_655 S
O298 C306 1.284 . S
Zn299 O298 1.899 1_455 S
Zn299 O300 2.032 . S
Zn299 O303 2.086 . S
Zn299 O308 1.977 . S
O300 Zn299 2.032 . S
O300 C304 1.278 . S
C301 O302 1.203 . S
C301 O308 1.267 . S
O302 C301 1.203 . S
O303 C296 1.185 . S
O303 Zn299 2.086 . S
C304 O300 1.278 . S
C304 O305 1.211 . S
O305 C304 1.211 . S
C306 O298 1.284 . S
C306 O307 1.273 . S
O307 C306 1.273 . S
O308 Zn299 1.977 . S
O308 C301 1.267 . S
C309 O310 1.160 . S
C309 O316 1.185 . S
O310 C309 1.160 . S
O311 Zn312 1.899 . S
O311 C319 1.284 . S
Zn312 O311 1.899 . S
Zn312 O313 2.032 . S
Zn312 O316 2.086 . S
Zn312 O321 1.977 . S
O313 Zn312 2.032 . S
O313 C317 1.278 . S
C314 O315 1.203 . S
C314 O321 1.267 . S
O315 C314 1.203 . S
O316 C309 1.185 . S
O316 Zn312 2.086 . S
C317 O313 1.278 . S
C317 O318 1.211 . S
O318 C317 1.211 . S
C319 O311 1.284 . S
C319 O320 1.273 . S
O320 C319 1.273 . S
O321 Zn312 1.977 . S
O321 C314 1.267 . S
C322 O323 1.160 1_455 S
C322 O329 1.185 . S
O323 C322 1.160 1_655 S
O324 Zn325 1.899 1_655 S
O324 C332 1.284 . S
Zn325 O324 1.899 1_455 S
Zn325 O326 2.032 . S
Zn325 O329 2.086 . S
Zn325 O334 1.977 . S
O326 Zn325 2.032 . S
O326 C330 1.278 . S
C327 O328 1.203 . S
C327 O334 1.267 . S
O328 C327 1.203 . S
O329 C322 1.185 . S
O329 Zn325 2.086 . S
C330 O326 1.278 . S
C330 O331 1.211 . S
O331 C330 1.211 . S
C332 O324 1.284 . S
C332 O333 1.273 . S
O333 C332 1.273 . S
O334 Zn325 1.977 . S
O334 C327 1.267 . S
C335 O336 1.160 . S
C335 O342 1.185 . S
O336 C335 1.160 . S
O337 Zn338 1.899 . S
O337 C345 1.284 . S
Zn338 O337 1.899 . S
Zn338 O339 2.032 . S
Zn338 O342 2.086 . S
Zn338 O347 1.977 . S
O339 Zn338 2.032 . S
O339 C343 1.278 . S
C340 O341 1.203 . S
C340 O347 1.267 . S
O341 C340 1.203 . S
O342 C335 1.185 . S
O342 Zn338 2.086 . S
C343 O339 1.278 . S
C343 O344 1.211 . S
O344 C343 1.211 . S
C345 O337 1.284 . S
C345 O346 1.273 . S
O346 C345 1.273 . S
O347 Zn338 1.977 . S
O347 C340 1.267 . S
C348 C349 1.391 . S
C348 C350 1.394 . S
C348 H364 0.931 . S
C349 C348 1.391 . S
C349 C353 1.376 . S
C350 C348 1.394 . S
C350 C351 1.369 . S
C350 C354 1.531 . S
C351 C350 1.369 . S
C351 C352 1.410 . S
C351 C359 1.503 . S
C352 C351 1.410 . S
C352 C353 1.392 . S
C352 C355 1.511 . S
C353 C349 1.376 . S
C353 C352 1.392 . S
C353 H365 0.929 . S
C354 C350 1.531 . S
C354 H366 0.960 . S
C354 H367 0.962 . S
C354 H368 0.960 . S
C355 C352 1.511 . S
C355 H369 0.961 . S
C355 H370 0.961 . S
C355 H371 0.961 . S
C356 C357 1.370 . S
C356 C358 1.363 . S
C356 H372 0.931 . S
C357 C356 1.370 . S
C357 C361 1.408 . S
C358 C356 1.363 . S
C358 C359 1.370 . S
C358 C362 1.524 . S
C359 C351 1.503 . S
C359 C358 1.370 . S
C359 C360 1.403 . S
C360 C359 1.403 . S
C360 C361 1.404 . S
C360 C363 1.539 . S
C361 C357 1.408 . S
C361 C360 1.404 . S
C361 H373 0.930 . S
C362 C358 1.524 . S
C362 H374 0.956 . S
C362 H375 0.961 . S
C362 H376 0.961 . S
C363 C360 1.539 . S
C363 H377 0.958 . S
C363 H378 0.961 . S
C363 H379 0.960 . S
H364 C348 0.931 . S
H365 C353 0.929 . S
H366 C354 0.960 . S
H367 C354 0.962 . S
H368 C354 0.960 . S
H369 C355 0.961 . S
H370 C355 0.961 . S
H371 C355 0.961 . S
H372 C356 0.931 . S
H373 C361 0.930 . S
H374 C362 0.956 . S
H375 C362 0.961 . S
H376 C362 0.961 . S
H377 C363 0.958 . S
H378 C363 0.961 . S
H379 C363 0.960 . S
C380 C381 1.391 . S
C380 C382 1.394 . S
C380 H396 0.931 1_455 S
C381 C380 1.391 . S
C381 C385 1.376 . S
C382 C380 1.394 . S
C382 C383 1.369 . S
C382 C386 1.531 . S
C383 C382 1.369 . S
C383 C384 1.410 . S
C383 C391 1.503 . S
C384 C383 1.410 . S
C384 C385 1.392 . S
C384 C387 1.511 . S
C385 C381 1.376 . S
C385 C384 1.392 . S
C385 H397 0.929 . S
C386 C382 1.531 . S
C386 H398 0.960 . S
C386 H399 0.962 . S
C386 H400 0.960 . S
C387 C384 1.511 . S
C387 H401 0.961 . S
C387 H402 0.961 . S
C387 H403 0.961 . S
C388 C389 1.370 . S
C388 C390 1.363 . S
C388 H404 0.931 . S
C389 C388 1.370 . S
C389 C393 1.408 . S
C390 C388 1.363 . S
C390 C391 1.370 . S
C390 C394 1.524 . S
C391 C383 1.503 . S
C391 C390 1.370 . S
C391 C392 1.403 . S
C392 C391 1.403 . S
C392 C393 1.404 . S
C392 C395 1.539 . S
C393 C389 1.408 . S
C393 C392 1.404 . S
C393 H405 0.930 . S
C394 C390 1.524 . S
C394 H406 0.956 . S
C394 H407 0.961 . S
C394 H408 0.961 . S
C395 C392 1.539 . S
C395 H409 0.958 . S
C395 H410 0.961 . S
C395 H411 0.960 . S
H396 C380 0.931 1_655 S
H397 C385 0.929 . S
H398 C386 0.960 . S
H399 C386 0.962 . S
H400 C386 0.960 . S
H401 C387 0.961 . S
H402 C387 0.961 . S
H403 C387 0.961 . S
H404 C388 0.931 . S
H405 C393 0.930 . S
H406 C394 0.956 . S
H407 C394 0.961 . S
H408 C394 0.961 . S
H409 C395 0.958 . S
H410 C395 0.961 . S
H411 C395 0.960 . S
C412 C413 1.391 . S
C412 C414 1.394 . S
C412 H428 0.931 . S
C413 C412 1.391 . S
C413 C417 1.376 . S
C414 C412 1.394 . S
C414 C415 1.369 . S
C414 C418 1.531 . S
C415 C414 1.369 . S
C415 C416 1.410 . S
C415 C423 1.503 . S
C416 C415 1.410 . S
C416 C417 1.392 . S
C416 C419 1.511 . S
C417 C413 1.376 . S
C417 C416 1.392 . S
C417 H429 0.929 . S
C418 C414 1.531 . S
C418 H430 0.960 . S
C418 H431 0.962 . S
C418 H432 0.960 . S
C419 C416 1.511 . S
C419 H433 0.961 . S
C419 H434 0.961 . S
C419 H435 0.961 . S
C420 C421 1.370 . S
C420 C422 1.363 . S
C420 H436 0.931 . S
C421 C420 1.370 . S
C421 C425 1.408 . S
C422 C420 1.363 . S
C422 C423 1.370 . S
C422 C426 1.524 . S
C423 C415 1.503 . S
C423 C422 1.370 . S
C423 C424 1.403 . S
C424 C423 1.403 . S
C424 C425 1.404 . S
C424 C427 1.539 . S
C425 C421 1.408 . S
C425 C424 1.404 . S
C425 H437 0.930 . S
C426 C422 1.524 . S
C426 H438 0.956 . S
C426 H439 0.961 . S
C426 H440 0.961 . S
C427 C424 1.539 . S
C427 H441 0.958 . S
C427 H442 0.961 . S
C427 H443 0.960 . S
H428 C412 0.931 . S
H429 C417 0.929 . S
H430 C418 0.960 . S
H431 C418 0.962 . S
H432 C418 0.960 . S
H433 C419 0.961 . S
H434 C419 0.961 . S
H435 C419 0.961 . S
H436 C420 0.931 . S
H437 C425 0.930 . S
H438 C426 0.956 . S
H439 C426 0.961 . S
H440 C426 0.961 . S
H441 C427 0.958 . S
H442 C427 0.961 . S
H443 C427 0.960 . S
C444 C445 1.391 . S
C444 C446 1.394 . S
C444 H460 0.931 . S
C445 C444 1.391 . S
C445 C449 1.376 1_545 S
C446 C444 1.394 . S
C446 C447 1.369 . S
C446 C450 1.531 . S
C447 C446 1.369 . S
C447 C448 1.410 1_545 S
C447 C455 1.512 . S
C448 C447 1.410 1_565 S
C448 C449 1.392 . S
C448 C451 1.511 . S
C449 C445 1.376 1_565 S
C449 C448 1.392 . S
C449 H461 0.929 . S
C450 C446 1.531 . S
C450 H462 0.960 . S
C450 H463 0.962 1_455 S
C450 H464 0.960 . S
C451 C448 1.511 . S
C451 H465 0.961 . S
C451 H466 0.961 . S
C451 H467 0.961 . S
C452 C453 1.370 . S
C452 C454 1.363 . S
C452 H468 0.931 . S
C453 C452 1.370 . S
C453 C457 1.408 . S
C454 C452 1.363 . S
C454 C455 1.355 1_655 S
C454 C458 1.524 1_545 S
C455 C447 1.512 . S
C455 C454 1.355 1_455 S
C455 C456 1.410 . S
C456 C455 1.410 . S
C456 C457 1.404 1_455 S
C456 C459 1.539 . S
C457 C453 1.408 . S
C457 C456 1.404 1_655 S
C457 H469 0.930 1_655 S
C458 C454 1.524 1_565 S
C458 H470 0.956 1_565 S
C458 H471 0.961 . S
C458 H472 0.961 . S
C459 C456 1.539 . S
C459 H473 0.958 . S
C459 H474 0.961 . S
C459 H475 0.960 . S
H460 C444 0.931 . S
H461 C449 0.929 . S
H462 C450 0.960 . S
H463 C450 0.962 1_655 S
H464 C450 0.960 . S
H465 C451 0.961 . S
H466 C451 0.961 . S
H467 C451 0.961 . S
H468 C452 0.931 . S
H469 C457 0.930 1_455 S
H470 C458 0.956 1_545 S
H471 C458 0.961 . S
H472 C458 0.961 . S
H473 C459 0.958 . S
H474 C459 0.961 . S
H475 C459 0.960 . S
C476 C477 1.391 . S
C476 C478 1.394 . S
C476 H492 0.931 . S
C477 C476 1.391 . S
C477 C481 1.376 . S
C478 C476 1.394 . S
C478 C479 1.369 . S
C478 C482 1.531 . S
C479 C478 1.369 . S
C479 C480 1.410 . S
C479 C487 1.503 . S
C480 C479 1.410 . S
C480 C481 1.392 . S
C480 C483 1.511 . S
C481 C477 1.376 . S
C481 C480 1.392 . S
C481 H493 0.929 . S
C482 C478 1.531 . S
C482 H494 0.960 . S
C482 H495 0.962 . S
C482 H496 0.960 . S
C483 C480 1.511 . S
C483 H497 0.961 . S
C483 H498 0.961 . S
C483 H499 0.961 . S
C484 C485 1.370 . S
C484 C486 1.363 . S
C484 H500 0.931 . S
C485 C484 1.370 . S
C485 C489 1.408 . S
C486 C484 1.363 . S
C486 C487 1.370 . S
C486 C490 1.524 . S
C487 C479 1.503 . S
C487 C486 1.370 . S
C487 C488 1.403 . S
C488 C487 1.403 . S
C488 C489 1.404 . S
C488 C491 1.539 . S
C489 C485 1.408 . S
C489 C488 1.404 . S
C489 H501 0.930 . S
C490 C486 1.524 . S
C490 H502 0.956 . S
C490 H503 0.961 . S
C490 H504 0.961 . S
C491 C488 1.539 . S
C491 H505 0.958 . S
C491 H506 0.961 . S
C491 H507 0.960 . S
H492 C476 0.931 . S
H493 C481 0.929 . S
H494 C482 0.960 . S
H495 C482 0.962 . S
H496 C482 0.960 . S
H497 C483 0.961 . S
H498 C483 0.961 . S
H499 C483 0.961 . S
H500 C484 0.931 . S
H501 C489 0.930 . S
H502 C490 0.956 . S
H503 C490 0.961 . S
H504 C490 0.961 . S
H505 C491 0.958 . S
H506 C491 0.961 . S
H507 C491 0.960 . S
C508 C509 1.391 . S
C508 C510 1.394 . S
C508 H524 0.931 . S
C509 C508 1.391 . S
C509 C513 1.376 . S
C510 C508 1.394 . S
C510 C511 1.369 . S
C510 C514 1.531 . S
C511 C510 1.369 . S
C511 C512 1.410 . S
C511 C519 1.503 . S
C512 C511 1.410 . S
C512 C513 1.392 . S
C512 C515 1.511 . S
C513 C509 1.376 . S
C513 C512 1.392 . S
C513 H525 0.929 . S
C514 C510 1.531 . S
C514 H526 0.960 . S
C514 H527 0.962 . S
C514 H528 0.960 . S
C515 C512 1.511 . S
C515 H529 0.961 . S
C515 H530 0.961 . S
C515 H531 0.961 . S
C516 C517 1.370 . S
C516 C518 1.363 . S
C516 H532 0.931 . S
C517 C516 1.370 . S
C517 C521 1.408 . S
C518 C516 1.363 . S
C518 C519 1.370 . S
C518 C522 1.524 . S
C519 C511 1.503 . S
C519 C518 1.370 . S
C519 C520 1.403 . S
C520 C519 1.403 . S
C520 C521 1.404 . S
C520 C523 1.539 . S
C521 C517 1.408 . S
C521 C520 1.404 . S
C521 H533 0.930 . S
C522 C518 1.524 . S
C522 H534 0.956 . S
C522 H535 0.961 . S
C522 H536 0.961 . S
C523 C520 1.539 . S
C523 H537 0.958 . S
C523 H538 0.961 . S
C523 H539 0.960 . S
H524 C508 0.931 . S
H525 C513 0.929 . S
H526 C514 0.960 . S
H527 C514 0.962 . S
H528 C514 0.960 . S
H529 C515 0.961 . S
H530 C515 0.961 . S
H531 C515 0.961 . S
H532 C516 0.931 . S
H533 C521 0.930 . S
H534 C522 0.956 . S
H535 C522 0.961 . S
H536 C522 0.961 . S
H537 C523 0.958 . S
H538 C523 0.961 . S
H539 C523 0.960 . S
C540 C541 1.391 . S
C540 C542 1.394 . S
C540 H556 0.931 . S
C541 C540 1.391 . S
C541 C545 1.376 . S
C542 C540 1.394 . S
C542 C543 1.369 . S
C542 C546 1.531 . S
C543 C542 1.369 . S
C543 C544 1.410 . S
C543 C551 1.503 . S
C544 C543 1.410 . S
C544 C545 1.392 . S
C544 C547 1.511 . S
C545 C541 1.376 . S
C545 C544 1.392 . S
C545 H557 0.929 . S
C546 C542 1.531 . S
C546 H558 0.960 . S
C546 H559 0.962 . S
C546 H560 0.960 . S
C547 C544 1.511 . S
C547 H561 0.961 . S
C547 H562 0.961 . S
C547 H563 0.961 . S
C548 C549 1.370 . S
C548 C550 1.363 . S
C548 H564 0.931 . S
C549 C548 1.370 . S
C549 C553 1.408 . S
C550 C548 1.363 . S
C550 C551 1.370 . S
C550 C554 1.524 . S
C551 C543 1.503 . S
C551 C550 1.370 . S
C551 C552 1.403 . S
C552 C551 1.403 . S
C552 C553 1.404 . S
C552 C555 1.539 . S
C553 C549 1.408 . S
C553 C552 1.404 . S
C553 H565 0.930 . S
C554 C550 1.524 . S
C554 H566 0.956 . S
C554 H567 0.961 . S
C554 H568 0.961 . S
C555 C552 1.539 . S
C555 H569 0.958 . S
C555 H570 0.961 . S
C555 H571 0.960 . S
H556 C540 0.931 . S
H557 C545 0.929 . S
H558 C546 0.960 . S
H559 C546 0.962 . S
H560 C546 0.960 . S
H561 C547 0.961 . S
H562 C547 0.961 . S
H563 C547 0.961 . S
H564 C548 0.931 . S
H565 C553 0.930 . S
H566 C554 0.956 . S
H567 C554 0.961 . S
H568 C554 0.961 . S
H569 C555 0.958 . S
H570 C555 0.961 . S
H571 C555 0.960 . S
C572 C573 1.391 . S
C572 C574 1.394 . S
C572 H588 0.931 . S
C573 C572 1.391 . S
C573 C577 1.376 . S
C574 C572 1.394 . S
C574 C575 1.369 . S
C574 C578 1.531 . S
C575 C574 1.369 . S
C575 C576 1.410 . S
C575 C583 1.503 . S
C576 C575 1.410 . S
C576 C577 1.392 . S
C576 C579 1.511 1_565 S
C577 C573 1.376 . S
C577 C576 1.392 . S
C577 H589 0.915 1_565 S
C578 C574 1.531 . S
C578 H590 0.960 . S
C578 H591 0.962 . S
C578 H592 0.960 . S
C579 C576 1.511 1_545 S
C579 H593 0.961 . S
C579 H594 0.961 . S
C579 H595 0.961 1_545 S
C580 C581 1.370 1_545 S
C580 C582 1.363 . S
C580 H596 0.931 . S
C581 C580 1.370 1_565 S
C581 C585 1.408 . S
C582 C580 1.363 . S
C582 C583 1.370 1_545 S
C582 C586 1.524 . S
C583 C575 1.503 . S
C583 C582 1.370 1_565 S
C583 C584 1.403 . S
C584 C583 1.403 . S
C584 C585 1.404 . S
C584 C587 1.539 . S
C585 C581 1.408 . S
C585 C584 1.404 . S
C585 H597 0.930 . S
C586 C582 1.524 . S
C586 H598 0.956 . S
C586 H599 0.961 . S
C586 H600 0.961 . S
C587 C584 1.539 . S
C587 H601 0.958 . S
C587 H602 0.961 . S
C587 H603 0.960 . S
H588 C572 0.931 . S
H589 C577 0.915 1_545 S
H590 C578 0.960 . S
H591 C578 0.962 . S
H592 C578 0.960 . S
H593 C579 0.961 . S
H594 C579 0.961 . S
H595 C579 0.961 1_565 S
H596 C580 0.931 . S
H597 C585 0.930 . S
H598 C586 0.956 . S
H599 C586 0.961 . S
H600 C586 0.961 . S
H601 C587 0.958 . S
H602 C587 0.961 . S
H603 C587 0.960 . S
C604 C605 1.391 . S
C604 C606 1.394 . S
C604 H620 0.931 . S
C605 C604 1.391 . S
C605 C609 1.376 . S
C606 C604 1.394 . S
C606 C607 1.369 . S
C606 C610 1.531 . S
C607 C606 1.369 . S
C607 C608 1.410 . S
C607 C615 1.503 . S
C608 C607 1.410 . S
C608 C609 1.392 . S
C608 C611 1.511 . S
C609 C605 1.376 . S
C609 C608 1.392 . S
C609 H621 0.929 . S
C610 C606 1.531 . S
C610 H622 0.960 . S
C610 H623 0.962 . S
C610 H624 0.960 . S
C611 C608 1.511 . S
C611 H625 0.961 . S
C611 H626 0.961 . S
C611 H627 0.961 . S
C612 C613 1.370 . S
C612 C614 1.363 . S
C612 H628 0.931 . S
C613 C612 1.370 . S
C613 C617 1.408 . S
C614 C612 1.363 . S
C614 C615 1.370 . S
C614 C618 1.524 . S
C615 C607 1.503 . S
C615 C614 1.370 . S
C615 C616 1.403 . S
C616 C615 1.403 . S
C616 C617 1.404 . S
C616 C619 1.539 . S
C617 C613 1.408 . S
C617 C616 1.404 . S
C617 H629 0.930 . S
C618 C614 1.524 . S
C618 H630 0.956 . S
C618 H631 0.961 . S
C618 H632 0.961 . S
C619 C616 1.539 . S
C619 H633 0.958 . S
C619 H634 0.961 . S
C619 H635 0.960 . S
H620 C604 0.931 . S
H621 C609 0.929 . S
H622 C610 0.960 . S
H623 C610 0.962 . S
H624 C610 0.960 . S
H625 C611 0.961 . S
H626 C611 0.961 . S
H627 C611 0.961 . S
H628 C612 0.931 . S
H629 C617 0.930 . S
H630 C618 0.956 . S
H631 C618 0.961 . S
H632 C618 0.961 . S
H633 C619 0.958 . S
H634 C619 0.961 . S
H635 C619 0.960 . S
C636 C637 1.391 . S
C636 C638 1.394 . S
C636 H652 0.931 . S
C637 C636 1.391 . S
C637 C641 1.376 . S
C638 C636 1.394 . S
C638 C639 1.369 . S
C638 C642 1.531 . S
C639 C638 1.369 . S
C639 C640 1.410 . S
C639 C647 1.503 . S
C640 C639 1.410 . S
C640 C641 1.392 . S
C640 C643 1.511 . S
C641 C637 1.376 . S
C641 C640 1.392 . S
C641 H653 0.929 . S
C642 C638 1.531 . S
C642 H654 0.960 . S
C642 H655 0.962 . S
C642 H656 0.960 . S
C643 C640 1.511 . S
C643 H657 0.961 . S
C643 H658 0.961 . S
C643 H659 0.961 . S
C644 C645 1.370 . S
C644 C646 1.363 . S
C644 H660 0.931 . S
C645 C644 1.370 . S
C645 C649 1.408 . S
C646 C644 1.363 . S
C646 C647 1.370 . S
C646 C650 1.524 . S
C647 C639 1.503 . S
C647 C646 1.370 . S
C647 C648 1.403 . S
C648 C647 1.403 . S
C648 C649 1.404 . S
C648 C651 1.539 . S
C649 C645 1.408 . S
C649 C648 1.404 . S
C649 H661 0.930 . S
C650 C646 1.524 . S
C650 H662 0.956 . S
C650 H663 0.961 . S
C650 H664 0.961 . S
C651 C648 1.539 . S
C651 H665 0.958 . S
C651 H666 0.961 . S
C651 H667 0.960 . S
H652 C636 0.931 . S
H653 C641 0.929 . S
H654 C642 0.960 . S
H655 C642 0.962 . S
H656 C642 0.960 . S
H657 C643 0.961 . S
H658 C643 0.961 . S
H659 C643 0.961 . S
H660 C644 0.931 . S
H661 C649 0.930 . S
H662 C650 0.956 . S
H663 C650 0.961 . S
H664 C650 0.961 . S
H665 C651 0.958 . S
H666 C651 0.961 . S
H667 C651 0.960 . S
C668 C669 1.391 . S
C668 C670 1.394 . S
C668 H684 0.931 . S
C669 C668 1.391 . S
C669 C673 1.376 . S
C670 C668 1.394 . S
C670 C671 1.369 . S
C670 C674 1.531 . S
C671 C670 1.369 . S
C671 C672 1.410 . S
C671 C679 1.503 . S
C672 C671 1.410 . S
C672 C673 1.392 . S
C672 C675 1.511 . S
C673 C669 1.376 . S
C673 C672 1.392 . S
C673 H685 0.929 . S
C674 C670 1.531 . S
C674 H686 0.960 . S
C674 H687 0.962 . S
C674 H688 0.960 . S
C675 C672 1.511 . S
C675 H689 0.961 . S
C675 H690 0.961 . S
C675 H691 0.961 . S
C676 C677 1.370 . S
C676 C678 1.363 . S
C676 H692 0.931 . S
C677 C676 1.370 . S
C677 C681 1.408 . S
C678 C676 1.363 . S
C678 C679 1.370 . S
C678 C682 1.524 . S
C679 C671 1.503 . S
C679 C678 1.370 . S
C679 C680 1.403 . S
C680 C679 1.403 . S
C680 C681 1.404 . S
C680 C683 1.539 . S
C681 C677 1.408 . S
C681 C680 1.404 . S
C681 H693 0.930 . S
C682 C678 1.524 . S
C682 H694 0.956 . S
C682 H695 0.961 . S
C682 H696 0.961 . S
C683 C680 1.539 . S
C683 H697 0.958 . S
C683 H698 0.961 . S
C683 H699 0.960 . S
H684 C668 0.931 . S
H685 C673 0.929 . S
H686 C674 0.960 . S
H687 C674 0.962 . S
H688 C674 0.960 . S
H689 C675 0.961 . S
H690 C675 0.961 . S
H691 C675 0.961 . S
H692 C676 0.931 . S
H693 C681 0.930 . S
H694 C682 0.956 . S
H695 C682 0.961 . S
H696 C682 0.961 . S
H697 C683 0.958 . S
H698 C683 0.961 . S
H699 C683 0.960 . S
C700 C701 1.391 . S
C700 C702 1.394 . S
C700 H716 0.931 . S
C701 C700 1.391 . S
C701 C705 1.376 . S
C702 C700 1.394 . S
C702 C703 1.369 . S
C702 C706 1.531 . S
C703 C702 1.369 . S
C703 C704 1.410 . S
C703 C711 1.503 . S
C704 C703 1.410 . S
C704 C705 1.392 . S
C704 C707 1.511 . S
C705 C701 1.376 . S
C705 C704 1.392 . S
C705 H717 0.929 . S
C706 C702 1.531 . S
C706 H718 0.960 . S
C706 H719 0.962 . S
C706 H720 0.960 . S
C707 C704 1.511 . S
C707 H721 0.961 . S
C707 H722 0.961 . S
C707 H723 0.961 . S
C708 C709 1.370 . S
C708 C710 1.363 . S
C708 H724 0.931 . S
C709 C708 1.370 . S
C709 C713 1.408 . S
C710 C708 1.363 . S
C710 C711 1.370 . S
C710 C714 1.524 . S
C711 C703 1.503 . S
C711 C710 1.370 . S
C711 C712 1.403 . S
C712 C711 1.403 . S
C712 C713 1.404 . S
C712 C715 1.539 . S
C713 C709 1.408 . S
C713 C712 1.404 . S
C713 H725 0.930 . S
C714 C710 1.524 . S
C714 H726 0.956 . S
C714 H727 0.961 . S
C714 H728 0.961 . S
C715 C712 1.539 . S
C715 H729 0.958 . S
C715 H730 0.961 . S
C715 H731 0.960 . S
H716 C700 0.931 . S
H717 C705 0.929 . S
H718 C706 0.960 . S
H719 C706 0.962 . S
H720 C706 0.960 . S
H721 C707 0.961 . S
H722 C707 0.961 . S
H723 C707 0.961 . S
H724 C708 0.931 . S
H725 C713 0.930 . S
H726 C714 0.956 . S
H727 C714 0.961 . S
H728 C714 0.961 . S
H729 C715 0.958 . S
H730 C715 0.961 . S
H731 C715 0.960 . S
C732 C733 1.391 . S
C732 C734 1.394 . S
C732 H748 0.931 . S
C733 C732 1.391 . S
C733 C737 1.376 . S
C734 C732 1.394 . S
C734 C735 1.369 . S
C734 C738 1.531 . S
C735 C734 1.369 . S
C735 C736 1.410 . S
C735 C743 1.503 . S
C736 C735 1.410 . S
C736 C737 1.392 . S
C736 C739 1.511 . S
C737 C733 1.376 . S
C737 C736 1.392 . S
C737 H749 0.929 . S
C738 C734 1.531 . S
C738 H750 0.960 . S
C738 H751 0.962 . S
C738 H752 0.960 . S
C739 C736 1.511 . S
C739 H753 0.961 . S
C739 H754 0.961 . S
C739 H755 0.961 . S
C740 C741 1.370 . S
C740 C742 1.363 . S
C740 H756 0.931 . S
C741 C740 1.370 . S
C741 C745 1.408 . S
C742 C740 1.363 . S
C742 C743 1.370 . S
C742 C746 1.524 . S
C743 C735 1.503 . S
C743 C742 1.370 . S
C743 C744 1.403 . S
C744 C743 1.403 . S
C744 C745 1.404 . S
C744 C747 1.539 . S
C745 C741 1.408 . S
C745 C744 1.404 . S
C745 H757 0.930 . S
C746 C742 1.524 . S
C746 H758 0.956 . S
C746 H759 0.961 . S
C746 H760 0.961 . S
C747 C744 1.539 . S
C747 H761 0.958 . S
C747 H762 0.961 . S
C747 H763 0.960 . S
H748 C732 0.931 . S
H749 C737 0.929 . S
H750 C738 0.960 . S
H751 C738 0.962 . S
H752 C738 0.960 . S
H753 C739 0.961 . S
H754 C739 0.961 . S
H755 C739 0.961 . S
H756 C740 0.931 . S
H757 C745 0.930 . S
H758 C746 0.956 . S
H759 C746 0.961 . S
H760 C746 0.961 . S
H761 C747 0.958 . S
H762 C747 0.961 . S
H763 C747 0.960 . S
C764 C765 1.391 . S
C764 C766 1.394 . S
C764 H780 0.931 . S
C765 C764 1.391 . S
C765 C769 1.376 . S
C766 C764 1.394 . S
C766 C767 1.369 . S
C766 C770 1.531 . S
C767 C766 1.369 . S
C767 C768 1.410 . S
C767 C775 1.503 . S
C768 C767 1.410 . S
C768 C769 1.392 . S
C768 C771 1.511 . S
C769 C765 1.376 . S
C769 C768 1.392 . S
C769 H781 0.929 . S
C770 C766 1.531 . S
C770 H782 0.960 . S
C770 H783 0.962 . S
C770 H784 0.960 . S
C771 C768 1.511 . S
C771 H785 0.961 1_455 S
C771 H786 0.951 1_455 S
C771 H787 0.961 . S
C772 C773 1.370 . S
C772 C774 1.363 . S
C772 H788 0.931 . S
C773 C772 1.370 . S
C773 C777 1.408 . S
C774 C772 1.363 . S
C774 C775 1.370 . S
C774 C778 1.524 . S
C775 C767 1.503 . S
C775 C774 1.370 . S
C775 C776 1.403 . S
C776 C775 1.403 . S
C776 C777 1.404 . S
C776 C779 1.539 . S
C777 C773 1.408 . S
C777 C776 1.404 . S
C777 H789 0.930 . S
C778 C774 1.524 . S
C778 H790 0.956 . S
C778 H791 0.961 . S
C778 H792 0.961 . S
C779 C776 1.539 . S
C779 H793 0.958 . S
C779 H794 0.961 . S
C779 H795 0.960 . S
H780 C764 0.931 . S
H781 C769 0.929 . S
H782 C770 0.960 . S
H783 C770 0.962 . S
H784 C770 0.960 . S
H785 C771 0.961 1_655 S
H786 C771 0.951 1_655 S
H787 C771 0.961 . S
H788 C772 0.931 . S
H789 C777 0.930 . S
H790 C778 0.956 . S
H791 C778 0.961 . S
H792 C778 0.961 . S
H793 C779 0.958 . S
H794 C779 0.961 . S
H795 C779 0.960 . S
C796 C797 1.391 . S
C796 C798 1.394 . S
C796 H812 0.931 . S
C797 C796 1.391 . S
C797 C801 1.376 . S
C798 C796 1.394 . S
C798 C799 1.369 . S
C798 C802 1.531 . S
C799 C798 1.369 . S
C799 C800 1.410 . S
C799 C807 1.503 . S
C800 C799 1.410 . S
C800 C801 1.392 . S
C800 C803 1.511 . S
C801 C797 1.376 . S
C801 C800 1.392 . S
C801 H813 0.929 . S
C802 C798 1.531 . S
C802 H814 0.960 . S
C802 H815 0.962 . S
C802 H816 0.960 . S
C803 C800 1.511 . S
C803 H817 0.961 . S
C803 H818 0.961 . S
C803 H819 0.961 . S
C804 C805 1.370 . S
C804 C806 1.363 . S
C804 H820 0.931 . S
C805 C804 1.370 . S
C805 C809 1.408 . S
C806 C804 1.363 . S
C806 C807 1.370 . S
C806 C810 1.524 . S
C807 C799 1.503 . S
C807 C806 1.370 . S
C807 C808 1.403 . S
C808 C807 1.403 . S
C808 C809 1.404 . S
C808 C811 1.539 . S
C809 C805 1.408 . S
C809 C808 1.404 . S
C809 H821 0.930 . S
C810 C806 1.524 . S
C810 H822 0.956 . S
C810 H823 0.961 . S
C810 H824 0.961 . S
C811 C808 1.539 . S
C811 H825 0.958 . S
C811 H826 0.961 . S
C811 H827 0.960 . S
H812 C796 0.931 . S
H813 C801 0.929 . S
H814 C802 0.960 . S
H815 C802 0.962 . S
H816 C802 0.960 . S
H817 C803 0.961 . S
H818 C803 0.961 . S
H819 C803 0.961 . S
H820 C804 0.931 . S
H821 C809 0.930 . S
H822 C810 0.956 . S
H823 C810 0.961 . S
H824 C810 0.961 . S
H825 C811 0.958 . S
H826 C811 0.961 . S
H827 C811 0.960 . S
C828 C829 1.391 . S
C828 C830 1.394 . S
C828 H844 0.931 . S
C829 C828 1.391 . S
C829 C833 1.376 1_655 S
C830 C828 1.394 . S
C830 C831 1.369 . S
C830 C834 1.531 . S
C831 C830 1.369 . S
C831 C832 1.410 1_655 S
C831 C839 1.503 . S
C832 C831 1.410 1_455 S
C832 C833 1.392 . S
C832 C835 1.511 . S
C833 C829 1.376 1_455 S
C833 C832 1.392 . S
C833 H845 0.929 . S
C834 C830 1.531 . S
C834 H846 0.960 . S
C834 H847 0.962 . S
C834 H848 0.960 . S
C835 C832 1.511 . S
C835 H849 0.961 . S
C835 H850 0.961 . S
C835 H851 0.961 . S
C836 C837 1.370 1_655 S
C836 C838 1.363 . S
C836 H852 0.931 . S
C837 C836 1.370 1_455 S
C837 C841 1.408 . S
C838 C836 1.363 . S
C838 C839 1.370 . S
C838 C842 1.524 . S
C839 C831 1.503 . S
C839 C838 1.370 . S
C839 C840 1.403 1_655 S
C840 C839 1.403 1_455 S
C840 C841 1.404 . S
C840 C843 1.539 . S
C841 C837 1.408 . S
C841 C840 1.404 . S
C841 H853 0.930 . S
C842 C838 1.524 . S
C842 H854 0.956 . S
C842 H855 0.961 . S
C842 H856 0.961 . S
C843 C840 1.539 . S
C843 H857 0.958 1_455 S
C843 H858 0.961 . S
C843 H859 0.960 . S
H844 C828 0.931 . S
H845 C833 0.929 . S
H846 C834 0.960 . S
H847 C834 0.962 . S
H848 C834 0.960 . S
H849 C835 0.961 . S
H850 C835 0.961 . S
H851 C835 0.961 . S
H852 C836 0.931 . S
H853 C841 0.930 . S
H854 C842 0.956 . S
H855 C842 0.961 . S
H856 C842 0.961 . S
H857 C843 0.958 1_655 S
H858 C843 0.961 . S
H859 C843 0.960 . S
C860 C861 1.391 . S
C860 C862 1.394 . S
C860 H876 0.931 . S
C861 C860 1.391 . S
C861 C865 1.376 . S
C862 C860 1.394 . S
C862 C863 1.369 . S
C862 C866 1.531 . S
C863 C862 1.369 . S
C863 C864 1.410 . S
C863 C871 1.503 . S
C864 C863 1.410 . S
C864 C865 1.392 . S
C864 C867 1.511 . S
C865 C861 1.376 . S
C865 C864 1.392 . S
C865 H877 0.929 . S
C866 C862 1.531 . S
C866 H878 0.960 . S
C866 H879 0.962 . S
C866 H880 0.960 . S
C867 C864 1.511 . S
C867 H881 0.961 . S
C867 H882 0.961 . S
C867 H883 0.961 . S
C868 C869 1.370 . S
C868 C870 1.363 . S
C868 H884 0.931 . S
C869 C868 1.370 . S
C869 C873 1.408 . S
C870 C868 1.363 . S
C870 C871 1.370 . S
C870 C874 1.524 . S
C871 C863 1.503 . S
C871 C870 1.370 . S
C871 C872 1.403 . S
C872 C871 1.403 . S
C872 C873 1.404 . S
C872 C875 1.539 . S
C873 C869 1.408 . S
C873 C872 1.404 . S
C873 H885 0.930 . S
C874 C870 1.524 . S
C874 H886 0.956 . S
C874 H887 0.961 . S
C874 H888 0.961 . S
C875 C872 1.539 . S
C875 H889 0.958 . S
C875 H890 0.961 . S
C875 H891 0.960 . S
H876 C860 0.931 . S
H877 C865 0.929 . S
H878 C866 0.960 . S
H879 C866 0.962 . S
H880 C866 0.960 . S
H881 C867 0.961 . S
H882 C867 0.961 . S
H883 C867 0.961 . S
H884 C868 0.931 . S
H885 C873 0.930 . S
H886 C874 0.956 . S
H887 C874 0.961 . S
H888 C874 0.961 . S
H889 C875 0.958 . S
H890 C875 0.961 . S
H891 C875 0.960 . S
C892 C893 1.391 . S
C892 C894 1.394 . S
C892 H908 0.931 . S
C893 C892 1.391 . S
C893 C897 1.376 . S
C894 C892 1.394 . S
C894 C895 1.369 . S
C894 C898 1.531 . S
C895 C894 1.369 . S
C895 C896 1.410 . S
C895 C903 1.503 . S
C896 C895 1.410 . S
C896 C897 1.392 . S
C896 C899 1.511 . S
C897 C893 1.376 . S
C897 C896 1.392 . S
C897 H909 0.929 . S
C898 C894 1.531 . S
C898 H910 0.960 . S
C898 H911 0.962 . S
C898 H912 0.960 . S
C899 C896 1.511 . S
C899 H913 0.961 . S
C899 H914 0.961 . S
C899 H915 0.961 . S
C900 C901 1.370 . S
C900 C902 1.363 . S
C900 H916 0.931 . S
C901 C900 1.370 . S
C901 C905 1.408 . S
C902 C900 1.363 . S
C902 C903 1.370 . S
C902 C906 1.524 . S
C903 C895 1.503 . S
C903 C902 1.370 . S
C903 C904 1.403 . S
C904 C903 1.403 . S
C904 C905 1.404 . S
C904 C907 1.539 . S
C905 C901 1.408 . S
C905 C904 1.404 . S
C905 H917 0.930 . S
C906 C902 1.524 . S
C906 H918 0.956 . S
C906 H919 0.961 . S
C906 H920 0.961 . S
C907 C904 1.539 . S
C907 H921 0.958 . S
C907 H922 0.961 . S
C907 H923 0.960 . S
H908 C892 0.931 . S
H909 C897 0.929 . S
H910 C898 0.960 . S
H911 C898 0.962 . S
H912 C898 0.960 . S
H913 C899 0.961 . S
H914 C899 0.961 . S
H915 C899 0.961 . S
H916 C900 0.931 . S
H917 C905 0.930 . S
H918 C906 0.956 . S
H919 C906 0.961 . S
H920 C906 0.961 . S
H921 C907 0.958 . S
H922 C907 0.961 . S
H923 C907 0.960 . S
C924 C925 1.391 . S
C924 C926 1.394 1_545 S
C924 H940 0.931 . S
C925 C924 1.391 . S
C925 C929 1.376 1_545 S
C926 C924 1.394 1_565 S
C926 C927 1.369 . S
C926 C930 1.531 . S
C927 C926 1.369 . S
C927 C928 1.410 . S
C927 C935 1.503 . S
C928 C927 1.410 . S
C928 C929 1.392 . S
C928 C931 1.511 1_556 S
C929 C925 1.376 1_565 S
C929 C928 1.392 . S
C929 H941 0.929 . S
C930 C926 1.531 . S
C930 H942 0.960 . S
C930 H943 0.962 1_565 S
C930 H944 0.960 1_565 S
C931 C928 1.511 1_554 S
C931 H945 0.961 . S
C931 H946 0.961 . S
C931 H947 0.962 . S
C932 C933 1.370 . S
C932 C934 1.363 . S
C932 H948 0.931 . S
C933 C932 1.370 . S
C933 C937 1.408 1_554 S
C934 C932 1.363 . S
C934 C935 1.370 1_554 S
C934 C938 1.524 . S
C935 C927 1.503 . S
C935 C934 1.370 1_556 S
C935 C936 1.403 . S
C936 C935 1.403 . S
C936 C937 1.404 . S
C936 C939 1.539 . S
C937 C933 1.408 1_556 S
C937 C936 1.404 . S
C937 H949 0.930 . S
C938 C934 1.524 . S
C938 H950 0.956 1_565 S
C938 H951 0.961 . S
C938 H952 0.961 . S
C939 C936 1.539 . S
C939 H953 0.958 . S
C939 H954 0.961 . S
C939 H955 0.960 . S
H940 C924 0.931 . S
H941 C929 0.929 . S
H942 C930 0.960 . S
H943 C930 0.962 1_545 S
H944 C930 0.960 1_545 S
H945 C931 0.961 . S
H946 C931 0.961 . S
H947 C931 0.962 . S
H948 C932 0.931 . S
H949 C937 0.930 . S
H950 C938 0.956 1_545 S
H951 C938 0.961 . S
H952 C938 0.961 . S
H953 C939 0.958 . S
H954 C939 0.961 . S
H955 C939 0.960 . S
C956 C957 1.391 . S
C956 C958 1.394 . S
C956 H972 0.931 . S
C957 C956 1.391 . S
C957 C961 1.376 . S
C958 C956 1.394 . S
C958 C959 1.369 . S
C958 C962 1.531 . S
C959 C958 1.369 . S
C959 C960 1.410 . S
C959 C967 1.503 . S
C960 C959 1.410 . S
C960 C961 1.392 . S
C960 C963 1.511 . S
C961 C957 1.376 . S
C961 C960 1.392 . S
C961 H973 0.929 . S
C962 C958 1.531 . S
C962 H974 0.960 . S
C962 H975 0.962 . S
C962 H976 0.960 . S
C963 C960 1.511 . S
C963 H977 0.961 . S
C963 H978 0.961 . S
C963 H979 0.961 . S
C964 C965 1.370 . S
C964 C966 1.363 . S
C964 H980 0.931 . S
C965 C964 1.370 . S
C965 C969 1.408 . S
C966 C964 1.363 . S
C966 C967 1.370 . S
C966 C970 1.524 . S
C967 C959 1.503 . S
C967 C966 1.370 . S
C967 C968 1.403 . S
C968 C967 1.403 . S
C968 C969 1.404 . S
C968 C971 1.539 . S
C969 C965 1.408 . S
C969 C968 1.404 . S
C969 H981 0.930 . S
C970 C966 1.524 . S
C970 H982 0.956 . S
C970 H983 0.961 . S
C970 H984 0.961 . S
C971 C968 1.539 . S
C971 H985 0.958 . S
C971 H986 0.961 . S
C971 H987 0.960 . S
H972 C956 0.931 . S
H973 C961 0.929 . S
H974 C962 0.960 . S
H975 C962 0.962 . S
H976 C962 0.960 . S
H977 C963 0.961 . S
H978 C963 0.961 . S
H979 C963 0.961 . S
H980 C964 0.931 . S
H981 C969 0.930 . S
H982 C970 0.956 . S
H983 C970 0.961 . S
H984 C970 0.961 . S
H985 C971 0.958 . S
H986 C971 0.961 . S
H987 C971 0.960 . S
C988 C989 1.391 . S
C988 C990 1.394 . S
C988 H1004 0.931 . S
C989 C988 1.391 . S
C989 C993 1.376 . S
C990 C988 1.394 . S
C990 C991 1.369 . S
C990 C994 1.531 . S
C991 C990 1.369 . S
C991 C992 1.410 . S
C991 C999 1.503 . S
C992 C991 1.410 . S
C992 C993 1.392 . S
C992 C995 1.511 . S
C993 C989 1.376 . S
C993 C992 1.392 . S
C993 H1005 0.929 . S
C994 C990 1.531 . S
C994 H1006 0.960 . S
C994 H1007 0.962 . S
C994 H1008 0.960 . S
C995 C992 1.511 . S
C995 H1009 0.961 . S
C995 H1010 0.961 . S
C995 H1011 0.961 . S
C996 C997 1.370 . S
C996 C998 1.363 . S
C996 H1012 0.931 . S
C997 C996 1.370 . S
C997 C1001 1.408 . S
C998 C996 1.363 . S
C998 C999 1.370 . S
C998 C1002 1.524 . S
C999 C991 1.503 . S
C999 C998 1.370 . S
C999 C1000 1.403 . S
C1000 C999 1.403 . S
C1000 C1001 1.404 . S
C1000 C1003 1.539 . S
C1001 C997 1.408 . S
C1001 C1000 1.404 . S
C1001 H1013 0.930 . S
C1002 C998 1.524 . S
C1002 H1014 0.956 . S
C1002 H1015 0.961 . S
C1002 H1016 0.961 . S
C1003 C1000 1.539 . S
C1003 H1017 0.958 . S
C1003 H1018 0.961 . S
C1003 H1019 0.960 . S
H1004 C988 0.931 . S
H1005 C993 0.929 . S
H1006 C994 0.960 . S
H1007 C994 0.962 . S
H1008 C994 0.960 . S
H1009 C995 0.961 . S
H1010 C995 0.961 . S
H1011 C995 0.961 . S
H1012 C996 0.931 . S
H1013 C1001 0.930 . S
H1014 C1002 0.956 . S
H1015 C1002 0.961 . S
H1016 C1002 0.961 . S
H1017 C1003 0.958 . S
H1018 C1003 0.961 . S
H1019 C1003 0.960 . S
C1020 C1021 1.391 . S
C1020 C1022 1.394 . S
C1020 H1036 0.931 . S
C1021 C1020 1.391 . S
C1021 C1025 1.376 . S
C1022 C1020 1.394 . S
C1022 C1023 1.369 . S
C1022 C1026 1.531 . S
C1023 C1022 1.369 . S
C1023 C1024 1.410 . S
C1023 C1031 1.503 . S
C1024 C1023 1.410 . S
C1024 C1025 1.392 . S
C1024 C1027 1.511 . S
C1025 C1021 1.376 . S
C1025 C1024 1.392 . S
C1025 H1037 0.929 . S
C1026 C1022 1.531 . S
C1026 H1038 0.960 . S
C1026 H1039 0.962 . S
C1026 H1040 0.960 . S
C1027 C1024 1.511 . S
C1027 H1041 0.961 . S
C1027 H1042 0.961 . S
C1027 H1043 0.961 . S
C1028 C1029 1.370 . S
C1028 C1030 1.363 . S
C1028 H1044 0.931 . S
C1029 C1028 1.370 . S
C1029 C1033 1.408 . S
C1030 C1028 1.363 . S
C1030 C1031 1.370 . S
C1030 C1034 1.524 . S
C1031 C1023 1.503 . S
C1031 C1030 1.370 . S
C1031 C1032 1.403 . S
C1032 C1031 1.403 . S
C1032 C1033 1.404 . S
C1032 C1035 1.539 . S
C1033 C1029 1.408 . S
C1033 C1032 1.404 . S
C1033 H1045 0.930 . S
C1034 C1030 1.524 . S
C1034 H1046 0.956 . S
C1034 H1047 0.961 . S
C1034 H1048 0.961 . S
C1035 C1032 1.539 . S
C1035 H1049 0.958 . S
C1035 H1050 0.961 . S
C1035 H1051 0.960 . S
H1036 C1020 0.931 . S
H1037 C1025 0.929 . S
H1038 C1026 0.960 . S
H1039 C1026 0.962 . S
H1040 C1026 0.960 . S
H1041 C1027 0.961 . S
H1042 C1027 0.961 . S
H1043 C1027 0.961 . S
H1044 C1028 0.931 . S
H1045 C1033 0.930 . S
H1046 C1034 0.956 . S
H1047 C1034 0.961 . S
H1048 C1034 0.961 . S
H1049 C1035 0.958 . S
H1050 C1035 0.961 . S
H1051 C1035 0.960 . S
C1052 C1053 1.391 . S
C1052 C1054 1.394 . S
C1052 H1068 0.931 . S
C1053 C1052 1.391 . S
C1053 C1057 1.376 . S
C1054 C1052 1.394 . S
C1054 C1055 1.369 . S
C1054 C1058 1.531 . S
C1055 C1054 1.369 . S
C1055 C1056 1.410 . S
C1055 C1063 1.503 . S
C1056 C1055 1.410 . S
C1056 C1057 1.392 . S
C1056 C1059 1.511 . S
C1057 C1053 1.376 . S
C1057 C1056 1.392 . S
C1057 H1069 0.929 . S
C1058 C1054 1.531 . S
C1058 H1070 0.960 . S
C1058 H1071 0.962 . S
C1058 H1072 0.960 . S
C1059 C1056 1.511 . S
C1059 H1073 0.961 . S
C1059 H1074 0.961 . S
C1059 H1075 0.961 . S
C1060 C1061 1.370 . S
C1060 C1062 1.363 . S
C1060 H1076 0.931 . S
C1061 C1060 1.370 . S
C1061 C1065 1.408 . S
C1062 C1060 1.363 . S
C1062 C1063 1.370 . S
C1062 C1066 1.524 . S
C1063 C1055 1.503 . S
C1063 C1062 1.370 . S
C1063 C1064 1.403 . S
C1064 C1063 1.403 . S
C1064 C1065 1.404 . S
C1064 C1067 1.539 . S
C1065 C1061 1.408 . S
C1065 C1064 1.404 . S
C1065 H1077 0.930 . S
C1066 C1062 1.524 . S
C1066 H1078 0.956 . S
C1066 H1079 0.961 . S
C1066 H1080 0.961 . S
C1067 C1064 1.539 . S
C1067 H1081 0.958 . S
C1067 H1082 0.961 . S
C1067 H1083 0.960 . S
H1068 C1052 0.931 . S
H1069 C1057 0.929 . S
H1070 C1058 0.960 . S
H1071 C1058 0.962 . S
H1072 C1058 0.960 . S
H1073 C1059 0.961 . S
H1074 C1059 0.961 . S
H1075 C1059 0.961 . S
H1076 C1060 0.931 . S
H1077 C1065 0.930 . S
H1078 C1066 0.956 . S
H1079 C1066 0.961 . S
H1080 C1066 0.961 . S
H1081 C1067 0.958 . S
H1082 C1067 0.961 . S
H1083 C1067 0.960 . S
C1084 C1085 1.391 . S
C1084 C1086 1.394 . S
C1084 H1100 0.931 . S
C1085 C1084 1.391 . S
C1085 C1089 1.376 . S
C1086 C1084 1.394 . S
C1086 C1087 1.369 . S
C1086 C1090 1.531 . S
C1087 C1086 1.369 . S
C1087 C1088 1.410 . S
C1087 C1095 1.503 . S
C1088 C1087 1.410 . S
C1088 C1089 1.392 . S
C1088 C1091 1.511 . S
C1089 C1085 1.376 . S
C1089 C1088 1.392 . S
C1089 H1101 0.929 . S
C1090 C1086 1.531 . S
C1090 H1102 0.960 . S
C1090 H1103 0.962 . S
C1090 H1104 0.960 . S
C1091 C1088 1.511 . S
C1091 H1105 0.961 . S
C1091 H1106 0.961 . S
C1091 H1107 0.961 . S
C1092 C1093 1.370 . S
C1092 C1094 1.363 . S
C1092 H1108 0.931 . S
C1093 C1092 1.370 . S
C1093 C1097 1.408 . S
C1094 C1092 1.363 . S
C1094 C1095 1.370 . S
C1094 C1098 1.524 . S
C1095 C1087 1.503 . S
C1095 C1094 1.370 . S
C1095 C1096 1.403 . S
C1096 C1095 1.403 . S
C1096 C1097 1.404 . S
C1096 C1099 1.539 . S
C1097 C1093 1.408 . S
C1097 C1096 1.404 . S
C1097 H1109 0.930 . S
C1098 C1094 1.524 . S
C1098 H1110 0.956 . S
C1098 H1111 0.961 . S
C1098 H1112 0.961 . S
C1099 C1096 1.539 . S
C1099 H1113 0.958 . S
C1099 H1114 0.961 . S
C1099 H1115 0.960 . S
H1100 C1084 0.931 . S
H1101 C1089 0.929 . S
H1102 C1090 0.960 . S
H1103 C1090 0.962 . S
H1104 C1090 0.960 . S
H1105 C1091 0.961 . S
H1106 C1091 0.961 . S
H1107 C1091 0.961 . S
H1108 C1092 0.931 . S
H1109 C1097 0.930 . S
H1110 C1098 0.956 . S
H1111 C1098 0.961 . S
H1112 C1098 0.961 . S
H1113 C1099 0.958 . S
H1114 C1099 0.961 . S
H1115 C1099 0.960 . S
C1116 C1117 1.391 . S
C1116 C1118 1.394 . S
C1116 H1132 0.931 . S
C1117 C1116 1.391 . S
C1117 C1121 1.376 . S
C1118 C1116 1.394 . S
C1118 C1119 1.369 . S
C1118 C1122 1.531 . S
C1119 C1118 1.369 . S
C1119 C1120 1.410 . S
C1119 C1127 1.503 . S
C1120 C1119 1.410 . S
C1120 C1121 1.392 . S
C1120 C1123 1.511 . S
C1121 C1117 1.376 . S
C1121 C1120 1.392 . S
C1121 H1133 0.929 . S
C1122 C1118 1.531 . S
C1122 H1134 0.960 . S
C1122 H1135 0.962 . S
C1122 H1136 0.960 . S
C1123 C1120 1.511 . S
C1123 H1137 0.961 . S
C1123 H1138 0.961 . S
C1123 H1139 0.961 . S
C1124 C1125 1.370 . S
C1124 C1126 1.363 . S
C1124 H1140 0.931 . S
C1125 C1124 1.370 . S
C1125 C1129 1.408 . S
C1126 C1124 1.363 . S
C1126 C1127 1.370 . S
C1126 C1130 1.524 . S
C1127 C1119 1.503 . S
C1127 C1126 1.370 . S
C1127 C1128 1.403 . S
C1128 C1127 1.403 . S
C1128 C1129 1.404 . S
C1128 C1131 1.539 . S
C1129 C1125 1.408 . S
C1129 C1128 1.404 . S
C1129 H1141 0.930 . S
C1130 C1126 1.524 . S
C1130 H1142 0.956 . S
C1130 H1143 0.961 . S
C1130 H1144 0.961 . S
C1131 C1128 1.539 . S
C1131 H1145 0.958 . S
C1131 H1146 0.961 . S
C1131 H1147 0.960 . S
H1132 C1116 0.931 . S
H1133 C1121 0.929 . S
H1134 C1122 0.960 . S
H1135 C1122 0.962 . S
H1136 C1122 0.960 . S
H1137 C1123 0.961 . S
H1138 C1123 0.961 . S
H1139 C1123 0.961 . S
H1140 C1124 0.931 . S
H1141 C1129 0.930 . S
H1142 C1130 0.956 . S
H1143 C1130 0.961 . S
H1144 C1130 0.961 . S
H1145 C1131 0.958 . S
H1146 C1131 0.961 . S
H1147 C1131 0.960 . S
C1148 C1149 1.391 . S
C1148 C1150 1.394 . S
C1148 H1164 0.931 . S
C1149 C1148 1.391 . S
C1149 C1153 1.376 . S
C1150 C1148 1.394 . S
C1150 C1151 1.369 . S
C1150 C1154 1.531 1_545 S
C1151 C1150 1.369 . S
C1151 C1152 1.410 . S
C1151 C1159 1.503 . S
C1152 C1151 1.410 . S
C1152 C1153 1.392 . S
C1152 C1155 1.511 . S
C1153 C1149 1.376 . S
C1153 C1152 1.392 . S
C1153 H1165 0.929 . S
C1154 C1150 1.531 1_565 S
C1154 H1166 0.960 . S
C1154 H1167 0.962 1_565 S
C1154 H1168 0.960 . S
C1155 C1152 1.511 . S
C1155 H1169 0.961 . S
C1155 H1170 0.961 . S
C1155 H1171 0.961 . S
C1156 C1157 1.370 . S
C1156 C1158 1.363 . S
C1156 H1172 0.931 . S
C1157 C1156 1.370 . S
C1157 C1161 1.408 1_545 S
C1158 C1156 1.363 . S
C1158 C1159 1.370 . S
C1158 C1162 1.524 . S
C1159 C1151 1.503 . S
C1159 C1158 1.370 . S
C1159 C1160 1.403 1_545 S
C1160 C1159 1.403 1_565 S
C1160 C1161 1.404 . S
C1160 C1163 1.539 . S
C1161 C1157 1.408 1_565 S
C1161 C1160 1.404 . S
C1161 H1173 0.930 . S
C1162 C1158 1.524 . S
C1162 H1174 0.956 . S
C1162 H1175 0.961 . S
C1162 H1176 0.961 . S
C1163 C1160 1.539 . S
C1163 H1177 0.958 . S
C1163 H1178 0.961 . S
C1163 H1179 0.960 . S
H1164 C1148 0.931 . S
H1165 C1153 0.929 . S
H1166 C1154 0.960 . S
H1167 C1154 0.962 1_545 S
H1168 C1154 0.960 . S
H1169 C1155 0.961 . S
H1170 C1155 0.961 . S
H1171 C1155 0.961 . S
H1172 C1156 0.931 . S
H1173 C1161 0.930 . S
H1174 C1162 0.956 . S
H1175 C1162 0.961 . S
H1176 C1162 0.961 . S
H1177 C1163 0.958 . S
H1178 C1163 0.961 . S
H1179 C1163 0.960 . S
C1180 C1181 1.391 . S
C1180 C1182 1.394 . S
C1180 H1196 0.931 . S
C1181 C1180 1.391 . S
C1181 C1185 1.376 . S
C1182 C1180 1.394 . S
C1182 C1183 1.369 . S
C1182 C1186 1.531 . S
C1183 C1182 1.369 . S
C1183 C1184 1.410 . S
C1183 C1191 1.503 . S
C1184 C1183 1.410 . S
C1184 C1185 1.392 . S
C1184 C1187 1.511 . S
C1185 C1181 1.376 . S
C1185 C1184 1.392 . S
C1185 H1197 0.929 . S
C1186 C1182 1.531 . S
C1186 H1198 0.960 . S
C1186 H1199 0.962 . S
C1186 H1200 0.960 . S
C1187 C1184 1.511 . S
C1187 H1201 0.961 . S
C1187 H1202 0.961 . S
C1187 H1203 0.961 . S
C1188 C1189 1.370 . S
C1188 C1190 1.363 . S
C1188 H1204 0.931 . S
C1189 C1188 1.370 . S
C1189 C1193 1.408 . S
C1190 C1188 1.363 . S
C1190 C1191 1.370 . S
C1190 C1194 1.524 . S
C1191 C1183 1.503 . S
C1191 C1190 1.370 . S
C1191 C1192 1.403 . S
C1192 C1191 1.403 . S
C1192 C1193 1.404 . S
C1192 C1195 1.539 . S
C1193 C1189 1.408 . S
C1193 C1192 1.404 . S
C1193 H1205 0.930 . S
C1194 C1190 1.524 . S
C1194 H1206 0.956 . S
C1194 H1207 0.961 . S
C1194 H1208 0.961 . S
C1195 C1192 1.539 . S
C1195 H1209 0.958 . S
C1195 H1210 0.961 . S
C1195 H1211 0.960 . S
H1196 C1180 0.931 . S
H1197 C1185 0.929 . S
H1198 C1186 0.960 . S
H1199 C1186 0.962 . S
H1200 C1186 0.960 . S
H1201 C1187 0.961 . S
H1202 C1187 0.961 . S
H1203 C1187 0.961 . S
H1204 C1188 0.931 . S
H1205 C1193 0.930 . S
H1206 C1194 0.956 . S
H1207 C1194 0.961 . S
H1208 C1194 0.961 . S
H1209 C1195 0.958 . S
H1210 C1195 0.961 . S
H1211 C1195 0.960 . S
C1212 C1213 1.391 . S
C1212 C1214 1.394 . S
C1212 H1228 0.931 . S
C1213 C1212 1.391 . S
C1213 C1217 1.376 . S
C1214 C1212 1.394 . S
C1214 C1215 1.369 . S
C1214 C1218 1.531 . S
C1215 C1214 1.369 . S
C1215 C1216 1.410 . S
C1215 C1223 1.503 . S
C1216 C1215 1.410 . S
C1216 C1217 1.392 . S
C1216 C1219 1.511 . S
C1217 C1213 1.376 . S
C1217 C1216 1.392 . S
C1217 H1229 0.929 . S
C1218 C1214 1.531 . S
C1218 H1230 0.960 . S
C1218 H1231 0.962 . S
C1218 H1232 0.960 . S
C1219 C1216 1.511 . S
C1219 H1233 0.961 . S
C1219 H1234 0.961 . S
C1219 H1235 0.961 . S
C1220 C1221 1.370 . S
C1220 C1222 1.363 . S
C1220 H1236 0.931 . S
C1221 C1220 1.370 . S
C1221 C1225 1.408 . S
C1222 C1220 1.363 . S
C1222 C1223 1.370 . S
C1222 C1226 1.524 . S
C1223 C1215 1.503 . S
C1223 C1222 1.370 . S
C1223 C1224 1.403 . S
C1224 C1223 1.403 . S
C1224 C1225 1.404 . S
C1224 C1227 1.539 . S
C1225 C1221 1.408 . S
C1225 C1224 1.404 . S
C1225 H1237 0.930 . S
C1226 C1222 1.524 . S
C1226 H1238 0.956 . S
C1226 H1239 0.961 . S
C1226 H1240 0.961 . S
C1227 C1224 1.539 . S
C1227 H1241 0.958 . S
C1227 H1242 0.961 . S
C1227 H1243 0.960 . S
H1228 C1212 0.931 . S
H1229 C1217 0.929 . S
H1230 C1218 0.960 . S
H1231 C1218 0.962 . S
H1232 C1218 0.960 . S
H1233 C1219 0.961 . S
H1234 C1219 0.961 . S
H1235 C1219 0.961 . S
H1236 C1220 0.931 . S
H1237 C1225 0.930 . S
H1238 C1226 0.956 . S
H1239 C1226 0.961 . S
H1240 C1226 0.961 . S
H1241 C1227 0.958 . S
H1242 C1227 0.961 . S
H1243 C1227 0.960 . S
C1244 C1245 1.391 . S
C1244 C1246 1.394 . S
C1244 H1260 0.931 . S
C1245 C1244 1.391 . S
C1245 C1249 1.376 . S
C1246 C1244 1.394 . S
C1246 C1247 1.369 . S
C1246 C1250 1.531 . S
C1247 C1246 1.369 . S
C1247 C1248 1.410 . S
C1247 C1255 1.503 . S
C1248 C1247 1.410 . S
C1248 C1249 1.392 . S
C1248 C1251 1.511 . S
C1249 C1245 1.376 . S
C1249 C1248 1.392 . S
C1249 H1261 0.929 . S
C1250 C1246 1.531 . S
C1250 H1262 0.960 . S
C1250 H1263 0.962 . S
C1250 H1264 0.960 . S
C1251 C1248 1.511 . S
C1251 H1265 0.961 . S
C1251 H1266 0.961 . S
C1251 H1267 0.961 . S
C1252 C1253 1.370 . S
C1252 C1254 1.363 . S
C1252 H1268 0.931 . S
C1253 C1252 1.370 . S
C1253 C1257 1.408 . S
C1254 C1252 1.363 . S
C1254 C1255 1.370 . S
C1254 C1258 1.524 . S
C1255 C1247 1.503 . S
C1255 C1254 1.370 . S
C1255 C1256 1.403 . S
C1256 C1255 1.403 . S
C1256 C1257 1.404 . S
C1256 C1259 1.539 . S
C1257 C1253 1.408 . S
C1257 C1256 1.404 . S
C1257 H1269 0.930 . S
C1258 C1254 1.524 . S
C1258 H1270 0.956 . S
C1258 H1271 0.961 . S
C1258 H1272 0.961 . S
C1259 C1256 1.539 . S
C1259 H1273 0.958 . S
C1259 H1274 0.961 . S
C1259 H1275 0.960 . S
H1260 C1244 0.931 . S
H1261 C1249 0.929 . S
H1262 C1250 0.960 . S
H1263 C1250 0.962 . S
H1264 C1250 0.960 . S
H1265 C1251 0.961 . S
H1266 C1251 0.961 . S
H1267 C1251 0.961 . S
H1268 C1252 0.931 . S
H1269 C1257 0.930 . S
H1270 C1258 0.956 . S
H1271 C1258 0.961 . S
H1272 C1258 0.961 . S
H1273 C1259 0.958 . S
H1274 C1259 0.961 . S
H1275 C1259 0.960 . S
C1276 C1277 1.391 . S
C1276 C1278 1.394 . S
C1276 H1292 0.931 . S
C1277 C1276 1.391 . S
C1277 C1281 1.376 . S
C1278 C1276 1.394 . S
C1278 C1279 1.369 . S
C1278 C1282 1.531 . S
C1279 C1278 1.369 . S
C1279 C1280 1.410 1_455 S
C1279 C1287 1.503 1_455 S
C1280 C1279 1.410 1_655 S
C1280 C1281 1.392 1_655 S
C1280 C1283 1.511 . S
C1281 C1277 1.376 . S
C1281 C1280 1.392 1_455 S
C1281 H1293 0.929 1_455 S
C1282 C1278 1.531 . S
C1282 H1294 0.960 . S
C1282 H1295 0.962 . S
C1282 H1296 0.960 . S
C1283 C1280 1.511 . S
C1283 H1297 0.961 . S
C1283 H1298 0.961 . S
C1283 H1299 0.961 . S
C1284 C1285 1.370 . S
C1284 C1286 1.363 . S
C1284 H1300 0.931 . S
C1285 C1284 1.370 . S
C1285 C1289 1.408 . S
C1286 C1284 1.363 . S
C1286 C1287 1.370 . S
C1286 C1290 1.524 1_655 S
C1287 C1279 1.503 1_655 S
C1287 C1286 1.370 . S
C1287 C1288 1.403 . S
C1288 C1287 1.403 . S
C1288 C1289 1.404 . S
C1288 C1291 1.539 . S
C1289 C1285 1.408 . S
C1289 C1288 1.404 . S
C1289 H1301 0.930 . S
C1290 C1286 1.524 1_455 S
C1290 H1302 0.956 . S
C1290 H1303 0.961 1_545 S
C1290 H1304 0.961 1_545 S
C1291 C1288 1.539 . S
C1291 H1305 0.958 . S
C1291 H1306 0.961 . S
C1291 H1307 0.960 . S
H1292 C1276 0.931 . S
H1293 C1281 0.929 1_655 S
H1294 C1282 0.960 . S
H1295 C1282 0.962 . S
H1296 C1282 0.960 . S
H1297 C1283 0.961 . S
H1298 C1283 0.961 . S
H1299 C1283 0.961 . S
H1300 C1284 0.931 . S
H1301 C1289 0.930 . S
H1302 C1290 0.956 . S
H1303 C1290 0.961 1_565 S
H1304 C1290 0.961 1_565 S
H1305 C1291 0.958 . S
H1306 C1291 0.961 . S
H1307 C1291 0.960 . S
C1308 C1309 1.391 . S
C1308 C1310 1.394 . S
C1308 H1324 0.931 . S
C1309 C1308 1.391 . S
C1309 C1313 1.376 . S
C1310 C1308 1.394 . S
C1310 C1311 1.369 . S
C1310 C1314 1.531 . S
C1311 C1310 1.369 . S
C1311 C1312 1.410 . S
C1311 C1319 1.503 . S
C1312 C1311 1.410 . S
C1312 C1313 1.392 . S
C1312 C1315 1.511 . S
C1313 C1309 1.376 . S
C1313 C1312 1.392 . S
C1313 H1325 0.929 . S
C1314 C1310 1.531 . S
C1314 H1326 0.960 . S
C1314 H1327 0.962 . S
C1314 H1328 0.960 . S
C1315 C1312 1.511 . S
C1315 H1329 0.961 . S
C1315 H1330 0.961 . S
C1315 H1331 0.961 . S
C1316 C1317 1.370 . S
C1316 C1318 1.363 . S
C1316 H1332 0.931 . S
C1317 C1316 1.370 . S
C1317 C1321 1.408 . S
C1318 C1316 1.363 . S
C1318 C1319 1.370 . S
C1318 C1322 1.524 . S
C1319 C1311 1.503 . S
C1319 C1318 1.370 . S
C1319 C1320 1.403 . S
C1320 C1319 1.403 . S
C1320 C1321 1.404 . S
C1320 C1323 1.539 . S
C1321 C1317 1.408 . S
C1321 C1320 1.404 . S
C1321 H1333 0.930 . S
C1322 C1318 1.524 . S
C1322 H1334 0.956 . S
C1322 H1335 0.961 . S
C1322 H1336 0.961 . S
C1323 C1320 1.539 . S
C1323 H1337 0.958 . S
C1323 H1338 0.961 . S
C1323 H1339 0.960 . S
H1324 C1308 0.931 . S
H1325 C1313 0.929 . S
H1326 C1314 0.960 . S
H1327 C1314 0.962 . S
H1328 C1314 0.960 . S
H1329 C1315 0.961 . S
H1330 C1315 0.961 . S
H1331 C1315 0.961 . S
H1332 C1316 0.931 . S
H1333 C1321 0.930 . S
H1334 C1322 0.956 . S
H1335 C1322 0.961 . S
H1336 C1322 0.961 . S
H1337 C1323 0.958 . S
H1338 C1323 0.961 . S
H1339 C1323 0.960 . S
C1340 C1341 1.391 . S
C1340 C1342 1.394 . S
C1340 H1356 0.931 . S
C1341 C1340 1.391 . S
C1341 C1345 1.376 1_455 S
C1342 C1340 1.394 . S
C1342 C1343 1.369 . S
C1342 C1346 1.531 . S
C1343 C1342 1.369 . S
C1343 C1344 1.410 . S
C1343 C1351 1.503 . S
C1344 C1343 1.410 . S
C1344 C1345 1.392 1_455 S
C1344 C1347 1.511 1_455 S
C1345 C1341 1.376 1_655 S
C1345 C1344 1.392 1_655 S
C1345 H1357 0.929 . S
C1346 C1342 1.531 . S
C1346 H1358 0.960 . S
C1346 H1359 0.962 . S
C1346 H1360 0.960 . S
C1347 C1344 1.511 1_655 S
C1347 H1361 0.961 . S
C1347 H1362 0.961 1_655 S
C1347 H1363 0.961 . S
C1348 C1349 1.370 . S
C1348 C1350 1.363 . S
C1348 H1364 0.931 . S
C1349 C1348 1.370 . S
C1349 C1353 1.408 . S
C1350 C1348 1.363 . S
C1350 C1351 1.370 . S
C1350 C1354 1.524 . S
C1351 C1343 1.503 . S
C1351 C1350 1.370 . S
C1351 C1352 1.403 . S
C1352 C1351 1.403 . S
C1352 C1353 1.404 . S
C1352 C1355 1.539 . S
C1353 C1349 1.408 . S
C1353 C1352 1.404 . S
C1353 H1365 0.930 . S
C1354 C1350 1.524 . S
C1354 H1366 0.956 . S
C1354 H1367 0.961 . S
C1354 H1368 0.961 . S
C1355 C1352 1.539 . S
C1355 H1369 0.958 . S
C1355 H1370 0.961 . S
C1355 H1371 0.960 . S
H1356 C1340 0.931 . S
H1357 C1345 0.929 . S
H1358 C1346 0.960 . S
H1359 C1346 0.962 . S
H1360 C1346 0.960 . S
H1361 C1347 0.961 . S
H1362 C1347 0.961 1_455 S
H1363 C1347 0.961 . S
H1364 C1348 0.931 . S
H1365 C1353 0.930 . S
H1366 C1354 0.956 . S
H1367 C1354 0.961 . S
H1368 C1354 0.961 . S
H1369 C1355 0.958 . S
H1370 C1355 0.961 . S
H1371 C1355 0.960 . S
C1372 C1373 1.391 . S
C1372 C1374 1.394 . S
C1372 H1388 0.931 . S
C1373 C1372 1.391 . S
C1373 C1377 1.376 . S
C1374 C1372 1.394 . S
C1374 C1375 1.369 . S
C1374 C1378 1.531 . S
C1375 C1374 1.369 . S
C1375 C1376 1.410 . S
C1375 C1383 1.503 . S
C1376 C1375 1.410 . S
C1376 C1377 1.392 . S
C1376 C1379 1.511 . S
C1377 C1373 1.376 . S
C1377 C1376 1.392 . S
C1377 H1389 0.929 . S
C1378 C1374 1.531 . S
C1378 H1390 0.960 . S
C1378 H1391 0.962 . S
C1378 H1392 0.960 . S
C1379 C1376 1.511 . S
C1379 H1393 0.961 . S
C1379 H1394 0.961 . S
C1379 H1395 0.961 . S
C1380 C1381 1.370 . S
C1380 C1382 1.363 . S
C1380 H1396 0.931 . S
C1381 C1380 1.370 . S
C1381 C1385 1.408 . S
C1382 C1380 1.363 . S
C1382 C1383 1.370 . S
C1382 C1386 1.524 . S
C1383 C1375 1.503 . S
C1383 C1382 1.370 . S
C1383 C1384 1.403 . S
C1384 C1383 1.403 . S
C1384 C1385 1.404 . S
C1384 C1387 1.539 . S
C1385 C1381 1.408 . S
C1385 C1384 1.404 . S
C1385 H1397 0.930 . S
C1386 C1382 1.524 . S
C1386 H1398 0.956 . S
C1386 H1399 0.961 . S
C1386 H1400 0.961 . S
C1387 C1384 1.539 . S
C1387 H1401 0.958 . S
C1387 H1402 0.961 . S
C1387 H1403 0.960 . S
H1388 C1372 0.931 . S
H1389 C1377 0.929 . S
H1390 C1378 0.960 . S
H1391 C1378 0.962 . S
H1392 C1378 0.960 . S
H1393 C1379 0.961 . S
H1394 C1379 0.961 . S
H1395 C1379 0.961 . S
H1396 C1380 0.931 . S
H1397 C1385 0.930 . S
H1398 C1386 0.956 . S
H1399 C1386 0.961 . S
H1400 C1386 0.961 . S
H1401 C1387 0.958 . S
H1402 C1387 0.961 . S
H1403 C1387 0.960 . S
C1404 C1405 1.391 . S
C1404 C1406 1.394 . S
C1404 H1420 0.931 1_556 S
C1405 C1404 1.391 . S
C1405 C1409 1.376 . S
C1406 C1404 1.394 . S
C1406 C1407 1.369 . S
C1406 C1410 1.531 1_655 S
C1407 C1406 1.369 . S
C1407 C1408 1.410 . S
C1407 C1415 1.503 . S
C1408 C1407 1.410 . S
C1408 C1409 1.392 . S
C1408 C1411 1.511 . S
C1409 C1405 1.376 . S
C1409 C1408 1.392 . S
C1409 H1421 0.929 . S
C1410 C1406 1.531 1_455 S
C1410 H1422 0.960 1_455 S
C1410 H1423 0.962 . S
C1410 H1424 0.960 1_556 S
C1411 C1408 1.511 . S
C1411 H1425 0.961 . S
C1411 H1426 0.961 . S
C1411 H1427 0.961 . S
C1412 C1413 1.346 1_455 S
C1412 C1414 1.363 . S
C1412 H1428 0.931 . S
C1413 C1412 1.346 1_655 S
C1413 C1417 1.445 . S
C1414 C1412 1.363 . S
C1414 C1415 1.370 1_455 S
C1414 C1418 1.524 . S
C1415 C1407 1.503 . S
C1415 C1414 1.370 1_655 S
C1415 C1416 1.403 . S
C1416 C1415 1.403 . S
C1416 C1417 1.404 . S
C1416 C1419 1.539 . S
C1417 C1413 1.445 . S
C1417 C1416 1.404 . S
C1417 H1429 0.930 . S
C1418 C1414 1.524 . S
C1418 H1430 0.956 . S
C1418 H1431 0.961 . S
C1418 H1432 0.961 . S
C1419 C1416 1.539 . S
C1419 H1433 0.958 . S
C1419 H1434 0.961 . S
C1419 H1435 0.960 . S
H1420 C1404 0.931 1_554 S
H1421 C1409 0.929 . S
H1422 C1410 0.960 1_655 S
H1423 C1410 0.962 . S
H1424 C1410 0.960 1_554 S
H1425 C1411 0.961 . S
H1426 C1411 0.961 . S
H1427 C1411 0.961 . S
H1428 C1412 0.931 . S
H1429 C1417 0.930 . S
H1430 C1418 0.956 . S
H1431 C1418 0.961 . S
H1432 C1418 0.961 . S
H1433 C1419 0.958 . S
H1434 C1419 0.961 . S
H1435 C1419 0.960 . S
C1436 C1437 1.391 . S
C1436 C1438 1.394 . S
C1436 H1452 0.931 . S
C1437 C1436 1.391 . S
C1437 C1441 1.376 . S
C1438 C1436 1.394 . S
C1438 C1439 1.369 . S
C1438 C1442 1.531 . S
C1439 C1438 1.369 . S
C1439 C1440 1.410 . S
C1439 C1447 1.503 . S
C1440 C1439 1.410 . S
C1440 C1441 1.392 . S
C1440 C1443 1.511 . S
C1441 C1437 1.376 . S
C1441 C1440 1.392 . S
C1441 H1453 0.929 . S
C1442 C1438 1.531 . S
C1442 H1454 0.960 . S
C1442 H1455 0.962 . S
C1442 H1456 0.960 . S
C1443 C1440 1.511 . S
C1443 H1457 0.961 . S
C1443 H1458 0.961 . S
C1443 H1459 0.961 . S
C1444 C1445 1.370 . S
C1444 C1446 1.363 . S
C1444 H1460 0.931 . S
C1445 C1444 1.370 . S
C1445 C1449 1.408 . S
C1446 C1444 1.363 . S
C1446 C1447 1.370 . S
C1446 C1450 1.524 . S
C1447 C1439 1.503 . S
C1447 C1446 1.370 . S
C1447 C1448 1.403 . S
C1448 C1447 1.403 . S
C1448 C1449 1.404 . S
C1448 C1451 1.539 . S
C1449 C1445 1.408 . S
C1449 C1448 1.404 . S
C1449 H1461 0.930 . S
C1450 C1446 1.524 . S
C1450 H1462 0.956 . S
C1450 H1463 0.961 . S
C1450 H1464 0.961 . S
C1451 C1448 1.539 . S
C1451 H1465 0.958 . S
C1451 H1466 0.961 . S
C1451 H1467 0.960 . S
H1452 C1436 0.931 . S
H1453 C1441 0.929 . S
H1454 C1442 0.960 . S
H1455 C1442 0.962 . S
H1456 C1442 0.960 . S
H1457 C1443 0.961 . S
H1458 C1443 0.961 . S
H1459 C1443 0.961 . S
H1460 C1444 0.931 . S
H1461 C1449 0.930 . S
H1462 C1450 0.956 . S
H1463 C1450 0.961 . S
H1464 C1450 0.961 . S
H1465 C1451 0.958 . S
H1466 C1451 0.961 . S
H1467 C1451 0.960 . S
C1468 C1469 1.391 . S
C1468 C1470 1.394 . S
C1468 H1484 0.931 1_556 S
C1469 C1468 1.391 . S
C1469 C1473 1.376 . S
C1470 C1468 1.394 . S
C1470 C1471 1.369 . S
C1470 C1474 1.531 . S
C1471 C1470 1.369 . S
C1471 C1472 1.410 . S
C1471 C1479 1.503 . S
C1472 C1471 1.410 . S
C1472 C1473 1.392 . S
C1472 C1475 1.511 . S
C1473 C1469 1.376 . S
C1473 C1472 1.392 . S
C1473 H1485 0.929 . S
C1474 C1470 1.531 . S
C1474 H1486 0.960 . S
C1474 H1487 0.962 1_455 S
C1474 H1488 0.960 1_556 S
C1475 C1472 1.511 . S
C1475 H1489 0.961 . S
C1475 H1490 0.961 . S
C1475 H1491 0.961 . S
C1476 C1477 1.370 . S
C1476 C1478 1.363 . S
C1476 H1492 0.931 1_455 S
C1477 C1476 1.370 . S
C1477 C1481 1.408 . S
C1478 C1476 1.363 . S
C1478 C1479 1.370 . S
C1478 C1482 1.524 1_455 S
C1479 C1471 1.503 . S
C1479 C1478 1.370 . S
C1479 C1480 1.403 . S
C1480 C1479 1.403 . S
C1480 C1481 1.404 . S
C1480 C1483 1.539 . S
C1481 C1477 1.408 . S
C1481 C1480 1.404 . S
C1481 H1493 0.930 . S
C1482 C1478 1.524 1_655 S
C1482 H1494 0.956 . S
C1482 H1495 0.961 1_655 S
C1482 H1496 0.961 . S
C1483 C1480 1.539 . S
C1483 H1497 0.958 . S
C1483 H1498 0.961 . S
C1483 H1499 0.960 . S
H1484 C1468 0.931 1_554 S
H1485 C1473 0.929 . S
H1486 C1474 0.960 . S
H1487 C1474 0.962 1_655 S
H1488 C1474 0.960 1_554 S
H1489 C1475 0.961 . S
H1490 C1475 0.961 . S
H1491 C1475 0.961 . S
H1492 C1476 0.931 1_655 S
H1493 C1481 0.930 . S
H1494 C1482 0.956 . S
H1495 C1482 0.961 1_455 S
H1496 C1482 0.961 . S
H1497 C1483 0.958 . S
H1498 C1483 0.961 . S
H1499 C1483 0.960 . S
C1500 C1501 1.391 . S
C1500 C1502 1.394 . S
C1500 H1516 0.931 . S
C1501 C1500 1.391 . S
C1501 C1505 1.376 . S
C1502 C1500 1.394 . S
C1502 C1503 1.369 . S
C1502 C1506 1.531 . S
C1503 C1502 1.369 . S
C1503 C1504 1.410 . S
C1503 C1511 1.503 . S
C1504 C1503 1.410 . S
C1504 C1505 1.392 . S
C1504 C1507 1.511 . S
C1505 C1501 1.376 . S
C1505 C1504 1.392 . S
C1505 H1517 0.929 . S
C1506 C1502 1.531 . S
C1506 H1518 0.960 . S
C1506 H1519 0.962 . S
C1506 H1520 0.960 . S
C1507 C1504 1.511 . S
C1507 H1521 0.961 . S
C1507 H1522 0.961 . S
C1507 H1523 0.961 . S
C1508 C1509 1.370 . S
C1508 C1510 1.363 . S
C1508 H1524 0.931 . S
C1509 C1508 1.370 . S
C1509 C1513 1.408 . S
C1510 C1508 1.363 . S
C1510 C1511 1.370 . S
C1510 C1514 1.524 . S
C1511 C1503 1.503 . S
C1511 C1510 1.370 . S
C1511 C1512 1.403 . S
C1512 C1511 1.403 . S
C1512 C1513 1.404 . S
C1512 C1515 1.539 . S
C1513 C1509 1.408 . S
C1513 C1512 1.404 . S
C1513 H1525 0.930 . S
C1514 C1510 1.524 . S
C1514 H1526 0.956 . S
C1514 H1527 0.961 . S
C1514 H1528 0.961 . S
C1515 C1512 1.539 . S
C1515 H1529 0.958 . S
C1515 H1530 0.961 . S
C1515 H1531 0.960 . S
H1516 C1500 0.931 . S
H1517 C1505 0.929 . S
H1518 C1506 0.960 . S
H1519 C1506 0.962 . S
H1520 C1506 0.960 . S
H1521 C1507 0.961 . S
H1522 C1507 0.961 . S
H1523 C1507 0.961 . S
H1524 C1508 0.931 . S
H1525 C1513 0.930 . S
H1526 C1514 0.956 . S
H1527 C1514 0.961 . S
H1528 C1514 0.961 . S
H1529 C1515 0.958 . S
H1530 C1515 0.961 . S
H1531 C1515 0.960 . S
C1532 C1533 1.405 . S
C1532 C1534 1.424 . S
C1532 H1548 0.889 1_554 S
C1533 C1532 1.405 . S
C1533 C1537 1.376 . S
C1534 C1532 1.424 . S
C1534 C1535 1.369 . S
C1534 C1538 1.531 . S
C1535 C1534 1.369 . S
C1535 C1536 1.410 . S
C1535 C1543 1.503 . S
C1536 C1535 1.410 . S
C1536 C1537 1.392 . S
C1536 C1539 1.511 . S
C1537 C1533 1.376 . S
C1537 C1536 1.392 . S
C1537 H1549 0.929 . S
C1538 C1534 1.531 . S
C1538 H1550 0.960 . S
C1538 H1551 0.962 . S
C1538 H1552 0.960 1_554 S
C1539 C1536 1.511 . S
C1539 H1553 0.961 . S
C1539 H1554 0.961 . S
C1539 H1555 0.961 . S
C1540 C1541 1.370 . S
C1540 C1542 1.363 . S
C1540 H1556 0.931 . S
C1541 C1540 1.370 . S
C1541 C1545 1.408 . S
C1542 C1540 1.363 . S
C1542 C1543 1.370 . S
C1542 C1546 1.524 . S
C1543 C1535 1.503 . S
C1543 C1542 1.370 . S
C1543 C1544 1.403 . S
C1544 C1543 1.403 . S
C1544 C1545 1.404 . S
C1544 C1547 1.539 . S
C1545 C1541 1.408 . S
C1545 C1544 1.404 . S
C1545 H1557 0.930 . S
C1546 C1542 1.524 . S
C1546 H1558 0.956 . S
C1546 H1559 0.961 . S
C1546 H1560 0.961 . S
C1547 C1544 1.539 . S
C1547 H1561 0.958 . S
C1547 H1562 0.961 . S
C1547 H1563 0.960 . S
H1548 C1532 0.889 1_556 S
H1549 C1537 0.929 . S
H1550 C1538 0.960 . S
H1551 C1538 0.962 . S
H1552 C1538 0.960 1_556 S
H1553 C1539 0.961 . S
H1554 C1539 0.961 . S
H1555 C1539 0.961 . S
H1556 C1540 0.931 . S
H1557 C1545 0.930 . S
H1558 C1546 0.956 . S
H1559 C1546 0.961 . S
H1560 C1546 0.961 . S
H1561 C1547 0.958 . S
H1562 C1547 0.961 . S
H1563 C1547 0.960 . S
C1564 C1565 1.391 . S
C1564 C1566 1.394 . S
C1564 H1580 0.931 . S
C1565 C1564 1.391 . S
C1565 C1569 1.376 . S
C1566 C1564 1.394 . S
C1566 C1567 1.369 . S
C1566 C1570 1.531 . S
C1567 C1566 1.369 . S
C1567 C1568 1.410 . S
C1567 C1575 1.503 . S
C1568 C1567 1.410 . S
C1568 C1569 1.392 . S
C1568 C1571 1.511 . S
C1569 C1565 1.376 . S
C1569 C1568 1.392 . S
C1569 H1581 0.929 . S
C1570 C1566 1.531 . S
C1570 H1582 0.960 . S
C1570 H1583 0.962 . S
C1570 H1584 0.960 . S
C1571 C1568 1.511 . S
C1571 H1585 0.961 . S
C1571 H1586 0.961 . S
C1571 H1587 0.961 . S
C1572 C1573 1.370 . S
C1572 C1574 1.363 . S
C1572 H1588 0.931 . S
C1573 C1572 1.370 . S
C1573 C1577 1.408 . S
C1574 C1572 1.363 . S
C1574 C1575 1.370 . S
C1574 C1578 1.524 . S
C1575 C1567 1.503 . S
C1575 C1574 1.370 . S
C1575 C1576 1.403 . S
C1576 C1575 1.403 . S
C1576 C1577 1.404 . S
C1576 C1579 1.539 . S
C1577 C1573 1.408 . S
C1577 C1576 1.404 . S
C1577 H1589 0.930 . S
C1578 C1574 1.524 . S
C1578 H1590 0.956 . S
C1578 H1591 0.961 . S
C1578 H1592 0.961 . S
C1579 C1576 1.539 . S
C1579 H1593 0.958 . S
C1579 H1594 0.961 . S
C1579 H1595 0.960 . S
H1580 C1564 0.931 . S
H1581 C1569 0.929 . S
H1582 C1570 0.960 . S
H1583 C1570 0.962 . S
H1584 C1570 0.960 . S
H1585 C1571 0.961 . S
H1586 C1571 0.961 . S
H1587 C1571 0.961 . S
H1588 C1572 0.931 . S
H1589 C1577 0.930 . S
H1590 C1578 0.956 . S
H1591 C1578 0.961 . S
H1592 C1578 0.961 . S
H1593 C1579 0.958 . S
H1594 C1579 0.961 . S
H1595 C1579 0.960 . S
C1596 C1597 1.391 . S
C1596 C1598 1.394 . S
C1596 H1612 0.931 . S
C1597 C1596 1.391 . S
C1597 C1601 1.376 . S
C1598 C1596 1.394 . S
C1598 C1599 1.369 . S
C1598 C1602 1.531 . S
C1599 C1598 1.369 . S
C1599 C1600 1.410 . S
C1599 C1607 1.503 . S
C1600 C1599 1.410 . S
C1600 C1601 1.392 . S
C1600 C1603 1.511 . S
C1601 C1597 1.376 . S
C1601 C1600 1.392 . S
C1601 H1613 0.929 1_554 S
C1602 C1598 1.531 . S
C1602 H1614 0.960 . S
C1602 H1615 0.962 . S
C1602 H1616 0.960 . S
C1603 C1600 1.511 . S
C1603 H1617 0.961 . S
C1603 H1618 0.961 . S
C1603 H1619 0.961 . S
C1604 C1605 1.370 . S
C1604 C1606 1.363 . S
C1604 H1620 0.931 . S
C1605 C1604 1.370 . S
C1605 C1609 1.408 . S
C1606 C1604 1.363 . S
C1606 C1607 1.370 . S
C1606 C1610 1.524 . S
C1607 C1599 1.503 . S
C1607 C1606 1.370 . S
C1607 C1608 1.403 . S
C1608 C1607 1.403 . S
C1608 C1609 1.404 . S
C1608 C1611 1.539 . S
C1609 C1605 1.408 . S
C1609 C1608 1.404 . S
C1609 H1621 0.930 . S
C1610 C1606 1.524 . S
C1610 H1622 0.956 . S
C1610 H1623 0.961 . S
C1610 H1624 0.961 . S
C1611 C1608 1.539 . S
C1611 H1625 0.958 . S
C1611 H1626 0.961 . S
C1611 H1627 0.960 . S
H1612 C1596 0.931 . S
H1613 C1601 0.929 1_556 S
H1614 C1602 0.960 . S
H1615 C1602 0.962 . S
H1616 C1602 0.960 . S
H1617 C1603 0.961 . S
H1618 C1603 0.961 . S
H1619 C1603 0.961 . S
H1620 C1604 0.931 . S
H1621 C1609 0.930 . S
H1622 C1610 0.956 . S
H1623 C1610 0.961 . S
H1624 C1610 0.961 . S
H1625 C1611 0.958 . S
H1626 C1611 0.961 . S
H1627 C1611 0.960 . S
C1628 C1629 1.391 . S
C1628 C1630 1.394 . S
C1628 H1644 0.931 . S
C1629 C1628 1.391 . S
C1629 C1633 1.376 . S
C1630 C1628 1.394 . S
C1630 C1631 1.369 . S
C1630 C1634 1.531 . S
C1631 C1630 1.369 . S
C1631 C1632 1.410 . S
C1631 C1639 1.503 . S
C1632 C1631 1.410 . S
C1632 C1633 1.392 . S
C1632 C1635 1.511 . S
C1633 C1629 1.376 . S
C1633 C1632 1.392 . S
C1633 H1645 0.929 . S
C1634 C1630 1.531 . S
C1634 H1646 0.960 . S
C1634 H1647 0.962 . S
C1634 H1648 0.960 . S
C1635 C1632 1.511 . S
C1635 H1649 0.961 . S
C1635 H1650 0.961 . S
C1635 H1651 0.961 . S
C1636 C1637 1.370 . S
C1636 C1638 1.363 . S
C1636 H1652 0.931 . S
C1637 C1636 1.370 . S
C1637 C1641 1.408 . S
C1638 C1636 1.363 . S
C1638 C1639 1.370 . S
C1638 C1642 1.524 . S
C1639 C1631 1.503 . S
C1639 C1638 1.370 . S
C1639 C1640 1.403 . S
C1640 C1639 1.403 . S
C1640 C1641 1.404 . S
C1640 C1643 1.539 . S
C1641 C1637 1.408 . S
C1641 C1640 1.404 . S
C1641 H1653 0.930 . S
C1642 C1638 1.524 . S
C1642 H1654 0.956 . S
C1642 H1655 0.961 . S
C1642 H1656 0.961 . S
C1643 C1640 1.539 . S
C1643 H1657 0.958 . S
C1643 H1658 0.961 . S
C1643 H1659 0.960 . S
H1644 C1628 0.931 . S
H1645 C1633 0.929 . S
H1646 C1634 0.960 . S
H1647 C1634 0.962 . S
H1648 C1634 0.960 . S
H1649 C1635 0.961 . S
H1650 C1635 0.961 . S
H1651 C1635 0.961 . S
H1652 C1636 0.931 . S
H1653 C1641 0.930 . S
H1654 C1642 0.956 . S
H1655 C1642 0.961 . S
H1656 C1642 0.961 . S
H1657 C1643 0.958 . S
H1658 C1643 0.961 . S
H1659 C1643 0.960 . S
C1660 C1661 1.391 . S
C1660 C1662 1.394 . S
C1660 H1676 0.931 . S
C1661 C1660 1.391 . S
C1661 C1665 1.376 . S
C1662 C1660 1.394 . S
C1662 C1663 1.369 . S
C1662 C1666 1.531 . S
C1663 C1662 1.369 . S
C1663 C1664 1.410 . S
C1663 C1671 1.503 . S
C1664 C1663 1.410 . S
C1664 C1665 1.392 . S
C1664 C1667 1.511 . S
C1665 C1661 1.376 . S
C1665 C1664 1.392 . S
C1665 H1677 0.929 . S
C1666 C1662 1.531 . S
C1666 H1678 0.960 . S
C1666 H1679 0.962 . S
C1666 H1680 0.960 . S
C1667 C1664 1.511 . S
C1667 H1681 0.961 . S
C1667 H1682 0.961 . S
C1667 H1683 0.961 . S
C1668 C1669 1.370 . S
C1668 C1670 1.363 . S
C1668 H1684 0.931 . S
C1669 C1668 1.370 . S
C1669 C1673 1.408 . S
C1670 C1668 1.363 . S
C1670 C1671 1.370 . S
C1670 C1674 1.524 . S
C1671 C1663 1.503 . S
C1671 C1670 1.370 . S
C1671 C1672 1.403 . S
C1672 C1671 1.403 . S
C1672 C1673 1.404 . S
C1672 C1675 1.539 . S
C1673 C1669 1.408 . S
C1673 C1672 1.404 . S
C1673 H1685 0.930 . S
C1674 C1670 1.524 . S
C1674 H1686 0.956 . S
C1674 H1687 0.961 . S
C1674 H1688 0.961 . S
C1675 C1672 1.539 . S
C1675 H1689 0.958 . S
C1675 H1690 0.961 . S
C1675 H1691 0.960 . S
H1676 C1660 0.931 . S
H1677 C1665 0.929 . S
H1678 C1666 0.960 . S
H1679 C1666 0.962 . S
H1680 C1666 0.960 . S
H1681 C1667 0.961 . S
H1682 C1667 0.961 . S
H1683 C1667 0.961 . S
H1684 C1668 0.931 . S
H1685 C1673 0.930 . S
H1686 C1674 0.956 . S
H1687 C1674 0.961 . S
H1688 C1674 0.961 . S
H1689 C1675 0.958 . S
H1690 C1675 0.961 . S
H1691 C1675 0.960 . S
C1692 C1693 1.391 . S
C1692 C1694 1.394 . S
C1692 H1708 0.931 . S
C1693 C1692 1.391 . S
C1693 C1697 1.376 . S
C1694 C1692 1.394 . S
C1694 C1695 1.369 . S
C1694 C1698 1.531 . S
C1695 C1694 1.369 . S
C1695 C1696 1.410 . S
C1695 C1703 1.503 . S
C1696 C1695 1.410 . S
C1696 C1697 1.392 . S
C1696 C1699 1.511 . S
C1697 C1693 1.376 . S
C1697 C1696 1.392 . S
C1697 H1709 0.929 . S
C1698 C1694 1.531 . S
C1698 H1710 0.960 . S
C1698 H1711 0.962 . S
C1698 H1712 0.960 . S
C1699 C1696 1.511 . S
C1699 H1713 0.961 . S
C1699 H1714 0.961 . S
C1699 H1715 0.961 . S
C1700 C1701 1.370 . S
C1700 C1702 1.363 . S
C1700 H1716 0.931 . S
C1701 C1700 1.370 . S
C1701 C1705 1.408 . S
C1702 C1700 1.363 . S
C1702 C1703 1.370 . S
C1702 C1706 1.524 . S
C1703 C1695 1.503 . S
C1703 C1702 1.370 . S
C1703 C1704 1.403 . S
C1704 C1703 1.403 . S
C1704 C1705 1.404 . S
C1704 C1707 1.539 . S
C1705 C1701 1.408 . S
C1705 C1704 1.404 . S
C1705 H1717 0.930 . S
C1706 C1702 1.524 . S
C1706 H1718 0.956 . S
C1706 H1719 0.961 . S
C1706 H1720 0.961 . S
C1707 C1704 1.539 . S
C1707 H1721 0.958 . S
C1707 H1722 0.961 . S
C1707 H1723 0.960 . S
H1708 C1692 0.931 . S
H1709 C1697 0.929 . S
H1710 C1698 0.960 . S
H1711 C1698 0.962 . S
H1712 C1698 0.960 . S
H1713 C1699 0.961 . S
H1714 C1699 0.961 . S
H1715 C1699 0.961 . S
H1716 C1700 0.931 . S
H1717 C1705 0.930 . S
H1718 C1706 0.956 . S
H1719 C1706 0.961 . S
H1720 C1706 0.961 . S
H1721 C1707 0.958 . S
H1722 C1707 0.961 . S
H1723 C1707 0.960 . S
C1724 C1725 1.391 . S
C1724 C1726 1.394 . S
C1724 H1740 0.931 . S
C1725 C1724 1.391 . S
C1725 C1729 1.376 . S
C1726 C1724 1.394 . S
C1726 C1727 1.369 . S
C1726 C1730 1.531 . S
C1727 C1726 1.369 . S
C1727 C1728 1.410 . S
C1727 C1735 1.503 . S
C1728 C1727 1.410 . S
C1728 C1729 1.392 . S
C1728 C1731 1.511 . S
C1729 C1725 1.376 . S
C1729 C1728 1.392 . S
C1729 H1741 0.929 . S
C1730 C1726 1.531 . S
C1730 H1742 0.960 . S
C1730 H1743 0.962 . S
C1730 H1744 0.960 . S
C1731 C1728 1.511 . S
C1731 H1745 0.961 . S
C1731 H1746 0.961 . S
C1731 H1747 0.961 . S
C1732 C1733 1.370 . S
C1732 C1734 1.363 . S
C1732 H1748 0.931 . S
C1733 C1732 1.370 . S
C1733 C1737 1.408 . S
C1734 C1732 1.363 . S
C1734 C1735 1.370 . S
C1734 C1738 1.524 . S
C1735 C1727 1.503 . S
C1735 C1734 1.370 . S
C1735 C1736 1.403 . S
C1736 C1735 1.403 . S
C1736 C1737 1.404 . S
C1736 C1739 1.539 . S
C1737 C1733 1.408 . S
C1737 C1736 1.404 . S
C1737 H1749 0.930 . S
C1738 C1734 1.524 . S
C1738 H1750 0.956 . S
C1738 H1751 0.961 . S
C1738 H1752 0.961 . S
C1739 C1736 1.539 . S
C1739 H1753 0.958 . S
C1739 H1754 0.961 . S
C1739 H1755 0.960 . S
H1740 C1724 0.931 . S
H1741 C1729 0.929 . S
H1742 C1730 0.960 . S
H1743 C1730 0.962 . S
H1744 C1730 0.960 . S
H1745 C1731 0.961 . S
H1746 C1731 0.961 . S
H1747 C1731 0.961 . S
H1748 C1732 0.931 . S
H1749 C1737 0.930 . S
H1750 C1738 0.956 . S
H1751 C1738 0.961 . S
H1752 C1738 0.961 . S
H1753 C1739 0.958 . S
H1754 C1739 0.961 . S
H1755 C1739 0.960 . S
C1756 C1757 1.391 . S
C1756 C1758 1.394 . S
C1756 H1772 0.931 . S
C1757 C1756 1.391 . S
C1757 C1761 1.376 . S
C1758 C1756 1.394 . S
C1758 C1759 1.369 . S
C1758 C1762 1.531 . S
C1759 C1758 1.369 . S
C1759 C1760 1.410 . S
C1759 C1767 1.503 . S
C1760 C1759 1.410 . S
C1760 C1761 1.392 . S
C1760 C1763 1.511 1_556 S
C1761 C1757 1.376 . S
C1761 C1760 1.392 . S
C1761 H1773 0.929 . S
C1762 C1758 1.531 . S
C1762 H1774 0.960 . S
C1762 H1775 0.962 . S
C1762 H1776 0.960 . S
C1763 C1760 1.511 1_554 S
C1763 H1777 0.961 . S
C1763 H1778 0.961 . S
C1763 H1779 0.961 . S
C1764 C1765 1.370 . S
C1764 C1766 1.363 . S
C1764 H1780 0.931 . S
C1765 C1764 1.370 . S
C1765 C1769 1.408 1_556 S
C1766 C1764 1.363 . S
C1766 C1767 1.370 . S
C1766 C1770 1.524 . S
C1767 C1759 1.503 . S
C1767 C1766 1.370 . S
C1767 C1768 1.403 1_556 S
C1768 C1767 1.403 1_554 S
C1768 C1769 1.404 . S
C1768 C1771 1.539 . S
C1769 C1765 1.408 1_554 S
C1769 C1768 1.404 . S
C1769 H1781 0.930 . S
C1770 C1766 1.524 . S
C1770 H1782 0.956 . S
C1770 H1783 0.961 . S
C1770 H1784 0.961 . S
C1771 C1768 1.539 . S
C1771 H1785 0.958 . S
C1771 H1786 0.961 . S
C1771 H1787 0.960 . S
H1772 C1756 0.931 . S
H1773 C1761 0.929 . S
H1774 C1762 0.960 . S
H1775 C1762 0.962 . S
H1776 C1762 0.960 . S
H1777 C1763 0.961 . S
H1778 C1763 0.961 . S
H1779 C1763 0.961 . S
H1780 C1764 0.931 . S
H1781 C1769 0.930 . S
H1782 C1770 0.956 . S
H1783 C1770 0.961 . S
H1784 C1770 0.961 . S
H1785 C1771 0.958 . S
H1786 C1771 0.961 . S
H1787 C1771 0.960 . S
C1788 C1789 1.391 . S
C1788 C1790 1.394 . S
C1788 H1804 0.931 . S
C1789 C1788 1.391 . S
C1789 C1793 1.376 . S
C1790 C1788 1.394 . S
C1790 C1791 1.369 . S
C1790 C1794 1.531 . S
C1791 C1790 1.369 . S
C1791 C1792 1.410 . S
C1791 C1799 1.503 . S
C1792 C1791 1.410 . S
C1792 C1793 1.392 . S
C1792 C1795 1.511 . S
C1793 C1789 1.376 . S
C1793 C1792 1.392 . S
C1793 H1805 0.929 . S
C1794 C1790 1.531 . S
C1794 H1806 0.960 . S
C1794 H1807 0.962 . S
C1794 H1808 0.960 . S
C1795 C1792 1.511 . S
C1795 H1809 0.961 . S
C1795 H1810 0.961 . S
C1795 H1811 0.961 . S
C1796 C1797 1.370 . S
C1796 C1798 1.363 . S
C1796 H1812 0.931 . S
C1797 C1796 1.370 . S
C1797 C1801 1.408 . S
C1798 C1796 1.363 . S
C1798 C1799 1.370 . S
C1798 C1802 1.524 . S
C1799 C1791 1.503 . S
C1799 C1798 1.370 . S
C1799 C1800 1.403 . S
C1800 C1799 1.403 . S
C1800 C1801 1.404 . S
C1800 C1803 1.539 . S
C1801 C1797 1.408 . S
C1801 C1800 1.404 . S
C1801 H1813 0.930 . S
C1802 C1798 1.524 . S
C1802 H1814 0.956 . S
C1802 H1815 0.961 . S
C1802 H1816 0.961 . S
C1803 C1800 1.539 . S
C1803 H1817 0.958 . S
C1803 H1818 0.961 . S
C1803 H1819 0.960 . S
H1804 C1788 0.931 . S
H1805 C1793 0.929 . S
H1806 C1794 0.960 . S
H1807 C1794 0.962 . S
H1808 C1794 0.960 . S
H1809 C1795 0.961 . S
H1810 C1795 0.961 . S
H1811 C1795 0.961 . S
H1812 C1796 0.931 . S
H1813 C1801 0.930 . S
H1814 C1802 0.956 . S
H1815 C1802 0.961 . S
H1816 C1802 0.961 . S
H1817 C1803 0.958 . S
H1818 C1803 0.961 . S
H1819 C1803 0.960 . S
C1820 C1821 1.391 . S
C1820 C1822 1.394 . S
C1820 H1836 0.931 1_554 S
C1821 C1820 1.391 . S
C1821 C1825 1.376 . S
C1822 C1820 1.394 . S
C1822 C1823 1.369 . S
C1822 C1826 1.531 1_554 S
C1823 C1822 1.369 . S
C1823 C1824 1.410 . S
C1823 C1831 1.503 . S
C1824 C1823 1.410 . S
C1824 C1825 1.392 . S
C1824 C1827 1.511 . S
C1825 C1821 1.376 . S
C1825 C1824 1.392 . S
C1825 H1837 0.929 . S
C1826 C1822 1.531 1_556 S
C1826 H1838 0.960 . S
C1826 H1839 0.962 . S
C1826 H1840 0.960 . S
C1827 C1824 1.511 . S
C1827 H1841 0.961 . S
C1827 H1842 0.961 . S
C1827 H1843 0.961 . S
C1828 C1829 1.370 . S
C1828 C1830 1.363 . S
C1828 H1844 0.931 . S
C1829 C1828 1.370 . S
C1829 C1833 1.408 . S
C1830 C1828 1.363 . S
C1830 C1831 1.370 . S
C1830 C1834 1.524 . S
C1831 C1823 1.503 . S
C1831 C1830 1.370 . S
C1831 C1832 1.403 . S
C1832 C1831 1.403 . S
C1832 C1833 1.404 . S
C1832 C1835 1.539 . S
C1833 C1829 1.408 . S
C1833 C1832 1.404 . S
C1833 H1845 0.930 . S
C1834 C1830 1.524 . S
C1834 H1846 0.956 . S
C1834 H1847 0.961 . S
C1834 H1848 0.961 . S
C1835 C1832 1.539 . S
C1835 H1849 0.958 . S
C1835 H1850 0.961 . S
C1835 H1851 0.960 . S
H1836 C1820 0.931 1_556 S
H1837 C1825 0.929 . S
H1838 C1826 0.960 . S
H1839 C1826 0.962 . S
H1840 C1826 0.960 . S
H1841 C1827 0.961 . S
H1842 C1827 0.961 . S
H1843 C1827 0.961 . S
H1844 C1828 0.931 . S
H1845 C1833 0.930 . S
H1846 C1834 0.956 . S
H1847 C1834 0.961 . S
H1848 C1834 0.961 . S
H1849 C1835 0.958 . S
H1850 C1835 0.961 . S
H1851 C1835 0.960 . S
C1852 C1853 1.391 . S
C1852 C1854 1.394 . S
C1852 H1868 0.931 . S
C1853 C1852 1.391 . S
C1853 C1857 1.376 1_545 S
C1854 C1852 1.394 . S
C1854 C1855 1.369 1_545 S
C1854 C1858 1.531 . S
C1855 C1854 1.369 1_565 S
C1855 C1856 1.410 . S
C1855 C1863 1.503 . S
C1856 C1855 1.410 . S
C1856 C1857 1.392 . S
C1856 C1859 1.511 . S
C1857 C1853 1.376 1_565 S
C1857 C1856 1.392 . S
C1857 H1869 0.929 . S
C1858 C1854 1.531 . S
C1858 H1870 0.960 . S
C1858 H1871 0.962 . S
C1858 H1872 0.960 . S
C1859 C1856 1.511 . S
C1859 H1873 0.961 . S
C1859 H1874 0.961 . S
C1859 H1875 0.961 . S
C1860 C1861 1.370 . S
C1860 C1862 1.363 . S
C1860 H1876 0.931 1_554 S
C1861 C1860 1.370 . S
C1861 C1865 1.408 . S
C1862 C1860 1.363 . S
C1862 C1863 1.370 . S
C1862 C1866 1.524 1_554 S
C1863 C1855 1.503 . S
C1863 C1862 1.370 . S
C1863 C1864 1.403 . S
C1864 C1863 1.403 . S
C1864 C1865 1.404 . S
C1864 C1867 1.539 . S
C1865 C1861 1.408 . S
C1865 C1864 1.404 . S
C1865 H1877 0.930 . S
C1866 C1862 1.524 1_556 S
C1866 H1878 0.956 . S
C1866 H1879 0.947 1_556 S
C1866 H1880 0.961 . S
C1867 C1864 1.539 . S
C1867 H1881 0.958 . S
C1867 H1882 0.961 . S
C1867 H1883 0.960 . S
H1868 C1852 0.931 . S
H1869 C1857 0.929 . S
H1870 C1858 0.960 . S
H1871 C1858 0.962 . S
H1872 C1858 0.960 . S
H1873 C1859 0.961 . S
H1874 C1859 0.961 . S
H1875 C1859 0.961 . S
H1876 C1860 0.931 1_556 S
H1877 C1865 0.930 . S
H1878 C1866 0.956 . S
H1879 C1866 0.947 1_554 S
H1880 C1866 0.961 . S
H1881 C1867 0.958 . S
H1882 C1867 0.961 . S
H1883 C1867 0.960 . S
C357 C202 1.643 . S
C349 C66 1.679 . S
C389 C215 1.233 . S
C381 C76 1.252 . S
C413 C93 1.798 . S
C421 C228 1.758 . S
C453 C241 1.480 . S
C445 C54 1.496 1_545 S
C485 C249 1.482 . S
C477 C126 1.496 . S
C517 C262 1.736 . S
C509 C150 1.744 . S
C541 C136 1.210 . S
C549 C275 1.173 . S
C581 C288 1.757 . S
C573 C117 1.770 . S
C605 C141 1.223 . S
C613 C306 1.231 . S
C645 C317 1.348 . S
C637 C112 1.363 . S
C669 C124 1.505 . S
C677 C301 1.469 . S
C709 C309 1.281 . S
C701 C148 1.268 . S
C733 C88 1.302 . S
C741 C332 1.295 . S
C765 C52 1.577 . S
C773 C322 1.563 . S
C797 C64 1.270 . S
C805 C327 1.266 . S
C829 C78 1.278 . S
C837 C330 1.235 . S
C861 C45 1.660 . S
C869 C239 1.653 . S
C893 C177 1.779 . S
C901 C231 1.763 . S
C933 C200 1.447 . S
C925 C189 1.468 . S
C965 C205 1.598 . S
C957 C102 1.620 . S
C989 C57 1.734 . S
C997 C252 1.732 . S
C1029 C291 1.444 . S
C1021 C138 1.487 . S
C1061 C244 1.765 . S
C1053 C114 1.768 . S
C1093 C270 1.655 . S
C1085 C153 1.676 . S
C1125 C280 1.643 . S
C1117 C174 1.679 . S
C1149 C184 1.234 . S
C1157 C293 1.247 . S
C1181 C105 1.792 . S
C1189 C254 1.753 . S
C1221 C267 1.471 . S
C1213 C162 1.494 . S
C1245 C42 1.496 . S
C1253 C223 1.483 . S
C1285 C236 1.737 . S
C1277 C6 1.744 . S
C1317 C197 1.190 . S
C1309 C16 1.175 . S
C1349 C210 1.742 . S
C1341 C33 1.766 1_455 S
C1373 C21 1.223 . S
C1381 C319 1.231 . S
C1405 C28 1.360 1_556 S
C1413 C304 1.335 1_655 S
C1437 C40 1.492 . S
C1445 C314 1.483 . S
C1469 C4 1.269 1_556 S
C1477 C296 1.281 . S
C1509 C345 1.305 . S
C1501 C100 1.305 . S
C1541 C335 1.575 . S
C1533 C160 1.577 1_554 S
C1573 C340 1.245 . S
C1565 C172 1.283 . S
C1597 C186 1.278 1_554 S
C1605 C343 1.235 . S
C1629 C129 1.662 . S
C1637 C265 1.649 . S
C1669 C257 1.765 . S
C1661 C69 1.778 . S
C1701 C278 1.459 . S
C1693 C81 1.444 . S
C1733 C283 1.596 . S
C1725 C90 1.626 . S
C1757 C165 1.740 . S
C1765 C226 1.719 . S
C1797 C213 1.463 . S
C1789 C18 1.489 . S
C1821 C30 1.768 . S
C1829 C218 1.766 . S
C1861 C192 1.656 . S
C1853 C9 1.677 . S
