# Generated by pormake.
# Topology dag, (6,3)-cn, num edge types: 1
# Building blocks:
#     Node 0, Type 0, BuildingBlock: OJICUG_clean_sbu_0, # of connection points: 6
#     Node 1, Type 0, BuildingBlock: OJICUG_clean_sbu_0, # of connection points: 6
#     Node 2, Type 0, BuildingBlock: OJICUG_clean_sbu_0, # of connection points: 6
#     Node 3, Type 0, BuildingBlock: OJICUG_clean_sbu_0, # of connection points: 6
#     Node 4, Type 1, BuildingBlock: CUQRIR_clean_linker_1, # of connection points: 3
#     Node 5, Type 1, BuildingBlock: CUQRIR_clean_linker_1, # of connection points: 3
#     Node 6, Type 1, BuildingBlock: CUQRIR_clean_linker_1, # of connection points: 3
#     Node 7, Type 1, BuildingBlock: CUQRIR_clean_linker_1, # of connection points: 3
#     Node 8, Type 1, BuildingBlock: CUQRIR_clean_linker_1, # of connection points: 3
#     Node 9, Type 1, BuildingBlock: CUQRIR_clean_linker_1, # of connection points: 3
#     Node 10, Type 1, BuildingBlock: CUQRIR_clean_linker_1, # of connection points: 3
#     Node 11, Type 1, BuildingBlock: CUQRIR_clean_linker_1, # of connection points: 3
#     Edge 12, Type (0, 1), BuildingBlock: XIVTED_clean_linker_0, # of connection points: 2
#     Edge 13, Type (0, 1), BuildingBlock: XIVTED_clean_linker_0, # of connection points: 2
#     Edge 14, Type (0, 1), BuildingBlock: XIVTED_clean_linker_0, # of connection points: 2
#     Edge 15, Type (0, 1), BuildingBlock: XIVTED_clean_linker_0, # of connection points: 2
#     Edge 16, Type (0, 1), BuildingBlock: XIVTED_clean_linker_0, # of connection points: 2
#     Edge 17, Type (0, 1), BuildingBlock: XIVTED_clean_linker_0, # of connection points: 2
#     Edge 18, Type (0, 1), BuildingBlock: XIVTED_clean_linker_0, # of connection points: 2
#     Edge 19, Type (0, 1), BuildingBlock: XIVTED_clean_linker_0, # of connection points: 2
#     Edge 20, Type (0, 1), BuildingBlock: XIVTED_clean_linker_0, # of connection points: 2
#     Edge 21, Type (0, 1), BuildingBlock: XIVTED_clean_linker_0, # of connection points: 2
#     Edge 22, Type (0, 1), BuildingBlock: XIVTED_clean_linker_0, # of connection points: 2
#     Edge 23, Type (0, 1), BuildingBlock: XIVTED_clean_linker_0, # of connection points: 2
#     Edge 24, Type (0, 1), BuildingBlock: XIVTED_clean_linker_0, # of connection points: 2
#     Edge 25, Type (0, 1), BuildingBlock: XIVTED_clean_linker_0, # of connection points: 2
#     Edge 26, Type (0, 1), BuildingBlock: XIVTED_clean_linker_0, # of connection points: 2
#     Edge 27, Type (0, 1), BuildingBlock: XIVTED_clean_linker_0, # of connection points: 2
#     Edge 28, Type (0, 1), BuildingBlock: XIVTED_clean_linker_0, # of connection points: 2
#     Edge 29, Type (0, 1), BuildingBlock: XIVTED_clean_linker_0, # of connection points: 2
#     Edge 30, Type (0, 1), BuildingBlock: XIVTED_clean_linker_0, # of connection points: 2
#     Edge 31, Type (0, 1), BuildingBlock: XIVTED_clean_linker_0, # of connection points: 2
#     Edge 32, Type (0, 1), BuildingBlock: XIVTED_clean_linker_0, # of connection points: 2
#     Edge 33, Type (0, 1), BuildingBlock: XIVTED_clean_linker_0, # of connection points: 2
#     Edge 34, Type (0, 1), BuildingBlock: XIVTED_clean_linker_0, # of connection points: 2
#     Edge 35, Type (0, 1), BuildingBlock: XIVTED_clean_linker_0, # of connection points: 2
# Relax obj value: 0.083
# Max RMSD: 0.086
# Mean RMSD: 0.077
data_MOF--net-dag--node1-OJICUG_clean_sbu_0--node2-CUQRIR_clean_linker_1--edge1-XIVTED_clean_linker_0
_symmetry_space_group_name_H-M    P1
_symmetry_Int_Tables_number       1
_symmetry_cell_setting            triclinic
loop_
_symmetry_equiv_pos_as_xyz
'x, y, z'
_cell_length_a     35.264425
_cell_length_b     35.84742
_cell_length_c     36.865319
_cell_angle_alpha  92.7087
_cell_angle_beta   90.210321
_cell_angle_gamma 90.060245
loop_
_atom_site_label
_atom_site_type_symbol
_atom_site_fract_x
_atom_site_fract_y
_atom_site_fract_z
_atom_type_partial_charge
Sc0 Sc 0.0791 0.90659 0.01836 0.0
Sc1 Sc 0.09941 0.81049 0.01914 0.0
Sc2 Sc 0.16795 0.87716 0.04828 0.0
O3 O 0.11554 0.86466 0.02847 0.0
C4 C 0.15595 0.938 0.98853 0.0
C5 C 0.05935 0.84724 0.95311 0.0
C6 C 0.18558 0.8091 0.99246 0.0
C7 C 0.02544 0.84885 0.05515 0.0
C8 C 0.1205 0.93957 0.09039 0.0
C9 C 0.1443 0.80728 0.09375 0.0
O10 O 0.12026 0.93351 0.98525 0.0
O11 O 0.07756 0.82001 0.96551 0.0
O12 O 0.19473 0.83967 0.00908 0.0
O13 O 0.03572 0.88238 0.0507 0.0
O14 O 0.14707 0.91575 0.08968 0.0
O15 O 0.1189 0.79493 0.07178 0.0
O16 O 0.09577 0.94096 0.06537 0.0
O17 O 0.04428 0.82062 0.04308 0.0
O18 O 0.16491 0.8354 0.08789 0.0
O19 O 0.05639 0.87867 0.97023 0.0
O20 O 0.17602 0.92133 0.01149 0.0
O21 O 0.1528 0.7945 0.99458 0.0
Sc22 Sc 0.66337 0.61695 0.46834 0.0
Sc23 Sc 0.59563 0.68486 0.49572 0.0
Sc24 Sc 0.57538 0.58918 0.50329 0.0
O25 O 0.61143 0.63033 0.48907 0.0
C26 C 0.61045 0.55408 0.42985 0.0
C27 C 0.63718 0.68306 0.41905 0.0
C28 C 0.51824 0.6468 0.46856 0.0
C29 C 0.68279 0.68887 0.51948 0.0
C30 C 0.65532 0.5585 0.53012 0.0
C31 C 0.56484 0.65024 0.56824 0.0
O32 O 0.64048 0.57372 0.43205 0.0
O33 O 0.61453 0.69791 0.44224 0.0
O34 O 0.52666 0.61443 0.47875 0.0
O35 O 0.69237 0.65894 0.50201 0.0
O36 O 0.61931 0.55947 0.53011 0.0
O37 O 0.57488 0.67786 0.55006 0.0
O38 O 0.67542 0.57785 0.50949 0.0
O39 O 0.64905 0.70129 0.51967 0.0
O40 O 0.56371 0.61693 0.55487 0.0
O41 O 0.6566 0.65412 0.42489 0.0
O42 O 0.58408 0.55656 0.45329 0.0
O43 O 0.54045 0.67462 0.47235 0.0
Sc44 Sc 0.90178 0.18036 0.001 0.0
Sc45 Sc 0.83228 0.11426 0.97205 0.0
Sc46 Sc 0.92271 0.08404 -0.00188 0.0
O47 O 0.88557 0.12628 0.99044 0.0
C48 C 0.97738 0.14604 0.96676 0.0
C49 C 0.85315 0.18615 0.92836 0.0
C50 C 0.88352 0.05739 0.92357 0.0
C51 C 0.81646 0.18093 0.0302 0.0
C52 C 0.93724 0.13829 0.068 0.0
C53 C 0.84515 0.04789 0.02448 0.0
O54 O 0.95566 0.17354 0.9742 0.0
O55 O 0.83447 0.15653 0.93321 0.0
O56 O 0.91179 0.05863 0.94511 0.0
O57 O 0.84996 0.19397 0.02937 0.0
O58 O 0.93694 0.10608 0.05186 0.0
O59 O 0.82363 0.07077 0.0092 0.0
O60 O 0.92635 0.16766 0.05284 0.0
O61 O 0.80587 0.15232 0.01112 0.0
O62 O 0.88106 0.0488 0.02208 0.0
O63 O 0.87888 0.19849 0.95009 0.0
O64 O 0.96924 0.11283 0.97443 0.0
O65 O 0.85277 0.07495 0.93031 0.0
Sc66 Sc 0.42466 0.40777 0.51415 0.0
Sc67 Sc 0.33772 0.37959 0.55052 0.0
Sc68 Sc 0.40404 0.31164 0.52015 0.0
O69 O 0.38888 0.36632 0.52829 0.0
C70 C 0.43378 0.34782 0.44796 0.0
C71 C 0.34426 0.43988 0.49037 0.0
C72 C 0.31635 0.30924 0.49819 0.0
C73 C 0.39154 0.44132 0.58915 0.0
C74 C 0.48246 0.34886 0.54613 0.0
C75 C 0.36417 0.31182 0.59748 0.0
O76 O 0.43525 0.38089 0.46194 0.0
O77 O 0.32503 0.42005 0.51121 0.0
O78 O 0.34965 0.29566 0.49739 0.0
O79 O 0.41716 0.43956 0.5649 0.0
O80 O 0.46001 0.3212 0.54214 0.0
O81 O 0.34486 0.34102 0.59256 0.0
O82 O 0.47378 0.38163 0.53718 0.0
O83 O 0.36168 0.42145 0.58742 0.0
O84 O 0.38643 0.29735 0.57372 0.0
O85 O 0.38024 0.4386 0.48884 0.0
O86 O 0.42366 0.31984 0.46562 0.0
O87 O 0.30792 0.3393 0.51594 0.0
C88 C 0.0952 0.18655 0.32052 0.0
N89 N 0.08618 0.16215 0.29274 0.0
N90 N 0.12994 0.17858 0.33413 0.0
C91 C 0.06963 0.2172 0.33498 0.0
C92 C 0.14176 0.14868 0.31324 0.0
N93 N 0.11509 0.13867 0.28825 0.0
C94 C 0.18089 0.13199 0.31449 0.0
H95 H 0.07487 0.24267 0.31977 0.0
H96 H 0.07529 0.22375 0.36422 0.0
H97 H 0.03942 0.20918 0.33112 0.0
H98 H 0.18105 0.10954 0.33419 0.0
H99 H 0.2022 0.15335 0.32332 0.0
H100 H 0.18925 0.11961 0.28755 0.0
C101 C 0.36646 0.6489 0.81053 0.0
N102 N 0.39483 0.64058 0.78697 0.0
N103 N 0.3753 0.67971 0.83167 0.0
C104 C 0.32844 0.6297 0.80992 0.0
C105 C 0.41 0.6899 0.81982 0.0
N106 N 0.42186 0.66609 0.79271 0.0
C107 C 0.43288 0.72225 0.83545 0.0
H108 H 0.30544 0.64972 0.81727 0.0
H109 H 0.3287 0.60759 0.82998 0.0
H110 H 0.32216 0.61647 0.78275 0.0
H111 H 0.42557 0.72835 0.86437 0.0
H112 H 0.42667 0.74735 0.81999 0.0
H113 H 0.46368 0.71628 0.83311 0.0
C114 C 0.71314 0.82752 0.1767 0.0
N115 N 0.74428 0.83761 0.15822 0.0
N116 N 0.72094 0.79778 0.19678 0.0
C117 C 0.675 0.8459 0.17444 0.0
C118 C 0.75804 0.79045 0.19021 0.0
N119 N 0.77214 0.81461 0.16672 0.0
C120 C 0.78133 0.76231 0.20959 0.0
H121 H 0.67353 0.86929 0.19519 0.0
H122 H 0.65201 0.82577 0.17989 0.0
H123 H 0.67066 0.85738 0.14731 0.0
H124 H 0.7783 0.73465 0.19506 0.0
H125 H 0.77127 0.7598 0.23785 0.0
H126 H 0.81181 0.76999 0.21024 0.0
C127 C 0.7828 0.343 0.692 0.0
N128 N 0.75718 0.35066 0.66603 0.0
N129 N 0.77968 0.30697 0.70107 0.0
C130 C 0.80677 0.37173 0.71242 0.0
C131 C 0.75128 0.29313 0.67951 0.0
N132 N 0.73723 0.31976 0.65846 0.0
C133 C 0.73739 0.25342 0.67923 0.0
H134 H 0.83686 0.36276 0.71167 0.0
H135 H 0.79793 0.37366 0.74131 0.0
H136 H 0.80445 0.39968 0.70094 0.0
H137 H 0.71478 0.25093 0.6998 0.0
H138 H 0.76088 0.23443 0.68622 0.0
H139 H 0.72555 0.24473 0.6522 0.0
C140 C 0.59425 0.30787 0.19823 0.0
N141 N 0.58117 0.33273 0.22398 0.0
N142 N 0.62711 0.3202 0.18407 0.0
C143 C 0.57679 0.27029 0.18902 0.0
C144 C 0.63345 0.35349 0.20207 0.0
N145 N 0.60551 0.36112 0.2263 0.0
C146 C 0.66863 0.37679 0.1984 0.0
H147 H 0.59336 0.24855 0.2025 0.0
H148 H 0.57775 0.26383 0.15936 0.0
H149 H 0.54689 0.26911 0.1981 0.0
H150 H 0.66128 0.40679 0.19794 0.0
H151 H 0.68438 0.36876 0.17324 0.0
H152 H 0.68727 0.37303 0.22226 0.0
C153 C 0.24329 0.19904 0.82716 0.0
N154 N 0.22918 0.17396 0.8498 0.0
N155 N 0.27818 0.18829 0.81529 0.0
C156 C 0.22136 0.23151 0.81337 0.0
C157 C 0.28448 0.15562 0.8313 0.0
N158 N 0.25476 0.14707 0.85225 0.0
C159 C 0.31952 0.1321 0.82665 0.0
H160 H 0.22771 0.23535 0.78433 0.0
H161 H 0.22991 0.25729 0.82914 0.0
H162 H 0.19036 0.22764 0.81652 0.0
H163 H 0.34409 0.14926 0.81876 0.0
H164 H 0.31432 0.11007 0.80504 0.0
H165 H 0.32619 0.11815 0.85214 0.0
C166 C 0.20971 0.65708 0.33582 0.0
N167 N 0.23833 0.6493 0.35862 0.0
N168 N 0.21493 0.69101 0.32194 0.0
C169 C 0.17857 0.6302 0.32471 0.0
C170 C 0.2479 0.70351 0.33723 0.0
N171 N 0.26226 0.67797 0.35941 0.0
C172 C 0.26729 0.73937 0.32834 0.0
H173 H 0.18995 0.60895 0.30478 0.0
H174 H 0.15445 0.64482 0.31222 0.0
H175 H 0.16836 0.61541 0.34856 0.0
H176 H 0.24656 0.76251 0.3278 0.0
H177 H 0.28015 0.73597 0.30096 0.0
H178 H 0.28964 0.74727 0.3485 0.0
C179 C 0.87204 0.8633 0.68642 0.0
N180 N 0.89306 0.87004 0.71674 0.0
N181 N 0.87353 0.82671 0.67552 0.0
C182 C 0.85031 0.89255 0.66706 0.0
C183 C 0.89665 0.8114 0.70023 0.0
N184 N 0.90862 0.83778 0.72518 0.0
C185 C 0.90335 0.77013 0.70253 0.0
H186 H 0.82128 0.89494 0.67838 0.0
H187 H 0.84797 0.88475 0.63764 0.0
H188 H 0.86441 0.92016 0.67085 0.0
H189 H 0.92345 0.76084 0.68087 0.0
H190 H 0.87643 0.75455 0.69781 0.0
H191 H 0.91532 0.76306 0.72918 0.0
H192 H 0.15266 0.93583 0.1579 0.0
H193 H 0.1097 0.1478 0.21619 0.0
H194 H 0.08582 0.00774 0.09208 0.0
H195 H 0.12814 0.0652 0.29542 0.0
H196 H 0.10988 0.09833 0.16801 0.0
H197 H 0.15242 0.98445 0.20694 0.0
C198 C 0.1379 0.9618 0.15379 0.0
C199 C 0.11923 0.96779 0.12087 0.0
C200 C 0.11387 0.09099 0.19593 0.0
C201 C 0.11934 0.02342 0.1765 0.0
C202 C 0.1137 0.11912 0.22328 0.0
C203 C 0.11826 0.11019 0.2596 0.0
C204 C 0.11957 0.05381 0.20497 0.0
C205 C 0.12448 0.07289 0.26759 0.0
C206 C 0.13771 0.9894 0.18178 0.0
C207 C 0.10041 0.00187 0.11706 0.0
N208 N 0.12501 0.0459 0.24041 0.0
N209 N 0.10123 0.02854 0.14444 0.0
H210 H 0.54516 0.71661 0.60364 0.0
H211 H 0.47631 0.61464 0.77982 0.0
H212 H 0.55842 0.59887 0.62027 0.0
H213 H 0.4406 0.72488 0.75353 0.0
H214 H 0.52139 0.61421 0.72932 0.0
H215 H 0.52053 0.72517 0.66553 0.0
C216 C 0.5433 0.69265 0.62039 0.0
C217 C 0.5532 0.65685 0.60651 0.0
C218 C 0.50436 0.63889 0.73507 0.0
C219 C 0.52541 0.66653 0.67726 0.0
C220 C 0.47899 0.63918 0.76397 0.0
C221 C 0.45482 0.66969 0.77034 0.0
C222 C 0.50535 0.66938 0.71247 0.0
C223 C 0.45902 0.70096 0.74933 0.0
C224 C 0.52926 0.69758 0.65568 0.0
C225 C 0.55044 0.62687 0.62954 0.0
N226 N 0.48336 0.69979 0.72082 0.0
N227 N 0.53656 0.63235 0.66364 0.0
H228 H 0.87264 0.97778 0.03207 0.0
H229 H 0.72818 0.91025 0.17434 0.0
H230 H 0.77733 0.04861 0.06051 0.0
H231 H 0.77155 0.83485 0.09012 0.0
H232 H 0.74886 0.96336 0.13932 0.0
H233 H 0.8415 0.92626 0.06149 0.0
C234 C 0.84531 0.98255 0.04478 0.0
C235 C 0.8275 0.01743 0.04396 0.0
C236 C 0.75311 0.93514 0.12827 0.0
C237 C 0.79195 0.95884 0.07752 0.0
C238 C 0.74104 0.90502 0.14798 0.0
C239 C 0.74842 0.86841 0.13494 0.0
C240 C 0.77337 0.92825 0.09596 0.0
C241 C 0.76583 0.86282 0.10104 0.0
C242 C 0.82743 0.9531 0.06115 0.0
C243 C 0.79189 0.02203 0.06052 0.0
N244 N 0.77853 0.89245 0.08301 0.0
N245 N 0.77535 0.99308 0.07705 0.0
H246 H 0.50376 0.29436 0.59137 0.0
H247 H 0.7244 0.34219 0.59035 0.0
H248 H 0.54787 0.38818 0.53553 0.0
H249 H 0.66923 0.29649 0.6824 0.0
H250 H 0.66208 0.34835 0.56091 0.0
H251 H 0.56706 0.28376 0.61638 0.0
C252 C 0.52679 0.31264 0.58427 0.0
C253 C 0.52053 0.34235 0.56152 0.0
C254 C 0.66383 0.33647 0.58734 0.0
C255 C 0.59294 0.32991 0.5895 0.0
C256 C 0.69921 0.33285 0.60398 0.0
C257 C 0.70187 0.31843 0.6386 0.0
C258 C 0.6311 0.32486 0.60523 0.0
C259 C 0.66852 0.30672 0.65529 0.0
C260 C 0.5628 0.3066 0.59859 0.0
C261 C 0.5514 0.36519 0.55326 0.0
N262 N 0.63449 0.3101 0.63843 0.0
N263 N 0.58639 0.35838 0.56709 0.0
H264 H 0.57407 0.48663 0.42843 0.0
H265 H 0.60312 0.43574 0.21873 0.0
H266 H 0.63858 0.5588 0.3613 0.0
H267 H 0.60842 0.35192 0.29846 0.0
H268 H 0.60298 0.48452 0.26815 0.0
H269 H 0.57189 0.43959 0.37783 0.0
C270 C 0.58741 0.4927 0.40294 0.0
C271 C 0.60672 0.5265 0.39902 0.0
C272 C 0.60416 0.4554 0.2747 0.0
C273 C 0.60389 0.47328 0.34128 0.0
C274 C 0.60449 0.42778 0.24666 0.0
C275 C 0.606 0.39005 0.25478 0.0
C276 C 0.60436 0.44495 0.31092 0.0
C277 C 0.60689 0.38081 0.2913 0.0
C278 C 0.58634 0.46584 0.37428 0.0
C279 C 0.6237 0.53293 0.36549 0.0
N280 N 0.60572 0.40808 0.31812 0.0
N281 N 0.62172 0.50661 0.33776 0.0
H282 H 0.01651 0.212 0.96187 0.0
H283 H 0.17684 0.12129 0.83341 0.0
H284 H 0.02076 0.09487 0.92885 0.0
H285 H 0.19547 0.22348 0.89692 0.0
H286 H 0.11416 0.11564 0.86088 0.0
H287 H 0.07731 0.22111 0.93127 0.0
C288 C 0.03011 0.18827 0.9481 0.0
C289 C 0.01362 0.15258 0.94805 0.0
C290 C 0.13187 0.13935 0.86888 0.0
C291 C 0.08267 0.16291 0.91289 0.0
C292 C 0.16754 0.14242 0.85334 0.0
C293 C 0.19123 0.1724 0.86369 0.0
C294 C 0.11961 0.16683 0.89458 0.0
C295 C 0.17778 0.19988 0.88864 0.0
C296 C 0.0648 0.19348 0.9308 0.0
C297 C 0.03253 0.12281 0.92986 0.0
N298 N 0.14272 0.19643 0.90344 0.0
N299 N 0.06593 0.12869 0.91294 0.0
H300 H 0.26799 0.45495 0.48896 0.0
H301 H 0.20175 0.61732 0.413 0.0
H302 H 0.37402 0.48491 0.43959 0.0
H303 H 0.29405 0.60219 0.33788 0.0
H304 H 0.22236 0.56168 0.44384 0.0
H305 H 0.2357 0.50111 0.45354 0.0
C306 C 0.28454 0.4713 0.47077 0.0
C307 C 0.32395 0.46639 0.46771 0.0
C308 C 0.23751 0.56964 0.41995 0.0
C309 C 0.28719 0.51991 0.42761 0.0
C310 C 0.22572 0.60138 0.40254 0.0
C311 C 0.2463 0.61373 0.37309 0.0
C312 C 0.27016 0.55046 0.40761 0.0
C313 C 0.27765 0.59309 0.36061 0.0
C314 C 0.26606 0.49793 0.45076 0.0
C315 C 0.34373 0.48801 0.44325 0.0
N316 N 0.28899 0.56266 0.37825 0.0
N317 N 0.32513 0.51387 0.42424 0.0
H318 H 0.07404 0.79848 0.89465 0.0
H319 H 0.88174 0.84759 0.79315 0.0
H320 H 0.99552 0.88342 0.93363 0.0
H321 H 0.98083 0.81403 0.73223 0.0
H322 H 0.91882 0.84616 0.84943 0.0
H323 H 0.03628 0.79074 0.83831 0.0
C324 C 0.04893 0.81538 0.89139 0.0
C325 C 0.03804 0.84184 0.91867 0.0
C326 C 0.93242 0.83878 0.82379 0.0
C327 C 0.99465 0.83249 0.8553 0.0
C328 C 0.91131 0.83956 0.79188 0.0
C329 C 0.92871 0.83163 0.75838 0.0
C330 C 0.97101 0.82932 0.82215 0.0
C331 C 0.96682 0.82058 0.75781 0.0
C332 C 0.02754 0.81099 0.85936 0.0
C333 C 0.00524 0.86301 0.91316 0.0
N334 N 0.98696 0.81992 0.78935 0.0
N335 N 0.98463 0.8577 0.88227 0.0
H336 H 0.94666 0.02292 0.89439 0.0
H337 H 0.83085 0.90508 0.74335 0.0
H338 H 0.82698 0.03833 0.8748 0.0
H339 H 0.95286 0.90867 0.74559 0.0
H340 H 0.82908 0.95548 0.79021 0.0
H341 H 0.94999 0.9819 0.83969 0.0
C342 C 0.92108 0.01782 0.87857 0.0
C343 C 0.88638 0.03392 0.88948 0.0
C344 C 0.85631 0.9458 0.7801 0.0
C345 C 0.89011 0.98693 0.82673 0.0
C346 C 0.85727 0.91736 0.75303 0.0
C347 C 0.89205 0.90323 0.74036 0.0
C348 C 0.89042 0.95978 0.79509 0.0
C349 C 0.92555 0.91905 0.75474 0.0
C350 C 0.92309 0.99452 0.84721 0.0
C351 C 0.85431 0.02648 0.86762 0.0
N352 N 0.92395 0.94625 0.7817 0.0
N353 N 0.8569 0.0033 0.83749 0.0
H354 H 0.43739 0.39929 0.39587 0.0
H355 H 0.57003 0.27551 0.26786 0.0
H356 H 0.45842 0.28286 0.41333 0.0
H357 H 0.52349 0.38041 0.23718 0.0
H358 H 0.52504 0.27469 0.31828 0.0
H359 H 0.46475 0.39106 0.33545 0.0
C360 C 0.44748 0.37187 0.38685 0.0
C361 C 0.44612 0.34183 0.40988 0.0
C362 C 0.52396 0.29748 0.30004 0.0
C363 C 0.47773 0.33225 0.34069 0.0
C364 C 0.54937 0.29771 0.27113 0.0
C365 C 0.55009 0.328 0.24849 0.0
C366 C 0.4997 0.32811 0.30658 0.0
C367 C 0.52359 0.35668 0.25426 0.0
C368 C 0.46293 0.36714 0.35224 0.0
C369 C 0.45912 0.30683 0.39655 0.0
N370 N 0.49982 0.35636 0.28312 0.0
N371 N 0.47497 0.30313 0.363 0.0
H372 H 0.13769 0.95737 0.91963 0.0
H373 H 0.25227 0.14252 0.92452 0.0
H374 H 0.21701 0.9812 0.00716 0.0
H375 H 0.24298 0.07759 0.82378 0.0
H376 H 0.23263 0.08757 0.95743 0.0
H377 H 0.16841 0.00572 0.88475 0.0
C378 C 0.16162 0.97265 0.93137 0.0
C379 C 0.17491 0.96541 0.96623 0.0
C380 C 0.23558 0.0852 0.92818 0.0
C381 C 0.2094 0.0206 0.92705 0.0
C382 C 0.24683 0.11628 0.90963 0.0
C383 C 0.24949 0.11389 0.8718 0.0
C384 C 0.22583 0.05214 0.90842 0.0
C385 C 0.24161 0.07986 0.85312 0.0
C386 C 0.1792 -9e-05 0.91145 0.0
C387 C 0.20607 0.98585 0.98026 0.0
N388 N 0.22932 0.05028 0.8716 0.0
N389 N 0.22193 0.013 0.96084 0.0
H390 H 0.49928 0.69625 0.41742 0.0
H391 H 0.27729 0.66451 0.42935 0.0
H392 H 0.45177 0.61108 0.48266 0.0
H393 H 0.33052 0.68991 0.32848 0.0
H394 H 0.34035 0.65703 0.45673 0.0
H395 H 0.43625 0.70643 0.39127 0.0
C396 C 0.47556 0.67978 0.42627 0.0
C397 C 0.48065 0.65268 0.4521 0.0
C398 C 0.33811 0.66467 0.42873 0.0
C399 C 0.4088 0.66475 0.42298 0.0
C400 C 0.30234 0.66904 0.41324 0.0
C401 C 0.29892 0.67822 0.37685 0.0
C402 C 0.37057 0.67029 0.4078 0.0
C403 C 0.33207 0.68375 0.35689 0.0
C404 C 0.43977 0.68554 0.4113 0.0
C405 C 0.44905 0.63202 0.46258 0.0
N406 N 0.36663 0.67989 0.37269 0.0
N407 N 0.4143 0.63872 0.44821 0.0
H408 H 0.36117 0.43769 0.6569 0.0
H409 H 0.40276 0.64921 0.71488 0.0
H410 H 0.43006 0.50776 0.59147 0.0
H411 H 0.38589 0.56661 0.79435 0.0
H412 H 0.40574 0.59928 0.66713 0.0
H413 H 0.36322 0.48595 0.70611 0.0
C414 C 0.3769 0.46316 0.65298 0.0
C415 C 0.39543 0.46882 0.62005 0.0
C416 C 0.40156 0.59207 0.69504 0.0
C417 C 0.39729 0.5242 0.67592 0.0
C418 C 0.39991 0.62045 0.72216 0.0
C419 C 0.39469 0.6117 0.75845 0.0
C420 C 0.39686 0.5548 0.70423 0.0
C421 C 0.39001 0.57421 0.76658 0.0
C422 C 0.37812 0.49058 0.68108 0.0
C423 C 0.41554 0.50223 0.61648 0.0
N424 N 0.39102 0.54703 0.73961 0.0
N425 N 0.41555 0.52892 0.64394 0.0
H426 H 0.98855 0.78235 0.06317 0.0
H427 H 0.8176 0.87454 0.17785 0.0
H428 H 0.98074 0.9003 0.0921 0.0
H429 H 0.81438 0.76247 0.13069 0.0
H430 H 0.88146 0.8824 0.15322 0.0
H431 H 0.92856 0.77251 0.09414 0.0
C432 C 0.97436 0.80619 0.07613 0.0
C433 C 0.9897 0.84228 0.0748 0.0
C434 C 0.86697 0.85597 0.14841 0.0
C435 C 0.92101 0.83107 0.11041 0.0
C436 C 0.83071 0.85156 0.16246 0.0
C437 C 0.81102 0.818 0.15578 0.0
C438 C 0.88367 0.82641 0.12785 0.0
C439 C 0.82897 0.7887 0.13622 0.0
C440 C 0.94006 0.80051 0.09377 0.0
C441 C 0.96995 0.87203 0.09217 0.0
N442 N 0.86433 0.79362 0.12271 0.0
N443 N 0.93662 0.86575 0.1092 0.0
H444 H 0.72995 0.53634 0.53037 0.0
H445 H 0.6957 0.39091 0.68506 0.0
H446 H 0.62389 0.52284 0.58658 0.0
H447 H 0.79602 0.39125 0.61915 0.0
H448 H 0.67356 0.44732 0.65646 0.0
H449 H 0.75896 0.4907 0.56927 0.0
C450 C 0.71284 0.52405 0.55104 0.0
C451 C 0.67428 0.53308 0.55488 0.0
C452 C 0.70068 0.43548 0.64851 0.0
C453 C 0.70732 0.48108 0.59945 0.0
C454 C 0.71326 0.40357 0.66496 0.0
C455 C 0.7474 0.38687 0.65404 0.0
C456 C 0.7225 0.45057 0.62092 0.0
C457 C 0.7695 0.40375 0.628 0.0
C458 C 0.72942 0.49799 0.57319 0.0
C459 C 0.65356 0.51638 0.58224 0.0
N460 N 0.75647 0.43461 0.61192 0.0
N461 N 0.67029 0.49108 0.6033 0.0
H462 H 0.95828 0.08211 0.11171 0.0
H463 H 0.03541 0.10665 0.28252 0.0
H464 H 0.94973 0.20225 0.11069 0.0
H465 H 0.06358 0.21677 0.24969 0.0
H466 H 0.99018 0.09995 0.23212 0.0
H467 H 0.98614 0.0881 0.17194 0.0
C468 C 0.96172 0.1098 0.12437 0.0
C469 C 0.95173 0.14172 0.10586 0.0
C470 C 0.0061 0.12566 0.23576 0.0
C471 C 0.98285 0.14887 0.17591 0.0
C472 C 0.03127 0.12967 0.26494 0.0
C473 C 0.05315 0.16212 0.26978 0.0
C474 C 0.00342 0.15418 0.21094 0.0
C475 C 0.04699 0.1914 0.24665 0.0
C476 C 0.97724 0.11322 0.15919 0.0
C477 C 0.95703 0.17683 0.12381 0.0
N478 N 0.02306 0.18653 0.21778 0.0
N479 N 0.97263 0.17947 0.15764 0.0
H480 H 0.16608 0.84053 0.15816 0.0
H481 H 0.20928 0.65626 0.25584 0.0
H482 H 0.13364 0.73374 0.10847 0.0
H483 H 0.18039 0.75773 0.31654 0.0
H484 H 0.18525 0.68337 0.20038 0.0
H485 H 0.17638 0.81078 0.21561 0.0
C486 C 0.16117 0.81077 0.15939 0.0
C487 C 0.14936 0.7894 0.12854 0.0
C488 C 0.18368 0.69949 0.22593 0.0
C489 C 0.16122 0.75534 0.19399 0.0
C490 C 0.19722 0.68405 0.25743 0.0
C491 C 0.19692 0.70508 0.29043 0.0
C492 C 0.17063 0.73647 0.22751 0.0
C493 C 0.18164 0.7411 0.29131 0.0
C494 C 0.1667 0.79393 0.19221 0.0
C495 C 0.14284 0.75109 0.13169 0.0
N496 N 0.16959 0.75599 0.26011 0.0
N497 N 0.14943 0.73508 0.16382 0.0
H498 H 0.67188 0.7496 0.56587 0.0
H499 H 0.89051 0.77729 0.62002 0.0
H500 H 0.75989 0.67666 0.52262 0.0
H501 H 0.79748 0.83089 0.67688 0.0
H502 H 0.84464 0.74323 0.58007 0.0
H503 H 0.71916 0.7836 0.60235 0.0
C504 C 0.70118 0.74072 0.56391 0.0
C505 C 0.71181 0.71006 0.54112 0.0
C506 C 0.83435 0.76263 0.60118 0.0
C507 C 0.76637 0.74912 0.58315 0.0
C508 C 0.86043 0.78194 0.62382 0.0
C509 C 0.84755 0.80725 0.65115 0.0
C510 C 0.7953 0.7689 0.60612 0.0
C511 C 0.80843 0.81236 0.65541 0.0
C512 C 0.72822 0.76016 0.5849 0.0
C513 C 0.75034 0.70001 0.53989 0.0
N514 N 0.78372 0.79346 0.6331 0.0
N515 N 0.77628 0.71952 0.56063 0.0
H516 H 0.83003 0.22693 0.09012 0.0
H517 H 0.61641 0.29362 0.11501 0.0
H518 H 0.73904 0.17942 0.02417 0.0
H519 H 0.69744 0.29905 0.2027 0.0
H520 H 0.66228 0.25757 0.07742 0.0
H521 H 0.78316 0.26013 0.12818 0.0
C522 C 0.8002 0.22349 0.08365 0.0
C523 C 0.7884 0.20037 0.05395 0.0
C524 C 0.66992 0.26654 0.10495 0.0
C525 C 0.73478 0.23853 0.09713 0.0
C526 C 0.64383 0.2869 0.12627 0.0
C527 C 0.65342 0.29901 0.16177 0.0
C528 C 0.70595 0.25893 0.11922 0.0
C529 C 0.68937 0.29033 0.17524 0.0
C530 C 0.7735 0.24231 0.10545 0.0
C531 C 0.74935 0.19681 0.04693 0.0
N532 N 0.71451 0.27101 0.15386 0.0
N533 N 0.72391 0.21595 0.0682 0.0
H534 H 0.34157 0.3445 0.66193 0.0
H535 H 0.30295 0.15367 0.75331 0.0
H536 H 0.37688 0.23865 0.61252 0.0
H537 H 0.3015 0.25974 0.81314 0.0
H538 H 0.33275 0.18348 0.70223 0.0
H539 H 0.32878 0.31391 0.71821 0.0
C540 C 0.34681 0.3148 0.66301 0.0
C541 C 0.3598 0.29393 0.63239 0.0
C542 C 0.32656 0.20016 0.72674 0.0
C543 C 0.34505 0.25872 0.69671 0.0
C544 C 0.30978 0.18312 0.75586 0.0
C545 C 0.29989 0.20447 0.7872 0.0
C546 C 0.33281 0.23889 0.7289 0.0
C547 C 0.30848 0.24262 0.78914 0.0
C548 C 0.33973 0.2974 0.69523 0.0
C549 C 0.36669 0.25568 0.63547 0.0
N550 N 0.32404 0.25879 0.76015 0.0
N551 N 0.35867 0.23914 0.66697 0.0
H552 H 0.61795 0.75391 0.40047 0.0
H553 H 0.70432 0.72492 0.20086 0.0
H554 H 0.66531 0.65037 0.35652 0.0
H555 H 0.68604 0.83304 0.25359 0.0
H556 H 0.67521 0.69568 0.25274 0.0
H557 H 0.62901 0.78187 0.34204 0.0
C558 C 0.63037 0.73699 0.37849 0.0
C559 C 0.6413 0.69995 0.38353 0.0
C560 C 0.67698 0.72585 0.25276 0.0
C561 C 0.65359 0.73155 0.3168 0.0
C562 C 0.6934 0.74238 0.2232 0.0
C563 C 0.69762 0.78118 0.22341 0.0
C564 C 0.66486 0.74843 0.28267 0.0
C565 C 0.68299 0.80297 0.25261 0.0
C566 C 0.63666 0.75295 0.34521 0.0
C567 C 0.65707 0.67923 0.35407 0.0
N568 N 0.6676 0.78626 0.28142 0.0
N569 N 0.66288 0.69537 0.32204 0.0
H570 H 0.7852 0.1869 0.89409 0.0
H571 H 0.85218 0.29534 0.72266 0.0
H572 H 0.89827 0.23268 0.88934 0.0
H573 H 0.7357 0.28575 0.75549 0.0
H574 H 0.87213 0.26867 0.78031 0.0
H575 H 0.76862 0.21841 0.83943 0.0
C576 C 0.80659 0.20368 0.8815 0.0
C577 C 0.84322 0.20711 0.8962 0.0
C578 C 0.84225 0.27253 0.7748 0.0
C579 C 0.82435 0.24328 0.83325 0.0
C580 C 0.83098 0.28757 0.74208 0.0
C581 C 0.79234 0.29182 0.73436 0.0
C582 C 0.81448 0.26164 0.79944 0.0
C583 C 0.7657 0.28177 0.76017 0.0
C584 C 0.79703 0.22183 0.85035 0.0
C585 C 0.86966 0.2295 0.87888 0.0
N586 N 0.77723 0.26688 0.79141 0.0
N587 N 0.85981 0.24656 0.84796 0.0
H588 H 0.31236 0.23494 0.47803 0.0
H589 H 0.14311 0.25304 0.33975 0.0
H590 H 0.25176 0.33881 0.47001 0.0
H591 H 0.16621 0.14998 0.39108 0.0
H592 H 0.18563 0.2858 0.38347 0.0
H593 H 0.26282 0.20328 0.44142 0.0
C594 C 0.28862 0.25105 0.46859 0.0
C595 C 0.28616 0.28954 0.47701 0.0
C596 C 0.181 0.25609 0.38541 0.0
C597 C 0.22975 0.25364 0.43494 0.0
C598 C 0.15661 0.23752 0.36069 0.0
C599 C 0.15134 0.19885 0.36194 0.0
C600 C 0.20075 0.23561 0.41095 0.0
C601 C 0.17006 0.17976 0.38906 0.0
C602 C 0.26029 0.23295 0.44793 0.0
C603 C 0.25465 0.30905 0.46425 0.0
N604 N 0.1944 0.19822 0.41222 0.0
N605 N 0.22786 0.29096 0.44347 0.0
H606 H 0.1894 0.73463 0.97281 0.0
H607 H 0.35793 0.7532 0.83378 0.0
H608 H 0.24765 0.83927 0.96066 0.0
H609 H 0.33686 0.6509 0.8871 0.0
H610 H 0.31316 0.78549 0.87509 0.0
H611 H 0.23811 0.70302 0.9355 0.0
C612 C 0.21236 0.75095 0.96221 0.0
C613 C 0.21452 0.78962 0.96981 0.0
C614 C 0.31862 0.75605 0.87795 0.0
C615 C 0.26995 0.75375 0.92707 0.0
C616 C 0.3443 0.73776 0.85462 0.0
C617 C 0.35112 0.69949 0.85734 0.0
C618 C 0.29908 0.73568 0.90358 0.0
C619 C 0.33199 0.68038 0.88409 0.0
C620 C 0.24022 0.73287 0.94117 0.0
C621 C 0.24502 0.80938 0.95558 0.0
N622 N 0.30648 0.69859 0.90601 0.0
N623 N 0.2714 0.79127 0.93461 0.0
loop_
_geom_bond_atom_site_label_1
_geom_bond_atom_site_label_2
_geom_bond_distance
_geom_bond_site_symmetry_2
_ccdc_geom_bond_type
Sc0 O3 2.025 . S
Sc0 O10 2.105 1_554 S
Sc0 O13 2.105 . S
Sc0 O16 2.105 . S
Sc0 O19 2.105 1_554 S
Sc1 O3 2.025 . S
Sc1 O11 2.105 1_554 S
Sc1 O15 2.105 . S
Sc1 O17 2.105 . S
Sc1 O21 2.105 1_554 S
Sc2 O3 2.025 . S
Sc2 O12 2.105 1_554 S
Sc2 O14 2.105 . S
Sc2 O18 2.105 . S
Sc2 O20 2.105 1_554 S
O3 Sc0 2.025 . S
O3 Sc1 2.025 . S
O3 Sc2 2.025 . S
C4 O10 1.268 . S
C4 O20 1.268 . S
C5 O11 1.268 . S
C5 O19 1.268 . S
C6 O12 1.268 . S
C6 O21 1.268 . S
C7 O13 1.268 . S
C7 O17 1.268 . S
C8 O14 1.268 . S
C8 O16 1.268 . S
C9 O15 1.268 . S
C9 O18 1.268 . S
O10 Sc0 2.105 1_556 S
O10 C4 1.268 . S
O11 Sc1 2.105 1_556 S
O11 C5 1.268 . S
O12 Sc2 2.105 1_556 S
O12 C6 1.268 . S
O13 Sc0 2.105 . S
O13 C7 1.268 . S
O14 Sc2 2.105 . S
O14 C8 1.268 . S
O15 Sc1 2.105 . S
O15 C9 1.268 . S
O16 Sc0 2.105 . S
O16 C8 1.268 . S
O17 Sc1 2.105 . S
O17 C7 1.268 . S
O18 Sc2 2.105 . S
O18 C9 1.268 . S
O19 Sc0 2.105 1_556 S
O19 C5 1.268 . S
O20 Sc2 2.105 1_556 S
O20 C4 1.268 . S
O21 Sc1 2.105 1_556 S
O21 C6 1.268 . S
Sc22 O25 2.025 . S
Sc22 O32 2.105 . S
Sc22 O35 2.105 . S
Sc22 O38 2.105 . S
Sc22 O41 2.105 . S
Sc23 O25 2.025 . S
Sc23 O33 2.105 . S
Sc23 O37 2.105 . S
Sc23 O39 2.105 . S
Sc23 O43 2.105 . S
Sc24 O25 2.025 . S
Sc24 O34 2.105 . S
Sc24 O36 2.105 . S
Sc24 O40 2.105 . S
Sc24 O42 2.105 . S
O25 Sc22 2.025 . S
O25 Sc23 2.025 . S
O25 Sc24 2.025 . S
C26 O32 1.268 . S
C26 O42 1.268 . S
C27 O33 1.268 . S
C27 O41 1.268 . S
C28 O34 1.268 . S
C28 O43 1.268 . S
C29 O35 1.268 . S
C29 O39 1.268 . S
C30 O36 1.268 . S
C30 O38 1.268 . S
C31 O37 1.268 . S
C31 O40 1.268 . S
O32 Sc22 2.105 . S
O32 C26 1.268 . S
O33 Sc23 2.105 . S
O33 C27 1.268 . S
O34 Sc24 2.105 . S
O34 C28 1.268 . S
O35 Sc22 2.105 . S
O35 C29 1.268 . S
O36 Sc24 2.105 . S
O36 C30 1.268 . S
O37 Sc23 2.105 . S
O37 C31 1.268 . S
O38 Sc22 2.105 . S
O38 C30 1.268 . S
O39 Sc23 2.105 . S
O39 C29 1.268 . S
O40 Sc24 2.105 . S
O40 C31 1.268 . S
O41 Sc22 2.105 . S
O41 C27 1.268 . S
O42 Sc24 2.105 . S
O42 C26 1.268 . S
O43 Sc23 2.105 . S
O43 C28 1.268 . S
Sc44 O47 2.025 . S
Sc44 O54 2.105 1_554 S
Sc44 O57 2.105 . S
Sc44 O60 2.105 . S
Sc44 O63 2.105 1_554 S
Sc45 O47 2.025 1_556 S
Sc45 O55 2.105 . S
Sc45 O59 2.105 1_556 S
Sc45 O61 2.105 1_556 S
Sc45 O65 2.105 . S
Sc46 O47 2.025 . S
Sc46 O56 2.105 1_554 S
Sc46 O58 2.105 . S
Sc46 O62 2.105 . S
Sc46 O64 2.105 1_554 S
O47 Sc44 2.025 . S
O47 Sc45 2.025 1_554 S
O47 Sc46 2.025 . S
C48 O54 1.268 . S
C48 O64 1.268 . S
C49 O55 1.268 . S
C49 O63 1.268 . S
C50 O56 1.268 . S
C50 O65 1.268 . S
C51 O57 1.268 . S
C51 O61 1.268 . S
C52 O58 1.268 . S
C52 O60 1.268 . S
C53 O59 1.268 . S
C53 O62 1.268 . S
O54 Sc44 2.105 1_556 S
O54 C48 1.268 . S
O55 Sc45 2.105 . S
O55 C49 1.268 . S
O56 Sc46 2.105 1_556 S
O56 C50 1.268 . S
O57 Sc44 2.105 . S
O57 C51 1.268 . S
O58 Sc46 2.105 . S
O58 C52 1.268 . S
O59 Sc45 2.105 1_554 S
O59 C53 1.268 . S
O60 Sc44 2.105 . S
O60 C52 1.268 . S
O61 Sc45 2.105 1_554 S
O61 C51 1.268 . S
O62 Sc46 2.105 . S
O62 C53 1.268 . S
O63 Sc44 2.105 1_556 S
O63 C49 1.268 . S
O64 Sc46 2.105 1_556 S
O64 C48 1.268 . S
O65 Sc45 2.105 . S
O65 C50 1.268 . S
Sc66 O69 2.025 . S
Sc66 O76 2.105 . S
Sc66 O79 2.105 . S
Sc66 O82 2.105 . S
Sc66 O85 2.105 . S
Sc67 O69 2.025 . S
Sc67 O77 2.105 . S
Sc67 O81 2.105 . S
Sc67 O83 2.105 . S
Sc67 O87 2.105 . S
Sc68 O69 2.025 . S
Sc68 O78 2.105 . S
Sc68 O80 2.105 . S
Sc68 O84 2.105 . S
Sc68 O86 2.105 . S
O69 Sc66 2.025 . S
O69 Sc67 2.025 . S
O69 Sc68 2.025 . S
C70 O76 1.268 . S
C70 O86 1.268 . S
C71 O77 1.268 . S
C71 O85 1.268 . S
C72 O78 1.268 . S
C72 O87 1.268 . S
C73 O79 1.268 . S
C73 O83 1.268 . S
C74 O80 1.268 . S
C74 O82 1.268 . S
C75 O81 1.268 . S
C75 O84 1.268 . S
O76 Sc66 2.105 . S
O76 C70 1.268 . S
O77 Sc67 2.105 . S
O77 C71 1.268 . S
O78 Sc68 2.105 . S
O78 C72 1.268 . S
O79 Sc66 2.105 . S
O79 C73 1.268 . S
O80 Sc68 2.105 . S
O80 C74 1.268 . S
O81 Sc67 2.105 . S
O81 C75 1.268 . S
O82 Sc66 2.105 . S
O82 C74 1.268 . S
O83 Sc67 2.105 . S
O83 C73 1.268 . S
O84 Sc68 2.105 . S
O84 C75 1.268 . S
O85 Sc66 2.105 . S
O85 C71 1.268 . S
O86 Sc68 2.105 . S
O86 C70 1.268 . S
O87 Sc67 2.105 . S
O87 C72 1.268 . S
C88 N89 1.317 . S
C88 N90 1.348 . S
C88 C91 1.485 . S
N89 C88 1.317 . S
N89 N93 1.370 . S
N90 C88 1.348 . S
N90 C92 1.346 . S
C91 C88 1.485 . S
C91 H95 0.960 . S
C91 H96 0.961 . S
C91 H97 0.960 . S
C92 N90 1.346 . S
C92 N93 1.307 . S
C92 C94 1.486 . S
N93 N89 1.370 . S
N93 C92 1.307 . S
C94 C92 1.486 . S
C94 H98 0.960 . S
C94 H99 0.960 . S
C94 H100 0.959 . S
H95 C91 0.960 . S
H96 C91 0.961 . S
H97 C91 0.960 . S
H98 C94 0.960 . S
H99 C94 0.960 . S
H100 C94 0.959 . S
C101 N102 1.317 . S
C101 N103 1.348 . S
C101 C104 1.485 . S
N102 C101 1.317 . S
N102 N106 1.370 . S
N103 C101 1.348 . S
N103 C105 1.346 . S
C104 C101 1.485 . S
C104 H108 0.960 . S
C104 H109 0.961 . S
C104 H110 0.960 . S
C105 N103 1.346 . S
C105 N106 1.307 . S
C105 C107 1.486 . S
N106 N102 1.370 . S
N106 C105 1.307 . S
C107 C105 1.486 . S
C107 H111 0.960 . S
C107 H112 0.960 . S
C107 H113 0.959 . S
H108 C104 0.960 . S
H109 C104 0.961 . S
H110 C104 0.960 . S
H111 C107 0.960 . S
H112 C107 0.960 . S
H113 C107 0.959 . S
C114 N115 1.317 . S
C114 N116 1.348 . S
C114 C117 1.485 . S
N115 C114 1.317 . S
N115 N119 1.370 . S
N116 C114 1.348 . S
N116 C118 1.346 . S
C117 C114 1.485 . S
C117 H121 0.960 . S
C117 H122 0.961 . S
C117 H123 0.960 . S
C118 N116 1.346 . S
C118 N119 1.307 . S
C118 C120 1.486 . S
N119 N115 1.370 . S
N119 C118 1.307 . S
C120 C118 1.486 . S
C120 H124 0.960 . S
C120 H125 0.960 . S
C120 H126 0.959 . S
H121 C117 0.960 . S
H122 C117 0.961 . S
H123 C117 0.960 . S
H124 C120 0.960 . S
H125 C120 0.960 . S
H126 C120 0.959 . S
C127 N128 1.317 . S
C127 N129 1.348 . S
C127 C130 1.485 . S
N128 C127 1.317 . S
N128 N132 1.370 . S
N129 C127 1.348 . S
N129 C131 1.346 . S
C130 C127 1.485 . S
C130 H134 0.960 . S
C130 H135 0.961 . S
C130 H136 0.960 . S
C131 N129 1.346 . S
C131 N132 1.307 . S
C131 C133 1.486 . S
N132 N128 1.370 . S
N132 C131 1.307 . S
C133 C131 1.486 . S
C133 H137 0.960 . S
C133 H138 0.960 . S
C133 H139 0.959 . S
H134 C130 0.960 . S
H135 C130 0.961 . S
H136 C130 0.960 . S
H137 C133 0.960 . S
H138 C133 0.960 . S
H139 C133 0.959 . S
C140 N141 1.317 . S
C140 N142 1.348 . S
C140 C143 1.485 . S
N141 C140 1.317 . S
N141 N145 1.370 . S
N142 C140 1.348 . S
N142 C144 1.346 . S
C143 C140 1.485 . S
C143 H147 0.960 . S
C143 H148 0.961 . S
C143 H149 0.960 . S
C144 N142 1.346 . S
C144 N145 1.307 . S
C144 C146 1.486 . S
N145 N141 1.370 . S
N145 C144 1.307 . S
C146 C144 1.486 . S
C146 H150 0.960 . S
C146 H151 0.960 . S
C146 H152 0.959 . S
H147 C143 0.960 . S
H148 C143 0.961 . S
H149 C143 0.960 . S
H150 C146 0.960 . S
H151 C146 0.960 . S
H152 C146 0.959 . S
C153 N154 1.317 . S
C153 N155 1.348 . S
C153 C156 1.485 . S
N154 C153 1.317 . S
N154 N158 1.370 . S
N155 C153 1.348 . S
N155 C157 1.346 . S
C156 C153 1.485 . S
C156 H160 0.960 . S
C156 H161 0.961 . S
C156 H162 0.960 . S
C157 N155 1.346 . S
C157 N158 1.307 . S
C157 C159 1.486 . S
N158 N154 1.370 . S
N158 C157 1.307 . S
C159 C157 1.486 . S
C159 H163 0.960 . S
C159 H164 0.960 . S
C159 H165 0.959 . S
H160 C156 0.960 . S
H161 C156 0.961 . S
H162 C156 0.960 . S
H163 C159 0.960 . S
H164 C159 0.960 . S
H165 C159 0.959 . S
C166 N167 1.317 . S
C166 N168 1.348 . S
C166 C169 1.485 . S
N167 C166 1.317 . S
N167 N171 1.370 . S
N168 C166 1.348 . S
N168 C170 1.346 . S
C169 C166 1.485 . S
C169 H173 0.960 . S
C169 H174 0.961 . S
C169 H175 0.960 . S
C170 N168 1.346 . S
C170 N171 1.307 . S
C170 C172 1.486 . S
N171 N167 1.370 . S
N171 C170 1.307 . S
C172 C170 1.486 . S
C172 H176 0.960 . S
C172 H177 0.960 . S
C172 H178 0.959 . S
H173 C169 0.960 . S
H174 C169 0.961 . S
H175 C169 0.960 . S
H176 C172 0.960 . S
H177 C172 0.960 . S
H178 C172 0.959 . S
C179 N180 1.317 . S
C179 N181 1.348 . S
C179 C182 1.485 . S
N180 C179 1.317 . S
N180 N184 1.370 . S
N181 C179 1.348 . S
N181 C183 1.346 . S
C182 C179 1.485 . S
C182 H186 0.960 . S
C182 H187 0.961 . S
C182 H188 0.960 . S
C183 N181 1.346 . S
C183 N184 1.307 . S
C183 C185 1.486 . S
N184 N180 1.370 . S
N184 C183 1.307 . S
C185 C183 1.486 . S
C185 H189 0.960 . S
C185 H190 0.960 . S
C185 H191 0.959 . S
H186 C182 0.960 . S
H187 C182 0.961 . S
H188 C182 0.960 . S
H189 C185 0.960 . S
H190 C185 0.960 . S
H191 C185 0.959 . S
H192 C198 0.930 . S
H193 C202 0.930 . S
H194 C207 0.929 . S
H195 C205 0.929 . S
H196 C200 0.929 . S
H197 C206 0.929 . S
C198 H192 0.930 . S
C198 C199 1.367 . S
C198 C206 1.378 . S
C199 C198 1.367 . S
C199 C207 1.433 . S
C200 H196 0.929 . S
C200 C202 1.378 . S
C200 C204 1.350 . S
C201 C204 1.463 . S
C201 C206 1.350 1_545 S
C201 N209 1.427 . S
C202 H193 0.930 . S
C202 C200 1.378 . S
C202 C203 1.367 . S
C203 C202 1.367 . S
C203 C205 1.433 . S
C204 C200 1.350 . S
C204 C201 1.463 . S
C204 N208 1.427 . S
C205 H195 0.929 . S
C205 C203 1.433 . S
C205 N208 1.384 . S
C206 H197 0.929 . S
C206 C198 1.378 . S
C206 C201 1.350 1_565 S
C207 H194 0.929 . S
C207 C199 1.433 . S
C207 N209 1.384 1_565 S
N208 C204 1.427 . S
N208 C205 1.384 . S
N209 C201 1.427 . S
N209 C207 1.384 1_545 S
H210 C216 0.930 . S
H211 C220 0.930 . S
H212 C225 0.929 . S
H213 C223 0.929 . S
H214 C218 0.929 . S
H215 C224 0.929 . S
C216 H210 0.930 . S
C216 C217 1.367 . S
C216 C224 1.378 . S
C217 C216 1.367 . S
C217 C225 1.433 . S
C218 H214 0.929 . S
C218 C220 1.378 . S
C218 C222 1.350 . S
C219 C222 1.463 . S
C219 C224 1.350 . S
C219 N227 1.427 . S
C220 H211 0.930 . S
C220 C218 1.378 . S
C220 C221 1.367 . S
C221 C220 1.367 . S
C221 C223 1.433 . S
C222 C218 1.350 . S
C222 C219 1.463 . S
C222 N226 1.427 . S
C223 H213 0.929 . S
C223 C221 1.433 . S
C223 N226 1.384 . S
C224 H215 0.929 . S
C224 C216 1.378 . S
C224 C219 1.350 . S
C225 H212 0.929 . S
C225 C217 1.433 . S
C225 N227 1.384 . S
N226 C222 1.427 . S
N226 C223 1.384 . S
N227 C219 1.427 . S
N227 C225 1.384 . S
H228 C234 0.930 . S
H229 C238 0.930 . S
H230 C243 0.929 . S
H231 C241 0.929 . S
H232 C236 0.929 . S
H233 C242 0.929 . S
C234 H228 0.930 . S
C234 C235 1.367 . S
C234 C242 1.378 1_545 S
C235 C234 1.367 . S
C235 C243 1.433 . S
C236 H232 0.929 . S
C236 C238 1.378 . S
C236 C240 1.350 . S
C237 C240 1.463 . S
C237 C242 1.350 . S
C237 N245 1.427 1_565 S
C238 H229 0.930 . S
C238 C236 1.378 . S
C238 C239 1.367 . S
C239 C238 1.367 . S
C239 C241 1.433 . S
C240 C236 1.350 . S
C240 C237 1.463 . S
C240 N244 1.427 . S
C241 H231 0.929 . S
C241 C239 1.433 . S
C241 N244 1.384 . S
C242 H233 0.929 . S
C242 C234 1.378 1_565 S
C242 C237 1.350 . S
C243 H230 0.929 . S
C243 C235 1.433 . S
C243 N245 1.384 . S
N244 C240 1.427 . S
N244 C241 1.384 . S
N245 C237 1.427 1_545 S
N245 C243 1.384 . S
H246 C252 0.930 . S
H247 C256 0.930 . S
H248 C261 0.929 . S
H249 C259 0.929 . S
H250 C254 0.929 . S
H251 C260 0.929 . S
C252 H246 0.930 . S
C252 C253 1.367 . S
C252 C260 1.378 . S
C253 C252 1.367 . S
C253 C261 1.433 . S
C254 H250 0.929 . S
C254 C256 1.378 . S
C254 C258 1.350 . S
C255 C258 1.463 . S
C255 C260 1.350 . S
C255 N263 1.427 . S
C256 H247 0.930 . S
C256 C254 1.378 . S
C256 C257 1.367 . S
C257 C256 1.367 . S
C257 C259 1.433 . S
C258 C254 1.350 . S
C258 C255 1.463 . S
C258 N262 1.427 . S
C259 H249 0.929 . S
C259 C257 1.433 . S
C259 N262 1.384 . S
C260 H251 0.929 . S
C260 C252 1.378 . S
C260 C255 1.350 . S
C261 H248 0.929 . S
C261 C253 1.433 . S
C261 N263 1.384 . S
N262 C258 1.427 . S
N262 C259 1.384 . S
N263 C255 1.427 . S
N263 C261 1.384 . S
H264 C270 0.930 . S
H265 C274 0.930 . S
H266 C279 0.929 . S
H267 C277 0.929 . S
H268 C272 0.929 . S
H269 C278 0.929 . S
C270 H264 0.930 . S
C270 C271 1.367 . S
C270 C278 1.378 . S
C271 C270 1.367 . S
C271 C279 1.433 . S
C272 H268 0.929 . S
C272 C274 1.378 . S
C272 C276 1.350 . S
C273 C276 1.463 . S
C273 C278 1.350 . S
C273 N281 1.427 . S
C274 H265 0.930 . S
C274 C272 1.378 . S
C274 C275 1.367 . S
C275 C274 1.367 . S
C275 C277 1.433 . S
C276 C272 1.350 . S
C276 C273 1.463 . S
C276 N280 1.427 . S
C277 H267 0.929 . S
C277 C275 1.433 . S
C277 N280 1.384 . S
C278 H269 0.929 . S
C278 C270 1.378 . S
C278 C273 1.350 . S
C279 H266 0.929 . S
C279 C271 1.433 . S
C279 N281 1.384 . S
N280 C276 1.427 . S
N280 C277 1.384 . S
N281 C273 1.427 . S
N281 C279 1.384 . S
H282 C288 0.930 . S
H283 C292 0.930 . S
H284 C297 0.929 . S
H285 C295 0.929 . S
H286 C290 0.929 . S
H287 C296 0.929 . S
C288 H282 0.930 . S
C288 C289 1.367 . S
C288 C296 1.378 1_655 S
C289 C288 1.367 . S
C289 C297 1.433 . S
C290 H286 0.929 . S
C290 C292 1.378 . S
C290 C294 1.350 . S
C291 C294 1.463 . S
C291 C296 1.350 . S
C291 N299 1.427 . S
C292 H283 0.930 . S
C292 C290 1.378 . S
C292 C293 1.367 . S
C293 C292 1.367 . S
C293 C295 1.433 . S
C294 C290 1.350 . S
C294 C291 1.463 . S
C294 N298 1.427 . S
C295 H285 0.929 . S
C295 C293 1.433 . S
C295 N298 1.384 . S
C296 H287 0.929 . S
C296 C288 1.378 1_455 S
C296 C291 1.350 . S
C297 H284 0.929 . S
C297 C289 1.433 . S
C297 N299 1.384 1_655 S
N298 C294 1.427 . S
N298 C295 1.384 . S
N299 C291 1.427 . S
N299 C297 1.384 1_455 S
H300 C306 0.930 . S
H301 C310 0.930 . S
H302 C315 0.929 . S
H303 C313 0.929 . S
H304 C308 0.929 . S
H305 C314 0.929 . S
C306 H300 0.930 . S
C306 C307 1.367 . S
C306 C314 1.378 . S
C307 C306 1.367 . S
C307 C315 1.433 . S
C308 H304 0.929 . S
C308 C310 1.378 . S
C308 C312 1.350 . S
C309 C312 1.463 . S
C309 C314 1.350 . S
C309 N317 1.427 . S
C310 H301 0.930 . S
C310 C308 1.378 . S
C310 C311 1.367 . S
C311 C310 1.367 . S
C311 C313 1.433 . S
C312 C308 1.350 . S
C312 C309 1.463 . S
C312 N316 1.427 . S
C313 H303 0.929 . S
C313 C311 1.433 . S
C313 N316 1.384 . S
C314 H305 0.929 . S
C314 C306 1.378 . S
C314 C309 1.350 . S
C315 H302 0.929 . S
C315 C307 1.433 . S
C315 N317 1.384 . S
N316 C312 1.427 . S
N316 C313 1.384 . S
N317 C309 1.427 . S
N317 C315 1.384 . S
H318 C324 0.930 . S
H319 C328 0.930 . S
H320 C333 0.929 . S
H321 C331 0.929 . S
H322 C326 0.929 . S
H323 C332 0.929 . S
C324 H318 0.930 . S
C324 C325 1.367 . S
C324 C332 1.378 . S
C325 C324 1.367 . S
C325 C333 1.433 . S
C326 H322 0.929 . S
C326 C328 1.378 . S
C326 C330 1.350 . S
C327 C330 1.463 1_455 S
C327 C332 1.350 . S
C327 N335 1.427 1_455 S
C328 H319 0.930 . S
C328 C326 1.378 . S
C328 C329 1.367 . S
C329 C328 1.367 . S
C329 C331 1.433 . S
C330 C326 1.350 . S
C330 C327 1.463 1_655 S
C330 N334 1.427 . S
C331 H321 0.929 . S
C331 C329 1.433 . S
C331 N334 1.384 . S
C332 H323 0.929 . S
C332 C324 1.378 . S
C332 C327 1.350 . S
C333 H320 0.929 . S
C333 C325 1.433 . S
C333 N335 1.384 1_455 S
N334 C330 1.427 . S
N334 C331 1.384 . S
N335 C327 1.427 1_655 S
N335 C333 1.384 1_655 S
H336 C342 0.930 . S
H337 C346 0.930 . S
H338 C351 0.929 . S
H339 C349 0.929 . S
H340 C344 0.929 . S
H341 C350 0.929 . S
C342 H336 0.930 . S
C342 C343 1.367 . S
C342 C350 1.378 . S
C343 C342 1.367 . S
C343 C351 1.433 . S
C344 H340 0.929 . S
C344 C346 1.378 . S
C344 C348 1.350 . S
C345 C348 1.463 . S
C345 C350 1.350 1_565 S
C345 N353 1.427 . S
C346 H337 0.930 . S
C346 C344 1.378 . S
C346 C347 1.367 . S
C347 C346 1.367 . S
C347 C349 1.433 . S
C348 C344 1.350 . S
C348 C345 1.463 . S
C348 N352 1.427 . S
C349 H339 0.929 . S
C349 C347 1.433 . S
C349 N352 1.384 . S
C350 H341 0.929 . S
C350 C342 1.378 . S
C350 C345 1.350 1_545 S
C351 H338 0.929 . S
C351 C343 1.433 . S
C351 N353 1.384 1_545 S
N352 C348 1.427 . S
N352 C349 1.384 . S
N353 C345 1.427 . S
N353 C351 1.384 1_565 S
H354 C360 0.930 . S
H355 C364 0.930 . S
H356 C369 0.929 . S
H357 C367 0.929 . S
H358 C362 0.929 . S
H359 C368 0.929 . S
C360 H354 0.930 . S
C360 C361 1.367 . S
C360 C368 1.378 . S
C361 C360 1.367 . S
C361 C369 1.433 . S
C362 H358 0.929 . S
C362 C364 1.378 . S
C362 C366 1.350 . S
C363 C366 1.463 . S
C363 C368 1.350 . S
C363 N371 1.427 . S
C364 H355 0.930 . S
C364 C362 1.378 . S
C364 C365 1.367 . S
C365 C364 1.367 . S
C365 C367 1.433 . S
C366 C362 1.350 . S
C366 C363 1.463 . S
C366 N370 1.427 . S
C367 H357 0.929 . S
C367 C365 1.433 . S
C367 N370 1.384 . S
C368 H359 0.929 . S
C368 C360 1.378 . S
C368 C363 1.350 . S
C369 H356 0.929 . S
C369 C361 1.433 . S
C369 N371 1.384 . S
N370 C366 1.427 . S
N370 C367 1.384 . S
N371 C363 1.427 . S
N371 C369 1.384 . S
H372 C378 0.930 . S
H373 C382 0.930 . S
H374 C387 0.929 . S
H375 C385 0.929 . S
H376 C380 0.929 . S
H377 C386 0.929 . S
C378 H372 0.930 . S
C378 C379 1.367 . S
C378 C386 1.378 . S
C379 C378 1.367 . S
C379 C387 1.433 . S
C380 H376 0.929 . S
C380 C382 1.378 . S
C380 C384 1.350 . S
C381 C384 1.463 . S
C381 C386 1.350 1_545 S
C381 N389 1.427 . S
C382 H373 0.930 . S
C382 C380 1.378 . S
C382 C383 1.367 . S
C383 C382 1.367 . S
C383 C385 1.433 . S
C384 C380 1.350 . S
C384 C381 1.463 . S
C384 N388 1.427 . S
C385 H375 0.929 . S
C385 C383 1.433 . S
C385 N388 1.384 . S
C386 H377 0.929 . S
C386 C378 1.378 . S
C386 C381 1.350 1_565 S
C387 H374 0.929 . S
C387 C379 1.433 . S
C387 N389 1.384 1_565 S
N388 C384 1.427 . S
N388 C385 1.384 . S
N389 C381 1.427 . S
N389 C387 1.384 1_545 S
H390 C396 0.930 . S
H391 C400 0.930 . S
H392 C405 0.929 . S
H393 C403 0.929 . S
H394 C398 0.929 . S
H395 C404 0.929 . S
C396 H390 0.930 . S
C396 C397 1.367 . S
C396 C404 1.378 . S
C397 C396 1.367 . S
C397 C405 1.433 . S
C398 H394 0.929 . S
C398 C400 1.378 . S
C398 C402 1.350 . S
C399 C402 1.463 . S
C399 C404 1.350 . S
C399 N407 1.427 . S
C400 H391 0.930 . S
C400 C398 1.378 . S
C400 C401 1.367 . S
C401 C400 1.367 . S
C401 C403 1.433 . S
C402 C398 1.350 . S
C402 C399 1.463 . S
C402 N406 1.427 . S
C403 H393 0.929 . S
C403 C401 1.433 . S
C403 N406 1.384 . S
C404 H395 0.929 . S
C404 C396 1.378 . S
C404 C399 1.350 . S
C405 H392 0.929 . S
C405 C397 1.433 . S
C405 N407 1.384 . S
N406 C402 1.427 . S
N406 C403 1.384 . S
N407 C399 1.427 . S
N407 C405 1.384 . S
H408 C414 0.930 . S
H409 C418 0.930 . S
H410 C423 0.929 . S
H411 C421 0.929 . S
H412 C416 0.929 . S
H413 C422 0.929 . S
C414 H408 0.930 . S
C414 C415 1.367 . S
C414 C422 1.378 . S
C415 C414 1.367 . S
C415 C423 1.433 . S
C416 H412 0.929 . S
C416 C418 1.378 . S
C416 C420 1.350 . S
C417 C420 1.463 . S
C417 C422 1.350 . S
C417 N425 1.427 . S
C418 H409 0.930 . S
C418 C416 1.378 . S
C418 C419 1.367 . S
C419 C418 1.367 . S
C419 C421 1.433 . S
C420 C416 1.350 . S
C420 C417 1.463 . S
C420 N424 1.427 . S
C421 H411 0.929 . S
C421 C419 1.433 . S
C421 N424 1.384 . S
C422 H413 0.929 . S
C422 C414 1.378 . S
C422 C417 1.350 . S
C423 H410 0.929 . S
C423 C415 1.433 . S
C423 N425 1.384 . S
N424 C420 1.427 . S
N424 C421 1.384 . S
N425 C417 1.427 . S
N425 C423 1.384 . S
H426 C432 0.930 . S
H427 C436 0.930 . S
H428 C441 0.929 . S
H429 C439 0.929 . S
H430 C434 0.929 . S
H431 C440 0.929 . S
C432 H426 0.930 . S
C432 C433 1.367 . S
C432 C440 1.378 1_455 S
C433 C432 1.367 . S
C433 C441 1.433 . S
C434 H430 0.929 . S
C434 C436 1.378 . S
C434 C438 1.350 . S
C435 C438 1.463 . S
C435 C440 1.350 . S
C435 N443 1.427 . S
C436 H427 0.930 . S
C436 C434 1.378 . S
C436 C437 1.367 . S
C437 C436 1.367 . S
C437 C439 1.433 . S
C438 C434 1.350 . S
C438 C435 1.463 . S
C438 N442 1.427 . S
C439 H429 0.929 . S
C439 C437 1.433 . S
C439 N442 1.384 . S
C440 H431 0.929 . S
C440 C432 1.378 1_655 S
C440 C435 1.350 . S
C441 H428 0.929 . S
C441 C433 1.433 . S
C441 N443 1.384 1_455 S
N442 C438 1.427 . S
N442 C439 1.384 . S
N443 C435 1.427 . S
N443 C441 1.384 1_655 S
H444 C450 0.930 . S
H445 C454 0.930 . S
H446 C459 0.929 . S
H447 C457 0.929 . S
H448 C452 0.929 . S
H449 C458 0.929 . S
C450 H444 0.930 . S
C450 C451 1.367 . S
C450 C458 1.378 . S
C451 C450 1.367 . S
C451 C459 1.433 . S
C452 H448 0.929 . S
C452 C454 1.378 . S
C452 C456 1.350 . S
C453 C456 1.463 . S
C453 C458 1.350 . S
C453 N461 1.427 . S
C454 H445 0.930 . S
C454 C452 1.378 . S
C454 C455 1.367 . S
C455 C454 1.367 . S
C455 C457 1.433 . S
C456 C452 1.350 . S
C456 C453 1.463 . S
C456 N460 1.427 . S
C457 H447 0.929 . S
C457 C455 1.433 . S
C457 N460 1.384 . S
C458 H449 0.929 . S
C458 C450 1.378 . S
C458 C453 1.350 . S
C459 H446 0.929 . S
C459 C451 1.433 . S
C459 N461 1.384 . S
N460 C456 1.427 . S
N460 C457 1.384 . S
N461 C453 1.427 . S
N461 C459 1.384 . S
H462 C468 0.930 . S
H463 C472 0.930 . S
H464 C477 0.929 . S
H465 C475 0.929 . S
H466 C470 0.929 1_655 S
H467 C476 0.923 1_455 S
C468 H462 0.930 . S
C468 C469 1.367 . S
C468 C476 1.382 . S
C469 C468 1.367 . S
C469 C477 1.433 . S
C470 H466 0.929 1_455 S
C470 C472 1.378 . S
C470 C474 1.350 . S
C471 C474 1.463 1_655 S
C471 C476 1.351 . S
C471 N479 1.427 . S
C472 H463 0.930 . S
C472 C470 1.378 . S
C472 C473 1.367 . S
C473 C472 1.367 . S
C473 C475 1.433 . S
C474 C470 1.350 . S
C474 C471 1.463 1_455 S
C474 N478 1.427 . S
C475 H465 0.929 . S
C475 C473 1.433 . S
C475 N478 1.384 . S
C476 H467 0.923 1_655 S
C476 C468 1.382 . S
C476 C471 1.351 . S
C477 H464 0.929 . S
C477 C469 1.433 . S
C477 N479 1.384 . S
N478 C474 1.427 . S
N478 C475 1.384 . S
N479 C471 1.427 . S
N479 C477 1.384 . S
H480 C486 0.930 . S
H481 C490 0.930 . S
H482 C495 0.929 . S
H483 C493 0.929 . S
H484 C488 0.929 . S
H485 C494 0.929 . S
C486 H480 0.930 . S
C486 C487 1.367 . S
C486 C494 1.378 . S
C487 C486 1.367 . S
C487 C495 1.433 . S
C488 H484 0.929 . S
C488 C490 1.378 . S
C488 C492 1.350 . S
C489 C492 1.463 . S
C489 C494 1.350 . S
C489 N497 1.427 . S
C490 H481 0.930 . S
C490 C488 1.378 . S
C490 C491 1.367 . S
C491 C490 1.367 . S
C491 C493 1.433 . S
C492 C488 1.350 . S
C492 C489 1.463 . S
C492 N496 1.427 . S
C493 H483 0.929 . S
C493 C491 1.433 . S
C493 N496 1.384 . S
C494 H485 0.929 . S
C494 C486 1.378 . S
C494 C489 1.350 . S
C495 H482 0.929 . S
C495 C487 1.433 . S
C495 N497 1.384 . S
N496 C492 1.427 . S
N496 C493 1.384 . S
N497 C489 1.427 . S
N497 C495 1.384 . S
H498 C504 0.930 . S
H499 C508 0.930 . S
H500 C513 0.929 . S
H501 C511 0.929 . S
H502 C506 0.929 . S
H503 C512 0.929 . S
C504 H498 0.930 . S
C504 C505 1.367 . S
C504 C512 1.378 . S
C505 C504 1.367 . S
C505 C513 1.433 . S
C506 H502 0.929 . S
C506 C508 1.378 . S
C506 C510 1.350 . S
C507 C510 1.463 . S
C507 C512 1.350 . S
C507 N515 1.427 . S
C508 H499 0.930 . S
C508 C506 1.378 . S
C508 C509 1.367 . S
C509 C508 1.367 . S
C509 C511 1.433 . S
C510 C506 1.350 . S
C510 C507 1.463 . S
C510 N514 1.427 . S
C511 H501 0.929 . S
C511 C509 1.433 . S
C511 N514 1.384 . S
C512 H503 0.929 . S
C512 C504 1.378 . S
C512 C507 1.350 . S
C513 H500 0.929 . S
C513 C505 1.433 . S
C513 N515 1.384 . S
N514 C510 1.427 . S
N514 C511 1.384 . S
N515 C507 1.427 . S
N515 C513 1.384 . S
H516 C522 0.930 . S
H517 C526 0.930 . S
H518 C531 0.929 . S
H519 C529 0.929 . S
H520 C524 0.929 . S
H521 C530 0.929 . S
C522 H516 0.930 . S
C522 C523 1.367 . S
C522 C530 1.378 . S
C523 C522 1.367 . S
C523 C531 1.433 . S
C524 H520 0.929 . S
C524 C526 1.378 . S
C524 C528 1.350 . S
C525 C528 1.463 . S
C525 C530 1.350 . S
C525 N533 1.427 . S
C526 H517 0.930 . S
C526 C524 1.378 . S
C526 C527 1.367 . S
C527 C526 1.367 . S
C527 C529 1.433 . S
C528 C524 1.350 . S
C528 C525 1.463 . S
C528 N532 1.427 . S
C529 H519 0.929 . S
C529 C527 1.433 . S
C529 N532 1.384 . S
C530 H521 0.929 . S
C530 C522 1.378 . S
C530 C525 1.350 . S
C531 H518 0.929 . S
C531 C523 1.433 . S
C531 N533 1.384 . S
N532 C528 1.427 . S
N532 C529 1.384 . S
N533 C525 1.427 . S
N533 C531 1.384 . S
H534 C540 0.930 . S
H535 C544 0.930 . S
H536 C549 0.929 . S
H537 C547 0.929 . S
H538 C542 0.929 . S
H539 C548 0.929 . S
C540 H534 0.930 . S
C540 C541 1.367 . S
C540 C548 1.378 . S
C541 C540 1.367 . S
C541 C549 1.433 . S
C542 H538 0.929 . S
C542 C544 1.378 . S
C542 C546 1.350 . S
C543 C546 1.463 . S
C543 C548 1.350 . S
C543 N551 1.427 . S
C544 H535 0.930 . S
C544 C542 1.378 . S
C544 C545 1.367 . S
C545 C544 1.367 . S
C545 C547 1.433 . S
C546 C542 1.350 . S
C546 C543 1.463 . S
C546 N550 1.427 . S
C547 H537 0.929 . S
C547 C545 1.433 . S
C547 N550 1.384 . S
C548 H539 0.929 . S
C548 C540 1.378 . S
C548 C543 1.350 . S
C549 H536 0.929 . S
C549 C541 1.433 . S
C549 N551 1.384 . S
N550 C546 1.427 . S
N550 C547 1.384 . S
N551 C543 1.427 . S
N551 C549 1.384 . S
H552 C558 0.930 . S
H553 C562 0.930 . S
H554 C567 0.929 . S
H555 C565 0.929 . S
H556 C560 0.929 . S
H557 C566 0.929 . S
C558 H552 0.930 . S
C558 C559 1.367 . S
C558 C566 1.378 . S
C559 C558 1.367 . S
C559 C567 1.433 . S
C560 H556 0.929 . S
C560 C562 1.378 . S
C560 C564 1.350 . S
C561 C564 1.463 . S
C561 C566 1.350 . S
C561 N569 1.427 . S
C562 H553 0.930 . S
C562 C560 1.378 . S
C562 C563 1.367 . S
C563 C562 1.367 . S
C563 C565 1.433 . S
C564 C560 1.350 . S
C564 C561 1.463 . S
C564 N568 1.427 . S
C565 H555 0.929 . S
C565 C563 1.433 . S
C565 N568 1.384 . S
C566 H557 0.929 . S
C566 C558 1.378 . S
C566 C561 1.350 . S
C567 H554 0.929 . S
C567 C559 1.433 . S
C567 N569 1.384 . S
N568 C564 1.427 . S
N568 C565 1.384 . S
N569 C561 1.427 . S
N569 C567 1.384 . S
H570 C576 0.930 . S
H571 C580 0.930 . S
H572 C585 0.929 . S
H573 C583 0.929 . S
H574 C578 0.929 . S
H575 C584 0.929 . S
C576 H570 0.930 . S
C576 C577 1.367 . S
C576 C584 1.378 . S
C577 C576 1.367 . S
C577 C585 1.433 . S
C578 H574 0.929 . S
C578 C580 1.378 . S
C578 C582 1.350 . S
C579 C582 1.463 . S
C579 C584 1.350 . S
C579 N587 1.427 . S
C580 H571 0.930 . S
C580 C578 1.378 . S
C580 C581 1.367 . S
C581 C580 1.367 . S
C581 C583 1.433 . S
C582 C578 1.350 . S
C582 C579 1.463 . S
C582 N586 1.427 . S
C583 H573 0.929 . S
C583 C581 1.433 . S
C583 N586 1.384 . S
C584 H575 0.929 . S
C584 C576 1.378 . S
C584 C579 1.350 . S
C585 H572 0.929 . S
C585 C577 1.433 . S
C585 N587 1.384 . S
N586 C582 1.427 . S
N586 C583 1.384 . S
N587 C579 1.427 . S
N587 C585 1.384 . S
H588 C594 0.930 . S
H589 C598 0.930 . S
H590 C603 0.929 . S
H591 C601 0.929 . S
H592 C596 0.929 . S
H593 C602 0.929 . S
C594 H588 0.930 . S
C594 C595 1.367 . S
C594 C602 1.378 . S
C595 C594 1.367 . S
C595 C603 1.433 . S
C596 H592 0.929 . S
C596 C598 1.378 . S
C596 C600 1.350 . S
C597 C600 1.463 . S
C597 C602 1.350 . S
C597 N605 1.427 . S
C598 H589 0.930 . S
C598 C596 1.378 . S
C598 C599 1.367 . S
C599 C598 1.367 . S
C599 C601 1.433 . S
C600 C596 1.350 . S
C600 C597 1.463 . S
C600 N604 1.427 . S
C601 H591 0.929 . S
C601 C599 1.433 . S
C601 N604 1.384 . S
C602 H593 0.929 . S
C602 C594 1.378 . S
C602 C597 1.350 . S
C603 H590 0.929 . S
C603 C595 1.433 . S
C603 N605 1.384 . S
N604 C600 1.427 . S
N604 C601 1.384 . S
N605 C597 1.427 . S
N605 C603 1.384 . S
H606 C612 0.930 . S
H607 C616 0.930 . S
H608 C621 0.929 . S
H609 C619 0.929 . S
H610 C614 0.929 . S
H611 C620 0.929 . S
C612 H606 0.930 . S
C612 C613 1.367 . S
C612 C620 1.378 . S
C613 C612 1.367 . S
C613 C621 1.433 . S
C614 H610 0.929 . S
C614 C616 1.378 . S
C614 C618 1.350 . S
C615 C618 1.463 . S
C615 C620 1.350 . S
C615 N623 1.427 . S
C616 H607 0.930 . S
C616 C614 1.378 . S
C616 C617 1.367 . S
C617 C616 1.367 . S
C617 C619 1.433 . S
C618 C614 1.350 . S
C618 C615 1.463 . S
C618 N622 1.427 . S
C619 H609 0.929 . S
C619 C617 1.433 . S
C619 N622 1.384 . S
C620 H611 0.929 . S
C620 C612 1.378 . S
C620 C615 1.350 . S
C621 H608 0.929 . S
C621 C613 1.433 . S
C621 N623 1.384 . S
N622 C618 1.427 . S
N622 C619 1.384 . S
N623 C615 1.427 . S
N623 C621 1.384 . S
C199 C8 1.352 . S
C203 N93 1.365 . S
C217 C31 1.275 . S
C221 N106 1.300 . S
C235 C53 1.299 . S
C239 N115 1.333 . S
C257 N132 1.369 . S
C253 C74 1.346 . S
C275 N145 1.367 . S
C271 C26 1.342 . S
C289 C48 1.339 . S
C293 N154 1.371 . S
C307 C71 1.312 . S
C311 N167 1.330 . S
C325 C5 1.289 . S
C329 N184 1.297 . S
C343 C50 1.345 . S
C347 N180 1.367 . S
C365 N141 1.298 . S
C361 C70 1.273 . S
C383 N158 1.335 . S
C379 C4 1.314 . S
C397 C28 1.347 . S
C401 N171 1.371 . S
C419 N102 1.366 . S
C415 C73 1.350 . S
C433 C7 1.347 . S
C437 N119 1.372 . S
C455 N128 1.318 . S
C451 C30 1.302 . S
C473 N89 1.302 . S
C469 C52 1.272 . S
C491 N168 1.376 . S
C487 C9 1.370 . S
C509 N181 1.373 . S
C505 C29 1.365 . S
C523 C51 1.361 . S
C527 N142 1.371 . S
C545 N155 1.376 . S
C541 C75 1.373 . S
C563 N116 1.379 . S
C559 C27 1.371 . S
C577 C49 1.366 . S
C581 N129 1.372 . S
C599 N90 1.373 . S
C595 C72 1.357 . S
C617 N103 1.371 . S
C613 C6 1.355 . S
