# Generated by pormake.
# Topology pth, (4,4)-cn, num edge types: 1
# Building blocks:
#     Node 0, Type 0, BuildingBlock: AZAVOO_clean_sbu_0, # of connection points: 4
#     Node 1, Type 0, BuildingBlock: AZAVOO_clean_sbu_0, # of connection points: 4
#     Node 2, Type 0, BuildingBlock: AZAVOO_clean_sbu_0, # of connection points: 4
#     Node 3, Type 1, BuildingBlock: MIFKUJ_clean_linker_1, # of connection points: 4
#     Node 4, Type 1, BuildingBlock: MIFKUJ_clean_linker_1, # of connection points: 4
#     Node 5, Type 1, BuildingBlock: MIFKUJ_clean_linker_1, # of connection points: 4
#     Edge 6, Type (0, 1), BuildingBlock: XUDNAN_clean_linker_2, # of connection points: 2
#     Edge 7, Type (0, 1), BuildingBlock: XUDNAN_clean_linker_2, # of connection points: 2
#     Edge 8, Type (0, 1), BuildingBlock: XUDNAN_clean_linker_2, # of connection points: 2
#     Edge 9, Type (0, 1), BuildingBlock: XUDNAN_clean_linker_2, # of connection points: 2
#     Edge 10, Type (0, 1), BuildingBlock: XUDNAN_clean_linker_2, # of connection points: 2
#     Edge 11, Type (0, 1), BuildingBlock: XUDNAN_clean_linker_2, # of connection points: 2
#     Edge 12, Type (0, 1), BuildingBlock: XUDNAN_clean_linker_2, # of connection points: 2
#     Edge 13, Type (0, 1), BuildingBlock: XUDNAN_clean_linker_2, # of connection points: 2
#     Edge 14, Type (0, 1), BuildingBlock: XUDNAN_clean_linker_2, # of connection points: 2
#     Edge 15, Type (0, 1), BuildingBlock: XUDNAN_clean_linker_2, # of connection points: 2
#     Edge 16, Type (0, 1), BuildingBlock: XUDNAN_clean_linker_2, # of connection points: 2
#     Edge 17, Type (0, 1), BuildingBlock: XUDNAN_clean_linker_2, # of connection points: 2
# Relax obj value: 0.066
# Max RMSD: 0.212
# Mean RMSD: 0.113
data_MOF--net-pth--node1-AZAVOO_clean_sbu_0--node2-MIFKUJ_clean_linker_1--edge1-XUDNAN_clean_linker_2
_symmetry_space_group_name_H-M    P1
_symmetry_Int_Tables_number       1
_symmetry_cell_setting            triclinic
loop_
_symmetry_equiv_pos_as_xyz
'x, y, z'
_cell_length_a     29.480462
_cell_length_b     30.036611
_cell_length_c     63.109792
_cell_angle_alpha  91.169796
_cell_angle_beta   92.273263
_cell_angle_gamma 122.02262
loop_
_atom_site_label
_atom_site_type_symbol
_atom_site_fract_x
_atom_site_fract_y
_atom_site_fract_z
_atom_type_partial_charge
Mg0 Mg 0.08891 0.07611 0.03716 0.0
O1 O 0.02121 0.01426 0.01454 0.0
O2 O 0.00055 0.05225 0.98917 0.0
Mg3 Mg 0.05979 0.14116 -0.0048 0.0
C4 C 0.9934 0.01132 -0.00202 0.0
C5 C 0.09752 0.00333 0.07112 0.0
O6 O 0.14933 0.035 0.06938 0.0
O7 O 0.03586 0.10041 0.05222 0.0
O8 O 0.02214 0.14264 0.02636 0.0
O9 O 0.14797 0.07475 0.01657 0.0
O10 O 0.11864 0.12848 0.0128 0.0
C11 C 0.01638 0.12684 0.04528 0.0
C12 C 0.14759 0.11129 0.00614 0.0
O13 O 0.06517 0.01137 0.06053 0.0
Mg14 Mg 0.97526 0.02322 0.3586 0.0
O15 O 0.05316 0.05364 0.3798 0.0
O16 O 0.07151 0.12973 0.39517 0.0
Mg17 Mg 0.00739 0.14715 0.3856 0.0
C18 C 0.08267 0.0945 0.39209 0.0
C19 C 0.9448 0.92996 0.32898 0.0
O20 O 0.90208 0.93318 0.32932 0.0
O21 O 0.02014 0.08571 0.33433 0.0
O22 O 0.03388 0.15822 0.35156 0.0
O23 O 0.92408 0.98038 0.38577 0.0
O24 O 0.9531 0.0627 0.37887 0.0
C25 C 0.0374 0.13475 0.33523 0.0
C26 C 0.92805 0.02424 0.39104 0.0
O27 O 0.98642 0.96338 0.34027 0.0
Mg28 Mg -0.00411 0.0029 0.6884 0.0
O29 O 0.04983 0.07447 0.71216 0.0
O30 O 0.9909 0.08228 0.73072 0.0
Mg31 Mg 0.90475 0.02334 0.71928 0.0
C32 C 0.03893 0.09645 0.72704 0.0
C33 C 0.04821 0.98107 0.65406 0.0
O34 O -0.00253 0.94295 0.65356 0.0
O35 O 0.97527 0.05142 0.66723 0.0
O36 O 0.91862 0.06003 0.68693 0.0
O37 O 0.9916 0.94748 0.71286 0.0
O38 O 0.93505 0.97428 0.70935 0.0
C39 C 0.94397 0.068 0.6701 0.0
C40 C 0.95165 0.94887 0.71984 0.0
O41 O 0.06507 0.01826 0.66812 0.0
H42 H 0.09583 0.49696 0.1564 0.0
H43 H 0.07799 0.42195 0.1331 0.0
H44 H 0.92294 0.32621 0.15875 0.0
H45 H 0.94148 0.40056 0.18241 0.0
H46 H 0.02831 0.5426 0.15866 0.0
H47 H 0.11119 0.47772 0.20114 0.0
H48 H 0.12518 0.4132 0.21808 0.0
H49 H 0.98613 0.36406 0.25429 0.0
H50 H 0.97158 0.42802 0.23687 0.0
H51 H 0.94636 0.54754 0.23637 0.0
H52 H 0.92603 0.60435 0.25658 0.0
H53 H 0.06991 0.74122 0.23646 0.0
H54 H 0.09071 0.68381 0.21642 0.0
H55 H 0.03098 0.53285 0.23706 0.0
H56 H 0.95446 0.60777 0.18967 0.0
H57 H 0.95488 0.67912 0.17163 0.0
H58 H 0.10135 0.71735 0.14286 0.0
H59 H 0.10229 0.64812 0.16198 0.0
C60 C 0.02002 0.45411 0.17112 0.0
C61 C 0.05821 0.4597 0.15706 0.0
C62 C 0.04811 0.41695 0.14389 0.0
C63 C -0.00088 0.36855 0.14422 0.0
C64 C 0.96091 0.36319 0.15822 0.0
C65 C 0.9715 0.4055 0.17171 0.0
C66 C 0.0296 0.49896 0.18502 0.0
C67 C 0.03003 0.54123 0.17582 0.0
C68 C 0.03246 0.49718 0.20732 0.0
C69 C 0.04007 0.45742 0.21762 0.0
C70 C 0.08329 0.45261 0.21254 0.0
C71 C 0.09153 0.41602 0.22235 0.0
C72 C 0.05673 0.38348 0.23749 0.0
C73 C 0.01323 0.3881 0.24248 0.0
C74 C 0.00513 0.42494 0.2327 0.0
C75 C 0.0197 0.61138 0.22468 0.0
C76 C 0.97406 0.58974 0.23656 0.0
C77 C 0.96225 0.62227 0.24797 0.0
C78 C -0.00401 0.67726 0.24787 0.0
C79 C 0.04322 0.69899 0.23685 0.0
C80 C 0.05497 0.66627 0.22532 0.0
C81 C 0.02767 0.57592 0.21073 0.0
C82 C 0.03026 0.535 0.21993 0.0
C83 C 0.0294 0.58006 0.18839 0.0
C84 C 0.02888 0.62316 0.17749 0.0
C85 C 0.98716 0.63216 0.17978 0.0
C86 C 0.98712 0.67262 0.16921 0.0
C87 C 0.02825 0.70427 0.15578 0.0
C88 C 0.06962 0.69465 0.15338 0.0
C89 C 0.06993 0.65463 0.16414 0.0
H90 H 0.62724 0.12396 0.48665 0.0
H91 H 0.70196 0.12565 0.47001 0.0
H92 H 0.65355 0.97491 0.49504 0.0
H93 H 0.57923 0.97358 0.51174 0.0
H94 H 0.51573 0.05355 0.48329 0.0
H95 H 0.65307 0.13637 0.53533 0.0
H96 H 0.73416 0.15604 0.55589 0.0
H97 H 0.6463 0.00336 0.58265 0.0
H98 H 0.56489 0.98371 0.56185 0.0
H99 H 0.39796 0.95353 0.55268 0.0
H100 H 0.31973 0.93744 0.57122 0.0
H101 H 0.35648 0.09329 0.55789 0.0
H102 H 0.43518 0.10925 0.53923 0.0
H103 H 0.50955 0.03843 0.56146 0.0
H104 H 0.36138 0.98107 0.50516 0.0
H105 H 0.29893 -0.00234 0.48524 0.0
H106 H 0.43273 0.1458 0.46681 0.0
H107 H 0.49426 0.13001 0.48721 0.0
C108 C 0.59791 0.04874 0.50043 0.0
C109 C 0.63249 0.09112 0.48836 0.0
C110 C 0.67528 0.0922 0.47903 0.0
C111 C 0.68355 0.05049 0.48136 0.0
C112 C 0.6479 0.0074 0.49294 0.0
C113 C 0.60563 0.0067 0.5025 0.0
C114 C 0.5552 0.04915 0.51185 0.0
C115 C 0.51424 0.05034 0.50038 0.0
C116 C 0.55477 0.04744 0.53416 0.0
C117 C 0.60309 0.05851 0.54704 0.0
C118 C 0.65129 0.10703 0.54558 0.0
C119 C 0.69751 0.11832 0.55737 0.0
C120 C 0.69653 0.08121 0.57082 0.0
C121 C 0.64827 0.03246 0.57222 0.0
C122 C 0.60173 0.02135 0.56053 0.0
C123 C 0.42197 0.03232 0.54442 0.0
C124 C 0.3893 0.98431 0.5538 0.0
C125 C 0.34454 0.97511 0.5643 0.0
C126 C 0.33188 0.01401 0.56586 0.0
C127 C 0.36547 0.06273 0.55697 0.0
C128 C 0.41012 0.07175 0.54623 0.0
C129 C 0.46823 0.04031 0.53281 0.0
C130 C 0.51033 0.04086 0.54433 0.0
C131 C 0.47126 0.04727 0.51064 0.0
C132 C 0.43248 0.05471 0.49796 0.0
C133 C 0.3771 0.01723 0.49692 0.0
C134 C 0.34153 0.0265 0.48536 0.0
C135 C 0.36085 0.07331 0.47463 0.0
C136 C 0.41641 0.10984 0.47523 0.0
C137 C 0.45172 0.10066 0.48676 0.0
H138 H 0.4893 0.42267 0.81566 0.0
H139 H 0.40591 0.3537 0.79677 0.0
H140 H 0.31724 0.4039 0.83253 0.0
H141 H 0.40003 0.47067 0.85181 0.0
H142 H 0.53844 0.53479 0.82139 0.0
H143 H 0.46658 0.38226 0.86092 0.0
H144 H 0.40138 0.30573 0.87944 0.0
H145 H 0.38809 0.40797 0.92456 0.0
H146 H 0.45094 0.48405 0.90519 0.0
H147 H 0.63165 0.67674 0.87246 0.0
H148 H 0.7069 0.74637 0.89411 0.0
H149 H 0.7184 0.6294 0.92873 0.0
H150 H 0.64784 0.56071 0.90518 0.0
H151 H 0.55098 0.52387 0.89955 0.0
H152 H 0.57856 0.6419 0.82651 0.0
H153 H 0.65033 0.71752 0.80933 0.0
H154 H 0.76301 0.676 0.83148 0.0
H155 H 0.69101 0.60053 0.84897 0.0
C156 C 0.45057 0.45109 0.83534 0.0
C157 C 0.45179 0.41882 0.81925 0.0
C158 C 0.40413 0.37961 0.80842 0.0
C159 C 0.35462 0.37257 0.81335 0.0
C160 C 0.3543 0.40703 0.82873 0.0
C161 C 0.40165 0.44555 0.83968 0.0
C162 C 0.4998 0.48948 0.84827 0.0
C163 C 0.54148 0.53227 0.83846 0.0
C164 C 0.504 0.48566 0.87048 0.0
C165 C 0.46327 0.43898 0.88148 0.0
C166 C 0.44876 0.38814 0.87453 0.0
C167 C 0.41197 0.34438 0.88533 0.0
C168 C 0.38944 0.35055 0.90355 0.0
C169 C 0.40389 0.40155 0.91041 0.0
C170 C 0.44033 0.44524 0.89948 0.0
C171 C 0.63479 0.61318 0.8866 0.0
C172 C 0.65153 0.66611 0.88423 0.0
C173 C 0.69407 0.70613 0.8971 0.0
C174 C 0.7197 0.69421 0.91331 0.0
C175 C 0.70137 0.6409 0.9161 0.0
C176 C 0.66008 0.60112 0.90278 0.0
C177 C 0.58978 0.57018 0.87282 0.0
C178 C 0.54854 0.52635 0.88247 0.0
C179 C 0.58665 0.57229 0.85042 0.0
C180 C 0.62965 0.61594 0.83907 0.0
C181 C 0.61863 0.64889 0.82755 0.0
C182 C 0.65962 0.69217 0.8179 0.0
C183 C 0.71209 0.70259 0.81927 0.0
C184 C 0.72282 0.66865 0.83024 0.0
C185 C 0.68189 0.62577 0.84021 0.0
H186 H 0.06043 0.17229 0.08424 0.0
H187 H 0.92815 0.1341 0.03947 0.0
H188 H 0.903 0.18454 0.06249 0.0
H189 H -0.00094 0.178 0.13411 0.0
H190 H 0.06141 0.23426 0.14478 0.0
H191 H 0.06183 0.18644 0.12719 0.0
H192 H 0.12254 0.26056 0.10256 0.0
H193 H 0.12175 0.30843 0.11986 0.0
H194 H 0.10062 0.30202 0.09218 0.0
H195 H 0.89739 0.24544 0.08882 0.0
H196 H 0.91505 0.31635 0.11495 0.0
H197 H 0.05657 0.32155 0.14037 0.0
C198 C 0.02484 0.1728 0.07978 0.0
C199 C -0.0049 0.14813 0.06047 0.0
C200 C 0.95055 0.15186 0.05447 0.0
C201 C 0.93609 0.18039 0.06744 0.0
C202 C 0.96728 0.2057 0.08611 0.0
C203 C 0.01093 0.20237 0.09221 0.0
C204 C 0.04227 0.23887 0.11134 0.0
C205 C 0.04104 0.20751 0.13049 0.0
C206 C 0.1002 0.27988 0.10616 0.0
C207 C 0.01017 0.26412 0.1148 0.0
C208 C 0.96635 0.24358 0.10041 0.0
C209 C 0.93137 0.26153 0.10024 0.0
C210 C 0.94166 0.30173 0.11508 0.0
C211 C 0.98716 0.32421 0.12951 0.0
C212 C 0.02161 0.30496 0.12941 0.0
H213 H 0.82876 0.95614 0.40504 0.0
H214 H 0.97377 0.10826 0.41928 0.0
H215 H 0.92867 0.12802 0.44664 0.0
H216 H 0.74129 -0.00192 0.40763 0.0
H217 H 0.68847 0.94158 0.41987 0.0
H218 H 0.73414 0.93489 0.40406 0.0
H219 H 0.75908 0.89654 0.43562 0.0
H220 H 0.71282 0.9024 0.45149 0.0
H221 H 0.78195 0.93274 0.46091 0.0
H222 H 0.86507 0.1369 0.46823 0.0
H223 H 0.78785 0.13191 0.48463 0.0
H224 H 0.68342 0.9738 0.45696 0.0
C225 C 0.85141 0.99269 0.41452 0.0
C226 C 0.9046 0.03082 0.41011 0.0
C227 C 0.93277 0.0789 0.4223 0.0
C228 C 0.9076 0.09028 0.43797 0.0
C229 C 0.8543 0.05297 0.44131 0.0
C230 C 0.82662 0.00479 0.43018 0.0
C231 C 0.76826 0.97379 0.43551 0.0
C232 C 0.73087 0.96139 0.41558 0.0
C233 C 0.75475 0.92338 0.44654 0.0
C234 C 0.76716 0.01286 0.45073 0.0
C235 C 0.81736 0.05806 0.454 0.0
C236 C 0.82575 0.10135 0.46613 0.0
C237 C 0.78167 0.09838 0.47521 0.0
C238 C 0.72991 0.05246 0.47209 0.0
C239 C 0.72279 0.00902 0.45987 0.0
H240 H 0.92496 0.85192 0.73269 0.0
H241 H 0.9216 0.9899 0.75108 0.0
H242 H 0.86777 0.9442 0.78124 0.0
H243 H 0.79339 0.76097 0.74196 0.0
H244 H 0.80411 0.71158 0.75232 0.0
H245 H 0.84969 0.75747 0.73422 0.0
H246 H 0.92944 0.78607 0.76153 0.0
H247 H 0.88406 0.73987 0.77972 0.0
H248 H 0.92738 0.8083 0.78802 0.0
H249 H 0.80466 0.88079 0.80597 0.0
H250 H 0.73788 0.80359 0.8247 0.0
H251 H 0.78205 0.70599 0.7911 0.0
C252 C 0.91418 0.87285 0.7435 0.0
C253 C 0.92694 0.9242 0.73956 0.0
C254 C 0.91131 0.95022 0.75364 0.0
C255 C 0.88123 0.92476 0.77095 0.0
C256 C 0.86739 0.87337 0.774 0.0
C257 C 0.8837 0.84772 0.76083 0.0
C258 C 0.85908 0.79091 0.7665 0.0
C259 C 0.82452 0.75303 0.74763 0.0
C260 C 0.9026 0.7807 0.77442 0.0
C261 C 0.82493 0.78825 0.78436 0.0
C262 C 0.8309 0.83648 0.78857 0.0
C263 C 0.80038 0.84305 0.80314 0.0
C264 C 0.76239 0.79905 0.81358 0.0
C265 C 0.75532 0.74923 0.80939 0.0
C266 C 0.7876 0.74398 0.79486 0.0
H267 H 0.15471 0.97476 0.09681 0.0
H268 H 0.99254 0.92628 0.07511 0.0
H269 H 0.95711 0.84653 0.09557 0.0
H270 H 0.13602 0.84813 0.09419 0.0
H271 H 0.17758 0.85878 0.11783 0.0
H272 H 0.19037 0.91358 0.10237 0.0
H273 H 0.18235 0.96041 0.13565 0.0
H274 H 0.16974 0.9058 0.15124 0.0
H275 H 0.12272 0.92685 0.15031 0.0
H276 H 0.93943 0.76954 0.1166 0.0
H277 H 0.94069 0.70158 0.13737 0.0
H278 H 0.11395 0.80162 0.14668 0.0
C279 C 0.11172 0.94764 0.0965 0.0
C280 C 0.07646 0.95688 0.08433 0.0
C281 C 0.02044 0.92022 0.08433 0.0
C282 C -0.00014 0.87474 0.0959 0.0
C283 C 0.03572 0.86658 0.10754 0.0
C284 C 0.09043 0.90211 0.10806 0.0
C285 C 0.12025 0.88334 0.1215 0.0
C286 C 0.15829 0.87549 0.10817 0.0
C287 C 0.15054 0.92137 0.14082 0.0
C288 C 0.07381 0.83132 0.12814 0.0
C289 C 0.02541 0.82248 0.11997 0.0
C290 C 0.97704 0.77631 0.12333 0.0
C291 C 0.97817 0.73804 0.13529 0.0
C292 C 0.02736 0.74613 0.14385 0.0
C293 C 0.07566 0.79379 0.14027 0.0
H294 H 0.10936 0.02016 0.39911 0.0
H295 H 0.16412 0.18428 0.41233 0.0
H296 H 0.2405 0.19582 0.43439 0.0
H297 H 0.14229 0.9964 0.45092 0.0
H298 H 0.1646 0.95414 0.44197 0.0
H299 H 0.11499 0.95843 0.42613 0.0
H300 H 0.17444 0.9844 0.39392 0.0
H301 H 0.22406 0.97975 0.40961 0.0
H302 H 0.24263 0.0397 0.39676 0.0
H303 H 0.30842 0.18982 0.4561 0.0
H304 H 0.36693 0.1671 0.4755 0.0
H305 H 0.27049 0.00712 0.44854 0.0
C306 C 0.13782 0.05865 0.40642 0.0
C307 C 0.13057 0.10129 0.40395 0.0
C308 C 0.16849 0.1509 0.414 0.0
C309 C 0.21216 0.15796 0.42658 0.0
C310 C 0.21758 0.11508 0.42902 0.0
C311 C 0.18179 0.06644 0.41918 0.0
C312 C 0.19675 0.02679 0.42496 0.0
C313 C 0.15199 0.98125 0.43669 0.0
C314 C 0.21028 0.00647 0.40513 0.0
C315 C 0.24624 0.06084 0.43964 0.0
C316 C 0.25739 0.11161 0.44167 0.0
C317 C 0.3005 0.15033 0.45449 0.0
C318 C 0.33364 0.13707 0.46538 0.0
C319 C 0.32372 0.0855 0.46339 0.0
C320 C 0.27903 0.0468 0.45045 0.0
H321 H 0.14709 0.16737 0.72106 0.0
H322 H 0.02728 0.11286 0.76815 0.0
H323 H 0.09542 0.17528 0.79488 0.0
H324 H 0.25818 0.19025 0.75675 0.0
H325 H 0.30733 0.24971 0.74486 0.0
H326 H 0.24978 0.1993 0.72903 0.0
H327 H 0.22512 0.26709 0.71844 0.0
H328 H 0.28267 0.31771 0.73418 0.0
H329 H 0.21684 0.30454 0.73891 0.0
H330 H 0.1744 0.24089 0.81682 0.0
H331 H 0.261 0.31213 0.8327 0.0
H332 H 0.33149 0.33096 0.77177 0.0
C333 C 0.13546 0.16861 0.73702 0.0
C334 C 0.08173 0.13528 0.74246 0.0
C335 C 0.06795 0.13829 0.76348 0.0
C336 C 0.10644 0.17343 0.77888 0.0
C337 C 0.15874 0.20588 0.77307 0.0
C338 C 0.17354 0.2044 0.75268 0.0
C339 C 0.23255 0.24557 0.75078 0.0
C340 C 0.2638 0.21964 0.74501 0.0
C341 C 0.2397 0.28613 0.73462 0.0
C342 C 0.24815 0.26997 0.77328 0.0
C343 C 0.20481 0.24591 0.78581 0.0
C344 C 0.20862 0.26059 0.80715 0.0
C345 C 0.25802 0.30153 0.81598 0.0
C346 C 0.30309 0.3281 0.80346 0.0
C347 C 0.29799 0.31155 0.78181 0.0
H348 H 0.89327 0.01708 0.63279 0.0
H349 H 0.95421 0.16332 0.66928 0.0
H350 H 0.90665 0.18865 0.64383 0.0
H351 H 0.88425 0.06485 0.57821 0.0
H352 H 0.82177 0.00414 0.57133 0.0
H353 H 0.87184 0.00425 0.58873 0.0
H354 H 0.80153 0.95916 0.61691 0.0
H355 H 0.75164 0.95987 0.59988 0.0
H356 H 0.76726 0.99005 0.62631 0.0
H357 H 0.84174 0.19146 0.61824 0.0
H358 H 0.76336 0.17136 0.59484 0.0
H359 H 0.73915 0.01997 0.57647 0.0
C360 C 0.89884 0.05564 0.63464 0.0
C361 C 0.92879 0.08932 0.6524 0.0
C362 C 0.93271 0.13801 0.65531 0.0
C363 C 0.90573 0.15252 0.64099 0.0
C364 C 0.87442 0.11741 0.62408 0.0
C365 C 0.87097 0.06998 0.62078 0.0
C366 C 0.82806 0.03568 0.60362 0.0
C367 C 0.85298 0.02672 0.58432 0.0
C368 C 0.78458 0.98312 0.61221 0.0
C369 C 0.80639 0.0702 0.59842 0.0
C370 C 0.83457 0.11769 0.61 0.0
C371 C 0.82002 0.15482 0.60881 0.0
C372 C 0.77544 0.14305 0.5955 0.0
C373 C 0.74536 0.09419 0.58384 0.0
C374 C 0.76145 0.0576 0.58522 0.0
H375 H 0.90049 0.97896 0.97346 0.0
H376 H 0.00123 0.92525 -0.00092 0.0
H377 H 0.94262 0.83906 0.98019 0.0
H378 H 0.77419 0.85342 0.97799 0.0
H379 H 0.74357 0.85998 0.95394 0.0
H380 H 0.79362 0.91778 0.96943 0.0
H381 H 0.84934 0.95315 0.93628 0.0
H382 H 0.79969 0.89524 0.92076 0.0
H383 H 0.86863 0.91325 0.92236 0.0
H384 H 0.87818 0.76188 0.95627 0.0
H385 H 0.80547 0.69394 0.9324 0.0
H386 H 0.73919 0.79276 0.92557 0.0
C387 C 0.90994 0.9489 0.97515 0.0
C388 C 0.9555 0.95883 0.98768 0.0
C389 C 0.96638 0.91842 0.98966 0.0
C390 C 0.93351 0.86941 0.97891 0.0
C391 C 0.88926 0.86099 0.96653 0.0
C392 C 0.87672 0.89913 0.9649 0.0
C393 C 0.82571 0.879 0.95104 0.0
C394 C 0.78166 0.87745 0.96387 0.0
C395 C 0.83652 0.91214 0.93145 0.0
C396 C 0.81225 0.82402 0.94487 0.0
C397 C 0.84981 0.8148 0.9538 0.0
C398 C 0.84771 0.76809 0.94958 0.0
C399 C 0.80566 0.72936 0.93608 0.0
C400 C 0.7652 0.73678 0.92722 0.0
C401 C 0.76908 0.78521 0.93178 0.0
H402 H 0.02739 0.91377 0.3221 0.0
H403 H 0.85922 0.85155 0.30524 0.0
H404 H 0.85526 0.78191 0.28257 0.0
H405 H 0.06076 0.88918 0.27031 0.0
H406 H 0.10601 0.87065 0.28066 0.0
H407 H 0.09637 0.91627 0.29576 0.0
H408 H 0.06996 0.8565 0.3278 0.0
H409 H 0.07962 0.81077 0.31282 0.0
H410 H 0.01636 0.78848 0.32425 0.0
H411 H 0.86809 0.71857 0.26211 0.0
H412 H 0.89751 0.66468 0.24471 0.0
H413 H 0.05764 0.76666 0.27409 0.0
C414 C 0.98977 0.88548 0.31364 0.0
C415 C 0.94358 0.88823 0.31551 0.0
C416 C 0.89517 0.85044 0.30412 0.0
C417 C 0.89245 0.81064 0.29116 0.0
C418 C 0.93851 0.80904 0.28964 0.0
C419 C 0.98632 0.84534 0.30051 0.0
C420 C 0.02974 0.83425 0.29598 0.0
C421 C 0.07595 0.88034 0.28502 0.0
C422 C 0.05011 0.82175 0.31643 0.0
C423 C -0.00135 0.78598 0.28096 0.0
C424 C 0.94609 0.77225 0.2776 0.0
C425 C 0.90913 0.72883 0.26463 0.0
C426 C 0.92615 0.6983 0.25491 0.0
C427 C 0.97972 0.71122 0.25815 0.0
C428 C 0.01653 0.75601 0.27123 0.0
H429 H 0.15546 0.05467 0.64866 0.0
H430 H 0.02152 0.90269 0.62446 0.0
H431 H 0.07888 0.89674 0.59886 0.0
H432 H 0.21264 0.10028 0.59753 0.0
H433 H 0.28106 0.13295 0.60817 0.0
H434 H 0.22946 0.12649 0.62461 0.0
H435 H 0.25561 0.08085 0.65263 0.0
H436 H 0.30731 0.08726 0.6363 0.0
H437 H 0.25675 0.02346 0.64469 0.0
H438 H 0.14992 0.90473 0.57669 0.0
H439 H 0.23182 0.92724 0.55876 0.0
H440 H 0.32094 0.07455 0.59626 0.0
C441 C 0.13824 0.02027 0.63792 0.0
C442 C 0.08387 0.97915 0.63863 0.0
C443 C 0.06292 0.93478 0.62429 0.0
C444 C 0.09519 0.93096 0.60962 0.0
C445 C 0.14842 0.97192 0.60934 0.0
C446 C 0.16998 0.01584 0.62302 0.0
C447 C 0.22883 0.05383 0.61938 0.0
C448 C 0.23855 0.10651 0.61198 0.0
C449 C 0.2642 0.0618 0.63944 0.0
C450 C 0.23685 0.024 0.60172 0.0
C451 C 0.18979 0.97687 0.59622 0.0
C452 C 0.18703 0.94161 0.58078 0.0
C453 C 0.23375 0.95461 0.57075 0.0
C454 C 0.28262 0.00252 0.57614 0.0
C455 C 0.28397 0.0379 0.59169 0.0
H456 H 0.15943 0.19278 0.98322 0.0
H457 H 0.21234 0.08306 0.98799 0.0
H458 H 0.2752 0.12818 0.95989 0.0
H459 H 0.17039 0.2078 0.92523 0.0
H460 H 0.19381 0.27671 0.92783 0.0
H461 H 0.14891 0.232 0.94651 0.0
H462 H 0.2168 0.28983 0.97752 0.0
H463 H 0.26208 0.33437 0.95898 0.0
H464 H 0.28453 0.30436 0.97762 0.0
H465 H 0.33864 0.19088 0.93402 0.0
H466 H 0.39639 0.26489 0.91197 0.0
H467 H 0.29998 0.33207 0.92346 0.0
C468 C 0.18325 0.17737 0.97803 0.0
C469 C 0.18072 0.13415 0.98772 0.0
C470 C 0.21338 0.11591 0.98072 0.0
C471 C 0.24917 0.14127 0.96476 0.0
C472 C 0.2515 0.18452 0.95589 0.0
C473 C 0.21906 0.20213 0.96216 0.0
C474 C 0.23159 0.25138 0.95112 0.0
C475 C 0.1833 0.24135 0.93682 0.0
C476 C 0.24984 0.2977 0.96728 0.0
C477 C 0.27722 0.25963 0.9381 0.0
C478 C 0.28781 0.22043 0.94091 0.0
C479 C 0.33008 0.22128 0.9314 0.0
C480 C 0.36255 0.26343 0.9188 0.0
C481 C 0.35268 0.30432 0.91582 0.0
C482 C 0.30892 0.30174 0.92547 0.0
H483 H 0.97411 0.13074 0.30241 0.0
H484 H 0.1391 0.21083 0.32705 0.0
H485 H 0.16469 0.27772 0.30008 0.0
H486 H 0.00018 0.1665 0.24463 0.0
H487 H 0.94465 0.17587 0.24255 0.0
H488 H 0.94221 0.12745 0.25971 0.0
H489 H 0.92383 0.17123 0.29121 0.0
H490 H 0.9273 0.22031 0.27437 0.0
H491 H 0.97047 0.23996 0.29821 0.0
H492 H 0.16923 0.34307 0.275 0.0
H493 H 0.15288 0.40214 0.25399 0.0
H494 H 0.98359 0.2815 0.24675 0.0
C495 C 0.01602 0.1608 0.30125 0.0
C496 C 0.05518 0.1649 0.31609 0.0
C497 C 0.10914 0.20636 0.31521 0.0
C498 C 0.12385 0.2445 0.30003 0.0
C499 C 0.08387 0.24069 0.28607 0.0
C500 C 0.03102 0.19962 0.28645 0.0
C501 C 0.9945 0.20878 0.27214 0.0
C502 C 0.96889 0.16718 0.25366 0.0
C503 C 0.95154 0.21016 0.28474 0.0
C504 C 0.0346 0.26239 0.26439 0.0
C505 C 0.08607 0.2796 0.27221 0.0
C506 C 0.12929 0.32953 0.26842 0.0
C507 C 0.11961 0.36281 0.25645 0.0
C508 C 0.067 0.34633 0.24865 0.0
C509 C 0.02422 0.29517 0.2525 0.0
loop_
_geom_bond_atom_site_label_1
_geom_bond_atom_site_label_2
_geom_bond_distance
_geom_bond_site_symmetry_2
_ccdc_geom_bond_type
Mg0 O1 2.028 . S
Mg0 O7 1.986 . S
Mg0 O9 2.114 . S
Mg0 O10 2.251 . S
Mg0 O13 2.010 . S
O1 Mg0 2.028 . S
O1 C4 1.250 1_455 S
O2 Mg3 2.028 1_655 S
O2 C4 1.248 . S
Mg3 O2 2.028 1_455 S
Mg3 O8 2.032 . S
Mg3 O10 2.079 . S
C4 O1 1.250 1_655 S
C4 O2 1.248 . S
C5 O6 1.264 . S
C5 O13 1.249 1_565 S
O6 C5 1.264 . S
O7 Mg0 1.986 . S
O7 C11 1.246 . S
O8 Mg3 2.032 . S
O8 C11 1.259 . S
O9 Mg0 2.114 . S
O9 C12 1.252 . S
O10 Mg0 2.251 . S
O10 Mg3 2.079 . S
O10 C12 1.273 . S
C11 O7 1.246 . S
C11 O8 1.259 . S
C12 O9 1.252 . S
C12 O10 1.273 . S
O13 Mg0 2.010 . S
O13 C5 1.249 1_545 S
Mg14 O15 2.028 1_655 S
Mg14 O21 1.986 1_655 S
Mg14 O23 2.114 1_545 S
Mg14 O24 2.251 . S
Mg14 O27 2.010 1_545 S
O15 Mg14 2.028 1_455 S
O15 C18 1.250 . S
O16 Mg17 2.028 . S
O16 C18 1.248 . S
Mg17 O16 2.028 . S
Mg17 O22 2.032 . S
Mg17 O24 2.079 1_455 S
C18 O15 1.250 . S
C18 O16 1.248 . S
C19 O20 1.264 . S
C19 O27 1.249 . S
O20 C19 1.264 . S
O21 Mg14 1.986 1_455 S
O21 C25 1.246 . S
O22 Mg17 2.032 . S
O22 C25 1.259 . S
O23 Mg14 2.114 1_565 S
O23 C26 1.252 1_565 S
O24 Mg14 2.251 . S
O24 Mg17 2.079 1_655 S
O24 C26 1.273 . S
C25 O21 1.246 . S
C25 O22 1.259 . S
C26 O23 1.252 1_545 S
C26 O24 1.273 . S
O27 Mg14 2.010 1_565 S
O27 C19 1.249 . S
Mg28 O29 2.028 . S
Mg28 O35 1.986 1_455 S
Mg28 O37 2.114 1_545 S
Mg28 O38 2.251 1_445 S
Mg28 O41 2.010 1_545 S
O29 Mg28 2.028 . S
O29 C32 1.250 . S
O30 Mg31 2.028 1_455 S
O30 C32 1.248 . S
Mg31 O30 2.028 1_655 S
Mg31 O36 2.032 . S
Mg31 O38 2.079 1_545 S
C32 O29 1.250 . S
C32 O30 1.248 . S
C33 O34 1.264 . S
C33 O41 1.249 . S
O34 C33 1.264 . S
O35 Mg28 1.986 1_655 S
O35 C39 1.246 . S
O36 Mg31 2.032 . S
O36 C39 1.259 . S
O37 Mg28 2.114 1_565 S
O37 C40 1.252 1_455 S
O38 Mg28 2.251 1_665 S
O38 Mg31 2.079 1_565 S
O38 C40 1.273 . S
C39 O35 1.246 . S
C39 O36 1.259 . S
C40 O37 1.252 1_655 S
C40 O38 1.273 . S
O41 Mg28 2.010 1_565 S
O41 C33 1.249 . S
H42 C61 0.949 . S
H43 C62 0.950 . S
H44 C64 0.950 . S
H45 C65 0.950 . S
H46 C67 0.950 . S
H47 C70 0.950 . S
H48 C71 0.950 . S
H49 C73 0.951 . S
H50 C74 0.949 . S
H51 C76 0.949 . S
H52 C77 0.950 . S
H53 C79 0.950 . S
H54 C80 0.950 . S
H55 C82 0.950 . S
H56 C85 0.950 1_655 S
H57 C86 0.950 1_655 S
H58 C88 0.951 . S
H59 C89 0.949 . S
C60 C61 1.376 . S
C60 C65 1.386 1_455 S
C60 C66 1.483 . S
C61 H42 0.949 . S
C61 C60 1.376 . S
C61 C62 1.397 . S
C62 H43 0.950 . S
C62 C61 1.397 . S
C62 C63 1.391 . S
C63 C62 1.391 . S
C63 C64 1.405 1_455 S
C64 H44 0.950 . S
C64 C63 1.405 1_655 S
C64 C65 1.367 . S
C65 H45 0.950 . S
C65 C60 1.386 1_655 S
C65 C64 1.367 . S
C66 C60 1.483 . S
C66 C67 1.382 . S
C66 C68 1.403 . S
C67 H46 0.950 . S
C67 C66 1.382 . S
C67 C83 1.411 . S
C68 C66 1.403 . S
C68 C69 1.489 . S
C68 C82 1.411 . S
C69 C68 1.489 . S
C69 C70 1.383 . S
C69 C74 1.382 1_455 S
C70 H47 0.950 . S
C70 C69 1.383 . S
C70 C71 1.395 . S
C71 H48 0.950 . S
C71 C70 1.395 . S
C71 C72 1.288 . S
C72 C71 1.288 . S
C72 C73 1.392 1_455 S
C73 H49 0.951 . S
C73 C72 1.392 1_655 S
C73 C74 1.392 . S
C74 H50 0.949 . S
C74 C69 1.382 1_655 S
C74 C73 1.392 . S
C75 C76 1.376 1_455 S
C75 C80 1.386 . S
C75 C81 1.483 . S
C76 H51 0.949 . S
C76 C75 1.376 1_655 S
C76 C77 1.397 . S
C77 H52 0.950 . S
C77 C76 1.397 . S
C77 C78 1.391 1_655 S
C78 C77 1.391 1_455 S
C78 C79 1.405 . S
C79 H53 0.950 . S
C79 C78 1.405 . S
C79 C80 1.367 . S
C80 H54 0.950 . S
C80 C75 1.386 . S
C80 C79 1.367 . S
C81 C75 1.483 . S
C81 C82 1.382 . S
C81 C83 1.403 . S
C82 H55 0.950 . S
C82 C68 1.411 . S
C82 C81 1.382 . S
C83 C67 1.411 . S
C83 C81 1.403 . S
C83 C84 1.489 . S
C84 C83 1.489 . S
C84 C85 1.383 . S
C84 C89 1.382 . S
C85 H56 0.950 1_455 S
C85 C84 1.383 . S
C85 C86 1.395 . S
C86 H57 0.950 1_455 S
C86 C85 1.395 . S
C86 C87 1.288 . S
C87 C86 1.288 . S
C87 C88 1.392 . S
C88 H58 0.951 . S
C88 C87 1.392 . S
C88 C89 1.392 . S
C89 H59 0.949 . S
C89 C84 1.382 . S
C89 C88 1.392 . S
H90 C109 0.949 . S
H91 C110 0.950 . S
H92 C112 0.950 1_565 S
H93 C113 0.950 1_565 S
H94 C115 0.950 . S
H95 C118 0.950 . S
H96 C119 0.950 . S
H97 C121 0.951 1_565 S
H98 C122 0.949 1_565 S
H99 C124 0.949 1_565 S
H100 C125 0.950 1_565 S
H101 C127 0.950 . S
H102 C128 0.950 . S
H103 C130 0.950 . S
H104 C133 0.950 . S
H105 C134 0.950 . S
H106 C136 0.951 . S
H107 C137 0.949 . S
C108 C109 1.376 . S
C108 C113 1.386 . S
C108 C114 1.483 . S
C109 H90 0.949 . S
C109 C108 1.376 . S
C109 C110 1.397 . S
C110 H91 0.950 . S
C110 C109 1.397 . S
C110 C111 1.391 . S
C111 C110 1.391 . S
C111 C112 1.405 . S
C112 H92 0.950 1_545 S
C112 C111 1.405 . S
C112 C113 1.367 . S
C113 H93 0.950 1_545 S
C113 C108 1.386 . S
C113 C112 1.367 . S
C114 C108 1.483 . S
C114 C115 1.382 . S
C114 C116 1.403 . S
C115 H94 0.950 . S
C115 C114 1.382 . S
C115 C131 1.411 . S
C116 C114 1.403 . S
C116 C117 1.489 . S
C116 C130 1.411 . S
C117 C116 1.489 . S
C117 C118 1.383 . S
C117 C122 1.382 . S
C118 H95 0.950 . S
C118 C117 1.383 . S
C118 C119 1.395 . S
C119 H96 0.950 . S
C119 C118 1.395 . S
C119 C120 1.288 . S
C120 C119 1.288 . S
C120 C121 1.392 . S
C121 H97 0.951 1_545 S
C121 C120 1.392 . S
C121 C122 1.392 . S
C122 H98 0.949 1_545 S
C122 C117 1.382 . S
C122 C121 1.392 . S
C123 C124 1.376 . S
C123 C128 1.386 . S
C123 C129 1.483 . S
C124 H99 0.949 1_545 S
C124 C123 1.376 . S
C124 C125 1.397 . S
C125 H100 0.950 1_545 S
C125 C124 1.397 . S
C125 C126 1.391 . S
C126 C125 1.391 . S
C126 C127 1.405 . S
C127 H101 0.950 . S
C127 C126 1.405 . S
C127 C128 1.367 . S
C128 H102 0.950 . S
C128 C123 1.386 . S
C128 C127 1.367 . S
C129 C123 1.483 . S
C129 C130 1.382 . S
C129 C131 1.403 . S
C130 H103 0.950 . S
C130 C116 1.411 . S
C130 C129 1.382 . S
C131 C115 1.411 . S
C131 C129 1.403 . S
C131 C132 1.489 . S
C132 C131 1.489 . S
C132 C133 1.383 . S
C132 C137 1.382 . S
C133 H104 0.950 . S
C133 C132 1.383 . S
C133 C134 1.395 . S
C134 H105 0.950 . S
C134 C133 1.395 . S
C134 C135 1.288 . S
C135 C134 1.288 . S
C135 C136 1.392 . S
C136 H106 0.951 . S
C136 C135 1.392 . S
C136 C137 1.392 . S
C137 H107 0.949 . S
C137 C132 1.382 . S
C137 C136 1.392 . S
H138 C157 0.949 . S
H139 C158 0.950 . S
H140 C160 0.950 . S
H141 C161 0.950 . S
H142 C163 0.950 . S
H143 C166 0.950 . S
H144 C167 0.950 . S
H145 C169 0.951 . S
H146 C170 0.949 . S
H147 C172 0.949 . S
H148 C173 0.950 . S
H149 C175 0.950 . S
H150 C176 0.950 . S
H151 C178 0.950 . S
H152 C181 0.950 . S
H153 C182 0.950 . S
H154 C184 0.951 . S
H155 C185 0.949 . S
C156 C157 1.376 . S
C156 C161 1.386 . S
C156 C162 1.483 . S
C157 H138 0.949 . S
C157 C156 1.376 . S
C157 C158 1.397 . S
C158 H139 0.950 . S
C158 C157 1.397 . S
C158 C159 1.391 . S
C159 C158 1.391 . S
C159 C160 1.405 . S
C160 H140 0.950 . S
C160 C159 1.405 . S
C160 C161 1.367 . S
C161 H141 0.950 . S
C161 C156 1.386 . S
C161 C160 1.367 . S
C162 C156 1.483 . S
C162 C163 1.382 . S
C162 C164 1.403 . S
C163 H142 0.950 . S
C163 C162 1.382 . S
C163 C179 1.411 . S
C164 C162 1.403 . S
C164 C165 1.489 . S
C164 C178 1.411 . S
C165 C164 1.489 . S
C165 C166 1.383 . S
C165 C170 1.382 . S
C166 H143 0.950 . S
C166 C165 1.383 . S
C166 C167 1.395 . S
C167 H144 0.950 . S
C167 C166 1.395 . S
C167 C168 1.288 . S
C168 C167 1.288 . S
C168 C169 1.392 . S
C169 H145 0.951 . S
C169 C168 1.392 . S
C169 C170 1.392 . S
C170 H146 0.949 . S
C170 C165 1.382 . S
C170 C169 1.392 . S
C171 C172 1.376 . S
C171 C176 1.386 . S
C171 C177 1.483 . S
C172 H147 0.949 . S
C172 C171 1.376 . S
C172 C173 1.397 . S
C173 H148 0.950 . S
C173 C172 1.397 . S
C173 C174 1.391 . S
C174 C173 1.391 . S
C174 C175 1.405 . S
C175 H149 0.950 . S
C175 C174 1.405 . S
C175 C176 1.367 . S
C176 H150 0.950 . S
C176 C171 1.386 . S
C176 C175 1.367 . S
C177 C171 1.483 . S
C177 C178 1.382 . S
C177 C179 1.403 . S
C178 H151 0.950 . S
C178 C164 1.411 . S
C178 C177 1.382 . S
C179 C163 1.411 . S
C179 C177 1.403 . S
C179 C180 1.489 . S
C180 C179 1.489 . S
C180 C181 1.383 . S
C180 C185 1.382 . S
C181 H152 0.950 . S
C181 C180 1.383 . S
C181 C182 1.395 . S
C182 H153 0.950 . S
C182 C181 1.395 . S
C182 C183 1.288 . S
C183 C182 1.288 . S
C183 C184 1.392 . S
C184 H154 0.951 . S
C184 C183 1.392 . S
C184 C185 1.392 . S
C185 H155 0.949 . S
C185 C180 1.382 . S
C185 C184 1.392 . S
H186 C198 0.930 . S
H187 C200 0.930 . S
H188 C201 0.930 . S
H189 C205 0.959 . S
H190 C205 0.959 . S
H191 C205 0.961 . S
H192 C206 0.960 . S
H193 C206 0.961 . S
H194 C206 0.959 . S
H195 C209 0.929 . S
H196 C210 0.931 . S
H197 C212 0.930 . S
C198 H186 0.930 . S
C198 C199 1.399 . S
C198 C203 1.399 . S
C199 C198 1.399 . S
C199 C200 1.376 1_455 S
C200 H187 0.930 . S
C200 C199 1.376 1_655 S
C200 C201 1.388 . S
C201 H188 0.930 . S
C201 C200 1.388 . S
C201 C202 1.390 1_655 S
C202 C201 1.390 1_455 S
C202 C203 1.394 . S
C202 C208 1.465 . S
C203 C198 1.399 . S
C203 C202 1.394 . S
C203 C204 1.516 . S
C204 C203 1.516 . S
C204 C205 1.502 . S
C204 C206 1.561 . S
C204 C207 1.526 . S
C205 H189 0.959 . S
C205 H190 0.959 . S
C205 H191 0.961 . S
C205 C204 1.502 . S
C206 H192 0.960 . S
C206 H193 0.961 . S
C206 H194 0.959 . S
C206 C204 1.561 . S
C207 C204 1.526 . S
C207 C208 1.396 . S
C207 C212 1.390 . S
C208 C202 1.465 . S
C208 C207 1.396 . S
C208 C209 1.399 1_455 S
C209 H195 0.929 . S
C209 C208 1.399 1_655 S
C209 C210 1.385 . S
C210 H196 0.931 . S
C210 C209 1.385 . S
C210 C211 1.389 1_655 S
C211 C210 1.389 1_455 S
C211 C212 1.387 . S
C212 H197 0.930 . S
C212 C207 1.390 . S
C212 C211 1.387 . S
H213 C225 0.930 . S
H214 C227 0.930 . S
H215 C228 0.930 . S
H216 C232 0.959 . S
H217 C232 0.959 . S
H218 C232 0.961 . S
H219 C233 0.960 . S
H220 C233 0.961 . S
H221 C233 0.959 . S
H222 C236 0.929 . S
H223 C237 0.931 . S
H224 C239 0.930 1_565 S
C225 H213 0.930 . S
C225 C226 1.399 1_565 S
C225 C230 1.399 1_565 S
C226 C225 1.399 1_545 S
C226 C227 1.376 . S
C227 H214 0.930 . S
C227 C226 1.376 . S
C227 C228 1.388 . S
C228 H215 0.930 . S
C228 C227 1.388 . S
C228 C229 1.390 . S
C229 C228 1.390 . S
C229 C230 1.394 . S
C229 C235 1.465 . S
C230 C225 1.399 1_545 S
C230 C229 1.394 . S
C230 C231 1.516 1_545 S
C231 C230 1.516 1_565 S
C231 C232 1.502 . S
C231 C233 1.561 . S
C231 C234 1.526 1_565 S
C232 H216 0.959 . S
C232 H217 0.959 . S
C232 H218 0.961 . S
C232 C231 1.502 . S
C233 H219 0.960 . S
C233 H220 0.961 . S
C233 H221 0.959 . S
C233 C231 1.561 . S
C234 C231 1.526 1_545 S
C234 C235 1.396 . S
C234 C239 1.390 . S
C235 C229 1.465 . S
C235 C234 1.396 . S
C235 C236 1.399 . S
C236 H222 0.929 . S
C236 C235 1.399 . S
C236 C237 1.385 . S
C237 H223 0.931 . S
C237 C236 1.385 . S
C237 C238 1.389 . S
C238 C237 1.389 . S
C238 C239 1.387 . S
C239 H224 0.930 1_545 S
C239 C234 1.390 . S
C239 C238 1.387 . S
H240 C252 0.930 . S
H241 C254 0.930 . S
H242 C255 0.930 . S
H243 C259 0.959 . S
H244 C259 0.959 . S
H245 C259 0.961 . S
H246 C260 0.960 . S
H247 C260 0.961 . S
H248 C260 0.959 . S
H249 C263 0.929 . S
H250 C264 0.931 . S
H251 C266 0.930 . S
C252 H240 0.930 . S
C252 C253 1.399 . S
C252 C257 1.399 . S
C253 C252 1.399 . S
C253 C254 1.376 . S
C254 H241 0.930 . S
C254 C253 1.376 . S
C254 C255 1.388 . S
C255 H242 0.930 . S
C255 C254 1.388 . S
C255 C256 1.390 . S
C256 C255 1.390 . S
C256 C257 1.394 . S
C256 C262 1.465 . S
C257 C252 1.399 . S
C257 C256 1.394 . S
C257 C258 1.516 . S
C258 C257 1.516 . S
C258 C259 1.502 . S
C258 C260 1.561 . S
C258 C261 1.526 . S
C259 H243 0.959 . S
C259 H244 0.959 . S
C259 H245 0.961 . S
C259 C258 1.502 . S
C260 H246 0.960 . S
C260 H247 0.961 . S
C260 H248 0.959 . S
C260 C258 1.561 . S
C261 C258 1.526 . S
C261 C262 1.396 . S
C261 C266 1.390 . S
C262 C256 1.465 . S
C262 C261 1.396 . S
C262 C263 1.399 . S
C263 H249 0.929 . S
C263 C262 1.399 . S
C263 C264 1.385 . S
C264 H250 0.931 . S
C264 C263 1.385 . S
C264 C265 1.389 . S
C265 C264 1.389 . S
C265 C266 1.387 . S
C266 H251 0.930 . S
C266 C261 1.390 . S
C266 C265 1.387 . S
H267 C279 0.930 . S
H268 C281 0.930 . S
H269 C282 0.930 . S
H270 C286 0.959 . S
H271 C286 0.959 . S
H272 C286 0.961 . S
H273 C287 0.960 . S
H274 C287 0.961 . S
H275 C287 0.959 . S
H276 C290 0.929 . S
H277 C291 0.931 . S
H278 C293 0.930 . S
C279 H267 0.930 . S
C279 C280 1.399 . S
C279 C284 1.399 . S
C280 C279 1.399 . S
C280 C281 1.376 . S
C281 H268 0.930 . S
C281 C280 1.376 . S
C281 C282 1.388 . S
C282 H269 0.930 . S
C282 C281 1.388 . S
C282 C283 1.390 . S
C283 C282 1.390 . S
C283 C284 1.394 . S
C283 C289 1.465 . S
C284 C279 1.399 . S
C284 C283 1.394 . S
C284 C285 1.516 . S
C285 C284 1.516 . S
C285 C286 1.502 . S
C285 C287 1.561 . S
C285 C288 1.526 . S
C286 H270 0.959 . S
C286 H271 0.959 . S
C286 H272 0.961 . S
C286 C285 1.502 . S
C287 H273 0.960 . S
C287 H274 0.961 . S
C287 H275 0.959 . S
C287 C285 1.561 . S
C288 C285 1.526 . S
C288 C289 1.396 . S
C288 C293 1.390 . S
C289 C283 1.465 . S
C289 C288 1.396 . S
C289 C290 1.399 . S
C290 H276 0.929 . S
C290 C289 1.399 . S
C290 C291 1.385 . S
C291 H277 0.931 . S
C291 C290 1.385 . S
C291 C292 1.389 . S
C292 C291 1.389 . S
C292 C293 1.387 . S
C293 H278 0.930 . S
C293 C288 1.390 . S
C293 C292 1.387 . S
H294 C306 0.930 1_565 S
H295 C308 0.930 . S
H296 C309 0.930 . S
H297 C313 0.959 . S
H298 C313 0.959 . S
H299 C313 0.961 . S
H300 C314 0.960 . S
H301 C314 0.961 . S
H302 C314 0.959 . S
H303 C317 0.929 . S
H304 C318 0.931 . S
H305 C320 0.930 1_565 S
C306 H294 0.930 1_545 S
C306 C307 1.399 . S
C306 C311 1.399 . S
C307 C306 1.399 . S
C307 C308 1.376 . S
C308 H295 0.930 . S
C308 C307 1.376 . S
C308 C309 1.388 . S
C309 H296 0.930 . S
C309 C308 1.388 . S
C309 C310 1.390 . S
C310 C309 1.390 . S
C310 C311 1.394 . S
C310 C316 1.465 . S
C311 C306 1.399 . S
C311 C310 1.394 . S
C311 C312 1.516 1_545 S
C312 C311 1.516 1_565 S
C312 C313 1.502 . S
C312 C314 1.561 . S
C312 C315 1.526 1_565 S
C313 H297 0.959 . S
C313 H298 0.959 . S
C313 H299 0.961 . S
C313 C312 1.502 . S
C314 H300 0.960 . S
C314 H301 0.961 . S
C314 H302 0.959 . S
C314 C312 1.561 . S
C315 C312 1.526 1_545 S
C315 C316 1.396 . S
C315 C320 1.390 . S
C316 C310 1.465 . S
C316 C315 1.396 . S
C316 C317 1.399 . S
C317 H303 0.929 . S
C317 C316 1.399 . S
C317 C318 1.385 . S
C318 H304 0.931 . S
C318 C317 1.385 . S
C318 C319 1.389 . S
C319 C318 1.389 . S
C319 C320 1.387 . S
C320 H305 0.930 1_545 S
C320 C315 1.390 . S
C320 C319 1.387 . S
H321 C333 0.930 . S
H322 C335 0.930 . S
H323 C336 0.930 . S
H324 C340 0.959 . S
H325 C340 0.959 . S
H326 C340 0.961 . S
H327 C341 0.960 . S
H328 C341 0.961 . S
H329 C341 0.959 . S
H330 C344 0.929 . S
H331 C345 0.931 . S
H332 C347 0.930 . S
C333 H321 0.930 . S
C333 C334 1.399 . S
C333 C338 1.399 . S
C334 C333 1.399 . S
C334 C335 1.376 . S
C335 H322 0.930 . S
C335 C334 1.376 . S
C335 C336 1.388 . S
C336 H323 0.930 . S
C336 C335 1.388 . S
C336 C337 1.390 . S
C337 C336 1.390 . S
C337 C338 1.394 . S
C337 C343 1.465 . S
C338 C333 1.399 . S
C338 C337 1.394 . S
C338 C339 1.516 . S
C339 C338 1.516 . S
C339 C340 1.502 . S
C339 C341 1.561 . S
C339 C342 1.526 . S
C340 H324 0.959 . S
C340 H325 0.959 . S
C340 H326 0.961 . S
C340 C339 1.502 . S
C341 H327 0.960 . S
C341 H328 0.961 . S
C341 H329 0.959 . S
C341 C339 1.561 . S
C342 C339 1.526 . S
C342 C343 1.396 . S
C342 C347 1.390 . S
C343 C337 1.465 . S
C343 C342 1.396 . S
C343 C344 1.399 . S
C344 H330 0.929 . S
C344 C343 1.399 . S
C344 C345 1.385 . S
C345 H331 0.931 . S
C345 C344 1.385 . S
C345 C346 1.389 . S
C346 C345 1.389 . S
C346 C347 1.387 . S
C347 H332 0.930 . S
C347 C342 1.390 . S
C347 C346 1.387 . S
H348 C360 0.930 . S
H349 C362 0.930 . S
H350 C363 0.930 . S
H351 C367 0.959 . S
H352 C367 0.959 . S
H353 C367 0.961 . S
H354 C368 0.960 . S
H355 C368 0.961 . S
H356 C368 0.959 . S
H357 C371 0.929 . S
H358 C372 0.931 . S
H359 C374 0.930 . S
C360 H348 0.930 . S
C360 C361 1.399 . S
C360 C365 1.399 . S
C361 C360 1.399 . S
C361 C362 1.376 . S
C362 H349 0.930 . S
C362 C361 1.376 . S
C362 C363 1.388 . S
C363 H350 0.930 . S
C363 C362 1.388 . S
C363 C364 1.390 . S
C364 C363 1.390 . S
C364 C365 1.394 . S
C364 C370 1.465 . S
C365 C360 1.399 . S
C365 C364 1.394 . S
C365 C366 1.516 . S
C366 C365 1.516 . S
C366 C367 1.502 . S
C366 C368 1.561 1_545 S
C366 C369 1.526 . S
C367 H351 0.959 . S
C367 H352 0.959 . S
C367 H353 0.961 . S
C367 C366 1.502 . S
C368 H354 0.960 . S
C368 H355 0.961 . S
C368 H356 0.959 . S
C368 C366 1.561 1_565 S
C369 C366 1.526 . S
C369 C370 1.396 . S
C369 C374 1.390 . S
C370 C364 1.465 . S
C370 C369 1.396 . S
C370 C371 1.399 . S
C371 H357 0.929 . S
C371 C370 1.399 . S
C371 C372 1.385 . S
C372 H358 0.931 . S
C372 C371 1.385 . S
C372 C373 1.389 . S
C373 C372 1.389 . S
C373 C374 1.387 . S
C374 H359 0.930 . S
C374 C369 1.390 . S
C374 C373 1.387 . S
H375 C387 0.930 1_554 S
H376 C389 0.930 1_455 S
H377 C390 0.930 . S
H378 C394 0.959 . S
H379 C394 0.959 . S
H380 C394 0.933 1_554 S
H381 C395 0.960 . S
H382 C395 0.961 . S
H383 C395 0.959 . S
H384 C398 0.929 . S
H385 C399 0.931 . S
H386 C401 0.930 . S
C387 H375 0.930 1_556 S
C387 C388 1.399 . S
C387 C392 1.399 . S
C388 C387 1.399 . S
C388 C389 1.376 . S
C389 H376 0.930 1_655 S
C389 C388 1.376 . S
C389 C390 1.388 . S
C390 H377 0.930 . S
C390 C389 1.388 . S
C390 C391 1.390 . S
C391 C390 1.390 . S
C391 C392 1.394 . S
C391 C397 1.465 . S
C392 C387 1.399 . S
C392 C391 1.394 . S
C392 C393 1.516 . S
C393 C392 1.516 . S
C393 C394 1.502 . S
C393 C395 1.561 . S
C393 C396 1.526 . S
C394 H378 0.959 . S
C394 H379 0.959 . S
C394 H380 0.933 1_556 S
C394 C393 1.502 . S
C395 H381 0.960 . S
C395 H382 0.961 . S
C395 H383 0.959 . S
C395 C393 1.561 . S
C396 C393 1.526 . S
C396 C397 1.396 . S
C396 C401 1.390 . S
C397 C391 1.465 . S
C397 C396 1.396 . S
C397 C398 1.399 . S
C398 H384 0.929 . S
C398 C397 1.399 . S
C398 C399 1.385 . S
C399 H385 0.931 . S
C399 C398 1.385 . S
C399 C400 1.389 . S
C400 C399 1.389 . S
C400 C401 1.387 . S
C401 H386 0.930 . S
C401 C396 1.390 . S
C401 C400 1.387 . S
H402 C414 0.930 . S
H403 C416 0.930 . S
H404 C417 0.930 . S
H405 C421 0.959 . S
H406 C421 0.959 . S
H407 C421 0.961 . S
H408 C422 0.960 . S
H409 C422 0.961 . S
H410 C422 0.959 . S
H411 C425 0.929 . S
H412 C426 0.931 . S
H413 C428 0.930 . S
C414 H402 0.930 . S
C414 C415 1.399 1_455 S
C414 C419 1.399 . S
C415 C414 1.399 1_655 S
C415 C416 1.376 . S
C416 H403 0.930 . S
C416 C415 1.376 . S
C416 C417 1.388 . S
C417 H404 0.930 . S
C417 C416 1.388 . S
C417 C418 1.390 . S
C418 C417 1.390 . S
C418 C419 1.394 1_655 S
C418 C424 1.465 . S
C419 C414 1.399 . S
C419 C418 1.394 1_455 S
C419 C420 1.516 . S
C420 C419 1.516 . S
C420 C421 1.502 . S
C420 C422 1.561 . S
C420 C423 1.526 . S
C421 H405 0.959 . S
C421 H406 0.959 . S
C421 H407 0.961 . S
C421 C420 1.502 . S
C422 H408 0.960 . S
C422 H409 0.961 . S
C422 H410 0.959 . S
C422 C420 1.561 . S
C423 C420 1.526 . S
C423 C424 1.396 1_455 S
C423 C428 1.390 . S
C424 C418 1.465 . S
C424 C423 1.396 1_655 S
C424 C425 1.399 . S
C425 H411 0.929 . S
C425 C424 1.399 . S
C425 C426 1.385 . S
C426 H412 0.931 . S
C426 C425 1.385 . S
C426 C427 1.389 1_655 S
C427 C426 1.389 1_455 S
C427 C428 1.387 . S
C428 H413 0.930 . S
C428 C423 1.390 . S
C428 C427 1.387 . S
H429 C441 0.930 . S
H430 C443 0.930 . S
H431 C444 0.930 . S
H432 C448 0.959 . S
H433 C448 0.959 . S
H434 C448 0.961 . S
H435 C449 0.960 . S
H436 C449 0.961 . S
H437 C449 0.959 . S
H438 C452 0.929 . S
H439 C453 0.911 1_565 S
H440 C455 0.930 . S
C441 H429 0.930 . S
C441 C442 1.399 . S
C441 C446 1.399 . S
C442 C441 1.399 . S
C442 C443 1.376 1_545 S
C443 H430 0.930 . S
C443 C442 1.376 1_565 S
C443 C444 1.388 . S
C444 H431 0.930 . S
C444 C443 1.388 . S
C444 C445 1.390 1_565 S
C445 C444 1.390 1_545 S
C445 C446 1.394 . S
C445 C451 1.465 . S
C446 C441 1.399 . S
C446 C445 1.394 . S
C446 C447 1.516 . S
C447 C446 1.516 . S
C447 C448 1.502 . S
C447 C449 1.561 . S
C447 C450 1.526 . S
C448 H432 0.959 . S
C448 H433 0.959 . S
C448 H434 0.961 . S
C448 C447 1.502 . S
C449 H435 0.960 . S
C449 H436 0.961 . S
C449 H437 0.959 . S
C449 C447 1.561 . S
C450 C447 1.526 . S
C450 C451 1.396 . S
C450 C455 1.390 . S
C451 C445 1.465 . S
C451 C450 1.396 . S
C451 C452 1.399 1_545 S
C452 H438 0.929 . S
C452 C451 1.399 1_565 S
C452 C453 1.386 1_565 S
C453 H439 0.911 1_545 S
C453 C452 1.386 1_545 S
C453 C454 1.408 . S
C454 C453 1.408 . S
C454 C455 1.387 . S
C455 H440 0.930 . S
C455 C450 1.390 . S
C455 C454 1.387 . S
H456 C468 0.930 1_554 S
H457 C470 0.930 . S
H458 C471 0.930 . S
H459 C475 0.959 . S
H460 C475 0.959 . S
H461 C475 0.961 . S
H462 C476 0.960 1_554 S
H463 C476 0.961 . S
H464 C476 0.959 . S
H465 C479 0.929 . S
H466 C480 0.931 . S
H467 C482 0.930 . S
C468 H456 0.930 1_556 S
C468 C469 1.399 . S
C468 C473 1.399 . S
C469 C468 1.399 . S
C469 C470 1.376 . S
C470 H457 0.930 . S
C470 C469 1.376 . S
C470 C471 1.388 . S
C471 H458 0.930 . S
C471 C470 1.388 . S
C471 C472 1.390 . S
C472 C471 1.390 . S
C472 C473 1.394 . S
C472 C478 1.465 . S
C473 C468 1.399 . S
C473 C472 1.394 . S
C473 C474 1.516 . S
C474 C473 1.516 . S
C474 C475 1.502 . S
C474 C476 1.561 . S
C474 C477 1.526 . S
C475 H459 0.959 . S
C475 H460 0.959 . S
C475 H461 0.961 . S
C475 C474 1.502 . S
C476 H462 0.960 1_556 S
C476 H463 0.961 . S
C476 H464 0.959 . S
C476 C474 1.561 . S
C477 C474 1.526 . S
C477 C478 1.396 . S
C477 C482 1.390 . S
C478 C472 1.465 . S
C478 C477 1.396 . S
C478 C479 1.399 . S
C479 H465 0.929 . S
C479 C478 1.399 . S
C479 C480 1.385 . S
C480 H466 0.931 . S
C480 C479 1.385 . S
C480 C481 1.389 . S
C481 C480 1.389 . S
C481 C482 1.387 . S
C482 H467 0.930 . S
C482 C477 1.390 . S
C482 C481 1.387 . S
H483 C495 0.930 . S
H484 C497 0.930 . S
H485 C498 0.930 . S
H486 C502 0.959 . S
H487 C502 0.959 . S
H488 C502 0.961 . S
H489 C503 0.960 . S
H490 C503 0.961 . S
H491 C503 0.959 . S
H492 C506 0.929 . S
H493 C507 0.931 . S
H494 C509 0.930 . S
C495 H483 0.930 . S
C495 C496 1.399 . S
C495 C500 1.399 . S
C496 C495 1.399 . S
C496 C497 1.376 . S
C497 H484 0.930 . S
C497 C496 1.376 . S
C497 C498 1.388 . S
C498 H485 0.930 . S
C498 C497 1.388 . S
C498 C499 1.390 . S
C499 C498 1.390 . S
C499 C500 1.394 . S
C499 C505 1.465 . S
C500 C495 1.399 . S
C500 C499 1.394 . S
C500 C501 1.516 . S
C501 C500 1.516 . S
C501 C502 1.502 . S
C501 C503 1.561 1_455 S
C501 C504 1.526 . S
C502 H486 0.959 . S
C502 H487 0.959 . S
C502 H488 0.961 . S
C502 C501 1.502 . S
C503 H489 0.960 . S
C503 H490 0.961 . S
C503 H491 0.959 . S
C503 C501 1.561 1_655 S
C504 C501 1.526 . S
C504 C505 1.396 . S
C504 C509 1.390 . S
C505 C499 1.465 . S
C505 C504 1.396 . S
C505 C506 1.399 . S
C506 H492 0.929 . S
C506 C505 1.399 . S
C506 C507 1.385 . S
C507 H493 0.931 . S
C507 C506 1.385 . S
C507 C508 1.389 . S
C508 C507 1.389 . S
C508 C509 1.387 . S
C509 H494 0.930 . S
C509 C504 1.390 . S
C509 C508 1.387 . S
C211 C63 1.392 . S
C199 C11 1.359 . S
C226 C26 1.531 . S
C238 C111 1.560 . S
C253 C40 1.420 . S
C265 C183 1.437 . S
C280 C5 1.311 . S
C292 C87 1.388 . S
C319 C135 1.519 . S
C307 C18 1.527 . S
C334 C32 1.377 . S
C346 C159 1.415 . S
C373 C120 1.273 . S
C361 C39 1.239 . S
C388 C4 1.397 1_566 S
C400 C174 1.427 . S
C427 C78 1.387 . S
C415 C19 1.195 . S
C454 C126 1.294 . S
C442 C33 1.163 1_545 S
C481 C168 1.450 . S
C469 C12 1.452 1_556 S
C496 C25 1.345 . S
C508 C72 1.394 . S
