# Generated by pormake.
# Topology rtl, (3,6)-cn, num edge types: 1
# Building blocks:
#     Node 0, Type 0, BuildingBlock: KAKCAD_clean_linker_0, # of connection points: 3
#     Node 1, Type 0, BuildingBlock: KAKCAD_clean_linker_0, # of connection points: 3
#     Node 2, Type 0, BuildingBlock: KAKCAD_clean_linker_0, # of connection points: 3
#     Node 3, Type 0, BuildingBlock: KAKCAD_clean_linker_0, # of connection points: 3
#     Node 4, Type 1, BuildingBlock: FUNLAD_clean_sbu_0, # of connection points: 6
#     Node 5, Type 1, BuildingBlock: FUNLAD_clean_sbu_0, # of connection points: 6
#     Edge 6, Type (0, 1), BuildingBlock: FUNLAD_clean_linker_1, # of connection points: 2
#     Edge 7, Type (0, 1), BuildingBlock: FUNLAD_clean_linker_1, # of connection points: 2
#     Edge 8, Type (0, 1), BuildingBlock: FUNLAD_clean_linker_1, # of connection points: 2
#     Edge 9, Type (0, 1), BuildingBlock: FUNLAD_clean_linker_1, # of connection points: 2
#     Edge 10, Type (0, 1), BuildingBlock: FUNLAD_clean_linker_1, # of connection points: 2
#     Edge 11, Type (0, 1), BuildingBlock: FUNLAD_clean_linker_1, # of connection points: 2
#     Edge 12, Type (0, 1), BuildingBlock: FUNLAD_clean_linker_1, # of connection points: 2
#     Edge 13, Type (0, 1), BuildingBlock: FUNLAD_clean_linker_1, # of connection points: 2
#     Edge 14, Type (0, 1), BuildingBlock: FUNLAD_clean_linker_1, # of connection points: 2
#     Edge 15, Type (0, 1), BuildingBlock: FUNLAD_clean_linker_1, # of connection points: 2
#     Edge 16, Type (0, 1), BuildingBlock: FUNLAD_clean_linker_1, # of connection points: 2
#     Edge 17, Type (0, 1), BuildingBlock: FUNLAD_clean_linker_1, # of connection points: 2
# Relax obj value: 0.027
# Max RMSD: 0.090
# Mean RMSD: 0.077
data_MOF--net-rtl--node1-FUNLAD_clean_sbu_0--node2-KAKCAD_clean_linker_0--edge1-FUNLAD_clean_linker_1
_symmetry_space_group_name_H-M    P1
_symmetry_Int_Tables_number       1
_symmetry_cell_setting            triclinic
loop_
_symmetry_equiv_pos_as_xyz
'x, y, z'
_cell_length_a     50.607633
_cell_length_b     41.449685
_cell_length_c     29.345379
_cell_angle_alpha  89.845167
_cell_angle_beta   90.912648
_cell_angle_gamma 90.679861
loop_
_atom_site_label
_atom_site_type_symbol
_atom_site_fract_x
_atom_site_fract_y
_atom_site_fract_z
_atom_type_partial_charge
C0 C 0.11583 0.79427 0.84501 0.0
C1 C 0.10748 0.8264 0.84416 0.0
C2 C 0.12239 0.77927 0.88636 0.0
C3 C 0.12126 0.79639 0.92765 0.0
C4 C 0.11346 0.82887 0.92641 0.0
C5 C 0.10653 0.84366 0.88522 0.0
C6 C 0.12849 0.78077 0.97184 0.0
C7 C 0.14938 0.75881 0.97473 0.0
C8 C 0.15691 0.74499 0.0167 0.0
C9 C 0.14354 0.75376 0.05638 0.0
C10 C 0.12265 0.7758 0.05421 0.0
C11 C 0.11499 0.78859 0.01169 0.0
C12 C 0.10923 0.78649 0.0962 0.0
C13 C 0.10255 0.76445 0.13079 0.0
C14 C 0.10268 0.8191 0.10156 0.0
C15 C 0.08958 0.82945 0.14023 0.0
C16 C 0.083 0.8075 0.17505 0.0
C17 C 0.17932 0.72218 0.01885 0.0
C18 C 0.18154 0.6979 0.98585 0.0
C19 C 0.19903 0.72508 0.05293 0.0
C20 C 0.22086 0.70468 0.05325 0.0
C21 C 0.22342 0.68096 0.01938 0.0
C22 C 0.20327 0.67742 0.98631 0.0
C23 C 0.08945 0.77486 0.16968 0.0
H24 H 0.11687 0.78059 0.81369 0.0
H25 H 0.12805 0.75417 0.88594 0.0
H26 H 0.11312 0.84316 0.95723 0.0
H27 H 0.10101 0.86882 0.88551 0.0
H28 H 0.16048 0.75325 0.94453 0.0
H29 H 0.09827 0.80464 0.00965 0.0
H30 H 0.14959 0.7437 0.08897 0.0
H31 H 0.10703 0.73909 0.12745 0.0
H32 H 0.10773 0.83678 0.07579 0.0
H33 H 0.08428 0.8546 0.14204 0.0
H34 H 0.16646 0.69476 0.95956 0.0
H35 H 0.19788 0.74358 0.07879 0.0
H36 H 0.08438 0.75736 0.1957 0.0
H37 H 0.20457 0.65913 0.96015 0.0
H38 H 0.23554 0.70755 0.08016 0.0
C39 C 0.59058 0.72493 0.67985 0.0
C40 C 0.57403 0.69746 0.67783 0.0
C41 C 0.60085 0.73826 0.63975 0.0
C42 C 0.59502 0.72404 0.59714 0.0
C43 C 0.57856 0.69639 0.59581 0.0
C44 C 0.56789 0.68368 0.63547 0.0
C45 C 0.60653 0.73668 0.554 0.0
C46 C 0.63245 0.7492 0.55268 0.0
C47 C 0.64431 0.75658 0.51078 0.0
C48 C 0.63035 0.75002 0.46989 0.0
C49 C 0.60436 0.73767 0.47059 0.0
C50 C 0.59226 0.73318 0.51287 0.0
C51 C 0.59057 0.72637 0.42807 0.0
C52 C 0.5947 0.74143 0.38561 0.0
C53 C 0.57381 0.699 0.42961 0.0
C54 C 0.56146 0.6872 0.39028 0.0
C55 C 0.56618 0.7016 0.34801 0.0
C56 C 0.67168 0.76992 0.50971 0.0
C57 C 0.67952 0.79493 0.53939 0.0
C58 C 0.69012 0.75789 0.47893 0.0
C59 C 0.71572 0.77084 0.47753 0.0
C60 C 0.7234 0.79631 0.50644 0.0
C61 C 0.70509 0.80801 0.53783 0.0
C62 C 0.58279 0.72897 0.34582 0.0
H63 H 0.59533 0.73629 0.71218 0.0
H64 H 0.6132 0.7597 0.64217 0.0
H65 H 0.57425 0.6839 0.56416 0.0
H66 H 0.5554 0.6623 0.63314 0.0
H67 H 0.64392 0.75186 0.58395 0.0
H68 H 0.57172 0.72564 0.51377 0.0
H69 H 0.63997 0.754 0.43764 0.0
H70 H 0.60712 0.76277 0.38299 0.0
H71 H 0.57069 0.68588 0.46105 0.0
H72 H 0.54894 0.66587 0.39269 0.0
H73 H 0.66575 0.80468 0.56351 0.0
H74 H 0.68485 0.73822 0.45618 0.0
H75 H 0.58645 0.74079 0.31354 0.0
H76 H 0.71044 0.82693 0.56168 0.0
H77 H 0.7295 0.7611 0.45341 0.0
C78 C 0.90403 0.17954 0.16437 0.0
C79 C 0.9318 0.17805 0.16418 0.0
C80 C 0.89006 0.19044 0.12599 0.0
C81 C 0.90352 0.20026 0.08669 0.0
C82 C 0.9313 0.19991 0.08716 0.0
C83 C 0.94527 0.18909 0.12562 0.0
C84 C 0.88856 0.20954 0.04479 0.0
C85 C 0.86587 0.22861 0.04744 0.0
C86 C 0.85089 0.23597 0.00812 0.0
C87 C 0.85893 0.22418 0.96573 0.0
C88 C 0.88153 0.205 0.96245 0.0
C89 C 0.89626 0.19796 0.00214 0.0
C90 C 0.88907 0.19084 0.91812 0.0
C91 C 0.86978 0.17701 0.88899 0.0
C92 C 0.91573 0.18959 0.90566 0.0
C93 C 0.92302 0.17431 0.86545 0.0
C94 C 0.90371 0.16006 0.83657 0.0
C95 C 0.82632 0.25498 0.01153 0.0
C96 C 0.80812 0.24823 0.04606 0.0
C97 C 0.82052 0.27938 0.9797 0.0
C98 C 0.79702 0.29664 0.98228 0.0
C99 C 0.77881 0.28983 0.0169 0.0
C100 C 0.78458 0.26534 0.04851 0.0
C101 C 0.87705 0.16172 0.84879 0.0
H102 H 0.89294 0.1723 0.19399 0.0
H103 H 0.86867 0.19036 0.12671 0.0
H104 H 0.94224 0.20783 0.05766 0.0
H105 H 0.96666 0.18859 0.12479 0.0
H106 H 0.85997 0.23796 0.08014 0.0
H107 H 0.91314 0.1822 0.00012 0.0
H108 H 0.84732 0.22948 0.93534 0.0
H109 H 0.8491 0.17712 0.89793 0.0
H110 H 0.93105 0.20014 0.92731 0.0
H111 H 0.94384 0.17298 0.85813 0.0
H112 H 0.81183 0.22922 0.07067 0.0
H113 H 0.83419 0.28516 0.95275 0.0
H114 H 0.86178 0.15072 0.82746 0.0
H115 H 0.7708 0.25938 0.07522 0.0
H116 H 0.79302 0.31468 0.95648 0.0
C117 C 0.4036 0.3229 0.34919 0.0
C118 C 0.43139 0.3256 0.3503 0.0
C119 C 0.39006 0.31017 0.38642 0.0
C120 C 0.40391 0.30009 0.42572 0.0
C121 C 0.43165 0.30209 0.42642 0.0
C122 C 0.44519 0.31475 0.38919 0.0
C123 C 0.38938 0.28951 0.46684 0.0
C124 C 0.36696 0.26932 0.46302 0.0
C125 C 0.35237 0.2608 0.50169 0.0
C126 C 0.36052 0.27261 0.5446 0.0
C127 C 0.38284 0.29292 0.54903 0.0
C128 C 0.39718 0.30108 0.50998 0.0
C129 C 0.39049 0.30718 0.59381 0.0
C130 C 0.37124 0.31992 0.62245 0.0
C131 C 0.41724 0.30985 0.60703 0.0
C132 C 0.42464 0.32561 0.64737 0.0
C133 C 0.40538 0.3389 0.67566 0.0
C134 C 0.32803 0.24059 0.49708 0.0
C135 C 0.30956 0.24665 0.46191 0.0
C136 C 0.32269 0.21579 0.52848 0.0
C137 C 0.29932 0.19754 0.52494 0.0
C138 C 0.28079 0.20373 0.48978 0.0
C139 C 0.28617 0.22853 0.45849 0.0
C140 C 0.37864 0.33569 0.6628 0.0
H141 H 0.39202 0.33168 0.32059 0.0
H142 H 0.36866 0.30946 0.38513 0.0
H143 H 0.4429 0.29422 0.45606 0.0
H144 H 0.46656 0.3166 0.39112 0.0
H145 H 0.36097 0.26004 0.42989 0.0
H146 H 0.41379 0.31773 0.51288 0.0
H147 H 0.3492 0.26649 0.57451 0.0
H148 H 0.35049 0.31869 0.61294 0.0
H149 H 0.43253 0.30013 0.5858 0.0
H150 H 0.44551 0.3281 0.65517 0.0
H151 H 0.3129 0.26592 0.4376 0.0
H152 H 0.33657 0.2105 0.55588 0.0
H153 H 0.36339 0.34588 0.68368 0.0
H154 H 0.27215 0.23403 0.43136 0.0
H155 H 0.29566 0.17925 0.5505 0.0
C156 C 0.02235 0.95014 0.44008 0.0
N157 N 0.06217 0.02745 0.50336 0.0
C158 C 0.08415 0.0089 0.50604 0.0
C159 C 0.10926 0.02322 0.50685 0.0
C160 C 0.11188 0.0569 0.50445 0.0
C161 C 0.08883 0.07551 0.50175 0.0
C162 C 0.06409 0.06018 0.50118 0.0
Zn163 Zn 0.02568 0.00566 0.50421 0.0
C164 C 0.98822 0.03385 0.43673 0.0
N165 N 0.94972 0.95921 0.50692 0.0
C166 C 0.94754 0.92647 0.5078 0.0
C167 C 0.92792 0.97808 0.50789 0.0
C168 C 0.90274 0.96412 0.51006 0.0
C169 C 0.89982 0.93043 0.51085 0.0
C170 C 0.9227 0.91147 0.50986 0.0
Zn171 Zn 0.98627 0.98088 0.50559 0.0
O172 O 0.03771 0.97231 0.45483 0.0
C173 C 0.0233 0.95274 0.57339 0.0
O174 O 0.999 0.94767 0.45528 0.0
H175 H 0.93006 0.00406 0.50729 0.0
H176 H 0.08221 0.98292 0.50787 0.0
H177 H 0.96514 0.91192 0.50741 0.0
O178 O 0.03865 0.97417 0.55699 0.0
O179 O 0.99982 0.94989 0.55796 0.0
H180 H 0.04636 0.0745 0.49953 0.0
O181 O 0.97445 0.01444 0.55585 0.0
O182 O 0.01323 0.03875 0.5538 0.0
O183 O 0.97314 0.01235 0.45344 0.0
O184 O 0.0119 0.03677 0.45146 0.0
C185 C 0.99017 0.03654 0.56994 0.0
H186 H 0.12652 0.00805 0.50931 0.0
H187 H 0.08965 0.10158 0.50117 0.0
H188 H 0.88564 0.97958 0.51109 0.0
H189 H 0.92169 0.88543 0.51164 0.0
C190 C 0.49431 0.46547 0.94444 0.0
N191 N 0.56576 0.47001 0.01866 0.0
C192 C 0.56581 0.43719 0.01946 0.0
C193 C 0.58965 0.42054 0.02093 0.0
C194 C 0.61373 0.43789 0.02126 0.0
C195 C 0.61301 0.4717 0.0213 0.0
C196 C 0.58874 0.48736 0.01984 0.0
Zn197 Zn 0.53063 0.49384 0.01491 0.0
C198 C 0.53238 0.54783 0.94775 0.0
N199 N 0.45733 0.54406 0.00624 0.0
C200 C 0.43417 0.52707 0.00431 0.0
C201 C 0.4576 0.57687 0.00717 0.0
C202 C 0.43394 0.59384 0.00702 0.0
C203 C 0.40973 0.577 0.00618 0.0
C204 C 0.41003 0.54309 0.00408 0.0
Zn205 Zn 0.49239 0.52 0.00969 0.0
O206 O 0.51699 0.46219 0.96289 0.0
C207 C 0.49065 0.46641 0.0775 0.0
O208 O 0.47939 0.48803 0.95739 0.0
H209 H 0.47622 0.58994 0.00854 0.0
H210 H 0.5473 0.42387 0.01887 0.0
H211 H 0.43441 0.50099 0.00327 0.0
O212 O 0.51442 0.46285 0.06527 0.0
O213 O 0.47675 0.4885 0.05955 0.0
H214 H 0.58828 0.51344 0.01939 0.0
O215 O 0.50609 0.55158 0.06181 0.0
O216 O 0.54379 0.52595 0.06647 0.0
O217 O 0.50863 0.55122 0.96011 0.0
O218 O 0.54623 0.52536 0.96484 0.0
C219 C 0.52902 0.54855 0.07949 0.0
H220 H 0.58897 0.39448 0.02225 0.0
H221 H 0.6311 0.48596 0.02193 0.0
H222 H 0.43458 0.61996 0.00823 0.0
H223 H 0.39202 0.52886 0.00198 0.0
H224 H 0.23916 0.19767 0.46701 0.0
C225 C 0.25514 0.18605 0.48583 0.0
H226 H 0.26615 0.14373 0.52179 0.0
H227 H 0.14851 0.1116 0.57893 0.0
H228 H 0.16842 0.12659 0.6516 0.0
H229 H 0.21397 0.1483 0.65608 0.0
H230 H 0.23986 0.15527 0.58787 0.0
C231 C 0.25074 0.15646 0.50326 0.0
C232 C 0.22403 0.14109 0.50042 0.0
C233 C 0.20937 0.13654 0.54075 0.0
C234 C 0.18321 0.12367 0.53823 0.0
C235 C 0.16867 0.12054 0.5789 0.0
C236 C 0.1798 0.12924 0.62087 0.0
C237 C 0.20544 0.1415 0.62339 0.0
C238 C 0.2201 0.1453 0.58393 0.0
H239 H 0.15483 0.0569 0.52011 0.0
C240 C 0.1388 0.07161 0.50674 0.0
H241 H 0.1296 0.11644 0.47577 0.0
H242 H 0.24792 0.14276 0.41724 0.0
H243 H 0.22812 0.12734 0.3446 0.0
H244 H 0.18238 0.10624 0.34003 0.0
H245 H 0.15622 0.10019 0.40817 0.0
C246 C 0.14449 0.1017 0.49239 0.0
C247 C 0.17192 0.1149 0.4954 0.0
C248 C 0.18673 0.11895 0.45516 0.0
C249 C 0.21294 0.13168 0.4577 0.0
C250 C 0.22765 0.13419 0.41716 0.0
C251 C 0.2166 0.12518 0.37524 0.0
C252 C 0.19085 0.11326 0.37268 0.0
C253 C 0.17604 0.10999 0.41206 0.0
H254 H 0.24442 0.63696 0.99858 0.0
C255 C 0.24666 0.65947 0.01729 0.0
H256 H 0.27402 0.68991 0.05253 0.0
H257 H 0.35355 0.57877 0.10381 0.0
H258 H 0.33369 0.58814 0.17718 0.0
H259 H 0.29513 0.62358 0.1839 0.0
H260 H 0.27629 0.65003 0.11729 0.0
C261 C 0.27068 0.66744 0.03435 0.0
C262 C 0.29354 0.6455 0.02967 0.0
C263 C 0.30419 0.63002 0.06884 0.0
C264 C 0.3262 0.60926 0.06485 0.0
C265 C 0.33665 0.59449 0.10472 0.0
C266 C 0.32547 0.5997 0.1471 0.0
C267 C 0.30378 0.61967 0.1509 0.0
C268 C 0.29318 0.63473 0.11237 0.0
H269 H 0.38619 0.62153 0.00034 0.0
C270 C 0.38485 0.59575 0.00719 0.0
H271 H 0.3591 0.55807 0.02834 0.0
H272 H 0.27957 0.67371 0.94823 0.0
H273 H 0.29822 0.66264 0.87443 0.0
H274 H 0.33428 0.6236 0.86671 0.0
H275 H 0.35222 0.59586 0.93292 0.0
C276 C 0.36115 0.58312 0.0181 0.0
C277 C 0.3375 0.60395 0.02163 0.0
C278 C 0.3265 0.61892 0.98225 0.0
C279 C 0.30488 0.64029 0.98642 0.0
C280 C 0.29528 0.6563 0.94689 0.0
C281 C 0.30591 0.65032 0.90429 0.0
C282 C 0.32628 0.62843 0.89997 0.0
C283 C 0.33651 0.61283 0.93834 0.0
H284 H 0.76567 0.79424 0.4885 0.0
C285 C 0.75077 0.80947 0.50347 0.0
H286 H 0.74344 0.85584 0.53049 0.0
H287 H 0.86246 0.88088 0.59113 0.0
H288 H 0.84196 0.87262 0.66442 0.0
H289 H 0.79545 0.85463 0.66922 0.0
H290 H 0.76919 0.84464 0.60074 0.0
C291 C 0.75774 0.83961 0.51612 0.0
C292 C 0.78554 0.85142 0.5127 0.0
C293 C 0.80048 0.85767 0.55306 0.0
C294 C 0.8272 0.86843 0.55029 0.0
C295 C 0.84191 0.87344 0.59119 0.0
C296 C 0.83043 0.86859 0.63352 0.0
C297 C 0.80425 0.85843 0.63623 0.0
C298 C 0.78939 0.85287 0.59662 0.0
H299 H 0.85705 0.93205 0.52517 0.0
C300 C 0.87279 0.91627 0.51436 0.0
H301 H 0.88104 0.86943 0.48987 0.0
H302 H 0.76169 0.8449 0.42857 0.0
H303 H 0.7822 0.85324 0.35535 0.0
H304 H 0.82885 0.87067 0.3506 0.0
H305 H 0.85521 0.8801 0.41914 0.0
C306 C 0.86652 0.88552 0.50387 0.0
C307 C 0.8388 0.87341 0.5071 0.0
C308 C 0.82387 0.8672 0.46674 0.0
C309 C 0.7971 0.85656 0.46949 0.0
C310 C 0.78232 0.852 0.42857 0.0
C311 C 0.79379 0.85694 0.38625 0.0
C312 C 0.82005 0.8668 0.38358 0.0
C313 C 0.83497 0.87205 0.42321 0.0
H314 H 0.73726 0.29442 0.03797 0.0
C315 C 0.75315 0.30664 0.02 0.0
H316 H 0.76413 0.34961 0.98546 0.0
H317 H 0.6478 0.38454 0.92427 0.0
H318 H 0.66701 0.3703 0.85199 0.0
H319 H 0.71151 0.34685 0.84897 0.0
H320 H 0.73716 0.33769 0.9182 0.0
C321 C 0.74876 0.33632 0.00307 0.0
C322 C 0.72217 0.35113 0.00535 0.0
C323 C 0.70738 0.35614 0.96456 0.0
C324 C 0.68157 0.36922 0.96635 0.0
C325 C 0.66736 0.3743 0.925 0.0
C326 C 0.67817 0.36629 0.88322 0.0
C327 C 0.70324 0.35312 0.88152 0.0
C328 C 0.71776 0.34802 0.92156 0.0
H329 H 0.65715 0.43651 0.03133 0.0
C330 C 0.63988 0.42189 0.02214 0.0
H331 H 0.62728 0.37607 0.99769 0.0
H332 H 0.74646 0.34857 0.08945 0.0
H333 H 0.72679 0.36126 0.16193 0.0
H334 H 0.68082 0.38014 0.1655 0.0
H335 H 0.65445 0.38702 0.09654 0.0
C336 C 0.64356 0.39095 0.01031 0.0
C337 C 0.67055 0.37717 0.00893 0.0
C338 C 0.68531 0.37209 0.04979 0.0
C339 C 0.71139 0.35975 0.04791 0.0
C340 C 0.7262 0.35659 0.089 0.0
C341 C 0.71521 0.364 0.13085 0.0
C342 C 0.68937 0.37474 0.13284 0.0
C343 C 0.6745 0.37877 0.09293 0.0
H344 H 0.05789 0.79946 0.23549 0.0
C345 C 0.06874 0.8177 0.21646 0.0
H346 H 0.08024 0.86703 0.21458 0.0
H347 H 0.98549 0.92318 0.32105 0.0
H348 H 0.97018 0.93342 0.24362 0.0
H349 H 0.99254 0.90909 0.17822 0.0
H350 H 0.03044 0.87447 0.18984 0.0
C351 C 0.06918 0.84824 0.2319 0.0
C352 C 0.05349 0.85842 0.27163 0.0
C353 C 0.03105 0.87802 0.26431 0.0
C354 C 0.01801 0.8918 0.30201 0.0
C355 C 0.99605 0.91196 0.29365 0.0
C356 C 0.98705 0.91802 0.24938 0.0
C357 C 0.99965 0.90435 0.21255 0.0
C358 C 0.02141 0.88459 0.2197 0.0
H359 H 0.05219 0.93178 0.39357 0.0
C360 C 0.032 0.92818 0.40488 0.0
H361 H 0.99642 0.90167 0.39479 0.0
H362 H 0.0953 0.82079 0.29778 0.0
H363 H 0.10911 0.80837 0.37533 0.0
H364 H 0.08521 0.8304 0.44073 0.0
H365 H 0.0475 0.86535 0.42886 0.0
C366 C 0.01695 0.905 0.38537 0.0
C367 C 0.02753 0.88601 0.3469 0.0
C368 C 0.04881 0.86456 0.35437 0.0
C369 C 0.06206 0.85108 0.31666 0.0
C370 C 0.08412 0.8311 0.32512 0.0
C371 C 0.0923 0.82384 0.3695 0.0
C372 C 0.07888 0.8363 0.40632 0.0
C373 C 0.05739 0.85646 0.39906 0.0
H374 H 0.54439 0.6687 0.71474 0.0
C375 C 0.56306 0.68178 0.7188 0.0
H376 H 0.59582 0.69029 0.76316 0.0
H377 H 0.53039 0.647 0.93788 0.0
H378 H 0.53689 0.70408 0.95305 0.0
H379 H 0.55685 0.74001 0.89557 0.0
H380 H 0.5707 0.71899 0.82267 0.0
C381 C 0.57677 0.6784 0.75803 0.0
C382 C 0.56672 0.65637 0.79415 0.0
C383 C 0.55866 0.66905 0.83639 0.0
C384 C 0.54681 0.64839 0.86925 0.0
C385 C 0.53921 0.66164 0.91144 0.0
C386 C 0.54286 0.69436 0.92063 0.0
C387 C 0.55411 0.71459 0.88828 0.0
C388 C 0.56195 0.70223 0.84658 0.0
H389 H 0.56447 0.56551 0.90405 0.0
C390 C 0.54413 0.56958 0.91374 0.0
H391 H 0.51049 0.59878 0.90453 0.0
H392 H 0.58475 0.62295 0.72043 0.0
H393 H 0.57664 0.56644 0.70364 0.0
H394 H 0.55153 0.53192 0.75665 0.0
H395 H 0.53516 0.55349 0.82725 0.0
C396 C 0.53054 0.5937 0.89414 0.0
C397 C 0.54289 0.61515 0.85957 0.0
C398 C 0.55097 0.60245 0.81721 0.0
C399 C 0.56383 0.62283 0.78527 0.0
C400 C 0.57355 0.609 0.7448 0.0
C401 C 0.56924 0.5765 0.7349 0.0
C402 C 0.55524 0.55704 0.76483 0.0
C403 C 0.54614 0.56972 0.80551 0.0
H404 H 0.9679 0.17209 0.20708 0.0
C405 C 0.94727 0.1648 0.20324 0.0
H406 H 0.91722 0.13376 0.22824 0.0
H407 H 0.01915 0.05653 0.31304 0.0
H408 H 0.02967 0.04461 0.2345 0.0
H409 H 0.00526 0.07039 0.17102 0.0
H410 H 0.97035 0.1083 0.18558 0.0
C411 C 0.93749 0.1423 0.23166 0.0
C412 C 0.95369 0.12836 0.26937 0.0
C413 C 0.97409 0.10623 0.26004 0.0
C414 C 0.98789 0.09095 0.29661 0.0
C415 C 0.008 0.06873 0.28651 0.0
C416 C 0.01423 0.06165 0.2416 0.0
C417 C 1.00051 0.0762 0.20586 0.0
C418 C 0.98058 0.09811 0.21474 0.0
H419 H 0.95719 0.05172 0.39021 0.0
C420 C 0.97778 0.05503 0.40056 0.0
H421 H 0.01334 0.0808 0.38842 0.0
H422 H 0.91682 0.171 0.29885 0.0
H423 H 0.90682 0.18334 0.37749 0.0
H424 H 0.93098 0.15702 0.44083 0.0
H425 H 0.96525 0.11811 0.4259 0.0
C426 C 0.9925 0.0777 0.37986 0.0
C427 C 0.98084 0.09725 0.34222 0.0
C428 C 0.96124 0.12037 0.35155 0.0
C429 C 0.94752 0.13577 0.31506 0.0
C430 C 0.9278 0.15849 0.32531 0.0
C431 C 0.92191 0.16587 0.37029 0.0
C432 C 0.9355 0.15104 0.40595 0.0
C433 C 0.955 0.1286 0.39691 0.0
H434 H 0.39742 0.37405 0.73025 0.0
C435 C 0.41235 0.35804 0.71705 0.0
H436 H 0.45146 0.34125 0.72729 0.0
H437 H 0.49017 0.47048 0.82248 0.0
H438 H 0.51104 0.47561 0.749 0.0
H439 H 0.50091 0.4368 0.68738 0.0
H440 H 0.46974 0.39274 0.69883 0.0
C441 C 0.43594 0.35695 0.73874 0.0
C442 C 0.44252 0.37945 0.77677 0.0
C443 C 0.46118 0.4047 0.76975 0.0
C444 C 0.46729 0.42681 0.80545 0.0
C445 C 0.48529 0.4525 0.79697 0.0
C446 C 0.4973 0.45586 0.75482 0.0
C447 C 0.49157 0.43404 0.72012 0.0
C448 C 0.47367 0.4088 0.72722 0.0
H449 H 0.50002 0.42551 0.89638 0.0
C450 C 0.48602 0.44348 0.90743 0.0
H451 H 0.44771 0.46247 0.89779 0.0
H452 H 0.40728 0.3324 0.80259 0.0
H453 H 0.3863 0.32744 0.87605 0.0
H454 H 0.3964 0.36633 0.93759 0.0
H455 H 0.42767 0.41034 0.92607 0.0
C456 C 0.46232 0.44536 0.88648 0.0
C457 C 0.45509 0.42322 0.84839 0.0
C458 C 0.43633 0.39812 0.85533 0.0
C459 C 0.43021 0.37599 0.81962 0.0
C460 C 0.41216 0.35038 0.8281 0.0
C461 C 0.40009 0.34713 0.87023 0.0
C462 C 0.4058 0.369 0.90489 0.0
C463 C 0.42376 0.39418 0.8978 0.0
H464 H 0.53541 0.67364 0.31112 0.0
C465 C 0.55417 0.68636 0.3071 0.0
H466 H 0.58666 0.69373 0.26356 0.0
H467 H 0.52683 0.55613 0.20039 0.0
H468 H 0.54262 0.53567 0.27313 0.0
H469 H 0.5669 0.57117 0.32706 0.0
H470 H 0.57473 0.6275 0.3091 0.0
C471 C 0.56748 0.68231 0.26836 0.0
C472 C 0.55714 0.6598 0.2327 0.0
C473 C 0.55443 0.62635 0.24253 0.0
C474 C 0.54216 0.60537 0.21015 0.0
C475 C 0.53746 0.57275 0.22255 0.0
C476 C 0.54621 0.56072 0.26442 0.0
C477 C 0.55974 0.58074 0.29487 0.0
C478 C 0.56388 0.61315 0.28425 0.0
H479 H 0.55875 0.56768 0.12818 0.0
C480 C 0.53881 0.57101 0.11477 0.0
H481 H 0.50433 0.59923 0.11699 0.0
H482 H 0.56019 0.72223 0.20278 0.0
H483 H 0.54677 0.74212 0.12811 0.0
H484 H 0.5281 0.70509 0.06997 0.0
H485 H 0.52244 0.64804 0.08623 0.0
C486 C 0.524 0.59495 0.13099 0.0
C487 C 0.53466 0.61732 0.16653 0.0
C488 C 0.53805 0.65055 0.15623 0.0
C489 C 0.54919 0.67185 0.18948 0.0
C490 C 0.55202 0.70499 0.17861 0.0
C491 C 0.54441 0.71672 0.1359 0.0
C492 C 0.53388 0.69587 0.10317 0.0
C493 C 0.5307 0.66316 0.113 0.0
H494 H 0.8959 0.1246 0.78164 0.0
C495 C 0.91059 0.14155 0.79516 0.0
H496 H 0.94905 0.16109 0.7855 0.0
H497 H 0.98845 0.03369 0.69051 0.0
H498 H 0.01093 0.03011 0.76381 0.0
H499 H 0.0015 0.06874 0.82508 0.0
H500 H 0.96943 0.11108 0.81342 0.0
C501 C 0.93381 0.14436 0.77374 0.0
C502 C 0.94036 0.12246 0.73559 0.0
C503 C 0.9596 0.09831 0.74266 0.0
C504 C 0.96536 0.07639 0.7071 0.0
C505 C 0.98386 0.05162 0.71578 0.0
C506 C 0.99679 0.04911 0.75788 0.0
C507 C 0.99145 0.07083 0.79239 0.0
C508 C 0.97302 0.09508 0.78516 0.0
H509 H 0.99677 0.07711 0.61727 0.0
C510 C 0.9824 0.05901 0.60596 0.0
H511 H 0.94395 0.03968 0.61483 0.0
H512 H 0.90392 0.16758 0.70964 0.0
H513 H 0.88158 0.17135 0.6361 0.0
H514 H 0.89123 0.13296 0.57463 0.0
H515 H 0.92338 0.09062 0.58629 0.0
C516 C 0.95886 0.05704 0.62631 0.0
C517 C 0.95228 0.07918 0.66416 0.0
C518 C 0.93306 0.10334 0.65707 0.0
C519 C 0.92723 0.1252 0.69271 0.0
C520 C 0.90863 0.14984 0.68416 0.0
C521 C 0.89578 0.1524 0.64199 0.0
C522 C 0.90124 0.13081 0.60737 0.0
C523 C 0.9197 0.10659 0.61455 0.0
H524 H 0.46665 0.34969 0.32147 0.0
C525 C 0.44653 0.34178 0.3135 0.0
H526 H 0.41738 0.33901 0.26082 0.0
H527 H 0.48987 0.46584 0.19928 0.0
H528 H 0.47321 0.49157 0.26694 0.0
H529 H 0.44567 0.46111 0.32117 0.0
H530 H 0.43517 0.40465 0.3086 0.0
C531 C 0.43662 0.34816 0.27168 0.0
C532 C 0.4521 0.36712 0.238 0.0
C533 C 0.4571 0.40053 0.24507 0.0
C534 C 0.47177 0.41853 0.21262 0.0
C535 C 0.4778 0.45138 0.22175 0.0
C536 C 0.46852 0.46641 0.26065 0.0
C537 C 0.45312 0.44922 0.29127 0.0
C538 C 0.44739 0.4167 0.28374 0.0
H539 H 0.45851 0.44988 0.12179 0.0
C540 C 0.47899 0.44578 0.11299 0.0
H541 H 0.51305 0.41803 0.12654 0.0
H542 H 0.44684 0.30341 0.2151 0.0
H543 H 0.46273 0.27803 0.14646 0.0
H544 H 0.4866 0.3098 0.08865 0.0
H545 H 0.49487 0.3671 0.0992 0.0
C546 C 0.49277 0.42311 0.13552 0.0
C547 C 0.48017 0.40355 0.172 0.0
C548 C 0.47551 0.37011 0.16526 0.0
C549 C 0.46148 0.35186 0.19834 0.0
C550 C 0.45716 0.31846 0.19085 0.0
C551 C 0.46621 0.30359 0.15164 0.0
C552 C 0.47967 0.32147 0.1191 0.0
C553 C 0.48429 0.35435 0.1256 0.0
H554 H 0.11146 0.83474 0.77001 0.0
C555 C 0.10063 0.84183 0.80002 0.0
H556 H 0.06969 0.87002 0.82534 0.0
H557 H 0.06934 0.97996 0.67962 0.0
H558 H 0.08318 0.00862 0.74789 0.0
H559 H 0.09439 0.9791 0.81854 0.0
H560 H 0.09144 0.92077 0.82151 0.0
C561 C 0.081 0.86326 0.79577 0.0
C562 C 0.07539 0.88046 0.75213 0.0
C563 C 0.07792 0.91458 0.75065 0.0
C564 C 0.07212 0.93156 0.70961 0.0
C565 C 0.07396 0.96572 0.70958 0.0
C566 C 0.08185 0.98254 0.74859 0.0
C567 C 0.08811 0.96592 0.78838 0.0
C568 C 0.08624 0.93238 0.78961 0.0
H569 H 0.01733 0.91649 0.62737 0.0
C570 C 0.032 0.93204 0.61146 0.0
H571 H 0.0716 0.94865 0.61298 0.0
H572 H 0.06477 0.8155 0.74441 0.0
H573 H 0.05325 0.78665 0.67511 0.0
H574 H 0.04815 0.81559 0.60198 0.0
H575 H 0.05382 0.8737 0.59811 0.0
C576 C 0.05693 0.93259 0.62784 0.0
C577 C 0.06429 0.91436 0.66984 0.0
C578 C 0.06255 0.88018 0.67089 0.0
C579 C 0.06719 0.86328 0.71246 0.0
C580 C 0.06302 0.82942 0.71334 0.0
C581 C 0.05614 0.81255 0.67383 0.0
C582 C 0.05314 0.82886 0.63271 0.0
C583 C 0.05627 0.86226 0.63105 0.0
loop_
_geom_bond_atom_site_label_1
_geom_bond_atom_site_label_2
_geom_bond_distance
_geom_bond_site_symmetry_2
_ccdc_geom_bond_type
C0 C1 1.386 . S
C0 C2 1.397 . S
C0 H24 0.931 . S
C1 C0 1.386 . S
C1 C5 1.397 . S
C2 C0 1.397 . S
C2 C3 1.384 . S
C2 H25 0.930 . S
C3 C2 1.384 . S
C3 C4 1.377 . S
C3 C6 1.481 . S
C4 C3 1.377 . S
C4 C5 1.389 . S
C4 H26 0.929 . S
C5 C1 1.397 . S
C5 C4 1.389 . S
C5 H27 0.931 . S
C6 C3 1.481 . S
C6 C7 1.387 . S
C6 C11 1.390 1_556 S
C7 C6 1.387 . S
C7 C8 1.401 1_556 S
C7 H28 0.930 . S
C8 C7 1.401 1_554 S
C8 C9 1.376 . S
C8 C17 1.511 . S
C9 C8 1.376 . S
C9 C10 1.392 . S
C9 H30 0.931 . S
C10 C9 1.392 . S
C10 C11 1.361 . S
C10 C12 1.500 . S
C11 C6 1.390 1_554 S
C11 C10 1.361 . S
C11 H29 0.931 . S
C12 C10 1.500 . S
C12 C13 1.371 . S
C12 C14 1.365 . S
C13 C12 1.371 . S
C13 C23 1.386 . S
C13 H31 0.931 . S
C14 C12 1.365 . S
C14 C15 1.409 . S
C14 H32 0.929 . S
C15 C14 1.409 . S
C15 C16 1.380 . S
C15 H33 0.930 . S
C16 C15 1.380 . S
C16 C23 1.357 . S
C17 C8 1.511 . S
C17 C18 1.341 1_554 S
C17 C19 1.371 . S
C18 C17 1.341 1_556 S
C18 C22 1.394 . S
C18 H34 0.930 . S
C19 C17 1.371 . S
C19 C20 1.392 . S
C19 H35 0.931 . S
C20 C19 1.392 . S
C20 C21 1.331 . S
C20 H38 0.932 . S
C21 C20 1.331 . S
C21 C22 1.336 1_554 S
C22 C18 1.394 . S
C22 C21 1.336 1_556 S
C22 H37 0.929 . S
C23 C13 1.386 . S
C23 C16 1.357 . S
C23 H36 0.928 . S
H24 C0 0.931 . S
H25 C2 0.930 . S
H26 C4 0.929 . S
H27 C5 0.931 . S
H28 C7 0.930 . S
H29 C11 0.931 . S
H30 C9 0.931 . S
H31 C13 0.931 . S
H32 C14 0.929 . S
H33 C15 0.930 . S
H34 C18 0.930 . S
H35 C19 0.931 . S
H36 C23 0.928 . S
H37 C22 0.929 . S
H38 C20 0.932 . S
C39 C40 1.386 . S
C39 C41 1.397 . S
C39 H63 0.931 . S
C40 C39 1.386 . S
C40 C44 1.397 . S
C41 C39 1.397 . S
C41 C42 1.384 . S
C41 H64 0.930 . S
C42 C41 1.384 . S
C42 C43 1.377 . S
C42 C45 1.481 . S
C43 C42 1.377 . S
C43 C44 1.389 . S
C43 H65 0.929 . S
C44 C40 1.397 . S
C44 C43 1.389 . S
C44 H66 0.931 . S
C45 C42 1.481 . S
C45 C46 1.387 . S
C45 C50 1.390 . S
C46 C45 1.387 . S
C46 C47 1.401 . S
C46 H67 0.930 . S
C47 C46 1.401 . S
C47 C48 1.376 . S
C47 C56 1.511 . S
C48 C47 1.376 . S
C48 C49 1.392 . S
C48 H69 0.931 . S
C49 C48 1.392 . S
C49 C50 1.361 . S
C49 C51 1.500 . S
C50 C45 1.390 . S
C50 C49 1.361 . S
C50 H68 0.931 . S
C51 C49 1.500 . S
C51 C52 1.371 . S
C51 C53 1.365 . S
C52 C51 1.371 . S
C52 C62 1.386 . S
C52 H70 0.931 . S
C53 C51 1.365 . S
C53 C54 1.409 . S
C53 H71 0.929 . S
C54 C53 1.409 . S
C54 C55 1.380 . S
C54 H72 0.930 . S
C55 C54 1.380 . S
C55 C62 1.357 . S
C56 C47 1.511 . S
C56 C57 1.341 . S
C56 C58 1.371 . S
C57 C56 1.341 . S
C57 C61 1.394 . S
C57 H73 0.930 . S
C58 C56 1.371 . S
C58 C59 1.392 . S
C58 H74 0.931 . S
C59 C58 1.392 . S
C59 C60 1.331 . S
C59 H77 0.932 . S
C60 C59 1.331 . S
C60 C61 1.336 . S
C61 C57 1.394 . S
C61 C60 1.336 . S
C61 H76 0.929 . S
C62 C52 1.386 . S
C62 C55 1.357 . S
C62 H75 0.928 . S
H63 C39 0.931 . S
H64 C41 0.930 . S
H65 C43 0.929 . S
H66 C44 0.931 . S
H67 C46 0.930 . S
H68 C50 0.931 . S
H69 C48 0.931 . S
H70 C52 0.931 . S
H71 C53 0.929 . S
H72 C54 0.930 . S
H73 C57 0.930 . S
H74 C58 0.931 . S
H75 C62 0.928 . S
H76 C61 0.929 . S
H77 C59 0.932 . S
C78 C79 1.386 . S
C78 C80 1.397 . S
C78 H102 0.931 . S
C79 C78 1.386 . S
C79 C83 1.397 . S
C80 C78 1.397 . S
C80 C81 1.384 . S
C80 H103 0.930 . S
C81 C80 1.384 . S
C81 C82 1.377 . S
C81 C84 1.481 . S
C82 C81 1.377 . S
C82 C83 1.389 . S
C82 H104 0.929 . S
C83 C79 1.397 . S
C83 C82 1.389 . S
C83 H105 0.931 . S
C84 C81 1.481 . S
C84 C85 1.387 . S
C84 C89 1.390 . S
C85 C84 1.387 . S
C85 C86 1.401 . S
C85 H106 0.930 . S
C86 C85 1.401 . S
C86 C87 1.376 1_554 S
C86 C95 1.511 . S
C87 C86 1.376 1_556 S
C87 C88 1.392 . S
C87 H108 0.931 . S
C88 C87 1.392 . S
C88 C89 1.361 1_556 S
C88 C90 1.500 . S
C89 C84 1.390 . S
C89 C88 1.361 1_554 S
C89 H107 0.931 . S
C90 C88 1.500 . S
C90 C91 1.371 . S
C90 C92 1.365 . S
C91 C90 1.371 . S
C91 C101 1.386 . S
C91 H109 0.931 . S
C92 C90 1.365 . S
C92 C93 1.409 . S
C92 H110 0.929 . S
C93 C92 1.409 . S
C93 C94 1.380 . S
C93 H111 0.930 . S
C94 C93 1.380 . S
C94 C101 1.357 . S
C95 C86 1.511 . S
C95 C96 1.341 . S
C95 C97 1.371 1_554 S
C96 C95 1.341 . S
C96 C100 1.394 . S
C96 H112 0.930 . S
C97 C95 1.371 1_556 S
C97 C98 1.392 . S
C97 H113 0.931 . S
C98 C97 1.392 . S
C98 C99 1.331 1_556 S
C98 H116 0.932 . S
C99 C98 1.331 1_554 S
C99 C100 1.336 . S
C100 C96 1.394 . S
C100 C99 1.336 . S
C100 H115 0.929 . S
C101 C91 1.386 . S
C101 C94 1.357 . S
C101 H114 0.928 . S
H102 C78 0.931 . S
H103 C80 0.930 . S
H104 C82 0.929 . S
H105 C83 0.931 . S
H106 C85 0.930 . S
H107 C89 0.931 . S
H108 C87 0.931 . S
H109 C91 0.931 . S
H110 C92 0.929 . S
H111 C93 0.930 . S
H112 C96 0.930 . S
H113 C97 0.931 . S
H114 C101 0.928 . S
H115 C100 0.929 . S
H116 C98 0.932 . S
C117 C118 1.386 . S
C117 C119 1.397 . S
C117 H141 0.931 . S
C118 C117 1.386 . S
C118 C122 1.397 . S
C119 C117 1.397 . S
C119 C120 1.384 . S
C119 H142 0.930 . S
C120 C119 1.384 . S
C120 C121 1.377 . S
C120 C123 1.481 . S
C121 C120 1.377 . S
C121 C122 1.389 . S
C121 H143 0.929 . S
C122 C118 1.397 . S
C122 C121 1.389 . S
C122 H144 0.931 . S
C123 C120 1.481 . S
C123 C124 1.387 . S
C123 C128 1.390 . S
C124 C123 1.387 . S
C124 C125 1.401 . S
C124 H145 0.930 . S
C125 C124 1.401 . S
C125 C126 1.376 . S
C125 C134 1.511 . S
C126 C125 1.376 . S
C126 C127 1.392 . S
C126 H147 0.931 . S
C127 C126 1.392 . S
C127 C128 1.361 . S
C127 C129 1.500 . S
C128 C123 1.390 . S
C128 C127 1.361 . S
C128 H146 0.931 . S
C129 C127 1.500 . S
C129 C130 1.371 . S
C129 C131 1.365 . S
C130 C129 1.371 . S
C130 C140 1.386 . S
C130 H148 0.931 . S
C131 C129 1.365 . S
C131 C132 1.409 . S
C131 H149 0.929 . S
C132 C131 1.409 . S
C132 C133 1.380 . S
C132 H150 0.930 . S
C133 C132 1.380 . S
C133 C140 1.357 . S
C134 C125 1.511 . S
C134 C135 1.341 . S
C134 C136 1.371 . S
C135 C134 1.341 . S
C135 C139 1.394 . S
C135 H151 0.930 . S
C136 C134 1.371 . S
C136 C137 1.392 . S
C136 H152 0.931 . S
C137 C136 1.392 . S
C137 C138 1.331 . S
C137 H155 0.932 . S
C138 C137 1.331 . S
C138 C139 1.336 . S
C139 C135 1.394 . S
C139 C138 1.336 . S
C139 H154 0.929 . S
C140 C130 1.386 . S
C140 C133 1.357 . S
C140 H153 0.928 . S
H141 C117 0.931 . S
H142 C119 0.930 . S
H143 C121 0.929 . S
H144 C122 0.931 . S
H145 C124 0.930 . S
H146 C128 0.931 . S
H147 C126 0.931 . S
H148 C130 0.931 . S
H149 C131 0.929 . S
H150 C132 0.930 . S
H151 C135 0.930 . S
H152 C136 0.931 . S
H153 C140 0.928 . S
H154 C139 0.929 . S
H155 C137 0.932 . S
C156 O172 1.251 . S
C156 O174 1.254 1_455 S
N157 C158 1.333 . S
N157 C162 1.307 . S
N157 Zn163 2.020 . S
C158 N157 1.333 . S
C158 C159 1.379 . S
C158 H176 0.952 . S
C159 C158 1.379 . S
C159 C160 1.390 . S
C159 H186 0.949 . S
C160 C159 1.390 . S
C160 C161 1.357 . S
C161 C160 1.357 . S
C161 C162 1.370 . S
C161 H187 0.950 . S
C162 N157 1.307 . S
C162 C161 1.370 . S
C162 H180 0.948 . S
Zn163 N157 2.020 . S
Zn163 O172 2.039 1_545 S
Zn163 O178 2.034 1_545 S
Zn163 O182 2.025 . S
Zn163 O184 2.024 . S
C164 O183 1.246 . S
C164 O184 1.249 1_655 S
N165 C166 1.307 . S
N165 C167 1.333 . S
N165 Zn171 2.020 . S
C166 N165 1.307 . S
C166 C170 1.370 . S
C166 H177 0.948 . S
C167 N165 1.333 . S
C167 C168 1.379 . S
C167 H175 0.952 . S
C168 C167 1.379 . S
C168 C169 1.390 . S
C168 H188 0.949 . S
C169 C168 1.390 . S
C169 C170 1.357 . S
C170 C166 1.370 . S
C170 C169 1.357 . S
C170 H189 0.950 . S
Zn171 N165 2.020 . S
Zn171 O174 2.025 . S
Zn171 O179 2.024 . S
Zn171 O181 2.039 1_565 S
Zn171 O183 2.034 1_565 S
O172 C156 1.251 . S
O172 Zn163 2.039 1_565 S
C173 O178 1.246 . S
C173 O179 1.249 1_455 S
O174 C156 1.254 1_655 S
O174 Zn171 2.025 . S
H175 C167 0.952 . S
H176 C158 0.952 . S
H177 C166 0.948 . S
O178 Zn163 2.034 1_565 S
O178 C173 1.246 . S
O179 Zn171 2.024 . S
O179 C173 1.249 1_655 S
H180 C162 0.948 . S
O181 Zn171 2.039 1_545 S
O181 C185 1.251 . S
O182 Zn163 2.025 . S
O182 C185 1.254 1_455 S
O183 C164 1.246 . S
O183 Zn171 2.034 1_545 S
O184 Zn163 2.024 . S
O184 C164 1.249 1_455 S
C185 O181 1.251 . S
C185 O182 1.254 1_655 S
H186 C159 0.949 . S
H187 C161 0.950 . S
H188 C168 0.949 . S
H189 C170 0.950 . S
C190 O206 1.251 . S
C190 O208 1.254 . S
N191 C192 1.333 1_554 S
N191 C196 1.307 . S
N191 Zn197 2.020 . S
C192 N191 1.333 1_556 S
C192 C193 1.379 . S
C192 H210 0.952 . S
C193 C192 1.379 . S
C193 C194 1.390 1_556 S
C193 H220 0.949 . S
C194 C193 1.390 1_554 S
C194 C195 1.357 . S
C195 C194 1.357 . S
C195 C196 1.370 . S
C195 H221 0.950 . S
C196 N191 1.307 . S
C196 C195 1.370 . S
C196 H214 0.948 . S
Zn197 N191 2.020 . S
Zn197 O206 2.039 1_554 S
Zn197 O212 2.034 . S
Zn197 O216 2.025 . S
Zn197 O218 2.024 1_554 S
C198 O217 1.246 . S
C198 O218 1.249 . S
N199 C200 1.307 1_554 S
N199 C201 1.333 . S
N199 Zn205 2.020 . S
C200 N199 1.307 1_556 S
C200 C204 1.370 . S
C200 H211 0.948 . S
C201 N199 1.333 . S
C201 C202 1.379 . S
C201 H209 0.952 . S
C202 C201 1.379 . S
C202 C203 1.390 . S
C202 H222 0.949 . S
C203 C202 1.390 . S
C203 C204 1.357 1_554 S
C204 C200 1.370 . S
C204 C203 1.357 1_556 S
C204 H223 0.950 . S
Zn205 N199 2.020 . S
Zn205 O208 2.025 1_554 S
Zn205 O213 2.024 . S
Zn205 O215 2.039 . S
Zn205 O217 2.034 1_554 S
O206 C190 1.251 . S
O206 Zn197 2.039 1_556 S
C207 O212 1.246 . S
C207 O213 1.249 . S
O208 C190 1.254 . S
O208 Zn205 2.025 1_556 S
H209 C201 0.952 . S
H210 C192 0.952 . S
H211 C200 0.948 . S
O212 Zn197 2.034 . S
O212 C207 1.246 . S
O213 Zn205 2.024 . S
O213 C207 1.249 . S
H214 C196 0.948 . S
O215 Zn205 2.039 . S
O215 C219 1.251 . S
O216 Zn197 2.025 . S
O216 C219 1.254 . S
O217 C198 1.246 . S
O217 Zn205 2.034 1_556 S
O218 Zn197 2.024 1_556 S
O218 C198 1.249 . S
C219 O215 1.251 . S
C219 O216 1.254 . S
H220 C193 0.949 . S
H221 C195 0.950 . S
H222 C202 0.949 . S
H223 C204 0.950 . S
H224 C225 0.951 . S
C225 H224 0.951 . S
C225 C231 1.265 . S
H226 C231 0.950 . S
H227 C235 0.949 . S
H228 C236 0.950 . S
H229 C237 0.951 . S
H230 C238 0.951 . S
C231 C225 1.265 . S
C231 H226 0.950 . S
C231 C232 1.478 . S
C232 C231 1.478 . S
C232 C233 1.397 . S
C232 C249 1.394 . S
C233 C232 1.397 . S
C233 C234 1.438 . S
C233 C238 1.429 . S
C234 C233 1.438 . S
C234 C235 1.428 . S
C234 C247 1.394 . S
C235 H227 0.949 . S
C235 C234 1.428 . S
C235 C236 1.345 . S
C236 H228 0.950 . S
C236 C235 1.345 . S
C236 C237 1.424 . S
C237 H229 0.951 . S
C237 C236 1.424 . S
C237 C238 1.347 . S
C238 H230 0.951 . S
C238 C233 1.429 . S
C238 C237 1.347 . S
H239 C240 0.951 . S
C240 H239 0.951 . S
C240 C246 1.265 . S
H241 C246 0.950 . S
H242 C250 0.949 . S
H243 C251 0.950 . S
H244 C252 0.951 . S
H245 C253 0.951 . S
C246 C240 1.265 . S
C246 H241 0.950 . S
C246 C247 1.478 . S
C247 C234 1.394 . S
C247 C246 1.478 . S
C247 C248 1.397 . S
C248 C247 1.397 . S
C248 C249 1.438 . S
C248 C253 1.429 . S
C249 C232 1.394 . S
C249 C248 1.438 . S
C249 C250 1.428 . S
C250 H242 0.949 . S
C250 C249 1.428 . S
C250 C251 1.345 . S
C251 H243 0.950 . S
C251 C250 1.345 . S
C251 C252 1.424 . S
C252 H244 0.951 . S
C252 C251 1.424 . S
C252 C253 1.347 . S
C253 H245 0.951 . S
C253 C248 1.429 . S
C253 C252 1.347 . S
H254 C255 0.951 1_556 S
C255 H254 0.951 1_554 S
C255 C261 1.265 . S
H256 C261 0.950 . S
H257 C265 0.949 . S
H258 C266 0.950 . S
H259 C267 0.951 . S
H260 C268 0.951 . S
C261 C255 1.265 . S
C261 H256 0.950 . S
C261 C262 1.478 . S
C262 C261 1.478 . S
C262 C263 1.397 . S
C262 C279 1.394 1_554 S
C263 C262 1.397 . S
C263 C264 1.438 . S
C263 C268 1.429 . S
C264 C263 1.438 . S
C264 C265 1.428 . S
C264 C277 1.394 . S
C265 H257 0.949 . S
C265 C264 1.428 . S
C265 C266 1.345 . S
C266 H258 0.950 . S
C266 C265 1.345 . S
C266 C267 1.424 . S
C267 H259 0.951 . S
C267 C266 1.424 . S
C267 C268 1.347 . S
C268 H260 0.951 . S
C268 C263 1.429 . S
C268 C267 1.347 . S
H269 C270 0.951 . S
C270 H269 0.951 . S
C270 C276 1.265 1_554 S
H271 C276 0.950 . S
H272 C280 0.949 . S
H273 C281 0.950 . S
H274 C282 0.951 . S
H275 C283 0.951 . S
C276 C270 1.265 1_556 S
C276 H271 0.950 . S
C276 C277 1.478 1_556 S
C277 C264 1.394 . S
C277 C276 1.478 1_554 S
C277 C278 1.397 1_554 S
C278 C277 1.397 1_556 S
C278 C279 1.438 . S
C278 C283 1.429 . S
C279 C262 1.394 1_556 S
C279 C278 1.438 . S
C279 C280 1.428 . S
C280 H272 0.949 . S
C280 C279 1.428 . S
C280 C281 1.345 . S
C281 H273 0.950 . S
C281 C280 1.345 . S
C281 C282 1.424 . S
C282 H274 0.951 . S
C282 C281 1.424 . S
C282 C283 1.347 . S
C283 H275 0.951 . S
C283 C278 1.429 . S
C283 C282 1.347 . S
H284 C285 0.951 . S
C285 H284 0.951 . S
C285 C291 1.265 . S
H286 C291 0.950 . S
H287 C295 0.949 . S
H288 C296 0.950 . S
H289 C297 0.951 . S
H290 C298 0.951 . S
C291 C285 1.265 . S
C291 H286 0.950 . S
C291 C292 1.478 . S
C292 C291 1.478 . S
C292 C293 1.397 . S
C292 C309 1.394 . S
C293 C292 1.397 . S
C293 C294 1.438 . S
C293 C298 1.429 . S
C294 C293 1.438 . S
C294 C295 1.428 . S
C294 C307 1.394 . S
C295 H287 0.949 . S
C295 C294 1.428 . S
C295 C296 1.345 . S
C296 H288 0.950 . S
C296 C295 1.345 . S
C296 C297 1.424 . S
C297 H289 0.951 . S
C297 C296 1.424 . S
C297 C298 1.347 . S
C298 H290 0.951 . S
C298 C293 1.429 . S
C298 C297 1.347 . S
H299 C300 0.951 . S
C300 H299 0.951 . S
C300 C306 1.265 . S
H301 C306 0.950 . S
H302 C310 0.949 . S
H303 C311 0.950 . S
H304 C312 0.951 . S
H305 C313 0.951 . S
C306 C300 1.265 . S
C306 H301 0.950 . S
C306 C307 1.478 . S
C307 C294 1.394 . S
C307 C306 1.478 . S
C307 C308 1.397 . S
C308 C307 1.397 . S
C308 C309 1.438 . S
C308 C313 1.429 . S
C309 C292 1.394 . S
C309 C308 1.438 . S
C309 C310 1.428 . S
C310 H302 0.949 . S
C310 C309 1.428 . S
C310 C311 1.345 . S
C311 H303 0.950 . S
C311 C310 1.345 . S
C311 C312 1.424 . S
C312 H304 0.951 . S
C312 C311 1.424 . S
C312 C313 1.347 . S
C313 H305 0.951 . S
C313 C308 1.429 . S
C313 C312 1.347 . S
H314 C315 0.951 . S
C315 H314 0.951 . S
C315 C321 1.265 . S
H316 C321 0.950 . S
H317 C325 0.949 . S
H318 C326 0.950 . S
H319 C327 0.951 . S
H320 C328 0.951 . S
C321 C315 1.265 . S
C321 H316 0.950 . S
C321 C322 1.478 . S
C322 C321 1.478 . S
C322 C323 1.397 1_554 S
C322 C339 1.394 . S
C323 C322 1.397 1_556 S
C323 C324 1.438 . S
C323 C328 1.429 . S
C324 C323 1.438 . S
C324 C325 1.428 . S
C324 C337 1.394 1_556 S
C325 H317 0.949 . S
C325 C324 1.428 . S
C325 C326 1.345 . S
C326 H318 0.950 . S
C326 C325 1.345 . S
C326 C327 1.424 . S
C327 H319 0.951 . S
C327 C326 1.424 . S
C327 C328 1.347 . S
C328 H320 0.951 . S
C328 C323 1.429 . S
C328 C327 1.347 . S
H329 C330 0.951 . S
C330 H329 0.951 . S
C330 C336 1.265 . S
H331 C336 0.950 . S
H332 C340 0.949 . S
H333 C341 0.950 . S
H334 C342 0.951 . S
H335 C343 0.951 . S
C336 C330 1.265 . S
C336 H331 0.950 . S
C336 C337 1.478 . S
C337 C324 1.394 1_554 S
C337 C336 1.478 . S
C337 C338 1.397 . S
C338 C337 1.397 . S
C338 C339 1.438 . S
C338 C343 1.429 . S
C339 C322 1.394 . S
C339 C338 1.438 . S
C339 C340 1.428 . S
C340 H332 0.949 . S
C340 C339 1.428 . S
C340 C341 1.345 . S
C341 H333 0.950 . S
C341 C340 1.345 . S
C341 C342 1.424 . S
C342 H334 0.951 . S
C342 C341 1.424 . S
C342 C343 1.347 . S
C343 H335 0.951 . S
C343 C338 1.429 . S
C343 C342 1.347 . S
H344 C345 0.951 . S
C345 H344 0.951 . S
C345 C351 1.265 . S
H346 C351 0.950 . S
H347 C355 0.949 1_655 S
H348 C356 0.950 . S
H349 C357 0.951 . S
H350 C358 0.951 . S
C351 C345 1.265 . S
C351 H346 0.950 . S
C351 C352 1.478 . S
C352 C351 1.478 . S
C352 C353 1.397 . S
C352 C369 1.394 . S
C353 C352 1.397 . S
C353 C354 1.438 . S
C353 C358 1.429 . S
C354 C353 1.438 . S
C354 C355 1.428 . S
C354 C367 1.394 . S
C355 H347 0.949 1_455 S
C355 C354 1.428 . S
C355 C356 1.345 1_455 S
C356 H348 0.950 . S
C356 C355 1.345 1_655 S
C356 C357 1.424 . S
C357 H349 0.951 . S
C357 C356 1.424 . S
C357 C358 1.347 1_655 S
C358 H350 0.951 . S
C358 C353 1.429 . S
C358 C357 1.347 1_455 S
H359 C360 0.951 . S
C360 H359 0.951 . S
C360 C366 1.265 . S
H361 C366 0.950 . S
H362 C370 0.949 . S
H363 C371 0.950 . S
H364 C372 0.951 . S
H365 C373 0.951 . S
C366 C360 1.265 . S
C366 H361 0.950 . S
C366 C367 1.478 . S
C367 C354 1.394 . S
C367 C366 1.478 . S
C367 C368 1.397 . S
C368 C367 1.397 . S
C368 C369 1.438 . S
C368 C373 1.429 . S
C369 C352 1.394 . S
C369 C368 1.438 . S
C369 C370 1.428 . S
C370 H362 0.949 . S
C370 C369 1.428 . S
C370 C371 1.345 . S
C371 H363 0.950 . S
C371 C370 1.345 . S
C371 C372 1.424 . S
C372 H364 0.951 . S
C372 C371 1.424 . S
C372 C373 1.347 . S
C373 H365 0.951 . S
C373 C368 1.429 . S
C373 C372 1.347 . S
H374 C375 0.951 . S
C375 H374 0.951 . S
C375 C381 1.265 . S
H376 C381 0.950 . S
H377 C385 0.949 . S
H378 C386 0.950 . S
H379 C387 0.951 . S
H380 C388 0.951 . S
C381 C375 1.265 . S
C381 H376 0.950 . S
C381 C382 1.478 . S
C382 C381 1.478 . S
C382 C383 1.397 . S
C382 C399 1.394 . S
C383 C382 1.397 . S
C383 C384 1.438 . S
C383 C388 1.429 . S
C384 C383 1.438 . S
C384 C385 1.428 . S
C384 C397 1.394 . S
C385 H377 0.949 . S
C385 C384 1.428 . S
C385 C386 1.345 . S
C386 H378 0.950 . S
C386 C385 1.345 . S
C386 C387 1.424 . S
C387 H379 0.951 . S
C387 C386 1.424 . S
C387 C388 1.347 . S
C388 H380 0.951 . S
C388 C383 1.429 . S
C388 C387 1.347 . S
H389 C390 0.951 . S
C390 H389 0.951 . S
C390 C396 1.265 . S
H391 C396 0.950 . S
H392 C400 0.949 . S
H393 C401 0.950 . S
H394 C402 0.951 . S
H395 C403 0.951 . S
C396 C390 1.265 . S
C396 H391 0.950 . S
C396 C397 1.478 . S
C397 C384 1.394 . S
C397 C396 1.478 . S
C397 C398 1.397 . S
C398 C397 1.397 . S
C398 C399 1.438 . S
C398 C403 1.429 . S
C399 C382 1.394 . S
C399 C398 1.438 . S
C399 C400 1.428 . S
C400 H392 0.949 . S
C400 C399 1.428 . S
C400 C401 1.345 . S
C401 H393 0.950 . S
C401 C400 1.345 . S
C401 C402 1.424 . S
C402 H394 0.951 . S
C402 C401 1.424 . S
C402 C403 1.347 . S
C403 H395 0.951 . S
C403 C398 1.429 . S
C403 C402 1.347 . S
H404 C405 0.951 . S
C405 H404 0.951 . S
C405 C411 1.265 . S
H406 C411 0.950 . S
H407 C415 0.949 . S
H408 C416 0.950 . S
H409 C417 0.951 . S
H410 C418 0.951 . S
C411 C405 1.265 . S
C411 H406 0.950 . S
C411 C412 1.478 . S
C412 C411 1.478 . S
C412 C413 1.397 . S
C412 C429 1.394 . S
C413 C412 1.397 . S
C413 C414 1.438 . S
C413 C418 1.429 . S
C414 C413 1.438 . S
C414 C415 1.428 1_655 S
C414 C427 1.394 . S
C415 H407 0.949 . S
C415 C414 1.428 1_455 S
C415 C416 1.345 . S
C416 H408 0.950 . S
C416 C415 1.345 . S
C416 C417 1.424 . S
C417 H409 0.951 . S
C417 C416 1.424 . S
C417 C418 1.347 1_455 S
C418 H410 0.951 . S
C418 C413 1.429 . S
C418 C417 1.347 1_655 S
H419 C420 0.951 . S
C420 H419 0.951 . S
C420 C426 1.265 . S
H421 C426 0.950 . S
H422 C430 0.949 . S
H423 C431 0.950 . S
H424 C432 0.951 . S
H425 C433 0.951 . S
C426 C420 1.265 . S
C426 H421 0.950 . S
C426 C427 1.478 . S
C427 C414 1.394 . S
C427 C426 1.478 . S
C427 C428 1.397 . S
C428 C427 1.397 . S
C428 C429 1.438 . S
C428 C433 1.429 . S
C429 C412 1.394 . S
C429 C428 1.438 . S
C429 C430 1.428 . S
C430 H422 0.949 . S
C430 C429 1.428 . S
C430 C431 1.345 . S
C431 H423 0.950 . S
C431 C430 1.345 . S
C431 C432 1.424 . S
C432 H424 0.951 . S
C432 C431 1.424 . S
C432 C433 1.347 . S
C433 H425 0.951 . S
C433 C428 1.429 . S
C433 C432 1.347 . S
H434 C435 0.951 . S
C435 H434 0.951 . S
C435 C441 1.265 . S
H436 C441 0.950 . S
H437 C445 0.949 . S
H438 C446 0.950 . S
H439 C447 0.951 . S
H440 C448 0.951 . S
C441 C435 1.265 . S
C441 H436 0.950 . S
C441 C442 1.478 . S
C442 C441 1.478 . S
C442 C443 1.397 . S
C442 C459 1.394 . S
C443 C442 1.397 . S
C443 C444 1.438 . S
C443 C448 1.429 . S
C444 C443 1.438 . S
C444 C445 1.428 . S
C444 C457 1.394 . S
C445 H437 0.949 . S
C445 C444 1.428 . S
C445 C446 1.345 . S
C446 H438 0.950 . S
C446 C445 1.345 . S
C446 C447 1.424 . S
C447 H439 0.951 . S
C447 C446 1.424 . S
C447 C448 1.347 . S
C448 H440 0.951 . S
C448 C443 1.429 . S
C448 C447 1.347 . S
H449 C450 0.951 . S
C450 H449 0.951 . S
C450 C456 1.265 . S
H451 C456 0.950 . S
H452 C460 0.949 . S
H453 C461 0.950 . S
H454 C462 0.951 . S
H455 C463 0.951 . S
C456 C450 1.265 . S
C456 H451 0.950 . S
C456 C457 1.478 . S
C457 C444 1.394 . S
C457 C456 1.478 . S
C457 C458 1.397 . S
C458 C457 1.397 . S
C458 C459 1.438 . S
C458 C463 1.429 . S
C459 C442 1.394 . S
C459 C458 1.438 . S
C459 C460 1.428 . S
C460 H452 0.949 . S
C460 C459 1.428 . S
C460 C461 1.345 . S
C461 H453 0.950 . S
C461 C460 1.345 . S
C461 C462 1.424 . S
C462 H454 0.951 . S
C462 C461 1.424 . S
C462 C463 1.347 . S
C463 H455 0.951 . S
C463 C458 1.429 . S
C463 C462 1.347 . S
H464 C465 0.951 . S
C465 H464 0.951 . S
C465 C471 1.265 . S
H466 C471 0.950 . S
H467 C475 0.949 . S
H468 C476 0.950 . S
H469 C477 0.951 . S
H470 C478 0.951 . S
C471 C465 1.265 . S
C471 H466 0.950 . S
C471 C472 1.478 . S
C472 C471 1.478 . S
C472 C473 1.397 . S
C472 C489 1.394 . S
C473 C472 1.397 . S
C473 C474 1.438 . S
C473 C478 1.429 . S
C474 C473 1.438 . S
C474 C475 1.428 . S
C474 C487 1.394 . S
C475 H467 0.949 . S
C475 C474 1.428 . S
C475 C476 1.345 . S
C476 H468 0.950 . S
C476 C475 1.345 . S
C476 C477 1.424 . S
C477 H469 0.951 . S
C477 C476 1.424 . S
C477 C478 1.347 . S
C478 H470 0.951 . S
C478 C473 1.429 . S
C478 C477 1.347 . S
H479 C480 0.951 . S
C480 H479 0.951 . S
C480 C486 1.265 . S
H481 C486 0.950 . S
H482 C490 0.949 . S
H483 C491 0.950 . S
H484 C492 0.951 . S
H485 C493 0.951 . S
C486 C480 1.265 . S
C486 H481 0.950 . S
C486 C487 1.478 . S
C487 C474 1.394 . S
C487 C486 1.478 . S
C487 C488 1.397 . S
C488 C487 1.397 . S
C488 C489 1.438 . S
C488 C493 1.429 . S
C489 C472 1.394 . S
C489 C488 1.438 . S
C489 C490 1.428 . S
C490 H482 0.949 . S
C490 C489 1.428 . S
C490 C491 1.345 . S
C491 H483 0.950 . S
C491 C490 1.345 . S
C491 C492 1.424 . S
C492 H484 0.951 . S
C492 C491 1.424 . S
C492 C493 1.347 . S
C493 H485 0.951 . S
C493 C488 1.429 . S
C493 C492 1.347 . S
H494 C495 0.951 . S
C495 H494 0.951 . S
C495 C501 1.265 . S
H496 C501 0.950 . S
H497 C505 0.949 . S
H498 C506 0.950 . S
H499 C507 0.951 . S
H500 C508 0.951 . S
C501 C495 1.265 . S
C501 H496 0.950 . S
C501 C502 1.478 . S
C502 C501 1.478 . S
C502 C503 1.397 . S
C502 C519 1.394 . S
C503 C502 1.397 . S
C503 C504 1.438 . S
C503 C508 1.429 1_655 S
C504 C503 1.438 . S
C504 C505 1.428 1_655 S
C504 C517 1.394 . S
C505 H497 0.949 . S
C505 C504 1.428 1_455 S
C505 C506 1.345 . S
C506 H498 0.950 . S
C506 C505 1.345 . S
C506 C507 1.424 . S
C507 H499 0.951 . S
C507 C506 1.424 . S
C507 C508 1.347 . S
C508 H500 0.951 . S
C508 C503 1.429 1_455 S
C508 C507 1.347 . S
H509 C510 0.951 . S
C510 H509 0.951 . S
C510 C516 1.265 . S
H511 C516 0.950 . S
H512 C520 0.949 . S
H513 C521 0.950 . S
H514 C522 0.951 . S
H515 C523 0.951 . S
C516 C510 1.265 . S
C516 H511 0.950 . S
C516 C517 1.478 . S
C517 C504 1.394 . S
C517 C516 1.478 . S
C517 C518 1.397 . S
C518 C517 1.397 . S
C518 C519 1.438 . S
C518 C523 1.429 . S
C519 C502 1.394 . S
C519 C518 1.438 . S
C519 C520 1.428 . S
C520 H512 0.949 . S
C520 C519 1.428 . S
C520 C521 1.345 . S
C521 H513 0.950 . S
C521 C520 1.345 . S
C521 C522 1.424 . S
C522 H514 0.951 . S
C522 C521 1.424 . S
C522 C523 1.347 . S
C523 H515 0.951 . S
C523 C518 1.429 . S
C523 C522 1.347 . S
H524 C525 0.951 . S
C525 H524 0.951 . S
C525 C531 1.265 . S
H526 C531 0.950 . S
H527 C535 0.949 . S
H528 C536 0.950 . S
H529 C537 0.951 . S
H530 C538 0.951 . S
C531 C525 1.265 . S
C531 H526 0.950 . S
C531 C532 1.478 . S
C532 C531 1.478 . S
C532 C533 1.397 . S
C532 C549 1.394 . S
C533 C532 1.397 . S
C533 C534 1.438 . S
C533 C538 1.429 . S
C534 C533 1.438 . S
C534 C535 1.428 . S
C534 C547 1.394 . S
C535 H527 0.949 . S
C535 C534 1.428 . S
C535 C536 1.345 . S
C536 H528 0.950 . S
C536 C535 1.345 . S
C536 C537 1.424 . S
C537 H529 0.951 . S
C537 C536 1.424 . S
C537 C538 1.347 . S
C538 H530 0.951 . S
C538 C533 1.429 . S
C538 C537 1.347 . S
H539 C540 0.951 . S
C540 H539 0.951 . S
C540 C546 1.265 . S
H541 C546 0.950 . S
H542 C550 0.949 . S
H543 C551 0.950 . S
H544 C552 0.951 . S
H545 C553 0.951 . S
C546 C540 1.265 . S
C546 H541 0.950 . S
C546 C547 1.478 . S
C547 C534 1.394 . S
C547 C546 1.478 . S
C547 C548 1.397 . S
C548 C547 1.397 . S
C548 C549 1.438 . S
C548 C553 1.429 . S
C549 C532 1.394 . S
C549 C548 1.438 . S
C549 C550 1.428 . S
C550 H542 0.949 . S
C550 C549 1.428 . S
C550 C551 1.345 . S
C551 H543 0.950 . S
C551 C550 1.345 . S
C551 C552 1.424 . S
C552 H544 0.951 . S
C552 C551 1.424 . S
C552 C553 1.347 . S
C553 H545 0.951 . S
C553 C548 1.429 . S
C553 C552 1.347 . S
H554 C555 0.951 . S
C555 H554 0.951 . S
C555 C561 1.265 . S
H556 C561 0.950 . S
H557 C565 0.949 . S
H558 C566 0.950 . S
H559 C567 0.951 . S
H560 C568 0.951 . S
C561 C555 1.265 . S
C561 H556 0.950 . S
C561 C562 1.478 . S
C562 C561 1.478 . S
C562 C563 1.397 . S
C562 C579 1.394 . S
C563 C562 1.397 . S
C563 C564 1.438 . S
C563 C568 1.429 . S
C564 C563 1.438 . S
C564 C565 1.428 . S
C564 C577 1.394 . S
C565 H557 0.949 . S
C565 C564 1.428 . S
C565 C566 1.345 . S
C566 H558 0.950 . S
C566 C565 1.345 . S
C566 C567 1.424 . S
C567 H559 0.951 . S
C567 C566 1.424 . S
C567 C568 1.347 . S
C568 H560 0.951 . S
C568 C563 1.429 . S
C568 C567 1.347 . S
H569 C570 0.951 . S
C570 H569 0.951 . S
C570 C576 1.265 . S
H571 C576 0.950 . S
H572 C580 0.949 . S
H573 C581 0.950 . S
H574 C582 0.951 . S
H575 C583 0.951 . S
C576 C570 1.265 . S
C576 H571 0.950 . S
C576 C577 1.478 . S
C577 C564 1.394 . S
C577 C576 1.478 . S
C577 C578 1.397 . S
C578 C577 1.397 . S
C578 C579 1.438 . S
C578 C583 1.429 . S
C579 C562 1.394 . S
C579 C578 1.438 . S
C579 C580 1.428 . S
C580 H572 0.949 . S
C580 C579 1.428 . S
C580 C581 1.345 . S
C581 H573 0.950 . S
C581 C580 1.345 . S
C581 C582 1.424 . S
C582 H574 0.951 . S
C582 C581 1.424 . S
C582 C583 1.347 . S
C583 H575 0.951 . S
C583 C578 1.429 . S
C583 C582 1.347 . S
C240 C160 1.631 . S
C225 C138 1.571 . S
C255 C21 1.571 . S
C270 C203 1.576 . S
C285 C60 1.590 . S
C300 C169 1.631 . S
C315 C99 1.514 . S
C330 C194 1.543 . S
C360 C156 1.631 . S
C345 C16 1.624 . S
C390 C198 1.708 . S
C375 C40 1.676 . S
C405 C79 1.618 . S
C420 C164 1.626 . S
C435 C133 1.645 . S
C450 C190 1.699 . S
C480 C219 1.707 . S
C465 C55 1.655 . S
C510 C185 1.609 . S
C495 C94 1.564 . S
C540 C207 1.704 . S
C525 C118 1.655 . S
C555 C1 1.578 . S
C570 C173 1.602 . S
