# Generated by pormake.
# Topology tbo, (3,4)-cn, num edge types: 1
# Building blocks:
#     Node 0, Type 0, BuildingBlock: CUQRIR_clean_linker_1, # of connection points: 3
#     Node 1, Type 0, BuildingBlock: CUQRIR_clean_linker_1, # of connection points: 3
#     Node 2, Type 0, BuildingBlock: CUQRIR_clean_linker_1, # of connection points: 3
#     Node 3, Type 0, BuildingBlock: CUQRIR_clean_linker_1, # of connection points: 3
#     Node 4, Type 0, BuildingBlock: CUQRIR_clean_linker_1, # of connection points: 3
#     Node 5, Type 0, BuildingBlock: CUQRIR_clean_linker_1, # of connection points: 3
#     Node 6, Type 0, BuildingBlock: CUQRIR_clean_linker_1, # of connection points: 3
#     Node 7, Type 0, BuildingBlock: CUQRIR_clean_linker_1, # of connection points: 3
#     Node 8, Type 0, BuildingBlock: CUQRIR_clean_linker_1, # of connection points: 3
#     Node 9, Type 0, BuildingBlock: CUQRIR_clean_linker_1, # of connection points: 3
#     Node 10, Type 0, BuildingBlock: CUQRIR_clean_linker_1, # of connection points: 3
#     Node 11, Type 0, BuildingBlock: CUQRIR_clean_linker_1, # of connection points: 3
#     Node 12, Type 0, BuildingBlock: CUQRIR_clean_linker_1, # of connection points: 3
#     Node 13, Type 0, BuildingBlock: CUQRIR_clean_linker_1, # of connection points: 3
#     Node 14, Type 0, BuildingBlock: CUQRIR_clean_linker_1, # of connection points: 3
#     Node 15, Type 0, BuildingBlock: CUQRIR_clean_linker_1, # of connection points: 3
#     Node 16, Type 0, BuildingBlock: CUQRIR_clean_linker_1, # of connection points: 3
#     Node 17, Type 0, BuildingBlock: CUQRIR_clean_linker_1, # of connection points: 3
#     Node 18, Type 0, BuildingBlock: CUQRIR_clean_linker_1, # of connection points: 3
#     Node 19, Type 0, BuildingBlock: CUQRIR_clean_linker_1, # of connection points: 3
#     Node 20, Type 0, BuildingBlock: CUQRIR_clean_linker_1, # of connection points: 3
#     Node 21, Type 0, BuildingBlock: CUQRIR_clean_linker_1, # of connection points: 3
#     Node 22, Type 0, BuildingBlock: CUQRIR_clean_linker_1, # of connection points: 3
#     Node 23, Type 0, BuildingBlock: CUQRIR_clean_linker_1, # of connection points: 3
#     Node 24, Type 0, BuildingBlock: CUQRIR_clean_linker_1, # of connection points: 3
#     Node 25, Type 0, BuildingBlock: CUQRIR_clean_linker_1, # of connection points: 3
#     Node 26, Type 0, BuildingBlock: CUQRIR_clean_linker_1, # of connection points: 3
#     Node 27, Type 0, BuildingBlock: CUQRIR_clean_linker_1, # of connection points: 3
#     Node 28, Type 0, BuildingBlock: CUQRIR_clean_linker_1, # of connection points: 3
#     Node 29, Type 0, BuildingBlock: CUQRIR_clean_linker_1, # of connection points: 3
#     Node 30, Type 0, BuildingBlock: CUQRIR_clean_linker_1, # of connection points: 3
#     Node 31, Type 0, BuildingBlock: CUQRIR_clean_linker_1, # of connection points: 3
#     Node 32, Type 1, BuildingBlock: ESEHIV_clean_sbu_0, # of connection points: 4
#     Node 33, Type 1, BuildingBlock: ESEHIV_clean_sbu_0, # of connection points: 4
#     Node 34, Type 1, BuildingBlock: ESEHIV_clean_sbu_0, # of connection points: 4
#     Node 35, Type 1, BuildingBlock: ESEHIV_clean_sbu_0, # of connection points: 4
#     Node 36, Type 1, BuildingBlock: ESEHIV_clean_sbu_0, # of connection points: 4
#     Node 37, Type 1, BuildingBlock: ESEHIV_clean_sbu_0, # of connection points: 4
#     Node 38, Type 1, BuildingBlock: ESEHIV_clean_sbu_0, # of connection points: 4
#     Node 39, Type 1, BuildingBlock: ESEHIV_clean_sbu_0, # of connection points: 4
#     Node 40, Type 1, BuildingBlock: ESEHIV_clean_sbu_0, # of connection points: 4
#     Node 41, Type 1, BuildingBlock: ESEHIV_clean_sbu_0, # of connection points: 4
#     Node 42, Type 1, BuildingBlock: ESEHIV_clean_sbu_0, # of connection points: 4
#     Node 43, Type 1, BuildingBlock: ESEHIV_clean_sbu_0, # of connection points: 4
#     Node 44, Type 1, BuildingBlock: ESEHIV_clean_sbu_0, # of connection points: 4
#     Node 45, Type 1, BuildingBlock: ESEHIV_clean_sbu_0, # of connection points: 4
#     Node 46, Type 1, BuildingBlock: ESEHIV_clean_sbu_0, # of connection points: 4
#     Node 47, Type 1, BuildingBlock: ESEHIV_clean_sbu_0, # of connection points: 4
#     Node 48, Type 1, BuildingBlock: ESEHIV_clean_sbu_0, # of connection points: 4
#     Node 49, Type 1, BuildingBlock: ESEHIV_clean_sbu_0, # of connection points: 4
#     Node 50, Type 1, BuildingBlock: ESEHIV_clean_sbu_0, # of connection points: 4
#     Node 51, Type 1, BuildingBlock: ESEHIV_clean_sbu_0, # of connection points: 4
#     Node 52, Type 1, BuildingBlock: ESEHIV_clean_sbu_0, # of connection points: 4
#     Node 53, Type 1, BuildingBlock: ESEHIV_clean_sbu_0, # of connection points: 4
#     Node 54, Type 1, BuildingBlock: ESEHIV_clean_sbu_0, # of connection points: 4
#     Node 55, Type 1, BuildingBlock: ESEHIV_clean_sbu_0, # of connection points: 4
#     Edge 56, Type (0, 1), BuildingBlock: TEMPAE_clean_linker_10, # of connection points: 2
#     Edge 57, Type (0, 1), BuildingBlock: TEMPAE_clean_linker_10, # of connection points: 2
#     Edge 58, Type (0, 1), BuildingBlock: TEMPAE_clean_linker_10, # of connection points: 2
#     Edge 59, Type (0, 1), BuildingBlock: TEMPAE_clean_linker_10, # of connection points: 2
#     Edge 60, Type (0, 1), BuildingBlock: TEMPAE_clean_linker_10, # of connection points: 2
#     Edge 61, Type (0, 1), BuildingBlock: TEMPAE_clean_linker_10, # of connection points: 2
#     Edge 62, Type (0, 1), BuildingBlock: TEMPAE_clean_linker_10, # of connection points: 2
#     Edge 63, Type (0, 1), BuildingBlock: TEMPAE_clean_linker_10, # of connection points: 2
#     Edge 64, Type (0, 1), BuildingBlock: TEMPAE_clean_linker_10, # of connection points: 2
#     Edge 65, Type (0, 1), BuildingBlock: TEMPAE_clean_linker_10, # of connection points: 2
#     Edge 66, Type (0, 1), BuildingBlock: TEMPAE_clean_linker_10, # of connection points: 2
#     Edge 67, Type (0, 1), BuildingBlock: TEMPAE_clean_linker_10, # of connection points: 2
#     Edge 68, Type (0, 1), BuildingBlock: TEMPAE_clean_linker_10, # of connection points: 2
#     Edge 69, Type (0, 1), BuildingBlock: TEMPAE_clean_linker_10, # of connection points: 2
#     Edge 70, Type (0, 1), BuildingBlock: TEMPAE_clean_linker_10, # of connection points: 2
#     Edge 71, Type (0, 1), BuildingBlock: TEMPAE_clean_linker_10, # of connection points: 2
#     Edge 72, Type (0, 1), BuildingBlock: TEMPAE_clean_linker_10, # of connection points: 2
#     Edge 73, Type (0, 1), BuildingBlock: TEMPAE_clean_linker_10, # of connection points: 2
#     Edge 74, Type (0, 1), BuildingBlock: TEMPAE_clean_linker_10, # of connection points: 2
#     Edge 75, Type (0, 1), BuildingBlock: TEMPAE_clean_linker_10, # of connection points: 2
#     Edge 76, Type (0, 1), BuildingBlock: TEMPAE_clean_linker_10, # of connection points: 2
#     Edge 77, Type (0, 1), BuildingBlock: TEMPAE_clean_linker_10, # of connection points: 2
#     Edge 78, Type (0, 1), BuildingBlock: TEMPAE_clean_linker_10, # of connection points: 2
#     Edge 79, Type (0, 1), BuildingBlock: TEMPAE_clean_linker_10, # of connection points: 2
#     Edge 80, Type (0, 1), BuildingBlock: TEMPAE_clean_linker_10, # of connection points: 2
#     Edge 81, Type (0, 1), BuildingBlock: TEMPAE_clean_linker_10, # of connection points: 2
#     Edge 82, Type (0, 1), BuildingBlock: TEMPAE_clean_linker_10, # of connection points: 2
#     Edge 83, Type (0, 1), BuildingBlock: TEMPAE_clean_linker_10, # of connection points: 2
#     Edge 84, Type (0, 1), BuildingBlock: TEMPAE_clean_linker_10, # of connection points: 2
#     Edge 85, Type (0, 1), BuildingBlock: TEMPAE_clean_linker_10, # of connection points: 2
#     Edge 86, Type (0, 1), BuildingBlock: TEMPAE_clean_linker_10, # of connection points: 2
#     Edge 87, Type (0, 1), BuildingBlock: TEMPAE_clean_linker_10, # of connection points: 2
#     Edge 88, Type (0, 1), BuildingBlock: TEMPAE_clean_linker_10, # of connection points: 2
#     Edge 89, Type (0, 1), BuildingBlock: TEMPAE_clean_linker_10, # of connection points: 2
#     Edge 90, Type (0, 1), BuildingBlock: TEMPAE_clean_linker_10, # of connection points: 2
#     Edge 91, Type (0, 1), BuildingBlock: TEMPAE_clean_linker_10, # of connection points: 2
#     Edge 92, Type (0, 1), BuildingBlock: TEMPAE_clean_linker_10, # of connection points: 2
#     Edge 93, Type (0, 1), BuildingBlock: TEMPAE_clean_linker_10, # of connection points: 2
#     Edge 94, Type (0, 1), BuildingBlock: TEMPAE_clean_linker_10, # of connection points: 2
#     Edge 95, Type (0, 1), BuildingBlock: TEMPAE_clean_linker_10, # of connection points: 2
#     Edge 96, Type (0, 1), BuildingBlock: TEMPAE_clean_linker_10, # of connection points: 2
#     Edge 97, Type (0, 1), BuildingBlock: TEMPAE_clean_linker_10, # of connection points: 2
#     Edge 98, Type (0, 1), BuildingBlock: TEMPAE_clean_linker_10, # of connection points: 2
#     Edge 99, Type (0, 1), BuildingBlock: TEMPAE_clean_linker_10, # of connection points: 2
#     Edge 100, Type (0, 1), BuildingBlock: TEMPAE_clean_linker_10, # of connection points: 2
#     Edge 101, Type (0, 1), BuildingBlock: TEMPAE_clean_linker_10, # of connection points: 2
#     Edge 102, Type (0, 1), BuildingBlock: TEMPAE_clean_linker_10, # of connection points: 2
#     Edge 103, Type (0, 1), BuildingBlock: TEMPAE_clean_linker_10, # of connection points: 2
#     Edge 104, Type (0, 1), BuildingBlock: TEMPAE_clean_linker_10, # of connection points: 2
#     Edge 105, Type (0, 1), BuildingBlock: TEMPAE_clean_linker_10, # of connection points: 2
#     Edge 106, Type (0, 1), BuildingBlock: TEMPAE_clean_linker_10, # of connection points: 2
#     Edge 107, Type (0, 1), BuildingBlock: TEMPAE_clean_linker_10, # of connection points: 2
#     Edge 108, Type (0, 1), BuildingBlock: TEMPAE_clean_linker_10, # of connection points: 2
#     Edge 109, Type (0, 1), BuildingBlock: TEMPAE_clean_linker_10, # of connection points: 2
#     Edge 110, Type (0, 1), BuildingBlock: TEMPAE_clean_linker_10, # of connection points: 2
#     Edge 111, Type (0, 1), BuildingBlock: TEMPAE_clean_linker_10, # of connection points: 2
#     Edge 112, Type (0, 1), BuildingBlock: TEMPAE_clean_linker_10, # of connection points: 2
#     Edge 113, Type (0, 1), BuildingBlock: TEMPAE_clean_linker_10, # of connection points: 2
#     Edge 114, Type (0, 1), BuildingBlock: TEMPAE_clean_linker_10, # of connection points: 2
#     Edge 115, Type (0, 1), BuildingBlock: TEMPAE_clean_linker_10, # of connection points: 2
#     Edge 116, Type (0, 1), BuildingBlock: TEMPAE_clean_linker_10, # of connection points: 2
#     Edge 117, Type (0, 1), BuildingBlock: TEMPAE_clean_linker_10, # of connection points: 2
#     Edge 118, Type (0, 1), BuildingBlock: TEMPAE_clean_linker_10, # of connection points: 2
#     Edge 119, Type (0, 1), BuildingBlock: TEMPAE_clean_linker_10, # of connection points: 2
#     Edge 120, Type (0, 1), BuildingBlock: TEMPAE_clean_linker_10, # of connection points: 2
#     Edge 121, Type (0, 1), BuildingBlock: TEMPAE_clean_linker_10, # of connection points: 2
#     Edge 122, Type (0, 1), BuildingBlock: TEMPAE_clean_linker_10, # of connection points: 2
#     Edge 123, Type (0, 1), BuildingBlock: TEMPAE_clean_linker_10, # of connection points: 2
#     Edge 124, Type (0, 1), BuildingBlock: TEMPAE_clean_linker_10, # of connection points: 2
#     Edge 125, Type (0, 1), BuildingBlock: TEMPAE_clean_linker_10, # of connection points: 2
#     Edge 126, Type (0, 1), BuildingBlock: TEMPAE_clean_linker_10, # of connection points: 2
#     Edge 127, Type (0, 1), BuildingBlock: TEMPAE_clean_linker_10, # of connection points: 2
#     Edge 128, Type (0, 1), BuildingBlock: TEMPAE_clean_linker_10, # of connection points: 2
#     Edge 129, Type (0, 1), BuildingBlock: TEMPAE_clean_linker_10, # of connection points: 2
#     Edge 130, Type (0, 1), BuildingBlock: TEMPAE_clean_linker_10, # of connection points: 2
#     Edge 131, Type (0, 1), BuildingBlock: TEMPAE_clean_linker_10, # of connection points: 2
#     Edge 132, Type (0, 1), BuildingBlock: TEMPAE_clean_linker_10, # of connection points: 2
#     Edge 133, Type (0, 1), BuildingBlock: TEMPAE_clean_linker_10, # of connection points: 2
#     Edge 134, Type (0, 1), BuildingBlock: TEMPAE_clean_linker_10, # of connection points: 2
#     Edge 135, Type (0, 1), BuildingBlock: TEMPAE_clean_linker_10, # of connection points: 2
#     Edge 136, Type (0, 1), BuildingBlock: TEMPAE_clean_linker_10, # of connection points: 2
#     Edge 137, Type (0, 1), BuildingBlock: TEMPAE_clean_linker_10, # of connection points: 2
#     Edge 138, Type (0, 1), BuildingBlock: TEMPAE_clean_linker_10, # of connection points: 2
#     Edge 139, Type (0, 1), BuildingBlock: TEMPAE_clean_linker_10, # of connection points: 2
#     Edge 140, Type (0, 1), BuildingBlock: TEMPAE_clean_linker_10, # of connection points: 2
#     Edge 141, Type (0, 1), BuildingBlock: TEMPAE_clean_linker_10, # of connection points: 2
#     Edge 142, Type (0, 1), BuildingBlock: TEMPAE_clean_linker_10, # of connection points: 2
#     Edge 143, Type (0, 1), BuildingBlock: TEMPAE_clean_linker_10, # of connection points: 2
#     Edge 144, Type (0, 1), BuildingBlock: TEMPAE_clean_linker_10, # of connection points: 2
#     Edge 145, Type (0, 1), BuildingBlock: TEMPAE_clean_linker_10, # of connection points: 2
#     Edge 146, Type (0, 1), BuildingBlock: TEMPAE_clean_linker_10, # of connection points: 2
#     Edge 147, Type (0, 1), BuildingBlock: TEMPAE_clean_linker_10, # of connection points: 2
#     Edge 148, Type (0, 1), BuildingBlock: TEMPAE_clean_linker_10, # of connection points: 2
#     Edge 149, Type (0, 1), BuildingBlock: TEMPAE_clean_linker_10, # of connection points: 2
#     Edge 150, Type (0, 1), BuildingBlock: TEMPAE_clean_linker_10, # of connection points: 2
#     Edge 151, Type (0, 1), BuildingBlock: TEMPAE_clean_linker_10, # of connection points: 2
# Relax obj value: 0.020
# Max RMSD: 0.192
# Mean RMSD: 0.117
data_MOF--net-tbo--node1-ESEHIV_clean_sbu_0--node2-CUQRIR_clean_linker_1--edge1-TEMPAE_clean_linker_10
_symmetry_space_group_name_H-M    P1
_symmetry_Int_Tables_number       1
_symmetry_cell_setting            triclinic
loop_
_symmetry_equiv_pos_as_xyz
'x, y, z'
_cell_length_a     68.748258
_cell_length_b     69.484801
_cell_length_c     66.946521
_cell_angle_alpha  86.949074
_cell_angle_beta   95.654264
_cell_angle_gamma 95.845588
loop_
_atom_site_label
_atom_site_type_symbol
_atom_site_fract_x
_atom_site_fract_y
_atom_site_fract_z
_atom_type_partial_charge
C0 C 0.18321 0.1714 0.21499 0.0
N1 N 0.19746 0.17251 0.20216 0.0
N2 N 0.17378 0.18773 0.21347 0.0
C3 C 0.17946 0.1549 0.23006 0.0
C4 C 0.18297 0.19889 0.19925 0.0
N5 N 0.19752 0.18977 0.1925 0.0
C6 C 0.17656 0.21796 0.19073 0.0
H7 H 0.16889 0.14361 0.22285 0.0
H8 H 0.17315 0.15982 0.24331 0.0
H9 H 0.19322 0.14828 0.23516 0.0
H10 H 0.18524 0.22986 0.19901 0.0
H11 H 0.16078 0.21887 0.19234 0.0
H12 H 0.17908 0.22004 0.1746 0.0
C13 C 0.85267 0.17514 0.15517 0.0
N14 N 0.86583 0.16956 0.17027 0.0
N15 N 0.8601 0.19139 0.14538 0.0
C16 C 0.83302 0.16439 0.14937 0.0
C17 C 0.8781 0.19559 0.15506 0.0
N18 N 0.88164 0.18224 0.17002 0.0
C19 C 0.89143 0.21371 0.15111 0.0
H20 H 0.82842 0.16712 0.1332 0.0
H21 H 0.82194 0.16956 0.15825 0.0
H22 H 0.83344 0.1486 0.15261 0.0
H23 H 0.883 0.22554 0.14416 0.0
H24 H 0.9021 0.21047 0.14065 0.0
H25 H 0.89978 0.21878 0.1652 0.0
C26 C 0.88383 0.85884 0.20429 0.0
N27 N 0.88859 0.84407 0.19373 0.0
N28 N 0.86896 0.86789 0.19422 0.0
C29 C 0.89489 0.86558 0.22361 0.0
C30 C 0.86499 0.85818 0.17701 0.0
N31 N 0.87699 0.84388 0.17658 0.0
C32 C 0.84864 0.86192 0.16106 0.0
H33 H 0.88827 0.85755 0.23644 0.0
H34 H 0.89408 0.88129 0.22518 0.0
H35 H 0.91055 0.86277 0.2243 0.0
H36 H 0.83692 0.86897 0.16728 0.0
H37 H 0.84214 0.84821 0.15429 0.0
H38 H 0.85469 0.87159 0.14897 0.0
C39 C 0.19564 0.83563 0.15528 0.0
N40 N 0.20951 0.85103 0.15472 0.0
N41 N 0.18645 0.83509 0.17233 0.0
C42 C 0.19203 0.82029 0.13995 0.0
C43 C 0.19522 0.85068 0.18216 0.0
N44 N 0.20941 0.86021 0.17167 0.0
C45 C 0.18885 0.85747 0.20129 0.0
H46 H 0.18148 0.82509 0.12751 0.0
H47 H 0.18569 0.80639 0.14664 0.0
H48 H 0.20587 0.81794 0.13359 0.0
H49 H 0.198 0.85148 0.21427 0.0
H50 H 0.17322 0.85247 0.20296 0.0
H51 H 0.19083 0.8735 0.20165 0.0
C52 C 0.17412 0.84561 0.83049 0.0
N53 N 0.19099 0.85514 0.83832 0.0
N54 N 0.16812 0.85388 0.81247 0.0
C55 C 0.16287 0.82897 0.84098 0.0
C56 C 0.1819 0.86891 0.80971 0.0
N57 N 0.1959 0.86966 0.8255 0.0
C58 C 0.18235 0.88188 0.79103 0.0
H59 H 0.16742 0.81518 0.83622 0.0
H60 H 0.14684 0.82911 0.83695 0.0
H61 H 0.16599 0.82951 0.85754 0.0
H62 H 0.17508 0.89502 0.79335 0.0
H63 H 0.17433 0.87448 0.77794 0.0
H64 H 0.1977 0.88644 0.78777 0.0
C65 C 0.22477 0.16001 0.85494 0.0
N66 N 0.22336 0.17287 0.86918 0.0
N67 N 0.23982 0.14902 0.86029 0.0
C68 C 0.21127 0.15801 0.8359 0.0
C69 C 0.24744 0.15562 0.87843 0.0
N70 N 0.23739 0.17003 0.88392 0.0
C71 C 0.26489 0.1481 0.89061 0.0
H72 H 0.19797 0.14837 0.83914 0.0
H73 H 0.21849 0.15163 0.82406 0.0
H74 H 0.20651 0.17221 0.83019 0.0
H75 H 0.27847 0.15641 0.88593 0.0
H76 H 0.26567 0.13258 0.88797 0.0
H77 H 0.26446 0.14985 0.90689 0.0
C78 C 0.87042 0.18221 0.85461 0.0
N79 N 0.88164 0.17638 0.84094 0.0
N80 N 0.87694 0.20029 0.86032 0.0
C81 C 0.85245 0.17063 0.86163 0.0
C82 C 0.89253 0.20533 0.84959 0.0
N83 N 0.89529 0.19089 0.83752 0.0
C84 C 0.90606 0.22363 0.85237 0.0
H85 H 0.84431 0.16234 0.84918 0.0
H86 H 0.8425 0.18009 0.86755 0.0
H87 H 0.85711 0.16012 0.87378 0.0
H88 H 0.90485 0.22985 0.86707 0.0
H89 H 0.90202 0.23446 0.8403 0.0
H90 H 0.92154 0.22083 0.85142 0.0
C91 C 0.86175 0.87142 0.84482 0.0
N92 N 0.86907 0.85449 0.85125 0.0
N93 N 0.86746 0.87741 0.82647 0.0
C94 C 0.84778 0.88134 0.85582 0.0
C95 C 0.87837 0.86335 0.82188 0.0
N96 N 0.87922 0.84933 0.83679 0.0
C97 C 0.88929 0.86393 0.8034 0.0
H98 H 0.83803 0.88968 0.84521 0.0
H99 H 0.85639 0.8915 0.86635 0.0
H100 H 0.83859 0.87068 0.86468 0.0
H101 H 0.89219 0.87898 0.79727 0.0
H102 H 0.88026 0.85528 0.79177 0.0
H103 H 0.90344 0.85751 0.80678 0.0
C104 C 0.1873 0.67906 0.68724 0.0
N105 N 0.20238 0.68005 0.67539 0.0
N106 N 0.17722 0.69492 0.68405 0.0
C107 C 0.18331 0.66338 0.70312 0.0
C108 C 0.1868 0.70569 0.66988 0.0
N109 N 0.20216 0.69678 0.66468 0.0
C110 C 0.18025 0.72425 0.66012 0.0
H111 H 0.17359 0.65132 0.69619 0.0
H112 H 0.17585 0.66884 0.71533 0.0
H113 H 0.19715 0.65766 0.70965 0.0
H114 H 0.18828 0.73663 0.66818 0.0
H115 H 0.16428 0.7249 0.66087 0.0
H116 H 0.18352 0.72575 0.64418 0.0
C117 C 0.81699 0.71373 0.66128 0.0
N118 N 0.8332 0.71073 0.6738 0.0
N119 N 0.8207 0.72883 0.64811 0.0
C120 C 0.79822 0.70045 0.66041 0.0
C121 C 0.8398 0.73505 0.65324 0.0
N122 N 0.84741 0.72394 0.6687 0.0
C123 C 0.85145 0.75072 0.64181 0.0
H124 H 0.80091 0.6863 0.65479 0.0
H125 H 0.78634 0.7067 0.65049 0.0
H126 H 0.79332 0.69776 0.67568 0.0
H127 H 0.84296 0.7634 0.6384 0.0
H128 H 0.8545 0.74513 0.62732 0.0
H129 H 0.86553 0.75567 0.65038 0.0
C130 C 0.90533 0.36893 0.71459 0.0
N131 N 0.90714 0.35294 0.70441 0.0
N132 N 0.88885 0.37723 0.70755 0.0
C133 C 0.91896 0.37556 0.73246 0.0
C134 C 0.88054 0.36545 0.69282 0.0
N135 N 0.89156 0.35055 0.69099 0.0
C136 C 0.86248 0.36932 0.67923 0.0
H137 H 0.92523 0.3631 0.74091 0.0
H138 H 0.91123 0.38342 0.74279 0.0
H139 H 0.93127 0.38543 0.72711 0.0
H140 H 0.86048 0.385 0.6781 0.0
H141 H 0.84944 0.3614 0.68549 0.0
H142 H 0.86336 0.36417 0.66397 0.0
C143 C 0.20462 0.34769 0.68434 0.0
N144 N 0.21762 0.3635 0.68185 0.0
N145 N 0.19229 0.35062 0.69822 0.0
C146 C 0.20305 0.32991 0.67216 0.0
C147 C 0.19823 0.36885 0.70408 0.0
N148 N 0.21348 0.37683 0.69396 0.0
C149 C 0.19031 0.37813 0.721 0.0
H150 H 0.18795 0.32247 0.67131 0.0
H151 H 0.21334 0.31975 0.6794 0.0
H152 H 0.20713 0.3337 0.6567 0.0
H153 H 0.18436 0.36701 0.73191 0.0
H154 H 0.17824 0.38677 0.71475 0.0
H155 H 0.20189 0.38792 0.72904 0.0
C156 C 0.17746 0.3262 0.35484 0.0
N157 N 0.19553 0.33584 0.35804 0.0
N158 N 0.17028 0.32871 0.33541 0.0
C159 C 0.16624 0.3156 0.37097 0.0
C160 C 0.18469 0.34002 0.32691 0.0
N161 N 0.20014 0.34421 0.34061 0.0
C162 C 0.1829 0.3486 0.30574 0.0
H163 H 0.15644 0.3032 0.36493 0.0
H164 H 0.15698 0.32569 0.377 0.0
H165 H 0.17635 0.31017 0.38346 0.0
H166 H 0.18124 0.36429 0.30615 0.0
H167 H 0.17016 0.34146 0.29655 0.0
H168 H 0.19642 0.3471 0.29845 0.0
C169 C 0.21929 0.64661 0.32988 0.0
N170 N 0.2149 0.66062 0.34173 0.0
N171 N 0.23585 0.63864 0.33763 0.0
C172 C 0.20832 0.64181 0.30992 0.0
C173 C 0.24131 0.64831 0.35467 0.0
N174 N 0.22883 0.66171 0.35703 0.0
C175 C 0.25829 0.644 0.36972 0.0
H176 H 0.1964 0.63014 0.31229 0.0
H177 H 0.21823 0.63666 0.29967 0.0
H178 H 0.20161 0.65463 0.30275 0.0
H179 H 0.27158 0.65338 0.36593 0.0
H180 H 0.26129 0.62863 0.36951 0.0
H181 H 0.25538 0.64711 0.38517 0.0
C182 C 0.86342 0.68045 0.33564 0.0
N183 N 0.87454 0.67429 0.32198 0.0
N184 N 0.87099 0.69802 0.34228 0.0
C185 C 0.84442 0.66997 0.34143 0.0
C186 C 0.88712 0.70233 0.33216 0.0
N187 N 0.88915 0.68809 0.31958 0.0
C188 C 0.90195 0.71952 0.33613 0.0
H189 H 0.83681 0.66159 0.3288 0.0
H190 H 0.83454 0.68028 0.34599 0.0
H191 H 0.84762 0.65972 0.35433 0.0
H192 H 0.90152 0.72465 0.35148 0.0
H193 H 0.89854 0.7315 0.32513 0.0
H194 H 0.91703 0.71586 0.33448 0.0
C195 C 0.84002 0.3503 0.36092 0.0
N196 N 0.85149 0.33637 0.36854 0.0
N197 N 0.84744 0.35976 0.3447 0.0
C198 C 0.82224 0.35551 0.3701 0.0
C199 C 0.86397 0.35113 0.3428 0.0
N200 N 0.86658 0.33699 0.35738 0.0
C201 C 0.87671 0.35564 0.32579 0.0
H202 H 0.80921 0.34609 0.3641 0.0
H203 H 0.8196 0.37083 0.36636 0.0
H204 H 0.82396 0.35314 0.38668 0.0
H205 H 0.88935 0.36604 0.33081 0.0
H206 H 0.86844 0.36226 0.31256 0.0
H207 H 0.88249 0.34233 0.32129 0.0
C208 C 0.68744 0.16406 0.69568 0.0
N209 N 0.7015 0.16528 0.6826 0.0
N210 N 0.67791 0.18031 0.69432 0.0
C211 C 0.68416 0.14773 0.71105 0.0
C212 C 0.68685 0.19159 0.68004 0.0
N213 N 0.70129 0.18257 0.673 0.0
C214 C 0.68047 0.2108 0.67195 0.0
H215 H 0.67365 0.1362 0.70419 0.0
H216 H 0.67795 0.15274 0.72432 0.0
H217 H 0.69811 0.14142 0.71611 0.0
H218 H 0.68928 0.22252 0.68039 0.0
H219 H 0.66473 0.21172 0.67379 0.0
H220 H 0.68287 0.21314 0.65582 0.0
C221 C 0.33493 0.18304 0.67912 0.0
N222 N 0.35106 0.18135 0.69228 0.0
N223 N 0.33655 0.20025 0.66864 0.0
C224 C 0.31719 0.1685 0.67714 0.0
C225 C 0.35424 0.20889 0.6757 0.0
N226 N 0.36294 0.19749 0.69013 0.0
C227 C 0.36366 0.22773 0.66733 0.0
H228 H 0.31958 0.15761 0.66632 0.0
H229 H 0.30391 0.17563 0.67136 0.0
H230 H 0.31477 0.16089 0.69181 0.0
H231 H 0.35836 0.23986 0.67473 0.0
H232 H 0.35954 0.22943 0.65093 0.0
H233 H 0.3799 0.22868 0.67011 0.0
C234 C 0.39611 0.86871 0.71395 0.0
N235 N 0.40058 0.854 0.70315 0.0
N236 N 0.38113 0.87783 0.70424 0.0
C237 C 0.40757 0.87535 0.73311 0.0
C238 C 0.3768 0.86826 0.68697 0.0
N239 N 0.38873 0.85392 0.68615 0.0
C240 C 0.35983 0.87191 0.67172 0.0
H241 H 0.40111 0.8674 0.74607 0.0
H242 H 0.40698 0.89108 0.73473 0.0
H243 H 0.42316 0.87238 0.73351 0.0
H244 H 0.36513 0.8822 0.65974 0.0
H245 H 0.34817 0.87834 0.67872 0.0
H246 H 0.35346 0.85828 0.66471 0.0
C247 C 0.69379 0.82683 0.64691 0.0
N248 N 0.70728 0.84223 0.64411 0.0
N249 N 0.68409 0.82897 0.66322 0.0
C250 C 0.68977 0.80994 0.63347 0.0
C251 C 0.69227 0.84609 0.67035 0.0
N252 N 0.70637 0.85412 0.65888 0.0
C253 C 0.68627 0.85511 0.68848 0.0
H254 H 0.68311 0.79692 0.64148 0.0
H255 H 0.70352 0.80655 0.62759 0.0
H256 H 0.67932 0.81378 0.62053 0.0
H257 H 0.68031 0.84387 0.69925 0.0
H258 H 0.67466 0.86476 0.6835 0.0
H259 H 0.69886 0.86397 0.69619 0.0
C260 C 0.66177 0.83529 0.3191 0.0
N261 N 0.67883 0.84501 0.32618 0.0
N262 N 0.6551 0.84319 0.30109 0.0
C263 C 0.65082 0.81912 0.33058 0.0
C264 C 0.66868 0.85825 0.29764 0.0
N265 N 0.68317 0.85937 0.31296 0.0
C266 C 0.66846 0.87089 0.2787 0.0
H267 H 0.65456 0.80505 0.3257 0.0
H268 H 0.63471 0.81968 0.32758 0.0
H269 H 0.65494 0.81987 0.34698 0.0
H270 H 0.66099 0.88393 0.28092 0.0
H271 H 0.66031 0.8631 0.26593 0.0
H272 H 0.68363 0.87565 0.275 0.0
C273 C 0.70327 0.15251 0.33368 0.0
N274 N 0.70177 0.16576 0.3476 0.0
N275 N 0.7169 0.14026 0.34032 0.0
C276 C 0.69036 0.15052 0.31426 0.0
C277 C 0.72359 0.14645 0.35884 0.0
N278 N 0.71429 0.16174 0.3634 0.0
C279 C 0.74013 0.13832 0.372 0.0
H280 H 0.68938 0.13555 0.30899 0.0
H281 H 0.69669 0.16057 0.30262 0.0
H282 H 0.67535 0.15432 0.31604 0.0
H283 H 0.75007 0.1316 0.36293 0.0
H284 H 0.73385 0.12707 0.38257 0.0
H285 H 0.74881 0.14975 0.38097 0.0
C286 C 0.36522 0.19137 0.3776 0.0
N287 N 0.37397 0.1835 0.36309 0.0
N288 N 0.37477 0.20871 0.38254 0.0
C289 C 0.34711 0.18231 0.38666 0.0
C290 C 0.38956 0.21124 0.37044 0.0
N291 N 0.38897 0.19603 0.35837 0.0
C292 C 0.40483 0.22837 0.37079 0.0
H293 H 0.33677 0.17491 0.37506 0.0
H294 H 0.33957 0.19323 0.39365 0.0
H295 H 0.35141 0.17132 0.39845 0.0
H296 H 0.41935 0.22384 0.36813 0.0
H297 H 0.40608 0.23559 0.3853 0.0
H298 H 0.40053 0.23901 0.35863 0.0
C299 C 0.34803 0.87162 0.35781 0.0
N300 N 0.35648 0.85528 0.36427 0.0
N301 N 0.35642 0.88022 0.34162 0.0
C302 C 0.33265 0.87999 0.3683 0.0
C303 C 0.37038 0.8685 0.33858 0.0
N304 N 0.37056 0.8535 0.35239 0.0
C305 C 0.38309 0.87101 0.32137 0.0
H306 H 0.31791 0.87385 0.36207 0.0
H307 H 0.3336 0.89598 0.36598 0.0
H308 H 0.33426 0.87624 0.38466 0.0
H309 H 0.3972 0.87933 0.3264 0.0
H310 H 0.37588 0.87902 0.30839 0.0
H311 H 0.3864 0.85678 0.3165 0.0
C312 C 0.67115 0.67671 0.20133 0.0
N313 N 0.68494 0.67617 0.18821 0.0
N314 N 0.66157 0.69287 0.19785 0.0
C315 C 0.66631 0.66088 0.21681 0.0
C316 C 0.67007 0.70214 0.1821 0.0
N317 N 0.68435 0.69212 0.17631 0.0
C318 C 0.66433 0.72094 0.17226 0.0
H319 H 0.65522 0.64993 0.20978 0.0
H320 H 0.66007 0.66645 0.22973 0.0
H321 H 0.67958 0.65361 0.22236 0.0
H322 H 0.65761 0.72944 0.18287 0.0
H323 H 0.65342 0.71776 0.15922 0.0
H324 H 0.67728 0.72966 0.16666 0.0
C325 C 0.32899 0.66867 0.13899 0.0
N326 N 0.34203 0.66539 0.15498 0.0
N327 N 0.32978 0.68778 0.13385 0.0
C328 C 0.31477 0.65335 0.12909 0.0
C329 C 0.3438 0.69602 0.14727 0.0
N330 N 0.35102 0.68241 0.16035 0.0
C331 C 0.3518 0.71703 0.14632 0.0
H332 H 0.32235 0.64608 0.11815 0.0
H333 H 0.30192 0.65974 0.12099 0.0
H334 H 0.3096 0.64221 0.14039 0.0
H335 H 0.34324 0.72531 0.15548 0.0
H336 H 0.35049 0.72315 0.13065 0.0
H337 H 0.36745 0.71891 0.15239 0.0
C338 C 0.41081 0.35626 0.21652 0.0
N339 N 0.41305 0.34101 0.20537 0.0
N340 N 0.39356 0.36381 0.21069 0.0
C341 C 0.42557 0.36388 0.23308 0.0
C342 C 0.38546 0.35249 0.19547 0.0
N343 N 0.39721 0.3386 0.1923 0.0
C344 C 0.3658 0.35459 0.18397 0.0
H345 H 0.42222 0.35617 0.24746 0.0
H346 H 0.42495 0.37962 0.2346 0.0
H347 H 0.44074 0.36141 0.23039 0.0
H348 H 0.36795 0.3642 0.17043 0.0
H349 H 0.35586 0.36104 0.19327 0.0
H350 H 0.35878 0.34037 0.17891 0.0
C351 C 0.70978 0.35326 0.17001 0.0
N352 N 0.72421 0.36765 0.1673 0.0
N353 N 0.70205 0.3548 0.18758 0.0
C354 C 0.70344 0.33744 0.15555 0.0
C355 C 0.71234 0.37076 0.19555 0.0
N356 N 0.72605 0.37855 0.1833 0.0
C357 C 0.70908 0.37856 0.21535 0.0
H358 H 0.70447 0.34299 0.1398 0.0
H359 H 0.68817 0.33118 0.15729 0.0
H360 H 0.71337 0.32578 0.15857 0.0
H361 H 0.71925 0.37235 0.22731 0.0
H362 H 0.69387 0.37447 0.21926 0.0
H363 H 0.71209 0.39456 0.21501 0.0
C364 C 0.68046 0.3593 0.85355 0.0
N365 N 0.69743 0.37117 0.85459 0.0
N366 N 0.67054 0.3611 0.83514 0.0
C367 C 0.67454 0.34453 0.86967 0.0
C368 C 0.6821 0.37419 0.82493 0.0
N369 N 0.6985 0.38015 0.83666 0.0
C370 C 0.67695 0.38179 0.8038 0.0
H371 H 0.66492 0.33217 0.8632 0.0
H372 H 0.66632 0.35148 0.88031 0.0
H373 H 0.68764 0.33897 0.87817 0.0
H374 H 0.66085 0.37996 0.79974 0.0
H375 H 0.68414 0.37362 0.79328 0.0
H376 H 0.68234 0.39733 0.80199 0.0
C377 C 0.73198 0.66032 0.83872 0.0
N378 N 0.72638 0.67244 0.85193 0.0
N379 N 0.74709 0.65052 0.8472 0.0
C380 C 0.72243 0.65765 0.81771 0.0
C381 C 0.7503 0.65702 0.86611 0.0
N382 N 0.73773 0.6702 0.86902 0.0
C383 C 0.76585 0.65055 0.88178 0.0
H384 H 0.70978 0.64643 0.81823 0.0
H385 H 0.73289 0.65284 0.80786 0.0
H386 H 0.71684 0.67116 0.81102 0.0
H387 H 0.77941 0.66058 0.88094 0.0
H388 H 0.76929 0.63567 0.87927 0.0
H389 H 0.76123 0.65085 0.89713 0.0
C390 C 0.37093 0.68968 0.8536 0.0
N391 N 0.38125 0.68265 0.83976 0.0
N392 N 0.37921 0.70731 0.85941 0.0
C393 C 0.35192 0.68003 0.86031 0.0
C394 C 0.39492 0.71079 0.84853 0.0
N395 N 0.39604 0.69598 0.83635 0.0
C396 C 0.41021 0.72782 0.85124 0.0
H397 H 0.34261 0.69088 0.86484 0.0
H398 H 0.35519 0.67006 0.87343 0.0
H399 H 0.34363 0.67147 0.84816 0.0
H400 H 0.42503 0.72364 0.8492 0.0
H401 H 0.41052 0.73368 0.86637 0.0
H402 H 0.40669 0.73941 0.83981 0.0
C403 C 0.37536 0.36761 0.85976 0.0
N404 N 0.38247 0.35069 0.8666 0.0
N405 N 0.38128 0.37321 0.8414 0.0
C406 C 0.36148 0.37796 0.87042 0.0
C407 C 0.39218 0.35893 0.83728 0.0
N408 N 0.39276 0.34512 0.85244 0.0
C409 C 0.40355 0.35925 0.81914 0.0
H410 H 0.35195 0.36754 0.87918 0.0
H411 H 0.3521 0.38649 0.85961 0.0
H412 H 0.37016 0.388 0.88103 0.0
H413 H 0.40693 0.37428 0.81311 0.0
H414 H 0.39462 0.35082 0.80729 0.0
H415 H 0.4175 0.35254 0.82289 0.0
Cu416 Cu 0.30589 0.26535 0.03732 0.0
N417 N 0.31016 0.28668 0.01897 0.0
N418 N 0.32134 0.3033 0.99192 0.0
C419 C 0.32116 0.28658 1.0033 0.0
C420 C 0.31 0.31438 1.00092 0.0
C421 C 0.30318 0.30416 0.01754 0.0
O422 O 0.30055 0.24326 0.01946 0.0
C423 C 0.32751 0.28223 0.06918 0.0
O424 O 0.31409 0.29403 0.06331 0.0
H425 H 0.32853 0.27422 1.00007 0.0
H426 H 0.29379 0.30917 0.02779 0.0
N427 N 0.28347 0.26478 0.05174 0.0
N428 N 0.26303 0.25482 0.07537 0.0
C429 C 0.27975 0.25205 0.06721 0.0
C430 C 0.26857 0.27607 0.04998 0.0
C431 C 0.256 0.26999 0.06446 0.0
C432 C 0.28494 0.24494 0.00756 0.0
O433 O 0.27511 0.2599 0.00942 0.0
H434 H 0.2892 0.24088 0.07225 0.0
H435 H 0.26692 0.28791 0.03901 0.0
O436 O 0.32797 0.26729 0.05884 0.0
H437 H 0.30697 0.32895 0.996 0.0
H438 H 0.24286 0.27654 0.0669 0.0
Cu439 Cu 0.79498 0.30161 1.00152 0.0
N440 N 0.77472 0.31008 0.01683 0.0
N441 N 0.76058 0.32278 0.04116 0.0
C442 C 0.77762 0.32079 0.0333 0.0
C443 C 0.74649 0.31307 0.02897 0.0
C444 C 0.75525 0.30527 0.014 0.0
O445 O 0.80367 0.28418 0.02529 0.0
C446 C 0.78621 0.33494 0.9734 0.0
O447 O 0.79661 0.3461 0.98657 0.0
H448 H 0.79197 0.32642 0.03978 0.0
H449 H 0.74801 0.29642 1.00212 0.0
N450 N 0.81593 0.29367 0.98679 0.0
N451 N 0.83293 0.2799 0.9654 0.0
C452 C 0.81483 0.28266 0.9706 0.0
C453 C 0.83516 0.29801 0.99202 0.0
C454 C 0.84563 0.28955 0.97901 0.0
C455 C 0.81581 0.28909 0.04011 0.0
O456 O 0.82413 0.30695 0.04081 0.0
H457 H 0.80108 0.27688 0.96289 0.0
H458 H 0.84115 0.30652 1.00464 0.0
O459 O 0.78438 0.31669 0.97671 0.0
H460 H 0.73093 0.31158 0.03079 0.0
H461 H 0.86147 0.29018 0.97998 0.0
Cu462 Cu 0.79237 0.76877 0.02186 0.0
N463 N 0.79643 0.78993 1.00322 0.0
N464 N 0.80759 0.80642 0.97606 0.0
C465 C 0.8076 0.78984 0.98767 0.0
C466 C 0.79593 0.81739 0.9848 0.0
C467 C 0.78912 0.80724 1.00147 0.0
O468 O 0.788 0.74643 1.00456 0.0
C469 C 0.81342 0.786 0.05352 0.0
O470 O 0.79995 0.79765 0.04736 0.0
H471 H 0.81523 0.77757 0.9847 0.0
H472 H 0.77951 0.81219 0.01154 0.0
N473 N 0.76972 0.76786 0.036 0.0
N474 N 0.74916 0.75772 0.05944 0.0
C475 C 0.76614 0.75527 0.05162 0.0
C476 C 0.75445 0.7787 0.03379 0.0
C477 C 0.7418 0.77251 0.04817 0.0
C478 C 0.77251 0.74756 0.99241 0.0
O479 O 0.7621 0.76218 0.99385 0.0
H480 H 0.77607 0.74472 0.05734 0.0
H481 H 0.75253 0.79021 0.02248 0.0
O482 O 0.8142 0.77102 0.04338 0.0
H483 H 0.79267 0.83185 0.97967 0.0
H484 H 0.7281 0.77833 0.04996 0.0
Cu485 Cu 0.29709 0.8092 0.99466 0.0
N486 N 0.299 0.82835 0.01377 0.0
N487 N 0.29119 0.84266 0.04085 0.0
C488 C 0.28799 0.82693 0.02948 0.0
C489 C 0.30481 0.85454 0.03176 0.0
C490 C 0.30958 0.84569 0.01507 0.0
O491 O 0.29289 0.78496 0.00974 0.0
C492 C 0.27932 0.82798 0.96213 0.0
O493 O 0.29645 0.83829 0.96418 0.0
H494 H 0.2774 0.81467 0.03212 0.0
H495 H 0.31981 0.85162 1.00454 0.0
N496 N 0.3193 0.80724 0.9808 0.0
N497 N 0.3376 0.79471 0.95965 0.0
C498 C 0.32009 0.79351 0.96747 0.0
C499 C 0.33696 0.81759 0.98156 0.0
C500 C 0.34827 0.80991 0.96855 0.0
C501 C 0.30761 0.78196 0.02214 0.0
O502 O 0.32303 0.79483 0.0227 0.0
H503 H 0.30803 0.7826 0.96393 0.0
H504 H 0.34136 0.82977 0.99094 0.0
O505 O 0.27575 0.81392 0.97463 0.0
H506 H 0.31095 0.86863 0.03675 0.0
H507 H 0.36314 0.81526 0.96577 0.0
Cu508 Cu 0.01422 0.24513 0.29717 0.0
N509 N 0.03498 0.22901 0.30001 0.0
N510 N 0.06174 0.21638 0.29127 0.0
C511 C 0.04883 0.22984 0.28688 0.0
C512 C 0.05569 0.20673 0.30799 0.0
C513 C 0.03925 0.21448 0.3133 0.0
O514 O 0.02712 0.27088 0.29327 0.0
C515 C 0.99103 0.21948 0.27339 0.0
O516 O 0.99651 0.20771 0.28845 0.0
H517 H 0.0493 0.24021 0.27426 0.0
H518 H 0.03081 0.20951 0.32568 0.0
N519 N 0.9976 0.24503 0.31812 0.0
N520 N 0.97351 0.25454 0.33475 0.0
C521 C 0.9829 0.2566 0.31777 0.0
C522 C 0.99751 0.23513 0.33593 0.0
C523 C 0.98274 0.24094 0.34619 0.0
C524 C 0.03246 0.28085 0.30859 0.0
O525 O 0.02607 0.27478 0.3259 0.0
H526 H 0.97961 0.2668 0.30543 0.0
H527 H 1.00757 0.22462 0.34128 0.0
O528 O 0.99747 0.23728 0.27374 0.0
H529 H 0.0623 0.19454 0.31561 0.0
H530 H 0.97912 0.23549 0.36094 0.0
Cu531 Cu 0.80651 0.00874 0.27416 0.0
N532 N 0.8289 0.02637 0.27413 0.0
N533 N 0.84687 0.05228 0.26217 0.0
C534 C 0.83079 0.03964 0.25896 0.0
C535 C 0.85552 0.04672 0.28027 0.0
C536 C 0.84439 0.03062 0.28763 0.0
O537 O 0.78485 0.02528 0.27476 0.0
C538 C 0.82385 0.98349 0.25375 0.0
O539 O 0.83665 0.98808 0.26907 0.0
H540 H 0.81992 0.04047 0.24618 0.0
H541 H 0.8471 0.02297 0.30196 0.0
N542 N 0.80508 0.99126 0.29618 0.0
N543 N 0.79287 0.96401 0.31162 0.0
C544 C 0.79299 0.97492 0.29439 0.0
C545 C 0.81305 0.9909 0.31538 0.0
C546 C 0.8054 0.97405 0.32503 0.0
C547 C 0.78762 0.03595 0.29001 0.0
O548 O 0.80292 0.03354 0.30294 0.0
H549 H 0.78387 0.97149 0.28069 0.0
H550 H 0.82331 1.00217 0.322 0.0
O551 O 0.80785 0.99169 0.25175 0.0
H552 H 0.86876 0.05387 0.28775 0.0
H553 H 0.80869 0.96963 0.34064 0.0
Cu554 Cu 0.05018 0.74784 0.26458 0.0
N555 N 0.03489 0.76895 0.26504 0.0
N556 N 1.00982 0.78704 0.25581 0.0
C557 C 0.01848 0.77097 0.25252 0.0
C558 C 0.0214 0.79542 0.27111 0.0
C559 C 0.03676 0.78429 0.27675 0.0
O560 O 0.03003 0.72569 0.2651 0.0
C561 C 0.07559 0.76909 0.24188 0.0
O562 O 0.07481 0.77965 0.25743 0.0
H563 H 0.01315 0.76082 0.24106 0.0
H564 H 0.04844 0.78728 0.28851 0.0
N565 N 0.06954 0.74494 0.28658 0.0
N566 N 0.09622 0.73444 0.30461 0.0
C567 C 0.08469 0.73385 0.28694 0.0
C568 C 0.07162 0.75292 0.30464 0.0
C569 C 0.08792 0.74649 0.31572 0.0
C570 C 0.02184 0.7245 0.28152 0.0
O571 O 0.02938 0.73608 0.29576 0.0
H572 H 0.087 0.72529 0.2745 0.0
H573 H 0.0619 0.76261 0.30956 0.0
O574 O 0.0651 0.75282 0.24103 0.0
H575 H 0.01888 0.80856 0.27804 0.0
H576 H 0.09332 0.75061 0.33078 0.0
Cu577 Cu 0.28396 0.02791 0.26203 0.0
N578 N 0.2852 0.04188 0.28553 0.0
N579 N 0.29728 0.06553 0.30618 0.0
C580 C 0.30029 0.05528 0.29037 0.0
C581 C 0.27949 0.05816 0.31158 0.0
C582 C 0.27206 0.04361 0.2988 0.0
O583 O 0.28033 0.04867 0.24106 0.0
C584 C 0.30675 1.00253 0.28215 0.0
O585 O 0.29291 1.00446 0.29388 0.0
H586 H 0.31279 0.05813 0.28164 0.0
H587 H 0.25777 0.03554 0.29872 0.0
N588 N 0.26318 0.00837 0.25758 0.0
N589 N 0.24815 0.98142 0.24357 0.0
C590 C 0.26213 0.99648 0.24214 0.0
C591 C 0.24933 1.00065 0.2693 0.0
C592 C 0.23997 0.98414 0.26066 0.0
C593 C 0.26406 0.05575 0.24255 0.0
O594 O 0.25206 0.04675 0.25487 0.0
H595 H 0.27206 0.99857 0.23048 0.0
H596 H 0.2469 1.00594 0.28365 0.0
O597 O 0.30687 0.01273 0.26562 0.0
H598 H 0.27215 0.06315 0.32362 0.0
H599 H 0.22877 0.97435 0.26712 0.0
Cu600 Cu 0.01464 0.75626 0.75948 0.0
N601 N 0.03232 0.73716 0.7592 0.0
N602 N 0.05824 0.72304 0.75077 0.0
C603 C 0.04761 0.73848 0.74775 0.0
C604 C 0.0492 0.71152 0.76466 0.0
C605 C 0.03324 0.72019 0.76976 0.0
O606 O 0.03093 0.78072 0.7586 0.0
C607 C 0.9846 0.73714 0.73586 0.0
O608 O 0.98941 0.72304 0.74868 0.0
H609 H 0.05103 0.75075 0.73762 0.0
H610 H 0.02299 0.7144 0.7803 0.0
N611 N 1.00028 0.75581 0.78221 0.0
N612 N 0.97854 0.76512 0.80192 0.0
C613 C 0.98645 0.76791 0.78412 0.0
C614 C 1.0012 0.74491 0.79945 0.0
C615 C 0.98781 0.75057 0.81157 0.0
C616 C 0.04103 0.78468 0.77509 0.0
O617 O 0.0387 0.77282 0.79081 0.0
H618 H 0.98225 0.77854 0.77251 0.0
H619 H 0.01114 0.73391 0.80319 0.0
O620 O 0.99482 0.75346 0.73688 0.0
H621 H 0.05359 0.69764 0.77052 0.0
H622 H 0.98548 0.74471 0.82654 0.0
Cu623 Cu 0.32193 0.01592 0.79032 0.0
N624 N 0.34271 0.03537 0.79187 0.0
N625 N 0.35671 0.06492 0.78425 0.0
C626 C 0.34059 0.05229 0.7817 0.0
C627 C 0.36977 0.0555 0.79649 0.0
C628 C 0.36097 0.0372 0.80137 0.0
O629 O 0.29898 0.03045 0.79183 0.0
C630 C 0.3401 0.9931 0.76752 0.0
O631 O 0.35339 0.99746 0.78249 0.0
H632 H 0.32741 0.05512 0.77223 0.0
H633 H 0.36743 0.02608 0.811 0.0
N634 N 0.32168 0.99715 0.81124 0.0
N635 N 0.30979 0.96939 0.82586 0.0
C636 C 0.30909 0.98119 0.80927 0.0
C637 C 0.33093 0.99556 0.82986 0.0
C638 C 0.32343 0.97839 0.83905 0.0
C639 C 0.29913 0.03786 0.80896 0.0
O640 O 0.3131 0.03393 0.82296 0.0
H641 H 0.29899 0.9787 0.796 0.0
H642 H 0.34189 1.00626 0.83643 0.0
O643 O 0.32385 1.00073 0.76668 0.0
H644 H 0.38447 0.06144 0.80163 0.0
H645 H 0.32752 0.97307 0.85421 0.0
Cu646 Cu 0.05955 0.25479 0.7916 0.0
N647 N 0.04458 0.27608 0.79042 0.0
N648 N 0.0205 0.29425 0.77827 0.0
C649 C 0.02898 0.27774 0.77677 0.0
C650 C 0.0313 0.30335 0.79363 0.0
C651 C 0.04613 0.29213 0.80107 0.0
O652 O 0.03897 0.23282 0.79058 0.0
C653 C 0.08906 0.27508 0.77366 0.0
O654 O 0.08791 0.28396 0.79029 0.0
H655 H 0.0239 0.2668 0.76603 0.0
H656 H 0.05735 0.29559 0.81317 0.0
N657 N 0.07684 0.25174 0.81519 0.0
N658 N 0.10305 0.24234 0.83479 0.0
C659 C 0.09255 0.24136 0.81657 0.0
C660 C 0.07738 0.25964 0.83318 0.0
C661 C 0.09342 0.25386 0.84526 0.0
C662 C 0.02917 0.2322 0.80593 0.0
O663 O 0.03537 0.2443 0.82014 0.0
H664 H 0.09646 0.23367 0.80414 0.0
H665 H 0.06692 0.26902 0.83724 0.0
O666 O 0.07684 0.26028 0.76985 0.0
H667 H 0.02896 0.3173 0.7989 0.0
H668 H 0.09754 0.2578 0.86062 0.0
Cu669 Cu 0.78899 0.02177 0.74212 0.0
N670 N 0.7921 0.03536 0.76595 0.0
N671 N 0.80607 0.05845 0.78639 0.0
C672 C 0.80711 0.04918 0.76938 0.0
C673 C 0.78963 0.05004 0.79403 0.0
C674 C 0.78104 0.03577 0.7814 0.0
O675 O 0.78665 0.04308 0.72146 0.0
C676 C 0.807 0.99245 0.76046 0.0
O677 O 0.79227 0.99496 0.77084 0.0
H678 H 0.81819 0.05285 0.75902 0.0
H679 H 0.76753 0.0267 0.78317 0.0
N680 N 0.76645 1.00419 0.73741 0.0
N681 N 0.7489 0.97819 0.72393 0.0
C682 C 0.76566 0.99019 0.72406 0.0
C683 C 0.74954 1.00103 0.74614 0.0
C684 C 0.73868 0.98503 0.73784 0.0
C685 C 0.77177 0.052 0.72428 0.0
O686 O 0.76038 0.04467 0.73798 0.0
H687 H 0.77764 0.98847 0.71518 0.0
H688 H 0.74549 0.00948 0.75789 0.0
O689 O 0.81015 1.0043 0.7455 0.0
H690 H 0.7841 0.05397 0.80769 0.0
H691 H 0.72441 0.9789 0.74185 0.0
Cu692 Cu 0.30792 0.75851 0.52303 0.0
N693 N 0.33118 0.76129 0.54052 0.0
N694 N 0.35095 0.77184 0.56734 0.0
C695 C 0.33372 0.77331 0.55594 0.0
C696 C 0.35965 0.75835 0.55848 0.0
C697 C 0.34743 0.75185 0.54202 0.0
O698 O 0.28669 0.75633 0.54112 0.0
C699 C 0.32321 0.77701 0.49024 0.0
O700 O 0.33408 0.76259 0.49461 0.0
H701 H 0.32291 0.78287 0.55874 0.0
H702 H 0.35006 0.74078 0.53213 0.0
N703 N 0.30383 0.73583 0.50841 0.0
N704 N 0.29062 0.7166 0.48365 0.0
C705 C 0.29148 0.73423 0.4915 0.0
C706 C 0.31115 0.71859 0.5115 0.0
C707 C 0.30305 0.70672 0.49626 0.0
C708 C 0.28872 0.74268 0.55458 0.0
O709 O 0.3035 0.73218 0.55409 0.0
H710 H 0.28349 0.74603 0.48499 0.0
H711 H 0.3215 0.71484 0.52398 0.0
O712 O 0.30998 0.77938 0.50187 0.0
H713 H 0.37361 0.7531 0.56377 0.0
H714 H 0.30596 0.69187 0.49483 0.0
Cu715 Cu 0.78813 0.79797 0.47991 0.0
N716 N 0.8098 0.79554 0.46532 0.0
N717 N 0.82772 0.78292 0.44385 0.0
C718 C 0.81042 0.78161 0.45214 0.0
C719 C 0.83837 0.79839 0.45223 0.0
C720 C 0.82731 0.80613 0.46541 0.0
O721 O 0.76634 0.80303 0.46048 0.0
C722 C 0.79889 0.77006 0.50705 0.0
O723 O 0.81586 0.77941 0.50345 0.0
H724 H 0.79844 0.77052 0.44901 0.0
H725 H 0.83175 0.81854 0.47445 0.0
N726 N 0.79106 0.81733 0.49887 0.0
N727 N 0.78453 0.83156 0.52655 0.0
C728 C 0.78117 0.81568 0.51542 0.0
C729 C 0.80111 0.83498 0.49941 0.0
C730 C 0.79711 0.84379 0.51645 0.0
C731 C 0.76978 0.81712 0.44798 0.0
O732 O 0.78706 0.82719 0.44966 0.0
H733 H 0.77113 0.80318 0.51881 0.0
H734 H 0.81036 0.84116 0.48808 0.0
O735 O 0.78354 0.77456 0.49636 0.0
H736 H 0.85306 0.80392 0.44895 0.0
H737 H 0.80298 0.85811 0.52095 0.0
Cu738 Cu 0.80525 0.24918 0.53179 0.0
N739 N 0.80081 0.22712 0.51608 0.0
N740 N 0.78706 0.20964 0.49008 0.0
C741 C 0.78744 0.22622 0.49987 0.0
C742 C 0.80082 0.19965 0.50069 0.0
C743 C 0.80924 0.21043 0.51671 0.0
O744 O 0.80807 0.27009 0.51085 0.0
C745 C 0.78553 0.23212 0.56209 0.0
O746 O 0.79996 0.22141 0.56064 0.0
H747 H 0.77853 0.23788 0.49506 0.0
H748 H 0.82073 0.20639 0.52787 0.0
N749 N 0.82831 0.25189 0.54983 0.0
N750 N 0.84831 0.26377 0.57594 0.0
C751 C 0.83167 0.26563 0.56367 0.0
C752 C 0.84345 0.24094 0.55339 0.0
C753 C 0.85575 0.2482 0.56946 0.0
C754 C 0.82254 0.26778 0.5008 0.0
O755 O 0.83374 0.25403 0.50711 0.0
H756 H 0.82164 0.2764 0.56513 0.0
H757 H 0.8453 0.2284 0.54516 0.0
O758 O 0.78379 0.24659 0.54957 0.0
H759 H 0.80451 0.1855 0.49725 0.0
H760 H 0.86913 0.2424 0.57587 0.0
Cu761 Cu 0.29739 0.30887 0.52138 0.0
N762 N 0.29934 0.32923 0.53912 0.0
N763 N 0.29197 0.34572 0.56491 0.0
C764 C 0.28843 0.32917 0.55481 0.0
C765 C 0.30579 0.35661 0.55513 0.0
C766 C 0.31024 0.34646 0.53922 0.0
O767 O 0.29366 0.28525 0.53783 0.0
C768 C 0.27768 0.32743 0.48969 0.0
O769 O 0.29292 0.34014 0.49352 0.0
H770 H 0.2781 0.31708 0.55872 0.0
H771 H 0.32041 0.35148 0.5283 0.0
N772 N 0.31947 0.30698 0.50738 0.0
N773 N 0.33762 0.29483 0.48587 0.0
C774 C 0.3201 0.29358 0.49367 0.0
C775 C 0.33725 0.31715 0.50837 0.0
C776 C 0.34844 0.30973 0.49509 0.0
C777 C 0.30877 0.2819 0.54955 0.0
O778 O 0.32467 0.29405 0.54888 0.0
H779 H 0.30777 0.28318 0.48942 0.0
H780 H 0.34188 0.32891 0.51823 0.0
O781 O 0.27592 0.31212 0.50094 0.0
H782 H 0.31189 0.37109 0.55885 0.0
H783 H 0.36352 0.31468 0.49276 0.0
Cu784 Cu 0.81671 0.52734 0.75567 0.0
N785 N 0.81518 0.5441 0.73324 0.0
N786 N 0.81845 0.57194 0.71518 0.0
C787 C 0.82203 0.56289 0.73328 0.0
C788 C 0.80893 0.55821 0.70326 0.0
C789 C 0.80697 0.54098 0.71448 0.0
O790 O 0.82195 0.54483 0.778 0.0
C791 C 0.84141 0.49524 0.76261 0.0
O792 O 0.83794 0.49465 0.7816 0.0
H793 H 0.82904 0.56988 0.74654 0.0
H794 H 0.79989 0.52723 0.70943 0.0
N795 N 0.79221 0.51396 0.75787 0.0
N796 N 0.76971 0.49194 0.76948 0.0
C797 C 0.78886 0.49634 0.7668 0.0
C798 C 0.77459 0.52092 0.75441 0.0
C799 C 0.76061 0.5073 0.76151 0.0
C800 C 0.81245 0.5431 0.79355 0.0
O801 O 0.80354 0.52615 0.7985 0.0
H802 H 0.80036 0.4873 0.77201 0.0
H803 H 0.77227 0.53531 0.74826 0.0
O804 O 0.83513 0.5087 0.75079 0.0
H805 H 0.80378 0.56042 0.68759 0.0
H806 H 0.7452 0.50909 0.76188 0.0
Cu807 Cu 0.31135 0.53428 0.74418 0.0
N808 N 0.33198 0.51815 0.74556 0.0
N809 N 0.34803 0.49252 0.75712 0.0
C810 C 0.33333 0.50349 0.75954 0.0
C811 C 0.35637 0.5008 0.74088 0.0
C812 C 0.34641 0.51651 0.73374 0.0
O813 O 0.28826 0.5151 0.74191 0.0
C814 C 0.3337 0.56059 0.7675 0.0
O815 O 0.34521 0.55715 0.75383 0.0
H816 H 0.32342 0.50089 0.7712 0.0
H817 H 0.34924 0.52572 0.72062 0.0
N818 N 0.30831 0.55231 0.72223 0.0
N819 N 0.29549 0.57736 0.70468 0.0
C820 C 0.29453 0.56497 0.72094 0.0
C821 C 0.31848 0.55679 0.70616 0.0
C822 C 0.31057 0.57215 0.69529 0.0
C823 C 0.28682 0.50667 0.7252 0.0
O824 O 0.29916 0.51302 0.71198 0.0
H825 H 0.28398 0.56501 0.7319 0.0
H826 H 0.33093 0.54968 0.70271 0.0
O827 O 0.31675 0.55103 0.76725 0.0
H828 H 0.36842 0.49557 0.73419 0.0
H829 H 0.31588 0.57919 0.6818 0.0
Cu830 Cu 0.30792 0.50115 0.26504 0.0
N831 N 0.28426 0.48661 0.26834 0.0
N832 N 0.26366 0.46315 0.28069 0.0
C833 C 0.28258 0.46985 0.27924 0.0
C834 C 0.25301 0.47619 0.27008 0.0
C835 C 0.26581 0.49075 0.26253 0.0
O836 O 0.32763 0.48242 0.26875 0.0
C837 C 0.30007 0.52388 0.29753 0.0
O838 O 0.29278 0.50749 0.30578 0.0
H839 H 0.29508 0.46288 0.28617 0.0
H840 H 0.26199 0.50367 0.25391 0.0
N841 N 0.30776 0.51177 0.23906 0.0
N842 N 0.31403 0.53391 0.21466 0.0
C843 C 0.31797 0.52856 0.23413 0.0
C844 C 0.29694 0.50616 0.22215 0.0
C845 C 0.30073 0.51992 0.20699 0.0
C846 C 0.34268 0.48289 0.25894 0.0
O847 O 0.34833 0.49883 0.24878 0.0
H848 H 0.32744 0.53713 0.2449 0.0
H849 H 0.28662 0.49334 0.22109 0.0
O850 O 0.30941 0.52354 0.28201 0.0
H851 H 0.23714 0.4756 0.26845 0.0
H852 H 0.29399 0.51984 0.19168 0.0
Cu853 Cu 0.79665 0.52364 0.23436 0.0
N854 N 0.79005 0.50274 0.25229 0.0
N855 N 0.79248 0.47544 0.27142 0.0
C856 C 0.80085 0.48779 0.25773 0.0
C857 C 0.7758 0.48295 0.27476 0.0
C858 C 0.77431 0.49973 0.2629 0.0
O859 O 0.81447 0.51579 0.21597 0.0
C860 C 0.82795 0.55089 0.25121 0.0
O861 O 0.83978 0.54098 0.24251 0.0
H862 H 0.81478 0.48622 0.25203 0.0
H863 H 0.76267 0.50918 0.26219 0.0
N864 N 0.77513 0.53381 0.21912 0.0
N865 N 0.75612 0.55665 0.20582 0.0
C866 C 0.76787 0.55075 0.22197 0.0
C867 C 0.76767 0.52893 0.2005 0.0
C868 C 0.75589 0.54281 0.19239 0.0
C869 C 0.81675 0.50116 0.20587 0.0
O870 O 0.83208 0.50264 0.1954 0.0
H871 H 0.77237 0.55936 0.23494 0.0
H872 H 0.77169 0.51698 0.19262 0.0
O873 O 0.80961 0.54536 0.24988 0.0
H874 H 0.76539 0.47673 0.28501 0.0
H875 H 0.74843 0.5431 0.17738 0.0
Cu876 Cu 0.52603 0.24144 0.78682 0.0
N877 N 0.51196 0.24243 0.80955 0.0
N878 N 0.49043 0.25393 0.82806 0.0
C879 C 0.49971 0.25618 0.81105 0.0
C880 C 0.49719 0.23798 0.83768 0.0
C881 C 0.51046 0.23095 0.82627 0.0
O882 O 0.50595 0.23809 0.76465 0.0
C883 C 0.55563 0.2658 0.80144 0.0
O884 O 0.55475 0.25128 0.81484 0.0
H885 H 0.49731 0.26739 0.79948 0.0
H886 H 0.51827 0.2183 0.82989 0.0
N887 N 0.54304 0.22184 0.7859 0.0
N888 N 0.56749 0.20724 0.77485 0.0
C889 C 0.55632 0.2223 0.77223 0.0
C890 C 0.54581 0.20584 0.79764 0.0
C891 C 0.56086 0.19685 0.79089 0.0
C892 C 0.49472 0.22253 0.76684 0.0
O893 O 0.49889 0.21063 0.78224 0.0
H894 H 0.55803 0.23383 0.76085 0.0
H895 H 0.53761 0.20107 0.81025 0.0
O896 O 0.54302 0.26532 0.78616 0.0
H897 H 0.49296 0.23184 0.852 0.0
H898 H 0.56637 0.18359 0.79727 0.0
Cu899 Cu 0.5572 0.75148 0.77494 0.0
N900 N 0.57635 0.74886 0.79719 0.0
N901 N 0.6036 0.73972 0.8153 0.0
C902 C 0.59198 0.73837 0.79772 0.0
C903 C 0.59479 0.75154 0.82622 0.0
C904 C 0.57814 0.75713 0.81508 0.0
O905 O 0.57208 0.75406 0.75118 0.0
C906 C 0.52716 0.73143 0.79299 0.0
O907 O 0.53478 0.74425 0.806 0.0
H908 H 0.59494 0.73026 0.78519 0.0
H909 H 0.56807 0.76659 0.81979 0.0
N910 N 0.54385 0.77397 0.77401 0.0
N911 N 0.52024 0.79354 0.76397 0.0
C912 C 0.52754 0.77651 0.76155 0.0
C913 C 0.54715 0.78998 0.78474 0.0
C914 C 0.53266 0.80202 0.77863 0.0
C915 C 0.58534 0.76837 0.75248 0.0
O916 O 0.58666 0.77886 0.76841 0.0
H917 H 0.52126 0.76594 0.75085 0.0
H918 H 0.55914 0.79272 0.79625 0.0
O919 O 0.53568 0.7306 0.77694 0.0
H920 H 0.59984 0.75576 0.84132 0.0
H921 H 0.5313 0.81582 0.78485 0.0
Cu922 Cu 0.49768 0.74985 0.27215 0.0
N923 N 0.48475 0.75221 0.29539 0.0
N924 N 0.46448 0.76377 0.31532 0.0
C925 C 0.47033 0.7638 0.29654 0.0
C926 C 0.47578 0.75145 0.32631 0.0
C927 C 0.48818 0.74438 0.31404 0.0
O928 O 0.47768 0.74123 0.25117 0.0
C929 C 0.52306 0.78139 0.28096 0.0
O930 O 0.52167 0.77252 0.29865 0.0
H931 H 0.46445 0.77222 0.28371 0.0
H932 H 0.4993 0.73468 0.31856 0.0
N933 N 0.5171 0.73242 0.27464 0.0
N934 N 0.54406 0.71939 0.26736 0.0
C935 C 0.53274 0.73425 0.26371 0.0
C936 C 0.51851 0.71578 0.28568 0.0
C937 C 0.53509 0.70773 0.28123 0.0
C938 C 0.46737 0.72546 0.2552 0.0
O939 O 0.47127 0.71632 0.2726 0.0
H940 H 0.53539 0.74605 0.2528 0.0
H941 H 0.50808 0.70974 0.29595 0.0
O942 O 0.51218 0.77456 0.26598 0.0
H943 H 0.47565 0.74814 0.34227 0.0
H944 H 0.54009 0.6943 0.28773 0.0
Cu945 Cu 0.55375 0.24219 0.271 0.0
N946 N 0.53468 0.22077 0.27208 0.0
N947 N 0.50706 0.20455 0.28197 0.0
C948 C 0.52041 0.22009 0.28459 0.0
C949 C 0.51325 0.19499 0.26708 0.0
C950 C 0.5303 0.20502 0.26101 0.0
O951 O 0.53735 0.26406 0.26714 0.0
C952 C 0.58135 0.22319 0.29346 0.0
O953 O 0.57464 0.21176 0.27879 0.0
H954 H 0.51944 0.23139 0.29486 0.0
H955 H 0.53858 0.20128 0.24911 0.0
N956 N 0.56924 0.24484 0.24923 0.0
N957 N 0.59319 0.25899 0.2314 0.0
C958 C 0.58366 0.25939 0.24805 0.0
C959 C 0.56953 0.23473 0.23268 0.0
C960 C 0.58427 0.24348 0.22162 0.0
C961 C 0.5265 0.2627 0.25045 0.0
O962 O 0.52872 0.24841 0.23905 0.0
H963 H 0.58685 0.27027 0.2592 0.0
H964 H 0.55977 0.22201 0.22886 0.0
O965 O 0.57344 0.23902 0.29428 0.0
H966 H 0.50595 0.18179 0.26088 0.0
H967 H 0.58823 0.23864 0.20759 0.0
C968 C 0.2105 0.18656 0.15971 0.0
C969 C 0.20992 0.19704 0.17692 0.0
C970 C 0.22027 0.19475 0.14323 0.0
C971 C 0.22961 0.21393 0.14393 0.0
C972 C 0.22976 0.22419 0.16171 0.0
C973 C 0.22002 0.21559 0.17796 0.0
C974 C 0.21989 0.18317 0.12474 0.0
C975 C 0.23951 0.24459 0.16328 0.0
C976 C 0.2662 0.23328 0.10629 0.0
C977 C 0.25461 0.24409 0.09225 0.0
C978 C 0.25824 0.22311 0.12289 0.0
C979 C 0.23817 0.22376 0.12577 0.0
C980 C 0.22635 0.23447 0.11161 0.0
C981 C 0.23464 0.24439 0.09509 0.0
C982 C 0.27141 0.21187 0.13755 0.0
C983 C 0.2049 0.23563 0.11402 0.0
H984 H 0.20259 0.17229 0.15882 0.0
H985 H 0.21975 0.2236 0.19136 0.0
H986 H 0.21086 0.18992 0.11214 0.0
H987 H 0.23493 0.18322 0.12006 0.0
H988 H 0.21369 0.16793 0.12722 0.0
H989 H 0.23934 0.25016 0.17851 0.0
H990 H 0.25496 0.24523 0.15963 0.0
H991 H 0.23182 0.25435 0.15221 0.0
H992 H 0.28165 0.233 0.10456 0.0
H993 H 0.22536 0.25233 0.08432 0.0
H994 H 0.26497 0.19664 0.13931 0.0
H995 H 0.27259 0.21819 0.15254 0.0
H996 H 0.28641 0.21193 0.1327 0.0
H997 H 0.19707 0.22087 0.1146 0.0
H998 H 0.19758 0.24429 0.10158 0.0
H999 H 0.20337 0.24228 0.12842 0.0
C1000 C 0.85997 0.20658 0.11156 0.0
C1001 C 0.85089 0.20275 0.12932 0.0
C1002 C 0.85316 0.22013 0.09698 0.0
C1003 C 0.83692 0.23012 0.10038 0.0
C1004 C 0.82721 0.22572 0.11802 0.0
C1005 C 0.83434 0.21199 0.13232 0.0
C1006 C 0.86379 0.22426 0.07829 0.0
C1007 C 0.80986 0.23606 0.12215 0.0
C1008 C 0.83421 0.27904 0.0726 0.0
C1009 C 0.82064 0.27434 0.05615 0.0
C1010 C 0.83927 0.26486 0.08743 0.0
C1011 C 0.83057 0.24556 0.08569 0.0
C1012 C 0.81656 0.24084 0.06936 0.0
C1013 C 0.81176 0.25527 0.05481 0.0
C1014 C 0.85423 0.27043 0.10472 0.0
C1015 C 0.80699 0.22043 0.067 0.0
H1016 H 0.87284 0.19937 0.10949 0.0
H1017 H 0.8276 0.20909 0.14628 0.0
H1018 H 0.85327 0.2226 0.06468 0.0
H1019 H 0.87055 0.23945 0.07798 0.0
H1020 H 0.87551 0.21451 0.07749 0.0
H1021 H 0.8032 0.23005 0.1359 0.0
H1022 H 0.81459 0.25166 0.12406 0.0
H1023 H 0.79845 0.23506 0.10923 0.0
H1024 H 0.84106 0.29373 0.07381 0.0
H1025 H 0.80118 0.25148 0.0422 0.0
H1026 H 0.86737 0.26249 0.10424 0.0
H1027 H 0.84808 0.26624 0.11922 0.0
H1028 H 0.85894 0.28621 0.1044 0.0
H1029 H 0.8183 0.2106 0.06489 0.0
H1030 H 0.79565 0.21935 0.05398 0.0
H1031 H 0.80004 0.21517 0.08079 0.0
C1032 C 0.86566 0.81209 0.16283 0.0
C1033 C 0.87604 0.83038 0.16077 0.0
C1034 C 0.85867 0.80137 0.14583 0.0
C1035 C 0.86212 0.8092 0.12633 0.0
C1036 C 0.8744 0.82677 0.12449 0.0
C1037 C 0.88106 0.83719 0.14171 0.0
C1038 C 0.84578 0.78272 0.14866 0.0
C1039 C 0.87869 0.83572 0.10417 0.0
C1040 C 0.84364 0.78217 0.07827 0.0
C1041 C 0.82598 0.79039 0.07257 0.0
C1042 C 0.85553 0.78775 0.09594 0.0
C1043 C 0.84953 0.80174 0.1082 0.0
C1044 C 0.83144 0.80955 0.10272 0.0
C1045 C 0.82004 0.80385 0.08513 0.0
C1046 C 0.8747 0.77907 0.10122 0.0
C1047 C 0.8242 0.82437 0.11524 0.0
H1048 H 0.86154 0.807 0.17756 0.0
H1049 H 0.88889 0.85146 0.14016 0.0
H1050 H 0.83016 0.78551 0.14534 0.0
H1051 H 0.84886 0.7718 0.13819 0.0
H1052 H 0.84783 0.77659 0.16431 0.0
H1053 H 0.8912 0.84718 0.10534 0.0
H1054 H 0.88205 0.82456 0.09412 0.0
H1055 H 0.86553 0.84233 0.09707 0.0
H1056 H 0.84837 0.77176 0.06873 0.0
H1057 H 0.80633 0.81017 0.08115 0.0
H1058 H 0.8758 0.77355 0.11711 0.0
H1059 H 0.88708 0.79043 0.09965 0.0
H1060 H 0.8764 0.76707 0.09141 0.0
H1061 H 0.82347 0.81865 0.13096 0.0
H1062 H 0.80944 0.82845 0.10934 0.0
H1063 H 0.83461 0.83767 0.11555 0.0
C1064 C 0.24309 0.85547 0.14389 0.0
C1065 C 0.22278 0.85552 0.13929 0.0
C1066 C 0.25577 0.85565 0.12853 0.0
C1067 C 0.24789 0.85579 0.10811 0.0
C1068 C 0.22749 0.85713 0.10348 0.0
C1069 C 0.21525 0.85707 0.11911 0.0
C1070 C 0.27742 0.8545 0.13421 0.0
C1071 C 0.21836 0.85734 0.08203 0.0
C1072 C 0.2801 0.86499 0.0644 0.0
C1073 C 0.28145 0.84609 0.05847 0.0
C1074 C 0.26978 0.8684 0.08087 0.0
C1075 C 0.26044 0.85258 0.09169 0.0
C1076 C 0.26216 0.83348 0.0861 0.0
C1077 C 0.27266 0.83049 0.06971 0.0
C1078 C 0.26845 0.88897 0.08639 0.0
C1079 C 0.2525 0.81614 0.09717 0.0
H1080 H 0.24888 0.85414 0.1595 0.0
H1081 H 0.19954 0.85724 0.11561 0.0
H1082 H 0.28128 0.83987 0.13123 0.0
H1083 H 0.28625 0.86511 0.12495 0.0
H1084 H 0.28161 0.85724 0.15034 0.0
H1085 H 0.20266 0.86017 0.08087 0.0
H1086 H 0.22644 0.86854 0.07273 0.0
H1087 H 0.21936 0.84313 0.07557 0.0
H1088 H 0.28667 0.8772 0.05587 0.0
H1089 H 0.27392 0.81582 0.0657 0.0
H1090 H 0.27292 0.89064 0.10263 0.0
H1091 H 0.25302 0.89252 0.08357 0.0
H1092 H 0.27783 0.89959 0.07764 0.0
H1093 H 0.25758 0.81636 0.11341 0.0
H1094 H 0.25567 0.80221 0.09137 0.0
H1095 H 0.23634 0.81673 0.09575 0.0
C1096 C 0.20465 0.8643 0.87211 0.0
C1097 C 0.20171 0.8507 0.8572 0.0
C1098 C 0.21603 0.86056 0.89018 0.0
C1099 C 0.22491 0.84297 0.89306 0.0
C1100 C 0.22169 0.8291 0.87803 0.0
C1101 C 0.20993 0.83309 0.8603 0.0
C1102 C 0.21895 0.8756 0.90594 0.0
C1103 C 0.23127 0.81039 0.88034 0.0
C1104 C 0.27169 0.84265 0.92791 0.0
C1105 C 0.26512 0.83211 0.94482 0.0
C1106 C 0.25871 0.84631 0.91099 0.0
C1107 C 0.2386 0.83959 0.91116 0.0
C1108 C 0.23177 0.82929 0.92833 0.0
C1109 C 0.24519 0.82547 0.94493 0.0
C1110 C 0.2666 0.857 0.89277 0.0
C1111 C 0.21033 0.82231 0.92914 0.0
H1112 H 0.19813 0.87787 0.86947 0.0
H1113 H 0.20765 0.82279 0.8485 0.0
H1114 H 0.21567 0.86884 0.92079 0.0
H1115 H 0.23451 0.88182 0.90741 0.0
H1116 H 0.2095 0.88758 0.9022 0.0
H1117 H 0.22666 0.80086 0.86757 0.0
H1118 H 0.24748 0.8136 0.88134 0.0
H1119 H 0.22761 0.80238 0.89446 0.0
H1120 H 0.28712 0.84769 0.9277 0.0
H1121 H 0.24006 0.81743 0.95804 0.0
H1122 H 0.2589 0.87016 0.88887 0.0
H1123 H 0.26381 0.84766 0.87966 0.0
H1124 H 0.28263 0.8614 0.89515 0.0
H1125 H 0.20126 0.83466 0.92612 0.0
H1126 H 0.20726 0.81525 0.94394 0.0
H1127 H 0.2056 0.8118 0.9173 0.0
C1128 C 0.25147 0.19968 0.90076 0.0
C1129 C 0.24192 0.18094 0.90185 0.0
C1130 C 0.2588 0.20937 0.91834 0.0
C1131 C 0.25654 0.20005 0.9375 0.0
C1132 C 0.24643 0.18124 0.93856 0.0
C1133 C 0.23921 0.17196 0.92074 0.0
C1134 C 0.26922 0.22947 0.91641 0.0
C1135 C 0.2435 0.17077 0.95854 0.0
C1136 C 0.28992 0.21961 0.98293 0.0
C1137 C 0.27776 0.23163 0.99101 0.0
C1138 C 0.28318 0.20899 0.96569 0.0
C1139 C 0.26384 0.21038 0.95636 0.0
C1140 C 0.25139 0.22202 0.9649 0.0
C1141 C 0.25846 0.23239 0.98199 0.0
C1142 C 0.2969 0.19667 0.95714 0.0
C1143 C 0.23068 0.22393 0.95568 0.0
H1144 H 0.25372 0.20646 0.88611 0.0
H1145 H 0.23195 0.15738 0.92147 0.0
H1146 H 0.26163 0.23977 0.92426 0.0
H1147 H 0.28444 0.22964 0.92372 0.0
H1148 H 0.26984 0.23469 0.90048 0.0
H1149 H 0.23543 0.15618 0.95681 0.0
H1150 H 0.25795 0.16916 0.96709 0.0
H1151 H 0.23519 0.17937 0.96764 0.0
H1152 H 0.30485 0.21898 0.98966 0.0
H1153 H 0.2488 0.24148 0.98812 0.0
H1154 H 0.29987 0.20237 0.94182 0.0
H1155 H 0.28994 0.18162 0.95572 0.0
H1156 H 0.31111 0.19636 0.96657 0.0
H1157 H 0.23099 0.23039 0.94018 0.0
H1158 H 0.22264 0.23311 0.96447 0.0
H1159 H 0.22233 0.20944 0.9546 0.0
C1160 C 0.86906 0.20454 0.89482 0.0
C1161 C 0.86931 0.21142 0.87482 0.0
C1162 C 0.86215 0.21546 0.90926 0.0
C1163 C 0.85505 0.23358 0.90344 0.0
C1164 C 0.85489 0.24035 0.88306 0.0
C1165 C 0.86219 0.22925 0.86903 0.0
C1166 C 0.86293 0.20784 0.93083 0.0
C1167 C 0.84722 0.25942 0.87614 0.0
C1168 C 0.8242 0.25527 0.93941 0.0
C1169 C 0.83805 0.26875 0.94925 0.0
C1170 C 0.82938 0.24398 0.92423 0.0
C1171 C 0.84895 0.24595 0.91888 0.0
C1172 C 0.86292 0.25961 0.92855 0.0
C1173 C 0.85728 0.27093 0.94335 0.0
C1174 C 0.81395 0.2298 0.91403 0.0
C1175 C 0.88399 0.26211 0.92346 0.0
H1176 H 0.87466 0.19075 0.89918 0.0
H1177 H 0.86233 0.2344 0.85348 0.0
H1178 H 0.87283 0.21791 0.94044 0.0
H1179 H 0.84815 0.20706 0.93631 0.0
H1180 H 0.86828 0.19324 0.93278 0.0
H1181 H 0.84691 0.26201 0.8596 0.0
H1182 H 0.83215 0.25983 0.88061 0.0
H1183 H 0.8566 0.27146 0.8835 0.0
H1184 H 0.80935 0.25327 0.94372 0.0
H1185 H 0.86812 0.28151 0.95027 0.0
H1186 H 0.81807 0.21483 0.91713 0.0
H1187 H 0.81309 0.23259 0.89751 0.0
H1188 H 0.79919 0.23064 0.91916 0.0
H1189 H 0.89057 0.24816 0.92612 0.0
H1190 H 0.89314 0.27323 0.93249 0.0
H1191 H 0.88458 0.26637 0.90731 0.0
C1192 C 0.87041 0.8522 0.88815 0.0
C1193 C 0.86501 0.84365 0.86967 0.0
C1194 C 0.86251 0.84454 0.90585 0.0
C1195 C 0.84865 0.82795 0.90509 0.0
C1196 C 0.84407 0.81859 0.88662 0.0
C1197 C 0.85233 0.82655 0.86914 0.0
C1198 C 0.86806 0.85497 0.92509 0.0
C1199 C 0.82943 0.8009 0.885 0.0
C1200 C 0.8348 0.8029 0.95492 0.0
C1201 C 0.81764 0.81132 0.95807 0.0
C1202 C 0.84489 0.8079 0.9377 0.0
C1203 C 0.8377 0.82162 0.92309 0.0
C1204 C 0.82024 0.82994 0.92604 0.0
C1205 C 0.81051 0.82474 0.9434 0.0
C1206 C 0.86347 0.79876 0.93532 0.0
C1207 C 0.81188 0.84451 0.91087 0.0
H1208 H 0.88004 0.86556 0.88846 0.0
H1209 H 0.84789 0.82016 0.85478 0.0
H1210 H 0.85528 0.86199 0.92914 0.0
H1211 H 0.87206 0.84457 0.93761 0.0
H1212 H 0.88056 0.86628 0.92374 0.0
H1213 H 0.8292 0.79401 0.87037 0.0
H1214 H 0.83283 0.79008 0.8973 0.0
H1215 H 0.81452 0.80508 0.88657 0.0
H1216 H 0.84062 0.79268 0.96615 0.0
H1217 H 0.79715 0.83113 0.94538 0.0
H1218 H 0.87605 0.81011 0.93532 0.0
H1219 H 0.86225 0.79176 0.92068 0.0
H1220 H 0.86674 0.78776 0.94752 0.0
H1221 H 0.82263 0.85744 0.90952 0.0
H1222 H 0.79792 0.84926 0.91502 0.0
H1223 H 0.80915 0.8382 0.89585 0.0
C1224 C 0.15881 0.20945 0.2346 0.0
C1225 C 0.15768 0.19216 0.22444 0.0
C1226 C 0.14338 0.21382 0.2455 0.0
C1227 C 0.12632 0.20057 0.24639 0.0
C1228 C 0.12513 0.18309 0.23609 0.0
C1229 C 0.14076 0.17914 0.22525 0.0
C1230 C 0.14538 0.23262 0.25616 0.0
C1231 C 0.10732 0.16851 0.23654 0.0
C1232 C 0.09372 0.20288 0.28936 0.0
C1233 C 0.07806 0.21269 0.28012 0.0
C1234 C 0.10946 0.19894 0.27865 0.0
C1235 C 0.10976 0.20493 0.25809 0.0
C1236 C 0.0941 0.21494 0.24869 0.0
C1237 C 0.07853 0.21866 0.25973 0.0
C1238 C 0.1258 0.18829 0.28938 0.0
C1239 C 0.09372 0.22162 0.22683 0.0
H1240 H 0.17193 0.21946 0.23416 0.0
H1241 H 0.13974 0.16587 0.21726 0.0
H1242 H 0.13304 0.24124 0.2507 0.0
H1243 H 0.14458 0.22962 0.27252 0.0
H1244 H 0.15943 0.24148 0.25385 0.0
H1245 H 0.10864 0.15561 0.22783 0.0
H1246 H 0.10514 0.16365 0.25229 0.0
H1247 H 0.09399 0.17532 0.23029 0.0
H1248 H 0.09381 0.19839 0.30509 0.0
H1249 H 0.06653 0.226 0.25221 0.0
H1250 H 0.14005 0.19725 0.2887 0.0
H1251 H 0.12693 0.1747 0.28178 0.0
H1252 H 0.1235 0.18464 0.30539 0.0
H1253 H 0.10722 0.23124 0.22426 0.0
H1254 H 0.08074 0.22953 0.22177 0.0
H1255 H 0.0935 0.20896 0.21736 0.0
C1256 C 0.87896 0.14045 0.18667 0.0
C1257 C 0.86397 0.15281 0.18386 0.0
C1258 C 0.87781 0.1244 0.20028 0.0
C1259 C 0.86108 0.12048 0.21112 0.0
C1260 C 0.84594 0.13306 0.20845 0.0
C1261 C 0.84764 0.14916 0.19492 0.0
C1262 C 0.89434 0.11149 0.20281 0.0
C1263 C 0.82783 0.12933 0.21967 0.0
C1264 C 0.8465 0.06869 0.2286 0.0
C1265 C 0.8522 0.06894 0.24931 0.0
C1266 C 0.84956 0.08527 0.21603 0.0
C1267 C 0.8588 0.10258 0.22427 0.0
C1268 C 0.86534 0.1028 0.24502 0.0
C1269 C 0.86192 0.08596 0.25732 0.0
C1270 C 0.84244 0.08438 0.19398 0.0
C1271 C 0.87544 0.12095 0.25429 0.0
H1272 H 0.89155 0.14333 0.17804 0.0
H1273 H 0.83629 0.15901 0.19304 0.0
H1274 H 0.8997 0.10976 0.21892 0.0
H1275 H 0.88893 0.09687 0.19754 0.0
H1276 H 0.9069 0.1173 0.19429 0.0
H1277 H 0.81768 0.14079 0.21633 0.0
H1278 H 0.81983 0.1152 0.21557 0.0
H1279 H 0.83207 0.12846 0.23609 0.0
H1280 H 0.83939 0.05549 0.22221 0.0
H1281 H 0.86627 0.08632 0.2733 0.0
H1282 H 0.85478 0.08872 0.18469 0.0
H1283 H 0.83124 0.09473 0.1901 0.0
H1284 H 0.83588 0.06968 0.18987 0.0
H1285 H 0.88807 0.1267 0.24589 0.0
H1286 H 0.88081 0.1184 0.27032 0.0
H1287 H 0.8651 0.13229 0.25328 0.0
C1288 C 0.91985 0.83122 0.18817 0.0
C1289 C 0.90403 0.83166 0.19977 0.0
C1290 C 0.9368 0.82236 0.19584 0.0
C1291 C 0.938 0.81384 0.21564 0.0
C1292 C 0.92152 0.81331 0.22689 0.0
C1293 C 0.90477 0.82212 0.21879 0.0
C1294 C 0.95383 0.82303 0.18315 0.0
C1295 C 0.92198 0.80445 0.24799 0.0
C1296 C 0.97813 0.78099 0.2345 0.0
C1297 C 0.99203 0.79376 0.2453 0.0
C1298 C 0.96073 0.78733 0.22445 0.0
C1299 C 0.95691 0.80693 0.22525 0.0
C1300 C 0.97089 0.8199 0.236 0.0
C1301 C 0.9882 0.81322 0.24576 0.0
C1302 C 0.94631 0.77298 0.2132 0.0
C1303 C 0.96746 0.84089 0.23739 0.0
H1304 H 0.91938 0.83872 0.17355 0.0
H1305 H 0.89248 0.82239 0.2277 0.0
H1306 H 0.96615 0.83304 0.18965 0.0
H1307 H 0.95921 0.80851 0.18311 0.0
H1308 H 0.94982 0.82805 0.16739 0.0
H1309 H 0.90747 0.80379 0.25412 0.0
H1310 H 0.9266 0.78959 0.2484 0.0
H1311 H 0.93291 0.81316 0.258 0.0
H1312 H 0.98061 0.76589 0.23413 0.0
H1313 H 0.9988 0.82337 0.2537 0.0
H1314 H 0.943 0.77844 0.19748 0.0
H1315 H 0.93227 0.77121 0.22028 0.0
H1316 H 0.95189 0.75854 0.213 0.0
H1317 H 0.96543 0.84782 0.22211 0.0
H1318 H 0.9798 0.84921 0.24612 0.0
H1319 H 0.95379 0.8419 0.24467 0.0
C1320 C 0.21706 0.89549 0.16725 0.0
C1321 C 0.22081 0.87796 0.17747 0.0
C1322 C 0.22333 0.91332 0.17607 0.0
C1323 C 0.23348 0.91353 0.19559 0.0
C1324 C 0.2386 0.89584 0.2052 0.0
C1325 C 0.23224 0.87831 0.19598 0.0
C1326 C 0.21783 0.93181 0.16512 0.0
C1327 C 0.2494 0.89524 0.22594 0.0
C1328 C 0.25826 0.9601 0.21847 0.0
C1329 C 0.24416 0.96497 0.23074 0.0
C1330 C 0.25482 0.94378 0.20652 0.0
C1331 C 0.23691 0.93181 0.2069 0.0
C1332 C 0.22251 0.93675 0.219 0.0
C1333 C 0.22626 0.95324 0.23064 0.0
C1334 C 0.27055 0.93911 0.19383 0.0
C1335 C 0.20321 0.92438 0.21994 0.0
H1336 H 0.20797 0.89515 0.15307 0.0
H1337 H 0.23493 0.86468 0.20388 0.0
H1338 H 0.20592 0.93747 0.17244 0.0
H1339 H 0.23053 0.94304 0.16588 0.0
H1340 H 0.21263 0.92953 0.14909 0.0
H1341 H 0.25414 0.88067 0.23036 0.0
H1342 H 0.26251 0.90597 0.22676 0.0
H1343 H 0.23964 0.89912 0.23705 0.0
H1344 H 0.27226 0.96875 0.21848 0.0
H1345 H 0.2151 0.9569 0.23973 0.0
H1346 H 0.26429 0.9371 0.17807 0.0
H1347 H 0.27629 0.92529 0.19951 0.0
H1348 H 0.28301 0.95062 0.19394 0.0
H1349 H 0.19551 0.92304 0.20464 0.0
H1350 H 0.19336 0.93039 0.2297 0.0
H1351 H 0.20594 0.90955 0.2258 0.0
C1352 C 0.14731 0.82881 0.79399 0.0
C1353 C 0.15071 0.84798 0.79975 0.0
C1354 C 0.12874 0.82141 0.7857 0.0
C1355 C 0.1133 0.83361 0.78303 0.0
C1356 C 0.11729 0.85355 0.78686 0.0
C1357 C 0.13603 0.86051 0.79533 0.0
C1358 C 0.12521 0.80008 0.78175 0.0
C1359 C 0.10138 0.86713 0.78371 0.0
C1360 C 0.06564 0.80844 0.75921 0.0
C1361 C 0.05718 0.80045 0.77639 0.0
C1362 C 0.08336 0.82058 0.76097 0.0
C1363 C 0.09271 0.82461 0.78032 0.0
C1364 C 0.08335 0.81777 0.7976 0.0
C1365 C 0.06569 0.80586 0.7954 0.0
C1366 C 0.09266 0.82797 0.7422 0.0
C1367 C 0.09271 0.82178 0.81855 0.0
H1368 H 0.1589 0.81932 0.79722 0.0
H1369 H 0.13882 0.87538 0.79978 0.0
H1370 H 0.11633 0.79261 0.79336 0.0
H1371 H 0.11683 0.79778 0.76692 0.0
H1372 H 0.13916 0.79321 0.78215 0.0
H1373 H 0.10763 0.88251 0.78296 0.0
H1374 H 0.09177 0.86404 0.76971 0.0
H1375 H 0.09207 0.86507 0.79642 0.0
H1376 H 0.05907 0.80437 0.74446 0.0
H1377 H 0.05903 0.79998 0.80872 0.0
H1378 H 0.10438 0.81878 0.73961 0.0
H1379 H 0.09954 0.84303 0.74376 0.0
H1380 H 0.08177 0.82751 0.72877 0.0
H1381 H 0.1064 0.81446 0.82143 0.0
H1382 H 0.08285 0.81658 0.83031 0.0
H1383 H 0.09679 0.83752 0.82007 0.0
C1384 C 0.23287 0.1177 0.8437 0.0
C1385 C 0.2461 0.13358 0.84948 0.0
C1386 C 0.23911 0.10198 0.83437 0.0
C1387 C 0.25915 0.102 0.83096 0.0
C1388 C 0.2724 0.11838 0.83614 0.0
C1389 C 0.26569 0.13397 0.84523 0.0
C1390 C 0.22442 0.085 0.82894 0.0
C1391 C 0.29389 0.11909 0.83292 0.0
C1392 C 0.28268 0.05464 0.83349 0.0
C1393 C 0.28568 0.05226 0.81336 0.0
C1394 C 0.27341 0.07029 0.8392 0.0
C1395 C 0.26681 0.0841 0.82443 0.0
C1396 C 0.26881 0.08126 0.80389 0.0
C1397 C 0.27824 0.06536 0.79857 0.0
C1398 C 0.27163 0.07256 0.86125 0.0
C1399 C 0.26188 0.09554 0.78763 0.0
H1400 H 0.21773 0.11735 0.84703 0.0
H1401 H 0.27585 0.14637 0.8494 0.0
H1402 H 0.22571 0.08082 0.81339 0.0
H1403 H 0.22752 0.07233 0.83913 0.0
H1404 H 0.20908 0.0882 0.83016 0.0
H1405 H 0.30196 0.1334 0.83629 0.0
H1406 H 0.30079 0.10782 0.84277 0.0
H1407 H 0.29562 0.1159 0.81717 0.0
H1408 H 0.28829 0.04454 0.84502 0.0
H1409 H 0.28069 0.06377 0.78302 0.0
H1410 H 0.25619 0.0742 0.86377 0.0
H1411 H 0.28066 0.08587 0.86634 0.0
H1412 H 0.27654 0.06003 0.87075 0.0
H1413 H 0.24689 0.09915 0.78979 0.0
H1414 H 0.26178 0.0899 0.7724 0.0
H1415 H 0.27177 0.10917 0.78846 0.0
C1416 C 0.92488 0.17659 0.82937 0.0
C1417 C 0.91159 0.19063 0.82544 0.0
C1418 C 0.94365 0.17936 0.82224 0.0
C1419 C 0.94935 0.19679 0.81136 0.0
C1420 C 0.93511 0.20991 0.80553 0.0
C1421 C 0.91635 0.20651 0.81243 0.0
C1422 C 0.95798 0.16453 0.82801 0.0
C1423 C 0.94033 0.22867 0.79399 0.0
C1424 C 1.00039 0.22146 0.82503 0.0
C1425 C 1.00981 0.22055 0.80743 0.0
C1426 C 0.98107 0.21333 0.82652 0.0
C1427 C 0.97071 0.20341 0.8102 0.0
C1428 C 0.98044 0.20132 0.79278 0.0
C1429 C 0.99982 0.21012 0.79148 0.0
C1430 C 0.97143 0.21627 0.84535 0.0
C1431 C 0.97023 0.19042 0.77522 0.0
H1432 H 0.92122 0.16423 0.83935 0.0
H1433 H 0.9059 0.21716 0.80909 0.0
H1434 H 0.96703 0.16278 0.81549 0.0
H1435 H 0.96808 0.16946 0.8411 0.0
H1436 H 0.95034 0.15024 0.83219 0.0
H1437 H 0.92711 0.23601 0.78837 0.0
H1438 H 0.95004 0.23858 0.80396 0.0
H1439 H 0.94848 0.22611 0.78105 0.0
H1440 H 1.00789 0.22927 0.8376 0.0
H1441 H 1.00689 0.20926 0.77783 0.0
H1442 H 0.96595 0.20211 0.85218 0.0
H1443 H 0.95859 0.2247 0.8415 0.0
H1444 H 0.9816 0.22411 0.85679 0.0
H1445 H 0.96074 0.1776 0.78036 0.0
H1446 H 0.98094 0.18559 0.76562 0.0
H1447 H 0.96073 0.20003 0.76584 0.0
C1448 C 0.86524 0.91275 0.82266 0.0
C1449 C 0.86248 0.89445 0.8144 0.0
C1450 C 0.85883 0.92919 0.81174 0.0
C1451 C 0.84951 0.92736 0.79196 0.0
C1452 C 0.84773 0.90906 0.78316 0.0
C1453 C 0.85412 0.89284 0.79451 0.0
C1454 C 0.86097 0.94829 0.82185 0.0
C1455 C 0.838 0.90636 0.76216 0.0
C1456 C 0.80905 0.96028 0.7781 0.0
C1457 C 0.81808 0.97531 0.7663 0.0
C1458 C 0.81901 0.94458 0.78603 0.0
C1459 C 0.83869 0.94355 0.78208 0.0
C1460 C 0.8478 0.95824 0.76951 0.0
C1461 C 0.83737 0.974 0.76172 0.0
C1462 C 0.80852 0.92934 0.79919 0.0
C1463 C 0.8687 0.95755 0.76477 0.0
H1464 H 0.87197 0.91407 0.83791 0.0
H1465 H 0.85191 0.8787 0.78811 0.0
H1466 H 0.86712 0.96006 0.81178 0.0
H1467 H 0.84628 0.95194 0.82509 0.0
H1468 H 0.87056 0.9479 0.8362 0.0
H1469 H 0.84057 0.89224 0.75633 0.0
H1470 H 0.82193 0.90693 0.76215 0.0
H1471 H 0.84348 0.91818 0.75174 0.0
H1472 H 0.79403 0.96088 0.78151 0.0
H1473 H 0.84448 0.98549 0.75263 0.0
H1474 H 0.8163 0.92897 0.81452 0.0
H1475 H 0.8086 0.91482 0.7931 0.0
H1476 H 0.79304 0.93204 0.80043 0.0
H1477 H 0.87875 0.95956 0.77867 0.0
H1478 H 0.87309 0.96895 0.75336 0.0
H1479 H 0.87064 0.94318 0.75919 0.0
C1480 C 0.23067 0.16138 0.20761 0.0
C1481 C 0.21081 0.15799 0.20055 0.0
C1482 C 0.24262 0.14595 0.21109 0.0
C1483 C 0.23446 0.1267 0.20743 0.0
C1484 C 0.21488 0.12362 0.19848 0.0
C1485 C 0.20331 0.13927 0.19525 0.0
C1486 C 0.26339 0.15006 0.22045 0.0
C1487 C 0.20548 0.10352 0.19411 0.0
C1488 C 0.26391 0.08215 0.21458 0.0
C1489 C 0.25916 0.07501 0.23368 0.0
C1490 C 0.25663 0.0994 0.20593 0.0
C1491 C 0.24453 0.10973 0.21671 0.0
C1492 C 0.24066 0.10299 0.23639 0.0
C1493 C 0.24793 0.08584 0.2445 0.0
C1494 C 0.2612 0.1061 0.18497 0.0
C1495 C 0.22807 0.11345 0.24869 0.0
H1496 H 0.23641 0.17586 0.21181 0.0
H1497 H 0.18794 0.13672 0.18978 0.0
H1498 H 0.26395 0.14614 0.23677 0.0
H1499 H 0.27345 0.14121 0.21381 0.0
H1500 H 0.26878 0.16561 0.21856 0.0
H1501 H 0.19152 0.10384 0.18427 0.0
H1502 H 0.2156 0.09525 0.18682 0.0
H1503 H 0.20226 0.09562 0.20844 0.0
H1504 H 0.27255 0.07389 0.20611 0.0
H1505 H 0.24445 0.08067 0.25943 0.0
H1506 H 0.26565 0.12191 0.18422 0.0
H1507 H 0.24781 0.10341 0.17443 0.0
H1508 H 0.27304 0.09839 0.17979 0.0
H1509 H 0.23387 0.12889 0.24974 0.0
H1510 H 0.2274 0.10694 0.26416 0.0
H1511 H 0.21289 0.11302 0.24124 0.0
C1512 C 0.21237 0.90283 0.82585 0.0
C1513 C 0.2135 0.88283 0.82785 0.0
C1514 C 0.22942 0.91579 0.82768 0.0
C1515 C 0.24798 0.90854 0.83205 0.0
C1516 C 0.2491 0.88834 0.83486 0.0
C1517 C 0.23184 0.87571 0.83242 0.0
C1518 C 0.2276 0.93722 0.82432 0.0
C1519 C 0.26853 0.88006 0.83996 0.0
C1520 C 0.28983 0.94101 0.812 0.0
C1521 C 0.29691 0.95195 0.82866 0.0
C1522 C 0.27447 0.92627 0.81317 0.0
C1523 C 0.26619 0.92204 0.83161 0.0
C1524 C 0.27432 0.93193 0.84894 0.0
C1525 C 0.28957 0.9469 0.84724 0.0
C1526 C 0.26633 0.91606 0.79431 0.0
C1527 C 0.26619 0.92745 0.86898 0.0
H1528 H 0.19812 0.90827 0.82268 0.0
H1529 H 0.23269 0.86021 0.83378 0.0
H1530 H 0.2348 0.94515 0.83744 0.0
H1531 H 0.23523 0.9428 0.81102 0.0
H1532 H 0.21205 0.94053 0.82182 0.0
H1533 H 0.26671 0.86414 0.84302 0.0
H1534 H 0.27786 0.88322 0.82736 0.0
H1535 H 0.27651 0.88697 0.85336 0.0
H1536 H 0.29582 0.94453 0.79774 0.0
H1537 H 0.29501 0.95528 0.86016 0.0
H1538 H 0.25107 0.91967 0.78999 0.0
H1539 H 0.26574 0.90014 0.79702 0.0
H1540 H 0.2752 0.92024 0.78149 0.0
H1541 H 0.25158 0.93298 0.86861 0.0
H1542 H 0.27592 0.9342 0.88147 0.0
H1543 H 0.26412 0.91157 0.87217 0.0
C1544 C 0.20864 0.20225 0.85567 0.0
C1545 C 0.20831 0.18596 0.8689 0.0
C1546 C 0.19205 0.21265 0.8515 0.0
C1547 C 0.17466 0.20659 0.86082 0.0
C1548 C 0.17473 0.19077 0.87514 0.0
C1549 C 0.19155 0.18062 0.87895 0.0
C1550 C 0.19278 0.22939 0.83619 0.0
C1551 C 0.15666 0.18385 0.88558 0.0
C1552 C 0.13384 0.24061 0.85755 0.0
C1553 C 0.12091 0.23333 0.84147 0.0
C1554 C 0.15124 0.23204 0.8641 0.0
C1555 C 0.15603 0.21577 0.85437 0.0
C1556 C 0.14307 0.20832 0.83819 0.0
C1557 C 0.12575 0.21711 0.832 0.0
C1558 C 0.16459 0.2405 0.88138 0.0
C1559 C 0.14752 0.191 0.82734 0.0
H1560 H 0.22158 0.20615 0.84774 0.0
H1561 H 0.19128 0.16783 0.88896 0.0
H1562 H 0.18302 0.22541 0.82252 0.0
H1563 H 0.18734 0.24222 0.84216 0.0
H1564 H 0.20787 0.23347 0.83178 0.0
H1565 H 0.15969 0.17278 0.89777 0.0
H1566 H 0.15078 0.19619 0.89205 0.0
H1567 H 0.14505 0.17745 0.8745 0.0
H1568 H 0.13055 0.25323 0.8649 0.0
H1569 H 0.11589 0.21109 0.81981 0.0
H1570 H 0.17921 0.24551 0.8763 0.0
H1571 H 0.16686 0.22922 0.89352 0.0
H1572 H 0.15861 0.25288 0.8877 0.0
H1573 H 0.16181 0.19413 0.82086 0.0
H1574 H 0.13601 0.18694 0.81504 0.0
H1575 H 0.14883 0.17839 0.83809 0.0
C1576 C 0.8779 0.14093 0.84145 0.0
C1577 C 0.87754 0.15863 0.83049 0.0
C1578 C 0.86832 0.12379 0.83349 0.0
C1579 C 0.85798 0.12444 0.81412 0.0
C1580 C 0.85887 0.14209 0.80241 0.0
C1581 C 0.86869 0.159 0.81076 0.0
C1582 C 0.86798 0.10534 0.84646 0.0
C1583 C 0.84817 0.14347 0.78167 0.0
C1584 C 0.83888 0.07711 0.78929 0.0
C1585 C 0.81922 0.07468 0.79384 0.0
C1586 C 0.85166 0.09317 0.79573 0.0
C1587 C 0.84469 0.10725 0.80702 0.0
C1588 C 0.82491 0.10482 0.8118 0.0
C1589 C 0.81246 0.08859 0.8052 0.0
C1590 C 0.87265 0.09508 0.79048 0.0
C1591 C 0.81683 0.1195 0.82378 0.0
H1592 H 0.88455 0.14082 0.85682 0.0
H1593 H 0.86815 0.17281 0.80251 0.0
H1594 H 0.8531 0.10177 0.85154 0.0
H1595 H 0.87119 0.09307 0.83777 0.0
H1596 H 0.87876 0.10664 0.85994 0.0
H1597 H 0.85226 0.15747 0.77363 0.0
H1598 H 0.85131 0.13148 0.77255 0.0
H1599 H 0.8321 0.14207 0.7829 0.0
H1600 H 0.84436 0.06633 0.78078 0.0
H1601 H 0.7973 0.08702 0.8086 0.0
H1602 H 0.88284 0.09553 0.80441 0.0
H1603 H 0.87582 0.10889 0.78177 0.0
H1604 H 0.87581 0.08294 0.78153 0.0
H1605 H 0.82545 0.12083 0.83863 0.0
H1606 H 0.80115 0.11556 0.82621 0.0
H1607 H 0.81824 0.13395 0.81587 0.0
C1608 C 0.90826 0.83267 0.84932 0.0
C1609 C 0.89052 0.83289 0.83713 0.0
C1610 C 0.92227 0.82007 0.84572 0.0
C1611 C 0.9184 0.80739 0.82954 0.0
C1612 C 0.89982 0.80664 0.81818 0.0
C1613 C 0.88618 0.81943 0.82209 0.0
C1614 C 0.94177 0.82137 0.85829 0.0
C1615 C 0.89488 0.79335 0.80091 0.0
C1616 C 0.96113 0.79475 0.8019 0.0
C1617 C 0.9637 0.77575 0.8092 0.0
C1618 C 0.9467 0.80519 0.80862 0.0
C1619 C 0.93435 0.79654 0.82305 0.0
C1620 C 0.93694 0.77745 0.83064 0.0
C1621 C 0.95155 0.76732 0.82367 0.0
C1622 C 0.94458 0.82553 0.80013 0.0
C1623 C 0.92408 0.76761 0.84593 0.0
H1624 H 0.91173 0.84334 0.86069 0.0
H1625 H 0.87255 0.81984 0.81252 0.0
H1626 H 0.94592 0.80671 0.86312 0.0
H1627 H 0.95334 0.82842 0.84914 0.0
H1628 H 0.94156 0.82991 0.87182 0.0
H1629 H 0.8791 0.79276 0.7952 0.0
H1630 H 0.9038 0.79854 0.78841 0.0
H1631 H 0.89851 0.77847 0.80552 0.0
H1632 H 0.97057 0.8016 0.79102 0.0
H1633 H 0.95319 0.75263 0.82931 0.0
H1634 H 0.9463 0.83579 0.81248 0.0
H1635 H 0.92966 0.82636 0.79233 0.0
H1636 H 0.95555 0.83037 0.78934 0.0
H1637 H 0.92481 0.77659 0.85924 0.0
H1638 H 0.9284 0.75302 0.85095 0.0
H1639 H 0.90855 0.76608 0.8394 0.0
C1640 C 0.85277 0.88386 0.2194 0.0
C1641 C 0.85969 0.88418 0.20036 0.0
C1642 C 0.84483 0.90001 0.2261 0.0
C1643 C 0.84358 0.91695 0.21341 0.0
C1644 C 0.84982 0.91702 0.19383 0.0
C1645 C 0.85789 0.90071 0.1876 0.0
C1646 C 0.83853 0.89921 0.24713 0.0
C1647 C 0.84871 0.93463 0.17972 0.0
C1648 C 0.8136 0.95598 0.23021 0.0
C1649 C 0.82831 0.96806 0.24069 0.0
C1650 C 0.8183 0.93959 0.22063 0.0
C1651 C 0.83814 0.93521 0.22158 0.0
C1652 C 0.85302 0.9479 0.23139 0.0
C1653 C 0.84795 0.96406 0.24071 0.0
C1654 C 0.80199 0.92656 0.21018 0.0
C1655 C 0.87436 0.944 0.23283 0.0
H1656 H 0.85388 0.871 0.22917 0.0
H1657 H 0.86331 0.90105 0.17292 0.0
H1658 H 0.84839 0.90961 0.25639 0.0
H1659 H 0.82342 0.90356 0.24685 0.0
H1660 H 0.83895 0.88454 0.25452 0.0
H1661 H 0.85181 0.9316 0.16427 0.0
H1662 H 0.83396 0.93992 0.17904 0.0
H1663 H 0.85956 0.94647 0.1854 0.0
H1664 H 0.79839 0.95885 0.23022 0.0
H1665 H 0.85949 0.97336 0.24859 0.0
H1666 H 0.80028 0.91247 0.21875 0.0
H1667 H 0.80566 0.92354 0.19495 0.0
H1668 H 0.78774 0.93296 0.20883 0.0
H1669 H 0.87635 0.93017 0.24151 0.0
H1670 H 0.88425 0.9557 0.24025 0.0
H1671 H 0.87897 0.94243 0.21763 0.0
C1672 C 0.15296 0.81849 0.16661 0.0
C1673 C 0.17074 0.82144 0.1787 0.0
C1674 C 0.13665 0.80733 0.17387 0.0
C1675 C 0.13819 0.79905 0.19372 0.0
C1676 C 0.15656 0.80103 0.20545 0.0
C1677 C 0.17258 0.81217 0.19777 0.0
C1678 C 0.11746 0.80548 0.16078 0.0
C1679 C 0.15896 0.7925 0.22666 0.0
C1680 C 0.09503 0.79628 0.22521 0.0
C1681 C 0.08934 0.77632 0.22676 0.0
C1682 C 0.11024 0.80383 0.21374 0.0
C1683 C 0.12019 0.79113 0.20344 0.0
C1684 C 0.11383 0.77103 0.20398 0.0
C1685 C 0.0984 0.76382 0.21565 0.0
C1686 C 0.11632 0.82536 0.21355 0.0
C1687 C 0.12393 0.75704 0.19307 0.0
H1688 H 0.15156 0.8257 0.15186 0.0
H1689 H 0.18645 0.8143 0.20697 0.0
H1690 H 0.11045 0.79039 0.16156 0.0
H1691 H 0.10722 0.81492 0.16627 0.0
H1692 H 0.11945 0.80982 0.14484 0.0
H1693 H 0.17459 0.79341 0.23291 0.0
H1694 H 0.1507 0.80042 0.23646 0.0
H1695 H 0.15282 0.77711 0.22722 0.0
H1696 H 0.08794 0.80608 0.23356 0.0
H1697 H 0.09413 0.74838 0.21683 0.0
H1698 H 0.11661 0.83134 0.19787 0.0
H1699 H 0.13139 0.82809 0.2211 0.0
H1700 H 0.1063 0.83338 0.22131 0.0
H1701 H 0.12599 0.76263 0.17751 0.0
H1702 H 0.11556 0.74251 0.1925 0.0
H1703 H 0.13872 0.75545 0.20087 0.0
C1704 C 0.89472 0.1861 0.20506 0.0
C1705 C 0.89794 0.18355 0.18514 0.0
C1706 C 0.91054 0.19016 0.21952 0.0
C1707 C 0.92993 0.19162 0.21375 0.0
C1708 C 0.93322 0.18798 0.19382 0.0
C1709 C 0.91708 0.18405 0.17967 0.0
C1710 C 0.90646 0.19395 0.24064 0.0
C1711 C 0.95369 0.18915 0.18721 0.0
C1712 C 0.96723 0.2253 0.24361 0.0
C1713 C 0.97646 0.21227 0.25716 0.0
C1714 C 0.95226 0.21869 0.22915 0.0
C1715 C 0.94658 0.19857 0.22814 0.0
C1716 C 0.95627 0.1853 0.24133 0.0
C1717 C 0.97107 0.19232 0.25578 0.0
C1718 C 0.94213 0.23327 0.21534 0.0
C1719 C 0.95071 0.16374 0.24047 0.0
H1720 H 0.87978 0.18581 0.20903 0.0
H1721 H 0.91931 0.18194 0.16416 0.0
H1722 H 0.91523 0.1851 0.25171 0.0
H1723 H 0.9109 0.20939 0.24374 0.0
H1724 H 0.89068 0.19068 0.24302 0.0
H1725 H 0.95376 0.18389 0.17184 0.0
H1726 H 0.96031 0.20439 0.18736 0.0
H1727 H 0.96318 0.18051 0.19779 0.0
H1728 H 0.97132 0.24072 0.24463 0.0
H1729 H 0.97826 0.18217 0.26615 0.0
H1730 H 0.92635 0.23236 0.2179 0.0
H1731 H 0.94294 0.22998 0.19943 0.0
H1732 H 0.9487 0.24836 0.2177 0.0
H1733 H 0.93539 0.16023 0.24434 0.0
H1734 H 0.96051 0.1553 0.25096 0.0
H1735 H 0.95129 0.15898 0.225 0.0
C1736 C 0.2164 0.69235 0.63291 0.0
C1737 C 0.215 0.70359 0.64936 0.0
C1738 C 0.22759 0.69953 0.61709 0.0
C1739 C 0.23773 0.71837 0.61779 0.0
C1740 C 0.23648 0.72965 0.63457 0.0
C1741 C 0.22513 0.72213 0.6501 0.0
C1742 C 0.22854 0.68694 0.59959 0.0
C1743 C 0.24726 0.74962 0.63621 0.0
C1744 C 0.28262 0.72772 0.58834 0.0
C1745 C 0.27558 0.73818 0.57102 0.0
C1746 C 0.27058 0.72153 0.60366 0.0
C1747 C 0.25076 0.7257 0.60174 0.0
C1748 C 0.24356 0.73662 0.58451 0.0
C1749 C 0.25609 0.74285 0.56939 0.0
C1750 C 0.27906 0.71022 0.6218 0.0
C1751 C 0.2225 0.74133 0.58187 0.0
H1752 H 0.20838 0.67811 0.63227 0.0
H1753 H 0.22409 0.73074 0.66291 0.0
H1754 H 0.22375 0.6947 0.58532 0.0
H1755 H 0.24392 0.6838 0.59867 0.0
H1756 H 0.21921 0.67299 0.60088 0.0
H1757 H 0.24427 0.75679 0.64988 0.0
H1758 H 0.26331 0.74868 0.63661 0.0
H1759 H 0.24296 0.75888 0.62281 0.0
H1760 H 0.29771 0.72418 0.58993 0.0
H1761 H 0.25049 0.75082 0.55606 0.0
H1762 H 0.27109 0.69554 0.62277 0.0
H1763 H 0.27714 0.71747 0.63575 0.0
H1764 H 0.29493 0.70868 0.62132 0.0
H1765 H 0.21254 0.72772 0.58122 0.0
H1766 H 0.21925 0.75035 0.56797 0.0
H1767 H 0.21915 0.74913 0.59496 0.0
C1768 C 0.80576 0.7508 0.62235 0.0
C1769 C 0.81017 0.73215 0.62879 0.0
C1770 C 0.79957 0.75499 0.60213 0.0
C1771 C 0.79729 0.73996 0.58832 0.0
C1772 C 0.79953 0.72069 0.59534 0.0
C1773 C 0.80638 0.71708 0.61544 0.0
C1774 C 0.7976 0.77582 0.59529 0.0
C1775 C 0.79655 0.70415 0.58128 0.0
C1776 C 0.77961 0.75424 0.53449 0.0
C1777 C 0.7976 0.75872 0.52624 0.0
C1778 C 0.77907 0.74718 0.55453 0.0
C1779 C 0.79692 0.74494 0.56649 0.0
C1780 C 0.81499 0.74844 0.55785 0.0
C1781 C 0.81506 0.75499 0.53778 0.0
C1782 C 0.75953 0.74301 0.56314 0.0
C1783 C 0.83443 0.74632 0.5701 0.0
H1784 H 0.80836 0.76231 0.63287 0.0
H1785 H 0.80989 0.70264 0.62044 0.0
H1786 H 0.8112 0.78187 0.58863 0.0
H1787 H 0.78517 0.77699 0.58357 0.0
H1788 H 0.79547 0.78483 0.60798 0.0
H1789 H 0.79439 0.68993 0.58958 0.0
H1790 H 0.78368 0.70574 0.57014 0.0
H1791 H 0.80967 0.70414 0.57287 0.0
H1792 H 0.76606 0.75709 0.52564 0.0
H1793 H 0.82901 0.75821 0.53144 0.0
H1794 H 0.75787 0.75418 0.57391 0.0
H1795 H 0.75877 0.72879 0.57156 0.0
H1796 H 0.74703 0.74296 0.55129 0.0
H1797 H 0.83618 0.75614 0.58284 0.0
H1798 H 0.84715 0.74975 0.56106 0.0
H1799 H 0.83485 0.73132 0.57653 0.0
C1800 C 0.90055 0.33386 0.66194 0.0
C1801 C 0.88757 0.33557 0.67648 0.0
C1802 C 0.89536 0.32143 0.64584 0.0
C1803 C 0.8768 0.3103 0.64434 0.0
C1804 C 0.86408 0.31138 0.6596 0.0
C1805 C 0.86958 0.32404 0.67538 0.0
C1806 C 0.90939 0.32087 0.62996 0.0
C1807 C 0.8443 0.29968 0.65889 0.0
C1808 C 0.85232 0.29503 0.59298 0.0
C1809 C 0.85599 0.27551 0.59282 0.0
C1810 C 0.85933 0.30653 0.6094 0.0
C1811 C 0.87017 0.29838 0.62633 0.0
C1812 C 0.87405 0.27872 0.62623 0.0
C1813 C 0.86703 0.2676 0.6095 0.0
C1814 C 0.85498 0.32743 0.60867 0.0
C1815 C 0.8853 0.26932 0.64398 0.0
H1816 H 0.91436 0.34294 0.66269 0.0
H1817 H 0.85959 0.32536 0.68666 0.0
H1818 H 0.91197 0.3057 0.62756 0.0
H1819 H 0.90283 0.32696 0.61548 0.0
H1820 H 0.92375 0.32926 0.634 0.0
H1821 H 0.83679 0.30102 0.67263 0.0
H1822 H 0.83476 0.30463 0.64568 0.0
H1823 H 0.84597 0.28416 0.65713 0.0
H1824 H 0.84408 0.3014 0.58012 0.0
H1825 H 0.86979 0.25252 0.60971 0.0
H1826 H 0.86887 0.33701 0.61094 0.0
H1827 H 0.84599 0.32984 0.62103 0.0
H1828 H 0.84698 0.33181 0.59418 0.0
H1829 H 0.89981 0.27763 0.64733 0.0
H1830 H 0.88765 0.2541 0.64139 0.0
H1831 H 0.87719 0.26948 0.6575 0.0
C1832 C 0.23056 0.3788 0.65113 0.0
C1833 C 0.23223 0.36562 0.66761 0.0
C1834 C 0.24181 0.37787 0.63476 0.0
C1835 C 0.255 0.3634 0.63495 0.0
C1836 C 0.25767 0.35098 0.65228 0.0
C1837 C 0.24624 0.35225 0.66836 0.0
C1838 C 0.23857 0.39151 0.61671 0.0
C1839 C 0.27159 0.33543 0.65331 0.0
C1840 C 0.26374 0.34215 0.58563 0.0
C1841 C 0.28257 0.35074 0.58214 0.0
C1842 C 0.25455 0.34646 0.60249 0.0
C1843 C 0.26433 0.35974 0.61637 0.0
C1844 C 0.28319 0.36873 0.61282 0.0
C1845 C 0.29206 0.36414 0.59579 0.0
C1846 C 0.2344 0.33656 0.60558 0.0
C1847 C 0.29415 0.38291 0.62724 0.0
H1848 H 0.21958 0.38901 0.65053 0.0
H1849 H 0.24745 0.34208 0.68117 0.0
H1850 H 0.25282 0.39776 0.61157 0.0
H1851 H 0.23046 0.38338 0.60415 0.0
H1852 H 0.22999 0.40351 0.61993 0.0
H1853 H 0.27363 0.32847 0.6686 0.0
H1854 H 0.26575 0.3241 0.64263 0.0
H1855 H 0.28614 0.34154 0.64882 0.0
H1856 H 0.25605 0.33209 0.57507 0.0
H1857 H 0.30665 0.37076 0.5934 0.0
H1858 H 0.22397 0.34753 0.60676 0.0
H1859 H 0.23499 0.32771 0.61989 0.0
H1860 H 0.22854 0.32698 0.59317 0.0
H1861 H 0.28493 0.39465 0.62959 0.0
H1862 H 0.30819 0.3895 0.6218 0.0
H1863 H 0.29742 0.37545 0.64207 0.0
C1864 C 0.20031 0.34388 0.39366 0.0
C1865 C 0.20762 0.33725 0.37677 0.0
C1866 C 0.2112 0.34339 0.4125 0.0
C1867 C 0.22987 0.33619 0.41434 0.0
C1868 C 0.23762 0.33023 0.39707 0.0
C1869 C 0.22638 0.33092 0.37843 0.0
C1870 C 0.20255 0.35009 0.43049 0.0
C1871 C 0.25751 0.32258 0.3984 0.0
C1872 C 0.26616 0.34749 0.45961 0.0
C1873 C 0.26418 0.33016 0.47133 0.0
C1874 C 0.25478 0.34981 0.44124 0.0
C1875 C 0.24112 0.33442 0.43438 0.0
C1876 C 0.23864 0.31709 0.44638 0.0
C1877 C 0.25018 0.31517 0.46476 0.0
C1878 C 0.25773 0.36856 0.42893 0.0
C1879 C 0.22418 0.30036 0.43954 0.0
H1880 H 0.18589 0.3491 0.39212 0.0
H1881 H 0.23189 0.32588 0.36522 0.0
H1882 H 0.20027 0.33777 0.44152 0.0
H1883 H 0.21286 0.36133 0.4381 0.0
H1884 H 0.18826 0.35611 0.42632 0.0
H1885 H 0.2617 0.31924 0.38344 0.0
H1886 H 0.26892 0.33331 0.4053 0.0
H1887 H 0.25744 0.30919 0.40821 0.0
H1888 H 0.27688 0.35919 0.46461 0.0
H1889 H 0.24859 0.30174 0.47371 0.0
H1890 H 0.24351 0.37476 0.4252 0.0
H1891 H 0.26341 0.36576 0.41451 0.0
H1892 H 0.26821 0.37949 0.43687 0.0
H1893 H 0.20928 0.30525 0.43621 0.0
H1894 H 0.22347 0.28817 0.45096 0.0
H1895 H 0.22841 0.29495 0.42544 0.0
C1896 C 0.24523 0.69032 0.37349 0.0
C1897 C 0.23086 0.67453 0.37347 0.0
C1898 C 0.25285 0.69903 0.39146 0.0
C1899 C 0.24612 0.69154 0.40993 0.0
C1900 C 0.23046 0.67655 0.40974 0.0
C1901 C 0.22301 0.66824 0.39146 0.0
C1902 C 0.2693 0.71511 0.3908 0.0
C1903 C 0.22279 0.66808 0.42899 0.0
C1904 C 0.28423 0.69432 0.4554 0.0
C1905 C 0.27907 0.71 0.4655 0.0
C1906 C 0.27345 0.68805 0.43756 0.0
C1907 C 0.25707 0.6977 0.42938 0.0
C1908 C 0.25163 0.7134 0.43952 0.0
C1909 C 0.26261 0.7193 0.45742 0.0
C1910 C 0.27977 0.67118 0.4273 0.0
C1911 C 0.23432 0.72411 0.43132 0.0
H1912 H 0.25157 0.69481 0.35959 0.0
H1913 H 0.21226 0.65569 0.39144 0.0
H1914 H 0.26679 0.72702 0.40035 0.0
H1915 H 0.28334 0.70948 0.39683 0.0
H1916 H 0.27089 0.72111 0.37527 0.0
H1917 H 0.20881 0.6587 0.42615 0.0
H1918 H 0.23383 0.65924 0.43718 0.0
H1919 H 0.22039 0.67972 0.43893 0.0
H1920 H 0.29696 0.6871 0.46122 0.0
H1921 H 0.25815 0.73119 0.46513 0.0
H1922 H 0.28385 0.67593 0.41205 0.0
H1923 H 0.2674 0.65965 0.42545 0.0
H1924 H 0.29248 0.66489 0.43582 0.0
H1925 H 0.2368 0.73059 0.41617 0.0
H1926 H 0.23173 0.7358 0.44115 0.0
H1927 H 0.22084 0.71388 0.42963 0.0
C1928 C 0.8607 0.72908 0.35178 0.0
C1929 C 0.86367 0.70966 0.35667 0.0
C1930 C 0.85449 0.74093 0.36586 0.0
C1931 C 0.85109 0.73319 0.38538 0.0
C1932 C 0.8538 0.71346 0.39028 0.0
C1933 C 0.86006 0.70195 0.37588 0.0
C1934 C 0.85179 0.76182 0.35991 0.0
C1935 C 0.85033 0.70456 0.41084 0.0
C1936 C 0.8535 0.76853 0.42761 0.0
C1937 C 0.83356 0.77037 0.42929 0.0
C1938 C 0.85937 0.75644 0.41353 0.0
C1939 C 0.84501 0.74582 0.4007 0.0
C1940 C 0.82487 0.74754 0.40233 0.0
C1941 C 0.81941 0.75976 0.41653 0.0
C1942 C 0.881 0.75505 0.41237 0.0
C1943 C 0.80905 0.73657 0.38894 0.0
H1944 H 0.86333 0.73498 0.33688 0.0
H1945 H 0.86254 0.687 0.37972 0.0
H1946 H 0.83657 0.76484 0.36187 0.0
H1947 H 0.86182 0.77148 0.36983 0.0
H1948 H 0.85472 0.76554 0.34407 0.0
H1949 H 0.85257 0.68892 0.41212 0.0
H1950 H 0.86048 0.7122 0.42242 0.0
H1951 H 0.83515 0.70629 0.41424 0.0
H1952 H 0.8646 0.77638 0.4375 0.0
H1953 H 0.80399 0.76119 0.4174 0.0
H1954 H 0.88503 0.75969 0.39708 0.0
H1955 H 0.88434 0.7398 0.41512 0.0
H1956 H 0.89035 0.76413 0.42344 0.0
H1957 H 0.81073 0.74094 0.37297 0.0
H1958 H 0.79405 0.73915 0.39231 0.0
H1959 H 0.81054 0.72081 0.39072 0.0
C1960 C 0.86139 0.32835 0.40416 0.0
C1961 C 0.84877 0.32476 0.38677 0.0
C1962 C 0.85692 0.31977 0.42293 0.0
C1963 C 0.83949 0.3071 0.42428 0.0
C1964 C 0.82702 0.30303 0.40654 0.0
C1965 C 0.83174 0.31203 0.38807 0.0
C1966 C 0.8706 0.3246 0.44139 0.0
C1967 C 0.80857 0.2893 0.40709 0.0
C1968 C 0.83807 0.27038 0.46849 0.0
C1969 C 0.8262 0.27832 0.48128 0.0
C1970 C 0.84233 0.27952 0.45002 0.0
C1971 C 0.83481 0.29734 0.44402 0.0
C1972 C 0.82279 0.30553 0.45677 0.0
C1973 C 0.81847 0.29584 0.47519 0.0
C1974 C 0.85485 0.26999 0.43685 0.0
C1975 C 0.81464 0.32461 0.45101 0.0
H1976 H 0.87433 0.33853 0.40313 0.0
H1977 H 0.8219 0.30952 0.37459 0.0
H1978 H 0.86252 0.33099 0.45255 0.0
H1979 H 0.87617 0.31122 0.44855 0.0
H1980 H 0.88335 0.33495 0.43789 0.0
H1981 H 0.8006 0.28746 0.39195 0.0
H1982 H 0.81227 0.2749 0.41342 0.0
H1983 H 0.79858 0.29475 0.41706 0.0
H1984 H 0.84398 0.25674 0.47282 0.0
H1985 H 0.80933 0.3021 0.48492 0.0
H1986 H 0.86828 0.2797 0.43425 0.0
H1987 H 0.84668 0.26739 0.42196 0.0
H1988 H 0.85934 0.25596 0.44355 0.0
H1989 H 0.82684 0.336 0.44872 0.0
H1990 H 0.80579 0.32922 0.4626 0.0
H1991 H 0.80527 0.3235 0.43657 0.0
C1992 C 0.16052 0.7164 0.70372 0.0
C1993 C 0.16018 0.69927 0.69348 0.0
C1994 C 0.14411 0.7207 0.71316 0.0
C1995 C 0.12679 0.70766 0.71217 0.0
C1996 C 0.12638 0.69039 0.70165 0.0
C1997 C 0.14309 0.68637 0.69256 0.0
C1998 C 0.14538 0.73913 0.72437 0.0
C1999 C 0.10825 0.67616 0.69994 0.0
C2000 C 0.08999 0.70875 0.75139 0.0
C2001 C 0.07553 0.7195 0.7412 0.0
C2002 C 0.10677 0.70502 0.74226 0.0
C2003 C 0.10918 0.71195 0.72226 0.0
C2004 C 0.09464 0.72282 0.71188 0.0
C2005 C 0.07813 0.72656 0.72149 0.0
C2006 C 0.12197 0.69365 0.75406 0.0
C2007 C 0.0964 0.73029 0.69048 0.0
H2008 H 0.17378 0.72629 0.70454 0.0
H2009 H 0.1428 0.6732 0.68453 0.0
H2010 H 0.13376 0.74822 0.71792 0.0
H2011 H 0.14283 0.73564 0.74033 0.0
H2012 H 0.15988 0.74771 0.72382 0.0
H2013 H 0.11012 0.66363 0.69092 0.0
H2014 H 0.10461 0.67067 0.71513 0.0
H2015 H 0.09554 0.6835 0.69287 0.0
H2016 H 0.08831 0.70345 0.76669 0.0
H2017 H 0.067 0.73469 0.71338 0.0
H2018 H 0.13651 0.70227 0.75487 0.0
H2019 H 0.12346 0.68022 0.74633 0.0
H2020 H 0.11819 0.68963 0.76959 0.0
H2021 H 0.11026 0.73985 0.68956 0.0
H2022 H 0.08391 0.73853 0.68447 0.0
H2023 H 0.09703 0.718 0.68072 0.0
C2024 C 0.84741 0.6798 0.67566 0.0
C2025 C 0.83634 0.69251 0.68412 0.0
C2026 C 0.84688 0.66032 0.68232 0.0
C2027 C 0.83487 0.65351 0.69771 0.0
C2028 C 0.82485 0.6667 0.70733 0.0
C2029 C 0.82573 0.68614 0.70037 0.0
C2030 C 0.85789 0.64678 0.67176 0.0
C2031 C 0.81205 0.66002 0.72392 0.0
C2032 C 0.81144 0.60177 0.69527 0.0
C2033 C 0.82305 0.59224 0.71027 0.0
C2034 C 0.81521 0.62171 0.69103 0.0
C2035 C 0.83098 0.63237 0.70206 0.0
C2036 C 0.84291 0.62284 0.71705 0.0
C2037 C 0.83883 0.60288 0.72095 0.0
C2038 C 0.80217 0.63141 0.67487 0.0
C2039 C 0.8599 0.63374 0.72903 0.0
H2040 H 0.85537 0.68484 0.66289 0.0
H2041 H 0.81721 0.69615 0.70677 0.0
H2042 H 0.86582 0.63718 0.6828 0.0
H2043 H 0.84729 0.63739 0.66208 0.0
H2044 H 0.86862 0.65476 0.66219 0.0
H2045 H 0.80736 0.67238 0.73151 0.0
H2046 H 0.79873 0.65121 0.71756 0.0
H2047 H 0.81991 0.6507 0.73531 0.0
H2048 H 0.7991 0.59373 0.68714 0.0
H2049 H 0.84808 0.59557 0.73232 0.0
H2050 H 0.81112 0.63853 0.66315 0.0
H2051 H 0.79496 0.64287 0.6814 0.0
H2052 H 0.7906 0.62103 0.66758 0.0
H2053 H 0.87044 0.6409 0.71878 0.0
H2054 H 0.86785 0.62414 0.7401 0.0
H2055 H 0.8545 0.64531 0.73719 0.0
C2056 C 0.91918 0.32274 0.71928 0.0
C2057 C 0.92268 0.34046 0.70869 0.0
C2058 C 0.93488 0.31322 0.72903 0.0
C2059 C 0.95446 0.32172 0.72816 0.0
C2060 C 0.95801 0.3389 0.71614 0.0
C2061 C 0.94206 0.34804 0.70659 0.0
C2062 C 0.93039 0.29485 0.74148 0.0
C2063 C 0.97855 0.34848 0.71462 0.0
C2064 C 0.9923 0.31421 0.77286 0.0
C2065 C 1.0037 0.30079 0.76584 0.0
C2066 C 0.97611 0.32084 0.76088 0.0
C2067 C 0.97104 0.3139 0.74132 0.0
C2068 C 0.98229 0.30019 0.73421 0.0
C2069 C 0.99845 0.29386 0.74648 0.0
C2070 C 0.96453 0.33547 0.76911 0.0
C2071 C 0.97744 0.29244 0.71348 0.0
H2072 H 0.90415 0.31712 0.72116 0.0
H2073 H 0.94464 0.36191 0.69861 0.0
H2074 H 0.94018 0.28379 0.73852 0.0
H2075 H 0.9331 0.29794 0.75766 0.0
H2076 H 0.91488 0.28871 0.73842 0.0
H2077 H 0.97899 0.36042 0.70291 0.0
H2078 H 0.98437 0.35452 0.72927 0.0
H2079 H 0.98849 0.33775 0.71113 0.0
H2080 H 0.99592 0.31948 0.78782 0.0
H2081 H 1.0072 0.28372 0.74067 0.0
H2082 H 0.94885 0.32976 0.76891 0.0
H2083 H 0.96523 0.34896 0.75945 0.0
H2084 H 0.97008 0.33915 0.78472 0.0
H2085 H 0.96187 0.28626 0.71158 0.0
H2086 H 0.98694 0.2811 0.71053 0.0
H2087 H 0.97925 0.30442 0.70198 0.0
C2088 C 0.21322 0.41215 0.69577 0.0
C2089 C 0.22378 0.39586 0.69666 0.0
C2090 C 0.22245 0.43046 0.70089 0.0
C2091 C 0.24288 0.43263 0.70685 0.0
C2092 C 0.25374 0.41627 0.70722 0.0
C2093 C 0.24404 0.39807 0.70214 0.0
C2094 C 0.2103 0.44744 0.70009 0.0
C2095 C 0.27556 0.41794 0.71323 0.0
C2096 C 0.27074 0.48252 0.70101 0.0
C2097 C 0.27356 0.48875 0.72082 0.0
C2098 C 0.26067 0.46449 0.69631 0.0
C2099 C 0.25301 0.45219 0.71176 0.0
C2100 C 0.25519 0.45859 0.73175 0.0
C2101 C 0.26544 0.4768 0.73606 0.0
C2102 C 0.25866 0.45841 0.6748 0.0
C2103 C 0.24714 0.44595 0.74864 0.0
H2104 H 0.19756 0.41042 0.6914 0.0
H2105 H 0.25215 0.38542 0.70305 0.0
H2106 H 0.21157 0.45384 0.71506 0.0
H2107 H 0.2159 0.45889 0.68934 0.0
H2108 H 0.19453 0.44327 0.69548 0.0
H2109 H 0.28188 0.4039 0.71274 0.0
H2110 H 0.28318 0.42868 0.70306 0.0
H2111 H 0.27862 0.42326 0.72867 0.0
H2112 H 0.27685 0.49163 0.68905 0.0
H2113 H 0.26766 0.48138 0.75141 0.0
H2114 H 0.24295 0.45487 0.66956 0.0
H2115 H 0.26614 0.44513 0.67381 0.0
H2116 H 0.26505 0.46984 0.66445 0.0
H2117 H 0.23122 0.44177 0.74501 0.0
H2118 H 0.24927 0.45328 0.76315 0.0
H2119 H 0.25451 0.4324 0.75046 0.0
C2120 C 0.14198 0.30561 0.32588 0.0
C2121 C 0.15029 0.32471 0.32726 0.0
C2122 C 0.12195 0.30152 0.31997 0.0
C2123 C 0.1102 0.31701 0.31486 0.0
C2124 C 0.11889 0.33635 0.31495 0.0
C2125 C 0.13886 0.33999 0.32148 0.0
C2126 C 0.1132 0.28067 0.3202 0.0
C2127 C 0.10698 0.35318 0.309 0.0
C2128 C 0.06021 0.29829 0.29133 0.0
C2129 C 0.04988 0.29514 0.30847 0.0
C2130 C 0.07951 0.30722 0.29272 0.0
C2131 C 0.0886 0.3128 0.3117 0.0
C2132 C 0.07752 0.31153 0.32852 0.0
C2133 C 0.05818 0.30294 0.32662 0.0
C2134 C 0.09066 0.30908 0.27429 0.0
C2135 C 0.08668 0.31734 0.34904 0.0
H2136 H 0.15111 0.29394 0.33008 0.0
H2137 H 0.1455 0.35477 0.32257 0.0
H2138 H 0.10234 0.27833 0.33153 0.0
H2139 H 0.1053 0.27724 0.30538 0.0
H2140 H 0.12452 0.27037 0.32386 0.0
H2141 H 0.1165 0.36677 0.30618 0.0
H2142 H 0.09692 0.35011 0.2953 0.0
H2143 H 0.09783 0.35556 0.32122 0.0
H2144 H 0.05378 0.2926 0.27715 0.0
H2145 H 0.05015 0.3009 0.33984 0.0
H2146 H 0.10023 0.29711 0.27466 0.0
H2147 H 0.10024 0.32293 0.27387 0.0
H2148 H 0.08058 0.30829 0.26026 0.0
H2149 H 0.09751 0.30708 0.35479 0.0
H2150 H 0.07558 0.31727 0.36005 0.0
H2151 H 0.09469 0.33199 0.34818 0.0
C2152 C 0.26603 0.62528 0.32932 0.0
C2153 C 0.24556 0.62335 0.32994 0.0
C2154 C 0.276 0.60986 0.32399 0.0
C2155 C 0.26521 0.59221 0.3183 0.0
C2156 C 0.24442 0.5905 0.31795 0.0
C2157 C 0.23491 0.60595 0.32406 0.0
C2158 C 0.29814 0.61228 0.32505 0.0
C2159 C 0.23223 0.57221 0.31144 0.0
C2160 C 0.28967 0.55715 0.28884 0.0
C2161 C 0.29356 0.54241 0.30344 0.0
C2162 C 0.28053 0.57342 0.29344 0.0
C2163 C 0.27565 0.57537 0.31328 0.0
C2164 C 0.28039 0.56094 0.32827 0.0
C2165 C 0.28893 0.54451 0.3231 0.0
C2166 C 0.27529 0.58808 0.27683 0.0
C2167 C 0.2761 0.56268 0.34975 0.0
H2168 H 0.27431 0.63882 0.33343 0.0
H2169 H 0.21914 0.60427 0.32467 0.0
H2170 H 0.30423 0.60126 0.33585 0.0
H2171 H 0.3031 0.60989 0.31019 0.0
H2172 H 0.30438 0.62688 0.32982 0.0
H2173 H 0.21623 0.57377 0.3103 0.0
H2174 H 0.23616 0.56818 0.29663 0.0
H2175 H 0.23536 0.5601 0.32236 0.0
H2176 H 0.29286 0.55549 0.27352 0.0
H2177 H 0.29182 0.53317 0.33443 0.0
H2178 H 0.28167 0.60281 0.28094 0.0
H2179 H 0.2591 0.58836 0.27469 0.0
H2180 H 0.28054 0.5848 0.26233 0.0
H2181 H 0.28243 0.57697 0.35529 0.0
H2182 H 0.28211 0.55112 0.35992 0.0
H2183 H 0.26 0.56181 0.3506 0.0
C2184 C 0.91744 0.67264 0.30968 0.0
C2185 C 0.90514 0.68764 0.30714 0.0
C2186 C 0.93575 0.67457 0.30159 0.0
C2187 C 0.94206 0.69213 0.29127 0.0
C2188 C 0.92875 0.70641 0.28698 0.0
C2189 C 0.91035 0.70383 0.29471 0.0
C2190 C 0.94902 0.65854 0.30561 0.0
C2191 C 0.93467 0.72538 0.27611 0.0
C2192 C 0.9947 0.71346 0.30269 0.0
C2193 C 1.00256 0.71315 0.28412 0.0
C2194 C 0.97535 0.70604 0.30525 0.0
C2195 C 0.96344 0.69744 0.28902 0.0
C2196 C 0.97165 0.69574 0.27061 0.0
C2197 C 0.99107 0.70385 0.26827 0.0
C2198 C 0.96734 0.70851 0.32512 0.0
C2199 C 0.95976 0.68613 0.25309 0.0
H2200 H 0.91338 0.66003 0.31916 0.0
H2201 H 0.9006 0.71522 0.29242 0.0
H2202 H 0.95717 0.65685 0.2924 0.0
H2203 H 0.95996 0.66214 0.31851 0.0
H2204 H 0.9406 0.64451 0.30934 0.0
H2205 H 0.922 0.734 0.27202 0.0
H2206 H 0.94583 0.73408 0.28591 0.0
H2207 H 0.94143 0.72283 0.26224 0.0
H2208 H 1.00342 0.72037 0.31518 0.0
H2209 H 0.99696 0.70345 0.25388 0.0
H2210 H 0.96158 0.69427 0.33154 0.0
H2211 H 0.95495 0.7177 0.32278 0.0
H2212 H 0.97861 0.71531 0.33631 0.0
H2213 H 0.94967 0.67376 0.25823 0.0
H2214 H 0.96939 0.68086 0.2426 0.0
H2215 H 0.95074 0.69676 0.24464 0.0
C2216 C 0.82066 0.37394 0.32328 0.0
C2217 C 0.83983 0.37575 0.33272 0.0
C2218 C 0.8128 0.38964 0.31221 0.0
C2219 C 0.82432 0.4077 0.31074 0.0
C2220 C 0.84383 0.40947 0.32007 0.0
C2221 C 0.85136 0.39346 0.33085 0.0
C2222 C 0.79206 0.38697 0.30234 0.0
C2223 C 0.8566 0.42843 0.31908 0.0
C2224 C 0.81008 0.44617 0.27032 0.0
C2225 C 0.80012 0.45827 0.28104 0.0
C2226 C 0.81773 0.4295 0.27964 0.0
C2227 C 0.8157 0.42498 0.3003 0.0
C2228 C 0.80561 0.43717 0.31114 0.0
C2229 C 0.79782 0.45352 0.30136 0.0
C2230 C 0.82794 0.41672 0.26735 0.0
C2231 C 0.80326 0.43309 0.3332 0.0
H2232 H 0.81183 0.36018 0.32464 0.0
H2233 H 0.86614 0.39485 0.33827 0.0
H2234 H 0.78274 0.39642 0.30923 0.0
H2235 H 0.79179 0.39136 0.28614 0.0
H2236 H 0.78547 0.37174 0.30383 0.0
H2237 H 0.87161 0.4273 0.3266 0.0
H2238 H 0.85781 0.43343 0.3032 0.0
H2239 H 0.84977 0.43969 0.32638 0.0
H2240 H 0.81163 0.44961 0.25454 0.0
H2241 H 0.79029 0.4629 0.30975 0.0
H2242 H 0.82045 0.4018 0.26771 0.0
H2243 H 0.84329 0.41582 0.27392 0.0
H2244 H 0.82813 0.42211 0.25144 0.0
H2245 H 0.79541 0.41851 0.33555 0.0
H2246 H 0.79501 0.44393 0.33948 0.0
H2247 H 0.81792 0.43309 0.34177 0.0
C2248 C 0.21075 0.64647 0.67353 0.0
C2249 C 0.21683 0.6662 0.67558 0.0
C2250 C 0.22421 0.63239 0.67672 0.0
C2251 C 0.24438 0.63813 0.68195 0.0
C2252 C 0.25074 0.65818 0.68294 0.0
C2253 C 0.23689 0.67196 0.67979 0.0
C2254 C 0.21665 0.61128 0.67539 0.0
C2255 C 0.27207 0.66505 0.68822 0.0
C2256 C 0.27338 0.60121 0.71337 0.0
C2257 C 0.28325 0.59303 0.69897 0.0
C2258 C 0.26103 0.61602 0.70806 0.0
C2259 C 0.2584 0.62308 0.68782 0.0
C2260 C 0.26857 0.6152 0.67324 0.0
C2261 C 0.28081 0.60031 0.67896 0.0
C2262 C 0.25059 0.62398 0.72417 0.0
C2263 C 0.26627 0.62227 0.65151 0.0
H2264 H 0.19527 0.64205 0.67004 0.0
H2265 H 0.2416 0.6872 0.68149 0.0
H2266 H 0.22518 0.60404 0.66527 0.0
H2267 H 0.21861 0.60391 0.69046 0.0
H2268 H 0.20085 0.60926 0.66979 0.0
H2269 H 0.27498 0.68102 0.6862 0.0
H2270 H 0.27639 0.66079 0.70411 0.0
H2271 H 0.28153 0.6581 0.6788 0.0
H2272 H 0.27536 0.59613 0.72893 0.0
H2273 H 0.28816 0.59412 0.66762 0.0
H2274 H 0.23446 0.6214 0.72054 0.0
H2275 H 0.25432 0.63986 0.72474 0.0
H2276 H 0.25446 0.61727 0.73929 0.0
H2277 H 0.25081 0.61899 0.64523 0.0
H2278 H 0.27596 0.61547 0.64219 0.0
H2279 H 0.26967 0.63822 0.65029 0.0
C2280 C 0.22878 0.3589 0.32444 0.0
C2281 C 0.215 0.35996 0.33823 0.0
C2282 C 0.23938 0.37573 0.31727 0.0
C2283 C 0.23595 0.3939 0.32417 0.0
C2284 C 0.22343 0.39472 0.33961 0.0
C2285 C 0.21305 0.37764 0.34647 0.0
C2286 C 0.25278 0.37421 0.301 0.0
C2287 C 0.2195 0.41377 0.3475 0.0
C2288 C 0.26799 0.43887 0.30868 0.0
C2289 C 0.25656 0.44601 0.29188 0.0
C2290 C 0.2615 0.42194 0.31944 0.0
C2291 C 0.24312 0.41198 0.31328 0.0
C2292 C 0.23141 0.4192 0.29648 0.0
C2293 C 0.23828 0.43613 0.28599 0.0
C2294 C 0.2743 0.41469 0.33732 0.0
C2295 C 0.21168 0.40893 0.28946 0.0
H2296 H 0.23012 0.34507 0.31819 0.0
H2297 H 0.20218 0.37827 0.35704 0.0
H2298 H 0.24561 0.37937 0.2864 0.0
H2299 H 0.26676 0.38349 0.30403 0.0
H2300 H 0.25615 0.35907 0.29956 0.0
H2301 H 0.21208 0.41171 0.36158 0.0
H2302 H 0.23335 0.42327 0.35038 0.0
H2303 H 0.2099 0.42139 0.33605 0.0
H2304 H 0.28196 0.44662 0.31359 0.0
H2305 H 0.2295 0.44145 0.27293 0.0
H2306 H 0.27796 0.39987 0.33484 0.0
H2307 H 0.26625 0.41377 0.35096 0.0
H2308 H 0.28819 0.42419 0.34021 0.0
H2309 H 0.21349 0.39398 0.28539 0.0
H2310 H 0.20432 0.41654 0.27625 0.0
H2311 H 0.2019 0.40774 0.30179 0.0
C2312 C 0.17904 0.66229 0.33547 0.0
C2313 C 0.19803 0.67177 0.33862 0.0
C2314 C 0.16255 0.67269 0.33045 0.0
C2315 C 0.16498 0.6932 0.32852 0.0
C2316 C 0.18413 0.70288 0.33221 0.0
C2317 C 0.20039 0.69206 0.33721 0.0
C2318 C 0.14254 0.66166 0.32684 0.0
C2319 C 0.1875 0.72467 0.33039 0.0
C2320 C 0.12485 0.71818 0.2961 0.0
C2321 C 0.11356 0.72431 0.31054 0.0
C2322 C 0.14168 0.70834 0.30172 0.0
C2323 C 0.14752 0.70438 0.32233 0.0
C2324 C 0.13627 0.71059 0.33698 0.0
C2325 C 0.11953 0.72041 0.33095 0.0
C2326 C 0.1532 0.70209 0.28554 0.0
C2327 C 0.14177 0.70664 0.3591 0.0
H2328 H 0.17718 0.64662 0.3367 0.0
H2329 H 0.21506 0.69942 0.33938 0.0
H2330 H 0.13232 0.66666 0.33685 0.0
H2331 H 0.13638 0.66452 0.31114 0.0
H2332 H 0.14302 0.64579 0.32948 0.0
H2333 H 0.20307 0.73007 0.33455 0.0
H2334 H 0.18328 0.72974 0.31472 0.0
H2335 H 0.17809 0.73122 0.34019 0.0
H2336 H 0.12067 0.72126 0.28033 0.0
H2337 H 0.11092 0.72476 0.34232 0.0
H2338 H 0.15326 0.6861 0.28644 0.0
H2339 H 0.1687 0.70837 0.28785 0.0
H2340 H 0.14705 0.70658 0.27022 0.0
H2341 H 0.14112 0.69079 0.36246 0.0
H2342 H 0.13193 0.7129 0.36868 0.0
H2343 H 0.1571 0.71273 0.36328 0.0
C2344 C 0.86766 0.6568 0.29046 0.0
C2345 C 0.87072 0.65646 0.31146 0.0
C2346 C 0.86159 0.63967 0.28023 0.0
C2347 C 0.85862 0.62178 0.2913 0.0
C2348 C 0.86247 0.62136 0.3125 0.0
C2349 C 0.86843 0.63869 0.32229 0.0
C2350 C 0.85768 0.64084 0.25765 0.0
C2351 C 0.85975 0.60268 0.32493 0.0
C2352 C 0.82304 0.58104 0.26867 0.0
C2353 C 0.8358 0.56889 0.26173 0.0
C2354 C 0.83026 0.59833 0.27811 0.0
C2355 C 0.85078 0.60364 0.28085 0.0
C2356 C 0.86375 0.5914 0.27395 0.0
C2357 C 0.85613 0.57426 0.26445 0.0
C2358 C 0.81588 0.61094 0.28514 0.0
C2359 C 0.88571 0.5964 0.27668 0.0
H2360 H 0.86931 0.67058 0.28215 0.0
H2361 H 0.87096 0.63849 0.33853 0.0
H2362 H 0.86606 0.63044 0.25087 0.0
H2363 H 0.84187 0.63673 0.25331 0.0
H2364 H 0.86171 0.6556 0.25118 0.0
H2365 H 0.86437 0.60463 0.34112 0.0
H2366 H 0.84407 0.59684 0.32332 0.0
H2367 H 0.86832 0.59168 0.31945 0.0
H2368 H 0.80732 0.57715 0.26658 0.0
H2369 H 0.86616 0.56503 0.25918 0.0
H2370 H 0.81795 0.62568 0.27796 0.0
H2371 H 0.81864 0.61246 0.30161 0.0
H2372 H 0.80037 0.60499 0.2816 0.0
H2373 H 0.88967 0.61073 0.26927 0.0
H2374 H 0.89384 0.58546 0.27039 0.0
H2375 H 0.89068 0.59749 0.2929 0.0
C2376 C 0.90165 0.33145 0.35945 0.0
C2377 C 0.8819 0.32397 0.35914 0.0
C2378 C 0.91653 0.31946 0.35716 0.0
C2379 C 0.91164 0.29936 0.35462 0.0
C2380 C 0.89181 0.29155 0.35553 0.0
C2381 C 0.87719 0.30396 0.35776 0.0
C2382 C 0.93738 0.32851 0.35642 0.0
C2383 C 0.88587 0.27024 0.35312 0.0
C2384 C 0.94555 0.2742 0.32465 0.0
C2385 C 0.95755 0.26513 0.33978 0.0
C2386 C 0.93046 0.28504 0.32927 0.0
C2387 C 0.92701 0.28692 0.34959 0.0
C2388 C 0.93878 0.27753 0.36495 0.0
C2389 C 0.95386 0.26683 0.3599 0.0
C2390 C 0.91832 0.29473 0.31235 0.0
C2391 C 0.93567 0.27908 0.38679 0.0
H2392 H 0.9053 0.34691 0.36067 0.0
H2393 H 0.86192 0.29818 0.35735 0.0
H2394 H 0.94751 0.32062 0.36704 0.0
H2395 H 0.94199 0.32743 0.34113 0.0
H2396 H 0.93903 0.34402 0.36017 0.0
H2397 H 0.87042 0.2661 0.35635 0.0
H2398 H 0.88747 0.26651 0.3375 0.0
H2399 H 0.89562 0.26148 0.36326 0.0
H2400 H 0.94788 0.2728 0.30906 0.0
H2401 H 0.96302 0.26014 0.37182 0.0
H2402 H 0.92011 0.31065 0.31393 0.0
H2403 H 0.90252 0.28985 0.31309 0.0
H2404 H 0.92252 0.29159 0.29734 0.0
H2405 H 0.93876 0.29438 0.39103 0.0
H2406 H 0.94526 0.27009 0.39691 0.0
H2407 H 0.92013 0.2745 0.38928 0.0
C2408 C 0.86285 0.39468 0.71961 0.0
C2409 C 0.88206 0.39466 0.71429 0.0
C2410 C 0.85645 0.41128 0.72716 0.0
C2411 C 0.86966 0.42823 0.72972 0.0
C2412 C 0.88904 0.42829 0.7242 0.0
C2413 C 0.89492 0.4116 0.7164 0.0
C2414 C 0.83559 0.41061 0.73257 0.0
C2415 C 0.90368 0.44591 0.72676 0.0
C2416 C 0.8488 0.47672 0.73339 0.0
C2417 C 0.85003 0.47883 0.75426 0.0
C2418 C 0.85514 0.46042 0.72524 0.0
C2419 C 0.86322 0.44588 0.73819 0.0
C2420 C 0.86498 0.44815 0.75924 0.0
C2421 C 0.85826 0.46448 0.76701 0.0
C2422 C 0.85276 0.45855 0.70274 0.0
C2423 C 0.87378 0.43318 0.7736 0.0
H2424 H 0.85295 0.38156 0.71819 0.0
H2425 H 0.9097 0.41169 0.71206 0.0
H2426 H 0.83556 0.41284 0.74885 0.0
H2427 H 0.82813 0.4225 0.72433 0.0
H2428 H 0.82695 0.39661 0.72903 0.0
H2429 H 0.91823 0.44357 0.72193 0.0
H2430 H 0.89808 0.45847 0.71791 0.0
H2431 H 0.90566 0.44976 0.74276 0.0
H2432 H 0.84234 0.48759 0.72334 0.0
H2433 H 0.8593 0.46591 0.78314 0.0
H2434 H 0.84306 0.44525 0.69889 0.0
H2435 H 0.86719 0.45709 0.69718 0.0
H2436 H 0.8464 0.47118 0.69469 0.0
H2437 H 0.8647 0.41909 0.77226 0.0
H2438 H 0.87485 0.4374 0.78948 0.0
H2439 H 0.88869 0.43096 0.76971 0.0
C2440 C 0.18042 0.31874 0.71305 0.0
C2441 C 0.17669 0.33733 0.70548 0.0
C2442 C 0.16578 0.30627 0.72169 0.0
C2443 C 0.14699 0.31261 0.72293 0.0
C2444 C 0.14293 0.33106 0.7144 0.0
C2445 C 0.15782 0.34317 0.70577 0.0
C2446 C 0.1708 0.28675 0.73052 0.0
C2447 C 0.12319 0.3385 0.7154 0.0
C2448 C 0.10378 0.27846 0.74015 0.0
C2449 C 0.10448 0.28287 0.76043 0.0
C2450 C 0.11777 0.28764 0.72771 0.0
C2451 C 0.13274 0.30146 0.73579 0.0
C2452 C 0.13381 0.30538 0.7564 0.0
C2453 C 0.11977 0.29608 0.76836 0.0
C2454 C 0.11623 0.28298 0.70583 0.0
C2455 C 0.14951 0.31987 0.7658 0.0
H2456 H 0.19504 0.31426 0.71288 0.0
H2457 H 0.1549 0.35744 0.69964 0.0
H2458 H 0.17211 0.28698 0.74716 0.0
H2459 H 0.15895 0.27532 0.72602 0.0
H2460 H 0.18486 0.28282 0.72578 0.0
H2461 H 0.12163 0.35209 0.70613 0.0
H2462 H 0.11119 0.32746 0.71025 0.0
H2463 H 0.12129 0.34137 0.73121 0.0
H2464 H 0.09203 0.2683 0.73389 0.0
H2465 H 0.12068 0.29946 0.78407 0.0
H2466 H 0.13056 0.27915 0.70173 0.0
H2467 H 0.11251 0.29594 0.69638 0.0
H2468 H 0.10484 0.27084 0.7022 0.0
H2469 H 0.16429 0.31586 0.76342 0.0
H2470 H 0.14865 0.32085 0.78219 0.0
H2471 H 0.14805 0.33444 0.7585 0.0
C2472 C 0.88266 0.72325 0.66501 0.0
C2473 C 0.86752 0.72481 0.67719 0.0
C2474 C 0.90238 0.72489 0.67305 0.0
C2475 C 0.90694 0.72804 0.69378 0.0
C2476 C 0.89158 0.72911 0.70621 0.0
C2477 C 0.87201 0.72736 0.69774 0.0
C2478 C 0.91829 0.72338 0.65937 0.0
C2479 C 0.89581 0.73237 0.7284 0.0
C2480 C 0.95565 0.71623 0.721 0.0
C2481 C 0.9659 0.73468 0.72278 0.0
C2482 C 0.93672 0.71378 0.71096 0.0
C2483 C 0.92776 0.73019 0.70258 0.0
C2484 C 0.93833 0.74877 0.7036 0.0
C2485 C 0.95732 0.75079 0.71363 0.0
C2486 C 0.92602 0.69371 0.71002 0.0
C2487 C 0.92925 0.76662 0.69483 0.0
H2488 H 0.87899 0.72084 0.64916 0.0
H2489 H 0.86014 0.72837 0.70704 0.0
H2490 H 0.92826 0.73698 0.65937 0.0
H2491 H 0.9273 0.7115 0.66497 0.0
H2492 H 0.91224 0.72064 0.64366 0.0
H2493 H 0.88219 0.73277 0.73596 0.0
H2494 H 0.90417 0.72069 0.73579 0.0
H2495 H 0.90508 0.74625 0.73069 0.0
H2496 H 0.96221 0.70368 0.72792 0.0
H2497 H 0.96512 0.7651 0.71499 0.0
H2498 H 0.92028 0.69063 0.69432 0.0
H2499 H 0.91321 0.69278 0.71902 0.0
H2500 H 0.93558 0.68232 0.71586 0.0
H2501 H 0.9237 0.76464 0.67887 0.0
H2502 H 0.93982 0.77981 0.69573 0.0
H2503 H 0.91649 0.76895 0.70304 0.0
C2504 C 0.71371 0.17968 0.63994 0.0
C2505 C 0.71347 0.18997 0.65732 0.0
C2506 C 0.72444 0.18743 0.62398 0.0
C2507 C 0.73532 0.20587 0.62549 0.0
C2508 C 0.73518 0.21622 0.64316 0.0
C2509 C 0.72426 0.20815 0.6588 0.0
C2510 C 0.72419 0.17583 0.60551 0.0
C2511 C 0.74678 0.23572 0.64566 0.0
C2512 C 0.77949 0.21525 0.59501 0.0
C2513 C 0.77257 0.22698 0.57859 0.0
C2514 C 0.76763 0.2086 0.61034 0.0
C2515 C 0.74812 0.21359 0.60938 0.0
C2516 C 0.74105 0.22575 0.59307 0.0
C2517 C 0.7534 0.23241 0.5779 0.0
C2518 C 0.77599 0.19596 0.6275 0.0
C2519 C 0.72032 0.23136 0.59145 0.0
H2520 H 0.70518 0.16572 0.63873 0.0
H2521 H 0.72414 0.21603 0.67232 0.0
H2522 H 0.71942 0.1846 0.59191 0.0
H2523 H 0.73922 0.1721 0.60378 0.0
H2524 H 0.71425 0.16222 0.60621 0.0
H2525 H 0.74446 0.24229 0.6599 0.0
H2526 H 0.76268 0.2342 0.64551 0.0
H2527 H 0.7426 0.2458 0.63291 0.0
H2528 H 0.79433 0.2111 0.59589 0.0
H2529 H 0.74789 0.24137 0.56528 0.0
H2530 H 0.76738 0.18157 0.62781 0.0
H2531 H 0.77488 0.20253 0.64204 0.0
H2532 H 0.79163 0.19381 0.62632 0.0
H2533 H 0.70979 0.21817 0.5903 0.0
H2534 H 0.71714 0.24123 0.57819 0.0
H2535 H 0.71773 0.23858 0.6052 0.0
C2536 C 0.31735 0.22556 0.6526 0.0
C2537 C 0.32391 0.20722 0.65207 0.0
C2538 C 0.31007 0.23517 0.63495 0.0
C2539 C 0.30942 0.22612 0.61639 0.0
C2540 C 0.31381 0.20665 0.61621 0.0
C2541 C 0.32113 0.19741 0.63415 0.0
C2542 C 0.30534 0.25582 0.63591 0.0
C2543 C 0.31292 0.19634 0.59683 0.0
C2544 C 0.29089 0.25568 0.57013 0.0
C2545 C 0.30852 0.26575 0.56484 0.0
C2546 C 0.29086 0.24194 0.58637 0.0
C2547 C 0.30885 0.23835 0.59748 0.0
C2548 C 0.32671 0.2478 0.5915 0.0
C2549 C 0.32631 0.26131 0.57528 0.0
C2550 C 0.27155 0.23199 0.59217 0.0
C2551 C 0.34628 0.24442 0.60285 0.0
H2552 H 0.31943 0.23294 0.66663 0.0
H2553 H 0.32625 0.18319 0.63387 0.0
H2554 H 0.31758 0.26577 0.63048 0.0
H2555 H 0.29184 0.25841 0.62606 0.0
H2556 H 0.30332 0.25952 0.65146 0.0
H2557 H 0.31245 0.1804 0.59955 0.0
H2558 H 0.29989 0.19975 0.58663 0.0
H2559 H 0.32619 0.2013 0.58905 0.0
H2560 H 0.27709 0.25903 0.56208 0.0
H2561 H 0.34002 0.26884 0.57112 0.0
H2562 H 0.26739 0.23873 0.60558 0.0
H2563 H 0.27279 0.21644 0.59617 0.0
H2564 H 0.25959 0.23326 0.57989 0.0
H2565 H 0.34684 0.24967 0.61828 0.0
H2566 H 0.35886 0.25199 0.59546 0.0
H2567 H 0.34816 0.22872 0.60422 0.0
C2568 C 0.3843 0.82073 0.67354 0.0
C2569 C 0.38805 0.84075 0.67 0.0
C2570 C 0.38011 0.80819 0.65743 0.0
C2571 C 0.37952 0.81591 0.63733 0.0
C2572 C 0.38441 0.83604 0.63381 0.0
C2573 C 0.38872 0.84814 0.65016 0.0
C2574 C 0.3753 0.78683 0.66193 0.0
C2575 C 0.384 0.84501 0.61275 0.0
C2576 C 0.37823 0.78401 0.59221 0.0
C2577 C 0.35814 0.78217 0.58536 0.0
C2578 C 0.38536 0.79442 0.60939 0.0
C2579 C 0.37217 0.80342 0.62001 0.0
C2580 C 0.35187 0.80136 0.61341 0.0
C2581 C 0.34513 0.79073 0.59634 0.0
C2582 C 0.40708 0.79611 0.61596 0.0
C2583 C 0.33723 0.81071 0.62419 0.0
H2584 H 0.38368 0.81504 0.68887 0.0
H2585 H 0.39182 0.86361 0.64748 0.0
H2586 H 0.35942 0.78284 0.65792 0.0
H2587 H 0.3835 0.77821 0.65275 0.0
H2588 H 0.37884 0.78278 0.67807 0.0
H2589 H 0.3896 0.86059 0.61253 0.0
H2590 H 0.39293 0.83725 0.60349 0.0
H2591 H 0.3687 0.84365 0.60557 0.0
H2592 H 0.38853 0.77763 0.58394 0.0
H2593 H 0.32956 0.78915 0.59166 0.0
H2594 H 0.40963 0.79165 0.63209 0.0
H2595 H 0.41326 0.81143 0.61426 0.0
H2596 H 0.41523 0.78711 0.60708 0.0
H2597 H 0.33811 0.80569 0.64023 0.0
H2598 H 0.3219 0.80741 0.61747 0.0
H2599 H 0.3408 0.82665 0.6237 0.0
C2600 C 0.74018 0.84571 0.63161 0.0
C2601 C 0.71974 0.84528 0.62782 0.0
C2602 C 0.75219 0.84518 0.61575 0.0
C2603 C 0.74351 0.84409 0.59565 0.0
C2604 C 0.72291 0.84458 0.59179 0.0
C2605 C 0.71134 0.84522 0.6079 0.0
C2606 C 0.77405 0.84485 0.62061 0.0
C2607 C 0.71292 0.84339 0.57072 0.0
C2608 C 0.77348 0.85372 0.55026 0.0
C2609 C 0.77556 0.83487 0.54469 0.0
C2610 C 0.76367 0.85698 0.56714 0.0
C2611 C 0.75559 0.84104 0.57877 0.0
C2612 C 0.75809 0.822 0.57355 0.0
C2613 C 0.76812 0.81917 0.55675 0.0
C2614 C 0.76149 0.87751 0.57222 0.0
C2615 C 0.74989 0.80452 0.58553 0.0
H2616 H 0.74664 0.8455 0.64703 0.0
H2617 H 0.69552 0.84493 0.60502 0.0
H2618 H 0.77831 0.83032 0.61781 0.0
H2619 H 0.78213 0.8555 0.61073 0.0
H2620 H 0.77877 0.84811 0.63653 0.0
H2621 H 0.697 0.84519 0.57009 0.0
H2622 H 0.71991 0.85468 0.56065 0.0
H2623 H 0.71465 0.82912 0.56476 0.0
H2624 H 0.77902 0.86599 0.54112 0.0
H2625 H 0.77003 0.80455 0.55303 0.0
H2626 H 0.76662 0.8798 0.58823 0.0
H2627 H 0.74576 0.88017 0.57009 0.0
H2628 H 0.76986 0.88833 0.56272 0.0
H2629 H 0.75726 0.80447 0.60103 0.0
H2630 H 0.75191 0.79071 0.57874 0.0
H2631 H 0.73397 0.80514 0.58666 0.0
C2632 C 0.69863 0.82327 0.34758 0.0
C2633 C 0.69024 0.84081 0.34473 0.0
C2634 C 0.71076 0.8193 0.36506 0.0
C2635 C 0.71419 0.83312 0.38014 0.0
C2636 C 0.70521 0.85066 0.37751 0.0
C2637 C 0.69343 0.85437 0.35967 0.0
C2638 C 0.72042 0.80063 0.36709 0.0
C2639 C 0.70835 0.86564 0.39333 0.0
C2640 C 0.73532 0.81506 0.4315 0.0
C2641 C 0.75525 0.8216 0.43105 0.0
C2642 C 0.72163 0.81917 0.41524 0.0
C2643 C 0.72815 0.82967 0.39803 0.0
C2644 C 0.74824 0.83633 0.39754 0.0
C2645 C 0.76151 0.83237 0.41414 0.0
C2646 C 0.70022 0.81222 0.4164 0.0
C2647 C 0.75582 0.84723 0.37928 0.0
H2648 H 0.69611 0.81297 0.33578 0.0
H2649 H 0.68675 0.86788 0.35726 0.0
H2650 H 0.73661 0.8039 0.36797 0.0
H2651 H 0.71688 0.79249 0.38118 0.0
H2652 H 0.71573 0.7912 0.35425 0.0
H2653 H 0.6989 0.87765 0.38976 0.0
H2654 H 0.70524 0.85883 0.4082 0.0
H2655 H 0.72392 0.87184 0.39463 0.0
H2656 H 0.73043 0.80685 0.44462 0.0
H2657 H 0.77692 0.83736 0.41365 0.0
H2658 H 0.69529 0.80172 0.40459 0.0
H2659 H 0.69114 0.82458 0.41355 0.0
H2660 H 0.69739 0.80515 0.43125 0.0
H2661 H 0.75288 0.838 0.36608 0.0
H2662 H 0.77184 0.85168 0.38145 0.0
H2663 H 0.74802 0.86037 0.37564 0.0
C2664 C 0.71568 0.16319 0.40006 0.0
C2665 C 0.71894 0.17246 0.38143 0.0
C2666 C 0.72511 0.17055 0.41808 0.0
C2667 C 0.73834 0.18757 0.41747 0.0
C2668 C 0.74066 0.19769 0.39872 0.0
C2669 C 0.7309 0.18999 0.38093 0.0
C2670 C 0.72197 0.15932 0.43761 0.0
C2671 C 0.75452 0.21588 0.39726 0.0
C2672 C 0.75672 0.21177 0.46682 0.0
C2673 C 0.77486 0.20416 0.47189 0.0
C2674 C 0.74479 0.20668 0.44916 0.0
C2675 C 0.75104 0.19367 0.43608 0.0
C2676 C 0.76934 0.186 0.44105 0.0
C2677 C 0.78095 0.19129 0.45882 0.0
C2678 C 0.72536 0.2151 0.4446 0.0
C2679 C 0.77669 0.17214 0.42755 0.0
H2680 H 0.7067 0.14943 0.40035 0.0
H2681 H 0.73375 0.1969 0.36646 0.0
H2682 H 0.73549 0.15247 0.44313 0.0
H2683 H 0.71903 0.16915 0.44925 0.0
H2684 H 0.70957 0.14778 0.43588 0.0
H2685 H 0.75292 0.22325 0.38214 0.0
H2686 H 0.75198 0.22614 0.40866 0.0
H2687 H 0.76989 0.21217 0.40039 0.0
H2688 H 0.75166 0.22151 0.47684 0.0
H2689 H 0.79499 0.1855 0.46234 0.0
H2690 H 0.71321 0.20328 0.44404 0.0
H2691 H 0.72477 0.22276 0.42962 0.0
H2692 H 0.72278 0.22539 0.45599 0.0
H2693 H 0.76616 0.15898 0.42607 0.0
H2694 H 0.79134 0.16769 0.43331 0.0
H2695 H 0.77767 0.17897 0.41227 0.0
C2696 C 0.38028 0.22179 0.41632 0.0
C2697 C 0.37009 0.22157 0.39718 0.0
C2698 C 0.37554 0.23394 0.43094 0.0
C2699 C 0.36023 0.24614 0.42623 0.0
C2700 C 0.35003 0.246 0.40675 0.0
C2701 C 0.35509 0.23368 0.39247 0.0
C2702 C 0.38677 0.23356 0.45147 0.0
C2703 C 0.33366 0.25873 0.40105 0.0
C2704 C 0.33462 0.2636 0.46898 0.0
C2705 C 0.34349 0.28261 0.47107 0.0
C2706 C 0.33998 0.25161 0.45457 0.0
C2707 C 0.35459 0.25871 0.4418 0.0
C2708 C 0.36368 0.27783 0.44386 0.0
C2709 C 0.35806 0.28951 0.45845 0.0
C2710 C 0.32998 0.23129 0.453 0.0
C2711 C 0.37926 0.28602 0.43051 0.0
H2712 H 0.39185 0.21232 0.41981 0.0
H2713 H 0.34729 0.23336 0.37759 0.0
H2714 H 0.39359 0.2483 0.45499 0.0
H2715 H 0.37656 0.22899 0.46306 0.0
H2716 H 0.39847 0.22354 0.45262 0.0
H2717 H 0.3275 0.25725 0.38517 0.0
H2718 H 0.32165 0.25495 0.41092 0.0
H2719 H 0.33909 0.27412 0.40332 0.0
H2720 H 0.3236 0.25795 0.47882 0.0
H2721 H 0.36487 0.3042 0.45974 0.0
H2722 H 0.34106 0.22065 0.45547 0.0
H2723 H 0.3225 0.22935 0.43768 0.0
H2724 H 0.31896 0.2279 0.46407 0.0
H2725 H 0.39164 0.27681 0.43207 0.0
H2726 H 0.38509 0.30106 0.43413 0.0
H2727 H 0.37312 0.28596 0.41455 0.0
C2728 C 0.36554 0.84089 0.39805 0.0
C2729 C 0.3517 0.8428 0.38145 0.0
C2730 C 0.3603 0.8308 0.41588 0.0
C2731 C 0.34078 0.82216 0.41705 0.0
C2732 C 0.3269 0.82373 0.40006 0.0
C2733 C 0.3325 0.83412 0.38256 0.0
C2734 C 0.37558 0.8296 0.43358 0.0
C2735 C 0.3061 0.81443 0.40035 0.0
C2736 C 0.33364 0.78019 0.4555 0.0
C2737 C 0.32602 0.78876 0.47123 0.0
C2738 C 0.33808 0.79076 0.43778 0.0
C2739 C 0.33519 0.81066 0.43564 0.0
C2740 C 0.32717 0.81941 0.45131 0.0
C2741 C 0.32249 0.80831 0.46886 0.0
C2742 C 0.34611 0.78062 0.42141 0.0
C2743 C 0.32402 0.84063 0.44974 0.0
H2744 H 0.38029 0.84788 0.39725 0.0
H2745 H 0.32182 0.83569 0.3697 0.0
H2746 H 0.3704 0.83569 0.44687 0.0
H2747 H 0.37788 0.81424 0.43755 0.0
H2748 H 0.38991 0.83754 0.43049 0.0
H2749 H 0.2971 0.81693 0.38591 0.0
H2750 H 0.30617 0.79859 0.40347 0.0
H2751 H 0.29897 0.82024 0.41259 0.0
H2752 H 0.33622 0.76502 0.45705 0.0
H2753 H 0.31672 0.81507 0.48094 0.0
H2754 H 0.36114 0.7872 0.41904 0.0
H2755 H 0.33687 0.78245 0.40702 0.0
H2756 H 0.34671 0.76489 0.42502 0.0
H2757 H 0.33827 0.84943 0.4484 0.0
H2758 H 0.31739 0.84523 0.46297 0.0
H2759 H 0.31431 0.84383 0.43599 0.0
C2760 C 0.66326 0.20136 0.71635 0.0
C2761 C 0.66191 0.18449 0.7055 0.0
C2762 C 0.64799 0.20532 0.72768 0.0
C2763 C 0.63084 0.19213 0.72816 0.0
C2764 C 0.6294 0.17512 0.71706 0.0
C2765 C 0.64492 0.17152 0.70593 0.0
C2766 C 0.65028 0.22358 0.73929 0.0
C2767 C 0.61143 0.16069 0.71696 0.0
C2768 C 0.59864 0.19274 0.77167 0.0
C2769 C 0.5833 0.20337 0.76316 0.0
C2770 C 0.61416 0.18907 0.76054 0.0
C2771 C 0.61446 0.19607 0.74027 0.0
C2772 C 0.59901 0.20673 0.73156 0.0
C2773 C 0.58372 0.21027 0.74306 0.0
C2774 C 0.63034 0.17775 0.77054 0.0
C2775 C 0.59856 0.21435 0.70999 0.0
H2776 H 0.67645 0.21131 0.71619 0.0
H2777 H 0.6438 0.15855 0.69742 0.0
H2778 H 0.63806 0.23253 0.73435 0.0
H2779 H 0.64949 0.21984 0.75553 0.0
H2780 H 0.66442 0.2324 0.7373 0.0
H2781 H 0.61248 0.14827 0.70746 0.0
H2782 H 0.60936 0.15504 0.7325 0.0
H2783 H 0.59816 0.16789 0.71131 0.0
H2784 H 0.5987 0.18752 0.7872 0.0
H2785 H 0.5719 0.21825 0.73616 0.0
H2786 H 0.64469 0.18659 0.7702 0.0
H2787 H 0.63122 0.16456 0.76217 0.0
H2788 H 0.62806 0.17335 0.7864 0.0
H2789 H 0.61206 0.2241 0.70778 0.0
H2790 H 0.58559 0.22243 0.70541 0.0
H2791 H 0.5983 0.20216 0.69988 0.0
C2792 C 0.36041 0.16937 0.72688 0.0
C2793 C 0.35471 0.16563 0.70667 0.0
C2794 C 0.36364 0.15422 0.74116 0.0
C2795 C 0.36052 0.13484 0.73515 0.0
C2796 C 0.35524 0.13104 0.71462 0.0
C2797 C 0.35261 0.14652 0.7006 0.0
C2798 C 0.3697 0.15895 0.76277 0.0
C2799 C 0.35165 0.11059 0.70758 0.0
C2800 C 0.3767 0.09155 0.76754 0.0
C2801 C 0.3589 0.08404 0.7748 0.0
C2802 C 0.37781 0.10874 0.75539 0.0
C2803 C 0.36071 0.11846 0.75041 0.0
C2804 C 0.34308 0.11155 0.7588 0.0
C2805 C 0.34245 0.09452 0.77096 0.0
C2806 C 0.39697 0.11592 0.74707 0.0
C2807 C 0.32453 0.12151 0.75406 0.0
H2808 H 0.36192 0.18417 0.73158 0.0
H2809 H 0.34867 0.14371 0.68489 0.0
H2810 H 0.35718 0.15486 0.7719 0.0
H2811 H 0.38195 0.15054 0.76904 0.0
H2812 H 0.37438 0.17462 0.7644 0.0
H2813 H 0.34864 0.11013 0.69099 0.0
H2814 H 0.36457 0.10253 0.71237 0.0
H2815 H 0.3389 0.1029 0.71458 0.0
H2816 H 0.38943 0.08349 0.7705 0.0
H2817 H 0.32881 0.08899 0.77697 0.0
H2818 H 0.40026 0.13174 0.74886 0.0
H2819 H 0.39581 0.11342 0.73075 0.0
H2820 H 0.40944 0.10842 0.75453 0.0
H2821 H 0.32734 0.13708 0.75733 0.0
H2822 H 0.31238 0.11493 0.76275 0.0
H2823 H 0.31963 0.12062 0.7378 0.0
C2824 C 0.41668 0.83181 0.72793 0.0
C2825 C 0.4159 0.84142 0.70896 0.0
C2826 C 0.43327 0.82264 0.73576 0.0
C2827 C 0.44949 0.82279 0.72421 0.0
C2828 C 0.44821 0.83136 0.70444 0.0
C2829 C 0.43145 0.84066 0.69708 0.0
C2830 C 0.43385 0.81376 0.75686 0.0
C2831 C 0.46495 0.83156 0.69143 0.0
C2832 C 0.49976 0.82062 0.75375 0.0
C2833 C 0.50279 0.80093 0.7534 0.0
C2834 C 0.48271 0.82789 0.74409 0.0
C2835 C 0.46822 0.81531 0.73349 0.0
C2836 C 0.47128 0.79553 0.73268 0.0
C2837 C 0.48838 0.78857 0.7427 0.0
C2838 C 0.48005 0.84907 0.74551 0.0
C2839 C 0.45632 0.7816 0.72148 0.0
H2840 H 0.40455 0.83229 0.73702 0.0
H2841 H 0.43091 0.84818 0.68247 0.0
H2842 H 0.43787 0.79869 0.75711 0.0
H2843 H 0.44528 0.8221 0.76668 0.0
H2844 H 0.41955 0.81364 0.76332 0.0
H2845 H 0.46079 0.83663 0.67572 0.0
H2846 H 0.4776 0.84131 0.69772 0.0
H2847 H 0.46992 0.81687 0.69131 0.0
H2848 H 0.51074 0.83049 0.76158 0.0
H2849 H 0.49019 0.77332 0.74236 0.0
H2850 H 0.46661 0.85057 0.75299 0.0
H2851 H 0.47803 0.85602 0.73024 0.0
H2852 H 0.49275 0.85705 0.75405 0.0
H2853 H 0.44245 0.7801 0.72884 0.0
H2854 H 0.46148 0.76701 0.72096 0.0
H2855 H 0.45287 0.78729 0.70587 0.0
C2856 C 0.70692 0.88941 0.65569 0.0
C2857 C 0.71671 0.87303 0.66153 0.0
C2858 C 0.71333 0.90749 0.66378 0.0
C2859 C 0.72992 0.90918 0.67817 0.0
C2860 C 0.74069 0.89292 0.68296 0.0
C2861 C 0.73386 0.87501 0.67465 0.0
C2862 C 0.7014 0.92436 0.65815 0.0
C2863 C 0.75851 0.89402 0.69809 0.0
C2864 C 0.75219 0.95932 0.69413 0.0
C2865 C 0.74376 0.96114 0.71217 0.0
C2866 C 0.74787 0.94258 0.6829 0.0
C2867 C 0.73469 0.92721 0.68974 0.0
C2868 C 0.72597 0.929 0.70781 0.0
C2869 C 0.7306 0.94587 0.71876 0.0
C2870 C 0.75744 0.94132 0.66373 0.0
C2871 C 0.71183 0.91297 0.71568 0.0
H2872 H 0.69335 0.88766 0.64596 0.0
H2873 H 0.74105 0.86217 0.67958 0.0
H2874 H 0.69329 0.92731 0.67102 0.0
H2875 H 0.71111 0.93763 0.65476 0.0
H2876 H 0.69059 0.92145 0.64493 0.0
H2877 H 0.76668 0.88102 0.69817 0.0
H2878 H 0.76859 0.90708 0.6949 0.0
H2879 H 0.75384 0.89522 0.71334 0.0
H2880 H 0.76212 0.97106 0.68864 0.0
H2881 H 0.72416 0.9469 0.73273 0.0
H2882 H 0.74603 0.93924 0.65091 0.0
H2883 H 0.76603 0.92857 0.6648 0.0
H2884 H 0.76738 0.95449 0.66043 0.0
H2885 H 0.69923 0.90983 0.70426 0.0
H2886 H 0.70608 0.91667 0.72979 0.0
H2887 H 0.71923 0.8995 0.71859 0.0
C2888 C 0.62304 0.85102 0.28464 0.0
C2889 C 0.63683 0.8376 0.28951 0.0
C2890 C 0.6036 0.84483 0.27759 0.0
C2891 C 0.59787 0.82477 0.27603 0.0
C2892 C 0.6123 0.81146 0.27888 0.0
C2893 C 0.63169 0.81811 0.28539 0.0
C2894 C 0.58887 0.85956 0.27362 0.0
C2895 C 0.60692 0.78994 0.27723 0.0
C2896 C 0.55043 0.80368 0.29578 0.0
C2897 C 0.53981 0.79619 0.2785 0.0
C2898 C 0.56891 0.81396 0.29491 0.0
C2899 C 0.57682 0.81732 0.27615 0.0
C2900 C 0.56536 0.81144 0.25834 0.0
C2901 C 0.54698 0.80073 0.25974 0.0
C2902 C 0.58058 0.81984 0.31435 0.0
C2903 C 0.57292 0.8153 0.23797 0.0
H2904 H 0.62708 0.86613 0.28768 0.0
H2905 H 0.64259 0.80789 0.2887 0.0
H2906 H 0.57827 0.85569 0.26051 0.0
H2907 H 0.58043 0.85987 0.28687 0.0
H2908 H 0.59618 0.87433 0.27079 0.0
H2909 H 0.62009 0.78184 0.27764 0.0
H2910 H 0.59836 0.78438 0.28991 0.0
H2911 H 0.59754 0.78688 0.2631 0.0
H2912 H 0.54483 0.8005 0.3103 0.0
H2913 H 0.53881 0.79506 0.24629 0.0
H2914 H 0.58546 0.83555 0.31362 0.0
H2915 H 0.59393 0.81196 0.31677 0.0
H2916 H 0.572 0.81669 0.32757 0.0
H2917 H 0.58261 0.82906 0.23731 0.0
H2918 H 0.56061 0.81592 0.22596 0.0
H2919 H 0.58154 0.80335 0.23478 0.0
C2920 C 0.73064 0.12792 0.31121 0.0
C2921 C 0.7233 0.12455 0.33002 0.0
C2922 C 0.73883 0.11324 0.30201 0.0
C2923 C 0.73971 0.09471 0.31186 0.0
C2924 C 0.73135 0.09102 0.3304 0.0
C2925 C 0.7233 0.10597 0.33924 0.0
C2926 C 0.74758 0.11793 0.28232 0.0
C2927 C 0.73187 0.07156 0.34148 0.0
C2928 C 0.75538 0.05148 0.28582 0.0
C2929 C 0.77512 0.05157 0.29354 0.0
C2930 C 0.74363 0.06563 0.29125 0.0
C2931 C 0.75189 0.08026 0.30451 0.0
C2932 C 0.77199 0.08073 0.31164 0.0
C2933 C 0.78323 0.06647 0.30614 0.0
C2934 C 0.72228 0.0646 0.2833 0.0
C2935 C 0.78161 0.09607 0.32559 0.0
H2936 H 0.73069 0.14231 0.30411 0.0
H2937 H 0.71742 0.10333 0.35368 0.0
H2938 H 0.76383 0.11884 0.28491 0.0
H2939 H 0.74287 0.1063 0.27166 0.0
H2940 H 0.74334 0.13192 0.27526 0.0
H2941 H 0.72275 0.07027 0.35439 0.0
H2942 H 0.72661 0.05975 0.33118 0.0
H2943 H 0.74723 0.06943 0.34724 0.0
H2944 H 0.74897 0.04004 0.27612 0.0
H2945 H 0.79854 0.06691 0.312 0.0
H2946 H 0.71868 0.07883 0.27639 0.0
H2947 H 0.71297 0.06122 0.29591 0.0
H2948 H 0.71841 0.05337 0.27199 0.0
H2949 H 0.77959 0.11071 0.31875 0.0
H2950 H 0.79759 0.09491 0.32913 0.0
H2951 H 0.77457 0.09478 0.33988 0.0
C2952 C 0.41442 0.1779 0.34658 0.0
C2953 C 0.40286 0.19347 0.34411 0.0
C2954 C 0.43051 0.17725 0.33518 0.0
C2955 C 0.43513 0.1926 0.32105 0.0
C2956 C 0.42263 0.20769 0.31766 0.0
C2957 C 0.40664 0.20788 0.32919 0.0
C2958 C 0.44325 0.16077 0.33916 0.0
C2959 C 0.42683 0.2243 0.30275 0.0
C2960 C 0.48845 0.20703 0.31142 0.0
C2961 C 0.4894 0.20014 0.29223 0.0
C2962 C 0.47107 0.20421 0.32109 0.0
C2963 C 0.45406 0.19412 0.31147 0.0
C2964 C 0.45503 0.18653 0.29238 0.0
C2965 C 0.47265 0.18964 0.28299 0.0
C2966 C 0.4708 0.21251 0.34145 0.0
C2967 C 0.4373 0.17562 0.28163 0.0
H2968 H 0.41151 0.16681 0.3582 0.0
H2969 H 0.39751 0.21979 0.32718 0.0
H2970 H 0.44651 0.15505 0.32482 0.0
H2971 H 0.45748 0.16612 0.34726 0.0
H2972 H 0.43625 0.14875 0.34839 0.0
H2973 H 0.41471 0.23385 0.30047 0.0
H2974 H 0.44049 0.23314 0.30822 0.0
H2975 H 0.42926 0.21879 0.28804 0.0
H2976 H 0.50134 0.21477 0.31893 0.0
H2977 H 0.4731 0.18434 0.26814 0.0
H2978 H 0.46598 0.20094 0.35247 0.0
H2979 H 0.46008 0.22351 0.34052 0.0
H2980 H 0.48541 0.21942 0.34722 0.0
H2981 H 0.43101 0.16388 0.29168 0.0
H2982 H 0.44085 0.1692 0.26775 0.0
H2983 H 0.42576 0.18557 0.2775 0.0
C2984 C 0.33214 0.90038 0.32343 0.0
C2985 C 0.35165 0.89778 0.33033 0.0
C2986 C 0.3271 0.91779 0.31345 0.0
C2987 C 0.34198 0.93297 0.30998 0.0
C2988 C 0.36183 0.93007 0.31615 0.0
C2989 C 0.3664 0.91261 0.3264 0.0
C2990 C 0.30573 0.9202 0.30735 0.0
C2991 C 0.3782 0.94568 0.31258 0.0
C2992 C 0.32529 0.97458 0.27449 0.0
C2993 C 0.32009 0.98726 0.28823 0.0
C2994 C 0.33348 0.95724 0.28126 0.0
C2995 C 0.33641 0.95252 0.3022 0.0
C2996 C 0.33237 0.966 0.316 0.0
C2997 C 0.32436 0.98311 0.30886 0.0
C2998 C 0.33788 0.94346 0.26602 0.0
C2999 C 0.33521 0.96176 0.33842 0.0
H3000 H 0.32076 0.88883 0.32613 0.0
H3001 H 0.38148 0.91071 0.33181 0.0
H3002 H 0.30098 0.93175 0.31606 0.0
H3003 H 0.30361 0.92478 0.29122 0.0
H3004 H 0.29608 0.90666 0.30996 0.0
H3005 H 0.39291 0.9403 0.3158 0.0
H3006 H 0.37665 0.95147 0.29679 0.0
H3007 H 0.37737 0.95789 0.32239 0.0
H3008 H 0.3218 0.97755 0.25855 0.0
H3009 H 0.32042 0.99288 0.31958 0.0
H3010 H 0.3266 0.93084 0.26562 0.0
H3011 H 0.35235 0.93789 0.27026 0.0
H3012 H 0.33786 0.95042 0.25069 0.0
H3013 H 0.32486 0.94921 0.34261 0.0
H3014 H 0.33263 0.97428 0.34713 0.0
H3015 H 0.3503 0.95782 0.34291 0.0
C3016 C 0.70767 0.13162 0.67771 0.0
C3017 C 0.715 0.15091 0.68074 0.0
C3018 C 0.71993 0.11652 0.68093 0.0
C3019 C 0.74017 0.12079 0.68711 0.0
C3020 C 0.74801 0.14048 0.688 0.0
C3021 C 0.73529 0.15532 0.68496 0.0
C3022 C 0.71076 0.09589 0.6797 0.0
C3023 C 0.76953 0.14584 0.69388 0.0
C3024 C 0.75876 0.08372 0.7261 0.0
C3025 C 0.76752 0.07118 0.7147 0.0
C3026 C 0.75082 0.10034 0.71744 0.0
C3027 C 0.75171 0.1049 0.69667 0.0
C3028 C 0.7618 0.0931 0.68525 0.0
C3029 C 0.76958 0.07628 0.6944 0.0
C3030 C 0.74037 0.11234 0.7304 0.0
C3031 C 0.76351 0.09763 0.6632 0.0
H3032 H 0.69201 0.12827 0.67415 0.0
H3033 H 0.74101 0.17024 0.68724 0.0
H3034 H 0.71975 0.08719 0.67147 0.0
H3035 H 0.71018 0.08924 0.6951 0.0
H3036 H 0.69559 0.09501 0.67213 0.0
H3037 H 0.77408 0.16113 0.68934 0.0
H3038 H 0.77251 0.14406 0.71043 0.0
H3039 H 0.77868 0.13623 0.68697 0.0
H3040 H 0.75739 0.0801 0.74189 0.0
H3041 H 0.7763 0.06669 0.68547 0.0
H3042 H 0.72451 0.11154 0.72507 0.0
H3043 H 0.7463 0.12776 0.72924 0.0
H3044 H 0.74181 0.10738 0.74648 0.0
H3045 H 0.74938 0.09289 0.65456 0.0
H3046 H 0.77524 0.09006 0.65762 0.0
H3047 H 0.7666 0.11345 0.66014 0.0
C3048 C 0.719 0.86721 0.31964 0.0
C3049 C 0.70021 0.87333 0.31497 0.0
C3050 C 0.73566 0.88067 0.32185 0.0
C3051 C 0.7335 0.90068 0.31862 0.0
C3052 C 0.71449 0.9069 0.3141 0.0
C3053 C 0.69807 0.89314 0.3126 0.0
C3054 C 0.75558 0.87349 0.32727 0.0
C3055 C 0.71154 0.92806 0.31023 0.0
C3056 C 0.77302 0.94125 0.33318 0.0
C3057 C 0.78042 0.94627 0.31461 0.0
C3058 C 0.75848 0.92561 0.3351 0.0
C3059 C 0.75107 0.91503 0.318 0.0
C3060 C 0.75937 0.91933 0.29959 0.0
C3061 C 0.77408 0.93469 0.29821 0.0
C3062 C 0.75038 0.92107 0.35515 0.0
C3063 C 0.75192 0.90846 0.28095 0.0
H3064 H 0.72067 0.85187 0.32132 0.0
H3065 H 0.68349 0.89783 0.30943 0.0
H3066 H 0.76496 0.87705 0.31475 0.0
H3067 H 0.76304 0.88085 0.34064 0.0
H3068 H 0.75459 0.85759 0.33051 0.0
H3069 H 0.69577 0.93053 0.30743 0.0
H3070 H 0.71814 0.93649 0.32324 0.0
H3071 H 0.71912 0.93382 0.29695 0.0
H3072 H 0.77788 0.95005 0.34593 0.0
H3073 H 0.78018 0.93808 0.28399 0.0
H3074 H 0.74913 0.90523 0.35868 0.0
H3075 H 0.73541 0.92583 0.35455 0.0
H3076 H 0.75969 0.92846 0.36753 0.0
H3077 H 0.7523 0.89265 0.28401 0.0
H3078 H 0.76065 0.91294 0.26809 0.0
H3079 H 0.7364 0.91108 0.2765 0.0
C3080 C 0.68663 0.19274 0.3288 0.0
C3081 C 0.68787 0.18023 0.34592 0.0
C3082 C 0.67002 0.20288 0.32359 0.0
C3083 C 0.65428 0.20074 0.33597 0.0
C3084 C 0.6565 0.1898 0.35446 0.0
C3085 C 0.67321 0.17955 0.35914 0.0
C3086 C 0.66852 0.21426 0.30375 0.0
C3087 C 0.64046 0.18752 0.36846 0.0
C3088 C 0.61101 0.23077 0.31889 0.0
C3089 C 0.59871 0.21757 0.30702 0.0
C3090 C 0.62876 0.22537 0.3293 0.0
C3091 C 0.63444 0.20644 0.3276 0.0
C3092 C 0.6216 0.19294 0.31633 0.0
C3093 C 0.604 0.1986 0.30642 0.0
C3094 C 0.64175 0.24013 0.34146 0.0
C3095 C 0.62684 0.17264 0.31386 0.0
H3096 H 0.69807 0.1934 0.31868 0.0
H3097 H 0.6741 0.16988 0.37238 0.0
H3098 H 0.65788 0.20616 0.29292 0.0
H3099 H 0.66299 0.22846 0.3055 0.0
H3100 H 0.68287 0.21676 0.29726 0.0
H3101 H 0.64593 0.18232 0.38377 0.0
H3102 H 0.6341 0.20145 0.36954 0.0
H3103 H 0.62848 0.17684 0.36251 0.0
H3104 H 0.60714 0.24545 0.3195 0.0
H3105 H 0.5946 0.18812 0.29756 0.0
H3106 H 0.6544 0.24571 0.33302 0.0
H3107 H 0.64771 0.23346 0.35591 0.0
H3108 H 0.63376 0.25258 0.34461 0.0
H3109 H 0.64042 0.17327 0.30605 0.0
H3110 H 0.61501 0.16371 0.30509 0.0
H3111 H 0.62984 0.16525 0.32877 0.0
C3112 C 0.365 0.14832 0.36527 0.0
C3113 C 0.36718 0.16557 0.35358 0.0
C3114 C 0.35501 0.13141 0.35719 0.0
C3115 C 0.34698 0.13178 0.33687 0.0
C3116 C 0.35013 0.14896 0.3247 0.0
C3117 C 0.36023 0.16567 0.33322 0.0
C3118 C 0.35222 0.11344 0.3707 0.0
C3119 C 0.34193 0.14999 0.30296 0.0
C3120 C 0.33011 0.08372 0.31247 0.0
C3121 C 0.30979 0.08192 0.31424 0.0
C3122 C 0.34237 0.09985 0.31963 0.0
C3123 C 0.33419 0.11464 0.32883 0.0
C3124 C 0.31372 0.11289 0.33075 0.0
C3125 C 0.30181 0.09659 0.32348 0.0
C3126 C 0.3641 0.10105 0.3174 0.0
C3127 C 0.30436 0.12832 0.34043 0.0
H3128 H 0.3705 0.14833 0.38101 0.0
H3129 H 0.36182 0.17911 0.32429 0.0
H3130 H 0.33645 0.11031 0.37309 0.0
H3131 H 0.35669 0.10075 0.36354 0.0
H3132 H 0.36078 0.11502 0.38559 0.0
H3133 H 0.34715 0.16375 0.29509 0.0
H3134 H 0.34611 0.1377 0.29493 0.0
H3135 H 0.32565 0.14881 0.30205 0.0
H3136 H 0.3365 0.07239 0.30562 0.0
H3137 H 0.28615 0.09555 0.3247 0.0
H3138 H 0.3725 0.10164 0.33242 0.0
H3139 H 0.36873 0.11455 0.30879 0.0
H3140 H 0.36816 0.08851 0.30963 0.0
H3141 H 0.31103 0.13003 0.35609 0.0
H3142 H 0.28824 0.12489 0.34069 0.0
H3143 H 0.30715 0.14246 0.33219 0.0
C3144 C 0.37537 0.82021 0.34456 0.0
C3145 C 0.38286 0.83783 0.35282 0.0
C3146 C 0.38803 0.80664 0.34003 0.0
C3147 C 0.40865 0.81079 0.34401 0.0
C3148 C 0.4161 0.82809 0.35359 0.0
C3149 C 0.40312 0.84146 0.35769 0.0
C3150 C 0.37938 0.78851 0.32971 0.0
C3151 C 0.43789 0.83306 0.35842 0.0
C3152 C 0.44297 0.77111 0.34132 0.0
C3153 C 0.45002 0.77515 0.32233 0.0
C3154 C 0.42945 0.78242 0.34853 0.0
C3155 C 0.4225 0.79809 0.33645 0.0
C3156 C 0.42923 0.80207 0.31718 0.0
C3157 C 0.4429 0.7907 0.31045 0.0
C3158 C 0.4228 0.77774 0.36921 0.0
C3159 C 0.42213 0.81855 0.30369 0.0
H3160 H 0.35971 0.81767 0.34045 0.0
H3161 H 0.40882 0.85527 0.36379 0.0
H3162 H 0.38307 0.7895 0.31389 0.0
H3163 H 0.38576 0.77561 0.33708 0.0
H3164 H 0.36315 0.78633 0.32974 0.0
H3165 H 0.44114 0.84582 0.36794 0.0
H3166 H 0.44465 0.82058 0.36628 0.0
H3167 H 0.44496 0.83633 0.34426 0.0
H3168 H 0.44795 0.75908 0.35069 0.0
H3169 H 0.44817 0.79432 0.2959 0.0
H3170 H 0.40656 0.77494 0.36824 0.0
H3171 H 0.42697 0.79032 0.3788 0.0
H3172 H 0.4293 0.76491 0.37667 0.0
H3173 H 0.40585 0.81695 0.30132 0.0
H3174 H 0.42809 0.81929 0.2888 0.0
H3175 H 0.42658 0.83251 0.31095 0.0
C3176 C 0.37034 0.9108 0.69825 0.0
C3177 C 0.37214 0.89412 0.71077 0.0
C3178 C 0.36289 0.92723 0.70498 0.0
C3179 C 0.35727 0.92709 0.72483 0.0
C3180 C 0.35842 0.90997 0.73725 0.0
C3181 C 0.36574 0.89372 0.73004 0.0
C3182 C 0.36182 0.94503 0.69115 0.0
C3183 C 0.35272 0.90908 0.75851 0.0
C3184 C 0.36344 0.97371 0.75309 0.0
C3185 C 0.34398 0.97798 0.75381 0.0
C3186 C 0.36789 0.95765 0.74315 0.0
C3187 C 0.35253 0.94537 0.73348 0.0
C3188 C 0.33287 0.95008 0.73325 0.0
C3189 C 0.3288 0.96634 0.74343 0.0
C3190 C 0.38906 0.95336 0.74383 0.0
C3191 C 0.31607 0.9375 0.72296 0.0
H3192 H 0.37537 0.91119 0.68338 0.0
H3193 H 0.36685 0.88074 0.73962 0.0
H3194 H 0.34729 0.9507 0.69105 0.0
H3195 H 0.37312 0.95658 0.69666 0.0
H3196 H 0.36432 0.94208 0.6755 0.0
H3197 H 0.35298 0.89431 0.76567 0.0
H3198 H 0.36305 0.91919 0.76768 0.0
H3199 H 0.3378 0.91377 0.75876 0.0
H3200 H 0.37532 0.98266 0.76091 0.0
H3201 H 0.31373 0.96941 0.744 0.0
H3202 H 0.39315 0.95186 0.72841 0.0
H3203 H 0.39101 0.93939 0.75226 0.0
H3204 H 0.39936 0.96483 0.75113 0.0
H3205 H 0.31927 0.93456 0.70755 0.0
H3206 H 0.30202 0.94424 0.72207 0.0
H3207 H 0.3142 0.92334 0.73138 0.0
C3208 C 0.64986 0.82354 0.67155 0.0
C3209 C 0.66821 0.8166 0.67108 0.0
C3210 C 0.6352 0.81323 0.6822 0.0
C3211 C 0.63905 0.79558 0.69276 0.0
C3212 C 0.6572 0.78794 0.69124 0.0
C3213 C 0.6716 0.79862 0.68047 0.0
C3214 C 0.61617 0.82201 0.68339 0.0
C3215 C 0.66198 0.76923 0.7022 0.0
C3216 C 0.61568 0.78717 0.74191 0.0
C3217 C 0.59941 0.77374 0.73707 0.0
C3218 C 0.62878 0.79391 0.72777 0.0
C3219 C 0.62572 0.78713 0.70805 0.0
C3220 C 0.60965 0.77315 0.70308 0.0
C3221 C 0.59667 0.76657 0.71768 0.0
C3222 C 0.6457 0.80873 0.73389 0.0
C3223 C 0.60594 0.76552 0.68224 0.0
H3224 H 0.64736 0.83751 0.6643 0.0
H3225 H 0.68592 0.79342 0.68025 0.0
H3226 H 0.60347 0.81093 0.68094 0.0
H3227 H 0.61591 0.82749 0.69862 0.0
H3228 H 0.61432 0.83423 0.6722 0.0
H3229 H 0.67508 0.76367 0.69689 0.0
H3230 H 0.66499 0.77162 0.71851 0.0
H3231 H 0.64935 0.758 0.70027 0.0
H3232 H 0.61816 0.79269 0.75688 0.0
H3233 H 0.58417 0.7562 0.71378 0.0
H3234 H 0.64428 0.82237 0.7247 0.0
H3235 H 0.65982 0.80341 0.73111 0.0
H3236 H 0.64636 0.81209 0.75 0.0
H3237 H 0.60214 0.77743 0.67131 0.0
H3238 H 0.5938 0.75368 0.68114 0.0
H3239 H 0.61944 0.76007 0.67778 0.0
C3240 C 0.38651 0.21675 0.71272 0.0
C3241 C 0.3823 0.20125 0.70005 0.0
C3242 C 0.4053 0.22054 0.72269 0.0
C3243 C 0.42021 0.2087 0.71947 0.0
C3244 C 0.41603 0.19324 0.70627 0.0
C3245 C 0.39698 0.18957 0.69684 0.0
C3246 C 0.40904 0.23684 0.73704 0.0
C3247 C 0.4316 0.18047 0.7023 0.0
C3248 C 0.47271 0.22852 0.7354 0.0
C3249 C 0.47616 0.2186 0.75399 0.0
C3250 C 0.4547 0.22508 0.72367 0.0
C3251 C 0.43976 0.21175 0.73097 0.0
C3252 C 0.44322 0.20166 0.74967 0.0
C3253 C 0.46143 0.20508 0.76085 0.0
C3254 C 0.45158 0.23578 0.70357 0.0
C3255 C 0.42751 0.18761 0.75813 0.0
H3256 H 0.37492 0.22562 0.71505 0.0
H3257 H 0.39348 0.17769 0.68683 0.0
H3258 H 0.4132 0.23094 0.75242 0.0
H3259 H 0.42149 0.24712 0.73269 0.0
H3260 H 0.39597 0.24494 0.73744 0.0
H3261 H 0.42633 0.17003 0.69048 0.0
H3262 H 0.44479 0.18947 0.6976 0.0
H3263 H 0.43623 0.17219 0.71629 0.0
H3264 H 0.48409 0.23891 0.73003 0.0
H3265 H 0.46393 0.19746 0.77528 0.0
H3266 H 0.43955 0.24524 0.70379 0.0
H3267 H 0.44703 0.22532 0.69163 0.0
H3268 H 0.46501 0.24485 0.69958 0.0
H3269 H 0.41441 0.1952 0.76002 0.0
H3270 H 0.43262 0.18089 0.77289 0.0
H3271 H 0.42273 0.17592 0.74755 0.0
C3272 C 0.71435 0.70768 0.16265 0.0
C3273 C 0.69579 0.69741 0.15953 0.0
C3274 C 0.72412 0.71632 0.14638 0.0
C3275 C 0.71499 0.71482 0.12649 0.0
C3276 C 0.69648 0.70382 0.1233 0.0
C3277 C 0.68709 0.69535 0.13987 0.0
C3278 C 0.74377 0.72787 0.1506 0.0
C3279 C 0.68615 0.70175 0.10246 0.0
C3280 C 0.72778 0.75526 0.08752 0.0
C3281 C 0.74076 0.74697 0.0763 0.0
C3282 C 0.71942 0.74501 0.10384 0.0
C3283 C 0.72406 0.72589 0.10924 0.0
C3284 C 0.73718 0.71742 0.09806 0.0
C3285 C 0.74536 0.72801 0.0818 0.0
C3286 C 0.7056 0.75472 0.11534 0.0
C3287 C 0.74249 0.69708 0.10319 0.0
H3288 H 0.72078 0.70971 0.17792 0.0
H3289 H 0.67254 0.68774 0.13758 0.0
H3290 H 0.75455 0.72334 0.14094 0.0
H3291 H 0.74225 0.74344 0.14695 0.0
H3292 H 0.7497 0.72619 0.16657 0.0
H3293 H 0.67272 0.6914 0.10232 0.0
H3294 H 0.68191 0.71606 0.09639 0.0
H3295 H 0.69615 0.69676 0.09221 0.0
H3296 H 0.72428 0.76992 0.08372 0.0
H3297 H 0.75514 0.72129 0.0732 0.0
H3298 H 0.71135 0.75536 0.13139 0.0
H3299 H 0.69106 0.74611 0.11471 0.0
H3300 H 0.70351 0.76966 0.10934 0.0
H3301 H 0.74897 0.69593 0.119 0.0
H3302 H 0.75311 0.69261 0.09326 0.0
H3303 H 0.72906 0.68675 0.10184 0.0
C3304 C 0.32177 0.69118 0.09741 0.0
C3305 C 0.31988 0.6971 0.1167 0.0
C3306 C 0.31558 0.7024 0.08041 0.0
C3307 C 0.30763 0.72002 0.08297 0.0
C3308 C 0.304 0.72504 0.1024 0.0
C3309 C 0.31018 0.71343 0.11909 0.0
C3310 C 0.31945 0.69642 0.05994 0.0
C3311 C 0.29553 0.74368 0.10578 0.0
C3312 C 0.32438 0.76259 0.04951 0.0
C3313 C 0.30743 0.76519 0.03663 0.0
C3314 C 0.32459 0.74774 0.06438 0.0
C3315 C 0.30741 0.73501 0.06639 0.0
C3316 C 0.29034 0.73714 0.05311 0.0
C3317 C 0.29052 0.75231 0.03835 0.0
C3318 C 0.34315 0.74598 0.07823 0.0
C3319 C 0.27185 0.72369 0.05481 0.0
H3320 H 0.32931 0.6785 0.09569 0.0
H3321 H 0.30854 0.71771 0.13412 0.0
H3322 H 0.3071 0.69933 0.04858 0.0
H3323 H 0.33287 0.70498 0.05519 0.0
H3324 H 0.32175 0.68081 0.06004 0.0
H3325 H 0.29046 0.74376 0.12103 0.0
H3326 H 0.30696 0.75599 0.10414 0.0
H3327 H 0.28304 0.74611 0.09445 0.0
H3328 H 0.33756 0.77239 0.04822 0.0
H3329 H 0.27738 0.75427 0.02841 0.0
H3330 H 0.34816 0.73138 0.07747 0.0
H3331 H 0.34021 0.74777 0.094 0.0
H3332 H 0.35529 0.75695 0.07443 0.0
H3333 H 0.2752 0.70838 0.05535 0.0
H3334 H 0.26057 0.72602 0.04208 0.0
H3335 H 0.26557 0.72607 0.06901 0.0
C3336 C 0.38264 0.30783 0.17796 0.0
C3337 C 0.39405 0.32558 0.1759 0.0
C3338 C 0.37457 0.29756 0.16096 0.0
C3339 C 0.37781 0.30534 0.14137 0.0
C3340 C 0.39068 0.32252 0.13943 0.0
C3341 C 0.39854 0.33243 0.15669 0.0
C3342 C 0.3611 0.27932 0.16394 0.0
C3343 C 0.39466 0.33149 0.11903 0.0
C3344 C 0.35809 0.27819 0.09355 0.0
C3345 C 0.3405 0.28662 0.08806 0.0
C3346 C 0.37036 0.28379 0.11102 0.0
C3347 C 0.36486 0.29803 0.12332 0.0
C3348 C 0.34687 0.30609 0.11804 0.0
C3349 C 0.33507 0.30035 0.10065 0.0
C3350 C 0.38937 0.27479 0.11609 0.0
C3351 C 0.34012 0.32117 0.1306 0.0
H3352 H 0.3789 0.30272 0.19281 0.0
H3353 H 0.40709 0.34633 0.15512 0.0
H3354 H 0.34562 0.28263 0.1607 0.0
H3355 H 0.3637 0.26821 0.15346 0.0
H3356 H 0.36305 0.27318 0.1796 0.0
H3357 H 0.40731 0.34281 0.11998 0.0
H3358 H 0.39763 0.3203 0.10883 0.0
H3359 H 0.38148 0.33826 0.11223 0.0
H3360 H 0.36246 0.26758 0.08402 0.0
H3361 H 0.32144 0.30686 0.09688 0.0
H3362 H 0.39033 0.26893 0.13186 0.0
H3363 H 0.40192 0.28603 0.11482 0.0
H3364 H 0.39093 0.26297 0.10601 0.0
H3365 H 0.33923 0.31543 0.1463 0.0
H3366 H 0.32553 0.3257 0.12471 0.0
H3367 H 0.35092 0.33418 0.13102 0.0
C3368 C 0.75115 0.35647 0.15122 0.0
C3369 C 0.73639 0.36897 0.15089 0.0
C3370 C 0.75805 0.35138 0.13331 0.0
C3371 C 0.74997 0.35906 0.11463 0.0
C3372 C 0.73649 0.37323 0.11445 0.0
C3373 C 0.72973 0.37787 0.1326 0.0
C3374 C 0.77238 0.33622 0.13433 0.0
C3375 C 0.72766 0.38203 0.09499 0.0
C3376 C 0.77106 0.34783 0.0662 0.0
C3377 C 0.75803 0.33209 0.05945 0.0
C3378 C 0.76864 0.35689 0.08403 0.0
C3379 C 0.75295 0.34995 0.09553 0.0
C3380 C 0.73984 0.33401 0.08882 0.0
C3381 C 0.7425 0.32537 0.07091 0.0
C3382 C 0.7828 0.37394 0.09053 0.0
C3383 C 0.72297 0.32597 0.10064 0.0
H3384 H 0.75588 0.34924 0.16536 0.0
H3385 H 0.7179 0.38709 0.13233 0.0
H3386 H 0.76442 0.32221 0.12974 0.0
H3387 H 0.7838 0.34018 0.12384 0.0
H3388 H 0.77968 0.33412 0.14974 0.0
H3389 H 0.72041 0.39518 0.09746 0.0
H3390 H 0.73904 0.38591 0.08443 0.0
H3391 H 0.71649 0.37129 0.08773 0.0
H3392 H 0.78299 0.35325 0.05737 0.0
H3393 H 0.73256 0.31305 0.06606 0.0
H3394 H 0.79013 0.37077 0.10569 0.0
H3395 H 0.77469 0.3868 0.09161 0.0
H3396 H 0.79424 0.37761 0.07996 0.0
H3397 H 0.72858 0.3216 0.11616 0.0
H3398 H 0.71438 0.31323 0.09365 0.0
H3399 H 0.71293 0.3373 0.10179 0.0
C3400 C 0.70801 0.37444 0.89052 0.0
C3401 C 0.71266 0.37198 0.871 0.0
C3402 C 0.72165 0.37152 0.90715 0.0
C3403 C 0.74048 0.36629 0.90407 0.0
C3404 C 0.7458 0.36551 0.88423 0.0
C3405 C 0.73173 0.36822 0.8679 0.0
C3406 C 0.71529 0.37242 0.928 0.0
C3407 C 0.7658 0.36031 0.88025 0.0
C3408 C 0.77791 0.3631 0.94987 0.0
C3409 C 0.77539 0.34325 0.95521 0.0
C3410 C 0.76701 0.37087 0.93295 0.0
C3411 C 0.75314 0.35852 0.92134 0.0
C3412 C 0.75074 0.33848 0.92657 0.0
C3413 C 0.76194 0.33111 0.94331 0.0
C3414 C 0.77016 0.39226 0.92762 0.0
C3415 C 0.73602 0.32478 0.91471 0.0
H3416 H 0.69331 0.37765 0.89278 0.0
H3417 H 0.73527 0.36624 0.85277 0.0
H3418 H 0.71323 0.35753 0.93483 0.0
H3419 H 0.72675 0.38076 0.93777 0.0
H3420 H 0.70128 0.37912 0.92785 0.0
H3421 H 0.76884 0.36377 0.86439 0.0
H3422 H 0.77748 0.36807 0.89029 0.0
H3423 H 0.7666 0.34455 0.8834 0.0
H3424 H 0.78833 0.37257 0.95893 0.0
H3425 H 0.75982 0.31576 0.94726 0.0
H3426 H 0.75652 0.39912 0.92909 0.0
H3427 H 0.77349 0.39459 0.91174 0.0
H3428 H 0.78232 0.39969 0.9374 0.0
H3429 H 0.72103 0.32933 0.91491 0.0
H3430 H 0.73599 0.30957 0.92074 0.0
H3431 H 0.73931 0.32526 0.89879 0.0
C3432 C 0.73369 0.67341 0.90476 0.0
C3433 C 0.73889 0.68185 0.88634 0.0
C3434 C 0.73872 0.68314 0.92272 0.0
C3435 C 0.7491 0.70184 0.92219 0.0
C3436 C 0.75356 0.71075 0.9034 0.0
C3437 C 0.74843 0.7006 0.88571 0.0
C3438 C 0.73355 0.67313 0.94233 0.0
C3439 C 0.76429 0.73077 0.90206 0.0
C3440 C 0.74775 0.73507 0.96524 0.0
C3441 C 0.76639 0.73413 0.9758 0.0
C3442 C 0.74188 0.72441 0.94809 0.0
C3443 C 0.75488 0.71231 0.94118 0.0
C3444 C 0.77349 0.71072 0.9521 0.0
C3445 C 0.77905 0.72166 0.9693 0.0
C3446 C 0.72191 0.72657 0.93704 0.0
C3447 C 0.78772 0.69785 0.94528 0.0
H3448 H 0.7265 0.65879 0.90512 0.0
H3449 H 0.75264 0.70691 0.87142 0.0
H3450 H 0.74719 0.67094 0.95215 0.0
H3451 H 0.72488 0.6823 0.95038 0.0
H3452 H 0.72499 0.65883 0.94012 0.0
H3453 H 0.76617 0.73586 0.88628 0.0
H3454 H 0.75616 0.74124 0.90905 0.0
H3455 H 0.77901 0.73082 0.91051 0.0
H3456 H 0.73771 0.74451 0.97016 0.0
H3457 H 0.79347 0.72088 0.97728 0.0
H3458 H 0.71343 0.71219 0.93547 0.0
H3459 H 0.72365 0.73284 0.92165 0.0
H3460 H 0.71323 0.73603 0.94478 0.0
H3461 H 0.78056 0.6829 0.94364 0.0
H3462 H 0.80115 0.69738 0.95591 0.0
H3463 H 0.79212 0.70317 0.9303 0.0
C3464 C 0.37029 0.73912 0.86841 0.0
C3465 C 0.37282 0.71969 0.87372 0.0
C3466 C 0.3646 0.75152 0.88227 0.0
C3467 C 0.36121 0.7443 0.90197 0.0
C3468 C 0.36359 0.72459 0.90734 0.0
C3469 C 0.36941 0.71255 0.89317 0.0
C3470 C 0.36228 0.77238 0.87585 0.0
C3471 C 0.36008 0.71623 0.92809 0.0
C3472 C 0.36353 0.78026 0.94364 0.0
C3473 C 0.34357 0.78221 0.94511 0.0
C3474 C 0.36946 0.76802 0.92972 0.0
C3475 C 0.35514 0.75734 0.9169 0.0
C3476 C 0.33499 0.75924 0.91826 0.0
C3477 C 0.32948 0.77164 0.93224 0.0
C3478 C 0.39109 0.76648 0.92878 0.0
C3479 C 0.31922 0.74819 0.90489 0.0
H3480 H 0.37276 0.74458 0.85331 0.0
H3481 H 0.37155 0.69758 0.89734 0.0
H3482 H 0.34705 0.77565 0.87739 0.0
H3483 H 0.37223 0.78211 0.88578 0.0
H3484 H 0.36556 0.77577 0.86006 0.0
H3485 H 0.36233 0.7006 0.92984 0.0
H3486 H 0.37017 0.72416 0.9395 0.0
H3487 H 0.34487 0.71805 0.93132 0.0
H3488 H 0.37458 0.7881 0.95357 0.0
H3489 H 0.31406 0.77318 0.9329 0.0
H3490 H 0.39521 0.77067 0.91342 0.0
H3491 H 0.39437 0.75126 0.93201 0.0
H3492 H 0.40041 0.77582 0.93964 0.0
H3493 H 0.32113 0.75221 0.88889 0.0
H3494 H 0.3042 0.75104 0.90795 0.0
H3495 H 0.32051 0.73241 0.90705 0.0
C3496 C 0.38352 0.34894 0.90349 0.0
C3497 C 0.37814 0.34019 0.88513 0.0
C3498 C 0.37569 0.34141 0.92126 0.0
C3499 C 0.36189 0.32476 0.92068 0.0
C3500 C 0.35727 0.31525 0.9023 0.0
C3501 C 0.3655 0.32306 0.88476 0.0
C3502 C 0.38129 0.35197 0.94042 0.0
C3503 C 0.34267 0.29753 0.90086 0.0
C3504 C 0.34842 0.29981 0.97064 0.0
C3505 C 0.33128 0.30821 0.97387 0.0
C3506 C 0.3584 0.30482 0.95336 0.0
C3507 C 0.35108 0.31849 0.93877 0.0
C3508 C 0.33364 0.32677 0.9418 0.0
C3509 C 0.32404 0.3216 0.95924 0.0
C3510 C 0.377 0.29575 0.9509 0.0
C3511 C 0.32514 0.34126 0.92663 0.0
H3512 H 0.39316 0.3623 0.90367 0.0
H3513 H 0.36111 0.31651 0.87047 0.0
H3514 H 0.3685 0.35893 0.94452 0.0
H3515 H 0.38544 0.34166 0.95297 0.0
H3516 H 0.39371 0.36334 0.93892 0.0
H3517 H 0.3423 0.2906 0.88623 0.0
H3518 H 0.34622 0.28674 0.91315 0.0
H3519 H 0.32778 0.30167 0.90259 0.0
H3520 H 0.35431 0.28961 0.98185 0.0
H3521 H 0.31069 0.32796 0.96132 0.0
H3522 H 0.38953 0.30715 0.95073 0.0
H3523 H 0.37571 0.28865 0.9363 0.0
H3524 H 0.38042 0.28484 0.96315 0.0
H3525 H 0.33582 0.35423 0.92519 0.0
H3526 H 0.31118 0.34596 0.93085 0.0
H3527 H 0.32236 0.33491 0.91164 0.0
C3528 C 0.62673 0.69915 0.19691 0.0
C3529 C 0.64517 0.69817 0.20766 0.0
C3530 C 0.6104 0.7034 0.20648 0.0
C3531 C 0.61255 0.70676 0.22735 0.0
C3532 C 0.63134 0.70623 0.23813 0.0
C3533 C 0.6474 0.70203 0.22813 0.0
C3534 C 0.59076 0.70394 0.19434 0.0
C3535 C 0.63439 0.70973 0.26032 0.0
C3536 C 0.57312 0.73199 0.24952 0.0
C3537 C 0.56147 0.7163 0.25775 0.0
C3538 C 0.58977 0.72915 0.23971 0.0
C3539 C 0.59504 0.71015 0.23801 0.0
C3540 C 0.58348 0.69428 0.24645 0.0
C3541 C 0.56692 0.69753 0.25617 0.0
C3542 C 0.6017 0.74654 0.23112 0.0
C3543 C 0.58852 0.67377 0.24505 0.0
H3544 H 0.62507 0.69621 0.18107 0.0
H3545 H 0.66176 0.70153 0.23632 0.0
H3546 H 0.58009 0.69246 0.20016 0.0
H3547 H 0.58489 0.71803 0.19586 0.0
H3548 H 0.59168 0.70179 0.17814 0.0
H3549 H 0.65 0.70944 0.26639 0.0
H3550 H 0.62951 0.72397 0.26326 0.0
H3551 H 0.62533 0.69851 0.26865 0.0
H3552 H 0.56933 0.74658 0.2509 0.0
H3553 H 0.558 0.68526 0.26221 0.0
H3554 H 0.60236 0.74509 0.21478 0.0
H3555 H 0.617 0.74732 0.23827 0.0
H3556 H 0.59552 0.76033 0.2334 0.0
H3557 H 0.58807 0.67017 0.22905 0.0
H3558 H 0.5783 0.66303 0.25266 0.0
H3559 H 0.60369 0.67236 0.25195 0.0
C3560 C 0.34946 0.63167 0.15538 0.0
C3561 C 0.34409 0.6471 0.1655 0.0
C3562 C 0.34735 0.61273 0.16371 0.0
C3563 C 0.33942 0.60929 0.18244 0.0
C3564 C 0.33525 0.62511 0.19331 0.0
C3565 C 0.33775 0.64393 0.18468 0.0
C3566 C 0.35233 0.59632 0.15184 0.0
C3567 C 0.32673 0.62205 0.21331 0.0
C3568 C 0.30849 0.56183 0.19134 0.0
C3569 C 0.32103 0.55196 0.20511 0.0
C3570 C 0.31446 0.58041 0.18363 0.0
C3571 C 0.33351 0.58918 0.18964 0.0
C3572 C 0.3465 0.57897 0.20294 0.0
C3573 C 0.34005 0.5605 0.21062 0.0
C3574 C 0.30012 0.59093 0.16956 0.0
C3575 C 0.36703 0.58771 0.20937 0.0
H3576 H 0.35437 0.63438 0.1405 0.0
H3577 H 0.33349 0.65603 0.19226 0.0
H3578 H 0.36087 0.58618 0.16164 0.0
H3579 H 0.33858 0.588 0.14576 0.0
H3580 H 0.36089 0.60161 0.13907 0.0
H3581 H 0.32618 0.6359 0.22069 0.0
H3582 H 0.31158 0.61479 0.21105 0.0
H3583 H 0.33549 0.61245 0.22357 0.0
H3584 H 0.29373 0.55533 0.18727 0.0
H3585 H 0.34981 0.55275 0.22109 0.0
H3586 H 0.30662 0.59535 0.1553 0.0
H3587 H 0.29698 0.60434 0.17643 0.0
H3588 H 0.28603 0.58192 0.16603 0.0
H3589 H 0.37487 0.59254 0.196 0.0
H3590 H 0.37573 0.57736 0.21874 0.0
H3591 H 0.36633 0.60069 0.21813 0.0
C3592 C 0.42607 0.31107 0.21965 0.0
C3593 C 0.42881 0.32868 0.20867 0.0
C3594 C 0.44213 0.30069 0.22671 0.0
C3595 C 0.46143 0.30822 0.22281 0.0
C3596 C 0.46412 0.32578 0.21117 0.0
C3597 C 0.44776 0.33573 0.20418 0.0
C3598 C 0.43848 0.28189 0.23871 0.0
C3599 C 0.48434 0.33434 0.20656 0.0
C3600 C 0.505 0.28936 0.25586 0.0
C3601 C 0.51073 0.27554 0.24367 0.0
C3602 C 0.48911 0.3003 0.24924 0.0
C3603 C 0.47868 0.29727 0.23007 0.0
C3604 C 0.48463 0.28354 0.21769 0.0
C3605 C 0.50051 0.273 0.22456 0.0
C3606 C 0.4833 0.31493 0.26284 0.0
C3607 C 0.47403 0.27972 0.1972 0.0
H3608 H 0.4114 0.30587 0.22336 0.0
H3609 H 0.4498 0.34952 0.19594 0.0
H3610 H 0.44443 0.27003 0.23148 0.0
H3611 H 0.44628 0.28309 0.25398 0.0
H3612 H 0.42261 0.27785 0.24016 0.0
H3613 H 0.48395 0.34808 0.19733 0.0
H3614 H 0.49369 0.33718 0.22077 0.0
H3615 H 0.49146 0.3239 0.19841 0.0
H3616 H 0.5127 0.29144 0.27062 0.0
H3617 H 0.50473 0.26247 0.21484 0.0
H3618 H 0.46806 0.31082 0.26671 0.0
H3619 H 0.48351 0.32939 0.25494 0.0
H3620 H 0.4932 0.31607 0.27697 0.0
H3621 H 0.45837 0.2747 0.19871 0.0
H3622 H 0.48056 0.26863 0.18932 0.0
H3623 H 0.47437 0.29329 0.18767 0.0
C3624 C 0.75187 0.39694 0.20508 0.0
C3625 C 0.73993 0.39543 0.18686 0.0
C3626 C 0.76408 0.41399 0.20961 0.0
C3627 C 0.76466 0.42987 0.1954 0.0
C3628 C 0.7529 0.42823 0.1768 0.0
C3629 C 0.74062 0.4111 0.17283 0.0
C3630 C 0.77628 0.41506 0.22963 0.0
C3631 C 0.75324 0.44464 0.16109 0.0
C3632 C 0.78423 0.48109 0.21082 0.0
C3633 C 0.8034 0.48269 0.20505 0.0
C3634 C 0.77163 0.46385 0.2084 0.0
C3635 C 0.77818 0.44785 0.19956 0.0
C3636 C 0.79761 0.44923 0.19403 0.0
C3637 C 0.80992 0.46647 0.19694 0.0
C3638 C 0.75116 0.46291 0.21493 0.0
C3639 C 0.80531 0.43264 0.18451 0.0
H3640 H 0.75151 0.38477 0.21587 0.0
H3641 H 0.73116 0.41012 0.15894 0.0
H3642 H 0.79212 0.4172 0.22729 0.0
H3643 H 0.77294 0.42769 0.23771 0.0
H3644 H 0.77363 0.40176 0.23934 0.0
H3645 H 0.74336 0.44107 0.14737 0.0
H3646 H 0.74871 0.45778 0.16734 0.0
H3647 H 0.7684 0.44825 0.15677 0.0
H3648 H 0.77882 0.49336 0.21684 0.0
H3649 H 0.82472 0.46728 0.19246 0.0
H3650 H 0.74834 0.44996 0.22504 0.0
H3651 H 0.74024 0.46146 0.20161 0.0
H3652 H 0.74876 0.47599 0.22286 0.0
H3653 H 0.80403 0.4194 0.19449 0.0
H3654 H 0.82091 0.43586 0.18139 0.0
H3655 H 0.79635 0.42935 0.17017 0.0
C3656 C 0.65278 0.33863 0.81112 0.0
C3657 C 0.65275 0.35022 0.82755 0.0
C3658 C 0.63599 0.32666 0.80454 0.0
C3659 C 0.61883 0.32643 0.81468 0.0
C3660 C 0.61848 0.33895 0.83064 0.0
C3661 C 0.63557 0.35065 0.83698 0.0
C3662 C 0.63703 0.31337 0.78763 0.0
C3663 C 0.60044 0.33919 0.84174 0.0
C3664 C 0.57134 0.2991 0.79286 0.0
C3665 C 0.57164 0.28154 0.80415 0.0
C3666 C 0.5866 0.31402 0.79609 0.0
C3667 C 0.60248 0.31109 0.81073 0.0
C3668 C 0.60292 0.29327 0.82192 0.0
C3669 C 0.58748 0.2788 0.81855 0.0
C3670 C 0.58568 0.33294 0.78404 0.0
C3671 C 0.61971 0.28946 0.8375 0.0
H3672 H 0.66624 0.33839 0.80398 0.0
H3673 H 0.63572 0.35984 0.84959 0.0
H3674 H 0.63702 0.29821 0.79376 0.0
H3675 H 0.62399 0.31401 0.77654 0.0
H3676 H 0.65049 0.31705 0.77974 0.0
H3677 H 0.6017 0.3515 0.85187 0.0
H3678 H 0.58718 0.34009 0.83098 0.0
H3679 H 0.59824 0.32551 0.85093 0.0
H3680 H 0.55911 0.30127 0.78175 0.0
H3681 H 0.58792 0.26519 0.82722 0.0
H3682 H 0.5989 0.336 0.7757 0.0
H3683 H 0.58565 0.34497 0.79429 0.0
H3684 H 0.5724 0.33288 0.77314 0.0
H3685 H 0.63379 0.29125 0.8305 0.0
H3686 H 0.61792 0.27467 0.84465 0.0
H3687 H 0.62084 0.30011 0.84943 0.0
C3688 C 0.77812 0.63831 0.83978 0.0
C3689 C 0.75752 0.63643 0.8384 0.0
C3690 C 0.78856 0.62396 0.83287 0.0
C3691 C 0.77817 0.60759 0.82364 0.0
C3692 C 0.75733 0.60601 0.8215 0.0
C3693 C 0.74729 0.62027 0.82917 0.0
C3694 C 0.81071 0.6261 0.83591 0.0
C3695 C 0.74561 0.58912 0.8113 0.0
C3696 C 0.80427 0.57758 0.79023 0.0
C3697 C 0.80668 0.56069 0.80234 0.0
C3698 C 0.7953 0.59305 0.79703 0.0
C3699 C 0.78901 0.59189 0.81664 0.0
C3700 C 0.79239 0.5753 0.8293 0.0
C3701 C 0.80085 0.5598 0.8219 0.0
C3702 C 0.7916 0.61016 0.7828 0.0
C3703 C 0.78653 0.57367 0.85052 0.0
H3704 H 0.78608 0.65092 0.84662 0.0
H3705 H 0.73139 0.61864 0.82827 0.0
H3706 H 0.8159 0.61355 0.84515 0.0
H3707 H 0.81694 0.62612 0.82125 0.0
H3708 H 0.81659 0.63961 0.84347 0.0
H3709 H 0.72962 0.59074 0.80946 0.0
H3710 H 0.75065 0.58759 0.79626 0.0
H3711 H 0.748 0.57551 0.82023 0.0
H3712 H 0.80836 0.57828 0.77497 0.0
H3713 H 0.80258 0.54678 0.83131 0.0
H3714 H 0.79755 0.62388 0.78986 0.0
H3715 H 0.77554 0.61077 0.77937 0.0
H3716 H 0.79828 0.60937 0.76845 0.0
H3717 H 0.79246 0.58683 0.85865 0.0
H3718 H 0.79186 0.56078 0.85905 0.0
H3719 H 0.7703 0.57262 0.85024 0.0
C3720 C 0.41588 0.71019 0.80967 0.0
C3721 C 0.4114 0.69474 0.8233 0.0
C3722 C 0.43401 0.71263 0.80136 0.0
C3723 C 0.44791 0.69901 0.80647 0.0
C3724 C 0.44236 0.68208 0.81822 0.0
C3725 C 0.42422 0.68023 0.82669 0.0
C3726 C 0.43907 0.73092 0.78899 0.0
C3727 C 0.45632 0.66679 0.82339 0.0
C3728 C 0.49632 0.70964 0.78188 0.0
C3729 C 0.50788 0.72045 0.79663 0.0
C3730 C 0.47707 0.70154 0.78515 0.0
C3731 C 0.4691 0.70468 0.80337 0.0
C3732 C 0.48108 0.71491 0.81851 0.0
C3733 C 0.50022 0.72241 0.81504 0.0
C3734 C 0.46506 0.69031 0.76878 0.0
C3735 C 0.47336 0.71891 0.83812 0.0
H3736 H 0.4058 0.72126 0.80689 0.0
H3737 H 0.42075 0.66823 0.83717 0.0
H3738 H 0.44979 0.74077 0.79806 0.0
H3739 H 0.44605 0.72765 0.77548 0.0
H3740 H 0.42594 0.73867 0.78412 0.0
H3741 H 0.4485 0.65287 0.82847 0.0
H3742 H 0.46428 0.66427 0.81027 0.0
H3743 H 0.4674 0.67174 0.8357 0.0
H3744 H 0.50204 0.70798 0.76762 0.0
H3745 H 0.50897 0.73051 0.82671 0.0
H3746 H 0.45483 0.6998 0.76025 0.0
H3747 H 0.45611 0.67771 0.7752 0.0
H3748 H 0.4745 0.68509 0.75808 0.0
H3749 H 0.46085 0.72789 0.83512 0.0
H3750 H 0.48473 0.72664 0.84857 0.0
H3751 H 0.46786 0.70516 0.84576 0.0
C3752 C 0.36925 0.38874 0.80896 0.0
C3753 C 0.37692 0.39032 0.82907 0.0
C3754 C 0.36486 0.40524 0.79682 0.0
C3755 C 0.36807 0.42385 0.80499 0.0
C3756 C 0.37587 0.42549 0.82532 0.0
C3757 C 0.38024 0.40875 0.83706 0.0
C3758 C 0.35663 0.40272 0.77527 0.0
C3759 C 0.37948 0.44494 0.83474 0.0
C3760 C 0.37192 0.46894 0.76951 0.0
C3761 C 0.35307 0.47524 0.76893 0.0
C3762 C 0.37698 0.45227 0.78105 0.0
C3763 C 0.3629 0.44152 0.79243 0.0
C3764 C 0.34384 0.44773 0.79185 0.0
C3765 C 0.33917 0.46437 0.78014 0.0
C3766 C 0.39745 0.4462 0.78113 0.0
C3767 C 0.32832 0.43676 0.80366 0.0
H3768 H 0.36651 0.37451 0.80281 0.0
H3769 H 0.38636 0.41003 0.85253 0.0
H3770 H 0.34181 0.40794 0.77286 0.0
H3771 H 0.36608 0.41159 0.76505 0.0
H3772 H 0.35548 0.38738 0.77102 0.0
H3773 H 0.38573 0.44381 0.85066 0.0
H3774 H 0.38974 0.45474 0.82617 0.0
H3775 H 0.36551 0.45176 0.8341 0.0
H3776 H 0.38288 0.47719 0.76113 0.0
H3777 H 0.32445 0.46872 0.77963 0.0
H3778 H 0.39674 0.43118 0.77606 0.0
H3779 H 0.4048 0.44627 0.79665 0.0
H3780 H 0.40662 0.45587 0.77126 0.0
H3781 H 0.32554 0.42162 0.79884 0.0
H3782 H 0.31423 0.44348 0.80174 0.0
H3783 H 0.33356 0.43615 0.81988 0.0
C3784 C 0.68734 0.64173 0.18308 0.0
C3785 C 0.69666 0.6603 0.18654 0.0
C3786 C 0.69785 0.62531 0.18547 0.0
C3787 C 0.71834 0.62748 0.19117 0.0
C3788 C 0.72802 0.64638 0.19359 0.0
C3789 C 0.71701 0.66256 0.19141 0.0
C3790 C 0.68684 0.60554 0.18279 0.0
C3791 C 0.74985 0.64944 0.19928 0.0
C3792 C 0.74038 0.5837 0.21823 0.0
C3793 C 0.74754 0.57488 0.20245 0.0
C3794 C 0.73116 0.60097 0.21485 0.0
C3795 C 0.72934 0.60989 0.19527 0.0
C3796 C 0.73713 0.60136 0.17942 0.0
C3797 C 0.74597 0.58396 0.18316 0.0
C3798 C 0.72289 0.6094 0.23215 0.0
C3799 C 0.73588 0.6105 0.15842 0.0
H3800 H 0.67158 0.64006 0.17937 0.0
H3801 H 0.72415 0.67686 0.19444 0.0
H3802 H 0.69349 0.59759 0.17168 0.0
H3803 H 0.68793 0.59695 0.19724 0.0
H3804 H 0.67106 0.60637 0.17769 0.0
H3805 H 0.75546 0.66501 0.19853 0.0
H3806 H 0.75327 0.64355 0.21482 0.0
H3807 H 0.75784 0.64153 0.18922 0.0
H3808 H 0.74148 0.57676 0.23313 0.0
H3809 H 0.7518 0.57749 0.17095 0.0
H3810 H 0.70675 0.60956 0.22895 0.0
H3811 H 0.7292 0.62461 0.23398 0.0
H3812 H 0.72593 0.60105 0.24655 0.0
H3813 H 0.72028 0.61044 0.15232 0.0
H3814 H 0.74374 0.60278 0.14805 0.0
H3815 H 0.7422 0.62584 0.1587 0.0
C3816 C 0.72382 0.39212 0.81468 0.0
C3817 C 0.71347 0.39475 0.83111 0.0
C3818 C 0.73521 0.40763 0.80608 0.0
C3819 C 0.73601 0.42616 0.81412 0.0
C3820 C 0.72669 0.42851 0.83168 0.0
C3821 C 0.71551 0.41264 0.84003 0.0
C3822 C 0.74517 0.40449 0.78757 0.0
C3823 C 0.72727 0.44802 0.8407 0.0
C3824 C 0.77283 0.4659 0.79585 0.0
C3825 C 0.76128 0.47543 0.7807 0.0
C3826 C 0.76482 0.44988 0.80696 0.0
C3827 C 0.74476 0.44333 0.80292 0.0
C3828 C 0.73296 0.45294 0.78779 0.0
C3829 C 0.74139 0.46886 0.77683 0.0
C3830 C 0.77781 0.43993 0.82296 0.0
C3831 C 0.71145 0.44632 0.78307 0.0
H3832 H 0.72211 0.37811 0.80799 0.0
H3833 H 0.70728 0.41446 0.85269 0.0
H3834 H 0.73746 0.41161 0.77428 0.0
H3835 H 0.76058 0.41113 0.78901 0.0
H3836 H 0.74512 0.38886 0.78476 0.0
H3837 H 0.72146 0.4469 0.85567 0.0
H3838 H 0.7425 0.45515 0.84226 0.0
H3839 H 0.71829 0.45753 0.83056 0.0
H3840 H 0.78811 0.47111 0.79929 0.0
H3841 H 0.73246 0.47603 0.76505 0.0
H3842 H 0.77804 0.42452 0.8195 0.0
H3843 H 0.77184 0.44013 0.83773 0.0
H3844 H 0.79315 0.44687 0.82427 0.0
H3845 H 0.70977 0.43122 0.77806 0.0
H3846 H 0.70424 0.45564 0.77116 0.0
H3847 H 0.70363 0.44638 0.79679 0.0
C3848 C 0.69323 0.6791 0.85922 0.0
C3849 C 0.70989 0.68402 0.84886 0.0
C3850 C 0.67607 0.68863 0.85459 0.0
C3851 C 0.67554 0.70353 0.83923 0.0
C3852 C 0.6927 0.70904 0.82932 0.0
C3853 C 0.70965 0.69928 0.83432 0.0
C3854 C 0.65828 0.68234 0.86571 0.0
C3855 C 0.69299 0.72486 0.81298 0.0
C3856 C 0.62575 0.71403 0.81199 0.0
C3857 C 0.62165 0.7307 0.82119 0.0
C3858 C 0.64312 0.70509 0.81771 0.0
C3859 C 0.65691 0.7129 0.83308 0.0
C3860 C 0.65292 0.72971 0.84241 0.0
C3861 C 0.63546 0.73838 0.83637 0.0
C3862 C 0.64669 0.68719 0.80732 0.0
C3863 C 0.66715 0.73863 0.85878 0.0
H3864 H 0.69346 0.6673 0.87047 0.0
H3865 H 0.72264 0.70319 0.82647 0.0
H3866 H 0.65306 0.69499 0.87226 0.0
H3867 H 0.64615 0.67613 0.85507 0.0
H3868 H 0.66136 0.67133 0.87796 0.0
H3869 H 0.70772 0.72807 0.8074 0.0
H3870 H 0.68224 0.7205 0.80017 0.0
H3871 H 0.68852 0.73833 0.8186 0.0
H3872 H 0.61525 0.70774 0.80045 0.0
H3873 H 0.63278 0.75137 0.84346 0.0
H3874 H 0.64819 0.67494 0.8185 0.0
H3875 H 0.66066 0.68973 0.80016 0.0
H3876 H 0.63464 0.68292 0.79563 0.0
H3877 H 0.66961 0.72783 0.87136 0.0
H3878 H 0.66184 0.75156 0.86475 0.0
H3879 H 0.68157 0.74295 0.85292 0.0
C3880 C 0.37215 0.6642 0.80912 0.0
C3881 C 0.3764 0.6645 0.82998 0.0
C3882 C 0.36486 0.64688 0.79975 0.0
C3883 C 0.36185 0.62942 0.81155 0.0
C3884 C 0.36666 0.62965 0.83261 0.0
C3885 C 0.37384 0.64717 0.84154 0.0
C3886 C 0.36003 0.64733 0.77726 0.0
C3887 C 0.36401 0.61143 0.84577 0.0
C3888 C 0.32714 0.58782 0.78879 0.0
C3889 C 0.34039 0.57667 0.78118 0.0
C3890 C 0.33389 0.60489 0.79898 0.0
C3891 C 0.35434 0.61082 0.80178 0.0
C3892 C 0.36773 0.59911 0.79485 0.0
C3893 C 0.36061 0.58232 0.78462 0.0
C3894 C 0.31911 0.61696 0.80612 0.0
C3895 C 0.38963 0.60462 0.79771 0.0
H3896 H 0.37392 0.67766 0.80025 0.0
H3897 H 0.37719 0.64747 0.85768 0.0
H3898 H 0.3687 0.63721 0.77044 0.0
H3899 H 0.34428 0.64238 0.7736 0.0
H3900 H 0.36312 0.66203 0.77024 0.0
H3901 H 0.36854 0.61402 0.86187 0.0
H3902 H 0.34839 0.6054 0.84426 0.0
H3903 H 0.37276 0.60028 0.84086 0.0
H3904 H 0.31151 0.5837 0.78602 0.0
H3905 H 0.37099 0.57376 0.77888 0.0
H3906 H 0.31996 0.63133 0.79802 0.0
H3907 H 0.32255 0.61951 0.82236 0.0
H3908 H 0.30384 0.61 0.80364 0.0
H3909 H 0.39334 0.61855 0.7894 0.0
H3910 H 0.39813 0.59348 0.79232 0.0
H3911 H 0.3944 0.60677 0.81382 0.0
C3912 C 0.42015 0.32708 0.86751 0.0
C3913 C 0.40386 0.32844 0.85339 0.0
C3914 C 0.43385 0.31361 0.86558 0.0
C3915 C 0.43115 0.30121 0.84913 0.0
C3916 C 0.41394 0.30173 0.83564 0.0
C3917 C 0.40057 0.31533 0.83794 0.0
C3918 C 0.45185 0.31355 0.88041 0.0
C3919 C 0.41026 0.28881 0.81797 0.0
C3920 C 0.47588 0.2853 0.82711 0.0
C3921 C 0.47608 0.2659 0.83419 0.0
C3922 C 0.46165 0.29694 0.83221 0.0
C3923 C 0.44708 0.28914 0.84477 0.0
C3924 C 0.44738 0.2697 0.85231 0.0
C3925 C 0.46183 0.25835 0.84697 0.0
C3926 C 0.46205 0.31759 0.82386 0.0
C3927 C 0.43216 0.26075 0.86568 0.0
H3928 H 0.42281 0.33738 0.8793 0.0
H3929 H 0.38799 0.31647 0.82699 0.0
H3930 H 0.45441 0.29852 0.88564 0.0
H3931 H 0.46492 0.31979 0.87294 0.0
H3932 H 0.45059 0.32215 0.89367 0.0
H3933 H 0.39531 0.28951 0.81015 0.0
H3934 H 0.42118 0.29328 0.80703 0.0
H3935 H 0.41211 0.27356 0.82292 0.0
H3936 H 0.48695 0.29149 0.81758 0.0
H3937 H 0.46165 0.2434 0.85243 0.0
H3938 H 0.46294 0.32767 0.83629 0.0
H3939 H 0.44824 0.31959 0.81424 0.0
H3940 H 0.47464 0.32169 0.81478 0.0
H3941 H 0.43178 0.26983 0.87875 0.0
H3942 H 0.43501 0.24586 0.87127 0.0
H3943 H 0.41739 0.26013 0.85726 0.0
C3944 C 0.37891 0.3951 0.20571 0.0
C3945 C 0.38589 0.38025 0.21863 0.0
C3946 C 0.37171 0.41128 0.21323 0.0
C3947 C 0.37214 0.41311 0.23428 0.0
C3948 C 0.37934 0.39823 0.24741 0.0
C3949 C 0.38572 0.38185 0.23943 0.0
C3950 C 0.36363 0.42644 0.1986 0.0
C3951 C 0.38061 0.39974 0.26992 0.0
C3952 C 0.37054 0.46469 0.25094 0.0
C3953 C 0.35097 0.46455 0.25524 0.0
C3954 C 0.37785 0.44785 0.245 0.0
C3955 C 0.36508 0.4306 0.24247 0.0
C3956 C 0.34535 0.43035 0.24704 0.0
C3957 C 0.33864 0.44719 0.25369 0.0
C3958 C 0.39915 0.44864 0.24103 0.0
C3959 C 0.33102 0.41256 0.24398 0.0
H3960 H 0.37925 0.39413 0.18966 0.0
H3961 H 0.39073 0.37028 0.2495 0.0
H3962 H 0.34859 0.42888 0.20189 0.0
H3963 H 0.37287 0.44041 0.20028 0.0
H3964 H 0.3631 0.42227 0.18275 0.0
H3965 H 0.38733 0.38735 0.27808 0.0
H3966 H 0.38947 0.41336 0.27435 0.0
H3967 H 0.36574 0.40031 0.27482 0.0
H3968 H 0.38013 0.47806 0.25207 0.0
H3969 H 0.3234 0.44703 0.25664 0.0
H3970 H 0.40025 0.4471 0.22479 0.0
H3971 H 0.4061 0.43643 0.24925 0.0
H3972 H 0.40759 0.46245 0.24561 0.0
H3973 H 0.32932 0.40911 0.22786 0.0
H3974 H 0.31632 0.41451 0.24869 0.0
H3975 H 0.33668 0.39989 0.25257 0.0
C3976 C 0.69048 0.32227 0.20051 0.0
C3977 C 0.68708 0.34161 0.19595 0.0
C3978 C 0.67547 0.30861 0.20666 0.0
C3979 C 0.65654 0.31446 0.20824 0.0
C3980 C 0.65315 0.33412 0.20393 0.0
C3981 C 0.66847 0.34744 0.19776 0.0
C3982 C 0.67977 0.28786 0.21108 0.0
C3983 C 0.63325 0.341 0.20545 0.0
C3984 C 0.61264 0.27596 0.20524 0.0
C3985 C 0.60932 0.27252 0.22554 0.0
C3986 C 0.62792 0.28953 0.1994 0.0
C3987 C 0.64026 0.29996 0.21419 0.0
C3988 C 0.6371 0.29644 0.2347 0.0
C3989 C 0.62175 0.2828 0.2401 0.0
C3990 C 0.63078 0.29282 0.17737 0.0
C3991 C 0.64995 0.30711 0.25097 0.0
H3992 H 0.70488 0.31782 0.19887 0.0
H3993 H 0.66583 0.36235 0.19384 0.0
H3994 H 0.6763 0.28315 0.22653 0.0
H3995 H 0.67029 0.27828 0.2006 0.0
H3996 H 0.69537 0.28577 0.20962 0.0
H3997 H 0.63317 0.35684 0.20218 0.0
H3998 H 0.62217 0.33331 0.19472 0.0
H3999 H 0.62861 0.33753 0.22075 0.0
H4000 H 0.60306 0.26829 0.19384 0.0
H4001 H 0.61962 0.28005 0.25584 0.0
H4002 H 0.64585 0.28992 0.17466 0.0
H4003 H 0.62917 0.30818 0.17268 0.0
H4004 H 0.62009 0.28345 0.16773 0.0
H4005 H 0.66548 0.30428 0.25044 0.0
H4006 H 0.64553 0.3028 0.26622 0.0
H4007 H 0.64925 0.32295 0.24844 0.0
C4008 C 0.36578 0.69877 0.19056 0.0
C4009 C 0.36693 0.68554 0.1758 0.0
C4010 C 0.38216 0.7043 0.20392 0.0
C4011 C 0.40013 0.69641 0.20236 0.0
C4012 C 0.4011 0.68241 0.18794 0.0
C4013 C 0.3844 0.67709 0.17483 0.0
C4014 C 0.38041 0.71906 0.21924 0.0
C4015 C 0.41996 0.67366 0.18581 0.0
C4016 C 0.44646 0.72681 0.22228 0.0
C4017 C 0.45071 0.71771 0.24117 0.0
C4018 C 0.43027 0.71977 0.2093 0.0
C4019 C 0.41799 0.70332 0.21543 0.0
C4020 C 0.42237 0.69392 0.23435 0.0
C4021 C 0.43868 0.70119 0.24695 0.0
C4022 C 0.42611 0.73011 0.18916 0.0
C4023 C 0.40958 0.67642 0.24147 0.0
H4024 H 0.35214 0.7052 0.19118 0.0
H4025 H 0.38519 0.667 0.1632 0.0
H4026 H 0.38534 0.71342 0.23452 0.0
H4027 H 0.3901 0.73242 0.21606 0.0
H4028 H 0.36513 0.72297 0.2192 0.0
H4029 H 0.41794 0.66211 0.17472 0.0
H4030 H 0.43116 0.68511 0.18092 0.0
H4031 H 0.42585 0.66745 0.20051 0.0
H4032 H 0.4557 0.73953 0.21767 0.0
H4033 H 0.44182 0.69402 0.26152 0.0
H4034 H 0.41163 0.736 0.18839 0.0
H4035 H 0.42534 0.71978 0.17696 0.0
H4036 H 0.43748 0.74223 0.1863 0.0
H4037 H 0.39453 0.6804 0.24271 0.0
H4038 H 0.4154 0.67035 0.25629 0.0
H4039 H 0.40832 0.66494 0.23038 0.0
loop_
_geom_bond_atom_site_label_1
_geom_bond_atom_site_label_2
_geom_bond_distance
_geom_bond_site_symmetry_2
_ccdc_geom_bond_type
C0 N1 1.317 . S
C0 N2 1.348 . S
C0 C3 1.485 . S
N1 C0 1.317 . S
N1 N5 1.370 . S
N2 C0 1.348 . S
N2 C4 1.346 . S
C3 C0 1.485 . S
C3 H7 0.960 . S
C3 H8 0.961 . S
C3 H9 0.960 . S
C4 N2 1.346 . S
C4 N5 1.307 . S
C4 C6 1.486 . S
N5 N1 1.370 . S
N5 C4 1.307 . S
C6 C4 1.486 . S
C6 H10 0.960 . S
C6 H11 0.960 . S
C6 H12 0.959 . S
H7 C3 0.960 . S
H8 C3 0.961 . S
H9 C3 0.960 . S
H10 C6 0.960 . S
H11 C6 0.960 . S
H12 C6 0.959 . S
C13 N14 1.317 . S
C13 N15 1.348 . S
C13 C16 1.485 . S
N14 C13 1.317 . S
N14 N18 1.370 . S
N15 C13 1.348 . S
N15 C17 1.346 . S
C16 C13 1.485 . S
C16 H20 0.960 . S
C16 H21 0.961 . S
C16 H22 0.960 . S
C17 N15 1.346 . S
C17 N18 1.307 . S
C17 C19 1.486 . S
N18 N14 1.370 . S
N18 C17 1.307 . S
C19 C17 1.486 . S
C19 H23 0.960 . S
C19 H24 0.960 . S
C19 H25 0.959 . S
H20 C16 0.960 . S
H21 C16 0.961 . S
H22 C16 0.960 . S
H23 C19 0.960 . S
H24 C19 0.960 . S
H25 C19 0.959 . S
C26 N27 1.317 . S
C26 N28 1.348 . S
C26 C29 1.485 . S
N27 C26 1.317 . S
N27 N31 1.370 . S
N28 C26 1.348 . S
N28 C30 1.346 . S
C29 C26 1.485 . S
C29 H33 0.960 . S
C29 H34 0.961 . S
C29 H35 0.960 . S
C30 N28 1.346 . S
C30 N31 1.307 . S
C30 C32 1.486 . S
N31 N27 1.370 . S
N31 C30 1.307 . S
C32 C30 1.486 . S
C32 H36 0.960 . S
C32 H37 0.960 . S
C32 H38 0.959 . S
H33 C29 0.960 . S
H34 C29 0.961 . S
H35 C29 0.960 . S
H36 C32 0.960 . S
H37 C32 0.960 . S
H38 C32 0.959 . S
C39 N40 1.317 . S
C39 N41 1.348 . S
C39 C42 1.485 . S
N40 C39 1.317 . S
N40 N44 1.370 . S
N41 C39 1.348 . S
N41 C43 1.346 . S
C42 C39 1.485 . S
C42 H46 0.960 . S
C42 H47 0.961 . S
C42 H48 0.960 . S
C43 N41 1.346 . S
C43 N44 1.307 . S
C43 C45 1.486 . S
N44 N40 1.370 . S
N44 C43 1.307 . S
C45 C43 1.486 . S
C45 H49 0.960 . S
C45 H50 0.960 . S
C45 H51 0.959 . S
H46 C42 0.960 . S
H47 C42 0.961 . S
H48 C42 0.960 . S
H49 C45 0.960 . S
H50 C45 0.960 . S
H51 C45 0.959 . S
C52 N53 1.317 . S
C52 N54 1.348 . S
C52 C55 1.485 . S
N53 C52 1.317 . S
N53 N57 1.370 . S
N54 C52 1.348 . S
N54 C56 1.346 . S
C55 C52 1.485 . S
C55 H59 0.960 . S
C55 H60 0.961 . S
C55 H61 0.960 . S
C56 N54 1.346 . S
C56 N57 1.307 . S
C56 C58 1.486 . S
N57 N53 1.370 . S
N57 C56 1.307 . S
C58 C56 1.486 . S
C58 H62 0.960 . S
C58 H63 0.960 . S
C58 H64 0.959 . S
H59 C55 0.960 . S
H60 C55 0.961 . S
H61 C55 0.960 . S
H62 C58 0.960 . S
H63 C58 0.960 . S
H64 C58 0.959 . S
C65 N66 1.317 . S
C65 N67 1.348 . S
C65 C68 1.485 . S
N66 C65 1.317 . S
N66 N70 1.370 . S
N67 C65 1.348 . S
N67 C69 1.346 . S
C68 C65 1.485 . S
C68 H72 0.960 . S
C68 H73 0.961 . S
C68 H74 0.960 . S
C69 N67 1.346 . S
C69 N70 1.307 . S
C69 C71 1.486 . S
N70 N66 1.370 . S
N70 C69 1.307 . S
C71 C69 1.486 . S
C71 H75 0.960 . S
C71 H76 0.960 . S
C71 H77 0.959 . S
H72 C68 0.960 . S
H73 C68 0.961 . S
H74 C68 0.960 . S
H75 C71 0.960 . S
H76 C71 0.960 . S
H77 C71 0.959 . S
C78 N79 1.317 . S
C78 N80 1.348 . S
C78 C81 1.485 . S
N79 C78 1.317 . S
N79 N83 1.370 . S
N80 C78 1.348 . S
N80 C82 1.346 . S
C81 C78 1.485 . S
C81 H85 0.960 . S
C81 H86 0.961 . S
C81 H87 0.960 . S
C82 N80 1.346 . S
C82 N83 1.307 . S
C82 C84 1.486 . S
N83 N79 1.370 . S
N83 C82 1.307 . S
C84 C82 1.486 . S
C84 H88 0.960 . S
C84 H89 0.960 . S
C84 H90 0.959 . S
H85 C81 0.960 . S
H86 C81 0.961 . S
H87 C81 0.960 . S
H88 C84 0.960 . S
H89 C84 0.960 . S
H90 C84 0.959 . S
C91 N92 1.317 . S
C91 N93 1.348 . S
C91 C94 1.485 . S
N92 C91 1.317 . S
N92 N96 1.370 . S
N93 C91 1.348 . S
N93 C95 1.346 . S
C94 C91 1.485 . S
C94 H98 0.960 . S
C94 H99 0.961 . S
C94 H100 0.960 . S
C95 N93 1.346 . S
C95 N96 1.307 . S
C95 C97 1.486 . S
N96 N92 1.370 . S
N96 C95 1.307 . S
C97 C95 1.486 . S
C97 H101 0.960 . S
C97 H102 0.960 . S
C97 H103 0.959 . S
H98 C94 0.960 . S
H99 C94 0.961 . S
H100 C94 0.960 . S
H101 C97 0.960 . S
H102 C97 0.960 . S
H103 C97 0.959 . S
C104 N105 1.317 . S
C104 N106 1.348 . S
C104 C107 1.485 . S
N105 C104 1.317 . S
N105 N109 1.370 . S
N106 C104 1.348 . S
N106 C108 1.346 . S
C107 C104 1.485 . S
C107 H111 0.960 . S
C107 H112 0.961 . S
C107 H113 0.960 . S
C108 N106 1.346 . S
C108 N109 1.307 . S
C108 C110 1.486 . S
N109 N105 1.370 . S
N109 C108 1.307 . S
C110 C108 1.486 . S
C110 H114 0.960 . S
C110 H115 0.960 . S
C110 H116 0.959 . S
H111 C107 0.960 . S
H112 C107 0.961 . S
H113 C107 0.960 . S
H114 C110 0.960 . S
H115 C110 0.960 . S
H116 C110 0.959 . S
C117 N118 1.317 . S
C117 N119 1.348 . S
C117 C120 1.485 . S
N118 C117 1.317 . S
N118 N122 1.370 . S
N119 C117 1.348 . S
N119 C121 1.346 . S
C120 C117 1.485 . S
C120 H124 0.960 . S
C120 H125 0.961 . S
C120 H126 0.960 . S
C121 N119 1.346 . S
C121 N122 1.307 . S
C121 C123 1.486 . S
N122 N118 1.370 . S
N122 C121 1.307 . S
C123 C121 1.486 . S
C123 H127 0.960 . S
C123 H128 0.960 . S
C123 H129 0.959 . S
H124 C120 0.960 . S
H125 C120 0.961 . S
H126 C120 0.960 . S
H127 C123 0.960 . S
H128 C123 0.960 . S
H129 C123 0.959 . S
C130 N131 1.317 . S
C130 N132 1.348 . S
C130 C133 1.485 . S
N131 C130 1.317 . S
N131 N135 1.370 . S
N132 C130 1.348 . S
N132 C134 1.346 . S
C133 C130 1.485 . S
C133 H137 0.960 . S
C133 H138 0.961 . S
C133 H139 0.960 . S
C134 N132 1.346 . S
C134 N135 1.307 . S
C134 C136 1.486 . S
N135 N131 1.370 . S
N135 C134 1.307 . S
C136 C134 1.486 . S
C136 H140 0.960 . S
C136 H141 0.960 . S
C136 H142 0.959 . S
H137 C133 0.960 . S
H138 C133 0.961 . S
H139 C133 0.960 . S
H140 C136 0.960 . S
H141 C136 0.960 . S
H142 C136 0.959 . S
C143 N144 1.317 . S
C143 N145 1.348 . S
C143 C146 1.485 . S
N144 C143 1.317 . S
N144 N148 1.370 . S
N145 C143 1.348 . S
N145 C147 1.346 . S
C146 C143 1.485 . S
C146 H150 0.960 . S
C146 H151 0.961 . S
C146 H152 0.960 . S
C147 N145 1.346 . S
C147 N148 1.307 . S
C147 C149 1.486 . S
N148 N144 1.370 . S
N148 C147 1.307 . S
C149 C147 1.486 . S
C149 H153 0.960 . S
C149 H154 0.960 . S
C149 H155 0.959 . S
H150 C146 0.960 . S
H151 C146 0.961 . S
H152 C146 0.960 . S
H153 C149 0.960 . S
H154 C149 0.960 . S
H155 C149 0.959 . S
C156 N157 1.317 . S
C156 N158 1.348 . S
C156 C159 1.485 . S
N157 C156 1.317 . S
N157 N161 1.370 . S
N158 C156 1.348 . S
N158 C160 1.346 . S
C159 C156 1.485 . S
C159 H163 0.960 . S
C159 H164 0.961 . S
C159 H165 0.960 . S
C160 N158 1.346 . S
C160 N161 1.307 . S
C160 C162 1.486 . S
N161 N157 1.370 . S
N161 C160 1.307 . S
C162 C160 1.486 . S
C162 H166 0.960 . S
C162 H167 0.960 . S
C162 H168 0.959 . S
H163 C159 0.960 . S
H164 C159 0.961 . S
H165 C159 0.960 . S
H166 C162 0.960 . S
H167 C162 0.960 . S
H168 C162 0.959 . S
C169 N170 1.317 . S
C169 N171 1.348 . S
C169 C172 1.485 . S
N170 C169 1.317 . S
N170 N174 1.370 . S
N171 C169 1.348 . S
N171 C173 1.346 . S
C172 C169 1.485 . S
C172 H176 0.960 . S
C172 H177 0.961 . S
C172 H178 0.960 . S
C173 N171 1.346 . S
C173 N174 1.307 . S
C173 C175 1.486 . S
N174 N170 1.370 . S
N174 C173 1.307 . S
C175 C173 1.486 . S
C175 H179 0.960 . S
C175 H180 0.960 . S
C175 H181 0.959 . S
H176 C172 0.960 . S
H177 C172 0.961 . S
H178 C172 0.960 . S
H179 C175 0.960 . S
H180 C175 0.960 . S
H181 C175 0.959 . S
C182 N183 1.317 . S
C182 N184 1.348 . S
C182 C185 1.485 . S
N183 C182 1.317 . S
N183 N187 1.370 . S
N184 C182 1.348 . S
N184 C186 1.346 . S
C185 C182 1.485 . S
C185 H189 0.960 . S
C185 H190 0.961 . S
C185 H191 0.960 . S
C186 N184 1.346 . S
C186 N187 1.307 . S
C186 C188 1.486 . S
N187 N183 1.370 . S
N187 C186 1.307 . S
C188 C186 1.486 . S
C188 H192 0.960 . S
C188 H193 0.960 . S
C188 H194 0.959 . S
H189 C185 0.960 . S
H190 C185 0.961 . S
H191 C185 0.960 . S
H192 C188 0.960 . S
H193 C188 0.960 . S
H194 C188 0.959 . S
C195 N196 1.317 . S
C195 N197 1.348 . S
C195 C198 1.485 . S
N196 C195 1.317 . S
N196 N200 1.370 . S
N197 C195 1.348 . S
N197 C199 1.346 . S
C198 C195 1.485 . S
C198 H202 0.960 . S
C198 H203 0.961 . S
C198 H204 0.960 . S
C199 N197 1.346 . S
C199 N200 1.307 . S
C199 C201 1.486 . S
N200 N196 1.370 . S
N200 C199 1.307 . S
C201 C199 1.486 . S
C201 H205 0.960 . S
C201 H206 0.960 . S
C201 H207 0.959 . S
H202 C198 0.960 . S
H203 C198 0.961 . S
H204 C198 0.960 . S
H205 C201 0.960 . S
H206 C201 0.960 . S
H207 C201 0.959 . S
C208 N209 1.317 . S
C208 N210 1.348 . S
C208 C211 1.485 . S
N209 C208 1.317 . S
N209 N213 1.370 . S
N210 C208 1.348 . S
N210 C212 1.346 . S
C211 C208 1.485 . S
C211 H215 0.960 . S
C211 H216 0.961 . S
C211 H217 0.960 . S
C212 N210 1.346 . S
C212 N213 1.307 . S
C212 C214 1.486 . S
N213 N209 1.370 . S
N213 C212 1.307 . S
C214 C212 1.486 . S
C214 H218 0.960 . S
C214 H219 0.960 . S
C214 H220 0.959 . S
H215 C211 0.960 . S
H216 C211 0.961 . S
H217 C211 0.960 . S
H218 C214 0.960 . S
H219 C214 0.960 . S
H220 C214 0.959 . S
C221 N222 1.317 . S
C221 N223 1.348 . S
C221 C224 1.485 . S
N222 C221 1.317 . S
N222 N226 1.370 . S
N223 C221 1.348 . S
N223 C225 1.346 . S
C224 C221 1.485 . S
C224 H228 0.960 . S
C224 H229 0.961 . S
C224 H230 0.960 . S
C225 N223 1.346 . S
C225 N226 1.307 . S
C225 C227 1.486 . S
N226 N222 1.370 . S
N226 C225 1.307 . S
C227 C225 1.486 . S
C227 H231 0.960 . S
C227 H232 0.960 . S
C227 H233 0.959 . S
H228 C224 0.960 . S
H229 C224 0.961 . S
H230 C224 0.960 . S
H231 C227 0.960 . S
H232 C227 0.960 . S
H233 C227 0.959 . S
C234 N235 1.317 . S
C234 N236 1.348 . S
C234 C237 1.485 . S
N235 C234 1.317 . S
N235 N239 1.370 . S
N236 C234 1.348 . S
N236 C238 1.346 . S
C237 C234 1.485 . S
C237 H241 0.960 . S
C237 H242 0.961 . S
C237 H243 0.960 . S
C238 N236 1.346 . S
C238 N239 1.307 . S
C238 C240 1.486 . S
N239 N235 1.370 . S
N239 C238 1.307 . S
C240 C238 1.486 . S
C240 H244 0.960 . S
C240 H245 0.960 . S
C240 H246 0.959 . S
H241 C237 0.960 . S
H242 C237 0.961 . S
H243 C237 0.960 . S
H244 C240 0.960 . S
H245 C240 0.960 . S
H246 C240 0.959 . S
C247 N248 1.317 . S
C247 N249 1.348 . S
C247 C250 1.485 . S
N248 C247 1.317 . S
N248 N252 1.370 . S
N249 C247 1.348 . S
N249 C251 1.346 . S
C250 C247 1.485 . S
C250 H254 0.960 . S
C250 H255 0.961 . S
C250 H256 0.960 . S
C251 N249 1.346 . S
C251 N252 1.307 . S
C251 C253 1.486 . S
N252 N248 1.370 . S
N252 C251 1.307 . S
C253 C251 1.486 . S
C253 H257 0.960 . S
C253 H258 0.960 . S
C253 H259 0.959 . S
H254 C250 0.960 . S
H255 C250 0.961 . S
H256 C250 0.960 . S
H257 C253 0.960 . S
H258 C253 0.960 . S
H259 C253 0.959 . S
C260 N261 1.317 . S
C260 N262 1.348 . S
C260 C263 1.485 . S
N261 C260 1.317 . S
N261 N265 1.370 . S
N262 C260 1.348 . S
N262 C264 1.346 . S
C263 C260 1.485 . S
C263 H267 0.960 . S
C263 H268 0.961 . S
C263 H269 0.960 . S
C264 N262 1.346 . S
C264 N265 1.307 . S
C264 C266 1.486 . S
N265 N261 1.370 . S
N265 C264 1.307 . S
C266 C264 1.486 . S
C266 H270 0.960 . S
C266 H271 0.960 . S
C266 H272 0.959 . S
H267 C263 0.960 . S
H268 C263 0.961 . S
H269 C263 0.960 . S
H270 C266 0.960 . S
H271 C266 0.960 . S
H272 C266 0.959 . S
C273 N274 1.317 . S
C273 N275 1.348 . S
C273 C276 1.485 . S
N274 C273 1.317 . S
N274 N278 1.370 . S
N275 C273 1.348 . S
N275 C277 1.346 . S
C276 C273 1.485 . S
C276 H280 0.960 . S
C276 H281 0.961 . S
C276 H282 0.960 . S
C277 N275 1.346 . S
C277 N278 1.307 . S
C277 C279 1.486 . S
N278 N274 1.370 . S
N278 C277 1.307 . S
C279 C277 1.486 . S
C279 H283 0.960 . S
C279 H284 0.960 . S
C279 H285 0.959 . S
H280 C276 0.960 . S
H281 C276 0.961 . S
H282 C276 0.960 . S
H283 C279 0.960 . S
H284 C279 0.960 . S
H285 C279 0.959 . S
C286 N287 1.317 . S
C286 N288 1.348 . S
C286 C289 1.485 . S
N287 C286 1.317 . S
N287 N291 1.370 . S
N288 C286 1.348 . S
N288 C290 1.346 . S
C289 C286 1.485 . S
C289 H293 0.960 . S
C289 H294 0.961 . S
C289 H295 0.960 . S
C290 N288 1.346 . S
C290 N291 1.307 . S
C290 C292 1.486 . S
N291 N287 1.370 . S
N291 C290 1.307 . S
C292 C290 1.486 . S
C292 H296 0.960 . S
C292 H297 0.960 . S
C292 H298 0.959 . S
H293 C289 0.960 . S
H294 C289 0.961 . S
H295 C289 0.960 . S
H296 C292 0.960 . S
H297 C292 0.960 . S
H298 C292 0.959 . S
C299 N300 1.317 . S
C299 N301 1.348 . S
C299 C302 1.485 . S
N300 C299 1.317 . S
N300 N304 1.370 . S
N301 C299 1.348 . S
N301 C303 1.346 . S
C302 C299 1.485 . S
C302 H306 0.960 . S
C302 H307 0.961 . S
C302 H308 0.960 . S
C303 N301 1.346 . S
C303 N304 1.307 . S
C303 C305 1.486 . S
N304 N300 1.370 . S
N304 C303 1.307 . S
C305 C303 1.486 . S
C305 H309 0.960 . S
C305 H310 0.960 . S
C305 H311 0.959 . S
H306 C302 0.960 . S
H307 C302 0.961 . S
H308 C302 0.960 . S
H309 C305 0.960 . S
H310 C305 0.960 . S
H311 C305 0.959 . S
C312 N313 1.317 . S
C312 N314 1.348 . S
C312 C315 1.485 . S
N313 C312 1.317 . S
N313 N317 1.370 . S
N314 C312 1.348 . S
N314 C316 1.346 . S
C315 C312 1.485 . S
C315 H319 0.960 . S
C315 H320 0.961 . S
C315 H321 0.960 . S
C316 N314 1.346 . S
C316 N317 1.307 . S
C316 C318 1.486 . S
N317 N313 1.370 . S
N317 C316 1.307 . S
C318 C316 1.486 . S
C318 H322 0.960 . S
C318 H323 0.960 . S
C318 H324 0.959 . S
H319 C315 0.960 . S
H320 C315 0.961 . S
H321 C315 0.960 . S
H322 C318 0.960 . S
H323 C318 0.960 . S
H324 C318 0.959 . S
C325 N326 1.317 . S
C325 N327 1.348 . S
C325 C328 1.485 . S
N326 C325 1.317 . S
N326 N330 1.370 . S
N327 C325 1.348 . S
N327 C329 1.346 . S
C328 C325 1.485 . S
C328 H332 0.960 . S
C328 H333 0.961 . S
C328 H334 0.960 . S
C329 N327 1.346 . S
C329 N330 1.307 . S
C329 C331 1.486 . S
N330 N326 1.370 . S
N330 C329 1.307 . S
C331 C329 1.486 . S
C331 H335 0.960 . S
C331 H336 0.960 . S
C331 H337 0.959 . S
H332 C328 0.960 . S
H333 C328 0.961 . S
H334 C328 0.960 . S
H335 C331 0.960 . S
H336 C331 0.960 . S
H337 C331 0.959 . S
C338 N339 1.317 . S
C338 N340 1.348 . S
C338 C341 1.485 . S
N339 C338 1.317 . S
N339 N343 1.370 . S
N340 C338 1.348 . S
N340 C342 1.346 . S
C341 C338 1.485 . S
C341 H345 0.960 . S
C341 H346 0.961 . S
C341 H347 0.960 . S
C342 N340 1.346 . S
C342 N343 1.307 . S
C342 C344 1.486 . S
N343 N339 1.370 . S
N343 C342 1.307 . S
C344 C342 1.486 . S
C344 H348 0.960 . S
C344 H349 0.960 . S
C344 H350 0.959 . S
H345 C341 0.960 . S
H346 C341 0.961 . S
H347 C341 0.960 . S
H348 C344 0.960 . S
H349 C344 0.960 . S
H350 C344 0.959 . S
C351 N352 1.317 . S
C351 N353 1.348 . S
C351 C354 1.485 . S
N352 C351 1.317 . S
N352 N356 1.370 . S
N353 C351 1.348 . S
N353 C355 1.346 . S
C354 C351 1.485 . S
C354 H358 0.960 . S
C354 H359 0.961 . S
C354 H360 0.960 . S
C355 N353 1.346 . S
C355 N356 1.307 . S
C355 C357 1.486 . S
N356 N352 1.370 . S
N356 C355 1.307 . S
C357 C355 1.486 . S
C357 H361 0.960 . S
C357 H362 0.960 . S
C357 H363 0.959 . S
H358 C354 0.960 . S
H359 C354 0.961 . S
H360 C354 0.960 . S
H361 C357 0.960 . S
H362 C357 0.960 . S
H363 C357 0.959 . S
C364 N365 1.317 . S
C364 N366 1.348 . S
C364 C367 1.485 . S
N365 C364 1.317 . S
N365 N369 1.370 . S
N366 C364 1.348 . S
N366 C368 1.346 . S
C367 C364 1.485 . S
C367 H371 0.960 . S
C367 H372 0.961 . S
C367 H373 0.960 . S
C368 N366 1.346 . S
C368 N369 1.307 . S
C368 C370 1.486 . S
N369 N365 1.370 . S
N369 C368 1.307 . S
C370 C368 1.486 . S
C370 H374 0.960 . S
C370 H375 0.960 . S
C370 H376 0.959 . S
H371 C367 0.960 . S
H372 C367 0.961 . S
H373 C367 0.960 . S
H374 C370 0.960 . S
H375 C370 0.960 . S
H376 C370 0.959 . S
C377 N378 1.317 . S
C377 N379 1.348 . S
C377 C380 1.485 . S
N378 C377 1.317 . S
N378 N382 1.370 . S
N379 C377 1.348 . S
N379 C381 1.346 . S
C380 C377 1.485 . S
C380 H384 0.960 . S
C380 H385 0.961 . S
C380 H386 0.960 . S
C381 N379 1.346 . S
C381 N382 1.307 . S
C381 C383 1.486 . S
N382 N378 1.370 . S
N382 C381 1.307 . S
C383 C381 1.486 . S
C383 H387 0.960 . S
C383 H388 0.960 . S
C383 H389 0.959 . S
H384 C380 0.960 . S
H385 C380 0.961 . S
H386 C380 0.960 . S
H387 C383 0.960 . S
H388 C383 0.960 . S
H389 C383 0.959 . S
C390 N391 1.317 . S
C390 N392 1.348 . S
C390 C393 1.485 . S
N391 C390 1.317 . S
N391 N395 1.370 . S
N392 C390 1.348 . S
N392 C394 1.346 . S
C393 C390 1.485 . S
C393 H397 0.960 . S
C393 H398 0.961 . S
C393 H399 0.960 . S
C394 N392 1.346 . S
C394 N395 1.307 . S
C394 C396 1.486 . S
N395 N391 1.370 . S
N395 C394 1.307 . S
C396 C394 1.486 . S
C396 H400 0.960 . S
C396 H401 0.960 . S
C396 H402 0.959 . S
H397 C393 0.960 . S
H398 C393 0.961 . S
H399 C393 0.960 . S
H400 C396 0.960 . S
H401 C396 0.960 . S
H402 C396 0.959 . S
C403 N404 1.317 . S
C403 N405 1.348 . S
C403 C406 1.485 . S
N404 C403 1.317 . S
N404 N408 1.370 . S
N405 C403 1.348 . S
N405 C407 1.346 . S
C406 C403 1.485 . S
C406 H410 0.960 . S
C406 H411 0.961 . S
C406 H412 0.960 . S
C407 N405 1.346 . S
C407 N408 1.307 . S
C407 C409 1.486 . S
N408 N404 1.370 . S
N408 C407 1.307 . S
C409 C407 1.486 . S
C409 H413 0.960 . S
C409 H414 0.960 . S
C409 H415 0.959 . S
H410 C406 0.960 . S
H411 C406 0.961 . S
H412 C406 0.960 . S
H413 C409 0.960 . S
H414 C409 0.960 . S
H415 C409 0.959 . S
Cu416 N417 1.999 . S
Cu416 O422 1.974 1_554 S
Cu416 N427 1.985 . S
Cu416 O436 1.959 . S
N417 Cu416 1.999 . S
N417 C419 1.263 1_554 S
N417 C421 1.389 . S
N418 C419 1.358 . S
N418 C420 1.400 . S
C419 N417 1.263 1_556 S
C419 N418 1.358 . S
C419 H425 0.930 . S
C420 N418 1.400 . S
C420 C421 1.351 1_556 S
C420 H437 0.930 . S
C421 N417 1.389 . S
C421 C420 1.351 1_554 S
C421 H426 0.930 . S
O422 Cu416 1.974 1_556 S
O422 C432 1.282 . S
C423 O424 1.261 . S
C423 O436 1.251 . S
O424 C423 1.261 . S
H425 C419 0.930 . S
H426 C421 0.930 . S
N427 Cu416 1.985 . S
N427 C429 1.335 . S
N427 C430 1.390 . S
N428 C429 1.345 . S
N428 C431 1.336 . S
C429 N427 1.335 . S
C429 N428 1.345 . S
C429 H434 0.930 . S
C430 N427 1.390 . S
C430 C431 1.346 . S
C430 H435 0.930 . S
C431 N428 1.336 . S
C431 C430 1.346 . S
C431 H438 0.929 . S
C432 O422 1.282 . S
C432 O433 1.216 . S
O433 C432 1.216 . S
H434 C429 0.930 . S
H435 C430 0.930 . S
O436 Cu416 1.959 . S
O436 C423 1.251 . S
H437 C420 0.930 . S
H438 C431 0.929 . S
Cu439 N440 1.999 . S
Cu439 O445 1.974 . S
Cu439 N450 1.985 1_554 S
Cu439 O459 1.959 1_554 S
N440 Cu439 1.999 . S
N440 C442 1.263 . S
N440 C444 1.389 . S
N441 C442 1.358 . S
N441 C443 1.400 . S
C442 N440 1.263 . S
C442 N441 1.358 . S
C442 H448 0.930 . S
C443 N441 1.400 . S
C443 C444 1.351 . S
C443 H460 0.930 . S
C444 N440 1.389 . S
C444 C443 1.351 . S
C444 H449 0.930 . S
O445 Cu439 1.974 . S
O445 C455 1.282 . S
C446 O447 1.261 . S
C446 O459 1.251 . S
O447 C446 1.261 . S
H448 C442 0.930 . S
H449 C444 0.930 . S
N450 Cu439 1.985 1_556 S
N450 C452 1.335 . S
N450 C453 1.390 1_556 S
N451 C452 1.345 . S
N451 C454 1.336 . S
C452 N450 1.335 . S
C452 N451 1.345 . S
C452 H457 0.930 . S
C453 N450 1.390 1_554 S
C453 C454 1.346 1_554 S
C453 H458 0.930 . S
C454 N451 1.336 . S
C454 C453 1.346 1_556 S
C454 H461 0.929 . S
C455 O445 1.282 . S
C455 O456 1.216 . S
O456 C455 1.216 . S
H457 C452 0.930 . S
H458 C453 0.930 . S
O459 Cu439 1.959 1_556 S
O459 C446 1.251 . S
H460 C443 0.930 . S
H461 C454 0.929 . S
Cu462 N463 1.999 1_554 S
Cu462 O468 1.974 1_554 S
Cu462 N473 1.985 . S
Cu462 O482 1.959 . S
N463 Cu462 1.999 1_556 S
N463 C465 1.263 . S
N463 C467 1.389 . S
N464 C465 1.358 . S
N464 C466 1.400 . S
C465 N463 1.263 . S
C465 N464 1.358 . S
C465 H471 0.930 . S
C466 N464 1.400 . S
C466 C467 1.351 . S
C466 H483 0.930 . S
C467 N463 1.389 . S
C467 C466 1.351 . S
C467 H472 0.930 1_556 S
O468 Cu462 1.974 1_556 S
O468 C478 1.282 . S
C469 O470 1.261 . S
C469 O482 1.251 . S
O470 C469 1.261 . S
H471 C465 0.930 . S
H472 C467 0.930 1_554 S
N473 Cu462 1.985 . S
N473 C475 1.335 . S
N473 C476 1.390 . S
N474 C475 1.345 . S
N474 C477 1.336 . S
C475 N473 1.335 . S
C475 N474 1.345 . S
C475 H480 0.930 . S
C476 N473 1.390 . S
C476 C477 1.346 . S
C476 H481 0.930 . S
C477 N474 1.336 . S
C477 C476 1.346 . S
C477 H484 0.929 . S
C478 O468 1.282 . S
C478 O479 1.216 . S
O479 C478 1.216 . S
H480 C475 0.930 . S
H481 C476 0.930 . S
O482 Cu462 1.959 . S
O482 C469 1.251 . S
H483 C466 0.930 . S
H484 C477 0.929 . S
Cu485 N486 1.999 . S
Cu485 O491 1.974 . S
Cu485 N496 1.985 1_554 S
Cu485 O505 1.959 1_554 S
N486 Cu485 1.999 . S
N486 C488 1.263 . S
N486 C490 1.389 . S
N487 C488 1.358 . S
N487 C489 1.400 . S
C488 N486 1.263 . S
C488 N487 1.358 . S
C488 H494 0.930 . S
C489 N487 1.400 . S
C489 C490 1.351 . S
C489 H506 0.930 . S
C490 N486 1.389 . S
C490 C489 1.351 . S
C490 H495 0.930 . S
O491 Cu485 1.974 . S
O491 C501 1.282 . S
C492 O493 1.261 . S
C492 O505 1.251 . S
O493 C492 1.261 . S
H494 C488 0.930 . S
H495 C490 0.930 . S
N496 Cu485 1.985 1_556 S
N496 C498 1.335 . S
N496 C499 1.390 . S
N497 C498 1.345 . S
N497 C500 1.336 . S
C498 N496 1.335 . S
C498 N497 1.345 . S
C498 H503 0.930 . S
C499 N496 1.390 . S
C499 C500 1.346 . S
C499 H504 0.930 1_556 S
C500 N497 1.336 . S
C500 C499 1.346 . S
C500 H507 0.929 . S
C501 O491 1.282 . S
C501 O502 1.216 . S
O502 C501 1.216 . S
H503 C498 0.930 . S
H504 C499 0.930 1_554 S
O505 Cu485 1.959 1_556 S
O505 C492 1.251 . S
H506 C489 0.930 . S
H507 C500 0.929 . S
Cu508 N509 1.999 . S
Cu508 O514 1.974 . S
Cu508 N519 1.985 1_455 S
Cu508 O528 1.959 1_455 S
N509 Cu508 1.999 . S
N509 C511 1.263 . S
N509 C513 1.389 . S
N510 C511 1.358 . S
N510 C512 1.400 . S
C511 N509 1.263 . S
C511 N510 1.358 . S
C511 H517 0.930 . S
C512 N510 1.400 . S
C512 C513 1.351 . S
C512 H529 0.930 . S
C513 N509 1.389 . S
C513 C512 1.351 . S
C513 H518 0.930 . S
O514 Cu508 1.974 . S
O514 C524 1.282 . S
C515 O516 1.261 . S
C515 O528 1.251 . S
O516 C515 1.261 . S
H517 C511 0.930 . S
H518 C513 0.930 . S
N519 Cu508 1.985 1_655 S
N519 C521 1.335 . S
N519 C522 1.390 1_655 S
N520 C521 1.345 . S
N520 C523 1.336 . S
C521 N519 1.335 . S
C521 N520 1.345 . S
C521 H526 0.930 . S
C522 N519 1.390 1_455 S
C522 C523 1.346 1_455 S
C522 H527 0.930 . S
C523 N520 1.336 . S
C523 C522 1.346 1_655 S
C523 H530 0.929 . S
C524 O514 1.282 . S
C524 O525 1.216 . S
O525 C524 1.216 . S
H526 C521 0.930 . S
H527 C522 0.930 . S
O528 Cu508 1.959 1_655 S
O528 C515 1.251 . S
H529 C512 0.930 . S
H530 C523 0.929 . S
Cu531 N532 2.039 . S
Cu531 O537 2.020 . S
Cu531 N542 1.947 1_545 S
Cu531 O551 1.914 1_545 S
N532 Cu531 2.039 . S
N532 C534 1.263 . S
N532 C536 1.389 . S
N533 C534 1.358 . S
N533 C535 1.400 . S
C534 N532 1.263 . S
C534 N533 1.358 . S
C534 H540 0.930 . S
C535 N533 1.400 . S
C535 C536 1.351 . S
C535 H552 0.930 . S
C536 N532 1.389 . S
C536 C535 1.351 . S
C536 H541 0.930 . S
O537 Cu531 2.020 . S
O537 C547 1.282 . S
C538 O539 1.261 . S
C538 O551 1.251 . S
O539 C538 1.261 . S
H540 C534 0.930 . S
H541 C536 0.930 . S
N542 Cu531 1.947 1_565 S
N542 C544 1.335 . S
N542 C545 1.390 . S
N543 C544 1.345 . S
N543 C546 1.336 . S
C544 N542 1.335 . S
C544 N543 1.345 . S
C544 H549 0.930 . S
C545 N542 1.390 . S
C545 C546 1.346 . S
C545 H550 0.930 . S
C546 N543 1.336 . S
C546 C545 1.346 . S
C546 H553 0.929 . S
C547 O537 1.282 . S
C547 O548 1.216 . S
O548 C547 1.216 . S
H549 C544 0.930 . S
H550 C545 0.930 . S
O551 Cu531 1.914 1_565 S
O551 C538 1.251 . S
H552 C535 0.930 . S
H553 C546 0.929 . S
Cu554 N555 1.999 1_455 S
Cu554 O560 1.974 1_455 S
Cu554 N565 1.985 . S
Cu554 O574 1.959 . S
N555 Cu554 1.999 1_655 S
N555 C557 1.263 . S
N555 C559 1.389 . S
N556 C557 1.358 . S
N556 C558 1.400 . S
C557 N555 1.263 . S
C557 N556 1.358 . S
C557 H563 0.930 . S
C558 N556 1.400 . S
C558 C559 1.351 . S
C558 H575 0.930 . S
C559 N555 1.389 . S
C559 C558 1.351 . S
C559 H564 0.930 1_655 S
O560 Cu554 1.974 1_655 S
O560 C570 1.282 . S
C561 O562 1.261 . S
C561 O574 1.251 . S
O562 C561 1.261 . S
H563 C557 0.930 . S
H564 C559 0.930 1_455 S
N565 Cu554 1.985 . S
N565 C567 1.335 . S
N565 C568 1.390 . S
N566 C567 1.345 . S
N566 C569 1.336 . S
C567 N565 1.335 . S
C567 N566 1.345 . S
C567 H572 0.930 . S
C568 N565 1.390 . S
C568 C569 1.346 . S
C568 H573 0.930 . S
C569 N566 1.336 . S
C569 C568 1.346 . S
C569 H576 0.929 . S
C570 O560 1.282 . S
C570 O571 1.216 . S
O571 C570 1.216 . S
H572 C567 0.930 . S
H573 C568 0.930 . S
O574 Cu554 1.959 . S
O574 C561 1.251 . S
H575 C558 0.930 . S
H576 C569 0.929 . S
Cu577 N578 1.999 . S
Cu577 O583 1.974 . S
Cu577 N588 1.985 . S
Cu577 O597 1.955 1_545 S
N578 Cu577 1.999 . S
N578 C580 1.263 . S
N578 C582 1.389 . S
N579 C580 1.358 . S
N579 C581 1.400 . S
C580 N578 1.263 . S
C580 N579 1.358 . S
C580 H586 0.930 . S
C581 N579 1.400 . S
C581 C582 1.351 . S
C581 H598 0.930 . S
C582 N578 1.389 . S
C582 C581 1.351 . S
C582 H587 0.930 . S
O583 Cu577 1.974 . S
O583 C593 1.282 . S
C584 O585 1.261 . S
C584 O597 1.254 . S
O585 C584 1.261 . S
H586 C580 0.930 . S
H587 C582 0.930 . S
N588 Cu577 1.985 . S
N588 C590 1.335 1_545 S
N588 C591 1.390 . S
N589 C590 1.345 . S
N589 C592 1.336 . S
C590 N588 1.335 1_565 S
C590 N589 1.345 . S
C590 H595 0.930 . S
C591 N588 1.390 . S
C591 C592 1.346 1_545 S
C591 H596 0.930 . S
C592 N589 1.336 . S
C592 C591 1.346 1_565 S
C592 H599 0.929 . S
C593 O583 1.282 . S
C593 O594 1.216 . S
O594 C593 1.216 . S
H595 C590 0.930 . S
H596 C591 0.930 . S
O597 Cu577 1.955 1_565 S
O597 C584 1.254 . S
H598 C581 0.930 . S
H599 C592 0.929 . S
Cu600 N601 1.999 . S
Cu600 O606 1.974 . S
Cu600 N611 1.985 1_455 S
Cu600 O620 1.959 1_455 S
N601 Cu600 1.999 . S
N601 C603 1.263 . S
N601 C605 1.389 . S
N602 C603 1.358 . S
N602 C604 1.400 . S
C603 N601 1.263 . S
C603 N602 1.358 . S
C603 H609 0.930 . S
C604 N602 1.400 . S
C604 C605 1.351 . S
C604 H621 0.930 . S
C605 N601 1.389 . S
C605 C604 1.351 . S
C605 H610 0.930 . S
O606 Cu600 1.974 . S
O606 C616 1.282 . S
C607 O608 1.261 . S
C607 O620 1.251 . S
O608 C607 1.261 . S
H609 C603 0.930 . S
H610 C605 0.930 . S
N611 Cu600 1.985 1_655 S
N611 C613 1.335 . S
N611 C614 1.384 1_655 S
N612 C613 1.345 . S
N612 C615 1.336 . S
C613 N611 1.335 . S
C613 N612 1.345 . S
C613 H618 0.930 . S
C614 N611 1.384 1_455 S
C614 C615 1.320 1_455 S
C614 H619 0.958 . S
C615 N612 1.336 . S
C615 C614 1.320 1_655 S
C615 H622 0.929 . S
C616 O606 1.282 . S
C616 O617 1.216 . S
O617 C616 1.216 . S
H618 C613 0.930 . S
H619 C614 0.958 . S
O620 Cu600 1.959 1_655 S
O620 C607 1.251 . S
H621 C604 0.930 . S
H622 C615 0.929 . S
Cu623 N624 1.999 . S
Cu623 O629 1.974 . S
Cu623 N634 1.985 1_545 S
Cu623 O643 1.959 1_545 S
N624 Cu623 1.999 . S
N624 C626 1.263 . S
N624 C628 1.389 . S
N625 C626 1.358 . S
N625 C627 1.400 . S
C626 N624 1.263 . S
C626 N625 1.358 . S
C626 H632 0.930 . S
C627 N625 1.400 . S
C627 C628 1.351 . S
C627 H644 0.930 . S
C628 N624 1.389 . S
C628 C627 1.351 . S
C628 H633 0.930 . S
O629 Cu623 1.974 . S
O629 C639 1.282 . S
C630 O631 1.261 . S
C630 O643 1.251 . S
O631 C630 1.261 . S
H632 C626 0.930 . S
H633 C628 0.930 . S
N634 Cu623 1.985 1_565 S
N634 C636 1.335 . S
N634 C637 1.390 . S
N635 C636 1.345 . S
N635 C638 1.336 . S
C636 N634 1.335 . S
C636 N635 1.345 . S
C636 H641 0.930 . S
C637 N634 1.390 . S
C637 C638 1.346 . S
C637 H642 0.928 1_565 S
C638 N635 1.336 . S
C638 C637 1.346 . S
C638 H645 0.929 . S
C639 O629 1.282 . S
C639 O640 1.216 . S
O640 C639 1.216 . S
H641 C636 0.930 . S
H642 C637 0.928 1_545 S
O643 Cu623 1.959 1_565 S
O643 C630 1.251 . S
H644 C627 0.930 . S
H645 C638 0.929 . S
Cu646 N647 1.999 . S
Cu646 O652 1.974 . S
Cu646 N657 1.985 . S
Cu646 O666 1.959 . S
N647 Cu646 1.999 . S
N647 C649 1.263 . S
N647 C651 1.389 . S
N648 C649 1.358 1_655 S
N648 C650 1.400 1_655 S
C649 N647 1.263 . S
C649 N648 1.358 1_455 S
C649 H655 0.930 . S
C650 N648 1.400 1_455 S
C650 C651 1.351 . S
C650 H667 0.930 . S
C651 N647 1.389 . S
C651 C650 1.351 . S
C651 H656 0.930 . S
O652 Cu646 1.974 . S
O652 C662 1.282 . S
C653 O654 1.261 . S
C653 O666 1.251 . S
O654 C653 1.261 . S
H655 C649 0.930 . S
H656 C651 0.930 . S
N657 Cu646 1.985 . S
N657 C659 1.335 . S
N657 C660 1.390 . S
N658 C659 1.345 . S
N658 C661 1.336 . S
C659 N657 1.335 . S
C659 N658 1.345 . S
C659 H664 0.930 . S
C660 N657 1.390 . S
C660 C661 1.346 . S
C660 H665 0.930 . S
C661 N658 1.336 . S
C661 C660 1.346 . S
C661 H668 0.929 . S
C662 O652 1.282 . S
C662 O663 1.216 . S
O663 C662 1.216 . S
H664 C659 0.930 . S
H665 C660 0.930 . S
O666 Cu646 1.959 . S
O666 C653 1.251 . S
H667 C650 0.930 . S
H668 C661 0.929 . S
Cu669 N670 1.999 . S
Cu669 O675 1.974 . S
Cu669 N680 1.985 . S
Cu669 O689 1.959 . S
N670 Cu669 1.999 . S
N670 C672 1.263 . S
N670 C674 1.389 . S
N671 C672 1.358 . S
N671 C673 1.400 . S
C672 N670 1.263 . S
C672 N671 1.358 . S
C672 H678 0.930 . S
C673 N671 1.400 . S
C673 C674 1.351 . S
C673 H690 0.930 . S
C674 N670 1.389 . S
C674 C673 1.351 . S
C674 H679 0.930 . S
O675 Cu669 1.974 . S
O675 C685 1.282 . S
C676 O677 1.261 . S
C676 O689 1.251 . S
O677 C676 1.261 . S
H678 C672 0.930 . S
H679 C674 0.930 . S
N680 Cu669 1.985 . S
N680 C682 1.335 . S
N680 C683 1.390 . S
N681 C682 1.345 1_565 S
N681 C684 1.336 1_565 S
C682 N680 1.335 . S
C682 N681 1.345 1_545 S
C682 H687 0.930 1_545 S
C683 N680 1.390 . S
C683 C684 1.346 . S
C683 H688 0.930 . S
C684 N681 1.336 1_545 S
C684 C683 1.346 . S
C684 H691 0.929 . S
C685 O675 1.282 . S
C685 O686 1.216 . S
O686 C685 1.216 . S
H687 C682 0.930 1_565 S
H688 C683 0.930 . S
O689 Cu669 1.959 . S
O689 C676 1.251 . S
H690 C673 0.930 . S
H691 C684 0.929 . S
Cu692 N693 1.999 . S
Cu692 O698 1.974 . S
Cu692 N703 1.985 . S
Cu692 O712 1.959 . S
N693 Cu692 1.999 . S
N693 C695 1.263 . S
N693 C697 1.389 . S
N694 C695 1.358 . S
N694 C696 1.400 . S
C695 N693 1.263 . S
C695 N694 1.358 . S
C695 H701 0.930 . S
C696 N694 1.400 . S
C696 C697 1.351 . S
C696 H713 0.930 . S
C697 N693 1.389 . S
C697 C696 1.351 . S
C697 H702 0.930 . S
O698 Cu692 1.974 . S
O698 C708 1.282 . S
C699 O700 1.261 . S
C699 O712 1.251 . S
O700 C699 1.261 . S
H701 C695 0.930 . S
H702 C697 0.930 . S
N703 Cu692 1.985 . S
N703 C705 1.335 . S
N703 C706 1.390 . S
N704 C705 1.345 . S
N704 C707 1.336 . S
C705 N703 1.335 . S
C705 N704 1.345 . S
C705 H710 0.930 . S
C706 N703 1.390 . S
C706 C707 1.346 . S
C706 H711 0.930 . S
C707 N704 1.336 . S
C707 C706 1.346 . S
C707 H714 0.929 . S
C708 O698 1.282 . S
C708 O709 1.216 . S
O709 C708 1.216 . S
H710 C705 0.930 . S
H711 C706 0.930 . S
O712 Cu692 1.959 . S
O712 C699 1.251 . S
H713 C696 0.930 . S
H714 C707 0.929 . S
Cu715 N716 1.999 . S
Cu715 O721 1.974 . S
Cu715 N726 1.985 . S
Cu715 O735 1.959 . S
N716 Cu715 1.999 . S
N716 C718 1.263 . S
N716 C720 1.389 . S
N717 C718 1.358 . S
N717 C719 1.400 . S
C718 N716 1.263 . S
C718 N717 1.358 . S
C718 H724 0.930 . S
C719 N717 1.400 . S
C719 C720 1.351 . S
C719 H736 0.930 . S
C720 N716 1.389 . S
C720 C719 1.351 . S
C720 H725 0.930 . S
O721 Cu715 1.974 . S
O721 C731 1.282 . S
C722 O723 1.261 . S
C722 O735 1.251 . S
O723 C722 1.261 . S
H724 C718 0.930 . S
H725 C720 0.930 . S
N726 Cu715 1.985 . S
N726 C728 1.335 . S
N726 C729 1.390 . S
N727 C728 1.345 . S
N727 C730 1.336 . S
C728 N726 1.335 . S
C728 N727 1.345 . S
C728 H733 0.930 . S
C729 N726 1.390 . S
C729 C730 1.346 . S
C729 H734 0.930 . S
C730 N727 1.336 . S
C730 C729 1.346 . S
C730 H737 0.929 . S
C731 O721 1.282 . S
C731 O732 1.216 . S
O732 C731 1.216 . S
H733 C728 0.930 . S
H734 C729 0.930 . S
O735 Cu715 1.959 . S
O735 C722 1.251 . S
H736 C719 0.930 . S
H737 C730 0.929 . S
Cu738 N739 1.999 . S
Cu738 O744 1.974 . S
Cu738 N749 1.985 . S
Cu738 O758 1.959 . S
N739 Cu738 1.999 . S
N739 C741 1.263 . S
N739 C743 1.389 . S
N740 C741 1.358 . S
N740 C742 1.400 . S
C741 N739 1.263 . S
C741 N740 1.358 . S
C741 H747 0.930 . S
C742 N740 1.400 . S
C742 C743 1.351 . S
C742 H759 0.930 . S
C743 N739 1.389 . S
C743 C742 1.351 . S
C743 H748 0.930 . S
O744 Cu738 1.974 . S
O744 C754 1.282 . S
C745 O746 1.261 . S
C745 O758 1.251 . S
O746 C745 1.261 . S
H747 C741 0.930 . S
H748 C743 0.930 . S
N749 Cu738 1.985 . S
N749 C751 1.335 . S
N749 C752 1.390 . S
N750 C751 1.345 . S
N750 C753 1.336 . S
C751 N749 1.335 . S
C751 N750 1.345 . S
C751 H756 0.930 . S
C752 N749 1.390 . S
C752 C753 1.346 . S
C752 H757 0.930 . S
C753 N750 1.336 . S
C753 C752 1.346 . S
C753 H760 0.929 . S
C754 O744 1.282 . S
C754 O755 1.216 . S
O755 C754 1.216 . S
H756 C751 0.930 . S
H757 C752 0.930 . S
O758 Cu738 1.959 . S
O758 C745 1.251 . S
H759 C742 0.930 . S
H760 C753 0.929 . S
Cu761 N762 1.999 . S
Cu761 O767 1.974 . S
Cu761 N772 1.985 . S
Cu761 O781 1.959 . S
N762 Cu761 1.999 . S
N762 C764 1.263 . S
N762 C766 1.389 . S
N763 C764 1.358 . S
N763 C765 1.400 . S
C764 N762 1.263 . S
C764 N763 1.358 . S
C764 H770 0.930 . S
C765 N763 1.400 . S
C765 C766 1.351 . S
C765 H782 0.930 . S
C766 N762 1.389 . S
C766 C765 1.351 . S
C766 H771 0.930 . S
O767 Cu761 1.974 . S
O767 C777 1.282 . S
C768 O769 1.261 . S
C768 O781 1.251 . S
O769 C768 1.261 . S
H770 C764 0.930 . S
H771 C766 0.930 . S
N772 Cu761 1.985 . S
N772 C774 1.335 . S
N772 C775 1.390 . S
N773 C774 1.345 . S
N773 C776 1.336 . S
C774 N772 1.335 . S
C774 N773 1.345 . S
C774 H779 0.930 . S
C775 N772 1.390 . S
C775 C776 1.346 . S
C775 H780 0.930 . S
C776 N773 1.336 . S
C776 C775 1.346 . S
C776 H783 0.929 . S
C777 O767 1.282 . S
C777 O778 1.216 . S
O778 C777 1.216 . S
H779 C774 0.930 . S
H780 C775 0.930 . S
O781 Cu761 1.959 . S
O781 C768 1.251 . S
H782 C765 0.930 . S
H783 C776 0.929 . S
Cu784 N785 1.999 . S
Cu784 O790 1.974 . S
Cu784 N795 1.985 . S
Cu784 O804 1.959 . S
N785 Cu784 1.999 . S
N785 C787 1.263 . S
N785 C789 1.389 . S
N786 C787 1.358 . S
N786 C788 1.400 . S
C787 N785 1.263 . S
C787 N786 1.358 . S
C787 H793 0.930 . S
C788 N786 1.400 . S
C788 C789 1.351 . S
C788 H805 0.930 . S
C789 N785 1.389 . S
C789 C788 1.351 . S
C789 H794 0.930 . S
O790 Cu784 1.974 . S
O790 C800 1.282 . S
C791 O792 1.261 . S
C791 O804 1.251 . S
O792 C791 1.261 . S
H793 C787 0.930 . S
H794 C789 0.930 . S
N795 Cu784 1.985 . S
N795 C797 1.335 . S
N795 C798 1.390 . S
N796 C797 1.345 . S
N796 C799 1.336 . S
C797 N795 1.335 . S
C797 N796 1.345 . S
C797 H802 0.930 . S
C798 N795 1.390 . S
C798 C799 1.346 . S
C798 H803 0.930 . S
C799 N796 1.336 . S
C799 C798 1.346 . S
C799 H806 0.929 . S
C800 O790 1.282 . S
C800 O801 1.216 . S
O801 C800 1.216 . S
H802 C797 0.930 . S
H803 C798 0.930 . S
O804 Cu784 1.959 . S
O804 C791 1.251 . S
H805 C788 0.930 . S
H806 C799 0.929 . S
Cu807 N808 1.999 . S
Cu807 O813 1.974 . S
Cu807 N818 1.985 . S
Cu807 O827 1.959 . S
N808 Cu807 1.999 . S
N808 C810 1.263 . S
N808 C812 1.389 . S
N809 C810 1.358 . S
N809 C811 1.400 . S
C810 N808 1.263 . S
C810 N809 1.358 . S
C810 H816 0.930 . S
C811 N809 1.400 . S
C811 C812 1.351 . S
C811 H828 0.930 . S
C812 N808 1.389 . S
C812 C811 1.351 . S
C812 H817 0.930 . S
O813 Cu807 1.974 . S
O813 C823 1.282 . S
C814 O815 1.261 . S
C814 O827 1.251 . S
O815 C814 1.261 . S
H816 C810 0.930 . S
H817 C812 0.930 . S
N818 Cu807 1.985 . S
N818 C820 1.335 . S
N818 C821 1.390 . S
N819 C820 1.345 . S
N819 C822 1.336 . S
C820 N818 1.335 . S
C820 N819 1.345 . S
C820 H825 0.930 . S
C821 N818 1.390 . S
C821 C822 1.346 . S
C821 H826 0.930 . S
C822 N819 1.336 . S
C822 C821 1.346 . S
C822 H829 0.929 . S
C823 O813 1.282 . S
C823 O824 1.216 . S
O824 C823 1.216 . S
H825 C820 0.930 . S
H826 C821 0.930 . S
O827 Cu807 1.959 . S
O827 C814 1.251 . S
H828 C811 0.930 . S
H829 C822 0.929 . S
Cu830 N831 1.999 . S
Cu830 O836 1.974 . S
Cu830 N841 1.985 . S
Cu830 O850 1.959 . S
N831 Cu830 1.999 . S
N831 C833 1.263 . S
N831 C835 1.389 . S
N832 C833 1.358 . S
N832 C834 1.400 . S
C833 N831 1.263 . S
C833 N832 1.358 . S
C833 H839 0.930 . S
C834 N832 1.400 . S
C834 C835 1.351 . S
C834 H851 0.930 . S
C835 N831 1.389 . S
C835 C834 1.351 . S
C835 H840 0.930 . S
O836 Cu830 1.974 . S
O836 C846 1.282 . S
C837 O838 1.261 . S
C837 O850 1.251 . S
O838 C837 1.261 . S
H839 C833 0.930 . S
H840 C835 0.930 . S
N841 Cu830 1.985 . S
N841 C843 1.335 . S
N841 C844 1.390 . S
N842 C843 1.345 . S
N842 C845 1.336 . S
C843 N841 1.335 . S
C843 N842 1.345 . S
C843 H848 0.930 . S
C844 N841 1.390 . S
C844 C845 1.346 . S
C844 H849 0.930 . S
C845 N842 1.336 . S
C845 C844 1.346 . S
C845 H852 0.929 . S
C846 O836 1.282 . S
C846 O847 1.216 . S
O847 C846 1.216 . S
H848 C843 0.930 . S
H849 C844 0.930 . S
O850 Cu830 1.959 . S
O850 C837 1.251 . S
H851 C834 0.930 . S
H852 C845 0.929 . S
Cu853 N854 1.999 . S
Cu853 O859 1.974 . S
Cu853 N864 1.985 . S
Cu853 O873 1.959 . S
N854 Cu853 1.999 . S
N854 C856 1.263 . S
N854 C858 1.389 . S
N855 C856 1.358 . S
N855 C857 1.400 . S
C856 N854 1.263 . S
C856 N855 1.358 . S
C856 H862 0.930 . S
C857 N855 1.400 . S
C857 C858 1.351 . S
C857 H874 0.930 . S
C858 N854 1.389 . S
C858 C857 1.351 . S
C858 H863 0.930 . S
O859 Cu853 1.974 . S
O859 C869 1.282 . S
C860 O861 1.261 . S
C860 O873 1.251 . S
O861 C860 1.261 . S
H862 C856 0.930 . S
H863 C858 0.930 . S
N864 Cu853 1.985 . S
N864 C866 1.335 . S
N864 C867 1.390 . S
N865 C866 1.345 . S
N865 C868 1.336 . S
C866 N864 1.335 . S
C866 N865 1.345 . S
C866 H871 0.930 . S
C867 N864 1.390 . S
C867 C868 1.346 . S
C867 H872 0.930 . S
C868 N865 1.336 . S
C868 C867 1.346 . S
C868 H875 0.929 . S
C869 O859 1.282 . S
C869 O870 1.216 . S
O870 C869 1.216 . S
H871 C866 0.930 . S
H872 C867 0.930 . S
O873 Cu853 1.959 . S
O873 C860 1.251 . S
H874 C857 0.930 . S
H875 C868 0.929 . S
Cu876 N877 1.999 . S
Cu876 O882 1.974 . S
Cu876 N887 1.985 . S
Cu876 O896 1.959 . S
N877 Cu876 1.999 . S
N877 C879 1.263 . S
N877 C881 1.389 . S
N878 C879 1.358 . S
N878 C880 1.400 . S
C879 N877 1.263 . S
C879 N878 1.358 . S
C879 H885 0.930 . S
C880 N878 1.400 . S
C880 C881 1.351 . S
C880 H897 0.930 . S
C881 N877 1.389 . S
C881 C880 1.351 . S
C881 H886 0.930 . S
O882 Cu876 1.974 . S
O882 C892 1.282 . S
C883 O884 1.261 . S
C883 O896 1.251 . S
O884 C883 1.261 . S
H885 C879 0.930 . S
H886 C881 0.930 . S
N887 Cu876 1.985 . S
N887 C889 1.335 . S
N887 C890 1.390 . S
N888 C889 1.345 . S
N888 C891 1.336 . S
C889 N887 1.335 . S
C889 N888 1.345 . S
C889 H894 0.930 . S
C890 N887 1.390 . S
C890 C891 1.346 . S
C890 H895 0.930 . S
C891 N888 1.336 . S
C891 C890 1.346 . S
C891 H898 0.929 . S
C892 O882 1.282 . S
C892 O893 1.216 . S
O893 C892 1.216 . S
H894 C889 0.930 . S
H895 C890 0.930 . S
O896 Cu876 1.959 . S
O896 C883 1.251 . S
H897 C880 0.930 . S
H898 C891 0.929 . S
Cu899 N900 1.999 . S
Cu899 O905 1.974 . S
Cu899 N910 1.985 . S
Cu899 O919 1.959 . S
N900 Cu899 1.999 . S
N900 C902 1.263 . S
N900 C904 1.389 . S
N901 C902 1.358 . S
N901 C903 1.400 . S
C902 N900 1.263 . S
C902 N901 1.358 . S
C902 H908 0.930 . S
C903 N901 1.400 . S
C903 C904 1.351 . S
C903 H920 0.930 . S
C904 N900 1.389 . S
C904 C903 1.351 . S
C904 H909 0.930 . S
O905 Cu899 1.974 . S
O905 C915 1.282 . S
C906 O907 1.261 . S
C906 O919 1.251 . S
O907 C906 1.261 . S
H908 C902 0.930 . S
H909 C904 0.930 . S
N910 Cu899 1.985 . S
N910 C912 1.335 . S
N910 C913 1.390 . S
N911 C912 1.345 . S
N911 C914 1.336 . S
C912 N910 1.335 . S
C912 N911 1.345 . S
C912 H917 0.930 . S
C913 N910 1.390 . S
C913 C914 1.346 . S
C913 H918 0.930 . S
C914 N911 1.336 . S
C914 C913 1.346 . S
C914 H921 0.929 . S
C915 O905 1.282 . S
C915 O916 1.216 . S
O916 C915 1.216 . S
H917 C912 0.930 . S
H918 C913 0.930 . S
O919 Cu899 1.959 . S
O919 C906 1.251 . S
H920 C903 0.930 . S
H921 C914 0.929 . S
Cu922 N923 1.999 . S
Cu922 O928 1.974 . S
Cu922 N933 1.985 . S
Cu922 O942 1.959 . S
N923 Cu922 1.999 . S
N923 C925 1.263 . S
N923 C927 1.389 . S
N924 C925 1.358 . S
N924 C926 1.400 . S
C925 N923 1.263 . S
C925 N924 1.358 . S
C925 H931 0.930 . S
C926 N924 1.400 . S
C926 C927 1.351 . S
C926 H943 0.930 . S
C927 N923 1.389 . S
C927 C926 1.351 . S
C927 H932 0.930 . S
O928 Cu922 1.974 . S
O928 C938 1.282 . S
C929 O930 1.261 . S
C929 O942 1.251 . S
O930 C929 1.261 . S
H931 C925 0.930 . S
H932 C927 0.930 . S
N933 Cu922 1.985 . S
N933 C935 1.335 . S
N933 C936 1.390 . S
N934 C935 1.345 . S
N934 C937 1.336 . S
C935 N933 1.335 . S
C935 N934 1.345 . S
C935 H940 0.930 . S
C936 N933 1.390 . S
C936 C937 1.346 . S
C936 H941 0.930 . S
C937 N934 1.336 . S
C937 C936 1.346 . S
C937 H944 0.929 . S
C938 O928 1.282 . S
C938 O939 1.216 . S
O939 C938 1.216 . S
H940 C935 0.930 . S
H941 C936 0.930 . S
O942 Cu922 1.959 . S
O942 C929 1.251 . S
H943 C926 0.930 . S
H944 C937 0.929 . S
Cu945 N946 1.999 . S
Cu945 O951 1.974 . S
Cu945 N956 1.985 . S
Cu945 O965 1.959 . S
N946 Cu945 1.999 . S
N946 C948 1.263 . S
N946 C950 1.389 . S
N947 C948 1.358 . S
N947 C949 1.400 . S
C948 N946 1.263 . S
C948 N947 1.358 . S
C948 H954 0.930 . S
C949 N947 1.400 . S
C949 C950 1.351 . S
C949 H966 0.930 . S
C950 N946 1.389 . S
C950 C949 1.351 . S
C950 H955 0.930 . S
O951 Cu945 1.974 . S
O951 C961 1.282 . S
C952 O953 1.261 . S
C952 O965 1.251 . S
O953 C952 1.261 . S
H954 C948 0.930 . S
H955 C950 0.930 . S
N956 Cu945 1.985 . S
N956 C958 1.335 . S
N956 C959 1.390 . S
N957 C958 1.345 . S
N957 C960 1.336 . S
C958 N956 1.335 . S
C958 N957 1.345 . S
C958 H963 0.930 . S
C959 N956 1.390 . S
C959 C960 1.346 . S
C959 H964 0.930 . S
C960 N957 1.336 . S
C960 C959 1.346 . S
C960 H967 0.929 . S
C961 O951 1.282 . S
C961 O962 1.216 . S
O962 C961 1.216 . S
H963 C958 0.930 . S
H964 C959 0.930 . S
O965 Cu945 1.959 . S
O965 C952 1.251 . S
H966 C949 0.930 . S
H967 C960 0.929 . S
C968 C969 1.391 . S
C968 C970 1.394 . S
C968 H984 0.931 . S
C969 C968 1.391 . S
C969 C973 1.376 . S
C970 C968 1.394 . S
C970 C971 1.369 . S
C970 C974 1.531 . S
C971 C970 1.369 . S
C971 C972 1.410 . S
C971 C979 1.503 . S
C972 C971 1.410 . S
C972 C973 1.392 . S
C972 C975 1.511 . S
C973 C969 1.376 . S
C973 C972 1.392 . S
C973 H985 0.929 . S
C974 C970 1.531 . S
C974 H986 0.960 . S
C974 H987 0.962 . S
C974 H988 0.960 . S
C975 C972 1.511 . S
C975 H989 0.961 . S
C975 H990 0.961 . S
C975 H991 0.961 . S
C976 C977 1.370 . S
C976 C978 1.363 . S
C976 H992 0.931 . S
C977 C976 1.370 . S
C977 C981 1.408 . S
C978 C976 1.363 . S
C978 C979 1.370 . S
C978 C982 1.524 . S
C979 C971 1.503 . S
C979 C978 1.370 . S
C979 C980 1.403 . S
C980 C979 1.403 . S
C980 C981 1.404 . S
C980 C983 1.539 . S
C981 C977 1.408 . S
C981 C980 1.404 . S
C981 H993 0.930 . S
C982 C978 1.524 . S
C982 H994 0.956 . S
C982 H995 0.961 . S
C982 H996 0.961 . S
C983 C980 1.539 . S
C983 H997 0.958 . S
C983 H998 0.961 . S
C983 H999 0.960 . S
H984 C968 0.931 . S
H985 C973 0.929 . S
H986 C974 0.960 . S
H987 C974 0.962 . S
H988 C974 0.960 . S
H989 C975 0.961 . S
H990 C975 0.961 . S
H991 C975 0.961 . S
H992 C976 0.931 . S
H993 C981 0.930 . S
H994 C982 0.956 . S
H995 C982 0.961 . S
H996 C982 0.961 . S
H997 C983 0.958 . S
H998 C983 0.961 . S
H999 C983 0.960 . S
C1000 C1001 1.391 . S
C1000 C1002 1.394 . S
C1000 H1016 0.931 . S
C1001 C1000 1.391 . S
C1001 C1005 1.376 . S
C1002 C1000 1.394 . S
C1002 C1003 1.369 . S
C1002 C1006 1.531 . S
C1003 C1002 1.369 . S
C1003 C1004 1.410 . S
C1003 C1011 1.503 . S
C1004 C1003 1.410 . S
C1004 C1005 1.392 . S
C1004 C1007 1.511 . S
C1005 C1001 1.376 . S
C1005 C1004 1.392 . S
C1005 H1017 0.929 . S
C1006 C1002 1.531 . S
C1006 H1018 0.960 . S
C1006 H1019 0.962 . S
C1006 H1020 0.960 . S
C1007 C1004 1.511 . S
C1007 H1021 0.961 . S
C1007 H1022 0.961 . S
C1007 H1023 0.961 . S
C1008 C1009 1.370 . S
C1008 C1010 1.363 . S
C1008 H1024 0.931 . S
C1009 C1008 1.370 . S
C1009 C1013 1.408 . S
C1010 C1008 1.363 . S
C1010 C1011 1.370 . S
C1010 C1014 1.524 . S
C1011 C1003 1.503 . S
C1011 C1010 1.370 . S
C1011 C1012 1.403 . S
C1012 C1011 1.403 . S
C1012 C1013 1.404 . S
C1012 C1015 1.539 . S
C1013 C1009 1.408 . S
C1013 C1012 1.404 . S
C1013 H1025 0.930 . S
C1014 C1010 1.524 . S
C1014 H1026 0.956 . S
C1014 H1027 0.961 . S
C1014 H1028 0.961 . S
C1015 C1012 1.539 . S
C1015 H1029 0.958 . S
C1015 H1030 0.961 . S
C1015 H1031 0.960 . S
H1016 C1000 0.931 . S
H1017 C1005 0.929 . S
H1018 C1006 0.960 . S
H1019 C1006 0.962 . S
H1020 C1006 0.960 . S
H1021 C1007 0.961 . S
H1022 C1007 0.961 . S
H1023 C1007 0.961 . S
H1024 C1008 0.931 . S
H1025 C1013 0.930 . S
H1026 C1014 0.956 . S
H1027 C1014 0.961 . S
H1028 C1014 0.961 . S
H1029 C1015 0.958 . S
H1030 C1015 0.961 . S
H1031 C1015 0.960 . S
C1032 C1033 1.391 . S
C1032 C1034 1.394 . S
C1032 H1048 0.931 . S
C1033 C1032 1.391 . S
C1033 C1037 1.376 . S
C1034 C1032 1.394 . S
C1034 C1035 1.369 . S
C1034 C1038 1.531 . S
C1035 C1034 1.369 . S
C1035 C1036 1.410 . S
C1035 C1043 1.503 . S
C1036 C1035 1.410 . S
C1036 C1037 1.392 . S
C1036 C1039 1.511 . S
C1037 C1033 1.376 . S
C1037 C1036 1.392 . S
C1037 H1049 0.929 . S
C1038 C1034 1.531 . S
C1038 H1050 0.960 . S
C1038 H1051 0.962 . S
C1038 H1052 0.960 . S
C1039 C1036 1.511 . S
C1039 H1053 0.961 . S
C1039 H1054 0.961 . S
C1039 H1055 0.961 . S
C1040 C1041 1.370 . S
C1040 C1042 1.363 . S
C1040 H1056 0.931 . S
C1041 C1040 1.370 . S
C1041 C1045 1.408 . S
C1042 C1040 1.363 . S
C1042 C1043 1.370 . S
C1042 C1046 1.524 . S
C1043 C1035 1.503 . S
C1043 C1042 1.370 . S
C1043 C1044 1.403 . S
C1044 C1043 1.403 . S
C1044 C1045 1.404 . S
C1044 C1047 1.539 . S
C1045 C1041 1.408 . S
C1045 C1044 1.404 . S
C1045 H1057 0.930 . S
C1046 C1042 1.524 . S
C1046 H1058 0.956 . S
C1046 H1059 0.961 . S
C1046 H1060 0.961 . S
C1047 C1044 1.539 . S
C1047 H1061 0.958 . S
C1047 H1062 0.961 . S
C1047 H1063 0.960 . S
H1048 C1032 0.931 . S
H1049 C1037 0.929 . S
H1050 C1038 0.960 . S
H1051 C1038 0.962 . S
H1052 C1038 0.960 . S
H1053 C1039 0.961 . S
H1054 C1039 0.961 . S
H1055 C1039 0.961 . S
H1056 C1040 0.931 . S
H1057 C1045 0.930 . S
H1058 C1046 0.956 . S
H1059 C1046 0.961 . S
H1060 C1046 0.961 . S
H1061 C1047 0.958 . S
H1062 C1047 0.961 . S
H1063 C1047 0.960 . S
C1064 C1065 1.391 . S
C1064 C1066 1.394 . S
C1064 H1080 0.931 . S
C1065 C1064 1.391 . S
C1065 C1069 1.376 . S
C1066 C1064 1.394 . S
C1066 C1067 1.369 . S
C1066 C1070 1.531 . S
C1067 C1066 1.369 . S
C1067 C1068 1.410 . S
C1067 C1075 1.503 . S
C1068 C1067 1.410 . S
C1068 C1069 1.392 . S
C1068 C1071 1.511 . S
C1069 C1065 1.376 . S
C1069 C1068 1.392 . S
C1069 H1081 0.929 . S
C1070 C1066 1.531 . S
C1070 H1082 0.960 . S
C1070 H1083 0.962 . S
C1070 H1084 0.960 . S
C1071 C1068 1.511 . S
C1071 H1085 0.961 . S
C1071 H1086 0.961 . S
C1071 H1087 0.961 . S
C1072 C1073 1.370 . S
C1072 C1074 1.363 . S
C1072 H1088 0.931 . S
C1073 C1072 1.370 . S
C1073 C1077 1.408 . S
C1074 C1072 1.363 . S
C1074 C1075 1.370 . S
C1074 C1078 1.524 . S
C1075 C1067 1.503 . S
C1075 C1074 1.370 . S
C1075 C1076 1.403 . S
C1076 C1075 1.403 . S
C1076 C1077 1.404 . S
C1076 C1079 1.539 . S
C1077 C1073 1.408 . S
C1077 C1076 1.404 . S
C1077 H1089 0.930 . S
C1078 C1074 1.524 . S
C1078 H1090 0.956 . S
C1078 H1091 0.961 . S
C1078 H1092 0.961 . S
C1079 C1076 1.539 . S
C1079 H1093 0.958 . S
C1079 H1094 0.961 . S
C1079 H1095 0.960 . S
H1080 C1064 0.931 . S
H1081 C1069 0.929 . S
H1082 C1070 0.960 . S
H1083 C1070 0.962 . S
H1084 C1070 0.960 . S
H1085 C1071 0.961 . S
H1086 C1071 0.961 . S
H1087 C1071 0.961 . S
H1088 C1072 0.931 . S
H1089 C1077 0.930 . S
H1090 C1078 0.956 . S
H1091 C1078 0.961 . S
H1092 C1078 0.961 . S
H1093 C1079 0.958 . S
H1094 C1079 0.961 . S
H1095 C1079 0.960 . S
C1096 C1097 1.391 . S
C1096 C1098 1.394 . S
C1096 H1112 0.931 . S
C1097 C1096 1.391 . S
C1097 C1101 1.376 . S
C1098 C1096 1.394 . S
C1098 C1099 1.369 . S
C1098 C1102 1.531 . S
C1099 C1098 1.369 . S
C1099 C1100 1.410 . S
C1099 C1107 1.503 . S
C1100 C1099 1.410 . S
C1100 C1101 1.392 . S
C1100 C1103 1.511 . S
C1101 C1097 1.376 . S
C1101 C1100 1.392 . S
C1101 H1113 0.929 . S
C1102 C1098 1.531 . S
C1102 H1114 0.960 . S
C1102 H1115 0.962 . S
C1102 H1116 0.960 . S
C1103 C1100 1.511 . S
C1103 H1117 0.961 . S
C1103 H1118 0.961 . S
C1103 H1119 0.961 . S
C1104 C1105 1.370 . S
C1104 C1106 1.363 . S
C1104 H1120 0.931 . S
C1105 C1104 1.370 . S
C1105 C1109 1.408 . S
C1106 C1104 1.363 . S
C1106 C1107 1.370 . S
C1106 C1110 1.524 . S
C1107 C1099 1.503 . S
C1107 C1106 1.370 . S
C1107 C1108 1.403 . S
C1108 C1107 1.403 . S
C1108 C1109 1.404 . S
C1108 C1111 1.539 . S
C1109 C1105 1.408 . S
C1109 C1108 1.404 . S
C1109 H1121 0.930 . S
C1110 C1106 1.524 . S
C1110 H1122 0.956 . S
C1110 H1123 0.961 . S
C1110 H1124 0.961 . S
C1111 C1108 1.539 . S
C1111 H1125 0.958 . S
C1111 H1126 0.961 . S
C1111 H1127 0.960 . S
H1112 C1096 0.931 . S
H1113 C1101 0.929 . S
H1114 C1102 0.960 . S
H1115 C1102 0.962 . S
H1116 C1102 0.960 . S
H1117 C1103 0.961 . S
H1118 C1103 0.961 . S
H1119 C1103 0.961 . S
H1120 C1104 0.931 . S
H1121 C1109 0.930 . S
H1122 C1110 0.956 . S
H1123 C1110 0.961 . S
H1124 C1110 0.961 . S
H1125 C1111 0.958 . S
H1126 C1111 0.961 . S
H1127 C1111 0.960 . S
C1128 C1129 1.391 . S
C1128 C1130 1.394 . S
C1128 H1144 0.931 . S
C1129 C1128 1.391 . S
C1129 C1133 1.376 . S
C1130 C1128 1.394 . S
C1130 C1131 1.369 . S
C1130 C1134 1.531 . S
C1131 C1130 1.369 . S
C1131 C1132 1.410 . S
C1131 C1139 1.503 . S
C1132 C1131 1.410 . S
C1132 C1133 1.392 . S
C1132 C1135 1.511 . S
C1133 C1129 1.376 . S
C1133 C1132 1.392 . S
C1133 H1145 0.929 . S
C1134 C1130 1.531 . S
C1134 H1146 0.960 . S
C1134 H1147 0.962 . S
C1134 H1148 0.960 . S
C1135 C1132 1.511 . S
C1135 H1149 0.961 . S
C1135 H1150 0.961 . S
C1135 H1151 0.961 . S
C1136 C1137 1.370 . S
C1136 C1138 1.363 . S
C1136 H1152 0.931 . S
C1137 C1136 1.370 . S
C1137 C1141 1.408 . S
C1138 C1136 1.363 . S
C1138 C1139 1.370 . S
C1138 C1142 1.524 . S
C1139 C1131 1.503 . S
C1139 C1138 1.370 . S
C1139 C1140 1.403 . S
C1140 C1139 1.403 . S
C1140 C1141 1.404 . S
C1140 C1143 1.539 . S
C1141 C1137 1.408 . S
C1141 C1140 1.404 . S
C1141 H1153 0.930 . S
C1142 C1138 1.524 . S
C1142 H1154 0.956 . S
C1142 H1155 0.961 . S
C1142 H1156 0.961 . S
C1143 C1140 1.539 . S
C1143 H1157 0.958 . S
C1143 H1158 0.961 . S
C1143 H1159 0.960 . S
H1144 C1128 0.931 . S
H1145 C1133 0.929 . S
H1146 C1134 0.960 . S
H1147 C1134 0.962 . S
H1148 C1134 0.960 . S
H1149 C1135 0.961 . S
H1150 C1135 0.961 . S
H1151 C1135 0.961 . S
H1152 C1136 0.931 . S
H1153 C1141 0.930 . S
H1154 C1142 0.956 . S
H1155 C1142 0.961 . S
H1156 C1142 0.961 . S
H1157 C1143 0.958 . S
H1158 C1143 0.961 . S
H1159 C1143 0.960 . S
C1160 C1161 1.391 . S
C1160 C1162 1.394 . S
C1160 H1176 0.931 . S
C1161 C1160 1.391 . S
C1161 C1165 1.376 . S
C1162 C1160 1.394 . S
C1162 C1163 1.369 . S
C1162 C1166 1.531 . S
C1163 C1162 1.369 . S
C1163 C1164 1.410 . S
C1163 C1171 1.503 . S
C1164 C1163 1.410 . S
C1164 C1165 1.392 . S
C1164 C1167 1.511 . S
C1165 C1161 1.376 . S
C1165 C1164 1.392 . S
C1165 H1177 0.929 . S
C1166 C1162 1.531 . S
C1166 H1178 0.960 . S
C1166 H1179 0.962 . S
C1166 H1180 0.960 . S
C1167 C1164 1.511 . S
C1167 H1181 0.961 . S
C1167 H1182 0.961 . S
C1167 H1183 0.961 . S
C1168 C1169 1.370 . S
C1168 C1170 1.363 . S
C1168 H1184 0.931 . S
C1169 C1168 1.370 . S
C1169 C1173 1.408 . S
C1170 C1168 1.363 . S
C1170 C1171 1.370 . S
C1170 C1174 1.524 . S
C1171 C1163 1.503 . S
C1171 C1170 1.370 . S
C1171 C1172 1.403 . S
C1172 C1171 1.403 . S
C1172 C1173 1.404 . S
C1172 C1175 1.539 . S
C1173 C1169 1.408 . S
C1173 C1172 1.404 . S
C1173 H1185 0.930 . S
C1174 C1170 1.524 . S
C1174 H1186 0.956 . S
C1174 H1187 0.961 . S
C1174 H1188 0.961 . S
C1175 C1172 1.539 . S
C1175 H1189 0.958 . S
C1175 H1190 0.961 . S
C1175 H1191 0.960 . S
H1176 C1160 0.931 . S
H1177 C1165 0.929 . S
H1178 C1166 0.960 . S
H1179 C1166 0.962 . S
H1180 C1166 0.960 . S
H1181 C1167 0.961 . S
H1182 C1167 0.961 . S
H1183 C1167 0.961 . S
H1184 C1168 0.931 . S
H1185 C1173 0.930 . S
H1186 C1174 0.956 . S
H1187 C1174 0.961 . S
H1188 C1174 0.961 . S
H1189 C1175 0.958 . S
H1190 C1175 0.961 . S
H1191 C1175 0.960 . S
C1192 C1193 1.391 . S
C1192 C1194 1.394 . S
C1192 H1208 0.931 . S
C1193 C1192 1.391 . S
C1193 C1197 1.376 . S
C1194 C1192 1.394 . S
C1194 C1195 1.369 . S
C1194 C1198 1.531 . S
C1195 C1194 1.369 . S
C1195 C1196 1.410 . S
C1195 C1203 1.503 . S
C1196 C1195 1.410 . S
C1196 C1197 1.392 . S
C1196 C1199 1.511 . S
C1197 C1193 1.376 . S
C1197 C1196 1.392 . S
C1197 H1209 0.929 . S
C1198 C1194 1.531 . S
C1198 H1210 0.960 . S
C1198 H1211 0.962 . S
C1198 H1212 0.960 . S
C1199 C1196 1.511 . S
C1199 H1213 0.961 . S
C1199 H1214 0.961 . S
C1199 H1215 0.961 . S
C1200 C1201 1.370 . S
C1200 C1202 1.363 . S
C1200 H1216 0.931 . S
C1201 C1200 1.370 . S
C1201 C1205 1.408 . S
C1202 C1200 1.363 . S
C1202 C1203 1.370 . S
C1202 C1206 1.524 . S
C1203 C1195 1.503 . S
C1203 C1202 1.370 . S
C1203 C1204 1.403 . S
C1204 C1203 1.403 . S
C1204 C1205 1.404 . S
C1204 C1207 1.539 . S
C1205 C1201 1.408 . S
C1205 C1204 1.404 . S
C1205 H1217 0.930 . S
C1206 C1202 1.524 . S
C1206 H1218 0.956 . S
C1206 H1219 0.961 . S
C1206 H1220 0.961 . S
C1207 C1204 1.539 . S
C1207 H1221 0.958 . S
C1207 H1222 0.961 . S
C1207 H1223 0.960 . S
H1208 C1192 0.931 . S
H1209 C1197 0.929 . S
H1210 C1198 0.960 . S
H1211 C1198 0.962 . S
H1212 C1198 0.960 . S
H1213 C1199 0.961 . S
H1214 C1199 0.961 . S
H1215 C1199 0.961 . S
H1216 C1200 0.931 . S
H1217 C1205 0.930 . S
H1218 C1206 0.956 . S
H1219 C1206 0.961 . S
H1220 C1206 0.961 . S
H1221 C1207 0.958 . S
H1222 C1207 0.961 . S
H1223 C1207 0.960 . S
C1224 C1225 1.391 . S
C1224 C1226 1.394 . S
C1224 H1240 0.931 . S
C1225 C1224 1.391 . S
C1225 C1229 1.376 . S
C1226 C1224 1.394 . S
C1226 C1227 1.369 . S
C1226 C1230 1.531 . S
C1227 C1226 1.369 . S
C1227 C1228 1.410 . S
C1227 C1235 1.503 . S
C1228 C1227 1.410 . S
C1228 C1229 1.392 . S
C1228 C1231 1.511 . S
C1229 C1225 1.376 . S
C1229 C1228 1.392 . S
C1229 H1241 0.929 . S
C1230 C1226 1.531 . S
C1230 H1242 0.960 . S
C1230 H1243 0.962 . S
C1230 H1244 0.960 . S
C1231 C1228 1.511 . S
C1231 H1245 0.961 . S
C1231 H1246 0.961 . S
C1231 H1247 0.961 . S
C1232 C1233 1.370 . S
C1232 C1234 1.363 . S
C1232 H1248 0.931 . S
C1233 C1232 1.370 . S
C1233 C1237 1.408 . S
C1234 C1232 1.363 . S
C1234 C1235 1.370 . S
C1234 C1238 1.524 . S
C1235 C1227 1.503 . S
C1235 C1234 1.370 . S
C1235 C1236 1.403 . S
C1236 C1235 1.403 . S
C1236 C1237 1.404 . S
C1236 C1239 1.539 . S
C1237 C1233 1.408 . S
C1237 C1236 1.404 . S
C1237 H1249 0.930 . S
C1238 C1234 1.524 . S
C1238 H1250 0.956 . S
C1238 H1251 0.961 . S
C1238 H1252 0.961 . S
C1239 C1236 1.539 . S
C1239 H1253 0.958 . S
C1239 H1254 0.961 . S
C1239 H1255 0.960 . S
H1240 C1224 0.931 . S
H1241 C1229 0.929 . S
H1242 C1230 0.960 . S
H1243 C1230 0.962 . S
H1244 C1230 0.960 . S
H1245 C1231 0.961 . S
H1246 C1231 0.961 . S
H1247 C1231 0.961 . S
H1248 C1232 0.931 . S
H1249 C1237 0.930 . S
H1250 C1238 0.956 . S
H1251 C1238 0.961 . S
H1252 C1238 0.961 . S
H1253 C1239 0.958 . S
H1254 C1239 0.961 . S
H1255 C1239 0.960 . S
C1256 C1257 1.391 . S
C1256 C1258 1.394 . S
C1256 H1272 0.931 . S
C1257 C1256 1.391 . S
C1257 C1261 1.376 . S
C1258 C1256 1.394 . S
C1258 C1259 1.369 . S
C1258 C1262 1.531 . S
C1259 C1258 1.369 . S
C1259 C1260 1.410 . S
C1259 C1267 1.503 . S
C1260 C1259 1.410 . S
C1260 C1261 1.392 . S
C1260 C1263 1.511 . S
C1261 C1257 1.376 . S
C1261 C1260 1.392 . S
C1261 H1273 0.929 . S
C1262 C1258 1.531 . S
C1262 H1274 0.960 . S
C1262 H1275 0.962 . S
C1262 H1276 0.960 . S
C1263 C1260 1.511 . S
C1263 H1277 0.961 . S
C1263 H1278 0.961 . S
C1263 H1279 0.961 . S
C1264 C1265 1.370 . S
C1264 C1266 1.363 . S
C1264 H1280 0.931 . S
C1265 C1264 1.370 . S
C1265 C1269 1.408 . S
C1266 C1264 1.363 . S
C1266 C1267 1.370 . S
C1266 C1270 1.524 . S
C1267 C1259 1.503 . S
C1267 C1266 1.370 . S
C1267 C1268 1.403 . S
C1268 C1267 1.403 . S
C1268 C1269 1.404 . S
C1268 C1271 1.539 . S
C1269 C1265 1.408 . S
C1269 C1268 1.404 . S
C1269 H1281 0.930 . S
C1270 C1266 1.524 . S
C1270 H1282 0.956 . S
C1270 H1283 0.961 . S
C1270 H1284 0.961 . S
C1271 C1268 1.539 . S
C1271 H1285 0.958 . S
C1271 H1286 0.961 . S
C1271 H1287 0.960 . S
H1272 C1256 0.931 . S
H1273 C1261 0.929 . S
H1274 C1262 0.960 . S
H1275 C1262 0.962 . S
H1276 C1262 0.960 . S
H1277 C1263 0.961 . S
H1278 C1263 0.961 . S
H1279 C1263 0.961 . S
H1280 C1264 0.931 . S
H1281 C1269 0.930 . S
H1282 C1270 0.956 . S
H1283 C1270 0.961 . S
H1284 C1270 0.961 . S
H1285 C1271 0.958 . S
H1286 C1271 0.961 . S
H1287 C1271 0.960 . S
C1288 C1289 1.391 . S
C1288 C1290 1.394 . S
C1288 H1304 0.931 . S
C1289 C1288 1.391 . S
C1289 C1293 1.376 . S
C1290 C1288 1.394 . S
C1290 C1291 1.369 . S
C1290 C1294 1.531 . S
C1291 C1290 1.369 . S
C1291 C1292 1.410 . S
C1291 C1299 1.503 . S
C1292 C1291 1.410 . S
C1292 C1293 1.392 . S
C1292 C1295 1.511 . S
C1293 C1289 1.376 . S
C1293 C1292 1.392 . S
C1293 H1305 0.929 . S
C1294 C1290 1.531 . S
C1294 H1306 0.960 . S
C1294 H1307 0.962 . S
C1294 H1308 0.960 . S
C1295 C1292 1.511 . S
C1295 H1309 0.961 . S
C1295 H1310 0.961 . S
C1295 H1311 0.961 . S
C1296 C1297 1.370 . S
C1296 C1298 1.363 . S
C1296 H1312 0.931 . S
C1297 C1296 1.370 . S
C1297 C1301 1.408 . S
C1298 C1296 1.363 . S
C1298 C1299 1.370 . S
C1298 C1302 1.524 . S
C1299 C1291 1.503 . S
C1299 C1298 1.370 . S
C1299 C1300 1.403 . S
C1300 C1299 1.403 . S
C1300 C1301 1.404 . S
C1300 C1303 1.539 . S
C1301 C1297 1.408 . S
C1301 C1300 1.404 . S
C1301 H1313 0.930 . S
C1302 C1298 1.524 . S
C1302 H1314 0.956 . S
C1302 H1315 0.961 . S
C1302 H1316 0.961 . S
C1303 C1300 1.539 . S
C1303 H1317 0.958 . S
C1303 H1318 0.961 . S
C1303 H1319 0.960 . S
H1304 C1288 0.931 . S
H1305 C1293 0.929 . S
H1306 C1294 0.960 . S
H1307 C1294 0.962 . S
H1308 C1294 0.960 . S
H1309 C1295 0.961 . S
H1310 C1295 0.961 . S
H1311 C1295 0.961 . S
H1312 C1296 0.931 . S
H1313 C1301 0.930 . S
H1314 C1302 0.956 . S
H1315 C1302 0.961 . S
H1316 C1302 0.961 . S
H1317 C1303 0.958 . S
H1318 C1303 0.961 . S
H1319 C1303 0.960 . S
C1320 C1321 1.391 . S
C1320 C1322 1.394 . S
C1320 H1336 0.931 . S
C1321 C1320 1.391 . S
C1321 C1325 1.376 . S
C1322 C1320 1.394 . S
C1322 C1323 1.369 . S
C1322 C1326 1.531 . S
C1323 C1322 1.369 . S
C1323 C1324 1.410 . S
C1323 C1331 1.503 . S
C1324 C1323 1.410 . S
C1324 C1325 1.392 . S
C1324 C1327 1.511 . S
C1325 C1321 1.376 . S
C1325 C1324 1.392 . S
C1325 H1337 0.929 . S
C1326 C1322 1.531 . S
C1326 H1338 0.960 . S
C1326 H1339 0.962 . S
C1326 H1340 0.960 . S
C1327 C1324 1.511 . S
C1327 H1341 0.961 . S
C1327 H1342 0.961 . S
C1327 H1343 0.961 . S
C1328 C1329 1.370 . S
C1328 C1330 1.363 . S
C1328 H1344 0.931 . S
C1329 C1328 1.370 . S
C1329 C1333 1.408 . S
C1330 C1328 1.363 . S
C1330 C1331 1.370 . S
C1330 C1334 1.524 . S
C1331 C1323 1.503 . S
C1331 C1330 1.370 . S
C1331 C1332 1.403 . S
C1332 C1331 1.403 . S
C1332 C1333 1.404 . S
C1332 C1335 1.539 . S
C1333 C1329 1.408 . S
C1333 C1332 1.404 . S
C1333 H1345 0.930 . S
C1334 C1330 1.524 . S
C1334 H1346 0.956 . S
C1334 H1347 0.961 . S
C1334 H1348 0.961 . S
C1335 C1332 1.539 . S
C1335 H1349 0.958 . S
C1335 H1350 0.961 . S
C1335 H1351 0.960 . S
H1336 C1320 0.931 . S
H1337 C1325 0.929 . S
H1338 C1326 0.960 . S
H1339 C1326 0.962 . S
H1340 C1326 0.960 . S
H1341 C1327 0.961 . S
H1342 C1327 0.961 . S
H1343 C1327 0.961 . S
H1344 C1328 0.931 . S
H1345 C1333 0.930 . S
H1346 C1334 0.956 . S
H1347 C1334 0.961 . S
H1348 C1334 0.961 . S
H1349 C1335 0.958 . S
H1350 C1335 0.961 . S
H1351 C1335 0.960 . S
C1352 C1353 1.391 . S
C1352 C1354 1.394 . S
C1352 H1368 0.931 . S
C1353 C1352 1.391 . S
C1353 C1357 1.376 . S
C1354 C1352 1.394 . S
C1354 C1355 1.369 . S
C1354 C1358 1.531 . S
C1355 C1354 1.369 . S
C1355 C1356 1.410 . S
C1355 C1363 1.503 . S
C1356 C1355 1.410 . S
C1356 C1357 1.392 . S
C1356 C1359 1.511 . S
C1357 C1353 1.376 . S
C1357 C1356 1.392 . S
C1357 H1369 0.929 . S
C1358 C1354 1.531 . S
C1358 H1370 0.960 . S
C1358 H1371 0.962 . S
C1358 H1372 0.960 . S
C1359 C1356 1.511 . S
C1359 H1373 0.961 . S
C1359 H1374 0.961 . S
C1359 H1375 0.961 . S
C1360 C1361 1.370 . S
C1360 C1362 1.363 . S
C1360 H1376 0.931 . S
C1361 C1360 1.370 . S
C1361 C1365 1.408 . S
C1362 C1360 1.363 . S
C1362 C1363 1.370 . S
C1362 C1366 1.524 . S
C1363 C1355 1.503 . S
C1363 C1362 1.370 . S
C1363 C1364 1.403 . S
C1364 C1363 1.403 . S
C1364 C1365 1.404 . S
C1364 C1367 1.539 . S
C1365 C1361 1.408 . S
C1365 C1364 1.404 . S
C1365 H1377 0.930 . S
C1366 C1362 1.524 . S
C1366 H1378 0.956 . S
C1366 H1379 0.961 . S
C1366 H1380 0.961 . S
C1367 C1364 1.539 . S
C1367 H1381 0.958 . S
C1367 H1382 0.961 . S
C1367 H1383 0.960 . S
H1368 C1352 0.931 . S
H1369 C1357 0.929 . S
H1370 C1358 0.960 . S
H1371 C1358 0.962 . S
H1372 C1358 0.960 . S
H1373 C1359 0.961 . S
H1374 C1359 0.961 . S
H1375 C1359 0.961 . S
H1376 C1360 0.931 . S
H1377 C1365 0.930 . S
H1378 C1366 0.956 . S
H1379 C1366 0.961 . S
H1380 C1366 0.961 . S
H1381 C1367 0.958 . S
H1382 C1367 0.961 . S
H1383 C1367 0.960 . S
C1384 C1385 1.391 . S
C1384 C1386 1.394 . S
C1384 H1400 0.931 . S
C1385 C1384 1.391 . S
C1385 C1389 1.376 . S
C1386 C1384 1.394 . S
C1386 C1387 1.369 . S
C1386 C1390 1.531 . S
C1387 C1386 1.369 . S
C1387 C1388 1.410 . S
C1387 C1395 1.503 . S
C1388 C1387 1.410 . S
C1388 C1389 1.392 . S
C1388 C1391 1.511 . S
C1389 C1385 1.376 . S
C1389 C1388 1.392 . S
C1389 H1401 0.929 . S
C1390 C1386 1.531 . S
C1390 H1402 0.960 . S
C1390 H1403 0.962 . S
C1390 H1404 0.960 . S
C1391 C1388 1.511 . S
C1391 H1405 0.961 . S
C1391 H1406 0.961 . S
C1391 H1407 0.961 . S
C1392 C1393 1.370 . S
C1392 C1394 1.363 . S
C1392 H1408 0.931 . S
C1393 C1392 1.370 . S
C1393 C1397 1.408 . S
C1394 C1392 1.363 . S
C1394 C1395 1.370 . S
C1394 C1398 1.524 . S
C1395 C1387 1.503 . S
C1395 C1394 1.370 . S
C1395 C1396 1.403 . S
C1396 C1395 1.403 . S
C1396 C1397 1.404 . S
C1396 C1399 1.539 . S
C1397 C1393 1.408 . S
C1397 C1396 1.404 . S
C1397 H1409 0.930 . S
C1398 C1394 1.524 . S
C1398 H1410 0.956 . S
C1398 H1411 0.961 . S
C1398 H1412 0.961 . S
C1399 C1396 1.539 . S
C1399 H1413 0.958 . S
C1399 H1414 0.961 . S
C1399 H1415 0.960 . S
H1400 C1384 0.931 . S
H1401 C1389 0.929 . S
H1402 C1390 0.960 . S
H1403 C1390 0.962 . S
H1404 C1390 0.960 . S
H1405 C1391 0.961 . S
H1406 C1391 0.961 . S
H1407 C1391 0.961 . S
H1408 C1392 0.931 . S
H1409 C1397 0.930 . S
H1410 C1398 0.956 . S
H1411 C1398 0.961 . S
H1412 C1398 0.961 . S
H1413 C1399 0.958 . S
H1414 C1399 0.961 . S
H1415 C1399 0.960 . S
C1416 C1417 1.391 . S
C1416 C1418 1.394 . S
C1416 H1432 0.931 . S
C1417 C1416 1.391 . S
C1417 C1421 1.376 . S
C1418 C1416 1.394 . S
C1418 C1419 1.369 . S
C1418 C1422 1.531 . S
C1419 C1418 1.369 . S
C1419 C1420 1.410 . S
C1419 C1427 1.503 . S
C1420 C1419 1.410 . S
C1420 C1421 1.392 . S
C1420 C1423 1.511 . S
C1421 C1417 1.376 . S
C1421 C1420 1.392 . S
C1421 H1433 0.929 . S
C1422 C1418 1.531 . S
C1422 H1434 0.960 . S
C1422 H1435 0.962 . S
C1422 H1436 0.960 . S
C1423 C1420 1.511 . S
C1423 H1437 0.961 . S
C1423 H1438 0.961 . S
C1423 H1439 0.961 . S
C1424 C1425 1.370 . S
C1424 C1426 1.363 . S
C1424 H1440 0.931 1_655 S
C1425 C1424 1.370 . S
C1425 C1429 1.408 . S
C1426 C1424 1.363 . S
C1426 C1427 1.370 . S
C1426 C1430 1.524 . S
C1427 C1419 1.503 . S
C1427 C1426 1.370 . S
C1427 C1428 1.403 . S
C1428 C1427 1.403 . S
C1428 C1429 1.404 . S
C1428 C1431 1.539 . S
C1429 C1425 1.408 . S
C1429 C1428 1.404 . S
C1429 H1441 0.930 . S
C1430 C1426 1.524 . S
C1430 H1442 0.956 . S
C1430 H1443 0.961 . S
C1430 H1444 0.961 . S
C1431 C1428 1.539 . S
C1431 H1445 0.958 . S
C1431 H1446 0.961 . S
C1431 H1447 0.960 . S
H1432 C1416 0.931 . S
H1433 C1421 0.929 . S
H1434 C1422 0.960 . S
H1435 C1422 0.962 . S
H1436 C1422 0.960 . S
H1437 C1423 0.961 . S
H1438 C1423 0.961 . S
H1439 C1423 0.961 . S
H1440 C1424 0.931 1_455 S
H1441 C1429 0.930 . S
H1442 C1430 0.956 . S
H1443 C1430 0.961 . S
H1444 C1430 0.961 . S
H1445 C1431 0.958 . S
H1446 C1431 0.961 . S
H1447 C1431 0.960 . S
C1448 C1449 1.391 . S
C1448 C1450 1.394 . S
C1448 H1464 0.931 . S
C1449 C1448 1.391 . S
C1449 C1453 1.376 . S
C1450 C1448 1.394 . S
C1450 C1451 1.369 . S
C1450 C1454 1.531 . S
C1451 C1450 1.369 . S
C1451 C1452 1.410 . S
C1451 C1459 1.503 . S
C1452 C1451 1.410 . S
C1452 C1453 1.392 . S
C1452 C1455 1.511 . S
C1453 C1449 1.376 . S
C1453 C1452 1.392 . S
C1453 H1465 0.929 . S
C1454 C1450 1.531 . S
C1454 H1466 0.960 . S
C1454 H1467 0.962 . S
C1454 H1468 0.960 . S
C1455 C1452 1.511 . S
C1455 H1469 0.961 . S
C1455 H1470 0.961 . S
C1455 H1471 0.961 . S
C1456 C1457 1.370 . S
C1456 C1458 1.363 . S
C1456 H1472 0.931 . S
C1457 C1456 1.370 . S
C1457 C1461 1.408 . S
C1458 C1456 1.363 . S
C1458 C1459 1.370 . S
C1458 C1462 1.524 . S
C1459 C1451 1.503 . S
C1459 C1458 1.370 . S
C1459 C1460 1.403 . S
C1460 C1459 1.403 . S
C1460 C1461 1.404 . S
C1460 C1463 1.539 . S
C1461 C1457 1.408 . S
C1461 C1460 1.404 . S
C1461 H1473 0.930 1_565 S
C1462 C1458 1.524 . S
C1462 H1474 0.956 . S
C1462 H1475 0.961 . S
C1462 H1476 0.961 . S
C1463 C1460 1.539 . S
C1463 H1477 0.958 . S
C1463 H1478 0.961 . S
C1463 H1479 0.960 . S
H1464 C1448 0.931 . S
H1465 C1453 0.929 . S
H1466 C1454 0.960 . S
H1467 C1454 0.962 . S
H1468 C1454 0.960 . S
H1469 C1455 0.961 . S
H1470 C1455 0.961 . S
H1471 C1455 0.961 . S
H1472 C1456 0.931 . S
H1473 C1461 0.930 1_545 S
H1474 C1462 0.956 . S
H1475 C1462 0.961 . S
H1476 C1462 0.961 . S
H1477 C1463 0.958 . S
H1478 C1463 0.961 . S
H1479 C1463 0.960 . S
C1480 C1481 1.391 . S
C1480 C1482 1.394 . S
C1480 H1496 0.931 . S
C1481 C1480 1.391 . S
C1481 C1485 1.376 . S
C1482 C1480 1.394 . S
C1482 C1483 1.369 . S
C1482 C1486 1.531 . S
C1483 C1482 1.369 . S
C1483 C1484 1.410 . S
C1483 C1491 1.503 . S
C1484 C1483 1.410 . S
C1484 C1485 1.392 . S
C1484 C1487 1.511 . S
C1485 C1481 1.376 . S
C1485 C1484 1.392 . S
C1485 H1497 0.929 . S
C1486 C1482 1.531 . S
C1486 H1498 0.960 . S
C1486 H1499 0.962 . S
C1486 H1500 0.960 . S
C1487 C1484 1.511 . S
C1487 H1501 0.961 . S
C1487 H1502 0.961 . S
C1487 H1503 0.961 . S
C1488 C1489 1.370 . S
C1488 C1490 1.363 . S
C1488 H1504 0.931 . S
C1489 C1488 1.370 . S
C1489 C1493 1.408 . S
C1490 C1488 1.363 . S
C1490 C1491 1.370 . S
C1490 C1494 1.524 . S
C1491 C1483 1.503 . S
C1491 C1490 1.370 . S
C1491 C1492 1.403 . S
C1492 C1491 1.403 . S
C1492 C1493 1.404 . S
C1492 C1495 1.539 . S
C1493 C1489 1.408 . S
C1493 C1492 1.404 . S
C1493 H1505 0.930 . S
C1494 C1490 1.524 . S
C1494 H1506 0.956 . S
C1494 H1507 0.961 . S
C1494 H1508 0.961 . S
C1495 C1492 1.539 . S
C1495 H1509 0.958 . S
C1495 H1510 0.961 . S
C1495 H1511 0.960 . S
H1496 C1480 0.931 . S
H1497 C1485 0.929 . S
H1498 C1486 0.960 . S
H1499 C1486 0.962 . S
H1500 C1486 0.960 . S
H1501 C1487 0.961 . S
H1502 C1487 0.961 . S
H1503 C1487 0.961 . S
H1504 C1488 0.931 . S
H1505 C1493 0.930 . S
H1506 C1494 0.956 . S
H1507 C1494 0.961 . S
H1508 C1494 0.961 . S
H1509 C1495 0.958 . S
H1510 C1495 0.961 . S
H1511 C1495 0.960 . S
C1512 C1513 1.391 . S
C1512 C1514 1.394 . S
C1512 H1528 0.931 . S
C1513 C1512 1.391 . S
C1513 C1517 1.376 . S
C1514 C1512 1.394 . S
C1514 C1515 1.369 . S
C1514 C1518 1.531 . S
C1515 C1514 1.369 . S
C1515 C1516 1.410 . S
C1515 C1523 1.503 . S
C1516 C1515 1.410 . S
C1516 C1517 1.392 . S
C1516 C1519 1.511 . S
C1517 C1513 1.376 . S
C1517 C1516 1.392 . S
C1517 H1529 0.929 . S
C1518 C1514 1.531 . S
C1518 H1530 0.960 . S
C1518 H1531 0.962 . S
C1518 H1532 0.960 . S
C1519 C1516 1.511 . S
C1519 H1533 0.961 . S
C1519 H1534 0.961 . S
C1519 H1535 0.961 . S
C1520 C1521 1.370 . S
C1520 C1522 1.363 . S
C1520 H1536 0.931 . S
C1521 C1520 1.370 . S
C1521 C1525 1.408 . S
C1522 C1520 1.363 . S
C1522 C1523 1.370 . S
C1522 C1526 1.524 . S
C1523 C1515 1.503 . S
C1523 C1522 1.370 . S
C1523 C1524 1.403 . S
C1524 C1523 1.403 . S
C1524 C1525 1.404 . S
C1524 C1527 1.539 . S
C1525 C1521 1.408 . S
C1525 C1524 1.404 . S
C1525 H1537 0.930 . S
C1526 C1522 1.524 . S
C1526 H1538 0.956 . S
C1526 H1539 0.961 . S
C1526 H1540 0.961 . S
C1527 C1524 1.539 . S
C1527 H1541 0.958 . S
C1527 H1542 0.961 . S
C1527 H1543 0.960 . S
H1528 C1512 0.931 . S
H1529 C1517 0.929 . S
H1530 C1518 0.960 . S
H1531 C1518 0.962 . S
H1532 C1518 0.960 . S
H1533 C1519 0.961 . S
H1534 C1519 0.961 . S
H1535 C1519 0.961 . S
H1536 C1520 0.931 . S
H1537 C1525 0.930 . S
H1538 C1526 0.956 . S
H1539 C1526 0.961 . S
H1540 C1526 0.961 . S
H1541 C1527 0.958 . S
H1542 C1527 0.961 . S
H1543 C1527 0.960 . S
C1544 C1545 1.391 . S
C1544 C1546 1.394 . S
C1544 H1560 0.931 . S
C1545 C1544 1.391 . S
C1545 C1549 1.376 . S
C1546 C1544 1.394 . S
C1546 C1547 1.369 . S
C1546 C1550 1.531 . S
C1547 C1546 1.369 . S
C1547 C1548 1.410 . S
C1547 C1555 1.503 . S
C1548 C1547 1.410 . S
C1548 C1549 1.392 . S
C1548 C1551 1.511 . S
C1549 C1545 1.376 . S
C1549 C1548 1.392 . S
C1549 H1561 0.929 . S
C1550 C1546 1.531 . S
C1550 H1562 0.960 . S
C1550 H1563 0.962 . S
C1550 H1564 0.960 . S
C1551 C1548 1.511 . S
C1551 H1565 0.961 . S
C1551 H1566 0.961 . S
C1551 H1567 0.961 . S
C1552 C1553 1.370 . S
C1552 C1554 1.363 . S
C1552 H1568 0.931 . S
C1553 C1552 1.370 . S
C1553 C1557 1.408 . S
C1554 C1552 1.363 . S
C1554 C1555 1.370 . S
C1554 C1558 1.524 . S
C1555 C1547 1.503 . S
C1555 C1554 1.370 . S
C1555 C1556 1.403 . S
C1556 C1555 1.403 . S
C1556 C1557 1.404 . S
C1556 C1559 1.539 . S
C1557 C1553 1.408 . S
C1557 C1556 1.404 . S
C1557 H1569 0.930 . S
C1558 C1554 1.524 . S
C1558 H1570 0.956 . S
C1558 H1571 0.961 . S
C1558 H1572 0.961 . S
C1559 C1556 1.539 . S
C1559 H1573 0.958 . S
C1559 H1574 0.961 . S
C1559 H1575 0.960 . S
H1560 C1544 0.931 . S
H1561 C1549 0.929 . S
H1562 C1550 0.960 . S
H1563 C1550 0.962 . S
H1564 C1550 0.960 . S
H1565 C1551 0.961 . S
H1566 C1551 0.961 . S
H1567 C1551 0.961 . S
H1568 C1552 0.931 . S
H1569 C1557 0.930 . S
H1570 C1558 0.956 . S
H1571 C1558 0.961 . S
H1572 C1558 0.961 . S
H1573 C1559 0.958 . S
H1574 C1559 0.961 . S
H1575 C1559 0.960 . S
C1576 C1577 1.391 . S
C1576 C1578 1.394 . S
C1576 H1592 0.931 . S
C1577 C1576 1.391 . S
C1577 C1581 1.376 . S
C1578 C1576 1.394 . S
C1578 C1579 1.369 . S
C1578 C1582 1.531 . S
C1579 C1578 1.369 . S
C1579 C1580 1.410 . S
C1579 C1587 1.503 . S
C1580 C1579 1.410 . S
C1580 C1581 1.392 . S
C1580 C1583 1.511 . S
C1581 C1577 1.376 . S
C1581 C1580 1.392 . S
C1581 H1593 0.929 . S
C1582 C1578 1.531 . S
C1582 H1594 0.960 . S
C1582 H1595 0.962 . S
C1582 H1596 0.960 . S
C1583 C1580 1.511 . S
C1583 H1597 0.961 . S
C1583 H1598 0.961 . S
C1583 H1599 0.961 . S
C1584 C1585 1.370 . S
C1584 C1586 1.363 . S
C1584 H1600 0.931 . S
C1585 C1584 1.370 . S
C1585 C1589 1.408 . S
C1586 C1584 1.363 . S
C1586 C1587 1.370 . S
C1586 C1590 1.524 . S
C1587 C1579 1.503 . S
C1587 C1586 1.370 . S
C1587 C1588 1.403 . S
C1588 C1587 1.403 . S
C1588 C1589 1.404 . S
C1588 C1591 1.539 . S
C1589 C1585 1.408 . S
C1589 C1588 1.404 . S
C1589 H1601 0.930 . S
C1590 C1586 1.524 . S
C1590 H1602 0.956 . S
C1590 H1603 0.961 . S
C1590 H1604 0.961 . S
C1591 C1588 1.539 . S
C1591 H1605 0.958 . S
C1591 H1606 0.961 . S
C1591 H1607 0.960 . S
H1592 C1576 0.931 . S
H1593 C1581 0.929 . S
H1594 C1582 0.960 . S
H1595 C1582 0.962 . S
H1596 C1582 0.960 . S
H1597 C1583 0.961 . S
H1598 C1583 0.961 . S
H1599 C1583 0.961 . S
H1600 C1584 0.931 . S
H1601 C1589 0.930 . S
H1602 C1590 0.956 . S
H1603 C1590 0.961 . S
H1604 C1590 0.961 . S
H1605 C1591 0.958 . S
H1606 C1591 0.961 . S
H1607 C1591 0.960 . S
C1608 C1609 1.391 . S
C1608 C1610 1.394 . S
C1608 H1624 0.931 . S
C1609 C1608 1.391 . S
C1609 C1613 1.376 . S
C1610 C1608 1.394 . S
C1610 C1611 1.369 . S
C1610 C1614 1.531 . S
C1611 C1610 1.369 . S
C1611 C1612 1.410 . S
C1611 C1619 1.503 . S
C1612 C1611 1.410 . S
C1612 C1613 1.392 . S
C1612 C1615 1.511 . S
C1613 C1609 1.376 . S
C1613 C1612 1.392 . S
C1613 H1625 0.929 . S
C1614 C1610 1.531 . S
C1614 H1626 0.960 . S
C1614 H1627 0.962 . S
C1614 H1628 0.960 . S
C1615 C1612 1.511 . S
C1615 H1629 0.961 . S
C1615 H1630 0.961 . S
C1615 H1631 0.961 . S
C1616 C1617 1.370 . S
C1616 C1618 1.363 . S
C1616 H1632 0.931 . S
C1617 C1616 1.370 . S
C1617 C1621 1.408 . S
C1618 C1616 1.363 . S
C1618 C1619 1.370 . S
C1618 C1622 1.524 . S
C1619 C1611 1.503 . S
C1619 C1618 1.370 . S
C1619 C1620 1.403 . S
C1620 C1619 1.403 . S
C1620 C1621 1.404 . S
C1620 C1623 1.539 . S
C1621 C1617 1.408 . S
C1621 C1620 1.404 . S
C1621 H1633 0.930 . S
C1622 C1618 1.524 . S
C1622 H1634 0.956 . S
C1622 H1635 0.961 . S
C1622 H1636 0.961 . S
C1623 C1620 1.539 . S
C1623 H1637 0.958 . S
C1623 H1638 0.961 . S
C1623 H1639 0.960 . S
H1624 C1608 0.931 . S
H1625 C1613 0.929 . S
H1626 C1614 0.960 . S
H1627 C1614 0.962 . S
H1628 C1614 0.960 . S
H1629 C1615 0.961 . S
H1630 C1615 0.961 . S
H1631 C1615 0.961 . S
H1632 C1616 0.931 . S
H1633 C1621 0.930 . S
H1634 C1622 0.956 . S
H1635 C1622 0.961 . S
H1636 C1622 0.961 . S
H1637 C1623 0.958 . S
H1638 C1623 0.961 . S
H1639 C1623 0.960 . S
C1640 C1641 1.391 . S
C1640 C1642 1.394 . S
C1640 H1656 0.931 . S
C1641 C1640 1.391 . S
C1641 C1645 1.376 . S
C1642 C1640 1.394 . S
C1642 C1643 1.369 . S
C1642 C1646 1.531 . S
C1643 C1642 1.369 . S
C1643 C1644 1.410 . S
C1643 C1651 1.503 . S
C1644 C1643 1.410 . S
C1644 C1645 1.392 . S
C1644 C1647 1.511 . S
C1645 C1641 1.376 . S
C1645 C1644 1.392 . S
C1645 H1657 0.929 . S
C1646 C1642 1.531 . S
C1646 H1658 0.960 . S
C1646 H1659 0.962 . S
C1646 H1660 0.960 . S
C1647 C1644 1.511 . S
C1647 H1661 0.961 . S
C1647 H1662 0.961 . S
C1647 H1663 0.961 . S
C1648 C1649 1.370 . S
C1648 C1650 1.363 . S
C1648 H1664 0.931 . S
C1649 C1648 1.370 . S
C1649 C1653 1.408 . S
C1650 C1648 1.363 . S
C1650 C1651 1.370 . S
C1650 C1654 1.524 . S
C1651 C1643 1.503 . S
C1651 C1650 1.370 . S
C1651 C1652 1.403 . S
C1652 C1651 1.403 . S
C1652 C1653 1.404 . S
C1652 C1655 1.539 . S
C1653 C1649 1.408 . S
C1653 C1652 1.404 . S
C1653 H1665 0.930 . S
C1654 C1650 1.524 . S
C1654 H1666 0.956 . S
C1654 H1667 0.961 . S
C1654 H1668 0.961 . S
C1655 C1652 1.539 . S
C1655 H1669 0.958 . S
C1655 H1670 0.961 . S
C1655 H1671 0.960 . S
H1656 C1640 0.931 . S
H1657 C1645 0.929 . S
H1658 C1646 0.960 . S
H1659 C1646 0.962 . S
H1660 C1646 0.960 . S
H1661 C1647 0.961 . S
H1662 C1647 0.961 . S
H1663 C1647 0.961 . S
H1664 C1648 0.931 . S
H1665 C1653 0.930 . S
H1666 C1654 0.956 . S
H1667 C1654 0.961 . S
H1668 C1654 0.961 . S
H1669 C1655 0.958 . S
H1670 C1655 0.961 . S
H1671 C1655 0.960 . S
C1672 C1673 1.391 . S
C1672 C1674 1.394 . S
C1672 H1688 0.931 . S
C1673 C1672 1.391 . S
C1673 C1677 1.376 . S
C1674 C1672 1.394 . S
C1674 C1675 1.369 . S
C1674 C1678 1.531 . S
C1675 C1674 1.369 . S
C1675 C1676 1.410 . S
C1675 C1683 1.503 . S
C1676 C1675 1.410 . S
C1676 C1677 1.392 . S
C1676 C1679 1.511 . S
C1677 C1673 1.376 . S
C1677 C1676 1.392 . S
C1677 H1689 0.929 . S
C1678 C1674 1.531 . S
C1678 H1690 0.960 . S
C1678 H1691 0.962 . S
C1678 H1692 0.960 . S
C1679 C1676 1.511 . S
C1679 H1693 0.961 . S
C1679 H1694 0.961 . S
C1679 H1695 0.961 . S
C1680 C1681 1.370 . S
C1680 C1682 1.363 . S
C1680 H1696 0.931 . S
C1681 C1680 1.370 . S
C1681 C1685 1.408 . S
C1682 C1680 1.363 . S
C1682 C1683 1.370 . S
C1682 C1686 1.524 . S
C1683 C1675 1.503 . S
C1683 C1682 1.370 . S
C1683 C1684 1.403 . S
C1684 C1683 1.403 . S
C1684 C1685 1.404 . S
C1684 C1687 1.539 . S
C1685 C1681 1.408 . S
C1685 C1684 1.404 . S
C1685 H1697 0.930 . S
C1686 C1682 1.524 . S
C1686 H1698 0.956 . S
C1686 H1699 0.961 . S
C1686 H1700 0.961 . S
C1687 C1684 1.539 . S
C1687 H1701 0.958 . S
C1687 H1702 0.961 . S
C1687 H1703 0.960 . S
H1688 C1672 0.931 . S
H1689 C1677 0.929 . S
H1690 C1678 0.960 . S
H1691 C1678 0.962 . S
H1692 C1678 0.960 . S
H1693 C1679 0.961 . S
H1694 C1679 0.961 . S
H1695 C1679 0.961 . S
H1696 C1680 0.931 . S
H1697 C1685 0.930 . S
H1698 C1686 0.956 . S
H1699 C1686 0.961 . S
H1700 C1686 0.961 . S
H1701 C1687 0.958 . S
H1702 C1687 0.961 . S
H1703 C1687 0.960 . S
C1704 C1705 1.391 . S
C1704 C1706 1.394 . S
C1704 H1720 0.931 . S
C1705 C1704 1.391 . S
C1705 C1709 1.376 . S
C1706 C1704 1.394 . S
C1706 C1707 1.369 . S
C1706 C1710 1.531 . S
C1707 C1706 1.369 . S
C1707 C1708 1.410 . S
C1707 C1715 1.503 . S
C1708 C1707 1.410 . S
C1708 C1709 1.392 . S
C1708 C1711 1.511 . S
C1709 C1705 1.376 . S
C1709 C1708 1.392 . S
C1709 H1721 0.929 . S
C1710 C1706 1.531 . S
C1710 H1722 0.960 . S
C1710 H1723 0.962 . S
C1710 H1724 0.960 . S
C1711 C1708 1.511 . S
C1711 H1725 0.961 . S
C1711 H1726 0.961 . S
C1711 H1727 0.961 . S
C1712 C1713 1.370 . S
C1712 C1714 1.363 . S
C1712 H1728 0.931 . S
C1713 C1712 1.370 . S
C1713 C1717 1.408 . S
C1714 C1712 1.363 . S
C1714 C1715 1.370 . S
C1714 C1718 1.524 . S
C1715 C1707 1.503 . S
C1715 C1714 1.370 . S
C1715 C1716 1.403 . S
C1716 C1715 1.403 . S
C1716 C1717 1.404 . S
C1716 C1719 1.539 . S
C1717 C1713 1.408 . S
C1717 C1716 1.404 . S
C1717 H1729 0.930 . S
C1718 C1714 1.524 . S
C1718 H1730 0.956 . S
C1718 H1731 0.961 . S
C1718 H1732 0.961 . S
C1719 C1716 1.539 . S
C1719 H1733 0.958 . S
C1719 H1734 0.961 . S
C1719 H1735 0.960 . S
H1720 C1704 0.931 . S
H1721 C1709 0.929 . S
H1722 C1710 0.960 . S
H1723 C1710 0.962 . S
H1724 C1710 0.960 . S
H1725 C1711 0.961 . S
H1726 C1711 0.961 . S
H1727 C1711 0.961 . S
H1728 C1712 0.931 . S
H1729 C1717 0.930 . S
H1730 C1718 0.956 . S
H1731 C1718 0.961 . S
H1732 C1718 0.961 . S
H1733 C1719 0.958 . S
H1734 C1719 0.961 . S
H1735 C1719 0.960 . S
C1736 C1737 1.391 . S
C1736 C1738 1.394 . S
C1736 H1752 0.931 . S
C1737 C1736 1.391 . S
C1737 C1741 1.376 . S
C1738 C1736 1.394 . S
C1738 C1739 1.369 . S
C1738 C1742 1.531 . S
C1739 C1738 1.369 . S
C1739 C1740 1.410 . S
C1739 C1747 1.503 . S
C1740 C1739 1.410 . S
C1740 C1741 1.392 . S
C1740 C1743 1.511 . S
C1741 C1737 1.376 . S
C1741 C1740 1.392 . S
C1741 H1753 0.929 . S
C1742 C1738 1.531 . S
C1742 H1754 0.960 . S
C1742 H1755 0.962 . S
C1742 H1756 0.960 . S
C1743 C1740 1.511 . S
C1743 H1757 0.961 . S
C1743 H1758 0.961 . S
C1743 H1759 0.961 . S
C1744 C1745 1.370 . S
C1744 C1746 1.363 . S
C1744 H1760 0.931 . S
C1745 C1744 1.370 . S
C1745 C1749 1.408 . S
C1746 C1744 1.363 . S
C1746 C1747 1.370 . S
C1746 C1750 1.524 . S
C1747 C1739 1.503 . S
C1747 C1746 1.370 . S
C1747 C1748 1.403 . S
C1748 C1747 1.403 . S
C1748 C1749 1.404 . S
C1748 C1751 1.539 . S
C1749 C1745 1.408 . S
C1749 C1748 1.404 . S
C1749 H1761 0.930 . S
C1750 C1746 1.524 . S
C1750 H1762 0.956 . S
C1750 H1763 0.961 . S
C1750 H1764 0.961 . S
C1751 C1748 1.539 . S
C1751 H1765 0.958 . S
C1751 H1766 0.961 . S
C1751 H1767 0.960 . S
H1752 C1736 0.931 . S
H1753 C1741 0.929 . S
H1754 C1742 0.960 . S
H1755 C1742 0.962 . S
H1756 C1742 0.960 . S
H1757 C1743 0.961 . S
H1758 C1743 0.961 . S
H1759 C1743 0.961 . S
H1760 C1744 0.931 . S
H1761 C1749 0.930 . S
H1762 C1750 0.956 . S
H1763 C1750 0.961 . S
H1764 C1750 0.961 . S
H1765 C1751 0.958 . S
H1766 C1751 0.961 . S
H1767 C1751 0.960 . S
C1768 C1769 1.391 . S
C1768 C1770 1.394 . S
C1768 H1784 0.931 . S
C1769 C1768 1.391 . S
C1769 C1773 1.376 . S
C1770 C1768 1.394 . S
C1770 C1771 1.369 . S
C1770 C1774 1.531 . S
C1771 C1770 1.369 . S
C1771 C1772 1.410 . S
C1771 C1779 1.503 . S
C1772 C1771 1.410 . S
C1772 C1773 1.392 . S
C1772 C1775 1.511 . S
C1773 C1769 1.376 . S
C1773 C1772 1.392 . S
C1773 H1785 0.929 . S
C1774 C1770 1.531 . S
C1774 H1786 0.960 . S
C1774 H1787 0.962 . S
C1774 H1788 0.960 . S
C1775 C1772 1.511 . S
C1775 H1789 0.961 . S
C1775 H1790 0.961 . S
C1775 H1791 0.961 . S
C1776 C1777 1.370 . S
C1776 C1778 1.363 . S
C1776 H1792 0.931 . S
C1777 C1776 1.370 . S
C1777 C1781 1.408 . S
C1778 C1776 1.363 . S
C1778 C1779 1.370 . S
C1778 C1782 1.524 . S
C1779 C1771 1.503 . S
C1779 C1778 1.370 . S
C1779 C1780 1.403 . S
C1780 C1779 1.403 . S
C1780 C1781 1.404 . S
C1780 C1783 1.539 . S
C1781 C1777 1.408 . S
C1781 C1780 1.404 . S
C1781 H1793 0.930 . S
C1782 C1778 1.524 . S
C1782 H1794 0.956 . S
C1782 H1795 0.961 . S
C1782 H1796 0.961 . S
C1783 C1780 1.539 . S
C1783 H1797 0.958 . S
C1783 H1798 0.961 . S
C1783 H1799 0.960 . S
H1784 C1768 0.931 . S
H1785 C1773 0.929 . S
H1786 C1774 0.960 . S
H1787 C1774 0.962 . S
H1788 C1774 0.960 . S
H1789 C1775 0.961 . S
H1790 C1775 0.961 . S
H1791 C1775 0.961 . S
H1792 C1776 0.931 . S
H1793 C1781 0.930 . S
H1794 C1782 0.956 . S
H1795 C1782 0.961 . S
H1796 C1782 0.961 . S
H1797 C1783 0.958 . S
H1798 C1783 0.961 . S
H1799 C1783 0.960 . S
C1800 C1801 1.391 . S
C1800 C1802 1.394 . S
C1800 H1816 0.931 . S
C1801 C1800 1.391 . S
C1801 C1805 1.376 . S
C1802 C1800 1.394 . S
C1802 C1803 1.369 . S
C1802 C1806 1.531 . S
C1803 C1802 1.369 . S
C1803 C1804 1.410 . S
C1803 C1811 1.503 . S
C1804 C1803 1.410 . S
C1804 C1805 1.392 . S
C1804 C1807 1.511 . S
C1805 C1801 1.376 . S
C1805 C1804 1.392 . S
C1805 H1817 0.929 . S
C1806 C1802 1.531 . S
C1806 H1818 0.960 . S
C1806 H1819 0.962 . S
C1806 H1820 0.960 . S
C1807 C1804 1.511 . S
C1807 H1821 0.961 . S
C1807 H1822 0.961 . S
C1807 H1823 0.961 . S
C1808 C1809 1.370 . S
C1808 C1810 1.363 . S
C1808 H1824 0.931 . S
C1809 C1808 1.370 . S
C1809 C1813 1.408 . S
C1810 C1808 1.363 . S
C1810 C1811 1.370 . S
C1810 C1814 1.524 . S
C1811 C1803 1.503 . S
C1811 C1810 1.370 . S
C1811 C1812 1.403 . S
C1812 C1811 1.403 . S
C1812 C1813 1.404 . S
C1812 C1815 1.539 . S
C1813 C1809 1.408 . S
C1813 C1812 1.404 . S
C1813 H1825 0.930 . S
C1814 C1810 1.524 . S
C1814 H1826 0.956 . S
C1814 H1827 0.961 . S
C1814 H1828 0.961 . S
C1815 C1812 1.539 . S
C1815 H1829 0.958 . S
C1815 H1830 0.961 . S
C1815 H1831 0.960 . S
H1816 C1800 0.931 . S
H1817 C1805 0.929 . S
H1818 C1806 0.960 . S
H1819 C1806 0.962 . S
H1820 C1806 0.960 . S
H1821 C1807 0.961 . S
H1822 C1807 0.961 . S
H1823 C1807 0.961 . S
H1824 C1808 0.931 . S
H1825 C1813 0.930 . S
H1826 C1814 0.956 . S
H1827 C1814 0.961 . S
H1828 C1814 0.961 . S
H1829 C1815 0.958 . S
H1830 C1815 0.961 . S
H1831 C1815 0.960 . S
C1832 C1833 1.391 . S
C1832 C1834 1.394 . S
C1832 H1848 0.931 . S
C1833 C1832 1.391 . S
C1833 C1837 1.376 . S
C1834 C1832 1.394 . S
C1834 C1835 1.369 . S
C1834 C1838 1.531 . S
C1835 C1834 1.369 . S
C1835 C1836 1.410 . S
C1835 C1843 1.503 . S
C1836 C1835 1.410 . S
C1836 C1837 1.392 . S
C1836 C1839 1.511 . S
C1837 C1833 1.376 . S
C1837 C1836 1.392 . S
C1837 H1849 0.929 . S
C1838 C1834 1.531 . S
C1838 H1850 0.960 . S
C1838 H1851 0.962 . S
C1838 H1852 0.960 . S
C1839 C1836 1.511 . S
C1839 H1853 0.961 . S
C1839 H1854 0.961 . S
C1839 H1855 0.961 . S
C1840 C1841 1.370 . S
C1840 C1842 1.363 . S
C1840 H1856 0.931 . S
C1841 C1840 1.370 . S
C1841 C1845 1.408 . S
C1842 C1840 1.363 . S
C1842 C1843 1.370 . S
C1842 C1846 1.524 . S
C1843 C1835 1.503 . S
C1843 C1842 1.370 . S
C1843 C1844 1.403 . S
C1844 C1843 1.403 . S
C1844 C1845 1.404 . S
C1844 C1847 1.539 . S
C1845 C1841 1.408 . S
C1845 C1844 1.404 . S
C1845 H1857 0.930 . S
C1846 C1842 1.524 . S
C1846 H1858 0.956 . S
C1846 H1859 0.961 . S
C1846 H1860 0.961 . S
C1847 C1844 1.539 . S
C1847 H1861 0.958 . S
C1847 H1862 0.961 . S
C1847 H1863 0.960 . S
H1848 C1832 0.931 . S
H1849 C1837 0.929 . S
H1850 C1838 0.960 . S
H1851 C1838 0.962 . S
H1852 C1838 0.960 . S
H1853 C1839 0.961 . S
H1854 C1839 0.961 . S
H1855 C1839 0.961 . S
H1856 C1840 0.931 . S
H1857 C1845 0.930 . S
H1858 C1846 0.956 . S
H1859 C1846 0.961 . S
H1860 C1846 0.961 . S
H1861 C1847 0.958 . S
H1862 C1847 0.961 . S
H1863 C1847 0.960 . S
C1864 C1865 1.391 . S
C1864 C1866 1.394 . S
C1864 H1880 0.931 . S
C1865 C1864 1.391 . S
C1865 C1869 1.376 . S
C1866 C1864 1.394 . S
C1866 C1867 1.369 . S
C1866 C1870 1.531 . S
C1867 C1866 1.369 . S
C1867 C1868 1.410 . S
C1867 C1875 1.503 . S
C1868 C1867 1.410 . S
C1868 C1869 1.392 . S
C1868 C1871 1.511 . S
C1869 C1865 1.376 . S
C1869 C1868 1.392 . S
C1869 H1881 0.929 . S
C1870 C1866 1.531 . S
C1870 H1882 0.960 . S
C1870 H1883 0.962 . S
C1870 H1884 0.960 . S
C1871 C1868 1.511 . S
C1871 H1885 0.961 . S
C1871 H1886 0.961 . S
C1871 H1887 0.961 . S
C1872 C1873 1.370 . S
C1872 C1874 1.363 . S
C1872 H1888 0.931 . S
C1873 C1872 1.370 . S
C1873 C1877 1.408 . S
C1874 C1872 1.363 . S
C1874 C1875 1.370 . S
C1874 C1878 1.524 . S
C1875 C1867 1.503 . S
C1875 C1874 1.370 . S
C1875 C1876 1.403 . S
C1876 C1875 1.403 . S
C1876 C1877 1.404 . S
C1876 C1879 1.539 . S
C1877 C1873 1.408 . S
C1877 C1876 1.404 . S
C1877 H1889 0.930 . S
C1878 C1874 1.524 . S
C1878 H1890 0.956 . S
C1878 H1891 0.961 . S
C1878 H1892 0.961 . S
C1879 C1876 1.539 . S
C1879 H1893 0.958 . S
C1879 H1894 0.961 . S
C1879 H1895 0.960 . S
H1880 C1864 0.931 . S
H1881 C1869 0.929 . S
H1882 C1870 0.960 . S
H1883 C1870 0.962 . S
H1884 C1870 0.960 . S
H1885 C1871 0.961 . S
H1886 C1871 0.961 . S
H1887 C1871 0.961 . S
H1888 C1872 0.931 . S
H1889 C1877 0.930 . S
H1890 C1878 0.956 . S
H1891 C1878 0.961 . S
H1892 C1878 0.961 . S
H1893 C1879 0.958 . S
H1894 C1879 0.961 . S
H1895 C1879 0.960 . S
C1896 C1897 1.391 . S
C1896 C1898 1.394 . S
C1896 H1912 0.931 . S
C1897 C1896 1.391 . S
C1897 C1901 1.376 . S
C1898 C1896 1.394 . S
C1898 C1899 1.369 . S
C1898 C1902 1.531 . S
C1899 C1898 1.369 . S
C1899 C1900 1.410 . S
C1899 C1907 1.503 . S
C1900 C1899 1.410 . S
C1900 C1901 1.392 . S
C1900 C1903 1.511 . S
C1901 C1897 1.376 . S
C1901 C1900 1.392 . S
C1901 H1913 0.929 . S
C1902 C1898 1.531 . S
C1902 H1914 0.960 . S
C1902 H1915 0.962 . S
C1902 H1916 0.960 . S
C1903 C1900 1.511 . S
C1903 H1917 0.961 . S
C1903 H1918 0.961 . S
C1903 H1919 0.961 . S
C1904 C1905 1.370 . S
C1904 C1906 1.363 . S
C1904 H1920 0.931 . S
C1905 C1904 1.370 . S
C1905 C1909 1.408 . S
C1906 C1904 1.363 . S
C1906 C1907 1.370 . S
C1906 C1910 1.524 . S
C1907 C1899 1.503 . S
C1907 C1906 1.370 . S
C1907 C1908 1.403 . S
C1908 C1907 1.403 . S
C1908 C1909 1.404 . S
C1908 C1911 1.539 . S
C1909 C1905 1.408 . S
C1909 C1908 1.404 . S
C1909 H1921 0.930 . S
C1910 C1906 1.524 . S
C1910 H1922 0.956 . S
C1910 H1923 0.961 . S
C1910 H1924 0.961 . S
C1911 C1908 1.539 . S
C1911 H1925 0.958 . S
C1911 H1926 0.961 . S
C1911 H1927 0.960 . S
H1912 C1896 0.931 . S
H1913 C1901 0.929 . S
H1914 C1902 0.960 . S
H1915 C1902 0.962 . S
H1916 C1902 0.960 . S
H1917 C1903 0.961 . S
H1918 C1903 0.961 . S
H1919 C1903 0.961 . S
H1920 C1904 0.931 . S
H1921 C1909 0.930 . S
H1922 C1910 0.956 . S
H1923 C1910 0.961 . S
H1924 C1910 0.961 . S
H1925 C1911 0.958 . S
H1926 C1911 0.961 . S
H1927 C1911 0.960 . S
C1928 C1929 1.391 . S
C1928 C1930 1.394 . S
C1928 H1944 0.931 . S
C1929 C1928 1.391 . S
C1929 C1933 1.376 . S
C1930 C1928 1.394 . S
C1930 C1931 1.369 . S
C1930 C1934 1.531 . S
C1931 C1930 1.369 . S
C1931 C1932 1.410 . S
C1931 C1939 1.503 . S
C1932 C1931 1.410 . S
C1932 C1933 1.392 . S
C1932 C1935 1.511 . S
C1933 C1929 1.376 . S
C1933 C1932 1.392 . S
C1933 H1945 0.929 . S
C1934 C1930 1.531 . S
C1934 H1946 0.960 . S
C1934 H1947 0.962 . S
C1934 H1948 0.960 . S
C1935 C1932 1.511 . S
C1935 H1949 0.961 . S
C1935 H1950 0.961 . S
C1935 H1951 0.961 . S
C1936 C1937 1.370 . S
C1936 C1938 1.363 . S
C1936 H1952 0.931 . S
C1937 C1936 1.370 . S
C1937 C1941 1.408 . S
C1938 C1936 1.363 . S
C1938 C1939 1.370 . S
C1938 C1942 1.524 . S
C1939 C1931 1.503 . S
C1939 C1938 1.370 . S
C1939 C1940 1.403 . S
C1940 C1939 1.403 . S
C1940 C1941 1.404 . S
C1940 C1943 1.539 . S
C1941 C1937 1.408 . S
C1941 C1940 1.404 . S
C1941 H1953 0.930 . S
C1942 C1938 1.524 . S
C1942 H1954 0.956 . S
C1942 H1955 0.961 . S
C1942 H1956 0.961 . S
C1943 C1940 1.539 . S
C1943 H1957 0.958 . S
C1943 H1958 0.961 . S
C1943 H1959 0.960 . S
H1944 C1928 0.931 . S
H1945 C1933 0.929 . S
H1946 C1934 0.960 . S
H1947 C1934 0.962 . S
H1948 C1934 0.960 . S
H1949 C1935 0.961 . S
H1950 C1935 0.961 . S
H1951 C1935 0.961 . S
H1952 C1936 0.931 . S
H1953 C1941 0.930 . S
H1954 C1942 0.956 . S
H1955 C1942 0.961 . S
H1956 C1942 0.961 . S
H1957 C1943 0.958 . S
H1958 C1943 0.961 . S
H1959 C1943 0.960 . S
C1960 C1961 1.391 . S
C1960 C1962 1.394 . S
C1960 H1976 0.931 . S
C1961 C1960 1.391 . S
C1961 C1965 1.376 . S
C1962 C1960 1.394 . S
C1962 C1963 1.369 . S
C1962 C1966 1.531 . S
C1963 C1962 1.369 . S
C1963 C1964 1.410 . S
C1963 C1971 1.503 . S
C1964 C1963 1.410 . S
C1964 C1965 1.392 . S
C1964 C1967 1.511 . S
C1965 C1961 1.376 . S
C1965 C1964 1.392 . S
C1965 H1977 0.929 . S
C1966 C1962 1.531 . S
C1966 H1978 0.960 . S
C1966 H1979 0.962 . S
C1966 H1980 0.960 . S
C1967 C1964 1.511 . S
C1967 H1981 0.961 . S
C1967 H1982 0.961 . S
C1967 H1983 0.961 . S
C1968 C1969 1.370 . S
C1968 C1970 1.363 . S
C1968 H1984 0.931 . S
C1969 C1968 1.370 . S
C1969 C1973 1.408 . S
C1970 C1968 1.363 . S
C1970 C1971 1.370 . S
C1970 C1974 1.524 . S
C1971 C1963 1.503 . S
C1971 C1970 1.370 . S
C1971 C1972 1.403 . S
C1972 C1971 1.403 . S
C1972 C1973 1.404 . S
C1972 C1975 1.539 . S
C1973 C1969 1.408 . S
C1973 C1972 1.404 . S
C1973 H1985 0.930 . S
C1974 C1970 1.524 . S
C1974 H1986 0.956 . S
C1974 H1987 0.961 . S
C1974 H1988 0.961 . S
C1975 C1972 1.539 . S
C1975 H1989 0.958 . S
C1975 H1990 0.961 . S
C1975 H1991 0.960 . S
H1976 C1960 0.931 . S
H1977 C1965 0.929 . S
H1978 C1966 0.960 . S
H1979 C1966 0.962 . S
H1980 C1966 0.960 . S
H1981 C1967 0.961 . S
H1982 C1967 0.961 . S
H1983 C1967 0.961 . S
H1984 C1968 0.931 . S
H1985 C1973 0.930 . S
H1986 C1974 0.956 . S
H1987 C1974 0.961 . S
H1988 C1974 0.961 . S
H1989 C1975 0.958 . S
H1990 C1975 0.961 . S
H1991 C1975 0.960 . S
C1992 C1993 1.391 . S
C1992 C1994 1.394 . S
C1992 H2008 0.931 . S
C1993 C1992 1.391 . S
C1993 C1997 1.376 . S
C1994 C1992 1.394 . S
C1994 C1995 1.369 . S
C1994 C1998 1.531 . S
C1995 C1994 1.369 . S
C1995 C1996 1.410 . S
C1995 C2003 1.503 . S
C1996 C1995 1.410 . S
C1996 C1997 1.392 . S
C1996 C1999 1.511 . S
C1997 C1993 1.376 . S
C1997 C1996 1.392 . S
C1997 H2009 0.929 . S
C1998 C1994 1.531 . S
C1998 H2010 0.960 . S
C1998 H2011 0.962 . S
C1998 H2012 0.960 . S
C1999 C1996 1.511 . S
C1999 H2013 0.961 . S
C1999 H2014 0.961 . S
C1999 H2015 0.961 . S
C2000 C2001 1.370 . S
C2000 C2002 1.363 . S
C2000 H2016 0.931 . S
C2001 C2000 1.370 . S
C2001 C2005 1.408 . S
C2002 C2000 1.363 . S
C2002 C2003 1.370 . S
C2002 C2006 1.524 . S
C2003 C1995 1.503 . S
C2003 C2002 1.370 . S
C2003 C2004 1.403 . S
C2004 C2003 1.403 . S
C2004 C2005 1.404 . S
C2004 C2007 1.539 . S
C2005 C2001 1.408 . S
C2005 C2004 1.404 . S
C2005 H2017 0.930 . S
C2006 C2002 1.524 . S
C2006 H2018 0.956 . S
C2006 H2019 0.961 . S
C2006 H2020 0.961 . S
C2007 C2004 1.539 . S
C2007 H2021 0.958 . S
C2007 H2022 0.961 . S
C2007 H2023 0.960 . S
H2008 C1992 0.931 . S
H2009 C1997 0.929 . S
H2010 C1998 0.960 . S
H2011 C1998 0.962 . S
H2012 C1998 0.960 . S
H2013 C1999 0.961 . S
H2014 C1999 0.961 . S
H2015 C1999 0.961 . S
H2016 C2000 0.931 . S
H2017 C2005 0.930 . S
H2018 C2006 0.956 . S
H2019 C2006 0.961 . S
H2020 C2006 0.961 . S
H2021 C2007 0.958 . S
H2022 C2007 0.961 . S
H2023 C2007 0.960 . S
C2024 C2025 1.391 . S
C2024 C2026 1.394 . S
C2024 H2040 0.931 . S
C2025 C2024 1.391 . S
C2025 C2029 1.376 . S
C2026 C2024 1.394 . S
C2026 C2027 1.369 . S
C2026 C2030 1.531 . S
C2027 C2026 1.369 . S
C2027 C2028 1.410 . S
C2027 C2035 1.503 . S
C2028 C2027 1.410 . S
C2028 C2029 1.392 . S
C2028 C2031 1.511 . S
C2029 C2025 1.376 . S
C2029 C2028 1.392 . S
C2029 H2041 0.929 . S
C2030 C2026 1.531 . S
C2030 H2042 0.960 . S
C2030 H2043 0.962 . S
C2030 H2044 0.960 . S
C2031 C2028 1.511 . S
C2031 H2045 0.961 . S
C2031 H2046 0.961 . S
C2031 H2047 0.961 . S
C2032 C2033 1.370 . S
C2032 C2034 1.363 . S
C2032 H2048 0.931 . S
C2033 C2032 1.370 . S
C2033 C2037 1.408 . S
C2034 C2032 1.363 . S
C2034 C2035 1.370 . S
C2034 C2038 1.524 . S
C2035 C2027 1.503 . S
C2035 C2034 1.370 . S
C2035 C2036 1.403 . S
C2036 C2035 1.403 . S
C2036 C2037 1.404 . S
C2036 C2039 1.539 . S
C2037 C2033 1.408 . S
C2037 C2036 1.404 . S
C2037 H2049 0.930 . S
C2038 C2034 1.524 . S
C2038 H2050 0.956 . S
C2038 H2051 0.961 . S
C2038 H2052 0.961 . S
C2039 C2036 1.539 . S
C2039 H2053 0.958 . S
C2039 H2054 0.961 . S
C2039 H2055 0.960 . S
H2040 C2024 0.931 . S
H2041 C2029 0.929 . S
H2042 C2030 0.960 . S
H2043 C2030 0.962 . S
H2044 C2030 0.960 . S
H2045 C2031 0.961 . S
H2046 C2031 0.961 . S
H2047 C2031 0.961 . S
H2048 C2032 0.931 . S
H2049 C2037 0.930 . S
H2050 C2038 0.956 . S
H2051 C2038 0.961 . S
H2052 C2038 0.961 . S
H2053 C2039 0.958 . S
H2054 C2039 0.961 . S
H2055 C2039 0.960 . S
C2056 C2057 1.391 . S
C2056 C2058 1.394 . S
C2056 H2072 0.931 . S
C2057 C2056 1.391 . S
C2057 C2061 1.376 . S
C2058 C2056 1.394 . S
C2058 C2059 1.369 . S
C2058 C2062 1.531 . S
C2059 C2058 1.369 . S
C2059 C2060 1.410 . S
C2059 C2067 1.503 . S
C2060 C2059 1.410 . S
C2060 C2061 1.392 . S
C2060 C2063 1.511 . S
C2061 C2057 1.376 . S
C2061 C2060 1.392 . S
C2061 H2073 0.929 . S
C2062 C2058 1.531 . S
C2062 H2074 0.960 . S
C2062 H2075 0.962 . S
C2062 H2076 0.960 . S
C2063 C2060 1.511 . S
C2063 H2077 0.961 . S
C2063 H2078 0.961 . S
C2063 H2079 0.961 . S
C2064 C2065 1.370 . S
C2064 C2066 1.363 . S
C2064 H2080 0.931 . S
C2065 C2064 1.370 . S
C2065 C2069 1.408 . S
C2066 C2064 1.363 . S
C2066 C2067 1.370 . S
C2066 C2070 1.524 . S
C2067 C2059 1.503 . S
C2067 C2066 1.370 . S
C2067 C2068 1.403 . S
C2068 C2067 1.403 . S
C2068 C2069 1.404 . S
C2068 C2071 1.539 . S
C2069 C2065 1.408 . S
C2069 C2068 1.404 . S
C2069 H2081 0.930 . S
C2070 C2066 1.524 . S
C2070 H2082 0.956 . S
C2070 H2083 0.961 . S
C2070 H2084 0.961 . S
C2071 C2068 1.539 . S
C2071 H2085 0.958 . S
C2071 H2086 0.961 . S
C2071 H2087 0.960 . S
H2072 C2056 0.931 . S
H2073 C2061 0.929 . S
H2074 C2062 0.960 . S
H2075 C2062 0.962 . S
H2076 C2062 0.960 . S
H2077 C2063 0.961 . S
H2078 C2063 0.961 . S
H2079 C2063 0.961 . S
H2080 C2064 0.931 . S
H2081 C2069 0.930 . S
H2082 C2070 0.956 . S
H2083 C2070 0.961 . S
H2084 C2070 0.961 . S
H2085 C2071 0.958 . S
H2086 C2071 0.961 . S
H2087 C2071 0.960 . S
C2088 C2089 1.391 . S
C2088 C2090 1.394 . S
C2088 H2104 0.931 . S
C2089 C2088 1.391 . S
C2089 C2093 1.376 . S
C2090 C2088 1.394 . S
C2090 C2091 1.369 . S
C2090 C2094 1.531 . S
C2091 C2090 1.369 . S
C2091 C2092 1.410 . S
C2091 C2099 1.503 . S
C2092 C2091 1.410 . S
C2092 C2093 1.392 . S
C2092 C2095 1.511 . S
C2093 C2089 1.376 . S
C2093 C2092 1.392 . S
C2093 H2105 0.929 . S
C2094 C2090 1.531 . S
C2094 H2106 0.960 . S
C2094 H2107 0.962 . S
C2094 H2108 0.960 . S
C2095 C2092 1.511 . S
C2095 H2109 0.961 . S
C2095 H2110 0.961 . S
C2095 H2111 0.961 . S
C2096 C2097 1.370 . S
C2096 C2098 1.363 . S
C2096 H2112 0.931 . S
C2097 C2096 1.370 . S
C2097 C2101 1.408 . S
C2098 C2096 1.363 . S
C2098 C2099 1.370 . S
C2098 C2102 1.524 . S
C2099 C2091 1.503 . S
C2099 C2098 1.370 . S
C2099 C2100 1.403 . S
C2100 C2099 1.403 . S
C2100 C2101 1.404 . S
C2100 C2103 1.539 . S
C2101 C2097 1.408 . S
C2101 C2100 1.404 . S
C2101 H2113 0.930 . S
C2102 C2098 1.524 . S
C2102 H2114 0.956 . S
C2102 H2115 0.961 . S
C2102 H2116 0.961 . S
C2103 C2100 1.539 . S
C2103 H2117 0.958 . S
C2103 H2118 0.961 . S
C2103 H2119 0.960 . S
H2104 C2088 0.931 . S
H2105 C2093 0.929 . S
H2106 C2094 0.960 . S
H2107 C2094 0.962 . S
H2108 C2094 0.960 . S
H2109 C2095 0.961 . S
H2110 C2095 0.961 . S
H2111 C2095 0.961 . S
H2112 C2096 0.931 . S
H2113 C2101 0.930 . S
H2114 C2102 0.956 . S
H2115 C2102 0.961 . S
H2116 C2102 0.961 . S
H2117 C2103 0.958 . S
H2118 C2103 0.961 . S
H2119 C2103 0.960 . S
C2120 C2121 1.391 . S
C2120 C2122 1.394 . S
C2120 H2136 0.931 . S
C2121 C2120 1.391 . S
C2121 C2125 1.376 . S
C2122 C2120 1.394 . S
C2122 C2123 1.369 . S
C2122 C2126 1.531 . S
C2123 C2122 1.369 . S
C2123 C2124 1.410 . S
C2123 C2131 1.503 . S
C2124 C2123 1.410 . S
C2124 C2125 1.392 . S
C2124 C2127 1.511 . S
C2125 C2121 1.376 . S
C2125 C2124 1.392 . S
C2125 H2137 0.929 . S
C2126 C2122 1.531 . S
C2126 H2138 0.960 . S
C2126 H2139 0.962 . S
C2126 H2140 0.960 . S
C2127 C2124 1.511 . S
C2127 H2141 0.961 . S
C2127 H2142 0.961 . S
C2127 H2143 0.961 . S
C2128 C2129 1.370 . S
C2128 C2130 1.363 . S
C2128 H2144 0.931 . S
C2129 C2128 1.370 . S
C2129 C2133 1.408 . S
C2130 C2128 1.363 . S
C2130 C2131 1.370 . S
C2130 C2134 1.524 . S
C2131 C2123 1.503 . S
C2131 C2130 1.370 . S
C2131 C2132 1.403 . S
C2132 C2131 1.403 . S
C2132 C2133 1.404 . S
C2132 C2135 1.539 . S
C2133 C2129 1.408 . S
C2133 C2132 1.404 . S
C2133 H2145 0.930 . S
C2134 C2130 1.524 . S
C2134 H2146 0.956 . S
C2134 H2147 0.961 . S
C2134 H2148 0.961 . S
C2135 C2132 1.539 . S
C2135 H2149 0.958 . S
C2135 H2150 0.961 . S
C2135 H2151 0.960 . S
H2136 C2120 0.931 . S
H2137 C2125 0.929 . S
H2138 C2126 0.960 . S
H2139 C2126 0.962 . S
H2140 C2126 0.960 . S
H2141 C2127 0.961 . S
H2142 C2127 0.961 . S
H2143 C2127 0.961 . S
H2144 C2128 0.931 . S
H2145 C2133 0.930 . S
H2146 C2134 0.956 . S
H2147 C2134 0.961 . S
H2148 C2134 0.961 . S
H2149 C2135 0.958 . S
H2150 C2135 0.961 . S
H2151 C2135 0.960 . S
C2152 C2153 1.391 . S
C2152 C2154 1.394 . S
C2152 H2168 0.931 . S
C2153 C2152 1.391 . S
C2153 C2157 1.376 . S
C2154 C2152 1.394 . S
C2154 C2155 1.369 . S
C2154 C2158 1.531 . S
C2155 C2154 1.369 . S
C2155 C2156 1.410 . S
C2155 C2163 1.503 . S
C2156 C2155 1.410 . S
C2156 C2157 1.392 . S
C2156 C2159 1.511 . S
C2157 C2153 1.376 . S
C2157 C2156 1.392 . S
C2157 H2169 0.929 . S
C2158 C2154 1.531 . S
C2158 H2170 0.960 . S
C2158 H2171 0.962 . S
C2158 H2172 0.960 . S
C2159 C2156 1.511 . S
C2159 H2173 0.961 . S
C2159 H2174 0.961 . S
C2159 H2175 0.961 . S
C2160 C2161 1.370 . S
C2160 C2162 1.363 . S
C2160 H2176 0.931 . S
C2161 C2160 1.370 . S
C2161 C2165 1.408 . S
C2162 C2160 1.363 . S
C2162 C2163 1.370 . S
C2162 C2166 1.524 . S
C2163 C2155 1.503 . S
C2163 C2162 1.370 . S
C2163 C2164 1.403 . S
C2164 C2163 1.403 . S
C2164 C2165 1.404 . S
C2164 C2167 1.539 . S
C2165 C2161 1.408 . S
C2165 C2164 1.404 . S
C2165 H2177 0.930 . S
C2166 C2162 1.524 . S
C2166 H2178 0.956 . S
C2166 H2179 0.961 . S
C2166 H2180 0.961 . S
C2167 C2164 1.539 . S
C2167 H2181 0.958 . S
C2167 H2182 0.961 . S
C2167 H2183 0.960 . S
H2168 C2152 0.931 . S
H2169 C2157 0.929 . S
H2170 C2158 0.960 . S
H2171 C2158 0.962 . S
H2172 C2158 0.960 . S
H2173 C2159 0.961 . S
H2174 C2159 0.961 . S
H2175 C2159 0.961 . S
H2176 C2160 0.931 . S
H2177 C2165 0.930 . S
H2178 C2166 0.956 . S
H2179 C2166 0.961 . S
H2180 C2166 0.961 . S
H2181 C2167 0.958 . S
H2182 C2167 0.961 . S
H2183 C2167 0.960 . S
C2184 C2185 1.391 . S
C2184 C2186 1.394 . S
C2184 H2200 0.931 . S
C2185 C2184 1.391 . S
C2185 C2189 1.376 . S
C2186 C2184 1.394 . S
C2186 C2187 1.369 . S
C2186 C2190 1.531 . S
C2187 C2186 1.369 . S
C2187 C2188 1.410 . S
C2187 C2195 1.503 . S
C2188 C2187 1.410 . S
C2188 C2189 1.392 . S
C2188 C2191 1.511 . S
C2189 C2185 1.376 . S
C2189 C2188 1.392 . S
C2189 H2201 0.929 . S
C2190 C2186 1.531 . S
C2190 H2202 0.960 . S
C2190 H2203 0.962 . S
C2190 H2204 0.960 . S
C2191 C2188 1.511 . S
C2191 H2205 0.961 . S
C2191 H2206 0.961 . S
C2191 H2207 0.961 . S
C2192 C2193 1.370 . S
C2192 C2194 1.363 . S
C2192 H2208 0.931 . S
C2193 C2192 1.370 . S
C2193 C2197 1.408 . S
C2194 C2192 1.363 . S
C2194 C2195 1.370 . S
C2194 C2198 1.524 . S
C2195 C2187 1.503 . S
C2195 C2194 1.370 . S
C2195 C2196 1.403 . S
C2196 C2195 1.403 . S
C2196 C2197 1.404 . S
C2196 C2199 1.539 . S
C2197 C2193 1.408 . S
C2197 C2196 1.404 . S
C2197 H2209 0.930 . S
C2198 C2194 1.524 . S
C2198 H2210 0.956 . S
C2198 H2211 0.961 . S
C2198 H2212 0.961 . S
C2199 C2196 1.539 . S
C2199 H2213 0.958 . S
C2199 H2214 0.961 . S
C2199 H2215 0.960 . S
H2200 C2184 0.931 . S
H2201 C2189 0.929 . S
H2202 C2190 0.960 . S
H2203 C2190 0.962 . S
H2204 C2190 0.960 . S
H2205 C2191 0.961 . S
H2206 C2191 0.961 . S
H2207 C2191 0.961 . S
H2208 C2192 0.931 . S
H2209 C2197 0.930 . S
H2210 C2198 0.956 . S
H2211 C2198 0.961 . S
H2212 C2198 0.961 . S
H2213 C2199 0.958 . S
H2214 C2199 0.961 . S
H2215 C2199 0.960 . S
C2216 C2217 1.391 . S
C2216 C2218 1.394 . S
C2216 H2232 0.931 . S
C2217 C2216 1.391 . S
C2217 C2221 1.376 . S
C2218 C2216 1.394 . S
C2218 C2219 1.369 . S
C2218 C2222 1.531 . S
C2219 C2218 1.369 . S
C2219 C2220 1.410 . S
C2219 C2227 1.503 . S
C2220 C2219 1.410 . S
C2220 C2221 1.392 . S
C2220 C2223 1.511 . S
C2221 C2217 1.376 . S
C2221 C2220 1.392 . S
C2221 H2233 0.929 . S
C2222 C2218 1.531 . S
C2222 H2234 0.960 . S
C2222 H2235 0.962 . S
C2222 H2236 0.960 . S
C2223 C2220 1.511 . S
C2223 H2237 0.961 . S
C2223 H2238 0.961 . S
C2223 H2239 0.961 . S
C2224 C2225 1.370 . S
C2224 C2226 1.363 . S
C2224 H2240 0.931 . S
C2225 C2224 1.370 . S
C2225 C2229 1.408 . S
C2226 C2224 1.363 . S
C2226 C2227 1.370 . S
C2226 C2230 1.524 . S
C2227 C2219 1.503 . S
C2227 C2226 1.370 . S
C2227 C2228 1.403 . S
C2228 C2227 1.403 . S
C2228 C2229 1.404 . S
C2228 C2231 1.539 . S
C2229 C2225 1.408 . S
C2229 C2228 1.404 . S
C2229 H2241 0.930 . S
C2230 C2226 1.524 . S
C2230 H2242 0.956 . S
C2230 H2243 0.961 . S
C2230 H2244 0.961 . S
C2231 C2228 1.539 . S
C2231 H2245 0.958 . S
C2231 H2246 0.961 . S
C2231 H2247 0.960 . S
H2232 C2216 0.931 . S
H2233 C2221 0.929 . S
H2234 C2222 0.960 . S
H2235 C2222 0.962 . S
H2236 C2222 0.960 . S
H2237 C2223 0.961 . S
H2238 C2223 0.961 . S
H2239 C2223 0.961 . S
H2240 C2224 0.931 . S
H2241 C2229 0.930 . S
H2242 C2230 0.956 . S
H2243 C2230 0.961 . S
H2244 C2230 0.961 . S
H2245 C2231 0.958 . S
H2246 C2231 0.961 . S
H2247 C2231 0.960 . S
C2248 C2249 1.391 . S
C2248 C2250 1.394 . S
C2248 H2264 0.931 . S
C2249 C2248 1.391 . S
C2249 C2253 1.376 . S
C2250 C2248 1.394 . S
C2250 C2251 1.369 . S
C2250 C2254 1.531 . S
C2251 C2250 1.369 . S
C2251 C2252 1.410 . S
C2251 C2259 1.503 . S
C2252 C2251 1.410 . S
C2252 C2253 1.392 . S
C2252 C2255 1.511 . S
C2253 C2249 1.376 . S
C2253 C2252 1.392 . S
C2253 H2265 0.929 . S
C2254 C2250 1.531 . S
C2254 H2266 0.960 . S
C2254 H2267 0.962 . S
C2254 H2268 0.960 . S
C2255 C2252 1.511 . S
C2255 H2269 0.961 . S
C2255 H2270 0.961 . S
C2255 H2271 0.961 . S
C2256 C2257 1.370 . S
C2256 C2258 1.363 . S
C2256 H2272 0.931 . S
C2257 C2256 1.370 . S
C2257 C2261 1.408 . S
C2258 C2256 1.363 . S
C2258 C2259 1.370 . S
C2258 C2262 1.524 . S
C2259 C2251 1.503 . S
C2259 C2258 1.370 . S
C2259 C2260 1.403 . S
C2260 C2259 1.403 . S
C2260 C2261 1.404 . S
C2260 C2263 1.539 . S
C2261 C2257 1.408 . S
C2261 C2260 1.404 . S
C2261 H2273 0.930 . S
C2262 C2258 1.524 . S
C2262 H2274 0.956 . S
C2262 H2275 0.961 . S
C2262 H2276 0.961 . S
C2263 C2260 1.539 . S
C2263 H2277 0.958 . S
C2263 H2278 0.961 . S
C2263 H2279 0.960 . S
H2264 C2248 0.931 . S
H2265 C2253 0.929 . S
H2266 C2254 0.960 . S
H2267 C2254 0.962 . S
H2268 C2254 0.960 . S
H2269 C2255 0.961 . S
H2270 C2255 0.961 . S
H2271 C2255 0.961 . S
H2272 C2256 0.931 . S
H2273 C2261 0.930 . S
H2274 C2262 0.956 . S
H2275 C2262 0.961 . S
H2276 C2262 0.961 . S
H2277 C2263 0.958 . S
H2278 C2263 0.961 . S
H2279 C2263 0.960 . S
C2280 C2281 1.391 . S
C2280 C2282 1.394 . S
C2280 H2296 0.931 . S
C2281 C2280 1.391 . S
C2281 C2285 1.376 . S
C2282 C2280 1.394 . S
C2282 C2283 1.369 . S
C2282 C2286 1.531 . S
C2283 C2282 1.369 . S
C2283 C2284 1.410 . S
C2283 C2291 1.503 . S
C2284 C2283 1.410 . S
C2284 C2285 1.392 . S
C2284 C2287 1.511 . S
C2285 C2281 1.376 . S
C2285 C2284 1.392 . S
C2285 H2297 0.929 . S
C2286 C2282 1.531 . S
C2286 H2298 0.960 . S
C2286 H2299 0.962 . S
C2286 H2300 0.960 . S
C2287 C2284 1.511 . S
C2287 H2301 0.961 . S
C2287 H2302 0.961 . S
C2287 H2303 0.961 . S
C2288 C2289 1.370 . S
C2288 C2290 1.363 . S
C2288 H2304 0.931 . S
C2289 C2288 1.370 . S
C2289 C2293 1.408 . S
C2290 C2288 1.363 . S
C2290 C2291 1.370 . S
C2290 C2294 1.524 . S
C2291 C2283 1.503 . S
C2291 C2290 1.370 . S
C2291 C2292 1.403 . S
C2292 C2291 1.403 . S
C2292 C2293 1.404 . S
C2292 C2295 1.539 . S
C2293 C2289 1.408 . S
C2293 C2292 1.404 . S
C2293 H2305 0.930 . S
C2294 C2290 1.524 . S
C2294 H2306 0.956 . S
C2294 H2307 0.961 . S
C2294 H2308 0.961 . S
C2295 C2292 1.539 . S
C2295 H2309 0.958 . S
C2295 H2310 0.961 . S
C2295 H2311 0.960 . S
H2296 C2280 0.931 . S
H2297 C2285 0.929 . S
H2298 C2286 0.960 . S
H2299 C2286 0.962 . S
H2300 C2286 0.960 . S
H2301 C2287 0.961 . S
H2302 C2287 0.961 . S
H2303 C2287 0.961 . S
H2304 C2288 0.931 . S
H2305 C2293 0.930 . S
H2306 C2294 0.956 . S
H2307 C2294 0.961 . S
H2308 C2294 0.961 . S
H2309 C2295 0.958 . S
H2310 C2295 0.961 . S
H2311 C2295 0.960 . S
C2312 C2313 1.391 . S
C2312 C2314 1.394 . S
C2312 H2328 0.931 . S
C2313 C2312 1.391 . S
C2313 C2317 1.376 . S
C2314 C2312 1.394 . S
C2314 C2315 1.369 . S
C2314 C2318 1.531 . S
C2315 C2314 1.369 . S
C2315 C2316 1.410 . S
C2315 C2323 1.503 . S
C2316 C2315 1.410 . S
C2316 C2317 1.392 . S
C2316 C2319 1.511 . S
C2317 C2313 1.376 . S
C2317 C2316 1.392 . S
C2317 H2329 0.929 . S
C2318 C2314 1.531 . S
C2318 H2330 0.960 . S
C2318 H2331 0.962 . S
C2318 H2332 0.960 . S
C2319 C2316 1.511 . S
C2319 H2333 0.961 . S
C2319 H2334 0.961 . S
C2319 H2335 0.961 . S
C2320 C2321 1.370 . S
C2320 C2322 1.363 . S
C2320 H2336 0.931 . S
C2321 C2320 1.370 . S
C2321 C2325 1.408 . S
C2322 C2320 1.363 . S
C2322 C2323 1.370 . S
C2322 C2326 1.524 . S
C2323 C2315 1.503 . S
C2323 C2322 1.370 . S
C2323 C2324 1.403 . S
C2324 C2323 1.403 . S
C2324 C2325 1.404 . S
C2324 C2327 1.539 . S
C2325 C2321 1.408 . S
C2325 C2324 1.404 . S
C2325 H2337 0.930 . S
C2326 C2322 1.524 . S
C2326 H2338 0.956 . S
C2326 H2339 0.961 . S
C2326 H2340 0.961 . S
C2327 C2324 1.539 . S
C2327 H2341 0.958 . S
C2327 H2342 0.961 . S
C2327 H2343 0.960 . S
H2328 C2312 0.931 . S
H2329 C2317 0.929 . S
H2330 C2318 0.960 . S
H2331 C2318 0.962 . S
H2332 C2318 0.960 . S
H2333 C2319 0.961 . S
H2334 C2319 0.961 . S
H2335 C2319 0.961 . S
H2336 C2320 0.931 . S
H2337 C2325 0.930 . S
H2338 C2326 0.956 . S
H2339 C2326 0.961 . S
H2340 C2326 0.961 . S
H2341 C2327 0.958 . S
H2342 C2327 0.961 . S
H2343 C2327 0.960 . S
C2344 C2345 1.391 . S
C2344 C2346 1.394 . S
C2344 H2360 0.931 . S
C2345 C2344 1.391 . S
C2345 C2349 1.376 . S
C2346 C2344 1.394 . S
C2346 C2347 1.369 . S
C2346 C2350 1.531 . S
C2347 C2346 1.369 . S
C2347 C2348 1.410 . S
C2347 C2355 1.503 . S
C2348 C2347 1.410 . S
C2348 C2349 1.392 . S
C2348 C2351 1.511 . S
C2349 C2345 1.376 . S
C2349 C2348 1.392 . S
C2349 H2361 0.929 . S
C2350 C2346 1.531 . S
C2350 H2362 0.960 . S
C2350 H2363 0.962 . S
C2350 H2364 0.960 . S
C2351 C2348 1.511 . S
C2351 H2365 0.961 . S
C2351 H2366 0.961 . S
C2351 H2367 0.961 . S
C2352 C2353 1.370 . S
C2352 C2354 1.363 . S
C2352 H2368 0.931 . S
C2353 C2352 1.370 . S
C2353 C2357 1.408 . S
C2354 C2352 1.363 . S
C2354 C2355 1.370 . S
C2354 C2358 1.524 . S
C2355 C2347 1.503 . S
C2355 C2354 1.370 . S
C2355 C2356 1.403 . S
C2356 C2355 1.403 . S
C2356 C2357 1.404 . S
C2356 C2359 1.539 . S
C2357 C2353 1.408 . S
C2357 C2356 1.404 . S
C2357 H2369 0.930 . S
C2358 C2354 1.524 . S
C2358 H2370 0.956 . S
C2358 H2371 0.961 . S
C2358 H2372 0.961 . S
C2359 C2356 1.539 . S
C2359 H2373 0.958 . S
C2359 H2374 0.961 . S
C2359 H2375 0.960 . S
H2360 C2344 0.931 . S
H2361 C2349 0.929 . S
H2362 C2350 0.960 . S
H2363 C2350 0.962 . S
H2364 C2350 0.960 . S
H2365 C2351 0.961 . S
H2366 C2351 0.961 . S
H2367 C2351 0.961 . S
H2368 C2352 0.931 . S
H2369 C2357 0.930 . S
H2370 C2358 0.956 . S
H2371 C2358 0.961 . S
H2372 C2358 0.961 . S
H2373 C2359 0.958 . S
H2374 C2359 0.961 . S
H2375 C2359 0.960 . S
C2376 C2377 1.391 . S
C2376 C2378 1.394 . S
C2376 H2392 0.931 . S
C2377 C2376 1.391 . S
C2377 C2381 1.376 . S
C2378 C2376 1.394 . S
C2378 C2379 1.369 . S
C2378 C2382 1.531 . S
C2379 C2378 1.369 . S
C2379 C2380 1.410 . S
C2379 C2387 1.503 . S
C2380 C2379 1.410 . S
C2380 C2381 1.392 . S
C2380 C2383 1.511 . S
C2381 C2377 1.376 . S
C2381 C2380 1.392 . S
C2381 H2393 0.929 . S
C2382 C2378 1.531 . S
C2382 H2394 0.960 . S
C2382 H2395 0.962 . S
C2382 H2396 0.960 . S
C2383 C2380 1.511 . S
C2383 H2397 0.961 . S
C2383 H2398 0.961 . S
C2383 H2399 0.961 . S
C2384 C2385 1.370 . S
C2384 C2386 1.363 . S
C2384 H2400 0.931 . S
C2385 C2384 1.370 . S
C2385 C2389 1.408 . S
C2386 C2384 1.363 . S
C2386 C2387 1.370 . S
C2386 C2390 1.524 . S
C2387 C2379 1.503 . S
C2387 C2386 1.370 . S
C2387 C2388 1.403 . S
C2388 C2387 1.403 . S
C2388 C2389 1.404 . S
C2388 C2391 1.539 . S
C2389 C2385 1.408 . S
C2389 C2388 1.404 . S
C2389 H2401 0.930 . S
C2390 C2386 1.524 . S
C2390 H2402 0.956 . S
C2390 H2403 0.961 . S
C2390 H2404 0.961 . S
C2391 C2388 1.539 . S
C2391 H2405 0.958 . S
C2391 H2406 0.961 . S
C2391 H2407 0.960 . S
H2392 C2376 0.931 . S
H2393 C2381 0.929 . S
H2394 C2382 0.960 . S
H2395 C2382 0.962 . S
H2396 C2382 0.960 . S
H2397 C2383 0.961 . S
H2398 C2383 0.961 . S
H2399 C2383 0.961 . S
H2400 C2384 0.931 . S
H2401 C2389 0.930 . S
H2402 C2390 0.956 . S
H2403 C2390 0.961 . S
H2404 C2390 0.961 . S
H2405 C2391 0.958 . S
H2406 C2391 0.961 . S
H2407 C2391 0.960 . S
C2408 C2409 1.391 . S
C2408 C2410 1.394 . S
C2408 H2424 0.931 . S
C2409 C2408 1.391 . S
C2409 C2413 1.376 . S
C2410 C2408 1.394 . S
C2410 C2411 1.369 . S
C2410 C2414 1.531 . S
C2411 C2410 1.369 . S
C2411 C2412 1.410 . S
C2411 C2419 1.503 . S
C2412 C2411 1.410 . S
C2412 C2413 1.392 . S
C2412 C2415 1.511 . S
C2413 C2409 1.376 . S
C2413 C2412 1.392 . S
C2413 H2425 0.929 . S
C2414 C2410 1.531 . S
C2414 H2426 0.960 . S
C2414 H2427 0.962 . S
C2414 H2428 0.960 . S
C2415 C2412 1.511 . S
C2415 H2429 0.961 . S
C2415 H2430 0.961 . S
C2415 H2431 0.961 . S
C2416 C2417 1.370 . S
C2416 C2418 1.363 . S
C2416 H2432 0.931 . S
C2417 C2416 1.370 . S
C2417 C2421 1.408 . S
C2418 C2416 1.363 . S
C2418 C2419 1.370 . S
C2418 C2422 1.524 . S
C2419 C2411 1.503 . S
C2419 C2418 1.370 . S
C2419 C2420 1.403 . S
C2420 C2419 1.403 . S
C2420 C2421 1.404 . S
C2420 C2423 1.539 . S
C2421 C2417 1.408 . S
C2421 C2420 1.404 . S
C2421 H2433 0.930 . S
C2422 C2418 1.524 . S
C2422 H2434 0.956 . S
C2422 H2435 0.961 . S
C2422 H2436 0.961 . S
C2423 C2420 1.539 . S
C2423 H2437 0.958 . S
C2423 H2438 0.961 . S
C2423 H2439 0.960 . S
H2424 C2408 0.931 . S
H2425 C2413 0.929 . S
H2426 C2414 0.960 . S
H2427 C2414 0.962 . S
H2428 C2414 0.960 . S
H2429 C2415 0.961 . S
H2430 C2415 0.961 . S
H2431 C2415 0.961 . S
H2432 C2416 0.931 . S
H2433 C2421 0.930 . S
H2434 C2422 0.956 . S
H2435 C2422 0.961 . S
H2436 C2422 0.961 . S
H2437 C2423 0.958 . S
H2438 C2423 0.961 . S
H2439 C2423 0.960 . S
C2440 C2441 1.391 . S
C2440 C2442 1.394 . S
C2440 H2456 0.931 . S
C2441 C2440 1.391 . S
C2441 C2445 1.376 . S
C2442 C2440 1.394 . S
C2442 C2443 1.369 . S
C2442 C2446 1.531 . S
C2443 C2442 1.369 . S
C2443 C2444 1.410 . S
C2443 C2451 1.503 . S
C2444 C2443 1.410 . S
C2444 C2445 1.392 . S
C2444 C2447 1.511 . S
C2445 C2441 1.376 . S
C2445 C2444 1.392 . S
C2445 H2457 0.929 . S
C2446 C2442 1.531 . S
C2446 H2458 0.960 . S
C2446 H2459 0.962 . S
C2446 H2460 0.960 . S
C2447 C2444 1.511 . S
C2447 H2461 0.961 . S
C2447 H2462 0.961 . S
C2447 H2463 0.961 . S
C2448 C2449 1.370 . S
C2448 C2450 1.363 . S
C2448 H2464 0.931 . S
C2449 C2448 1.370 . S
C2449 C2453 1.408 . S
C2450 C2448 1.363 . S
C2450 C2451 1.370 . S
C2450 C2454 1.524 . S
C2451 C2443 1.503 . S
C2451 C2450 1.370 . S
C2451 C2452 1.403 . S
C2452 C2451 1.403 . S
C2452 C2453 1.404 . S
C2452 C2455 1.539 . S
C2453 C2449 1.408 . S
C2453 C2452 1.404 . S
C2453 H2465 0.930 . S
C2454 C2450 1.524 . S
C2454 H2466 0.956 . S
C2454 H2467 0.961 . S
C2454 H2468 0.961 . S
C2455 C2452 1.539 . S
C2455 H2469 0.958 . S
C2455 H2470 0.961 . S
C2455 H2471 0.960 . S
H2456 C2440 0.931 . S
H2457 C2445 0.929 . S
H2458 C2446 0.960 . S
H2459 C2446 0.962 . S
H2460 C2446 0.960 . S
H2461 C2447 0.961 . S
H2462 C2447 0.961 . S
H2463 C2447 0.961 . S
H2464 C2448 0.931 . S
H2465 C2453 0.930 . S
H2466 C2454 0.956 . S
H2467 C2454 0.961 . S
H2468 C2454 0.961 . S
H2469 C2455 0.958 . S
H2470 C2455 0.961 . S
H2471 C2455 0.960 . S
C2472 C2473 1.391 . S
C2472 C2474 1.394 . S
C2472 H2488 0.931 . S
C2473 C2472 1.391 . S
C2473 C2477 1.376 . S
C2474 C2472 1.394 . S
C2474 C2475 1.369 . S
C2474 C2478 1.531 . S
C2475 C2474 1.369 . S
C2475 C2476 1.410 . S
C2475 C2483 1.503 . S
C2476 C2475 1.410 . S
C2476 C2477 1.392 . S
C2476 C2479 1.511 . S
C2477 C2473 1.376 . S
C2477 C2476 1.392 . S
C2477 H2489 0.929 . S
C2478 C2474 1.531 . S
C2478 H2490 0.960 . S
C2478 H2491 0.962 . S
C2478 H2492 0.960 . S
C2479 C2476 1.511 . S
C2479 H2493 0.961 . S
C2479 H2494 0.961 . S
C2479 H2495 0.961 . S
C2480 C2481 1.370 . S
C2480 C2482 1.363 . S
C2480 H2496 0.931 . S
C2481 C2480 1.370 . S
C2481 C2485 1.408 . S
C2482 C2480 1.363 . S
C2482 C2483 1.370 . S
C2482 C2486 1.524 . S
C2483 C2475 1.503 . S
C2483 C2482 1.370 . S
C2483 C2484 1.403 . S
C2484 C2483 1.403 . S
C2484 C2485 1.404 . S
C2484 C2487 1.539 . S
C2485 C2481 1.408 . S
C2485 C2484 1.404 . S
C2485 H2497 0.930 . S
C2486 C2482 1.524 . S
C2486 H2498 0.956 . S
C2486 H2499 0.961 . S
C2486 H2500 0.961 . S
C2487 C2484 1.539 . S
C2487 H2501 0.958 . S
C2487 H2502 0.961 . S
C2487 H2503 0.960 . S
H2488 C2472 0.931 . S
H2489 C2477 0.929 . S
H2490 C2478 0.960 . S
H2491 C2478 0.962 . S
H2492 C2478 0.960 . S
H2493 C2479 0.961 . S
H2494 C2479 0.961 . S
H2495 C2479 0.961 . S
H2496 C2480 0.931 . S
H2497 C2485 0.930 . S
H2498 C2486 0.956 . S
H2499 C2486 0.961 . S
H2500 C2486 0.961 . S
H2501 C2487 0.958 . S
H2502 C2487 0.961 . S
H2503 C2487 0.960 . S
C2504 C2505 1.391 . S
C2504 C2506 1.394 . S
C2504 H2520 0.931 . S
C2505 C2504 1.391 . S
C2505 C2509 1.376 . S
C2506 C2504 1.394 . S
C2506 C2507 1.369 . S
C2506 C2510 1.531 . S
C2507 C2506 1.369 . S
C2507 C2508 1.410 . S
C2507 C2515 1.503 . S
C2508 C2507 1.410 . S
C2508 C2509 1.392 . S
C2508 C2511 1.511 . S
C2509 C2505 1.376 . S
C2509 C2508 1.392 . S
C2509 H2521 0.929 . S
C2510 C2506 1.531 . S
C2510 H2522 0.960 . S
C2510 H2523 0.962 . S
C2510 H2524 0.960 . S
C2511 C2508 1.511 . S
C2511 H2525 0.961 . S
C2511 H2526 0.961 . S
C2511 H2527 0.961 . S
C2512 C2513 1.370 . S
C2512 C2514 1.363 . S
C2512 H2528 0.931 . S
C2513 C2512 1.370 . S
C2513 C2517 1.408 . S
C2514 C2512 1.363 . S
C2514 C2515 1.370 . S
C2514 C2518 1.524 . S
C2515 C2507 1.503 . S
C2515 C2514 1.370 . S
C2515 C2516 1.403 . S
C2516 C2515 1.403 . S
C2516 C2517 1.404 . S
C2516 C2519 1.539 . S
C2517 C2513 1.408 . S
C2517 C2516 1.404 . S
C2517 H2529 0.930 . S
C2518 C2514 1.524 . S
C2518 H2530 0.956 . S
C2518 H2531 0.961 . S
C2518 H2532 0.961 . S
C2519 C2516 1.539 . S
C2519 H2533 0.958 . S
C2519 H2534 0.961 . S
C2519 H2535 0.960 . S
H2520 C2504 0.931 . S
H2521 C2509 0.929 . S
H2522 C2510 0.960 . S
H2523 C2510 0.962 . S
H2524 C2510 0.960 . S
H2525 C2511 0.961 . S
H2526 C2511 0.961 . S
H2527 C2511 0.961 . S
H2528 C2512 0.931 . S
H2529 C2517 0.930 . S
H2530 C2518 0.956 . S
H2531 C2518 0.961 . S
H2532 C2518 0.961 . S
H2533 C2519 0.958 . S
H2534 C2519 0.961 . S
H2535 C2519 0.960 . S
C2536 C2537 1.391 . S
C2536 C2538 1.394 . S
C2536 H2552 0.931 . S
C2537 C2536 1.391 . S
C2537 C2541 1.376 . S
C2538 C2536 1.394 . S
C2538 C2539 1.369 . S
C2538 C2542 1.531 . S
C2539 C2538 1.369 . S
C2539 C2540 1.410 . S
C2539 C2547 1.503 . S
C2540 C2539 1.410 . S
C2540 C2541 1.392 . S
C2540 C2543 1.511 . S
C2541 C2537 1.376 . S
C2541 C2540 1.392 . S
C2541 H2553 0.929 . S
C2542 C2538 1.531 . S
C2542 H2554 0.960 . S
C2542 H2555 0.962 . S
C2542 H2556 0.960 . S
C2543 C2540 1.511 . S
C2543 H2557 0.961 . S
C2543 H2558 0.961 . S
C2543 H2559 0.961 . S
C2544 C2545 1.370 . S
C2544 C2546 1.363 . S
C2544 H2560 0.931 . S
C2545 C2544 1.370 . S
C2545 C2549 1.408 . S
C2546 C2544 1.363 . S
C2546 C2547 1.370 . S
C2546 C2550 1.524 . S
C2547 C2539 1.503 . S
C2547 C2546 1.370 . S
C2547 C2548 1.403 . S
C2548 C2547 1.403 . S
C2548 C2549 1.404 . S
C2548 C2551 1.539 . S
C2549 C2545 1.408 . S
C2549 C2548 1.404 . S
C2549 H2561 0.930 . S
C2550 C2546 1.524 . S
C2550 H2562 0.956 . S
C2550 H2563 0.961 . S
C2550 H2564 0.961 . S
C2551 C2548 1.539 . S
C2551 H2565 0.958 . S
C2551 H2566 0.961 . S
C2551 H2567 0.960 . S
H2552 C2536 0.931 . S
H2553 C2541 0.929 . S
H2554 C2542 0.960 . S
H2555 C2542 0.962 . S
H2556 C2542 0.960 . S
H2557 C2543 0.961 . S
H2558 C2543 0.961 . S
H2559 C2543 0.961 . S
H2560 C2544 0.931 . S
H2561 C2549 0.930 . S
H2562 C2550 0.956 . S
H2563 C2550 0.961 . S
H2564 C2550 0.961 . S
H2565 C2551 0.958 . S
H2566 C2551 0.961 . S
H2567 C2551 0.960 . S
C2568 C2569 1.391 . S
C2568 C2570 1.394 . S
C2568 H2584 0.931 . S
C2569 C2568 1.391 . S
C2569 C2573 1.376 . S
C2570 C2568 1.394 . S
C2570 C2571 1.369 . S
C2570 C2574 1.531 . S
C2571 C2570 1.369 . S
C2571 C2572 1.410 . S
C2571 C2579 1.503 . S
C2572 C2571 1.410 . S
C2572 C2573 1.392 . S
C2572 C2575 1.511 . S
C2573 C2569 1.376 . S
C2573 C2572 1.392 . S
C2573 H2585 0.929 . S
C2574 C2570 1.531 . S
C2574 H2586 0.960 . S
C2574 H2587 0.962 . S
C2574 H2588 0.960 . S
C2575 C2572 1.511 . S
C2575 H2589 0.961 . S
C2575 H2590 0.961 . S
C2575 H2591 0.961 . S
C2576 C2577 1.370 . S
C2576 C2578 1.363 . S
C2576 H2592 0.931 . S
C2577 C2576 1.370 . S
C2577 C2581 1.408 . S
C2578 C2576 1.363 . S
C2578 C2579 1.370 . S
C2578 C2582 1.524 . S
C2579 C2571 1.503 . S
C2579 C2578 1.370 . S
C2579 C2580 1.403 . S
C2580 C2579 1.403 . S
C2580 C2581 1.404 . S
C2580 C2583 1.539 . S
C2581 C2577 1.408 . S
C2581 C2580 1.404 . S
C2581 H2593 0.930 . S
C2582 C2578 1.524 . S
C2582 H2594 0.956 . S
C2582 H2595 0.961 . S
C2582 H2596 0.961 . S
C2583 C2580 1.539 . S
C2583 H2597 0.958 . S
C2583 H2598 0.961 . S
C2583 H2599 0.960 . S
H2584 C2568 0.931 . S
H2585 C2573 0.929 . S
H2586 C2574 0.960 . S
H2587 C2574 0.962 . S
H2588 C2574 0.960 . S
H2589 C2575 0.961 . S
H2590 C2575 0.961 . S
H2591 C2575 0.961 . S
H2592 C2576 0.931 . S
H2593 C2581 0.930 . S
H2594 C2582 0.956 . S
H2595 C2582 0.961 . S
H2596 C2582 0.961 . S
H2597 C2583 0.958 . S
H2598 C2583 0.961 . S
H2599 C2583 0.960 . S
C2600 C2601 1.391 . S
C2600 C2602 1.394 . S
C2600 H2616 0.931 . S
C2601 C2600 1.391 . S
C2601 C2605 1.376 . S
C2602 C2600 1.394 . S
C2602 C2603 1.369 . S
C2602 C2606 1.531 . S
C2603 C2602 1.369 . S
C2603 C2604 1.410 . S
C2603 C2611 1.503 . S
C2604 C2603 1.410 . S
C2604 C2605 1.392 . S
C2604 C2607 1.511 . S
C2605 C2601 1.376 . S
C2605 C2604 1.392 . S
C2605 H2617 0.929 . S
C2606 C2602 1.531 . S
C2606 H2618 0.960 . S
C2606 H2619 0.962 . S
C2606 H2620 0.960 . S
C2607 C2604 1.511 . S
C2607 H2621 0.961 . S
C2607 H2622 0.961 . S
C2607 H2623 0.961 . S
C2608 C2609 1.370 . S
C2608 C2610 1.363 . S
C2608 H2624 0.931 . S
C2609 C2608 1.370 . S
C2609 C2613 1.408 . S
C2610 C2608 1.363 . S
C2610 C2611 1.370 . S
C2610 C2614 1.524 . S
C2611 C2603 1.503 . S
C2611 C2610 1.370 . S
C2611 C2612 1.403 . S
C2612 C2611 1.403 . S
C2612 C2613 1.404 . S
C2612 C2615 1.539 . S
C2613 C2609 1.408 . S
C2613 C2612 1.404 . S
C2613 H2625 0.930 . S
C2614 C2610 1.524 . S
C2614 H2626 0.956 . S
C2614 H2627 0.961 . S
C2614 H2628 0.961 . S
C2615 C2612 1.539 . S
C2615 H2629 0.958 . S
C2615 H2630 0.961 . S
C2615 H2631 0.960 . S
H2616 C2600 0.931 . S
H2617 C2605 0.929 . S
H2618 C2606 0.960 . S
H2619 C2606 0.962 . S
H2620 C2606 0.960 . S
H2621 C2607 0.961 . S
H2622 C2607 0.961 . S
H2623 C2607 0.961 . S
H2624 C2608 0.931 . S
H2625 C2613 0.930 . S
H2626 C2614 0.956 . S
H2627 C2614 0.961 . S
H2628 C2614 0.961 . S
H2629 C2615 0.958 . S
H2630 C2615 0.961 . S
H2631 C2615 0.960 . S
C2632 C2633 1.391 . S
C2632 C2634 1.394 . S
C2632 H2648 0.931 . S
C2633 C2632 1.391 . S
C2633 C2637 1.376 . S
C2634 C2632 1.394 . S
C2634 C2635 1.369 . S
C2634 C2638 1.531 . S
C2635 C2634 1.369 . S
C2635 C2636 1.410 . S
C2635 C2643 1.503 . S
C2636 C2635 1.410 . S
C2636 C2637 1.392 . S
C2636 C2639 1.511 . S
C2637 C2633 1.376 . S
C2637 C2636 1.392 . S
C2637 H2649 0.929 . S
C2638 C2634 1.531 . S
C2638 H2650 0.960 . S
C2638 H2651 0.962 . S
C2638 H2652 0.960 . S
C2639 C2636 1.511 . S
C2639 H2653 0.961 . S
C2639 H2654 0.961 . S
C2639 H2655 0.961 . S
C2640 C2641 1.370 . S
C2640 C2642 1.363 . S
C2640 H2656 0.931 . S
C2641 C2640 1.370 . S
C2641 C2645 1.408 . S
C2642 C2640 1.363 . S
C2642 C2643 1.370 . S
C2642 C2646 1.524 . S
C2643 C2635 1.503 . S
C2643 C2642 1.370 . S
C2643 C2644 1.403 . S
C2644 C2643 1.403 . S
C2644 C2645 1.404 . S
C2644 C2647 1.539 . S
C2645 C2641 1.408 . S
C2645 C2644 1.404 . S
C2645 H2657 0.930 . S
C2646 C2642 1.524 . S
C2646 H2658 0.956 . S
C2646 H2659 0.961 . S
C2646 H2660 0.961 . S
C2647 C2644 1.539 . S
C2647 H2661 0.958 . S
C2647 H2662 0.961 . S
C2647 H2663 0.960 . S
H2648 C2632 0.931 . S
H2649 C2637 0.929 . S
H2650 C2638 0.960 . S
H2651 C2638 0.962 . S
H2652 C2638 0.960 . S
H2653 C2639 0.961 . S
H2654 C2639 0.961 . S
H2655 C2639 0.961 . S
H2656 C2640 0.931 . S
H2657 C2645 0.930 . S
H2658 C2646 0.956 . S
H2659 C2646 0.961 . S
H2660 C2646 0.961 . S
H2661 C2647 0.958 . S
H2662 C2647 0.961 . S
H2663 C2647 0.960 . S
C2664 C2665 1.391 . S
C2664 C2666 1.394 . S
C2664 H2680 0.931 . S
C2665 C2664 1.391 . S
C2665 C2669 1.376 . S
C2666 C2664 1.394 . S
C2666 C2667 1.369 . S
C2666 C2670 1.531 . S
C2667 C2666 1.369 . S
C2667 C2668 1.410 . S
C2667 C2675 1.503 . S
C2668 C2667 1.410 . S
C2668 C2669 1.392 . S
C2668 C2671 1.511 . S
C2669 C2665 1.376 . S
C2669 C2668 1.392 . S
C2669 H2681 0.929 . S
C2670 C2666 1.531 . S
C2670 H2682 0.960 . S
C2670 H2683 0.962 . S
C2670 H2684 0.960 . S
C2671 C2668 1.511 . S
C2671 H2685 0.961 . S
C2671 H2686 0.961 . S
C2671 H2687 0.961 . S
C2672 C2673 1.370 . S
C2672 C2674 1.363 . S
C2672 H2688 0.931 . S
C2673 C2672 1.370 . S
C2673 C2677 1.408 . S
C2674 C2672 1.363 . S
C2674 C2675 1.370 . S
C2674 C2678 1.524 . S
C2675 C2667 1.503 . S
C2675 C2674 1.370 . S
C2675 C2676 1.403 . S
C2676 C2675 1.403 . S
C2676 C2677 1.404 . S
C2676 C2679 1.539 . S
C2677 C2673 1.408 . S
C2677 C2676 1.404 . S
C2677 H2689 0.930 . S
C2678 C2674 1.524 . S
C2678 H2690 0.956 . S
C2678 H2691 0.961 . S
C2678 H2692 0.961 . S
C2679 C2676 1.539 . S
C2679 H2693 0.958 . S
C2679 H2694 0.961 . S
C2679 H2695 0.960 . S
H2680 C2664 0.931 . S
H2681 C2669 0.929 . S
H2682 C2670 0.960 . S
H2683 C2670 0.962 . S
H2684 C2670 0.960 . S
H2685 C2671 0.961 . S
H2686 C2671 0.961 . S
H2687 C2671 0.961 . S
H2688 C2672 0.931 . S
H2689 C2677 0.930 . S
H2690 C2678 0.956 . S
H2691 C2678 0.961 . S
H2692 C2678 0.961 . S
H2693 C2679 0.958 . S
H2694 C2679 0.961 . S
H2695 C2679 0.960 . S
C2696 C2697 1.391 . S
C2696 C2698 1.394 . S
C2696 H2712 0.931 . S
C2697 C2696 1.391 . S
C2697 C2701 1.376 . S
C2698 C2696 1.394 . S
C2698 C2699 1.369 . S
C2698 C2702 1.531 . S
C2699 C2698 1.369 . S
C2699 C2700 1.410 . S
C2699 C2707 1.503 . S
C2700 C2699 1.410 . S
C2700 C2701 1.392 . S
C2700 C2703 1.511 . S
C2701 C2697 1.376 . S
C2701 C2700 1.392 . S
C2701 H2713 0.929 . S
C2702 C2698 1.531 . S
C2702 H2714 0.960 . S
C2702 H2715 0.962 . S
C2702 H2716 0.960 . S
C2703 C2700 1.511 . S
C2703 H2717 0.961 . S
C2703 H2718 0.961 . S
C2703 H2719 0.961 . S
C2704 C2705 1.370 . S
C2704 C2706 1.363 . S
C2704 H2720 0.931 . S
C2705 C2704 1.370 . S
C2705 C2709 1.408 . S
C2706 C2704 1.363 . S
C2706 C2707 1.370 . S
C2706 C2710 1.524 . S
C2707 C2699 1.503 . S
C2707 C2706 1.370 . S
C2707 C2708 1.403 . S
C2708 C2707 1.403 . S
C2708 C2709 1.404 . S
C2708 C2711 1.539 . S
C2709 C2705 1.408 . S
C2709 C2708 1.404 . S
C2709 H2721 0.930 . S
C2710 C2706 1.524 . S
C2710 H2722 0.956 . S
C2710 H2723 0.961 . S
C2710 H2724 0.961 . S
C2711 C2708 1.539 . S
C2711 H2725 0.958 . S
C2711 H2726 0.961 . S
C2711 H2727 0.960 . S
H2712 C2696 0.931 . S
H2713 C2701 0.929 . S
H2714 C2702 0.960 . S
H2715 C2702 0.962 . S
H2716 C2702 0.960 . S
H2717 C2703 0.961 . S
H2718 C2703 0.961 . S
H2719 C2703 0.961 . S
H2720 C2704 0.931 . S
H2721 C2709 0.930 . S
H2722 C2710 0.956 . S
H2723 C2710 0.961 . S
H2724 C2710 0.961 . S
H2725 C2711 0.958 . S
H2726 C2711 0.961 . S
H2727 C2711 0.960 . S
C2728 C2729 1.391 . S
C2728 C2730 1.394 . S
C2728 H2744 0.931 . S
C2729 C2728 1.391 . S
C2729 C2733 1.376 . S
C2730 C2728 1.394 . S
C2730 C2731 1.369 . S
C2730 C2734 1.531 . S
C2731 C2730 1.369 . S
C2731 C2732 1.410 . S
C2731 C2739 1.503 . S
C2732 C2731 1.410 . S
C2732 C2733 1.392 . S
C2732 C2735 1.511 . S
C2733 C2729 1.376 . S
C2733 C2732 1.392 . S
C2733 H2745 0.929 . S
C2734 C2730 1.531 . S
C2734 H2746 0.960 . S
C2734 H2747 0.962 . S
C2734 H2748 0.960 . S
C2735 C2732 1.511 . S
C2735 H2749 0.961 . S
C2735 H2750 0.961 . S
C2735 H2751 0.961 . S
C2736 C2737 1.370 . S
C2736 C2738 1.363 . S
C2736 H2752 0.931 . S
C2737 C2736 1.370 . S
C2737 C2741 1.408 . S
C2738 C2736 1.363 . S
C2738 C2739 1.370 . S
C2738 C2742 1.524 . S
C2739 C2731 1.503 . S
C2739 C2738 1.370 . S
C2739 C2740 1.403 . S
C2740 C2739 1.403 . S
C2740 C2741 1.404 . S
C2740 C2743 1.539 . S
C2741 C2737 1.408 . S
C2741 C2740 1.404 . S
C2741 H2753 0.930 . S
C2742 C2738 1.524 . S
C2742 H2754 0.956 . S
C2742 H2755 0.961 . S
C2742 H2756 0.961 . S
C2743 C2740 1.539 . S
C2743 H2757 0.958 . S
C2743 H2758 0.961 . S
C2743 H2759 0.960 . S
H2744 C2728 0.931 . S
H2745 C2733 0.929 . S
H2746 C2734 0.960 . S
H2747 C2734 0.962 . S
H2748 C2734 0.960 . S
H2749 C2735 0.961 . S
H2750 C2735 0.961 . S
H2751 C2735 0.961 . S
H2752 C2736 0.931 . S
H2753 C2741 0.930 . S
H2754 C2742 0.956 . S
H2755 C2742 0.961 . S
H2756 C2742 0.961 . S
H2757 C2743 0.958 . S
H2758 C2743 0.961 . S
H2759 C2743 0.960 . S
C2760 C2761 1.391 . S
C2760 C2762 1.394 . S
C2760 H2776 0.931 . S
C2761 C2760 1.391 . S
C2761 C2765 1.376 . S
C2762 C2760 1.394 . S
C2762 C2763 1.369 . S
C2762 C2766 1.531 . S
C2763 C2762 1.369 . S
C2763 C2764 1.410 . S
C2763 C2771 1.503 . S
C2764 C2763 1.410 . S
C2764 C2765 1.392 . S
C2764 C2767 1.511 . S
C2765 C2761 1.376 . S
C2765 C2764 1.392 . S
C2765 H2777 0.929 . S
C2766 C2762 1.531 . S
C2766 H2778 0.960 . S
C2766 H2779 0.962 . S
C2766 H2780 0.960 . S
C2767 C2764 1.511 . S
C2767 H2781 0.961 . S
C2767 H2782 0.961 . S
C2767 H2783 0.961 . S
C2768 C2769 1.370 . S
C2768 C2770 1.363 . S
C2768 H2784 0.931 . S
C2769 C2768 1.370 . S
C2769 C2773 1.408 . S
C2770 C2768 1.363 . S
C2770 C2771 1.370 . S
C2770 C2774 1.524 . S
C2771 C2763 1.503 . S
C2771 C2770 1.370 . S
C2771 C2772 1.403 . S
C2772 C2771 1.403 . S
C2772 C2773 1.404 . S
C2772 C2775 1.539 . S
C2773 C2769 1.408 . S
C2773 C2772 1.404 . S
C2773 H2785 0.930 . S
C2774 C2770 1.524 . S
C2774 H2786 0.956 . S
C2774 H2787 0.961 . S
C2774 H2788 0.961 . S
C2775 C2772 1.539 . S
C2775 H2789 0.958 . S
C2775 H2790 0.961 . S
C2775 H2791 0.960 . S
H2776 C2760 0.931 . S
H2777 C2765 0.929 . S
H2778 C2766 0.960 . S
H2779 C2766 0.962 . S
H2780 C2766 0.960 . S
H2781 C2767 0.961 . S
H2782 C2767 0.961 . S
H2783 C2767 0.961 . S
H2784 C2768 0.931 . S
H2785 C2773 0.930 . S
H2786 C2774 0.956 . S
H2787 C2774 0.961 . S
H2788 C2774 0.961 . S
H2789 C2775 0.958 . S
H2790 C2775 0.961 . S
H2791 C2775 0.960 . S
C2792 C2793 1.391 . S
C2792 C2794 1.394 . S
C2792 H2808 0.931 . S
C2793 C2792 1.391 . S
C2793 C2797 1.376 . S
C2794 C2792 1.394 . S
C2794 C2795 1.369 . S
C2794 C2798 1.531 . S
C2795 C2794 1.369 . S
C2795 C2796 1.410 . S
C2795 C2803 1.503 . S
C2796 C2795 1.410 . S
C2796 C2797 1.392 . S
C2796 C2799 1.511 . S
C2797 C2793 1.376 . S
C2797 C2796 1.392 . S
C2797 H2809 0.929 . S
C2798 C2794 1.531 . S
C2798 H2810 0.960 . S
C2798 H2811 0.962 . S
C2798 H2812 0.960 . S
C2799 C2796 1.511 . S
C2799 H2813 0.961 . S
C2799 H2814 0.961 . S
C2799 H2815 0.961 . S
C2800 C2801 1.370 . S
C2800 C2802 1.363 . S
C2800 H2816 0.931 . S
C2801 C2800 1.370 . S
C2801 C2805 1.408 . S
C2802 C2800 1.363 . S
C2802 C2803 1.370 . S
C2802 C2806 1.524 . S
C2803 C2795 1.503 . S
C2803 C2802 1.370 . S
C2803 C2804 1.403 . S
C2804 C2803 1.403 . S
C2804 C2805 1.404 . S
C2804 C2807 1.539 . S
C2805 C2801 1.408 . S
C2805 C2804 1.404 . S
C2805 H2817 0.930 . S
C2806 C2802 1.524 . S
C2806 H2818 0.956 . S
C2806 H2819 0.961 . S
C2806 H2820 0.961 . S
C2807 C2804 1.539 . S
C2807 H2821 0.958 . S
C2807 H2822 0.961 . S
C2807 H2823 0.960 . S
H2808 C2792 0.931 . S
H2809 C2797 0.929 . S
H2810 C2798 0.960 . S
H2811 C2798 0.962 . S
H2812 C2798 0.960 . S
H2813 C2799 0.961 . S
H2814 C2799 0.961 . S
H2815 C2799 0.961 . S
H2816 C2800 0.931 . S
H2817 C2805 0.930 . S
H2818 C2806 0.956 . S
H2819 C2806 0.961 . S
H2820 C2806 0.961 . S
H2821 C2807 0.958 . S
H2822 C2807 0.961 . S
H2823 C2807 0.960 . S
C2824 C2825 1.391 . S
C2824 C2826 1.394 . S
C2824 H2840 0.931 . S
C2825 C2824 1.391 . S
C2825 C2829 1.376 . S
C2826 C2824 1.394 . S
C2826 C2827 1.369 . S
C2826 C2830 1.531 . S
C2827 C2826 1.369 . S
C2827 C2828 1.410 . S
C2827 C2835 1.503 . S
C2828 C2827 1.410 . S
C2828 C2829 1.392 . S
C2828 C2831 1.511 . S
C2829 C2825 1.376 . S
C2829 C2828 1.392 . S
C2829 H2841 0.929 . S
C2830 C2826 1.531 . S
C2830 H2842 0.960 . S
C2830 H2843 0.962 . S
C2830 H2844 0.960 . S
C2831 C2828 1.511 . S
C2831 H2845 0.961 . S
C2831 H2846 0.961 . S
C2831 H2847 0.961 . S
C2832 C2833 1.370 . S
C2832 C2834 1.363 . S
C2832 H2848 0.931 . S
C2833 C2832 1.370 . S
C2833 C2837 1.408 . S
C2834 C2832 1.363 . S
C2834 C2835 1.370 . S
C2834 C2838 1.524 . S
C2835 C2827 1.503 . S
C2835 C2834 1.370 . S
C2835 C2836 1.403 . S
C2836 C2835 1.403 . S
C2836 C2837 1.404 . S
C2836 C2839 1.539 . S
C2837 C2833 1.408 . S
C2837 C2836 1.404 . S
C2837 H2849 0.930 . S
C2838 C2834 1.524 . S
C2838 H2850 0.956 . S
C2838 H2851 0.961 . S
C2838 H2852 0.961 . S
C2839 C2836 1.539 . S
C2839 H2853 0.958 . S
C2839 H2854 0.961 . S
C2839 H2855 0.960 . S
H2840 C2824 0.931 . S
H2841 C2829 0.929 . S
H2842 C2830 0.960 . S
H2843 C2830 0.962 . S
H2844 C2830 0.960 . S
H2845 C2831 0.961 . S
H2846 C2831 0.961 . S
H2847 C2831 0.961 . S
H2848 C2832 0.931 . S
H2849 C2837 0.930 . S
H2850 C2838 0.956 . S
H2851 C2838 0.961 . S
H2852 C2838 0.961 . S
H2853 C2839 0.958 . S
H2854 C2839 0.961 . S
H2855 C2839 0.960 . S
C2856 C2857 1.391 . S
C2856 C2858 1.394 . S
C2856 H2872 0.931 . S
C2857 C2856 1.391 . S
C2857 C2861 1.376 . S
C2858 C2856 1.394 . S
C2858 C2859 1.369 . S
C2858 C2862 1.531 . S
C2859 C2858 1.369 . S
C2859 C2860 1.410 . S
C2859 C2867 1.503 . S
C2860 C2859 1.410 . S
C2860 C2861 1.392 . S
C2860 C2863 1.511 . S
C2861 C2857 1.376 . S
C2861 C2860 1.392 . S
C2861 H2873 0.929 . S
C2862 C2858 1.531 . S
C2862 H2874 0.960 . S
C2862 H2875 0.962 . S
C2862 H2876 0.960 . S
C2863 C2860 1.511 . S
C2863 H2877 0.961 . S
C2863 H2878 0.961 . S
C2863 H2879 0.961 . S
C2864 C2865 1.370 . S
C2864 C2866 1.363 . S
C2864 H2880 0.931 . S
C2865 C2864 1.370 . S
C2865 C2869 1.408 . S
C2866 C2864 1.363 . S
C2866 C2867 1.370 . S
C2866 C2870 1.524 . S
C2867 C2859 1.503 . S
C2867 C2866 1.370 . S
C2867 C2868 1.403 . S
C2868 C2867 1.403 . S
C2868 C2869 1.404 . S
C2868 C2871 1.539 . S
C2869 C2865 1.408 . S
C2869 C2868 1.404 . S
C2869 H2881 0.930 . S
C2870 C2866 1.524 . S
C2870 H2882 0.956 . S
C2870 H2883 0.961 . S
C2870 H2884 0.961 . S
C2871 C2868 1.539 . S
C2871 H2885 0.958 . S
C2871 H2886 0.961 . S
C2871 H2887 0.960 . S
H2872 C2856 0.931 . S
H2873 C2861 0.929 . S
H2874 C2862 0.960 . S
H2875 C2862 0.962 . S
H2876 C2862 0.960 . S
H2877 C2863 0.961 . S
H2878 C2863 0.961 . S
H2879 C2863 0.961 . S
H2880 C2864 0.931 . S
H2881 C2869 0.930 . S
H2882 C2870 0.956 . S
H2883 C2870 0.961 . S
H2884 C2870 0.961 . S
H2885 C2871 0.958 . S
H2886 C2871 0.961 . S
H2887 C2871 0.960 . S
C2888 C2889 1.391 . S
C2888 C2890 1.394 . S
C2888 H2904 0.931 . S
C2889 C2888 1.391 . S
C2889 C2893 1.376 . S
C2890 C2888 1.394 . S
C2890 C2891 1.369 . S
C2890 C2894 1.531 . S
C2891 C2890 1.369 . S
C2891 C2892 1.410 . S
C2891 C2899 1.503 . S
C2892 C2891 1.410 . S
C2892 C2893 1.392 . S
C2892 C2895 1.511 . S
C2893 C2889 1.376 . S
C2893 C2892 1.392 . S
C2893 H2905 0.929 . S
C2894 C2890 1.531 . S
C2894 H2906 0.960 . S
C2894 H2907 0.962 . S
C2894 H2908 0.960 . S
C2895 C2892 1.511 . S
C2895 H2909 0.961 . S
C2895 H2910 0.961 . S
C2895 H2911 0.961 . S
C2896 C2897 1.370 . S
C2896 C2898 1.363 . S
C2896 H2912 0.931 . S
C2897 C2896 1.370 . S
C2897 C2901 1.408 . S
C2898 C2896 1.363 . S
C2898 C2899 1.370 . S
C2898 C2902 1.524 . S
C2899 C2891 1.503 . S
C2899 C2898 1.370 . S
C2899 C2900 1.403 . S
C2900 C2899 1.403 . S
C2900 C2901 1.404 . S
C2900 C2903 1.539 . S
C2901 C2897 1.408 . S
C2901 C2900 1.404 . S
C2901 H2913 0.930 . S
C2902 C2898 1.524 . S
C2902 H2914 0.956 . S
C2902 H2915 0.961 . S
C2902 H2916 0.961 . S
C2903 C2900 1.539 . S
C2903 H2917 0.958 . S
C2903 H2918 0.961 . S
C2903 H2919 0.960 . S
H2904 C2888 0.931 . S
H2905 C2893 0.929 . S
H2906 C2894 0.960 . S
H2907 C2894 0.962 . S
H2908 C2894 0.960 . S
H2909 C2895 0.961 . S
H2910 C2895 0.961 . S
H2911 C2895 0.961 . S
H2912 C2896 0.931 . S
H2913 C2901 0.930 . S
H2914 C2902 0.956 . S
H2915 C2902 0.961 . S
H2916 C2902 0.961 . S
H2917 C2903 0.958 . S
H2918 C2903 0.961 . S
H2919 C2903 0.960 . S
C2920 C2921 1.391 . S
C2920 C2922 1.394 . S
C2920 H2936 0.931 . S
C2921 C2920 1.391 . S
C2921 C2925 1.376 . S
C2922 C2920 1.394 . S
C2922 C2923 1.369 . S
C2922 C2926 1.531 . S
C2923 C2922 1.369 . S
C2923 C2924 1.410 . S
C2923 C2931 1.503 . S
C2924 C2923 1.410 . S
C2924 C2925 1.392 . S
C2924 C2927 1.511 . S
C2925 C2921 1.376 . S
C2925 C2924 1.392 . S
C2925 H2937 0.929 . S
C2926 C2922 1.531 . S
C2926 H2938 0.960 . S
C2926 H2939 0.962 . S
C2926 H2940 0.960 . S
C2927 C2924 1.511 . S
C2927 H2941 0.961 . S
C2927 H2942 0.961 . S
C2927 H2943 0.961 . S
C2928 C2929 1.370 . S
C2928 C2930 1.363 . S
C2928 H2944 0.931 . S
C2929 C2928 1.370 . S
C2929 C2933 1.408 . S
C2930 C2928 1.363 . S
C2930 C2931 1.370 . S
C2930 C2934 1.524 . S
C2931 C2923 1.503 . S
C2931 C2930 1.370 . S
C2931 C2932 1.403 . S
C2932 C2931 1.403 . S
C2932 C2933 1.404 . S
C2932 C2935 1.539 . S
C2933 C2929 1.408 . S
C2933 C2932 1.404 . S
C2933 H2945 0.930 . S
C2934 C2930 1.524 . S
C2934 H2946 0.956 . S
C2934 H2947 0.961 . S
C2934 H2948 0.961 . S
C2935 C2932 1.539 . S
C2935 H2949 0.958 . S
C2935 H2950 0.961 . S
C2935 H2951 0.960 . S
H2936 C2920 0.931 . S
H2937 C2925 0.929 . S
H2938 C2926 0.960 . S
H2939 C2926 0.962 . S
H2940 C2926 0.960 . S
H2941 C2927 0.961 . S
H2942 C2927 0.961 . S
H2943 C2927 0.961 . S
H2944 C2928 0.931 . S
H2945 C2933 0.930 . S
H2946 C2934 0.956 . S
H2947 C2934 0.961 . S
H2948 C2934 0.961 . S
H2949 C2935 0.958 . S
H2950 C2935 0.961 . S
H2951 C2935 0.960 . S
C2952 C2953 1.391 . S
C2952 C2954 1.394 . S
C2952 H2968 0.931 . S
C2953 C2952 1.391 . S
C2953 C2957 1.376 . S
C2954 C2952 1.394 . S
C2954 C2955 1.369 . S
C2954 C2958 1.531 . S
C2955 C2954 1.369 . S
C2955 C2956 1.410 . S
C2955 C2963 1.503 . S
C2956 C2955 1.410 . S
C2956 C2957 1.392 . S
C2956 C2959 1.511 . S
C2957 C2953 1.376 . S
C2957 C2956 1.392 . S
C2957 H2969 0.929 . S
C2958 C2954 1.531 . S
C2958 H2970 0.960 . S
C2958 H2971 0.962 . S
C2958 H2972 0.960 . S
C2959 C2956 1.511 . S
C2959 H2973 0.961 . S
C2959 H2974 0.961 . S
C2959 H2975 0.961 . S
C2960 C2961 1.370 . S
C2960 C2962 1.363 . S
C2960 H2976 0.931 . S
C2961 C2960 1.370 . S
C2961 C2965 1.408 . S
C2962 C2960 1.363 . S
C2962 C2963 1.370 . S
C2962 C2966 1.524 . S
C2963 C2955 1.503 . S
C2963 C2962 1.370 . S
C2963 C2964 1.403 . S
C2964 C2963 1.403 . S
C2964 C2965 1.404 . S
C2964 C2967 1.539 . S
C2965 C2961 1.408 . S
C2965 C2964 1.404 . S
C2965 H2977 0.930 . S
C2966 C2962 1.524 . S
C2966 H2978 0.956 . S
C2966 H2979 0.961 . S
C2966 H2980 0.961 . S
C2967 C2964 1.539 . S
C2967 H2981 0.958 . S
C2967 H2982 0.961 . S
C2967 H2983 0.960 . S
H2968 C2952 0.931 . S
H2969 C2957 0.929 . S
H2970 C2958 0.960 . S
H2971 C2958 0.962 . S
H2972 C2958 0.960 . S
H2973 C2959 0.961 . S
H2974 C2959 0.961 . S
H2975 C2959 0.961 . S
H2976 C2960 0.931 . S
H2977 C2965 0.930 . S
H2978 C2966 0.956 . S
H2979 C2966 0.961 . S
H2980 C2966 0.961 . S
H2981 C2967 0.958 . S
H2982 C2967 0.961 . S
H2983 C2967 0.960 . S
C2984 C2985 1.391 . S
C2984 C2986 1.394 . S
C2984 H3000 0.931 . S
C2985 C2984 1.391 . S
C2985 C2989 1.376 . S
C2986 C2984 1.394 . S
C2986 C2987 1.369 . S
C2986 C2990 1.531 . S
C2987 C2986 1.369 . S
C2987 C2988 1.410 . S
C2987 C2995 1.503 . S
C2988 C2987 1.410 . S
C2988 C2989 1.392 . S
C2988 C2991 1.511 . S
C2989 C2985 1.376 . S
C2989 C2988 1.392 . S
C2989 H3001 0.929 . S
C2990 C2986 1.531 . S
C2990 H3002 0.960 . S
C2990 H3003 0.962 . S
C2990 H3004 0.960 . S
C2991 C2988 1.511 . S
C2991 H3005 0.961 . S
C2991 H3006 0.961 . S
C2991 H3007 0.961 . S
C2992 C2993 1.370 . S
C2992 C2994 1.363 . S
C2992 H3008 0.931 . S
C2993 C2992 1.370 . S
C2993 C2997 1.408 . S
C2994 C2992 1.363 . S
C2994 C2995 1.370 . S
C2994 C2998 1.524 . S
C2995 C2987 1.503 . S
C2995 C2994 1.370 . S
C2995 C2996 1.403 . S
C2996 C2995 1.403 . S
C2996 C2997 1.404 . S
C2996 C2999 1.539 . S
C2997 C2993 1.408 . S
C2997 C2996 1.404 . S
C2997 H3009 0.930 . S
C2998 C2994 1.524 . S
C2998 H3010 0.956 . S
C2998 H3011 0.961 . S
C2998 H3012 0.961 . S
C2999 C2996 1.539 . S
C2999 H3013 0.958 . S
C2999 H3014 0.961 . S
C2999 H3015 0.960 . S
H3000 C2984 0.931 . S
H3001 C2989 0.929 . S
H3002 C2990 0.960 . S
H3003 C2990 0.962 . S
H3004 C2990 0.960 . S
H3005 C2991 0.961 . S
H3006 C2991 0.961 . S
H3007 C2991 0.961 . S
H3008 C2992 0.931 . S
H3009 C2997 0.930 . S
H3010 C2998 0.956 . S
H3011 C2998 0.961 . S
H3012 C2998 0.961 . S
H3013 C2999 0.958 . S
H3014 C2999 0.961 . S
H3015 C2999 0.960 . S
C3016 C3017 1.391 . S
C3016 C3018 1.394 . S
C3016 H3032 0.931 . S
C3017 C3016 1.391 . S
C3017 C3021 1.376 . S
C3018 C3016 1.394 . S
C3018 C3019 1.369 . S
C3018 C3022 1.531 . S
C3019 C3018 1.369 . S
C3019 C3020 1.410 . S
C3019 C3027 1.503 . S
C3020 C3019 1.410 . S
C3020 C3021 1.392 . S
C3020 C3023 1.511 . S
C3021 C3017 1.376 . S
C3021 C3020 1.392 . S
C3021 H3033 0.929 . S
C3022 C3018 1.531 . S
C3022 H3034 0.960 . S
C3022 H3035 0.962 . S
C3022 H3036 0.960 . S
C3023 C3020 1.511 . S
C3023 H3037 0.961 . S
C3023 H3038 0.961 . S
C3023 H3039 0.961 . S
C3024 C3025 1.370 . S
C3024 C3026 1.363 . S
C3024 H3040 0.931 . S
C3025 C3024 1.370 . S
C3025 C3029 1.408 . S
C3026 C3024 1.363 . S
C3026 C3027 1.370 . S
C3026 C3030 1.524 . S
C3027 C3019 1.503 . S
C3027 C3026 1.370 . S
C3027 C3028 1.403 . S
C3028 C3027 1.403 . S
C3028 C3029 1.404 . S
C3028 C3031 1.539 . S
C3029 C3025 1.408 . S
C3029 C3028 1.404 . S
C3029 H3041 0.930 . S
C3030 C3026 1.524 . S
C3030 H3042 0.956 . S
C3030 H3043 0.961 . S
C3030 H3044 0.961 . S
C3031 C3028 1.539 . S
C3031 H3045 0.958 . S
C3031 H3046 0.961 . S
C3031 H3047 0.960 . S
H3032 C3016 0.931 . S
H3033 C3021 0.929 . S
H3034 C3022 0.960 . S
H3035 C3022 0.962 . S
H3036 C3022 0.960 . S
H3037 C3023 0.961 . S
H3038 C3023 0.961 . S
H3039 C3023 0.961 . S
H3040 C3024 0.931 . S
H3041 C3029 0.930 . S
H3042 C3030 0.956 . S
H3043 C3030 0.961 . S
H3044 C3030 0.961 . S
H3045 C3031 0.958 . S
H3046 C3031 0.961 . S
H3047 C3031 0.960 . S
C3048 C3049 1.391 . S
C3048 C3050 1.394 . S
C3048 H3064 0.931 . S
C3049 C3048 1.391 . S
C3049 C3053 1.376 . S
C3050 C3048 1.394 . S
C3050 C3051 1.369 . S
C3050 C3054 1.531 . S
C3051 C3050 1.369 . S
C3051 C3052 1.410 . S
C3051 C3059 1.503 . S
C3052 C3051 1.410 . S
C3052 C3053 1.392 . S
C3052 C3055 1.511 . S
C3053 C3049 1.376 . S
C3053 C3052 1.392 . S
C3053 H3065 0.929 . S
C3054 C3050 1.531 . S
C3054 H3066 0.960 . S
C3054 H3067 0.962 . S
C3054 H3068 0.960 . S
C3055 C3052 1.511 . S
C3055 H3069 0.961 . S
C3055 H3070 0.961 . S
C3055 H3071 0.961 . S
C3056 C3057 1.370 . S
C3056 C3058 1.363 . S
C3056 H3072 0.931 . S
C3057 C3056 1.370 . S
C3057 C3061 1.408 . S
C3058 C3056 1.363 . S
C3058 C3059 1.370 . S
C3058 C3062 1.524 . S
C3059 C3051 1.503 . S
C3059 C3058 1.370 . S
C3059 C3060 1.403 . S
C3060 C3059 1.403 . S
C3060 C3061 1.404 . S
C3060 C3063 1.539 . S
C3061 C3057 1.408 . S
C3061 C3060 1.404 . S
C3061 H3073 0.930 . S
C3062 C3058 1.524 . S
C3062 H3074 0.956 . S
C3062 H3075 0.961 . S
C3062 H3076 0.961 . S
C3063 C3060 1.539 . S
C3063 H3077 0.958 . S
C3063 H3078 0.961 . S
C3063 H3079 0.960 . S
H3064 C3048 0.931 . S
H3065 C3053 0.929 . S
H3066 C3054 0.960 . S
H3067 C3054 0.962 . S
H3068 C3054 0.960 . S
H3069 C3055 0.961 . S
H3070 C3055 0.961 . S
H3071 C3055 0.961 . S
H3072 C3056 0.931 . S
H3073 C3061 0.930 . S
H3074 C3062 0.956 . S
H3075 C3062 0.961 . S
H3076 C3062 0.961 . S
H3077 C3063 0.958 . S
H3078 C3063 0.961 . S
H3079 C3063 0.960 . S
C3080 C3081 1.391 . S
C3080 C3082 1.394 . S
C3080 H3096 0.931 . S
C3081 C3080 1.391 . S
C3081 C3085 1.376 . S
C3082 C3080 1.394 . S
C3082 C3083 1.369 . S
C3082 C3086 1.531 . S
C3083 C3082 1.369 . S
C3083 C3084 1.410 . S
C3083 C3091 1.503 . S
C3084 C3083 1.410 . S
C3084 C3085 1.392 . S
C3084 C3087 1.511 . S
C3085 C3081 1.376 . S
C3085 C3084 1.392 . S
C3085 H3097 0.929 . S
C3086 C3082 1.531 . S
C3086 H3098 0.960 . S
C3086 H3099 0.962 . S
C3086 H3100 0.960 . S
C3087 C3084 1.511 . S
C3087 H3101 0.961 . S
C3087 H3102 0.961 . S
C3087 H3103 0.961 . S
C3088 C3089 1.370 . S
C3088 C3090 1.363 . S
C3088 H3104 0.931 . S
C3089 C3088 1.370 . S
C3089 C3093 1.408 . S
C3090 C3088 1.363 . S
C3090 C3091 1.370 . S
C3090 C3094 1.524 . S
C3091 C3083 1.503 . S
C3091 C3090 1.370 . S
C3091 C3092 1.403 . S
C3092 C3091 1.403 . S
C3092 C3093 1.404 . S
C3092 C3095 1.539 . S
C3093 C3089 1.408 . S
C3093 C3092 1.404 . S
C3093 H3105 0.930 . S
C3094 C3090 1.524 . S
C3094 H3106 0.956 . S
C3094 H3107 0.961 . S
C3094 H3108 0.961 . S
C3095 C3092 1.539 . S
C3095 H3109 0.958 . S
C3095 H3110 0.961 . S
C3095 H3111 0.960 . S
H3096 C3080 0.931 . S
H3097 C3085 0.929 . S
H3098 C3086 0.960 . S
H3099 C3086 0.962 . S
H3100 C3086 0.960 . S
H3101 C3087 0.961 . S
H3102 C3087 0.961 . S
H3103 C3087 0.961 . S
H3104 C3088 0.931 . S
H3105 C3093 0.930 . S
H3106 C3094 0.956 . S
H3107 C3094 0.961 . S
H3108 C3094 0.961 . S
H3109 C3095 0.958 . S
H3110 C3095 0.961 . S
H3111 C3095 0.960 . S
C3112 C3113 1.391 . S
C3112 C3114 1.394 . S
C3112 H3128 0.931 . S
C3113 C3112 1.391 . S
C3113 C3117 1.376 . S
C3114 C3112 1.394 . S
C3114 C3115 1.369 . S
C3114 C3118 1.531 . S
C3115 C3114 1.369 . S
C3115 C3116 1.410 . S
C3115 C3123 1.503 . S
C3116 C3115 1.410 . S
C3116 C3117 1.392 . S
C3116 C3119 1.511 . S
C3117 C3113 1.376 . S
C3117 C3116 1.392 . S
C3117 H3129 0.929 . S
C3118 C3114 1.531 . S
C3118 H3130 0.960 . S
C3118 H3131 0.962 . S
C3118 H3132 0.960 . S
C3119 C3116 1.511 . S
C3119 H3133 0.961 . S
C3119 H3134 0.961 . S
C3119 H3135 0.961 . S
C3120 C3121 1.370 . S
C3120 C3122 1.363 . S
C3120 H3136 0.931 . S
C3121 C3120 1.370 . S
C3121 C3125 1.408 . S
C3122 C3120 1.363 . S
C3122 C3123 1.370 . S
C3122 C3126 1.524 . S
C3123 C3115 1.503 . S
C3123 C3122 1.370 . S
C3123 C3124 1.403 . S
C3124 C3123 1.403 . S
C3124 C3125 1.404 . S
C3124 C3127 1.539 . S
C3125 C3121 1.408 . S
C3125 C3124 1.404 . S
C3125 H3137 0.930 . S
C3126 C3122 1.524 . S
C3126 H3138 0.956 . S
C3126 H3139 0.961 . S
C3126 H3140 0.961 . S
C3127 C3124 1.539 . S
C3127 H3141 0.958 . S
C3127 H3142 0.961 . S
C3127 H3143 0.960 . S
H3128 C3112 0.931 . S
H3129 C3117 0.929 . S
H3130 C3118 0.960 . S
H3131 C3118 0.962 . S
H3132 C3118 0.960 . S
H3133 C3119 0.961 . S
H3134 C3119 0.961 . S
H3135 C3119 0.961 . S
H3136 C3120 0.931 . S
H3137 C3125 0.930 . S
H3138 C3126 0.956 . S
H3139 C3126 0.961 . S
H3140 C3126 0.961 . S
H3141 C3127 0.958 . S
H3142 C3127 0.961 . S
H3143 C3127 0.960 . S
C3144 C3145 1.391 . S
C3144 C3146 1.394 . S
C3144 H3160 0.931 . S
C3145 C3144 1.391 . S
C3145 C3149 1.376 . S
C3146 C3144 1.394 . S
C3146 C3147 1.369 . S
C3146 C3150 1.531 . S
C3147 C3146 1.369 . S
C3147 C3148 1.410 . S
C3147 C3155 1.503 . S
C3148 C3147 1.410 . S
C3148 C3149 1.392 . S
C3148 C3151 1.511 . S
C3149 C3145 1.376 . S
C3149 C3148 1.392 . S
C3149 H3161 0.929 . S
C3150 C3146 1.531 . S
C3150 H3162 0.960 . S
C3150 H3163 0.962 . S
C3150 H3164 0.960 . S
C3151 C3148 1.511 . S
C3151 H3165 0.961 . S
C3151 H3166 0.961 . S
C3151 H3167 0.961 . S
C3152 C3153 1.370 . S
C3152 C3154 1.363 . S
C3152 H3168 0.931 . S
C3153 C3152 1.370 . S
C3153 C3157 1.408 . S
C3154 C3152 1.363 . S
C3154 C3155 1.370 . S
C3154 C3158 1.524 . S
C3155 C3147 1.503 . S
C3155 C3154 1.370 . S
C3155 C3156 1.403 . S
C3156 C3155 1.403 . S
C3156 C3157 1.404 . S
C3156 C3159 1.539 . S
C3157 C3153 1.408 . S
C3157 C3156 1.404 . S
C3157 H3169 0.930 . S
C3158 C3154 1.524 . S
C3158 H3170 0.956 . S
C3158 H3171 0.961 . S
C3158 H3172 0.961 . S
C3159 C3156 1.539 . S
C3159 H3173 0.958 . S
C3159 H3174 0.961 . S
C3159 H3175 0.960 . S
H3160 C3144 0.931 . S
H3161 C3149 0.929 . S
H3162 C3150 0.960 . S
H3163 C3150 0.962 . S
H3164 C3150 0.960 . S
H3165 C3151 0.961 . S
H3166 C3151 0.961 . S
H3167 C3151 0.961 . S
H3168 C3152 0.931 . S
H3169 C3157 0.930 . S
H3170 C3158 0.956 . S
H3171 C3158 0.961 . S
H3172 C3158 0.961 . S
H3173 C3159 0.958 . S
H3174 C3159 0.961 . S
H3175 C3159 0.960 . S
C3176 C3177 1.391 . S
C3176 C3178 1.394 . S
C3176 H3192 0.931 . S
C3177 C3176 1.391 . S
C3177 C3181 1.376 . S
C3178 C3176 1.394 . S
C3178 C3179 1.369 . S
C3178 C3182 1.531 . S
C3179 C3178 1.369 . S
C3179 C3180 1.410 . S
C3179 C3187 1.503 . S
C3180 C3179 1.410 . S
C3180 C3181 1.392 . S
C3180 C3183 1.511 . S
C3181 C3177 1.376 . S
C3181 C3180 1.392 . S
C3181 H3193 0.929 . S
C3182 C3178 1.531 . S
C3182 H3194 0.960 . S
C3182 H3195 0.962 . S
C3182 H3196 0.960 . S
C3183 C3180 1.511 . S
C3183 H3197 0.961 . S
C3183 H3198 0.961 . S
C3183 H3199 0.961 . S
C3184 C3185 1.370 . S
C3184 C3186 1.363 . S
C3184 H3200 0.931 . S
C3185 C3184 1.370 . S
C3185 C3189 1.408 . S
C3186 C3184 1.363 . S
C3186 C3187 1.370 . S
C3186 C3190 1.524 . S
C3187 C3179 1.503 . S
C3187 C3186 1.370 . S
C3187 C3188 1.403 . S
C3188 C3187 1.403 . S
C3188 C3189 1.404 . S
C3188 C3191 1.539 . S
C3189 C3185 1.408 . S
C3189 C3188 1.404 . S
C3189 H3201 0.930 . S
C3190 C3186 1.524 . S
C3190 H3202 0.956 . S
C3190 H3203 0.961 . S
C3190 H3204 0.961 . S
C3191 C3188 1.539 . S
C3191 H3205 0.958 . S
C3191 H3206 0.961 . S
C3191 H3207 0.960 . S
H3192 C3176 0.931 . S
H3193 C3181 0.929 . S
H3194 C3182 0.960 . S
H3195 C3182 0.962 . S
H3196 C3182 0.960 . S
H3197 C3183 0.961 . S
H3198 C3183 0.961 . S
H3199 C3183 0.961 . S
H3200 C3184 0.931 . S
H3201 C3189 0.930 . S
H3202 C3190 0.956 . S
H3203 C3190 0.961 . S
H3204 C3190 0.961 . S
H3205 C3191 0.958 . S
H3206 C3191 0.961 . S
H3207 C3191 0.960 . S
C3208 C3209 1.391 . S
C3208 C3210 1.394 . S
C3208 H3224 0.931 . S
C3209 C3208 1.391 . S
C3209 C3213 1.376 . S
C3210 C3208 1.394 . S
C3210 C3211 1.369 . S
C3210 C3214 1.531 . S
C3211 C3210 1.369 . S
C3211 C3212 1.410 . S
C3211 C3219 1.503 . S
C3212 C3211 1.410 . S
C3212 C3213 1.392 . S
C3212 C3215 1.511 . S
C3213 C3209 1.376 . S
C3213 C3212 1.392 . S
C3213 H3225 0.929 . S
C3214 C3210 1.531 . S
C3214 H3226 0.960 . S
C3214 H3227 0.962 . S
C3214 H3228 0.960 . S
C3215 C3212 1.511 . S
C3215 H3229 0.961 . S
C3215 H3230 0.961 . S
C3215 H3231 0.961 . S
C3216 C3217 1.370 . S
C3216 C3218 1.363 . S
C3216 H3232 0.931 . S
C3217 C3216 1.370 . S
C3217 C3221 1.408 . S
C3218 C3216 1.363 . S
C3218 C3219 1.370 . S
C3218 C3222 1.524 . S
C3219 C3211 1.503 . S
C3219 C3218 1.370 . S
C3219 C3220 1.403 . S
C3220 C3219 1.403 . S
C3220 C3221 1.404 . S
C3220 C3223 1.539 . S
C3221 C3217 1.408 . S
C3221 C3220 1.404 . S
C3221 H3233 0.930 . S
C3222 C3218 1.524 . S
C3222 H3234 0.956 . S
C3222 H3235 0.961 . S
C3222 H3236 0.961 . S
C3223 C3220 1.539 . S
C3223 H3237 0.958 . S
C3223 H3238 0.961 . S
C3223 H3239 0.960 . S
H3224 C3208 0.931 . S
H3225 C3213 0.929 . S
H3226 C3214 0.960 . S
H3227 C3214 0.962 . S
H3228 C3214 0.960 . S
H3229 C3215 0.961 . S
H3230 C3215 0.961 . S
H3231 C3215 0.961 . S
H3232 C3216 0.931 . S
H3233 C3221 0.930 . S
H3234 C3222 0.956 . S
H3235 C3222 0.961 . S
H3236 C3222 0.961 . S
H3237 C3223 0.958 . S
H3238 C3223 0.961 . S
H3239 C3223 0.960 . S
C3240 C3241 1.391 . S
C3240 C3242 1.394 . S
C3240 H3256 0.931 . S
C3241 C3240 1.391 . S
C3241 C3245 1.376 . S
C3242 C3240 1.394 . S
C3242 C3243 1.369 . S
C3242 C3246 1.531 . S
C3243 C3242 1.369 . S
C3243 C3244 1.410 . S
C3243 C3251 1.503 . S
C3244 C3243 1.410 . S
C3244 C3245 1.392 . S
C3244 C3247 1.511 . S
C3245 C3241 1.376 . S
C3245 C3244 1.392 . S
C3245 H3257 0.929 . S
C3246 C3242 1.531 . S
C3246 H3258 0.960 . S
C3246 H3259 0.962 . S
C3246 H3260 0.960 . S
C3247 C3244 1.511 . S
C3247 H3261 0.961 . S
C3247 H3262 0.961 . S
C3247 H3263 0.961 . S
C3248 C3249 1.370 . S
C3248 C3250 1.363 . S
C3248 H3264 0.931 . S
C3249 C3248 1.370 . S
C3249 C3253 1.408 . S
C3250 C3248 1.363 . S
C3250 C3251 1.370 . S
C3250 C3254 1.524 . S
C3251 C3243 1.503 . S
C3251 C3250 1.370 . S
C3251 C3252 1.403 . S
C3252 C3251 1.403 . S
C3252 C3253 1.404 . S
C3252 C3255 1.539 . S
C3253 C3249 1.408 . S
C3253 C3252 1.404 . S
C3253 H3265 0.930 . S
C3254 C3250 1.524 . S
C3254 H3266 0.956 . S
C3254 H3267 0.961 . S
C3254 H3268 0.961 . S
C3255 C3252 1.539 . S
C3255 H3269 0.958 . S
C3255 H3270 0.961 . S
C3255 H3271 0.960 . S
H3256 C3240 0.931 . S
H3257 C3245 0.929 . S
H3258 C3246 0.960 . S
H3259 C3246 0.962 . S
H3260 C3246 0.960 . S
H3261 C3247 0.961 . S
H3262 C3247 0.961 . S
H3263 C3247 0.961 . S
H3264 C3248 0.931 . S
H3265 C3253 0.930 . S
H3266 C3254 0.956 . S
H3267 C3254 0.961 . S
H3268 C3254 0.961 . S
H3269 C3255 0.958 . S
H3270 C3255 0.961 . S
H3271 C3255 0.960 . S
C3272 C3273 1.391 . S
C3272 C3274 1.394 . S
C3272 H3288 0.931 . S
C3273 C3272 1.391 . S
C3273 C3277 1.376 . S
C3274 C3272 1.394 . S
C3274 C3275 1.369 . S
C3274 C3278 1.531 . S
C3275 C3274 1.369 . S
C3275 C3276 1.410 . S
C3275 C3283 1.503 . S
C3276 C3275 1.410 . S
C3276 C3277 1.392 . S
C3276 C3279 1.511 . S
C3277 C3273 1.376 . S
C3277 C3276 1.392 . S
C3277 H3289 0.929 . S
C3278 C3274 1.531 . S
C3278 H3290 0.960 . S
C3278 H3291 0.962 . S
C3278 H3292 0.960 . S
C3279 C3276 1.511 . S
C3279 H3293 0.961 . S
C3279 H3294 0.961 . S
C3279 H3295 0.961 . S
C3280 C3281 1.370 . S
C3280 C3282 1.363 . S
C3280 H3296 0.931 . S
C3281 C3280 1.370 . S
C3281 C3285 1.408 . S
C3282 C3280 1.363 . S
C3282 C3283 1.370 . S
C3282 C3286 1.524 . S
C3283 C3275 1.503 . S
C3283 C3282 1.370 . S
C3283 C3284 1.403 . S
C3284 C3283 1.403 . S
C3284 C3285 1.404 . S
C3284 C3287 1.539 . S
C3285 C3281 1.408 . S
C3285 C3284 1.404 . S
C3285 H3297 0.930 . S
C3286 C3282 1.524 . S
C3286 H3298 0.956 . S
C3286 H3299 0.961 . S
C3286 H3300 0.961 . S
C3287 C3284 1.539 . S
C3287 H3301 0.958 . S
C3287 H3302 0.961 . S
C3287 H3303 0.960 . S
H3288 C3272 0.931 . S
H3289 C3277 0.929 . S
H3290 C3278 0.960 . S
H3291 C3278 0.962 . S
H3292 C3278 0.960 . S
H3293 C3279 0.961 . S
H3294 C3279 0.961 . S
H3295 C3279 0.961 . S
H3296 C3280 0.931 . S
H3297 C3285 0.930 . S
H3298 C3286 0.956 . S
H3299 C3286 0.961 . S
H3300 C3286 0.961 . S
H3301 C3287 0.958 . S
H3302 C3287 0.961 . S
H3303 C3287 0.960 . S
C3304 C3305 1.391 . S
C3304 C3306 1.394 . S
C3304 H3320 0.931 . S
C3305 C3304 1.391 . S
C3305 C3309 1.376 . S
C3306 C3304 1.394 . S
C3306 C3307 1.369 . S
C3306 C3310 1.531 . S
C3307 C3306 1.369 . S
C3307 C3308 1.410 . S
C3307 C3315 1.503 . S
C3308 C3307 1.410 . S
C3308 C3309 1.392 . S
C3308 C3311 1.511 . S
C3309 C3305 1.376 . S
C3309 C3308 1.392 . S
C3309 H3321 0.929 . S
C3310 C3306 1.531 . S
C3310 H3322 0.960 . S
C3310 H3323 0.962 . S
C3310 H3324 0.960 . S
C3311 C3308 1.511 . S
C3311 H3325 0.961 . S
C3311 H3326 0.961 . S
C3311 H3327 0.961 . S
C3312 C3313 1.370 . S
C3312 C3314 1.363 . S
C3312 H3328 0.931 . S
C3313 C3312 1.370 . S
C3313 C3317 1.408 . S
C3314 C3312 1.363 . S
C3314 C3315 1.370 . S
C3314 C3318 1.524 . S
C3315 C3307 1.503 . S
C3315 C3314 1.370 . S
C3315 C3316 1.403 . S
C3316 C3315 1.403 . S
C3316 C3317 1.404 . S
C3316 C3319 1.539 . S
C3317 C3313 1.408 . S
C3317 C3316 1.404 . S
C3317 H3329 0.930 . S
C3318 C3314 1.524 . S
C3318 H3330 0.956 . S
C3318 H3331 0.961 . S
C3318 H3332 0.961 . S
C3319 C3316 1.539 . S
C3319 H3333 0.958 . S
C3319 H3334 0.961 . S
C3319 H3335 0.960 . S
H3320 C3304 0.931 . S
H3321 C3309 0.929 . S
H3322 C3310 0.960 . S
H3323 C3310 0.962 . S
H3324 C3310 0.960 . S
H3325 C3311 0.961 . S
H3326 C3311 0.961 . S
H3327 C3311 0.961 . S
H3328 C3312 0.931 . S
H3329 C3317 0.930 . S
H3330 C3318 0.956 . S
H3331 C3318 0.961 . S
H3332 C3318 0.961 . S
H3333 C3319 0.958 . S
H3334 C3319 0.961 . S
H3335 C3319 0.960 . S
C3336 C3337 1.391 . S
C3336 C3338 1.394 . S
C3336 H3352 0.931 . S
C3337 C3336 1.391 . S
C3337 C3341 1.376 . S
C3338 C3336 1.394 . S
C3338 C3339 1.369 . S
C3338 C3342 1.531 . S
C3339 C3338 1.369 . S
C3339 C3340 1.410 . S
C3339 C3347 1.503 . S
C3340 C3339 1.410 . S
C3340 C3341 1.392 . S
C3340 C3343 1.511 . S
C3341 C3337 1.376 . S
C3341 C3340 1.392 . S
C3341 H3353 0.929 . S
C3342 C3338 1.531 . S
C3342 H3354 0.960 . S
C3342 H3355 0.962 . S
C3342 H3356 0.960 . S
C3343 C3340 1.511 . S
C3343 H3357 0.961 . S
C3343 H3358 0.961 . S
C3343 H3359 0.961 . S
C3344 C3345 1.370 . S
C3344 C3346 1.363 . S
C3344 H3360 0.931 . S
C3345 C3344 1.370 . S
C3345 C3349 1.408 . S
C3346 C3344 1.363 . S
C3346 C3347 1.370 . S
C3346 C3350 1.524 . S
C3347 C3339 1.503 . S
C3347 C3346 1.370 . S
C3347 C3348 1.403 . S
C3348 C3347 1.403 . S
C3348 C3349 1.404 . S
C3348 C3351 1.539 . S
C3349 C3345 1.408 . S
C3349 C3348 1.404 . S
C3349 H3361 0.930 . S
C3350 C3346 1.524 . S
C3350 H3362 0.956 . S
C3350 H3363 0.961 . S
C3350 H3364 0.961 . S
C3351 C3348 1.539 . S
C3351 H3365 0.958 . S
C3351 H3366 0.961 . S
C3351 H3367 0.960 . S
H3352 C3336 0.931 . S
H3353 C3341 0.929 . S
H3354 C3342 0.960 . S
H3355 C3342 0.962 . S
H3356 C3342 0.960 . S
H3357 C3343 0.961 . S
H3358 C3343 0.961 . S
H3359 C3343 0.961 . S
H3360 C3344 0.931 . S
H3361 C3349 0.930 . S
H3362 C3350 0.956 . S
H3363 C3350 0.961 . S
H3364 C3350 0.961 . S
H3365 C3351 0.958 . S
H3366 C3351 0.961 . S
H3367 C3351 0.960 . S
C3368 C3369 1.391 . S
C3368 C3370 1.394 . S
C3368 H3384 0.931 . S
C3369 C3368 1.391 . S
C3369 C3373 1.376 . S
C3370 C3368 1.394 . S
C3370 C3371 1.369 . S
C3370 C3374 1.531 . S
C3371 C3370 1.369 . S
C3371 C3372 1.410 . S
C3371 C3379 1.503 . S
C3372 C3371 1.410 . S
C3372 C3373 1.392 . S
C3372 C3375 1.511 . S
C3373 C3369 1.376 . S
C3373 C3372 1.392 . S
C3373 H3385 0.929 . S
C3374 C3370 1.531 . S
C3374 H3386 0.960 . S
C3374 H3387 0.962 . S
C3374 H3388 0.960 . S
C3375 C3372 1.511 . S
C3375 H3389 0.961 . S
C3375 H3390 0.961 . S
C3375 H3391 0.961 . S
C3376 C3377 1.370 . S
C3376 C3378 1.363 . S
C3376 H3392 0.931 . S
C3377 C3376 1.370 . S
C3377 C3381 1.408 . S
C3378 C3376 1.363 . S
C3378 C3379 1.370 . S
C3378 C3382 1.524 . S
C3379 C3371 1.503 . S
C3379 C3378 1.370 . S
C3379 C3380 1.403 . S
C3380 C3379 1.403 . S
C3380 C3381 1.404 . S
C3380 C3383 1.539 . S
C3381 C3377 1.408 . S
C3381 C3380 1.404 . S
C3381 H3393 0.930 . S
C3382 C3378 1.524 . S
C3382 H3394 0.956 . S
C3382 H3395 0.961 . S
C3382 H3396 0.961 . S
C3383 C3380 1.539 . S
C3383 H3397 0.958 . S
C3383 H3398 0.961 . S
C3383 H3399 0.960 . S
H3384 C3368 0.931 . S
H3385 C3373 0.929 . S
H3386 C3374 0.960 . S
H3387 C3374 0.962 . S
H3388 C3374 0.960 . S
H3389 C3375 0.961 . S
H3390 C3375 0.961 . S
H3391 C3375 0.961 . S
H3392 C3376 0.931 . S
H3393 C3381 0.930 . S
H3394 C3382 0.956 . S
H3395 C3382 0.961 . S
H3396 C3382 0.961 . S
H3397 C3383 0.958 . S
H3398 C3383 0.961 . S
H3399 C3383 0.960 . S
C3400 C3401 1.391 . S
C3400 C3402 1.394 . S
C3400 H3416 0.931 . S
C3401 C3400 1.391 . S
C3401 C3405 1.376 . S
C3402 C3400 1.394 . S
C3402 C3403 1.369 . S
C3402 C3406 1.531 . S
C3403 C3402 1.369 . S
C3403 C3404 1.410 . S
C3403 C3411 1.503 . S
C3404 C3403 1.410 . S
C3404 C3405 1.392 . S
C3404 C3407 1.511 . S
C3405 C3401 1.376 . S
C3405 C3404 1.392 . S
C3405 H3417 0.929 . S
C3406 C3402 1.531 . S
C3406 H3418 0.960 . S
C3406 H3419 0.962 . S
C3406 H3420 0.960 . S
C3407 C3404 1.511 . S
C3407 H3421 0.961 . S
C3407 H3422 0.961 . S
C3407 H3423 0.961 . S
C3408 C3409 1.370 . S
C3408 C3410 1.363 . S
C3408 H3424 0.931 . S
C3409 C3408 1.370 . S
C3409 C3413 1.408 . S
C3410 C3408 1.363 . S
C3410 C3411 1.370 . S
C3410 C3414 1.524 . S
C3411 C3403 1.503 . S
C3411 C3410 1.370 . S
C3411 C3412 1.403 . S
C3412 C3411 1.403 . S
C3412 C3413 1.404 . S
C3412 C3415 1.539 . S
C3413 C3409 1.408 . S
C3413 C3412 1.404 . S
C3413 H3425 0.930 . S
C3414 C3410 1.524 . S
C3414 H3426 0.956 . S
C3414 H3427 0.961 . S
C3414 H3428 0.961 . S
C3415 C3412 1.539 . S
C3415 H3429 0.958 . S
C3415 H3430 0.961 . S
C3415 H3431 0.960 . S
H3416 C3400 0.931 . S
H3417 C3405 0.929 . S
H3418 C3406 0.960 . S
H3419 C3406 0.962 . S
H3420 C3406 0.960 . S
H3421 C3407 0.961 . S
H3422 C3407 0.961 . S
H3423 C3407 0.961 . S
H3424 C3408 0.931 . S
H3425 C3413 0.930 . S
H3426 C3414 0.956 . S
H3427 C3414 0.961 . S
H3428 C3414 0.961 . S
H3429 C3415 0.958 . S
H3430 C3415 0.961 . S
H3431 C3415 0.960 . S
C3432 C3433 1.391 . S
C3432 C3434 1.394 . S
C3432 H3448 0.931 . S
C3433 C3432 1.391 . S
C3433 C3437 1.376 . S
C3434 C3432 1.394 . S
C3434 C3435 1.369 . S
C3434 C3438 1.531 . S
C3435 C3434 1.369 . S
C3435 C3436 1.410 . S
C3435 C3443 1.503 . S
C3436 C3435 1.410 . S
C3436 C3437 1.392 . S
C3436 C3439 1.511 . S
C3437 C3433 1.376 . S
C3437 C3436 1.392 . S
C3437 H3449 0.929 . S
C3438 C3434 1.531 . S
C3438 H3450 0.960 . S
C3438 H3451 0.962 . S
C3438 H3452 0.960 . S
C3439 C3436 1.511 . S
C3439 H3453 0.961 . S
C3439 H3454 0.961 . S
C3439 H3455 0.961 . S
C3440 C3441 1.370 . S
C3440 C3442 1.363 . S
C3440 H3456 0.931 . S
C3441 C3440 1.370 . S
C3441 C3445 1.408 . S
C3442 C3440 1.363 . S
C3442 C3443 1.370 . S
C3442 C3446 1.524 . S
C3443 C3435 1.503 . S
C3443 C3442 1.370 . S
C3443 C3444 1.403 . S
C3444 C3443 1.403 . S
C3444 C3445 1.404 . S
C3444 C3447 1.539 . S
C3445 C3441 1.408 . S
C3445 C3444 1.404 . S
C3445 H3457 0.930 . S
C3446 C3442 1.524 . S
C3446 H3458 0.956 . S
C3446 H3459 0.961 . S
C3446 H3460 0.961 . S
C3447 C3444 1.539 . S
C3447 H3461 0.958 . S
C3447 H3462 0.961 . S
C3447 H3463 0.960 . S
H3448 C3432 0.931 . S
H3449 C3437 0.929 . S
H3450 C3438 0.960 . S
H3451 C3438 0.962 . S
H3452 C3438 0.960 . S
H3453 C3439 0.961 . S
H3454 C3439 0.961 . S
H3455 C3439 0.961 . S
H3456 C3440 0.931 . S
H3457 C3445 0.930 . S
H3458 C3446 0.956 . S
H3459 C3446 0.961 . S
H3460 C3446 0.961 . S
H3461 C3447 0.958 . S
H3462 C3447 0.961 . S
H3463 C3447 0.960 . S
C3464 C3465 1.391 . S
C3464 C3466 1.394 . S
C3464 H3480 0.931 . S
C3465 C3464 1.391 . S
C3465 C3469 1.376 . S
C3466 C3464 1.394 . S
C3466 C3467 1.369 . S
C3466 C3470 1.531 . S
C3467 C3466 1.369 . S
C3467 C3468 1.410 . S
C3467 C3475 1.503 . S
C3468 C3467 1.410 . S
C3468 C3469 1.392 . S
C3468 C3471 1.511 . S
C3469 C3465 1.376 . S
C3469 C3468 1.392 . S
C3469 H3481 0.929 . S
C3470 C3466 1.531 . S
C3470 H3482 0.960 . S
C3470 H3483 0.962 . S
C3470 H3484 0.960 . S
C3471 C3468 1.511 . S
C3471 H3485 0.961 . S
C3471 H3486 0.961 . S
C3471 H3487 0.961 . S
C3472 C3473 1.370 . S
C3472 C3474 1.363 . S
C3472 H3488 0.931 . S
C3473 C3472 1.370 . S
C3473 C3477 1.408 . S
C3474 C3472 1.363 . S
C3474 C3475 1.370 . S
C3474 C3478 1.524 . S
C3475 C3467 1.503 . S
C3475 C3474 1.370 . S
C3475 C3476 1.403 . S
C3476 C3475 1.403 . S
C3476 C3477 1.404 . S
C3476 C3479 1.539 . S
C3477 C3473 1.408 . S
C3477 C3476 1.404 . S
C3477 H3489 0.930 . S
C3478 C3474 1.524 . S
C3478 H3490 0.956 . S
C3478 H3491 0.961 . S
C3478 H3492 0.961 . S
C3479 C3476 1.539 . S
C3479 H3493 0.958 . S
C3479 H3494 0.961 . S
C3479 H3495 0.960 . S
H3480 C3464 0.931 . S
H3481 C3469 0.929 . S
H3482 C3470 0.960 . S
H3483 C3470 0.962 . S
H3484 C3470 0.960 . S
H3485 C3471 0.961 . S
H3486 C3471 0.961 . S
H3487 C3471 0.961 . S
H3488 C3472 0.931 . S
H3489 C3477 0.930 . S
H3490 C3478 0.956 . S
H3491 C3478 0.961 . S
H3492 C3478 0.961 . S
H3493 C3479 0.958 . S
H3494 C3479 0.961 . S
H3495 C3479 0.960 . S
C3496 C3497 1.391 . S
C3496 C3498 1.394 . S
C3496 H3512 0.931 . S
C3497 C3496 1.391 . S
C3497 C3501 1.376 . S
C3498 C3496 1.394 . S
C3498 C3499 1.369 . S
C3498 C3502 1.531 . S
C3499 C3498 1.369 . S
C3499 C3500 1.410 . S
C3499 C3507 1.503 . S
C3500 C3499 1.410 . S
C3500 C3501 1.392 . S
C3500 C3503 1.511 . S
C3501 C3497 1.376 . S
C3501 C3500 1.392 . S
C3501 H3513 0.929 . S
C3502 C3498 1.531 . S
C3502 H3514 0.960 . S
C3502 H3515 0.962 . S
C3502 H3516 0.960 . S
C3503 C3500 1.511 . S
C3503 H3517 0.961 . S
C3503 H3518 0.961 . S
C3503 H3519 0.961 . S
C3504 C3505 1.370 . S
C3504 C3506 1.363 . S
C3504 H3520 0.931 . S
C3505 C3504 1.370 . S
C3505 C3509 1.408 . S
C3506 C3504 1.363 . S
C3506 C3507 1.370 . S
C3506 C3510 1.524 . S
C3507 C3499 1.503 . S
C3507 C3506 1.370 . S
C3507 C3508 1.403 . S
C3508 C3507 1.403 . S
C3508 C3509 1.404 . S
C3508 C3511 1.539 . S
C3509 C3505 1.408 . S
C3509 C3508 1.404 . S
C3509 H3521 0.930 . S
C3510 C3506 1.524 . S
C3510 H3522 0.956 . S
C3510 H3523 0.961 . S
C3510 H3524 0.961 . S
C3511 C3508 1.539 . S
C3511 H3525 0.958 . S
C3511 H3526 0.961 . S
C3511 H3527 0.960 . S
H3512 C3496 0.931 . S
H3513 C3501 0.929 . S
H3514 C3502 0.960 . S
H3515 C3502 0.962 . S
H3516 C3502 0.960 . S
H3517 C3503 0.961 . S
H3518 C3503 0.961 . S
H3519 C3503 0.961 . S
H3520 C3504 0.931 . S
H3521 C3509 0.930 . S
H3522 C3510 0.956 . S
H3523 C3510 0.961 . S
H3524 C3510 0.961 . S
H3525 C3511 0.958 . S
H3526 C3511 0.961 . S
H3527 C3511 0.960 . S
C3528 C3529 1.391 . S
C3528 C3530 1.394 . S
C3528 H3544 0.931 . S
C3529 C3528 1.391 . S
C3529 C3533 1.376 . S
C3530 C3528 1.394 . S
C3530 C3531 1.369 . S
C3530 C3534 1.531 . S
C3531 C3530 1.369 . S
C3531 C3532 1.410 . S
C3531 C3539 1.503 . S
C3532 C3531 1.410 . S
C3532 C3533 1.392 . S
C3532 C3535 1.511 . S
C3533 C3529 1.376 . S
C3533 C3532 1.392 . S
C3533 H3545 0.929 . S
C3534 C3530 1.531 . S
C3534 H3546 0.960 . S
C3534 H3547 0.962 . S
C3534 H3548 0.960 . S
C3535 C3532 1.511 . S
C3535 H3549 0.961 . S
C3535 H3550 0.961 . S
C3535 H3551 0.961 . S
C3536 C3537 1.370 . S
C3536 C3538 1.363 . S
C3536 H3552 0.931 . S
C3537 C3536 1.370 . S
C3537 C3541 1.408 . S
C3538 C3536 1.363 . S
C3538 C3539 1.370 . S
C3538 C3542 1.524 . S
C3539 C3531 1.503 . S
C3539 C3538 1.370 . S
C3539 C3540 1.403 . S
C3540 C3539 1.403 . S
C3540 C3541 1.404 . S
C3540 C3543 1.539 . S
C3541 C3537 1.408 . S
C3541 C3540 1.404 . S
C3541 H3553 0.930 . S
C3542 C3538 1.524 . S
C3542 H3554 0.956 . S
C3542 H3555 0.961 . S
C3542 H3556 0.961 . S
C3543 C3540 1.539 . S
C3543 H3557 0.958 . S
C3543 H3558 0.961 . S
C3543 H3559 0.960 . S
H3544 C3528 0.931 . S
H3545 C3533 0.929 . S
H3546 C3534 0.960 . S
H3547 C3534 0.962 . S
H3548 C3534 0.960 . S
H3549 C3535 0.961 . S
H3550 C3535 0.961 . S
H3551 C3535 0.961 . S
H3552 C3536 0.931 . S
H3553 C3541 0.930 . S
H3554 C3542 0.956 . S
H3555 C3542 0.961 . S
H3556 C3542 0.961 . S
H3557 C3543 0.958 . S
H3558 C3543 0.961 . S
H3559 C3543 0.960 . S
C3560 C3561 1.391 . S
C3560 C3562 1.394 . S
C3560 H3576 0.931 . S
C3561 C3560 1.391 . S
C3561 C3565 1.376 . S
C3562 C3560 1.394 . S
C3562 C3563 1.369 . S
C3562 C3566 1.531 . S
C3563 C3562 1.369 . S
C3563 C3564 1.410 . S
C3563 C3571 1.503 . S
C3564 C3563 1.410 . S
C3564 C3565 1.392 . S
C3564 C3567 1.511 . S
C3565 C3561 1.376 . S
C3565 C3564 1.392 . S
C3565 H3577 0.929 . S
C3566 C3562 1.531 . S
C3566 H3578 0.960 . S
C3566 H3579 0.962 . S
C3566 H3580 0.960 . S
C3567 C3564 1.511 . S
C3567 H3581 0.961 . S
C3567 H3582 0.961 . S
C3567 H3583 0.961 . S
C3568 C3569 1.370 . S
C3568 C3570 1.363 . S
C3568 H3584 0.931 . S
C3569 C3568 1.370 . S
C3569 C3573 1.408 . S
C3570 C3568 1.363 . S
C3570 C3571 1.370 . S
C3570 C3574 1.524 . S
C3571 C3563 1.503 . S
C3571 C3570 1.370 . S
C3571 C3572 1.403 . S
C3572 C3571 1.403 . S
C3572 C3573 1.404 . S
C3572 C3575 1.539 . S
C3573 C3569 1.408 . S
C3573 C3572 1.404 . S
C3573 H3585 0.930 . S
C3574 C3570 1.524 . S
C3574 H3586 0.956 . S
C3574 H3587 0.961 . S
C3574 H3588 0.961 . S
C3575 C3572 1.539 . S
C3575 H3589 0.958 . S
C3575 H3590 0.961 . S
C3575 H3591 0.960 . S
H3576 C3560 0.931 . S
H3577 C3565 0.929 . S
H3578 C3566 0.960 . S
H3579 C3566 0.962 . S
H3580 C3566 0.960 . S
H3581 C3567 0.961 . S
H3582 C3567 0.961 . S
H3583 C3567 0.961 . S
H3584 C3568 0.931 . S
H3585 C3573 0.930 . S
H3586 C3574 0.956 . S
H3587 C3574 0.961 . S
H3588 C3574 0.961 . S
H3589 C3575 0.958 . S
H3590 C3575 0.961 . S
H3591 C3575 0.960 . S
C3592 C3593 1.391 . S
C3592 C3594 1.394 . S
C3592 H3608 0.931 . S
C3593 C3592 1.391 . S
C3593 C3597 1.376 . S
C3594 C3592 1.394 . S
C3594 C3595 1.369 . S
C3594 C3598 1.531 . S
C3595 C3594 1.369 . S
C3595 C3596 1.410 . S
C3595 C3603 1.503 . S
C3596 C3595 1.410 . S
C3596 C3597 1.392 . S
C3596 C3599 1.511 . S
C3597 C3593 1.376 . S
C3597 C3596 1.392 . S
C3597 H3609 0.929 . S
C3598 C3594 1.531 . S
C3598 H3610 0.960 . S
C3598 H3611 0.962 . S
C3598 H3612 0.960 . S
C3599 C3596 1.511 . S
C3599 H3613 0.961 . S
C3599 H3614 0.961 . S
C3599 H3615 0.961 . S
C3600 C3601 1.370 . S
C3600 C3602 1.363 . S
C3600 H3616 0.931 . S
C3601 C3600 1.370 . S
C3601 C3605 1.408 . S
C3602 C3600 1.363 . S
C3602 C3603 1.370 . S
C3602 C3606 1.524 . S
C3603 C3595 1.503 . S
C3603 C3602 1.370 . S
C3603 C3604 1.403 . S
C3604 C3603 1.403 . S
C3604 C3605 1.404 . S
C3604 C3607 1.539 . S
C3605 C3601 1.408 . S
C3605 C3604 1.404 . S
C3605 H3617 0.930 . S
C3606 C3602 1.524 . S
C3606 H3618 0.956 . S
C3606 H3619 0.961 . S
C3606 H3620 0.961 . S
C3607 C3604 1.539 . S
C3607 H3621 0.958 . S
C3607 H3622 0.961 . S
C3607 H3623 0.960 . S
H3608 C3592 0.931 . S
H3609 C3597 0.929 . S
H3610 C3598 0.960 . S
H3611 C3598 0.962 . S
H3612 C3598 0.960 . S
H3613 C3599 0.961 . S
H3614 C3599 0.961 . S
H3615 C3599 0.961 . S
H3616 C3600 0.931 . S
H3617 C3605 0.930 . S
H3618 C3606 0.956 . S
H3619 C3606 0.961 . S
H3620 C3606 0.961 . S
H3621 C3607 0.958 . S
H3622 C3607 0.961 . S
H3623 C3607 0.960 . S
C3624 C3625 1.391 . S
C3624 C3626 1.394 . S
C3624 H3640 0.931 . S
C3625 C3624 1.391 . S
C3625 C3629 1.376 . S
C3626 C3624 1.394 . S
C3626 C3627 1.369 . S
C3626 C3630 1.531 . S
C3627 C3626 1.369 . S
C3627 C3628 1.410 . S
C3627 C3635 1.503 . S
C3628 C3627 1.410 . S
C3628 C3629 1.392 . S
C3628 C3631 1.511 . S
C3629 C3625 1.376 . S
C3629 C3628 1.392 . S
C3629 H3641 0.929 . S
C3630 C3626 1.531 . S
C3630 H3642 0.960 . S
C3630 H3643 0.962 . S
C3630 H3644 0.960 . S
C3631 C3628 1.511 . S
C3631 H3645 0.961 . S
C3631 H3646 0.961 . S
C3631 H3647 0.961 . S
C3632 C3633 1.370 . S
C3632 C3634 1.363 . S
C3632 H3648 0.931 . S
C3633 C3632 1.370 . S
C3633 C3637 1.408 . S
C3634 C3632 1.363 . S
C3634 C3635 1.370 . S
C3634 C3638 1.524 . S
C3635 C3627 1.503 . S
C3635 C3634 1.370 . S
C3635 C3636 1.403 . S
C3636 C3635 1.403 . S
C3636 C3637 1.404 . S
C3636 C3639 1.539 . S
C3637 C3633 1.408 . S
C3637 C3636 1.404 . S
C3637 H3649 0.930 . S
C3638 C3634 1.524 . S
C3638 H3650 0.956 . S
C3638 H3651 0.961 . S
C3638 H3652 0.961 . S
C3639 C3636 1.539 . S
C3639 H3653 0.958 . S
C3639 H3654 0.961 . S
C3639 H3655 0.960 . S
H3640 C3624 0.931 . S
H3641 C3629 0.929 . S
H3642 C3630 0.960 . S
H3643 C3630 0.962 . S
H3644 C3630 0.960 . S
H3645 C3631 0.961 . S
H3646 C3631 0.961 . S
H3647 C3631 0.961 . S
H3648 C3632 0.931 . S
H3649 C3637 0.930 . S
H3650 C3638 0.956 . S
H3651 C3638 0.961 . S
H3652 C3638 0.961 . S
H3653 C3639 0.958 . S
H3654 C3639 0.961 . S
H3655 C3639 0.960 . S
C3656 C3657 1.391 . S
C3656 C3658 1.394 . S
C3656 H3672 0.931 . S
C3657 C3656 1.391 . S
C3657 C3661 1.376 . S
C3658 C3656 1.394 . S
C3658 C3659 1.369 . S
C3658 C3662 1.531 . S
C3659 C3658 1.369 . S
C3659 C3660 1.410 . S
C3659 C3667 1.503 . S
C3660 C3659 1.410 . S
C3660 C3661 1.392 . S
C3660 C3663 1.511 . S
C3661 C3657 1.376 . S
C3661 C3660 1.392 . S
C3661 H3673 0.929 . S
C3662 C3658 1.531 . S
C3662 H3674 0.960 . S
C3662 H3675 0.962 . S
C3662 H3676 0.960 . S
C3663 C3660 1.511 . S
C3663 H3677 0.961 . S
C3663 H3678 0.961 . S
C3663 H3679 0.961 . S
C3664 C3665 1.370 . S
C3664 C3666 1.363 . S
C3664 H3680 0.931 . S
C3665 C3664 1.370 . S
C3665 C3669 1.408 . S
C3666 C3664 1.363 . S
C3666 C3667 1.370 . S
C3666 C3670 1.524 . S
C3667 C3659 1.503 . S
C3667 C3666 1.370 . S
C3667 C3668 1.403 . S
C3668 C3667 1.403 . S
C3668 C3669 1.404 . S
C3668 C3671 1.539 . S
C3669 C3665 1.408 . S
C3669 C3668 1.404 . S
C3669 H3681 0.930 . S
C3670 C3666 1.524 . S
C3670 H3682 0.956 . S
C3670 H3683 0.961 . S
C3670 H3684 0.961 . S
C3671 C3668 1.539 . S
C3671 H3685 0.958 . S
C3671 H3686 0.961 . S
C3671 H3687 0.960 . S
H3672 C3656 0.931 . S
H3673 C3661 0.929 . S
H3674 C3662 0.960 . S
H3675 C3662 0.962 . S
H3676 C3662 0.960 . S
H3677 C3663 0.961 . S
H3678 C3663 0.961 . S
H3679 C3663 0.961 . S
H3680 C3664 0.931 . S
H3681 C3669 0.930 . S
H3682 C3670 0.956 . S
H3683 C3670 0.961 . S
H3684 C3670 0.961 . S
H3685 C3671 0.958 . S
H3686 C3671 0.961 . S
H3687 C3671 0.960 . S
C3688 C3689 1.391 . S
C3688 C3690 1.394 . S
C3688 H3704 0.931 . S
C3689 C3688 1.391 . S
C3689 C3693 1.376 . S
C3690 C3688 1.394 . S
C3690 C3691 1.369 . S
C3690 C3694 1.531 . S
C3691 C3690 1.369 . S
C3691 C3692 1.410 . S
C3691 C3699 1.503 . S
C3692 C3691 1.410 . S
C3692 C3693 1.392 . S
C3692 C3695 1.511 . S
C3693 C3689 1.376 . S
C3693 C3692 1.392 . S
C3693 H3705 0.929 . S
C3694 C3690 1.531 . S
C3694 H3706 0.960 . S
C3694 H3707 0.962 . S
C3694 H3708 0.960 . S
C3695 C3692 1.511 . S
C3695 H3709 0.961 . S
C3695 H3710 0.961 . S
C3695 H3711 0.961 . S
C3696 C3697 1.370 . S
C3696 C3698 1.363 . S
C3696 H3712 0.931 . S
C3697 C3696 1.370 . S
C3697 C3701 1.408 . S
C3698 C3696 1.363 . S
C3698 C3699 1.370 . S
C3698 C3702 1.524 . S
C3699 C3691 1.503 . S
C3699 C3698 1.370 . S
C3699 C3700 1.403 . S
C3700 C3699 1.403 . S
C3700 C3701 1.404 . S
C3700 C3703 1.539 . S
C3701 C3697 1.408 . S
C3701 C3700 1.404 . S
C3701 H3713 0.930 . S
C3702 C3698 1.524 . S
C3702 H3714 0.956 . S
C3702 H3715 0.961 . S
C3702 H3716 0.961 . S
C3703 C3700 1.539 . S
C3703 H3717 0.958 . S
C3703 H3718 0.961 . S
C3703 H3719 0.960 . S
H3704 C3688 0.931 . S
H3705 C3693 0.929 . S
H3706 C3694 0.960 . S
H3707 C3694 0.962 . S
H3708 C3694 0.960 . S
H3709 C3695 0.961 . S
H3710 C3695 0.961 . S
H3711 C3695 0.961 . S
H3712 C3696 0.931 . S
H3713 C3701 0.930 . S
H3714 C3702 0.956 . S
H3715 C3702 0.961 . S
H3716 C3702 0.961 . S
H3717 C3703 0.958 . S
H3718 C3703 0.961 . S
H3719 C3703 0.960 . S
C3720 C3721 1.391 . S
C3720 C3722 1.394 . S
C3720 H3736 0.931 . S
C3721 C3720 1.391 . S
C3721 C3725 1.376 . S
C3722 C3720 1.394 . S
C3722 C3723 1.369 . S
C3722 C3726 1.531 . S
C3723 C3722 1.369 . S
C3723 C3724 1.410 . S
C3723 C3731 1.503 . S
C3724 C3723 1.410 . S
C3724 C3725 1.392 . S
C3724 C3727 1.511 . S
C3725 C3721 1.376 . S
C3725 C3724 1.392 . S
C3725 H3737 0.929 . S
C3726 C3722 1.531 . S
C3726 H3738 0.960 . S
C3726 H3739 0.962 . S
C3726 H3740 0.960 . S
C3727 C3724 1.511 . S
C3727 H3741 0.961 . S
C3727 H3742 0.961 . S
C3727 H3743 0.961 . S
C3728 C3729 1.370 . S
C3728 C3730 1.363 . S
C3728 H3744 0.931 . S
C3729 C3728 1.370 . S
C3729 C3733 1.408 . S
C3730 C3728 1.363 . S
C3730 C3731 1.370 . S
C3730 C3734 1.524 . S
C3731 C3723 1.503 . S
C3731 C3730 1.370 . S
C3731 C3732 1.403 . S
C3732 C3731 1.403 . S
C3732 C3733 1.404 . S
C3732 C3735 1.539 . S
C3733 C3729 1.408 . S
C3733 C3732 1.404 . S
C3733 H3745 0.930 . S
C3734 C3730 1.524 . S
C3734 H3746 0.956 . S
C3734 H3747 0.961 . S
C3734 H3748 0.961 . S
C3735 C3732 1.539 . S
C3735 H3749 0.958 . S
C3735 H3750 0.961 . S
C3735 H3751 0.960 . S
H3736 C3720 0.931 . S
H3737 C3725 0.929 . S
H3738 C3726 0.960 . S
H3739 C3726 0.962 . S
H3740 C3726 0.960 . S
H3741 C3727 0.961 . S
H3742 C3727 0.961 . S
H3743 C3727 0.961 . S
H3744 C3728 0.931 . S
H3745 C3733 0.930 . S
H3746 C3734 0.956 . S
H3747 C3734 0.961 . S
H3748 C3734 0.961 . S
H3749 C3735 0.958 . S
H3750 C3735 0.961 . S
H3751 C3735 0.960 . S
C3752 C3753 1.391 . S
C3752 C3754 1.394 . S
C3752 H3768 0.931 . S
C3753 C3752 1.391 . S
C3753 C3757 1.376 . S
C3754 C3752 1.394 . S
C3754 C3755 1.369 . S
C3754 C3758 1.531 . S
C3755 C3754 1.369 . S
C3755 C3756 1.410 . S
C3755 C3763 1.503 . S
C3756 C3755 1.410 . S
C3756 C3757 1.392 . S
C3756 C3759 1.511 . S
C3757 C3753 1.376 . S
C3757 C3756 1.392 . S
C3757 H3769 0.929 . S
C3758 C3754 1.531 . S
C3758 H3770 0.960 . S
C3758 H3771 0.962 . S
C3758 H3772 0.960 . S
C3759 C3756 1.511 . S
C3759 H3773 0.961 . S
C3759 H3774 0.961 . S
C3759 H3775 0.961 . S
C3760 C3761 1.370 . S
C3760 C3762 1.363 . S
C3760 H3776 0.931 . S
C3761 C3760 1.370 . S
C3761 C3765 1.408 . S
C3762 C3760 1.363 . S
C3762 C3763 1.370 . S
C3762 C3766 1.524 . S
C3763 C3755 1.503 . S
C3763 C3762 1.370 . S
C3763 C3764 1.403 . S
C3764 C3763 1.403 . S
C3764 C3765 1.404 . S
C3764 C3767 1.539 . S
C3765 C3761 1.408 . S
C3765 C3764 1.404 . S
C3765 H3777 0.930 . S
C3766 C3762 1.524 . S
C3766 H3778 0.956 . S
C3766 H3779 0.961 . S
C3766 H3780 0.961 . S
C3767 C3764 1.539 . S
C3767 H3781 0.958 . S
C3767 H3782 0.961 . S
C3767 H3783 0.960 . S
H3768 C3752 0.931 . S
H3769 C3757 0.929 . S
H3770 C3758 0.960 . S
H3771 C3758 0.962 . S
H3772 C3758 0.960 . S
H3773 C3759 0.961 . S
H3774 C3759 0.961 . S
H3775 C3759 0.961 . S
H3776 C3760 0.931 . S
H3777 C3765 0.930 . S
H3778 C3766 0.956 . S
H3779 C3766 0.961 . S
H3780 C3766 0.961 . S
H3781 C3767 0.958 . S
H3782 C3767 0.961 . S
H3783 C3767 0.960 . S
C3784 C3785 1.391 . S
C3784 C3786 1.394 . S
C3784 H3800 0.931 . S
C3785 C3784 1.391 . S
C3785 C3789 1.376 . S
C3786 C3784 1.394 . S
C3786 C3787 1.369 . S
C3786 C3790 1.531 . S
C3787 C3786 1.369 . S
C3787 C3788 1.410 . S
C3787 C3795 1.503 . S
C3788 C3787 1.410 . S
C3788 C3789 1.392 . S
C3788 C3791 1.511 . S
C3789 C3785 1.376 . S
C3789 C3788 1.392 . S
C3789 H3801 0.929 . S
C3790 C3786 1.531 . S
C3790 H3802 0.960 . S
C3790 H3803 0.962 . S
C3790 H3804 0.960 . S
C3791 C3788 1.511 . S
C3791 H3805 0.961 . S
C3791 H3806 0.961 . S
C3791 H3807 0.961 . S
C3792 C3793 1.370 . S
C3792 C3794 1.363 . S
C3792 H3808 0.931 . S
C3793 C3792 1.370 . S
C3793 C3797 1.408 . S
C3794 C3792 1.363 . S
C3794 C3795 1.370 . S
C3794 C3798 1.524 . S
C3795 C3787 1.503 . S
C3795 C3794 1.370 . S
C3795 C3796 1.403 . S
C3796 C3795 1.403 . S
C3796 C3797 1.404 . S
C3796 C3799 1.539 . S
C3797 C3793 1.408 . S
C3797 C3796 1.404 . S
C3797 H3809 0.930 . S
C3798 C3794 1.524 . S
C3798 H3810 0.956 . S
C3798 H3811 0.961 . S
C3798 H3812 0.961 . S
C3799 C3796 1.539 . S
C3799 H3813 0.958 . S
C3799 H3814 0.961 . S
C3799 H3815 0.960 . S
H3800 C3784 0.931 . S
H3801 C3789 0.929 . S
H3802 C3790 0.960 . S
H3803 C3790 0.962 . S
H3804 C3790 0.960 . S
H3805 C3791 0.961 . S
H3806 C3791 0.961 . S
H3807 C3791 0.961 . S
H3808 C3792 0.931 . S
H3809 C3797 0.930 . S
H3810 C3798 0.956 . S
H3811 C3798 0.961 . S
H3812 C3798 0.961 . S
H3813 C3799 0.958 . S
H3814 C3799 0.961 . S
H3815 C3799 0.960 . S
C3816 C3817 1.391 . S
C3816 C3818 1.394 . S
C3816 H3832 0.931 . S
C3817 C3816 1.391 . S
C3817 C3821 1.376 . S
C3818 C3816 1.394 . S
C3818 C3819 1.369 . S
C3818 C3822 1.531 . S
C3819 C3818 1.369 . S
C3819 C3820 1.410 . S
C3819 C3827 1.503 . S
C3820 C3819 1.410 . S
C3820 C3821 1.392 . S
C3820 C3823 1.511 . S
C3821 C3817 1.376 . S
C3821 C3820 1.392 . S
C3821 H3833 0.929 . S
C3822 C3818 1.531 . S
C3822 H3834 0.960 . S
C3822 H3835 0.962 . S
C3822 H3836 0.960 . S
C3823 C3820 1.511 . S
C3823 H3837 0.961 . S
C3823 H3838 0.961 . S
C3823 H3839 0.961 . S
C3824 C3825 1.370 . S
C3824 C3826 1.363 . S
C3824 H3840 0.931 . S
C3825 C3824 1.370 . S
C3825 C3829 1.408 . S
C3826 C3824 1.363 . S
C3826 C3827 1.370 . S
C3826 C3830 1.524 . S
C3827 C3819 1.503 . S
C3827 C3826 1.370 . S
C3827 C3828 1.403 . S
C3828 C3827 1.403 . S
C3828 C3829 1.404 . S
C3828 C3831 1.539 . S
C3829 C3825 1.408 . S
C3829 C3828 1.404 . S
C3829 H3841 0.930 . S
C3830 C3826 1.524 . S
C3830 H3842 0.956 . S
C3830 H3843 0.961 . S
C3830 H3844 0.961 . S
C3831 C3828 1.539 . S
C3831 H3845 0.958 . S
C3831 H3846 0.961 . S
C3831 H3847 0.960 . S
H3832 C3816 0.931 . S
H3833 C3821 0.929 . S
H3834 C3822 0.960 . S
H3835 C3822 0.962 . S
H3836 C3822 0.960 . S
H3837 C3823 0.961 . S
H3838 C3823 0.961 . S
H3839 C3823 0.961 . S
H3840 C3824 0.931 . S
H3841 C3829 0.930 . S
H3842 C3830 0.956 . S
H3843 C3830 0.961 . S
H3844 C3830 0.961 . S
H3845 C3831 0.958 . S
H3846 C3831 0.961 . S
H3847 C3831 0.960 . S
C3848 C3849 1.391 . S
C3848 C3850 1.394 . S
C3848 H3864 0.931 . S
C3849 C3848 1.391 . S
C3849 C3853 1.376 . S
C3850 C3848 1.394 . S
C3850 C3851 1.369 . S
C3850 C3854 1.531 . S
C3851 C3850 1.369 . S
C3851 C3852 1.410 . S
C3851 C3859 1.503 . S
C3852 C3851 1.410 . S
C3852 C3853 1.392 . S
C3852 C3855 1.511 . S
C3853 C3849 1.376 . S
C3853 C3852 1.392 . S
C3853 H3865 0.929 . S
C3854 C3850 1.531 . S
C3854 H3866 0.960 . S
C3854 H3867 0.962 . S
C3854 H3868 0.960 . S
C3855 C3852 1.511 . S
C3855 H3869 0.961 . S
C3855 H3870 0.961 . S
C3855 H3871 0.961 . S
C3856 C3857 1.370 . S
C3856 C3858 1.363 . S
C3856 H3872 0.931 . S
C3857 C3856 1.370 . S
C3857 C3861 1.408 . S
C3858 C3856 1.363 . S
C3858 C3859 1.370 . S
C3858 C3862 1.524 . S
C3859 C3851 1.503 . S
C3859 C3858 1.370 . S
C3859 C3860 1.403 . S
C3860 C3859 1.403 . S
C3860 C3861 1.404 . S
C3860 C3863 1.539 . S
C3861 C3857 1.408 . S
C3861 C3860 1.404 . S
C3861 H3873 0.930 . S
C3862 C3858 1.524 . S
C3862 H3874 0.956 . S
C3862 H3875 0.961 . S
C3862 H3876 0.961 . S
C3863 C3860 1.539 . S
C3863 H3877 0.958 . S
C3863 H3878 0.961 . S
C3863 H3879 0.960 . S
H3864 C3848 0.931 . S
H3865 C3853 0.929 . S
H3866 C3854 0.960 . S
H3867 C3854 0.962 . S
H3868 C3854 0.960 . S
H3869 C3855 0.961 . S
H3870 C3855 0.961 . S
H3871 C3855 0.961 . S
H3872 C3856 0.931 . S
H3873 C3861 0.930 . S
H3874 C3862 0.956 . S
H3875 C3862 0.961 . S
H3876 C3862 0.961 . S
H3877 C3863 0.958 . S
H3878 C3863 0.961 . S
H3879 C3863 0.960 . S
C3880 C3881 1.391 . S
C3880 C3882 1.394 . S
C3880 H3896 0.931 . S
C3881 C3880 1.391 . S
C3881 C3885 1.376 . S
C3882 C3880 1.394 . S
C3882 C3883 1.369 . S
C3882 C3886 1.531 . S
C3883 C3882 1.369 . S
C3883 C3884 1.410 . S
C3883 C3891 1.503 . S
C3884 C3883 1.410 . S
C3884 C3885 1.392 . S
C3884 C3887 1.511 . S
C3885 C3881 1.376 . S
C3885 C3884 1.392 . S
C3885 H3897 0.929 . S
C3886 C3882 1.531 . S
C3886 H3898 0.960 . S
C3886 H3899 0.962 . S
C3886 H3900 0.960 . S
C3887 C3884 1.511 . S
C3887 H3901 0.961 . S
C3887 H3902 0.961 . S
C3887 H3903 0.961 . S
C3888 C3889 1.370 . S
C3888 C3890 1.363 . S
C3888 H3904 0.931 . S
C3889 C3888 1.370 . S
C3889 C3893 1.408 . S
C3890 C3888 1.363 . S
C3890 C3891 1.370 . S
C3890 C3894 1.524 . S
C3891 C3883 1.503 . S
C3891 C3890 1.370 . S
C3891 C3892 1.403 . S
C3892 C3891 1.403 . S
C3892 C3893 1.404 . S
C3892 C3895 1.539 . S
C3893 C3889 1.408 . S
C3893 C3892 1.404 . S
C3893 H3905 0.930 . S
C3894 C3890 1.524 . S
C3894 H3906 0.956 . S
C3894 H3907 0.961 . S
C3894 H3908 0.961 . S
C3895 C3892 1.539 . S
C3895 H3909 0.958 . S
C3895 H3910 0.961 . S
C3895 H3911 0.960 . S
H3896 C3880 0.931 . S
H3897 C3885 0.929 . S
H3898 C3886 0.960 . S
H3899 C3886 0.962 . S
H3900 C3886 0.960 . S
H3901 C3887 0.961 . S
H3902 C3887 0.961 . S
H3903 C3887 0.961 . S
H3904 C3888 0.931 . S
H3905 C3893 0.930 . S
H3906 C3894 0.956 . S
H3907 C3894 0.961 . S
H3908 C3894 0.961 . S
H3909 C3895 0.958 . S
H3910 C3895 0.961 . S
H3911 C3895 0.960 . S
C3912 C3913 1.391 . S
C3912 C3914 1.394 . S
C3912 H3928 0.931 . S
C3913 C3912 1.391 . S
C3913 C3917 1.376 . S
C3914 C3912 1.394 . S
C3914 C3915 1.369 . S
C3914 C3918 1.531 . S
C3915 C3914 1.369 . S
C3915 C3916 1.410 . S
C3915 C3923 1.503 . S
C3916 C3915 1.410 . S
C3916 C3917 1.392 . S
C3916 C3919 1.511 . S
C3917 C3913 1.376 . S
C3917 C3916 1.392 . S
C3917 H3929 0.929 . S
C3918 C3914 1.531 . S
C3918 H3930 0.960 . S
C3918 H3931 0.962 . S
C3918 H3932 0.960 . S
C3919 C3916 1.511 . S
C3919 H3933 0.961 . S
C3919 H3934 0.961 . S
C3919 H3935 0.961 . S
C3920 C3921 1.370 . S
C3920 C3922 1.363 . S
C3920 H3936 0.931 . S
C3921 C3920 1.370 . S
C3921 C3925 1.408 . S
C3922 C3920 1.363 . S
C3922 C3923 1.370 . S
C3922 C3926 1.524 . S
C3923 C3915 1.503 . S
C3923 C3922 1.370 . S
C3923 C3924 1.403 . S
C3924 C3923 1.403 . S
C3924 C3925 1.404 . S
C3924 C3927 1.539 . S
C3925 C3921 1.408 . S
C3925 C3924 1.404 . S
C3925 H3937 0.930 . S
C3926 C3922 1.524 . S
C3926 H3938 0.956 . S
C3926 H3939 0.961 . S
C3926 H3940 0.961 . S
C3927 C3924 1.539 . S
C3927 H3941 0.958 . S
C3927 H3942 0.961 . S
C3927 H3943 0.960 . S
H3928 C3912 0.931 . S
H3929 C3917 0.929 . S
H3930 C3918 0.960 . S
H3931 C3918 0.962 . S
H3932 C3918 0.960 . S
H3933 C3919 0.961 . S
H3934 C3919 0.961 . S
H3935 C3919 0.961 . S
H3936 C3920 0.931 . S
H3937 C3925 0.930 . S
H3938 C3926 0.956 . S
H3939 C3926 0.961 . S
H3940 C3926 0.961 . S
H3941 C3927 0.958 . S
H3942 C3927 0.961 . S
H3943 C3927 0.960 . S
C3944 C3945 1.391 . S
C3944 C3946 1.394 . S
C3944 H3960 0.931 . S
C3945 C3944 1.391 . S
C3945 C3949 1.376 . S
C3946 C3944 1.394 . S
C3946 C3947 1.369 . S
C3946 C3950 1.531 . S
C3947 C3946 1.369 . S
C3947 C3948 1.410 . S
C3947 C3955 1.503 . S
C3948 C3947 1.410 . S
C3948 C3949 1.392 . S
C3948 C3951 1.511 . S
C3949 C3945 1.376 . S
C3949 C3948 1.392 . S
C3949 H3961 0.929 . S
C3950 C3946 1.531 . S
C3950 H3962 0.960 . S
C3950 H3963 0.962 . S
C3950 H3964 0.960 . S
C3951 C3948 1.511 . S
C3951 H3965 0.961 . S
C3951 H3966 0.961 . S
C3951 H3967 0.961 . S
C3952 C3953 1.370 . S
C3952 C3954 1.363 . S
C3952 H3968 0.931 . S
C3953 C3952 1.370 . S
C3953 C3957 1.408 . S
C3954 C3952 1.363 . S
C3954 C3955 1.370 . S
C3954 C3958 1.524 . S
C3955 C3947 1.503 . S
C3955 C3954 1.370 . S
C3955 C3956 1.403 . S
C3956 C3955 1.403 . S
C3956 C3957 1.404 . S
C3956 C3959 1.539 . S
C3957 C3953 1.408 . S
C3957 C3956 1.404 . S
C3957 H3969 0.930 . S
C3958 C3954 1.524 . S
C3958 H3970 0.956 . S
C3958 H3971 0.961 . S
C3958 H3972 0.961 . S
C3959 C3956 1.539 . S
C3959 H3973 0.958 . S
C3959 H3974 0.961 . S
C3959 H3975 0.960 . S
H3960 C3944 0.931 . S
H3961 C3949 0.929 . S
H3962 C3950 0.960 . S
H3963 C3950 0.962 . S
H3964 C3950 0.960 . S
H3965 C3951 0.961 . S
H3966 C3951 0.961 . S
H3967 C3951 0.961 . S
H3968 C3952 0.931 . S
H3969 C3957 0.930 . S
H3970 C3958 0.956 . S
H3971 C3958 0.961 . S
H3972 C3958 0.961 . S
H3973 C3959 0.958 . S
H3974 C3959 0.961 . S
H3975 C3959 0.960 . S
C3976 C3977 1.391 . S
C3976 C3978 1.394 . S
C3976 H3992 0.931 . S
C3977 C3976 1.391 . S
C3977 C3981 1.376 . S
C3978 C3976 1.394 . S
C3978 C3979 1.369 . S
C3978 C3982 1.531 . S
C3979 C3978 1.369 . S
C3979 C3980 1.410 . S
C3979 C3987 1.503 . S
C3980 C3979 1.410 . S
C3980 C3981 1.392 . S
C3980 C3983 1.511 . S
C3981 C3977 1.376 . S
C3981 C3980 1.392 . S
C3981 H3993 0.929 . S
C3982 C3978 1.531 . S
C3982 H3994 0.960 . S
C3982 H3995 0.962 . S
C3982 H3996 0.960 . S
C3983 C3980 1.511 . S
C3983 H3997 0.961 . S
C3983 H3998 0.961 . S
C3983 H3999 0.961 . S
C3984 C3985 1.370 . S
C3984 C3986 1.363 . S
C3984 H4000 0.931 . S
C3985 C3984 1.370 . S
C3985 C3989 1.408 . S
C3986 C3984 1.363 . S
C3986 C3987 1.370 . S
C3986 C3990 1.524 . S
C3987 C3979 1.503 . S
C3987 C3986 1.370 . S
C3987 C3988 1.403 . S
C3988 C3987 1.403 . S
C3988 C3989 1.404 . S
C3988 C3991 1.539 . S
C3989 C3985 1.408 . S
C3989 C3988 1.404 . S
C3989 H4001 0.930 . S
C3990 C3986 1.524 . S
C3990 H4002 0.956 . S
C3990 H4003 0.961 . S
C3990 H4004 0.961 . S
C3991 C3988 1.539 . S
C3991 H4005 0.958 . S
C3991 H4006 0.961 . S
C3991 H4007 0.960 . S
H3992 C3976 0.931 . S
H3993 C3981 0.929 . S
H3994 C3982 0.960 . S
H3995 C3982 0.962 . S
H3996 C3982 0.960 . S
H3997 C3983 0.961 . S
H3998 C3983 0.961 . S
H3999 C3983 0.961 . S
H4000 C3984 0.931 . S
H4001 C3989 0.930 . S
H4002 C3990 0.956 . S
H4003 C3990 0.961 . S
H4004 C3990 0.961 . S
H4005 C3991 0.958 . S
H4006 C3991 0.961 . S
H4007 C3991 0.960 . S
C4008 C4009 1.391 . S
C4008 C4010 1.394 . S
C4008 H4024 0.931 . S
C4009 C4008 1.391 . S
C4009 C4013 1.376 . S
C4010 C4008 1.394 . S
C4010 C4011 1.369 . S
C4010 C4014 1.531 . S
C4011 C4010 1.369 . S
C4011 C4012 1.410 . S
C4011 C4019 1.503 . S
C4012 C4011 1.410 . S
C4012 C4013 1.392 . S
C4012 C4015 1.511 . S
C4013 C4009 1.376 . S
C4013 C4012 1.392 . S
C4013 H4025 0.929 . S
C4014 C4010 1.531 . S
C4014 H4026 0.960 . S
C4014 H4027 0.962 . S
C4014 H4028 0.960 . S
C4015 C4012 1.511 . S
C4015 H4029 0.961 . S
C4015 H4030 0.961 . S
C4015 H4031 0.961 . S
C4016 C4017 1.370 . S
C4016 C4018 1.363 . S
C4016 H4032 0.931 . S
C4017 C4016 1.370 . S
C4017 C4021 1.408 . S
C4018 C4016 1.363 . S
C4018 C4019 1.370 . S
C4018 C4022 1.524 . S
C4019 C4011 1.503 . S
C4019 C4018 1.370 . S
C4019 C4020 1.403 . S
C4020 C4019 1.403 . S
C4020 C4021 1.404 . S
C4020 C4023 1.539 . S
C4021 C4017 1.408 . S
C4021 C4020 1.404 . S
C4021 H4033 0.930 . S
C4022 C4018 1.524 . S
C4022 H4034 0.956 . S
C4022 H4035 0.961 . S
C4022 H4036 0.961 . S
C4023 C4020 1.539 . S
C4023 H4037 0.958 . S
C4023 H4038 0.961 . S
C4023 H4039 0.960 . S
H4024 C4008 0.931 . S
H4025 C4013 0.929 . S
H4026 C4014 0.960 . S
H4027 C4014 0.962 . S
H4028 C4014 0.960 . S
H4029 C4015 0.961 . S
H4030 C4015 0.961 . S
H4031 C4015 0.961 . S
H4032 C4016 0.931 . S
H4033 C4021 0.930 . S
H4034 C4022 0.956 . S
H4035 C4022 0.961 . S
H4036 C4022 0.961 . S
H4037 C4023 0.958 . S
H4038 C4023 0.961 . S
H4039 C4023 0.960 . S
C977 N428 1.653 . S
C969 N5 1.712 . S
C1009 C455 1.608 . S
C1001 N15 1.633 . S
C1033 N31 1.690 . S
C1041 C469 1.712 . S
C1073 N487 1.500 . S
C1065 N40 1.546 . S
C1097 N53 1.482 . S
C1105 C492 1.448 . S
C1129 N70 1.636 . S
C1137 C432 1.632 . S
C1161 N80 1.489 . S
C1169 N451 1.454 . S
C1201 N464 1.712 . S
C1193 N92 1.724 . S
C1233 N510 1.620 . S
C1225 N2 1.742 . S
C1257 N14 1.448 . S
C1265 N533 1.426 . S
C1289 N27 1.722 . S
C1297 N556 1.712 . S
C1329 N589 1.617 . S
C1321 N44 1.692 . S
C1353 N54 1.338 . S
C1361 C616 1.359 . S
C1393 C639 1.403 . S
C1385 N67 1.386 . S
C1417 N83 1.313 . S
C1425 C662 1.307 1_655 S
C1457 C676 1.563 1_565 S
C1449 N93 1.576 . S
C1481 N1 1.642 . S
C1489 C593 1.592 . S
C1513 N57 1.455 . S
C1521 N635 1.420 . S
C1553 N658 1.749 . S
C1545 N66 1.749 . S
C1577 N79 1.825 . S
C1585 N671 1.809 . S
C1617 N612 1.748 . S
C1609 N96 1.790 . S
C1649 C538 1.595 . S
C1641 N28 1.593 . S
C1673 N41 1.431 . S
C1681 C561 1.435 . S
C1713 C515 1.485 . S
C1705 N18 1.523 . S
C1745 C708 1.738 . S
C1737 N109 1.728 . S
C1769 N119 1.499 . S
C1777 C722 1.476 . S
C1801 N135 1.630 . S
C1809 N750 1.603 . S
C1841 N763 1.484 . S
C1833 N144 1.532 . S
C1865 N157 1.506 . S
C1873 C768 1.485 . S
C1897 N174 1.628 . S
C1905 N704 1.601 . S
C1929 N184 1.602 . S
C1937 N717 1.500 . S
C1961 N196 1.721 . S
C1969 C754 1.737 . S
C2001 N602 1.602 . S
C1993 N106 1.723 . S
C2025 N118 1.456 . S
C2033 N786 1.394 . S
C2065 N648 1.642 . S
C2057 N131 1.651 . S
C2089 N148 1.772 . S
C2097 C823 1.769 . S
C2121 N158 1.473 . S
C2129 C524 1.486 . S
C2161 C837 1.453 . S
C2153 N171 1.444 . S
C2185 N187 1.385 . S
C2193 C570 1.380 . S
C2225 N855 1.525 . S
C2217 N197 1.640 . S
C2249 N105 1.675 . S
C2257 N819 1.625 . S
C2289 N832 1.400 . S
C2281 N161 1.466 . S
C2313 N170 1.812 . S
C2321 N566 1.760 . S
C2353 C860 1.751 . S
C2345 N183 1.763 . S
C2377 N200 1.793 . S
C2385 N520 1.750 . S
C2409 N132 1.504 . S
C2417 C791 1.514 . S
C2441 N145 1.453 . S
C2449 C653 1.457 . S
C2473 N122 1.362 . S
C2481 C607 1.343 . S
C2505 N213 1.771 . S
C2513 C745 1.766 . S
C2545 C777 1.513 . S
C2537 N223 1.498 . S
C2569 N239 1.627 . S
C2577 N694 1.631 . S
C2601 N248 1.525 . S
C2609 N727 1.525 . S
C2633 N261 1.537 . S
C2641 C731 1.526 . S
C2665 N278 1.632 . S
C2673 N740 1.643 . S
C2705 N773 1.453 . S
C2697 N288 1.469 . S
C2729 N300 1.765 . S
C2737 C699 1.779 . S
C2769 N888 1.744 . S
C2761 N210 1.784 . S
C2793 N222 1.444 . S
C2801 N625 1.394 . S
C2833 N911 1.599 . S
C2825 N235 1.642 . S
C2857 N252 1.748 . S
C2865 N681 1.682 . S
C2889 N262 1.436 . S
C2897 C929 1.407 . S
C2921 N275 1.459 . S
C2929 C547 1.479 . S
C2961 N947 1.272 . S
C2953 N291 1.314 . S
C2985 N301 1.607 . S
C2993 C584 1.592 . S
C3025 C685 1.652 . S
C3017 N209 1.694 . S
C3057 N543 1.409 . S
C3049 N265 1.428 . S
C3081 N274 1.842 . S
C3089 C952 1.895 . S
C3113 N287 1.746 . S
C3121 N579 1.733 . S
C3153 N924 1.709 . S
C3145 N304 1.821 . S
C3185 C630 1.514 . S
C3177 N236 1.529 . S
C3217 C915 1.426 . S
C3209 N249 1.451 . S
C3249 C892 1.419 . S
C3241 N226 1.423 . S
C3273 N317 1.667 . S
C3281 N474 1.616 . S
C3305 N327 1.510 . S
C3313 C501 1.492 . S
C3345 C423 1.715 . S
C3337 N343 1.683 . S
C3377 N441 1.422 . S
C3369 N352 1.476 . S
C3409 C446 1.539 . S
C3401 N365 1.591 . S
C3441 C478 1.646 . S
C3433 N382 1.616 . S
C3473 N497 1.562 . S
C3465 N392 1.595 . S
C3497 N404 1.727 . S
C3505 N418 1.717 . S
C3529 N314 1.668 . S
C3537 N934 1.657 . S
C3569 N842 1.411 . S
C3561 N326 1.424 . S
C3601 C961 1.775 . S
C3593 N339 1.775 . S
C3633 C869 1.630 . S
C3625 N356 1.626 . S
C3657 N366 1.440 . S
C3665 C883 1.438 . S
C3697 C800 1.422 . S
C3689 N379 1.424 . S
C3729 C906 1.444 . S
C3721 N395 1.429 . S
C3753 N405 1.598 . S
C3761 N809 1.487 . S
C3793 N865 1.609 . S
C3785 N313 1.667 . S
C3825 N796 1.415 . S
C3817 N369 1.434 . S
C3857 N901 1.805 . S
C3849 N378 1.785 . S
C3881 N391 1.860 . S
C3889 C814 1.837 . S
C3913 N408 1.791 . S
C3921 N878 1.696 . S
C3945 N340 1.622 . S
C3953 C846 1.622 . S
C3977 N353 1.411 . S
C3985 N957 1.372 . S
C4017 C938 1.439 . S
C4009 N330 1.443 . S
