# Generated by pormake.
# Topology pth, (4,4)-cn, num edge types: 1
# Building blocks:
#     Node 0, Type 0, BuildingBlock: UXUYUI_clean_sbu_0, # of connection points: 4
#     Node 1, Type 0, BuildingBlock: UXUYUI_clean_sbu_0, # of connection points: 4
#     Node 2, Type 0, BuildingBlock: UXUYUI_clean_sbu_0, # of connection points: 4
#     Node 3, Type 1, BuildingBlock: AZAVOO_clean_linker_0, # of connection points: 4
#     Node 4, Type 1, BuildingBlock: AZAVOO_clean_linker_0, # of connection points: 4
#     Node 5, Type 1, BuildingBlock: AZAVOO_clean_linker_0, # of connection points: 4
#     Edge 6, Type (0, 1), BuildingBlock: XUDNAN_clean_linker_2, # of connection points: 2
#     Edge 7, Type (0, 1), BuildingBlock: XUDNAN_clean_linker_2, # of connection points: 2
#     Edge 8, Type (0, 1), BuildingBlock: XUDNAN_clean_linker_2, # of connection points: 2
#     Edge 9, Type (0, 1), BuildingBlock: XUDNAN_clean_linker_2, # of connection points: 2
#     Edge 10, Type (0, 1), BuildingBlock: XUDNAN_clean_linker_2, # of connection points: 2
#     Edge 11, Type (0, 1), BuildingBlock: XUDNAN_clean_linker_2, # of connection points: 2
#     Edge 12, Type (0, 1), BuildingBlock: XUDNAN_clean_linker_2, # of connection points: 2
#     Edge 13, Type (0, 1), BuildingBlock: XUDNAN_clean_linker_2, # of connection points: 2
#     Edge 14, Type (0, 1), BuildingBlock: XUDNAN_clean_linker_2, # of connection points: 2
#     Edge 15, Type (0, 1), BuildingBlock: XUDNAN_clean_linker_2, # of connection points: 2
#     Edge 16, Type (0, 1), BuildingBlock: XUDNAN_clean_linker_2, # of connection points: 2
#     Edge 17, Type (0, 1), BuildingBlock: XUDNAN_clean_linker_2, # of connection points: 2
# Relax obj value: 0.175
# Max RMSD: 0.231
# Mean RMSD: 0.228
data_MOF--net-pth--node1-UXUYUI_clean_sbu_0--node2-AZAVOO_clean_linker_0--edge1-XUDNAN_clean_linker_2
_symmetry_space_group_name_H-M    P1
_symmetry_Int_Tables_number       1
_symmetry_cell_setting            triclinic
loop_
_symmetry_equiv_pos_as_xyz
'x, y, z'
_cell_length_a     31.356955
_cell_length_b     31.331593
_cell_length_c     84.574202
_cell_angle_alpha  91.282723
_cell_angle_beta   89.085473
_cell_angle_gamma 120.03816
loop_
_atom_site_label
_atom_site_type_symbol
_atom_site_fract_x
_atom_site_fract_y
_atom_site_fract_z
_atom_type_partial_charge
Li0 Li 0.10568 0.07911 0.05616 0.0
Li1 Li 0.04903 0.08258 0.07431 0.0
Li2 Li 0.06138 0.00824 0.07246 0.0
Li3 Li 0.02182 0.02871 0.05039 0.0
C4 C 0.15289 0.11169 0.08414 0.0
N5 N 0.24583 0.18349 0.09356 0.0
C6 C 0.16845 0.16144 0.08191 0.0
C7 C 0.18441 0.09837 0.0912 0.0
C8 C 0.21564 0.19721 0.08673 0.0
C9 C 0.23132 0.13526 0.09588 0.0
C10 C 0.02717 0.11923 0.04842 0.0
C11 C 0.94587 0.10966 0.04906 0.0
N12 N 0.96373 0.15363 0.04174 0.0
C13 C 0.04468 0.1643 0.04087 0.0
C14 C 0.97733 0.09166 0.05252 0.0
C15 C 0.01206 0.18107 0.03761 0.0
C16 C 0.16566 0.14758 0.03419 0.0
N17 N 0.16734 0.11944 0.04587 0.0
C18 C 0.25262 0.14866 0.04053 0.0
C19 C 0.20966 0.11942 0.04921 0.0
C20 C 0.2518 0.17841 0.0285 0.0
C21 C 0.20764 0.17768 0.02539 0.0
H22 H 0.13136 0.14601 0.0315 0.0
H23 H 0.20992 0.09619 0.05841 0.0
C24 C 0.02757 0.1053 0.1045 0.0
N25 N 0.03993 0.12255 0.08955 0.0
C26 C 0.0317 0.13713 0.11698 0.0
C27 C 0.05871 0.20305 0.09825 0.0
C28 C 0.05425 0.17008 0.08617 0.0
C29 C 0.04912 0.18715 0.11397 0.0
H30 H 0.01746 0.06758 0.10686 0.0
H31 H 0.0653 0.18331 0.07429 0.0
C32 C 0.10747 0.00809 0.04005 0.0
N33 N 0.18104 0.01042 0.02105 0.0
C34 C 0.11044 0.02007 0.0241 0.0
C35 C 0.14167 0.99698 0.04633 0.0
C36 C 0.14801 0.02119 0.0147 0.0
C37 C 0.17862 0.99838 0.03652 0.0
C38 C 0.95322 0.97578 0.07734 0.0
C39 C 0.93931 0.92607 0.07546 0.0
C40 C 0.92032 0.98865 0.08423 0.0
C41 C 0.89235 0.88995 0.08033 0.0
C42 C 0.87367 0.95144 0.08894 0.0
N43 N 0.86077 0.90327 0.0869 0.0
C44 C 0.06252 0.96136 0.1002 0.0
C45 C 0.05322 0.91562 0.07651 0.0
C46 C 0.05844 0.9227 0.10923 0.0
N47 N 0.05959 0.95693 0.08419 0.0
C48 C 0.0489 0.87607 0.08505 0.0
C49 C 0.05109 0.87915 0.10164 0.0
H50 H 0.0672 0.99463 0.10594 0.0
H51 H 0.05065 0.91313 0.06375 0.0
C52 C 0.99 0.02776 0.01979 0.0
N53 N 0.97745 0.00066 0.03316 0.0
C54 C 0.96532 0.00674 0.00566 0.0
C55 C 0.91418 0.93066 0.0194 0.0
C56 C 0.93991 0.95319 0.03328 0.0
C57 C 0.92766 0.95716 0.00525 0.0
H58 H 0.02088 0.06503 0.01991 0.0
H59 H 0.93157 0.93194 0.04389 0.0
O60 O 0.10687 0.07611 0.07952 0.0
O61 O 0.05899 0.10256 0.05163 0.0
O62 O 0.07161 0.0078 0.04953 0.0
O63 O -0.00066 0.01181 0.07294 0.0
H64 H 0.14457 0.17225 0.07633 0.0
H65 H 0.17277 0.05994 0.093 0.0
H66 H 0.22829 0.23587 0.08503 0.0
H67 H 0.2562 0.12555 0.10134 0.0
H68 H 0.90721 0.08861 0.05215 0.0
H69 H 0.08316 0.18629 0.03764 0.0
H70 H 0.96283 0.05657 0.05818 0.0
H71 H 0.02517 0.21592 0.03181 0.0
H72 H 0.28605 0.14822 0.0432 0.0
H73 H 0.20529 0.19931 0.01599 0.0
H74 H 0.02442 0.12343 0.12893 0.0
H75 H 0.07167 0.24115 0.09538 0.0
H76 H 0.08434 0.02893 0.01909 0.0
H77 H 0.14021 0.98818 0.05869 0.0
H78 H 0.15098 0.03072 0.00236 0.0
H79 H 0.20555 0.9902 0.04124 0.0
H80 H 0.96426 0.91547 0.07013 0.0
H81 H 0.93074 0.027 0.08595 0.0
H82 H 0.881 0.85132 0.07886 0.0
H83 H 0.84778 0.96086 0.09425 0.0
H84 H 0.05971 0.92636 0.122 0.0
H85 H 0.04383 0.84342 0.07873 0.0
H86 H 0.97663 0.02863 0.99507 0.0
H87 H 0.88592 0.89212 0.01959 0.0
Li88 Li 0.03191 0.99563 0.39261 0.0
Li89 Li 0.09456 0.05828 0.40999 0.0
Li90 Li 0.00528 0.02601 0.41559 0.0
Li91 Li 0.04805 0.08321 0.3939 0.0
C92 C 0.02358 0.94267 0.42006 0.0
N93 N 0.98448 0.84649 0.42975 0.0
C94 C 0.05467 0.92566 0.42503 0.0
C95 C 0.97262 0.91096 0.42021 0.0
C96 C 0.03419 0.87684 0.42982 0.0
C97 C 0.95355 0.86243 0.4251 0.0
C98 C 0.13979 0.07343 0.38231 0.0
C99 C 0.22435 0.13814 0.37954 0.0
N100 N 0.23667 0.10422 0.37444 0.0
C101 C 0.15319 0.03927 0.37691 0.0
C102 C 0.17552 0.12333 0.38351 0.0
C103 C 0.20239 0.05555 0.37303 0.0
C104 C 0.9914 0.93664 0.3655 0.0
N105 N 0.01716 0.94155 0.37884 0.0
C106 C 0.03117 0.87642 0.37027 0.0
C107 C 0.03635 0.91193 0.38152 0.0
C108 C 0.00653 0.87188 0.35607 0.0
C109 C 0.98541 0.90168 0.35392 0.0
H110 H 0.97719 0.96122 0.36359 0.0
H111 H 0.05804 0.91766 0.39196 0.0
C112 C 0.17471 0.11794 0.4298 0.0
N113 N 0.1561 0.07856 0.41967 0.0
C114 C 0.21821 0.132 0.43794 0.0
C115 C 0.22295 0.06495 0.42495 0.0
C116 C 0.17919 0.05209 0.4171 0.0
C117 C 0.24271 0.10509 0.43569 0.0
H118 H 0.15505 0.13763 0.43192 0.0
H119 H 0.16311 0.02042 0.40917 0.0
C120 C 0.9348 0.99918 0.39073 0.0
N121 N 0.83486 0.95711 0.38544 0.0
C122 C 0.91422 0.02902 0.3882 0.0
C123 C 0.90467 0.9479 0.39025 0.0
C124 C 0.86358 0.00707 0.38565 0.0
C125 C 0.85421 0.92735 0.38765 0.0
C126 C 0.06729 0.14041 0.42035 0.0
C127 C 0.03109 0.14505 0.42879 0.0
C128 C 0.1099 0.18274 0.41537 0.0
C129 C 0.0378 0.192 0.4319 0.0
C130 C 0.11521 0.22903 0.41869 0.0
N131 N 0.07933 0.23266 0.42681 0.0
C132 C 0.96986 0.99458 0.44604 0.0
C133 C 0.91863 0.01425 0.43124 0.0
C134 C 0.93995 0.98535 0.45938 0.0
N135 N 0.95885 0.00886 0.43236 0.0
C136 C 0.88785 0.00569 0.44431 0.0
C137 C 0.89876 0.99164 0.45867 0.0
H138 H 0.00271 0.99165 0.44671 0.0
H139 H 0.91136 0.02696 0.42042 0.0
C140 C 0.07838 0.14694 0.36804 0.0
N141 N 0.05164 0.13535 0.38167 0.0
C142 C 0.08364 0.18582 0.35887 0.0
C143 C 0.03354 0.20002 0.3779 0.0
C144 C 0.02862 0.16038 0.38656 0.0
C145 C 0.06148 0.21319 0.36389 0.0
H146 H 0.09585 0.12612 0.36431 0.0
H147 H 0.00662 0.1498 0.39724 0.0
O148 O 0.04314 0.99036 0.4153 0.0
O149 O 0.09193 0.05812 0.38638 0.0
O150 O 0.98441 0.02013 0.3931 0.0
O151 O 0.06122 0.0947 0.41713 0.0
H152 H 0.0942 0.94983 0.4251 0.0
H153 H 0.94803 0.92383 0.41678 0.0
H154 H 0.05782 0.86309 0.43361 0.0
H155 H 0.91416 0.8375 0.42526 0.0
H156 H 0.25244 0.17661 0.3805 0.0
H157 H 0.12599 0.00058 0.37582 0.0
H158 H 0.16568 0.15029 0.3875 0.0
H159 H 0.21333 0.02947 0.36892 0.0
H160 H 0.04885 0.85488 0.37226 0.0
H161 H 0.96596 0.89916 0.34316 0.0
H162 H 0.2314 0.16247 0.44636 0.0
H163 H 0.24074 0.04334 0.42279 0.0
H164 H 0.937 0.06872 0.38834 0.0
H165 H 0.92008 0.92414 0.39167 0.0
H166 H 0.84713 0.02976 0.38381 0.0
H167 H 0.83046 0.88773 0.3873 0.0
H168 H 0.99809 0.11281 0.43286 0.0
H169 H 0.13843 0.17988 0.40893 0.0
H170 H 0.00998 0.19611 0.43836 0.0
H171 H 0.14784 0.26206 0.41481 0.0
H172 H 0.95007 0.97534 0.4703 0.0
H173 H 0.85632 0.0108 0.44327 0.0
H174 H 0.10553 0.19497 0.34812 0.0
H175 H 0.01529 0.21982 0.38201 0.0
Li176 Li 0.10824 0.06237 0.72459 0.0
Li177 Li 0.10463 0.12044 0.74202 0.0
Li178 Li 0.04563 0.02693 0.74489 0.0
Li179 Li 0.03951 0.07444 0.72212 0.0
C180 C 0.1549 0.05707 0.7498 0.0
N181 N 0.23048 0.03672 0.75277 0.0
C182 C 0.2036 0.09377 0.74699 0.0
C183 C 0.14463 0.01019 0.75429 0.0
C184 C 0.24128 0.08266 0.74847 0.0
C185 C 0.18339 0.00063 0.75572 0.0
C186 C 0.115 0.1686 0.71387 0.0
C187 C 0.08316 0.2245 0.71278 0.0
N188 N 0.12498 0.25796 0.70528 0.0
C189 C 0.15771 0.2037 0.70613 0.0
C190 C 0.07756 0.1793 0.71723 0.0
C191 C 0.16206 0.24857 0.70191 0.0
C192 C 0.19023 0.0926 0.70531 0.0
N193 N 0.15631 0.05249 0.71327 0.0
C194 C 0.20089 0.01035 0.70746 0.0
C195 C 0.16049 0.0114 0.71432 0.0
C196 C 0.23734 0.05231 0.69978 0.0
C197 C 0.2313 0.09344 0.6985 0.0
H198 H 0.18632 0.12471 0.70474 0.0
H199 H 0.13377 0.9803 0.72103 0.0
C200 C 0.12882 0.18886 0.76774 0.0
N201 N 0.14352 0.18 0.75345 0.0
C202 C 0.16017 0.23133 0.77647 0.0
C203 C 0.22125 0.25422 0.75568 0.0
C204 C 0.18863 0.21159 0.74732 0.0
C205 C 0.20731 0.26431 0.77052 0.0
H206 H 0.09333 0.16235 0.77255 0.0
H207 H 0.19981 0.20292 0.73612 0.0
C208 C 0.04002 0.97993 0.71093 0.0
N209 N 0.04527 0.91796 0.68824 0.0
C210 C 0.04883 0.99404 0.69512 0.0
C211 C 0.03349 0.93419 0.7152 0.0
C212 C 0.05148 0.96221 0.68382 0.0
C213 C 0.03637 0.90341 0.70355 0.0
C214 C 0.99826 0.09321 0.75221 0.0
C215 C 0.95388 0.05493 0.75808 0.0
C216 C 0.0082 0.14189 0.75381 0.0
C217 C 0.91974 0.06584 0.76509 0.0
C218 C 0.97313 0.15129 0.7609 0.0
N219 N 0.92996 0.11338 0.76633 0.0
C220 C 0.01515 0.97184 0.77366 0.0
C221 C 0.96393 0.93732 0.75121 0.0
C222 C 0.98224 0.93176 0.78282 0.0
N223 N 0.00533 0.97366 0.75818 0.0
C224 C 0.93025 0.89679 0.75985 0.0
C225 C 0.93913 0.89351 0.77587 0.0
H226 H 0.0483 0.00154 0.7789 0.0
H227 H 0.95673 0.94031 0.73894 0.0
C228 C 0.99808 0.08703 0.69366 0.0
N229 N 0.9892 0.07067 0.70878 0.0
C230 C 0.95904 0.07962 0.68399 0.0
C231 C 0.90294 0.03931 0.70571 0.0
C232 C 0.94281 0.04697 0.71484 0.0
C233 C 0.91054 0.05501 0.68997 0.0
H234 H 0.03527 0.10483 0.68901 0.0
H235 H 0.93655 0.03287 0.72667 0.0
O236 O 0.11739 0.06693 0.74819 0.0
O237 O 0.11077 0.12482 0.71842 0.0
O238 O 0.03784 0.01077 0.72218 0.0
O239 O 0.03234 0.0831 0.74544 0.0
H240 H 0.2121 0.1302 0.74348 0.0
H241 H 0.1071 0.9814 0.7565 0.0
H242 H 0.2791 0.11052 0.74616 0.0
H243 H 0.17601 0.96445 0.75911 0.0
H244 H 0.05427 0.23299 0.71531 0.0
H245 H 0.18767 0.19694 0.70355 0.0
H246 H 0.04433 0.15299 0.72315 0.0
H247 H 0.195 0.276 0.69599 0.0
H248 H 0.20468 0.97808 0.7087 0.0
H249 H 0.25855 0.12625 0.69251 0.0
H250 H 0.1484 0.2373 0.78801 0.0
H251 H 0.25723 0.27872 0.75068 0.0
H252 H 0.05405 0.0294 0.69166 0.0
H253 H 0.0269 0.92287 0.72742 0.0
H254 H 0.05854 0.97273 0.67155 0.0
H255 H 0.03172 0.86803 0.70669 0.0
H256 H 0.94562 0.0171 0.75712 0.0
H257 H 0.04279 0.17228 0.74978 0.0
H258 H 0.88512 0.03649 0.76957 0.0
H259 H 0.98033 0.18876 0.76214 0.0
H260 H 0.99056 0.93054 0.79512 0.0
H261 H 0.89705 0.86878 0.7541 0.0
H262 H 0.96665 0.09171 0.67186 0.0
H263 H 0.86646 0.02081 0.71095 0.0
H264 H 0.0287 0.39651 0.13813 0.0
H265 H 0.0817 0.83952 0.24333 0.0
H266 H 0.99047 0.41421 0.22069 0.0
H267 H -0.00025 0.35387 0.20477 0.0
H268 H 0.15526 0.42963 0.21564 0.0
H269 H 0.14571 0.49156 0.23091 0.0
H270 H 0.98824 0.47724 0.19577 0.0
H271 H 0.9908 0.43956 0.17035 0.0
H272 H 0.14821 0.5024 0.1752 0.0
H273 H 0.14508 0.53999 0.20055 0.0
H274 H 0.97635 0.56158 0.20614 0.0
H275 H 0.96784 0.60429 0.18352 0.0
H276 H 0.12579 0.68166 0.17685 0.0
H277 H 0.13385 0.63853 0.19951 0.0
H278 H 0.9792 0.59448 0.24302 0.0
H279 H 0.9721 0.66811 0.24759 0.0
H280 H 0.12424 0.75957 0.23336 0.0
H281 H 0.13094 0.68562 0.22903 0.0
H282 H 0.98908 0.53576 0.26827 0.0
H283 H 0.98252 0.58859 0.28891 0.0
H284 H 0.13453 0.69867 0.28088 0.0
H285 H 0.141 0.64574 0.26043 0.0
H286 H 0.99879 0.43039 0.25479 0.0
H287 H 0.00388 0.38658 0.27766 0.0
H288 H 0.14581 0.51173 0.28937 0.0
H289 H 0.14092 0.55499 0.26628 0.0
O290 O 0.02877 0.41333 0.14788 0.0
O291 O 0.10995 0.44849 0.15055 0.0
O292 O 0.00524 0.76109 0.24861 0.0
O293 O 0.08328 0.80978 0.24139 0.0
C294 C 0.06573 0.50355 0.22949 0.0
C295 C 0.06405 0.52927 0.21616 0.0
C296 C 0.06045 0.57196 0.21825 0.0
C297 C 0.06023 0.59014 0.23359 0.0
C298 C 0.06421 0.56584 0.24693 0.0
C299 C 0.06644 0.52208 0.24492 0.0
C300 C 0.06757 0.45766 0.22667 0.0
C301 C 0.02608 0.41641 0.22025 0.0
C302 C 0.03158 0.38189 0.21109 0.0
C303 C 0.07864 0.38776 0.20848 0.0
C304 C 0.11879 0.42499 0.217 0.0
C305 C 0.11332 0.45996 0.22598 0.0
C306 C 0.06646 0.51129 0.19995 0.0
C307 C 0.02331 0.48344 0.19118 0.0
C308 C 0.02486 0.4617 0.17673 0.0
C309 C 0.06967 0.46766 0.1708 0.0
C310 C 0.11308 0.49694 0.17944 0.0
C311 C 0.11144 0.51861 0.19388 0.0
C312 C 0.05565 0.59707 0.20437 0.0
C313 C 0.009 0.58759 0.19972 0.0
C314 C 0.00424 0.6118 0.1868 0.0
C315 C 0.04618 0.64619 0.17844 0.0
C316 C 0.09293 0.65558 0.18317 0.0
C317 C 0.09759 0.63093 0.196 0.0
C318 C 0.05556 0.63483 0.23571 0.0
C319 C 0.01088 0.63047 0.24087 0.0
C320 C 0.00693 0.67256 0.24345 0.0
C321 C 0.04762 0.71976 0.24082 0.0
C322 C 0.0922 0.72383 0.23548 0.0
C323 C 0.09612 0.68169 0.23295 0.0
C324 C 0.0654 0.5872 0.26282 0.0
C325 C 0.02163 0.5701 0.27157 0.0
C326 C 0.01788 0.60032 0.28329 0.0
C327 C 0.05785 0.64779 0.28623 0.0
C328 C 0.1032 0.66226 0.27871 0.0
C329 C 0.10703 0.632 0.26714 0.0
C330 C 0.06947 0.49586 0.25887 0.0
C331 C 0.03113 0.4482 0.26223 0.0
C332 C 0.03411 0.42325 0.27526 0.0
C333 C 0.07526 0.4458 0.28527 0.0
C334 C 0.11348 0.49369 0.28194 0.0
C335 C 0.11074 0.51839 0.26878 0.0
C336 C 0.0709 0.44278 0.15579 0.0
C337 C 0.04388 0.76463 0.24383 0.0
H338 H 0.60504 0.00026 0.46642 0.0
H339 H 0.35872 0.18982 0.58391 0.0
H340 H 0.57914 0.96734 0.55327 0.0
H341 H 0.63762 0.94537 0.54148 0.0
H342 H 0.75642 0.0938 0.55029 0.0
H343 H 0.69771 0.11529 0.56235 0.0
H344 H 0.51938 0.99623 0.52873 0.0
H345 H 0.5418 0.98582 0.50164 0.0
H346 H 0.6826 0.11937 0.50722 0.0
H347 H 0.65936 0.1297 0.53419 0.0
H348 H 0.44291 0.02908 0.54465 0.0
H349 H 0.40285 0.04615 0.52315 0.0
H350 H 0.54213 0.1738 0.51077 0.0
H351 H 0.58108 0.15791 0.53293 0.0
H352 H 0.43343 0.02424 0.58117 0.0
H353 H 0.36976 0.04531 0.58759 0.0
H354 H 0.46676 0.19408 0.57185 0.0
H355 H 0.53038 0.1727 0.5657 0.0
H356 H 0.49948 0.99506 0.6007 0.0
H357 H 0.46288 0.99243 0.62672 0.0
H358 H 0.52332 0.15027 0.62566 0.0
H359 H 0.5607 0.15261 0.59984 0.0
H360 H 0.58158 0.97666 0.58671 0.0
H361 H 0.62904 0.96554 0.60722 0.0
H362 H 0.69555 0.12005 0.62014 0.0
H363 H 0.64941 0.1311 0.59911 0.0
O364 O 0.59663 0.00546 0.47707 0.0
O365 O 0.66817 0.07476 0.48047 0.0
O366 O 0.33508 0.10373 0.58962 0.0
O367 O 0.38327 0.18052 0.58149 0.0
C368 C 0.59795 0.05835 0.5625 0.0
C369 C 0.57493 0.0685 0.55008 0.0
C370 C 0.53898 0.08191 0.55351 0.0
C371 C 0.52542 0.08427 0.56939 0.0
C372 C 0.54872 0.07423 0.58182 0.0
C373 C 0.58563 0.06212 0.57837 0.0
C374 C 0.63438 0.04285 0.55859 0.0
C375 C 0.61804 0.99457 0.55312 0.0
C376 C 0.65139 0.98209 0.54645 0.0
C377 C 0.70132 0.01802 0.54496 0.0
C378 C 0.71802 0.06558 0.55132 0.0
C379 C 0.68473 0.07782 0.55822 0.0
C380 C 0.58778 0.06363 0.5334 0.0
C381 C 0.55486 0.02337 0.52401 0.0
C382 C 0.56786 0.01744 0.50857 0.0
C383 C 0.61407 0.05168 0.50227 0.0
C384 C 0.64676 0.09229 0.5117 0.0
C385 C 0.63362 0.09826 0.52711 0.0
C386 C 0.51481 0.09236 0.54039 0.0
C387 C 0.46458 0.06098 0.53738 0.0
C388 C 0.44194 0.0705 0.52495 0.0
C389 C 0.4693 0.11124 0.51513 0.0
C390 C 0.51977 0.14249 0.51819 0.0
C391 C 0.54222 0.13326 0.53076 0.0
C392 C 0.48654 0.09699 0.57302 0.0
C393 C 0.4409 0.0614 0.57918 0.0
C394 C 0.40458 0.07351 0.5828 0.0
C395 C 0.41319 0.12142 0.58024 0.0
C396 C 0.45892 0.15688 0.57397 0.0
C397 C 0.49529 0.14476 0.57041 0.0
C398 C 0.53248 0.07398 0.59839 0.0
C399 C 0.50567 0.02915 0.60628 0.0
C400 C 0.48452 0.02768 0.62105 0.0
C401 C 0.48996 0.07108 0.62818 0.0
C402 C 0.5189 0.11627 0.62056 0.0
C403 C 0.54003 0.1177 0.60579 0.0
C404 C 0.61239 0.05473 0.59136 0.0
C405 C 0.60658 0.00808 0.59394 0.0
C406 C 0.6334 0.00176 0.60577 0.0
C407 C 0.66621 0.04195 0.61533 0.0
C408 C 0.67123 0.08851 0.61284 0.0
C409 C 0.6446 0.09482 0.60094 0.0
C410 C 0.62809 0.04486 0.48596 0.0
C411 C 0.37472 0.13448 0.58408 0.0
H412 H 0.65624 0.66973 -0.00169 0.0
H413 H 0.30839 0.24505 0.88698 0.0
H414 H 0.60593 0.66928 0.91353 0.0
H415 H 0.67109 0.74646 0.92498 0.0
H416 H 0.77783 0.70165 0.91336 0.0
H417 H 0.71215 0.62454 0.90168 0.0
H418 H 0.54712 0.58815 0.93947 0.0
H419 H 0.58032 0.62247 0.96566 0.0
H420 H 0.70581 0.60383 0.95572 0.0
H421 H 0.67193 0.56919 0.92962 0.0
H422 H 0.45717 0.48344 0.92748 0.0
H423 H 0.41749 0.42244 0.94821 0.0
H424 H 0.5465 0.40648 0.95062 0.0
H425 H 0.58483 0.4659 0.92937 0.0
H426 H 0.43841 0.49089 0.89096 0.0
H427 H 0.36008 0.41499 0.88628 0.0
H428 H 0.43036 0.32931 0.89526 0.0
H429 H 0.50863 0.40555 0.8997 0.0
H430 H 0.52078 0.58377 0.86881 0.0
H431 H 0.46886 0.55695 0.84534 0.0
H432 H 0.47597 0.42255 0.8435 0.0
H433 H 0.53057 0.45137 0.86631 0.0
H434 H 0.61796 0.66721 0.87775 0.0
H435 H 0.67296 0.71357 0.85585 0.0
H436 H 0.70006 0.59304 0.84622 0.0
H437 H 0.64464 0.54701 0.86783 0.0
O438 O 0.643 0.65463 0.98811 0.0
O439 O 0.70625 0.64334 0.98254 0.0
O440 O 0.30465 0.32142 0.88416 0.0
O441 O 0.33891 0.27563 0.88877 0.0
C442 C 0.61333 0.59115 0.90352 0.0
C443 C 0.58902 0.55963 0.91631 0.0
C444 C 0.54669 0.51335 0.91359 0.0
C445 C 0.52675 0.49999 0.89821 0.0
C446 C 0.55171 0.53129 0.88535 0.0
C447 C 0.59628 0.57587 0.88796 0.0
C448 C 0.65448 0.64148 0.90687 0.0
C449 C 0.64364 0.67686 0.91303 0.0
C450 C 0.68076 0.72063 0.91967 0.0
C451 C 0.72933 0.72964 0.92027 0.0
C452 C 0.74075 0.69574 0.91299 0.0
C453 C 0.70342 0.65179 0.90632 0.0
C454 C 0.60717 0.57627 0.93268 0.0
C455 C 0.58146 0.59096 0.94306 0.0
C456 C 0.60065 0.61079 0.95797 0.0
C457 C 0.64588 0.61617 0.96275 0.0
C458 C 0.67098 0.60035 0.9524 0.0
C459 C 0.65171 0.5805 0.9375 0.0
C460 C 0.52367 0.47877 0.92686 0.0
C461 C 0.47674 0.46668 0.93249 0.0
C462 C 0.45438 0.43215 0.94444 0.0
C463 C 0.47883 0.4095 0.95109 0.0
C464 C 0.52636 0.42263 0.94561 0.0
C465 C 0.5485 0.45688 0.93358 0.0
C466 C 0.47915 0.45368 0.89565 0.0
C467 C 0.43679 0.45568 0.89188 0.0
C468 C 0.39211 0.41228 0.88924 0.0
C469 C 0.38896 0.36605 0.8904 0.0
C470 C 0.4315 0.36426 0.89427 0.0
C471 C 0.47622 0.40772 0.89685 0.0
C472 C 0.52887 0.5192 0.86941 0.0
C473 C 0.51246 0.54931 0.86301 0.0
C474 C 0.48219 0.53356 0.84971 0.0
C475 C 0.46722 0.48706 0.8427 0.0
C476 C 0.48682 0.45866 0.84848 0.0
C477 C 0.51777 0.47486 0.86162 0.0
C478 C 0.62742 0.60381 0.87436 0.0
C479 C 0.63575 0.65093 0.87085 0.0
C480 C 0.66731 0.67738 0.8584 0.0
C481 C 0.69092 0.65701 0.84928 0.0
C482 C 0.68193 0.60954 0.85282 0.0
C483 C 0.65042 0.58323 0.8652 0.0
C484 C 0.66696 0.63873 0.97839 0.0
C485 C 0.34157 0.31983 0.88758 0.0
H486 H 0.9973 0.17764 0.14161 0.0
H487 H 0.13108 0.27835 0.11641 0.0
H488 H 0.15513 0.33807 0.13857 0.0
H489 H 0.97423 0.27027 0.15869 0.0
H490 H 0.95177 0.2391 0.17722 0.0
H491 H 0.94508 0.20402 0.15934 0.0
H492 H 0.99068 0.1643 0.1725 0.0
H493 H 0.99794 0.19971 0.19036 0.0
H494 H 0.05121 0.20339 0.18062 0.0
H495 H 0.16433 0.38736 0.163 0.0
H496 H 0.15604 0.42544 0.18766 0.0
H497 H 0.01834 0.2917 0.19796 0.0
C498 C 0.03174 0.21216 0.1408 0.0
C499 C 0.06209 0.22343 0.1272 0.0
C500 C 0.1067 0.26923 0.12654 0.0
C501 C 0.12098 0.30323 0.13915 0.0
C502 C 0.09042 0.29086 0.15238 0.0
C503 C 0.04663 0.24663 0.1533 0.0
C504 C 0.02012 0.24316 0.16878 0.0
C505 C 0.96983 0.2389 0.16582 0.0
C506 C 0.01468 0.20008 0.17865 0.0
C507 C 0.05585 0.29243 0.17636 0.0
C508 C 0.09621 0.3192 0.1667 0.0
C509 C 0.13325 0.36654 0.17078 0.0
C510 C 0.12843 0.38765 0.18497 0.0
C511 C 0.08686 0.36143 0.19497 0.0
C512 C 0.05063 0.31276 0.19066 0.0
H513 H 0.86631 0.0536 0.46901 0.0
H514 H 0.8654 0.91917 0.48092 0.0
H515 H 0.81774 0.91281 0.50527 0.0
H516 H 0.88041 0.10262 0.50844 0.0
H517 H 0.84069 0.12789 0.50542 0.0
H518 H 0.87465 0.12171 0.48901 0.0
H519 H 0.7934 0.06986 0.47342 0.0
H520 H 0.75945 0.07654 0.48971 0.0
H521 H 0.7434 0.01593 0.48235 0.0
H522 H 0.7669 0.91977 0.52777 0.0
H523 H 0.7182 0.94036 0.54666 0.0
H524 H 0.75549 0.0712 0.52001 0.0
C525 C 0.85568 0.02253 0.47665 0.0
C526 C 0.86922 0.98669 0.47306 0.0
C527 C 0.85551 0.94713 0.48352 0.0
C528 C 0.82842 0.94318 0.49734 0.0
C529 C 0.81577 0.97931 0.50053 0.0
C530 C 0.82904 0.01823 0.49047 0.0
C531 C 0.81095 0.05217 0.4965 0.0
C532 C 0.85427 0.10417 0.50005 0.0
C533 C 0.77464 0.05367 0.4848 0.0
C534 C 0.78519 0.02621 0.5115 0.0
C535 C 0.78813 0.98414 0.51364 0.0
C536 C 0.76484 0.95291 0.52631 0.0
C537 C 0.73738 0.96481 0.53696 0.0
C538 C 0.73409 0.00777 0.53489 0.0
C539 C 0.75868 0.03891 0.52209 0.0
H540 H 0.90606 0.89353 0.80623 0.0
H541 H 0.88983 0.79656 0.76646 0.0
H542 H 0.82461 0.72594 0.78089 0.0
H543 H 0.88668 0.80522 0.83702 0.0
H544 H 0.85335 0.82547 0.84974 0.0
H545 H 0.89993 0.86819 0.83645 0.0
H546 H 0.83607 0.88737 0.82435 0.0
H547 H 0.78916 0.84431 0.83747 0.0
H548 H 0.77953 0.83759 0.8164 0.0
H549 H 0.75889 0.66672 0.79897 0.0
H550 H 0.69944 0.62147 0.82022 0.0
H551 H 0.76011 0.75595 0.84876 0.0
C552 C 0.88938 0.85731 0.80067 0.0
C553 C 0.90287 0.85063 0.78517 0.0
C554 C 0.8796 0.8027 0.77823 0.0
C555 C 0.84267 0.76232 0.78635 0.0
C556 C 0.82958 0.77034 0.80146 0.0
C557 C 0.85245 0.81648 0.80863 0.0
C558 C 0.83088 0.815 0.82492 0.0
C559 C 0.87004 0.82931 0.83779 0.0
C560 C 0.80752 0.84803 0.82583 0.0
C561 C 0.79203 0.76091 0.82568 0.0
C562 C 0.79195 0.73588 0.81202 0.0
C563 C 0.75892 0.68577 0.80981 0.0
C564 C 0.72542 0.66037 0.82198 0.0
C565 C 0.72526 0.68501 0.83622 0.0
C566 C 0.75895 0.73609 0.83799 0.0
H567 H 0.10219 0.88095 0.12798 0.0
H568 H 0.98437 0.78142 0.09654 0.0
H569 H 0.97208 0.71071 0.11229 0.0
H570 H 0.15195 0.80113 0.13482 0.0
H571 H 0.16535 0.81915 0.15534 0.0
H572 H 0.16585 0.86191 0.14135 0.0
H573 H 0.10219 0.87207 0.15852 0.0
H574 H 0.1016 0.82946 0.17259 0.0
H575 H 0.04484 0.81819 0.16378 0.0
H576 H 0.97053 0.65123 0.13194 0.0
H577 H 0.98095 0.60685 0.15401 0.0
H578 H 0.09942 0.74513 0.17265 0.0
C579 C 0.07371 0.8443 0.12443 0.0
C580 C 0.04437 0.83668 0.11099 0.0
C581 C 0.0078 0.78808 0.10665 0.0
C582 C 0.00035 0.74771 0.11556 0.0
C583 C 0.02983 0.75655 0.12875 0.0
C584 C 0.06584 0.80359 0.13317 0.0
C585 C 0.09207 0.80307 0.14798 0.0
C586 C 0.14706 0.82246 0.14466 0.0
C587 C 0.08471 0.83243 0.16152 0.0
C588 C 0.06499 0.74838 0.15124 0.0
C589 C 0.02919 0.7222 0.14002 0.0
C590 C 0.99855 0.67128 0.14077 0.0
C591 C 0.00458 0.64645 0.15335 0.0
C592 C 0.04105 0.67259 0.16497 0.0
C593 C 0.07172 0.72416 0.1638 0.0
H594 H 0.26477 0.04018 0.44946 0.0
H595 H 0.31911 0.19662 0.44411 0.0
H596 H 0.38672 0.21564 0.46262 0.0
H597 H 0.28559 0.04322 0.48958 0.0
H598 H 0.30497 0.99789 0.48902 0.0
H599 H 0.26384 0.99649 0.47417 0.0
H600 H 0.3242 0.00115 0.45208 0.0
H601 H 0.36537 0.00197 0.46687 0.0
H602 H 0.38743 0.05039 0.45256 0.0
H603 H 0.44311 0.21713 0.48371 0.0
H604 H 0.48578 0.20112 0.50504 0.0
H605 H 0.3972 0.0438 0.49534 0.0
C606 C 0.29166 0.07849 0.45179 0.0
C607 C 0.28659 0.1169 0.44532 0.0
C608 C 0.32191 0.16654 0.44905 0.0
C609 C 0.36063 0.17773 0.45947 0.0
C610 C 0.36381 0.1389 0.46591 0.0
C611 C 0.3306 0.09029 0.46207 0.0
C612 C 0.34062 0.05531 0.47123 0.0
C613 C 0.29611 0.02124 0.48161 0.0
C614 C 0.35529 0.02545 0.46001 0.0
C615 C 0.38375 0.09179 0.48116 0.0
C616 C 0.39682 0.13981 0.47786 0.0
C617 C 0.43383 0.17971 0.48619 0.0
C618 C 0.458 0.17022 0.49825 0.0
C619 C 0.4451 0.12119 0.50187 0.0
C620 C 0.40778 0.08169 0.49301 0.0
H621 H 0.30455 0.29529 0.77552 0.0
H622 H 0.18974 0.32928 0.78766 0.0
H623 H 0.24752 0.39686 0.80538 0.0
H624 H 0.35257 0.31151 0.81323 0.0
H625 H 0.41606 0.33852 0.80709 0.0
H626 H 0.36782 0.2971 0.79394 0.0
H627 H 0.40128 0.36381 0.77235 0.0
H628 H 0.44985 0.40549 0.78545 0.0
H629 H 0.40935 0.4239 0.77689 0.0
H630 H 0.31463 0.45448 0.82364 0.0
H631 H 0.38524 0.49688 0.84159 0.0
H632 H 0.45786 0.42749 0.8169 0.0
C633 C 0.29196 0.31782 0.78158 0.0
C634 C 0.24279 0.30733 0.78016 0.0
C635 C 0.22723 0.33665 0.78864 0.0
C636 C 0.25987 0.37528 0.79863 0.0
C637 C 0.30791 0.38417 0.79993 0.0
C638 C 0.32398 0.35637 0.7916 0.0
C639 C 0.37615 0.37082 0.79606 0.0
C640 C 0.37823 0.32688 0.80299 0.0
C641 C 0.41123 0.39229 0.78184 0.0
C642 C 0.38642 0.41011 0.80855 0.0
C643 C 0.34683 0.41767 0.81046 0.0
C644 C 0.34627 0.44964 0.82204 0.0
C645 C 0.38686 0.47387 0.83213 0.0
C646 C 0.42759 0.46606 0.83061 0.0
C647 C 0.42747 0.43438 0.81841 0.0
H648 H 0.90472 0.11343 0.66711 0.0
H649 H 0.81951 0.9714 0.68963 0.0
H650 H 0.74767 0.95387 0.67355 0.0
H651 H 0.80745 0.14085 0.66362 0.0
H652 H 0.82652 0.1679 0.64437 0.0
H653 H 0.87145 0.17012 0.65788 0.0
H654 H 0.89939 0.12778 0.63679 0.0
H655 H 0.85476 0.12572 0.62318 0.0
H656 H 0.8544 0.06979 0.628 0.0
H657 H 0.68467 0.95177 0.65533 0.0
H658 H 0.6356 0.96402 0.63531 0.0
H659 H 0.76292 0.10499 0.62345 0.0
C660 C 0.87115 0.07845 0.66858 0.0
C661 C 0.86779 0.04413 0.67983 0.0
C662 C 0.82285 0.99892 0.68141 0.0
C663 C 0.78184 0.98839 0.67224 0.0
C664 C 0.78632 0.02317 0.6614 0.0
C665 C 0.82988 0.0671 0.65942 0.0
C666 C 0.82502 0.09769 0.64671 0.0
C667 C 0.83308 0.14706 0.65356 0.0
C668 C 0.86049 0.1057 0.63285 0.0
C669 C 0.77188 0.06412 0.64192 0.0
C670 C 0.75022 0.02141 0.65058 0.0
C671 C 0.7013 0.98491 0.64838 0.0
C672 C 0.67382 0.99208 0.63691 0.0
C673 C 0.69538 0.03533 0.62773 0.0
C674 C 0.7451 0.07178 0.63037 0.0
H675 H 0.83054 0.88978 -0.0007 0.0
H676 H 0.97456 0.96665 0.97685 0.0
H677 H 0.93875 0.92055 0.95197 0.0
H678 H 0.7936 0.77305 0.98182 0.0
H679 H 0.73007 0.75655 0.9796 0.0
H680 H 0.7664 0.79848 0.9952 0.0
H681 H 0.74568 0.86348 0.98499 0.0
H682 H 0.70937 0.82156 0.96934 0.0
H683 H 0.7588 0.88243 0.96469 0.0
H684 H 0.8883 0.86114 0.93012 0.0
H685 H 0.82616 0.79478 0.91288 0.0
H686 H 0.71624 0.75688 0.94991 0.0
C687 C 0.8545 0.89718 0.98913 0.0
C688 C 0.90528 0.93209 0.99001 0.0
C689 C 0.93535 0.94078 0.97639 0.0
C690 C 0.91543 0.91456 0.96222 0.0
C691 C 0.86535 0.87992 0.96184 0.0
C692 C 0.83525 0.87139 0.97492 0.0
C693 C 0.78305 0.8309 0.97161 0.0
C694 C 0.7674 0.78717 0.98272 0.0
C695 C 0.74711 0.8508 0.97272 0.0
C696 C 0.78871 0.81741 0.95474 0.0
C697 C 0.83635 0.84613 0.94926 0.0
C698 C 0.85072 0.83878 0.93422 0.0
C699 C 0.81535 0.80098 0.92455 0.0
C700 C 0.76635 0.77129 0.92998 0.0
C701 C 0.7531 0.77988 0.94527 0.0
H702 H 0.99165 0.77751 0.35741 0.0
H703 H 0.02725 0.89686 0.32514 0.0
H704 H 0.04001 0.85006 0.30366 0.0
H705 H 0.08071 0.74939 0.34366 0.0
H706 H 0.04313 0.68347 0.34544 0.0
H707 H 0.03163 0.72363 0.35809 0.0
H708 H 0.94102 0.68062 0.34872 0.0
H709 H 0.95204 0.63985 0.33616 0.0
H710 H 0.92805 0.67603 0.32786 0.0
H711 H 0.0586 0.79626 0.28669 0.0
H712 H 0.07415 0.73354 0.27416 0.0
H713 H 0.02347 0.64619 0.3166 0.0
C714 C 0.00138 0.79336 0.34575 0.0
C715 C 0.00813 0.84069 0.34291 0.0
C716 C 0.02099 0.86032 0.32752 0.0
C717 C 0.02865 0.83418 0.31526 0.0
C718 C 0.02283 0.78823 0.31853 0.0
C719 C 0.00874 0.76748 0.33329 0.0
C720 C 0.00665 0.71807 0.33368 0.0
C721 C 0.04268 0.71871 0.34594 0.0
C722 C 0.95379 0.67616 0.33678 0.0
C723 C 0.02319 0.7151 0.31695 0.0
C724 C 0.03237 0.75612 0.30847 0.0
C725 C 0.05084 0.76362 0.2931 0.0
C726 C 0.05984 0.72803 0.28613 0.0
C727 C 0.0499 0.68528 0.29444 0.0
C728 C 0.03102 0.67851 0.31001 0.0
H729 H 0.24492 0.9921 0.6774 0.0
H730 H 0.3313 0.1197 0.7076 0.0
H731 H 0.40777 0.13156 0.69477 0.0
H732 H 0.33733 0.94898 0.67411 0.0
H733 H 0.32294 0.93163 0.65358 0.0
H734 H 0.2759 0.92774 0.667 0.0
H735 H 0.25992 0.98337 0.64864 0.0
H736 H 0.30685 0.9875 0.63524 0.0
H737 H 0.31049 0.04294 0.64333 0.0
H738 H 0.47306 0.13618 0.67657 0.0
H739 H 0.52275 0.13386 0.65395 0.0
H740 H 0.39384 0.00459 0.63504 0.0
C741 C 0.28016 0.02144 0.6816 0.0
C742 C 0.28266 0.05473 0.69354 0.0
C743 C 0.32902 0.09376 0.6985 0.0
C744 C 0.37252 0.1006 0.69134 0.0
C745 C 0.36893 0.06803 0.67926 0.0
C746 C 0.32397 0.02907 0.67445 0.0
C747 C 0.3299 0.00286 0.66004 0.0
C748 C 0.31568 0.94964 0.66392 0.0
C749 C 0.30004 0.0043 0.64599 0.0
C750 C 0.3848 0.03435 0.65716 0.0
C751 C 0.40677 0.07118 0.66854 0.0
C752 C 0.45647 0.10702 0.66772 0.0
C753 C 0.48431 0.10563 0.65479 0.0
C754 C 0.46224 0.06888 0.6428 0.0
C755 C 0.41205 0.03236 0.64422 0.0
H756 H 0.2888 0.27472 0.02096 0.0
H757 H 0.31288 0.15095 0.01373 0.0
H758 H 0.37967 0.19964 0.99459 0.0
H759 H 0.3015 0.30949 0.98199 0.0
H760 H 0.33281 0.375 0.98592 0.0
H761 H 0.2919 0.33306 0.00053 0.0
H762 H 0.36191 0.37031 0.02126 0.0
H763 H 0.40304 0.41284 0.00674 0.0
H764 H 0.41967 0.37315 0.01678 0.0
H765 H 0.43618 0.25832 0.97387 0.0
H766 H 0.48053 0.32325 0.95417 0.0
H767 H 0.42066 0.40931 0.97572 0.0
C768 C 0.3088 0.25825 0.01556 0.0
C769 C 0.29595 0.20925 0.01879 0.0
C770 C 0.32273 0.18872 0.01152 0.0
C771 C 0.36051 0.21602 0.00062 0.0
C772 C 0.37132 0.26387 0.99734 0.0
C773 C 0.34665 0.28501 0.00477 0.0
C774 C 0.36312 0.33586 -0.00143 0.0
C775 C 0.31975 0.33846 0.99132 0.0
C776 C 0.38845 0.37538 0.01161 0.0
C777 C 0.39959 0.3394 0.98604 0.0
C778 C 0.40422 0.29778 0.98559 0.0
C779 C 0.43362 0.29151 0.97433 0.0
C780 C 0.4588 0.32871 0.96322 0.0
C781 C 0.45434 0.37158 0.96343 0.0
C782 C 0.4247 0.37695 0.97515 0.0
H783 H 0.04886 0.21528 0.33204 0.0
H784 H 0.08725 0.30572 0.37477 0.0
H785 H 0.09717 0.37615 0.35921 0.0
H786 H 0.13229 0.31051 0.30554 0.0
H787 H 0.08942 0.28848 0.28933 0.0
H788 H 0.08699 0.24592 0.30378 0.0
H789 H 0.99505 0.21728 0.30928 0.0
H790 H 0.9972 0.25975 0.29487 0.0
H791 H 0.97753 0.2623 0.31484 0.0
H792 H 0.10333 0.43667 0.33889 0.0
H793 H 0.10073 0.48151 0.31554 0.0
H794 H 0.05613 0.35054 0.28631 0.0
C795 C 0.05976 0.25007 0.33807 0.0
C796 C 0.06751 0.25531 0.35457 0.0
C797 C 0.08092 0.30105 0.36214 0.0
C798 C 0.08686 0.34122 0.3534 0.0
C799 C 0.07886 0.33482 0.33714 0.0
C800 C 0.06529 0.29031 0.32957 0.0
C801 C 0.0572 0.29256 0.31208 0.0
C802 C 0.09366 0.28386 0.3021 0.0
C803 C 0.00356 0.2558 0.30751 0.0
C804 C 0.0683 0.34529 0.31099 0.0
C805 C 0.08114 0.36921 0.32554 0.0
C806 C 0.09329 0.41832 0.32744 0.0
C807 C 0.09192 0.44352 0.31413 0.0
C808 C 0.07809 0.4194 0.29917 0.0
C809 C 0.06632 0.36971 0.29764 0.0
loop_
_geom_bond_atom_site_label_1
_geom_bond_atom_site_label_2
_geom_bond_distance
_geom_bond_site_symmetry_2
_ccdc_geom_bond_type
Li0 N17 1.990 . S
Li0 O60 1.956 . S
Li0 O61 1.970 . S
Li0 O62 1.961 . S
Li1 N25 1.990 . S
Li1 O60 1.970 . S
Li1 O61 1.956 . S
Li1 O63 1.961 . S
Li2 N47 1.990 1_545 S
Li2 O60 1.961 . S
Li2 O62 1.956 . S
Li2 O63 1.970 . S
Li3 N53 1.990 1_445 S
Li3 O61 1.961 . S
Li3 O62 1.970 . S
Li3 O63 1.956 . S
C4 C6 1.348 . S
C4 C7 1.356 . S
C4 O60 1.325 . S
N5 C8 1.314 . S
N5 C9 1.279 . S
C6 C4 1.348 . S
C6 C8 1.353 . S
C6 H64 0.929 . S
C7 C4 1.356 . S
C7 C9 1.358 . S
C7 H65 0.930 . S
C8 N5 1.314 . S
C8 C6 1.353 . S
C8 H66 0.930 . S
C9 N5 1.279 . S
C9 C7 1.358 . S
C9 H67 0.930 . S
C10 C13 1.348 . S
C10 C14 1.356 1_455 S
C10 O61 1.325 . S
C11 N12 1.279 1_655 S
C11 C14 1.358 . S
C11 H68 0.930 . S
N12 C11 1.279 1_455 S
N12 C15 1.314 . S
C13 C10 1.348 . S
C13 C15 1.353 . S
C13 H69 0.929 . S
C14 C10 1.356 1_655 S
C14 C11 1.358 . S
C14 H70 0.930 . S
C15 N12 1.314 . S
C15 C13 1.353 . S
C15 H71 0.930 . S
C16 N17 1.314 . S
C16 C21 1.353 . S
C16 H22 0.930 . S
N17 Li0 1.990 . S
N17 C16 1.314 . S
N17 C19 1.279 . S
C18 C19 1.358 . S
C18 C20 1.356 . S
C18 H72 0.930 . S
C19 N17 1.279 . S
C19 C18 1.358 . S
C19 H23 0.930 . S
C20 C18 1.356 . S
C20 C21 1.348 . S
C21 C16 1.353 . S
C21 C20 1.348 . S
C21 H73 0.929 . S
H22 C16 0.930 . S
H23 C19 0.930 . S
C24 N25 1.314 . S
C24 C26 1.353 . S
C24 H30 0.930 . S
N25 Li1 1.990 . S
N25 C24 1.314 . S
N25 C28 1.279 . S
C26 C24 1.353 . S
C26 C29 1.348 . S
C26 H74 0.929 1_455 S
C27 C28 1.358 . S
C27 C29 1.356 . S
C27 H75 0.930 . S
C28 N25 1.279 . S
C28 C27 1.358 . S
C28 H31 0.930 . S
C29 C26 1.348 . S
C29 C27 1.356 . S
H30 C24 0.930 . S
H31 C28 0.930 . S
C32 C34 1.348 . S
C32 C35 1.356 . S
C32 O62 1.325 1_565 S
N33 C36 1.314 . S
N33 C37 1.279 . S
C34 C32 1.348 . S
C34 C36 1.353 . S
C34 H76 0.929 . S
C35 C32 1.356 . S
C35 C37 1.358 . S
C35 H77 0.930 1_565 S
C36 N33 1.314 . S
C36 C34 1.353 . S
C36 H78 0.930 . S
C37 N33 1.279 . S
C37 C35 1.358 . S
C37 H79 0.930 . S
C38 C39 1.348 . S
C38 C40 1.356 . S
C38 O63 1.325 1_665 S
C39 C38 1.348 . S
C39 C41 1.353 . S
C39 H80 0.929 . S
C40 C38 1.356 . S
C40 C42 1.358 . S
C40 H81 0.930 1_565 S
C41 C39 1.353 . S
C41 N43 1.314 . S
C41 H82 0.930 . S
C42 C40 1.358 . S
C42 N43 1.279 . S
C42 H83 0.930 . S
N43 C41 1.314 . S
N43 C42 1.279 . S
C44 C46 1.353 . S
C44 N47 1.314 . S
C44 H50 0.930 1_565 S
C45 N47 1.279 . S
C45 C48 1.358 . S
C45 H51 0.930 . S
C46 C44 1.353 . S
C46 C49 1.348 . S
C46 H84 0.929 . S
N47 Li2 1.990 1_565 S
N47 C44 1.314 . S
N47 C45 1.279 . S
C48 C45 1.358 . S
C48 C49 1.356 . S
C48 H85 0.930 . S
C49 C46 1.348 . S
C49 C48 1.356 . S
H50 C44 0.930 1_545 S
H51 C45 0.930 . S
C52 N53 1.314 . S
C52 C54 1.353 . S
C52 H58 0.930 1_565 S
N53 Li3 1.990 1_665 S
N53 C52 1.314 . S
N53 C56 1.279 . S
C54 C52 1.353 . S
C54 C57 1.348 . S
C54 H86 0.929 . S
C55 C56 1.358 . S
C55 C57 1.356 . S
C55 H87 0.930 . S
C56 N53 1.279 . S
C56 C55 1.358 . S
C56 H59 0.930 . S
C57 C54 1.348 . S
C57 C55 1.356 . S
H58 C52 0.930 1_545 S
H59 C56 0.930 . S
O60 Li0 1.956 . S
O60 Li1 1.970 . S
O60 Li2 1.961 . S
O60 C4 1.325 . S
O61 Li0 1.970 . S
O61 Li1 1.956 . S
O61 Li3 1.961 . S
O61 C10 1.325 . S
O62 Li0 1.961 . S
O62 Li2 1.956 . S
O62 Li3 1.970 . S
O62 C32 1.325 1_545 S
O63 Li1 1.961 . S
O63 Li2 1.970 . S
O63 Li3 1.956 . S
O63 C38 1.325 1_445 S
H64 C6 0.929 . S
H65 C7 0.930 . S
H66 C8 0.930 . S
H67 C9 0.930 . S
H68 C11 0.930 . S
H69 C13 0.929 . S
H70 C14 0.930 . S
H71 C15 0.930 . S
H72 C18 0.930 . S
H73 C21 0.929 . S
H74 C26 0.929 1_655 S
H75 C27 0.930 . S
H76 C34 0.929 . S
H77 C35 0.930 1_545 S
H78 C36 0.930 . S
H79 C37 0.930 . S
H80 C39 0.929 . S
H81 C40 0.930 1_545 S
H82 C41 0.930 . S
H83 C42 0.930 . S
H84 C46 0.929 . S
H85 C48 0.930 . S
H86 C54 0.929 . S
H87 C55 0.930 . S
Li88 N105 1.990 . S
Li88 O148 1.956 . S
Li88 O149 1.970 1_565 S
Li88 O150 1.961 1_465 S
Li89 N113 1.990 . S
Li89 O148 1.970 1_545 S
Li89 O149 1.956 . S
Li89 O151 1.961 . S
Li90 N135 1.982 1_445 S
Li90 O148 1.969 1_545 S
Li90 O150 1.956 1_455 S
Li90 O151 1.975 . S
Li91 N141 1.990 . S
Li91 O149 1.961 . S
Li91 O150 1.970 1_455 S
Li91 O151 1.956 . S
C92 C94 1.348 . S
C92 C95 1.356 1_455 S
C92 O148 1.325 . S
N93 C96 1.314 . S
N93 C97 1.279 1_455 S
C94 C92 1.348 . S
C94 C96 1.353 . S
C94 H152 0.929 . S
C95 C92 1.356 1_655 S
C95 C97 1.358 . S
C95 H153 0.930 . S
C96 N93 1.314 . S
C96 C94 1.353 . S
C96 H154 0.930 . S
C97 N93 1.279 1_655 S
C97 C95 1.358 . S
C97 H155 0.930 . S
C98 C101 1.348 . S
C98 C102 1.356 . S
C98 O149 1.325 . S
C99 N100 1.279 . S
C99 C102 1.358 . S
C99 H156 0.930 . S
N100 C99 1.279 . S
N100 C103 1.314 . S
C101 C98 1.348 . S
C101 C103 1.353 . S
C101 H157 0.929 1_545 S
C102 C98 1.356 . S
C102 C99 1.358 . S
C102 H158 0.930 . S
C103 N100 1.314 . S
C103 C101 1.353 . S
C103 H159 0.930 1_545 S
C104 N105 1.314 . S
C104 C109 1.353 1_455 S
C104 H110 0.930 . S
N105 Li88 1.990 . S
N105 C104 1.314 . S
N105 C107 1.279 . S
C106 C107 1.358 . S
C106 C108 1.356 1_455 S
C106 H160 0.930 . S
C107 N105 1.279 . S
C107 C106 1.358 . S
C107 H111 0.930 . S
C108 C106 1.356 1_655 S
C108 C109 1.348 . S
C109 C104 1.353 1_655 S
C109 C108 1.348 . S
C109 H161 0.929 . S
H110 C104 0.930 . S
H111 C107 0.930 . S
C112 N113 1.314 . S
C112 C114 1.353 . S
C112 H118 0.930 . S
N113 Li89 1.990 . S
N113 C112 1.314 . S
N113 C116 1.279 . S
C114 C112 1.353 . S
C114 C117 1.348 . S
C114 H162 0.929 . S
C115 C116 1.358 . S
C115 C117 1.356 . S
C115 H163 0.930 . S
C116 N113 1.279 . S
C116 C115 1.358 . S
C116 H119 0.930 . S
C117 C114 1.348 . S
C117 C115 1.356 . S
H118 C112 0.930 . S
H119 C116 0.930 . S
C120 C122 1.348 1_565 S
C120 C123 1.356 . S
C120 O150 1.325 1_565 S
N121 C124 1.314 1_565 S
N121 C125 1.279 . S
C122 C120 1.348 1_545 S
C122 C124 1.353 . S
C122 H164 0.929 . S
C123 C120 1.356 . S
C123 C125 1.358 . S
C123 H165 0.930 . S
C124 N121 1.314 1_545 S
C124 C122 1.353 . S
C124 H166 0.930 . S
C125 N121 1.279 . S
C125 C123 1.358 . S
C125 H167 0.930 . S
C126 C127 1.348 . S
C126 C128 1.356 . S
C126 O151 1.325 . S
C127 C126 1.348 . S
C127 C129 1.353 . S
C127 H168 0.929 . S
C128 C126 1.356 . S
C128 C130 1.358 . S
C128 H169 0.930 . S
C129 C127 1.353 . S
C129 N131 1.314 . S
C129 H170 0.930 . S
C130 C128 1.358 . S
C130 N131 1.279 . S
C130 H171 0.930 . S
N131 C129 1.314 . S
N131 C130 1.279 . S
C132 C134 1.353 . S
C132 N135 1.314 . S
C132 H138 0.930 . S
C133 N135 1.279 . S
C133 C136 1.358 . S
C133 H139 0.930 . S
C134 C132 1.353 . S
C134 C137 1.348 . S
C134 H172 0.929 . S
N135 Li90 1.982 1_665 S
N135 C132 1.314 . S
N135 C133 1.279 . S
C136 C133 1.358 . S
C136 C137 1.356 . S
C136 H173 0.930 . S
C137 C134 1.348 . S
C137 C136 1.356 . S
H138 C132 0.930 . S
H139 C133 0.930 . S
C140 N141 1.314 . S
C140 C142 1.353 . S
C140 H146 0.930 . S
N141 Li91 1.990 . S
N141 C140 1.314 . S
N141 C144 1.279 . S
C142 C140 1.353 . S
C142 C145 1.348 . S
C142 H174 0.929 . S
C143 C144 1.358 . S
C143 C145 1.356 . S
C143 H175 0.930 . S
C144 N141 1.279 . S
C144 C143 1.358 . S
C144 H147 0.930 . S
C145 C142 1.348 . S
C145 C143 1.356 . S
H146 C140 0.930 . S
H147 C144 0.930 . S
O148 Li88 1.956 . S
O148 Li89 1.970 1_565 S
O148 Li90 1.969 1_565 S
O148 C92 1.325 . S
O149 Li88 1.970 1_545 S
O149 Li89 1.956 . S
O149 Li91 1.961 . S
O149 C98 1.325 . S
O150 Li88 1.961 1_645 S
O150 Li90 1.956 1_655 S
O150 Li91 1.970 1_655 S
O150 C120 1.325 1_545 S
O151 Li89 1.961 . S
O151 Li90 1.975 . S
O151 Li91 1.956 . S
O151 C126 1.325 . S
H152 C94 0.929 . S
H153 C95 0.930 . S
H154 C96 0.930 . S
H155 C97 0.930 . S
H156 C99 0.930 . S
H157 C101 0.929 1_565 S
H158 C102 0.930 . S
H159 C103 0.930 1_565 S
H160 C106 0.930 . S
H161 C109 0.929 . S
H162 C114 0.929 . S
H163 C115 0.930 . S
H164 C122 0.929 . S
H165 C123 0.930 . S
H166 C124 0.930 . S
H167 C125 0.930 . S
H168 C127 0.929 . S
H169 C128 0.930 . S
H170 C129 0.930 . S
H171 C130 0.930 . S
H172 C134 0.929 . S
H173 C136 0.930 . S
H174 C142 0.929 . S
H175 C143 0.930 . S
Li176 N193 1.990 . S
Li176 O236 1.956 . S
Li176 O237 1.970 . S
Li176 O238 1.961 . S
Li177 N201 1.990 . S
Li177 O236 1.970 . S
Li177 O237 1.956 . S
Li177 O239 1.961 . S
Li178 N223 1.990 1_545 S
Li178 O236 1.961 . S
Li178 O238 1.956 . S
Li178 O239 1.970 . S
Li179 N229 1.990 . S
Li179 O237 1.961 . S
Li179 O238 1.970 . S
Li179 O239 1.956 . S
C180 C182 1.348 . S
C180 C183 1.356 . S
C180 O236 1.325 . S
N181 C184 1.314 . S
N181 C185 1.279 . S
C182 C180 1.348 . S
C182 C184 1.353 . S
C182 H240 0.929 . S
C183 C180 1.356 . S
C183 C185 1.358 . S
C183 H241 0.930 1_545 S
C184 N181 1.314 . S
C184 C182 1.353 . S
C184 H242 0.930 . S
C185 N181 1.279 . S
C185 C183 1.358 . S
C185 H243 0.930 1_545 S
C186 C189 1.348 . S
C186 C190 1.356 . S
C186 O237 1.325 . S
C187 N188 1.279 . S
C187 C190 1.358 . S
C187 H244 0.930 . S
N188 C187 1.279 . S
N188 C191 1.314 . S
C189 C186 1.348 . S
C189 C191 1.353 . S
C189 H245 0.929 . S
C190 C186 1.356 . S
C190 C187 1.358 . S
C190 H246 0.930 . S
C191 N188 1.314 . S
C191 C189 1.353 . S
C191 H247 0.930 . S
C192 N193 1.314 . S
C192 C197 1.353 . S
C192 H198 0.930 . S
N193 Li176 1.990 . S
N193 C192 1.314 . S
N193 C195 1.279 . S
C194 C195 1.358 . S
C194 C196 1.356 . S
C194 H248 0.930 . S
C195 N193 1.279 . S
C195 C194 1.358 . S
C195 H199 0.930 . S
C196 C194 1.356 . S
C196 C197 1.348 . S
C197 C192 1.353 . S
C197 C196 1.348 . S
C197 H249 0.929 . S
H198 C192 0.930 . S
H199 C195 0.930 . S
C200 N201 1.314 . S
C200 C202 1.353 . S
C200 H206 0.930 . S
N201 Li177 1.990 . S
N201 C200 1.314 . S
N201 C204 1.279 . S
C202 C200 1.353 . S
C202 C205 1.348 . S
C202 H250 0.929 . S
C203 C204 1.358 . S
C203 C205 1.356 . S
C203 H251 0.930 . S
C204 N201 1.279 . S
C204 C203 1.358 . S
C204 H207 0.930 . S
C205 C202 1.348 . S
C205 C203 1.356 . S
H206 C200 0.930 . S
H207 C204 0.930 . S
C208 C210 1.348 . S
C208 C211 1.356 . S
C208 O238 1.325 1_565 S
N209 C212 1.314 . S
N209 C213 1.279 1_655 S
C210 C208 1.348 . S
C210 C212 1.353 1_455 S
C210 H252 0.929 1_465 S
C211 C208 1.356 . S
C211 C213 1.358 . S
C211 H253 0.930 . S
C212 N209 1.314 . S
C212 C210 1.353 1_655 S
C212 H254 0.930 . S
C213 N209 1.279 1_455 S
C213 C211 1.358 . S
C213 H255 0.930 . S
C214 C215 1.348 . S
C214 C216 1.356 . S
C214 O239 1.325 . S
C215 C214 1.348 . S
C215 C217 1.353 1_455 S
C215 H256 0.929 1_455 S
C216 C214 1.356 . S
C216 C218 1.358 . S
C216 H257 0.930 . S
C217 C215 1.353 1_655 S
C217 N219 1.314 . S
C217 H258 0.930 . S
C218 C216 1.358 . S
C218 N219 1.279 1_455 S
C218 H259 0.930 . S
N219 C217 1.314 . S
N219 C218 1.279 1_655 S
C220 C222 1.353 . S
C220 N223 1.314 . S
C220 H226 0.930 1_565 S
C221 N223 1.279 1_655 S
C221 C224 1.358 . S
C221 H227 0.930 . S
C222 C220 1.353 . S
C222 C225 1.348 1_455 S
C222 H260 0.929 . S
N223 Li178 1.990 1_565 S
N223 C220 1.314 . S
N223 C221 1.279 1_455 S
C224 C221 1.358 . S
C224 C225 1.356 . S
C224 H261 0.930 . S
C225 C222 1.348 1_655 S
C225 C224 1.356 . S
H226 C220 0.930 1_545 S
H227 C221 0.930 . S
C228 N229 1.314 . S
C228 C230 1.353 . S
C228 H234 0.930 . S
N229 Li179 1.990 . S
N229 C228 1.314 . S
N229 C232 1.279 1_455 S
C230 C228 1.353 . S
C230 C233 1.348 1_455 S
C230 H262 0.929 . S
C231 C232 1.358 . S
C231 C233 1.356 . S
C231 H263 0.930 . S
C232 N229 1.279 1_655 S
C232 C231 1.358 . S
C232 H235 0.930 . S
C233 C230 1.348 1_655 S
C233 C231 1.356 . S
H234 C228 0.930 . S
H235 C232 0.930 . S
O236 Li176 1.956 . S
O236 Li177 1.970 . S
O236 Li178 1.961 . S
O236 C180 1.325 . S
O237 Li176 1.970 . S
O237 Li177 1.956 . S
O237 Li179 1.961 . S
O237 C186 1.325 . S
O238 Li176 1.961 . S
O238 Li178 1.956 . S
O238 Li179 1.970 . S
O238 C208 1.325 1_545 S
O239 Li177 1.961 . S
O239 Li178 1.970 . S
O239 Li179 1.956 . S
O239 C214 1.325 . S
H240 C182 0.929 . S
H241 C183 0.930 1_565 S
H242 C184 0.930 . S
H243 C185 0.930 1_565 S
H244 C187 0.930 . S
H245 C189 0.929 . S
H246 C190 0.930 . S
H247 C191 0.930 . S
H248 C194 0.930 . S
H249 C197 0.929 . S
H250 C202 0.929 . S
H251 C203 0.930 . S
H252 C210 0.929 1_645 S
H253 C211 0.930 . S
H254 C212 0.930 . S
H255 C213 0.930 . S
H256 C215 0.929 1_655 S
H257 C216 0.930 . S
H258 C217 0.930 . S
H259 C218 0.930 . S
H260 C222 0.929 . S
H261 C224 0.930 . S
H262 C230 0.929 . S
H263 C231 0.930 . S
H264 O290 0.856 . S
H265 O293 0.854 . S
H266 C301 0.930 1_655 S
H267 C302 0.914 1_655 S
H268 C304 0.930 . S
H269 C305 0.930 . S
H270 C307 0.931 . S
H271 C308 0.930 . S
H272 C310 0.930 . S
H273 C311 0.929 . S
H274 C313 0.912 1_655 S
H275 C314 0.931 . S
H276 C316 0.930 . S
H277 C317 0.929 . S
H278 C319 0.931 1_655 S
H279 C320 0.930 1_655 S
H280 C322 0.930 . S
H281 C323 0.932 . S
H282 C325 0.930 1_655 S
H283 C326 0.946 . S
H284 C328 0.931 . S
H285 C329 0.930 . S
H286 C331 0.929 1_655 S
H287 C332 0.931 1_655 S
H288 C334 0.930 . S
H289 C335 0.929 . S
O290 H264 0.856 . S
O290 C336 1.300 . S
O291 C336 1.209 . S
O292 C337 1.199 . S
O293 H265 0.854 . S
O293 C337 1.297 . S
C294 C295 1.404 . S
C294 C299 1.397 . S
C294 C300 1.492 . S
C295 C294 1.404 . S
C295 C296 1.396 . S
C295 C306 1.492 . S
C296 C295 1.396 . S
C296 C297 1.397 . S
C296 C312 1.509 . S
C297 C296 1.397 . S
C297 C298 1.412 . S
C297 C318 1.485 . S
C298 C297 1.412 . S
C298 C299 1.388 . S
C298 C324 1.490 . S
C299 C294 1.397 . S
C299 C298 1.388 . S
C299 C330 1.519 . S
C300 C294 1.492 . S
C300 C301 1.363 . S
C300 C305 1.390 . S
C301 H266 0.930 1_455 S
C301 C300 1.363 . S
C301 C302 1.364 . S
C302 H267 0.914 1_455 S
C302 C301 1.364 . S
C302 C303 1.408 . S
C303 C302 1.408 . S
C303 C304 1.395 . S
C304 H268 0.930 . S
C304 C303 1.395 . S
C304 C305 1.362 . S
C305 H269 0.930 . S
C305 C300 1.390 . S
C305 C304 1.362 . S
C306 C295 1.492 . S
C306 C307 1.377 . S
C306 C311 1.397 . S
C307 H270 0.931 . S
C307 C306 1.377 . S
C307 C308 1.376 . S
C308 H271 0.930 . S
C308 C307 1.376 . S
C308 C309 1.376 . S
C309 C308 1.376 . S
C309 C310 1.378 . S
C309 C336 1.486 . S
C310 H272 0.930 . S
C310 C309 1.378 . S
C310 C311 1.376 . S
C311 H273 0.929 . S
C311 C306 1.397 . S
C311 C310 1.376 . S
C312 C296 1.509 . S
C312 C313 1.391 . S
C312 C317 1.386 . S
C313 H274 0.912 1_455 S
C313 C312 1.391 . S
C313 C314 1.375 . S
C314 H275 0.931 . S
C314 C313 1.375 . S
C314 C315 1.375 . S
C315 C314 1.375 . S
C315 C316 1.361 . S
C316 H276 0.930 . S
C316 C315 1.361 . S
C316 C317 1.399 . S
C317 H277 0.929 . S
C317 C312 1.386 . S
C317 C316 1.399 . S
C318 C297 1.485 . S
C318 C319 1.394 . S
C318 C323 1.360 . S
C319 H278 0.931 1_455 S
C319 C318 1.394 . S
C319 C320 1.372 . S
C320 H279 0.930 1_455 S
C320 C319 1.372 . S
C320 C321 1.397 . S
C321 C320 1.397 . S
C321 C322 1.390 . S
C321 C337 1.476 . S
C322 H280 0.930 . S
C322 C321 1.390 . S
C322 C323 1.366 . S
C323 H281 0.932 . S
C323 C318 1.360 . S
C323 C322 1.366 . S
C324 C298 1.490 . S
C324 C325 1.380 . S
C324 C329 1.386 . S
C325 H282 0.930 1_455 S
C325 C324 1.380 . S
C325 C326 1.375 1_455 S
C326 H283 0.946 . S
C326 C325 1.375 1_655 S
C326 C327 1.361 1_655 S
C327 C326 1.361 1_455 S
C327 C328 1.380 . S
C328 H284 0.931 . S
C328 C327 1.380 . S
C328 C329 1.387 . S
C329 H285 0.930 . S
C329 C324 1.386 . S
C329 C328 1.387 . S
C330 C299 1.519 . S
C330 C331 1.377 . S
C330 C335 1.361 . S
C331 H286 0.929 1_455 S
C331 C330 1.377 . S
C331 C332 1.386 . S
C332 H287 0.931 1_455 S
C332 C331 1.386 . S
C332 C333 1.363 . S
C333 C332 1.363 . S
C333 C334 1.385 . S
C334 H288 0.930 . S
C334 C333 1.385 . S
C334 C335 1.396 . S
C335 H289 0.929 . S
C335 C330 1.361 . S
C335 C334 1.396 . S
C336 O290 1.300 . S
C336 O291 1.209 . S
C336 C309 1.486 . S
C337 O292 1.199 . S
C337 O293 1.297 . S
C337 C321 1.476 . S
H338 O364 0.856 . S
H339 O367 0.854 . S
H340 C375 0.930 1_565 S
H341 C376 0.930 1_565 S
H342 C378 0.930 . S
H343 C379 0.930 . S
H344 C381 0.931 . S
H345 C382 0.930 . S
H346 C384 0.930 . S
H347 C385 0.929 . S
H348 C387 0.930 . S
H349 C388 0.931 . S
H350 C390 0.930 . S
H351 C391 0.929 . S
H352 C393 0.931 . S
H353 C394 0.930 . S
H354 C396 0.930 . S
H355 C397 0.932 . S
H356 C399 0.929 1_565 S
H357 C400 0.929 1_565 S
H358 C402 0.931 . S
H359 C403 0.930 . S
H360 C405 0.929 . S
H361 C406 0.931 . S
H362 C408 0.930 . S
H363 C409 0.929 . S
O364 H338 0.856 . S
O364 C410 1.300 . S
O365 C410 1.209 . S
O366 C411 1.199 . S
O367 H339 0.854 . S
O367 C411 1.297 . S
C368 C369 1.404 . S
C368 C373 1.397 . S
C368 C374 1.492 . S
C369 C368 1.404 . S
C369 C370 1.396 . S
C369 C380 1.492 . S
C370 C369 1.396 . S
C370 C371 1.397 . S
C370 C386 1.509 . S
C371 C370 1.397 . S
C371 C372 1.412 . S
C371 C392 1.485 . S
C372 C371 1.412 . S
C372 C373 1.388 . S
C372 C398 1.490 . S
C373 C368 1.397 . S
C373 C372 1.388 . S
C373 C404 1.519 . S
C374 C368 1.492 . S
C374 C375 1.363 . S
C374 C379 1.390 . S
C375 H340 0.930 1_545 S
C375 C374 1.363 . S
C375 C376 1.372 . S
C376 H341 0.930 1_545 S
C376 C375 1.372 . S
C376 C377 1.383 . S
C377 C376 1.383 . S
C377 C378 1.395 . S
C378 H342 0.930 . S
C378 C377 1.395 . S
C378 C379 1.362 . S
C379 H343 0.930 . S
C379 C374 1.390 . S
C379 C378 1.362 . S
C380 C369 1.492 . S
C380 C381 1.377 . S
C380 C385 1.397 . S
C381 H344 0.931 . S
C381 C380 1.377 . S
C381 C382 1.376 . S
C382 H345 0.930 . S
C382 C381 1.376 . S
C382 C383 1.376 . S
C383 C382 1.376 . S
C383 C384 1.378 . S
C383 C410 1.486 . S
C384 H346 0.930 . S
C384 C383 1.378 . S
C384 C385 1.376 . S
C385 H347 0.929 . S
C385 C380 1.397 . S
C385 C384 1.376 . S
C386 C370 1.509 . S
C386 C387 1.391 . S
C386 C391 1.386 . S
C387 H348 0.930 . S
C387 C386 1.391 . S
C387 C388 1.375 . S
C388 H349 0.931 . S
C388 C387 1.375 . S
C388 C389 1.375 . S
C389 C388 1.375 . S
C389 C390 1.361 . S
C390 H350 0.930 . S
C390 C389 1.361 . S
C390 C391 1.399 . S
C391 H351 0.929 . S
C391 C386 1.386 . S
C391 C390 1.399 . S
C392 C371 1.485 . S
C392 C393 1.394 . S
C392 C397 1.360 . S
C393 H352 0.931 . S
C393 C392 1.394 . S
C393 C394 1.372 . S
C394 H353 0.930 . S
C394 C393 1.372 . S
C394 C395 1.397 . S
C395 C394 1.397 . S
C395 C396 1.390 . S
C395 C411 1.476 . S
C396 H354 0.930 . S
C396 C395 1.390 . S
C396 C397 1.366 . S
C397 H355 0.932 . S
C397 C392 1.360 . S
C397 C396 1.366 . S
C398 C372 1.490 . S
C398 C399 1.380 . S
C398 C403 1.386 . S
C399 H356 0.929 1_545 S
C399 C398 1.380 . S
C399 C400 1.381 . S
C400 H357 0.929 1_545 S
C400 C399 1.381 . S
C400 C401 1.371 . S
C401 C400 1.371 . S
C401 C402 1.380 . S
C402 H358 0.931 . S
C402 C401 1.380 . S
C402 C403 1.387 . S
C403 H359 0.930 . S
C403 C398 1.386 . S
C403 C402 1.387 . S
C404 C373 1.519 . S
C404 C405 1.377 . S
C404 C409 1.361 . S
C405 H360 0.929 . S
C405 C404 1.377 . S
C405 C406 1.386 . S
C406 H361 0.931 . S
C406 C405 1.386 . S
C406 C407 1.363 . S
C407 C406 1.363 . S
C407 C408 1.385 . S
C408 H362 0.930 . S
C408 C407 1.385 . S
C408 C409 1.396 . S
C409 H363 0.929 . S
C409 C404 1.361 . S
C409 C408 1.396 . S
C410 O364 1.300 . S
C410 O365 1.209 . S
C410 C383 1.486 . S
C411 O366 1.199 . S
C411 O367 1.297 . S
C411 C395 1.476 . S
H412 O438 0.856 . S
H413 O441 0.854 . S
H414 C449 0.930 . S
H415 C450 0.930 . S
H416 C452 0.930 . S
H417 C453 0.930 . S
H418 C455 0.931 . S
H419 C456 0.930 . S
H420 C458 0.930 . S
H421 C459 0.929 . S
H422 C461 0.930 . S
H423 C462 0.931 . S
H424 C464 0.930 . S
H425 C465 0.929 . S
H426 C467 0.931 . S
H427 C468 0.930 . S
H428 C470 0.930 . S
H429 C471 0.932 . S
H430 C473 0.930 . S
H431 C474 0.929 . S
H432 C476 0.931 . S
H433 C477 0.930 . S
H434 C479 0.929 . S
H435 C480 0.931 . S
H436 C482 0.930 . S
H437 C483 0.929 . S
O438 H412 0.856 . S
O438 C484 1.300 1_554 S
O439 C484 1.191 1_554 S
O440 C485 1.199 . S
O441 H413 0.854 . S
O441 C485 1.297 . S
C442 C443 1.404 . S
C442 C447 1.397 . S
C442 C448 1.492 . S
C443 C442 1.404 . S
C443 C444 1.396 . S
C443 C454 1.492 . S
C444 C443 1.396 . S
C444 C445 1.397 . S
C444 C460 1.509 . S
C445 C444 1.397 . S
C445 C446 1.412 . S
C445 C466 1.485 . S
C446 C445 1.412 . S
C446 C447 1.388 . S
C446 C472 1.490 . S
C447 C442 1.397 . S
C447 C446 1.388 . S
C447 C478 1.519 . S
C448 C442 1.492 . S
C448 C449 1.363 . S
C448 C453 1.390 . S
C449 H414 0.930 . S
C449 C448 1.363 . S
C449 C450 1.372 . S
C450 H415 0.930 . S
C450 C449 1.372 . S
C450 C451 1.383 . S
C451 C450 1.383 . S
C451 C452 1.395 . S
C452 H416 0.930 . S
C452 C451 1.395 . S
C452 C453 1.362 . S
C453 H417 0.930 . S
C453 C448 1.390 . S
C453 C452 1.362 . S
C454 C443 1.492 . S
C454 C455 1.377 . S
C454 C459 1.397 . S
C455 H418 0.931 . S
C455 C454 1.377 . S
C455 C456 1.376 . S
C456 H419 0.930 . S
C456 C455 1.376 . S
C456 C457 1.376 . S
C457 C456 1.376 . S
C457 C458 1.378 . S
C457 C484 1.486 . S
C458 H420 0.930 . S
C458 C457 1.378 . S
C458 C459 1.376 . S
C459 H421 0.929 . S
C459 C454 1.397 . S
C459 C458 1.376 . S
C460 C444 1.509 . S
C460 C461 1.391 . S
C460 C465 1.386 . S
C461 H422 0.930 . S
C461 C460 1.391 . S
C461 C462 1.375 . S
C462 H423 0.931 . S
C462 C461 1.375 . S
C462 C463 1.375 . S
C463 C462 1.375 . S
C463 C464 1.361 . S
C464 H424 0.930 . S
C464 C463 1.361 . S
C464 C465 1.399 . S
C465 H425 0.929 . S
C465 C460 1.386 . S
C465 C464 1.399 . S
C466 C445 1.485 . S
C466 C467 1.394 . S
C466 C471 1.360 . S
C467 H426 0.931 . S
C467 C466 1.394 . S
C467 C468 1.372 . S
C468 H427 0.930 . S
C468 C467 1.372 . S
C468 C469 1.397 . S
C469 C468 1.397 . S
C469 C470 1.390 . S
C469 C485 1.476 . S
C470 H428 0.930 . S
C470 C469 1.390 . S
C470 C471 1.366 . S
C471 H429 0.932 . S
C471 C466 1.360 . S
C471 C470 1.366 . S
C472 C446 1.490 . S
C472 C473 1.380 . S
C472 C477 1.386 . S
C473 H430 0.930 . S
C473 C472 1.380 . S
C473 C474 1.381 . S
C474 H431 0.929 . S
C474 C473 1.381 . S
C474 C475 1.371 . S
C475 C474 1.371 . S
C475 C476 1.380 . S
C476 H432 0.931 . S
C476 C475 1.380 . S
C476 C477 1.387 . S
C477 H433 0.930 . S
C477 C472 1.386 . S
C477 C476 1.387 . S
C478 C447 1.519 . S
C478 C479 1.377 . S
C478 C483 1.361 . S
C479 H434 0.929 . S
C479 C478 1.377 . S
C479 C480 1.386 . S
C480 H435 0.931 . S
C480 C479 1.386 . S
C480 C481 1.363 . S
C481 C480 1.363 . S
C481 C482 1.385 . S
C482 H436 0.930 . S
C482 C481 1.385 . S
C482 C483 1.396 . S
C483 H437 0.929 . S
C483 C478 1.361 . S
C483 C482 1.396 . S
C484 O438 1.300 1_556 S
C484 O439 1.191 1_556 S
C484 C457 1.486 . S
C485 O440 1.199 . S
C485 O441 1.297 . S
C485 C469 1.476 . S
H486 C498 0.930 . S
H487 C500 0.930 . S
H488 C501 0.930 . S
H489 C505 0.959 . S
H490 C505 0.959 . S
H491 C505 0.961 . S
H492 C506 0.960 . S
H493 C506 0.961 . S
H494 C506 0.959 1_455 S
H495 C509 0.929 . S
H496 C510 0.931 . S
H497 C512 0.930 1_655 S
C498 H486 0.930 . S
C498 C499 1.399 1_655 S
C498 C503 1.399 . S
C499 C498 1.399 1_455 S
C499 C500 1.376 . S
C500 H487 0.930 . S
C500 C499 1.376 . S
C500 C501 1.388 . S
C501 H488 0.930 . S
C501 C500 1.388 . S
C501 C502 1.390 . S
C502 C501 1.390 . S
C502 C503 1.394 1_455 S
C502 C508 1.465 . S
C503 C498 1.399 . S
C503 C502 1.394 1_655 S
C503 C504 1.516 . S
C504 C503 1.516 . S
C504 C505 1.502 . S
C504 C506 1.561 . S
C504 C507 1.526 1_655 S
C505 H489 0.959 . S
C505 H490 0.959 . S
C505 H491 0.961 . S
C505 C504 1.502 . S
C506 H492 0.960 . S
C506 H493 0.961 . S
C506 H494 0.959 1_655 S
C506 C504 1.561 . S
C507 C504 1.526 1_455 S
C507 C508 1.396 . S
C507 C512 1.390 . S
C508 C502 1.465 . S
C508 C507 1.396 . S
C508 C509 1.399 . S
C509 H495 0.929 . S
C509 C508 1.399 . S
C509 C510 1.385 . S
C510 H496 0.931 . S
C510 C509 1.385 . S
C510 C511 1.389 . S
C511 C510 1.389 . S
C511 C512 1.387 . S
C512 H497 0.930 1_455 S
C512 C507 1.390 . S
C512 C511 1.387 . S
H513 C525 0.930 . S
H514 C527 0.930 . S
H515 C528 0.930 . S
H516 C532 0.959 . S
H517 C532 0.959 . S
H518 C532 0.961 . S
H519 C533 0.960 . S
H520 C533 0.961 . S
H521 C533 0.959 . S
H522 C536 0.927 . S
H523 C537 0.931 . S
H524 C539 0.930 . S
C525 H513 0.930 . S
C525 C526 1.399 . S
C525 C530 1.399 . S
C526 C525 1.399 . S
C526 C527 1.376 . S
C527 H514 0.930 . S
C527 C526 1.376 . S
C527 C528 1.388 . S
C528 H515 0.930 . S
C528 C527 1.388 . S
C528 C529 1.390 . S
C529 C528 1.390 . S
C529 C530 1.394 . S
C529 C535 1.465 1_565 S
C530 C525 1.399 . S
C530 C529 1.394 . S
C530 C531 1.516 1_565 S
C531 C530 1.516 1_545 S
C531 C532 1.502 . S
C531 C533 1.561 1_545 S
C531 C534 1.526 . S
C532 H516 0.959 . S
C532 H517 0.959 . S
C532 H518 0.961 . S
C532 C531 1.502 . S
C533 H519 0.960 . S
C533 H520 0.961 . S
C533 H521 0.959 . S
C533 C531 1.561 1_565 S
C534 C531 1.526 . S
C534 C535 1.396 . S
C534 C539 1.390 . S
C535 C529 1.465 1_545 S
C535 C534 1.396 . S
C535 C536 1.399 1_545 S
C536 H522 0.927 . S
C536 C535 1.399 1_565 S
C536 C537 1.387 1_565 S
C537 H523 0.931 . S
C537 C536 1.387 1_545 S
C537 C538 1.389 . S
C538 C537 1.389 . S
C538 C539 1.387 . S
C539 H524 0.930 . S
C539 C534 1.390 . S
C539 C538 1.387 . S
H540 C552 0.930 . S
H541 C554 0.930 . S
H542 C555 0.930 . S
H543 C559 0.959 . S
H544 C559 0.959 . S
H545 C559 0.961 . S
H546 C560 0.960 . S
H547 C560 0.961 . S
H548 C560 0.959 . S
H549 C563 0.929 . S
H550 C564 0.931 . S
H551 C566 0.930 . S
C552 H540 0.930 . S
C552 C553 1.399 . S
C552 C557 1.399 . S
C553 C552 1.399 . S
C553 C554 1.376 . S
C554 H541 0.930 . S
C554 C553 1.376 . S
C554 C555 1.388 . S
C555 H542 0.930 . S
C555 C554 1.388 . S
C555 C556 1.390 . S
C556 C555 1.390 . S
C556 C557 1.394 . S
C556 C562 1.465 . S
C557 C552 1.399 . S
C557 C556 1.394 . S
C557 C558 1.516 . S
C558 C557 1.516 . S
C558 C559 1.502 . S
C558 C560 1.561 . S
C558 C561 1.526 . S
C559 H543 0.959 . S
C559 H544 0.959 . S
C559 H545 0.961 . S
C559 C558 1.502 . S
C560 H546 0.960 . S
C560 H547 0.961 . S
C560 H548 0.959 . S
C560 C558 1.561 . S
C561 C558 1.526 . S
C561 C562 1.396 . S
C561 C566 1.390 . S
C562 C556 1.465 . S
C562 C561 1.396 . S
C562 C563 1.399 . S
C563 H549 0.929 . S
C563 C562 1.399 . S
C563 C564 1.385 . S
C564 H550 0.931 . S
C564 C563 1.385 . S
C564 C565 1.389 . S
C565 C564 1.389 . S
C565 C566 1.387 . S
C566 H551 0.930 . S
C566 C561 1.390 . S
C566 C565 1.387 . S
H567 C579 0.930 . S
H568 C581 0.930 . S
H569 C582 0.930 . S
H570 C586 0.959 . S
H571 C586 0.959 . S
H572 C586 0.961 . S
H573 C587 0.960 . S
H574 C587 0.961 . S
H575 C587 0.959 . S
H576 C590 0.929 . S
H577 C591 0.931 . S
H578 C593 0.930 . S
C579 H567 0.930 . S
C579 C580 1.399 . S
C579 C584 1.399 . S
C580 C579 1.399 . S
C580 C581 1.376 . S
C581 H568 0.930 . S
C581 C580 1.376 . S
C581 C582 1.388 . S
C582 H569 0.930 . S
C582 C581 1.388 . S
C582 C583 1.390 . S
C583 C582 1.390 . S
C583 C584 1.394 . S
C583 C589 1.465 . S
C584 C579 1.399 . S
C584 C583 1.394 . S
C584 C585 1.516 . S
C585 C584 1.516 . S
C585 C586 1.502 . S
C585 C587 1.561 . S
C585 C588 1.526 . S
C586 H570 0.959 . S
C586 H571 0.959 . S
C586 H572 0.961 . S
C586 C585 1.502 . S
C587 H573 0.960 . S
C587 H574 0.961 . S
C587 H575 0.959 . S
C587 C585 1.561 . S
C588 C585 1.526 . S
C588 C589 1.396 . S
C588 C593 1.390 . S
C589 C583 1.465 . S
C589 C588 1.396 . S
C589 C590 1.399 . S
C590 H576 0.929 . S
C590 C589 1.399 . S
C590 C591 1.385 . S
C591 H577 0.931 . S
C591 C590 1.385 . S
C591 C592 1.389 . S
C592 C591 1.389 . S
C592 C593 1.387 . S
C593 H578 0.930 . S
C593 C588 1.390 . S
C593 C592 1.387 . S
H594 C606 0.930 . S
H595 C608 0.930 . S
H596 C609 0.930 . S
H597 C613 0.959 1_545 S
H598 C613 0.959 . S
H599 C613 0.961 . S
H600 C614 0.960 . S
H601 C614 0.961 . S
H602 C614 0.958 1_545 S
H603 C617 0.929 . S
H604 C618 0.931 . S
H605 C620 0.930 . S
C606 H594 0.930 . S
C606 C607 1.399 . S
C606 C611 1.399 . S
C607 C606 1.399 . S
C607 C608 1.376 . S
C608 H595 0.930 . S
C608 C607 1.376 . S
C608 C609 1.388 . S
C609 H596 0.930 . S
C609 C608 1.388 . S
C609 C610 1.390 . S
C610 C609 1.390 . S
C610 C611 1.394 . S
C610 C616 1.465 . S
C611 C606 1.399 . S
C611 C610 1.394 . S
C611 C612 1.516 . S
C612 C611 1.516 . S
C612 C613 1.502 1_545 S
C612 C614 1.561 1_545 S
C612 C615 1.526 . S
C613 H597 0.959 1_565 S
C613 H598 0.959 . S
C613 H599 0.961 . S
C613 C612 1.502 1_565 S
C614 H600 0.960 . S
C614 H601 0.961 . S
C614 H602 0.958 1_565 S
C614 C612 1.561 1_565 S
C615 C612 1.526 . S
C615 C616 1.396 . S
C615 C620 1.390 . S
C616 C610 1.465 . S
C616 C615 1.396 . S
C616 C617 1.399 . S
C617 H603 0.929 . S
C617 C616 1.399 . S
C617 C618 1.385 . S
C618 H604 0.931 . S
C618 C617 1.385 . S
C618 C619 1.389 . S
C619 C618 1.389 . S
C619 C620 1.387 . S
C620 H605 0.930 . S
C620 C615 1.390 . S
C620 C619 1.387 . S
H621 C633 0.930 . S
H622 C635 0.930 . S
H623 C636 0.930 . S
H624 C640 0.959 . S
H625 C640 0.959 . S
H626 C640 0.961 . S
H627 C641 0.960 . S
H628 C641 0.961 . S
H629 C641 0.959 . S
H630 C644 0.929 . S
H631 C645 0.931 . S
H632 C647 0.930 . S
C633 H621 0.930 . S
C633 C634 1.399 . S
C633 C638 1.399 . S
C634 C633 1.399 . S
C634 C635 1.376 . S
C635 H622 0.930 . S
C635 C634 1.376 . S
C635 C636 1.388 . S
C636 H623 0.930 . S
C636 C635 1.388 . S
C636 C637 1.390 . S
C637 C636 1.390 . S
C637 C638 1.394 . S
C637 C643 1.465 . S
C638 C633 1.399 . S
C638 C637 1.394 . S
C638 C639 1.516 . S
C639 C638 1.516 . S
C639 C640 1.502 . S
C639 C641 1.561 . S
C639 C642 1.526 . S
C640 H624 0.959 . S
C640 H625 0.959 . S
C640 H626 0.961 . S
C640 C639 1.502 . S
C641 H627 0.960 . S
C641 H628 0.961 . S
C641 H629 0.959 . S
C641 C639 1.561 . S
C642 C639 1.526 . S
C642 C643 1.396 . S
C642 C647 1.390 . S
C643 C637 1.465 . S
C643 C642 1.396 . S
C643 C644 1.399 . S
C644 H630 0.929 . S
C644 C643 1.399 . S
C644 C645 1.385 . S
C645 H631 0.931 . S
C645 C644 1.385 . S
C645 C646 1.389 . S
C646 C645 1.389 . S
C646 C647 1.387 . S
C647 H632 0.930 . S
C647 C642 1.390 . S
C647 C646 1.387 . S
H648 C660 0.930 . S
H649 C662 0.930 . S
H650 C663 0.930 . S
H651 C667 0.959 . S
H652 C667 0.959 . S
H653 C667 0.961 . S
H654 C668 0.960 . S
H655 C668 0.961 . S
H656 C668 0.959 . S
H657 C671 0.929 . S
H658 C672 0.931 . S
H659 C674 0.930 . S
C660 H648 0.930 . S
C660 C661 1.399 . S
C660 C665 1.399 . S
C661 C660 1.399 . S
C661 C662 1.376 . S
C662 H649 0.930 . S
C662 C661 1.376 . S
C662 C663 1.388 . S
C663 H650 0.930 . S
C663 C662 1.388 . S
C663 C664 1.390 . S
C664 C663 1.390 . S
C664 C665 1.394 . S
C664 C670 1.465 . S
C665 C660 1.399 . S
C665 C664 1.394 . S
C665 C666 1.516 . S
C666 C665 1.516 . S
C666 C667 1.502 . S
C666 C668 1.561 . S
C666 C669 1.526 . S
C667 H651 0.959 . S
C667 H652 0.959 . S
C667 H653 0.961 . S
C667 C666 1.502 . S
C668 H654 0.960 . S
C668 H655 0.961 . S
C668 H656 0.959 . S
C668 C666 1.561 . S
C669 C666 1.526 . S
C669 C670 1.396 . S
C669 C674 1.390 . S
C670 C664 1.465 . S
C670 C669 1.396 . S
C670 C671 1.399 . S
C671 H657 0.929 . S
C671 C670 1.399 . S
C671 C672 1.385 . S
C672 H658 0.931 . S
C672 C671 1.385 . S
C672 C673 1.389 . S
C673 C672 1.389 . S
C673 C674 1.387 . S
C674 H659 0.930 . S
C674 C669 1.390 . S
C674 C673 1.387 . S
H675 C687 0.930 . S
H676 C689 0.930 . S
H677 C690 0.930 . S
H678 C694 0.959 . S
H679 C694 0.959 . S
H680 C694 0.961 . S
H681 C695 0.960 . S
H682 C695 0.961 . S
H683 C695 0.959 . S
H684 C698 0.929 . S
H685 C699 0.931 . S
H686 C701 0.930 . S
C687 H675 0.930 . S
C687 C688 1.399 . S
C687 C692 1.399 1_554 S
C688 C687 1.399 . S
C688 C689 1.376 . S
C689 H676 0.930 . S
C689 C688 1.376 . S
C689 C690 1.388 1_554 S
C690 H677 0.930 . S
C690 C689 1.388 1_556 S
C690 C691 1.390 . S
C691 C690 1.390 . S
C691 C692 1.394 . S
C691 C697 1.465 . S
C692 C687 1.399 1_556 S
C692 C691 1.394 . S
C692 C693 1.516 . S
C693 C692 1.516 . S
C693 C694 1.502 . S
C693 C695 1.561 . S
C693 C696 1.526 . S
C694 H678 0.959 . S
C694 H679 0.959 . S
C694 H680 0.961 . S
C694 C693 1.502 . S
C695 H681 0.960 . S
C695 H682 0.961 . S
C695 H683 0.959 . S
C695 C693 1.561 . S
C696 C693 1.526 . S
C696 C697 1.396 . S
C696 C701 1.390 . S
C697 C691 1.465 . S
C697 C696 1.396 . S
C697 C698 1.399 . S
C698 H684 0.929 . S
C698 C697 1.399 . S
C698 C699 1.385 . S
C699 H685 0.931 . S
C699 C698 1.385 . S
C699 C700 1.389 . S
C700 C699 1.389 . S
C700 C701 1.387 . S
C701 H686 0.930 . S
C701 C696 1.390 . S
C701 C700 1.387 . S
H702 C714 0.930 . S
H703 C716 0.930 . S
H704 C717 0.930 . S
H705 C721 0.959 . S
H706 C721 0.959 . S
H707 C721 0.961 . S
H708 C722 0.960 . S
H709 C722 0.961 . S
H710 C722 0.959 . S
H711 C725 0.929 . S
H712 C726 0.931 . S
H713 C728 0.930 . S
C714 H702 0.930 . S
C714 C715 1.399 . S
C714 C719 1.399 . S
C715 C714 1.399 . S
C715 C716 1.376 . S
C716 H703 0.930 . S
C716 C715 1.376 . S
C716 C717 1.388 1_655 S
C717 H704 0.930 . S
C717 C716 1.388 1_455 S
C717 C718 1.390 . S
C718 C717 1.390 . S
C718 C719 1.394 1_455 S
C718 C724 1.465 . S
C719 C714 1.399 . S
C719 C718 1.394 1_655 S
C719 C720 1.516 . S
C720 C719 1.516 . S
C720 C721 1.502 1_655 S
C720 C722 1.561 . S
C720 C723 1.526 1_655 S
C721 H705 0.959 . S
C721 H706 0.959 . S
C721 H707 0.961 . S
C721 C720 1.502 1_455 S
C722 H708 0.960 . S
C722 H709 0.961 . S
C722 H710 0.959 . S
C722 C720 1.561 . S
C723 C720 1.526 1_455 S
C723 C724 1.396 . S
C723 C728 1.390 . S
C724 C718 1.465 . S
C724 C723 1.396 . S
C724 C725 1.399 . S
C725 H711 0.929 . S
C725 C724 1.399 . S
C725 C726 1.385 . S
C726 H712 0.931 . S
C726 C725 1.385 . S
C726 C727 1.389 . S
C727 C726 1.389 . S
C727 C728 1.387 . S
C728 H713 0.930 . S
C728 C723 1.390 . S
C728 C727 1.387 . S
H729 C741 0.926 1_565 S
H730 C743 0.930 . S
H731 C744 0.930 . S
H732 C748 0.959 . S
H733 C748 0.959 . S
H734 C748 0.961 . S
H735 C749 0.960 . S
H736 C749 0.961 . S
H737 C749 0.959 . S
H738 C752 0.929 . S
H739 C753 0.931 . S
H740 C755 0.930 1_565 S
C741 H729 0.926 1_545 S
C741 C742 1.403 . S
C741 C746 1.398 . S
C742 C741 1.403 . S
C742 C743 1.376 . S
C743 H730 0.930 . S
C743 C742 1.376 . S
C743 C744 1.388 . S
C744 H731 0.930 . S
C744 C743 1.388 . S
C744 C745 1.390 . S
C745 C744 1.390 . S
C745 C746 1.394 . S
C745 C751 1.465 . S
C746 C741 1.398 . S
C746 C745 1.394 . S
C746 C747 1.516 1_545 S
C747 C746 1.516 1_565 S
C747 C748 1.502 . S
C747 C749 1.561 . S
C747 C750 1.526 1_565 S
C748 H732 0.959 . S
C748 H733 0.959 . S
C748 H734 0.961 . S
C748 C747 1.502 . S
C749 H735 0.960 . S
C749 H736 0.961 . S
C749 H737 0.959 . S
C749 C747 1.561 . S
C750 C747 1.526 1_545 S
C750 C751 1.396 . S
C750 C755 1.390 . S
C751 C745 1.465 . S
C751 C750 1.396 . S
C751 C752 1.399 . S
C752 H738 0.929 . S
C752 C751 1.399 . S
C752 C753 1.385 . S
C753 H739 0.931 . S
C753 C752 1.385 . S
C753 C754 1.389 . S
C754 C753 1.389 . S
C754 C755 1.387 . S
C755 H740 0.930 1_545 S
C755 C750 1.390 . S
C755 C754 1.387 . S
H756 C768 0.930 . S
H757 C770 0.930 . S
H758 C771 0.930 . S
H759 C775 0.955 . S
H760 C775 0.959 . S
H761 C775 0.961 . S
H762 C776 0.960 . S
H763 C776 0.961 . S
H764 C776 0.959 . S
H765 C779 0.929 . S
H766 C780 0.931 . S
H767 C782 0.930 . S
C768 H756 0.930 . S
C768 C769 1.399 . S
C768 C773 1.399 . S
C769 C768 1.399 . S
C769 C770 1.376 . S
C770 H757 0.930 . S
C770 C769 1.376 . S
C770 C771 1.388 1_554 S
C771 H758 0.930 . S
C771 C770 1.388 1_556 S
C771 C772 1.390 . S
C772 C771 1.390 . S
C772 C773 1.394 1_556 S
C772 C778 1.465 . S
C773 C768 1.399 . S
C773 C772 1.394 1_554 S
C773 C774 1.516 . S
C774 C773 1.516 . S
C774 C775 1.502 . S
C774 C776 1.561 . S
C774 C777 1.526 1_554 S
C775 H759 0.955 . S
C775 H760 0.959 . S
C775 H761 0.961 . S
C775 C774 1.502 . S
C776 H762 0.960 . S
C776 H763 0.961 . S
C776 H764 0.959 . S
C776 C774 1.561 . S
C777 C774 1.526 1_556 S
C777 C778 1.396 . S
C777 C782 1.390 . S
C778 C772 1.465 . S
C778 C777 1.396 . S
C778 C779 1.399 . S
C779 H765 0.929 . S
C779 C778 1.399 . S
C779 C780 1.385 . S
C780 H766 0.931 . S
C780 C779 1.385 . S
C780 C781 1.389 . S
C781 C780 1.389 . S
C781 C782 1.387 . S
C782 H767 0.930 . S
C782 C777 1.390 . S
C782 C781 1.387 . S
H783 C795 0.930 . S
H784 C797 0.930 . S
H785 C798 0.930 . S
H786 C802 0.959 . S
H787 C802 0.959 . S
H788 C802 0.961 . S
H789 C803 0.960 . S
H790 C803 0.961 . S
H791 C803 0.959 . S
H792 C806 0.929 . S
H793 C807 0.931 . S
H794 C809 0.930 . S
C795 H783 0.930 . S
C795 C796 1.399 . S
C795 C800 1.399 . S
C796 C795 1.399 . S
C796 C797 1.376 . S
C797 H784 0.930 . S
C797 C796 1.376 . S
C797 C798 1.388 . S
C798 H785 0.930 . S
C798 C797 1.388 . S
C798 C799 1.390 . S
C799 C798 1.390 . S
C799 C800 1.394 . S
C799 C805 1.465 . S
C800 C795 1.399 . S
C800 C799 1.394 . S
C800 C801 1.516 . S
C801 C800 1.516 . S
C801 C802 1.502 . S
C801 C803 1.561 1_455 S
C801 C804 1.526 . S
C802 H786 0.959 . S
C802 H787 0.959 . S
C802 H788 0.961 . S
C802 C801 1.502 . S
C803 H789 0.960 . S
C803 H790 0.961 . S
C803 H791 0.959 . S
C803 C801 1.561 1_655 S
C804 C801 1.526 . S
C804 C805 1.396 . S
C804 C809 1.390 . S
C805 C799 1.465 . S
C805 C804 1.396 . S
C805 C806 1.399 . S
C806 H792 0.929 . S
C806 C805 1.399 . S
C806 C807 1.385 . S
C807 H793 0.931 . S
C807 C806 1.385 . S
C807 C808 1.389 . S
C808 C807 1.389 . S
C808 C809 1.387 . S
C809 H794 0.930 . S
C809 C804 1.390 . S
C809 C808 1.387 . S
C511 C303 1.317 . S
C499 C29 1.392 . S
C526 C137 1.414 . S
C538 C377 1.417 . S
C553 C225 2.142 . S
C565 C481 2.165 . S
C580 C49 0.627 . S
C592 C315 0.668 . S
C619 C389 0.635 . S
C607 C117 0.661 . S
C634 C205 1.372 . S
C646 C475 1.277 . S
C673 C407 2.173 . S
C661 C233 2.133 . S
C688 C57 1.379 . S
C700 C451 1.379 . S
C727 C327 1.283 . S
C715 C108 1.398 . S
C754 C401 1.270 . S
C742 C196 1.346 . S
C781 C463 0.663 . S
C769 C20 0.709 . S
C796 C145 2.164 . S
C808 C333 2.172 . S
