# Generated by pormake.
# Topology rtl, (3,6)-cn, num edge types: 1
# Building blocks:
#     Node 0, Type 0, BuildingBlock: ESEHIV_clean_linker_0, # of connection points: 3
#     Node 1, Type 0, BuildingBlock: ESEHIV_clean_linker_0, # of connection points: 3
#     Node 2, Type 0, BuildingBlock: ESEHIV_clean_linker_0, # of connection points: 3
#     Node 3, Type 0, BuildingBlock: ESEHIV_clean_linker_0, # of connection points: 3
#     Node 4, Type 1, BuildingBlock: VOLQOD_clean_sbu_1, # of connection points: 6
#     Node 5, Type 1, BuildingBlock: VOLQOD_clean_sbu_1, # of connection points: 6
#     Edge 6, Type (0, 1), BuildingBlock: TEMPAE_clean_linker_10, # of connection points: 2
#     Edge 7, Type (0, 1), BuildingBlock: TEMPAE_clean_linker_10, # of connection points: 2
#     Edge 8, Type (0, 1), BuildingBlock: TEMPAE_clean_linker_10, # of connection points: 2
#     Edge 9, Type (0, 1), BuildingBlock: TEMPAE_clean_linker_10, # of connection points: 2
#     Edge 10, Type (0, 1), BuildingBlock: TEMPAE_clean_linker_10, # of connection points: 2
#     Edge 11, Type (0, 1), BuildingBlock: TEMPAE_clean_linker_10, # of connection points: 2
#     Edge 12, Type (0, 1), BuildingBlock: TEMPAE_clean_linker_10, # of connection points: 2
#     Edge 13, Type (0, 1), BuildingBlock: TEMPAE_clean_linker_10, # of connection points: 2
#     Edge 14, Type (0, 1), BuildingBlock: TEMPAE_clean_linker_10, # of connection points: 2
#     Edge 15, Type (0, 1), BuildingBlock: TEMPAE_clean_linker_10, # of connection points: 2
#     Edge 16, Type (0, 1), BuildingBlock: TEMPAE_clean_linker_10, # of connection points: 2
#     Edge 17, Type (0, 1), BuildingBlock: TEMPAE_clean_linker_10, # of connection points: 2
# Relax obj value: 0.079
# Max RMSD: 0.156
# Mean RMSD: 0.088
data_MOF--net-rtl--node1-VOLQOD_clean_sbu_1--node2-ESEHIV_clean_linker_0--edge1-TEMPAE_clean_linker_10
_symmetry_space_group_name_H-M    P1
_symmetry_Int_Tables_number       1
_symmetry_cell_setting            triclinic
loop_
_symmetry_equiv_pos_as_xyz
'x, y, z'
_cell_length_a     35.192194
_cell_length_b     30.465865
_cell_length_c     22.868817
_cell_angle_alpha  90.012552
_cell_angle_beta   90.304166
_cell_angle_gamma 89.934958
loop_
_atom_site_label
_atom_site_type_symbol
_atom_site_fract_x
_atom_site_fract_y
_atom_site_fract_z
_atom_type_partial_charge
H0 H 0.06322 0.76977 0.02276 0.0
H1 H 0.14146 0.68875 0.11926 0.0
H2 H 0.14084 0.68531 0.93149 0.0
C3 C 0.08448 0.74401 0.02356 0.0
C4 C 0.09909 0.72812 0.97057 0.0
C5 C 0.0993 0.72992 0.07752 0.0
C6 C 0.12919 0.69937 0.07804 0.0
C7 C 0.1443 0.68338 0.02552 0.0
C8 C 0.12864 0.69709 0.972 0.0
H9 H 0.55903 0.74514 0.51537 0.0
H10 H 0.63746 0.82412 0.41854 0.0
H11 H 0.64557 0.81706 0.6067 0.0
C12 C 0.58181 0.76911 0.51478 0.0
C13 C 0.59961 0.78127 0.5672 0.0
C14 C 0.59598 0.78392 0.46126 0.0
C15 C 0.62678 0.81303 0.46036 0.0
C16 C 0.64469 0.8261 0.51272 0.0
C17 C 0.63093 0.80963 0.56608 0.0
H18 H 0.94179 0.24674 0.01108 0.0
H19 H 0.86979 0.32603 0.11954 0.0
H20 H 0.85672 0.32797 0.9317 0.0
C21 C 0.91986 0.27158 0.01545 0.0
C22 C 0.90175 0.28766 0.96535 0.0
C23 C 0.90782 0.28444 0.07119 0.0
C24 C 0.87901 0.31613 0.07638 0.0
C25 C 0.8604 0.33268 0.02623 0.0
C26 C 0.87194 0.3178 0.97075 0.0
H27 H 0.44293 0.26505 0.51503 0.0
H28 H 0.36457 0.18258 0.60774 0.0
H29 H 0.36329 0.185 0.42005 0.0
C30 C 0.42138 0.23967 0.51469 0.0
C31 C 0.40622 0.22551 0.46096 0.0
C32 C 0.40673 0.2244 0.56799 0.0
C33 C 0.37679 0.19394 0.56706 0.0
C34 C 0.36069 0.18036 0.51383 0.0
C35 C 0.37588 0.19562 0.46103 0.0
O36 O 0.90805 0.01022 0.51949 0.0
Zn37 Zn 0.95632 0.04595 0.52079 0.0
O38 O 0.00132 0.00821 0.52413 0.0
Zn39 Zn 0.03047 0.02056 0.59529 0.0
Zn40 Zn 0.98591 0.94665 0.52456 0.0
Zn41 Zn 0.03257 0.01943 0.45548 0.0
O42 O 0.08345 0.04101 0.57583 0.0
O43 O 0.08585 0.03508 0.47906 0.0
O44 O 0.95459 0.08632 0.59032 0.0
O45 O 0.00507 0.06726 0.64343 0.0
O46 O 0.03571 0.96656 0.64557 0.0
O47 O 0.00658 0.91457 0.59438 0.0
O48 O 0.00429 0.91482 0.45305 0.0
O49 O 0.95674 0.08463 0.44989 0.0
O50 O 0.03534 0.96617 0.40384 0.0
O51 O 0.01164 0.06941 0.40714 0.0
C52 C 0.90193 0.96913 0.5235 0.0
C53 C 0.10165 0.04362 0.52795 0.0
C54 C 0.02532 0.92681 0.63919 0.0
C55 C 0.97554 0.09075 0.63547 0.0
C56 C 0.0233 0.92695 0.40873 0.0
C57 C 0.98088 0.09139 0.40966 0.0
O58 O 0.92913 0.94163 0.52682 0.0
O59 O 0.59415 0.51182 0.02222 0.0
Zn60 Zn 0.54454 0.54542 0.0177 0.0
O61 O 0.5012 0.50508 0.01512 0.0
Zn62 Zn 0.47136 0.51619 0.94432 0.0
Zn63 Zn 0.51881 0.44416 0.01444 0.0
Zn64 Zn 0.4698 0.51436 0.08417 0.0
O65 O 0.41844 0.53626 0.96436 0.0
O66 O 0.41638 0.53053 0.06118 0.0
O67 O 0.54582 0.58399 0.94622 0.0
O68 O 0.49557 0.56257 0.89446 0.0
O69 O 0.46695 0.46181 0.89488 0.0
O70 O 0.49982 0.41149 0.9438 0.0
O71 O 0.50095 0.41072 0.08525 0.0
O72 O 0.54149 0.5859 0.08688 0.0
O73 O 0.46748 0.46035 0.13393 0.0
O74 O 0.49045 0.56299 0.13473 0.0
C75 C 0.60185 0.47101 0.0185 0.0
C76 C 0.40043 0.53909 0.01239 0.0
C77 C 0.4796 0.42282 0.90004 0.0
C78 C 0.52467 0.58686 0.90105 0.0
C79 C 0.48089 0.42174 0.12904 0.0
C80 C 0.51869 0.58876 0.12972 0.0
O81 O 0.57577 0.44225 0.01388 0.0
C82 C 0.32171 0.11571 0.54453 0.0
C83 C 0.32482 0.15524 0.5137 0.0
C84 C 0.28681 0.09349 0.54744 0.0
C85 C 0.25431 0.11203 0.52019 0.0
C86 C 0.2575 0.15188 0.48879 0.0
C87 C 0.29283 0.17277 0.48547 0.0
C88 C 0.2846 0.05054 0.58012 0.0
C89 C 0.22338 0.17315 0.46007 0.0
C90 C 0.16598 0.04661 0.48264 0.0
C91 C 0.14171 0.05804 0.52865 0.0
C92 C 0.20345 0.06216 0.48088 0.0
C93 C 0.21658 0.09066 0.52545 0.0
C94 C 0.19249 0.10148 0.57274 0.0
C95 C 0.15543 0.08461 0.57411 0.0
C96 C 0.2286 0.04911 0.43047 0.0
C97 C 0.20525 0.13247 0.6205 0.0
H98 H 0.34656 0.10229 0.56633 0.0
H99 H 0.29523 0.20374 0.4624 0.0
H100 H 0.26562 0.05411 0.61839 0.0
H101 H 0.27218 0.02479 0.55153 0.0
H102 H 0.31291 0.03926 0.59577 0.0
H103 H 0.23075 0.20421 0.43738 0.0
H104 H 0.21046 0.15039 0.42777 0.0
H105 H 0.20147 0.18035 0.49346 0.0
H106 H 0.15561 0.02562 0.44776 0.0
H107 H 0.13671 0.09362 0.60965 0.0
H108 H 0.2564 0.03698 0.44699 0.0
H109 H 0.23432 0.07817 0.40267 0.0
H110 H 0.21547 0.02322 0.40278 0.0
H111 H 0.23231 0.12089 0.64023 0.0
H112 H 0.18379 0.13581 0.65568 0.0
H113 H 0.21065 0.16541 0.60161 0.0
C114 C 0.21176 0.6734 0.05501 0.0
C115 C 0.17954 0.65701 0.02625 0.0
C116 C 0.24658 0.65125 0.05224 0.0
C117 C 0.249 0.6113 0.02086 0.0
C118 C 0.21621 0.59387 0.9932 0.0
C119 C 0.18186 0.61732 0.99557 0.0
C120 C 0.28104 0.67136 0.08136 0.0
C121 C 0.21757 0.55086 0.96051 0.0
C122 C 0.34726 0.58134 0.96661 0.0
C123 C 0.36057 0.55432 0.01189 0.0
C124 C 0.31053 0.5992 0.96817 0.0
C125 C 0.28631 0.5889 0.01547 0.0
C126 C 0.29898 0.55993 0.05985 0.0
C127 C 0.33617 0.5434 0.05792 0.0
C128 C 0.29831 0.63068 0.92063 0.0
C129 C 0.27363 0.54739 0.11021 0.0
H130 H 0.20999 0.70447 0.078 0.0
H131 H 0.15682 0.60476 0.97342 0.0
H132 H 0.29347 0.64806 0.11346 0.0
H133 H 0.30315 0.67814 0.04814 0.0
H134 H 0.27423 0.7025 0.10436 0.0
H135 H 0.18902 0.54033 0.94503 0.0
H136 H 0.2365 0.55393 0.92212 0.0
H137 H 0.22962 0.52478 0.98899 0.0
H138 H 0.36609 0.58999 0.93107 0.0
H139 H 0.34624 0.5221 0.09268 0.0
H140 H 0.29344 0.66368 0.93977 0.0
H141 H 0.27107 0.61985 0.90078 0.0
H142 H 0.31984 0.63364 0.8855 0.0
H143 H 0.2685 0.57648 0.13825 0.0
H144 H 0.28629 0.52102 0.13765 0.0
H145 H 0.24559 0.53612 0.09366 0.0
C146 C 0.70715 0.84661 0.46786 0.0
C147 C 0.67987 0.85319 0.51161 0.0
C148 C 0.74171 0.8694 0.46864 0.0
C149 C 0.74969 0.89871 0.51508 0.0
C150 C 0.72205 0.90641 0.5586 0.0
C151 C 0.68732 0.88389 0.55601 0.0
C152 C 0.77029 0.86077 0.42093 0.0
C153 C 0.72976 0.93705 0.60919 0.0
C154 C 0.8544 0.91196 0.54963 0.0
C155 C 0.86249 0.95261 0.5239 0.0
C156 C 0.81748 0.89483 0.54874 0.0
C157 C 0.7881 0.91851 0.5203 0.0
C158 C 0.79595 0.95984 0.49483 0.0
C159 C 0.83306 0.97667 0.49749 0.0
C160 C 0.81007 0.85103 0.57744 0.0
C161 C 0.76547 0.98557 0.46318 0.0
H162 H 0.70219 0.82244 0.43393 0.0
H163 H 0.66621 0.88979 0.58945 0.0
H164 H 0.7807 0.89219 0.40249 0.0
H165 H 0.79522 0.84319 0.43943 0.0
H166 H 0.7582 0.84065 0.38484 0.0
H167 H 0.70446 0.94154 0.63742 0.0
H168 H 0.75333 0.92375 0.63635 0.0
H169 H 0.73893 0.96964 0.59293 0.0
H170 H 0.877 0.89348 0.57066 0.0
H171 H 0.83928 0.00803 0.47731 0.0
H172 H 0.80143 0.82665 0.5439 0.0
H173 H 0.78634 0.85397 0.60896 0.0
H174 H 0.83546 0.83821 0.60097 0.0
H175 H 0.75536 0.96667 0.42466 0.0
H176 H 0.7758 0.01806 0.44802 0.0
H177 H 0.74065 0.99072 0.49208 0.0
C178 C 0.81869 0.39383 0.98933 0.0
C179 C 0.82624 0.36135 0.03141 0.0
C180 C 0.78393 0.41644 0.98848 0.0
C181 C 0.75637 0.40705 0.03151 0.0
C182 C 0.76481 0.37661 0.07646 0.0
C183 C 0.79941 0.35376 0.0755 0.0
C184 C 0.77585 0.44838 0.93948 0.0
C185 C 0.7364 0.36625 0.12376 0.0
C186 C 0.66993 0.48103 0.04828 0.0
C187 C 0.64185 0.45624 0.01973 0.0
C188 C 0.70753 0.46569 0.05227 0.0
C189 C 0.71728 0.42516 0.02595 0.0
C190 C 0.68924 0.40075 0.99555 0.0
C191 C 0.65181 0.41635 0.99338 0.0
C192 C 0.73653 0.49213 0.086 0.0
C193 C 0.69865 0.3578 0.96586 0.0
H194 H 0.83951 0.40063 0.95581 0.0
H195 H 0.8045 0.32841 0.10782 0.0
H196 H 0.75356 0.43461 0.91029 0.0
H197 H 0.76481 0.4798 0.95708 0.0
H198 H 0.8015 0.45528 0.91292 0.0
H199 H 0.74916 0.34648 0.15966 0.0
H200 H 0.72462 0.39694 0.14251 0.0
H201 H 0.71233 0.34749 0.10472 0.0
H202 H 0.66225 0.51178 0.06898 0.0
H203 H 0.63028 0.39731 0.97074 0.0
H204 H 0.76163 0.49892 0.05832 0.0
H205 H 0.74666 0.47294 0.12427 0.0
H206 H 0.72479 0.52383 0.1018 0.0
H207 H 0.72259 0.3624 0.93509 0.0
H208 H 0.67405 0.34415 0.94126 0.0
H209 H 0.70783 0.33332 -0.00105 0.0
C210 C 0.04761 0.76137 0.13994 0.0
C211 C 0.08614 0.75099 0.13244 0.0
C212 C 0.03556 0.78683 0.18746 0.0
C213 C 0.06263 0.80172 0.22887 0.0
C214 C 0.10118 0.78917 0.22351 0.0
C215 C 0.11254 0.76422 0.17513 0.0
C216 C 0.9942 0.79967 0.19163 0.0
C217 C 0.13081 0.804 0.26724 0.0
C218 C 0.04459 0.90915 0.30748 0.0
C219 C 0.03217 0.89474 0.36235 0.0
C220 C 0.05395 0.87913 0.26342 0.0
C221 C 0.05133 0.83356 0.27476 0.0
C222 C 0.03865 0.81871 0.32992 0.0
C223 C 0.02895 0.84953 0.373 0.0
C224 C 0.0669 0.89622 0.2048 0.0
C225 C 0.03598 0.77036 0.34373 0.0
H226 H 0.02697 0.75062 0.10764 0.0
H227 H 0.14243 0.75688 0.16944 0.0
H228 H 0.98311 0.79234 0.23586 0.0
H229 H 0.99129 0.83557 0.18466 0.0
H230 H 0.9763 0.78244 0.15873 0.0
H231 H 0.15859 0.78746 0.2605 0.0
H232 H 0.13506 0.83995 0.26326 0.0
H233 H 0.12116 0.79738 0.31248 0.0
H234 H 0.04689 0.94403 0.2988 0.0
H235 H 0.01956 0.83815 0.41543 0.0
H236 H 0.04855 0.88283 0.16946 0.0
H237 H 0.09635 0.88505 0.19612 0.0
H238 H 0.06617 0.93263 0.20244 0.0
H239 H 0.0172 0.75375 0.31154 0.0
H240 H 0.02484 0.76421 0.38834 0.0
H241 H 0.06448 0.75501 0.34018 0.0
C242 C 0.55318 0.76436 0.64612 0.0
C243 C 0.5892 0.75864 0.62169 0.0
C244 C 0.54207 0.7397 0.69498 0.0
C245 C 0.56721 0.70775 0.7183 0.0
C246 C 0.60386 0.70243 0.69401 0.0
C247 C 0.61456 0.72838 0.64631 0.0
C248 C 0.50317 0.74705 0.7207 0.0
C249 C 0.63113 0.66801 0.71667 0.0
C250 C 0.55334 0.65773 0.8687 0.0
C251 C 0.53439 0.61861 0.8548 0.0
C252 C 0.56301 0.68791 0.82489 0.0
C253 C 0.55455 0.67798 0.76577 0.0
C254 C 0.5354 0.63851 0.75157 0.0
C255 C 0.52505 0.60959 0.7964 0.0
C256 C 0.58248 0.73023 0.84177 0.0
C257 C 0.52675 0.62623 0.6889 0.0
H258 H 0.53369 0.7878 0.62661 0.0
H259 H 0.64224 0.72377 0.62658 0.0
H260 H 0.4852 0.71768 0.71313 0.0
H261 H 0.50539 0.75184 0.7687 0.0
H262 H 0.48863 0.776 0.70123 0.0
H263 H 0.65891 0.66892 0.69385 0.0
H264 H 0.63621 0.67265 0.76416 0.0
H265 H 0.61853 0.63492 0.71077 0.0
H266 H 0.56021 0.66495 0.91396 0.0
H267 H 0.5106 0.57922 0.78556 0.0
H268 H 0.56669 0.75862 0.82329 0.0
H269 H 0.61152 0.73104 0.8232 0.0
H270 H 0.58466 0.73436 0.88994 0.0
H271 H 0.50898 0.65197 0.668 0.0
H272 H 0.51165 0.59433 0.68532 0.0
H273 H 0.55358 0.62408 0.66376 0.0
C274 C 0.9207 0.21384 0.12199 0.0
C275 C 0.92143 0.25984 0.12308 0.0
C276 C 0.93193 0.18922 0.1707 0.0
C277 C 0.94443 0.2111 0.22184 0.0
C278 C 0.9456 0.25759 0.22319 0.0
C279 C 0.93374 0.28152 0.17377 0.0
C280 C 0.92972 0.13972 0.16772 0.0
C281 C 0.95916 0.28192 0.27685 0.0
C282 C 0.93601 0.14311 0.35974 0.0
C283 C 0.97254 0.12486 0.36438 0.0
C284 C 0.92691 0.17277 0.31493 0.0
C285 C 0.95511 0.18482 0.2741 0.0
C286 C 0.99246 0.16804 0.27999 0.0
C287 C 0.00068 0.13803 0.32487 0.0
C288 C 0.88664 0.18957 0.3097 0.0
C289 C 0.02336 0.18052 0.23759 0.0
H290 H 0.91046 0.19702 0.0832 0.0
H291 H 0.93428 0.31709 0.17455 0.0
H292 H 0.95806 0.12518 0.17673 0.0
H293 H 0.91005 0.12738 0.20171 0.0
H294 H 0.91967 0.12786 0.12438 0.0
H295 H 0.95971 0.31802 0.27008 0.0
H296 H 0.94029 0.27455 0.31428 0.0
H297 H 0.98814 0.27073 0.28914 0.0
H298 H 0.91409 0.13324 0.39012 0.0
H299 H 0.02909 0.12449 0.32852 0.0
H300 H 0.87336 0.1764 0.26923 0.0
H301 H 0.88643 0.22588 0.30617 0.0
H302 H 0.86888 0.17984 0.34756 0.0
H303 H 0.01687 0.16648 0.1939 0.0
H304 H 0.05173 0.16844 0.25181 0.0
H305 H 0.02464 0.21671 0.23255 0.0
C306 C 0.45796 0.2559 0.63217 0.0
C307 C 0.41963 0.24476 0.62379 0.0
C308 C 0.46947 0.28149 0.68006 0.0
C309 C 0.44208 0.29566 0.72104 0.0
C310 C 0.40382 0.28211 0.71499 0.0
C311 C 0.39298 0.25713 0.6662 0.0
C312 C 0.51053 0.29543 0.68493 0.0
C313 C 0.37387 0.29607 0.75826 0.0
C314 C 0.47482 0.34504 0.86528 0.0
C315 C 0.47061 0.39011 0.85421 0.0
C316 C 0.46568 0.31377 0.82237 0.0
C317 C 0.4526 0.328 0.76692 0.0
C318 C 0.44883 0.37344 0.75524 0.0
C319 C 0.45761 0.40392 0.79916 0.0
C320 C 0.4695 0.26556 0.83658 0.0
C321 C 0.43542 0.38991 0.69632 0.0
H322 H 0.47882 0.24583 0.60013 0.0
H323 H 0.36322 0.24928 0.65989 0.0
H324 H 0.51267 0.33134 0.67755 0.0
H325 H 0.52171 0.28871 0.72947 0.0
H326 H 0.52885 0.27845 0.65259 0.0
H327 H 0.34658 0.27847 0.75135 0.0
H328 H 0.38379 0.29006 0.80369 0.0
H329 H 0.36853 0.33182 0.75385 0.0
H330 H 0.48468 0.33413 0.90786 0.0
H331 H 0.45457 0.43868 0.79014 0.0
H332 H 0.48883 0.24944 0.805 0.0
H333 H 0.44141 0.24932 0.83237 0.0
H334 H 0.48059 0.25993 0.88153 0.0
H335 H 0.4541 0.377 0.66134 0.0
H336 H 0.4352 0.42632 0.69374 0.0
H337 H 0.40627 0.37778 0.68725 0.0
C338 C 0.54667 0.76815 0.38504 0.0
C339 C 0.58349 0.76221 0.40699 0.0
C340 C 0.53391 0.74387 0.33653 0.0
C341 C 0.55821 0.71205 0.31124 0.0
C342 C 0.59561 0.7065 0.33316 0.0
C343 C 0.60793 0.7321 0.38038 0.0
C344 C 0.49426 0.75153 0.3132 0.0
C345 C 0.6221 0.67221 0.30841 0.0
C346 C 0.51662 0.61304 0.2337 0.0
C347 C 0.52587 0.62193 0.17541 0.0
C348 C 0.52613 0.6427 0.27832 0.0
C349 C 0.54425 0.68273 0.26391 0.0
C350 C 0.55187 0.69282 0.20472 0.0
C351 C 0.54316 0.66192 0.16119 0.0
C352 C 0.51845 0.63023 0.34107 0.0
C353 C 0.57012 0.73573 0.18755 0.0
H354 H 0.52788 0.79142 0.40618 0.0
H355 H 0.63625 0.72732 0.39826 0.0
H356 H 0.49499 0.75658 0.26515 0.0
H357 H 0.47645 0.72221 0.3215 0.0
H358 H 0.48048 0.78044 0.33381 0.0
H359 H 0.6504 0.67245 0.33018 0.0
H360 H 0.60941 0.63913 0.3137 0.0
H361 H 0.62616 0.67769 0.26093 0.0
H362 H 0.50339 0.58202 0.24472 0.0
H363 H 0.54989 0.66903 0.11596 0.0
H364 H 0.50161 0.6562 0.36294 0.0
H365 H 0.54576 0.62721 0.36525 0.0
H366 H 0.50288 0.59865 0.34469 0.0
H367 H 0.55502 0.76362 0.20833 0.0
H368 H 0.57008 0.74067 0.13942 0.0
H369 H 0.59995 0.73649 0.20337 0.0
C370 C 0.94627 0.27252 0.88351 0.0
C371 C 0.9104 0.26733 0.9086 0.0
C372 C 0.95674 0.24783 0.83436 0.0
C373 C 0.93109 0.21635 0.8114 0.0
C374 C 0.89432 0.21215 0.83566 0.0
C375 C 0.88428 0.23812 0.88374 0.0
C376 C 0.99579 0.25403 0.80869 0.0
C377 C 0.86649 0.1783 0.81331 0.0
C378 C 0.94653 0.16243 0.66374 0.0
C379 C 0.96509 0.12353 0.68 0.0
C380 C 0.9363 0.19372 0.70588 0.0
C381 C 0.94376 0.1851 0.76565 0.0
C382 C 0.96239 0.14576 0.78223 0.0
C383 C 0.97336 0.11573 0.73905 0.0
C384 C 0.9175 0.23589 0.68654 0.0
C385 C 0.96999 0.13489 0.84568 0.0
H386 H 0.96639 0.29507 0.90333 0.0
H387 H 0.85675 0.23386 0.90405 0.0
H388 H 0.01365 0.22492 0.81859 0.0
H389 H 0.99394 0.25702 0.7604 0.0
H390 H 0.01023 0.2836 0.82651 0.0
H391 H 0.83828 0.18114 0.83458 0.0
H392 H 0.86258 0.18158 0.76537 0.0
H393 H 0.87791 0.14492 0.82175 0.0
H394 H 0.94049 0.16865 0.61795 0.0
H395 H 0.9875 0.08551 0.75164 0.0
H396 H 0.93359 0.26446 0.70376 0.0
H397 H 0.88838 0.2379 0.70464 0.0
H398 H 0.91566 0.23863 0.63816 0.0
H399 H 0.98816 0.16054 0.86583 0.0
H400 H 0.98426 0.10259 0.8512 0.0
H401 H 0.94284 0.13436 0.87016 0.0
C402 C 0.45802 0.25581 0.39777 0.0
C403 C 0.41944 0.24592 0.40562 0.0
C404 C 0.47014 0.28075 0.34983 0.0
C405 C 0.44309 0.29557 0.3083 0.0
C406 C 0.40449 0.28336 0.31393 0.0
C407 C 0.39308 0.25899 0.36275 0.0
C408 C 0.51153 0.29328 0.34545 0.0
C409 C 0.37486 0.29812 0.27013 0.0
C410 C 0.46038 0.40327 0.23028 0.0
C411 C 0.47263 0.38915 0.17515 0.0
C412 C 0.45146 0.37306 0.27425 0.0
C413 C 0.45431 0.32755 0.26256 0.0
C414 C 0.46689 0.31298 0.20717 0.0
C415 C 0.47621 0.34402 0.16417 0.0
C416 C 0.43866 0.3899 0.3331 0.0
C417 C 0.46974 0.2647 0.19299 0.0
H418 H 0.47866 0.24517 0.43016 0.0
H419 H 0.36315 0.25206 0.36864 0.0
H420 H 0.52245 0.28616 0.30104 0.0
H421 H 0.51459 0.32911 0.35285 0.0
H422 H 0.52946 0.2757 0.37801 0.0
H423 H 0.34715 0.28147 0.27677 0.0
H424 H 0.37043 0.33405 0.2742 0.0
H425 H 0.38459 0.29157 0.22489 0.0
H426 H 0.45787 0.4381 0.23924 0.0
H427 H 0.48549 0.33291 0.12153 0.0
H428 H 0.45706 0.37628 0.36824 0.0
H429 H 0.40922 0.37882 0.34181 0.0
H430 H 0.43943 0.4263 0.33581 0.0
H431 H 0.48842 0.24794 0.22522 0.0
H432 H 0.48107 0.25876 0.14843 0.0
H433 H 0.44125 0.24933 0.19613 0.0
C434 C 0.04824 0.75952 0.90572 0.0
C435 C 0.08654 0.74839 0.91459 0.0
C436 C 0.03698 0.78525 0.85783 0.0
C437 C 0.06462 0.79966 0.81745 0.0
C438 C 0.10288 0.78613 0.824 0.0
C439 C 0.11345 0.76089 0.87271 0.0
C440 C 0.99589 0.79906 0.85234 0.0
C441 C 0.13309 0.80038 0.78138 0.0
C442 C 0.0319 0.84903 0.67325 0.0
C443 C 0.03521 0.89415 0.68472 0.0
C444 C 0.04149 0.81777 0.71592 0.0
C445 C 0.05422 0.83202 0.77153 0.0
C446 C 0.05731 0.87748 0.78354 0.0
C447 C 0.04801 0.90798 0.73987 0.0
C448 C 0.03831 0.76956 0.70141 0.0
C449 C 0.07041 0.89393 0.84262 0.0
H450 H 0.02722 0.74936 0.93743 0.0
H451 H 0.14317 0.75296 0.87947 0.0
H452 H 0.99353 0.83496 0.85973 0.0
H453 H 0.98505 0.79231 0.80762 0.0
H454 H 0.97742 0.78199 0.88435 0.0
H455 H 0.16043 0.7829 0.78869 0.0
H456 H 0.12356 0.79446 0.73574 0.0
H457 H 0.13817 0.83614 0.7861 0.0
H458 H 0.02222 0.83806 0.63061 0.0
H459 H 0.05043 0.94276 0.7492 0.0
H460 H 0.01865 0.75324 0.73227 0.0
H461 H 0.06646 0.75351 0.70652 0.0
H462 H 0.02789 0.7639 0.65609 0.0
H463 H 0.05156 0.88103 0.87733 0.0
H464 H 0.07056 0.93035 0.84523 0.0
H465 H 0.09953 0.88177 0.85206 0.0
loop_
_geom_bond_atom_site_label_1
_geom_bond_atom_site_label_2
_geom_bond_distance
_geom_bond_site_symmetry_2
_ccdc_geom_bond_type
H0 C3 0.931 . S
H1 C6 0.928 . S
H2 C8 0.930 . S
C3 H0 0.931 . S
C3 C4 1.413 1_554 S
C3 C5 1.360 . S
C4 C3 1.413 1_556 S
C4 C8 1.429 . S
C5 C3 1.360 . S
C5 C6 1.372 . S
C6 H1 0.928 . S
C6 C5 1.372 . S
C6 C7 1.404 . S
C7 C6 1.404 . S
C7 C8 1.391 1_554 S
C8 H2 0.930 . S
C8 C4 1.429 . S
C8 C7 1.391 1_556 S
H9 C12 0.931 . S
H10 C15 0.928 . S
H11 C17 0.930 . S
C12 H9 0.931 . S
C12 C13 1.413 . S
C12 C14 1.360 . S
C13 C12 1.413 . S
C13 C17 1.429 . S
C14 C12 1.360 . S
C14 C15 1.372 . S
C15 H10 0.928 . S
C15 C14 1.372 . S
C15 C16 1.404 . S
C16 C15 1.404 . S
C16 C17 1.391 . S
C17 H11 0.930 . S
C17 C13 1.429 . S
C17 C16 1.391 . S
H18 C21 0.931 . S
H19 C24 0.928 . S
H20 C26 0.930 . S
C21 H18 0.931 . S
C21 C22 1.413 1_554 S
C21 C23 1.360 . S
C22 C21 1.413 1_556 S
C22 C26 1.429 . S
C23 C21 1.360 . S
C23 C24 1.372 . S
C24 H19 0.928 . S
C24 C23 1.372 . S
C24 C25 1.404 . S
C25 C24 1.404 . S
C25 C26 1.391 1_554 S
C26 H20 0.930 . S
C26 C22 1.429 . S
C26 C25 1.391 1_556 S
H27 C30 0.931 . S
H28 C33 0.928 . S
H29 C35 0.930 . S
C30 H27 0.931 . S
C30 C31 1.413 . S
C30 C32 1.360 . S
C31 C30 1.413 . S
C31 C35 1.429 . S
C32 C30 1.360 . S
C32 C33 1.372 . S
C33 H28 0.928 . S
C33 C32 1.372 . S
C33 C34 1.404 . S
C34 C33 1.404 . S
C34 C35 1.391 . S
C35 H29 0.930 . S
C35 C31 1.429 . S
C35 C34 1.391 . S
O36 Zn37 1.953 1_565 S
O36 C52 1.225 . S
Zn37 O36 1.953 1_545 S
Zn37 O38 1.949 1_655 S
Zn37 O44 1.919 . S
Zn37 O49 1.924 . S
O38 Zn37 1.949 1_455 S
O38 Zn39 1.923 . S
O38 Zn40 1.950 1_445 S
O38 Zn41 1.945 . S
Zn39 O38 1.923 . S
Zn39 O42 1.933 . S
Zn39 O45 1.941 . S
Zn39 O46 1.965 1_545 S
Zn40 O38 1.950 1_665 S
Zn40 O47 1.938 1_655 S
Zn40 O48 1.906 1_655 S
Zn40 O58 1.953 . S
Zn41 O38 1.945 . S
Zn41 O43 1.932 . S
Zn41 O50 1.977 1_545 S
Zn41 O51 1.910 1_455 S
O42 Zn39 1.933 . S
O42 C53 1.226 . S
O43 Zn41 1.932 . S
O43 C53 1.307 . S
O44 Zn37 1.919 . S
O44 C55 1.253 . S
O45 Zn39 1.941 . S
O45 C55 1.283 1_455 S
O46 Zn39 1.965 1_565 S
O46 C54 1.303 . S
O47 Zn40 1.938 1_455 S
O47 C54 1.247 . S
O48 Zn40 1.906 1_455 S
O48 C56 1.304 . S
O49 Zn37 1.924 . S
O49 C57 1.311 . S
O50 Zn41 1.977 1_565 S
O50 C56 1.272 . S
O51 Zn41 1.910 1_655 S
O51 C57 1.231 . S
C52 O36 1.225 . S
C52 O58 1.298 . S
C53 O42 1.226 . S
C53 O43 1.307 . S
C54 O46 1.303 . S
C54 O47 1.247 . S
C55 O44 1.253 . S
C55 O45 1.283 1_655 S
C56 O48 1.304 . S
C56 O50 1.272 . S
C57 O49 1.311 . S
C57 O51 1.231 . S
O58 Zn40 1.953 . S
O58 C52 1.298 . S
O59 Zn60 1.953 . S
O59 C75 1.225 . S
Zn60 O59 1.953 . S
Zn60 O61 1.949 . S
Zn60 O67 1.919 1_554 S
Zn60 O72 1.924 . S
O61 Zn60 1.949 . S
O61 Zn62 1.923 1_554 S
O61 Zn63 1.950 . S
O61 Zn64 1.945 . S
Zn62 O61 1.923 1_556 S
Zn62 O65 1.933 . S
Zn62 O68 1.941 . S
Zn62 O69 1.965 . S
Zn63 O61 1.950 . S
Zn63 O70 1.938 1_554 S
Zn63 O71 1.906 . S
Zn63 O81 1.953 . S
Zn64 O61 1.945 . S
Zn64 O66 1.932 . S
Zn64 O73 1.977 . S
Zn64 O74 1.910 . S
O65 Zn62 1.933 . S
O65 C76 1.226 1_556 S
O66 Zn64 1.932 . S
O66 C76 1.307 . S
O67 Zn60 1.919 1_556 S
O67 C78 1.253 . S
O68 Zn62 1.941 . S
O68 C78 1.283 . S
O69 Zn62 1.965 . S
O69 C77 1.303 . S
O70 Zn63 1.938 1_556 S
O70 C77 1.247 . S
O71 Zn63 1.906 . S
O71 C79 1.304 . S
O72 Zn60 1.924 . S
O72 C80 1.311 . S
O73 Zn64 1.977 . S
O73 C79 1.272 . S
O74 Zn64 1.910 . S
O74 C80 1.231 . S
C75 O59 1.225 . S
C75 O81 1.298 . S
C76 O65 1.226 1_554 S
C76 O66 1.307 . S
C77 O69 1.303 . S
C77 O70 1.247 . S
C78 O67 1.253 . S
C78 O68 1.283 . S
C79 O71 1.304 . S
C79 O73 1.272 . S
C80 O72 1.311 . S
C80 O74 1.231 . S
O81 Zn63 1.953 . S
O81 C75 1.298 . S
C82 C83 1.391 . S
C82 C84 1.394 . S
C82 H98 0.931 . S
C83 C82 1.391 . S
C83 C87 1.376 . S
C84 C82 1.394 . S
C84 C85 1.369 . S
C84 C88 1.531 . S
C85 C84 1.369 . S
C85 C86 1.410 . S
C85 C93 1.503 . S
C86 C85 1.410 . S
C86 C87 1.392 . S
C86 C89 1.511 . S
C87 C83 1.376 . S
C87 C86 1.392 . S
C87 H99 0.929 . S
C88 C84 1.531 . S
C88 H100 0.960 . S
C88 H101 0.962 . S
C88 H102 0.960 . S
C89 C86 1.511 . S
C89 H103 0.961 . S
C89 H104 0.961 . S
C89 H105 0.961 . S
C90 C91 1.370 . S
C90 C92 1.363 . S
C90 H106 0.931 . S
C91 C90 1.370 . S
C91 C95 1.408 . S
C92 C90 1.363 . S
C92 C93 1.370 . S
C92 C96 1.524 . S
C93 C85 1.503 . S
C93 C92 1.370 . S
C93 C94 1.403 . S
C94 C93 1.403 . S
C94 C95 1.404 . S
C94 C97 1.539 . S
C95 C91 1.408 . S
C95 C94 1.404 . S
C95 H107 0.930 . S
C96 C92 1.524 . S
C96 H108 0.956 . S
C96 H109 0.961 . S
C96 H110 0.961 . S
C97 C94 1.539 . S
C97 H111 0.958 . S
C97 H112 0.961 . S
C97 H113 0.960 . S
H98 C82 0.931 . S
H99 C87 0.929 . S
H100 C88 0.960 . S
H101 C88 0.962 . S
H102 C88 0.960 . S
H103 C89 0.961 . S
H104 C89 0.961 . S
H105 C89 0.961 . S
H106 C90 0.931 . S
H107 C95 0.930 . S
H108 C96 0.956 . S
H109 C96 0.961 . S
H110 C96 0.961 . S
H111 C97 0.958 . S
H112 C97 0.961 . S
H113 C97 0.960 . S
C114 C115 1.391 . S
C114 C116 1.394 . S
C114 H130 0.931 . S
C115 C114 1.391 . S
C115 C119 1.376 1_554 S
C116 C114 1.394 . S
C116 C117 1.369 . S
C116 C120 1.531 . S
C117 C116 1.369 . S
C117 C118 1.410 1_554 S
C117 C125 1.503 . S
C118 C117 1.410 1_556 S
C118 C119 1.392 . S
C118 C121 1.511 . S
C119 C115 1.376 1_556 S
C119 C118 1.392 . S
C119 H131 0.929 . S
C120 C116 1.531 . S
C120 H132 0.960 . S
C120 H133 0.962 . S
C120 H134 0.960 . S
C121 C118 1.511 . S
C121 H135 0.961 . S
C121 H136 0.961 . S
C121 H137 0.961 . S
C122 C123 1.370 1_556 S
C122 C124 1.363 . S
C122 H138 0.931 . S
C123 C122 1.370 1_554 S
C123 C127 1.408 . S
C124 C122 1.363 . S
C124 C125 1.370 1_556 S
C124 C128 1.524 . S
C125 C117 1.503 . S
C125 C124 1.370 1_554 S
C125 C126 1.403 . S
C126 C125 1.403 . S
C126 C127 1.404 . S
C126 C129 1.539 . S
C127 C123 1.408 . S
C127 C126 1.404 . S
C127 H139 0.930 . S
C128 C124 1.524 . S
C128 H140 0.956 . S
C128 H141 0.961 . S
C128 H142 0.961 . S
C129 C126 1.539 . S
C129 H143 0.958 . S
C129 H144 0.961 . S
C129 H145 0.960 . S
H130 C114 0.931 . S
H131 C119 0.929 . S
H132 C120 0.960 . S
H133 C120 0.962 . S
H134 C120 0.960 . S
H135 C121 0.961 . S
H136 C121 0.961 . S
H137 C121 0.961 . S
H138 C122 0.931 . S
H139 C127 0.930 . S
H140 C128 0.956 . S
H141 C128 0.961 . S
H142 C128 0.961 . S
H143 C129 0.958 . S
H144 C129 0.961 . S
H145 C129 0.960 . S
C146 C147 1.391 . S
C146 C148 1.394 . S
C146 H162 0.931 . S
C147 C146 1.391 . S
C147 C151 1.376 . S
C148 C146 1.394 . S
C148 C149 1.369 . S
C148 C152 1.531 . S
C149 C148 1.369 . S
C149 C150 1.410 . S
C149 C157 1.503 . S
C150 C149 1.410 . S
C150 C151 1.392 . S
C150 C153 1.511 . S
C151 C147 1.376 . S
C151 C150 1.392 . S
C151 H163 0.929 . S
C152 C148 1.531 . S
C152 H164 0.960 . S
C152 H165 0.962 . S
C152 H166 0.960 . S
C153 C150 1.511 . S
C153 H167 0.961 . S
C153 H168 0.961 . S
C153 H169 0.961 . S
C154 C155 1.370 . S
C154 C156 1.363 . S
C154 H170 0.931 . S
C155 C154 1.370 . S
C155 C159 1.408 . S
C156 C154 1.363 . S
C156 C157 1.370 . S
C156 C160 1.524 . S
C157 C149 1.503 . S
C157 C156 1.370 . S
C157 C158 1.403 . S
C158 C157 1.403 . S
C158 C159 1.404 . S
C158 C161 1.539 . S
C159 C155 1.408 . S
C159 C158 1.404 . S
C159 H171 0.930 . S
C160 C156 1.524 . S
C160 H172 0.956 . S
C160 H173 0.961 . S
C160 H174 0.961 . S
C161 C158 1.539 . S
C161 H175 0.958 . S
C161 H176 0.961 . S
C161 H177 0.960 . S
H162 C146 0.931 . S
H163 C151 0.929 . S
H164 C152 0.960 . S
H165 C152 0.962 . S
H166 C152 0.960 . S
H167 C153 0.961 . S
H168 C153 0.961 . S
H169 C153 0.961 . S
H170 C154 0.931 . S
H171 C159 0.930 . S
H172 C160 0.956 . S
H173 C160 0.961 . S
H174 C160 0.961 . S
H175 C161 0.958 . S
H176 C161 0.961 . S
H177 C161 0.960 . S
C178 C179 1.391 1_556 S
C178 C180 1.394 . S
C178 H194 0.931 . S
C179 C178 1.391 1_554 S
C179 C183 1.376 . S
C180 C178 1.394 . S
C180 C181 1.369 1_556 S
C180 C184 1.531 . S
C181 C180 1.369 1_554 S
C181 C182 1.410 . S
C181 C189 1.503 . S
C182 C181 1.410 . S
C182 C183 1.392 . S
C182 C185 1.511 . S
C183 C179 1.376 . S
C183 C182 1.392 . S
C183 H195 0.929 . S
C184 C180 1.531 . S
C184 H196 0.960 . S
C184 H197 0.962 . S
C184 H198 0.960 . S
C185 C182 1.511 . S
C185 H199 0.961 . S
C185 H200 0.961 . S
C185 H201 0.961 . S
C186 C187 1.370 . S
C186 C188 1.363 . S
C186 H202 0.931 . S
C187 C186 1.370 . S
C187 C191 1.408 1_554 S
C188 C186 1.363 . S
C188 C189 1.370 . S
C188 C192 1.524 . S
C189 C181 1.503 . S
C189 C188 1.370 . S
C189 C190 1.403 1_554 S
C190 C189 1.403 1_556 S
C190 C191 1.404 . S
C190 C193 1.539 . S
C191 C187 1.408 1_556 S
C191 C190 1.404 . S
C191 H203 0.930 . S
C192 C188 1.524 . S
C192 H204 0.956 . S
C192 H205 0.961 . S
C192 H206 0.961 . S
C193 C190 1.539 . S
C193 H207 0.958 . S
C193 H208 0.961 . S
C193 H209 0.960 . S
H194 C178 0.931 . S
H195 C183 0.929 . S
H196 C184 0.960 . S
H197 C184 0.962 . S
H198 C184 0.960 . S
H199 C185 0.961 . S
H200 C185 0.961 . S
H201 C185 0.961 . S
H202 C186 0.931 . S
H203 C191 0.930 . S
H204 C192 0.956 . S
H205 C192 0.961 . S
H206 C192 0.961 . S
H207 C193 0.958 . S
H208 C193 0.961 . S
H209 C193 0.960 . S
C210 C211 1.391 . S
C210 C212 1.394 . S
C210 H226 0.931 . S
C211 C210 1.391 . S
C211 C215 1.376 . S
C212 C210 1.394 . S
C212 C213 1.369 . S
C212 C216 1.531 . S
C213 C212 1.369 . S
C213 C214 1.410 . S
C213 C221 1.503 . S
C214 C213 1.410 . S
C214 C215 1.392 . S
C214 C217 1.511 . S
C215 C211 1.376 . S
C215 C214 1.392 . S
C215 H227 0.929 . S
C216 C212 1.531 . S
C216 H228 0.960 . S
C216 H229 0.962 . S
C216 H230 0.960 . S
C217 C214 1.511 . S
C217 H231 0.961 . S
C217 H232 0.961 . S
C217 H233 0.961 . S
C218 C219 1.370 . S
C218 C220 1.363 . S
C218 H234 0.931 . S
C219 C218 1.370 . S
C219 C223 1.408 . S
C220 C218 1.363 . S
C220 C221 1.370 . S
C220 C224 1.524 . S
C221 C213 1.503 . S
C221 C220 1.370 . S
C221 C222 1.403 . S
C222 C221 1.403 . S
C222 C223 1.404 . S
C222 C225 1.539 . S
C223 C219 1.408 . S
C223 C222 1.404 . S
C223 H235 0.930 . S
C224 C220 1.524 . S
C224 H236 0.956 . S
C224 H237 0.961 . S
C224 H238 0.961 . S
C225 C222 1.539 . S
C225 H239 0.958 . S
C225 H240 0.961 . S
C225 H241 0.960 . S
H226 C210 0.931 . S
H227 C215 0.929 . S
H228 C216 0.960 . S
H229 C216 0.962 . S
H230 C216 0.960 . S
H231 C217 0.961 . S
H232 C217 0.961 . S
H233 C217 0.961 . S
H234 C218 0.931 . S
H235 C223 0.930 . S
H236 C224 0.956 . S
H237 C224 0.961 . S
H238 C224 0.961 . S
H239 C225 0.958 . S
H240 C225 0.961 . S
H241 C225 0.960 . S
C242 C243 1.391 . S
C242 C244 1.394 . S
C242 H258 0.931 . S
C243 C242 1.391 . S
C243 C247 1.376 . S
C244 C242 1.394 . S
C244 C245 1.369 . S
C244 C248 1.531 . S
C245 C244 1.369 . S
C245 C246 1.410 . S
C245 C253 1.503 . S
C246 C245 1.410 . S
C246 C247 1.392 . S
C246 C249 1.511 . S
C247 C243 1.376 . S
C247 C246 1.392 . S
C247 H259 0.929 . S
C248 C244 1.531 . S
C248 H260 0.960 . S
C248 H261 0.962 . S
C248 H262 0.960 . S
C249 C246 1.511 . S
C249 H263 0.961 . S
C249 H264 0.961 . S
C249 H265 0.961 . S
C250 C251 1.370 . S
C250 C252 1.363 . S
C250 H266 0.931 . S
C251 C250 1.370 . S
C251 C255 1.408 . S
C252 C250 1.363 . S
C252 C253 1.370 . S
C252 C256 1.524 . S
C253 C245 1.503 . S
C253 C252 1.370 . S
C253 C254 1.403 . S
C254 C253 1.403 . S
C254 C255 1.404 . S
C254 C257 1.539 . S
C255 C251 1.408 . S
C255 C254 1.404 . S
C255 H267 0.930 . S
C256 C252 1.524 . S
C256 H268 0.956 . S
C256 H269 0.961 . S
C256 H270 0.961 . S
C257 C254 1.539 . S
C257 H271 0.958 . S
C257 H272 0.961 . S
C257 H273 0.960 . S
H258 C242 0.931 . S
H259 C247 0.929 . S
H260 C248 0.960 . S
H261 C248 0.962 . S
H262 C248 0.960 . S
H263 C249 0.961 . S
H264 C249 0.961 . S
H265 C249 0.961 . S
H266 C250 0.931 . S
H267 C255 0.930 . S
H268 C256 0.956 . S
H269 C256 0.961 . S
H270 C256 0.961 . S
H271 C257 0.958 . S
H272 C257 0.961 . S
H273 C257 0.960 . S
C274 C275 1.391 . S
C274 C276 1.394 . S
C274 H290 0.931 . S
C275 C274 1.391 . S
C275 C279 1.376 . S
C276 C274 1.394 . S
C276 C277 1.369 . S
C276 C280 1.531 . S
C277 C276 1.369 . S
C277 C278 1.410 . S
C277 C285 1.503 . S
C278 C277 1.410 . S
C278 C279 1.392 . S
C278 C281 1.511 . S
C279 C275 1.376 . S
C279 C278 1.392 . S
C279 H291 0.929 . S
C280 C276 1.531 . S
C280 H292 0.960 . S
C280 H293 0.962 . S
C280 H294 0.960 . S
C281 C278 1.511 . S
C281 H295 0.961 . S
C281 H296 0.961 . S
C281 H297 0.958 1_655 S
C282 C283 1.370 . S
C282 C284 1.363 . S
C282 H298 0.931 . S
C283 C282 1.370 . S
C283 C287 1.408 . S
C284 C282 1.363 . S
C284 C285 1.370 . S
C284 C288 1.524 . S
C285 C277 1.503 . S
C285 C284 1.370 . S
C285 C286 1.403 . S
C286 C285 1.403 . S
C286 C287 1.404 . S
C286 C289 1.539 . S
C287 C283 1.408 . S
C287 C286 1.404 . S
C287 H299 0.930 . S
C288 C284 1.524 . S
C288 H300 0.956 . S
C288 H301 0.961 . S
C288 H302 0.961 . S
C289 C286 1.539 . S
C289 H303 0.958 . S
C289 H304 0.961 1_655 S
C289 H305 0.960 . S
H290 C274 0.931 . S
H291 C279 0.929 . S
H292 C280 0.960 . S
H293 C280 0.962 . S
H294 C280 0.960 . S
H295 C281 0.961 . S
H296 C281 0.961 . S
H297 C281 0.958 1_455 S
H298 C282 0.931 . S
H299 C287 0.930 . S
H300 C288 0.956 . S
H301 C288 0.961 . S
H302 C288 0.961 . S
H303 C289 0.958 . S
H304 C289 0.961 1_455 S
H305 C289 0.960 . S
C306 C307 1.391 . S
C306 C308 1.394 . S
C306 H322 0.931 . S
C307 C306 1.391 . S
C307 C311 1.376 . S
C308 C306 1.394 . S
C308 C309 1.369 . S
C308 C312 1.531 . S
C309 C308 1.369 . S
C309 C310 1.410 . S
C309 C317 1.503 . S
C310 C309 1.410 . S
C310 C311 1.392 . S
C310 C313 1.511 . S
C311 C307 1.376 . S
C311 C310 1.392 . S
C311 H323 0.929 . S
C312 C308 1.531 . S
C312 H324 0.960 . S
C312 H325 0.962 . S
C312 H326 0.960 . S
C313 C310 1.511 . S
C313 H327 0.961 . S
C313 H328 0.961 . S
C313 H329 0.961 . S
C314 C315 1.370 . S
C314 C316 1.363 . S
C314 H330 0.931 . S
C315 C314 1.370 . S
C315 C319 1.408 . S
C316 C314 1.363 . S
C316 C317 1.370 . S
C316 C320 1.524 . S
C317 C309 1.503 . S
C317 C316 1.370 . S
C317 C318 1.403 . S
C318 C317 1.403 . S
C318 C319 1.404 . S
C318 C321 1.539 . S
C319 C315 1.408 . S
C319 C318 1.404 . S
C319 H331 0.930 . S
C320 C316 1.524 . S
C320 H332 0.956 . S
C320 H333 0.961 . S
C320 H334 0.961 . S
C321 C318 1.539 . S
C321 H335 0.958 . S
C321 H336 0.961 . S
C321 H337 0.960 . S
H322 C306 0.931 . S
H323 C311 0.929 . S
H324 C312 0.960 . S
H325 C312 0.962 . S
H326 C312 0.960 . S
H327 C313 0.961 . S
H328 C313 0.961 . S
H329 C313 0.961 . S
H330 C314 0.931 . S
H331 C319 0.930 . S
H332 C320 0.956 . S
H333 C320 0.961 . S
H334 C320 0.961 . S
H335 C321 0.958 . S
H336 C321 0.961 . S
H337 C321 0.960 . S
C338 C339 1.391 . S
C338 C340 1.394 . S
C338 H354 0.931 . S
C339 C338 1.391 . S
C339 C343 1.376 . S
C340 C338 1.394 . S
C340 C341 1.369 . S
C340 C344 1.531 . S
C341 C340 1.369 . S
C341 C342 1.410 . S
C341 C349 1.503 . S
C342 C341 1.410 . S
C342 C343 1.392 . S
C342 C345 1.511 . S
C343 C339 1.376 . S
C343 C342 1.392 . S
C343 H355 0.929 . S
C344 C340 1.531 . S
C344 H356 0.960 . S
C344 H357 0.962 . S
C344 H358 0.960 . S
C345 C342 1.511 . S
C345 H359 0.961 . S
C345 H360 0.961 . S
C345 H361 0.961 . S
C346 C347 1.370 . S
C346 C348 1.363 . S
C346 H362 0.931 . S
C347 C346 1.370 . S
C347 C351 1.408 . S
C348 C346 1.363 . S
C348 C349 1.370 . S
C348 C352 1.524 . S
C349 C341 1.503 . S
C349 C348 1.370 . S
C349 C350 1.403 . S
C350 C349 1.403 . S
C350 C351 1.404 . S
C350 C353 1.539 . S
C351 C347 1.408 . S
C351 C350 1.404 . S
C351 H363 0.930 . S
C352 C348 1.524 . S
C352 H364 0.956 . S
C352 H365 0.961 . S
C352 H366 0.961 . S
C353 C350 1.539 . S
C353 H367 0.958 . S
C353 H368 0.961 . S
C353 H369 0.960 . S
H354 C338 0.931 . S
H355 C343 0.929 . S
H356 C344 0.960 . S
H357 C344 0.962 . S
H358 C344 0.960 . S
H359 C345 0.961 . S
H360 C345 0.961 . S
H361 C345 0.961 . S
H362 C346 0.931 . S
H363 C351 0.930 . S
H364 C352 0.956 . S
H365 C352 0.961 . S
H366 C352 0.961 . S
H367 C353 0.958 . S
H368 C353 0.961 . S
H369 C353 0.960 . S
C370 C371 1.391 . S
C370 C372 1.394 . S
C370 H386 0.931 . S
C371 C370 1.391 . S
C371 C375 1.376 . S
C372 C370 1.394 . S
C372 C373 1.369 . S
C372 C376 1.531 1_655 S
C373 C372 1.369 . S
C373 C374 1.410 . S
C373 C381 1.503 . S
C374 C373 1.410 . S
C374 C375 1.392 . S
C374 C377 1.511 . S
C375 C371 1.376 . S
C375 C374 1.392 . S
C375 H387 0.929 . S
C376 C372 1.531 1_455 S
C376 H388 0.960 . S
C376 H389 0.962 . S
C376 H390 0.960 . S
C377 C374 1.511 . S
C377 H391 0.961 . S
C377 H392 0.961 . S
C377 H393 0.961 . S
C378 C379 1.370 . S
C378 C380 1.363 . S
C378 H394 0.931 . S
C379 C378 1.370 . S
C379 C383 1.408 . S
C380 C378 1.363 . S
C380 C381 1.370 . S
C380 C384 1.524 . S
C381 C373 1.503 . S
C381 C380 1.370 . S
C381 C382 1.403 . S
C382 C381 1.403 . S
C382 C383 1.404 . S
C382 C385 1.539 . S
C383 C379 1.408 . S
C383 C382 1.404 . S
C383 H395 0.930 . S
C384 C380 1.524 . S
C384 H396 0.956 . S
C384 H397 0.961 . S
C384 H398 0.961 . S
C385 C382 1.539 . S
C385 H399 0.958 . S
C385 H400 0.961 . S
C385 H401 0.960 . S
H386 C370 0.931 . S
H387 C375 0.929 . S
H388 C376 0.960 . S
H389 C376 0.962 . S
H390 C376 0.960 . S
H391 C377 0.961 . S
H392 C377 0.961 . S
H393 C377 0.961 . S
H394 C378 0.931 . S
H395 C383 0.930 . S
H396 C384 0.956 . S
H397 C384 0.961 . S
H398 C384 0.961 . S
H399 C385 0.958 . S
H400 C385 0.961 . S
H401 C385 0.960 . S
C402 C403 1.391 . S
C402 C404 1.394 . S
C402 H418 0.931 . S
C403 C402 1.391 . S
C403 C407 1.376 . S
C404 C402 1.394 . S
C404 C405 1.369 . S
C404 C408 1.531 . S
C405 C404 1.369 . S
C405 C406 1.410 . S
C405 C413 1.503 . S
C406 C405 1.410 . S
C406 C407 1.392 . S
C406 C409 1.511 . S
C407 C403 1.376 . S
C407 C406 1.392 . S
C407 H419 0.929 . S
C408 C404 1.531 . S
C408 H420 0.960 . S
C408 H421 0.962 . S
C408 H422 0.960 . S
C409 C406 1.511 . S
C409 H423 0.961 . S
C409 H424 0.961 . S
C409 H425 0.961 . S
C410 C411 1.370 . S
C410 C412 1.363 . S
C410 H426 0.931 . S
C411 C410 1.370 . S
C411 C415 1.408 . S
C412 C410 1.363 . S
C412 C413 1.370 . S
C412 C416 1.524 . S
C413 C405 1.503 . S
C413 C412 1.370 . S
C413 C414 1.403 . S
C414 C413 1.403 . S
C414 C415 1.404 . S
C414 C417 1.539 . S
C415 C411 1.408 . S
C415 C414 1.404 . S
C415 H427 0.930 . S
C416 C412 1.524 . S
C416 H428 0.956 . S
C416 H429 0.961 . S
C416 H430 0.961 . S
C417 C414 1.539 . S
C417 H431 0.958 . S
C417 H432 0.961 . S
C417 H433 0.960 . S
H418 C402 0.931 . S
H419 C407 0.929 . S
H420 C408 0.960 . S
H421 C408 0.962 . S
H422 C408 0.960 . S
H423 C409 0.961 . S
H424 C409 0.961 . S
H425 C409 0.961 . S
H426 C410 0.931 . S
H427 C415 0.930 . S
H428 C416 0.956 . S
H429 C416 0.961 . S
H430 C416 0.961 . S
H431 C417 0.958 . S
H432 C417 0.961 . S
H433 C417 0.960 . S
C434 C435 1.391 . S
C434 C436 1.394 . S
C434 H450 0.931 . S
C435 C434 1.391 . S
C435 C439 1.376 . S
C436 C434 1.394 . S
C436 C437 1.369 . S
C436 C440 1.527 1_455 S
C437 C436 1.369 . S
C437 C438 1.410 . S
C437 C445 1.503 . S
C438 C437 1.410 . S
C438 C439 1.392 . S
C438 C441 1.511 . S
C439 C435 1.376 . S
C439 C438 1.392 . S
C439 H451 0.929 . S
C440 C436 1.527 1_655 S
C440 H452 0.960 . S
C440 H453 0.964 . S
C440 H454 0.962 . S
C441 C438 1.511 . S
C441 H455 0.961 . S
C441 H456 0.961 . S
C441 H457 0.961 . S
C442 C443 1.370 . S
C442 C444 1.363 . S
C442 H458 0.931 . S
C443 C442 1.370 . S
C443 C447 1.408 . S
C444 C442 1.363 . S
C444 C445 1.370 . S
C444 C448 1.524 . S
C445 C437 1.503 . S
C445 C444 1.370 . S
C445 C446 1.403 . S
C446 C445 1.403 . S
C446 C447 1.404 . S
C446 C449 1.539 . S
C447 C443 1.408 . S
C447 C446 1.404 . S
C447 H459 0.930 . S
C448 C444 1.524 . S
C448 H460 0.956 . S
C448 H461 0.961 . S
C448 H462 0.961 . S
C449 C446 1.539 . S
C449 H463 0.958 . S
C449 H464 0.961 . S
C449 H465 0.960 . S
H450 C434 0.931 . S
H451 C439 0.929 . S
H452 C440 0.960 . S
H453 C440 0.964 . S
H454 C440 0.962 . S
H455 C441 0.961 . S
H456 C441 0.961 . S
H457 C441 0.961 . S
H458 C442 0.931 . S
H459 C447 0.930 . S
H460 C448 0.956 . S
H461 C448 0.961 . S
H462 C448 0.961 . S
H463 C449 0.958 . S
H464 C449 0.961 . S
H465 C449 0.960 . S
C91 C53 1.529 . S
C83 C34 1.509 . S
C115 C7 1.520 . S
C123 C76 1.526 . S
C147 C16 1.536 . S
C155 C52 1.544 . S
C179 C25 1.509 . S
C187 C75 1.547 . S
C219 C56 1.497 . S
C211 C5 1.518 . S
C251 C78 1.501 . S
C243 C13 1.533 . S
C275 C23 1.527 . S
C283 C57 1.491 . S
C307 C32 1.520 . S
C315 C77 1.500 . S
C347 C80 1.499 . S
C339 C14 1.532 . S
C379 C55 1.494 . S
C371 C22 1.527 . S
C411 C79 1.495 . S
C403 C31 1.523 . S
C435 C4 1.513 . S
C443 C54 1.500 . S
