# Generated by pormake.
# Topology nom, (4,4)-cn, num edge types: 1
# Building blocks:
#     Node 0, Type 0, BuildingBlock: MUDLON_clean_linker_0, # of connection points: 4
#     Node 1, Type 0, BuildingBlock: MUDLON_clean_linker_0, # of connection points: 4
#     Node 2, Type 0, BuildingBlock: MUDLON_clean_linker_0, # of connection points: 4
#     Node 3, Type 0, BuildingBlock: MUDLON_clean_linker_0, # of connection points: 4
#     Node 4, Type 0, BuildingBlock: MUDLON_clean_linker_0, # of connection points: 4
#     Node 5, Type 0, BuildingBlock: MUDLON_clean_linker_0, # of connection points: 4
#     Node 6, Type 1, BuildingBlock: TATPOV_clean_sbu_0, # of connection points: 4
#     Node 7, Type 1, BuildingBlock: TATPOV_clean_sbu_0, # of connection points: 4
#     Node 8, Type 1, BuildingBlock: TATPOV_clean_sbu_0, # of connection points: 4
#     Node 9, Type 1, BuildingBlock: TATPOV_clean_sbu_0, # of connection points: 4
#     Node 10, Type 1, BuildingBlock: TATPOV_clean_sbu_0, # of connection points: 4
#     Node 11, Type 1, BuildingBlock: TATPOV_clean_sbu_0, # of connection points: 4
#     Edge 12, Type (0, 1), BuildingBlock: AJUNOK_clean_linker_0, # of connection points: 2
#     Edge 13, Type (0, 1), BuildingBlock: AJUNOK_clean_linker_0, # of connection points: 2
#     Edge 14, Type (0, 1), BuildingBlock: AJUNOK_clean_linker_0, # of connection points: 2
#     Edge 15, Type (0, 1), BuildingBlock: AJUNOK_clean_linker_0, # of connection points: 2
#     Edge 16, Type (0, 1), BuildingBlock: AJUNOK_clean_linker_0, # of connection points: 2
#     Edge 17, Type (0, 1), BuildingBlock: AJUNOK_clean_linker_0, # of connection points: 2
#     Edge 18, Type (0, 1), BuildingBlock: AJUNOK_clean_linker_0, # of connection points: 2
#     Edge 19, Type (0, 1), BuildingBlock: AJUNOK_clean_linker_0, # of connection points: 2
#     Edge 20, Type (0, 1), BuildingBlock: AJUNOK_clean_linker_0, # of connection points: 2
#     Edge 21, Type (0, 1), BuildingBlock: AJUNOK_clean_linker_0, # of connection points: 2
#     Edge 22, Type (0, 1), BuildingBlock: AJUNOK_clean_linker_0, # of connection points: 2
#     Edge 23, Type (0, 1), BuildingBlock: AJUNOK_clean_linker_0, # of connection points: 2
#     Edge 24, Type (0, 1), BuildingBlock: AJUNOK_clean_linker_0, # of connection points: 2
#     Edge 25, Type (0, 1), BuildingBlock: AJUNOK_clean_linker_0, # of connection points: 2
#     Edge 26, Type (0, 1), BuildingBlock: AJUNOK_clean_linker_0, # of connection points: 2
#     Edge 27, Type (0, 1), BuildingBlock: AJUNOK_clean_linker_0, # of connection points: 2
#     Edge 28, Type (0, 1), BuildingBlock: AJUNOK_clean_linker_0, # of connection points: 2
#     Edge 29, Type (0, 1), BuildingBlock: AJUNOK_clean_linker_0, # of connection points: 2
#     Edge 30, Type (0, 1), BuildingBlock: AJUNOK_clean_linker_0, # of connection points: 2
#     Edge 31, Type (0, 1), BuildingBlock: AJUNOK_clean_linker_0, # of connection points: 2
#     Edge 32, Type (0, 1), BuildingBlock: AJUNOK_clean_linker_0, # of connection points: 2
#     Edge 33, Type (0, 1), BuildingBlock: AJUNOK_clean_linker_0, # of connection points: 2
#     Edge 34, Type (0, 1), BuildingBlock: AJUNOK_clean_linker_0, # of connection points: 2
#     Edge 35, Type (0, 1), BuildingBlock: AJUNOK_clean_linker_0, # of connection points: 2
# Relax obj value: 0.024
# Max RMSD: 0.121
# Mean RMSD: 0.105
data_MOF--net-nom--node1-TATPOV_clean_sbu_0--node2-MUDLON_clean_linker_0--edge1-AJUNOK_clean_linker_0
_symmetry_space_group_name_H-M    P1
_symmetry_Int_Tables_number       1
_symmetry_cell_setting            triclinic
loop_
_symmetry_equiv_pos_as_xyz
'x, y, z'
_cell_length_a     48.116579
_cell_length_b     49.398376
_cell_length_c     48.192072
_cell_angle_alpha  91.038943
_cell_angle_beta   90.585849
_cell_angle_gamma 120.47566
loop_
_atom_site_label
_atom_site_type_symbol
_atom_site_fract_x
_atom_site_fract_y
_atom_site_fract_z
_atom_type_partial_charge
H0 H 0.18777 0.55468 0.31621 0.0
N1 N 0.12865 0.54144 0.3283 0.0
H2 H 0.22744 0.59837 0.28934 0.0
H3 H 0.11608 0.57909 0.29454 0.0
H4 H 0.155 0.62147 0.26658 0.0
H5 H 0.13994 0.59813 0.34935 0.0
H6 H 0.16027 0.61994 0.3958 0.0
H7 H 0.13867 0.51307 0.37052 0.0
H8 H 0.15836 0.53461 0.41767 0.0
H9 H 0.09495 0.48343 0.30682 0.0
H10 H 0.08463 0.56039 0.33723 0.0
H11 H 0.03666 0.45201 0.298 0.0
H12 H 0.02698 0.53 0.32742 0.0
H13 H 0.84274 0.37015 0.25871 0.0
H14 H 0.82082 0.37343 0.21355 0.0
H15 H 0.89404 0.47157 0.21045 0.0
H16 H 0.91477 0.46856 0.25595 0.0
H17 H 0.88258 0.46876 0.29586 0.0
H18 H 0.84313 0.47276 0.32411 0.0
H19 H 0.81021 0.37983 0.35468 0.0
H20 H 0.84896 0.37536 0.32495 0.0
H21 H 0.93602 0.41588 0.26035 0.0
H22 H 0.99407 0.44627 0.26899 0.0
H23 H 0.97903 0.48695 0.34332 0.0
N24 N 0.88923 0.41717 0.28925 0.0
H25 H 0.92174 0.45801 0.33429 0.0
C26 C 0.14884 0.56324 0.30759 0.0
C27 C 0.18024 0.56868 0.30484 0.0
C28 C 0.20285 0.59359 0.2893 0.0
C29 C 0.19434 0.61333 0.27561 0.0
C30 C 0.16236 0.60681 0.27703 0.0
C31 C 0.13989 0.58222 0.29298 0.0
C32 C 0.13791 0.55388 0.35638 0.0
C33 C 0.14361 0.58392 0.3641 0.0
C34 C 0.15522 0.59639 0.39073 0.0
C35 C 0.16129 0.57913 0.41027 0.0
C36 C 0.15458 0.54871 0.40285 0.0
C37 C 0.14306 0.53627 0.3761 0.0
C38 C 0.09429 0.5242 0.32262 0.0
C39 C 0.08012 0.49362 0.31133 0.0
C40 C 0.04683 0.47581 0.30616 0.0
C41 C 0.02695 0.4884 0.312 0.0
C42 C 0.04132 0.51924 0.32314 0.0
C43 C 0.07451 0.53684 0.3286 0.0
C44 C 0.88033 0.41894 0.2608 0.0
C45 C 0.85429 0.39222 0.24805 0.0
C46 C 0.84184 0.39414 0.22228 0.0
C47 C 0.85534 0.42291 0.20872 0.0
C48 C 0.88258 0.44928 0.22075 0.0
C49 C 0.89471 0.44747 0.24666 0.0
C50 C 0.86853 0.42153 0.30812 0.0
C51 C 0.86697 0.44924 0.30862 0.0
C52 C 0.84469 0.45169 0.32518 0.0
C53 C 0.82381 0.42676 0.34196 0.0
C54 C 0.82596 0.39941 0.34196 0.0
C55 C 0.84812 0.39686 0.32515 0.0
C56 C 0.9238 0.43536 0.29558 0.0
C57 C 0.94518 0.43173 0.27829 0.0
C58 C 0.97848 0.4489 0.28346 0.0
C59 C 0.99142 0.46955 0.30664 0.0
C60 C 0.9701 0.47213 0.32473 0.0
C61 C 0.93685 0.45528 0.31941 0.0
H62 H 0.49439 0.88634 0.50105 0.0
N63 N 0.4843 0.9143 0.45857 0.0
H64 H 0.45376 0.84612 0.53071 0.0
H65 H 0.41975 0.89551 0.45975 0.0
H66 H 0.37941 0.85481 0.488 0.0
H67 H 0.44768 0.9264 0.42266 0.0
H68 H 0.4289 0.90319 0.3764 0.0
H69 H 0.50319 0.88041 0.42948 0.0
H70 H 0.4869 0.85929 0.38193 0.0
H71 H 0.5464 0.95554 0.45337 0.0
H72 H 0.4563 0.94894 0.47427 0.0
H73 H 0.57388 0.01265 0.4589 0.0
H74 H 0.48368 0.00566 0.48122 0.0
H75 H 0.64345 0.19254 0.52274 0.0
H76 H 0.6403 0.20909 0.57017 0.0
H77 H 0.54029 0.13533 0.57233 0.0
H78 H 0.54307 0.12043 0.52441 0.0
H79 H 0.54795 0.16169 0.48643 0.0
H80 H 0.54985 0.20386 0.4591 0.0
H81 H 0.64175 0.22429 0.42692 0.0
H82 H 0.63938 0.1817 0.45395 0.0
H83 H 0.61914 0.10999 0.50017 0.0
H84 H 0.59176 0.05313 0.49272 0.0
H85 H 0.5089 0.05396 0.45816 0.0
N86 N 0.59612 0.14776 0.49138 0.0
H87 H 0.53586 0.11045 0.46697 0.0
C88 C 0.46037 0.89383 0.47791 0.0
C89 C 0.46937 0.87991 0.49853 0.0
C90 C 0.4461 0.85672 0.5152 0.0
C91 C 0.41324 0.84678 0.51131 0.0
C92 C 0.40449 0.86191 0.4916 0.0
C93 C 0.42772 0.8852 0.47518 0.0
C94 C 0.47617 0.90436 0.42984 0.0
C95 C 0.45611 0.91152 0.41409 0.0
C96 C 0.44568 0.89848 0.38741 0.0
C97 C 0.45576 0.8787 0.37558 0.0
C98 C 0.47758 0.87334 0.39074 0.0
C99 C 0.4873 0.88572 0.41775 0.0
C100 C 0.49947 0.94776 0.46374 0.0
C101 C 0.53266 0.96642 0.45958 0.0
C102 C 0.54832 0.99907 0.46287 0.0
C103 C 0.53111 0.01394 0.47068 0.0
C104 C 0.49771 0.99517 0.47485 0.0
C105 C 0.48199 0.96247 0.47121 0.0
C106 C 0.59379 0.15505 0.52011 0.0
C107 C 0.62098 0.17981 0.53362 0.0
C108 C 0.61919 0.189 0.56082 0.0
C109 C 0.59019 0.17314 0.57527 0.0
C110 C 0.56299 0.14805 0.56178 0.0
C111 C 0.56463 0.13929 0.5344 0.0
C112 C 0.59361 0.16849 0.47211 0.0
C113 C 0.56806 0.17464 0.4729 0.0
C114 C 0.56925 0.19886 0.4574 0.0
C115 C 0.59588 0.21731 0.44078 0.0
C116 C 0.62059 0.2101 0.43905 0.0
C117 C 0.61936 0.18588 0.45453 0.0
C118 C 0.57993 0.11469 0.48392 0.0
C119 C 0.59519 0.09786 0.49073 0.0
C120 C 0.57948 0.06534 0.48634 0.0
C121 C 0.54804 0.04878 0.47475 0.0
C122 C 0.53289 0.06578 0.46749 0.0
C123 C 0.54854 0.09834 0.47219 0.0
H124 H 0.48111 0.66267 0.63923 0.0
N125 N 0.47503 0.61014 0.65852 0.0
H126 H 0.44188 0.66842 0.61098 0.0
H127 H 0.42071 0.56188 0.63262 0.0
H128 H 0.3814 0.5675 0.60441 0.0
H129 H 0.41693 0.57129 0.68238 0.0
H130 H 0.40323 0.57286 0.73057 0.0
H131 H 0.51281 0.6497 0.69894 0.0
H132 H 0.49902 0.65128 0.74778 0.0
H133 H 0.52995 0.62576 0.63378 0.0
H134 H 0.44699 0.54705 0.66907 0.0
H135 H 0.55467 0.59348 0.62695 0.0
H136 H 0.472 0.51521 0.6637 0.0
H137 H 0.64203 0.50121 0.62661 0.0
H138 H 0.66117 0.49376 0.58172 0.0
H139 H 0.56358 0.44718 0.54865 0.0
H140 H 0.54461 0.45436 0.59349 0.0
H141 H 0.53399 0.42069 0.63257 0.0
H142 H 0.52721 0.37653 0.65941 0.0
H143 H 0.60302 0.44072 0.71644 0.0
H144 H 0.61036 0.48499 0.68875 0.0
H145 H 0.6071 0.54263 0.65259 0.0
H146 H 0.57967 0.57276 0.65491 0.0
H147 H 0.48924 0.48854 0.63334 0.0
N148 N 0.58178 0.48211 0.64053 0.0
H149 H 0.5168 0.45848 0.63243 0.0
C150 C 0.4539 0.61201 0.63819 0.0
C151 C 0.45972 0.64182 0.63117 0.0
C152 C 0.43732 0.64504 0.61507 0.0
C153 C 0.40844 0.6184 0.60585 0.0
C154 C 0.40327 0.58842 0.61165 0.0
C155 C 0.42585 0.58521 0.62764 0.0
C156 C 0.46608 0.61047 0.68697 0.0
C157 C 0.43512 0.58887 0.69631 0.0
C158 C 0.42729 0.5897 0.72395 0.0
C159 C 0.45007 0.6122 0.74282 0.0
C160 C 0.48095 0.6339 0.73354 0.0
C161 C 0.48886 0.63294 0.70581 0.0
C162 C 0.48689 0.58917 0.65219 0.0
C163 C 0.51702 0.60148 0.63991 0.0
C164 C 0.53122 0.58305 0.63634 0.0
C165 C 0.51563 0.55182 0.64524 0.0
C166 C 0.48471 0.53906 0.65645 0.0
C167 C 0.4704 0.55745 0.65975 0.0
C168 C 0.59208 0.47869 0.61339 0.0
C169 C 0.62488 0.48966 0.60956 0.0
C170 C 0.63573 0.48544 0.58397 0.0
C171 C 0.61384 0.47014 0.56169 0.0
C172 C 0.58091 0.45899 0.56554 0.0
C173 C 0.57009 0.46328 0.59115 0.0
C174 C 0.57289 0.45623 0.65864 0.0
C175 C 0.54863 0.42544 0.65118 0.0
C176 C 0.54461 0.40012 0.66672 0.0
C177 C 0.56452 0.40514 0.69013 0.0
C178 C 0.58743 0.43613 0.69844 0.0
C179 C 0.59153 0.46139 0.6828 0.0
C180 C 0.56416 0.49846 0.64231 0.0
C181 C 0.58133 0.53074 0.64852 0.0
C182 C 0.56561 0.54795 0.6495 0.0
C183 C 0.5322 0.53322 0.64399 0.0
C184 C 0.51491 0.50066 0.63791 0.0
C185 C 0.5307 0.48341 0.63719 0.0
H186 H 0.17216 0.64168 0.81513 0.0
N187 N 0.11779 0.59387 0.79452 0.0
H188 H 0.21507 0.63979 0.84074 0.0
H189 H 0.11506 0.54053 0.8141 0.0
H190 H 0.1567 0.53848 0.84155 0.0
H191 H 0.13116 0.55893 0.75842 0.0
H192 H 0.15298 0.57406 0.71177 0.0
H193 H 0.12811 0.64427 0.76754 0.0
H194 H 0.15075 0.66005 0.72139 0.0
H195 H 0.08142 0.61113 0.82136 0.0
H196 H 0.07735 0.53266 0.7771 0.0
H197 H 0.02354 0.58041 0.82867 0.0
H198 H 0.01959 0.50085 0.78562 0.0
H199 H 0.84477 0.50087 0.84387 0.0
H200 H 0.82225 0.49356 0.89042 0.0
H201 H 0.86278 0.4357 0.91069 0.0
H202 H 0.88512 0.44303 0.86405 0.0
H203 H 0.85307 0.41337 0.82431 0.0
H204 H 0.80551 0.37462 0.79814 0.0
H205 H 0.80917 0.4485 0.74864 0.0
H206 H 0.85465 0.48747 0.77735 0.0
H207 H 0.92705 0.51552 0.85943 0.0
H208 H 0.9844 0.5398 0.85382 0.0
H209 H 0.96836 0.49355 0.77341 0.0
N210 N 0.87923 0.47733 0.82288 0.0
H211 H 0.91057 0.46707 0.77986 0.0
C212 C 0.14024 0.59144 0.81288 0.0
C213 C 0.16848 0.61912 0.82126 0.0
C214 C 0.19284 0.61797 0.83619 0.0
C215 C 0.18917 0.58898 0.84373 0.0
C216 C 0.16035 0.56121 0.83606 0.0
C217 C 0.13629 0.56237 0.82049 0.0
C218 C 0.12765 0.6004 0.76618 0.0
C219 C 0.13466 0.58064 0.75016 0.0
C220 C 0.14741 0.58946 0.72367 0.0
C221 C 0.15326 0.61809 0.71283 0.0
C222 C 0.14579 0.63752 0.72886 0.0
C223 C 0.13298 0.62864 0.75521 0.0
C224 C 0.08376 0.57419 0.79906 0.0
C225 C 0.06799 0.58702 0.81363 0.0
C226 C 0.03489 0.56922 0.81796 0.0
C227 C 0.01671 0.53781 0.80812 0.0
C228 C 0.03264 0.52495 0.79337 0.0
C229 C 0.06581 0.54304 0.78869 0.0
C230 C 0.86666 0.47269 0.8506 0.0
C231 C 0.84883 0.48672 0.85843 0.0
C232 C 0.83614 0.48262 0.88497 0.0
C233 C 0.84113 0.46436 0.90419 0.0
C234 C 0.85858 0.44984 0.89622 0.0
C235 C 0.87133 0.45402 0.86966 0.0
C236 C 0.85675 0.4535 0.80335 0.0
C237 C 0.84378 0.42125 0.80776 0.0
C238 C 0.81676 0.39893 0.7923 0.0
C239 C 0.80311 0.40829 0.77125 0.0
C240 C 0.81842 0.44041 0.76511 0.0
C241 C 0.84466 0.46275 0.78124 0.0
C242 C 0.91346 0.48806 0.82071 0.0
C243 C 0.93544 0.50934 0.84096 0.0
C244 C 0.96865 0.52397 0.83745 0.0
C245 C 0.98128 0.51908 0.81298 0.0
C246 C 0.95964 0.49761 0.79275 0.0
C247 C 0.92622 0.48236 0.7965 0.0
H248 H 0.54146 0.16511 -0.00061 0.0
N249 N 0.55407 0.12847 0.96771 0.0
H250 H 0.58025 0.21173 0.02664 0.0
H251 H 0.61626 0.14494 0.97963 0.0
H252 H 0.65547 0.19161 0.00707 0.0
H253 H 0.60094 0.1399 0.93062 0.0
H254 H 0.60505 0.1599 0.88383 0.0
H255 H 0.51196 0.13937 0.94168 0.0
H256 H 0.51632 0.16033 0.89516 0.0
H257 H 0.50017 0.09227 0.9942 0.0
H258 H 0.57848 0.09103 0.953 0.0
H259 H 0.47319 0.03547 -0.00044 0.0
H260 H 0.55102 0.03381 0.95699 0.0
H261 H 0.37494 0.86386 0.00557 0.0
H262 H 0.35793 0.84372 0.05229 0.0
H263 H 0.45775 0.8859 0.07859 0.0
H264 H 0.47449 0.9055 0.03182 0.0
H265 H 0.46581 0.863 0.99646 0.0
H266 H 0.45585 0.81597 0.97058 0.0
H267 H 0.40109 0.8329 0.90878 0.0
H268 H 0.40865 0.87835 0.93634 0.0
H269 H 0.41345 0.93376 0.97399 0.0
H270 H 0.44471 0.99071 0.96976 0.0
H271 H 0.53237 0.98935 0.9871 0.0
N272 N 0.43478 0.89572 0.98717 0.0
H273 H 0.50055 0.9318 0.98998 0.0
C274 C 0.57607 0.15184 0.98747 0.0
C275 C 0.56616 0.17041 0.00158 0.0
C276 C 0.58833 0.19697 0.01709 0.0
C277 C 0.62098 0.20556 0.01864 0.0
C278 C 0.63056 0.18585 0.00579 0.0
C279 C 0.60822 0.15913 0.99029 0.0
C280 C 0.55596 0.13802 0.93948 0.0
C281 C 0.58216 0.14386 0.92289 0.0
C282 C 0.58468 0.15565 0.89628 0.0
C283 C 0.56123 0.16209 0.886 0.0
C284 C 0.53469 0.15549 0.90248 0.0
C285 C 0.53214 0.14359 0.92898 0.0
C286 C 0.54099 0.09572 0.97298 0.0
C287 C 0.51155 0.07962 0.98644 0.0
C288 C 0.49605 0.04712 0.98915 0.0
C289 C 0.50953 0.02985 0.97811 0.0
C290 C 0.53991 0.04629 0.96571 0.0
C291 C 0.55559 0.07902 0.96326 0.0
C292 C 0.42583 0.88634 0.01531 0.0
C293 C 0.39306 0.86904 0.02157 0.0
C294 C 0.38345 0.85769 0.04819 0.0
C295 C 0.40657 0.86352 0.06907 0.0
C296 C 0.43947 0.88109 0.06284 0.0
C297 C 0.44905 0.89249 0.0362 0.0
C298 C 0.43699 0.8736 0.96877 0.0
C299 C 0.45184 0.85678 0.97727 0.0
C300 C 0.44628 0.82989 0.96228 0.0
C301 C 0.42652 0.81985 0.93814 0.0
C302 C 0.41506 0.83903 0.92799 0.0
C303 C 0.41984 0.86535 0.94342 0.0
C304 C 0.45463 0.92878 0.98251 0.0
C305 C 0.43945 0.94581 0.97655 0.0
C306 C 0.45738 0.97839 0.9745 0.0
C307 C 0.49108 0.99483 0.9787 0.0
C308 C 0.50649 0.97751 0.98376 0.0
C309 C 0.48838 0.94467 0.98558 0.0
H310 H 0.52204 0.3806 0.15128 0.0
N311 N 0.52859 0.43182 0.17658 0.0
H312 H 0.55931 0.37723 0.11904 0.0
H313 H 0.58084 0.48162 0.15301 0.0
H314 H 0.61919 0.47848 0.12285 0.0
H315 H 0.58794 0.47379 0.20004 0.0
H316 H 0.60713 0.47252 0.2464 0.0
H317 H 0.49664 0.39067 0.21585 0.0
H318 H 0.51612 0.38945 0.26304 0.0
H319 H 0.47162 0.41396 0.15307 0.0
H320 H 0.55505 0.49486 0.19012 0.0
H321 H 0.44637 0.4456 0.14555 0.0
H322 H 0.52976 0.52621 0.18348 0.0
H323 H 0.3695 0.52475 0.11247 0.0
H324 H 0.36043 0.53319 0.06402 0.0
H325 H 0.4585 0.61071 0.06123 0.0
H326 H 0.46712 0.60254 0.10967 0.0
H327 H 0.47322 0.6169 0.15722 0.0
H328 H 0.46999 0.65802 0.18367 0.0
H329 H 0.36943 0.59285 0.19857 0.0
H330 H 0.37289 0.55196 0.17209 0.0
H331 H 0.3961 0.50069 0.16244 0.0
H332 H 0.42253 0.47039 0.17144 0.0
H333 H 0.51368 0.54976 0.14808 0.0
N334 N 0.42242 0.55834 0.14354 0.0
H335 H 0.48714 0.58 0.14001 0.0
C336 C 0.54863 0.4312 0.15478 0.0
C337 C 0.54276 0.40203 0.14443 0.0
C338 C 0.5642 0.40017 0.1262 0.0
C339 C 0.59228 0.42757 0.11822 0.0
C340 C 0.59745 0.45689 0.12783 0.0
C341 C 0.57564 0.45872 0.14555 0.0
C342 C 0.54051 0.43235 0.20435 0.0
C343 C 0.57176 0.45537 0.21345 0.0
C344 C 0.58278 0.45475 0.24014 0.0
C345 C 0.56292 0.43117 0.25841 0.0
C346 C 0.53182 0.40796 0.24935 0.0
C347 C 0.52068 0.4087 0.22256 0.0
C348 C 0.51505 0.4517 0.17228 0.0
C349 C 0.48441 0.43848 0.15968 0.0
C350 C 0.46996 0.45657 0.1556 0.0
C351 C 0.48592 0.48844 0.16413 0.0
C352 C 0.51688 0.50183 0.17645 0.0
C353 C 0.53134 0.48372 0.18045 0.0
C354 C 0.41885 0.56287 0.11464 0.0
C355 C 0.38902 0.54341 0.10128 0.0
C356 C 0.38394 0.54826 0.07369 0.0
C357 C 0.40868 0.57281 0.05898 0.0
C358 C 0.43883 0.59198 0.07224 0.0
C359 C 0.44388 0.58712 0.09988 0.0
C360 C 0.42316 0.58133 0.16271 0.0
C361 C 0.45069 0.61127 0.16662 0.0
C362 C 0.44881 0.63477 0.1817 0.0
C363 C 0.41952 0.62857 0.19331 0.0
C364 C 0.39249 0.59817 0.19038 0.0
C365 C 0.39436 0.57483 0.17522 0.0
C366 C 0.43953 0.54246 0.15056 0.0
C367 C 0.42185 0.51156 0.1596 0.0
C368 C 0.43696 0.49424 0.16444 0.0
C369 C 0.47021 0.5075 0.1602 0.0
C370 C 0.48809 0.53887 0.15176 0.0
C371 C 0.4729 0.55622 0.14701 0.0
Zn372 Zn 0.683 0.46684 0.40008 0.0
Zn373 Zn 0.64745 0.40421 0.40604 0.0
O374 O 0.69255 0.41279 0.39558 0.0
O375 O 0.72266 0.46404 0.39208 0.0
O376 O 0.6244 0.3578 0.41375 0.0
O377 O 0.6737 0.47466 0.43904 0.0
O378 O 0.6436 0.42354 0.44324 0.0
C379 C 0.71972 0.43708 0.39094 0.0
C380 C 0.628 0.43421 0.36122 0.0
O381 O 0.62297 0.4094 0.3733 0.0
O382 O 0.65158 0.46075 0.36888 0.0
C383 C 0.62598 0.33816 0.39737 0.0
O384 O 0.64112 0.34813 0.3739 0.0
C385 C 0.65519 0.45133 0.45339 0.0
Zn386 Zn 0.23343 0.69518 0.55609 0.0
Zn387 Zn 0.2657 0.66453 0.56477 0.0
O388 O 0.30117 0.71021 0.55809 0.0
O389 O 0.27577 0.7363 0.55268 0.0
O390 O 0.29159 0.64392 0.57394 0.0
O391 O 0.21168 0.68112 0.59291 0.0
O392 O 0.238 0.65608 0.59956 0.0
C393 C 0.30187 0.73589 0.55366 0.0
C394 C 0.21944 0.6456 0.51497 0.0
O395 O 0.2395 0.64176 0.52937 0.0
O396 O 0.21294 0.66658 0.52212 0.0
C397 C 0.31496 0.64746 0.55926 0.0
O398 O 0.32147 0.66375 0.53656 0.0
C399 C 0.21768 0.6637 0.60768 0.0
Zn400 Zn 0.54362 0.22889 0.72846 0.0
Zn401 Zn 0.60936 0.26499 0.73367 0.0
O402 O 0.59327 0.29622 0.72954 0.0
O403 O 0.54033 0.26822 0.72706 0.0
O404 O 0.65785 0.29284 0.73925 0.0
O405 O 0.54308 0.20914 0.7652 0.0
O406 O 0.5958 0.23927 0.76907 0.0
C407 C 0.5661 0.29472 0.72725 0.0
C408 C 0.57869 0.21943 0.68403 0.0
O409 O 0.60364 0.23936 0.69799 0.0
O410 O 0.55075 0.21151 0.69242 0.0
C411 C 0.67305 0.3203 0.72954 0.0
O412 O 0.65729 0.33041 0.71469 0.0
C413 C 0.56916 0.21812 0.77874 0.0
Zn414 Zn 0.34816 0.568 0.8915 0.0
Zn415 Zn 0.37594 0.6312 0.89963 0.0
O416 O 0.32799 0.61566 0.892 0.0
O417 O 0.30514 0.56478 0.88346 0.0
O418 O 0.39551 0.67805 0.90697 0.0
O419 O 0.36162 0.5647 0.93055 0.0
O420 O 0.38537 0.61602 0.93611 0.0
C421 C 0.30312 0.58932 0.88549 0.0
C422 C 0.39744 0.60443 0.85197 0.0
O423 O 0.39903 0.6278 0.86517 0.0
O424 O 0.3784 0.57675 0.85978 0.0
C425 C 0.38344 0.69301 0.89576 0.0
O426 O 0.35913 0.6782 0.878 0.0
C427 C 0.37797 0.58929 0.94555 0.0
Zn428 Zn 0.77262 0.46233 0.06759 0.0
Zn429 Zn 0.74528 0.39992 0.0593 0.0
O430 O 0.70703 0.40613 0.06849 0.0
O431 O 0.72851 0.45754 0.07089 0.0
O432 O 0.72374 0.35361 0.04948 0.0
O433 O 0.79376 0.47071 0.03041 0.0
O434 O 0.76958 0.41962 0.02335 0.0
C435 C 0.70403 0.4302 0.0717 0.0
C436 C 0.79193 0.43159 0.1083 0.0
O437 O 0.77432 0.40691 0.09343 0.0
O438 O 0.79472 0.45758 0.10174 0.0
C439 C 0.70345 0.33197 0.06465 0.0
O440 O 0.69658 0.33967 0.08879 0.0
C441 C 0.78783 0.4474 0.01486 0.0
Zn442 Zn 0.3382 0.79869 0.23202 0.0
Zn443 Zn 0.3719 0.76878 0.22359 0.0
O444 O 0.32598 0.73345 0.23051 0.0
O445 O 0.29806 0.75648 0.23941 0.0
O446 O 0.39418 0.74421 0.21614 0.0
O447 O 0.34869 0.81517 0.19307 0.0
O448 O 0.37822 0.79313 0.18781 0.0
C449 C 0.29953 0.73165 0.23691 0.0
C450 C 0.39129 0.81679 0.27136 0.0
O451 O 0.39454 0.79589 0.25841 0.0
O452 O 0.37003 0.82314 0.26362 0.0
C453 C 0.39071 0.72322 0.23295 0.0
O454 O 0.3745 0.71977 0.25567 0.0
C455 C 0.36729 0.80998 0.17844 0.0
C456 C 0.22064 0.67116 0.26826 0.0
C457 C 0.21946 0.64253 0.26257 0.0
C458 C 0.24591 0.69965 0.2589 0.0
C459 C 0.27126 0.70078 0.24367 0.0
H460 H 0.20258 0.6718 0.28102 0.0
H461 H 0.24615 0.72108 0.26463 0.0
S462 S 0.27765 0.63204 0.22045 0.0
N463 N 0.24423 0.61673 0.23841 0.0
N464 N 0.29223 0.67036 0.2214 0.0
C465 C 0.26973 0.67218 0.23684 0.0
C466 C 0.24377 0.64309 0.24618 0.0
C467 C 0.59571 0.26783 0.44394 0.0
C468 C 0.5997 0.24607 0.4278 0.0
C469 C 0.60301 0.29696 0.4335 0.0
C470 C 0.61464 0.3056 0.40646 0.0
H471 H 0.5882 0.2629 0.46526 0.0
H472 H 0.60053 0.31321 0.44717 0.0
S473 S 0.62532 0.25518 0.3546 0.0
N474 N 0.61301 0.23375 0.38262 0.0
N475 N 0.62696 0.28855 0.3629 0.0
C476 C 0.61716 0.28334 0.38961 0.0
C477 C 0.60971 0.25363 0.40031 0.0
C478 C 0.39068 0.64259 0.56965 0.0
C479 C 0.38301 0.62235 0.59207 0.0
C480 C 0.36803 0.64947 0.55838 0.0
C481 C 0.33696 0.63673 0.56938 0.0
H482 H 0.41461 0.65369 0.5611 0.0
H483 H 0.37541 0.66584 0.54158 0.0
S484 S 0.3046 0.58135 0.6275 0.0
N485 N 0.34195 0.58881 0.62434 0.0
N486 N 0.29934 0.60163 0.60326 0.0
C487 C 0.3287 0.61565 0.59128 0.0
C488 C 0.35171 0.60847 0.60258 0.0
C489 C 0.74818 0.39499 0.75392 0.0
C490 C 0.77107 0.38556 0.75813 0.0
C491 C 0.71698 0.37391 0.7438 0.0
C492 C 0.70697 0.34226 0.73806 0.0
H493 H 0.75396 0.41868 0.75935 0.0
H494 H 0.70016 0.38224 0.74147 0.0
S495 S 0.75775 0.3058 0.74266 0.0
N496 N 0.78199 0.34267 0.75305 0.0
N497 N 0.72255 0.30263 0.73553 0.0
C498 C 0.7295 0.33243 0.74155 0.0
C499 C 0.76168 0.35414 0.75123 0.0
C500 C 0.43733 0.77707 0.92263 0.0
C501 C 0.41569 0.78825 0.92519 0.0
C502 C 0.42688 0.74636 0.91279 0.0
C503 C 0.39451 0.72584 0.90467 0.0
H504 H 0.46252 0.79205 0.92854 0.0
H505 H 0.44426 0.73862 0.91156 0.0
S506 S 0.3277 0.74257 0.90862 0.0
N507 N 0.35981 0.77532 0.92005 0.0
N508 N 0.34072 0.7184 0.90039 0.0
C509 C 0.37271 0.73675 0.90672 0.0
C510 C 0.38315 0.76773 0.91723 0.0
C511 C 0.62641 0.40324 0.10985 0.0
C512 C 0.61771 0.42551 0.10249 0.0
C513 C 0.65325 0.40361 0.09835 0.0
C514 C 0.67273 0.42659 0.07945 0.0
H515 H 0.61343 0.38636 0.12569 0.0
H516 H 0.65988 0.38696 0.1056 0.0
S517 S 0.65754 0.4867 0.04968 0.0
N518 N 0.62825 0.46823 0.0719 0.0
N519 N 0.67963 0.46985 0.05141 0.0
C520 C 0.66336 0.44782 0.07068 0.0
C521 C 0.63564 0.44706 0.08193 0.0
C522 C 0.36107 0.82074 0.53666 0.0
C523 C 0.38758 0.81946 0.52616 0.0
C524 C 0.33415 0.79394 0.54676 0.0
C525 C 0.33266 0.76473 0.54698 0.0
H526 H 0.36068 0.84246 0.53628 0.0
H527 H 0.31393 0.79599 0.55369 0.0
S528 S 0.39662 0.74913 0.5234 0.0
N529 N 0.4112 0.78676 0.51761 0.0
N530 N 0.36108 0.73664 0.53733 0.0
C531 C 0.35978 0.7635 0.53799 0.0
C532 C 0.38711 0.79077 0.52743 0.0
C533 C 0.59335 0.37857 0.70788 0.0
C534 C 0.56417 0.37813 0.7036 0.0
C535 C 0.59375 0.35198 0.7169 0.0
C536 C 0.56495 0.32372 0.72188 0.0
H537 H 0.6161 0.39917 0.70297 0.0
H538 H 0.61686 0.35336 0.71885 0.0
S539 S 0.48231 0.3119 0.7178 0.0
N540 N 0.50596 0.3484 0.70807 0.0
N541 N 0.50647 0.29814 0.72471 0.0
C542 C 0.53564 0.32356 0.71927 0.0
C543 C 0.5353 0.35077 0.71014 0.0
C544 C 0.2243 0.56526 0.84763 0.0
C545 C 0.21644 0.58761 0.85719 0.0
C546 C 0.25164 0.56522 0.85781 0.0
C547 C 0.27256 0.58786 0.87764 0.0
H548 H 0.20994 0.54832 0.83133 0.0
H549 H 0.25713 0.54812 0.84914 0.0
S550 S 0.261 0.64909 0.91207 0.0
N551 N 0.2301 0.63088 0.89 0.0
N552 N 0.28234 0.63165 0.90818 0.0
C553 C 0.2645 0.60966 0.88816 0.0
C554 C 0.23628 0.60934 0.87817 0.0
C555 C 0.63907 0.24546 0.05778 0.0
C556 C 0.64494 0.23638 0.03167 0.0
C557 C 0.65892 0.276 0.06878 0.0
C558 C 0.68528 0.29882 0.05399 0.0
H559 H 0.61846 0.22901 0.06951 0.0
H560 H 0.6528 0.28198 0.08863 0.0
S561 S 0.71184 0.28637 0.98518 0.0
N562 N 0.67962 0.25222 0.9917 0.0
N563 N 0.71714 0.30946 0.01235 0.0
C564 C 0.69215 0.28962 0.0283 0.0
C565 C 0.67195 0.25847 0.01717 0.0
C566 C 0.42531 0.6817 0.19103 0.0
C567 C 0.416 0.65429 0.20593 0.0
C568 C 0.41812 0.70442 0.20049 0.0
C569 C 0.40143 0.70069 0.22529 0.0
H570 H 0.43696 0.68498 0.17125 0.0
H571 H 0.42486 0.72458 0.18774 0.0
S572 S 0.37513 0.63458 0.27356 0.0
N573 N 0.39182 0.62584 0.2478 0.0
N574 N 0.37818 0.66837 0.26572 0.0
C575 C 0.39349 0.67408 0.24112 0.0
C576 C 0.40075 0.65091 0.23138 0.0
C577 C 0.76629 0.40334 0.35613 0.0
C578 C 0.79835 0.42855 0.35775 0.0
C579 C 0.74117 0.40578 0.36807 0.0
C580 C 0.74711 0.43365 0.38183 0.0
H581 H 0.76031 0.382 0.34455 0.0
H582 H 0.71675 0.38617 0.36537 0.0
S583 S 0.82735 0.50468 0.39547 0.0
N584 N 0.83512 0.48082 0.37714 0.0
N585 N 0.78782 0.48576 0.39889 0.0
C586 C 0.77924 0.45844 0.38481 0.0
C587 C 0.80485 0.45582 0.37293 0.0
C588 C 0.16211 0.60904 0.45297 0.0
C589 C 0.17508 0.59344 0.43808 0.0
C590 C 0.17622 0.62513 0.47807 0.0
C591 C 0.20387 0.62623 0.48944 0.0
H592 H 0.14102 0.60912 0.44497 0.0
H593 H 0.16548 0.6371 0.48849 0.0
S594 S 0.2472 0.58903 0.45862 0.0
N595 N 0.21715 0.57997 0.43646 0.0
N596 N 0.24344 0.6098 0.48397 0.0
C597 C 0.21664 0.61001 0.47514 0.0
C598 C 0.2023 0.59372 0.44941 0.0
C599 C 0.56054 0.18639 0.61027 0.0
C600 C 0.58759 0.18389 0.60368 0.0
C601 C 0.55772 0.19735 0.63645 0.0
C602 C 0.58203 0.2067 0.65704 0.0
H603 H 0.54161 0.18045 0.59487 0.0
H604 H 0.5366 0.19922 0.64032 0.0
S605 S 0.65659 0.20254 0.65125 0.0
N606 N 0.63819 0.18967 0.62068 0.0
N607 N 0.63337 0.2114 0.66964 0.0
C608 C 0.60906 0.20401 0.65095 0.0
C609 C 0.61173 0.19237 0.62435 0.0
C610 C 0.42701 0.58426 0.78666 0.0
C611 C 0.44112 0.61239 0.77211 0.0
C612 C 0.41454 0.58249 0.81306 0.0
C613 C 0.41545 0.60876 0.826 0.0
H614 H 0.42487 0.56318 0.77722 0.0
H615 H 0.40313 0.55996 0.82298 0.0
S616 S 0.4519 0.68861 0.79713 0.0
N617 N 0.45699 0.66756 0.77287 0.0
N618 N 0.43356 0.66444 0.82269 0.0
C619 C 0.43097 0.63752 0.81219 0.0
C620 C 0.44379 0.63928 0.7852 0.0
C621 C 0.80941 0.43048 0.94336 0.0
C622 C 0.82825 0.4606 0.93256 0.0
C623 C 0.79645 0.42645 0.96993 0.0
C624 C 0.80203 0.45241 0.98682 0.0
H625 H 0.80426 0.40985 0.931 0.0
H626 H 0.78188 0.40273 0.9772 0.0
S627 S 0.85151 0.53643 0.96842 0.0
N628 N 0.85303 0.51684 0.94094 0.0
N629 N 0.82875 0.50954 0.99077 0.0
C630 C 0.82131 0.48274 0.97628 0.0
C631 C 0.83436 0.48676 0.9492 0.0
C632 C 0.40901 0.8331 0.10902 0.0
C633 C 0.39641 0.85049 0.09706 0.0
C634 C 0.3993 0.81997 0.1352 0.0
C635 C 0.37675 0.82388 0.15055 0.0
H636 H 0.42621 0.82926 0.09789 0.0
H637 H 0.40967 0.8067 0.14342 0.0
S638 S 0.33758 0.86864 0.12858 0.0
N639 N 0.36103 0.87178 0.1026 0.0
N640 N 0.34254 0.84712 0.15172 0.0
C641 C 0.36416 0.84151 0.1388 0.0
C642 C 0.37402 0.85476 0.11209 0.0
C643 C 0.57547 0.40389 0.29564 0.0
C644 C 0.57541 0.43076 0.28654 0.0
C645 C 0.59129 0.40464 0.32056 0.0
C646 C 0.60764 0.43234 0.33712 0.0
H647 H 0.56449 0.3826 0.2828 0.0
H648 H 0.59193 0.38383 0.3262 0.0
S649 S 0.60983 0.50735 0.32452 0.0
N650 N 0.58953 0.48447 0.29753 0.0
N651 N 0.61939 0.48611 0.34416 0.0
C652 C 0.60597 0.45873 0.329 0.0
C653 C 0.58983 0.45788 0.30377 0.0
C654 C 0.43783 0.8797 0.32669 0.0
C655 C 0.44245 0.86305 0.34795 0.0
C656 C 0.42206 0.86474 0.30163 0.0
C657 C 0.41101 0.83274 0.29653 0.0
H658 H 0.44592 0.90442 0.32962 0.0
H659 H 0.41815 0.87825 0.28622 0.0
S660 S 0.41691 0.77828 0.34482 0.0
N661 N 0.43406 0.81233 0.36203 0.0
N662 N 0.40601 0.78483 0.31424 0.0
C663 C 0.41649 0.81601 0.31697 0.0
C664 C 0.43186 0.83101 0.34283 0.0
C665 C 0.6106 0.43587 0.52135 0.0
C666 C 0.6253 0.46576 0.53445 0.0
C667 C 0.62086 0.43129 0.49545 0.0
C668 C 0.64602 0.45651 0.48152 0.0
H669 H 0.59109 0.41582 0.53126 0.0
H670 H 0.60861 0.40784 0.48615 0.0
S671 S 0.69211 0.53965 0.50716 0.0
N672 N 0.66598 0.52099 0.5317 0.0
N673 N 0.68551 0.51262 0.48319 0.0
C674 C 0.66101 0.48656 0.49459 0.0
C675 C 0.65061 0.49112 0.52099 0.0
C676 C 0.19634 0.62746 0.67898 0.0
C677 C 0.16839 0.62845 0.68537 0.0
C678 C 0.21205 0.63877 0.65381 0.0
C679 C 0.20049 0.65162 0.6341 0.0
H680 H 0.20657 0.6185 0.6938 0.0
H681 H 0.2337 0.63783 0.64998 0.0
S682 S 0.12632 0.65678 0.63989 0.0
N683 N 0.12847 0.64116 0.66923 0.0
N684 N 0.15806 0.66283 0.62217 0.0
C685 C 0.1721 0.65208 0.64005 0.0
C686 C 0.15606 0.64041 0.66559 0.0
C687 C 0.53787 0.16353 0.83977 0.0
C688 C 0.56447 0.17615 0.85836 0.0
C689 C 0.53977 0.17711 0.81408 0.0
C690 C 0.56838 0.20391 0.80587 0.0
H691 H 0.51534 0.14292 0.84512 0.0
H692 H 0.51853 0.16645 0.80058 0.0
S693 S 0.64471 0.24661 0.84754 0.0
N694 N 0.62007 0.21739 0.86722 0.0
N695 N 0.62393 0.24275 0.81878 0.0
C696 C 0.59529 0.21667 0.82425 0.0
C697 C 0.59327 0.20284 0.85049 0.0
C698 C 0.38829 0.55283 0.0107 0.0
C699 C 0.40272 0.57822 0.0299 0.0
C700 C 0.38096 0.55685 0.98346 0.0
C701 C 0.38765 0.58645 0.97426 0.0
H702 H 0.38255 0.52958 0.0168 0.0
H703 H 0.36966 0.5364 0.9696 0.0
S704 S 0.42512 0.66055 0.01679 0.0
N705 N 0.4233 0.63395 0.03813 0.0
N706 N 0.40982 0.64175 0.98683 0.0
C707 C 0.40249 0.61219 0.99324 0.0
C708 C 0.40997 0.60803 0.02105 0.0
C709 C 0.8302 0.40324 0.16118 0.0
C710 C 0.83986 0.4258 0.18296 0.0
C711 C 0.81476 0.40523 0.13707 0.0
C712 C 0.80855 0.42996 0.13378 0.0
H713 H 0.83475 0.38397 0.16272 0.0
H714 H 0.80784 0.38738 0.12083 0.0
S715 S 0.82658 0.49354 0.18579 0.0
N716 N 0.84016 0.47243 0.20044 0.0
N717 N 0.81194 0.47666 0.15506 0.0
C718 C 0.81786 0.45252 0.15555 0.0
C719 C 0.8333 0.45032 0.18013 0.0
loop_
_geom_bond_atom_site_label_1
_geom_bond_atom_site_label_2
_geom_bond_distance
_geom_bond_site_symmetry_2
_ccdc_geom_bond_type
H0 C27 0.929 . S
N1 C26 1.433 . S
N1 C32 1.435 . S
N1 C38 1.423 . S
H2 C28 0.930 . S
H3 C31 0.931 . S
H4 C30 0.929 . S
H5 C33 0.930 . S
H6 C34 0.932 . S
H7 C37 0.929 . S
H8 C36 0.931 . S
H9 C39 0.929 . S
H10 C43 0.932 . S
H11 C40 0.931 . S
H12 C42 0.929 . S
H13 C45 0.929 . S
H14 C46 0.930 . S
H15 C48 0.929 . S
H16 C49 0.931 . S
H17 C51 0.930 . S
H18 C52 0.932 . S
H19 C54 0.931 . S
H20 C55 0.929 . S
H21 C57 0.929 . S
H22 C58 0.931 . S
H23 C60 0.929 . S
N24 C44 1.433 . S
N24 C50 1.435 . S
N24 C56 1.423 . S
H25 C61 0.932 . S
C26 N1 1.433 . S
C26 C27 1.363 . S
C26 C31 1.370 . S
C27 H0 0.929 . S
C27 C26 1.363 . S
C27 C28 1.385 . S
C28 H2 0.930 . S
C28 C27 1.385 . S
C28 C29 1.357 . S
C29 C28 1.357 . S
C29 C30 1.406 . S
C30 H4 0.929 . S
C30 C29 1.406 . S
C30 C31 1.391 . S
C31 H3 0.931 . S
C31 C26 1.370 . S
C31 C30 1.391 . S
C32 N1 1.435 . S
C32 C33 1.358 . S
C32 C37 1.371 . S
C33 H5 0.930 . S
C33 C32 1.358 . S
C33 C34 1.405 . S
C34 H6 0.932 . S
C34 C33 1.405 . S
C34 C35 1.383 . S
C35 C34 1.383 . S
C35 C36 1.393 . S
C36 H8 0.931 . S
C36 C35 1.393 . S
C36 C37 1.382 . S
C37 H7 0.929 . S
C37 C32 1.371 . S
C37 C36 1.382 . S
C38 N1 1.423 . S
C38 C39 1.362 . S
C38 C43 1.388 . S
C39 H9 0.929 . S
C39 C38 1.362 . S
C39 C40 1.376 . S
C40 H11 0.931 . S
C40 C39 1.376 . S
C40 C41 1.396 . S
C41 C40 1.396 . S
C41 C42 1.348 . S
C41 C59 1.472 1_455 S
C42 H12 0.929 . S
C42 C41 1.348 . S
C42 C43 1.443 . S
C43 H10 0.932 . S
C43 C38 1.388 . S
C43 C42 1.443 . S
C44 N24 1.433 . S
C44 C45 1.363 . S
C44 C49 1.370 . S
C45 H13 0.929 . S
C45 C44 1.363 . S
C45 C46 1.385 . S
C46 H14 0.930 . S
C46 C45 1.385 . S
C46 C47 1.357 . S
C47 C46 1.357 . S
C47 C48 1.406 . S
C48 H15 0.929 . S
C48 C47 1.406 . S
C48 C49 1.391 . S
C49 H16 0.931 . S
C49 C44 1.370 . S
C49 C48 1.391 . S
C50 N24 1.435 . S
C50 C51 1.358 . S
C50 C55 1.371 . S
C51 H17 0.930 . S
C51 C50 1.358 . S
C51 C52 1.405 . S
C52 H18 0.932 . S
C52 C51 1.405 . S
C52 C53 1.383 . S
C53 C52 1.383 . S
C53 C54 1.393 . S
C54 H19 0.931 . S
C54 C53 1.393 . S
C54 C55 1.382 . S
C55 H20 0.929 . S
C55 C50 1.371 . S
C55 C54 1.382 . S
C56 N24 1.423 . S
C56 C57 1.362 . S
C56 C61 1.388 . S
C57 H21 0.929 . S
C57 C56 1.362 . S
C57 C58 1.376 . S
C58 H22 0.931 . S
C58 C57 1.376 . S
C58 C59 1.396 . S
C59 C41 1.472 1_655 S
C59 C58 1.396 . S
C59 C60 1.348 . S
C60 H23 0.929 . S
C60 C59 1.348 . S
C60 C61 1.443 . S
C61 H25 0.932 . S
C61 C56 1.388 . S
C61 C60 1.443 . S
H62 C89 0.929 . S
N63 C88 1.433 . S
N63 C94 1.435 . S
N63 C100 1.423 . S
H64 C90 0.930 . S
H65 C93 0.931 . S
H66 C92 0.929 . S
H67 C95 0.930 . S
H68 C96 0.932 . S
H69 C99 0.929 . S
H70 C98 0.931 . S
H71 C101 0.929 . S
H72 C105 0.932 . S
H73 C102 0.931 . S
H74 C104 0.929 1_545 S
H75 C107 0.929 . S
H76 C108 0.930 . S
H77 C110 0.929 . S
H78 C111 0.931 . S
H79 C113 0.930 . S
H80 C114 0.932 . S
H81 C116 0.931 . S
H82 C117 0.929 . S
H83 C119 0.929 . S
H84 C120 0.931 . S
H85 C122 0.929 . S
N86 C106 1.433 . S
N86 C112 1.435 . S
N86 C118 1.423 . S
H87 C123 0.932 . S
C88 N63 1.433 . S
C88 C89 1.363 . S
C88 C93 1.370 . S
C89 H62 0.929 . S
C89 C88 1.363 . S
C89 C90 1.385 . S
C90 H64 0.930 . S
C90 C89 1.385 . S
C90 C91 1.357 . S
C91 C90 1.357 . S
C91 C92 1.406 . S
C92 H66 0.929 . S
C92 C91 1.406 . S
C92 C93 1.391 . S
C93 H65 0.931 . S
C93 C88 1.370 . S
C93 C92 1.391 . S
C94 N63 1.435 . S
C94 C95 1.358 . S
C94 C99 1.371 . S
C95 H67 0.930 . S
C95 C94 1.358 . S
C95 C96 1.405 . S
C96 H68 0.932 . S
C96 C95 1.405 . S
C96 C97 1.383 . S
C97 C96 1.383 . S
C97 C98 1.393 . S
C98 H70 0.931 . S
C98 C97 1.393 . S
C98 C99 1.382 . S
C99 H69 0.929 . S
C99 C94 1.371 . S
C99 C98 1.382 . S
C100 N63 1.423 . S
C100 C101 1.362 . S
C100 C105 1.388 . S
C101 H71 0.929 . S
C101 C100 1.362 . S
C101 C102 1.376 . S
C102 H73 0.931 . S
C102 C101 1.376 . S
C102 C103 1.396 1_565 S
C103 C102 1.396 1_545 S
C103 C104 1.348 1_545 S
C103 C121 1.472 . S
C104 H74 0.929 1_565 S
C104 C103 1.348 1_565 S
C104 C105 1.443 . S
C105 H72 0.932 . S
C105 C100 1.388 . S
C105 C104 1.443 . S
C106 N86 1.433 . S
C106 C107 1.363 . S
C106 C111 1.370 . S
C107 H75 0.929 . S
C107 C106 1.363 . S
C107 C108 1.385 . S
C108 H76 0.930 . S
C108 C107 1.385 . S
C108 C109 1.357 . S
C109 C108 1.357 . S
C109 C110 1.406 . S
C110 H77 0.929 . S
C110 C109 1.406 . S
C110 C111 1.391 . S
C111 H78 0.931 . S
C111 C106 1.370 . S
C111 C110 1.391 . S
C112 N86 1.435 . S
C112 C113 1.358 . S
C112 C117 1.371 . S
C113 H79 0.930 . S
C113 C112 1.358 . S
C113 C114 1.405 . S
C114 H80 0.932 . S
C114 C113 1.405 . S
C114 C115 1.383 . S
C115 C114 1.383 . S
C115 C116 1.393 . S
C116 H81 0.931 . S
C116 C115 1.393 . S
C116 C117 1.382 . S
C117 H82 0.929 . S
C117 C112 1.371 . S
C117 C116 1.382 . S
C118 N86 1.423 . S
C118 C119 1.362 . S
C118 C123 1.388 . S
C119 H83 0.929 . S
C119 C118 1.362 . S
C119 C120 1.376 . S
C120 H84 0.931 . S
C120 C119 1.376 . S
C120 C121 1.396 . S
C121 C103 1.472 . S
C121 C120 1.396 . S
C121 C122 1.348 . S
C122 H85 0.929 . S
C122 C121 1.348 . S
C122 C123 1.443 . S
C123 H87 0.932 . S
C123 C118 1.388 . S
C123 C122 1.443 . S
H124 C151 0.929 . S
N125 C150 1.433 . S
N125 C156 1.435 . S
N125 C162 1.423 . S
H126 C152 0.930 . S
H127 C155 0.931 . S
H128 C154 0.929 . S
H129 C157 0.930 . S
H130 C158 0.932 . S
H131 C161 0.929 . S
H132 C160 0.931 . S
H133 C163 0.929 . S
H134 C167 0.932 . S
H135 C164 0.931 . S
H136 C166 0.929 . S
H137 C169 0.929 . S
H138 C170 0.930 . S
H139 C172 0.929 . S
H140 C173 0.931 . S
H141 C175 0.930 . S
H142 C176 0.932 . S
H143 C178 0.931 . S
H144 C179 0.929 . S
H145 C181 0.929 . S
H146 C182 0.931 . S
H147 C184 0.929 . S
N148 C168 1.433 . S
N148 C174 1.435 . S
N148 C180 1.423 . S
H149 C185 0.932 . S
C150 N125 1.433 . S
C150 C151 1.363 . S
C150 C155 1.370 . S
C151 H124 0.929 . S
C151 C150 1.363 . S
C151 C152 1.385 . S
C152 H126 0.930 . S
C152 C151 1.385 . S
C152 C153 1.357 . S
C153 C152 1.357 . S
C153 C154 1.406 . S
C154 H128 0.929 . S
C154 C153 1.406 . S
C154 C155 1.391 . S
C155 H127 0.931 . S
C155 C150 1.370 . S
C155 C154 1.391 . S
C156 N125 1.435 . S
C156 C157 1.358 . S
C156 C161 1.371 . S
C157 H129 0.930 . S
C157 C156 1.358 . S
C157 C158 1.405 . S
C158 H130 0.932 . S
C158 C157 1.405 . S
C158 C159 1.383 . S
C159 C158 1.383 . S
C159 C160 1.393 . S
C160 H132 0.931 . S
C160 C159 1.393 . S
C160 C161 1.382 . S
C161 H131 0.929 . S
C161 C156 1.371 . S
C161 C160 1.382 . S
C162 N125 1.423 . S
C162 C163 1.362 . S
C162 C167 1.388 . S
C163 H133 0.929 . S
C163 C162 1.362 . S
C163 C164 1.376 . S
C164 H135 0.931 . S
C164 C163 1.376 . S
C164 C165 1.396 . S
C165 C164 1.396 . S
C165 C166 1.348 . S
C165 C183 1.472 . S
C166 H136 0.929 . S
C166 C165 1.348 . S
C166 C167 1.443 . S
C167 H134 0.932 . S
C167 C162 1.388 . S
C167 C166 1.443 . S
C168 N148 1.433 . S
C168 C169 1.363 . S
C168 C173 1.370 . S
C169 H137 0.929 . S
C169 C168 1.363 . S
C169 C170 1.385 . S
C170 H138 0.930 . S
C170 C169 1.385 . S
C170 C171 1.357 . S
C171 C170 1.357 . S
C171 C172 1.406 . S
C172 H139 0.929 . S
C172 C171 1.406 . S
C172 C173 1.391 . S
C173 H140 0.931 . S
C173 C168 1.370 . S
C173 C172 1.391 . S
C174 N148 1.435 . S
C174 C175 1.358 . S
C174 C179 1.371 . S
C175 H141 0.930 . S
C175 C174 1.358 . S
C175 C176 1.405 . S
C176 H142 0.932 . S
C176 C175 1.405 . S
C176 C177 1.383 . S
C177 C176 1.383 . S
C177 C178 1.393 . S
C178 H143 0.931 . S
C178 C177 1.393 . S
C178 C179 1.382 . S
C179 H144 0.929 . S
C179 C174 1.371 . S
C179 C178 1.382 . S
C180 N148 1.423 . S
C180 C181 1.362 . S
C180 C185 1.388 . S
C181 H145 0.929 . S
C181 C180 1.362 . S
C181 C182 1.376 . S
C182 H146 0.931 . S
C182 C181 1.376 . S
C182 C183 1.396 . S
C183 C165 1.472 . S
C183 C182 1.396 . S
C183 C184 1.348 . S
C184 H147 0.929 . S
C184 C183 1.348 . S
C184 C185 1.443 . S
C185 H149 0.932 . S
C185 C180 1.388 . S
C185 C184 1.443 . S
H186 C213 0.929 . S
N187 C212 1.433 . S
N187 C218 1.435 . S
N187 C224 1.423 . S
H188 C214 0.930 . S
H189 C217 0.931 . S
H190 C216 0.929 . S
H191 C219 0.930 . S
H192 C220 0.932 . S
H193 C223 0.929 . S
H194 C222 0.931 . S
H195 C225 0.929 . S
H196 C229 0.932 . S
H197 C226 0.931 . S
H198 C228 0.929 . S
H199 C231 0.929 . S
H200 C232 0.930 . S
H201 C234 0.929 . S
H202 C235 0.931 . S
H203 C237 0.930 . S
H204 C238 0.932 . S
H205 C240 0.931 . S
H206 C241 0.929 . S
H207 C243 0.929 . S
H208 C244 0.931 . S
H209 C246 0.929 . S
N210 C230 1.433 . S
N210 C236 1.435 . S
N210 C242 1.423 . S
H211 C247 0.932 . S
C212 N187 1.433 . S
C212 C213 1.363 . S
C212 C217 1.370 . S
C213 H186 0.929 . S
C213 C212 1.363 . S
C213 C214 1.385 . S
C214 H188 0.930 . S
C214 C213 1.385 . S
C214 C215 1.357 . S
C215 C214 1.357 . S
C215 C216 1.406 . S
C216 H190 0.929 . S
C216 C215 1.406 . S
C216 C217 1.391 . S
C217 H189 0.931 . S
C217 C212 1.370 . S
C217 C216 1.391 . S
C218 N187 1.435 . S
C218 C219 1.358 . S
C218 C223 1.371 . S
C219 H191 0.930 . S
C219 C218 1.358 . S
C219 C220 1.405 . S
C220 H192 0.932 . S
C220 C219 1.405 . S
C220 C221 1.383 . S
C221 C220 1.383 . S
C221 C222 1.393 . S
C222 H194 0.931 . S
C222 C221 1.393 . S
C222 C223 1.382 . S
C223 H193 0.929 . S
C223 C218 1.371 . S
C223 C222 1.382 . S
C224 N187 1.423 . S
C224 C225 1.362 . S
C224 C229 1.388 . S
C225 H195 0.929 . S
C225 C224 1.362 . S
C225 C226 1.376 . S
C226 H197 0.931 . S
C226 C225 1.376 . S
C226 C227 1.396 . S
C227 C226 1.396 . S
C227 C228 1.348 . S
C227 C245 1.472 1_455 S
C228 H198 0.929 . S
C228 C227 1.348 . S
C228 C229 1.443 . S
C229 H196 0.932 . S
C229 C224 1.388 . S
C229 C228 1.443 . S
C230 N210 1.433 . S
C230 C231 1.363 . S
C230 C235 1.370 . S
C231 H199 0.929 . S
C231 C230 1.363 . S
C231 C232 1.385 . S
C232 H200 0.930 . S
C232 C231 1.385 . S
C232 C233 1.357 . S
C233 C232 1.357 . S
C233 C234 1.406 . S
C234 H201 0.929 . S
C234 C233 1.406 . S
C234 C235 1.391 . S
C235 H202 0.931 . S
C235 C230 1.370 . S
C235 C234 1.391 . S
C236 N210 1.435 . S
C236 C237 1.358 . S
C236 C241 1.371 . S
C237 H203 0.930 . S
C237 C236 1.358 . S
C237 C238 1.405 . S
C238 H204 0.932 . S
C238 C237 1.405 . S
C238 C239 1.383 . S
C239 C238 1.383 . S
C239 C240 1.393 . S
C240 H205 0.931 . S
C240 C239 1.393 . S
C240 C241 1.382 . S
C241 H206 0.929 . S
C241 C236 1.371 . S
C241 C240 1.382 . S
C242 N210 1.423 . S
C242 C243 1.362 . S
C242 C247 1.388 . S
C243 H207 0.929 . S
C243 C242 1.362 . S
C243 C244 1.376 . S
C244 H208 0.931 . S
C244 C243 1.376 . S
C244 C245 1.396 . S
C245 C227 1.472 1_655 S
C245 C244 1.396 . S
C245 C246 1.348 . S
C246 H209 0.929 . S
C246 C245 1.348 . S
C246 C247 1.443 . S
C247 H211 0.932 . S
C247 C242 1.388 . S
C247 C246 1.443 . S
H248 C275 0.929 . S
N249 C274 1.433 . S
N249 C280 1.435 . S
N249 C286 1.423 . S
H250 C276 0.930 . S
H251 C279 0.931 . S
H252 C278 0.929 . S
H253 C281 0.930 . S
H254 C282 0.932 . S
H255 C285 0.929 . S
H256 C284 0.931 . S
H257 C287 0.929 . S
H258 C291 0.932 . S
H259 C288 0.931 . S
H260 C290 0.929 . S
H261 C293 0.929 . S
H262 C294 0.930 . S
H263 C296 0.929 . S
H264 C297 0.931 . S
H265 C299 0.942 . S
H266 C300 0.932 . S
H267 C302 0.931 . S
H268 C303 0.929 . S
H269 C305 0.929 . S
H270 C306 0.925 1_554 S
H271 C308 0.929 . S
N272 C292 1.433 . S
N272 C298 1.435 1_554 S
N272 C304 1.423 1_554 S
H273 C309 0.932 . S
C274 N249 1.433 . S
C274 C275 1.363 . S
C274 C279 1.370 . S
C275 H248 0.929 . S
C275 C274 1.363 . S
C275 C276 1.385 . S
C276 H250 0.930 . S
C276 C275 1.385 . S
C276 C277 1.357 1_556 S
C277 C276 1.357 1_554 S
C277 C278 1.406 . S
C278 H252 0.929 . S
C278 C277 1.406 . S
C278 C279 1.391 1_554 S
C279 H251 0.931 . S
C279 C274 1.370 . S
C279 C278 1.391 1_556 S
C280 N249 1.435 . S
C280 C281 1.358 . S
C280 C285 1.371 . S
C281 H253 0.930 . S
C281 C280 1.358 . S
C281 C282 1.405 . S
C282 H254 0.932 . S
C282 C281 1.405 . S
C282 C283 1.383 . S
C283 C282 1.383 . S
C283 C284 1.393 . S
C284 H256 0.931 . S
C284 C283 1.393 . S
C284 C285 1.382 . S
C285 H255 0.929 . S
C285 C280 1.371 . S
C285 C284 1.382 . S
C286 N249 1.423 . S
C286 C287 1.362 . S
C286 C291 1.388 . S
C287 H257 0.929 . S
C287 C286 1.362 . S
C287 C288 1.376 . S
C288 H259 0.931 . S
C288 C287 1.376 . S
C288 C289 1.396 . S
C289 C288 1.396 . S
C289 C290 1.348 . S
C289 C307 1.472 1_545 S
C290 H260 0.929 . S
C290 C289 1.348 . S
C290 C291 1.443 . S
C291 H258 0.932 . S
C291 C286 1.388 . S
C291 C290 1.443 . S
C292 N272 1.433 . S
C292 C293 1.363 . S
C292 C297 1.370 . S
C293 H261 0.929 . S
C293 C292 1.363 . S
C293 C294 1.385 . S
C294 H262 0.930 . S
C294 C293 1.385 . S
C294 C295 1.357 . S
C295 C294 1.357 . S
C295 C296 1.406 . S
C296 H263 0.929 . S
C296 C295 1.406 . S
C296 C297 1.391 . S
C297 H264 0.931 . S
C297 C292 1.370 . S
C297 C296 1.391 . S
C298 N272 1.435 1_556 S
C298 C299 1.354 1_556 S
C298 C303 1.371 . S
C299 H265 0.942 . S
C299 C298 1.354 1_554 S
C299 C300 1.397 1_554 S
C300 H266 0.932 . S
C300 C299 1.397 1_556 S
C300 C301 1.383 . S
C301 C300 1.383 . S
C301 C302 1.393 . S
C302 H267 0.931 . S
C302 C301 1.393 . S
C302 C303 1.382 . S
C303 H268 0.929 . S
C303 C298 1.371 . S
C303 C302 1.382 . S
C304 N272 1.423 1_556 S
C304 C305 1.362 1_556 S
C304 C309 1.388 . S
C305 H269 0.929 . S
C305 C304 1.362 1_554 S
C305 C306 1.370 1_554 S
C306 H270 0.925 1_556 S
C306 C305 1.370 1_556 S
C306 C307 1.408 . S
C307 C289 1.472 1_565 S
C307 C306 1.408 . S
C307 C308 1.348 . S
C308 H271 0.929 . S
C308 C307 1.348 . S
C308 C309 1.443 . S
C309 H273 0.932 . S
C309 C304 1.388 . S
C309 C308 1.443 . S
H310 C337 0.929 . S
N311 C336 1.433 . S
N311 C342 1.435 . S
N311 C348 1.423 . S
H312 C338 0.930 . S
H313 C341 0.931 . S
H314 C340 0.929 . S
H315 C343 0.930 . S
H316 C344 0.932 . S
H317 C347 0.929 . S
H318 C346 0.931 . S
H319 C349 0.929 . S
H320 C353 0.932 . S
H321 C350 0.931 . S
H322 C352 0.929 . S
H323 C355 0.929 . S
H324 C356 0.930 . S
H325 C358 0.929 . S
H326 C359 0.931 . S
H327 C361 0.930 . S
H328 C362 0.932 . S
H329 C364 0.931 . S
H330 C365 0.929 . S
H331 C367 0.929 . S
H332 C368 0.931 . S
H333 C370 0.929 . S
N334 C354 1.433 . S
N334 C360 1.435 . S
N334 C366 1.423 . S
H335 C371 0.932 . S
C336 N311 1.433 . S
C336 C337 1.363 . S
C336 C341 1.370 . S
C337 H310 0.929 . S
C337 C336 1.363 . S
C337 C338 1.385 . S
C338 H312 0.930 . S
C338 C337 1.385 . S
C338 C339 1.357 . S
C339 C338 1.357 . S
C339 C340 1.406 . S
C340 H314 0.929 . S
C340 C339 1.406 . S
C340 C341 1.391 . S
C341 H313 0.931 . S
C341 C336 1.370 . S
C341 C340 1.391 . S
C342 N311 1.435 . S
C342 C343 1.358 . S
C342 C347 1.371 . S
C343 H315 0.930 . S
C343 C342 1.358 . S
C343 C344 1.405 . S
C344 H316 0.932 . S
C344 C343 1.405 . S
C344 C345 1.383 . S
C345 C344 1.383 . S
C345 C346 1.393 . S
C346 H318 0.931 . S
C346 C345 1.393 . S
C346 C347 1.382 . S
C347 H317 0.929 . S
C347 C342 1.371 . S
C347 C346 1.382 . S
C348 N311 1.423 . S
C348 C349 1.362 . S
C348 C353 1.388 . S
C349 H319 0.929 . S
C349 C348 1.362 . S
C349 C350 1.376 . S
C350 H321 0.931 . S
C350 C349 1.376 . S
C350 C351 1.396 . S
C351 C350 1.396 . S
C351 C352 1.348 . S
C351 C369 1.472 . S
C352 H322 0.929 . S
C352 C351 1.348 . S
C352 C353 1.443 . S
C353 H320 0.932 . S
C353 C348 1.388 . S
C353 C352 1.443 . S
C354 N334 1.433 . S
C354 C355 1.363 . S
C354 C359 1.370 . S
C355 H323 0.929 . S
C355 C354 1.363 . S
C355 C356 1.385 . S
C356 H324 0.930 . S
C356 C355 1.385 . S
C356 C357 1.357 . S
C357 C356 1.357 . S
C357 C358 1.406 . S
C358 H325 0.929 . S
C358 C357 1.406 . S
C358 C359 1.391 . S
C359 H326 0.931 . S
C359 C354 1.370 . S
C359 C358 1.391 . S
C360 N334 1.435 . S
C360 C361 1.358 . S
C360 C365 1.371 . S
C361 H327 0.930 . S
C361 C360 1.358 . S
C361 C362 1.405 . S
C362 H328 0.932 . S
C362 C361 1.405 . S
C362 C363 1.383 . S
C363 C362 1.383 . S
C363 C364 1.393 . S
C364 H329 0.931 . S
C364 C363 1.393 . S
C364 C365 1.382 . S
C365 H330 0.929 . S
C365 C360 1.371 . S
C365 C364 1.382 . S
C366 N334 1.423 . S
C366 C367 1.362 . S
C366 C371 1.388 . S
C367 H331 0.929 . S
C367 C366 1.362 . S
C367 C368 1.376 . S
C368 H332 0.931 . S
C368 C367 1.376 . S
C368 C369 1.396 . S
C369 C351 1.472 . S
C369 C368 1.396 . S
C369 C370 1.348 . S
C370 H333 0.929 . S
C370 C369 1.348 . S
C370 C371 1.443 . S
C371 H335 0.932 . S
C371 C366 1.388 . S
C371 C370 1.443 . S
Zn372 O375 2.031 . S
Zn372 O377 2.049 . S
Zn372 O382 2.067 . S
Zn373 O374 1.962 . S
Zn373 O376 1.986 . S
Zn373 O378 1.996 . S
Zn373 O381 1.943 . S
O374 Zn373 1.962 . S
O374 C379 1.254 . S
O375 Zn372 2.031 . S
O375 C379 1.269 . S
O376 Zn373 1.986 . S
O376 C383 1.262 . S
O377 Zn372 2.049 . S
O377 C385 1.260 . S
O378 Zn373 1.996 . S
O378 C385 1.257 . S
C379 O374 1.254 . S
C379 O375 1.269 . S
C380 O381 1.249 . S
C380 O382 1.270 . S
O381 Zn373 1.943 . S
O381 C380 1.249 . S
O382 Zn372 2.067 . S
O382 C380 1.270 . S
C383 O376 1.262 . S
C383 O384 1.232 . S
O384 C383 1.232 . S
C385 O377 1.260 . S
C385 O378 1.257 . S
Zn386 O389 2.031 . S
Zn386 O391 2.049 . S
Zn386 O396 2.067 . S
Zn387 O388 1.962 . S
Zn387 O390 1.986 . S
Zn387 O392 1.996 . S
Zn387 O395 1.943 . S
O388 Zn387 1.962 . S
O388 C393 1.254 . S
O389 Zn386 2.031 . S
O389 C393 1.269 . S
O390 Zn387 1.986 . S
O390 C397 1.262 . S
O391 Zn386 2.049 . S
O391 C399 1.260 . S
O392 Zn387 1.996 . S
O392 C399 1.257 . S
C393 O388 1.254 . S
C393 O389 1.269 . S
C394 O395 1.249 . S
C394 O396 1.270 . S
O395 Zn387 1.943 . S
O395 C394 1.249 . S
O396 Zn386 2.067 . S
O396 C394 1.270 . S
C397 O390 1.262 . S
C397 O398 1.232 . S
O398 C397 1.232 . S
C399 O391 1.260 . S
C399 O392 1.257 . S
Zn400 O403 2.031 . S
Zn400 O405 2.049 . S
Zn400 O410 2.067 . S
Zn401 O402 1.962 . S
Zn401 O404 1.986 . S
Zn401 O406 1.996 . S
Zn401 O409 1.943 . S
O402 Zn401 1.962 . S
O402 C407 1.254 . S
O403 Zn400 2.031 . S
O403 C407 1.269 . S
O404 Zn401 1.986 . S
O404 C411 1.262 . S
O405 Zn400 2.049 . S
O405 C413 1.260 . S
O406 Zn401 1.996 . S
O406 C413 1.257 . S
C407 O402 1.254 . S
C407 O403 1.269 . S
C408 O409 1.249 . S
C408 O410 1.270 . S
O409 Zn401 1.943 . S
O409 C408 1.249 . S
O410 Zn400 2.067 . S
O410 C408 1.270 . S
C411 O404 1.262 . S
C411 O412 1.232 . S
O412 C411 1.232 . S
C413 O405 1.260 . S
C413 O406 1.257 . S
Zn414 O417 2.031 . S
Zn414 O419 2.049 . S
Zn414 O424 2.067 . S
Zn415 O416 1.962 . S
Zn415 O418 1.986 . S
Zn415 O420 1.996 . S
Zn415 O423 1.943 . S
O416 Zn415 1.962 . S
O416 C421 1.254 . S
O417 Zn414 2.031 . S
O417 C421 1.269 . S
O418 Zn415 1.986 . S
O418 C425 1.262 . S
O419 Zn414 2.049 . S
O419 C427 1.260 . S
O420 Zn415 1.996 . S
O420 C427 1.257 . S
C421 O416 1.254 . S
C421 O417 1.269 . S
C422 O423 1.249 . S
C422 O424 1.270 . S
O423 Zn415 1.943 . S
O423 C422 1.249 . S
O424 Zn414 2.067 . S
O424 C422 1.270 . S
C425 O418 1.262 . S
C425 O426 1.232 . S
O426 C425 1.232 . S
C427 O419 1.260 . S
C427 O420 1.257 . S
Zn428 O431 2.031 . S
Zn428 O433 2.049 . S
Zn428 O438 2.067 . S
Zn429 O430 1.962 . S
Zn429 O432 1.986 . S
Zn429 O434 1.996 . S
Zn429 O437 1.943 . S
O430 Zn429 1.962 . S
O430 C435 1.254 . S
O431 Zn428 2.031 . S
O431 C435 1.269 . S
O432 Zn429 1.986 . S
O432 C439 1.262 . S
O433 Zn428 2.049 . S
O433 C441 1.260 . S
O434 Zn429 1.996 . S
O434 C441 1.257 . S
C435 O430 1.254 . S
C435 O431 1.269 . S
C436 O437 1.249 . S
C436 O438 1.270 . S
O437 Zn429 1.943 . S
O437 C436 1.249 . S
O438 Zn428 2.067 . S
O438 C436 1.270 . S
C439 O432 1.262 . S
C439 O440 1.232 . S
O440 C439 1.232 . S
C441 O433 1.260 . S
C441 O434 1.257 . S
Zn442 O445 2.031 . S
Zn442 O447 2.049 . S
Zn442 O452 2.067 . S
Zn443 O444 1.962 . S
Zn443 O446 1.986 . S
Zn443 O448 1.996 . S
Zn443 O451 1.943 . S
O444 Zn443 1.962 . S
O444 C449 1.254 . S
O445 Zn442 2.031 . S
O445 C449 1.269 . S
O446 Zn443 1.986 . S
O446 C453 1.262 . S
O447 Zn442 2.049 . S
O447 C455 1.260 . S
O448 Zn443 1.996 . S
O448 C455 1.257 . S
C449 O444 1.254 . S
C449 O445 1.269 . S
C450 O451 1.249 . S
C450 O452 1.270 . S
O451 Zn443 1.943 . S
O451 C450 1.249 . S
O452 Zn442 2.067 . S
O452 C450 1.270 . S
C453 O446 1.262 . S
C453 O454 1.232 . S
O454 C453 1.232 . S
C455 O447 1.260 . S
C455 O448 1.257 . S
C456 C457 1.369 . S
C456 C458 1.419 . S
C456 H460 0.930 . S
C457 C456 1.369 . S
C457 C466 1.429 . S
C458 C456 1.419 . S
C458 C459 1.363 . S
C458 H461 0.929 . S
C459 C458 1.363 . S
C459 C465 1.428 . S
H460 C456 0.930 . S
H461 C458 0.929 . S
S462 N463 1.613 . S
S462 N464 1.610 . S
N463 S462 1.613 . S
N463 C466 1.350 . S
N464 S462 1.610 . S
N464 C465 1.351 . S
C465 C459 1.428 . S
C465 N464 1.351 . S
C465 C466 1.434 . S
C466 C457 1.429 . S
C466 N463 1.350 . S
C466 C465 1.434 . S
C467 C468 1.369 . S
C467 C469 1.419 . S
C467 H471 0.930 . S
C468 C467 1.369 . S
C468 C477 1.429 . S
C469 C467 1.419 . S
C469 C470 1.363 . S
C469 H472 0.929 . S
C470 C469 1.363 . S
C470 C476 1.428 . S
H471 C467 0.930 . S
H472 C469 0.929 . S
S473 N474 1.613 . S
S473 N475 1.610 . S
N474 S473 1.613 . S
N474 C477 1.350 . S
N475 S473 1.610 . S
N475 C476 1.351 . S
C476 C470 1.428 . S
C476 N475 1.351 . S
C476 C477 1.434 . S
C477 C468 1.429 . S
C477 N474 1.350 . S
C477 C476 1.434 . S
C478 C479 1.369 . S
C478 C480 1.419 . S
C478 H482 0.930 . S
C479 C478 1.369 . S
C479 C488 1.429 . S
C480 C478 1.419 . S
C480 C481 1.363 . S
C480 H483 0.929 . S
C481 C480 1.363 . S
C481 C487 1.428 . S
H482 C478 0.930 . S
H483 C480 0.929 . S
S484 N485 1.613 . S
S484 N486 1.610 . S
N485 S484 1.613 . S
N485 C488 1.350 . S
N486 S484 1.610 . S
N486 C487 1.351 . S
C487 C481 1.428 . S
C487 N486 1.351 . S
C487 C488 1.434 . S
C488 C479 1.429 . S
C488 N485 1.350 . S
C488 C487 1.434 . S
C489 C490 1.369 . S
C489 C491 1.419 . S
C489 H493 0.930 . S
C490 C489 1.369 . S
C490 C499 1.429 . S
C491 C489 1.419 . S
C491 C492 1.363 . S
C491 H494 0.929 . S
C492 C491 1.363 . S
C492 C498 1.428 . S
H493 C489 0.930 . S
H494 C491 0.929 . S
S495 N496 1.613 . S
S495 N497 1.610 . S
N496 S495 1.613 . S
N496 C499 1.350 . S
N497 S495 1.610 . S
N497 C498 1.351 . S
C498 C492 1.428 . S
C498 N497 1.351 . S
C498 C499 1.434 . S
C499 C490 1.429 . S
C499 N496 1.350 . S
C499 C498 1.434 . S
C500 C501 1.369 . S
C500 C502 1.419 . S
C500 H504 0.930 . S
C501 C500 1.369 . S
C501 C510 1.429 . S
C502 C500 1.419 . S
C502 C503 1.363 . S
C502 H505 0.929 . S
C503 C502 1.363 . S
C503 C509 1.428 . S
H504 C500 0.930 . S
H505 C502 0.929 . S
S506 N507 1.613 . S
S506 N508 1.610 . S
N507 S506 1.613 . S
N507 C510 1.350 . S
N508 S506 1.610 . S
N508 C509 1.351 . S
C509 C503 1.428 . S
C509 N508 1.351 . S
C509 C510 1.434 . S
C510 C501 1.429 . S
C510 N507 1.350 . S
C510 C509 1.434 . S
C511 C512 1.369 . S
C511 C513 1.419 . S
C511 H515 0.930 . S
C512 C511 1.369 . S
C512 C521 1.429 . S
C513 C511 1.419 . S
C513 C514 1.363 . S
C513 H516 0.929 . S
C514 C513 1.363 . S
C514 C520 1.428 . S
H515 C511 0.930 . S
H516 C513 0.929 . S
S517 N518 1.613 . S
S517 N519 1.610 . S
N518 S517 1.613 . S
N518 C521 1.350 . S
N519 S517 1.610 . S
N519 C520 1.351 . S
C520 C514 1.428 . S
C520 N519 1.351 . S
C520 C521 1.434 . S
C521 C512 1.429 . S
C521 N518 1.350 . S
C521 C520 1.434 . S
C522 C523 1.369 . S
C522 C524 1.419 . S
C522 H526 0.930 . S
C523 C522 1.369 . S
C523 C532 1.429 . S
C524 C522 1.419 . S
C524 C525 1.363 . S
C524 H527 0.929 . S
C525 C524 1.363 . S
C525 C531 1.428 . S
H526 C522 0.930 . S
H527 C524 0.929 . S
S528 N529 1.613 . S
S528 N530 1.610 . S
N529 S528 1.613 . S
N529 C532 1.350 . S
N530 S528 1.610 . S
N530 C531 1.351 . S
C531 C525 1.428 . S
C531 N530 1.351 . S
C531 C532 1.434 . S
C532 C523 1.429 . S
C532 N529 1.350 . S
C532 C531 1.434 . S
C533 C534 1.369 . S
C533 C535 1.419 . S
C533 H537 0.930 . S
C534 C533 1.369 . S
C534 C543 1.429 . S
C535 C533 1.419 . S
C535 C536 1.363 . S
C535 H538 0.929 . S
C536 C535 1.363 . S
C536 C542 1.428 . S
H537 C533 0.930 . S
H538 C535 0.929 . S
S539 N540 1.613 . S
S539 N541 1.610 . S
N540 S539 1.613 . S
N540 C543 1.350 . S
N541 S539 1.610 . S
N541 C542 1.351 . S
C542 C536 1.428 . S
C542 N541 1.351 . S
C542 C543 1.434 . S
C543 C534 1.429 . S
C543 N540 1.350 . S
C543 C542 1.434 . S
C544 C545 1.369 . S
C544 C546 1.419 . S
C544 H548 0.930 . S
C545 C544 1.369 . S
C545 C554 1.429 . S
C546 C544 1.419 . S
C546 C547 1.363 . S
C546 H549 0.929 . S
C547 C546 1.363 . S
C547 C553 1.428 . S
H548 C544 0.930 . S
H549 C546 0.929 . S
S550 N551 1.613 . S
S550 N552 1.610 . S
N551 S550 1.613 . S
N551 C554 1.350 . S
N552 S550 1.610 . S
N552 C553 1.351 . S
C553 C547 1.428 . S
C553 N552 1.351 . S
C553 C554 1.434 . S
C554 C545 1.429 . S
C554 N551 1.350 . S
C554 C553 1.434 . S
C555 C556 1.369 . S
C555 C557 1.419 . S
C555 H559 0.930 . S
C556 C555 1.369 . S
C556 C565 1.429 . S
C557 C555 1.419 . S
C557 C558 1.363 . S
C557 H560 0.929 . S
C558 C557 1.363 . S
C558 C564 1.428 . S
H559 C555 0.930 . S
H560 C557 0.929 . S
S561 N562 1.613 1_556 S
S561 N563 1.610 1_556 S
N562 S561 1.613 1_554 S
N562 C565 1.350 . S
N563 S561 1.610 1_554 S
N563 C564 1.351 . S
C564 C558 1.428 . S
C564 N563 1.351 . S
C564 C565 1.434 . S
C565 C556 1.429 . S
C565 N562 1.350 . S
C565 C564 1.434 . S
C566 C567 1.369 . S
C566 C568 1.419 . S
C566 H570 0.930 . S
C567 C566 1.369 . S
C567 C576 1.429 . S
C568 C566 1.419 . S
C568 C569 1.363 . S
C568 H571 0.929 . S
C569 C568 1.363 . S
C569 C575 1.428 . S
H570 C566 0.930 . S
H571 C568 0.929 . S
S572 N573 1.613 . S
S572 N574 1.610 . S
N573 S572 1.613 . S
N573 C576 1.350 . S
N574 S572 1.610 . S
N574 C575 1.351 . S
C575 C569 1.428 . S
C575 N574 1.351 . S
C575 C576 1.434 . S
C576 C567 1.429 . S
C576 N573 1.350 . S
C576 C575 1.434 . S
C577 C578 1.369 . S
C577 C579 1.419 . S
C577 H581 0.930 . S
C578 C577 1.369 . S
C578 C587 1.429 . S
C579 C577 1.419 . S
C579 C580 1.363 . S
C579 H582 0.929 . S
C580 C579 1.363 . S
C580 C586 1.428 . S
H581 C577 0.930 . S
H582 C579 0.929 . S
S583 N584 1.613 . S
S583 N585 1.610 . S
N584 S583 1.613 . S
N584 C587 1.350 . S
N585 S583 1.610 . S
N585 C586 1.351 . S
C586 C580 1.428 . S
C586 N585 1.351 . S
C586 C587 1.434 . S
C587 C578 1.429 . S
C587 N584 1.350 . S
C587 C586 1.434 . S
C588 C589 1.369 . S
C588 C590 1.419 . S
C588 H592 0.930 . S
C589 C588 1.369 . S
C589 C598 1.429 . S
C590 C588 1.419 . S
C590 C591 1.363 . S
C590 H593 0.929 . S
C591 C590 1.363 . S
C591 C597 1.428 . S
H592 C588 0.930 . S
H593 C590 0.929 . S
S594 N595 1.613 . S
S594 N596 1.610 . S
N595 S594 1.613 . S
N595 C598 1.350 . S
N596 S594 1.610 . S
N596 C597 1.351 . S
C597 C591 1.428 . S
C597 N596 1.351 . S
C597 C598 1.434 . S
C598 C589 1.429 . S
C598 N595 1.350 . S
C598 C597 1.434 . S
C599 C600 1.369 . S
C599 C601 1.419 . S
C599 H603 0.930 . S
C600 C599 1.369 . S
C600 C609 1.429 . S
C601 C599 1.419 . S
C601 C602 1.363 . S
C601 H604 0.929 . S
C602 C601 1.363 . S
C602 C608 1.428 . S
H603 C599 0.930 . S
H604 C601 0.929 . S
S605 N606 1.613 . S
S605 N607 1.610 . S
N606 S605 1.613 . S
N606 C609 1.350 . S
N607 S605 1.610 . S
N607 C608 1.351 . S
C608 C602 1.428 . S
C608 N607 1.351 . S
C608 C609 1.434 . S
C609 C600 1.429 . S
C609 N606 1.350 . S
C609 C608 1.434 . S
C610 C611 1.369 . S
C610 C612 1.419 . S
C610 H614 0.930 . S
C611 C610 1.369 . S
C611 C620 1.429 . S
C612 C610 1.419 . S
C612 C613 1.363 . S
C612 H615 0.929 . S
C613 C612 1.363 . S
C613 C619 1.428 . S
H614 C610 0.930 . S
H615 C612 0.929 . S
S616 N617 1.613 . S
S616 N618 1.610 . S
N617 S616 1.613 . S
N617 C620 1.350 . S
N618 S616 1.610 . S
N618 C619 1.351 . S
C619 C613 1.428 . S
C619 N618 1.351 . S
C619 C620 1.434 . S
C620 C611 1.429 . S
C620 N617 1.350 . S
C620 C619 1.434 . S
C621 C622 1.369 . S
C621 C623 1.419 . S
C621 H625 0.930 . S
C622 C621 1.369 . S
C622 C631 1.429 . S
C623 C621 1.419 . S
C623 C624 1.363 . S
C623 H626 0.929 1_556 S
C624 C623 1.363 . S
C624 C630 1.428 . S
H625 C621 0.930 . S
H626 C623 0.929 1_554 S
S627 N628 1.613 . S
S627 N629 1.610 . S
N628 S627 1.613 . S
N628 C631 1.350 . S
N629 S627 1.610 . S
N629 C630 1.351 . S
C630 C624 1.428 . S
C630 N629 1.351 . S
C630 C631 1.434 . S
C631 C622 1.429 . S
C631 N628 1.350 . S
C631 C630 1.434 . S
C632 C633 1.369 . S
C632 C634 1.419 . S
C632 H636 0.930 . S
C633 C632 1.369 . S
C633 C642 1.429 . S
C634 C632 1.419 . S
C634 C635 1.363 . S
C634 H637 0.929 . S
C635 C634 1.363 . S
C635 C641 1.428 . S
H636 C632 0.930 . S
H637 C634 0.929 . S
S638 N639 1.613 . S
S638 N640 1.610 . S
N639 S638 1.613 . S
N639 C642 1.350 . S
N640 S638 1.610 . S
N640 C641 1.351 . S
C641 C635 1.428 . S
C641 N640 1.351 . S
C641 C642 1.434 . S
C642 C633 1.429 . S
C642 N639 1.350 . S
C642 C641 1.434 . S
C643 C644 1.369 . S
C643 C645 1.419 . S
C643 H647 0.930 . S
C644 C643 1.369 . S
C644 C653 1.429 . S
C645 C643 1.419 . S
C645 C646 1.363 . S
C645 H648 0.929 . S
C646 C645 1.363 . S
C646 C652 1.428 . S
H647 C643 0.930 . S
H648 C645 0.929 . S
S649 N650 1.613 . S
S649 N651 1.610 . S
N650 S649 1.613 . S
N650 C653 1.350 . S
N651 S649 1.610 . S
N651 C652 1.351 . S
C652 C646 1.428 . S
C652 N651 1.351 . S
C652 C653 1.434 . S
C653 C644 1.429 . S
C653 N650 1.350 . S
C653 C652 1.434 . S
C654 C655 1.369 . S
C654 C656 1.419 . S
C654 H658 0.930 . S
C655 C654 1.369 . S
C655 C664 1.429 . S
C656 C654 1.419 . S
C656 C657 1.363 . S
C656 H659 0.929 . S
C657 C656 1.363 . S
C657 C663 1.428 . S
H658 C654 0.930 . S
H659 C656 0.929 . S
S660 N661 1.613 . S
S660 N662 1.610 . S
N661 S660 1.613 . S
N661 C664 1.350 . S
N662 S660 1.610 . S
N662 C663 1.351 . S
C663 C657 1.428 . S
C663 N662 1.351 . S
C663 C664 1.434 . S
C664 C655 1.429 . S
C664 N661 1.350 . S
C664 C663 1.434 . S
C665 C666 1.369 . S
C665 C667 1.419 . S
C665 H669 0.930 . S
C666 C665 1.369 . S
C666 C675 1.429 . S
C667 C665 1.419 . S
C667 C668 1.363 . S
C667 H670 0.929 . S
C668 C667 1.363 . S
C668 C674 1.428 . S
H669 C665 0.930 . S
H670 C667 0.929 . S
S671 N672 1.613 . S
S671 N673 1.610 . S
N672 S671 1.613 . S
N672 C675 1.350 . S
N673 S671 1.610 . S
N673 C674 1.351 . S
C674 C668 1.428 . S
C674 N673 1.351 . S
C674 C675 1.434 . S
C675 C666 1.429 . S
C675 N672 1.350 . S
C675 C674 1.434 . S
C676 C677 1.369 . S
C676 C678 1.419 . S
C676 H680 0.930 . S
C677 C676 1.369 . S
C677 C686 1.429 . S
C678 C676 1.419 . S
C678 C679 1.363 . S
C678 H681 0.929 . S
C679 C678 1.363 . S
C679 C685 1.428 . S
H680 C676 0.930 . S
H681 C678 0.929 . S
S682 N683 1.613 . S
S682 N684 1.610 . S
N683 S682 1.613 . S
N683 C686 1.350 . S
N684 S682 1.610 . S
N684 C685 1.351 . S
C685 C679 1.428 . S
C685 N684 1.351 . S
C685 C686 1.434 . S
C686 C677 1.429 . S
C686 N683 1.350 . S
C686 C685 1.434 . S
C687 C688 1.369 . S
C687 C689 1.419 . S
C687 H691 0.930 . S
C688 C687 1.369 . S
C688 C697 1.429 . S
C689 C687 1.419 . S
C689 C690 1.363 . S
C689 H692 0.929 . S
C690 C689 1.363 . S
C690 C696 1.428 . S
H691 C687 0.930 . S
H692 C689 0.929 . S
S693 N694 1.613 . S
S693 N695 1.610 . S
N694 S693 1.613 . S
N694 C697 1.350 . S
N695 S693 1.610 . S
N695 C696 1.351 . S
C696 C690 1.428 . S
C696 N695 1.351 . S
C696 C697 1.434 . S
C697 C688 1.429 . S
C697 N694 1.350 . S
C697 C696 1.434 . S
C698 C699 1.369 1_556 S
C698 C700 1.419 . S
C698 H702 0.930 . S
C699 C698 1.369 1_554 S
C699 C708 1.429 . S
C700 C698 1.419 . S
C700 C701 1.363 . S
C700 H703 0.929 . S
C701 C700 1.363 . S
C701 C707 1.428 1_556 S
H702 C698 0.930 . S
H703 C700 0.929 . S
S704 N705 1.613 . S
S704 N706 1.610 . S
N705 S704 1.613 . S
N705 C708 1.350 . S
N706 S704 1.610 . S
N706 C707 1.351 . S
C707 C701 1.428 1_554 S
C707 N706 1.351 . S
C707 C708 1.434 . S
C708 C699 1.429 . S
C708 N705 1.350 . S
C708 C707 1.434 . S
C709 C710 1.369 . S
C709 C711 1.419 . S
C709 H713 0.930 . S
C710 C709 1.369 . S
C710 C719 1.429 . S
C711 C709 1.419 . S
C711 C712 1.363 . S
C711 H714 0.929 . S
C712 C711 1.363 . S
C712 C718 1.428 . S
H713 C709 0.930 . S
H714 C711 0.929 . S
S715 N716 1.613 . S
S715 N717 1.610 . S
N716 S715 1.613 . S
N716 C719 1.350 . S
N717 S715 1.610 . S
N717 C718 1.351 . S
C718 C712 1.428 . S
C718 N717 1.351 . S
C718 C719 1.434 . S
C719 C710 1.429 . S
C719 N716 1.350 . S
C719 C718 1.434 . S
C459 C449 1.652 . S
C457 C29 1.564 . S
C468 C115 1.486 . S
C470 C383 1.453 . S
C479 C153 1.423 . S
C481 C397 1.478 . S
C490 C239 1.506 . S
C492 C411 1.472 . S
C503 C425 1.581 . S
C501 C301 1.613 . S
C512 C339 1.768 . S
C514 C435 1.868 . S
C523 C91 1.556 . S
C525 C393 1.647 . S
C534 C177 1.649 . S
C536 C407 1.677 . S
C545 C215 1.611 . S
C547 C421 1.697 . S
C558 C439 1.838 . S
C556 C277 1.779 . S
C569 C453 1.534 . S
C567 C363 1.551 . S
C580 C379 1.561 . S
C578 C53 1.549 . S
C589 C35 1.581 . S
C591 C394 1.551 . S
C600 C109 1.449 . S
C602 C408 1.512 . S
C613 C422 1.521 . S
C611 C159 1.539 . S
C622 C233 1.571 . S
C624 C441 1.660 1_556 S
C635 C455 1.455 . S
C633 C295 1.369 . S
C646 C380 1.372 . S
C644 C345 1.406 . S
C657 C450 1.418 . S
C655 C97 1.436 . S
C666 C171 1.265 . S
C668 C385 1.343 . S
C679 C399 1.468 . S
C677 C221 1.467 . S
C688 C283 1.361 . S
C690 C413 1.346 . S
C699 C357 1.376 . S
C701 C427 1.506 . S
C710 C47 1.608 . S
C712 C436 1.667 . S
