# Generated by pormake.
# Topology apo, (3,6)-cn, num edge types: 1
# Building blocks:
#     Node 0, Type 0, BuildingBlock: KAKCAD_clean_linker_0, # of connection points: 3
#     Node 1, Type 0, BuildingBlock: KAKCAD_clean_linker_0, # of connection points: 3
#     Node 2, Type 0, BuildingBlock: KAKCAD_clean_linker_0, # of connection points: 3
#     Node 3, Type 0, BuildingBlock: KAKCAD_clean_linker_0, # of connection points: 3
#     Node 4, Type 0, BuildingBlock: KAKCAD_clean_linker_0, # of connection points: 3
#     Node 5, Type 0, BuildingBlock: KAKCAD_clean_linker_0, # of connection points: 3
#     Node 6, Type 0, BuildingBlock: KAKCAD_clean_linker_0, # of connection points: 3
#     Node 7, Type 0, BuildingBlock: KAKCAD_clean_linker_0, # of connection points: 3
#     Node 8, Type 1, BuildingBlock: KUMBOL_clean_sbu_1, # of connection points: 6
#     Node 9, Type 1, BuildingBlock: KUMBOL_clean_sbu_1, # of connection points: 6
#     Node 10, Type 1, BuildingBlock: KUMBOL_clean_sbu_1, # of connection points: 6
#     Node 11, Type 1, BuildingBlock: KUMBOL_clean_sbu_1, # of connection points: 6
#     Edge 12, Type (0, 1), BuildingBlock: CIFDUS_clean_linker_0, # of connection points: 2
#     Edge 13, Type (0, 1), BuildingBlock: CIFDUS_clean_linker_0, # of connection points: 2
#     Edge 14, Type (0, 1), BuildingBlock: CIFDUS_clean_linker_0, # of connection points: 2
#     Edge 15, Type (0, 1), BuildingBlock: CIFDUS_clean_linker_0, # of connection points: 2
#     Edge 16, Type (0, 1), BuildingBlock: CIFDUS_clean_linker_0, # of connection points: 2
#     Edge 17, Type (0, 1), BuildingBlock: CIFDUS_clean_linker_0, # of connection points: 2
#     Edge 18, Type (0, 1), BuildingBlock: CIFDUS_clean_linker_0, # of connection points: 2
#     Edge 19, Type (0, 1), BuildingBlock: CIFDUS_clean_linker_0, # of connection points: 2
#     Edge 20, Type (0, 1), BuildingBlock: CIFDUS_clean_linker_0, # of connection points: 2
#     Edge 21, Type (0, 1), BuildingBlock: CIFDUS_clean_linker_0, # of connection points: 2
#     Edge 22, Type (0, 1), BuildingBlock: CIFDUS_clean_linker_0, # of connection points: 2
#     Edge 23, Type (0, 1), BuildingBlock: CIFDUS_clean_linker_0, # of connection points: 2
#     Edge 24, Type (0, 1), BuildingBlock: CIFDUS_clean_linker_0, # of connection points: 2
#     Edge 25, Type (0, 1), BuildingBlock: CIFDUS_clean_linker_0, # of connection points: 2
#     Edge 26, Type (0, 1), BuildingBlock: CIFDUS_clean_linker_0, # of connection points: 2
#     Edge 27, Type (0, 1), BuildingBlock: CIFDUS_clean_linker_0, # of connection points: 2
#     Edge 28, Type (0, 1), BuildingBlock: CIFDUS_clean_linker_0, # of connection points: 2
#     Edge 29, Type (0, 1), BuildingBlock: CIFDUS_clean_linker_0, # of connection points: 2
#     Edge 30, Type (0, 1), BuildingBlock: CIFDUS_clean_linker_0, # of connection points: 2
#     Edge 31, Type (0, 1), BuildingBlock: CIFDUS_clean_linker_0, # of connection points: 2
#     Edge 32, Type (0, 1), BuildingBlock: CIFDUS_clean_linker_0, # of connection points: 2
#     Edge 33, Type (0, 1), BuildingBlock: CIFDUS_clean_linker_0, # of connection points: 2
#     Edge 34, Type (0, 1), BuildingBlock: CIFDUS_clean_linker_0, # of connection points: 2
#     Edge 35, Type (0, 1), BuildingBlock: CIFDUS_clean_linker_0, # of connection points: 2
# Relax obj value: 0.009
# Max RMSD: 0.104
# Mean RMSD: 0.080
data_MOF--net-apo--node1-KUMBOL_clean_sbu_1--node2-KAKCAD_clean_linker_0--edge1-CIFDUS_clean_linker_0
_symmetry_space_group_name_H-M    P1
_symmetry_Int_Tables_number       1
_symmetry_cell_setting            triclinic
loop_
_symmetry_equiv_pos_as_xyz
'x, y, z'
_cell_length_a     26.61969
_cell_length_b     46.977646
_cell_length_c     58.258614
_cell_angle_alpha  90.018059
_cell_angle_beta   90.094871
_cell_angle_gamma 90.327178
loop_
_atom_site_label
_atom_site_type_symbol
_atom_site_fract_x
_atom_site_fract_y
_atom_site_fract_z
_atom_type_partial_charge
C0 C 0.31889 0.46433 0.35557 0.0
C1 C 0.36908 0.47297 0.3588 0.0
C2 C 0.29768 0.44307 0.36937 0.0
C3 C 0.32616 0.42998 0.38674 0.0
C4 C 0.37611 0.43893 0.39015 0.0
C5 C 0.39724 0.46018 0.3764 0.0
C6 C 0.30469 0.40643 0.4008 0.0
C7 C 0.27531 0.38506 0.39053 0.0
C8 C 0.25727 0.36188 0.40339 0.0
C9 C 0.26911 0.36004 0.4269 0.0
C10 C 0.29924 0.38106 0.43749 0.0
C11 C 0.31568 0.40446 0.42433 0.0
C12 C 0.31605 0.37822 0.46185 0.0
C13 C 0.28405 0.36728 0.47896 0.0
C14 C 0.36488 0.38676 0.46817 0.0
C15 C 0.38088 0.3852 0.49094 0.0
C16 C 0.34897 0.3745 0.50816 0.0
C17 C 0.22802 0.3391 0.39172 0.0
C18 C 0.1812 0.33009 0.40024 0.0
C19 C 0.24608 0.3271 0.37126 0.0
C20 C 0.21768 0.30683 0.35936 0.0
C21 C 0.17031 0.29827 0.36751 0.0
C22 C 0.15236 0.31003 0.38812 0.0
C23 C 0.30034 0.36541 0.50184 0.0
H24 H 0.29625 0.47359 0.34207 0.0
H25 H 0.25895 0.43687 0.36643 0.0
H26 H 0.39936 0.4291 0.40316 0.0
H27 H 0.43578 0.46659 0.37958 0.0
H28 H 0.26711 0.38613 0.37232 0.0
H29 H 0.3373 0.4213 0.43242 0.0
H30 H 0.25674 0.34162 0.43659 0.0
H31 H 0.24614 0.36059 0.47478 0.0
H32 H 0.39113 0.39471 0.45549 0.0
H33 H 0.41824 0.3929 0.49503 0.0
H34 H 0.16639 0.33912 0.41592 0.0
H35 H 0.28219 0.33354 0.36439 0.0
H36 H 0.27483 0.35674 0.51453 0.0
H37 H 0.1161 0.30367 0.39486 0.0
H38 H 0.23233 0.29831 0.34346 0.0
C39 C 0.19952 0.03653 0.85266 0.0
C40 C 0.15387 0.02218 0.85632 0.0
C41 C 0.21434 0.05881 0.86708 0.0
C42 C 0.1835 0.06761 0.88535 0.0
C43 C 0.1382 0.0528 0.88927 0.0
C44 C 0.12368 0.03023 0.87497 0.0
C45 C 0.19831 0.09253 0.8998 0.0
C46 C 0.22247 0.11608 0.88973 0.0
C47 C 0.23888 0.13932 0.90301 0.0
C48 C 0.22987 0.13915 0.92681 0.0
C49 C 0.20467 0.11608 0.93716 0.0
C50 C 0.18905 0.09291 0.92355 0.0
C51 C 0.19594 0.11546 0.96231 0.0
C52 C 0.23633 0.11838 0.97769 0.0
C53 C 0.14754 0.11036 0.97105 0.0
C54 C 0.13978 0.10781 0.99473 0.0
C55 C 0.18046 0.10967 0.01006 0.0
C56 C 0.26537 0.16349 0.89164 0.0
C57 C 0.30148 0.15816 0.8746 0.0
C58 C 0.2531 0.19186 0.89673 0.0
C59 C 0.27534 0.21433 0.88451 0.0
C60 C 0.31054 0.2089 0.86705 0.0
C61 C 0.32368 0.18053 0.86246 0.0
C62 C 0.22875 0.1152 1.00134 0.0
H63 H 0.22386 0.03049 0.83861 0.0
H64 H 0.2501 0.06915 0.86386 0.0
H65 H 0.11324 0.05912 0.90299 0.0
H66 H 0.08806 0.01966 0.87806 0.0
H67 H 0.22784 0.11659 0.87131 0.0
H68 H 0.17114 0.07477 0.93168 0.0
H69 H 0.24258 0.15685 0.9373 0.0
H70 H 0.27403 0.12214 0.97136 0.0
H71 H 0.11579 0.10808 0.95953 0.0
H72 H 0.10226 0.10336 1.00101 0.0
H73 H 0.31225 0.13656 0.87045 0.0
H74 H 0.22525 0.19667 0.90967 0.0
H75 H 0.26069 0.11676 0.01282 0.0
H76 H 0.35022 0.17549 0.849 0.0
H77 H 0.2648 0.23595 0.88868 0.0
C78 C 0.82943 0.03786 0.65771 0.0
C79 C 0.87731 0.02747 0.65234 0.0
C80 C 0.80971 0.06109 0.64591 0.0
C81 C 0.8376 0.07482 0.62861 0.0
C82 C 0.8852 0.06407 0.62289 0.0
C83 C 0.90478 0.04053 0.6346 0.0
C84 C 0.81699 0.10061 0.61715 0.0
C85 C 0.79025 0.12057 0.63016 0.0
C86 C 0.76596 0.14377 0.61983 0.0
C87 C 0.77215 0.14789 0.59604 0.0
C88 C 0.801 0.12896 0.58269 0.0
C89 C 0.82256 0.10508 0.59343 0.0
C90 C 0.80865 0.13429 0.5576 0.0
C91 C 0.77047 0.14672 0.54425 0.0
C92 C 0.85484 0.12803 0.54693 0.0
C93 C 0.86299 0.13479 0.52379 0.0
C94 C 0.82547 0.14835 0.51097 0.0
C95 C 0.73357 0.16304 0.63398 0.0
C96 C 0.70862 0.15251 0.65355 0.0
C97 C 0.72701 0.19191 0.62828 0.0
C98 C 0.69651 0.20955 0.64169 0.0
C99 C 0.67287 0.19916 0.66168 0.0
C100 C 0.67984 0.17033 0.66739 0.0
C101 C 0.77901 0.15395 0.52132 0.0
H102 H 0.80694 0.02784 0.67095 0.0
H103 H 0.77239 0.06827 0.65037 0.0
H104 H 0.9078 0.07422 0.60976 0.0
H105 H 0.94188 0.03297 0.63015 0.0
H106 H 0.78874 0.11796 0.64861 0.0
H107 H 0.84257 0.08956 0.58325 0.0
H108 H 0.7545 0.16589 0.58785 0.0
H109 H 0.73393 0.15113 0.55151 0.0
H110 H 0.88539 0.11876 0.55662 0.0
H111 H 0.89924 0.13044 0.51617 0.0
H112 H 0.71096 0.13032 0.65838 0.0
H113 H 0.74574 0.20119 0.6136 0.0
H114 H 0.74932 0.16415 0.51165 0.0
H115 H 0.66364 0.16126 0.68276 0.0
H116 H 0.69158 0.23133 0.63616 0.0
C117 C 0.6833 0.4654 0.1578 0.0
C118 C 0.6349 0.47521 0.15252 0.0
C119 C 0.70354 0.44225 0.1461 0.0
C120 C 0.67597 0.42831 0.12879 0.0
C121 C 0.62789 0.43834 0.12317 0.0
C122 C 0.60749 0.46153 0.13496 0.0
C123 C 0.69773 0.40321 0.11698 0.0
C124 C 0.72299 0.38257 0.12989 0.0
C125 C 0.7493 0.36031 0.11927 0.0
C126 C 0.747 0.358 0.09516 0.0
C127 C 0.71986 0.37778 0.08186 0.0
C128 C 0.69568 0.40049 0.09301 0.0
C129 C 0.71824 0.37529 0.05631 0.0
C130 C 0.76068 0.36622 0.04404 0.0
C131 C 0.67436 0.38197 0.04395 0.0
C132 C 0.67307 0.37971 0.01998 0.0
C133 C 0.71553 0.37052 1.00774 0.0
C134 C 0.78036 0.34039 0.13344 0.0
C135 C 0.80224 0.34974 0.15416 0.0
C136 C 0.78889 0.3121 0.12655 0.0
C137 C 0.81855 0.29391 0.13989 0.0
C138 C 0.8393 0.30313 0.16092 0.0
C139 C 0.83012 0.33132 0.16787 0.0
C140 C 0.75922 0.36367 0.02017 0.0
H141 H 0.7059 0.47582 0.17084 0.0
H142 H 0.74113 0.43538 0.1505 0.0
H143 H 0.60568 0.42791 0.11 0.0
H144 H 0.56991 0.46841 0.1306 0.0
H145 H 0.72204 0.3841 0.14842 0.0
H146 H 0.6769 0.4167 0.08299 0.0
H147 H 0.76675 0.34097 0.08664 0.0
H148 H 0.79544 0.36132 0.05282 0.0
H149 H 0.64073 0.38873 0.0528 0.0
H150 H 0.63889 0.38545 0.01105 0.0
H151 H 0.7983 0.37149 0.15997 0.0
H152 H 0.77246 0.30372 0.11094 0.0
H153 H 0.79245 0.35603 0.01148 0.0
H154 H 0.84399 0.33942 0.18407 0.0
H155 H 0.82526 0.27266 0.13347 0.0
C156 C 0.63038 0.56016 0.67303 0.0
C157 C 0.62884 0.53156 0.66591 0.0
C158 C 0.65127 0.58118 0.65893 0.0
C159 C 0.67142 0.57414 0.63737 0.0
C160 C 0.66992 0.54554 0.63024 0.0
C161 C 0.64883 0.52453 0.64431 0.0
C162 C 0.69415 0.59651 0.62243 0.0
C163 C 0.72345 0.61842 0.63198 0.0
C164 C 0.74491 0.63972 0.61814 0.0
C165 C 0.73787 0.63859 0.59418 0.0
C166 C 0.70842 0.61679 0.58417 0.0
C167 C 0.68644 0.5961 0.59858 0.0
C168 C 0.69891 0.61562 0.55887 0.0
C169 C 0.69077 0.64055 0.54596 0.0
C170 C 0.69484 0.58914 0.54765 0.0
C171 C 0.6801 0.5875 0.52468 0.0
C172 C 0.67006 0.61229 0.51211 0.0
C173 C 0.77379 0.6632 0.6292 0.0
C174 C 0.75394 0.67698 0.64855 0.0
C175 C 0.82197 0.67097 0.6215 0.0
C176 C 0.85027 0.69153 0.63339 0.0
C177 C 0.83057 0.70498 0.65299 0.0
C178 C 0.78188 0.69763 0.66025 0.0
C179 C 0.67678 0.63889 0.52274 0.0
H180 H 0.61587 0.56634 0.68965 0.0
H181 H 0.65121 0.60303 0.66488 0.0
H182 H 0.68556 0.53928 0.61386 0.0
H183 H 0.64773 0.5028 0.63811 0.0
H184 H 0.73035 0.61872 0.65033 0.0
H185 H 0.66195 0.57996 0.5913 0.0
H186 H 0.75488 0.65481 0.58345 0.0
H187 H 0.69319 0.66131 0.55397 0.0
H188 H 0.70221 0.56949 0.55674 0.0
H189 H 0.67593 0.56675 0.51676 0.0
H190 H 0.71678 0.67157 0.65481 0.0
H191 H 0.83829 0.66057 0.60671 0.0
H192 H 0.66914 0.65831 0.51338 0.0
H193 H 0.76575 0.70734 0.67539 0.0
H194 H 0.88754 0.6969 0.62729 0.0
C195 C 0.7614 0.87227 0.0184 0.0
C196 C 0.80823 0.87996 1.00901 0.0
C197 C 0.75342 0.87336 0.04214 0.0
C198 C 0.7921 0.88214 0.05709 0.0
C199 C 0.83909 0.88939 0.04771 0.0
C200 C 0.84697 0.88844 0.02403 0.0
C201 C 0.78367 0.88402 0.08234 0.0
C202 C 0.75511 0.86318 0.09391 0.0
C203 C 0.74892 0.86443 0.11783 0.0
C204 C 0.77078 0.88695 0.1302 0.0
C205 C 0.79871 0.90818 0.11899 0.0
C206 C 0.80502 0.90654 0.09509 0.0
C207 C 0.82195 0.93175 0.13238 0.0
C208 C 0.79453 0.94577 0.14957 0.0
C209 C 0.87211 0.93987 0.1285 0.0
C210 C 0.89468 0.96115 0.14185 0.0
C211 C 0.86745 0.97493 0.15923 0.0
C212 C 0.7204 0.84203 0.13017 0.0
C213 C 0.67115 0.83491 0.12355 0.0
C214 C 0.74185 0.82831 0.1492 0.0
C215 C 0.71447 0.80799 0.16151 0.0
C216 C 0.6648 0.80133 0.15525 0.0
C217 C 0.64339 0.81492 0.13613 0.0
C218 C 0.81698 0.96721 0.16279 0.0
H219 H 0.73083 0.86539 1.0074 0.0
H220 H 0.71663 0.86781 0.04873 0.0
H221 H 0.87002 0.89581 0.05868 0.0
H222 H 0.88331 0.89495 0.01748 0.0
H223 H 0.73913 0.84542 0.08447 0.0
H224 H 0.82589 0.92318 0.08637 0.0
H225 H 0.76623 0.88782 0.14868 0.0
H226 H 0.75567 0.94014 0.15282 0.0
H227 H 0.89428 0.92933 0.11548 0.0
H228 H 0.9335 0.96683 0.13856 0.0
H229 H 0.65376 0.84531 0.10899 0.0
H230 H 0.77986 0.83336 0.15456 0.0
H231 H 0.79514 0.9773 0.17616 0.0
H232 H 0.60523 0.81002 0.1309 0.0
H233 H 0.73173 0.79792 0.17625 0.0
C234 C 0.11842 0.93525 0.3459 0.0
C235 C 0.12881 0.9634 0.35272 0.0
C236 C 0.13205 0.91237 0.35982 0.0
C237 C 0.15593 0.91706 0.381 0.0
C238 C 0.16492 0.94514 0.38826 0.0
C239 C 0.15172 0.96809 0.37421 0.0
C240 C 0.17393 0.8926 0.39477 0.0
C241 C 0.2014 0.87099 0.38401 0.0
C242 C 0.2195 0.8477 0.39654 0.0
C243 C 0.20985 0.84625 0.4202 0.0
C244 C 0.18196 0.86756 0.43137 0.0
C245 C 0.16437 0.89082 0.41844 0.0
C246 C 0.17187 0.86542 0.4565 0.0
C247 C 0.16336 0.83871 0.46679 0.0
C248 C 0.17256 0.88981 0.47058 0.0
C249 C 0.16662 0.88737 0.49438 0.0
C250 C 0.16057 0.86051 0.50458 0.0
C251 C 0.24864 0.82504 0.38481 0.0
C252 C 0.23421 0.81541 0.3629 0.0
C253 C 0.2914 0.81315 0.3952 0.0
C254 C 0.31931 0.79234 0.38384 0.0
C255 C 0.30523 0.78309 0.36179 0.0
C256 C 0.26225 0.79475 0.3515 0.0
C257 C 0.15831 0.83627 0.49056 0.0
H258 H 0.09973 0.93081 0.32976 0.0
H259 H 0.12409 0.89092 0.35396 0.0
H260 H 0.18372 0.94932 0.40443 0.0
H261 H 0.16077 0.98945 0.37992 0.0
H262 H 0.20987 0.87276 0.36587 0.0
H263 H 0.14223 0.90723 0.4266 0.0
H264 H 0.22421 0.82842 0.42993 0.0
H265 H 0.16111 0.81953 0.45652 0.0
H266 H 0.17951 0.9107 0.46337 0.0
H267 H 0.16888 0.90636 0.5049 0.0
H268 H 0.20096 0.82371 0.35458 0.0
H269 H 0.30396 0.82036 0.41192 0.0
H270 H 0.15316 0.81534 0.49804 0.0
H271 H 0.25002 0.7877 0.33468 0.0
H272 H 0.35256 0.78393 0.39209 0.0
C273 C 0.29656 0.64502 0.99683 0.0
C274 C 0.34191 0.63384 1.00523 0.0
C275 C 0.28388 0.64243 0.9736 0.0
C276 C 0.31632 0.62867 0.95817 0.0
C277 C 0.36147 0.61727 0.96666 0.0
C278 C 0.37403 0.61977 0.98989 0.0
C279 C 0.30371 0.62664 0.93327 0.0
C280 C 0.28177 0.64981 0.92172 0.0
C281 C 0.27155 0.64843 0.89807 0.0
C282 C 0.28344 0.6235 0.88597 0.0
C283 C 0.30497 0.6 0.89711 0.0
C284 C 0.31472 0.60175 0.92081 0.0
C285 C 0.3184 0.57404 0.88374 0.0
C286 C 0.28766 0.56457 0.86555 0.0
C287 C 0.36315 0.55926 0.88834 0.0
C288 C 0.3774 0.53613 0.87473 0.0
C289 C 0.34751 0.52747 0.85608 0.0
C290 C 0.24884 0.67299 0.88577 0.0
C291 C 0.20831 0.68796 0.8953 0.0
C292 C 0.26649 0.68098 0.86396 0.0
C293 C 0.24346 0.70291 0.85173 0.0
C294 C 0.20222 0.7175 0.861 0.0
C295 C 0.18518 0.70993 0.88303 0.0
C296 C 0.30224 0.54171 0.85179 0.0
H297 H 0.27066 0.65565 1.00826 0.0
H298 H 0.24845 0.65105 0.96776 0.0
H299 H 0.38778 0.60697 0.95524 0.0
H300 H 0.40958 0.6113 0.99573 0.0
H301 H 0.27415 0.66932 0.93098 0.0
H302 H 0.33025 0.58354 0.92967 0.0
H303 H 0.27611 0.6225 0.86769 0.0
H304 H 0.25237 0.57495 0.86181 0.0
H305 H 0.38813 0.56612 0.90198 0.0
H306 H 0.41273 0.52567 0.87829 0.0
H307 H 0.19366 0.68223 0.91202 0.0
H308 H 0.29807 0.67016 0.85624 0.0
H309 H 0.27815 0.5352 0.8377 0.0
H310 H 0.15389 0.72096 0.8908 0.0
H311 H 0.2573 0.70796 0.83473 0.0
C312 C 0.83934 0.12608 0.26051 0.0
C313 C 0.83065 0.07623 0.27084 0.0
C314 C 0.85846 0.10189 0.27114 0.0
C315 C 0.78414 0.07509 0.25944 0.0
C316 C 0.79249 0.12504 0.2492 0.0
C317 C 0.76512 0.09941 0.24867 0.0
N318 N 0.86736 0.15038 0.26063 0.0
C319 C 0.8497 0.17473 0.25085 0.0
C320 C 0.77477 0.14976 0.23855 0.0
C321 C 0.80337 0.17475 0.23951 0.0
Gd322 Gd 0.06853 0.13797 0.24029 0.0
Gd323 Gd 0.94459 0.14814 0.27986 0.0
N324 N 0.90427 0.10341 0.28159 0.0
C325 C 0.85018 0.05251 0.28221 0.0
C326 C 0.92164 0.08089 0.29399 0.0
C327 C 0.89551 0.055 0.29412 0.0
H328 H 0.95464 0.08286 0.30446 0.0
H329 H 0.90997 0.03709 0.30372 0.0
H330 H 0.05391 0.20575 0.2211 0.0
H331 H 0.87104 0.19428 0.25208 0.0
H332 H 0.09896 0.25131 0.22321 0.0
H333 H 0.82996 0.03243 0.2824 0.0
H334 H 0.76244 0.05551 0.25896 0.0
H335 H 0.1437 0.08994 0.26458 0.0
H336 H 0.73897 0.14981 0.22967 0.0
H337 H 0.7897 0.19406 0.23159 0.0
H338 H 0.25367 0.22858 0.26104 0.0
H339 H 0.72916 0.09818 0.23997 0.0
H340 H 0.28016 0.13203 0.28438 0.0
H341 H 0.22801 0.08832 0.28238 0.0
N342 N 0.14801 0.13409 0.25706 0.0
C343 C 0.17618 0.15832 0.2577 0.0
C344 C 0.16598 0.10916 0.26568 0.0
C345 C 0.2432 0.13285 0.27659 0.0
C346 C 0.21381 0.10815 0.27558 0.0
C347 C 0.22451 0.15836 0.26765 0.0
H348 H 0.28934 0.18431 0.27638 0.0
N349 N 0.10815 0.18292 0.24044 0.0
C350 C 0.15565 0.18344 0.24925 0.0
C351 C 0.16231 0.23379 0.24124 0.0
C352 C 0.18358 0.20902 0.25025 0.0
C353 C 0.08873 0.20664 0.23034 0.0
C354 C 0.11497 0.23249 0.23097 0.0
O355 O 0.93675 0.12605 0.24521 0.0
O356 O 0.0114 0.1025 0.2406 0.0
O357 O 0.07482 0.14306 0.20325 0.0
O358 O 0.12031 0.11194 0.22082 0.0
O359 O 0.00969 0.12305 0.29481 0.0
O360 O 0.04964 0.10143 0.264 0.0
O361 O 0.07851 0.15845 0.27523 0.0
O362 O 0.00471 0.18221 0.28172 0.0
O363 O 0.93051 0.14558 0.31719 0.0
O364 O 0.89334 0.17737 0.29576 0.0
O365 O 0.00195 0.16166 0.22556 0.0
O366 O 0.96704 0.18435 0.25671 0.0
C367 C 0.9632 0.10514 0.23649 0.0
C368 C 0.03884 0.10311 0.28608 0.0
C369 C 0.09728 0.10189 0.18232 0.0
C370 C 0.10032 0.09046 0.14142 0.0
C371 C 0.07495 0.05444 0.16908 0.0
C372 C 0.08134 0.07393 0.18697 0.0
C373 C 0.08479 0.06253 0.14645 0.0
C374 C 0.10606 0.11017 0.15945 0.0
C375 C 0.10677 0.12235 0.20108 0.0
C376 C 0.23181 0.20909 0.26007 0.0
C377 C 0.25219 0.18386 0.26875 0.0
H378 H 0.18257 0.25385 0.24166 0.0
C379 C 0.05261 0.17813 0.28591 0.0
C380 C 0.97292 0.18129 0.2345 0.0
C381 C 0.87033 0.17813 0.33584 0.0
C382 C 0.84891 0.1792 0.37678 0.0
C383 C 0.80524 0.20984 0.34967 0.0
C384 C 0.83397 0.19913 0.33176 0.0
C385 C 0.8123 0.1999 0.37192 0.0
C386 C 0.87779 0.1682 0.35847 0.0
C387 C 0.89855 0.16649 0.31609 0.0
H388 H 0.06282 0.0329 0.17278 0.0
H389 H 0.0745 0.06706 0.20442 0.0
H390 H 0.07997 0.04705 0.13282 0.0
H391 H 0.1186 0.13168 0.15575 0.0
H392 H 0.77695 0.22575 0.34624 0.0
H393 H 0.82713 0.20712 0.31461 0.0
H394 H 0.78827 0.20819 0.3853 0.0
H395 H 0.906 0.15218 0.36178 0.0
C396 C 0.65521 0.39551 0.76272 0.0
C397 C 0.64421 0.44366 0.77676 0.0
C398 C 0.62802 0.41504 0.77554 0.0
C399 C 0.68634 0.45255 0.7641 0.0
C400 C 0.69822 0.40418 0.75043 0.0
C401 C 0.71329 0.43286 0.75098 0.0
N402 N 0.6387 0.36809 0.76179 0.0
C403 C 0.66479 0.34794 0.74998 0.0
C404 C 0.72448 0.38378 0.73774 0.0
C405 C 0.70787 0.3555 0.73766 0.0
Gd406 Gd 0.43873 0.35916 0.74372 0.0
Gd407 Gd 0.56555 0.35742 0.78242 0.0
N408 N 0.58695 0.40588 0.78743 0.0
C409 C 0.61847 0.46232 0.79123 0.0
C410 C 0.56556 0.42326 0.8034 0.0
C411 C 0.57974 0.45189 0.80502 0.0
H412 H 0.53888 0.41504 0.81557 0.0
H413 H 0.56157 0.46571 0.8173 0.0
H414 H 0.45381 0.28938 0.73362 0.0
H415 H 0.65216 0.32605 0.75008 0.0
H416 H 0.4064 0.24462 0.73907 0.0
H417 H 0.62973 0.48446 0.79267 0.0
H418 H 0.69893 0.47451 0.76466 0.0
H419 H 0.36339 0.41165 0.76108 0.0
H420 H 0.75767 0.38961 0.72804 0.0
H421 H 0.72816 0.33954 0.72807 0.0
H422 H 0.24978 0.27451 0.77176 0.0
H423 H 0.74596 0.43999 0.74147 0.0
H424 H 0.22596 0.3743 0.78494 0.0
H425 H 0.27904 0.41691 0.77822 0.0
N426 N 0.3587 0.36661 0.75912 0.0
C427 C 0.3298 0.34297 0.76219 0.0
C428 C 0.34092 0.39294 0.76448 0.0
C429 C 0.26307 0.37188 0.77761 0.0
C430 C 0.29298 0.39598 0.77391 0.0
C431 C 0.28126 0.34495 0.77167 0.0
H432 H 0.21531 0.32118 0.78236 0.0
N433 N 0.397 0.31534 0.74796 0.0
C434 C 0.34922 0.3166 0.75618 0.0
C435 C 0.34176 0.26544 0.75347 0.0
C436 C 0.32062 0.29161 0.75952 0.0
C437 C 0.41708 0.29006 0.74124 0.0
C438 C 0.39005 0.2647 0.74412 0.0
O439 O 0.56688 0.3752 0.74621 0.0
O440 O 0.49089 0.39717 0.74309 0.0
O441 O 0.43529 0.34828 0.70755 0.0
O442 O 0.38791 0.38162 0.7208 0.0
O443 O 0.49404 0.37594 0.79763 0.0
O444 O 0.45464 0.39673 0.76664 0.0
O445 O 0.43424 0.33549 0.77772 0.0
O446 O 0.51422 0.31937 0.78563 0.0
O447 O 0.58443 0.35862 0.8192 0.0
O448 O 0.62713 0.33223 0.7954 0.0
O449 O 0.50631 0.33578 0.7295 0.0
O450 O 0.55384 0.31873 0.76002 0.0
C451 C 0.53897 0.39594 0.73838 0.0
C452 C 0.46262 0.3947 0.78887 0.0
C453 C 0.41636 0.38586 0.68253 0.0
C454 C 0.41126 0.39492 0.64136 0.0
C455 C 0.46711 0.42326 0.66536 0.0
C456 C 0.45159 0.40799 0.68465 0.0
C457 C 0.4474 0.41664 0.64377 0.0
C458 C 0.39568 0.37959 0.66087 0.0
C459 C 0.4033 0.36824 0.70256 0.0
C460 C 0.27225 0.2935 0.76897 0.0
C461 C 0.25263 0.32009 0.77503 0.0
H462 H 0.32104 0.24574 0.7558 0.0
C463 C 0.46536 0.31851 0.78862 0.0
C464 C 0.53976 0.31835 0.73835 0.0
C465 C 0.65463 0.33101 0.83506 0.0
C466 C 0.68206 0.33164 0.87514 0.0
C467 C 0.72749 0.30371 0.84696 0.0
C468 C 0.6944 0.31253 0.82986 0.0
C469 C 0.7216 0.31328 0.86942 0.0
C470 C 0.64823 0.3403 0.85789 0.0
C471 C 0.62152 0.34102 0.81635 0.0
H472 H 0.49463 0.44018 0.66714 0.0
H473 H 0.46722 0.41327 0.7012 0.0
H474 H 0.45988 0.4287 0.62897 0.0
H475 H 0.36846 0.36246 0.65911 0.0
H476 H 0.75801 0.2895 0.84276 0.0
H477 H 0.70029 0.305 0.8125 0.0
H478 H 0.74778 0.30612 0.88243 0.0
H479 H 0.6179 0.35465 0.86215 0.0
C480 C 0.81549 0.84817 0.76239 0.0
C481 C 0.80196 0.7973 0.76641 0.0
C482 C 0.83284 0.82161 0.76921 0.0
C483 C 0.7531 0.80023 0.75764 0.0
C484 C 0.76677 0.85106 0.75312 0.0
C485 C 0.73552 0.82703 0.75105 0.0
N486 N 0.84708 0.87094 0.76375 0.0
C487 C 0.8318 0.89729 0.75695 0.0
C488 C 0.75112 0.87798 0.74583 0.0
C489 C 0.78379 0.9012 0.74778 0.0
Gd490 Gd 0.047 0.85776 0.73805 0.0
Gd491 Gd 0.9252 0.86284 0.78098 0.0
N492 N 0.8809 0.81928 0.77709 0.0
C493 C 0.82156 0.77059 0.77182 0.0
C494 C 0.90054 0.79306 0.78153 0.0
C495 C 0.87121 0.76846 0.77917 0.0
H496 H 0.93903 0.79057 0.78622 0.0
H497 H 0.8872 0.7478 0.78278 0.0
H498 H 0.04911 0.92493 0.7194 0.0
H499 H 0.8561 0.91551 0.75907 0.0
H500 H 0.10485 0.9672 0.72143 0.0
H501 H 0.79911 0.75143 0.76981 0.0
H502 H 0.7289 0.78179 0.75548 0.0
H503 H 0.12172 0.80132 0.7471 0.0
H504 H 0.71397 0.88106 0.73864 0.0
H505 H 0.77189 0.92215 0.74239 0.0
H506 H 0.25312 0.93273 0.75915 0.0
H507 H 0.69798 0.82887 0.74402 0.0
H508 H 0.26516 0.83192 0.77 0.0
H509 H 0.20808 0.79183 0.7606 0.0
N510 N 0.12922 0.84633 0.7498 0.0
C511 C 0.16103 0.86858 0.75346 0.0
C512 C 0.14629 0.819 0.75129 0.0
C513 C 0.22722 0.83622 0.76425 0.0
C514 C 0.1952 0.81353 0.75885 0.0
C515 C 0.21075 0.86417 0.761 0.0
H516 H 0.28124 0.88473 0.76996 0.0
N517 N 0.09881 0.89845 0.73814 0.0
C518 C 0.14546 0.89553 0.74724 0.0
C519 C 0.16329 0.94515 0.73978 0.0
C520 C 0.17879 0.91889 0.74859 0.0
C521 C 0.08495 0.92338 0.72793 0.0
C522 C 0.11653 0.94725 0.72897 0.0
O523 O 0.91619 0.84679 0.74471 0.0
O524 O 0.98942 0.82257 0.74096 0.0
O525 O 0.0376 0.86693 0.70157 0.0
O526 O 0.08361 0.83186 0.71223 0.0
O527 O 0.98459 0.83264 0.79428 0.0
O528 O 0.04829 0.82508 0.76696 0.0
O529 O 0.04602 0.89349 0.76407 0.0
O530 O 0.00247 0.87424 0.79445 0.0
O531 O 0.8938 0.85534 0.81509 0.0
O532 O 0.89045 0.89715 0.79977 0.0
O533 O 0.97837 0.88322 0.72814 0.0
O534 O 0.94712 0.90258 0.76147 0.0
C535 C 0.94252 0.82659 0.735 0.0
C536 C 0.02597 0.82005 0.78692 0.0
C537 C 0.11027 0.8575 0.6797 0.0
C538 C 0.14146 0.86669 0.64104 0.0
C539 C 0.1965 0.87317 0.67393 0.0
C540 C 0.15773 0.86485 0.68855 0.0
C541 C 0.1886 0.87392 0.65029 0.0
C542 C 0.10205 0.8588 0.65587 0.0
C543 C 0.06989 0.84785 0.69521 0.0
C544 C 0.22715 0.91498 0.75769 0.0
C545 C 0.24313 0.88764 0.76387 0.0
H546 H 0.18779 0.96363 0.74048 0.0
C547 C 0.03591 0.89202 0.78608 0.0
C548 C 0.95777 0.90439 0.73944 0.0
C549 C 0.90467 0.89517 0.83972 0.0
C550 C 0.91005 0.89686 0.88155 0.0
C551 C 0.95932 0.92974 0.85855 0.0
C552 C 0.93962 0.91775 0.83855 0.0
C553 C 0.94511 0.91918 0.87991 0.0
C554 C 0.88946 0.88501 0.86139 0.0
C555 C 0.88453 0.88224 0.81841 0.0
H556 H 0.23294 0.87874 0.68093 0.0
H557 H 0.16518 0.86381 0.70672 0.0
H558 H 0.21933 0.88021 0.63918 0.0
H559 H 0.06567 0.85296 0.64887 0.0
H560 H 0.98585 0.94723 0.85747 0.0
H561 H 0.952 0.92616 0.82219 0.0
H562 H 0.96104 0.9287 0.89525 0.0
H563 H 0.8624 0.86774 0.86257 0.0
C564 C 0.66001 0.67391 0.2598 0.0
C565 C 0.65146 0.72466 0.26635 0.0
C566 C 0.63214 0.6967 0.26803 0.0
C567 C 0.698 0.72942 0.25564 0.0
C568 C 0.70697 0.67858 0.24925 0.0
C569 C 0.72569 0.70646 0.24714 0.0
N570 N 0.6402 0.64724 0.2613 0.0
C571 C 0.66574 0.62424 0.25323 0.0
C572 C 0.73331 0.6551 0.24077 0.0
C573 C 0.71265 0.62782 0.24283 0.0
Gd574 Gd 0.44303 0.64162 0.23461 0.0
Gd575 Gd 0.56118 0.64333 0.27854 0.0
N576 N 0.5866 0.69152 0.27792 0.0
C577 C 0.6239 0.74697 0.27588 0.0
C578 C 0.56221 0.71288 0.28913 0.0
C579 C 0.5796 0.74096 0.28774 0.0
H580 H 0.53047 0.70843 0.29994 0.0
H581 H 0.55939 0.75787 0.29625 0.0
H582 H 0.45692 0.57083 0.2266 0.0
H583 H 0.64999 0.60311 0.25493 0.0
H584 H 0.40828 0.52692 0.23298 0.0
H585 H 0.63745 0.76873 0.27496 0.0
H586 H 0.71316 0.75078 0.25405 0.0
H587 H 0.36554 0.69541 0.24662 0.0
H588 H 0.76949 0.65782 0.23254 0.0
H589 H 0.73279 0.60954 0.23638 0.0
H590 H 0.24952 0.55955 0.26127 0.0
H591 H 0.76154 0.71048 0.23895 0.0
H592 H 0.22558 0.66011 0.26935 0.0
H593 H 0.27955 0.70208 0.26159 0.0
N594 N 0.36111 0.65033 0.24729 0.0
C595 C 0.33167 0.62699 0.25077 0.0
C596 C 0.34277 0.67704 0.25068 0.0
C597 C 0.26348 0.6571 0.26307 0.0
C598 C 0.29387 0.68084 0.25879 0.0
C599 C 0.28209 0.62975 0.25892 0.0
H600 H 0.21465 0.60696 0.26903 0.0
N601 N 0.39986 0.59817 0.23911 0.0
C602 C 0.35136 0.60017 0.24633 0.0
C603 C 0.343 0.54894 0.24542 0.0
C604 C 0.32191 0.57555 0.25001 0.0
C605 C 0.41981 0.57236 0.23366 0.0
C606 C 0.39199 0.54737 0.23701 0.0
O607 O 0.57067 0.65619 0.24129 0.0
O608 O 0.49706 0.67877 0.23334 0.0
O609 O 0.45136 0.63153 0.19834 0.0
O610 O 0.39168 0.65919 0.20943 0.0
O611 O 0.48769 0.66424 0.2888 0.0
O612 O 0.4564 0.6817 0.25478 0.0
O613 O 0.43218 0.62175 0.26985 0.0
O614 O 0.50965 0.60541 0.28183 0.0
O615 O 0.56654 0.6511 0.31534 0.0
O616 O 0.6189 0.62283 0.29895 0.0
O617 O 0.51072 0.61468 0.22577 0.0
O618 O 0.5537 0.60194 0.25908 0.0
C619 C 0.54561 0.67599 0.23044 0.0
C620 C 0.45886 0.68198 0.2773 0.0
C621 C 0.42624 0.66798 0.17303 0.0
C622 C 0.41853 0.68145 0.13266 0.0
C623 C 0.46263 0.71239 0.15959 0.0
C624 C 0.45249 0.69336 0.17736 0.0
C625 C 0.44576 0.70656 0.13739 0.0
C626 C 0.40945 0.66198 0.15063 0.0
C627 C 0.41499 0.64824 0.19196 0.0
C628 C 0.27262 0.57824 0.25826 0.0
C629 C 0.25277 0.60525 0.2627 0.0
H630 H 0.32164 0.52952 0.24806 0.0
C631 C 0.46034 0.60442 0.28198 0.0
C632 C 0.54165 0.59804 0.23728 0.0
C633 C 0.5966 0.61255 0.33726 0.0
C634 C 0.60572 0.60059 0.37801 0.0
C635 C 0.57184 0.5658 0.35091 0.0
C636 C 0.57706 0.58528 0.33303 0.0
C637 C 0.5863 0.57324 0.37318 0.0
C638 C 0.61055 0.62021 0.35976 0.0
C639 C 0.60286 0.63305 0.31831 0.0
H640 H 0.48317 0.73188 0.16307 0.0
H641 H 0.46447 0.69855 0.19455 0.0
H642 H 0.45403 0.72171 0.12388 0.0
H643 H 0.38824 0.64263 0.14736 0.0
H644 H 0.55706 0.54471 0.34747 0.0
H645 H 0.56639 0.57897 0.31583 0.0
H646 H 0.58307 0.55728 0.3865 0.0
H647 H 0.62488 0.64148 0.36297 0.0
H648 H 0.09226 0.01564 0.36452 0.0
H649 H 0.13794 0.96578 0.30596 0.0
H650 H 0.11485 0.00455 0.28031 0.0
H651 H 0.07982 0.0521 0.27434 0.0
H652 H 0.0376 0.10283 0.33297 0.0
H653 H 0.06192 0.06434 0.35869 0.0
C654 C 0.09785 0.01335 0.34619 0.0
C655 C 0.11638 0.98762 0.33725 0.0
C656 C 0.08514 0.0359 0.33149 0.0
C657 C 0.12272 0.98503 0.31336 0.0
C658 C 0.1099 0.0073 0.29864 0.0
C659 C 0.07653 0.05494 0.29275 0.0
C660 C 0.05684 0.08037 0.30165 0.0
C661 C 0.09075 0.03275 0.3075 0.0
C662 C 0.05244 0.08347 0.32559 0.0
C663 C 0.06632 0.06145 0.34035 0.0
H664 H 0.38266 0.47507 0.86767 0.0
H665 H 0.35094 0.52872 0.80943 0.0
H666 H 0.38247 0.49212 0.78343 0.0
H667 H 0.42244 0.44588 0.77739 0.0
H668 H 0.45138 0.3912 0.83538 0.0
H669 H 0.41817 0.42733 0.86136 0.0
C670 C 0.38267 0.47867 0.84928 0.0
C671 C 0.36466 0.50454 0.84047 0.0
C672 C 0.40055 0.45744 0.83442 0.0
C673 C 0.36429 0.50886 0.8166 0.0
C674 C 0.38251 0.48802 0.80174 0.0
C675 C 0.42065 0.4416 0.79566 0.0
C676 C 0.43928 0.41582 0.8044 0.0
C677 C 0.40103 0.46232 0.81047 0.0
C678 C 0.43744 0.4109 0.8282 0.0
C679 C 0.41846 0.43155 0.84307 0.0
H680 H 0.66225 0.47742 0.67306 0.0
H681 H 0.54437 0.53536 0.69249 0.0
H682 H 0.5073 0.49892 0.71713 0.0
H683 H 0.50752 0.45036 0.73282 0.0
H684 H 0.62237 0.39161 0.71163 0.0
H685 H 0.66144 0.42858 0.68808 0.0
C686 C 0.62815 0.48203 0.68249 0.0
C687 C 0.60628 0.50919 0.68089 0.0
C688 C 0.60654 0.46084 0.69639 0.0
C689 C 0.56255 0.51484 0.69361 0.0
C690 C 0.54107 0.49394 0.70761 0.0
C691 C 0.54099 0.44566 0.72295 0.0
C692 C 0.56222 0.41836 0.72405 0.0
C693 C 0.56267 0.46686 0.7091 0.0
C694 C 0.60568 0.41257 0.71128 0.0
C695 C 0.62786 0.43365 0.6977 0.0
H696 H 0.83044 0.02645 0.1722 0.0
H697 H 0.95966 0.97216 0.17949 0.0
H698 H 1.00017 0.00743 0.20426 0.0
H699 H 0.99839 0.05322 0.22429 0.0
H700 H 0.87131 0.10879 0.21557 0.0
H701 H 0.82967 0.0731 0.19161 0.0
C702 C 0.86735 0.02231 0.17932 0.0
C703 C 0.89201 0.99673 0.174 0.0
C704 C 0.89054 0.04276 0.19349 0.0
C705 C 0.94012 0.99181 0.18311 0.0
C706 C 0.96318 0.01189 0.19738 0.0
C707 C 0.96185 0.05771 0.21694 0.0
C708 C 0.93794 0.08361 0.22185 0.0
C709 C 0.93876 0.03742 0.20267 0.0
C710 C 0.89021 0.08883 0.21245 0.0
C711 C 0.86654 0.06852 0.19856 0.0
H712 H 0.87867 0.02041 0.69855 0.0
H713 H 0.92252 0.97988 0.63531 0.0
H714 H 0.95213 0.93839 0.65673 0.0
H715 H 0.96224 0.913 0.69324 0.0
H716 H 0.92071 0.95428 0.75664 0.0
H717 H 0.89292 0.996 0.73528 0.0
C718 C 0.89465 0.00245 0.68948 0.0
C719 C 0.89806 0.00307 0.66538 0.0
C720 C 0.91159 0.97875 0.7019 0.0
C721 C 0.9197 0.97993 0.65386 0.0
C722 C 0.93636 0.95617 0.66609 0.0
C723 C 0.94724 0.93112 0.70245 0.0
C724 C 0.94278 0.93022 0.72654 0.0
C725 C 0.932 0.95524 0.69009 0.0
C726 C 0.92381 0.95412 0.73811 0.0
C727 C 0.90806 0.97806 0.72591 0.0
H728 H 0.64128 0.48617 0.1984 0.0
H729 H 0.58043 0.51951 0.13521 0.0
H730 H 0.54635 0.56022 0.15592 0.0
H731 H 0.5349 0.58659 0.19165 0.0
H732 H 0.59652 0.55386 0.25494 0.0
H733 H 0.63024 0.51292 0.23431 0.0
C734 C 0.62095 0.50247 0.18911 0.0
C735 C 0.61347 0.49975 0.16525 0.0
C736 C 0.6019 0.526 0.20108 0.0
C737 C 0.58621 0.52083 0.15359 0.0
C738 C 0.56702 0.54423 0.16539 0.0
C739 C 0.55569 0.57056 0.20102 0.0
C740 C 0.56318 0.57341 0.22486 0.0
C741 C 0.57474 0.54705 0.18911 0.0
C742 C 0.59035 0.55235 0.23659 0.0
C743 C 0.60953 0.52887 0.22482 0.0
H744 H 0.32749 0.52228 0.34296 0.0
H745 H 0.46345 0.4727 0.34049 0.0
H746 H 0.5033 0.50887 0.31657 0.0
H747 H 0.49969 0.55436 0.29621 0.0
H748 H 0.36436 0.60434 0.29861 0.0
H749 H 0.32351 0.56773 0.32195 0.0
C750 C 0.36565 0.51924 0.33699 0.0
C751 C 0.39248 0.49485 0.34369 0.0
C752 C 0.38837 0.54009 0.32309 0.0
C753 C 0.44216 0.49147 0.33598 0.0
C754 C 0.46492 0.51205 0.32215 0.0
C755 C 0.46151 0.55746 0.30212 0.0
C756 C 0.43536 0.5822 0.29593 0.0
C757 C 0.4385 0.5365 0.31572 0.0
C758 C 0.38535 0.58546 0.30312 0.0
C759 C 0.36202 0.56459 0.31655 0.0
H760 H 0.11782 0.96937 0.86669 0.0
H761 H 0.15223 0.02461 0.80967 0.0
H762 H 0.12126 0.9886 0.78276 0.0
H763 H 0.0798 0.94271 0.77568 0.0
H764 H 0.04719 0.88674 0.83245 0.0
H765 H 0.0821 0.92168 0.85923 0.0
C766 C 0.11851 0.97345 0.84837 0.0
C767 C 0.13697 0.99963 0.84017 0.0
C768 C 0.10092 0.95258 0.83299 0.0
C769 C 0.13838 0.00455 0.81638 0.0
C770 C 0.12052 0.98403 0.801 0.0
C771 C 0.08116 0.93791 0.79384 0.0
C772 C 0.06075 0.91221 0.80202 0.0
C773 C 0.1012 0.95811 0.80913 0.0
C774 C 0.06227 0.9065 0.82569 0.0
C775 C 0.08227 0.92645 0.84103 0.0
H776 H 0.1151 0.13559 0.03926 0.0
H777 H 0.22907 0.0709 0.03634 0.0
H778 H 0.21447 0.0592 0.07671 0.0
H779 H 0.16762 0.06648 0.11263 0.0
H780 H 0.05727 0.13299 0.11654 0.0
H781 H 0.072 0.14502 0.07611 0.0
C782 C 0.13675 0.11902 0.04756 0.0
C783 C 0.17298 0.10403 0.03489 0.0
C784 C 0.1287 0.11274 0.07091 0.0
C785 C 0.2012 0.08279 0.04582 0.0
C786 C 0.19272 0.07603 0.06885 0.0
C787 C 0.14698 0.08364 0.10457 0.0
C788 C 0.11119 0.09873 0.11736 0.0
C789 C 0.15635 0.09072 0.08152 0.0
C790 C 0.08503 0.12116 0.10694 0.0
C791 C 0.09336 0.12795 0.08385 0.0
H792 H 0.29466 0.38433 0.5474 0.0
H793 H 0.44336 0.36216 0.52404 0.0
H794 H 0.47526 0.36609 0.56306 0.0
H795 H 0.46233 0.37839 0.60364 0.0
H796 H 0.31341 0.3973 0.6278 0.0
H797 H 0.27996 0.39143 0.58879 0.0
C798 C 0.33383 0.37979 0.55083 0.0
C799 C 0.36661 0.37357 0.53252 0.0
C800 C 0.35198 0.38154 0.57352 0.0
C801 C 0.41738 0.3679 0.53753 0.0
C802 C 0.43573 0.36992 0.55993 0.0
C803 C 0.42249 0.38095 0.60031 0.0
C804 C 0.39032 0.38846 0.61837 0.0
C805 C 0.40362 0.37726 0.57797 0.0
C806 C 0.33873 0.39147 0.61406 0.0
C807 C 0.31972 0.38823 0.59178 0.0
H808 H 0.63776 0.35276 0.98007 0.0
H809 H 0.79137 0.38282 0.97761 0.0
H810 H 0.79352 0.37462 0.9364 0.0
H811 H 0.75368 0.35655 0.9013 0.0
H812 H 0.59942 0.32842 0.90284 0.0
H813 H 0.59507 0.33911 0.94403 0.0
C814 C 0.67146 0.35802 0.97052 0.0
C815 C 0.71467 0.36788 0.98219 0.0
C816 C 0.67229 0.35368 0.9466 0.0
C817 C 0.75799 0.37439 0.96935 0.0
C818 C 0.75919 0.36995 0.94568 0.0
C819 C 0.71901 0.35301 0.91066 0.0
C820 C 0.67707 0.34151 0.8992 0.0
C821 C 0.71691 0.35915 0.93421 0.0
C822 C 0.63211 0.33735 0.91136 0.0
C823 C 0.62977 0.34327 0.9349 0.0
H824 H 0.85134 0.11686 0.47338 0.0
H825 H 0.82121 0.20253 0.49577 0.0
H826 H 0.83189 0.22001 0.45657 0.0
H827 H 0.84471 0.21072 0.41588 0.0
H828 H 0.86681 0.12467 0.39218 0.0
H829 H 0.86623 0.10768 0.4319 0.0
C830 C 0.84762 0.13935 0.46958 0.0
C831 C 0.8353 0.15844 0.4873 0.0
C832 C 0.85255 0.14916 0.44682 0.0
C833 C 0.83029 0.18751 0.4823 0.0
C834 C 0.83648 0.19748 0.45994 0.0
C835 C 0.84911 0.18818 0.4193 0.0
C836 C 0.85501 0.169 0.40092 0.0
C837 C 0.84667 0.17845 0.44202 0.0
C838 C 0.8624 0.14001 0.40589 0.0
C839 C 0.86157 0.13022 0.42863 0.0
H840 H 0.89232 0.86405 0.98568 0.0
H841 H 0.74269 0.8966 0.97523 0.0
H842 H 0.75886 0.9011 0.93417 0.0
H843 H 0.81853 0.90037 0.90168 0.0
H844 H 0.96988 0.87158 0.913 0.0
H845 H 0.95029 0.86116 0.95318 0.0
C846 C 0.86321 0.87221 0.97447 0.0
C847 C 0.81651 0.88021 0.98369 0.0
C848 C 0.87321 0.8755 0.95096 0.0
C849 C 0.77888 0.89004 0.9687 0.0
C850 C 0.78821 0.89284 0.94518 0.0
C851 C 0.84671 0.89126 0.91292 0.0
C852 C 0.89541 0.88654 0.90455 0.0
C853 C 0.83557 0.8862 0.93618 0.0
C854 C 0.9321 0.87521 0.9192 0.0
C855 C 0.92096 0.8694 0.94214 0.0
H856 H 0.70732 0.63598 0.47275 0.0
H857 H 0.58732 0.58306 0.49858 0.0
H858 H 0.55481 0.57646 0.45968 0.0
H859 H 0.56197 0.58428 0.41837 0.0
H860 H 0.68586 0.63389 0.39174 0.0
H861 H 0.7144 0.64386 0.43078 0.0
C862 C 0.67386 0.62322 0.46978 0.0
C863 C 0.64977 0.60994 0.48843 0.0
C864 C 0.65597 0.61898 0.44723 0.0
C865 C 0.60664 0.59329 0.48443 0.0
C866 C 0.58802 0.58955 0.46221 0.0
C867 C 0.59556 0.59705 0.42098 0.0
C868 C 0.62173 0.6081 0.40192 0.0
C869 C 0.61275 0.60196 0.44346 0.0
C870 C 0.66439 0.6253 0.40592 0.0
C871 C 0.6811 0.63083 0.42831 0.0
H872 H 0.33317 0.68148 0.03142 0.0
H873 H 0.3837 0.59446 0.0341 0.0
H874 H 0.41054 0.6011 0.07392 0.0
H875 H 0.42173 0.63217 0.10777 0.0
H876 H 0.37108 0.71916 0.10467 0.0
H877 H 0.34193 0.71192 0.06537 0.0
C878 C 0.34944 0.66384 0.0408 0.0
C879 C 0.35638 0.63752 0.02976 0.0
C880 C 0.36497 0.66784 0.06364 0.0
C881 C 0.37839 0.61505 0.04209 0.0
C882 C 0.39356 0.61879 0.0649 0.0
C883 C 0.40383 0.64942 0.09855 0.0
C884 C 0.39887 0.67621 0.10911 0.0
C885 C 0.38735 0.64516 0.07582 0.0
C886 C 0.37603 0.69845 0.09684 0.0
C887 C 0.35915 0.69431 0.07439 0.0
H888 H 0.09939 0.88673 0.53546 0.0
H889 H 0.22184 0.82743 0.53013 0.0
H890 H 0.22562 0.8234 0.57191 0.0
H891 H 0.19625 0.83802 0.60995 0.0
H892 H 0.07162 0.89562 0.61592 0.0
H893 H 0.06593 0.8989 0.57393 0.0
C894 C 0.12669 0.87291 0.54355 0.0
C895 C 0.16043 0.85747 0.52986 0.0
C896 C 0.12814 0.87038 0.56761 0.0
C897 C 0.19539 0.83938 0.54039 0.0
C898 C 0.19765 0.83714 0.56424 0.0
C899 C 0.16771 0.85116 0.60198 0.0
C900 C 0.13464 0.86673 0.61583 0.0
C901 C 0.16452 0.8527 0.578 0.0
C902 C 0.09735 0.88341 0.60548 0.0
C903 C 0.09431 0.88539 0.58153 0.0
H904 H 0.20088 0.24815 0.34937 0.0
H905 H 0.07111 0.30205 0.35562 0.0
H906 H 0.0225 0.26949 0.33122 0.0
H907 H 0.01822 0.22658 0.30673 0.0
H908 H 0.14768 0.17189 0.3025 0.0
H909 H 0.19517 0.20409 0.32699 0.0
C910 C 0.16194 0.25275 0.34538 0.0
C911 C 0.13971 0.27753 0.35414 0.0
C912 C 0.13432 0.23396 0.33143 0.0
C913 C 0.08898 0.283 0.34917 0.0
C914 C 0.06128 0.26448 0.33511 0.0
C915 C 0.05675 0.22165 0.31124 0.0
C916 C 0.07971 0.1972 0.30212 0.0
C917 C 0.08372 0.24002 0.32594 0.0
C918 C 0.12946 0.191 0.3085 0.0
C919 C 0.15663 0.20929 0.32276 0.0
H920 H 0.40743 0.21487 0.85262 0.0
H921 H 0.26294 0.25597 0.84997 0.0
H922 H 0.29814 0.29366 0.82587 0.0
H923 H 0.36973 0.31466 0.80525 0.0
H924 H 0.51336 0.27243 0.80678 0.0
H925 H 0.4786 0.23553 0.83163 0.0
C926 C 0.3835 0.23197 0.84668 0.0
C927 C 0.33257 0.23251 0.85316 0.0
C928 C 0.40381 0.2534 0.8326 0.0
C929 C 0.30241 0.25516 0.84557 0.0
C930 C 0.32243 0.27664 0.83163 0.0
C931 C 0.39336 0.29724 0.81078 0.0
C932 C 0.44402 0.29625 0.80389 0.0
C933 C 0.37303 0.27591 0.82497 0.0
C934 C 0.47425 0.2738 0.81174 0.0
C935 C 0.45439 0.25262 0.82595 0.0
H936 H 0.68098 0.25723 0.66785 0.0
H937 H 0.59278 0.1844 0.68954 0.0
H938 H 0.54707 0.2142 0.71618 0.0
H939 H 0.53173 0.26112 0.7338 0.0
H940 H 0.60862 0.33488 0.70714 0.0
H941 H 0.65833 0.30465 0.68163 0.0
C942 C 0.65112 0.2477 0.67789 0.0
C943 C 0.64178 0.21812 0.67672 0.0
C944 C 0.62275 0.26525 0.69243 0.0
C945 C 0.60291 0.2067 0.69044 0.0
C946 C 0.57599 0.22384 0.70561 0.0
C947 C 0.55918 0.27045 0.72226 0.0
C948 C 0.56743 0.29994 0.72248 0.0
C949 C 0.58582 0.25309 0.70689 0.0
C950 C 0.60239 0.31206 0.70733 0.0
C951 C 0.63064 0.29482 0.69276 0.0
H952 H 0.8337 0.24465 0.16427 0.0
H953 H 0.91593 0.31725 0.19095 0.0
H954 H 0.96108 0.28642 0.21704 0.0
H955 H 0.97789 0.23867 0.23263 0.0
H956 H 0.90719 0.1656 0.20142 0.0
H957 H 0.85783 0.19671 0.17636 0.0
C958 C 0.86215 0.25393 0.17532 0.0
C959 C 0.86996 0.28367 0.1757 0.0
C960 C 0.89033 0.23587 0.18955 0.0
C961 C 0.90699 0.29477 0.19065 0.0
C962 C 0.93359 0.27706 0.2055 0.0
C963 C 0.95179 0.22971 0.22021 0.0
C964 C 0.94553 0.20013 0.21884 0.0
C965 C 0.92535 0.24762 0.20522 0.0
C966 C 0.91239 0.18845 0.20259 0.0
C967 C 0.88417 0.2062 0.18836 0.0
H968 H 0.79926 0.75569 0.66991 0.0
H969 H 0.92934 0.70165 0.66611 0.0
H970 H 0.97643 0.73477 0.69062 0.0
H971 H 0.97909 0.77818 0.71475 0.0
H972 H 0.84834 0.83209 0.71741 0.0
H973 H 0.80305 0.79973 0.69223 0.0
C974 C 0.83791 0.75113 0.67446 0.0
C975 C 0.86059 0.72614 0.66631 0.0
C976 C 0.86456 0.77013 0.68862 0.0
C977 C 0.91105 0.72084 0.67202 0.0
C978 C 0.93789 0.73968 0.68617 0.0
C979 C 0.9408 0.7829 0.70972 0.0
C980 C 0.91698 0.80732 0.71842 0.0
C981 C 0.91484 0.76427 0.69481 0.0
C982 C 0.86745 0.8132 0.71148 0.0
C983 C 0.84144 0.79476 0.69691 0.0
H984 H 0.69215 0.74811 0.16795 0.0
H985 H 0.57139 0.80847 0.17331 0.0
H986 H 0.52382 0.77518 0.19737 0.0
H987 H 0.51779 0.72938 0.21771 0.0
H988 H 0.6358 0.66763 0.2097 0.0
H989 H 0.68393 0.70124 0.18644 0.0
C990 C 0.65541 0.7539 0.17442 0.0
C991 C 0.63528 0.78066 0.16898 0.0
C992 C 0.6281 0.73455 0.18795 0.0
C993 C 0.58743 0.78788 0.1772 0.0
C994 C 0.5604 0.76894 0.19103 0.0
C995 C 0.55367 0.72313 0.21056 0.0
C996 C 0.57328 0.6961 0.2155 0.0
C997 C 0.58043 0.74225 0.19657 0.0
C998 C 0.62017 0.68847 0.20641 0.0
C999 C 0.64759 0.70761 0.19298 0.0
H1000 H 0.33487 0.78467 0.31728 0.0
H1001 H 0.34376 0.73344 0.37857 0.0
H1002 H 0.39269 0.69775 0.35792 0.0
H1003 H 0.43146 0.68071 0.32218 0.0
H1004 H 0.42384 0.73263 0.2612 0.0
H1005 H 0.37524 0.76824 0.2819 0.0
C1006 C 0.34723 0.76558 0.32606 0.0
C1007 C 0.33551 0.76162 0.34937 0.0
C1008 C 0.3753 0.74522 0.31411 0.0
C1009 C 0.35259 0.73706 0.36066 0.0
C1010 C 0.38036 0.7166 0.34884 0.0
C1011 C 0.41927 0.69987 0.31346 0.0
C1012 C 0.43046 0.7038 0.29009 0.0
C1013 C 0.39179 0.72042 0.32554 0.0
C1014 C 0.41476 0.72881 0.27905 0.0
C1015 C 0.3872 0.74926 0.2909 0.0
H1016 H 0.1014 0.72667 0.85698 0.0
H1017 H 0.24518 0.75889 0.83429 0.0
H1018 H 0.20322 0.79363 0.80985 0.0
H1019 H 0.12558 0.81479 0.79497 0.0
H1020 H 0.98228 0.78341 0.81809 0.0
H1021 H 0.02394 0.74936 0.84309 0.0
C1022 C 0.12362 0.74151 0.84692 0.0
C1023 C 0.17644 0.73993 0.84736 0.0
C1024 C 0.09926 0.7615 0.83288 0.0
C1025 C 0.2045 0.75923 0.834 0.0
C1026 C 0.18054 0.77921 0.82008 0.0
C1027 C 0.10358 0.79959 0.80458 0.0
C1028 C 0.05093 0.80013 0.80304 0.0
C1029 C 0.12795 0.78024 0.81913 0.0
C1030 C 0.02279 0.78249 0.81777 0.0
C1031 C 0.04667 0.76311 0.83232 0.0
loop_
_geom_bond_atom_site_label_1
_geom_bond_atom_site_label_2
_geom_bond_distance
_geom_bond_site_symmetry_2
_ccdc_geom_bond_type
C0 C1 1.386 . S
C0 C2 1.397 . S
C0 H24 0.931 . S
C1 C0 1.386 . S
C1 C5 1.397 . S
C2 C0 1.397 . S
C2 C3 1.384 . S
C2 H25 0.930 . S
C3 C2 1.384 . S
C3 C4 1.377 . S
C3 C6 1.481 . S
C4 C3 1.377 . S
C4 C5 1.389 . S
C4 H26 0.929 . S
C5 C1 1.397 . S
C5 C4 1.389 . S
C5 H27 0.931 . S
C6 C3 1.481 . S
C6 C7 1.387 . S
C6 C11 1.390 . S
C7 C6 1.387 . S
C7 C8 1.401 . S
C7 H28 0.930 . S
C8 C7 1.401 . S
C8 C9 1.376 . S
C8 C17 1.511 . S
C9 C8 1.376 . S
C9 C10 1.392 . S
C9 H30 0.931 . S
C10 C9 1.392 . S
C10 C11 1.361 . S
C10 C12 1.500 . S
C11 C6 1.390 . S
C11 C10 1.361 . S
C11 H29 0.931 . S
C12 C10 1.500 . S
C12 C13 1.371 . S
C12 C14 1.365 . S
C13 C12 1.371 . S
C13 C23 1.386 . S
C13 H31 0.931 . S
C14 C12 1.365 . S
C14 C15 1.409 . S
C14 H32 0.929 . S
C15 C14 1.409 . S
C15 C16 1.380 . S
C15 H33 0.930 . S
C16 C15 1.380 . S
C16 C23 1.357 . S
C17 C8 1.511 . S
C17 C18 1.341 . S
C17 C19 1.371 . S
C18 C17 1.341 . S
C18 C22 1.394 . S
C18 H34 0.930 . S
C19 C17 1.371 . S
C19 C20 1.392 . S
C19 H35 0.931 . S
C20 C19 1.392 . S
C20 C21 1.331 . S
C20 H38 0.932 . S
C21 C20 1.331 . S
C21 C22 1.336 . S
C22 C18 1.394 . S
C22 C21 1.336 . S
C22 H37 0.929 . S
C23 C13 1.386 . S
C23 C16 1.357 . S
C23 H36 0.928 . S
H24 C0 0.931 . S
H25 C2 0.930 . S
H26 C4 0.929 . S
H27 C5 0.931 . S
H28 C7 0.930 . S
H29 C11 0.931 . S
H30 C9 0.931 . S
H31 C13 0.931 . S
H32 C14 0.929 . S
H33 C15 0.930 . S
H34 C18 0.930 . S
H35 C19 0.931 . S
H36 C23 0.928 . S
H37 C22 0.929 . S
H38 C20 0.932 . S
C39 C40 1.386 . S
C39 C41 1.397 . S
C39 H63 0.931 . S
C40 C39 1.386 . S
C40 C44 1.397 . S
C41 C39 1.397 . S
C41 C42 1.384 . S
C41 H64 0.930 . S
C42 C41 1.384 . S
C42 C43 1.377 . S
C42 C45 1.481 . S
C43 C42 1.377 . S
C43 C44 1.389 . S
C43 H65 0.929 . S
C44 C40 1.397 . S
C44 C43 1.389 . S
C44 H66 0.931 . S
C45 C42 1.481 . S
C45 C46 1.387 . S
C45 C50 1.390 . S
C46 C45 1.387 . S
C46 C47 1.401 . S
C46 H67 0.930 . S
C47 C46 1.401 . S
C47 C48 1.376 . S
C47 C56 1.511 . S
C48 C47 1.376 . S
C48 C49 1.392 . S
C48 H69 0.931 . S
C49 C48 1.392 . S
C49 C50 1.361 . S
C49 C51 1.500 . S
C50 C45 1.390 . S
C50 C49 1.361 . S
C50 H68 0.931 . S
C51 C49 1.500 . S
C51 C52 1.371 . S
C51 C53 1.365 . S
C52 C51 1.371 . S
C52 C62 1.386 . S
C52 H70 0.931 . S
C53 C51 1.365 . S
C53 C54 1.409 . S
C53 H71 0.929 . S
C54 C53 1.409 . S
C54 C55 1.380 . S
C54 H72 0.930 . S
C55 C54 1.380 . S
C55 C62 1.357 . S
C56 C47 1.511 . S
C56 C57 1.341 . S
C56 C58 1.371 . S
C57 C56 1.341 . S
C57 C61 1.394 . S
C57 H73 0.930 . S
C58 C56 1.371 . S
C58 C59 1.392 . S
C58 H74 0.931 . S
C59 C58 1.392 . S
C59 C60 1.331 . S
C59 H77 0.932 . S
C60 C59 1.331 . S
C60 C61 1.336 . S
C61 C57 1.394 . S
C61 C60 1.336 . S
C61 H76 0.929 . S
C62 C52 1.386 . S
C62 C55 1.357 . S
C62 H75 0.928 . S
H63 C39 0.931 . S
H64 C41 0.930 . S
H65 C43 0.929 . S
H66 C44 0.931 . S
H67 C46 0.930 . S
H68 C50 0.931 . S
H69 C48 0.931 . S
H70 C52 0.931 . S
H71 C53 0.929 . S
H72 C54 0.930 . S
H73 C57 0.930 . S
H74 C58 0.931 . S
H75 C62 0.928 . S
H76 C61 0.929 . S
H77 C59 0.932 . S
C78 C79 1.386 . S
C78 C80 1.397 . S
C78 H102 0.931 . S
C79 C78 1.386 . S
C79 C83 1.397 . S
C80 C78 1.397 . S
C80 C81 1.384 . S
C80 H103 0.930 . S
C81 C80 1.384 . S
C81 C82 1.377 . S
C81 C84 1.481 . S
C82 C81 1.377 . S
C82 C83 1.389 . S
C82 H104 0.929 . S
C83 C79 1.397 . S
C83 C82 1.389 . S
C83 H105 0.931 . S
C84 C81 1.481 . S
C84 C85 1.387 . S
C84 C89 1.390 . S
C85 C84 1.387 . S
C85 C86 1.401 . S
C85 H106 0.930 . S
C86 C85 1.401 . S
C86 C87 1.376 . S
C86 C95 1.511 . S
C87 C86 1.376 . S
C87 C88 1.392 . S
C87 H108 0.931 . S
C88 C87 1.392 . S
C88 C89 1.361 . S
C88 C90 1.500 . S
C89 C84 1.390 . S
C89 C88 1.361 . S
C89 H107 0.931 . S
C90 C88 1.500 . S
C90 C91 1.371 . S
C90 C92 1.365 . S
C91 C90 1.371 . S
C91 C101 1.386 . S
C91 H109 0.931 . S
C92 C90 1.365 . S
C92 C93 1.409 . S
C92 H110 0.929 . S
C93 C92 1.409 . S
C93 C94 1.380 . S
C93 H111 0.930 . S
C94 C93 1.380 . S
C94 C101 1.357 . S
C95 C86 1.511 . S
C95 C96 1.341 . S
C95 C97 1.371 . S
C96 C95 1.341 . S
C96 C100 1.394 . S
C96 H112 0.930 . S
C97 C95 1.371 . S
C97 C98 1.392 . S
C97 H113 0.931 . S
C98 C97 1.392 . S
C98 C99 1.331 . S
C98 H116 0.932 . S
C99 C98 1.331 . S
C99 C100 1.336 . S
C100 C96 1.394 . S
C100 C99 1.336 . S
C100 H115 0.929 . S
C101 C91 1.386 . S
C101 C94 1.357 . S
C101 H114 0.928 . S
H102 C78 0.931 . S
H103 C80 0.930 . S
H104 C82 0.929 . S
H105 C83 0.931 . S
H106 C85 0.930 . S
H107 C89 0.931 . S
H108 C87 0.931 . S
H109 C91 0.931 . S
H110 C92 0.929 . S
H111 C93 0.930 . S
H112 C96 0.930 . S
H113 C97 0.931 . S
H114 C101 0.928 . S
H115 C100 0.929 . S
H116 C98 0.932 . S
C117 C118 1.386 . S
C117 C119 1.397 . S
C117 H141 0.931 . S
C118 C117 1.386 . S
C118 C122 1.397 . S
C119 C117 1.397 . S
C119 C120 1.384 . S
C119 H142 0.930 . S
C120 C119 1.384 . S
C120 C121 1.377 . S
C120 C123 1.481 . S
C121 C120 1.377 . S
C121 C122 1.389 . S
C121 H143 0.929 . S
C122 C118 1.397 . S
C122 C121 1.389 . S
C122 H144 0.931 . S
C123 C120 1.481 . S
C123 C124 1.387 . S
C123 C128 1.390 . S
C124 C123 1.387 . S
C124 C125 1.401 . S
C124 H145 0.930 . S
C125 C124 1.401 . S
C125 C126 1.376 . S
C125 C134 1.511 . S
C126 C125 1.376 . S
C126 C127 1.392 . S
C126 H147 0.931 . S
C127 C126 1.392 . S
C127 C128 1.361 . S
C127 C129 1.500 . S
C128 C123 1.390 . S
C128 C127 1.361 . S
C128 H146 0.931 . S
C129 C127 1.500 . S
C129 C130 1.371 . S
C129 C131 1.365 . S
C130 C129 1.371 . S
C130 C140 1.386 . S
C130 H148 0.931 . S
C131 C129 1.365 . S
C131 C132 1.409 . S
C131 H149 0.929 . S
C132 C131 1.409 . S
C132 C133 1.380 . S
C132 H150 0.930 . S
C133 C132 1.380 . S
C133 C140 1.357 . S
C134 C125 1.511 . S
C134 C135 1.341 . S
C134 C136 1.371 . S
C135 C134 1.341 . S
C135 C139 1.394 . S
C135 H151 0.930 . S
C136 C134 1.371 . S
C136 C137 1.392 . S
C136 H152 0.931 . S
C137 C136 1.392 . S
C137 C138 1.331 . S
C137 H155 0.932 . S
C138 C137 1.331 . S
C138 C139 1.336 . S
C139 C135 1.394 . S
C139 C138 1.336 . S
C139 H154 0.929 . S
C140 C130 1.386 . S
C140 C133 1.357 . S
C140 H153 0.928 . S
H141 C117 0.931 . S
H142 C119 0.930 . S
H143 C121 0.929 . S
H144 C122 0.931 . S
H145 C124 0.930 . S
H146 C128 0.931 . S
H147 C126 0.931 . S
H148 C130 0.931 . S
H149 C131 0.929 . S
H150 C132 0.930 . S
H151 C135 0.930 . S
H152 C136 0.931 . S
H153 C140 0.928 . S
H154 C139 0.929 . S
H155 C137 0.932 . S
C156 C157 1.386 . S
C156 C158 1.397 . S
C156 H180 0.931 . S
C157 C156 1.386 . S
C157 C161 1.397 . S
C158 C156 1.397 . S
C158 C159 1.384 . S
C158 H181 0.930 . S
C159 C158 1.384 . S
C159 C160 1.377 . S
C159 C162 1.481 . S
C160 C159 1.377 . S
C160 C161 1.389 . S
C160 H182 0.929 . S
C161 C157 1.397 . S
C161 C160 1.389 . S
C161 H183 0.931 . S
C162 C159 1.481 . S
C162 C163 1.387 . S
C162 C167 1.390 . S
C163 C162 1.387 . S
C163 C164 1.401 . S
C163 H184 0.930 . S
C164 C163 1.401 . S
C164 C165 1.376 . S
C164 C173 1.511 . S
C165 C164 1.376 . S
C165 C166 1.392 . S
C165 H186 0.931 . S
C166 C165 1.392 . S
C166 C167 1.361 . S
C166 C168 1.500 . S
C167 C162 1.390 . S
C167 C166 1.361 . S
C167 H185 0.931 . S
C168 C166 1.500 . S
C168 C169 1.371 . S
C168 C170 1.365 . S
C169 C168 1.371 . S
C169 C179 1.386 . S
C169 H187 0.931 . S
C170 C168 1.365 . S
C170 C171 1.409 . S
C170 H188 0.929 . S
C171 C170 1.409 . S
C171 C172 1.380 . S
C171 H189 0.930 . S
C172 C171 1.380 . S
C172 C179 1.357 . S
C173 C164 1.511 . S
C173 C174 1.341 . S
C173 C175 1.371 . S
C174 C173 1.341 . S
C174 C178 1.394 . S
C174 H190 0.930 . S
C175 C173 1.371 . S
C175 C176 1.392 . S
C175 H191 0.931 . S
C176 C175 1.392 . S
C176 C177 1.331 . S
C176 H194 0.932 . S
C177 C176 1.331 . S
C177 C178 1.336 . S
C178 C174 1.394 . S
C178 C177 1.336 . S
C178 H193 0.929 . S
C179 C169 1.386 . S
C179 C172 1.357 . S
C179 H192 0.928 . S
H180 C156 0.931 . S
H181 C158 0.930 . S
H182 C160 0.929 . S
H183 C161 0.931 . S
H184 C163 0.930 . S
H185 C167 0.931 . S
H186 C165 0.931 . S
H187 C169 0.931 . S
H188 C170 0.929 . S
H189 C171 0.930 . S
H190 C174 0.930 . S
H191 C175 0.931 . S
H192 C179 0.928 . S
H193 C178 0.929 . S
H194 C176 0.932 . S
C195 C196 1.386 . S
C195 C197 1.397 . S
C195 H219 0.918 1_554 S
C196 C195 1.386 . S
C196 C200 1.397 . S
C197 C195 1.397 . S
C197 C198 1.384 . S
C197 H220 0.930 . S
C198 C197 1.384 . S
C198 C199 1.377 . S
C198 C201 1.481 . S
C199 C198 1.377 . S
C199 C200 1.389 . S
C199 H221 0.929 . S
C200 C196 1.397 . S
C200 C199 1.389 . S
C200 H222 0.931 . S
C201 C198 1.481 . S
C201 C202 1.387 . S
C201 C206 1.390 . S
C202 C201 1.387 . S
C202 C203 1.401 . S
C202 H223 0.930 . S
C203 C202 1.401 . S
C203 C204 1.376 . S
C203 C212 1.511 . S
C204 C203 1.376 . S
C204 C205 1.392 . S
C204 H225 0.931 . S
C205 C204 1.392 . S
C205 C206 1.361 . S
C205 C207 1.500 . S
C206 C201 1.390 . S
C206 C205 1.361 . S
C206 H224 0.931 . S
C207 C205 1.500 . S
C207 C208 1.371 . S
C207 C209 1.365 . S
C208 C207 1.371 . S
C208 C218 1.386 . S
C208 H226 0.931 . S
C209 C207 1.365 . S
C209 C210 1.409 . S
C209 H227 0.929 . S
C210 C209 1.409 . S
C210 C211 1.380 . S
C210 H228 0.930 . S
C211 C210 1.380 . S
C211 C218 1.357 . S
C212 C203 1.511 . S
C212 C213 1.341 . S
C212 C214 1.371 . S
C213 C212 1.341 . S
C213 C217 1.394 . S
C213 H229 0.930 . S
C214 C212 1.371 . S
C214 C215 1.392 . S
C214 H230 0.931 . S
C215 C214 1.392 . S
C215 C216 1.331 . S
C215 H233 0.932 . S
C216 C215 1.331 . S
C216 C217 1.336 . S
C217 C213 1.394 . S
C217 C216 1.336 . S
C217 H232 0.929 . S
C218 C208 1.386 . S
C218 C211 1.357 . S
C218 H231 0.928 . S
H219 C195 0.918 1_556 S
H220 C197 0.930 . S
H221 C199 0.929 . S
H222 C200 0.931 . S
H223 C202 0.930 . S
H224 C206 0.931 . S
H225 C204 0.931 . S
H226 C208 0.931 . S
H227 C209 0.929 . S
H228 C210 0.930 . S
H229 C213 0.930 . S
H230 C214 0.931 . S
H231 C218 0.928 . S
H232 C217 0.929 . S
H233 C215 0.932 . S
C234 C235 1.386 . S
C234 C236 1.397 . S
C234 H258 0.931 . S
C235 C234 1.386 . S
C235 C239 1.397 . S
C236 C234 1.397 . S
C236 C237 1.384 . S
C236 H259 0.930 . S
C237 C236 1.384 . S
C237 C238 1.377 . S
C237 C240 1.481 . S
C238 C237 1.377 . S
C238 C239 1.389 . S
C238 H260 0.929 . S
C239 C235 1.397 . S
C239 C238 1.389 . S
C239 H261 0.964 . S
C240 C237 1.481 . S
C240 C241 1.387 . S
C240 C245 1.390 . S
C241 C240 1.387 . S
C241 C242 1.401 . S
C241 H262 0.930 . S
C242 C241 1.401 . S
C242 C243 1.376 . S
C242 C251 1.511 . S
C243 C242 1.376 . S
C243 C244 1.392 . S
C243 H264 0.931 . S
C244 C243 1.392 . S
C244 C245 1.361 . S
C244 C246 1.500 . S
C245 C240 1.390 . S
C245 C244 1.361 . S
C245 H263 0.931 . S
C246 C244 1.500 . S
C246 C247 1.371 . S
C246 C248 1.365 . S
C247 C246 1.371 . S
C247 C257 1.386 . S
C247 H265 0.931 . S
C248 C246 1.365 . S
C248 C249 1.409 . S
C248 H266 0.929 . S
C249 C248 1.409 . S
C249 C250 1.380 . S
C249 H267 0.930 . S
C250 C249 1.380 . S
C250 C257 1.357 . S
C251 C242 1.511 . S
C251 C252 1.341 . S
C251 C253 1.371 . S
C252 C251 1.341 . S
C252 C256 1.394 . S
C252 H268 0.930 . S
C253 C251 1.371 . S
C253 C254 1.392 . S
C253 H269 0.931 . S
C254 C253 1.392 . S
C254 C255 1.331 . S
C254 H272 0.932 . S
C255 C254 1.331 . S
C255 C256 1.336 . S
C256 C252 1.394 . S
C256 C255 1.336 . S
C256 H271 0.929 . S
C257 C247 1.386 . S
C257 C250 1.357 . S
C257 H270 0.928 . S
H258 C234 0.931 . S
H259 C236 0.930 . S
H260 C238 0.929 . S
H261 C239 0.964 . S
H262 C241 0.930 . S
H263 C245 0.931 . S
H264 C243 0.931 . S
H265 C247 0.931 . S
H266 C248 0.929 . S
H267 C249 0.930 . S
H268 C252 0.930 . S
H269 C253 0.931 . S
H270 C257 0.928 . S
H271 C256 0.929 . S
H272 C254 0.932 . S
C273 C274 1.386 . S
C273 C275 1.397 . S
C273 H297 0.931 . S
C274 C273 1.386 . S
C274 C278 1.397 . S
C275 C273 1.397 . S
C275 C276 1.384 . S
C275 H298 0.930 . S
C276 C275 1.384 . S
C276 C277 1.377 . S
C276 C279 1.481 . S
C277 C276 1.377 . S
C277 C278 1.389 . S
C277 H299 0.929 . S
C278 C274 1.397 . S
C278 C277 1.389 . S
C278 H300 0.931 . S
C279 C276 1.481 . S
C279 C280 1.387 . S
C279 C284 1.390 . S
C280 C279 1.387 . S
C280 C281 1.401 . S
C280 H301 0.930 . S
C281 C280 1.401 . S
C281 C282 1.376 . S
C281 C290 1.511 . S
C282 C281 1.376 . S
C282 C283 1.392 . S
C282 H303 0.931 . S
C283 C282 1.392 . S
C283 C284 1.361 . S
C283 C285 1.500 . S
C284 C279 1.390 . S
C284 C283 1.361 . S
C284 H302 0.931 . S
C285 C283 1.500 . S
C285 C286 1.371 . S
C285 C287 1.365 . S
C286 C285 1.371 . S
C286 C296 1.386 . S
C286 H304 0.931 . S
C287 C285 1.365 . S
C287 C288 1.409 . S
C287 H305 0.929 . S
C288 C287 1.409 . S
C288 C289 1.380 . S
C288 H306 0.930 . S
C289 C288 1.380 . S
C289 C296 1.357 . S
C290 C281 1.511 . S
C290 C291 1.341 . S
C290 C292 1.371 . S
C291 C290 1.341 . S
C291 C295 1.394 . S
C291 H307 0.930 . S
C292 C290 1.371 . S
C292 C293 1.392 . S
C292 H308 0.931 . S
C293 C292 1.392 . S
C293 C294 1.331 . S
C293 H311 0.932 . S
C294 C293 1.331 . S
C294 C295 1.336 . S
C295 C291 1.394 . S
C295 C294 1.336 . S
C295 H310 0.929 . S
C296 C286 1.386 . S
C296 C289 1.357 . S
C296 H309 0.928 . S
H297 C273 0.931 . S
H298 C275 0.930 . S
H299 C277 0.929 . S
H300 C278 0.931 . S
H301 C280 0.930 . S
H302 C284 0.931 . S
H303 C282 0.931 . S
H304 C286 0.931 . S
H305 C287 0.929 . S
H306 C288 0.930 . S
H307 C291 0.930 . S
H308 C292 0.931 . S
H309 C296 0.928 . S
H310 C295 0.929 . S
H311 C293 0.932 . S
C312 C314 1.422 . S
C312 C316 1.415 . S
C312 N318 1.369 . S
C313 C314 1.421 . S
C313 C315 1.417 . S
C313 C325 1.422 . S
C314 C312 1.422 . S
C314 C313 1.421 . S
C314 N324 1.359 . S
C315 C313 1.417 . S
C315 C317 1.329 . S
C315 H334 0.930 . S
C316 C312 1.415 . S
C316 C317 1.437 . S
C316 C320 1.413 . S
C317 C315 1.329 . S
C317 C316 1.437 . S
C317 H339 0.929 . S
N318 C312 1.369 . S
N318 C319 1.338 . S
N318 Gd323 2.622 . S
C319 N318 1.338 . S
C319 C321 1.378 . S
C319 H331 0.929 . S
C320 C316 1.413 . S
C320 C321 1.348 . S
C320 H336 0.931 . S
C321 C319 1.378 . S
C321 C320 1.348 . S
C321 H337 0.930 . S
Gd322 N342 2.622 . S
Gd322 N349 2.570 . S
Gd322 O356 2.353 . S
Gd322 O357 2.468 . S
Gd322 O358 2.427 . S
Gd322 O360 2.388 . S
Gd322 O361 2.386 . S
Gd322 O365 2.310 . S
Gd322 C375 2.805 . S
Gd323 N318 2.622 . S
Gd323 N324 2.570 . S
Gd323 O355 2.386 . S
Gd323 O359 2.307 1_655 S
Gd323 O362 2.353 1_655 S
Gd323 O363 2.468 . S
Gd323 O364 2.427 . S
Gd323 O366 2.388 . S
Gd323 C387 2.805 . S
N324 C314 1.359 . S
N324 Gd323 2.570 . S
N324 C326 1.343 . S
C325 C313 1.422 . S
C325 C327 1.321 . S
C325 H333 0.931 . S
C326 N324 1.343 . S
C326 C327 1.390 . S
C326 H328 0.931 . S
C327 C325 1.321 . S
C327 C326 1.390 . S
C327 H329 0.930 . S
H328 C326 0.931 . S
H329 C327 0.930 . S
H330 C353 0.931 . S
H331 C319 0.929 . S
H332 C354 0.930 . S
H333 C325 0.931 . S
H334 C315 0.930 . S
H335 C344 0.929 . S
H336 C320 0.931 . S
H337 C321 0.930 . S
H338 C376 0.930 . S
H339 C317 0.929 . S
H340 C345 0.931 . S
H341 C346 0.930 . S
N342 Gd322 2.622 . S
N342 C343 1.369 . S
N342 C344 1.338 . S
C343 N342 1.369 . S
C343 C347 1.415 . S
C343 C350 1.422 . S
C344 H335 0.929 . S
C344 N342 1.338 . S
C344 C346 1.378 . S
C345 H340 0.931 . S
C345 C346 1.348 . S
C345 C347 1.413 . S
C346 H341 0.930 . S
C346 C344 1.378 . S
C346 C345 1.348 . S
C347 C343 1.415 . S
C347 C345 1.413 . S
C347 C377 1.437 . S
H348 C377 0.929 . S
N349 Gd322 2.570 . S
N349 C350 1.359 . S
N349 C353 1.343 . S
C350 C343 1.422 . S
C350 N349 1.359 . S
C350 C352 1.421 . S
C351 C352 1.422 . S
C351 C354 1.321 . S
C351 H378 0.931 . S
C352 C350 1.421 . S
C352 C351 1.422 . S
C352 C376 1.417 . S
C353 H330 0.931 . S
C353 N349 1.343 . S
C353 C354 1.390 . S
C354 H332 0.930 . S
C354 C351 1.321 . S
C354 C353 1.390 . S
O355 Gd323 2.386 . S
O355 C367 1.265 . S
O356 Gd322 2.353 . S
O356 C367 1.242 1_455 S
O357 Gd322 2.468 . S
O357 C375 1.263 . S
O358 Gd322 2.427 . S
O358 C375 1.252 . S
O359 Gd323 2.307 1_455 S
O359 C368 1.261 . S
O360 Gd322 2.388 . S
O360 C368 1.252 . S
O361 Gd322 2.386 . S
O361 C379 1.265 . S
O362 Gd323 2.353 1_455 S
O362 C379 1.242 . S
O363 Gd323 2.468 . S
O363 C387 1.263 . S
O364 Gd323 2.427 . S
O364 C387 1.252 . S
O365 Gd322 2.310 . S
O365 C380 1.257 1_455 S
O366 Gd323 2.388 . S
O366 C380 1.252 . S
C367 O355 1.265 . S
C367 O356 1.242 1_655 S
C368 O359 1.261 . S
C368 O360 1.252 . S
C369 C372 1.394 . S
C369 C374 1.370 . S
C369 C375 1.500 . S
C370 C373 1.383 . S
C370 C374 1.395 . S
C371 C372 1.396 . S
C371 C373 1.365 . S
C371 H388 0.929 . S
C372 C369 1.394 . S
C372 C371 1.396 . S
C372 H389 0.930 . S
C373 C370 1.383 . S
C373 C371 1.365 . S
C373 H390 0.931 . S
C374 C369 1.370 . S
C374 C370 1.395 . S
C374 H391 0.930 . S
C375 Gd322 2.805 . S
C375 O357 1.263 . S
C375 O358 1.252 . S
C375 C369 1.500 . S
C376 H338 0.930 . S
C376 C352 1.417 . S
C376 C377 1.329 . S
C377 C347 1.437 . S
C377 H348 0.929 . S
C377 C376 1.329 . S
H378 C351 0.931 . S
C379 O361 1.265 . S
C379 O362 1.242 . S
C380 O365 1.257 1_655 S
C380 O366 1.252 . S
C381 C384 1.394 . S
C381 C386 1.370 . S
C381 C387 1.500 . S
C382 C385 1.383 . S
C382 C386 1.395 . S
C383 C384 1.396 . S
C383 C385 1.365 . S
C383 H392 0.929 . S
C384 C381 1.394 . S
C384 C383 1.396 . S
C384 H393 0.930 . S
C385 C382 1.383 . S
C385 C383 1.365 . S
C385 H394 0.931 . S
C386 C381 1.370 . S
C386 C382 1.395 . S
C386 H395 0.930 . S
C387 Gd323 2.805 . S
C387 O363 1.263 . S
C387 O364 1.252 . S
C387 C381 1.500 . S
H388 C371 0.929 . S
H389 C372 0.930 . S
H390 C373 0.931 . S
H391 C374 0.930 . S
H392 C383 0.929 . S
H393 C384 0.930 . S
H394 C385 0.931 . S
H395 C386 0.930 . S
C396 C398 1.422 . S
C396 C400 1.415 . S
C396 N402 1.369 . S
C397 C398 1.421 . S
C397 C399 1.417 . S
C397 C409 1.422 . S
C398 C396 1.422 . S
C398 C397 1.421 . S
C398 N408 1.359 . S
C399 C397 1.417 . S
C399 C401 1.329 . S
C399 H418 0.930 . S
C400 C396 1.415 . S
C400 C401 1.437 . S
C400 C404 1.413 . S
C401 C399 1.329 . S
C401 C400 1.437 . S
C401 H423 0.929 . S
N402 C396 1.369 . S
N402 C403 1.338 . S
N402 Gd407 2.622 . S
C403 N402 1.338 . S
C403 C405 1.378 . S
C403 H415 0.929 . S
C404 C400 1.413 . S
C404 C405 1.348 . S
C404 H420 0.931 . S
C405 C403 1.378 . S
C405 C404 1.348 . S
C405 H421 0.930 . S
Gd406 N426 2.622 . S
Gd406 N433 2.570 . S
Gd406 O440 2.353 . S
Gd406 O441 2.468 . S
Gd406 O442 2.427 . S
Gd406 O444 2.388 . S
Gd406 O445 2.386 . S
Gd406 O449 2.307 . S
Gd406 C459 2.805 . S
Gd407 N402 2.622 . S
Gd407 N408 2.570 . S
Gd407 O439 2.386 . S
Gd407 O443 2.307 . S
Gd407 O446 2.353 . S
Gd407 O447 2.468 . S
Gd407 O448 2.427 . S
Gd407 O450 2.388 . S
Gd407 C471 2.805 . S
N408 C398 1.359 . S
N408 Gd407 2.570 . S
N408 C410 1.343 . S
C409 C397 1.422 . S
C409 C411 1.321 . S
C409 H417 0.931 . S
C410 N408 1.343 . S
C410 C411 1.390 . S
C410 H412 0.931 . S
C411 C409 1.321 . S
C411 C410 1.390 . S
C411 H413 0.930 . S
H412 C410 0.931 . S
H413 C411 0.930 . S
H414 C437 0.931 . S
H415 C403 0.929 . S
H416 C438 0.930 . S
H417 C409 0.931 . S
H418 C399 0.930 . S
H419 C428 0.929 . S
H420 C404 0.931 . S
H421 C405 0.930 . S
H422 C460 0.930 . S
H423 C401 0.929 . S
H424 C429 0.931 . S
H425 C430 0.930 . S
N426 Gd406 2.622 . S
N426 C427 1.369 . S
N426 C428 1.338 . S
C427 N426 1.369 . S
C427 C431 1.415 . S
C427 C434 1.422 . S
C428 H419 0.929 . S
C428 N426 1.338 . S
C428 C430 1.378 . S
C429 H424 0.931 . S
C429 C430 1.348 . S
C429 C431 1.413 . S
C430 H425 0.930 . S
C430 C428 1.378 . S
C430 C429 1.348 . S
C431 C427 1.415 . S
C431 C429 1.413 . S
C431 C461 1.437 . S
H432 C461 0.929 . S
N433 Gd406 2.570 . S
N433 C434 1.359 . S
N433 C437 1.343 . S
C434 C427 1.422 . S
C434 N433 1.359 . S
C434 C436 1.421 . S
C435 C436 1.422 . S
C435 C438 1.321 . S
C435 H462 0.931 . S
C436 C434 1.421 . S
C436 C435 1.422 . S
C436 C460 1.417 . S
C437 H414 0.931 . S
C437 N433 1.343 . S
C437 C438 1.390 . S
C438 H416 0.930 . S
C438 C435 1.321 . S
C438 C437 1.390 . S
O439 Gd407 2.386 . S
O439 C451 1.265 . S
O440 Gd406 2.353 . S
O440 C451 1.242 . S
O441 Gd406 2.468 . S
O441 C459 1.263 . S
O442 Gd406 2.427 . S
O442 C459 1.252 . S
O443 Gd407 2.307 . S
O443 C452 1.261 . S
O444 Gd406 2.388 . S
O444 C452 1.252 . S
O445 Gd406 2.386 . S
O445 C463 1.265 . S
O446 Gd407 2.353 . S
O446 C463 1.242 . S
O447 Gd407 2.468 . S
O447 C471 1.263 . S
O448 Gd407 2.427 . S
O448 C471 1.252 . S
O449 Gd406 2.307 . S
O449 C464 1.261 . S
O450 Gd407 2.388 . S
O450 C464 1.252 . S
C451 O439 1.265 . S
C451 O440 1.242 . S
C452 O443 1.261 . S
C452 O444 1.252 . S
C453 C456 1.394 . S
C453 C458 1.370 . S
C453 C459 1.500 . S
C454 C457 1.383 . S
C454 C458 1.395 . S
C455 C456 1.396 . S
C455 C457 1.365 . S
C455 H472 0.929 . S
C456 C453 1.394 . S
C456 C455 1.396 . S
C456 H473 0.930 . S
C457 C454 1.383 . S
C457 C455 1.365 . S
C457 H474 0.931 . S
C458 C453 1.370 . S
C458 C454 1.395 . S
C458 H475 0.930 . S
C459 Gd406 2.805 . S
C459 O441 1.263 . S
C459 O442 1.252 . S
C459 C453 1.500 . S
C460 H422 0.930 . S
C460 C436 1.417 . S
C460 C461 1.329 . S
C461 C431 1.437 . S
C461 H432 0.929 . S
C461 C460 1.329 . S
H462 C435 0.931 . S
C463 O445 1.265 . S
C463 O446 1.242 . S
C464 O449 1.261 . S
C464 O450 1.252 . S
C465 C468 1.394 . S
C465 C470 1.370 . S
C465 C471 1.500 . S
C466 C469 1.383 . S
C466 C470 1.395 . S
C467 C468 1.396 . S
C467 C469 1.365 . S
C467 H476 0.929 . S
C468 C465 1.394 . S
C468 C467 1.396 . S
C468 H477 0.930 . S
C469 C466 1.383 . S
C469 C467 1.365 . S
C469 H478 0.931 . S
C470 C465 1.370 . S
C470 C466 1.395 . S
C470 H479 0.930 . S
C471 Gd407 2.805 . S
C471 O447 1.263 . S
C471 O448 1.252 . S
C471 C465 1.500 . S
H472 C455 0.929 . S
H473 C456 0.930 . S
H474 C457 0.931 . S
H475 C458 0.930 . S
H476 C467 0.929 . S
H477 C468 0.930 . S
H478 C469 0.931 . S
H479 C470 0.930 . S
C480 C482 1.422 . S
C480 C484 1.415 . S
C480 N486 1.369 . S
C481 C482 1.421 . S
C481 C483 1.417 . S
C481 C493 1.422 . S
C482 C480 1.422 . S
C482 C481 1.421 . S
C482 N492 1.359 . S
C483 C481 1.417 . S
C483 C485 1.329 . S
C483 H502 0.930 . S
C484 C480 1.415 . S
C484 C485 1.437 . S
C484 C488 1.413 . S
C485 C483 1.329 . S
C485 C484 1.437 . S
C485 H507 0.929 . S
N486 C480 1.369 . S
N486 C487 1.338 . S
N486 Gd491 2.622 . S
C487 N486 1.338 . S
C487 C489 1.378 . S
C487 H499 0.929 . S
C488 C484 1.413 . S
C488 C489 1.348 . S
C488 H504 0.931 . S
C489 C487 1.378 . S
C489 C488 1.348 . S
C489 H505 0.930 . S
Gd490 N510 2.622 . S
Gd490 N517 2.570 . S
Gd490 O524 2.353 . S
Gd490 O525 2.468 . S
Gd490 O526 2.427 . S
Gd490 O528 2.388 . S
Gd490 O529 2.386 . S
Gd490 O533 2.307 . S
Gd490 C543 2.805 . S
Gd491 N486 2.622 . S
Gd491 N492 2.570 . S
Gd491 O523 2.386 . S
Gd491 O527 2.307 1_655 S
Gd491 O530 2.353 1_655 S
Gd491 O531 2.468 . S
Gd491 O532 2.427 . S
Gd491 O534 2.388 . S
Gd491 C555 2.805 . S
N492 C482 1.359 . S
N492 Gd491 2.570 . S
N492 C494 1.343 . S
C493 C481 1.422 . S
C493 C495 1.321 . S
C493 H501 0.931 . S
C494 N492 1.343 . S
C494 C495 1.390 . S
C494 H496 0.931 . S
C495 C493 1.321 . S
C495 C494 1.390 . S
C495 H497 0.930 . S
H496 C494 0.931 . S
H497 C495 0.930 . S
H498 C521 0.931 . S
H499 C487 0.929 . S
H500 C522 0.930 . S
H501 C493 0.931 . S
H502 C483 0.930 . S
H503 C512 0.929 . S
H504 C488 0.931 . S
H505 C489 0.930 . S
H506 C544 0.930 . S
H507 C485 0.929 . S
H508 C513 0.931 . S
H509 C514 0.930 . S
N510 Gd490 2.622 . S
N510 C511 1.369 . S
N510 C512 1.338 . S
C511 N510 1.369 . S
C511 C515 1.415 . S
C511 C518 1.422 . S
C512 H503 0.929 . S
C512 N510 1.338 . S
C512 C514 1.378 . S
C513 H508 0.931 . S
C513 C514 1.348 . S
C513 C515 1.413 . S
C514 H509 0.930 . S
C514 C512 1.378 . S
C514 C513 1.348 . S
C515 C511 1.415 . S
C515 C513 1.413 . S
C515 C545 1.437 . S
H516 C545 0.929 . S
N517 Gd490 2.570 . S
N517 C518 1.359 . S
N517 C521 1.343 . S
C518 C511 1.422 . S
C518 N517 1.359 . S
C518 C520 1.421 . S
C519 C520 1.422 . S
C519 C522 1.321 . S
C519 H546 0.931 . S
C520 C518 1.421 . S
C520 C519 1.422 . S
C520 C544 1.417 . S
C521 H498 0.931 . S
C521 N517 1.343 . S
C521 C522 1.390 . S
C522 H500 0.930 . S
C522 C519 1.321 . S
C522 C521 1.390 . S
O523 Gd491 2.386 . S
O523 C535 1.265 . S
O524 Gd490 2.353 . S
O524 C535 1.242 1_455 S
O525 Gd490 2.468 . S
O525 C543 1.263 . S
O526 Gd490 2.427 . S
O526 C543 1.252 . S
O527 Gd491 2.307 1_455 S
O527 C536 1.261 . S
O528 Gd490 2.388 . S
O528 C536 1.252 . S
O529 Gd490 2.386 . S
O529 C547 1.265 . S
O530 Gd491 2.353 1_455 S
O530 C547 1.242 . S
O531 Gd491 2.468 . S
O531 C555 1.263 . S
O532 Gd491 2.427 . S
O532 C555 1.252 . S
O533 Gd490 2.307 . S
O533 C548 1.261 1_455 S
O534 Gd491 2.388 . S
O534 C548 1.252 . S
C535 O523 1.265 . S
C535 O524 1.242 1_655 S
C536 O527 1.261 . S
C536 O528 1.252 . S
C537 C540 1.394 . S
C537 C542 1.370 . S
C537 C543 1.500 . S
C538 C541 1.383 . S
C538 C542 1.395 . S
C539 C540 1.396 . S
C539 C541 1.365 . S
C539 H556 0.929 . S
C540 C537 1.394 . S
C540 C539 1.396 . S
C540 H557 0.930 . S
C541 C538 1.383 . S
C541 C539 1.365 . S
C541 H558 0.931 . S
C542 C537 1.370 . S
C542 C538 1.395 . S
C542 H559 0.930 . S
C543 Gd490 2.805 . S
C543 O525 1.263 . S
C543 O526 1.252 . S
C543 C537 1.500 . S
C544 H506 0.930 . S
C544 C520 1.417 . S
C544 C545 1.329 . S
C545 C515 1.437 . S
C545 H516 0.929 . S
C545 C544 1.329 . S
H546 C519 0.931 . S
C547 O529 1.265 . S
C547 O530 1.242 . S
C548 O533 1.261 1_655 S
C548 O534 1.252 . S
C549 C552 1.394 . S
C549 C554 1.370 . S
C549 C555 1.500 . S
C550 C553 1.383 . S
C550 C554 1.395 . S
C551 C552 1.396 . S
C551 C553 1.365 . S
C551 H560 0.929 . S
C552 C549 1.394 . S
C552 C551 1.396 . S
C552 H561 0.930 . S
C553 C550 1.383 . S
C553 C551 1.365 . S
C553 H562 0.931 . S
C554 C549 1.370 . S
C554 C550 1.395 . S
C554 H563 0.930 . S
C555 Gd491 2.805 . S
C555 O531 1.263 . S
C555 O532 1.252 . S
C555 C549 1.500 . S
H556 C539 0.929 . S
H557 C540 0.930 . S
H558 C541 0.931 . S
H559 C542 0.930 . S
H560 C551 0.929 . S
H561 C552 0.930 . S
H562 C553 0.931 . S
H563 C554 0.930 . S
C564 C566 1.422 . S
C564 C568 1.415 . S
C564 N570 1.369 . S
C565 C566 1.421 . S
C565 C567 1.417 . S
C565 C577 1.422 . S
C566 C564 1.422 . S
C566 C565 1.421 . S
C566 N576 1.359 . S
C567 C565 1.417 . S
C567 C569 1.329 . S
C567 H586 0.930 . S
C568 C564 1.415 . S
C568 C569 1.437 . S
C568 C572 1.413 . S
C569 C567 1.329 . S
C569 C568 1.437 . S
C569 H591 0.929 . S
N570 C564 1.369 . S
N570 C571 1.338 . S
N570 Gd575 2.622 . S
C571 N570 1.338 . S
C571 C573 1.378 . S
C571 H583 0.929 . S
C572 C568 1.413 . S
C572 C573 1.348 . S
C572 H588 0.931 . S
C573 C571 1.378 . S
C573 C572 1.348 . S
C573 H589 0.930 . S
Gd574 N594 2.622 . S
Gd574 N601 2.570 . S
Gd574 O608 2.353 . S
Gd574 O609 2.468 . S
Gd574 O610 2.427 . S
Gd574 O612 2.388 . S
Gd574 O613 2.386 . S
Gd574 O617 2.307 . S
Gd574 C627 2.805 . S
Gd575 N570 2.622 . S
Gd575 N576 2.570 . S
Gd575 O607 2.386 . S
Gd575 O611 2.307 . S
Gd575 O614 2.353 . S
Gd575 O615 2.468 . S
Gd575 O616 2.427 . S
Gd575 O618 2.388 . S
Gd575 C639 2.805 . S
N576 C566 1.359 . S
N576 Gd575 2.570 . S
N576 C578 1.343 . S
C577 C565 1.422 . S
C577 C579 1.321 . S
C577 H585 0.931 . S
C578 N576 1.343 . S
C578 C579 1.390 . S
C578 H580 0.931 . S
C579 C577 1.321 . S
C579 C578 1.390 . S
C579 H581 0.930 . S
H580 C578 0.931 . S
H581 C579 0.930 . S
H582 C605 0.931 . S
H583 C571 0.929 . S
H584 C606 0.930 . S
H585 C577 0.931 . S
H586 C567 0.930 . S
H587 C596 0.929 . S
H588 C572 0.931 . S
H589 C573 0.930 . S
H590 C628 0.930 . S
H591 C569 0.929 . S
H592 C597 0.931 . S
H593 C598 0.930 . S
N594 Gd574 2.622 . S
N594 C595 1.369 . S
N594 C596 1.338 . S
C595 N594 1.369 . S
C595 C599 1.415 . S
C595 C602 1.422 . S
C596 H587 0.929 . S
C596 N594 1.338 . S
C596 C598 1.378 . S
C597 H592 0.931 . S
C597 C598 1.348 . S
C597 C599 1.413 . S
C598 H593 0.930 . S
C598 C596 1.378 . S
C598 C597 1.348 . S
C599 C595 1.415 . S
C599 C597 1.413 . S
C599 C629 1.437 . S
H600 C629 0.929 . S
N601 Gd574 2.570 . S
N601 C602 1.359 . S
N601 C605 1.343 . S
C602 C595 1.422 . S
C602 N601 1.359 . S
C602 C604 1.421 . S
C603 C604 1.422 . S
C603 C606 1.321 . S
C603 H630 0.931 . S
C604 C602 1.421 . S
C604 C603 1.422 . S
C604 C628 1.417 . S
C605 H582 0.931 . S
C605 N601 1.343 . S
C605 C606 1.390 . S
C606 H584 0.930 . S
C606 C603 1.321 . S
C606 C605 1.390 . S
O607 Gd575 2.386 . S
O607 C619 1.265 . S
O608 Gd574 2.353 . S
O608 C619 1.242 . S
O609 Gd574 2.468 . S
O609 C627 1.263 . S
O610 Gd574 2.427 . S
O610 C627 1.252 . S
O611 Gd575 2.307 . S
O611 C620 1.261 . S
O612 Gd574 2.388 . S
O612 C620 1.252 . S
O613 Gd574 2.386 . S
O613 C631 1.265 . S
O614 Gd575 2.353 . S
O614 C631 1.242 . S
O615 Gd575 2.468 . S
O615 C639 1.263 . S
O616 Gd575 2.427 . S
O616 C639 1.252 . S
O617 Gd574 2.307 . S
O617 C632 1.261 . S
O618 Gd575 2.388 . S
O618 C632 1.252 . S
C619 O607 1.265 . S
C619 O608 1.242 . S
C620 O611 1.261 . S
C620 O612 1.252 . S
C621 C624 1.394 . S
C621 C626 1.370 . S
C621 C627 1.500 . S
C622 C625 1.383 . S
C622 C626 1.395 . S
C623 C624 1.396 . S
C623 C625 1.365 . S
C623 H640 0.929 . S
C624 C621 1.394 . S
C624 C623 1.396 . S
C624 H641 0.930 . S
C625 C622 1.383 . S
C625 C623 1.365 . S
C625 H642 0.931 . S
C626 C621 1.370 . S
C626 C622 1.395 . S
C626 H643 0.930 . S
C627 Gd574 2.805 . S
C627 O609 1.263 . S
C627 O610 1.252 . S
C627 C621 1.500 . S
C628 H590 0.930 . S
C628 C604 1.417 . S
C628 C629 1.329 . S
C629 C599 1.437 . S
C629 H600 0.929 . S
C629 C628 1.329 . S
H630 C603 0.931 . S
C631 O613 1.265 . S
C631 O614 1.242 . S
C632 O617 1.261 . S
C632 O618 1.252 . S
C633 C636 1.394 . S
C633 C638 1.370 . S
C633 C639 1.500 . S
C634 C637 1.383 . S
C634 C638 1.395 . S
C635 C636 1.396 . S
C635 C637 1.365 . S
C635 H644 0.929 . S
C636 C633 1.394 . S
C636 C635 1.396 . S
C636 H645 0.930 . S
C637 C634 1.383 . S
C637 C635 1.365 . S
C637 H646 0.931 . S
C638 C633 1.370 . S
C638 C634 1.395 . S
C638 H647 0.930 . S
C639 Gd575 2.805 . S
C639 O615 1.263 . S
C639 O616 1.252 . S
C639 C633 1.500 . S
H640 C623 0.929 . S
H641 C624 0.930 . S
H642 C625 0.931 . S
H643 C626 0.930 . S
H644 C635 0.929 . S
H645 C636 0.930 . S
H646 C637 0.931 . S
H647 C638 0.930 . S
H648 C654 0.945 . S
H649 C657 0.930 . S
H650 C658 0.930 . S
H651 C659 0.930 . S
H652 C662 0.930 1_655 S
H653 C663 0.930 . S
C654 H648 0.945 . S
C654 C655 1.355 . S
C654 C656 1.415 . S
C655 C654 1.355 . S
C655 C657 1.419 . S
C656 C654 1.415 . S
C656 C661 1.425 . S
C656 C663 1.409 . S
C657 H649 0.930 . S
C657 C655 1.419 . S
C657 C658 1.362 . S
C658 H650 0.930 . S
C658 C657 1.362 . S
C658 C661 1.409 . S
C659 H651 0.930 . S
C659 C660 1.355 . S
C659 C661 1.415 . S
C660 C659 1.355 . S
C660 C662 1.419 . S
C661 C656 1.425 . S
C661 C658 1.409 . S
C661 C659 1.415 . S
C662 H652 0.930 1_455 S
C662 C660 1.419 . S
C662 C663 1.362 . S
C663 H653 0.930 . S
C663 C656 1.409 . S
C663 C662 1.362 . S
H664 C670 0.930 . S
H665 C673 0.930 . S
H666 C674 0.930 . S
H667 C675 0.930 . S
H668 C678 0.930 . S
H669 C679 0.930 . S
C670 H664 0.930 . S
C670 C671 1.355 . S
C670 C672 1.415 . S
C671 C670 1.355 . S
C671 C673 1.419 . S
C672 C670 1.415 . S
C672 C677 1.425 . S
C672 C679 1.409 . S
C673 H665 0.930 . S
C673 C671 1.419 . S
C673 C674 1.362 . S
C674 H666 0.930 . S
C674 C673 1.362 . S
C674 C677 1.409 . S
C675 H667 0.930 . S
C675 C676 1.355 . S
C675 C677 1.415 . S
C676 C675 1.355 . S
C676 C678 1.419 . S
C677 C672 1.425 . S
C677 C674 1.409 . S
C677 C675 1.415 . S
C678 H668 0.930 . S
C678 C676 1.419 . S
C678 C679 1.362 . S
C679 H669 0.930 . S
C679 C672 1.409 . S
C679 C678 1.362 . S
H680 C686 0.930 . S
H681 C689 0.930 . S
H682 C690 0.930 . S
H683 C691 0.930 . S
H684 C694 0.930 . S
H685 C695 0.930 . S
C686 H680 0.930 . S
C686 C687 1.355 . S
C686 C688 1.415 . S
C687 C686 1.355 . S
C687 C689 1.419 . S
C688 C686 1.415 . S
C688 C693 1.425 . S
C688 C695 1.409 . S
C689 H681 0.930 . S
C689 C687 1.419 . S
C689 C690 1.362 . S
C690 H682 0.930 . S
C690 C689 1.362 . S
C690 C693 1.409 . S
C691 H683 0.930 . S
C691 C692 1.355 . S
C691 C693 1.415 . S
C692 C691 1.355 . S
C692 C694 1.419 . S
C693 C688 1.425 . S
C693 C690 1.409 . S
C693 C691 1.415 . S
C694 H684 0.930 . S
C694 C692 1.419 . S
C694 C695 1.362 . S
C695 H685 0.930 . S
C695 C688 1.409 . S
C695 C694 1.362 . S
H696 C702 0.930 . S
H697 C705 0.930 . S
H698 C706 0.930 1_565 S
H699 C707 0.930 . S
H700 C710 0.930 . S
H701 C711 0.930 . S
C702 H696 0.930 . S
C702 C703 1.355 . S
C702 C704 1.415 . S
C703 C702 1.355 . S
C703 C705 1.419 1_545 S
C704 C702 1.415 . S
C704 C709 1.425 . S
C704 C711 1.409 . S
C705 H697 0.930 . S
C705 C703 1.419 1_565 S
C705 C706 1.362 1_565 S
C706 H698 0.930 1_545 S
C706 C705 1.362 1_545 S
C706 C709 1.409 . S
C707 H699 0.930 . S
C707 C708 1.355 . S
C707 C709 1.415 . S
C708 C707 1.355 . S
C708 C710 1.419 . S
C709 C704 1.425 . S
C709 C706 1.409 . S
C709 C707 1.415 . S
C710 H700 0.930 . S
C710 C708 1.419 . S
C710 C711 1.362 . S
C711 H701 0.930 . S
C711 C704 1.409 . S
C711 C710 1.362 . S
H712 C718 0.930 1_545 S
H713 C721 0.930 . S
H714 C722 0.930 . S
H715 C723 0.930 . S
H716 C726 0.930 . S
H717 C727 0.930 . S
C718 H712 0.930 1_565 S
C718 C719 1.355 . S
C718 C720 1.415 . S
C719 C718 1.355 . S
C719 C721 1.419 . S
C720 C718 1.415 . S
C720 C725 1.425 . S
C720 C727 1.409 . S
C721 H713 0.930 . S
C721 C719 1.419 . S
C721 C722 1.362 . S
C722 H714 0.930 . S
C722 C721 1.362 . S
C722 C725 1.409 . S
C723 H715 0.930 . S
C723 C724 1.355 . S
C723 C725 1.415 . S
C724 C723 1.355 . S
C724 C726 1.419 . S
C725 C720 1.425 . S
C725 C722 1.409 . S
C725 C723 1.415 . S
C726 H716 0.930 . S
C726 C724 1.419 . S
C726 C727 1.362 . S
C727 H717 0.930 . S
C727 C720 1.409 . S
C727 C726 1.362 . S
H728 C734 0.930 . S
H729 C737 0.930 . S
H730 C738 0.930 . S
H731 C739 0.930 . S
H732 C742 0.930 . S
H733 C743 0.930 . S
C734 H728 0.930 . S
C734 C735 1.355 . S
C734 C736 1.415 . S
C735 C734 1.355 . S
C735 C737 1.419 . S
C736 C734 1.415 . S
C736 C741 1.425 . S
C736 C743 1.409 . S
C737 H729 0.930 . S
C737 C735 1.419 . S
C737 C738 1.362 . S
C738 H730 0.930 . S
C738 C737 1.362 . S
C738 C741 1.409 . S
C739 H731 0.930 . S
C739 C740 1.355 . S
C739 C741 1.415 . S
C740 C739 1.355 . S
C740 C742 1.419 . S
C741 C736 1.425 . S
C741 C738 1.409 . S
C741 C739 1.415 . S
C742 H732 0.930 . S
C742 C740 1.419 . S
C742 C743 1.362 . S
C743 H733 0.930 . S
C743 C736 1.409 . S
C743 C742 1.362 . S
H744 C750 0.930 . S
H745 C753 0.930 . S
H746 C754 0.930 . S
H747 C755 0.930 . S
H748 C758 0.930 . S
H749 C759 0.930 . S
C750 H744 0.930 . S
C750 C751 1.355 . S
C750 C752 1.415 . S
C751 C750 1.355 . S
C751 C753 1.419 . S
C752 C750 1.415 . S
C752 C757 1.425 . S
C752 C759 1.409 . S
C753 H745 0.930 . S
C753 C751 1.419 . S
C753 C754 1.362 . S
C754 H746 0.930 . S
C754 C753 1.362 . S
C754 C757 1.409 . S
C755 H747 0.930 . S
C755 C756 1.355 . S
C755 C757 1.415 . S
C756 C755 1.355 . S
C756 C758 1.419 . S
C757 C752 1.425 . S
C757 C754 1.409 . S
C757 C755 1.415 . S
C758 H748 0.930 . S
C758 C756 1.419 . S
C758 C759 1.362 . S
C759 H749 0.930 . S
C759 C752 1.409 . S
C759 C758 1.362 . S
H760 C766 0.930 . S
H761 C769 0.930 1_545 S
H762 C770 0.930 . S
H763 C771 0.930 . S
H764 C774 0.930 . S
H765 C775 0.930 . S
C766 H760 0.930 . S
C766 C767 1.355 . S
C766 C768 1.415 . S
C767 C766 1.355 . S
C767 C769 1.419 . S
C768 C766 1.415 . S
C768 C773 1.425 . S
C768 C775 1.409 . S
C769 H761 0.930 1_565 S
C769 C767 1.419 . S
C769 C770 1.362 . S
C770 H762 0.930 . S
C770 C769 1.362 . S
C770 C773 1.409 . S
C771 H763 0.930 . S
C771 C772 1.355 . S
C771 C773 1.415 . S
C772 C771 1.355 . S
C772 C774 1.419 . S
C773 C768 1.425 . S
C773 C770 1.409 . S
C773 C771 1.415 . S
C774 H764 0.930 . S
C774 C772 1.419 . S
C774 C775 1.362 . S
C775 H765 0.930 . S
C775 C768 1.409 . S
C775 C774 1.362 . S
H776 C782 0.930 . S
H777 C785 0.930 . S
H778 C786 0.930 . S
H779 C787 0.930 . S
H780 C790 0.930 . S
H781 C791 0.930 . S
C782 H776 0.930 . S
C782 C783 1.355 . S
C782 C784 1.415 . S
C783 C782 1.355 . S
C783 C785 1.419 . S
C784 C782 1.415 . S
C784 C789 1.425 . S
C784 C791 1.409 . S
C785 H777 0.930 . S
C785 C783 1.419 . S
C785 C786 1.362 . S
C786 H778 0.930 . S
C786 C785 1.362 . S
C786 C789 1.409 . S
C787 H779 0.930 . S
C787 C788 1.355 . S
C787 C789 1.415 . S
C788 C787 1.355 . S
C788 C790 1.419 . S
C789 C784 1.425 . S
C789 C786 1.409 . S
C789 C787 1.415 . S
C790 H780 0.930 . S
C790 C788 1.419 . S
C790 C791 1.362 . S
C791 H781 0.930 . S
C791 C784 1.409 . S
C791 C790 1.362 . S
H792 C798 0.930 . S
H793 C801 0.930 . S
H794 C802 0.930 . S
H795 C803 0.930 . S
H796 C806 0.930 . S
H797 C807 0.930 . S
C798 H792 0.930 . S
C798 C799 1.355 . S
C798 C800 1.415 . S
C799 C798 1.355 . S
C799 C801 1.419 . S
C800 C798 1.415 . S
C800 C805 1.425 . S
C800 C807 1.409 . S
C801 H793 0.930 . S
C801 C799 1.419 . S
C801 C802 1.362 . S
C802 H794 0.930 . S
C802 C801 1.362 . S
C802 C805 1.409 . S
C803 H795 0.930 . S
C803 C804 1.355 . S
C803 C805 1.415 . S
C804 C803 1.355 . S
C804 C806 1.419 . S
C805 C800 1.425 . S
C805 C802 1.409 . S
C805 C803 1.415 . S
C806 H796 0.930 . S
C806 C804 1.419 . S
C806 C807 1.362 . S
C807 H797 0.930 . S
C807 C800 1.409 . S
C807 C806 1.362 . S
H808 C814 0.930 . S
H809 C817 0.930 . S
H810 C818 0.930 . S
H811 C819 0.930 . S
H812 C822 0.930 . S
H813 C823 0.930 . S
C814 H808 0.930 . S
C814 C815 1.355 . S
C814 C816 1.415 . S
C815 C814 1.355 . S
C815 C817 1.419 . S
C816 C814 1.415 . S
C816 C821 1.425 . S
C816 C823 1.409 . S
C817 H809 0.930 . S
C817 C815 1.419 . S
C817 C818 1.362 . S
C818 H810 0.930 . S
C818 C817 1.362 . S
C818 C821 1.409 . S
C819 H811 0.930 . S
C819 C820 1.355 . S
C819 C821 1.415 . S
C820 C819 1.355 . S
C820 C822 1.419 . S
C821 C816 1.425 . S
C821 C818 1.409 . S
C821 C819 1.415 . S
C822 H812 0.930 . S
C822 C820 1.419 . S
C822 C823 1.362 . S
C823 H813 0.930 . S
C823 C816 1.409 . S
C823 C822 1.362 . S
H824 C830 0.930 . S
H825 C833 0.930 . S
H826 C834 0.930 . S
H827 C835 0.930 . S
H828 C838 0.930 . S
H829 C839 0.930 . S
C830 H824 0.930 . S
C830 C831 1.355 . S
C830 C832 1.415 . S
C831 C830 1.355 . S
C831 C833 1.419 . S
C832 C830 1.415 . S
C832 C837 1.425 . S
C832 C839 1.409 . S
C833 H825 0.930 . S
C833 C831 1.419 . S
C833 C834 1.362 . S
C834 H826 0.930 . S
C834 C833 1.362 . S
C834 C837 1.409 . S
C835 H827 0.930 . S
C835 C836 1.355 . S
C835 C837 1.415 . S
C836 C835 1.355 . S
C836 C838 1.419 . S
C837 C832 1.425 . S
C837 C834 1.409 . S
C837 C835 1.415 . S
C838 H828 0.930 . S
C838 C836 1.419 . S
C838 C839 1.362 . S
C839 H829 0.930 . S
C839 C832 1.409 . S
C839 C838 1.362 . S
H840 C846 0.930 . S
H841 C849 0.930 . S
H842 C850 0.930 . S
H843 C851 0.930 . S
H844 C854 0.930 . S
H845 C855 0.930 . S
C846 H840 0.930 . S
C846 C847 1.355 . S
C846 C848 1.415 . S
C847 C846 1.355 . S
C847 C849 1.419 . S
C848 C846 1.415 . S
C848 C853 1.425 . S
C848 C855 1.409 . S
C849 H841 0.930 . S
C849 C847 1.419 . S
C849 C850 1.362 . S
C850 H842 0.930 . S
C850 C849 1.362 . S
C850 C853 1.409 . S
C851 H843 0.930 . S
C851 C852 1.355 . S
C851 C853 1.415 . S
C852 C851 1.355 . S
C852 C854 1.419 . S
C853 C848 1.425 . S
C853 C850 1.409 . S
C853 C851 1.415 . S
C854 H844 0.930 . S
C854 C852 1.419 . S
C854 C855 1.362 . S
C855 H845 0.930 . S
C855 C848 1.409 . S
C855 C854 1.362 . S
H856 C862 0.930 . S
H857 C865 0.930 . S
H858 C866 0.930 . S
H859 C867 0.930 . S
H860 C870 0.930 . S
H861 C871 0.930 . S
C862 H856 0.930 . S
C862 C863 1.355 . S
C862 C864 1.415 . S
C863 C862 1.355 . S
C863 C865 1.419 . S
C864 C862 1.415 . S
C864 C869 1.425 . S
C864 C871 1.409 . S
C865 H857 0.930 . S
C865 C863 1.419 . S
C865 C866 1.362 . S
C866 H858 0.930 . S
C866 C865 1.362 . S
C866 C869 1.409 . S
C867 H859 0.930 . S
C867 C868 1.355 . S
C867 C869 1.415 . S
C868 C867 1.355 . S
C868 C870 1.419 . S
C869 C864 1.425 . S
C869 C866 1.409 . S
C869 C867 1.415 . S
C870 H860 0.930 . S
C870 C868 1.419 . S
C870 C871 1.362 . S
C871 H861 0.930 . S
C871 C864 1.409 . S
C871 C870 1.362 . S
H872 C878 0.930 . S
H873 C881 0.930 . S
H874 C882 0.930 . S
H875 C883 0.930 . S
H876 C886 0.930 . S
H877 C887 0.930 . S
C878 H872 0.930 . S
C878 C879 1.355 . S
C878 C880 1.415 . S
C879 C878 1.355 . S
C879 C881 1.419 . S
C880 C878 1.415 . S
C880 C885 1.425 . S
C880 C887 1.409 . S
C881 H873 0.930 . S
C881 C879 1.419 . S
C881 C882 1.362 . S
C882 H874 0.930 . S
C882 C881 1.362 . S
C882 C885 1.409 . S
C883 H875 0.930 . S
C883 C884 1.355 . S
C883 C885 1.415 . S
C884 C883 1.355 . S
C884 C886 1.419 . S
C885 C880 1.425 . S
C885 C882 1.409 . S
C885 C883 1.415 . S
C886 H876 0.930 . S
C886 C884 1.419 . S
C886 C887 1.362 . S
C887 H877 0.930 . S
C887 C880 1.409 . S
C887 C886 1.362 . S
H888 C894 0.930 . S
H889 C897 0.930 . S
H890 C898 0.930 . S
H891 C899 0.930 . S
H892 C902 0.930 . S
H893 C903 0.930 . S
C894 H888 0.930 . S
C894 C895 1.355 . S
C894 C896 1.415 . S
C895 C894 1.355 . S
C895 C897 1.419 . S
C896 C894 1.415 . S
C896 C901 1.425 . S
C896 C903 1.409 . S
C897 H889 0.930 . S
C897 C895 1.419 . S
C897 C898 1.362 . S
C898 H890 0.930 . S
C898 C897 1.362 . S
C898 C901 1.409 . S
C899 H891 0.930 . S
C899 C900 1.355 . S
C899 C901 1.415 . S
C900 C899 1.355 . S
C900 C902 1.419 . S
C901 C896 1.425 . S
C901 C898 1.409 . S
C901 C899 1.415 . S
C902 H892 0.930 . S
C902 C900 1.419 . S
C902 C903 1.362 . S
C903 H893 0.930 . S
C903 C896 1.409 . S
C903 C902 1.362 . S
H904 C910 0.930 . S
H905 C913 0.930 . S
H906 C914 0.930 . S
H907 C915 0.930 . S
H908 C918 0.930 . S
H909 C919 0.930 . S
C910 H904 0.930 . S
C910 C911 1.355 . S
C910 C912 1.415 . S
C911 C910 1.355 . S
C911 C913 1.419 . S
C912 C910 1.415 . S
C912 C917 1.425 . S
C912 C919 1.409 . S
C913 H905 0.930 . S
C913 C911 1.419 . S
C913 C914 1.362 . S
C914 H906 0.930 . S
C914 C913 1.362 . S
C914 C917 1.409 . S
C915 H907 0.930 . S
C915 C916 1.355 . S
C915 C917 1.415 . S
C916 C915 1.355 . S
C916 C918 1.419 . S
C917 C912 1.425 . S
C917 C914 1.409 . S
C917 C915 1.415 . S
C918 H908 0.930 . S
C918 C916 1.419 . S
C918 C919 1.362 . S
C919 H909 0.930 . S
C919 C912 1.409 . S
C919 C918 1.362 . S
H920 C926 0.930 . S
H921 C929 0.930 . S
H922 C930 0.930 . S
H923 C931 0.930 . S
H924 C934 0.930 . S
H925 C935 0.930 . S
C926 H920 0.930 . S
C926 C927 1.355 . S
C926 C928 1.415 . S
C927 C926 1.355 . S
C927 C929 1.419 . S
C928 C926 1.415 . S
C928 C933 1.425 . S
C928 C935 1.409 . S
C929 H921 0.930 . S
C929 C927 1.419 . S
C929 C930 1.362 . S
C930 H922 0.930 . S
C930 C929 1.362 . S
C930 C933 1.409 . S
C931 H923 0.930 . S
C931 C932 1.355 . S
C931 C933 1.415 . S
C932 C931 1.355 . S
C932 C934 1.419 . S
C933 C928 1.425 . S
C933 C930 1.409 . S
C933 C931 1.415 . S
C934 H924 0.930 . S
C934 C932 1.419 . S
C934 C935 1.362 . S
C935 H925 0.930 . S
C935 C928 1.409 . S
C935 C934 1.362 . S
H936 C942 0.930 . S
H937 C945 0.930 . S
H938 C946 0.930 . S
H939 C947 0.930 . S
H940 C950 0.930 . S
H941 C951 0.930 . S
C942 H936 0.930 . S
C942 C943 1.355 . S
C942 C944 1.415 . S
C943 C942 1.355 . S
C943 C945 1.419 . S
C944 C942 1.415 . S
C944 C949 1.425 . S
C944 C951 1.409 . S
C945 H937 0.930 . S
C945 C943 1.419 . S
C945 C946 1.362 . S
C946 H938 0.930 . S
C946 C945 1.362 . S
C946 C949 1.409 . S
C947 H939 0.930 . S
C947 C948 1.355 . S
C947 C949 1.415 . S
C948 C947 1.355 . S
C948 C950 1.419 . S
C949 C944 1.425 . S
C949 C946 1.409 . S
C949 C947 1.415 . S
C950 H940 0.930 . S
C950 C948 1.419 . S
C950 C951 1.362 . S
C951 H941 0.930 . S
C951 C944 1.409 . S
C951 C950 1.362 . S
H952 C958 0.930 . S
H953 C961 0.930 . S
H954 C962 0.930 . S
H955 C963 0.930 . S
H956 C966 0.930 . S
H957 C967 0.930 . S
C958 H952 0.930 . S
C958 C959 1.355 . S
C958 C960 1.415 . S
C959 C958 1.355 . S
C959 C961 1.419 . S
C960 C958 1.415 . S
C960 C965 1.425 . S
C960 C967 1.409 . S
C961 H953 0.930 . S
C961 C959 1.419 . S
C961 C962 1.362 . S
C962 H954 0.930 . S
C962 C961 1.362 . S
C962 C965 1.409 . S
C963 H955 0.930 . S
C963 C964 1.355 . S
C963 C965 1.415 . S
C964 C963 1.355 . S
C964 C966 1.419 . S
C965 C960 1.425 . S
C965 C962 1.409 . S
C965 C963 1.415 . S
C966 H956 0.930 . S
C966 C964 1.419 . S
C966 C967 1.362 . S
C967 H957 0.930 . S
C967 C960 1.409 . S
C967 C966 1.362 . S
H968 C974 0.930 . S
H969 C977 0.930 . S
H970 C978 0.930 . S
H971 C979 0.930 . S
H972 C982 0.930 . S
H973 C983 0.930 . S
C974 H968 0.930 . S
C974 C975 1.355 . S
C974 C976 1.415 . S
C975 C974 1.355 . S
C975 C977 1.419 . S
C976 C974 1.415 . S
C976 C981 1.425 . S
C976 C983 1.409 . S
C977 H969 0.930 . S
C977 C975 1.419 . S
C977 C978 1.362 . S
C978 H970 0.930 . S
C978 C977 1.362 . S
C978 C981 1.409 . S
C979 H971 0.930 . S
C979 C980 1.355 . S
C979 C981 1.415 . S
C980 C979 1.355 . S
C980 C982 1.419 . S
C981 C976 1.425 . S
C981 C978 1.409 . S
C981 C979 1.415 . S
C982 H972 0.930 . S
C982 C980 1.419 . S
C982 C983 1.362 . S
C983 H973 0.930 . S
C983 C976 1.409 . S
C983 C982 1.362 . S
H984 C990 0.930 . S
H985 C993 0.930 . S
H986 C994 0.930 . S
H987 C995 0.930 . S
H988 C998 0.930 . S
H989 C999 0.930 . S
C990 H984 0.930 . S
C990 C991 1.355 . S
C990 C992 1.415 . S
C991 C990 1.355 . S
C991 C993 1.419 . S
C992 C990 1.415 . S
C992 C997 1.425 . S
C992 C999 1.409 . S
C993 H985 0.930 . S
C993 C991 1.419 . S
C993 C994 1.362 . S
C994 H986 0.930 . S
C994 C993 1.362 . S
C994 C997 1.409 . S
C995 H987 0.930 . S
C995 C996 1.355 . S
C995 C997 1.415 . S
C996 C995 1.355 . S
C996 C998 1.419 . S
C997 C992 1.425 . S
C997 C994 1.409 . S
C997 C995 1.415 . S
C998 H988 0.930 . S
C998 C996 1.419 . S
C998 C999 1.362 . S
C999 H989 0.930 . S
C999 C992 1.409 . S
C999 C998 1.362 . S
H1000 C1006 0.930 . S
H1001 C1009 0.930 . S
H1002 C1010 0.930 . S
H1003 C1011 0.930 . S
H1004 C1014 0.930 . S
H1005 C1015 0.930 . S
C1006 H1000 0.930 . S
C1006 C1007 1.355 . S
C1006 C1008 1.415 . S
C1007 C1006 1.355 . S
C1007 C1009 1.419 . S
C1008 C1006 1.415 . S
C1008 C1013 1.425 . S
C1008 C1015 1.409 . S
C1009 H1001 0.930 . S
C1009 C1007 1.419 . S
C1009 C1010 1.362 . S
C1010 H1002 0.930 . S
C1010 C1009 1.362 . S
C1010 C1013 1.409 . S
C1011 H1003 0.930 . S
C1011 C1012 1.355 . S
C1011 C1013 1.415 . S
C1012 C1011 1.355 . S
C1012 C1014 1.419 . S
C1013 C1008 1.425 . S
C1013 C1010 1.409 . S
C1013 C1011 1.415 . S
C1014 H1004 0.930 . S
C1014 C1012 1.419 . S
C1014 C1015 1.362 . S
C1015 H1005 0.930 . S
C1015 C1008 1.409 . S
C1015 C1014 1.362 . S
H1016 C1022 0.930 . S
H1017 C1025 0.930 . S
H1018 C1026 0.930 . S
H1019 C1027 0.930 . S
H1020 C1030 0.930 1_655 S
H1021 C1031 0.930 . S
C1022 H1016 0.930 . S
C1022 C1023 1.355 . S
C1022 C1024 1.415 . S
C1023 C1022 1.355 . S
C1023 C1025 1.419 . S
C1024 C1022 1.415 . S
C1024 C1029 1.425 . S
C1024 C1031 1.409 . S
C1025 H1017 0.930 . S
C1025 C1023 1.419 . S
C1025 C1026 1.362 . S
C1026 H1018 0.930 . S
C1026 C1025 1.362 . S
C1026 C1029 1.409 . S
C1027 H1019 0.930 . S
C1027 C1028 1.355 . S
C1027 C1029 1.415 . S
C1028 C1027 1.355 . S
C1028 C1030 1.419 . S
C1029 C1024 1.425 . S
C1029 C1026 1.409 . S
C1029 C1027 1.415 . S
C1030 H1020 0.930 1_455 S
C1030 C1028 1.419 . S
C1030 C1031 1.362 . S
C1031 H1021 0.930 . S
C1031 C1024 1.409 . S
C1031 C1030 1.362 . S
C655 C235 1.480 1_545 S
C660 C368 1.479 . S
C676 C452 1.451 . S
C671 C289 1.469 . S
C692 C451 1.460 . S
C687 C157 1.455 . S
C703 C211 1.456 1_545 S
C708 C367 1.459 . S
C724 C548 1.449 . S
C719 C79 1.487 1_565 S
C740 C632 1.461 . S
C735 C118 1.490 . S
C751 C1 1.459 . S
C756 C631 1.458 . S
C767 C40 1.477 1_565 S
C772 C547 1.475 . S
C788 C370 1.376 . S
C783 C55 1.523 1_554 S
C804 C454 1.276 . S
C799 C16 1.497 . S
C820 C466 1.443 . S
C815 C133 1.539 1_556 S
C836 C382 1.401 . S
C831 C94 1.521 . S
C852 C550 1.391 . S
C847 C196 1.526 1_556 S
C863 C172 1.506 . S
C868 C634 1.305 . S
C884 C622 1.341 . S
C879 C274 1.530 1_554 S
C895 C250 1.541 . S
C900 C538 1.452 . S
C916 C379 1.561 . S
C911 C21 1.559 . S
C932 C463 1.575 . S
C927 C60 1.562 . S
C943 C99 1.548 . S
C948 C464 1.567 . S
C964 C380 1.562 . S
C959 C138 1.562 . S
C980 C535 1.580 . S
C975 C177 1.585 . S
C991 C216 1.585 . S
C996 C619 1.584 . S
C1007 C255 1.556 . S
C1012 C620 1.544 . S
C1023 C294 1.542 . S
C1028 C536 1.568 . S
