# Generated by pormake.
# Topology pth, (4,4)-cn, num edge types: 1
# Building blocks:
#     Node 0, Type 0, BuildingBlock: TATPOV_clean_sbu_0, # of connection points: 4
#     Node 1, Type 0, BuildingBlock: TATPOV_clean_sbu_0, # of connection points: 4
#     Node 2, Type 0, BuildingBlock: TATPOV_clean_sbu_0, # of connection points: 4
#     Node 3, Type 1, BuildingBlock: MIFKUJ_clean_linker_1, # of connection points: 4
#     Node 4, Type 1, BuildingBlock: MIFKUJ_clean_linker_1, # of connection points: 4
#     Node 5, Type 1, BuildingBlock: MIFKUJ_clean_linker_1, # of connection points: 4
#     Edge 6, Type (0, 1), BuildingBlock: FUNLAD_clean_linker_1, # of connection points: 2
#     Edge 7, Type (0, 1), BuildingBlock: FUNLAD_clean_linker_1, # of connection points: 2
#     Edge 8, Type (0, 1), BuildingBlock: FUNLAD_clean_linker_1, # of connection points: 2
#     Edge 9, Type (0, 1), BuildingBlock: FUNLAD_clean_linker_1, # of connection points: 2
#     Edge 10, Type (0, 1), BuildingBlock: FUNLAD_clean_linker_1, # of connection points: 2
#     Edge 11, Type (0, 1), BuildingBlock: FUNLAD_clean_linker_1, # of connection points: 2
#     Edge 12, Type (0, 1), BuildingBlock: FUNLAD_clean_linker_1, # of connection points: 2
#     Edge 13, Type (0, 1), BuildingBlock: FUNLAD_clean_linker_1, # of connection points: 2
#     Edge 14, Type (0, 1), BuildingBlock: FUNLAD_clean_linker_1, # of connection points: 2
#     Edge 15, Type (0, 1), BuildingBlock: FUNLAD_clean_linker_1, # of connection points: 2
#     Edge 16, Type (0, 1), BuildingBlock: FUNLAD_clean_linker_1, # of connection points: 2
#     Edge 17, Type (0, 1), BuildingBlock: FUNLAD_clean_linker_1, # of connection points: 2
# Relax obj value: 0.038
# Max RMSD: 0.160
# Mean RMSD: 0.089
data_MOF--net-pth--node1-TATPOV_clean_sbu_0--node2-MIFKUJ_clean_linker_1--edge1-FUNLAD_clean_linker_1
_symmetry_space_group_name_H-M    P1
_symmetry_Int_Tables_number       1
_symmetry_cell_setting            triclinic
loop_
_symmetry_equiv_pos_as_xyz
'x, y, z'
_cell_length_a     30.788971
_cell_length_b     30.471896
_cell_length_c     64.512236
_cell_angle_alpha  92.451615
_cell_angle_beta   92.180345
_cell_angle_gamma 121.01588
loop_
_atom_site_label
_atom_site_type_symbol
_atom_site_fract_x
_atom_site_fract_y
_atom_site_fract_z
_atom_type_partial_charge
Zn0 Zn 0.1328 5e-05 0.02321 0.0
Zn1 Zn 0.10835 0.05736 0.04762 0.0
O2 O 0.11766 0.01212 0.06816 0.0
O3 O 0.14233 0.96885 0.04861 0.0
O4 O 0.09723 0.10595 0.06564 0.0
O5 O 0.19175 0.06269 0.01258 0.0
O6 O 0.16933 0.10838 0.03175 0.0
C7 C 0.1314 0.97926 0.06613 0.0
C8 C 0.03087 0.98195 0.01409 0.0
O9 O 0.04282 0.01585 0.02896 0.0
O10 O 0.06221 0.96903 0.00876 0.0
C11 C 0.05894 0.09295 0.07618 0.0
O12 O 0.02308 0.04433 0.07606 0.0
C13 C 0.19808 0.10569 0.0187 0.0
Zn14 Zn 0.1207 0.08611 0.34996 0.0
Zn15 Zn 0.03952 0.0634 0.37216 0.0
O16 O 0.09663 0.07996 0.39438 0.0
O17 O 0.16308 0.09851 0.37667 0.0
O18 O 0.98172 0.05125 0.38942 0.0
O19 O 0.11621 0.14326 0.33734 0.0
O20 O 0.04783 0.12121 0.35429 0.0
C21 C 0.14292 0.09257 0.39388 0.0
C22 C 0.0342 0.98208 0.3414 0.0
O23 O 0.0137 0.99515 0.35519 0.0
O24 O 0.07866 0.01374 0.33639 0.0
C25 C 0.9599 0.01255 0.4002 0.0
O26 O 0.97442 0.97891 0.39979 0.0
C27 C 0.07955 0.14904 0.34147 0.0
Zn28 Zn 0.08749 0.95594 0.72409 0.0
Zn29 Zn 0.04317 0.99577 0.70051 0.0
O30 O 0.08647 0.98385 0.67986 0.0
O31 O 0.11891 0.94716 0.69852 0.0
O32 O 0.0044 0.02059 0.68371 0.0
O33 O 0.01947 0.89952 0.73201 0.0
O34 O 0.98457 0.93331 0.71312 0.0
C35 C 0.11404 0.96395 0.68152 0.0
C36 C 0.11642 0.0604 0.7375 0.0
O37 O 0.08679 0.05549 0.72211 0.0
O38 O 0.12326 0.02394 0.74155 0.0
C39 C 0.98275 3e-05 0.66586 0.0
O40 O 0.98774 0.96307 0.65732 0.0
C41 C 0.98038 0.8995 0.72516 0.0
H42 H 0.05026 0.47067 0.16817 0.0
H43 H 0.05125 0.40057 0.14877 0.0
H44 H 0.90039 0.29386 0.16682 0.0
H45 H 0.89949 0.36442 0.18606 0.0
H46 H 0.98957 0.51087 0.16474 0.0
H47 H 0.04019 0.4383 0.21649 0.0
H48 H 0.04203 0.37578 0.23828 0.0
H49 H 0.89337 0.33253 0.25798 0.0
H50 H 0.89149 0.39513 0.23579 0.0
H51 H 0.90042 0.54399 0.23671 0.0
H52 H 0.90685 0.61409 0.25901 0.0
H53 H 0.06082 0.71351 0.24215 0.0
H54 H 0.05434 0.64265 0.22025 0.0
H55 H 0.95947 0.49991 0.2399 0.0
H56 H 0.92184 0.58975 0.18891 0.0
H57 H 0.94111 0.66922 0.17339 0.0
H58 H 0.08482 0.69069 0.15606 0.0
H59 H 0.06508 0.61147 0.17142 0.0
C60 C 0.97504 0.42269 0.17873 0.0
C61 C 0.01742 0.43217 0.16793 0.0
C62 C 0.01814 0.39186 0.15706 0.0
C63 C 0.97625 0.34132 0.15672 0.0
C64 C 0.93336 0.33228 0.16704 0.0
C65 C 0.93285 0.37249 0.17804 0.0
C66 C 0.97511 0.46497 0.19104 0.0
C67 C 0.98315 0.50855 0.18118 0.0
C68 C 0.96668 0.46203 0.21247 0.0
C69 C 0.96562 0.42118 0.22447 0.0
C70 C 0.00774 0.41499 0.22532 0.0
C71 C 0.00905 0.37976 0.23805 0.0
C72 C 0.96829 0.35027 0.25029 0.0
C73 C 0.92543 0.35523 0.24887 0.0
C74 C 0.92432 0.39085 0.23623 0.0
C75 C 0.97657 0.58839 0.22657 0.0
C76 C 0.93539 0.58105 0.23774 0.0
C77 C 0.93903 0.62145 0.25034 0.0
C78 C 0.98417 0.66992 0.252 0.0
C79 C 0.02545 0.67679 0.24099 0.0
C80 C 0.02174 0.63646 0.2284 0.0
C81 C 0.97318 0.54533 0.21359 0.0
C82 C 0.96467 0.50165 0.22334 0.0
C83 C 0.98245 0.54891 0.19223 0.0
C84 C 0.99204 0.59468 0.18132 0.0
C85 C 0.95729 0.61146 0.18159 0.0
C86 C 0.96837 0.65687 0.17275 0.0
C87 C 0.01406 0.68612 0.16321 0.0
C88 C 0.04857 0.66881 0.16272 0.0
C89 C 0.03745 0.62338 0.17158 0.0
H90 H 0.66558 0.14139 0.50167 0.0
H91 H 0.7271 0.13734 0.48006 0.0
H92 H 0.68516 0.98983 0.50279 0.0
H93 H 0.62333 0.99378 0.52368 0.0
H94 H 0.56611 0.08306 0.50105 0.0
H95 H 0.70388 0.13042 0.54937 0.0
H96 H 0.7718 0.12183 0.56573 0.0
H97 H 0.65978 0.98241 0.59153 0.0
H98 H 0.59191 0.99026 0.57462 0.0
H99 H 0.45585 0.98642 0.57054 0.0
H100 H 0.38287 0.97718 0.58773 0.0
H101 H 0.42493 0.13101 0.57343 0.0
H102 H 0.49808 0.13974 0.55609 0.0
H103 H 0.56043 0.05509 0.57637 0.0
H104 H 0.42385 0.00866 0.52307 0.0
H105 H 0.36126 0.01874 0.50312 0.0
H106 H 0.47992 0.16872 0.4875 0.0
H107 H 0.54249 0.15803 0.50756 0.0
C108 C 0.64011 0.06809 0.51442 0.0
C109 C 0.66955 0.10808 0.50184 0.0
C110 C 0.70478 0.10574 0.48955 0.0
C111 C 0.71125 0.06331 0.48944 0.0
C112 C 0.68153 0.02314 0.50209 0.0
C113 C 0.64614 0.02545 0.51431 0.0
C114 C 0.60245 0.07051 0.52738 0.0
C115 C 0.56544 0.07779 0.51759 0.0
C116 C 0.60149 0.06347 0.54898 0.0
C117 C 0.64264 0.06056 0.56049 0.0
C118 C 0.69385 0.09791 0.55852 0.0
C119 C 0.73267 0.09315 0.56794 0.0
C120 C 0.72123 0.0519 0.58008 0.0
C121 C 0.66998 0.01533 0.58265 0.0
C122 C 0.63107 0.01967 0.57293 0.0
C123 C 0.48234 0.06367 0.56199 0.0
C124 C 0.44984 0.01847 0.57144 0.0
C125 C 0.40805 0.01339 0.58137 0.0
C126 C 0.3983 0.05382 0.58223 0.0
C127 C 0.43146 0.09929 0.57303 0.0
C128 C 0.47327 0.10435 0.56314 0.0
C129 C 0.52382 0.06692 0.54989 0.0
C130 C 0.56153 0.06074 0.55987 0.0
C131 C 0.52626 0.07619 0.52853 0.0
C132 C 0.48772 0.08283 0.51699 0.0
C133 C 0.43619 0.04406 0.51563 0.0
C134 C 0.4003 0.05015 0.50426 0.0
C135 C 0.41543 0.09527 0.49399 0.0
C136 C 0.46709 0.13382 0.49538 0.0
C137 C 0.50287 0.12771 0.50676 0.0
H138 H 0.51294 0.42271 0.84713 0.0
H139 H 0.44324 0.34353 0.82952 0.0
H140 H 0.33613 0.38436 0.85064 0.0
H141 H 0.40619 0.46393 0.86783 0.0
H142 H 0.54267 0.51794 0.83875 0.0
H143 H 0.48949 0.41898 0.89674 0.0
H144 H 0.43586 0.36437 0.9226 0.0
H145 H 0.40282 0.48095 0.94222 0.0
H146 H 0.45717 0.53589 0.91607 0.0
H147 H 0.59599 0.67491 0.90585 0.0
H148 H 0.67062 0.74947 0.92372 0.0
H149 H 0.76488 0.69259 0.90192 0.0
H150 H 0.69002 0.61791 0.88428 0.0
H151 H 0.55683 0.57517 0.91312 0.0
H152 H 0.62295 0.67557 0.85226 0.0
H153 H 0.68956 0.72459 0.82886 0.0
H154 H 0.70891 0.59497 0.81784 0.0
H155 H 0.64241 0.54626 0.84133 0.0
C156 C 0.46477 0.44934 0.85866 0.0
C157 C 0.47441 0.41457 0.84794 0.0
C158 C 0.43456 0.3693 0.83795 0.0
C159 C 0.3843 0.35809 0.83825 0.0
C160 C 0.37443 0.39223 0.84955 0.0
C161 C 0.41443 0.43757 0.85964 0.0
C162 C 0.50778 0.49892 0.86793 0.0
C163 C 0.54581 0.53033 0.85505 0.0
C164 C 0.5117 0.51525 0.88913 0.0
C165 C 0.47646 0.48107 0.90413 0.0
C166 C 0.46975 0.43235 0.90625 0.0
C167 C 0.43878 0.40099 0.92108 0.0
C168 C 0.41384 0.4178 0.93418 0.0
C169 C 0.4211 0.46683 0.93219 0.0
C170 C 0.45207 0.49818 0.91729 0.0
C171 C 0.63743 0.64106 0.89358 0.0
C172 C 0.63279 0.67862 0.90491 0.0
C173 C 0.67553 0.72107 0.91526 0.0
C174 C 0.72365 0.72638 0.91456 0.0
C175 C 0.72829 0.68941 0.90275 0.0
C176 C 0.68557 0.64689 0.89255 0.0
C177 C 0.59166 0.59417 0.88392 0.0
C178 C 0.55302 0.56324 0.89673 0.0
C179 C 0.58793 0.5774 0.86279 0.0
C180 C 0.62777 0.60732 0.84849 0.0
C181 C 0.64143 0.65772 0.84471 0.0
C182 C 0.67911 0.68545 0.83114 0.0
C183 C 0.70372 0.66307 0.82117 0.0
C184 C 0.69018 0.61284 0.82516 0.0
C185 C 0.65222 0.58503 0.83852 0.0
H186 H 0.08524 0.17297 0.08679 0.0
C187 C 0.05488 0.13335 0.08774 0.0
H188 H 0.98507 0.08406 0.10055 0.0
H189 H 0.02635 0.25163 0.17333 0.0
H190 H 0.03498 0.18947 0.19259 0.0
H191 H 0.03377 0.11606 0.17425 0.0
H192 H 0.02369 0.10418 0.13655 0.0
C193 C 0.01516 0.12337 0.09886 0.0
C194 C 0.0127 0.1659 0.10991 0.0
C195 C 0.01848 0.17215 0.13194 0.0
C196 C 0.01958 0.2147 0.14251 0.0
C197 C 0.02555 0.22015 0.16452 0.0
C198 C 0.03051 0.18475 0.17576 0.0
C199 C 0.02979 0.14339 0.16544 0.0
C200 C 0.02395 0.13701 0.14379 0.0
H201 H 0.93874 0.26418 0.14003 0.0
C202 C 0.97546 0.29748 0.14533 0.0
H203 H 0.05467 0.32685 0.14852 0.0
H204 H 0.99388 0.1614 0.06776 0.0
H205 H 0.98533 0.22358 0.04858 0.0
H206 H 0.99111 0.29942 0.06683 0.0
H207 H 0.00485 0.31318 0.10441 0.0
C208 C 0.01763 0.2961 0.14213 0.0
C209 C 0.01466 0.25073 0.13105 0.0
C210 C 0.00771 0.24389 0.10905 0.0
C211 C 0.006 0.20103 0.09848 0.0
C212 C 0.99719 0.19415 0.07655 0.0
C213 C 0.99187 0.22938 0.06534 0.0
C214 C 0.99499 0.27201 0.07562 0.0
C215 C 0.00278 0.27937 0.09721 0.0
H216 H 0.90122 0.97164 0.42229 0.0
C217 C 0.91953 0.00583 0.41365 0.0
H218 H 0.92533 0.07645 0.40807 0.0
H219 H 0.69815 0.95411 0.44525 0.0
H220 H 0.67122 0.90092 0.41284 0.0
H221 H 0.73377 0.90916 0.38812 0.0
H222 H 0.82364 0.97054 0.39569 0.0
C223 C 0.906 0.04112 0.41594 0.0
C224 C 0.86796 0.03553 0.43078 0.0
C225 C 0.81555 -0.00058 0.42609 0.0
C226 C 0.77945 0.99497 0.44028 0.0
C227 C 0.72728 0.95897 0.43511 0.0
C228 C 0.71125 0.92825 0.41652 0.0
C229 C 0.74647 0.93286 0.40261 0.0
C230 C 0.79801 0.9681 0.40721 0.0
H231 H 0.77265 0.09746 0.46785 0.0
C232 C 0.74959 0.06322 0.47605 0.0
H233 H 0.73442 0.98786 0.48015 0.0
H234 H 0.9656 0.1082 0.4445 0.0
H235 H 0.99284 0.16009 0.47727 0.0
H236 H 0.93054 0.15053 0.50236 0.0
H237 H 0.84066 0.08942 0.49477 0.0
C238 C 0.75749 0.0239 0.47323 0.0
C239 C 0.7958 0.027 0.459 0.0
C240 C 0.84836 0.06228 0.4639 0.0
C241 C 0.88438 0.06703 0.44963 0.0
C242 C 0.93659 0.10296 0.45479 0.0
C243 C 0.95278 0.13291 0.47357 0.0
C244 C 0.9177 0.12758 0.48768 0.0
C245 C 0.86612 0.09261 0.48304 0.0
H246 H 0.89877 0.86889 0.72858 0.0
C247 C 0.93049 0.86418 0.733 0.0
H248 H 0.95709 0.82753 0.75229 0.0
H249 H 0.81486 0.79521 0.82409 0.0
H250 H 0.89683 0.86178 0.83998 0.0
H251 H 0.97153 0.90403 0.81915 0.0
H252 H 0.96481 0.87996 0.78237 0.0
C253 C 0.92497 0.83096 0.74719 0.0
C254 C 0.87914 0.80594 0.75931 0.0
C255 C 0.88388 0.8206 0.78084 0.0
C256 C 0.84088 0.7964 0.79286 0.0
C257 C 0.84648 0.81201 0.81428 0.0
C258 C 0.89326 0.85032 0.82359 0.0
C259 C 0.9353 0.87409 0.81187 0.0
C260 C 0.9309 0.85971 0.79075 0.0
H261 H 0.77327 0.68026 0.80589 0.0
C262 C 0.74529 0.69167 0.80736 0.0
H263 H 0.7209 0.74056 0.79622 0.0
H264 H 0.85731 0.76706 0.71864 0.0
H265 H 0.77474 0.70177 0.70275 0.0
H266 H 0.69967 0.66172 0.72348 0.0
H267 H 0.70685 0.68654 0.76033 0.0
C268 C 0.74946 0.72978 0.79626 0.0
C269 C 0.79333 0.75755 0.78334 0.0
C270 C 0.78822 0.7437 0.76176 0.0
C271 C 0.83132 0.76752 0.74974 0.0
C272 C 0.8256 0.75127 0.7284 0.0
C273 C 0.77846 0.71359 0.7191 0.0
C274 C 0.7362 0.69098 0.73078 0.0
C275 C 0.74082 0.70556 0.7519 0.0
H276 H 0.14692 0.92513 0.08127 0.0
C277 C 0.12977 0.94842 0.08338 0.0
H278 H 0.08039 0.96107 0.10105 0.0
H279 H 0.97134 0.72449 0.11937 0.0
H280 H 0.90734 0.72576 0.09688 0.0
H281 H 0.92454 0.80537 0.08143 0.0
H282 H 0.00609 0.8841 0.08829 0.0
C283 C 0.10091 0.941 0.09947 0.0
C284 C 0.08763 0.89687 0.11232 0.0
C285 C 0.03893 0.85174 0.10893 0.0
C286 C 0.02865 0.8061 0.11821 0.0
C287 C 0.98081 0.76072 0.11337 0.0
C288 C 0.94374 0.76078 0.10032 0.0
C289 C 0.95345 0.80556 0.09159 0.0
C290 C 0.00047 0.85053 0.09568 0.0
H291 H 0.00247 0.75143 0.15946 0.0
C292 C 0.02462 0.73482 0.15444 0.0
H293 H 0.08059 0.74261 0.13426 0.0
H294 H 0.18221 0.97858 0.12405 0.0
H295 H 0.24593 0.97846 0.14745 0.0
H296 H 0.22809 0.8997 0.16388 0.0
H297 H 0.14655 0.82061 0.15706 0.0
C298 C 0.05802 0.75793 0.13996 0.0
C299 C 0.06669 0.80625 0.13143 0.0
C300 C 0.11448 0.85216 0.13564 0.0
C301 C 0.1249 0.89752 0.12611 0.0
C302 C 0.17278 0.9429 0.13065 0.0
C303 C 0.20952 0.9434 0.14412 0.0
C304 C 0.19946 0.89906 0.15338 0.0
C305 C 0.15255 0.85388 0.14928 0.0
H306 H 0.15292 0.08901 0.42779 0.0
C307 C 0.17158 0.09563 0.4133 0.0
H308 H 0.23572 0.10533 0.39854 0.0
H309 H 0.33631 0.15937 0.49491 0.0
H310 H 0.3328 0.23713 0.49405 0.0
H311 H 0.28827 0.25002 0.46449 0.0
H312 H 0.24662 0.1851 0.4357 0.0
C313 C 0.21778 0.10122 0.4131 0.0
C314 C 0.24199 0.09296 0.43166 0.0
C315 C 0.2664 0.13151 0.44822 0.0
C316 C 0.29307 0.12461 0.46503 0.0
C317 C 0.31654 0.16326 0.48155 0.0
C318 C 0.3146 0.20792 0.48129 0.0
C319 C 0.28944 0.21514 0.46466 0.0
C320 C 0.26561 0.17754 0.44826 0.0
H321 H 0.39568 0.13137 0.46931 0.0
C322 C 0.37953 0.10232 0.48054 0.0
H323 H 0.3104 0.04536 0.49199 0.0
H324 H 0.19575 0.00988 0.40315 0.0
H325 H 0.19869 0.93198 0.40422 0.0
H326 H 0.24601 0.92062 0.43312 0.0
H327 H 0.29055 0.98702 0.46115 0.0
C328 C 0.3287 0.07462 0.48107 0.0
C329 C 0.29589 0.0796 0.46501 0.0
C330 C 0.26964 0.04015 0.4489 0.0
C331 C 0.24277 0.04689 0.43217 0.0
C332 C 0.2172 0.00702 0.41615 0.0
C333 C 0.21846 0.96203 0.41659 0.0
C334 C 0.24506 0.95562 0.43287 0.0
C335 C 0.27047 0.99408 0.44886 0.0
H336 H 0.13962 0.14105 0.74584 0.0
C337 C 0.14374 0.10936 0.75039 0.0
H338 H 0.17746 0.08418 0.77232 0.0
H339 H 0.33967 0.33378 0.78468 0.0
H340 H 0.36135 0.32586 0.7495 0.0
H341 H 0.31198 0.24417 0.72793 0.0
H342 H 0.24036 0.17029 0.74126 0.0
C343 C 0.17428 0.11596 0.76716 0.0
C344 C 0.20337 0.16582 0.77972 0.0
C345 C 0.24582 0.20825 0.77172 0.0
C346 C 0.27543 0.25473 0.78439 0.0
C347 C 0.3168 0.29708 0.77591 0.0
C348 C 0.32951 0.29315 0.75571 0.0
C349 C 0.30164 0.24721 0.74355 0.0
C350 C 0.26035 0.20511 0.75138 0.0
H351 H 0.35323 0.28233 0.82127 0.0
C352 C 0.34398 0.31102 0.82618 0.0
H353 H 0.28761 0.33136 0.82323 0.0
H354 H 0.12275 0.09283 0.79929 0.0
H355 H 0.10178 0.10093 0.83462 0.0
H356 H 0.1546 0.18104 0.85684 0.0
H357 H 0.22867 0.25367 0.84383 0.0
C358 C 0.29881 0.30378 0.81932 0.0
C359 C 0.26367 0.25799 0.80522 0.0
C360 C 0.22039 0.21628 0.81299 0.0
C361 C 0.1902 0.17004 0.80022 0.0
C362 C 0.14727 0.12872 0.8084 0.0
C363 C 0.13475 0.13289 0.82862 0.0
C364 C 0.16448 0.17801 0.84113 0.0
C365 C 0.20688 0.21935 0.8335 0.0
H366 H 0.93924 0.0391 0.66523 0.0
C367 C 0.94796 0.01414 0.65609 0.0
H368 H 0.9327 0.96941 0.62793 0.0
H369 H 0.71389 0.92795 0.606 0.0
H370 H 0.69792 0.84253 0.61062 0.0
H371 H 0.7664 0.82972 0.624 0.0
H372 H 0.85137 0.90215 0.63258 0.0
C373 C 0.92505 0.99532 0.63695 0.0
C374 C 0.88416 0.00377 0.6287 0.0
C375 C 0.83432 0.96092 0.6241 0.0
C376 C 0.79448 0.96837 0.61688 0.0
C377 C 0.74541 0.92473 0.61191 0.0
C378 C 0.73568 0.87537 0.61444 0.0
C379 C 0.77424 0.86816 0.62194 0.0
C380 C 0.82299 0.91021 0.62675 0.0
H381 H 0.79781 0.06225 0.58051 0.0
C382 C 0.76348 0.04677 0.58889 0.0
H383 H 0.72843 0.01063 0.61576 0.0
H384 H 0.97658 0.09374 0.63268 0.0
H385 H 0.99166 0.17955 0.63004 0.0
H386 H 0.92073 0.19305 0.62166 0.0
H387 H 0.83464 0.12078 0.61526 0.0
C388 C 0.76196 0.02567 0.60694 0.0
C389 C 0.80417 0.01869 0.61466 0.0
C390 C 0.85382 0.06165 0.61964 0.0
C391 C 0.89419 0.05406 0.6259 0.0
C392 C 0.94406 0.09739 0.62905 0.0
C393 C 0.95334 0.14688 0.62741 0.0
C394 C 0.91345 0.15446 0.62258 0.0
C395 C 0.86422 0.11253 0.61876 0.0
H396 H 0.95241 0.96607 0.00901 0.0
C397 C 0.9796 0.95643 0.00347 0.0
H398 H 0.99229 0.91079 0.98179 0.0
H399 H 0.75286 0.74558 0.97638 0.0
H400 H 0.77269 0.72114 0.00908 0.0
H401 H 0.85687 0.77474 0.02789 0.0
H402 H 0.92174 0.85313 0.0141 0.0
C403 C 0.96555 0.92069 0.98764 0.0
C404 C 0.91307 0.89231 0.9778 0.0
C405 C 0.87538 0.84713 0.98628 0.0
C406 C 0.82688 0.8163 0.97545 0.0
C407 C 0.79027 0.77064 0.984 0.0
C408 C 0.80116 0.75611 0.00276 0.0
C409 C 0.84856 0.78628 0.01335 0.0
C410 C 0.88543 0.83122 0.00526 0.0
H411 H 0.80648 0.77712 0.92135 0.0
C412 C 0.76973 0.76905 0.92618 0.0
H413 H 0.73284 0.7851 0.94981 0.0
H414 H 0.97577 0.97875 0.95831 0.0
H415 H 0.95506 0.00499 0.92619 0.0
H416 H 0.87028 0.95238 0.90772 0.0
H417 H 0.80579 0.87305 0.92118 0.0
C418 C 0.76856 0.7946 0.94347 0.0
C419 C 0.81647 0.83065 0.95611 0.0
C420 C 0.85322 0.8774 0.94826 0.0
C421 C 0.90177 0.90808 0.95906 0.0
C422 C 0.93824 0.95407 0.95071 0.0
C423 C 0.92681 0.96961 0.93233 0.0
C424 C 0.87909 0.93996 0.92192 0.0
C425 C 0.84253 0.89439 0.92973 0.0
H426 H 0.96976 0.90171 0.33693 0.0
C427 C 0.0064 0.92938 0.3315 0.0
H428 H 0.06209 0.94239 0.31039 0.0
H429 H 0.97869 0.69985 0.30821 0.0
H430 H 0.02285 0.72024 0.34247 0.0
H431 H 0.05728 0.80577 0.36067 0.0
H432 H 0.04734 0.87119 0.34484 0.0
C433 C 0.02596 0.91497 0.31626 0.0
C434 C 0.99969 0.86165 0.30672 0.0
C435 C 0.00604 0.82408 0.31623 0.0
C436 C 0.98728 0.77526 0.30555 0.0
C437 C 0.99343 0.73803 0.31545 0.0
C438 C 0.01842 0.74914 0.33514 0.0
C439 C 0.03773 0.79726 0.3454 0.0
C440 C 0.03175 0.83447 0.33613 0.0
H441 H 0.02935 0.74537 0.26959 0.0
C442 C 0.9907 0.71376 0.26557 0.0
H443 H 0.9129 0.68921 0.26788 0.0
H444 H 0.97663 0.92339 0.28533 0.0
H445 H 0.93106 0.90238 0.25134 0.0
H446 H 0.89953 0.81801 0.23256 0.0
H447 H 0.91326 0.7541 0.24765 0.0
C448 C 0.95218 0.71777 0.27254 0.0
C449 C 0.96329 0.76469 0.28525 0.0
C450 C 0.95398 0.80102 0.27635 0.0
C451 C 0.97239 0.84971 0.2871 0.0
C452 C 0.96366 0.8859 0.27773 0.0
C453 C 0.93751 0.8743 0.25826 0.0
C454 C 0.91973 0.82679 0.2477 0.0
C455 C 0.92787 0.79046 0.25653 0.0
H456 H 0.16333 0.94208 0.66623 0.0
C457 C 0.14459 0.96389 0.6645 0.0
H458 H 0.14062 0.01974 0.64762 0.0
H459 H 0.37109 0.10471 0.62763 0.0
H460 H 0.37922 0.17349 0.65081 0.0
H461 H 0.30466 0.16574 0.66715 0.0
H462 H 0.22155 0.08883 0.66048 0.0
C463 C 0.15616 0.99495 0.64886 0.0
C464 C 0.19815 0.0032 0.63572 0.0
C465 C 0.24607 0.04933 0.63905 0.0
C466 C 0.28887 0.05425 0.62925 0.0
C467 C 0.33691 0.09943 0.63401 0.0
C468 C 0.34224 0.13917 0.64746 0.0
C469 C 0.30029 0.13477 0.65668 0.0
C470 C 0.25276 0.09038 0.65269 0.0
H471 H 0.34142 0.07618 0.58769 0.0
C472 C 0.35335 0.04962 0.59196 0.0
H473 H 0.339 0.98968 0.6113 0.0
H474 H 0.11038 0.91284 0.62396 0.0
H475 H 0.10123 0.84456 0.5999 0.0
H476 H 0.17512 0.85308 0.58265 0.0
H477 H 0.25854 0.92984 0.58932 0.0
C478 C 0.32816 0.01648 0.60635 0.0
C479 C 0.2832 0.01355 0.6156 0.0
C480 C 0.23471 0.96845 0.61151 0.0
C481 C 0.19213 0.96335 0.62153 0.0
C482 C 0.14408 0.91816 0.61703 0.0
C483 C 0.13827 0.87886 0.60317 0.0
C484 C 0.17987 0.88368 0.59345 0.0
C485 C 0.22758 0.92788 0.59747 0.0
H486 H 0.26175 0.14765 0.999 0.0
C487 C 0.23641 0.15178 0.00912 0.0
H488 H 0.21014 0.20027 0.01942 0.0
H489 H 0.43073 0.34954 0.97653 0.0
H490 H 0.47033 0.33817 0.00744 0.0
H491 H 0.41817 0.28152 0.03396 0.0
H492 H 0.32597 0.23557 0.02963 0.0
C493 C 0.23718 0.19628 0.01041 0.0
C494 C 0.26875 0.23727 0.99657 0.0
C495 C 0.32246 0.26486 -0.00038 0.0
C496 C 0.35249 0.29828 0.98454 0.0
C497 C 0.40608 0.32415 0.98762 0.0
C498 C 0.4293 0.31793 0.00529 0.0
C499 C 0.39993 0.28597 0.0202 0.0
C500 C 0.34711 0.25964 0.01749 0.0
H501 H 0.37596 0.40556 0.96375 0.0
C502 C 0.382 0.38617 0.95062 0.0
H503 H 0.36171 0.31356 0.93632 0.0
H504 H 0.1666 0.1938 0.98701 0.0
H505 H 0.12714 0.20778 0.95678 0.0
H506 H 0.17937 0.26647 0.93081 0.0
H507 H 0.27149 0.31151 0.93492 0.0
C508 C 0.35956 0.33481 0.94977 0.0
C509 C 0.32863 0.30456 0.96664 0.0
C510 C 0.27498 0.27921 0.96418 0.0
C511 C 0.24495 0.24564 0.97921 0.0
C512 C 0.19133 0.21997 0.97614 0.0
C513 C 0.16816 0.22763 0.95885 0.0
C514 C 0.19756 0.26065 0.94422 0.0
C515 C 0.25037 0.2862 0.94675 0.0
H516 H 0.10072 0.20883 0.3194 0.0
C517 C 0.07208 0.18554 0.32991 0.0
H518 H 0.00035 0.16492 0.34076 0.0
H519 H 0.02164 0.37099 0.30888 0.0
H520 H 0.0346 0.39204 0.34621 0.0
H521 H 0.04141 0.33451 0.37015 0.0
H522 H 0.0352 0.25546 0.35693 0.0
C523 C 0.02956 0.18753 0.33036 0.0
C524 C 0.02104 0.21987 0.31612 0.0
C525 C 0.02434 0.26557 0.32413 0.0
C526 C 0.02071 0.29884 0.31032 0.0
C527 C 0.02448 0.3445 0.31869 0.0
C528 C 0.03184 0.357 0.34007 0.0
C529 C 0.03565 0.32459 0.35356 0.0
C530 C 0.03204 0.27937 0.34577 0.0
H531 H 0.93382 0.28059 0.268 0.0
C532 C 0.9696 0.31409 0.26458 0.0
H533 H 0.04886 0.35771 0.27238 0.0
H534 H 0.00534 0.13131 0.29595 0.0
H535 H 0.99273 0.1104 0.25866 0.0
H536 H 0.99063 0.17014 0.23458 0.0
H537 H 0.00033 0.25072 0.24765 0.0
C538 C 0.01305 0.32256 0.27416 0.0
C539 C 0.01348 0.28611 0.28858 0.0
C540 C 0.00866 0.23963 0.28059 0.0
C541 C 0.01162 0.20604 0.29442 0.0
C542 C 0.00506 0.15904 0.28611 0.0
C543 C 0.99748 0.1464 0.26474 0.0
C544 C 0.99615 0.17996 0.25118 0.0
C545 C 0.00163 0.22606 0.25892 0.0
loop_
_geom_bond_atom_site_label_1
_geom_bond_atom_site_label_2
_geom_bond_distance
_geom_bond_site_symmetry_2
_ccdc_geom_bond_type
Zn0 O3 2.031 . S
Zn0 O5 2.049 1_565 S
Zn0 O10 2.067 . S
Zn1 O2 1.962 . S
Zn1 O4 1.986 . S
Zn1 O6 1.996 . S
Zn1 O9 1.943 . S
O2 Zn1 1.962 . S
O2 C7 1.254 1_545 S
O3 Zn0 2.031 . S
O3 C7 1.269 . S
O4 Zn1 1.986 . S
O4 C11 1.262 . S
O5 Zn0 2.049 1_545 S
O5 C13 1.260 . S
O6 Zn1 1.996 . S
O6 C13 1.257 . S
C7 O2 1.254 1_565 S
C7 O3 1.269 . S
C8 O9 1.249 1_565 S
C8 O10 1.270 . S
O9 Zn1 1.943 . S
O9 C8 1.249 1_545 S
O10 Zn0 2.067 . S
O10 C8 1.270 . S
C11 O4 1.262 . S
C11 O12 1.232 . S
O12 C11 1.232 . S
C13 O5 1.260 . S
C13 O6 1.257 . S
Zn14 O17 2.031 . S
Zn14 O19 2.049 . S
Zn14 O24 2.067 . S
Zn15 O16 1.962 . S
Zn15 O18 1.986 1_455 S
Zn15 O20 1.996 . S
Zn15 O23 1.943 1_455 S
O16 Zn15 1.962 . S
O16 C21 1.254 . S
O17 Zn14 2.031 . S
O17 C21 1.269 . S
O18 Zn15 1.986 1_655 S
O18 C25 1.262 . S
O19 Zn14 2.049 . S
O19 C27 1.260 . S
O20 Zn15 1.996 . S
O20 C27 1.257 . S
C21 O16 1.254 . S
C21 O17 1.269 . S
C22 O23 1.249 1_465 S
C22 O24 1.270 1_565 S
O23 Zn15 1.943 1_655 S
O23 C22 1.249 1_645 S
O24 Zn14 2.067 . S
O24 C22 1.270 1_545 S
C25 O18 1.262 . S
C25 O26 1.232 . S
O26 C25 1.232 . S
C27 O19 1.260 . S
C27 O20 1.257 . S
Zn28 O31 2.031 1_565 S
Zn28 O33 2.049 . S
Zn28 O38 2.067 1_565 S
Zn29 O30 1.962 1_545 S
Zn29 O32 1.986 1_445 S
Zn29 O34 1.996 1_445 S
Zn29 O37 1.943 . S
O30 Zn29 1.962 1_565 S
O30 C35 1.254 . S
O31 Zn28 2.031 1_545 S
O31 C35 1.269 1_545 S
O32 Zn29 1.986 1_665 S
O32 C39 1.262 1_565 S
O33 Zn28 2.049 . S
O33 C41 1.260 1_455 S
O34 Zn29 1.996 1_665 S
O34 C41 1.257 . S
C35 O30 1.254 . S
C35 O31 1.269 1_565 S
C36 O37 1.249 . S
C36 O38 1.270 . S
O37 Zn29 1.943 . S
O37 C36 1.249 . S
O38 Zn28 2.067 1_545 S
O38 C36 1.270 . S
C39 O32 1.262 1_545 S
C39 O40 1.232 1_655 S
O40 C39 1.232 1_455 S
C41 O33 1.260 1_655 S
C41 O34 1.257 . S
H42 C61 0.949 . S
H43 C62 0.950 . S
H44 C64 0.950 1_655 S
H45 C65 0.950 1_655 S
H46 C67 0.950 . S
H47 C70 0.950 . S
H48 C71 0.950 . S
H49 C73 0.951 . S
H50 C74 0.949 . S
H51 C76 0.949 . S
H52 C77 0.950 . S
H53 C79 0.950 . S
H54 C80 0.950 . S
H55 C82 0.950 . S
H56 C85 0.950 1_655 S
H57 C86 0.950 1_655 S
H58 C88 0.951 . S
H59 C89 0.949 . S
C60 C61 1.376 . S
C60 C65 1.386 . S
C60 C66 1.483 . S
C61 H42 0.949 . S
C61 C60 1.376 . S
C61 C62 1.397 . S
C62 H43 0.950 . S
C62 C61 1.397 . S
C62 C63 1.391 . S
C63 C62 1.391 . S
C63 C64 1.405 . S
C64 H44 0.950 1_455 S
C64 C63 1.405 . S
C64 C65 1.367 . S
C65 H45 0.950 1_455 S
C65 C60 1.386 . S
C65 C64 1.367 . S
C66 C60 1.483 . S
C66 C67 1.382 . S
C66 C68 1.403 . S
C67 H46 0.950 . S
C67 C66 1.382 . S
C67 C83 1.411 . S
C68 C66 1.403 . S
C68 C69 1.489 . S
C68 C82 1.411 . S
C69 C68 1.489 . S
C69 C70 1.383 . S
C69 C74 1.382 1_455 S
C70 H47 0.950 . S
C70 C69 1.383 . S
C70 C71 1.395 . S
C71 H48 0.950 . S
C71 C70 1.395 . S
C71 C72 1.288 . S
C72 C71 1.288 . S
C72 C73 1.392 1_455 S
C73 H49 0.951 . S
C73 C72 1.392 1_655 S
C73 C74 1.392 . S
C74 H50 0.949 . S
C74 C69 1.382 1_655 S
C74 C73 1.392 . S
C75 C76 1.376 1_455 S
C75 C80 1.386 . S
C75 C81 1.483 . S
C76 H51 0.949 . S
C76 C75 1.376 1_655 S
C76 C77 1.397 . S
C77 H52 0.950 . S
C77 C76 1.397 . S
C77 C78 1.391 1_655 S
C78 C77 1.391 1_455 S
C78 C79 1.405 . S
C79 H53 0.950 . S
C79 C78 1.405 . S
C79 C80 1.367 . S
C80 H54 0.950 . S
C80 C75 1.386 . S
C80 C79 1.367 . S
C81 C75 1.483 . S
C81 C82 1.382 . S
C81 C83 1.403 . S
C82 H55 0.950 . S
C82 C68 1.411 . S
C82 C81 1.382 . S
C83 C67 1.411 . S
C83 C81 1.403 . S
C83 C84 1.489 . S
C84 C83 1.489 . S
C84 C85 1.383 . S
C84 C89 1.382 . S
C85 H56 0.950 1_455 S
C85 C84 1.383 . S
C85 C86 1.395 . S
C86 H57 0.950 1_455 S
C86 C85 1.395 . S
C86 C87 1.288 . S
C87 C86 1.288 . S
C87 C88 1.392 . S
C88 H58 0.951 . S
C88 C87 1.392 . S
C88 C89 1.392 . S
C89 H59 0.949 . S
C89 C84 1.382 . S
C89 C88 1.392 . S
H90 C109 0.949 . S
H91 C110 0.950 . S
H92 C112 0.950 . S
H93 C113 0.950 . S
H94 C115 0.950 . S
H95 C118 0.950 . S
H96 C119 0.950 . S
H97 C121 0.951 . S
H98 C122 0.949 . S
H99 C124 0.949 . S
H100 C125 0.950 . S
H101 C127 0.950 . S
H102 C128 0.950 . S
H103 C130 0.950 . S
H104 C133 0.950 1_565 S
H105 C134 0.950 1_565 S
H106 C136 0.951 . S
H107 C137 0.949 . S
C108 C109 1.376 . S
C108 C113 1.386 1_545 S
C108 C114 1.483 . S
C109 H90 0.949 . S
C109 C108 1.376 . S
C109 C110 1.397 . S
C110 H91 0.950 . S
C110 C109 1.397 . S
C110 C111 1.391 . S
C111 C110 1.391 . S
C111 C112 1.405 1_545 S
C112 H92 0.950 . S
C112 C111 1.405 1_565 S
C112 C113 1.367 . S
C113 H93 0.950 . S
C113 C108 1.386 1_565 S
C113 C112 1.367 . S
C114 C108 1.483 . S
C114 C115 1.382 . S
C114 C116 1.403 . S
C115 H94 0.950 . S
C115 C114 1.382 . S
C115 C131 1.411 . S
C116 C114 1.403 . S
C116 C117 1.489 . S
C116 C130 1.411 . S
C117 C116 1.489 . S
C117 C118 1.383 . S
C117 C122 1.382 1_545 S
C118 H95 0.950 . S
C118 C117 1.383 . S
C118 C119 1.395 . S
C119 H96 0.950 . S
C119 C118 1.395 . S
C119 C120 1.288 . S
C120 C119 1.288 . S
C120 C121 1.392 1_545 S
C121 H97 0.951 . S
C121 C120 1.392 1_565 S
C121 C122 1.392 . S
C122 H98 0.949 . S
C122 C117 1.382 1_565 S
C122 C121 1.392 . S
C123 C124 1.376 1_545 S
C123 C128 1.386 . S
C123 C129 1.483 . S
C124 H99 0.949 . S
C124 C123 1.376 1_565 S
C124 C125 1.397 . S
C125 H100 0.950 . S
C125 C124 1.397 . S
C125 C126 1.391 1_565 S
C126 C125 1.391 1_545 S
C126 C127 1.405 . S
C127 H101 0.950 . S
C127 C126 1.405 . S
C127 C128 1.367 . S
C128 H102 0.950 . S
C128 C123 1.386 . S
C128 C127 1.367 . S
C129 C123 1.483 . S
C129 C130 1.382 . S
C129 C131 1.403 . S
C130 H103 0.950 . S
C130 C116 1.411 . S
C130 C129 1.382 . S
C131 C115 1.411 . S
C131 C129 1.403 . S
C131 C132 1.489 . S
C132 C131 1.489 . S
C132 C133 1.383 . S
C132 C137 1.382 . S
C133 H104 0.950 1_545 S
C133 C132 1.383 . S
C133 C134 1.395 . S
C134 H105 0.950 1_545 S
C134 C133 1.395 . S
C134 C135 1.288 . S
C135 C134 1.288 . S
C135 C136 1.392 . S
C136 H106 0.951 . S
C136 C135 1.392 . S
C136 C137 1.392 . S
C137 H107 0.949 . S
C137 C132 1.382 . S
C137 C136 1.392 . S
H138 C157 0.949 . S
H139 C158 0.950 . S
H140 C160 0.950 . S
H141 C161 0.950 . S
H142 C163 0.950 . S
H143 C166 0.950 . S
H144 C167 0.950 . S
H145 C169 0.951 . S
H146 C170 0.949 . S
H147 C172 0.949 . S
H148 C173 0.950 . S
H149 C175 0.950 . S
H150 C176 0.950 . S
H151 C178 0.950 . S
H152 C181 0.950 . S
H153 C182 0.950 . S
H154 C184 0.951 . S
H155 C185 0.949 . S
C156 C157 1.376 . S
C156 C161 1.386 . S
C156 C162 1.483 . S
C157 H138 0.949 . S
C157 C156 1.376 . S
C157 C158 1.397 . S
C158 H139 0.950 . S
C158 C157 1.397 . S
C158 C159 1.391 . S
C159 C158 1.391 . S
C159 C160 1.405 . S
C160 H140 0.950 . S
C160 C159 1.405 . S
C160 C161 1.367 . S
C161 H141 0.950 . S
C161 C156 1.386 . S
C161 C160 1.367 . S
C162 C156 1.483 . S
C162 C163 1.382 . S
C162 C164 1.403 . S
C163 H142 0.950 . S
C163 C162 1.382 . S
C163 C179 1.411 . S
C164 C162 1.403 . S
C164 C165 1.489 . S
C164 C178 1.411 . S
C165 C164 1.489 . S
C165 C166 1.383 . S
C165 C170 1.382 . S
C166 H143 0.950 . S
C166 C165 1.383 . S
C166 C167 1.395 . S
C167 H144 0.950 . S
C167 C166 1.395 . S
C167 C168 1.288 . S
C168 C167 1.288 . S
C168 C169 1.392 . S
C169 H145 0.951 . S
C169 C168 1.392 . S
C169 C170 1.392 . S
C170 H146 0.949 . S
C170 C165 1.382 . S
C170 C169 1.392 . S
C171 C172 1.376 . S
C171 C176 1.386 . S
C171 C177 1.483 . S
C172 H147 0.949 . S
C172 C171 1.376 . S
C172 C173 1.397 . S
C173 H148 0.950 . S
C173 C172 1.397 . S
C173 C174 1.391 . S
C174 C173 1.391 . S
C174 C175 1.405 . S
C175 H149 0.950 . S
C175 C174 1.405 . S
C175 C176 1.367 . S
C176 H150 0.950 . S
C176 C171 1.386 . S
C176 C175 1.367 . S
C177 C171 1.483 . S
C177 C178 1.382 . S
C177 C179 1.403 . S
C178 H151 0.950 . S
C178 C164 1.411 . S
C178 C177 1.382 . S
C179 C163 1.411 . S
C179 C177 1.403 . S
C179 C180 1.489 . S
C180 C179 1.489 . S
C180 C181 1.383 . S
C180 C185 1.382 . S
C181 H152 0.950 . S
C181 C180 1.383 . S
C181 C182 1.395 . S
C182 H153 0.950 . S
C182 C181 1.395 . S
C182 C183 1.288 . S
C183 C182 1.288 . S
C183 C184 1.392 . S
C184 H154 0.951 . S
C184 C183 1.392 . S
C184 C185 1.392 . S
C185 H155 0.949 . S
C185 C180 1.382 . S
C185 C184 1.392 . S
H186 C187 0.951 . S
C187 H186 0.951 . S
C187 C193 1.265 . S
H188 C193 0.950 1_655 S
H189 C197 0.949 . S
H190 C198 0.950 . S
H191 C199 0.951 . S
H192 C200 0.951 . S
C193 C187 1.265 . S
C193 H188 0.950 1_455 S
C193 C194 1.478 . S
C194 C193 1.478 . S
C194 C195 1.397 . S
C194 C211 1.394 . S
C195 C194 1.397 . S
C195 C196 1.438 . S
C195 C200 1.429 . S
C196 C195 1.438 . S
C196 C197 1.428 . S
C196 C209 1.394 . S
C197 H189 0.949 . S
C197 C196 1.428 . S
C197 C198 1.345 . S
C198 H190 0.950 . S
C198 C197 1.345 . S
C198 C199 1.424 . S
C199 H191 0.951 . S
C199 C198 1.424 . S
C199 C200 1.347 . S
C200 H192 0.951 . S
C200 C195 1.429 . S
C200 C199 1.347 . S
H201 C202 0.951 . S
C202 H201 0.951 . S
C202 C208 1.265 . S
H203 C208 0.950 . S
H204 C212 0.949 . S
H205 C213 0.950 . S
H206 C214 0.951 . S
H207 C215 0.951 . S
C208 C202 1.265 . S
C208 H203 0.950 . S
C208 C209 1.478 . S
C209 C196 1.394 . S
C209 C208 1.478 . S
C209 C210 1.397 . S
C210 C209 1.397 . S
C210 C211 1.438 . S
C210 C215 1.429 . S
C211 C194 1.394 . S
C211 C210 1.438 . S
C211 C212 1.428 . S
C212 H204 0.949 . S
C212 C211 1.428 . S
C212 C213 1.345 . S
C213 H205 0.950 . S
C213 C212 1.345 . S
C213 C214 1.424 . S
C214 H206 0.951 . S
C214 C213 1.424 . S
C214 C215 1.347 . S
C215 H207 0.951 . S
C215 C210 1.429 . S
C215 C214 1.347 . S
H216 C217 0.951 . S
C217 H216 0.951 . S
C217 C223 1.265 . S
H218 C223 0.950 . S
H219 C227 0.949 . S
H220 C228 0.950 . S
H221 C229 0.951 . S
H222 C230 0.951 . S
C223 C217 1.265 . S
C223 H218 0.950 . S
C223 C224 1.478 . S
C224 C223 1.478 . S
C224 C225 1.397 1_545 S
C224 C241 1.394 . S
C225 C224 1.397 1_565 S
C225 C226 1.438 . S
C225 C230 1.429 . S
C226 C225 1.438 . S
C226 C227 1.428 . S
C226 C239 1.394 1_565 S
C227 H219 0.949 . S
C227 C226 1.428 . S
C227 C228 1.345 . S
C228 H220 0.950 . S
C228 C227 1.345 . S
C228 C229 1.424 . S
C229 H221 0.951 . S
C229 C228 1.424 . S
C229 C230 1.347 . S
C230 H222 0.951 . S
C230 C225 1.429 . S
C230 C229 1.347 . S
H231 C232 0.951 . S
C232 H231 0.951 . S
C232 C238 1.265 . S
H233 C238 0.950 . S
H234 C242 0.949 . S
H235 C243 0.950 . S
H236 C244 0.951 . S
H237 C245 0.951 . S
C238 C232 1.265 . S
C238 H233 0.950 . S
C238 C239 1.478 . S
C239 C226 1.394 1_545 S
C239 C238 1.478 . S
C239 C240 1.397 . S
C240 C239 1.397 . S
C240 C241 1.438 . S
C240 C245 1.429 . S
C241 C224 1.394 . S
C241 C240 1.438 . S
C241 C242 1.428 . S
C242 H234 0.949 . S
C242 C241 1.428 . S
C242 C243 1.345 . S
C243 H235 0.950 . S
C243 C242 1.345 . S
C243 C244 1.424 . S
C244 H236 0.951 . S
C244 C243 1.424 . S
C244 C245 1.347 . S
C245 H237 0.951 . S
C245 C240 1.429 . S
C245 C244 1.347 . S
H246 C247 0.951 . S
C247 H246 0.951 . S
C247 C253 1.265 . S
H248 C253 0.950 . S
H249 C257 0.949 . S
H250 C258 0.950 . S
H251 C259 0.951 . S
H252 C260 0.951 . S
C253 C247 1.265 . S
C253 H248 0.950 . S
C253 C254 1.478 . S
C254 C253 1.478 . S
C254 C255 1.397 . S
C254 C271 1.394 . S
C255 C254 1.397 . S
C255 C256 1.438 . S
C255 C260 1.429 . S
C256 C255 1.438 . S
C256 C257 1.428 . S
C256 C269 1.394 . S
C257 H249 0.949 . S
C257 C256 1.428 . S
C257 C258 1.345 . S
C258 H250 0.950 . S
C258 C257 1.345 . S
C258 C259 1.424 . S
C259 H251 0.951 . S
C259 C258 1.424 . S
C259 C260 1.347 . S
C260 H252 0.951 . S
C260 C255 1.429 . S
C260 C259 1.347 . S
H261 C262 0.951 . S
C262 H261 0.951 . S
C262 C268 1.265 . S
H263 C268 0.950 . S
H264 C272 0.949 . S
H265 C273 0.950 . S
H266 C274 0.951 . S
H267 C275 0.951 . S
C268 C262 1.265 . S
C268 H263 0.950 . S
C268 C269 1.478 . S
C269 C256 1.394 . S
C269 C268 1.478 . S
C269 C270 1.397 . S
C270 C269 1.397 . S
C270 C271 1.438 . S
C270 C275 1.429 . S
C271 C254 1.394 . S
C271 C270 1.438 . S
C271 C272 1.428 . S
C272 H264 0.949 . S
C272 C271 1.428 . S
C272 C273 1.345 . S
C273 H265 0.950 . S
C273 C272 1.345 . S
C273 C274 1.424 . S
C274 H266 0.951 . S
C274 C273 1.424 . S
C274 C275 1.347 . S
C275 H267 0.951 . S
C275 C270 1.429 . S
C275 C274 1.347 . S
H276 C277 0.951 . S
C277 H276 0.951 . S
C277 C283 1.265 . S
H278 C283 0.950 . S
H279 C287 0.949 . S
H280 C288 0.950 . S
H281 C289 0.951 . S
H282 C290 0.951 . S
C283 C277 1.265 . S
C283 H278 0.950 . S
C283 C284 1.478 . S
C284 C283 1.478 . S
C284 C285 1.397 . S
C284 C301 1.394 . S
C285 C284 1.397 . S
C285 C286 1.438 . S
C285 C290 1.429 1_455 S
C286 C285 1.438 . S
C286 C287 1.428 1_455 S
C286 C299 1.394 . S
C287 H279 0.949 . S
C287 C286 1.428 1_655 S
C287 C288 1.345 . S
C288 H280 0.950 . S
C288 C287 1.345 . S
C288 C289 1.424 . S
C289 H281 0.951 . S
C289 C288 1.424 . S
C289 C290 1.347 . S
C290 H282 0.951 . S
C290 C285 1.429 1_655 S
C290 C289 1.347 . S
H291 C292 0.951 . S
C292 H291 0.951 . S
C292 C298 1.265 . S
H293 C298 0.950 . S
H294 C302 0.949 . S
H295 C303 0.950 1_545 S
H296 C304 0.951 . S
H297 C305 0.951 . S
C298 C292 1.265 . S
C298 H293 0.950 . S
C298 C299 1.478 . S
C299 C286 1.394 . S
C299 C298 1.478 . S
C299 C300 1.397 . S
C300 C299 1.397 . S
C300 C301 1.438 . S
C300 C305 1.429 . S
C301 C284 1.394 . S
C301 C300 1.438 . S
C301 C302 1.428 . S
C302 H294 0.949 . S
C302 C301 1.428 . S
C302 C303 1.345 . S
C303 H295 0.950 1_565 S
C303 C302 1.345 . S
C303 C304 1.424 . S
C304 H296 0.951 . S
C304 C303 1.424 . S
C304 C305 1.347 . S
C305 H297 0.951 . S
C305 C300 1.429 . S
C305 C304 1.347 . S
H306 C307 0.951 . S
C307 H306 0.951 . S
C307 C313 1.265 . S
H308 C313 0.950 . S
H309 C317 0.949 . S
H310 C318 0.950 . S
H311 C319 0.951 . S
H312 C320 0.951 . S
C313 C307 1.265 . S
C313 H308 0.950 . S
C313 C314 1.478 . S
C314 C313 1.478 . S
C314 C315 1.397 . S
C314 C331 1.394 . S
C315 C314 1.397 . S
C315 C316 1.438 . S
C315 C320 1.429 . S
C316 C315 1.438 . S
C316 C317 1.428 . S
C316 C329 1.394 . S
C317 H309 0.949 . S
C317 C316 1.428 . S
C317 C318 1.345 . S
C318 H310 0.950 . S
C318 C317 1.345 . S
C318 C319 1.424 . S
C319 H311 0.951 . S
C319 C318 1.424 . S
C319 C320 1.347 . S
C320 H312 0.951 . S
C320 C315 1.429 . S
C320 C319 1.347 . S
H321 C322 0.951 . S
C322 H321 0.951 . S
C322 C328 1.265 . S
H323 C328 0.950 1_565 S
H324 C332 0.949 . S
H325 C333 0.950 . S
H326 C334 0.951 . S
H327 C335 0.951 . S
C328 C322 1.265 . S
C328 H323 0.950 1_545 S
C328 C329 1.478 . S
C329 C316 1.394 . S
C329 C328 1.478 . S
C329 C330 1.397 . S
C330 C329 1.397 . S
C330 C331 1.438 . S
C330 C335 1.429 . S
C331 C314 1.394 . S
C331 C330 1.438 . S
C331 C332 1.428 . S
C332 H324 0.949 . S
C332 C331 1.428 . S
C332 C333 1.345 . S
C333 H325 0.950 . S
C333 C332 1.345 . S
C333 C334 1.424 . S
C334 H326 0.951 . S
C334 C333 1.424 . S
C334 C335 1.347 . S
C335 H327 0.951 . S
C335 C330 1.429 . S
C335 C334 1.347 . S
H336 C337 0.951 . S
C337 H336 0.951 . S
C337 C343 1.265 . S
H338 C343 0.950 . S
H339 C347 0.949 . S
H340 C348 0.950 . S
H341 C349 0.951 . S
H342 C350 0.951 . S
C343 C337 1.265 . S
C343 H338 0.950 . S
C343 C344 1.478 . S
C344 C343 1.478 . S
C344 C345 1.397 . S
C344 C361 1.394 . S
C345 C344 1.397 . S
C345 C346 1.438 . S
C345 C350 1.429 . S
C346 C345 1.438 . S
C346 C347 1.428 . S
C346 C359 1.394 . S
C347 H339 0.949 . S
C347 C346 1.428 . S
C347 C348 1.345 . S
C348 H340 0.950 . S
C348 C347 1.345 . S
C348 C349 1.424 . S
C349 H341 0.951 . S
C349 C348 1.424 . S
C349 C350 1.347 . S
C350 H342 0.951 . S
C350 C345 1.429 . S
C350 C349 1.347 . S
H351 C352 0.951 . S
C352 H351 0.951 . S
C352 C358 1.265 . S
H353 C358 0.950 . S
H354 C362 0.949 . S
H355 C363 0.950 . S
H356 C364 0.951 . S
H357 C365 0.951 . S
C358 C352 1.265 . S
C358 H353 0.950 . S
C358 C359 1.478 . S
C359 C346 1.394 . S
C359 C358 1.478 . S
C359 C360 1.397 . S
C360 C359 1.397 . S
C360 C361 1.438 . S
C360 C365 1.429 . S
C361 C344 1.394 . S
C361 C360 1.438 . S
C361 C362 1.428 . S
C362 H354 0.949 . S
C362 C361 1.428 . S
C362 C363 1.345 . S
C363 H355 0.950 . S
C363 C362 1.345 . S
C363 C364 1.424 . S
C364 H356 0.951 . S
C364 C363 1.424 . S
C364 C365 1.347 . S
C365 H357 0.951 . S
C365 C360 1.429 . S
C365 C364 1.347 . S
H366 C367 0.951 . S
C367 H366 0.951 . S
C367 C373 1.265 . S
H368 C373 0.950 . S
H369 C377 0.949 . S
H370 C378 0.950 . S
H371 C379 0.951 . S
H372 C380 0.951 . S
C373 C367 1.265 . S
C373 H368 0.950 . S
C373 C374 1.478 . S
C374 C373 1.478 . S
C374 C375 1.397 1_545 S
C374 C391 1.394 . S
C375 C374 1.397 1_565 S
C375 C376 1.438 . S
C375 C380 1.429 . S
C376 C375 1.438 . S
C376 C377 1.428 . S
C376 C389 1.394 1_565 S
C377 H369 0.949 . S
C377 C376 1.428 . S
C377 C378 1.345 . S
C378 H370 0.950 . S
C378 C377 1.345 . S
C378 C379 1.424 . S
C379 H371 0.951 . S
C379 C378 1.424 . S
C379 C380 1.347 . S
C380 H372 0.951 . S
C380 C375 1.429 . S
C380 C379 1.347 . S
H381 C382 0.951 . S
C382 H381 0.951 . S
C382 C388 1.265 . S
H383 C388 0.950 . S
H384 C392 0.949 . S
H385 C393 0.950 . S
H386 C394 0.951 . S
H387 C395 0.951 . S
C388 C382 1.265 . S
C388 H383 0.950 . S
C388 C389 1.478 . S
C389 C376 1.394 1_545 S
C389 C388 1.478 . S
C389 C390 1.397 . S
C390 C389 1.397 . S
C390 C391 1.438 . S
C390 C395 1.429 . S
C391 C374 1.394 . S
C391 C390 1.438 . S
C391 C392 1.428 . S
C392 H384 0.949 . S
C392 C391 1.428 . S
C392 C393 1.345 . S
C393 H385 0.950 . S
C393 C392 1.345 . S
C393 C394 1.424 . S
C394 H386 0.951 . S
C394 C393 1.424 . S
C394 C395 1.347 . S
C395 H387 0.951 . S
C395 C390 1.429 . S
C395 C394 1.347 . S
H396 C397 0.951 . S
C397 H396 0.951 . S
C397 C403 1.265 1_554 S
H398 C403 0.950 . S
H399 C407 0.949 . S
H400 C408 0.950 . S
H401 C409 0.951 . S
H402 C410 0.932 1_554 S
C403 C397 1.265 1_556 S
C403 H398 0.950 . S
C403 C404 1.478 . S
C404 C403 1.478 . S
C404 C405 1.397 . S
C404 C421 1.394 . S
C405 C404 1.397 . S
C405 C406 1.438 . S
C405 C410 1.455 . S
C406 C405 1.438 . S
C406 C407 1.428 . S
C406 C419 1.394 . S
C407 H399 0.949 . S
C407 C406 1.428 . S
C407 C408 1.345 . S
C408 H400 0.950 . S
C408 C407 1.345 . S
C408 C409 1.424 1_556 S
C409 H401 0.951 . S
C409 C408 1.424 1_554 S
C409 C410 1.341 1_554 S
C410 H402 0.932 1_556 S
C410 C405 1.455 . S
C410 C409 1.341 1_556 S
H411 C412 0.951 . S
C412 H411 0.951 . S
C412 C418 1.265 . S
H413 C418 0.950 . S
H414 C422 0.949 . S
H415 C423 0.950 . S
H416 C424 0.951 . S
H417 C425 0.951 . S
C418 C412 1.265 . S
C418 H413 0.950 . S
C418 C419 1.478 . S
C419 C406 1.394 . S
C419 C418 1.478 . S
C419 C420 1.397 . S
C420 C419 1.397 . S
C420 C421 1.438 . S
C420 C425 1.429 . S
C421 C404 1.394 . S
C421 C420 1.438 . S
C421 C422 1.428 . S
C422 H414 0.949 . S
C422 C421 1.428 . S
C422 C423 1.345 . S
C423 H415 0.950 . S
C423 C422 1.345 . S
C423 C424 1.424 . S
C424 H416 0.951 . S
C424 C423 1.424 . S
C424 C425 1.347 . S
C425 H417 0.951 . S
C425 C420 1.429 . S
C425 C424 1.347 . S
H426 C427 0.951 1_655 S
C427 H426 0.951 1_455 S
C427 C433 1.265 . S
H428 C433 0.950 . S
H429 C437 0.949 . S
H430 C438 0.950 . S
H431 C439 0.951 . S
H432 C440 0.951 . S
C433 C427 1.265 . S
C433 H428 0.950 . S
C433 C434 1.478 . S
C434 C433 1.478 . S
C434 C435 1.397 . S
C434 C451 1.394 . S
C435 C434 1.397 . S
C435 C436 1.438 . S
C435 C440 1.429 . S
C436 C435 1.438 . S
C436 C437 1.428 . S
C436 C449 1.394 . S
C437 H429 0.949 . S
C437 C436 1.428 . S
C437 C438 1.345 . S
C438 H430 0.950 . S
C438 C437 1.345 . S
C438 C439 1.424 . S
C439 H431 0.951 . S
C439 C438 1.424 . S
C439 C440 1.347 . S
C440 H432 0.951 . S
C440 C435 1.429 . S
C440 C439 1.347 . S
H441 C442 0.951 . S
C442 H441 0.951 . S
C442 C448 1.265 . S
H443 C448 0.950 1_655 S
H444 C452 0.949 . S
H445 C453 0.950 . S
H446 C454 0.951 . S
H447 C455 0.951 . S
C448 C442 1.265 . S
C448 H443 0.950 1_455 S
C448 C449 1.478 . S
C449 C436 1.394 . S
C449 C448 1.478 . S
C449 C450 1.397 1_455 S
C450 C449 1.397 1_655 S
C450 C451 1.438 1_655 S
C450 C455 1.429 . S
C451 C434 1.394 . S
C451 C450 1.438 1_455 S
C451 C452 1.428 1_455 S
C452 H444 0.949 . S
C452 C451 1.428 1_655 S
C452 C453 1.345 . S
C453 H445 0.950 . S
C453 C452 1.345 . S
C453 C454 1.424 . S
C454 H446 0.951 . S
C454 C453 1.424 . S
C454 C455 1.347 . S
C455 H447 0.951 . S
C455 C450 1.429 . S
C455 C454 1.347 . S
H456 C457 0.951 1_545 S
C457 H456 0.951 1_565 S
C457 C463 1.265 . S
H458 C463 0.950 . S
H459 C467 0.949 . S
H460 C468 0.950 . S
H461 C469 0.951 . S
H462 C470 0.951 . S
C463 C457 1.265 . S
C463 H458 0.950 . S
C463 C464 1.478 1_565 S
C464 C463 1.478 1_545 S
C464 C465 1.397 . S
C464 C481 1.394 1_545 S
C465 C464 1.397 . S
C465 C466 1.438 . S
C465 C470 1.429 . S
C466 C465 1.438 . S
C466 C467 1.428 . S
C466 C479 1.394 . S
C467 H459 0.949 . S
C467 C466 1.428 . S
C467 C468 1.345 . S
C468 H460 0.950 . S
C468 C467 1.345 . S
C468 C469 1.424 . S
C469 H461 0.951 . S
C469 C468 1.424 . S
C469 C470 1.347 . S
C470 H462 0.951 . S
C470 C465 1.429 . S
C470 C469 1.347 . S
H471 C472 0.951 . S
C472 H471 0.951 . S
C472 C478 1.265 . S
H473 C478 0.950 . S
H474 C482 0.949 . S
H475 C483 0.950 . S
H476 C484 0.951 . S
H477 C485 0.951 . S
C478 C472 1.265 . S
C478 H473 0.950 . S
C478 C479 1.478 . S
C479 C466 1.394 . S
C479 C478 1.478 . S
C479 C480 1.397 1_545 S
C480 C479 1.397 1_565 S
C480 C481 1.438 . S
C480 C485 1.429 . S
C481 C464 1.394 1_565 S
C481 C480 1.438 . S
C481 C482 1.428 . S
C482 H474 0.949 . S
C482 C481 1.428 . S
C482 C483 1.345 . S
C483 H475 0.950 . S
C483 C482 1.345 . S
C483 C484 1.424 . S
C484 H476 0.951 . S
C484 C483 1.424 . S
C484 C485 1.347 . S
C485 H477 0.951 . S
C485 C480 1.429 . S
C485 C484 1.347 . S
H486 C487 0.951 1_556 S
C487 H486 0.951 1_554 S
C487 C493 1.272 . S
H488 C493 0.974 . S
H489 C497 0.949 . S
H490 C498 0.950 . S
H491 C499 0.951 . S
H492 C500 0.951 . S
C493 C487 1.272 . S
C493 H488 0.974 . S
C493 C494 1.450 1_554 S
C494 C493 1.450 1_556 S
C494 C495 1.397 . S
C494 C511 1.394 . S
C495 C494 1.397 . S
C495 C496 1.438 . S
C495 C500 1.429 1_556 S
C496 C495 1.438 . S
C496 C497 1.428 . S
C496 C509 1.394 . S
C497 H489 0.949 . S
C497 C496 1.428 . S
C497 C498 1.345 1_556 S
C498 H490 0.950 . S
C498 C497 1.345 1_554 S
C498 C499 1.424 . S
C499 H491 0.951 . S
C499 C498 1.424 . S
C499 C500 1.347 . S
C500 H492 0.951 . S
C500 C495 1.429 1_554 S
C500 C499 1.347 . S
H501 C502 0.951 . S
C502 H501 0.951 . S
C502 C508 1.265 . S
H503 C508 0.950 . S
H504 C512 0.949 . S
H505 C513 0.950 . S
H506 C514 0.951 . S
H507 C515 0.951 . S
C508 C502 1.265 . S
C508 H503 0.950 . S
C508 C509 1.478 . S
C509 C496 1.394 . S
C509 C508 1.478 . S
C509 C510 1.397 . S
C510 C509 1.397 . S
C510 C511 1.438 . S
C510 C515 1.429 . S
C511 C494 1.394 . S
C511 C510 1.438 . S
C511 C512 1.428 . S
C512 H504 0.949 . S
C512 C511 1.428 . S
C512 C513 1.345 . S
C513 H505 0.950 . S
C513 C512 1.345 . S
C513 C514 1.424 . S
C514 H506 0.951 . S
C514 C513 1.424 . S
C514 C515 1.347 . S
C515 H507 0.951 . S
C515 C510 1.429 . S
C515 C514 1.347 . S
H516 C517 0.951 . S
C517 H516 0.951 . S
C517 C523 1.265 . S
H518 C523 0.950 1_655 S
H519 C527 0.949 . S
H520 C528 0.950 . S
H521 C529 0.951 . S
H522 C530 0.951 . S
C523 C517 1.265 . S
C523 H518 0.950 1_455 S
C523 C524 1.478 . S
C524 C523 1.478 . S
C524 C525 1.397 1_455 S
C524 C541 1.394 . S
C525 C524 1.397 1_655 S
C525 C526 1.438 1_655 S
C525 C530 1.429 . S
C526 C525 1.438 1_455 S
C526 C527 1.428 1_455 S
C526 C539 1.394 . S
C527 H519 0.949 . S
C527 C526 1.428 1_655 S
C527 C528 1.345 . S
C528 H520 0.950 . S
C528 C527 1.345 . S
C528 C529 1.424 . S
C529 H521 0.951 . S
C529 C528 1.424 . S
C529 C530 1.347 . S
C530 H522 0.951 . S
C530 C525 1.429 . S
C530 C529 1.347 . S
H531 C532 0.951 . S
C532 H531 0.951 . S
C532 C538 1.265 . S
H533 C538 0.950 . S
H534 C542 0.949 . S
H535 C543 0.950 . S
H536 C544 0.951 . S
H537 C545 0.951 . S
C538 C532 1.265 . S
C538 H533 0.950 . S
C538 C539 1.478 . S
C539 C526 1.394 . S
C539 C538 1.478 . S
C539 C540 1.397 . S
C540 C539 1.397 . S
C540 C541 1.438 . S
C540 C545 1.429 . S
C541 C524 1.394 . S
C541 C540 1.438 . S
C541 C542 1.428 . S
C542 H534 0.949 . S
C542 C541 1.428 . S
C542 C543 1.345 . S
C543 H535 0.950 . S
C543 C542 1.345 . S
C543 C544 1.424 . S
C544 H536 0.951 . S
C544 C543 1.424 . S
C544 C545 1.347 . S
C545 H537 0.951 . S
C545 C540 1.429 . S
C545 C544 1.347 . S
C202 C63 1.334 . S
C187 C11 1.318 . S
C217 C25 1.372 . S
C232 C111 1.408 . S
C247 C41 1.415 . S
C262 C183 1.436 . S
C277 C7 1.347 . S
C292 C87 1.366 . S
C322 C135 1.391 . S
C307 C21 1.400 . S
C337 C36 1.442 . S
C352 C159 1.475 . S
C382 C120 1.400 . S
C367 C39 1.404 . S
C397 C8 1.451 1_655 S
C412 C174 1.467 . S
C442 C78 1.511 . S
C427 C22 1.486 . S
C472 C126 1.405 . S
C457 C35 1.391 . S
C502 C168 1.412 . S
C487 C13 1.326 . S
C517 C27 1.419 . S
C532 C72 1.477 . S
