# Generated by pormake.
# Topology zzz, (3,6)-cn, num edge types: 1
# Building blocks:
#     Node 0, Type 0, BuildingBlock: VETTIZ_charged_linker_0, # of connection points: 3
#     Node 1, Type 0, BuildingBlock: VETTIZ_charged_linker_0, # of connection points: 3
#     Node 2, Type 0, BuildingBlock: VETTIZ_charged_linker_0, # of connection points: 3
#     Node 3, Type 0, BuildingBlock: VETTIZ_charged_linker_0, # of connection points: 3
#     Node 4, Type 0, BuildingBlock: VETTIZ_charged_linker_0, # of connection points: 3
#     Node 5, Type 0, BuildingBlock: VETTIZ_charged_linker_0, # of connection points: 3
#     Node 6, Type 0, BuildingBlock: VETTIZ_charged_linker_0, # of connection points: 3
#     Node 7, Type 0, BuildingBlock: VETTIZ_charged_linker_0, # of connection points: 3
#     Node 8, Type 1, BuildingBlock: BETDIP_clean_sbu_0, # of connection points: 6
#     Node 9, Type 1, BuildingBlock: BETDIP_clean_sbu_0, # of connection points: 6
#     Node 10, Type 1, BuildingBlock: BETDIP_clean_sbu_0, # of connection points: 6
#     Node 11, Type 1, BuildingBlock: BETDIP_clean_sbu_0, # of connection points: 6
#     Edge 12, Type (0, 1), BuildingBlock: OJICUG_clean_linker_0, # of connection points: 2
#     Edge 13, Type (0, 1), BuildingBlock: OJICUG_clean_linker_0, # of connection points: 2
#     Edge 14, Type (0, 1), BuildingBlock: OJICUG_clean_linker_0, # of connection points: 2
#     Edge 15, Type (0, 1), BuildingBlock: OJICUG_clean_linker_0, # of connection points: 2
#     Edge 16, Type (0, 1), BuildingBlock: OJICUG_clean_linker_0, # of connection points: 2
#     Edge 17, Type (0, 1), BuildingBlock: OJICUG_clean_linker_0, # of connection points: 2
#     Edge 18, Type (0, 1), BuildingBlock: OJICUG_clean_linker_0, # of connection points: 2
#     Edge 19, Type (0, 1), BuildingBlock: OJICUG_clean_linker_0, # of connection points: 2
#     Edge 20, Type (0, 1), BuildingBlock: OJICUG_clean_linker_0, # of connection points: 2
#     Edge 21, Type (0, 1), BuildingBlock: OJICUG_clean_linker_0, # of connection points: 2
#     Edge 22, Type (0, 1), BuildingBlock: OJICUG_clean_linker_0, # of connection points: 2
#     Edge 23, Type (0, 1), BuildingBlock: OJICUG_clean_linker_0, # of connection points: 2
#     Edge 24, Type (0, 1), BuildingBlock: OJICUG_clean_linker_0, # of connection points: 2
#     Edge 25, Type (0, 1), BuildingBlock: OJICUG_clean_linker_0, # of connection points: 2
#     Edge 26, Type (0, 1), BuildingBlock: OJICUG_clean_linker_0, # of connection points: 2
#     Edge 27, Type (0, 1), BuildingBlock: OJICUG_clean_linker_0, # of connection points: 2
#     Edge 28, Type (0, 1), BuildingBlock: OJICUG_clean_linker_0, # of connection points: 2
#     Edge 29, Type (0, 1), BuildingBlock: OJICUG_clean_linker_0, # of connection points: 2
#     Edge 30, Type (0, 1), BuildingBlock: OJICUG_clean_linker_0, # of connection points: 2
#     Edge 31, Type (0, 1), BuildingBlock: OJICUG_clean_linker_0, # of connection points: 2
#     Edge 32, Type (0, 1), BuildingBlock: OJICUG_clean_linker_0, # of connection points: 2
#     Edge 33, Type (0, 1), BuildingBlock: OJICUG_clean_linker_0, # of connection points: 2
#     Edge 34, Type (0, 1), BuildingBlock: OJICUG_clean_linker_0, # of connection points: 2
#     Edge 35, Type (0, 1), BuildingBlock: OJICUG_clean_linker_0, # of connection points: 2
# Relax obj value: 0.508
# Max RMSD: 0.261
# Mean RMSD: 0.246
data_MOF--net-zzz--node1-BETDIP_clean_sbu_0--node2-VETTIZ_charged_linker_0--edge1-OJICUG_clean_linker_0
_symmetry_space_group_name_H-M    P1
_symmetry_Int_Tables_number       1
_symmetry_cell_setting            triclinic
loop_
_symmetry_equiv_pos_as_xyz
'x, y, z'
_cell_length_a     45.352738
_cell_length_b     45.307247
_cell_length_c     14.526488
_cell_angle_alpha  90.015411
_cell_angle_beta   89.712145
_cell_angle_gamma 90.038917
loop_
_atom_site_label
_atom_site_type_symbol
_atom_site_fract_x
_atom_site_fract_y
_atom_site_fract_z
_atom_type_partial_charge
C0 C 0.81825 0.51175 0.46507 0.0
C1 C 0.83226 0.49539 0.53792 0.0
C2 C 0.81674 0.4704 0.57208 0.0
C3 C 0.78383 0.47177 0.44356 0.0
C4 C 0.79254 0.49976 0.4217 0.0
C5 C 0.77148 0.51184 0.34753 0.0
H6 H 0.66034 0.46968 0.04031 0.0
C7 C 0.76353 0.46069 0.37495 0.0
C8 C 0.75136 0.48472 0.32746 0.0
H9 H 0.66175 0.5548 0.17285 0.0
H10 H 0.70388 0.53868 0.26809 0.0
H11 H 0.72324 0.4643 1.00141 0.0
H12 H 0.67046 0.43009 0.21773 0.0
H13 H 0.69442 0.40179 0.17911 0.0
H14 H 0.67031 0.41954 0.09834 0.0
H15 H 0.71291 0.42644 1.00017 0.0
H16 H 0.74751 0.43831 0.04926 0.0
C17 C 0.78909 0.5207 0.26112 0.0
C18 C 0.75439 0.53831 0.38704 0.0
C19 C 0.80643 0.37397 0.20896 0.0
C20 C 0.80168 0.36512 0.11738 0.0
C21 C 0.77341 0.369 0.07962 0.0
C22 C 0.75227 0.38607 0.12595 0.0
C23 C 0.76 0.40017 0.20854 0.0
C24 C 0.78576 0.39235 0.2525 0.0
C25 C 0.79106 0.41062 0.3376 0.0
C26 C 0.76558 0.43282 0.33107 0.0
C27 C 0.7483 0.42702 0.25353 0.0
C28 C 0.82181 0.42554 0.33076 0.0
C29 C 0.78872 0.39027 0.4224 0.0
C30 C 0.66969 0.4852 0.08888 0.0
C31 C 0.65744 0.51345 0.09859 0.0
C32 C 0.67086 0.53296 0.16259 0.0
C33 C 0.6955 0.52395 0.21653 0.0
C34 C 0.7077 0.49565 0.20381 0.0
C35 C 0.69422 0.47683 0.1414 0.0
C36 C 0.70838 0.44703 0.13833 0.0
C37 C 0.73011 0.44959 0.21695 0.0
C38 C 0.73127 0.47855 0.25295 0.0
C39 C 0.72375 0.44363 0.04276 0.0
C40 C 0.6847 0.4232 0.15894 0.0
H41 H 0.78178 0.43901 0.5506 0.0
H42 H 0.82737 0.53241 0.44085 0.0
H43 H 0.73669 0.53085 0.43487 0.0
H44 H 0.74467 0.55182 0.33154 0.0
H45 H 0.76942 0.55322 0.42546 0.0
H46 H 0.80224 0.50171 0.23511 0.0
H47 H 0.80439 0.53918 0.27667 0.0
H48 H 0.77392 0.52786 0.20558 0.0
H49 H 0.82762 0.37032 0.24072 0.0
H50 H 0.76871 0.36136 1.01055 0.0
H51 H 0.73153 0.38944 0.09263 0.0
H52 H 0.82294 0.44045 0.27006 0.0
H53 H 0.83974 0.40902 0.32487 0.0
H54 H 0.82735 0.4384 0.39275 0.0
H55 H 0.80027 0.369 0.40964 0.0
H56 H 0.7653 0.38527 0.43931 0.0
H57 H 0.79953 0.39996 0.48329 0.0
H58 H 0.82344 0.45928 0.63438 0.0
C59 C 0.79286 0.45841 0.52464 0.0
C60 C 0.06512 0.79179 0.94658 0.0
C61 C 0.0501 0.81454 0.89971 0.0
C62 C 0.01978 0.81891 0.92029 0.0
C63 C 0.02583 0.79075 0.05812 0.0
C64 C 0.05175 0.77935 0.0244 0.0
C65 C 0.06158 0.75303 0.07961 0.0
H66 H 0.97786 0.6584 0.2463 0.0
C67 C 0.02012 0.77823 0.148 0.0
C68 C 0.03946 0.75449 0.15965 0.0
H69 H 0.0638 0.64448 0.12077 0.0
H70 H 0.07942 0.69315 0.1752 0.0
H71 H 0.016 0.70469 0.4486 0.0
H72 H 0.96495 0.72963 0.20741 0.0
H73 H 0.95296 0.74164 0.31987 0.0
H74 H 0.94976 0.70344 0.28823 0.0
H75 H 0.9802 0.68844 0.43037 0.0
H76 H 0.98324 0.72677 0.46263 0.0
C77 C 0.09341 0.75736 0.11334 0.0
C78 C 0.05829 0.72533 0.01768 0.0
C79 C 1.00107 0.85021 0.40089 0.0
C80 C 1.0076 0.84859 0.49561 0.0
C81 C 1.01302 0.82008 0.53312 0.0
C82 C 1.01143 0.79413 0.47759 0.0
C83 C 1.00475 0.79665 0.38347 0.0
C84 C 1.00066 0.82448 0.34613 0.0
C85 C 0.99871 0.82331 0.24261 0.0
C86 C 1.0057 0.79071 0.22515 0.0
C87 C 1.00544 0.7745 0.30721 0.0
C88 C 0.02153 0.84473 0.19962 0.0
C89 C 0.96701 0.83126 0.21436 0.0
C90 C 1.0001 0.66557 0.23088 0.0
C91 C 0.01901 0.64781 0.1744 0.0
C92 C 0.04834 0.65757 0.16052 0.0
C93 C 0.05728 0.68567 0.18936 0.0
C94 C 0.03676 0.7042 0.23132 0.0
C95 C 1.01036 0.69348 0.26301 0.0
C96 C 0.99499 0.71761 0.31929 0.0
C97 C 0.01557 0.74454 0.30604 0.0
C98 C 0.03673 0.73637 0.23889 0.0
C99 C 0.99352 0.70885 0.4213 0.0
C100 C 0.96382 0.72341 0.28139 0.0
H101 H 0.98512 0.81207 0.01941 0.0
H102 H 0.08735 0.78539 0.92847 0.0
H103 H 0.03595 0.71544 0.02462 0.0
H104 H 0.07524 0.70846 0.03228 0.0
H105 H 0.06164 0.73065 0.94364 0.0
H106 H 0.09574 0.77889 0.1494 0.0
H107 H 0.1092 0.75686 0.05463 0.0
H108 H 0.09966 0.7397 0.16229 0.0
H109 H 0.99746 0.87149 0.36909 0.0
H110 H 0.0184 0.81789 0.60533 0.0
H111 H 0.01608 0.77274 0.50726 0.0
H112 H 0.04438 0.83721 0.21401 0.0
H113 H 0.01897 0.86743 0.22713 0.0
H114 H 0.01873 0.84687 0.12449 0.0
H115 H 0.96118 0.85374 0.23908 0.0
H116 H 0.95093 0.81535 0.24431 0.0
H117 H 0.96432 0.83119 0.13895 0.0
H118 H 1.00634 0.83351 0.87909 0.0
C119 C 1.00767 0.80743 1.00136 0.0
C120 C 0.86496 1.01255 0.19668 0.0
C121 C 0.88552 0.03086 0.14791 0.0
C122 C 0.87819 0.06093 0.13602 0.0
C123 C 0.82919 0.05213 0.1948 0.0
C124 C 0.83708 0.02441 0.2237 0.0
C125 C 0.81098 1.01031 0.27479 0.0
H126 H 0.65912 0.01977 0.33351 0.0
C127 C 0.79717 0.05547 0.20257 0.0
C128 C 0.78638 0.03358 0.26316 0.0
H129 H 0.71573 0.01946 0.57126 0.0
H130 H 0.75964 0.02299 0.46817 0.0
H131 H 0.69452 0.0755 0.21101 0.0
H132 H 0.67168 0.99634 0.16362 0.0
H133 H 0.70673 0.97986 0.18972 0.0
H134 H 0.7022 0.99855 0.08436 0.0
H135 H 0.66291 0.05165 0.21583 0.0
H136 H 0.68062 0.05715 0.11035 0.0
C137 C 0.81855 1.0058 0.3767 0.0
C138 C 0.80259 0.98077 0.22931 0.0
C139 C 0.74777 0.10468 0.92736 0.0
C140 C 0.72203 0.09707 0.87917 0.0
C141 C 0.7074 0.07042 0.90123 0.0
C142 C 0.71608 0.05366 0.97681 0.0
C143 C 0.73897 0.06397 0.03188 0.0
C144 C 0.75645 0.08695 1.00174 0.0
C145 C 0.78453 0.08903 0.05631 0.0
C146 C 0.77882 0.0654 0.12992 0.0
C147 C 0.7512 0.05222 0.1171 0.0
C148 C 0.78691 0.12003 0.09942 0.0
C149 C 0.81071 0.08179 0.99077 0.0
C150 C 0.68077 0.01984 0.36443 0.0
C151 C 0.68351 0.01871 0.46095 0.0
C152 C 0.71258 0.01981 0.49745 0.0
C153 C 0.73789 0.02132 0.43859 0.0
C154 C 0.73419 0.02194 0.3424 0.0
C155 C 0.70583 0.02253 0.30749 0.0
C156 C 0.70566 0.0282 0.20535 0.0
C157 C 0.73821 0.03503 0.18807 0.0
C158 C 0.7553 0.02779 0.26497 0.0
C159 C 0.68502 0.05458 0.18427 0.0
C160 C 0.69594 0.99934 0.15764 0.0
H161 H 0.84532 0.09456 0.1494 0.0
H162 H 0.87018 0.9897 0.2109 0.0
H163 H 0.79739 0.98408 0.1553 0.0
H164 H 0.78292 0.97103 0.26366 0.0
H165 H 0.82098 0.96467 0.23445 0.0
H166 H 0.82317 0.02731 0.41058 0.0
H167 H 0.83836 0.99155 0.3836 0.0
H168 H 0.8 0.9949 0.41347 0.0
H169 H 0.76012 0.12434 0.90944 0.0
H170 H 0.68778 0.06364 0.86461 0.0
H171 H 0.70413 0.03388 0.99209 0.0
H172 H 0.76602 0.12605 0.1352 0.0
H173 H 0.79147 0.13689 0.04567 0.0
H174 H 0.80469 0.12108 0.15117 0.0
H175 H 0.80556 0.08689 0.91774 0.0
H176 H 0.81659 0.058 0.99376 0.0
H177 H 0.83043 0.09532 1.0057 0.0
H178 H 0.89334 0.07595 0.10223 0.0
C179 C 0.85028 0.07162 0.1602 0.0
C180 C 0.50962 0.71704 0.44538 0.0
C181 C 0.49313 0.69662 0.50108 0.0
C182 C 0.46253 0.70144 0.5108 0.0
C183 C 0.46402 0.73933 0.39465 0.0
C184 C 0.49425 0.7394 0.39513 0.0
C185 C 0.50529 0.76641 0.3403 0.0
H186 H 0.46087 0.8771 0.0337 0.0
C187 C 0.45326 0.75995 0.32537 0.0
C188 C 0.4766 0.77816 0.29595 0.0
H189 H 0.54668 0.87235 0.15865 0.0
H190 H 0.53201 0.8267 0.23954 0.0
H191 H 0.46354 0.81539 0.97634 0.0
H192 H 0.41736 0.85632 0.1982 0.0
H193 H 0.39312 0.83189 0.1405 0.0
H194 H 0.41076 0.8611 0.07714 0.0
H195 H 0.42552 0.82446 0.96501 0.0
H196 H 0.43722 0.78854 1.00505 0.0
C197 C 0.52795 0.7569 0.26719 0.0
C198 C 0.51822 0.78874 0.40901 0.0
C199 C 0.37131 0.71965 0.1324 0.0
C200 C 0.36344 0.72675 0.04168 0.0
C201 C 0.36808 0.75582 1.01048 0.0
C202 C 0.38409 0.77596 0.06419 0.0
C203 C 0.39683 0.76632 0.14708 0.0
C204 C 0.38903 0.73912 0.18233 0.0
C205 C 0.40596 0.73133 0.26765 0.0
C206 C 0.42709 0.75764 0.2732 0.0
C207 C 0.42196 0.77761 0.2016 0.0
C208 C 0.42254 0.70182 0.2511 0.0
C209 C 0.38395 0.72949 0.3495 0.0
C210 C 0.47633 0.86706 0.08092 0.0
C211 C 0.50449 0.87928 0.09208 0.0
C212 C 0.5245 0.86397 0.15001 0.0
C213 C 0.51595 0.83775 0.19777 0.0
C214 C 0.48722 0.82635 0.18674 0.0
C215 C 0.46843 0.84092 0.12685 0.0
C216 C 0.44055 0.82417 0.11032 0.0
C217 C 0.44329 0.79959 0.18043 0.0
C218 C 0.47092 0.80005 0.22552 0.0
C219 C 0.4415 0.81259 1.00928 0.0
C220 C 0.41391 0.84439 0.13217 0.0
H221 H 0.42517 0.72699 0.47178 0.0
H222 H 0.53341 0.71562 0.44158 0.0
H223 H 0.50188 0.79393 0.464 0.0
H224 H 0.52426 0.80975 0.37564 0.0
H225 H 0.53825 0.77956 0.44217 0.0
H226 H 0.51832 0.7399 0.22103 0.0
H227 H 0.54787 0.74744 0.3002 0.0
H228 H 0.5349 0.7759 0.22425 0.0
H229 H 0.36754 0.69765 0.15889 0.0
H230 H 0.36158 0.76211 0.94156 0.0
H231 H 0.38762 0.79757 0.03637 0.0
H232 H 0.43697 0.70341 0.18917 0.0
H233 H 0.40692 0.68325 0.24112 0.0
H234 H 0.43643 0.69535 0.30973 0.0
H235 H 0.36072 0.72707 0.32639 0.0
H236 H 0.38488 0.74966 0.39292 0.0
H237 H 0.38813 0.7098 0.39296 0.0
H238 H 0.4493 0.68764 0.55581 0.0
C239 C 0.44818 0.72313 0.45976 0.0
C240 C 0.35674 0.52006 0.3286 0.0
C241 C 0.37705 0.53799 0.37914 0.0
C242 C 0.3701 0.56814 0.39098 0.0
C243 C 0.32163 0.56027 0.32819 0.0
C244 C 0.32937 0.53244 0.29944 0.0
C245 C 0.30386 0.519 0.2444 0.0
H246 H 0.15338 0.52651 0.16905 0.0
C247 C 0.28988 0.56446 0.31574 0.0
C248 C 0.27956 0.54271 0.25398 0.0
H249 H 0.21328 0.52081 0.93845 0.0
H250 H 0.25567 0.52789 0.0446 0.0
H251 H 0.18378 0.49399 0.31926 0.0
H252 H 0.18623 0.58564 0.2514 0.0
H253 H 0.17651 0.57895 0.36854 0.0
H254 H 0.15473 0.56325 0.28064 0.0
H255 H 0.16346 0.52011 0.38616 0.0
H256 H 0.20075 0.51026 0.41629 0.0
C257 C 0.2941 0.48954 0.28777 0.0
C258 C 0.31317 0.51463 0.14357 0.0
C259 C 0.23738 0.61477 0.58607 0.0
C260 C 0.21017 0.60826 0.6282 0.0
C261 C 0.19348 0.58404 0.59635 0.0
C262 C 0.2024 0.56815 0.51917 0.0
C263 C 0.22793 0.57678 0.47247 0.0
C264 C 0.24639 0.59774 0.50997 0.0
C265 C 0.2757 0.59865 0.46047 0.0
C266 C 0.2703 0.57613 0.38329 0.0
C267 C 0.24158 0.56501 0.38904 0.0
C268 C 0.30003 0.5893 0.52938 0.0
C269 C 0.2806 0.62992 0.42138 0.0
C270 C 0.1755 0.52574 0.14075 0.0
C271 C 0.17967 0.52219 0.04545 0.0
C272 C 0.20917 0.5228 1.01166 0.0
C273 C 0.23363 0.52618 0.07256 0.0
C274 C 0.22861 0.5291 0.16798 0.0
C275 C 0.19968 0.53027 0.19927 0.0
C276 C 0.19755 0.54074 0.29729 0.0
C277 C 0.22973 0.54786 0.31683 0.0
C278 C 0.24828 0.53847 0.24529 0.0
C279 C 0.18573 0.51508 0.35803 0.0
C280 C 0.17776 0.56864 0.30006 0.0
H281 H 0.33805 0.60234 0.37568 0.0
H282 H 0.3618 0.49718 0.31421 0.0
H283 H 0.31799 0.53621 0.11028 0.0
H284 H 0.29552 0.50332 0.10445 0.0
H285 H 0.3333 0.50071 0.13927 0.0
H286 H 0.2878 0.49275 0.36117 0.0
H287 H 0.3122 0.47305 0.28436 0.0
H288 H 0.27478 0.48037 0.2507 0.0
H289 H 0.25091 0.63277 0.61081 0.0
H290 H 0.17245 0.57852 0.62776 0.0
H291 H 0.18872 0.55034 0.49655 0.0
H292 H 0.30432 0.56517 0.52579 0.0
H293 H 0.29386 0.59439 0.6018 0.0
H294 H 0.32088 0.60149 0.51821 0.0
H295 H 0.26072 0.63757 0.38374 0.0
H296 H 0.29921 0.63055 0.37195 0.0
H297 H 0.2852 0.64587 0.47764 0.0
H298 H 0.38523 0.58284 0.42579 0.0
C299 C 0.34266 0.57932 0.3649 0.0
C300 C 0.95916 0.24732 0.58988 0.0
C301 C 0.97508 0.22607 0.6406 0.0
C302 C 1.00585 0.22361 0.62397 0.0
C303 C 0.99965 0.25001 0.48302 0.0
C304 C 0.9727 0.26002 0.5127 0.0
C305 C 0.96236 0.2857 0.4553 0.0
H306 H 0.04614 0.38223 0.31085 0.0
C307 C 1.00597 0.26251 0.39374 0.0
C308 C 0.98572 0.28522 0.37851 0.0
H309 H 0.95728 0.39369 0.41724 0.0
H310 H 0.94384 0.34521 0.35507 0.0
H311 H 0.05987 0.31179 0.34565 0.0
H312 H 1.01308 0.33674 0.0961 0.0
H313 H 0.04653 0.31545 0.08733 0.0
H314 H 0.04805 0.35367 0.12202 0.0
H315 H 0.07593 0.33874 0.26897 0.0
H316 H 0.07438 0.30063 0.23519 0.0
C317 C 0.96324 0.31363 0.51698 0.0
C318 C 0.93135 0.27972 0.417 0.0
C319 C 0.03106 0.19076 0.14576 0.0
C320 C 0.02605 0.19203 0.05004 0.0
C321 C 0.02042 0.22032 1.01116 0.0
C322 C 0.02027 0.24639 0.06637 0.0
C323 C 0.02544 0.24421 0.16148 0.0
C324 C 0.02985 0.21659 0.19998 0.0
C325 C 0.0302 0.21802 0.30366 0.0
C326 C 0.022 0.25042 0.31928 0.0
C327 C 0.02289 0.26646 0.23703 0.0
C328 C 0.06161 0.21106 0.33696 0.0
C329 C 1.00739 0.19604 0.34384 0.0
C330 C 0.0237 0.37464 0.32009 0.0
C331 C 1.00326 0.39148 0.37404 0.0
C332 C 0.97381 0.38125 0.37975 0.0
C333 C 0.96606 0.35331 0.34625 0.0
C334 C 0.98785 0.33552 0.30762 0.0
C335 C 0.01467 0.34697 0.2828 0.0
C336 C 0.03179 0.32356 0.22862 0.0
C337 C 1.01169 0.29605 0.23627 0.0
C338 C 0.98897 0.30339 0.29945 0.0
C339 C 0.06229 0.31838 0.27227 0.0
C340 C 0.03506 0.33292 0.12751 0.0
H341 H 0.0412 0.23189 0.52823 0.0
H342 H 0.93638 0.25246 0.60502 0.0
H343 H 0.93073 0.25818 0.38031 0.0
H344 H 0.92492 0.29719 0.36753 0.0
H345 H 0.91473 0.27923 0.47343 0.0
H346 H 0.98525 0.32442 0.51414 0.0
H347 H 0.95863 0.30832 0.59038 0.0
H348 H 0.94592 0.32972 0.49866 0.0
H349 H 0.03471 0.16966 0.17863 0.0
H350 H 0.01621 0.22227 0.93812 0.0
H351 H 0.0155 0.26759 0.03557 0.0
H352 H 0.06864 0.18888 0.31262 0.0
H353 H 0.06296 0.2109 0.41277 0.0
H354 H 0.07762 0.22761 0.31023 0.0
H355 H 0.9846 0.20267 0.32505 0.0
H356 H 1.00889 0.19446 0.41955 0.0
H357 H 1.01124 0.17331 0.31808 0.0
H358 H 0.01978 0.21049 0.66832 0.0
C359 C 0.01814 0.23504 0.54317 0.0
C360 C 0.31994 0.01641 0.04901 0.0
C361 C 0.34177 0.9998 0.99942 0.0
C362 C 0.33972 0.9688 1.00157 0.0
C363 C 0.30048 0.97102 0.11443 0.0
C364 C 0.29852 1.00112 0.10412 0.0
C365 C 0.27081 1.01231 0.15498 0.0
H366 H 0.15956 0.97252 0.46716 0.0
C367 C 0.27933 0.96107 0.18475 0.0
C368 C 0.26009 0.98446 0.20697 0.0
H369 H 0.16342 0.05548 0.32274 0.0
H370 H 0.20973 0.04001 0.24708 0.0
H371 H 0.18029 0.92717 0.31171 0.0
H372 H 0.22238 0.9769 0.52356 0.0
H373 H 0.24722 0.94799 0.50388 0.0
H374 H 0.2103 0.93998 0.54432 0.0
H375 H 0.17596 0.92154 0.43352 0.0
H376 H 0.2049 0.90348 0.36999 0.0
C377 C 0.24828 0.02231 0.08253 0.0
C378 C 0.27902 0.03728 0.22169 0.0
C379 C 0.31375 0.87687 0.38241 0.0
C380 C 0.30585 0.86937 0.47308 0.0
C381 C 0.27721 0.87627 0.5042 0.0
C382 C 0.25857 0.89394 0.45056 0.0
C383 C 0.26922 0.90582 0.36712 0.0
C384 C 0.29585 0.89611 0.3324 0.0
C385 C 0.30497 0.91227 0.24646 0.0
C386 C 0.2804 0.93529 0.24003 0.0
C387 C 0.25968 0.93131 0.3106 0.0
C388 C 0.30489 0.88993 0.1653 0.0
C389 C 0.33561 0.92658 0.26309 0.0
C390 C 0.16958 0.98716 0.417 0.0
C391 C 0.15689 1.01473 0.39886 0.0
C392 C 0.17217 0.03374 0.337 0.0
C393 C 0.19884 0.0247 0.29237 0.0
C394 C 0.2107 0.99649 0.31042 0.0
C395 C 0.19603 0.97877 0.37378 0.0
C396 C 0.21266 0.95127 0.39576 0.0
C397 C 0.23766 0.95297 0.32661 0.0
C398 C 0.23744 0.97974 0.2763 0.0
C399 C 0.19246 0.92431 0.37743 0.0
C400 C 0.22364 0.9539 0.4969 0.0
H401 H 0.31814 0.93102 0.05442 0.0
H402 H 0.31951 0.04024 0.04433 0.0
H403 H 0.29632 0.02975 0.27027 0.0
H404 H 0.25968 0.04442 0.26277 0.0
H405 H 0.28761 0.05672 0.18339 0.0
H406 H 0.24434 1.00443 0.03156 0.0
H407 H 0.25655 0.04201 0.04481 0.0
H408 H 0.22677 0.02787 0.11365 0.0
H409 H 0.33543 0.8715 0.35588 0.0
H410 H 0.2703 0.87023 0.57317 0.0
H411 H 0.23741 0.89927 0.47907 0.0
H412 H 0.29969 0.86701 0.18761 0.0
H413 H 0.32682 0.88872 0.1311 0.0
H414 H 0.28801 0.89575 0.1132 0.0
H415 H 0.3352 0.94032 0.32658 0.0
H416 H 0.34299 0.94087 0.20633 0.0
H417 H 0.35299 0.90954 0.27078 0.0
H418 H 0.35498 0.95534 0.96217 0.0
C419 C 0.31894 0.95454 0.05683 0.0
C420 C 0.52153 0.32835 0.02441 0.0
C421 C 0.53863 0.34791 0.96739 0.0
C422 C 0.56903 0.34201 0.95768 0.0
C423 C 0.56643 0.30497 0.07628 0.0
C424 C 0.53622 0.30582 0.07594 0.0
C425 C 0.52443 0.27941 0.13213 0.0
H426 H 0.56579 0.16977 0.44712 0.0
C427 C 0.57659 0.28457 0.14708 0.0
C428 C 0.55275 0.26721 0.17765 0.0
H429 H 0.48099 0.17445 0.31551 0.0
H430 H 0.49646 0.21979 0.23448 0.0
H431 H 0.6101 0.18869 0.28391 0.0
H432 H 0.5639 0.23307 0.49964 0.0
H433 H 0.5917 0.25838 0.47057 0.0
H434 H 0.60141 0.22233 0.51428 0.0
H435 H 0.61622 0.18487 0.40555 0.0
H436 H 0.63464 0.21315 0.34027 0.0
C437 C 0.51108 0.25705 0.06431 0.0
C438 C 0.50186 0.28981 0.20431 0.0
C439 C 0.66065 0.3239 0.33383 0.0
C440 C 0.66874 0.31761 0.42492 0.0
C441 C 0.66278 0.28921 0.46006 0.0
C442 C 0.64532 0.26928 0.41009 0.0
C443 C 0.63277 0.27836 0.32631 0.0
C444 C 0.64171 0.3047 0.28739 0.0
C445 C 0.62489 0.31219 0.2017 0.0
C446 C 0.60276 0.28665 0.19937 0.0
C447 C 0.60718 0.26736 0.27323 0.0
C448 C 0.64676 0.31236 0.11928 0.0
C449 C 0.60948 0.34247 0.2157 0.0
C450 C 0.55071 0.17976 0.39865 0.0
C451 C 0.5226 0.16754 0.38558 0.0
C452 C 0.50311 0.18279 0.32575 0.0
C453 C 0.51214 0.20881 0.27777 0.0
C454 C 0.54087 0.22007 0.29018 0.0
C455 C 0.55913 0.20566 0.35207 0.0
C456 C 0.58728 0.22205 0.36817 0.0
C457 C 0.58527 0.24609 0.29596 0.0
C458 C 0.55777 0.2458 0.25008 0.0
C459 C 0.61359 0.20114 0.34899 0.0
C460 C 0.58627 0.23455 0.46806 0.0
H461 H 0.60556 0.31552 0.99791 0.0
H462 H 0.4978 0.33056 0.0283 0.0
H463 H 0.51183 0.30676 0.24997 0.0
H464 H 0.49434 0.27116 0.24783 0.0
H465 H 0.48227 0.29963 0.17046 0.0
H466 H 0.52742 0.2511 1.01005 0.0
H467 H 0.4914 0.26658 0.0301 0.0
H468 H 0.50437 0.23641 0.09859 0.0
H469 H 0.66535 0.34529 0.30408 0.0
H470 H 0.66941 0.28345 0.5293 0.0
H471 H 0.64068 0.24834 0.44126 0.0
H472 H 0.64348 0.33195 0.07462 0.0
H473 H 0.64469 0.29198 0.07724 0.0
H474 H 0.67015 0.31372 0.14162 0.0
H475 H 0.59518 0.34206 0.27811 0.0
H476 H 0.59566 0.34887 0.15685 0.0
H477 H 0.62583 0.36052 0.22347 0.0
H478 H 0.58269 0.35509 0.91187 0.0
C479 C 0.58271 0.32018 1.00992 0.0
Tb480 Tb 0.04444 1.01388 0.81728 0.0
Tb481 Tb 0.99502 0.02648 0.72694 0.0
C482 C 0.08819 0.99246 0.89976 0.0
C483 C 0.10882 0.96976 0.86771 0.0
C484 C 0.12266 0.95136 0.93161 0.0
C485 C 0.13129 0.92299 0.90497 0.0
C486 C 0.12377 0.91263 0.81682 0.0
C487 C 0.11737 0.93343 0.74823 0.0
C488 C 0.10901 0.9619 0.77409 0.0
C489 C 0.05849 0.03607 0.65157 0.0
C490 C 0.01667 0.96365 0.68711 0.0
C491 C 0.95084 0.04699 0.64429 0.0
C492 C 0.92874 0.06824 0.67648 0.0
C493 C 0.91319 0.08529 0.61277 0.0
C494 C 0.90174 0.11261 0.63982 0.0
C495 C 0.90824 0.12357 0.72807 0.0
C496 C 0.91655 0.10336 0.79644 0.0
C497 C 0.92778 0.07592 0.77018 0.0
C498 C 0.98131 1.00444 0.89335 0.0
C499 C 0.02241 0.07692 0.85653 0.0
O500 O 0.06113 0.98321 0.91211 0.0
O501 O 0.08899 0.01716 0.85423 0.0
O502 O 0.03841 0.01736 0.66913 0.0
O503 O 0.06822 0.04515 0.7296 0.0
O504 O 0.03264 0.96893 0.76183 0.0
O505 O 1.00284 0.98604 0.64946 0.0
O506 O 0.97752 0.05764 0.63505 0.0
O507 O 0.95085 0.02185 0.68744 0.0
O508 O 1.00125 0.02316 0.87501 0.0
O509 O 0.97131 0.99539 0.81564 0.0
O510 O 1.00636 0.07146 0.78211 0.0
O511 O 0.03673 0.0547 0.89373 0.0
H512 H 0.12329 0.95734 1.0038 0.0
H513 H 0.13725 0.90745 0.95845 0.0
H514 H 0.11238 0.92614 0.67897 0.0
H515 H 0.09894 0.97611 0.72314 0.0
H516 H 0.91306 0.0793 0.54055 0.0
H517 H 0.89426 0.12754 0.58654 0.0
H518 H 0.92079 0.11101 0.86583 0.0
H519 H 0.9391 0.06263 0.82098 0.0
Tb520 Tb 0.51862 0.0444 0.793 0.0
Tb521 Tb 0.50426 1.00079 0.67777 0.0
C522 C 0.54258 0.08147 0.89701 0.0
C523 C 0.56531 0.10316 0.87288 0.0
C524 C 0.58435 0.11378 0.94043 0.0
C525 C 0.60998 0.12879 0.91489 0.0
C526 C 0.61709 0.13316 0.82106 0.0
C527 C 0.59621 0.12523 0.75427 0.0
C528 C 0.57062 0.11012 0.77995 0.0
C529 C 0.49986 0.0674 0.63274 0.0
C530 C 0.56887 0.02015 0.65665 0.0
C531 C 0.481 0.96491 0.56725 0.0
C532 C 0.45903 0.94144 0.57841 0.0
C533 C 0.45084 0.92453 0.50226 0.0
C534 C 0.42873 0.90327 0.51073 0.0
C535 C 0.41437 0.89855 0.59577 0.0
C536 C 0.42377 0.91463 0.67317 0.0
C537 C 0.44596 0.93593 0.66453 0.0
C538 C 0.52361 0.97782 0.83736 0.0
C539 C 0.45418 0.02409 0.81528 0.0
O540 O 0.55103 0.05395 0.89145 0.0
O541 O 0.51707 0.08563 0.8584 0.0
O542 O 0.51693 0.04555 0.64316 0.0
O543 O 0.49115 0.075 0.71378 0.0
O544 O 0.56348 0.03232 0.73808 0.0
O545 O 0.54624 1.01 0.61001 0.0
O546 O 0.47153 0.99186 0.57977 0.0
O547 O 0.50595 0.96025 0.60862 0.0
O548 O 0.50638 0.99957 0.82764 0.0
O549 O 0.53151 0.96976 0.75596 0.0
O550 O 0.45979 1.01253 0.73327 0.0
O551 O 0.47659 0.03475 0.86218 0.0
H552 H 0.58055 0.10858 1.01233 0.0
H553 H 0.62555 0.13416 0.96862 0.0
H554 H 0.60082 0.12845 0.68172 0.0
H555 H 0.55604 0.10207 0.72664 0.0
H556 H 0.46091 0.9284 0.43552 0.0
H557 H 0.42172 0.89183 0.44912 0.0
H558 H 0.41326 0.9115 0.73958 0.0
H559 H 0.45239 0.94861 0.72443 0.0
Tb560 Tb 0.49576 0.52856 0.79444 0.0
Tb561 Tb 0.53967 0.51639 0.67135 0.0
C562 C 0.46095 0.54996 0.91245 0.0
C563 C 0.43794 0.57265 0.90876 0.0
C564 C 0.42202 0.57962 0.98846 0.0
C565 C 0.40128 0.60237 0.9873 0.0
C566 C 0.39609 0.61858 0.90617 0.0
C567 C 0.41126 0.61055 0.82519 0.0
C568 C 0.43203 0.58773 0.82649 0.0
C569 C 0.47279 0.5115 0.63228 0.0
C570 C 0.51807 0.58098 0.66341 0.0
C571 C 0.57466 0.49546 0.55279 0.0
C572 C 0.5981 0.47318 0.55514 0.0
C573 C 0.6054 0.4589 0.63765 0.0
C574 C 0.62644 0.43632 0.63782 0.0
C575 C 0.64041 0.42762 0.55538 0.0
C576 C 0.63395 0.44317 0.47388 0.0
C577 C 0.61299 0.46573 0.4739 0.0
C578 C 0.56244 0.53352 0.83361 0.0
C579 C 0.51694 0.46397 0.80273 0.0
O580 O 0.48799 0.55921 0.90026 0.0
O581 O 0.45551 0.5261 0.86547 0.0
O582 O 0.4945 0.5286 0.64448 0.0
O583 O 0.4644 0.50276 0.71263 0.0
O584 O 0.50671 0.57395 0.7448 0.0
O585 O 0.5289 0.55955 0.6121 0.0
O586 O 0.54782 0.48573 0.56573 0.0
O587 O 0.57982 0.51934 0.59998 0.0
O588 O 0.5409 0.51623 0.8211 0.0
O589 O 0.57081 0.54242 0.75343 0.0
O590 O 0.52866 0.47095 0.72164 0.0
O591 O 0.50606 0.48542 0.85376 0.0
H592 H 0.42625 0.56806 0.05234 0.0
H593 H 0.39055 0.60827 0.05147 0.0
H594 H 0.40773 0.62247 0.76159 0.0
H595 H 0.44396 0.58232 0.76393 0.0
H596 H 0.59427 0.46468 0.70133 0.0
H597 H 0.63099 0.42499 0.70182 0.0
H598 H 0.64376 0.4368 0.40871 0.0
H599 H 0.60772 0.4767 0.40978 0.0
Tb600 Tb 1.00197 0.49315 0.8335 0.0
Tb601 Tb 1.01229 0.54287 0.73038 0.0
C602 C 0.98276 0.45491 0.94484 0.0
C603 C 0.95959 0.43237 0.95009 0.0
C604 C 0.95351 0.4192 0.03514 0.0
C605 C 0.92999 0.39956 0.04441 0.0
C606 C 0.91204 0.39265 0.9685 0.0
C607 C 0.91927 0.40481 0.88194 0.0
C608 C 0.94285 0.4246 0.87288 0.0
C609 C 0.02153 0.47814 0.66521 0.0
C610 C 0.94928 0.5172 0.70603 0.0
C611 C 0.03267 0.58454 0.63563 0.0
C612 C 0.05499 0.60649 0.66099 0.0
C613 C 0.07246 0.61951 0.59282 0.0
C614 C 0.09773 0.63521 0.61719 0.0
C615 C 0.10603 0.63797 0.71041 0.0
C616 C 0.08661 0.62749 0.77874 0.0
C617 C 0.06142 0.61163 0.7542 0.0
C618 C 0.9939 0.55737 0.90037 0.0
C619 C 0.06576 0.51704 0.85154 0.0
O620 O 0.97388 0.48236 0.94376 0.0
O621 O 1.00396 0.45009 0.88576 0.0
O622 O 1.00323 0.49838 0.68461 0.0
O623 O 0.0299 0.46664 0.7421 0.0
O624 O 0.9568 0.50127 0.77897 0.0
O625 O 0.96962 0.53352 0.66536 0.0
O626 O 0.04233 0.55741 0.62957 0.0
O627 O 1.00796 0.58615 0.68147 0.0
O628 O 1.01217 0.53744 0.87853 0.0
O629 O 0.98408 0.56817 0.82447 0.0
O630 O 0.05836 0.53305 0.7786 0.0
O631 O 0.04494 0.50195 0.89393 0.0
H632 H 0.96634 0.4249 0.09534 0.0
H633 H 0.92492 0.39121 0.11251 0.0
H634 H 0.90614 0.3998 0.82187 0.0
H635 H 0.94753 0.4344 0.80638 0.0
H636 H 0.06777 0.61577 0.52068 0.0
H637 H 0.11215 0.64254 0.56215 0.0
H638 H 0.09212 0.62944 0.85096 0.0
H639 H 0.04805 0.60175 0.80804 0.0
C640 C 0.10546 1.00247 0.45852 0.0
C641 C 0.12877 0.02305 0.44937 0.0
H642 H 0.06489 0.99052 0.52659 0.0
C643 C 0.12635 0.04966 0.49895 0.0
H644 H 0.10637 0.98172 0.42154 0.0
C645 C 0.10251 0.05459 0.5601 0.0
C646 C 0.08002 0.03335 0.57256 0.0
H647 H 0.14383 0.06592 0.49486 0.0
H648 H 0.10237 0.07459 0.60096 0.0
C649 C 0.08144 1.00759 0.51854 0.0
C650 C 0.53397 0.11568 0.44295 0.0
C651 C 0.51425 0.13979 0.43808 0.0
H652 H 0.54476 0.07391 0.5051 0.0
C653 C 0.48832 0.13818 0.49169 0.0
H654 H 0.55418 0.11596 0.40291 0.0
C655 C 0.48313 0.1141 0.55161 0.0
C656 C 0.50333 0.09049 0.55854 0.0
H657 H 0.47275 0.15629 0.49096 0.0
H658 H 0.46361 0.11439 0.59487 0.0
C659 C 0.52849 0.09136 0.50142 0.0
C660 C 0.43095 0.54235 0.42476 0.0
C661 C 0.40416 0.52636 0.42743 0.0
H662 H 0.47352 0.55014 0.48521 0.0
C663 C 0.40199 0.50299 0.49096 0.0
H664 H 0.43354 0.56058 0.37718 0.0
C665 C 0.42494 0.4972 0.55388 0.0
C666 C 0.45094 0.51439 0.55483 0.0
H667 H 0.3817 0.49047 0.49647 0.0
H668 H 0.42171 0.48004 0.60486 0.0
C669 C 0.45398 0.53639 0.48703 0.0
C670 C 0.99356 0.44229 0.44302 0.0
C671 C 1.01207 0.41735 0.43393 0.0
H672 H 0.98215 0.48113 0.52093 0.0
C673 C 0.03593 0.41498 0.49519 0.0
H674 H 0.97493 0.44501 0.39746 0.0
C675 C 0.03987 0.43563 0.56691 0.0
C676 C 0.02033 0.45957 0.57916 0.0
H677 H 0.05041 0.39601 0.49173 0.0
H678 H 0.05755 0.43208 0.61553 0.0
C679 C 0.99771 0.46313 0.51405 0.0
C680 C 0.93927 0.03663 0.09933 0.0
C681 C 0.91315 0.01953 0.10072 0.0
H682 H 0.98126 0.04527 0.03483 0.0
C683 C 0.91207 0.99474 0.04237 0.0
H684 H 0.94117 0.05582 0.14337 0.0
C685 C 0.93522 0.98871 0.97976 0.0
C686 C 0.96032 1.00712 0.97376 0.0
H687 H 0.89239 0.98121 0.04018 0.0
H688 H 0.93268 0.97047 0.93222 0.0
C689 C 0.96246 0.03052 0.03706 0.0
C690 C 0.53735 0.90802 0.98068 0.0
C691 C 0.51236 0.90689 0.03851 0.0
H692 H 0.56035 0.93103 0.87216 0.0
C693 C 0.49273 0.9311 0.03583 0.0
H694 H 0.55278 0.88979 0.97966 0.0
C695 C 0.49728 0.95502 0.97511 0.0
C696 C 0.52137 0.95532 0.91362 0.0
H697 H 0.4732 0.93112 0.07908 0.0
H698 H 0.48106 0.97254 0.97314 0.0
C699 C 0.54161 0.9317 0.91865 0.0
C700 C 0.63074 0.54644 0.98375 0.0
C701 C 0.63082 0.52143 0.04129 0.0
H702 H 0.60938 0.5697 0.87324 0.0
C703 C 0.60653 0.50197 0.03549 0.0
H704 H 0.64908 0.56174 0.98526 0.0
C705 C 0.58351 0.50674 0.97225 0.0
C706 C 0.58422 0.53088 0.91126 0.0
H707 H 0.60574 0.48245 0.07849 0.0
H708 H 0.56584 0.49071 0.96824 0.0
C709 C 0.60796 0.55092 0.91915 0.0
C710 C 0.02678 0.59596 0.11102 0.0
C711 C 1.00865 0.62117 0.12058 0.0
H712 H 0.03628 0.556 0.03627 0.0
C713 C 0.98345 0.62283 0.06454 0.0
H714 H 0.0464 0.59376 0.15265 0.0
C715 C 0.9778 0.60118 0.99692 0.0
C716 C 0.99693 0.57695 0.98372 0.0
H717 H 0.96918 0.64195 0.06845 0.0
H718 H 0.95909 0.60418 0.9518 0.0
C719 C 0.02095 0.57416 0.0441 0.0
C720 C 0.9298 0.20446 0.72029 0.0
C721 C 0.95925 0.20167 0.68873 0.0
H722 H 0.88971 0.18151 0.75778 0.0
C723 C 0.97168 0.17329 0.6841 0.0
H724 H 0.91945 0.22588 0.7261 0.0
C725 C 0.95483 0.14864 0.70165 0.0
C726 C 0.92519 0.15119 0.72719 0.0
H727 H 0.99371 0.16931 0.65817 0.0
H728 H 0.96465 0.12715 0.68954 0.0
C729 C 0.91271 0.17921 0.73878 0.0
C730 C 0.355 0.84791 0.51169 0.0
C731 C 0.3302 0.8644 0.53915 0.0
H732 H 0.40215 0.84577 0.50974 0.0
C733 C 0.33336 0.88483 0.61135 0.0
H734 H 0.35311 0.83147 0.45788 0.0
C735 C 0.36142 0.8933 0.6402 0.0
C736 C 0.38659 0.88112 0.59808 0.0
H737 H 0.31472 0.89771 0.63525 0.0
H738 H 0.36317 0.91211 0.68588 0.0
C739 C 0.38312 0.85637 0.54062 0.0
C740 C 0.68885 0.36822 0.45546 0.0
C741 C 0.67361 0.34312 0.48744 0.0
H742 H 0.69041 0.41546 0.45312 0.0
C743 C 0.65456 0.34624 0.5635 0.0
H744 H 0.70426 0.36645 0.39849 0.0
C745 C 0.6464 0.37426 0.59413 0.0
C746 C 0.65743 0.39959 0.54992 0.0
H747 H 0.64258 0.32745 0.59065 0.0
H748 H 0.62872 0.37581 0.64428 0.0
C749 C 0.68066 0.39632 0.48611 0.0
C750 C 0.18168 0.61661 0.77021 0.0
C751 C 0.1955 0.62879 0.69236 0.0
H752 H 0.14058 0.61017 0.83818 0.0
C753 C 0.18351 0.65441 0.65335 0.0
H754 H 0.19101 0.59734 0.8032 0.0
C755 C 0.15434 0.6621 0.67352 0.0
C756 C 0.13748 0.64402 0.73238 0.0
H757 H 0.19422 0.66485 0.59497 0.0
H758 H 0.14378 0.67879 0.63173 0.0
C759 C 0.15244 0.62397 0.78971 0.0
C760 C 0.05701 0.86748 0.86253 0.0
C761 C 0.06709 0.83831 0.85251 0.0
H762 H 0.06756 0.91304 0.86125 0.0
C763 C 0.09582 0.8337 0.81683 0.0
H764 H 0.03561 0.87272 0.89126 0.0
C765 C 0.11468 0.85776 0.79996 0.0
C766 C 0.10469 0.88645 0.81741 0.0
H767 H 0.10431 0.81164 0.80658 0.0
H768 H 0.13716 0.85394 0.77753 0.0
C769 C 0.0756 0.89099 0.84644 0.0
C770 C 0.69049 0.10876 0.74562 0.0
C771 C 0.70601 0.11888 0.82281 0.0
H772 H 0.64829 0.10581 0.68335 0.0
C773 C 0.6959 0.14438 0.868 0.0
H774 H 0.6984 0.08976 0.70752 0.0
C775 C 0.66703 0.15399 0.85374 0.0
C776 C 0.64847 0.1379 0.79484 0.0
H777 H 0.7079 0.15335 0.92595 0.0
H778 H 0.65794 0.17048 0.89982 0.0
C779 C 0.66152 0.11805 0.73208 0.0
C780 C 0.38096 0.69988 0.90361 0.0
C781 C 0.36032 0.70189 0.9759 0.0
H782 H 0.4089 0.67149 0.82516 0.0
C783 C 0.34502 0.67625 1.00265 0.0
H784 H 0.3931 0.71917 0.88092 0.0
C785 C 0.35426 0.64863 0.97076 0.0
C786 C 0.37872 0.64637 0.91124 0.0
H787 H 0.3286 0.67722 0.05699 0.0
H788 H 0.34423 0.62901 0.99987 0.0
C789 C 0.39023 0.67231 0.87188 0.0
C790 C 0.83018 0.37973 0.97812 0.0
C791 C 0.82788 0.36158 0.05642 0.0
H792 H 0.8587 0.40411 0.88937 0.0
C793 C 0.85343 0.34748 0.08867 0.0
H794 H 0.81105 0.39107 0.95127 0.0
C795 C 0.8811 0.355 0.05258 0.0
C796 C 0.88364 0.37681 0.98392 0.0
H797 H 0.85233 0.33294 0.14776 0.0
H798 H 0.90059 0.34562 0.08387 0.0
C799 C 0.85777 0.38738 0.94252 0.0
C800 C 1.00404 0.15721 0.92824 0.0
C801 C 0.026 0.16357 0.99405 0.0
H802 H 0.98486 0.12471 0.83781 0.0
C803 C 0.04698 0.14125 1.01143 0.0
H804 H 0.98708 0.17334 0.91368 0.0
C805 C 0.0459 0.11371 0.96618 0.0
C806 C 0.02374 0.10712 0.90157 0.0
H807 H 0.06439 0.14501 0.06082 0.0
H808 H 0.06252 0.09741 0.98252 0.0
C809 C 1.00281 0.12936 0.88373 0.0
C810 C 0.373 1.00313 0.85486 0.0
C811 C 0.36743 1.01268 0.94591 0.0
H812 H 0.40395 0.99907 0.74305 0.0
C813 C 0.39002 0.02844 0.99054 0.0
H814 H 0.35642 0.99053 0.8185 0.0
C815 C 0.4177 0.03308 0.94729 0.0
C816 C 0.4237 0.02216 0.8579 0.0
H817 H 0.38698 0.03551 0.06118 0.0
H818 H 0.43482 0.04428 0.98553 0.0
C819 C 0.40051 1.00783 0.81166 0.0
C820 C 0.51218 0.39755 0.96849 0.0
C821 C 0.5269 0.37514 0.91925 0.0
H822 H 0.49767 0.44278 0.97151 0.0
C823 C 0.53583 0.38168 0.82805 0.0
H824 H 0.50542 0.39374 0.03911 0.0
C825 C 0.5318 0.40995 0.78947 0.0
C826 C 0.51857 0.43286 0.84041 0.0
H827 H 0.54728 0.36517 0.78752 0.0
H828 H 0.54002 0.41407 0.72053 0.0
C829 C 0.50811 0.42592 0.92977 0.0
C830 C 0.14704 0.53689 0.90794 0.0
C831 C 0.15259 0.51876 0.9852 0.0
H832 H 0.1156 0.55109 0.80534 0.0
C833 C 0.13004 0.4992 1.01251 0.0
H834 H 0.1636 0.55252 0.8852 0.0
C835 C 0.10274 0.49839 0.96729 0.0
C836 C 0.09648 0.51719 0.8925 0.0
H837 H 0.13328 0.48478 0.07108 0.0
H838 H 0.08617 0.4832 0.99288 0.0
C839 C 0.11934 0.53619 0.86238 0.0
C840 C 0.98804 0.89937 0.53953 0.0
C841 C 1.00924 0.87693 0.55182 0.0
H842 H 0.97353 0.94328 0.57198 0.0
C843 C 0.03286 0.88316 0.61196 0.0
H844 H 0.96944 0.89572 0.49444 0.0
C845 C 0.03542 0.91105 0.65584 0.0
C846 C 1.0142 0.93338 0.64315 0.0
H847 H 0.05004 0.86692 0.62223 0.0
H848 H 0.05462 0.91567 0.69672 0.0
C849 C 0.99043 0.92689 0.58424 0.0
C850 C 0.65147 0.03422 0.60046 0.0
C851 C 0.65562 0.01717 0.51975 0.0
H852 H 0.62127 0.04891 0.70694 0.0
C853 C 0.63145 1.00009 0.48991 0.0
H854 H 0.66927 0.04784 0.6259 0.0
C855 C 0.60405 1.00095 0.53544 0.0
C856 C 0.5994 0.01868 0.61388 0.0
H857 H 0.63353 0.98614 0.42968 0.0
H858 H 0.58625 0.9877 0.50801 0.0
C859 C 0.62378 0.03496 0.64685 0.0
C860 C 0.49738 0.66282 0.6397 0.0
C861 C 0.50575 0.66965 0.54824 0.0
H862 H 0.49443 0.63027 0.747 0.0
C863 C 0.52072 0.64762 0.49802 0.0
H864 H 0.4857 0.67902 0.68083 0.0
C865 C 0.52562 0.6193 0.53621 0.0
C866 C 0.51576 0.61206 0.62597 0.0
H867 H 0.52703 0.65166 0.42713 0.0
H868 H 0.53619 0.60269 0.49383 0.0
C869 C 0.50226 0.63464 0.67776 0.0
C870 C 0.87618 0.53042 0.57497 0.0
C871 C 0.86266 0.50228 0.57859 0.0
H872 H 0.91389 0.55735 0.61093 0.0
C873 C 0.87904 0.47956 0.62213 0.0
H874 H 0.86507 0.54865 0.54191 0.0
C875 C 0.90625 0.48488 0.66463 0.0
C876 C 0.91944 0.51284 0.66234 0.0
H877 H 0.87129 0.457 0.62286 0.0
H878 H 0.91745 0.46659 0.69729 0.0
C879 C 0.90428 0.53551 0.61524 0.0
loop_
_geom_bond_atom_site_label_1
_geom_bond_atom_site_label_2
_geom_bond_distance
_geom_bond_site_symmetry_2
_ccdc_geom_bond_type
C0 C1 1.391 . S
C0 C4 1.391 . S
C0 H42 0.948 . S
C1 C0 1.391 . S
C1 C2 1.391 . S
C2 C1 1.391 . S
C2 H58 0.947 . S
C2 C59 1.392 . S
C3 C4 1.391 . S
C3 C7 1.397 . S
C3 C59 1.419 . S
C4 C0 1.391 . S
C4 C3 1.391 . S
C4 C5 1.399 . S
C5 C4 1.399 . S
C5 C8 1.396 . S
C5 C17 1.453 . S
C5 C18 1.684 . S
H6 C30 0.948 . S
C7 C3 1.397 . S
C7 C8 1.394 . S
C7 C26 1.723 . S
C8 C5 1.396 . S
C8 C7 1.394 . S
C8 C38 1.723 . S
H9 C32 0.947 . S
H10 C33 0.948 . S
H11 C39 0.982 . S
H12 C40 0.979 . S
H13 C40 0.980 . S
H14 C40 0.983 . S
H15 C39 0.979 . S
H16 C39 0.977 . S
C17 C5 1.453 . S
C17 H46 0.982 . S
C17 H47 0.979 . S
C17 H48 0.977 . S
C18 C5 1.684 . S
C18 H43 0.979 . S
C18 H44 0.980 . S
C18 H45 0.983 . S
C19 C20 1.391 . S
C19 C24 1.391 . S
C19 H49 0.948 . S
C20 C19 1.391 . S
C20 C21 1.391 . S
C21 C20 1.391 . S
C21 C22 1.392 . S
C21 H50 0.947 . S
C22 C21 1.392 . S
C22 C23 1.419 . S
C22 H51 0.948 . S
C23 C22 1.419 . S
C23 C24 1.391 . S
C23 C27 1.397 . S
C24 C19 1.391 . S
C24 C23 1.391 . S
C24 C25 1.399 . S
C25 C24 1.399 . S
C25 C26 1.396 . S
C25 C28 1.453 . S
C25 C29 1.684 . S
C26 C7 1.723 . S
C26 C25 1.396 . S
C26 C27 1.394 . S
C27 C23 1.397 . S
C27 C26 1.394 . S
C27 C37 1.723 . S
C28 C25 1.453 . S
C28 H52 0.982 . S
C28 H53 0.979 . S
C28 H54 0.977 . S
C29 C25 1.684 . S
C29 H55 0.979 . S
C29 H56 0.980 . S
C29 H57 0.983 . S
C30 H6 0.948 . S
C30 C31 1.391 . S
C30 C35 1.391 . S
C31 C30 1.391 . S
C31 C32 1.391 . S
C32 H9 0.947 . S
C32 C31 1.391 . S
C32 C33 1.392 . S
C33 H10 0.948 . S
C33 C32 1.392 . S
C33 C34 1.419 . S
C34 C33 1.419 . S
C34 C35 1.391 . S
C34 C38 1.397 . S
C35 C30 1.391 . S
C35 C34 1.391 . S
C35 C36 1.399 . S
C36 C35 1.399 . S
C36 C37 1.396 . S
C36 C39 1.453 . S
C36 C40 1.684 . S
C37 C27 1.723 . S
C37 C36 1.396 . S
C37 C38 1.394 . S
C38 C8 1.723 . S
C38 C34 1.397 . S
C38 C37 1.394 . S
C39 H11 0.982 . S
C39 H15 0.979 . S
C39 H16 0.977 . S
C39 C36 1.453 . S
C40 H12 0.979 . S
C40 H13 0.980 . S
C40 H14 0.983 . S
C40 C36 1.684 . S
H41 C59 0.948 . S
H42 C0 0.948 . S
H43 C18 0.979 . S
H44 C18 0.980 . S
H45 C18 0.983 . S
H46 C17 0.982 . S
H47 C17 0.979 . S
H48 C17 0.977 . S
H49 C19 0.948 . S
H50 C21 0.947 . S
H51 C22 0.948 . S
H52 C28 0.982 . S
H53 C28 0.979 . S
H54 C28 0.977 . S
H55 C29 0.979 . S
H56 C29 0.980 . S
H57 C29 0.983 . S
H58 C2 0.947 . S
C59 C2 1.392 . S
C59 C3 1.419 . S
C59 H41 0.948 . S
C60 C61 1.391 . S
C60 C64 1.391 . S
C60 H102 0.948 . S
C61 C60 1.391 . S
C61 C62 1.391 . S
C62 C61 1.391 . S
C62 H118 0.947 . S
C62 C119 1.392 . S
C63 C64 1.391 . S
C63 C67 1.397 1_655 S
C63 C119 1.419 . S
C64 C60 1.391 . S
C64 C63 1.391 . S
C64 C65 1.399 . S
C65 C64 1.399 . S
C65 C68 1.396 1_655 S
C65 C77 1.453 1_655 S
C65 C78 1.684 . S
H66 C90 0.948 . S
C67 C63 1.397 1_455 S
C67 C68 1.394 . S
C67 C86 1.723 . S
C68 C65 1.396 1_455 S
C68 C67 1.394 . S
C68 C98 1.723 . S
H69 C92 0.947 . S
H70 C93 0.948 . S
H71 C99 0.982 . S
H72 C100 0.979 . S
H73 C100 0.980 . S
H74 C100 0.983 . S
H75 C99 0.979 . S
H76 C99 0.977 . S
C77 C65 1.453 1_455 S
C77 H106 0.982 . S
C77 H107 0.979 . S
C77 H108 0.977 . S
C78 C65 1.684 . S
C78 H103 0.979 . S
C78 H104 0.980 . S
C78 H105 0.983 . S
C79 C80 1.391 . S
C79 C84 1.391 . S
C79 H109 0.948 . S
C80 C79 1.391 . S
C80 C81 1.391 . S
C81 C80 1.391 . S
C81 C82 1.392 . S
C81 H110 0.947 . S
C82 C81 1.392 . S
C82 C83 1.419 . S
C82 H111 0.948 . S
C83 C82 1.419 . S
C83 C84 1.391 . S
C83 C87 1.397 1_655 S
C84 C79 1.391 . S
C84 C83 1.391 . S
C84 C85 1.399 . S
C85 C84 1.399 . S
C85 C86 1.396 1_655 S
C85 C88 1.453 1_655 S
C85 C89 1.684 . S
C86 C67 1.723 . S
C86 C85 1.396 1_455 S
C86 C87 1.394 . S
C87 C83 1.397 1_455 S
C87 C86 1.394 . S
C87 C97 1.723 . S
C88 C85 1.453 1_455 S
C88 H112 0.982 . S
C88 H113 0.979 . S
C88 H114 0.977 . S
C89 C85 1.684 . S
C89 H115 0.979 . S
C89 H116 0.980 . S
C89 H117 0.983 . S
C90 H66 0.948 . S
C90 C91 1.391 . S
C90 C95 1.391 . S
C91 C90 1.391 . S
C91 C92 1.391 . S
C92 H69 0.947 . S
C92 C91 1.391 . S
C92 C93 1.392 . S
C93 H70 0.948 . S
C93 C92 1.392 . S
C93 C94 1.419 . S
C94 C93 1.419 . S
C94 C95 1.391 . S
C94 C98 1.397 1_655 S
C95 C90 1.391 . S
C95 C94 1.391 . S
C95 C96 1.399 . S
C96 C95 1.399 . S
C96 C97 1.396 1_655 S
C96 C99 1.453 1_655 S
C96 C100 1.684 . S
C97 C87 1.723 . S
C97 C96 1.396 1_455 S
C97 C98 1.394 . S
C98 C68 1.723 . S
C98 C94 1.397 1_455 S
C98 C97 1.394 . S
C99 H71 0.982 . S
C99 H75 0.979 . S
C99 H76 0.977 . S
C99 C96 1.453 1_455 S
C100 H72 0.979 . S
C100 H73 0.980 . S
C100 H74 0.983 . S
C100 C96 1.684 . S
H101 C119 0.948 . S
H102 C60 0.948 . S
H103 C78 0.979 . S
H104 C78 0.980 . S
H105 C78 0.983 . S
H106 C77 0.982 . S
H107 C77 0.979 . S
H108 C77 0.977 . S
H109 C79 0.948 . S
H110 C81 0.947 . S
H111 C82 0.948 . S
H112 C88 0.982 . S
H113 C88 0.979 . S
H114 C88 0.977 . S
H115 C89 0.979 . S
H116 C89 0.980 . S
H117 C89 0.983 . S
H118 C62 0.947 . S
C119 C62 1.392 . S
C119 C63 1.419 . S
C119 H101 0.948 . S
C120 C121 1.391 . S
C120 C124 1.391 . S
C120 H162 0.948 . S
C121 C120 1.391 . S
C121 C122 1.391 . S
C122 C121 1.391 . S
C122 H178 0.947 . S
C122 C179 1.392 . S
C123 C124 1.391 . S
C123 C127 1.397 1_565 S
C123 C179 1.419 . S
C124 C120 1.391 . S
C124 C123 1.391 . S
C124 C125 1.399 . S
C125 C124 1.399 . S
C125 C128 1.396 1_565 S
C125 C137 1.453 1_565 S
C125 C138 1.684 . S
H126 C150 0.948 . S
C127 C123 1.397 1_545 S
C127 C128 1.394 . S
C127 C146 1.723 . S
C128 C125 1.396 1_545 S
C128 C127 1.394 . S
C128 C158 1.723 . S
H129 C152 0.947 . S
H130 C153 0.948 . S
H131 C159 0.982 . S
H132 C160 0.979 . S
H133 C160 0.980 . S
H134 C160 0.983 . S
H135 C159 0.979 . S
H136 C159 0.977 . S
C137 C125 1.453 1_545 S
C137 H166 0.982 . S
C137 H167 0.979 . S
C137 H168 0.977 . S
C138 C125 1.684 . S
C138 H163 0.979 . S
C138 H164 0.980 . S
C138 H165 0.983 . S
C139 C140 1.391 . S
C139 C144 1.391 . S
C139 H169 0.948 . S
C140 C139 1.391 . S
C140 C141 1.391 . S
C141 C140 1.391 . S
C141 C142 1.392 . S
C141 H170 0.947 . S
C142 C141 1.392 . S
C142 C143 1.419 . S
C142 H171 0.948 . S
C143 C142 1.419 . S
C143 C144 1.391 . S
C143 C147 1.397 1_565 S
C144 C139 1.391 . S
C144 C143 1.391 . S
C144 C145 1.399 . S
C145 C144 1.399 . S
C145 C146 1.396 1_565 S
C145 C148 1.453 1_565 S
C145 C149 1.684 . S
C146 C127 1.723 . S
C146 C145 1.396 1_545 S
C146 C147 1.394 . S
C147 C143 1.397 1_545 S
C147 C146 1.394 . S
C147 C157 1.723 . S
C148 C145 1.453 1_545 S
C148 H172 0.982 . S
C148 H173 0.979 . S
C148 H174 0.977 . S
C149 C145 1.684 . S
C149 H175 0.979 . S
C149 H176 0.980 . S
C149 H177 0.983 . S
C150 H126 0.948 . S
C150 C151 1.391 . S
C150 C155 1.391 . S
C151 C150 1.391 . S
C151 C152 1.391 . S
C152 H129 0.947 . S
C152 C151 1.391 . S
C152 C153 1.392 . S
C153 H130 0.948 . S
C153 C152 1.392 . S
C153 C154 1.419 . S
C154 C153 1.419 . S
C154 C155 1.391 . S
C154 C158 1.397 1_565 S
C155 C150 1.391 . S
C155 C154 1.391 . S
C155 C156 1.399 . S
C156 C155 1.399 . S
C156 C157 1.396 1_565 S
C156 C159 1.453 1_565 S
C156 C160 1.684 . S
C157 C147 1.723 . S
C157 C156 1.396 1_545 S
C157 C158 1.394 . S
C158 C128 1.723 . S
C158 C154 1.397 1_545 S
C158 C157 1.394 . S
C159 H131 0.982 . S
C159 H135 0.979 . S
C159 H136 0.977 . S
C159 C156 1.453 1_545 S
C160 H132 0.979 . S
C160 H133 0.980 . S
C160 H134 0.983 . S
C160 C156 1.684 . S
H161 C179 0.948 . S
H162 C120 0.948 . S
H163 C138 0.979 . S
H164 C138 0.980 . S
H165 C138 0.983 . S
H166 C137 0.982 . S
H167 C137 0.979 . S
H168 C137 0.977 . S
H169 C139 0.948 . S
H170 C141 0.947 . S
H171 C142 0.948 . S
H172 C148 0.982 . S
H173 C148 0.979 . S
H174 C148 0.977 . S
H175 C149 0.979 . S
H176 C149 0.980 . S
H177 C149 0.983 . S
H178 C122 0.947 . S
C179 C122 1.392 . S
C179 C123 1.419 . S
C179 H161 0.948 . S
C180 C181 1.391 . S
C180 C184 1.391 . S
C180 H222 0.948 . S
C181 C180 1.391 . S
C181 C182 1.391 . S
C182 C181 1.391 . S
C182 H238 0.947 . S
C182 C239 1.392 . S
C183 C184 1.391 . S
C183 C187 1.397 . S
C183 C239 1.419 . S
C184 C180 1.391 . S
C184 C183 1.391 . S
C184 C185 1.399 . S
C185 C184 1.399 . S
C185 C188 1.396 . S
C185 C197 1.453 . S
C185 C198 1.684 . S
H186 C210 0.948 . S
C187 C183 1.397 . S
C187 C188 1.394 . S
C187 C206 1.723 . S
C188 C185 1.396 . S
C188 C187 1.394 . S
C188 C218 1.723 . S
H189 C212 0.947 . S
H190 C213 0.948 . S
H191 C219 0.982 . S
H192 C220 0.979 . S
H193 C220 0.980 . S
H194 C220 0.983 . S
H195 C219 0.979 . S
H196 C219 0.977 . S
C197 C185 1.453 . S
C197 H226 0.982 . S
C197 H227 0.979 . S
C197 H228 0.977 . S
C198 C185 1.684 . S
C198 H223 0.979 . S
C198 H224 0.980 . S
C198 H225 0.983 . S
C199 C200 1.391 . S
C199 C204 1.391 . S
C199 H229 0.948 . S
C200 C199 1.391 . S
C200 C201 1.391 . S
C201 C200 1.391 . S
C201 C202 1.392 . S
C201 H230 0.947 . S
C202 C201 1.392 . S
C202 C203 1.419 . S
C202 H231 0.948 . S
C203 C202 1.419 . S
C203 C204 1.391 . S
C203 C207 1.397 . S
C204 C199 1.391 . S
C204 C203 1.391 . S
C204 C205 1.399 . S
C205 C204 1.399 . S
C205 C206 1.396 . S
C205 C208 1.453 . S
C205 C209 1.684 . S
C206 C187 1.723 . S
C206 C205 1.396 . S
C206 C207 1.394 . S
C207 C203 1.397 . S
C207 C206 1.394 . S
C207 C217 1.723 . S
C208 C205 1.453 . S
C208 H232 0.982 . S
C208 H233 0.979 . S
C208 H234 0.977 . S
C209 C205 1.684 . S
C209 H235 0.979 . S
C209 H236 0.980 . S
C209 H237 0.983 . S
C210 H186 0.948 . S
C210 C211 1.391 . S
C210 C215 1.391 . S
C211 C210 1.391 . S
C211 C212 1.391 . S
C212 H189 0.947 . S
C212 C211 1.391 . S
C212 C213 1.392 . S
C213 H190 0.948 . S
C213 C212 1.392 . S
C213 C214 1.419 . S
C214 C213 1.419 . S
C214 C215 1.391 . S
C214 C218 1.397 . S
C215 C210 1.391 . S
C215 C214 1.391 . S
C215 C216 1.399 . S
C216 C215 1.399 . S
C216 C217 1.396 . S
C216 C219 1.453 . S
C216 C220 1.684 . S
C217 C207 1.723 . S
C217 C216 1.396 . S
C217 C218 1.394 . S
C218 C188 1.723 . S
C218 C214 1.397 . S
C218 C217 1.394 . S
C219 H191 0.982 . S
C219 H195 0.979 . S
C219 H196 0.977 . S
C219 C216 1.453 . S
C220 H192 0.979 . S
C220 H193 0.980 . S
C220 H194 0.983 . S
C220 C216 1.684 . S
H221 C239 0.948 . S
H222 C180 0.948 . S
H223 C198 0.979 . S
H224 C198 0.980 . S
H225 C198 0.983 . S
H226 C197 0.982 . S
H227 C197 0.979 . S
H228 C197 0.977 . S
H229 C199 0.948 . S
H230 C201 0.947 . S
H231 C202 0.948 . S
H232 C208 0.982 . S
H233 C208 0.979 . S
H234 C208 0.977 . S
H235 C209 0.979 . S
H236 C209 0.980 . S
H237 C209 0.983 . S
H238 C182 0.947 . S
C239 C182 1.392 . S
C239 C183 1.419 . S
C239 H221 0.948 . S
C240 C241 1.391 . S
C240 C244 1.391 . S
C240 H282 0.948 . S
C241 C240 1.391 . S
C241 C242 1.391 . S
C242 C241 1.391 . S
C242 H298 0.947 . S
C242 C299 1.392 . S
C243 C244 1.391 . S
C243 C247 1.397 . S
C243 C299 1.419 . S
C244 C240 1.391 . S
C244 C243 1.391 . S
C244 C245 1.399 1_554 S
C245 C244 1.399 1_556 S
C245 C248 1.396 1_556 S
C245 C257 1.453 . S
C245 C258 1.684 . S
H246 C270 0.948 . S
C247 C243 1.397 . S
C247 C248 1.394 . S
C247 C266 1.723 . S
C248 C245 1.396 1_554 S
C248 C247 1.394 . S
C248 C278 1.723 1_554 S
H249 C272 0.947 . S
H250 C273 0.948 . S
H251 C279 0.982 . S
H252 C280 0.979 . S
H253 C280 0.980 1_554 S
H254 C280 0.983 . S
H255 C279 0.979 . S
H256 C279 0.977 1_554 S
C257 C245 1.453 . S
C257 H286 0.982 . S
C257 H287 0.979 . S
C257 H288 0.977 . S
C258 C245 1.684 . S
C258 H283 0.979 . S
C258 H284 0.980 . S
C258 H285 0.983 . S
C259 C260 1.391 . S
C259 C264 1.391 . S
C259 H289 0.948 . S
C260 C259 1.391 . S
C260 C261 1.391 . S
C261 C260 1.391 . S
C261 C262 1.392 . S
C261 H290 0.947 . S
C262 C261 1.392 . S
C262 C263 1.419 . S
C262 H291 0.948 . S
C263 C262 1.419 . S
C263 C264 1.391 . S
C263 C267 1.397 . S
C264 C259 1.391 . S
C264 C263 1.391 . S
C264 C265 1.399 . S
C265 C264 1.399 . S
C265 C266 1.396 . S
C265 C268 1.453 . S
C265 C269 1.684 . S
C266 C247 1.723 . S
C266 C265 1.396 . S
C266 C267 1.394 . S
C267 C263 1.397 . S
C267 C266 1.394 . S
C267 C277 1.723 . S
C268 C265 1.453 . S
C268 H292 0.982 . S
C268 H293 0.979 . S
C268 H294 0.977 . S
C269 C265 1.684 . S
C269 H295 0.979 . S
C269 H296 0.980 . S
C269 H297 0.983 . S
C270 H246 0.948 . S
C270 C271 1.391 . S
C270 C275 1.391 . S
C271 C270 1.391 . S
C271 C272 1.391 . S
C272 H249 0.947 . S
C272 C271 1.391 . S
C272 C273 1.392 . S
C273 H250 0.948 . S
C273 C272 1.392 . S
C273 C274 1.419 . S
C274 C273 1.419 . S
C274 C275 1.391 . S
C274 C278 1.397 . S
C275 C270 1.391 . S
C275 C274 1.391 . S
C275 C276 1.399 . S
C276 C275 1.399 . S
C276 C277 1.396 1_556 S
C276 C279 1.453 . S
C276 C280 1.684 . S
C277 C267 1.723 . S
C277 C276 1.396 1_554 S
C277 C278 1.394 1_554 S
C278 C248 1.723 1_556 S
C278 C274 1.397 . S
C278 C277 1.394 1_556 S
C279 H251 0.982 . S
C279 H255 0.979 . S
C279 H256 0.977 1_556 S
C279 C276 1.453 . S
C280 H252 0.979 . S
C280 H253 0.980 1_556 S
C280 H254 0.983 . S
C280 C276 1.684 . S
H281 C299 0.948 . S
H282 C240 0.948 . S
H283 C258 0.979 . S
H284 C258 0.980 . S
H285 C258 0.983 . S
H286 C257 0.982 . S
H287 C257 0.979 . S
H288 C257 0.977 . S
H289 C259 0.948 . S
H290 C261 0.947 . S
H291 C262 0.948 . S
H292 C268 0.982 . S
H293 C268 0.979 . S
H294 C268 0.977 . S
H295 C269 0.979 . S
H296 C269 0.980 . S
H297 C269 0.983 . S
H298 C242 0.947 . S
C299 C242 1.392 . S
C299 C243 1.419 . S
C299 H281 0.948 . S
C300 C301 1.391 . S
C300 C304 1.391 . S
C300 H342 0.948 . S
C301 C300 1.391 . S
C301 C302 1.391 . S
C302 C301 1.391 . S
C302 H358 0.947 . S
C302 C359 1.392 . S
C303 C304 1.391 . S
C303 C307 1.396 1_655 S
C303 C359 1.419 . S
C304 C300 1.391 . S
C304 C303 1.391 . S
C304 C305 1.399 . S
C305 C304 1.399 . S
C305 C308 1.396 1_655 S
C305 C317 1.453 1_655 S
C305 C318 1.684 . S
H306 C330 0.948 . S
C307 C303 1.396 1_455 S
C307 C308 1.395 . S
C307 C326 1.723 . S
C308 C305 1.396 1_455 S
C308 C307 1.395 . S
C308 C338 1.723 . S
H309 C332 0.947 . S
H310 C333 0.948 . S
H311 C339 0.982 . S
H312 C340 0.979 . S
H313 C340 0.980 . S
H314 C340 0.983 . S
H315 C339 0.979 . S
H316 C339 0.977 . S
C317 C305 1.453 1_455 S
C317 H346 0.982 . S
C317 H347 0.979 . S
C317 H348 0.977 . S
C318 C305 1.684 . S
C318 H343 0.979 . S
C318 H344 0.980 . S
C318 H345 0.983 . S
C319 C320 1.391 . S
C319 C324 1.391 . S
C319 H349 0.948 . S
C320 C319 1.391 . S
C320 C321 1.391 . S
C321 C320 1.391 . S
C321 C322 1.392 . S
C321 H350 0.947 . S
C322 C321 1.392 . S
C322 C323 1.419 . S
C322 H351 0.948 . S
C323 C322 1.419 . S
C323 C324 1.391 . S
C323 C327 1.396 1_655 S
C324 C319 1.391 . S
C324 C323 1.391 . S
C324 C325 1.399 . S
C325 C324 1.399 . S
C325 C326 1.396 1_656 S
C325 C328 1.453 1_655 S
C325 C329 1.684 . S
C326 C307 1.723 . S
C326 C325 1.396 1_454 S
C326 C327 1.395 1_554 S
C327 C323 1.396 1_455 S
C327 C326 1.395 1_556 S
C327 C337 1.723 1_556 S
C328 C325 1.453 1_455 S
C328 H352 0.982 . S
C328 H353 0.979 . S
C328 H354 0.977 1_556 S
C329 C325 1.684 . S
C329 H355 0.979 . S
C329 H356 0.980 1_556 S
C329 H357 0.983 . S
C330 H306 0.948 . S
C330 C331 1.391 . S
C330 C335 1.391 . S
C331 C330 1.391 . S
C331 C332 1.391 . S
C332 H309 0.947 . S
C332 C331 1.391 . S
C332 C333 1.392 . S
C333 H310 0.948 . S
C333 C332 1.392 . S
C333 C334 1.419 . S
C334 C333 1.419 . S
C334 C335 1.391 . S
C334 C338 1.396 1_655 S
C335 C330 1.391 . S
C335 C334 1.391 . S
C335 C336 1.399 1_554 S
C336 C335 1.399 1_556 S
C336 C337 1.396 1_656 S
C336 C339 1.453 1_655 S
C336 C340 1.684 . S
C337 C327 1.723 1_554 S
C337 C336 1.396 1_454 S
C337 C338 1.395 . S
C338 C308 1.723 . S
C338 C334 1.396 1_455 S
C338 C337 1.395 . S
C339 H311 0.982 . S
C339 H315 0.979 . S
C339 H316 0.977 . S
C339 C336 1.453 1_455 S
C340 H312 0.979 . S
C340 H313 0.980 . S
C340 H314 0.983 . S
C340 C336 1.684 . S
H341 C359 0.948 . S
H342 C300 0.948 . S
H343 C318 0.979 . S
H344 C318 0.980 . S
H345 C318 0.983 . S
H346 C317 0.982 . S
H347 C317 0.979 . S
H348 C317 0.977 . S
H349 C319 0.948 . S
H350 C321 0.947 . S
H351 C322 0.948 . S
H352 C328 0.982 . S
H353 C328 0.979 . S
H354 C328 0.977 1_554 S
H355 C329 0.979 . S
H356 C329 0.980 1_554 S
H357 C329 0.983 . S
H358 C302 0.947 . S
C359 C302 1.392 . S
C359 C303 1.419 . S
C359 H341 0.948 . S
C360 C361 1.391 . S
C360 C364 1.391 . S
C360 H402 0.948 . S
C361 C360 1.391 . S
C361 C362 1.391 . S
C362 C361 1.391 . S
C362 H418 0.947 . S
C362 C419 1.392 . S
C363 C364 1.391 . S
C363 C367 1.397 1_545 S
C363 C419 1.419 . S
C364 C360 1.391 . S
C364 C363 1.391 . S
C364 C365 1.399 . S
C365 C364 1.399 . S
C365 C368 1.396 1_545 S
C365 C377 1.453 1_545 S
C365 C378 1.684 . S
H366 C390 0.948 . S
C367 C363 1.397 1_565 S
C367 C368 1.394 . S
C367 C386 1.723 1_556 S
C368 C365 1.396 1_565 S
C368 C367 1.394 . S
C368 C398 1.723 1_556 S
H369 C392 0.947 1_556 S
H370 C393 0.948 1_556 S
H371 C399 0.982 . S
H372 C400 0.979 . S
H373 C400 0.980 . S
H374 C400 0.983 . S
H375 C399 0.979 . S
H376 C399 0.977 . S
C377 C365 1.453 1_565 S
C377 H406 0.982 . S
C377 H407 0.979 . S
C377 H408 0.977 . S
C378 C365 1.684 . S
C378 H403 0.979 . S
C378 H404 0.980 . S
C378 H405 0.983 . S
C379 C380 1.391 . S
C379 C384 1.391 . S
C379 H409 0.948 . S
C380 C379 1.391 . S
C380 C381 1.391 . S
C381 C380 1.391 . S
C381 C382 1.392 . S
C381 H410 0.947 . S
C382 C381 1.392 . S
C382 C383 1.419 . S
C382 H411 0.948 . S
C383 C382 1.419 . S
C383 C384 1.391 . S
C383 C387 1.397 1_545 S
C384 C379 1.391 . S
C384 C383 1.391 . S
C384 C385 1.399 . S
C385 C384 1.399 . S
C385 C386 1.396 1_545 S
C385 C388 1.453 1_545 S
C385 C389 1.684 . S
C386 C367 1.723 1_554 S
C386 C385 1.396 1_565 S
C386 C387 1.394 . S
C387 C383 1.397 1_565 S
C387 C386 1.394 . S
C387 C397 1.723 . S
C388 C385 1.453 1_565 S
C388 H412 0.982 . S
C388 H413 0.979 . S
C388 H414 0.977 1_554 S
C389 C385 1.684 . S
C389 H415 0.979 . S
C389 H416 0.980 1_554 S
C389 H417 0.983 . S
C390 H366 0.948 . S
C390 C391 1.391 . S
C390 C395 1.391 . S
C391 C390 1.391 . S
C391 C392 1.391 . S
C392 H369 0.947 1_554 S
C392 C391 1.391 . S
C392 C393 1.392 . S
C393 H370 0.948 1_554 S
C393 C392 1.392 . S
C393 C394 1.419 . S
C394 C393 1.419 . S
C394 C395 1.391 . S
C394 C398 1.397 1_545 S
C395 C390 1.391 . S
C395 C394 1.391 . S
C395 C396 1.399 . S
C396 C395 1.399 . S
C396 C397 1.396 1_545 S
C396 C399 1.453 1_545 S
C396 C400 1.684 . S
C397 C387 1.723 . S
C397 C396 1.396 1_565 S
C397 C398 1.394 . S
C398 C368 1.723 1_554 S
C398 C394 1.397 1_565 S
C398 C397 1.394 . S
C399 H371 0.982 . S
C399 H375 0.979 . S
C399 H376 0.977 . S
C399 C396 1.453 1_565 S
C400 H372 0.979 . S
C400 H373 0.980 . S
C400 H374 0.983 . S
C400 C396 1.684 . S
H401 C419 0.948 . S
H402 C360 0.948 . S
H403 C378 0.979 . S
H404 C378 0.980 . S
H405 C378 0.983 . S
H406 C377 0.982 . S
H407 C377 0.979 . S
H408 C377 0.977 . S
H409 C379 0.948 . S
H410 C381 0.947 . S
H411 C382 0.948 . S
H412 C388 0.982 . S
H413 C388 0.979 . S
H414 C388 0.977 1_556 S
H415 C389 0.979 . S
H416 C389 0.980 1_556 S
H417 C389 0.983 . S
H418 C362 0.947 . S
C419 C362 1.392 . S
C419 C363 1.419 . S
C419 H401 0.948 . S
C420 C421 1.391 . S
C420 C424 1.391 . S
C420 H462 0.948 . S
C421 C420 1.391 . S
C421 C422 1.391 . S
C422 C421 1.391 . S
C422 H478 0.947 . S
C422 C479 1.392 . S
C423 C424 1.391 . S
C423 C427 1.397 . S
C423 C479 1.419 . S
C424 C420 1.391 . S
C424 C423 1.391 . S
C424 C425 1.399 . S
C425 C424 1.399 . S
C425 C428 1.396 . S
C425 C437 1.453 . S
C425 C438 1.684 . S
H426 C450 0.948 . S
C427 C423 1.397 . S
C427 C428 1.394 . S
C427 C446 1.723 1_556 S
C428 C425 1.396 . S
C428 C427 1.394 . S
C428 C458 1.723 1_556 S
H429 C452 0.947 1_556 S
H430 C453 0.948 1_556 S
H431 C459 0.982 . S
H432 C460 0.979 . S
H433 C460 0.980 . S
H434 C460 0.983 . S
H435 C459 0.979 . S
H436 C459 0.977 . S
C437 C425 1.453 . S
C437 H466 0.982 . S
C437 H467 0.979 . S
C437 H468 0.977 . S
C438 C425 1.684 . S
C438 H463 0.979 . S
C438 H464 0.980 . S
C438 H465 0.983 . S
C439 C440 1.391 . S
C439 C444 1.391 . S
C439 H469 0.948 . S
C440 C439 1.391 . S
C440 C441 1.391 . S
C441 C440 1.391 . S
C441 C442 1.392 . S
C441 H470 0.947 . S
C442 C441 1.392 . S
C442 C443 1.419 . S
C442 H471 0.948 . S
C443 C442 1.419 . S
C443 C444 1.391 . S
C443 C447 1.397 . S
C444 C439 1.391 . S
C444 C443 1.391 . S
C444 C445 1.399 . S
C445 C444 1.399 . S
C445 C446 1.396 . S
C445 C448 1.453 . S
C445 C449 1.684 . S
C446 C427 1.723 1_554 S
C446 C445 1.396 . S
C446 C447 1.394 . S
C447 C443 1.397 . S
C447 C446 1.394 . S
C447 C457 1.723 . S
C448 C445 1.453 . S
C448 H472 0.982 . S
C448 H473 0.979 . S
C448 H474 0.977 1_554 S
C449 C445 1.684 . S
C449 H475 0.979 . S
C449 H476 0.980 1_554 S
C449 H477 0.983 . S
C450 H426 0.948 . S
C450 C451 1.391 . S
C450 C455 1.391 . S
C451 C450 1.391 . S
C451 C452 1.391 . S
C452 H429 0.947 1_554 S
C452 C451 1.391 . S
C452 C453 1.392 . S
C453 H430 0.948 1_554 S
C453 C452 1.392 . S
C453 C454 1.419 . S
C454 C453 1.419 . S
C454 C455 1.391 . S
C454 C458 1.397 . S
C455 C450 1.391 . S
C455 C454 1.391 . S
C455 C456 1.399 . S
C456 C455 1.399 . S
C456 C457 1.396 . S
C456 C459 1.453 . S
C456 C460 1.684 . S
C457 C447 1.723 . S
C457 C456 1.396 . S
C457 C458 1.394 . S
C458 C428 1.723 1_554 S
C458 C454 1.397 . S
C458 C457 1.394 . S
C459 H431 0.982 . S
C459 H435 0.979 . S
C459 H436 0.977 . S
C459 C456 1.453 . S
C460 H432 0.979 . S
C460 H433 0.980 . S
C460 H434 0.983 . S
C460 C456 1.684 . S
H461 C479 0.948 . S
H462 C420 0.948 . S
H463 C438 0.979 . S
H464 C438 0.980 . S
H465 C438 0.983 . S
H466 C437 0.982 . S
H467 C437 0.979 . S
H468 C437 0.977 . S
H469 C439 0.948 . S
H470 C441 0.947 . S
H471 C442 0.948 . S
H472 C448 0.982 . S
H473 C448 0.979 . S
H474 C448 0.977 1_556 S
H475 C449 0.979 . S
H476 C449 0.980 1_556 S
H477 C449 0.983 . S
H478 C422 0.947 . S
C479 C422 1.392 . S
C479 C423 1.419 . S
C479 H461 0.948 . S
Tb480 C482 2.809 . S
Tb480 O500 2.484 . S
Tb480 O501 2.440 . S
Tb480 O502 2.658 1_565 S
Tb480 O503 2.409 . S
Tb480 O504 2.378 . S
Tb480 O508 2.325 1_455 S
Tb480 O511 2.341 1_565 S
Tb481 C491 2.809 . S
Tb481 O502 2.325 1_655 S
Tb481 O505 2.341 1_545 S
Tb481 O506 2.484 . S
Tb481 O507 2.440 . S
Tb481 O508 2.658 1_545 S
Tb481 O509 2.409 . S
Tb481 O510 2.378 . S
C482 Tb480 2.809 . S
C482 C483 1.514 . S
C482 O500 1.248 . S
C482 O501 1.266 . S
C483 C482 1.514 . S
C483 C484 1.359 1_556 S
C483 C488 1.348 . S
C484 C483 1.359 1_554 S
C484 C485 1.380 . S
C484 H512 0.929 1_455 S
C485 C484 1.380 . S
C485 C486 1.347 . S
C485 H513 0.931 . S
C486 C485 1.347 . S
C486 C487 1.369 . S
C487 C486 1.369 . S
C487 C488 1.408 1_554 S
C487 H514 0.930 . S
C488 C483 1.348 . S
C488 C487 1.408 1_556 S
C488 H515 0.930 . S
C489 O502 1.281 1_565 S
C489 O503 1.254 . S
C490 O504 1.236 1_655 S
C490 O505 1.266 . S
C491 Tb481 2.809 . S
C491 C492 1.514 . S
C491 O506 1.248 . S
C491 O507 1.266 . S
C492 C491 1.514 . S
C492 C493 1.359 . S
C492 C497 1.348 . S
C493 C492 1.359 . S
C493 C494 1.380 . S
C493 H516 0.929 1_655 S
C494 C493 1.380 . S
C494 C495 1.347 . S
C494 H517 0.931 . S
C495 C494 1.347 . S
C495 C496 1.369 . S
C496 C495 1.369 . S
C496 C497 1.408 . S
C496 H518 0.930 . S
C497 C492 1.348 . S
C497 C496 1.408 . S
C497 H519 0.930 . S
C498 O508 1.281 1_545 S
C498 O509 1.254 . S
C499 O510 1.236 1_455 S
C499 O511 1.266 . S
O500 Tb480 2.484 . S
O500 C482 1.248 . S
O501 Tb480 2.440 . S
O501 C482 1.266 . S
O502 Tb480 2.658 1_545 S
O502 Tb481 2.325 1_455 S
O502 C489 1.281 1_545 S
O503 Tb480 2.409 . S
O503 C489 1.254 . S
O504 Tb480 2.378 . S
O504 C490 1.236 1_455 S
O505 Tb481 2.341 1_565 S
O505 C490 1.266 . S
O506 Tb481 2.484 . S
O506 C491 1.248 . S
O507 Tb481 2.440 . S
O507 C491 1.266 . S
O508 Tb480 2.325 1_655 S
O508 Tb481 2.658 1_565 S
O508 C498 1.281 1_565 S
O509 Tb481 2.409 . S
O509 C498 1.254 . S
O510 Tb481 2.378 . S
O510 C499 1.236 1_655 S
O511 Tb480 2.341 1_545 S
O511 C499 1.266 . S
H512 C484 0.929 1_655 S
H513 C485 0.931 . S
H514 C487 0.930 . S
H515 C488 0.930 . S
H516 C493 0.929 1_455 S
H517 C494 0.931 . S
H518 C496 0.930 . S
H519 C497 0.930 . S
Tb520 C522 2.809 . S
Tb520 O540 2.484 . S
Tb520 O541 2.440 . S
Tb520 O542 2.658 . S
Tb520 O543 2.409 . S
Tb520 O544 2.378 . S
Tb520 O548 2.325 1_545 S
Tb520 O551 2.341 . S
Tb521 C531 2.809 . S
Tb521 O542 2.325 1_565 S
Tb521 O545 2.341 . S
Tb521 O546 2.484 . S
Tb521 O547 2.440 . S
Tb521 O548 2.658 . S
Tb521 O549 2.409 . S
Tb521 O550 2.378 . S
C522 Tb520 2.809 . S
C522 C523 1.514 . S
C522 O540 1.248 . S
C522 O541 1.266 . S
C523 C522 1.514 . S
C523 C524 1.359 1_556 S
C523 C528 1.348 . S
C524 C523 1.359 1_554 S
C524 C525 1.380 . S
C524 H552 0.929 1_545 S
C525 C524 1.380 . S
C525 C526 1.347 . S
C525 H553 0.906 1_545 S
C526 C525 1.347 . S
C526 C527 1.369 . S
C527 C526 1.369 . S
C527 C528 1.408 1_554 S
C527 H554 0.930 . S
C528 C523 1.348 . S
C528 C527 1.408 1_556 S
C528 H555 0.930 . S
C529 O542 1.281 . S
C529 O543 1.254 . S
C530 O544 1.236 1_565 S
C530 O545 1.266 . S
C531 Tb521 2.809 . S
C531 C532 1.514 . S
C531 O546 1.248 . S
C531 O547 1.266 . S
C532 C531 1.514 . S
C532 C533 1.359 . S
C532 C537 1.348 . S
C533 C532 1.359 . S
C533 C534 1.380 . S
C533 H556 0.929 1_565 S
C534 C533 1.380 . S
C534 C535 1.347 . S
C534 H557 0.931 1_565 S
C535 C534 1.347 . S
C535 C536 1.369 . S
C536 C535 1.369 . S
C536 C537 1.408 . S
C536 H558 0.930 . S
C537 C532 1.348 . S
C537 C536 1.408 . S
C537 H559 0.930 . S
C538 O548 1.281 . S
C538 O549 1.254 . S
C539 O550 1.236 1_545 S
C539 O551 1.266 . S
O540 Tb520 2.484 . S
O540 C522 1.248 . S
O541 Tb520 2.440 . S
O541 C522 1.266 . S
O542 Tb520 2.658 . S
O542 Tb521 2.325 1_545 S
O542 C529 1.281 . S
O543 Tb520 2.409 . S
O543 C529 1.254 . S
O544 Tb520 2.378 . S
O544 C530 1.236 1_545 S
O545 Tb521 2.341 . S
O545 C530 1.266 . S
O546 Tb521 2.484 . S
O546 C531 1.248 . S
O547 Tb521 2.440 . S
O547 C531 1.266 . S
O548 Tb520 2.325 1_565 S
O548 Tb521 2.658 . S
O548 C538 1.281 . S
O549 Tb521 2.409 . S
O549 C538 1.254 . S
O550 Tb521 2.378 . S
O550 C539 1.236 1_565 S
O551 Tb520 2.341 . S
O551 C539 1.266 . S
H552 C524 0.929 1_565 S
H553 C525 0.906 1_565 S
H554 C527 0.930 . S
H555 C528 0.930 . S
H556 C533 0.929 1_545 S
H557 C534 0.931 1_545 S
H558 C536 0.930 . S
H559 C537 0.930 . S
Tb560 C562 2.809 . S
Tb560 O580 2.484 . S
Tb560 O581 2.440 . S
Tb560 O582 2.658 . S
Tb560 O583 2.409 . S
Tb560 O584 2.378 . S
Tb560 O588 2.325 . S
Tb560 O591 2.341 . S
Tb561 C571 2.809 . S
Tb561 O582 2.325 . S
Tb561 O585 2.341 . S
Tb561 O586 2.484 . S
Tb561 O587 2.440 . S
Tb561 O588 2.658 . S
Tb561 O589 2.409 . S
Tb561 O590 2.378 . S
C562 Tb560 2.809 . S
C562 C563 1.514 . S
C562 O580 1.248 . S
C562 O581 1.266 . S
C563 C562 1.514 . S
C563 C564 1.359 1_556 S
C563 C568 1.348 . S
C564 C563 1.359 1_554 S
C564 C565 1.380 . S
C564 H592 0.929 . S
C565 C564 1.380 . S
C565 C566 1.347 . S
C565 H593 0.931 . S
C566 C565 1.347 . S
C566 C567 1.369 . S
C567 C566 1.369 . S
C567 C568 1.408 1_554 S
C567 H594 0.930 . S
C568 C563 1.348 . S
C568 C567 1.408 1_556 S
C568 H595 0.930 . S
C569 O582 1.281 . S
C569 O583 1.254 . S
C570 O584 1.236 . S
C570 O585 1.266 . S
C571 Tb561 2.809 . S
C571 C572 1.514 . S
C571 O586 1.248 . S
C571 O587 1.266 . S
C572 C571 1.514 . S
C572 C573 1.359 . S
C572 C577 1.348 . S
C573 C572 1.359 . S
C573 C574 1.380 . S
C573 H596 0.929 . S
C574 C573 1.380 . S
C574 C575 1.347 . S
C574 H597 0.931 . S
C575 C574 1.347 . S
C575 C576 1.369 . S
C576 C575 1.369 . S
C576 C577 1.408 . S
C576 H598 0.930 . S
C577 C572 1.348 . S
C577 C576 1.408 . S
C577 H599 0.930 . S
C578 O588 1.281 . S
C578 O589 1.254 . S
C579 O590 1.236 . S
C579 O591 1.266 . S
O580 Tb560 2.484 . S
O580 C562 1.248 . S
O581 Tb560 2.440 . S
O581 C562 1.266 . S
O582 Tb560 2.658 . S
O582 Tb561 2.325 . S
O582 C569 1.281 . S
O583 Tb560 2.409 . S
O583 C569 1.254 . S
O584 Tb560 2.378 . S
O584 C570 1.236 . S
O585 Tb561 2.341 . S
O585 C570 1.266 . S
O586 Tb561 2.484 . S
O586 C571 1.248 . S
O587 Tb561 2.440 . S
O587 C571 1.266 . S
O588 Tb560 2.325 . S
O588 Tb561 2.658 . S
O588 C578 1.281 . S
O589 Tb561 2.409 . S
O589 C578 1.254 . S
O590 Tb561 2.378 . S
O590 C579 1.236 . S
O591 Tb560 2.341 . S
O591 C579 1.266 . S
H592 C564 0.929 . S
H593 C565 0.931 . S
H594 C567 0.930 . S
H595 C568 0.930 . S
H596 C573 0.929 . S
H597 C574 0.931 . S
H598 C576 0.930 . S
H599 C577 0.930 . S
Tb600 C602 2.809 . S
Tb600 O620 2.484 . S
Tb600 O621 2.440 . S
Tb600 O622 2.658 1_655 S
Tb600 O623 2.409 . S
Tb600 O624 2.378 . S
Tb600 O628 2.325 . S
Tb600 O631 2.341 1_655 S
Tb601 C611 2.809 . S
Tb601 O622 2.325 . S
Tb601 O625 2.341 1_455 S
Tb601 O626 2.484 . S
Tb601 O627 2.440 . S
Tb601 O628 2.658 1_455 S
Tb601 O629 2.409 . S
Tb601 O630 2.378 . S
C602 Tb600 2.809 . S
C602 C603 1.514 . S
C602 O620 1.248 . S
C602 O621 1.266 . S
C603 C602 1.514 . S
C603 C604 1.359 1_556 S
C603 C608 1.348 . S
C604 C603 1.359 1_554 S
C604 C605 1.380 . S
C604 H632 0.929 . S
C605 C604 1.380 . S
C605 C606 1.347 . S
C605 H633 0.931 . S
C606 C605 1.347 . S
C606 C607 1.369 . S
C607 C606 1.369 . S
C607 C608 1.408 1_554 S
C607 H634 0.930 . S
C608 C603 1.348 . S
C608 C607 1.408 1_556 S
C608 H635 0.930 . S
C609 O622 1.280 1_655 S
C609 O623 1.255 . S
C610 O624 1.236 . S
C610 O625 1.266 . S
C611 Tb601 2.809 . S
C611 C612 1.514 . S
C611 O626 1.248 . S
C611 O627 1.266 . S
C612 C611 1.514 . S
C612 C613 1.359 . S
C612 C617 1.348 . S
C613 C612 1.359 . S
C613 C614 1.380 . S
C613 H636 0.929 . S
C614 C613 1.380 . S
C614 C615 1.347 . S
C614 H637 0.931 . S
C615 C614 1.347 . S
C615 C616 1.369 . S
C616 C615 1.369 . S
C616 C617 1.408 . S
C616 H638 0.930 . S
C617 C612 1.348 . S
C617 C616 1.408 . S
C617 H639 0.930 . S
C618 O628 1.277 1_455 S
C618 O629 1.259 . S
C619 O630 1.236 . S
C619 O631 1.266 . S
O620 Tb600 2.484 . S
O620 C602 1.248 . S
O621 Tb600 2.440 . S
O621 C602 1.266 . S
O622 Tb600 2.658 1_455 S
O622 Tb601 2.325 . S
O622 C609 1.280 1_455 S
O623 Tb600 2.409 . S
O623 C609 1.255 . S
O624 Tb600 2.378 . S
O624 C610 1.236 . S
O625 Tb601 2.341 1_655 S
O625 C610 1.266 . S
O626 Tb601 2.484 . S
O626 C611 1.248 . S
O627 Tb601 2.440 . S
O627 C611 1.266 . S
O628 Tb600 2.325 . S
O628 Tb601 2.658 1_655 S
O628 C618 1.277 1_655 S
O629 Tb601 2.409 . S
O629 C618 1.259 . S
O630 Tb601 2.378 . S
O630 C619 1.236 . S
O631 Tb600 2.341 1_455 S
O631 C619 1.266 . S
H632 C604 0.929 . S
H633 C605 0.931 . S
H634 C607 0.930 . S
H635 C608 0.930 . S
H636 C613 0.929 . S
H637 C614 0.931 . S
H638 C616 0.930 . S
H639 C617 0.930 . S
C640 C641 1.391 1_565 S
C640 H644 0.950 . S
C640 C649 1.390 . S
C641 C640 1.391 1_545 S
C641 C643 1.384 . S
H642 C649 0.950 . S
C643 C641 1.384 . S
C643 C645 1.390 . S
C643 H647 0.950 . S
H644 C640 0.950 . S
C645 C643 1.390 . S
C645 C646 1.387 1_545 S
C645 H648 0.950 . S
C646 C645 1.387 1_565 S
C646 C649 1.388 . S
H647 C643 0.950 . S
H648 C645 0.950 . S
C649 C640 1.390 . S
C649 H642 0.950 . S
C649 C646 1.388 . S
C650 C651 1.387 . S
C650 H654 0.950 . S
C650 C659 1.390 . S
C651 C650 1.387 . S
C651 C653 1.387 . S
H652 C659 0.950 . S
C653 C651 1.387 . S
C653 C655 1.390 . S
C653 H657 0.950 . S
H654 C650 0.950 . S
C655 C653 1.390 . S
C655 C656 1.387 . S
C655 H658 0.950 . S
C656 C655 1.387 . S
C656 C659 1.387 . S
H657 C653 0.950 . S
H658 C655 0.950 . S
C659 C650 1.390 . S
C659 H652 0.950 . S
C659 C656 1.387 . S
C660 C661 1.387 . S
C660 H664 0.950 . S
C660 C669 1.390 . S
C661 C660 1.387 . S
C661 C663 1.387 . S
H662 C669 0.950 . S
C663 C661 1.387 . S
C663 C665 1.390 . S
C663 H667 0.950 . S
H664 C660 0.950 . S
C665 C663 1.390 . S
C665 C666 1.387 . S
C665 H668 0.950 . S
C666 C665 1.387 . S
C666 C669 1.387 . S
H667 C663 0.950 . S
H668 C665 0.950 . S
C669 C660 1.390 . S
C669 H662 0.950 . S
C669 C666 1.387 . S
C670 C671 1.383 1_655 S
C670 H674 0.950 . S
C670 C679 1.390 . S
C671 C670 1.383 1_455 S
C671 C673 1.393 . S
H672 C679 0.950 . S
C673 C671 1.393 . S
C673 C675 1.390 . S
C673 H677 0.950 . S
H674 C670 0.950 . S
C675 C673 1.390 . S
C675 C676 1.387 . S
C675 H678 0.950 . S
C676 C675 1.387 . S
C676 C679 1.387 1_455 S
H677 C673 0.950 . S
H678 C675 0.950 . S
C679 C670 1.390 . S
C679 H672 0.950 . S
C679 C676 1.387 1_655 S
C680 C681 1.391 . S
C680 H684 0.950 . S
C680 C689 1.390 . S
C681 C680 1.391 . S
C681 C683 1.384 1_545 S
H682 C689 0.950 . S
C683 C681 1.384 1_565 S
C683 C685 1.390 . S
C683 H687 0.950 . S
H684 C680 0.950 . S
C685 C683 1.390 . S
C685 C686 1.380 1_565 S
C685 H688 0.950 . S
C686 C685 1.380 1_545 S
C686 C689 1.395 . S
H687 C683 0.950 . S
H688 C685 0.950 . S
C689 C680 1.390 . S
C689 H682 0.950 . S
C689 C686 1.395 . S
C690 C691 1.387 . S
C690 H694 0.950 . S
C690 C699 1.390 . S
C691 C690 1.387 . S
C691 C693 1.387 . S
H692 C699 0.950 . S
C693 C691 1.387 . S
C693 C695 1.390 . S
C693 H697 0.950 . S
H694 C690 0.950 . S
C695 C693 1.390 . S
C695 C696 1.387 . S
C695 H698 0.950 . S
C696 C695 1.387 . S
C696 C699 1.387 . S
H697 C693 0.950 . S
H698 C695 0.950 . S
C699 C690 1.390 . S
C699 H692 0.950 . S
C699 C696 1.387 . S
C700 C701 1.387 . S
C700 H704 0.950 . S
C700 C709 1.390 . S
C701 C700 1.387 . S
C701 C703 1.387 . S
H702 C709 0.950 . S
C703 C701 1.387 . S
C703 C705 1.390 . S
C703 H707 0.950 . S
H704 C700 0.950 . S
C705 C703 1.390 . S
C705 C706 1.387 . S
C705 H708 0.950 . S
C706 C705 1.387 . S
C706 C709 1.387 . S
H707 C703 0.950 . S
H708 C705 0.950 . S
C709 C700 1.390 . S
C709 H702 0.950 . S
C709 C706 1.387 . S
C710 C711 1.379 1_455 S
C710 H714 0.950 . S
C710 C719 1.390 . S
C711 C710 1.379 1_655 S
C711 C713 1.396 . S
H712 C719 0.950 . S
C713 C711 1.396 . S
C713 C715 1.390 . S
C713 H717 0.950 . S
H714 C710 0.950 . S
C715 C713 1.390 . S
C715 C716 1.387 . S
C715 H718 0.950 . S
C716 C715 1.387 . S
C716 C719 1.387 1_655 S
H717 C713 0.950 . S
H718 C715 0.950 . S
C719 C710 1.390 . S
C719 H712 0.950 . S
C719 C716 1.387 1_455 S
C720 C721 1.395 . S
C720 H724 0.950 . S
C720 C729 1.390 . S
C721 C720 1.395 . S
C721 C723 1.393 . S
H722 C729 0.950 . S
C723 C721 1.393 . S
C723 C725 1.390 . S
C723 H727 0.950 . S
H724 C720 0.950 . S
C725 C723 1.390 . S
C725 C726 1.387 . S
C725 H728 0.950 . S
C726 C725 1.387 . S
C726 C729 1.387 . S
H727 C723 0.950 . S
H728 C725 0.950 . S
C729 C720 1.390 . S
C729 H722 0.950 . S
C729 C726 1.387 . S
C730 C731 1.394 . S
C730 H734 0.950 . S
C730 C739 1.390 . S
C731 C730 1.394 . S
C731 C733 1.386 1_565 S
H732 C739 0.950 . S
C733 C731 1.386 1_545 S
C733 C735 1.390 1_545 S
C733 H737 0.950 . S
H734 C730 0.950 . S
C735 C733 1.390 1_565 S
C735 C736 1.387 . S
C735 H738 0.950 . S
C736 C735 1.387 . S
C736 C739 1.387 . S
H737 C733 0.950 . S
H738 C735 0.950 . S
C739 C730 1.390 . S
C739 H732 0.950 . S
C739 C736 1.387 . S
C740 C741 1.387 . S
C740 H744 0.950 . S
C740 C749 1.390 . S
C741 C740 1.387 . S
C741 C743 1.387 . S
H742 C749 0.950 . S
C743 C741 1.387 . S
C743 C745 1.390 . S
C743 H747 0.950 . S
H744 C740 0.950 . S
C745 C743 1.390 . S
C745 C746 1.387 . S
C745 H748 0.950 . S
C746 C745 1.387 . S
C746 C749 1.387 . S
H747 C743 0.950 . S
H748 C745 0.950 . S
C749 C740 1.390 . S
C749 H742 0.950 . S
C749 C746 1.387 . S
C750 C751 1.387 . S
C750 H754 0.950 . S
C750 C759 1.390 . S
C751 C750 1.387 . S
C751 C753 1.387 . S
H752 C759 0.950 . S
C753 C751 1.387 . S
C753 C755 1.390 . S
C753 H757 0.950 . S
H754 C750 0.950 . S
C755 C753 1.390 . S
C755 C756 1.387 . S
C755 H758 0.950 . S
C756 C755 1.387 . S
C756 C759 1.387 . S
H757 C753 0.950 . S
H758 C755 0.950 . S
C759 C750 1.390 . S
C759 H752 0.950 . S
C759 C756 1.387 . S
C760 C761 1.390 . S
C760 H764 0.950 1_455 S
C760 C769 1.390 . S
C761 C760 1.390 . S
C761 C763 1.398 . S
H762 C769 0.950 . S
C763 C761 1.398 . S
C763 C765 1.390 . S
C763 H767 0.950 . S
H764 C760 0.950 1_655 S
C765 C763 1.390 . S
C765 C766 1.387 . S
C765 H768 0.950 1_554 S
C766 C765 1.387 . S
C766 C769 1.387 . S
H767 C763 0.950 . S
H768 C765 0.950 1_556 S
C769 C760 1.390 . S
C769 H762 0.950 . S
C769 C766 1.387 . S
C770 C771 1.395 . S
C770 H774 0.950 . S
C770 C779 1.390 . S
C771 C770 1.395 . S
C771 C773 1.390 . S
H772 C779 0.950 . S
C773 C771 1.390 . S
C773 C775 1.390 . S
C773 H777 0.950 1_544 S
H774 C770 0.950 . S
C775 C773 1.390 . S
C775 C776 1.387 . S
C775 H778 0.950 1_554 S
C776 C775 1.387 . S
C776 C779 1.387 . S
H777 C773 0.950 1_566 S
H778 C775 0.950 1_556 S
C779 C770 1.390 . S
C779 H772 0.950 . S
C779 C776 1.387 . S
C780 C781 1.387 . S
C780 H784 0.950 1_554 S
C780 C789 1.390 . S
C781 C780 1.387 . S
C781 C783 1.387 . S
H782 C789 0.950 1_556 S
C783 C781 1.387 . S
C783 C785 1.390 . S
C783 H787 0.950 . S
H784 C780 0.950 1_556 S
C785 C783 1.390 . S
C785 C786 1.387 . S
C785 H788 0.950 . S
C786 C785 1.387 . S
C786 C789 1.387 . S
H787 C783 0.950 . S
H788 C785 0.950 . S
C789 C780 1.390 . S
C789 H782 0.950 1_554 S
C789 C786 1.387 . S
C790 C791 1.387 . S
C790 H794 0.950 1_554 S
C790 C799 1.390 . S
C791 C790 1.387 . S
C791 C793 1.387 . S
H792 C799 0.950 1_556 S
C793 C791 1.387 . S
C793 C795 1.390 . S
C793 H797 0.950 . S
H794 C790 0.950 1_556 S
C795 C793 1.390 . S
C795 C796 1.387 . S
C795 H798 0.950 . S
C796 C795 1.387 . S
C796 C799 1.387 . S
H797 C793 0.950 . S
H798 C795 0.950 . S
C799 C790 1.390 . S
C799 H792 0.950 1_554 S
C799 C796 1.387 . S
C800 C801 1.387 1_655 S
C800 H804 0.950 . S
C800 C809 1.390 . S
C801 C800 1.387 1_455 S
C801 C803 1.387 . S
H802 C809 0.950 . S
C803 C801 1.387 . S
C803 C805 1.390 . S
C803 H807 0.950 . S
H804 C800 0.950 . S
C805 C803 1.390 . S
C805 C806 1.387 . S
C805 H808 0.950 . S
C806 C805 1.387 . S
C806 C809 1.387 1_455 S
H807 C803 0.950 . S
H808 C805 0.950 . S
C809 C800 1.390 . S
C809 H802 0.950 . S
C809 C806 1.387 1_655 S
C810 C811 1.387 1_565 S
C810 H814 0.950 . S
C810 C819 1.390 . S
C811 C810 1.387 1_545 S
C811 C813 1.387 . S
H812 C819 0.950 . S
C813 C811 1.387 . S
C813 C815 1.390 . S
C813 H817 0.950 . S
H814 C810 0.950 . S
C815 C813 1.390 . S
C815 C816 1.387 . S
C815 H818 0.950 . S
C816 C815 1.387 . S
C816 C819 1.387 1_545 S
H817 C813 0.950 . S
H818 C815 0.950 . S
C819 C810 1.390 . S
C819 H812 0.950 . S
C819 C816 1.387 1_565 S
C820 C821 1.387 . S
C820 H824 0.950 . S
C820 C829 1.390 . S
C821 C820 1.387 . S
C821 C823 1.387 . S
H822 C829 0.950 . S
C823 C821 1.387 . S
C823 C825 1.390 . S
C823 H827 0.950 . S
H824 C820 0.950 . S
C825 C823 1.390 . S
C825 C826 1.387 . S
C825 H828 0.950 . S
C826 C825 1.387 . S
C826 C829 1.387 . S
H827 C823 0.950 . S
H828 C825 0.950 . S
C829 C820 1.390 . S
C829 H822 0.950 . S
C829 C826 1.387 . S
C830 C831 1.387 . S
C830 H834 0.950 . S
C830 C839 1.390 . S
C831 C830 1.387 . S
C831 C833 1.387 . S
H832 C839 0.950 . S
C833 C831 1.387 . S
C833 C835 1.390 . S
C833 H837 0.950 . S
H834 C830 0.950 . S
C835 C833 1.390 . S
C835 C836 1.387 . S
C835 H838 0.950 . S
C836 C835 1.387 . S
C836 C839 1.387 . S
H837 C833 0.950 . S
H838 C835 0.950 . S
C839 C830 1.390 . S
C839 H832 0.950 . S
C839 C836 1.387 . S
C840 C841 1.387 . S
C840 H844 0.950 . S
C840 C849 1.390 . S
C841 C840 1.387 . S
C841 C843 1.387 1_655 S
H842 C849 0.950 . S
C843 C841 1.387 1_455 S
C843 C845 1.390 . S
C843 H847 0.950 . S
H844 C840 0.950 . S
C845 C843 1.390 . S
C845 C846 1.387 1_455 S
C845 H848 0.950 . S
C846 C845 1.387 1_655 S
C846 C849 1.387 . S
H847 C843 0.950 . S
H848 C845 0.950 . S
C849 C840 1.390 . S
C849 H842 0.950 . S
C849 C846 1.387 . S
C850 C851 1.387 1_545 S
C850 H854 0.950 . S
C850 C859 1.390 . S
C851 C850 1.387 1_565 S
C851 C853 1.387 . S
H852 C859 0.950 . S
C853 C851 1.387 . S
C853 C855 1.390 . S
C853 H857 0.950 . S
H854 C850 0.950 . S
C855 C853 1.390 . S
C855 C856 1.387 . S
C855 H858 0.950 . S
C856 C855 1.387 . S
C856 C859 1.387 1_565 S
H857 C853 0.950 . S
H858 C855 0.950 . S
C859 C850 1.390 . S
C859 H852 0.950 . S
C859 C856 1.387 1_545 S
C860 C861 1.387 . S
C860 H864 0.950 . S
C860 C869 1.390 . S
C861 C860 1.387 . S
C861 C863 1.387 . S
H862 C869 0.950 . S
C863 C861 1.387 . S
C863 C865 1.390 . S
C863 H867 0.950 . S
H864 C860 0.950 . S
C865 C863 1.390 . S
C865 C866 1.387 . S
C865 H868 0.950 . S
C866 C865 1.387 . S
C866 C869 1.387 . S
H867 C863 0.950 . S
H868 C865 0.950 . S
C869 C860 1.390 . S
C869 H862 0.950 . S
C869 C866 1.387 . S
C870 C871 1.387 . S
C870 H874 0.950 . S
C870 C879 1.390 . S
C871 C870 1.387 . S
C871 C873 1.387 . S
H872 C879 0.950 . S
C873 C871 1.387 . S
C873 C875 1.390 . S
C873 H877 0.950 . S
H874 C870 0.950 . S
C875 C873 1.390 . S
C875 C876 1.387 . S
C875 H878 0.950 . S
C876 C875 1.387 . S
C876 C879 1.387 . S
H877 C873 0.950 . S
H878 C875 0.950 . S
C879 C870 1.390 . S
C879 H872 0.950 . S
C879 C876 1.387 . S
C641 C391 2.664 . S
C646 C489 2.865 . S
C656 C529 2.892 . S
C651 C451 2.681 . S
C666 C569 2.900 . S
C661 C241 2.351 . S
C676 C609 2.871 1_455 S
C671 C331 2.304 1_455 S
C686 C498 2.865 1_554 S
C681 C121 2.294 1_545 S
C691 C211 2.703 . S
C696 C538 2.893 1_554 S
C701 C31 2.715 . S
C706 C578 2.900 1_554 S
C711 C91 2.302 . S
C716 C618 2.871 1_654 S
C726 C495 0.776 . S
C721 C301 0.768 . S
C736 C535 0.766 . S
C731 C380 0.770 1_565 S
C746 C575 0.725 . S
C741 C440 0.710 . S
C751 C260 0.734 . S
C756 C615 0.725 . S
C761 C61 0.775 1_455 S
C766 C486 0.778 . S
C776 C526 0.768 . S
C771 C140 0.765 1_545 S
C786 C566 0.716 . S
C781 C200 0.714 . S
C791 C20 0.720 . S
C796 C606 0.725 . S
C801 C320 3.438 1_455 S
C806 C499 3.750 . S
C811 C361 2.939 . S
C816 C539 3.708 . S
C826 C579 3.696 . S
C821 C421 2.920 . S
C836 C619 3.743 . S
C831 C271 3.429 . S
C841 C80 3.419 . S
C846 C490 3.759 . S
C856 C530 3.709 . S
C851 C151 3.373 . S
C866 C570 3.696 . S
C861 C181 2.963 . S
C871 C1 3.009 . S
C876 C610 3.746 . S
