# Generated by pormake.
# Topology dag, (6,3)-cn, num edge types: 1
# Building blocks:
#     Node 0, Type 0, BuildingBlock: IZENUY_clean_sbu_0, # of connection points: 6
#     Node 1, Type 0, BuildingBlock: IZENUY_clean_sbu_0, # of connection points: 6
#     Node 2, Type 0, BuildingBlock: IZENUY_clean_sbu_0, # of connection points: 6
#     Node 3, Type 0, BuildingBlock: IZENUY_clean_sbu_0, # of connection points: 6
#     Node 4, Type 1, BuildingBlock: PAMTOO_clean_linker_0, # of connection points: 3
#     Node 5, Type 1, BuildingBlock: PAMTOO_clean_linker_0, # of connection points: 3
#     Node 6, Type 1, BuildingBlock: PAMTOO_clean_linker_0, # of connection points: 3
#     Node 7, Type 1, BuildingBlock: PAMTOO_clean_linker_0, # of connection points: 3
#     Node 8, Type 1, BuildingBlock: PAMTOO_clean_linker_0, # of connection points: 3
#     Node 9, Type 1, BuildingBlock: PAMTOO_clean_linker_0, # of connection points: 3
#     Node 10, Type 1, BuildingBlock: PAMTOO_clean_linker_0, # of connection points: 3
#     Node 11, Type 1, BuildingBlock: PAMTOO_clean_linker_0, # of connection points: 3
#     Edge 12, Type (0, 1), BuildingBlock: XIVTED_clean_linker_0, # of connection points: 2
#     Edge 13, Type (0, 1), BuildingBlock: XIVTED_clean_linker_0, # of connection points: 2
#     Edge 14, Type (0, 1), BuildingBlock: XIVTED_clean_linker_0, # of connection points: 2
#     Edge 15, Type (0, 1), BuildingBlock: XIVTED_clean_linker_0, # of connection points: 2
#     Edge 16, Type (0, 1), BuildingBlock: XIVTED_clean_linker_0, # of connection points: 2
#     Edge 17, Type (0, 1), BuildingBlock: XIVTED_clean_linker_0, # of connection points: 2
#     Edge 18, Type (0, 1), BuildingBlock: XIVTED_clean_linker_0, # of connection points: 2
#     Edge 19, Type (0, 1), BuildingBlock: XIVTED_clean_linker_0, # of connection points: 2
#     Edge 20, Type (0, 1), BuildingBlock: XIVTED_clean_linker_0, # of connection points: 2
#     Edge 21, Type (0, 1), BuildingBlock: XIVTED_clean_linker_0, # of connection points: 2
#     Edge 22, Type (0, 1), BuildingBlock: XIVTED_clean_linker_0, # of connection points: 2
#     Edge 23, Type (0, 1), BuildingBlock: XIVTED_clean_linker_0, # of connection points: 2
#     Edge 24, Type (0, 1), BuildingBlock: XIVTED_clean_linker_0, # of connection points: 2
#     Edge 25, Type (0, 1), BuildingBlock: XIVTED_clean_linker_0, # of connection points: 2
#     Edge 26, Type (0, 1), BuildingBlock: XIVTED_clean_linker_0, # of connection points: 2
#     Edge 27, Type (0, 1), BuildingBlock: XIVTED_clean_linker_0, # of connection points: 2
#     Edge 28, Type (0, 1), BuildingBlock: XIVTED_clean_linker_0, # of connection points: 2
#     Edge 29, Type (0, 1), BuildingBlock: XIVTED_clean_linker_0, # of connection points: 2
#     Edge 30, Type (0, 1), BuildingBlock: XIVTED_clean_linker_0, # of connection points: 2
#     Edge 31, Type (0, 1), BuildingBlock: XIVTED_clean_linker_0, # of connection points: 2
#     Edge 32, Type (0, 1), BuildingBlock: XIVTED_clean_linker_0, # of connection points: 2
#     Edge 33, Type (0, 1), BuildingBlock: XIVTED_clean_linker_0, # of connection points: 2
#     Edge 34, Type (0, 1), BuildingBlock: XIVTED_clean_linker_0, # of connection points: 2
#     Edge 35, Type (0, 1), BuildingBlock: XIVTED_clean_linker_0, # of connection points: 2
# Relax obj value: 0.093
# Max RMSD: 0.109
# Mean RMSD: 0.087
data_MOF--net-dag--node1-IZENUY_clean_sbu_0--node2-PAMTOO_clean_linker_0--edge1-XIVTED_clean_linker_0
_symmetry_space_group_name_H-M    P1
_symmetry_Int_Tables_number       1
_symmetry_cell_setting            triclinic
loop_
_symmetry_equiv_pos_as_xyz
'x, y, z'
_cell_length_a     39.444998
_cell_length_b     40.590868
_cell_length_c     35.855107
_cell_angle_alpha  90.064528
_cell_angle_beta   94.550031
_cell_angle_gamma 90.102362
loop_
_atom_site_label
_atom_site_type_symbol
_atom_site_fract_x
_atom_site_fract_y
_atom_site_fract_z
_atom_type_partial_charge
Fe0 Fe 0.19569 0.85594 0.00833 0.0
Fe1 Fe 0.12283 0.88003 0.01451 0.0
O2 O 0.15121 0.84821 0.0049 0.0
Fe3 Fe 0.13492 0.80872 0.99178 0.0
O4 O 0.15807 0.79 0.03171 0.0
O5 O 0.20725 0.81394 0.02445 0.0
O6 O 0.19611 0.8674 0.05731 0.0
C7 C 0.17713 0.88904 0.06971 0.0
C8 C 0.18893 0.81797 0.94519 0.0
O9 O 0.15179 0.90017 0.04993 0.0
C10 C 0.08949 0.84822 0.95187 0.0
O11 O 0.19188 0.89937 0.99281 0.0
O12 O 0.13716 0.90493 0.97729 0.0
O13 O 0.16881 0.79921 0.9611 0.0
O14 O 0.19839 0.84508 0.95974 0.0
C15 C 0.09351 0.82869 0.04869 0.0
O16 O 0.08852 0.86593 0.98082 0.0
O17 O 0.11059 0.82502 0.95079 0.0
C18 C 0.16741 0.91386 0.97447 0.0
O19 O 0.10689 0.85681 0.05228 0.0
O20 O 0.09808 0.81104 0.02033 0.0
C21 C 0.18978 0.79188 0.03922 0.0
Fe22 Fe 0.69413 0.64251 0.49956 0.0
Fe23 Fe 0.6343 0.6904 0.48085 0.0
O24 O 0.64977 0.65035 0.49259 0.0
Fe25 Fe 0.62059 0.61801 0.49748 0.0
O26 O 0.63566 0.61253 0.54578 0.0
O27 O 0.69012 0.61135 0.53656 0.0
O28 O 0.69899 0.6727 0.53657 0.0
C29 C 0.69008 0.70245 0.53413 0.0
C30 C 0.67298 0.587 0.46159 0.0
O31 O 0.66932 0.71222 0.50764 0.0
C32 C 0.59065 0.64809 0.43572 0.0
O33 O 0.70559 0.6723 0.46396 0.0
O34 O 0.65639 0.69045 0.43874 0.0
O35 O 0.64818 0.58553 0.48173 0.0
O36 O 0.69258 0.61152 0.46289 0.0
C37 C 0.58947 0.67169 0.53075 0.0
O38 O 0.59645 0.67567 0.45175 0.0
O39 O 0.60392 0.6221 0.44936 0.0
C40 C 0.68766 0.68513 0.43683 0.0
O41 O 0.61095 0.69291 0.52246 0.0
O42 O 0.58738 0.64416 0.51428 0.0
C43 C 0.66603 0.6069 0.55748 0.0
Fe44 Fe 0.86212 0.19029 0.05707 0.0
Fe45 Fe 0.87763 0.12112 0.02847 0.0
O46 O 0.84787 0.15122 0.03965 0.0
Fe47 Fe 0.80384 0.14193 0.03287 0.0
O48 O 0.79714 0.17535 0.00013 0.0
O49 O 0.82631 0.21316 0.03326 0.0
O50 O 0.8852 0.19868 0.01609 0.0
C51 C 0.90688 0.17963 0.0038 0.0
C52 C 0.80896 0.1792 0.10019 0.0
O53 O 0.90965 0.15024 0.01494 0.0
C54 C 0.82695 0.08335 0.06049 0.0
O55 O 0.90045 0.17382 0.08362 0.0
O56 O 0.896 0.12002 0.07617 0.0
O57 O 0.79181 0.16749 0.07189 0.0
O58 O 0.84023 0.18529 0.09929 0.0
C59 C 0.83083 0.11357 0.9693 0.0
O60 O 0.85123 0.08587 0.03965 0.0
O61 O 0.80785 0.10755 0.06542 0.0
C62 C 0.90865 0.14469 0.09368 0.0
O63 O 0.86107 0.1209 0.98003 0.0
O64 O 0.80775 0.11477 0.99198 0.0
C65 C 0.80547 0.20501 0.00598 0.0
Fe66 Fe 0.37383 0.38045 0.54724 0.0
Fe67 Fe 0.30153 0.35402 0.55152 0.0
O68 O 0.34621 0.34744 0.55519 0.0
Fe69 Fe 0.36325 0.30799 0.56703 0.0
O70 O 0.38715 0.32374 0.60876 0.0
O71 O 0.40796 0.36668 0.58103 0.0
O72 O 0.35811 0.40405 0.58495 0.0
C73 C 0.32751 0.4121 0.58698 0.0
C74 C 0.40554 0.33104 0.512 0.0
O75 O 0.30393 0.3972 0.56767 0.0
C76 C 0.30873 0.29104 0.51887 0.0
O77 O 0.34478 0.40035 0.51191 0.0
O78 O 0.30139 0.36635 0.50274 0.0
O79 O 0.4003 0.31197 0.53895 0.0
O80 O 0.39133 0.35879 0.50917 0.0
C81 C 0.30954 0.31541 0.61416 0.0
O82 O 0.29104 0.31216 0.53469 0.0
O83 O 0.34052 0.28957 0.52625 0.0
C84 C 0.32005 0.38884 0.49131 0.0
O85 O 0.29892 0.34227 0.59995 0.0
O86 O 0.32944 0.29712 0.59732 0.0
C87 C 0.40733 0.34786 0.60902 0.0
H88 H 0.12374 0.04988 0.2196 0.0
H89 H 0.13323 0.14024 0.2828 0.0
H90 H 0.21054 0.06575 0.29754 0.0
H91 H 0.19431 0.09457 0.36772 0.0
C92 C 0.1847 0.11912 0.35804 0.0
O93 O 0.18994 0.12317 0.32075 0.0
H94 H 0.157 0.12008 0.36203 0.0
C95 C 0.13757 0.06554 0.2401 0.0
C96 C 0.16845 0.05426 0.2574 0.0
C97 C 0.12481 0.09682 0.24808 0.0
C98 C 0.14259 0.11614 0.27575 0.0
C99 C 0.17319 0.10467 0.2939 0.0
C100 C 0.18655 0.07413 0.28403 0.0
H101 H 0.38074 0.62622 0.64741 0.0
H102 H 0.29569 0.65755 0.70629 0.0
H103 H 0.37505 0.72644 0.68557 0.0
H104 H 0.35482 0.73722 0.75659 0.0
C105 C 0.33137 0.72185 0.75561 0.0
O106 O 0.3191 0.71752 0.71881 0.0
H107 H 0.33847 0.69774 0.76887 0.0
C108 C 0.36725 0.64564 0.66084 0.0
C109 C 0.38156 0.67724 0.66437 0.0
C110 C 0.33614 0.63847 0.6753 0.0
C111 C 0.31905 0.66317 0.6936 0.0
C112 C 0.33318 0.69489 0.69721 0.0
C113 C 0.3639 0.70213 0.6817 0.0
H114 H 0.88429 0.86779 0.14293 0.0
H115 H 0.79104 0.84653 0.19296 0.0
H116 H 0.87523 0.77922 0.20698 0.0
H117 H 0.81097 0.7464 0.19662 0.0
C118 C 0.79401 0.76478 0.2087 0.0
O119 O 0.8129 0.79097 0.22337 0.0
H120 H 0.77519 0.7734 0.18604 0.0
C121 C 0.86929 0.85179 0.15946 0.0
C122 C 0.88366 0.82264 0.17426 0.0
C123 C 0.83586 0.86055 0.16576 0.0
C124 C 0.81683 0.84001 0.1876 0.0
C125 C 0.83103 0.81058 0.20211 0.0
C126 C 0.86438 0.80186 0.19541 0.0
H127 H 0.60392 0.45103 0.7341 0.0
H128 H 0.62738 0.36772 0.8057 0.0
H129 H 0.70281 0.44245 0.79283 0.0
H130 H 0.7348 0.37996 0.80181 0.0
C131 C 0.71315 0.36551 0.81143 0.0
O132 O 0.68984 0.38668 0.82513 0.0
H133 H 0.70147 0.35143 0.78696 0.0
C134 C 0.62125 0.43823 0.75411 0.0
C135 C 0.65424 0.45067 0.76206 0.0
C136 C 0.61111 0.40835 0.76958 0.0
C137 C 0.6345 0.39096 0.79366 0.0
C138 C 0.66735 0.40354 0.80223 0.0
C139 C 0.67718 0.43329 0.78648 0.0
H140 H 0.61774 0.37487 0.39767 0.0
H141 H 0.62289 0.27507 0.35804 0.0
H142 H 0.70136 0.34454 0.33588 0.0
H143 H 0.66444 0.30651 0.27263 0.0
C144 C 0.66631 0.28175 0.28598 0.0
O145 O 0.67804 0.28458 0.32316 0.0
H146 H 0.64036 0.27074 0.28413 0.0
C147 C 0.63092 0.35569 0.38348 0.0
C148 C 0.66153 0.3632 0.36806 0.0
C149 C 0.61679 0.32402 0.38024 0.0
C150 C 0.63397 0.29941 0.36176 0.0
C151 C 0.66424 0.30696 0.34539 0.0
C152 C 0.67834 0.3387 0.34912 0.0
H153 H 0.10759 0.1355 0.89816 0.0
H154 H 0.13042 0.23183 0.85698 0.0
H155 H 0.20317 0.15343 0.85168 0.0
H156 H 0.23284 0.21949 0.86713 0.0
C157 C 0.21457 0.23436 0.84889 0.0
O158 O 0.18893 0.21456 0.83308 0.0
H159 H 0.2037 0.25379 0.86631 0.0
C160 C 0.12505 0.15221 0.88581 0.0
C161 C 0.15672 0.14061 0.87641 0.0
C162 C 0.1155 0.18508 0.87935 0.0
C163 C 0.13793 0.20664 0.86321 0.0
C164 C 0.16945 0.1951 0.8531 0.0
C165 C 0.17906 0.16227 0.86022 0.0
H166 H 0.38446 0.5483 0.32169 0.0
H167 H 0.36343 0.63192 0.24997 0.0
H168 H 0.28603 0.55887 0.26208 0.0
H169 H 0.28564 0.58382 0.18417 0.0
C170 C 0.30028 0.60691 0.19026 0.0
O171 O 0.30145 0.61354 0.22808 0.0
H172 H 0.3264 0.60312 0.18127 0.0
C173 C 0.36732 0.56167 0.302 0.0
C174 C 0.33415 0.54979 0.29357 0.0
C175 C 0.37812 0.59137 0.28678 0.0
C176 C 0.35546 0.6091 0.2623 0.0
C177 C 0.32254 0.59704 0.25296 0.0
C178 C 0.31166 0.56777 0.26911 0.0
H179 H 0.89436 0.94795 0.811 0.0
H180 H 0.87544 0.8595 0.74615 0.0
H181 H 0.79875 0.93453 0.74663 0.0
H182 H 0.76918 0.87054 0.74486 0.0
C183 C 0.79015 0.85574 0.73433 0.0
O184 O 0.8139 0.87652 0.72065 0.0
H185 H 0.80192 0.84104 0.75817 0.0
C186 C 0.87828 0.93356 0.79115 0.0
C187 C 0.8457 0.9453 0.77961 0.0
C188 C 0.88948 0.90268 0.77944 0.0
C189 C 0.86749 0.88346 0.75551 0.0
C190 C 0.83495 0.89513 0.74355 0.0
C191 C 0.82408 0.92595 0.75562 0.0
H192 H 0.13732 0.88748 0.12715 0.0
H193 H 0.22625 0.04272 0.22236 0.0
H194 H 0.23361 0.92393 0.09586 0.0
H195 H 0.13909 0.99413 0.26249 0.0
H196 H 0.23688 0.99384 0.18466 0.0
H197 H 0.14412 0.91987 0.18457 0.0
C198 C 0.16026 0.90192 0.13294 0.0
C199 C 0.18487 0.9033 0.10701 0.0
C200 C 0.21604 0.99344 0.20258 0.0
C201 C 0.19251 0.9414 0.17193 0.0
C202 C 0.21019 0.02121 0.22431 0.0
C203 C 0.18161 0.02235 0.24514 0.0
C204 C 0.19289 0.96699 0.20161 0.0
C205 C 0.16125 0.99415 0.24649 0.0
C206 C 0.16421 0.92044 0.16568 0.0
C207 C 0.21417 0.9223 0.11546 0.0
N208 N 0.16691 0.96786 0.22447 0.0
N209 N 0.21689 0.94126 0.14694 0.0
H210 H 0.55456 0.7294 0.54074 0.0
H211 H 0.43764 0.64065 0.68304 0.0
H212 H 0.56733 0.63 0.58171 0.0
H213 H 0.4042 0.72645 0.61965 0.0
H214 H 0.49298 0.64486 0.65778 0.0
H215 H 0.50668 0.73641 0.5804 0.0
C216 C 0.5477 0.70939 0.55865 0.0
C217 C 0.56446 0.67898 0.55786 0.0
C218 C 0.4737 0.66298 0.64951 0.0
C219 C 0.51055 0.68678 0.60295 0.0
C220 C 0.44212 0.66052 0.66387 0.0
C221 C 0.41621 0.68278 0.65266 0.0
C222 C 0.47947 0.68774 0.62347 0.0
C223 C 0.42354 0.70862 0.62858 0.0
C224 C 0.5204 0.71331 0.58101 0.0
C225 C 0.55471 0.65369 0.58127 0.0
N226 N 0.45447 0.71014 0.61422 0.0
N227 N 0.52836 0.65812 0.60272 0.0
H228 H 0.83374 0.02581 0.02411 0.0
H229 H 0.80989 0.91369 0.20122 0.0
H230 H 0.8003 0.06581 0.12643 0.0
H231 H 0.8309 0.87726 0.09252 0.0
H232 H 0.79833 0.96844 0.17365 0.0
H233 H 0.82539 0.97054 0.04743 0.0
C234 C 0.82447 0.02286 0.05157 0.0
C235 C 0.81821 0.0503 0.07369 0.0
C236 C 0.80477 0.94828 0.15573 0.0
C237 C 0.80893 0.98682 0.10099 0.0
C238 C 0.81117 0.9171 0.1714 0.0
C239 C 0.82172 0.89128 0.14905 0.0
C240 C 0.80907 0.95335 0.11759 0.0
C241 C 0.82324 0.89676 0.11069 0.0
C242 C 0.81953 0.99124 0.06486 0.0
C243 C 0.80559 0.04514 0.10871 0.0
N244 N 0.81741 0.92724 0.09629 0.0
N245 N 0.80191 0.01387 0.12166 0.0
H246 H 0.42565 0.407 0.63825 0.0
H247 H 0.59374 0.34521 0.74753 0.0
H248 H 0.44514 0.30312 0.65249 0.0
H249 H 0.55062 0.44116 0.76443 0.0
H250 H 0.53918 0.32734 0.71621 0.0
H251 H 0.47079 0.41893 0.68668 0.0
C252 C 0.43935 0.38667 0.65195 0.0
C253 C 0.43196 0.35409 0.64129 0.0
C254 C 0.5415 0.35207 0.72749 0.0
C255 C 0.48418 0.36749 0.69642 0.0
C256 C 0.57256 0.36224 0.7455 0.0
C257 C 0.57686 0.39492 0.75795 0.0
C258 C 0.51485 0.37488 0.72171 0.0
C259 C 0.54864 0.41599 0.75444 0.0
C260 C 0.46503 0.39345 0.67973 0.0
C261 C 0.4502 0.32859 0.66004 0.0
N262 N 0.51908 0.40579 0.73613 0.0
N263 N 0.47605 0.33585 0.68632 0.0
H264 H 0.62964 0.56251 0.407 0.0
H265 H 0.71721 0.38856 0.40883 0.0
H266 H 0.72899 0.54688 0.46285 0.0
H267 H 0.63177 0.41566 0.3329 0.0
H268 H 0.72723 0.44723 0.42339 0.0
H269 H 0.63427 0.51044 0.37397 0.0
C270 C 0.65273 0.54821 0.41168 0.0
C271 C 0.67894 0.55873 0.43747 0.0
C272 C 0.70688 0.44039 0.40277 0.0
C273 C 0.6842 0.49852 0.40084 0.0
C274 C 0.70132 0.40702 0.39437 0.0
C275 C 0.67358 0.39759 0.36983 0.0
C276 C 0.68423 0.46412 0.38673 0.0
C277 C 0.65335 0.42214 0.35209 0.0
C278 C 0.65545 0.51847 0.39287 0.0
C279 C 0.70835 0.53944 0.44289 0.0
N280 N 0.65877 0.45423 0.36128 0.0
N281 N 0.70996 0.50979 0.42523 0.0
H282 H 0.94853 0.23416 0.00919 0.0
H283 H 0.05562 0.16221 0.84764 0.0
H284 H 0.92077 0.15017 0.93971 0.0
H285 H 0.09777 0.23045 0.93104 0.0
H286 H -0.00054 0.17017 0.87028 0.0
H287 H 0.99673 0.24475 0.97093 0.0
C288 C 0.95205 0.21862 0.98523 0.0
C289 C 0.93101 0.19118 0.9775 0.0
C290 C 0.02079 0.18389 0.88334 0.0
C291 C 0.98548 0.20292 0.93409 0.0
C292 C 0.05275 0.17943 0.87029 0.0
C293 C 0.08113 0.19549 0.88782 0.0
C294 C 0.01727 0.20411 0.91463 0.0
C295 C 0.07631 0.21762 0.91696 0.0
C296 C 0.97957 0.22448 0.96363 0.0
C297 C 0.93665 0.17145 0.94658 0.0
N298 N 0.04496 0.22088 0.93001 0.0
N299 N 0.96344 0.17757 0.92619 0.0
H300 H 0.26392 0.42352 0.46373 0.0
H301 H 0.36612 0.49048 0.29566 0.0
H302 H 0.36165 0.38847 0.4356 0.0
H303 H 0.27858 0.53994 0.33366 0.0
H304 H 0.35545 0.44396 0.33619 0.0
H305 H 0.26009 0.45752 0.40658 0.0
C306 C 0.28402 0.42229 0.44487 0.0
C307 C 0.31316 0.40337 0.45404 0.0
C308 C 0.3382 0.46472 0.33535 0.0
C309 C 0.30924 0.44198 0.38944 0.0
C310 C 0.34427 0.49121 0.31216 0.0
C311 C 0.32349 0.51919 0.31183 0.0
C312 C 0.3114 0.46634 0.35887 0.0
C313 C 0.29525 0.5188 0.33331 0.0
C314 C 0.28198 0.44178 0.41251 0.0
C315 C 0.33884 0.40285 0.42931 0.0
N316 N 0.29035 0.49301 0.35657 0.0
N317 N 0.3364 0.42204 0.39831 0.0
H318 H 0.06533 0.90725 0.9276 0.0
H319 H 0.90663 0.8406 0.80555 0.0
H320 H 0.05622 0.80321 0.90435 0.0
H321 H 0.94931 0.9369 0.78862 0.0
H322 H 0.95967 0.82478 0.84153 0.0
H323 H 0.02076 0.91804 0.87807 0.0
C324 C 0.05396 0.88668 0.91186 0.0
C325 C 0.06423 0.85431 0.92011 0.0
C326 C 0.95754 0.84914 0.8293 0.0
C327 C 0.01288 0.86641 0.86365 0.0
C328 C 0.92738 0.85815 0.80863 0.0
C329 C 0.92327 0.89036 0.79468 0.0
C330 C 0.98343 0.87265 0.83634 0.0
C331 C 0.95098 0.91212 0.79973 0.0
C332 C 0.02869 0.89284 0.88344 0.0
C333 C 0.04893 0.82853 0.8987 0.0
N334 N 0.97958 0.90308 0.82069 0.0
N335 N 0.02349 0.83507 0.87175 0.0
H336 H 0.86786 0.1192 0.9087 0.0
H337 H 0.78758 0.9567 0.81451 0.0
H338 H 0.77959 0.07038 0.94648 0.0
H339 H 0.87826 0.00461 0.78195 0.0
H340 H 0.77611 0.00472 0.85314 0.0
H341 H 0.86384 0.08459 0.85297 0.0
C342 C 0.84732 0.10146 0.90498 0.0
C343 C 0.82443 0.0972 0.93259 0.0
C344 C 0.79813 0.00502 0.83692 0.0
C345 C 0.81991 0.05706 0.869 0.0
C346 C 0.80452 0.97774 0.81469 0.0
C347 C 0.83415 0.97662 0.79553 0.0
C348 C 0.82159 0.0312 0.83991 0.0
C349 C 0.85541 0.00437 0.79682 0.0
C350 C 0.845 0.08168 0.87311 0.0
C351 C 0.79795 0.07426 0.92601 0.0
N352 N 0.84897 0.03032 0.81906 0.0
N353 N 0.79679 0.05457 0.89519 0.0
H354 H 0.41714 0.36145 0.44648 0.0
H355 H 0.59725 0.27543 0.42756 0.0
H356 H 0.45547 0.28358 0.52002 0.0
H357 H 0.55942 0.35946 0.36379 0.0
H358 H 0.54222 0.27134 0.4553 0.0
H359 H 0.46539 0.35405 0.40926 0.0
C360 C 0.43556 0.34254 0.45464 0.0
C361 C 0.43243 0.32343 0.48676 0.0
C362 C 0.5459 0.29041 0.43491 0.0
C363 C 0.48833 0.31503 0.4443 0.0
C364 C 0.57716 0.29264 0.41904 0.0
C365 C 0.58287 0.31809 0.39385 0.0
C366 C 0.52032 0.31366 0.42516 0.0
C367 C 0.55617 0.33981 0.38362 0.0
C368 C 0.46322 0.33833 0.43334 0.0
C369 C 0.45699 0.29902 0.49561 0.0
N370 N 0.52621 0.33723 0.39947 0.0
N371 N 0.4842 0.2958 0.47476 0.0
H372 H 0.22078 0.95801 0.98297 0.0
H373 H 0.1201 0.0882 0.84913 0.0
H374 H 0.12649 0.93873 0.91707 0.0
H375 H 0.21155 0.11326 0.91706 0.0
H376 H 0.12837 0.0305 0.86611 0.0
H377 H 0.22398 0.01195 0.95218 0.0
C378 C 0.20112 0.96488 0.96161 0.0
C379 C 0.17305 0.94414 0.95295 0.0
C380 C 0.14694 0.04841 0.8771 0.0
C381 C 0.1765 0.00547 0.91782 0.0
C382 C 0.1422 0.08133 0.86734 0.0
C383 C 0.16498 0.10537 0.88209 0.0
C384 C 0.17443 0.0394 0.90235 0.0
C385 C 0.19341 0.0953 0.90524 0.0
C386 C 0.20288 0.99566 0.94417 0.0
C387 C 0.14828 0.95419 0.92509 0.0
N388 N 0.1971 0.06303 0.9152 0.0
N389 N 0.15047 0.98414 0.90881 0.0
H390 H 0.54123 0.69294 0.41218 0.0
H391 H 0.4379 0.5578 0.28753 0.0
H392 H 0.57843 0.59573 0.38887 0.0
H393 H 0.39684 0.65306 0.31203 0.0
H394 H 0.4933 0.57547 0.31563 0.0
H395 H 0.49214 0.68301 0.36719 0.0
C396 C 0.53939 0.66974 0.39719 0.0
C397 C 0.56369 0.6449 0.40478 0.0
C398 C 0.47236 0.59274 0.31453 0.0
C399 C 0.50767 0.63338 0.35347 0.0
C400 C 0.44074 0.58262 0.29848 0.0
C401 C 0.41274 0.60387 0.29796 0.0
C402 C 0.47599 0.62425 0.33065 0.0
C403 C 0.41784 0.63594 0.31199 0.0
C404 C 0.51132 0.66406 0.37159 0.0
C405 C 0.56007 0.61538 0.38442 0.0
N406 N 0.44878 0.64503 0.32834 0.0
N407 N 0.53246 0.61035 0.36005 0.0
H408 H 0.27324 0.45425 0.57534 0.0
H409 H 0.361 0.58712 0.71659 0.0
H410 H 0.36541 0.43863 0.6462 0.0
H411 H 0.28538 0.6123 0.62803 0.0
H412 H 0.35126 0.52869 0.70271 0.0
H413 H 0.26682 0.50817 0.60514 0.0
C414 C 0.29175 0.4619 0.59762 0.0
C415 C 0.3202 0.44225 0.60796 0.0
C416 C 0.33623 0.54689 0.68676 0.0
C417 C 0.31291 0.50349 0.64212 0.0
C418 C 0.3416 0.58013 0.69491 0.0
C419 C 0.32388 0.60421 0.67339 0.0
C420 C 0.31334 0.53775 0.65648 0.0
C421 C 0.29931 0.59422 0.64529 0.0
C422 C 0.28813 0.49266 0.61449 0.0
C423 C 0.34341 0.45327 0.63696 0.0
N424 N 0.29507 0.56162 0.6372 0.0
N425 N 0.33938 0.48322 0.65281 0.0
H426 H 0.04672 0.77824 0.04164 0.0
H427 H 0.94063 0.85593 0.1986 0.0
H428 H 0.08211 0.85746 0.11529 0.0
H429 H 0.90583 0.77229 0.13205 0.0
H430 H 0.99698 0.85 0.17575 0.0
H431 H -0.00053 0.76895 0.08079 0.0
C432 C 0.04489 0.79333 0.06633 0.0
C433 C 0.06798 0.81915 0.07474 0.0
C434 C 0.97732 0.83247 0.16657 0.0
C435 C 0.01409 0.80871 0.11951 0.0
C436 C 0.94527 0.83583 0.17975 0.0
C437 C 0.91887 0.81462 0.16697 0.0
C438 C 0.98273 0.80818 0.1397 0.0
C439 C 0.9258 0.78903 0.14248 0.0
C440 C 0.01791 0.78802 0.08866 0.0
C441 C 0.06456 0.83771 0.10726 0.0
N442 N 0.95701 0.78685 0.12903 0.0
N443 N 0.03789 0.8324 0.12813 0.0
H444 H 0.62846 0.61412 0.61694 0.0
H445 H 0.71078 0.45868 0.72337 0.0
H446 H 0.71739 0.56453 0.58232 0.0
H447 H 0.62132 0.50953 0.75435 0.0
H448 H 0.72108 0.50335 0.67965 0.0
H449 H 0.63289 0.58264 0.67478 0.0
C450 C 0.64915 0.59673 0.62174 0.0
C451 C 0.6722 0.5914 0.59455 0.0
C452 C 0.69958 0.50505 0.69655 0.0
C453 C 0.67723 0.55483 0.66065 0.0
C454 C 0.69384 0.47969 0.72166 0.0
C455 C 0.66489 0.48031 0.74201 0.0
C456 C 0.67616 0.53105 0.69191 0.0
C457 C 0.64361 0.50792 0.73866 0.0
C458 C 0.65174 0.57879 0.65484 0.0
C459 C 0.69893 0.56912 0.6025 0.0
N460 N 0.64943 0.53196 0.71372 0.0
N461 N 0.70037 0.55113 0.63462 0.0
H462 H 0.93713 0.18761 0.14721 0.0
H463 H 0.10714 0.08835 0.17357 0.0
H464 H 0.94766 0.08962 0.10253 0.0
H465 H 0.07135 0.13334 0.27237 0.0
H466 H 0.0531 0.10122 0.13939 0.0
H467 H 0.99 0.17901 0.18765 0.0
C468 C 0.95031 0.16428 0.14613 0.0
C469 C 0.93802 0.13934 0.12134 0.0
C470 C 0.05716 0.10834 0.16854 0.0
C471 C 0.99832 0.12991 0.16643 0.0
C472 C 0.08791 0.10088 0.18821 0.0
C473 C 0.09351 0.10882 0.22635 0.0
C474 C 0.03189 0.12464 0.18665 0.0
C475 C 0.06806 0.12651 0.24312 0.0
C476 C 0.98029 0.15945 0.16918 0.0
C477 C 0.95604 0.10956 0.12113 0.0
N478 N 0.03812 0.13378 0.22314 0.0
N479 N 0.98551 0.10591 0.14283 0.0
H480 H 0.25818 0.78405 0.05868 0.0
H481 H 0.23235 0.61728 0.17287 0.0
H482 H 0.16024 0.74065 0.07417 0.0
H483 H 0.33052 0.66084 0.16062 0.0
H484 H 0.20545 0.66322 0.13764 0.0
H485 H 0.28535 0.73999 0.09677 0.0
C486 C 0.24237 0.76534 0.07011 0.0
C487 C 0.20686 0.76602 0.063 0.0
C488 C 0.23289 0.66278 0.14254 0.0
C489 C 0.23779 0.71553 0.10661 0.0
C490 C 0.24816 0.63655 0.16255 0.0
C491 C 0.28361 0.63509 0.16883 0.0
C492 C 0.25325 0.68784 0.12895 0.0
C493 C 0.30308 0.66091 0.15567 0.0
C494 C 0.25791 0.74019 0.09186 0.0
C495 C 0.1877 0.74113 0.07868 0.0
N496 N 0.28766 0.68618 0.13612 0.0
N497 N 0.2034 0.71692 0.09961 0.0
H498 H 0.67521 0.76818 0.54193 0.0
H499 H 0.81069 0.79313 0.71866 0.0
H500 H 0.74014 0.69103 0.5898 0.0
H501 H 0.73896 0.86785 0.67978 0.0
H502 H 0.78742 0.75652 0.66865 0.0
H503 H 0.70036 0.80631 0.58942 0.0
C504 C 0.69482 0.75928 0.56227 0.0
C505 C 0.70553 0.72631 0.56182 0.0
C506 C 0.77663 0.78087 0.67104 0.0
C507 C 0.73437 0.76979 0.61623 0.0
C508 C 0.78989 0.80168 0.69958 0.0
C509 C 0.77614 0.83314 0.70365 0.0
C510 C 0.74965 0.79177 0.64614 0.0
C511 C 0.74975 0.84347 0.67781 0.0
C512 C 0.70912 0.78104 0.58942 0.0
C513 C 0.73099 0.71617 0.58899 0.0
N514 N 0.73722 0.82277 0.6502 0.0
N515 N 0.74448 0.73779 0.61502 0.0
H516 H 0.83279 0.21831 0.15929 0.0
H517 H 0.6521 0.22487 0.24625 0.0
H518 H 0.74409 0.16393 0.11578 0.0
H519 H 0.73379 0.29268 0.27706 0.0
H520 H 0.68905 0.19572 0.20569 0.0
H521 H 0.80036 0.23929 0.20969 0.0
C522 C 0.80663 0.2105 0.16051 0.0
C523 C 0.79101 0.18962 0.13296 0.0
C524 C 0.69909 0.21675 0.22159 0.0
C525 C 0.75385 0.21352 0.19057 0.0
C526 C 0.67805 0.23329 0.24483 0.0
C527 C 0.69004 0.26115 0.26492 0.0
C528 C 0.73233 0.22825 0.21828 0.0
C529 C 0.72376 0.27119 0.26201 0.0
C530 C 0.78813 0.22257 0.18924 0.0
C531 C 0.75707 0.18028 0.1361 0.0
N532 N 0.74372 0.25487 0.23888 0.0
N533 N 0.73962 0.19242 0.16421 0.0
H534 H 0.32688 0.25921 0.65334 0.0
H535 H 0.20152 0.29362 0.81404 0.0
H536 H 0.26433 0.34621 0.65701 0.0
H537 H 0.26621 0.20837 0.81166 0.0
H538 H 0.22614 0.31474 0.7581 0.0
H539 H 0.30647 0.24125 0.71248 0.0
C540 C 0.30879 0.27454 0.66651 0.0
C541 C 0.29713 0.30418 0.64995 0.0
C542 C 0.2353 0.29162 0.77004 0.0
C543 C 0.27374 0.28376 0.71795 0.0
C544 C 0.22141 0.27972 0.80203 0.0
C545 C 0.23245 0.24962 0.81773 0.0
C546 C 0.26002 0.27298 0.75334 0.0
C547 C 0.25756 0.23201 0.80068 0.0
C548 C 0.29722 0.26429 0.70039 0.0
C549 C 0.27389 0.32309 0.66857 0.0
N550 N 0.27047 0.24391 0.76934 0.0
N551 N 0.2629 0.31251 0.7015 0.0
H552 H 0.75368 0.67595 0.41988 0.0
H553 H 0.72803 0.77309 0.22568 0.0
H554 H 0.65796 0.7175 0.37595 0.0
H555 H 0.82087 0.72313 0.26297 0.0
H556 H 0.70167 0.7522 0.28049 0.0
H557 H 0.77895 0.6928 0.36277 0.0
C558 C 0.738 0.68867 0.39832 0.0
C559 C 0.70369 0.69548 0.40285 0.0
C560 C 0.72769 0.74545 0.27654 0.0
C561 C 0.73239 0.71467 0.33742 0.0
C562 C 0.7426 0.75724 0.24521 0.0
C563 C 0.77635 0.74923 0.2397 0.0
C564 C 0.7469 0.72598 0.30281 0.0
C565 C 0.79456 0.72931 0.26613 0.0
C566 C 0.75241 0.69817 0.36566 0.0
C567 C 0.68455 0.71183 0.37383 0.0
N568 N 0.77963 0.71841 0.29668 0.0
N569 N 0.69918 0.72093 0.34244 0.0
H570 H 0.82264 0.2705 0.00169 0.0
H571 H 0.68797 0.30462 0.82671 0.0
H572 H 0.75306 0.19747 0.95218 0.0
H573 H 0.7653 0.37438 0.86576 0.0
H574 H 0.7084 0.26675 0.87658 0.0
H575 H 0.79876 0.31085 0.95616 0.0
C576 C 0.80218 0.26302 0.98151 0.0
C577 C 0.78994 0.23051 0.98068 0.0
C578 C 0.72103 0.29028 0.87425 0.0
C579 C 0.76266 0.27643 0.92854 0.0
C580 C 0.70943 0.31177 0.84577 0.0
C581 C 0.72563 0.34212 0.84177 0.0
C582 C 0.7488 0.29942 0.89913 0.0
C583 C 0.7527 0.35079 0.86764 0.0
C584 C 0.78866 0.28602 0.95545 0.0
C585 C 0.76346 0.22218 0.9538 0.0
N586 N 0.76361 0.32944 0.89518 0.0
N587 N 0.7508 0.24494 0.92881 0.0
H588 H 0.3368 0.2379 0.48512 0.0
H589 H 0.15916 0.17696 0.38379 0.0
H590 H 0.24113 0.28745 0.49515 0.0
H591 H 0.25226 0.12178 0.38243 0.0
H592 H 0.18967 0.21956 0.42156 0.0
H593 H 0.30718 0.19679 0.44458 0.0
C594 C 0.30959 0.24019 0.4788 0.0
C595 C 0.29143 0.26613 0.49378 0.0
C596 C 0.20348 0.19813 0.41311 0.0
C597 C 0.25739 0.21916 0.44726 0.0
C598 C 0.18606 0.17387 0.39162 0.0
C599 C 0.2032 0.14567 0.38075 0.0
C600 C 0.23838 0.19429 0.42346 0.0
C601 C 0.23815 0.14302 0.39087 0.0
C602 C 0.2927 0.21668 0.45566 0.0
C603 C 0.2562 0.26783 0.48446 0.0
N604 N 0.25461 0.16696 0.41182 0.0
N605 N 0.24038 0.24468 0.46186 0.0
H606 H 0.23264 0.85149 0.90317 0.0
H607 H 0.27563 0.69328 0.78287 0.0
H608 H 0.18179 0.75769 0.91082 0.0
H609 H 0.32726 0.78655 0.7771 0.0
H610 H 0.23603 0.71829 0.82403 0.0
H611 H 0.2627 0.83002 0.85151 0.0
C612 C 0.22762 0.82642 0.89387 0.0
C613 C 0.205 0.80621 0.91176 0.0
C614 C 0.25584 0.73338 0.81356 0.0
C615 C 0.23944 0.78145 0.85256 0.0
C616 C 0.27833 0.71912 0.79013 0.0
C617 C 0.30497 0.73781 0.77742 0.0
C618 C 0.26011 0.76657 0.8242 0.0
C619 C 0.3073 0.77126 0.78694 0.0
C620 C 0.24479 0.81419 0.8643 0.0
C621 C 0.19924 0.77407 0.89813 0.0
N622 N 0.28538 0.78452 0.81013 0.0
N623 N 0.2166 0.76259 0.86958 0.0
loop_
_geom_bond_atom_site_label_1
_geom_bond_atom_site_label_2
_geom_bond_distance
_geom_bond_site_symmetry_2
_ccdc_geom_bond_type
Fe0 O2 1.918 1_554 S
Fe0 O5 1.997 . S
Fe0 O6 2.002 . S
Fe0 O11 1.976 1_554 S
Fe0 O14 1.996 1_554 S
Fe1 O2 1.918 1_554 S
Fe1 O9 1.997 . S
Fe1 O12 1.996 1_554 S
Fe1 O16 1.976 1_554 S
Fe1 O19 2.002 . S
O2 Fe0 1.918 1_556 S
O2 Fe1 1.918 1_556 S
O2 Fe3 1.918 . S
Fe3 O2 1.918 . S
Fe3 O4 2.002 1_556 S
Fe3 O13 1.976 . S
Fe3 O17 1.996 . S
Fe3 O20 1.997 1_556 S
O4 Fe3 2.002 1_554 S
O4 C21 1.295 . S
O5 Fe0 1.997 . S
O5 C21 1.235 . S
O6 Fe0 2.002 . S
O6 C7 1.295 . S
C7 O6 1.295 . S
C7 O9 1.235 . S
C8 O13 1.287 . S
C8 O14 1.255 . S
O9 Fe1 1.997 . S
O9 C7 1.235 . S
C10 O16 1.287 . S
C10 O17 1.255 . S
O11 Fe0 1.976 1_556 S
O11 C18 1.287 . S
O12 Fe1 1.996 1_556 S
O12 C18 1.255 . S
O13 Fe3 1.976 . S
O13 C8 1.287 . S
O14 Fe0 1.996 1_556 S
O14 C8 1.255 . S
C15 O19 1.295 . S
C15 O20 1.235 . S
O16 Fe1 1.976 1_556 S
O16 C10 1.287 . S
O17 Fe3 1.996 . S
O17 C10 1.255 . S
C18 O11 1.287 . S
C18 O12 1.255 . S
O19 Fe1 2.002 . S
O19 C15 1.295 . S
O20 Fe3 1.997 1_554 S
O20 C15 1.235 . S
C21 O4 1.295 . S
C21 O5 1.235 . S
Fe22 O24 1.918 . S
Fe22 O27 1.997 . S
Fe22 O28 2.002 . S
Fe22 O33 1.976 . S
Fe22 O36 1.996 . S
Fe23 O24 1.918 . S
Fe23 O31 1.997 . S
Fe23 O34 1.996 . S
Fe23 O38 1.976 . S
Fe23 O41 2.002 . S
O24 Fe22 1.918 . S
O24 Fe23 1.918 . S
O24 Fe25 1.918 . S
Fe25 O24 1.918 . S
Fe25 O26 2.002 . S
Fe25 O35 1.976 . S
Fe25 O39 1.996 . S
Fe25 O42 1.997 . S
O26 Fe25 2.002 . S
O26 C43 1.295 . S
O27 Fe22 1.997 . S
O27 C43 1.235 . S
O28 Fe22 2.002 . S
O28 C29 1.295 . S
C29 O28 1.295 . S
C29 O31 1.235 . S
C30 O35 1.287 . S
C30 O36 1.255 . S
O31 Fe23 1.997 . S
O31 C29 1.235 . S
C32 O38 1.287 . S
C32 O39 1.255 . S
O33 Fe22 1.976 . S
O33 C40 1.287 . S
O34 Fe23 1.996 . S
O34 C40 1.255 . S
O35 Fe25 1.976 . S
O35 C30 1.287 . S
O36 Fe22 1.996 . S
O36 C30 1.255 . S
C37 O41 1.295 . S
C37 O42 1.235 . S
O38 Fe23 1.976 . S
O38 C32 1.287 . S
O39 Fe25 1.996 . S
O39 C32 1.255 . S
C40 O33 1.287 . S
C40 O34 1.255 . S
O41 Fe23 2.002 . S
O41 C37 1.295 . S
O42 Fe25 1.997 . S
O42 C37 1.235 . S
C43 O26 1.295 . S
C43 O27 1.235 . S
Fe44 O46 1.918 . S
Fe44 O49 1.997 . S
Fe44 O50 2.002 . S
Fe44 O55 1.976 . S
Fe44 O58 1.996 . S
Fe45 O46 1.918 . S
Fe45 O53 1.997 . S
Fe45 O56 1.996 . S
Fe45 O60 1.976 . S
Fe45 O63 2.002 1_554 S
O46 Fe44 1.918 . S
O46 Fe45 1.918 . S
O46 Fe47 1.918 . S
Fe47 O46 1.918 . S
Fe47 O48 2.002 . S
Fe47 O57 1.976 . S
Fe47 O61 1.996 . S
Fe47 O64 1.997 1_554 S
O48 Fe47 2.002 . S
O48 C65 1.295 . S
O49 Fe44 1.997 . S
O49 C65 1.235 . S
O50 Fe44 2.002 . S
O50 C51 1.295 . S
C51 O50 1.295 . S
C51 O53 1.235 . S
C52 O57 1.287 . S
C52 O58 1.255 . S
O53 Fe45 1.997 . S
O53 C51 1.235 . S
C54 O60 1.287 . S
C54 O61 1.255 . S
O55 Fe44 1.976 . S
O55 C62 1.287 . S
O56 Fe45 1.996 . S
O56 C62 1.255 . S
O57 Fe47 1.976 . S
O57 C52 1.287 . S
O58 Fe44 1.996 . S
O58 C52 1.255 . S
C59 O63 1.295 . S
C59 O64 1.235 . S
O60 Fe45 1.976 . S
O60 C54 1.287 . S
O61 Fe47 1.996 . S
O61 C54 1.255 . S
C62 O55 1.287 . S
C62 O56 1.255 . S
O63 Fe45 2.002 1_556 S
O63 C59 1.295 . S
O64 Fe47 1.997 1_556 S
O64 C59 1.235 . S
C65 O48 1.295 . S
C65 O49 1.235 . S
Fe66 O68 1.918 . S
Fe66 O71 1.997 . S
Fe66 O72 2.002 . S
Fe66 O77 1.976 . S
Fe66 O80 1.996 . S
Fe67 O68 1.918 . S
Fe67 O75 1.997 . S
Fe67 O78 1.996 . S
Fe67 O82 1.976 . S
Fe67 O85 2.002 . S
O68 Fe66 1.918 . S
O68 Fe67 1.918 . S
O68 Fe69 1.918 . S
Fe69 O68 1.918 . S
Fe69 O70 2.002 . S
Fe69 O79 1.976 . S
Fe69 O83 1.996 . S
Fe69 O86 1.997 . S
O70 Fe69 2.002 . S
O70 C87 1.295 . S
O71 Fe66 1.997 . S
O71 C87 1.235 . S
O72 Fe66 2.002 . S
O72 C73 1.295 . S
C73 O72 1.295 . S
C73 O75 1.235 . S
C74 O79 1.287 . S
C74 O80 1.255 . S
O75 Fe67 1.997 . S
O75 C73 1.235 . S
C76 O82 1.287 . S
C76 O83 1.255 . S
O77 Fe66 1.976 . S
O77 C84 1.287 . S
O78 Fe67 1.996 . S
O78 C84 1.255 . S
O79 Fe69 1.976 . S
O79 C74 1.287 . S
O80 Fe66 1.996 . S
O80 C74 1.255 . S
C81 O85 1.295 . S
C81 O86 1.235 . S
O82 Fe67 1.976 . S
O82 C76 1.287 . S
O83 Fe69 1.996 . S
O83 C76 1.255 . S
C84 O77 1.287 . S
C84 O78 1.255 . S
O85 Fe67 2.002 . S
O85 C81 1.295 . S
O86 Fe69 1.997 . S
O86 C81 1.235 . S
C87 O70 1.295 . S
C87 O71 1.235 . S
H88 C95 0.929 . S
H89 C98 0.930 . S
H90 C100 0.929 . S
H91 C92 0.969 . S
C92 H91 0.969 . S
C92 O93 1.550 . S
C92 H94 0.973 . S
O93 C92 1.550 . S
O93 C99 1.412 . S
H94 C92 0.973 . S
C95 H88 0.929 . S
C95 C96 1.400 . S
C95 C97 1.364 . S
C96 C95 1.400 . S
C96 C100 1.377 . S
C97 C95 1.364 . S
C97 C98 1.374 . S
C98 H89 0.930 . S
C98 C97 1.374 . S
C98 C99 1.383 . S
C99 O93 1.412 . S
C99 C98 1.383 . S
C99 C100 1.394 . S
C100 H90 0.929 . S
C100 C96 1.377 . S
C100 C99 1.394 . S
H101 C108 0.929 . S
H102 C111 0.930 . S
H103 C113 0.929 . S
H104 C105 0.969 . S
C105 H104 0.969 . S
C105 O106 1.550 . S
C105 H107 0.973 . S
O106 C105 1.550 . S
O106 C112 1.412 . S
H107 C105 0.973 . S
C108 H101 0.929 . S
C108 C109 1.400 . S
C108 C110 1.364 . S
C109 C108 1.400 . S
C109 C113 1.377 . S
C110 C108 1.364 . S
C110 C111 1.374 . S
C111 H102 0.930 . S
C111 C110 1.374 . S
C111 C112 1.383 . S
C112 O106 1.412 . S
C112 C111 1.383 . S
C112 C113 1.394 . S
C113 H103 0.929 . S
C113 C109 1.377 . S
C113 C112 1.394 . S
H114 C121 0.929 . S
H115 C124 0.930 . S
H116 C126 0.929 . S
H117 C118 0.969 . S
C118 H117 0.969 . S
C118 O119 1.550 . S
C118 H120 0.973 . S
O119 C118 1.550 . S
O119 C125 1.412 . S
H120 C118 0.973 . S
C121 H114 0.929 . S
C121 C122 1.400 . S
C121 C123 1.364 . S
C122 C121 1.400 . S
C122 C126 1.377 . S
C123 C121 1.364 . S
C123 C124 1.374 . S
C124 H115 0.930 . S
C124 C123 1.374 . S
C124 C125 1.383 . S
C125 O119 1.412 . S
C125 C124 1.383 . S
C125 C126 1.394 . S
C126 H116 0.929 . S
C126 C122 1.377 . S
C126 C125 1.394 . S
H127 C134 0.929 . S
H128 C137 0.930 . S
H129 C139 0.929 . S
H130 C131 0.969 . S
C131 H130 0.969 . S
C131 O132 1.550 . S
C131 H133 0.973 . S
O132 C131 1.550 . S
O132 C138 1.412 . S
H133 C131 0.973 . S
C134 H127 0.929 . S
C134 C135 1.400 . S
C134 C136 1.364 . S
C135 C134 1.400 . S
C135 C139 1.377 . S
C136 C134 1.364 . S
C136 C137 1.374 . S
C137 H128 0.930 . S
C137 C136 1.374 . S
C137 C138 1.383 . S
C138 O132 1.412 . S
C138 C137 1.383 . S
C138 C139 1.394 . S
C139 H129 0.929 . S
C139 C135 1.377 . S
C139 C138 1.394 . S
H140 C147 0.929 . S
H141 C150 0.930 . S
H142 C152 0.929 . S
H143 C144 0.969 . S
C144 H143 0.969 . S
C144 O145 1.550 . S
C144 H146 0.973 . S
O145 C144 1.550 . S
O145 C151 1.412 . S
H146 C144 0.973 . S
C147 H140 0.929 . S
C147 C148 1.400 . S
C147 C149 1.364 . S
C148 C147 1.400 . S
C148 C152 1.377 . S
C149 C147 1.364 . S
C149 C150 1.374 . S
C150 H141 0.930 . S
C150 C149 1.374 . S
C150 C151 1.383 . S
C151 O145 1.412 . S
C151 C150 1.383 . S
C151 C152 1.394 . S
C152 H142 0.929 . S
C152 C148 1.377 . S
C152 C151 1.394 . S
H153 C160 0.929 . S
H154 C163 0.930 . S
H155 C165 0.929 . S
H156 C157 0.969 . S
C157 H156 0.969 . S
C157 O158 1.550 . S
C157 H159 0.973 . S
O158 C157 1.550 . S
O158 C164 1.412 . S
H159 C157 0.973 . S
C160 H153 0.929 . S
C160 C161 1.400 . S
C160 C162 1.364 . S
C161 C160 1.400 . S
C161 C165 1.377 . S
C162 C160 1.364 . S
C162 C163 1.374 . S
C163 H154 0.930 . S
C163 C162 1.374 . S
C163 C164 1.383 . S
C164 O158 1.412 . S
C164 C163 1.383 . S
C164 C165 1.394 . S
C165 H155 0.929 . S
C165 C161 1.377 . S
C165 C164 1.394 . S
H166 C173 0.929 . S
H167 C176 0.930 . S
H168 C178 0.929 . S
H169 C170 0.969 . S
C170 H169 0.969 . S
C170 O171 1.550 . S
C170 H172 0.973 . S
O171 C170 1.550 . S
O171 C177 1.412 . S
H172 C170 0.973 . S
C173 H166 0.929 . S
C173 C174 1.400 . S
C173 C175 1.364 . S
C174 C173 1.400 . S
C174 C178 1.377 . S
C175 C173 1.364 . S
C175 C176 1.374 . S
C176 H167 0.930 . S
C176 C175 1.374 . S
C176 C177 1.383 . S
C177 O171 1.412 . S
C177 C176 1.383 . S
C177 C178 1.394 . S
C178 H168 0.929 . S
C178 C174 1.377 . S
C178 C177 1.394 . S
H179 C186 0.929 . S
H180 C189 0.930 . S
H181 C191 0.929 . S
H182 C183 0.969 . S
C183 H182 0.969 . S
C183 O184 1.550 . S
C183 H185 0.973 . S
O184 C183 1.550 . S
O184 C190 1.412 . S
H185 C183 0.973 . S
C186 H179 0.929 . S
C186 C187 1.400 . S
C186 C188 1.364 . S
C187 C186 1.400 . S
C187 C191 1.377 . S
C188 C186 1.364 . S
C188 C189 1.374 . S
C189 H180 0.930 . S
C189 C188 1.374 . S
C189 C190 1.383 . S
C190 O184 1.412 . S
C190 C189 1.383 . S
C190 C191 1.394 . S
C191 H181 0.929 . S
C191 C187 1.377 . S
C191 C190 1.394 . S
H192 C198 0.930 . S
H193 C202 0.930 . S
H194 C207 0.929 . S
H195 C205 0.929 . S
H196 C200 0.929 . S
H197 C206 0.929 . S
C198 H192 0.930 . S
C198 C199 1.367 . S
C198 C206 1.378 . S
C199 C198 1.367 . S
C199 C207 1.433 . S
C200 H196 0.929 . S
C200 C202 1.378 . S
C200 C204 1.350 1_545 S
C201 C204 1.463 . S
C201 C206 1.350 . S
C201 N209 1.427 . S
C202 H193 0.930 . S
C202 C200 1.378 . S
C202 C203 1.367 . S
C203 C202 1.367 . S
C203 C205 1.433 1_545 S
C204 C200 1.350 1_565 S
C204 C201 1.463 . S
C204 N208 1.427 . S
C205 H195 0.929 . S
C205 C203 1.433 1_565 S
C205 N208 1.384 . S
C206 H197 0.929 . S
C206 C198 1.378 . S
C206 C201 1.350 . S
C207 H194 0.929 . S
C207 C199 1.433 . S
C207 N209 1.384 . S
N208 C204 1.427 . S
N208 C205 1.384 . S
N209 C201 1.427 . S
N209 C207 1.384 . S
H210 C216 0.930 . S
H211 C220 0.930 . S
H212 C225 0.929 . S
H213 C223 0.929 . S
H214 C218 0.929 . S
H215 C224 0.929 . S
C216 H210 0.930 . S
C216 C217 1.367 . S
C216 C224 1.378 . S
C217 C216 1.367 . S
C217 C225 1.433 . S
C218 H214 0.929 . S
C218 C220 1.378 . S
C218 C222 1.350 . S
C219 C222 1.463 . S
C219 C224 1.350 . S
C219 N227 1.427 . S
C220 H211 0.930 . S
C220 C218 1.378 . S
C220 C221 1.367 . S
C221 C220 1.367 . S
C221 C223 1.433 . S
C222 C218 1.350 . S
C222 C219 1.463 . S
C222 N226 1.427 . S
C223 H213 0.929 . S
C223 C221 1.433 . S
C223 N226 1.384 . S
C224 H215 0.929 . S
C224 C216 1.378 . S
C224 C219 1.350 . S
C225 H212 0.929 . S
C225 C217 1.433 . S
C225 N227 1.384 . S
N226 C222 1.427 . S
N226 C223 1.384 . S
N227 C219 1.427 . S
N227 C225 1.384 . S
H228 C234 0.930 . S
H229 C238 0.930 . S
H230 C243 0.929 . S
H231 C241 0.929 . S
H232 C236 0.929 . S
H233 C242 0.929 . S
C234 H228 0.930 . S
C234 C235 1.367 . S
C234 C242 1.378 1_545 S
C235 C234 1.367 . S
C235 C243 1.433 . S
C236 H232 0.929 . S
C236 C238 1.378 . S
C236 C240 1.350 . S
C237 C240 1.463 . S
C237 C242 1.350 . S
C237 N245 1.427 . S
C238 H229 0.930 . S
C238 C236 1.378 . S
C238 C239 1.367 . S
C239 C238 1.367 . S
C239 C241 1.433 . S
C240 C236 1.350 . S
C240 C237 1.463 . S
C240 N244 1.427 . S
C241 H231 0.929 . S
C241 C239 1.433 . S
C241 N244 1.384 . S
C242 H233 0.929 . S
C242 C234 1.378 1_565 S
C242 C237 1.350 . S
C243 H230 0.929 . S
C243 C235 1.433 . S
C243 N245 1.384 1_545 S
N244 C240 1.427 . S
N244 C241 1.384 . S
N245 C237 1.427 . S
N245 C243 1.384 1_565 S
H246 C252 0.930 . S
H247 C256 0.930 . S
H248 C261 0.929 . S
H249 C259 0.929 . S
H250 C254 0.929 . S
H251 C260 0.929 . S
C252 H246 0.930 . S
C252 C253 1.367 . S
C252 C260 1.378 . S
C253 C252 1.367 . S
C253 C261 1.433 . S
C254 H250 0.929 . S
C254 C256 1.378 . S
C254 C258 1.350 . S
C255 C258 1.463 . S
C255 C260 1.350 . S
C255 N263 1.427 . S
C256 H247 0.930 . S
C256 C254 1.378 . S
C256 C257 1.367 . S
C257 C256 1.367 . S
C257 C259 1.433 . S
C258 C254 1.350 . S
C258 C255 1.463 . S
C258 N262 1.427 . S
C259 H249 0.929 . S
C259 C257 1.433 . S
C259 N262 1.384 . S
C260 H251 0.929 . S
C260 C252 1.378 . S
C260 C255 1.350 . S
C261 H248 0.929 . S
C261 C253 1.433 . S
C261 N263 1.384 . S
N262 C258 1.427 . S
N262 C259 1.384 . S
N263 C255 1.427 . S
N263 C261 1.384 . S
H264 C270 0.930 . S
H265 C274 0.930 . S
H266 C279 0.929 . S
H267 C277 0.929 . S
H268 C272 0.929 . S
H269 C278 0.929 . S
C270 H264 0.930 . S
C270 C271 1.367 . S
C270 C278 1.378 . S
C271 C270 1.367 . S
C271 C279 1.433 . S
C272 H268 0.929 . S
C272 C274 1.378 . S
C272 C276 1.350 . S
C273 C276 1.463 . S
C273 C278 1.350 . S
C273 N281 1.427 . S
C274 H265 0.930 . S
C274 C272 1.378 . S
C274 C275 1.367 . S
C275 C274 1.367 . S
C275 C277 1.433 . S
C276 C272 1.350 . S
C276 C273 1.463 . S
C276 N280 1.427 . S
C277 H267 0.929 . S
C277 C275 1.433 . S
C277 N280 1.384 . S
C278 H269 0.929 . S
C278 C270 1.378 . S
C278 C273 1.350 . S
C279 H266 0.929 . S
C279 C271 1.433 . S
C279 N281 1.384 . S
N280 C276 1.427 . S
N280 C277 1.384 . S
N281 C273 1.427 . S
N281 C279 1.384 . S
H282 C288 0.956 . S
H283 C292 0.930 . S
H284 C297 0.929 . S
H285 C295 0.929 . S
H286 C290 0.929 . S
H287 C296 0.929 . S
C288 H282 0.956 . S
C288 C289 1.355 1_554 S
C288 C296 1.365 1_654 S
C289 C288 1.355 1_556 S
C289 C297 1.433 . S
C290 H286 0.929 . S
C290 C292 1.378 . S
C290 C294 1.350 . S
C291 C294 1.463 . S
C291 C296 1.350 . S
C291 N299 1.427 . S
C292 H283 0.930 . S
C292 C290 1.378 . S
C292 C293 1.367 . S
C293 C292 1.367 . S
C293 C295 1.433 . S
C294 C290 1.350 . S
C294 C291 1.463 . S
C294 N298 1.427 . S
C295 H285 0.929 . S
C295 C293 1.433 . S
C295 N298 1.384 . S
C296 H287 0.929 . S
C296 C288 1.365 1_456 S
C296 C291 1.350 . S
C297 H284 0.929 . S
C297 C289 1.433 . S
C297 N299 1.384 1_655 S
N298 C294 1.427 . S
N298 C295 1.384 . S
N299 C291 1.427 . S
N299 C297 1.384 1_455 S
H300 C306 0.930 . S
H301 C310 0.930 . S
H302 C315 0.929 . S
H303 C313 0.929 . S
H304 C308 0.929 . S
H305 C314 0.929 . S
C306 H300 0.930 . S
C306 C307 1.367 . S
C306 C314 1.378 . S
C307 C306 1.367 . S
C307 C315 1.433 . S
C308 H304 0.929 . S
C308 C310 1.378 . S
C308 C312 1.350 . S
C309 C312 1.463 . S
C309 C314 1.350 . S
C309 N317 1.427 . S
C310 H301 0.930 . S
C310 C308 1.378 . S
C310 C311 1.367 . S
C311 C310 1.367 . S
C311 C313 1.433 . S
C312 C308 1.350 . S
C312 C309 1.463 . S
C312 N316 1.427 . S
C313 H303 0.929 . S
C313 C311 1.433 . S
C313 N316 1.384 . S
C314 H305 0.929 . S
C314 C306 1.378 . S
C314 C309 1.350 . S
C315 H302 0.929 . S
C315 C307 1.433 . S
C315 N317 1.384 . S
N316 C312 1.427 . S
N316 C313 1.384 . S
N317 C309 1.427 . S
N317 C315 1.384 . S
H318 C324 0.930 . S
H319 C328 0.930 . S
H320 C333 0.929 . S
H321 C331 0.929 . S
H322 C326 0.929 . S
H323 C332 0.929 . S
C324 H318 0.930 . S
C324 C325 1.367 . S
C324 C332 1.378 1_455 S
C325 C324 1.367 . S
C325 C333 1.433 . S
C326 H322 0.929 . S
C326 C328 1.378 . S
C326 C330 1.350 . S
C327 C330 1.463 . S
C327 C332 1.350 . S
C327 N335 1.427 . S
C328 H319 0.930 . S
C328 C326 1.378 . S
C328 C329 1.367 . S
C329 C328 1.367 . S
C329 C331 1.433 . S
C330 C326 1.350 . S
C330 C327 1.463 . S
C330 N334 1.427 . S
C331 H321 0.929 . S
C331 C329 1.433 . S
C331 N334 1.384 . S
C332 H323 0.929 . S
C332 C324 1.378 1_655 S
C332 C327 1.350 . S
C333 H320 0.929 . S
C333 C325 1.433 . S
C333 N335 1.384 1_455 S
N334 C330 1.427 . S
N334 C331 1.384 . S
N335 C327 1.427 . S
N335 C333 1.384 1_655 S
H336 C342 0.930 . S
H337 C346 0.930 . S
H338 C351 0.929 . S
H339 C349 0.929 . S
H340 C344 0.929 . S
H341 C350 0.929 . S
C342 H336 0.930 . S
C342 C343 1.367 . S
C342 C350 1.378 . S
C343 C342 1.367 . S
C343 C351 1.433 . S
C344 H340 0.929 . S
C344 C346 1.378 . S
C344 C348 1.350 1_565 S
C345 C348 1.463 . S
C345 C350 1.350 . S
C345 N353 1.427 . S
C346 H337 0.930 . S
C346 C344 1.378 . S
C346 C347 1.367 . S
C347 C346 1.367 . S
C347 C349 1.433 . S
C348 C344 1.350 1_545 S
C348 C345 1.463 . S
C348 N352 1.427 . S
C349 H339 0.929 . S
C349 C347 1.433 . S
C349 N352 1.384 1_565 S
C350 H341 0.929 . S
C350 C342 1.378 . S
C350 C345 1.350 . S
C351 H338 0.929 . S
C351 C343 1.433 . S
C351 N353 1.384 . S
N352 C348 1.427 . S
N352 C349 1.384 1_545 S
N353 C345 1.427 . S
N353 C351 1.384 . S
H354 C360 0.930 . S
H355 C364 0.930 . S
H356 C369 0.929 . S
H357 C367 0.929 . S
H358 C362 0.929 . S
H359 C368 0.929 . S
C360 H354 0.930 . S
C360 C361 1.367 . S
C360 C368 1.378 . S
C361 C360 1.367 . S
C361 C369 1.433 . S
C362 H358 0.929 . S
C362 C364 1.378 . S
C362 C366 1.350 . S
C363 C366 1.463 . S
C363 C368 1.350 . S
C363 N371 1.427 . S
C364 H355 0.930 . S
C364 C362 1.378 . S
C364 C365 1.367 . S
C365 C364 1.367 . S
C365 C367 1.433 . S
C366 C362 1.350 . S
C366 C363 1.463 . S
C366 N370 1.427 . S
C367 H357 0.929 . S
C367 C365 1.433 . S
C367 N370 1.384 . S
C368 H359 0.929 . S
C368 C360 1.378 . S
C368 C363 1.350 . S
C369 H356 0.929 . S
C369 C361 1.433 . S
C369 N371 1.384 . S
N370 C366 1.427 . S
N370 C367 1.384 . S
N371 C363 1.427 . S
N371 C369 1.384 . S
H372 C378 0.930 . S
H373 C382 0.930 . S
H374 C387 0.929 . S
H375 C385 0.929 . S
H376 C380 0.929 . S
H377 C386 0.929 . S
C378 H372 0.930 . S
C378 C379 1.367 . S
C378 C386 1.378 1_565 S
C379 C378 1.367 . S
C379 C387 1.433 . S
C380 H376 0.929 . S
C380 C382 1.378 . S
C380 C384 1.350 . S
C381 C384 1.463 . S
C381 C386 1.350 . S
C381 N389 1.427 . S
C382 H373 0.930 . S
C382 C380 1.378 . S
C382 C383 1.367 . S
C383 C382 1.367 . S
C383 C385 1.433 . S
C384 C380 1.350 . S
C384 C381 1.463 . S
C384 N388 1.427 . S
C385 H375 0.929 . S
C385 C383 1.433 . S
C385 N388 1.384 . S
C386 H377 0.929 . S
C386 C378 1.378 1_545 S
C386 C381 1.350 . S
C387 H374 0.929 . S
C387 C379 1.433 . S
C387 N389 1.384 1_565 S
N388 C384 1.427 . S
N388 C385 1.384 . S
N389 C381 1.427 . S
N389 C387 1.384 1_545 S
H390 C396 0.930 . S
H391 C400 0.930 . S
H392 C405 0.929 . S
H393 C403 0.929 . S
H394 C398 0.929 . S
H395 C404 0.929 . S
C396 H390 0.930 . S
C396 C397 1.367 . S
C396 C404 1.378 . S
C397 C396 1.367 . S
C397 C405 1.433 . S
C398 H394 0.929 . S
C398 C400 1.378 . S
C398 C402 1.350 . S
C399 C402 1.463 . S
C399 C404 1.350 . S
C399 N407 1.427 . S
C400 H391 0.930 . S
C400 C398 1.378 . S
C400 C401 1.367 . S
C401 C400 1.367 . S
C401 C403 1.433 . S
C402 C398 1.350 . S
C402 C399 1.463 . S
C402 N406 1.427 . S
C403 H393 0.929 . S
C403 C401 1.433 . S
C403 N406 1.384 . S
C404 H395 0.929 . S
C404 C396 1.378 . S
C404 C399 1.350 . S
C405 H392 0.929 . S
C405 C397 1.433 . S
C405 N407 1.384 . S
N406 C402 1.427 . S
N406 C403 1.384 . S
N407 C399 1.427 . S
N407 C405 1.384 . S
H408 C414 0.930 . S
H409 C418 0.930 . S
H410 C423 0.929 . S
H411 C421 0.929 . S
H412 C416 0.929 . S
H413 C422 0.929 . S
C414 H408 0.930 . S
C414 C415 1.367 . S
C414 C422 1.378 . S
C415 C414 1.367 . S
C415 C423 1.433 . S
C416 H412 0.929 . S
C416 C418 1.378 . S
C416 C420 1.350 . S
C417 C420 1.463 . S
C417 C422 1.350 . S
C417 N425 1.427 . S
C418 H409 0.930 . S
C418 C416 1.378 . S
C418 C419 1.367 . S
C419 C418 1.367 . S
C419 C421 1.433 . S
C420 C416 1.350 . S
C420 C417 1.463 . S
C420 N424 1.427 . S
C421 H411 0.929 . S
C421 C419 1.433 . S
C421 N424 1.384 . S
C422 H413 0.929 . S
C422 C414 1.378 . S
C422 C417 1.350 . S
C423 H410 0.929 . S
C423 C415 1.433 . S
C423 N425 1.384 . S
N424 C420 1.427 . S
N424 C421 1.384 . S
N425 C417 1.427 . S
N425 C423 1.384 . S
H426 C432 0.930 . S
H427 C436 0.930 . S
H428 C441 0.929 . S
H429 C439 0.929 . S
H430 C434 0.929 . S
H431 C440 0.929 . S
C432 H426 0.930 . S
C432 C433 1.367 . S
C432 C440 1.378 1_455 S
C433 C432 1.367 . S
C433 C441 1.433 . S
C434 H430 0.929 . S
C434 C436 1.378 . S
C434 C438 1.350 . S
C435 C438 1.463 . S
C435 C440 1.350 . S
C435 N443 1.427 . S
C436 H427 0.930 . S
C436 C434 1.378 . S
C436 C437 1.367 . S
C437 C436 1.367 . S
C437 C439 1.433 . S
C438 C434 1.350 . S
C438 C435 1.463 . S
C438 N442 1.427 . S
C439 H429 0.929 . S
C439 C437 1.433 . S
C439 N442 1.384 . S
C440 H431 0.929 . S
C440 C432 1.378 1_655 S
C440 C435 1.350 . S
C441 H428 0.929 . S
C441 C433 1.433 . S
C441 N443 1.384 1_455 S
N442 C438 1.427 . S
N442 C439 1.384 . S
N443 C435 1.427 . S
N443 C441 1.384 1_655 S
H444 C450 0.930 . S
H445 C454 0.930 . S
H446 C459 0.929 . S
H447 C457 0.929 . S
H448 C452 0.929 . S
H449 C458 0.929 . S
C450 H444 0.930 . S
C450 C451 1.367 . S
C450 C458 1.378 . S
C451 C450 1.367 . S
C451 C459 1.433 . S
C452 H448 0.929 . S
C452 C454 1.378 . S
C452 C456 1.350 . S
C453 C456 1.463 . S
C453 C458 1.350 . S
C453 N461 1.427 . S
C454 H445 0.930 . S
C454 C452 1.378 . S
C454 C455 1.367 . S
C455 C454 1.367 . S
C455 C457 1.433 . S
C456 C452 1.350 . S
C456 C453 1.463 . S
C456 N460 1.427 . S
C457 H447 0.929 . S
C457 C455 1.433 . S
C457 N460 1.384 . S
C458 H449 0.929 . S
C458 C450 1.378 . S
C458 C453 1.350 . S
C459 H446 0.929 . S
C459 C451 1.433 . S
C459 N461 1.384 . S
N460 C456 1.427 . S
N460 C457 1.384 . S
N461 C453 1.427 . S
N461 C459 1.384 . S
H462 C468 0.930 . S
H463 C472 0.930 . S
H464 C477 0.929 . S
H465 C475 0.929 . S
H466 C470 0.929 . S
H467 C476 0.929 . S
C468 H462 0.930 . S
C468 C469 1.367 . S
C468 C476 1.378 . S
C469 C468 1.367 . S
C469 C477 1.433 . S
C470 H466 0.929 . S
C470 C472 1.378 . S
C470 C474 1.350 . S
C471 C474 1.463 . S
C471 C476 1.350 1_455 S
C471 N479 1.427 . S
C472 H463 0.930 . S
C472 C470 1.378 . S
C472 C473 1.367 . S
C473 C472 1.367 . S
C473 C475 1.433 . S
C474 C470 1.350 . S
C474 C471 1.463 . S
C474 N478 1.427 . S
C475 H465 0.929 . S
C475 C473 1.433 . S
C475 N478 1.384 . S
C476 H467 0.929 . S
C476 C468 1.378 . S
C476 C471 1.350 1_655 S
C477 H464 0.929 . S
C477 C469 1.433 . S
C477 N479 1.384 1_655 S
N478 C474 1.427 . S
N478 C475 1.384 . S
N479 C471 1.427 . S
N479 C477 1.384 1_455 S
H480 C486 0.930 . S
H481 C490 0.930 . S
H482 C495 0.929 . S
H483 C493 0.929 . S
H484 C488 0.929 . S
H485 C494 0.929 . S
C486 H480 0.930 . S
C486 C487 1.367 . S
C486 C494 1.378 . S
C487 C486 1.367 . S
C487 C495 1.433 . S
C488 H484 0.929 . S
C488 C490 1.378 . S
C488 C492 1.350 . S
C489 C492 1.463 . S
C489 C494 1.350 . S
C489 N497 1.427 . S
C490 H481 0.930 . S
C490 C488 1.378 . S
C490 C491 1.367 . S
C491 C490 1.367 . S
C491 C493 1.433 . S
C492 C488 1.350 . S
C492 C489 1.463 . S
C492 N496 1.427 . S
C493 H483 0.929 . S
C493 C491 1.433 . S
C493 N496 1.384 . S
C494 H485 0.929 . S
C494 C486 1.378 . S
C494 C489 1.350 . S
C495 H482 0.929 . S
C495 C487 1.433 . S
C495 N497 1.384 . S
N496 C492 1.427 . S
N496 C493 1.384 . S
N497 C489 1.427 . S
N497 C495 1.384 . S
H498 C504 0.930 . S
H499 C508 0.930 . S
H500 C513 0.929 . S
H501 C511 0.929 . S
H502 C506 0.929 . S
H503 C512 0.929 . S
C504 H498 0.930 . S
C504 C505 1.367 . S
C504 C512 1.378 . S
C505 C504 1.367 . S
C505 C513 1.433 . S
C506 H502 0.929 . S
C506 C508 1.378 . S
C506 C510 1.350 . S
C507 C510 1.463 . S
C507 C512 1.350 . S
C507 N515 1.427 . S
C508 H499 0.930 . S
C508 C506 1.378 . S
C508 C509 1.367 . S
C509 C508 1.367 . S
C509 C511 1.433 . S
C510 C506 1.350 . S
C510 C507 1.463 . S
C510 N514 1.427 . S
C511 H501 0.929 . S
C511 C509 1.433 . S
C511 N514 1.384 . S
C512 H503 0.929 . S
C512 C504 1.378 . S
C512 C507 1.350 . S
C513 H500 0.929 . S
C513 C505 1.433 . S
C513 N515 1.384 . S
N514 C510 1.427 . S
N514 C511 1.384 . S
N515 C507 1.427 . S
N515 C513 1.384 . S
H516 C522 0.930 . S
H517 C526 0.930 . S
H518 C531 0.929 . S
H519 C529 0.929 . S
H520 C524 0.929 . S
H521 C530 0.929 . S
C522 H516 0.930 . S
C522 C523 1.367 . S
C522 C530 1.378 . S
C523 C522 1.367 . S
C523 C531 1.433 . S
C524 H520 0.929 . S
C524 C526 1.378 . S
C524 C528 1.350 . S
C525 C528 1.463 . S
C525 C530 1.350 . S
C525 N533 1.427 . S
C526 H517 0.930 . S
C526 C524 1.378 . S
C526 C527 1.367 . S
C527 C526 1.367 . S
C527 C529 1.433 . S
C528 C524 1.350 . S
C528 C525 1.463 . S
C528 N532 1.427 . S
C529 H519 0.929 . S
C529 C527 1.433 . S
C529 N532 1.384 . S
C530 H521 0.929 . S
C530 C522 1.378 . S
C530 C525 1.350 . S
C531 H518 0.929 . S
C531 C523 1.433 . S
C531 N533 1.384 . S
N532 C528 1.427 . S
N532 C529 1.384 . S
N533 C525 1.427 . S
N533 C531 1.384 . S
H534 C540 0.930 . S
H535 C544 0.930 . S
H536 C549 0.929 . S
H537 C547 0.929 . S
H538 C542 0.929 . S
H539 C548 0.929 . S
C540 H534 0.930 . S
C540 C541 1.367 . S
C540 C548 1.378 . S
C541 C540 1.367 . S
C541 C549 1.433 . S
C542 H538 0.929 . S
C542 C544 1.378 . S
C542 C546 1.350 . S
C543 C546 1.463 . S
C543 C548 1.350 . S
C543 N551 1.427 . S
C544 H535 0.930 . S
C544 C542 1.378 . S
C544 C545 1.367 . S
C545 C544 1.367 . S
C545 C547 1.433 . S
C546 C542 1.350 . S
C546 C543 1.463 . S
C546 N550 1.427 . S
C547 H537 0.929 . S
C547 C545 1.433 . S
C547 N550 1.384 . S
C548 H539 0.929 . S
C548 C540 1.378 . S
C548 C543 1.350 . S
C549 H536 0.929 . S
C549 C541 1.433 . S
C549 N551 1.384 . S
N550 C546 1.427 . S
N550 C547 1.384 . S
N551 C543 1.427 . S
N551 C549 1.384 . S
H552 C558 0.930 . S
H553 C562 0.930 . S
H554 C567 0.929 . S
H555 C565 0.929 . S
H556 C560 0.929 . S
H557 C566 0.929 . S
C558 H552 0.930 . S
C558 C559 1.367 . S
C558 C566 1.378 . S
C559 C558 1.367 . S
C559 C567 1.433 . S
C560 H556 0.929 . S
C560 C562 1.378 . S
C560 C564 1.350 . S
C561 C564 1.463 . S
C561 C566 1.350 . S
C561 N569 1.427 . S
C562 H553 0.930 . S
C562 C560 1.378 . S
C562 C563 1.367 . S
C563 C562 1.367 . S
C563 C565 1.433 . S
C564 C560 1.350 . S
C564 C561 1.463 . S
C564 N568 1.427 . S
C565 H555 0.929 . S
C565 C563 1.433 . S
C565 N568 1.384 . S
C566 H557 0.929 . S
C566 C558 1.378 . S
C566 C561 1.350 . S
C567 H554 0.929 . S
C567 C559 1.433 . S
C567 N569 1.384 . S
N568 C564 1.427 . S
N568 C565 1.384 . S
N569 C561 1.427 . S
N569 C567 1.384 . S
H570 C576 0.930 1_554 S
H571 C580 0.930 . S
H572 C585 0.929 . S
H573 C583 0.929 . S
H574 C578 0.929 . S
H575 C584 0.929 . S
C576 H570 0.930 1_556 S
C576 C577 1.367 . S
C576 C584 1.378 . S
C577 C576 1.367 . S
C577 C585 1.433 . S
C578 H574 0.929 . S
C578 C580 1.378 . S
C578 C582 1.350 . S
C579 C582 1.463 . S
C579 C584 1.350 . S
C579 N587 1.427 . S
C580 H571 0.930 . S
C580 C578 1.378 . S
C580 C581 1.367 . S
C581 C580 1.367 . S
C581 C583 1.433 . S
C582 C578 1.350 . S
C582 C579 1.463 . S
C582 N586 1.427 . S
C583 H573 0.929 . S
C583 C581 1.433 . S
C583 N586 1.384 . S
C584 H575 0.929 . S
C584 C576 1.378 . S
C584 C579 1.350 . S
C585 H572 0.929 . S
C585 C577 1.433 . S
C585 N587 1.384 . S
N586 C582 1.427 . S
N586 C583 1.384 . S
N587 C579 1.427 . S
N587 C585 1.384 . S
H588 C594 0.930 . S
H589 C598 0.930 . S
H590 C603 0.929 . S
H591 C601 0.929 . S
H592 C596 0.929 . S
H593 C602 0.929 . S
C594 H588 0.930 . S
C594 C595 1.367 . S
C594 C602 1.378 . S
C595 C594 1.367 . S
C595 C603 1.433 . S
C596 H592 0.929 . S
C596 C598 1.378 . S
C596 C600 1.350 . S
C597 C600 1.463 . S
C597 C602 1.350 . S
C597 N605 1.427 . S
C598 H589 0.930 . S
C598 C596 1.378 . S
C598 C599 1.367 . S
C599 C598 1.367 . S
C599 C601 1.433 . S
C600 C596 1.350 . S
C600 C597 1.463 . S
C600 N604 1.427 . S
C601 H591 0.929 . S
C601 C599 1.433 . S
C601 N604 1.384 . S
C602 H593 0.929 . S
C602 C594 1.378 . S
C602 C597 1.350 . S
C603 H590 0.929 . S
C603 C595 1.433 . S
C603 N605 1.384 . S
N604 C600 1.427 . S
N604 C601 1.384 . S
N605 C597 1.427 . S
N605 C603 1.384 . S
H606 C612 0.930 . S
H607 C616 0.930 . S
H608 C621 0.929 . S
H609 C619 0.929 . S
H610 C614 0.929 . S
H611 C620 0.929 . S
C612 H606 0.930 . S
C612 C613 1.367 . S
C612 C620 1.378 . S
C613 C612 1.367 . S
C613 C621 1.433 . S
C614 H610 0.929 . S
C614 C616 1.378 . S
C614 C618 1.350 . S
C615 C618 1.463 . S
C615 C620 1.350 . S
C615 N623 1.427 . S
C616 H607 0.930 . S
C616 C614 1.378 . S
C616 C617 1.367 . S
C617 C616 1.367 . S
C617 C619 1.433 . S
C618 C614 1.350 . S
C618 C615 1.463 . S
C618 N622 1.427 . S
C619 H609 0.929 . S
C619 C617 1.433 . S
C619 N622 1.384 . S
C620 H611 0.929 . S
C620 C612 1.378 . S
C620 C615 1.350 . S
C621 H608 0.929 . S
C621 C613 1.433 . S
C621 N623 1.384 . S
N622 C618 1.427 . S
N622 C619 1.384 . S
N623 C615 1.427 . S
N623 C621 1.384 . S
C199 C7 1.338 . S
C203 C96 1.286 . S
C217 C37 1.213 . S
C221 C109 1.183 . S
C235 C54 1.411 . S
C239 C123 1.375 . S
C257 C136 1.354 . S
C253 C87 1.393 . S
C275 C148 1.253 . S
C271 C30 1.265 . S
C289 C51 1.456 1_556 S
C293 C162 1.388 . S
C307 C84 1.259 . S
C311 C174 1.225 . S
C325 C10 1.362 . S
C329 C188 1.328 . S
C343 C59 1.307 . S
C347 C187 1.263 . S
C365 C149 1.356 . S
C361 C74 1.419 . S
C383 C161 1.274 . S
C379 C18 1.290 . S
C397 C32 1.377 . S
C401 C175 1.334 . S
C419 C110 1.414 . S
C415 C73 1.439 . S
C433 C15 1.245 . S
C437 C122 1.218 . S
C455 C135 1.298 . S
C451 C43 1.344 . S
C473 C97 1.323 . S
C469 C62 1.371 . S
C491 C170 1.298 . S
C487 C21 1.351 . S
C509 C183 1.276 . S
C505 C29 1.378 . S
C523 C52 1.418 . S
C527 C144 1.352 . S
C545 C157 1.437 . S
C541 C81 1.453 . S
C563 C118 1.336 . S
C559 C40 1.372 . S
C577 C65 1.422 1_556 S
C581 C131 1.324 . S
C599 C92 1.349 . S
C595 C76 1.412 . S
C617 C105 1.281 . S
C613 C8 1.364 . S
