# Generated by pormake.
# Topology tsx, (6,3)-cn, num edge types: 1
# Building blocks:
#     Node 0, Type 0, BuildingBlock: FUNLAD_clean_sbu_0, # of connection points: 6
#     Node 1, Type 0, BuildingBlock: FUNLAD_clean_sbu_0, # of connection points: 6
#     Node 2, Type 1, BuildingBlock: PAMTOO_clean_linker_0, # of connection points: 3
#     Node 3, Type 1, BuildingBlock: PAMTOO_clean_linker_0, # of connection points: 3
#     Node 4, Type 1, BuildingBlock: PAMTOO_clean_linker_0, # of connection points: 3
#     Node 5, Type 1, BuildingBlock: PAMTOO_clean_linker_0, # of connection points: 3
#     Edge 6, Type (0, 1), BuildingBlock: UVAHIK_clean_linker_0, # of connection points: 2
#     Edge 7, Type (0, 1), BuildingBlock: UVAHIK_clean_linker_0, # of connection points: 2
#     Edge 8, Type (0, 1), BuildingBlock: UVAHIK_clean_linker_0, # of connection points: 2
#     Edge 9, Type (0, 1), BuildingBlock: UVAHIK_clean_linker_0, # of connection points: 2
#     Edge 10, Type (0, 1), BuildingBlock: UVAHIK_clean_linker_0, # of connection points: 2
#     Edge 11, Type (0, 1), BuildingBlock: UVAHIK_clean_linker_0, # of connection points: 2
#     Edge 12, Type (0, 1), BuildingBlock: UVAHIK_clean_linker_0, # of connection points: 2
#     Edge 13, Type (0, 1), BuildingBlock: UVAHIK_clean_linker_0, # of connection points: 2
#     Edge 14, Type (0, 1), BuildingBlock: UVAHIK_clean_linker_0, # of connection points: 2
#     Edge 15, Type (0, 1), BuildingBlock: UVAHIK_clean_linker_0, # of connection points: 2
#     Edge 16, Type (0, 1), BuildingBlock: UVAHIK_clean_linker_0, # of connection points: 2
#     Edge 17, Type (0, 1), BuildingBlock: UVAHIK_clean_linker_0, # of connection points: 2
# Relax obj value: 0.122
# Max RMSD: 0.129
# Mean RMSD: 0.118
data_MOF--net-tsx--node1-FUNLAD_clean_sbu_0--node2-PAMTOO_clean_linker_0--edge1-UVAHIK_clean_linker_0
_symmetry_space_group_name_H-M    P1
_symmetry_Int_Tables_number       1
_symmetry_cell_setting            triclinic
loop_
_symmetry_equiv_pos_as_xyz
'x, y, z'
_cell_length_a     25.247888
_cell_length_b     28.040941
_cell_length_c     49.506088
_cell_angle_alpha  82.46753
_cell_angle_beta   92.040593
_cell_angle_gamma 89.887341
loop_
_atom_site_label
_atom_site_type_symbol
_atom_site_fract_x
_atom_site_fract_y
_atom_site_fract_z
_atom_type_partial_charge
C0 C 0.94701 0.95633 -0.00139 0.0
N1 N 0.02764 0.00074 0.06585 0.0
C2 C 0.98172 0.00138 0.07937 0.0
C3 C 0.98283 0.99626 0.10776 0.0
C4 C 0.03152 0.98943 0.12223 0.0
C5 C 0.07808 0.98666 0.10792 0.0
C6 C 0.07528 0.99291 0.07948 0.0
Zn7 Zn 0.02475 0.0164 0.02459 0.0
C8 C 0.10003 0.95895 -0.0021 0.0
N9 N 0.0172 0.05234 0.93845 0.0
C10 C 0.97014 0.05018 0.92439 0.0
C11 C 0.06323 0.06176 0.92533 0.0
C12 C 0.06324 0.06835 0.89693 0.0
C13 C 0.01561 0.06426 0.88203 0.0
C14 C 0.96852 0.05559 0.89597 0.0
Zn15 Zn 0.0199 0.03667 0.97976 0.0
O16 O 0.96629 0.96382 0.02171 0.0
C17 C 0.94472 0.09459 0.00609 0.0
O18 O 0.96214 0.982 0.97723 0.0
H19 H 0.10027 0.06276 0.93689 0.0
H20 H 0.94426 0.0072 0.06814 0.0
H21 H 0.93399 0.04296 0.93523 0.0
O22 O 0.96528 0.06967 0.02717 0.0
O23 O 0.9599 0.08783 0.9827 0.0
H24 H 0.1113 0.99291 0.0683 0.0
O25 O 0.07738 0.09072 0.98306 0.0
O26 O 0.08424 0.06857 0.02723 0.0
O27 O 0.08057 0.98535 0.97708 0.0
O28 O 0.08346 0.96384 0.02131 0.0
C29 C 0.09867 0.09552 0.00617 0.0
H30 H 0.94618 -0.00171 0.1183 0.0
H31 H 0.11631 0.98175 0.11859 0.0
H32 H 0.10035 0.07452 0.88674 0.0
H33 H 0.93108 0.0524 0.88498 0.0
C34 C 0.44616 0.45272 0.49859 0.0
N35 N 0.52564 0.49677 0.56623 0.0
C36 C 0.47939 0.49717 0.57949 0.0
C37 C 0.47988 0.4918 0.60787 0.0
C38 C 0.52829 0.485 0.62261 0.0
C39 C 0.57521 0.48248 0.60856 0.0
C40 C 0.57303 0.48896 0.58011 0.0
Zn41 Zn 0.5235 0.51269 0.52499 0.0
C42 C 0.59923 0.45542 0.49851 0.0
N43 N 0.5172 0.54903 0.43888 0.0
C44 C 0.47041 0.54693 0.42458 0.0
C45 C 0.56349 0.55853 0.42602 0.0
C46 C 0.56404 0.5653 0.39763 0.0
C47 C 0.5167 0.56129 0.38248 0.0
C48 C 0.46934 0.55251 0.39616 0.0
Zn49 Zn 0.51917 0.53312 0.48018 0.0
O50 O 0.46517 0.46012 0.52176 0.0
C51 C 0.44356 0.59089 0.50629 0.0
O52 O 0.46148 0.47849 0.47729 0.0
H53 H 0.60031 0.55947 0.43777 0.0
H54 H 0.44215 0.50298 0.56806 0.0
H55 H 0.43404 0.53963 0.43522 0.0
O56 O 0.46387 0.5659 0.5274 0.0
O57 O 0.45907 0.58425 0.48294 0.0
H58 H 0.60931 0.48914 0.56913 0.0
O59 O 0.57655 0.5871 0.48382 0.0
O60 O 0.58287 0.56489 0.52799 0.0
O61 O 0.57994 0.48187 0.47766 0.0
O62 O 0.5824 0.46018 0.52188 0.0
C63 C 0.59752 0.5919 0.507 0.0
H64 H 0.44297 0.49365 0.61821 0.0
H65 H 0.61323 0.4776 0.61944 0.0
H66 H 0.60136 0.57154 0.38765 0.0
H67 H 0.43211 0.54937 0.38497 0.0
H68 H 0.09422 0.9279 0.42318 0.0
H69 H 0.98896 0.05061 0.40921 0.0
H70 H 0.02341 0.98268 0.49056 0.0
H71 H 0.90643 0.01653 0.47495 0.0
C72 C 0.91703 0.04676 0.45948 0.0
O73 O 0.9712 0.05278 0.46014 0.0
H74 H 0.90297 0.03736 0.43927 0.0
C75 C 0.06818 0.95356 0.43071 0.0
C76 C 0.06186 0.95111 0.4589 0.0
C77 C 0.04207 0.98914 0.41236 0.0
C78 C 0.0105 0.02325 0.42278 0.0
C79 C 0.00376 0.0209 0.45083 0.0
C80 C 0.02937 0.98484 0.46893 0.0
H81 H 0.11397 0.10283 0.5877 0.0
H82 H 0.00733 0.98226 0.59564 0.0
H83 H 0.06084 0.04005 0.51697 0.0
H84 H 0.94493 0.01124 0.5192 0.0
C85 C 0.94801 0.98478 0.53792 0.0
O86 O 0.00097 0.97498 0.54412 0.0
H87 H 0.92938 0.00067 0.55476 0.0
C88 C 0.09051 0.07616 0.57878 0.0
C89 C 0.09067 0.07551 0.55048 0.0
C90 C 0.06074 0.04272 0.59553 0.0
C91 C 0.03199 0.00767 0.5835 0.0
C92 C 0.03204 0.00674 0.55534 0.0
C93 C 0.06169 0.04034 0.53882 0.0
H94 H 0.5912 0.42778 0.92343 0.0
H95 H 0.48596 0.55047 0.90914 0.0
H96 H 0.52372 0.48555 0.99075 0.0
H97 H 0.40636 0.51896 0.97616 0.0
C98 C 0.41629 0.54864 0.9602 0.0
O99 O 0.47045 0.55467 0.96012 0.0
H100 H 0.40127 0.53842 0.94034 0.0
C101 C 0.5656 0.45383 0.93092 0.0
C102 C 0.5605 0.45247 0.95914 0.0
C103 C 0.53891 0.48886 0.91246 0.0
C104 C 0.50793 0.52351 0.92278 0.0
C105 C 0.50243 0.52227 0.95087 0.0
C106 C 0.52867 0.48679 0.96908 0.0
H107 H 0.61778 0.60356 0.08807 0.0
H108 H 0.51085 0.48319 0.09576 0.0
H109 H 0.56267 0.54268 0.01704 0.0
H110 H 0.44637 0.5144 0.02006 0.0
C111 C 0.45002 0.48724 0.03847 0.0
O112 O 0.50311 0.47725 0.04412 0.0
H113 H 0.432 0.50234 0.05574 0.0
C114 C 0.59404 0.57716 0.07909 0.0
C115 C 0.59351 0.57718 0.05072 0.0
C116 C 0.56453 0.54344 0.09579 0.0
C117 C 0.53536 0.50879 0.08364 0.0
C118 C 0.53468 0.50856 0.05541 0.0
C119 C 0.56407 0.54243 0.03894 0.0
C120 C 0.14275 0.17256 0.98881 0.0
C121 C 0.13968 0.13217 0.00865 0.0
C122 C 0.18052 0.20804 0.99166 0.0
C123 C 0.27083 0.25316 0.04369 0.0
H124 H 0.32782 0.32784 0.97985 0.0
C125 C 0.43626 0.39681 0.0467 0.0
C126 C 0.41995 0.44252 0.03389 0.0
C127 C 0.40596 0.35618 0.04333 0.0
C128 C 0.31227 0.30702 -0.0022 0.0
H129 H 0.17465 0.09619 0.04653 0.0
H130 H 0.24219 0.15677 0.0509 0.0
H131 H 0.2689 0.2607 0.97425 0.0
H132 H 0.35677 0.48188 0.00989 0.0
H133 H 0.30554 0.4106 0.00266 0.0
H134 H 0.31565 0.29924 0.06711 0.0
C135 C 0.2143 0.16225 0.03364 0.0
C136 C 0.27814 0.26887 -0.00534 0.0
C137 C 0.1758 0.1273 0.03107 0.0
C138 C 0.37196 0.4469 0.01854 0.0
C139 C 0.34237 0.40627 0.01468 0.0
C140 C 0.30586 0.29068 0.04682 0.0
C141 C 0.21684 0.20341 0.01413 0.0
C142 C 0.25614 0.24193 0.01754 0.0
C143 C 0.35909 0.36066 0.02708 0.0
C144 C 0.32609 0.31832 0.02388 0.0
H145 H 0.11511 0.17736 0.97141 0.0
H146 H 0.18033 0.23958 0.97649 0.0
H147 H 0.25411 0.23399 0.06179 0.0
H148 H 0.47207 0.39248 0.05951 0.0
H149 H 0.41909 0.32128 0.05336 0.0
C150 C 0.15614 0.88777 0.0169 0.0
C151 C 0.13999 0.92171 -0.00533 0.0
C152 C 0.19122 0.85066 0.01336 0.0
C153 C 0.23795 0.78274 0.9598 0.0
H154 H 0.34495 0.73445 0.0148 0.0
C155 C 0.38362 0.63219 0.94312 0.0
C156 C 0.38995 0.59478 0.96477 0.0
C157 C 0.35762 0.6747 0.94686 0.0
C158 C 0.31504 0.74743 -0.00066 0.0
H159 H 0.14962 0.94449 0.95153 0.0
H160 H 0.21146 0.88035 0.94547 0.0
H161 H 0.29167 0.8047 0.02112 0.0
H162 H 0.37658 0.57298 0.00757 0.0
H163 H 0.33084 0.64722 0.01418 0.0
H164 H 0.261 0.72541 0.9381 0.0
C165 C 0.19615 0.88172 0.96552 0.0
C166 C 0.28448 0.78759 0.00297 0.0
C167 C 0.1609 0.91865 0.96902 0.0
C168 C 0.37176 0.60119 0.99052 0.0
C169 C 0.3459 0.64378 -0.00569 0.0
C170 C 0.26859 0.74279 0.95613 0.0
C171 C 0.21108 0.84684 0.98753 0.0
C172 C 0.24534 0.80552 0.9833 0.0
C173 C 0.33791 0.68072 0.97242 0.0
C174 C 0.30721 0.72449 0.97593 0.0
H175 H 0.1407 0.88911 0.03692 0.0
H176 H 0.20145 0.82412 0.03069 0.0
H177 H 0.20748 0.79499 0.94449 0.0
H178 H 0.39818 0.62818 0.92321 0.0
H179 H 0.35281 0.70284 0.92973 0.0
C180 C 0.9039 0.88088 0.01911 0.0
C181 C 0.9093 0.91661 -0.0033 0.0
C182 C 0.86981 0.8423 0.01733 0.0
C183 C 0.74907 0.8075 0.98419 0.0
H184 H 0.79527 0.67861 0.01393 0.0
C185 C 0.66218 0.60274 0.01658 0.0
C186 C 0.62264 0.61487 0.03375 0.0
C187 C 0.69504 0.63847 0.00393 0.0
C188 C 0.78193 0.71414 0.00502 0.0
H189 H 0.88283 0.9402 0.9549 0.0
H190 H 0.82177 0.87292 0.9521 0.0
H191 H 0.85989 0.7434 0.0079 0.0
H192 H 0.58342 0.67348 0.04962 0.0
H193 H 0.64021 0.73585 0.0274 0.0
H194 H 0.6706 0.77865 0.98266 0.0
C195 C 0.8446 0.87479 0.97087 0.0
C196 C 0.81881 0.75126 0.00183 0.0
C197 C 0.87946 0.91316 0.9725 0.0
C198 C 0.61399 0.66337 0.0366 0.0
C199 C 0.64618 0.69903 0.02369 0.0
C200 C 0.71201 0.77041 0.98767 0.0
C201 C 0.83985 0.83885 -0.00677 0.0
C202 C 0.80245 0.79853 -0.0078 0.0
C203 C 0.68808 0.68682 0.00793 0.0
C204 C 0.72789 0.72369 -0.0011 0.0
H205 H 0.92645 0.88239 0.03801 0.0
H206 H 0.86625 0.81545 0.03501 0.0
H207 H 0.73547 0.84367 0.97676 0.0
H208 H 0.66942 0.56548 0.01413 0.0
H209 H 0.72696 0.62817 0.99179 0.0
C210 C 0.89274 0.16782 0.98682 0.0
C211 C 0.90444 0.13186 0.00875 0.0
C212 C 0.85542 0.20362 0.98928 0.0
C213 C 0.73631 0.22808 0.02357 0.0
H214 H 0.767 0.36097 -0.00343 0.0
C215 C 0.62976 0.42822 -0.00433 0.0
C216 C 0.58977 0.41521 0.97767 0.0
C217 C 0.66586 0.39356 0.00823 0.0
C218 C 0.75802 0.32424 0.00474 0.0
H219 H 0.8859 0.10493 0.05043 0.0
H220 H 0.81931 0.16717 0.05443 0.0
H221 H 0.83773 0.30076 0.00056 0.0
H222 H 0.55271 0.35593 0.96051 0.0
H223 H 0.61494 0.29527 0.98274 0.0
H224 H 0.65587 0.25123 0.02634 0.0
C225 C 0.83965 0.16772 0.03549 0.0
C226 C 0.79838 0.28974 0.00673 0.0
C227 C 0.87774 0.13226 0.03319 0.0
C228 C 0.5834 0.36663 0.97431 0.0
C229 C 0.61887 0.33196 0.98714 0.0
C230 C 0.69569 0.26255 0.02124 0.0
C231 C 0.82844 0.20388 0.01359 0.0
C232 C 0.78759 0.24116 0.01543 0.0
C233 C 0.66182 0.34539 0.00327 0.0
C234 C 0.70589 0.31075 0.0111 0.0
H235 H 0.91272 0.16858 0.96776 0.0
H236 H 0.84698 0.23073 0.97196 0.0
H237 H 0.72697 0.19082 0.03029 0.0
H238 H 0.63536 0.46559 -0.00153 0.0
H239 H 0.69845 0.40477 0.02072 0.0
C240 C 0.64228 0.66852 0.48951 0.0
C241 C 0.63844 0.6286 0.50961 0.0
C242 C 0.68007 0.70397 0.49237 0.0
C243 C 0.76875 0.75047 0.54454 0.0
H244 H 0.82843 0.82251 0.48061 0.0
C245 C 0.93362 0.89461 0.54766 0.0
C246 C 0.91821 0.93975 0.53371 0.0
C247 C 0.90352 0.85372 0.5446 0.0
C248 C 0.81213 0.80245 0.49859 0.0
H249 H 0.67204 0.5935 0.54803 0.0
H250 H 0.73956 0.65409 0.55248 0.0
H251 H 0.76954 0.75526 0.47527 0.0
H252 H 0.85663 0.97801 0.50795 0.0
H253 H 0.80584 0.90625 0.5013 0.0
H254 H 0.81271 0.79746 0.56775 0.0
C255 C 0.71229 0.65917 0.53496 0.0
C256 C 0.77802 0.76422 0.49559 0.0
C257 C 0.67378 0.62423 0.53235 0.0
C258 C 0.87125 0.94338 0.51751 0.0
C259 C 0.84187 0.90248 0.51398 0.0
C260 C 0.80373 0.78809 0.54754 0.0
C261 C 0.71564 0.6998 0.51514 0.0
C262 C 0.75503 0.73827 0.51848 0.0
C263 C 0.85773 0.85739 0.52751 0.0
C264 C 0.82492 0.81482 0.52456 0.0
H265 H 0.61526 0.67295 0.47185 0.0
H266 H 0.68051 0.73512 0.47695 0.0
H267 H 0.75127 0.73202 0.56262 0.0
H268 H 0.96857 0.89094 0.56112 0.0
H269 H 0.91598 0.81926 0.55549 0.0
C270 C 0.66102 0.41583 0.46979 0.0
C271 C 0.63931 0.41827 0.49532 0.0
C272 C 0.69636 0.379 0.46626 0.0
C273 C 0.78335 0.28372 0.50367 0.0
H274 H 0.7621 0.22385 0.43784 0.0
C275 C 0.87094 0.09799 0.48996 0.0
C276 C 0.89032 0.09258 0.46431 0.0
C277 C 0.84489 0.14036 0.49399 0.0
C278 C 0.76905 0.24058 0.45615 0.0
H279 H 0.63869 0.38467 0.53735 0.0
H280 H 0.69957 0.3198 0.53105 0.0
H281 H 0.70836 0.29316 0.44448 0.0
H282 H 0.90036 0.12746 0.4232 0.0
H283 H 0.85457 0.20171 0.43013 0.0
H284 H 0.84338 0.23016 0.51553 0.0
C285 C 0.68992 0.34677 0.51384 0.0
C286 C 0.7383 0.28038 0.45996 0.0
C287 C 0.65477 0.3838 0.51742 0.0
C288 C 0.8849 0.13072 0.44302 0.0
C289 C 0.85867 0.17299 0.44699 0.0
C290 C 0.814 0.24369 0.49991 0.0
C291 C 0.71056 0.34357 0.48812 0.0
C292 C 0.7449 0.30234 0.4838 0.0
C293 C 0.83784 0.17804 0.47244 0.0
C294 C 0.80699 0.22161 0.47615 0.0
H295 H 0.6503 0.4421 0.45239 0.0
H296 H 0.7123 0.37813 0.4463 0.0
H297 H 0.78993 0.30018 0.5221 0.0
H298 H 0.875 0.0692 0.50674 0.0
H299 H 0.82895 0.14306 0.51376 0.0
C300 C 0.37887 0.40966 0.47225 0.0
C301 C 0.40847 0.41303 0.49654 0.0
C302 C 0.34393 0.37137 0.47052 0.0
C303 C 0.31733 0.24796 0.50151 0.0
H304 H 0.1694 0.27596 0.48192 0.0
C305 C 0.11165 0.1615 0.536 0.0
C306 C 0.12014 0.11287 0.53343 0.0
C307 C 0.14414 0.19687 0.52304 0.0
C308 C 0.21073 0.26755 0.48705 0.0
H309 H 0.42514 0.37874 0.53787 0.0
H310 H 0.36481 0.31197 0.5347 0.0
H311 H 0.23467 0.34064 0.47605 0.0
H312 H 0.16693 0.06292 0.51421 0.0
H313 H 0.22495 0.12509 0.49177 0.0
H314 H 0.2933 0.17548 0.51373 0.0
C315 C 0.36862 0.3388 0.51703 0.0
C316 C 0.24802 0.30444 0.48358 0.0
C317 C 0.40278 0.37729 0.51891 0.0
C318 C 0.15981 0.10029 0.51646 0.0
C319 C 0.19295 0.13572 0.50375 0.0
C320 C 0.28021 0.21102 0.5047 0.0
C321 C 0.33886 0.33544 0.49286 0.0
C322 C 0.30129 0.29526 0.49175 0.0
C323 C 0.18617 0.18422 0.50749 0.0
C324 C 0.22626 0.22081 0.49843 0.0
H325 H 0.38246 0.43671 0.45468 0.0
H326 H 0.32127 0.36957 0.45169 0.0
H327 H 0.35832 0.23993 0.5077 0.0
H328 H 0.08098 0.17197 0.54886 0.0
H329 H 0.13828 0.23381 0.52655 0.0
C330 C 0.39208 0.6644 0.487 0.0
C331 C 0.40325 0.62817 0.50886 0.0
C332 C 0.3548 0.70025 0.48941 0.0
C333 C 0.23494 0.72467 0.52299 0.0
H334 H 0.267 0.85775 0.49716 0.0
C335 C 0.12995 0.92558 0.49581 0.0
C336 C 0.09049 0.91328 0.47733 0.0
C337 C 0.16557 0.89048 0.50837 0.0
C338 C 0.25762 0.82096 0.50499 0.0
H339 H 0.38376 0.60077 0.55034 0.0
H340 H 0.31718 0.66309 0.55421 0.0
H341 H 0.33739 0.7972 0.50127 0.0
H342 H 0.05383 0.85482 0.45921 0.0
H343 H 0.11518 0.79338 0.48146 0.0
H344 H 0.15447 0.74812 0.52526 0.0
C345 C 0.33794 0.66383 0.53539 0.0
C346 C 0.29779 0.78627 0.50706 0.0
C347 C 0.37602 0.62832 0.53316 0.0
C348 C 0.0841 0.86495 0.47342 0.0
C349 C 0.11906 0.82984 0.48625 0.0
C350 C 0.19451 0.75933 0.52057 0.0
C351 C 0.3273 0.70027 0.51357 0.0
C352 C 0.28653 0.73764 0.51534 0.0
C353 C 0.16153 0.84259 0.50292 0.0
C354 C 0.20523 0.80761 0.51085 0.0
H355 H 0.4125 0.66536 0.46806 0.0
H356 H 0.3468 0.7276 0.47215 0.0
H357 H 0.22525 0.68737 0.52938 0.0
H358 H 0.13556 0.96276 0.49902 0.0
H359 H 0.19779 0.90117 0.52127 0.0
C360 C 0.05734 0.94954 0.16895 0.0
C361 C 0.03397 0.98846 0.15204 0.0
C362 C 0.0595 0.94913 0.19721 0.0
C363 C 0.0009 0.00971 0.25197 0.0
H364 H 0.12068 0.95086 0.29522 0.0
C365 C 0.04534 0.03312 0.36475 0.0
C366 C 0.0461 0.98949 0.38244 0.0
C367 C 0.04588 0.03312 0.33658 0.0
C368 C 0.08708 0.96734 0.28327 0.0
H369 H 0.99599 0.05798 0.15081 0.0
H370 H 0.00188 0.05865 0.19992 0.0
H371 H 0.11767 0.95104 0.24585 0.0
H372 H 0.04846 0.91161 0.38406 0.0
H373 H 0.05204 0.9121 0.33491 0.0
H374 H 0.97161 0.02745 0.28953 0.0
C375 C 0.01664 0.02741 0.19177 0.0
C376 C 0.085 0.96714 0.25506 0.0
C377 C 0.01352 0.02728 0.16362 0.0
C378 C 0.04896 0.94595 0.37122 0.0
C379 C 0.05065 0.94607 0.34308 0.0
C380 C 0.00361 0.01077 0.28006 0.0
C381 C 0.03931 0.98819 0.20899 0.0
C382 C 0.04177 0.98822 0.23904 0.0
C383 C 0.04838 0.9896 0.3256 0.0
C384 C 0.04659 0.98947 0.29587 0.0
H385 H 0.07318 0.91918 0.1603 0.0
H386 H 0.07641 0.91794 0.20979 0.0
H387 H 0.96636 0.02527 0.24049 0.0
H388 H 0.04423 0.06734 0.37262 0.0
H389 H 0.04448 0.0671 0.32332 0.0
C390 C 0.03883 0.10419 0.83591 0.0
C391 C 0.01586 0.06559 0.85219 0.0
C392 C 0.0417 0.10381 0.80782 0.0
C393 C 0.98976 0.03985 0.75086 0.0
H394 H 0.11416 0.09445 0.71509 0.0
C395 C 0.05299 0.00405 0.64406 0.0
C396 C 0.05762 0.04587 0.62519 0.0
C397 C 0.04748 0.00734 0.67171 0.0
C398 C 0.07921 0.07924 0.7249 0.0
H399 H 0.97832 0.99625 0.85234 0.0
H400 H 0.98525 0.99432 0.80361 0.0
H401 H 0.10443 0.09876 0.76355 0.0
H402 H 0.05989 0.12405 0.62094 0.0
H403 H 0.05302 0.12924 0.66943 0.0
H404 H 0.96611 0.01859 0.71219 0.0
C405 C -0.00066 0.02584 0.81208 0.0
C406 C 0.07328 0.08202 0.75258 0.0
C407 C 0.99553 0.02673 0.84004 0.0
C408 C 0.05768 0.09097 0.63483 0.0
C409 C 0.05331 0.09411 0.66255 0.0
C410 C 0.99633 0.03622 0.72334 0.0
C411 C 0.02269 0.06427 0.79558 0.0
C412 C 0.02842 0.06238 0.76594 0.0
C413 C 0.04762 0.05238 0.6811 0.0
C414 C 0.04104 0.05593 0.7102 0.0
H415 H 0.05452 0.13463 0.84494 0.0
H416 H 0.0589 0.13452 0.79576 0.0
H417 H 0.95417 0.02523 0.76022 0.0
H418 H 0.05377 0.9687 0.63753 0.0
H419 H 0.04359 0.97469 0.68583 0.0
C420 C 0.55344 0.44502 0.6694 0.0
C421 C 0.53006 0.48386 0.65242 0.0
C422 C 0.55505 0.44453 0.69768 0.0
C423 C 0.49524 0.50482 0.75224 0.0
H424 H 0.61543 0.44739 0.79576 0.0
C425 C 0.54082 0.53139 0.86449 0.0
C426 C 0.54192 0.48823 0.88257 0.0
C427 C 0.54076 0.5305 0.83637 0.0
C428 C 0.58169 0.46344 0.78374 0.0
H429 H 0.49145 0.55313 0.6511 0.0
H430 H 0.49637 0.55366 0.70022 0.0
H431 H 0.61259 0.44687 0.74644 0.0
H432 H 0.54409 0.41022 0.88496 0.0
H433 H 0.54665 0.40917 0.83588 0.0
H434 H 0.4657 0.52295 0.78967 0.0
C435 C 0.51156 0.52253 0.6921 0.0
C436 C 0.57972 0.46284 0.75556 0.0
C437 C 0.50899 0.52248 0.66395 0.0
C438 C 0.54435 0.44424 0.8718 0.0
C439 C 0.54545 0.44347 0.84371 0.0
C440 C 0.49784 0.50629 0.7803 0.0
C441 C 0.53429 0.48342 0.70939 0.0
C442 C 0.5364 0.4835 0.73944 0.0
C443 C 0.54298 0.48654 0.82585 0.0
C444 C 0.54099 0.48555 0.7962 0.0
H445 H 0.56975 0.41481 0.6608 0.0
H446 H 0.57203 0.41343 0.7103 0.0
H447 H 0.46063 0.52004 0.74069 0.0
H448 H 0.54002 0.56595 0.87199 0.0
H449 H 0.53922 0.56415 0.82281 0.0
C450 C 0.49756 0.52404 0.3403 0.0
C451 C 0.51756 0.56281 0.35264 0.0
C452 C 0.50194 0.52334 0.31236 0.0
C453 C 0.57687 0.58 0.25333 0.0
H454 H 0.47032 0.51713 0.21225 0.0
C455 C 0.56217 0.59084 0.13546 0.0
C456 C 0.56192 0.546 0.12553 0.0
C457 C 0.5579 0.59345 0.16325 0.0
C458 C 0.50038 0.53458 0.2236 0.0
H459 H 0.55625 0.63188 0.34575 0.0
H460 H 0.56163 0.63211 0.29658 0.0
H461 H 0.45767 0.52316 0.26029 0.0
H462 H 0.55801 0.46871 0.13741 0.0
H463 H 0.548 0.47377 0.18583 0.0
H464 H 0.61829 0.59289 0.21601 0.0
C465 C 0.54424 0.60132 0.30849 0.0
C466 C 0.49341 0.53787 0.25112 0.0
C467 C 0.5408 0.60151 0.33657 0.0
C468 C 0.55736 0.50388 0.14417 0.0
C469 C 0.55196 0.50664 0.17189 0.0
C470 C 0.58322 0.57756 0.22565 0.0
C471 C 0.52555 0.56188 0.29607 0.0
C472 C 0.53181 0.56023 0.26644 0.0
C473 C 0.55214 0.55144 0.18157 0.0
C474 C 0.54526 0.55446 0.2107 0.0
H475 H 0.48015 0.49349 0.35245 0.0
H476 H 0.48808 0.49188 0.30374 0.0
H477 H 0.60784 0.59661 0.26449 0.0
H478 H 0.56436 0.62413 0.12176 0.0
H479 H 0.55765 0.6284 0.17035 0.0
loop_
_geom_bond_atom_site_label_1
_geom_bond_atom_site_label_2
_geom_bond_distance
_geom_bond_site_symmetry_2
_ccdc_geom_bond_type
C0 O16 1.251 . S
C0 O18 1.254 1_554 S
N1 C2 1.327 1_445 S
N1 C6 1.307 . S
N1 Zn7 2.020 . S
C2 N1 1.327 1_665 S
C2 C3 1.379 . S
C2 H20 0.958 . S
C3 C2 1.379 . S
C3 C4 1.390 1_665 S
C3 H30 0.949 . S
C4 C3 1.390 1_445 S
C4 C5 1.357 . S
C5 C4 1.357 . S
C5 C6 1.370 . S
C5 H31 0.950 . S
C6 N1 1.307 . S
C6 C5 1.370 . S
C6 H24 0.948 . S
Zn7 N1 2.020 . S
Zn7 O16 2.039 1_445 S
Zn7 O22 2.034 1_455 S
Zn7 O26 2.025 . S
Zn7 O28 2.024 1_545 S
C8 O27 1.246 1_554 S
C8 O28 1.249 . S
N9 C10 1.307 1_455 S
N9 C11 1.333 . S
N9 Zn15 2.020 . S
C10 N9 1.307 1_655 S
C10 C14 1.370 . S
C10 H21 0.948 . S
C11 N9 1.333 . S
C11 C12 1.379 . S
C11 H19 0.952 . S
C12 C11 1.379 . S
C12 C13 1.390 . S
C12 H32 0.949 . S
C13 C12 1.390 . S
C13 C14 1.357 1_455 S
C14 C10 1.370 . S
C14 C13 1.357 1_655 S
C14 H33 0.950 . S
Zn15 N9 2.020 . S
Zn15 O18 2.025 1_445 S
Zn15 O23 2.024 1_455 S
Zn15 O25 2.039 . S
Zn15 O27 2.034 1_545 S
O16 C0 1.251 . S
O16 Zn7 2.039 1_665 S
C17 O22 1.246 . S
C17 O23 1.249 1_554 S
O18 C0 1.254 1_556 S
O18 Zn15 2.025 1_665 S
H19 C11 0.952 . S
H20 C2 0.958 . S
H21 C10 0.948 . S
O22 Zn7 2.034 1_655 S
O22 C17 1.246 . S
O23 Zn15 2.024 1_655 S
O23 C17 1.249 1_556 S
H24 C6 0.948 . S
O25 Zn15 2.039 . S
O25 C29 1.251 1_556 S
O26 Zn7 2.025 . S
O26 C29 1.254 . S
O27 C8 1.246 1_556 S
O27 Zn15 2.034 1_565 S
O28 Zn7 2.024 1_565 S
O28 C8 1.249 . S
C29 O25 1.251 1_554 S
C29 O26 1.254 . S
H30 C3 0.949 . S
H31 C5 0.950 . S
H32 C12 0.949 . S
H33 C14 0.950 . S
C34 O50 1.251 . S
C34 O52 1.254 . S
N35 C36 1.333 . S
N35 C40 1.307 . S
N35 Zn41 2.020 . S
C36 N35 1.333 . S
C36 C37 1.379 . S
C36 H54 0.952 . S
C37 C36 1.379 . S
C37 C38 1.390 . S
C37 H64 0.949 . S
C38 C37 1.390 . S
C38 C39 1.357 . S
C39 C38 1.357 . S
C39 C40 1.370 . S
C39 H65 0.950 . S
C40 N35 1.307 . S
C40 C39 1.370 . S
C40 H58 0.948 . S
Zn41 N35 2.020 . S
Zn41 O50 2.039 . S
Zn41 O56 2.034 . S
Zn41 O60 2.025 . S
Zn41 O62 2.024 . S
C42 O61 1.246 . S
C42 O62 1.249 . S
N43 C44 1.307 . S
N43 C45 1.333 . S
N43 Zn49 2.020 . S
C44 N43 1.307 . S
C44 C48 1.370 . S
C44 H55 0.948 . S
C45 N43 1.333 . S
C45 C46 1.379 . S
C45 H53 0.952 . S
C46 C45 1.379 . S
C46 C47 1.390 . S
C46 H66 0.949 . S
C47 C46 1.390 . S
C47 C48 1.357 . S
C48 C44 1.370 . S
C48 C47 1.357 . S
C48 H67 0.950 . S
Zn49 N43 2.020 . S
Zn49 O52 2.025 . S
Zn49 O57 2.024 . S
Zn49 O59 2.039 . S
Zn49 O61 2.034 . S
O50 C34 1.251 . S
O50 Zn41 2.039 . S
C51 O56 1.246 . S
C51 O57 1.249 . S
O52 C34 1.254 . S
O52 Zn49 2.025 . S
H53 C45 0.952 . S
H54 C36 0.952 . S
H55 C44 0.948 . S
O56 Zn41 2.034 . S
O56 C51 1.246 . S
O57 Zn49 2.024 . S
O57 C51 1.249 . S
H58 C40 0.948 . S
O59 Zn49 2.039 . S
O59 C63 1.251 . S
O60 Zn41 2.025 . S
O60 C63 1.254 . S
O61 C42 1.246 . S
O61 Zn49 2.034 . S
O62 Zn41 2.024 . S
O62 C42 1.249 . S
C63 O59 1.251 . S
C63 O60 1.254 . S
H64 C37 0.949 . S
H65 C39 0.950 . S
H66 C46 0.949 . S
H67 C48 0.950 . S
H68 C75 0.929 . S
H69 C78 0.930 . S
H70 C80 0.929 . S
H71 C72 0.969 . S
C72 H71 0.969 . S
C72 O73 1.550 . S
C72 H74 0.973 . S
O73 C72 1.550 . S
O73 C79 1.412 . S
H74 C72 0.973 . S
C75 H68 0.929 . S
C75 C76 1.400 . S
C75 C77 1.364 . S
C76 C75 1.400 . S
C76 C80 1.377 . S
C77 C75 1.364 . S
C77 C78 1.374 1_465 S
C78 H69 0.930 . S
C78 C77 1.374 1_645 S
C78 C79 1.383 . S
C79 O73 1.412 . S
C79 C78 1.383 . S
C79 C80 1.394 1_645 S
C80 H70 0.929 . S
C80 C76 1.377 . S
C80 C79 1.394 1_465 S
H81 C88 0.929 . S
H82 C91 0.929 1_665 S
H83 C93 0.929 . S
H84 C85 0.969 . S
C85 H84 0.969 . S
C85 O86 1.550 . S
C85 H87 0.973 . S
O86 C85 1.550 . S
O86 C92 1.412 1_665 S
H87 C85 0.973 . S
C88 H81 0.929 . S
C88 C89 1.400 . S
C88 C90 1.364 . S
C89 C88 1.400 . S
C89 C93 1.377 . S
C90 C88 1.364 . S
C90 C91 1.374 . S
C91 H82 0.929 1_445 S
C91 C90 1.374 . S
C91 C92 1.383 . S
C92 O86 1.412 1_445 S
C92 C91 1.383 . S
C92 C93 1.394 . S
C93 H83 0.929 . S
C93 C89 1.377 . S
C93 C92 1.394 . S
H94 C101 0.929 . S
H95 C104 0.930 . S
H96 C106 0.929 1_554 S
H97 C98 0.969 . S
C98 H97 0.969 . S
C98 O99 1.550 . S
C98 H100 0.973 . S
O99 C98 1.550 . S
O99 C105 1.412 . S
H100 C98 0.973 . S
C101 H94 0.929 . S
C101 C102 1.400 . S
C101 C103 1.364 . S
C102 C101 1.400 . S
C102 C106 1.377 . S
C103 C101 1.364 . S
C103 C104 1.374 . S
C104 H95 0.930 . S
C104 C103 1.374 . S
C104 C105 1.383 . S
C105 O99 1.412 . S
C105 C104 1.383 . S
C105 C106 1.394 . S
C106 H96 0.929 1_556 S
C106 C102 1.377 . S
C106 C105 1.394 . S
H107 C114 0.929 . S
H108 C117 0.930 . S
H109 C119 0.929 . S
H110 C111 0.969 . S
C111 H110 0.969 . S
C111 O112 1.550 . S
C111 H113 0.973 . S
O112 C111 1.550 . S
O112 C118 1.412 . S
H113 C111 0.973 . S
C114 H107 0.929 . S
C114 C115 1.400 . S
C114 C116 1.364 . S
C115 C114 1.400 . S
C115 C119 1.377 . S
C116 C114 1.364 . S
C116 C117 1.374 . S
C117 H108 0.930 . S
C117 C116 1.374 . S
C117 C118 1.383 . S
C118 O112 1.412 . S
C118 C117 1.383 . S
C118 C119 1.394 . S
C119 H109 0.929 . S
C119 C115 1.377 . S
C119 C118 1.394 . S
C120 C121 1.349 1_556 S
C120 C122 1.327 . S
C120 H145 0.950 . S
C121 C120 1.349 1_554 S
C121 C137 1.349 . S
C122 C120 1.327 . S
C122 C141 1.429 1_556 S
C122 H146 0.950 . S
C123 C140 1.574 . S
C123 C142 1.368 . S
C123 H147 0.949 . S
H124 C128 0.949 . S
C125 C126 1.349 . S
C125 C127 1.327 . S
C125 H148 0.950 . S
C126 C125 1.349 . S
C126 C138 1.349 . S
C127 C125 1.327 . S
C127 C143 1.429 . S
C127 H149 0.950 . S
C128 H124 0.949 . S
C128 C136 1.574 . S
C128 C144 1.368 1_556 S
H129 C137 0.950 . S
H130 C135 0.950 . S
H131 C136 0.949 . S
H132 C138 0.950 1_556 S
H133 C139 0.950 1_556 S
H134 C140 0.949 . S
C135 H130 0.950 . S
C135 C137 1.327 . S
C135 C141 1.429 . S
C136 C128 1.574 . S
C136 H131 0.949 . S
C136 C142 1.368 1_556 S
C137 C121 1.349 . S
C137 H129 0.950 . S
C137 C135 1.327 . S
C138 C126 1.349 . S
C138 H132 0.950 1_554 S
C138 C139 1.327 . S
C139 H133 0.950 1_554 S
C139 C138 1.327 . S
C139 C143 1.429 . S
C140 C123 1.574 . S
C140 H134 0.949 . S
C140 C144 1.368 . S
C141 C122 1.429 1_554 S
C141 C135 1.429 . S
C141 C142 1.523 . S
C142 C123 1.368 . S
C142 C136 1.368 1_554 S
C142 C141 1.523 . S
C143 C127 1.429 . S
C143 C139 1.429 . S
C143 C144 1.523 . S
C144 C128 1.368 1_554 S
C144 C140 1.368 . S
C144 C143 1.523 . S
H145 C120 0.950 . S
H146 C122 0.950 . S
H147 C123 0.949 . S
H148 C125 0.950 . S
H149 C127 0.950 . S
C150 C151 1.349 . S
C150 C152 1.327 . S
C150 H175 0.950 . S
C151 C150 1.349 . S
C151 C167 1.349 1_554 S
C152 C150 1.327 . S
C152 C171 1.429 . S
C152 H176 0.950 . S
C153 C170 1.574 . S
C153 C172 1.368 1_556 S
C153 H177 0.949 . S
H154 C158 0.949 . S
C155 C156 1.349 . S
C155 C157 1.327 . S
C155 H178 0.950 . S
C156 C155 1.349 . S
C156 C168 1.349 1_556 S
C157 C155 1.327 . S
C157 C173 1.457 . S
C157 H179 0.950 . S
C158 H154 0.949 . S
C158 C166 1.574 . S
C158 C174 1.368 . S
H159 C167 0.950 . S
H160 C165 0.950 . S
H161 C166 0.949 . S
H162 C168 0.950 . S
H163 C169 0.950 . S
H164 C170 0.949 . S
C165 H160 0.950 . S
C165 C167 1.327 . S
C165 C171 1.429 1_556 S
C166 C158 1.574 . S
C166 H161 0.949 . S
C166 C172 1.368 . S
C167 C151 1.349 1_556 S
C167 H159 0.950 . S
C167 C165 1.327 . S
C168 C156 1.349 1_554 S
C168 H162 0.950 . S
C168 C169 1.327 . S
C169 H163 0.950 . S
C169 C168 1.327 . S
C169 C173 1.409 1_554 S
C170 C153 1.574 . S
C170 H164 0.949 . S
C170 C174 1.368 1_556 S
C171 C152 1.429 . S
C171 C165 1.429 1_554 S
C171 C172 1.523 . S
C172 C153 1.368 1_554 S
C172 C166 1.368 . S
C172 C171 1.523 . S
C173 C157 1.457 . S
C173 C169 1.409 1_556 S
C173 C174 1.516 1_556 S
C174 C158 1.368 . S
C174 C170 1.368 1_554 S
C174 C173 1.516 1_554 S
H175 C150 0.950 . S
H176 C152 0.950 . S
H177 C153 0.949 . S
H178 C155 0.950 . S
H179 C157 0.950 . S
C180 C181 1.349 . S
C180 C182 1.327 . S
C180 H205 0.950 . S
C181 C180 1.349 . S
C181 C197 1.349 1_554 S
C182 C180 1.327 . S
C182 C201 1.429 . S
C182 H206 0.950 . S
C183 C200 1.574 . S
C183 C202 1.368 . S
C183 H207 0.949 1_554 S
H184 C188 0.949 . S
C185 C186 1.349 . S
C185 C187 1.327 . S
C185 H208 0.950 . S
C186 C185 1.349 . S
C186 C198 1.349 . S
C187 C185 1.327 . S
C187 C203 1.429 . S
C187 H209 0.935 1_554 S
C188 H184 0.949 . S
C188 C196 1.574 . S
C188 C204 1.368 . S
H189 C197 0.950 . S
H190 C195 0.953 1_556 S
H191 C196 0.949 . S
H192 C198 0.950 . S
H193 C199 0.950 . S
H194 C200 0.949 1_556 S
C195 H190 0.953 1_554 S
C195 C197 1.327 1_554 S
C195 C201 1.425 . S
C196 C188 1.574 . S
C196 H191 0.949 . S
C196 C202 1.368 . S
C197 C181 1.349 1_556 S
C197 H189 0.950 . S
C197 C195 1.327 1_556 S
C198 C186 1.349 . S
C198 H192 0.950 . S
C198 C199 1.327 . S
C199 H193 0.950 . S
C199 C198 1.327 . S
C199 C203 1.429 . S
C200 C183 1.574 . S
C200 H194 0.949 1_554 S
C200 C204 1.368 . S
C201 C182 1.429 . S
C201 C195 1.425 . S
C201 C202 1.523 . S
C202 C183 1.368 . S
C202 C196 1.368 . S
C202 C201 1.523 . S
C203 C187 1.429 . S
C203 C199 1.429 . S
C203 C204 1.523 . S
C204 C188 1.368 . S
C204 C200 1.368 . S
C204 C203 1.523 . S
H205 C180 0.950 . S
H206 C182 0.950 . S
H207 C183 0.949 1_556 S
H208 C185 0.950 . S
H209 C187 0.935 1_556 S
C210 C211 1.349 1_556 S
C210 C212 1.327 . S
C210 H235 0.950 . S
C211 C210 1.349 1_554 S
C211 C227 1.349 . S
C212 C210 1.327 . S
C212 C231 1.417 1_556 S
C212 H236 0.950 . S
C213 C230 1.574 . S
C213 C232 1.368 1_554 S
C213 H237 0.949 . S
H214 C218 0.949 . S
C215 C216 1.349 1_554 S
C215 C217 1.327 . S
C215 H238 0.950 . S
C216 C215 1.349 1_556 S
C216 C228 1.349 . S
C217 C215 1.327 . S
C217 C233 1.429 1_554 S
C217 H239 0.950 . S
C218 H214 0.949 . S
C218 C226 1.574 . S
C218 C234 1.368 . S
H219 C227 0.950 . S
H220 C225 0.950 . S
H221 C226 0.949 . S
H222 C228 0.950 . S
H223 C229 0.950 . S
H224 C230 0.949 . S
C225 H220 0.950 . S
C225 C227 1.327 . S
C225 C231 1.440 . S
C226 C218 1.574 . S
C226 H221 0.949 . S
C226 C232 1.368 . S
C227 C211 1.349 . S
C227 H219 0.950 . S
C227 C225 1.327 . S
C228 C216 1.349 . S
C228 H222 0.950 . S
C228 C229 1.327 . S
C229 H223 0.950 . S
C229 C228 1.327 . S
C229 C233 1.429 . S
C230 C213 1.574 . S
C230 H224 0.949 . S
C230 C234 1.368 1_554 S
C231 C212 1.417 1_554 S
C231 C225 1.440 . S
C231 C232 1.523 1_554 S
C232 C213 1.368 1_556 S
C232 C226 1.368 . S
C232 C231 1.523 1_556 S
C233 C217 1.429 1_556 S
C233 C229 1.429 . S
C233 C234 1.523 . S
C234 C218 1.368 . S
C234 C230 1.368 1_556 S
C234 C233 1.523 . S
H235 C210 0.950 . S
H236 C212 0.950 . S
H237 C213 0.949 . S
H238 C215 0.950 . S
H239 C217 0.950 . S
C240 C241 1.349 . S
C240 C242 1.327 . S
C240 H265 0.950 . S
C241 C240 1.349 . S
C241 C257 1.349 . S
C242 C240 1.327 . S
C242 C261 1.429 . S
C242 H266 0.950 . S
C243 C260 1.574 . S
C243 C262 1.368 . S
C243 H267 0.949 . S
H244 C248 0.949 . S
C245 C246 1.349 . S
C245 C247 1.327 . S
C245 H268 0.950 . S
C246 C245 1.349 . S
C246 C258 1.349 . S
C247 C245 1.327 . S
C247 C263 1.429 . S
C247 H269 0.950 . S
C248 H244 0.949 . S
C248 C256 1.574 . S
C248 C264 1.368 . S
H249 C257 0.950 . S
H250 C255 0.950 . S
H251 C256 0.949 . S
H252 C258 0.950 . S
H253 C259 0.950 . S
H254 C260 0.949 . S
C255 H250 0.950 . S
C255 C257 1.327 . S
C255 C261 1.429 . S
C256 C248 1.574 . S
C256 H251 0.949 . S
C256 C262 1.368 . S
C257 C241 1.349 . S
C257 H249 0.950 . S
C257 C255 1.327 . S
C258 C246 1.349 . S
C258 H252 0.950 . S
C258 C259 1.327 . S
C259 H253 0.950 . S
C259 C258 1.327 . S
C259 C263 1.429 . S
C260 C243 1.574 . S
C260 H254 0.949 . S
C260 C264 1.368 . S
C261 C242 1.429 . S
C261 C255 1.429 . S
C261 C262 1.523 . S
C262 C243 1.368 . S
C262 C256 1.368 . S
C262 C261 1.523 . S
C263 C247 1.429 . S
C263 C259 1.429 . S
C263 C264 1.523 . S
C264 C248 1.368 . S
C264 C260 1.368 . S
C264 C263 1.523 . S
H265 C240 0.950 . S
H266 C242 0.950 . S
H267 C243 0.949 . S
H268 C245 0.950 . S
H269 C247 0.950 . S
C270 C271 1.349 . S
C270 C272 1.327 . S
C270 H295 0.950 . S
C271 C270 1.349 . S
C271 C287 1.349 . S
C272 C270 1.327 . S
C272 C291 1.429 . S
C272 H296 0.950 . S
C273 C290 1.574 . S
C273 C292 1.368 . S
C273 H297 0.949 . S
H274 C278 0.949 . S
C275 C276 1.349 . S
C275 C277 1.327 . S
C275 H298 0.950 . S
C276 C275 1.349 . S
C276 C288 1.349 . S
C277 C275 1.327 . S
C277 C293 1.429 . S
C277 H299 0.950 . S
C278 H274 0.949 . S
C278 C286 1.574 . S
C278 C294 1.368 . S
H279 C287 0.950 . S
H280 C285 0.950 . S
H281 C286 0.949 . S
H282 C288 0.950 . S
H283 C289 0.950 . S
H284 C290 0.949 . S
C285 H280 0.950 . S
C285 C287 1.327 . S
C285 C291 1.429 . S
C286 C278 1.574 . S
C286 H281 0.949 . S
C286 C292 1.368 . S
C287 C271 1.349 . S
C287 H279 0.950 . S
C287 C285 1.327 . S
C288 C276 1.349 . S
C288 H282 0.950 . S
C288 C289 1.327 . S
C289 H283 0.950 . S
C289 C288 1.327 . S
C289 C293 1.429 . S
C290 C273 1.574 . S
C290 H284 0.949 . S
C290 C294 1.368 . S
C291 C272 1.429 . S
C291 C285 1.429 . S
C291 C292 1.523 . S
C292 C273 1.368 . S
C292 C286 1.368 . S
C292 C291 1.523 . S
C293 C277 1.429 . S
C293 C289 1.429 . S
C293 C294 1.523 . S
C294 C278 1.368 . S
C294 C290 1.368 . S
C294 C293 1.523 . S
H295 C270 0.950 . S
H296 C272 0.950 . S
H297 C273 0.949 . S
H298 C275 0.950 . S
H299 C277 0.950 . S
C300 C301 1.349 . S
C300 C302 1.327 . S
C300 H325 0.950 . S
C301 C300 1.349 . S
C301 C317 1.349 . S
C302 C300 1.327 . S
C302 C321 1.429 . S
C302 H326 0.950 . S
C303 C320 1.574 . S
C303 C322 1.368 . S
C303 H327 0.949 . S
H304 C308 0.949 . S
C305 C306 1.349 . S
C305 C307 1.327 . S
C305 H328 0.950 . S
C306 C305 1.349 . S
C306 C318 1.349 . S
C307 C305 1.327 . S
C307 C323 1.429 . S
C307 H329 0.950 . S
C308 H304 0.949 . S
C308 C316 1.574 . S
C308 C324 1.368 . S
H309 C317 0.950 . S
H310 C315 0.950 . S
H311 C316 0.949 . S
H312 C318 0.950 . S
H313 C319 0.950 . S
H314 C320 0.949 . S
C315 H310 0.950 . S
C315 C317 1.327 . S
C315 C321 1.429 . S
C316 C308 1.574 . S
C316 H311 0.949 . S
C316 C322 1.368 . S
C317 C301 1.349 . S
C317 H309 0.950 . S
C317 C315 1.327 . S
C318 C306 1.349 . S
C318 H312 0.950 . S
C318 C319 1.327 . S
C319 H313 0.950 . S
C319 C318 1.327 . S
C319 C323 1.429 . S
C320 C303 1.574 . S
C320 H314 0.949 . S
C320 C324 1.368 . S
C321 C302 1.429 . S
C321 C315 1.429 . S
C321 C322 1.523 . S
C322 C303 1.368 . S
C322 C316 1.368 . S
C322 C321 1.523 . S
C323 C307 1.429 . S
C323 C319 1.429 . S
C323 C324 1.523 . S
C324 C308 1.368 . S
C324 C320 1.368 . S
C324 C323 1.523 . S
H325 C300 0.950 . S
H326 C302 0.950 . S
H327 C303 0.949 . S
H328 C305 0.950 . S
H329 C307 0.950 . S
C330 C331 1.349 . S
C330 C332 1.327 . S
C330 H355 0.950 . S
C331 C330 1.349 . S
C331 C347 1.349 . S
C332 C330 1.327 . S
C332 C351 1.429 . S
C332 H356 0.950 . S
C333 C350 1.574 . S
C333 C352 1.368 . S
C333 H357 0.949 . S
H334 C338 0.949 . S
C335 C336 1.349 . S
C335 C337 1.327 . S
C335 H358 0.950 . S
C336 C335 1.349 . S
C336 C348 1.349 . S
C337 C335 1.327 . S
C337 C353 1.429 . S
C337 H359 0.950 . S
C338 H334 0.949 . S
C338 C346 1.574 . S
C338 C354 1.368 . S
H339 C347 0.950 . S
H340 C345 0.950 . S
H341 C346 0.949 . S
H342 C348 0.950 . S
H343 C349 0.950 . S
H344 C350 0.949 . S
C345 H340 0.950 . S
C345 C347 1.327 . S
C345 C351 1.429 . S
C346 C338 1.574 . S
C346 H341 0.949 . S
C346 C352 1.368 . S
C347 C331 1.349 . S
C347 H339 0.950 . S
C347 C345 1.327 . S
C348 C336 1.349 . S
C348 H342 0.950 . S
C348 C349 1.327 . S
C349 H343 0.950 . S
C349 C348 1.327 . S
C349 C353 1.429 . S
C350 C333 1.574 . S
C350 H344 0.949 . S
C350 C354 1.368 . S
C351 C332 1.429 . S
C351 C345 1.429 . S
C351 C352 1.523 . S
C352 C333 1.368 . S
C352 C346 1.368 . S
C352 C351 1.523 . S
C353 C337 1.429 . S
C353 C349 1.429 . S
C353 C354 1.523 . S
C354 C338 1.368 . S
C354 C350 1.368 . S
C354 C353 1.523 . S
H355 C330 0.950 . S
H356 C332 0.950 . S
H357 C333 0.949 . S
H358 C335 0.950 . S
H359 C337 0.950 . S
C360 C361 1.349 1_565 S
C360 C362 1.327 . S
C360 H385 0.950 . S
C361 C360 1.349 1_545 S
C361 C377 1.349 . S
C362 C360 1.327 . S
C362 C381 1.434 . S
C362 H386 0.950 . S
C363 C380 1.574 . S
C363 C382 1.368 1_645 S
C363 H387 0.949 . S
H364 C368 0.949 . S
C365 C366 1.349 1_645 S
C365 C367 1.327 . S
C365 H388 0.950 . S
C366 C365 1.349 1_465 S
C366 C378 1.349 . S
C367 C365 1.327 . S
C367 C383 1.429 1_645 S
C367 H389 0.950 . S
C368 H364 0.949 . S
C368 C376 1.574 . S
C368 C384 1.368 . S
H369 C377 0.950 1_655 S
H370 C375 0.950 1_655 S
H371 C376 0.949 . S
H372 C378 0.950 . S
H373 C379 0.950 . S
H374 C380 0.949 . S
C375 H370 0.950 1_455 S
C375 C377 1.327 . S
C375 C381 1.424 1_545 S
C376 C368 1.574 . S
C376 H371 0.949 . S
C376 C382 1.368 . S
C377 C361 1.349 . S
C377 H369 0.950 1_455 S
C377 C375 1.327 . S
C378 C366 1.349 . S
C378 H372 0.950 . S
C378 C379 1.327 . S
C379 H373 0.950 . S
C379 C378 1.327 . S
C379 C383 1.429 . S
C380 C363 1.574 . S
C380 H374 0.949 . S
C380 C384 1.368 1_645 S
C381 C362 1.434 . S
C381 C375 1.424 1_565 S
C381 C382 1.522 . S
C382 C363 1.368 1_465 S
C382 C376 1.368 . S
C382 C381 1.522 . S
C383 C367 1.429 1_465 S
C383 C379 1.429 . S
C383 C384 1.523 . S
C384 C368 1.368 . S
C384 C380 1.368 1_465 S
C384 C383 1.523 . S
H385 C360 0.950 . S
H386 C362 0.950 . S
H387 C363 0.949 . S
H388 C365 0.950 . S
H389 C367 0.950 . S
C390 C391 1.349 . S
C390 C392 1.327 . S
C390 H415 0.950 . S
C391 C390 1.349 . S
C391 C407 1.349 . S
C392 C390 1.327 . S
C392 C411 1.429 . S
C392 H416 0.950 . S
C393 C410 1.574 . S
C393 C412 1.368 . S
C393 H417 0.949 1_445 S
H394 C398 0.949 . S
C395 C396 1.349 . S
C395 C397 1.327 . S
C395 H418 0.950 1_445 S
C396 C395 1.349 . S
C396 C408 1.349 . S
C397 C395 1.327 . S
C397 C413 1.429 . S
C397 H419 0.950 1_445 S
C398 H394 0.949 . S
C398 C406 1.574 . S
C398 C414 1.368 . S
H399 C407 0.950 1_665 S
H400 C405 0.950 1_665 S
H401 C406 0.949 . S
H402 C408 0.950 . S
H403 C409 0.950 . S
H404 C410 0.949 1_665 S
C405 H400 0.950 1_445 S
C405 C407 1.327 . S
C405 C411 1.429 . S
C406 C398 1.574 . S
C406 H401 0.949 . S
C406 C412 1.368 . S
C407 C391 1.349 . S
C407 H399 0.950 1_445 S
C407 C405 1.327 . S
C408 C396 1.349 . S
C408 H402 0.950 . S
C408 C409 1.327 . S
C409 H403 0.950 . S
C409 C408 1.327 . S
C409 C413 1.429 . S
C410 C393 1.574 . S
C410 H404 0.949 1_445 S
C410 C414 1.368 . S
C411 C392 1.429 . S
C411 C405 1.429 . S
C411 C412 1.523 . S
C412 C393 1.368 . S
C412 C406 1.368 . S
C412 C411 1.523 . S
C413 C397 1.429 . S
C413 C409 1.429 . S
C413 C414 1.523 . S
C414 C398 1.368 . S
C414 C410 1.368 . S
C414 C413 1.523 . S
H415 C390 0.950 . S
H416 C392 0.950 . S
H417 C393 0.949 1_665 S
H418 C395 0.950 1_665 S
H419 C397 0.950 1_665 S
C420 C421 1.349 . S
C420 C422 1.327 . S
C420 H445 0.950 . S
C421 C420 1.349 . S
C421 C437 1.349 . S
C422 C420 1.327 . S
C422 C441 1.429 . S
C422 H446 0.950 . S
C423 C440 1.574 . S
C423 C442 1.368 . S
C423 H447 0.949 . S
H424 C428 0.949 . S
C425 C426 1.349 . S
C425 C427 1.327 . S
C425 H448 0.950 . S
C426 C425 1.349 . S
C426 C438 1.349 . S
C427 C425 1.327 . S
C427 C443 1.429 . S
C427 H449 0.950 . S
C428 H424 0.949 . S
C428 C436 1.574 . S
C428 C444 1.368 . S
H429 C437 0.950 . S
H430 C435 0.950 . S
H431 C436 0.949 . S
H432 C438 0.950 . S
H433 C439 0.950 . S
H434 C440 0.949 . S
C435 H430 0.950 . S
C435 C437 1.327 . S
C435 C441 1.429 . S
C436 C428 1.574 . S
C436 H431 0.949 . S
C436 C442 1.368 . S
C437 C421 1.349 . S
C437 H429 0.950 . S
C437 C435 1.327 . S
C438 C426 1.349 . S
C438 H432 0.950 . S
C438 C439 1.327 . S
C439 H433 0.950 . S
C439 C438 1.327 . S
C439 C443 1.429 . S
C440 C423 1.574 . S
C440 H434 0.949 . S
C440 C444 1.368 . S
C441 C422 1.429 . S
C441 C435 1.429 . S
C441 C442 1.523 . S
C442 C423 1.368 . S
C442 C436 1.368 . S
C442 C441 1.523 . S
C443 C427 1.429 . S
C443 C439 1.429 . S
C443 C444 1.523 . S
C444 C428 1.368 . S
C444 C440 1.368 . S
C444 C443 1.523 . S
H445 C420 0.950 . S
H446 C422 0.950 . S
H447 C423 0.949 . S
H448 C425 0.950 . S
H449 C427 0.950 . S
C450 C451 1.349 . S
C450 C452 1.327 . S
C450 H475 0.950 . S
C451 C450 1.349 . S
C451 C467 1.349 . S
C452 C450 1.327 . S
C452 C471 1.429 . S
C452 H476 0.950 . S
C453 C470 1.574 . S
C453 C472 1.368 . S
C453 H477 0.949 . S
H454 C458 0.949 . S
C455 C456 1.349 . S
C455 C457 1.327 . S
C455 H478 0.950 . S
C456 C455 1.349 . S
C456 C468 1.349 . S
C457 C455 1.327 . S
C457 C473 1.429 . S
C457 H479 0.950 . S
C458 H454 0.949 . S
C458 C466 1.574 . S
C458 C474 1.368 . S
H459 C467 0.950 . S
H460 C465 0.950 . S
H461 C466 0.949 . S
H462 C468 0.950 . S
H463 C469 0.950 . S
H464 C470 0.949 . S
C465 H460 0.950 . S
C465 C467 1.327 . S
C465 C471 1.429 . S
C466 C458 1.574 . S
C466 H461 0.949 . S
C466 C472 1.368 . S
C467 C451 1.349 . S
C467 H459 0.950 . S
C467 C465 1.327 . S
C468 C456 1.349 . S
C468 H462 0.950 . S
C468 C469 1.327 . S
C469 H463 0.950 . S
C469 C468 1.327 . S
C469 C473 1.429 . S
C470 C453 1.574 . S
C470 H464 0.949 . S
C470 C474 1.368 . S
C471 C452 1.429 . S
C471 C465 1.429 . S
C471 C472 1.523 . S
C472 C453 1.368 . S
C472 C466 1.368 . S
C472 C471 1.523 . S
C473 C457 1.429 . S
C473 C469 1.429 . S
C473 C474 1.523 . S
C474 C458 1.368 . S
C474 C470 1.368 . S
C474 C473 1.523 . S
H475 C450 0.950 . S
H476 C452 0.950 . S
H477 C453 0.949 . S
H478 C455 0.950 . S
H479 C457 0.950 . S
C126 C111 1.233 . S
C121 C29 1.352 . S
C151 C8 1.370 . S
C156 C98 1.257 . S
C181 C0 1.489 . S
C186 C115 1.467 . S
C211 C17 1.475 . S
C216 C102 1.457 . S
C241 C63 1.352 . S
C246 C85 1.233 . S
C271 C42 1.370 . S
C276 C72 1.257 . S
C306 C89 1.467 . S
C301 C34 1.489 . S
C336 C76 1.457 . S
C331 C51 1.475 . S
C361 C4 1.513 . S
C366 C77 1.512 . S
C391 C13 1.523 . S
C396 C90 1.527 . S
C426 C103 1.512 . S
C421 C38 1.513 . S
C451 C47 1.523 . S
C456 C116 1.527 . S
