# Generated by pormake.
# Topology eea, (3,6)-cn, num edge types: 1
# Building blocks:
#     Node 0, Type 0, BuildingBlock: VETTIZ_charged_linker_0, # of connection points: 3
#     Node 1, Type 0, BuildingBlock: VETTIZ_charged_linker_0, # of connection points: 3
#     Node 2, Type 0, BuildingBlock: VETTIZ_charged_linker_0, # of connection points: 3
#     Node 3, Type 0, BuildingBlock: VETTIZ_charged_linker_0, # of connection points: 3
#     Node 4, Type 0, BuildingBlock: VETTIZ_charged_linker_0, # of connection points: 3
#     Node 5, Type 0, BuildingBlock: VETTIZ_charged_linker_0, # of connection points: 3
#     Node 6, Type 0, BuildingBlock: VETTIZ_charged_linker_0, # of connection points: 3
#     Node 7, Type 0, BuildingBlock: VETTIZ_charged_linker_0, # of connection points: 3
#     Node 8, Type 0, BuildingBlock: VETTIZ_charged_linker_0, # of connection points: 3
#     Node 9, Type 0, BuildingBlock: VETTIZ_charged_linker_0, # of connection points: 3
#     Node 10, Type 0, BuildingBlock: VETTIZ_charged_linker_0, # of connection points: 3
#     Node 11, Type 0, BuildingBlock: VETTIZ_charged_linker_0, # of connection points: 3
#     Node 12, Type 0, BuildingBlock: VETTIZ_charged_linker_0, # of connection points: 3
#     Node 13, Type 0, BuildingBlock: VETTIZ_charged_linker_0, # of connection points: 3
#     Node 14, Type 0, BuildingBlock: VETTIZ_charged_linker_0, # of connection points: 3
#     Node 15, Type 0, BuildingBlock: VETTIZ_charged_linker_0, # of connection points: 3
#     Node 16, Type 0, BuildingBlock: VETTIZ_charged_linker_0, # of connection points: 3
#     Node 17, Type 0, BuildingBlock: VETTIZ_charged_linker_0, # of connection points: 3
#     Node 18, Type 1, BuildingBlock: CIFDUS_clean_sbu_1, # of connection points: 6
#     Node 19, Type 1, BuildingBlock: CIFDUS_clean_sbu_1, # of connection points: 6
#     Node 20, Type 1, BuildingBlock: CIFDUS_clean_sbu_1, # of connection points: 6
#     Node 21, Type 1, BuildingBlock: CIFDUS_clean_sbu_1, # of connection points: 6
#     Node 22, Type 1, BuildingBlock: CIFDUS_clean_sbu_1, # of connection points: 6
#     Node 23, Type 1, BuildingBlock: CIFDUS_clean_sbu_1, # of connection points: 6
#     Node 24, Type 1, BuildingBlock: CIFDUS_clean_sbu_1, # of connection points: 6
#     Node 25, Type 1, BuildingBlock: CIFDUS_clean_sbu_1, # of connection points: 6
#     Node 26, Type 1, BuildingBlock: CIFDUS_clean_sbu_1, # of connection points: 6
#     Edge 27, Type (0, 1), BuildingBlock: UVAHIK_clean_linker_0, # of connection points: 2
#     Edge 28, Type (0, 1), BuildingBlock: UVAHIK_clean_linker_0, # of connection points: 2
#     Edge 29, Type (0, 1), BuildingBlock: UVAHIK_clean_linker_0, # of connection points: 2
#     Edge 30, Type (0, 1), BuildingBlock: UVAHIK_clean_linker_0, # of connection points: 2
#     Edge 31, Type (0, 1), BuildingBlock: UVAHIK_clean_linker_0, # of connection points: 2
#     Edge 32, Type (0, 1), BuildingBlock: UVAHIK_clean_linker_0, # of connection points: 2
#     Edge 33, Type (0, 1), BuildingBlock: UVAHIK_clean_linker_0, # of connection points: 2
#     Edge 34, Type (0, 1), BuildingBlock: UVAHIK_clean_linker_0, # of connection points: 2
#     Edge 35, Type (0, 1), BuildingBlock: UVAHIK_clean_linker_0, # of connection points: 2
#     Edge 36, Type (0, 1), BuildingBlock: UVAHIK_clean_linker_0, # of connection points: 2
#     Edge 37, Type (0, 1), BuildingBlock: UVAHIK_clean_linker_0, # of connection points: 2
#     Edge 38, Type (0, 1), BuildingBlock: UVAHIK_clean_linker_0, # of connection points: 2
#     Edge 39, Type (0, 1), BuildingBlock: UVAHIK_clean_linker_0, # of connection points: 2
#     Edge 40, Type (0, 1), BuildingBlock: UVAHIK_clean_linker_0, # of connection points: 2
#     Edge 41, Type (0, 1), BuildingBlock: UVAHIK_clean_linker_0, # of connection points: 2
#     Edge 42, Type (0, 1), BuildingBlock: UVAHIK_clean_linker_0, # of connection points: 2
#     Edge 43, Type (0, 1), BuildingBlock: UVAHIK_clean_linker_0, # of connection points: 2
#     Edge 44, Type (0, 1), BuildingBlock: UVAHIK_clean_linker_0, # of connection points: 2
#     Edge 45, Type (0, 1), BuildingBlock: UVAHIK_clean_linker_0, # of connection points: 2
#     Edge 46, Type (0, 1), BuildingBlock: UVAHIK_clean_linker_0, # of connection points: 2
#     Edge 47, Type (0, 1), BuildingBlock: UVAHIK_clean_linker_0, # of connection points: 2
#     Edge 48, Type (0, 1), BuildingBlock: UVAHIK_clean_linker_0, # of connection points: 2
#     Edge 49, Type (0, 1), BuildingBlock: UVAHIK_clean_linker_0, # of connection points: 2
#     Edge 50, Type (0, 1), BuildingBlock: UVAHIK_clean_linker_0, # of connection points: 2
#     Edge 51, Type (0, 1), BuildingBlock: UVAHIK_clean_linker_0, # of connection points: 2
#     Edge 52, Type (0, 1), BuildingBlock: UVAHIK_clean_linker_0, # of connection points: 2
#     Edge 53, Type (0, 1), BuildingBlock: UVAHIK_clean_linker_0, # of connection points: 2
#     Edge 54, Type (0, 1), BuildingBlock: UVAHIK_clean_linker_0, # of connection points: 2
#     Edge 55, Type (0, 1), BuildingBlock: UVAHIK_clean_linker_0, # of connection points: 2
#     Edge 56, Type (0, 1), BuildingBlock: UVAHIK_clean_linker_0, # of connection points: 2
#     Edge 57, Type (0, 1), BuildingBlock: UVAHIK_clean_linker_0, # of connection points: 2
#     Edge 58, Type (0, 1), BuildingBlock: UVAHIK_clean_linker_0, # of connection points: 2
#     Edge 59, Type (0, 1), BuildingBlock: UVAHIK_clean_linker_0, # of connection points: 2
#     Edge 60, Type (0, 1), BuildingBlock: UVAHIK_clean_linker_0, # of connection points: 2
#     Edge 61, Type (0, 1), BuildingBlock: UVAHIK_clean_linker_0, # of connection points: 2
#     Edge 62, Type (0, 1), BuildingBlock: UVAHIK_clean_linker_0, # of connection points: 2
#     Edge 63, Type (0, 1), BuildingBlock: UVAHIK_clean_linker_0, # of connection points: 2
#     Edge 64, Type (0, 1), BuildingBlock: UVAHIK_clean_linker_0, # of connection points: 2
#     Edge 65, Type (0, 1), BuildingBlock: UVAHIK_clean_linker_0, # of connection points: 2
#     Edge 66, Type (0, 1), BuildingBlock: UVAHIK_clean_linker_0, # of connection points: 2
#     Edge 67, Type (0, 1), BuildingBlock: UVAHIK_clean_linker_0, # of connection points: 2
#     Edge 68, Type (0, 1), BuildingBlock: UVAHIK_clean_linker_0, # of connection points: 2
#     Edge 69, Type (0, 1), BuildingBlock: UVAHIK_clean_linker_0, # of connection points: 2
#     Edge 70, Type (0, 1), BuildingBlock: UVAHIK_clean_linker_0, # of connection points: 2
#     Edge 71, Type (0, 1), BuildingBlock: UVAHIK_clean_linker_0, # of connection points: 2
#     Edge 72, Type (0, 1), BuildingBlock: UVAHIK_clean_linker_0, # of connection points: 2
#     Edge 73, Type (0, 1), BuildingBlock: UVAHIK_clean_linker_0, # of connection points: 2
#     Edge 74, Type (0, 1), BuildingBlock: UVAHIK_clean_linker_0, # of connection points: 2
#     Edge 75, Type (0, 1), BuildingBlock: UVAHIK_clean_linker_0, # of connection points: 2
#     Edge 76, Type (0, 1), BuildingBlock: UVAHIK_clean_linker_0, # of connection points: 2
#     Edge 77, Type (0, 1), BuildingBlock: UVAHIK_clean_linker_0, # of connection points: 2
#     Edge 78, Type (0, 1), BuildingBlock: UVAHIK_clean_linker_0, # of connection points: 2
#     Edge 79, Type (0, 1), BuildingBlock: UVAHIK_clean_linker_0, # of connection points: 2
#     Edge 80, Type (0, 1), BuildingBlock: UVAHIK_clean_linker_0, # of connection points: 2
# Relax obj value: 0.101
# Max RMSD: 0.187
# Mean RMSD: 0.096
data_MOF--net-eea--node1-CIFDUS_clean_sbu_1--node2-VETTIZ_charged_linker_0--edge1-UVAHIK_clean_linker_0
_symmetry_space_group_name_H-M    P1
_symmetry_Int_Tables_number       1
_symmetry_cell_setting            triclinic
loop_
_symmetry_equiv_pos_as_xyz
'x, y, z'
_cell_length_a     81.411838
_cell_length_b     80.656231
_cell_length_c     83.714226
_cell_angle_alpha  90.163153
_cell_angle_beta   90.212144
_cell_angle_gamma 119.99469
loop_
_atom_site_label
_atom_site_type_symbol
_atom_site_fract_x
_atom_site_fract_y
_atom_site_fract_z
_atom_type_partial_charge
C0 C 0.17475 0.13086 0.40395 0.0
C1 C 0.18174 0.14936 0.4103 0.0
C2 C 0.19329 0.15487 0.42405 0.0
C3 C 0.19063 0.12362 0.42516 0.0
C4 C 0.17958 0.1183 0.41146 0.0
C5 C 0.17444 0.09848 0.40588 0.0
H6 H 0.17801 0.01719 0.41906 0.0
C7 C 0.19321 0.10747 0.43 0.0
C8 C 0.18395 0.09271 0.41866 0.0
H9 H 0.15181 0.02898 0.37908 0.0
H10 H 0.1618 0.06065 0.38985 0.0
H11 H 0.2151 0.05578 0.41857 0.0
H12 H 0.16453 0.03632 0.44631 0.0
H13 H 0.18385 0.04876 0.45938 0.0
H14 H 0.18094 0.02783 0.44906 0.0
H15 H 0.21066 0.04119 0.43593 0.0
H16 H 0.22282 0.06701 0.43724 0.0
C17 C 0.18331 0.1001 0.38922 0.0
C18 C 0.1526 0.08577 0.40618 0.0
C19 C 0.22684 0.11099 0.48237 0.0
C20 C 0.23138 0.0982 0.48987 0.0
C21 C 0.22703 0.08098 0.48211 0.0
C22 C 0.21777 0.07624 0.46729 0.0
C23 C 0.21285 0.0889 0.46009 0.0
C24 C 0.21775 0.10613 0.46744 0.0
C25 C 0.21217 0.11813 0.45758 0.0
C26 C 0.20246 0.10491 0.4434 0.0
C27 C 0.20278 0.08779 0.44507 0.0
C28 C 0.2305 0.13665 0.45262 0.0
C29 C 0.19815 0.12165 0.46747 0.0
C30 C 0.17417 0.02647 0.41273 0.0
C31 C 0.16387 0.02052 0.39837 0.0
C32 C 0.15968 0.03326 0.39023 0.0
C33 C 0.16549 0.0516 0.3965 0.0
C34 C 0.17579 0.05731 0.41095 0.0
C35 C 0.18003 0.04479 0.4187 0.0
C36 C 0.19158 0.05322 0.43358 0.0
C37 C 0.19351 0.07289 0.43366 0.0
C38 C 0.18416 0.07528 0.42047 0.0
C39 C 0.21102 0.05429 0.43138 0.0
C40 C 0.1798 0.04093 0.4479 0.0
H41 H 0.20648 0.14711 0.44204 0.0
H42 H 0.16611 0.12645 0.39321 0.0
H43 H 0.14679 0.08839 0.4173 0.0
H44 H 0.14777 0.07033 0.40613 0.0
H45 H 0.14603 0.08896 0.39587 0.0
H46 H 0.19726 0.1135 0.3883 0.0
H47 H 0.17398 0.10033 0.3796 0.0
H48 H 0.18638 0.08847 0.38677 0.0
H49 H 0.23035 0.12449 0.48799 0.0
H50 H 0.23038 0.07093 0.48771 0.0
H51 H 0.21459 0.06277 0.46213 0.0
H52 H 0.24297 0.1345 0.45244 0.0
H53 H 0.23384 0.14861 0.46104 0.0
H54 H 0.22962 0.14118 0.44033 0.0
H55 H 0.18753 0.10822 0.47342 0.0
H56 H 0.18983 0.1262 0.46015 0.0
H57 H 0.20575 0.13259 0.47692 0.0
H58 H 0.19883 0.1691 0.42905 0.0
C59 C 0.1977 0.14209 0.43155 0.0
C60 C 0.93832 0.14038 0.39029 0.0
C61 C 0.9469 0.15973 0.39505 0.0
C62 C 0.93786 0.16498 0.40674 0.0
C63 C 0.9134 0.13189 0.40984 0.0
C64 C 0.9216 0.12675 0.3978 0.0
C65 C 0.91062 0.10554 0.39439 0.0
H66 H 0.83993 0.01772 0.41598 0.0
C67 C 0.89694 0.11433 0.41597 0.0
C68 C 0.89515 0.09879 0.40693 0.0
H69 H 0.87543 0.03191 0.37412 0.0
H70 H 0.89217 0.06523 0.38222 0.0
H71 H 0.87187 0.04744 0.44116 0.0
H72 H 0.83013 0.04863 0.41045 0.0
H73 H 0.83134 0.0622 0.42725 0.0
H74 H 0.82398 0.03718 0.42955 0.0
H75 H 0.8468 0.03365 0.44462 0.0
H76 H 0.86085 0.05773 0.45218 0.0
C77 C 0.92389 0.09724 0.3972 0.0
C78 C 0.90245 0.10248 0.3772 0.0
C79 C 0.86145 0.11785 0.46465 0.0
C80 C 0.84643 0.10372 0.47368 0.0
C81 C 0.83813 0.08441 0.46887 0.0
C82 C 0.84489 0.07921 0.45554 0.0
C83 C 0.86011 0.09343 0.44683 0.0
C84 C 0.86803 0.11239 0.45133 0.0
C85 C 0.88421 0.12547 0.44067 0.0
C86 C 0.8846 0.11118 0.42901 0.0
C87 C 0.87053 0.09249 0.43279 0.0
C88 C 0.90244 0.13553 0.45107 0.0
C89 C 0.87889 0.13927 0.43228 0.0
C90 C 0.85123 0.0279 0.40842 0.0
C91 C 0.85615 0.02202 0.39429 0.0
C92 C 0.87135 0.0359 0.38514 0.0
C93 C 0.88091 0.05531 0.38974 0.0
C94 C 0.87509 0.06095 0.40353 0.0
C95 C 0.86043 0.04725 0.41254 0.0
C96 C 0.8549 0.05569 0.42602 0.0
C97 C 0.86867 0.0768 0.4237 0.0
C98 C 0.88073 0.07987 0.41071 0.0
C99 C 0.85863 0.04823 0.44189 0.0
C100 C 0.834 0.05064 0.42336 0.0
H101 H 0.9153 0.15615 0.4231 0.0
H102 H 0.94477 0.13584 0.38128 0.0
H103 H 0.89949 0.11406 0.37378 0.0
H104 H 0.88865 0.08913 0.37594 0.0
H105 H 0.91255 0.10241 0.36835 0.0
H106 H 0.9319 0.10281 0.4086 0.0
H107 H 0.93435 0.10132 0.38739 0.0
H108 H 0.91617 0.08151 0.39824 0.0
H109 H 0.86829 0.1328 0.46812 0.0
H110 H 0.82638 0.07328 0.47545 0.0
H111 H 0.83804 0.06426 0.45264 0.0
H112 H 0.90271 0.12542 0.45994 0.0
H113 H 0.90321 0.1478 0.45778 0.0
H114 H 0.91558 0.14063 0.44414 0.0
H115 H 0.86332 0.13229 0.43024 0.0
H116 H 0.88513 0.14351 0.42025 0.0
H117 H 0.88322 0.15233 0.43961 0.0
H118 H 0.94375 0.17981 0.41031 0.0
C119 C 0.92125 0.15121 0.41415 0.0
C120 C 0.93052 0.76005 0.39028 0.0
C121 C 0.94122 0.7541 0.39935 0.0
C122 C 0.9356 0.74787 0.41517 0.0
C123 C 0.90972 0.75443 0.41282 0.0
C124 C 0.91502 0.76026 0.39726 0.0
C125 C 0.9028 0.76711 0.38952 0.0
H126 H 0.8317 0.78714 0.39593 0.0
C127 C 0.89369 0.75739 0.41674 0.0
C128 C 0.88969 0.76499 0.40318 0.0
H129 H 0.86415 0.79129 0.35388 0.0
H130 H 0.88229 0.78036 0.36905 0.0
H131 H 0.82583 0.74664 0.40681 0.0
H132 H 0.86596 0.80445 0.42088 0.0
H133 H 0.86042 0.79052 0.43823 0.0
H134 H 0.84195 0.79243 0.42785 0.0
H135 H 0.8194 0.76134 0.4183 0.0
H136 H 0.82794 0.74703 0.42771 0.0
C137 C 0.89194 0.75349 0.37539 0.0
C138 C 0.91566 0.78832 0.38474 0.0
C139 C 0.86275 0.73876 0.47135 0.0
C140 C 0.84846 0.74098 0.47868 0.0
C141 C 0.84056 0.75057 0.47052 0.0
C142 C 0.84636 0.75732 0.45497 0.0
C143 C 0.86032 0.75457 0.44759 0.0
C144 C 0.86859 0.74583 0.45591 0.0
C145 C 0.88409 0.74531 0.44656 0.0
C146 C 0.88312 0.75437 0.43096 0.0
C147 C 0.86905 0.75956 0.4316 0.0
C148 C 0.87866 0.72413 0.44421 0.0
C149 C 0.90316 0.75772 0.45551 0.0
C150 C 0.84295 0.78602 0.39006 0.0
C151 C 0.8467 0.79028 0.37377 0.0
C152 C 0.86105 0.78809 0.36644 0.0
C153 C 0.87154 0.78176 0.37527 0.0
C154 C 0.8675 0.77741 0.39155 0.0
C155 C 0.85334 0.77951 0.39864 0.0
C156 C 0.85029 0.77336 0.41581 0.0
C157 C 0.865 0.76726 0.41792 0.0
C158 C 0.87513 0.76978 0.40373 0.0
C159 C 0.82979 0.75628 0.4174 0.0
C160 C 0.85472 0.79097 0.42634 0.0
H161 H 0.91649 0.74322 0.43402 0.0
H162 H 0.93421 0.76466 0.37804 0.0
H163 H 0.92643 0.79627 0.39421 0.0
H164 H 0.90782 0.79611 0.3833 0.0
H165 H 0.92335 0.78948 0.37349 0.0
H166 H 0.88891 0.73867 0.37782 0.0
H167 H 0.90031 0.75831 0.3642 0.0
H168 H 0.87785 0.75201 0.37329 0.0
H169 H 0.86928 0.73175 0.47756 0.0
H170 H 0.82958 0.75244 0.47604 0.0
H171 H 0.83962 0.76426 0.44925 0.0
H172 H 0.86341 0.71526 0.4409 0.0
H173 H 0.88102 0.71819 0.45538 0.0
H174 H 0.88655 0.72205 0.43447 0.0
H175 H 0.9028 0.76896 0.463 0.0
H176 H 0.91516 0.76578 0.44728 0.0
H177 H 0.90653 0.74887 0.46353 0.0
H178 H 0.94367 0.74346 0.42255 0.0
C179 C 0.91991 0.74795 0.42191 0.0
C180 C 0.17481 0.25032 0.63786 0.0
C181 C 0.19372 0.25785 0.63294 0.0
C182 C 0.19886 0.26547 0.61743 0.0
C183 C 0.16634 0.25656 0.61162 0.0
C184 C 0.1614 0.2499 0.62704 0.0
C185 C 0.14059 0.24201 0.63008 0.0
H186 H 0.05328 0.21689 0.60123 0.0
C187 C 0.14894 0.25263 0.60295 0.0
C188 C 0.13379 0.24423 0.6137 0.0
H189 H 0.06952 0.21474 0.65006 0.0
H190 H 0.10212 0.22769 0.64203 0.0
H191 H 0.08858 0.25865 0.59399 0.0
H192 H 0.07986 0.2022 0.58471 0.0
H193 H 0.09108 0.21638 0.56795 0.0
H194 H 0.06784 0.21195 0.57351 0.0
H195 H 0.07211 0.24293 0.57917 0.0
H196 H 0.09681 0.25846 0.57464 0.0
C197 C 0.13848 0.25476 0.64287 0.0
C198 C 0.13178 0.22071 0.63482 0.0
C199 C 0.15239 0.26597 0.54353 0.0
C200 C 0.13862 0.26245 0.53181 0.0
C201 C 0.11942 0.25383 0.53633 0.0
C202 C 0.11406 0.24887 0.55231 0.0
C203 C 0.12803 0.25247 0.56389 0.0
C204 C 0.1468 0.26083 0.55937 0.0
C205 C 0.15969 0.26302 0.57308 0.0
C206 C 0.1456 0.25482 0.58666 0.0
C207 C 0.12708 0.24869 0.58125 0.0
C208 C 0.1739 0.28467 0.57553 0.0
C209 C 0.16899 0.25071 0.56936 0.0
C210 C 0.06386 0.21901 0.61013 0.0
C211 C 0.05887 0.21471 0.62627 0.0
C212 C 0.07308 0.21804 0.63757 0.0
C213 C 0.09198 0.22553 0.63288 0.0
C214 C 0.09679 0.22988 0.61673 0.0
C215 C 0.08286 0.22673 0.60566 0.0
C216 C 0.09076 0.23294 0.58914 0.0
C217 C 0.11173 0.24048 0.59216 0.0
C218 C 0.11511 0.23844 0.60831 0.0
C219 C 0.08682 0.24901 0.58379 0.0
C220 C 0.08191 0.21506 0.57812 0.0
H221 H 0.19011 0.27056 0.59508 0.0
H222 H 0.17048 0.24458 0.64976 0.0
H223 H 0.13717 0.21335 0.62697 0.0
H224 H 0.11621 0.21255 0.63349 0.0
H225 H 0.13548 0.21936 0.64735 0.0
H226 H 0.15081 0.2696 0.64282 0.0
H227 H 0.13747 0.24894 0.65506 0.0
H228 H 0.12605 0.25655 0.64064 0.0
H229 H 0.16722 0.27229 0.5404 0.0
H230 H 0.10856 0.25111 0.52753 0.0
H231 H 0.09924 0.24241 0.55501 0.0
H232 H 0.16721 0.29341 0.57257 0.0
H233 H 0.1865 0.28955 0.56775 0.0
H234 H 0.17864 0.28841 0.58807 0.0
H235 H 0.15901 0.23747 0.56267 0.0
H236 H 0.17273 0.2455 0.58017 0.0
H237 H 0.18187 0.25874 0.56193 0.0
H238 H 0.21325 0.27116 0.61325 0.0
C239 C 0.18532 0.26491 0.6068 0.0
C240 C 0.83783 0.87297 0.59736 0.0
C241 C 0.83 0.85451 0.59058 0.0
C242 C 0.81768 0.84979 0.57733 0.0
C243 C 0.82168 0.88164 0.57745 0.0
C244 C 0.83354 0.88629 0.59059 0.0
C245 C 0.84078 0.90663 0.59609 0.0
H246 H 0.8461 0.99233 0.5829 0.0
C247 C 0.82059 0.89874 0.57291 0.0
C248 C 0.83188 0.91355 0.5837 0.0
H249 H 0.86968 0.97735 0.62288 0.0
H250 H 0.85722 0.94524 0.61199 0.0
H251 H 0.85635 0.97168 0.5557 0.0
H252 H 0.80671 0.95481 0.5841 0.0
H253 H 0.7986 0.94643 0.56468 0.0
H254 H 0.81354 0.97177 0.56814 0.0
H255 H 0.84003 0.97997 0.55162 0.0
H256 H 0.837 0.95807 0.54296 0.0
C257 C 0.86268 0.9176 0.5951 0.0
C258 C 0.83303 0.90611 0.61305 0.0
C259 C 0.78106 0.89608 0.52464 0.0
C260 C 0.77902 0.91025 0.51664 0.0
C261 C 0.78873 0.92921 0.52237 0.0
C262 C 0.80025 0.93402 0.53599 0.0
C263 C 0.80225 0.91977 0.54389 0.0
C264 C 0.79291 0.90121 0.53811 0.0
C265 C 0.79776 0.8883 0.54749 0.0
C266 C 0.81113 0.9021 0.5601 0.0
C267 C 0.8135 0.92039 0.55799 0.0
C268 C 0.80787 0.88102 0.53615 0.0
C269 C 0.77927 0.87226 0.55497 0.0
C270 C 0.84896 0.98229 0.58916 0.0
C271 C 0.85917 0.98744 0.60358 0.0
C272 C 0.86195 0.9737 0.61167 0.0
C273 C 0.85466 0.9551 0.60535 0.0
C274 C 0.84425 0.95015 0.59094 0.0
C275 C 0.84151 0.96371 0.58321 0.0
C276 C 0.82918 0.95591 0.56865 0.0
C277 C 0.82493 0.93538 0.56878 0.0
C278 C 0.83391 0.93201 0.58172 0.0
C279 C 0.84108 0.96698 0.55391 0.0
C280 C 0.81108 0.95735 0.57135 0.0
H281 H 0.80403 0.85866 0.5607 0.0
H282 H 0.84736 0.87709 0.60754 0.0
H283 H 0.81854 0.89354 0.61442 0.0
H284 H 0.83141 0.91865 0.61562 0.0
H285 H 0.84226 0.90508 0.62233 0.0
H286 H 0.86737 0.91427 0.58367 0.0
H287 H 0.86898 0.9135 0.60505 0.0
H288 H 0.86887 0.93327 0.59532 0.0
H289 H 0.77399 0.88147 0.52024 0.0
H290 H 0.7873 0.94028 0.51632 0.0
H291 H 0.8072 0.9487 0.53978 0.0
H292 H 0.81512 0.8912 0.52621 0.0
H293 H 0.79765 0.86698 0.53072 0.0
H294 H 0.81933 0.8798 0.54219 0.0
H295 H 0.77055 0.87822 0.55978 0.0
H296 H 0.78186 0.86527 0.56521 0.0
H297 H 0.77055 0.86117 0.54593 0.0
H298 H 0.81109 0.8356 0.57208 0.0
C299 C 0.81349 0.8632 0.57077 0.0
C300 C 0.06096 0.85885 0.61842 0.0
C301 C 0.05165 0.83983 0.61289 0.0
C302 C 0.05826 0.83516 0.59902 0.0
C303 C 0.08271 0.86835 0.59605 0.0
C304 C 0.07657 0.8728 0.60995 0.0
C305 C 0.08868 0.89356 0.61452 0.0
H306 H 0.16213 0.98147 0.59703 0.0
C307 C 0.09906 0.8861 0.59 0.0
C308 C 0.10279 0.90089 0.60089 0.0
H309 H 0.12686 0.96481 0.63904 0.0
H310 H 0.10884 0.93228 0.62898 0.0
H311 H 0.16866 0.94772 0.59694 0.0
H312 H 0.12778 0.95626 0.57118 0.0
H313 H 0.13738 0.94668 0.5577 0.0
H314 H 0.15278 0.96929 0.56729 0.0
H315 H 0.17477 0.96148 0.57893 0.0
H316 H 0.16547 0.93591 0.57859 0.0
C317 C 0.09839 0.89469 0.63077 0.0
C318 C 0.07597 0.90279 0.61458 0.0
C319 C 0.12742 0.8865 0.53576 0.0
C320 C 0.14276 0.90095 0.52728 0.0
C321 C 0.15376 0.91913 0.53432 0.0
C322 C 0.14922 0.92312 0.5494 0.0
C323 C 0.13355 0.90874 0.55761 0.0
C324 C 0.12322 0.89065 0.55097 0.0
C325 C 0.10774 0.87695 0.56192 0.0
C326 C 0.11004 0.89007 0.57589 0.0
C327 C 0.12503 0.90866 0.57315 0.0
C328 C 0.1121 0.861 0.56679 0.0
C329 C 0.08849 0.86955 0.55323 0.0
C330 C 0.15026 0.97091 0.6039 0.0
C331 C 0.1457 0.97571 0.61871 0.0
C332 C 0.13056 0.96141 0.62756 0.0
C333 C 0.12018 0.94256 0.62171 0.0
C334 C 0.12514 0.93794 0.60695 0.0
C335 C 0.13998 0.95206 0.59836 0.0
C336 C 0.14388 0.94457 0.58327 0.0
C337 C 0.12891 0.92358 0.58416 0.0
C338 C 0.11788 0.91975 0.59797 0.0
C339 C 0.16426 0.94763 0.58432 0.0
C340 C 0.14043 0.95472 0.56903 0.0
H341 H 0.07791 0.84494 0.57996 0.0
H342 H 0.0563 0.86272 0.62919 0.0
H343 H 0.06617 0.89777 0.6041 0.0
H344 H 0.08409 0.91852 0.61361 0.0
H345 H 0.06719 0.8989 0.62554 0.0
H346 H 0.10123 0.88263 0.6321 0.0
H347 H 0.08931 0.89401 0.64091 0.0
H348 H 0.11246 0.90771 0.632 0.0
H349 H 0.11897 0.8723 0.53068 0.0
H350 H 0.16563 0.93042 0.52795 0.0
H351 H 0.15797 0.93734 0.55399 0.0
H352 H 0.12756 0.86608 0.56619 0.0
H353 H 0.10472 0.84831 0.5588 0.0
H354 H 0.10826 0.85645 0.57933 0.0
H355 H 0.08781 0.88159 0.54744 0.0
H356 H 0.07624 0.86286 0.56134 0.0
H357 H 0.08651 0.859 0.54378 0.0
H358 H 0.05122 0.82056 0.59458 0.0
C359 C 0.07368 0.84933 0.59054 0.0
C360 C 0.84034 0.47082 0.74366 0.0
C361 C 0.84414 0.48709 0.7528 0.0
C362 C 0.85102 0.4887 0.76855 0.0
C363 C 0.85084 0.45872 0.76565 0.0
C364 C 0.84378 0.45687 0.7503 0.0
C365 C 0.84065 0.43874 0.74226 0.0
H366 H 0.84968 0.3595 0.74573 0.0
C367 C 0.85337 0.44213 0.76887 0.0
C368 C 0.84742 0.43032 0.75519 0.0
H369 H 0.8258 0.37586 0.70688 0.0
H370 H 0.83097 0.40399 0.72194 0.0
H371 H 0.8841 0.40047 0.75291 0.0
H372 H 0.82852 0.36744 0.77285 0.0
H373 H 0.84347 0.37951 0.78907 0.0
H374 H 0.84746 0.36295 0.77751 0.0
H375 H 0.87794 0.38093 0.7663 0.0
H376 H 0.887 0.4051 0.77351 0.0
C377 C 0.85327 0.44426 0.72724 0.0
C378 C 0.8192 0.42595 0.73876 0.0
C379 C 0.88037 0.43658 0.82236 0.0
C380 C 0.88521 0.42323 0.82822 0.0
C381 C 0.88252 0.40788 0.8184 0.0
C382 C 0.87503 0.40572 0.803 0.0
C383 C 0.8702 0.4191 0.79727 0.0
C384 C 0.87303 0.43431 0.80682 0.0
C385 C 0.86763 0.44739 0.79838 0.0
C386 C 0.86069 0.43722 0.78236 0.0
C387 C 0.86221 0.42068 0.78189 0.0
C388 C 0.88575 0.46725 0.79666 0.0
C389 C 0.85147 0.44762 0.80791 0.0
C390 C 0.84567 0.3692 0.74038 0.0
C391 C 0.83759 0.36567 0.72507 0.0
C392 C 0.8321 0.37836 0.71869 0.0
C393 C 0.83518 0.39466 0.72742 0.0
C394 C 0.84362 0.3981 0.74271 0.0
C395 C 0.8485 0.38527 0.7489 0.0
C396 C 0.85683 0.39055 0.76534 0.0
C397 C 0.85623 0.40875 0.76817 0.0
C398 C 0.84868 0.41334 0.7549 0.0
C399 C 0.8775 0.39436 0.76464 0.0
C400 C 0.84357 0.37432 0.77687 0.0
H401 H 0.85967 0.47682 0.78702 0.0
H402 H 0.83515 0.46914 0.7315 0.0
H403 H 0.8106 0.42722 0.74849 0.0
H404 H 0.81467 0.41058 0.7382 0.0
H405 H 0.81519 0.43018 0.72742 0.0
H406 H 0.8677 0.45643 0.72992 0.0
H407 H 0.84714 0.44871 0.71739 0.0
H408 H 0.85542 0.43258 0.72285 0.0
H409 H 0.88254 0.44867 0.82961 0.0
H410 H 0.88604 0.39738 0.82272 0.0
H411 H 0.87327 0.39366 0.7962 0.0
H412 H 0.89848 0.46574 0.79486 0.0
H413 H 0.88829 0.47617 0.80752 0.0
H414 H 0.88536 0.47521 0.78609 0.0
H415 H 0.84158 0.43317 0.81277 0.0
H416 H 0.84248 0.45124 0.80048 0.0
H417 H 0.8572 0.45776 0.81815 0.0
H418 H 0.8537 0.50081 0.776 0.0
C419 C 0.85439 0.47467 0.77499 0.0
C420 C 0.59594 0.48129 0.72345 0.0
C421 C 0.60615 0.50088 0.72751 0.0
C422 C 0.59978 0.5075 0.74038 0.0
C423 C 0.57359 0.47547 0.74479 0.0
C424 C 0.57981 0.4689 0.73225 0.0
C425 C 0.56755 0.44762 0.72978 0.0
H426 H 0.493 0.36359 0.75394 0.0
C427 C 0.55651 0.45901 0.75152 0.0
C428 C 0.55288 0.44261 0.7428 0.0
H429 H 0.53067 0.37285 0.71439 0.0
H430 H 0.54798 0.40672 0.72033 0.0
H431 H 0.52493 0.39364 0.779 0.0
H432 H 0.48626 0.39662 0.74566 0.0
H433 H 0.48863 0.41214 0.76135 0.0
H434 H 0.4788 0.3869 0.76526 0.0
H435 H 0.49961 0.38075 0.78114 0.0
H436 H 0.51378 0.40477 0.78865 0.0
C437 C 0.57995 0.43831 0.73269 0.0
C438 C 0.55859 0.44404 0.71288 0.0
C439 C 0.52389 0.46851 0.79951 0.0
C440 C 0.50771 0.45589 0.80831 0.0
C441 C 0.49684 0.43668 0.80317 0.0
C442 C 0.50241 0.42998 0.79001 0.0
C443 C 0.51899 0.44258 0.78176 0.0
C444 C 0.52916 0.46159 0.78628 0.0
C445 C 0.54603 0.47301 0.77572 0.0
C446 C 0.54448 0.45759 0.76433 0.0
C447 C 0.52877 0.43979 0.76809 0.0
C448 C 0.56419 0.48126 0.7862 0.0
C449 C 0.54312 0.48831 0.76703 0.0
C450 C 0.50491 0.37285 0.74646 0.0
C451 C 0.51042 0.36541 0.73368 0.0
C452 C 0.52624 0.37809 0.72447 0.0
C453 C 0.53619 0.3978 0.72785 0.0
C454 C 0.53025 0.40497 0.74054 0.0
C455 C 0.5148 0.39251 0.74954 0.0
C456 C 0.50996 0.40257 0.76219 0.0
C457 C 0.52528 0.42315 0.75952 0.0
C458 C 0.53721 0.42452 0.7469 0.0
C459 C 0.51203 0.39506 0.77867 0.0
C460 C 0.48985 0.39937 0.75859 0.0
H461 H 0.57957 0.50092 0.75864 0.0
H462 H 0.60031 0.4757 0.71359 0.0
H463 H 0.5549 0.45519 0.70978 0.0
H464 H 0.54511 0.43033 0.71188 0.0
H465 H 0.56856 0.44441 0.70367 0.0
H466 H 0.59009 0.44556 0.74273 0.0
H467 H 0.58836 0.43941 0.72192 0.0
H468 H 0.57165 0.42316 0.73625 0.0
H469 H 0.53268 0.48333 0.8031 0.0
H470 H 0.48406 0.42673 0.80942 0.0
H471 H 0.4937 0.41515 0.78692 0.0
H472 H 0.56271 0.47091 0.79563 0.0
H473 H 0.56702 0.49472 0.79225 0.0
H474 H 0.57689 0.48395 0.77943 0.0
H475 H 0.52783 0.48281 0.76441 0.0
H476 H 0.55006 0.49225 0.75525 0.0
H477 H 0.54828 0.50143 0.77447 0.0
H478 H 0.60753 0.52238 0.74405 0.0
C479 C 0.58357 0.49495 0.74897 0.0
C480 C 0.59748 0.11361 0.71851 0.0
C481 C 0.61398 0.11893 0.72752 0.0
C482 C 0.61281 0.1179 0.74431 0.0
C483 C 0.57897 0.10613 0.74283 0.0
C484 C 0.58025 0.10744 0.72637 0.0
C485 C 0.56161 0.10214 0.71854 0.0
H486 H 0.47001 0.07857 0.72631 0.0
C487 C 0.559 0.0993 0.74719 0.0
C488 C 0.54881 0.09703 0.73297 0.0
H489 H 0.50243 0.09083 0.68275 0.0
H490 H 0.52923 0.09395 0.69777 0.0
H491 H 0.48344 0.05047 0.74069 0.0
H492 H 0.50169 0.10998 0.74749 0.0
H493 H 0.50106 0.10039 0.76645 0.0
H494 H 0.4796 0.0909 0.75479 0.0
H495 H 0.47125 0.05819 0.75388 0.0
H496 H 0.49083 0.05542 0.76071 0.0
C497 C 0.55587 0.08455 0.70757 0.0
C498 C 0.56381 0.12005 0.70979 0.0
C499 C 0.53823 0.08727 0.80544 0.0
C500 C 0.52044 0.0804 0.81281 0.0
C501 C 0.5045 0.07593 0.80316 0.0
C502 C 0.50618 0.07829 0.7866 0.0
C503 C 0.52397 0.08515 0.77945 0.0
C504 C 0.53963 0.08944 0.78879 0.0
C505 C 0.55729 0.0962 0.77892 0.0
C506 C 0.54952 0.09503 0.76214 0.0
C507 C 0.53003 0.08869 0.76262 0.0
C508 C 0.56459 0.08195 0.78125 0.0
C509 C 0.57166 0.11707 0.78389 0.0
C510 C 0.48268 0.08146 0.71987 0.0
C511 C 0.48406 0.08456 0.70329 0.0
C512 C 0.50104 0.08866 0.69555 0.0
C513 C 0.5166 0.09047 0.7043 0.0
C514 C 0.51523 0.08824 0.72098 0.0
C515 C 0.4983 0.08336 0.72841 0.0
C516 C 0.49931 0.08154 0.74619 0.0
C517 C 0.51986 0.08682 0.7483 0.0
C518 C 0.52914 0.09078 0.73354 0.0
C519 C 0.48545 0.06039 0.75073 0.0
C520 C 0.4951 0.09633 0.75428 0.0
H521 H 0.59536 0.11088 0.76482 0.0
H522 H 0.59802 0.11457 0.7056 0.0
H523 H 0.57384 0.13342 0.71629 0.0
H524 H 0.55047 0.12045 0.70913 0.0
H525 H 0.56938 0.12106 0.69752 0.0
H526 H 0.55966 0.07443 0.71321 0.0
H527 H 0.56326 0.08895 0.69591 0.0
H528 H 0.54042 0.07607 0.70541 0.0
H529 H 0.5508 0.09095 0.81246 0.0
H530 H 0.49056 0.07021 0.80838 0.0
H531 H 0.49347 0.0746 0.78002 0.0
H532 H 0.55255 0.06696 0.7814 0.0
H533 H 0.57239 0.08465 0.79276 0.0
H534 H 0.57383 0.08237 0.77148 0.0
H535 H 0.56423 0.12503 0.78711 0.0
H536 H 0.58133 0.12544 0.77413 0.0
H537 H 0.58018 0.11746 0.79443 0.0
H538 H 0.62535 0.12185 0.75148 0.0
C539 C 0.59538 0.11145 0.75202 0.0
C540 C 0.83715 0.57292 0.96546 0.0
C541 C 0.85621 0.58236 0.96068 0.0
C542 C 0.86125 0.59246 0.94615 0.0
C543 C 0.82825 0.58203 0.94071 0.0
C544 C 0.82347 0.57304 0.95536 0.0
C545 C 0.80252 0.56339 0.95845 0.0
H546 H 0.71484 0.54182 0.93382 0.0
C547 C 0.81054 0.57812 0.93255 0.0
C548 C 0.79544 0.5674 0.94294 0.0
H549 H 0.73196 0.5301 0.97945 0.0
H550 H 0.76408 0.54396 0.97031 0.0
H551 H 0.75105 0.58406 0.92851 0.0
H552 H 0.73968 0.52828 0.91295 0.0
H553 H 0.75238 0.54445 0.89766 0.0
H554 H 0.72927 0.54056 0.9031 0.0
H555 H 0.73269 0.56952 0.91441 0.0
H556 H 0.7567 0.58498 0.90808 0.0
C557 C 0.79937 0.57349 0.97295 0.0
C558 C 0.79498 0.5417 0.96073 0.0
C559 C 0.81303 0.59836 0.87493 0.0
C560 C 0.799 0.59513 0.86357 0.0
C561 C 0.7798 0.58535 0.86821 0.0
C562 C 0.77469 0.57884 0.88394 0.0
C563 C 0.78891 0.58194 0.89511 0.0
C564 C 0.8077 0.59155 0.89048 0.0
C565 C 0.82088 0.59281 0.90363 0.0
C566 C 0.80693 0.58231 0.91692 0.0
C567 C 0.78822 0.57608 0.91194 0.0
C568 C 0.83423 0.61423 0.90779 0.0
C569 C 0.83119 0.58206 0.89801 0.0
C570 C 0.72547 0.54202 0.94175 0.0
C571 C 0.72086 0.5351 0.95749 0.0
C572 C 0.73518 0.53571 0.96742 0.0
C573 C 0.75386 0.54375 0.96208 0.0
C574 C 0.75839 0.55124 0.94658 0.0
C575 C 0.74429 0.55003 0.93657 0.0
C576 C 0.75187 0.55852 0.92039 0.0
C577 C 0.77293 0.56579 0.92266 0.0
C578 C 0.77658 0.56142 0.93803 0.0
C579 C 0.74784 0.57511 0.91754 0.0
C580 C 0.74282 0.54225 0.90777 0.0
H581 H 0.85205 0.5999 0.92507 0.0
H582 H 0.83292 0.56526 0.97667 0.0
H583 H 0.80214 0.53657 0.95241 0.0
H584 H 0.77971 0.53275 0.95799 0.0
H585 H 0.79765 0.53862 0.97309 0.0
H586 H 0.81067 0.5888 0.97377 0.0
H587 H 0.79952 0.56655 0.98435 0.0
H588 H 0.78604 0.57391 0.97206 0.0
H589 H 0.82787 0.60555 0.87165 0.0
H590 H 0.76875 0.58282 0.85967 0.0
H591 H 0.75987 0.57153 0.88678 0.0
H592 H 0.82698 0.62268 0.90592 0.0
H593 H 0.84708 0.6206 0.90018 0.0
H594 H 0.83857 0.61658 0.9205 0.0
H595 H 0.8214 0.56901 0.89103 0.0
H596 H 0.83624 0.57679 0.90794 0.0
H597 H 0.8434 0.59127 0.89022 0.0
H598 H 0.87584 0.59974 0.94218 0.0
C599 C 0.84738 0.59235 0.93615 0.0
C600 C 0.50372 0.20716 0.93634 0.0
C601 C 0.49673 0.18924 0.92872 0.0
C602 C 0.48763 0.18624 0.91375 0.0
C603 C 0.49194 0.21818 0.9145 0.0
C604 C 0.50122 0.2214 0.92901 0.0
C605 C 0.50774 0.24129 0.93535 0.0
H606 H 0.51494 0.32812 0.92377 0.0
C607 C 0.4914 0.23563 0.91015 0.0
C608 C 0.50076 0.24935 0.92226 0.0
H609 H 0.53491 0.31053 0.9646 0.0
H610 H 0.52284 0.27891 0.95275 0.0
H611 H 0.52633 0.30721 0.89605 0.0
H612 H 0.47612 0.29252 0.92294 0.0
H613 H 0.46786 0.28133 0.90433 0.0
H614 H 0.48205 0.30712 0.90544 0.0
H615 H 0.51248 0.31875 0.89378 0.0
H616 H 0.50705 0.29748 0.88261 0.0
C617 C 0.52963 0.25206 0.93657 0.0
C618 C 0.49765 0.23952 0.95141 0.0
C619 C 0.4579 0.23664 0.85902 0.0
C620 C 0.45447 0.25055 0.8522 0.0
C621 C 0.46141 0.26835 0.85994 0.0
C622 C 0.47176 0.27233 0.87421 0.0
C623 C 0.47508 0.25831 0.88092 0.0
C624 C 0.46807 0.24077 0.87341 0.0
C625 C 0.4725 0.22744 0.88258 0.0
C626 C 0.48336 0.23993 0.89681 0.0
C627 C 0.48492 0.25798 0.89566 0.0
C628 C 0.48514 0.2226 0.87198 0.0
C629 C 0.45345 0.20987 0.88763 0.0
C630 C 0.5171 0.3176 0.93001 0.0
C631 C 0.52627 0.32188 0.9449 0.0
C632 C 0.52808 0.30755 0.95298 0.0
C633 C 0.52106 0.28926 0.9461 0.0
C634 C 0.51188 0.28524 0.93111 0.0
C635 C 0.50991 0.29932 0.92347 0.0
C636 C 0.49872 0.29245 0.90825 0.0
C637 C 0.49475 0.27202 0.90762 0.0
C638 C 0.50254 0.26778 0.92094 0.0
C639 C 0.51166 0.3046 0.89437 0.0
C640 C 0.48027 0.29347 0.91018 0.0
H641 H 0.47807 0.19724 0.8953 0.0
H642 H 0.51071 0.20997 0.94787 0.0
H643 H 0.48276 0.22745 0.95099 0.0
H644 H 0.49655 0.25229 0.95428 0.0
H645 H 0.505 0.2368 0.9614 0.0
H646 H 0.53585 0.2491 0.92588 0.0
H647 H 0.53439 0.24746 0.94728 0.0
H648 H 0.53594 0.26775 0.93698 0.0
H649 H 0.45253 0.22275 0.8534 0.0
H650 H 0.45904 0.2793 0.85482 0.0
H651 H 0.47679 0.28622 0.87941 0.0
H652 H 0.49428 0.23476 0.86401 0.0
H653 H 0.47639 0.20992 0.86427 0.0
H654 H 0.49521 0.22009 0.879 0.0
H655 H 0.44298 0.21428 0.89101 0.0
H656 H 0.45476 0.20259 0.89829 0.0
H657 H 0.44718 0.19932 0.8777 0.0
H658 H 0.4825 0.17282 0.90739 0.0
C659 C 0.48517 0.20053 0.90666 0.0
C660 C 0.73649 0.18033 0.94705 0.0
C661 C 0.72575 0.16176 0.94057 0.0
C662 C 0.73152 0.15753 0.92597 0.0
C663 C 0.7581 0.18989 0.92457 0.0
C664 C 0.75252 0.1941 0.93887 0.0
C665 C 0.76536 0.21458 0.94395 0.0
H666 H 0.84155 0.30148 0.92826 0.0
C667 C 0.77518 0.20735 0.91904 0.0
C668 C 0.77952 0.22191 0.93034 0.0
H669 H 0.80463 0.28539 0.96922 0.0
H670 H 0.78626 0.25306 0.95888 0.0
H671 H 0.8459 0.26568 0.92813 0.0
H672 H 0.80832 0.27864 0.90183 0.0
H673 H 0.81683 0.26797 0.88838 0.0
H674 H 0.83335 0.29005 0.8982 0.0
H675 H 0.85361 0.28069 0.91082 0.0
H676 H 0.84316 0.25502 0.90928 0.0
C677 C 0.77484 0.21461 0.96003 0.0
C678 C 0.75343 0.22466 0.94456 0.0
C679 C 0.80596 0.20675 0.86636 0.0
C680 C 0.82192 0.22086 0.85818 0.0
C681 C 0.83279 0.2391 0.86526 0.0
C682 C 0.82767 0.24336 0.87999 0.0
C683 C 0.81149 0.22925 0.88784 0.0
C684 C 0.80107 0.21123 0.88114 0.0
C685 C 0.78451 0.198 0.89138 0.0
C686 C 0.78663 0.21115 0.90524 0.0
C687 C 0.80237 0.22943 0.903 0.0
C688 C 0.78744 0.18127 0.89671 0.0
C689 C 0.76604 0.19177 0.8817 0.0
C690 C 0.8293 0.2911 0.93488 0.0
C691 C 0.82439 0.29604 0.94947 0.0
C692 C 0.80869 0.28191 0.95794 0.0
C693 C 0.79803 0.26318 0.9519 0.0
C694 C 0.80319 0.25849 0.93727 0.0
C695 C 0.81864 0.27239 0.92908 0.0
C696 C 0.82248 0.26488 0.91397 0.0
C697 C 0.80667 0.24419 0.9143 0.0
C698 C 0.79535 0.24048 0.92792 0.0
C699 C 0.84233 0.26672 0.91546 0.0
C700 C 0.8203 0.27595 0.89977 0.0
H701 H 0.75111 0.16728 0.90691 0.0
H702 H 0.7326 0.18406 0.95829 0.0
H703 H 0.74289 0.21962 0.93462 0.0
H704 H 0.762 0.24031 0.94302 0.0
H705 H 0.7455 0.2216 0.95596 0.0
H706 H 0.77818 0.20282 0.96035 0.0
H707 H 0.76533 0.21257 0.97023 0.0
H708 H 0.78857 0.22781 0.96201 0.0
H709 H 0.79718 0.19263 0.86124 0.0
H710 H 0.84536 0.25012 0.85942 0.0
H711 H 0.83648 0.25754 0.88464 0.0
H712 H 0.80273 0.18632 0.89881 0.0
H713 H 0.78224 0.16984 0.88744 0.0
H714 H 0.78052 0.17494 0.90818 0.0
H715 H 0.76738 0.20371 0.87414 0.0
H716 H 0.75364 0.18796 0.88934 0.0
H717 H 0.7628 0.17951 0.87367 0.0
H718 H 0.72336 0.14351 0.92051 0.0
C719 C 0.7476 0.17143 0.91799 0.0
C720 C 0.49902 0.7993 0.07285 0.0
C721 C 0.50526 0.8171 0.08047 0.0
C722 C 0.51552 0.821 0.09492 0.0
C723 C 0.51365 0.7901 0.09375 0.0
C724 C 0.50337 0.78607 0.07968 0.0
C725 C 0.49808 0.76656 0.07314 0.0
H726 H 0.49992 0.68378 0.08211 0.0
C727 C 0.51614 0.77363 0.09755 0.0
C728 C 0.50703 0.75971 0.08553 0.0
H729 H 0.47408 0.69826 0.04355 0.0
H730 H 0.48464 0.72946 0.05563 0.0
H731 H 0.5371 0.72148 0.08179 0.0
H732 H 0.48801 0.70269 0.1114 0.0
H733 H 0.50823 0.71338 0.12382 0.0
H734 H 0.50343 0.69277 0.112 0.0
H735 H 0.5336 0.70717 0.09916 0.0
H736 H 0.54585 0.73301 0.10023 0.0
C737 C 0.50734 0.76915 0.05654 0.0
C738 C 0.47619 0.75417 0.07296 0.0
C739 C 0.55218 0.77504 0.14778 0.0
C740 C 0.55754 0.76227 0.15398 0.0
C741 C 0.55287 0.74538 0.14551 0.0
C742 C 0.54249 0.74098 0.13122 0.0
C743 C 0.5369 0.7537 0.12526 0.0
C744 C 0.54209 0.77059 0.13334 0.0
C745 C 0.53582 0.78285 0.12473 0.0
C746 C 0.52562 0.77031 0.11034 0.0
C747 C 0.52611 0.75319 0.11087 0.0
C748 C 0.55379 0.80173 0.11986 0.0
C749 C 0.52208 0.78555 0.13577 0.0
C750 C 0.49617 0.69351 0.07644 0.0
C751 C 0.48578 0.68846 0.06211 0.0
C752 C 0.48188 0.70182 0.05473 0.0
C753 C 0.48803 0.71988 0.06175 0.0
C754 C 0.49842 0.72468 0.07617 0.0
C755 C 0.50243 0.71157 0.08313 0.0
C756 C 0.51447 0.71923 0.09788 0.0
C757 C 0.5166 0.73895 0.09899 0.0
C758 C 0.50715 0.74214 0.08632 0.0
C759 C 0.53373 0.72021 0.09476 0.0
C760 C 0.50311 0.70638 0.11209 0.0
H761 H 0.52762 0.81159 0.11256 0.0
H762 H 0.49125 0.79588 0.06167 0.0
H763 H 0.47012 0.75666 0.08399 0.0
H764 H 0.47108 0.73868 0.07276 0.0
H765 H 0.47005 0.75776 0.06256 0.0
H766 H 0.52172 0.78208 0.05642 0.0
H767 H 0.49871 0.7709 0.0471 0.0
H768 H 0.50957 0.75717 0.05323 0.0
H769 H 0.5559 0.78828 0.15399 0.0
H770 H 0.55691 0.73539 0.15015 0.0
H771 H 0.5391 0.72775 0.12546 0.0
H772 H 0.56584 0.7993 0.11733 0.0
H773 H 0.5584 0.81264 0.12953 0.0
H774 H 0.55184 0.80783 0.1087 0.0
H775 H 0.51288 0.7722 0.1425 0.0
H776 H 0.51213 0.78857 0.12914 0.0
H777 H 0.53001 0.79717 0.14463 0.0
H778 H 0.5202 0.8344 0.10121 0.0
C779 C 0.51975 0.80767 0.10156 0.0
C780 C 0.27173 0.8157 0.06288 0.0
C781 C 0.28378 0.83318 0.0707 0.0
C782 C 0.27985 0.83559 0.08668 0.0
C783 C 0.25243 0.80364 0.08673 0.0
C784 C 0.25624 0.8012 0.07109 0.0
C785 C 0.24226 0.78165 0.06465 0.0
H786 H 0.16458 0.69482 0.07733 0.0
C787 C 0.23533 0.7859 0.09182 0.0
C788 C 0.22925 0.77295 0.0789 0.0
H789 H 0.19887 0.71379 0.03475 0.0
H790 H 0.21907 0.74485 0.04703 0.0
H791 H 0.19853 0.71203 0.10169 0.0
H792 H 0.16263 0.73222 0.08293 0.0
H793 H 0.16731 0.74041 0.10277 0.0
H794 H 0.15506 0.71498 0.0987 0.0
H795 H 0.1742 0.70229 0.10737 0.0
H796 H 0.19312 0.72234 0.11782 0.0
C797 C 0.25317 0.77101 0.06068 0.0
C798 C 0.23177 0.78414 0.05022 0.0
C799 C 0.21016 0.77969 0.14851 0.0
C800 C 0.19419 0.76497 0.15629 0.0
C801 C 0.18154 0.74853 0.14747 0.0
C802 C 0.18497 0.74643 0.13147 0.0
C803 C 0.2012 0.76095 0.12402 0.0
C804 C 0.21329 0.77741 0.13238 0.0
C805 C 0.22936 0.79161 0.12213 0.0
C806 C 0.22513 0.78063 0.10643 0.0
C807 C 0.20873 0.76266 0.10775 0.0
C808 C 0.24825 0.7952 0.12971 0.0
C809 C 0.22756 0.80977 0.12057 0.0
C810 C 0.17627 0.70571 0.07052 0.0
C811 C 0.18004 0.7019 0.05501 0.0
C812 C 0.19573 0.71636 0.04676 0.0
C813 C 0.20738 0.73437 0.05389 0.0
C814 C 0.20338 0.73787 0.06948 0.0
C815 C 0.18799 0.72359 0.07745 0.0
C816 C 0.18588 0.7294 0.09398 0.0
C817 C 0.20265 0.74955 0.09479 0.0
C818 C 0.21285 0.75456 0.08044 0.0
C819 C 0.18789 0.71583 0.10594 0.0
C820 C 0.16671 0.72916 0.0948 0.0
H821 H 0.26216 0.82371 0.10683 0.0
H822 H 0.27419 0.81335 0.0506 0.0
H823 H 0.22817 0.79551 0.05272 0.0
H824 H 0.21813 0.77114 0.04751 0.0
H825 H 0.24075 0.78835 0.03937 0.0
H826 H 0.26499 0.77492 0.06931 0.0
H827 H 0.25939 0.7747 0.04853 0.0
H828 H 0.24427 0.75531 0.06161 0.0
H829 H 0.22019 0.79256 0.15484 0.0
H830 H 0.16882 0.73723 0.15292 0.0
H831 H 0.17485 0.73347 0.12557 0.0
H832 H 0.24679 0.78163 0.1344 0.0
H833 H 0.25254 0.8055 0.13983 0.0
H834 H 0.26 0.80049 0.12108 0.0
H835 H 0.21242 0.80603 0.12054 0.0
H836 H 0.23324 0.81738 0.1092 0.0
H837 H 0.23472 0.81983 0.13068 0.0
H838 H 0.28904 0.84869 0.09314 0.0
C839 C 0.26427 0.82098 0.09469 0.0
C840 C 0.27205 0.45888 0.05512 0.0
C841 C 0.28845 0.46419 0.06429 0.0
C842 C 0.28676 0.46173 0.081 0.0
C843 C 0.25273 0.44863 0.07904 0.0
C844 C 0.25446 0.45118 0.06268 0.0
C845 C 0.23577 0.445 0.05458 0.0
H846 H 0.14256 0.41506 0.06106 0.0
C847 C 0.23245 0.4403 0.08307 0.0
C848 C 0.22247 0.43814 0.06874 0.0
H849 H 0.17609 0.43003 0.01795 0.0
H850 H 0.20324 0.43464 0.03328 0.0
H851 H 0.15773 0.38833 0.07491 0.0
H852 H 0.17271 0.44678 0.08311 0.0
H853 H 0.17216 0.43677 0.10186 0.0
H854 H 0.15096 0.42665 0.0898 0.0
H855 H 0.1445 0.39456 0.08829 0.0
H856 H 0.16473 0.39285 0.09503 0.0
C857 C 0.23162 0.42844 0.04285 0.0
C858 C 0.23681 0.46283 0.04664 0.0
C859 C 0.21033 0.42514 0.14084 0.0
C860 C 0.19225 0.41708 0.14789 0.0
C861 C 0.17635 0.41204 0.13801 0.0
C862 C 0.17835 0.415 0.12153 0.0
C863 C 0.19643 0.42305 0.11469 0.0
C864 C 0.21206 0.42791 0.12426 0.0
C865 C 0.23007 0.4359 0.11468 0.0
C866 C 0.22256 0.43488 0.09782 0.0
C867 C 0.20288 0.42746 0.098 0.0
C868 C 0.23845 0.42252 0.11679 0.0
C869 C 0.24342 0.45681 0.1202 0.0
C870 C 0.15556 0.41886 0.05476 0.0
C871 C 0.15711 0.42234 0.03822 0.0
C872 C 0.17453 0.4276 0.03071 0.0
C873 C 0.1903 0.43026 0.03964 0.0
C874 C 0.18868 0.42764 0.05628 0.0
C875 C 0.17136 0.42153 0.06347 0.0
C876 C 0.17208 0.41919 0.0812 0.0
C877 C 0.19287 0.42556 0.08358 0.0
C878 C 0.20256 0.43062 0.069 0.0
C879 C 0.15903 0.39769 0.0852 0.0
C880 C 0.16659 0.43291 0.08955 0.0
H881 H 0.26862 0.45234 0.10114 0.0
H882 H 0.27287 0.46082 0.04229 0.0
H883 H 0.2449 0.47576 0.0543 0.0
H884 H 0.22279 0.46159 0.04496 0.0
H885 H 0.24405 0.46579 0.03491 0.0
H886 H 0.23724 0.41936 0.04758 0.0
H887 H 0.23835 0.43402 0.03108 0.0
H888 H 0.21629 0.41848 0.04106 0.0
H889 H 0.22288 0.42926 0.14805 0.0
H890 H 0.16221 0.40539 0.14297 0.0
H891 H 0.16566 0.41082 0.11475 0.0
H892 H 0.22696 0.40727 0.11712 0.0
H893 H 0.24663 0.42569 0.12814 0.0
H894 H 0.2476 0.42333 0.10679 0.0
H895 H 0.2352 0.4641 0.12288 0.0
H896 H 0.25364 0.46569 0.11094 0.0
H897 H 0.25132 0.45731 0.1312 0.0
H898 H 0.29914 0.46551 0.08833 0.0
C899 C 0.269 0.45396 0.08841 0.0
C900 C 0.49956 0.9059 0.30123 0.0
C901 C 0.51744 0.9089 0.29666 0.0
C902 C 0.52366 0.91463 0.28088 0.0
C903 C 0.49409 0.91336 0.27433 0.0
C904 C 0.4882 0.90831 0.28991 0.0
C905 C 0.46881 0.90573 0.29268 0.0
H906 H 0.39016 0.90304 0.26278 0.0
C907 C 0.47864 0.91372 0.26536 0.0
C908 C 0.46381 0.90938 0.27605 0.0
H909 H 0.40257 0.89667 0.31194 0.0
H910 H 0.43293 0.90103 0.30418 0.0
H911 H 0.43245 0.93919 0.25507 0.0
H912 H 0.40623 0.87834 0.24739 0.0
H913 H 0.42071 0.88946 0.23082 0.0
H914 H 0.40099 0.89315 0.23488 0.0
H915 H 0.41342 0.92629 0.24106 0.0
H916 H 0.43777 0.93518 0.23557 0.0
C917 C 0.47074 0.92112 0.30489 0.0
C918 C 0.4555 0.88483 0.29804 0.0
C919 C 0.48544 0.92621 0.20567 0.0
C920 C 0.473 0.92588 0.19385 0.0
C921 C 0.45465 0.92176 0.19825 0.0
C922 C 0.44884 0.91823 0.21423 0.0
C923 C 0.46147 0.91866 0.22595 0.0
C924 C 0.47935 0.92242 0.22154 0.0
C925 C 0.49056 0.9214 0.23542 0.0
C926 C 0.47656 0.91669 0.24895 0.0
C927 C 0.45961 0.91525 0.24337 0.0
C928 C 0.50845 0.94138 0.23767 0.0
C929 C 0.49472 0.90493 0.23211 0.0
C930 C 0.39949 0.90279 0.27191 0.0
C931 C 0.39387 0.89946 0.28801 0.0
C932 C 0.40638 0.89893 0.29943 0.0
C933 C 0.42409 0.9016 0.29492 0.0
C934 C 0.42946 0.90488 0.2788 0.0
C935 C 0.41728 0.90552 0.2676 0.0
C936 C 0.42548 0.90937 0.25105 0.0
C937 C 0.4447 0.91121 0.25421 0.0
C938 C 0.44687 0.90843 0.27047 0.0
C939 C 0.42733 0.92843 0.24522 0.0
C940 C 0.41272 0.89181 0.24035 0.0
H941 H 0.51758 0.92101 0.25788 0.0
H942 H 0.49451 0.90171 0.31332 0.0
H943 H 0.45813 0.87475 0.29088 0.0
H944 H 0.44034 0.88004 0.29624 0.0
H945 H 0.4579 0.88293 0.31081 0.0
H946 H 0.48501 0.93418 0.30431 0.0
H947 H 0.4687 0.91566 0.31731 0.0
H948 H 0.46074 0.92634 0.30246 0.0
H949 H 0.49953 0.92905 0.20259 0.0
H950 H 0.44487 0.92155 0.18933 0.0
H951 H 0.43475 0.9153 0.21684 0.0
H952 H 0.50529 0.95298 0.23482 0.0
H953 H 0.52007 0.94314 0.22969 0.0
H954 H 0.5137 0.94425 0.25013 0.0
H955 H 0.48282 0.89302 0.22541 0.0
H956 H 0.4961 0.89819 0.24311 0.0
H957 H 0.50775 0.90998 0.22487 0.0
H958 H 0.53729 0.91684 0.27702 0.0
C959 C 0.51211 0.91688 0.26973 0.0
C960 C 0.16169 0.53155 0.26412 0.0
C961 C 0.15573 0.51426 0.25574 0.0
C962 C 0.14742 0.51197 0.24048 0.0
C963 C 0.15086 0.54356 0.24229 0.0
C964 C 0.15913 0.54594 0.2572 0.0
C965 C 0.16463 0.56518 0.26445 0.0
H966 H 0.16859 0.65097 0.25715 0.0
C967 C 0.15015 0.56109 0.23851 0.0
C968 C 0.15823 0.57387 0.25146 0.0
H969 H 0.18856 0.63174 0.29696 0.0
H970 H 0.17795 0.60126 0.28357 0.0
H971 H 0.18413 0.6353 0.2298 0.0
H972 H 0.1303 0.61326 0.2529 0.0
H973 H 0.12492 0.60572 0.23295 0.0
H974 H 0.13786 0.63101 0.23755 0.0
H975 H 0.16832 0.64432 0.22608 0.0
H976 H 0.16691 0.62462 0.21471 0.0
C977 C 0.18642 0.57638 0.26679 0.0
C978 C 0.15329 0.56187 0.28005 0.0
C979 C 0.1216 0.56633 0.18571 0.0
C980 C 0.11864 0.58076 0.1793 0.0
C981 C 0.1244 0.59766 0.18817 0.0
C982 C 0.13298 0.60023 0.20315 0.0
C983 C 0.13584 0.58573 0.20945 0.0
C984 C 0.1301 0.56908 0.20084 0.0
C985 C 0.13396 0.55513 0.20972 0.0
C986 C 0.14309 0.56629 0.225 0.0
C987 C 0.14418 0.58418 0.22466 0.0
C988 C 0.14796 0.55169 0.19972 0.0
C989 C 0.11469 0.53686 0.21297 0.0
C990 C 0.17098 0.64035 0.26292 0.0
C991 C 0.1797 0.64389 0.278 0.0
C992 C 0.18192 0.62937 0.2853 0.0
C993 C 0.17581 0.61173 0.27749 0.0
C994 C 0.16727 0.60855 0.26228 0.0
C995 C 0.16493 0.62278 0.25537 0.0
C996 C 0.15531 0.61708 0.23939 0.0
C997 C 0.15245 0.59714 0.23761 0.0
C998 C 0.15944 0.59209 0.25099 0.0
C999 C 0.16921 0.63104 0.22676 0.0
C1000 C 0.13615 0.61684 0.24059 0.0
H1001 H 0.13854 0.52378 0.22211 0.0
H1002 H 0.16795 0.53376 0.27593 0.0
H1003 H 0.13852 0.54977 0.27858 0.0
H1004 H 0.1518 0.57427 0.28349 0.0
H1005 H 0.15994 0.55834 0.2901 0.0
H1006 H 0.1936 0.57399 0.25649 0.0
H1007 H 0.19061 0.57167 0.27776 0.0
H1008 H 0.19234 0.59202 0.26737 0.0
H1009 H 0.11711 0.55309 0.17924 0.0
H1010 H 0.12244 0.60903 0.18341 0.0
H1011 H 0.13708 0.61347 0.20921 0.0
H1012 H 0.15844 0.56505 0.1936 0.0
H1013 H 0.14035 0.5406 0.19038 0.0
H1014 H 0.15661 0.54755 0.20705 0.0
H1015 H 0.10351 0.54056 0.2156 0.0
H1016 H 0.11503 0.52892 0.22357 0.0
H1017 H 0.1099 0.5271 0.20245 0.0
H1018 H 0.14299 0.499 0.23362 0.0
C1019 C 0.14495 0.52646 0.23375 0.0
C1020 C 0.40585 0.51501 0.2884 0.0
C1021 C 0.39521 0.49545 0.28433 0.0
C1022 C 0.40097 0.48869 0.27113 0.0
C1023 C 0.42698 0.52066 0.26609 0.0
C1024 C 0.42152 0.52731 0.27909 0.0
C1025 C 0.43386 0.5486 0.28137 0.0
H1026 H 0.50646 0.63286 0.2552 0.0
C1027 C 0.44328 0.53719 0.25853 0.0
C1028 C 0.4473 0.55365 0.26735 0.0
H1029 H 0.47308 0.62286 0.29782 0.0
H1030 H 0.45447 0.58917 0.2912 0.0
H1031 H 0.51189 0.59737 0.25975 0.0
H1032 H 0.472 0.60516 0.23163 0.0
H1033 H 0.47821 0.59093 0.22012 0.0
H1034 H 0.49627 0.61483 0.22581 0.0
H1035 H 0.51843 0.61123 0.24176 0.0
H1036 H 0.50953 0.58579 0.2414 0.0
C1037 C 0.44433 0.55228 0.29762 0.0
C1038 C 0.42118 0.55781 0.27987 0.0
C1039 C 0.4731 0.5274 0.20873 0.0
C1040 C 0.48725 0.5402 0.19824 0.0
C1041 C 0.49643 0.55999 0.2017 0.0
C1042 C 0.49158 0.56687 0.2152 0.0
C1043 C 0.47726 0.55392 0.22537 0.0
C1044 C 0.46823 0.53456 0.22204 0.0
C1045 C 0.45263 0.52303 0.23372 0.0
C1046 C 0.45408 0.53869 0.24477 0.0
C1047 C 0.46859 0.5567 0.23984 0.0
C1048 C 0.45762 0.50923 0.24249 0.0
C1049 C 0.43352 0.51295 0.22443 0.0
C1050 C 0.49486 0.62347 0.26291 0.0
C1051 C 0.49105 0.63049 0.27693 0.0
C1052 C 0.47622 0.61773 0.28693 0.0
C1053 C 0.46548 0.59819 0.28308 0.0
C1054 C 0.46975 0.59131 0.26916 0.0
C1055 C 0.48423 0.60392 0.25936 0.0
C1056 C 0.48749 0.59402 0.24555 0.0
C1057 C 0.4726 0.57336 0.24866 0.0
C1058 C 0.46213 0.57185 0.26241 0.0
C1059 C 0.50791 0.59728 0.247 0.0
C1060 C 0.48345 0.60163 0.22989 0.0
H1061 H 0.42031 0.49509 0.25215 0.0
H1062 H 0.40203 0.52071 0.29855 0.0
H1063 H 0.4106 0.55089 0.27007 0.0
H1064 H 0.42919 0.57313 0.27678 0.0
H1065 H 0.41327 0.55614 0.2911 0.0
H1066 H 0.44743 0.54063 0.30041 0.0
H1067 H 0.43564 0.55297 0.30751 0.0
H1068 H 0.45834 0.56548 0.29769 0.0
H1069 H 0.46577 0.5121 0.20659 0.0
H1070 H 0.50704 0.5703 0.19374 0.0
H1071 H 0.49902 0.58208 0.21703 0.0
H1072 H 0.47296 0.51664 0.24565 0.0
H1073 H 0.45452 0.49672 0.23482 0.0
H1074 H 0.45006 0.504 0.25391 0.0
H1075 H 0.434 0.52115 0.21361 0.0
H1076 H 0.42159 0.51196 0.23146 0.0
H1077 H 0.42999 0.49838 0.22045 0.0
H1078 H 0.39294 0.47382 0.26748 0.0
C1079 C 0.4168 0.50114 0.26208 0.0
O1080 O 0.47286 0.98651 0.00902 0.0
Mn1081 Mn 0.50154 0.00191 0.00354 0.0
O1082 O 0.46864 0.00148 0.03011 0.0
Mn1083 Mn 0.49388 0.02084 0.03297 0.0
O1084 O 0.53031 0.01724 0.99808 0.0
O1085 O 0.49947 0.97855 0.99349 0.0
Mn1086 Mn 0.50939 0.9825 0.97439 0.0
O1087 O 0.49571 0.01055 0.98167 0.0
O1088 O 0.53469 0.00114 0.97791 0.0
O1089 O 0.50746 0.99318 0.02533 0.0
O1090 O 0.50864 0.01345 0.04441 0.0
O1091 O 0.50084 0.95695 0.97944 0.0
O1092 O 0.49556 0.99074 0.96255 0.0
C1093 C 0.50579 0.04222 0.01449 0.0
C1094 C 0.46233 0.98796 0.0197 0.0
C1095 C 0.54096 0.01498 0.988 0.0
C1096 C 0.4963 0.96131 0.99294 0.0
C1097 C 0.49298 0.00436 0.96716 0.0
C1098 C 0.51088 0.99965 0.03976 0.0
O1099 O 0.50335 0.02522 0.01363 0.0
O1100 O 0.50141 0.04619 0.02824 0.0
O1101 O 0.01717 0.48401 0.00634 0.0
Mn1102 Mn 0.00404 0.49985 0.00249 0.0
O1103 O 0.00683 0.46914 0.03002 0.0
Mn1104 Mn 0.99058 0.47856 0.03525 0.0
O1105 O 0.99109 0.51596 0.99841 0.0
O1106 O 0.02528 0.51728 0.98833 0.0
Mn1107 Mn 0.01769 0.52019 0.96948 0.0
O1108 O 0.98906 0.48221 0.98313 0.0
O1109 O 0.00178 0.53001 0.9744 0.0
O1110 O 0.01874 0.51741 0.02203 0.0
O1111 O 0.00227 0.50282 0.04422 0.0
O1112 O 0.04398 0.5361 0.97035 0.0
O1113 O 0.00549 0.49578 0.96079 0.0
C1114 C 0.96619 0.46848 0.01951 0.0
C1115 C 0.01694 0.47293 0.0174 0.0
C1116 C 0.99168 0.52685 0.98697 0.0
C1117 C 0.04227 0.53016 0.98489 0.0
C1118 C 0.99199 0.48179 0.9681 0.0
C1119 C 0.01536 0.51732 0.03705 0.0
O1120 O 0.98295 0.48227 0.01667 0.0
O1121 O 0.96443 0.46197 0.03386 0.0
O1122 O 0.52684 0.5002 0.00205 0.0
Mn1123 Mn 0.50155 0.50101 0.00304 0.0
O1124 O 0.55057 0.53018 0.99743 0.0
Mn1125 Mn 0.53497 0.5394 0.99076 0.0
O1126 O 0.47614 0.50171 0.00419 0.0
O1127 O 0.48755 0.47255 0.00185 0.0
Mn1128 Mn 0.46744 0.46197 0.014 0.0
O1129 O 0.5019 0.49964 0.02783 0.0
O1130 O 0.45229 0.47124 0.00622 0.0
O1131 O 0.5008 0.50195 0.97825 0.0
O1132 O 0.52392 0.53115 0.97066 0.0
O1133 O 0.46917 0.44214 0.00415 0.0
O1134 O 0.47733 0.47064 0.03443 0.0
C1135 C 0.52026 0.54695 0.0079 0.0
C1136 C 0.54452 0.51267 0.00071 0.0
C1137 C 0.45837 0.48905 0.00436 0.0
C1138 C 0.48445 0.45583 0.99796 0.0
C1139 C 0.49162 0.4869 0.03819 0.0
C1140 C 0.50988 0.51457 0.9675 0.0
O1141 O 0.51577 0.52969 0.00412 0.0
O1142 O 0.53522 0.55998 0.00078 0.0
O1143 O 0.13932 0.31666 0.34202 0.0
Mn1144 Mn 0.16827 0.33386 0.33806 0.0
O1145 O 0.13282 0.33076 0.36253 0.0
Mn1146 Mn 0.15689 0.35211 0.36572 0.0
O1147 O 0.19733 0.35128 0.33454 0.0
O1148 O 0.1692 0.31101 0.32907 0.0
Mn1149 Mn 0.18124 0.31739 0.31065 0.0
O1150 O 0.16327 0.34166 0.3155 0.0
O1151 O 0.20566 0.33696 0.31561 0.0
O1152 O 0.17333 0.32656 0.3609 0.0
O1153 O 0.17278 0.34747 0.37841 0.0
O1154 O 0.17446 0.2922 0.31388 0.0
O1155 O 0.16768 0.32412 0.29698 0.0
C1156 C 0.1678 0.37256 0.3465 0.0
C1157 C 0.12785 0.31718 0.35229 0.0
C1158 C 0.20978 0.35042 0.32572 0.0
C1159 C 0.16777 0.29438 0.32723 0.0
C1160 C 0.16278 0.33625 0.30098 0.0
C1161 C 0.176 0.33396 0.375 0.0
O1162 O 0.16721 0.35635 0.34678 0.0
O1163 O 0.16207 0.37644 0.35961 0.0
O1164 O 0.68895 0.82389 0.33493 0.0
Mn1165 Mn 0.67117 0.83528 0.33488 0.0
O1166 O 0.67839 0.80116 0.35396 0.0
Mn1167 Mn 0.65824 0.80396 0.36139 0.0
O1168 O 0.65348 0.84702 0.33494 0.0
O1169 O 0.69176 0.85879 0.32472 0.0
Mn1170 Mn 0.68392 0.86674 0.30848 0.0
O1171 O 0.6606 0.82323 0.31242 0.0
O1172 O 0.66609 0.87182 0.31772 0.0
O1173 O 0.68131 0.8473 0.35769 0.0
O1174 O 0.66488 0.8239 0.37558 0.0
O1175 O 0.70993 0.88344 0.31054 0.0
O1176 O 0.6742 0.84654 0.29401 0.0
C1177 C 0.63478 0.79584 0.345 0.0
C1178 C 0.69008 0.81094 0.34292 0.0
C1179 C 0.65385 0.86154 0.32824 0.0
C1180 C 0.70862 0.87272 0.32246 0.0
C1181 C 0.66357 0.82907 0.29789 0.0
C1182 C 0.67621 0.84137 0.37212 0.0
O1183 O 0.65078 0.81141 0.3446 0.0
O1184 O 0.6332 0.78523 0.3571 0.0
O1185 O 0.19505 0.8427 0.33668 0.0
Mn1186 Mn 0.16683 0.82657 0.34329 0.0
O1187 O 0.19534 0.85787 0.31393 0.0
Mn1188 Mn 0.1692 0.84804 0.31167 0.0
O1189 O 0.13852 0.81039 0.34972 0.0
O1190 O 0.17268 0.80869 0.35527 0.0
Mn1191 Mn 0.16359 0.80447 0.37474 0.0
O1192 O 0.17185 0.84362 0.36366 0.0
O1193 O 0.13746 0.79377 0.37174 0.0
O1194 O 0.16185 0.80955 0.32287 0.0
O1195 O 0.1562 0.824 0.30238 0.0
O1196 O 0.17523 0.78986 0.37208 0.0
O1197 O 0.17555 0.82827 0.38456 0.0
C1198 C 0.15613 0.85718 0.32933 0.0
C1199 C 0.20379 0.85391 0.32496 0.0
C1200 C 0.12937 0.79832 0.36084 0.0
C1201 C 0.17838 0.79665 0.35775 0.0
C1202 C 0.17598 0.84291 0.37839 0.0
C1203 C 0.15677 0.80978 0.30834 0.0
O1204 O 0.16103 0.84446 0.33139 0.0
O1205 O 0.15868 0.86362 0.31489 0.0
O1206 O 0.80137 0.649 0.67432 0.0
Mn1207 Mn 0.83003 0.66666 0.66962 0.0
O1208 O 0.79282 0.66478 0.69165 0.0
Mn1209 Mn 0.81698 0.68565 0.69543 0.0
O1210 O 0.85876 0.68413 0.66464 0.0
O1211 O 0.83144 0.64382 0.66221 0.0
Mn1212 Mn 0.84104 0.64714 0.64299 0.0
O1213 O 0.82322 0.67173 0.64659 0.0
O1214 O 0.86508 0.66874 0.64511 0.0
O1215 O 0.83628 0.66163 0.69281 0.0
O1216 O 0.83172 0.68091 0.70956 0.0
O1217 O 0.83622 0.62319 0.6497 0.0
O1218 O 0.82444 0.6504 0.63007 0.0
C1219 C 0.82969 0.70577 0.6761 0.0
C1220 C 0.78892 0.6503 0.68279 0.0
C1221 C 0.87011 0.683 0.65459 0.0
C1222 C 0.83074 0.62754 0.66273 0.0
C1223 C 0.82018 0.6633 0.63294 0.0
C1224 C 0.83699 0.66871 0.70679 0.0
O1225 O 0.82868 0.68942 0.6771 0.0
O1226 O 0.82295 0.70993 0.68846 0.0
O1227 O 0.34906 0.15324 0.67633 0.0
Mn1228 Mn 0.33665 0.17008 0.67423 0.0
O1229 O 0.33552 0.13365 0.69733 0.0
Mn1230 Mn 0.31982 0.14322 0.70379 0.0
O1231 O 0.32426 0.18704 0.67198 0.0
O1232 O 0.35947 0.1896 0.66269 0.0
Mn1233 Mn 0.35425 0.19711 0.64474 0.0
O1234 O 0.32391 0.15636 0.65267 0.0
O1235 O 0.33894 0.20703 0.65134 0.0
O1236 O 0.34941 0.18391 0.69578 0.0
O1237 O 0.33148 0.16538 0.71598 0.0
O1238 O 0.38048 0.21136 0.6477 0.0
O1239 O 0.3422 0.17492 0.6326 0.0
C1240 C 0.29656 0.13735 0.68782 0.0
C1241 C 0.34713 0.13974 0.68562 0.0
C1242 C 0.32694 0.20089 0.66277 0.0
C1243 C 0.377 0.20221 0.66103 0.0
C1244 C 0.32839 0.15935 0.63781 0.0
C1245 C 0.34506 0.18101 0.71067 0.0
O1246 O 0.31393 0.15036 0.68586 0.0
O1247 O 0.29363 0.12841 0.70123 0.0
O1248 O 0.85841 0.1685 0.66175 0.0
Mn1249 Mn 0.83107 0.16464 0.66363 0.0
O1250 O 0.87702 0.19765 0.65104 0.0
Mn1251 Mn 0.85736 0.20138 0.64442 0.0
O1252 O 0.80372 0.16079 0.66557 0.0
O1253 O 0.82135 0.13688 0.66713 0.0
Mn1254 Mn 0.80418 0.12718 0.68214 0.0
O1255 O 0.835 0.16973 0.68814 0.0
O1256 O 0.78477 0.13095 0.67486 0.0
O1257 O 0.82688 0.15921 0.63912 0.0
O1258 O 0.8439 0.18746 0.62659 0.0
O1259 O 0.80756 0.10739 0.67445 0.0
O1260 O 0.81691 0.1413 0.70025 0.0
C1261 C 0.84326 0.20951 0.66169 0.0
C1262 C 0.87466 0.18226 0.65739 0.0
C1263 C 0.7873 0.14676 0.66927 0.0
C1264 C 0.81998 0.12045 0.66526 0.0
C1265 C 0.82891 0.15925 0.70072 0.0
C1266 C 0.83217 0.16949 0.62642 0.0
O1267 O 0.84086 0.19257 0.6601 0.0
O1268 O 0.8553 0.22189 0.65183 0.0
C1269 C 0.31167 0.84452 0.0522 0.0
C1270 C 0.30057 0.84876 0.06243 0.0
C1271 C 0.32795 0.85921 0.04506 0.0
C1272 C 0.35296 0.91153 0.03631 0.0
H1273 H 0.39749 0.90584 0.03513 0.0
C1274 C 0.42939 0.97501 0.03031 0.0
C1275 C 0.44226 0.9725 0.02089 0.0
C1276 C 0.41109 0.95976 0.03296 0.0
C1277 C 0.38511 0.90754 0.03514 0.0
H1278 H 0.29761 0.87188 0.07264 0.0
H1279 H 0.32627 0.89742 0.06071 0.0
H1280 H 0.36751 0.87944 0.04443 0.0
H1281 H 0.4457 0.95205 0.00644 0.0
H1282 H 0.41374 0.92543 0.01114 0.0
H1283 H 0.37086 0.93994 0.02752 0.0
C1284 C 0.32229 0.88274 0.05799 0.0
C1285 C 0.36788 0.89238 0.04045 0.0
C1286 C 0.30597 0.86806 0.06505 0.0
C1287 C 0.43615 0.95453 0.01372 0.0
C1288 C 0.41789 0.93922 0.01651 0.0
C1289 C 0.37024 0.92674 0.03111 0.0
C1290 C 0.33361 0.87853 0.04802 0.0
C1291 C 0.35162 0.89424 0.0413 0.0
C1292 C 0.40527 0.9416 0.02637 0.0
C1293 C 0.38655 0.92499 0.03063 0.0
H1294 H 0.30807 0.82984 0.04999 0.0
H1295 H 0.33616 0.85541 0.03728 0.0
H1296 H 0.34066 0.91336 0.0365 0.0
H1297 H 0.4336 0.98865 0.03599 0.0
H1298 H 0.40176 0.96201 0.04073 0.0
C1299 C 0.12231 0.40984 0.03374 0.0
C1300 C 0.14125 0.42243 0.02942 0.0
C1301 C 0.10774 0.41271 0.02817 0.0
C1302 C 0.10225 0.45295 0.01423 0.0
H1303 H 0.04907 0.41403 0.01189 0.0
C1304 C 0.04397 0.47213 0.00407 0.0
C1305 C 0.02946 0.46465 0.01554 0.0
C1306 C 0.05652 0.46517 0.0028 0.0
C1307 C 0.06389 0.42501 0.01248 0.0
H1308 H 0.15935 0.44669 0.01446 0.0
H1309 H 0.13387 0.45093 0.00401 0.0
H1310 H 0.07319 0.40446 0.01341 0.0
H1311 H 0.01634 0.44348 0.03423 0.0
H1312 H 0.03833 0.43127 0.03191 0.0
H1313 H 0.09294 0.47345 0.01335 0.0
C1314 C 0.13036 0.43936 0.0123 0.0
C1315 C 0.07771 0.41957 0.01339 0.0
C1316 C 0.14499 0.43671 0.0181 0.0
C1317 C 0.02742 0.44962 0.02535 0.0
C1318 C 0.03989 0.44251 0.02393 0.0
C1319 C 0.08849 0.45835 0.01309 0.0
C1320 C 0.11172 0.42802 0.0179 0.0
C1321 C 0.09706 0.43349 0.01462 0.0
C1322 C 0.05474 0.45046 0.01283 0.0
C1323 C 0.06918 0.44446 0.01252 0.0
H1324 H 0.11883 0.39833 0.04209 0.0
H1325 H 0.0936 0.40363 0.03276 0.0
H1326 H 0.11691 0.46413 0.01554 0.0
H1327 H 0.04597 0.48371 0.99631 0.0
H1328 H 0.0678 0.47146 0.99408 0.0
C1329 C 0.47237 0.65305 0.06382 0.0
C1330 C 0.48052 0.6698 0.05458 0.0
C1331 C 0.47123 0.63627 0.05794 0.0
C1332 C 0.49944 0.62404 0.033 0.0
H1333 H 0.45977 0.57116 0.03842 0.0
C1334 C 0.49161 0.54982 0.01151 0.0
C1335 C 0.5088 0.55241 0.01764 0.0
C1336 C 0.48404 0.56089 0.01733 0.0
C1337 C 0.4709 0.58588 0.03687 0.0
H1338 H 0.4926 0.68182 0.03157 0.0
H1339 H 0.49075 0.65248 0.02129 0.0
H1340 H 0.45313 0.59726 0.04403 0.0
H1341 H 0.53115 0.56767 0.03501 0.0
H1342 H 0.51795 0.58692 0.04528 0.0
H1343 H 0.51737 0.61291 0.02631 0.0
C1344 C 0.48525 0.65236 0.03308 0.0
C1345 C 0.46713 0.60075 0.04004 0.0
C1346 C 0.48619 0.66908 0.0389 0.0
C1347 C 0.51764 0.56516 0.03038 0.0
C1348 C 0.51019 0.57626 0.03613 0.0
C1349 C 0.50327 0.60929 0.03014 0.0
C1350 C 0.47843 0.63603 0.04278 0.0
C1351 C 0.48142 0.61998 0.03815 0.0
C1352 C 0.49385 0.57489 0.02912 0.0
C1353 C 0.48914 0.59011 0.0322 0.0
H1354 H 0.46781 0.65324 0.07592 0.0
H1355 H 0.466 0.62395 0.06569 0.0
H1356 H 0.51081 0.63869 0.03168 0.0
H1357 H 0.48495 0.54055 0.00128 0.0
H1358 H 0.4715 0.55968 0.01166 0.0
C1359 C 0.84229 0.31828 0.97208 0.0
C1360 C 0.83633 0.31562 0.95606 0.0
C1361 C 0.85548 0.33649 0.97776 0.0
C1362 C 0.87854 0.38831 0.96959 0.0
H1363 H 0.9201 0.38999 0.99371 0.0
C1364 C 0.95718 0.44475 0.9979 0.0
C1365 C 0.95274 0.4565 0.0071 0.0
C1366 C 0.94301 0.42926 0.9894 0.0
C1367 C 0.90871 0.38981 0.98684 0.0
H1368 H 0.83857 0.33006 0.93367 0.0
H1369 H 0.86172 0.36188 0.94359 0.0
H1370 H 0.89434 0.35937 0.98435 0.0
H1371 H 0.93034 0.46172 0.01459 0.0
H1372 H 0.90543 0.43483 -0.00069 0.0
H1373 H 0.89309 0.41892 0.97218 0.0
C1374 C 0.85622 0.3499 0.95174 0.0
C1375 C 0.89381 0.37223 0.98169 0.0
C1376 C 0.8431 0.33167 0.94604 0.0
C1377 C 0.9341 0.45313 0.00714 0.0
C1378 C 0.9199 0.43774 0.99846 0.0
C1379 C 0.89344 0.40597 0.97488 0.0
C1380 C 0.86291 0.35241 0.96755 0.0
C1381 C 0.87851 0.37125 0.97308 0.0
C1382 C 0.92411 0.42524 0.99001 0.0
C1383 C 0.90867 0.40686 0.98356 0.0
H1384 H 0.83741 0.30619 0.98006 0.0
H1385 H 0.86021 0.33805 0.99007 0.0
H1386 H 0.86691 0.38796 0.96297 0.0
H1387 H 0.97139 0.44678 0.99812 0.0
H1388 H 0.94669 0.41998 0.98287 0.0
C1389 C 0.68523 0.51715 0.95463 0.0
C1390 C 0.70156 0.52833 0.96395 0.0
C1391 C 0.66721 0.51169 0.96064 0.0
C1392 C 0.64464 0.52793 0.9896 0.0
H1393 H 0.60002 0.47806 0.98304 0.0
C1394 C 0.57367 0.51508 0.01227 0.0
C1395 C 0.55873 0.50659 0.00121 0.0
C1396 C 0.58993 0.51368 0.01018 0.0
C1397 C 0.61234 0.49207 0.98493 0.0
H1398 H 0.71168 0.54241 0.98694 0.0
H1399 H 0.68038 0.53267 0.99743 0.0
H1400 H 0.63101 0.48383 0.97395 0.0
H1401 H 0.54846 0.48938 0.97973 0.0
H1402 H 0.57701 0.48716 0.97581 0.0
H1403 H 0.62622 0.53656 -3e-05 0.0
C1404 C 0.68148 0.52819 0.98546 0.0
C1405 C 0.63006 0.49537 0.97971 0.0
C1406 C 0.69942 0.5336 0.97949 0.0
C1407 C 0.5597 0.49566 0.9886 0.0
C1408 C 0.5761 0.49446 0.98635 0.0
C1409 C 0.62702 0.5247 0.99471 0.0
C1410 C 0.66519 0.51743 0.97604 0.0
C1411 C 0.64638 0.51338 0.98195 0.0
C1412 C 0.59176 0.50422 0.99672 0.0
C1413 C 0.6106 0.50676 0.99241 0.0
H1414 H 0.6864 0.5127 0.94266 0.0
H1415 H 0.65492 0.50351 0.95305 0.0
H1416 H 0.65685 0.54209 0.99121 0.0
H1417 H 0.57319 0.52371 0.02201 0.0
H1418 H 0.6015 0.52093 0.01864 0.0
C1419 C 0.48385 0.15446 0.93493 0.0
C1420 C 0.49866 0.17355 0.93621 0.0
C1421 C 0.48569 0.13957 0.94149 0.0
C1422 C 0.52124 0.1273 0.9567 0.0
H1423 H 0.4774 0.08599 0.97739 0.0
C1424 C 0.49392 0.04935 0.98975 0.0
C1425 C 0.50876 0.05463 0.00075 0.0
C1426 C 0.49389 0.06297 0.97948 0.0
C1427 C 0.4897 0.09722 0.97141 0.0
H1428 H 0.52708 0.19189 0.94551 0.0
H1429 H 0.53006 0.16592 0.95745 0.0
H1430 H 0.47483 0.11182 0.96506 0.0
H1431 H 0.53529 0.07794 0.00961 0.0
H1432 H 0.53555 0.10176 0.99141 0.0
H1433 H 0.53621 0.1128 0.96355 0.0
C1434 C 0.51713 0.16245 0.95106 0.0
C1435 C 0.48824 0.11209 0.96435 0.0
C1436 C 0.51532 0.17738 0.94441 0.0
C1437 C 0.52399 0.07348 0.00087 0.0
C1438 C 0.52408 0.08709 0.99048 0.0
C1439 C 0.52274 0.11243 0.96386 0.0
C1440 C 0.50233 0.14334 0.94967 0.0
C1441 C 0.50399 0.12738 0.95695 0.0
C1442 C 0.50867 0.08214 0.98009 0.0
C1443 C 0.50698 0.09726 0.97135 0.0
H1444 H 0.4707 0.15096 0.92892 0.0
H1445 H 0.47407 0.12505 0.94001 0.0
H1446 H 0.53359 0.13869 0.9509 0.0
H1447 H 0.48175 0.03501 0.9898 0.0
H1448 H 0.48192 0.05866 0.97149 0.0
C1449 C 0.69561 0.15167 0.95583 0.0
C1450 C 0.70834 0.14692 0.94866 0.0
C1451 C 0.67857 0.13743 0.96235 0.0
C1452 C 0.64447 0.0864 0.9577 0.0
H1453 H 0.62374 0.09155 0.99782 0.0
C1454 C 0.57431 0.0249 0.98062 0.0
C1455 C 0.56131 0.02961 0.98721 0.0
C1456 C 0.59308 0.03904 0.97798 0.0
C1457 C 0.62925 0.08997 0.98652 0.0
H1458 H 0.71355 0.12354 0.94359 0.0
H1459 H 0.68372 0.09873 0.95472 0.0
H1460 H 0.65506 0.11684 0.98933 0.0
H1461 H 0.55799 0.05277 0.99675 0.0
H1462 H 0.59069 0.07763 0.99172 0.0
H1463 H 0.61865 0.05997 0.95449 0.0
C1464 C 0.68683 0.11345 0.95509 0.0
C1465 C 0.6472 0.10443 0.98169 0.0
C1466 C 0.70389 0.12767 0.94867 0.0
C1467 C 0.56771 0.04868 0.99173 0.0
C1468 C 0.58649 0.06293 0.98887 0.0
C1469 C 0.62653 0.07207 0.96243 0.0
C1470 C 0.67384 0.11812 0.96177 0.0
C1471 C 0.655 0.10276 0.96723 0.0
C1472 C 0.59929 0.05834 0.98161 0.0
C1473 C 0.61866 0.0736 0.97692 0.0
H1474 H 0.69848 0.16631 0.95589 0.0
H1475 H 0.66876 0.14144 0.9673 0.0
H1476 H 0.64993 0.08487 0.94634 0.0
H1477 H 0.56988 0.01028 0.97722 0.0
H1478 H 0.60265 0.03486 0.9728 0.0
C1479 C 0.8666 0.56173 0.97437 0.0
C1480 C 0.87052 0.58008 0.96985 0.0
C1481 C 0.88088 0.55892 0.98071 0.0
C1482 C 0.93281 0.58136 0.97938 0.0
H1483 H 0.92263 0.53793 0.00587 0.0
C1484 C 0.97694 0.54455 0.97467 0.0
C1485 C 0.97985 0.53599 0.98816 0.0
C1486 C 0.96529 0.55259 0.9755 0.0
C1487 C 0.9259 0.55035 0.9987 0.0
H1488 H 0.89197 0.61011 0.96949 0.0
H1489 H 0.9169 0.60535 0.98107 0.0
H1490 H 0.8989 0.54771 0.00346 0.0
H1491 H 0.97317 0.52967 0.01327 0.0
H1492 H 0.95306 0.5441 0.01479 0.0
H1493 H 0.95986 0.58415 0.97476 0.0
C1494 C 0.90294 0.59301 0.97927 0.0
C1495 C 0.91216 0.55581 0.99715 0.0
C1496 C 0.88868 0.59577 0.97272 0.0
C1497 C 0.97111 0.53602 0.00261 0.0
C1498 C 0.95954 0.54424 0.00348 0.0
C1499 C 0.94662 0.57606 0.98111 0.0
C1500 C 0.89938 0.57446 0.98284 0.0
C1501 C 0.91516 0.57093 0.98698 0.0
C1502 C 0.95638 0.5525 0.98989 0.0
C1503 C 0.94304 0.56004 0.99028 0.0
H1504 H 0.85276 0.54935 0.97212 0.0
H1505 H 0.87761 0.54439 0.98304 0.0
H1506 H 0.93567 0.593 0.97137 0.0
H1507 H 0.98333 0.54468 0.96331 0.0
H1508 H 0.96285 0.5584 0.96468 0.0
C1509 C 0.52558 0.34237 0.96707 0.0
C1510 C 0.5325 0.34091 0.95212 0.0
C1511 C 0.52764 0.35985 0.97218 0.0
C1512 C 0.53622 0.39966 0.98215 0.0
H1513 H 0.5234 0.42378 0.94808 0.0
C1514 C 0.51502 0.45608 0.99642 0.0
C1515 C 0.49771 0.45181 0.9893 0.0
C1516 C 0.52518 0.44754 0.99071 0.0
C1517 C 0.52714 0.41733 0.95772 0.0
H1518 H 0.5485 0.35677 0.93146 0.0
H1519 H 0.5526 0.38741 0.94054 0.0
H1520 H 0.53064 0.39873 0.94169 0.0
H1521 H 0.47763 0.43593 0.9705 0.0
H1522 H 0.49534 0.42117 0.96034 0.0
H1523 H 0.53138 0.41738 0.99826 0.0
C1524 C 0.5451 0.37501 0.94814 0.0
C1525 C 0.53151 0.40307 0.95406 0.0
C1526 C 0.54289 0.35752 0.94299 0.0
C1527 C 0.4912 0.43975 0.9759 0.0
C1528 C 0.50138 0.43132 0.97011 0.0
C1529 C 0.5318 0.41391 0.98582 0.0
C1530 C 0.53678 0.37622 0.96246 0.0
C1531 C 0.5355 0.3936 0.96626 0.0
C1532 C 0.51813 0.43454 0.97782 0.0
C1533 C 0.52655 0.42243 0.97368 0.0
H1534 H 0.51737 0.32972 0.97426 0.0
H1535 H 0.5209 0.36016 0.98321 0.0
H1536 H 0.53951 0.39288 0.99182 0.0
H1537 H 0.51996 0.46483 0.00713 0.0
H1538 H 0.53809 0.4504 0.99684 0.0
C1539 C 0.1753 0.67283 0.03984 0.0
C1540 C 0.16761 0.6827 0.04787 0.0
C1541 C 0.16351 0.65395 0.03462 0.0
C1542 C 0.1165 0.61171 0.04227 0.0
H1543 H 0.12016 0.59648 -0.00092 0.0
C1544 C 0.05393 0.55189 0.0082 0.0
C1545 C 0.05712 0.54114 0.99674 0.0
C1546 C 0.06905 0.56626 0.01684 0.0
C1547 C 0.1192 0.6003 0.01132 0.0
H1548 H 0.14149 0.68094 0.05593 0.0
H1549 H 0.12104 0.64817 0.04687 0.0
H1550 H 0.14383 0.62804 0.00889 0.0
H1551 H 0.07835 0.53669 0.98526 0.0
H1552 H 0.10497 0.56163 0.00069 0.0
H1553 H 0.09152 0.58424 0.04454 0.0
C1554 C 0.13618 0.65477 0.04496 0.0
C1555 C 0.13274 0.61843 0.0169 0.0
C1556 C 0.14789 0.67357 0.05008 0.0
C1557 C 0.07557 0.54451 0.99438 0.0
C1558 C 0.09076 0.55888 0.00307 0.0
C1559 C 0.103 0.59358 0.03671 0.0
C1560 C 0.14387 0.64464 0.0374 0.0
C1561 C 0.13117 0.62454 0.03225 0.0
C1562 C 0.08771 0.57031 0.01405 0.0
C1563 C 0.10386 0.5879 0.021 0.0
H1564 H 0.19046 0.67944 0.03808 0.0
H1565 H 0.16981 0.64648 0.02879 0.0
H1566 H 0.11517 0.61589 0.05429 0.0
H1567 H 0.03998 0.55028 0.00956 0.0
H1568 H 0.06622 0.57505 0.02491 0.0
C1569 C 0.30878 0.46371 0.04208 0.0
C1570 C 0.30716 0.47193 0.05638 0.0
C1571 C 0.32636 0.47065 0.03473 0.0
C1572 C 0.37734 0.49642 0.04395 0.0
H1573 H 0.38198 0.49641 0.99785 0.0
C1574 C 0.44668 0.50961 0.01602 0.0
C1575 C 0.44412 0.49518 0.0052 0.0
C1576 C 0.43145 0.51214 0.02012 0.0
C1577 C 0.38093 0.49657 0.01073 0.0
H1578 H 0.32268 0.49427 0.07395 0.0
H1579 H 0.35347 0.50641 0.06111 0.0
H1580 H 0.35209 0.49028 0.00969 0.0
H1581 H 0.42401 0.4727 0.98958 0.0
H1582 H 0.39734 0.47696 0.99673 0.0
H1583 H 0.40588 0.50203 0.04506 0.0
C1584 C 0.34113 0.49442 0.05569 0.0
C1585 C 0.36379 0.49299 0.01752 0.0
C1586 C 0.32351 0.48744 0.06307 0.0
C1587 C 0.42638 0.4841 0.99779 0.0
C1588 C 0.41114 0.48661 0.00187 0.0
C1589 C 0.39445 0.50003 0.03717 0.0
C1590 C 0.34279 0.48601 0.04149 0.0
C1591 C 0.36164 0.49235 0.03422 0.0
C1592 C 0.41331 0.50012 0.01358 0.0
C1593 C 0.39629 0.49964 0.02049 0.0
H1594 H 0.2965 0.45156 0.03675 0.0
H1595 H 0.32716 0.46356 0.024 0.0
H1596 H 0.37613 0.49582 0.05684 0.0
H1597 H 0.45997 0.51776 0.02239 0.0
H1598 H 0.43361 0.52276 0.02909 0.0
C1599 C 0.51548 0.85121 0.07375 0.0
C1600 C 0.50143 0.83175 0.07339 0.0
C1601 C 0.51195 0.8651 0.06733 0.0
C1602 C 0.48171 0.87136 0.03811 0.0
H1603 H 0.5022 0.92116 0.05841 0.0
C1604 C 0.47516 0.93137 0.0075 0.0
C1605 C 0.49218 0.94888 0.00684 0.0
C1606 C 0.47321 0.91722 0.01822 0.0
C1607 C 0.49637 0.90733 0.05259 0.0
H1608 H 0.47255 0.81168 0.06608 0.0
H1609 H 0.46642 0.83597 0.05473 0.0
H1610 H 0.50481 0.89576 0.07186 0.0
H1611 H 0.52043 0.96564 0.01671 0.0
H1612 H 0.51725 0.94097 0.03531 0.0
H1613 H 0.47379 0.88303 0.01864 0.0
C1614 C 0.48023 0.84044 0.05992 0.0
C1615 C 0.49791 0.89279 0.06028 0.0
C1616 C 0.48376 0.82651 0.06638 0.0
C1617 C 0.50699 0.95238 0.01737 0.0
C1618 C 0.50515 0.93821 0.02798 0.0
C1619 C 0.48017 0.8859 0.03043 0.0
C1620 C 0.4943 0.85991 0.06033 0.0
C1621 C 0.49096 0.87475 0.05297 0.0
C1622 C 0.48844 0.92024 0.0282 0.0
C1623 C 0.48782 0.90418 0.03742 0.0
H1624 H 0.52937 0.85573 0.07878 0.0
H1625 H 0.52325 0.8799 0.06754 0.0
H1626 H 0.47639 0.85773 0.03205 0.0
H1627 H 0.46373 0.92828 -0.0008 0.0
H1628 H 0.46009 0.90362 0.0182 0.0
C1629 C 0.97023 0.17433 0.37239 0.0
C1630 C 0.96559 0.17437 0.38857 0.0
C1631 C 0.98792 0.1883 0.36656 0.0
C1632 C 0.03632 0.22429 0.38071 0.0
H1633 H 0.04037 0.24901 0.34007 0.0
C1634 C 0.09713 0.29889 0.36678 0.0
C1635 C 0.10831 0.30058 0.35343 0.0
C1636 C 0.07971 0.28237 0.36914 0.0
C1637 C 0.03942 0.24203 0.35134 0.0
H1638 H 0.97619 0.1889 0.41133 0.0
H1639 H 0.00638 0.21344 0.40114 0.0
H1640 H 0.00986 0.22172 0.34811 0.0
H1641 H 0.10935 0.28645 0.33165 0.0
H1642 H 0.07837 0.25756 0.33569 0.0
H1643 H 0.06557 0.24518 0.38428 0.0
C1644 C 0.9966 0.20252 0.39294 0.0
C1645 C 0.02201 0.22639 0.35594 0.0
C1646 C 0.97908 0.18858 0.39875 0.0
C1647 C 0.10113 0.28562 0.34208 0.0
C1648 C 0.08344 0.26912 0.34434 0.0
C1649 C 0.05354 0.24 0.37622 0.0
C1650 C 0.00134 0.20254 0.3768 0.0
C1651 C 0.02016 0.21765 0.37089 0.0
C1652 C 0.07285 0.26723 0.35811 0.0
C1653 C 0.05514 0.24926 0.36168 0.0
H1654 H 0.96013 0.16366 0.3642 0.0
H1655 H 0.99113 0.18783 0.35409 0.0
H1656 H 0.03559 0.21759 0.39208 0.0
H1657 H 0.10211 0.31005 0.3758 0.0
H1658 H 0.07168 0.28129 0.37977 0.0
C1659 C 0.83046 0.80943 0.37083 0.0
C1660 C 0.83486 0.79601 0.36447 0.0
C1661 C 0.81699 0.81271 0.36341 0.0
C1662 C 0.77407 0.78686 0.33953 0.0
H1663 H 0.77519 0.83547 0.34097 0.0
C1664 C 0.72169 0.82112 0.33049 0.0
C1665 C 0.70641 0.80806 0.33993 0.0
C1666 C 0.73803 0.81967 0.32914 0.0
C1667 C 0.77472 0.82183 0.34018 0.0
H1668 H 0.82945 0.77627 0.34488 0.0
H1669 H 0.80587 0.78208 0.33181 0.0
H1670 H 0.80425 0.83452 0.34588 0.0
H1671 H 0.69597 0.78269 0.35467 0.0
H1672 H 0.72447 0.78029 0.35235 0.0
H1673 H 0.74443 0.7741 0.33428 0.0
C1674 C 0.81277 0.78995 0.34261 0.0
C1675 C 0.79133 0.82127 0.34314 0.0
C1676 C 0.82636 0.78674 0.35001 0.0
C1677 C 0.70751 0.79305 0.34734 0.0
C1678 C 0.72379 0.79155 0.34592 0.0
C1679 C 0.75746 0.78741 0.3366 0.0
C1680 C 0.80758 0.80259 0.34949 0.0
C1681 C 0.79104 0.80371 0.34336 0.0
C1682 C 0.73939 0.80508 0.33708 0.0
C1683 C 0.75748 0.80482 0.33741 0.0
H1684 H 0.83695 0.81689 0.38189 0.0
H1685 H 0.8132 0.8224 0.36912 0.0
H1686 H 0.77334 0.77308 0.33971 0.0
H1687 H 0.72133 0.83283 0.32459 0.0
H1688 H 0.74977 0.83021 0.32212 0.0
C1689 C 0.15052 0.98526 0.40184 0.0
C1690 C 0.15842 0.00134 0.39181 0.0
C1691 C 0.1478 0.96767 0.39638 0.0
C1692 C 0.168 0.94863 0.36791 0.0
H1693 H 0.12332 0.8994 0.37604 0.0
C1694 C 0.13616 0.86885 0.34165 0.0
C1695 C 0.15255 0.8673 0.3422 0.0
C1696 C 0.13519 0.88311 0.35045 0.0
C1697 C 0.1359 0.91305 0.37377 0.0
H1698 H 0.16899 0.01147 0.36803 0.0
H1699 H 0.16425 0.98067 0.35844 0.0
H1700 H 0.12411 0.9289 0.38463 0.0
H1701 H 0.18064 0.87901 0.35242 0.0
H1702 H 0.17896 0.90382 0.36797 0.0
H1703 H 0.17978 0.93298 0.35696 0.0
C1704 C 0.16025 0.98173 0.37056 0.0
C1705 C 0.13637 0.9299 0.37869 0.0
C1706 C 0.16278 0.99929 0.37598 0.0
C1707 C 0.16762 0.87956 0.35223 0.0
C1708 C 0.16677 0.89394 0.3609 0.0
C1709 C 0.16762 0.93185 0.36318 0.0
C1710 C 0.15311 0.96586 0.38082 0.0
C1711 C 0.15236 0.94787 0.37565 0.0
C1712 C 0.15084 0.89632 0.35961 0.0
C1713 C 0.15154 0.91387 0.36595 0.0
H1714 H 0.14692 0.98643 0.41408 0.0
H1715 H 0.14233 0.95572 0.40456 0.0
H1716 H 0.18063 0.96225 0.36561 0.0
H1717 H 0.1246 0.85985 0.33361 0.0
H1718 H 0.12282 0.8847 0.34908 0.0
C1719 C 0.51187 0.65488 0.29709 0.0
C1720 C 0.50371 0.65066 0.28176 0.0
C1721 C 0.52581 0.67351 0.30106 0.0
C1722 C 0.54624 0.72393 0.2928 0.0
H1723 H 0.59283 0.72725 0.30814 0.0
C1724 C 0.62651 0.78027 0.31859 0.0
C1725 C 0.62156 0.78789 0.33154 0.0
C1726 C 0.61248 0.7669 0.30842 0.0
C1727 C 0.58007 0.72667 0.30362 0.0
H1728 H 0.50295 0.66268 0.25883 0.0
H1729 H 0.52722 0.69555 0.26598 0.0
H1730 H 0.56664 0.6965 0.29943 0.0
H1731 H 0.59851 0.78846 0.34374 0.0
H1732 H 0.57386 0.7653 0.32577 0.0
H1733 H 0.55952 0.7541 0.29773 0.0
C1734 C 0.52287 0.68434 0.27479 0.0
C1735 C 0.56502 0.70902 0.29881 0.0
C1736 C 0.5091 0.6656 0.27072 0.0
C1737 C 0.60261 0.78308 0.33354 0.0
C1738 C 0.58856 0.76984 0.32327 0.0
C1739 C 0.56128 0.74165 0.29788 0.0
C1740 C 0.53167 0.6883 0.28986 0.0
C1741 C 0.54788 0.70742 0.29365 0.0
C1742 C 0.59328 0.76089 0.31113 0.0
C1743 C 0.57825 0.7431 0.30353 0.0
H1744 H 0.50812 0.64363 0.30577 0.0
H1745 H 0.53237 0.6763 0.31279 0.0
H1746 H 0.53312 0.72297 0.28882 0.0
H1747 H 0.64102 0.78344 0.3171 0.0
H1748 H 0.61651 0.76032 0.29909 0.0
C1749 C 0.36419 0.88267 0.30438 0.0
C1750 C 0.37506 0.89651 0.29289 0.0
C1751 C 0.34641 0.87973 0.30883 0.0
C1752 C 0.30724 0.88584 0.29416 0.0
H1753 H 0.29141 0.87796 0.33846 0.0
C1754 C 0.2351 0.8763 0.31249 0.0
C1755 C 0.22449 0.86167 0.32347 0.0
C1756 C 0.25418 0.88226 0.30983 0.0
C1757 C 0.29556 0.87997 0.32602 0.0
H1758 H 0.37591 0.91841 0.27736 0.0
H1759 H 0.34477 0.9131 0.285 0.0
H1760 H 0.32336 0.88489 0.33161 0.0
H1761 H 0.2258 0.84222 0.34062 0.0
H1762 H 0.25899 0.85241 0.33578 0.0
H1763 H 0.27941 0.88054 0.28848 0.0
C1764 C 0.34995 0.90441 0.29044 0.0
C1765 C 0.31386 0.88396 0.32211 0.0
C1766 C 0.36777 0.90741 0.28604 0.0
C1767 C 0.23358 0.85361 0.33214 0.0
C1768 C 0.25265 0.85949 0.32939 0.0
C1769 C 0.28894 0.88178 0.29806 0.0
C1770 C 0.33905 0.89049 0.30184 0.0
C1771 C 0.31986 0.88686 0.30612 0.0
C1772 C 0.26308 0.87364 0.31799 0.0
C1773 C 0.28284 0.87872 0.31403 0.0
H1774 H 0.36924 0.87382 0.30972 0.0
H1775 H 0.33822 0.86871 0.31747 0.0
H1776 H 0.31134 0.8877 0.28171 0.0
H1777 H 0.2286 0.88296 0.30572 0.0
H1778 H 0.2619 0.89347 0.30121 0.0
C1779 C 0.17441 0.50262 0.27155 0.0
C1780 C 0.15799 0.49856 0.26284 0.0
C1781 C 0.17643 0.48782 0.2782 0.0
C1782 C 0.14805 0.43753 0.29129 0.0
H1783 H 0.19671 0.43969 0.29256 0.0
C1784 C 0.15524 0.37757 0.32117 0.0
C1785 C 0.1703 0.38389 0.3321 0.0
C1786 C 0.15478 0.39026 0.31006 0.0
C1787 C 0.18303 0.4389 0.29233 0.0
H1788 H 0.13077 0.47565 0.25442 0.0
H1789 H 0.13446 0.44992 0.2657 0.0
H1790 H 0.19368 0.46468 0.27868 0.0
H1791 H 0.19678 0.40809 0.34 0.0
H1792 H 0.19629 0.43027 0.3204 0.0
H1793 H 0.13745 0.41205 0.30516 0.0
C1794 C 0.14573 0.46455 0.26752 0.0
C1795 C 0.18131 0.45325 0.28442 0.0
C1796 C 0.1437 0.47933 0.26089 0.0
C1797 C 0.18531 0.40281 0.33134 0.0
C1798 C 0.18496 0.41549 0.32014 0.0
C1799 C 0.14977 0.42321 0.29916 0.0
C1800 C 0.16207 0.46859 0.27633 0.0
C1801 C 0.16383 0.45286 0.28397 0.0
C1802 C 0.16936 0.40954 0.30974 0.0
C1803 C 0.16732 0.42382 0.29995 0.0
H1804 H 0.18579 0.51724 0.27314 0.0
H1805 H 0.18911 0.4915 0.28506 0.0
H1806 H 0.13444 0.43689 0.29143 0.0
H1807 H 0.14329 0.36313 0.32183 0.0
H1808 H 0.14269 0.38514 0.30208 0.0
C1809 C 0.37275 0.46305 0.29573 0.0
C1810 C 0.3777 0.48223 0.29326 0.0
C1811 C 0.35549 0.45019 0.30277 0.0
C1812 C 0.30763 0.44344 0.30954 0.0
H1813 H 0.3011 0.39977 0.33395 0.0
C1814 C 0.23417 0.3846 0.33151 0.0
C1815 C 0.22972 0.36612 0.32662 0.0
C1816 C 0.25283 0.39985 0.33059 0.0
C1817 C 0.30275 0.41195 0.3272 0.0
H1818 H 0.36852 0.50302 0.29689 0.0
H1819 H 0.33886 0.48082 0.30979 0.0
H1820 H 0.33297 0.42497 0.32687 0.0
H1821 H 0.24142 0.34892 0.31773 0.0
H1822 H 0.27395 0.37544 0.31637 0.0
H1823 H 0.27736 0.43029 0.30985 0.0
C1824 C 0.34811 0.47558 0.30589 0.0
C1825 C 0.32098 0.42634 0.32305 0.0
C1826 C 0.36529 0.4884 0.29868 0.0
C1827 C 0.24439 0.36302 0.32151 0.0
C1828 C 0.26305 0.37817 0.32083 0.0
C1829 C 0.28944 0.42918 0.31387 0.0
C1830 C 0.34279 0.4562 0.30773 0.0
C1831 C 0.32364 0.44204 0.31382 0.0
C1832 C 0.26739 0.3968 0.32504 0.0
C1833 C 0.28679 0.41308 0.32242 0.0
H1834 H 0.38209 0.45784 0.29199 0.0
H1835 H 0.35186 0.43536 0.30381 0.0
H1836 H 0.30902 0.45512 0.30223 0.0
H1837 H 0.22315 0.38744 0.33545 0.0
H1838 H 0.25584 0.41408 0.33396 0.0
C1839 C 0.54899 0.91778 0.30863 0.0
C1840 C 0.52934 0.90517 0.30786 0.0
C1841 C 0.56067 0.91291 0.31721 0.0
C1842 C 0.56223 0.87016 0.32824 0.0
H1843 H 0.61012 0.90734 0.34751 0.0
C1844 C 0.62189 0.85277 0.33933 0.0
C1845 C 0.63911 0.8664 0.33241 0.0
C1846 C 0.60732 0.85694 0.3417 0.0
C1847 C 0.59673 0.89675 0.34228 0.0
H1848 H 0.50633 0.87809 0.31624 0.0
H1849 H 0.5268 0.86958 0.33136 0.0
H1850 H 0.58585 0.91604 0.34236 0.0
H1851 H 0.65494 0.89544 0.32346 0.0
H1852 H 0.62967 0.90265 0.32752 0.0
H1853 H 0.57344 0.8512 0.32742 0.0
C1854 C 0.53316 0.88317 0.32521 0.0
C1855 C 0.58286 0.90173 0.33931 0.0
C1856 C 0.52144 0.8881 0.31666 0.0
C1857 C 0.6418 0.88456 0.32868 0.0
C1858 C 0.62736 0.88877 0.33118 0.0
C1859 C 0.57609 0.86518 0.33123 0.0
C1860 C 0.55296 0.89528 0.32518 0.0
C1861 C 0.56578 0.88876 0.33164 0.0
C1862 C 0.60982 0.87489 0.33739 0.0
C1863 C 0.59378 0.87869 0.33765 0.0
H1864 H 0.55541 0.93113 0.30211 0.0
H1865 H 0.57586 0.92249 0.31679 0.0
H1866 H 0.5493 0.85987 0.32219 0.0
H1867 H 0.61939 0.83863 0.34236 0.0
H1868 H 0.59396 0.846 0.34656 0.0
C1869 C 0.1813 0.66333 0.30209 0.0
C1870 C 0.18576 0.66254 0.28602 0.0
C1871 C 0.18464 0.68064 0.30887 0.0
C1872 C 0.18868 0.72636 0.29701 0.0
H1873 H 0.20394 0.7405 0.34114 0.0
C1874 C 0.17159 0.77642 0.33366 0.0
C1875 C 0.1846 0.78822 0.34532 0.0
C1876 C 0.17517 0.76399 0.32459 0.0
C1877 C 0.19996 0.73696 0.32871 0.0
H1878 H 0.19849 0.67949 0.26481 0.0
H1879 H 0.20434 0.70963 0.27665 0.0
H1880 H 0.20438 0.71294 0.32961 0.0
H1881 H 0.21158 0.79668 0.35667 0.0
H1882 H 0.21821 0.77536 0.3405 0.0
H1883 H 0.18397 0.75022 0.29619 0.0
C1884 C 0.19788 0.69684 0.28391 0.0
C1885 C 0.19998 0.72101 0.32217 0.0
C1886 C 0.19456 0.67958 0.27715 0.0
C1887 C 0.20158 0.788 0.34742 0.0
C1888 C 0.20523 0.77564 0.33832 0.0
C1889 C 0.18858 0.74228 0.30356 0.0
C1890 C 0.19253 0.69749 0.29973 0.0
C1891 C 0.19407 0.71535 0.30632 0.0
C1892 C 0.19177 0.76304 0.32717 0.0
C1893 C 0.19394 0.74758 0.31957 0.0
H1894 H 0.17437 0.65042 0.30918 0.0
H1895 H 0.18021 0.68062 0.32106 0.0
H1896 H 0.18387 0.7223 0.28479 0.0
H1897 H 0.15805 0.77579 0.33232 0.0
H1898 H 0.16436 0.75428 0.3163 0.0
C1899 C 0.82472 0.99197 0.39152 0.0
C1900 C 0.84438 0.00183 0.38871 0.0
C1901 C 0.81336 0.97312 0.38647 0.0
C1902 C 0.80784 0.94086 0.35517 0.0
H1903 H 0.76777 0.90403 0.38238 0.0
C1904 C 0.74122 0.8787 0.32735 0.0
C1905 C 0.7247 0.8779 0.33316 0.0
C1906 C 0.75819 0.88835 0.33603 0.0
C1907 C 0.77895 0.91405 0.37464 0.0
H1908 H 0.86737 0.9994 0.37806 0.0
H1909 H 0.84706 0.96643 0.36845 0.0
H1910 H 0.79443 0.93257 0.39419 0.0
H1911 H 0.71263 0.88625 0.3523 0.0
H1912 H 0.7421 0.90323 0.36745 0.0
H1913 H 0.79168 0.9233 0.33548 0.0
C1914 C 0.84075 0.97342 0.37501 0.0
C1915 C 0.79423 0.93031 0.3814 0.0
C1916 C 0.8523 0.99231 0.38039 0.0
C1917 C 0.7251 0.88614 0.34795 0.0
C1918 C 0.74204 0.8959 0.35658 0.0
C1919 C 0.79246 0.92466 0.34837 0.0
C1920 C 0.82119 0.96366 0.37813 0.0
C1921 C 0.80831 0.9443 0.37164 0.0
C1922 C 0.75893 0.89767 0.35048 0.0
C1923 C 0.77737 0.91158 0.35796 0.0
H1924 H 0.81787 0.99891 0.39732 0.0
H1925 H 0.79823 0.96614 0.38861 0.0
H1926 H 0.81847 0.95149 0.34739 0.0
H1927 H 0.7412 0.87273 0.31574 0.0
H1928 H 0.77092 0.88937 0.33104 0.0
C1929 C 0.96376 0.74143 0.39649 0.0
C1930 C 0.95871 0.75529 0.39269 0.0
C1931 C 0.98091 0.7434 0.3912 0.0
C1932 C 0.01923 0.76796 0.36184 0.0
H1933 H 0.05086 0.76372 0.39443 0.0
C1934 C 0.09981 0.79923 0.35413 0.0
C1935 C 0.10857 0.7901 0.36169 0.0
C1936 C 0.08051 0.79265 0.35635 0.0
C1937 C 0.04212 0.76458 0.38506 0.0
H1938 H 0.96773 0.78195 0.38009 0.0
H1939 H 0.99739 0.78512 0.37063 0.0
H1940 H 0.01877 0.7561 0.40096 0.0
H1941 H 0.1037 0.76623 0.37674 0.0
H1942 H 0.06996 0.7544 0.38019 0.0
H1943 H 0.04258 0.7765 0.34593 0.0
C1944 C 0.988 0.77268 0.37763 0.0
C1945 C 0.02372 0.76026 0.38885 0.0
C1946 C 0.97095 0.77082 0.38303 0.0
C1947 C 0.09743 0.77373 0.37091 0.0
C1948 C 0.07809 0.76702 0.37296 0.0
C1949 C 0.03759 0.77211 0.358 0.0
C1950 C 0.99329 0.75916 0.38187 0.0
C1951 C 0.01218 0.76217 0.37735 0.0
C1952 C 0.06947 0.77665 0.36602 0.0
C1953 C 0.04939 0.77075 0.36963 0.0
H1954 H 0.95452 0.7291 0.40365 0.0
H1955 H 0.98454 0.73264 0.39449 0.0
H1956 H 0.01055 0.76936 0.35271 0.0
H1957 H 0.10801 0.81196 0.34703 0.0
H1958 H 0.07446 0.8006 0.35098 0.0
C1959 C 0.19234 0.18046 0.39662 0.0
C1960 C 0.17751 0.16327 0.40257 0.0
C1961 C 0.18868 0.19424 0.39016 0.0
C1962 C 0.1495 0.20174 0.37523 0.0
H1963 H 0.18911 0.25484 0.37864 0.0
C1964 C 0.15126 0.26024 0.33493 0.0
C1965 C 0.16177 0.27953 0.33958 0.0
C1966 C 0.15004 0.24581 0.34491 0.0
C1967 C 0.17762 0.24019 0.37782 0.0
H1968 H 0.14728 0.14685 0.40658 0.0
H1969 H 0.14082 0.17125 0.39594 0.0
H1970 H 0.19325 0.23047 0.39156 0.0
H1971 H 0.17928 0.29885 0.35825 0.0
H1972 H 0.1758 0.27378 0.37641 0.0
H1973 H 0.13349 0.21161 0.36211 0.0
C1974 C 0.15525 0.17397 0.39574 0.0
C1975 C 0.18022 0.22603 0.38498 0.0
C1976 C 0.1589 0.15998 0.40189 0.0
C1977 C 0.17022 0.28408 0.35474 0.0
C1978 C 0.16873 0.26963 0.36491 0.0
C1979 C 0.14671 0.21596 0.36835 0.0
C1980 C 0.17012 0.19139 0.38986 0.0
C1981 C 0.16646 0.20654 0.38341 0.0
C1982 C 0.1593 0.25033 0.35987 0.0
C1983 C 0.16095 0.23538 0.36916 0.0
H1984 H 0.2068 0.18321 0.39696 0.0
H1985 H 0.20048 0.20712 0.38535 0.0
H1986 H 0.13854 0.18694 0.37366 0.0
H1987 H 0.14503 0.2564 0.32308 0.0
H1988 H 0.14292 0.2313 0.34033 0.0
C1989 C 0.6278 0.53327 0.71583 0.0
C1990 C 0.62364 0.5144 0.71873 0.0
C1991 C 0.64491 0.54648 0.70879 0.0
C1992 C 0.69362 0.55542 0.70266 0.0
H1993 H 0.69793 0.59719 0.67674 0.0
C1994 C 0.76556 0.61538 0.67897 0.0
C1995 C 0.7693 0.63392 0.68294 0.0
C1996 C 0.74728 0.59966 0.68059 0.0
C1997 C 0.6969 0.58556 0.68393 0.0
H1998 H 0.63402 0.49449 0.7159 0.0
H1999 H 0.66353 0.51731 0.70302 0.0
H2000 H 0.6666 0.57123 0.68419 0.0
H2001 H 0.75667 0.65058 0.69104 0.0
H2002 H 0.72475 0.62318 0.69363 0.0
H2003 H 0.72398 0.56988 0.70239 0.0
C2004 C 0.65375 0.52204 0.70658 0.0
C2005 C 0.67898 0.57074 0.68828 0.0
C2006 C 0.63669 0.50886 0.71378 0.0
C2007 C 0.75426 0.63648 0.68795 0.0
C2008 C 0.73596 0.62082 0.68933 0.0
C2009 C 0.71152 0.57013 0.69814 0.0
C2010 C 0.65824 0.54112 0.70426 0.0
C2011 C 0.67712 0.5557 0.69804 0.0
C2012 C 0.73236 0.60222 0.68595 0.0
C2013 C 0.71334 0.58555 0.68904 0.0
H2014 H 0.61794 0.53797 0.7192 0.0
H2015 H 0.64789 0.56106 0.70738 0.0
H2016 H 0.69282 0.54428 0.71036 0.0
H2017 H 0.77686 0.61293 0.67513 0.0
H2018 H 0.74484 0.58547 0.67785 0.0
C2019 C 0.4728 0.09999 0.68343 0.0
C2020 C 0.46854 0.08545 0.69463 0.0
C2021 C 0.45858 0.10334 0.6777 0.0
C2022 C 0.40623 0.08488 0.67816 0.0
H2023 H 0.42256 0.13901 0.67985 0.0
C2024 C 0.35646 0.11499 0.69129 0.0
C2025 C 0.35936 0.13126 0.68283 0.0
C2026 C 0.36872 0.10772 0.68926 0.0
C2027 C 0.4178 0.12386 0.67905 0.0
H2028 H 0.44567 0.06177 0.70727 0.0
H2029 H 0.4211 0.06812 0.6979 0.0
H2030 H 0.44597 0.12887 0.6817 0.0
H2031 H 0.37712 0.15229 0.6652 0.0
H2032 H 0.39851 0.13966 0.6618 0.0
H2033 H 0.37787 0.08002 0.67636 0.0
C2034 C 0.43534 0.07687 0.69338 0.0
C2035 C 0.43124 0.11801 0.68003 0.0
C2036 C 0.44951 0.07338 0.69895 0.0
C2037 C 0.37448 0.13977 0.67196 0.0
C2038 C 0.38678 0.13258 0.67003 0.0
C2039 C 0.39274 0.09076 0.67733 0.0
C2040 C 0.43984 0.09238 0.68318 0.0
C2041 C 0.42563 0.09843 0.6799 0.0
C2042 C 0.38419 0.11666 0.67881 0.0
C2043 C 0.39839 0.1103 0.67804 0.0
H2044 H 0.48728 0.10959 0.67982 0.0
H2045 H 0.46247 0.1151 0.66954 0.0
H2046 H 0.40143 0.06971 0.67777 0.0
H2047 H 0.34491 0.10802 0.69969 0.0
H2048 H 0.3665 0.09554 0.69631 0.0
C2049 C 0.85066 0.34539 0.71557 0.0
C2050 C 0.83539 0.34883 0.71608 0.0
C2051 C 0.84826 0.32826 0.70945 0.0
C2052 C 0.81175 0.27795 0.70198 0.0
H2053 H 0.85377 0.27756 0.68067 0.0
C2054 C 0.81773 0.21615 0.66884 0.0
C2055 C 0.83393 0.21539 0.67348 0.0
C2056 C 0.81364 0.22939 0.67599 0.0
C2057 C 0.84196 0.27747 0.68669 0.0
H2058 H 0.80579 0.3374 0.70995 0.0
H2059 H 0.80161 0.3073 0.69876 0.0
H2060 H 0.85548 0.30793 0.68644 0.0
H2061 H 0.85768 0.22655 0.68989 0.0
H2062 H 0.85049 0.2495 0.70251 0.0
H2063 H 0.79817 0.24715 0.70171 0.0
C2064 C 0.81538 0.31782 0.70341 0.0
C2065 C 0.84292 0.29485 0.69001 0.0
C2066 C 0.81781 0.33511 0.7096 0.0
C2067 C 0.84483 0.22654 0.68643 0.0
C2068 C 0.84084 0.2398 0.69352 0.0
C2069 C 0.81067 0.26041 0.69838 0.0
C2070 C 0.83054 0.3141 0.70351 0.0
C2071 C 0.82809 0.29539 0.6981 0.0
C2072 C 0.82592 0.24211 0.68768 0.0
C2073 C 0.82602 0.26014 0.69109 0.0
H2074 H 0.86439 0.35577 0.72043 0.0
H2075 H 0.86021 0.32586 0.70997 0.0
H2076 H 0.80012 0.27784 0.70829 0.0
H2077 H 0.80945 0.20802 0.65856 0.0
H2078 H 0.80216 0.23105 0.67123 0.0
C2079 C 0.16367 0.01137 0.61557 0.0
C2080 C 0.15786 0.9952 0.62529 0.0
C2081 C 0.1776 0.02947 0.6209 0.0
C2082 C 0.21926 0.05011 0.64611 0.0
H2083 H 0.21852 0.09778 0.64379 0.0
C2084 C 0.26414 0.12632 0.67757 0.0
C2085 C 0.2824 0.12921 0.67501 0.0
C2086 C 0.24886 0.113 0.6683 0.0
C2087 C 0.21892 0.08457 0.64436 0.0
H2088 H 0.16136 0.98538 0.64844 0.0
H2089 H 0.18578 0.01701 0.65773 0.0
H2090 H 0.19047 0.06766 0.63529 0.0
H2091 H 0.29925 0.12098 0.6607 0.0
H2092 H 0.27271 0.09801 0.64428 0.0
H2093 H 0.24745 0.06668 0.65525 0.0
C2094 C 0.17955 0.01564 0.646 0.0
C2095 C 0.20293 0.06741 0.63953 0.0
C2096 C 0.16548 0.9976 0.64075 0.0
C2097 C 0.28542 0.11953 0.66247 0.0
C2098 C 0.27017 0.10615 0.65328 0.0
C2099 C 0.23524 0.06719 0.65069 0.0
C2100 C 0.1861 0.03163 0.63596 0.0
C2101 C 0.20291 0.05001 0.64063 0.0
C2102 C 0.25163 0.10212 0.65661 0.0
C2103 C 0.2352 0.08457 0.65002 0.0
H2104 H 0.15791 0.00988 0.60363 0.0
H2105 H 0.18244 0.04157 0.61294 0.0
H2106 H 0.2197 0.03693 0.64685 0.0
H2107 H 0.26147 0.13328 0.6875 0.0
H2108 H 0.2347 0.11003 0.67124 0.0
C2109 C 0.0239 0.19234 0.62305 0.0
C2110 C 0.03902 0.20737 0.6314 0.0
C2111 C 0.00516 0.18589 0.62761 0.0
C2112 C 0.97591 0.18905 0.66058 0.0
H2113 H 0.93907 0.17683 0.62659 0.0
C2114 C 0.90799 0.19417 0.66592 0.0
C2115 C 0.8914 0.17994 0.65851 0.0
C2116 C 0.92492 0.19384 0.66463 0.0
C2117 C 0.9491 0.17987 0.63625 0.0
H2118 H 0.04647 0.22749 0.65101 0.0
H2119 H 0.01386 0.21676 0.65866 0.0
H2120 H 0.97092 0.18364 0.6201 0.0
H2121 H 0.87932 0.15437 0.64387 0.0
H2122 H 0.90898 0.15366 0.64161 0.0
H2123 H 0.95417 0.18626 0.67659 0.0
C2124 C 0.01635 0.20946 0.64891 0.0
C2125 C 0.9674 0.18375 0.63254 0.0
C2126 C 0.03507 0.21572 0.64449 0.0
C2127 C 0.89182 0.16508 0.65014 0.0
C2128 C 0.90882 0.16486 0.64865 0.0
C2129 C 0.95766 0.18541 0.66426 0.0
C2130 C 0.00112 0.19453 0.64048 0.0
C2131 C 0.98116 0.18871 0.64463 0.0
C2132 C 0.92562 0.17949 0.6556 0.0
C2133 C 0.94417 0.18105 0.65209 0.0
H2134 H 0.02659 0.18551 0.61303 0.0
H2135 H 0.99386 0.17414 0.621 0.0
H2136 H 0.98597 0.19239 0.67026 0.0
H2137 H 0.90798 0.20592 0.67222 0.0
H2138 H 0.93769 0.20542 0.66993 0.0
C2139 C 0.83728 0.82787 0.58696 0.0
C2140 C 0.83439 0.84003 0.59722 0.0
C2141 C 0.84024 0.81347 0.59312 0.0
C2142 C 0.85305 0.79721 0.63017 0.0
H2143 H 0.82449 0.74683 0.61077 0.0
C2144 C 0.85258 0.73252 0.65904 0.0
C2145 C 0.83418 0.71726 0.66156 0.0
C2146 C 0.85569 0.74691 0.64809 0.0
C2147 C 0.83266 0.76083 0.61626 0.0
H2148 H 0.8327 0.84673 0.62204 0.0
H2149 H 0.83785 0.82161 0.6328 0.0
H2150 H 0.82396 0.77397 0.59853 0.0
H2151 H 0.80476 0.70443 0.65442 0.0
H2152 H 0.81008 0.72926 0.63522 0.0
H2153 H 0.86099 0.78393 0.64833 0.0
C2154 C 0.83805 0.82336 0.61997 0.0
C2155 C 0.83247 0.77644 0.60919 0.0
C2156 C 0.83508 0.83777 0.6138 0.0
C2157 C 0.81913 0.71592 0.65238 0.0
C2158 C 0.82221 0.73017 0.6414 0.0
C2159 C 0.85327 0.78163 0.63722 0.0
C2160 C 0.84045 0.81088 0.60969 0.0
C2161 C 0.84229 0.79474 0.61627 0.0
C2162 C 0.84039 0.74625 0.63959 0.0
C2163 C 0.8427 0.76316 0.63058 0.0
H2164 H 0.83721 0.82946 0.57412 0.0
H2165 H 0.84234 0.80434 0.58487 0.0
H2166 H 0.86101 0.81116 0.6358 0.0
H2167 H 0.8643 0.73397 0.66627 0.0
H2168 H 0.86988 0.75901 0.64687 0.0
C2169 C 0.01886 0.82699 0.62346 0.0
C2170 C 0.03479 0.82488 0.62123 0.0
C2171 C 0.00222 0.81208 0.62993 0.0
C2172 C 0.97831 0.75942 0.63596 0.0
H2173 H 0.94147 0.76816 0.65793 0.0
C2174 C 0.90068 0.70047 0.63983 0.0
C2175 C 0.88983 0.69919 0.65328 0.0
C2176 C 0.91903 0.71582 0.63804 0.0
C2177 C 0.95168 0.76539 0.65205 0.0
H2178 H 0.04636 0.80616 0.6248 0.0
H2179 H 0.01773 0.78046 0.63687 0.0
H2180 H 0.97271 0.79512 0.65211 0.0
H2181 H 0.88989 0.71314 0.67548 0.0
H2182 H 0.92234 0.73978 0.67261 0.0
H2183 H 0.95764 0.72969 0.63639 0.0
C2184 C 0.01765 0.79323 0.63304 0.0
C2185 C 0.96956 0.78094 0.64846 0.0
C2186 C 0.03413 0.80799 0.62624 0.0
C2187 C 0.89788 0.71368 0.66498 0.0
C2188 C 0.91644 0.72901 0.66328 0.0
C2189 C 0.96062 0.7439 0.63978 0.0
C2190 C 0.00127 0.79484 0.6346 0.0
C2191 C 0.98297 0.77822 0.64001 0.0
C2192 C 0.92726 0.73027 0.64976 0.0
C2193 C 0.94684 0.74669 0.64746 0.0
H2194 H 0.01904 0.83988 0.61957 0.0
H2195 H 0.98992 0.81385 0.63066 0.0
H2196 H 0.98803 0.75661 0.6293 0.0
H2197 H 0.8949 0.68976 0.63043 0.0
H2198 H 0.9266 0.71649 0.62724 0.0
C2199 C 0.20295 0.23883 0.65063 0.0
C2200 C 0.2078 0.25623 0.6431 0.0
C2201 C 0.21703 0.23587 0.65733 0.0
C2202 C 0.26618 0.2509 0.64943 0.0
H2203 H 0.26255 0.22079 0.68666 0.0
C2204 C 0.32192 0.22887 0.66027 0.0
C2205 C 0.31518 0.20991 0.66509 0.0
C2206 C 0.31027 0.23694 0.66107 0.0
C2207 C 0.26372 0.22913 0.67617 0.0
H2208 H 0.23086 0.28484 0.63817 0.0
H2209 H 0.25544 0.27965 0.64981 0.0
H2210 H 0.23909 0.2309 0.68244 0.0
H2211 H 0.2912 0.1847 0.67509 0.0
H2212 H 0.27051 0.19847 0.67586 0.0
H2213 H 0.29 0.24839 0.64256 0.0
C2214 C 0.24082 0.26819 0.65027 0.0
C2215 C 0.25034 0.23498 0.67382 0.0
C2216 C 0.22676 0.27115 0.64361 0.0
C2217 C 0.29678 0.19938 0.67132 0.0
C2218 C 0.28497 0.20735 0.67185 0.0
C2219 C 0.27937 0.24491 0.65167 0.0
C2220 C 0.23619 0.25026 0.65659 0.0
C2221 C 0.25135 0.24576 0.66032 0.0
C2222 C 0.29144 0.2261 0.66639 0.0
C2223 C 0.27822 0.23376 0.66496 0.0
H2224 H 0.18848 0.22702 0.65035 0.0
H2225 H 0.21305 0.22187 0.66204 0.0
H2226 H 0.2671 0.25882 0.63872 0.0
H2227 H 0.33617 0.23743 0.65567 0.0
H2228 H 0.31593 0.25159 0.65719 0.0
C2229 C 0.87383 0.02291 0.60066 0.0
C2230 C 0.86533 0.00664 0.61047 0.0
C2231 C 0.87586 0.04028 0.60594 0.0
C2232 C 0.87093 0.06575 0.64131 0.0
H2233 H 0.85157 0.08695 0.60982 0.0
C2234 C 0.85039 0.12167 0.65949 0.0
C2235 C 0.83188 0.1164 0.65473 0.0
C2236 C 0.85987 0.11317 0.65228 0.0
C2237 C 0.85715 0.08133 0.61872 0.0
H2238 H 0.85349 0.99612 0.63384 0.0
H2239 H 0.85682 0.02637 0.64306 0.0
H2240 H 0.8588 0.06227 0.6019 0.0
H2241 H 0.80889 0.09884 0.63854 0.0
H2242 H 0.82539 0.08418 0.62572 0.0
H2243 H 0.86808 0.08397 0.65834 0.0
C2244 C 0.86215 0.02584 0.63135 0.0
C2245 C 0.86149 0.06728 0.61416 0.0
C2246 C 0.86023 0.00846 0.62609 0.0
C2247 C 0.82335 0.1034 0.64211 0.0
C2248 C 0.83284 0.09503 0.6348 0.0
C2249 C 0.86658 0.07981 0.64588 0.0
C2250 C 0.86933 0.04175 0.62111 0.0
C2251 C 0.86787 0.05888 0.6255 0.0
C2252 C 0.85092 0.09924 0.64022 0.0
C2253 C 0.85904 0.0873 0.63473 0.0
H2254 H 0.8781 0.02194 0.58862 0.0
H2255 H 0.88183 0.05236 0.59788 0.0
H2256 H 0.87605 0.05978 0.6503 0.0
H2257 H 0.85702 0.13138 0.66948 0.0
H2258 H 0.87385 0.11685 0.65662 0.0
C2259 C 0.47928 0.33491 0.73117 0.0
C2260 C 0.49914 0.34467 0.72965 0.0
C2261 C 0.46847 0.31556 0.72729 0.0
C2262 C 0.46786 0.27987 0.70085 0.0
H2263 H 0.42338 0.24577 0.72536 0.0
C2264 C 0.40869 0.21137 0.67226 0.0
C2265 C 0.39082 0.2097 0.67412 0.0
C2266 C 0.42371 0.22339 0.6824 0.0
C2267 C 0.43584 0.25502 0.71847 0.0
H2268 H 0.52316 0.34149 0.72298 0.0
H2269 H 0.50403 0.30761 0.71563 0.0
H2270 H 0.44719 0.27624 0.73699 0.0
H2271 H 0.37447 0.21916 0.68772 0.0
H2272 H 0.40042 0.24013 0.70529 0.0
H2273 H 0.45597 0.25932 0.68193 0.0
C2274 C 0.49699 0.31508 0.72003 0.0
C2275 C 0.44944 0.27246 0.7251 0.0
C2276 C 0.5079 0.33449 0.72412 0.0
C2277 C 0.38791 0.21955 0.68656 0.0
C2278 C 0.4029 0.2317 0.69655 0.0
C2279 C 0.45419 0.26244 0.69418 0.0
C2280 C 0.47716 0.30545 0.72158 0.0
C2281 C 0.46517 0.28541 0.71608 0.0
C2282 C 0.42114 0.23425 0.69428 0.0
C2283 C 0.43761 0.25019 0.70268 0.0
H2284 H 0.47196 0.34233 0.73499 0.0
H2285 H 0.45318 0.30865 0.72822 0.0
H2286 H 0.4798 0.28962 0.6936 0.0
H2287 H 0.41128 0.20421 0.66244 0.0
H2288 H 0.43755 0.22495 0.68039 0.0
C2289 C 0.63344 0.11479 0.70652 0.0
C2290 C 0.63231 0.12539 0.71936 0.0
C2291 C 0.65071 0.12067 0.69888 0.0
C2292 C 0.70264 0.15136 0.70508 0.0
H2293 H 0.70387 0.13943 0.66034 0.0
C2294 C 0.77208 0.1664 0.67493 0.0
C2295 C 0.77066 0.14943 0.66899 0.0
C2296 C 0.75568 0.16719 0.67842 0.0
C2297 C 0.70374 0.143 0.6728 0.0
H2298 H 0.64815 0.15075 0.73401 0.0
H2299 H 0.67826 0.16142 0.7204 0.0
H2300 H 0.67415 0.13381 0.67213 0.0
H2301 H 0.75122 0.12055 0.66087 0.0
H2302 H 0.72263 0.1221 0.66649 0.0
H2303 H 0.73225 0.16044 0.70569 0.0
C2304 C 0.66596 0.14825 0.71647 0.0
C2305 C 0.68669 0.13962 0.67963 0.0
C2306 C 0.64872 0.14218 0.72426 0.0
C2307 C 0.75267 0.13381 0.6654 0.0
C2308 C 0.73632 0.13473 0.66858 0.0
C2309 C 0.71972 0.155 0.69819 0.0
C2310 C 0.66723 0.13749 0.70374 0.0
C2311 C 0.68578 0.14323 0.69599 0.0
C2312 C 0.73765 0.15114 0.67571 0.0
C2313 C 0.72034 0.15039 0.68209 0.0
H2314 H 0.62103 0.10167 0.70261 0.0
H2315 H 0.65113 0.11174 0.68941 0.0
H2316 H 0.70254 0.1541 0.71774 0.0
H2317 H 0.78578 0.17852 0.67803 0.0
H2318 H 0.75706 0.18003 0.68388 0.0
C2319 C 0.85429 0.52186 0.74934 0.0
C2320 C 0.84127 0.50251 0.74598 0.0
C2321 C 0.85173 0.53642 0.74297 0.0
C2322 C 0.81593 0.54587 0.72386 0.0
H2323 H 0.86031 0.59052 0.70719 0.0
C2324 C 0.81325 0.59659 0.67677 0.0
C2325 C 0.8273 0.61596 0.67712 0.0
C2326 C 0.81325 0.58394 0.68816 0.0
C2327 C 0.8478 0.57836 0.71207 0.0
H2328 H 0.81518 0.48337 0.73339 0.0
H2329 H 0.81101 0.50879 0.72188 0.0
H2330 H 0.8639 0.56591 0.72072 0.0
H2331 H 0.85219 0.63754 0.6896 0.0
H2332 H 0.85208 0.61556 0.70976 0.0
H2333 H 0.7998 0.55819 0.71472 0.0
C2334 C 0.82305 0.51269 0.72968 0.0
C2335 C 0.84986 0.56418 0.71981 0.0
C2336 C 0.82559 0.49811 0.7361 0.0
C2337 C 0.8409 0.62273 0.68939 0.0
C2338 C 0.84099 0.61008 0.70075 0.0
C2339 C 0.81387 0.56007 0.71607 0.0
C2340 C 0.83614 0.53204 0.73299 0.0
C2341 C 0.83393 0.54762 0.72562 0.0
C2342 C 0.82756 0.5904 0.69992 0.0
C2343 C 0.82976 0.57637 0.70989 0.0
H2344 H 0.86667 0.52583 0.75674 0.0
H2345 H 0.862 0.55113 0.74591 0.0
H2346 H 0.8034 0.53347 0.72843 0.0
H2347 H 0.80296 0.59101 0.66711 0.0
H2348 H 0.80285 0.56887 0.68701 0.0
C2349 C 0.46755 0.91797 0.16466 0.0
C2350 C 0.47918 0.92995 0.177 0.0
C2351 C 0.47314 0.92217 0.14873 0.0
C2352 C 0.51445 0.95358 0.12272 0.0
H2353 H 0.47477 0.94625 0.09296 0.0
C2354 C 0.52521 0.9975 0.06549 0.0
C2355 C 0.51331 0.98833 0.05234 0.0
C2356 C 0.52364 0.98725 0.07939 0.0
C2357 C 0.486 0.94804 0.101 0.0
H2358 H 0.50581 0.95559 0.18244 0.0
H2359 H 0.51529 0.96339 0.15466 0.0
H2360 H 0.46649 0.93446 0.12001 0.0
H2361 H 0.49074 0.9613 0.04324 0.0
H2362 H 0.48834 0.94327 0.06728 0.0
H2363 H 0.53402 0.96821 0.10373 0.0
C2364 C 0.50212 0.95042 0.1572 0.0
C2365 C 0.48125 0.94125 0.11657 0.0
C2366 C 0.49664 0.94604 0.17314 0.0
C2367 C 0.50062 0.96855 0.05295 0.0
C2368 C 0.499 0.95831 0.06684 0.0
C2369 C 0.51922 0.96058 0.10714 0.0
C2370 C 0.49035 0.93865 0.14476 0.0
C2371 C 0.49542 0.94422 0.12775 0.0
C2372 C 0.50993 0.96772 0.08043 0.0
C2373 C 0.50505 0.95813 0.0962 0.0
H2374 H 0.45415 0.9053 0.16734 0.0
H2375 H 0.46387 0.91255 0.13952 0.0
H2376 H 0.52572 0.9558 0.13089 0.0
H2377 H 0.53486 0.01283 0.06538 0.0
H2378 H 0.53213 0.99495 0.08972 0.0
C2379 C 0.09504 0.58297 0.16154 0.0
C2380 C 0.10941 0.57831 0.16351 0.0
C2381 C 0.0864 0.58089 0.14667 0.0
C2382 C 0.09217 0.57698 0.10352 0.0
H2383 H 0.03723 0.54802 0.10298 0.0
C2384 C 0.04775 0.53756 0.04799 0.0
C2385 C 0.0288 0.53321 0.04721 0.0
C2386 C 0.05931 0.54829 0.06076 0.0
C2387 C 0.05255 0.55661 0.10283 0.0
H2388 H 0.12622 0.56813 0.15145 0.0
H2389 H 0.11099 0.56441 0.12536 0.0
H2390 H 0.05402 0.5561 0.1283 0.0
H2391 H 0.00741 0.53785 0.05814 0.0
H2392 H 0.02784 0.55753 0.08001 0.0
H2393 H 0.0907 0.57737 0.07797 0.0
C2394 C 0.10654 0.56978 0.13534 0.0
C2395 C 0.06218 0.5611 0.11741 0.0
C2396 C 0.11507 0.57168 0.15028 0.0
C2397 C 0.02204 0.54112 0.05854 0.0
C2398 C 0.03369 0.55216 0.07114 0.0
C2399 C 0.08252 0.57269 0.08887 0.0
C2400 C 0.09203 0.57426 0.13343 0.0
C2401 C 0.08206 0.571 0.11791 0.0
C2402 C 0.05211 0.55494 0.07292 0.0
C2403 C 0.06256 0.56209 0.08833 0.0
H2404 H 0.09031 0.588 0.17156 0.0
H2405 H 0.07528 0.58448 0.14552 0.0
H2406 H 0.10753 0.58485 0.1036 0.0
H2407 H 0.05312 0.53127 0.0395 0.0
H2408 H 0.07334 0.55 0.06171 0.0
C2409 C 0.47729 0.51762 0.17478 0.0
C2410 C 0.49172 0.53318 0.18332 0.0
C2411 C 0.48113 0.51189 0.1602 0.0
C2412 C 0.51052 0.531 0.12565 0.0
H2413 H 0.49239 0.47788 0.11462 0.0
C2414 C 0.51226 0.5081 0.06055 0.0
C2415 C 0.49582 0.49143 0.0554 0.0
C2416 C 0.51535 0.51279 0.07681 0.0
C2417 C 0.49745 0.49278 0.11746 0.0
H2418 H 0.5218 0.55429 0.1834 0.0
H2419 H 0.5282 0.54472 0.1575 0.0
H2420 H 0.49077 0.48663 0.14226 0.0
H2421 H 0.46991 0.46648 0.0634 0.0
H2422 H 0.47496 0.47493 0.09141 0.0
H2423 H 0.51606 0.53711 0.1008 0.0
C2424 C 0.51396 0.537 0.16227 0.0
C2425 C 0.49662 0.49776 0.1333 0.0
C2426 C 0.51021 0.54253 0.17702 0.0
C2427 C 0.4828 0.47939 0.06689 0.0
C2428 C 0.48579 0.48416 0.08306 0.0
C2429 C 0.51107 0.52599 0.10975 0.0
C2430 C 0.4994 0.52174 0.15368 0.0
C2431 C 0.50275 0.51684 0.13745 0.0
C2432 C 0.50199 0.50101 0.08825 0.0
C2433 C 0.50406 0.50673 0.10539 0.0
H2434 H 0.46281 0.51027 0.17901 0.0
H2435 H 0.4696 0.50023 0.15367 0.0
H2436 H 0.5152 0.54581 0.12857 0.0
H2437 H 0.52264 0.51764 0.05202 0.0
H2438 H 0.52812 0.52576 0.0804 0.0
C2439 C 0.90933 0.42348 0.84689 0.0
C2440 C 0.89316 0.42517 0.84448 0.0
C2441 C 0.91671 0.4249 0.86221 0.0
C2442 C 0.91696 0.44411 0.9023 0.0
H2443 H 0.94262 0.41618 0.91375 0.0
C2444 C 0.95814 0.46085 0.96072 0.0
C2445 C 0.97726 0.46648 0.95816 0.0
C2446 C 0.94445 0.45019 0.94915 0.0
C2447 C 0.93536 0.42394 0.91075 0.0
H2448 H 0.87179 0.42932 0.85614 0.0
H2449 H 0.88444 0.43146 0.88306 0.0
H2450 H 0.92487 0.40883 0.88864 0.0
H2451 H 0.99699 0.4646 0.94205 0.0
H2452 H 0.9731 0.44601 0.92174 0.0
H2453 H 0.92773 0.45945 0.92423 0.0
C2454 C 0.89168 0.42942 0.87308 0.0
C2455 C 0.92532 0.41986 0.89633 0.0
C2456 C 0.88442 0.42821 0.85769 0.0
C2457 C 0.98229 0.46023 0.94434 0.0
C2458 C 0.9686 0.44953 0.93277 0.0
C2459 C 0.92681 0.44802 0.91676 0.0
C2460 C 0.90797 0.42786 0.87552 0.0
C2461 C 0.91648 0.43031 0.89172 0.0
C2462 C 0.94971 0.44516 0.93476 0.0
C2463 C 0.93654 0.43836 0.92093 0.0
H2464 H 0.91645 0.42133 0.83686 0.0
H2465 H 0.92953 0.4241 0.86356 0.0
H2466 H 0.91058 0.45263 0.8991 0.0
H2467 H 0.95398 0.46594 0.97106 0.0
H2468 H 0.92997 0.4469 0.95103 0.0
C2469 C 0.49609 0.45015 0.83657 0.0
C2470 C 0.50283 0.46238 0.82329 0.0
C2471 C 0.49295 0.4566 0.85109 0.0
C2472 C 0.5109 0.50007 0.8744 0.0
H2473 H 0.46847 0.46903 0.90216 0.0
C2474 C 0.51017 0.52374 0.93894 0.0
C2475 C 0.50451 0.50941 0.95057 0.0
C2476 C 0.50668 0.51892 0.92277 0.0
C2477 C 0.48046 0.47783 0.89459 0.0
H2478 H 0.51069 0.49077 0.81474 0.0
H2479 H 0.50572 0.5022 0.84034 0.0
H2480 H 0.46818 0.45873 0.87464 0.0
H2481 H 0.49017 0.47874 0.95441 0.0
H2482 H 0.48463 0.47032 0.92621 0.0
H2483 H 0.52373 0.51864 0.89441 0.0
C2484 C 0.50289 0.4876 0.8394 0.0
C2485 C 0.48023 0.47197 0.87882 0.0
C2486 C 0.50584 0.48108 0.82479 0.0
C2487 C 0.49464 0.49012 0.94574 0.0
C2488 C 0.49137 0.4853 0.92954 0.0
C2489 C 0.51123 0.50583 0.89019 0.0
C2490 C 0.49667 0.47549 0.85274 0.0
C2491 C 0.49562 0.48286 0.86869 0.0
C2492 C 0.49767 0.49966 0.91783 0.0
C2493 C 0.49619 0.49459 0.90058 0.0
H2494 H 0.49395 0.43579 0.83599 0.0
H2495 H 0.48844 0.44705 0.86124 0.0
H2496 H 0.52307 0.50861 0.86691 0.0
H2497 H 0.51758 0.53874 0.94231 0.0
H2498 H 0.51136 0.53033 0.91411 0.0
C2499 C 0.50536 0.08075 0.8389 0.0
C2500 C 0.51816 0.07719 0.83036 0.0
C2501 C 0.50191 0.07612 0.85508 0.0
C2502 C 0.52127 0.06556 0.891 0.0
H2503 H 0.46865 0.03473 0.90365 0.0
C2504 C 0.47911 0.0064 0.94115 0.0
C2505 C 0.49053 0.01562 0.95454 0.0
C2506 C 0.48049 0.01679 0.92739 0.0
C2507 C 0.48339 0.04346 0.90032 0.0
H2508 H 0.53773 0.0664 0.83236 0.0
H2509 H 0.53198 0.05869 0.86064 0.0
H2510 H 0.47628 0.04784 0.87664 0.0
H2511 H 0.51214 0.04287 0.96414 0.0
H2512 H 0.51414 0.06116 0.94034 0.0
H2513 H 0.52844 0.06065 0.91442 0.0
C2514 C 0.52465 0.06511 0.85478 0.0
C2515 C 0.48777 0.05105 0.88491 0.0
C2516 C 0.52798 0.06958 0.83857 0.0
C2517 C 0.50262 0.03554 0.95423 0.0
C2518 C 0.50405 0.04594 0.94048 0.0
C2519 C 0.51691 0.05812 0.90643 0.0
C2520 C 0.51136 0.06804 0.86314 0.0
C2521 C 0.50676 0.06181 0.87998 0.0
C2522 C 0.49353 0.03655 0.92671 0.0
C2523 C 0.49792 0.04664 0.91116 0.0
H2524 H 0.49785 0.08698 0.83305 0.0
H2525 H 0.49179 0.07878 0.86127 0.0
H2526 H 0.53602 0.07395 0.88758 0.0
H2527 H 0.46992 0.991 0.94102 0.0
H2528 H 0.47234 0.00911 0.91692 0.0
C2529 C 0.16023 0.28549 0.51124 0.0
C2530 C 0.14434 0.26773 0.51494 0.0
C2531 C 0.16568 0.29051 0.49538 0.0
C2532 C 0.14653 0.27894 0.45429 0.0
H2533 H 0.19948 0.30987 0.44261 0.0
C2534 C 0.16644 0.30411 0.39008 0.0
C2535 C 0.17852 0.32393 0.38863 0.0
C2536 C 0.16488 0.29501 0.40462 0.0
C2537 C 0.18465 0.3012 0.44571 0.0
H2538 H 0.12199 0.24109 0.50497 0.0
H2539 H 0.13159 0.24972 0.47726 0.0
H2540 H 0.19113 0.29814 0.46995 0.0
H2541 H 0.1989 0.34975 0.40101 0.0
H2542 H 0.19615 0.33391 0.42653 0.0
H2543 H 0.14 0.28226 0.4302 0.0
C2544 C 0.13965 0.25996 0.48659 0.0
C2545 C 0.17984 0.29455 0.46137 0.0
C2546 C 0.13412 0.255 0.50246 0.0
C2547 C 0.18976 0.33437 0.40176 0.0
C2548 C 0.18818 0.32528 0.41634 0.0
C2549 C 0.15133 0.28548 0.43866 0.0
C2550 C 0.15543 0.27783 0.48284 0.0
C2551 C 0.1607 0.28361 0.46592 0.0
C2552 C 0.17515 0.30564 0.41809 0.0
C2553 C 0.17042 0.29693 0.43423 0.0
H2554 H 0.16826 0.29568 0.52061 0.0
H2555 H 0.17767 0.30453 0.49295 0.0
H2556 H 0.13166 0.27085 0.45739 0.0
H2557 H 0.15696 0.29589 0.38042 0.0
H2558 H 0.1548 0.27984 0.40556 0.0
C2559 C 0.74801 0.89126 0.50244 0.0
C2560 C 0.76719 0.90548 0.5021 0.0
C2561 C 0.73683 0.88686 0.48866 0.0
C2562 C 0.73653 0.9043 0.4472 0.0
H2563 H 0.69845 0.85111 0.4403 0.0
C2564 C 0.70471 0.86694 0.38627 0.0
C2565 C 0.68504 0.85453 0.38574 0.0
C2566 C 0.71363 0.87632 0.40048 0.0
C2567 C 0.70886 0.86607 0.44217 0.0
H2568 H 0.78988 0.92618 0.48731 0.0
H2569 H 0.77077 0.91786 0.46301 0.0
H2570 H 0.71631 0.86056 0.46517 0.0
H2571 H 0.65909 0.84257 0.39944 0.0
H2572 H 0.67471 0.85862 0.42442 0.0
H2573 H 0.72967 0.90932 0.42355 0.0
C2574 C 0.76401 0.91055 0.47395 0.0
C2575 C 0.71908 0.87155 0.45648 0.0
C2576 C 0.77505 0.91523 0.48782 0.0
C2577 C 0.67429 0.85223 0.39951 0.0
C2578 C 0.68319 0.86135 0.41376 0.0
C2579 C 0.72654 0.8987 0.43272 0.0
C2580 C 0.74473 0.89628 0.47415 0.0
C2581 C 0.73316 0.89073 0.45919 0.0
C2582 C 0.70299 0.87302 0.41448 0.0
C2583 C 0.71268 0.87953 0.4301 0.0
H2584 H 0.74164 0.88374 0.51341 0.0
H2585 H 0.72198 0.8761 0.48943 0.0
H2586 H 0.74695 0.91926 0.44893 0.0
H2587 H 0.71335 0.86804 0.37615 0.0
H2588 H 0.72896 0.88497 0.40082 0.0
C2589 C 0.1329 0.89071 0.49905 0.0
C2590 C 0.14702 0.89744 0.5109 0.0
C2591 C 0.13715 0.88844 0.48333 0.0
C2592 C 0.17797 0.90131 0.45588 0.0
H2593 H 0.13968 0.85855 0.43126 0.0
C2594 C 0.1907 0.86374 0.40222 0.0
C2595 C 0.17756 0.85771 0.38958 0.0
C2596 C 0.18877 0.87337 0.41535 0.0
C2597 C 0.15041 0.87076 0.43789 0.0
H2598 H 0.1765 0.90679 0.51586 0.0
H2599 H 0.18379 0.90188 0.48861 0.0
H2600 H 0.13225 0.8645 0.45796 0.0
H2601 H 0.15251 0.85742 0.38042 0.0
H2602 H 0.14923 0.8744 0.40328 0.0
H2603 H 0.19644 0.90663 0.43592 0.0
C2604 C 0.16959 0.89902 0.4912 0.0
C2605 C 0.14616 0.87422 0.45322 0.0
C2606 C 0.16541 0.90164 0.50686 0.0
C2607 C 0.1632 0.86249 0.38977 0.0
C2608 C 0.16114 0.87193 0.40295 0.0
C2609 C 0.18232 0.8976 0.4406 0.0
C2610 C 0.15555 0.89248 0.47918 0.0
C2611 C 0.15992 0.88945 0.46251 0.0
C2612 C 0.17344 0.87672 0.41613 0.0
C2613 C 0.16859 0.88222 0.43152 0.0
H2614 H 0.11869 0.88766 0.50188 0.0
H2615 H 0.12603 0.88375 0.47441 0.0
H2616 H 0.18883 0.91341 0.4625 0.0
H2617 H 0.20171 0.85992 0.40242 0.0
H2618 H 0.19834 0.87677 0.42543 0.0
C2619 C 0.58507 0.76686 0.17063 0.0
C2620 C 0.56762 0.76631 0.16943 0.0
C2621 C 0.59467 0.77095 0.18526 0.0
C2622 C 0.59602 0.79219 0.22513 0.0
H2623 H 0.62822 0.77113 0.23617 0.0
C2624 C 0.63225 0.80638 0.28617 0.0
C2625 C 0.65207 0.81578 0.28512 0.0
C2626 C 0.621 0.79692 0.27289 0.0
C2627 C 0.6192 0.77701 0.23321 0.0
H2628 H 0.54608 0.76883 0.18246 0.0
H2629 H 0.56227 0.77508 0.20817 0.0
H2630 H 0.60995 0.76133 0.21123 0.0
H2631 H 0.67582 0.82237 0.2697 0.0
H2632 H 0.65607 0.80545 0.24639 0.0
H2633 H 0.60505 0.80758 0.24724 0.0
C2634 C 0.56905 0.77315 0.1978 0.0
C2635 C 0.60886 0.77157 0.21889 0.0
C2636 C 0.55968 0.76947 0.18311 0.0
C2637 C 0.66052 0.81491 0.2708 0.0
C2638 C 0.64926 0.80523 0.25754 0.0
C2639 C 0.60604 0.7973 0.23952 0.0
C2640 C 0.58681 0.7742 0.19906 0.0
C2641 C 0.59726 0.77924 0.21458 0.0
C2642 C 0.62944 0.79672 0.25835 0.0
C2643 C 0.61783 0.7899 0.24363 0.0
H2644 H 0.59146 0.76451 0.16016 0.0
H2645 H 0.60843 0.77195 0.18565 0.0
H2646 H 0.58769 0.79882 0.22213 0.0
H2647 H 0.62548 0.80744 0.29694 0.0
H2648 H 0.60574 0.79047 0.27378 0.0
C2649 C 0.1826 0.75023 0.18329 0.0
C2650 C 0.19054 0.76656 0.17348 0.0
C2651 C 0.17833 0.75144 0.19924 0.0
C2652 C 0.19078 0.78474 0.23268 0.0
H2653 H 0.14003 0.75028 0.24823 0.0
C2654 C 0.14289 0.78912 0.28427 0.0
C2655 C 0.15607 0.79559 0.2969 0.0
C2656 C 0.14571 0.7806 0.27079 0.0
C2657 C 0.15429 0.75984 0.24408 0.0
H2658 H 0.20037 0.79701 0.17293 0.0
H2659 H 0.19345 0.79918 0.20095 0.0
H2660 H 0.14866 0.74642 0.22099 0.0
H2661 H 0.18219 0.79784 0.30557 0.0
H2662 H 0.18685 0.78247 0.2823 0.0
H2663 H 0.19636 0.79848 0.2555 0.0
C2664 C 0.1905 0.78545 0.19618 0.0
C2665 C 0.15924 0.75762 0.22856 0.0
C2666 C 0.19454 0.78421 0.18015 0.0
C2667 C 0.17139 0.79225 0.29632 0.0
C2668 C 0.17427 0.78381 0.28285 0.0
C2669 C 0.18593 0.78679 0.24822 0.0
C2670 C 0.18221 0.76904 0.20581 0.0
C2671 C 0.17741 0.77032 0.22263 0.0
C2672 C 0.16194 0.77874 0.26965 0.0
C2673 C 0.16755 0.77459 0.25399 0.0
H2674 H 0.17974 0.73648 0.17869 0.0
H2675 H 0.17216 0.73864 0.20648 0.0
H2676 H 0.20492 0.79461 0.22842 0.0
H2677 H 0.13116 0.79188 0.28435 0.0
H2678 H 0.13607 0.77698 0.26074 0.0
C2679 C 0.1759 0.4154 0.17377 0.0
C2680 C 0.18963 0.4132 0.16534 0.0
C2681 C 0.17209 0.40998 0.18977 0.0
C2682 C 0.19137 0.39964 0.22575 0.0
H2683 H 0.1387 0.36504 0.2365 0.0
C2684 C 0.15026 0.33762 0.27409 0.0
C2685 C 0.16029 0.34706 0.28799 0.0
C2686 C 0.15163 0.34807 0.26036 0.0
C2687 C 0.15344 0.37481 0.2337 0.0
H2688 H 0.21052 0.40408 0.16738 0.0
H2689 H 0.20414 0.39504 0.19539 0.0
H2690 H 0.14676 0.37947 0.20995 0.0
H2691 H 0.17957 0.37467 0.29853 0.0
H2692 H 0.18157 0.39299 0.27474 0.0
H2693 H 0.19814 0.39455 0.24927 0.0
C2694 C 0.19634 0.40098 0.18957 0.0
C2695 C 0.15805 0.38315 0.21856 0.0
C2696 C 0.20002 0.40621 0.17352 0.0
C2697 C 0.17108 0.36712 0.28817 0.0
C2698 C 0.17253 0.37757 0.27445 0.0
C2699 C 0.18675 0.39147 0.24093 0.0
C2700 C 0.1821 0.40248 0.19776 0.0
C2701 C 0.1771 0.39531 0.21433 0.0
C2702 C 0.16333 0.3681 0.26025 0.0
C2703 C 0.16777 0.37866 0.24495 0.0
H2704 H 0.16791 0.42114 0.16797 0.0
H2705 H 0.16122 0.41154 0.19587 0.0
H2706 H 0.20615 0.40908 0.22285 0.0
H2707 H 0.14215 0.32213 0.2736 0.0
H2708 H 0.14456 0.34035 0.24954 0.0
C2709 C 0.81961 0.61994 0.84365 0.0
C2710 C 0.80446 0.60152 0.84686 0.0
C2711 C 0.82518 0.62578 0.82794 0.0
C2712 C 0.8078 0.61402 0.78616 0.0
H2713 H 0.86071 0.64849 0.77615 0.0
C2714 C 0.82981 0.6397 0.72224 0.0
C2715 C 0.84012 0.65971 0.72086 0.0
C2716 C 0.82831 0.631 0.73698 0.0
C2717 C 0.8459 0.63882 0.77878 0.0
H2718 H 0.78349 0.57464 0.83619 0.0
H2719 H 0.7934 0.58464 0.80876 0.0
H2720 H 0.85181 0.63625 0.80329 0.0
H2721 H 0.85756 0.68631 0.73357 0.0
H2722 H 0.85505 0.67114 0.75941 0.0
H2723 H 0.80188 0.61668 0.7617 0.0
C2724 C 0.80072 0.59478 0.81833 0.0
C2725 C 0.84076 0.63189 0.79434 0.0
C2726 C 0.79502 0.58902 0.83404 0.0
C2727 C 0.84982 0.67083 0.73429 0.0
C2728 C 0.84837 0.66213 0.74905 0.0
C2729 C 0.81296 0.62078 0.7706 0.0
C2730 C 0.81587 0.61326 0.81506 0.0
C2731 C 0.82159 0.61964 0.79829 0.0
C2732 C 0.83695 0.64219 0.75067 0.0
C2733 C 0.83203 0.63346 0.76678 0.0
H2734 H 0.82703 0.62992 0.85332 0.0
H2735 H 0.83662 0.64023 0.82591 0.0
H2736 H 0.79289 0.6049 0.78875 0.0
H2737 H 0.8215 0.63087 0.71228 0.0
H2738 H 0.81949 0.6156 0.73785 0.0
C2739 C 0.44847 0.23906 0.82386 0.0
C2740 C 0.44373 0.2466 0.83705 0.0
C2741 C 0.43847 0.23551 0.8095 0.0
C2742 C 0.39244 0.22364 0.79339 0.0
H2743 H 0.41873 0.23941 0.75296 0.0
C2744 C 0.35031 0.20138 0.73464 0.0
C2745 C 0.35772 0.19499 0.72257 0.0
C2746 C 0.36157 0.21162 0.74773 0.0
C2747 C 0.41113 0.23479 0.7641 0.0
H2748 H 0.42478 0.25618 0.84568 0.0
H2749 H 0.407 0.2496 0.82057 0.0
H2750 H 0.43685 0.24903 0.77782 0.0
H2751 H 0.38246 0.19409 0.71452 0.0
H2752 H 0.40205 0.21147 0.73747 0.0
H2753 H 0.36682 0.20859 0.77986 0.0
C2754 C 0.41857 0.24663 0.82134 0.0
C2755 C 0.42154 0.24036 0.77834 0.0
C2756 C 0.42876 0.25046 0.83564 0.0
C2757 C 0.37667 0.19941 0.7235 0.0
C2758 C 0.38786 0.20936 0.73669 0.0
C2759 C 0.38204 0.21786 0.77916 0.0
C2760 C 0.42337 0.23917 0.80813 0.0
C2761 C 0.4123 0.2346 0.7931 0.0
C2762 C 0.3803 0.21516 0.7492 0.0
C2763 C 0.39126 0.22313 0.76429 0.0
H2764 H 0.46004 0.23609 0.82463 0.0
H2765 H 0.44231 0.22957 0.79953 0.0
H2766 H 0.38499 0.21887 0.80463 0.0
H2767 H 0.33562 0.19791 0.73419 0.0
H2768 H 0.35537 0.21617 0.75695 0.0
C2769 C 0.82521 0.19894 0.83867 0.0
C2770 C 0.82698 0.21682 0.84216 0.0
C2771 C 0.82935 0.19499 0.82342 0.0
C2772 C 0.83245 0.21033 0.78157 0.0
H2773 H 0.85495 0.17833 0.77515 0.0
C2774 C 0.84245 0.18827 0.71851 0.0
C2775 C 0.83489 0.16844 0.71664 0.0
C2776 C 0.84547 0.19642 0.73377 0.0
C2777 C 0.84868 0.18731 0.77677 0.0
H2778 H 0.83464 0.24463 0.83232 0.0
H2779 H 0.84236 0.23793 0.80592 0.0
H2780 H 0.85239 0.18832 0.80215 0.0
H2781 H 0.82579 0.14182 0.72932 0.0
H2782 H 0.83107 0.15601 0.75582 0.0
H2783 H 0.82841 0.20902 0.75624 0.0
C2784 C 0.83753 0.22686 0.8149 0.0
C2785 C 0.84714 0.19296 0.79223 0.0
C2786 C 0.83332 0.23077 0.83012 0.0
C2787 C 0.83149 0.15713 0.73032 0.0
C2788 C 0.83466 0.16529 0.74554 0.0
C2789 C 0.83407 0.20475 0.76613 0.0
C2790 C 0.83542 0.20886 0.81132 0.0
C2791 C 0.83865 0.20423 0.79484 0.0
C2792 C 0.8412 0.18492 0.74744 0.0
C2793 C 0.84186 0.19286 0.76359 0.0
H2794 H 0.82059 0.18795 0.84772 0.0
H2795 H 0.82735 0.1809 0.82103 0.0
H2796 H 0.8256 0.21879 0.78314 0.0
H2797 H 0.84525 0.19737 0.70821 0.0
H2798 H 0.85071 0.21165 0.73488 0.0
C2799 C 0.23193 0.10745 0.51845 0.0
C2800 C 0.24007 0.10241 0.50598 0.0
C2801 C 0.23954 0.1105 0.53387 0.0
C2802 C 0.27249 0.10227 0.5594 0.0
H2803 H 0.27316 0.14266 0.5851 0.0
C2804 C 0.32309 0.14109 0.61251 0.0
C2805 C 0.31559 0.14568 0.62576 0.0
C2806 C 0.3116 0.13176 0.59929 0.0
C2807 C 0.27278 0.13111 0.57817 0.0
H2808 H 0.26269 0.09693 0.49965 0.0
H2809 H 0.27656 0.10306 0.52639 0.0
H2810 H 0.25826 0.13554 0.55887 0.0
H2811 H 0.29035 0.144 0.63581 0.0
H2812 H 0.27016 0.12753 0.61271 0.0
H2813 H 0.28802 0.09869 0.57856 0.0
C2814 C 0.26391 0.10403 0.52448 0.0
C2815 C 0.26422 0.12699 0.56311 0.0
C2816 C 0.25609 0.10068 0.50912 0.0
C2817 C 0.29627 0.14006 0.62592 0.0
C2818 C 0.28482 0.1309 0.61264 0.0
C2819 C 0.28132 0.10661 0.5744 0.0
C2820 C 0.25567 0.10888 0.53709 0.0
C2821 C 0.26409 0.11263 0.55345 0.0
C2822 C 0.29255 0.12725 0.599 0.0
C2823 C 0.28164 0.12115 0.58387 0.0
H2824 H 0.21939 0.10858 0.51635 0.0
H2825 H 0.23258 0.11386 0.54329 0.0
H2826 H 0.27234 0.09085 0.55245 0.0
H2827 H 0.33804 0.14558 0.61208 0.0
H2828 H 0.31795 0.12927 0.58887 0.0
C2829 C 0.83822 0.12541 0.48898 0.0
C2830 C 0.83991 0.10891 0.48841 0.0
C2831 C 0.83301 0.13074 0.50314 0.0
C2832 C 0.81222 0.11325 0.5432 0.0
H2833 H 0.8438 0.16653 0.55532 0.0
C2834 C 0.82184 0.14126 0.60822 0.0
C2835 C 0.82576 0.16013 0.61067 0.0
C2836 C 0.81939 0.13381 0.59273 0.0
C2837 C 0.83454 0.15168 0.55203 0.0
H2838 H 0.8373 0.08499 0.50223 0.0
H2839 H 0.82828 0.09431 0.52688 0.0
H2840 H 0.84742 0.15593 0.52911 0.0
H2841 H 0.82836 0.18533 0.59907 0.0
H2842 H 0.82346 0.17215 0.57217 0.0
H2843 H 0.79967 0.10898 0.56638 0.0
C2844 C 0.83064 0.10295 0.51633 0.0
C2845 C 0.83665 0.1456 0.53697 0.0
C2846 C 0.83585 0.09763 0.50219 0.0
C2847 C 0.82567 0.17084 0.59751 0.0
C2848 C 0.82297 0.16333 0.58209 0.0
C2849 C 0.81006 0.11936 0.5583 0.0
C2850 C 0.82941 0.11969 0.51702 0.0
C2851 C 0.82573 0.12629 0.53246 0.0
C2852 C 0.8206 0.14504 0.57945 0.0
C2853 C 0.82139 0.13861 0.56297 0.0
H2854 H 0.84096 0.13422 0.47849 0.0
H2855 H 0.83195 0.1436 0.50325 0.0
H2856 H 0.80345 0.0983 0.53997 0.0
H2857 H 0.8219 0.13272 0.61816 0.0
H2858 H 0.81768 0.1197 0.59113 0.0
C2859 C 0.84212 0.74444 0.50739 0.0
C2860 C 0.84149 0.73281 0.49464 0.0
C2861 C 0.83632 0.73669 0.52265 0.0
C2862 C 0.82842 0.69441 0.54629 0.0
H2863 H 0.80629 0.71352 0.57708 0.0
C2864 C 0.80491 0.65831 0.60624 0.0
C2865 C 0.81447 0.67062 0.61913 0.0
C2866 C 0.80402 0.66572 0.59145 0.0
C2867 C 0.8124 0.70805 0.56854 0.0
H2868 H 0.83346 0.70396 0.48742 0.0
H2869 H 0.82249 0.69016 0.51373 0.0
H2870 H 0.81309 0.72662 0.54997 0.0
H2871 H 0.82949 0.7002 0.62695 0.0
H2872 H 0.82759 0.71322 0.60109 0.0
H2873 H 0.82757 0.67577 0.56471 0.0
C2874 C 0.82818 0.7054 0.5123 0.0
C2875 C 0.81643 0.71561 0.55306 0.0
C2876 C 0.83434 0.71323 0.49718 0.0
C2877 C 0.82163 0.69038 0.61735 0.0
C2878 C 0.82068 0.69783 0.6025 0.0
C2879 C 0.82411 0.68669 0.56157 0.0
C2880 C 0.82948 0.71708 0.52535 0.0
C2881 C 0.82456 0.70889 0.54174 0.0
C2882 C 0.81271 0.68559 0.58925 0.0
C2883 C 0.81608 0.69341 0.57286 0.0
H2884 H 0.84762 0.75962 0.50565 0.0
H2885 H 0.83775 0.74619 0.53239 0.0
H2886 H 0.83521 0.68925 0.53817 0.0
H2887 H 0.7992 0.64301 0.60731 0.0
H2888 H 0.79757 0.65598 0.58145 0.0
loop_
_geom_bond_atom_site_label_1
_geom_bond_atom_site_label_2
_geom_bond_distance
_geom_bond_site_symmetry_2
_ccdc_geom_bond_type
C0 C1 1.391 . S
C0 C4 1.391 . S
C0 H42 0.948 . S
C1 C0 1.391 . S
C1 C2 1.391 . S
C2 C1 1.391 . S
C2 H58 0.947 . S
C2 C59 1.392 . S
C3 C4 1.391 . S
C3 C7 1.397 . S
C3 C59 1.419 . S
C4 C0 1.391 . S
C4 C3 1.391 . S
C4 C5 1.399 . S
C5 C4 1.399 . S
C5 C8 1.396 . S
C5 C17 1.453 . S
C5 C18 1.684 . S
H6 C30 0.948 . S
C7 C3 1.397 . S
C7 C8 1.394 . S
C7 C26 1.723 . S
C8 C5 1.396 . S
C8 C7 1.394 . S
C8 C38 1.723 . S
H9 C32 0.947 . S
H10 C33 0.948 . S
H11 C39 0.982 . S
H12 C40 0.979 . S
H13 C40 0.980 . S
H14 C40 0.983 . S
H15 C39 0.979 . S
H16 C39 0.977 . S
C17 C5 1.453 . S
C17 H46 0.982 . S
C17 H47 0.979 . S
C17 H48 0.977 . S
C18 C5 1.684 . S
C18 H43 0.979 . S
C18 H44 0.980 . S
C18 H45 0.983 . S
C19 C20 1.391 . S
C19 C24 1.391 . S
C19 H49 0.948 . S
C20 C19 1.391 . S
C20 C21 1.391 . S
C21 C20 1.391 . S
C21 C22 1.392 . S
C21 H50 0.947 . S
C22 C21 1.392 . S
C22 C23 1.419 . S
C22 H51 0.948 . S
C23 C22 1.419 . S
C23 C24 1.391 . S
C23 C27 1.397 . S
C24 C19 1.391 . S
C24 C23 1.391 . S
C24 C25 1.399 . S
C25 C24 1.399 . S
C25 C26 1.396 . S
C25 C28 1.453 . S
C25 C29 1.684 . S
C26 C7 1.723 . S
C26 C25 1.396 . S
C26 C27 1.394 . S
C27 C23 1.397 . S
C27 C26 1.394 . S
C27 C37 1.723 . S
C28 C25 1.453 . S
C28 H52 0.982 . S
C28 H53 0.979 . S
C28 H54 0.977 . S
C29 C25 1.684 . S
C29 H55 0.979 . S
C29 H56 0.980 . S
C29 H57 0.983 . S
C30 H6 0.948 . S
C30 C31 1.391 . S
C30 C35 1.391 . S
C31 C30 1.391 . S
C31 C32 1.391 . S
C32 H9 0.947 . S
C32 C31 1.391 . S
C32 C33 1.392 . S
C33 H10 0.948 . S
C33 C32 1.392 . S
C33 C34 1.419 . S
C34 C33 1.419 . S
C34 C35 1.391 . S
C34 C38 1.397 . S
C35 C30 1.391 . S
C35 C34 1.391 . S
C35 C36 1.399 . S
C36 C35 1.399 . S
C36 C37 1.396 . S
C36 C39 1.453 . S
C36 C40 1.684 . S
C37 C27 1.723 . S
C37 C36 1.396 . S
C37 C38 1.394 . S
C38 C8 1.723 . S
C38 C34 1.397 . S
C38 C37 1.394 . S
C39 H11 0.982 . S
C39 H15 0.979 . S
C39 H16 0.977 . S
C39 C36 1.453 . S
C40 H12 0.979 . S
C40 H13 0.980 . S
C40 H14 0.983 . S
C40 C36 1.684 . S
H41 C59 0.948 . S
H42 C0 0.948 . S
H43 C18 0.979 . S
H44 C18 0.980 . S
H45 C18 0.983 . S
H46 C17 0.982 . S
H47 C17 0.979 . S
H48 C17 0.977 . S
H49 C19 0.948 . S
H50 C21 0.947 . S
H51 C22 0.948 . S
H52 C28 0.982 . S
H53 C28 0.979 . S
H54 C28 0.977 . S
H55 C29 0.979 . S
H56 C29 0.980 . S
H57 C29 0.983 . S
H58 C2 0.947 . S
C59 C2 1.392 . S
C59 C3 1.419 . S
C59 H41 0.948 . S
C60 C61 1.391 . S
C60 C64 1.391 . S
C60 H102 0.948 . S
C61 C60 1.391 . S
C61 C62 1.391 . S
C62 C61 1.391 . S
C62 H118 0.947 . S
C62 C119 1.392 . S
C63 C64 1.391 . S
C63 C67 1.397 . S
C63 C119 1.419 . S
C64 C60 1.391 . S
C64 C63 1.391 . S
C64 C65 1.399 . S
C65 C64 1.399 . S
C65 C68 1.396 . S
C65 C77 1.453 . S
C65 C78 1.684 . S
H66 C90 0.948 . S
C67 C63 1.397 . S
C67 C68 1.394 . S
C67 C86 1.723 . S
C68 C65 1.396 . S
C68 C67 1.394 . S
C68 C98 1.723 . S
H69 C92 0.947 . S
H70 C93 0.948 . S
H71 C99 0.982 . S
H72 C100 0.979 . S
H73 C100 0.980 . S
H74 C100 0.983 . S
H75 C99 0.979 . S
H76 C99 0.977 . S
C77 C65 1.453 . S
C77 H106 0.982 . S
C77 H107 0.979 . S
C77 H108 0.977 . S
C78 C65 1.684 . S
C78 H103 0.979 . S
C78 H104 0.980 . S
C78 H105 0.983 . S
C79 C80 1.391 . S
C79 C84 1.391 . S
C79 H109 0.948 . S
C80 C79 1.391 . S
C80 C81 1.391 . S
C81 C80 1.391 . S
C81 C82 1.392 . S
C81 H110 0.947 . S
C82 C81 1.392 . S
C82 C83 1.419 . S
C82 H111 0.948 . S
C83 C82 1.419 . S
C83 C84 1.391 . S
C83 C87 1.397 . S
C84 C79 1.391 . S
C84 C83 1.391 . S
C84 C85 1.399 . S
C85 C84 1.399 . S
C85 C86 1.396 . S
C85 C88 1.453 . S
C85 C89 1.684 . S
C86 C67 1.723 . S
C86 C85 1.396 . S
C86 C87 1.394 . S
C87 C83 1.397 . S
C87 C86 1.394 . S
C87 C97 1.723 . S
C88 C85 1.453 . S
C88 H112 0.982 . S
C88 H113 0.979 . S
C88 H114 0.977 . S
C89 C85 1.684 . S
C89 H115 0.979 . S
C89 H116 0.980 . S
C89 H117 0.983 . S
C90 H66 0.948 . S
C90 C91 1.391 . S
C90 C95 1.391 . S
C91 C90 1.391 . S
C91 C92 1.391 . S
C92 H69 0.947 . S
C92 C91 1.391 . S
C92 C93 1.392 . S
C93 H70 0.948 . S
C93 C92 1.392 . S
C93 C94 1.419 . S
C94 C93 1.419 . S
C94 C95 1.391 . S
C94 C98 1.397 . S
C95 C90 1.391 . S
C95 C94 1.391 . S
C95 C96 1.399 . S
C96 C95 1.399 . S
C96 C97 1.396 . S
C96 C99 1.453 . S
C96 C100 1.684 . S
C97 C87 1.723 . S
C97 C96 1.396 . S
C97 C98 1.394 . S
C98 C68 1.723 . S
C98 C94 1.397 . S
C98 C97 1.394 . S
C99 H71 0.982 . S
C99 H75 0.979 . S
C99 H76 0.977 . S
C99 C96 1.453 . S
C100 H72 0.979 . S
C100 H73 0.980 . S
C100 H74 0.983 . S
C100 C96 1.684 . S
H101 C119 0.948 . S
H102 C60 0.948 . S
H103 C78 0.979 . S
H104 C78 0.980 . S
H105 C78 0.983 . S
H106 C77 0.982 . S
H107 C77 0.979 . S
H108 C77 0.977 . S
H109 C79 0.948 . S
H110 C81 0.947 . S
H111 C82 0.948 . S
H112 C88 0.982 . S
H113 C88 0.979 . S
H114 C88 0.977 . S
H115 C89 0.979 . S
H116 C89 0.980 . S
H117 C89 0.983 . S
H118 C62 0.947 . S
C119 C62 1.392 . S
C119 C63 1.419 . S
C119 H101 0.948 . S
C120 C121 1.391 . S
C120 C124 1.391 . S
C120 H162 0.948 . S
C121 C120 1.391 . S
C121 C122 1.391 . S
C122 C121 1.391 . S
C122 H178 0.947 . S
C122 C179 1.392 . S
C123 C124 1.391 . S
C123 C127 1.397 . S
C123 C179 1.419 . S
C124 C120 1.391 . S
C124 C123 1.391 . S
C124 C125 1.399 . S
C125 C124 1.399 . S
C125 C128 1.396 . S
C125 C137 1.453 . S
C125 C138 1.684 . S
H126 C150 0.948 . S
C127 C123 1.397 . S
C127 C128 1.394 . S
C127 C146 1.723 . S
C128 C125 1.396 . S
C128 C127 1.394 . S
C128 C158 1.723 . S
H129 C152 0.947 . S
H130 C153 0.948 . S
H131 C159 0.982 . S
H132 C160 0.979 . S
H133 C160 0.980 . S
H134 C160 0.983 . S
H135 C159 0.979 . S
H136 C159 0.977 . S
C137 C125 1.453 . S
C137 H166 0.982 . S
C137 H167 0.979 . S
C137 H168 0.977 . S
C138 C125 1.684 . S
C138 H163 0.979 . S
C138 H164 0.980 . S
C138 H165 0.983 . S
C139 C140 1.391 . S
C139 C144 1.391 . S
C139 H169 0.948 . S
C140 C139 1.391 . S
C140 C141 1.391 . S
C141 C140 1.391 . S
C141 C142 1.392 . S
C141 H170 0.947 . S
C142 C141 1.392 . S
C142 C143 1.419 . S
C142 H171 0.948 . S
C143 C142 1.419 . S
C143 C144 1.391 . S
C143 C147 1.397 . S
C144 C139 1.391 . S
C144 C143 1.391 . S
C144 C145 1.399 . S
C145 C144 1.399 . S
C145 C146 1.396 . S
C145 C148 1.453 . S
C145 C149 1.684 . S
C146 C127 1.723 . S
C146 C145 1.396 . S
C146 C147 1.394 . S
C147 C143 1.397 . S
C147 C146 1.394 . S
C147 C157 1.723 . S
C148 C145 1.453 . S
C148 H172 0.982 . S
C148 H173 0.979 . S
C148 H174 0.977 . S
C149 C145 1.684 . S
C149 H175 0.979 . S
C149 H176 0.980 . S
C149 H177 0.983 . S
C150 H126 0.948 . S
C150 C151 1.391 . S
C150 C155 1.391 . S
C151 C150 1.391 . S
C151 C152 1.391 . S
C152 H129 0.947 . S
C152 C151 1.391 . S
C152 C153 1.392 . S
C153 H130 0.948 . S
C153 C152 1.392 . S
C153 C154 1.419 . S
C154 C153 1.419 . S
C154 C155 1.391 . S
C154 C158 1.397 . S
C155 C150 1.391 . S
C155 C154 1.391 . S
C155 C156 1.399 . S
C156 C155 1.399 . S
C156 C157 1.396 . S
C156 C159 1.453 . S
C156 C160 1.684 . S
C157 C147 1.723 . S
C157 C156 1.396 . S
C157 C158 1.394 . S
C158 C128 1.723 . S
C158 C154 1.397 . S
C158 C157 1.394 . S
C159 H131 0.982 . S
C159 H135 0.979 . S
C159 H136 0.977 . S
C159 C156 1.453 . S
C160 H132 0.979 . S
C160 H133 0.980 . S
C160 H134 0.983 . S
C160 C156 1.684 . S
H161 C179 0.948 . S
H162 C120 0.948 . S
H163 C138 0.979 . S
H164 C138 0.980 . S
H165 C138 0.983 . S
H166 C137 0.982 . S
H167 C137 0.979 . S
H168 C137 0.977 . S
H169 C139 0.948 . S
H170 C141 0.947 . S
H171 C142 0.948 . S
H172 C148 0.982 . S
H173 C148 0.979 . S
H174 C148 0.977 . S
H175 C149 0.979 . S
H176 C149 0.980 . S
H177 C149 0.983 . S
H178 C122 0.947 . S
C179 C122 1.392 . S
C179 C123 1.419 . S
C179 H161 0.948 . S
C180 C181 1.391 . S
C180 C184 1.391 . S
C180 H222 0.948 . S
C181 C180 1.391 . S
C181 C182 1.391 . S
C182 C181 1.391 . S
C182 H238 0.947 . S
C182 C239 1.392 . S
C183 C184 1.391 . S
C183 C187 1.397 . S
C183 C239 1.419 . S
C184 C180 1.391 . S
C184 C183 1.391 . S
C184 C185 1.399 . S
C185 C184 1.399 . S
C185 C188 1.396 . S
C185 C197 1.453 . S
C185 C198 1.684 . S
H186 C210 0.948 . S
C187 C183 1.397 . S
C187 C188 1.394 . S
C187 C206 1.723 . S
C188 C185 1.396 . S
C188 C187 1.394 . S
C188 C218 1.723 . S
H189 C212 0.947 . S
H190 C213 0.948 . S
H191 C219 0.982 . S
H192 C220 0.979 . S
H193 C220 0.980 . S
H194 C220 0.983 . S
H195 C219 0.979 . S
H196 C219 0.977 . S
C197 C185 1.453 . S
C197 H226 0.982 . S
C197 H227 0.979 . S
C197 H228 0.977 . S
C198 C185 1.684 . S
C198 H223 0.979 . S
C198 H224 0.980 . S
C198 H225 0.983 . S
C199 C200 1.391 . S
C199 C204 1.391 . S
C199 H229 0.948 . S
C200 C199 1.391 . S
C200 C201 1.391 . S
C201 C200 1.391 . S
C201 C202 1.392 . S
C201 H230 0.947 . S
C202 C201 1.392 . S
C202 C203 1.419 . S
C202 H231 0.948 . S
C203 C202 1.419 . S
C203 C204 1.391 . S
C203 C207 1.397 . S
C204 C199 1.391 . S
C204 C203 1.391 . S
C204 C205 1.399 . S
C205 C204 1.399 . S
C205 C206 1.396 . S
C205 C208 1.453 . S
C205 C209 1.684 . S
C206 C187 1.723 . S
C206 C205 1.396 . S
C206 C207 1.394 . S
C207 C203 1.397 . S
C207 C206 1.394 . S
C207 C217 1.723 . S
C208 C205 1.453 . S
C208 H232 0.982 . S
C208 H233 0.979 . S
C208 H234 0.977 . S
C209 C205 1.684 . S
C209 H235 0.979 . S
C209 H236 0.980 . S
C209 H237 0.983 . S
C210 H186 0.948 . S
C210 C211 1.391 . S
C210 C215 1.391 . S
C211 C210 1.391 . S
C211 C212 1.391 . S
C212 H189 0.947 . S
C212 C211 1.391 . S
C212 C213 1.392 . S
C213 H190 0.948 . S
C213 C212 1.392 . S
C213 C214 1.419 . S
C214 C213 1.419 . S
C214 C215 1.391 . S
C214 C218 1.397 . S
C215 C210 1.391 . S
C215 C214 1.391 . S
C215 C216 1.399 . S
C216 C215 1.399 . S
C216 C217 1.396 . S
C216 C219 1.453 . S
C216 C220 1.684 . S
C217 C207 1.723 . S
C217 C216 1.396 . S
C217 C218 1.394 . S
C218 C188 1.723 . S
C218 C214 1.397 . S
C218 C217 1.394 . S
C219 H191 0.982 . S
C219 H195 0.979 . S
C219 H196 0.977 . S
C219 C216 1.453 . S
C220 H192 0.979 . S
C220 H193 0.980 . S
C220 H194 0.983 . S
C220 C216 1.684 . S
H221 C239 0.948 . S
H222 C180 0.948 . S
H223 C198 0.979 . S
H224 C198 0.980 . S
H225 C198 0.983 . S
H226 C197 0.982 . S
H227 C197 0.979 . S
H228 C197 0.977 . S
H229 C199 0.948 . S
H230 C201 0.947 . S
H231 C202 0.948 . S
H232 C208 0.982 . S
H233 C208 0.979 . S
H234 C208 0.977 . S
H235 C209 0.979 . S
H236 C209 0.980 . S
H237 C209 0.983 . S
H238 C182 0.947 . S
C239 C182 1.392 . S
C239 C183 1.419 . S
C239 H221 0.948 . S
C240 C241 1.391 . S
C240 C244 1.391 . S
C240 H282 0.948 . S
C241 C240 1.391 . S
C241 C242 1.391 . S
C242 C241 1.391 . S
C242 H298 0.947 . S
C242 C299 1.392 . S
C243 C244 1.391 . S
C243 C247 1.397 . S
C243 C299 1.419 . S
C244 C240 1.391 . S
C244 C243 1.391 . S
C244 C245 1.399 . S
C245 C244 1.399 . S
C245 C248 1.396 . S
C245 C257 1.453 . S
C245 C258 1.684 . S
H246 C270 0.948 . S
C247 C243 1.397 . S
C247 C248 1.394 . S
C247 C266 1.723 . S
C248 C245 1.396 . S
C248 C247 1.394 . S
C248 C278 1.723 . S
H249 C272 0.947 . S
H250 C273 0.948 . S
H251 C279 0.982 . S
H252 C280 0.979 . S
H253 C280 0.980 . S
H254 C280 0.983 . S
H255 C279 0.979 . S
H256 C279 0.977 . S
C257 C245 1.453 . S
C257 H286 0.982 . S
C257 H287 0.979 . S
C257 H288 0.977 . S
C258 C245 1.684 . S
C258 H283 0.979 . S
C258 H284 0.980 . S
C258 H285 0.983 . S
C259 C260 1.391 . S
C259 C264 1.391 . S
C259 H289 0.948 . S
C260 C259 1.391 . S
C260 C261 1.391 . S
C261 C260 1.391 . S
C261 C262 1.392 . S
C261 H290 0.947 . S
C262 C261 1.392 . S
C262 C263 1.419 . S
C262 H291 0.948 . S
C263 C262 1.419 . S
C263 C264 1.391 . S
C263 C267 1.397 . S
C264 C259 1.391 . S
C264 C263 1.391 . S
C264 C265 1.399 . S
C265 C264 1.399 . S
C265 C266 1.396 . S
C265 C268 1.453 . S
C265 C269 1.684 . S
C266 C247 1.723 . S
C266 C265 1.396 . S
C266 C267 1.394 . S
C267 C263 1.397 . S
C267 C266 1.394 . S
C267 C277 1.723 . S
C268 C265 1.453 . S
C268 H292 0.982 . S
C268 H293 0.979 . S
C268 H294 0.977 . S
C269 C265 1.684 . S
C269 H295 0.979 . S
C269 H296 0.980 . S
C269 H297 0.983 . S
C270 H246 0.948 . S
C270 C271 1.391 . S
C270 C275 1.391 . S
C271 C270 1.391 . S
C271 C272 1.391 . S
C272 H249 0.947 . S
C272 C271 1.391 . S
C272 C273 1.392 . S
C273 H250 0.948 . S
C273 C272 1.392 . S
C273 C274 1.419 . S
C274 C273 1.419 . S
C274 C275 1.391 . S
C274 C278 1.397 . S
C275 C270 1.391 . S
C275 C274 1.391 . S
C275 C276 1.399 . S
C276 C275 1.399 . S
C276 C277 1.396 . S
C276 C279 1.453 . S
C276 C280 1.684 . S
C277 C267 1.723 . S
C277 C276 1.396 . S
C277 C278 1.394 . S
C278 C248 1.723 . S
C278 C274 1.397 . S
C278 C277 1.394 . S
C279 H251 0.982 . S
C279 H255 0.979 . S
C279 H256 0.977 . S
C279 C276 1.453 . S
C280 H252 0.979 . S
C280 H253 0.980 . S
C280 H254 0.983 . S
C280 C276 1.684 . S
H281 C299 0.948 . S
H282 C240 0.948 . S
H283 C258 0.979 . S
H284 C258 0.980 . S
H285 C258 0.983 . S
H286 C257 0.982 . S
H287 C257 0.979 . S
H288 C257 0.977 . S
H289 C259 0.948 . S
H290 C261 0.947 . S
H291 C262 0.948 . S
H292 C268 0.982 . S
H293 C268 0.979 . S
H294 C268 0.977 . S
H295 C269 0.979 . S
H296 C269 0.980 . S
H297 C269 0.983 . S
H298 C242 0.947 . S
C299 C242 1.392 . S
C299 C243 1.419 . S
C299 H281 0.948 . S
C300 C301 1.391 . S
C300 C304 1.391 . S
C300 H342 0.948 . S
C301 C300 1.391 . S
C301 C302 1.391 . S
C302 C301 1.391 . S
C302 H358 0.947 . S
C302 C359 1.392 . S
C303 C304 1.391 . S
C303 C307 1.397 . S
C303 C359 1.419 . S
C304 C300 1.391 . S
C304 C303 1.391 . S
C304 C305 1.399 . S
C305 C304 1.399 . S
C305 C308 1.396 . S
C305 C317 1.453 . S
C305 C318 1.684 . S
H306 C330 0.948 . S
C307 C303 1.397 . S
C307 C308 1.394 . S
C307 C326 1.723 . S
C308 C305 1.396 . S
C308 C307 1.394 . S
C308 C338 1.723 . S
H309 C332 0.947 . S
H310 C333 0.948 . S
H311 C339 0.982 . S
H312 C340 0.979 . S
H313 C340 0.980 . S
H314 C340 0.983 . S
H315 C339 0.979 . S
H316 C339 0.977 . S
C317 C305 1.453 . S
C317 H346 0.982 . S
C317 H347 0.979 . S
C317 H348 0.977 . S
C318 C305 1.684 . S
C318 H343 0.979 . S
C318 H344 0.980 . S
C318 H345 0.983 . S
C319 C320 1.391 . S
C319 C324 1.391 . S
C319 H349 0.948 . S
C320 C319 1.391 . S
C320 C321 1.391 . S
C321 C320 1.391 . S
C321 C322 1.392 . S
C321 H350 0.947 . S
C322 C321 1.392 . S
C322 C323 1.419 . S
C322 H351 0.948 . S
C323 C322 1.419 . S
C323 C324 1.391 . S
C323 C327 1.397 . S
C324 C319 1.391 . S
C324 C323 1.391 . S
C324 C325 1.399 . S
C325 C324 1.399 . S
C325 C326 1.396 . S
C325 C328 1.453 . S
C325 C329 1.684 . S
C326 C307 1.723 . S
C326 C325 1.396 . S
C326 C327 1.394 . S
C327 C323 1.397 . S
C327 C326 1.394 . S
C327 C337 1.723 . S
C328 C325 1.453 . S
C328 H352 0.982 . S
C328 H353 0.979 . S
C328 H354 0.977 . S
C329 C325 1.684 . S
C329 H355 0.979 . S
C329 H356 0.980 . S
C329 H357 0.983 . S
C330 H306 0.948 . S
C330 C331 1.391 . S
C330 C335 1.391 . S
C331 C330 1.391 . S
C331 C332 1.391 . S
C332 H309 0.947 . S
C332 C331 1.391 . S
C332 C333 1.392 . S
C333 H310 0.948 . S
C333 C332 1.392 . S
C333 C334 1.419 . S
C334 C333 1.419 . S
C334 C335 1.391 . S
C334 C338 1.397 . S
C335 C330 1.391 . S
C335 C334 1.391 . S
C335 C336 1.399 . S
C336 C335 1.399 . S
C336 C337 1.396 . S
C336 C339 1.453 . S
C336 C340 1.684 . S
C337 C327 1.723 . S
C337 C336 1.396 . S
C337 C338 1.394 . S
C338 C308 1.723 . S
C338 C334 1.397 . S
C338 C337 1.394 . S
C339 H311 0.982 . S
C339 H315 0.979 . S
C339 H316 0.977 . S
C339 C336 1.453 . S
C340 H312 0.979 . S
C340 H313 0.980 . S
C340 H314 0.983 . S
C340 C336 1.684 . S
H341 C359 0.948 . S
H342 C300 0.948 . S
H343 C318 0.979 . S
H344 C318 0.980 . S
H345 C318 0.983 . S
H346 C317 0.982 . S
H347 C317 0.979 . S
H348 C317 0.977 . S
H349 C319 0.948 . S
H350 C321 0.947 . S
H351 C322 0.948 . S
H352 C328 0.982 . S
H353 C328 0.979 . S
H354 C328 0.977 . S
H355 C329 0.979 . S
H356 C329 0.980 . S
H357 C329 0.983 . S
H358 C302 0.947 . S
C359 C302 1.392 . S
C359 C303 1.419 . S
C359 H341 0.948 . S
C360 C361 1.391 . S
C360 C364 1.391 . S
C360 H402 0.948 . S
C361 C360 1.391 . S
C361 C362 1.391 . S
C362 C361 1.391 . S
C362 H418 0.947 . S
C362 C419 1.392 . S
C363 C364 1.391 . S
C363 C367 1.397 . S
C363 C419 1.419 . S
C364 C360 1.391 . S
C364 C363 1.391 . S
C364 C365 1.399 . S
C365 C364 1.399 . S
C365 C368 1.396 . S
C365 C377 1.453 . S
C365 C378 1.684 . S
H366 C390 0.948 . S
C367 C363 1.397 . S
C367 C368 1.394 . S
C367 C386 1.723 . S
C368 C365 1.396 . S
C368 C367 1.394 . S
C368 C398 1.723 . S
H369 C392 0.947 . S
H370 C393 0.948 . S
H371 C399 0.982 . S
H372 C400 0.979 . S
H373 C400 0.980 . S
H374 C400 0.983 . S
H375 C399 0.979 . S
H376 C399 0.977 . S
C377 C365 1.453 . S
C377 H406 0.982 . S
C377 H407 0.979 . S
C377 H408 0.977 . S
C378 C365 1.684 . S
C378 H403 0.979 . S
C378 H404 0.980 . S
C378 H405 0.983 . S
C379 C380 1.391 . S
C379 C384 1.391 . S
C379 H409 0.948 . S
C380 C379 1.391 . S
C380 C381 1.391 . S
C381 C380 1.391 . S
C381 C382 1.392 . S
C381 H410 0.947 . S
C382 C381 1.392 . S
C382 C383 1.419 . S
C382 H411 0.948 . S
C383 C382 1.419 . S
C383 C384 1.391 . S
C383 C387 1.397 . S
C384 C379 1.391 . S
C384 C383 1.391 . S
C384 C385 1.399 . S
C385 C384 1.399 . S
C385 C386 1.396 . S
C385 C388 1.453 . S
C385 C389 1.684 . S
C386 C367 1.723 . S
C386 C385 1.396 . S
C386 C387 1.394 . S
C387 C383 1.397 . S
C387 C386 1.394 . S
C387 C397 1.723 . S
C388 C385 1.453 . S
C388 H412 0.982 . S
C388 H413 0.979 . S
C388 H414 0.977 . S
C389 C385 1.684 . S
C389 H415 0.979 . S
C389 H416 0.980 . S
C389 H417 0.983 . S
C390 H366 0.948 . S
C390 C391 1.391 . S
C390 C395 1.391 . S
C391 C390 1.391 . S
C391 C392 1.391 . S
C392 H369 0.947 . S
C392 C391 1.391 . S
C392 C393 1.392 . S
C393 H370 0.948 . S
C393 C392 1.392 . S
C393 C394 1.419 . S
C394 C393 1.419 . S
C394 C395 1.391 . S
C394 C398 1.397 . S
C395 C390 1.391 . S
C395 C394 1.391 . S
C395 C396 1.399 . S
C396 C395 1.399 . S
C396 C397 1.396 . S
C396 C399 1.453 . S
C396 C400 1.684 . S
C397 C387 1.723 . S
C397 C396 1.396 . S
C397 C398 1.394 . S
C398 C368 1.723 . S
C398 C394 1.397 . S
C398 C397 1.394 . S
C399 H371 0.982 . S
C399 H375 0.979 . S
C399 H376 0.977 . S
C399 C396 1.453 . S
C400 H372 0.979 . S
C400 H373 0.980 . S
C400 H374 0.983 . S
C400 C396 1.684 . S
H401 C419 0.948 . S
H402 C360 0.948 . S
H403 C378 0.979 . S
H404 C378 0.980 . S
H405 C378 0.983 . S
H406 C377 0.982 . S
H407 C377 0.979 . S
H408 C377 0.977 . S
H409 C379 0.948 . S
H410 C381 0.947 . S
H411 C382 0.948 . S
H412 C388 0.982 . S
H413 C388 0.979 . S
H414 C388 0.977 . S
H415 C389 0.979 . S
H416 C389 0.980 . S
H417 C389 0.983 . S
H418 C362 0.947 . S
C419 C362 1.392 . S
C419 C363 1.419 . S
C419 H401 0.948 . S
C420 C421 1.391 . S
C420 C424 1.391 . S
C420 H462 0.948 . S
C421 C420 1.391 . S
C421 C422 1.391 . S
C422 C421 1.391 . S
C422 H478 0.947 . S
C422 C479 1.392 . S
C423 C424 1.391 . S
C423 C427 1.397 . S
C423 C479 1.419 . S
C424 C420 1.391 . S
C424 C423 1.391 . S
C424 C425 1.399 . S
C425 C424 1.399 . S
C425 C428 1.396 . S
C425 C437 1.453 . S
C425 C438 1.684 . S
H426 C450 0.948 . S
C427 C423 1.397 . S
C427 C428 1.394 . S
C427 C446 1.723 . S
C428 C425 1.396 . S
C428 C427 1.394 . S
C428 C458 1.723 . S
H429 C452 0.947 . S
H430 C453 0.948 . S
H431 C459 0.982 . S
H432 C460 0.979 . S
H433 C460 0.980 . S
H434 C460 0.983 . S
H435 C459 0.979 . S
H436 C459 0.977 . S
C437 C425 1.453 . S
C437 H466 0.982 . S
C437 H467 0.979 . S
C437 H468 0.977 . S
C438 C425 1.684 . S
C438 H463 0.979 . S
C438 H464 0.980 . S
C438 H465 0.983 . S
C439 C440 1.391 . S
C439 C444 1.391 . S
C439 H469 0.948 . S
C440 C439 1.391 . S
C440 C441 1.391 . S
C441 C440 1.391 . S
C441 C442 1.392 . S
C441 H470 0.947 . S
C442 C441 1.392 . S
C442 C443 1.419 . S
C442 H471 0.948 . S
C443 C442 1.419 . S
C443 C444 1.391 . S
C443 C447 1.397 . S
C444 C439 1.391 . S
C444 C443 1.391 . S
C444 C445 1.399 . S
C445 C444 1.399 . S
C445 C446 1.396 . S
C445 C448 1.453 . S
C445 C449 1.684 . S
C446 C427 1.723 . S
C446 C445 1.396 . S
C446 C447 1.394 . S
C447 C443 1.397 . S
C447 C446 1.394 . S
C447 C457 1.723 . S
C448 C445 1.453 . S
C448 H472 0.982 . S
C448 H473 0.979 . S
C448 H474 0.977 . S
C449 C445 1.684 . S
C449 H475 0.979 . S
C449 H476 0.980 . S
C449 H477 0.983 . S
C450 H426 0.948 . S
C450 C451 1.391 . S
C450 C455 1.391 . S
C451 C450 1.391 . S
C451 C452 1.391 . S
C452 H429 0.947 . S
C452 C451 1.391 . S
C452 C453 1.392 . S
C453 H430 0.948 . S
C453 C452 1.392 . S
C453 C454 1.419 . S
C454 C453 1.419 . S
C454 C455 1.391 . S
C454 C458 1.397 . S
C455 C450 1.391 . S
C455 C454 1.391 . S
C455 C456 1.399 . S
C456 C455 1.399 . S
C456 C457 1.396 . S
C456 C459 1.453 . S
C456 C460 1.684 . S
C457 C447 1.723 . S
C457 C456 1.396 . S
C457 C458 1.394 . S
C458 C428 1.723 . S
C458 C454 1.397 . S
C458 C457 1.394 . S
C459 H431 0.982 . S
C459 H435 0.979 . S
C459 H436 0.977 . S
C459 C456 1.453 . S
C460 H432 0.979 . S
C460 H433 0.980 . S
C460 H434 0.983 . S
C460 C456 1.684 . S
H461 C479 0.948 . S
H462 C420 0.948 . S
H463 C438 0.979 . S
H464 C438 0.980 . S
H465 C438 0.983 . S
H466 C437 0.982 . S
H467 C437 0.979 . S
H468 C437 0.977 . S
H469 C439 0.948 . S
H470 C441 0.947 . S
H471 C442 0.948 . S
H472 C448 0.982 . S
H473 C448 0.979 . S
H474 C448 0.977 . S
H475 C449 0.979 . S
H476 C449 0.980 . S
H477 C449 0.983 . S
H478 C422 0.947 . S
C479 C422 1.392 . S
C479 C423 1.419 . S
C479 H461 0.948 . S
C480 C481 1.391 . S
C480 C484 1.391 . S
C480 H522 0.948 . S
C481 C480 1.391 . S
C481 C482 1.391 . S
C482 C481 1.391 . S
C482 H538 0.947 . S
C482 C539 1.392 . S
C483 C484 1.391 . S
C483 C487 1.397 . S
C483 C539 1.419 . S
C484 C480 1.391 . S
C484 C483 1.391 . S
C484 C485 1.399 . S
C485 C484 1.399 . S
C485 C488 1.396 . S
C485 C497 1.453 . S
C485 C498 1.684 . S
H486 C510 0.948 . S
C487 C483 1.397 . S
C487 C488 1.394 . S
C487 C506 1.723 . S
C488 C485 1.396 . S
C488 C487 1.394 . S
C488 C518 1.723 . S
H489 C512 0.947 . S
H490 C513 0.948 . S
H491 C519 0.982 . S
H492 C520 0.979 . S
H493 C520 0.980 . S
H494 C520 0.983 . S
H495 C519 0.979 . S
H496 C519 0.977 . S
C497 C485 1.453 . S
C497 H526 0.982 . S
C497 H527 0.979 . S
C497 H528 0.977 . S
C498 C485 1.684 . S
C498 H523 0.979 . S
C498 H524 0.980 . S
C498 H525 0.983 . S
C499 C500 1.391 . S
C499 C504 1.391 . S
C499 H529 0.948 . S
C500 C499 1.391 . S
C500 C501 1.391 . S
C501 C500 1.391 . S
C501 C502 1.392 . S
C501 H530 0.947 . S
C502 C501 1.392 . S
C502 C503 1.419 . S
C502 H531 0.948 . S
C503 C502 1.419 . S
C503 C504 1.391 . S
C503 C507 1.397 . S
C504 C499 1.391 . S
C504 C503 1.391 . S
C504 C505 1.399 . S
C505 C504 1.399 . S
C505 C506 1.396 . S
C505 C508 1.453 . S
C505 C509 1.684 . S
C506 C487 1.723 . S
C506 C505 1.396 . S
C506 C507 1.394 . S
C507 C503 1.397 . S
C507 C506 1.394 . S
C507 C517 1.723 . S
C508 C505 1.453 . S
C508 H532 0.982 . S
C508 H533 0.979 . S
C508 H534 0.977 . S
C509 C505 1.684 . S
C509 H535 0.979 . S
C509 H536 0.980 . S
C509 H537 0.983 . S
C510 H486 0.948 . S
C510 C511 1.391 . S
C510 C515 1.391 . S
C511 C510 1.391 . S
C511 C512 1.391 . S
C512 H489 0.947 . S
C512 C511 1.391 . S
C512 C513 1.392 . S
C513 H490 0.948 . S
C513 C512 1.392 . S
C513 C514 1.419 . S
C514 C513 1.419 . S
C514 C515 1.391 . S
C514 C518 1.397 . S
C515 C510 1.391 . S
C515 C514 1.391 . S
C515 C516 1.399 . S
C516 C515 1.399 . S
C516 C517 1.396 . S
C516 C519 1.453 . S
C516 C520 1.684 . S
C517 C507 1.723 . S
C517 C516 1.396 . S
C517 C518 1.394 . S
C518 C488 1.723 . S
C518 C514 1.397 . S
C518 C517 1.394 . S
C519 H491 0.982 . S
C519 H495 0.979 . S
C519 H496 0.977 . S
C519 C516 1.453 . S
C520 H492 0.979 . S
C520 H493 0.980 . S
C520 H494 0.983 . S
C520 C516 1.684 . S
H521 C539 0.948 . S
H522 C480 0.948 . S
H523 C498 0.979 . S
H524 C498 0.980 . S
H525 C498 0.983 . S
H526 C497 0.982 . S
H527 C497 0.979 . S
H528 C497 0.977 . S
H529 C499 0.948 . S
H530 C501 0.947 . S
H531 C502 0.948 . S
H532 C508 0.982 . S
H533 C508 0.979 . S
H534 C508 0.977 . S
H535 C509 0.979 . S
H536 C509 0.980 . S
H537 C509 0.983 . S
H538 C482 0.947 . S
C539 C482 1.392 . S
C539 C483 1.419 . S
C539 H521 0.948 . S
C540 C541 1.391 . S
C540 C544 1.391 . S
C540 H582 0.948 . S
C541 C540 1.391 . S
C541 C542 1.391 . S
C542 C541 1.391 . S
C542 H598 0.947 . S
C542 C599 1.392 . S
C543 C544 1.391 . S
C543 C547 1.397 . S
C543 C599 1.419 . S
C544 C540 1.391 . S
C544 C543 1.391 . S
C544 C545 1.399 . S
C545 C544 1.399 . S
C545 C548 1.396 . S
C545 C557 1.453 . S
C545 C558 1.684 . S
H546 C570 0.948 . S
C547 C543 1.397 . S
C547 C548 1.394 . S
C547 C566 1.723 . S
C548 C545 1.396 . S
C548 C547 1.394 . S
C548 C578 1.723 . S
H549 C572 0.947 . S
H550 C573 0.948 . S
H551 C579 0.982 . S
H552 C580 0.979 . S
H553 C580 0.980 . S
H554 C580 0.983 . S
H555 C579 0.979 . S
H556 C579 0.977 . S
C557 C545 1.453 . S
C557 H586 0.982 . S
C557 H587 0.979 . S
C557 H588 0.977 . S
C558 C545 1.684 . S
C558 H583 0.979 . S
C558 H584 0.980 . S
C558 H585 0.983 . S
C559 C560 1.391 . S
C559 C564 1.391 . S
C559 H589 0.948 . S
C560 C559 1.391 . S
C560 C561 1.391 . S
C561 C560 1.391 . S
C561 C562 1.392 . S
C561 H590 0.947 . S
C562 C561 1.392 . S
C562 C563 1.419 . S
C562 H591 0.948 . S
C563 C562 1.419 . S
C563 C564 1.391 . S
C563 C567 1.397 . S
C564 C559 1.391 . S
C564 C563 1.391 . S
C564 C565 1.399 . S
C565 C564 1.399 . S
C565 C566 1.396 . S
C565 C568 1.453 . S
C565 C569 1.684 . S
C566 C547 1.723 . S
C566 C565 1.396 . S
C566 C567 1.394 . S
C567 C563 1.397 . S
C567 C566 1.394 . S
C567 C577 1.723 . S
C568 C565 1.453 . S
C568 H592 0.982 . S
C568 H593 0.979 . S
C568 H594 0.977 . S
C569 C565 1.684 . S
C569 H595 0.979 . S
C569 H596 0.980 . S
C569 H597 0.983 . S
C570 H546 0.948 . S
C570 C571 1.391 . S
C570 C575 1.391 . S
C571 C570 1.391 . S
C571 C572 1.391 . S
C572 H549 0.947 . S
C572 C571 1.391 . S
C572 C573 1.392 . S
C573 H550 0.948 . S
C573 C572 1.392 . S
C573 C574 1.419 . S
C574 C573 1.419 . S
C574 C575 1.391 . S
C574 C578 1.397 . S
C575 C570 1.391 . S
C575 C574 1.391 . S
C575 C576 1.399 . S
C576 C575 1.399 . S
C576 C577 1.396 . S
C576 C579 1.453 . S
C576 C580 1.684 . S
C577 C567 1.723 . S
C577 C576 1.396 . S
C577 C578 1.394 . S
C578 C548 1.723 . S
C578 C574 1.397 . S
C578 C577 1.394 . S
C579 H551 0.982 . S
C579 H555 0.979 . S
C579 H556 0.977 . S
C579 C576 1.453 . S
C580 H552 0.979 . S
C580 H553 0.980 . S
C580 H554 0.983 . S
C580 C576 1.684 . S
H581 C599 0.948 . S
H582 C540 0.948 . S
H583 C558 0.979 . S
H584 C558 0.980 . S
H585 C558 0.983 . S
H586 C557 0.982 . S
H587 C557 0.979 . S
H588 C557 0.977 . S
H589 C559 0.948 . S
H590 C561 0.947 . S
H591 C562 0.948 . S
H592 C568 0.982 . S
H593 C568 0.979 . S
H594 C568 0.977 . S
H595 C569 0.979 . S
H596 C569 0.980 . S
H597 C569 0.983 . S
H598 C542 0.947 . S
C599 C542 1.392 . S
C599 C543 1.419 . S
C599 H581 0.948 . S
C600 C601 1.391 . S
C600 C604 1.391 . S
C600 H642 0.948 . S
C601 C600 1.391 . S
C601 C602 1.391 . S
C602 C601 1.391 . S
C602 H658 0.947 . S
C602 C659 1.392 . S
C603 C604 1.391 . S
C603 C607 1.397 . S
C603 C659 1.419 . S
C604 C600 1.391 . S
C604 C603 1.391 . S
C604 C605 1.399 . S
C605 C604 1.399 . S
C605 C608 1.396 . S
C605 C617 1.453 . S
C605 C618 1.684 . S
H606 C630 0.948 . S
C607 C603 1.397 . S
C607 C608 1.394 . S
C607 C626 1.723 . S
C608 C605 1.396 . S
C608 C607 1.394 . S
C608 C638 1.723 . S
H609 C632 0.947 . S
H610 C633 0.948 . S
H611 C639 0.982 . S
H612 C640 0.979 . S
H613 C640 0.980 . S
H614 C640 0.983 . S
H615 C639 0.979 . S
H616 C639 0.977 . S
C617 C605 1.453 . S
C617 H646 0.982 . S
C617 H647 0.979 . S
C617 H648 0.977 . S
C618 C605 1.684 . S
C618 H643 0.979 . S
C618 H644 0.980 . S
C618 H645 0.983 . S
C619 C620 1.391 . S
C619 C624 1.391 . S
C619 H649 0.948 . S
C620 C619 1.391 . S
C620 C621 1.391 . S
C621 C620 1.391 . S
C621 C622 1.392 . S
C621 H650 0.947 . S
C622 C621 1.392 . S
C622 C623 1.419 . S
C622 H651 0.948 . S
C623 C622 1.419 . S
C623 C624 1.391 . S
C623 C627 1.397 . S
C624 C619 1.391 . S
C624 C623 1.391 . S
C624 C625 1.399 . S
C625 C624 1.399 . S
C625 C626 1.396 . S
C625 C628 1.453 . S
C625 C629 1.684 . S
C626 C607 1.723 . S
C626 C625 1.396 . S
C626 C627 1.394 . S
C627 C623 1.397 . S
C627 C626 1.394 . S
C627 C637 1.723 . S
C628 C625 1.453 . S
C628 H652 0.982 . S
C628 H653 0.979 . S
C628 H654 0.977 . S
C629 C625 1.684 . S
C629 H655 0.979 . S
C629 H656 0.980 . S
C629 H657 0.983 . S
C630 H606 0.948 . S
C630 C631 1.391 . S
C630 C635 1.391 . S
C631 C630 1.391 . S
C631 C632 1.391 . S
C632 H609 0.947 . S
C632 C631 1.391 . S
C632 C633 1.392 . S
C633 H610 0.948 . S
C633 C632 1.392 . S
C633 C634 1.419 . S
C634 C633 1.419 . S
C634 C635 1.391 . S
C634 C638 1.397 . S
C635 C630 1.391 . S
C635 C634 1.391 . S
C635 C636 1.399 . S
C636 C635 1.399 . S
C636 C637 1.396 . S
C636 C639 1.453 . S
C636 C640 1.684 . S
C637 C627 1.723 . S
C637 C636 1.396 . S
C637 C638 1.394 . S
C638 C608 1.723 . S
C638 C634 1.397 . S
C638 C637 1.394 . S
C639 H611 0.982 . S
C639 H615 0.979 . S
C639 H616 0.977 . S
C639 C636 1.453 . S
C640 H612 0.979 . S
C640 H613 0.980 . S
C640 H614 0.983 . S
C640 C636 1.684 . S
H641 C659 0.948 . S
H642 C600 0.948 . S
H643 C618 0.979 . S
H644 C618 0.980 . S
H645 C618 0.983 . S
H646 C617 0.982 . S
H647 C617 0.979 . S
H648 C617 0.977 . S
H649 C619 0.948 . S
H650 C621 0.947 . S
H651 C622 0.948 . S
H652 C628 0.982 . S
H653 C628 0.979 . S
H654 C628 0.977 . S
H655 C629 0.979 . S
H656 C629 0.980 . S
H657 C629 0.983 . S
H658 C602 0.947 . S
C659 C602 1.392 . S
C659 C603 1.419 . S
C659 H641 0.948 . S
C660 C661 1.391 . S
C660 C664 1.391 . S
C660 H702 0.948 . S
C661 C660 1.391 . S
C661 C662 1.391 . S
C662 C661 1.391 . S
C662 H718 0.947 . S
C662 C719 1.392 . S
C663 C664 1.391 . S
C663 C667 1.397 . S
C663 C719 1.419 . S
C664 C660 1.391 . S
C664 C663 1.391 . S
C664 C665 1.399 . S
C665 C664 1.399 . S
C665 C668 1.396 . S
C665 C677 1.453 . S
C665 C678 1.684 . S
H666 C690 0.948 . S
C667 C663 1.397 . S
C667 C668 1.394 . S
C667 C686 1.723 . S
C668 C665 1.396 . S
C668 C667 1.394 . S
C668 C698 1.723 . S
H669 C692 0.947 . S
H670 C693 0.948 . S
H671 C699 0.982 . S
H672 C700 0.979 . S
H673 C700 0.980 . S
H674 C700 0.983 . S
H675 C699 0.979 . S
H676 C699 0.977 . S
C677 C665 1.453 . S
C677 H706 0.982 . S
C677 H707 0.979 . S
C677 H708 0.977 . S
C678 C665 1.684 . S
C678 H703 0.979 . S
C678 H704 0.980 . S
C678 H705 0.983 . S
C679 C680 1.391 . S
C679 C684 1.391 . S
C679 H709 0.948 . S
C680 C679 1.391 . S
C680 C681 1.391 . S
C681 C680 1.391 . S
C681 C682 1.392 . S
C681 H710 0.947 . S
C682 C681 1.392 . S
C682 C683 1.419 . S
C682 H711 0.948 . S
C683 C682 1.419 . S
C683 C684 1.391 . S
C683 C687 1.397 . S
C684 C679 1.391 . S
C684 C683 1.391 . S
C684 C685 1.399 . S
C685 C684 1.399 . S
C685 C686 1.396 . S
C685 C688 1.453 . S
C685 C689 1.684 . S
C686 C667 1.723 . S
C686 C685 1.396 . S
C686 C687 1.394 . S
C687 C683 1.397 . S
C687 C686 1.394 . S
C687 C697 1.723 . S
C688 C685 1.453 . S
C688 H712 0.982 . S
C688 H713 0.979 . S
C688 H714 0.977 . S
C689 C685 1.684 . S
C689 H715 0.979 . S
C689 H716 0.980 . S
C689 H717 0.983 . S
C690 H666 0.948 . S
C690 C691 1.391 . S
C690 C695 1.391 . S
C691 C690 1.391 . S
C691 C692 1.391 . S
C692 H669 0.947 . S
C692 C691 1.391 . S
C692 C693 1.392 . S
C693 H670 0.948 . S
C693 C692 1.392 . S
C693 C694 1.419 . S
C694 C693 1.419 . S
C694 C695 1.391 . S
C694 C698 1.397 . S
C695 C690 1.391 . S
C695 C694 1.391 . S
C695 C696 1.399 . S
C696 C695 1.399 . S
C696 C697 1.396 . S
C696 C699 1.453 . S
C696 C700 1.684 . S
C697 C687 1.723 . S
C697 C696 1.396 . S
C697 C698 1.394 . S
C698 C668 1.723 . S
C698 C694 1.397 . S
C698 C697 1.394 . S
C699 H671 0.982 . S
C699 H675 0.979 . S
C699 H676 0.977 . S
C699 C696 1.453 . S
C700 H672 0.979 . S
C700 H673 0.980 . S
C700 H674 0.983 . S
C700 C696 1.684 . S
H701 C719 0.948 . S
H702 C660 0.948 . S
H703 C678 0.979 . S
H704 C678 0.980 . S
H705 C678 0.983 . S
H706 C677 0.982 . S
H707 C677 0.979 . S
H708 C677 0.977 . S
H709 C679 0.948 . S
H710 C681 0.947 . S
H711 C682 0.948 . S
H712 C688 0.982 . S
H713 C688 0.979 . S
H714 C688 0.977 . S
H715 C689 0.979 . S
H716 C689 0.980 . S
H717 C689 0.983 . S
H718 C662 0.947 . S
C719 C662 1.392 . S
C719 C663 1.419 . S
C719 H701 0.948 . S
C720 C721 1.391 . S
C720 C724 1.391 . S
C720 H762 0.948 . S
C721 C720 1.391 . S
C721 C722 1.391 . S
C722 C721 1.391 . S
C722 H778 0.947 . S
C722 C779 1.392 . S
C723 C724 1.391 . S
C723 C727 1.397 . S
C723 C779 1.419 . S
C724 C720 1.391 . S
C724 C723 1.391 . S
C724 C725 1.399 . S
C725 C724 1.399 . S
C725 C728 1.396 . S
C725 C737 1.453 . S
C725 C738 1.684 . S
H726 C750 0.948 . S
C727 C723 1.397 . S
C727 C728 1.394 . S
C727 C746 1.723 . S
C728 C725 1.396 . S
C728 C727 1.394 . S
C728 C758 1.723 . S
H729 C752 0.947 . S
H730 C753 0.948 . S
H731 C759 0.982 . S
H732 C760 0.979 . S
H733 C760 0.980 . S
H734 C760 0.983 . S
H735 C759 0.979 . S
H736 C759 0.977 . S
C737 C725 1.453 . S
C737 H766 0.982 . S
C737 H767 0.979 . S
C737 H768 0.977 . S
C738 C725 1.684 . S
C738 H763 0.979 . S
C738 H764 0.980 . S
C738 H765 0.983 . S
C739 C740 1.391 . S
C739 C744 1.391 . S
C739 H769 0.948 . S
C740 C739 1.391 . S
C740 C741 1.391 . S
C741 C740 1.391 . S
C741 C742 1.392 . S
C741 H770 0.947 . S
C742 C741 1.392 . S
C742 C743 1.419 . S
C742 H771 0.948 . S
C743 C742 1.419 . S
C743 C744 1.391 . S
C743 C747 1.397 . S
C744 C739 1.391 . S
C744 C743 1.391 . S
C744 C745 1.399 . S
C745 C744 1.399 . S
C745 C746 1.396 . S
C745 C748 1.453 . S
C745 C749 1.684 . S
C746 C727 1.723 . S
C746 C745 1.396 . S
C746 C747 1.394 . S
C747 C743 1.397 . S
C747 C746 1.394 . S
C747 C757 1.723 . S
C748 C745 1.453 . S
C748 H772 0.982 . S
C748 H773 0.979 . S
C748 H774 0.977 . S
C749 C745 1.684 . S
C749 H775 0.979 . S
C749 H776 0.980 . S
C749 H777 0.983 . S
C750 H726 0.948 . S
C750 C751 1.391 . S
C750 C755 1.391 . S
C751 C750 1.391 . S
C751 C752 1.391 . S
C752 H729 0.947 . S
C752 C751 1.391 . S
C752 C753 1.392 . S
C753 H730 0.948 . S
C753 C752 1.392 . S
C753 C754 1.419 . S
C754 C753 1.419 . S
C754 C755 1.391 . S
C754 C758 1.397 . S
C755 C750 1.391 . S
C755 C754 1.391 . S
C755 C756 1.399 . S
C756 C755 1.399 . S
C756 C757 1.396 . S
C756 C759 1.453 . S
C756 C760 1.684 . S
C757 C747 1.723 . S
C757 C756 1.396 . S
C757 C758 1.394 . S
C758 C728 1.723 . S
C758 C754 1.397 . S
C758 C757 1.394 . S
C759 H731 0.982 . S
C759 H735 0.979 . S
C759 H736 0.977 . S
C759 C756 1.453 . S
C760 H732 0.979 . S
C760 H733 0.980 . S
C760 H734 0.983 . S
C760 C756 1.684 . S
H761 C779 0.948 . S
H762 C720 0.948 . S
H763 C738 0.979 . S
H764 C738 0.980 . S
H765 C738 0.983 . S
H766 C737 0.982 . S
H767 C737 0.979 . S
H768 C737 0.977 . S
H769 C739 0.948 . S
H770 C741 0.947 . S
H771 C742 0.948 . S
H772 C748 0.982 . S
H773 C748 0.979 . S
H774 C748 0.977 . S
H775 C749 0.979 . S
H776 C749 0.980 . S
H777 C749 0.983 . S
H778 C722 0.947 . S
C779 C722 1.392 . S
C779 C723 1.419 . S
C779 H761 0.948 . S
C780 C781 1.391 . S
C780 C784 1.391 . S
C780 H822 0.948 . S
C781 C780 1.391 . S
C781 C782 1.391 . S
C782 C781 1.391 . S
C782 H838 0.947 . S
C782 C839 1.392 . S
C783 C784 1.391 . S
C783 C787 1.397 . S
C783 C839 1.419 . S
C784 C780 1.391 . S
C784 C783 1.391 . S
C784 C785 1.399 . S
C785 C784 1.399 . S
C785 C788 1.396 . S
C785 C797 1.453 . S
C785 C798 1.684 . S
H786 C810 0.948 . S
C787 C783 1.397 . S
C787 C788 1.394 . S
C787 C806 1.723 . S
C788 C785 1.396 . S
C788 C787 1.394 . S
C788 C818 1.723 . S
H789 C812 0.947 . S
H790 C813 0.948 . S
H791 C819 0.982 . S
H792 C820 0.979 . S
H793 C820 0.980 . S
H794 C820 0.983 . S
H795 C819 0.979 . S
H796 C819 0.977 . S
C797 C785 1.453 . S
C797 H826 0.982 . S
C797 H827 0.979 . S
C797 H828 0.977 . S
C798 C785 1.684 . S
C798 H823 0.979 . S
C798 H824 0.980 . S
C798 H825 0.983 . S
C799 C800 1.391 . S
C799 C804 1.391 . S
C799 H829 0.948 . S
C800 C799 1.391 . S
C800 C801 1.391 . S
C801 C800 1.391 . S
C801 C802 1.392 . S
C801 H830 0.947 . S
C802 C801 1.392 . S
C802 C803 1.419 . S
C802 H831 0.948 . S
C803 C802 1.419 . S
C803 C804 1.391 . S
C803 C807 1.397 . S
C804 C799 1.391 . S
C804 C803 1.391 . S
C804 C805 1.399 . S
C805 C804 1.399 . S
C805 C806 1.396 . S
C805 C808 1.453 . S
C805 C809 1.684 . S
C806 C787 1.723 . S
C806 C805 1.396 . S
C806 C807 1.394 . S
C807 C803 1.397 . S
C807 C806 1.394 . S
C807 C817 1.723 . S
C808 C805 1.453 . S
C808 H832 0.982 . S
C808 H833 0.979 . S
C808 H834 0.977 . S
C809 C805 1.684 . S
C809 H835 0.979 . S
C809 H836 0.980 . S
C809 H837 0.983 . S
C810 H786 0.948 . S
C810 C811 1.391 . S
C810 C815 1.391 . S
C811 C810 1.391 . S
C811 C812 1.391 . S
C812 H789 0.947 . S
C812 C811 1.391 . S
C812 C813 1.392 . S
C813 H790 0.948 . S
C813 C812 1.392 . S
C813 C814 1.419 . S
C814 C813 1.419 . S
C814 C815 1.391 . S
C814 C818 1.397 . S
C815 C810 1.391 . S
C815 C814 1.391 . S
C815 C816 1.399 . S
C816 C815 1.399 . S
C816 C817 1.396 . S
C816 C819 1.453 . S
C816 C820 1.684 . S
C817 C807 1.723 . S
C817 C816 1.396 . S
C817 C818 1.394 . S
C818 C788 1.723 . S
C818 C814 1.397 . S
C818 C817 1.394 . S
C819 H791 0.982 . S
C819 H795 0.979 . S
C819 H796 0.977 . S
C819 C816 1.453 . S
C820 H792 0.979 . S
C820 H793 0.980 . S
C820 H794 0.983 . S
C820 C816 1.684 . S
H821 C839 0.948 . S
H822 C780 0.948 . S
H823 C798 0.979 . S
H824 C798 0.980 . S
H825 C798 0.983 . S
H826 C797 0.982 . S
H827 C797 0.979 . S
H828 C797 0.977 . S
H829 C799 0.948 . S
H830 C801 0.947 . S
H831 C802 0.948 . S
H832 C808 0.982 . S
H833 C808 0.979 . S
H834 C808 0.977 . S
H835 C809 0.979 . S
H836 C809 0.980 . S
H837 C809 0.983 . S
H838 C782 0.947 . S
C839 C782 1.392 . S
C839 C783 1.419 . S
C839 H821 0.948 . S
C840 C841 1.391 . S
C840 C844 1.391 . S
C840 H882 0.948 . S
C841 C840 1.391 . S
C841 C842 1.391 . S
C842 C841 1.391 . S
C842 H898 0.947 . S
C842 C899 1.392 . S
C843 C844 1.391 . S
C843 C847 1.397 . S
C843 C899 1.419 . S
C844 C840 1.391 . S
C844 C843 1.391 . S
C844 C845 1.399 . S
C845 C844 1.399 . S
C845 C848 1.396 . S
C845 C857 1.453 . S
C845 C858 1.684 . S
H846 C870 0.948 . S
C847 C843 1.397 . S
C847 C848 1.394 . S
C847 C866 1.723 . S
C848 C845 1.396 . S
C848 C847 1.394 . S
C848 C878 1.723 . S
H849 C872 0.947 . S
H850 C873 0.948 . S
H851 C879 0.982 . S
H852 C880 0.979 . S
H853 C880 0.980 . S
H854 C880 0.983 . S
H855 C879 0.979 . S
H856 C879 0.977 . S
C857 C845 1.453 . S
C857 H886 0.982 . S
C857 H887 0.979 . S
C857 H888 0.977 . S
C858 C845 1.684 . S
C858 H883 0.979 . S
C858 H884 0.980 . S
C858 H885 0.983 . S
C859 C860 1.391 . S
C859 C864 1.391 . S
C859 H889 0.948 . S
C860 C859 1.391 . S
C860 C861 1.391 . S
C861 C860 1.391 . S
C861 C862 1.392 . S
C861 H890 0.947 . S
C862 C861 1.392 . S
C862 C863 1.419 . S
C862 H891 0.948 . S
C863 C862 1.419 . S
C863 C864 1.391 . S
C863 C867 1.397 . S
C864 C859 1.391 . S
C864 C863 1.391 . S
C864 C865 1.399 . S
C865 C864 1.399 . S
C865 C866 1.396 . S
C865 C868 1.453 . S
C865 C869 1.684 . S
C866 C847 1.723 . S
C866 C865 1.396 . S
C866 C867 1.394 . S
C867 C863 1.397 . S
C867 C866 1.394 . S
C867 C877 1.723 . S
C868 C865 1.453 . S
C868 H892 0.982 . S
C868 H893 0.979 . S
C868 H894 0.977 . S
C869 C865 1.684 . S
C869 H895 0.979 . S
C869 H896 0.980 . S
C869 H897 0.983 . S
C870 H846 0.948 . S
C870 C871 1.391 . S
C870 C875 1.391 . S
C871 C870 1.391 . S
C871 C872 1.391 . S
C872 H849 0.947 . S
C872 C871 1.391 . S
C872 C873 1.392 . S
C873 H850 0.948 . S
C873 C872 1.392 . S
C873 C874 1.419 . S
C874 C873 1.419 . S
C874 C875 1.391 . S
C874 C878 1.397 . S
C875 C870 1.391 . S
C875 C874 1.391 . S
C875 C876 1.399 . S
C876 C875 1.399 . S
C876 C877 1.396 . S
C876 C879 1.453 . S
C876 C880 1.684 . S
C877 C867 1.723 . S
C877 C876 1.396 . S
C877 C878 1.394 . S
C878 C848 1.723 . S
C878 C874 1.397 . S
C878 C877 1.394 . S
C879 H851 0.982 . S
C879 H855 0.979 . S
C879 H856 0.977 . S
C879 C876 1.453 . S
C880 H852 0.979 . S
C880 H853 0.980 . S
C880 H854 0.983 . S
C880 C876 1.684 . S
H881 C899 0.948 . S
H882 C840 0.948 . S
H883 C858 0.979 . S
H884 C858 0.980 . S
H885 C858 0.983 . S
H886 C857 0.982 . S
H887 C857 0.979 . S
H888 C857 0.977 . S
H889 C859 0.948 . S
H890 C861 0.947 . S
H891 C862 0.948 . S
H892 C868 0.982 . S
H893 C868 0.979 . S
H894 C868 0.977 . S
H895 C869 0.979 . S
H896 C869 0.980 . S
H897 C869 0.983 . S
H898 C842 0.947 . S
C899 C842 1.392 . S
C899 C843 1.419 . S
C899 H881 0.948 . S
C900 C901 1.391 . S
C900 C904 1.391 . S
C900 H942 0.948 . S
C901 C900 1.391 . S
C901 C902 1.391 . S
C902 C901 1.391 . S
C902 H958 0.947 . S
C902 C959 1.392 . S
C903 C904 1.391 . S
C903 C907 1.397 . S
C903 C959 1.419 . S
C904 C900 1.391 . S
C904 C903 1.391 . S
C904 C905 1.399 . S
C905 C904 1.399 . S
C905 C908 1.396 . S
C905 C917 1.453 . S
C905 C918 1.684 . S
H906 C930 0.948 . S
C907 C903 1.397 . S
C907 C908 1.394 . S
C907 C926 1.723 . S
C908 C905 1.396 . S
C908 C907 1.394 . S
C908 C938 1.723 . S
H909 C932 0.947 . S
H910 C933 0.948 . S
H911 C939 0.982 . S
H912 C940 0.979 . S
H913 C940 0.980 . S
H914 C940 0.983 . S
H915 C939 0.979 . S
H916 C939 0.977 . S
C917 C905 1.453 . S
C917 H946 0.982 . S
C917 H947 0.979 . S
C917 H948 0.977 . S
C918 C905 1.684 . S
C918 H943 0.979 . S
C918 H944 0.980 . S
C918 H945 0.983 . S
C919 C920 1.391 . S
C919 C924 1.391 . S
C919 H949 0.948 . S
C920 C919 1.391 . S
C920 C921 1.391 . S
C921 C920 1.391 . S
C921 C922 1.392 . S
C921 H950 0.947 . S
C922 C921 1.392 . S
C922 C923 1.419 . S
C922 H951 0.948 . S
C923 C922 1.419 . S
C923 C924 1.391 . S
C923 C927 1.397 . S
C924 C919 1.391 . S
C924 C923 1.391 . S
C924 C925 1.399 . S
C925 C924 1.399 . S
C925 C926 1.396 . S
C925 C928 1.453 . S
C925 C929 1.684 . S
C926 C907 1.723 . S
C926 C925 1.396 . S
C926 C927 1.394 . S
C927 C923 1.397 . S
C927 C926 1.394 . S
C927 C937 1.723 . S
C928 C925 1.453 . S
C928 H952 0.982 . S
C928 H953 0.979 . S
C928 H954 0.977 . S
C929 C925 1.684 . S
C929 H955 0.979 . S
C929 H956 0.980 . S
C929 H957 0.983 . S
C930 H906 0.948 . S
C930 C931 1.391 . S
C930 C935 1.391 . S
C931 C930 1.391 . S
C931 C932 1.391 . S
C932 H909 0.947 . S
C932 C931 1.391 . S
C932 C933 1.392 . S
C933 H910 0.948 . S
C933 C932 1.392 . S
C933 C934 1.419 . S
C934 C933 1.419 . S
C934 C935 1.391 . S
C934 C938 1.397 . S
C935 C930 1.391 . S
C935 C934 1.391 . S
C935 C936 1.399 . S
C936 C935 1.399 . S
C936 C937 1.396 . S
C936 C939 1.453 . S
C936 C940 1.684 . S
C937 C927 1.723 . S
C937 C936 1.396 . S
C937 C938 1.394 . S
C938 C908 1.723 . S
C938 C934 1.397 . S
C938 C937 1.394 . S
C939 H911 0.982 . S
C939 H915 0.979 . S
C939 H916 0.977 . S
C939 C936 1.453 . S
C940 H912 0.979 . S
C940 H913 0.980 . S
C940 H914 0.983 . S
C940 C936 1.684 . S
H941 C959 0.948 . S
H942 C900 0.948 . S
H943 C918 0.979 . S
H944 C918 0.980 . S
H945 C918 0.983 . S
H946 C917 0.982 . S
H947 C917 0.979 . S
H948 C917 0.977 . S
H949 C919 0.948 . S
H950 C921 0.947 . S
H951 C922 0.948 . S
H952 C928 0.982 . S
H953 C928 0.979 . S
H954 C928 0.977 . S
H955 C929 0.979 . S
H956 C929 0.980 . S
H957 C929 0.983 . S
H958 C902 0.947 . S
C959 C902 1.392 . S
C959 C903 1.419 . S
C959 H941 0.948 . S
C960 C961 1.391 . S
C960 C964 1.391 . S
C960 H1002 0.948 . S
C961 C960 1.391 . S
C961 C962 1.391 . S
C962 C961 1.391 . S
C962 H1018 0.947 . S
C962 C1019 1.392 . S
C963 C964 1.391 . S
C963 C967 1.397 . S
C963 C1019 1.419 . S
C964 C960 1.391 . S
C964 C963 1.391 . S
C964 C965 1.399 . S
C965 C964 1.399 . S
C965 C968 1.396 . S
C965 C977 1.453 . S
C965 C978 1.684 . S
H966 C990 0.948 . S
C967 C963 1.397 . S
C967 C968 1.394 . S
C967 C986 1.723 . S
C968 C965 1.396 . S
C968 C967 1.394 . S
C968 C998 1.723 . S
H969 C992 0.947 . S
H970 C993 0.948 . S
H971 C999 0.982 . S
H972 C1000 0.979 . S
H973 C1000 0.980 . S
H974 C1000 0.983 . S
H975 C999 0.979 . S
H976 C999 0.977 . S
C977 C965 1.453 . S
C977 H1006 0.982 . S
C977 H1007 0.979 . S
C977 H1008 0.977 . S
C978 C965 1.684 . S
C978 H1003 0.979 . S
C978 H1004 0.980 . S
C978 H1005 0.983 . S
C979 C980 1.391 . S
C979 C984 1.391 . S
C979 H1009 0.948 . S
C980 C979 1.391 . S
C980 C981 1.391 . S
C981 C980 1.391 . S
C981 C982 1.392 . S
C981 H1010 0.947 . S
C982 C981 1.392 . S
C982 C983 1.419 . S
C982 H1011 0.948 . S
C983 C982 1.419 . S
C983 C984 1.391 . S
C983 C987 1.397 . S
C984 C979 1.391 . S
C984 C983 1.391 . S
C984 C985 1.399 . S
C985 C984 1.399 . S
C985 C986 1.396 . S
C985 C988 1.453 . S
C985 C989 1.684 . S
C986 C967 1.723 . S
C986 C985 1.396 . S
C986 C987 1.394 . S
C987 C983 1.397 . S
C987 C986 1.394 . S
C987 C997 1.723 . S
C988 C985 1.453 . S
C988 H1012 0.982 . S
C988 H1013 0.979 . S
C988 H1014 0.977 . S
C989 C985 1.684 . S
C989 H1015 0.979 . S
C989 H1016 0.980 . S
C989 H1017 0.983 . S
C990 H966 0.948 . S
C990 C991 1.391 . S
C990 C995 1.391 . S
C991 C990 1.391 . S
C991 C992 1.391 . S
C992 H969 0.947 . S
C992 C991 1.391 . S
C992 C993 1.392 . S
C993 H970 0.948 . S
C993 C992 1.392 . S
C993 C994 1.419 . S
C994 C993 1.419 . S
C994 C995 1.391 . S
C994 C998 1.397 . S
C995 C990 1.391 . S
C995 C994 1.391 . S
C995 C996 1.399 . S
C996 C995 1.399 . S
C996 C997 1.396 . S
C996 C999 1.453 . S
C996 C1000 1.684 . S
C997 C987 1.723 . S
C997 C996 1.396 . S
C997 C998 1.394 . S
C998 C968 1.723 . S
C998 C994 1.397 . S
C998 C997 1.394 . S
C999 H971 0.982 . S
C999 H975 0.979 . S
C999 H976 0.977 . S
C999 C996 1.453 . S
C1000 H972 0.979 . S
C1000 H973 0.980 . S
C1000 H974 0.983 . S
C1000 C996 1.684 . S
H1001 C1019 0.948 . S
H1002 C960 0.948 . S
H1003 C978 0.979 . S
H1004 C978 0.980 . S
H1005 C978 0.983 . S
H1006 C977 0.982 . S
H1007 C977 0.979 . S
H1008 C977 0.977 . S
H1009 C979 0.948 . S
H1010 C981 0.947 . S
H1011 C982 0.948 . S
H1012 C988 0.982 . S
H1013 C988 0.979 . S
H1014 C988 0.977 . S
H1015 C989 0.979 . S
H1016 C989 0.980 . S
H1017 C989 0.983 . S
H1018 C962 0.947 . S
C1019 C962 1.392 . S
C1019 C963 1.419 . S
C1019 H1001 0.948 . S
C1020 C1021 1.391 . S
C1020 C1024 1.391 . S
C1020 H1062 0.948 . S
C1021 C1020 1.391 . S
C1021 C1022 1.391 . S
C1022 C1021 1.391 . S
C1022 H1078 0.947 . S
C1022 C1079 1.392 . S
C1023 C1024 1.391 . S
C1023 C1027 1.397 . S
C1023 C1079 1.419 . S
C1024 C1020 1.391 . S
C1024 C1023 1.391 . S
C1024 C1025 1.399 . S
C1025 C1024 1.399 . S
C1025 C1028 1.396 . S
C1025 C1037 1.453 . S
C1025 C1038 1.684 . S
H1026 C1050 0.948 . S
C1027 C1023 1.397 . S
C1027 C1028 1.394 . S
C1027 C1046 1.723 . S
C1028 C1025 1.396 . S
C1028 C1027 1.394 . S
C1028 C1058 1.723 . S
H1029 C1052 0.947 . S
H1030 C1053 0.948 . S
H1031 C1059 0.982 . S
H1032 C1060 0.979 . S
H1033 C1060 0.980 . S
H1034 C1060 0.983 . S
H1035 C1059 0.979 . S
H1036 C1059 0.977 . S
C1037 C1025 1.453 . S
C1037 H1066 0.982 . S
C1037 H1067 0.979 . S
C1037 H1068 0.977 . S
C1038 C1025 1.684 . S
C1038 H1063 0.979 . S
C1038 H1064 0.980 . S
C1038 H1065 0.983 . S
C1039 C1040 1.391 . S
C1039 C1044 1.391 . S
C1039 H1069 0.948 . S
C1040 C1039 1.391 . S
C1040 C1041 1.391 . S
C1041 C1040 1.391 . S
C1041 C1042 1.392 . S
C1041 H1070 0.947 . S
C1042 C1041 1.392 . S
C1042 C1043 1.419 . S
C1042 H1071 0.948 . S
C1043 C1042 1.419 . S
C1043 C1044 1.391 . S
C1043 C1047 1.397 . S
C1044 C1039 1.391 . S
C1044 C1043 1.391 . S
C1044 C1045 1.399 . S
C1045 C1044 1.399 . S
C1045 C1046 1.396 . S
C1045 C1048 1.453 . S
C1045 C1049 1.684 . S
C1046 C1027 1.723 . S
C1046 C1045 1.396 . S
C1046 C1047 1.394 . S
C1047 C1043 1.397 . S
C1047 C1046 1.394 . S
C1047 C1057 1.723 . S
C1048 C1045 1.453 . S
C1048 H1072 0.982 . S
C1048 H1073 0.979 . S
C1048 H1074 0.977 . S
C1049 C1045 1.684 . S
C1049 H1075 0.979 . S
C1049 H1076 0.980 . S
C1049 H1077 0.983 . S
C1050 H1026 0.948 . S
C1050 C1051 1.391 . S
C1050 C1055 1.391 . S
C1051 C1050 1.391 . S
C1051 C1052 1.391 . S
C1052 H1029 0.947 . S
C1052 C1051 1.391 . S
C1052 C1053 1.392 . S
C1053 H1030 0.948 . S
C1053 C1052 1.392 . S
C1053 C1054 1.419 . S
C1054 C1053 1.419 . S
C1054 C1055 1.391 . S
C1054 C1058 1.397 . S
C1055 C1050 1.391 . S
C1055 C1054 1.391 . S
C1055 C1056 1.399 . S
C1056 C1055 1.399 . S
C1056 C1057 1.396 . S
C1056 C1059 1.453 . S
C1056 C1060 1.684 . S
C1057 C1047 1.723 . S
C1057 C1056 1.396 . S
C1057 C1058 1.394 . S
C1058 C1028 1.723 . S
C1058 C1054 1.397 . S
C1058 C1057 1.394 . S
C1059 H1031 0.982 . S
C1059 H1035 0.979 . S
C1059 H1036 0.977 . S
C1059 C1056 1.453 . S
C1060 H1032 0.979 . S
C1060 H1033 0.980 . S
C1060 H1034 0.983 . S
C1060 C1056 1.684 . S
H1061 C1079 0.948 . S
H1062 C1020 0.948 . S
H1063 C1038 0.979 . S
H1064 C1038 0.980 . S
H1065 C1038 0.983 . S
H1066 C1037 0.982 . S
H1067 C1037 0.979 . S
H1068 C1037 0.977 . S
H1069 C1039 0.948 . S
H1070 C1041 0.947 . S
H1071 C1042 0.948 . S
H1072 C1048 0.982 . S
H1073 C1048 0.979 . S
H1074 C1048 0.977 . S
H1075 C1049 0.979 . S
H1076 C1049 0.980 . S
H1077 C1049 0.983 . S
H1078 C1022 0.947 . S
C1079 C1022 1.392 . S
C1079 C1023 1.419 . S
C1079 H1061 0.948 . S
O1080 Mn1081 2.163 1_565 S
O1080 C1094 1.244 . S
Mn1081 O1080 2.163 1_545 S
Mn1081 O1084 2.160 . S
Mn1081 O1085 2.221 1_545 S
Mn1081 O1087 2.163 1_554 S
Mn1081 O1089 2.160 . S
Mn1081 O1099 2.221 . S
O1082 Mn1083 2.087 1_565 S
O1082 C1094 1.256 . S
Mn1083 O1082 2.087 1_545 S
Mn1083 O1090 2.089 . S
Mn1083 O1099 2.290 . S
Mn1083 O1100 2.251 . S
O1084 Mn1081 2.160 . S
O1084 C1095 1.239 1_554 S
O1085 Mn1081 2.221 1_565 S
O1085 Mn1086 2.290 1_554 S
O1085 C1096 1.278 . S
Mn1086 O1085 2.290 1_556 S
Mn1086 O1088 2.089 1_565 S
Mn1086 O1091 2.251 . S
Mn1086 O1092 2.087 . S
O1087 Mn1081 2.163 1_556 S
O1087 C1097 1.244 . S
O1088 Mn1086 2.089 1_545 S
O1088 C1095 1.256 . S
O1089 Mn1081 2.160 . S
O1089 C1098 1.239 . S
O1090 Mn1083 2.089 . S
O1090 C1098 1.256 . S
O1091 Mn1086 2.251 . S
O1091 C1096 1.241 1_556 S
O1092 Mn1086 2.087 . S
O1092 C1097 1.256 1_565 S
C1093 O1099 1.278 . S
C1093 O1100 1.241 . S
C1094 O1080 1.244 . S
C1094 O1082 1.256 . S
C1095 O1084 1.239 1_556 S
C1095 O1088 1.256 . S
C1096 O1085 1.278 . S
C1096 O1091 1.241 1_554 S
C1097 O1087 1.244 . S
C1097 O1092 1.256 1_545 S
C1098 O1089 1.239 . S
C1098 O1090 1.256 . S
O1099 Mn1081 2.221 . S
O1099 Mn1083 2.290 . S
O1099 C1093 1.278 . S
O1100 Mn1083 2.251 . S
O1100 C1093 1.241 . S
O1101 Mn1102 2.159 1_455 S
O1101 C1115 1.244 . S
Mn1102 O1101 2.159 1_655 S
Mn1102 O1105 2.164 . S
Mn1102 O1106 2.221 1_655 S
Mn1102 O1108 2.163 1_554 S
Mn1102 O1110 2.160 . S
Mn1102 O1120 2.222 . S
O1103 Mn1104 2.087 1_455 S
O1103 C1115 1.256 . S
Mn1104 O1103 2.087 1_655 S
Mn1104 O1111 2.089 1_655 S
Mn1104 O1120 2.290 . S
Mn1104 O1121 2.251 . S
O1105 Mn1102 2.164 . S
O1105 C1116 1.239 1_554 S
O1106 Mn1102 2.221 1_455 S
O1106 Mn1107 2.290 1_554 S
O1106 C1117 1.278 . S
Mn1107 O1106 2.290 1_556 S
Mn1107 O1109 2.089 1_455 S
Mn1107 O1112 2.251 . S
Mn1107 O1113 2.087 . S
O1108 Mn1102 2.163 1_556 S
O1108 C1118 1.244 1_655 S
O1109 Mn1107 2.089 1_655 S
O1109 C1116 1.256 . S
O1110 Mn1102 2.160 . S
O1110 C1119 1.239 1_655 S
O1111 Mn1104 2.089 1_455 S
O1111 C1119 1.256 . S
O1112 Mn1107 2.251 . S
O1112 C1117 1.241 1_556 S
O1113 Mn1107 2.087 . S
O1113 C1118 1.256 . S
C1114 O1120 1.278 . S
C1114 O1121 1.241 . S
C1115 O1101 1.244 . S
C1115 O1103 1.256 . S
C1116 O1105 1.239 1_556 S
C1116 O1109 1.256 . S
C1117 O1106 1.278 . S
C1117 O1112 1.241 1_554 S
C1118 O1108 1.244 1_455 S
C1118 O1113 1.256 . S
C1119 O1110 1.239 1_455 S
C1119 O1111 1.256 . S
O1120 Mn1102 2.222 . S
O1120 Mn1104 2.290 . S
O1120 C1114 1.278 . S
O1121 Mn1104 2.251 . S
O1121 C1114 1.241 . S
O1122 Mn1123 2.163 1_556 S
O1122 C1136 1.245 . S
Mn1123 O1122 2.163 1_554 S
Mn1123 O1126 2.160 . S
Mn1123 O1127 2.221 . S
Mn1123 O1129 2.163 . S
Mn1123 O1131 2.160 1_554 S
Mn1123 O1141 2.221 1_554 S
O1124 Mn1125 2.087 . S
O1124 C1136 1.256 . S
Mn1125 O1124 2.087 . S
Mn1125 O1132 2.089 . S
Mn1125 O1141 2.290 . S
Mn1125 O1142 2.251 1_556 S
O1126 Mn1123 2.160 . S
O1126 C1137 1.239 . S
O1127 Mn1123 2.221 . S
O1127 Mn1128 2.290 . S
O1127 C1138 1.278 . S
Mn1128 O1127 2.290 . S
Mn1128 O1130 2.089 . S
Mn1128 O1133 2.251 . S
Mn1128 O1134 2.087 . S
O1129 Mn1123 2.163 . S
O1129 C1139 1.244 . S
O1130 Mn1128 2.089 . S
O1130 C1137 1.256 . S
O1131 Mn1123 2.160 1_556 S
O1131 C1140 1.239 . S
O1132 Mn1125 2.089 . S
O1132 C1140 1.256 . S
O1133 Mn1128 2.251 . S
O1133 C1138 1.241 . S
O1134 Mn1128 2.087 . S
O1134 C1139 1.256 . S
C1135 O1141 1.278 1_554 S
C1135 O1142 1.241 . S
C1136 O1122 1.245 . S
C1136 O1124 1.256 . S
C1137 O1126 1.239 . S
C1137 O1130 1.256 . S
C1138 O1127 1.278 . S
C1138 O1133 1.241 . S
C1139 O1129 1.244 . S
C1139 O1134 1.256 . S
C1140 O1131 1.239 . S
C1140 O1132 1.256 . S
O1141 Mn1123 2.221 1_556 S
O1141 Mn1125 2.290 . S
O1141 C1135 1.278 1_556 S
O1142 Mn1125 2.251 1_554 S
O1142 C1135 1.241 . S
O1143 Mn1144 2.163 . S
O1143 C1157 1.244 . S
Mn1144 O1143 2.163 . S
Mn1144 O1147 2.160 . S
Mn1144 O1148 2.221 . S
Mn1144 O1150 2.163 . S
Mn1144 O1152 2.160 . S
Mn1144 O1162 2.221 . S
O1145 Mn1146 2.087 . S
O1145 C1157 1.256 . S
Mn1146 O1145 2.087 . S
Mn1146 O1153 2.089 . S
Mn1146 O1162 2.290 . S
Mn1146 O1163 2.251 . S
O1147 Mn1144 2.160 . S
O1147 C1158 1.239 . S
O1148 Mn1144 2.221 . S
O1148 Mn1149 2.290 . S
O1148 C1159 1.278 . S
Mn1149 O1148 2.290 . S
Mn1149 O1151 2.089 . S
Mn1149 O1154 2.251 . S
Mn1149 O1155 2.087 . S
O1150 Mn1144 2.163 . S
O1150 C1160 1.244 . S
O1151 Mn1149 2.089 . S
O1151 C1158 1.256 . S
O1152 Mn1144 2.160 . S
O1152 C1161 1.239 . S
O1153 Mn1146 2.089 . S
O1153 C1161 1.256 . S
O1154 Mn1149 2.251 . S
O1154 C1159 1.241 . S
O1155 Mn1149 2.087 . S
O1155 C1160 1.256 . S
C1156 O1162 1.278 . S
C1156 O1163 1.241 . S
C1157 O1143 1.244 . S
C1157 O1145 1.256 . S
C1158 O1147 1.239 . S
C1158 O1151 1.256 . S
C1159 O1148 1.278 . S
C1159 O1154 1.241 . S
C1160 O1150 1.244 . S
C1160 O1155 1.256 . S
C1161 O1152 1.239 . S
C1161 O1153 1.256 . S
O1162 Mn1144 2.221 . S
O1162 Mn1146 2.290 . S
O1162 C1156 1.278 . S
O1163 Mn1146 2.251 . S
O1163 C1156 1.241 . S
O1164 Mn1165 2.163 . S
O1164 C1178 1.244 . S
Mn1165 O1164 2.163 . S
Mn1165 O1168 2.160 . S
Mn1165 O1169 2.221 . S
Mn1165 O1171 2.163 . S
Mn1165 O1173 2.160 . S
Mn1165 O1183 2.221 . S
O1166 Mn1167 2.087 . S
O1166 C1178 1.256 . S
Mn1167 O1166 2.087 . S
Mn1167 O1174 2.089 . S
Mn1167 O1183 2.290 . S
Mn1167 O1184 2.251 . S
O1168 Mn1165 2.160 . S
O1168 C1179 1.239 . S
O1169 Mn1165 2.221 . S
O1169 Mn1170 2.290 . S
O1169 C1180 1.278 . S
Mn1170 O1169 2.290 . S
Mn1170 O1172 2.089 . S
Mn1170 O1175 2.251 . S
Mn1170 O1176 2.087 . S
O1171 Mn1165 2.163 . S
O1171 C1181 1.244 . S
O1172 Mn1170 2.089 . S
O1172 C1179 1.256 . S
O1173 Mn1165 2.160 . S
O1173 C1182 1.239 . S
O1174 Mn1167 2.089 . S
O1174 C1182 1.256 . S
O1175 Mn1170 2.251 . S
O1175 C1180 1.241 . S
O1176 Mn1170 2.087 . S
O1176 C1181 1.256 . S
C1177 O1183 1.278 . S
C1177 O1184 1.241 . S
C1178 O1164 1.244 . S
C1178 O1166 1.256 . S
C1179 O1168 1.239 . S
C1179 O1172 1.256 . S
C1180 O1169 1.278 . S
C1180 O1175 1.241 . S
C1181 O1171 1.244 . S
C1181 O1176 1.256 . S
C1182 O1173 1.239 . S
C1182 O1174 1.256 . S
O1183 Mn1165 2.221 . S
O1183 Mn1167 2.290 . S
O1183 C1177 1.278 . S
O1184 Mn1167 2.251 . S
O1184 C1177 1.241 . S
O1185 Mn1186 2.163 . S
O1185 C1199 1.244 . S
Mn1186 O1185 2.163 . S
Mn1186 O1189 2.160 . S
Mn1186 O1190 2.221 . S
Mn1186 O1192 2.163 . S
Mn1186 O1194 2.160 . S
Mn1186 O1204 2.221 . S
O1187 Mn1188 2.087 . S
O1187 C1199 1.256 . S
Mn1188 O1187 2.087 . S
Mn1188 O1195 2.089 . S
Mn1188 O1204 2.290 . S
Mn1188 O1205 2.251 . S
O1189 Mn1186 2.160 . S
O1189 C1200 1.239 . S
O1190 Mn1186 2.221 . S
O1190 Mn1191 2.290 . S
O1190 C1201 1.278 . S
Mn1191 O1190 2.290 . S
Mn1191 O1193 2.089 . S
Mn1191 O1196 2.251 . S
Mn1191 O1197 2.087 . S
O1192 Mn1186 2.163 . S
O1192 C1202 1.244 . S
O1193 Mn1191 2.089 . S
O1193 C1200 1.256 . S
O1194 Mn1186 2.160 . S
O1194 C1203 1.239 . S
O1195 Mn1188 2.089 . S
O1195 C1203 1.256 . S
O1196 Mn1191 2.251 . S
O1196 C1201 1.241 . S
O1197 Mn1191 2.087 . S
O1197 C1202 1.256 . S
C1198 O1204 1.278 . S
C1198 O1205 1.241 . S
C1199 O1185 1.244 . S
C1199 O1187 1.256 . S
C1200 O1189 1.239 . S
C1200 O1193 1.256 . S
C1201 O1190 1.278 . S
C1201 O1196 1.241 . S
C1202 O1192 1.244 . S
C1202 O1197 1.256 . S
C1203 O1194 1.239 . S
C1203 O1195 1.256 . S
O1204 Mn1186 2.221 . S
O1204 Mn1188 2.290 . S
O1204 C1198 1.278 . S
O1205 Mn1188 2.251 . S
O1205 C1198 1.241 . S
O1206 Mn1207 2.163 . S
O1206 C1220 1.244 . S
Mn1207 O1206 2.163 . S
Mn1207 O1210 2.160 . S
Mn1207 O1211 2.221 . S
Mn1207 O1213 2.163 . S
Mn1207 O1215 2.160 . S
Mn1207 O1225 2.221 . S
O1208 Mn1209 2.087 . S
O1208 C1220 1.256 . S
Mn1209 O1208 2.087 . S
Mn1209 O1216 2.089 . S
Mn1209 O1225 2.290 . S
Mn1209 O1226 2.251 . S
O1210 Mn1207 2.160 . S
O1210 C1221 1.239 . S
O1211 Mn1207 2.221 . S
O1211 Mn1212 2.290 . S
O1211 C1222 1.278 . S
Mn1212 O1211 2.290 . S
Mn1212 O1214 2.089 . S
Mn1212 O1217 2.251 . S
Mn1212 O1218 2.087 . S
O1213 Mn1207 2.163 . S
O1213 C1223 1.244 . S
O1214 Mn1212 2.089 . S
O1214 C1221 1.256 . S
O1215 Mn1207 2.160 . S
O1215 C1224 1.239 . S
O1216 Mn1209 2.089 . S
O1216 C1224 1.256 . S
O1217 Mn1212 2.251 . S
O1217 C1222 1.241 . S
O1218 Mn1212 2.087 . S
O1218 C1223 1.256 . S
C1219 O1225 1.278 . S
C1219 O1226 1.241 . S
C1220 O1206 1.244 . S
C1220 O1208 1.256 . S
C1221 O1210 1.239 . S
C1221 O1214 1.256 . S
C1222 O1211 1.278 . S
C1222 O1217 1.241 . S
C1223 O1213 1.244 . S
C1223 O1218 1.256 . S
C1224 O1215 1.239 . S
C1224 O1216 1.256 . S
O1225 Mn1207 2.221 . S
O1225 Mn1209 2.290 . S
O1225 C1219 1.278 . S
O1226 Mn1209 2.251 . S
O1226 C1219 1.241 . S
O1227 Mn1228 2.163 . S
O1227 C1241 1.244 . S
Mn1228 O1227 2.163 . S
Mn1228 O1231 2.160 . S
Mn1228 O1232 2.221 . S
Mn1228 O1234 2.163 . S
Mn1228 O1236 2.160 . S
Mn1228 O1246 2.221 . S
O1229 Mn1230 2.087 . S
O1229 C1241 1.256 . S
Mn1230 O1229 2.087 . S
Mn1230 O1237 2.089 . S
Mn1230 O1246 2.290 . S
Mn1230 O1247 2.251 . S
O1231 Mn1228 2.160 . S
O1231 C1242 1.239 . S
O1232 Mn1228 2.221 . S
O1232 Mn1233 2.290 . S
O1232 C1243 1.278 . S
Mn1233 O1232 2.290 . S
Mn1233 O1235 2.089 . S
Mn1233 O1238 2.251 . S
Mn1233 O1239 2.087 . S
O1234 Mn1228 2.163 . S
O1234 C1244 1.244 . S
O1235 Mn1233 2.089 . S
O1235 C1242 1.256 . S
O1236 Mn1228 2.160 . S
O1236 C1245 1.239 . S
O1237 Mn1230 2.089 . S
O1237 C1245 1.256 . S
O1238 Mn1233 2.251 . S
O1238 C1243 1.241 . S
O1239 Mn1233 2.087 . S
O1239 C1244 1.256 . S
C1240 O1246 1.278 . S
C1240 O1247 1.241 . S
C1241 O1227 1.244 . S
C1241 O1229 1.256 . S
C1242 O1231 1.239 . S
C1242 O1235 1.256 . S
C1243 O1232 1.278 . S
C1243 O1238 1.241 . S
C1244 O1234 1.244 . S
C1244 O1239 1.256 . S
C1245 O1236 1.239 . S
C1245 O1237 1.256 . S
O1246 Mn1228 2.221 . S
O1246 Mn1230 2.290 . S
O1246 C1240 1.278 . S
O1247 Mn1230 2.251 . S
O1247 C1240 1.241 . S
O1248 Mn1249 2.163 . S
O1248 C1262 1.244 . S
Mn1249 O1248 2.163 . S
Mn1249 O1252 2.160 . S
Mn1249 O1253 2.221 . S
Mn1249 O1255 2.163 . S
Mn1249 O1257 2.160 . S
Mn1249 O1267 2.221 . S
O1250 Mn1251 2.087 . S
O1250 C1262 1.256 . S
Mn1251 O1250 2.087 . S
Mn1251 O1258 2.089 . S
Mn1251 O1267 2.290 . S
Mn1251 O1268 2.251 . S
O1252 Mn1249 2.160 . S
O1252 C1263 1.239 . S
O1253 Mn1249 2.221 . S
O1253 Mn1254 2.290 . S
O1253 C1264 1.278 . S
Mn1254 O1253 2.290 . S
Mn1254 O1256 2.089 . S
Mn1254 O1259 2.251 . S
Mn1254 O1260 2.087 . S
O1255 Mn1249 2.163 . S
O1255 C1265 1.244 . S
O1256 Mn1254 2.089 . S
O1256 C1263 1.256 . S
O1257 Mn1249 2.160 . S
O1257 C1266 1.239 . S
O1258 Mn1251 2.089 . S
O1258 C1266 1.256 . S
O1259 Mn1254 2.251 . S
O1259 C1264 1.241 . S
O1260 Mn1254 2.087 . S
O1260 C1265 1.256 . S
C1261 O1267 1.278 . S
C1261 O1268 1.241 . S
C1262 O1248 1.244 . S
C1262 O1250 1.256 . S
C1263 O1252 1.239 . S
C1263 O1256 1.256 . S
C1264 O1253 1.278 . S
C1264 O1259 1.241 . S
C1265 O1255 1.244 . S
C1265 O1260 1.256 . S
C1266 O1257 1.239 . S
C1266 O1258 1.256 . S
O1267 Mn1249 2.221 . S
O1267 Mn1251 2.290 . S
O1267 C1261 1.278 . S
O1268 Mn1251 2.251 . S
O1268 C1261 1.241 . S
C1269 C1270 1.349 . S
C1269 C1271 1.327 . S
C1269 H1294 0.950 . S
C1270 C1269 1.349 . S
C1270 C1286 1.349 . S
C1271 C1269 1.327 . S
C1271 C1290 1.429 . S
C1271 H1295 0.950 . S
C1272 C1289 1.574 . S
C1272 C1291 1.368 . S
C1272 H1296 0.949 . S
H1273 C1277 0.949 . S
C1274 C1275 1.349 . S
C1274 C1276 1.327 . S
C1274 H1297 0.950 1_554 S
C1275 C1274 1.349 . S
C1275 C1287 1.349 . S
C1276 C1274 1.327 . S
C1276 C1292 1.429 . S
C1276 H1298 0.982 . S
C1277 H1273 0.949 . S
C1277 C1285 1.574 . S
C1277 C1293 1.368 . S
H1278 C1286 0.950 . S
H1279 C1284 0.950 . S
H1280 C1285 0.949 . S
H1281 C1287 0.950 . S
H1282 C1288 0.950 . S
H1283 C1289 0.949 . S
C1284 H1279 0.950 . S
C1284 C1286 1.327 . S
C1284 C1290 1.429 . S
C1285 C1277 1.574 . S
C1285 H1280 0.949 . S
C1285 C1291 1.368 . S
C1286 C1270 1.349 . S
C1286 H1278 0.950 . S
C1286 C1284 1.327 . S
C1287 C1275 1.349 . S
C1287 H1281 0.950 . S
C1287 C1288 1.327 . S
C1288 H1282 0.950 . S
C1288 C1287 1.327 . S
C1288 C1292 1.429 . S
C1289 C1272 1.574 . S
C1289 H1283 0.949 . S
C1289 C1293 1.368 . S
C1290 C1271 1.429 . S
C1290 C1284 1.429 . S
C1290 C1291 1.523 . S
C1291 C1272 1.368 . S
C1291 C1285 1.368 . S
C1291 C1290 1.523 . S
C1292 C1276 1.429 . S
C1292 C1288 1.429 . S
C1292 C1293 1.523 . S
C1293 C1277 1.368 . S
C1293 C1289 1.368 . S
C1293 C1292 1.523 . S
H1294 C1269 0.950 . S
H1295 C1271 0.950 . S
H1296 C1272 0.949 . S
H1297 C1274 0.950 1_556 S
H1298 C1276 0.982 . S
C1299 C1300 1.349 . S
C1299 C1301 1.327 . S
C1299 H1324 0.950 . S
C1300 C1299 1.349 . S
C1300 C1316 1.349 . S
C1301 C1299 1.327 . S
C1301 C1320 1.429 . S
C1301 H1325 0.950 . S
C1302 C1319 1.574 . S
C1302 C1321 1.368 . S
C1302 H1326 0.949 . S
H1303 C1307 0.949 . S
C1304 C1305 1.349 . S
C1304 C1306 1.327 . S
C1304 H1327 0.950 . S
C1305 C1304 1.349 . S
C1305 C1317 1.349 . S
C1306 C1304 1.327 . S
C1306 C1322 1.429 . S
C1306 H1328 0.950 . S
C1307 H1303 0.949 . S
C1307 C1315 1.574 . S
C1307 C1323 1.368 . S
H1308 C1316 0.950 . S
H1309 C1314 0.950 . S
H1310 C1315 0.949 . S
H1311 C1317 0.950 1_556 S
H1312 C1318 0.950 . S
H1313 C1319 0.949 . S
C1314 H1309 0.950 . S
C1314 C1316 1.327 . S
C1314 C1320 1.429 . S
C1315 C1307 1.574 . S
C1315 H1310 0.949 . S
C1315 C1321 1.368 . S
C1316 C1300 1.349 . S
C1316 H1308 0.950 . S
C1316 C1314 1.327 . S
C1317 C1305 1.349 . S
C1317 H1311 0.950 1_554 S
C1317 C1318 1.327 . S
C1318 H1312 0.950 . S
C1318 C1317 1.327 . S
C1318 C1322 1.429 . S
C1319 C1302 1.574 . S
C1319 H1313 0.949 . S
C1319 C1323 1.368 . S
C1320 C1301 1.429 . S
C1320 C1314 1.429 . S
C1320 C1321 1.523 . S
C1321 C1302 1.368 . S
C1321 C1315 1.368 . S
C1321 C1320 1.523 . S
C1322 C1306 1.429 . S
C1322 C1318 1.429 . S
C1322 C1323 1.523 . S
C1323 C1307 1.368 . S
C1323 C1319 1.368 . S
C1323 C1322 1.523 . S
H1324 C1299 0.950 . S
H1325 C1301 0.950 . S
H1326 C1302 0.949 . S
H1327 C1304 0.950 . S
H1328 C1306 0.950 . S
C1329 C1330 1.349 . S
C1329 C1331 1.327 . S
C1329 H1354 0.950 . S
C1330 C1329 1.349 . S
C1330 C1346 1.349 . S
C1331 C1329 1.327 . S
C1331 C1350 1.429 . S
C1331 H1355 0.950 . S
C1332 C1349 1.574 . S
C1332 C1351 1.368 . S
C1332 H1356 0.949 . S
H1333 C1337 0.949 . S
C1334 C1335 1.349 . S
C1334 C1336 1.327 . S
C1334 H1357 0.933 1_554 S
C1335 C1334 1.349 . S
C1335 C1347 1.349 . S
C1336 C1334 1.327 . S
C1336 C1352 1.429 . S
C1336 H1358 0.950 . S
C1337 H1333 0.949 . S
C1337 C1345 1.574 . S
C1337 C1353 1.368 . S
H1338 C1346 0.950 . S
H1339 C1344 0.950 . S
H1340 C1345 0.949 . S
H1341 C1347 0.950 . S
H1342 C1348 0.950 . S
H1343 C1349 0.949 . S
C1344 H1339 0.950 . S
C1344 C1346 1.327 . S
C1344 C1350 1.429 . S
C1345 C1337 1.574 . S
C1345 H1340 0.949 . S
C1345 C1351 1.368 . S
C1346 C1330 1.349 . S
C1346 H1338 0.950 . S
C1346 C1344 1.327 . S
C1347 C1335 1.349 . S
C1347 H1341 0.950 . S
C1347 C1348 1.327 . S
C1348 H1342 0.950 . S
C1348 C1347 1.327 . S
C1348 C1352 1.429 . S
C1349 C1332 1.574 . S
C1349 H1343 0.949 . S
C1349 C1353 1.368 . S
C1350 C1331 1.429 . S
C1350 C1344 1.429 . S
C1350 C1351 1.523 . S
C1351 C1332 1.368 . S
C1351 C1345 1.368 . S
C1351 C1350 1.523 . S
C1352 C1336 1.429 . S
C1352 C1348 1.429 . S
C1352 C1353 1.523 . S
C1353 C1337 1.368 . S
C1353 C1349 1.368 . S
C1353 C1352 1.523 . S
H1354 C1329 0.950 . S
H1355 C1331 0.950 . S
H1356 C1332 0.949 . S
H1357 C1334 0.933 1_556 S
H1358 C1336 0.950 . S
C1359 C1360 1.349 . S
C1359 C1361 1.327 . S
C1359 H1384 0.950 . S
C1360 C1359 1.349 . S
C1360 C1376 1.349 . S
C1361 C1359 1.327 . S
C1361 C1380 1.429 . S
C1361 H1385 0.950 . S
C1362 C1379 1.574 . S
C1362 C1381 1.368 . S
C1362 H1386 0.949 . S
H1363 C1367 0.949 1_554 S
C1364 C1365 1.349 . S
C1364 C1366 1.327 . S
C1364 H1387 0.950 . S
C1365 C1364 1.349 . S
C1365 C1377 1.349 1_556 S
C1366 C1364 1.327 . S
C1366 C1382 1.429 . S
C1366 H1388 0.950 . S
C1367 H1363 0.949 1_556 S
C1367 C1375 1.574 . S
C1367 C1383 1.368 . S
H1368 C1376 0.950 . S
H1369 C1374 0.950 . S
H1370 C1375 0.949 1_554 S
H1371 C1377 0.950 . S
H1372 C1378 0.950 . S
H1373 C1379 0.949 . S
C1374 H1369 0.950 . S
C1374 C1376 1.327 . S
C1374 C1380 1.429 . S
C1375 C1367 1.574 . S
C1375 H1370 0.949 1_556 S
C1375 C1381 1.368 . S
C1376 C1360 1.349 . S
C1376 H1368 0.950 . S
C1376 C1374 1.327 . S
C1377 C1365 1.349 1_554 S
C1377 H1371 0.950 . S
C1377 C1378 1.327 . S
C1378 H1372 0.950 . S
C1378 C1377 1.327 . S
C1378 C1382 1.429 1_554 S
C1379 C1362 1.574 . S
C1379 H1373 0.949 . S
C1379 C1383 1.368 . S
C1380 C1361 1.429 . S
C1380 C1374 1.429 . S
C1380 C1381 1.523 . S
C1381 C1362 1.368 . S
C1381 C1375 1.368 . S
C1381 C1380 1.523 . S
C1382 C1366 1.429 . S
C1382 C1378 1.429 1_556 S
C1382 C1383 1.523 . S
C1383 C1367 1.368 . S
C1383 C1379 1.368 . S
C1383 C1382 1.523 . S
H1384 C1359 0.950 . S
H1385 C1361 0.950 . S
H1386 C1362 0.949 . S
H1387 C1364 0.950 . S
H1388 C1366 0.950 . S
C1389 C1390 1.349 . S
C1389 C1391 1.327 . S
C1389 H1414 0.950 . S
C1390 C1389 1.349 . S
C1390 C1406 1.349 . S
C1391 C1389 1.327 . S
C1391 C1410 1.429 . S
C1391 H1415 0.950 . S
C1392 C1409 1.574 . S
C1392 C1411 1.368 . S
C1392 H1416 0.949 . S
H1393 C1397 0.949 . S
C1394 C1395 1.339 1_554 S
C1394 C1396 1.323 1_554 S
C1394 H1417 0.964 . S
C1395 C1394 1.339 1_556 S
C1395 C1407 1.349 . S
C1396 C1394 1.323 1_556 S
C1396 C1412 1.429 . S
C1396 H1418 0.950 1_556 S
C1397 H1393 0.949 . S
C1397 C1405 1.574 . S
C1397 C1413 1.368 . S
H1398 C1406 0.950 . S
H1399 C1404 0.950 . S
H1400 C1405 0.949 . S
H1401 C1407 0.950 . S
H1402 C1408 0.950 . S
H1403 C1409 0.949 . S
C1404 H1399 0.950 . S
C1404 C1406 1.327 . S
C1404 C1410 1.429 . S
C1405 C1397 1.574 . S
C1405 H1400 0.949 . S
C1405 C1411 1.368 . S
C1406 C1390 1.349 . S
C1406 H1398 0.950 . S
C1406 C1404 1.327 . S
C1407 C1395 1.349 . S
C1407 H1401 0.950 . S
C1407 C1408 1.327 . S
C1408 H1402 0.950 . S
C1408 C1407 1.327 . S
C1408 C1412 1.429 . S
C1409 C1392 1.574 . S
C1409 H1403 0.949 . S
C1409 C1413 1.368 . S
C1410 C1391 1.429 . S
C1410 C1404 1.429 . S
C1410 C1411 1.523 . S
C1411 C1392 1.368 . S
C1411 C1405 1.368 . S
C1411 C1410 1.523 . S
C1412 C1396 1.429 . S
C1412 C1408 1.429 . S
C1412 C1413 1.523 . S
C1413 C1397 1.368 . S
C1413 C1409 1.368 . S
C1413 C1412 1.523 . S
H1414 C1389 0.950 . S
H1415 C1391 0.950 . S
H1416 C1392 0.949 . S
H1417 C1394 0.964 . S
H1418 C1396 0.950 1_554 S
C1419 C1420 1.349 . S
C1419 C1421 1.327 . S
C1419 H1444 0.950 . S
C1420 C1419 1.349 . S
C1420 C1436 1.349 . S
C1421 C1419 1.327 . S
C1421 C1440 1.429 . S
C1421 H1445 0.950 . S
C1422 C1439 1.574 . S
C1422 C1441 1.368 . S
C1422 H1446 0.949 . S
H1423 C1427 0.949 1_554 S
C1424 C1425 1.349 . S
C1424 C1426 1.327 . S
C1424 H1447 0.950 . S
C1425 C1424 1.349 . S
C1425 C1437 1.349 1_556 S
C1426 C1424 1.327 . S
C1426 C1442 1.429 . S
C1426 H1448 0.950 . S
C1427 H1423 0.949 1_556 S
C1427 C1435 1.574 . S
C1427 C1443 1.368 . S
H1428 C1436 0.950 . S
H1429 C1434 0.950 . S
H1430 C1435 0.949 1_554 S
H1431 C1437 0.950 . S
H1432 C1438 0.950 . S
H1433 C1439 0.949 . S
C1434 H1429 0.950 . S
C1434 C1436 1.327 . S
C1434 C1440 1.429 . S
C1435 C1427 1.574 . S
C1435 H1430 0.949 1_556 S
C1435 C1441 1.368 . S
C1436 C1420 1.349 . S
C1436 H1428 0.950 . S
C1436 C1434 1.327 . S
C1437 C1425 1.349 1_554 S
C1437 H1431 0.950 . S
C1437 C1438 1.327 . S
C1438 H1432 0.950 . S
C1438 C1437 1.327 . S
C1438 C1442 1.429 1_554 S
C1439 C1422 1.574 . S
C1439 H1433 0.949 . S
C1439 C1443 1.368 . S
C1440 C1421 1.429 . S
C1440 C1434 1.429 . S
C1440 C1441 1.523 . S
C1441 C1422 1.368 . S
C1441 C1435 1.368 . S
C1441 C1440 1.523 . S
C1442 C1426 1.429 . S
C1442 C1438 1.429 1_556 S
C1442 C1443 1.523 . S
C1443 C1427 1.368 . S
C1443 C1439 1.368 . S
C1443 C1442 1.523 . S
H1444 C1419 0.950 . S
H1445 C1421 0.950 . S
H1446 C1422 0.949 . S
H1447 C1424 0.950 . S
H1448 C1426 0.950 . S
C1449 C1450 1.349 . S
C1449 C1451 1.327 . S
C1449 H1474 0.950 . S
C1450 C1449 1.349 . S
C1450 C1466 1.349 . S
C1451 C1449 1.327 . S
C1451 C1470 1.429 . S
C1451 H1475 0.950 . S
C1452 C1469 1.574 . S
C1452 C1471 1.368 . S
C1452 H1476 0.949 . S
H1453 C1457 0.949 . S
C1454 C1455 1.349 . S
C1454 C1456 1.327 . S
C1454 H1477 0.950 . S
C1455 C1454 1.349 . S
C1455 C1467 1.349 1_556 S
C1456 C1454 1.327 . S
C1456 C1472 1.429 . S
C1456 H1478 0.950 . S
C1457 H1453 0.949 . S
C1457 C1465 1.574 . S
C1457 C1473 1.368 . S
H1458 C1466 0.950 . S
H1459 C1464 0.950 . S
H1460 C1465 0.949 . S
H1461 C1467 0.950 . S
H1462 C1468 0.945 1_554 S
H1463 C1469 0.949 . S
C1464 H1459 0.950 . S
C1464 C1466 1.327 . S
C1464 C1470 1.429 . S
C1465 C1457 1.574 . S
C1465 H1460 0.949 . S
C1465 C1471 1.368 . S
C1466 C1450 1.349 . S
C1466 H1458 0.950 . S
C1466 C1464 1.327 . S
C1467 C1455 1.349 1_554 S
C1467 H1461 0.950 . S
C1467 C1468 1.324 1_554 S
C1468 H1462 0.945 1_556 S
C1468 C1467 1.324 1_556 S
C1468 C1472 1.436 . S
C1469 C1452 1.574 . S
C1469 H1463 0.949 . S
C1469 C1473 1.368 . S
C1470 C1451 1.429 . S
C1470 C1464 1.429 . S
C1470 C1471 1.523 . S
C1471 C1452 1.368 . S
C1471 C1465 1.368 . S
C1471 C1470 1.523 . S
C1472 C1456 1.429 . S
C1472 C1468 1.436 . S
C1472 C1473 1.523 . S
C1473 C1457 1.368 . S
C1473 C1469 1.368 . S
C1473 C1472 1.523 . S
H1474 C1449 0.950 . S
H1475 C1451 0.950 . S
H1476 C1452 0.949 . S
H1477 C1454 0.950 . S
H1478 C1456 0.950 . S
C1479 C1480 1.349 . S
C1479 C1481 1.327 . S
C1479 H1504 0.950 . S
C1480 C1479 1.349 . S
C1480 C1496 1.349 . S
C1481 C1479 1.327 . S
C1481 C1500 1.429 . S
C1481 H1505 0.950 . S
C1482 C1499 1.574 . S
C1482 C1501 1.368 . S
C1482 H1506 0.949 . S
H1483 C1487 0.949 1_554 S
C1484 C1485 1.349 . S
C1484 C1486 1.327 . S
C1484 H1507 0.950 . S
C1485 C1484 1.349 . S
C1485 C1497 1.349 1_556 S
C1486 C1484 1.327 . S
C1486 C1502 1.429 . S
C1486 H1508 0.950 . S
C1487 H1483 0.949 1_556 S
C1487 C1495 1.574 . S
C1487 C1503 1.368 . S
H1488 C1496 0.950 . S
H1489 C1494 0.950 . S
H1490 C1495 0.949 . S
H1491 C1497 0.950 . S
H1492 C1498 0.950 . S
H1493 C1499 0.949 . S
C1494 H1489 0.950 . S
C1494 C1496 1.327 . S
C1494 C1500 1.429 . S
C1495 C1487 1.574 . S
C1495 H1490 0.949 . S
C1495 C1501 1.368 . S
C1496 C1480 1.349 . S
C1496 H1488 0.950 . S
C1496 C1494 1.327 . S
C1497 C1485 1.349 1_554 S
C1497 H1491 0.950 . S
C1497 C1498 1.327 . S
C1498 H1492 0.950 . S
C1498 C1497 1.327 . S
C1498 C1502 1.429 1_554 S
C1499 C1482 1.574 . S
C1499 H1493 0.949 . S
C1499 C1503 1.368 . S
C1500 C1481 1.429 . S
C1500 C1494 1.429 . S
C1500 C1501 1.523 . S
C1501 C1482 1.368 . S
C1501 C1495 1.368 . S
C1501 C1500 1.523 . S
C1502 C1486 1.429 . S
C1502 C1498 1.429 1_556 S
C1502 C1503 1.523 . S
C1503 C1487 1.368 . S
C1503 C1499 1.368 . S
C1503 C1502 1.523 . S
H1504 C1479 0.950 . S
H1505 C1481 0.950 . S
H1506 C1482 0.949 . S
H1507 C1484 0.950 . S
H1508 C1486 0.950 . S
C1509 C1510 1.349 . S
C1509 C1511 1.327 . S
C1509 H1534 0.950 . S
C1510 C1509 1.349 . S
C1510 C1526 1.349 . S
C1511 C1509 1.327 . S
C1511 C1530 1.429 . S
C1511 H1535 0.950 . S
C1512 C1529 1.571 1_556 S
C1512 C1531 1.368 . S
C1512 H1536 0.949 1_556 S
H1513 C1517 0.949 . S
C1514 C1515 1.349 1_554 S
C1514 C1516 1.327 . S
C1514 H1537 0.950 . S
C1515 C1514 1.349 1_556 S
C1515 C1527 1.349 . S
C1516 C1514 1.327 . S
C1516 C1532 1.429 1_554 S
C1516 H1538 0.950 . S
C1517 H1513 0.949 . S
C1517 C1525 1.574 . S
C1517 C1533 1.368 . S
H1518 C1526 0.950 . S
H1519 C1524 0.983 . S
H1520 C1525 0.949 . S
H1521 C1527 0.950 . S
H1522 C1528 0.950 . S
H1523 C1529 0.959 . S
C1524 H1519 0.983 . S
C1524 C1526 1.327 . S
C1524 C1530 1.429 . S
C1525 C1517 1.574 . S
C1525 H1520 0.949 . S
C1525 C1531 1.368 . S
C1526 C1510 1.349 . S
C1526 H1518 0.950 . S
C1526 C1524 1.327 . S
C1527 C1515 1.349 . S
C1527 H1521 0.950 . S
C1527 C1528 1.327 . S
C1528 H1522 0.950 . S
C1528 C1527 1.327 . S
C1528 C1532 1.429 . S
C1529 C1512 1.571 1_554 S
C1529 H1523 0.959 . S
C1529 C1533 1.359 1_554 S
C1530 C1511 1.429 . S
C1530 C1524 1.429 . S
C1530 C1531 1.523 . S
C1531 C1512 1.368 . S
C1531 C1525 1.368 . S
C1531 C1530 1.523 . S
C1532 C1516 1.429 1_556 S
C1532 C1528 1.429 . S
C1532 C1533 1.523 . S
C1533 C1517 1.368 . S
C1533 C1529 1.359 1_556 S
C1533 C1532 1.523 . S
H1534 C1509 0.950 . S
H1535 C1511 0.950 . S
H1536 C1512 0.949 1_554 S
H1537 C1514 0.950 . S
H1538 C1516 0.950 . S
C1539 C1540 1.349 . S
C1539 C1541 1.327 . S
C1539 H1564 0.950 . S
C1540 C1539 1.349 . S
C1540 C1556 1.349 . S
C1541 C1539 1.327 . S
C1541 C1560 1.429 . S
C1541 H1565 0.950 . S
C1542 C1559 1.574 . S
C1542 C1561 1.368 . S
C1542 H1566 0.949 . S
H1543 C1547 0.949 . S
C1544 C1545 1.349 . S
C1544 C1546 1.327 . S
C1544 H1567 0.950 . S
C1545 C1544 1.349 . S
C1545 C1557 1.349 . S
C1546 C1544 1.327 . S
C1546 C1562 1.429 . S
C1546 H1568 0.950 . S
C1547 H1543 0.949 . S
C1547 C1555 1.574 . S
C1547 C1563 1.368 . S
H1548 C1556 0.950 . S
H1549 C1554 0.950 . S
H1550 C1555 0.949 . S
H1551 C1557 0.950 1_556 S
H1552 C1558 0.950 1_556 S
H1553 C1559 0.949 . S
C1554 H1549 0.950 . S
C1554 C1556 1.327 . S
C1554 C1560 1.429 . S
C1555 C1547 1.574 . S
C1555 H1550 0.949 . S
C1555 C1561 1.368 . S
C1556 C1540 1.349 . S
C1556 H1548 0.950 . S
C1556 C1554 1.327 . S
C1557 C1545 1.349 . S
C1557 H1551 0.950 1_554 S
C1557 C1558 1.327 . S
C1558 H1552 0.950 1_554 S
C1558 C1557 1.327 . S
C1558 C1562 1.429 . S
C1559 C1542 1.574 . S
C1559 H1553 0.949 . S
C1559 C1563 1.368 . S
C1560 C1541 1.429 . S
C1560 C1554 1.429 . S
C1560 C1561 1.523 . S
C1561 C1542 1.368 . S
C1561 C1555 1.368 . S
C1561 C1560 1.523 . S
C1562 C1546 1.429 . S
C1562 C1558 1.429 . S
C1562 C1563 1.523 . S
C1563 C1547 1.368 . S
C1563 C1559 1.368 . S
C1563 C1562 1.523 . S
H1564 C1539 0.950 . S
H1565 C1541 0.950 . S
H1566 C1542 0.949 . S
H1567 C1544 0.950 . S
H1568 C1546 0.950 . S
C1569 C1570 1.349 . S
C1569 C1571 1.327 . S
C1569 H1594 0.950 . S
C1570 C1569 1.349 . S
C1570 C1586 1.349 . S
C1571 C1569 1.327 . S
C1571 C1590 1.429 . S
C1571 H1595 0.950 . S
C1572 C1589 1.574 . S
C1572 C1591 1.368 . S
C1572 H1596 0.949 . S
H1573 C1577 0.949 1_556 S
C1574 C1575 1.349 . S
C1574 C1576 1.327 . S
C1574 H1597 0.950 . S
C1575 C1574 1.349 . S
C1575 C1587 1.342 1_554 S
C1576 C1574 1.327 . S
C1576 C1592 1.429 . S
C1576 H1598 0.950 . S
C1577 H1573 0.949 1_554 S
C1577 C1585 1.574 . S
C1577 C1593 1.368 . S
H1578 C1586 0.950 . S
H1579 C1584 0.950 . S
H1580 C1585 0.949 . S
H1581 C1587 0.959 . S
H1582 C1588 0.950 1_556 S
H1583 C1589 0.949 . S
C1584 H1579 0.950 . S
C1584 C1586 1.327 . S
C1584 C1590 1.429 . S
C1585 C1577 1.574 . S
C1585 H1580 0.949 . S
C1585 C1591 1.368 . S
C1586 C1570 1.349 . S
C1586 H1578 0.950 . S
C1586 C1584 1.327 . S
C1587 C1575 1.342 1_556 S
C1587 H1581 0.959 . S
C1587 C1588 1.325 1_556 S
C1588 H1582 0.950 1_554 S
C1588 C1587 1.325 1_554 S
C1588 C1592 1.429 . S
C1589 C1572 1.574 . S
C1589 H1583 0.949 . S
C1589 C1593 1.368 . S
C1590 C1571 1.429 . S
C1590 C1584 1.429 . S
C1590 C1591 1.523 . S
C1591 C1572 1.368 . S
C1591 C1585 1.368 . S
C1591 C1590 1.523 . S
C1592 C1576 1.429 . S
C1592 C1588 1.429 . S
C1592 C1593 1.523 . S
C1593 C1577 1.368 . S
C1593 C1589 1.368 . S
C1593 C1592 1.523 . S
H1594 C1569 0.950 . S
H1595 C1571 0.950 . S
H1596 C1572 0.949 . S
H1597 C1574 0.950 . S
H1598 C1576 0.950 . S
C1599 C1600 1.349 . S
C1599 C1601 1.327 . S
C1599 H1624 0.950 . S
C1600 C1599 1.349 . S
C1600 C1616 1.349 . S
C1601 C1599 1.327 . S
C1601 C1620 1.429 . S
C1601 H1625 0.950 . S
C1602 C1619 1.574 . S
C1602 C1621 1.368 . S
C1602 H1626 0.949 . S
H1603 C1607 0.949 . S
C1604 C1605 1.349 . S
C1604 C1606 1.327 . S
C1604 H1627 0.950 1_554 S
C1605 C1604 1.349 . S
C1605 C1617 1.349 . S
C1606 C1604 1.327 . S
C1606 C1622 1.429 . S
C1606 H1628 0.950 1_554 S
C1607 H1603 0.949 . S
C1607 C1615 1.574 . S
C1607 C1623 1.368 . S
H1608 C1616 0.950 . S
H1609 C1614 0.950 . S
H1610 C1615 0.949 . S
H1611 C1617 0.950 . S
H1612 C1618 0.950 . S
H1613 C1619 0.949 . S
C1614 H1609 0.950 . S
C1614 C1616 1.327 . S
C1614 C1620 1.429 . S
C1615 C1607 1.574 . S
C1615 H1610 0.949 . S
C1615 C1621 1.368 . S
C1616 C1600 1.349 . S
C1616 H1608 0.950 . S
C1616 C1614 1.327 . S
C1617 C1605 1.349 . S
C1617 H1611 0.950 . S
C1617 C1618 1.327 . S
C1618 H1612 0.950 . S
C1618 C1617 1.327 . S
C1618 C1622 1.429 . S
C1619 C1602 1.574 . S
C1619 H1613 0.949 . S
C1619 C1623 1.368 . S
C1620 C1601 1.429 . S
C1620 C1614 1.429 . S
C1620 C1621 1.523 . S
C1621 C1602 1.368 . S
C1621 C1615 1.368 . S
C1621 C1620 1.523 . S
C1622 C1606 1.429 . S
C1622 C1618 1.429 . S
C1622 C1623 1.523 . S
C1623 C1607 1.368 . S
C1623 C1619 1.368 . S
C1623 C1622 1.523 . S
H1624 C1599 0.950 . S
H1625 C1601 0.950 . S
H1626 C1602 0.949 . S
H1627 C1604 0.950 1_556 S
H1628 C1606 0.950 1_556 S
C1629 C1630 1.349 . S
C1629 C1631 1.327 . S
C1629 H1654 0.950 . S
C1630 C1629 1.349 . S
C1630 C1646 1.349 . S
C1631 C1629 1.327 . S
C1631 C1650 1.429 . S
C1631 H1655 0.950 . S
C1632 C1649 1.574 . S
C1632 C1651 1.368 . S
C1632 H1656 0.949 . S
H1633 C1637 0.949 . S
C1634 C1635 1.349 . S
C1634 C1636 1.327 . S
C1634 H1657 0.950 . S
C1635 C1634 1.349 . S
C1635 C1647 1.349 . S
C1636 C1634 1.327 . S
C1636 C1652 1.429 . S
C1636 H1658 0.950 . S
C1637 H1633 0.949 . S
C1637 C1645 1.574 . S
C1637 C1653 1.368 . S
H1638 C1646 0.950 . S
H1639 C1644 0.950 . S
H1640 C1645 0.949 . S
H1641 C1647 0.950 . S
H1642 C1648 0.950 . S
H1643 C1649 0.949 . S
C1644 H1639 0.950 . S
C1644 C1646 1.327 . S
C1644 C1650 1.429 . S
C1645 C1637 1.574 . S
C1645 H1640 0.949 . S
C1645 C1651 1.368 . S
C1646 C1630 1.349 . S
C1646 H1638 0.950 . S
C1646 C1644 1.327 . S
C1647 C1635 1.349 . S
C1647 H1641 0.950 . S
C1647 C1648 1.327 . S
C1648 H1642 0.950 . S
C1648 C1647 1.327 . S
C1648 C1652 1.429 . S
C1649 C1632 1.574 . S
C1649 H1643 0.949 . S
C1649 C1653 1.368 . S
C1650 C1631 1.429 . S
C1650 C1644 1.429 . S
C1650 C1651 1.523 1_655 S
C1651 C1632 1.368 . S
C1651 C1645 1.368 . S
C1651 C1650 1.523 1_455 S
C1652 C1636 1.429 . S
C1652 C1648 1.429 . S
C1652 C1653 1.523 . S
C1653 C1637 1.368 . S
C1653 C1649 1.368 . S
C1653 C1652 1.523 . S
H1654 C1629 0.950 . S
H1655 C1631 0.950 . S
H1656 C1632 0.949 . S
H1657 C1634 0.950 . S
H1658 C1636 0.950 . S
C1659 C1660 1.349 . S
C1659 C1661 1.327 . S
C1659 H1684 0.950 . S
C1660 C1659 1.349 . S
C1660 C1676 1.349 . S
C1661 C1659 1.327 . S
C1661 C1680 1.429 . S
C1661 H1685 0.950 . S
C1662 C1679 1.574 . S
C1662 C1681 1.368 . S
C1662 H1686 0.949 . S
H1663 C1667 0.949 . S
C1664 C1665 1.349 . S
C1664 C1666 1.327 . S
C1664 H1687 0.950 . S
C1665 C1664 1.349 . S
C1665 C1677 1.349 . S
C1666 C1664 1.327 . S
C1666 C1682 1.429 . S
C1666 H1688 0.950 . S
C1667 H1663 0.949 . S
C1667 C1675 1.574 . S
C1667 C1683 1.368 . S
H1668 C1676 0.950 . S
H1669 C1674 0.950 . S
H1670 C1675 0.949 . S
H1671 C1677 0.950 . S
H1672 C1678 0.950 . S
H1673 C1679 0.949 . S
C1674 H1669 0.950 . S
C1674 C1676 1.327 . S
C1674 C1680 1.429 . S
C1675 C1667 1.574 . S
C1675 H1670 0.949 . S
C1675 C1681 1.368 . S
C1676 C1660 1.349 . S
C1676 H1668 0.950 . S
C1676 C1674 1.327 . S
C1677 C1665 1.349 . S
C1677 H1671 0.950 . S
C1677 C1678 1.327 . S
C1678 H1672 0.950 . S
C1678 C1677 1.327 . S
C1678 C1682 1.429 . S
C1679 C1662 1.574 . S
C1679 H1673 0.949 . S
C1679 C1683 1.368 . S
C1680 C1661 1.429 . S
C1680 C1674 1.429 . S
C1680 C1681 1.523 . S
C1681 C1662 1.368 . S
C1681 C1675 1.368 . S
C1681 C1680 1.523 . S
C1682 C1666 1.429 . S
C1682 C1678 1.429 . S
C1682 C1683 1.523 . S
C1683 C1667 1.368 . S
C1683 C1679 1.368 . S
C1683 C1682 1.523 . S
H1684 C1659 0.950 . S
H1685 C1661 0.950 . S
H1686 C1662 0.949 . S
H1687 C1664 0.950 . S
H1688 C1666 0.950 . S
C1689 C1690 1.349 . S
C1689 C1691 1.327 . S
C1689 H1714 0.950 . S
C1690 C1689 1.349 . S
C1690 C1706 1.349 . S
C1691 C1689 1.327 . S
C1691 C1710 1.429 . S
C1691 H1715 0.950 . S
C1692 C1709 1.574 . S
C1692 C1711 1.368 . S
C1692 H1716 0.949 . S
H1693 C1697 0.949 . S
C1694 C1695 1.349 . S
C1694 C1696 1.327 . S
C1694 H1717 0.950 . S
C1695 C1694 1.349 . S
C1695 C1707 1.349 . S
C1696 C1694 1.327 . S
C1696 C1712 1.429 . S
C1696 H1718 0.950 . S
C1697 H1693 0.949 . S
C1697 C1705 1.574 . S
C1697 C1713 1.368 . S
H1698 C1706 0.950 . S
H1699 C1704 0.950 . S
H1700 C1705 0.949 . S
H1701 C1707 0.950 . S
H1702 C1708 0.950 . S
H1703 C1709 0.949 . S
C1704 H1699 0.950 . S
C1704 C1706 1.327 . S
C1704 C1710 1.429 . S
C1705 C1697 1.574 . S
C1705 H1700 0.949 . S
C1705 C1711 1.368 . S
C1706 C1690 1.349 . S
C1706 H1698 0.950 . S
C1706 C1704 1.327 . S
C1707 C1695 1.349 . S
C1707 H1701 0.950 . S
C1707 C1708 1.327 . S
C1708 H1702 0.950 . S
C1708 C1707 1.327 . S
C1708 C1712 1.429 . S
C1709 C1692 1.574 . S
C1709 H1703 0.949 . S
C1709 C1713 1.368 . S
C1710 C1691 1.429 . S
C1710 C1704 1.429 . S
C1710 C1711 1.523 1_545 S
C1711 C1692 1.368 . S
C1711 C1705 1.368 . S
C1711 C1710 1.523 1_565 S
C1712 C1696 1.429 . S
C1712 C1708 1.429 . S
C1712 C1713 1.523 . S
C1713 C1697 1.368 . S
C1713 C1709 1.368 . S
C1713 C1712 1.523 . S
H1714 C1689 0.950 . S
H1715 C1691 0.950 . S
H1716 C1692 0.949 . S
H1717 C1694 0.950 . S
H1718 C1696 0.950 . S
C1719 C1720 1.349 . S
C1719 C1721 1.327 . S
C1719 H1744 0.950 . S
C1720 C1719 1.349 . S
C1720 C1736 1.349 . S
C1721 C1719 1.327 . S
C1721 C1740 1.429 . S
C1721 H1745 0.950 . S
C1722 C1739 1.574 . S
C1722 C1741 1.368 . S
C1722 H1746 0.949 . S
H1723 C1727 0.949 . S
C1724 C1725 1.349 . S
C1724 C1726 1.327 . S
C1724 H1747 0.950 . S
C1725 C1724 1.349 . S
C1725 C1737 1.349 . S
C1726 C1724 1.327 . S
C1726 C1742 1.429 . S
C1726 H1748 0.950 . S
C1727 H1723 0.949 . S
C1727 C1735 1.574 . S
C1727 C1743 1.368 . S
H1728 C1736 0.950 . S
H1729 C1734 0.950 . S
H1730 C1735 0.949 . S
H1731 C1737 0.950 . S
H1732 C1738 0.950 . S
H1733 C1739 0.949 . S
C1734 H1729 0.950 . S
C1734 C1736 1.327 . S
C1734 C1740 1.429 . S
C1735 C1727 1.574 . S
C1735 H1730 0.949 . S
C1735 C1741 1.368 . S
C1736 C1720 1.349 . S
C1736 H1728 0.950 . S
C1736 C1734 1.327 . S
C1737 C1725 1.349 . S
C1737 H1731 0.950 . S
C1737 C1738 1.327 . S
C1738 H1732 0.950 . S
C1738 C1737 1.327 . S
C1738 C1742 1.429 . S
C1739 C1722 1.574 . S
C1739 H1733 0.949 . S
C1739 C1743 1.368 . S
C1740 C1721 1.429 . S
C1740 C1734 1.429 . S
C1740 C1741 1.523 . S
C1741 C1722 1.368 . S
C1741 C1735 1.368 . S
C1741 C1740 1.523 . S
C1742 C1726 1.429 . S
C1742 C1738 1.429 . S
C1742 C1743 1.523 . S
C1743 C1727 1.368 . S
C1743 C1739 1.368 . S
C1743 C1742 1.523 . S
H1744 C1719 0.950 . S
H1745 C1721 0.950 . S
H1746 C1722 0.949 . S
H1747 C1724 0.950 . S
H1748 C1726 0.950 . S
C1749 C1750 1.349 . S
C1749 C1751 1.327 . S
C1749 H1774 0.950 . S
C1750 C1749 1.349 . S
C1750 C1766 1.349 . S
C1751 C1749 1.327 . S
C1751 C1770 1.429 . S
C1751 H1775 0.950 . S
C1752 C1769 1.574 . S
C1752 C1771 1.368 . S
C1752 H1776 0.949 . S
H1753 C1757 0.949 . S
C1754 C1755 1.349 . S
C1754 C1756 1.327 . S
C1754 H1777 0.950 . S
C1755 C1754 1.349 . S
C1755 C1767 1.349 . S
C1756 C1754 1.327 . S
C1756 C1772 1.429 . S
C1756 H1778 0.950 . S
C1757 H1753 0.949 . S
C1757 C1765 1.574 . S
C1757 C1773 1.368 . S
H1758 C1766 0.950 . S
H1759 C1764 0.950 . S
H1760 C1765 0.949 . S
H1761 C1767 0.950 . S
H1762 C1768 0.950 . S
H1763 C1769 0.949 . S
C1764 H1759 0.950 . S
C1764 C1766 1.327 . S
C1764 C1770 1.429 . S
C1765 C1757 1.574 . S
C1765 H1760 0.949 . S
C1765 C1771 1.368 . S
C1766 C1750 1.349 . S
C1766 H1758 0.950 . S
C1766 C1764 1.327 . S
C1767 C1755 1.349 . S
C1767 H1761 0.950 . S
C1767 C1768 1.327 . S
C1768 H1762 0.950 . S
C1768 C1767 1.327 . S
C1768 C1772 1.429 . S
C1769 C1752 1.574 . S
C1769 H1763 0.949 . S
C1769 C1773 1.368 . S
C1770 C1751 1.429 . S
C1770 C1764 1.429 . S
C1770 C1771 1.523 . S
C1771 C1752 1.368 . S
C1771 C1765 1.368 . S
C1771 C1770 1.523 . S
C1772 C1756 1.429 . S
C1772 C1768 1.429 . S
C1772 C1773 1.523 . S
C1773 C1757 1.368 . S
C1773 C1769 1.368 . S
C1773 C1772 1.523 . S
H1774 C1749 0.950 . S
H1775 C1751 0.950 . S
H1776 C1752 0.949 . S
H1777 C1754 0.950 . S
H1778 C1756 0.950 . S
C1779 C1780 1.349 . S
C1779 C1781 1.327 . S
C1779 H1804 0.950 . S
C1780 C1779 1.349 . S
C1780 C1796 1.349 . S
C1781 C1779 1.327 . S
C1781 C1800 1.429 . S
C1781 H1805 0.950 . S
C1782 C1799 1.574 . S
C1782 C1801 1.368 . S
C1782 H1806 0.949 . S
H1783 C1787 0.949 . S
C1784 C1785 1.349 . S
C1784 C1786 1.327 . S
C1784 H1807 0.950 . S
C1785 C1784 1.349 . S
C1785 C1797 1.349 . S
C1786 C1784 1.327 . S
C1786 C1802 1.429 . S
C1786 H1808 0.950 . S
C1787 H1783 0.949 . S
C1787 C1795 1.574 . S
C1787 C1803 1.368 . S
H1788 C1796 0.950 . S
H1789 C1794 0.950 . S
H1790 C1795 0.949 . S
H1791 C1797 0.950 . S
H1792 C1798 0.950 . S
H1793 C1799 0.949 . S
C1794 H1789 0.950 . S
C1794 C1796 1.327 . S
C1794 C1800 1.429 . S
C1795 C1787 1.574 . S
C1795 H1790 0.949 . S
C1795 C1801 1.368 . S
C1796 C1780 1.349 . S
C1796 H1788 0.950 . S
C1796 C1794 1.327 . S
C1797 C1785 1.349 . S
C1797 H1791 0.950 . S
C1797 C1798 1.327 . S
C1798 H1792 0.950 . S
C1798 C1797 1.327 . S
C1798 C1802 1.429 . S
C1799 C1782 1.574 . S
C1799 H1793 0.949 . S
C1799 C1803 1.368 . S
C1800 C1781 1.429 . S
C1800 C1794 1.429 . S
C1800 C1801 1.523 . S
C1801 C1782 1.368 . S
C1801 C1795 1.368 . S
C1801 C1800 1.523 . S
C1802 C1786 1.429 . S
C1802 C1798 1.429 . S
C1802 C1803 1.523 . S
C1803 C1787 1.368 . S
C1803 C1799 1.368 . S
C1803 C1802 1.523 . S
H1804 C1779 0.950 . S
H1805 C1781 0.950 . S
H1806 C1782 0.949 . S
H1807 C1784 0.950 . S
H1808 C1786 0.950 . S
C1809 C1810 1.349 . S
C1809 C1811 1.327 . S
C1809 H1834 0.950 . S
C1810 C1809 1.349 . S
C1810 C1826 1.349 . S
C1811 C1809 1.327 . S
C1811 C1830 1.429 . S
C1811 H1835 0.950 . S
C1812 C1829 1.574 . S
C1812 C1831 1.368 . S
C1812 H1836 0.949 . S
H1813 C1817 0.949 . S
C1814 C1815 1.349 . S
C1814 C1816 1.327 . S
C1814 H1837 0.950 . S
C1815 C1814 1.349 . S
C1815 C1827 1.349 . S
C1816 C1814 1.327 . S
C1816 C1832 1.429 . S
C1816 H1838 0.950 . S
C1817 H1813 0.949 . S
C1817 C1825 1.574 . S
C1817 C1833 1.368 . S
H1818 C1826 0.950 . S
H1819 C1824 0.950 . S
H1820 C1825 0.949 . S
H1821 C1827 0.950 . S
H1822 C1828 0.950 . S
H1823 C1829 0.949 . S
C1824 H1819 0.950 . S
C1824 C1826 1.327 . S
C1824 C1830 1.429 . S
C1825 C1817 1.574 . S
C1825 H1820 0.949 . S
C1825 C1831 1.368 . S
C1826 C1810 1.349 . S
C1826 H1818 0.950 . S
C1826 C1824 1.327 . S
C1827 C1815 1.349 . S
C1827 H1821 0.950 . S
C1827 C1828 1.327 . S
C1828 H1822 0.950 . S
C1828 C1827 1.327 . S
C1828 C1832 1.429 . S
C1829 C1812 1.574 . S
C1829 H1823 0.949 . S
C1829 C1833 1.368 . S
C1830 C1811 1.429 . S
C1830 C1824 1.429 . S
C1830 C1831 1.523 . S
C1831 C1812 1.368 . S
C1831 C1825 1.368 . S
C1831 C1830 1.523 . S
C1832 C1816 1.429 . S
C1832 C1828 1.429 . S
C1832 C1833 1.523 . S
C1833 C1817 1.368 . S
C1833 C1829 1.368 . S
C1833 C1832 1.523 . S
H1834 C1809 0.950 . S
H1835 C1811 0.950 . S
H1836 C1812 0.949 . S
H1837 C1814 0.950 . S
H1838 C1816 0.950 . S
C1839 C1840 1.349 . S
C1839 C1841 1.327 . S
C1839 H1864 0.950 . S
C1840 C1839 1.349 . S
C1840 C1856 1.349 . S
C1841 C1839 1.327 . S
C1841 C1860 1.429 . S
C1841 H1865 0.950 . S
C1842 C1859 1.574 . S
C1842 C1861 1.368 . S
C1842 H1866 0.949 . S
H1843 C1847 0.949 . S
C1844 C1845 1.349 . S
C1844 C1846 1.327 . S
C1844 H1867 0.950 . S
C1845 C1844 1.349 . S
C1845 C1857 1.349 . S
C1846 C1844 1.327 . S
C1846 C1862 1.429 . S
C1846 H1868 0.950 . S
C1847 H1843 0.949 . S
C1847 C1855 1.574 . S
C1847 C1863 1.368 . S
H1848 C1856 0.950 . S
H1849 C1854 0.950 . S
H1850 C1855 0.949 . S
H1851 C1857 0.950 . S
H1852 C1858 0.950 . S
H1853 C1859 0.949 . S
C1854 H1849 0.950 . S
C1854 C1856 1.327 . S
C1854 C1860 1.429 . S
C1855 C1847 1.574 . S
C1855 H1850 0.949 . S
C1855 C1861 1.368 . S
C1856 C1840 1.349 . S
C1856 H1848 0.950 . S
C1856 C1854 1.327 . S
C1857 C1845 1.349 . S
C1857 H1851 0.950 . S
C1857 C1858 1.327 . S
C1858 H1852 0.950 . S
C1858 C1857 1.327 . S
C1858 C1862 1.429 . S
C1859 C1842 1.574 . S
C1859 H1853 0.949 . S
C1859 C1863 1.368 . S
C1860 C1841 1.429 . S
C1860 C1854 1.429 . S
C1860 C1861 1.523 . S
C1861 C1842 1.368 . S
C1861 C1855 1.368 . S
C1861 C1860 1.523 . S
C1862 C1846 1.429 . S
C1862 C1858 1.429 . S
C1862 C1863 1.523 . S
C1863 C1847 1.368 . S
C1863 C1859 1.368 . S
C1863 C1862 1.523 . S
H1864 C1839 0.950 . S
H1865 C1841 0.950 . S
H1866 C1842 0.949 . S
H1867 C1844 0.950 . S
H1868 C1846 0.950 . S
C1869 C1870 1.349 . S
C1869 C1871 1.327 . S
C1869 H1894 0.950 . S
C1870 C1869 1.349 . S
C1870 C1886 1.349 . S
C1871 C1869 1.327 . S
C1871 C1890 1.429 . S
C1871 H1895 0.950 . S
C1872 C1889 1.574 . S
C1872 C1891 1.368 . S
C1872 H1896 0.949 . S
H1873 C1877 0.949 . S
C1874 C1875 1.349 . S
C1874 C1876 1.327 . S
C1874 H1897 0.950 . S
C1875 C1874 1.349 . S
C1875 C1887 1.349 . S
C1876 C1874 1.327 . S
C1876 C1892 1.429 . S
C1876 H1898 0.950 . S
C1877 H1873 0.949 . S
C1877 C1885 1.574 . S
C1877 C1893 1.368 . S
H1878 C1886 0.950 . S
H1879 C1884 0.950 . S
H1880 C1885 0.949 . S
H1881 C1887 0.950 . S
H1882 C1888 0.950 . S
H1883 C1889 0.949 . S
C1884 H1879 0.950 . S
C1884 C1886 1.327 . S
C1884 C1890 1.429 . S
C1885 C1877 1.574 . S
C1885 H1880 0.949 . S
C1885 C1891 1.368 . S
C1886 C1870 1.349 . S
C1886 H1878 0.950 . S
C1886 C1884 1.327 . S
C1887 C1875 1.349 . S
C1887 H1881 0.950 . S
C1887 C1888 1.327 . S
C1888 H1882 0.950 . S
C1888 C1887 1.327 . S
C1888 C1892 1.429 . S
C1889 C1872 1.574 . S
C1889 H1883 0.949 . S
C1889 C1893 1.368 . S
C1890 C1871 1.429 . S
C1890 C1884 1.429 . S
C1890 C1891 1.523 . S
C1891 C1872 1.368 . S
C1891 C1885 1.368 . S
C1891 C1890 1.523 . S
C1892 C1876 1.429 . S
C1892 C1888 1.429 . S
C1892 C1893 1.523 . S
C1893 C1877 1.368 . S
C1893 C1889 1.368 . S
C1893 C1892 1.523 . S
H1894 C1869 0.950 . S
H1895 C1871 0.950 . S
H1896 C1872 0.949 . S
H1897 C1874 0.950 . S
H1898 C1876 0.950 . S
C1899 C1900 1.349 . S
C1899 C1901 1.327 . S
C1899 H1924 0.950 . S
C1900 C1899 1.349 . S
C1900 C1916 1.349 . S
C1901 C1899 1.327 . S
C1901 C1920 1.429 . S
C1901 H1925 0.950 . S
C1902 C1919 1.574 . S
C1902 C1921 1.368 . S
C1902 H1926 0.949 . S
H1903 C1907 0.949 . S
C1904 C1905 1.349 . S
C1904 C1906 1.327 . S
C1904 H1927 0.950 . S
C1905 C1904 1.349 . S
C1905 C1917 1.349 . S
C1906 C1904 1.327 . S
C1906 C1922 1.429 . S
C1906 H1928 0.950 . S
C1907 H1903 0.949 . S
C1907 C1915 1.574 . S
C1907 C1923 1.368 . S
H1908 C1916 0.950 . S
H1909 C1914 0.950 . S
H1910 C1915 0.949 . S
H1911 C1917 0.950 . S
H1912 C1918 0.950 . S
H1913 C1919 0.949 . S
C1914 H1909 0.950 . S
C1914 C1916 1.327 . S
C1914 C1920 1.429 . S
C1915 C1907 1.574 . S
C1915 H1910 0.949 . S
C1915 C1921 1.368 . S
C1916 C1900 1.349 . S
C1916 H1908 0.950 . S
C1916 C1914 1.327 . S
C1917 C1905 1.349 . S
C1917 H1911 0.950 . S
C1917 C1918 1.327 . S
C1918 H1912 0.950 . S
C1918 C1917 1.327 . S
C1918 C1922 1.429 . S
C1919 C1902 1.574 . S
C1919 H1913 0.949 . S
C1919 C1923 1.368 . S
C1920 C1901 1.429 . S
C1920 C1914 1.429 . S
C1920 C1921 1.523 1_545 S
C1921 C1902 1.368 . S
C1921 C1915 1.368 . S
C1921 C1920 1.523 1_565 S
C1922 C1906 1.429 . S
C1922 C1918 1.429 . S
C1922 C1923 1.523 . S
C1923 C1907 1.368 . S
C1923 C1919 1.368 . S
C1923 C1922 1.523 . S
H1924 C1899 0.950 . S
H1925 C1901 0.950 . S
H1926 C1902 0.949 . S
H1927 C1904 0.950 . S
H1928 C1906 0.950 . S
C1929 C1930 1.349 . S
C1929 C1931 1.327 . S
C1929 H1954 0.950 . S
C1930 C1929 1.349 . S
C1930 C1946 1.349 . S
C1931 C1929 1.327 . S
C1931 C1950 1.429 . S
C1931 H1955 0.950 . S
C1932 C1949 1.574 . S
C1932 C1951 1.368 . S
C1932 H1956 0.949 . S
H1933 C1937 0.949 . S
C1934 C1935 1.349 . S
C1934 C1936 1.327 . S
C1934 H1957 0.950 . S
C1935 C1934 1.349 . S
C1935 C1947 1.349 . S
C1936 C1934 1.327 . S
C1936 C1952 1.429 . S
C1936 H1958 0.950 . S
C1937 H1933 0.949 . S
C1937 C1945 1.574 . S
C1937 C1953 1.368 . S
H1938 C1946 0.950 . S
H1939 C1944 0.950 . S
H1940 C1945 0.949 . S
H1941 C1947 0.950 . S
H1942 C1948 0.950 . S
H1943 C1949 0.949 . S
C1944 H1939 0.950 . S
C1944 C1946 1.327 . S
C1944 C1950 1.429 . S
C1945 C1937 1.574 . S
C1945 H1940 0.949 . S
C1945 C1951 1.368 . S
C1946 C1930 1.349 . S
C1946 H1938 0.950 . S
C1946 C1944 1.327 . S
C1947 C1935 1.349 . S
C1947 H1941 0.950 . S
C1947 C1948 1.327 . S
C1948 H1942 0.950 . S
C1948 C1947 1.327 . S
C1948 C1952 1.429 . S
C1949 C1932 1.574 . S
C1949 H1943 0.949 . S
C1949 C1953 1.368 . S
C1950 C1931 1.429 . S
C1950 C1944 1.429 . S
C1950 C1951 1.523 1_655 S
C1951 C1932 1.368 . S
C1951 C1945 1.368 . S
C1951 C1950 1.523 1_455 S
C1952 C1936 1.429 . S
C1952 C1948 1.429 . S
C1952 C1953 1.523 . S
C1953 C1937 1.368 . S
C1953 C1949 1.368 . S
C1953 C1952 1.523 . S
H1954 C1929 0.950 . S
H1955 C1931 0.950 . S
H1956 C1932 0.949 . S
H1957 C1934 0.950 . S
H1958 C1936 0.950 . S
C1959 C1960 1.349 . S
C1959 C1961 1.327 . S
C1959 H1984 0.950 . S
C1960 C1959 1.349 . S
C1960 C1976 1.349 . S
C1961 C1959 1.327 . S
C1961 C1980 1.429 . S
C1961 H1985 0.950 . S
C1962 C1979 1.574 . S
C1962 C1981 1.368 . S
C1962 H1986 0.949 . S
H1963 C1967 0.949 . S
C1964 C1965 1.349 . S
C1964 C1966 1.327 . S
C1964 H1987 0.950 . S
C1965 C1964 1.349 . S
C1965 C1977 1.349 . S
C1966 C1964 1.327 . S
C1966 C1982 1.429 . S
C1966 H1988 0.950 . S
C1967 H1963 0.949 . S
C1967 C1975 1.574 . S
C1967 C1983 1.368 . S
H1968 C1976 0.950 . S
H1969 C1974 0.950 . S
H1970 C1975 0.949 . S
H1971 C1977 0.950 . S
H1972 C1978 0.950 . S
H1973 C1979 0.949 . S
C1974 H1969 0.950 . S
C1974 C1976 1.327 . S
C1974 C1980 1.429 . S
C1975 C1967 1.574 . S
C1975 H1970 0.949 . S
C1975 C1981 1.368 . S
C1976 C1960 1.349 . S
C1976 H1968 0.950 . S
C1976 C1974 1.327 . S
C1977 C1965 1.349 . S
C1977 H1971 0.950 . S
C1977 C1978 1.327 . S
C1978 H1972 0.950 . S
C1978 C1977 1.327 . S
C1978 C1982 1.429 . S
C1979 C1962 1.574 . S
C1979 H1973 0.949 . S
C1979 C1983 1.368 . S
C1980 C1961 1.429 . S
C1980 C1974 1.429 . S
C1980 C1981 1.523 . S
C1981 C1962 1.368 . S
C1981 C1975 1.368 . S
C1981 C1980 1.523 . S
C1982 C1966 1.429 . S
C1982 C1978 1.429 . S
C1982 C1983 1.523 . S
C1983 C1967 1.368 . S
C1983 C1979 1.368 . S
C1983 C1982 1.523 . S
H1984 C1959 0.950 . S
H1985 C1961 0.950 . S
H1986 C1962 0.949 . S
H1987 C1964 0.950 . S
H1988 C1966 0.950 . S
C1989 C1990 1.349 . S
C1989 C1991 1.327 . S
C1989 H2014 0.950 . S
C1990 C1989 1.349 . S
C1990 C2006 1.349 . S
C1991 C1989 1.327 . S
C1991 C2010 1.429 . S
C1991 H2015 0.950 . S
C1992 C2009 1.574 . S
C1992 C2011 1.368 . S
C1992 H2016 0.949 . S
H1993 C1997 0.949 . S
C1994 C1995 1.349 . S
C1994 C1996 1.327 . S
C1994 H2017 0.950 . S
C1995 C1994 1.349 . S
C1995 C2007 1.349 . S
C1996 C1994 1.327 . S
C1996 C2012 1.429 . S
C1996 H2018 0.950 . S
C1997 H1993 0.949 . S
C1997 C2005 1.574 . S
C1997 C2013 1.368 . S
H1998 C2006 0.950 . S
H1999 C2004 0.950 . S
H2000 C2005 0.949 . S
H2001 C2007 0.950 . S
H2002 C2008 0.950 . S
H2003 C2009 0.949 . S
C2004 H1999 0.950 . S
C2004 C2006 1.327 . S
C2004 C2010 1.429 . S
C2005 C1997 1.574 . S
C2005 H2000 0.949 . S
C2005 C2011 1.368 . S
C2006 C1990 1.349 . S
C2006 H1998 0.950 . S
C2006 C2004 1.327 . S
C2007 C1995 1.349 . S
C2007 H2001 0.950 . S
C2007 C2008 1.327 . S
C2008 H2002 0.950 . S
C2008 C2007 1.327 . S
C2008 C2012 1.429 . S
C2009 C1992 1.574 . S
C2009 H2003 0.949 . S
C2009 C2013 1.368 . S
C2010 C1991 1.429 . S
C2010 C2004 1.429 . S
C2010 C2011 1.523 . S
C2011 C1992 1.368 . S
C2011 C2005 1.368 . S
C2011 C2010 1.523 . S
C2012 C1996 1.429 . S
C2012 C2008 1.429 . S
C2012 C2013 1.523 . S
C2013 C1997 1.368 . S
C2013 C2009 1.368 . S
C2013 C2012 1.523 . S
H2014 C1989 0.950 . S
H2015 C1991 0.950 . S
H2016 C1992 0.949 . S
H2017 C1994 0.950 . S
H2018 C1996 0.950 . S
C2019 C2020 1.349 . S
C2019 C2021 1.327 . S
C2019 H2044 0.950 . S
C2020 C2019 1.349 . S
C2020 C2036 1.349 . S
C2021 C2019 1.327 . S
C2021 C2040 1.429 . S
C2021 H2045 0.950 . S
C2022 C2039 1.574 . S
C2022 C2041 1.368 . S
C2022 H2046 0.949 . S
H2023 C2027 0.949 . S
C2024 C2025 1.349 . S
C2024 C2026 1.327 . S
C2024 H2047 0.950 . S
C2025 C2024 1.349 . S
C2025 C2037 1.349 . S
C2026 C2024 1.327 . S
C2026 C2042 1.429 . S
C2026 H2048 0.950 . S
C2027 H2023 0.949 . S
C2027 C2035 1.574 . S
C2027 C2043 1.368 . S
H2028 C2036 0.950 . S
H2029 C2034 0.950 . S
H2030 C2035 0.949 . S
H2031 C2037 0.950 . S
H2032 C2038 0.950 . S
H2033 C2039 0.949 . S
C2034 H2029 0.950 . S
C2034 C2036 1.327 . S
C2034 C2040 1.429 . S
C2035 C2027 1.574 . S
C2035 H2030 0.949 . S
C2035 C2041 1.368 . S
C2036 C2020 1.349 . S
C2036 H2028 0.950 . S
C2036 C2034 1.327 . S
C2037 C2025 1.349 . S
C2037 H2031 0.950 . S
C2037 C2038 1.327 . S
C2038 H2032 0.950 . S
C2038 C2037 1.327 . S
C2038 C2042 1.429 . S
C2039 C2022 1.574 . S
C2039 H2033 0.949 . S
C2039 C2043 1.368 . S
C2040 C2021 1.429 . S
C2040 C2034 1.429 . S
C2040 C2041 1.523 . S
C2041 C2022 1.368 . S
C2041 C2035 1.368 . S
C2041 C2040 1.523 . S
C2042 C2026 1.429 . S
C2042 C2038 1.429 . S
C2042 C2043 1.523 . S
C2043 C2027 1.368 . S
C2043 C2039 1.368 . S
C2043 C2042 1.523 . S
H2044 C2019 0.950 . S
H2045 C2021 0.950 . S
H2046 C2022 0.949 . S
H2047 C2024 0.950 . S
H2048 C2026 0.950 . S
C2049 C2050 1.349 . S
C2049 C2051 1.327 . S
C2049 H2074 0.950 . S
C2050 C2049 1.349 . S
C2050 C2066 1.349 . S
C2051 C2049 1.327 . S
C2051 C2070 1.429 . S
C2051 H2075 0.950 . S
C2052 C2069 1.574 . S
C2052 C2071 1.368 . S
C2052 H2076 0.949 . S
H2053 C2057 0.949 . S
C2054 C2055 1.349 . S
C2054 C2056 1.327 . S
C2054 H2077 0.950 . S
C2055 C2054 1.349 . S
C2055 C2067 1.349 . S
C2056 C2054 1.327 . S
C2056 C2072 1.429 . S
C2056 H2078 0.950 . S
C2057 H2053 0.949 . S
C2057 C2065 1.574 . S
C2057 C2073 1.368 . S
H2058 C2066 0.950 . S
H2059 C2064 0.950 . S
H2060 C2065 0.949 . S
H2061 C2067 0.950 . S
H2062 C2068 0.950 . S
H2063 C2069 0.949 . S
C2064 H2059 0.950 . S
C2064 C2066 1.327 . S
C2064 C2070 1.429 . S
C2065 C2057 1.574 . S
C2065 H2060 0.949 . S
C2065 C2071 1.368 . S
C2066 C2050 1.349 . S
C2066 H2058 0.950 . S
C2066 C2064 1.327 . S
C2067 C2055 1.349 . S
C2067 H2061 0.950 . S
C2067 C2068 1.327 . S
C2068 H2062 0.950 . S
C2068 C2067 1.327 . S
C2068 C2072 1.429 . S
C2069 C2052 1.574 . S
C2069 H2063 0.949 . S
C2069 C2073 1.368 . S
C2070 C2051 1.429 . S
C2070 C2064 1.429 . S
C2070 C2071 1.523 . S
C2071 C2052 1.368 . S
C2071 C2065 1.368 . S
C2071 C2070 1.523 . S
C2072 C2056 1.429 . S
C2072 C2068 1.429 . S
C2072 C2073 1.523 . S
C2073 C2057 1.368 . S
C2073 C2069 1.368 . S
C2073 C2072 1.523 . S
H2074 C2049 0.950 . S
H2075 C2051 0.950 . S
H2076 C2052 0.949 . S
H2077 C2054 0.950 . S
H2078 C2056 0.950 . S
C2079 C2080 1.349 . S
C2079 C2081 1.327 . S
C2079 H2104 0.950 . S
C2080 C2079 1.349 . S
C2080 C2096 1.349 . S
C2081 C2079 1.327 . S
C2081 C2100 1.429 . S
C2081 H2105 0.950 . S
C2082 C2099 1.574 . S
C2082 C2101 1.368 . S
C2082 H2106 0.949 . S
H2083 C2087 0.949 . S
C2084 C2085 1.349 . S
C2084 C2086 1.327 . S
C2084 H2107 0.950 . S
C2085 C2084 1.349 . S
C2085 C2097 1.349 . S
C2086 C2084 1.327 . S
C2086 C2102 1.429 . S
C2086 H2108 0.950 . S
C2087 H2083 0.949 . S
C2087 C2095 1.574 . S
C2087 C2103 1.368 . S
H2088 C2096 0.950 . S
H2089 C2094 0.950 . S
H2090 C2095 0.949 . S
H2091 C2097 0.950 . S
H2092 C2098 0.950 . S
H2093 C2099 0.949 . S
C2094 H2089 0.950 . S
C2094 C2096 1.327 . S
C2094 C2100 1.429 . S
C2095 C2087 1.574 . S
C2095 H2090 0.949 . S
C2095 C2101 1.368 . S
C2096 C2080 1.349 . S
C2096 H2088 0.950 . S
C2096 C2094 1.327 . S
C2097 C2085 1.349 . S
C2097 H2091 0.950 . S
C2097 C2098 1.327 . S
C2098 H2092 0.950 . S
C2098 C2097 1.327 . S
C2098 C2102 1.429 . S
C2099 C2082 1.574 . S
C2099 H2093 0.949 . S
C2099 C2103 1.368 . S
C2100 C2081 1.429 . S
C2100 C2094 1.429 . S
C2100 C2101 1.523 1_565 S
C2101 C2082 1.368 . S
C2101 C2095 1.368 . S
C2101 C2100 1.523 1_545 S
C2102 C2086 1.429 . S
C2102 C2098 1.429 . S
C2102 C2103 1.523 . S
C2103 C2087 1.368 . S
C2103 C2099 1.368 . S
C2103 C2102 1.523 . S
H2104 C2079 0.950 . S
H2105 C2081 0.950 . S
H2106 C2082 0.949 . S
H2107 C2084 0.950 . S
H2108 C2086 0.950 . S
C2109 C2110 1.349 . S
C2109 C2111 1.327 . S
C2109 H2134 0.950 . S
C2110 C2109 1.349 . S
C2110 C2126 1.349 . S
C2111 C2109 1.327 . S
C2111 C2130 1.429 . S
C2111 H2135 0.950 . S
C2112 C2129 1.574 . S
C2112 C2131 1.368 . S
C2112 H2136 0.949 . S
H2113 C2117 0.949 . S
C2114 C2115 1.349 . S
C2114 C2116 1.327 . S
C2114 H2137 0.950 . S
C2115 C2114 1.349 . S
C2115 C2127 1.349 . S
C2116 C2114 1.327 . S
C2116 C2132 1.429 . S
C2116 H2138 0.950 . S
C2117 H2113 0.949 . S
C2117 C2125 1.574 . S
C2117 C2133 1.368 . S
H2118 C2126 0.950 . S
H2119 C2124 0.950 . S
H2120 C2125 0.949 . S
H2121 C2127 0.950 . S
H2122 C2128 0.950 . S
H2123 C2129 0.949 . S
C2124 H2119 0.950 . S
C2124 C2126 1.327 . S
C2124 C2130 1.429 . S
C2125 C2117 1.574 . S
C2125 H2120 0.949 . S
C2125 C2131 1.368 . S
C2126 C2110 1.349 . S
C2126 H2118 0.950 . S
C2126 C2124 1.327 . S
C2127 C2115 1.349 . S
C2127 H2121 0.950 . S
C2127 C2128 1.327 . S
C2128 H2122 0.950 . S
C2128 C2127 1.327 . S
C2128 C2132 1.429 . S
C2129 C2112 1.574 . S
C2129 H2123 0.949 . S
C2129 C2133 1.368 . S
C2130 C2111 1.429 . S
C2130 C2124 1.429 . S
C2130 C2131 1.523 1_455 S
C2131 C2112 1.368 . S
C2131 C2125 1.368 . S
C2131 C2130 1.523 1_655 S
C2132 C2116 1.429 . S
C2132 C2128 1.429 . S
C2132 C2133 1.523 . S
C2133 C2117 1.368 . S
C2133 C2129 1.368 . S
C2133 C2132 1.523 . S
H2134 C2109 0.950 . S
H2135 C2111 0.950 . S
H2136 C2112 0.949 . S
H2137 C2114 0.950 . S
H2138 C2116 0.950 . S
C2139 C2140 1.349 . S
C2139 C2141 1.327 . S
C2139 H2164 0.950 . S
C2140 C2139 1.349 . S
C2140 C2156 1.349 . S
C2141 C2139 1.327 . S
C2141 C2160 1.429 . S
C2141 H2165 0.950 . S
C2142 C2159 1.574 . S
C2142 C2161 1.368 . S
C2142 H2166 0.949 . S
H2143 C2147 0.949 . S
C2144 C2145 1.349 . S
C2144 C2146 1.327 . S
C2144 H2167 0.950 . S
C2145 C2144 1.349 . S
C2145 C2157 1.349 . S
C2146 C2144 1.327 . S
C2146 C2162 1.429 . S
C2146 H2168 0.950 . S
C2147 H2143 0.949 . S
C2147 C2155 1.574 . S
C2147 C2163 1.368 . S
H2148 C2156 0.950 . S
H2149 C2154 0.950 . S
H2150 C2155 0.949 . S
H2151 C2157 0.950 . S
H2152 C2158 0.950 . S
H2153 C2159 0.949 . S
C2154 H2149 0.950 . S
C2154 C2156 1.327 . S
C2154 C2160 1.429 . S
C2155 C2147 1.574 . S
C2155 H2150 0.949 . S
C2155 C2161 1.368 . S
C2156 C2140 1.349 . S
C2156 H2148 0.950 . S
C2156 C2154 1.327 . S
C2157 C2145 1.349 . S
C2157 H2151 0.950 . S
C2157 C2158 1.327 . S
C2158 H2152 0.950 . S
C2158 C2157 1.327 . S
C2158 C2162 1.429 . S
C2159 C2142 1.574 . S
C2159 H2153 0.949 . S
C2159 C2163 1.368 . S
C2160 C2141 1.429 . S
C2160 C2154 1.429 . S
C2160 C2161 1.523 . S
C2161 C2142 1.368 . S
C2161 C2155 1.368 . S
C2161 C2160 1.523 . S
C2162 C2146 1.429 . S
C2162 C2158 1.429 . S
C2162 C2163 1.523 . S
C2163 C2147 1.368 . S
C2163 C2159 1.368 . S
C2163 C2162 1.523 . S
H2164 C2139 0.950 . S
H2165 C2141 0.950 . S
H2166 C2142 0.949 . S
H2167 C2144 0.950 . S
H2168 C2146 0.950 . S
C2169 C2170 1.349 . S
C2169 C2171 1.327 . S
C2169 H2194 0.950 . S
C2170 C2169 1.349 . S
C2170 C2186 1.349 . S
C2171 C2169 1.327 . S
C2171 C2190 1.429 . S
C2171 H2195 0.950 . S
C2172 C2189 1.574 . S
C2172 C2191 1.368 . S
C2172 H2196 0.949 . S
H2173 C2177 0.949 . S
C2174 C2175 1.349 . S
C2174 C2176 1.327 . S
C2174 H2197 0.950 . S
C2175 C2174 1.349 . S
C2175 C2187 1.349 . S
C2176 C2174 1.327 . S
C2176 C2192 1.429 . S
C2176 H2198 0.950 . S
C2177 H2173 0.949 . S
C2177 C2185 1.574 . S
C2177 C2193 1.368 . S
H2178 C2186 0.950 . S
H2179 C2184 0.950 . S
H2180 C2185 0.949 . S
H2181 C2187 0.950 . S
H2182 C2188 0.950 . S
H2183 C2189 0.949 . S
C2184 H2179 0.950 . S
C2184 C2186 1.327 . S
C2184 C2190 1.429 . S
C2185 C2177 1.574 . S
C2185 H2180 0.949 . S
C2185 C2191 1.368 . S
C2186 C2170 1.349 . S
C2186 H2178 0.950 . S
C2186 C2184 1.327 . S
C2187 C2175 1.349 . S
C2187 H2181 0.950 . S
C2187 C2188 1.327 . S
C2188 H2182 0.950 . S
C2188 C2187 1.327 . S
C2188 C2192 1.429 . S
C2189 C2172 1.574 . S
C2189 H2183 0.949 . S
C2189 C2193 1.368 . S
C2190 C2171 1.429 . S
C2190 C2184 1.429 . S
C2190 C2191 1.523 1_455 S
C2191 C2172 1.368 . S
C2191 C2185 1.368 . S
C2191 C2190 1.523 1_655 S
C2192 C2176 1.429 . S
C2192 C2188 1.429 . S
C2192 C2193 1.523 . S
C2193 C2177 1.368 . S
C2193 C2189 1.368 . S
C2193 C2192 1.523 . S
H2194 C2169 0.950 . S
H2195 C2171 0.950 . S
H2196 C2172 0.949 . S
H2197 C2174 0.950 . S
H2198 C2176 0.950 . S
C2199 C2200 1.349 . S
C2199 C2201 1.327 . S
C2199 H2224 0.950 . S
C2200 C2199 1.349 . S
C2200 C2216 1.349 . S
C2201 C2199 1.327 . S
C2201 C2220 1.429 . S
C2201 H2225 0.950 . S
C2202 C2219 1.574 . S
C2202 C2221 1.368 . S
C2202 H2226 0.949 . S
H2203 C2207 0.949 . S
C2204 C2205 1.349 . S
C2204 C2206 1.327 . S
C2204 H2227 0.950 . S
C2205 C2204 1.349 . S
C2205 C2217 1.349 . S
C2206 C2204 1.327 . S
C2206 C2222 1.429 . S
C2206 H2228 0.950 . S
C2207 H2203 0.949 . S
C2207 C2215 1.574 . S
C2207 C2223 1.368 . S
H2208 C2216 0.950 . S
H2209 C2214 0.950 . S
H2210 C2215 0.949 . S
H2211 C2217 0.950 . S
H2212 C2218 0.950 . S
H2213 C2219 0.949 . S
C2214 H2209 0.950 . S
C2214 C2216 1.327 . S
C2214 C2220 1.429 . S
C2215 C2207 1.574 . S
C2215 H2210 0.949 . S
C2215 C2221 1.368 . S
C2216 C2200 1.349 . S
C2216 H2208 0.950 . S
C2216 C2214 1.327 . S
C2217 C2205 1.349 . S
C2217 H2211 0.950 . S
C2217 C2218 1.327 . S
C2218 H2212 0.950 . S
C2218 C2217 1.327 . S
C2218 C2222 1.429 . S
C2219 C2202 1.574 . S
C2219 H2213 0.949 . S
C2219 C2223 1.368 . S
C2220 C2201 1.429 . S
C2220 C2214 1.429 . S
C2220 C2221 1.523 . S
C2221 C2202 1.368 . S
C2221 C2215 1.368 . S
C2221 C2220 1.523 . S
C2222 C2206 1.429 . S
C2222 C2218 1.429 . S
C2222 C2223 1.523 . S
C2223 C2207 1.368 . S
C2223 C2219 1.368 . S
C2223 C2222 1.523 . S
H2224 C2199 0.950 . S
H2225 C2201 0.950 . S
H2226 C2202 0.949 . S
H2227 C2204 0.950 . S
H2228 C2206 0.950 . S
C2229 C2230 1.349 . S
C2229 C2231 1.327 . S
C2229 H2254 0.950 . S
C2230 C2229 1.349 . S
C2230 C2246 1.349 . S
C2231 C2229 1.327 . S
C2231 C2250 1.429 . S
C2231 H2255 0.950 . S
C2232 C2249 1.574 . S
C2232 C2251 1.368 . S
C2232 H2256 0.949 . S
H2233 C2237 0.949 . S
C2234 C2235 1.349 . S
C2234 C2236 1.327 . S
C2234 H2257 0.950 . S
C2235 C2234 1.349 . S
C2235 C2247 1.349 . S
C2236 C2234 1.327 . S
C2236 C2252 1.429 . S
C2236 H2258 0.950 . S
C2237 H2233 0.949 . S
C2237 C2245 1.574 . S
C2237 C2253 1.368 . S
H2238 C2246 0.950 . S
H2239 C2244 0.950 . S
H2240 C2245 0.949 . S
H2241 C2247 0.950 . S
H2242 C2248 0.950 . S
H2243 C2249 0.949 . S
C2244 H2239 0.950 . S
C2244 C2246 1.327 . S
C2244 C2250 1.429 . S
C2245 C2237 1.574 . S
C2245 H2240 0.949 . S
C2245 C2251 1.368 . S
C2246 C2230 1.349 . S
C2246 H2238 0.950 . S
C2246 C2244 1.327 . S
C2247 C2235 1.349 . S
C2247 H2241 0.950 . S
C2247 C2248 1.327 . S
C2248 H2242 0.950 . S
C2248 C2247 1.327 . S
C2248 C2252 1.429 . S
C2249 C2232 1.574 . S
C2249 H2243 0.949 . S
C2249 C2253 1.368 . S
C2250 C2231 1.429 . S
C2250 C2244 1.429 . S
C2250 C2251 1.523 1_565 S
C2251 C2232 1.368 . S
C2251 C2245 1.368 . S
C2251 C2250 1.523 1_545 S
C2252 C2236 1.429 . S
C2252 C2248 1.429 . S
C2252 C2253 1.523 . S
C2253 C2237 1.368 . S
C2253 C2249 1.368 . S
C2253 C2252 1.523 . S
H2254 C2229 0.950 . S
H2255 C2231 0.950 . S
H2256 C2232 0.949 . S
H2257 C2234 0.950 . S
H2258 C2236 0.950 . S
C2259 C2260 1.349 . S
C2259 C2261 1.327 . S
C2259 H2284 0.950 . S
C2260 C2259 1.349 . S
C2260 C2276 1.349 . S
C2261 C2259 1.327 . S
C2261 C2280 1.429 . S
C2261 H2285 0.950 . S
C2262 C2279 1.574 . S
C2262 C2281 1.368 . S
C2262 H2286 0.949 . S
H2263 C2267 0.949 . S
C2264 C2265 1.349 . S
C2264 C2266 1.327 . S
C2264 H2287 0.950 . S
C2265 C2264 1.349 . S
C2265 C2277 1.349 . S
C2266 C2264 1.327 . S
C2266 C2282 1.429 . S
C2266 H2288 0.950 . S
C2267 H2263 0.949 . S
C2267 C2275 1.574 . S
C2267 C2283 1.368 . S
H2268 C2276 0.950 . S
H2269 C2274 0.950 . S
H2270 C2275 0.949 . S
H2271 C2277 0.950 . S
H2272 C2278 0.950 . S
H2273 C2279 0.949 . S
C2274 H2269 0.950 . S
C2274 C2276 1.327 . S
C2274 C2280 1.429 . S
C2275 C2267 1.574 . S
C2275 H2270 0.949 . S
C2275 C2281 1.368 . S
C2276 C2260 1.349 . S
C2276 H2268 0.950 . S
C2276 C2274 1.327 . S
C2277 C2265 1.349 . S
C2277 H2271 0.950 . S
C2277 C2278 1.327 . S
C2278 H2272 0.950 . S
C2278 C2277 1.327 . S
C2278 C2282 1.429 . S
C2279 C2262 1.574 . S
C2279 H2273 0.949 . S
C2279 C2283 1.368 . S
C2280 C2261 1.429 . S
C2280 C2274 1.429 . S
C2280 C2281 1.523 . S
C2281 C2262 1.368 . S
C2281 C2275 1.368 . S
C2281 C2280 1.523 . S
C2282 C2266 1.429 . S
C2282 C2278 1.429 . S
C2282 C2283 1.523 . S
C2283 C2267 1.368 . S
C2283 C2279 1.368 . S
C2283 C2282 1.523 . S
H2284 C2259 0.950 . S
H2285 C2261 0.950 . S
H2286 C2262 0.949 . S
H2287 C2264 0.950 . S
H2288 C2266 0.950 . S
C2289 C2290 1.349 . S
C2289 C2291 1.327 . S
C2289 H2314 0.950 . S
C2290 C2289 1.349 . S
C2290 C2306 1.349 . S
C2291 C2289 1.327 . S
C2291 C2310 1.429 . S
C2291 H2315 0.950 . S
C2292 C2309 1.574 . S
C2292 C2311 1.368 . S
C2292 H2316 0.949 . S
H2293 C2297 0.949 . S
C2294 C2295 1.349 . S
C2294 C2296 1.327 . S
C2294 H2317 0.950 . S
C2295 C2294 1.349 . S
C2295 C2307 1.349 . S
C2296 C2294 1.327 . S
C2296 C2312 1.429 . S
C2296 H2318 0.950 . S
C2297 H2293 0.949 . S
C2297 C2305 1.574 . S
C2297 C2313 1.368 . S
H2298 C2306 0.950 . S
H2299 C2304 0.950 . S
H2300 C2305 0.949 . S
H2301 C2307 0.950 . S
H2302 C2308 0.950 . S
H2303 C2309 0.949 . S
C2304 H2299 0.950 . S
C2304 C2306 1.327 . S
C2304 C2310 1.429 . S
C2305 C2297 1.574 . S
C2305 H2300 0.949 . S
C2305 C2311 1.368 . S
C2306 C2290 1.349 . S
C2306 H2298 0.950 . S
C2306 C2304 1.327 . S
C2307 C2295 1.349 . S
C2307 H2301 0.950 . S
C2307 C2308 1.327 . S
C2308 H2302 0.950 . S
C2308 C2307 1.327 . S
C2308 C2312 1.429 . S
C2309 C2292 1.574 . S
C2309 H2303 0.949 . S
C2309 C2313 1.368 . S
C2310 C2291 1.429 . S
C2310 C2304 1.429 . S
C2310 C2311 1.523 . S
C2311 C2292 1.368 . S
C2311 C2305 1.368 . S
C2311 C2310 1.523 . S
C2312 C2296 1.429 . S
C2312 C2308 1.429 . S
C2312 C2313 1.523 . S
C2313 C2297 1.368 . S
C2313 C2309 1.368 . S
C2313 C2312 1.523 . S
H2314 C2289 0.950 . S
H2315 C2291 0.950 . S
H2316 C2292 0.949 . S
H2317 C2294 0.950 . S
H2318 C2296 0.950 . S
C2319 C2320 1.349 . S
C2319 C2321 1.327 . S
C2319 H2344 0.950 . S
C2320 C2319 1.349 . S
C2320 C2336 1.349 . S
C2321 C2319 1.327 . S
C2321 C2340 1.429 . S
C2321 H2345 0.950 . S
C2322 C2339 1.574 . S
C2322 C2341 1.368 . S
C2322 H2346 0.949 . S
H2323 C2327 0.949 . S
C2324 C2325 1.349 . S
C2324 C2326 1.327 . S
C2324 H2347 0.950 . S
C2325 C2324 1.349 . S
C2325 C2337 1.349 . S
C2326 C2324 1.327 . S
C2326 C2342 1.429 . S
C2326 H2348 0.950 . S
C2327 H2323 0.949 . S
C2327 C2335 1.574 . S
C2327 C2343 1.368 . S
H2328 C2336 0.950 . S
H2329 C2334 0.950 . S
H2330 C2335 0.949 . S
H2331 C2337 0.950 . S
H2332 C2338 0.950 . S
H2333 C2339 0.949 . S
C2334 H2329 0.950 . S
C2334 C2336 1.327 . S
C2334 C2340 1.429 . S
C2335 C2327 1.574 . S
C2335 H2330 0.949 . S
C2335 C2341 1.368 . S
C2336 C2320 1.349 . S
C2336 H2328 0.950 . S
C2336 C2334 1.327 . S
C2337 C2325 1.349 . S
C2337 H2331 0.950 . S
C2337 C2338 1.327 . S
C2338 H2332 0.950 . S
C2338 C2337 1.327 . S
C2338 C2342 1.429 . S
C2339 C2322 1.574 . S
C2339 H2333 0.949 . S
C2339 C2343 1.368 . S
C2340 C2321 1.429 . S
C2340 C2334 1.429 . S
C2340 C2341 1.523 . S
C2341 C2322 1.368 . S
C2341 C2335 1.368 . S
C2341 C2340 1.523 . S
C2342 C2326 1.429 . S
C2342 C2338 1.429 . S
C2342 C2343 1.523 . S
C2343 C2327 1.368 . S
C2343 C2339 1.368 . S
C2343 C2342 1.523 . S
H2344 C2319 0.950 . S
H2345 C2321 0.950 . S
H2346 C2322 0.949 . S
H2347 C2324 0.950 . S
H2348 C2326 0.950 . S
C2349 C2350 1.349 . S
C2349 C2351 1.327 . S
C2349 H2374 0.950 . S
C2350 C2349 1.349 . S
C2350 C2366 1.349 . S
C2351 C2349 1.327 . S
C2351 C2370 1.429 . S
C2351 H2375 0.950 . S
C2352 C2369 1.565 1_565 S
C2352 C2371 1.404 . S
C2352 H2376 0.928 1_565 S
H2353 C2357 0.949 . S
C2354 C2355 1.351 . S
C2354 C2356 1.327 . S
C2354 H2377 0.950 . S
C2355 C2354 1.351 . S
C2355 C2367 1.347 1_545 S
C2356 C2354 1.327 . S
C2356 C2372 1.429 1_545 S
C2356 H2378 0.950 . S
C2357 H2353 0.949 . S
C2357 C2365 1.574 . S
C2357 C2373 1.368 . S
H2358 C2366 0.950 . S
H2359 C2364 0.950 1_545 S
H2360 C2365 0.949 . S
H2361 C2367 0.950 . S
H2362 C2368 0.950 . S
H2363 C2369 0.949 . S
C2364 H2359 0.950 1_565 S
C2364 C2366 1.327 . S
C2364 C2370 1.429 . S
C2365 C2357 1.574 . S
C2365 H2360 0.949 . S
C2365 C2371 1.368 . S
C2366 C2350 1.349 . S
C2366 H2358 0.950 . S
C2366 C2364 1.327 . S
C2367 C2355 1.347 1_565 S
C2367 H2361 0.950 . S
C2367 C2368 1.327 . S
C2368 H2362 0.950 . S
C2368 C2367 1.327 . S
C2368 C2372 1.429 . S
C2369 C2352 1.565 1_545 S
C2369 H2363 0.949 . S
C2369 C2373 1.368 1_545 S
C2370 C2351 1.429 . S
C2370 C2364 1.429 . S
C2370 C2371 1.523 . S
C2371 C2352 1.404 . S
C2371 C2365 1.368 . S
C2371 C2370 1.523 . S
C2372 C2356 1.429 1_565 S
C2372 C2368 1.429 . S
C2372 C2373 1.523 . S
C2373 C2357 1.368 . S
C2373 C2369 1.368 1_565 S
C2373 C2372 1.523 . S
H2374 C2349 0.950 . S
H2375 C2351 0.950 . S
H2376 C2352 0.928 1_545 S
H2377 C2354 0.950 . S
H2378 C2356 0.950 . S
C2379 C2380 1.349 . S
C2379 C2381 1.327 . S
C2379 H2404 0.950 . S
C2380 C2379 1.349 . S
C2380 C2396 1.349 . S
C2381 C2379 1.327 . S
C2381 C2400 1.429 . S
C2381 H2405 0.950 . S
C2382 C2399 1.574 . S
C2382 C2401 1.368 . S
C2382 H2406 0.949 . S
H2383 C2387 0.949 1_655 S
C2384 C2385 1.349 . S
C2384 C2386 1.327 . S
C2384 H2407 0.950 . S
C2385 C2384 1.349 . S
C2385 C2397 1.349 1_455 S
C2386 C2384 1.327 . S
C2386 C2402 1.429 . S
C2386 H2408 0.950 . S
C2387 H2383 0.949 1_455 S
C2387 C2395 1.574 . S
C2387 C2403 1.368 . S
H2388 C2396 0.950 . S
H2389 C2394 0.950 . S
H2390 C2395 0.949 1_655 S
H2391 C2397 0.950 . S
H2392 C2398 0.950 . S
H2393 C2399 0.949 . S
C2394 H2389 0.950 . S
C2394 C2396 1.327 . S
C2394 C2400 1.429 . S
C2395 C2387 1.574 . S
C2395 H2390 0.949 1_455 S
C2395 C2401 1.368 . S
C2396 C2380 1.349 . S
C2396 H2388 0.950 . S
C2396 C2394 1.327 . S
C2397 C2385 1.349 1_655 S
C2397 H2391 0.950 . S
C2397 C2398 1.327 . S
C2398 H2392 0.950 . S
C2398 C2397 1.327 . S
C2398 C2402 1.429 1_655 S
C2399 C2382 1.574 . S
C2399 H2393 0.949 . S
C2399 C2403 1.368 . S
C2400 C2381 1.429 . S
C2400 C2394 1.429 . S
C2400 C2401 1.523 . S
C2401 C2382 1.368 . S
C2401 C2395 1.368 . S
C2401 C2400 1.523 . S
C2402 C2386 1.429 . S
C2402 C2398 1.429 1_455 S
C2402 C2403 1.523 . S
C2403 C2387 1.368 . S
C2403 C2399 1.368 . S
C2403 C2402 1.523 . S
H2404 C2379 0.950 . S
H2405 C2381 0.950 . S
H2406 C2382 0.949 . S
H2407 C2384 0.950 . S
H2408 C2386 0.950 . S
C2409 C2410 1.349 . S
C2409 C2411 1.327 . S
C2409 H2434 0.950 . S
C2410 C2409 1.349 . S
C2410 C2426 1.349 . S
C2411 C2409 1.327 . S
C2411 C2430 1.429 . S
C2411 H2435 0.950 . S
C2412 C2429 1.574 . S
C2412 C2431 1.368 . S
C2412 H2436 0.949 . S
H2413 C2417 0.949 . S
C2414 C2415 1.349 . S
C2414 C2416 1.327 . S
C2414 H2437 0.950 . S
C2415 C2414 1.349 . S
C2415 C2427 1.349 . S
C2416 C2414 1.327 . S
C2416 C2432 1.429 . S
C2416 H2438 0.950 . S
C2417 H2413 0.949 . S
C2417 C2425 1.574 . S
C2417 C2433 1.368 . S
H2418 C2426 0.950 . S
H2419 C2424 0.950 . S
H2420 C2425 0.949 . S
H2421 C2427 0.950 . S
H2422 C2428 0.950 . S
H2423 C2429 0.949 . S
C2424 H2419 0.950 . S
C2424 C2426 1.327 . S
C2424 C2430 1.429 . S
C2425 C2417 1.574 . S
C2425 H2420 0.949 . S
C2425 C2431 1.368 . S
C2426 C2410 1.349 . S
C2426 H2418 0.950 . S
C2426 C2424 1.327 . S
C2427 C2415 1.349 . S
C2427 H2421 0.950 . S
C2427 C2428 1.327 . S
C2428 H2422 0.950 . S
C2428 C2427 1.327 . S
C2428 C2432 1.429 . S
C2429 C2412 1.574 . S
C2429 H2423 0.949 . S
C2429 C2433 1.368 . S
C2430 C2411 1.429 . S
C2430 C2424 1.429 . S
C2430 C2431 1.523 . S
C2431 C2412 1.368 . S
C2431 C2425 1.368 . S
C2431 C2430 1.523 . S
C2432 C2416 1.429 . S
C2432 C2428 1.429 . S
C2432 C2433 1.523 . S
C2433 C2417 1.368 . S
C2433 C2429 1.368 . S
C2433 C2432 1.523 . S
H2434 C2409 0.950 . S
H2435 C2411 0.950 . S
H2436 C2412 0.949 . S
H2437 C2414 0.950 . S
H2438 C2416 0.950 . S
C2439 C2440 1.349 . S
C2439 C2441 1.327 . S
C2439 H2464 0.950 . S
C2440 C2439 1.349 . S
C2440 C2456 1.349 . S
C2441 C2439 1.327 . S
C2441 C2460 1.429 . S
C2441 H2465 0.950 . S
C2442 C2459 1.574 . S
C2442 C2461 1.368 . S
C2442 H2466 0.949 . S
H2443 C2447 0.949 . S
C2444 C2445 1.349 . S
C2444 C2446 1.327 . S
C2444 H2467 0.950 . S
C2445 C2444 1.349 . S
C2445 C2457 1.349 . S
C2446 C2444 1.327 . S
C2446 C2462 1.429 . S
C2446 H2468 0.950 . S
C2447 H2443 0.949 . S
C2447 C2455 1.574 . S
C2447 C2463 1.368 . S
H2448 C2456 0.950 . S
H2449 C2454 0.950 . S
H2450 C2455 0.949 . S
H2451 C2457 0.950 . S
H2452 C2458 0.950 . S
H2453 C2459 0.949 . S
C2454 H2449 0.950 . S
C2454 C2456 1.327 . S
C2454 C2460 1.429 . S
C2455 C2447 1.574 . S
C2455 H2450 0.949 . S
C2455 C2461 1.368 . S
C2456 C2440 1.349 . S
C2456 H2448 0.950 . S
C2456 C2454 1.327 . S
C2457 C2445 1.349 . S
C2457 H2451 0.950 . S
C2457 C2458 1.327 . S
C2458 H2452 0.950 . S
C2458 C2457 1.327 . S
C2458 C2462 1.429 . S
C2459 C2442 1.574 . S
C2459 H2453 0.949 . S
C2459 C2463 1.368 . S
C2460 C2441 1.429 . S
C2460 C2454 1.429 . S
C2460 C2461 1.523 . S
C2461 C2442 1.368 . S
C2461 C2455 1.368 . S
C2461 C2460 1.523 . S
C2462 C2446 1.429 . S
C2462 C2458 1.429 . S
C2462 C2463 1.523 . S
C2463 C2447 1.368 . S
C2463 C2459 1.368 . S
C2463 C2462 1.523 . S
H2464 C2439 0.950 . S
H2465 C2441 0.950 . S
H2466 C2442 0.949 . S
H2467 C2444 0.950 . S
H2468 C2446 0.950 . S
C2469 C2470 1.349 . S
C2469 C2471 1.327 . S
C2469 H2494 0.950 . S
C2470 C2469 1.349 . S
C2470 C2486 1.349 . S
C2471 C2469 1.327 . S
C2471 C2490 1.429 . S
C2471 H2495 0.950 . S
C2472 C2489 1.574 . S
C2472 C2491 1.368 . S
C2472 H2496 0.949 . S
H2473 C2477 0.949 . S
C2474 C2475 1.349 . S
C2474 C2476 1.327 . S
C2474 H2497 0.950 . S
C2475 C2474 1.349 . S
C2475 C2487 1.349 . S
C2476 C2474 1.327 . S
C2476 C2492 1.429 . S
C2476 H2498 0.950 . S
C2477 H2473 0.949 . S
C2477 C2485 1.574 . S
C2477 C2493 1.368 . S
H2478 C2486 0.950 . S
H2479 C2484 0.950 . S
H2480 C2485 0.949 . S
H2481 C2487 0.950 . S
H2482 C2488 0.950 . S
H2483 C2489 0.949 . S
C2484 H2479 0.950 . S
C2484 C2486 1.327 . S
C2484 C2490 1.429 . S
C2485 C2477 1.574 . S
C2485 H2480 0.949 . S
C2485 C2491 1.368 . S
C2486 C2470 1.349 . S
C2486 H2478 0.950 . S
C2486 C2484 1.327 . S
C2487 C2475 1.349 . S
C2487 H2481 0.950 . S
C2487 C2488 1.327 . S
C2488 H2482 0.950 . S
C2488 C2487 1.327 . S
C2488 C2492 1.429 . S
C2489 C2472 1.574 . S
C2489 H2483 0.949 . S
C2489 C2493 1.368 . S
C2490 C2471 1.429 . S
C2490 C2484 1.429 . S
C2490 C2491 1.523 . S
C2491 C2472 1.368 . S
C2491 C2485 1.368 . S
C2491 C2490 1.523 . S
C2492 C2476 1.429 . S
C2492 C2488 1.429 . S
C2492 C2493 1.523 . S
C2493 C2477 1.368 . S
C2493 C2489 1.368 . S
C2493 C2492 1.523 . S
H2494 C2469 0.950 . S
H2495 C2471 0.950 . S
H2496 C2472 0.949 . S
H2497 C2474 0.950 . S
H2498 C2476 0.950 . S
C2499 C2500 1.349 . S
C2499 C2501 1.327 . S
C2499 H2524 0.950 . S
C2500 C2499 1.349 . S
C2500 C2516 1.349 . S
C2501 C2499 1.327 . S
C2501 C2520 1.429 . S
C2501 H2525 0.950 . S
C2502 C2519 1.574 . S
C2502 C2521 1.368 . S
C2502 H2526 0.940 1_545 S
H2503 C2507 0.949 . S
C2504 C2505 1.349 1_565 S
C2504 C2506 1.327 . S
C2504 H2527 0.950 . S
C2505 C2504 1.349 1_545 S
C2505 C2517 1.349 . S
C2506 C2504 1.327 . S
C2506 C2522 1.429 1_565 S
C2506 H2528 0.950 . S
C2507 H2503 0.949 . S
C2507 C2515 1.574 . S
C2507 C2523 1.368 . S
H2508 C2516 0.950 . S
H2509 C2514 0.950 . S
H2510 C2515 0.949 . S
H2511 C2517 0.950 . S
H2512 C2518 0.950 . S
H2513 C2519 0.949 1_565 S
C2514 H2509 0.950 . S
C2514 C2516 1.327 . S
C2514 C2520 1.429 . S
C2515 C2507 1.574 . S
C2515 H2510 0.949 . S
C2515 C2521 1.368 . S
C2516 C2500 1.349 . S
C2516 H2508 0.950 . S
C2516 C2514 1.327 . S
C2517 C2505 1.349 . S
C2517 H2511 0.950 . S
C2517 C2518 1.327 . S
C2518 H2512 0.950 . S
C2518 C2517 1.327 . S
C2518 C2522 1.429 . S
C2519 C2502 1.574 . S
C2519 H2513 0.949 1_545 S
C2519 C2523 1.368 . S
C2520 C2501 1.429 . S
C2520 C2514 1.429 . S
C2520 C2521 1.523 . S
C2521 C2502 1.368 . S
C2521 C2515 1.368 . S
C2521 C2520 1.523 . S
C2522 C2506 1.429 1_545 S
C2522 C2518 1.429 . S
C2522 C2523 1.523 . S
C2523 C2507 1.368 . S
C2523 C2519 1.368 . S
C2523 C2522 1.523 . S
H2524 C2499 0.950 . S
H2525 C2501 0.950 . S
H2526 C2502 0.940 1_565 S
H2527 C2504 0.950 . S
H2528 C2506 0.950 . S
C2529 C2530 1.349 . S
C2529 C2531 1.327 . S
C2529 H2554 0.950 . S
C2530 C2529 1.349 . S
C2530 C2546 1.349 . S
C2531 C2529 1.327 . S
C2531 C2550 1.429 . S
C2531 H2555 0.950 . S
C2532 C2549 1.574 . S
C2532 C2551 1.368 . S
C2532 H2556 0.949 . S
H2533 C2537 0.949 . S
C2534 C2535 1.349 . S
C2534 C2536 1.327 . S
C2534 H2557 0.950 . S
C2535 C2534 1.349 . S
C2535 C2547 1.349 . S
C2536 C2534 1.327 . S
C2536 C2552 1.429 . S
C2536 H2558 0.950 . S
C2537 H2533 0.949 . S
C2537 C2545 1.574 . S
C2537 C2553 1.368 . S
H2538 C2546 0.950 . S
H2539 C2544 0.950 . S
H2540 C2545 0.949 . S
H2541 C2547 0.950 . S
H2542 C2548 0.950 . S
H2543 C2549 0.949 . S
C2544 H2539 0.950 . S
C2544 C2546 1.327 . S
C2544 C2550 1.429 . S
C2545 C2537 1.574 . S
C2545 H2540 0.949 . S
C2545 C2551 1.368 . S
C2546 C2530 1.349 . S
C2546 H2538 0.950 . S
C2546 C2544 1.327 . S
C2547 C2535 1.349 . S
C2547 H2541 0.950 . S
C2547 C2548 1.327 . S
C2548 H2542 0.950 . S
C2548 C2547 1.327 . S
C2548 C2552 1.429 . S
C2549 C2532 1.574 . S
C2549 H2543 0.949 . S
C2549 C2553 1.368 . S
C2550 C2531 1.429 . S
C2550 C2544 1.429 . S
C2550 C2551 1.523 . S
C2551 C2532 1.368 . S
C2551 C2545 1.368 . S
C2551 C2550 1.523 . S
C2552 C2536 1.429 . S
C2552 C2548 1.429 . S
C2552 C2553 1.523 . S
C2553 C2537 1.368 . S
C2553 C2549 1.368 . S
C2553 C2552 1.523 . S
H2554 C2529 0.950 . S
H2555 C2531 0.950 . S
H2556 C2532 0.949 . S
H2557 C2534 0.950 . S
H2558 C2536 0.950 . S
C2559 C2560 1.349 . S
C2559 C2561 1.327 . S
C2559 H2584 0.950 . S
C2560 C2559 1.349 . S
C2560 C2576 1.349 . S
C2561 C2559 1.327 . S
C2561 C2580 1.429 . S
C2561 H2585 0.950 . S
C2562 C2579 1.574 . S
C2562 C2581 1.368 . S
C2562 H2586 0.949 . S
H2563 C2567 0.949 . S
C2564 C2565 1.349 . S
C2564 C2566 1.327 . S
C2564 H2587 0.950 . S
C2565 C2564 1.349 . S
C2565 C2577 1.349 . S
C2566 C2564 1.327 . S
C2566 C2582 1.429 . S
C2566 H2588 0.950 . S
C2567 H2563 0.949 . S
C2567 C2575 1.574 . S
C2567 C2583 1.368 . S
H2568 C2576 0.950 . S
H2569 C2574 0.950 . S
H2570 C2575 0.949 . S
H2571 C2577 0.950 . S
H2572 C2578 0.950 . S
H2573 C2579 0.949 . S
C2574 H2569 0.950 . S
C2574 C2576 1.327 . S
C2574 C2580 1.429 . S
C2575 C2567 1.574 . S
C2575 H2570 0.949 . S
C2575 C2581 1.368 . S
C2576 C2560 1.349 . S
C2576 H2568 0.950 . S
C2576 C2574 1.327 . S
C2577 C2565 1.349 . S
C2577 H2571 0.950 . S
C2577 C2578 1.327 . S
C2578 H2572 0.950 . S
C2578 C2577 1.327 . S
C2578 C2582 1.429 . S
C2579 C2562 1.574 . S
C2579 H2573 0.949 . S
C2579 C2583 1.368 . S
C2580 C2561 1.429 . S
C2580 C2574 1.429 . S
C2580 C2581 1.523 . S
C2581 C2562 1.368 . S
C2581 C2575 1.368 . S
C2581 C2580 1.523 . S
C2582 C2566 1.429 . S
C2582 C2578 1.429 . S
C2582 C2583 1.523 . S
C2583 C2567 1.368 . S
C2583 C2579 1.368 . S
C2583 C2582 1.523 . S
H2584 C2559 0.950 . S
H2585 C2561 0.950 . S
H2586 C2562 0.949 . S
H2587 C2564 0.950 . S
H2588 C2566 0.950 . S
C2589 C2590 1.349 . S
C2589 C2591 1.327 . S
C2589 H2614 0.950 . S
C2590 C2589 1.349 . S
C2590 C2606 1.349 . S
C2591 C2589 1.327 . S
C2591 C2610 1.429 . S
C2591 H2615 0.950 . S
C2592 C2609 1.574 . S
C2592 C2611 1.368 . S
C2592 H2616 0.949 . S
H2593 C2597 0.949 . S
C2594 C2595 1.349 . S
C2594 C2596 1.327 . S
C2594 H2617 0.950 . S
C2595 C2594 1.349 . S
C2595 C2607 1.349 . S
C2596 C2594 1.327 . S
C2596 C2612 1.429 . S
C2596 H2618 0.950 . S
C2597 H2593 0.949 . S
C2597 C2605 1.574 . S
C2597 C2613 1.368 . S
H2598 C2606 0.950 . S
H2599 C2604 0.950 . S
H2600 C2605 0.949 . S
H2601 C2607 0.950 . S
H2602 C2608 0.950 . S
H2603 C2609 0.949 . S
C2604 H2599 0.950 . S
C2604 C2606 1.327 . S
C2604 C2610 1.429 . S
C2605 C2597 1.574 . S
C2605 H2600 0.949 . S
C2605 C2611 1.368 . S
C2606 C2590 1.349 . S
C2606 H2598 0.950 . S
C2606 C2604 1.327 . S
C2607 C2595 1.349 . S
C2607 H2601 0.950 . S
C2607 C2608 1.327 . S
C2608 H2602 0.950 . S
C2608 C2607 1.327 . S
C2608 C2612 1.429 . S
C2609 C2592 1.574 . S
C2609 H2603 0.949 . S
C2609 C2613 1.368 . S
C2610 C2591 1.429 . S
C2610 C2604 1.429 . S
C2610 C2611 1.523 . S
C2611 C2592 1.368 . S
C2611 C2605 1.368 . S
C2611 C2610 1.523 . S
C2612 C2596 1.429 . S
C2612 C2608 1.429 . S
C2612 C2613 1.523 . S
C2613 C2597 1.368 . S
C2613 C2609 1.368 . S
C2613 C2612 1.523 . S
H2614 C2589 0.950 . S
H2615 C2591 0.950 . S
H2616 C2592 0.949 . S
H2617 C2594 0.950 . S
H2618 C2596 0.950 . S
C2619 C2620 1.349 . S
C2619 C2621 1.327 . S
C2619 H2644 0.950 . S
C2620 C2619 1.349 . S
C2620 C2636 1.349 . S
C2621 C2619 1.327 . S
C2621 C2640 1.429 . S
C2621 H2645 0.950 . S
C2622 C2639 1.574 . S
C2622 C2641 1.368 . S
C2622 H2646 0.949 . S
H2623 C2627 0.949 . S
C2624 C2625 1.349 . S
C2624 C2626 1.327 . S
C2624 H2647 0.950 . S
C2625 C2624 1.349 . S
C2625 C2637 1.349 . S
C2626 C2624 1.327 . S
C2626 C2642 1.429 . S
C2626 H2648 0.950 . S
C2627 H2623 0.949 . S
C2627 C2635 1.574 . S
C2627 C2643 1.368 . S
H2628 C2636 0.950 . S
H2629 C2634 0.950 . S
H2630 C2635 0.949 . S
H2631 C2637 0.950 . S
H2632 C2638 0.950 . S
H2633 C2639 0.949 . S
C2634 H2629 0.950 . S
C2634 C2636 1.327 . S
C2634 C2640 1.429 . S
C2635 C2627 1.574 . S
C2635 H2630 0.949 . S
C2635 C2641 1.368 . S
C2636 C2620 1.349 . S
C2636 H2628 0.950 . S
C2636 C2634 1.327 . S
C2637 C2625 1.349 . S
C2637 H2631 0.950 . S
C2637 C2638 1.327 . S
C2638 H2632 0.950 . S
C2638 C2637 1.327 . S
C2638 C2642 1.429 . S
C2639 C2622 1.574 . S
C2639 H2633 0.949 . S
C2639 C2643 1.368 . S
C2640 C2621 1.429 . S
C2640 C2634 1.429 . S
C2640 C2641 1.523 . S
C2641 C2622 1.368 . S
C2641 C2635 1.368 . S
C2641 C2640 1.523 . S
C2642 C2626 1.429 . S
C2642 C2638 1.429 . S
C2642 C2643 1.523 . S
C2643 C2627 1.368 . S
C2643 C2639 1.368 . S
C2643 C2642 1.523 . S
H2644 C2619 0.950 . S
H2645 C2621 0.950 . S
H2646 C2622 0.949 . S
H2647 C2624 0.950 . S
H2648 C2626 0.950 . S
C2649 C2650 1.349 . S
C2649 C2651 1.327 . S
C2649 H2674 0.950 . S
C2650 C2649 1.349 . S
C2650 C2666 1.349 . S
C2651 C2649 1.327 . S
C2651 C2670 1.429 . S
C2651 H2675 0.950 . S
C2652 C2669 1.574 . S
C2652 C2671 1.368 . S
C2652 H2676 0.949 . S
H2653 C2657 0.949 . S
C2654 C2655 1.349 . S
C2654 C2656 1.327 . S
C2654 H2677 0.950 . S
C2655 C2654 1.349 . S
C2655 C2667 1.349 . S
C2656 C2654 1.327 . S
C2656 C2672 1.429 . S
C2656 H2678 0.950 . S
C2657 H2653 0.949 . S
C2657 C2665 1.574 . S
C2657 C2673 1.368 . S
H2658 C2666 0.950 . S
H2659 C2664 0.950 . S
H2660 C2665 0.949 . S
H2661 C2667 0.950 . S
H2662 C2668 0.950 . S
H2663 C2669 0.949 . S
C2664 H2659 0.950 . S
C2664 C2666 1.327 . S
C2664 C2670 1.429 . S
C2665 C2657 1.574 . S
C2665 H2660 0.949 . S
C2665 C2671 1.368 . S
C2666 C2650 1.349 . S
C2666 H2658 0.950 . S
C2666 C2664 1.327 . S
C2667 C2655 1.349 . S
C2667 H2661 0.950 . S
C2667 C2668 1.327 . S
C2668 H2662 0.950 . S
C2668 C2667 1.327 . S
C2668 C2672 1.429 . S
C2669 C2652 1.574 . S
C2669 H2663 0.949 . S
C2669 C2673 1.368 . S
C2670 C2651 1.429 . S
C2670 C2664 1.429 . S
C2670 C2671 1.523 . S
C2671 C2652 1.368 . S
C2671 C2665 1.368 . S
C2671 C2670 1.523 . S
C2672 C2656 1.429 . S
C2672 C2668 1.429 . S
C2672 C2673 1.523 . S
C2673 C2657 1.368 . S
C2673 C2669 1.368 . S
C2673 C2672 1.523 . S
H2674 C2649 0.950 . S
H2675 C2651 0.950 . S
H2676 C2652 0.949 . S
H2677 C2654 0.950 . S
H2678 C2656 0.950 . S
C2679 C2680 1.349 . S
C2679 C2681 1.327 . S
C2679 H2704 0.950 . S
C2680 C2679 1.349 . S
C2680 C2696 1.349 . S
C2681 C2679 1.327 . S
C2681 C2700 1.429 . S
C2681 H2705 0.950 . S
C2682 C2699 1.574 . S
C2682 C2701 1.368 . S
C2682 H2706 0.949 . S
H2683 C2687 0.949 . S
C2684 C2685 1.349 . S
C2684 C2686 1.327 . S
C2684 H2707 0.950 . S
C2685 C2684 1.349 . S
C2685 C2697 1.349 . S
C2686 C2684 1.327 . S
C2686 C2702 1.429 . S
C2686 H2708 0.950 . S
C2687 H2683 0.949 . S
C2687 C2695 1.574 . S
C2687 C2703 1.368 . S
H2688 C2696 0.950 . S
H2689 C2694 0.950 . S
H2690 C2695 0.949 . S
H2691 C2697 0.950 . S
H2692 C2698 0.950 . S
H2693 C2699 0.949 . S
C2694 H2689 0.950 . S
C2694 C2696 1.327 . S
C2694 C2700 1.429 . S
C2695 C2687 1.574 . S
C2695 H2690 0.949 . S
C2695 C2701 1.368 . S
C2696 C2680 1.349 . S
C2696 H2688 0.950 . S
C2696 C2694 1.327 . S
C2697 C2685 1.349 . S
C2697 H2691 0.950 . S
C2697 C2698 1.327 . S
C2698 H2692 0.950 . S
C2698 C2697 1.327 . S
C2698 C2702 1.429 . S
C2699 C2682 1.574 . S
C2699 H2693 0.949 . S
C2699 C2703 1.368 . S
C2700 C2681 1.429 . S
C2700 C2694 1.429 . S
C2700 C2701 1.523 . S
C2701 C2682 1.368 . S
C2701 C2695 1.368 . S
C2701 C2700 1.523 . S
C2702 C2686 1.429 . S
C2702 C2698 1.429 . S
C2702 C2703 1.523 . S
C2703 C2687 1.368 . S
C2703 C2699 1.368 . S
C2703 C2702 1.523 . S
H2704 C2679 0.950 . S
H2705 C2681 0.950 . S
H2706 C2682 0.949 . S
H2707 C2684 0.950 . S
H2708 C2686 0.950 . S
C2709 C2710 1.349 . S
C2709 C2711 1.327 . S
C2709 H2734 0.950 . S
C2710 C2709 1.349 . S
C2710 C2726 1.349 . S
C2711 C2709 1.327 . S
C2711 C2730 1.429 . S
C2711 H2735 0.950 . S
C2712 C2729 1.574 . S
C2712 C2731 1.368 . S
C2712 H2736 0.949 . S
H2713 C2717 0.949 . S
C2714 C2715 1.349 . S
C2714 C2716 1.327 . S
C2714 H2737 0.950 . S
C2715 C2714 1.349 . S
C2715 C2727 1.349 . S
C2716 C2714 1.327 . S
C2716 C2732 1.429 . S
C2716 H2738 0.950 . S
C2717 H2713 0.949 . S
C2717 C2725 1.574 . S
C2717 C2733 1.368 . S
H2718 C2726 0.950 . S
H2719 C2724 0.950 . S
H2720 C2725 0.949 . S
H2721 C2727 0.950 . S
H2722 C2728 0.950 . S
H2723 C2729 0.949 . S
C2724 H2719 0.950 . S
C2724 C2726 1.327 . S
C2724 C2730 1.429 . S
C2725 C2717 1.574 . S
C2725 H2720 0.949 . S
C2725 C2731 1.368 . S
C2726 C2710 1.349 . S
C2726 H2718 0.950 . S
C2726 C2724 1.327 . S
C2727 C2715 1.349 . S
C2727 H2721 0.950 . S
C2727 C2728 1.327 . S
C2728 H2722 0.950 . S
C2728 C2727 1.327 . S
C2728 C2732 1.429 . S
C2729 C2712 1.574 . S
C2729 H2723 0.949 . S
C2729 C2733 1.368 . S
C2730 C2711 1.429 . S
C2730 C2724 1.429 . S
C2730 C2731 1.523 . S
C2731 C2712 1.368 . S
C2731 C2725 1.368 . S
C2731 C2730 1.523 . S
C2732 C2716 1.429 . S
C2732 C2728 1.429 . S
C2732 C2733 1.523 . S
C2733 C2717 1.368 . S
C2733 C2729 1.368 . S
C2733 C2732 1.523 . S
H2734 C2709 0.950 . S
H2735 C2711 0.950 . S
H2736 C2712 0.949 . S
H2737 C2714 0.950 . S
H2738 C2716 0.950 . S
C2739 C2740 1.349 . S
C2739 C2741 1.327 . S
C2739 H2764 0.950 . S
C2740 C2739 1.349 . S
C2740 C2756 1.349 . S
C2741 C2739 1.327 . S
C2741 C2760 1.429 . S
C2741 H2765 0.950 . S
C2742 C2759 1.574 . S
C2742 C2761 1.368 . S
C2742 H2766 0.949 . S
H2743 C2747 0.949 . S
C2744 C2745 1.349 . S
C2744 C2746 1.327 . S
C2744 H2767 0.950 . S
C2745 C2744 1.349 . S
C2745 C2757 1.349 . S
C2746 C2744 1.327 . S
C2746 C2762 1.429 . S
C2746 H2768 0.950 . S
C2747 H2743 0.949 . S
C2747 C2755 1.574 . S
C2747 C2763 1.368 . S
H2748 C2756 0.950 . S
H2749 C2754 0.950 . S
H2750 C2755 0.949 . S
H2751 C2757 0.950 . S
H2752 C2758 0.950 . S
H2753 C2759 0.949 . S
C2754 H2749 0.950 . S
C2754 C2756 1.327 . S
C2754 C2760 1.429 . S
C2755 C2747 1.574 . S
C2755 H2750 0.949 . S
C2755 C2761 1.368 . S
C2756 C2740 1.349 . S
C2756 H2748 0.950 . S
C2756 C2754 1.327 . S
C2757 C2745 1.349 . S
C2757 H2751 0.950 . S
C2757 C2758 1.327 . S
C2758 H2752 0.950 . S
C2758 C2757 1.327 . S
C2758 C2762 1.429 . S
C2759 C2742 1.574 . S
C2759 H2753 0.949 . S
C2759 C2763 1.368 . S
C2760 C2741 1.429 . S
C2760 C2754 1.429 . S
C2760 C2761 1.523 . S
C2761 C2742 1.368 . S
C2761 C2755 1.368 . S
C2761 C2760 1.523 . S
C2762 C2746 1.429 . S
C2762 C2758 1.429 . S
C2762 C2763 1.523 . S
C2763 C2747 1.368 . S
C2763 C2759 1.368 . S
C2763 C2762 1.523 . S
H2764 C2739 0.950 . S
H2765 C2741 0.950 . S
H2766 C2742 0.949 . S
H2767 C2744 0.950 . S
H2768 C2746 0.950 . S
C2769 C2770 1.349 . S
C2769 C2771 1.327 . S
C2769 H2794 0.950 . S
C2770 C2769 1.349 . S
C2770 C2786 1.349 . S
C2771 C2769 1.327 . S
C2771 C2790 1.429 . S
C2771 H2795 0.950 . S
C2772 C2789 1.574 . S
C2772 C2791 1.368 . S
C2772 H2796 0.949 . S
H2773 C2777 0.949 . S
C2774 C2775 1.349 . S
C2774 C2776 1.327 . S
C2774 H2797 0.950 . S
C2775 C2774 1.349 . S
C2775 C2787 1.349 . S
C2776 C2774 1.327 . S
C2776 C2792 1.429 . S
C2776 H2798 0.950 . S
C2777 H2773 0.949 . S
C2777 C2785 1.574 . S
C2777 C2793 1.368 . S
H2778 C2786 0.950 . S
H2779 C2784 0.950 . S
H2780 C2785 0.949 . S
H2781 C2787 0.950 . S
H2782 C2788 0.950 . S
H2783 C2789 0.949 . S
C2784 H2779 0.950 . S
C2784 C2786 1.327 . S
C2784 C2790 1.429 . S
C2785 C2777 1.574 . S
C2785 H2780 0.949 . S
C2785 C2791 1.368 . S
C2786 C2770 1.349 . S
C2786 H2778 0.950 . S
C2786 C2784 1.327 . S
C2787 C2775 1.349 . S
C2787 H2781 0.950 . S
C2787 C2788 1.327 . S
C2788 H2782 0.950 . S
C2788 C2787 1.327 . S
C2788 C2792 1.429 . S
C2789 C2772 1.574 . S
C2789 H2783 0.949 . S
C2789 C2793 1.368 . S
C2790 C2771 1.429 . S
C2790 C2784 1.429 . S
C2790 C2791 1.523 . S
C2791 C2772 1.368 . S
C2791 C2785 1.368 . S
C2791 C2790 1.523 . S
C2792 C2776 1.429 . S
C2792 C2788 1.429 . S
C2792 C2793 1.523 . S
C2793 C2777 1.368 . S
C2793 C2789 1.368 . S
C2793 C2792 1.523 . S
H2794 C2769 0.950 . S
H2795 C2771 0.950 . S
H2796 C2772 0.949 . S
H2797 C2774 0.950 . S
H2798 C2776 0.950 . S
C2799 C2800 1.349 . S
C2799 C2801 1.327 . S
C2799 H2824 0.950 . S
C2800 C2799 1.349 . S
C2800 C2816 1.349 . S
C2801 C2799 1.327 . S
C2801 C2820 1.429 . S
C2801 H2825 0.950 . S
C2802 C2819 1.574 . S
C2802 C2821 1.368 . S
C2802 H2826 0.949 . S
H2803 C2807 0.949 . S
C2804 C2805 1.349 . S
C2804 C2806 1.327 . S
C2804 H2827 0.950 . S
C2805 C2804 1.349 . S
C2805 C2817 1.349 . S
C2806 C2804 1.327 . S
C2806 C2822 1.429 . S
C2806 H2828 0.950 . S
C2807 H2803 0.949 . S
C2807 C2815 1.574 . S
C2807 C2823 1.368 . S
H2808 C2816 0.950 . S
H2809 C2814 0.950 . S
H2810 C2815 0.949 . S
H2811 C2817 0.950 . S
H2812 C2818 0.950 . S
H2813 C2819 0.949 . S
C2814 H2809 0.950 . S
C2814 C2816 1.327 . S
C2814 C2820 1.429 . S
C2815 C2807 1.574 . S
C2815 H2810 0.949 . S
C2815 C2821 1.368 . S
C2816 C2800 1.349 . S
C2816 H2808 0.950 . S
C2816 C2814 1.327 . S
C2817 C2805 1.349 . S
C2817 H2811 0.950 . S
C2817 C2818 1.327 . S
C2818 H2812 0.950 . S
C2818 C2817 1.327 . S
C2818 C2822 1.429 . S
C2819 C2802 1.574 . S
C2819 H2813 0.949 . S
C2819 C2823 1.368 . S
C2820 C2801 1.429 . S
C2820 C2814 1.429 . S
C2820 C2821 1.523 . S
C2821 C2802 1.368 . S
C2821 C2815 1.368 . S
C2821 C2820 1.523 . S
C2822 C2806 1.429 . S
C2822 C2818 1.429 . S
C2822 C2823 1.523 . S
C2823 C2807 1.368 . S
C2823 C2819 1.368 . S
C2823 C2822 1.523 . S
H2824 C2799 0.950 . S
H2825 C2801 0.950 . S
H2826 C2802 0.949 . S
H2827 C2804 0.950 . S
H2828 C2806 0.950 . S
C2829 C2830 1.349 . S
C2829 C2831 1.327 . S
C2829 H2854 0.950 . S
C2830 C2829 1.349 . S
C2830 C2846 1.349 . S
C2831 C2829 1.327 . S
C2831 C2850 1.429 . S
C2831 H2855 0.950 . S
C2832 C2849 1.574 . S
C2832 C2851 1.368 . S
C2832 H2856 0.949 . S
H2833 C2837 0.949 . S
C2834 C2835 1.349 . S
C2834 C2836 1.327 . S
C2834 H2857 0.950 . S
C2835 C2834 1.349 . S
C2835 C2847 1.349 . S
C2836 C2834 1.327 . S
C2836 C2852 1.429 . S
C2836 H2858 0.950 . S
C2837 H2833 0.949 . S
C2837 C2845 1.574 . S
C2837 C2853 1.368 . S
H2838 C2846 0.950 . S
H2839 C2844 0.950 . S
H2840 C2845 0.949 . S
H2841 C2847 0.950 . S
H2842 C2848 0.950 . S
H2843 C2849 0.949 . S
C2844 H2839 0.950 . S
C2844 C2846 1.327 . S
C2844 C2850 1.429 . S
C2845 C2837 1.574 . S
C2845 H2840 0.949 . S
C2845 C2851 1.368 . S
C2846 C2830 1.349 . S
C2846 H2838 0.950 . S
C2846 C2844 1.327 . S
C2847 C2835 1.349 . S
C2847 H2841 0.950 . S
C2847 C2848 1.327 . S
C2848 H2842 0.950 . S
C2848 C2847 1.327 . S
C2848 C2852 1.429 . S
C2849 C2832 1.574 . S
C2849 H2843 0.949 . S
C2849 C2853 1.368 . S
C2850 C2831 1.429 . S
C2850 C2844 1.429 . S
C2850 C2851 1.523 . S
C2851 C2832 1.368 . S
C2851 C2845 1.368 . S
C2851 C2850 1.523 . S
C2852 C2836 1.429 . S
C2852 C2848 1.429 . S
C2852 C2853 1.523 . S
C2853 C2837 1.368 . S
C2853 C2849 1.368 . S
C2853 C2852 1.523 . S
H2854 C2829 0.950 . S
H2855 C2831 0.950 . S
H2856 C2832 0.949 . S
H2857 C2834 0.950 . S
H2858 C2836 0.950 . S
C2859 C2860 1.349 . S
C2859 C2861 1.327 . S
C2859 H2884 0.950 . S
C2860 C2859 1.349 . S
C2860 C2876 1.349 . S
C2861 C2859 1.327 . S
C2861 C2880 1.429 . S
C2861 H2885 0.950 . S
C2862 C2879 1.574 . S
C2862 C2881 1.368 . S
C2862 H2886 0.949 . S
H2863 C2867 0.949 . S
C2864 C2865 1.349 . S
C2864 C2866 1.327 . S
C2864 H2887 0.950 . S
C2865 C2864 1.349 . S
C2865 C2877 1.349 . S
C2866 C2864 1.327 . S
C2866 C2882 1.429 . S
C2866 H2888 0.950 . S
C2867 H2863 0.949 . S
C2867 C2875 1.574 . S
C2867 C2883 1.368 . S
H2868 C2876 0.950 . S
H2869 C2874 0.950 . S
H2870 C2875 0.949 . S
H2871 C2877 0.950 . S
H2872 C2878 0.950 . S
H2873 C2879 0.949 . S
C2874 H2869 0.950 . S
C2874 C2876 1.327 . S
C2874 C2880 1.429 . S
C2875 C2867 1.574 . S
C2875 H2870 0.949 . S
C2875 C2881 1.368 . S
C2876 C2860 1.349 . S
C2876 H2868 0.950 . S
C2876 C2874 1.327 . S
C2877 C2865 1.349 . S
C2877 H2871 0.950 . S
C2877 C2878 1.327 . S
C2878 H2872 0.950 . S
C2878 C2877 1.327 . S
C2878 C2882 1.429 . S
C2879 C2862 1.574 . S
C2879 H2873 0.949 . S
C2879 C2883 1.368 . S
C2880 C2861 1.429 . S
C2880 C2874 1.429 . S
C2880 C2881 1.523 . S
C2881 C2862 1.368 . S
C2881 C2875 1.368 . S
C2881 C2880 1.523 . S
C2882 C2866 1.429 . S
C2882 C2878 1.429 . S
C2882 C2883 1.523 . S
C2883 C2867 1.368 . S
C2883 C2879 1.368 . S
C2883 C2882 1.523 . S
H2884 C2859 0.950 . S
H2885 C2861 0.950 . S
H2886 C2862 0.949 . S
H2887 C2864 0.950 . S
H2888 C2866 0.950 . S
C1270 C781 1.351 . S
C1275 C1094 1.311 . S
C1300 C871 1.355 . S
C1305 C1115 1.308 . S
C1330 C751 1.288 . S
C1335 C1135 1.119 . S
C1360 C691 1.314 . S
C1365 C1114 1.137 1_556 S
C1395 C1136 1.334 . S
C1390 C571 1.383 . S
C1420 C601 1.315 . S
C1425 C1093 1.140 1_556 S
C1455 C1095 1.255 . S
C1450 C661 1.272 . S
C1485 C1116 1.245 . S
C1480 C541 1.253 . S
C1510 C631 1.385 . S
C1515 C1138 1.161 1_556 S
C1540 C811 1.327 . S
C1545 C1117 1.123 . S
C1570 C841 1.219 . S
C1575 C1137 1.207 . S
C1605 C1096 1.139 . S
C1600 C721 1.278 . S
C1635 C1157 1.311 . S
C1630 C61 1.351 . S
C1660 C151 1.355 . S
C1665 C1178 1.308 . S
C1690 C31 1.288 . S
C1695 C1198 1.119 . S
C1720 C1051 1.314 . S
C1725 C1177 1.137 . S
C1750 C931 1.383 . S
C1755 C1199 1.334 . S
C1780 C961 1.315 . S
C1785 C1156 1.139 . S
C1810 C1021 1.272 . S
C1815 C1158 1.255 . S
C1840 C901 1.254 . S
C1845 C1179 1.245 . S
C1875 C1201 1.161 . S
C1870 C991 1.385 . S
C1900 C91 1.327 . S
C1905 C1180 1.123 . S
C1935 C1200 1.207 . S
C1930 C121 1.219 . S
C1960 C1 1.278 . S
C1965 C1159 1.139 . S
C1995 C1220 1.311 . S
C1990 C421 1.351 . S
C2020 C511 1.355 . S
C2025 C1241 1.308 . S
C2055 C1261 1.119 . S
C2050 C391 1.288 . S
C2085 C1240 1.137 . S
C2080 C331 1.314 . S
C2115 C1262 1.334 . S
C2110 C211 1.383 . S
C2140 C241 1.315 . S
C2145 C1219 1.139 . S
C2170 C301 1.272 . S
C2175 C1221 1.255 . S
C2200 C181 1.253 . S
C2205 C1242 1.245 . S
C2235 C1264 1.161 . S
C2230 C271 1.385 . S
C2260 C451 1.327 . S
C2265 C1243 1.123 . S
C2290 C481 1.219 . S
C2295 C1263 1.207 . S
C2320 C361 1.278 . S
C2325 C1222 1.139 . S
C2350 C920 1.343 . S
C2355 C1098 1.342 . S
C2385 C1119 1.381 . S
C2380 C980 1.407 . S
C2410 C1040 1.442 . S
C2415 C1139 1.456 . S
C2440 C380 1.491 . S
C2445 C1118 1.502 1_655 S
C2470 C440 1.419 . S
C2475 C1140 1.391 . S
C2505 C1097 1.463 . S
C2500 C500 1.451 . S
C2530 C200 1.343 . S
C2535 C1161 1.341 . S
C2560 C260 1.407 . S
C2565 C1182 1.381 . S
C2590 C320 1.442 . S
C2595 C1202 1.456 . S
C2620 C740 1.491 . S
C2625 C1181 1.502 . S
C2655 C1203 1.391 . S
C2650 C800 1.419 . S
C2680 C860 1.451 . S
C2685 C1160 1.463 . S
C2710 C560 1.343 . S
C2715 C1224 1.341 . S
C2740 C620 1.407 . S
C2745 C1245 1.381 . S
C2775 C1265 1.456 . S
C2770 C680 1.442 . S
C2800 C20 1.491 . S
C2805 C1244 1.502 . S
C2830 C80 1.419 . S
C2835 C1266 1.391 . S
C2860 C140 1.451 . S
C2865 C1223 1.463 . S
