# Generated by pormake.
# Topology ptr, (4,4)-cn, num edge types: 1
# Building blocks:
#     Node 0, Type 0, BuildingBlock: TATPOV_clean_sbu_0, # of connection points: 4
#     Node 1, Type 0, BuildingBlock: TATPOV_clean_sbu_0, # of connection points: 4
#     Node 2, Type 0, BuildingBlock: TATPOV_clean_sbu_0, # of connection points: 4
#     Node 3, Type 0, BuildingBlock: TATPOV_clean_sbu_0, # of connection points: 4
#     Node 4, Type 0, BuildingBlock: TATPOV_clean_sbu_0, # of connection points: 4
#     Node 5, Type 0, BuildingBlock: TATPOV_clean_sbu_0, # of connection points: 4
#     Node 6, Type 0, BuildingBlock: TATPOV_clean_sbu_0, # of connection points: 4
#     Node 7, Type 0, BuildingBlock: TATPOV_clean_sbu_0, # of connection points: 4
#     Node 8, Type 0, BuildingBlock: TATPOV_clean_sbu_0, # of connection points: 4
#     Node 9, Type 0, BuildingBlock: TATPOV_clean_sbu_0, # of connection points: 4
#     Node 10, Type 0, BuildingBlock: TATPOV_clean_sbu_0, # of connection points: 4
#     Node 11, Type 0, BuildingBlock: TATPOV_clean_sbu_0, # of connection points: 4
#     Node 12, Type 0, BuildingBlock: TATPOV_clean_sbu_0, # of connection points: 4
#     Node 13, Type 0, BuildingBlock: TATPOV_clean_sbu_0, # of connection points: 4
#     Node 14, Type 0, BuildingBlock: TATPOV_clean_sbu_0, # of connection points: 4
#     Node 15, Type 0, BuildingBlock: TATPOV_clean_sbu_0, # of connection points: 4
#     Node 16, Type 0, BuildingBlock: TATPOV_clean_sbu_0, # of connection points: 4
#     Node 17, Type 0, BuildingBlock: TATPOV_clean_sbu_0, # of connection points: 4
#     Node 18, Type 1, BuildingBlock: KUFVIS_clean_linker_0, # of connection points: 4
#     Node 19, Type 1, BuildingBlock: KUFVIS_clean_linker_0, # of connection points: 4
#     Node 20, Type 1, BuildingBlock: KUFVIS_clean_linker_0, # of connection points: 4
#     Node 21, Type 1, BuildingBlock: KUFVIS_clean_linker_0, # of connection points: 4
#     Node 22, Type 1, BuildingBlock: KUFVIS_clean_linker_0, # of connection points: 4
#     Node 23, Type 1, BuildingBlock: KUFVIS_clean_linker_0, # of connection points: 4
#     Node 24, Type 1, BuildingBlock: KUFVIS_clean_linker_0, # of connection points: 4
#     Node 25, Type 1, BuildingBlock: KUFVIS_clean_linker_0, # of connection points: 4
#     Node 26, Type 1, BuildingBlock: KUFVIS_clean_linker_0, # of connection points: 4
#     Node 27, Type 1, BuildingBlock: KUFVIS_clean_linker_0, # of connection points: 4
#     Node 28, Type 1, BuildingBlock: KUFVIS_clean_linker_0, # of connection points: 4
#     Node 29, Type 1, BuildingBlock: KUFVIS_clean_linker_0, # of connection points: 4
#     Node 30, Type 1, BuildingBlock: KUFVIS_clean_linker_0, # of connection points: 4
#     Node 31, Type 1, BuildingBlock: KUFVIS_clean_linker_0, # of connection points: 4
#     Node 32, Type 1, BuildingBlock: KUFVIS_clean_linker_0, # of connection points: 4
#     Node 33, Type 1, BuildingBlock: KUFVIS_clean_linker_0, # of connection points: 4
#     Node 34, Type 1, BuildingBlock: KUFVIS_clean_linker_0, # of connection points: 4
#     Node 35, Type 1, BuildingBlock: KUFVIS_clean_linker_0, # of connection points: 4
#     Edge 36, Type (0, 1), None
#     Edge 37, Type (0, 1), None
#     Edge 38, Type (0, 1), None
#     Edge 39, Type (0, 1), None
#     Edge 40, Type (0, 1), None
#     Edge 41, Type (0, 1), None
#     Edge 42, Type (0, 1), None
#     Edge 43, Type (0, 1), None
#     Edge 44, Type (0, 1), None
#     Edge 45, Type (0, 1), None
#     Edge 46, Type (0, 1), None
#     Edge 47, Type (0, 1), None
#     Edge 48, Type (0, 1), None
#     Edge 49, Type (0, 1), None
#     Edge 50, Type (0, 1), None
#     Edge 51, Type (0, 1), None
#     Edge 52, Type (0, 1), None
#     Edge 53, Type (0, 1), None
#     Edge 54, Type (0, 1), None
#     Edge 55, Type (0, 1), None
#     Edge 56, Type (0, 1), None
#     Edge 57, Type (0, 1), None
#     Edge 58, Type (0, 1), None
#     Edge 59, Type (0, 1), None
#     Edge 60, Type (0, 1), None
#     Edge 61, Type (0, 1), None
#     Edge 62, Type (0, 1), None
#     Edge 63, Type (0, 1), None
#     Edge 64, Type (0, 1), None
#     Edge 65, Type (0, 1), None
#     Edge 66, Type (0, 1), None
#     Edge 67, Type (0, 1), None
#     Edge 68, Type (0, 1), None
#     Edge 69, Type (0, 1), None
#     Edge 70, Type (0, 1), None
#     Edge 71, Type (0, 1), None
#     Edge 72, Type (0, 1), None
#     Edge 73, Type (0, 1), None
#     Edge 74, Type (0, 1), None
#     Edge 75, Type (0, 1), None
#     Edge 76, Type (0, 1), None
#     Edge 77, Type (0, 1), None
#     Edge 78, Type (0, 1), None
#     Edge 79, Type (0, 1), None
#     Edge 80, Type (0, 1), None
#     Edge 81, Type (0, 1), None
#     Edge 82, Type (0, 1), None
#     Edge 83, Type (0, 1), None
#     Edge 84, Type (0, 1), None
#     Edge 85, Type (0, 1), None
#     Edge 86, Type (0, 1), None
#     Edge 87, Type (0, 1), None
#     Edge 88, Type (0, 1), None
#     Edge 89, Type (0, 1), None
#     Edge 90, Type (0, 1), None
#     Edge 91, Type (0, 1), None
#     Edge 92, Type (0, 1), None
#     Edge 93, Type (0, 1), None
#     Edge 94, Type (0, 1), None
#     Edge 95, Type (0, 1), None
#     Edge 96, Type (0, 1), None
#     Edge 97, Type (0, 1), None
#     Edge 98, Type (0, 1), None
#     Edge 99, Type (0, 1), None
#     Edge 100, Type (0, 1), None
#     Edge 101, Type (0, 1), None
#     Edge 102, Type (0, 1), None
#     Edge 103, Type (0, 1), None
#     Edge 104, Type (0, 1), None
#     Edge 105, Type (0, 1), None
#     Edge 106, Type (0, 1), None
#     Edge 107, Type (0, 1), None
# Relax obj value: 0.070
# Max RMSD: 0.195
# Mean RMSD: 0.123
data_MOF--net-ptr--node1-TATPOV_clean_sbu_0--node2-KUFVIS_clean_linker_0--edge1-none
_symmetry_space_group_name_H-M    P1
_symmetry_Int_Tables_number       1
_symmetry_cell_setting            triclinic
loop_
_symmetry_equiv_pos_as_xyz
'x, y, z'
_cell_length_a     36.836418
_cell_length_b     37.913155
_cell_length_c     22.219041
_cell_angle_alpha  88.829873
_cell_angle_beta   93.311912
_cell_angle_gamma 121.65582
loop_
_atom_site_label
_atom_site_type_symbol
_atom_site_fract_x
_atom_site_fract_y
_atom_site_fract_z
_atom_type_partial_charge
Zn0 Zn 0.90429 0.34451 0.98897 0.0
Zn1 Zn 0.98681 0.36229 0.01285 0.0
O2 O 0.95458 0.30464 0.97821 0.0
O3 O 0.88652 0.28458 0.9694 0.0
O4 O 0.04182 0.36898 0.04597 0.0
O5 O 0.9028 0.36452 0.07324 0.0
O6 O 0.9667 0.37365 0.08885 0.0
C7 C 0.91607 0.27733 0.96341 0.0
C8 C 0.97161 0.40595 0.91086 0.0
O9 O -0.00178 0.40182 0.94458 0.0
O10 O 0.93205 0.38574 0.92032 0.0
C11 C 0.0586 0.3492 0.02884 0.0
O12 O 0.04704 0.33093 0.97566 0.0
C13 C 0.9352 0.3742 0.10801 0.0
Zn14 Zn 0.64853 0.56639 0.00634 0.0
Zn15 Zn 0.64799 0.6369 0.01685 0.0
O16 O 0.70635 0.65674 0.98564 0.0
O17 O 0.71183 0.60174 0.98687 0.0
O18 O 0.65115 0.68813 0.04704 0.0
O19 O 0.62712 0.54354 0.08866 0.0
O20 O 0.62714 0.60141 0.09279 0.0
C21 C 0.72762 0.63991 0.97595 0.0
C22 C 0.59004 0.5774 0.92036 0.0
O23 O 0.60436 0.61246 0.94573 0.0
O24 O 0.60349 0.55396 0.93786 0.0
C25 C 0.66694 0.72631 0.03521 0.0
O26 O 0.68787 0.74204 0.98618 0.0
C27 C 0.61976 0.5676 0.11672 0.0
Zn28 Zn 0.34499 0.9213 0.00749 0.0
Zn29 Zn 0.35219 -0.00422 -0.0001 0.0
O30 O 0.29441 0.95686 0.03353 0.0
O31 O 0.28198 0.89381 0.02478 0.0
O32 O 0.34854 0.04451 0.97064 0.0
O33 O 0.36604 0.92208 0.9255 0.0
O34 O 0.36956 0.9818 0.922 0.0
C35 C 0.27004 0.91803 0.04002 0.0
C36 C 0.40584 0.98719 0.09602 0.0
O37 O 0.39617 0.01173 0.07016 0.0
O38 O 0.38887 0.94999 0.07782 0.0
C39 C 0.32179 0.05398 0.98517 0.0
O40 O 0.29878 0.03632 0.0319 0.0
C41 C 0.37448 0.95463 0.8975 0.0
Zn42 Zn 0.08602 0.64266 0.01392 0.0
Zn43 Zn 0.00323 0.62412 -0.00981 0.0
O44 O 0.035 0.68181 0.02477 0.0
O45 O 0.10322 0.70246 0.03329 0.0
O46 O 0.94792 0.6168 0.95714 0.0
O47 O 0.08767 0.62267 0.92971 0.0
O48 O 0.02353 0.61298 0.91415 0.0
C49 C 0.07345 0.70937 0.03941 0.0
C50 C 0.01916 0.58096 0.09228 0.0
O51 O 0.9923 0.58472 0.05854 0.0
O52 O 0.05871 0.60151 0.08277 0.0
C53 C 0.93081 0.63631 0.97416 0.0
O54 O 0.94222 0.65465 0.02729 0.0
C55 C 0.05518 0.61271 0.89497 0.0
Zn56 Zn 0.34018 0.41945 -0.00365 0.0
Zn57 Zn 0.34147 0.34933 0.9859 0.0
O58 O 0.28301 0.32899 0.01716 0.0
O59 O 0.27688 0.38362 0.01582 0.0
O60 O 0.33889 0.29838 0.95584 0.0
O61 O 0.36159 0.44243 0.91402 0.0
O62 O 0.36209 0.38483 0.90994 0.0
C63 C 0.26144 0.34551 0.02684 0.0
C64 C 0.39901 0.409 0.08239 0.0
O65 O 0.38504 0.37403 0.05697 0.0
O66 O 0.38525 0.4322 0.06492 0.0
C67 C 0.32348 0.26028 0.96786 0.0
O68 O 0.30267 0.24451 0.01696 0.0
C69 C 0.36922 0.41855 0.88599 0.0
Zn70 Zn 0.64385 0.06397 -0.00462 0.0
Zn71 Zn 0.6376 0.98991 0.00293 0.0
O72 O 0.69527 0.02936 0.96939 0.0
O73 O 0.70689 0.09212 0.97806 0.0
O74 O 0.64184 0.94146 0.03202 0.0
O75 O 0.62279 0.06289 0.0774 0.0
O76 O 0.61996 0.00349 0.08092 0.0
C77 C 0.71927 0.06824 0.96289 0.0
C78 C 0.58345 -0.00213 0.90683 0.0
O79 O 0.59354 0.97361 0.93263 0.0
O80 O 0.60002 0.035 0.9251 0.0
C81 C 0.66915 0.93267 0.01779 0.0
O82 O 0.6925 0.95096 0.97157 0.0
C83 C 0.61471 0.03045 0.10543 0.0
Zn84 Zn 0.56979 0.67767 0.32184 0.0
Zn85 Zn 0.65244 0.69584 0.34592 0.0
O86 O 0.6204 0.63821 0.31114 0.0
O87 O 0.55223 0.61775 0.30247 0.0
O88 O 0.70748 0.70267 0.37914 0.0
O89 O 0.5682 0.69775 0.40606 0.0
O90 O 0.63215 0.70704 0.42186 0.0
C91 C 0.58194 0.61073 0.29641 0.0
C92 C 0.63713 0.73932 0.24384 0.0
O93 O 0.66383 0.73547 0.27781 0.0
O94 O 0.59753 0.71881 0.25305 0.0
C95 C 0.72447 0.68309 0.36195 0.0
O96 O 0.71309 0.66495 0.30868 0.0
C97 C 0.60059 0.7075 0.44092 0.0
Zn98 Zn 0.31513 0.89887 0.33981 0.0
Zn99 Zn 0.31487 0.96952 0.35047 0.0
O100 O 0.37321 0.98919 0.31934 0.0
O101 O 0.37847 0.93406 0.32045 0.0
O102 O 0.31824 0.02084 0.38069 0.0
O103 O 0.29353 0.87596 0.42206 0.0
O104 O 0.29383 0.93396 0.42633 0.0
C105 C 0.39439 0.97226 0.3096 0.0
C106 C 0.2569 0.91024 0.2538 0.0
O107 O 0.27129 0.94527 0.27928 0.0
O108 O 0.27022 0.88668 0.27123 0.0
C109 C 0.3339 0.05899 0.36877 0.0
O110 O 0.35454 0.07466 0.31952 0.0
C111 C 0.28627 0.90008 0.45017 0.0
Zn112 Zn 0.01191 0.25511 0.34099 0.0
Zn113 Zn 0.01945 0.32971 0.33347 0.0
O114 O 0.96161 0.29095 0.36713 0.0
O115 O 0.94894 0.22782 0.35827 0.0
O116 O 0.01606 0.37857 0.30414 0.0
O117 O 0.03287 0.25573 0.25903 0.0
O118 O 0.03671 0.3156 0.25556 0.0
C119 C 0.93712 0.25213 0.37356 0.0
C120 C 0.07299 0.32087 0.4295 0.0
O121 O 0.06344 0.34551 0.4037 0.0
O122 O 0.05587 0.28366 0.41127 0.0
C123 C 0.98957 0.38837 0.31871 0.0
O124 O 0.96674 0.37107 0.36571 0.0
C125 C 0.04147 0.28834 0.23105 0.0
Zn126 Zn 0.75376 0.97661 0.3476 0.0
Zn127 Zn 0.6709 0.95781 0.32371 0.0
O128 O 0.70254 0.01549 0.35843 0.0
O129 O 0.77083 0.0364 0.36681 0.0
O130 O 0.61558 0.95041 0.29058 0.0
O131 O 0.75546 0.95654 0.26342 0.0
O132 O 0.69132 0.94681 0.2477 0.0
C133 C 0.74096 0.04316 0.37301 0.0
C134 C 0.68685 0.91475 0.42584 0.0
O135 O 0.65995 0.91831 0.39187 0.0
O136 O 0.72643 0.93553 0.41657 0.0
C137 C 0.59828 0.96972 0.30768 0.0
O138 O 0.60954 0.98794 0.3609 0.0
C139 C 0.723 0.94657 0.2286 0.0
Zn140 Zn 0.00669 0.75343 0.32955 0.0
Zn141 Zn 0.00742 0.68302 0.31885 0.0
O142 O 0.94902 0.66303 0.35003 0.0
O143 O 0.94335 0.71792 0.34893 0.0
O144 O 0.00439 0.63186 0.28877 0.0
O145 O 0.02827 0.77643 0.2473 0.0
O146 O 0.02829 0.71859 0.24297 0.0
C147 C 0.92766 0.67975 0.35979 0.0
C148 C 0.06515 0.74239 0.41553 0.0
O149 O 0.05096 0.70741 0.38999 0.0
O150 O 0.05163 0.7658 0.39815 0.0
C151 C 0.98949 0.59387 0.30104 0.0
O152 O 0.96954 0.57823 0.35081 0.0
C153 C 0.03569 0.75243 0.21916 0.0
Zn154 Zn 0.31051 0.39651 0.32873 0.0
Zn155 Zn 0.30438 0.32254 0.33624 0.0
O156 O 0.36206 0.36204 0.30269 0.0
O157 O 0.37353 0.42474 0.31132 0.0
O158 O 0.30864 0.2741 0.36535 0.0
O159 O 0.28955 0.39548 0.41077 0.0
O160 O 0.28673 0.33609 0.41425 0.0
C161 C 0.38599 0.40092 0.29617 0.0
C162 C 0.25007 0.33038 0.24027 0.0
O163 O 0.26028 0.30618 0.26597 0.0
O164 O 0.26659 0.3675 0.25857 0.0
C165 C 0.33595 0.26528 0.35116 0.0
O166 O 0.35933 0.28357 0.30497 0.0
C167 C 0.28149 0.36304 0.43878 0.0
Zn168 Zn 0.23675 0.01046 0.65543 0.0
Zn169 Zn 0.31931 0.02838 0.67943 0.0
O170 O 0.28717 0.97075 0.64465 0.0
O171 O 0.21906 0.95052 0.63596 0.0
O172 O 0.37432 0.03512 0.71259 0.0
O173 O 0.23524 0.03053 0.73969 0.0
O174 O 0.29913 0.03965 0.7554 0.0
C175 C 0.24868 0.94337 0.6299 0.0
C176 C 0.30412 0.07201 0.57742 0.0
O177 O 0.33076 0.06801 0.6113 0.0
O178 O 0.26453 0.05163 0.58669 0.0
C179 C 0.39127 0.01551 0.69537 0.0
O180 O 0.37981 -0.00268 0.64212 0.0
C181 C 0.26762 0.0402 0.77451 0.0
Zn182 Zn 0.98211 0.23263 0.67312 0.0
Zn183 Zn 0.98217 0.30343 0.68388 0.0
O184 O 0.04046 0.32291 0.65276 0.0
O185 O 0.04545 0.26763 0.65373 0.0
O186 O 0.9858 0.35488 0.71409 0.0
O187 O 0.96057 0.20977 0.75538 0.0
O188 O 0.96108 0.26789 0.75976 0.0
C189 C 0.06151 0.30586 0.64298 0.0
C190 C 0.924 0.24424 0.58724 0.0
O191 O 0.93855 0.27931 0.61271 0.0
O192 O 0.93718 0.22057 0.60464 0.0
C193 C 0.00101 0.39294 0.70197 0.0
O194 O 0.02096 0.40853 0.65218 0.0
C195 C 0.95344 0.23396 0.78356 0.0
Zn196 Zn 0.67821 0.58875 0.67406 0.0
Zn197 Zn 0.68508 0.66307 0.66647 0.0
O198 O 0.62733 0.624 0.70011 0.0
O199 O 0.61521 0.56106 0.69146 0.0
O200 O 0.6813 0.71173 0.63723 0.0
O201 O 0.69916 0.58954 0.59203 0.0
O202 O 0.70252 0.64918 0.58854 0.0
C203 C 0.60311 0.58516 0.70665 0.0
C204 C 0.73901 0.65473 0.76247 0.0
O205 O 0.72913 0.67916 0.7367 0.0
O206 O 0.72218 0.61756 0.74425 0.0
C207 C 0.65445 0.72109 0.65167 0.0
O208 O 0.63132 0.70329 0.69825 0.0
C209 C 0.70751 0.62206 0.56402 0.0
Zn210 Zn 0.42035 0.30927 0.68105 0.0
Zn211 Zn 0.33744 0.29033 0.65713 0.0
O212 O 0.36901 0.34801 0.69182 0.0
O213 O 0.43734 0.36904 0.70022 0.0
O214 O 0.28208 0.28286 0.62397 0.0
O215 O 0.42211 0.28922 0.59689 0.0
O216 O 0.35791 0.27935 0.58115 0.0
C217 C 0.40742 0.37573 0.7064 0.0
C218 C 0.35348 0.24737 0.75931 0.0
O219 O 0.32654 0.25086 0.72534 0.0
O220 O 0.39306 0.2682 0.75002 0.0
C221 C 0.2648 0.3022 0.64103 0.0
O222 O 0.27605 0.32042 0.69424 0.0
C223 C 0.38963 0.27918 0.56207 0.0
Zn224 Zn 0.67369 0.08694 0.66291 0.0
Zn225 Zn 0.67487 0.01677 0.65238 0.0
O226 O 0.61641 -0.00351 0.68359 0.0
O227 O 0.61035 0.05116 0.68229 0.0
O228 O 0.67221 0.96579 0.6223 0.0
O229 O 0.69526 0.10998 0.58063 0.0
O230 O 0.69563 0.05231 0.57649 0.0
C231 C 0.59487 0.01304 0.69329 0.0
C232 C 0.73236 0.0763 0.74902 0.0
O233 O 0.71839 0.04136 0.72351 0.0
O234 O 0.71864 0.09954 0.73159 0.0
C235 C 0.65676 0.92768 0.63431 0.0
O236 O 0.63591 0.91192 0.6834 0.0
C237 C 0.70286 0.08608 0.55259 0.0
Zn238 Zn 0.97686 0.73037 0.66181 0.0
Zn239 Zn 0.9701 0.65612 0.66929 0.0
O240 O 0.02786 0.69533 0.63573 0.0
O241 O 0.03987 0.75822 0.64456 0.0
O242 O 0.97399 0.6075 0.69848 0.0
O243 O 0.95586 0.72948 0.7438 0.0
O244 O 0.95261 0.66989 0.74727 0.0
C245 C 0.05205 0.73419 0.6293 0.0
C246 C 0.91617 0.66445 0.57326 0.0
O247 O 0.92606 0.64003 0.59901 0.0
O248 O 0.93297 0.7016 0.59154 0.0
C249 C 0.00097 0.59828 0.68415 0.0
O250 O 0.02406 0.6161 0.63754 0.0
C251 C 0.94756 0.69697 0.7718 0.0
H252 H 0.27868 0.32838 0.13536 0.0
H253 H 0.17767 0.32534 0.02436 0.0
H254 H 0.17202 0.31646 0.21859 0.0
H255 H 0.10337 0.27634 0.20048 0.0
H256 H 0.02417 0.32109 0.1344 0.0
H257 H 0.13006 0.34402 0.03288 0.0
C258 C 0.24656 0.32284 0.13055 0.0
C259 C 0.22533 0.31895 0.18235 0.0
C260 C 0.23036 0.32699 0.07397 0.0
C261 C 0.18982 0.32239 0.06846 0.0
C262 C 0.16622 0.3153 0.12027 0.0
C263 C 0.18586 0.31587 0.17726 0.0
C264 C 0.1235 0.31164 0.11767 0.0
C265 C 0.09633 0.29273 0.16585 0.0
C266 C 0.06197 0.29788 0.17319 0.0
C267 C 0.05133 0.31779 0.12874 0.0
C268 C 0.07449 0.33247 0.0767 0.0
C269 C 0.11097 0.33 0.0714 0.0
H270 H 0.70342 0.97032 0.12326 0.0
H271 H 0.66523 0.85847 0.02511 0.0
H272 H 0.72614 0.87989 0.20398 0.0
H273 H 0.66226 0.81753 0.21326 0.0
H274 H 0.64037 0.70322 0.14693 0.0
H275 H 0.69252 0.80957 0.03046 0.0
C276 C 0.70314 0.94168 0.11946 0.0
C277 C 0.71773 0.92819 0.16878 0.0
C278 C 0.68616 0.91762 0.06645 0.0
C279 C 0.68178 0.87853 0.06395 0.0
C280 C 0.69502 0.86404 0.11444 0.0
C281 C 0.71591 0.89062 0.16472 0.0
C282 C 0.68002 0.81935 0.12091 0.0
C283 C 0.66418 0.80031 0.17651 0.0
C284 C 0.65063 0.75893 0.18541 0.0
C285 C 0.65103 0.73544 0.13849 0.0
C286 C 0.66571 0.75298 0.08205 0.0
C287 C 0.68041 0.79533 0.07334 0.0
H288 H 0.28867 0.94582 0.15147 0.0
H289 H 0.18507 0.85727 0.03397 0.0
H290 H 0.17509 0.84947 0.22738 0.0
H291 H 0.10488 0.82737 0.19842 0.0
H292 H 0.02235 0.70629 0.12184 0.0
H293 H 0.14453 0.78658 0.04911 0.0
C294 C 0.25564 0.92055 0.14496 0.0
C295 C 0.23282 0.90071 0.19542 0.0
C296 C 0.23911 0.9041 0.08702 0.0
C297 C 0.19747 0.86971 0.07901 0.0
C298 C 0.17271 0.85085 0.12939 0.0
C299 C 0.19149 0.86595 0.18773 0.0
C300 C 0.12926 0.81285 0.12231 0.0
C301 C 0.09809 0.80482 0.16355 0.0
C302 C 0.06005 0.76604 0.16429 0.0
C303 C 0.0512 0.7367 0.11979 0.0
C304 C 0.08118 0.74435 0.07724 0.0
C305 C 0.12037 0.78216 0.07916 0.0
H306 H 0.28738 0.01642 0.87966 0.0
H307 H 0.32581 0.12826 0.97804 0.0
H308 H 0.26462 0.10692 0.79938 0.0
H309 H 0.32865 0.16924 0.79001 0.0
H310 H 0.35027 0.28347 0.85624 0.0
H311 H 0.29827 0.17713 0.97275 0.0
C312 C 0.28772 0.04509 0.88356 0.0
C313 C 0.27305 0.0586 0.83436 0.0
C314 C 0.30481 0.06912 0.93657 0.0
C315 C 0.3092 0.10821 0.9392 0.0
C316 C 0.2959 0.12273 0.88881 0.0
C317 C 0.2749 0.09617 0.83854 0.0
C318 C 0.31091 0.16742 0.88236 0.0
C319 C 0.32673 0.18646 0.82676 0.0
C320 C 0.34019 0.22781 0.81783 0.0
C321 C 0.33971 0.25127 0.86472 0.0
C322 C 0.32499 0.23371 0.92114 0.0
C323 C 0.31042 0.1914 0.9299 0.0
H324 H 0.70065 0.04069 0.85136 0.0
H325 H 0.80415 0.12935 0.9689 0.0
H326 H 0.81405 0.13733 0.77547 0.0
H327 H 0.88419 0.15914 0.80447 0.0
H328 H 0.96694 0.28026 0.88079 0.0
H329 H 0.84477 0.2002 0.95375 0.0
C330 C 0.73363 0.06605 0.85786 0.0
C331 C 0.7564 0.08599 0.80742 0.0
C332 C 0.75016 0.08245 0.91582 0.0
C333 C 0.79174 0.11695 0.92385 0.0
C334 C 0.81645 0.13588 0.87346 0.0
C335 C 0.79767 0.12082 0.81511 0.0
C336 C 0.85992 0.17383 0.88052 0.0
C337 C 0.89104 0.18175 0.83927 0.0
C338 C 0.9291 0.22049 0.83844 0.0
C339 C 0.93805 0.24989 0.88288 0.0
C340 C 0.90813 0.24232 0.9255 0.0
C341 C 0.86888 0.20456 0.92364 0.0
H342 H 0.71044 0.65688 0.86735 0.0
H343 H 0.81133 0.65977 0.9785 0.0
H344 H 0.81692 0.6683 0.78425 0.0
H345 H 0.88555 0.70871 0.80243 0.0
H346 H 0.96502 0.66426 0.8684 0.0
H347 H 0.85909 0.64112 0.97007 0.0
C348 C 0.74252 0.6623 0.87218 0.0
C349 C 0.76371 0.66604 0.82041 0.0
C350 C 0.7587 0.65819 0.9288 0.0
C351 C 0.79919 0.66267 0.93437 0.0
C352 C 0.82276 0.66965 0.88257 0.0
C353 C 0.80311 0.669 0.82555 0.0
C354 C 0.86551 0.67338 0.88521 0.0
C355 C 0.89265 0.69234 0.83703 0.0
C356 C 0.92705 0.68729 0.82964 0.0
C357 C 0.9378 0.66745 0.87408 0.0
C358 C 0.9147 0.65278 0.92619 0.0
C359 C 0.87814 0.65512 0.93151 0.0
H360 H 0.9449 0.66271 0.46833 0.0
H361 H 0.84388 0.65965 0.35732 0.0
H362 H 0.83814 0.65058 0.55154 0.0
H363 H 0.76953 0.61031 0.53332 0.0
H364 H 0.69007 0.65481 0.46749 0.0
H365 H 0.7961 0.67819 0.36591 0.0
C366 C 0.91277 0.65717 0.46351 0.0
C367 C 0.89149 0.65318 0.51529 0.0
C368 C 0.89658 0.66133 0.40694 0.0
C369 C 0.85602 0.65671 0.40141 0.0
C370 C 0.83239 0.64952 0.45322 0.0
C371 C 0.85202 0.65006 0.5102 0.0
C372 C 0.78961 0.64574 0.45061 0.0
C373 C 0.76244 0.6267 0.49876 0.0
C374 C 0.72801 0.63173 0.50616 0.0
C375 C 0.71729 0.65161 0.46179 0.0
C376 C 0.74045 0.66641 0.40975 0.0
C377 C 0.77702 0.66408 0.40441 0.0
H378 H 0.37009 0.30291 0.45668 0.0
H379 H 0.33207 0.1911 0.35854 0.0
H380 H 0.39287 0.21255 0.5375 0.0
H381 H 0.32906 0.15016 0.54675 0.0
H382 H 0.30754 0.03595 0.48059 0.0
H383 H 0.35936 0.14222 0.36397 0.0
C384 C 0.36984 0.27428 0.4529 0.0
C385 C 0.38441 0.2608 0.50226 0.0
C386 C 0.35292 0.25023 0.39988 0.0
C387 C 0.34858 0.21116 0.3974 0.0
C388 C 0.36179 0.19668 0.44793 0.0
C389 C 0.38264 0.22326 0.49823 0.0
C390 C 0.34686 0.152 0.45442 0.0
C391 C 0.33104 0.13296 0.51003 0.0
C392 C 0.31763 0.09162 0.51899 0.0
C393 C 0.31811 0.06815 0.47211 0.0
C394 C 0.33271 0.08567 0.41563 0.0
C395 C 0.34729 0.12799 0.40686 0.0
H396 H 0.95562 0.28003 0.48496 0.0
H397 H 0.85219 0.19126 0.36745 0.0
H398 H 0.84222 0.18337 0.56085 0.0
H399 H 0.77192 0.16113 0.53183 0.0
H400 H 0.68974 0.03994 0.45536 0.0
H401 H 0.81188 0.12051 0.38268 0.0
C402 C 0.92262 0.2547 0.47845 0.0
C403 C 0.89986 0.23475 0.52891 0.0
C404 C 0.90614 0.23822 0.4205 0.0
C405 C 0.86456 0.20372 0.41249 0.0
C406 C 0.83982 0.18479 0.46287 0.0
C407 C 0.85859 0.19991 0.52121 0.0
C408 C 0.79644 0.14669 0.45579 0.0
C409 C 0.76522 0.13858 0.497 0.0
C410 C 0.72726 0.09974 0.49774 0.0
C411 C 0.71853 0.07039 0.4533 0.0
C412 C 0.74857 0.07812 0.4108 0.0
C413 C 0.78768 0.11601 0.41271 0.0
H414 H 0.95551 0.3508 0.2131 0.0
H415 H 0.99301 0.46242 0.31149 0.0
H416 H 0.93157 0.44056 0.13292 0.0
H417 H -0.0047 0.50313 0.12332 0.0
H418 H 0.01531 0.61685 0.18898 0.0
H419 H 0.96506 0.51092 0.3062 0.0
C420 C 0.9556 0.37934 0.217 0.0
C421 C 0.94066 0.39263 0.16784 0.0
C422 C 0.97253 0.4034 0.27002 0.0
C423 C 0.97654 0.44233 0.27265 0.0
C424 C 0.963 0.45664 0.22225 0.0
C425 C 0.9421 0.43 0.17205 0.0
C426 C 0.97757 0.50123 0.21571 0.0
C427 C 0.99312 0.52024 0.15999 0.0
C428 C 0.00593 0.56141 0.15081 0.0
C429 C 0.00517 0.58477 0.19761 0.0
C430 C 0.99091 0.56731 0.25423 0.0
C431 C 0.9769 0.52513 0.26321 0.0
H432 H 0.36757 0.37319 0.18473 0.0
H433 H 0.47072 0.46244 0.30216 0.0
H434 H 0.48055 0.47042 0.10873 0.0
H435 H 0.55082 0.49261 0.13779 0.0
H436 H 0.63294 0.61393 0.21379 0.0
H437 H 0.51091 0.53336 0.28684 0.0
C438 C 0.40048 0.39873 0.19121 0.0
C439 C 0.42313 0.41879 0.14074 0.0
C440 C 0.41692 0.41523 0.24915 0.0
C441 C 0.45837 0.44995 0.25714 0.0
C442 C 0.483 0.469 0.20673 0.0
C443 C 0.46426 0.45383 0.14839 0.0
C444 C 0.52633 0.50715 0.21373 0.0
C445 C 0.55752 0.51522 0.17252 0.0
C446 C 0.59543 0.55408 0.17161 0.0
C447 C 0.60417 0.58348 0.21595 0.0
C448 C 0.57419 0.57577 0.25854 0.0
C449 C 0.53508 0.53787 0.25675 0.0
H450 H 0.37705 0.98891 0.20091 0.0
H451 H 0.47821 0.99238 0.31214 0.0
H452 H 0.48386 0.00104 0.11788 0.0
H453 H 0.55243 0.04177 0.13614 0.0
H454 H 0.63246 -0.00207 0.20199 0.0
H455 H 0.52628 0.97407 0.30366 0.0
C456 C 0.40918 -0.00552 0.20576 0.0
C457 C 0.43047 -0.00158 0.15402 0.0
C458 C 0.42542 0.99049 0.26239 0.0
C459 C 0.46602 -0.00481 0.268 0.0
C460 C 0.48964 0.00232 0.21621 0.0
C461 C 0.46997 0.00159 0.15918 0.0
C462 C 0.53253 0.00635 0.21887 0.0
C463 C 0.55966 0.02547 0.17071 0.0
C464 C 0.59421 0.02066 0.16329 0.0
C465 C 0.60512 0.00094 0.2077 0.0
C466 C 0.58203 0.98611 0.25979 0.0
C467 C 0.54531 0.98819 0.26513 0.0
H468 H 0.61231 -0.00372 0.80192 0.0
H469 H 0.51095 0.9925 0.69082 0.0
H470 H 0.50526 0.98356 0.88505 0.0
H471 H 0.43667 0.94308 0.86689 0.0
H472 H 0.35685 0.98713 0.80085 0.0
H473 H 0.46301 0.01082 0.69936 0.0
C474 C 0.58011 0.99055 0.79708 0.0
C475 C 0.55878 0.98647 0.84885 0.0
C476 C 0.56383 -0.00545 0.74048 0.0
C477 C 0.52316 0.98968 0.73493 0.0
C478 C 0.4995 0.98242 0.78673 0.0
C479 C 0.51919 0.98311 0.84373 0.0
C480 C 0.45663 0.97844 0.7841 0.0
C481 C 0.42948 0.95937 0.83227 0.0
C482 C 0.39496 0.96425 0.83962 0.0
C483 C 0.38413 0.98402 0.79518 0.0
C484 C 0.40729 -0.00114 0.74315 0.0
C485 C 0.44393 -0.00333 0.73785 0.0
H486 H 0.03486 0.63596 0.78973 0.0
H487 H -0.00221 0.52439 0.69156 0.0
H488 H 0.05909 0.54648 0.87026 0.0
H489 H -0.00441 0.48382 0.87987 0.0
H490 H 0.97559 0.37009 0.81422 0.0
H491 H 0.02564 0.47596 0.6969 0.0
C492 C 0.03489 0.60748 0.78592 0.0
C493 C 0.04984 0.59428 0.83517 0.0
C494 C 0.01808 0.58339 0.73292 0.0
C495 C 0.0142 0.54451 0.7304 0.0
C496 C 0.02776 0.53028 0.78087 0.0
C497 C 0.04854 0.55697 0.83107 0.0
C498 C 0.0133 0.48572 0.78746 0.0
C499 C -0.0022 0.46671 0.84321 0.0
C500 C 0.98502 0.42555 0.8524 0.0
C501 C 0.98575 0.40218 0.80559 0.0
C502 C -0.00013 0.4196 0.74891 0.0
C503 C 0.0139 0.46178 0.73994 0.0
H504 H 0.62153 0.61314 0.81799 0.0
H505 H 0.51831 0.52394 0.70065 0.0
H506 H 0.5084 0.51619 0.89406 0.0
H507 H 0.43806 0.49367 0.86505 0.0
H508 H 0.35619 0.37237 0.78884 0.0
H509 H 0.47821 0.45319 0.71597 0.0
C510 C 0.58859 0.58768 0.81153 0.0
C511 C 0.56589 0.56772 0.86203 0.0
C512 C 0.57215 0.57111 0.75362 0.0
C513 C 0.53065 0.53647 0.74566 0.0
C514 C 0.50597 0.5175 0.79607 0.0
C515 C 0.52471 0.53273 0.85439 0.0
C516 C 0.46266 0.4793 0.78906 0.0
C517 C 0.43143 0.47112 0.83027 0.0
C518 C 0.39356 0.43221 0.8311 0.0
C519 C 0.38491 0.40286 0.78671 0.0
C520 C 0.41495 0.41066 0.74418 0.0
C521 C 0.454 0.44862 0.74602 0.0
H522 H 0.62005 0.68357 0.54615 0.0
H523 H 0.65867 0.79546 0.64452 0.0
H524 H 0.59774 0.77432 0.4657 0.0
H525 H 0.66183 0.83656 0.45648 0.0
H526 H 0.68371 0.95088 0.52278 0.0
H527 H 0.63134 0.84447 0.63915 0.0
C528 C 0.62047 0.71228 0.55003 0.0
C529 C 0.60594 0.72587 0.50076 0.0
C530 C 0.63755 0.73629 0.60306 0.0
C531 C 0.64206 0.77543 0.60566 0.0
C532 C 0.6289 0.79003 0.55521 0.0
C533 C 0.60791 0.76351 0.50491 0.0
C534 C 0.64403 0.83475 0.5488 0.0
C535 C 0.65994 0.8538 0.49323 0.0
C536 C 0.67351 0.89519 0.48433 0.0
C537 C 0.67306 0.91866 0.53123 0.0
C538 C 0.65825 0.90109 0.58761 0.0
C539 C 0.64357 0.85875 0.59634 0.0
H540 H 0.0335 0.70658 0.5178 0.0
H541 H 0.13694 0.79528 0.6354 0.0
H542 H 0.14685 0.80337 0.44199 0.0
H543 H 0.21705 0.82521 0.47104 0.0
H544 H 0.29963 0.94636 0.54736 0.0
H545 H 0.17745 0.86617 0.62022 0.0
C546 C 0.06648 0.73195 0.52432 0.0
C547 C 0.08923 0.75196 0.47389 0.0
C548 C 0.08298 0.74834 0.5823 0.0
C549 C 0.12455 0.78287 0.59035 0.0
C550 C 0.14926 0.80185 0.53997 0.0
C551 C 0.13048 0.78681 0.48161 0.0
C552 C 0.19269 0.83985 0.54705 0.0
C553 C 0.22385 0.84781 0.50583 0.0
C554 C 0.26189 0.88657 0.50502 0.0
C555 C 0.27076 0.91597 0.54944 0.0
C556 C 0.2408 0.90837 0.59201 0.0
C557 C 0.20159 0.87057 0.59014 0.0
H558 H 0.0444 0.32287 0.5344 0.0
H559 H 0.14517 0.32551 0.64551 0.0
H560 H 0.15083 0.33423 0.45127 0.0
H561 H 0.21944 0.37467 0.46956 0.0
H562 H 0.29897 0.33024 0.53526 0.0
H563 H 0.19299 0.30689 0.63701 0.0
C564 C 0.07644 0.32822 0.53922 0.0
C565 C 0.09765 0.33201 0.48746 0.0
C566 C 0.09258 0.32404 0.59582 0.0
C567 C 0.13305 0.32845 0.6014 0.0
C568 C 0.15663 0.33546 0.5496 0.0
C569 C 0.13701 0.33489 0.49258 0.0
C570 C 0.19939 0.33922 0.55222 0.0
C571 C 0.22654 0.35826 0.50408 0.0
C572 C 0.26096 0.35325 0.49663 0.0
C573 C 0.27172 0.33338 0.54099 0.0
C574 C 0.24863 0.31864 0.59309 0.0
C575 C 0.21203 0.32093 0.59846 0.0
loop_
_geom_bond_atom_site_label_1
_geom_bond_atom_site_label_2
_geom_bond_distance
_geom_bond_site_symmetry_2
_ccdc_geom_bond_type
Zn0 O3 2.024 1_554 S
Zn0 O5 2.060 . S
Zn0 O10 2.059 1_554 S
Zn1 O2 1.962 1_455 S
Zn1 O4 1.986 . S
Zn1 O6 1.996 1_455 S
Zn1 O9 1.943 1_554 S
O2 Zn1 1.962 1_655 S
O2 C7 1.254 1_554 S
O3 Zn0 2.024 1_556 S
O3 C7 1.269 . S
O4 Zn1 1.986 . S
O4 C11 1.262 . S
O5 Zn0 2.060 . S
O5 C13 1.260 . S
O6 Zn1 1.996 1_655 S
O6 C13 1.257 . S
C7 O2 1.254 1_556 S
C7 O3 1.269 . S
C8 O9 1.249 . S
C8 O10 1.270 1_455 S
O9 Zn1 1.943 1_556 S
O9 C8 1.249 . S
O10 Zn0 2.059 1_556 S
O10 C8 1.270 1_655 S
C11 O4 1.262 . S
C11 O12 1.232 1_554 S
O12 C11 1.232 1_556 S
C13 O5 1.260 . S
C13 O6 1.257 . S
Zn14 O17 2.031 1_554 S
Zn14 O19 2.049 . S
Zn14 O24 2.067 1_554 S
Zn15 O16 1.962 . S
Zn15 O18 1.986 . S
Zn15 O20 1.996 . S
Zn15 O23 1.943 1_554 S
O16 Zn15 1.962 . S
O16 C21 1.254 1_554 S
O17 Zn14 2.031 1_556 S
O17 C21 1.269 . S
O18 Zn15 1.986 . S
O18 C25 1.262 . S
O19 Zn14 2.049 . S
O19 C27 1.260 . S
O20 Zn15 1.996 . S
O20 C27 1.257 . S
C21 O16 1.254 1_556 S
C21 O17 1.269 . S
C22 O23 1.249 . S
C22 O24 1.270 . S
O23 Zn15 1.943 1_556 S
O23 C22 1.249 . S
O24 Zn14 2.067 1_556 S
O24 C22 1.270 . S
C25 O18 1.262 . S
C25 O26 1.232 1_554 S
O26 C25 1.232 1_556 S
C27 O19 1.260 . S
C27 O20 1.257 . S
Zn28 O31 2.031 . S
Zn28 O33 2.049 1_554 S
Zn28 O38 2.067 . S
Zn29 O30 1.962 1_546 S
Zn29 O32 1.986 . S
Zn29 O34 1.996 1_545 S
Zn29 O37 1.943 1_556 S
O30 Zn29 1.962 1_564 S
O30 C35 1.254 . S
O31 Zn28 2.031 . S
O31 C35 1.269 . S
O32 Zn29 1.986 . S
O32 C39 1.262 . S
O33 Zn28 2.049 1_556 S
O33 C41 1.260 . S
O34 Zn29 1.996 1_565 S
O34 C41 1.257 . S
C35 O30 1.254 . S
C35 O31 1.269 . S
C36 O37 1.249 . S
C36 O38 1.270 1_545 S
O37 Zn29 1.943 1_554 S
O37 C36 1.249 . S
O38 Zn28 2.067 . S
O38 C36 1.270 1_565 S
C39 O32 1.262 . S
C39 O40 1.232 1_556 S
O40 C39 1.232 1_554 S
C41 O33 1.260 . S
C41 O34 1.257 . S
Zn42 O45 2.031 . S
Zn42 O47 2.049 1_554 S
Zn42 O52 2.067 . S
Zn43 O44 1.962 1_655 S
Zn43 O46 1.984 1_554 S
Zn43 O48 1.994 1_654 S
Zn43 O51 1.945 . S
O44 Zn43 1.962 1_455 S
O44 C49 1.254 . S
O45 Zn42 2.031 . S
O45 C49 1.269 . S
O46 Zn43 1.984 1_556 S
O46 C53 1.262 . S
O47 Zn42 2.049 1_556 S
O47 C55 1.260 . S
O48 Zn43 1.994 1_456 S
O48 C55 1.257 . S
C49 O44 1.254 . S
C49 O45 1.269 . S
C50 O51 1.249 . S
C50 O52 1.270 1_655 S
O51 Zn43 1.945 . S
O51 C50 1.249 . S
O52 Zn42 2.067 . S
O52 C50 1.270 1_455 S
C53 O46 1.262 . S
C53 O54 1.232 1_556 S
O54 C53 1.232 1_554 S
C55 O47 1.260 . S
C55 O48 1.257 . S
Zn56 O59 2.031 . S
Zn56 O61 2.049 1_554 S
Zn56 O66 2.067 . S
Zn57 O58 1.963 . S
Zn57 O60 1.980 1_554 S
Zn57 O62 1.990 1_554 S
Zn57 O65 1.950 . S
O58 Zn57 1.963 . S
O58 C63 1.254 . S
O59 Zn56 2.031 . S
O59 C63 1.269 . S
O60 Zn57 1.980 1_556 S
O60 C67 1.262 . S
O61 Zn56 2.049 1_556 S
O61 C69 1.260 . S
O62 Zn57 1.990 1_556 S
O62 C69 1.257 . S
C63 O58 1.254 . S
C63 O59 1.269 . S
C64 O65 1.249 . S
C64 O66 1.270 . S
O65 Zn57 1.950 . S
O65 C64 1.249 . S
O66 Zn56 2.067 . S
O66 C64 1.270 . S
C67 O60 1.262 . S
C67 O68 1.232 1_556 S
O68 C67 1.232 1_554 S
C69 O61 1.260 . S
C69 O62 1.257 . S
Zn70 O73 2.031 1_554 S
Zn70 O75 2.049 . S
Zn70 O80 2.067 1_554 S
Zn71 O72 1.962 1_565 S
Zn71 O74 1.986 . S
Zn71 O76 1.996 1_565 S
Zn71 O79 1.943 1_554 S
O72 Zn71 1.962 1_545 S
O72 C77 1.254 1_554 S
O73 Zn70 2.031 1_556 S
O73 C77 1.269 . S
O74 Zn71 1.986 . S
O74 C81 1.262 . S
O75 Zn70 2.049 . S
O75 C83 1.260 . S
O76 Zn71 1.996 1_545 S
O76 C83 1.257 . S
C77 O72 1.254 1_556 S
C77 O73 1.269 . S
C78 O79 1.249 . S
C78 O80 1.270 1_565 S
O79 Zn71 1.943 1_556 S
O79 C78 1.249 . S
O80 Zn70 2.067 1_556 S
O80 C78 1.270 1_545 S
C81 O74 1.262 . S
C81 O82 1.232 1_554 S
O82 C81 1.232 1_556 S
C83 O75 1.260 . S
C83 O76 1.257 . S
Zn84 O87 2.031 . S
Zn84 O89 2.049 . S
Zn84 O94 2.067 . S
Zn85 O86 1.962 . S
Zn85 O88 1.986 . S
Zn85 O90 1.996 . S
Zn85 O93 1.943 . S
O86 Zn85 1.962 . S
O86 C91 1.254 . S
O87 Zn84 2.031 . S
O87 C91 1.269 . S
O88 Zn85 1.986 . S
O88 C95 1.262 . S
O89 Zn84 2.049 . S
O89 C97 1.260 . S
O90 Zn85 1.996 . S
O90 C97 1.257 . S
C91 O86 1.254 . S
C91 O87 1.269 . S
C92 O93 1.249 . S
C92 O94 1.270 . S
O93 Zn85 1.943 . S
O93 C92 1.249 . S
O94 Zn84 2.067 . S
O94 C92 1.270 . S
C95 O88 1.262 . S
C95 O96 1.232 . S
O96 C95 1.232 . S
C97 O89 1.260 . S
C97 O90 1.257 . S
Zn98 O101 2.031 . S
Zn98 O103 2.049 . S
Zn98 O108 2.067 . S
Zn99 O100 1.962 1_565 S
Zn99 O102 1.986 1_565 S
Zn99 O104 1.996 . S
Zn99 O107 1.943 . S
O100 Zn99 1.962 1_545 S
O100 C105 1.254 1_545 S
O101 Zn98 2.031 . S
O101 C105 1.269 . S
O102 Zn99 1.986 1_545 S
O102 C109 1.262 . S
O103 Zn98 2.049 . S
O103 C111 1.260 . S
O104 Zn99 1.996 . S
O104 C111 1.257 . S
C105 O100 1.254 1_565 S
C105 O101 1.269 . S
C106 O107 1.249 . S
C106 O108 1.270 . S
O107 Zn99 1.943 . S
O107 C106 1.249 . S
O108 Zn98 2.067 . S
O108 C106 1.270 . S
C109 O102 1.262 . S
C109 O110 1.232 . S
O110 C109 1.232 . S
C111 O103 1.260 . S
C111 O104 1.257 . S
Zn112 O115 2.031 1_455 S
Zn112 O117 2.049 . S
Zn112 O122 2.067 . S
Zn113 O114 1.962 1_455 S
Zn113 O116 1.986 . S
Zn113 O118 1.996 . S
Zn113 O121 1.943 . S
O114 Zn113 1.962 1_655 S
O114 C119 1.254 . S
O115 Zn112 2.031 1_655 S
O115 C119 1.269 . S
O116 Zn113 1.986 . S
O116 C123 1.262 . S
O117 Zn112 2.049 . S
O117 C125 1.260 . S
O118 Zn113 1.996 . S
O118 C125 1.257 . S
C119 O114 1.254 . S
C119 O115 1.269 . S
C120 O121 1.249 . S
C120 O122 1.270 . S
O121 Zn113 1.943 . S
O121 C120 1.249 . S
O122 Zn112 2.067 . S
O122 C120 1.270 . S
C123 O116 1.262 . S
C123 O124 1.232 1_455 S
O124 C123 1.232 1_655 S
C125 O117 1.260 . S
C125 O118 1.257 . S
Zn126 O129 2.031 1_565 S
Zn126 O131 2.049 . S
Zn126 O136 2.067 . S
Zn127 O128 1.962 1_565 S
Zn127 O130 1.986 . S
Zn127 O132 1.996 . S
Zn127 O135 1.943 . S
O128 Zn127 1.962 1_545 S
O128 C133 1.254 . S
O129 Zn126 2.031 1_545 S
O129 C133 1.269 . S
O130 Zn127 1.986 . S
O130 C137 1.262 . S
O131 Zn126 2.049 . S
O131 C139 1.260 . S
O132 Zn127 1.996 . S
O132 C139 1.257 . S
C133 O128 1.254 . S
C133 O129 1.269 . S
C134 O135 1.249 . S
C134 O136 1.270 . S
O135 Zn127 1.943 . S
O135 C134 1.249 . S
O136 Zn126 2.067 . S
O136 C134 1.270 . S
C137 O130 1.262 . S
C137 O138 1.232 1_565 S
O138 C137 1.232 1_545 S
C139 O131 1.260 . S
C139 O132 1.257 . S
Zn140 O143 2.031 1_455 S
Zn140 O145 2.049 . S
Zn140 O150 2.067 . S
Zn141 O142 1.962 1_455 S
Zn141 O144 1.986 . S
Zn141 O146 1.996 . S
Zn141 O149 1.943 . S
O142 Zn141 1.962 1_655 S
O142 C147 1.254 . S
O143 Zn140 2.031 1_655 S
O143 C147 1.269 . S
O144 Zn141 1.986 . S
O144 C151 1.262 . S
O145 Zn140 2.049 . S
O145 C153 1.260 . S
O146 Zn141 1.996 . S
O146 C153 1.257 . S
C147 O142 1.254 . S
C147 O143 1.269 . S
C148 O149 1.249 . S
C148 O150 1.270 . S
O149 Zn141 1.943 . S
O149 C148 1.249 . S
O150 Zn140 2.067 . S
O150 C148 1.270 . S
C151 O144 1.262 . S
C151 O152 1.232 1_455 S
O152 C151 1.232 1_655 S
C153 O145 1.260 . S
C153 O146 1.257 . S
Zn154 O157 2.031 . S
Zn154 O159 2.049 . S
Zn154 O164 2.067 . S
Zn155 O156 1.962 . S
Zn155 O158 1.986 . S
Zn155 O160 1.996 . S
Zn155 O163 1.943 . S
O156 Zn155 1.962 . S
O156 C161 1.254 . S
O157 Zn154 2.031 . S
O157 C161 1.269 . S
O158 Zn155 1.986 . S
O158 C165 1.262 . S
O159 Zn154 2.049 . S
O159 C167 1.260 . S
O160 Zn155 1.996 . S
O160 C167 1.257 . S
C161 O156 1.254 . S
C161 O157 1.269 . S
C162 O163 1.249 . S
C162 O164 1.270 . S
O163 Zn155 1.943 . S
O163 C162 1.249 . S
O164 Zn154 2.067 . S
O164 C162 1.270 . S
C165 O158 1.262 . S
C165 O166 1.232 . S
O166 C165 1.232 . S
C167 O159 1.260 . S
C167 O160 1.257 . S
Zn168 O171 2.031 1_545 S
Zn168 O173 2.049 . S
Zn168 O178 2.067 . S
Zn169 O170 1.962 1_545 S
Zn169 O172 1.986 . S
Zn169 O174 1.996 . S
Zn169 O177 1.943 . S
O170 Zn169 1.962 1_565 S
O170 C175 1.254 . S
O171 Zn168 2.031 1_565 S
O171 C175 1.269 . S
O172 Zn169 1.986 . S
O172 C179 1.262 . S
O173 Zn168 2.049 . S
O173 C181 1.260 . S
O174 Zn169 1.996 . S
O174 C181 1.257 . S
C175 O170 1.254 . S
C175 O171 1.269 . S
C176 O177 1.249 . S
C176 O178 1.270 . S
O177 Zn169 1.943 . S
O177 C176 1.249 . S
O178 Zn168 2.067 . S
O178 C176 1.270 . S
C179 O172 1.262 . S
C179 O180 1.232 1_545 S
O180 C179 1.232 1_565 S
C181 O173 1.260 . S
C181 O174 1.257 . S
Zn182 O185 2.031 1_655 S
Zn182 O187 2.049 . S
Zn182 O192 2.067 . S
Zn183 O184 1.962 1_655 S
Zn183 O186 1.986 . S
Zn183 O188 1.996 . S
Zn183 O191 1.943 . S
O184 Zn183 1.962 1_455 S
O184 C189 1.254 . S
O185 Zn182 2.031 1_455 S
O185 C189 1.269 . S
O186 Zn183 1.986 . S
O186 C193 1.262 . S
O187 Zn182 2.049 . S
O187 C195 1.260 . S
O188 Zn183 1.996 . S
O188 C195 1.257 . S
C189 O184 1.254 . S
C189 O185 1.269 . S
C190 O191 1.249 . S
C190 O192 1.270 . S
O191 Zn183 1.943 . S
O191 C190 1.249 . S
O192 Zn182 2.067 . S
O192 C190 1.270 . S
C193 O186 1.262 . S
C193 O194 1.232 1_655 S
O194 C193 1.232 1_455 S
C195 O187 1.260 . S
C195 O188 1.257 . S
Zn196 O199 2.031 . S
Zn196 O201 2.049 . S
Zn196 O206 2.067 . S
Zn197 O198 1.962 . S
Zn197 O200 1.986 . S
Zn197 O202 1.996 . S
Zn197 O205 1.943 . S
O198 Zn197 1.962 . S
O198 C203 1.254 . S
O199 Zn196 2.031 . S
O199 C203 1.269 . S
O200 Zn197 1.986 . S
O200 C207 1.262 . S
O201 Zn196 2.049 . S
O201 C209 1.260 . S
O202 Zn197 1.996 . S
O202 C209 1.257 . S
C203 O198 1.254 . S
C203 O199 1.269 . S
C204 O205 1.249 . S
C204 O206 1.270 . S
O205 Zn197 1.943 . S
O205 C204 1.249 . S
O206 Zn196 2.067 . S
O206 C204 1.270 . S
C207 O200 1.262 . S
C207 O208 1.232 . S
O208 C207 1.232 . S
C209 O201 1.260 . S
C209 O202 1.257 . S
Zn210 O213 2.031 . S
Zn210 O215 2.049 . S
Zn210 O220 2.067 . S
Zn211 O212 1.962 . S
Zn211 O214 1.986 . S
Zn211 O216 1.996 . S
Zn211 O219 1.943 . S
O212 Zn211 1.962 . S
O212 C217 1.254 . S
O213 Zn210 2.031 . S
O213 C217 1.269 . S
O214 Zn211 1.986 . S
O214 C221 1.262 . S
O215 Zn210 2.049 . S
O215 C223 1.260 . S
O216 Zn211 1.996 . S
O216 C223 1.257 . S
C217 O212 1.254 . S
C217 O213 1.269 . S
C218 O219 1.249 . S
C218 O220 1.270 . S
O219 Zn211 1.943 . S
O219 C218 1.249 . S
O220 Zn210 2.067 . S
O220 C218 1.270 . S
C221 O214 1.262 . S
C221 O222 1.232 . S
O222 C221 1.232 . S
C223 O215 1.260 . S
C223 O216 1.257 . S
Zn224 O227 2.031 . S
Zn224 O229 2.049 . S
Zn224 O234 2.067 . S
Zn225 O226 1.962 1_545 S
Zn225 O228 1.986 1_545 S
Zn225 O230 1.996 . S
Zn225 O233 1.943 . S
O226 Zn225 1.962 1_565 S
O226 C231 1.254 1_565 S
O227 Zn224 2.031 . S
O227 C231 1.269 . S
O228 Zn225 1.986 1_565 S
O228 C235 1.262 . S
O229 Zn224 2.049 . S
O229 C237 1.260 . S
O230 Zn225 1.996 . S
O230 C237 1.257 . S
C231 O226 1.254 1_545 S
C231 O227 1.269 . S
C232 O233 1.249 . S
C232 O234 1.270 . S
O233 Zn225 1.943 . S
O233 C232 1.249 . S
O234 Zn224 2.067 . S
O234 C232 1.270 . S
C235 O228 1.262 . S
C235 O236 1.232 . S
O236 C235 1.232 . S
C237 O229 1.260 . S
C237 O230 1.257 . S
Zn238 O241 2.031 1_655 S
Zn238 O243 2.049 . S
Zn238 O248 2.067 . S
Zn239 O240 1.962 1_655 S
Zn239 O242 1.986 . S
Zn239 O244 1.996 . S
Zn239 O247 1.943 . S
O240 Zn239 1.962 1_455 S
O240 C245 1.254 . S
O241 Zn238 2.031 1_455 S
O241 C245 1.269 . S
O242 Zn239 1.986 . S
O242 C249 1.262 . S
O243 Zn238 2.049 . S
O243 C251 1.260 . S
O244 Zn239 1.996 . S
O244 C251 1.257 . S
C245 O240 1.254 . S
C245 O241 1.269 . S
C246 O247 1.249 . S
C246 O248 1.270 . S
O247 Zn239 1.943 . S
O247 C246 1.249 . S
O248 Zn238 2.067 . S
O248 C246 1.270 . S
C249 O242 1.262 . S
C249 O250 1.232 1_655 S
O250 C249 1.232 1_455 S
C251 O243 1.260 . S
C251 O244 1.257 . S
H252 C258 0.930 . S
H253 C261 0.931 . S
H254 C263 0.931 . S
H255 C265 0.930 . S
H256 C267 0.930 . S
H257 C269 0.931 . S
C258 H252 0.930 . S
C258 C259 1.380 . S
C258 C260 1.394 . S
C259 C258 1.380 . S
C259 C263 1.382 . S
C260 C258 1.394 . S
C260 C261 1.400 . S
C261 H253 0.931 . S
C261 C260 1.400 . S
C261 C262 1.375 . S
C262 C261 1.375 . S
C262 C263 1.415 . S
C262 C264 1.501 . S
C263 H254 0.931 . S
C263 C259 1.382 . S
C263 C262 1.415 . S
C264 C262 1.501 . S
C264 C265 1.384 . S
C264 C269 1.408 . S
C265 H255 0.930 . S
C265 C264 1.384 . S
C265 C266 1.389 . S
C266 C265 1.389 . S
C266 C267 1.405 . S
C267 H256 0.930 . S
C267 C266 1.405 . S
C267 C268 1.364 . S
C268 C267 1.364 . S
C268 C269 1.400 . S
C269 H257 0.931 . S
C269 C264 1.408 . S
C269 C268 1.400 . S
H270 C276 0.930 . S
H271 C279 0.931 . S
H272 C281 0.931 . S
H273 C283 0.930 . S
H274 C285 0.930 . S
H275 C287 0.931 . S
C276 H270 0.930 . S
C276 C277 1.380 . S
C276 C278 1.394 . S
C277 C276 1.380 . S
C277 C281 1.382 . S
C278 C276 1.394 . S
C278 C279 1.400 . S
C279 H271 0.931 . S
C279 C278 1.400 . S
C279 C280 1.375 . S
C280 C279 1.375 . S
C280 C281 1.415 . S
C280 C282 1.501 . S
C281 H272 0.931 . S
C281 C277 1.382 . S
C281 C280 1.415 . S
C282 C280 1.501 . S
C282 C283 1.384 . S
C282 C287 1.408 . S
C283 H273 0.930 . S
C283 C282 1.384 . S
C283 C284 1.389 . S
C284 C283 1.389 . S
C284 C285 1.405 . S
C285 H274 0.930 . S
C285 C284 1.405 . S
C285 C286 1.364 . S
C286 C285 1.364 . S
C286 C287 1.400 . S
C287 H275 0.931 . S
C287 C282 1.408 . S
C287 C286 1.400 . S
H288 C294 0.930 . S
H289 C297 0.931 . S
H290 C299 0.931 . S
H291 C301 0.930 . S
H292 C303 0.930 . S
H293 C305 0.931 . S
C294 H288 0.930 . S
C294 C295 1.380 . S
C294 C296 1.394 . S
C295 C294 1.380 . S
C295 C299 1.382 . S
C296 C294 1.394 . S
C296 C297 1.400 . S
C297 H289 0.931 . S
C297 C296 1.400 . S
C297 C298 1.375 . S
C298 C297 1.375 . S
C298 C299 1.415 . S
C298 C300 1.501 . S
C299 H290 0.931 . S
C299 C295 1.382 . S
C299 C298 1.415 . S
C300 C298 1.501 . S
C300 C301 1.384 . S
C300 C305 1.408 . S
C301 H291 0.930 . S
C301 C300 1.384 . S
C301 C302 1.389 . S
C302 C301 1.389 . S
C302 C303 1.405 . S
C303 H292 0.930 . S
C303 C302 1.405 . S
C303 C304 1.364 . S
C304 C303 1.364 . S
C304 C305 1.400 . S
C305 H293 0.931 . S
C305 C300 1.408 . S
C305 C304 1.400 . S
H306 C312 0.930 . S
H307 C315 0.931 . S
H308 C317 0.931 . S
H309 C319 0.930 . S
H310 C321 0.930 . S
H311 C323 0.931 . S
C312 H306 0.930 . S
C312 C313 1.380 . S
C312 C314 1.394 . S
C313 C312 1.380 . S
C313 C317 1.382 . S
C314 C312 1.394 . S
C314 C315 1.400 . S
C315 H307 0.931 . S
C315 C314 1.400 . S
C315 C316 1.375 . S
C316 C315 1.375 . S
C316 C317 1.415 . S
C316 C318 1.501 . S
C317 H308 0.931 . S
C317 C313 1.382 . S
C317 C316 1.415 . S
C318 C316 1.501 . S
C318 C319 1.384 . S
C318 C323 1.408 . S
C319 H309 0.930 . S
C319 C318 1.384 . S
C319 C320 1.389 . S
C320 C319 1.389 . S
C320 C321 1.405 . S
C321 H310 0.930 . S
C321 C320 1.405 . S
C321 C322 1.364 . S
C322 C321 1.364 . S
C322 C323 1.400 . S
C323 H311 0.931 . S
C323 C318 1.408 . S
C323 C322 1.400 . S
H324 C330 0.930 . S
H325 C333 0.931 . S
H326 C335 0.931 . S
H327 C337 0.930 . S
H328 C339 0.930 . S
H329 C341 0.931 . S
C330 H324 0.930 . S
C330 C331 1.380 . S
C330 C332 1.394 . S
C331 C330 1.380 . S
C331 C335 1.382 . S
C332 C330 1.394 . S
C332 C333 1.400 . S
C333 H325 0.931 . S
C333 C332 1.400 . S
C333 C334 1.375 . S
C334 C333 1.375 . S
C334 C335 1.415 . S
C334 C336 1.501 . S
C335 H326 0.931 . S
C335 C331 1.382 . S
C335 C334 1.415 . S
C336 C334 1.501 . S
C336 C337 1.384 . S
C336 C341 1.408 . S
C337 H327 0.930 . S
C337 C336 1.384 . S
C337 C338 1.389 . S
C338 C337 1.389 . S
C338 C339 1.405 . S
C339 H328 0.930 . S
C339 C338 1.405 . S
C339 C340 1.364 . S
C340 C339 1.364 . S
C340 C341 1.400 . S
C341 H329 0.931 . S
C341 C336 1.408 . S
C341 C340 1.400 . S
H342 C348 0.930 . S
H343 C351 0.931 . S
H344 C353 0.931 . S
H345 C355 0.930 . S
H346 C357 0.930 . S
H347 C359 0.931 . S
C348 H342 0.930 . S
C348 C349 1.380 . S
C348 C350 1.394 . S
C349 C348 1.380 . S
C349 C353 1.382 . S
C350 C348 1.394 . S
C350 C351 1.400 . S
C351 H343 0.931 . S
C351 C350 1.400 . S
C351 C352 1.375 . S
C352 C351 1.375 . S
C352 C353 1.415 . S
C352 C354 1.501 . S
C353 H344 0.931 . S
C353 C349 1.382 . S
C353 C352 1.415 . S
C354 C352 1.501 . S
C354 C355 1.384 . S
C354 C359 1.408 . S
C355 H345 0.930 . S
C355 C354 1.384 . S
C355 C356 1.389 . S
C356 C355 1.389 . S
C356 C357 1.405 . S
C357 H346 0.930 . S
C357 C356 1.405 . S
C357 C358 1.364 . S
C358 C357 1.364 . S
C358 C359 1.400 . S
C359 H347 0.931 . S
C359 C354 1.408 . S
C359 C358 1.400 . S
H360 C366 0.930 . S
H361 C369 0.931 . S
H362 C371 0.931 . S
H363 C373 0.930 . S
H364 C375 0.930 . S
H365 C377 0.931 . S
C366 H360 0.930 . S
C366 C367 1.380 . S
C366 C368 1.394 . S
C367 C366 1.380 . S
C367 C371 1.382 . S
C368 C366 1.394 . S
C368 C369 1.400 . S
C369 H361 0.931 . S
C369 C368 1.400 . S
C369 C370 1.375 . S
C370 C369 1.375 . S
C370 C371 1.415 . S
C370 C372 1.501 . S
C371 H362 0.931 . S
C371 C367 1.382 . S
C371 C370 1.415 . S
C372 C370 1.501 . S
C372 C373 1.384 . S
C372 C377 1.408 . S
C373 H363 0.930 . S
C373 C372 1.384 . S
C373 C374 1.389 . S
C374 C373 1.389 . S
C374 C375 1.405 . S
C375 H364 0.930 . S
C375 C374 1.405 . S
C375 C376 1.364 . S
C376 C375 1.364 . S
C376 C377 1.400 . S
C377 H365 0.931 . S
C377 C372 1.408 . S
C377 C376 1.400 . S
H378 C384 0.930 . S
H379 C387 0.931 . S
H380 C389 0.931 . S
H381 C391 0.930 . S
H382 C393 0.930 . S
H383 C395 0.931 . S
C384 H378 0.930 . S
C384 C385 1.380 . S
C384 C386 1.394 . S
C385 C384 1.380 . S
C385 C389 1.382 . S
C386 C384 1.394 . S
C386 C387 1.400 . S
C387 H379 0.931 . S
C387 C386 1.400 . S
C387 C388 1.375 . S
C388 C387 1.375 . S
C388 C389 1.415 . S
C388 C390 1.501 . S
C389 H380 0.931 . S
C389 C385 1.382 . S
C389 C388 1.415 . S
C390 C388 1.501 . S
C390 C391 1.384 . S
C390 C395 1.408 . S
C391 H381 0.930 . S
C391 C390 1.384 . S
C391 C392 1.389 . S
C392 C391 1.389 . S
C392 C393 1.405 . S
C393 H382 0.930 . S
C393 C392 1.405 . S
C393 C394 1.364 . S
C394 C393 1.364 . S
C394 C395 1.400 . S
C395 H383 0.931 . S
C395 C390 1.408 . S
C395 C394 1.400 . S
H396 C402 0.930 . S
H397 C405 0.931 . S
H398 C407 0.931 . S
H399 C409 0.930 . S
H400 C411 0.930 . S
H401 C413 0.931 . S
C402 H396 0.930 . S
C402 C403 1.380 . S
C402 C404 1.394 . S
C403 C402 1.380 . S
C403 C407 1.382 . S
C404 C402 1.394 . S
C404 C405 1.400 . S
C405 H397 0.931 . S
C405 C404 1.400 . S
C405 C406 1.375 . S
C406 C405 1.375 . S
C406 C407 1.415 . S
C406 C408 1.501 . S
C407 H398 0.931 . S
C407 C403 1.382 . S
C407 C406 1.415 . S
C408 C406 1.501 . S
C408 C409 1.384 . S
C408 C413 1.408 . S
C409 H399 0.930 . S
C409 C408 1.384 . S
C409 C410 1.389 . S
C410 C409 1.389 . S
C410 C411 1.405 . S
C411 H400 0.930 . S
C411 C410 1.405 . S
C411 C412 1.364 . S
C412 C411 1.364 . S
C412 C413 1.400 . S
C413 H401 0.931 . S
C413 C408 1.408 . S
C413 C412 1.400 . S
H414 C420 0.921 . S
H415 C423 0.931 . S
H416 C425 0.931 . S
H417 C427 0.930 . S
H418 C429 0.930 . S
H419 C431 0.928 . S
C420 H414 0.921 . S
C420 C421 1.387 . S
C420 C422 1.396 1_655 S
C421 C420 1.387 . S
C421 C425 1.382 . S
C422 C420 1.396 1_455 S
C422 C423 1.400 . S
C423 H415 0.931 . S
C423 C422 1.400 . S
C423 C424 1.375 . S
C424 C423 1.375 . S
C424 C425 1.415 1_455 S
C424 C426 1.501 . S
C425 H416 0.931 . S
C425 C421 1.382 . S
C425 C424 1.415 1_655 S
C426 C424 1.501 . S
C426 C427 1.384 . S
C426 C431 1.408 . S
C427 H417 0.930 . S
C427 C426 1.384 . S
C427 C428 1.389 . S
C428 C427 1.389 . S
C428 C429 1.405 . S
C429 H418 0.930 . S
C429 C428 1.405 . S
C429 C430 1.364 . S
C430 C429 1.364 . S
C430 C431 1.400 . S
C431 H419 0.928 . S
C431 C426 1.408 . S
C431 C430 1.400 . S
H432 C438 0.930 . S
H433 C441 0.931 . S
H434 C443 0.931 . S
H435 C445 0.930 . S
H436 C447 0.930 . S
H437 C449 0.931 . S
C438 H432 0.930 . S
C438 C439 1.380 . S
C438 C440 1.394 . S
C439 C438 1.380 . S
C439 C443 1.382 . S
C440 C438 1.394 . S
C440 C441 1.400 . S
C441 H433 0.931 . S
C441 C440 1.400 . S
C441 C442 1.375 . S
C442 C441 1.375 . S
C442 C443 1.415 . S
C442 C444 1.501 . S
C443 H434 0.931 . S
C443 C439 1.382 . S
C443 C442 1.415 . S
C444 C442 1.501 . S
C444 C445 1.384 . S
C444 C449 1.408 . S
C445 H435 0.930 . S
C445 C444 1.384 . S
C445 C446 1.389 . S
C446 C445 1.389 . S
C446 C447 1.405 . S
C447 H436 0.930 . S
C447 C446 1.405 . S
C447 C448 1.364 . S
C448 C447 1.364 . S
C448 C449 1.400 . S
C449 H437 0.931 . S
C449 C444 1.408 . S
C449 C448 1.400 . S
H450 C456 0.930 . S
H451 C459 0.931 . S
H452 C461 0.931 . S
H453 C463 0.930 . S
H454 C465 0.930 . S
H455 C467 0.931 . S
C456 H450 0.930 . S
C456 C457 1.380 . S
C456 C458 1.394 1_545 S
C457 C456 1.380 . S
C457 C461 1.382 . S
C458 C456 1.394 1_565 S
C458 C459 1.400 . S
C459 H451 0.931 . S
C459 C458 1.400 . S
C459 C460 1.375 . S
C460 C459 1.375 . S
C460 C461 1.415 1_565 S
C460 C462 1.501 . S
C461 H452 0.931 . S
C461 C457 1.382 . S
C461 C460 1.415 1_545 S
C462 C460 1.501 . S
C462 C463 1.384 . S
C462 C467 1.408 . S
C463 H453 0.930 . S
C463 C462 1.384 . S
C463 C464 1.389 . S
C464 C463 1.389 . S
C464 C465 1.405 . S
C465 H454 0.930 . S
C465 C464 1.405 . S
C465 C466 1.364 . S
C466 C465 1.364 . S
C466 C467 1.400 . S
C467 H455 0.931 . S
C467 C462 1.408 . S
C467 C466 1.400 . S
H468 C474 0.925 . S
H469 C477 0.931 . S
H470 C479 0.941 . S
H471 C481 0.930 . S
H472 C483 0.930 . S
H473 C485 0.931 . S
C474 H468 0.925 . S
C474 C475 1.385 1_545 S
C474 C476 1.396 1_545 S
C475 C474 1.385 1_565 S
C475 C479 1.379 . S
C476 C474 1.396 1_565 S
C476 C477 1.400 . S
C477 H469 0.931 . S
C477 C476 1.400 . S
C477 C478 1.375 . S
C478 C477 1.375 . S
C478 C479 1.415 . S
C478 C480 1.501 . S
C479 H470 0.941 . S
C479 C475 1.379 . S
C479 C478 1.415 . S
C480 C478 1.501 . S
C480 C481 1.384 . S
C480 C485 1.408 1_565 S
C481 H471 0.930 . S
C481 C480 1.384 . S
C481 C482 1.389 . S
C482 C481 1.389 . S
C482 C483 1.405 . S
C483 H472 0.930 . S
C483 C482 1.405 . S
C483 C484 1.364 1_565 S
C484 C483 1.364 1_545 S
C484 C485 1.400 . S
C485 H473 0.931 . S
C485 C480 1.408 1_545 S
C485 C484 1.400 . S
H486 C492 0.930 . S
H487 C495 0.931 . S
H488 C497 0.926 . S
H489 C499 0.930 . S
H490 C501 0.930 . S
H491 C503 0.931 . S
C492 H486 0.930 . S
C492 C493 1.386 . S
C492 C494 1.385 1_655 S
C493 C492 1.386 . S
C493 C497 1.370 1_655 S
C494 C492 1.385 1_455 S
C494 C495 1.418 . S
C495 H487 0.931 . S
C495 C494 1.418 . S
C495 C496 1.375 . S
C496 C495 1.375 . S
C496 C497 1.415 . S
C496 C498 1.501 . S
C497 H488 0.926 . S
C497 C493 1.370 1_455 S
C497 C496 1.415 . S
C498 C496 1.501 . S
C498 C499 1.384 . S
C498 C503 1.408 1_455 S
C499 H489 0.930 . S
C499 C498 1.384 . S
C499 C500 1.389 . S
C500 C499 1.389 . S
C500 C501 1.405 . S
C501 H490 0.930 . S
C501 C500 1.405 . S
C501 C502 1.364 1_455 S
C502 C501 1.364 1_655 S
C502 C503 1.400 . S
C503 H491 0.931 . S
C503 C498 1.408 1_655 S
C503 C502 1.400 . S
H504 C510 0.930 . S
H505 C513 0.931 . S
H506 C515 0.931 . S
H507 C517 0.930 . S
H508 C519 0.930 . S
H509 C521 0.931 . S
C510 H504 0.930 . S
C510 C511 1.380 . S
C510 C512 1.394 . S
C511 C510 1.380 . S
C511 C515 1.382 . S
C512 C510 1.394 . S
C512 C513 1.400 . S
C513 H505 0.931 . S
C513 C512 1.400 . S
C513 C514 1.375 . S
C514 C513 1.375 . S
C514 C515 1.415 . S
C514 C516 1.501 . S
C515 H506 0.931 . S
C515 C511 1.382 . S
C515 C514 1.415 . S
C516 C514 1.501 . S
C516 C517 1.384 . S
C516 C521 1.408 . S
C517 H507 0.930 . S
C517 C516 1.384 . S
C517 C518 1.389 . S
C518 C517 1.389 . S
C518 C519 1.405 . S
C519 H508 0.930 . S
C519 C518 1.405 . S
C519 C520 1.364 . S
C520 C519 1.364 . S
C520 C521 1.400 . S
C521 H509 0.931 . S
C521 C516 1.408 . S
C521 C520 1.400 . S
H522 C528 0.930 . S
H523 C531 0.931 . S
H524 C533 0.931 . S
H525 C535 0.930 . S
H526 C537 0.930 . S
H527 C539 0.931 . S
C528 H522 0.930 . S
C528 C529 1.380 . S
C528 C530 1.394 . S
C529 C528 1.380 . S
C529 C533 1.382 . S
C530 C528 1.394 . S
C530 C531 1.400 . S
C531 H523 0.931 . S
C531 C530 1.400 . S
C531 C532 1.375 . S
C532 C531 1.375 . S
C532 C533 1.415 . S
C532 C534 1.501 . S
C533 H524 0.931 . S
C533 C529 1.382 . S
C533 C532 1.415 . S
C534 C532 1.501 . S
C534 C535 1.384 . S
C534 C539 1.408 . S
C535 H525 0.930 . S
C535 C534 1.384 . S
C535 C536 1.389 . S
C536 C535 1.389 . S
C536 C537 1.405 . S
C537 H526 0.930 . S
C537 C536 1.405 . S
C537 C538 1.364 . S
C538 C537 1.364 . S
C538 C539 1.400 . S
C539 H527 0.931 . S
C539 C534 1.408 . S
C539 C538 1.400 . S
H540 C546 0.930 . S
H541 C549 0.931 . S
H542 C551 0.931 . S
H543 C553 0.930 . S
H544 C555 0.930 . S
H545 C557 0.931 . S
C546 H540 0.930 . S
C546 C547 1.380 . S
C546 C548 1.394 . S
C547 C546 1.380 . S
C547 C551 1.382 . S
C548 C546 1.394 . S
C548 C549 1.400 . S
C549 H541 0.931 . S
C549 C548 1.400 . S
C549 C550 1.375 . S
C550 C549 1.375 . S
C550 C551 1.415 . S
C550 C552 1.501 . S
C551 H542 0.931 . S
C551 C547 1.382 . S
C551 C550 1.415 . S
C552 C550 1.501 . S
C552 C553 1.384 . S
C552 C557 1.408 . S
C553 H543 0.930 . S
C553 C552 1.384 . S
C553 C554 1.389 . S
C554 C553 1.389 . S
C554 C555 1.405 . S
C555 H544 0.930 . S
C555 C554 1.405 . S
C555 C556 1.364 . S
C556 C555 1.364 . S
C556 C557 1.400 . S
C557 H545 0.931 . S
C557 C552 1.408 . S
C557 C556 1.400 . S
H558 C564 0.930 . S
H559 C567 0.931 . S
H560 C569 0.931 . S
H561 C571 0.930 . S
H562 C573 0.930 . S
H563 C575 0.931 . S
C564 H558 0.930 . S
C564 C565 1.380 . S
C564 C566 1.394 . S
C565 C564 1.380 . S
C565 C569 1.382 . S
C566 C564 1.394 . S
C566 C567 1.400 . S
C567 H559 0.931 . S
C567 C566 1.400 . S
C567 C568 1.375 . S
C568 C567 1.375 . S
C568 C569 1.415 . S
C568 C570 1.501 . S
C569 H560 0.931 . S
C569 C565 1.382 . S
C569 C568 1.415 . S
C570 C568 1.501 . S
C570 C571 1.384 . S
C570 C575 1.408 . S
C571 H561 0.930 . S
C571 C570 1.384 . S
C571 C572 1.389 . S
C572 C571 1.389 . S
C572 C573 1.405 . S
C573 H562 0.930 . S
C573 C572 1.405 . S
C573 C574 1.364 . S
C574 C573 1.364 . S
C574 C575 1.400 . S
C575 H563 0.931 . S
C575 C570 1.408 . S
C575 C574 1.400 . S
C13 C421 1.650 . S
C27 C446 1.559 . S
C457 C36 1.573 . S
C41 C482 1.575 . S
C8 C500 1.665 . S
C22 C511 1.532 . S
C55 C493 1.740 1_455 S
C518 C69 1.707 . S
C475 C78 1.573 . S
C83 C464 1.739 1_545 S
C428 C50 1.639 1_455 S
C64 C439 1.514 . S
C97 C529 1.611 . S
C111 C554 1.567 . S
C565 C120 1.670 . S
C125 C266 1.574 . S
C92 C284 1.829 . S
C106 C295 1.592 . S
C139 C277 1.624 . S
C153 C302 1.721 . S
C259 C162 1.615 . S
C572 C167 1.650 . S
C536 C134 1.698 . S
C547 C148 1.558 . S
C181 C313 1.600 . S
C195 C338 1.590 . S
C204 C349 1.667 . S
C209 C374 1.579 . S
C392 C176 1.842 . S
C403 C190 1.600 . S
C385 C223 1.633 . S
C410 C237 1.688 . S
C246 C367 1.612 . S
C356 C251 1.652 . S
C218 C320 1.691 . S
C331 C232 1.563 . S
C268 C11 1.400 . S
C25 C286 1.332 . S
C296 C35 1.385 . S
C314 C39 1.367 . S
C340 C7 1.504 . S
C350 C21 1.377 . S
C53 C358 1.446 . S
C67 C322 1.380 . S
C77 C332 1.522 . S
C81 C278 1.506 . S
C304 C49 1.575 . S
C63 C260 1.549 . S
C376 C95 1.334 . S
C109 C394 1.342 . S
C119 C404 1.373 . S
C422 C123 1.250 . S
C91 C448 1.431 . S
C105 C458 1.268 . S
C137 C466 1.299 . S
C151 C430 1.242 . S
C440 C161 1.452 . S
C165 C386 1.471 . S
C133 C412 1.523 . S
C368 C147 1.543 . S
C484 C179 1.292 . S
C193 C502 1.242 . S
C203 C512 1.335 . S
C530 C207 1.330 . S
C556 C175 1.462 . S
C189 C566 1.389 . S
C221 C574 1.377 . S
C235 C538 1.389 . S
C548 C245 1.488 . S
C494 C249 1.257 1_455 S
C520 C217 1.490 . S
C231 C476 1.389 1_545 S
