# Generated by pormake.
# Topology ptr, (4,4)-cn, num edge types: 1
# Building blocks:
#     Node 0, Type 0, BuildingBlock: QUQFOY_clean_sbu_1, # of connection points: 4
#     Node 1, Type 0, BuildingBlock: QUQFOY_clean_sbu_1, # of connection points: 4
#     Node 2, Type 0, BuildingBlock: QUQFOY_clean_sbu_1, # of connection points: 4
#     Node 3, Type 0, BuildingBlock: QUQFOY_clean_sbu_1, # of connection points: 4
#     Node 4, Type 0, BuildingBlock: QUQFOY_clean_sbu_1, # of connection points: 4
#     Node 5, Type 0, BuildingBlock: QUQFOY_clean_sbu_1, # of connection points: 4
#     Node 6, Type 0, BuildingBlock: QUQFOY_clean_sbu_1, # of connection points: 4
#     Node 7, Type 0, BuildingBlock: QUQFOY_clean_sbu_1, # of connection points: 4
#     Node 8, Type 0, BuildingBlock: QUQFOY_clean_sbu_1, # of connection points: 4
#     Node 9, Type 0, BuildingBlock: QUQFOY_clean_sbu_1, # of connection points: 4
#     Node 10, Type 0, BuildingBlock: QUQFOY_clean_sbu_1, # of connection points: 4
#     Node 11, Type 0, BuildingBlock: QUQFOY_clean_sbu_1, # of connection points: 4
#     Node 12, Type 0, BuildingBlock: QUQFOY_clean_sbu_1, # of connection points: 4
#     Node 13, Type 0, BuildingBlock: QUQFOY_clean_sbu_1, # of connection points: 4
#     Node 14, Type 0, BuildingBlock: QUQFOY_clean_sbu_1, # of connection points: 4
#     Node 15, Type 0, BuildingBlock: QUQFOY_clean_sbu_1, # of connection points: 4
#     Node 16, Type 0, BuildingBlock: QUQFOY_clean_sbu_1, # of connection points: 4
#     Node 17, Type 0, BuildingBlock: QUQFOY_clean_sbu_1, # of connection points: 4
#     Node 18, Type 1, BuildingBlock: MIFKUJ_clean_linker_1, # of connection points: 4
#     Node 19, Type 1, BuildingBlock: MIFKUJ_clean_linker_1, # of connection points: 4
#     Node 20, Type 1, BuildingBlock: MIFKUJ_clean_linker_1, # of connection points: 4
#     Node 21, Type 1, BuildingBlock: MIFKUJ_clean_linker_1, # of connection points: 4
#     Node 22, Type 1, BuildingBlock: MIFKUJ_clean_linker_1, # of connection points: 4
#     Node 23, Type 1, BuildingBlock: MIFKUJ_clean_linker_1, # of connection points: 4
#     Node 24, Type 1, BuildingBlock: MIFKUJ_clean_linker_1, # of connection points: 4
#     Node 25, Type 1, BuildingBlock: MIFKUJ_clean_linker_1, # of connection points: 4
#     Node 26, Type 1, BuildingBlock: MIFKUJ_clean_linker_1, # of connection points: 4
#     Node 27, Type 1, BuildingBlock: MIFKUJ_clean_linker_1, # of connection points: 4
#     Node 28, Type 1, BuildingBlock: MIFKUJ_clean_linker_1, # of connection points: 4
#     Node 29, Type 1, BuildingBlock: MIFKUJ_clean_linker_1, # of connection points: 4
#     Node 30, Type 1, BuildingBlock: MIFKUJ_clean_linker_1, # of connection points: 4
#     Node 31, Type 1, BuildingBlock: MIFKUJ_clean_linker_1, # of connection points: 4
#     Node 32, Type 1, BuildingBlock: MIFKUJ_clean_linker_1, # of connection points: 4
#     Node 33, Type 1, BuildingBlock: MIFKUJ_clean_linker_1, # of connection points: 4
#     Node 34, Type 1, BuildingBlock: MIFKUJ_clean_linker_1, # of connection points: 4
#     Node 35, Type 1, BuildingBlock: MIFKUJ_clean_linker_1, # of connection points: 4
#     Edge 36, Type (0, 1), BuildingBlock: OJICUG_clean_linker_0, # of connection points: 2
#     Edge 37, Type (0, 1), BuildingBlock: OJICUG_clean_linker_0, # of connection points: 2
#     Edge 38, Type (0, 1), BuildingBlock: OJICUG_clean_linker_0, # of connection points: 2
#     Edge 39, Type (0, 1), BuildingBlock: OJICUG_clean_linker_0, # of connection points: 2
#     Edge 40, Type (0, 1), BuildingBlock: OJICUG_clean_linker_0, # of connection points: 2
#     Edge 41, Type (0, 1), BuildingBlock: OJICUG_clean_linker_0, # of connection points: 2
#     Edge 42, Type (0, 1), BuildingBlock: OJICUG_clean_linker_0, # of connection points: 2
#     Edge 43, Type (0, 1), BuildingBlock: OJICUG_clean_linker_0, # of connection points: 2
#     Edge 44, Type (0, 1), BuildingBlock: OJICUG_clean_linker_0, # of connection points: 2
#     Edge 45, Type (0, 1), BuildingBlock: OJICUG_clean_linker_0, # of connection points: 2
#     Edge 46, Type (0, 1), BuildingBlock: OJICUG_clean_linker_0, # of connection points: 2
#     Edge 47, Type (0, 1), BuildingBlock: OJICUG_clean_linker_0, # of connection points: 2
#     Edge 48, Type (0, 1), BuildingBlock: OJICUG_clean_linker_0, # of connection points: 2
#     Edge 49, Type (0, 1), BuildingBlock: OJICUG_clean_linker_0, # of connection points: 2
#     Edge 50, Type (0, 1), BuildingBlock: OJICUG_clean_linker_0, # of connection points: 2
#     Edge 51, Type (0, 1), BuildingBlock: OJICUG_clean_linker_0, # of connection points: 2
#     Edge 52, Type (0, 1), BuildingBlock: OJICUG_clean_linker_0, # of connection points: 2
#     Edge 53, Type (0, 1), BuildingBlock: OJICUG_clean_linker_0, # of connection points: 2
#     Edge 54, Type (0, 1), BuildingBlock: OJICUG_clean_linker_0, # of connection points: 2
#     Edge 55, Type (0, 1), BuildingBlock: OJICUG_clean_linker_0, # of connection points: 2
#     Edge 56, Type (0, 1), BuildingBlock: OJICUG_clean_linker_0, # of connection points: 2
#     Edge 57, Type (0, 1), BuildingBlock: OJICUG_clean_linker_0, # of connection points: 2
#     Edge 58, Type (0, 1), BuildingBlock: OJICUG_clean_linker_0, # of connection points: 2
#     Edge 59, Type (0, 1), BuildingBlock: OJICUG_clean_linker_0, # of connection points: 2
#     Edge 60, Type (0, 1), BuildingBlock: OJICUG_clean_linker_0, # of connection points: 2
#     Edge 61, Type (0, 1), BuildingBlock: OJICUG_clean_linker_0, # of connection points: 2
#     Edge 62, Type (0, 1), BuildingBlock: OJICUG_clean_linker_0, # of connection points: 2
#     Edge 63, Type (0, 1), BuildingBlock: OJICUG_clean_linker_0, # of connection points: 2
#     Edge 64, Type (0, 1), BuildingBlock: OJICUG_clean_linker_0, # of connection points: 2
#     Edge 65, Type (0, 1), BuildingBlock: OJICUG_clean_linker_0, # of connection points: 2
#     Edge 66, Type (0, 1), BuildingBlock: OJICUG_clean_linker_0, # of connection points: 2
#     Edge 67, Type (0, 1), BuildingBlock: OJICUG_clean_linker_0, # of connection points: 2
#     Edge 68, Type (0, 1), BuildingBlock: OJICUG_clean_linker_0, # of connection points: 2
#     Edge 69, Type (0, 1), BuildingBlock: OJICUG_clean_linker_0, # of connection points: 2
#     Edge 70, Type (0, 1), BuildingBlock: OJICUG_clean_linker_0, # of connection points: 2
#     Edge 71, Type (0, 1), BuildingBlock: OJICUG_clean_linker_0, # of connection points: 2
#     Edge 72, Type (0, 1), BuildingBlock: OJICUG_clean_linker_0, # of connection points: 2
#     Edge 73, Type (0, 1), BuildingBlock: OJICUG_clean_linker_0, # of connection points: 2
#     Edge 74, Type (0, 1), BuildingBlock: OJICUG_clean_linker_0, # of connection points: 2
#     Edge 75, Type (0, 1), BuildingBlock: OJICUG_clean_linker_0, # of connection points: 2
#     Edge 76, Type (0, 1), BuildingBlock: OJICUG_clean_linker_0, # of connection points: 2
#     Edge 77, Type (0, 1), BuildingBlock: OJICUG_clean_linker_0, # of connection points: 2
#     Edge 78, Type (0, 1), BuildingBlock: OJICUG_clean_linker_0, # of connection points: 2
#     Edge 79, Type (0, 1), BuildingBlock: OJICUG_clean_linker_0, # of connection points: 2
#     Edge 80, Type (0, 1), BuildingBlock: OJICUG_clean_linker_0, # of connection points: 2
#     Edge 81, Type (0, 1), BuildingBlock: OJICUG_clean_linker_0, # of connection points: 2
#     Edge 82, Type (0, 1), BuildingBlock: OJICUG_clean_linker_0, # of connection points: 2
#     Edge 83, Type (0, 1), BuildingBlock: OJICUG_clean_linker_0, # of connection points: 2
#     Edge 84, Type (0, 1), BuildingBlock: OJICUG_clean_linker_0, # of connection points: 2
#     Edge 85, Type (0, 1), BuildingBlock: OJICUG_clean_linker_0, # of connection points: 2
#     Edge 86, Type (0, 1), BuildingBlock: OJICUG_clean_linker_0, # of connection points: 2
#     Edge 87, Type (0, 1), BuildingBlock: OJICUG_clean_linker_0, # of connection points: 2
#     Edge 88, Type (0, 1), BuildingBlock: OJICUG_clean_linker_0, # of connection points: 2
#     Edge 89, Type (0, 1), BuildingBlock: OJICUG_clean_linker_0, # of connection points: 2
#     Edge 90, Type (0, 1), BuildingBlock: OJICUG_clean_linker_0, # of connection points: 2
#     Edge 91, Type (0, 1), BuildingBlock: OJICUG_clean_linker_0, # of connection points: 2
#     Edge 92, Type (0, 1), BuildingBlock: OJICUG_clean_linker_0, # of connection points: 2
#     Edge 93, Type (0, 1), BuildingBlock: OJICUG_clean_linker_0, # of connection points: 2
#     Edge 94, Type (0, 1), BuildingBlock: OJICUG_clean_linker_0, # of connection points: 2
#     Edge 95, Type (0, 1), BuildingBlock: OJICUG_clean_linker_0, # of connection points: 2
#     Edge 96, Type (0, 1), BuildingBlock: OJICUG_clean_linker_0, # of connection points: 2
#     Edge 97, Type (0, 1), BuildingBlock: OJICUG_clean_linker_0, # of connection points: 2
#     Edge 98, Type (0, 1), BuildingBlock: OJICUG_clean_linker_0, # of connection points: 2
#     Edge 99, Type (0, 1), BuildingBlock: OJICUG_clean_linker_0, # of connection points: 2
#     Edge 100, Type (0, 1), BuildingBlock: OJICUG_clean_linker_0, # of connection points: 2
#     Edge 101, Type (0, 1), BuildingBlock: OJICUG_clean_linker_0, # of connection points: 2
#     Edge 102, Type (0, 1), BuildingBlock: OJICUG_clean_linker_0, # of connection points: 2
#     Edge 103, Type (0, 1), BuildingBlock: OJICUG_clean_linker_0, # of connection points: 2
#     Edge 104, Type (0, 1), BuildingBlock: OJICUG_clean_linker_0, # of connection points: 2
#     Edge 105, Type (0, 1), BuildingBlock: OJICUG_clean_linker_0, # of connection points: 2
#     Edge 106, Type (0, 1), BuildingBlock: OJICUG_clean_linker_0, # of connection points: 2
#     Edge 107, Type (0, 1), BuildingBlock: OJICUG_clean_linker_0, # of connection points: 2
# Relax obj value: 0.011
# Max RMSD: 0.046
# Mean RMSD: 0.040
data_MOF--net-ptr--node1-QUQFOY_clean_sbu_1--node2-MIFKUJ_clean_linker_1--edge1-OJICUG_clean_linker_0
_symmetry_space_group_name_H-M    P1
_symmetry_Int_Tables_number       1
_symmetry_cell_setting            triclinic
loop_
_symmetry_equiv_pos_as_xyz
'x, y, z'
_cell_length_a     71.670156
_cell_length_b     71.633039
_cell_length_c     48.626468
_cell_angle_alpha  90.052737
_cell_angle_beta   89.938111
_cell_angle_gamma 119.95616
loop_
_atom_site_label
_atom_site_type_symbol
_atom_site_fract_x
_atom_site_fract_y
_atom_site_fract_z
_atom_type_partial_charge
O0 O 0.01903 0.39367 0.05885 0.0
Cd1 Cd 0.02663 0.38008 0.02638 0.0
Cd2 Cd 0.98375 0.35824 0.02157 0.0
O3 O 0.98426 0.3704 0.06048 0.0
O4 O 0.05706 0.38803 0.03379 0.0
O5 O 0.03015 0.35439 0.03451 0.0
C6 C 0.05037 0.36793 0.03826 0.0
C7 C 0.96196 0.32189 0.01058 0.0
C8 C 1.00089 0.38642 0.07067 0.0
C9 C 0.00879 0.38972 0.97668 0.0
O10 O 0.99065 0.37881 0.98855 0.0
O11 O 0.02558 0.39086 0.98718 0.0
O12 O 0.95385 0.3341 0.01535 0.0
O13 O 0.98252 0.33008 0.01334 0.0
O14 O 0.61512 0.62507 0.05899 0.0
Cd15 Cd 0.6274 0.64606 0.02623 0.0
Cd16 Cd 0.64903 0.62422 0.01956 0.0
O17 O 0.63733 0.61221 0.05844 0.0
O18 O 0.61863 0.66769 0.03524 0.0
O19 O 0.65267 0.67582 0.03298 0.0
C20 C 0.63871 0.68174 0.03826 0.0
C21 C 0.68495 0.63638 1.00778 0.0
C22 C 0.62207 0.61357 0.0698 0.0
C23 C 0.61637 0.6188 0.97619 0.0
O24 O 0.62786 0.61175 0.98685 0.0
O25 O 0.6152 0.63417 0.98757 0.0
O26 O 0.67131 0.61619 0.01113 0.0
O27 O 0.67841 0.64996 0.01236 0.0
O28 O 0.39117 0.01682 0.98476 0.0
Cd29 Cd 0.37835 0.02334 0.01901 0.0
Cd30 Cd 0.35778 0.98023 0.02234 0.0
O31 O 0.36968 0.98166 0.98309 0.0
O32 O 0.38645 0.05402 0.01332 0.0
O33 O 0.35272 0.02735 0.01286 0.0
C34 C 0.36635 0.04761 0.00954 0.0
C35 C 0.32151 0.95871 0.03353 0.0
C36 C 0.38464 0.99892 0.97257 0.0
C37 C 0.38961 0.00476 0.06692 0.0
O38 O 0.3787 0.98676 0.05475 0.0
O39 O 0.39023 0.02158 0.05728 0.0
O40 O 0.33344 0.95039 0.02812 0.0
O41 O 0.32995 0.97936 0.03134 0.0
O42 O 0.98997 0.61471 0.98566 0.0
Cd43 Cd 0.983 0.62758 0.01954 0.0
Cd44 Cd 0.02609 0.64842 0.02366 0.0
O45 O 0.0251 0.63642 0.98459 0.0
O46 O 0.95237 0.61943 0.01347 0.0
O47 O 0.97896 0.6532 0.01312 0.0
C48 C 0.95873 0.63954 0.00976 0.0
C49 C 0.04787 0.6847 0.03483 0.0
C50 C 0.00804 0.62131 0.97388 0.0
C51 C 1.0011 0.61645 0.06803 0.0
O52 O 0.01922 0.6275 0.05619 0.0
O53 O 0.98434 0.61569 0.05798 0.0
O54 O 0.056 0.67255 0.02976 0.0
O55 O 0.02728 0.67648 0.03233 0.0
O56 O 0.39574 0.38125 0.98875 0.0
Cd57 Cd 0.38345 0.36026 0.02163 0.0
Cd58 Cd 0.36186 0.38198 0.02842 0.0
O59 O 0.3737 0.39433 0.98973 0.0
O60 O 0.39113 0.33781 0.01251 0.0
O61 O 0.35747 0.33086 0.01507 0.0
C62 C 0.37088 0.32425 0.00969 0.0
C63 C 0.32594 0.36992 0.04014 0.0
C64 C 0.38888 0.39291 0.97819 0.0
C65 C 0.39473 0.38754 0.07168 0.0
O66 O 0.38297 0.39431 0.06115 0.0
O67 O 0.39607 0.37228 0.06023 0.0
O68 O 0.33975 0.39013 0.03745 0.0
O69 O 0.3323 0.35628 0.03491 0.0
O70 O 0.61306 0.98627 0.05373 0.0
Cd71 Cd 0.62732 0.9796 0.02121 0.0
Cd72 Cd 0.64977 0.02269 0.01753 0.0
O73 O 0.63614 0.02116 0.05578 0.0
O74 O 0.6223 0.94994 0.02723 0.0
O75 O 0.65456 0.97918 0.02986 0.0
C76 C 0.64261 0.95852 0.0323 0.0
C77 C 0.68576 0.0476 1.00768 0.0
C78 C 0.62007 0.00436 0.06567 0.0
C79 C 0.61891 0.99789 0.97136 0.0
O80 O 0.6304 0.01584 0.98335 0.0
O81 O 0.61653 0.98064 0.98205 0.0
O82 O 0.67161 0.05347 0.01116 0.0
O83 O 0.67979 0.02755 0.01161 0.0
O84 O 0.68788 0.72927 0.39216 0.0
Cd85 Cd 0.695 0.71595 0.35913 0.0
Cd86 Cd 0.65199 0.69414 0.35286 0.0
O87 O 0.65277 0.7072 0.39148 0.0
O88 O 0.72479 0.72133 0.36525 0.0
O89 O 0.69593 0.68875 0.36642 0.0
C90 C 0.71651 0.70091 0.36929 0.0
C91 C 0.62962 0.6576 0.34305 0.0
C92 C 0.66941 0.72249 0.40283 0.0
C93 C 0.67798 0.72616 0.30876 0.0
O94 O 0.65938 0.71399 0.31886 0.0
O95 O 0.69468 0.72832 0.32083 0.0
O96 O 0.62186 0.6702 0.34696 0.0
O97 O 0.65013 0.66551 0.34601 0.0
O98 O 0.28209 0.95964 0.39292 0.0
Cd99 Cd 0.29379 0.98002 0.35944 0.0
Cd100 Cd 0.31429 0.95705 0.3525 0.0
O101 O 0.30277 0.94499 0.39138 0.0
O102 O 0.28527 1.00183 0.36853 0.0
O103 O 0.31924 0.00984 0.36553 0.0
C104 C 0.3054 0.01586 0.37115 0.0
C105 C 0.34983 0.96871 0.33948 0.0
C106 C 0.28838 0.94746 0.40338 0.0
C107 C 0.28141 0.95206 0.30979 0.0
O108 O 0.2928 0.94485 0.32028 0.0
O109 O 0.28066 0.96769 0.3211 0.0
O110 O 0.336 0.94857 0.34277 0.0
O111 O 0.34379 0.98254 0.34509 0.0
O112 O 0.06114 0.35256 0.32203 0.0
Cd113 Cd 0.04778 0.35946 0.35537 0.0
Cd114 Cd 0.02641 0.31619 0.35992 0.0
O115 O 0.03946 0.31735 0.32143 0.0
O116 O 0.05389 0.38953 0.34946 0.0
O117 O 0.02105 0.36113 0.34764 0.0
C118 C 0.03361 0.38167 0.34492 0.0
C119 C 0.99028 0.29223 0.37026 0.0
C120 C 0.05464 0.33435 0.31064 0.0
C121 C 0.05794 0.34181 0.40491 0.0
O122 O 0.04646 0.3236 0.39348 0.0
O123 O 0.0596 0.35873 0.39406 0.0
O124 O 1.0039 0.28567 0.36663 0.0
O125 O 0.99693 0.31246 0.36647 0.0
O126 O 0.65976 0.94697 0.31839 0.0
Cd127 Cd 0.65065 0.95939 0.35069 0.0
Cd128 Cd 0.69379 0.98124 0.35776 0.0
O129 O 0.69476 0.96939 0.31921 0.0
O130 O 0.62039 0.95064 0.34113 0.0
O131 O 0.64629 0.98469 0.34319 0.0
C132 C 0.62646 0.97072 0.33776 0.0
C133 C 0.71718 0.01719 0.36969 0.0
C134 C 0.6783 0.95396 0.30784 0.0
C135 C 0.66647 0.94871 0.40122 0.0
O136 O 0.68501 0.96027 0.39064 0.0
O137 O 0.64993 0.94733 0.38961 0.0
O138 O 0.72383 0.00357 0.367 0.0
O139 O 0.6972 0.01065 0.36422 0.0
O140 O 0.06203 0.71451 0.32193 0.0
Cd141 Cd 0.04811 0.69312 0.35415 0.0
Cd142 Cd 0.0273 0.71544 0.36034 0.0
O143 O 0.03955 0.72711 0.32155 0.0
O144 O 0.05457 0.66951 0.34706 0.0
O145 O 0.02164 0.66481 0.34507 0.0
C146 C 0.03437 0.65703 0.3421 0.0
C147 C 0.99147 0.70368 0.37198 0.0
C148 C 0.05512 0.72594 0.31074 0.0
C149 C 0.05855 0.71989 0.40469 0.0
O150 O 0.04804 0.72776 0.39336 0.0
O151 O 0.05917 0.70414 0.39355 0.0
O152 O 0.0052 0.72381 0.36833 0.0
O153 O 0.99782 0.68994 0.36749 0.0
O154 O 0.28397 0.32365 0.39445 0.0
Cd155 Cd 0.29564 0.31586 0.36023 0.0
Cd156 Cd 0.31711 0.35908 0.35246 0.0
O157 O 0.30371 0.35899 0.39038 0.0
O158 O 0.28969 0.28589 0.36648 0.0
O159 O 0.32261 0.31424 0.36602 0.0
C160 C 0.31013 0.29377 0.36955 0.0
C161 C 0.35365 0.38133 0.34321 0.0
C162 C 0.28992 0.34245 0.40351 0.0
C163 C 0.28492 0.33237 0.30922 0.0
O164 O 0.29767 0.35119 0.31827 0.0
O165 O 0.28227 0.31586 0.32234 0.0
O166 O 0.34098 0.38911 0.34622 0.0
O167 O 0.34578 0.36087 0.34671 0.0
O168 O 0.34956 0.05747 0.72627 0.0
Cd169 Cd 0.35713 0.04517 0.69226 0.0
Cd170 Cd 0.31359 0.02479 0.68721 0.0
O171 O 0.31422 0.03687 0.72612 0.0
O172 O 0.38779 0.05364 0.69899 0.0
O173 O 0.36157 0.01972 0.69826 0.0
C174 C 0.3817 0.03354 0.70213 0.0
C175 C 0.2904 0.98879 0.67543 0.0
C176 C 0.33136 0.05138 0.73745 0.0
C177 C 0.34 0.057 0.64337 0.0
O178 O 0.32167 0.04587 0.65465 0.0
O179 O 0.35656 0.05768 0.65393 0.0
O180 O 0.28339 1.00203 0.67928 0.0
O181 O 0.31062 0.99574 0.67973 0.0
O182 O 0.94847 0.29445 0.72327 0.0
Cd183 Cd 0.9623 0.31529 0.69059 0.0
Cd184 Cd 0.98411 0.29413 0.6857 0.0
O185 O 0.9712 0.28218 0.72424 0.0
O186 O 0.9568 0.33961 0.69687 0.0
O187 O 0.98934 0.34326 0.69885 0.0
C188 C 0.97713 0.35165 0.70153 0.0
C189 C 0.02025 0.3065 0.67516 0.0
C190 C 0.95545 0.28319 0.73474 0.0
C191 C 0.95267 0.28821 0.64063 0.0
O192 O 0.96409 0.28142 0.65208 0.0
O193 O 0.95091 0.30337 0.65162 0.0
O194 O 0.00676 0.28631 0.6788 0.0
O195 O 0.01349 0.31997 0.67911 0.0
O196 O 0.72639 0.6836 0.65272 0.0
Cd197 Cd 0.71364 0.6913 0.68589 0.0
Cd198 Cd 0.6904 0.6483 0.68969 0.0
O199 O 0.70267 0.64895 0.65078 0.0
O200 O 0.72221 0.7219 0.67878 0.0
O201 O 0.68827 0.69558 0.6791 0.0
C202 C 0.70214 0.71568 0.67501 0.0
C203 C 0.65395 0.62667 0.70005 0.0
C204 C 0.71877 0.66553 0.64062 0.0
C205 C 0.72233 0.6722 0.73497 0.0
O206 O 0.7104 0.65426 0.7231 0.0
O207 O 0.72478 0.68957 0.72454 0.0
O208 O 0.66602 0.61843 0.69517 0.0
O209 O 0.66234 0.64729 0.69773 0.0
O210 O 0.32528 0.28029 0.65422 0.0
Cd211 Cd 0.31757 0.29347 0.68708 0.0
Cd212 Cd 0.36044 0.31529 0.69198 0.0
O213 O 0.36012 0.3033 0.65308 0.0
O214 O 0.28712 0.28534 0.67951 0.0
O215 O 0.31375 0.31912 0.67995 0.0
C216 C 0.29361 0.30549 0.6758 0.0
C217 C 0.38183 0.35169 0.70267 0.0
C218 C 0.34348 0.2875 0.64258 0.0
C219 C 0.3355 0.28373 0.73677 0.0
O220 O 0.35367 0.2948 0.72504 0.0
O221 O 0.31867 0.28243 0.72613 0.0
O222 O 0.39018 0.33967 0.69813 0.0
O223 O 0.36124 0.34326 0.69994 0.0
O224 O 0.72824 0.04642 0.65369 0.0
Cd225 Cd 0.71418 0.02615 0.68689 0.0
Cd226 Cd 0.69317 0.04807 0.69095 0.0
O227 O 0.70552 0.05867 0.65186 0.0
O228 O 0.71945 1.00159 0.68139 0.0
O229 O 0.68705 0.99819 0.67878 0.0
C230 C 0.69915 0.98964 0.6765 0.0
C231 C 0.65703 0.03584 0.70156 0.0
C232 C 0.72116 0.05736 0.64157 0.0
C233 C 0.72473 0.05451 0.73589 0.0
O234 O 0.71387 0.06173 0.72387 0.0
O235 O 0.7255 0.03853 0.72579 0.0
O236 O 0.67048 0.05595 0.69725 0.0
O237 O 0.66387 0.02234 0.69851 0.0
O238 O 0.94975 0.65383 0.7248 0.0
Cd239 Cd 0.96218 0.64683 0.69066 0.0
Cd240 Cd 0.98441 0.69002 0.68734 0.0
O241 O 0.97194 0.68888 0.72622 0.0
O242 O 0.95395 0.61617 0.69668 0.0
O243 O 0.98774 0.64278 0.69688 0.0
C244 C 0.97406 0.62257 0.70051 0.0
C245 C 0.02101 0.71137 0.67755 0.0
C246 C 0.95668 0.67185 0.73681 0.0
C247 C 0.95239 0.66609 0.6423 0.0
O248 O 0.96428 0.68407 0.6541 0.0
O249 O 0.95038 0.64881 0.65247 0.0
O250 O 0.00909 0.71981 0.68231 0.0
O251 O 0.01233 0.69069 0.67948 0.0
H252 H 0.15897 0.35517 0.20658 0.0
H253 H 0.13387 0.35684 0.23886 0.0
H254 H 0.0807 0.30384 0.19677 0.0
H255 H 0.10621 0.30199 0.16455 0.0
H256 H 0.16643 0.32253 0.19982 0.0
H257 H 0.14364 0.36303 0.14464 0.0
H258 H 0.11907 0.37128 0.11969 0.0
H259 H 0.09867 0.31457 0.06944 0.0
H260 H 0.12313 0.30619 0.09492 0.0
H261 H 0.2046 0.30455 0.12966 0.0
H262 H 0.23808 0.31394 0.10565 0.0
H263 H 0.24011 0.37126 0.07372 0.0
H264 H 0.20774 0.36268 0.09956 0.0
H265 H 0.1682 0.33261 0.09883 0.0
H266 H 0.1876 0.2915 0.17936 0.0
H267 H 0.21436 0.29203 0.21094 0.0
H268 H 0.24504 0.36156 0.21542 0.0
H269 H 0.21913 0.36074 0.18236 0.0
C270 C 0.13449 0.32845 0.18318 0.0
C271 C 0.1419 0.34395 0.20418 0.0
C272 C 0.12748 0.34501 0.22249 0.0
C273 C 0.10525 0.33053 0.22034 0.0
C274 C 0.09775 0.31514 0.19905 0.0
C275 C 0.11226 0.31415 0.18054 0.0
C276 C 0.1504 0.32695 0.16511 0.0
C277 C 0.16662 0.32443 0.17766 0.0
C278 C 0.15073 0.3295 0.13623 0.0
C279 C 0.13503 0.33385 0.12187 0.0
C280 C 0.13367 0.3522 0.12851 0.0
C281 C 0.11979 0.35702 0.11401 0.0
C282 C 0.107 0.34363 0.09247 0.0
C283 C 0.10819 0.32511 0.08605 0.0
C284 C 0.12221 0.32035 0.1005 0.0
C285 C 0.20387 0.33318 0.11713 0.0
C286 C 0.21247 0.31934 0.1179 0.0
C287 C 0.23146 0.32455 0.10367 0.0
C288 C 0.24208 0.34354 0.08791 0.0
C289 C 0.2328 0.3568 0.08617 0.0
C290 C 0.21405 0.35176 0.10072 0.0
C291 C 0.18463 0.32884 0.13371 0.0
C292 C 0.16764 0.33003 0.12087 0.0
C293 C 0.18382 0.32565 0.16249 0.0
C294 C 0.20167 0.3261 0.17823 0.0
C295 C 0.20052 0.30684 0.18662 0.0
C296 C 0.21569 0.30721 0.20502 0.0
C297 C 0.23191 0.32683 0.21615 0.0
C298 C 0.23319 0.34613 0.20706 0.0
C299 C 0.2183 0.34574 0.18819 0.0
H300 H 0.71923 0.88932 0.19261 0.0
H301 H 0.7181 0.91409 0.22618 0.0
H302 H 0.65546 0.89907 0.19574 0.0
H303 H 0.65604 0.87329 0.16374 0.0
H304 H 0.69339 0.84777 0.19431 0.0
H305 H 0.70927 0.90043 0.11814 0.0
H306 H 0.70238 0.92522 0.09122 0.0
H307 H 0.63559 0.87542 0.08292 0.0
H308 H 0.64309 0.85064 0.10813 0.0
H309 H 0.64366 0.79826 0.10075 0.0
H310 H 0.63483 0.76549 0.07566 0.0
H311 H 0.69362 0.76928 0.10481 0.0
H312 H 0.70318 0.80309 0.12801 0.0
H313 H 0.67278 0.83713 0.09587 0.0
H314 H 0.65013 0.79231 0.18082 0.0
H315 H 0.64888 0.76682 0.21489 0.0
H316 H 0.71832 0.79658 0.2106 0.0
H317 H 0.71929 0.82304 0.1781 0.0
C318 C 0.68784 0.87952 0.17533 0.0
C319 C 0.70539 0.89161 0.1929 0.0
C320 C 0.70478 0.90592 0.21201 0.0
C321 C 0.68659 0.90849 0.21393 0.0
C322 C 0.66957 0.89725 0.19524 0.0
C323 C 0.67007 0.88275 0.17644 0.0
C324 C 0.6868 0.86154 0.15876 0.0
C325 C 0.68953 0.84582 0.17254 0.0
C326 C 0.68071 0.85831 0.13071 0.0
C327 C 0.67671 0.8737 0.11501 0.0
C328 C 0.69321 0.89493 0.1103 0.0
C329 C 0.68916 0.90911 0.09502 0.0
C330 C 0.66841 0.90243 0.08454 0.0
C331 C 0.65193 0.88113 0.08977 0.0
C332 C 0.65611 0.86691 0.10447 0.0
C333 C 0.67394 0.80306 0.11676 0.0
C334 C 0.65477 0.79217 0.10157 0.0
C335 C 0.64961 0.77321 0.08743 0.0
C336 C 0.66336 0.76446 0.08837 0.0
C337 C 0.68269 0.77554 0.10336 0.0
C338 C 0.688 0.79472 0.11716 0.0
C339 C 0.67928 0.82337 0.1315 0.0
C340 C 0.67734 0.83945 0.11741 0.0
C341 C 0.6854 0.82665 0.1595 0.0
C342 C 0.68477 0.80942 0.1769 0.0
C343 C 0.66502 0.79311 0.18707 0.0
C344 C 0.66438 0.77842 0.20648 0.0
C345 C 0.68352 0.77949 0.21584 0.0
C346 C 0.70325 0.79543 0.20457 0.0
C347 C 0.70388 0.81046 0.18568 0.0
H348 H 0.11838 0.83034 0.19413 0.0
H349 H 0.09415 0.80455 0.2281 0.0
H350 H 0.11103 0.75782 0.19909 0.0
H351 H 0.1362 0.78413 0.16649 0.0
H352 H 0.16009 0.84709 0.19548 0.0
H353 H 0.10761 0.80972 0.12008 0.0
H354 H 0.0826 0.77798 0.0935 0.0
H355 H 0.1319 0.76019 0.08555 0.0
H356 H 0.15697 0.79263 0.11037 0.0
H357 H 0.21379 0.84991 0.10945 0.0
H358 H 0.24604 0.8749 0.08428 0.0
H359 H 0.22852 0.92437 0.09286 0.0
H360 H 0.19693 0.89941 0.11974 0.0
H361 H 0.17034 0.83628 0.09715 0.0
H362 H 0.223 0.87187 0.16536 0.0
H363 H 0.2493 0.89736 0.19761 0.0
H364 H 0.202 0.91302 0.22781 0.0
H365 H 0.17619 0.88854 0.19403 0.0
C366 C 0.12903 0.8092 0.17746 0.0
C367 C 0.11662 0.81443 0.19482 0.0
C368 C 0.10263 0.79956 0.21416 0.0
C369 C 0.10069 0.77909 0.21656 0.0
C370 C 0.11234 0.77354 0.19819 0.0
C371 C 0.12649 0.78848 0.17908 0.0
C372 C 0.14656 0.82619 0.16046 0.0
C373 C 0.16195 0.84511 0.17371 0.0
C374 C 0.1496 0.82306 0.13244 0.0
C375 C 0.13412 0.8035 0.11711 0.0
C376 C 0.11295 0.79895 0.11242 0.0
C377 C 0.09863 0.78067 0.09734 0.0
C378 C 0.1051 0.76635 0.08706 0.0
C379 C 0.12634 0.77098 0.09227 0.0
C380 C 0.14073 0.78947 0.10677 0.0
C381 C 0.20303 0.87283 0.1165 0.0
C382 C 0.21694 0.86616 0.10588 0.0
C383 C 0.23532 0.88051 0.0912 0.0
C384 C 0.23998 0.90178 0.08608 0.0
C385 C 0.22578 0.90831 0.09661 0.0
C386 C 0.2076 0.89402 0.11187 0.0
C387 C 0.18363 0.85737 0.13212 0.0
C388 C 0.16804 0.83871 0.11865 0.0
C389 C 0.18065 0.8606 0.16014 0.0
C390 C 0.1976 0.87842 0.17687 0.0
C391 C 0.2185 0.8814 0.17808 0.0
C392 C 0.23346 0.89574 0.19702 0.0
C393 C 0.22774 0.90708 0.2157 0.0
C394 C 0.20711 0.90477 0.21365 0.0
C395 C 0.19223 0.89062 0.19443 0.0
H396 H 0.29491 0.17919 0.85115 0.0
H397 H 0.29675 0.20573 0.81833 0.0
H398 H 0.35961 0.25209 0.84957 0.0
H399 H 0.358 0.225 0.88159 0.0
H400 H 0.32317 0.16472 0.84801 0.0
H401 H 0.30621 0.2046 0.91584 0.0
H402 H 0.31538 0.23785 0.9405 0.0
H403 H 0.37041 0.23759 0.97643 0.0
H404 H 0.36213 0.20549 0.95026 0.0
H405 H 0.36289 0.14158 0.90393 0.0
H406 H 0.37063 0.11682 0.92933 0.0
H407 H 0.31388 0.09727 0.97912 0.0
H408 H 0.30603 0.12197 0.95323 0.0
H409 H 0.3329 0.16692 0.94904 0.0
H410 H 0.35554 0.15635 0.84192 0.0
H411 H 0.35629 0.13063 0.80983 0.0
H412 H 0.30198 0.07861 0.85161 0.0
H413 H 0.30113 0.10474 0.8837 0.0
C414 C 0.32626 0.2001 0.86894 0.0
C415 C 0.30894 0.1952 0.85125 0.0
C416 C 0.30997 0.21049 0.83257 0.0
C417 C 0.32839 0.23108 0.83112 0.0
C418 C 0.34531 0.23629 0.84981 0.0
C419 C 0.34431 0.22091 0.86842 0.0
C420 C 0.32646 0.1826 0.88506 0.0
C421 C 0.32505 0.16513 0.87019 0.0
C422 C 0.32962 0.18351 0.91392 0.0
C423 C 0.33368 0.20265 0.93066 0.0
C424 C 0.32037 0.21183 0.92881 0.0
C425 C 0.32548 0.23073 0.94329 0.0
C426 C 0.34383 0.24067 0.96029 0.0
C427 C 0.35648 0.2308 0.96305 0.0
C428 C 0.35157 0.21218 0.94831 0.0
C429 C 0.33375 0.13343 0.92646 0.0
C430 C 0.35195 0.13176 0.92006 0.0
C431 C 0.35648 0.11778 0.93481 0.0
C432 C 0.34293 0.10518 0.95636 0.0
C433 C 0.32454 0.10666 0.96253 0.0
C434 C 0.32008 0.1208 0.94784 0.0
C435 C 0.32975 0.14928 0.91185 0.0
C436 C 0.33053 0.1664 0.92696 0.0
C437 C 0.32726 0.14882 0.883 0.0
C438 C 0.32828 0.13249 0.86519 0.0
C439 C 0.34386 0.13939 0.84433 0.0
C440 C 0.34437 0.12462 0.82611 0.0
C441 C 0.32924 0.10253 0.82821 0.0
C442 C 0.31378 0.09553 0.84938 0.0
C443 C 0.31336 0.1104 0.86782 0.0
H444 H 0.83091 0.12006 0.84877 0.0
H445 H 0.80441 0.09542 0.8158 0.0
H446 H 0.75837 0.11273 0.84625 0.0
H447 H 0.78537 0.13818 0.8782 0.0
H448 H 0.84769 0.162 0.84763 0.0
H449 H 0.805 0.10649 0.91348 0.0
H450 H 0.77212 0.08172 0.93816 0.0
H451 H 0.76953 0.13604 0.9727 0.0
H452 H 0.80119 0.16048 0.94632 0.0
H453 H 0.85268 0.21509 0.93436 0.0
H454 H 0.87795 0.24715 0.95962 0.0
H455 H 0.92686 0.22894 0.9504 0.0
H456 H 0.90161 0.19757 0.92336 0.0
H457 H 0.83965 0.17102 0.94715 0.0
H458 H 0.87344 0.22445 0.87824 0.0
H459 H 0.89907 0.25092 0.84612 0.0
H460 H 0.91439 0.20351 0.81537 0.0
H461 H 0.88963 0.17748 0.84876 0.0
C462 C 0.81017 0.13094 0.86614 0.0
C463 C 0.81502 0.11837 0.84856 0.0
C464 C 0.79975 0.10412 0.82982 0.0
C465 C 0.7792 0.10208 0.82819 0.0
C466 C 0.7741 0.11408 0.8466 0.0
C467 C 0.78946 0.12846 0.86521 0.0
C468 C 0.82743 0.14819 0.88317 0.0
C469 C 0.84616 0.16362 0.86958 0.0
C470 C 0.82497 0.15081 0.91164 0.0
C471 C 0.80547 0.13543 0.92753 0.0
C472 C 0.79716 0.11305 0.92604 0.0
C473 C 0.77849 0.09887 0.94058 0.0
C474 C 0.76794 0.10678 0.95738 0.0
C475 C 0.7768 0.12924 0.95953 0.0
C476 C 0.79517 0.14332 0.94465 0.0
C477 C 0.87529 0.20402 0.92697 0.0
C478 C 0.86888 0.21807 0.93778 0.0
C479 C 0.88338 0.23633 0.95254 0.0
C480 C 0.90457 0.24072 0.95755 0.0
C481 C 0.91087 0.2264 0.94676 0.0
C482 C 0.89642 0.20834 0.93141 0.0
C483 C 0.85959 0.18469 0.91145 0.0
C484 C 0.84128 0.16895 0.92534 0.0
C485 C 0.86209 0.18204 0.88314 0.0
C486 C 0.87978 0.19899 0.8663 0.0
C487 C 0.88288 0.21995 0.86534 0.0
C488 C 0.89731 0.23501 0.84653 0.0
C489 C 0.90869 0.22934 0.82786 0.0
C490 C 0.90614 0.20858 0.82957 0.0
C491 C 0.89185 0.19359 0.84858 0.0
H492 H 0.80148 0.64579 0.83948 0.0
H493 H 0.7749 0.64513 0.80785 0.0
H494 H 0.77875 0.70053 0.84879 0.0
H495 H 0.80598 0.70139 0.88025 0.0
H496 H 0.8419 0.6769 0.84316 0.0
H497 H 0.7825 0.64012 0.90231 0.0
H498 H 0.7502 0.63222 0.92812 0.0
H499 H 0.78696 0.69017 0.976 0.0
H500 H 0.81937 0.69828 0.94949 0.0
H501 H 0.88466 0.69948 0.94973 0.0
H502 H 0.90917 0.69215 0.97702 0.0
H503 H 0.88869 0.63348 0.93096 0.0
H504 H 0.86418 0.64068 0.90426 0.0
H505 H 0.83929 0.6732 0.94499 0.0
H506 H 0.90177 0.70241 0.88094 0.0
H507 H 0.92862 0.70169 0.85008 0.0
H508 H 0.87802 0.6451 0.81009 0.0
H509 H 0.85165 0.64568 0.84105 0.0
C510 C 0.80578 0.67367 0.86218 0.0
C511 C 0.7965 0.65771 0.84183 0.0
C512 C 0.78113 0.65725 0.82388 0.0
C513 C 0.77464 0.67276 0.82578 0.0
C514 C 0.78354 0.68846 0.84665 0.0
C515 C 0.79895 0.68887 0.86477 0.0
C516 C 0.82362 0.67501 0.87919 0.0
C517 C 0.84133 0.6761 0.86546 0.0
C518 C 0.82292 0.67417 0.90827 0.0
C519 C 0.8033 0.66995 0.92369 0.0
C520 C 0.7836 0.6513 0.91811 0.0
C521 C 0.76518 0.64667 0.93313 0.0
C522 C 0.76604 0.6605 0.95424 0.0
C523 C 0.78576 0.67928 0.95974 0.0
C524 C 0.80428 0.68388 0.94471 0.0
C525 C 0.8728 0.67076 0.92475 0.0
C526 C 0.88555 0.68509 0.94552 0.0
C527 C 0.89958 0.68093 0.961 0.0
C528 C 0.90078 0.66218 0.95623 0.0
C529 C 0.88796 0.64792 0.93539 0.0
C530 C 0.87411 0.65214 0.91989 0.0
C531 C 0.85735 0.67455 0.9088 0.0
C532 C 0.84015 0.67462 0.92275 0.0
C533 C 0.8579 0.67533 0.87973 0.0
C534 C 0.87471 0.67411 0.86325 0.0
C535 C 0.8966 0.68967 0.8658 0.0
C536 C 0.91187 0.68933 0.84804 0.0
C537 C 0.90547 0.67333 0.82762 0.0
C538 C 0.88361 0.65746 0.82579 0.0
C539 C 0.86845 0.65787 0.84336 0.0
H540 H 0.80165 0.68955 0.49789 0.0
H541 H 0.77487 0.68977 0.52862 0.0
H542 H 0.76049 0.62768 0.56058 0.0
H543 H 0.78643 0.62705 0.52862 0.0
H544 H 0.82851 0.65571 0.53248 0.0
H545 H 0.82523 0.70074 0.44269 0.0
H546 H 0.80039 0.708 0.4173 0.0
H547 H 0.75074 0.64118 0.42631 0.0
H548 H 0.77559 0.63459 0.45352 0.0
H549 H 0.85681 0.64267 0.42707 0.0
H550 H 0.88978 0.65122 0.4018 0.0
H551 H 0.92601 0.70653 0.45426 0.0
H552 H 0.89303 0.69813 0.47902 0.0
H553 H 0.83847 0.66921 0.43213 0.0
H554 H 0.86929 0.63701 0.49621 0.0
H555 H 0.8964 0.63825 0.52825 0.0
H556 H 0.89491 0.68958 0.57313 0.0
H557 H 0.86836 0.68853 0.54101 0.0
C558 C 0.79591 0.65815 0.51063 0.0
C559 C 0.79216 0.6756 0.51072 0.0
C560 C 0.77705 0.67586 0.52871 0.0
C561 C 0.76565 0.65885 0.54739 0.0
C562 C 0.76875 0.64096 0.54635 0.0
C563 C 0.78371 0.64063 0.52817 0.0
C564 C 0.81445 0.65943 0.49525 0.0
C565 C 0.8305 0.65829 0.51043 0.0
C566 C 0.81745 0.66358 0.46668 0.0
C567 C 0.80224 0.66715 0.44997 0.0
C568 C 0.809 0.68765 0.43906 0.0
C569 C 0.79472 0.69169 0.42426 0.0
C570 C 0.7734 0.67516 0.41932 0.0
C571 C 0.76683 0.65445 0.42993 0.0
C572 C 0.78107 0.65056 0.44533 0.0
C573 C 0.8725 0.66963 0.4551 0.0
C574 C 0.8719 0.65657 0.43317 0.0
C575 C 0.89074 0.66141 0.41884 0.0
C576 C 0.91049 0.67959 0.42596 0.0
C577 C 0.91102 0.69255 0.44805 0.0
C578 C 0.89222 0.68765 0.46243 0.0
C579 C 0.85235 0.66509 0.46935 0.0
C580 C 0.83613 0.66588 0.45401 0.0
C581 C 0.84963 0.6616 0.49807 0.0
C582 C 0.86682 0.6627 0.5162 0.0
C583 C 0.87504 0.64868 0.51278 0.0
C584 C 0.8904 0.6493 0.5312 0.0
C585 C 0.89788 0.66407 0.55321 0.0
C586 C 0.88979 0.67825 0.55621 0.0
C587 C 0.87445 0.67754 0.53797 0.0
H588 H 0.38351 0.22185 0.52825 0.0
H589 H 0.38231 0.24677 0.56152 0.0
H590 H 0.3195 0.23122 0.53115 0.0
H591 H 0.32025 0.2054 0.49927 0.0
H592 H 0.35719 0.17993 0.52988 0.0
H593 H 0.37507 0.23303 0.45308 0.0
H594 H 0.36875 0.25822 0.42623 0.0
H595 H 0.30141 0.20962 0.41906 0.0
H596 H 0.30838 0.18437 0.44404 0.0
H597 H 0.31063 0.13241 0.43302 0.0
H598 H 0.30247 0.10015 0.40733 0.0
H599 H 0.35982 0.10266 0.43983 0.0
H600 H 0.36878 0.13606 0.46396 0.0
H601 H 0.33908 0.17087 0.43069 0.0
H602 H 0.31806 0.11734 0.50031 0.0
H603 H 0.31641 0.09055 0.53268 0.0
H604 H 0.37993 0.13653 0.56241 0.0
H605 H 0.38193 0.16278 0.52889 0.0
C606 C 0.3521 0.21186 0.51095 0.0
C607 C 0.36962 0.22406 0.52849 0.0
C608 C 0.36896 0.23844 0.54742 0.0
C609 C 0.35074 0.24096 0.54922 0.0
C610 C 0.33366 0.22948 0.53068 0.0
C611 C 0.33424 0.21495 0.51199 0.0
C612 C 0.3513 0.19403 0.49429 0.0
C613 C 0.35385 0.17819 0.50797 0.0
C614 C 0.34589 0.19126 0.46606 0.0
C615 C 0.3422 0.20687 0.45045 0.0
C616 C 0.35902 0.22788 0.44548 0.0
C617 C 0.35529 0.2423 0.43025 0.0
C618 C 0.33454 0.23609 0.42014 0.0
C619 C 0.31774 0.21498 0.42561 0.0
C620 C 0.32161 0.2005 0.44021 0.0
C621 C 0.34023 0.13667 0.45077 0.0
C622 C 0.32165 0.12624 0.43439 0.0
C623 C 0.31684 0.10754 0.41992 0.0
C624 C 0.3303 0.0985 0.4217 0.0
C625 C 0.34913 0.10917 0.43774 0.0
C626 C 0.35412 0.12814 0.45193 0.0
C627 C 0.34486 0.15648 0.4663 0.0
C628 C 0.34305 0.17274 0.45242 0.0
C629 C 0.35028 0.15925 0.49465 0.0
C630 C 0.35022 0.14206 0.5119 0.0
C631 C 0.3319 0.12144 0.5132 0.0
C632 C 0.33086 0.10622 0.53207 0.0
C633 C 0.34794 0.11139 0.55045 0.0
C634 C 0.36655 0.13182 0.54844 0.0
C635 C 0.36767 0.14695 0.52938 0.0
H636 H 0.7863 0.16209 0.52787 0.0
H637 H 0.76133 0.13551 0.56047 0.0
H638 H 0.77774 0.08899 0.52923 0.0
H639 H 0.80343 0.1161 0.49738 0.0
H640 H 0.82906 0.17625 0.53114 0.0
H641 H 0.7723 0.13696 0.46319 0.0
H642 H 0.74815 0.10376 0.43851 0.0
H643 H 0.80329 0.10365 0.40254 0.0
H644 H 0.82716 0.13566 0.42873 0.0
H645 H 0.89183 0.19859 0.47537 0.0
H646 H 0.92456 0.22312 0.45027 0.0
H647 H 0.88826 0.24367 0.40038 0.0
H648 H 0.85548 0.21924 0.42603 0.0
H649 H 0.83673 0.17424 0.43008 0.0
H650 H 0.86927 0.18382 0.53742 0.0
H651 H 0.89621 0.20919 0.56924 0.0
H652 H 0.89565 0.26201 0.52714 0.0
H653 H 0.86813 0.23624 0.49537 0.0
C654 C 0.79666 0.14109 0.51006 0.0
C655 C 0.78424 0.14604 0.52772 0.0
C656 C 0.76984 0.13074 0.54627 0.0
C657 C 0.76755 0.11007 0.54764 0.0
C658 C 0.77931 0.10483 0.52902 0.0
C659 C 0.79382 0.12022 0.51053 0.0
C660 C 0.81445 0.15856 0.49402 0.0
C661 C 0.83056 0.17588 0.50895 0.0
C662 C 0.81673 0.15771 0.46514 0.0
C663 C 0.80164 0.13869 0.44834 0.0
C664 C 0.77918 0.12966 0.45019 0.0
C665 C 0.76536 0.1108 0.43572 0.0
C666 C 0.77371 0.10077 0.41872 0.0
C667 C 0.7962 0.11051 0.41593 0.0
C668 C 0.80994 0.12908 0.43068 0.0
C669 C 0.87126 0.20728 0.4528 0.0
C670 C 0.89095 0.20857 0.45928 0.0
C671 C 0.9096 0.22243 0.44469 0.0
C672 C 0.90898 0.23525 0.42321 0.0
C673 C 0.88928 0.23411 0.41693 0.0
C674 C 0.87056 0.22012 0.43148 0.0
C675 C 0.85129 0.19165 0.46734 0.0
C676 C 0.83485 0.17472 0.45216 0.0
C677 C 0.84921 0.19206 0.4962 0.0
C678 C 0.86666 0.20811 0.51404 0.0
C679 C 0.87499 0.20087 0.53492 0.0
C680 C 0.89056 0.21544 0.55296 0.0
C681 C 0.89818 0.23766 0.55066 0.0
C682 C 0.89002 0.24498 0.52952 0.0
C683 C 0.87442 0.23031 0.51127 0.0
H684 H 0.96158 0.51135 0.18326 0.0
H685 H 0.96272 0.5372 0.14965 0.0
H686 H 0.02619 0.58419 0.17837 0.0
H687 H 0.02546 0.55788 0.21065 0.0
H688 H 0.98688 0.49478 0.18194 0.0
H689 H 0.97097 0.53185 0.25719 0.0
H690 H 0.97726 0.56358 0.2835 0.0
H691 H 0.04456 0.58229 0.29126 0.0
H692 H 0.03763 0.54983 0.26674 0.0
H693 H 0.03714 0.49146 0.26829 0.0
H694 H 0.04373 0.46614 0.29379 0.0
H695 H 0.97638 0.41776 0.28582 0.0
H696 H 0.97044 0.44299 0.25855 0.0
H697 H 0.00736 0.50585 0.28043 0.0
H698 H 0.02481 0.47 0.21258 0.0
H699 H 0.02539 0.44386 0.18111 0.0
H700 H 0.96235 0.42789 0.15118 0.0
H701 H 0.96132 0.45314 0.18405 0.0
C702 C 0.99332 0.53265 0.19978 0.0
C703 C 0.97562 0.52733 0.18256 0.0
C704 C 0.97625 0.54222 0.16344 0.0
C705 C 0.99462 0.5628 0.16111 0.0
C706 C 0.01191 0.5684 0.17926 0.0
C707 C 0.01136 0.55345 0.19817 0.0
C708 C 0.99401 0.51577 0.21685 0.0
C709 C 0.99064 0.49684 0.20372 0.0
C710 C 1.00002 0.51897 0.24491 0.0
C711 C 1.00383 0.53851 0.26011 0.0
C712 C 0.98703 0.54281 0.26476 0.0
C713 C 0.99073 0.56109 0.27968 0.0
C714 C 0.01145 0.57567 0.28982 0.0
C715 C 0.02825 0.57129 0.28464 0.0
C716 C 0.0244 0.5528 0.27032 0.0
C717 C 1.00335 0.46907 0.26147 0.0
C718 C 0.02383 0.47537 0.27205 0.0
C719 C 0.02748 0.46084 0.28694 0.0
C720 C 0.01057 0.43977 0.29231 0.0
C721 C 0.98993 0.43364 0.28186 0.0
C722 C 0.98643 0.44809 0.26639 0.0
C723 C 0.99977 0.48466 0.24558 0.0
C724 C 1.00278 0.50337 0.25889 0.0
C725 C 0.99377 0.48137 0.21751 0.0
C726 C 0.99289 0.4634 0.20108 0.0
C727 C 0.01075 0.46031 0.20004 0.0
C728 C 0.01122 0.44558 0.18158 0.0
C729 C 0.99403 0.43389 0.16327 0.0
C730 C 0.9758 0.4364 0.1651 0.0
C731 C 0.97524 0.45098 0.18379 0.0
H732 H 0.50035 0.45239 0.18671 0.0
H733 H 0.47447 0.42774 0.15314 0.0
H734 H 0.42733 0.44379 0.18288 0.0
H735 H 0.45372 0.46948 0.21485 0.0
H736 H 0.51689 0.4938 0.18542 0.0
H737 H 0.48008 0.44205 0.26184 0.0
H738 H 0.44828 0.41698 0.28824 0.0
H739 H 0.42958 0.46575 0.29427 0.0
H740 H 0.46213 0.49092 0.26976 0.0
H741 H 0.51986 0.54864 0.2697 0.0
H742 H 0.54499 0.58137 0.29394 0.0
H743 H 0.59397 0.56299 0.28779 0.0
H744 H 0.56892 0.53098 0.26169 0.0
H745 H 0.50603 0.50483 0.28346 0.0
H746 H 0.54162 0.55697 0.21449 0.0
H747 H 0.56728 0.583 0.18214 0.0
H748 H 0.58297 0.53536 0.15332 0.0
H749 H 0.55835 0.50985 0.18725 0.0
C750 C 0.47903 0.46273 0.20365 0.0
C751 C 0.48433 0.45039 0.18624 0.0
C752 C 0.46941 0.43613 0.16713 0.0
C753 C 0.44877 0.43382 0.16503 0.0
C754 C 0.44316 0.44538 0.18349 0.0
C755 C 0.45817 0.45983 0.2023 0.0
C756 C 0.496 0.48048 0.22049 0.0
C757 C 0.51489 0.49582 0.20714 0.0
C758 C 0.49289 0.48375 0.24845 0.0
C759 C 0.47342 0.46831 0.26392 0.0
C760 C 0.46912 0.44727 0.2691 0.0
C761 C 0.4508 0.43291 0.28406 0.0
C762 C 0.43616 0.43919 0.29368 0.0
C763 C 0.4406 0.46033 0.28807 0.0
C764 C 0.45915 0.47478 0.27375 0.0
C765 C 0.54255 0.53745 0.26383 0.0
C766 C 0.53604 0.55172 0.27361 0.0
C767 C 0.55047 0.57039 0.28777 0.0
C768 C 0.57168 0.57498 0.29326 0.0
C769 C 0.578 0.56036 0.28369 0.0
C770 C 0.56365 0.54191 0.2689 0.0
C771 C 0.52711 0.51788 0.24846 0.0
C772 C 0.50848 0.50236 0.26204 0.0
C773 C 0.53035 0.51465 0.22053 0.0
C774 C 0.5482 0.53145 0.20371 0.0
C775 C 0.5512 0.55235 0.20207 0.0
C776 C 0.56563 0.56714 0.18307 0.0
C777 C 0.57703 0.56125 0.16473 0.0
C778 C 0.57468 0.54061 0.16721 0.0
C779 C 0.56045 0.5259 0.18652 0.0
H780 H 0.55396 0.04435 0.17905 0.0
H781 H 0.57859 0.04271 0.14578 0.0
H782 H 0.56199 0.97951 0.17595 0.0
H783 H 0.53657 0.98086 0.20824 0.0
H784 H 0.51182 0.01835 0.17807 0.0
H785 H 0.56834 0.03233 0.24365 0.0
H786 H 0.59319 0.02395 0.26774 0.0
H787 H 0.539 0.96682 0.3018 0.0
H788 H 0.51449 0.97437 0.27617 0.0
H789 H 0.46594 0.97398 0.27628 0.0
H790 H 0.43386 0.96597 0.30226 0.0
H791 H 0.4359 0.02292 0.26898 0.0
H792 H 0.46914 0.03176 0.24452 0.0
H793 H 0.50441 1.0029 0.27794 0.0
H794 H 0.44986 0.98066 0.20854 0.0
H795 H 0.42299 0.97939 0.17658 0.0
H796 H 0.46923 0.04287 0.1469 0.0
H797 H 0.49561 0.04442 0.17985 0.0
C798 C 0.54348 0.01281 0.19632 0.0
C799 C 0.55582 0.03025 0.17873 0.0
C800 C 0.57005 0.02934 0.15981 0.0
C801 C 0.57227 0.01093 0.15803 0.0
C802 C 0.56048 0.99381 0.17644 0.0
C803 C 0.54614 0.99468 0.19523 0.0
C804 C 0.52623 0.01267 0.21353 0.0
C805 C 0.51043 0.01543 0.20008 0.0
C806 C 0.524 0.00796 0.24204 0.0
C807 C 0.53947 0.00383 0.25764 0.0
C808 C 0.56183 0.01785 0.25602 0.0
C809 C 0.57605 0.01319 0.27018 0.0
C810 C 0.56818 0.99458 0.28662 0.0
C811 C 0.54576 0.98102 0.28888 0.0
C812 C 0.53163 0.98549 0.27445 0.0
C813 C 0.46996 0.00339 0.2581 0.0
C814 C 0.45971 0.98496 0.2748 0.0
C815 C 0.44111 0.98022 0.28944 0.0
C816 C 0.43198 0.99359 0.2875 0.0
C817 C 0.44248 0.0123 0.27117 0.0
C818 C 0.46136 0.01722 0.2568 0.0
C819 C 0.48958 0.0078 0.24228 0.0
C820 C 0.50595 0.00611 0.25602 0.0
C821 C 0.49192 0.01258 0.21379 0.0
C822 C 0.47473 0.01273 0.19684 0.0
C823 C 0.45401 0.99455 0.19572 0.0
C824 C 0.43874 0.99374 0.17712 0.0
C825 C 0.44395 0.01096 0.15893 0.0
C826 C 0.4645 0.02941 0.16076 0.0
C827 C 0.47969 0.03027 0.17949 0.0
H828 H 0.4902 0.02608 0.86841 0.0
H829 H 0.46386 0.02639 0.89969 0.0
H830 H 0.4131 0.97071 0.8584 0.0
H831 H 0.43991 0.97025 0.82724 0.0
H832 H 0.49979 0.99483 0.86492 0.0
H833 H 0.47743 0.03202 0.80544 0.0
H834 H 0.45261 0.03938 0.77974 0.0
H835 H 0.43217 0.98142 0.73212 0.0
H836 H 0.45695 0.9739 0.75845 0.0
H837 H 0.52214 0.97425 0.75822 0.0
H838 H 0.55463 0.98231 0.73189 0.0
H839 H 0.59129 0.04032 0.77969 0.0
H840 H 0.55894 0.03239 0.80544 0.0
H841 H 0.50228 0.99996 0.76318 0.0
H842 H 0.53468 0.96989 0.82669 0.0
H843 H 0.56186 0.96998 0.85758 0.0
H844 H 0.56735 0.0258 0.89933 0.0
H845 H 0.54072 0.02582 0.86837 0.0
C846 C 0.46705 0.99812 0.84553 0.0
C847 C 0.47338 0.01403 0.8659 0.0
C848 C 0.45823 0.01429 0.88365 0.0
C849 C 0.43632 0.9986 0.88153 0.0
C850 C 0.42988 0.98292 0.86068 0.0
C851 C 0.44513 0.98273 0.84274 0.0
C852 C 0.48381 0.99706 0.82872 0.0
C853 C 0.50033 0.99593 0.84264 0.0
C854 C 0.48432 0.99824 0.79966 0.0
C855 C 0.46884 1.00226 0.78412 0.0
C856 C 0.46746 0.02075 0.78967 0.0
C857 C 0.45342 0.02507 0.77473 0.0
C858 C 0.44049 0.01104 0.75376 0.0
C859 C 0.44182 0.99245 0.74826 0.0
C860 C 0.45601 0.98819 0.76318 0.0
C861 C 0.53817 1.00259 0.784 0.0
C862 C 0.53722 0.98866 0.763 0.0
C863 C 0.55578 0.99323 0.74808 0.0
C864 C 0.5755 0.012 0.75363 0.0
C865 C 0.57631 0.02588 0.77466 0.0
C866 C 0.55787 0.02124 0.78961 0.0
C867 C 0.51859 0.99828 0.79956 0.0
C868 C 0.50143 0.99824 0.78538 0.0
C869 C 0.51791 0.99699 0.8286 0.0
C870 C 0.53567 0.99784 0.84526 0.0
C871 C 0.54204 0.98232 0.84224 0.0
C872 C 0.55743 0.98229 0.86002 0.0
C873 C 0.5668 0.99791 0.88091 0.0
C874 C 0.56074 0.01373 0.88326 0.0
C875 C 0.54536 0.01367 0.86569 0.0
H876 H 0.03903 0.56769 0.82862 0.0
H877 H 0.03752 0.59383 0.86005 0.0
H878 H 0.9847 0.54149 0.9035 0.0
H879 H 0.98606 0.51576 0.87203 0.0
H880 H 0.01908 0.50842 0.86567 0.0
H881 H 0.03448 0.54921 0.75969 0.0
H882 H 0.02642 0.5734 0.73304 0.0
H883 H 0.96993 0.55459 0.78309 0.0
H884 H 0.97789 0.53029 0.80928 0.0
H885 H 0.9755 0.45935 0.77613 0.0
H886 H 0.96875 0.42738 0.75066 0.0
H887 H 0.03558 0.44493 0.76075 0.0
H888 H 0.04165 0.47625 0.78801 0.0
H889 H 0.0076 0.50427 0.76484 0.0
H890 H 0.98553 0.44757 0.83203 0.0
H891 H 0.98477 0.42082 0.86375 0.0
H892 H 0.04678 0.46847 0.89584 0.0
H893 H 0.04789 0.49478 0.86308 0.0
C894 C 0.01265 0.53978 0.84799 0.0
C895 C 0.02698 0.56195 0.84473 0.0
C896 C 0.02619 0.57683 0.86279 0.0
C897 C 0.01094 0.56975 0.88423 0.0
C898 C 0.99641 0.54756 0.88699 0.0
C899 C 0.99729 0.53278 0.86913 0.0
C900 C 0.014 0.52351 0.83046 0.0
C901 C 0.01694 0.5077 0.84352 0.0
C902 C 0.0111 0.52257 0.80163 0.0
C903 C 0.00691 0.53812 0.78664 0.0
C904 C 0.02043 0.55043 0.76498 0.0
C905 C 0.01586 0.56428 0.74985 0.0
C906 C 0.99749 0.56583 0.75588 0.0
C907 C 0.98406 0.55357 0.77772 0.0
C908 C 0.98871 0.53985 0.79291 0.0
C909 C 0.00904 0.47011 0.78392 0.0
C910 C 0.98868 0.45629 0.77277 0.0
C911 C 0.98494 0.43807 0.75791 0.0
C912 C 1.00165 0.43348 0.75317 0.0
C913 C 0.02219 0.44763 0.76418 0.0
C914 C 0.02578 0.46567 0.77962 0.0
C915 C 0.0124 0.48903 0.80018 0.0
C916 C 0.0105 0.5054 0.78684 0.0
C917 C 0.01597 0.49033 0.82888 0.0
C918 C 0.01691 0.47316 0.84487 0.0
C919 C 0.99933 0.45205 0.84516 0.0
C920 C 0.99876 0.43684 0.86368 0.0
C921 C 0.01561 0.44251 0.88261 0.0
C922 C 0.03362 0.4634 0.88141 0.0
C923 C 0.03423 0.47854 0.86276 0.0
H924 H 0.45237 0.49774 0.86216 0.0
H925 H 0.42804 0.47194 0.89604 0.0
H926 H 0.44372 0.42465 0.86577 0.0
H927 H 0.46907 0.45096 0.83338 0.0
H928 H 0.49397 0.51395 0.86307 0.0
H929 H 0.44089 0.47681 0.78759 0.0
H930 H 0.41593 0.44507 0.76095 0.0
H931 H 0.4654 0.42754 0.75272 0.0
H932 H 0.4904 0.45996 0.77759 0.0
H933 H 0.54718 0.51734 0.77598 0.0
H934 H 0.5791 0.54258 0.75043 0.0
H935 H 0.5611 0.59162 0.76013 0.0
H936 H 0.52989 0.56644 0.78739 0.0
H937 H 0.50344 0.50359 0.76433 0.0
H938 H 0.55655 0.53827 0.83208 0.0
H939 H 0.58333 0.56361 0.86406 0.0
H940 H 0.53678 0.57991 0.8954 0.0
H941 H 0.51049 0.55555 0.86199 0.0
C942 C 0.46248 0.47633 0.84492 0.0
C943 C 0.45034 0.4817 0.86257 0.0
C944 C 0.43627 0.46683 0.88185 0.0
C945 C 0.43397 0.44618 0.88388 0.0
C946 C 0.44532 0.44049 0.86519 0.0
C947 C 0.45958 0.45546 0.84617 0.0
C948 C 0.48007 0.49327 0.82792 0.0
C949 C 0.49566 0.51206 0.84123 0.0
C950 C 0.48295 0.49024 0.7998 0.0
C951 C 0.46747 0.47071 0.78447 0.0
C952 C 0.44627 0.46611 0.77985 0.0
C953 C 0.43199 0.44783 0.76473 0.0
C954 C 0.43853 0.4336 0.75435 0.0
C955 C 0.45979 0.43828 0.75951 0.0
C956 C 0.47414 0.45675 0.77403 0.0
C957 C 0.53624 0.54005 0.78362 0.0
C958 C 0.55017 0.53356 0.77259 0.0
C959 C 0.56835 0.54804 0.75768 0.0
C960 C 0.57277 0.56926 0.75276 0.0
C961 C 0.55855 0.57561 0.76371 0.0
C962 C 0.54058 0.56119 0.7792 0.0
C963 C 0.51703 0.52447 0.79941 0.0
C964 C 0.5013 0.50592 0.78591 0.0
C965 C 0.51431 0.52753 0.82757 0.0
C966 C 0.5315 0.54515 0.84424 0.0
C967 C 0.55232 0.5479 0.84503 0.0
C968 C 0.56755 0.56214 0.86379 0.0
C969 C 0.5622 0.57366 0.88265 0.0
C970 C 0.54162 0.57153 0.88106 0.0
C971 C 0.52646 0.55746 0.86206 0.0
H972 H 0.62537 0.84369 0.51664 0.0
H973 H 0.62674 0.86956 0.48293 0.0
H974 H 0.68902 0.91726 0.51426 0.0
H975 H 0.68817 0.89091 0.54652 0.0
H976 H 0.65169 0.82834 0.5157 0.0
H977 H 0.63386 0.86455 0.59116 0.0
H978 H 0.64033 0.89625 0.61781 0.0
H979 H 0.70711 0.9135 0.62746 0.0
H980 H 0.69999 0.88116 0.60258 0.0
H981 H 0.69752 0.82743 0.61351 0.0
H982 H 0.70539 0.8033 0.63952 0.0
H983 H 0.64853 0.74853 0.6059 0.0
H984 H 0.63977 0.77299 0.58157 0.0
H985 H 0.66926 0.83755 0.61503 0.0
H986 H 0.69057 0.8047 0.54606 0.0
H987 H 0.69237 0.77947 0.51394 0.0
H988 H 0.62924 0.76236 0.48307 0.0
H989 H 0.62706 0.78665 0.5164 0.0
C990 C 0.65655 0.86532 0.5344 0.0
C991 C 0.63918 0.85983 0.5165 0.0
C992 C 0.63993 0.87473 0.49732 0.0
C993 C 0.65808 0.89552 0.49564 0.0
C994 C 0.67494 0.90131 0.51459 0.0
C995 C 0.67429 0.88632 0.53351 0.0
C996 C 0.65736 0.84839 0.55122 0.0
C997 C 0.65491 0.82998 0.53763 0.0
C998 C 0.66267 0.85111 0.57949 0.0
C999 C 0.66643 0.87051 0.595 0.0
C1000 C 0.64982 0.87517 0.59924 0.0
C1001 C 0.65364 0.89342 0.61436 0.0
C1002 C 0.67426 0.90758 0.62513 0.0
C1003 C 0.69086 0.90282 0.62038 0.0
C1004 C 0.6869 0.88439 0.60585 0.0
C1005 C 0.66815 0.80213 0.59522 0.0
C1006 C 0.68653 0.81024 0.61197 0.0
C1007 C 0.69119 0.79633 0.62663 0.0
C1008 C 0.6778 0.77385 0.62462 0.0
C1009 C 0.65916 0.76572 0.6082 0.0
C1010 C 0.65429 0.77972 0.59387 0.0
C1011 C 0.66367 0.81733 0.57949 0.0
C1012 C 0.66542 0.83543 0.59327 0.0
C1013 C 0.65843 0.81464 0.55109 0.0
C1014 C 0.65858 0.79747 0.53392 0.0
C1015 C 0.67684 0.79504 0.53298 0.0
C1016 C 0.67797 0.7808 0.51423 0.0
C1017 C 0.66104 0.76896 0.4956 0.0
C1018 C 0.64249 0.77094 0.49724 0.0
C1019 C 0.64128 0.785 0.51619 0.0
H1020 H 0.16403 0.78276 0.51825 0.0
H1021 H 0.13735 0.75795 0.48556 0.0
H1022 H 0.09052 0.77308 0.51894 0.0
H1023 H 0.11765 0.79873 0.55049 0.0
H1024 H 0.1781 0.82495 0.51544 0.0
H1025 H 0.14624 0.77137 0.59297 0.0
H1026 H 0.11484 0.74612 0.61996 0.0
H1027 H 0.09815 0.79592 0.63189 0.0
H1028 H 0.13021 0.82113 0.60666 0.0
H1029 H 0.19929 0.88881 0.56889 0.0
H1030 H 0.22328 0.92205 0.59349 0.0
H1031 H 0.24358 0.88693 0.64609 0.0
H1032 H 0.21972 0.85366 0.62098 0.0
H1033 H 0.17464 0.83439 0.61596 0.0
H1034 H 0.18502 0.86563 0.50863 0.0
H1035 H 0.21027 0.8921 0.4762 0.0
H1036 H 0.26312 0.89135 0.51785 0.0
H1037 H 0.23747 0.86446 0.55043 0.0
C1038 C 0.14286 0.79253 0.53704 0.0
C1039 C 0.14788 0.78041 0.51889 0.0
C1040 C 0.13253 0.7661 0.50027 0.0
C1041 C 0.11177 0.7636 0.4994 0.0
C1042 C 0.10643 0.77484 0.51872 0.0
C1043 C 0.12186 0.78928 0.53717 0.0
C1044 C 0.16033 0.81071 0.55264 0.0
C1045 C 0.17755 0.82678 0.53754 0.0
C1046 C 0.15926 0.81351 0.58128 0.0
C1047 C 0.14056 0.79811 0.59797 0.0
C1048 C 0.13587 0.77679 0.60176 0.0
C1049 C 0.11777 0.76234 0.61703 0.0
C1050 C 0.10377 0.76883 0.62837 0.0
C1051 C 0.10868 0.7903 0.62433 0.0
C1052 C 0.12698 0.80479 0.60964 0.0
C1053 C 0.20791 0.8688 0.59288 0.0
C1054 C 0.20912 0.8883 0.58546 0.0
C1055 C 0.22267 0.90725 0.59975 0.0
C1056 C 0.23526 0.90711 0.62185 0.0
C1057 C 0.23422 0.88759 0.62904 0.0
C1058 C 0.22054 0.86858 0.6148 0.0
C1059 C 0.19256 0.84848 0.57872 0.0
C1060 C 0.17563 0.83215 0.59404 0.0
C1061 C 0.19336 0.84582 0.55001 0.0
C1062 C 0.20936 0.86308 0.53192 0.0
C1063 C 0.20206 0.87125 0.51094 0.0
C1064 C 0.21654 0.88652 0.49252 0.0
C1065 C 0.23872 0.8939 0.49452 0.0
C1066 C 0.24611 0.88588 0.51575 0.0
C1067 C 0.23153 0.87065 0.53444 0.0
H1068 H 0.14192 0.32068 0.507 0.0
H1069 H 0.11509 0.31933 0.47519 0.0
H1070 H 0.11532 0.37228 0.51817 0.0
H1071 H 0.14272 0.37378 0.54995 0.0
H1072 H 0.18209 0.35289 0.51405 0.0
H1073 H 0.11883 0.31241 0.56897 0.0
H1074 H 0.08601 0.30399 0.59406 0.0
H1075 H 0.12216 0.36029 0.64496 0.0
H1076 H 0.15502 0.36886 0.61934 0.0
H1077 H 0.23804 0.37006 0.5838 0.0
H1078 H 0.26195 0.36071 0.60823 0.0
H1079 H 0.20652 0.30393 0.64087 0.0
H1080 H 0.1829 0.31241 0.61454 0.0
H1081 H 0.17358 0.34239 0.61497 0.0
H1082 H 0.23407 0.38346 0.53424 0.0
H1083 H 0.26013 0.38282 0.50236 0.0
H1084 H 0.22121 0.3133 0.498 0.0
H1085 H 0.19631 0.31423 0.53135 0.0
C1086 C 0.14436 0.34734 0.53085 0.0
C1087 C 0.13617 0.33197 0.50969 0.0
C1088 C 0.12066 0.33109 0.49164 0.0
C1089 C 0.11296 0.34562 0.49421 0.0
C1090 C 0.12101 0.36093 0.51559 0.0
C1091 C 0.13654 0.36172 0.53385 0.0
C1092 C 0.16167 0.34851 0.54881 0.0
C1093 C 0.18034 0.35089 0.5362 0.0
C1094 C 0.15938 0.3458 0.57766 0.0
C1095 C 0.13932 0.34141 0.59205 0.0
C1096 C 0.11966 0.32312 0.58526 0.0
C1097 C 0.10095 0.3182 0.59984 0.0
C1098 C 0.10151 0.33142 0.62162 0.0
C1099 C 0.12119 0.34989 0.62818 0.0
C1100 C 0.13996 0.35475 0.61365 0.0
C1101 C 0.20861 0.34167 0.59661 0.0
C1102 C 0.23104 0.35538 0.59575 0.0
C1103 C 0.24473 0.3502 0.61025 0.0
C1104 C 0.23627 0.33139 0.62641 0.0
C1105 C 0.21374 0.31824 0.62814 0.0
C1106 C 0.20013 0.32323 0.61331 0.0
C1107 C 0.19378 0.34612 0.58005 0.0
C1108 C 0.17565 0.34504 0.59295 0.0
C1109 C 0.1962 0.34941 0.55128 0.0
C1110 C 0.21354 0.34888 0.53545 0.0
C1111 C 0.23161 0.3681 0.52695 0.0
C1112 C 0.24631 0.36767 0.50837 0.0
C1113 C 0.24282 0.34802 0.49716 0.0
C1114 C 0.22484 0.32875 0.50639 0.0
C1115 C 0.21045 0.3292 0.52544 0.0
C1116 C 0.01728 0.41644 0.10503 0.0
C1117 C 0.99919 0.39749 0.09559 0.0
H1118 H 0.02978 0.44283 0.13314 0.0
C1119 C 0.9795 0.38991 0.10953 0.0
H1120 H 0.03271 0.42283 0.09479 0.0
C1121 C 0.97787 0.40133 0.13197 0.0
C1122 C 0.99588 0.42061 0.14092 0.0
H1123 H 0.96526 0.37532 0.1029 0.0
H1124 H 0.96246 0.3951 0.14217 0.0
C1125 C 0.01564 0.42786 0.12727 0.0
C1126 C 0.59288 0.60053 0.10518 0.0
C1127 C 0.61157 0.60114 0.09509 0.0
H1128 H 0.56725 0.58731 0.13435 0.0
C1129 C 0.61948 0.58928 0.10888 0.0
H1130 H 0.58623 0.60937 0.09505 0.0
C1131 C 0.60869 0.57678 0.13194 0.0
C1132 C 0.58969 0.57579 0.14163 0.0
H1133 H 0.6339 0.58948 0.10173 0.0
H1134 H 0.6152 0.56782 0.14209 0.0
C1135 C 0.58206 0.58797 0.128 0.0
C1136 C 0.40341 0.98803 0.10058 0.0
C1137 C 0.40233 0.00614 0.09171 0.0
H1138 H 0.41748 0.97539 0.12822 0.0
C1139 C 0.41413 0.02563 0.10615 0.0
H1140 H 0.39459 0.97275 0.08995 0.0
C1141 C 0.42712 0.02708 0.12848 0.0
C1142 C 0.42869 0.0091 0.13683 0.0
H1143 H 0.41356 0.03987 0.10001 0.0
H1144 H 0.43607 0.04236 0.13907 0.0
C1145 C 0.41645 0.9895 0.12275 0.0
C1146 C 0.41014 0.01763 0.93371 0.0
C1147 C 0.39559 0.99831 0.94695 0.0
H1148 H 0.43388 0.03279 0.90223 0.0
C1149 C 0.39285 0.97877 0.93654 0.0
H1150 H 0.41244 0.03295 0.94091 0.0
C1151 C 0.40534 0.97871 0.91438 0.0
C1152 C 0.42075 0.99818 0.90215 0.0
H1153 H 0.38175 0.9636 0.94623 0.0
H1154 H 0.40367 0.96352 0.90774 0.0
C1155 C 0.4225 0.01755 0.91155 0.0
C1156 C 0.0301 0.41394 0.93744 0.0
C1157 C 0.01036 0.40188 0.95125 0.0
H1158 H 0.04719 0.4358 0.90457 0.0
C1159 C 0.99215 0.40222 0.94116 0.0
H1160 H 0.04442 0.41394 0.94453 0.0
C1161 C 0.99378 0.41487 0.91844 0.0
C1162 C 0.01363 0.42744 0.90506 0.0
H1163 H 0.97667 0.39315 0.95126 0.0
H1164 H 0.97957 0.41538 0.91206 0.0
C1165 C 0.03171 0.42655 0.91458 0.0
C1166 C 0.59168 0.61632 0.93778 0.0
C1167 C 0.60362 0.60829 0.95111 0.0
H1168 H 0.56969 0.6121 0.90533 0.0
C1169 C 0.60266 0.58948 0.94084 0.0
H1170 H 0.59214 0.63085 0.94505 0.0
C1171 C 0.58963 0.57861 0.91835 0.0
C1172 C 0.57731 0.58634 0.90528 0.0
H1173 H 0.61156 0.58275 0.95061 0.0
H1174 H 0.5887 0.56371 0.91183 0.0
C1175 C 0.57871 0.6055 0.91508 0.0
C1176 C 0.99005 0.59457 0.93593 0.0
C1177 C 0.00913 0.61021 0.94864 0.0
H1178 H 0.97571 0.56998 0.90527 0.0
C1179 C 0.02899 0.61395 0.93808 0.0
H1180 H 0.97447 0.59143 0.94326 0.0
C1181 C 0.02968 0.60149 0.91628 0.0
C1182 C 0.01052 0.58507 0.90459 0.0
H1183 H 0.04399 0.6259 0.94734 0.0
H1184 H 0.04517 0.60403 0.90947 0.0
C1185 C 0.99074 0.5822 0.91418 0.0
C1186 C 0.39151 0.41757 0.93956 0.0
C1187 C 0.39939 0.40553 0.953 0.0
H1188 H 0.39583 0.43938 0.90681 0.0
C1189 C 0.41805 0.4062 0.94269 0.0
H1190 H 0.37711 0.41733 0.94686 0.0
C1191 C 0.4289 0.419 0.92003 0.0
C1192 C 0.42131 0.43138 0.9068 0.0
H1193 H 0.42467 0.39723 0.95255 0.0
H1194 H 0.44368 0.41969 0.9135 0.0
C1195 C 0.40232 0.4303 0.91667 0.0
C1196 C 0.59033 0.97779 0.93564 0.0
C1197 C 0.60732 0.99727 0.94581 0.0
H1198 H 0.56407 0.96269 0.90715 0.0
C1199 C 0.61225 0.0166 0.93244 0.0
H1200 H 0.58614 0.96262 0.94544 0.0
C1201 C 0.59978 0.01661 0.91043 0.0
C1202 C 0.58197 0.99732 0.90129 0.0
H1203 H 0.62543 0.03187 0.93944 0.0
H1204 H 0.60375 0.03186 0.90103 0.0
C1205 C 0.57775 0.97782 0.9136 0.0
C1206 C 0.61645 0.02544 0.10473 0.0
C1207 C 0.60881 0.00586 0.09051 0.0
H1208 H 0.61128 0.04233 0.13756 0.0
C1209 C 0.58974 0.98776 0.09966 0.0
H1210 H 0.63116 0.03968 0.09837 0.0
C1211 C 0.57825 0.98932 0.12191 0.0
C1212 C 0.58556 0.009 0.13578 0.0
H1213 H 0.58332 0.97241 0.0892 0.0
H1214 H 0.56321 0.97521 0.12762 0.0
C1215 C 0.60499 0.02698 0.12714 0.0
C1216 C 0.01761 0.60276 0.10211 0.0
C1217 C 0.99953 0.60376 0.09293 0.0
H1218 H 0.03016 0.58892 0.1302 0.0
C1219 C 0.97996 0.59195 0.1072 0.0
H1220 H 0.03293 0.61156 0.0916 0.0
C1221 C 0.97843 0.57909 0.12976 0.0
C1222 C 0.99641 0.57769 0.1385 0.0
H1223 H 0.96574 0.59244 0.10079 0.0
H1224 H 0.96312 0.57017 0.14025 0.0
C1225 C 0.01605 0.58985 0.12448 0.0
C1226 C 0.4083 0.41711 0.10666 0.0
C1227 C 0.40758 0.39835 0.09663 0.0
H1228 H 0.42199 0.44309 0.13534 0.0
C1229 C 0.41983 0.3907 0.11006 0.0
H1230 H 0.3992 0.42358 0.0968 0.0
C1231 C 0.43276 0.40181 0.13269 0.0
C1232 C 0.43385 0.42089 0.14231 0.0
H1233 H 0.41958 0.37624 0.10295 0.0
H1234 H 0.44197 0.39548 0.14256 0.0
C1235 C 0.4213 0.42826 0.12904 0.0
C1236 C 0.68529 0.75216 0.43776 0.0
C1237 C 0.66736 0.73329 0.42782 0.0
H1238 H 0.69732 0.77828 0.46627 0.0
C1239 C 0.64748 0.72553 0.44133 0.0
H1240 H 0.70085 0.75869 0.42785 0.0
C1241 C 0.64552 0.73667 0.46384 0.0
C1242 C 0.66335 0.75592 0.47326 0.0
H1243 H 0.63336 0.71097 0.43434 0.0
H1244 H 0.62996 0.73025 0.47372 0.0
C1245 C 0.6833 0.76335 0.46005 0.0
C1246 C 0.26298 0.93938 0.44275 0.0
C1247 C 0.27781 0.93532 0.42883 0.0
H1248 H 0.23945 0.92983 0.47472 0.0
C1249 C 0.28126 0.9188 0.43854 0.0
H1250 H 0.26009 0.95215 0.43612 0.0
C1251 C 0.2693 0.90591 0.46079 0.0
C1252 C 0.25366 0.90931 0.47369 0.0
H1253 H 0.2926 0.91529 0.42835 0.0
H1254 H 0.27157 0.89267 0.46704 0.0
C1255 C 0.25109 0.92656 0.46488 0.0
C1256 C 0.06708 0.32423 0.44293 0.0
C1257 C 0.07037 0.34319 0.42998 0.0
H1258 H 0.07753 0.31019 0.4737 0.0
C1259 C 0.08653 0.36317 0.44018 0.0
H1260 H 0.05462 0.30857 0.43589 0.0
C1261 C 0.09981 0.36407 0.4619 0.0
C1262 C 0.09718 0.34502 0.47384 0.0
H1263 H 0.08947 0.37808 0.43072 0.0
H1264 H 0.11275 0.37964 0.46848 0.0
C1265 C 0.08027 0.32514 0.46459 0.0
C1266 C 0.08137 0.35201 0.27259 0.0
C1267 C 0.06572 0.33305 0.28551 0.0
H1268 H 0.10564 0.36606 0.24151 0.0
C1269 C 0.06177 0.31307 0.27509 0.0
H1270 H 0.08466 0.36768 0.27981 0.0
C1271 C 0.07396 0.31216 0.25311 0.0
C1272 C 0.09032 0.3312 0.24111 0.0
H1273 H 0.04981 0.29814 0.28451 0.0
H1274 H 0.07122 0.29657 0.24635 0.0
C1275 C 0.09346 0.3511 0.25065 0.0
C1276 C 0.66348 0.7314 0.26437 0.0
C1277 C 0.68021 0.73884 0.28373 0.0
H1278 H 0.65181 0.73767 0.22714 0.0
C1279 C 0.69859 0.7591 0.27976 0.0
H1280 H 0.6492 0.71573 0.26677 0.0
C1281 C 0.69983 0.77208 0.25757 0.0
C1282 C 0.68291 0.76491 0.23833 0.0
H1283 H 0.71167 0.76533 0.2945 0.0
H1284 H 0.71377 0.78805 0.25621 0.0
C1285 C 0.66494 0.74413 0.24176 0.0
C1286 C 0.26759 0.9227 0.27454 0.0
C1287 C 0.26849 0.94149 0.28481 0.0
H1288 H 0.25391 0.89706 0.2454 0.0
C1289 C 0.25653 0.94949 0.27145 0.0
H1290 H 0.27649 0.91598 0.28434 0.0
C1291 C 0.24371 0.93871 0.2486 0.0
C1292 C 0.2425 0.91965 0.23869 0.0
H1293 H 0.25693 0.96397 0.27874 0.0
H1294 H 0.2347 0.94528 0.23876 0.0
C1295 C 0.25473 0.9119 0.25193 0.0
C1296 C 0.70047 0.9511 0.26949 0.0
C1297 C 0.68053 0.94332 0.28283 0.0
H1298 H 0.71801 0.94659 0.23688 0.0
C1299 C 0.66256 0.92466 0.27256 0.0
H1300 H 0.71462 0.96549 0.27679 0.0
C1301 C 0.66454 0.91373 0.24999 0.0
C1302 C 0.6845 0.92123 0.23681 0.0
H1303 H 0.64695 0.91811 0.28234 0.0
H1304 H 0.65045 0.89896 0.24348 0.0
C1305 C 0.70243 0.9402 0.24668 0.0
C1306 C 0.05781 0.75019 0.27162 0.0
C1307 C 0.06588 0.73854 0.28564 0.0
H1308 H 0.06207 0.77165 0.23845 0.0
C1309 C 0.08485 0.73956 0.27594 0.0
H1310 H 0.04316 0.74966 0.27843 0.0
C1311 C 0.0958 0.75232 0.25327 0.0
C1312 C 0.08801 0.76431 0.23948 0.0
H1313 H 0.0916 0.73088 0.28625 0.0
H1314 H 0.11079 0.7533 0.24716 0.0
C1315 C 0.06872 0.76288 0.24876 0.0
C1316 C 0.25186 0.31169 0.28039 0.0
C1317 C 0.27232 0.32986 0.28403 0.0
H1318 H 0.22285 0.29675 0.25693 0.0
C1319 C 0.28008 0.34628 0.26418 0.0
H1320 H 0.2454 0.29885 0.29547 0.0
C1321 C 0.26743 0.34483 0.24151 0.0
C1322 C 0.24644 0.32717 0.23848 0.0
H1323 H 0.29592 0.36038 0.26628 0.0
H1324 H 0.27407 0.35777 0.22659 0.0
C1325 C 0.23898 0.31046 0.25808 0.0
C1326 C 0.27126 0.32848 0.44862 0.0
C1327 C 0.27984 0.34491 0.42879 0.0
H1328 H 0.25393 0.317 0.48634 0.0
C1329 C 0.27756 0.36309 0.43256 0.0
H1330 H 0.27301 0.31438 0.44641 0.0
C1331 C 0.26601 0.36433 0.45502 0.0
C1332 C 0.25685 0.34762 0.47463 0.0
H1333 H 0.28387 0.37595 0.4175 0.0
H1334 H 0.26358 0.37806 0.45628 0.0
C1335 C 0.26016 0.32994 0.47143 0.0
C1336 C 0.6823 0.9357 0.43709 0.0
C1337 C 0.6643 0.93617 0.4265 0.0
H1338 H 0.69441 0.92237 0.46654 0.0
C1339 C 0.64431 0.92397 0.43971 0.0
H1340 H 0.69795 0.94481 0.42742 0.0
C1341 C 0.64232 0.91125 0.46263 0.0
C1342 C 0.66026 0.91036 0.47277 0.0
H1343 H 0.63013 0.92406 0.43219 0.0
H1344 H 0.62669 0.90202 0.47229 0.0
C1345 C 0.6803 0.92292 0.45979 0.0
C1346 C 0.07155 0.74841 0.4411 0.0
C1347 C 0.07084 0.72986 0.43026 0.0
H1348 H 0.08508 0.77363 0.4709 0.0
C1349 C 0.08264 0.72162 0.44348 0.0
H1350 H 0.06269 0.75525 0.43148 0.0
C1351 C 0.09535 0.73208 0.4665 0.0
C1352 C 0.09659 0.75104 0.47678 0.0
H1353 H 0.08236 0.70728 0.43579 0.0
H1354 H 0.10439 0.72542 0.47605 0.0
C1355 C 0.08428 0.75888 0.46396 0.0
C1356 C 0.31058 0.05921 0.77304 0.0
C1357 C 0.33033 0.06236 0.76285 0.0
H1358 H 0.29471 0.06947 0.80168 0.0
C1359 C 0.34944 0.07729 0.77618 0.0
H1360 H 0.29555 0.0478 0.7633 0.0
C1361 C 0.34894 0.08955 0.7982 0.0
C1362 C 0.32933 0.08727 0.80746 0.0
H1363 H 0.36494 0.07996 0.76916 0.0
H1364 H 0.36402 0.10121 0.80759 0.0
C1365 C 0.31008 0.07155 0.79513 0.0
C1366 C 0.95212 0.25837 0.77348 0.0
C1367 C 0.94449 0.27051 0.75972 0.0
H1368 H 0.94717 0.23628 0.80612 0.0
C1369 C 0.92567 0.26981 0.76946 0.0
H1370 H 0.96662 0.25862 0.76662 0.0
C1371 C 0.91443 0.25686 0.79187 0.0
C1372 C 0.92174 0.24435 0.80533 0.0
H1373 H 0.91926 0.27887 0.75936 0.0
H1374 H 0.89956 0.25616 0.79802 0.0
C1375 C 0.94089 0.24547 0.79605 0.0
C1376 C 0.7297 0.65343 0.77324 0.0
C1377 C 0.73418 0.67275 0.76024 0.0
H1378 H 0.7385 0.63833 0.80456 0.0
C1379 C 0.75081 0.69232 0.77075 0.0
H1380 H 0.71683 0.63807 0.76595 0.0
C1381 C 0.76339 0.69245 0.79286 0.0
C1382 C 0.75955 0.67301 0.80496 0.0
H1383 H 0.75465 0.70751 0.76125 0.0
H1384 H 0.77673 0.7077 0.79961 0.0
C1385 C 0.74218 0.65356 0.79535 0.0
C1386 C 0.72202 0.64412 0.6016 0.0
C1387 C 0.7295 0.66388 0.61534 0.0
H1388 H 0.72722 0.62707 0.56898 0.0
C1389 C 0.74809 0.68212 0.6054 0.0
H1390 H 0.70769 0.62978 0.60862 0.0
C1391 C 0.75934 0.68054 0.58292 0.0
C1392 C 0.75228 0.6607 0.56958 0.0
H1393 H 0.75437 0.69761 0.61543 0.0
H1394 H 0.77408 0.69479 0.57669 0.0
C1395 C 0.73328 0.64255 0.57895 0.0
C1396 C 0.36167 0.08159 0.60451 0.0
C1397 C 0.34195 0.06986 0.61847 0.0
H1398 H 0.37896 0.10343 0.5717 0.0
C1399 C 0.32406 0.07107 0.60897 0.0
H1400 H 0.37575 0.08092 0.61116 0.0
C1401 C 0.32595 0.08413 0.58662 0.0
C1402 C 0.34575 0.09624 0.57293 0.0
H1403 H 0.30862 0.06233 0.61923 0.0
H1404 H 0.31198 0.08524 0.58069 0.0
C1405 C 0.36353 0.09458 0.58195 0.0
C1406 C 0.92427 0.28121 0.60524 0.0
C1407 C 0.94042 0.27736 0.61538 0.0
H1408 H 0.89816 0.27162 0.57685 0.0
C1409 C 0.94388 0.26187 0.60218 0.0
H1410 H 0.92122 0.29306 0.6149 0.0
C1411 C 0.93082 0.24976 0.58033 0.0
C1412 C 0.91389 0.25273 0.57115 0.0
H1413 H 0.95635 0.25867 0.60918 0.0
H1414 H 0.93366 0.23766 0.57102 0.0
C1415 C 0.91112 0.269 0.58334 0.0
C1416 C 0.36502 0.28437 0.60366 0.0
C1417 C 0.34526 0.27667 0.61748 0.0
H1418 H 0.38219 0.27951 0.57093 0.0
C1419 C 0.3272 0.25784 0.60773 0.0
H1420 H 0.37923 0.29889 0.61053 0.0
C1421 C 0.32894 0.24663 0.58529 0.0
C1422 C 0.34876 0.25401 0.57176 0.0
H1423 H 0.31173 0.25136 0.61787 0.0
H1424 H 0.31482 0.23175 0.57917 0.0
C1425 C 0.36674 0.27319 0.58103 0.0
C1426 C 0.724 0.08104 0.60174 0.0
C1427 C 0.73188 0.06938 0.61609 0.0
H1428 H 0.72866 0.10252 0.56847 0.0
C1429 C 0.7507 0.07 0.60649 0.0
H1430 H 0.70945 0.08078 0.60841 0.0
C1431 C 0.76182 0.08261 0.58376 0.0
C1432 C 0.75436 0.09485 0.56991 0.0
H1433 H 0.75726 0.06123 0.61701 0.0
H1434 H 0.77675 0.0834 0.57777 0.0
C1435 C 0.73508 0.09358 0.57889 0.0
C1436 C 0.94299 0.68457 0.60566 0.0
C1437 C 0.93995 0.66534 0.6175 0.0
H1438 H 0.9325 0.69923 0.57576 0.0
C1439 C 0.92412 0.64559 0.60634 0.0
H1440 H 0.95517 0.70009 0.61348 0.0
C1441 C 0.91099 0.64512 0.58469 0.0
C1442 C 0.91342 0.66438 0.57376 0.0
H1443 H 0.92137 0.63047 0.61492 0.0
H1444 H 0.89835 0.62966 0.57733 0.0
C1445 C 0.92992 0.68409 0.58407 0.0
C1446 C 0.94863 0.69251 0.77225 0.0
C1447 C 0.94592 0.67285 0.76238 0.0
H1448 H 0.93785 0.70811 0.80058 0.0
C1449 C 0.93158 0.65373 0.77616 0.0
H1450 H 0.95958 0.70753 0.76212 0.0
C1451 C 0.91936 0.65408 0.7983 0.0
C1452 C 0.92102 0.67355 0.80713 0.0
H1453 H 0.92934 0.63833 0.7694 0.0
H1454 H 0.90814 0.63898 0.80805 0.0
C1455 C 0.93625 0.69285 0.79438 0.0
C1456 C 0.35203 0.27095 0.77212 0.0
C1457 C 0.33395 0.27165 0.76227 0.0
H1458 H 0.36443 0.25753 0.80115 0.0
C1459 C 0.31432 0.26007 0.77645 0.0
H1460 H 0.36742 0.27966 0.76174 0.0
C1461 C 0.31267 0.24756 0.79943 0.0
C1462 C 0.33058 0.24624 0.80869 0.0
H1463 H 0.30011 0.26039 0.76959 0.0
H1464 H 0.29726 0.23871 0.80974 0.0
C1465 C 0.35036 0.25837 0.79496 0.0
C1466 C 0.74924 0.05786 0.77501 0.0
C1467 C 0.73734 0.06559 0.76089 0.0
H1468 H 0.77131 0.06292 0.80768 0.0
C1469 C 0.73837 0.08468 0.77015 0.0
H1470 H 0.74873 0.04313 0.76855 0.0
C1471 C 0.75148 0.09614 0.79236 0.0
C1472 C 0.76384 0.08876 0.80609 0.0
H1473 H 0.72948 0.09117 0.75978 0.0
H1474 H 0.75247 0.11122 0.7981 0.0
C1475 C 0.76229 0.06928 0.79737 0.0
C1476 C 0.05785 0.33946 0.05664 0.0
C1477 C 0.06524 0.36107 0.04949 0.0
H1478 H 0.06522 0.31699 0.07597 0.0
C1479 C 0.08676 0.37655 0.05516 0.0
H1480 H 0.04135 0.32715 0.05262 0.0
C1481 C 0.10034 0.37076 0.06858 0.0
C1482 C 0.0928 0.34932 0.07659 0.0
H1483 H 0.09304 0.39332 0.04986 0.0
H1484 H 0.11675 0.38315 0.07289 0.0
C1485 C 0.07152 0.33363 0.06999 0.0
C1486 C 0.62958 0.70743 0.06093 0.0
C1487 C 0.64519 0.70341 0.04935 0.0
H1488 H 0.62301 0.72925 0.083 0.0
C1489 C 0.66689 0.71979 0.05003 0.0
H1490 H 0.61273 0.69509 0.06106 0.0
C1491 C 0.67282 0.73972 0.06225 0.0
C1492 C 0.6572 0.7436 0.07437 0.0
H1493 H 0.6793 0.71718 0.04124 0.0
H1494 H 0.68965 0.75207 0.06213 0.0
C1495 C 0.6355 0.72716 0.07344 0.0
C1496 C 0.2878 0.92306 0.03714 0.0
C1497 C 0.29941 0.94498 0.0441 0.0
H1498 H 0.25959 0.89257 0.04363 0.0
C1499 C 0.29063 0.95307 0.06336 0.0
H1500 H 0.29412 0.91644 0.02216 0.0
C1501 C 0.27115 0.93921 0.07658 0.0
C1502 C 0.25978 0.91702 0.07038 0.0
H1503 H 0.29937 0.96989 0.0693 0.0
H1504 H 0.26555 0.94583 0.09246 0.0
C1505 C 0.26809 0.90933 0.04978 0.0
C1506 C 0.33808 0.05563 0.99191 0.0
C1507 C 0.35961 0.0628 0.99914 0.0
H1508 H 0.31589 0.0634 0.9726 0.0
C1509 C 0.37521 0.08437 0.99392 0.0
H1510 H 0.32568 0.0391 0.99559 0.0
C1511 C 0.36963 0.09818 0.98069 0.0
C1512 C 0.3483 0.09083 0.97242 0.0
H1513 H 0.39194 0.09049 0.9993 0.0
H1514 H 0.38213 0.1146 0.97659 0.0
C1515 C 0.33246 0.06954 0.97876 0.0
C1516 C 0.95612 0.29094 0.98072 0.0
C1517 C 0.94813 0.29981 1.00001 0.0
H1518 H 0.9487 0.26592 0.95144 0.0
C1519 C 0.92621 0.28835 1.00689 0.0
H1520 H 0.97294 0.29958 0.97484 0.0
C1521 C 0.91236 0.26873 0.99413 0.0
C1522 C 0.91994 0.26037 0.97345 0.0
H1523 H 0.91967 0.29474 0.02189 0.0
H1524 H 0.8956 0.26035 1.00023 0.0
C1525 C 0.94215 0.27156 0.96736 0.0
C1526 C 0.71311 0.62791 0.99205 0.0
C1527 C 0.70683 0.64332 0.99701 0.0
H1528 H 0.73677 0.62132 0.97511 0.0
C1529 C 0.72095 0.66488 0.9896 0.0
H1530 H 0.70272 0.61118 0.99766 0.0
C1531 C 0.74055 0.67069 0.97648 0.0
C1532 C 0.74633 0.65502 0.97044 0.0
H1533 H 0.71657 0.67714 0.99311 0.0
H1534 H 0.75077 0.68726 0.97012 0.0
C1535 C 0.73259 0.63368 0.97894 0.0
C1536 C 0.95068 0.66763 0.99137 0.0
C1537 C 0.94348 0.64625 0.99949 0.0
H1538 H 0.94282 0.68947 0.97121 0.0
C1539 C 0.92175 0.63069 0.99533 0.0
H1540 H 0.96734 0.67999 0.99425 0.0
C1541 C 0.9078 0.6361 0.98215 0.0
C1542 C 0.91519 0.65721 0.97281 0.0
H1543 H 0.91559 0.6141 1.00148 0.0
H1544 H 0.89126 0.62361 0.9788 0.0
C1545 C 0.93664 0.67307 0.97821 0.0
C1546 C 0.37889 0.29715 0.98879 0.0
C1547 C 0.36362 0.30232 0.99878 0.0
H1548 H 0.38472 0.27427 0.96823 0.0
C1549 C 0.34164 0.28686 0.99666 0.0
H1550 H 0.39595 0.30874 0.98979 0.0
C1551 C 0.33511 0.26673 0.98456 0.0
C1552 C 0.35044 0.2617 0.97414 0.0
H1553 H 0.32947 0.29035 1.00414 0.0
H1554 H 0.31807 0.25512 0.98343 0.0
C1555 C 0.3724 0.27723 0.97651 0.0
C1556 C 0.72367 0.05762 0.99468 0.0
C1557 C 0.70748 0.06314 0.99708 0.0
H1558 H 0.75564 0.06717 0.98095 0.0
C1559 C 0.71159 0.08327 0.98721 0.0
H1560 H 0.72099 0.04221 1.00207 0.0
C1561 C 0.73115 0.09732 0.97456 0.0
C1562 C 0.74737 0.09183 0.97178 0.0
H1563 H 0.69941 0.08797 0.98841 0.0
H1564 H 0.73323 0.11226 0.96625 0.0
C1565 C 0.74346 0.07186 0.9823 0.0
C1566 C 0.66826 0.95336 0.06186 0.0
C1567 C 0.65135 0.94506 0.04272 0.0
H1568 H 0.68642 0.94645 0.09082 0.0
C1569 C 0.64135 0.92317 0.03573 0.0
H1570 H 0.67611 0.97018 0.06781 0.0
C1571 C 0.64763 0.90964 0.04828 0.0
C1572 C 0.66364 0.91751 0.06882 0.0
H1573 H 0.62839 0.9164 0.02082 0.0
H1574 H 0.63959 0.89288 0.04214 0.0
C1575 C 0.67419 0.9397 0.075 0.0
C1576 C 0.08367 0.71821 0.03856 0.0
C1577 C 0.06172 0.7068 0.04536 0.0
H1578 H 0.11425 0.7463 0.04507 0.0
C1579 C 0.05369 0.71578 0.06441 0.0
H1580 H 0.09024 0.71174 0.02374 0.0
C1581 C 0.06761 0.73527 0.07757 0.0
C1582 C 0.08982 0.74647 0.0715 0.0
H1583 H 0.03685 0.70718 0.07023 0.0
H1584 H 0.06101 0.74102 0.09328 0.0
C1585 C 0.09747 0.73794 0.05113 0.0
C1586 C 0.28805 0.34106 0.05152 0.0
C1587 C 0.30399 0.36293 0.05063 0.0
H1588 H 0.25585 0.31774 0.06328 0.0
C1589 C 0.29921 0.37829 0.06131 0.0
H1590 H 0.29124 0.32883 0.04343 0.0
C1591 C 0.27918 0.37196 0.07315 0.0
C1592 C 0.26318 0.35008 0.07434 0.0
H1593 H 0.31117 0.39528 0.06123 0.0
H1594 H 0.27651 0.38429 0.08206 0.0
C1595 C 0.26782 0.3347 0.06313 0.0
C1596 C 0.72212 0.6751 0.39791 0.0
C1597 C 0.73017 0.69221 0.37906 0.0
H1598 H 0.72939 0.6568 0.42616 0.0
C1599 C 0.752 0.70241 0.37176 0.0
H1600 H 0.70536 0.6671 0.40408 0.0
C1601 C 0.76571 0.6961 0.38371 0.0
C1602 C 0.7581 0.67989 0.404 0.0
H1603 H 0.75857 0.71552 0.35706 0.0
H1604 H 0.7824 0.70429 0.37731 0.0
C1605 C 0.73596 0.66916 0.41049 0.0
C1606 C 0.33383 0.05367 0.38373 0.0
C1607 C 0.31204 0.03756 0.3823 0.0
H1608 H 0.35673 0.08571 0.39669 0.0
C1609 C 0.29643 0.04182 0.39333 0.0
H1610 H 0.34625 0.05086 0.37545 0.0
C1611 C 0.30241 0.0615 0.40597 0.0
C1612 C 0.32418 0.07768 0.40764 0.0
H1613 H 0.27951 0.0297 0.3929 0.0
H1614 H 0.28988 0.06377 0.41506 0.0
C1615 C 0.33984 0.07356 0.39616 0.0
C1616 C 0.9541 0.28459 0.38788 0.0
C1617 C 0.96836 0.27723 0.38082 0.0
H1618 H 0.92413 0.27712 0.40696 0.0
C1619 C 0.96224 0.25563 0.38615 0.0
H1620 H 0.95835 0.30115 0.3841 0.0
C1621 C 0.94276 0.24196 0.39927 0.0
C1622 C 0.92885 0.24949 0.40734 0.0
H1623 H 0.97276 0.24937 0.38088 0.0
H1624 H 0.93869 0.22549 0.40341 0.0
C1625 C 0.93449 0.27083 0.40095 0.0
C1626 C 0.03641 0.41773 0.34121 0.0
C1627 C 0.02558 0.39575 0.33453 0.0
H1628 H 0.0395 0.44856 0.33445 0.0
C1629 C 0.00859 0.3879 0.31554 0.0
H1630 H 0.04948 0.42417 0.35597 0.0
C1631 C 1.00336 0.40203 0.30226 0.0
C1632 C 0.01471 0.42428 0.30815 0.0
H1633 H 1.00012 0.37103 0.3098 0.0
H1634 H 0.99103 0.39555 0.28655 0.0
C1635 C 0.03084 0.43176 0.32852 0.0
C1636 C 0.59353 0.62434 0.33983 0.0
C1637 C 0.61552 0.63531 0.33322 0.0
H1638 H 0.56277 0.59637 0.33382 0.0
C1639 C 0.6234 0.62568 0.31497 0.0
H1640 H 0.58705 0.63133 0.35404 0.0
C1641 C 0.60933 0.60597 0.30238 0.0
C1642 C 0.58709 0.59516 0.30828 0.0
H1643 H 0.64027 0.63393 0.30928 0.0
H1644 H 0.61586 0.59972 0.28723 0.0
C1645 C 0.57956 0.60438 0.32788 0.0
C1646 C 0.3756 0.95973 0.31675 0.0
C1647 C 0.37137 0.97538 0.32776 0.0
H1648 H 0.39742 0.95314 0.29476 0.0
C1649 C 0.38736 0.9972 0.3259 0.0
H1650 H 0.36357 0.94278 0.3175 0.0
C1651 C 0.40713 0.0032 0.31314 0.0
C1652 C 0.41124 0.98751 0.30175 0.0
H1653 H 0.38457 0.00964 0.33416 0.0
H1654 H 0.4192 0.02012 0.31231 0.0
C1655 C 0.39516 0.9657 0.30377 0.0
C1656 C 0.59152 0.96131 0.31543 0.0
C1657 C 0.61137 0.97714 0.3262 0.0
H1658 H 0.5629 0.95435 0.29383 0.0
C1659 C 0.61692 0.99889 0.3243 0.0
H1660 H 0.58683 0.94441 0.31621 0.0
C1661 C 0.60289 0.00464 0.31176 0.0
C1662 C 0.58312 0.98877 0.30062 0.0
H1663 H 0.63212 0.01147 0.33239 0.0
H1664 H 0.60752 0.02151 0.3109 0.0
C1665 C 0.57769 0.96704 0.30266 0.0
C1666 C 0.03749 0.62398 0.33812 0.0
C1667 C 0.02659 0.63505 0.3314 0.0
H1668 H 0.04061 0.59622 0.3316 0.0
C1669 C 0.00961 0.62583 0.3124 0.0
H1670 H 0.05054 0.63065 0.35291 0.0
C1671 C 1.0044 0.60641 0.29924 0.0
C1672 C 0.01575 0.59553 0.30527 0.0
H1673 H 1.00108 0.63416 0.30664 0.0
H1674 H 0.99203 0.60045 0.28358 0.0
C1675 C 0.03194 0.60432 0.32556 0.0
C1676 C 0.38562 0.38745 0.31549 0.0
C1677 C 0.37598 0.39536 0.33368 0.0
H1678 H 0.41156 0.39498 0.28776 0.0
C1679 C 0.38696 0.41734 0.34035 0.0
H1680 H 0.37735 0.37057 0.30977 0.0
C1681 C 0.40692 0.4313 0.32844 0.0
C1682 C 0.4161 0.42377 0.30881 0.0
H1683 H 0.37994 0.42381 0.35451 0.0
H1684 H 0.41492 0.4481 0.33437 0.0
C1685 C 0.40532 0.40152 0.30293 0.0
C1686 C 0.30774 0.25789 0.37249 0.0
C1687 C 0.31853 0.27985 0.37924 0.0
H1688 H 0.30504 0.22717 0.37869 0.0
C1689 C 0.33585 0.2878 0.39773 0.0
H1690 H 0.29443 0.25138 0.3581 0.0
C1691 C 0.34143 0.27376 0.41054 0.0
C1692 C 0.33011 0.25152 0.40464 0.0
H1693 H 0.34429 0.30466 0.4035 0.0
H1694 H 0.35399 0.2803 0.42595 0.0
C1695 C 0.31368 0.24396 0.38466 0.0
C1696 C 0.72538 0.05466 0.38247 0.0
C1697 C 0.73183 0.03911 0.38053 0.0
H1698 H 0.73364 0.08649 0.3955 0.0
C1699 C 0.75219 0.04419 0.3906 0.0
H1700 H 0.70977 0.05122 0.37492 0.0
C1701 C 0.76564 0.06412 0.4028 0.0
C1702 C 0.75928 0.07974 0.40498 0.0
H1703 H 0.75761 0.03253 0.38974 0.0
H1704 H 0.78086 0.06702 0.41115 0.0
C1705 C 0.739 0.0748 0.39449 0.0
C1706 C 0.95522 0.67529 0.38952 0.0
C1707 C 0.96977 0.69697 0.38318 0.0
H1708 H 0.92511 0.65277 0.40818 0.0
C1709 C 0.96408 0.71262 0.38967 0.0
H1710 H 0.95914 0.66285 0.38487 0.0
C1711 C 0.94471 0.70687 0.40307 0.0
C1712 C 0.93046 0.68532 0.41024 0.0
H1713 H 0.97484 0.72947 0.38501 0.0
H1714 H 0.94094 0.71938 0.40799 0.0
C1715 C 0.93573 0.66951 0.40285 0.0
C1716 C 0.39021 0.00552 0.71957 0.0
C1717 C 0.39713 0.02698 0.71213 0.0
H1718 H 0.39848 0.98362 0.7387 0.0
C1719 C 0.41878 0.04268 0.71654 0.0
H1720 H 0.37363 0.99304 0.71649 0.0
C1721 C 0.43293 0.0373 0.72922 0.0
C1722 C 0.42583 0.01608 0.73782 0.0
H1723 H 0.42472 0.05934 0.7109 0.0
H1724 H 0.44941 0.0499 0.73271 0.0
C1725 C 0.40445 1.00011 0.73225 0.0
C1726 C 1.00236 0.38268 0.73109 0.0
C1727 C 0.9856 0.37386 0.71175 0.0
H1728 H 0.02008 0.40788 0.76008 0.0
C1729 C 0.97547 0.38555 0.70438 0.0
H1730 H 0.01031 0.37387 0.73732 0.0
C1731 C 0.98147 0.40537 0.71675 0.0
C1732 C 0.99729 0.4137 0.73752 0.0
H1733 H 0.96262 0.37919 0.68931 0.0
H1734 H 0.97333 0.41392 0.71031 0.0
C1735 C 0.008 0.40227 0.74407 0.0
C1736 C 0.62028 0.591 0.7033 0.0
C1737 C 0.63182 0.61288 0.71042 0.0
H1738 H 0.59222 0.56039 0.7098 0.0
C1739 C 0.62302 0.62083 0.72985 0.0
H1740 H 0.62663 0.5845 0.6882 0.0
C1741 C 0.60364 0.60684 0.74316 0.0
C1742 C 0.59238 0.58466 0.73686 0.0
H1743 H 0.63173 0.63762 0.73592 0.0
H1744 H 0.59806 0.61334 0.75922 0.0
C1745 C 0.60066 0.57713 0.71603 0.0
C1746 C 0.67385 0.72515 0.66206 0.0
C1747 C 0.69564 0.7309 0.66413 0.0
H1748 H 0.65108 0.73431 0.64866 0.0
C1749 C 0.71139 0.75099 0.65385 0.0
H1750 H 0.66133 0.70976 0.66978 0.0
C1751 C 0.70556 0.7648 0.64121 0.0
C1752 C 0.68378 0.7591 0.63884 0.0
H1753 H 0.72832 0.75585 0.65479 0.0
H1754 H 0.71821 0.77973 0.63263 0.0
C1755 C 0.66799 0.73915 0.64969 0.0
C1756 C 0.25442 0.9606 0.65792 0.0
C1757 C 0.2759 0.96692 0.6643 0.0
H1758 H 0.2248 0.9368 0.6398 0.0
C1759 C 0.28363 0.95282 0.65798 0.0
H1760 H 0.24788 0.971 0.66256 0.0
C1761 C 0.27032 0.93314 0.64479 0.0
C1762 C 0.24908 0.92724 0.6375 0.0
H1763 H 0.30011 0.95723 0.66256 0.0
H1764 H 0.27688 0.92287 0.63948 0.0
C1765 C 0.2412 0.94105 0.64465 0.0
C1766 C 0.05634 0.33522 0.65759 0.0
C1767 C 0.04215 0.31354 0.66441 0.0
H1768 H 0.08624 0.3579 0.63858 0.0
C1769 C 0.04832 0.29815 0.65863 0.0
H1770 H 0.05205 0.34746 0.66171 0.0
C1771 C 0.06778 0.3041 0.64534 0.0
C1772 C 0.08162 0.3256 0.63756 0.0
H1773 H 0.03785 0.28133 0.66368 0.0
H1774 H 0.07189 0.29177 0.64088 0.0
C1775 C 0.07593 0.3412 0.64437 0.0
C1776 C 0.28464 0.33424 0.66341 0.0
C1777 C 0.2786 0.31235 0.66511 0.0
H1778 H 0.27589 0.35746 0.65062 0.0
C1779 C 0.25839 0.29687 0.65485 0.0
H1780 H 0.3001 0.34657 0.67116 0.0
C1781 C 0.24475 0.30308 0.64255 0.0
C1782 C 0.25074 0.32497 0.64051 0.0
H1783 H 0.25331 0.27987 0.65554 0.0
H1784 H 0.22972 0.29063 0.63395 0.0
C1785 C 0.27081 0.34048 0.65139 0.0
C1786 C 0.6738 0.95855 0.64707 0.0
C1787 C 0.69061 0.96739 0.66635 0.0
H1788 H 0.65597 0.93331 0.61819 0.0
C1789 C 0.70074 0.95568 0.67367 0.0
H1790 H 0.66586 0.96737 0.64086 0.0
C1791 C 0.69469 0.93584 0.66132 0.0
C1792 C 0.67879 0.92748 0.64064 0.0
H1793 H 0.71363 0.96205 0.68868 0.0
H1794 H 0.70282 0.92728 0.66774 0.0
C1795 C 0.66811 0.93894 0.63413 0.0
C1796 C 0.05521 0.74669 0.67617 0.0
C1797 C 0.04341 0.72505 0.66801 0.0
H1798 H 0.08389 0.77708 0.67144 0.0
C1799 C 0.05234 0.71731 0.6485 0.0
H1800 H 0.04876 0.75302 0.69139 0.0
C1801 C 0.07216 0.73131 0.63612 0.0
C1802 C 0.08373 0.75329 0.64347 0.0
H1803 H 0.04345 0.70071 0.64165 0.0
H1804 H 0.07785 0.72503 0.61994 0.0
C1805 C 0.07526 0.76054 0.66441 0.0
C1806 C 0.96511 0.58606 0.71734 0.0
C1807 C 0.98075 0.6075 0.71146 0.0
H1808 H 0.95817 0.55615 0.73574 0.0
C1809 C 1.0023 0.61473 0.71865 0.0
H1810 H 0.94837 0.57991 0.71203 0.0
C1811 C 0.00791 0.60105 0.73239 0.0
C1812 C 0.99205 0.57992 0.73935 0.0
H1813 H 0.01472 0.63117 0.71448 0.0
H1814 H 0.02451 0.60726 0.73848 0.0
C1815 C 0.97069 0.57247 0.73116 0.0
C1816 C 0.41735 0.38552 0.70588 0.0
C1817 C 0.39546 0.3739 0.7129 0.0
H1818 H 0.44778 0.41384 0.71215 0.0
C1819 C 0.38732 0.38277 0.73196 0.0
H1820 H 0.42398 0.37912 0.69104 0.0
C1821 C 0.40114 0.40235 0.745 0.0
C1822 C 0.42332 0.41372 0.73878 0.0
H1823 H 0.37052 0.374 0.73793 0.0
H1824 H 0.3945 0.40802 0.76077 0.0
C1825 C 0.43103 0.40533 0.71832 0.0
C1826 C 0.62089 0.00744 0.71951 0.0
C1827 C 0.63502 0.02894 0.71184 0.0
H1828 H 0.59094 0.98519 0.73882 0.0
C1829 C 0.62863 0.04435 0.71615 0.0
H1830 H 0.62534 0.99519 0.7165 0.0
C1831 C 0.60904 0.03864 0.72893 0.0
C1832 C 0.59529 0.01737 0.73768 0.0
H1833 H 0.63903 0.06102 0.71036 0.0
H1834 H 0.6048 0.05101 0.73234 0.0
C1835 C 0.60117 1.0017 0.73225 0.0
loop_
_geom_bond_atom_site_label_1
_geom_bond_atom_site_label_2
_geom_bond_distance
_geom_bond_site_symmetry_2
_ccdc_geom_bond_type
O0 Cd1 2.223 . S
O0 C8 1.315 . S
Cd1 O0 2.223 . S
Cd1 O4 2.297 . S
Cd1 O5 2.439 . S
Cd1 O11 2.240 1_554 S
Cd2 O3 2.240 . S
Cd2 O10 2.223 1_554 S
Cd2 O12 2.297 1_554 S
Cd2 O13 2.439 1_554 S
O3 Cd2 2.240 . S
O3 C8 1.279 1_655 S
O4 Cd1 2.297 . S
O4 C6 1.247 . S
O5 Cd1 2.439 . S
O5 C6 1.208 . S
C6 O4 1.247 . S
C6 O5 1.208 . S
C7 O12 1.247 . S
C7 O13 1.208 . S
C8 O0 1.315 . S
C8 O3 1.279 1_455 S
C9 O10 1.315 . S
C9 O11 1.279 1_655 S
O10 Cd2 2.223 1_556 S
O10 C9 1.315 . S
O11 Cd1 2.240 1_556 S
O11 C9 1.279 1_455 S
O12 Cd2 2.297 1_556 S
O12 C7 1.247 . S
O13 Cd2 2.439 1_556 S
O13 C7 1.208 . S
O14 Cd15 2.223 . S
O14 C22 1.315 . S
Cd15 O14 2.223 . S
Cd15 O18 2.297 . S
Cd15 O19 2.439 . S
Cd15 O25 2.240 1_554 S
Cd16 O17 2.240 . S
Cd16 O24 2.223 1_554 S
Cd16 O26 2.297 1_554 S
Cd16 O27 2.439 1_554 S
O17 Cd16 2.240 . S
O17 C22 1.279 . S
O18 Cd15 2.297 . S
O18 C20 1.247 . S
O19 Cd15 2.439 . S
O19 C20 1.208 . S
C20 O18 1.247 . S
C20 O19 1.208 . S
C21 O26 1.247 . S
C21 O27 1.208 . S
C22 O14 1.315 . S
C22 O17 1.279 . S
C23 O24 1.315 . S
C23 O25 1.279 . S
O24 Cd16 2.223 1_556 S
O24 C23 1.315 . S
O25 Cd15 2.240 1_556 S
O25 C23 1.279 . S
O26 Cd16 2.297 1_556 S
O26 C21 1.247 . S
O27 Cd16 2.439 1_556 S
O27 C21 1.208 . S
O28 Cd29 2.223 1_556 S
O28 C36 1.315 . S
Cd29 O28 2.223 1_554 S
Cd29 O32 2.297 1_554 S
Cd29 O33 2.439 1_554 S
Cd29 O39 2.240 . S
Cd30 O31 2.240 1_554 S
Cd30 O38 2.223 . S
Cd30 O40 2.297 . S
Cd30 O41 2.439 . S
O31 Cd30 2.240 1_556 S
O31 C36 1.279 1_565 S
O32 Cd29 2.297 1_556 S
O32 C34 1.247 . S
O33 Cd29 2.439 1_556 S
O33 C34 1.208 . S
C34 O32 1.247 . S
C34 O33 1.208 . S
C35 O40 1.247 . S
C35 O41 1.208 . S
C36 O28 1.315 . S
C36 O31 1.279 1_545 S
C37 O38 1.315 . S
C37 O39 1.279 1_565 S
O38 Cd30 2.223 . S
O38 C37 1.315 . S
O39 Cd29 2.240 . S
O39 C37 1.279 1_545 S
O40 Cd30 2.297 . S
O40 C35 1.247 . S
O41 Cd30 2.439 . S
O41 C35 1.208 . S
O42 Cd43 2.223 1_556 S
O42 C50 1.315 . S
Cd43 O42 2.223 1_554 S
Cd43 O46 2.297 1_554 S
Cd43 O47 2.439 1_554 S
Cd43 O53 2.240 . S
Cd44 O45 2.240 1_554 S
Cd44 O52 2.223 . S
Cd44 O54 2.297 . S
Cd44 O55 2.439 . S
O45 Cd44 2.240 1_556 S
O45 C50 1.279 1_455 S
O46 Cd43 2.297 1_556 S
O46 C48 1.247 . S
O47 Cd43 2.439 1_556 S
O47 C48 1.208 . S
C48 O46 1.247 . S
C48 O47 1.208 . S
C49 O54 1.247 . S
C49 O55 1.208 . S
C50 O42 1.315 . S
C50 O45 1.279 1_655 S
C51 O52 1.315 . S
C51 O53 1.279 1_455 S
O52 Cd44 2.223 . S
O52 C51 1.315 . S
O53 Cd43 2.240 . S
O53 C51 1.279 1_655 S
O54 Cd44 2.297 . S
O54 C49 1.247 . S
O55 Cd44 2.439 . S
O55 C49 1.208 . S
O56 Cd57 2.223 1_556 S
O56 C64 1.315 . S
Cd57 O56 2.223 1_554 S
Cd57 O60 2.297 1_554 S
Cd57 O61 2.439 1_554 S
Cd57 O67 2.240 . S
Cd58 O59 2.240 1_554 S
Cd58 O66 2.223 . S
Cd58 O68 2.297 . S
Cd58 O69 2.439 . S
O59 Cd58 2.240 1_556 S
O59 C64 1.279 . S
O60 Cd57 2.297 1_556 S
O60 C62 1.247 . S
O61 Cd57 2.439 1_556 S
O61 C62 1.208 . S
C62 O60 1.247 . S
C62 O61 1.208 . S
C63 O68 1.247 . S
C63 O69 1.208 . S
C64 O56 1.315 . S
C64 O59 1.279 . S
C65 O66 1.315 . S
C65 O67 1.279 . S
O66 Cd58 2.223 . S
O66 C65 1.315 . S
O67 Cd57 2.240 . S
O67 C65 1.279 . S
O68 Cd58 2.297 . S
O68 C63 1.247 . S
O69 Cd58 2.439 . S
O69 C63 1.208 . S
O70 Cd71 2.223 . S
O70 C78 1.315 . S
Cd71 O70 2.223 . S
Cd71 O74 2.297 . S
Cd71 O75 2.439 . S
Cd71 O81 2.240 1_554 S
Cd72 O73 2.240 . S
Cd72 O80 2.223 1_554 S
Cd72 O82 2.297 1_554 S
Cd72 O83 2.439 1_554 S
O73 Cd72 2.240 . S
O73 C78 1.279 1_545 S
O74 Cd71 2.297 . S
O74 C76 1.247 . S
O75 Cd71 2.439 . S
O75 C76 1.208 . S
C76 O74 1.247 . S
C76 O75 1.208 . S
C77 O82 1.247 . S
C77 O83 1.208 . S
C78 O70 1.315 . S
C78 O73 1.279 1_565 S
C79 O80 1.315 . S
C79 O81 1.279 1_545 S
O80 Cd72 2.223 1_556 S
O80 C79 1.315 . S
O81 Cd71 2.240 1_556 S
O81 C79 1.279 1_565 S
O82 Cd72 2.297 1_556 S
O82 C77 1.247 . S
O83 Cd72 2.439 1_556 S
O83 C77 1.208 . S
O84 Cd85 2.223 . S
O84 C92 1.315 . S
Cd85 O84 2.223 . S
Cd85 O88 2.297 . S
Cd85 O89 2.439 . S
Cd85 O95 2.240 . S
Cd86 O87 2.240 . S
Cd86 O94 2.223 . S
Cd86 O96 2.297 . S
Cd86 O97 2.439 . S
O87 Cd86 2.240 . S
O87 C92 1.279 . S
O88 Cd85 2.297 . S
O88 C90 1.247 . S
O89 Cd85 2.439 . S
O89 C90 1.208 . S
C90 O88 1.247 . S
C90 O89 1.208 . S
C91 O96 1.247 . S
C91 O97 1.208 . S
C92 O84 1.315 . S
C92 O87 1.279 . S
C93 O94 1.315 . S
C93 O95 1.279 . S
O94 Cd86 2.223 . S
O94 C93 1.315 . S
O95 Cd85 2.240 . S
O95 C93 1.279 . S
O96 Cd86 2.297 . S
O96 C91 1.247 . S
O97 Cd86 2.439 . S
O97 C91 1.208 . S
O98 Cd99 2.223 . S
O98 C106 1.315 . S
Cd99 O98 2.223 . S
Cd99 O102 2.297 1_565 S
Cd99 O103 2.439 1_565 S
Cd99 O109 2.240 . S
Cd100 O101 2.240 . S
Cd100 O108 2.223 . S
Cd100 O110 2.297 . S
Cd100 O111 2.439 . S
O101 Cd100 2.240 . S
O101 C106 1.279 . S
O102 Cd99 2.297 1_545 S
O102 C104 1.247 . S
O103 Cd99 2.439 1_545 S
O103 C104 1.208 . S
C104 O102 1.247 . S
C104 O103 1.208 . S
C105 O110 1.247 . S
C105 O111 1.208 . S
C106 O98 1.315 . S
C106 O101 1.279 . S
C107 O108 1.315 . S
C107 O109 1.279 . S
O108 Cd100 2.223 . S
O108 C107 1.315 . S
O109 Cd99 2.240 . S
O109 C107 1.279 . S
O110 Cd100 2.297 . S
O110 C105 1.247 . S
O111 Cd100 2.439 . S
O111 C105 1.208 . S
O112 Cd113 2.223 . S
O112 C120 1.315 . S
Cd113 O112 2.223 . S
Cd113 O116 2.297 . S
Cd113 O117 2.439 . S
Cd113 O123 2.240 . S
Cd114 O115 2.240 . S
Cd114 O122 2.223 . S
Cd114 O124 2.297 1_455 S
Cd114 O125 2.439 1_455 S
O115 Cd114 2.240 . S
O115 C120 1.279 . S
O116 Cd113 2.297 . S
O116 C118 1.247 . S
O117 Cd113 2.439 . S
O117 C118 1.208 . S
C118 O116 1.247 . S
C118 O117 1.208 . S
C119 O124 1.247 . S
C119 O125 1.208 . S
C120 O112 1.315 . S
C120 O115 1.279 . S
C121 O122 1.315 . S
C121 O123 1.279 . S
O122 Cd114 2.223 . S
O122 C121 1.315 . S
O123 Cd113 2.240 . S
O123 C121 1.279 . S
O124 Cd114 2.297 1_655 S
O124 C119 1.247 . S
O125 Cd114 2.439 1_655 S
O125 C119 1.208 . S
O126 Cd127 2.223 . S
O126 C134 1.315 . S
Cd127 O126 2.223 . S
Cd127 O130 2.297 . S
Cd127 O131 2.439 . S
Cd127 O137 2.240 . S
Cd128 O129 2.240 . S
Cd128 O136 2.223 . S
Cd128 O138 2.297 1_565 S
Cd128 O139 2.439 1_565 S
O129 Cd128 2.240 . S
O129 C134 1.279 . S
O130 Cd127 2.297 . S
O130 C132 1.247 . S
O131 Cd127 2.439 . S
O131 C132 1.208 . S
C132 O130 1.247 . S
C132 O131 1.208 . S
C133 O138 1.247 . S
C133 O139 1.208 . S
C134 O126 1.315 . S
C134 O129 1.279 . S
C135 O136 1.315 . S
C135 O137 1.279 . S
O136 Cd128 2.223 . S
O136 C135 1.315 . S
O137 Cd127 2.240 . S
O137 C135 1.279 . S
O138 Cd128 2.297 1_545 S
O138 C133 1.247 . S
O139 Cd128 2.439 1_545 S
O139 C133 1.208 . S
O140 Cd141 2.223 . S
O140 C148 1.315 . S
Cd141 O140 2.223 . S
Cd141 O144 2.297 . S
Cd141 O145 2.439 . S
Cd141 O151 2.240 . S
Cd142 O143 2.240 . S
Cd142 O150 2.223 . S
Cd142 O152 2.297 1_455 S
Cd142 O153 2.439 1_455 S
O143 Cd142 2.240 . S
O143 C148 1.279 . S
O144 Cd141 2.297 . S
O144 C146 1.247 . S
O145 Cd141 2.439 . S
O145 C146 1.208 . S
C146 O144 1.247 . S
C146 O145 1.208 . S
C147 O152 1.247 . S
C147 O153 1.208 . S
C148 O140 1.315 . S
C148 O143 1.279 . S
C149 O150 1.315 . S
C149 O151 1.279 . S
O150 Cd142 2.223 . S
O150 C149 1.315 . S
O151 Cd141 2.240 . S
O151 C149 1.279 . S
O152 Cd142 2.297 1_655 S
O152 C147 1.247 . S
O153 Cd142 2.439 1_655 S
O153 C147 1.208 . S
O154 Cd155 2.223 . S
O154 C162 1.315 . S
Cd155 O154 2.223 . S
Cd155 O158 2.297 . S
Cd155 O159 2.439 . S
Cd155 O165 2.240 . S
Cd156 O157 2.240 . S
Cd156 O164 2.223 . S
Cd156 O166 2.297 . S
Cd156 O167 2.439 . S
O157 Cd156 2.240 . S
O157 C162 1.279 . S
O158 Cd155 2.297 . S
O158 C160 1.247 . S
O159 Cd155 2.439 . S
O159 C160 1.208 . S
C160 O158 1.247 . S
C160 O159 1.208 . S
C161 O166 1.247 . S
C161 O167 1.208 . S
C162 O154 1.315 . S
C162 O157 1.279 . S
C163 O164 1.315 . S
C163 O165 1.279 . S
O164 Cd156 2.223 . S
O164 C163 1.315 . S
O165 Cd155 2.240 . S
O165 C163 1.279 . S
O166 Cd156 2.297 . S
O166 C161 1.247 . S
O167 Cd156 2.439 . S
O167 C161 1.208 . S
O168 Cd169 2.223 . S
O168 C176 1.315 . S
Cd169 O168 2.223 . S
Cd169 O172 2.297 . S
Cd169 O173 2.439 . S
Cd169 O179 2.240 . S
Cd170 O171 2.240 . S
Cd170 O178 2.223 . S
Cd170 O180 2.297 1_545 S
Cd170 O181 2.439 1_545 S
O171 Cd170 2.240 . S
O171 C176 1.279 . S
O172 Cd169 2.297 . S
O172 C174 1.247 . S
O173 Cd169 2.439 . S
O173 C174 1.208 . S
C174 O172 1.247 . S
C174 O173 1.208 . S
C175 O180 1.247 . S
C175 O181 1.208 . S
C176 O168 1.315 . S
C176 O171 1.279 . S
C177 O178 1.315 . S
C177 O179 1.279 . S
O178 Cd170 2.223 . S
O178 C177 1.315 . S
O179 Cd169 2.240 . S
O179 C177 1.279 . S
O180 Cd170 2.297 1_565 S
O180 C175 1.247 . S
O181 Cd170 2.439 1_565 S
O181 C175 1.208 . S
O182 Cd183 2.223 . S
O182 C190 1.315 . S
Cd183 O182 2.223 . S
Cd183 O186 2.297 . S
Cd183 O187 2.439 . S
Cd183 O193 2.240 . S
Cd184 O185 2.240 . S
Cd184 O192 2.223 . S
Cd184 O194 2.297 1_655 S
Cd184 O195 2.439 1_655 S
O185 Cd184 2.240 . S
O185 C190 1.279 . S
O186 Cd183 2.297 . S
O186 C188 1.247 . S
O187 Cd183 2.439 . S
O187 C188 1.208 . S
C188 O186 1.247 . S
C188 O187 1.208 . S
C189 O194 1.247 . S
C189 O195 1.208 . S
C190 O182 1.315 . S
C190 O185 1.279 . S
C191 O192 1.315 . S
C191 O193 1.279 . S
O192 Cd184 2.223 . S
O192 C191 1.315 . S
O193 Cd183 2.240 . S
O193 C191 1.279 . S
O194 Cd184 2.297 1_455 S
O194 C189 1.247 . S
O195 Cd184 2.439 1_455 S
O195 C189 1.208 . S
O196 Cd197 2.223 . S
O196 C204 1.315 . S
Cd197 O196 2.223 . S
Cd197 O200 2.297 . S
Cd197 O201 2.439 . S
Cd197 O207 2.240 . S
Cd198 O199 2.240 . S
Cd198 O206 2.223 . S
Cd198 O208 2.297 . S
Cd198 O209 2.439 . S
O199 Cd198 2.240 . S
O199 C204 1.279 . S
O200 Cd197 2.297 . S
O200 C202 1.247 . S
O201 Cd197 2.439 . S
O201 C202 1.208 . S
C202 O200 1.247 . S
C202 O201 1.208 . S
C203 O208 1.247 . S
C203 O209 1.208 . S
C204 O196 1.315 . S
C204 O199 1.279 . S
C205 O206 1.315 . S
C205 O207 1.279 . S
O206 Cd198 2.223 . S
O206 C205 1.315 . S
O207 Cd197 2.240 . S
O207 C205 1.279 . S
O208 Cd198 2.297 . S
O208 C203 1.247 . S
O209 Cd198 2.439 . S
O209 C203 1.208 . S
O210 Cd211 2.223 . S
O210 C218 1.315 . S
Cd211 O210 2.223 . S
Cd211 O214 2.297 . S
Cd211 O215 2.439 . S
Cd211 O221 2.240 . S
Cd212 O213 2.240 . S
Cd212 O220 2.223 . S
Cd212 O222 2.297 . S
Cd212 O223 2.439 . S
O213 Cd212 2.240 . S
O213 C218 1.279 . S
O214 Cd211 2.297 . S
O214 C216 1.247 . S
O215 Cd211 2.439 . S
O215 C216 1.208 . S
C216 O214 1.247 . S
C216 O215 1.208 . S
C217 O222 1.247 . S
C217 O223 1.208 . S
C218 O210 1.315 . S
C218 O213 1.279 . S
C219 O220 1.315 . S
C219 O221 1.279 . S
O220 Cd212 2.223 . S
O220 C219 1.315 . S
O221 Cd211 2.240 . S
O221 C219 1.279 . S
O222 Cd212 2.297 . S
O222 C217 1.247 . S
O223 Cd212 2.439 . S
O223 C217 1.208 . S
O224 Cd225 2.223 . S
O224 C232 1.315 . S
Cd225 O224 2.223 . S
Cd225 O228 2.297 1_545 S
Cd225 O229 2.439 1_545 S
Cd225 O235 2.240 . S
Cd226 O227 2.240 . S
Cd226 O234 2.223 . S
Cd226 O236 2.297 . S
Cd226 O237 2.439 . S
O227 Cd226 2.240 . S
O227 C232 1.279 . S
O228 Cd225 2.297 1_565 S
O228 C230 1.247 . S
O229 Cd225 2.439 1_565 S
O229 C230 1.208 . S
C230 O228 1.247 . S
C230 O229 1.208 . S
C231 O236 1.247 . S
C231 O237 1.208 . S
C232 O224 1.315 . S
C232 O227 1.279 . S
C233 O234 1.315 . S
C233 O235 1.279 . S
O234 Cd226 2.223 . S
O234 C233 1.315 . S
O235 Cd225 2.240 . S
O235 C233 1.279 . S
O236 Cd226 2.297 . S
O236 C231 1.247 . S
O237 Cd226 2.439 . S
O237 C231 1.208 . S
O238 Cd239 2.223 . S
O238 C246 1.315 . S
Cd239 O238 2.223 . S
Cd239 O242 2.297 . S
Cd239 O243 2.439 . S
Cd239 O249 2.240 . S
Cd240 O241 2.240 . S
Cd240 O248 2.223 . S
Cd240 O250 2.297 1_655 S
Cd240 O251 2.439 1_655 S
O241 Cd240 2.240 . S
O241 C246 1.279 . S
O242 Cd239 2.297 . S
O242 C244 1.247 . S
O243 Cd239 2.439 . S
O243 C244 1.208 . S
C244 O242 1.247 . S
C244 O243 1.208 . S
C245 O250 1.247 . S
C245 O251 1.208 . S
C246 O238 1.315 . S
C246 O241 1.279 . S
C247 O248 1.315 . S
C247 O249 1.279 . S
O248 Cd240 2.223 . S
O248 C247 1.315 . S
O249 Cd239 2.240 . S
O249 C247 1.279 . S
O250 Cd240 2.297 1_455 S
O250 C245 1.247 . S
O251 Cd240 2.439 1_455 S
O251 C245 1.208 . S
H252 C271 0.949 . S
H253 C272 0.950 . S
H254 C274 0.950 . S
H255 C275 0.950 . S
H256 C277 0.950 . S
H257 C280 0.950 . S
H258 C281 0.950 . S
H259 C283 0.951 . S
H260 C284 0.949 . S
H261 C286 0.949 . S
H262 C287 0.950 . S
H263 C289 0.950 . S
H264 C290 0.950 . S
H265 C292 0.950 . S
H266 C295 0.950 . S
H267 C296 0.950 . S
H268 C298 0.951 . S
H269 C299 0.949 . S
C270 C271 1.376 . S
C270 C275 1.386 . S
C270 C276 1.483 . S
C271 H252 0.949 . S
C271 C270 1.376 . S
C271 C272 1.397 . S
C272 H253 0.950 . S
C272 C271 1.397 . S
C272 C273 1.391 . S
C273 C272 1.391 . S
C273 C274 1.405 . S
C274 H254 0.950 . S
C274 C273 1.405 . S
C274 C275 1.367 . S
C275 H255 0.950 . S
C275 C270 1.386 . S
C275 C274 1.367 . S
C276 C270 1.483 . S
C276 C277 1.382 . S
C276 C278 1.403 . S
C277 H256 0.950 . S
C277 C276 1.382 . S
C277 C293 1.411 . S
C278 C276 1.403 . S
C278 C279 1.489 . S
C278 C292 1.411 . S
C279 C278 1.489 . S
C279 C280 1.383 . S
C279 C284 1.382 . S
C280 H257 0.950 . S
C280 C279 1.383 . S
C280 C281 1.395 . S
C281 H258 0.950 . S
C281 C280 1.395 . S
C281 C282 1.288 . S
C282 C281 1.288 . S
C282 C283 1.392 . S
C283 H259 0.951 . S
C283 C282 1.392 . S
C283 C284 1.392 . S
C284 H260 0.949 . S
C284 C279 1.382 . S
C284 C283 1.392 . S
C285 C286 1.376 . S
C285 C290 1.386 . S
C285 C291 1.483 . S
C286 H261 0.949 . S
C286 C285 1.376 . S
C286 C287 1.397 . S
C287 H262 0.950 . S
C287 C286 1.397 . S
C287 C288 1.391 . S
C288 C287 1.391 . S
C288 C289 1.405 . S
C289 H263 0.950 . S
C289 C288 1.405 . S
C289 C290 1.367 . S
C290 H264 0.950 . S
C290 C285 1.386 . S
C290 C289 1.367 . S
C291 C285 1.483 . S
C291 C292 1.382 . S
C291 C293 1.403 . S
C292 H265 0.950 . S
C292 C278 1.411 . S
C292 C291 1.382 . S
C293 C277 1.411 . S
C293 C291 1.403 . S
C293 C294 1.489 . S
C294 C293 1.489 . S
C294 C295 1.383 . S
C294 C299 1.382 . S
C295 H266 0.950 . S
C295 C294 1.383 . S
C295 C296 1.395 . S
C296 H267 0.950 . S
C296 C295 1.395 . S
C296 C297 1.288 . S
C297 C296 1.288 . S
C297 C298 1.392 . S
C298 H268 0.951 . S
C298 C297 1.392 . S
C298 C299 1.392 . S
C299 H269 0.949 . S
C299 C294 1.382 . S
C299 C298 1.392 . S
H300 C319 0.949 . S
H301 C320 0.950 . S
H302 C322 0.950 . S
H303 C323 0.950 . S
H304 C325 0.950 . S
H305 C328 0.950 . S
H306 C329 0.950 . S
H307 C331 0.951 . S
H308 C332 0.949 . S
H309 C334 0.949 . S
H310 C335 0.950 . S
H311 C337 0.950 . S
H312 C338 0.950 . S
H313 C340 0.950 . S
H314 C343 0.950 . S
H315 C344 0.950 . S
H316 C346 0.951 . S
H317 C347 0.949 . S
C318 C319 1.376 . S
C318 C323 1.386 . S
C318 C324 1.483 . S
C319 H300 0.949 . S
C319 C318 1.376 . S
C319 C320 1.397 . S
C320 H301 0.950 . S
C320 C319 1.397 . S
C320 C321 1.391 . S
C321 C320 1.391 . S
C321 C322 1.405 . S
C322 H302 0.950 . S
C322 C321 1.405 . S
C322 C323 1.367 . S
C323 H303 0.950 . S
C323 C318 1.386 . S
C323 C322 1.367 . S
C324 C318 1.483 . S
C324 C325 1.382 . S
C324 C326 1.403 . S
C325 H304 0.950 . S
C325 C324 1.382 . S
C325 C341 1.411 . S
C326 C324 1.403 . S
C326 C327 1.489 . S
C326 C340 1.411 . S
C327 C326 1.489 . S
C327 C328 1.383 . S
C327 C332 1.382 . S
C328 H305 0.950 . S
C328 C327 1.383 . S
C328 C329 1.395 . S
C329 H306 0.950 . S
C329 C328 1.395 . S
C329 C330 1.288 . S
C330 C329 1.288 . S
C330 C331 1.392 . S
C331 H307 0.951 . S
C331 C330 1.392 . S
C331 C332 1.392 . S
C332 H308 0.949 . S
C332 C327 1.382 . S
C332 C331 1.392 . S
C333 C334 1.376 . S
C333 C338 1.386 . S
C333 C339 1.483 . S
C334 H309 0.949 . S
C334 C333 1.376 . S
C334 C335 1.397 . S
C335 H310 0.950 . S
C335 C334 1.397 . S
C335 C336 1.391 . S
C336 C335 1.391 . S
C336 C337 1.405 . S
C337 H311 0.950 . S
C337 C336 1.405 . S
C337 C338 1.367 . S
C338 H312 0.950 . S
C338 C333 1.386 . S
C338 C337 1.367 . S
C339 C333 1.483 . S
C339 C340 1.382 . S
C339 C341 1.403 . S
C340 H313 0.950 . S
C340 C326 1.411 . S
C340 C339 1.382 . S
C341 C325 1.411 . S
C341 C339 1.403 . S
C341 C342 1.489 . S
C342 C341 1.489 . S
C342 C343 1.383 . S
C342 C347 1.382 . S
C343 H314 0.950 . S
C343 C342 1.383 . S
C343 C344 1.395 . S
C344 H315 0.950 . S
C344 C343 1.395 . S
C344 C345 1.288 . S
C345 C344 1.288 . S
C345 C346 1.392 . S
C346 H316 0.951 . S
C346 C345 1.392 . S
C346 C347 1.392 . S
C347 H317 0.949 . S
C347 C342 1.382 . S
C347 C346 1.392 . S
H348 C367 0.949 . S
H349 C368 0.950 . S
H350 C370 0.950 . S
H351 C371 0.950 . S
H352 C373 0.950 . S
H353 C376 0.950 . S
H354 C377 0.950 . S
H355 C379 0.951 . S
H356 C380 0.949 . S
H357 C382 0.949 . S
H358 C383 0.950 . S
H359 C385 0.950 . S
H360 C386 0.950 . S
H361 C388 0.950 . S
H362 C391 0.950 . S
H363 C392 0.950 . S
H364 C394 0.951 . S
H365 C395 0.949 . S
C366 C367 1.376 . S
C366 C371 1.386 . S
C366 C372 1.483 . S
C367 H348 0.949 . S
C367 C366 1.376 . S
C367 C368 1.397 . S
C368 H349 0.950 . S
C368 C367 1.397 . S
C368 C369 1.391 . S
C369 C368 1.391 . S
C369 C370 1.405 . S
C370 H350 0.950 . S
C370 C369 1.405 . S
C370 C371 1.367 . S
C371 H351 0.950 . S
C371 C366 1.386 . S
C371 C370 1.367 . S
C372 C366 1.483 . S
C372 C373 1.382 . S
C372 C374 1.403 . S
C373 H352 0.950 . S
C373 C372 1.382 . S
C373 C389 1.411 . S
C374 C372 1.403 . S
C374 C375 1.489 . S
C374 C388 1.411 . S
C375 C374 1.489 . S
C375 C376 1.383 . S
C375 C380 1.382 . S
C376 H353 0.950 . S
C376 C375 1.383 . S
C376 C377 1.395 . S
C377 H354 0.950 . S
C377 C376 1.395 . S
C377 C378 1.288 . S
C378 C377 1.288 . S
C378 C379 1.392 . S
C379 H355 0.951 . S
C379 C378 1.392 . S
C379 C380 1.392 . S
C380 H356 0.949 . S
C380 C375 1.382 . S
C380 C379 1.392 . S
C381 C382 1.376 . S
C381 C386 1.386 . S
C381 C387 1.483 . S
C382 H357 0.949 . S
C382 C381 1.376 . S
C382 C383 1.397 . S
C383 H358 0.950 . S
C383 C382 1.397 . S
C383 C384 1.391 . S
C384 C383 1.391 . S
C384 C385 1.405 . S
C385 H359 0.950 . S
C385 C384 1.405 . S
C385 C386 1.367 . S
C386 H360 0.950 . S
C386 C381 1.386 . S
C386 C385 1.367 . S
C387 C381 1.483 . S
C387 C388 1.382 . S
C387 C389 1.403 . S
C388 H361 0.950 . S
C388 C374 1.411 . S
C388 C387 1.382 . S
C389 C373 1.411 . S
C389 C387 1.403 . S
C389 C390 1.489 . S
C390 C389 1.489 . S
C390 C391 1.383 . S
C390 C395 1.382 . S
C391 H362 0.950 . S
C391 C390 1.383 . S
C391 C392 1.395 . S
C392 H363 0.950 . S
C392 C391 1.395 . S
C392 C393 1.288 . S
C393 C392 1.288 . S
C393 C394 1.392 . S
C394 H364 0.951 . S
C394 C393 1.392 . S
C394 C395 1.392 . S
C395 H365 0.949 . S
C395 C390 1.382 . S
C395 C394 1.392 . S
H396 C415 0.949 . S
H397 C416 0.950 . S
H398 C418 0.950 . S
H399 C419 0.950 . S
H400 C421 0.950 . S
H401 C424 0.950 . S
H402 C425 0.950 . S
H403 C427 0.951 . S
H404 C428 0.949 . S
H405 C430 0.949 . S
H406 C431 0.950 . S
H407 C433 0.950 . S
H408 C434 0.950 . S
H409 C436 0.950 . S
H410 C439 0.950 . S
H411 C440 0.950 . S
H412 C442 0.951 . S
H413 C443 0.949 . S
C414 C415 1.376 . S
C414 C419 1.386 . S
C414 C420 1.483 . S
C415 H396 0.949 . S
C415 C414 1.376 . S
C415 C416 1.397 . S
C416 H397 0.950 . S
C416 C415 1.397 . S
C416 C417 1.391 . S
C417 C416 1.391 . S
C417 C418 1.405 . S
C418 H398 0.950 . S
C418 C417 1.405 . S
C418 C419 1.367 . S
C419 H399 0.950 . S
C419 C414 1.386 . S
C419 C418 1.367 . S
C420 C414 1.483 . S
C420 C421 1.382 . S
C420 C422 1.403 . S
C421 H400 0.950 . S
C421 C420 1.382 . S
C421 C437 1.411 . S
C422 C420 1.403 . S
C422 C423 1.489 . S
C422 C436 1.411 . S
C423 C422 1.489 . S
C423 C424 1.383 . S
C423 C428 1.382 . S
C424 H401 0.950 . S
C424 C423 1.383 . S
C424 C425 1.395 . S
C425 H402 0.950 . S
C425 C424 1.395 . S
C425 C426 1.288 . S
C426 C425 1.288 . S
C426 C427 1.392 . S
C427 H403 0.951 . S
C427 C426 1.392 . S
C427 C428 1.392 . S
C428 H404 0.949 . S
C428 C423 1.382 . S
C428 C427 1.392 . S
C429 C430 1.376 . S
C429 C434 1.386 . S
C429 C435 1.483 . S
C430 H405 0.949 . S
C430 C429 1.376 . S
C430 C431 1.397 . S
C431 H406 0.950 . S
C431 C430 1.397 . S
C431 C432 1.391 . S
C432 C431 1.391 . S
C432 C433 1.405 . S
C433 H407 0.950 . S
C433 C432 1.405 . S
C433 C434 1.367 . S
C434 H408 0.950 . S
C434 C429 1.386 . S
C434 C433 1.367 . S
C435 C429 1.483 . S
C435 C436 1.382 . S
C435 C437 1.403 . S
C436 H409 0.950 . S
C436 C422 1.411 . S
C436 C435 1.382 . S
C437 C421 1.411 . S
C437 C435 1.403 . S
C437 C438 1.489 . S
C438 C437 1.489 . S
C438 C439 1.383 . S
C438 C443 1.382 . S
C439 H410 0.950 . S
C439 C438 1.383 . S
C439 C440 1.395 . S
C440 H411 0.950 . S
C440 C439 1.395 . S
C440 C441 1.288 . S
C441 C440 1.288 . S
C441 C442 1.392 . S
C442 H412 0.951 . S
C442 C441 1.392 . S
C442 C443 1.392 . S
C443 H413 0.949 . S
C443 C438 1.382 . S
C443 C442 1.392 . S
H444 C463 0.949 . S
H445 C464 0.950 . S
H446 C466 0.950 . S
H447 C467 0.950 . S
H448 C469 0.950 . S
H449 C472 0.950 . S
H450 C473 0.950 . S
H451 C475 0.951 . S
H452 C476 0.949 . S
H453 C478 0.949 . S
H454 C479 0.950 . S
H455 C481 0.950 . S
H456 C482 0.950 . S
H457 C484 0.950 . S
H458 C487 0.950 . S
H459 C488 0.950 . S
H460 C490 0.951 . S
H461 C491 0.949 . S
C462 C463 1.376 . S
C462 C467 1.386 . S
C462 C468 1.483 . S
C463 H444 0.949 . S
C463 C462 1.376 . S
C463 C464 1.397 . S
C464 H445 0.950 . S
C464 C463 1.397 . S
C464 C465 1.391 . S
C465 C464 1.391 . S
C465 C466 1.405 . S
C466 H446 0.950 . S
C466 C465 1.405 . S
C466 C467 1.367 . S
C467 H447 0.950 . S
C467 C462 1.386 . S
C467 C466 1.367 . S
C468 C462 1.483 . S
C468 C469 1.382 . S
C468 C470 1.403 . S
C469 H448 0.950 . S
C469 C468 1.382 . S
C469 C485 1.411 . S
C470 C468 1.403 . S
C470 C471 1.489 . S
C470 C484 1.411 . S
C471 C470 1.489 . S
C471 C472 1.383 . S
C471 C476 1.382 . S
C472 H449 0.950 . S
C472 C471 1.383 . S
C472 C473 1.395 . S
C473 H450 0.950 . S
C473 C472 1.395 . S
C473 C474 1.288 . S
C474 C473 1.288 . S
C474 C475 1.392 . S
C475 H451 0.951 . S
C475 C474 1.392 . S
C475 C476 1.392 . S
C476 H452 0.949 . S
C476 C471 1.382 . S
C476 C475 1.392 . S
C477 C478 1.376 . S
C477 C482 1.386 . S
C477 C483 1.483 . S
C478 H453 0.949 . S
C478 C477 1.376 . S
C478 C479 1.397 . S
C479 H454 0.950 . S
C479 C478 1.397 . S
C479 C480 1.391 . S
C480 C479 1.391 . S
C480 C481 1.405 . S
C481 H455 0.950 . S
C481 C480 1.405 . S
C481 C482 1.367 . S
C482 H456 0.950 . S
C482 C477 1.386 . S
C482 C481 1.367 . S
C483 C477 1.483 . S
C483 C484 1.382 . S
C483 C485 1.403 . S
C484 H457 0.950 . S
C484 C470 1.411 . S
C484 C483 1.382 . S
C485 C469 1.411 . S
C485 C483 1.403 . S
C485 C486 1.489 . S
C486 C485 1.489 . S
C486 C487 1.383 . S
C486 C491 1.382 . S
C487 H458 0.950 . S
C487 C486 1.383 . S
C487 C488 1.395 . S
C488 H459 0.950 . S
C488 C487 1.395 . S
C488 C489 1.288 . S
C489 C488 1.288 . S
C489 C490 1.392 . S
C490 H460 0.951 . S
C490 C489 1.392 . S
C490 C491 1.392 . S
C491 H461 0.949 . S
C491 C486 1.382 . S
C491 C490 1.392 . S
H492 C511 0.949 . S
H493 C512 0.950 . S
H494 C514 0.950 . S
H495 C515 0.950 . S
H496 C517 0.950 . S
H497 C520 0.950 . S
H498 C521 0.950 . S
H499 C523 0.951 . S
H500 C524 0.949 . S
H501 C526 0.949 . S
H502 C527 0.950 . S
H503 C529 0.950 . S
H504 C530 0.950 . S
H505 C532 0.950 . S
H506 C535 0.950 . S
H507 C536 0.950 . S
H508 C538 0.951 . S
H509 C539 0.949 . S
C510 C511 1.376 . S
C510 C515 1.386 . S
C510 C516 1.483 . S
C511 H492 0.949 . S
C511 C510 1.376 . S
C511 C512 1.397 . S
C512 H493 0.950 . S
C512 C511 1.397 . S
C512 C513 1.391 . S
C513 C512 1.391 . S
C513 C514 1.405 . S
C514 H494 0.950 . S
C514 C513 1.405 . S
C514 C515 1.367 . S
C515 H495 0.950 . S
C515 C510 1.386 . S
C515 C514 1.367 . S
C516 C510 1.483 . S
C516 C517 1.382 . S
C516 C518 1.403 . S
C517 H496 0.950 . S
C517 C516 1.382 . S
C517 C533 1.411 . S
C518 C516 1.403 . S
C518 C519 1.489 . S
C518 C532 1.411 . S
C519 C518 1.489 . S
C519 C520 1.383 . S
C519 C524 1.382 . S
C520 H497 0.950 . S
C520 C519 1.383 . S
C520 C521 1.395 . S
C521 H498 0.950 . S
C521 C520 1.395 . S
C521 C522 1.288 . S
C522 C521 1.288 . S
C522 C523 1.392 . S
C523 H499 0.951 . S
C523 C522 1.392 . S
C523 C524 1.392 . S
C524 H500 0.949 . S
C524 C519 1.382 . S
C524 C523 1.392 . S
C525 C526 1.376 . S
C525 C530 1.386 . S
C525 C531 1.483 . S
C526 H501 0.949 . S
C526 C525 1.376 . S
C526 C527 1.397 . S
C527 H502 0.950 . S
C527 C526 1.397 . S
C527 C528 1.391 . S
C528 C527 1.391 . S
C528 C529 1.405 . S
C529 H503 0.950 . S
C529 C528 1.405 . S
C529 C530 1.367 . S
C530 H504 0.950 . S
C530 C525 1.386 . S
C530 C529 1.367 . S
C531 C525 1.483 . S
C531 C532 1.382 . S
C531 C533 1.403 . S
C532 H505 0.950 . S
C532 C518 1.411 . S
C532 C531 1.382 . S
C533 C517 1.411 . S
C533 C531 1.403 . S
C533 C534 1.489 . S
C534 C533 1.489 . S
C534 C535 1.383 . S
C534 C539 1.382 . S
C535 H506 0.950 . S
C535 C534 1.383 . S
C535 C536 1.395 . S
C536 H507 0.950 . S
C536 C535 1.395 . S
C536 C537 1.288 . S
C537 C536 1.288 . S
C537 C538 1.392 . S
C538 H508 0.951 . S
C538 C537 1.392 . S
C538 C539 1.392 . S
C539 H509 0.949 . S
C539 C534 1.382 . S
C539 C538 1.392 . S
H540 C559 0.949 . S
H541 C560 0.950 . S
H542 C562 0.950 . S
H543 C563 0.950 . S
H544 C565 0.950 . S
H545 C568 0.950 . S
H546 C569 0.950 . S
H547 C571 0.951 . S
H548 C572 0.949 . S
H549 C574 0.949 . S
H550 C575 0.950 . S
H551 C577 0.950 . S
H552 C578 0.950 . S
H553 C580 0.950 . S
H554 C583 0.950 . S
H555 C584 0.950 . S
H556 C586 0.951 . S
H557 C587 0.949 . S
C558 C559 1.376 . S
C558 C563 1.386 . S
C558 C564 1.483 . S
C559 H540 0.949 . S
C559 C558 1.376 . S
C559 C560 1.397 . S
C560 H541 0.950 . S
C560 C559 1.397 . S
C560 C561 1.391 . S
C561 C560 1.391 . S
C561 C562 1.405 . S
C562 H542 0.950 . S
C562 C561 1.405 . S
C562 C563 1.367 . S
C563 H543 0.950 . S
C563 C558 1.386 . S
C563 C562 1.367 . S
C564 C558 1.483 . S
C564 C565 1.382 . S
C564 C566 1.403 . S
C565 H544 0.950 . S
C565 C564 1.382 . S
C565 C581 1.411 . S
C566 C564 1.403 . S
C566 C567 1.489 . S
C566 C580 1.411 . S
C567 C566 1.489 . S
C567 C568 1.383 . S
C567 C572 1.382 . S
C568 H545 0.950 . S
C568 C567 1.383 . S
C568 C569 1.395 . S
C569 H546 0.950 . S
C569 C568 1.395 . S
C569 C570 1.288 . S
C570 C569 1.288 . S
C570 C571 1.392 . S
C571 H547 0.951 . S
C571 C570 1.392 . S
C571 C572 1.392 . S
C572 H548 0.949 . S
C572 C567 1.382 . S
C572 C571 1.392 . S
C573 C574 1.376 . S
C573 C578 1.386 . S
C573 C579 1.483 . S
C574 H549 0.949 . S
C574 C573 1.376 . S
C574 C575 1.397 . S
C575 H550 0.950 . S
C575 C574 1.397 . S
C575 C576 1.391 . S
C576 C575 1.391 . S
C576 C577 1.405 . S
C577 H551 0.950 . S
C577 C576 1.405 . S
C577 C578 1.367 . S
C578 H552 0.950 . S
C578 C573 1.386 . S
C578 C577 1.367 . S
C579 C573 1.483 . S
C579 C580 1.382 . S
C579 C581 1.403 . S
C580 H553 0.950 . S
C580 C566 1.411 . S
C580 C579 1.382 . S
C581 C565 1.411 . S
C581 C579 1.403 . S
C581 C582 1.489 . S
C582 C581 1.489 . S
C582 C583 1.383 . S
C582 C587 1.382 . S
C583 H554 0.950 . S
C583 C582 1.383 . S
C583 C584 1.395 . S
C584 H555 0.950 . S
C584 C583 1.395 . S
C584 C585 1.288 . S
C585 C584 1.288 . S
C585 C586 1.392 . S
C586 H556 0.951 . S
C586 C585 1.392 . S
C586 C587 1.392 . S
C587 H557 0.949 . S
C587 C582 1.382 . S
C587 C586 1.392 . S
H588 C607 0.949 . S
H589 C608 0.950 . S
H590 C610 0.950 . S
H591 C611 0.950 . S
H592 C613 0.950 . S
H593 C616 0.950 . S
H594 C617 0.950 . S
H595 C619 0.951 . S
H596 C620 0.949 . S
H597 C622 0.949 . S
H598 C623 0.950 . S
H599 C625 0.950 . S
H600 C626 0.950 . S
H601 C628 0.950 . S
H602 C631 0.950 . S
H603 C632 0.950 . S
H604 C634 0.951 . S
H605 C635 0.949 . S
C606 C607 1.376 . S
C606 C611 1.386 . S
C606 C612 1.483 . S
C607 H588 0.949 . S
C607 C606 1.376 . S
C607 C608 1.397 . S
C608 H589 0.950 . S
C608 C607 1.397 . S
C608 C609 1.391 . S
C609 C608 1.391 . S
C609 C610 1.405 . S
C610 H590 0.950 . S
C610 C609 1.405 . S
C610 C611 1.367 . S
C611 H591 0.950 . S
C611 C606 1.386 . S
C611 C610 1.367 . S
C612 C606 1.483 . S
C612 C613 1.382 . S
C612 C614 1.403 . S
C613 H592 0.950 . S
C613 C612 1.382 . S
C613 C629 1.411 . S
C614 C612 1.403 . S
C614 C615 1.489 . S
C614 C628 1.411 . S
C615 C614 1.489 . S
C615 C616 1.383 . S
C615 C620 1.382 . S
C616 H593 0.950 . S
C616 C615 1.383 . S
C616 C617 1.395 . S
C617 H594 0.950 . S
C617 C616 1.395 . S
C617 C618 1.288 . S
C618 C617 1.288 . S
C618 C619 1.392 . S
C619 H595 0.951 . S
C619 C618 1.392 . S
C619 C620 1.392 . S
C620 H596 0.949 . S
C620 C615 1.382 . S
C620 C619 1.392 . S
C621 C622 1.376 . S
C621 C626 1.386 . S
C621 C627 1.483 . S
C622 H597 0.949 . S
C622 C621 1.376 . S
C622 C623 1.397 . S
C623 H598 0.950 . S
C623 C622 1.397 . S
C623 C624 1.391 . S
C624 C623 1.391 . S
C624 C625 1.405 . S
C625 H599 0.950 . S
C625 C624 1.405 . S
C625 C626 1.367 . S
C626 H600 0.950 . S
C626 C621 1.386 . S
C626 C625 1.367 . S
C627 C621 1.483 . S
C627 C628 1.382 . S
C627 C629 1.403 . S
C628 H601 0.950 . S
C628 C614 1.411 . S
C628 C627 1.382 . S
C629 C613 1.411 . S
C629 C627 1.403 . S
C629 C630 1.489 . S
C630 C629 1.489 . S
C630 C631 1.383 . S
C630 C635 1.382 . S
C631 H602 0.950 . S
C631 C630 1.383 . S
C631 C632 1.395 . S
C632 H603 0.950 . S
C632 C631 1.395 . S
C632 C633 1.288 . S
C633 C632 1.288 . S
C633 C634 1.392 . S
C634 H604 0.951 . S
C634 C633 1.392 . S
C634 C635 1.392 . S
C635 H605 0.949 . S
C635 C630 1.382 . S
C635 C634 1.392 . S
H636 C655 0.949 . S
H637 C656 0.950 . S
H638 C658 0.950 . S
H639 C659 0.950 . S
H640 C661 0.950 . S
H641 C664 0.950 . S
H642 C665 0.950 . S
H643 C667 0.951 . S
H644 C668 0.949 . S
H645 C670 0.949 . S
H646 C671 0.950 . S
H647 C673 0.950 . S
H648 C674 0.950 . S
H649 C676 0.950 . S
H650 C679 0.950 . S
H651 C680 0.950 . S
H652 C682 0.951 . S
H653 C683 0.949 . S
C654 C655 1.376 . S
C654 C659 1.386 . S
C654 C660 1.483 . S
C655 H636 0.949 . S
C655 C654 1.376 . S
C655 C656 1.397 . S
C656 H637 0.950 . S
C656 C655 1.397 . S
C656 C657 1.391 . S
C657 C656 1.391 . S
C657 C658 1.405 . S
C658 H638 0.950 . S
C658 C657 1.405 . S
C658 C659 1.367 . S
C659 H639 0.950 . S
C659 C654 1.386 . S
C659 C658 1.367 . S
C660 C654 1.483 . S
C660 C661 1.382 . S
C660 C662 1.403 . S
C661 H640 0.950 . S
C661 C660 1.382 . S
C661 C677 1.411 . S
C662 C660 1.403 . S
C662 C663 1.489 . S
C662 C676 1.411 . S
C663 C662 1.489 . S
C663 C664 1.383 . S
C663 C668 1.382 . S
C664 H641 0.950 . S
C664 C663 1.383 . S
C664 C665 1.395 . S
C665 H642 0.950 . S
C665 C664 1.395 . S
C665 C666 1.288 . S
C666 C665 1.288 . S
C666 C667 1.392 . S
C667 H643 0.951 . S
C667 C666 1.392 . S
C667 C668 1.392 . S
C668 H644 0.949 . S
C668 C663 1.382 . S
C668 C667 1.392 . S
C669 C670 1.376 . S
C669 C674 1.386 . S
C669 C675 1.483 . S
C670 H645 0.949 . S
C670 C669 1.376 . S
C670 C671 1.397 . S
C671 H646 0.950 . S
C671 C670 1.397 . S
C671 C672 1.391 . S
C672 C671 1.391 . S
C672 C673 1.405 . S
C673 H647 0.950 . S
C673 C672 1.405 . S
C673 C674 1.367 . S
C674 H648 0.950 . S
C674 C669 1.386 . S
C674 C673 1.367 . S
C675 C669 1.483 . S
C675 C676 1.382 . S
C675 C677 1.403 . S
C676 H649 0.950 . S
C676 C662 1.411 . S
C676 C675 1.382 . S
C677 C661 1.411 . S
C677 C675 1.403 . S
C677 C678 1.489 . S
C678 C677 1.489 . S
C678 C679 1.383 . S
C678 C683 1.382 . S
C679 H650 0.950 . S
C679 C678 1.383 . S
C679 C680 1.395 . S
C680 H651 0.950 . S
C680 C679 1.395 . S
C680 C681 1.288 . S
C681 C680 1.288 . S
C681 C682 1.392 . S
C682 H652 0.951 . S
C682 C681 1.392 . S
C682 C683 1.392 . S
C683 H653 0.949 . S
C683 C678 1.382 . S
C683 C682 1.392 . S
H684 C703 0.949 . S
H685 C704 0.950 . S
H686 C706 0.950 . S
H687 C707 0.950 . S
H688 C709 0.950 . S
H689 C712 0.950 . S
H690 C713 0.950 . S
H691 C715 0.951 . S
H692 C716 0.949 . S
H693 C718 0.949 . S
H694 C719 0.950 . S
H695 C721 0.950 . S
H696 C722 0.950 . S
H697 C724 0.950 . S
H698 C727 0.950 . S
H699 C728 0.950 . S
H700 C730 0.951 . S
H701 C731 0.949 . S
C702 C703 1.376 . S
C702 C707 1.386 1_655 S
C702 C708 1.483 . S
C703 H684 0.949 . S
C703 C702 1.376 . S
C703 C704 1.397 . S
C704 H685 0.950 . S
C704 C703 1.397 . S
C704 C705 1.391 . S
C705 C704 1.391 . S
C705 C706 1.405 1_655 S
C706 H686 0.950 . S
C706 C705 1.405 1_455 S
C706 C707 1.367 . S
C707 H687 0.950 . S
C707 C702 1.386 1_455 S
C707 C706 1.367 . S
C708 C702 1.483 . S
C708 C709 1.382 . S
C708 C710 1.403 1_655 S
C709 H688 0.950 . S
C709 C708 1.382 . S
C709 C725 1.411 . S
C710 C708 1.403 1_455 S
C710 C711 1.489 . S
C710 C724 1.411 . S
C711 C710 1.489 . S
C711 C712 1.383 1_455 S
C711 C716 1.382 . S
C712 H689 0.950 . S
C712 C711 1.383 1_655 S
C712 C713 1.395 . S
C713 H690 0.950 . S
C713 C712 1.395 . S
C713 C714 1.288 1_655 S
C714 C713 1.288 1_455 S
C714 C715 1.392 . S
C715 H691 0.951 . S
C715 C714 1.392 . S
C715 C716 1.392 . S
C716 H692 0.949 . S
C716 C711 1.382 . S
C716 C715 1.392 . S
C717 C718 1.376 . S
C717 C722 1.386 1_455 S
C717 C723 1.483 . S
C718 H693 0.949 . S
C718 C717 1.376 . S
C718 C719 1.397 . S
C719 H694 0.950 . S
C719 C718 1.397 . S
C719 C720 1.391 . S
C720 C719 1.391 . S
C720 C721 1.405 1_455 S
C721 H695 0.950 . S
C721 C720 1.405 1_655 S
C721 C722 1.367 . S
C722 H696 0.950 . S
C722 C717 1.386 1_655 S
C722 C721 1.367 . S
C723 C717 1.483 . S
C723 C724 1.382 . S
C723 C725 1.403 1_455 S
C724 H697 0.950 . S
C724 C710 1.411 . S
C724 C723 1.382 . S
C725 C709 1.411 . S
C725 C723 1.403 1_655 S
C725 C726 1.489 . S
C726 C725 1.489 . S
C726 C727 1.383 1_655 S
C726 C731 1.382 . S
C727 H698 0.950 . S
C727 C726 1.383 1_455 S
C727 C728 1.395 . S
C728 H699 0.950 . S
C728 C727 1.395 . S
C728 C729 1.288 1_455 S
C729 C728 1.288 1_655 S
C729 C730 1.392 . S
C730 H700 0.951 . S
C730 C729 1.392 . S
C730 C731 1.392 . S
C731 H701 0.949 . S
C731 C726 1.382 . S
C731 C730 1.392 . S
H732 C751 0.949 . S
H733 C752 0.950 . S
H734 C754 0.950 . S
H735 C755 0.950 . S
H736 C757 0.950 . S
H737 C760 0.950 . S
H738 C761 0.950 . S
H739 C763 0.951 . S
H740 C764 0.949 . S
H741 C766 0.949 . S
H742 C767 0.950 . S
H743 C769 0.950 . S
H744 C770 0.950 . S
H745 C772 0.950 . S
H746 C775 0.950 . S
H747 C776 0.950 . S
H748 C778 0.951 . S
H749 C779 0.949 . S
C750 C751 1.376 . S
C750 C755 1.386 . S
C750 C756 1.483 . S
C751 H732 0.949 . S
C751 C750 1.376 . S
C751 C752 1.397 . S
C752 H733 0.950 . S
C752 C751 1.397 . S
C752 C753 1.391 . S
C753 C752 1.391 . S
C753 C754 1.405 . S
C754 H734 0.950 . S
C754 C753 1.405 . S
C754 C755 1.367 . S
C755 H735 0.950 . S
C755 C750 1.386 . S
C755 C754 1.367 . S
C756 C750 1.483 . S
C756 C757 1.382 . S
C756 C758 1.403 . S
C757 H736 0.950 . S
C757 C756 1.382 . S
C757 C773 1.411 . S
C758 C756 1.403 . S
C758 C759 1.489 . S
C758 C772 1.411 . S
C759 C758 1.489 . S
C759 C760 1.383 . S
C759 C764 1.382 . S
C760 H737 0.950 . S
C760 C759 1.383 . S
C760 C761 1.395 . S
C761 H738 0.950 . S
C761 C760 1.395 . S
C761 C762 1.288 . S
C762 C761 1.288 . S
C762 C763 1.392 . S
C763 H739 0.951 . S
C763 C762 1.392 . S
C763 C764 1.392 . S
C764 H740 0.949 . S
C764 C759 1.382 . S
C764 C763 1.392 . S
C765 C766 1.376 . S
C765 C770 1.386 . S
C765 C771 1.483 . S
C766 H741 0.949 . S
C766 C765 1.376 . S
C766 C767 1.397 . S
C767 H742 0.950 . S
C767 C766 1.397 . S
C767 C768 1.391 . S
C768 C767 1.391 . S
C768 C769 1.405 . S
C769 H743 0.950 . S
C769 C768 1.405 . S
C769 C770 1.367 . S
C770 H744 0.950 . S
C770 C765 1.386 . S
C770 C769 1.367 . S
C771 C765 1.483 . S
C771 C772 1.382 . S
C771 C773 1.403 . S
C772 H745 0.950 . S
C772 C758 1.411 . S
C772 C771 1.382 . S
C773 C757 1.411 . S
C773 C771 1.403 . S
C773 C774 1.489 . S
C774 C773 1.489 . S
C774 C775 1.383 . S
C774 C779 1.382 . S
C775 H746 0.950 . S
C775 C774 1.383 . S
C775 C776 1.395 . S
C776 H747 0.950 . S
C776 C775 1.395 . S
C776 C777 1.288 . S
C777 C776 1.288 . S
C777 C778 1.392 . S
C778 H748 0.951 . S
C778 C777 1.392 . S
C778 C779 1.392 . S
C779 H749 0.949 . S
C779 C774 1.382 . S
C779 C778 1.392 . S
H780 C799 0.949 . S
H781 C800 0.950 . S
H782 C802 0.950 . S
H783 C803 0.950 . S
H784 C805 0.950 . S
H785 C808 0.950 . S
H786 C809 0.950 . S
H787 C811 0.951 . S
H788 C812 0.949 . S
H789 C814 0.949 . S
H790 C815 0.950 . S
H791 C817 0.950 . S
H792 C818 0.950 . S
H793 C820 0.950 . S
H794 C823 0.950 . S
H795 C824 0.950 . S
H796 C826 0.951 . S
H797 C827 0.949 . S
C798 C799 1.376 . S
C798 C803 1.386 1_545 S
C798 C804 1.483 . S
C799 H780 0.949 . S
C799 C798 1.376 . S
C799 C800 1.397 . S
C800 H781 0.950 . S
C800 C799 1.397 . S
C800 C801 1.391 . S
C801 C800 1.391 . S
C801 C802 1.405 1_545 S
C802 H782 0.950 . S
C802 C801 1.405 1_565 S
C802 C803 1.367 . S
C803 H783 0.950 . S
C803 C798 1.386 1_565 S
C803 C802 1.367 . S
C804 C798 1.483 . S
C804 C805 1.382 . S
C804 C806 1.403 1_545 S
C805 H784 0.950 . S
C805 C804 1.382 . S
C805 C821 1.411 . S
C806 C804 1.403 1_565 S
C806 C807 1.489 . S
C806 C820 1.411 . S
C807 C806 1.489 . S
C807 C808 1.383 1_565 S
C807 C812 1.382 . S
C808 H785 0.950 . S
C808 C807 1.383 1_545 S
C808 C809 1.395 . S
C809 H786 0.950 . S
C809 C808 1.395 . S
C809 C810 1.288 1_545 S
C810 C809 1.288 1_565 S
C810 C811 1.392 . S
C811 H787 0.951 . S
C811 C810 1.392 . S
C811 C812 1.392 . S
C812 H788 0.949 . S
C812 C807 1.382 . S
C812 C811 1.392 . S
C813 C814 1.376 . S
C813 C818 1.386 1_565 S
C813 C819 1.483 . S
C814 H789 0.949 . S
C814 C813 1.376 . S
C814 C815 1.397 . S
C815 H790 0.950 . S
C815 C814 1.397 . S
C815 C816 1.391 . S
C816 C815 1.391 . S
C816 C817 1.405 1_565 S
C817 H791 0.950 . S
C817 C816 1.405 1_545 S
C817 C818 1.367 . S
C818 H792 0.950 . S
C818 C813 1.386 1_545 S
C818 C817 1.367 . S
C819 C813 1.483 . S
C819 C820 1.382 . S
C819 C821 1.403 1_565 S
C820 H793 0.950 . S
C820 C806 1.411 . S
C820 C819 1.382 . S
C821 C805 1.411 . S
C821 C819 1.403 1_545 S
C821 C822 1.489 . S
C822 C821 1.489 . S
C822 C823 1.383 1_545 S
C822 C827 1.382 . S
C823 H794 0.950 . S
C823 C822 1.383 1_565 S
C823 C824 1.395 . S
C824 H795 0.950 . S
C824 C823 1.395 . S
C824 C825 1.288 1_565 S
C825 C824 1.288 1_545 S
C825 C826 1.392 . S
C826 H796 0.951 . S
C826 C825 1.392 . S
C826 C827 1.392 . S
C827 H797 0.949 . S
C827 C822 1.382 . S
C827 C826 1.392 . S
H828 C847 0.949 . S
H829 C848 0.950 . S
H830 C850 0.950 . S
H831 C851 0.950 . S
H832 C853 0.950 . S
H833 C856 0.950 . S
H834 C857 0.950 . S
H835 C859 0.951 . S
H836 C860 0.949 . S
H837 C862 0.949 . S
H838 C863 0.950 . S
H839 C865 0.950 . S
H840 C866 0.950 . S
H841 C868 0.950 . S
H842 C871 0.950 . S
H843 C872 0.950 . S
H844 C874 0.951 . S
H845 C875 0.949 . S
C846 C847 1.383 . S
C846 C851 1.383 1_545 S
C846 C852 1.504 . S
C847 H828 0.949 . S
C847 C846 1.383 . S
C847 C848 1.397 . S
C848 H829 0.950 . S
C848 C847 1.397 . S
C848 C849 1.391 1_545 S
C849 C848 1.391 1_565 S
C849 C850 1.405 . S
C850 H830 0.950 . S
C850 C849 1.405 . S
C850 C851 1.367 . S
C851 H831 0.950 . S
C851 C846 1.383 1_565 S
C851 C850 1.367 . S
C852 C846 1.504 . S
C852 C853 1.359 . S
C852 C854 1.398 1_545 S
C853 H832 0.950 . S
C853 C852 1.359 . S
C853 C869 1.411 . S
C854 C852 1.398 1_565 S
C854 C855 1.485 . S
C854 C868 1.438 . S
C855 C854 1.485 . S
C855 C856 1.341 1_565 S
C855 C860 1.405 . S
C856 H833 0.950 . S
C856 C855 1.341 1_545 S
C856 C857 1.395 . S
C857 H834 0.950 . S
C857 C856 1.395 . S
C857 C858 1.288 . S
C858 C857 1.288 . S
C858 C859 1.392 1_545 S
C859 H835 0.951 . S
C859 C858 1.392 1_565 S
C859 C860 1.392 . S
C860 H836 0.949 . S
C860 C855 1.405 . S
C860 C859 1.392 . S
C861 C862 1.372 . S
C861 C866 1.388 1_565 S
C861 C867 1.504 . S
C862 H837 0.949 . S
C862 C861 1.372 . S
C862 C863 1.397 . S
C863 H838 0.950 . S
C863 C862 1.397 . S
C863 C864 1.391 1_565 S
C864 C863 1.391 1_545 S
C864 C865 1.405 . S
C865 H839 0.950 . S
C865 C864 1.405 . S
C865 C866 1.367 . S
C866 H840 0.950 . S
C866 C861 1.388 1_545 S
C866 C865 1.367 . S
C867 C861 1.504 . S
C867 C868 1.364 . S
C867 C869 1.400 1_565 S
C868 H841 0.950 . S
C868 C854 1.438 . S
C868 C867 1.364 . S
C869 C853 1.411 . S
C869 C867 1.400 1_545 S
C869 C870 1.514 . S
C870 C869 1.514 . S
C870 C871 1.328 1_545 S
C870 C875 1.413 . S
C871 H842 0.950 . S
C871 C870 1.328 1_565 S
C871 C872 1.395 . S
C872 H843 0.950 . S
C872 C871 1.395 . S
C872 C873 1.288 . S
C873 C872 1.288 . S
C873 C874 1.392 1_565 S
C874 H844 0.951 . S
C874 C873 1.392 1_545 S
C874 C875 1.392 . S
C875 H845 0.949 . S
C875 C870 1.413 . S
C875 C874 1.392 . S
H876 C895 0.949 . S
H877 C896 0.950 . S
H878 C898 0.950 . S
H879 C899 0.950 . S
H880 C901 0.950 . S
H881 C904 0.950 . S
H882 C905 0.950 . S
H883 C907 0.951 . S
H884 C908 0.949 . S
H885 C910 0.949 . S
H886 C911 0.950 . S
H887 C913 0.950 . S
H888 C914 0.950 . S
H889 C916 0.950 . S
H890 C919 0.950 . S
H891 C920 0.950 . S
H892 C922 0.951 . S
H893 C923 0.949 . S
C894 C895 1.376 . S
C894 C899 1.386 1_455 S
C894 C900 1.483 . S
C895 H876 0.949 . S
C895 C894 1.376 . S
C895 C896 1.397 . S
C896 H877 0.950 . S
C896 C895 1.397 . S
C896 C897 1.391 . S
C897 C896 1.391 . S
C897 C898 1.405 1_455 S
C898 H878 0.950 . S
C898 C897 1.405 1_655 S
C898 C899 1.367 . S
C899 H879 0.950 . S
C899 C894 1.386 1_655 S
C899 C898 1.367 . S
C900 C894 1.483 . S
C900 C901 1.382 . S
C900 C902 1.403 1_455 S
C901 H880 0.950 . S
C901 C900 1.382 . S
C901 C917 1.411 . S
C902 C900 1.403 1_655 S
C902 C903 1.489 . S
C902 C916 1.411 . S
C903 C902 1.489 . S
C903 C904 1.383 1_655 S
C903 C908 1.382 . S
C904 H881 0.950 . S
C904 C903 1.383 1_455 S
C904 C905 1.395 . S
C905 H882 0.950 . S
C905 C904 1.395 . S
C905 C906 1.288 1_455 S
C906 C905 1.288 1_655 S
C906 C907 1.392 . S
C907 H883 0.951 . S
C907 C906 1.392 . S
C907 C908 1.392 . S
C908 H884 0.949 . S
C908 C903 1.382 . S
C908 C907 1.392 . S
C909 C910 1.376 . S
C909 C914 1.386 1_655 S
C909 C915 1.483 . S
C910 H885 0.949 . S
C910 C909 1.376 . S
C910 C911 1.397 . S
C911 H886 0.950 . S
C911 C910 1.397 . S
C911 C912 1.391 . S
C912 C911 1.391 . S
C912 C913 1.405 1_655 S
C913 H887 0.950 . S
C913 C912 1.405 1_455 S
C913 C914 1.367 . S
C914 H888 0.950 . S
C914 C909 1.386 1_455 S
C914 C913 1.367 . S
C915 C909 1.483 . S
C915 C916 1.382 . S
C915 C917 1.403 1_655 S
C916 H889 0.950 . S
C916 C902 1.411 . S
C916 C915 1.382 . S
C917 C901 1.411 . S
C917 C915 1.403 1_455 S
C917 C918 1.489 . S
C918 C917 1.489 . S
C918 C919 1.383 1_455 S
C918 C923 1.382 . S
C919 H890 0.950 . S
C919 C918 1.383 1_655 S
C919 C920 1.395 . S
C920 H891 0.950 . S
C920 C919 1.395 . S
C920 C921 1.288 1_655 S
C921 C920 1.288 1_455 S
C921 C922 1.392 . S
C922 H892 0.951 . S
C922 C921 1.392 . S
C922 C923 1.392 . S
C923 H893 0.949 . S
C923 C918 1.382 . S
C923 C922 1.392 . S
H924 C943 0.949 . S
H925 C944 0.950 . S
H926 C946 0.950 . S
H927 C947 0.950 . S
H928 C949 0.950 . S
H929 C952 0.950 . S
H930 C953 0.950 . S
H931 C955 0.951 . S
H932 C956 0.949 . S
H933 C958 0.949 . S
H934 C959 0.950 . S
H935 C961 0.950 . S
H936 C962 0.950 . S
H937 C964 0.950 . S
H938 C967 0.950 . S
H939 C968 0.950 . S
H940 C970 0.951 . S
H941 C971 0.949 . S
C942 C943 1.376 . S
C942 C947 1.386 . S
C942 C948 1.483 . S
C943 H924 0.949 . S
C943 C942 1.376 . S
C943 C944 1.397 . S
C944 H925 0.950 . S
C944 C943 1.397 . S
C944 C945 1.391 . S
C945 C944 1.391 . S
C945 C946 1.405 . S
C946 H926 0.950 . S
C946 C945 1.405 . S
C946 C947 1.367 . S
C947 H927 0.950 . S
C947 C942 1.386 . S
C947 C946 1.367 . S
C948 C942 1.483 . S
C948 C949 1.382 . S
C948 C950 1.403 . S
C949 H928 0.950 . S
C949 C948 1.382 . S
C949 C965 1.411 . S
C950 C948 1.403 . S
C950 C951 1.489 . S
C950 C964 1.411 . S
C951 C950 1.489 . S
C951 C952 1.383 . S
C951 C956 1.382 . S
C952 H929 0.950 . S
C952 C951 1.383 . S
C952 C953 1.395 . S
C953 H930 0.950 . S
C953 C952 1.395 . S
C953 C954 1.288 . S
C954 C953 1.288 . S
C954 C955 1.392 . S
C955 H931 0.951 . S
C955 C954 1.392 . S
C955 C956 1.392 . S
C956 H932 0.949 . S
C956 C951 1.382 . S
C956 C955 1.392 . S
C957 C958 1.376 . S
C957 C962 1.386 . S
C957 C963 1.483 . S
C958 H933 0.949 . S
C958 C957 1.376 . S
C958 C959 1.397 . S
C959 H934 0.950 . S
C959 C958 1.397 . S
C959 C960 1.391 . S
C960 C959 1.391 . S
C960 C961 1.405 . S
C961 H935 0.950 . S
C961 C960 1.405 . S
C961 C962 1.367 . S
C962 H936 0.950 . S
C962 C957 1.386 . S
C962 C961 1.367 . S
C963 C957 1.483 . S
C963 C964 1.382 . S
C963 C965 1.403 . S
C964 H937 0.950 . S
C964 C950 1.411 . S
C964 C963 1.382 . S
C965 C949 1.411 . S
C965 C963 1.403 . S
C965 C966 1.489 . S
C966 C965 1.489 . S
C966 C967 1.383 . S
C966 C971 1.382 . S
C967 H938 0.950 . S
C967 C966 1.383 . S
C967 C968 1.395 . S
C968 H939 0.950 . S
C968 C967 1.395 . S
C968 C969 1.288 . S
C969 C968 1.288 . S
C969 C970 1.392 . S
C970 H940 0.951 . S
C970 C969 1.392 . S
C970 C971 1.392 . S
C971 H941 0.949 . S
C971 C966 1.382 . S
C971 C970 1.392 . S
H972 C991 0.949 . S
H973 C992 0.950 . S
H974 C994 0.950 . S
H975 C995 0.950 . S
H976 C997 0.950 . S
H977 C1000 0.950 . S
H978 C1001 0.950 . S
H979 C1003 0.951 . S
H980 C1004 0.949 . S
H981 C1006 0.949 . S
H982 C1007 0.950 . S
H983 C1009 0.950 . S
H984 C1010 0.950 . S
H985 C1012 0.950 . S
H986 C1015 0.950 . S
H987 C1016 0.950 . S
H988 C1018 0.951 . S
H989 C1019 0.949 . S
C990 C991 1.376 . S
C990 C995 1.386 . S
C990 C996 1.483 . S
C991 H972 0.949 . S
C991 C990 1.376 . S
C991 C992 1.397 . S
C992 H973 0.950 . S
C992 C991 1.397 . S
C992 C993 1.391 . S
C993 C992 1.391 . S
C993 C994 1.405 . S
C994 H974 0.950 . S
C994 C993 1.405 . S
C994 C995 1.367 . S
C995 H975 0.950 . S
C995 C990 1.386 . S
C995 C994 1.367 . S
C996 C990 1.483 . S
C996 C997 1.382 . S
C996 C998 1.403 . S
C997 H976 0.950 . S
C997 C996 1.382 . S
C997 C1013 1.411 . S
C998 C996 1.403 . S
C998 C999 1.489 . S
C998 C1012 1.411 . S
C999 C998 1.489 . S
C999 C1000 1.383 . S
C999 C1004 1.382 . S
C1000 H977 0.950 . S
C1000 C999 1.383 . S
C1000 C1001 1.395 . S
C1001 H978 0.950 . S
C1001 C1000 1.395 . S
C1001 C1002 1.288 . S
C1002 C1001 1.288 . S
C1002 C1003 1.392 . S
C1003 H979 0.951 . S
C1003 C1002 1.392 . S
C1003 C1004 1.392 . S
C1004 H980 0.949 . S
C1004 C999 1.382 . S
C1004 C1003 1.392 . S
C1005 C1006 1.376 . S
C1005 C1010 1.386 . S
C1005 C1011 1.483 . S
C1006 H981 0.949 . S
C1006 C1005 1.376 . S
C1006 C1007 1.397 . S
C1007 H982 0.950 . S
C1007 C1006 1.397 . S
C1007 C1008 1.391 . S
C1008 C1007 1.391 . S
C1008 C1009 1.405 . S
C1009 H983 0.950 . S
C1009 C1008 1.405 . S
C1009 C1010 1.367 . S
C1010 H984 0.950 . S
C1010 C1005 1.386 . S
C1010 C1009 1.367 . S
C1011 C1005 1.483 . S
C1011 C1012 1.382 . S
C1011 C1013 1.403 . S
C1012 H985 0.950 . S
C1012 C998 1.411 . S
C1012 C1011 1.382 . S
C1013 C997 1.411 . S
C1013 C1011 1.403 . S
C1013 C1014 1.489 . S
C1014 C1013 1.489 . S
C1014 C1015 1.383 . S
C1014 C1019 1.382 . S
C1015 H986 0.950 . S
C1015 C1014 1.383 . S
C1015 C1016 1.395 . S
C1016 H987 0.950 . S
C1016 C1015 1.395 . S
C1016 C1017 1.288 . S
C1017 C1016 1.288 . S
C1017 C1018 1.392 . S
C1018 H988 0.951 . S
C1018 C1017 1.392 . S
C1018 C1019 1.392 . S
C1019 H989 0.949 . S
C1019 C1014 1.382 . S
C1019 C1018 1.392 . S
H1020 C1039 0.949 . S
H1021 C1040 0.950 . S
H1022 C1042 0.950 . S
H1023 C1043 0.950 . S
H1024 C1045 0.950 . S
H1025 C1048 0.950 . S
H1026 C1049 0.950 . S
H1027 C1051 0.951 . S
H1028 C1052 0.949 . S
H1029 C1054 0.949 . S
H1030 C1055 0.950 . S
H1031 C1057 0.950 . S
H1032 C1058 0.950 . S
H1033 C1060 0.950 . S
H1034 C1063 0.950 . S
H1035 C1064 0.950 . S
H1036 C1066 0.951 . S
H1037 C1067 0.949 . S
C1038 C1039 1.376 . S
C1038 C1043 1.386 . S
C1038 C1044 1.483 . S
C1039 H1020 0.949 . S
C1039 C1038 1.376 . S
C1039 C1040 1.397 . S
C1040 H1021 0.950 . S
C1040 C1039 1.397 . S
C1040 C1041 1.391 . S
C1041 C1040 1.391 . S
C1041 C1042 1.405 . S
C1042 H1022 0.950 . S
C1042 C1041 1.405 . S
C1042 C1043 1.367 . S
C1043 H1023 0.950 . S
C1043 C1038 1.386 . S
C1043 C1042 1.367 . S
C1044 C1038 1.483 . S
C1044 C1045 1.382 . S
C1044 C1046 1.403 . S
C1045 H1024 0.950 . S
C1045 C1044 1.382 . S
C1045 C1061 1.411 . S
C1046 C1044 1.403 . S
C1046 C1047 1.489 . S
C1046 C1060 1.411 . S
C1047 C1046 1.489 . S
C1047 C1048 1.383 . S
C1047 C1052 1.382 . S
C1048 H1025 0.950 . S
C1048 C1047 1.383 . S
C1048 C1049 1.395 . S
C1049 H1026 0.950 . S
C1049 C1048 1.395 . S
C1049 C1050 1.288 . S
C1050 C1049 1.288 . S
C1050 C1051 1.392 . S
C1051 H1027 0.951 . S
C1051 C1050 1.392 . S
C1051 C1052 1.392 . S
C1052 H1028 0.949 . S
C1052 C1047 1.382 . S
C1052 C1051 1.392 . S
C1053 C1054 1.376 . S
C1053 C1058 1.386 . S
C1053 C1059 1.483 . S
C1054 H1029 0.949 . S
C1054 C1053 1.376 . S
C1054 C1055 1.397 . S
C1055 H1030 0.950 . S
C1055 C1054 1.397 . S
C1055 C1056 1.391 . S
C1056 C1055 1.391 . S
C1056 C1057 1.405 . S
C1057 H1031 0.950 . S
C1057 C1056 1.405 . S
C1057 C1058 1.367 . S
C1058 H1032 0.950 . S
C1058 C1053 1.386 . S
C1058 C1057 1.367 . S
C1059 C1053 1.483 . S
C1059 C1060 1.382 . S
C1059 C1061 1.403 . S
C1060 H1033 0.950 . S
C1060 C1046 1.411 . S
C1060 C1059 1.382 . S
C1061 C1045 1.411 . S
C1061 C1059 1.403 . S
C1061 C1062 1.489 . S
C1062 C1061 1.489 . S
C1062 C1063 1.383 . S
C1062 C1067 1.382 . S
C1063 H1034 0.950 . S
C1063 C1062 1.383 . S
C1063 C1064 1.395 . S
C1064 H1035 0.950 . S
C1064 C1063 1.395 . S
C1064 C1065 1.288 . S
C1065 C1064 1.288 . S
C1065 C1066 1.392 . S
C1066 H1036 0.951 . S
C1066 C1065 1.392 . S
C1066 C1067 1.392 . S
C1067 H1037 0.949 . S
C1067 C1062 1.382 . S
C1067 C1066 1.392 . S
H1068 C1087 0.949 . S
H1069 C1088 0.950 . S
H1070 C1090 0.950 . S
H1071 C1091 0.950 . S
H1072 C1093 0.950 . S
H1073 C1096 0.950 . S
H1074 C1097 0.950 . S
H1075 C1099 0.951 . S
H1076 C1100 0.949 . S
H1077 C1102 0.949 . S
H1078 C1103 0.950 . S
H1079 C1105 0.950 . S
H1080 C1106 0.950 . S
H1081 C1108 0.950 . S
H1082 C1111 0.950 . S
H1083 C1112 0.950 . S
H1084 C1114 0.951 . S
H1085 C1115 0.949 . S
C1086 C1087 1.376 . S
C1086 C1091 1.386 . S
C1086 C1092 1.483 . S
C1087 H1068 0.949 . S
C1087 C1086 1.376 . S
C1087 C1088 1.397 . S
C1088 H1069 0.950 . S
C1088 C1087 1.397 . S
C1088 C1089 1.391 . S
C1089 C1088 1.391 . S
C1089 C1090 1.405 . S
C1090 H1070 0.950 . S
C1090 C1089 1.405 . S
C1090 C1091 1.367 . S
C1091 H1071 0.950 . S
C1091 C1086 1.386 . S
C1091 C1090 1.367 . S
C1092 C1086 1.483 . S
C1092 C1093 1.382 . S
C1092 C1094 1.403 . S
C1093 H1072 0.950 . S
C1093 C1092 1.382 . S
C1093 C1109 1.411 . S
C1094 C1092 1.403 . S
C1094 C1095 1.489 . S
C1094 C1108 1.411 . S
C1095 C1094 1.489 . S
C1095 C1096 1.383 . S
C1095 C1100 1.382 . S
C1096 H1073 0.950 . S
C1096 C1095 1.383 . S
C1096 C1097 1.395 . S
C1097 H1074 0.950 . S
C1097 C1096 1.395 . S
C1097 C1098 1.288 . S
C1098 C1097 1.288 . S
C1098 C1099 1.392 . S
C1099 H1075 0.951 . S
C1099 C1098 1.392 . S
C1099 C1100 1.392 . S
C1100 H1076 0.949 . S
C1100 C1095 1.382 . S
C1100 C1099 1.392 . S
C1101 C1102 1.376 . S
C1101 C1106 1.386 . S
C1101 C1107 1.483 . S
C1102 H1077 0.949 . S
C1102 C1101 1.376 . S
C1102 C1103 1.397 . S
C1103 H1078 0.950 . S
C1103 C1102 1.397 . S
C1103 C1104 1.391 . S
C1104 C1103 1.391 . S
C1104 C1105 1.405 . S
C1105 H1079 0.950 . S
C1105 C1104 1.405 . S
C1105 C1106 1.367 . S
C1106 H1080 0.950 . S
C1106 C1101 1.386 . S
C1106 C1105 1.367 . S
C1107 C1101 1.483 . S
C1107 C1108 1.382 . S
C1107 C1109 1.403 . S
C1108 H1081 0.950 . S
C1108 C1094 1.411 . S
C1108 C1107 1.382 . S
C1109 C1093 1.411 . S
C1109 C1107 1.403 . S
C1109 C1110 1.489 . S
C1110 C1109 1.489 . S
C1110 C1111 1.383 . S
C1110 C1115 1.382 . S
C1111 H1082 0.950 . S
C1111 C1110 1.383 . S
C1111 C1112 1.395 . S
C1112 H1083 0.950 . S
C1112 C1111 1.395 . S
C1112 C1113 1.288 . S
C1113 C1112 1.288 . S
C1113 C1114 1.392 . S
C1114 H1084 0.951 . S
C1114 C1113 1.392 . S
C1114 C1115 1.392 . S
C1115 H1085 0.949 . S
C1115 C1110 1.382 . S
C1115 C1114 1.392 . S
C1116 C1117 1.365 1_455 S
C1116 H1120 0.950 . S
C1116 C1125 1.390 . S
C1117 C1116 1.365 1_655 S
C1117 C1119 1.439 . S
H1118 C1125 0.950 . S
C1119 C1117 1.439 . S
C1119 C1121 1.390 . S
C1119 H1123 0.950 . S
H1120 C1116 0.950 . S
C1121 C1119 1.390 . S
C1121 C1122 1.387 . S
C1121 H1124 0.950 . S
C1122 C1121 1.387 . S
C1122 C1125 1.387 1_655 S
H1123 C1119 0.950 . S
H1124 C1121 0.950 . S
C1125 C1116 1.390 . S
C1125 H1118 0.950 . S
C1125 C1122 1.387 1_455 S
C1126 C1127 1.387 . S
C1126 H1130 0.950 . S
C1126 C1135 1.390 . S
C1127 C1126 1.387 . S
C1127 C1129 1.387 . S
H1128 C1135 0.950 . S
C1129 C1127 1.387 . S
C1129 C1131 1.390 . S
C1129 H1133 0.950 . S
H1130 C1126 0.950 . S
C1131 C1129 1.390 . S
C1131 C1132 1.387 . S
C1131 H1134 0.950 . S
C1132 C1131 1.387 . S
C1132 C1135 1.387 . S
H1133 C1129 0.950 . S
H1134 C1131 0.950 . S
C1135 C1126 1.390 . S
C1135 H1128 0.950 . S
C1135 C1132 1.387 . S
C1136 C1137 1.387 1_565 S
C1136 H1140 0.950 . S
C1136 C1145 1.390 . S
C1137 C1136 1.387 1_545 S
C1137 C1139 1.387 . S
H1138 C1145 0.950 . S
C1139 C1137 1.387 . S
C1139 C1141 1.390 . S
C1139 H1143 0.950 . S
H1140 C1136 0.950 . S
C1141 C1139 1.390 . S
C1141 C1142 1.387 . S
C1141 H1144 0.950 . S
C1142 C1141 1.387 . S
C1142 C1145 1.387 1_545 S
H1143 C1139 0.950 . S
H1144 C1141 0.950 . S
C1145 C1136 1.390 . S
C1145 H1138 0.950 . S
C1145 C1142 1.387 1_565 S
C1146 C1147 1.387 1_545 S
C1146 H1150 0.950 . S
C1146 C1155 1.390 . S
C1147 C1146 1.387 1_565 S
C1147 C1149 1.387 . S
H1148 C1155 0.950 . S
C1149 C1147 1.387 . S
C1149 C1151 1.390 . S
C1149 H1153 0.950 . S
H1150 C1146 0.950 . S
C1151 C1149 1.390 . S
C1151 C1152 1.387 . S
C1151 H1154 0.950 . S
C1152 C1151 1.387 . S
C1152 C1155 1.387 1_565 S
H1153 C1149 0.950 . S
H1154 C1151 0.950 . S
C1155 C1146 1.390 . S
C1155 H1148 0.950 . S
C1155 C1152 1.387 1_545 S
C1156 C1157 1.387 . S
C1156 H1160 0.950 . S
C1156 C1165 1.390 . S
C1157 C1156 1.387 . S
C1157 C1159 1.387 1_455 S
H1158 C1165 0.950 . S
C1159 C1157 1.387 1_655 S
C1159 C1161 1.390 . S
C1159 H1163 0.950 . S
H1160 C1156 0.950 . S
C1161 C1159 1.390 . S
C1161 C1162 1.387 1_655 S
C1161 H1164 0.950 . S
C1162 C1161 1.387 1_455 S
C1162 C1165 1.387 . S
H1163 C1159 0.950 . S
H1164 C1161 0.950 . S
C1165 C1156 1.390 . S
C1165 H1158 0.950 . S
C1165 C1162 1.387 . S
C1166 C1167 1.387 . S
C1166 H1170 0.950 . S
C1166 C1175 1.390 . S
C1167 C1166 1.387 . S
C1167 C1169 1.387 . S
H1168 C1175 0.950 . S
C1169 C1167 1.387 . S
C1169 C1171 1.390 . S
C1169 H1173 0.950 . S
H1170 C1166 0.950 . S
C1171 C1169 1.390 . S
C1171 C1172 1.387 . S
C1171 H1174 0.950 . S
C1172 C1171 1.387 . S
C1172 C1175 1.387 . S
H1173 C1169 0.950 . S
H1174 C1171 0.950 . S
C1175 C1166 1.390 . S
C1175 H1168 0.950 . S
C1175 C1172 1.387 . S
C1176 C1177 1.387 1_655 S
C1176 H1180 0.950 . S
C1176 C1185 1.390 . S
C1177 C1176 1.387 1_455 S
C1177 C1179 1.387 . S
H1178 C1185 0.950 . S
C1179 C1177 1.387 . S
C1179 C1181 1.390 . S
C1179 H1183 0.950 . S
H1180 C1176 0.950 . S
C1181 C1179 1.390 . S
C1181 C1182 1.387 . S
C1181 H1184 0.950 . S
C1182 C1181 1.387 . S
C1182 C1185 1.387 1_455 S
H1183 C1179 0.950 . S
H1184 C1181 0.950 . S
C1185 C1176 1.390 . S
C1185 H1178 0.950 . S
C1185 C1182 1.387 1_655 S
C1186 C1187 1.387 . S
C1186 H1190 0.950 . S
C1186 C1195 1.390 . S
C1187 C1186 1.387 . S
C1187 C1189 1.387 . S
H1188 C1195 0.950 . S
C1189 C1187 1.387 . S
C1189 C1191 1.390 . S
C1189 H1193 0.950 . S
H1190 C1186 0.950 . S
C1191 C1189 1.390 . S
C1191 C1192 1.387 . S
C1191 H1194 0.950 . S
C1192 C1191 1.387 . S
C1192 C1195 1.387 . S
H1193 C1189 0.950 . S
H1194 C1191 0.950 . S
C1195 C1186 1.390 . S
C1195 H1188 0.950 . S
C1195 C1192 1.387 . S
C1196 C1197 1.387 . S
C1196 H1200 0.950 . S
C1196 C1205 1.390 . S
C1197 C1196 1.387 . S
C1197 C1199 1.387 1_565 S
H1198 C1205 0.950 . S
C1199 C1197 1.387 1_545 S
C1199 C1201 1.390 . S
C1199 H1203 0.950 . S
H1200 C1196 0.950 . S
C1201 C1199 1.390 . S
C1201 C1202 1.387 1_545 S
C1201 H1204 0.950 . S
C1202 C1201 1.387 1_565 S
C1202 C1205 1.387 . S
H1203 C1199 0.950 . S
H1204 C1201 0.950 . S
C1205 C1196 1.390 . S
C1205 H1198 0.950 . S
C1205 C1202 1.387 . S
C1206 C1207 1.387 . S
C1206 H1210 0.950 . S
C1206 C1215 1.390 . S
C1207 C1206 1.387 . S
C1207 C1209 1.387 1_545 S
H1208 C1215 0.950 . S
C1209 C1207 1.387 1_565 S
C1209 C1211 1.390 . S
C1209 H1213 0.950 . S
H1210 C1206 0.950 . S
C1211 C1209 1.390 . S
C1211 C1212 1.387 1_565 S
C1211 H1214 0.950 . S
C1212 C1211 1.387 1_545 S
C1212 C1215 1.387 . S
H1213 C1209 0.950 . S
H1214 C1211 0.950 . S
C1215 C1206 1.390 . S
C1215 H1208 0.950 . S
C1215 C1212 1.387 . S
C1216 C1217 1.387 1_455 S
C1216 H1220 0.950 . S
C1216 C1225 1.390 . S
C1217 C1216 1.387 1_655 S
C1217 C1219 1.387 . S
H1218 C1225 0.950 . S
C1219 C1217 1.387 . S
C1219 C1221 1.390 . S
C1219 H1223 0.950 . S
H1220 C1216 0.950 . S
C1221 C1219 1.390 . S
C1221 C1222 1.387 . S
C1221 H1224 0.950 . S
C1222 C1221 1.387 . S
C1222 C1225 1.387 1_655 S
H1223 C1219 0.950 . S
H1224 C1221 0.950 . S
C1225 C1216 1.390 . S
C1225 H1218 0.950 . S
C1225 C1222 1.387 1_455 S
C1226 C1227 1.387 . S
C1226 H1230 0.950 . S
C1226 C1235 1.390 . S
C1227 C1226 1.387 . S
C1227 C1229 1.387 . S
H1228 C1235 0.950 . S
C1229 C1227 1.387 . S
C1229 C1231 1.390 . S
C1229 H1233 0.950 . S
H1230 C1226 0.950 . S
C1231 C1229 1.390 . S
C1231 C1232 1.387 . S
C1231 H1234 0.950 . S
C1232 C1231 1.387 . S
C1232 C1235 1.387 . S
H1233 C1229 0.950 . S
H1234 C1231 0.950 . S
C1235 C1226 1.390 . S
C1235 H1228 0.950 . S
C1235 C1232 1.387 . S
C1236 C1237 1.387 . S
C1236 H1240 0.950 . S
C1236 C1245 1.390 . S
C1237 C1236 1.387 . S
C1237 C1239 1.387 . S
H1238 C1245 0.950 . S
C1239 C1237 1.387 . S
C1239 C1241 1.390 . S
C1239 H1243 0.950 . S
H1240 C1236 0.950 . S
C1241 C1239 1.390 . S
C1241 C1242 1.387 . S
C1241 H1244 0.950 . S
C1242 C1241 1.387 . S
C1242 C1245 1.387 . S
H1243 C1239 0.950 . S
H1244 C1241 0.950 . S
C1245 C1236 1.390 . S
C1245 H1238 0.950 . S
C1245 C1242 1.387 . S
C1246 C1247 1.387 . S
C1246 H1250 0.950 . S
C1246 C1255 1.390 . S
C1247 C1246 1.387 . S
C1247 C1249 1.387 . S
H1248 C1255 0.950 . S
C1249 C1247 1.387 . S
C1249 C1251 1.390 . S
C1249 H1253 0.950 . S
H1250 C1246 0.950 . S
C1251 C1249 1.390 . S
C1251 C1252 1.387 . S
C1251 H1254 0.950 . S
C1252 C1251 1.387 . S
C1252 C1255 1.387 . S
H1253 C1249 0.950 . S
H1254 C1251 0.950 . S
C1255 C1246 1.390 . S
C1255 H1248 0.950 . S
C1255 C1252 1.387 . S
C1256 C1257 1.387 . S
C1256 H1260 0.950 . S
C1256 C1265 1.390 . S
C1257 C1256 1.387 . S
C1257 C1259 1.387 . S
H1258 C1265 0.950 . S
C1259 C1257 1.387 . S
C1259 C1261 1.390 . S
C1259 H1263 0.950 . S
H1260 C1256 0.950 . S
C1261 C1259 1.390 . S
C1261 C1262 1.387 . S
C1261 H1264 0.950 . S
C1262 C1261 1.387 . S
C1262 C1265 1.387 . S
H1263 C1259 0.950 . S
H1264 C1261 0.950 . S
C1265 C1256 1.390 . S
C1265 H1258 0.950 . S
C1265 C1262 1.387 . S
C1266 C1267 1.387 . S
C1266 H1270 0.950 . S
C1266 C1275 1.390 . S
C1267 C1266 1.387 . S
C1267 C1269 1.387 . S
H1268 C1275 0.950 . S
C1269 C1267 1.387 . S
C1269 C1271 1.390 . S
C1269 H1273 0.950 . S
H1270 C1266 0.950 . S
C1271 C1269 1.390 . S
C1271 C1272 1.387 . S
C1271 H1274 0.950 . S
C1272 C1271 1.387 . S
C1272 C1275 1.387 . S
H1273 C1269 0.950 . S
H1274 C1271 0.950 . S
C1275 C1266 1.390 . S
C1275 H1268 0.950 . S
C1275 C1272 1.387 . S
C1276 C1277 1.387 . S
C1276 H1280 0.950 . S
C1276 C1285 1.390 . S
C1277 C1276 1.387 . S
C1277 C1279 1.387 . S
H1278 C1285 0.950 . S
C1279 C1277 1.387 . S
C1279 C1281 1.390 . S
C1279 H1283 0.950 . S
H1280 C1276 0.950 . S
C1281 C1279 1.390 . S
C1281 C1282 1.387 . S
C1281 H1284 0.950 . S
C1282 C1281 1.387 . S
C1282 C1285 1.387 . S
H1283 C1279 0.950 . S
H1284 C1281 0.950 . S
C1285 C1276 1.390 . S
C1285 H1278 0.950 . S
C1285 C1282 1.387 . S
C1286 C1287 1.387 . S
C1286 H1290 0.950 . S
C1286 C1295 1.390 . S
C1287 C1286 1.387 . S
C1287 C1289 1.387 . S
H1288 C1295 0.950 . S
C1289 C1287 1.387 . S
C1289 C1291 1.390 . S
C1289 H1293 0.950 . S
H1290 C1286 0.950 . S
C1291 C1289 1.390 . S
C1291 C1292 1.387 . S
C1291 H1294 0.950 . S
C1292 C1291 1.387 . S
C1292 C1295 1.387 . S
H1293 C1289 0.950 . S
H1294 C1291 0.950 . S
C1295 C1286 1.390 . S
C1295 H1288 0.950 . S
C1295 C1292 1.387 . S
C1296 C1297 1.387 . S
C1296 H1300 0.950 . S
C1296 C1305 1.390 . S
C1297 C1296 1.387 . S
C1297 C1299 1.387 . S
H1298 C1305 0.950 . S
C1299 C1297 1.387 . S
C1299 C1301 1.390 . S
C1299 H1303 0.950 . S
H1300 C1296 0.950 . S
C1301 C1299 1.390 . S
C1301 C1302 1.387 . S
C1301 H1304 0.950 . S
C1302 C1301 1.387 . S
C1302 C1305 1.387 . S
H1303 C1299 0.950 . S
H1304 C1301 0.950 . S
C1305 C1296 1.390 . S
C1305 H1298 0.950 . S
C1305 C1302 1.387 . S
C1306 C1307 1.387 . S
C1306 H1310 0.950 . S
C1306 C1315 1.390 . S
C1307 C1306 1.387 . S
C1307 C1309 1.387 . S
H1308 C1315 0.950 . S
C1309 C1307 1.387 . S
C1309 C1311 1.390 . S
C1309 H1313 0.950 . S
H1310 C1306 0.950 . S
C1311 C1309 1.390 . S
C1311 C1312 1.387 . S
C1311 H1314 0.950 . S
C1312 C1311 1.387 . S
C1312 C1315 1.387 . S
H1313 C1309 0.950 . S
H1314 C1311 0.950 . S
C1315 C1306 1.390 . S
C1315 H1308 0.950 . S
C1315 C1312 1.387 . S
C1316 C1317 1.387 . S
C1316 H1320 0.950 . S
C1316 C1325 1.390 . S
C1317 C1316 1.387 . S
C1317 C1319 1.387 . S
H1318 C1325 0.950 . S
C1319 C1317 1.387 . S
C1319 C1321 1.390 . S
C1319 H1323 0.950 . S
H1320 C1316 0.950 . S
C1321 C1319 1.390 . S
C1321 C1322 1.387 . S
C1321 H1324 0.950 . S
C1322 C1321 1.387 . S
C1322 C1325 1.387 . S
H1323 C1319 0.950 . S
H1324 C1321 0.950 . S
C1325 C1316 1.390 . S
C1325 H1318 0.950 . S
C1325 C1322 1.387 . S
C1326 C1327 1.387 . S
C1326 H1330 0.950 . S
C1326 C1335 1.390 . S
C1327 C1326 1.387 . S
C1327 C1329 1.387 . S
H1328 C1335 0.950 . S
C1329 C1327 1.387 . S
C1329 C1331 1.390 . S
C1329 H1333 0.950 . S
H1330 C1326 0.950 . S
C1331 C1329 1.390 . S
C1331 C1332 1.387 . S
C1331 H1334 0.950 . S
C1332 C1331 1.387 . S
C1332 C1335 1.387 . S
H1333 C1329 0.950 . S
H1334 C1331 0.950 . S
C1335 C1326 1.390 . S
C1335 H1328 0.950 . S
C1335 C1332 1.387 . S
C1336 C1337 1.387 . S
C1336 H1340 0.950 . S
C1336 C1345 1.390 . S
C1337 C1336 1.387 . S
C1337 C1339 1.387 . S
H1338 C1345 0.950 . S
C1339 C1337 1.387 . S
C1339 C1341 1.390 . S
C1339 H1343 0.950 . S
H1340 C1336 0.950 . S
C1341 C1339 1.390 . S
C1341 C1342 1.387 . S
C1341 H1344 0.950 . S
C1342 C1341 1.387 . S
C1342 C1345 1.387 . S
H1343 C1339 0.950 . S
H1344 C1341 0.950 . S
C1345 C1336 1.390 . S
C1345 H1338 0.950 . S
C1345 C1342 1.387 . S
C1346 C1347 1.387 . S
C1346 H1350 0.950 . S
C1346 C1355 1.390 . S
C1347 C1346 1.387 . S
C1347 C1349 1.387 . S
H1348 C1355 0.950 . S
C1349 C1347 1.387 . S
C1349 C1351 1.390 . S
C1349 H1353 0.950 . S
H1350 C1346 0.950 . S
C1351 C1349 1.390 . S
C1351 C1352 1.387 . S
C1351 H1354 0.950 . S
C1352 C1351 1.387 . S
C1352 C1355 1.387 . S
H1353 C1349 0.950 . S
H1354 C1351 0.950 . S
C1355 C1346 1.390 . S
C1355 H1348 0.950 . S
C1355 C1352 1.387 . S
C1356 C1357 1.387 . S
C1356 H1360 0.950 . S
C1356 C1365 1.390 . S
C1357 C1356 1.387 . S
C1357 C1359 1.387 . S
H1358 C1365 0.950 . S
C1359 C1357 1.387 . S
C1359 C1361 1.390 . S
C1359 H1363 0.950 . S
H1360 C1356 0.950 . S
C1361 C1359 1.390 . S
C1361 C1362 1.387 . S
C1361 H1364 0.950 . S
C1362 C1361 1.387 . S
C1362 C1365 1.387 . S
H1363 C1359 0.950 . S
H1364 C1361 0.950 . S
C1365 C1356 1.390 . S
C1365 H1358 0.950 . S
C1365 C1362 1.387 . S
C1366 C1367 1.387 . S
C1366 H1370 0.950 . S
C1366 C1375 1.390 . S
C1367 C1366 1.387 . S
C1367 C1369 1.387 . S
H1368 C1375 0.950 . S
C1369 C1367 1.387 . S
C1369 C1371 1.390 . S
C1369 H1373 0.950 . S
H1370 C1366 0.950 . S
C1371 C1369 1.390 . S
C1371 C1372 1.387 . S
C1371 H1374 0.950 . S
C1372 C1371 1.387 . S
C1372 C1375 1.387 . S
H1373 C1369 0.950 . S
H1374 C1371 0.950 . S
C1375 C1366 1.390 . S
C1375 H1368 0.950 . S
C1375 C1372 1.387 . S
C1376 C1377 1.387 . S
C1376 H1380 0.950 . S
C1376 C1385 1.390 . S
C1377 C1376 1.387 . S
C1377 C1379 1.387 . S
H1378 C1385 0.950 . S
C1379 C1377 1.387 . S
C1379 C1381 1.390 . S
C1379 H1383 0.950 . S
H1380 C1376 0.950 . S
C1381 C1379 1.390 . S
C1381 C1382 1.387 . S
C1381 H1384 0.950 . S
C1382 C1381 1.387 . S
C1382 C1385 1.387 . S
H1383 C1379 0.950 . S
H1384 C1381 0.950 . S
C1385 C1376 1.390 . S
C1385 H1378 0.950 . S
C1385 C1382 1.387 . S
C1386 C1387 1.387 . S
C1386 H1390 0.950 . S
C1386 C1395 1.390 . S
C1387 C1386 1.387 . S
C1387 C1389 1.387 . S
H1388 C1395 0.950 . S
C1389 C1387 1.387 . S
C1389 C1391 1.390 . S
C1389 H1393 0.950 . S
H1390 C1386 0.950 . S
C1391 C1389 1.390 . S
C1391 C1392 1.387 . S
C1391 H1394 0.950 . S
C1392 C1391 1.387 . S
C1392 C1395 1.387 . S
H1393 C1389 0.950 . S
H1394 C1391 0.950 . S
C1395 C1386 1.390 . S
C1395 H1388 0.950 . S
C1395 C1392 1.387 . S
C1396 C1397 1.387 . S
C1396 H1400 0.950 . S
C1396 C1405 1.390 . S
C1397 C1396 1.387 . S
C1397 C1399 1.387 . S
H1398 C1405 0.950 . S
C1399 C1397 1.387 . S
C1399 C1401 1.390 . S
C1399 H1403 0.950 . S
H1400 C1396 0.950 . S
C1401 C1399 1.390 . S
C1401 C1402 1.387 . S
C1401 H1404 0.950 . S
C1402 C1401 1.387 . S
C1402 C1405 1.387 . S
H1403 C1399 0.950 . S
H1404 C1401 0.950 . S
C1405 C1396 1.390 . S
C1405 H1398 0.950 . S
C1405 C1402 1.387 . S
C1406 C1407 1.387 . S
C1406 H1410 0.950 . S
C1406 C1415 1.390 . S
C1407 C1406 1.387 . S
C1407 C1409 1.387 . S
H1408 C1415 0.950 . S
C1409 C1407 1.387 . S
C1409 C1411 1.390 . S
C1409 H1413 0.950 . S
H1410 C1406 0.950 . S
C1411 C1409 1.390 . S
C1411 C1412 1.387 . S
C1411 H1414 0.950 . S
C1412 C1411 1.387 . S
C1412 C1415 1.387 . S
H1413 C1409 0.950 . S
H1414 C1411 0.950 . S
C1415 C1406 1.390 . S
C1415 H1408 0.950 . S
C1415 C1412 1.387 . S
C1416 C1417 1.387 . S
C1416 H1420 0.950 . S
C1416 C1425 1.390 . S
C1417 C1416 1.387 . S
C1417 C1419 1.387 . S
H1418 C1425 0.950 . S
C1419 C1417 1.387 . S
C1419 C1421 1.390 . S
C1419 H1423 0.950 . S
H1420 C1416 0.950 . S
C1421 C1419 1.390 . S
C1421 C1422 1.387 . S
C1421 H1424 0.950 . S
C1422 C1421 1.387 . S
C1422 C1425 1.387 . S
H1423 C1419 0.950 . S
H1424 C1421 0.950 . S
C1425 C1416 1.390 . S
C1425 H1418 0.950 . S
C1425 C1422 1.387 . S
C1426 C1427 1.387 . S
C1426 H1430 0.950 . S
C1426 C1435 1.390 . S
C1427 C1426 1.387 . S
C1427 C1429 1.387 . S
H1428 C1435 0.950 . S
C1429 C1427 1.387 . S
C1429 C1431 1.390 . S
C1429 H1433 0.950 . S
H1430 C1426 0.950 . S
C1431 C1429 1.390 . S
C1431 C1432 1.387 . S
C1431 H1434 0.950 . S
C1432 C1431 1.387 . S
C1432 C1435 1.387 . S
H1433 C1429 0.950 . S
H1434 C1431 0.950 . S
C1435 C1426 1.390 . S
C1435 H1428 0.950 . S
C1435 C1432 1.387 . S
C1436 C1437 1.387 . S
C1436 H1440 0.950 . S
C1436 C1445 1.390 . S
C1437 C1436 1.387 . S
C1437 C1439 1.387 . S
H1438 C1445 0.950 . S
C1439 C1437 1.387 . S
C1439 C1441 1.390 . S
C1439 H1443 0.950 . S
H1440 C1436 0.950 . S
C1441 C1439 1.390 . S
C1441 C1442 1.387 . S
C1441 H1444 0.950 . S
C1442 C1441 1.387 . S
C1442 C1445 1.387 . S
H1443 C1439 0.950 . S
H1444 C1441 0.950 . S
C1445 C1436 1.390 . S
C1445 H1438 0.950 . S
C1445 C1442 1.387 . S
C1446 C1447 1.387 . S
C1446 H1450 0.950 . S
C1446 C1455 1.390 . S
C1447 C1446 1.387 . S
C1447 C1449 1.387 . S
H1448 C1455 0.950 . S
C1449 C1447 1.387 . S
C1449 C1451 1.390 . S
C1449 H1453 0.950 . S
H1450 C1446 0.950 . S
C1451 C1449 1.390 . S
C1451 C1452 1.387 . S
C1451 H1454 0.950 . S
C1452 C1451 1.387 . S
C1452 C1455 1.387 . S
H1453 C1449 0.950 . S
H1454 C1451 0.950 . S
C1455 C1446 1.390 . S
C1455 H1448 0.950 . S
C1455 C1452 1.387 . S
C1456 C1457 1.387 . S
C1456 H1460 0.950 . S
C1456 C1465 1.390 . S
C1457 C1456 1.387 . S
C1457 C1459 1.387 . S
H1458 C1465 0.950 . S
C1459 C1457 1.387 . S
C1459 C1461 1.390 . S
C1459 H1463 0.950 . S
H1460 C1456 0.950 . S
C1461 C1459 1.390 . S
C1461 C1462 1.387 . S
C1461 H1464 0.950 . S
C1462 C1461 1.387 . S
C1462 C1465 1.387 . S
H1463 C1459 0.950 . S
H1464 C1461 0.950 . S
C1465 C1456 1.390 . S
C1465 H1458 0.950 . S
C1465 C1462 1.387 . S
C1466 C1467 1.387 . S
C1466 H1470 0.950 . S
C1466 C1475 1.390 . S
C1467 C1466 1.387 . S
C1467 C1469 1.387 . S
H1468 C1475 0.950 . S
C1469 C1467 1.387 . S
C1469 C1471 1.390 . S
C1469 H1473 0.950 . S
H1470 C1466 0.950 . S
C1471 C1469 1.390 . S
C1471 C1472 1.387 . S
C1471 H1474 0.950 . S
C1472 C1471 1.387 . S
C1472 C1475 1.387 . S
H1473 C1469 0.950 . S
H1474 C1471 0.950 . S
C1475 C1466 1.390 . S
C1475 H1468 0.950 . S
C1475 C1472 1.387 . S
C1476 C1477 1.387 . S
C1476 H1480 0.950 . S
C1476 C1485 1.390 . S
C1477 C1476 1.387 . S
C1477 C1479 1.387 . S
H1478 C1485 0.950 . S
C1479 C1477 1.387 . S
C1479 C1481 1.390 . S
C1479 H1483 0.950 . S
H1480 C1476 0.950 . S
C1481 C1479 1.390 . S
C1481 C1482 1.387 . S
C1481 H1484 0.950 . S
C1482 C1481 1.387 . S
C1482 C1485 1.387 . S
H1483 C1479 0.950 . S
H1484 C1481 0.950 . S
C1485 C1476 1.390 . S
C1485 H1478 0.950 . S
C1485 C1482 1.387 . S
C1486 C1487 1.387 . S
C1486 H1490 0.950 . S
C1486 C1495 1.390 . S
C1487 C1486 1.387 . S
C1487 C1489 1.387 . S
H1488 C1495 0.950 . S
C1489 C1487 1.387 . S
C1489 C1491 1.390 . S
C1489 H1493 0.950 . S
H1490 C1486 0.950 . S
C1491 C1489 1.390 . S
C1491 C1492 1.387 . S
C1491 H1494 0.950 . S
C1492 C1491 1.387 . S
C1492 C1495 1.387 . S
H1493 C1489 0.950 . S
H1494 C1491 0.950 . S
C1495 C1486 1.390 . S
C1495 H1488 0.950 . S
C1495 C1492 1.387 . S
C1496 C1497 1.387 . S
C1496 H1500 0.950 . S
C1496 C1505 1.390 . S
C1497 C1496 1.387 . S
C1497 C1499 1.387 . S
H1498 C1505 0.950 . S
C1499 C1497 1.387 . S
C1499 C1501 1.390 . S
C1499 H1503 0.950 . S
H1500 C1496 0.950 . S
C1501 C1499 1.390 . S
C1501 C1502 1.387 . S
C1501 H1504 0.950 . S
C1502 C1501 1.387 . S
C1502 C1505 1.387 . S
H1503 C1499 0.950 . S
H1504 C1501 0.950 . S
C1505 C1496 1.390 . S
C1505 H1498 0.950 . S
C1505 C1502 1.387 . S
C1506 C1507 1.387 . S
C1506 H1510 0.950 . S
C1506 C1515 1.390 . S
C1507 C1506 1.387 . S
C1507 C1509 1.387 . S
H1508 C1515 0.950 . S
C1509 C1507 1.387 . S
C1509 C1511 1.390 . S
C1509 H1513 0.950 . S
H1510 C1506 0.950 . S
C1511 C1509 1.390 . S
C1511 C1512 1.387 . S
C1511 H1514 0.950 . S
C1512 C1511 1.387 . S
C1512 C1515 1.387 . S
H1513 C1509 0.950 . S
H1514 C1511 0.950 . S
C1515 C1506 1.390 . S
C1515 H1508 0.950 . S
C1515 C1512 1.387 . S
C1516 C1517 1.387 . S
C1516 H1520 0.950 . S
C1516 C1525 1.390 . S
C1517 C1516 1.387 . S
C1517 C1519 1.387 . S
H1518 C1525 0.950 . S
C1519 C1517 1.387 . S
C1519 C1521 1.390 . S
C1519 H1523 0.950 . S
H1520 C1516 0.950 . S
C1521 C1519 1.390 . S
C1521 C1522 1.387 . S
C1521 H1524 0.950 . S
C1522 C1521 1.387 . S
C1522 C1525 1.387 . S
H1523 C1519 0.950 . S
H1524 C1521 0.950 . S
C1525 C1516 1.390 . S
C1525 H1518 0.950 . S
C1525 C1522 1.387 . S
C1526 C1527 1.387 . S
C1526 H1530 0.950 . S
C1526 C1535 1.390 . S
C1527 C1526 1.387 . S
C1527 C1529 1.387 . S
H1528 C1535 0.950 . S
C1529 C1527 1.387 . S
C1529 C1531 1.390 . S
C1529 H1533 0.950 . S
H1530 C1526 0.950 . S
C1531 C1529 1.390 . S
C1531 C1532 1.387 . S
C1531 H1534 0.950 . S
C1532 C1531 1.387 . S
C1532 C1535 1.387 . S
H1533 C1529 0.950 . S
H1534 C1531 0.950 . S
C1535 C1526 1.390 . S
C1535 H1528 0.950 . S
C1535 C1532 1.387 . S
C1536 C1537 1.387 . S
C1536 H1540 0.950 . S
C1536 C1545 1.390 . S
C1537 C1536 1.387 . S
C1537 C1539 1.387 . S
H1538 C1545 0.950 . S
C1539 C1537 1.387 . S
C1539 C1541 1.390 . S
C1539 H1543 0.950 . S
H1540 C1536 0.950 . S
C1541 C1539 1.390 . S
C1541 C1542 1.387 . S
C1541 H1544 0.950 . S
C1542 C1541 1.387 . S
C1542 C1545 1.387 . S
H1543 C1539 0.950 . S
H1544 C1541 0.950 . S
C1545 C1536 1.390 . S
C1545 H1538 0.950 . S
C1545 C1542 1.387 . S
C1546 C1547 1.387 . S
C1546 H1550 0.950 . S
C1546 C1555 1.390 . S
C1547 C1546 1.387 . S
C1547 C1549 1.387 . S
H1548 C1555 0.950 . S
C1549 C1547 1.387 . S
C1549 C1551 1.390 . S
C1549 H1553 0.950 . S
H1550 C1546 0.950 . S
C1551 C1549 1.390 . S
C1551 C1552 1.387 . S
C1551 H1554 0.950 . S
C1552 C1551 1.387 . S
C1552 C1555 1.387 . S
H1553 C1549 0.950 . S
H1554 C1551 0.950 . S
C1555 C1546 1.390 . S
C1555 H1548 0.950 . S
C1555 C1552 1.387 . S
C1556 C1557 1.387 . S
C1556 H1560 0.950 . S
C1556 C1565 1.390 . S
C1557 C1556 1.387 . S
C1557 C1559 1.387 . S
H1558 C1565 0.950 . S
C1559 C1557 1.387 . S
C1559 C1561 1.390 . S
C1559 H1563 0.950 . S
H1560 C1556 0.950 . S
C1561 C1559 1.390 . S
C1561 C1562 1.387 . S
C1561 H1564 0.950 . S
C1562 C1561 1.387 . S
C1562 C1565 1.387 . S
H1563 C1559 0.950 . S
H1564 C1561 0.950 . S
C1565 C1556 1.390 . S
C1565 H1558 0.950 . S
C1565 C1562 1.387 . S
C1566 C1567 1.387 . S
C1566 H1570 0.950 . S
C1566 C1575 1.390 . S
C1567 C1566 1.387 . S
C1567 C1569 1.387 . S
H1568 C1575 0.950 . S
C1569 C1567 1.387 . S
C1569 C1571 1.390 . S
C1569 H1573 0.950 . S
H1570 C1566 0.950 . S
C1571 C1569 1.390 . S
C1571 C1572 1.387 . S
C1571 H1574 0.950 . S
C1572 C1571 1.387 . S
C1572 C1575 1.387 . S
H1573 C1569 0.950 . S
H1574 C1571 0.950 . S
C1575 C1566 1.390 . S
C1575 H1568 0.950 . S
C1575 C1572 1.387 . S
C1576 C1577 1.387 . S
C1576 H1580 0.950 . S
C1576 C1585 1.390 . S
C1577 C1576 1.387 . S
C1577 C1579 1.387 . S
H1578 C1585 0.950 . S
C1579 C1577 1.387 . S
C1579 C1581 1.390 . S
C1579 H1583 0.950 . S
H1580 C1576 0.950 . S
C1581 C1579 1.390 . S
C1581 C1582 1.387 . S
C1581 H1584 0.950 . S
C1582 C1581 1.387 . S
C1582 C1585 1.387 . S
H1583 C1579 0.950 . S
H1584 C1581 0.950 . S
C1585 C1576 1.390 . S
C1585 H1578 0.950 . S
C1585 C1582 1.387 . S
C1586 C1587 1.387 . S
C1586 H1590 0.950 . S
C1586 C1595 1.390 . S
C1587 C1586 1.387 . S
C1587 C1589 1.387 . S
H1588 C1595 0.950 . S
C1589 C1587 1.387 . S
C1589 C1591 1.390 . S
C1589 H1593 0.950 . S
H1590 C1586 0.950 . S
C1591 C1589 1.390 . S
C1591 C1592 1.387 . S
C1591 H1594 0.950 . S
C1592 C1591 1.387 . S
C1592 C1595 1.387 . S
H1593 C1589 0.950 . S
H1594 C1591 0.950 . S
C1595 C1586 1.390 . S
C1595 H1588 0.950 . S
C1595 C1592 1.387 . S
C1596 C1597 1.387 . S
C1596 H1600 0.950 . S
C1596 C1605 1.390 . S
C1597 C1596 1.387 . S
C1597 C1599 1.387 . S
H1598 C1605 0.950 . S
C1599 C1597 1.387 . S
C1599 C1601 1.390 . S
C1599 H1603 0.950 . S
H1600 C1596 0.950 . S
C1601 C1599 1.390 . S
C1601 C1602 1.387 . S
C1601 H1604 0.950 . S
C1602 C1601 1.387 . S
C1602 C1605 1.387 . S
H1603 C1599 0.950 . S
H1604 C1601 0.950 . S
C1605 C1596 1.390 . S
C1605 H1598 0.950 . S
C1605 C1602 1.387 . S
C1606 C1607 1.387 . S
C1606 H1610 0.950 . S
C1606 C1615 1.390 . S
C1607 C1606 1.387 . S
C1607 C1609 1.387 . S
H1608 C1615 0.950 . S
C1609 C1607 1.387 . S
C1609 C1611 1.390 . S
C1609 H1613 0.950 . S
H1610 C1606 0.950 . S
C1611 C1609 1.390 . S
C1611 C1612 1.387 . S
C1611 H1614 0.950 . S
C1612 C1611 1.387 . S
C1612 C1615 1.387 . S
H1613 C1609 0.950 . S
H1614 C1611 0.950 . S
C1615 C1606 1.390 . S
C1615 H1608 0.950 . S
C1615 C1612 1.387 . S
C1616 C1617 1.387 . S
C1616 H1620 0.950 . S
C1616 C1625 1.390 . S
C1617 C1616 1.387 . S
C1617 C1619 1.387 . S
H1618 C1625 0.950 . S
C1619 C1617 1.387 . S
C1619 C1621 1.390 . S
C1619 H1623 0.950 . S
H1620 C1616 0.950 . S
C1621 C1619 1.390 . S
C1621 C1622 1.387 . S
C1621 H1624 0.950 . S
C1622 C1621 1.387 . S
C1622 C1625 1.387 . S
H1623 C1619 0.950 . S
H1624 C1621 0.950 . S
C1625 C1616 1.390 . S
C1625 H1618 0.950 . S
C1625 C1622 1.387 . S
C1626 C1627 1.387 . S
C1626 H1630 0.950 . S
C1626 C1635 1.390 . S
C1627 C1626 1.387 . S
C1627 C1629 1.387 . S
H1628 C1635 0.950 . S
C1629 C1627 1.387 . S
C1629 C1631 1.390 . S
C1629 H1633 0.950 . S
H1630 C1626 0.950 . S
C1631 C1629 1.390 . S
C1631 C1632 1.387 . S
C1631 H1634 0.950 . S
C1632 C1631 1.387 . S
C1632 C1635 1.387 . S
H1633 C1629 0.950 . S
H1634 C1631 0.950 . S
C1635 C1626 1.390 . S
C1635 H1628 0.950 . S
C1635 C1632 1.387 . S
C1636 C1637 1.387 . S
C1636 H1640 0.950 . S
C1636 C1645 1.390 . S
C1637 C1636 1.387 . S
C1637 C1639 1.387 . S
H1638 C1645 0.950 . S
C1639 C1637 1.387 . S
C1639 C1641 1.390 . S
C1639 H1643 0.950 . S
H1640 C1636 0.950 . S
C1641 C1639 1.390 . S
C1641 C1642 1.387 . S
C1641 H1644 0.950 . S
C1642 C1641 1.387 . S
C1642 C1645 1.387 . S
H1643 C1639 0.950 . S
H1644 C1641 0.950 . S
C1645 C1636 1.390 . S
C1645 H1638 0.950 . S
C1645 C1642 1.387 . S
C1646 C1647 1.387 . S
C1646 H1650 0.950 . S
C1646 C1655 1.390 . S
C1647 C1646 1.387 . S
C1647 C1649 1.387 1_565 S
H1648 C1655 0.950 . S
C1649 C1647 1.387 1_545 S
C1649 C1651 1.390 . S
C1649 H1653 0.950 . S
H1650 C1646 0.950 . S
C1651 C1649 1.390 . S
C1651 C1652 1.387 1_545 S
C1651 H1654 0.950 . S
C1652 C1651 1.387 1_565 S
C1652 C1655 1.387 . S
H1653 C1649 0.950 . S
H1654 C1651 0.950 . S
C1655 C1646 1.390 . S
C1655 H1648 0.950 . S
C1655 C1652 1.387 . S
C1656 C1657 1.387 . S
C1656 H1660 0.950 . S
C1656 C1665 1.390 . S
C1657 C1656 1.387 . S
C1657 C1659 1.387 1_565 S
H1658 C1665 0.950 . S
C1659 C1657 1.387 1_545 S
C1659 C1661 1.390 . S
C1659 H1663 0.950 . S
H1660 C1656 0.950 . S
C1661 C1659 1.390 . S
C1661 C1662 1.387 1_545 S
C1661 H1664 0.950 . S
C1662 C1661 1.387 1_565 S
C1662 C1665 1.387 . S
H1663 C1659 0.950 . S
H1664 C1661 0.950 . S
C1665 C1656 1.390 . S
C1665 H1658 0.950 . S
C1665 C1662 1.387 . S
C1666 C1667 1.387 . S
C1666 H1670 0.950 . S
C1666 C1675 1.390 . S
C1667 C1666 1.387 . S
C1667 C1669 1.387 1_455 S
H1668 C1675 0.950 . S
C1669 C1667 1.387 1_655 S
C1669 C1671 1.390 . S
C1669 H1673 0.950 . S
H1670 C1666 0.950 . S
C1671 C1669 1.390 . S
C1671 C1672 1.387 1_655 S
C1671 H1674 0.950 . S
C1672 C1671 1.387 1_455 S
C1672 C1675 1.387 . S
H1673 C1669 0.950 . S
H1674 C1671 0.950 . S
C1675 C1666 1.390 . S
C1675 H1668 0.950 . S
C1675 C1672 1.387 . S
C1676 C1677 1.387 . S
C1676 H1680 0.950 . S
C1676 C1685 1.390 . S
C1677 C1676 1.387 . S
C1677 C1679 1.387 . S
H1678 C1685 0.950 . S
C1679 C1677 1.387 . S
C1679 C1681 1.390 . S
C1679 H1683 0.950 . S
H1680 C1676 0.950 . S
C1681 C1679 1.390 . S
C1681 C1682 1.387 . S
C1681 H1684 0.950 . S
C1682 C1681 1.387 . S
C1682 C1685 1.387 . S
H1683 C1679 0.950 . S
H1684 C1681 0.950 . S
C1685 C1676 1.390 . S
C1685 H1678 0.950 . S
C1685 C1682 1.387 . S
C1686 C1687 1.387 . S
C1686 H1690 0.950 . S
C1686 C1695 1.390 . S
C1687 C1686 1.387 . S
C1687 C1689 1.387 . S
H1688 C1695 0.950 . S
C1689 C1687 1.387 . S
C1689 C1691 1.390 . S
C1689 H1693 0.950 . S
H1690 C1686 0.950 . S
C1691 C1689 1.390 . S
C1691 C1692 1.387 . S
C1691 H1694 0.950 . S
C1692 C1691 1.387 . S
C1692 C1695 1.387 . S
H1693 C1689 0.950 . S
H1694 C1691 0.950 . S
C1695 C1686 1.390 . S
C1695 H1688 0.950 . S
C1695 C1692 1.387 . S
C1696 C1697 1.387 . S
C1696 H1700 0.950 . S
C1696 C1705 1.390 . S
C1697 C1696 1.387 . S
C1697 C1699 1.387 . S
H1698 C1705 0.950 . S
C1699 C1697 1.387 . S
C1699 C1701 1.390 . S
C1699 H1703 0.950 . S
H1700 C1696 0.950 . S
C1701 C1699 1.390 . S
C1701 C1702 1.387 . S
C1701 H1704 0.950 . S
C1702 C1701 1.387 . S
C1702 C1705 1.387 . S
H1703 C1699 0.950 . S
H1704 C1701 0.950 . S
C1705 C1696 1.390 . S
C1705 H1698 0.950 . S
C1705 C1702 1.387 . S
C1706 C1707 1.387 . S
C1706 H1710 0.950 . S
C1706 C1715 1.390 . S
C1707 C1706 1.387 . S
C1707 C1709 1.387 . S
H1708 C1715 0.950 . S
C1709 C1707 1.387 . S
C1709 C1711 1.390 . S
C1709 H1713 0.950 . S
H1710 C1706 0.950 . S
C1711 C1709 1.390 . S
C1711 C1712 1.387 . S
C1711 H1714 0.950 . S
C1712 C1711 1.387 . S
C1712 C1715 1.387 . S
H1713 C1709 0.950 . S
H1714 C1711 0.950 . S
C1715 C1706 1.390 . S
C1715 H1708 0.950 . S
C1715 C1712 1.387 . S
C1716 C1717 1.387 1_565 S
C1716 H1720 0.950 . S
C1716 C1725 1.390 . S
C1717 C1716 1.387 1_545 S
C1717 C1719 1.387 . S
H1718 C1725 0.950 . S
C1719 C1717 1.387 . S
C1719 C1721 1.390 . S
C1719 H1723 0.950 . S
H1720 C1716 0.950 . S
C1721 C1719 1.390 . S
C1721 C1722 1.387 . S
C1721 H1724 0.950 . S
C1722 C1721 1.387 . S
C1722 C1725 1.387 1_545 S
H1723 C1719 0.950 . S
H1724 C1721 0.950 . S
C1725 C1716 1.390 . S
C1725 H1718 0.950 . S
C1725 C1722 1.387 1_565 S
C1726 C1727 1.397 . S
C1726 H1730 0.928 1_655 S
C1726 C1735 1.426 1_655 S
C1727 C1726 1.397 . S
C1727 C1729 1.387 . S
H1728 C1735 0.965 . S
C1729 C1727 1.387 . S
C1729 C1731 1.390 . S
C1729 H1733 0.950 . S
H1730 C1726 0.928 1_455 S
C1731 C1729 1.390 . S
C1731 C1732 1.387 . S
C1731 H1734 0.950 . S
C1732 C1731 1.387 . S
C1732 C1735 1.354 1_655 S
H1733 C1729 0.950 . S
H1734 C1731 0.950 . S
C1735 C1726 1.426 1_455 S
C1735 H1728 0.965 . S
C1735 C1732 1.354 1_455 S
C1736 C1737 1.387 . S
C1736 H1740 0.950 . S
C1736 C1745 1.390 . S
C1737 C1736 1.387 . S
C1737 C1739 1.387 . S
H1738 C1745 0.950 . S
C1739 C1737 1.387 . S
C1739 C1741 1.390 . S
C1739 H1743 0.950 . S
H1740 C1736 0.950 . S
C1741 C1739 1.390 . S
C1741 C1742 1.387 . S
C1741 H1744 0.950 . S
C1742 C1741 1.387 . S
C1742 C1745 1.387 . S
H1743 C1739 0.950 . S
H1744 C1741 0.950 . S
C1745 C1736 1.390 . S
C1745 H1738 0.950 . S
C1745 C1742 1.387 . S
C1746 C1747 1.387 . S
C1746 H1750 0.950 . S
C1746 C1755 1.390 . S
C1747 C1746 1.387 . S
C1747 C1749 1.387 . S
H1748 C1755 0.950 . S
C1749 C1747 1.387 . S
C1749 C1751 1.390 . S
C1749 H1753 0.950 . S
H1750 C1746 0.950 . S
C1751 C1749 1.390 . S
C1751 C1752 1.387 . S
C1751 H1754 0.950 . S
C1752 C1751 1.387 . S
C1752 C1755 1.387 . S
H1753 C1749 0.950 . S
H1754 C1751 0.950 . S
C1755 C1746 1.390 . S
C1755 H1748 0.950 . S
C1755 C1752 1.387 . S
C1756 C1757 1.387 . S
C1756 H1760 0.950 . S
C1756 C1765 1.390 . S
C1757 C1756 1.387 . S
C1757 C1759 1.387 . S
H1758 C1765 0.950 . S
C1759 C1757 1.387 . S
C1759 C1761 1.390 . S
C1759 H1763 0.950 . S
H1760 C1756 0.950 . S
C1761 C1759 1.390 . S
C1761 C1762 1.387 . S
C1761 H1764 0.950 . S
C1762 C1761 1.387 . S
C1762 C1765 1.387 . S
H1763 C1759 0.950 . S
H1764 C1761 0.950 . S
C1765 C1756 1.390 . S
C1765 H1758 0.950 . S
C1765 C1762 1.387 . S
C1766 C1767 1.387 . S
C1766 H1770 0.950 . S
C1766 C1775 1.390 . S
C1767 C1766 1.387 . S
C1767 C1769 1.387 . S
H1768 C1775 0.950 . S
C1769 C1767 1.387 . S
C1769 C1771 1.390 . S
C1769 H1773 0.950 . S
H1770 C1766 0.950 . S
C1771 C1769 1.390 . S
C1771 C1772 1.387 . S
C1771 H1774 0.950 . S
C1772 C1771 1.387 . S
C1772 C1775 1.387 . S
H1773 C1769 0.950 . S
H1774 C1771 0.950 . S
C1775 C1766 1.390 . S
C1775 H1768 0.950 . S
C1775 C1772 1.387 . S
C1776 C1777 1.387 . S
C1776 H1780 0.950 . S
C1776 C1785 1.390 . S
C1777 C1776 1.387 . S
C1777 C1779 1.387 . S
H1778 C1785 0.950 . S
C1779 C1777 1.387 . S
C1779 C1781 1.390 . S
C1779 H1783 0.950 . S
H1780 C1776 0.950 . S
C1781 C1779 1.390 . S
C1781 C1782 1.387 . S
C1781 H1784 0.950 . S
C1782 C1781 1.387 . S
C1782 C1785 1.387 . S
H1783 C1779 0.950 . S
H1784 C1781 0.950 . S
C1785 C1776 1.390 . S
C1785 H1778 0.950 . S
C1785 C1782 1.387 . S
C1786 C1787 1.387 . S
C1786 H1790 0.950 . S
C1786 C1795 1.390 . S
C1787 C1786 1.387 . S
C1787 C1789 1.387 . S
H1788 C1795 0.950 . S
C1789 C1787 1.387 . S
C1789 C1791 1.390 . S
C1789 H1793 0.950 . S
H1790 C1786 0.950 . S
C1791 C1789 1.390 . S
C1791 C1792 1.387 . S
C1791 H1794 0.950 . S
C1792 C1791 1.387 . S
C1792 C1795 1.387 . S
H1793 C1789 0.950 . S
H1794 C1791 0.950 . S
C1795 C1786 1.390 . S
C1795 H1788 0.950 . S
C1795 C1792 1.387 . S
C1796 C1797 1.387 . S
C1796 H1800 0.950 . S
C1796 C1805 1.390 . S
C1797 C1796 1.387 . S
C1797 C1799 1.387 . S
H1798 C1805 0.950 . S
C1799 C1797 1.387 . S
C1799 C1801 1.390 . S
C1799 H1803 0.950 . S
H1800 C1796 0.950 . S
C1801 C1799 1.390 . S
C1801 C1802 1.387 . S
C1801 H1804 0.950 . S
C1802 C1801 1.387 . S
C1802 C1805 1.387 . S
H1803 C1799 0.950 . S
H1804 C1801 0.950 . S
C1805 C1796 1.390 . S
C1805 H1798 0.950 . S
C1805 C1802 1.387 . S
C1806 C1807 1.387 . S
C1806 H1810 0.950 . S
C1806 C1815 1.390 . S
C1807 C1806 1.387 . S
C1807 C1809 1.387 . S
H1808 C1815 0.950 . S
C1809 C1807 1.387 . S
C1809 C1811 1.390 . S
C1809 H1813 0.950 . S
H1810 C1806 0.950 . S
C1811 C1809 1.390 . S
C1811 C1812 1.387 . S
C1811 H1814 0.950 1_655 S
C1812 C1811 1.387 . S
C1812 C1815 1.387 . S
H1813 C1809 0.950 . S
H1814 C1811 0.950 1_455 S
C1815 C1806 1.390 . S
C1815 H1808 0.950 . S
C1815 C1812 1.387 . S
C1816 C1817 1.387 . S
C1816 H1820 0.950 . S
C1816 C1825 1.390 . S
C1817 C1816 1.387 . S
C1817 C1819 1.387 . S
H1818 C1825 0.950 . S
C1819 C1817 1.387 . S
C1819 C1821 1.390 . S
C1819 H1823 0.950 . S
H1820 C1816 0.950 . S
C1821 C1819 1.390 . S
C1821 C1822 1.387 . S
C1821 H1824 0.950 . S
C1822 C1821 1.387 . S
C1822 C1825 1.387 . S
H1823 C1819 0.950 . S
H1824 C1821 0.950 . S
C1825 C1816 1.390 . S
C1825 H1818 0.950 . S
C1825 C1822 1.387 . S
C1826 C1827 1.387 1_565 S
C1826 H1830 0.950 . S
C1826 C1835 1.390 . S
C1827 C1826 1.387 1_545 S
C1827 C1829 1.387 . S
H1828 C1835 0.950 . S
C1829 C1827 1.387 . S
C1829 C1831 1.390 . S
C1829 H1833 0.950 . S
H1830 C1826 0.950 . S
C1831 C1829 1.390 . S
C1831 C1832 1.387 . S
C1831 H1834 0.950 . S
C1832 C1831 1.387 . S
C1832 C1835 1.387 1_545 S
H1833 C1829 0.950 . S
H1834 C1831 0.950 . S
C1835 C1826 1.390 . S
C1835 H1828 0.950 . S
C1835 C1832 1.387 1_565 S
C1117 C8 1.462 1_655 S
C1122 C729 1.510 . S
C1127 C22 1.566 . S
C1132 C777 1.568 . S
C1142 C825 1.517 . S
C1137 C37 1.500 1_545 S
C1147 C36 1.499 1_565 S
C1152 C849 1.514 . S
C1157 C9 1.496 1_455 S
C1162 C921 1.518 . S
C1167 C23 1.568 . S
C1172 C969 1.570 . S
C1177 C50 1.493 1_455 S
C1182 C897 1.511 . S
C1192 C945 1.571 . S
C1187 C64 1.569 . S
C1202 C873 1.508 . S
C1197 C79 1.502 1_565 S
C1207 C78 1.492 1_545 S
C1212 C801 1.510 . S
C1222 C705 1.528 . S
C1217 C51 1.506 1_655 S
C1227 C65 1.570 . S
C1232 C753 1.571 . S
C1237 C92 1.595 . S
C1242 C1017 1.597 . S
C1247 C106 1.609 . S
C1252 C1065 1.606 . S
C1262 C1089 1.576 . S
C1257 C121 1.590 . S
C1267 C120 1.562 . S
C1272 C273 1.551 . S
C1277 C93 1.576 . S
C1282 C345 1.576 . S
C1287 C107 1.585 . S
C1292 C393 1.584 . S
C1297 C134 1.558 . S
C1302 C321 1.560 . S
C1307 C148 1.588 . S
C1312 C369 1.586 . S
C1322 C297 1.543 . S
C1317 C163 1.574 . S
C1332 C1113 1.564 . S
C1327 C162 1.596 . S
C1342 C993 1.585 . S
C1337 C135 1.587 . S
C1352 C1041 1.607 . S
C1347 C149 1.612 . S
C1357 C176 1.558 . S
C1362 C441 1.561 . S
C1367 C190 1.584 . S
C1372 C489 1.584 . S
C1377 C205 1.579 . S
C1382 C513 1.568 . S
C1387 C204 1.599 . S
C1392 C561 1.586 . S
C1402 C633 1.585 . S
C1397 C177 1.586 . S
C1412 C681 1.606 . S
C1407 C191 1.608 . S
C1422 C609 1.600 . S
C1417 C218 1.599 . S
C1432 C657 1.608 . S
C1427 C232 1.611 . S
C1437 C247 1.584 . S
C1442 C585 1.551 . S
C1452 C537 1.526 . S
C1447 C246 1.557 . S
C1457 C219 1.577 . S
C1462 C417 1.579 . S
C1472 C465 1.586 . S
C1467 C233 1.587 . S
C1482 C282 1.541 . S
C1477 C6 1.525 . S
C1487 C20 1.499 . S
C1492 C336 1.505 . S
C1502 C384 1.530 . S
C1497 C35 1.533 . S
C1512 C432 1.530 . S
C1507 C34 1.527 . S
C1522 C480 1.530 . S
C1517 C7 1.530 . S
C1532 C522 1.520 . S
C1527 C21 1.498 . S
C1537 C48 1.531 . S
C1542 C528 1.547 . S
C1547 C62 1.502 . S
C1552 C426 1.496 . S
C1557 C77 1.528 . S
C1562 C474 1.512 . S
C1567 C76 1.527 . S
C1572 C330 1.524 . S
C1582 C378 1.518 . S
C1577 C49 1.529 . S
C1587 C63 1.501 . S
C1592 C288 1.516 . S
C1602 C570 1.537 . S
C1597 C90 1.514 . S
C1607 C104 1.536 . S
C1612 C624 1.546 . S
C1617 C119 1.541 . S
C1622 C672 1.552 . S
C1632 C720 1.500 . S
C1627 C118 1.462 . S
C1637 C91 1.518 . S
C1642 C768 1.525 . S
C1647 C105 1.460 . S
C1652 C816 1.500 . S
C1657 C132 1.460 . S
C1662 C810 1.492 . S
C1667 C146 1.463 . S
C1672 C714 1.500 . S
C1682 C762 1.515 . S
C1677 C161 1.517 . S
C1687 C160 1.514 . S
C1692 C618 1.515 . S
C1697 C133 1.538 . S
C1702 C666 1.541 . S
C1712 C576 1.555 . S
C1707 C147 1.535 . S
C1722 C858 1.497 . S
C1717 C174 1.456 . S
C1727 C188 1.459 . S
C1732 C912 1.500 . S
C1737 C203 1.521 . S
C1742 C960 1.527 . S
C1752 C1008 1.525 . S
C1747 C202 1.517 . S
C1762 C1056 1.547 . S
C1757 C175 1.540 . S
C1767 C189 1.534 . S
C1772 C1098 1.560 . S
C1777 C216 1.518 . S
C1782 C1104 1.534 . S
C1787 C230 1.535 . S
C1792 C1002 1.537 . S
C1802 C1050 1.539 . S
C1797 C245 1.536 . S
C1812 C906 1.493 . S
C1807 C244 1.451 . S
C1822 C954 1.520 . S
C1817 C217 1.519 . S
C1827 C231 1.464 . S
C1832 C864 1.504 . S
