# Generated by pormake.
# Topology pyr, (3,6)-cn, num edge types: 1
# Building blocks:
#     Node 0, Type 0, BuildingBlock: MIDCAF_clean_linker_0, # of connection points: 3
#     Node 1, Type 0, BuildingBlock: MIDCAF_clean_linker_0, # of connection points: 3
#     Node 2, Type 0, BuildingBlock: MIDCAF_clean_linker_0, # of connection points: 3
#     Node 3, Type 0, BuildingBlock: MIDCAF_clean_linker_0, # of connection points: 3
#     Node 4, Type 0, BuildingBlock: MIDCAF_clean_linker_0, # of connection points: 3
#     Node 5, Type 0, BuildingBlock: MIDCAF_clean_linker_0, # of connection points: 3
#     Node 6, Type 0, BuildingBlock: MIDCAF_clean_linker_0, # of connection points: 3
#     Node 7, Type 0, BuildingBlock: MIDCAF_clean_linker_0, # of connection points: 3
#     Node 8, Type 1, BuildingBlock: INOVEN_clean_sbu_0, # of connection points: 6
#     Node 9, Type 1, BuildingBlock: INOVEN_clean_sbu_0, # of connection points: 6
#     Node 10, Type 1, BuildingBlock: INOVEN_clean_sbu_0, # of connection points: 6
#     Node 11, Type 1, BuildingBlock: INOVEN_clean_sbu_0, # of connection points: 6
#     Edge 12, Type (0, 1), BuildingBlock: CIFDUS_clean_linker_0, # of connection points: 2
#     Edge 13, Type (0, 1), BuildingBlock: CIFDUS_clean_linker_0, # of connection points: 2
#     Edge 14, Type (0, 1), BuildingBlock: CIFDUS_clean_linker_0, # of connection points: 2
#     Edge 15, Type (0, 1), BuildingBlock: CIFDUS_clean_linker_0, # of connection points: 2
#     Edge 16, Type (0, 1), BuildingBlock: CIFDUS_clean_linker_0, # of connection points: 2
#     Edge 17, Type (0, 1), BuildingBlock: CIFDUS_clean_linker_0, # of connection points: 2
#     Edge 18, Type (0, 1), BuildingBlock: CIFDUS_clean_linker_0, # of connection points: 2
#     Edge 19, Type (0, 1), BuildingBlock: CIFDUS_clean_linker_0, # of connection points: 2
#     Edge 20, Type (0, 1), BuildingBlock: CIFDUS_clean_linker_0, # of connection points: 2
#     Edge 21, Type (0, 1), BuildingBlock: CIFDUS_clean_linker_0, # of connection points: 2
#     Edge 22, Type (0, 1), BuildingBlock: CIFDUS_clean_linker_0, # of connection points: 2
#     Edge 23, Type (0, 1), BuildingBlock: CIFDUS_clean_linker_0, # of connection points: 2
#     Edge 24, Type (0, 1), BuildingBlock: CIFDUS_clean_linker_0, # of connection points: 2
#     Edge 25, Type (0, 1), BuildingBlock: CIFDUS_clean_linker_0, # of connection points: 2
#     Edge 26, Type (0, 1), BuildingBlock: CIFDUS_clean_linker_0, # of connection points: 2
#     Edge 27, Type (0, 1), BuildingBlock: CIFDUS_clean_linker_0, # of connection points: 2
#     Edge 28, Type (0, 1), BuildingBlock: CIFDUS_clean_linker_0, # of connection points: 2
#     Edge 29, Type (0, 1), BuildingBlock: CIFDUS_clean_linker_0, # of connection points: 2
#     Edge 30, Type (0, 1), BuildingBlock: CIFDUS_clean_linker_0, # of connection points: 2
#     Edge 31, Type (0, 1), BuildingBlock: CIFDUS_clean_linker_0, # of connection points: 2
#     Edge 32, Type (0, 1), BuildingBlock: CIFDUS_clean_linker_0, # of connection points: 2
#     Edge 33, Type (0, 1), BuildingBlock: CIFDUS_clean_linker_0, # of connection points: 2
#     Edge 34, Type (0, 1), BuildingBlock: CIFDUS_clean_linker_0, # of connection points: 2
#     Edge 35, Type (0, 1), BuildingBlock: CIFDUS_clean_linker_0, # of connection points: 2
# Relax obj value: 0.108
# Max RMSD: 0.132
# Mean RMSD: 0.062
data_MOF--net-pyr--node1-INOVEN_clean_sbu_0--node2-MIDCAF_clean_linker_0--edge1-CIFDUS_clean_linker_0
_symmetry_space_group_name_H-M    P1
_symmetry_Int_Tables_number       1
_symmetry_cell_setting            triclinic
loop_
_symmetry_equiv_pos_as_xyz
'x, y, z'
_cell_length_a     41.25823
_cell_length_b     44.557797
_cell_length_c     40.785349
_cell_angle_alpha  90.949932
_cell_angle_beta   88.85531
_cell_angle_gamma 100.48522
loop_
_atom_site_label
_atom_site_type_symbol
_atom_site_fract_x
_atom_site_fract_y
_atom_site_fract_z
_atom_type_partial_charge
C0 C 0.3027 0.27712 0.34304 0.0
C1 C 0.30393 0.24773 0.35436 0.0
C2 C 0.32531 0.23076 0.33837 0.0
C3 C 0.34238 0.24158 0.30979 0.0
H4 H 0.40667 0.22137 0.23582 0.0
H5 H 0.42953 0.18242 0.20514 0.0
H6 H 0.39752 0.21572 0.11472 0.0
H7 H 0.37443 0.25458 0.1452 0.0
H8 H 0.32421 0.30012 0.14808 0.0
H9 H 0.28625 0.32755 0.12176 0.0
H10 H 0.27533 0.37682 0.21232 0.0
H11 H 0.31238 0.34851 0.23898 0.0
H12 H 0.31634 0.30977 0.30511 0.0
H13 H 0.28709 0.29108 0.35528 0.0
H14 H 0.32683 0.20799 0.34629 0.0
H15 H 0.35674 0.22689 0.2969 0.0
N16 N 0.3665 0.25918 0.24481 0.0
N17 N 0.35746 0.28355 0.19617 0.0
N18 N 0.33516 0.29803 0.246 0.0
C19 C 0.3714 0.26253 0.21192 0.0
C20 C 0.33958 0.30161 0.21314 0.0
C21 C 0.3485 0.27691 0.26207 0.0
C22 C 0.38843 0.24103 0.19305 0.0
C23 C 0.40473 0.22063 0.20937 0.0
C24 C 0.41799 0.19836 0.19181 0.0
C25 C 0.41504 0.19586 0.15759 0.0
C26 C 0.39974 0.21685 0.14115 0.0
C27 C 0.38671 0.23926 0.15865 0.0
C28 C 0.32106 0.32185 0.19574 0.0
C29 C 0.31416 0.31715 0.16226 0.0
C30 C 0.2924 0.333 0.14711 0.0
C31 C 0.27733 0.35418 0.165 0.0
C32 C 0.2858 0.36014 0.198 0.0
C33 C 0.30727 0.34406 0.21323 0.0
C34 C 0.33818 0.26947 0.29644 0.0
C35 C 0.31958 0.28786 0.31432 0.0
C36 C 0.12691 0.86224 0.6583 0.0
C37 C 0.13747 0.86681 0.62547 0.0
C38 C 0.16153 0.85092 0.61281 0.0
C39 C 0.17558 0.83184 0.63282 0.0
H40 H 0.2468 0.78037 0.63221 0.0
H41 H 0.29382 0.75934 0.61148 0.0
H42 H 0.30396 0.72087 0.7065 0.0
H43 H 0.25764 0.74265 0.72752 0.0
H44 H 0.22639 0.77478 0.79159 0.0
H45 H 0.24525 0.79728 0.84425 0.0
H46 H 0.20753 0.87869 0.8211 0.0
H47 H 0.18743 0.8557 0.76944 0.0
H48 H 0.1332 0.84106 0.70384 0.0
H49 H 0.10788 0.87357 0.66865 0.0
H50 H 0.17055 0.85415 0.58777 0.0
H51 H 0.19485 0.82079 0.62248 0.0
N52 N 0.2046 0.79343 0.67559 0.0
N53 N 0.22221 0.78531 0.72842 0.0
N54 N 0.18339 0.81686 0.72107 0.0
C55 C 0.22349 0.78 0.6956 0.0
C56 C 0.20223 0.80367 0.74138 0.0
C57 C 0.18415 0.81156 0.68819 0.0
C58 C 0.24866 0.76346 0.68165 0.0
C59 C 0.25875 0.76707 0.64858 0.0
C60 C 0.28572 0.75498 0.63665 0.0
C61 C 0.30296 0.73883 0.65747 0.0
C62 C 0.29175 0.73389 0.69005 0.0
C63 C 0.26501 0.74617 0.70204 0.0
C64 C 0.20604 0.81371 0.77605 0.0
C65 C 0.22131 0.79714 0.79822 0.0
C66 C 0.23231 0.81013 0.82831 0.0
C67 C 0.22876 0.84015 0.8366 0.0
C68 C 0.21067 0.8555 0.81573 0.0
C69 C 0.19921 0.84232 0.78588 0.0
C70 C 0.16621 0.8285 0.66606 0.0
C71 C 0.14125 0.84343 0.67844 0.0
C72 C 0.64357 0.25617 0.90484 0.0
C73 C 0.61464 0.2389 0.89141 0.0
C74 C 0.6009 0.25229 0.86487 0.0
C75 C 0.61557 0.28118 0.85219 0.0
H76 H 0.61231 0.34709 0.77357 0.0
H77 H 0.59118 0.37017 0.7265 0.0
H78 H 0.66293 0.45231 0.74139 0.0
H79 H 0.68398 0.42919 0.78875 0.0
H80 H 0.73608 0.43354 0.858 0.0
H81 H 0.78574 0.45669 0.88779 0.0
H82 H 0.79787 0.36701 0.91812 0.0
H83 H 0.74791 0.34465 0.8903 0.0
H84 H 0.68058 0.29688 0.9034 0.0
H85 H 0.65553 0.24715 0.92486 0.0
H86 H 0.5784 0.24055 0.85382 0.0
H87 H 0.60396 0.29015 0.83188 0.0
N88 N 0.64874 0.34286 0.82622 0.0
N89 N 0.69231 0.38534 0.82988 0.0
N90 N 0.68964 0.34416 0.86585 0.0
C91 C 0.664 0.37099 0.8148 0.0
C92 C 0.70548 0.37204 0.85534 0.0
C93 C 0.66127 0.32922 0.85197 0.0
C94 C 0.65025 0.38584 0.78564 0.0
C95 C 0.62372 0.37011 0.76706 0.0
C96 C 0.6116 0.3835 0.73955 0.0
C97 C 0.62514 0.41346 0.72918 0.0
C98 C 0.6513 0.42942 0.74813 0.0
C99 C 0.66365 0.4159 0.77552 0.0
C100 C 0.73725 0.38705 0.8718 0.0
C101 C 0.74936 0.41881 0.87112 0.0
C102 C 0.77823 0.43215 0.88827 0.0
C103 C 0.79643 0.41421 0.90643 0.0
C104 C 0.78465 0.38232 0.90589 0.0
C105 C 0.7557 0.36919 0.88939 0.0
C106 C 0.64473 0.29818 0.8654 0.0
C107 C 0.65824 0.28499 0.89214 0.0
C108 C 0.77765 0.66419 0.42267 0.0
C109 C 0.7598 0.63525 0.41361 0.0
C110 C 0.77099 0.62108 0.3854 0.0
C111 C 0.79952 0.63502 0.36761 0.0
H112 H 0.86345 0.62361 0.28933 0.0
H113 H 0.88412 0.59556 0.24463 0.0
H114 H 0.96823 0.66786 0.23263 0.0
H115 H 0.94702 0.69668 0.27786 0.0
H116 H 0.94981 0.7615 0.33315 0.0
H117 H 0.97446 0.81153 0.35614 0.0
H118 H 0.89727 0.80285 0.43017 0.0
H119 H 0.87336 0.75322 0.40791 0.0
H120 H 0.81855 0.70022 0.41336 0.0
H121 H 0.76979 0.67637 0.44369 0.0
H122 H 0.75822 0.5988 0.37753 0.0
H123 H 0.80749 0.6231 0.34644 0.0
N124 N 0.86163 0.66541 0.33303 0.0
N125 N 0.90565 0.70742 0.32837 0.0
N126 N 0.86486 0.70683 0.36972 0.0
C127 C 0.89 0.67919 0.31717 0.0
C128 C 0.89311 0.7215 0.35483 0.0
C129 C 0.84878 0.67897 0.35932 0.0
C130 C 0.90341 0.66271 0.28812 0.0
C131 C 0.88638 0.63392 0.27743 0.0
C132 C 0.89847 0.61751 0.25148 0.0
C133 C 0.92837 0.62884 0.23466 0.0
C134 C 0.94514 0.65809 0.24456 0.0
C135 C 0.93297 0.67464 0.27084 0.0
C136 C 0.90934 0.75265 0.36834 0.0
C137 C 0.93811 0.77017 0.35438 0.0
C138 C 0.95222 0.7992 0.36763 0.0
C139 C 0.93822 0.81191 0.39546 0.0
C140 C 0.90953 0.79423 0.40929 0.0
C141 C 0.89549 0.76543 0.3961 0.0
C142 C 0.81768 0.66374 0.37725 0.0
C143 C 0.80585 0.67809 0.40495 0.0
C144 C 0.62535 0.8539 0.85806 0.0
C145 C 0.62945 0.85745 0.89208 0.0
C146 C 0.64578 0.83723 0.90858 0.0
C147 C 0.65885 0.8147 0.89125 0.0
H148 H 0.70751 0.73836 0.90116 0.0
H149 H 0.74731 0.71342 0.92865 0.0
H150 H 0.79829 0.7061 0.83597 0.0
H151 H 0.75799 0.72904 0.80863 0.0
H152 H 0.71716 0.74066 0.74019 0.0
H153 H 0.74981 0.75808 0.69143 0.0
H154 H 0.7319 0.84959 0.71005 0.0
H155 H 0.69803 0.83178 0.7573 0.0
H156 H 0.63573 0.83007 0.81435 0.0
H157 H 0.61307 0.86921 0.8446 0.0
H158 H 0.64888 0.83912 0.93489 0.0
H159 H 0.67206 0.80009 0.90465 0.0
N160 N 0.68943 0.77114 0.85342 0.0
N161 N 0.71105 0.75735 0.803 0.0
N162 N 0.67732 0.7942 0.80486 0.0
C163 C 0.70812 0.75407 0.83597 0.0
C164 C 0.69577 0.77721 0.78721 0.0
C165 C 0.67357 0.79101 0.8379 0.0
C166 C 0.7295 0.73586 0.85268 0.0
C167 C 0.7269 0.73086 0.88664 0.0
C168 C 0.74993 0.71679 0.90244 0.0
C169 C 0.7763 0.7078 0.88467 0.0
C170 C 0.77811 0.71202 0.85057 0.0
C171 C 0.75493 0.72553 0.83479 0.0
C172 C 0.70572 0.78502 0.75298 0.0
C173 C 0.71923 0.76424 0.73303 0.0
C174 C 0.73818 0.77431 0.70524 0.0
C175 C 0.74457 0.80547 0.69732 0.0
C176 C 0.72769 0.82541 0.71514 0.0
C177 C 0.70822 0.8152 0.74251 0.0
C178 C 0.65607 0.81204 0.85697 0.0
C179 C 0.63854 0.8315 0.8407 0.0
C180 C 0.81594 0.19627 0.24944 0.0
C181 C 0.79812 0.21377 0.23074 0.0
C182 C 0.79123 0.24122 0.24431 0.0
C183 C 0.79889 0.24926 0.27686 0.0
H184 H 0.73996 0.26929 0.35295 0.0
H185 H 0.69273 0.28477 0.38017 0.0
H186 H 0.73521 0.27547 0.4745 0.0
H187 H 0.78296 0.25983 0.4473 0.0
H188 H 0.86077 0.2359 0.44404 0.0
H189 H 0.88953 0.20427 0.47708 0.0
H190 H 0.87873 0.13586 0.39947 0.0
H191 H 0.85239 0.16851 0.36592 0.0
H192 H 0.83604 0.18957 0.29602 0.0
H193 H 0.82149 0.17486 0.24011 0.0
H194 H 0.77839 0.25573 0.23034 0.0
H195 H 0.79149 0.26958 0.28723 0.0
N196 N 0.7941 0.24981 0.34792 0.0
N197 N 0.81321 0.23742 0.39876 0.0
N198 N 0.83616 0.22106 0.35003 0.0
C199 C 0.79246 0.25104 0.38119 0.0
C200 C 0.83519 0.22254 0.38329 0.0
C201 C 0.81605 0.23511 0.33216 0.0
C202 C 0.76533 0.26323 0.3979 0.0
C203 C 0.73952 0.27065 0.37948 0.0
C204 C 0.71219 0.27918 0.39507 0.0
C205 C 0.71009 0.28074 0.42943 0.0
C206 C 0.7362 0.27423 0.44797 0.0
C207 C 0.76352 0.26537 0.43235 0.0
C208 C 0.8546 0.20467 0.40244 0.0
C209 C 0.8651 0.21426 0.43402 0.0
C210 C 0.88126 0.19595 0.45303 0.0
C211 C 0.8864 0.16729 0.44116 0.0
C212 C 0.87603 0.158 0.40931 0.0
C213 C 0.86072 0.17666 0.39003 0.0
C214 C 0.81421 0.23035 0.29627 0.0
C215 C 0.82413 0.20461 0.28176 0.0
C216 C 0.27539 0.62797 0.15903 0.0
C217 C 0.25652 0.64571 0.14143 0.0
C218 C 0.26745 0.6777 0.14259 0.0
C219 C 0.29628 0.69116 0.15905 0.0
H220 H 0.37066 0.76372 0.14348 0.0
H221 H 0.39502 0.81329 0.12124 0.0
H222 H 0.47284 0.82148 0.19171 0.0
H223 H 0.44794 0.77203 0.21446 0.0
H224 H 0.43829 0.71697 0.27556 0.0
H225 H 0.45967 0.69484 0.32317 0.0
H226 H 0.39288 0.61003 0.30582 0.0
H227 H 0.37142 0.63225 0.25806 0.0
H228 H 0.318 0.62707 0.18884 0.0
H229 H 0.26852 0.60335 0.15904 0.0
H230 H 0.25366 0.69284 0.13085 0.0
H231 H 0.30344 0.71578 0.15859 0.0
N232 N 0.36257 0.71685 0.18144 0.0
N233 N 0.40358 0.71915 0.22112 0.0
N234 N 0.36056 0.67614 0.21793 0.0
C235 C 0.3908 0.73226 0.19515 0.0
C236 C 0.38872 0.69102 0.23287 0.0
C237 C 0.34713 0.68896 0.19229 0.0
C238 C 0.4069 0.76324 0.18128 0.0
C239 C 0.393 0.77593 0.15445 0.0
C240 C 0.40728 0.80465 0.1413 0.0
C241 C 0.43619 0.8223 0.15432 0.0
C242 C 0.45032 0.80941 0.18095 0.0
C243 C 0.43604 0.78062 0.1941 0.0
C244 C 0.40274 0.6768 0.26229 0.0
C245 C 0.42803 0.69357 0.28164 0.0
C246 C 0.4403 0.68073 0.30943 0.0
C247 C 0.42823 0.65031 0.31923 0.0
C248 C 0.40334 0.63333 0.29951 0.0
C249 C 0.39076 0.64631 0.2719 0.0
C250 C 0.31544 0.67353 0.17604 0.0
C251 C 0.30414 0.64163 0.17619 0.0
C252 C 0.1517 0.27329 0.63043 0.0
C253 C 0.12453 0.25329 0.64399 0.0
C254 C 0.11127 0.2626 0.67401 0.0
C255 C 0.12436 0.29112 0.68928 0.0
H256 H 0.11132 0.3646 0.76744 0.0
H257 H 0.08913 0.39247 0.81293 0.0
H258 H 0.17287 0.46548 0.80323 0.0
H259 H 0.19451 0.43838 0.75836 0.0
H260 H 0.25073 0.44163 0.70051 0.0
H261 H 0.29973 0.46692 0.66955 0.0
H262 H 0.29006 0.38959 0.60316 0.0
H263 H 0.24169 0.3648 0.63329 0.0
H264 H 0.18562 0.31544 0.63357 0.0
H265 H 0.16333 0.2672 0.60786 0.0
H266 H 0.09031 0.24811 0.68542 0.0
H267 H 0.11326 0.29742 0.71205 0.0
N268 N 0.15375 0.35511 0.71707 0.0
N269 N 0.1972 0.39785 0.71369 0.0
N270 N 0.19505 0.35738 0.67603 0.0
C271 C 0.16885 0.38329 0.72905 0.0
C272 C 0.21058 0.38512 0.68716 0.0
C273 C 0.16689 0.34192 0.6903 0.0
C274 C 0.15483 0.39902 0.75833 0.0
C275 C 0.12509 0.38657 0.77504 0.0
C276 C 0.11235 0.40258 0.80147 0.0
C277 C 0.12872 0.43175 0.81206 0.0
C278 C 0.15881 0.44355 0.79584 0.0
C279 C 0.17147 0.4277 0.76978 0.0
C280 C 0.24156 0.40105 0.66953 0.0
C281 C 0.25908 0.42998 0.67933 0.0
C282 C 0.28743 0.44449 0.6616 0.0
C283 C 0.29903 0.43067 0.63335 0.0
C284 C 0.28185 0.40152 0.62421 0.0
C285 C 0.25386 0.38708 0.64182 0.0
C286 C 0.15145 0.31116 0.67526 0.0
C287 C 0.16477 0.30133 0.64559 0.0
Gd288 Gd 0.04456 0.03855 0.50221 0.0
Gd289 Gd 1.01101 1.01523 0.56524 0.0
C290 C 0.0542 0.08249 0.56934 0.0
C291 C 0.06764 0.07085 0.45214 0.0
C292 C 0.0943 0.0973 0.44599 0.0
C293 C 0.12496 0.09253 0.43353 0.0
C294 C 0.08938 0.12739 0.45177 0.0
C295 C 0.14522 0.14726 0.43245 0.0
C296 C 0.11461 0.15214 0.44501 0.0
C297 C 0.15017 0.1172 0.427 0.0
C298 C 0.0792 1.00657 0.53918 0.0
C299 C 1.00238 0.97034 0.49896 0.0
C300 C 0.98637 0.98322 0.61479 0.0
C301 C 0.95576 0.96054 0.61946 0.0
C302 C 0.92896 0.96911 0.6366 0.0
C303 C 0.95212 0.93105 0.60545 0.0
C304 C 0.89496 0.91988 0.62433 0.0
C305 C 0.92197 0.91087 0.60796 0.0
C306 C 0.89885 0.94908 0.63885 0.0
C307 C 0.97558 0.04616 0.52783 0.0
O308 O 0.05472 0.08106 0.53666 0.0
O309 O 0.04292 0.05756 0.58637 0.0
O310 O 0.07692 0.0453 0.45963 0.0
O311 O 0.04203 0.07582 0.46946 0.0
O312 O 0.07938 1.00551 0.50744 0.0
O313 O 0.06265 1.02587 0.54964 0.0
O314 O 1.00129 0.97295 0.53149 0.0
O315 O 1.01445 0.99455 0.48095 0.0
O316 O 0.98217 1.01124 0.61022 0.0
O317 O 1.00938 0.97542 0.59555 0.0
O318 O 0.97487 0.04704 0.55954 0.0
O319 O 0.99284 1.02738 0.51762 0.0
H320 H 0.12941 0.06967 0.42842 0.0
H321 H 0.06599 0.13188 0.46122 0.0
H322 H 0.11014 0.17509 0.44943 0.0
H323 H 0.17324 0.11273 0.41666 0.0
H324 H 0.93113 0.99155 0.6479 0.0
H325 H 0.97234 0.92367 0.5922 0.0
H326 H 0.91964 0.88839 0.59673 0.0
H327 H 0.87866 0.95635 0.6523 0.0
Gd328 Gd 0.55302 0.03249 0.03879 0.0
Gd329 Gd 0.49527 1.0274 1.00351 0.0
C330 C 0.50224 0.06979 0.06881 0.0
C331 C 0.61335 0.0441 0.05806 0.0
C332 C 0.63367 0.07016 0.0749 0.0
C333 C 0.62194 0.08311 0.10335 0.0
C334 C 0.66484 0.08278 0.06202 0.0
C335 C 0.67291 0.12032 0.10656 0.0
C336 C 0.68428 0.10771 0.07762 0.0
C337 C 0.64144 0.10774 0.11913 0.0
C338 C 0.50724 0.98392 0.06163 0.0
C339 C 0.54538 0.98869 0.9747 0.0
C340 C 0.43494 1.01705 0.98394 0.0
C341 C 0.41233 0.99097 0.96955 0.0
C342 C 0.42161 0.97525 0.94182 0.0
C343 C 0.38103 0.9815 0.98389 0.0
C344 C 0.36808 0.94146 0.94234 0.0
C345 C 0.35914 0.95691 0.97051 0.0
C346 C 0.39965 0.9509 0.92825 0.0
C347 C 0.54119 0.07632 0.98145 0.0
O348 O 0.53391 0.06928 0.06681 0.0
O349 O 0.48178 0.05236 0.04906 0.0
O350 O 0.58925 0.02827 0.07519 0.0
O351 O 0.60488 0.04909 0.02824 0.0
O352 O 0.5262 1.00355 0.07979 0.0
O353 O 0.51312 0.99109 0.03172 0.0
O354 O 0.51376 0.98942 0.97695 0.0
O355 O 0.56615 1.00666 0.99369 0.0
O356 O 0.45988 0.02977 0.96565 0.0
O357 O 0.44298 1.01409 1.01437 0.0
O358 O 0.52258 0.05678 0.96294 0.0
O359 O 0.53483 0.06885 1.01117 0.0
H360 H 0.5978 0.07406 0.11365 0.0
H361 H 0.67416 0.07333 0.03986 0.0
H362 H 0.70818 0.11707 0.06702 0.0
H363 H 0.63206 0.11639 0.14168 0.0
H364 H 0.44571 0.9819 0.93037 0.0
H365 H 0.3735 0.99319 1.00546 0.0
H366 H 0.33524 0.95001 0.98228 0.0
H367 H 0.40723 0.93994 0.90624 0.0
Gd368 Gd 0.52581 0.5058 0.50641 0.0
Gd369 Gd 0.5325 0.56134 0.54079 0.0
C370 C 0.55951 0.50871 0.57961 0.0
C371 C 0.53426 0.45652 0.47536 0.0
C372 C 0.548 0.42909 0.4812 0.0
C373 C 0.56009 0.42353 0.51198 0.0
C374 C 0.55198 0.40982 0.45464 0.0
C375 C 0.58332 0.38142 0.48859 0.0
C376 C 0.56945 0.38614 0.45826 0.0
C377 C 0.57771 0.39984 0.51568 0.0
C378 C 0.46913 0.5095 0.54101 0.0
C379 C 0.49786 0.55782 0.46853 0.0
C380 C 0.5238 0.61123 0.57035 0.0
C381 C 0.49834 0.63021 0.56997 0.0
C382 C 0.50504 0.65997 0.58279 0.0
C383 C 0.46668 0.61815 0.55869 0.0
C384 C 0.44757 0.66441 0.57638 0.0
C385 C 0.44145 0.63509 0.56193 0.0
C386 C 0.47987 0.67702 0.58588 0.0
C387 C 0.58898 0.55785 0.50588 0.0
O388 O 0.55337 0.49315 0.55169 0.0
O389 O 0.55244 0.53646 0.582 0.0
O390 O 0.50712 0.45905 0.49123 0.0
O391 O 0.55565 0.48201 0.47482 0.0
O392 O 0.47031 0.50001 0.51085 0.0
O393 O 0.49835 0.5177 0.55116 0.0
O394 O 0.49994 0.57127 0.49792 0.0
O395 O 0.50946 0.53223 0.46461 0.0
O396 O 0.54162 0.6109 0.54363 0.0
O397 O 0.51445 0.58411 0.58261 0.0
O398 O 0.58795 0.56742 0.536 0.0
O399 O 0.55969 0.54964 0.49589 0.0
H400 H 0.55699 0.43815 0.53276 0.0
H401 H 0.54289 0.41394 0.43068 0.0
H402 H 0.57378 0.37277 0.43674 0.0
H403 H 0.58789 0.39661 0.53937 0.0
H404 H 0.52946 0.66966 0.59134 0.0
H405 H 0.46115 0.59517 0.5486 0.0
H406 H 0.41684 0.62458 0.55466 0.0
H407 H 0.48547 0.69975 0.59656 0.0
Gd408 Gd 0.0266 0.49689 0.04066 0.0
Gd409 Gd 0.02773 0.56175 1.00598 0.0
C410 C 0.0885 0.55471 0.05451 0.0
C411 C 0.04331 0.44477 0.05039 0.0
C412 C 0.06594 0.43235 0.07145 0.0
C413 C 0.07674 0.44668 0.10121 0.0
C414 C 0.07995 0.40788 0.05952 0.0
C415 C 0.11662 0.41295 0.10597 0.0
C416 C 0.10513 0.39829 0.07657 0.0
C417 C 0.10175 0.43683 0.11854 0.0
C418 C 1.00316 0.53734 0.08325 0.0
C419 C 0.96567 0.50388 0.99242 0.0
C420 C 1.01087 0.6137 0.99524 0.0
C421 C 0.9873 0.62428 0.97376 0.0
C422 C 0.98212 0.6544 0.97648 0.0
C423 C 0.96683 0.60341 0.9537 0.0
C424 C 0.93419 0.64207 0.94143 0.0
C425 C 0.94041 0.61214 0.9378 0.0
C426 C 0.95593 0.66332 0.96027 0.0
C427 C 0.05141 0.52137 0.96344 0.0
O428 O 0.07545 0.52519 0.05785 0.0
O429 O 0.0744 0.57331 0.03645 0.0
O430 O 1.01706 0.45273 0.06422 0.0
O431 O 0.05799 0.46446 0.02894 0.0
O432 O 1.00426 0.50909 0.09011 0.0
O433 O 1.01389 0.54122 0.0539 0.0
O434 O 0.97875 0.53338 0.98911 0.0
O435 O 0.97982 0.48527 1.01039 0.0
O436 O 0.03683 0.60541 0.98122 0.0
O437 O 0.99707 0.59476 1.01781 0.0
O438 O 0.05036 0.54964 0.95667 0.0
O439 O 0.0405 0.51743 0.99273 0.0
H440 H 0.06659 0.46601 0.11047 0.0
H441 H 0.07215 0.39681 0.0364 0.0
H442 H 0.11596 0.37964 0.06655 0.0
H443 H 0.11034 0.44861 0.14106 0.0
H444 H 0.99764 0.67077 0.99201 0.0
H445 H 0.97049 0.58003 0.95143 0.0
H446 H 0.92412 0.59504 0.92381 0.0
H447 H 0.95239 0.68672 0.96302 0.0
H448 H 0.23922 0.25172 0.35894 0.0
H449 H 0.31289 0.2092 0.40399 0.0
H450 H 0.26981 0.17617 0.43531 0.0
H451 H 0.21091 0.15517 0.44428 0.0
H452 H 0.13775 0.19727 0.3979 0.0
H453 H 0.1811 0.23543 0.37356 0.0
C454 C 0.24609 0.23598 0.3764 0.0
C455 C 0.27927 0.23274 0.37881 0.0
C456 C 0.22123 0.21681 0.3939 0.0
C457 C 0.2875 0.21182 0.40125 0.0
C458 C 0.26289 0.19292 0.41915 0.0
C459 C 0.20452 0.17295 0.42914 0.0
C460 C 0.17123 0.17318 0.42253 0.0
C461 C 0.2296 0.19446 0.41471 0.0
C462 C 0.16318 0.19664 0.40343 0.0
C463 C 0.18797 0.21833 0.3893 0.0
H464 H 0.29063 0.83592 0.85513 0.0
H465 H 0.21045 0.88316 0.87887 0.0
H466 H 0.24618 0.9177 0.91555 0.0
H467 H 0.30172 0.93778 0.93576 0.0
H468 H 0.38086 0.88872 0.91375 0.0
H469 H 0.34362 0.85132 0.8816 0.0
C470 C 0.28047 0.85308 0.86905 0.0
C471 C 0.24789 0.85706 0.86385 0.0
C472 C 0.30111 0.87284 0.89002 0.0
C473 C 0.23559 0.8799 0.88184 0.0
C474 C 0.256 0.89965 0.90288 0.0
C475 C 0.31071 0.91853 0.92464 0.0
C476 C 0.34429 0.91649 0.9267 0.0
C477 C 0.28909 0.89689 0.90636 0.0
C478 C 0.35541 0.89141 0.91184 0.0
C479 C 0.33407 0.86986 0.89361 0.0
H480 H 0.61932 0.47411 0.71612 0.0
H481 H 0.60246 0.38437 0.67132 0.0
H482 H 0.58183 0.40483 0.62237 0.0
H483 H 0.5676 0.44836 0.59111 0.0
H484 H 0.58375 0.53789 0.63628 0.0
H485 H 0.60533 0.51757 0.68485 0.0
C486 C 0.61137 0.45887 0.69569 0.0
C487 C 0.6126 0.42724 0.69844 0.0
C488 C 0.59915 0.47092 0.66697 0.0
C489 C 0.60159 0.40849 0.67107 0.0
C490 C 0.58983 0.42032 0.64258 0.0
C491 C 0.57598 0.4636 0.61139 0.0
C492 C 0.57383 0.49505 0.60917 0.0
C493 C 0.58831 0.45153 0.64008 0.0
C494 C 0.58479 0.51378 0.63652 0.0
C495 C 0.59728 0.50207 0.66465 0.0
H496 H 0.96156 0.64474 0.17428 0.0
H497 H 0.927 0.56728 0.23604 0.0
H498 H 0.94572 0.5335 0.19542 0.0
H499 H 0.97176 0.52465 0.14223 0.0
H500 H 1.00814 0.60065 0.07967 0.0
H501 H 0.98903 0.63556 0.11997 0.0
C502 C 0.95821 0.62051 0.179 0.0
C503 C 0.94209 0.609 0.20868 0.0
C504 C 0.96929 0.60055 0.15497 0.0
C505 C 0.93834 0.57725 0.21363 0.0
C506 C 0.94932 0.55768 0.19028 0.0
C507 C 0.97547 0.54885 0.13715 0.0
C508 C 0.991 0.5596 0.10718 0.0
C509 C 0.96465 0.56889 0.16078 0.0
C510 C 0.99564 0.59126 0.10175 0.0
C511 C 0.9849 0.61138 0.12517 0.0
H512 H 0.47345 0.17605 0.16329 0.0
H513 H 0.38201 0.15884 0.11081 0.0
H514 H 0.40023 0.11728 0.08012 0.0
H515 H 0.4424 0.08663 0.06727 0.0
H516 H 0.53481 0.10447 0.11814 0.0
H517 H 0.51573 0.14464 0.15076 0.0
C518 C 0.45748 0.16304 0.14528 0.0
C519 C 0.42651 0.17062 0.13919 0.0
C520 C 0.4682 0.13922 0.12755 0.0
C521 C 0.40617 0.15376 0.11558 0.0
C522 C 0.41647 0.12986 0.09817 0.0
C523 C 0.4583 0.09907 0.08571 0.0
C524 C 0.48994 0.09248 0.09032 0.0
C525 C 0.44747 0.1225 0.10384 0.0
C526 C 0.51031 0.10907 0.11411 0.0
C527 C 0.49946 0.1321 0.13271 0.0
H528 H 0.12417 0.92215 0.6447 0.0
H529 H 0.12286 0.86234 0.5601 0.0
H530 H 0.10617 0.901 0.52578 0.0
H531 H 0.0923 0.95185 0.51971 0.0
H532 H 0.08995 1.01025 0.60477 0.0
H533 H 0.10735 0.97178 0.63925 0.0
C534 C 0.11967 0.91727 0.61889 0.0
C535 C 0.12492 0.88937 0.60503 0.0
C536 C 0.1096 0.93939 0.59939 0.0
C537 C 0.11954 0.88379 0.57135 0.0
C538 C 0.10986 0.90582 0.55171 0.0
C539 C 0.09582 0.95617 0.54577 0.0
C540 C 0.09035 0.98385 0.55976 0.0
C541 C 0.10509 0.93377 0.56543 0.0
C542 C 0.09432 0.98909 0.59357 0.0
C543 C 0.10416 0.96713 0.61323 0.0
H544 H 0.84222 0.46858 0.89705 0.0
H545 H 0.82029 0.39198 0.9625 0.0
H546 H 0.86965 0.41141 0.99305 0.0
H547 H 0.92017 0.45023 1.00235 0.0
H548 H 0.94003 0.52875 0.93982 0.0
H549 H 0.89092 0.50894 0.90831 0.0
C550 C 0.84778 0.45608 0.91813 0.0
C551 C 0.82693 0.42802 0.92629 0.0
C552 C 0.87637 0.46795 0.93673 0.0
C553 C 0.83565 0.41282 0.9541 0.0
C554 C 0.86407 0.42419 0.97217 0.0
C555 C 0.91383 0.46311 0.98187 0.0
C556 C 0.9344 0.49122 0.97386 0.0
C557 C 0.88486 0.45166 0.96373 0.0
C558 C 0.92506 0.50731 0.94713 0.0
C559 C 0.89678 0.49584 0.92881 0.0
H560 H 0.6993 0.60053 0.39489 0.0
H561 H 0.75453 0.635 0.48058 0.0
H562 H 0.70803 0.61373 0.51581 0.0
H563 H 0.65082 0.58665 0.5232 0.0
H564 H 0.59442 0.55183 0.43859 0.0
H565 H 0.6418 0.57131 0.40265 0.0
C566 C 0.70133 0.60319 0.42127 0.0
C567 C 0.73078 0.62001 0.43466 0.0
C568 C 0.674 0.59071 0.44189 0.0
C569 C 0.73235 0.623 0.46911 0.0
C570 C 0.70566 0.61059 0.4895 0.0
C571 C 0.64884 0.58309 0.4969 0.0
C572 C 0.61874 0.56768 0.48384 0.0
C573 C 0.67621 0.59467 0.47627 0.0
C574 C 0.61705 0.56347 0.44956 0.0
C575 C 0.64425 0.57475 0.42891 0.0
H576 H 0.22047 0.3657 0.19367 0.0
H577 H 0.27554 0.37455 0.10207 0.0
H578 H 0.23075 0.39367 0.076 0.0
H579 H 0.17525 0.40636 0.07872 0.0
H580 H 0.12108 0.39949 0.17059 0.0
H581 H 0.16671 0.38184 0.19736 0.0
C582 C 0.22307 0.37237 0.16818 0.0
C583 C 0.25137 0.36845 0.14986 0.0
C584 C 0.19737 0.38368 0.1534 0.0
C585 C 0.25386 0.37677 0.11666 0.0
C586 C 0.22832 0.38786 0.10174 0.0
C587 C 0.1735 0.40096 0.10461 0.0
C588 C 0.14481 0.40386 0.12265 0.0
C589 C 0.19981 0.39102 0.11976 0.0
C590 C 0.14299 0.39741 0.15628 0.0
C591 C 0.16898 0.38724 0.17151 0.0
H592 H 0.61314 0.21486 0.95503 0.0
H593 H 0.58197 0.18923 0.85643 0.0
H594 H 0.55746 0.13838 0.87496 0.0
H595 H 0.54427 0.09997 0.91892 0.0
H596 H 0.57529 0.12455 1.01751 0.0
H597 H 0.60042 0.17591 0.99922 0.0
C598 C 0.60122 0.19825 0.93736 0.0
C599 C 0.59954 0.20695 0.904 0.0
C600 C 0.58699 0.16825 0.94827 0.0
C601 C 0.58342 0.18434 0.8822 0.0
C602 C 0.56947 0.15478 0.89281 0.0
C603 C 0.55659 0.11646 0.93652 0.0
C604 C 0.55766 0.10785 0.96981 0.0
C605 C 0.57096 0.14634 0.92576 0.0
C606 C 0.57386 0.13004 0.99187 0.0
C607 C 0.58829 0.15964 0.98132 0.0
H608 H 0.93936 0.83245 0.46035 0.0
H609 H 0.97035 0.86361 0.36315 0.0
H610 H 0.9926 0.91426 0.38547 0.0
H611 H 1.00302 0.95099 0.43302 0.0
H612 H 0.97101 0.91879 0.52966 0.0
H613 H 0.94941 0.86846 0.50712 0.0
C614 C 0.95065 0.85022 0.44375 0.0
C615 C 0.9528 0.8434 0.40971 0.0
C616 C 0.96338 0.87977 0.4568 0.0
C617 C 0.96841 0.86731 0.38935 0.0
C618 C 0.98105 0.89667 0.40217 0.0
C619 C 0.99127 0.93304 0.4492 0.0
C620 C 0.9889 0.9394 0.48335 0.0
C621 C 0.97868 0.90337 0.43592 0.0
C622 C 0.97353 0.91526 0.50348 0.0
C623 C 0.96102 0.88613 0.49053 0.0
H624 H 0.31445 0.71341 0.59791 0.0
H625 H 0.35998 0.74087 0.69074 0.0
H626 H 0.40921 0.72172 0.67304 0.0
H627 H 0.43817 0.69501 0.63259 0.0
H628 H 0.39412 0.66879 0.53891 0.0
H629 H 0.34553 0.69 0.55549 0.0
C630 C 0.3353 0.71556 0.6141 0.0
C631 C 0.33328 0.72815 0.64579 0.0
C632 C 0.36377 0.70475 0.60366 0.0
C633 C 0.36049 0.73057 0.66654 0.0
C634 C 0.3888 0.71987 0.65635 0.0
C635 C 0.41832 0.69453 0.61545 0.0
C636 C 0.41978 0.68031 0.58457 0.0
C637 C 0.39054 0.70663 0.62514 0.0
C638 C 0.39345 0.67932 0.56297 0.0
C639 C 0.3657 0.69148 0.57241 0.0
H640 H 0.75031 0.85419 0.65605 0.0
H641 H 0.80346 0.78583 0.68984 0.0
H642 H 0.85398 0.81315 0.66513 0.0
H643 H 0.88511 0.86081 0.64296 0.0
H644 H 0.83341 0.93166 0.61398 0.0
H645 H 0.78067 0.89949 0.62844 0.0
C646 C 0.77285 0.84509 0.6578 0.0
C647 C 0.77287 0.81815 0.67534 0.0
C648 C 0.80242 0.8618 0.64503 0.0
C649 C 0.80227 0.8063 0.67636 0.0
C650 C 0.83149 0.82219 0.66261 0.0
C651 C 0.86223 0.86888 0.63907 0.0
C652 C 0.86308 0.89863 0.62787 0.0
C653 C 0.83213 0.8506 0.64822 0.0
C654 C 0.8333 0.90895 0.62312 0.0
C655 C 0.80318 0.89057 0.63131 0.0
H656 H 0.73737 0.2182 0.20887 0.0
H657 H 0.82342 0.17976 0.18291 0.0
H658 H 0.79269 0.14905 0.13974 0.0
H659 H 0.7394 0.12813 0.11505 0.0
H660 H 0.65449 0.16888 0.13928 0.0
H661 H 0.68724 0.20412 0.17733 0.0
C662 C 0.74996 0.204 0.19315 0.0
C663 C 0.78257 0.20093 0.19971 0.0
C664 C 0.73221 0.18644 0.1684 0.0
C665 C 0.79808 0.182 0.17906 0.0
C666 C 0.78055 0.16447 0.15429 0.0
C667 C 0.7282 0.14525 0.12789 0.0
C668 C 0.69426 0.14525 0.12488 0.0
C669 C 0.74723 0.16566 0.14962 0.0
C670 C 0.68028 0.16764 0.1419 0.0
C671 C 0.69904 0.18797 0.16353 0.0
H672 H 0.43878 0.59095 0.33129 0.0
H673 H 0.44659 0.67928 0.37836 0.0
H674 H 0.46726 0.65945 0.42773 0.0
H675 H 0.48417 0.61677 0.45875 0.0
H676 H 0.47772 0.52903 0.41063 0.0
H677 H 0.45569 0.54861 0.36196 0.0
C678 C 0.44475 0.60599 0.35231 0.0
C679 C 0.44092 0.63702 0.35015 0.0
C680 C 0.4571 0.59435 0.38118 0.0
C681 C 0.44946 0.65561 0.37824 0.0
C682 C 0.46123 0.64413 0.40694 0.0
C683 C 0.4778 0.60179 0.43775 0.0
C684 C 0.48283 0.57105 0.43917 0.0
C685 C 0.46534 0.6135 0.40889 0.0
C686 C 0.47444 0.5526 0.41099 0.0
C687 C 0.4617 0.56388 0.38279 0.0
H688 H 0.09522 0.41507 0.87218 0.0
H689 H 0.12903 0.49309 0.81098 0.0
H690 H 0.10946 0.52633 0.85164 0.0
H691 H 0.08296 0.53457 0.9047 0.0
H692 H 0.04736 0.45807 0.96685 0.0
H693 H 0.06724 0.42365 0.92646 0.0
C694 C 0.09821 0.4393 0.8676 0.0
C695 C 0.11438 0.45115 0.83805 0.0
C696 C 0.08666 0.45895 0.89167 0.0
C697 C 0.11765 0.48288 0.83327 0.0
C698 C 0.10619 0.50214 0.85665 0.0
C699 C 0.07958 0.51036 0.90968 0.0
C700 C 0.06402 0.49934 0.93954 0.0
C701 C 0.09084 0.49061 0.88602 0.0
C702 C 0.05984 0.46768 0.94484 0.0
C703 C 0.07103 0.44783 0.92138 0.0
H704 H 0.5712 0.87754 0.88608 0.0
H705 H 0.66303 0.89544 0.9379 0.0
H706 H 0.64581 0.93853 0.96663 0.0
H707 H 0.60462 0.97073 0.97755 0.0
H708 H 0.51206 0.95248 0.92696 0.0
H709 H 0.52992 0.91031 0.89673 0.0
C710 C 0.58749 0.89099 0.90354 0.0
C711 C 0.61828 0.88317 0.90995 0.0
C712 C 0.57743 0.9158 0.91999 0.0
C713 C 0.63898 0.90064 0.9329 0.0
C714 C 0.62928 0.92544 0.94915 0.0
C715 C 0.58844 0.95777 0.95966 0.0
C716 C 0.55712 0.96486 0.95441 0.0
C717 C 0.59856 0.9332 0.94292 0.0
C718 C 0.53634 0.94754 0.93142 0.0
C719 C 0.54649 0.92336 0.9142 0.0
H720 H 0.92641 0.12739 0.4219 0.0
H721 H 0.88008 0.16036 0.50789 0.0
H722 H 0.9042 0.1263 0.54211 0.0
H723 H 0.93766 0.08655 0.54766 0.0
H724 H 0.97869 0.04957 0.4612 0.0
H725 H 0.95642 0.08522 0.4269 0.0
C726 C 0.92103 0.12689 0.44802 0.0
C727 C 0.9015 0.14671 0.46212 0.0
C728 C 0.93384 0.10636 0.46747 0.0
C729 C 0.89562 0.14602 0.49626 0.0
C730 C 0.90908 0.12624 0.51589 0.0
C731 C 0.94158 0.08624 0.52128 0.0
C732 C 0.96019 0.06594 0.50693 0.0
C733 C 0.92813 0.10628 0.50174 0.0
C734 C 0.96482 0.0654 0.47276 0.0
C735 C 0.95208 0.08572 0.45318 0.0
H736 H 0.21202 0.59032 0.14977 0.0
H737 H 0.23186 0.66832 0.08606 0.0
H738 H 0.18268 0.64855 0.05543 0.0
H739 H 0.13289 0.60913 0.04561 0.0
H740 H 0.11517 0.52907 0.10601 0.0
H741 H 0.1641 0.54925 0.13776 0.0
C742 C 0.20603 0.60306 0.12905 0.0
C743 C 0.22621 0.63161 0.12145 0.0
C744 C 0.17755 0.591 0.11036 0.0
C745 C 0.21699 0.64709 0.09407 0.0
C746 C 0.18868 0.63553 0.07595 0.0
C747 C 0.13965 0.59598 0.06567 0.0
C748 C 0.1197 0.56742 0.0731 0.0
C749 C 0.16852 0.60759 0.08386 0.0
C750 C 0.1296 0.55098 0.09927 0.0
C751 C 0.15779 0.56261 0.11768 0.0
H752 H 0.35918 0.46604 0.65205 0.0
H753 H 0.30399 0.43139 0.5664 0.0
H754 H 0.35024 0.45312 0.5311 0.0
H755 H 0.40734 0.48049 0.52365 0.0
H756 H 0.46365 0.51555 0.60823 0.0
H757 H 0.41644 0.49575 0.64422 0.0
C758 C 0.35711 0.46346 0.62566 0.0
C759 C 0.32777 0.44642 0.6123 0.0
C760 C 0.38429 0.4762 0.60501 0.0
C761 C 0.32611 0.44355 0.57784 0.0
C762 C 0.35266 0.45622 0.55741 0.0
C763 C 0.40932 0.48405 0.54995 0.0
C764 C 0.43936 0.49959 0.56299 0.0
C765 C 0.38204 0.47229 0.57061 0.0
C766 C 0.44107 0.5038 0.59727 0.0
C767 C 0.41396 0.49234 0.61796 0.0
H768 H 0.81113 0.66475 0.86203 0.0
H769 H 0.80235 0.72423 0.94523 0.0
H770 H 0.84924 0.70812 0.97051 0.0
H771 H 0.89438 0.67912 0.96793 0.0
H772 H 0.90663 0.62404 0.88199 0.0
H773 H 0.85703 0.63695 0.85872 0.0
C774 C 0.81957 0.67452 0.88554 0.0
C775 C 0.80307 0.69587 0.90147 0.0
C776 C 0.84743 0.66615 0.89939 0.0
C777 C 0.81402 0.70744 0.93245 0.0
C778 C 0.84118 0.69852 0.94682 0.0
C779 C 0.88657 0.67026 0.94388 0.0
C780 C 0.90444 0.65067 0.92678 0.0
C781 C 0.85838 0.67828 0.93026 0.0
C782 C 0.89327 0.63885 0.89598 0.0
C783 C 0.86495 0.64633 0.88254 0.0
H784 H 0.43686 0.84541 0.09038 0.0
H785 H 0.46871 0.87261 0.18841 0.0
H786 H 0.49254 0.92332 0.16901 0.0
H787 H 0.50492 0.96115 0.12445 0.0
H788 H 0.47319 0.93504 0.0264 0.0
H789 H 0.44873 0.8838 0.04557 0.0
C790 C 0.44877 0.86234 0.10773 0.0
C791 C 0.45086 0.85414 0.1412 0.0
C792 C 0.46259 0.89225 0.09632 0.0
C793 C 0.46696 0.87713 0.16258 0.0
C794 C 0.48052 0.9066 0.15148 0.0
C795 C 0.49258 0.94435 0.10715 0.0
C796 C 0.49111 0.95249 0.07376 0.0
C797 C 0.47862 0.91456 0.11842 0.0
C798 C 0.4749 0.92992 0.05211 0.0
C799 C 0.46086 0.90039 0.06316 0.0
H800 H 0.10024 0.19509 0.66863 0.0
H801 H 0.11644 0.24396 0.57762 0.0
H802 H 0.09749 0.19687 0.54692 0.0
H803 H 0.07648 0.14091 0.54492 0.0
H804 H 0.05973 0.09196 0.63585 0.0
H805 H 0.07829 0.13914 0.66666 0.0
C806 C 0.09939 0.1956 0.64211 0.0
C807 C 0.11036 0.22364 0.62587 0.0
C808 C 0.08832 0.16795 0.62413 0.0
C809 C 0.10897 0.22311 0.59125 0.0
C810 C 0.0979 0.19598 0.57344 0.0
C811 C 0.07692 0.14043 0.57147 0.0
C812 C 0.06658 0.11228 0.58765 0.0
C813 C 0.0877 0.16809 0.58947 0.0
C814 C 0.06742 0.1128 0.62227 0.0
C815 C 0.07808 0.14002 0.64013 0.0
H816 H 0.7099 0.32361 0.47736 0.0
H817 H 0.64539 0.2596 0.41673 0.0
H818 H 0.59824 0.28203 0.43506 0.0
H819 H 0.57736 0.32461 0.46148 0.0
H820 H 0.64284 0.39094 0.51881 0.0
H821 H 0.68717 0.36209 0.50991 0.0
C822 C 0.68537 0.3141 0.46888 0.0
C823 C 0.6811 0.29041 0.44534 0.0
C824 C 0.65855 0.32759 0.47891 0.0
C825 C 0.64925 0.27827 0.43441 0.0
C826 C 0.62233 0.29104 0.44491 0.0
C827 C 0.60121 0.33246 0.47244 0.0
C828 C 0.60696 0.36013 0.49023 0.0
C829 C 0.62697 0.3165 0.46605 0.0
C830 C 0.6377 0.36968 0.50501 0.0
C831 C 0.66322 0.35338 0.49961 0.0
loop_
_geom_bond_atom_site_label_1
_geom_bond_atom_site_label_2
_geom_bond_distance
_geom_bond_site_symmetry_2
_ccdc_geom_bond_type
C0 C1 1.384 . S
C0 H13 0.947 . S
C0 C35 1.382 . S
C1 C0 1.384 . S
C1 C2 1.378 . S
C2 C1 1.378 . S
C2 C3 1.378 . S
C2 H14 0.952 . S
C3 C2 1.378 . S
C3 H15 0.950 . S
C3 C34 1.383 . S
H4 C23 0.947 . S
H5 C24 0.946 . S
H6 C26 0.953 . S
H7 C27 0.945 . S
H8 C29 0.952 . S
H9 C30 0.949 . S
H10 C32 0.950 . S
H11 C33 0.948 . S
H12 C35 0.951 . S
H13 C0 0.947 . S
H14 C2 0.952 . S
H15 C3 0.950 . S
N16 C19 1.382 . S
N16 C21 1.363 . S
N17 C19 1.371 . S
N17 C20 1.372 . S
N18 C20 1.361 . S
N18 C21 1.377 . S
C19 N16 1.382 . S
C19 N17 1.371 . S
C19 C22 1.480 . S
C20 N17 1.372 . S
C20 N18 1.361 . S
C20 C28 1.457 . S
C21 N16 1.363 . S
C21 N18 1.377 . S
C21 C34 1.479 . S
C22 C19 1.480 . S
C22 C23 1.383 . S
C22 C27 1.385 . S
C23 H4 0.947 . S
C23 C22 1.383 . S
C23 C24 1.388 . S
C24 H5 0.946 . S
C24 C23 1.388 . S
C24 C25 1.384 . S
C25 C24 1.384 . S
C25 C26 1.377 . S
C26 H6 0.953 . S
C26 C25 1.377 . S
C26 C27 1.369 . S
C27 H7 0.945 . S
C27 C22 1.385 . S
C27 C26 1.369 . S
C28 C20 1.457 . S
C28 C29 1.372 . S
C28 C33 1.364 . S
C29 H8 0.952 . S
C29 C28 1.372 . S
C29 C30 1.389 . S
C30 H9 0.949 . S
C30 C29 1.389 . S
C30 C31 1.387 . S
C31 C30 1.387 . S
C31 C32 1.372 . S
C32 H10 0.950 . S
C32 C31 1.372 . S
C32 C33 1.379 . S
C33 H11 0.948 . S
C33 C28 1.364 . S
C33 C32 1.379 . S
C34 C3 1.383 . S
C34 C21 1.479 . S
C34 C35 1.398 . S
C35 C0 1.382 . S
C35 H12 0.951 . S
C35 C34 1.398 . S
C36 C37 1.384 . S
C36 H49 0.947 . S
C36 C71 1.382 . S
C37 C36 1.384 . S
C37 C38 1.378 . S
C38 C37 1.378 . S
C38 C39 1.378 . S
C38 H50 0.952 . S
C39 C38 1.378 . S
C39 H51 0.950 . S
C39 C70 1.383 . S
H40 C59 0.947 . S
H41 C60 0.946 . S
H42 C62 0.953 . S
H43 C63 0.945 . S
H44 C65 0.952 . S
H45 C66 0.949 . S
H46 C68 0.950 . S
H47 C69 0.948 . S
H48 C71 0.951 . S
H49 C36 0.947 . S
H50 C38 0.952 . S
H51 C39 0.950 . S
N52 C55 1.382 . S
N52 C57 1.363 . S
N53 C55 1.371 . S
N53 C56 1.372 . S
N54 C56 1.361 . S
N54 C57 1.377 . S
C55 N52 1.382 . S
C55 N53 1.371 . S
C55 C58 1.480 . S
C56 N53 1.372 . S
C56 N54 1.361 . S
C56 C64 1.457 . S
C57 N52 1.363 . S
C57 N54 1.377 . S
C57 C70 1.479 . S
C58 C55 1.480 . S
C58 C59 1.383 . S
C58 C63 1.385 . S
C59 H40 0.947 . S
C59 C58 1.383 . S
C59 C60 1.388 . S
C60 H41 0.946 . S
C60 C59 1.388 . S
C60 C61 1.384 . S
C61 C60 1.384 . S
C61 C62 1.377 . S
C62 H42 0.953 . S
C62 C61 1.377 . S
C62 C63 1.369 . S
C63 H43 0.945 . S
C63 C58 1.385 . S
C63 C62 1.369 . S
C64 C56 1.457 . S
C64 C65 1.372 . S
C64 C69 1.364 . S
C65 H44 0.952 . S
C65 C64 1.372 . S
C65 C66 1.389 . S
C66 H45 0.949 . S
C66 C65 1.389 . S
C66 C67 1.387 . S
C67 C66 1.387 . S
C67 C68 1.372 . S
C68 H46 0.950 . S
C68 C67 1.372 . S
C68 C69 1.379 . S
C69 H47 0.948 . S
C69 C64 1.364 . S
C69 C68 1.379 . S
C70 C39 1.383 . S
C70 C57 1.479 . S
C70 C71 1.398 . S
C71 C36 1.382 . S
C71 H48 0.951 . S
C71 C70 1.398 . S
C72 C73 1.384 . S
C72 H85 0.947 . S
C72 C107 1.382 . S
C73 C72 1.384 . S
C73 C74 1.378 . S
C74 C73 1.378 . S
C74 C75 1.378 . S
C74 H86 0.952 . S
C75 C74 1.378 . S
C75 H87 0.950 . S
C75 C106 1.383 . S
H76 C95 0.947 . S
H77 C96 0.946 . S
H78 C98 0.953 . S
H79 C99 0.945 . S
H80 C101 0.952 . S
H81 C102 0.949 . S
H82 C104 0.950 . S
H83 C105 0.948 . S
H84 C107 0.951 . S
H85 C72 0.947 . S
H86 C74 0.952 . S
H87 C75 0.950 . S
N88 C91 1.382 . S
N88 C93 1.363 . S
N89 C91 1.371 . S
N89 C92 1.372 . S
N90 C92 1.361 . S
N90 C93 1.377 . S
C91 N88 1.382 . S
C91 N89 1.371 . S
C91 C94 1.480 . S
C92 N89 1.372 . S
C92 N90 1.361 . S
C92 C100 1.457 . S
C93 N88 1.363 . S
C93 N90 1.377 . S
C93 C106 1.479 . S
C94 C91 1.480 . S
C94 C95 1.383 . S
C94 C99 1.385 . S
C95 H76 0.947 . S
C95 C94 1.383 . S
C95 C96 1.388 . S
C96 H77 0.946 . S
C96 C95 1.388 . S
C96 C97 1.384 . S
C97 C96 1.384 . S
C97 C98 1.377 . S
C98 H78 0.953 . S
C98 C97 1.377 . S
C98 C99 1.369 . S
C99 H79 0.945 . S
C99 C94 1.385 . S
C99 C98 1.369 . S
C100 C92 1.457 . S
C100 C101 1.372 . S
C100 C105 1.364 . S
C101 H80 0.952 . S
C101 C100 1.372 . S
C101 C102 1.389 . S
C102 H81 0.949 . S
C102 C101 1.389 . S
C102 C103 1.387 . S
C103 C102 1.387 . S
C103 C104 1.372 . S
C104 H82 0.950 . S
C104 C103 1.372 . S
C104 C105 1.379 . S
C105 H83 0.948 . S
C105 C100 1.364 . S
C105 C104 1.379 . S
C106 C75 1.383 . S
C106 C93 1.479 . S
C106 C107 1.398 . S
C107 C72 1.382 . S
C107 H84 0.951 . S
C107 C106 1.398 . S
C108 C109 1.384 . S
C108 H121 0.947 . S
C108 C143 1.382 . S
C109 C108 1.384 . S
C109 C110 1.378 . S
C110 C109 1.378 . S
C110 C111 1.378 . S
C110 H122 0.952 . S
C111 C110 1.378 . S
C111 H123 0.950 . S
C111 C142 1.383 . S
H112 C131 0.947 . S
H113 C132 0.946 . S
H114 C134 0.953 . S
H115 C135 0.945 . S
H116 C137 0.952 . S
H117 C138 0.949 . S
H118 C140 0.950 . S
H119 C141 0.948 . S
H120 C143 0.951 . S
H121 C108 0.947 . S
H122 C110 0.952 . S
H123 C111 0.950 . S
N124 C127 1.382 . S
N124 C129 1.363 . S
N125 C127 1.371 . S
N125 C128 1.372 . S
N126 C128 1.361 . S
N126 C129 1.377 . S
C127 N124 1.382 . S
C127 N125 1.371 . S
C127 C130 1.480 . S
C128 N125 1.372 . S
C128 N126 1.361 . S
C128 C136 1.457 . S
C129 N124 1.363 . S
C129 N126 1.377 . S
C129 C142 1.479 . S
C130 C127 1.480 . S
C130 C131 1.383 . S
C130 C135 1.385 . S
C131 H112 0.947 . S
C131 C130 1.383 . S
C131 C132 1.388 . S
C132 H113 0.946 . S
C132 C131 1.388 . S
C132 C133 1.384 . S
C133 C132 1.384 . S
C133 C134 1.377 . S
C134 H114 0.953 . S
C134 C133 1.377 . S
C134 C135 1.369 . S
C135 H115 0.945 . S
C135 C130 1.385 . S
C135 C134 1.369 . S
C136 C128 1.457 . S
C136 C137 1.372 . S
C136 C141 1.364 . S
C137 H116 0.952 . S
C137 C136 1.372 . S
C137 C138 1.389 . S
C138 H117 0.949 . S
C138 C137 1.389 . S
C138 C139 1.387 . S
C139 C138 1.387 . S
C139 C140 1.372 . S
C140 H118 0.950 . S
C140 C139 1.372 . S
C140 C141 1.379 . S
C141 H119 0.948 . S
C141 C136 1.364 . S
C141 C140 1.379 . S
C142 C111 1.383 . S
C142 C129 1.479 . S
C142 C143 1.398 . S
C143 C108 1.382 . S
C143 H120 0.951 . S
C143 C142 1.398 . S
C144 C145 1.384 . S
C144 H157 0.947 . S
C144 C179 1.382 . S
C145 C144 1.384 . S
C145 C146 1.378 . S
C146 C145 1.378 . S
C146 C147 1.378 . S
C146 H158 0.952 . S
C147 C146 1.378 . S
C147 H159 0.950 . S
C147 C178 1.383 . S
H148 C167 0.947 . S
H149 C168 0.946 . S
H150 C170 0.953 . S
H151 C171 0.945 . S
H152 C173 0.952 . S
H153 C174 0.949 . S
H154 C176 0.950 . S
H155 C177 0.948 . S
H156 C179 0.951 . S
H157 C144 0.947 . S
H158 C146 0.952 . S
H159 C147 0.950 . S
N160 C163 1.382 . S
N160 C165 1.363 . S
N161 C163 1.371 . S
N161 C164 1.372 . S
N162 C164 1.361 . S
N162 C165 1.377 . S
C163 N160 1.382 . S
C163 N161 1.371 . S
C163 C166 1.480 . S
C164 N161 1.372 . S
C164 N162 1.361 . S
C164 C172 1.457 . S
C165 N160 1.363 . S
C165 N162 1.377 . S
C165 C178 1.479 . S
C166 C163 1.480 . S
C166 C167 1.383 . S
C166 C171 1.385 . S
C167 H148 0.947 . S
C167 C166 1.383 . S
C167 C168 1.388 . S
C168 H149 0.946 . S
C168 C167 1.388 . S
C168 C169 1.384 . S
C169 C168 1.384 . S
C169 C170 1.377 . S
C170 H150 0.953 . S
C170 C169 1.377 . S
C170 C171 1.369 . S
C171 H151 0.945 . S
C171 C166 1.385 . S
C171 C170 1.369 . S
C172 C164 1.457 . S
C172 C173 1.372 . S
C172 C177 1.364 . S
C173 H152 0.952 . S
C173 C172 1.372 . S
C173 C174 1.389 . S
C174 H153 0.949 . S
C174 C173 1.389 . S
C174 C175 1.387 . S
C175 C174 1.387 . S
C175 C176 1.372 . S
C176 H154 0.950 . S
C176 C175 1.372 . S
C176 C177 1.379 . S
C177 H155 0.948 . S
C177 C172 1.364 . S
C177 C176 1.379 . S
C178 C147 1.383 . S
C178 C165 1.479 . S
C178 C179 1.398 . S
C179 C144 1.382 . S
C179 H156 0.951 . S
C179 C178 1.398 . S
C180 C181 1.384 . S
C180 H193 0.947 . S
C180 C215 1.382 . S
C181 C180 1.384 . S
C181 C182 1.378 . S
C182 C181 1.378 . S
C182 C183 1.378 . S
C182 H194 0.952 . S
C183 C182 1.378 . S
C183 H195 0.950 . S
C183 C214 1.383 . S
H184 C203 0.947 . S
H185 C204 0.946 . S
H186 C206 0.953 . S
H187 C207 0.945 . S
H188 C209 0.952 . S
H189 C210 0.949 . S
H190 C212 0.950 . S
H191 C213 0.948 . S
H192 C215 0.951 . S
H193 C180 0.947 . S
H194 C182 0.952 . S
H195 C183 0.950 . S
N196 C199 1.382 . S
N196 C201 1.363 . S
N197 C199 1.371 . S
N197 C200 1.372 . S
N198 C200 1.361 . S
N198 C201 1.377 . S
C199 N196 1.382 . S
C199 N197 1.371 . S
C199 C202 1.480 . S
C200 N197 1.372 . S
C200 N198 1.361 . S
C200 C208 1.457 . S
C201 N196 1.363 . S
C201 N198 1.377 . S
C201 C214 1.479 . S
C202 C199 1.480 . S
C202 C203 1.383 . S
C202 C207 1.385 . S
C203 H184 0.947 . S
C203 C202 1.383 . S
C203 C204 1.388 . S
C204 H185 0.946 . S
C204 C203 1.388 . S
C204 C205 1.384 . S
C205 C204 1.384 . S
C205 C206 1.377 . S
C206 H186 0.953 . S
C206 C205 1.377 . S
C206 C207 1.369 . S
C207 H187 0.945 . S
C207 C202 1.385 . S
C207 C206 1.369 . S
C208 C200 1.457 . S
C208 C209 1.372 . S
C208 C213 1.364 . S
C209 H188 0.952 . S
C209 C208 1.372 . S
C209 C210 1.389 . S
C210 H189 0.949 . S
C210 C209 1.389 . S
C210 C211 1.387 . S
C211 C210 1.387 . S
C211 C212 1.372 . S
C212 H190 0.950 . S
C212 C211 1.372 . S
C212 C213 1.379 . S
C213 H191 0.948 . S
C213 C208 1.364 . S
C213 C212 1.379 . S
C214 C183 1.383 . S
C214 C201 1.479 . S
C214 C215 1.398 . S
C215 C180 1.382 . S
C215 H192 0.951 . S
C215 C214 1.398 . S
C216 C217 1.384 . S
C216 H229 0.947 . S
C216 C251 1.382 . S
C217 C216 1.384 . S
C217 C218 1.378 . S
C218 C217 1.378 . S
C218 C219 1.378 . S
C218 H230 0.952 . S
C219 C218 1.378 . S
C219 H231 0.950 . S
C219 C250 1.383 . S
H220 C239 0.947 . S
H221 C240 0.946 . S
H222 C242 0.953 . S
H223 C243 0.945 . S
H224 C245 0.952 . S
H225 C246 0.949 . S
H226 C248 0.950 . S
H227 C249 0.948 . S
H228 C251 0.951 . S
H229 C216 0.947 . S
H230 C218 0.952 . S
H231 C219 0.950 . S
N232 C235 1.382 . S
N232 C237 1.363 . S
N233 C235 1.371 . S
N233 C236 1.372 . S
N234 C236 1.361 . S
N234 C237 1.377 . S
C235 N232 1.382 . S
C235 N233 1.371 . S
C235 C238 1.480 . S
C236 N233 1.372 . S
C236 N234 1.361 . S
C236 C244 1.457 . S
C237 N232 1.363 . S
C237 N234 1.377 . S
C237 C250 1.479 . S
C238 C235 1.480 . S
C238 C239 1.383 . S
C238 C243 1.385 . S
C239 H220 0.947 . S
C239 C238 1.383 . S
C239 C240 1.388 . S
C240 H221 0.946 . S
C240 C239 1.388 . S
C240 C241 1.384 . S
C241 C240 1.384 . S
C241 C242 1.377 . S
C242 H222 0.953 . S
C242 C241 1.377 . S
C242 C243 1.369 . S
C243 H223 0.945 . S
C243 C238 1.385 . S
C243 C242 1.369 . S
C244 C236 1.457 . S
C244 C245 1.372 . S
C244 C249 1.364 . S
C245 H224 0.952 . S
C245 C244 1.372 . S
C245 C246 1.389 . S
C246 H225 0.949 . S
C246 C245 1.389 . S
C246 C247 1.387 . S
C247 C246 1.387 . S
C247 C248 1.372 . S
C248 H226 0.950 . S
C248 C247 1.372 . S
C248 C249 1.379 . S
C249 H227 0.948 . S
C249 C244 1.364 . S
C249 C248 1.379 . S
C250 C219 1.383 . S
C250 C237 1.479 . S
C250 C251 1.398 . S
C251 C216 1.382 . S
C251 H228 0.951 . S
C251 C250 1.398 . S
C252 C253 1.384 . S
C252 H265 0.947 . S
C252 C287 1.382 . S
C253 C252 1.384 . S
C253 C254 1.378 . S
C254 C253 1.378 . S
C254 C255 1.378 . S
C254 H266 0.952 . S
C255 C254 1.378 . S
C255 H267 0.950 . S
C255 C286 1.383 . S
H256 C275 0.947 . S
H257 C276 0.946 . S
H258 C278 0.953 . S
H259 C279 0.945 . S
H260 C281 0.952 . S
H261 C282 0.949 . S
H262 C284 0.950 . S
H263 C285 0.948 . S
H264 C287 0.951 . S
H265 C252 0.947 . S
H266 C254 0.952 . S
H267 C255 0.950 . S
N268 C271 1.382 . S
N268 C273 1.363 . S
N269 C271 1.371 . S
N269 C272 1.372 . S
N270 C272 1.361 . S
N270 C273 1.377 . S
C271 N268 1.382 . S
C271 N269 1.371 . S
C271 C274 1.480 . S
C272 N269 1.372 . S
C272 N270 1.361 . S
C272 C280 1.457 . S
C273 N268 1.363 . S
C273 N270 1.377 . S
C273 C286 1.479 . S
C274 C271 1.480 . S
C274 C275 1.383 . S
C274 C279 1.385 . S
C275 H256 0.947 . S
C275 C274 1.383 . S
C275 C276 1.388 . S
C276 H257 0.946 . S
C276 C275 1.388 . S
C276 C277 1.384 . S
C277 C276 1.384 . S
C277 C278 1.377 . S
C278 H258 0.953 . S
C278 C277 1.377 . S
C278 C279 1.369 . S
C279 H259 0.945 . S
C279 C274 1.385 . S
C279 C278 1.369 . S
C280 C272 1.457 . S
C280 C281 1.372 . S
C280 C285 1.364 . S
C281 H260 0.952 . S
C281 C280 1.372 . S
C281 C282 1.389 . S
C282 H261 0.949 . S
C282 C281 1.389 . S
C282 C283 1.387 . S
C283 C282 1.387 . S
C283 C284 1.372 . S
C284 H262 0.950 . S
C284 C283 1.372 . S
C284 C285 1.379 . S
C285 H263 0.948 . S
C285 C280 1.364 . S
C285 C284 1.379 . S
C286 C255 1.383 . S
C286 C273 1.479 . S
C286 C287 1.398 . S
C287 C252 1.382 . S
C287 H264 0.951 . S
C287 C286 1.398 . S
Gd288 C291 2.818 . S
Gd288 O308 2.377 . S
Gd288 O310 2.448 . S
Gd288 O311 2.506 . S
Gd288 O312 2.435 1_545 S
Gd288 O313 2.717 1_545 S
Gd288 O315 2.395 1_445 S
Gd288 O319 2.327 1_455 S
Gd289 C300 2.818 . S
Gd289 O309 2.395 1_665 S
Gd289 O313 2.327 1_655 S
Gd289 O314 2.377 . S
Gd289 O316 2.448 . S
Gd289 O317 2.506 . S
Gd289 O318 2.435 1_565 S
Gd289 O319 2.717 1_565 S
C290 O308 1.240 . S
C290 O309 1.240 . S
C291 Gd288 2.818 . S
C291 C292 1.510 . S
C291 O310 1.249 . S
C291 O311 1.252 . S
C292 C291 1.510 . S
C292 C293 1.404 . S
C292 C294 1.352 . S
C293 C292 1.404 . S
C293 C297 1.389 . S
C293 H320 0.930 . S
C294 C292 1.352 . S
C294 C296 1.374 . S
C294 H321 0.931 . S
C295 C296 1.359 . S
C295 C297 1.364 . S
C296 C294 1.374 . S
C296 C295 1.359 . S
C296 H322 0.931 . S
C297 C293 1.389 . S
C297 C295 1.364 . S
C297 H323 0.931 . S
C298 O312 1.256 . S
C298 O313 1.257 . S
C299 O314 1.240 . S
C299 O315 1.240 . S
C300 Gd289 2.818 . S
C300 C301 1.510 . S
C300 O316 1.249 . S
C300 O317 1.252 . S
C301 C300 1.510 . S
C301 C302 1.404 . S
C301 C303 1.352 . S
C302 C301 1.404 . S
C302 C306 1.389 . S
C302 H324 0.930 . S
C303 C301 1.352 . S
C303 C305 1.374 . S
C303 H325 0.931 . S
C304 C305 1.359 . S
C304 C306 1.364 . S
C305 C303 1.374 . S
C305 C304 1.359 . S
C305 H326 0.931 . S
C306 C302 1.389 . S
C306 C304 1.364 . S
C306 H327 0.931 . S
C307 O318 1.256 . S
C307 O319 1.257 . S
O308 Gd288 2.377 . S
O308 C290 1.240 . S
O309 Gd289 2.395 1_445 S
O309 C290 1.240 . S
O310 Gd288 2.448 . S
O310 C291 1.249 . S
O311 Gd288 2.506 . S
O311 C291 1.252 . S
O312 Gd288 2.435 1_565 S
O312 C298 1.256 . S
O313 Gd288 2.717 1_565 S
O313 Gd289 2.327 1_455 S
O313 C298 1.257 . S
O314 Gd289 2.377 . S
O314 C299 1.240 . S
O315 Gd288 2.395 1_665 S
O315 C299 1.240 . S
O316 Gd289 2.448 . S
O316 C300 1.249 . S
O317 Gd289 2.506 . S
O317 C300 1.252 . S
O318 Gd289 2.435 1_545 S
O318 C307 1.256 . S
O319 Gd288 2.327 1_655 S
O319 Gd289 2.717 1_545 S
O319 C307 1.257 . S
H320 C293 0.930 . S
H321 C294 0.931 . S
H322 C296 0.931 . S
H323 C297 0.931 . S
H324 C302 0.930 . S
H325 C303 0.931 . S
H326 C305 0.931 . S
H327 C306 0.931 . S
Gd328 C331 2.801 1_565 S
Gd328 O348 2.357 1_565 S
Gd328 O350 2.446 1_565 S
Gd328 O351 2.477 1_565 S
Gd328 O352 2.461 . S
Gd328 O353 2.730 . S
Gd328 O355 2.417 1_554 S
Gd328 O359 2.303 1_564 S
Gd329 C340 2.818 1_545 S
Gd329 O349 2.395 1_556 S
Gd329 O353 2.327 1_546 S
Gd329 O354 2.377 1_545 S
Gd329 O356 2.448 1_545 S
Gd329 O357 2.506 1_545 S
Gd329 O358 2.435 . S
Gd329 O359 2.717 . S
C330 O348 1.240 . S
C330 O349 1.240 . S
C331 Gd328 2.801 1_545 S
C331 C332 1.510 . S
C331 O350 1.249 . S
C331 O351 1.252 . S
C332 C331 1.510 . S
C332 C333 1.404 . S
C332 C334 1.352 . S
C333 C332 1.404 . S
C333 C337 1.389 . S
C333 H360 0.930 . S
C334 C332 1.352 . S
C334 C336 1.374 . S
C334 H361 0.931 . S
C335 C336 1.359 . S
C335 C337 1.364 . S
C336 C334 1.374 . S
C336 C335 1.359 . S
C336 H362 0.931 . S
C337 C333 1.389 . S
C337 C335 1.364 . S
C337 H363 0.931 . S
C338 O352 1.256 . S
C338 O353 1.257 . S
C339 O354 1.240 . S
C339 O355 1.240 . S
C340 Gd329 2.818 1_565 S
C340 C341 1.510 . S
C340 O356 1.249 . S
C340 O357 1.252 . S
C341 C340 1.510 . S
C341 C342 1.404 . S
C341 C343 1.352 . S
C342 C341 1.404 . S
C342 C346 1.389 . S
C342 H364 0.930 . S
C343 C341 1.352 . S
C343 C345 1.374 . S
C343 H365 0.931 . S
C344 C345 1.359 . S
C344 C346 1.364 . S
C345 C343 1.374 . S
C345 C344 1.359 . S
C345 H366 0.931 . S
C346 C342 1.389 . S
C346 C344 1.364 . S
C346 H367 0.931 . S
C347 O358 1.256 . S
C347 O359 1.257 . S
O348 Gd328 2.357 1_545 S
O348 C330 1.240 . S
O349 Gd329 2.395 1_554 S
O349 C330 1.240 . S
O350 Gd328 2.446 1_545 S
O350 C331 1.249 . S
O351 Gd328 2.477 1_545 S
O351 C331 1.252 . S
O352 Gd328 2.461 . S
O352 C338 1.256 . S
O353 Gd328 2.730 . S
O353 Gd329 2.327 1_564 S
O353 C338 1.257 . S
O354 Gd329 2.377 1_565 S
O354 C339 1.240 . S
O355 Gd328 2.417 1_556 S
O355 C339 1.240 . S
O356 Gd329 2.448 1_565 S
O356 C340 1.249 . S
O357 Gd329 2.506 1_565 S
O357 C340 1.252 . S
O358 Gd329 2.435 . S
O358 C347 1.256 . S
O359 Gd328 2.303 1_546 S
O359 Gd329 2.717 . S
O359 C347 1.257 . S
H360 C333 0.930 . S
H361 C334 0.931 . S
H362 C336 0.931 . S
H363 C337 0.931 . S
H364 C342 0.930 . S
H365 C343 0.931 . S
H366 C345 0.931 . S
H367 C346 0.931 . S
Gd368 C371 2.818 . S
Gd368 O388 2.377 . S
Gd368 O390 2.448 . S
Gd368 O391 2.506 . S
Gd368 O392 2.435 . S
Gd368 O393 2.717 . S
Gd368 O395 2.395 . S
Gd368 O399 2.327 . S
Gd369 C380 2.818 . S
Gd369 O389 2.395 . S
Gd369 O393 2.327 . S
Gd369 O394 2.377 . S
Gd369 O396 2.448 . S
Gd369 O397 2.506 . S
Gd369 O398 2.435 . S
Gd369 O399 2.717 . S
C370 O388 1.240 . S
C370 O389 1.240 . S
C371 Gd368 2.818 . S
C371 C372 1.510 . S
C371 O390 1.249 . S
C371 O391 1.252 . S
C372 C371 1.510 . S
C372 C373 1.404 . S
C372 C374 1.352 . S
C373 C372 1.404 . S
C373 C377 1.389 . S
C373 H400 0.930 . S
C374 C372 1.352 . S
C374 C376 1.374 . S
C374 H401 0.931 . S
C375 C376 1.359 . S
C375 C377 1.364 . S
C376 C374 1.374 . S
C376 C375 1.359 . S
C376 H402 0.931 . S
C377 C373 1.389 . S
C377 C375 1.364 . S
C377 H403 0.931 . S
C378 O392 1.256 . S
C378 O393 1.257 . S
C379 O394 1.240 . S
C379 O395 1.240 . S
C380 Gd369 2.818 . S
C380 C381 1.510 . S
C380 O396 1.249 . S
C380 O397 1.252 . S
C381 C380 1.510 . S
C381 C382 1.404 . S
C381 C383 1.352 . S
C382 C381 1.404 . S
C382 C386 1.389 . S
C382 H404 0.930 . S
C383 C381 1.352 . S
C383 C385 1.374 . S
C383 H405 0.931 . S
C384 C385 1.359 . S
C384 C386 1.364 . S
C385 C383 1.374 . S
C385 C384 1.359 . S
C385 H406 0.931 . S
C386 C382 1.389 . S
C386 C384 1.364 . S
C386 H407 0.931 . S
C387 O398 1.256 . S
C387 O399 1.257 . S
O388 Gd368 2.377 . S
O388 C370 1.240 . S
O389 Gd369 2.395 . S
O389 C370 1.240 . S
O390 Gd368 2.448 . S
O390 C371 1.249 . S
O391 Gd368 2.506 . S
O391 C371 1.252 . S
O392 Gd368 2.435 . S
O392 C378 1.256 . S
O393 Gd368 2.717 . S
O393 Gd369 2.327 . S
O393 C378 1.257 . S
O394 Gd369 2.377 . S
O394 C379 1.240 . S
O395 Gd368 2.395 . S
O395 C379 1.240 . S
O396 Gd369 2.448 . S
O396 C380 1.249 . S
O397 Gd369 2.506 . S
O397 C380 1.252 . S
O398 Gd369 2.435 . S
O398 C387 1.256 . S
O399 Gd368 2.327 . S
O399 Gd369 2.717 . S
O399 C387 1.257 . S
H400 C373 0.930 . S
H401 C374 0.931 . S
H402 C376 0.931 . S
H403 C377 0.931 . S
H404 C382 0.930 . S
H405 C383 0.931 . S
H406 C385 0.931 . S
H407 C386 0.931 . S
Gd408 C411 2.818 . S
Gd408 O428 2.377 . S
Gd408 O430 2.448 . S
Gd408 O431 2.506 . S
Gd408 O432 2.435 1_455 S
Gd408 O433 2.717 1_455 S
Gd408 O435 2.414 1_455 S
Gd408 O439 2.327 1_554 S
Gd409 C420 2.818 1_455 S
Gd409 O429 2.395 1_556 S
Gd409 O433 2.327 1_456 S
Gd409 O434 2.377 1_455 S
Gd409 O436 2.448 1_455 S
Gd409 O437 2.506 1_455 S
Gd409 O438 2.435 . S
Gd409 O439 2.717 . S
C410 O428 1.240 . S
C410 O429 1.240 . S
C411 Gd408 2.818 . S
C411 C412 1.510 . S
C411 O430 1.249 . S
C411 O431 1.252 . S
C412 C411 1.510 . S
C412 C413 1.404 . S
C412 C414 1.352 . S
C413 C412 1.404 . S
C413 C417 1.389 . S
C413 H440 0.930 . S
C414 C412 1.352 . S
C414 C416 1.374 . S
C414 H441 0.931 . S
C415 C416 1.359 . S
C415 C417 1.364 . S
C416 C414 1.374 . S
C416 C415 1.359 . S
C416 H442 0.931 . S
C417 C413 1.389 . S
C417 C415 1.364 . S
C417 H443 0.931 . S
C418 O432 1.256 . S
C418 O433 1.257 . S
C419 O434 1.240 . S
C419 O435 1.213 1_556 S
C420 Gd409 2.818 1_655 S
C420 C421 1.510 . S
C420 O436 1.249 . S
C420 O437 1.252 . S
C421 C420 1.510 . S
C421 C422 1.404 . S
C421 C423 1.352 . S
C422 C421 1.404 . S
C422 C426 1.389 . S
C422 H444 0.930 . S
C423 C421 1.352 . S
C423 C425 1.374 . S
C423 H445 0.931 . S
C424 C425 1.359 . S
C424 C426 1.364 . S
C425 C423 1.374 . S
C425 C424 1.359 . S
C425 H446 0.931 . S
C426 C422 1.389 . S
C426 C424 1.364 . S
C426 H447 0.931 . S
C427 O438 1.256 . S
C427 O439 1.257 . S
O428 Gd408 2.377 . S
O428 C410 1.240 . S
O429 Gd409 2.395 1_554 S
O429 C410 1.240 . S
O430 Gd408 2.448 . S
O430 C411 1.249 . S
O431 Gd408 2.506 . S
O431 C411 1.252 . S
O432 Gd408 2.435 1_655 S
O432 C418 1.256 . S
O433 Gd408 2.717 1_655 S
O433 Gd409 2.327 1_654 S
O433 C418 1.257 . S
O434 Gd409 2.377 1_655 S
O434 C419 1.240 . S
O435 Gd408 2.414 1_655 S
O435 C419 1.213 1_554 S
O436 Gd409 2.448 1_655 S
O436 C420 1.249 . S
O437 Gd409 2.506 1_655 S
O437 C420 1.252 . S
O438 Gd409 2.435 . S
O438 C427 1.256 . S
O439 Gd408 2.327 1_556 S
O439 Gd409 2.717 . S
O439 C427 1.257 . S
H440 C413 0.930 . S
H441 C414 0.931 . S
H442 C416 0.931 . S
H443 C417 0.931 . S
H444 C422 0.930 . S
H445 C423 0.931 . S
H446 C425 0.931 . S
H447 C426 0.931 . S
H448 C454 0.930 . S
H449 C457 0.930 . S
H450 C458 0.930 . S
H451 C459 0.930 . S
H452 C462 0.930 . S
H453 C463 0.930 . S
C454 H448 0.930 . S
C454 C455 1.355 . S
C454 C456 1.415 . S
C455 C454 1.355 . S
C455 C457 1.419 . S
C456 C454 1.415 . S
C456 C461 1.425 . S
C456 C463 1.409 . S
C457 H449 0.930 . S
C457 C455 1.419 . S
C457 C458 1.362 . S
C458 H450 0.930 . S
C458 C457 1.362 . S
C458 C461 1.409 . S
C459 H451 0.930 . S
C459 C460 1.355 . S
C459 C461 1.415 . S
C460 C459 1.355 . S
C460 C462 1.419 . S
C461 C456 1.425 . S
C461 C458 1.409 . S
C461 C459 1.415 . S
C462 H452 0.930 . S
C462 C460 1.419 . S
C462 C463 1.362 . S
C463 H453 0.930 . S
C463 C456 1.409 . S
C463 C462 1.362 . S
H464 C470 0.930 . S
H465 C473 0.930 . S
H466 C474 0.930 . S
H467 C475 0.930 . S
H468 C478 0.930 . S
H469 C479 0.930 . S
C470 H464 0.930 . S
C470 C471 1.355 . S
C470 C472 1.415 . S
C471 C470 1.355 . S
C471 C473 1.419 . S
C472 C470 1.415 . S
C472 C477 1.425 . S
C472 C479 1.409 . S
C473 H465 0.930 . S
C473 C471 1.419 . S
C473 C474 1.362 . S
C474 H466 0.930 . S
C474 C473 1.362 . S
C474 C477 1.409 . S
C475 H467 0.930 . S
C475 C476 1.355 . S
C475 C477 1.415 . S
C476 C475 1.355 . S
C476 C478 1.419 . S
C477 C472 1.425 . S
C477 C474 1.409 . S
C477 C475 1.415 . S
C478 H468 0.930 . S
C478 C476 1.419 . S
C478 C479 1.362 . S
C479 H469 0.930 . S
C479 C472 1.409 . S
C479 C478 1.362 . S
H480 C486 0.930 . S
H481 C489 0.930 . S
H482 C490 0.930 . S
H483 C491 0.930 . S
H484 C494 0.930 . S
H485 C495 0.930 . S
C486 H480 0.930 . S
C486 C487 1.355 . S
C486 C488 1.415 . S
C487 C486 1.355 . S
C487 C489 1.419 . S
C488 C486 1.415 . S
C488 C493 1.425 . S
C488 C495 1.409 . S
C489 H481 0.930 . S
C489 C487 1.419 . S
C489 C490 1.362 . S
C490 H482 0.930 . S
C490 C489 1.362 . S
C490 C493 1.409 . S
C491 H483 0.930 . S
C491 C492 1.355 . S
C491 C493 1.415 . S
C492 C491 1.355 . S
C492 C494 1.419 . S
C493 C488 1.425 . S
C493 C490 1.409 . S
C493 C491 1.415 . S
C494 H484 0.930 . S
C494 C492 1.419 . S
C494 C495 1.362 . S
C495 H485 0.930 . S
C495 C488 1.409 . S
C495 C494 1.362 . S
H496 C502 0.930 . S
H497 C505 0.930 . S
H498 C506 0.930 . S
H499 C507 0.930 . S
H500 C510 0.930 . S
H501 C511 0.930 . S
C502 H496 0.930 . S
C502 C503 1.355 . S
C502 C504 1.415 . S
C503 C502 1.355 . S
C503 C505 1.419 . S
C504 C502 1.415 . S
C504 C509 1.425 . S
C504 C511 1.409 . S
C505 H497 0.930 . S
C505 C503 1.419 . S
C505 C506 1.362 . S
C506 H498 0.930 . S
C506 C505 1.362 . S
C506 C509 1.409 . S
C507 H499 0.930 . S
C507 C508 1.355 . S
C507 C509 1.415 . S
C508 C507 1.355 . S
C508 C510 1.419 . S
C509 C504 1.425 . S
C509 C506 1.409 . S
C509 C507 1.415 . S
C510 H500 0.930 . S
C510 C508 1.419 . S
C510 C511 1.362 . S
C511 H501 0.930 . S
C511 C504 1.409 . S
C511 C510 1.362 . S
H512 C518 0.930 . S
H513 C521 0.930 . S
H514 C522 0.930 . S
H515 C523 0.930 . S
H516 C526 0.930 . S
H517 C527 0.930 . S
C518 H512 0.930 . S
C518 C519 1.355 . S
C518 C520 1.415 . S
C519 C518 1.355 . S
C519 C521 1.419 . S
C520 C518 1.415 . S
C520 C525 1.425 . S
C520 C527 1.409 . S
C521 H513 0.930 . S
C521 C519 1.419 . S
C521 C522 1.362 . S
C522 H514 0.930 . S
C522 C521 1.362 . S
C522 C525 1.409 . S
C523 H515 0.930 . S
C523 C524 1.355 . S
C523 C525 1.415 . S
C524 C523 1.355 . S
C524 C526 1.419 . S
C525 C520 1.425 . S
C525 C522 1.409 . S
C525 C523 1.415 . S
C526 H516 0.930 . S
C526 C524 1.419 . S
C526 C527 1.362 . S
C527 H517 0.930 . S
C527 C520 1.409 . S
C527 C526 1.362 . S
H528 C534 0.930 . S
H529 C537 0.930 . S
H530 C538 0.930 . S
H531 C539 0.930 . S
H532 C542 0.930 . S
H533 C543 0.930 . S
C534 H528 0.930 . S
C534 C535 1.355 . S
C534 C536 1.415 . S
C535 C534 1.355 . S
C535 C537 1.419 . S
C536 C534 1.415 . S
C536 C541 1.425 . S
C536 C543 1.409 . S
C537 H529 0.930 . S
C537 C535 1.419 . S
C537 C538 1.362 . S
C538 H530 0.930 . S
C538 C537 1.362 . S
C538 C541 1.409 . S
C539 H531 0.930 . S
C539 C540 1.355 . S
C539 C541 1.415 . S
C540 C539 1.355 . S
C540 C542 1.419 . S
C541 C536 1.425 . S
C541 C538 1.409 . S
C541 C539 1.415 . S
C542 H532 0.930 . S
C542 C540 1.419 . S
C542 C543 1.362 . S
C543 H533 0.930 . S
C543 C536 1.409 . S
C543 C542 1.362 . S
H544 C550 0.930 . S
H545 C553 0.930 . S
H546 C554 0.930 . S
H547 C555 0.930 . S
H548 C558 0.930 . S
H549 C559 0.930 . S
C550 H544 0.930 . S
C550 C551 1.355 . S
C550 C552 1.415 . S
C551 C550 1.355 . S
C551 C553 1.419 . S
C552 C550 1.415 . S
C552 C557 1.425 . S
C552 C559 1.409 . S
C553 H545 0.930 . S
C553 C551 1.419 . S
C553 C554 1.362 . S
C554 H546 0.930 . S
C554 C553 1.362 . S
C554 C557 1.409 . S
C555 H547 0.930 . S
C555 C556 1.355 . S
C555 C557 1.415 . S
C556 C555 1.355 . S
C556 C558 1.419 . S
C557 C552 1.425 . S
C557 C554 1.409 . S
C557 C555 1.415 . S
C558 H548 0.930 . S
C558 C556 1.419 . S
C558 C559 1.362 . S
C559 H549 0.930 . S
C559 C552 1.409 . S
C559 C558 1.362 . S
H560 C566 0.930 . S
H561 C569 0.930 . S
H562 C570 0.930 . S
H563 C571 0.930 . S
H564 C574 0.930 . S
H565 C575 0.930 . S
C566 H560 0.930 . S
C566 C567 1.355 . S
C566 C568 1.415 . S
C567 C566 1.355 . S
C567 C569 1.419 . S
C568 C566 1.415 . S
C568 C573 1.425 . S
C568 C575 1.409 . S
C569 H561 0.930 . S
C569 C567 1.419 . S
C569 C570 1.362 . S
C570 H562 0.930 . S
C570 C569 1.362 . S
C570 C573 1.409 . S
C571 H563 0.930 . S
C571 C572 1.355 . S
C571 C573 1.415 . S
C572 C571 1.355 . S
C572 C574 1.419 . S
C573 C568 1.425 . S
C573 C570 1.409 . S
C573 C571 1.415 . S
C574 H564 0.930 . S
C574 C572 1.419 . S
C574 C575 1.362 . S
C575 H565 0.930 . S
C575 C568 1.409 . S
C575 C574 1.362 . S
H576 C582 0.930 . S
H577 C585 0.930 . S
H578 C586 0.930 . S
H579 C587 0.930 . S
H580 C590 0.930 . S
H581 C591 0.930 . S
C582 H576 0.930 . S
C582 C583 1.355 . S
C582 C584 1.415 . S
C583 C582 1.355 . S
C583 C585 1.419 . S
C584 C582 1.415 . S
C584 C589 1.425 . S
C584 C591 1.409 . S
C585 H577 0.930 . S
C585 C583 1.419 . S
C585 C586 1.362 . S
C586 H578 0.930 . S
C586 C585 1.362 . S
C586 C589 1.409 . S
C587 H579 0.930 . S
C587 C588 1.355 . S
C587 C589 1.415 . S
C588 C587 1.355 . S
C588 C590 1.419 . S
C589 C584 1.425 . S
C589 C586 1.409 . S
C589 C587 1.415 . S
C590 H580 0.930 . S
C590 C588 1.419 . S
C590 C591 1.362 . S
C591 H581 0.930 . S
C591 C584 1.409 . S
C591 C590 1.362 . S
H592 C598 0.930 . S
H593 C601 0.930 . S
H594 C602 0.930 . S
H595 C603 0.930 . S
H596 C606 0.930 . S
H597 C607 0.930 . S
C598 H592 0.930 . S
C598 C599 1.355 . S
C598 C600 1.415 . S
C599 C598 1.355 . S
C599 C601 1.419 . S
C600 C598 1.415 . S
C600 C605 1.425 . S
C600 C607 1.409 . S
C601 H593 0.930 . S
C601 C599 1.419 . S
C601 C602 1.362 . S
C602 H594 0.930 . S
C602 C601 1.362 . S
C602 C605 1.409 . S
C603 H595 0.930 . S
C603 C604 1.355 . S
C603 C605 1.415 . S
C604 C603 1.355 . S
C604 C606 1.419 . S
C605 C600 1.425 . S
C605 C602 1.409 . S
C605 C603 1.415 . S
C606 H596 0.930 . S
C606 C604 1.419 . S
C606 C607 1.362 . S
C607 H597 0.930 . S
C607 C600 1.409 . S
C607 C606 1.362 . S
H608 C614 0.930 . S
H609 C617 0.930 . S
H610 C618 0.930 . S
H611 C619 0.930 . S
H612 C622 0.930 . S
H613 C623 0.930 . S
C614 H608 0.930 . S
C614 C615 1.355 . S
C614 C616 1.415 . S
C615 C614 1.355 . S
C615 C617 1.419 . S
C616 C614 1.415 . S
C616 C621 1.425 . S
C616 C623 1.409 . S
C617 H609 0.930 . S
C617 C615 1.419 . S
C617 C618 1.362 . S
C618 H610 0.930 . S
C618 C617 1.362 . S
C618 C621 1.409 . S
C619 H611 0.930 . S
C619 C620 1.355 . S
C619 C621 1.415 . S
C620 C619 1.355 . S
C620 C622 1.419 . S
C621 C616 1.425 . S
C621 C618 1.409 . S
C621 C619 1.415 . S
C622 H612 0.930 . S
C622 C620 1.419 . S
C622 C623 1.362 . S
C623 H613 0.930 . S
C623 C616 1.409 . S
C623 C622 1.362 . S
H624 C630 0.930 . S
H625 C633 0.930 . S
H626 C634 0.930 . S
H627 C635 0.930 . S
H628 C638 0.930 . S
H629 C639 0.930 . S
C630 H624 0.930 . S
C630 C631 1.355 . S
C630 C632 1.415 . S
C631 C630 1.355 . S
C631 C633 1.419 . S
C632 C630 1.415 . S
C632 C637 1.425 . S
C632 C639 1.409 . S
C633 H625 0.930 . S
C633 C631 1.419 . S
C633 C634 1.362 . S
C634 H626 0.930 . S
C634 C633 1.362 . S
C634 C637 1.409 . S
C635 H627 0.930 . S
C635 C636 1.355 . S
C635 C637 1.415 . S
C636 C635 1.355 . S
C636 C638 1.419 . S
C637 C632 1.425 . S
C637 C634 1.409 . S
C637 C635 1.415 . S
C638 H628 0.930 . S
C638 C636 1.419 . S
C638 C639 1.362 . S
C639 H629 0.930 . S
C639 C632 1.409 . S
C639 C638 1.362 . S
H640 C646 0.930 . S
H641 C649 0.930 . S
H642 C650 0.930 . S
H643 C651 0.930 . S
H644 C654 0.930 . S
H645 C655 0.930 . S
C646 H640 0.930 . S
C646 C647 1.355 . S
C646 C648 1.415 . S
C647 C646 1.355 . S
C647 C649 1.419 . S
C648 C646 1.415 . S
C648 C653 1.425 . S
C648 C655 1.409 . S
C649 H641 0.930 . S
C649 C647 1.419 . S
C649 C650 1.362 . S
C650 H642 0.930 . S
C650 C649 1.362 . S
C650 C653 1.409 . S
C651 H643 0.930 . S
C651 C652 1.355 . S
C651 C653 1.415 . S
C652 C651 1.355 . S
C652 C654 1.419 . S
C653 C648 1.425 . S
C653 C650 1.409 . S
C653 C651 1.415 . S
C654 H644 0.930 . S
C654 C652 1.419 . S
C654 C655 1.362 . S
C655 H645 0.930 . S
C655 C648 1.409 . S
C655 C654 1.362 . S
H656 C662 0.930 . S
H657 C665 0.930 . S
H658 C666 0.930 . S
H659 C667 0.930 . S
H660 C670 0.930 . S
H661 C671 0.930 . S
C662 H656 0.930 . S
C662 C663 1.355 . S
C662 C664 1.415 . S
C663 C662 1.355 . S
C663 C665 1.419 . S
C664 C662 1.415 . S
C664 C669 1.425 . S
C664 C671 1.409 . S
C665 H657 0.930 . S
C665 C663 1.419 . S
C665 C666 1.362 . S
C666 H658 0.930 . S
C666 C665 1.362 . S
C666 C669 1.409 . S
C667 H659 0.930 . S
C667 C668 1.355 . S
C667 C669 1.415 . S
C668 C667 1.355 . S
C668 C670 1.419 . S
C669 C664 1.425 . S
C669 C666 1.409 . S
C669 C667 1.415 . S
C670 H660 0.930 . S
C670 C668 1.419 . S
C670 C671 1.362 . S
C671 H661 0.930 . S
C671 C664 1.409 . S
C671 C670 1.362 . S
H672 C678 0.930 . S
H673 C681 0.930 . S
H674 C682 0.930 . S
H675 C683 0.930 . S
H676 C686 0.930 . S
H677 C687 0.930 . S
C678 H672 0.930 . S
C678 C679 1.355 . S
C678 C680 1.415 . S
C679 C678 1.355 . S
C679 C681 1.419 . S
C680 C678 1.415 . S
C680 C685 1.425 . S
C680 C687 1.409 . S
C681 H673 0.930 . S
C681 C679 1.419 . S
C681 C682 1.362 . S
C682 H674 0.930 . S
C682 C681 1.362 . S
C682 C685 1.409 . S
C683 H675 0.930 . S
C683 C684 1.355 . S
C683 C685 1.415 . S
C684 C683 1.355 . S
C684 C686 1.419 . S
C685 C680 1.425 . S
C685 C682 1.409 . S
C685 C683 1.415 . S
C686 H676 0.930 . S
C686 C684 1.419 . S
C686 C687 1.362 . S
C687 H677 0.930 . S
C687 C680 1.409 . S
C687 C686 1.362 . S
H688 C694 0.930 . S
H689 C697 0.930 . S
H690 C698 0.930 . S
H691 C699 0.930 . S
H692 C702 0.930 . S
H693 C703 0.930 . S
C694 H688 0.930 . S
C694 C695 1.355 . S
C694 C696 1.415 . S
C695 C694 1.355 . S
C695 C697 1.419 . S
C696 C694 1.415 . S
C696 C701 1.425 . S
C696 C703 1.409 . S
C697 H689 0.930 . S
C697 C695 1.419 . S
C697 C698 1.362 . S
C698 H690 0.930 . S
C698 C697 1.362 . S
C698 C701 1.409 . S
C699 H691 0.930 . S
C699 C700 1.355 . S
C699 C701 1.415 . S
C700 C699 1.355 . S
C700 C702 1.419 . S
C701 C696 1.425 . S
C701 C698 1.409 . S
C701 C699 1.415 . S
C702 H692 0.930 . S
C702 C700 1.419 . S
C702 C703 1.362 . S
C703 H693 0.930 . S
C703 C696 1.409 . S
C703 C702 1.362 . S
H704 C710 0.930 . S
H705 C713 0.930 . S
H706 C714 0.930 . S
H707 C715 0.930 . S
H708 C718 0.930 . S
H709 C719 0.930 . S
C710 H704 0.930 . S
C710 C711 1.355 . S
C710 C712 1.415 . S
C711 C710 1.355 . S
C711 C713 1.419 . S
C712 C710 1.415 . S
C712 C717 1.425 . S
C712 C719 1.409 . S
C713 H705 0.930 . S
C713 C711 1.419 . S
C713 C714 1.362 . S
C714 H706 0.930 . S
C714 C713 1.362 . S
C714 C717 1.409 . S
C715 H707 0.930 . S
C715 C716 1.355 . S
C715 C717 1.415 . S
C716 C715 1.355 . S
C716 C718 1.419 . S
C717 C712 1.425 . S
C717 C714 1.409 . S
C717 C715 1.415 . S
C718 H708 0.930 . S
C718 C716 1.419 . S
C718 C719 1.362 . S
C719 H709 0.930 . S
C719 C712 1.409 . S
C719 C718 1.362 . S
H720 C726 0.930 . S
H721 C729 0.930 . S
H722 C730 0.930 . S
H723 C731 0.930 . S
H724 C734 0.930 . S
H725 C735 0.930 . S
C726 H720 0.930 . S
C726 C727 1.355 . S
C726 C728 1.415 . S
C727 C726 1.355 . S
C727 C729 1.419 . S
C728 C726 1.415 . S
C728 C733 1.425 . S
C728 C735 1.409 . S
C729 H721 0.930 . S
C729 C727 1.419 . S
C729 C730 1.362 . S
C730 H722 0.930 . S
C730 C729 1.362 . S
C730 C733 1.409 . S
C731 H723 0.930 . S
C731 C732 1.355 . S
C731 C733 1.415 . S
C732 C731 1.355 . S
C732 C734 1.419 . S
C733 C728 1.425 . S
C733 C730 1.409 . S
C733 C731 1.415 . S
C734 H724 0.930 . S
C734 C732 1.419 . S
C734 C735 1.362 . S
C735 H725 0.930 . S
C735 C728 1.409 . S
C735 C734 1.362 . S
H736 C742 0.930 . S
H737 C745 0.930 . S
H738 C746 0.930 . S
H739 C747 0.930 . S
H740 C750 0.930 . S
H741 C751 0.930 . S
C742 H736 0.930 . S
C742 C743 1.355 . S
C742 C744 1.415 . S
C743 C742 1.355 . S
C743 C745 1.419 . S
C744 C742 1.415 . S
C744 C749 1.425 . S
C744 C751 1.409 . S
C745 H737 0.930 . S
C745 C743 1.419 . S
C745 C746 1.362 . S
C746 H738 0.930 . S
C746 C745 1.362 . S
C746 C749 1.409 . S
C747 H739 0.930 . S
C747 C748 1.355 . S
C747 C749 1.415 . S
C748 C747 1.355 . S
C748 C750 1.419 . S
C749 C744 1.425 . S
C749 C746 1.409 . S
C749 C747 1.415 . S
C750 H740 0.930 . S
C750 C748 1.419 . S
C750 C751 1.362 . S
C751 H741 0.930 . S
C751 C744 1.409 . S
C751 C750 1.362 . S
H752 C758 0.930 . S
H753 C761 0.930 . S
H754 C762 0.930 . S
H755 C763 0.930 . S
H756 C766 0.930 . S
H757 C767 0.930 . S
C758 H752 0.930 . S
C758 C759 1.355 . S
C758 C760 1.415 . S
C759 C758 1.355 . S
C759 C761 1.419 . S
C760 C758 1.415 . S
C760 C765 1.425 . S
C760 C767 1.409 . S
C761 H753 0.930 . S
C761 C759 1.419 . S
C761 C762 1.362 . S
C762 H754 0.930 . S
C762 C761 1.362 . S
C762 C765 1.409 . S
C763 H755 0.930 . S
C763 C764 1.355 . S
C763 C765 1.415 . S
C764 C763 1.355 . S
C764 C766 1.419 . S
C765 C760 1.425 . S
C765 C762 1.409 . S
C765 C763 1.415 . S
C766 H756 0.930 . S
C766 C764 1.419 . S
C766 C767 1.362 . S
C767 H757 0.930 . S
C767 C760 1.409 . S
C767 C766 1.362 . S
H768 C774 0.930 . S
H769 C777 0.930 . S
H770 C778 0.930 . S
H771 C779 0.930 . S
H772 C782 0.930 . S
H773 C783 0.930 . S
C774 H768 0.930 . S
C774 C775 1.355 . S
C774 C776 1.415 . S
C775 C774 1.355 . S
C775 C777 1.419 . S
C776 C774 1.415 . S
C776 C781 1.425 . S
C776 C783 1.409 . S
C777 H769 0.930 . S
C777 C775 1.419 . S
C777 C778 1.362 . S
C778 H770 0.930 . S
C778 C777 1.362 . S
C778 C781 1.409 . S
C779 H771 0.930 . S
C779 C780 1.355 . S
C779 C781 1.415 . S
C780 C779 1.355 . S
C780 C782 1.419 . S
C781 C776 1.425 . S
C781 C778 1.409 . S
C781 C779 1.415 . S
C782 H772 0.930 . S
C782 C780 1.419 . S
C782 C783 1.362 . S
C783 H773 0.930 . S
C783 C776 1.409 . S
C783 C782 1.362 . S
H784 C790 0.930 . S
H785 C793 0.930 . S
H786 C794 0.930 . S
H787 C795 0.930 . S
H788 C798 0.930 . S
H789 C799 0.930 . S
C790 H784 0.930 . S
C790 C791 1.355 . S
C790 C792 1.415 . S
C791 C790 1.355 . S
C791 C793 1.419 . S
C792 C790 1.415 . S
C792 C797 1.425 . S
C792 C799 1.409 . S
C793 H785 0.930 . S
C793 C791 1.419 . S
C793 C794 1.362 . S
C794 H786 0.930 . S
C794 C793 1.362 . S
C794 C797 1.409 . S
C795 H787 0.930 . S
C795 C796 1.355 . S
C795 C797 1.415 . S
C796 C795 1.355 . S
C796 C798 1.419 . S
C797 C792 1.425 . S
C797 C794 1.409 . S
C797 C795 1.415 . S
C798 H788 0.930 . S
C798 C796 1.419 . S
C798 C799 1.362 . S
C799 H789 0.930 . S
C799 C792 1.409 . S
C799 C798 1.362 . S
H800 C806 0.930 . S
H801 C809 0.930 . S
H802 C810 0.930 . S
H803 C811 0.930 . S
H804 C814 0.930 . S
H805 C815 0.930 . S
C806 H800 0.930 . S
C806 C807 1.355 . S
C806 C808 1.415 . S
C807 C806 1.355 . S
C807 C809 1.419 . S
C808 C806 1.415 . S
C808 C813 1.425 . S
C808 C815 1.409 . S
C809 H801 0.930 . S
C809 C807 1.419 . S
C809 C810 1.362 . S
C810 H802 0.930 . S
C810 C809 1.362 . S
C810 C813 1.409 . S
C811 H803 0.930 . S
C811 C812 1.355 . S
C811 C813 1.415 . S
C812 C811 1.355 . S
C812 C814 1.419 . S
C813 C808 1.425 . S
C813 C810 1.409 . S
C813 C811 1.415 . S
C814 H804 0.930 . S
C814 C812 1.419 . S
C814 C815 1.362 . S
C815 H805 0.930 . S
C815 C808 1.409 . S
C815 C814 1.362 . S
H816 C822 0.930 . S
H817 C825 0.930 . S
H818 C826 0.930 . S
H819 C827 0.930 . S
H820 C830 0.930 . S
H821 C831 0.930 . S
C822 H816 0.930 . S
C822 C823 1.355 . S
C822 C824 1.415 . S
C823 C822 1.355 . S
C823 C825 1.419 . S
C824 C822 1.415 . S
C824 C829 1.425 . S
C824 C831 1.409 . S
C825 H817 0.930 . S
C825 C823 1.419 . S
C825 C826 1.362 . S
C826 H818 0.930 . S
C826 C825 1.362 . S
C826 C829 1.409 . S
C827 H819 0.930 . S
C827 C828 1.355 . S
C827 C829 1.415 . S
C828 C827 1.355 . S
C828 C830 1.419 . S
C829 C824 1.425 . S
C829 C826 1.409 . S
C829 C827 1.415 . S
C830 H820 0.930 . S
C830 C828 1.419 . S
C830 C831 1.362 . S
C831 H821 0.930 . S
C831 C824 1.409 . S
C831 C830 1.362 . S
C455 C1 1.321 . S
C460 C295 1.359 . S
C471 C67 1.017 . S
C476 C344 1.022 . S
C492 C370 2.445 . S
C487 C97 2.466 . S
C503 C133 2.411 . S
C508 C418 2.374 . S
C524 C330 2.522 . S
C519 C25 2.405 . S
C540 C298 0.812 . S
C535 C37 0.876 . S
C556 C419 1.890 . S
C551 C103 1.940 . S
C572 C387 1.634 . S
C567 C109 1.637 . S
C583 C31 1.752 . S
C588 C415 1.798 . S
C604 C347 2.294 . S
C599 C73 2.377 . S
C615 C139 2.347 . S
C620 C299 2.345 . S
C631 C61 0.925 . S
C636 C384 0.983 . S
C652 C304 1.311 . S
C647 C175 1.179 . S
C663 C181 1.044 . S
C668 C335 1.054 . S
C679 C247 2.489 . S
C684 C379 2.445 . S
C695 C277 2.394 . S
C700 C427 2.354 . S
C711 C145 2.289 . S
C716 C339 2.511 . S
C732 C307 0.865 . S
C727 C211 0.853 . S
C748 C410 1.872 . S
C743 C217 1.902 . S
C764 C378 1.616 . S
C759 C283 1.645 . S
C775 C169 1.600 . S
C780 C424 1.772 . S
C796 C338 2.329 . S
C791 C241 2.390 . S
C812 C290 2.325 . S
C807 C253 2.333 . S
C823 C205 0.976 . S
C828 C375 0.961 . S
