# Generated by pormake.
# Topology zzz, (3,6)-cn, num edge types: 1
# Building blocks:
#     Node 0, Type 0, BuildingBlock: BETDIP_clean_linker_0, # of connection points: 3
#     Node 1, Type 0, BuildingBlock: BETDIP_clean_linker_0, # of connection points: 3
#     Node 2, Type 0, BuildingBlock: BETDIP_clean_linker_0, # of connection points: 3
#     Node 3, Type 0, BuildingBlock: BETDIP_clean_linker_0, # of connection points: 3
#     Node 4, Type 0, BuildingBlock: BETDIP_clean_linker_0, # of connection points: 3
#     Node 5, Type 0, BuildingBlock: BETDIP_clean_linker_0, # of connection points: 3
#     Node 6, Type 0, BuildingBlock: BETDIP_clean_linker_0, # of connection points: 3
#     Node 7, Type 0, BuildingBlock: BETDIP_clean_linker_0, # of connection points: 3
#     Node 8, Type 1, BuildingBlock: INOVEN_clean_sbu_0, # of connection points: 6
#     Node 9, Type 1, BuildingBlock: INOVEN_clean_sbu_0, # of connection points: 6
#     Node 10, Type 1, BuildingBlock: INOVEN_clean_sbu_0, # of connection points: 6
#     Node 11, Type 1, BuildingBlock: INOVEN_clean_sbu_0, # of connection points: 6
#     Edge 12, Type (0, 1), BuildingBlock: TEMPAE_clean_linker_10, # of connection points: 2
#     Edge 13, Type (0, 1), BuildingBlock: TEMPAE_clean_linker_10, # of connection points: 2
#     Edge 14, Type (0, 1), BuildingBlock: TEMPAE_clean_linker_10, # of connection points: 2
#     Edge 15, Type (0, 1), BuildingBlock: TEMPAE_clean_linker_10, # of connection points: 2
#     Edge 16, Type (0, 1), BuildingBlock: TEMPAE_clean_linker_10, # of connection points: 2
#     Edge 17, Type (0, 1), BuildingBlock: TEMPAE_clean_linker_10, # of connection points: 2
#     Edge 18, Type (0, 1), BuildingBlock: TEMPAE_clean_linker_10, # of connection points: 2
#     Edge 19, Type (0, 1), BuildingBlock: TEMPAE_clean_linker_10, # of connection points: 2
#     Edge 20, Type (0, 1), BuildingBlock: TEMPAE_clean_linker_10, # of connection points: 2
#     Edge 21, Type (0, 1), BuildingBlock: TEMPAE_clean_linker_10, # of connection points: 2
#     Edge 22, Type (0, 1), BuildingBlock: TEMPAE_clean_linker_10, # of connection points: 2
#     Edge 23, Type (0, 1), BuildingBlock: TEMPAE_clean_linker_10, # of connection points: 2
#     Edge 24, Type (0, 1), BuildingBlock: TEMPAE_clean_linker_10, # of connection points: 2
#     Edge 25, Type (0, 1), BuildingBlock: TEMPAE_clean_linker_10, # of connection points: 2
#     Edge 26, Type (0, 1), BuildingBlock: TEMPAE_clean_linker_10, # of connection points: 2
#     Edge 27, Type (0, 1), BuildingBlock: TEMPAE_clean_linker_10, # of connection points: 2
#     Edge 28, Type (0, 1), BuildingBlock: TEMPAE_clean_linker_10, # of connection points: 2
#     Edge 29, Type (0, 1), BuildingBlock: TEMPAE_clean_linker_10, # of connection points: 2
#     Edge 30, Type (0, 1), BuildingBlock: TEMPAE_clean_linker_10, # of connection points: 2
#     Edge 31, Type (0, 1), BuildingBlock: TEMPAE_clean_linker_10, # of connection points: 2
#     Edge 32, Type (0, 1), BuildingBlock: TEMPAE_clean_linker_10, # of connection points: 2
#     Edge 33, Type (0, 1), BuildingBlock: TEMPAE_clean_linker_10, # of connection points: 2
#     Edge 34, Type (0, 1), BuildingBlock: TEMPAE_clean_linker_10, # of connection points: 2
#     Edge 35, Type (0, 1), BuildingBlock: TEMPAE_clean_linker_10, # of connection points: 2
# Relax obj value: 0.260
# Max RMSD: 0.184
# Mean RMSD: 0.159
data_MOF--net-zzz--node1-INOVEN_clean_sbu_0--node2-BETDIP_clean_linker_0--edge1-TEMPAE_clean_linker_10
_symmetry_space_group_name_H-M    P1
_symmetry_Int_Tables_number       1
_symmetry_cell_setting            triclinic
loop_
_symmetry_equiv_pos_as_xyz
'x, y, z'
_cell_length_a     53.063819
_cell_length_b     53.074872
_cell_length_c     13.44546
_cell_angle_alpha  89.90929
_cell_angle_beta   89.912667
_cell_angle_gamma 90.087589
loop_
_atom_site_label
_atom_site_type_symbol
_atom_site_fract_x
_atom_site_fract_y
_atom_site_fract_z
_atom_type_partial_charge
H0 H 0.7686 0.52368 0.40928 0.0
H1 H 0.74746 0.45052 0.29352 0.0
H2 H 0.81495 0.4589 0.46323 0.0
H3 H 0.73162 0.47396 0.17405 0.0
C4 C 0.72116 0.48819 0.21475 0.0
C5 C 0.77171 0.50359 0.40298 0.0
C6 C 0.79351 0.49261 0.44629 0.0
C7 C 0.75445 0.48848 0.34798 0.0
C8 C 0.7598 0.46257 0.33632 0.0
C9 C 0.78193 0.45199 0.37446 0.0
C10 C 0.79763 0.46681 0.43429 0.0
N11 N 0.73268 0.49941 0.30062 0.0
H12 H 0.01925 0.75836 0.4914 0.0
H13 H 0.97459 0.73848 0.23531 0.0
H14 H 0.96675 0.81137 0.36864 0.0
H15 H 0.97315 0.6989 0.376 0.0
C16 C 0.99233 0.69844 0.34745 0.0
C17 C 1.00462 0.76297 0.43836 0.0
C18 C 0.99296 0.787 0.44103 0.0
C19 C 0.99675 0.74473 0.36744 0.0
C20 C 0.97898 0.75152 0.29481 0.0
C21 C 0.96855 0.77569 0.29318 0.0
C22 C 0.97453 0.79252 0.36998 0.0
N23 N 1.00775 0.72019 0.36322 0.0
H24 H 0.77338 1.01269 0.42795 0.0
H25 H 0.78588 0.07027 0.20468 0.0
H26 H 0.72273 0.07562 0.3992 0.0
H27 H 0.79855 0.03357 0.12338 0.0
C28 C 0.81277 0.0284 0.17787 0.0
C29 C 0.76833 0.03049 0.39403 0.0
C30 C 0.74633 0.0434 0.42625 0.0
C31 C 0.78328 0.04037 0.31499 0.0
C32 C 0.77556 0.06285 0.26783 0.0
C33 C 0.75392 0.07549 0.2991 0.0
C34 C 0.74017 0.06621 0.37972 0.0
N35 N 0.80535 0.02743 0.2803 0.0
H36 H 0.52736 0.77113 0.45898 0.0
H37 H 0.49165 0.78256 0.17317 0.0
H38 H 0.47906 0.71416 0.33432 0.0
H39 H 0.5431 0.79901 0.17481 0.0
C40 C 0.53326 0.81309 0.21876 0.0
C41 C 0.51492 0.76465 0.40061 0.0
C42 C 0.50354 0.74045 0.40769 0.0
C43 C 0.51035 0.78023 0.31604 0.0
C44 C 0.49483 0.77121 0.23904 0.0
C45 C 0.48333 0.74765 0.24725 0.0
C46 C 0.48749 0.73277 0.33126 0.0
N47 N 0.52088 0.80498 0.3078 0.0
H48 H 0.28318 0.51951 0.97595 0.0
H49 H 0.3048 0.48344 0.25082 0.0
H50 H 0.23209 0.46897 0.12361 0.0
H51 H 0.31891 0.54194 0.21804 0.0
C52 C 0.33145 0.52794 0.18609 0.0
C53 C 0.27903 0.50649 0.03584 0.0
C54 C 0.25508 0.49451 0.04069 0.0
C55 C 0.29743 0.50179 0.11077 0.0
C56 C 0.29134 0.48603 0.19112 0.0
C57 C 0.26789 0.47405 0.1961 0.0
C58 C 0.25055 0.47761 0.11858 0.0
N59 N 0.32208 0.5126 0.10702 0.0
H60 H 0.02509 0.27427 0.02846 0.0
H61 H 0.98991 0.28152 0.31777 0.0
H62 H 0.98891 0.21059 0.16735 0.0
H63 H 0.97713 0.32048 0.21732 0.0
C64 C 0.99705 0.32532 0.21937 0.0
C65 C 1.01493 0.26607 0.09046 0.0
C66 C 1.00741 0.24038 0.0871 0.0
C67 C 1.00805 0.28135 0.17321 0.0
C68 C 0.99475 0.27037 0.25306 0.0
C69 C 0.98835 0.24489 0.25152 0.0
C70 C 0.99448 0.23029 0.16863 0.0
N71 N 1.01439 0.30757 0.17779 0.0
H72 H 0.26304 0.02009 0.98069 0.0
H73 H 0.24441 0.06495 0.23755 0.0
H74 H 0.31312 0.07866 0.07803 0.0
H75 H 0.23651 1.01229 0.26507 0.0
C76 C 0.22104 0.0184 0.2179 0.0
C77 C 0.26727 0.03571 0.02968 0.0
C78 C 0.29023 0.04918 0.0185 0.0
C79 C 0.25021 0.04202 0.10735 0.0
C80 C 0.25671 0.06107 0.17499 0.0
C81 C 0.2795 0.07414 0.16604 0.0
C82 C 0.29519 0.06904 0.08423 0.0
N83 N 0.22718 0.02853 0.1223 0.0
H84 H 0.52685 0.25615 0.01594 0.0
H85 H 0.57307 0.246 0.27822 0.0
H86 H 0.57677 0.31497 0.11523 0.0
H87 H 0.57756 0.20531 0.18049 0.0
C88 C 0.55747 0.20242 0.19212 0.0
C89 C 0.54096 0.26307 0.06718 0.0
C90 C 0.55125 0.28765 0.05413 0.0
C91 C 0.54979 0.24724 0.14571 0.0
C92 C 0.56738 0.257 0.21414 0.0
C93 C 0.57699 0.28127 0.20224 0.0
C94 C 0.56939 0.29598 0.1218 0.0
N95 N 0.54081 0.22191 0.15859 0.0
Gd96 Gd 0.03489 1.01306 0.80213 0.0
Gd97 Gd 1.00417 0.02222 0.63818 0.0
C98 C 0.01726 0.96608 0.66901 0.0
C99 C 0.05161 0.992 0.96018 0.0
C100 C 0.03912 0.96996 0.0045 0.0
C101 C 0.05297 0.94815 0.02569 0.0
C102 C 1.01261 0.9688 0.00426 0.0
C103 C 1.01404 0.92399 0.0361 0.0
C104 C 1.00021 0.94603 0.01958 0.0
C105 C 0.04049 0.92529 0.04198 0.0
C106 C 0.06322 0.02569 0.64021 0.0
C107 C 0.0218 0.07037 0.77528 0.0
C108 C 0.97957 0.03828 0.48543 0.0
C109 C 0.96002 0.05766 0.47819 0.0
C110 C 0.94531 0.06385 0.56166 0.0
C111 C 0.95807 0.07209 0.3917 0.0
C112 C 0.92955 0.10105 0.47651 0.0
C113 C 0.94304 0.0936 0.39077 0.0
C114 C 0.93002 0.08525 0.56053 0.0
C115 C 0.97641 1.01042 0.8035 0.0
O116 O 0.01932 0.97425 0.76123 0.0
O117 O 0.01582 0.98289 0.59734 0.0
O118 O 0.06159 0.98781 0.87296 0.0
O119 O 0.03873 1.01294 0.96275 0.0
O120 O 0.06721 0.0337 0.72985 0.0
O121 O 0.04438 1.01101 0.63971 0.0
O122 O 1.01265 0.06276 0.68863 0.0
O123 O 0.0304 0.05378 0.83944 0.0
O124 O 0.97329 0.01804 0.53468 0.0
O125 O 1.00199 0.04661 0.50889 0.0
O126 O 0.9725 1.00139 0.71587 0.0
O127 O 0.99502 0.02517 0.79988 0.0
H128 H 0.07338 0.94852 0.02405 0.0
H129 H 1.00136 0.98521 0.98644 0.0
H130 H 0.97981 0.94555 0.01624 0.0
H131 H 0.05152 0.90844 0.05457 0.0
H132 H 0.94664 0.05288 0.62952 0.0
H133 H 0.96938 0.06763 0.3269 0.0
H134 H 0.94371 0.10538 0.32501 0.0
H135 H 0.9197 0.09015 0.62728 0.0
Gd136 Gd 0.5271 0.02863 0.84931 0.0
Gd137 Gd 0.51402 1.00317 0.63559 0.0
C138 C 0.57277 1.01315 0.69416 0.0
C139 C 0.53801 0.03746 0.03223 0.0
C140 C 0.55481 0.0556 0.08181 0.0
C141 C 0.55461 0.08139 0.0573 0.0
C142 C 0.57314 0.04646 0.14707 0.0
C143 C 0.5928 0.08797 0.15386 0.0
C144 C 0.59202 0.06236 0.1821 0.0
C145 C 0.57338 0.09747 0.09356 0.0
C146 C 0.52481 0.0641 0.70033 0.0
C147 C 0.46881 0.02068 0.78382 0.0
C148 C 0.49817 0.99839 0.45675 0.0
C149 C 0.47703 1.01205 0.41088 0.0
C150 C 0.45482 0.99885 0.38892 0.0
C151 C 0.47669 0.03854 0.40998 0.0
C152 C 0.43164 0.03824 0.38239 0.0
C153 C 0.45417 0.05154 0.39637 0.0
C154 C 0.43227 1.01182 0.37516 0.0
C155 C 0.51865 0.96747 0.78325 0.0
O156 O 0.5661 0.01992 0.78612 0.0
O157 O 0.55626 1.00697 0.62391 0.0
O158 O 0.51794 0.04671 0.98866 0.0
O159 O 0.54943 0.02008 0.97939 0.0
O160 O 0.53022 0.06922 0.7922 0.0
O161 O 0.52058 0.04074 0.69661 0.0
O162 O 0.47634 0.01792 0.69031 0.0
O163 O 0.48508 0.02126 0.8587 0.0
O164 O 0.49136 0.98311 0.52856 0.0
O165 O 0.51838 1.01155 0.47851 0.0
O166 O 0.51483 0.96234 0.69014 0.0
O167 O 0.52064 0.99107 0.78938 0.0
H168 H 0.5406 0.08896 0.00704 0.0
H169 H 0.57366 0.02666 0.16673 0.0
H170 H 0.60684 0.05406 0.22654 0.0
H171 H 0.57315 0.11711 0.07159 0.0
H172 H 0.45453 0.97843 0.38967 0.0
H173 H 0.49345 0.0493 0.42539 0.0
H174 H 0.45426 0.07193 0.39956 0.0
H175 H 0.41512 1.0011 0.36415 0.0
Gd176 Gd 0.50858 0.51798 0.83117 0.0
Gd177 Gd 0.53668 0.5083 0.62005 0.0
C178 C 0.52018 0.56555 0.68457 0.0
C179 C 0.49703 0.52754 0.01265 0.0
C180 C 0.47862 0.54493 0.05637 0.0
C181 C 0.45489 0.54853 0.01219 0.0
C182 C 0.48646 0.5611 0.13222 0.0
C183 C 0.4493 0.58717 0.10625 0.0
C184 C 0.47198 0.58205 0.15696 0.0
C185 C 0.44025 0.56942 0.03753 0.0
C186 C 0.47488 0.51515 0.67518 0.0
C187 C 0.5258 0.46082 0.769 0.0
C188 C 0.54775 0.49868 0.43823 0.0
C189 C 0.5668 0.48214 0.39356 0.0
C190 C 0.59146 0.48105 0.43164 0.0
C191 C 0.55916 0.46453 0.32252 0.0
C192 C 0.59914 0.44248 0.3395 0.0
C193 C 0.57509 0.44484 0.296 0.0
C194 C 0.60757 0.46143 0.4043 0.0
C195 C 0.57068 0.51193 0.77382 0.0
O196 O 0.5159 0.55802 0.77757 0.0
O197 O 0.52536 0.54945 0.61166 0.0
O198 O 0.48785 0.50812 0.96426 0.0
O199 O 0.51586 0.53862 0.96636 0.0
O200 O 0.46846 0.51866 0.76726 0.0
O201 O 0.49847 0.5131 0.67466 0.0
O202 O 0.53015 0.46819 0.67577 0.0
O203 O 0.52009 0.47696 0.84099 0.0
O204 O 0.55619 0.5187 0.48487 0.0
O205 O 0.52971 0.48685 0.48648 0.0
O206 O 0.57687 0.50865 0.68137 0.0
O207 O 0.547 0.51332 0.77645 0.0
H208 H 0.44839 0.53622 0.95341 0.0
H209 H 0.5047 0.55862 0.16704 0.0
H210 H 0.47984 0.59531 0.2096 0.0
H211 H 0.42268 0.57253 0.99856 0.0
H212 H 0.59782 0.49445 0.48685 0.0
H213 H 0.54021 0.46502 0.2926 0.0
H214 H 0.56767 0.43046 0.24701 0.0
H215 H 0.62605 0.46034 0.43809 0.0
Gd216 Gd 0.01609 0.50011 0.85637 0.0
Gd217 Gd 0.02637 0.52913 0.68138 0.0
C218 C 0.96845 0.51725 0.71325 0.0
C219 C 0.99995 0.48266 0.02432 0.0
C220 C 0.97914 0.46696 0.06011 0.0
C221 C 0.97286 0.46774 0.16092 0.0
C222 C 0.96492 0.45203 0.99479 0.0
C223 C 0.93704 0.44021 0.13083 0.0
C224 C 0.94395 0.43868 0.03004 0.0
C225 C 0.95217 0.45425 0.19633 0.0
C226 C 0.02705 0.46992 0.69843 0.0
C227 C 0.0734 0.51132 0.81764 0.0
C228 C 0.04693 0.54316 0.51809 0.0
C229 C 0.06967 0.53123 0.47771 0.0
C230 C 0.0902 0.54598 0.44738 0.0
C231 C 0.07277 0.50508 0.48923 0.0
C232 C 0.11697 0.50877 0.44852 0.0
C233 C 0.09615 0.49395 0.47457 0.0
C234 C 0.11373 0.53479 0.43259 0.0
C235 C 1.01501 0.55892 0.83908 0.0
O236 O 0.97599 0.50588 0.79603 0.0
O237 O 0.98481 0.52774 0.65214 0.0
O238 O 0.01691 0.47132 0.97008 0.0
O239 O 0.99374 0.50487 0.9899 0.0
O240 O 0.03432 0.46581 0.78885 0.0
O241 O 1.01361 0.48958 0.69613 0.0
O242 O 0.06527 0.51428 0.72556 0.0
O243 O 0.0567 0.50942 0.88985 0.0
O244 O 0.05054 0.55525 0.60147 0.0
O245 O 0.02681 0.52889 0.52024 0.0
O246 O 1.00757 0.56304 0.74869 0.0
O247 O 0.02891 0.53956 0.84167 0.0
H248 H 0.98355 0.47936 0.21185 0.0
H249 H 0.96955 0.45137 0.91631 0.0
H250 H 0.93244 0.4283 0.97772 0.0
H251 H 0.94741 0.45561 0.27454 0.0
H252 H 0.08834 0.56623 0.44037 0.0
H253 H 0.05748 0.49331 0.51521 0.0
H254 H 0.09805 0.47382 0.48588 0.0
H255 H 0.12962 0.54664 0.41289 0.0
C256 C 0.17531 0.03279 0.22416 0.0
C257 C 0.19515 0.0182 0.2621 0.0
C258 C 0.15198 0.03444 0.27515 0.0
C259 C 0.14831 0.02102 0.36564 0.0
C260 C 0.16805 1.00554 0.40159 0.0
C261 C 0.19112 1.0045 0.35004 0.0
C262 C 0.13163 0.05132 0.23429 0.0
C263 C 0.16513 0.99063 0.4967 0.0
C264 C 0.10354 0.04313 0.57067 0.0
C265 C 0.08329 0.02624 0.56209 0.0
C266 C 0.12409 0.04247 0.50413 0.0
C267 C 0.12474 0.02426 0.42706 0.0
C268 C 0.10385 1.00774 0.41569 0.0
C269 C 0.08336 1.00901 0.48286 0.0
C270 C 0.14562 0.0607 0.51896 0.0
C271 C 0.10367 0.98793 0.33537 0.0
H272 H 0.17829 0.04363 0.15678 0.0
H273 H 0.20636 0.9932 0.3799 0.0
H274 H 0.11352 0.04093 0.22936 0.0
H275 H 0.12864 0.06741 0.28555 0.0
H276 H 0.13648 0.05885 0.15951 0.0
H277 H 0.18148 0.97808 0.51086 0.0
H278 H 0.16315 1.0037 0.56053 0.0
H279 H 0.14779 0.97895 0.49382 0.0
H280 H 0.1036 0.05663 0.63111 0.0
H281 H 0.06782 0.99587 0.47549 0.0
H282 H 0.15031 0.07028 0.44788 0.0
H283 H 0.16265 0.05025 0.54309 0.0
H284 H 0.14125 0.07523 0.57576 0.0
H285 H 0.10827 0.99647 0.2622 0.0
H286 H 0.08515 0.97822 0.32985 0.0
H287 H 0.11836 0.97364 0.35144 0.0
C288 C 0.52483 0.17343 0.27328 0.0
C289 C 0.54997 0.18049 0.25617 0.0
C290 C 0.51884 0.15303 0.33744 0.0
C291 C 0.53835 0.1398 0.38773 0.0
C292 C 0.56372 0.14671 0.36884 0.0
C293 C 0.56914 0.16662 0.3029 0.0
C294 C 0.4916 0.1458 0.35244 0.0
C295 C 0.58526 0.13375 0.42143 0.0
C296 C 0.5256 0.1087 0.63997 0.0
C297 C 0.52642 0.08288 0.61748 0.0
C298 C 0.5288 0.12726 0.56588 0.0
C299 C 0.53253 0.12005 0.46542 0.0
C300 C 0.53292 0.09395 0.44193 0.0
C301 C 0.53043 0.07577 0.51846 0.0
C302 C 0.52911 0.15466 0.596 0.0
C303 C 0.5364 0.08523 0.33613 0.0
H304 H 0.50989 0.1838 0.23685 0.0
H305 H 0.58864 0.17186 0.28994 0.0
H306 H 0.48912 0.12524 0.34089 0.0
H307 H 0.48584 0.14997 0.43 0.0
H308 H 0.47885 0.15608 0.30105 0.0
H309 H 0.60395 0.14039 0.39475 0.0
H310 H 0.58393 0.13734 0.50256 0.0
H311 H 0.58414 0.11308 0.41069 0.0
H312 H 0.52291 0.11447 0.71656 0.0
H313 H 0.53234 0.05602 0.50119 0.0
H314 H 0.51476 0.16531 0.55339 0.0
H315 H 0.54776 0.16303 0.57815 0.0
H316 H 0.52539 0.15724 0.67666 0.0
H317 H 0.52124 0.09314 0.28868 0.0
H318 H 0.53614 0.06437 0.32956 0.0
H319 H 0.55453 0.09237 0.3065 0.0
C320 C 0.36913 0.54633 0.27093 0.0
C321 C 0.35704 0.52507 0.23136 0.0
C322 C 0.39116 0.54418 0.32894 0.0
C323 C 0.40096 0.52002 0.35208 0.0
C324 C 0.38948 0.49851 0.30828 0.0
C325 C 0.36785 0.5013 0.24757 0.0
C326 C 0.40311 0.56779 0.37004 0.0
C327 C 0.399 0.47237 0.33089 0.0
C328 C 0.46466 0.516 0.48991 0.0
C329 C 0.45681 0.51495 0.58969 0.0
C330 C 0.44687 0.5173 0.4113 0.0
C331 C 0.4206 0.51726 0.43274 0.0
C332 C 0.41278 0.51573 0.53347 0.0
C333 C 0.43085 0.51471 0.60994 0.0
C334 C 0.45618 0.519 0.30547 0.0
C335 C 0.38517 0.51565 0.56104 0.0
H336 H 0.36092 0.56477 0.25855 0.0
H337 H 0.35849 0.48474 0.21828 0.0
H338 H 0.39965 0.56882 0.45134 0.0
H339 H 0.42382 0.56743 0.35852 0.0
H340 H 0.39546 0.58511 0.3348 0.0
H341 H 0.39013 0.4579 0.28262 0.0
H342 H 0.41975 0.4715 0.32136 0.0
H343 H 0.39479 0.46765 0.40963 0.0
H344 H 0.48465 0.51633 0.47338 0.0
H345 H 0.42452 0.51391 0.68659 0.0
H346 H 0.4473 0.53521 0.26696 0.0
H347 H 0.45064 0.50175 0.26441 0.0
H348 H 0.47699 0.52106 0.30126 0.0
H349 H 0.3764 0.53369 0.53787 0.0
H350 H 0.38212 0.51317 0.64223 0.0
H351 H 0.37523 0.50028 0.52127 0.0
C352 C 0.02917 0.35656 0.2883 0.0
C353 C 1.00437 0.34752 0.28152 0.0
C354 C 0.03514 0.37732 0.35022 0.0
C355 C 0.01599 0.38892 0.40832 0.0
C356 C 0.99096 0.37983 0.40074 0.0
C357 C 0.98549 0.35955 0.33711 0.0
C358 C 0.06192 0.38683 0.35355 0.0
C359 C 0.96987 0.39123 0.46135 0.0
C360 C 0.03128 0.42452 0.64815 0.0
C361 C 0.02628 0.44963 0.62156 0.0
C362 C 0.02871 0.40471 0.57908 0.0
C363 C 0.02185 0.41007 0.47938 0.0
C364 C 0.01813 0.43555 0.45095 0.0
C365 C 0.0197 0.4549 0.5227 0.0
C366 C 0.0322 0.37792 0.61418 0.0
C367 C 1.01182 0.44236 0.34511 0.0
H368 H 0.04386 0.34752 0.2452 0.0
H369 H 0.96626 0.35271 0.33228 0.0
H370 H 0.06239 0.40735 0.33753 0.0
H371 H 0.06977 0.38413 0.42921 0.0
H372 H 0.07427 0.377 0.29934 0.0
H373 H 0.95158 0.38149 0.44934 0.0
H374 H 0.97455 0.39032 0.5417 0.0
H375 H 0.96755 0.41139 0.44166 0.0
H376 H 0.03627 0.42016 0.72439 0.0
H377 H 0.01573 0.47419 0.50132 0.0
H378 H 0.04604 0.36803 0.56637 0.0
H379 H 1.01406 0.3676 0.60808 0.0
H380 H 0.03872 0.3769 0.69256 0.0
H381 H 0.02442 0.43232 0.29256 0.0
H382 H 1.01351 0.46294 0.33161 0.0
H383 H 0.99226 0.43637 0.32865 0.0
C384 C 0.84436 0.03324 0.04263 0.0
C385 C 0.83914 0.0254 0.14025 0.0
C386 C 0.86844 0.03064 1.00034 0.0
C387 C 0.8881 0.0194 0.05601 0.0
C388 C 0.88311 1.01159 0.15539 0.0
C389 C 0.85872 1.01487 0.19674 0.0
C390 C 0.87271 0.03966 0.89498 0.0
C391 C 0.90336 0.99928 0.21709 0.0
C392 C 0.93808 0.99176 0.88384 0.0
C393 C 0.95624 1.01098 0.88086 0.0
C394 C 0.91686 0.99335 0.94664 0.0
C395 C 0.91325 1.01498 0.00684 0.0
C396 C 0.93227 0.03384 0.00805 0.0
C397 C 0.95363 0.0315 0.94577 0.0
C398 C 0.89755 0.97245 0.9441 0.0
C399 C 0.92931 0.05732 0.07006 0.0
H400 H 0.82939 0.04154 0.99862 0.0
H401 H 0.85488 1.00874 0.27216 0.0
H402 H 0.88894 0.05286 0.89229 0.0
H403 H 0.87735 0.02343 0.84647 0.0
H404 H 0.85593 0.04935 0.8638 0.0
H405 H 0.89682 0.99488 0.2937 0.0
H406 H 0.90952 0.98155 0.1809 0.0
H407 H 0.92011 1.01176 0.22171 0.0
H408 H 0.94012 0.9757 0.83475 0.0
H409 H 0.96759 0.04644 0.94403 0.0
H410 H 0.88047 0.97907 0.90448 0.0
H411 H 0.89178 0.96714 0.02066 0.0
H412 H 0.90477 0.95541 0.90555 0.0
H413 H 0.91423 0.06926 0.03775 0.0
H414 H 0.94697 0.06857 0.07306 0.0
H415 H 0.92352 0.05246 0.14703 0.0
C416 C 0.55089 0.84695 0.10994 0.0
C417 C 0.53247 0.83944 0.17888 0.0
C418 C 0.5493 0.8701 0.05898 0.0
C419 C 0.52833 0.88614 0.07476 0.0
C420 C 0.51011 0.87912 0.14744 0.0
C421 C 0.5125 0.85597 0.19927 0.0
C422 C 0.56948 0.87673 0.98406 0.0
C423 C 0.48726 0.8953 0.16607 0.0
C424 C 0.53106 0.95235 0.95644 0.0
C425 C 0.51995 0.94795 0.86341 0.0
C426 C 0.53341 0.93271 0.0275 0.0
C427 C 0.52403 0.9082 0.00579 0.0
C428 C 0.51194 0.90412 0.91327 0.0
C429 C 0.51031 0.92383 0.84351 0.0
C430 C 0.54673 0.93795 0.12426 0.0
C431 C 0.50123 0.87863 0.88647 0.0
H432 H 0.56638 0.83428 0.09378 0.0
H433 H 0.49802 0.85024 0.25158 0.0
H434 H 0.56168 0.87522 0.90779 0.0
H435 H 0.57585 0.89647 0.99453 0.0
H436 H 0.58608 0.86408 0.98966 0.0
H437 H 0.47656 0.88908 0.23286 0.0
H438 H 0.49281 0.9153 0.1757 0.0
H439 H 0.47457 0.89435 0.10064 0.0
H440 H 0.53861 0.97086 0.97247 0.0
H441 H 0.50147 0.92023 0.77226 0.0
H442 H 0.56465 0.92721 0.1267 0.0
H443 H 0.53507 0.93151 0.18796 0.0
H444 H 0.55106 0.95829 0.13383 0.0
H445 H 0.51674 0.86475 0.87926 0.0
H446 H 0.49059 0.87904 0.8154 0.0
H447 H 0.48849 0.87183 0.94626 0.0
C448 C 0.68312 0.51687 0.18727 0.0
C449 C 0.69516 0.49349 0.17692 0.0
C450 C 0.66025 0.52201 0.13645 0.0
C451 C 0.64904 0.50327 0.07503 0.0
C452 C 0.66038 0.47915 0.07063 0.0
C453 C 0.68326 0.47473 0.12034 0.0
C454 C 0.64883 0.54792 0.14409 0.0
C455 C 0.64915 0.45829 0.00846 0.0
C456 C 0.58314 0.50694 0.95563 0.0
C457 C 0.5893 0.51319 0.85701 0.0
C458 C 0.60214 0.50487 0.02942 0.0
C459 C 0.62781 0.50943 0.0043 0.0
C460 C 0.63369 0.51711 0.90593 0.0
C461 C 0.61452 0.51867 0.83401 0.0
C462 C 0.59488 0.49645 0.13269 0.0
C463 C 0.66054 0.5224 0.87474 0.0
H464 H 0.69215 0.53151 0.23063 0.0
H465 H 0.69231 0.45653 0.11265 0.0
H466 H 0.65166 0.55812 0.07284 0.0
H467 H 0.62822 0.54659 0.15718 0.0
H468 H 0.65748 0.55915 0.20481 0.0
H469 H 0.65867 0.43993 0.02119 0.0
H470 H 0.6288 0.45604 0.02532 0.0
H471 H 0.65086 0.46317 0.92845 0.0
H472 H 0.56373 0.50252 0.97403 0.0
H473 H 0.61948 0.52364 0.7582 0.0
H474 H 0.60451 0.50809 0.18966 0.0
H475 H 0.60101 0.47668 0.14389 0.0
H476 H 0.5742 0.49747 0.145 0.0
H477 H 0.66961 0.5356 0.92769 0.0
H478 H 0.66172 0.53061 0.7988 0.0
H479 H 0.67152 0.50462 0.87586 0.0
C480 C 0.98302 0.65596 0.27773 0.0
C481 C 0.99947 0.67665 0.28286 0.0
C482 C 0.98717 0.63596 0.2111 0.0
C483 C 1.0083 0.63653 0.14661 0.0
C484 C 0.0255 0.65702 0.15358 0.0
C485 C 0.02091 0.67683 0.22167 0.0
C486 C 0.96831 0.61464 0.20722 0.0
C487 C 0.04826 0.65848 0.0865 0.0
C488 C 0.02536 0.57511 0.01133 0.0
C489 C 1.01354 0.57845 0.91886 0.0
C490 C 0.02428 0.59395 0.08553 0.0
C491 C 1.01107 0.61674 0.0671 0.0
C492 C 0.99922 0.62014 0.97359 0.0
C493 C 1.00056 0.60104 0.90116 0.0
C494 C 0.03707 0.58936 0.18404 0.0
C495 C 0.98482 0.64394 0.95019 0.0
H496 H 0.96639 0.65568 0.32475 0.0
H497 H 0.03368 0.69276 0.22464 0.0
H498 H 0.95851 0.61482 0.1344 0.0
H499 H 0.97807 0.59624 0.21388 0.0
H500 H 0.95394 0.61598 0.26714 0.0
H501 H 0.06092 0.67438 0.10633 0.0
H502 H 0.05912 0.64066 0.09029 0.0
H503 H 0.04207 0.66094 0.0083 0.0
H504 H 0.03546 0.55775 0.02576 0.0
H505 H 0.99135 0.60386 0.8301 0.0
H506 H 0.02286 0.58929 0.24464 0.0
H507 H 0.05054 0.60484 0.20005 0.0
H508 H 0.04739 0.57117 0.18567 0.0
H509 H 0.96872 0.64592 1.00234 0.0
H510 H 0.97743 0.64412 0.87293 0.0
H511 H 0.99715 0.66063 0.96046 0.0
C512 C 0.95089 0.24063 0.36375 0.0
C513 C 0.97493 0.23261 0.33464 0.0
C514 C 0.93503 0.22453 0.41871 0.0
C515 C 0.94338 0.19985 0.44155 0.0
C516 C 0.96883 0.19307 0.42227 0.0
C517 C 0.98436 0.20982 0.37072 0.0
C518 C 0.90893 0.23352 0.44492 0.0
C519 C 0.97905 0.16707 0.44501 0.0
C520 C 0.92426 0.14181 0.56824 0.0
C521 C 0.91963 0.12722 0.48282 0.0
C522 C 0.92638 0.16811 0.56082 0.0
C523 C 0.92533 0.17934 0.46579 0.0
C524 C 0.91494 0.16554 0.38561 0.0
C525 C 0.91166 0.1395 0.39598 0.0
C526 C 0.93396 0.1832 0.65074 0.0
C527 C 0.91153 0.17727 0.28422 0.0
H528 H 0.94376 0.25857 0.33733 0.0
H529 H 1.00325 0.20407 0.34992 0.0
H530 H 0.89741 0.23485 0.3763 0.0
H531 H 0.89926 0.22096 0.49893 0.0
H532 H 0.90997 0.25278 0.47687 0.0
H533 H 0.99936 0.16526 0.42613 0.0
H534 H 0.97679 0.16263 0.52501 0.0
H535 H 0.9685 0.1527 0.40197 0.0
H536 H 0.92934 0.13285 0.63778 0.0
H537 H 0.9062 0.12844 0.33177 0.0
H538 H 0.9265 0.2027 0.64588 0.0
H539 H 0.9548 0.18437 0.65476 0.0
H540 H 0.92699 0.17419 0.72018 0.0
H541 H 0.90121 0.19532 0.29063 0.0
H542 H 0.90101 0.1647 0.2329 0.0
H543 H 0.93027 0.18133 0.25086 0.0
C544 C 0.30857 0.10645 0.23562 0.0
C545 C 0.29071 0.08739 0.25284 0.0
C546 C 0.33126 0.10642 0.28882 0.0
C547 C 0.33502 0.08775 0.36237 0.0
C548 C 0.314 0.07428 0.3994 0.0
C549 C 0.29171 0.07423 0.3435 0.0
C550 C 0.35269 0.1227 0.25271 0.0
C551 C 0.31668 0.0557 0.48366 0.0
C552 C 0.39005 0.04514 0.30407 0.0
C553 C 0.40737 0.0517 0.37739 0.0
C554 C 0.36656 0.05678 0.29905 0.0
C555 C 0.36018 0.07573 0.3694 0.0
C556 C 0.37767 0.08248 0.44414 0.0
C557 C 0.40122 0.07043 0.44687 0.0
C558 C 0.34903 0.049 0.2161 0.0
C559 C 0.37193 0.10259 0.52009 0.0
H560 H 0.30704 0.11796 0.16916 0.0
H561 H 0.27734 0.0604 0.36131 0.0
H562 H 0.36523 0.12809 0.31512 0.0
H563 H 0.36404 0.11196 0.19783 0.0
H564 H 0.34562 0.14003 0.21568 0.0
H565 H 0.29823 0.05206 0.52017 0.0
H566 H 0.32383 0.03757 0.4538 0.0
H567 H 0.33028 0.06256 0.54011 0.0
H568 H 0.395 0.03088 0.24984 0.0
H569 H 0.41464 0.07536 0.50439 0.0
H570 H 0.34854 0.06426 0.15984 0.0
H571 H 0.32967 0.0457 0.24389 0.0
H572 H 0.35526 0.03148 0.1785 0.0
H573 H 0.37703 0.12124 0.48861 0.0
H574 H 0.38314 0.09983 0.58897 0.0
H575 H 0.35165 0.10304 0.53999 0.0
C576 C 0.57878 0.30992 0.34315 0.0
C577 C 0.59197 0.29392 0.27919 0.0
C578 C 0.58941 0.33281 0.37303 0.0
C579 C 0.61419 0.33895 0.34136 0.0
C580 C 0.62928 0.32022 0.29623 0.0
C581 C 0.61771 0.298 0.26253 0.0
C582 C 0.57275 0.35178 0.42493 0.0
C583 C 0.65657 0.32502 0.27152 0.0
C584 C 0.61111 0.40464 0.24098 0.0
C585 C 0.61295 0.4183 0.32958 0.0
C586 C 0.61429 0.3785 0.24067 0.0
C587 C 0.62089 0.36601 0.33044 0.0
C588 C 0.6277 0.38042 0.41459 0.0
C589 C 0.62313 0.40646 0.41404 0.0
C590 C 0.60653 0.36433 0.14826 0.0
C591 C 0.63721 0.36831 0.50886 0.0
H592 H 0.55889 0.30646 0.35637 0.0
H593 H 0.628 0.28539 0.21384 0.0
H594 H 0.58216 0.35895 0.49272 0.0
H595 H 0.56926 0.36809 0.37501 0.0
H596 H 0.55427 0.34363 0.44699 0.0
H597 H 0.6673 0.30707 0.26927 0.0
H598 H 0.65805 0.33396 0.19712 0.0
H599 H 0.66537 0.33784 0.32672 0.0
H600 H 0.60439 0.41398 0.17429 0.0
H601 H 0.62533 0.41688 0.48273 0.0
H602 H 0.58719 0.35687 0.15932 0.0
H603 H 0.6192 0.34826 0.13304 0.0
H604 H 0.60636 0.37669 0.08148 0.0
H605 H 0.62183 0.36766 0.56482 0.0
H606 H 0.65264 0.37987 0.54109 0.0
H607 H 0.64427 0.3489 0.49625 0.0
C608 C 0.24095 0.44322 0.28517 0.0
C609 C 0.2584 0.46305 0.29035 0.0
C610 C 0.21895 0.44414 0.3427 0.0
C611 C 0.21566 0.46447 0.40926 0.0
C612 C 0.23664 0.47958 0.43488 0.0
C613 C 0.25813 0.47871 0.37425 0.0
C614 C 0.19755 0.42658 0.31736 0.0
C615 C 0.23447 0.50026 0.51111 0.0
C616 C 0.15726 0.503 0.358 0.0
C617 C 0.14206 0.49708 0.43943 0.0
C618 C 0.18117 0.49241 0.34776 0.0
C619 C 0.1901 0.47527 0.42103 0.0
C620 C 0.17467 0.46891 0.50306 0.0
C621 C 0.15075 0.47998 0.51143 0.0
C622 C 0.19631 0.49913 0.25617 0.0
C623 C 0.18344 0.45095 0.58287 0.0
H624 H 0.24194 0.43013 0.22339 0.0
H625 H 0.27225 0.49336 0.382 0.0
H626 H 0.18543 0.42287 0.38304 0.0
H627 H 0.18571 0.43542 0.25893 0.0
H628 H 0.2047 0.40838 0.28803 0.0
H629 H 0.2533 0.50585 0.53973 0.0
H630 H 0.22568 0.51704 0.47605 0.0
H631 H 0.22241 0.49434 0.5744 0.0
H632 H 0.15026 0.51572 0.30126 0.0
H633 H 0.13904 0.47561 0.57534 0.0
H634 H 0.19606 0.48286 0.20462 0.0
H635 H 0.21614 0.50351 0.27498 0.0
H636 H 0.18845 0.51567 0.21617 0.0
H637 H 0.19439 0.4351 0.55108 0.0
H638 H 0.16736 0.44316 0.62608 0.0
H639 H 0.196 0.46115 0.63495 0.0
C640 C 0.93973 0.80571 0.20925 0.0
C641 C 0.95757 0.78635 0.20079 0.0
C642 C 0.94241 0.82763 0.15196 0.0
C643 C 0.96231 0.82899 0.082 0.0
C644 C 0.97497 0.80667 0.054 0.0
C645 C 0.9724 0.78526 0.11439 0.0
C646 C 0.92745 0.85064 0.18064 0.0
C647 C 0.99511 0.80687 0.97479 0.0
C648 C 0.98234 0.89248 0.97693 0.0
C649 C 1.00083 0.89966 0.04595 0.0
C650 C 0.9695 0.86947 0.98681 0.0
C651 C 0.97538 0.85344 0.06756 0.0
C652 C 0.99412 0.86077 0.13735 0.0
C653 C 1.00657 0.88377 0.12541 0.0
C654 C 0.95003 0.86225 0.91026 0.0
C655 C 1.00063 0.84483 0.22697 0.0
H656 H 0.92717 0.80592 0.27299 0.0
H657 H 0.98542 0.76977 0.10395 0.0
H658 H 0.93809 0.8614 0.23759 0.0
H659 H 0.92433 0.8632 0.11587 0.0
H660 H 0.90892 0.84531 0.21308 0.0
H661 H 0.99831 0.78766 0.94461 0.0
H662 H 0.99007 0.81972 0.91288 0.0
H663 H 1.01306 0.81364 0.00771 0.0
H664 H 0.97819 0.90474 0.91448 0.0
H665 H 0.02055 0.8896 0.1795 0.0
H666 H 0.93311 0.85385 0.9458 0.0
H667 H 0.95808 0.84782 0.85991 0.0
H668 H 0.94412 0.87866 0.86458 0.0
H669 H 0.01778 0.85165 0.26577 0.0
H670 H 1.00385 0.82493 0.20572 0.0
H671 H 0.9847 0.84544 0.28035 0.0
C672 C 0.72705 0.08312 0.15575 0.0
C673 C 0.7408 0.09357 0.23413 0.0
C674 C 0.70339 0.09284 0.13076 0.0
C675 C 0.69426 0.11435 0.18189 0.0
C676 C 0.71086 0.12821 0.24327 0.0
C677 C 0.73381 0.11718 0.27171 0.0
C678 C 0.68682 0.07776 0.06141 0.0
C679 C 0.70317 0.15293 0.28907 0.0
C680 C 0.62655 0.11898 0.10513 0.0
C681 C 0.61556 0.10323 0.17739 0.0
C682 C 0.65182 0.12661 0.1134 0.0
C683 C 0.66651 0.11726 0.19296 0.0
C684 C 0.65438 0.10468 0.27317 0.0
C685 C 0.62886 0.09845 0.26521 0.0
C686 C 0.66311 0.1426 0.0319 0.0
C687 C 0.66882 0.09437 0.36102 0.0
H688 H 0.73274 0.06501 0.12594 0.0
H689 H 0.74473 0.12556 0.33124 0.0
H690 H 0.6795 0.09002 1.00133 0.0
H691 H 0.69705 0.0618 0.02654 0.0
H692 H 0.67041 0.07006 0.10292 0.0
H693 H 0.71968 0.16575 0.29421 0.0
H694 H 0.68812 0.16231 0.24533 0.0
H695 H 0.69617 0.14973 0.36583 0.0
H696 H 0.61631 0.12362 0.03792 0.0
H697 H 0.62001 0.08756 0.32393 0.0
H698 H 0.68165 0.15065 0.05304 0.0
H699 H 0.65008 0.15826 0.01319 0.0
H700 H 0.6654 0.13113 0.96357 0.0
H701 H 0.68002 0.07787 0.33649 0.0
H702 H 0.6561 0.08823 0.42215 0.0
H703 H 0.68196 0.10857 0.39154 0.0
C704 C 0.4827 0.71851 0.10764 0.0
C705 C 0.46937 0.73586 0.16534 0.0
C706 C 0.47107 0.69629 0.07564 0.0
C707 C 0.4453 0.69217 0.09883 0.0
C708 C 0.43074 0.71218 0.1376 0.0
C709 C 0.44313 0.73376 0.17312 0.0
C710 C 0.48732 0.67581 0.03131 0.0
C711 C 0.40277 0.70943 0.15405 0.0
C712 C 0.4312 0.62554 0.02438 0.0
C713 C 0.43832 0.61288 0.11189 0.0
C714 C 0.42959 0.65193 0.02192 0.0
C715 C 0.43623 0.66577 0.10769 0.0
C716 C 0.43988 0.65291 0.19928 0.0
C717 C 0.44016 0.62657 0.20045 0.0
C718 C 0.4234 0.6647 0.92469 0.0
C719 C 0.44731 0.66655 0.29337 0.0
H720 H 0.50301 0.72038 0.10151 0.0
H721 H 0.43278 0.74737 0.21719 0.0
H722 H 0.48902 0.65996 0.08489 0.0
H723 H 0.47859 0.66834 0.96262 0.0
H724 H 0.50656 0.68264 0.01273 0.0
H725 H 0.39336 0.72811 0.15378 0.0
H726 H 0.39414 0.69734 0.09599 0.0
H727 H 0.39926 0.70052 0.22746 0.0
H728 H 0.42916 0.61525 0.95533 0.0
H729 H 0.44454 0.61678 0.26915 0.0
H730 H 0.44014 0.66426 0.87514 0.0
H731 H 0.41754 0.68459 0.93513 0.0
H732 H 0.40806 0.65436 0.88611 0.0
H733 H 0.46731 0.67246 0.28705 0.0
H734 H 0.44544 0.65434 0.36021 0.0
H735 H 0.43574 0.68363 0.30512 0.0
C736 C 0.7958 0.42835 0.22608 0.0
C737 C 0.79293 0.42884 0.32988 0.0
C738 C 0.81785 0.41853 0.18364 0.0
C739 C 0.83682 0.40899 0.2471 0.0
C740 C 0.83063 0.4032 0.34687 0.0
C741 C 0.8085 0.41331 0.38784 0.0
C742 C 0.82292 0.4232 0.07483 0.0
C743 C 0.84946 0.39075 0.41466 0.0
C744 C 0.90337 0.40656 0.13879 0.0
C745 C 0.91233 0.43053 0.16526 0.0
C746 C 0.87916 0.39849 0.16814 0.0
C747 C 0.8635 0.41511 0.2227 0.0
C748 C 0.87284 0.43917 0.25045 0.0
C749 C 0.89702 0.44643 0.22174 0.0
C750 C 0.8705 0.37251 0.13833 0.0
C751 C 0.8573 0.45773 0.30953 0.0
H752 H 0.78329 0.43939 0.17963 0.0
H753 H 0.80567 0.41252 0.46768 0.0
H754 H 0.8344 0.44059 0.06654 0.0
H755 H 0.83366 0.40735 0.04203 0.0
H756 H 0.80513 0.42574 0.03251 0.0
H757 H 0.83984 0.38095 0.47719 0.0
H758 H 0.86123 0.37704 0.37318 0.0
H759 H 0.8621 0.40533 0.44654 0.0
H760 H 0.91525 0.39415 0.09524 0.0
H761 H 0.90368 0.46513 0.24093 0.0
H762 H 0.86397 0.37303 0.06001 0.0
H763 H 0.85488 0.36543 0.1857 0.0
H764 H 0.88641 0.35896 0.14211 0.0
H765 H 0.86679 0.47623 0.31712 0.0
H766 H 0.85402 0.45013 0.38525 0.0
H767 H 0.83881 0.46096 0.27358 0.0
C768 C 0.03588 0.21332 0.98104 0.0
C769 C 1.01175 0.22274 1.00177 0.0
C770 C 0.03908 0.19047 0.92806 0.0
C771 C 0.01766 0.17635 0.89735 0.0
C772 C 0.9934 0.18691 0.91142 0.0
C773 C 0.99083 0.21 0.96182 0.0
C774 C 0.06535 0.18051 0.91187 0.0
C775 C 0.96985 0.17261 0.8835 0.0
C776 C 0.02078 0.11706 0.73287 0.0
C777 C 0.02141 0.09766 0.80414 0.0
C778 C 0.02055 0.14274 0.76153 0.0
C779 C 0.02015 0.1493 0.86394 0.0
C780 C 0.02056 0.12971 0.93583 0.0
C781 C 0.02153 0.10435 0.90522 0.0
C782 C 0.02059 0.16288 0.68226 0.0
C783 C 0.01931 0.13548 0.04572 0.0
H784 H 0.05214 0.22272 0.01264 0.0
H785 H 0.97208 0.21695 0.97858 0.0
H786 H 0.06915 0.16517 0.9659 0.0
H787 H 0.06728 0.17249 0.83606 0.0
H788 H 0.07982 0.19543 0.9221 0.0
H789 H 0.9531 0.18512 0.88058 0.0
H790 H 0.972 0.16313 0.81062 0.0
H791 H 0.96627 0.15777 0.94004 0.0
H792 H 0.02078 0.11218 0.65462 0.0
H793 H 0.02176 0.08962 0.96115 0.0
H794 H 0.03622 0.17636 0.69567 0.0
H795 H 1.00277 0.17373 0.68559 0.0
H796 H 0.02267 0.15489 0.60638 0.0
H797 H 0.03547 0.14754 0.06745 0.0
H798 H 0.01956 0.11817 0.09225 0.0
H799 H 1.00183 0.14613 0.06257 0.0
C800 C 0.32236 0.01746 0.95845 0.0
C801 C 0.31147 0.04148 0.95059 0.0
C802 C 0.3467 1.01246 0.91973 0.0
C803 C 0.3608 0.03198 0.87298 0.0
C804 C 0.34908 0.0557 0.85858 0.0
C805 C 0.32468 0.06005 0.89663 0.0
C806 C 0.35793 0.98665 0.9346 0.0
C807 C 0.36312 0.07731 0.81067 0.0
C808 C 0.43281 0.0305 0.90089 0.0
C809 C 0.44111 0.02339 0.8057 0.0
C810 C 0.40697 0.0334 0.92301 0.0
C811 C 0.38848 0.02859 0.84911 0.0
C812 C 0.39669 0.02127 0.75277 0.0
C813 C 0.42276 0.01897 0.73211 0.0
C814 C 0.39948 0.04156 0.02633 0.0
C815 C 0.37791 0.01581 0.67137 0.0
H816 H 0.31265 1.00305 1.00105 0.0
H817 H 0.31657 0.07873 0.89045 0.0
H818 H 0.36751 0.98022 0.86576 0.0
H819 H 0.37229 0.98747 0.9944 0.0
H820 H 0.34343 0.97252 0.95601 0.0
H821 H 0.35047 0.09334 0.79265 0.0
H822 H 0.37794 0.08409 0.86233 0.0
H823 H 0.37264 0.07114 0.74148 0.0
H824 H 0.4466 0.03409 0.95857 0.0
H825 H 0.42875 1.01347 0.65815 0.0
H826 H 0.38991 0.02567 0.06437 0.0
H827 H 0.38602 0.05751 0.023 0.0
H828 H 0.41595 0.04731 0.07192 0.0
H829 H 0.36423 1.00133 0.6969 0.0
H830 H 0.38714 1.00909 0.60211 0.0
H831 H 0.36702 0.03306 0.65361 0.0
C832 C 0.51939 0.31721 0.9769 0.0
C833 C 0.54355 0.30646 0.9761 0.0
C834 C 0.51467 0.34072 0.93019 0.0
C835 C 0.53466 0.35418 0.8834 0.0
C836 C 0.55857 0.34243 0.87624 0.0
C837 C 0.56255 0.31874 0.92104 0.0
C838 C 0.48866 0.35196 0.93711 0.0
C839 C 0.58075 0.35591 0.82979 0.0
C840 C 0.52443 0.41415 0.72603 0.0
C841 C 0.52798 0.43342 0.79636 0.0
C842 C 0.52582 0.38838 0.75331 0.0
C843 C 0.5316 0.38148 0.8529 0.0
C844 C 0.53559 0.40093 0.92359 0.0
C845 C 0.5334 0.42642 0.89496 0.0
C846 C 0.52104 0.3685 0.67549 0.0
C847 C 0.5426 0.39484 0.02978 0.0
H848 H 0.50466 0.30824 0.02028 0.0
H849 H 0.58136 0.31078 0.92085 0.0
H850 H 0.48866 0.36733 0.99292 0.0
H851 H 0.48303 0.36027 0.86469 0.0
H852 H 0.47436 0.33774 0.9597 0.0
H853 H 0.5972 0.34325 0.81961 0.0
H854 H 0.57559 0.364 0.75656 0.0
H855 H 0.58651 0.37177 0.87848 0.0
H856 H 0.52012 0.41921 0.64982 0.0
H857 H 0.53644 0.44101 0.95004 0.0
H858 H 0.51501 0.37676 0.60339 0.0
H859 H 0.50627 0.35523 0.7018 0.0
H860 H 0.53841 0.35734 0.66282 0.0
H861 H 0.52715 0.38409 0.06589 0.0
H862 H 0.5464 0.41201 0.07449 0.0
H863 H 0.55963 0.38276 0.03117 0.0
C864 C 0.21967 0.48054 0.92953 0.0
C865 C 0.23289 0.50044 0.97492 0.0
C866 C 0.19464 0.48338 0.89582 0.0
C867 C 0.18209 0.5068 0.9069 0.0
C868 C 0.19589 0.52745 0.94667 0.0
C869 C 0.22097 0.52401 0.98046 0.0
C870 C 0.181 0.46053 0.85635 0.0
C871 C 0.18363 0.55284 0.95968 0.0
C872 C 0.11938 0.5156 0.76608 0.0
C873 C 0.10124 0.5104 0.83997 0.0
C874 C 0.14555 0.51514 0.78712 0.0
C875 C 0.15415 0.50894 0.88412 0.0
C876 C 0.13591 0.50363 0.95877 0.0
C877 C 0.1099 0.50461 0.93615 0.0
C878 C 0.16407 0.52122 0.7053 0.0
C879 C 0.14385 0.49696 0.06329 0.0
H880 H 0.22838 0.46208 0.92686 0.0
H881 H 0.23059 0.53934 0.01776 0.0
H882 H 0.16911 0.45244 0.91645 0.0
H883 H 0.16838 0.46558 0.79381 0.0
H884 H 0.19435 0.44576 0.83097 0.0
H885 H 0.19765 0.56779 0.97664 0.0
H886 H 0.1731 0.55824 0.89169 0.0
H887 H 0.1699 0.55189 0.02187 0.0
H888 H 0.11314 0.52022 0.69152 0.0
H889 H 0.09628 0.50063 0.99424 0.0
H890 H 0.17612 0.50458 0.69045 0.0
H891 H 0.17673 0.53674 0.72899 0.0
H892 H 0.15457 0.52686 0.63519 0.0
H893 H 0.15764 0.48126 0.0623 0.0
H894 H 0.12763 0.49144 0.11097 0.0
H895 H 0.15327 0.51344 0.09764 0.0
C896 C 0.02468 0.81909 0.50115 0.0
C897 C 1.00057 0.80829 0.50811 0.0
C898 C 0.02953 0.84365 0.5376 0.0
C899 C 1.00974 0.85803 0.58061 0.0
C900 C 0.98586 0.84647 0.59372 0.0
C901 C 0.98169 0.82184 0.55839 0.0
C902 C 0.05546 0.8548 0.52405 0.0
C903 C 0.96386 0.86088 0.63632 0.0
C904 C 0.0206 0.92025 0.72079 0.0
C905 C 0.01601 0.93839 0.64658 0.0
C906 C 0.01941 0.89414 0.70001 0.0
C907 C 1.01305 0.88574 0.60301 0.0
C908 C 1.00838 0.90401 0.52801 0.0
C909 C 1.01016 0.92993 0.55036 0.0
C910 C 0.02472 0.87551 0.78222 0.0
C911 C 1.00129 0.89621 0.42378 0.0
H912 H 0.03928 0.80909 0.4609 0.0
H913 H 0.9629 0.81385 0.56298 0.0
H914 H 0.05511 0.86861 0.46208 0.0
H915 H 0.06142 0.86499 0.5921 0.0
H916 H 0.0697 0.84014 0.50639 0.0
H917 H 0.94842 0.84812 0.66061 0.0
H918 H 0.96973 0.87264 0.70031 0.0
H919 H 0.95633 0.87374 0.57839 0.0
H920 H 0.02521 0.92642 0.7954 0.0
H921 H 1.00658 0.94364 0.49226 0.0
H922 H 0.03929 0.86187 0.75786 0.0
H923 H 1.00741 0.86458 0.79936 0.0
H924 H 0.03126 0.88488 0.85139 0.0
H925 H 0.0173 0.8861 0.38908 0.0
H926 H 0.99641 0.91257 0.3759 0.0
H927 H 0.985 0.88308 0.42553 0.0
C928 C 0.71498 0.04942 0.56411 0.0
C929 C 0.72702 0.03292 0.49732 0.0
C930 C 0.69108 0.04397 0.60435 0.0
C931 C 0.67927 0.02065 0.5828 0.0
C932 C 0.69264 1.00266 0.52497 0.0
C933 C 0.71615 1.00912 0.48174 0.0
C934 C 0.67739 0.06438 0.66081 0.0
C935 C 0.68131 0.97725 0.50256 0.0
C936 C 0.61911 1.00794 0.73463 0.0
C937 C 0.60006 1.01371 0.66589 0.0
C938 C 0.64487 1.00875 0.70729 0.0
C939 C 0.65194 0.01669 0.61018 0.0
C940 C 0.63266 0.02249 0.54063 0.0
C941 C 0.60714 0.02043 0.56873 0.0
C942 C 0.66451 1.00097 0.78224 0.0
C943 C 0.63859 0.03088 0.43573 0.0
H944 H 0.72325 0.06781 0.57733 0.0
H945 H 0.72503 0.99623 0.43004 0.0
H946 H 0.66096 0.07083 0.61651 0.0
H947 H 0.67005 0.05708 0.73245 0.0
H948 H 0.68964 0.08092 0.67618 0.0
H949 H 0.69583 0.96363 0.47717 0.0
H950 H 0.67163 0.96944 0.5691 0.0
H951 H 0.66709 0.97928 0.44272 0.0
H952 H 0.61386 1.00239 0.80948 0.0
H953 H 0.59263 0.02491 0.51481 0.0
H954 H 0.67555 0.01763 0.80618 0.0
H955 H 0.67791 0.98746 0.74806 0.0
H956 H 0.65598 0.99211 0.84925 0.0
H957 H 0.65672 0.04119 0.43066 0.0
H958 H 0.62345 0.04314 0.40571 0.0
H959 H 0.63985 1.01405 0.38721 0.0
C960 C 0.48824 0.70895 0.53303 0.0
C961 C 0.50874 0.72119 0.48705 0.0
C962 C 0.49077 0.68503 0.57763 0.0
C963 C 0.51457 0.67292 0.5786 0.0
C964 C 0.53582 0.68626 0.54105 0.0
C965 C 0.53265 0.71009 0.49511 0.0
C966 C 0.46742 0.67177 0.61517 0.0
C967 C 0.56168 0.67454 0.54255 0.0
C968 C 0.52103 0.61189 0.73234 0.0
C969 C 0.51871 0.59312 0.65913 0.0
C970 C 0.52021 0.63783 0.70755 0.0
C971 C 0.5165 0.64541 0.60725 0.0
C972 C 0.51376 0.62649 0.53349 0.0
C973 C 0.51517 0.6008 0.56 0.0
C974 C 0.5235 0.65716 0.78869 0.0
C975 C 0.50899 0.63337 0.4261 0.0
H976 H 0.46963 0.71719 0.52624 0.0
H977 H 0.54853 0.71906 0.45859 0.0
H978 H 0.46242 0.65632 0.56326 0.0
H979 H 0.47082 0.66317 0.68914 0.0
H980 H 0.45106 0.68474 0.62094 0.0
H981 H 0.57669 0.68855 0.52593 0.0
H982 H 0.5655 0.66586 0.61612 0.0
H983 H 0.56264 0.65936 0.48602 0.0
H984 H 0.52387 0.60632 0.80909 0.0
H985 H 0.5131 0.58663 0.50261 0.0
H986 H 0.50683 0.66972 0.79184 0.0
H987 H 0.5401 0.66919 0.77197 0.0
H988 H 0.52613 0.64836 0.86298 0.0
H989 H 0.50641 0.61654 0.37815 0.0
H990 H 0.52501 0.6446 0.39667 0.0
H991 H 0.49188 0.64526 0.42052 0.0
C992 C 0.83512 0.51435 0.4306 0.0
C993 C 0.81489 0.50702 0.49169 0.0
C994 C 0.85946 0.51864 0.4699 0.0
C995 C 0.86384 0.51585 0.57349 0.0
C996 C 0.843 0.51038 0.63637 0.0
C997 C 0.81897 0.50567 0.59474 0.0
C998 C 0.88091 0.52428 0.39936 0.0
C999 C 0.84637 0.50785 0.74729 0.0
C1000 C 0.9294 0.4941 0.65963 0.0
C1001 C 0.94127 0.51686 0.68438 0.0
C1002 C 0.90442 0.49357 0.62323 0.0
C1003 C 0.89043 0.5163 0.61431 0.0
C1004 C 0.9022 0.53928 0.64224 0.0
C1005 C 0.92756 0.53933 0.67476 0.0
C1006 C 0.89325 0.4687 0.59118 0.0
C1007 C 0.88802 0.56386 0.63748 0.0
H1008 H 0.8324 0.51458 0.35069 0.0
H1009 H 0.80373 0.49927 0.64229 0.0
H1010 H 0.89068 0.54184 0.4218 0.0
H1011 H 0.89497 0.50884 0.40258 0.0
H1012 H 0.87442 0.52638 0.32126 0.0
H1013 H 0.85665 0.49015 0.76403 0.0
H1014 H 0.85781 0.5237 0.77657 0.0
H1015 H 0.82803 0.50739 0.78719 0.0
H1016 H 0.94003 0.47672 0.6654 0.0
H1017 H 0.93667 0.557 0.6934 0.0
H1018 H 0.88841 0.46951 0.51096 0.0
H1019 H 0.87555 0.46492 0.63258 0.0
H1020 H 0.90637 0.4527 0.6034 0.0
H1021 H 0.88358 0.56853 0.55905 0.0
H1022 H 0.89896 0.5797 0.66994 0.0
H1023 H 0.86984 0.56216 0.67787 0.0
loop_
_geom_bond_atom_site_label_1
_geom_bond_atom_site_label_2
_geom_bond_distance
_geom_bond_site_symmetry_2
_ccdc_geom_bond_type
H0 C5 0.930 . S
H1 C8 0.930 . S
H2 C10 0.930 . S
H3 C4 1.016 . S
C4 H3 1.016 . S
C4 N11 1.286 . S
C5 H0 0.930 . S
C5 C6 1.397 . S
C5 C7 1.361 . S
C6 C5 1.397 . S
C6 C10 1.390 . S
C7 C5 1.361 . S
C7 C8 1.393 . S
C7 N11 1.413 . S
C8 H1 0.930 . S
C8 C7 1.393 . S
C8 C9 1.399 . S
C9 C8 1.399 . S
C9 C10 1.381 . S
C10 H2 0.930 . S
C10 C6 1.390 . S
C10 C9 1.381 . S
N11 C4 1.286 . S
N11 C7 1.413 . S
H12 C17 0.930 . S
H13 C20 0.930 . S
H14 C22 0.930 . S
H15 C16 1.016 . S
C16 H15 1.016 . S
C16 N23 1.286 1_655 S
C17 H12 0.930 . S
C17 C18 1.400 . S
C17 C19 1.361 . S
C18 C17 1.400 . S
C18 C22 1.388 1_455 S
C19 C17 1.361 . S
C19 C20 1.393 . S
C19 N23 1.413 . S
C20 H13 0.930 . S
C20 C19 1.393 . S
C20 C21 1.398 1_455 S
C21 C20 1.398 1_655 S
C21 C22 1.381 . S
C22 H14 0.930 . S
C22 C18 1.388 1_655 S
C22 C21 1.381 . S
N23 C16 1.286 1_455 S
N23 C19 1.413 . S
H24 C29 0.930 . S
H25 C32 0.930 . S
H26 C34 0.930 . S
H27 C28 1.016 . S
C28 H27 1.016 . S
C28 N35 1.286 1_565 S
C29 H24 0.930 . S
C29 C30 1.395 1_545 S
C29 C31 1.361 . S
C30 C29 1.395 1_565 S
C30 C34 1.392 . S
C31 C29 1.361 . S
C31 C32 1.393 . S
C31 N35 1.413 . S
C32 H25 0.930 . S
C32 C31 1.393 . S
C32 C33 1.393 1_545 S
C33 C32 1.393 1_565 S
C33 C34 1.386 . S
C34 H26 0.930 . S
C34 C30 1.392 . S
C34 C33 1.386 . S
N35 C28 1.286 1_545 S
N35 C31 1.413 . S
H36 C41 0.930 . S
H37 C44 0.930 . S
H38 C46 0.930 . S
H39 C40 1.016 . S
C40 H39 1.016 . S
C40 N47 1.286 . S
C41 H36 0.930 . S
C41 C42 1.397 . S
C41 C43 1.361 . S
C42 C41 1.397 . S
C42 C46 1.390 . S
C43 C41 1.361 . S
C43 C44 1.393 . S
C43 N47 1.413 . S
C44 H37 0.930 . S
C44 C43 1.393 . S
C44 C45 1.399 . S
C45 C44 1.399 . S
C45 C46 1.381 . S
C46 H38 0.930 . S
C46 C42 1.390 . S
C46 C45 1.381 . S
N47 C40 1.286 . S
N47 C43 1.413 . S
H48 C53 0.930 . S
H49 C56 0.930 . S
H50 C58 0.930 . S
H51 C52 1.016 . S
C52 H51 1.016 . S
C52 N59 1.286 . S
C53 H48 0.930 . S
C53 C54 1.397 . S
C53 C55 1.361 1_556 S
C54 C53 1.397 . S
C54 C58 1.390 . S
C55 C53 1.361 1_554 S
C55 C56 1.393 . S
C55 N59 1.413 . S
C56 H49 0.930 . S
C56 C55 1.393 . S
C56 C57 1.399 . S
C57 C56 1.399 . S
C57 C58 1.381 1_554 S
C58 H50 0.930 . S
C58 C54 1.390 . S
C58 C57 1.381 1_556 S
N59 C52 1.286 . S
N59 C55 1.413 . S
H60 C65 0.930 . S
H61 C68 0.930 . S
H62 C70 0.925 1_655 S
H63 C64 1.016 1_655 S
C64 H63 1.016 1_455 S
C64 N71 1.286 . S
C65 H60 0.930 . S
C65 C66 1.397 . S
C65 C67 1.361 1_556 S
C66 C65 1.397 . S
C66 C70 1.394 . S
C67 C65 1.361 1_554 S
C67 C68 1.393 . S
C67 N71 1.413 . S
C68 H61 0.930 . S
C68 C67 1.393 . S
C68 C69 1.399 . S
C69 C68 1.399 . S
C69 C70 1.384 1_554 S
C70 H62 0.925 1_455 S
C70 C66 1.394 . S
C70 C69 1.384 1_556 S
N71 C64 1.286 . S
N71 C67 1.413 . S
H72 C77 0.930 . S
H73 C80 0.930 . S
H74 C82 0.931 . S
H75 C76 1.016 1_565 S
C76 H75 1.016 1_545 S
C76 N83 1.286 . S
C77 H72 0.930 . S
C77 C78 1.397 . S
C77 C79 1.361 1_556 S
C78 C77 1.397 . S
C78 C82 1.390 1_545 S
C79 C77 1.361 1_554 S
C79 C80 1.393 . S
C79 N83 1.413 . S
C80 H73 0.930 . S
C80 C79 1.393 . S
C80 C81 1.399 . S
C81 C80 1.399 . S
C81 C82 1.381 1_544 S
C82 H74 0.931 . S
C82 C78 1.390 1_565 S
C82 C81 1.381 1_566 S
N83 C76 1.286 . S
N83 C79 1.413 . S
H84 C89 0.930 . S
H85 C92 0.930 . S
H86 C94 0.930 . S
H87 C88 1.016 . S
C88 H87 1.016 . S
C88 N95 1.286 . S
C89 H84 0.930 . S
C89 C90 1.397 . S
C89 C91 1.361 1_556 S
C90 C89 1.397 . S
C90 C94 1.390 . S
C91 C89 1.361 1_554 S
C91 C92 1.393 . S
C91 N95 1.413 . S
C92 H85 0.930 . S
C92 C91 1.393 . S
C92 C93 1.399 . S
C93 C92 1.399 . S
C93 C94 1.381 1_554 S
C94 H86 0.930 . S
C94 C90 1.390 . S
C94 C93 1.381 1_556 S
N95 C88 1.286 . S
N95 C91 1.413 . S
Gd96 C99 2.818 . S
Gd96 O116 2.377 . S
Gd96 O118 2.448 . S
Gd96 O119 2.506 . S
Gd96 O120 2.435 . S
Gd96 O121 2.717 1_565 S
Gd96 O123 2.395 1_565 S
Gd96 O127 2.327 1_455 S
Gd97 C108 2.818 . S
Gd97 O117 2.395 1_545 S
Gd97 O121 2.327 1_655 S
Gd97 O122 2.377 . S
Gd97 O124 2.448 . S
Gd97 O125 2.506 . S
Gd97 O126 2.435 . S
Gd97 O127 2.717 1_545 S
C98 O116 1.240 1_655 S
C98 O117 1.240 . S
C99 Gd96 2.818 . S
C99 C100 1.510 1_556 S
C99 O118 1.249 . S
C99 O119 1.252 . S
C100 C99 1.510 1_554 S
C100 C101 1.404 . S
C100 C102 1.352 . S
C101 C100 1.404 . S
C101 C105 1.389 . S
C101 H128 0.931 . S
C102 C100 1.352 . S
C102 C104 1.374 . S
C102 H129 0.931 1_455 S
C103 C104 1.359 . S
C103 C105 1.364 . S
C104 C102 1.374 . S
C104 C103 1.359 . S
C104 H130 0.931 1_455 S
C105 C101 1.389 . S
C105 C103 1.364 . S
C105 H131 0.931 . S
C106 O120 1.274 . S
C106 O121 1.248 1_565 S
C107 O122 1.240 1_455 S
C107 O123 1.240 . S
C108 Gd97 2.818 . S
C108 C109 1.510 . S
C108 O124 1.249 . S
C108 O125 1.252 . S
C109 C108 1.510 . S
C109 C110 1.404 . S
C109 C111 1.352 . S
C110 C109 1.404 . S
C110 C114 1.389 . S
C110 H132 0.930 . S
C111 C109 1.352 . S
C111 C113 1.374 . S
C111 H133 0.931 1_655 S
C112 C113 1.359 . S
C112 C114 1.364 . S
C113 C111 1.374 . S
C113 C112 1.359 . S
C113 H134 0.931 1_655 S
C114 C110 1.389 . S
C114 C112 1.364 . S
C114 H135 0.931 . S
C115 O126 1.256 . S
C115 O127 1.257 1_545 S
O116 Gd96 2.377 . S
O116 C98 1.240 1_455 S
O117 Gd97 2.395 1_565 S
O117 C98 1.240 . S
O118 Gd96 2.448 . S
O118 C99 1.249 . S
O119 Gd96 2.506 . S
O119 C99 1.252 . S
O120 Gd96 2.435 . S
O120 C106 1.274 . S
O121 Gd96 2.717 1_545 S
O121 Gd97 2.327 1_455 S
O121 C106 1.248 1_545 S
O122 Gd97 2.377 . S
O122 C107 1.240 1_655 S
O123 Gd96 2.395 1_545 S
O123 C107 1.240 . S
O124 Gd97 2.448 . S
O124 C108 1.249 . S
O125 Gd97 2.506 . S
O125 C108 1.252 . S
O126 Gd97 2.435 . S
O126 C115 1.256 . S
O127 Gd96 2.327 1_655 S
O127 Gd97 2.717 1_565 S
O127 C115 1.257 1_565 S
H128 C101 0.931 . S
H129 C102 0.931 1_655 S
H130 C104 0.931 1_655 S
H131 C105 0.931 . S
H132 C110 0.930 . S
H133 C111 0.931 1_455 S
H134 C113 0.931 1_455 S
H135 C114 0.931 . S
Gd136 C139 2.818 . S
Gd136 O156 2.377 . S
Gd136 O158 2.448 . S
Gd136 O159 2.506 . S
Gd136 O160 2.435 . S
Gd136 O161 2.717 . S
Gd136 O163 2.395 . S
Gd136 O167 2.327 1_545 S
Gd137 C148 2.818 . S
Gd137 O157 2.395 . S
Gd137 O161 2.327 1_565 S
Gd137 O162 2.377 . S
Gd137 O164 2.448 . S
Gd137 O165 2.506 . S
Gd137 O166 2.435 . S
Gd137 O167 2.717 . S
C138 O156 1.240 1_565 S
C138 O157 1.240 . S
C139 Gd136 2.818 . S
C139 C140 1.510 1_556 S
C139 O158 1.249 . S
C139 O159 1.252 . S
C140 C139 1.510 1_554 S
C140 C141 1.404 . S
C140 C142 1.352 . S
C141 C140 1.404 . S
C141 C145 1.389 . S
C141 H168 0.932 . S
C142 C140 1.352 . S
C142 C144 1.374 . S
C142 H169 0.931 1_545 S
C143 C144 1.359 . S
C143 C145 1.364 . S
C144 C142 1.374 . S
C144 C143 1.359 . S
C144 H170 0.931 1_545 S
C145 C141 1.389 . S
C145 C143 1.364 . S
C145 H171 0.931 . S
C146 O160 1.256 . S
C146 O161 1.257 . S
C147 O162 1.240 1_545 S
C147 O163 1.240 . S
C148 Gd137 2.818 . S
C148 C149 1.510 . S
C148 O164 1.249 . S
C148 O165 1.252 . S
C149 C148 1.510 . S
C149 C150 1.404 . S
C149 C151 1.352 . S
C150 C149 1.404 . S
C150 C154 1.389 . S
C150 H172 0.930 . S
C151 C149 1.352 . S
C151 C153 1.374 . S
C151 H173 0.931 1_565 S
C152 C153 1.359 . S
C152 C154 1.364 . S
C153 C151 1.374 . S
C153 C152 1.359 . S
C153 H174 0.931 1_565 S
C154 C150 1.389 . S
C154 C152 1.364 . S
C154 H175 0.931 . S
C155 O166 1.256 . S
C155 O167 1.257 . S
O156 Gd136 2.377 . S
O156 C138 1.240 1_545 S
O157 Gd137 2.395 . S
O157 C138 1.240 . S
O158 Gd136 2.448 . S
O158 C139 1.249 . S
O159 Gd136 2.506 . S
O159 C139 1.252 . S
O160 Gd136 2.435 . S
O160 C146 1.256 . S
O161 Gd136 2.717 . S
O161 Gd137 2.327 1_545 S
O161 C146 1.257 . S
O162 Gd137 2.377 . S
O162 C147 1.240 1_565 S
O163 Gd136 2.395 . S
O163 C147 1.240 . S
O164 Gd137 2.448 . S
O164 C148 1.249 . S
O165 Gd137 2.506 . S
O165 C148 1.252 . S
O166 Gd137 2.435 . S
O166 C155 1.256 . S
O167 Gd136 2.327 1_565 S
O167 Gd137 2.717 . S
O167 C155 1.257 . S
H168 C141 0.932 . S
H169 C142 0.931 1_565 S
H170 C144 0.931 1_565 S
H171 C145 0.931 . S
H172 C150 0.930 . S
H173 C151 0.931 1_545 S
H174 C153 0.931 1_545 S
H175 C154 0.931 . S
Gd176 C179 2.818 . S
Gd176 O196 2.377 . S
Gd176 O198 2.448 . S
Gd176 O199 2.506 . S
Gd176 O200 2.435 . S
Gd176 O201 2.717 . S
Gd176 O203 2.395 . S
Gd176 O207 2.327 . S
Gd177 C188 2.818 . S
Gd177 O197 2.395 . S
Gd177 O201 2.327 . S
Gd177 O202 2.377 . S
Gd177 O204 2.448 . S
Gd177 O205 2.506 . S
Gd177 O206 2.435 . S
Gd177 O207 2.717 . S
C178 O196 1.240 . S
C178 O197 1.240 . S
C179 Gd176 2.818 . S
C179 C180 1.510 1_556 S
C179 O198 1.249 . S
C179 O199 1.252 . S
C180 C179 1.510 1_554 S
C180 C181 1.404 . S
C180 C182 1.352 . S
C181 C180 1.404 . S
C181 C185 1.389 . S
C181 H208 0.931 . S
C182 C180 1.352 . S
C182 C184 1.374 . S
C182 H209 0.931 . S
C183 C184 1.359 . S
C183 C185 1.364 . S
C184 C182 1.374 . S
C184 C183 1.359 . S
C184 H210 0.931 . S
C185 C181 1.389 . S
C185 C183 1.364 . S
C185 H211 0.931 . S
C186 O200 1.256 . S
C186 O201 1.257 . S
C187 O202 1.240 . S
C187 O203 1.240 . S
C188 Gd177 2.818 . S
C188 C189 1.510 . S
C188 O204 1.249 . S
C188 O205 1.252 . S
C189 C188 1.510 . S
C189 C190 1.404 . S
C189 C191 1.352 . S
C190 C189 1.404 . S
C190 C194 1.389 . S
C190 H212 0.930 . S
C191 C189 1.352 . S
C191 C193 1.374 . S
C191 H213 0.931 . S
C192 C193 1.359 . S
C192 C194 1.364 . S
C193 C191 1.374 . S
C193 C192 1.359 . S
C193 H214 0.931 . S
C194 C190 1.389 . S
C194 C192 1.364 . S
C194 H215 0.931 . S
C195 O206 1.256 . S
C195 O207 1.257 . S
O196 Gd176 2.377 . S
O196 C178 1.240 . S
O197 Gd177 2.395 . S
O197 C178 1.240 . S
O198 Gd176 2.448 . S
O198 C179 1.249 . S
O199 Gd176 2.506 . S
O199 C179 1.252 . S
O200 Gd176 2.435 . S
O200 C186 1.256 . S
O201 Gd176 2.717 . S
O201 Gd177 2.327 . S
O201 C186 1.257 . S
O202 Gd177 2.377 . S
O202 C187 1.240 . S
O203 Gd176 2.395 . S
O203 C187 1.240 . S
O204 Gd177 2.448 . S
O204 C188 1.249 . S
O205 Gd177 2.506 . S
O205 C188 1.252 . S
O206 Gd177 2.435 . S
O206 C195 1.256 . S
O207 Gd176 2.327 . S
O207 Gd177 2.717 . S
O207 C195 1.257 . S
H208 C181 0.931 . S
H209 C182 0.931 . S
H210 C184 0.931 . S
H211 C185 0.931 . S
H212 C190 0.930 . S
H213 C191 0.931 . S
H214 C193 0.931 . S
H215 C194 0.931 . S
Gd216 C219 2.818 . S
Gd216 O236 2.377 . S
Gd216 O238 2.448 . S
Gd216 O239 2.506 . S
Gd216 O240 2.435 . S
Gd216 O241 2.717 1_655 S
Gd216 O243 2.395 1_655 S
Gd216 O247 2.327 . S
Gd217 C228 2.818 . S
Gd217 O237 2.395 1_455 S
Gd217 O241 2.327 . S
Gd217 O242 2.377 . S
Gd217 O244 2.448 . S
Gd217 O245 2.506 . S
Gd217 O246 2.435 . S
Gd217 O247 2.717 1_455 S
C218 O236 1.240 . S
C218 O237 1.240 . S
C219 Gd216 2.818 . S
C219 C220 1.510 1_556 S
C219 O238 1.249 . S
C219 O239 1.252 . S
C220 C219 1.510 1_554 S
C220 C221 1.404 . S
C220 C222 1.352 . S
C221 C220 1.404 . S
C221 C225 1.389 . S
C221 H248 0.930 . S
C222 C220 1.352 . S
C222 C224 1.374 . S
C222 H249 0.931 . S
C223 C224 1.359 . S
C223 C225 1.364 . S
C224 C222 1.374 . S
C224 C223 1.359 . S
C224 H250 0.931 . S
C225 C221 1.389 . S
C225 C223 1.364 . S
C225 H251 0.931 . S
C226 O240 1.254 . S
C226 O241 1.258 1_655 S
C227 O242 1.240 . S
C227 O243 1.240 . S
C228 Gd217 2.818 . S
C228 C229 1.510 . S
C228 O244 1.249 . S
C228 O245 1.252 . S
C229 C228 1.510 . S
C229 C230 1.404 . S
C229 C231 1.352 . S
C230 C229 1.404 . S
C230 C234 1.389 . S
C230 H252 0.930 . S
C231 C229 1.352 . S
C231 C233 1.374 . S
C231 H253 0.931 . S
C232 C233 1.359 . S
C232 C234 1.364 . S
C233 C231 1.374 . S
C233 C232 1.359 . S
C233 H254 0.931 . S
C234 C230 1.389 . S
C234 C232 1.364 . S
C234 H255 0.931 . S
C235 O246 1.256 . S
C235 O247 1.257 1_455 S
O236 Gd216 2.377 . S
O236 C218 1.240 . S
O237 Gd217 2.395 1_655 S
O237 C218 1.240 . S
O238 Gd216 2.448 . S
O238 C219 1.249 . S
O239 Gd216 2.506 . S
O239 C219 1.252 . S
O240 Gd216 2.435 . S
O240 C226 1.254 . S
O241 Gd216 2.717 1_455 S
O241 Gd217 2.327 . S
O241 C226 1.258 1_455 S
O242 Gd217 2.377 . S
O242 C227 1.240 . S
O243 Gd216 2.395 1_455 S
O243 C227 1.240 . S
O244 Gd217 2.448 . S
O244 C228 1.249 . S
O245 Gd217 2.506 . S
O245 C228 1.252 . S
O246 Gd217 2.435 . S
O246 C235 1.256 . S
O247 Gd216 2.327 . S
O247 Gd217 2.717 1_655 S
O247 C235 1.257 1_655 S
H248 C221 0.930 . S
H249 C222 0.931 . S
H250 C224 0.931 . S
H251 C225 0.931 . S
H252 C230 0.930 . S
H253 C231 0.931 . S
H254 C233 0.931 . S
H255 C234 0.931 . S
C256 C257 1.424 . S
C256 C258 1.394 . S
C256 H272 0.931 . S
C257 C256 1.424 . S
C257 C261 1.342 1_545 S
C258 C256 1.394 . S
C258 C259 1.361 1_545 S
C258 C262 1.531 . S
C259 C258 1.361 1_565 S
C259 C260 1.418 . S
C259 C267 1.503 1_565 S
C260 C259 1.418 . S
C260 C261 1.392 . S
C260 C263 1.511 . S
C261 C257 1.342 1_565 S
C261 C260 1.392 . S
C261 H273 0.929 . S
C262 C258 1.531 . S
C262 H274 0.960 . S
C262 H275 0.962 . S
C262 H276 0.960 . S
C263 C260 1.511 . S
C263 H277 0.961 . S
C263 H278 0.961 . S
C263 H279 0.961 . S
C264 C265 1.370 . S
C264 C266 1.363 . S
C264 H280 0.931 . S
C265 C264 1.370 . S
C265 C269 1.408 1_545 S
C266 C264 1.363 . S
C266 C267 1.376 . S
C266 C270 1.524 . S
C267 C259 1.503 1_545 S
C267 C266 1.376 . S
C267 C268 1.397 1_545 S
C268 C267 1.397 1_565 S
C268 C269 1.404 . S
C268 C271 1.539 . S
C269 C265 1.408 1_565 S
C269 C268 1.404 . S
C269 H281 0.930 . S
C270 C266 1.524 . S
C270 H282 0.956 . S
C270 H283 0.961 . S
C270 H284 0.961 . S
C271 C268 1.539 . S
C271 H285 0.958 . S
C271 H286 0.961 . S
C271 H287 0.960 . S
H272 C256 0.931 . S
H273 C261 0.929 . S
H274 C262 0.960 . S
H275 C262 0.962 . S
H276 C262 0.960 . S
H277 C263 0.961 . S
H278 C263 0.961 . S
H279 C263 0.961 . S
H280 C264 0.931 . S
H281 C269 0.930 . S
H282 C270 0.956 . S
H283 C270 0.961 . S
H284 C270 0.961 . S
H285 C271 0.958 . S
H286 C271 0.961 . S
H287 C271 0.960 . S
C288 C289 1.391 . S
C288 C290 1.394 . S
C288 H304 0.931 . S
C289 C288 1.391 . S
C289 C293 1.376 . S
C290 C288 1.394 . S
C290 C291 1.369 . S
C290 C294 1.531 . S
C291 C290 1.369 . S
C291 C292 1.410 . S
C291 C299 1.503 . S
C292 C291 1.410 . S
C292 C293 1.392 . S
C292 C295 1.511 . S
C293 C289 1.376 . S
C293 C292 1.392 . S
C293 H305 0.929 . S
C294 C290 1.531 . S
C294 H306 0.960 . S
C294 H307 0.962 . S
C294 H308 0.960 . S
C295 C292 1.511 . S
C295 H309 0.961 . S
C295 H310 0.961 . S
C295 H311 0.961 . S
C296 C297 1.370 . S
C296 C298 1.363 . S
C296 H312 0.931 . S
C297 C296 1.370 . S
C297 C301 1.408 . S
C298 C296 1.363 . S
C298 C299 1.370 . S
C298 C302 1.524 . S
C299 C291 1.503 . S
C299 C298 1.370 . S
C299 C300 1.403 . S
C300 C299 1.403 . S
C300 C301 1.404 . S
C300 C303 1.539 . S
C301 C297 1.408 . S
C301 C300 1.404 . S
C301 H313 0.930 . S
C302 C298 1.524 . S
C302 H314 0.956 . S
C302 H315 0.961 . S
C302 H316 0.961 . S
C303 C300 1.539 . S
C303 H317 0.958 . S
C303 H318 0.961 . S
C303 H319 0.960 . S
H304 C288 0.931 . S
H305 C293 0.929 . S
H306 C294 0.960 . S
H307 C294 0.962 . S
H308 C294 0.960 . S
H309 C295 0.961 . S
H310 C295 0.961 . S
H311 C295 0.961 . S
H312 C296 0.931 . S
H313 C301 0.930 . S
H314 C302 0.956 . S
H315 C302 0.961 . S
H316 C302 0.961 . S
H317 C303 0.958 . S
H318 C303 0.961 . S
H319 C303 0.960 . S
C320 C321 1.391 . S
C320 C322 1.394 . S
C320 H336 0.931 . S
C321 C320 1.391 . S
C321 C325 1.376 . S
C322 C320 1.394 . S
C322 C323 1.369 . S
C322 C326 1.531 . S
C323 C322 1.369 . S
C323 C324 1.410 . S
C323 C331 1.503 . S
C324 C323 1.410 . S
C324 C325 1.392 . S
C324 C327 1.511 . S
C325 C321 1.376 . S
C325 C324 1.392 . S
C325 H337 0.929 . S
C326 C322 1.531 . S
C326 H338 0.960 . S
C326 H339 0.962 . S
C326 H340 0.960 . S
C327 C324 1.511 . S
C327 H341 0.961 . S
C327 H342 0.961 . S
C327 H343 0.961 . S
C328 C329 1.370 . S
C328 C330 1.363 . S
C328 H344 0.931 . S
C329 C328 1.370 . S
C329 C333 1.408 . S
C330 C328 1.363 . S
C330 C331 1.370 . S
C330 C334 1.524 . S
C331 C323 1.503 . S
C331 C330 1.370 . S
C331 C332 1.403 . S
C332 C331 1.403 . S
C332 C333 1.404 . S
C332 C335 1.539 . S
C333 C329 1.408 . S
C333 C332 1.404 . S
C333 H345 0.930 . S
C334 C330 1.524 . S
C334 H346 0.956 . S
C334 H347 0.961 . S
C334 H348 0.961 . S
C335 C332 1.539 . S
C335 H349 0.958 . S
C335 H350 0.961 . S
C335 H351 0.960 . S
H336 C320 0.931 . S
H337 C325 0.929 . S
H338 C326 0.960 . S
H339 C326 0.962 . S
H340 C326 0.960 . S
H341 C327 0.961 . S
H342 C327 0.961 . S
H343 C327 0.961 . S
H344 C328 0.931 . S
H345 C333 0.930 . S
H346 C334 0.956 . S
H347 C334 0.961 . S
H348 C334 0.961 . S
H349 C335 0.958 . S
H350 C335 0.961 . S
H351 C335 0.960 . S
C352 C353 1.391 . S
C352 C354 1.394 . S
C352 H368 0.931 . S
C353 C352 1.391 . S
C353 C357 1.376 1_455 S
C354 C352 1.394 . S
C354 C355 1.369 . S
C354 C358 1.531 . S
C355 C354 1.369 . S
C355 C356 1.410 1_455 S
C355 C363 1.503 . S
C356 C355 1.410 1_655 S
C356 C357 1.392 . S
C356 C359 1.511 . S
C357 C353 1.376 1_655 S
C357 C356 1.392 . S
C357 H369 0.929 . S
C358 C354 1.531 . S
C358 H370 0.960 . S
C358 H371 0.962 . S
C358 H372 0.960 . S
C359 C356 1.511 . S
C359 H373 0.961 . S
C359 H374 0.961 . S
C359 H375 0.961 . S
C360 C361 1.370 . S
C360 C362 1.363 . S
C360 H376 0.931 . S
C361 C360 1.370 . S
C361 C365 1.408 1_455 S
C362 C360 1.363 . S
C362 C363 1.370 . S
C362 C366 1.524 . S
C363 C355 1.503 . S
C363 C362 1.370 . S
C363 C364 1.403 1_455 S
C364 C363 1.403 1_655 S
C364 C365 1.404 . S
C364 C367 1.539 . S
C365 C361 1.408 1_655 S
C365 C364 1.404 . S
C365 H377 0.930 . S
C366 C362 1.524 . S
C366 H378 0.956 . S
C366 H379 0.961 1_455 S
C366 H380 0.961 . S
C367 C364 1.539 . S
C367 H381 0.958 1_655 S
C367 H382 0.961 . S
C367 H383 0.960 . S
H368 C352 0.931 . S
H369 C357 0.929 . S
H370 C358 0.960 . S
H371 C358 0.962 . S
H372 C358 0.960 . S
H373 C359 0.961 . S
H374 C359 0.961 . S
H375 C359 0.961 . S
H376 C360 0.931 . S
H377 C365 0.930 . S
H378 C366 0.956 . S
H379 C366 0.961 1_655 S
H380 C366 0.961 . S
H381 C367 0.958 1_455 S
H382 C367 0.961 . S
H383 C367 0.960 . S
C384 C385 1.398 . S
C384 C386 1.394 . S
C384 H400 0.931 . S
C385 C384 1.398 . S
C385 C389 1.371 1_545 S
C386 C384 1.394 . S
C386 C387 1.369 . S
C386 C390 1.531 . S
C387 C386 1.369 . S
C387 C388 1.410 1_545 S
C387 C395 1.503 . S
C388 C387 1.410 1_565 S
C388 C389 1.392 . S
C388 C391 1.511 . S
C389 C385 1.371 1_565 S
C389 C388 1.392 . S
C389 H401 0.929 . S
C390 C386 1.531 . S
C390 H402 0.960 . S
C390 H403 0.962 . S
C390 H404 0.960 . S
C391 C388 1.511 . S
C391 H405 0.961 . S
C391 H406 0.961 . S
C391 H407 0.961 1_565 S
C392 C393 1.370 . S
C392 C394 1.363 1_556 S
C392 H408 0.931 . S
C393 C392 1.370 . S
C393 C397 1.408 1_565 S
C394 C392 1.363 1_554 S
C394 C395 1.370 1_565 S
C394 C398 1.524 . S
C395 C387 1.503 . S
C395 C394 1.370 1_545 S
C395 C396 1.403 . S
C396 C395 1.403 . S
C396 C397 1.404 1_554 S
C396 C399 1.539 . S
C397 C393 1.408 1_545 S
C397 C396 1.404 1_556 S
C397 H409 0.930 . S
C398 C394 1.524 . S
C398 H410 0.956 . S
C398 H411 0.961 . S
C398 H412 0.961 . S
C399 C396 1.539 . S
C399 H413 0.958 . S
C399 H414 0.961 . S
C399 H415 0.960 . S
H400 C384 0.931 . S
H401 C389 0.929 . S
H402 C390 0.960 . S
H403 C390 0.962 . S
H404 C390 0.960 . S
H405 C391 0.961 . S
H406 C391 0.961 . S
H407 C391 0.961 1_545 S
H408 C392 0.931 . S
H409 C397 0.930 . S
H410 C398 0.956 . S
H411 C398 0.961 . S
H412 C398 0.961 . S
H413 C399 0.958 . S
H414 C399 0.961 . S
H415 C399 0.960 . S
C416 C417 1.391 . S
C416 C418 1.394 . S
C416 H432 0.931 . S
C417 C416 1.391 . S
C417 C421 1.376 . S
C418 C416 1.394 . S
C418 C419 1.369 . S
C418 C422 1.531 . S
C419 C418 1.369 . S
C419 C420 1.410 . S
C419 C427 1.503 . S
C420 C419 1.410 . S
C420 C421 1.392 . S
C420 C423 1.511 . S
C421 C417 1.376 . S
C421 C420 1.392 . S
C421 H433 0.929 . S
C422 C418 1.531 . S
C422 H434 0.960 . S
C422 H435 0.962 . S
C422 H436 0.960 . S
C423 C420 1.511 . S
C423 H437 0.961 . S
C423 H438 0.961 . S
C423 H439 0.961 . S
C424 C425 1.370 1_554 S
C424 C426 1.363 . S
C424 H440 0.931 . S
C425 C424 1.370 1_556 S
C425 C429 1.408 . S
C426 C424 1.363 . S
C426 C427 1.370 . S
C426 C430 1.524 . S
C427 C419 1.503 . S
C427 C426 1.370 . S
C427 C428 1.403 1_554 S
C428 C427 1.403 1_556 S
C428 C429 1.404 . S
C428 C431 1.539 . S
C429 C425 1.408 . S
C429 C428 1.404 . S
C429 H441 0.930 . S
C430 C426 1.524 . S
C430 H442 0.956 . S
C430 H443 0.961 . S
C430 H444 0.961 . S
C431 C428 1.539 . S
C431 H445 0.958 . S
C431 H446 0.961 . S
C431 H447 0.960 1_556 S
H432 C416 0.931 . S
H433 C421 0.929 . S
H434 C422 0.960 . S
H435 C422 0.962 . S
H436 C422 0.960 . S
H437 C423 0.961 . S
H438 C423 0.961 . S
H439 C423 0.961 . S
H440 C424 0.931 . S
H441 C429 0.930 . S
H442 C430 0.956 . S
H443 C430 0.961 . S
H444 C430 0.961 . S
H445 C431 0.958 . S
H446 C431 0.961 . S
H447 C431 0.960 1_554 S
C448 C449 1.391 . S
C448 C450 1.394 . S
C448 H464 0.931 . S
C449 C448 1.391 . S
C449 C453 1.376 . S
C450 C448 1.394 . S
C450 C451 1.369 . S
C450 C454 1.531 . S
C451 C450 1.369 . S
C451 C452 1.410 . S
C451 C459 1.503 . S
C452 C451 1.410 . S
C452 C453 1.392 . S
C452 C455 1.511 . S
C453 C449 1.376 . S
C453 C452 1.392 . S
C453 H465 0.929 . S
C454 C450 1.531 . S
C454 H466 0.960 . S
C454 H467 0.962 . S
C454 H468 0.960 . S
C455 C452 1.511 . S
C455 H469 0.961 . S
C455 H470 0.961 . S
C455 H471 0.961 . S
C456 C457 1.370 . S
C456 C458 1.363 1_556 S
C456 H472 0.931 . S
C457 C456 1.370 . S
C457 C461 1.408 . S
C458 C456 1.363 1_554 S
C458 C459 1.370 . S
C458 C462 1.524 . S
C459 C451 1.503 . S
C459 C458 1.370 . S
C459 C460 1.403 . S
C460 C459 1.403 . S
C460 C461 1.404 1_554 S
C460 C463 1.539 . S
C461 C457 1.408 . S
C461 C460 1.404 1_556 S
C461 H473 0.930 . S
C462 C458 1.524 . S
C462 H474 0.956 . S
C462 H475 0.961 . S
C462 H476 0.961 . S
C463 C460 1.539 . S
C463 H477 0.958 . S
C463 H478 0.961 1_554 S
C463 H479 0.960 . S
H464 C448 0.931 . S
H465 C453 0.929 . S
H466 C454 0.960 . S
H467 C454 0.962 . S
H468 C454 0.960 . S
H469 C455 0.961 . S
H470 C455 0.961 . S
H471 C455 0.961 . S
H472 C456 0.931 . S
H473 C461 0.930 . S
H474 C462 0.956 . S
H475 C462 0.961 . S
H476 C462 0.961 . S
H477 C463 0.958 . S
H478 C463 0.961 1_556 S
H479 C463 0.960 . S
C480 C481 1.391 . S
C480 C482 1.394 . S
C480 H496 0.931 . S
C481 C480 1.391 . S
C481 C485 1.376 1_655 S
C482 C480 1.394 . S
C482 C483 1.369 . S
C482 C486 1.531 . S
C483 C482 1.369 . S
C483 C484 1.410 1_655 S
C483 C491 1.503 . S
C484 C483 1.410 1_455 S
C484 C485 1.392 . S
C484 C487 1.511 . S
C485 C481 1.376 1_455 S
C485 C484 1.392 . S
C485 H497 0.929 . S
C486 C482 1.531 . S
C486 H498 0.960 . S
C486 H499 0.962 . S
C486 H500 0.960 . S
C487 C484 1.511 . S
C487 H501 0.961 . S
C487 H502 0.961 . S
C487 H503 0.961 . S
C488 C489 1.370 1_454 S
C488 C490 1.363 . S
C488 H504 0.931 . S
C489 C488 1.370 1_656 S
C489 C493 1.408 . S
C490 C488 1.363 . S
C490 C491 1.370 1_455 S
C490 C494 1.524 . S
C491 C483 1.503 . S
C491 C490 1.370 1_655 S
C491 C492 1.403 1_554 S
C492 C491 1.403 1_556 S
C492 C493 1.404 . S
C492 C495 1.539 . S
C493 C489 1.408 . S
C493 C492 1.404 . S
C493 H505 0.930 . S
C494 C490 1.524 . S
C494 H506 0.956 . S
C494 H507 0.961 . S
C494 H508 0.961 . S
C495 C492 1.539 . S
C495 H509 0.958 1_556 S
C495 H510 0.961 . S
C495 H511 0.960 1_556 S
H496 C480 0.931 . S
H497 C485 0.929 . S
H498 C486 0.960 . S
H499 C486 0.962 . S
H500 C486 0.960 . S
H501 C487 0.961 . S
H502 C487 0.961 . S
H503 C487 0.961 . S
H504 C488 0.931 . S
H505 C493 0.930 . S
H506 C494 0.956 . S
H507 C494 0.961 . S
H508 C494 0.961 . S
H509 C495 0.958 1_554 S
H510 C495 0.961 . S
H511 C495 0.960 1_554 S
C512 C513 1.391 1_655 S
C512 C514 1.394 . S
C512 H528 0.931 . S
C513 C512 1.391 1_455 S
C513 C517 1.376 . S
C514 C512 1.394 . S
C514 C515 1.369 . S
C514 C518 1.531 . S
C515 C514 1.369 . S
C515 C516 1.410 1_655 S
C515 C523 1.503 . S
C516 C515 1.410 1_455 S
C516 C517 1.392 . S
C516 C519 1.511 . S
C517 C513 1.376 . S
C517 C516 1.392 . S
C517 H529 0.929 . S
C518 C514 1.531 . S
C518 H530 0.960 . S
C518 H531 0.962 . S
C518 H532 0.960 . S
C519 C516 1.511 . S
C519 H533 0.961 . S
C519 H534 0.961 . S
C519 H535 0.961 . S
C520 C521 1.370 . S
C520 C522 1.363 . S
C520 H536 0.931 . S
C521 C520 1.370 . S
C521 C525 1.408 . S
C522 C520 1.363 . S
C522 C523 1.370 . S
C522 C526 1.524 . S
C523 C515 1.503 . S
C523 C522 1.370 . S
C523 C524 1.403 . S
C524 C523 1.403 . S
C524 C525 1.404 . S
C524 C527 1.539 . S
C525 C521 1.408 . S
C525 C524 1.404 . S
C525 H537 0.930 . S
C526 C522 1.524 . S
C526 H538 0.956 . S
C526 H539 0.961 . S
C526 H540 0.961 . S
C527 C524 1.539 . S
C527 H541 0.958 . S
C527 H542 0.961 1_655 S
C527 H543 0.960 1_655 S
H528 C512 0.931 . S
H529 C517 0.929 . S
H530 C518 0.960 . S
H531 C518 0.962 . S
H532 C518 0.960 . S
H533 C519 0.961 . S
H534 C519 0.961 . S
H535 C519 0.961 . S
H536 C520 0.931 . S
H537 C525 0.930 . S
H538 C526 0.956 . S
H539 C526 0.961 . S
H540 C526 0.961 . S
H541 C527 0.958 . S
H542 C527 0.961 1_455 S
H543 C527 0.960 1_455 S
C544 C545 1.391 . S
C544 C546 1.394 1_545 S
C544 H560 0.931 . S
C545 C544 1.391 . S
C545 C549 1.376 . S
C546 C544 1.394 1_565 S
C546 C547 1.369 . S
C546 C550 1.531 . S
C547 C546 1.369 . S
C547 C548 1.410 . S
C547 C555 1.503 . S
C548 C547 1.410 . S
C548 C549 1.392 1_565 S
C548 C551 1.511 . S
C549 C545 1.376 . S
C549 C548 1.392 1_545 S
C549 H561 0.929 . S
C550 C546 1.531 . S
C550 H562 0.960 1_565 S
C550 H563 0.962 . S
C550 H564 0.960 1_565 S
C551 C548 1.511 . S
C551 H565 0.961 . S
C551 H566 0.961 . S
C551 H567 0.961 1_565 S
C552 C553 1.370 . S
C552 C554 1.363 . S
C552 H568 0.931 . S
C553 C552 1.370 . S
C553 C557 1.408 . S
C554 C552 1.363 . S
C554 C555 1.370 . S
C554 C558 1.524 . S
C555 C547 1.503 . S
C555 C554 1.370 . S
C555 C556 1.403 1_565 S
C556 C555 1.403 1_545 S
C556 C557 1.404 1_545 S
C556 C559 1.539 . S
C557 C553 1.408 . S
C557 C556 1.404 1_565 S
C557 H569 0.930 1_565 S
C558 C554 1.524 . S
C558 H570 0.956 . S
C558 H571 0.961 . S
C558 H572 0.961 . S
C559 C556 1.539 . S
C559 H573 0.958 . S
C559 H574 0.961 . S
C559 H575 0.960 . S
H560 C544 0.931 . S
H561 C549 0.929 . S
H562 C550 0.960 1_545 S
H563 C550 0.962 . S
H564 C550 0.960 1_545 S
H565 C551 0.961 . S
H566 C551 0.961 . S
H567 C551 0.961 1_545 S
H568 C552 0.931 . S
H569 C557 0.930 1_545 S
H570 C558 0.956 . S
H571 C558 0.961 . S
H572 C558 0.961 . S
H573 C559 0.958 . S
H574 C559 0.961 . S
H575 C559 0.960 . S
C576 C577 1.391 . S
C576 C578 1.394 . S
C576 H592 0.931 . S
C577 C576 1.391 . S
C577 C581 1.376 . S
C578 C576 1.394 . S
C578 C579 1.369 . S
C578 C582 1.531 . S
C579 C578 1.369 . S
C579 C580 1.410 . S
C579 C587 1.503 . S
C580 C579 1.410 . S
C580 C581 1.392 . S
C580 C583 1.511 . S
C581 C577 1.376 . S
C581 C580 1.392 . S
C581 H593 0.929 . S
C582 C578 1.531 . S
C582 H594 0.960 . S
C582 H595 0.962 . S
C582 H596 0.960 . S
C583 C580 1.511 . S
C583 H597 0.961 . S
C583 H598 0.961 . S
C583 H599 0.961 . S
C584 C585 1.370 . S
C584 C586 1.363 . S
C584 H600 0.931 . S
C585 C584 1.370 . S
C585 C589 1.408 . S
C586 C584 1.363 . S
C586 C587 1.370 . S
C586 C590 1.524 . S
C587 C579 1.503 . S
C587 C586 1.370 . S
C587 C588 1.403 . S
C588 C587 1.403 . S
C588 C589 1.404 . S
C588 C591 1.539 . S
C589 C585 1.408 . S
C589 C588 1.404 . S
C589 H601 0.930 . S
C590 C586 1.524 . S
C590 H602 0.956 . S
C590 H603 0.961 . S
C590 H604 0.961 . S
C591 C588 1.539 . S
C591 H605 0.958 . S
C591 H606 0.961 . S
C591 H607 0.960 . S
H592 C576 0.931 . S
H593 C581 0.929 . S
H594 C582 0.960 . S
H595 C582 0.962 . S
H596 C582 0.960 . S
H597 C583 0.961 . S
H598 C583 0.961 . S
H599 C583 0.961 . S
H600 C584 0.931 . S
H601 C589 0.930 . S
H602 C590 0.956 . S
H603 C590 0.961 . S
H604 C590 0.961 . S
H605 C591 0.958 . S
H606 C591 0.961 . S
H607 C591 0.960 . S
C608 C609 1.391 . S
C608 C610 1.394 . S
C608 H624 0.931 . S
C609 C608 1.391 . S
C609 C613 1.376 . S
C610 C608 1.394 . S
C610 C611 1.369 . S
C610 C614 1.531 . S
C611 C610 1.369 . S
C611 C612 1.410 . S
C611 C619 1.503 . S
C612 C611 1.410 . S
C612 C613 1.392 . S
C612 C615 1.511 . S
C613 C609 1.376 . S
C613 C612 1.392 . S
C613 H625 0.929 . S
C614 C610 1.531 . S
C614 H626 0.960 . S
C614 H627 0.962 . S
C614 H628 0.960 . S
C615 C612 1.511 . S
C615 H629 0.961 . S
C615 H630 0.961 . S
C615 H631 0.961 . S
C616 C617 1.370 . S
C616 C618 1.363 . S
C616 H632 0.931 . S
C617 C616 1.370 . S
C617 C621 1.408 . S
C618 C616 1.363 . S
C618 C619 1.370 . S
C618 C622 1.524 . S
C619 C611 1.503 . S
C619 C618 1.370 . S
C619 C620 1.403 . S
C620 C619 1.403 . S
C620 C621 1.404 . S
C620 C623 1.539 . S
C621 C617 1.408 . S
C621 C620 1.404 . S
C621 H633 0.930 . S
C622 C618 1.524 . S
C622 H634 0.956 . S
C622 H635 0.961 . S
C622 H636 0.961 . S
C623 C620 1.539 . S
C623 H637 0.958 . S
C623 H638 0.961 . S
C623 H639 0.960 . S
H624 C608 0.931 . S
H625 C613 0.929 . S
H626 C614 0.960 . S
H627 C614 0.962 . S
H628 C614 0.960 . S
H629 C615 0.961 . S
H630 C615 0.961 . S
H631 C615 0.961 . S
H632 C616 0.931 . S
H633 C621 0.930 . S
H634 C622 0.956 . S
H635 C622 0.961 . S
H636 C622 0.961 . S
H637 C623 0.958 . S
H638 C623 0.961 . S
H639 C623 0.960 . S
C640 C641 1.391 . S
C640 C642 1.394 . S
C640 H656 0.931 . S
C641 C640 1.391 . S
C641 C645 1.376 1_655 S
C642 C640 1.394 . S
C642 C643 1.369 1_655 S
C642 C646 1.531 . S
C643 C642 1.369 1_455 S
C643 C644 1.410 . S
C643 C651 1.503 . S
C644 C643 1.410 . S
C644 C645 1.392 . S
C644 C647 1.511 . S
C645 C641 1.376 1_455 S
C645 C644 1.392 . S
C645 H657 0.929 . S
C646 C642 1.531 . S
C646 H658 0.960 . S
C646 H659 0.962 . S
C646 H660 0.960 . S
C647 C644 1.511 . S
C647 H661 0.961 . S
C647 H662 0.961 . S
C647 H663 0.961 . S
C648 C649 1.370 . S
C648 C650 1.363 . S
C648 H664 0.931 . S
C649 C648 1.370 . S
C649 C653 1.408 . S
C650 C648 1.363 . S
C650 C651 1.370 . S
C650 C654 1.524 . S
C651 C643 1.503 . S
C651 C650 1.370 . S
C651 C652 1.403 . S
C652 C651 1.403 . S
C652 C653 1.404 . S
C652 C655 1.539 . S
C653 C649 1.408 . S
C653 C652 1.404 . S
C653 H665 0.930 . S
C654 C650 1.524 . S
C654 H666 0.956 1_455 S
C654 H667 0.961 . S
C654 H668 0.961 1_554 S
C655 C652 1.539 . S
C655 H669 0.958 . S
C655 H670 0.961 . S
C655 H671 0.960 . S
H656 C640 0.931 . S
H657 C645 0.929 . S
H658 C646 0.960 . S
H659 C646 0.962 . S
H660 C646 0.960 . S
H661 C647 0.961 . S
H662 C647 0.961 . S
H663 C647 0.961 . S
H664 C648 0.931 . S
H665 C653 0.930 . S
H666 C654 0.956 1_655 S
H667 C654 0.961 . S
H668 C654 0.961 1_556 S
H669 C655 0.958 . S
H670 C655 0.961 . S
H671 C655 0.960 . S
C672 C673 1.391 . S
C672 C674 1.394 1_565 S
C672 H688 0.931 . S
C673 C672 1.391 . S
C673 C677 1.376 1_565 S
C674 C672 1.394 1_545 S
C674 C675 1.369 . S
C674 C678 1.531 . S
C675 C674 1.369 . S
C675 C676 1.410 . S
C675 C683 1.503 . S
C676 C675 1.410 . S
C676 C677 1.392 . S
C676 C679 1.511 . S
C677 C673 1.376 1_545 S
C677 C676 1.392 . S
C677 H689 0.929 . S
C678 C674 1.531 . S
C678 H690 0.960 . S
C678 H691 0.962 1_545 S
C678 H692 0.960 . S
C679 C676 1.511 . S
C679 H693 0.961 . S
C679 H694 0.961 . S
C679 H695 0.961 . S
C680 C681 1.370 . S
C680 C682 1.363 . S
C680 H696 0.931 1_545 S
C681 C680 1.370 . S
C681 C685 1.408 . S
C682 C680 1.363 . S
C682 C683 1.370 . S
C682 C686 1.524 1_545 S
C683 C675 1.503 . S
C683 C682 1.370 . S
C683 C684 1.403 . S
C684 C683 1.403 . S
C684 C685 1.404 . S
C684 C687 1.539 . S
C685 C681 1.408 . S
C685 C684 1.404 . S
C685 H697 0.930 . S
C686 C682 1.524 1_565 S
C686 H698 0.956 . S
C686 H699 0.961 . S
C686 H700 0.961 . S
C687 C684 1.539 . S
C687 H701 0.958 . S
C687 H702 0.961 . S
C687 H703 0.960 . S
H688 C672 0.931 . S
H689 C677 0.929 . S
H690 C678 0.960 . S
H691 C678 0.962 1_565 S
H692 C678 0.960 . S
H693 C679 0.961 . S
H694 C679 0.961 . S
H695 C679 0.961 . S
H696 C680 0.931 1_565 S
H697 C685 0.930 . S
H698 C686 0.956 . S
H699 C686 0.961 . S
H700 C686 0.961 . S
H701 C687 0.958 . S
H702 C687 0.961 . S
H703 C687 0.960 . S
C704 C705 1.391 . S
C704 C706 1.394 . S
C704 H720 0.931 . S
C705 C704 1.391 . S
C705 C709 1.376 . S
C706 C704 1.394 . S
C706 C707 1.369 . S
C706 C710 1.531 . S
C707 C706 1.369 . S
C707 C708 1.410 . S
C707 C715 1.503 . S
C708 C707 1.410 . S
C708 C709 1.392 . S
C708 C711 1.511 . S
C709 C705 1.376 . S
C709 C708 1.392 . S
C709 H721 0.929 . S
C710 C706 1.531 . S
C710 H722 0.960 . S
C710 H723 0.962 . S
C710 H724 0.960 . S
C711 C708 1.511 . S
C711 H725 0.961 . S
C711 H726 0.961 . S
C711 H727 0.961 . S
C712 C713 1.370 . S
C712 C714 1.363 . S
C712 H728 0.941 . S
C713 C712 1.370 . S
C713 C717 1.408 . S
C714 C712 1.363 . S
C714 C715 1.370 . S
C714 C718 1.524 . S
C715 C707 1.503 . S
C715 C714 1.370 . S
C715 C716 1.403 . S
C716 C715 1.403 . S
C716 C717 1.404 . S
C716 C719 1.539 . S
C717 C713 1.408 . S
C717 C716 1.404 . S
C717 H729 0.930 . S
C718 C714 1.524 . S
C718 H730 0.956 . S
C718 H731 0.961 . S
C718 H732 0.961 1_554 S
C719 C716 1.539 . S
C719 H733 0.958 . S
C719 H734 0.961 . S
C719 H735 0.960 . S
H720 C704 0.931 . S
H721 C709 0.929 . S
H722 C710 0.960 . S
H723 C710 0.962 . S
H724 C710 0.960 . S
H725 C711 0.961 . S
H726 C711 0.961 . S
H727 C711 0.961 . S
H728 C712 0.941 . S
H729 C717 0.930 . S
H730 C718 0.956 . S
H731 C718 0.961 . S
H732 C718 0.961 1_556 S
H733 C719 0.958 . S
H734 C719 0.961 . S
H735 C719 0.960 . S
C736 C737 1.391 . S
C736 C738 1.394 . S
C736 H752 0.931 . S
C737 C736 1.391 . S
C737 C741 1.376 . S
C738 C736 1.394 . S
C738 C739 1.369 . S
C738 C742 1.531 . S
C739 C738 1.369 . S
C739 C740 1.410 . S
C739 C747 1.503 . S
C740 C739 1.410 . S
C740 C741 1.392 . S
C740 C743 1.511 . S
C741 C737 1.376 . S
C741 C740 1.392 . S
C741 H753 0.929 . S
C742 C738 1.531 . S
C742 H754 0.960 . S
C742 H755 0.962 . S
C742 H756 0.960 . S
C743 C740 1.511 . S
C743 H757 0.961 . S
C743 H758 0.961 . S
C743 H759 0.961 . S
C744 C745 1.370 . S
C744 C746 1.363 . S
C744 H760 0.931 . S
C745 C744 1.370 . S
C745 C749 1.408 . S
C746 C744 1.363 . S
C746 C747 1.370 . S
C746 C750 1.524 . S
C747 C739 1.503 . S
C747 C746 1.370 . S
C747 C748 1.403 . S
C748 C747 1.403 . S
C748 C749 1.404 . S
C748 C751 1.539 . S
C749 C745 1.408 . S
C749 C748 1.404 . S
C749 H761 0.930 . S
C750 C746 1.524 . S
C750 H762 0.956 . S
C750 H763 0.961 . S
C750 H764 0.961 . S
C751 C748 1.539 . S
C751 H765 0.958 . S
C751 H766 0.961 . S
C751 H767 0.960 . S
H752 C736 0.931 . S
H753 C741 0.929 . S
H754 C742 0.960 . S
H755 C742 0.962 . S
H756 C742 0.960 . S
H757 C743 0.961 . S
H758 C743 0.961 . S
H759 C743 0.961 . S
H760 C744 0.931 . S
H761 C749 0.930 . S
H762 C750 0.956 . S
H763 C750 0.961 . S
H764 C750 0.961 . S
H765 C751 0.958 . S
H766 C751 0.961 . S
H767 C751 0.960 . S
C768 C769 1.391 . S
C768 C770 1.394 . S
C768 H784 0.931 . S
C769 C768 1.391 . S
C769 C773 1.376 1_455 S
C770 C768 1.394 . S
C770 C771 1.369 . S
C770 C774 1.531 . S
C771 C770 1.369 . S
C771 C772 1.410 1_455 S
C771 C779 1.503 . S
C772 C771 1.410 1_655 S
C772 C773 1.392 . S
C772 C775 1.511 . S
C773 C769 1.376 1_655 S
C773 C772 1.392 . S
C773 H785 0.929 . S
C774 C770 1.531 . S
C774 H786 0.960 . S
C774 H787 0.962 . S
C774 H788 0.960 . S
C775 C772 1.511 . S
C775 H789 0.961 . S
C775 H790 0.961 . S
C775 H791 0.961 . S
C776 C777 1.370 . S
C776 C778 1.363 . S
C776 H792 0.931 . S
C777 C776 1.370 . S
C777 C781 1.408 . S
C778 C776 1.363 . S
C778 C779 1.370 . S
C778 C782 1.524 . S
C779 C771 1.503 . S
C779 C778 1.370 . S
C779 C780 1.403 . S
C780 C779 1.403 . S
C780 C781 1.404 . S
C780 C783 1.539 1_456 S
C781 C777 1.408 . S
C781 C780 1.404 . S
C781 H793 0.930 . S
C782 C778 1.524 . S
C782 H794 0.956 . S
C782 H795 0.961 . S
C782 H796 0.961 . S
C783 C780 1.539 1_654 S
C783 H797 0.958 1_655 S
C783 H798 0.961 . S
C783 H799 0.960 . S
H784 C768 0.931 . S
H785 C773 0.929 . S
H786 C774 0.960 . S
H787 C774 0.962 . S
H788 C774 0.960 . S
H789 C775 0.961 . S
H790 C775 0.961 . S
H791 C775 0.961 . S
H792 C776 0.931 . S
H793 C781 0.930 . S
H794 C782 0.956 . S
H795 C782 0.961 . S
H796 C782 0.961 . S
H797 C783 0.958 1_455 S
H798 C783 0.961 . S
H799 C783 0.960 . S
C800 C801 1.391 1_565 S
C800 C802 1.394 . S
C800 H816 0.931 . S
C801 C800 1.391 1_545 S
C801 C805 1.376 . S
C802 C800 1.394 . S
C802 C803 1.369 1_565 S
C802 C806 1.531 . S
C803 C802 1.369 1_545 S
C803 C804 1.410 . S
C803 C811 1.503 . S
C804 C803 1.410 . S
C804 C805 1.392 . S
C804 C807 1.511 . S
C805 C801 1.376 . S
C805 C804 1.392 . S
C805 H817 0.929 . S
C806 C802 1.531 . S
C806 H818 0.960 . S
C806 H819 0.962 . S
C806 H820 0.960 . S
C807 C804 1.511 . S
C807 H821 0.961 . S
C807 H822 0.961 . S
C807 H823 0.961 . S
C808 C809 1.370 . S
C808 C810 1.363 . S
C808 H824 0.931 . S
C809 C808 1.370 . S
C809 C813 1.408 . S
C810 C808 1.363 . S
C810 C811 1.370 . S
C810 C814 1.524 . S
C811 C803 1.503 . S
C811 C810 1.370 . S
C811 C812 1.395 1_545 S
C812 C811 1.395 1_565 S
C812 C813 1.402 1_565 S
C812 C815 1.548 . S
C813 C809 1.408 . S
C813 C812 1.402 1_545 S
C813 H825 0.930 1_545 S
C814 C810 1.524 . S
C814 H826 0.956 1_556 S
C814 H827 0.961 . S
C814 H828 0.961 1_556 S
C815 C812 1.548 . S
C815 H829 0.958 . S
C815 H830 0.961 . S
C815 H831 0.960 . S
H816 C800 0.931 . S
H817 C805 0.929 . S
H818 C806 0.960 . S
H819 C806 0.962 . S
H820 C806 0.960 . S
H821 C807 0.961 . S
H822 C807 0.961 . S
H823 C807 0.961 . S
H824 C808 0.931 . S
H825 C813 0.930 1_565 S
H826 C814 0.956 1_554 S
H827 C814 0.961 . S
H828 C814 0.961 1_554 S
H829 C815 0.958 . S
H830 C815 0.961 . S
H831 C815 0.960 . S
C832 C833 1.391 . S
C832 C834 1.394 . S
C832 H848 0.931 . S
C833 C832 1.391 . S
C833 C837 1.376 . S
C834 C832 1.394 . S
C834 C835 1.369 . S
C834 C838 1.531 . S
C835 C834 1.369 . S
C835 C836 1.410 . S
C835 C843 1.503 . S
C836 C835 1.410 . S
C836 C837 1.392 . S
C836 C839 1.511 . S
C837 C833 1.376 . S
C837 C836 1.392 . S
C837 H849 0.929 . S
C838 C834 1.531 . S
C838 H850 0.960 . S
C838 H851 0.962 . S
C838 H852 0.960 . S
C839 C836 1.511 . S
C839 H853 0.961 . S
C839 H854 0.961 . S
C839 H855 0.961 . S
C840 C841 1.370 . S
C840 C842 1.363 . S
C840 H856 0.931 . S
C841 C840 1.370 . S
C841 C845 1.408 . S
C842 C840 1.363 . S
C842 C843 1.370 . S
C842 C846 1.524 . S
C843 C835 1.503 . S
C843 C842 1.370 . S
C843 C844 1.403 . S
C844 C843 1.403 . S
C844 C845 1.404 . S
C844 C847 1.539 1_556 S
C845 C841 1.408 . S
C845 C844 1.404 . S
C845 H857 0.930 . S
C846 C842 1.524 . S
C846 H858 0.956 . S
C846 H859 0.961 . S
C846 H860 0.961 . S
C847 C844 1.539 1_554 S
C847 H861 0.958 . S
C847 H862 0.961 . S
C847 H863 0.960 . S
H848 C832 0.931 . S
H849 C837 0.929 . S
H850 C838 0.960 . S
H851 C838 0.962 . S
H852 C838 0.960 . S
H853 C839 0.961 . S
H854 C839 0.961 . S
H855 C839 0.961 . S
H856 C840 0.931 . S
H857 C845 0.930 . S
H858 C846 0.956 . S
H859 C846 0.961 . S
H860 C846 0.961 . S
H861 C847 0.958 . S
H862 C847 0.961 . S
H863 C847 0.960 . S
C864 C865 1.391 . S
C864 C866 1.394 . S
C864 H880 0.931 . S
C865 C864 1.391 . S
C865 C869 1.376 . S
C866 C864 1.394 . S
C866 C867 1.369 . S
C866 C870 1.531 . S
C867 C866 1.369 . S
C867 C868 1.410 . S
C867 C875 1.503 . S
C868 C867 1.410 . S
C868 C869 1.392 . S
C868 C871 1.511 1_556 S
C869 C865 1.376 . S
C869 C868 1.392 . S
C869 H881 0.929 . S
C870 C866 1.531 . S
C870 H882 0.960 . S
C870 H883 0.962 . S
C870 H884 0.960 . S
C871 C868 1.511 1_554 S
C871 H885 0.961 . S
C871 H886 0.961 1_554 S
C871 H887 0.961 . S
C872 C873 1.370 . S
C872 C874 1.363 . S
C872 H888 0.931 . S
C873 C872 1.370 . S
C873 C877 1.408 . S
C874 C872 1.363 . S
C874 C875 1.370 . S
C874 C878 1.524 . S
C875 C867 1.503 . S
C875 C874 1.370 . S
C875 C876 1.403 . S
C876 C875 1.403 . S
C876 C877 1.404 . S
C876 C879 1.539 . S
C877 C873 1.408 . S
C877 C876 1.404 . S
C877 H889 0.930 . S
C878 C874 1.524 . S
C878 H890 0.956 . S
C878 H891 0.961 . S
C878 H892 0.961 . S
C879 C876 1.539 . S
C879 H893 0.958 . S
C879 H894 0.961 . S
C879 H895 0.960 . S
H880 C864 0.931 . S
H881 C869 0.929 . S
H882 C870 0.960 . S
H883 C870 0.962 . S
H884 C870 0.960 . S
H885 C871 0.961 . S
H886 C871 0.961 1_556 S
H887 C871 0.961 . S
H888 C872 0.931 . S
H889 C877 0.930 . S
H890 C878 0.956 . S
H891 C878 0.961 . S
H892 C878 0.961 . S
H893 C879 0.958 . S
H894 C879 0.961 . S
H895 C879 0.960 . S
C896 C897 1.391 1_455 S
C896 C898 1.394 . S
C896 H912 0.931 . S
C897 C896 1.391 1_655 S
C897 C901 1.376 . S
C898 C896 1.394 . S
C898 C899 1.369 1_455 S
C898 C902 1.531 . S
C899 C898 1.369 1_655 S
C899 C900 1.410 . S
C899 C907 1.503 . S
C900 C899 1.410 . S
C900 C901 1.392 . S
C900 C903 1.511 . S
C901 C897 1.376 . S
C901 C900 1.392 . S
C901 H913 0.929 . S
C902 C898 1.531 . S
C902 H914 0.960 . S
C902 H915 0.962 . S
C902 H916 0.960 . S
C903 C900 1.511 . S
C903 H917 0.961 . S
C903 H918 0.961 . S
C903 H919 0.961 . S
C904 C905 1.370 1_455 S
C904 C906 1.363 . S
C904 H920 0.931 . S
C905 C904 1.370 1_655 S
C905 C909 1.408 . S
C906 C904 1.363 . S
C906 C907 1.370 1_455 S
C906 C910 1.524 . S
C907 C899 1.503 . S
C907 C906 1.370 1_655 S
C907 C908 1.403 . S
C908 C907 1.403 . S
C908 C909 1.404 . S
C908 C911 1.539 . S
C909 C905 1.408 . S
C909 C908 1.404 . S
C909 H921 0.930 . S
C910 C906 1.524 . S
C910 H922 0.956 . S
C910 H923 0.961 . S
C910 H924 0.961 . S
C911 C908 1.539 . S
C911 H925 0.958 . S
C911 H926 0.961 . S
C911 H927 0.960 . S
H912 C896 0.931 . S
H913 C901 0.929 . S
H914 C902 0.960 . S
H915 C902 0.962 . S
H916 C902 0.960 . S
H917 C903 0.961 . S
H918 C903 0.961 . S
H919 C903 0.961 . S
H920 C904 0.931 . S
H921 C909 0.930 . S
H922 C910 0.956 . S
H923 C910 0.961 . S
H924 C910 0.961 . S
H925 C911 0.958 . S
H926 C911 0.961 . S
H927 C911 0.960 . S
C928 C929 1.391 1_545 S
C928 C930 1.394 . S
C928 H944 0.931 . S
C929 C928 1.391 1_565 S
C929 C933 1.376 . S
C930 C928 1.394 . S
C930 C931 1.369 1_545 S
C930 C934 1.531 . S
C931 C930 1.369 1_565 S
C931 C932 1.410 . S
C931 C939 1.503 . S
C932 C931 1.410 . S
C932 C933 1.392 . S
C932 C935 1.511 . S
C933 C929 1.376 . S
C933 C932 1.392 . S
C933 H945 0.929 . S
C934 C930 1.531 . S
C934 H946 0.960 . S
C934 H947 0.962 . S
C934 H948 0.960 . S
C935 C932 1.511 . S
C935 H949 0.961 . S
C935 H950 0.961 . S
C935 H951 0.961 . S
C936 C937 1.370 . S
C936 C938 1.363 . S
C936 H952 0.931 . S
C937 C936 1.370 . S
C937 C941 1.402 1_565 S
C938 C936 1.363 . S
C938 C939 1.370 . S
C938 C942 1.524 . S
C939 C931 1.503 . S
C939 C938 1.370 . S
C939 C940 1.403 1_565 S
C940 C939 1.403 1_545 S
C940 C941 1.405 . S
C940 C943 1.539 . S
C941 C937 1.402 1_545 S
C941 C940 1.405 . S
C941 H953 0.935 . S
C942 C938 1.524 . S
C942 H954 0.956 . S
C942 H955 0.961 . S
C942 H956 0.961 . S
C943 C940 1.539 . S
C943 H957 0.958 . S
C943 H958 0.961 . S
C943 H959 0.960 . S
H944 C928 0.931 . S
H945 C933 0.929 . S
H946 C934 0.960 . S
H947 C934 0.962 . S
H948 C934 0.960 . S
H949 C935 0.961 . S
H950 C935 0.961 . S
H951 C935 0.961 . S
H952 C936 0.931 . S
H953 C941 0.935 . S
H954 C942 0.956 . S
H955 C942 0.961 . S
H956 C942 0.961 . S
H957 C943 0.958 . S
H958 C943 0.961 . S
H959 C943 0.960 . S
C960 C961 1.391 . S
C960 C962 1.394 . S
C960 H976 0.931 . S
C961 C960 1.391 . S
C961 C965 1.376 . S
C962 C960 1.394 . S
C962 C963 1.369 . S
C962 C966 1.531 . S
C963 C962 1.369 . S
C963 C964 1.410 . S
C963 C971 1.503 . S
C964 C963 1.410 . S
C964 C965 1.392 . S
C964 C967 1.511 . S
C965 C961 1.376 . S
C965 C964 1.392 . S
C965 H977 0.929 . S
C966 C962 1.531 . S
C966 H978 0.960 . S
C966 H979 0.962 . S
C966 H980 0.960 . S
C967 C964 1.511 . S
C967 H981 0.961 . S
C967 H982 0.961 . S
C967 H983 0.961 . S
C968 C969 1.370 . S
C968 C970 1.363 . S
C968 H984 0.931 . S
C969 C968 1.370 . S
C969 C973 1.408 . S
C970 C968 1.363 . S
C970 C971 1.370 . S
C970 C974 1.524 . S
C971 C963 1.503 . S
C971 C970 1.370 . S
C971 C972 1.403 . S
C972 C971 1.403 . S
C972 C973 1.404 . S
C972 C975 1.539 . S
C973 C969 1.408 . S
C973 C972 1.404 . S
C973 H985 0.930 . S
C974 C970 1.524 . S
C974 H986 0.956 . S
C974 H987 0.961 . S
C974 H988 0.961 . S
C975 C972 1.539 . S
C975 H989 0.958 . S
C975 H990 0.961 . S
C975 H991 0.960 . S
H976 C960 0.931 . S
H977 C965 0.929 . S
H978 C966 0.960 . S
H979 C966 0.962 . S
H980 C966 0.960 . S
H981 C967 0.961 . S
H982 C967 0.961 . S
H983 C967 0.961 . S
H984 C968 0.931 . S
H985 C973 0.930 . S
H986 C974 0.956 . S
H987 C974 0.961 . S
H988 C974 0.961 . S
H989 C975 0.958 . S
H990 C975 0.961 . S
H991 C975 0.960 . S
C992 C993 1.391 . S
C992 C994 1.394 . S
C992 H1008 0.931 . S
C993 C992 1.391 . S
C993 C997 1.376 . S
C994 C992 1.394 . S
C994 C995 1.369 . S
C994 C998 1.531 . S
C995 C994 1.369 . S
C995 C996 1.410 . S
C995 C1003 1.503 . S
C996 C995 1.410 . S
C996 C997 1.392 . S
C996 C999 1.511 . S
C997 C993 1.376 . S
C997 C996 1.392 . S
C997 H1009 0.929 . S
C998 C994 1.531 . S
C998 H1010 0.960 . S
C998 H1011 0.962 . S
C998 H1012 0.960 . S
C999 C996 1.511 . S
C999 H1013 0.961 . S
C999 H1014 0.961 . S
C999 H1015 0.961 . S
C1000 C1001 1.370 . S
C1000 C1002 1.363 . S
C1000 H1016 0.931 . S
C1001 C1000 1.370 . S
C1001 C1005 1.408 . S
C1002 C1000 1.363 . S
C1002 C1003 1.370 . S
C1002 C1006 1.524 . S
C1003 C995 1.503 . S
C1003 C1002 1.370 . S
C1003 C1004 1.403 . S
C1004 C1003 1.403 . S
C1004 C1005 1.404 . S
C1004 C1007 1.539 . S
C1005 C1001 1.408 . S
C1005 C1004 1.404 . S
C1005 H1017 0.930 . S
C1006 C1002 1.524 . S
C1006 H1018 0.956 . S
C1006 H1019 0.961 . S
C1006 H1020 0.961 . S
C1007 C1004 1.539 . S
C1007 H1021 0.958 . S
C1007 H1022 0.961 . S
C1007 H1023 0.960 . S
H1008 C992 0.931 . S
H1009 C997 0.929 . S
H1010 C998 0.960 . S
H1011 C998 0.962 . S
H1012 C998 0.960 . S
H1013 C999 0.961 . S
H1014 C999 0.961 . S
H1015 C999 0.961 . S
H1016 C1000 0.931 . S
H1017 C1005 0.930 . S
H1018 C1006 0.956 . S
H1019 C1006 0.961 . S
H1020 C1006 0.961 . S
H1021 C1007 0.958 . S
H1022 C1007 0.961 . S
H1023 C1007 0.960 . S
C257 C76 1.848 . S
C265 C106 1.967 1_545 S
C297 C146 1.968 . S
C289 C88 1.825 . S
C329 C186 1.969 . S
C321 C52 1.793 . S
C361 C226 1.971 1_455 S
C353 C64 1.851 . S
C393 C115 1.969 1_565 S
C385 C28 1.828 1_545 S
C417 C40 1.795 . S
C425 C155 1.967 . S
C449 C4 1.797 . S
C457 C195 1.974 . S
C481 C16 1.789 . S
C489 C235 1.973 1_655 S
C521 C112 0.506 . S
C513 C69 0.466 . S
C553 C152 0.486 . S
C545 C81 0.567 . S
C585 C192 0.534 . S
C577 C93 0.579 . S
C609 C57 0.581 . S
C617 C232 0.489 . S
C641 C21 0.447 . S
C649 C103 0.535 . S
C681 C143 0.552 . S
C673 C33 0.464 . S
C713 C183 0.533 . S
C705 C45 0.451 . S
C737 C9 0.461 . S
C745 C223 0.526 . S
C769 C66 1.980 . S
C777 C107 2.268 . S
C801 C78 2.055 . S
C809 C147 2.268 . S
C841 C187 2.270 . S
C833 C90 1.979 . S
C873 C227 2.275 . S
C865 C54 1.996 . S
C897 C18 1.994 1_655 S
C905 C98 2.275 . S
C937 C138 2.269 . S
C929 C30 1.988 . S
C969 C178 2.273 . S
C961 C42 1.988 . S
C993 C6 2.044 . S
C1001 C218 2.273 . S
