# Generated by pormake.
# Topology apo, (3,6)-cn, num edge types: 1
# Building blocks:
#     Node 0, Type 0, BuildingBlock: CUQRIR_clean_linker_1, # of connection points: 3
#     Node 1, Type 0, BuildingBlock: CUQRIR_clean_linker_1, # of connection points: 3
#     Node 2, Type 0, BuildingBlock: CUQRIR_clean_linker_1, # of connection points: 3
#     Node 3, Type 0, BuildingBlock: CUQRIR_clean_linker_1, # of connection points: 3
#     Node 4, Type 0, BuildingBlock: CUQRIR_clean_linker_1, # of connection points: 3
#     Node 5, Type 0, BuildingBlock: CUQRIR_clean_linker_1, # of connection points: 3
#     Node 6, Type 0, BuildingBlock: CUQRIR_clean_linker_1, # of connection points: 3
#     Node 7, Type 0, BuildingBlock: CUQRIR_clean_linker_1, # of connection points: 3
#     Node 8, Type 1, BuildingBlock: KUMBOL_clean_sbu_1, # of connection points: 6
#     Node 9, Type 1, BuildingBlock: KUMBOL_clean_sbu_1, # of connection points: 6
#     Node 10, Type 1, BuildingBlock: KUMBOL_clean_sbu_1, # of connection points: 6
#     Node 11, Type 1, BuildingBlock: KUMBOL_clean_sbu_1, # of connection points: 6
#     Edge 12, Type (0, 1), BuildingBlock: UVAHIK_clean_linker_0, # of connection points: 2
#     Edge 13, Type (0, 1), BuildingBlock: UVAHIK_clean_linker_0, # of connection points: 2
#     Edge 14, Type (0, 1), BuildingBlock: UVAHIK_clean_linker_0, # of connection points: 2
#     Edge 15, Type (0, 1), BuildingBlock: UVAHIK_clean_linker_0, # of connection points: 2
#     Edge 16, Type (0, 1), BuildingBlock: UVAHIK_clean_linker_0, # of connection points: 2
#     Edge 17, Type (0, 1), BuildingBlock: UVAHIK_clean_linker_0, # of connection points: 2
#     Edge 18, Type (0, 1), BuildingBlock: UVAHIK_clean_linker_0, # of connection points: 2
#     Edge 19, Type (0, 1), BuildingBlock: UVAHIK_clean_linker_0, # of connection points: 2
#     Edge 20, Type (0, 1), BuildingBlock: UVAHIK_clean_linker_0, # of connection points: 2
#     Edge 21, Type (0, 1), BuildingBlock: UVAHIK_clean_linker_0, # of connection points: 2
#     Edge 22, Type (0, 1), BuildingBlock: UVAHIK_clean_linker_0, # of connection points: 2
#     Edge 23, Type (0, 1), BuildingBlock: UVAHIK_clean_linker_0, # of connection points: 2
#     Edge 24, Type (0, 1), BuildingBlock: UVAHIK_clean_linker_0, # of connection points: 2
#     Edge 25, Type (0, 1), BuildingBlock: UVAHIK_clean_linker_0, # of connection points: 2
#     Edge 26, Type (0, 1), BuildingBlock: UVAHIK_clean_linker_0, # of connection points: 2
#     Edge 27, Type (0, 1), BuildingBlock: UVAHIK_clean_linker_0, # of connection points: 2
#     Edge 28, Type (0, 1), BuildingBlock: UVAHIK_clean_linker_0, # of connection points: 2
#     Edge 29, Type (0, 1), BuildingBlock: UVAHIK_clean_linker_0, # of connection points: 2
#     Edge 30, Type (0, 1), BuildingBlock: UVAHIK_clean_linker_0, # of connection points: 2
#     Edge 31, Type (0, 1), BuildingBlock: UVAHIK_clean_linker_0, # of connection points: 2
#     Edge 32, Type (0, 1), BuildingBlock: UVAHIK_clean_linker_0, # of connection points: 2
#     Edge 33, Type (0, 1), BuildingBlock: UVAHIK_clean_linker_0, # of connection points: 2
#     Edge 34, Type (0, 1), BuildingBlock: UVAHIK_clean_linker_0, # of connection points: 2
#     Edge 35, Type (0, 1), BuildingBlock: UVAHIK_clean_linker_0, # of connection points: 2
# Relax obj value: 0.047
# Max RMSD: 0.213
# Mean RMSD: 0.169
data_MOF--net-apo--node1-KUMBOL_clean_sbu_1--node2-CUQRIR_clean_linker_1--edge1-UVAHIK_clean_linker_0
_symmetry_space_group_name_H-M    P1
_symmetry_Int_Tables_number       1
_symmetry_cell_setting            triclinic
loop_
_symmetry_equiv_pos_as_xyz
'x, y, z'
_cell_length_a     33.753012
_cell_length_b     52.229984
_cell_length_c     60.298924
_cell_angle_alpha  90.050755
_cell_angle_beta   89.931097
_cell_angle_gamma 90.388446
loop_
_atom_site_label
_atom_site_type_symbol
_atom_site_fract_x
_atom_site_fract_y
_atom_site_fract_z
_atom_type_partial_charge
C0 C 0.26553 0.34316 0.42246 0.0
N1 N 0.29044 0.36357 0.42417 0.0
N2 N 0.25654 0.33852 0.40097 0.0
C3 C 0.25095 0.32722 0.4416 0.0
C4 C 0.27707 0.35652 0.38961 0.0
N5 N 0.29812 0.37159 0.40367 0.0
C6 C 0.27617 0.35946 0.36478 0.0
H7 H 0.27395 0.32596 0.45468 0.0
H8 H 0.24252 0.30765 0.43614 0.0
H9 H 0.22435 0.3364 0.44884 0.0
H10 H 0.24858 0.35134 0.35762 0.0
H11 H 0.30162 0.34905 0.35752 0.0
H12 H 0.27873 0.37993 0.36004 0.0
C13 C 0.24258 0.15823 0.92624 0.0
N14 N 0.21749 0.13793 0.92839 0.0
N15 N 0.24789 0.16414 0.90459 0.0
C16 C 0.25954 0.17353 0.94515 0.0
C17 C 0.22519 0.14695 0.89362 0.0
N18 N 0.20634 0.13114 0.90804 0.0
C19 C 0.22346 0.14475 0.86873 0.0
H20 H 0.2382 0.17444 0.95914 0.0
H21 H 0.26732 0.19327 0.93983 0.0
H22 H 0.28689 0.1641 0.95109 0.0
H23 H 0.25047 0.15301 0.86095 0.0
H24 H 0.19744 0.15549 0.8626 0.0
H25 H 0.22029 0.12445 0.86355 0.0
C26 C 0.76832 0.16423 0.60317 0.0
N27 N 0.79576 0.1455 0.60152 0.0
N28 N 0.75799 0.16799 0.62465 0.0
C29 C 0.75262 0.1794 0.58392 0.0
C30 C 0.78039 0.15104 0.636 0.0
N31 N 0.80367 0.13757 0.62194 0.0
C32 C 0.77846 0.14733 0.66078 0.0
H33 H 0.77515 0.19388 0.57897 0.0
H34 H 0.7247 0.18928 0.58826 0.0
H35 H 0.74702 0.16684 0.56943 0.0
H36 H 0.75348 0.13417 0.6647 0.0
H37 H 0.77303 0.16583 0.66927 0.0
H38 H 0.80575 0.13886 0.66762 0.0
C39 C 0.73549 0.33885 0.10441 0.0
N40 N 0.71065 0.35901 0.10238 0.0
N41 N 0.7416 0.33331 0.12605 0.0
C42 C 0.75139 0.32337 0.08537 0.0
C43 C 0.71964 0.35071 0.13712 0.0
N44 N 0.7003 0.3661 0.12274 0.0
C45 C 0.71996 0.35399 0.16194 0.0
H46 H 0.72962 0.32249 0.07161 0.0
H47 H 0.75868 0.30362 0.09066 0.0
H48 H 0.77881 0.33269 0.07908 0.0
H49 H 0.74759 0.34634 0.16927 0.0
H50 H 0.69444 0.34338 0.16914 0.0
H51 H 0.71728 0.37448 0.16655 0.0
C52 C 0.73907 0.66274 0.60064 0.0
N53 N 0.71618 0.6415 0.59794 0.0
N54 N 0.74759 0.66642 0.62237 0.0
C55 C 0.75345 0.67967 0.58211 0.0
C56 C 0.72892 0.64687 0.63279 0.0
N57 N 0.70968 0.63184 0.61801 0.0
C58 C 0.72999 0.64228 0.65741 0.0
H59 H 0.78103 0.6715 0.57512 0.0
H60 H 0.76021 0.69929 0.58807 0.0
H61 H 0.73105 0.68059 0.56868 0.0
H62 H 0.73412 0.66052 0.66658 0.0
H63 H 0.75532 0.6296 0.66124 0.0
H64 H 0.70245 0.63268 0.66319 0.0
C65 C 0.7694 0.84128 0.09964 0.0
N66 N 0.79195 0.86264 0.09699 0.0
N67 N 0.75929 0.83819 0.12122 0.0
C68 C 0.75597 0.82413 0.08104 0.0
C69 C 0.7765 0.85835 0.13159 0.0
N70 N 0.79644 0.87315 0.11691 0.0
C71 C 0.7739 0.86354 0.15608 0.0
H72 H 0.7289 0.83231 0.0735 0.0
H73 H 0.74873 0.80461 0.08706 0.0
H74 H 0.77912 0.82301 0.068 0.0
H75 H 0.80084 0.87369 0.16205 0.0
H76 H 0.76993 0.84547 0.16551 0.0
H77 H 0.74793 0.87592 0.1593 0.0
C78 C 0.22534 0.83493 0.42073 0.0
N79 N 0.19944 0.85449 0.42312 0.0
N80 N 0.22986 0.8289 0.39904 0.0
C81 C 0.24683 0.8221 0.4395 0.0
C82 C 0.20553 0.84524 0.38833 0.0
N83 N 0.18665 0.86061 0.40299 0.0
C84 C 0.20097 0.84678 0.3635 0.0
H85 H 0.27357 0.83358 0.4437 0.0
H86 H 0.25658 0.80258 0.43497 0.0
H87 H 0.22768 0.82097 0.45444 0.0
H88 H 0.17084 0.84015 0.35885 0.0
H89 H 0.22253 0.83471 0.35451 0.0
H90 H 0.20426 0.86695 0.35797 0.0
C91 C 0.26588 0.66473 0.92252 0.0
N92 N 0.29035 0.6445 0.92504 0.0
N93 N 0.25339 0.66647 0.90119 0.0
C94 C 0.25431 0.68275 0.94085 0.0
C95 C 0.27126 0.64655 0.89092 0.0
N96 N 0.29369 0.63329 0.9054 0.0
C97 C 0.26876 0.64084 0.86648 0.0
H98 H 0.22509 0.69153 0.93749 0.0
H99 H 0.27694 0.69819 0.94208 0.0
H100 H 0.25308 0.67273 0.95703 0.0
H101 H 0.26459 0.65866 0.85679 0.0
H102 H 0.24309 0.62793 0.86345 0.0
H103 H 0.29587 0.63106 0.86056 0.0
C104 C 0.87882 0.09218 0.26443 0.0
C105 C 0.8709 0.04671 0.27164 0.0
C106 C 0.89318 0.06955 0.27317 0.0
C107 C 0.83465 0.04673 0.26024 0.0
C108 C 0.84155 0.09254 0.25389 0.0
C109 C 0.82004 0.06959 0.25134 0.0
N110 N 0.90008 0.1141 0.26753 0.0
C111 C 0.88378 0.13725 0.2626 0.0
C112 C 0.82639 0.11608 0.24696 0.0
C113 C 0.84728 0.13859 0.25173 0.0
Gd114 Gd 0.052 0.11101 0.23902 0.0
Gd115 Gd 0.96262 0.1093 0.28432 0.0
N116 N 0.92867 0.07005 0.28371 0.0
C117 C 0.88541 0.0247 0.28203 0.0
C118 C 0.94203 0.0491 0.2949 0.0
C119 C 0.92085 0.02601 0.29399 0.0
H120 H 0.96944 0.05019 0.30411 0.0
H121 H 0.9319 0.00924 0.30244 0.0
H122 H 0.02464 0.15947 0.20493 0.0
H123 H 0.89848 0.15482 0.26733 0.0
H124 H 0.0421 0.20474 0.19895 0.0
H125 H 0.86913 0.00677 0.28127 0.0
H126 H 0.81728 0.02931 0.25864 0.0
H127 H 0.12648 0.08551 0.26711 0.0
H128 H 0.79789 0.11718 0.23878 0.0
H129 H 0.83499 0.15699 0.24736 0.0
H130 H 0.15801 0.21781 0.24366 0.0
H131 H 0.79154 0.06945 0.24308 0.0
H132 H 0.21174 0.14469 0.28085 0.0
H133 H 0.19002 0.09945 0.28401 0.0
N134 N 0.11273 0.12255 0.25498 0.0
C135 C 0.125 0.14712 0.25207 0.0
C136 C 0.13603 0.10524 0.26565 0.0
C137 C 0.18408 0.13863 0.27333 0.0
C138 C 0.17189 0.11308 0.27518 0.0
C139 C 0.16071 0.15598 0.26152 0.0
H140 H 0.19907 0.189 0.26613 0.0
N141 N 0.06839 0.15368 0.22982 0.0
C142 C 0.10171 0.1633 0.23948 0.0
C143 C 0.09118 0.20415 0.22175 0.0
C144 C 0.11376 0.18888 0.23591 0.0
C145 C 0.04831 0.16786 0.21455 0.0
C146 C 0.05874 0.19344 0.2107 0.0
O147 O 0.97084 0.07685 0.25957 0.0
O148 O 0.99126 0.09794 0.22847 0.0
O149 O 0.07982 0.11272 0.20642 0.0
O150 O 0.07891 0.07722 0.22467 0.0
O151 O 0.02021 0.09066 0.29385 0.0
O152 O 0.04896 0.07588 0.26122 0.0
O153 O 0.06112 0.12557 0.27412 0.0
O154 O 0.00197 0.14431 0.28246 0.0
O155 O 0.97321 0.10459 0.31958 0.0
O156 O 0.92021 0.12344 0.30852 0.0
O157 O 0.99352 0.12932 0.22962 0.0
O158 O 0.96767 0.14467 0.26256 0.0
C159 C 0.97193 0.07907 0.23791 0.0
C160 C 0.04193 0.07419 0.28273 0.0
C161 C 0.07211 0.07475 0.18553 0.0
C162 C 0.07229 0.07011 0.1451 0.0
C163 C 0.02956 0.04308 0.16782 0.0
C164 C 0.0436 0.05507 0.18696 0.0
C165 C 0.04361 0.05058 0.14703 0.0
C166 C 0.08658 0.08205 0.16453 0.0
C167 C 0.08613 0.08821 0.20569 0.0
C168 C 0.14852 0.19814 0.24602 0.0
C169 C 0.17198 0.18172 0.25877 0.0
H170 H 0.09941 0.2239 0.21858 0.0
C171 C 0.04075 0.14385 0.28364 0.0
C172 C 0.97173 0.14573 0.24083 0.0
C173 C 0.94802 0.13699 0.34245 0.0
C174 C 0.94533 0.15029 0.38128 0.0
C175 C 0.97204 0.17906 0.35313 0.0
C176 C 0.9648 0.16071 0.33677 0.0
C177 C 0.96244 0.17394 0.37524 0.0
C178 C 0.93825 0.13184 0.36466 0.0
C179 C 0.9418 0.11716 0.32548 0.0
H180 H 0.00767 0.02791 0.16909 0.0
H181 H 0.03199 0.04896 0.20286 0.0
H182 H 0.0324 0.04082 0.13244 0.0
H183 H 0.10837 0.09734 0.1633 0.0
H184 H 0.98506 0.19735 0.34865 0.0
H185 H 0.9723 0.165 0.31973 0.0
H186 H 0.96784 0.18866 0.38756 0.0
H187 H 0.92572 0.11335 0.369 0.0
C188 C 0.63054 0.40924 0.76746 0.0
C189 C 0.63424 0.45558 0.77067 0.0
C190 C 0.61308 0.43241 0.77323 0.0
C191 C 0.67305 0.45518 0.76225 0.0
C192 C 0.66948 0.4088 0.75899 0.0
C193 C 0.69061 0.43188 0.75644 0.0
N194 N 0.6091 0.38723 0.76963 0.0
C195 C 0.62514 0.36411 0.76436 0.0
C196 C 0.68591 0.38518 0.75318 0.0
C197 C 0.66369 0.36274 0.75595 0.0
Gd198 Gd 0.45249 0.39252 0.74085 0.0
Gd199 Gd 0.5447 0.3918 0.78341 0.0
N200 N 0.57489 0.4323 0.78058 0.0
C201 C 0.61566 0.47849 0.77652 0.0
C202 C 0.55729 0.45444 0.78722 0.0
C203 C 0.57716 0.47788 0.78503 0.0
H204 H 0.52819 0.45416 0.79444 0.0
H205 H 0.56285 0.49545 0.79003 0.0
H206 H 0.46982 0.32985 0.73121 0.0
H207 H 0.60843 0.34666 0.76694 0.0
H208 H 0.4351 0.28864 0.73563 0.0
H209 H 0.6309 0.49671 0.77477 0.0
H210 H 0.68971 0.47282 0.76011 0.0
H211 H 0.38728 0.43777 0.75473 0.0
H212 H 0.71575 0.38405 0.74661 0.0
H213 H 0.67628 0.34438 0.75169 0.0
H214 H 0.30588 0.31171 0.76183 0.0
H215 H 0.72053 0.43192 0.74991 0.0
H216 H 0.27832 0.40076 0.77267 0.0
H217 H 0.31811 0.44035 0.76794 0.0
N218 N 0.38685 0.39717 0.75263 0.0
C219 C 0.36534 0.3752 0.75471 0.0
C220 C 0.37035 0.42038 0.7571 0.0
C221 C 0.3087 0.39951 0.76696 0.0
C222 C 0.33109 0.42191 0.76438 0.0
C223 C 0.32571 0.37578 0.7621 0.0
H224 H 0.27403 0.3528 0.77031 0.0
N225 N 0.4221 0.352 0.74357 0.0
C226 C 0.38336 0.35197 0.74991 0.0
C227 C 0.38122 0.3058 0.74748 0.0
C228 C 0.36208 0.32881 0.75237 0.0
C229 C 0.44026 0.32973 0.73778 0.0
C230 C 0.42034 0.30629 0.73994 0.0
O231 O 0.55286 0.41012 0.7494 0.0
O232 O 0.49219 0.42724 0.74128 0.0
O233 O 0.45486 0.3818 0.70608 0.0
O234 O 0.41538 0.41179 0.71664 0.0
O235 O 0.48803 0.41138 0.79393 0.0
O236 O 0.45872 0.42779 0.76235 0.0
O237 O 0.44294 0.37446 0.77469 0.0
O238 O 0.50324 0.35765 0.78469 0.0
O239 O 0.54491 0.40239 0.81825 0.0
O240 O 0.58417 0.37281 0.80649 0.0
O241 O 0.50971 0.37274 0.73093 0.0
O242 O 0.53565 0.35615 0.76322 0.0
C243 C 0.53086 0.42718 0.73934 0.0
C244 C 0.46456 0.4278 0.78398 0.0
C245 C 0.44269 0.41482 0.68063 0.0
C246 C 0.44229 0.42273 0.64068 0.0
C247 C 0.4836 0.4487 0.66506 0.0
C248 C 0.46997 0.43489 0.68336 0.0
C249 C 0.46999 0.44265 0.64383 0.0
C250 C 0.42868 0.40886 0.65928 0.0
C251 C 0.43009 0.39939 0.69984 0.0
C252 C 0.32261 0.32932 0.75975 0.0
C253 C 0.30448 0.35273 0.76459 0.0
H254 H 0.36593 0.2876 0.74921 0.0
C255 C 0.46434 0.35799 0.78586 0.0
C256 C 0.5321 0.35622 0.74154 0.0
C257 C 0.55979 0.36916 0.84305 0.0
C258 C 0.56207 0.36157 0.88303 0.0
C259 C 0.52479 0.33282 0.85889 0.0
C260 C 0.53582 0.34738 0.84049 0.0
C261 C 0.53779 0.33981 0.88003 0.0
C262 C 0.57289 0.37623 0.86432 0.0
C263 C 0.57047 0.38492 0.82372 0.0
H264 H 0.50478 0.46414 0.66734 0.0
H265 H 0.48074 0.43973 0.69964 0.0
H266 H 0.48071 0.4538 0.62989 0.0
H267 H 0.40782 0.39318 0.65712 0.0
H268 H 0.50629 0.31599 0.85675 0.0
H269 H 0.5258 0.34166 0.82424 0.0
H270 H 0.52942 0.32788 0.89397 0.0
H271 H 0.5911 0.39325 0.86628 0.0
C272 C 0.88002 0.85468 0.77529 0.0
C273 C 0.89257 0.81382 0.79277 0.0
C274 C 0.90373 0.8394 0.78843 0.0
C275 C 0.85838 0.80357 0.78274 0.0
C276 C 0.84472 0.84491 0.76602 0.0
C277 C 0.83447 0.8191 0.76942 0.0
N278 N 0.89118 0.87937 0.77191 0.0
C279 C 0.86707 0.89597 0.76096 0.0
C280 C 0.8206 0.86149 0.75386 0.0
C281 C 0.83158 0.88723 0.75157 0.0
Gd282 Gd 0.042 0.89391 0.74268 0.0
Gd283 Gd 0.95169 0.89236 0.78732 0.0
N284 N 0.93635 0.85001 0.79803 0.0
C285 C 0.91535 0.79958 0.80763 0.0
C286 C 0.9565 0.8369 0.81399 0.0
C287 C 0.94701 0.81135 0.81861 0.0
H288 H 0.97973 0.84611 0.82343 0.0
H289 H 0.96378 0.80086 0.83086 0.0
H290 H 0.03476 0.95308 0.72274 0.0
H291 H 0.87577 0.91582 0.75912 0.0
H292 H 0.06983 0.99478 0.72615 0.0
H293 H 0.90782 0.77986 0.8114 0.0
H294 H 0.8496 0.78387 0.78568 0.0
H295 H 0.1058 0.84961 0.76253 0.0
H296 H 0.79322 0.85473 0.74647 0.0
H297 H 0.81284 0.90028 0.7425 0.0
H298 H 0.17958 0.97677 0.77429 0.0
H299 H 0.80773 0.81111 0.7622 0.0
H300 H 0.20074 0.88929 0.79482 0.0
H301 H 0.16669 0.84877 0.78493 0.0
N302 N 0.10242 0.89031 0.76198 0.0
C303 C 0.12224 0.91264 0.76583 0.0
C304 C 0.11912 0.86749 0.76766 0.0
C305 C 0.17335 0.88981 0.78547 0.0
C306 C 0.15419 0.86691 0.77997 0.0
C307 C 0.15802 0.91303 0.77788 0.0
H308 H 0.20528 0.9371 0.79076 0.0
N309 N 0.0738 0.93389 0.74466 0.0
C310 C 0.10792 0.93503 0.75656 0.0
C311 C 0.11439 0.98011 0.74828 0.0
C312 C 0.12873 0.95832 0.75908 0.0
C313 C 0.06083 0.95467 0.73306 0.0
C314 C 0.08063 0.97817 0.73494 0.0
O315 O 0.94285 0.87785 0.75222 0.0
O316 O 0.00185 0.85908 0.74321 0.0
O317 O 0.03514 0.897 0.70688 0.0
O318 O 0.08747 0.87964 0.72043 0.0
O319 O 0.01033 0.87422 0.79663 0.0
O320 O 0.03561 0.85821 0.76387 0.0
O321 O 0.03008 0.92633 0.76693 0.0
O322 O 0.01215 0.90535 0.79834 0.0
O323 O 0.9221 0.89204 0.81944 0.0
O324 O 0.92663 0.9272 0.80083 0.0
O325 O 0.98501 0.91232 0.73169 0.0
O326 O 0.95326 0.92653 0.7638 0.0
C327 C 0.96295 0.85947 0.74267 0.0
C328 C 0.03071 0.85703 0.78551 0.0
C329 C 0.09471 0.90269 0.68698 0.0
C330 C 0.11455 0.91257 0.64892 0.0
C331 C 0.1435 0.93605 0.67982 0.0
C332 C 0.12123 0.92147 0.69472 0.0
C333 C 0.14015 0.93173 0.65706 0.0
C334 C 0.09167 0.89815 0.66405 0.0
C335 C 0.07005 0.88784 0.70261 0.0
C336 C 0.1634 0.95899 0.77192 0.0
C337 C 0.17797 0.9364 0.78134 0.0
H338 H 0.12958 0.99837 0.74977 0.0
C339 C 0.03081 0.9242 0.78857 0.0
C340 C 0.96143 0.92818 0.74236 0.0
C341 C 0.93242 0.93 0.84 0.0
C342 C 0.93287 0.93431 0.88044 0.0
C343 C 0.97648 0.96078 0.85777 0.0
C344 C 0.96165 0.94925 0.83859 0.0
C345 C 0.96238 0.95333 0.87856 0.0
C346 C 0.91791 0.92278 0.861 0.0
C347 C 0.91788 0.91676 0.81985 0.0
H348 H 0.16379 0.95054 0.68594 0.0
H349 H 0.12504 0.92479 0.71224 0.0
H350 H 0.15845 0.94291 0.64586 0.0
H351 H 0.0715 0.88349 0.65801 0.0
H352 H -0.00098 0.97555 0.8565 0.0
H353 H 0.9732 0.95536 0.8227 0.0
H354 H 0.97418 0.96273 0.89317 0.0
H355 H 0.89557 0.90782 0.86221 0.0
C356 C 0.62325 0.65315 0.27587 0.0
C357 C 0.60757 0.69412 0.29242 0.0
C358 C 0.598 0.66821 0.28837 0.0
C359 C 0.64174 0.70487 0.28276 0.0
C360 C 0.65846 0.6635 0.26694 0.0
C361 C 0.66716 0.68959 0.27006 0.0
N362 N 0.61352 0.62817 0.27268 0.0
C363 C 0.63902 0.61188 0.26232 0.0
C364 C 0.68402 0.64721 0.25536 0.0
C365 C 0.6745 0.62121 0.2533 0.0
Gd366 Gd 0.46549 0.61128 0.2411 0.0
Gd367 Gd 0.55291 0.6142 0.28739 0.0
N368 N 0.56536 0.65713 0.29761 0.0
C369 C 0.58323 0.70819 0.30666 0.0
C370 C 0.54368 0.67016 0.31302 0.0
C371 C 0.5516 0.69601 0.31734 0.0
H372 H 0.52047 0.66068 0.32227 0.0
H373 H 0.53363 0.7064 0.32913 0.0
H374 H 0.47338 0.55195 0.22158 0.0
H375 H 0.63143 0.59183 0.26063 0.0
H376 H 0.43784 0.51034 0.22469 0.0
H377 H 0.58952 0.72815 0.31019 0.0
H378 H 0.64931 0.72482 0.28548 0.0
H379 H 0.39982 0.65616 0.25783 0.0
H380 H 0.71139 0.65442 0.24825 0.0
H381 H 0.69435 0.60841 0.24468 0.0
H382 H 0.32455 0.52945 0.27006 0.0
H383 H 0.69382 0.698 0.2631 0.0
H384 H 0.30192 0.61751 0.28838 0.0
H385 H 0.33688 0.65771 0.2785 0.0
N386 N 0.40304 0.61545 0.25826 0.0
C387 C 0.38282 0.59328 0.26202 0.0
C388 C 0.38589 0.63845 0.26293 0.0
C389 C 0.33009 0.61669 0.27979 0.0
C390 C 0.34976 0.63942 0.27428 0.0
C391 C 0.34602 0.59324 0.27311 0.0
H392 H 0.29763 0.56954 0.28519 0.0
N393 N 0.43268 0.57159 0.24228 0.0
C394 C 0.39774 0.5707 0.25343 0.0
C395 C 0.39172 0.52548 0.24562 0.0
C396 C 0.37665 0.5475 0.25579 0.0
C397 C 0.44638 0.55061 0.2312 0.0
C398 C 0.4264 0.52714 0.23297 0.0
O399 O 0.56324 0.62872 0.25238 0.0
O400 O 0.50398 0.64671 0.24308 0.0
O401 O 0.4764 0.60678 0.20583 0.0
O402 O 0.42242 0.62445 0.21694 0.0
O403 O 0.49283 0.63083 0.29593 0.0
O404 O 0.46943 0.64676 0.26278 0.0
O405 O 0.47611 0.57873 0.26532 0.0
O406 O 0.49253 0.59958 0.29718 0.0
O407 O 0.58024 0.61595 0.32007 0.0
O408 O 0.57987 0.58047 0.30175 0.0
O409 O 0.52379 0.59342 0.23162 0.0
O410 O 0.5538 0.57968 0.2643 0.0
C411 C 0.54283 0.6466 0.24238 0.0
C412 C 0.47186 0.64744 0.28456 0.0
C413 C 0.44958 0.63861 0.18305 0.0
C414 C 0.44475 0.65217 0.14438 0.0
C415 C 0.47252 0.68089 0.17227 0.0
C416 C 0.46638 0.66237 0.18861 0.0
C417 C 0.46184 0.67588 0.1503 0.0
C418 C 0.43875 0.63357 0.16098 0.0
C419 C 0.44438 0.61865 0.19996 0.0
C420 C 0.34099 0.54715 0.26781 0.0
C421 C 0.32572 0.56998 0.27647 0.0
H422 H 0.37639 0.50726 0.24704 0.0
C423 C 0.47494 0.58056 0.28698 0.0
C424 C 0.547 0.57784 0.24274 0.0
C425 C 0.57208 0.57801 0.34083 0.0
C426 C 0.57177 0.57314 0.38123 0.0
C427 C 0.52816 0.54695 0.35831 0.0
C428 C 0.54286 0.55879 0.33925 0.0
C429 C 0.54237 0.55407 0.37916 0.0
C430 C 0.58659 0.58499 0.36188 0.0
C431 C 0.58662 0.59145 0.32079 0.0
H432 H 0.48553 0.6992 0.17666 0.0
H433 H 0.47475 0.66656 0.20554 0.0
H434 H 0.46642 0.69071 0.13801 0.0
H435 H 0.42624 0.61504 0.15673 0.0
H436 H 0.50565 0.53217 0.35692 0.0
H437 H 0.53124 0.55293 0.3233 0.0
H438 H 0.53071 0.54438 0.39367 0.0
H439 H 0.60885 0.59998 0.36319 0.0
C440 C 0.17669 0.90724 0.40267 0.0
C441 C 0.16322 0.88254 0.39728 0.0
C442 C 0.15967 0.92867 0.39264 0.0
C443 C 0.12223 0.94626 0.34002 0.0
H444 H 0.0754 0.00615 0.3671 0.0
C445 C 0.05787 0.02785 0.28674 0.0
C446 C 0.05871 0.05277 0.29535 0.0
C447 C 0.06961 0.00719 0.29988 0.0
C448 C 0.0891 0.98982 0.35922 0.0
H449 H 0.11929 0.86075 0.37915 0.0
H450 H 0.09035 0.89817 0.3609 0.0
H451 H 0.09589 0.97038 0.39038 0.0
H452 H 0.07384 0.07603 0.32386 0.0
H453 H 0.09681 0.04041 0.34629 0.0
H454 H 0.1177 0.96575 0.30906 0.0
C455 C 0.11402 0.90095 0.3728 0.0
C456 C 0.10041 0.96927 0.37261 0.0
C457 C 0.1305 0.87965 0.38316 0.0
C458 C 0.07275 0.05688 0.31694 0.0
C459 C 0.08544 0.03637 0.32988 0.0
C460 C 0.11183 0.96699 0.32668 0.0
C461 C 0.12935 0.92553 0.37692 0.0
C462 C 0.11677 0.94729 0.36306 0.0
C463 C 0.08334 0.01112 0.32173 0.0
C464 C 0.09491 0.98907 0.33604 0.0
H465 H 0.2021 0.9098 0.41341 0.0
H466 H 0.17193 0.9475 0.39601 0.0
H467 H 0.13538 0.92956 0.33236 0.0
H468 H 0.0465 0.02423 0.27023 0.0
H469 H 0.06678 0.9881 0.29306 0.0
C470 C 0.29357 0.58755 0.89676 0.0
C471 C 0.31483 0.61024 0.90053 0.0
C472 C 0.31199 0.56652 0.88695 0.0
C473 C 0.39351 0.55284 0.8486 0.0
H474 H 0.36849 0.48206 0.86237 0.0
C475 C 0.43028 0.47009 0.78844 0.0
C476 C 0.44597 0.44778 0.7979 0.0
C477 C 0.4148 0.48941 0.80195 0.0
C478 C 0.37601 0.50172 0.8584 0.0
H479 H 0.37177 0.62898 0.89777 0.0
H480 H 0.40479 0.59195 0.881 0.0
H481 H 0.34346 0.51611 0.8862 0.0
H482 H 0.45724 0.42816 0.82897 0.0
H483 H 0.43065 0.46182 0.85239 0.0
H484 H 0.42625 0.53846 0.82088 0.0
C485 C 0.37379 0.59035 0.88548 0.0
C486 C 0.36144 0.52124 0.87197 0.0
C487 C 0.35525 0.61136 0.89536 0.0
C488 C 0.44539 0.44509 0.82111 0.0
C489 C 0.42989 0.46434 0.83457 0.0
C490 C 0.40801 0.53333 0.835 0.0
C491 C 0.35204 0.56795 0.88056 0.0
C492 C 0.36985 0.54704 0.86717 0.0
C493 C 0.41466 0.48681 0.82518 0.0
C494 C 0.39925 0.50755 0.83966 0.0
H495 H 0.26211 0.5867 0.90028 0.0
H496 H 0.29422 0.54974 0.88318 0.0
H497 H 0.40007 0.57252 0.84422 0.0
H498 H 0.43061 0.47286 0.77064 0.0
H499 H 0.40288 0.50639 0.79419 0.0
C500 C 0.7081 0.58562 0.62516 0.0
C501 C 0.68804 0.6089 0.62326 0.0
C502 C 0.68985 0.56462 0.63547 0.0
C503 C 0.61423 0.55217 0.678 0.0
H504 H 0.62609 0.48101 0.66107 0.0
C505 C 0.53055 0.47105 0.72289 0.0
C506 C 0.55029 0.44785 0.72648 0.0
C507 C 0.54769 0.49018 0.70982 0.0
C508 C 0.62294 0.50079 0.66615 0.0
H509 H 0.63339 0.6287 0.62974 0.0
H510 H 0.60065 0.59189 0.64725 0.0
H511 H 0.65348 0.51471 0.63731 0.0
H512 H 0.60418 0.42683 0.71988 0.0
H513 H 0.63467 0.46057 0.69735 0.0
H514 H 0.58419 0.53843 0.7069 0.0
C515 C 0.63056 0.58974 0.64103 0.0
C516 C 0.63848 0.52008 0.65249 0.0
C517 C 0.6489 0.61066 0.63075 0.0
C518 C 0.58817 0.44448 0.71729 0.0
C519 C 0.60544 0.46369 0.70422 0.0
C520 C 0.59883 0.53295 0.69164 0.0
C521 C 0.65131 0.56675 0.64421 0.0
C522 C 0.63411 0.54602 0.65821 0.0
C523 C 0.58522 0.48669 0.70017 0.0
C524 C 0.60281 0.50702 0.68586 0.0
H525 H 0.73868 0.58424 0.61985 0.0
H526 H 0.70678 0.54729 0.6378 0.0
H527 H 0.61119 0.57191 0.68321 0.0
H528 H 0.50147 0.47432 0.72994 0.0
H529 H 0.53109 0.50752 0.7069 0.0
C530 C 0.7942 0.91838 0.1277 0.0
C531 C 0.81638 0.8968 0.12196 0.0
C532 C 0.81265 0.93976 0.13722 0.0
C533 C 0.90188 0.95569 0.17001 0.0
H534 H 0.86473 0.02528 0.16308 0.0
C535 C 0.94541 0.03473 0.232 0.0
C536 C 0.95337 0.0593 0.2237 0.0
C537 C 0.92906 0.01583 0.21833 0.0
C538 C 0.87579 0.00601 0.16506 0.0
H539 H 0.87481 0.88033 0.12139 0.0
H540 H 0.90784 0.91813 0.13688 0.0
H541 H 0.83778 0.99147 0.13951 0.0
H542 H 0.95053 0.08341 0.19449 0.0
H543 H 0.92297 0.05027 0.17043 0.0
H544 H 0.94048 0.97023 0.19517 0.0
C545 C 0.8761 0.91861 0.13436 0.0
C546 C 0.86001 0.98655 0.15169 0.0
C547 C 0.85747 0.89716 0.12506 0.0
C548 C 0.94458 0.06464 0.20141 0.0
C549 C 0.92846 0.04569 0.18766 0.0
C550 C 0.91781 0.97514 0.18324 0.0
C551 C 0.85376 0.93989 0.14122 0.0
C552 C 0.87256 0.96107 0.15414 0.0
C553 C 0.92074 0.02097 0.1959 0.0
C554 C 0.90464 1.0005 0.18116 0.0
H555 H 0.76228 0.91807 0.12587 0.0
H556 H 0.79433 0.95555 0.14256 0.0
H557 H 0.91192 0.93629 0.17267 0.0
H558 H 0.95255 0.0299 0.24896 0.0
H559 H 0.92295 0.99715 0.22538 0.0
C560 C 0.8613 0.12094 0.64208 0.0
C561 C 0.82917 0.11672 0.62779 0.0
C562 C 0.87992 0.10031 0.65233 0.0
C563 C 0.90056 0.03264 0.65217 0.0
H564 H 0.8803 0.03459 0.71548 0.0
C565 C 0.93252 0.94516 0.70744 0.0
C566 C 0.9445 0.94932 0.72942 0.0
C567 C 0.91934 0.96548 0.69442 0.0
C568 C 0.88707 0.03383 0.69795 0.0
H569 H 0.79393 0.08809 0.61093 0.0
H570 H 0.82776 0.05158 0.62822 0.0
H571 H 0.8604 0.07036 0.69231 0.0
H572 H 0.9528 0.97782 0.75506 0.0
H573 H 0.93171 0.01364 0.73213 0.0
H574 H 0.92859 0.99667 0.65766 0.0
C575 C 0.83784 0.07085 0.63189 0.0
C576 C 0.87539 0.05432 0.68468 0.0
C577 C 0.81866 0.09159 0.62197 0.0
C578 C 0.943 0.97411 0.73824 0.0
C579 C 0.93079 0.99461 0.72504 0.0
C580 C 0.91316 0.01235 0.66552 0.0
C581 C 0.86741 0.07515 0.64786 0.0
C582 C 0.88181 0.05382 0.6617 0.0
C583 C 0.91888 0.99063 0.70287 0.0
C584 C 0.90628 0.01252 0.68862 0.0
H585 H 0.86995 0.14029 0.6465 0.0
H586 H 0.90291 0.10401 0.66446 0.0
H587 H 0.90584 0.03193 0.63445 0.0
H588 H 0.93329 0.92611 0.70032 0.0
H589 H 0.90948 0.96136 0.67771 0.0
C590 C 0.64557 0.38434 0.1443 0.0
C591 C 0.67602 0.38758 0.12868 0.0
C592 C 0.62862 0.40554 0.15458 0.0
C593 C 0.60962 0.47337 0.15319 0.0
H594 H 0.63227 0.47238 0.21625 0.0
C595 C 0.57779 0.56114 0.2082 0.0
C596 C 0.56531 0.55691 0.2301 0.0
C597 C 0.59172 0.54092 0.19528 0.0
C598 C 0.62495 0.47288 0.19879 0.0
H599 H 0.71018 0.41521 0.10991 0.0
H600 H 0.67919 0.45272 0.12734 0.0
H601 H 0.65123 0.43622 0.19317 0.0
H602 H 0.55728 0.52845 0.25577 0.0
H603 H 0.57987 0.49278 0.23302 0.0
H604 H 0.58187 0.50945 0.15872 0.0
C605 C 0.66906 0.4337 0.13187 0.0
C606 C 0.63608 0.45219 0.18556 0.0
C607 C 0.68655 0.41238 0.12184 0.0
C608 C 0.56739 0.5322 0.23901 0.0
C609 C 0.58044 0.5118 0.22592 0.0
C610 C 0.59764 0.49388 0.1665 0.0
C611 C 0.64123 0.43035 0.14899 0.0
C612 C 0.62857 0.45228 0.16269 0.0
C613 C 0.59253 0.51583 0.20377 0.0
C614 C 0.60527 0.49398 0.18951 0.0
H615 H 0.63679 0.36531 0.14955 0.0
H616 H 0.60688 0.40255 0.16757 0.0
H617 H 0.60346 0.47375 0.13556 0.0
H618 H 0.57663 0.58013 0.20103 0.0
H619 H 0.60171 0.54503 0.17859 0.0
C620 C 0.31465 0.41771 0.40467 0.0
C621 C 0.32312 0.39282 0.39739 0.0
C622 C 0.3341 0.4388 0.39513 0.0
C623 C 0.37433 0.4571 0.34201 0.0
H624 H 0.42629 0.51391 0.37173 0.0
C625 C 0.45766 0.5345 0.29245 0.0
C626 C 0.45718 0.55977 0.30026 0.0
C627 C 0.44204 0.51464 0.30532 0.0
C628 C 0.4113 0.49842 0.36316 0.0
H629 H 0.36045 0.37005 0.37608 0.0
H630 H 0.39393 0.40682 0.35902 0.0
H631 H 0.39885 0.47851 0.39361 0.0
H632 H 0.43986 0.58431 0.3275 0.0
H633 H 0.41122 0.54981 0.34976 0.0
H634 H 0.38509 0.47701 0.31169 0.0
C635 C 0.37215 0.41013 0.37191 0.0
C636 C 0.39586 0.4781 0.37573 0.0
C637 C 0.35314 0.38916 0.38162 0.0
C638 C 0.44063 0.56491 0.32114 0.0
C639 C 0.42449 0.54509 0.33394 0.0
C640 C 0.38906 0.47752 0.3295 0.0
C641 C 0.36194 0.43516 0.37806 0.0
C642 C 0.3777 0.45713 0.36521 0.0
C643 C 0.42509 0.51964 0.32624 0.0
C644 C 0.4082 0.49835 0.33984 0.0
H645 H 0.29144 0.42085 0.41677 0.0
H646 H 0.32574 0.45794 0.40015 0.0
H647 H 0.35979 0.44135 0.33353 0.0
H648 H 0.471 0.52996 0.27659 0.0
H649 H 0.44394 0.49529 0.29898 0.0
C650 C 0.14964 0.11358 0.88736 0.0
C651 C 0.18118 0.10984 0.9021 0.0
C652 C 0.13065 0.09268 0.87751 0.0
C653 C 0.10897 0.0246 0.87937 0.0
H654 H 0.11971 0.02753 0.81536 0.0
C655 C 0.06471 0.9391 0.82307 0.0
C656 C 0.04843 0.9447 0.80224 0.0
C657 C 0.08074 0.95864 0.83624 0.0
C658 C 0.11571 0.0265 0.83316 0.0
H659 H 0.2155 0.0816 0.91969 0.0
H660 H 0.18115 0.04462 0.90291 0.0
H661 H 0.14442 0.06275 0.83795 0.0
H662 H 0.03502 0.97498 0.77903 0.0
H663 H 0.06167 0.00918 0.80212 0.0
H664 H 0.07895 0.98877 0.87463 0.0
C665 C 0.17165 0.0638 0.89877 0.0
C666 C 0.13013 0.04666 0.84609 0.0
C667 C 0.19111 0.08483 0.90841 0.0
C668 C 0.04811 0.97012 0.79485 0.0
C669 C 0.06353 0.9897 0.80813 0.0
C670 C 0.09375 0.00456 0.86638 0.0
C671 C 0.14235 0.06763 0.88257 0.0
C672 C 0.12681 0.04595 0.86928 0.0
C673 C 0.08021 0.98426 0.829 0.0
C674 C 0.09685 0.00528 0.84305 0.0
H675 H 0.14121 0.13276 0.88257 0.0
H676 H 0.1078 0.09609 0.86528 0.0
H677 H 0.10605 0.02368 0.89725 0.0
H678 H 0.06538 0.91956 0.82908 0.0
H679 H 0.09383 0.95356 0.852 0.0
C680 C 0.22845 0.12034 0.96583 0.0
C681 C 0.20237 0.12744 0.94886 0.0
C682 C 0.21396 0.11289 0.9866 0.0
C683 C 0.12473 0.11901 0.02222 0.0
H684 H 0.1776 0.06792 0.05796 0.0
C685 C 0.06054 0.08097 0.10508 0.0
C686 C 0.08711 0.07778 0.1228 0.0
C687 C 0.07441 0.08702 0.08384 0.0
C688 C 0.16274 0.08241 0.04826 0.0
H689 H 0.14079 0.13147 0.93986 0.0
H690 H 0.11506 0.11756 0.97588 0.0
H691 H 0.20129 0.07678 0.0205 0.0
H692 H 0.14908 0.07863 0.13212 0.0
H693 H 0.17337 0.08924 0.09496 0.0
H694 H 0.08593 0.12437 0.04996 0.0
C695 C 0.14683 0.11833 0.97343 0.0
C696 C 0.17632 0.08751 0.02676 0.0
C697 C 0.16143 0.12594 0.95269 0.0
C698 C 0.12787 0.08111 0.11884 0.0
C699 C 0.14179 0.08693 0.09752 0.0
C700 C 0.111 0.11376 0.04365 0.0
C701 C 0.17293 0.11217 0.99082 0.0
C702 C 0.1576 0.10597 0.01345 0.0
C703 C 0.11521 0.08983 0.07975 0.0
C704 C 0.12993 0.09547 0.05697 0.0
H705 H 0.26015 0.12112 0.96313 0.0
H706 H 0.23505 0.10852 0.99955 0.0
H707 H 0.11 0.13371 1.0127 0.0
H708 H 0.02893 0.07876 0.10764 0.0
H709 H 0.05317 0.08897 0.0705 0.0
C710 C 0.34821 0.37559 0.44713 0.0
C711 C 0.30705 0.37386 0.44433 0.0
C712 C 0.36422 0.38295 0.46761 0.0
C713 C 0.33768 0.41228 0.52218 0.0
H714 H 0.42921 0.37489 0.54304 0.0
C715 C 0.38703 0.41306 0.614 0.0
C716 C 0.42769 0.41666 0.61801 0.0
C717 C 0.37319 0.40865 0.59245 0.0
C718 C 0.40385 0.38565 0.53737 0.0
H719 H 0.25028 0.37959 0.46007 0.0
H720 H 0.27779 0.39168 0.49599 0.0
H721 H 0.40394 0.36701 0.50577 0.0
H722 H 0.48582 0.41772 0.60269 0.0
H723 H 0.46167 0.40984 0.56509 0.0
H724 H 0.33714 0.43043 0.55407 0.0
C725 C 0.29801 0.38772 0.48248 0.0
C726 C 0.38944 0.38125 0.51595 0.0
C727 C 0.28214 0.38054 0.462 0.0
C728 C 0.45428 0.41523 0.60009 0.0
C729 C 0.44049 0.41054 0.57859 0.0
C730 C 0.35189 0.4165 0.54367 0.0
C731 C 0.33929 0.38864 0.48571 0.0
C732 C 0.35599 0.3944 0.50809 0.0
C733 C 0.39976 0.40743 0.57449 0.0
C734 C 0.385 0.40314 0.55155 0.0
H735 H 0.36792 0.37043 0.4337 0.0
H736 H 0.39612 0.38387 0.46933 0.0
H737 H 0.31234 0.42312 0.51662 0.0
H738 H 0.36583 0.41422 0.62745 0.0
H739 H 0.34167 0.40606 0.58985 0.0
C740 C 0.72072 0.37719 0.06518 0.0
C741 C 0.69493 0.36891 0.08197 0.0
C742 C 0.70633 0.38243 0.04396 0.0
C743 C 0.61449 0.39163 1.01068 0.0
H744 H 0.67732 0.36059 0.9641 0.0
C745 C 0.55169 0.36605 0.92417 0.0
C746 C 0.57666 0.36844 0.90558 0.0
C747 C 0.56618 0.37056 0.94554 0.0
C748 C 0.65968 0.36979 0.97678 0.0
H749 H 0.63395 0.36088 0.09045 0.0
H750 H 0.60838 0.36983 0.05325 0.0
H751 H 0.70229 0.36132 1.00183 0.0
H752 H 0.63625 0.3782 0.89492 0.0
H753 H 0.66135 0.38652 0.93217 0.0
H754 H 0.5714 0.39948 0.98554 0.0
C755 C 0.63969 0.37258 0.05641 0.0
C756 C 0.67405 0.37024 0.99849 0.0
C757 C 0.65418 0.36745 0.07768 0.0
C758 C 0.61614 0.37631 0.90884 0.0
C759 C 0.63064 0.38082 0.93023 0.0
C760 C 0.60008 0.39117 0.98891 0.0
C761 C 0.66581 0.37934 0.0391 0.0
C762 C 0.6515 0.38091 0.01578 0.0
C763 C 0.60602 0.37758 0.94888 0.0
C764 C 0.62233 0.37997 0.97174 0.0
H765 H 0.75223 0.37862 0.06832 0.0
H766 H 0.72715 0.38814 0.03118 0.0
H767 H 0.59656 0.40026 0.02354 0.0
H768 H 0.52096 0.36038 0.92223 0.0
H769 H 0.54644 0.36769 0.95951 0.0
C770 C 0.8565 0.14532 0.57902 0.0
C771 C 0.81672 0.13821 0.58176 0.0
C772 C 0.8751 0.14232 0.55844 0.0
C773 C 0.86504 0.11203 0.50266 0.0
H774 H 0.9227 0.17241 0.48316 0.0
C775 C 0.89848 0.13309 0.41024 0.0
C776 C 0.93464 0.14508 0.40483 0.0
C777 C 0.88757 0.1294 0.43242 0.0
C778 C 0.9073 0.15519 0.4884 0.0
H779 H 0.76579 0.12076 0.56612 0.0
H780 H 0.79786 0.11563 0.52994 0.0
H781 H 0.89857 0.16998 0.52109 0.0
H782 H 0.98844 0.16156 0.41851 0.0
H783 H 0.96954 0.15503 0.45714 0.0
H784 H 0.87318 0.0975 0.46974 0.0
C785 C 0.81498 0.12346 0.54356 0.0
C786 C 0.89348 0.15378 0.51022 0.0
C787 C 0.79649 0.12649 0.56415 0.0
C788 C 0.96005 0.1527 0.42211 0.0
C789 C 0.94921 0.14895 0.44427 0.0
C790 C 0.87893 0.11344 0.4808 0.0
C791 C 0.85416 0.13207 0.54025 0.0
C792 C 0.87178 0.13232 0.51758 0.0
C793 C 0.91261 0.13754 0.44972 0.0
C794 C 0.89985 0.13517 0.47332 0.0
H795 H 0.87248 0.15433 0.59253 0.0
H796 H 0.90551 0.1487 0.55659 0.0
H797 H 0.84884 0.0951 0.50786 0.0
H798 H 0.87801 0.12726 0.39735 0.0
H799 H 0.85893 0.12087 0.43598 0.0
C800 C 0.77891 0.88054 0.05998 0.0
C801 C 0.80599 0.87309 0.07633 0.0
C802 C 0.79223 0.88831 0.03906 0.0
C803 C 0.88006 0.91191 1.00855 0.0
H804 H 0.82683 0.88305 0.95724 0.0
C805 C 0.94448 0.92273 0.9203 0.0
C806 C 0.91794 0.92664 0.9027 0.0
C807 C 0.93053 0.9164 0.94146 0.0
C808 C 0.84173 0.89161 0.97134 0.0
H809 H 0.86788 0.86759 0.0838 0.0
H810 H 0.8916 0.88181 0.04739 0.0
H811 H 0.80284 0.87286 0.99435 0.0
H812 H 0.85593 0.92699 0.89351 0.0
H813 H 0.83143 0.91635 0.93049 0.0
H814 H 0.91871 0.93088 0.98563 0.0
C815 C 0.86007 0.88195 0.05076 0.0
C816 C 0.82797 0.88572 0.99264 0.0
C817 C 0.84664 0.87398 0.07163 0.0
C818 C 0.87713 0.92381 0.90668 0.0
C819 C 0.86312 0.91767 0.9279 0.0
C820 C 0.89365 0.91796 0.98725 0.0
C821 C 0.83297 0.88885 0.03413 0.0
C822 C 0.84706 0.89572 1.01149 0.0
C823 C 0.88964 0.91399 0.94561 0.0
C824 C 0.87479 0.9078 0.96833 0.0
H825 H 0.74741 0.87991 0.06337 0.0
H826 H 0.77063 0.89378 0.0267 0.0
H827 H 0.89512 0.92015 0.02274 0.0
H828 H 0.97614 0.92439 0.91768 0.0
H829 H 0.95192 0.91317 0.95451 0.0
C830 C 0.66101 0.62845 0.5735 0.0
C831 C 0.7018 0.63112 0.5773 0.0
C832 C 0.64698 0.62086 0.55263 0.0
C833 C 0.67647 0.62091 0.49372 0.0
H834 H 0.58846 0.57362 0.48641 0.0
C835 C 0.62755 0.58398 0.40736 0.0
C836 C 0.58678 0.5805 0.40358 0.0
C837 C 0.64166 0.58985 0.42861 0.0
C838 C 0.61275 0.58712 0.48814 0.0
H839 H 0.76003 0.62699 0.56289 0.0
H840 H 0.7358 0.61377 0.52635 0.0
H841 H 0.61274 0.58354 0.52356 0.0
H842 H 0.52879 0.5813 0.41904 0.0
H843 H 0.55324 0.59187 0.45596 0.0
H844 H 0.67626 0.62482 0.4584 0.0
C845 C 0.7145 0.61787 0.5393 0.0
C846 C 0.62672 0.59274 0.50946 0.0
C847 C 0.72842 0.62532 0.56017 0.0
C848 C 0.56043 0.58345 0.42147 0.0
C849 C 0.57449 0.58944 0.44267 0.0
C850 C 0.66239 0.6154 0.47242 0.0
C851 C 0.67358 0.61593 0.53515 0.0
C852 C 0.6588 0.60967 0.51251 0.0
C853 C 0.61533 0.59253 0.44658 0.0
C854 C 0.63035 0.59842 0.46932 0.0
H855 H 0.64 0.6332 0.5864 0.0
H856 H 0.61529 0.61978 0.54996 0.0
H857 H 0.70079 0.63439 0.49549 0.0
H858 H 0.64866 0.58154 0.394 0.0
H859 H 0.67333 0.59173 0.43101 0.0
C860 C 0.29136 0.62615 0.96256 0.0
C861 C 0.31143 0.63772 0.94482 0.0
C862 C 0.30983 0.6237 0.9832 0.0
C863 C 0.38756 0.65534 0.01621 0.0
H864 H 0.37003 0.59894 0.05689 0.0
C865 C 0.45752 0.65491 0.10336 0.0
C866 C 0.43303 0.64704 0.12099 0.0
C867 C 0.44577 0.65112 0.08137 0.0
C868 C 0.37498 0.61491 0.04577 0.0
H869 H 0.36645 0.65487 0.93403 0.0
H870 H 0.39954 0.65013 0.96996 0.0
H871 H 0.34479 0.59611 0.01899 0.0
H872 H 0.3771 0.62873 0.12927 0.0
H873 H 0.35646 0.62225 0.0909 0.0
H874 H 0.41696 0.67439 0.04298 0.0
C875 C 0.36938 0.64323 0.96816 0.0
C876 C 0.36057 0.61327 0.02404 0.0
C877 C 0.3508 0.64568 0.94757 0.0
C878 C 0.39687 0.63477 0.11608 0.0
C879 C 0.38506 0.63102 0.09407 0.0
C880 C 0.40191 0.65698 0.03789 0.0
C881 C 0.34874 0.63288 0.98642 0.0
C882 C 0.36642 0.63357 1.00904 0.0
C883 C 0.40918 0.6394 0.07643 0.0
C884 C 0.39553 0.6369 0.05302 0.0
H885 H 0.26077 0.62018 0.96065 0.0
H886 H 0.2929 0.61587 0.9969 0.0
H887 H 0.39193 0.67156 1.00528 0.0
H888 H 0.48589 0.66399 0.10656 0.0
H889 H 0.46542 0.65739 0.06821 0.0
C890 C 0.14619 0.86561 0.4494 0.0
C891 C 0.1865 0.8657 0.4437 0.0
C892 C 0.13424 0.87275 0.47079 0.0
C893 C 0.17263 0.87234 0.52728 0.0
H894 H 0.08384 0.9159 0.54212 0.0
C895 C 0.11698 0.88174 0.61704 0.0
C896 C 0.11353 0.90701 0.62476 0.0
C897 C 0.12112 0.87676 0.59437 0.0
C898 C 0.10866 0.90366 0.53817 0.0
H899 H 0.24556 0.87534 0.45485 0.0
H900 H 0.225 0.88747 0.49233 0.0
H901 H 0.10148 0.90891 0.50307 0.0
H902 H 0.10934 0.94674 0.61472 0.0
H903 H 0.11635 0.93801 0.57506 0.0
H904 H 0.18005 0.86705 0.56219 0.0
C905 C 0.20263 0.88148 0.48051 0.0
C906 C 0.11862 0.8996 0.51588 0.0
C907 C 0.21442 0.87458 0.45914 0.0
C908 C 0.1123 0.92708 0.60925 0.0
C909 C 0.11601 0.92207 0.58655 0.0
C910 C 0.16239 0.87611 0.54947 0.0
C911 C 0.16256 0.87994 0.48676 0.0
C912 C 0.15102 0.88412 0.51024 0.0
C913 C 0.12147 0.89692 0.57892 0.0
C914 C 0.13049 0.89194 0.55519 0.0
H915 H 0.12426 0.8588 0.43767 0.0
H916 H 0.10316 0.87139 0.47515 0.0
H917 H 0.19743 0.86004 0.52343 0.0
H918 H 0.11824 0.8659 0.6286 0.0
H919 H 0.1249 0.85715 0.58893 0.0
C920 C 0.19426 0.32373 0.38411 0.0
C921 C 0.23235 0.3184 0.39194 0.0
C922 C 0.17189 0.30464 0.37361 0.0
C923 C 0.16395 0.2344 0.3659 0.0
H924 H 0.10832 0.25277 0.31203 0.0
C925 C 0.09859 0.15859 0.30627 0.0
C926 C 0.06154 0.16366 0.29676 0.0
C927 C 0.11849 0.17742 0.31848 0.0
C928 C 0.12325 0.24738 0.3272 0.0
H929 H 0.27722 0.28948 0.39544 0.0
H930 H 0.23831 0.2558 0.37702 0.0
H931 H 0.14417 0.28561 0.33276 0.0
H932 H 0.01596 0.19228 0.29272 0.0
H933 H 0.05023 0.22506 0.31448 0.0
H934 H 0.14318 0.19612 0.36025 0.0
C935 C 0.22533 0.27455 0.37915 0.0
C936 C 0.14379 0.26621 0.3391 0.0
C937 C 0.24765 0.2937 0.3896 0.0
C938 C 0.0445 0.18784 0.2999 0.0
C939 C 0.06431 0.20667 0.31218 0.0
C940 C 0.14337 0.21556 0.354 0.0
C941 C 0.18734 0.27988 0.37078 0.0
C942 C 0.16451 0.25993 0.35855 0.0
C943 C 0.1016 0.20171 0.32158 0.0
C944 C 0.1229 0.22181 0.33446 0.0
H945 H 0.18226 0.3428 0.3858 0.0
H946 H 0.14257 0.30929 0.36763 0.0
H947 H 0.17915 0.22899 0.38098 0.0
H948 H 0.11212 0.13998 0.30441 0.0
H949 H 0.14734 0.17304 0.32528 0.0
C950 C 0.25105 0.20467 0.88411 0.0
C951 C 0.27047 0.18481 0.89512 0.0
C952 C 0.27277 0.22374 0.87322 0.0
C953 C 0.37474 0.25136 0.86729 0.0
H954 H 0.33089 0.27836 0.81273 0.0
C955 C 0.46237 0.31525 0.80496 0.0
C956 C 0.4433 0.33802 0.79884 0.0
C957 C 0.44216 0.29647 0.81714 0.0
C958 C 0.34338 0.27106 0.828 0.0
H959 H 0.32722 0.16893 0.90373 0.0
H960 H 0.36578 0.20175 0.88406 0.0
H961 H 0.29435 0.24578 0.83331 0.0
H962 H 0.38788 0.35876 0.80052 0.0
H963 H 0.35225 0.32552 0.82093 0.0
H964 H 0.42446 0.27629 0.86133 0.0
C965 C 0.33381 0.20321 0.88424 0.0
C966 C 0.32235 0.2525 0.83993 0.0
C967 C 0.31193 0.18436 0.89544 0.0
C968 C 0.40341 0.34139 0.80484 0.0
C969 C 0.38299 0.3224 0.81656 0.0
C970 C 0.39608 0.26966 0.85512 0.0
C971 C 0.3145 0.22304 0.87275 0.0
C972 C 0.3375 0.24255 0.85988 0.0
C973 C 0.40221 0.29983 0.82294 0.0
C974 C 0.3804 0.27982 0.83548 0.0
H975 H 0.21898 0.2052 0.8838 0.0
H976 H 0.25674 0.23895 0.86509 0.0
H977 H 0.38721 0.2445 0.88269 0.0
H978 H 0.49279 0.31179 0.80016 0.0
H979 H 0.45751 0.27909 0.82166 0.0
C980 C 0.73719 0.21289 0.62925 0.0
C981 C 0.73148 0.18676 0.63376 0.0
C982 C 0.71347 0.23127 0.63955 0.0
C983 C 0.66317 0.24372 0.69048 0.0
H984 H 0.59855 0.29259 0.65876 0.0
C985 C 0.56004 0.31239 0.73745 0.0
C986 C 0.55359 0.33682 0.72859 0.0
C987 C 0.58051 0.29398 0.72524 0.0
C988 C 0.61695 0.27943 0.66793 0.0
H989 H 0.69595 0.15918 0.65183 0.0
H990 H 0.65552 0.19143 0.67073 0.0
H991 H 0.63685 0.26102 0.6381 0.0
H992 H 0.56382 0.36145 0.70028 0.0
H993 H 0.60134 0.32988 0.67935 0.0
H994 H 0.6453 0.26253 0.72022 0.0
C995 C 0.67809 0.19761 0.65907 0.0
C996 C 0.63859 0.26125 0.65604 0.0
C997 C 0.70119 0.17926 0.64839 0.0
C998 C 0.56812 0.34262 0.70737 0.0
C999 C 0.58941 0.32441 0.69534 0.0
C1000 C 0.64232 0.26223 0.70236 0.0
C1001 C 0.68429 0.22376 0.65487 0.0
C1002 C 0.66158 0.24315 0.66726 0.0
C1003 C 0.59585 0.29977 0.70407 0.0
C1004 C 0.61861 0.28026 0.69129 0.0
H1005 H 0.76071 0.21907 0.61822 0.0
H1006 H 0.71885 0.25137 0.63619 0.0
H1007 H 0.68117 0.2301 0.69943 0.0
H1008 H 0.5487 0.30739 0.75371 0.0
H1009 H 0.58387 0.27512 0.73239 0.0
C1010 C 0.74741 0.29564 0.15013 0.0
C1011 C 0.7649 0.31314 0.13543 0.0
C1012 C 0.77039 0.27719 0.16067 0.0
C1013 C 0.86705 0.24423 0.15832 0.0
H1014 H 0.84499 0.23106 0.22043 0.0
C1015 C 0.93861 0.16089 0.2063 0.0
C1016 C 0.94978 0.16538 0.22839 0.0
C1017 C 0.91709 0.17917 0.1946 0.0
C1018 C 0.85181 0.23468 0.20315 0.0
H1019 H 0.81948 0.32515 0.11975 0.0
H1020 H 0.86027 0.29294 0.13833 0.0
H1021 H 0.80573 0.26235 0.20042 0.0
H1022 H 0.94816 0.19266 0.25545 0.0
H1023 H 0.91084 0.22479 0.23497 0.0
H1024 H 0.91379 0.21695 0.16124 0.0
C1025 C 0.8287 0.29319 0.14155 0.0
C1026 C 0.82893 0.25236 0.19159 0.0
C1027 C 0.80556 0.3116 0.13095 0.0
C1028 C 0.93951 0.18862 0.2385 0.0
C1029 C 0.91805 0.20695 0.22679 0.0
C1030 C 0.89003 0.22655 0.16991 0.0
C1031 C 0.81144 0.27599 0.15677 0.0
C1032 C 0.83613 0.25727 0.16901 0.0
C1033 C 0.90641 0.20238 0.20473 0.0
C1034 C 0.88259 0.22153 0.19246 0.0
H1035 H 0.71595 0.29648 0.15358 0.0
H1036 H 0.756 0.26392 0.17192 0.0
H1037 H 0.8732 0.24742 0.1409 0.0
H1038 H 0.94593 0.14304 0.19815 0.0
H1039 H 0.90812 0.17488 0.17776 0.0
C1040 C 0.80691 0.67998 0.64298 0.0
C1041 C 0.77133 0.68618 0.6324 0.0
C1042 C 0.8286 0.69879 0.65426 0.0
C1043 C 0.84023 0.76927 0.6602 0.0
H1044 H 0.8887 0.7513 0.71631 0.0
C1045 C 0.90492 0.84514 0.72003 0.0
C1046 C 0.94157 0.83965 0.72987 0.0
C1047 C 0.88444 0.82637 0.70805 0.0
C1048 C 0.87567 0.75655 0.70056 0.0
H1049 H 0.72988 0.71636 0.62532 0.0
H1050 H 0.76744 0.74949 0.6452 0.0
H1051 H 0.85272 0.71876 0.69526 0.0
H1052 H 0.98572 0.81032 0.73485 0.0
H1053 H 0.95009 0.77746 0.71372 0.0
H1054 H 0.86284 0.80715 0.6657 0.0
C1055 C 0.77926 0.73029 0.64445 0.0
C1056 C 0.85511 0.73789 0.68845 0.0
C1057 C 0.7577 0.71144 0.63311 0.0
C1058 C 0.95752 0.81506 0.72739 0.0
C1059 C 0.93696 0.79622 0.71548 0.0
C1060 C 0.86063 0.78795 0.67237 0.0
C1061 C 0.81487 0.72416 0.65532 0.0
C1062 C 0.83713 0.744 0.6681 0.0
C1063 C 0.90023 0.80169 0.70562 0.0
C1064 C 0.87858 0.7818 0.69269 0.0
H1065 H 0.8176 0.66048 0.64263 0.0
H1066 H 0.85614 0.69344 0.66214 0.0
H1067 H 0.8273 0.77458 0.64445 0.0
H1068 H 0.89223 0.86405 0.72141 0.0
H1069 H 0.85605 0.83113 0.70085 0.0
C1070 C 0.69892 0.82486 0.14104 0.0
C1071 C 0.7351 0.81856 0.1311 0.0
C1072 C 0.67661 0.80617 0.1521 0.0
C1073 C 0.66503 0.73572 0.15865 0.0
H1074 H 0.61396 0.75451 0.21391 0.0
C1075 C 0.60078 0.66089 0.2196 0.0
C1076 C 0.56376 0.66621 0.22911 0.0
C1077 C 0.62079 0.67948 0.20717 0.0
C1078 C 0.62769 0.74903 0.19839 0.0
H1079 H 0.77692 0.78831 0.12492 0.0
H1080 H 0.73834 0.75542 0.14446 0.0
H1081 H 0.65032 0.78684 0.19285 0.0
H1082 H 0.51842 0.69503 0.23301 0.0
H1083 H 0.5532 0.72753 0.21108 0.0
H1084 H 0.64284 0.69779 0.16444 0.0
C1085 C 0.72653 0.77459 0.14336 0.0
C1086 C 0.64848 0.76757 0.18627 0.0
C1087 C 0.74868 0.79332 0.13222 0.0
C1088 C 0.54693 0.69042 0.22583 0.0
C1089 C 0.56698 0.70906 0.21344 0.0
C1090 C 0.64441 0.71716 0.17083 0.0
C1091 C 0.69032 0.78083 0.1536 0.0
C1092 C 0.66749 0.76116 0.16625 0.0
C1093 C 0.60414 0.70379 0.20397 0.0
C1094 C 0.62558 0.72359 0.19086 0.0
H1095 H 0.68819 0.84434 0.14035 0.0
H1096 H 0.64864 0.8116 0.15949 0.0
H1097 H 0.67874 0.73017 0.14314 0.0
H1098 H 0.61417 0.64226 0.22161 0.0
H1099 H 0.64953 0.6749 0.20027 0.0
C1100 C 0.25148 0.78458 0.39262 0.0
C1101 C 0.25688 0.81094 0.38937 0.0
C1102 C 0.27662 0.76709 0.38224 0.0
C1103 C 0.33406 0.75818 0.33279 0.0
H1104 H 0.39388 0.70763 0.36547 0.0
C1105 C 0.44407 0.69132 0.28848 0.0
C1106 C 0.44847 0.66646 0.29679 0.0
C1107 C 0.42197 0.70936 0.30023 0.0
C1108 C 0.37688 0.72129 0.356 0.0
H1109 H 0.29247 0.83999 0.37323 0.0
H1110 H 0.33586 0.80931 0.35427 0.0
H1111 H 0.35228 0.73793 0.38547 0.0
H1112 H 0.43286 0.64054 0.32343 0.0
H1113 H 0.3926 0.67144 0.34341 0.0
H1114 H 0.35679 0.7411 0.30327 0.0
C1115 C 0.31251 0.80221 0.36502 0.0
C1116 C 0.35333 0.73874 0.36752 0.0
C1117 C 0.28793 0.81966 0.3758 0.0
C1118 C 0.43019 0.65976 0.31686 0.0
C1119 C 0.40735 0.67757 0.32836 0.0
C1120 C 0.3569 0.74041 0.32121 0.0
C1121 C 0.30693 0.7758 0.36809 0.0
C1122 C 0.3319 0.75736 0.356 0.0
C1123 C 0.40306 0.70269 0.32029 0.0
C1124 C 0.37877 0.72173 0.33265 0.0
H1125 H 0.22742 0.77761 0.40292 0.0
H1126 H 0.27171 0.74678 0.38472 0.0
H1127 H 0.31739 0.77227 0.32357 0.0
H1128 H 0.45827 0.69692 0.27309 0.0
H1129 H 0.42014 0.72859 0.29366 0.0
C1130 C 0.19636 0.67811 0.87783 0.0
C1131 C 0.22832 0.68553 0.89133 0.0
C1132 C 0.17373 0.6965 0.86693 0.0
C1133 C 0.13883 0.76126 0.8691 0.0
H1134 H 0.13722 0.75948 0.80483 0.0
C1135 C 0.06945 0.84303 0.8184 0.0
C1136 C 0.05182 0.83714 0.79798 0.0
C1137 C 0.09041 0.8244 0.83002 0.0
C1138 C 0.13656 0.76006 0.82276 0.0
H1139 H 0.26138 0.71786 0.90431 0.0
H1140 H 0.22037 0.75024 0.88606 0.0
H1141 H 0.17337 0.72686 0.82522 0.0
H1142 H 0.04113 0.80729 0.77379 0.0
H1143 H 0.07576 0.77424 0.79456 0.0
H1144 H 0.10084 0.79368 0.86698 0.0
C1145 C 0.21327 0.73015 0.88378 0.0
C1146 C 0.15757 0.74144 0.83439 0.0
C1147 C 0.23649 0.71171 0.89429 0.0
C1148 C 0.05487 0.81227 0.78946 0.0
C1149 C 0.075 0.79343 0.80133 0.0
C1150 C 0.11703 0.77956 0.85752 0.0
C1151 C 0.1821 0.72264 0.86977 0.0
C1152 C 0.15907 0.74202 0.85762 0.0
C1153 C 0.09338 0.79927 0.82172 0.0
C1154 C 0.11581 0.77936 0.83415 0.0
H1155 H 0.1892 0.65805 0.87558 0.0
H1156 H 0.14961 0.69034 0.85631 0.0
H1157 H 0.13941 0.7619 0.88706 0.0
H1158 H 0.06783 0.86224 0.82514 0.0
H1159 H 0.10482 0.82993 0.84534 0.0
loop_
_geom_bond_atom_site_label_1
_geom_bond_atom_site_label_2
_geom_bond_distance
_geom_bond_site_symmetry_2
_ccdc_geom_bond_type
C0 N1 1.317 . S
C0 N2 1.348 . S
C0 C3 1.485 . S
N1 C0 1.317 . S
N1 N5 1.370 . S
N2 C0 1.348 . S
N2 C4 1.346 . S
C3 C0 1.485 . S
C3 H7 0.960 . S
C3 H8 0.961 . S
C3 H9 0.960 . S
C4 N2 1.346 . S
C4 N5 1.307 . S
C4 C6 1.486 . S
N5 N1 1.370 . S
N5 C4 1.307 . S
C6 C4 1.486 . S
C6 H10 0.960 . S
C6 H11 0.960 . S
C6 H12 0.959 . S
H7 C3 0.960 . S
H8 C3 0.961 . S
H9 C3 0.960 . S
H10 C6 0.960 . S
H11 C6 0.960 . S
H12 C6 0.959 . S
C13 N14 1.317 . S
C13 N15 1.348 . S
C13 C16 1.485 . S
N14 C13 1.317 . S
N14 N18 1.370 . S
N15 C13 1.348 . S
N15 C17 1.346 . S
C16 C13 1.485 . S
C16 H20 0.960 . S
C16 H21 0.961 . S
C16 H22 0.960 . S
C17 N15 1.346 . S
C17 N18 1.307 . S
C17 C19 1.486 . S
N18 N14 1.370 . S
N18 C17 1.307 . S
C19 C17 1.486 . S
C19 H23 0.960 . S
C19 H24 0.960 . S
C19 H25 0.959 . S
H20 C16 0.960 . S
H21 C16 0.961 . S
H22 C16 0.960 . S
H23 C19 0.960 . S
H24 C19 0.960 . S
H25 C19 0.959 . S
C26 N27 1.317 . S
C26 N28 1.348 . S
C26 C29 1.485 . S
N27 C26 1.317 . S
N27 N31 1.370 . S
N28 C26 1.348 . S
N28 C30 1.346 . S
C29 C26 1.485 . S
C29 H33 0.960 . S
C29 H34 0.961 . S
C29 H35 0.960 . S
C30 N28 1.346 . S
C30 N31 1.307 . S
C30 C32 1.486 . S
N31 N27 1.370 . S
N31 C30 1.307 . S
C32 C30 1.486 . S
C32 H36 0.960 . S
C32 H37 0.960 . S
C32 H38 0.959 . S
H33 C29 0.960 . S
H34 C29 0.961 . S
H35 C29 0.960 . S
H36 C32 0.960 . S
H37 C32 0.960 . S
H38 C32 0.959 . S
C39 N40 1.317 . S
C39 N41 1.348 . S
C39 C42 1.485 . S
N40 C39 1.317 . S
N40 N44 1.370 . S
N41 C39 1.348 . S
N41 C43 1.346 . S
C42 C39 1.485 . S
C42 H46 0.960 . S
C42 H47 0.961 . S
C42 H48 0.960 . S
C43 N41 1.346 . S
C43 N44 1.307 . S
C43 C45 1.486 . S
N44 N40 1.370 . S
N44 C43 1.307 . S
C45 C43 1.486 . S
C45 H49 0.960 . S
C45 H50 0.960 . S
C45 H51 0.959 . S
H46 C42 0.960 . S
H47 C42 0.961 . S
H48 C42 0.960 . S
H49 C45 0.960 . S
H50 C45 0.960 . S
H51 C45 0.959 . S
C52 N53 1.317 . S
C52 N54 1.348 . S
C52 C55 1.485 . S
N53 C52 1.317 . S
N53 N57 1.370 . S
N54 C52 1.348 . S
N54 C56 1.346 . S
C55 C52 1.485 . S
C55 H59 0.960 . S
C55 H60 0.961 . S
C55 H61 0.960 . S
C56 N54 1.346 . S
C56 N57 1.307 . S
C56 C58 1.486 . S
N57 N53 1.370 . S
N57 C56 1.307 . S
C58 C56 1.486 . S
C58 H62 0.960 . S
C58 H63 0.960 . S
C58 H64 0.959 . S
H59 C55 0.960 . S
H60 C55 0.961 . S
H61 C55 0.960 . S
H62 C58 0.960 . S
H63 C58 0.960 . S
H64 C58 0.959 . S
C65 N66 1.317 . S
C65 N67 1.348 . S
C65 C68 1.485 . S
N66 C65 1.317 . S
N66 N70 1.370 . S
N67 C65 1.348 . S
N67 C69 1.346 . S
C68 C65 1.485 . S
C68 H72 0.960 . S
C68 H73 0.961 . S
C68 H74 0.960 . S
C69 N67 1.346 . S
C69 N70 1.307 . S
C69 C71 1.486 . S
N70 N66 1.370 . S
N70 C69 1.307 . S
C71 C69 1.486 . S
C71 H75 0.960 . S
C71 H76 0.960 . S
C71 H77 0.959 . S
H72 C68 0.960 . S
H73 C68 0.961 . S
H74 C68 0.960 . S
H75 C71 0.960 . S
H76 C71 0.960 . S
H77 C71 0.959 . S
C78 N79 1.317 . S
C78 N80 1.348 . S
C78 C81 1.485 . S
N79 C78 1.317 . S
N79 N83 1.370 . S
N80 C78 1.348 . S
N80 C82 1.346 . S
C81 C78 1.485 . S
C81 H85 0.960 . S
C81 H86 0.961 . S
C81 H87 0.960 . S
C82 N80 1.346 . S
C82 N83 1.307 . S
C82 C84 1.486 . S
N83 N79 1.370 . S
N83 C82 1.307 . S
C84 C82 1.486 . S
C84 H88 0.960 . S
C84 H89 0.960 . S
C84 H90 0.959 . S
H85 C81 0.960 . S
H86 C81 0.961 . S
H87 C81 0.960 . S
H88 C84 0.960 . S
H89 C84 0.960 . S
H90 C84 0.959 . S
C91 N92 1.317 . S
C91 N93 1.348 . S
C91 C94 1.485 . S
N92 C91 1.317 . S
N92 N96 1.370 . S
N93 C91 1.348 . S
N93 C95 1.346 . S
C94 C91 1.485 . S
C94 H98 0.960 . S
C94 H99 0.961 . S
C94 H100 0.960 . S
C95 N93 1.346 . S
C95 N96 1.307 . S
C95 C97 1.486 . S
N96 N92 1.370 . S
N96 C95 1.307 . S
C97 C95 1.486 . S
C97 H101 0.960 . S
C97 H102 0.960 . S
C97 H103 0.959 . S
H98 C94 0.960 . S
H99 C94 0.961 . S
H100 C94 0.960 . S
H101 C97 0.960 . S
H102 C97 0.960 . S
H103 C97 0.959 . S
C104 C106 1.422 . S
C104 C108 1.415 . S
C104 N110 1.369 . S
C105 C106 1.421 . S
C105 C107 1.417 . S
C105 C117 1.422 . S
C106 C104 1.422 . S
C106 C105 1.421 . S
C106 N116 1.359 . S
C107 C105 1.417 . S
C107 C109 1.329 . S
C107 H126 0.930 . S
C108 C104 1.415 . S
C108 C109 1.437 . S
C108 C112 1.413 . S
C109 C107 1.329 . S
C109 C108 1.437 . S
C109 H131 0.929 . S
N110 C104 1.369 . S
N110 C111 1.338 . S
N110 Gd115 2.622 . S
C111 N110 1.338 . S
C111 C113 1.378 . S
C111 H123 0.929 . S
C112 C108 1.413 . S
C112 C113 1.348 . S
C112 H128 0.931 . S
C113 C111 1.378 . S
C113 C112 1.348 . S
C113 H129 0.930 . S
Gd114 N134 2.622 . S
Gd114 N141 2.570 . S
Gd114 O148 2.353 . S
Gd114 O149 2.468 . S
Gd114 O150 2.427 . S
Gd114 O152 2.388 . S
Gd114 O153 2.386 . S
Gd114 O157 2.307 . S
Gd114 C167 2.805 . S
Gd115 N110 2.622 . S
Gd115 N116 2.570 . S
Gd115 O147 2.386 . S
Gd115 O151 2.307 1_655 S
Gd115 O154 2.353 1_655 S
Gd115 O155 2.468 . S
Gd115 O156 2.427 . S
Gd115 O158 2.388 . S
Gd115 C179 2.805 . S
N116 C106 1.359 . S
N116 Gd115 2.570 . S
N116 C118 1.343 . S
C117 C105 1.422 . S
C117 C119 1.321 . S
C117 H125 0.931 . S
C118 N116 1.343 . S
C118 C119 1.390 . S
C118 H120 0.931 . S
C119 C117 1.321 . S
C119 C118 1.390 . S
C119 H121 0.930 . S
H120 C118 0.931 . S
H121 C119 0.930 . S
H122 C145 0.931 . S
H123 C111 0.929 . S
H124 C146 0.930 . S
H125 C117 0.931 . S
H126 C107 0.930 . S
H127 C136 0.929 . S
H128 C112 0.931 . S
H129 C113 0.930 . S
H130 C168 0.930 . S
H131 C109 0.929 . S
H132 C137 0.931 . S
H133 C138 0.930 . S
N134 Gd114 2.622 . S
N134 C135 1.369 . S
N134 C136 1.338 . S
C135 N134 1.369 . S
C135 C139 1.415 . S
C135 C142 1.422 . S
C136 H127 0.929 . S
C136 N134 1.338 . S
C136 C138 1.378 . S
C137 H132 0.931 . S
C137 C138 1.348 . S
C137 C139 1.413 . S
C138 H133 0.930 . S
C138 C136 1.378 . S
C138 C137 1.348 . S
C139 C135 1.415 . S
C139 C137 1.413 . S
C139 C169 1.437 . S
H140 C169 0.929 . S
N141 Gd114 2.570 . S
N141 C142 1.359 . S
N141 C145 1.343 . S
C142 C135 1.422 . S
C142 N141 1.359 . S
C142 C144 1.421 . S
C143 C144 1.422 . S
C143 C146 1.321 . S
C143 H170 0.931 . S
C144 C142 1.421 . S
C144 C143 1.422 . S
C144 C168 1.417 . S
C145 H122 0.931 . S
C145 N141 1.343 . S
C145 C146 1.390 . S
C146 H124 0.930 . S
C146 C143 1.321 . S
C146 C145 1.390 . S
O147 Gd115 2.386 . S
O147 C159 1.265 . S
O148 Gd114 2.353 . S
O148 C159 1.242 1_455 S
O149 Gd114 2.468 . S
O149 C167 1.263 . S
O150 Gd114 2.427 . S
O150 C167 1.252 . S
O151 Gd115 2.307 1_455 S
O151 C160 1.261 . S
O152 Gd114 2.388 . S
O152 C160 1.252 . S
O153 Gd114 2.386 . S
O153 C171 1.265 . S
O154 Gd115 2.353 1_455 S
O154 C171 1.242 . S
O155 Gd115 2.468 . S
O155 C179 1.263 . S
O156 Gd115 2.427 . S
O156 C179 1.252 . S
O157 Gd114 2.307 . S
O157 C172 1.261 1_455 S
O158 Gd115 2.388 . S
O158 C172 1.252 . S
C159 O147 1.265 . S
C159 O148 1.242 1_655 S
C160 O151 1.261 . S
C160 O152 1.252 . S
C161 C164 1.394 . S
C161 C166 1.370 . S
C161 C167 1.500 . S
C162 C165 1.383 . S
C162 C166 1.395 . S
C163 C164 1.396 . S
C163 C165 1.365 . S
C163 H180 0.929 . S
C164 C161 1.394 . S
C164 C163 1.396 . S
C164 H181 0.930 . S
C165 C162 1.383 . S
C165 C163 1.365 . S
C165 H182 0.931 . S
C166 C161 1.370 . S
C166 C162 1.395 . S
C166 H183 0.930 . S
C167 Gd114 2.805 . S
C167 O149 1.263 . S
C167 O150 1.252 . S
C167 C161 1.500 . S
C168 H130 0.930 . S
C168 C144 1.417 . S
C168 C169 1.329 . S
C169 C139 1.437 . S
C169 H140 0.929 . S
C169 C168 1.329 . S
H170 C143 0.931 . S
C171 O153 1.265 . S
C171 O154 1.242 . S
C172 O157 1.261 1_655 S
C172 O158 1.252 . S
C173 C176 1.394 . S
C173 C178 1.370 . S
C173 C179 1.500 . S
C174 C177 1.383 . S
C174 C178 1.395 . S
C175 C176 1.396 . S
C175 C177 1.365 . S
C175 H184 0.929 . S
C176 C173 1.394 . S
C176 C175 1.396 . S
C176 H185 0.930 . S
C177 C174 1.383 . S
C177 C175 1.365 . S
C177 H186 0.931 . S
C178 C173 1.370 . S
C178 C174 1.395 . S
C178 H187 0.930 . S
C179 Gd115 2.805 . S
C179 O155 1.263 . S
C179 O156 1.252 . S
C179 C173 1.500 . S
H180 C163 0.929 . S
H181 C164 0.930 . S
H182 C165 0.931 . S
H183 C166 0.930 . S
H184 C175 0.929 . S
H185 C176 0.930 . S
H186 C177 0.931 . S
H187 C178 0.930 . S
C188 C190 1.422 . S
C188 C192 1.415 . S
C188 N194 1.369 . S
C189 C190 1.421 . S
C189 C191 1.417 . S
C189 C201 1.422 . S
C190 C188 1.422 . S
C190 C189 1.421 . S
C190 N200 1.359 . S
C191 C189 1.417 . S
C191 C193 1.329 . S
C191 H210 0.930 . S
C192 C188 1.415 . S
C192 C193 1.437 . S
C192 C196 1.413 . S
C193 C191 1.329 . S
C193 C192 1.437 . S
C193 H215 0.929 . S
N194 C188 1.369 . S
N194 C195 1.338 . S
N194 Gd199 2.622 . S
C195 N194 1.338 . S
C195 C197 1.378 . S
C195 H207 0.929 . S
C196 C192 1.413 . S
C196 C197 1.348 . S
C196 H212 0.931 . S
C197 C195 1.378 . S
C197 C196 1.348 . S
C197 H213 0.930 . S
Gd198 N218 2.622 . S
Gd198 N225 2.570 . S
Gd198 O232 2.353 . S
Gd198 O233 2.468 . S
Gd198 O234 2.427 . S
Gd198 O236 2.388 . S
Gd198 O237 2.386 . S
Gd198 O241 2.307 . S
Gd198 C251 2.805 . S
Gd199 N194 2.622 . S
Gd199 N200 2.570 . S
Gd199 O231 2.386 . S
Gd199 O235 2.307 . S
Gd199 O238 2.353 . S
Gd199 O239 2.468 . S
Gd199 O240 2.427 . S
Gd199 O242 2.388 . S
Gd199 C263 2.805 . S
N200 C190 1.359 . S
N200 Gd199 2.570 . S
N200 C202 1.343 . S
C201 C189 1.422 . S
C201 C203 1.321 . S
C201 H209 0.931 . S
C202 N200 1.343 . S
C202 C203 1.390 . S
C202 H204 0.931 . S
C203 C201 1.321 . S
C203 C202 1.390 . S
C203 H205 0.930 . S
H204 C202 0.931 . S
H205 C203 0.930 . S
H206 C229 0.931 . S
H207 C195 0.929 . S
H208 C230 0.930 . S
H209 C201 0.931 . S
H210 C191 0.930 . S
H211 C220 0.929 . S
H212 C196 0.931 . S
H213 C197 0.930 . S
H214 C252 0.930 . S
H215 C193 0.929 . S
H216 C221 0.931 . S
H217 C222 0.930 . S
N218 Gd198 2.622 . S
N218 C219 1.369 . S
N218 C220 1.338 . S
C219 N218 1.369 . S
C219 C223 1.415 . S
C219 C226 1.422 . S
C220 H211 0.929 . S
C220 N218 1.338 . S
C220 C222 1.378 . S
C221 H216 0.931 . S
C221 C222 1.348 . S
C221 C223 1.413 . S
C222 H217 0.930 . S
C222 C220 1.378 . S
C222 C221 1.348 . S
C223 C219 1.415 . S
C223 C221 1.413 . S
C223 C253 1.437 . S
H224 C253 0.929 . S
N225 Gd198 2.570 . S
N225 C226 1.359 . S
N225 C229 1.343 . S
C226 C219 1.422 . S
C226 N225 1.359 . S
C226 C228 1.421 . S
C227 C228 1.422 . S
C227 C230 1.321 . S
C227 H254 0.931 . S
C228 C226 1.421 . S
C228 C227 1.422 . S
C228 C252 1.417 . S
C229 H206 0.931 . S
C229 N225 1.343 . S
C229 C230 1.390 . S
C230 H208 0.930 . S
C230 C227 1.321 . S
C230 C229 1.390 . S
O231 Gd199 2.386 . S
O231 C243 1.265 . S
O232 Gd198 2.353 . S
O232 C243 1.242 . S
O233 Gd198 2.468 . S
O233 C251 1.263 . S
O234 Gd198 2.427 . S
O234 C251 1.252 . S
O235 Gd199 2.307 . S
O235 C244 1.261 . S
O236 Gd198 2.388 . S
O236 C244 1.252 . S
O237 Gd198 2.386 . S
O237 C255 1.265 . S
O238 Gd199 2.353 . S
O238 C255 1.242 . S
O239 Gd199 2.468 . S
O239 C263 1.263 . S
O240 Gd199 2.427 . S
O240 C263 1.252 . S
O241 Gd198 2.307 . S
O241 C256 1.261 . S
O242 Gd199 2.388 . S
O242 C256 1.252 . S
C243 O231 1.265 . S
C243 O232 1.242 . S
C244 O235 1.261 . S
C244 O236 1.252 . S
C245 C248 1.394 . S
C245 C250 1.370 . S
C245 C251 1.500 . S
C246 C249 1.383 . S
C246 C250 1.395 . S
C247 C248 1.396 . S
C247 C249 1.365 . S
C247 H264 0.929 . S
C248 C245 1.394 . S
C248 C247 1.396 . S
C248 H265 0.930 . S
C249 C246 1.383 . S
C249 C247 1.365 . S
C249 H266 0.931 . S
C250 C245 1.370 . S
C250 C246 1.395 . S
C250 H267 0.930 . S
C251 Gd198 2.805 . S
C251 O233 1.263 . S
C251 O234 1.252 . S
C251 C245 1.500 . S
C252 H214 0.930 . S
C252 C228 1.417 . S
C252 C253 1.329 . S
C253 C223 1.437 . S
C253 H224 0.929 . S
C253 C252 1.329 . S
H254 C227 0.931 . S
C255 O237 1.265 . S
C255 O238 1.242 . S
C256 O241 1.261 . S
C256 O242 1.252 . S
C257 C260 1.394 . S
C257 C262 1.370 . S
C257 C263 1.500 . S
C258 C261 1.383 . S
C258 C262 1.395 . S
C259 C260 1.396 . S
C259 C261 1.365 . S
C259 H268 0.929 . S
C260 C257 1.394 . S
C260 C259 1.396 . S
C260 H269 0.930 . S
C261 C258 1.383 . S
C261 C259 1.365 . S
C261 H270 0.931 . S
C262 C257 1.370 . S
C262 C258 1.395 . S
C262 H271 0.930 . S
C263 Gd199 2.805 . S
C263 O239 1.263 . S
C263 O240 1.252 . S
C263 C257 1.500 . S
H264 C247 0.929 . S
H265 C248 0.930 . S
H266 C249 0.931 . S
H267 C250 0.930 . S
H268 C259 0.929 . S
H269 C260 0.930 . S
H270 C261 0.931 . S
H271 C262 0.930 . S
C272 C274 1.422 . S
C272 C276 1.415 . S
C272 N278 1.369 . S
C273 C274 1.421 . S
C273 C275 1.417 . S
C273 C285 1.422 . S
C274 C272 1.422 . S
C274 C273 1.421 . S
C274 N284 1.359 . S
C275 C273 1.417 . S
C275 C277 1.329 . S
C275 H294 0.930 . S
C276 C272 1.415 . S
C276 C277 1.437 . S
C276 C280 1.413 . S
C277 C275 1.329 . S
C277 C276 1.437 . S
C277 H299 0.929 . S
N278 C272 1.369 . S
N278 C279 1.338 . S
N278 Gd283 2.622 . S
C279 N278 1.338 . S
C279 C281 1.378 . S
C279 H291 0.929 . S
C280 C276 1.413 . S
C280 C281 1.348 . S
C280 H296 0.931 . S
C281 C279 1.378 . S
C281 C280 1.348 . S
C281 H297 0.930 . S
Gd282 N302 2.622 . S
Gd282 N309 2.570 . S
Gd282 O316 2.353 . S
Gd282 O317 2.468 . S
Gd282 O318 2.427 . S
Gd282 O320 2.388 . S
Gd282 O321 2.386 . S
Gd282 O325 2.307 . S
Gd282 C335 2.805 . S
Gd283 N278 2.622 . S
Gd283 N284 2.570 . S
Gd283 O315 2.386 . S
Gd283 O319 2.307 1_655 S
Gd283 O322 2.353 1_655 S
Gd283 O323 2.468 . S
Gd283 O324 2.427 . S
Gd283 O326 2.388 . S
Gd283 C347 2.805 . S
N284 C274 1.359 . S
N284 Gd283 2.570 . S
N284 C286 1.343 . S
C285 C273 1.422 . S
C285 C287 1.321 . S
C285 H293 0.931 . S
C286 N284 1.343 . S
C286 C287 1.390 . S
C286 H288 0.931 . S
C287 C285 1.321 . S
C287 C286 1.390 . S
C287 H289 0.930 . S
H288 C286 0.931 . S
H289 C287 0.930 . S
H290 C313 0.931 . S
H291 C279 0.929 . S
H292 C314 0.930 . S
H293 C285 0.931 . S
H294 C275 0.930 . S
H295 C304 0.929 . S
H296 C280 0.931 . S
H297 C281 0.930 . S
H298 C336 0.930 . S
H299 C277 0.929 . S
H300 C305 0.931 . S
H301 C306 0.930 . S
N302 Gd282 2.622 . S
N302 C303 1.369 . S
N302 C304 1.338 . S
C303 N302 1.369 . S
C303 C307 1.415 . S
C303 C310 1.422 . S
C304 H295 0.929 . S
C304 N302 1.338 . S
C304 C306 1.378 . S
C305 H300 0.931 . S
C305 C306 1.348 . S
C305 C307 1.413 . S
C306 H301 0.930 . S
C306 C304 1.378 . S
C306 C305 1.348 . S
C307 C303 1.415 . S
C307 C305 1.413 . S
C307 C337 1.437 . S
H308 C337 0.929 . S
N309 Gd282 2.570 . S
N309 C310 1.359 . S
N309 C313 1.343 . S
C310 C303 1.422 . S
C310 N309 1.359 . S
C310 C312 1.421 . S
C311 C312 1.422 . S
C311 C314 1.321 . S
C311 H338 0.931 . S
C312 C310 1.421 . S
C312 C311 1.422 . S
C312 C336 1.417 . S
C313 H290 0.931 . S
C313 N309 1.343 . S
C313 C314 1.390 . S
C314 H292 0.930 . S
C314 C311 1.321 . S
C314 C313 1.390 . S
O315 Gd283 2.386 . S
O315 C327 1.265 . S
O316 Gd282 2.353 . S
O316 C327 1.242 1_455 S
O317 Gd282 2.468 . S
O317 C335 1.263 . S
O318 Gd282 2.427 . S
O318 C335 1.252 . S
O319 Gd283 2.307 1_455 S
O319 C328 1.261 . S
O320 Gd282 2.388 . S
O320 C328 1.252 . S
O321 Gd282 2.386 . S
O321 C339 1.265 . S
O322 Gd283 2.353 1_455 S
O322 C339 1.242 . S
O323 Gd283 2.468 . S
O323 C347 1.263 . S
O324 Gd283 2.427 . S
O324 C347 1.252 . S
O325 Gd282 2.307 . S
O325 C340 1.261 1_455 S
O326 Gd283 2.388 . S
O326 C340 1.252 . S
C327 O315 1.265 . S
C327 O316 1.242 1_655 S
C328 O319 1.261 . S
C328 O320 1.252 . S
C329 C332 1.394 . S
C329 C334 1.370 . S
C329 C335 1.500 . S
C330 C333 1.383 . S
C330 C334 1.395 . S
C331 C332 1.396 . S
C331 C333 1.365 . S
C331 H348 0.929 . S
C332 C329 1.394 . S
C332 C331 1.396 . S
C332 H349 0.930 . S
C333 C330 1.383 . S
C333 C331 1.365 . S
C333 H350 0.931 . S
C334 C329 1.370 . S
C334 C330 1.395 . S
C334 H351 0.930 . S
C335 Gd282 2.805 . S
C335 O317 1.263 . S
C335 O318 1.252 . S
C335 C329 1.500 . S
C336 H298 0.930 . S
C336 C312 1.417 . S
C336 C337 1.329 . S
C337 C307 1.437 . S
C337 H308 0.929 . S
C337 C336 1.329 . S
H338 C311 0.931 . S
C339 O321 1.265 . S
C339 O322 1.242 . S
C340 O325 1.261 1_655 S
C340 O326 1.252 . S
C341 C344 1.394 . S
C341 C346 1.370 . S
C341 C347 1.500 . S
C342 C345 1.383 . S
C342 C346 1.395 . S
C343 C344 1.396 . S
C343 C345 1.365 . S
C343 H352 0.929 . S
C344 C341 1.394 . S
C344 C343 1.396 . S
C344 H353 0.930 . S
C345 C342 1.383 . S
C345 C343 1.365 . S
C345 H354 0.931 . S
C346 C341 1.370 . S
C346 C342 1.395 . S
C346 H355 0.930 . S
C347 Gd283 2.805 . S
C347 O323 1.263 . S
C347 O324 1.252 . S
C347 C341 1.500 . S
H348 C331 0.929 . S
H349 C332 0.930 . S
H350 C333 0.931 . S
H351 C334 0.930 . S
H352 C343 0.929 . S
H353 C344 0.930 . S
H354 C345 0.931 . S
H355 C346 0.930 . S
C356 C358 1.422 . S
C356 C360 1.415 . S
C356 N362 1.369 . S
C357 C358 1.421 . S
C357 C359 1.417 . S
C357 C369 1.422 . S
C358 C356 1.422 . S
C358 C357 1.421 . S
C358 N368 1.359 . S
C359 C357 1.417 . S
C359 C361 1.329 . S
C359 H378 0.930 . S
C360 C356 1.415 . S
C360 C361 1.437 . S
C360 C364 1.413 . S
C361 C359 1.329 . S
C361 C360 1.437 . S
C361 H383 0.929 . S
N362 C356 1.369 . S
N362 C363 1.338 . S
N362 Gd367 2.622 . S
C363 N362 1.338 . S
C363 C365 1.378 . S
C363 H375 0.929 . S
C364 C360 1.413 . S
C364 C365 1.348 . S
C364 H380 0.931 . S
C365 C363 1.378 . S
C365 C364 1.348 . S
C365 H381 0.930 . S
Gd366 N386 2.622 . S
Gd366 N393 2.570 . S
Gd366 O400 2.353 . S
Gd366 O401 2.468 . S
Gd366 O402 2.427 . S
Gd366 O404 2.388 . S
Gd366 O405 2.386 . S
Gd366 O409 2.307 . S
Gd366 C419 2.805 . S
Gd367 N362 2.622 . S
Gd367 N368 2.570 . S
Gd367 O399 2.386 . S
Gd367 O403 2.307 . S
Gd367 O406 2.353 . S
Gd367 O407 2.468 . S
Gd367 O408 2.427 . S
Gd367 O410 2.388 . S
Gd367 C431 2.805 . S
N368 C358 1.359 . S
N368 Gd367 2.570 . S
N368 C370 1.343 . S
C369 C357 1.422 . S
C369 C371 1.321 . S
C369 H377 0.931 . S
C370 N368 1.343 . S
C370 C371 1.390 . S
C370 H372 0.931 . S
C371 C369 1.321 . S
C371 C370 1.390 . S
C371 H373 0.930 . S
H372 C370 0.931 . S
H373 C371 0.930 . S
H374 C397 0.931 . S
H375 C363 0.929 . S
H376 C398 0.930 . S
H377 C369 0.931 . S
H378 C359 0.930 . S
H379 C388 0.929 . S
H380 C364 0.931 . S
H381 C365 0.930 . S
H382 C420 0.930 . S
H383 C361 0.929 . S
H384 C389 0.931 . S
H385 C390 0.930 . S
N386 Gd366 2.622 . S
N386 C387 1.369 . S
N386 C388 1.338 . S
C387 N386 1.369 . S
C387 C391 1.415 . S
C387 C394 1.422 . S
C388 H379 0.929 . S
C388 N386 1.338 . S
C388 C390 1.378 . S
C389 H384 0.931 . S
C389 C390 1.348 . S
C389 C391 1.413 . S
C390 H385 0.930 . S
C390 C388 1.378 . S
C390 C389 1.348 . S
C391 C387 1.415 . S
C391 C389 1.413 . S
C391 C421 1.437 . S
H392 C421 0.929 . S
N393 Gd366 2.570 . S
N393 C394 1.359 . S
N393 C397 1.343 . S
C394 C387 1.422 . S
C394 N393 1.359 . S
C394 C396 1.421 . S
C395 C396 1.422 . S
C395 C398 1.321 . S
C395 H422 0.931 . S
C396 C394 1.421 . S
C396 C395 1.422 . S
C396 C420 1.417 . S
C397 H374 0.931 . S
C397 N393 1.343 . S
C397 C398 1.390 . S
C398 H376 0.930 . S
C398 C395 1.321 . S
C398 C397 1.390 . S
O399 Gd367 2.386 . S
O399 C411 1.265 . S
O400 Gd366 2.353 . S
O400 C411 1.242 . S
O401 Gd366 2.468 . S
O401 C419 1.263 . S
O402 Gd366 2.427 . S
O402 C419 1.252 . S
O403 Gd367 2.307 . S
O403 C412 1.261 . S
O404 Gd366 2.388 . S
O404 C412 1.252 . S
O405 Gd366 2.386 . S
O405 C423 1.265 . S
O406 Gd367 2.353 . S
O406 C423 1.242 . S
O407 Gd367 2.468 . S
O407 C431 1.263 . S
O408 Gd367 2.427 . S
O408 C431 1.252 . S
O409 Gd366 2.307 . S
O409 C424 1.261 . S
O410 Gd367 2.388 . S
O410 C424 1.252 . S
C411 O399 1.265 . S
C411 O400 1.242 . S
C412 O403 1.261 . S
C412 O404 1.252 . S
C413 C416 1.394 . S
C413 C418 1.370 . S
C413 C419 1.500 . S
C414 C417 1.383 . S
C414 C418 1.395 . S
C415 C416 1.396 . S
C415 C417 1.365 . S
C415 H432 0.929 . S
C416 C413 1.394 . S
C416 C415 1.396 . S
C416 H433 0.930 . S
C417 C414 1.383 . S
C417 C415 1.365 . S
C417 H434 0.931 . S
C418 C413 1.370 . S
C418 C414 1.395 . S
C418 H435 0.930 . S
C419 Gd366 2.805 . S
C419 O401 1.263 . S
C419 O402 1.252 . S
C419 C413 1.500 . S
C420 H382 0.930 . S
C420 C396 1.417 . S
C420 C421 1.329 . S
C421 C391 1.437 . S
C421 H392 0.929 . S
C421 C420 1.329 . S
H422 C395 0.931 . S
C423 O405 1.265 . S
C423 O406 1.242 . S
C424 O409 1.261 . S
C424 O410 1.252 . S
C425 C428 1.394 . S
C425 C430 1.370 . S
C425 C431 1.500 . S
C426 C429 1.383 . S
C426 C430 1.395 . S
C427 C428 1.396 . S
C427 C429 1.365 . S
C427 H436 0.929 . S
C428 C425 1.394 . S
C428 C427 1.396 . S
C428 H437 0.930 . S
C429 C426 1.383 . S
C429 C427 1.365 . S
C429 H438 0.931 . S
C430 C425 1.370 . S
C430 C426 1.395 . S
C430 H439 0.930 . S
C431 Gd367 2.805 . S
C431 O407 1.263 . S
C431 O408 1.252 . S
C431 C425 1.500 . S
H432 C415 0.929 . S
H433 C416 0.930 . S
H434 C417 0.931 . S
H435 C418 0.930 . S
H436 C427 0.929 . S
H437 C428 0.930 . S
H438 C429 0.931 . S
H439 C430 0.930 . S
C440 C441 1.349 . S
C440 C442 1.327 . S
C440 H465 0.950 . S
C441 C440 1.349 . S
C441 C457 1.349 . S
C442 C440 1.327 . S
C442 C461 1.429 . S
C442 H466 0.950 . S
C443 C460 1.574 . S
C443 C462 1.368 . S
C443 H467 0.949 . S
H444 C448 0.949 1_545 S
C445 C446 1.349 . S
C445 C447 1.327 . S
C445 H468 0.950 . S
C446 C445 1.349 . S
C446 C458 1.349 . S
C447 C445 1.327 . S
C447 C463 1.429 . S
C447 H469 0.950 1_545 S
C448 H444 0.949 1_565 S
C448 C456 1.574 . S
C448 C464 1.368 . S
H449 C457 0.950 . S
H450 C455 0.950 . S
H451 C456 0.949 . S
H452 C458 0.950 . S
H453 C459 0.950 . S
H454 C460 0.949 . S
C455 H450 0.950 . S
C455 C457 1.327 . S
C455 C461 1.429 . S
C456 C448 1.574 . S
C456 H451 0.949 . S
C456 C462 1.368 . S
C457 C441 1.349 . S
C457 H449 0.950 . S
C457 C455 1.327 . S
C458 C446 1.349 . S
C458 H452 0.950 . S
C458 C459 1.327 . S
C459 H453 0.950 . S
C459 C458 1.327 . S
C459 C463 1.429 . S
C460 C443 1.574 . S
C460 H454 0.949 . S
C460 C464 1.368 . S
C461 C442 1.429 . S
C461 C455 1.429 . S
C461 C462 1.523 . S
C462 C443 1.368 . S
C462 C456 1.368 . S
C462 C461 1.523 . S
C463 C447 1.429 . S
C463 C459 1.429 . S
C463 C464 1.523 1_545 S
C464 C448 1.368 . S
C464 C460 1.368 . S
C464 C463 1.523 1_565 S
H465 C440 0.950 . S
H466 C442 0.950 . S
H467 C443 0.949 . S
H468 C445 0.950 . S
H469 C447 0.950 1_565 S
C470 C471 1.349 . S
C470 C472 1.327 . S
C470 H495 0.950 . S
C471 C470 1.349 . S
C471 C487 1.349 . S
C472 C470 1.327 . S
C472 C491 1.429 . S
C472 H496 0.950 . S
C473 C490 1.574 . S
C473 C492 1.368 . S
C473 H497 0.949 . S
H474 C478 0.949 . S
C475 C476 1.349 . S
C475 C477 1.327 . S
C475 H498 0.950 . S
C476 C475 1.349 . S
C476 C488 1.349 . S
C477 C475 1.327 . S
C477 C493 1.429 . S
C477 H499 0.950 . S
C478 H474 0.949 . S
C478 C486 1.574 . S
C478 C494 1.368 . S
H479 C487 0.950 . S
H480 C485 0.950 . S
H481 C486 0.949 . S
H482 C488 0.950 . S
H483 C489 0.950 . S
H484 C490 0.949 . S
C485 H480 0.950 . S
C485 C487 1.327 . S
C485 C491 1.429 . S
C486 C478 1.574 . S
C486 H481 0.949 . S
C486 C492 1.368 . S
C487 C471 1.349 . S
C487 H479 0.950 . S
C487 C485 1.327 . S
C488 C476 1.349 . S
C488 H482 0.950 . S
C488 C489 1.327 . S
C489 H483 0.950 . S
C489 C488 1.327 . S
C489 C493 1.429 . S
C490 C473 1.574 . S
C490 H484 0.949 . S
C490 C494 1.368 . S
C491 C472 1.429 . S
C491 C485 1.429 . S
C491 C492 1.523 . S
C492 C473 1.368 . S
C492 C486 1.368 . S
C492 C491 1.523 . S
C493 C477 1.429 . S
C493 C489 1.429 . S
C493 C494 1.523 . S
C494 C478 1.368 . S
C494 C490 1.368 . S
C494 C493 1.523 . S
H495 C470 0.950 . S
H496 C472 0.950 . S
H497 C473 0.949 . S
H498 C475 0.950 . S
H499 C477 0.950 . S
C500 C501 1.349 . S
C500 C502 1.327 . S
C500 H525 0.950 . S
C501 C500 1.349 . S
C501 C517 1.349 . S
C502 C500 1.327 . S
C502 C521 1.429 . S
C502 H526 0.950 . S
C503 C520 1.574 . S
C503 C522 1.368 . S
C503 H527 0.949 . S
H504 C508 0.949 . S
C505 C506 1.349 . S
C505 C507 1.327 . S
C505 H528 0.950 . S
C506 C505 1.349 . S
C506 C518 1.349 . S
C507 C505 1.327 . S
C507 C523 1.429 . S
C507 H529 0.950 . S
C508 H504 0.949 . S
C508 C516 1.574 . S
C508 C524 1.368 . S
H509 C517 0.950 . S
H510 C515 0.950 . S
H511 C516 0.949 . S
H512 C518 0.950 . S
H513 C519 0.950 . S
H514 C520 0.949 . S
C515 H510 0.950 . S
C515 C517 1.327 . S
C515 C521 1.429 . S
C516 C508 1.574 . S
C516 H511 0.949 . S
C516 C522 1.368 . S
C517 C501 1.349 . S
C517 H509 0.950 . S
C517 C515 1.327 . S
C518 C506 1.349 . S
C518 H512 0.950 . S
C518 C519 1.327 . S
C519 H513 0.950 . S
C519 C518 1.327 . S
C519 C523 1.429 . S
C520 C503 1.574 . S
C520 H514 0.949 . S
C520 C524 1.368 . S
C521 C502 1.429 . S
C521 C515 1.429 . S
C521 C522 1.523 . S
C522 C503 1.368 . S
C522 C516 1.368 . S
C522 C521 1.523 . S
C523 C507 1.429 . S
C523 C519 1.429 . S
C523 C524 1.523 . S
C524 C508 1.368 . S
C524 C520 1.368 . S
C524 C523 1.523 . S
H525 C500 0.950 . S
H526 C502 0.950 . S
H527 C503 0.949 . S
H528 C505 0.950 . S
H529 C507 0.950 . S
C530 C531 1.349 . S
C530 C532 1.327 . S
C530 H555 0.950 . S
C531 C530 1.349 . S
C531 C547 1.349 . S
C532 C530 1.327 . S
C532 C551 1.429 . S
C532 H556 0.950 . S
C533 C550 1.574 . S
C533 C552 1.368 . S
C533 H557 0.949 . S
H534 C538 0.949 1_545 S
C535 C536 1.349 . S
C535 C537 1.327 . S
C535 H558 0.950 . S
C536 C535 1.349 . S
C536 C548 1.349 . S
C537 C535 1.327 . S
C537 C553 1.429 . S
C537 H559 0.950 1_545 S
C538 H534 0.949 1_565 S
C538 C546 1.574 . S
C538 C554 1.368 . S
H539 C547 0.950 . S
H540 C545 0.950 . S
H541 C546 0.949 . S
H542 C548 0.950 . S
H543 C549 0.950 . S
H544 C550 0.949 . S
C545 H540 0.950 . S
C545 C547 1.327 . S
C545 C551 1.429 . S
C546 C538 1.574 . S
C546 H541 0.949 . S
C546 C552 1.368 . S
C547 C531 1.349 . S
C547 H539 0.950 . S
C547 C545 1.327 . S
C548 C536 1.349 . S
C548 H542 0.950 . S
C548 C549 1.327 . S
C549 H543 0.950 . S
C549 C548 1.327 . S
C549 C553 1.429 . S
C550 C533 1.574 . S
C550 H544 0.949 . S
C550 C554 1.368 . S
C551 C532 1.429 . S
C551 C545 1.429 . S
C551 C552 1.523 . S
C552 C533 1.368 . S
C552 C546 1.368 . S
C552 C551 1.523 . S
C553 C537 1.429 . S
C553 C549 1.429 . S
C553 C554 1.523 1_545 S
C554 C538 1.368 . S
C554 C550 1.368 . S
C554 C553 1.523 1_565 S
H555 C530 0.950 . S
H556 C532 0.950 . S
H557 C533 0.949 . S
H558 C535 0.950 . S
H559 C537 0.950 1_565 S
C560 C561 1.349 . S
C560 C562 1.327 . S
C560 H585 0.950 . S
C561 C560 1.349 . S
C561 C577 1.349 . S
C562 C560 1.327 . S
C562 C581 1.429 . S
C562 H586 0.950 . S
C563 C580 1.574 . S
C563 C582 1.368 . S
C563 H587 0.949 . S
H564 C568 0.949 . S
C565 C566 1.349 . S
C565 C567 1.327 . S
C565 H588 0.950 . S
C566 C565 1.349 . S
C566 C578 1.349 . S
C567 C565 1.327 . S
C567 C583 1.429 . S
C567 H589 0.950 . S
C568 H564 0.949 . S
C568 C576 1.574 . S
C568 C584 1.368 . S
H569 C577 0.950 . S
H570 C575 0.950 . S
H571 C576 0.949 . S
H572 C578 0.950 . S
H573 C579 0.950 1_545 S
H574 C580 0.949 1_565 S
C575 H570 0.950 . S
C575 C577 1.327 . S
C575 C581 1.429 . S
C576 C568 1.574 . S
C576 H571 0.949 . S
C576 C582 1.368 . S
C577 C561 1.349 . S
C577 H569 0.950 . S
C577 C575 1.327 . S
C578 C566 1.349 . S
C578 H572 0.950 . S
C578 C579 1.327 . S
C579 H573 0.950 1_565 S
C579 C578 1.327 . S
C579 C583 1.429 . S
C580 C563 1.574 . S
C580 H574 0.949 1_545 S
C580 C584 1.368 . S
C581 C562 1.429 . S
C581 C575 1.429 . S
C581 C582 1.523 . S
C582 C563 1.368 . S
C582 C576 1.368 . S
C582 C581 1.523 . S
C583 C567 1.429 . S
C583 C579 1.429 . S
C583 C584 1.523 1_565 S
C584 C568 1.368 . S
C584 C580 1.368 . S
C584 C583 1.523 1_545 S
H585 C560 0.950 . S
H586 C562 0.950 . S
H587 C563 0.949 . S
H588 C565 0.950 . S
H589 C567 0.950 . S
C590 C591 1.349 . S
C590 C592 1.327 . S
C590 H615 0.950 . S
C591 C590 1.349 . S
C591 C607 1.349 . S
C592 C590 1.327 . S
C592 C611 1.429 . S
C592 H616 0.950 . S
C593 C610 1.574 . S
C593 C612 1.368 . S
C593 H617 0.949 . S
H594 C598 0.949 . S
C595 C596 1.349 . S
C595 C597 1.327 . S
C595 H618 0.950 . S
C596 C595 1.349 . S
C596 C608 1.349 . S
C597 C595 1.327 . S
C597 C613 1.429 . S
C597 H619 0.950 . S
C598 H594 0.949 . S
C598 C606 1.574 . S
C598 C614 1.368 . S
H599 C607 0.950 . S
H600 C605 0.950 . S
H601 C606 0.949 . S
H602 C608 0.950 . S
H603 C609 0.950 . S
H604 C610 0.949 . S
C605 H600 0.950 . S
C605 C607 1.327 . S
C605 C611 1.429 . S
C606 C598 1.574 . S
C606 H601 0.949 . S
C606 C612 1.368 . S
C607 C591 1.349 . S
C607 H599 0.950 . S
C607 C605 1.327 . S
C608 C596 1.349 . S
C608 H602 0.950 . S
C608 C609 1.327 . S
C609 H603 0.950 . S
C609 C608 1.327 . S
C609 C613 1.429 . S
C610 C593 1.574 . S
C610 H604 0.949 . S
C610 C614 1.368 . S
C611 C592 1.429 . S
C611 C605 1.429 . S
C611 C612 1.523 . S
C612 C593 1.368 . S
C612 C606 1.368 . S
C612 C611 1.523 . S
C613 C597 1.429 . S
C613 C609 1.429 . S
C613 C614 1.523 . S
C614 C598 1.368 . S
C614 C610 1.368 . S
C614 C613 1.523 . S
H615 C590 0.950 . S
H616 C592 0.950 . S
H617 C593 0.949 . S
H618 C595 0.950 . S
H619 C597 0.950 . S
C620 C621 1.349 . S
C620 C622 1.327 . S
C620 H645 0.950 . S
C621 C620 1.349 . S
C621 C637 1.349 . S
C622 C620 1.327 . S
C622 C641 1.429 . S
C622 H646 0.950 . S
C623 C640 1.574 . S
C623 C642 1.368 . S
C623 H647 0.949 . S
H624 C628 0.949 . S
C625 C626 1.349 . S
C625 C627 1.327 . S
C625 H648 0.950 . S
C626 C625 1.349 . S
C626 C638 1.349 . S
C627 C625 1.327 . S
C627 C643 1.429 . S
C627 H649 0.950 . S
C628 H624 0.949 . S
C628 C636 1.574 . S
C628 C644 1.368 . S
H629 C637 0.950 . S
H630 C635 0.950 . S
H631 C636 0.949 . S
H632 C638 0.950 . S
H633 C639 0.950 . S
H634 C640 0.949 . S
C635 H630 0.950 . S
C635 C637 1.327 . S
C635 C641 1.429 . S
C636 C628 1.574 . S
C636 H631 0.949 . S
C636 C642 1.368 . S
C637 C621 1.349 . S
C637 H629 0.950 . S
C637 C635 1.327 . S
C638 C626 1.349 . S
C638 H632 0.950 . S
C638 C639 1.327 . S
C639 H633 0.950 . S
C639 C638 1.327 . S
C639 C643 1.429 . S
C640 C623 1.574 . S
C640 H634 0.949 . S
C640 C644 1.368 . S
C641 C622 1.429 . S
C641 C635 1.429 . S
C641 C642 1.523 . S
C642 C623 1.368 . S
C642 C636 1.368 . S
C642 C641 1.523 . S
C643 C627 1.429 . S
C643 C639 1.429 . S
C643 C644 1.523 . S
C644 C628 1.368 . S
C644 C640 1.368 . S
C644 C643 1.523 . S
H645 C620 0.950 . S
H646 C622 0.950 . S
H647 C623 0.949 . S
H648 C625 0.950 . S
H649 C627 0.950 . S
C650 C651 1.349 . S
C650 C652 1.327 . S
C650 H675 0.950 . S
C651 C650 1.349 . S
C651 C667 1.349 . S
C652 C650 1.327 . S
C652 C671 1.429 . S
C652 H676 0.950 . S
C653 C670 1.574 . S
C653 C672 1.368 . S
C653 H677 0.949 . S
H654 C658 0.949 . S
C655 C656 1.349 . S
C655 C657 1.327 . S
C655 H678 0.950 . S
C656 C655 1.349 . S
C656 C668 1.349 . S
C657 C655 1.327 . S
C657 C673 1.429 . S
C657 H679 0.950 . S
C658 H654 0.949 . S
C658 C666 1.574 . S
C658 C674 1.368 . S
H659 C667 0.950 . S
H660 C665 0.950 . S
H661 C666 0.949 . S
H662 C668 0.950 . S
H663 C669 0.950 1_545 S
H664 C670 0.949 1_565 S
C665 H660 0.950 . S
C665 C667 1.327 . S
C665 C671 1.429 . S
C666 C658 1.574 . S
C666 H661 0.949 . S
C666 C672 1.368 . S
C667 C651 1.349 . S
C667 H659 0.950 . S
C667 C665 1.327 . S
C668 C656 1.349 . S
C668 H662 0.950 . S
C668 C669 1.327 . S
C669 H663 0.950 1_565 S
C669 C668 1.327 . S
C669 C673 1.429 . S
C670 C653 1.574 . S
C670 H664 0.949 1_545 S
C670 C674 1.368 . S
C671 C652 1.429 . S
C671 C665 1.429 . S
C671 C672 1.523 . S
C672 C653 1.368 . S
C672 C666 1.368 . S
C672 C671 1.523 . S
C673 C657 1.429 . S
C673 C669 1.429 . S
C673 C674 1.523 1_565 S
C674 C658 1.368 . S
C674 C670 1.368 . S
C674 C673 1.523 1_545 S
H675 C650 0.950 . S
H676 C652 0.950 . S
H677 C653 0.949 . S
H678 C655 0.950 . S
H679 C657 0.950 . S
C680 C681 1.349 . S
C680 C682 1.327 . S
C680 H705 0.950 . S
C681 C680 1.349 . S
C681 C697 1.349 . S
C682 C680 1.327 . S
C682 C701 1.429 . S
C682 H706 0.950 . S
C683 C700 1.574 . S
C683 C702 1.368 . S
C683 H707 0.949 1_554 S
H684 C688 0.949 . S
C685 C686 1.349 . S
C685 C687 1.327 . S
C685 H708 0.950 . S
C686 C685 1.349 . S
C686 C698 1.349 . S
C687 C685 1.327 . S
C687 C703 1.429 . S
C687 H709 0.950 . S
C688 H684 0.949 . S
C688 C696 1.574 . S
C688 C704 1.368 . S
H689 C697 0.950 . S
H690 C695 0.950 . S
H691 C696 0.949 . S
H692 C698 0.950 . S
H693 C699 0.950 . S
H694 C700 0.949 . S
C695 H690 0.950 . S
C695 C697 1.327 . S
C695 C701 1.429 . S
C696 C688 1.574 . S
C696 H691 0.949 . S
C696 C702 1.368 . S
C697 C681 1.349 . S
C697 H689 0.950 . S
C697 C695 1.327 . S
C698 C686 1.349 . S
C698 H692 0.950 . S
C698 C699 1.327 . S
C699 H693 0.950 . S
C699 C698 1.327 . S
C699 C703 1.429 . S
C700 C683 1.574 . S
C700 H694 0.949 . S
C700 C704 1.368 . S
C701 C682 1.429 . S
C701 C695 1.429 . S
C701 C702 1.523 1_556 S
C702 C683 1.368 . S
C702 C696 1.368 . S
C702 C701 1.523 1_554 S
C703 C687 1.429 . S
C703 C699 1.429 . S
C703 C704 1.523 . S
C704 C688 1.368 . S
C704 C700 1.368 . S
C704 C703 1.523 . S
H705 C680 0.950 . S
H706 C682 0.950 . S
H707 C683 0.949 1_556 S
H708 C685 0.950 . S
H709 C687 0.950 . S
C710 C711 1.349 . S
C710 C712 1.327 . S
C710 H735 0.950 . S
C711 C710 1.349 . S
C711 C727 1.349 . S
C712 C710 1.327 . S
C712 C731 1.429 . S
C712 H736 0.950 . S
C713 C730 1.574 . S
C713 C732 1.368 . S
C713 H737 0.949 . S
H714 C718 0.949 . S
C715 C716 1.349 . S
C715 C717 1.327 . S
C715 H738 0.950 . S
C716 C715 1.349 . S
C716 C728 1.349 . S
C717 C715 1.327 . S
C717 C733 1.429 . S
C717 H739 0.950 . S
C718 H714 0.949 . S
C718 C726 1.574 . S
C718 C734 1.368 . S
H719 C727 0.950 . S
H720 C725 0.950 . S
H721 C726 0.949 . S
H722 C728 0.950 . S
H723 C729 0.950 . S
H724 C730 0.949 . S
C725 H720 0.950 . S
C725 C727 1.327 . S
C725 C731 1.429 . S
C726 C718 1.574 . S
C726 H721 0.949 . S
C726 C732 1.368 . S
C727 C711 1.349 . S
C727 H719 0.950 . S
C727 C725 1.327 . S
C728 C716 1.349 . S
C728 H722 0.950 . S
C728 C729 1.327 . S
C729 H723 0.950 . S
C729 C728 1.327 . S
C729 C733 1.429 . S
C730 C713 1.574 . S
C730 H724 0.949 . S
C730 C734 1.368 . S
C731 C712 1.429 . S
C731 C725 1.429 . S
C731 C732 1.523 . S
C732 C713 1.368 . S
C732 C726 1.368 . S
C732 C731 1.523 . S
C733 C717 1.429 . S
C733 C729 1.429 . S
C733 C734 1.523 . S
C734 C718 1.368 . S
C734 C730 1.368 . S
C734 C733 1.523 . S
H735 C710 0.950 . S
H736 C712 0.950 . S
H737 C713 0.949 . S
H738 C715 0.950 . S
H739 C717 0.950 . S
C740 C741 1.349 . S
C740 C742 1.327 . S
C740 H765 0.950 . S
C741 C740 1.349 . S
C741 C757 1.349 . S
C742 C740 1.327 . S
C742 C761 1.429 . S
C742 H766 0.950 . S
C743 C760 1.574 . S
C743 C762 1.368 . S
C743 H767 0.949 1_556 S
H744 C748 0.949 . S
C745 C746 1.349 . S
C745 C747 1.327 . S
C745 H768 0.950 . S
C746 C745 1.349 . S
C746 C758 1.349 . S
C747 C745 1.327 . S
C747 C763 1.429 . S
C747 H769 0.950 . S
C748 H744 0.949 . S
C748 C756 1.574 . S
C748 C764 1.368 . S
H749 C757 0.950 . S
H750 C755 0.950 . S
H751 C756 0.949 . S
H752 C758 0.950 . S
H753 C759 0.950 . S
H754 C760 0.949 . S
C755 H750 0.950 . S
C755 C757 1.327 . S
C755 C761 1.429 . S
C756 C748 1.574 . S
C756 H751 0.949 . S
C756 C762 1.368 . S
C757 C741 1.349 . S
C757 H749 0.950 . S
C757 C755 1.327 . S
C758 C746 1.349 . S
C758 H752 0.950 . S
C758 C759 1.327 . S
C759 H753 0.950 . S
C759 C758 1.327 . S
C759 C763 1.429 . S
C760 C743 1.574 . S
C760 H754 0.949 . S
C760 C764 1.368 . S
C761 C742 1.429 . S
C761 C755 1.429 . S
C761 C762 1.523 1_554 S
C762 C743 1.368 . S
C762 C756 1.368 . S
C762 C761 1.523 1_556 S
C763 C747 1.429 . S
C763 C759 1.429 . S
C763 C764 1.523 . S
C764 C748 1.368 . S
C764 C760 1.368 . S
C764 C763 1.523 . S
H765 C740 0.950 . S
H766 C742 0.950 . S
H767 C743 0.949 1_554 S
H768 C745 0.950 . S
H769 C747 0.950 . S
C770 C771 1.349 . S
C770 C772 1.327 . S
C770 H795 0.950 . S
C771 C770 1.349 . S
C771 C787 1.349 . S
C772 C770 1.327 . S
C772 C791 1.429 . S
C772 H796 0.950 . S
C773 C790 1.574 . S
C773 C792 1.368 . S
C773 H797 0.949 . S
H774 C778 0.949 . S
C775 C776 1.349 . S
C775 C777 1.327 . S
C775 H798 0.950 . S
C776 C775 1.349 . S
C776 C788 1.349 . S
C777 C775 1.327 . S
C777 C793 1.429 . S
C777 H799 0.950 . S
C778 H774 0.949 . S
C778 C786 1.574 . S
C778 C794 1.368 . S
H779 C787 0.950 . S
H780 C785 0.950 . S
H781 C786 0.949 . S
H782 C788 0.950 . S
H783 C789 0.950 . S
H784 C790 0.949 . S
C785 H780 0.950 . S
C785 C787 1.327 . S
C785 C791 1.429 . S
C786 C778 1.574 . S
C786 H781 0.949 . S
C786 C792 1.368 . S
C787 C771 1.349 . S
C787 H779 0.950 . S
C787 C785 1.327 . S
C788 C776 1.349 . S
C788 H782 0.950 . S
C788 C789 1.327 . S
C789 H783 0.950 . S
C789 C788 1.327 . S
C789 C793 1.429 . S
C790 C773 1.574 . S
C790 H784 0.949 . S
C790 C794 1.368 . S
C791 C772 1.429 . S
C791 C785 1.429 . S
C791 C792 1.523 . S
C792 C773 1.368 . S
C792 C786 1.368 . S
C792 C791 1.523 . S
C793 C777 1.429 . S
C793 C789 1.429 . S
C793 C794 1.523 . S
C794 C778 1.368 . S
C794 C790 1.368 . S
C794 C793 1.523 . S
H795 C770 0.950 . S
H796 C772 0.950 . S
H797 C773 0.949 . S
H798 C775 0.950 . S
H799 C777 0.950 . S
C800 C801 1.349 . S
C800 C802 1.327 . S
C800 H825 0.950 . S
C801 C800 1.349 . S
C801 C817 1.349 . S
C802 C800 1.327 . S
C802 C821 1.429 . S
C802 H826 0.950 . S
C803 C820 1.574 . S
C803 C822 1.368 . S
C803 H827 0.949 1_556 S
H804 C808 0.949 . S
C805 C806 1.349 . S
C805 C807 1.327 . S
C805 H828 0.950 . S
C806 C805 1.349 . S
C806 C818 1.349 . S
C807 C805 1.327 . S
C807 C823 1.429 . S
C807 H829 0.950 . S
C808 H804 0.949 . S
C808 C816 1.574 . S
C808 C824 1.368 . S
H809 C817 0.950 . S
H810 C815 0.950 . S
H811 C816 0.949 . S
H812 C818 0.950 . S
H813 C819 0.950 . S
H814 C820 0.949 . S
C815 H810 0.950 . S
C815 C817 1.327 . S
C815 C821 1.429 . S
C816 C808 1.574 . S
C816 H811 0.949 . S
C816 C822 1.368 . S
C817 C801 1.349 . S
C817 H809 0.950 . S
C817 C815 1.327 . S
C818 C806 1.349 . S
C818 H812 0.950 . S
C818 C819 1.327 . S
C819 H813 0.950 . S
C819 C818 1.327 . S
C819 C823 1.429 . S
C820 C803 1.574 . S
C820 H814 0.949 . S
C820 C824 1.368 . S
C821 C802 1.429 . S
C821 C815 1.429 . S
C821 C822 1.523 1_554 S
C822 C803 1.368 . S
C822 C816 1.368 . S
C822 C821 1.523 1_556 S
C823 C807 1.429 . S
C823 C819 1.429 . S
C823 C824 1.523 . S
C824 C808 1.368 . S
C824 C820 1.368 . S
C824 C823 1.523 . S
H825 C800 0.950 . S
H826 C802 0.950 . S
H827 C803 0.949 1_554 S
H828 C805 0.950 . S
H829 C807 0.950 . S
C830 C831 1.349 . S
C830 C832 1.327 . S
C830 H855 0.950 . S
C831 C830 1.349 . S
C831 C847 1.349 . S
C832 C830 1.327 . S
C832 C851 1.429 . S
C832 H856 0.950 . S
C833 C850 1.574 . S
C833 C852 1.368 . S
C833 H857 0.949 . S
H834 C838 0.949 . S
C835 C836 1.349 . S
C835 C837 1.327 . S
C835 H858 0.950 . S
C836 C835 1.349 . S
C836 C848 1.349 . S
C837 C835 1.327 . S
C837 C853 1.429 . S
C837 H859 0.950 . S
C838 H834 0.949 . S
C838 C846 1.574 . S
C838 C854 1.368 . S
H839 C847 0.950 . S
H840 C845 0.950 . S
H841 C846 0.949 . S
H842 C848 0.950 . S
H843 C849 0.950 . S
H844 C850 0.949 . S
C845 H840 0.950 . S
C845 C847 1.327 . S
C845 C851 1.429 . S
C846 C838 1.574 . S
C846 H841 0.949 . S
C846 C852 1.368 . S
C847 C831 1.349 . S
C847 H839 0.950 . S
C847 C845 1.327 . S
C848 C836 1.349 . S
C848 H842 0.950 . S
C848 C849 1.327 . S
C849 H843 0.950 . S
C849 C848 1.327 . S
C849 C853 1.429 . S
C850 C833 1.574 . S
C850 H844 0.949 . S
C850 C854 1.368 . S
C851 C832 1.429 . S
C851 C845 1.429 . S
C851 C852 1.523 . S
C852 C833 1.368 . S
C852 C846 1.368 . S
C852 C851 1.523 . S
C853 C837 1.429 . S
C853 C849 1.429 . S
C853 C854 1.523 . S
C854 C838 1.368 . S
C854 C850 1.368 . S
C854 C853 1.523 . S
H855 C830 0.950 . S
H856 C832 0.950 . S
H857 C833 0.949 . S
H858 C835 0.950 . S
H859 C837 0.950 . S
C860 C861 1.349 . S
C860 C862 1.327 . S
C860 H885 0.950 . S
C861 C860 1.349 . S
C861 C877 1.349 . S
C862 C860 1.327 . S
C862 C881 1.429 . S
C862 H886 0.950 . S
C863 C880 1.574 . S
C863 C882 1.368 . S
C863 H887 0.949 . S
H864 C868 0.949 . S
C865 C866 1.349 . S
C865 C867 1.327 . S
C865 H888 0.950 . S
C866 C865 1.349 . S
C866 C878 1.349 . S
C867 C865 1.327 . S
C867 C883 1.429 . S
C867 H889 0.950 . S
C868 H864 0.949 . S
C868 C876 1.574 . S
C868 C884 1.368 . S
H869 C877 0.950 . S
H870 C875 0.950 . S
H871 C876 0.949 1_556 S
H872 C878 0.950 . S
H873 C879 0.950 . S
H874 C880 0.949 . S
C875 H870 0.950 . S
C875 C877 1.327 . S
C875 C881 1.429 . S
C876 C868 1.574 . S
C876 H871 0.949 1_554 S
C876 C882 1.368 . S
C877 C861 1.349 . S
C877 H869 0.950 . S
C877 C875 1.327 . S
C878 C866 1.349 . S
C878 H872 0.950 . S
C878 C879 1.327 . S
C879 H873 0.950 . S
C879 C878 1.327 . S
C879 C883 1.429 . S
C880 C863 1.574 . S
C880 H874 0.949 . S
C880 C884 1.368 . S
C881 C862 1.429 . S
C881 C875 1.429 . S
C881 C882 1.523 1_556 S
C882 C863 1.368 . S
C882 C876 1.368 . S
C882 C881 1.523 1_554 S
C883 C867 1.429 . S
C883 C879 1.429 . S
C883 C884 1.523 . S
C884 C868 1.368 . S
C884 C880 1.368 . S
C884 C883 1.523 . S
H885 C860 0.950 . S
H886 C862 0.950 . S
H887 C863 0.949 . S
H888 C865 0.950 . S
H889 C867 0.950 . S
C890 C891 1.349 . S
C890 C892 1.327 . S
C890 H915 0.950 . S
C891 C890 1.349 . S
C891 C907 1.349 . S
C892 C890 1.327 . S
C892 C911 1.429 . S
C892 H916 0.950 . S
C893 C910 1.574 . S
C893 C912 1.368 . S
C893 H917 0.949 . S
H894 C898 0.949 . S
C895 C896 1.349 . S
C895 C897 1.327 . S
C895 H918 0.950 . S
C896 C895 1.349 . S
C896 C908 1.349 . S
C897 C895 1.327 . S
C897 C913 1.429 . S
C897 H919 0.950 . S
C898 H894 0.949 . S
C898 C906 1.574 . S
C898 C914 1.368 . S
H899 C907 0.950 . S
H900 C905 0.950 . S
H901 C906 0.949 . S
H902 C908 0.950 . S
H903 C909 0.950 . S
H904 C910 0.949 . S
C905 H900 0.950 . S
C905 C907 1.327 . S
C905 C911 1.429 . S
C906 C898 1.574 . S
C906 H901 0.949 . S
C906 C912 1.368 . S
C907 C891 1.349 . S
C907 H899 0.950 . S
C907 C905 1.327 . S
C908 C896 1.349 . S
C908 H902 0.950 . S
C908 C909 1.327 . S
C909 H903 0.950 . S
C909 C908 1.327 . S
C909 C913 1.429 . S
C910 C893 1.574 . S
C910 H904 0.949 . S
C910 C914 1.368 . S
C911 C892 1.429 . S
C911 C905 1.429 . S
C911 C912 1.523 . S
C912 C893 1.368 . S
C912 C906 1.368 . S
C912 C911 1.523 . S
C913 C897 1.429 . S
C913 C909 1.429 . S
C913 C914 1.523 . S
C914 C898 1.368 . S
C914 C910 1.368 . S
C914 C913 1.523 . S
H915 C890 0.950 . S
H916 C892 0.950 . S
H917 C893 0.949 . S
H918 C895 0.950 . S
H919 C897 0.950 . S
C920 C921 1.349 . S
C920 C922 1.327 . S
C920 H945 0.950 . S
C921 C920 1.349 . S
C921 C937 1.349 . S
C922 C920 1.327 . S
C922 C941 1.429 . S
C922 H946 0.950 . S
C923 C940 1.574 . S
C923 C942 1.368 . S
C923 H947 0.949 . S
H924 C928 0.949 . S
C925 C926 1.349 . S
C925 C927 1.327 . S
C925 H948 0.950 . S
C926 C925 1.349 . S
C926 C938 1.349 . S
C927 C925 1.327 . S
C927 C943 1.429 . S
C927 H949 0.950 . S
C928 H924 0.949 . S
C928 C936 1.574 . S
C928 C944 1.368 . S
H929 C937 0.950 . S
H930 C935 0.950 . S
H931 C936 0.949 . S
H932 C938 0.950 . S
H933 C939 0.950 . S
H934 C940 0.949 . S
C935 H930 0.950 . S
C935 C937 1.327 . S
C935 C941 1.429 . S
C936 C928 1.574 . S
C936 H931 0.949 . S
C936 C942 1.368 . S
C937 C921 1.349 . S
C937 H929 0.950 . S
C937 C935 1.327 . S
C938 C926 1.349 . S
C938 H932 0.950 . S
C938 C939 1.327 . S
C939 H933 0.950 . S
C939 C938 1.327 . S
C939 C943 1.429 . S
C940 C923 1.574 . S
C940 H934 0.949 . S
C940 C944 1.368 . S
C941 C922 1.429 . S
C941 C935 1.429 . S
C941 C942 1.523 . S
C942 C923 1.368 . S
C942 C936 1.368 . S
C942 C941 1.523 . S
C943 C927 1.429 . S
C943 C939 1.429 . S
C943 C944 1.523 . S
C944 C928 1.368 . S
C944 C940 1.368 . S
C944 C943 1.523 . S
H945 C920 0.950 . S
H946 C922 0.950 . S
H947 C923 0.949 . S
H948 C925 0.950 . S
H949 C927 0.950 . S
C950 C951 1.349 . S
C950 C952 1.327 . S
C950 H975 0.950 . S
C951 C950 1.349 . S
C951 C967 1.349 . S
C952 C950 1.327 . S
C952 C971 1.429 . S
C952 H976 0.950 . S
C953 C970 1.574 . S
C953 C972 1.368 . S
C953 H977 0.949 . S
H954 C958 0.949 . S
C955 C956 1.349 . S
C955 C957 1.327 . S
C955 H978 0.950 . S
C956 C955 1.349 . S
C956 C968 1.349 . S
C957 C955 1.327 . S
C957 C973 1.429 . S
C957 H979 0.950 . S
C958 H954 0.949 . S
C958 C966 1.574 . S
C958 C974 1.368 . S
H959 C967 0.950 . S
H960 C965 0.950 . S
H961 C966 0.949 . S
H962 C968 0.950 . S
H963 C969 0.950 . S
H964 C970 0.949 . S
C965 H960 0.950 . S
C965 C967 1.327 . S
C965 C971 1.429 . S
C966 C958 1.574 . S
C966 H961 0.949 . S
C966 C972 1.368 . S
C967 C951 1.349 . S
C967 H959 0.950 . S
C967 C965 1.327 . S
C968 C956 1.349 . S
C968 H962 0.950 . S
C968 C969 1.327 . S
C969 H963 0.950 . S
C969 C968 1.327 . S
C969 C973 1.429 . S
C970 C953 1.574 . S
C970 H964 0.949 . S
C970 C974 1.368 . S
C971 C952 1.429 . S
C971 C965 1.429 . S
C971 C972 1.523 . S
C972 C953 1.368 . S
C972 C966 1.368 . S
C972 C971 1.523 . S
C973 C957 1.429 . S
C973 C969 1.429 . S
C973 C974 1.523 . S
C974 C958 1.368 . S
C974 C970 1.368 . S
C974 C973 1.523 . S
H975 C950 0.950 . S
H976 C952 0.950 . S
H977 C953 0.949 . S
H978 C955 0.950 . S
H979 C957 0.950 . S
C980 C981 1.349 . S
C980 C982 1.327 . S
C980 H1005 0.950 . S
C981 C980 1.349 . S
C981 C997 1.349 . S
C982 C980 1.327 . S
C982 C1001 1.429 . S
C982 H1006 0.950 . S
C983 C1000 1.574 . S
C983 C1002 1.368 . S
C983 H1007 0.949 . S
H984 C988 0.949 . S
C985 C986 1.349 . S
C985 C987 1.327 . S
C985 H1008 0.950 . S
C986 C985 1.349 . S
C986 C998 1.349 . S
C987 C985 1.327 . S
C987 C1003 1.429 . S
C987 H1009 0.950 . S
C988 H984 0.949 . S
C988 C996 1.574 . S
C988 C1004 1.368 . S
H989 C997 0.950 . S
H990 C995 0.950 . S
H991 C996 0.949 . S
H992 C998 0.950 . S
H993 C999 0.950 . S
H994 C1000 0.949 . S
C995 H990 0.950 . S
C995 C997 1.327 . S
C995 C1001 1.429 . S
C996 C988 1.574 . S
C996 H991 0.949 . S
C996 C1002 1.368 . S
C997 C981 1.349 . S
C997 H989 0.950 . S
C997 C995 1.327 . S
C998 C986 1.349 . S
C998 H992 0.950 . S
C998 C999 1.327 . S
C999 H993 0.950 . S
C999 C998 1.327 . S
C999 C1003 1.429 . S
C1000 C983 1.574 . S
C1000 H994 0.949 . S
C1000 C1004 1.368 . S
C1001 C982 1.429 . S
C1001 C995 1.429 . S
C1001 C1002 1.523 . S
C1002 C983 1.368 . S
C1002 C996 1.368 . S
C1002 C1001 1.523 . S
C1003 C987 1.429 . S
C1003 C999 1.429 . S
C1003 C1004 1.523 . S
C1004 C988 1.368 . S
C1004 C1000 1.368 . S
C1004 C1003 1.523 . S
H1005 C980 0.950 . S
H1006 C982 0.950 . S
H1007 C983 0.949 . S
H1008 C985 0.950 . S
H1009 C987 0.950 . S
C1010 C1011 1.349 . S
C1010 C1012 1.327 . S
C1010 H1035 0.950 . S
C1011 C1010 1.349 . S
C1011 C1027 1.349 . S
C1012 C1010 1.327 . S
C1012 C1031 1.429 . S
C1012 H1036 0.950 . S
C1013 C1030 1.574 . S
C1013 C1032 1.368 . S
C1013 H1037 0.949 . S
H1014 C1018 0.949 . S
C1015 C1016 1.349 . S
C1015 C1017 1.327 . S
C1015 H1038 0.950 . S
C1016 C1015 1.349 . S
C1016 C1028 1.349 . S
C1017 C1015 1.327 . S
C1017 C1033 1.429 . S
C1017 H1039 0.950 . S
C1018 H1014 0.949 . S
C1018 C1026 1.574 . S
C1018 C1034 1.368 . S
H1019 C1027 0.950 . S
H1020 C1025 0.950 . S
H1021 C1026 0.949 . S
H1022 C1028 0.950 . S
H1023 C1029 0.950 . S
H1024 C1030 0.949 . S
C1025 H1020 0.950 . S
C1025 C1027 1.327 . S
C1025 C1031 1.429 . S
C1026 C1018 1.574 . S
C1026 H1021 0.949 . S
C1026 C1032 1.368 . S
C1027 C1011 1.349 . S
C1027 H1019 0.950 . S
C1027 C1025 1.327 . S
C1028 C1016 1.349 . S
C1028 H1022 0.950 . S
C1028 C1029 1.327 . S
C1029 H1023 0.950 . S
C1029 C1028 1.327 . S
C1029 C1033 1.429 . S
C1030 C1013 1.574 . S
C1030 H1024 0.949 . S
C1030 C1034 1.368 . S
C1031 C1012 1.429 . S
C1031 C1025 1.429 . S
C1031 C1032 1.523 . S
C1032 C1013 1.368 . S
C1032 C1026 1.368 . S
C1032 C1031 1.523 . S
C1033 C1017 1.429 . S
C1033 C1029 1.429 . S
C1033 C1034 1.523 . S
C1034 C1018 1.368 . S
C1034 C1030 1.368 . S
C1034 C1033 1.523 . S
H1035 C1010 0.950 . S
H1036 C1012 0.950 . S
H1037 C1013 0.949 . S
H1038 C1015 0.950 . S
H1039 C1017 0.950 . S
C1040 C1041 1.349 . S
C1040 C1042 1.327 . S
C1040 H1065 0.950 . S
C1041 C1040 1.349 . S
C1041 C1057 1.349 . S
C1042 C1040 1.327 . S
C1042 C1061 1.429 . S
C1042 H1066 0.950 . S
C1043 C1060 1.574 . S
C1043 C1062 1.368 . S
C1043 H1067 0.949 . S
H1044 C1048 0.949 . S
C1045 C1046 1.349 . S
C1045 C1047 1.327 . S
C1045 H1068 0.950 . S
C1046 C1045 1.349 . S
C1046 C1058 1.349 . S
C1047 C1045 1.327 . S
C1047 C1063 1.429 . S
C1047 H1069 0.950 . S
C1048 H1044 0.949 . S
C1048 C1056 1.574 . S
C1048 C1064 1.368 . S
H1049 C1057 0.950 . S
H1050 C1055 0.950 . S
H1051 C1056 0.949 . S
H1052 C1058 0.950 . S
H1053 C1059 0.950 . S
H1054 C1060 0.949 . S
C1055 H1050 0.950 . S
C1055 C1057 1.327 . S
C1055 C1061 1.429 . S
C1056 C1048 1.574 . S
C1056 H1051 0.949 . S
C1056 C1062 1.368 . S
C1057 C1041 1.349 . S
C1057 H1049 0.950 . S
C1057 C1055 1.327 . S
C1058 C1046 1.349 . S
C1058 H1052 0.950 . S
C1058 C1059 1.327 . S
C1059 H1053 0.950 . S
C1059 C1058 1.327 . S
C1059 C1063 1.429 . S
C1060 C1043 1.574 . S
C1060 H1054 0.949 . S
C1060 C1064 1.368 . S
C1061 C1042 1.429 . S
C1061 C1055 1.429 . S
C1061 C1062 1.523 . S
C1062 C1043 1.368 . S
C1062 C1056 1.368 . S
C1062 C1061 1.523 . S
C1063 C1047 1.429 . S
C1063 C1059 1.429 . S
C1063 C1064 1.523 . S
C1064 C1048 1.368 . S
C1064 C1060 1.368 . S
C1064 C1063 1.523 . S
H1065 C1040 0.950 . S
H1066 C1042 0.950 . S
H1067 C1043 0.949 . S
H1068 C1045 0.950 . S
H1069 C1047 0.950 . S
C1070 C1071 1.349 . S
C1070 C1072 1.327 . S
C1070 H1095 0.950 . S
C1071 C1070 1.349 . S
C1071 C1087 1.349 . S
C1072 C1070 1.327 . S
C1072 C1091 1.429 . S
C1072 H1096 0.950 . S
C1073 C1090 1.574 . S
C1073 C1092 1.368 . S
C1073 H1097 0.949 . S
H1074 C1078 0.949 . S
C1075 C1076 1.349 . S
C1075 C1077 1.327 . S
C1075 H1098 0.950 . S
C1076 C1075 1.349 . S
C1076 C1088 1.349 . S
C1077 C1075 1.327 . S
C1077 C1093 1.429 . S
C1077 H1099 0.950 . S
C1078 H1074 0.949 . S
C1078 C1086 1.574 . S
C1078 C1094 1.368 . S
H1079 C1087 0.950 . S
H1080 C1085 0.950 . S
H1081 C1086 0.949 . S
H1082 C1088 0.950 . S
H1083 C1089 0.950 . S
H1084 C1090 0.949 . S
C1085 H1080 0.950 . S
C1085 C1087 1.327 . S
C1085 C1091 1.429 . S
C1086 C1078 1.574 . S
C1086 H1081 0.949 . S
C1086 C1092 1.368 . S
C1087 C1071 1.349 . S
C1087 H1079 0.950 . S
C1087 C1085 1.327 . S
C1088 C1076 1.349 . S
C1088 H1082 0.950 . S
C1088 C1089 1.327 . S
C1089 H1083 0.950 . S
C1089 C1088 1.327 . S
C1089 C1093 1.429 . S
C1090 C1073 1.574 . S
C1090 H1084 0.949 . S
C1090 C1094 1.368 . S
C1091 C1072 1.429 . S
C1091 C1085 1.429 . S
C1091 C1092 1.523 . S
C1092 C1073 1.368 . S
C1092 C1086 1.368 . S
C1092 C1091 1.523 . S
C1093 C1077 1.429 . S
C1093 C1089 1.429 . S
C1093 C1094 1.523 . S
C1094 C1078 1.368 . S
C1094 C1090 1.368 . S
C1094 C1093 1.523 . S
H1095 C1070 0.950 . S
H1096 C1072 0.950 . S
H1097 C1073 0.949 . S
H1098 C1075 0.950 . S
H1099 C1077 0.950 . S
C1100 C1101 1.349 . S
C1100 C1102 1.327 . S
C1100 H1125 0.950 . S
C1101 C1100 1.349 . S
C1101 C1117 1.349 . S
C1102 C1100 1.327 . S
C1102 C1121 1.429 . S
C1102 H1126 0.950 . S
C1103 C1120 1.574 . S
C1103 C1122 1.368 . S
C1103 H1127 0.949 . S
H1104 C1108 0.949 . S
C1105 C1106 1.349 . S
C1105 C1107 1.327 . S
C1105 H1128 0.950 . S
C1106 C1105 1.349 . S
C1106 C1118 1.349 . S
C1107 C1105 1.327 . S
C1107 C1123 1.429 . S
C1107 H1129 0.950 . S
C1108 H1104 0.949 . S
C1108 C1116 1.574 . S
C1108 C1124 1.368 . S
H1109 C1117 0.950 . S
H1110 C1115 0.950 . S
H1111 C1116 0.949 . S
H1112 C1118 0.950 . S
H1113 C1119 0.950 . S
H1114 C1120 0.949 . S
C1115 H1110 0.950 . S
C1115 C1117 1.327 . S
C1115 C1121 1.429 . S
C1116 C1108 1.574 . S
C1116 H1111 0.949 . S
C1116 C1122 1.368 . S
C1117 C1101 1.349 . S
C1117 H1109 0.950 . S
C1117 C1115 1.327 . S
C1118 C1106 1.349 . S
C1118 H1112 0.950 . S
C1118 C1119 1.327 . S
C1119 H1113 0.950 . S
C1119 C1118 1.327 . S
C1119 C1123 1.429 . S
C1120 C1103 1.574 . S
C1120 H1114 0.949 . S
C1120 C1124 1.368 . S
C1121 C1102 1.429 . S
C1121 C1115 1.429 . S
C1121 C1122 1.523 . S
C1122 C1103 1.368 . S
C1122 C1116 1.368 . S
C1122 C1121 1.523 . S
C1123 C1107 1.429 . S
C1123 C1119 1.429 . S
C1123 C1124 1.523 . S
C1124 C1108 1.368 . S
C1124 C1120 1.368 . S
C1124 C1123 1.523 . S
H1125 C1100 0.950 . S
H1126 C1102 0.950 . S
H1127 C1103 0.949 . S
H1128 C1105 0.950 . S
H1129 C1107 0.950 . S
C1130 C1131 1.349 . S
C1130 C1132 1.327 . S
C1130 H1155 0.950 . S
C1131 C1130 1.349 . S
C1131 C1147 1.349 . S
C1132 C1130 1.327 . S
C1132 C1151 1.429 . S
C1132 H1156 0.950 . S
C1133 C1150 1.574 . S
C1133 C1152 1.368 . S
C1133 H1157 0.949 . S
H1134 C1138 0.949 . S
C1135 C1136 1.349 . S
C1135 C1137 1.327 . S
C1135 H1158 0.950 . S
C1136 C1135 1.349 . S
C1136 C1148 1.349 . S
C1137 C1135 1.327 . S
C1137 C1153 1.429 . S
C1137 H1159 0.950 . S
C1138 H1134 0.949 . S
C1138 C1146 1.574 . S
C1138 C1154 1.368 . S
H1139 C1147 0.950 . S
H1140 C1145 0.950 . S
H1141 C1146 0.949 . S
H1142 C1148 0.950 . S
H1143 C1149 0.950 . S
H1144 C1150 0.949 . S
C1145 H1140 0.950 . S
C1145 C1147 1.327 . S
C1145 C1151 1.429 . S
C1146 C1138 1.574 . S
C1146 H1141 0.949 . S
C1146 C1152 1.368 . S
C1147 C1131 1.349 . S
C1147 H1139 0.950 . S
C1147 C1145 1.327 . S
C1148 C1136 1.349 . S
C1148 H1142 0.950 . S
C1148 C1149 1.327 . S
C1149 H1143 0.950 . S
C1149 C1148 1.327 . S
C1149 C1153 1.429 . S
C1150 C1133 1.574 . S
C1150 H1144 0.949 . S
C1150 C1154 1.368 . S
C1151 C1132 1.429 . S
C1151 C1145 1.429 . S
C1151 C1152 1.523 . S
C1152 C1133 1.368 . S
C1152 C1146 1.368 . S
C1152 C1151 1.523 . S
C1153 C1137 1.429 . S
C1153 C1149 1.429 . S
C1153 C1154 1.523 . S
C1154 C1138 1.368 . S
C1154 C1150 1.368 . S
C1154 C1153 1.523 . S
H1155 C1130 0.950 . S
H1156 C1132 0.950 . S
H1157 C1133 0.949 . S
H1158 C1135 0.950 . S
H1159 C1137 0.950 . S
C441 N83 1.659 . S
C446 C160 1.655 . S
C476 C244 1.655 . S
C471 N96 1.659 . S
C506 C243 1.669 . S
C501 N57 1.646 . S
C531 N70 1.646 . S
C536 C159 1.669 . S
C566 C340 1.655 . S
C561 N31 1.660 . S
C596 C424 1.655 . S
C591 N44 1.660 . S
C621 N5 1.648 . S
C626 C423 1.669 . S
C651 N18 1.648 . S
C656 C339 1.669 . S
C686 C162 1.465 . S
C681 N14 1.628 . S
C716 C246 1.465 . S
C711 N1 1.628 . S
C746 C258 1.418 . S
C741 N40 1.636 . S
C776 C174 1.418 . S
C771 N27 1.636 . S
C806 C342 1.465 . S
C801 N66 1.620 . S
C831 N53 1.620 . S
C836 C426 1.465 . S
C866 C414 1.418 . S
C861 N92 1.628 . S
C891 N79 1.628 . S
C896 C330 1.418 . S
C926 C171 1.569 . S
C921 N2 1.570 . S
C956 C255 1.569 . S
C951 N15 1.570 . S
C981 N28 1.565 . S
C986 C256 1.538 . S
C1016 C172 1.538 . S
C1011 N41 1.565 . S
C1046 C327 1.569 . S
C1041 N54 1.565 . S
C1071 N67 1.565 . S
C1076 C411 1.569 . S
C1101 N80 1.561 . S
C1106 C412 1.538 . S
C1131 N93 1.561 . S
C1136 C328 1.538 . S
