# Generated by pormake.
# Topology anh, (6,3)-cn, num edge types: 1
# Building blocks:
#     Node 0, Type 0, BuildingBlock: VOLQOD_clean_sbu_1, # of connection points: 6
#     Node 1, Type 0, BuildingBlock: VOLQOD_clean_sbu_1, # of connection points: 6
#     Node 2, Type 0, BuildingBlock: VOLQOD_clean_sbu_1, # of connection points: 6
#     Node 3, Type 1, BuildingBlock: BELTOD_clean_linker_0, # of connection points: 3
#     Node 4, Type 1, BuildingBlock: BELTOD_clean_linker_0, # of connection points: 3
#     Node 5, Type 1, BuildingBlock: BELTOD_clean_linker_0, # of connection points: 3
#     Node 6, Type 1, BuildingBlock: BELTOD_clean_linker_0, # of connection points: 3
#     Node 7, Type 1, BuildingBlock: BELTOD_clean_linker_0, # of connection points: 3
#     Node 8, Type 1, BuildingBlock: BELTOD_clean_linker_0, # of connection points: 3
#     Edge 9, Type (0, 1), BuildingBlock: CIFDUS_clean_linker_0, # of connection points: 2
#     Edge 10, Type (0, 1), BuildingBlock: CIFDUS_clean_linker_0, # of connection points: 2
#     Edge 11, Type (0, 1), BuildingBlock: CIFDUS_clean_linker_0, # of connection points: 2
#     Edge 12, Type (0, 1), BuildingBlock: CIFDUS_clean_linker_0, # of connection points: 2
#     Edge 13, Type (0, 1), BuildingBlock: CIFDUS_clean_linker_0, # of connection points: 2
#     Edge 14, Type (0, 1), BuildingBlock: CIFDUS_clean_linker_0, # of connection points: 2
#     Edge 15, Type (0, 1), BuildingBlock: CIFDUS_clean_linker_0, # of connection points: 2
#     Edge 16, Type (0, 1), BuildingBlock: CIFDUS_clean_linker_0, # of connection points: 2
#     Edge 17, Type (0, 1), BuildingBlock: CIFDUS_clean_linker_0, # of connection points: 2
#     Edge 18, Type (0, 1), BuildingBlock: CIFDUS_clean_linker_0, # of connection points: 2
#     Edge 19, Type (0, 1), BuildingBlock: CIFDUS_clean_linker_0, # of connection points: 2
#     Edge 20, Type (0, 1), BuildingBlock: CIFDUS_clean_linker_0, # of connection points: 2
#     Edge 21, Type (0, 1), BuildingBlock: CIFDUS_clean_linker_0, # of connection points: 2
#     Edge 22, Type (0, 1), BuildingBlock: CIFDUS_clean_linker_0, # of connection points: 2
#     Edge 23, Type (0, 1), BuildingBlock: CIFDUS_clean_linker_0, # of connection points: 2
#     Edge 24, Type (0, 1), BuildingBlock: CIFDUS_clean_linker_0, # of connection points: 2
#     Edge 25, Type (0, 1), BuildingBlock: CIFDUS_clean_linker_0, # of connection points: 2
#     Edge 26, Type (0, 1), BuildingBlock: CIFDUS_clean_linker_0, # of connection points: 2
# Relax obj value: 0.161
# Max RMSD: 0.227
# Mean RMSD: 0.107
data_MOF--net-anh--node1-VOLQOD_clean_sbu_1--node2-BELTOD_clean_linker_0--edge1-CIFDUS_clean_linker_0
_symmetry_space_group_name_H-M    P1
_symmetry_Int_Tables_number       1
_symmetry_cell_setting            triclinic
loop_
_symmetry_equiv_pos_as_xyz
'x, y, z'
_cell_length_a     29.027973
_cell_length_b     28.958875
_cell_length_c     61.147231
_cell_angle_alpha  89.878554
_cell_angle_beta   89.753745
_cell_angle_gamma 120.35753
loop_
_atom_site_label
_atom_site_type_symbol
_atom_site_fract_x
_atom_site_fract_y
_atom_site_fract_z
_atom_type_partial_charge
O0 O -0.00354 0.57413 0.20566 0.0
Zn1 Zn 0.00253 0.59477 0.17371 0.0
O2 O 0.00582 0.54064 0.15524 0.0
Zn3 Zn 0.9496 0.51278 0.1333 0.0
Zn4 Zn -0.00104 0.48196 0.17333 0.0
Zn5 Zn 0.07338 0.57229 0.14005 0.0
O6 O 0.97765 0.52214 0.10209 0.0
O7 O 0.06485 0.56974 0.1077 0.0
O8 O 0.93832 0.60165 0.16574 0.0
O9 O 0.91055 0.55238 0.13555 0.0
O10 O 0.89385 0.43557 0.13983 0.0
O11 O 0.93097 0.41492 0.16701 0.0
O12 O 0.05934 0.46778 0.16897 0.0
O13 O 0.07079 0.66697 0.17097 0.0
O14 O 0.1134 0.53494 0.14714 0.0
O15 O 0.1189 0.6482 0.14828 0.0
C16 C -0.00504 0.53463 0.21556 0.0
C17 C 0.02539 0.5479 0.09476 0.0
C18 C 0.89287 0.40228 0.15374 0.0
C19 C 0.90758 0.58383 0.14923 0.0
C20 C 0.10297 0.49376 0.15839 0.0
C21 C 0.11375 0.68109 0.16028 0.0
O22 O -0.00372 0.49735 0.20511 0.0
O23 O 0.46809 0.00017 0.45501 0.0
Zn24 Zn 0.4388 -0.00133 0.48532 0.0
O25 O 0.48283 0.99091 0.50753 0.0
Zn26 Zn 0.51759 0.05418 0.52531 0.0
Zn27 Zn 0.53762 0.98063 0.49383 0.0
Zn28 Zn 0.43863 0.93116 0.52672 0.0
O29 O 0.51346 0.03611 0.55729 0.0
O30 O 0.44581 0.95245 0.55834 0.0
O31 O 0.43509 0.06617 0.4903 0.0
O32 O 0.48289 0.09735 0.52074 0.0
O33 O 0.59428 0.10091 0.51633 0.0
O34 O 0.61078 0.04507 0.49773 0.0
O35 O 0.53661 0.91494 0.50534 0.0
O36 O 0.36391 0.93459 0.48649 0.0
O37 O 0.4633 0.8781 0.5259 0.0
O38 O 0.36237 0.8926 0.51718 0.0
C39 C 0.50123 0.98674 0.44814 0.0
C40 C 0.48065 0.99452 0.56804 0.0
C41 C 0.62633 0.09093 0.50596 0.0
C42 C 0.45315 0.09937 0.50604 0.0
C43 C 0.50306 0.87714 0.5176 0.0
C44 C 0.33907 0.89687 0.50036 0.0
O45 O 0.5273 0.97461 0.46137 0.0
O46 O 0.45883 0.46928 0.78445 0.0
Zn47 Zn 0.42998 0.4384 0.81469 0.0
O48 O 0.48221 0.47921 0.83777 0.0
Zn49 Zn 0.45301 0.50777 0.8591 0.0
Zn50 Zn 0.54532 0.53809 0.82452 0.0
Zn51 Zn 0.50282 0.43399 0.85323 0.0
O52 O 0.45854 0.48738 0.89033 0.0
O53 O 0.48886 0.43157 0.88525 0.0
O54 O 0.35999 0.43678 0.82039 0.0
O55 O 0.37604 0.47647 0.85294 0.0
O56 O 0.48686 0.58855 0.85618 0.0
O57 O 0.55353 0.60781 0.83313 0.0
O58 O 0.61183 0.53843 0.83275 0.0
O59 O 0.41565 0.36229 0.81404 0.0
O60 O 0.58137 0.46142 0.8504 0.0
O61 O 0.4635 0.35963 0.84182 0.0
C62 C 0.50439 0.50724 0.77824 0.0
C63 C 0.47263 0.45532 0.89784 0.0
C64 C 0.52763 0.62243 0.84527 0.0
C65 C 0.34473 0.45139 0.83726 0.0
C66 C 0.61989 0.50442 0.84252 0.0
C67 C 0.43114 0.33695 0.82617 0.0
O68 O 0.54061 0.53523 0.79197 0.0
P69 P 0.54061 0.98164 0.24359 0.0
H70 H 0.50372 0.97764 0.19879 0.0
H71 H 0.41579 0.94306 0.18309 0.0
H72 H 0.34509 0.89034 0.24744 0.0
H73 H 0.43342 0.93088 0.26316 0.0
H74 H 0.65585 0.03274 0.24445 0.0
H75 H 0.72694 0.10962 0.22538 0.0
H76 H 0.60897 0.13764 0.19456 0.0
H77 H 0.53975 0.06567 0.2161 0.0
H78 H 0.53164 0.91483 0.2809 0.0
H79 H 0.54268 0.06718 0.26975 0.0
O80 O 0.55538 0.93374 0.23912 0.0
H81 H 0.5205 0.92244 0.31997 0.0
H82 H 0.53262 0.07581 0.30915 0.0
C83 C 0.47552 0.95893 0.23225 0.0
C84 C 0.46938 0.96066 0.20962 0.0
C85 C 0.41867 0.93975 0.2006 0.0
C86 C 0.37263 0.91331 0.21388 0.0
C87 C 0.37915 0.91152 0.23662 0.0
C88 C 0.43004 0.93433 0.24569 0.0
C89 C 0.59233 0.04199 0.23096 0.0
C90 C 0.64561 0.05605 0.23376 0.0
C91 C 0.68622 0.09968 0.22246 0.0
C92 C 0.67423 0.12942 0.20759 0.0
C93 C 0.62057 0.11633 0.2057 0.0
C94 C 0.58031 0.07402 0.21774 0.0
C95 C 0.53909 0.99099 0.27255 0.0
C96 C 0.53282 0.95053 0.28695 0.0
C97 C 0.52649 0.95497 0.30932 0.0
C98 C 0.52603 -8e-05 0.31771 0.0
C99 C 0.5325 0.04056 0.30318 0.0
C100 C 0.53881 0.036 0.28073 0.0
P101 P 0.62648 0.54188 0.57948 0.0
H102 H 0.6147 0.52564 0.5323 0.0
H103 H 0.57133 0.44528 0.5097 0.0
H104 H 0.52601 0.34726 0.56812 0.0
H105 H 0.56817 0.42754 0.59053 0.0
H106 H 0.69568 0.65784 0.57478 0.0
H107 H 0.68055 0.72716 0.55939 0.0
H108 H 0.51921 0.60607 0.54292 0.0
H109 H 0.53413 0.53764 0.55892 0.0
H110 H 0.6776 0.56182 0.6223 0.0
H111 H 0.51817 0.49624 0.59707 0.0
O112 O 0.69159 0.56265 0.57972 0.0
H113 H 0.64259 0.54698 0.65959 0.0
H114 H 0.48275 0.48219 0.63446 0.0
C115 C 0.59341 0.48252 0.56309 0.0
C116 C 0.59461 0.48679 0.54022 0.0
C117 C 0.57001 0.44087 0.52732 0.0
C118 C 0.5445 0.38987 0.53711 0.0
C119 C 0.54389 0.38591 0.56007 0.0
C120 C 0.56836 0.43184 0.57293 0.0
C121 C 0.61627 0.59268 0.56765 0.0
C122 C 0.6572 0.64635 0.56774 0.0
C123 C 0.6486 0.68582 0.55883 0.0
C124 C 0.59875 0.67206 0.54985 0.0
C125 C 0.55787 0.61807 0.5499 0.0
C126 C 0.56645 0.57885 0.55891 0.0
C127 C 0.60042 0.52982 0.60696 0.0
C128 C 0.63502 0.54421 0.62478 0.0
C129 C 0.61495 0.53606 0.64612 0.0
C130 C 0.55986 0.5136 0.65 0.0
C131 C 0.52528 0.49909 0.63202 0.0
C132 C 0.54548 0.50736 0.61067 0.0
P133 P 0.08523 0.64858 0.89359 0.0
H134 H 0.17118 0.6815 0.86143 0.0
H135 H 0.20641 0.63247 0.84192 0.0
H136 H 0.08772 0.48579 0.87339 0.0
H137 H 0.05523 0.53592 0.8938 0.0
H138 H 0.03756 0.71603 0.88917 0.0
H139 H 0.95237 0.69879 0.87397 0.0
H140 H 0.92163 0.54474 0.85105 0.0
H141 H 0.00488 0.56114 0.86675 0.0
H142 H 0.13347 0.61128 0.92574 0.0
H143 H -0.00208 0.63427 0.92275 0.0
O144 O 0.13143 0.71344 0.89443 0.0
H145 H 0.11003 0.57935 0.96338 0.0
H146 H 0.97554 0.60461 0.96056 0.0
C147 C 0.11164 0.61255 0.87945 0.0
C148 C 0.15321 0.63889 0.86427 0.0
C149 C 0.17263 0.61051 0.85281 0.0
C150 C 0.14996 0.555 0.85604 0.0
C151 C 0.10691 0.52858 0.87077 0.0
C152 C 0.08831 0.5572 0.8825 0.0
C153 C 0.02784 0.64008 0.87905 0.0
C154 C 0.01285 0.67902 0.88051 0.0
C155 C 0.96431 0.6692 0.87177 0.0
C156 C 0.93021 0.6202 0.86149 0.0
C157 C 0.94669 0.58249 0.8592 0.0
C158 C -0.00525 0.59211 0.86808 0.0
C159 C 0.06687 0.62408 0.92123 0.0
C160 C 0.0985 0.60921 0.93313 0.0
C161 C 0.08527 0.59139 0.95474 0.0
C162 C 0.04072 0.5892 0.96503 0.0
C163 C 0.00942 0.60466 0.95305 0.0
C164 C 0.02246 0.62204 0.93138 0.0
P165 P 0.02788 0.4687 0.41624 0.0
H166 H 0.10439 0.51735 0.45146 0.0
H167 H 0.15042 0.60733 0.46678 0.0
H168 H 0.06236 0.65306 0.42373 0.0
H169 H 0.01627 0.56255 0.40846 0.0
H170 H 0.96417 0.35278 0.41529 0.0
H171 H 0.88601 0.28752 0.43592 0.0
H172 H 0.88875 0.416 0.47299 0.0
H173 H 0.96488 0.48094 0.45137 0.0
H174 H 0.09261 0.53914 0.38108 0.0
H175 H 0.9313 0.40751 0.38908 0.0
O176 O 0.07202 0.44793 0.41671 0.0
H177 H 0.07636 0.54406 0.34216 0.0
H178 H 0.91533 0.41164 0.35009 0.0
C179 C 0.05829 0.53395 0.42841 0.0
C180 C 0.09483 0.54666 0.4454 0.0
C181 C 0.12064 0.59795 0.45429 0.0
C182 C 0.1101 0.63732 0.44638 0.0
C183 C 0.07168 0.62369 0.42995 0.0
C184 C 0.04553 0.57212 0.42118 0.0
C185 C 0.97028 0.42158 0.43176 0.0
C186 C 0.94773 0.36678 0.42782 0.0
C187 C 0.90334 0.3295 0.43983 0.0
C188 C 0.88116 0.34632 0.45633 0.0
C189 C 0.90425 0.40151 0.46028 0.0
C190 C 0.94817 0.43881 0.44798 0.0
C191 C 0.01322 0.47315 0.38801 0.0
C192 C 0.05359 0.51159 0.3745 0.0
C193 C 0.04423 0.5145 0.35231 0.0
C194 C -0.00544 0.47829 0.34318 0.0
C195 C 0.95405 0.43985 0.35675 0.0
C196 C 0.96322 0.43749 0.37905 0.0
P197 P 0.58899 0.0424 0.76839 0.0
H198 H 0.61585 0.1524 0.76367 0.0
H199 H 0.56436 0.19734 0.76828 0.0
H200 H 0.42855 0.04905 0.79041 0.0
H201 H 0.4797 0.0035 0.78496 0.0
H202 H 0.58654 0.94367 0.75715 0.0
H203 H 0.5662 0.86394 0.77843 0.0
H204 H 0.5268 0.92809 0.83442 0.0
H205 H 0.54887 0.009 0.81323 0.0
H206 H 0.66356 0.07969 0.73121 0.0
H207 H 0.49397 0.9812 0.74209 0.0
O208 O 0.65343 0.08372 0.77379 0.0
H209 H 0.64907 0.07514 0.69179 0.0
H210 H 0.47872 0.97841 0.70279 0.0
C211 C 0.55234 0.07525 0.77487 0.0
C212 C 0.57524 0.12965 0.76978 0.0
C213 C 0.54562 0.15505 0.7721 0.0
C214 C 0.49259 0.12639 0.77959 0.0
C215 C 0.46948 0.07181 0.78466 0.0
C216 C 0.49892 0.0461 0.78188 0.0
C217 C 0.56753 0.98142 0.7834 0.0
C218 C 0.57273 0.94035 0.77388 0.0
C219 C 0.56145 0.89504 0.78606 0.0
C220 C 0.54475 0.89009 0.80796 0.0
C221 C 0.53902 0.93094 0.81747 0.0
C222 C 0.55132 0.97685 0.80535 0.0
C223 C 0.57979 0.03078 0.73949 0.0
C224 C 0.62323 0.05654 0.72509 0.0
C225 C 0.61479 0.05442 0.70255 0.0
C226 C 0.56265 0.02706 0.69409 0.0
C227 C 0.51942 -0.00057 0.70865 0.0
C228 C 0.52801 0.00111 0.73115 0.0
P229 P 0.44222 0.37983 0.10004 0.0
H230 H 0.51462 0.37841 0.13262 0.0
H231 H 0.60889 0.44023 0.14054 0.0
H232 H 0.6148 0.54566 0.0891 0.0
H233 H 0.52105 0.48381 0.08121 0.0
H234 H 0.3272 0.32808 0.10433 0.0
H235 H 0.26901 0.35709 0.12061 0.0
H236 H 0.40722 0.49702 0.14656 0.0
H237 H 0.46503 0.46849 0.12994 0.0
H238 H 0.44513 0.32166 0.06156 0.0
H239 H 0.41579 0.45038 0.07573 0.0
O240 O 0.42707 0.31743 0.106 0.0
H241 H 0.43781 0.33402 0.02246 0.0
H242 H 0.41081 0.46473 0.03675 0.0
C243 C 0.51137 0.42554 0.10585 0.0
C244 C 0.5363 0.41477 0.12304 0.0
C245 C 0.58989 0.4505 0.12774 0.0
C246 C 0.61918 0.49771 0.11537 0.0
C247 C 0.59336 0.50931 0.09872 0.0
C248 C 0.53979 0.47368 0.0941 0.0
C249 C 0.40026 0.39609 0.11586 0.0
C250 C 0.34477 0.36436 0.11395 0.0
C251 C 0.31162 0.38088 0.12334 0.0
C252 C 0.33367 0.42951 0.13475 0.0
C253 C 0.38922 0.45971 0.13762 0.0
C254 C 0.4223 0.44322 0.12818 0.0
C255 C 0.43031 0.38459 0.07151 0.0
C256 C 0.43653 0.3522 0.05625 0.0
C257 C 0.43292 0.35977 0.03388 0.0
C258 C 0.42409 0.4007 0.02639 0.0
C259 C 0.41678 0.43232 0.04187 0.0
C260 C 0.41977 0.42425 0.06421 0.0
H261 H 0.20667 0.55031 0.14621 0.0
H262 H 0.08639 0.39544 0.17064 0.0
H263 H 0.14902 0.36274 0.16716 0.0
H264 H 0.23592 0.37661 0.15454 0.0
H265 H 0.35449 0.53147 0.12942 0.0
H266 H 0.29476 0.56597 0.13621 0.0
C267 C 0.19415 0.50945 0.15089 0.0
C268 C 0.1418 0.47514 0.15838 0.0
C269 C 0.23009 0.49096 0.14877 0.0
C270 C 0.12648 0.4226 0.16474 0.0
C271 C 0.16219 0.40384 0.16269 0.0
C272 C 0.24867 0.41796 0.1507 0.0
C273 C 0.29944 0.45136 0.14145 0.0
C274 C 0.21375 0.4374 0.15431 0.0
C275 C 0.31586 0.50509 0.13681 0.0
C276 C 0.28156 0.52476 0.14049 0.0
H277 H 0.65843 0.19589 0.50178 0.0
H278 H 0.71525 0.08431 0.4977 0.0
H279 H 0.80149 0.15539 0.48387 0.0
H280 H 0.8577 0.24707 0.47027 0.0
H281 H 0.79652 0.35558 0.47066 0.0
H282 H 0.71559 0.28824 0.48909 0.0
C283 C 0.69007 0.1874 0.49827 0.0
C284 C 0.68066 0.13505 0.5008 0.0
C285 C 0.73865 0.22785 0.48953 0.0
C286 C 0.72165 0.12436 0.49586 0.0
C287 C 0.77082 0.1649 0.48789 0.0
C288 C 0.8266 0.25601 0.47423 0.0
C289 C 0.83334 0.30641 0.46888 0.0
C290 C 0.77922 0.21642 0.48412 0.0
C291 C 0.79299 0.31752 0.47474 0.0
C292 C 0.74637 0.27882 0.48515 0.0
H293 H 0.46295 0.66455 0.85104 0.0
H294 H 0.62543 0.70736 0.83637 0.0
H295 H 0.64651 0.79704 0.8257 0.0
H296 H 0.61565 0.8585 0.81546 0.0
H297 H 0.4534 0.81682 0.82897 0.0
H298 H 0.4352 0.73164 0.84535 0.0
C299 C 0.50328 0.69404 0.8461 0.0
C300 C 0.5424 0.6792 0.8442 0.0
C301 C 0.51486 0.74535 0.83941 0.0
C302 C 0.59448 0.7177 0.8377 0.0
C303 C 0.60655 0.76892 0.83151 0.0
C304 C 0.57658 0.83096 0.82231 0.0
C305 C 0.53564 0.84303 0.82081 0.0
C306 C 0.56653 0.78236 0.83144 0.0
C307 C 0.48533 0.80785 0.82994 0.0
C308 C 0.47496 0.75923 0.8392 0.0
H309 H 0.8657 0.59532 0.11201 0.0
H310 H 0.84473 0.58623 0.182 0.0
H311 H 0.75245 0.56573 0.17766 0.0
H312 H 0.67377 0.53275 0.15368 0.0
H313 H 0.69545 0.53805 0.08365 0.0
H314 H 0.79145 0.57838 0.08823 0.0
C315 C 0.84137 0.59062 0.1263 0.0
C316 C 0.86135 0.59139 0.14724 0.0
C317 C 0.78816 0.57709 0.12364 0.0
C318 C 0.83003 0.58587 0.16571 0.0
C319 C 0.77707 0.57338 0.16321 0.0
C320 C 0.69975 0.54365 0.13946 0.0
C321 C 0.67755 0.53162 0.11839 0.0
C322 C 0.75497 0.56597 0.14222 0.0
C323 C 0.71156 0.54688 0.10005 0.0
C324 C 0.76646 0.56965 0.10265 0.0
H325 H 0.28702 0.87583 0.46148 0.0
H326 H 0.26972 0.81692 0.52771 0.0
H327 H 0.19117 0.73291 0.51725 0.0
H328 H 0.13654 0.67145 0.48823 0.0
H329 H 0.15716 0.72848 0.42167 0.0
H330 H 0.22434 0.81815 0.43339 0.0
C331 C 0.26534 0.84519 0.47376 0.0
C332 C 0.28489 0.85232 0.49525 0.0
C333 C 0.22106 0.79628 0.46751 0.0
C334 C 0.25604 0.81222 0.51097 0.0
C335 C 0.21119 0.76402 0.50499 0.0
C336 C 0.1553 0.70375 0.47637 0.0
C337 C 0.14258 0.69322 0.4541 0.0
C338 C 0.19486 0.75479 0.48313 0.0
C339 C 0.16623 0.73558 0.43892 0.0
C340 C 0.20498 0.78678 0.44559 0.0
H341 H 0.42672 0.29989 0.78541 0.0
H342 H 0.41244 0.25506 0.85343 0.0
H343 H 0.41961 0.17695 0.84396 0.0
H344 H 0.44819 0.13303 0.81732 0.0
H345 H 0.47373 0.18507 0.75006 0.0
H346 H 0.44347 0.24833 0.75801 0.0
C347 C 0.42322 0.27185 0.79802 0.0
C348 C 0.4193 0.283 0.82004 0.0
C349 C 0.43056 0.22897 0.79257 0.0
C350 C 0.41564 0.24707 0.83636 0.0
C351 C 0.42014 0.20273 0.83096 0.0
C352 C 0.44546 0.15713 0.80434 0.0
C353 C 0.4633 0.155 0.78323 0.0
C354 C 0.43041 0.19495 0.80927 0.0
C355 C 0.46039 0.18663 0.76647 0.0
C356 C 0.44327 0.22278 0.77103 0.0
H357 H 0.59029 0.86795 0.50882 0.0
H358 H 0.43491 0.78603 0.53991 0.0
H359 H 0.4508 0.71538 0.55223 0.0
H360 H 0.50993 0.67892 0.55572 0.0
H361 H 0.66502 0.75929 0.5246 0.0
H362 H 0.64838 0.82906 0.51107 0.0
C363 C 0.55971 0.83441 0.51812 0.0
C364 C 0.51158 0.8325 0.52348 0.0
C365 C 0.56922 0.79397 0.52537 0.0
C366 C 0.47245 0.78876 0.53561 0.0
C367 C 0.48147 0.74829 0.54271 0.0
C368 C 0.53982 0.71123 0.54569 0.0
C369 C 0.58858 0.71387 0.54115 0.0
C370 C 0.52989 0.75082 0.53789 0.0
C371 C 0.62735 0.75668 0.52854 0.0
C372 C 0.61774 0.79637 0.52069 0.0
H373 H 0.71149 0.59625 0.83194 0.0
H374 H 0.65262 0.43961 0.86063 0.0
H375 H 0.74378 0.46154 0.86828 0.0
H376 H 0.83925 0.5263 0.86853 0.0
H377 H 0.89899 0.68309 0.84014 0.0
H378 H 0.80785 0.66009 0.8309 0.0
C379 C 0.71854 0.5667 0.83972 0.0
C380 C 0.67523 0.51642 0.84577 0.0
C381 C 0.771 0.57971 0.84428 0.0
C382 C 0.68516 0.47867 0.85586 0.0
C383 C 0.73726 0.49117 0.86027 0.0
C384 C 0.83248 0.55516 0.85996 0.0
C385 C 0.87572 0.60619 0.8549 0.0
C386 C 0.78033 0.54171 0.85476 0.0
C387 C 0.86622 0.64365 0.84431 0.0
C388 C 0.81424 0.63045 0.83897 0.0
H389 H 0.13118 0.75313 0.19268 0.0
H390 H 0.20456 0.72796 0.13583 0.0
H391 H 0.29081 0.80245 0.14629 0.0
H392 H 0.34686 0.86279 0.17449 0.0
H393 H 0.27559 0.89306 0.2308 0.0
H394 H 0.18696 0.82757 0.21767 0.0
C395 C 0.16577 0.76486 0.18229 0.0
C396 C 0.16163 0.7341 0.16383 0.0
C397 C 0.2158 0.80759 0.18854 0.0
C398 C 0.20676 0.7502 0.1504 0.0
C399 C 0.25625 0.79276 0.15638 0.0
C400 C 0.31231 0.85704 0.18365 0.0
C401 C 0.31854 0.88231 0.20395 0.0
C402 C 0.26156 0.82005 0.17591 0.0
C403 C 0.27246 0.87297 0.2155 0.0
C404 C 0.22158 0.83576 0.20792 0.0
H405 H 0.51188 0.19117 0.48446 0.0
H406 H 0.38233 0.11166 0.53055 0.0
H407 H 0.3937 0.19789 0.54186 0.0
H408 H 0.45211 0.29541 0.54364 0.0
H409 H 0.58842 0.37409 0.50033 0.0
H410 H 0.56229 0.28925 0.48251 0.0
C411 C 0.48471 0.1929 0.49624 0.0
C412 C 0.44591 0.14572 0.5065 0.0
C413 C 0.49364 0.24263 0.50348 0.0
C414 C 0.41175 0.1478 0.52222 0.0
C415 C 0.41882 0.19706 0.52888 0.0
C416 C 0.47565 0.29403 0.53011 0.0
C417 C 0.52266 0.3408 0.52362 0.0
C418 C 0.46153 0.24475 0.52047 0.0
C419 C 0.55205 0.33874 0.50568 0.0
C420 C 0.53737 0.29011 0.49556 0.0
H421 H 0.30121 0.49025 0.80912 0.0
H422 H 0.27222 0.40191 0.8693 0.0
H423 H 0.20094 0.41962 0.87896 0.0
H424 H 0.16231 0.47623 0.87406 0.0
H425 H 0.1932 0.56873 0.81473 0.0
H426 H 0.24893 0.53401 0.80103 0.0
C427 C 0.27749 0.47297 0.82382 0.0
C428 C 0.29138 0.44478 0.8385 0.0
C429 C 0.23845 0.48573 0.82978 0.0
C430 C 0.26157 0.42341 0.85777 0.0
C431 C 0.22139 0.43413 0.8634 0.0
C432 C 0.17951 0.4875 0.85779 0.0
C433 C 0.17442 0.52601 0.84568 0.0
C434 C 0.2117 0.46775 0.85012 0.0
C435 C 0.19774 0.54037 0.82471 0.0
C436 C 0.22935 0.52026 0.81679 0.0
H437 H 0.88503 0.30677 0.16116 0.0
H438 H 0.79154 0.38372 0.15549 0.0
H439 H 0.71407 0.30479 0.17129 0.0
H440 H 0.67798 0.22001 0.19116 0.0
H441 H 0.76847 0.13855 0.19299 0.0
H442 H 0.84273 0.21422 0.1748 0.0
C443 C 0.84716 0.30548 0.16285 0.0
C444 C 0.84373 0.35069 0.15732 0.0
C445 C 0.80296 0.26009 0.17186 0.0
C446 C 0.79473 0.34896 0.15947 0.0
C447 C 0.75072 0.30417 0.16876 0.0
C448 C 0.71303 0.21756 0.18715 0.0
C449 C 0.71749 0.17361 0.19428 0.0
C450 C 0.75502 0.26025 0.17569 0.0
C451 C 0.76418 0.17251 0.18882 0.0
C452 C 0.80667 0.21555 0.17804 0.0
H453 H 0.95298 0.51396 0.06134 0.0
H454 H 0.12235 0.59913 0.07441 0.0
H455 H 0.14157 0.61786 0.03566 0.0
H456 H 0.11103 0.61455 0.99834 0.0
H457 H 0.94232 0.52808 0.98443 0.0
H458 H 0.92233 0.5062 0.02322 0.0
C459 C -0.00592 0.53624 0.0557 0.0
C460 C 0.03602 0.55528 0.07089 0.0
C461 C 0.00512 0.5472 0.03324 0.0
C462 C 0.0891 0.58408 0.0632 0.0
C463 C 0.10027 0.59495 0.04099 0.0
C464 C 0.06986 0.59005 0.00366 0.0
C465 C 0.02832 0.57315 0.98843 0.0
C466 C 0.05866 0.57727 0.02591 0.0
C467 C 0.97516 0.54237 0.99581 0.0
C468 C 0.96367 0.52954 0.01799 0.0
H469 H 0.46007 0.01734 0.41471 0.0
H470 H 0.56516 0.95568 0.42801 0.0
H471 H 0.5832 0.95615 0.38911 0.0
H472 H 0.56943 0.97374 0.35132 0.0
H473 H 0.46336 0.03363 0.3375 0.0
H474 H 0.44642 0.03523 0.37661 0.0
C475 C 0.48681 0.00387 0.40911 0.0
C476 C 0.51101 0.98636 0.42435 0.0
C477 C 0.49726 0.00433 0.38662 0.0
C478 C 0.54581 0.96932 0.41674 0.0
C479 C 0.55629 0.96961 0.39445 0.0
C480 C 0.5423 0.98681 0.35684 0.0
C481 C 0.51759 0.00335 0.34149 0.0
C482 C 0.53221 0.98695 0.37927 0.0
C483 C 0.48339 0.02122 0.34897 0.0
C484 C 0.47334 0.02174 0.37132 0.0
H485 H 0.45211 0.44235 0.74358 0.0
H486 H 0.58615 0.59717 0.7599 0.0
H487 H 0.61333 0.61353 0.72165 0.0
H488 H 0.60201 0.58264 0.68387 0.0
H489 H 0.47047 0.42692 0.66718 0.0
H490 H 0.43893 0.4126 0.70513 0.0
C491 C 0.48689 0.47988 0.73871 0.0
C492 C 0.51717 0.51828 0.75464 0.0
C493 C 0.50293 0.48888 0.71662 0.0
C494 C 0.5623 0.56666 0.74805 0.0
C495 C 0.57796 0.57614 0.72615 0.0
C496 C 0.56658 0.54542 0.68855 0.0
C497 C 0.53897 0.50575 0.67276 0.0
C498 C 0.54914 0.5372 0.71037 0.0
C499 C 0.49236 0.45827 0.67899 0.0
C500 C 0.47446 0.44993 0.70071 0.0
H501 H 0.55111 0.07529 0.59412 0.0
H502 H 0.42269 0.91071 0.59607 0.0
H503 H 0.43704 0.90616 0.63509 0.0
H504 H 0.48849 0.94754 0.66829 0.0
H505 H 0.61508 0.11289 0.66648 0.0
H506 H 0.5997 0.11785 0.62764 0.0
C507 C 0.52592 0.0385 0.60307 0.0
C508 C 0.486 0.99341 0.59209 0.0
C509 C 0.53457 0.03594 0.62548 0.0
C510 C 0.45374 0.94612 0.60405 0.0
C511 C 0.46203 0.94335 0.62637 0.0
C512 C 0.51238 0.98486 0.65949 0.0
C513 C 0.55322 0.02957 0.67034 0.0
C514 C 0.50273 0.98783 0.6372 0.0
C515 C 0.58418 0.0774 0.65851 0.0
C516 C 0.57507 0.08051 0.63631 0.0
H517 H 0.40826 0.46312 0.92845 0.0
H518 H 0.53222 0.4237 0.9204 0.0
H519 H 0.52815 0.40361 0.95931 0.0
H520 H 0.48998 0.39746 0.99552 0.0
H521 H 0.36196 0.43099 0.00372 0.0
H522 H 0.36757 0.45384 0.96494 0.0
C523 C 0.43453 0.45043 0.93529 0.0
C524 C 0.47056 0.44505 0.92159 0.0
C525 C 0.43128 0.43786 0.95768 0.0
C526 C 0.50397 0.42796 0.93059 0.0
C527 C 0.50172 0.41648 0.95284 0.0
C528 C 0.46258 0.40883 0.98883 0.0
C529 C 0.42554 0.41232 0.0026 0.0
C530 C 0.46536 0.421 0.9665 0.0
C531 C 0.39134 0.42852 0.99361 0.0
C532 C 0.39433 0.44138 0.97139 0.0
H533 H 0.96275 0.44719 0.24136 0.0
H534 H 0.02339 0.61729 0.24402 0.0
H535 H 0.02679 0.61458 0.28392 0.0
H536 H 0.01659 0.56442 0.31794 0.0
H537 H 0.95415 0.39416 0.31514 0.0
H538 H 0.9469 0.39625 0.27538 0.0
C539 C 0.97655 0.48367 0.25067 0.0
C540 C -0.00671 0.53245 0.23973 0.0
C541 C 0.97807 0.48175 0.27356 0.0
C542 C 0.0103 0.57922 0.25204 0.0
C543 C 0.01243 0.57773 0.27485 0.0
C544 C 0.00124 0.52783 0.30857 0.0
C545 C 0.98619 0.47927 0.31936 0.0
C546 C -0.00293 0.52935 0.28575 0.0
C547 C 0.96565 0.43194 0.30716 0.0
C548 C 0.9618 0.43318 0.28444 0.0
loop_
_geom_bond_atom_site_label_1
_geom_bond_atom_site_label_2
_geom_bond_distance
_geom_bond_site_symmetry_2
_ccdc_geom_bond_type
O0 Zn1 1.952 . S
O0 C16 1.233 . S
Zn1 O0 1.952 . S
Zn1 O2 1.949 . S
Zn1 O8 1.919 1_455 S
Zn1 O13 1.924 . S
O2 Zn1 1.949 . S
O2 Zn3 1.923 1_455 S
O2 Zn4 1.950 . S
O2 Zn5 1.945 . S
Zn3 O2 1.923 1_655 S
Zn3 O6 1.933 . S
Zn3 O9 1.941 . S
Zn3 O10 1.965 . S
Zn4 O2 1.950 . S
Zn4 O11 1.938 1_455 S
Zn4 O12 1.906 . S
Zn4 O22 1.953 . S
Zn5 O2 1.945 . S
Zn5 O7 1.932 . S
Zn5 O14 1.977 . S
Zn5 O15 1.910 . S
O6 Zn3 1.933 . S
O6 C17 1.226 1_655 S
O7 Zn5 1.932 . S
O7 C17 1.307 . S
O8 Zn1 1.919 1_655 S
O8 C19 1.253 . S
O9 Zn3 1.941 . S
O9 C19 1.283 . S
O10 Zn3 1.965 . S
O10 C18 1.303 . S
O11 Zn4 1.938 1_655 S
O11 C18 1.247 . S
O12 Zn4 1.906 . S
O12 C20 1.304 . S
O13 Zn1 1.924 . S
O13 C21 1.311 . S
O14 Zn5 1.977 . S
O14 C20 1.272 . S
O15 Zn5 1.910 . S
O15 C21 1.231 . S
C16 O0 1.233 . S
C16 O22 1.298 . S
C17 O6 1.226 1_455 S
C17 O7 1.307 . S
C18 O10 1.303 . S
C18 O11 1.247 . S
C19 O8 1.253 . S
C19 O9 1.283 . S
C20 O12 1.304 . S
C20 O14 1.272 . S
C21 O13 1.311 . S
C21 O15 1.231 . S
O22 Zn4 1.953 . S
O22 C16 1.298 . S
O23 Zn24 1.953 . S
O23 C39 1.225 . S
Zn24 O23 1.953 . S
Zn24 O25 1.949 . S
Zn24 O31 1.919 . S
Zn24 O36 1.924 1_545 S
O25 Zn24 1.949 . S
O25 Zn26 1.923 . S
O25 Zn27 1.950 1_545 S
O25 Zn28 1.945 1_545 S
Zn26 O25 1.923 . S
Zn26 O29 1.933 . S
Zn26 O32 1.941 . S
Zn26 O33 1.965 . S
Zn27 O25 1.950 1_565 S
Zn27 O34 1.938 1_565 S
Zn27 O35 1.906 . S
Zn27 O45 1.953 . S
Zn28 O25 1.945 1_565 S
Zn28 O30 1.932 . S
Zn28 O37 1.977 . S
Zn28 O38 1.910 . S
O29 Zn26 1.933 . S
O29 C40 1.226 . S
O30 Zn28 1.932 . S
O30 C40 1.307 1_565 S
O31 Zn24 1.919 . S
O31 C42 1.253 . S
O32 Zn26 1.941 . S
O32 C42 1.283 . S
O33 Zn26 1.965 . S
O33 C41 1.303 . S
O34 Zn27 1.938 1_545 S
O34 C41 1.247 . S
O35 Zn27 1.906 . S
O35 C43 1.304 . S
O36 Zn24 1.924 1_565 S
O36 C44 1.311 . S
O37 Zn28 1.977 . S
O37 C43 1.272 . S
O38 Zn28 1.910 . S
O38 C44 1.231 . S
C39 O23 1.225 . S
C39 O45 1.298 1_545 S
C40 O29 1.226 . S
C40 O30 1.307 1_545 S
C41 O33 1.303 . S
C41 O34 1.247 . S
C42 O31 1.253 . S
C42 O32 1.283 . S
C43 O35 1.304 . S
C43 O37 1.272 . S
C44 O36 1.311 . S
C44 O38 1.231 . S
O45 Zn27 1.953 . S
O45 C39 1.298 1_565 S
O46 Zn47 1.953 . S
O46 C62 1.225 . S
Zn47 O46 1.953 . S
Zn47 O48 1.949 . S
Zn47 O54 1.919 . S
Zn47 O59 1.924 . S
O48 Zn47 1.949 . S
O48 Zn49 1.923 . S
O48 Zn50 1.950 . S
O48 Zn51 1.945 . S
Zn49 O48 1.923 . S
Zn49 O52 1.933 . S
Zn49 O55 1.941 . S
Zn49 O56 1.965 . S
Zn50 O48 1.950 . S
Zn50 O57 1.938 . S
Zn50 O58 1.906 . S
Zn50 O68 1.953 . S
Zn51 O48 1.945 . S
Zn51 O53 1.932 . S
Zn51 O60 1.977 . S
Zn51 O61 1.910 . S
O52 Zn49 1.933 . S
O52 C63 1.226 . S
O53 Zn51 1.932 . S
O53 C63 1.307 . S
O54 Zn47 1.919 . S
O54 C65 1.253 . S
O55 Zn49 1.941 . S
O55 C65 1.283 . S
O56 Zn49 1.965 . S
O56 C64 1.303 . S
O57 Zn50 1.938 . S
O57 C64 1.247 . S
O58 Zn50 1.906 . S
O58 C66 1.304 . S
O59 Zn47 1.924 . S
O59 C67 1.311 . S
O60 Zn51 1.977 . S
O60 C66 1.272 . S
O61 Zn51 1.910 . S
O61 C67 1.231 . S
C62 O46 1.225 . S
C62 O68 1.298 . S
C63 O52 1.226 . S
C63 O53 1.307 . S
C64 O56 1.303 . S
C64 O57 1.247 . S
C65 O54 1.253 . S
C65 O55 1.283 . S
C66 O58 1.304 . S
C66 O60 1.272 . S
C67 O59 1.311 . S
C67 O61 1.231 . S
O68 Zn50 1.953 . S
O68 C62 1.298 . S
P69 O80 1.490 . S
P69 C83 1.812 . S
P69 C89 1.803 1_565 S
P69 C95 1.819 . S
H70 C84 0.941 . S
H71 C85 0.939 . S
H72 C87 0.940 . S
H73 C88 0.940 . S
H74 C90 0.939 . S
H75 C91 0.942 . S
H76 C93 0.940 . S
H77 C94 0.939 . S
H78 C96 0.941 . S
H79 C100 0.939 . S
O80 P69 1.490 . S
H81 C97 0.939 . S
H82 C99 0.940 . S
C83 P69 1.812 . S
C83 C84 1.389 . S
C83 C88 1.391 . S
C84 H70 0.941 . S
C84 C83 1.389 . S
C84 C85 1.397 . S
C85 H71 0.939 . S
C85 C84 1.397 . S
C85 C86 1.378 . S
C86 C85 1.378 . S
C86 C87 1.378 . S
C87 H72 0.940 . S
C87 C86 1.378 . S
C87 C88 1.396 . S
C88 H73 0.940 . S
C88 C83 1.391 . S
C88 C87 1.396 . S
C89 P69 1.803 1_545 S
C89 C90 1.378 . S
C89 C94 1.400 . S
C90 H74 0.939 . S
C90 C89 1.378 . S
C90 C91 1.361 . S
C91 H75 0.942 . S
C91 C90 1.361 . S
C91 C92 1.369 . S
C92 C91 1.369 . S
C92 C93 1.404 . S
C93 H76 0.940 . S
C93 C92 1.404 . S
C93 C94 1.389 . S
C94 H77 0.939 . S
C94 C89 1.400 . S
C94 C93 1.389 . S
C95 P69 1.819 . S
C95 C96 1.391 . S
C95 C100 1.391 1_565 S
C96 H78 0.941 . S
C96 C95 1.391 . S
C96 C97 1.396 . S
C97 H81 0.939 . S
C97 C96 1.396 . S
C97 C98 1.397 1_565 S
C98 C97 1.397 1_545 S
C98 C99 1.385 . S
C99 H82 0.940 . S
C99 C98 1.385 . S
C99 C100 1.388 . S
C100 H79 0.939 . S
C100 C95 1.391 1_545 S
C100 C99 1.388 . S
P101 O112 1.490 . S
P101 C115 1.812 . S
P101 C121 1.803 . S
P101 C127 1.819 . S
H102 C116 0.941 . S
H103 C117 0.939 . S
H104 C119 0.940 . S
H105 C120 0.940 . S
H106 C122 0.939 . S
H107 C123 0.942 . S
H108 C125 0.940 . S
H109 C126 0.939 . S
H110 C128 0.941 . S
H111 C132 0.939 . S
O112 P101 1.490 . S
H113 C129 0.939 . S
H114 C131 0.940 . S
C115 P101 1.812 . S
C115 C116 1.389 . S
C115 C120 1.391 . S
C116 H102 0.941 . S
C116 C115 1.389 . S
C116 C117 1.397 . S
C117 H103 0.939 . S
C117 C116 1.397 . S
C117 C118 1.378 . S
C118 C117 1.378 . S
C118 C119 1.378 . S
C119 H104 0.940 . S
C119 C118 1.378 . S
C119 C120 1.396 . S
C120 H105 0.940 . S
C120 C115 1.391 . S
C120 C119 1.396 . S
C121 P101 1.803 . S
C121 C122 1.378 . S
C121 C126 1.400 . S
C122 H106 0.939 . S
C122 C121 1.378 . S
C122 C123 1.361 . S
C123 H107 0.942 . S
C123 C122 1.361 . S
C123 C124 1.369 . S
C124 C123 1.369 . S
C124 C125 1.404 . S
C125 H108 0.940 . S
C125 C124 1.404 . S
C125 C126 1.389 . S
C126 H109 0.939 . S
C126 C121 1.400 . S
C126 C125 1.389 . S
C127 P101 1.819 . S
C127 C128 1.391 . S
C127 C132 1.391 . S
C128 H110 0.941 . S
C128 C127 1.391 . S
C128 C129 1.396 . S
C129 H113 0.939 . S
C129 C128 1.396 . S
C129 C130 1.397 . S
C130 C129 1.397 . S
C130 C131 1.385 . S
C131 H114 0.940 . S
C131 C130 1.385 . S
C131 C132 1.388 . S
C132 H111 0.939 . S
C132 C127 1.391 . S
C132 C131 1.388 . S
P133 O144 1.490 . S
P133 C147 1.812 . S
P133 C153 1.791 1_455 S
P133 C159 1.819 . S
H134 C148 0.941 . S
H135 C149 0.939 . S
H136 C151 0.940 . S
H137 C152 0.940 . S
H138 C154 0.939 . S
H139 C155 0.942 . S
H140 C157 0.940 . S
H141 C158 0.939 . S
H142 C160 0.941 . S
H143 C164 0.939 . S
O144 P133 1.490 . S
H145 C161 0.939 . S
H146 C163 0.940 . S
C147 P133 1.812 . S
C147 C148 1.389 . S
C147 C152 1.391 . S
C148 H134 0.941 . S
C148 C147 1.389 . S
C148 C149 1.397 . S
C149 H135 0.939 . S
C149 C148 1.397 . S
C149 C150 1.378 . S
C150 C149 1.378 . S
C150 C151 1.378 . S
C151 H136 0.940 . S
C151 C150 1.378 . S
C151 C152 1.396 . S
C152 H137 0.940 . S
C152 C147 1.391 . S
C152 C151 1.396 . S
C153 P133 1.791 1_655 S
C153 C154 1.392 . S
C153 C158 1.400 . S
C154 H138 0.939 . S
C154 C153 1.392 . S
C154 C155 1.361 . S
C155 H139 0.942 . S
C155 C154 1.361 . S
C155 C156 1.369 . S
C156 C155 1.369 . S
C156 C157 1.404 . S
C157 H140 0.940 . S
C157 C156 1.404 . S
C157 C158 1.389 . S
C158 H141 0.939 . S
C158 C153 1.400 . S
C158 C157 1.389 . S
C159 P133 1.819 . S
C159 C160 1.391 . S
C159 C164 1.391 1_455 S
C160 H142 0.941 . S
C160 C159 1.391 . S
C160 C161 1.396 . S
C161 H145 0.939 . S
C161 C160 1.396 . S
C161 C162 1.397 . S
C162 C161 1.397 . S
C162 C163 1.385 1_455 S
C163 H146 0.940 . S
C163 C162 1.385 1_655 S
C163 C164 1.388 . S
C164 H143 0.939 . S
C164 C159 1.391 1_655 S
C164 C163 1.388 . S
P165 O176 1.490 . S
P165 C179 1.812 . S
P165 C185 1.803 1_455 S
P165 C191 1.819 . S
H166 C180 0.941 . S
H167 C181 0.939 . S
H168 C183 0.940 . S
H169 C184 0.940 . S
H170 C186 0.939 . S
H171 C187 0.942 . S
H172 C189 0.940 . S
H173 C190 0.939 . S
H174 C192 0.941 . S
H175 C196 0.939 . S
O176 P165 1.490 . S
H177 C193 0.939 . S
H178 C195 0.940 . S
C179 P165 1.812 . S
C179 C180 1.389 . S
C179 C184 1.391 . S
C180 H166 0.941 . S
C180 C179 1.389 . S
C180 C181 1.397 . S
C181 H167 0.939 . S
C181 C180 1.397 . S
C181 C182 1.378 . S
C182 C181 1.378 . S
C182 C183 1.378 . S
C183 H168 0.940 . S
C183 C182 1.378 . S
C183 C184 1.396 . S
C184 H169 0.940 . S
C184 C179 1.391 . S
C184 C183 1.396 . S
C185 P165 1.803 1_655 S
C185 C186 1.378 . S
C185 C190 1.400 . S
C186 H170 0.939 . S
C186 C185 1.378 . S
C186 C187 1.361 . S
C187 H171 0.942 . S
C187 C186 1.361 . S
C187 C188 1.369 . S
C188 C187 1.369 . S
C188 C189 1.404 . S
C189 H172 0.940 . S
C189 C188 1.404 . S
C189 C190 1.389 . S
C190 H173 0.939 . S
C190 C185 1.400 . S
C190 C189 1.389 . S
C191 P165 1.819 . S
C191 C192 1.391 . S
C191 C196 1.391 1_455 S
C192 H174 0.941 . S
C192 C191 1.391 . S
C192 C193 1.396 . S
C193 H177 0.939 . S
C193 C192 1.396 . S
C193 C194 1.397 . S
C194 C193 1.397 . S
C194 C195 1.385 1_455 S
C195 H178 0.940 . S
C195 C194 1.385 1_655 S
C195 C196 1.388 . S
C196 H175 0.939 . S
C196 C191 1.391 1_655 S
C196 C195 1.388 . S
P197 O208 1.490 . S
P197 C211 1.812 . S
P197 C217 1.803 1_545 S
P197 C223 1.819 . S
H198 C212 0.941 . S
H199 C213 0.939 . S
H200 C215 0.940 . S
H201 C216 0.940 . S
H202 C218 0.939 . S
H203 C219 0.942 . S
H204 C221 0.940 . S
H205 C222 0.939 . S
H206 C224 0.941 . S
H207 C228 0.939 . S
O208 P197 1.490 . S
H209 C225 0.939 . S
H210 C227 0.940 . S
C211 P197 1.812 . S
C211 C212 1.389 . S
C211 C216 1.391 . S
C212 H198 0.941 . S
C212 C211 1.389 . S
C212 C213 1.397 . S
C213 H199 0.939 . S
C213 C212 1.397 . S
C213 C214 1.378 . S
C214 C213 1.378 . S
C214 C215 1.378 . S
C215 H200 0.940 . S
C215 C214 1.378 . S
C215 C216 1.396 . S
C216 H201 0.940 . S
C216 C211 1.391 . S
C216 C215 1.396 . S
C217 P197 1.803 1_565 S
C217 C218 1.378 . S
C217 C222 1.400 . S
C218 H202 0.939 . S
C218 C217 1.378 . S
C218 C219 1.361 . S
C219 H203 0.942 . S
C219 C218 1.361 . S
C219 C220 1.369 . S
C220 C219 1.369 . S
C220 C221 1.404 . S
C221 H204 0.940 . S
C221 C220 1.404 . S
C221 C222 1.389 . S
C222 H205 0.939 . S
C222 C217 1.400 . S
C222 C221 1.389 . S
C223 P197 1.819 . S
C223 C224 1.391 . S
C223 C228 1.391 1_545 S
C224 H206 0.941 . S
C224 C223 1.391 . S
C224 C225 1.396 . S
C225 H209 0.939 . S
C225 C224 1.396 . S
C225 C226 1.397 . S
C226 C225 1.397 . S
C226 C227 1.385 1_545 S
C227 H210 0.940 . S
C227 C226 1.385 1_565 S
C227 C228 1.388 . S
C228 H207 0.939 . S
C228 C223 1.391 1_565 S
C228 C227 1.388 . S
P229 O240 1.490 . S
P229 C243 1.812 . S
P229 C249 1.803 . S
P229 C255 1.819 . S
H230 C244 0.941 . S
H231 C245 0.939 . S
H232 C247 0.940 . S
H233 C248 0.940 . S
H234 C250 0.939 . S
H235 C251 0.942 . S
H236 C253 0.940 . S
H237 C254 0.939 . S
H238 C256 0.941 . S
H239 C260 0.939 . S
O240 P229 1.490 . S
H241 C257 0.939 . S
H242 C259 0.940 . S
C243 P229 1.812 . S
C243 C244 1.389 . S
C243 C248 1.391 . S
C244 H230 0.941 . S
C244 C243 1.389 . S
C244 C245 1.397 . S
C245 H231 0.939 . S
C245 C244 1.397 . S
C245 C246 1.378 . S
C246 C245 1.378 . S
C246 C247 1.378 . S
C247 H232 0.940 . S
C247 C246 1.378 . S
C247 C248 1.396 . S
C248 H233 0.940 . S
C248 C243 1.391 . S
C248 C247 1.396 . S
C249 P229 1.803 . S
C249 C250 1.378 . S
C249 C254 1.400 . S
C250 H234 0.939 . S
C250 C249 1.378 . S
C250 C251 1.361 . S
C251 H235 0.942 . S
C251 C250 1.361 . S
C251 C252 1.369 . S
C252 C251 1.369 . S
C252 C253 1.404 . S
C253 H236 0.940 . S
C253 C252 1.404 . S
C253 C254 1.389 . S
C254 H237 0.939 . S
C254 C249 1.400 . S
C254 C253 1.389 . S
C255 P229 1.819 . S
C255 C256 1.391 . S
C255 C260 1.391 . S
C256 H238 0.941 . S
C256 C255 1.391 . S
C256 C257 1.396 . S
C257 H241 0.939 . S
C257 C256 1.396 . S
C257 C258 1.397 . S
C258 C257 1.397 . S
C258 C259 1.385 . S
C259 H242 0.940 . S
C259 C258 1.385 . S
C259 C260 1.388 . S
C260 H239 0.939 . S
C260 C255 1.391 . S
C260 C259 1.388 . S
H261 C267 0.930 . S
H262 C270 0.930 . S
H263 C271 0.930 . S
H264 C272 0.930 . S
H265 C275 0.930 . S
H266 C276 0.930 . S
C267 H261 0.930 . S
C267 C268 1.355 . S
C267 C269 1.415 . S
C268 C267 1.355 . S
C268 C270 1.419 . S
C269 C267 1.415 . S
C269 C274 1.425 . S
C269 C276 1.409 . S
C270 H262 0.930 . S
C270 C268 1.419 . S
C270 C271 1.362 . S
C271 H263 0.930 . S
C271 C270 1.362 . S
C271 C274 1.409 . S
C272 H264 0.930 . S
C272 C273 1.355 . S
C272 C274 1.415 . S
C273 C272 1.355 . S
C273 C275 1.419 . S
C274 C269 1.425 . S
C274 C271 1.409 . S
C274 C272 1.415 . S
C275 H265 0.930 . S
C275 C273 1.419 . S
C275 C276 1.362 . S
C276 H266 0.930 . S
C276 C269 1.409 . S
C276 C275 1.362 . S
H277 C283 0.930 . S
H278 C286 0.930 . S
H279 C287 0.930 . S
H280 C288 0.930 . S
H281 C291 0.930 . S
H282 C292 0.930 . S
C283 H277 0.930 . S
C283 C284 1.355 . S
C283 C285 1.415 . S
C284 C283 1.355 . S
C284 C286 1.419 . S
C285 C283 1.415 . S
C285 C290 1.425 . S
C285 C292 1.409 . S
C286 H278 0.930 . S
C286 C284 1.419 . S
C286 C287 1.362 . S
C287 H279 0.930 . S
C287 C286 1.362 . S
C287 C290 1.409 . S
C288 H280 0.930 . S
C288 C289 1.355 . S
C288 C290 1.415 . S
C289 C288 1.355 . S
C289 C291 1.419 . S
C290 C285 1.425 . S
C290 C287 1.409 . S
C290 C288 1.415 . S
C291 H281 0.930 . S
C291 C289 1.419 . S
C291 C292 1.362 . S
C292 H282 0.930 . S
C292 C285 1.409 . S
C292 C291 1.362 . S
H293 C299 0.930 . S
H294 C302 0.930 . S
H295 C303 0.930 . S
H296 C304 0.930 . S
H297 C307 0.930 . S
H298 C308 0.930 . S
C299 H293 0.930 . S
C299 C300 1.355 . S
C299 C301 1.415 . S
C300 C299 1.355 . S
C300 C302 1.419 . S
C301 C299 1.415 . S
C301 C306 1.425 . S
C301 C308 1.409 . S
C302 H294 0.930 . S
C302 C300 1.419 . S
C302 C303 1.362 . S
C303 H295 0.930 . S
C303 C302 1.362 . S
C303 C306 1.409 . S
C304 H296 0.930 . S
C304 C305 1.355 . S
C304 C306 1.415 . S
C305 C304 1.355 . S
C305 C307 1.419 . S
C306 C301 1.425 . S
C306 C303 1.409 . S
C306 C304 1.415 . S
C307 H297 0.930 . S
C307 C305 1.419 . S
C307 C308 1.362 . S
C308 H298 0.930 . S
C308 C301 1.409 . S
C308 C307 1.362 . S
H309 C315 0.930 . S
H310 C318 0.930 . S
H311 C319 0.930 . S
H312 C320 0.930 . S
H313 C323 0.930 . S
H314 C324 0.930 . S
C315 H309 0.930 . S
C315 C316 1.355 . S
C315 C317 1.415 . S
C316 C315 1.355 . S
C316 C318 1.419 . S
C317 C315 1.415 . S
C317 C322 1.425 . S
C317 C324 1.409 . S
C318 H310 0.930 . S
C318 C316 1.419 . S
C318 C319 1.362 . S
C319 H311 0.930 . S
C319 C318 1.362 . S
C319 C322 1.409 . S
C320 H312 0.930 . S
C320 C321 1.355 . S
C320 C322 1.415 . S
C321 C320 1.355 . S
C321 C323 1.419 . S
C322 C317 1.425 . S
C322 C319 1.409 . S
C322 C320 1.415 . S
C323 H313 0.930 . S
C323 C321 1.419 . S
C323 C324 1.362 . S
C324 H314 0.930 . S
C324 C317 1.409 . S
C324 C323 1.362 . S
H325 C331 0.930 . S
H326 C334 0.930 . S
H327 C335 0.930 . S
H328 C336 0.930 . S
H329 C339 0.930 . S
H330 C340 0.930 . S
C331 H325 0.930 . S
C331 C332 1.355 . S
C331 C333 1.415 . S
C332 C331 1.355 . S
C332 C334 1.419 . S
C333 C331 1.415 . S
C333 C338 1.425 . S
C333 C340 1.409 . S
C334 H326 0.930 . S
C334 C332 1.419 . S
C334 C335 1.362 . S
C335 H327 0.930 . S
C335 C334 1.362 . S
C335 C338 1.409 . S
C336 H328 0.930 . S
C336 C337 1.355 . S
C336 C338 1.415 . S
C337 C336 1.355 . S
C337 C339 1.419 . S
C338 C333 1.425 . S
C338 C335 1.409 . S
C338 C336 1.415 . S
C339 H329 0.930 . S
C339 C337 1.419 . S
C339 C340 1.362 . S
C340 H330 0.930 . S
C340 C333 1.409 . S
C340 C339 1.362 . S
H341 C347 0.930 . S
H342 C350 0.930 . S
H343 C351 0.930 . S
H344 C352 0.930 . S
H345 C355 0.930 . S
H346 C356 0.930 . S
C347 H341 0.930 . S
C347 C348 1.355 . S
C347 C349 1.415 . S
C348 C347 1.355 . S
C348 C350 1.419 . S
C349 C347 1.415 . S
C349 C354 1.425 . S
C349 C356 1.409 . S
C350 H342 0.930 . S
C350 C348 1.419 . S
C350 C351 1.362 . S
C351 H343 0.930 . S
C351 C350 1.362 . S
C351 C354 1.409 . S
C352 H344 0.930 . S
C352 C353 1.355 . S
C352 C354 1.415 . S
C353 C352 1.355 . S
C353 C355 1.419 . S
C354 C349 1.425 . S
C354 C351 1.409 . S
C354 C352 1.415 . S
C355 H345 0.930 . S
C355 C353 1.419 . S
C355 C356 1.362 . S
C356 H346 0.930 . S
C356 C349 1.409 . S
C356 C355 1.362 . S
H357 C363 0.930 . S
H358 C366 0.930 . S
H359 C367 0.930 . S
H360 C368 0.930 . S
H361 C371 0.930 . S
H362 C372 0.930 . S
C363 H357 0.930 . S
C363 C364 1.355 . S
C363 C365 1.415 . S
C364 C363 1.355 . S
C364 C366 1.419 . S
C365 C363 1.415 . S
C365 C370 1.425 . S
C365 C372 1.409 . S
C366 H358 0.930 . S
C366 C364 1.419 . S
C366 C367 1.362 . S
C367 H359 0.930 . S
C367 C366 1.362 . S
C367 C370 1.409 . S
C368 H360 0.930 . S
C368 C369 1.355 . S
C368 C370 1.415 . S
C369 C368 1.355 . S
C369 C371 1.419 . S
C370 C365 1.425 . S
C370 C367 1.409 . S
C370 C368 1.415 . S
C371 H361 0.930 . S
C371 C369 1.419 . S
C371 C372 1.362 . S
C372 H362 0.930 . S
C372 C365 1.409 . S
C372 C371 1.362 . S
H373 C379 0.930 . S
H374 C382 0.930 . S
H375 C383 0.930 . S
H376 C384 0.930 . S
H377 C387 0.930 . S
H378 C388 0.930 . S
C379 H373 0.930 . S
C379 C380 1.355 . S
C379 C381 1.415 . S
C380 C379 1.355 . S
C380 C382 1.419 . S
C381 C379 1.415 . S
C381 C386 1.425 . S
C381 C388 1.409 . S
C382 H374 0.930 . S
C382 C380 1.419 . S
C382 C383 1.362 . S
C383 H375 0.930 . S
C383 C382 1.362 . S
C383 C386 1.409 . S
C384 H376 0.930 . S
C384 C385 1.355 . S
C384 C386 1.415 . S
C385 C384 1.355 . S
C385 C387 1.419 . S
C386 C381 1.425 . S
C386 C383 1.409 . S
C386 C384 1.415 . S
C387 H377 0.930 . S
C387 C385 1.419 . S
C387 C388 1.362 . S
C388 H378 0.930 . S
C388 C381 1.409 . S
C388 C387 1.362 . S
H389 C395 0.930 . S
H390 C398 0.930 . S
H391 C399 0.930 . S
H392 C400 0.930 . S
H393 C403 0.930 . S
H394 C404 0.930 . S
C395 H389 0.930 . S
C395 C396 1.355 . S
C395 C397 1.415 . S
C396 C395 1.355 . S
C396 C398 1.419 . S
C397 C395 1.415 . S
C397 C402 1.425 . S
C397 C404 1.409 . S
C398 H390 0.930 . S
C398 C396 1.419 . S
C398 C399 1.362 . S
C399 H391 0.930 . S
C399 C398 1.362 . S
C399 C402 1.409 . S
C400 H392 0.930 . S
C400 C401 1.355 . S
C400 C402 1.415 . S
C401 C400 1.355 . S
C401 C403 1.419 . S
C402 C397 1.425 . S
C402 C399 1.409 . S
C402 C400 1.415 . S
C403 H393 0.930 . S
C403 C401 1.419 . S
C403 C404 1.362 . S
C404 H394 0.930 . S
C404 C397 1.409 . S
C404 C403 1.362 . S
H405 C411 0.930 . S
H406 C414 0.930 . S
H407 C415 0.930 . S
H408 C416 0.930 . S
H409 C419 0.930 . S
H410 C420 0.930 . S
C411 H405 0.930 . S
C411 C412 1.355 . S
C411 C413 1.415 . S
C412 C411 1.355 . S
C412 C414 1.419 . S
C413 C411 1.415 . S
C413 C418 1.425 . S
C413 C420 1.409 . S
C414 H406 0.930 . S
C414 C412 1.419 . S
C414 C415 1.362 . S
C415 H407 0.930 . S
C415 C414 1.362 . S
C415 C418 1.409 . S
C416 H408 0.930 . S
C416 C417 1.355 . S
C416 C418 1.415 . S
C417 C416 1.355 . S
C417 C419 1.419 . S
C418 C413 1.425 . S
C418 C415 1.409 . S
C418 C416 1.415 . S
C419 H409 0.930 . S
C419 C417 1.419 . S
C419 C420 1.362 . S
C420 H410 0.930 . S
C420 C413 1.409 . S
C420 C419 1.362 . S
H421 C427 0.930 . S
H422 C430 0.930 . S
H423 C431 0.930 . S
H424 C432 0.930 . S
H425 C435 0.930 . S
H426 C436 0.930 . S
C427 H421 0.930 . S
C427 C428 1.355 . S
C427 C429 1.415 . S
C428 C427 1.355 . S
C428 C430 1.419 . S
C429 C427 1.415 . S
C429 C434 1.425 . S
C429 C436 1.409 . S
C430 H422 0.930 . S
C430 C428 1.419 . S
C430 C431 1.362 . S
C431 H423 0.930 . S
C431 C430 1.362 . S
C431 C434 1.409 . S
C432 H424 0.930 . S
C432 C433 1.355 . S
C432 C434 1.415 . S
C433 C432 1.355 . S
C433 C435 1.419 . S
C434 C429 1.425 . S
C434 C431 1.409 . S
C434 C432 1.415 . S
C435 H425 0.930 . S
C435 C433 1.419 . S
C435 C436 1.362 . S
C436 H426 0.930 . S
C436 C429 1.409 . S
C436 C435 1.362 . S
H437 C443 0.930 . S
H438 C446 0.930 . S
H439 C447 0.930 . S
H440 C448 0.930 . S
H441 C451 0.930 . S
H442 C452 0.930 . S
C443 H437 0.930 . S
C443 C444 1.355 . S
C443 C445 1.415 . S
C444 C443 1.355 . S
C444 C446 1.419 . S
C445 C443 1.415 . S
C445 C450 1.425 . S
C445 C452 1.409 . S
C446 H438 0.930 . S
C446 C444 1.419 . S
C446 C447 1.362 . S
C447 H439 0.930 . S
C447 C446 1.362 . S
C447 C450 1.409 . S
C448 H440 0.930 . S
C448 C449 1.355 . S
C448 C450 1.415 . S
C449 C448 1.355 . S
C449 C451 1.419 . S
C450 C445 1.425 . S
C450 C447 1.409 . S
C450 C448 1.415 . S
C451 H441 0.930 . S
C451 C449 1.419 . S
C451 C452 1.362 . S
C452 H442 0.930 . S
C452 C445 1.409 . S
C452 C451 1.362 . S
H453 C459 0.930 . S
H454 C462 0.930 . S
H455 C463 0.930 . S
H456 C464 0.930 . S
H457 C467 0.930 1_556 S
H458 C468 0.930 . S
C459 H453 0.930 . S
C459 C460 1.355 . S
C459 C461 1.415 . S
C460 C459 1.355 . S
C460 C462 1.419 . S
C461 C459 1.415 . S
C461 C466 1.425 . S
C461 C468 1.409 . S
C462 H454 0.930 . S
C462 C460 1.419 . S
C462 C463 1.362 . S
C463 H455 0.930 . S
C463 C462 1.362 . S
C463 C466 1.409 . S
C464 H456 0.930 . S
C464 C465 1.355 . S
C464 C466 1.415 . S
C465 C464 1.355 . S
C465 C467 1.419 . S
C466 C461 1.425 . S
C466 C463 1.409 . S
C466 C464 1.415 . S
C467 H457 0.930 1_554 S
C467 C465 1.419 . S
C467 C468 1.362 . S
C468 H458 0.930 . S
C468 C461 1.409 . S
C468 C467 1.362 . S
H469 C475 0.930 . S
H470 C478 0.930 . S
H471 C479 0.930 . S
H472 C480 0.930 . S
H473 C483 0.930 . S
H474 C484 0.930 . S
C475 H469 0.930 . S
C475 C476 1.355 1_565 S
C475 C477 1.415 . S
C476 C475 1.355 1_545 S
C476 C478 1.419 . S
C477 C475 1.415 . S
C477 C482 1.425 1_565 S
C477 C484 1.409 . S
C478 H470 0.930 . S
C478 C476 1.419 . S
C478 C479 1.362 . S
C479 H471 0.930 . S
C479 C478 1.362 . S
C479 C482 1.409 . S
C480 H472 0.930 . S
C480 C481 1.355 . S
C480 C482 1.415 . S
C481 C480 1.355 . S
C481 C483 1.419 1_545 S
C482 C477 1.425 1_545 S
C482 C479 1.409 . S
C482 C480 1.415 . S
C483 H473 0.930 . S
C483 C481 1.419 1_565 S
C483 C484 1.362 . S
C484 H474 0.930 . S
C484 C477 1.409 . S
C484 C483 1.362 . S
H485 C491 0.930 . S
H486 C494 0.930 . S
H487 C495 0.930 . S
H488 C496 0.930 . S
H489 C499 0.930 . S
H490 C500 0.930 . S
C491 H485 0.930 . S
C491 C492 1.355 . S
C491 C493 1.415 . S
C492 C491 1.355 . S
C492 C494 1.419 . S
C493 C491 1.415 . S
C493 C498 1.425 . S
C493 C500 1.409 . S
C494 H486 0.930 . S
C494 C492 1.419 . S
C494 C495 1.362 . S
C495 H487 0.930 . S
C495 C494 1.362 . S
C495 C498 1.409 . S
C496 H488 0.930 . S
C496 C497 1.355 . S
C496 C498 1.415 . S
C497 C496 1.355 . S
C497 C499 1.419 . S
C498 C493 1.425 . S
C498 C495 1.409 . S
C498 C496 1.415 . S
C499 H489 0.930 . S
C499 C497 1.419 . S
C499 C500 1.362 . S
C500 H490 0.930 . S
C500 C493 1.409 . S
C500 C499 1.362 . S
H501 C507 0.930 . S
H502 C510 0.930 . S
H503 C511 0.930 . S
H504 C512 0.930 . S
H505 C515 0.930 . S
H506 C516 0.930 . S
C507 H501 0.930 . S
C507 C508 1.355 . S
C507 C509 1.415 . S
C508 C507 1.355 . S
C508 C510 1.419 1_545 S
C509 C507 1.415 . S
C509 C514 1.425 1_545 S
C509 C516 1.409 . S
C510 H502 0.930 . S
C510 C508 1.419 1_565 S
C510 C511 1.362 . S
C511 H503 0.930 . S
C511 C510 1.362 . S
C511 C514 1.409 . S
C512 H504 0.930 . S
C512 C513 1.355 1_565 S
C512 C514 1.415 . S
C513 C512 1.355 1_545 S
C513 C515 1.419 . S
C514 C509 1.425 1_565 S
C514 C511 1.409 . S
C514 C512 1.415 . S
C515 H505 0.930 . S
C515 C513 1.419 . S
C515 C516 1.362 . S
C516 H506 0.930 . S
C516 C509 1.409 . S
C516 C515 1.362 . S
H517 C523 0.930 . S
H518 C526 0.930 . S
H519 C527 0.930 . S
H520 C528 0.930 . S
H521 C531 0.930 1_554 S
H522 C532 0.930 . S
C523 H517 0.930 . S
C523 C524 1.355 . S
C523 C525 1.415 . S
C524 C523 1.355 . S
C524 C526 1.419 . S
C525 C523 1.415 . S
C525 C530 1.425 . S
C525 C532 1.409 . S
C526 H518 0.930 . S
C526 C524 1.419 . S
C526 C527 1.362 . S
C527 H519 0.930 . S
C527 C526 1.362 . S
C527 C530 1.409 . S
C528 H520 0.930 . S
C528 C529 1.355 . S
C528 C530 1.415 . S
C529 C528 1.355 . S
C529 C531 1.419 . S
C530 C525 1.425 . S
C530 C527 1.409 . S
C530 C528 1.415 . S
C531 H521 0.930 1_556 S
C531 C529 1.419 . S
C531 C532 1.362 . S
C532 H522 0.930 . S
C532 C525 1.409 . S
C532 C531 1.362 . S
H533 C539 0.931 1_655 S
H534 C542 0.930 . S
H535 C543 0.930 . S
H536 C544 0.930 . S
H537 C547 0.930 . S
H538 C548 0.930 . S
C539 H533 0.931 1_455 S
C539 C540 1.354 . S
C539 C541 1.415 . S
C540 C539 1.354 . S
C540 C542 1.419 . S
C541 C539 1.415 . S
C541 C546 1.425 . S
C541 C548 1.409 1_455 S
C542 H534 0.930 . S
C542 C540 1.419 . S
C542 C543 1.362 . S
C543 H535 0.930 . S
C543 C542 1.362 . S
C543 C546 1.409 . S
C544 H536 0.930 . S
C544 C545 1.355 . S
C544 C546 1.415 . S
C545 C544 1.355 . S
C545 C547 1.419 1_455 S
C546 C541 1.425 . S
C546 C543 1.409 . S
C546 C544 1.415 . S
C547 H537 0.930 . S
C547 C545 1.419 1_655 S
C547 C548 1.362 . S
C548 H538 0.930 . S
C548 C541 1.409 1_655 S
C548 C547 1.362 . S
C268 C20 1.248 . S
C273 C252 1.253 . S
C284 C41 1.311 . S
C289 C188 1.294 . S
C300 C64 1.339 . S
C305 C220 1.319 . S
C316 C19 1.303 . S
C321 C246 1.338 . S
C337 C182 1.276 . S
C332 C44 1.302 . S
C353 C214 1.253 . S
C348 C67 1.285 . S
C364 C43 1.219 . S
C369 C124 1.229 . S
C380 C66 1.193 . S
C385 C156 1.203 . S
C396 C21 1.258 . S
C401 C86 1.298 . S
C417 C118 1.304 . S
C412 C42 1.302 . S
C433 C150 1.362 . S
C428 C65 1.291 . S
C444 C18 1.298 . S
C449 C92 1.216 . S
C465 C162 1.464 1_554 S
C460 C17 1.467 . S
C476 C39 1.461 . S
C481 C98 1.439 . S
C492 C62 1.478 . S
C497 C130 1.478 . S
C513 C226 1.420 . S
C508 C40 1.444 . S
C529 C258 1.428 1_556 S
C524 C63 1.461 . S
C540 C16 1.458 . S
C545 C194 1.403 . S
