# Generated by pormake.
# Topology zzz, (3,6)-cn, num edge types: 1
# Building blocks:
#     Node 0, Type 0, BuildingBlock: VETTIZ_charged_linker_0, # of connection points: 3
#     Node 1, Type 0, BuildingBlock: VETTIZ_charged_linker_0, # of connection points: 3
#     Node 2, Type 0, BuildingBlock: VETTIZ_charged_linker_0, # of connection points: 3
#     Node 3, Type 0, BuildingBlock: VETTIZ_charged_linker_0, # of connection points: 3
#     Node 4, Type 0, BuildingBlock: VETTIZ_charged_linker_0, # of connection points: 3
#     Node 5, Type 0, BuildingBlock: VETTIZ_charged_linker_0, # of connection points: 3
#     Node 6, Type 0, BuildingBlock: VETTIZ_charged_linker_0, # of connection points: 3
#     Node 7, Type 0, BuildingBlock: VETTIZ_charged_linker_0, # of connection points: 3
#     Node 8, Type 1, BuildingBlock: VOLQOD_clean_sbu_1, # of connection points: 6
#     Node 9, Type 1, BuildingBlock: VOLQOD_clean_sbu_1, # of connection points: 6
#     Node 10, Type 1, BuildingBlock: VOLQOD_clean_sbu_1, # of connection points: 6
#     Node 11, Type 1, BuildingBlock: VOLQOD_clean_sbu_1, # of connection points: 6
#     Edge 12, Type (0, 1), BuildingBlock: UVAHIK_clean_linker_0, # of connection points: 2
#     Edge 13, Type (0, 1), BuildingBlock: UVAHIK_clean_linker_0, # of connection points: 2
#     Edge 14, Type (0, 1), BuildingBlock: UVAHIK_clean_linker_0, # of connection points: 2
#     Edge 15, Type (0, 1), BuildingBlock: UVAHIK_clean_linker_0, # of connection points: 2
#     Edge 16, Type (0, 1), BuildingBlock: UVAHIK_clean_linker_0, # of connection points: 2
#     Edge 17, Type (0, 1), BuildingBlock: UVAHIK_clean_linker_0, # of connection points: 2
#     Edge 18, Type (0, 1), BuildingBlock: UVAHIK_clean_linker_0, # of connection points: 2
#     Edge 19, Type (0, 1), BuildingBlock: UVAHIK_clean_linker_0, # of connection points: 2
#     Edge 20, Type (0, 1), BuildingBlock: UVAHIK_clean_linker_0, # of connection points: 2
#     Edge 21, Type (0, 1), BuildingBlock: UVAHIK_clean_linker_0, # of connection points: 2
#     Edge 22, Type (0, 1), BuildingBlock: UVAHIK_clean_linker_0, # of connection points: 2
#     Edge 23, Type (0, 1), BuildingBlock: UVAHIK_clean_linker_0, # of connection points: 2
#     Edge 24, Type (0, 1), BuildingBlock: UVAHIK_clean_linker_0, # of connection points: 2
#     Edge 25, Type (0, 1), BuildingBlock: UVAHIK_clean_linker_0, # of connection points: 2
#     Edge 26, Type (0, 1), BuildingBlock: UVAHIK_clean_linker_0, # of connection points: 2
#     Edge 27, Type (0, 1), BuildingBlock: UVAHIK_clean_linker_0, # of connection points: 2
#     Edge 28, Type (0, 1), BuildingBlock: UVAHIK_clean_linker_0, # of connection points: 2
#     Edge 29, Type (0, 1), BuildingBlock: UVAHIK_clean_linker_0, # of connection points: 2
#     Edge 30, Type (0, 1), BuildingBlock: UVAHIK_clean_linker_0, # of connection points: 2
#     Edge 31, Type (0, 1), BuildingBlock: UVAHIK_clean_linker_0, # of connection points: 2
#     Edge 32, Type (0, 1), BuildingBlock: UVAHIK_clean_linker_0, # of connection points: 2
#     Edge 33, Type (0, 1), BuildingBlock: UVAHIK_clean_linker_0, # of connection points: 2
#     Edge 34, Type (0, 1), BuildingBlock: UVAHIK_clean_linker_0, # of connection points: 2
#     Edge 35, Type (0, 1), BuildingBlock: UVAHIK_clean_linker_0, # of connection points: 2
# Relax obj value: 0.368
# Max RMSD: 0.260
# Mean RMSD: 0.211
data_MOF--net-zzz--node1-VOLQOD_clean_sbu_1--node2-VETTIZ_charged_linker_0--edge1-UVAHIK_clean_linker_0
_symmetry_space_group_name_H-M    P1
_symmetry_Int_Tables_number       1
_symmetry_cell_setting            triclinic
loop_
_symmetry_equiv_pos_as_xyz
'x, y, z'
_cell_length_a     70.627842
_cell_length_b     69.495419
_cell_length_c     27.935052
_cell_angle_alpha  90.139529
_cell_angle_beta   90.27183
_cell_angle_gamma 92.2775
loop_
_atom_site_label
_atom_site_type_symbol
_atom_site_fract_x
_atom_site_fract_y
_atom_site_fract_z
_atom_type_partial_charge
C0 C 0.81499 0.50582 0.26196 0.0
C1 C 0.83423 0.50473 0.27462 0.0
C2 C 0.84647 0.49479 0.24466 0.0
C3 C 0.82056 0.48692 0.19039 0.0
C4 C 0.80851 0.497 0.21919 0.0
C5 C 0.78879 0.49731 0.19813 0.0
H6 H 0.72843 0.47029 0.01745 0.0
C7 C 0.80966 0.47928 0.14896 0.0
C8 C 0.79103 0.48541 0.15274 0.0
H9 H 0.71649 0.50589 0.13985 0.0
H10 H 0.74858 0.50261 0.16907 0.0
H11 H 0.76749 0.48975 0.99459 0.0
H12 H 0.75316 0.43869 0.07579 0.0
H13 H 0.77224 0.43361 0.03811 0.0
H14 H 0.75002 0.44017 0.0121 0.0
H15 H 0.76064 0.46737 0.96608 0.0
H16 H 0.78497 0.47323 0.98225 0.0
C17 C 0.78439 0.51848 0.18688 0.0
C18 C 0.77488 0.48735 0.2337 0.0
C19 C 0.84284 0.43885 0.02632 0.0
C20 C 0.83727 0.43104 0.98184 0.0
C21 C 0.81836 0.43256 0.96648 0.0
C22 C 0.80525 0.44201 0.99492 0.0
C23 C 0.81122 0.4503 0.03877 0.0
C24 C 0.82973 0.44854 0.05375 0.0
C25 C 0.83403 0.45923 0.09951 0.0
C26 C 0.81496 0.46756 0.11001 0.0
C27 C 0.80164 0.46223 0.07458 0.0
C28 C 0.84952 0.47518 0.08919 0.0
C29 C 0.83961 0.4443 0.13769 0.0
C30 C 0.73262 0.47716 0.05093 0.0
C31 C 0.71988 0.48822 0.07659 0.0
C32 C 0.72608 0.49735 0.11935 0.0
C33 C 0.74469 0.4954 0.13624 0.0
C34 C 0.75729 0.48438 0.10985 0.0
C35 C 0.75111 0.47548 0.06797 0.0
C36 C 0.76642 0.46479 0.0436 0.0
C37 C 0.78285 0.4686 0.07776 0.0
C38 C 0.7775 0.48008 0.11665 0.0
C39 C 0.77009 0.47406 0.99387 0.0
C40 C 0.76022 0.44316 0.04184 0.0
H41 H 0.84982 0.47833 0.18209 0.0
H42 H 0.80536 0.51347 0.28449 0.0
H43 H 0.78101 0.47413 0.24864 0.0
H44 H 0.76136 0.48251 0.2168 0.0
H45 H 0.77183 0.49706 0.26412 0.0
H46 H 0.79735 0.52666 0.1747 0.0
H47 H 0.77904 0.52589 0.21907 0.0
H48 H 0.77412 0.51981 0.1573 0.0
H49 H 0.85742 0.43839 0.0384 0.0
H50 H 0.81384 0.42672 0.9321 0.0
H51 H 0.7911 0.44287 0.98115 0.0
H52 H 0.84955 0.4795 0.05085 0.0
H53 H 0.86389 0.47024 0.0979 0.0
H54 H 0.84714 0.48872 0.10883 0.0
H55 H 0.83047 0.43093 0.13456 0.0
H56 H 0.83766 0.44935 0.17476 0.0
H57 H 0.85454 0.44023 0.13312 0.0
H58 H 0.86128 0.49366 0.25418 0.0
C59 C 0.83975 0.48582 0.20288 0.0
C60 C 0.08933 0.80331 0.05123 0.0
C61 C 0.09506 0.82213 0.06544 0.0
C62 C 0.09171 0.82785 0.11308 0.0
C63 C 0.07486 0.79752 0.12874 0.0
C64 C 0.07909 0.79141 0.08313 0.0
C65 C 0.06999 0.77197 0.07187 0.0
H66 H 0.00997 0.69774 0.1324 0.0
C67 C 0.06192 0.78284 0.15062 0.0
C68 C 0.05901 0.76782 0.11765 0.0
H69 H 0.04368 0.70541 0.00454 0.0
H70 H 0.05695 0.7353 0.03493 0.0
H71 H 0.04341 0.71475 0.21091 0.0
H72 H 0.99787 0.74275 0.13789 0.0
H73 H 0.99909 0.75049 0.19786 0.0
H74 H 0.99329 0.72553 0.18467 0.0
H75 H 0.01888 0.70802 0.22054 0.0
H76 H 0.03002 0.72818 0.25156 0.0
C77 C 0.08599 0.75762 0.0643 0.0
C78 C 0.05662 0.77422 0.02814 0.0
C79 C 0.03388 0.7971 0.31208 0.0
C80 C 0.01951 0.78835 0.33983 0.0
C81 C 0.01071 0.77091 0.32373 0.0
C82 C 0.01641 0.7623 0.28058 0.0
C83 C 0.03074 0.77148 0.25289 0.0
C84 C 0.03908 0.78865 0.26902 0.0
C85 C 0.05289 0.79744 0.23412 0.0
C86 C 0.05195 0.78257 0.19452 0.0
C87 C 0.03909 0.76722 0.20543 0.0
C88 C 0.07269 0.79868 0.25836 0.0
C89 C 0.04536 0.81711 0.21775 0.0
C90 C 0.02028 0.70594 0.11134 0.0
C91 C 0.0257 0.69935 0.06582 0.0
C92 C 0.03909 0.71035 0.03929 0.0
C93 C 0.04686 0.72769 0.05713 0.0
C94 C 0.04109 0.73439 0.10194 0.0
C95 C 0.02808 0.72362 0.12858 0.0
C96 C 0.02353 0.73358 0.17511 0.0
C97 C 0.03635 0.75172 0.17222 0.0
C98 C 0.04643 0.75205 0.1289 0.0
C99 C 0.02913 0.72048 0.21702 0.0
C100 C 0.00231 0.73829 0.17434 0.0
H101 H 0.07929 0.82112 0.17996 0.0
H102 H 0.09193 0.79823 0.01527 0.0
H103 H 0.04961 0.78828 0.0295 0.0
H104 H 0.04482 0.76334 0.02691 0.0
H105 H 0.06459 0.77368 0.99401 0.0
H106 H 0.09881 0.76182 0.08579 0.0
H107 H 0.09032 0.75709 0.02617 0.0
H108 H 0.082 0.7429 0.07655 0.0
H109 H 0.04051 0.81079 0.32274 0.0
H110 H 0.99948 0.76399 0.34452 0.0
H111 H 0.00931 0.749 0.2701 0.0
H112 H 0.07498 0.78565 0.28041 0.0
H113 H 0.07416 0.81143 0.28236 0.0
H114 H 0.08444 0.79919 0.23237 0.0
H115 H 0.02971 0.81758 0.22164 0.0
H116 H 0.04783 0.82 0.17933 0.0
H117 H 0.05176 0.8292 0.2392 0.0
H118 H 0.09569 0.84225 0.12531 0.0
C119 C 0.08182 0.81562 0.14478 0.0
C120 C 0.808 0.01293 0.08391 0.0
C121 C 0.81643 0.02008 0.04154 0.0
C122 C 0.8063 0.03266 0.01246 0.0
C123 C 0.78007 0.03129 0.06783 0.0
C124 C 0.78988 0.01891 0.09663 0.0
C125 C 0.77893 0.0136 0.14134 0.0
H126 H 0.70058 0.0264 0.27747 0.0
C127 C 0.76196 0.03526 0.09125 0.0
C128 C 0.76124 0.0252 0.13489 0.0
H129 H 0.74574 0.98801 0.307 0.0
H130 H 0.76166 0.99825 0.23364 0.0
H131 H 0.72634 0.06263 0.23692 0.0
H132 H 0.69551 0.01424 0.17533 0.0
H133 H 0.69389 0.03245 0.13256 0.0
H134 H 0.68402 0.03585 0.19132 0.0
H135 H 0.70095 0.06033 0.23461 0.0
H136 H 0.71443 0.07119 0.18632 0.0
C137 C 0.79075 0.02042 0.18535 0.0
C138 C 0.77427 0.99167 0.14023 0.0
C139 C 0.71308 0.07431 0.00405 0.0
C140 C 0.69461 0.07942 0.01628 0.0
C141 C 0.68826 0.07612 0.06348 0.0
C142 C 0.69957 0.06692 0.09688 0.0
C143 C 0.71741 0.0607 0.08312 0.0
C144 C 0.72417 0.06493 0.03791 0.0
C145 C 0.74357 0.05726 0.03004 0.0
C146 C 0.74675 0.04679 0.07705 0.0
C147 C 0.73135 0.04884 0.10771 0.0
C148 C 0.7578 0.07464 0.02339 0.0
C149 C 0.74238 0.04315 0.987 0.0
C150 C 0.7141 0.02047 0.26873 0.0
C151 C 0.72213 0.00671 0.29839 0.0
C152 C 0.73937 0.99877 0.28474 0.0
C153 C 0.74855 0.00472 0.24222 0.0
C154 C 0.74019 0.01851 0.21278 0.0
C155 C 0.72315 0.02595 0.22635 0.0
C156 C 0.71533 0.03922 0.18972 0.0
C157 C 0.73064 0.03898 0.15206 0.0
C158 C 0.74534 0.02701 0.16559 0.0
C159 C 0.71401 0.05942 0.21285 0.0
C160 C 0.69615 0.03018 0.17128 0.0
H161 H 0.78135 0.04786 0.00153 0.0
H162 H 0.81552 0.00333 0.10708 0.0
H163 H 0.77078 0.98675 0.10318 0.0
H164 H 0.76169 0.9875 0.16166 0.0
H165 H 0.78652 0.98351 0.15294 0.0
H166 H 0.79689 0.03522 0.17951 0.0
H167 H 0.80265 0.01076 0.19194 0.0
H168 H 0.78227 0.02122 0.21826 0.0
H169 H 0.71855 0.07692 0.9684 0.0
H170 H 0.67408 0.07964 0.07406 0.0
H171 H 0.69363 0.06438 0.13164 0.0
H172 H 0.75254 0.088 0.03988 0.0
H173 H 0.76033 0.07769 0.98489 0.0
H174 H 0.77154 0.07246 0.04144 0.0
H175 H 0.72933 0.03369 0.98917 0.0
H176 H 0.75423 0.03329 0.98577 0.0
H177 H 0.74192 0.05109 0.95258 0.0
H178 H 0.81238 0.03815 0.97942 0.0
C179 C 0.78824 0.03827 0.02531 0.0
C180 C 0.53538 0.7176 0.32301 0.0
C181 C 0.52883 0.70133 0.34917 0.0
C182 C 0.51288 0.69048 0.3326 0.0
C183 C 0.51093 0.71082 0.26307 0.0
C184 C 0.5259 0.7223 0.2803 0.0
C185 C 0.52979 0.73952 0.24823 0.0
H186 H 0.50748 0.78645 0.04238 0.0
C187 C 0.50488 0.71847 0.21669 0.0
C188 C 0.51555 0.73556 0.20774 0.0
H189 H 0.54686 0.80648 0.15201 0.0
H190 H 0.54103 0.77672 0.19644 0.0
H191 H 0.52162 0.74472 0.03846 0.0
H192 H 0.47491 0.76935 0.11127 0.0
H193 H 0.46661 0.74775 0.0838 0.0
H194 H 0.47646 0.76693 0.04739 0.0
H195 H 0.4995 0.74819 0.00866 0.0
H196 H 0.50397 0.72628 0.04076 0.0
C197 C 0.55045 0.73911 0.2305 0.0
C198 C 0.52535 0.75789 0.27675 0.0
C199 C 0.46079 0.67683 0.11265 0.0
C200 C 0.45546 0.67794 0.06421 0.0
C201 C 0.4596 0.69521 0.03914 0.0
C202 C 0.46986 0.71053 0.06109 0.0
C203 C 0.4763 0.70856 0.10845 0.0
C204 C 0.47145 0.69203 0.1336 0.0
C205 C 0.48048 0.69181 0.18236 0.0
C206 C 0.492 0.71074 0.18187 0.0
C207 C 0.48937 0.72053 0.13879 0.0
C208 C 0.49327 0.67416 0.18458 0.0
C209 C 0.46449 0.69176 0.22034 0.0
C210 C 0.5147 0.78457 0.07626 0.0
C211 C 0.52729 0.79897 0.09429 0.0
C212 C 0.53695 0.79563 0.13764 0.0
C213 C 0.53341 0.77846 0.1635 0.0
C214 C 0.52016 0.76451 0.14563 0.0
C215 C 0.51132 0.76768 0.10225 0.0
C216 C 0.49807 0.75135 0.08741 0.0
C217 C 0.49945 0.73823 0.13027 0.0
C218 C 0.51251 0.7458 0.16437 0.0
C219 C 0.50601 0.74215 0.04132 0.0
C220 C 0.47792 0.75913 0.0818 0.0
H221 H 0.49209 0.68604 0.27911 0.0
H222 H 0.54743 0.72635 0.33554 0.0
H223 H 0.51273 0.75531 0.2999 0.0
H224 H 0.52172 0.77002 0.25349 0.0
H225 H 0.53745 0.76245 0.30026 0.0
H226 H 0.55374 0.72438 0.21824 0.0
H227 H 0.56057 0.74329 0.25964 0.0
H228 H 0.55318 0.74869 0.19966 0.0
H229 H 0.45759 0.66395 0.13331 0.0
H230 H 0.45585 0.69652 0.00169 0.0
H231 H 0.47296 0.72306 0.03972 0.0
H232 H 0.50104 0.67251 0.15033 0.0
H233 H 0.4847 0.66066 0.19072 0.0
H234 H 0.5044 0.67536 0.2123 0.0
H235 H 0.45123 0.69763 0.20569 0.0
H236 H 0.4682 0.70116 0.25137 0.0
H237 H 0.46096 0.67696 0.23329 0.0
H238 H 0.50766 0.67791 0.3521 0.0
C239 C 0.50392 0.69514 0.28996 0.0
C240 C 0.30501 0.525 0.27703 0.0
C241 C 0.31196 0.5316 0.32175 0.0
C242 C 0.30246 0.54618 0.3458 0.0
C243 C 0.27897 0.54674 0.28256 0.0
C244 C 0.28846 0.53274 0.2582 0.0
C245 C 0.27847 0.52697 0.21215 0.0
H246 H 0.20427 0.53863 0.0601 0.0
C247 C 0.26203 0.55142 0.25447 0.0
C248 C 0.26171 0.54007 0.21273 0.0
H249 H 0.2477 0.49699 0.04852 0.0
H250 H 0.26306 0.50998 0.12052 0.0
H251 H 0.19641 0.53092 0.16131 0.0
H252 H 0.23128 0.57603 0.09919 0.0
H253 H 0.21751 0.58638 0.14421 0.0
H254 H 0.20591 0.57415 0.09449 0.0
H255 H 0.18659 0.55301 0.14221 0.0
H256 H 0.19545 0.54992 0.20232 0.0
C257 C 0.2721 0.50543 0.2157 0.0
C258 C 0.29199 0.53165 0.17004 0.0
C259 C 0.21334 0.59476 0.32639 0.0
C260 C 0.19498 0.59938 0.31141 0.0
C261 C 0.18947 0.59518 0.26374 0.0
C262 C 0.20133 0.5853 0.23303 0.0
C263 C 0.2188 0.57917 0.25016 0.0
C264 C 0.22483 0.58444 0.29557 0.0
C265 C 0.24353 0.57605 0.30819 0.0
C266 C 0.24722 0.56415 0.26368 0.0
C267 C 0.23267 0.56605 0.22995 0.0
C268 C 0.2406 0.56326 0.3532 0.0
C269 C 0.25842 0.59289 0.31448 0.0
C270 C 0.21734 0.53263 0.07259 0.0
C271 C 0.22508 0.51711 0.04856 0.0
C272 C 0.24168 0.50912 0.06653 0.0
C273 C 0.25046 0.51662 0.10831 0.0
C274 C 0.24224 0.53193 0.13279 0.0
C275 C 0.2259 0.53958 0.11471 0.0
C276 C 0.21795 0.55441 0.14722 0.0
C277 C 0.23243 0.55487 0.1874 0.0
C278 C 0.24676 0.54181 0.17883 0.0
C279 C 0.19805 0.54687 0.16408 0.0
C280 C 0.21799 0.57381 0.12004 0.0
H281 H 0.27955 0.56482 0.3467 0.0
H282 H 0.312 0.51377 0.2578 0.0
H283 H 0.29905 0.54613 0.17496 0.0
H284 H 0.28459 0.53217 0.13524 0.0
H285 H 0.30323 0.52095 0.16772 0.0
H286 H 0.26816 0.50155 0.25307 0.0
H287 H 0.28363 0.49598 0.2046 0.0
H288 H 0.25927 0.50181 0.19429 0.0
H289 H 0.21828 0.59811 0.36231 0.0
H290 H 0.17546 0.59834 0.25083 0.0
H291 H 0.196 0.582 0.19784 0.0
H292 H 0.22671 0.55515 0.35141 0.0
H293 H 0.24078 0.57212 0.38635 0.0
H294 H 0.25118 0.55211 0.35687 0.0
H295 H 0.25492 0.60542 0.29183 0.0
H296 H 0.27273 0.58905 0.30275 0.0
H297 H 0.25914 0.59795 0.35221 0.0
H298 H 0.30773 0.55174 0.37982 0.0
C299 C 0.28613 0.55384 0.32638 0.0
C300 C 0.03111 0.19671 0.31866 0.0
C301 C 0.0324 0.17668 0.31518 0.0
C302 C 0.04335 0.16875 0.27877 0.0
C303 C 0.05043 0.20066 0.24751 0.0
C304 C 0.04046 0.20843 0.28482 0.0
C305 C 0.04116 0.23006 0.28379 0.0
H306 H 0.06985 0.3135 0.17744 0.0
C307 C 0.05728 0.21665 0.21668 0.0
C308 C 0.05216 0.23391 0.2379 0.0
H309 H 0.04156 0.30452 0.31295 0.0
H310 H 0.04056 0.27042 0.30038 0.0
H311 H 0.09867 0.27552 0.17986 0.0
H312 H 0.04204 0.2808 0.12234 0.0
H313 H 0.05513 0.26623 0.08435 0.0
H314 H 0.06242 0.29123 0.09251 0.0
H315 H 0.09307 0.29255 0.13401 0.0
H316 H 0.09682 0.26788 0.11915 0.0
C317 C 0.0522 0.23747 0.32889 0.0
C318 C 0.02056 0.23681 0.27996 0.0
C319 C 0.08445 0.20022 0.05615 0.0
C320 C 0.08753 0.21071 0.01401 0.0
C321 C 0.08635 0.23093 0.01535 0.0
C322 C 0.08185 0.24044 0.05833 0.0
C323 C 0.07785 0.22949 0.09973 0.0
C324 C 0.0792 0.20969 0.09777 0.0
C325 C 0.07208 0.19981 0.14207 0.0
C326 C 0.06612 0.21683 0.1713 0.0
C327 C 0.0699 0.23434 0.14725 0.0
C328 C 0.0889 0.18971 0.16576 0.0
C329 C 0.05499 0.18612 0.12791 0.0
C330 C 0.06359 0.30402 0.20423 0.0
C331 C 0.05582 0.31159 0.24639 0.0
C332 C 0.04752 0.29897 0.28024 0.0
C333 C 0.04706 0.27913 0.27301 0.0
C334 C 0.05487 0.27164 0.23124 0.0
C335 C 0.0628 0.28388 0.19718 0.0
C336 C 0.06933 0.27282 0.15388 0.0
C337 C 0.06552 0.25204 0.1699 0.0
C338 C 0.0568 0.25166 0.21504 0.0
C339 C 0.09063 0.27743 0.14598 0.0
C340 C 0.05674 0.27805 0.11072 0.0
H341 H 0.0602 0.17373 0.21733 0.0
H342 H 0.02308 0.20307 0.34718 0.0
H343 H 0.01212 0.22748 0.25466 0.0
H344 H 0.01965 0.25154 0.26566 0.0
H345 H 0.01341 0.2361 0.31528 0.0
H346 H 0.06148 0.22637 0.34383 0.0
H347 H 0.04239 0.2416 0.35778 0.0
H348 H 0.06202 0.24986 0.32092 0.0
H349 H 0.08455 0.18462 0.05583 0.0
H350 H 0.0885 0.23928 0.98299 0.0
H351 H 0.08108 0.25582 0.05746 0.0
H352 H 0.10234 0.19841 0.1614 0.0
H353 H 0.09094 0.17537 0.14932 0.0
H354 H 0.08724 0.18801 0.20487 0.0
H355 H 0.04743 0.19152 0.09589 0.0
H356 H 0.04393 0.18501 0.15564 0.0
H357 H 0.05968 0.17145 0.11926 0.0
H358 H 0.04457 0.15329 0.27605 0.0
C359 C 0.05236 0.18064 0.24481 0.0
C360 C 0.30743 0.99621 0.06245 0.0
C361 C 0.3239 0.98948 0.04072 0.0
C362 C 0.33346 0.97435 0.06215 0.0
C363 C 0.311 0.97323 0.12708 0.0
C364 C 0.30105 0.98762 0.10546 0.0
C365 C 0.28336 0.99191 0.13328 0.0
H366 H 0.23132 0.97645 0.33587 0.0
C367 C 0.30139 0.96769 0.17192 0.0
C368 C 0.28494 0.97831 0.17583 0.0
H369 H 0.21748 0.01313 0.21725 0.0
H370 H 0.24588 0.00376 0.17552 0.0
H371 H 0.243 0.941 0.27354 0.0
H372 H 0.27515 0.98789 0.33907 0.0
H373 H 0.28831 0.9673 0.34739 0.0
H374 H 0.26497 0.96821 0.37294 0.0
H375 H 0.24741 0.94222 0.33681 0.0
H376 H 0.26372 0.93124 0.29644 0.0
C377 C 0.26593 0.98657 0.10153 0.0
C378 C 0.28463 0.01327 0.14886 0.0
C379 C 0.33505 0.92468 0.28841 0.0
C380 C 0.33108 0.91888 0.33558 0.0
C381 C 0.31319 0.92258 0.35505 0.0
C382 C 0.29999 0.93295 0.32905 0.0
C383 C 0.30475 0.93982 0.28316 0.0
C384 C 0.32179 0.93516 0.26311 0.0
C385 C 0.32463 0.94389 0.2144 0.0
C386 C 0.30672 0.95513 0.20918 0.0
C387 C 0.29522 0.95277 0.24957 0.0
C388 C 0.3254 0.92727 0.1773 0.0
C389 C 0.3427 0.95734 0.2165 0.0
C390 C 0.23444 0.98261 0.30104 0.0
C391 C 0.22233 0.99573 0.2801 0.0
C392 C 0.22667 0.00302 0.23415 0.0
C393 C 0.24314 0.99757 0.21008 0.0
C394 C 0.25524 0.98453 0.23199 0.0
C395 C 0.25058 0.97718 0.27657 0.0
C396 C 0.26461 0.9633 0.29472 0.0
C397 C 0.27847 0.96324 0.25362 0.0
C398 C 0.27317 0.97585 0.21693 0.0
C399 C 0.25426 0.94338 0.30117 0.0
C400 C 0.27373 0.97191 0.34111 0.0
H401 H 0.33525 0.95493 0.11954 0.0
H402 H 0.29968 0.00765 0.04615 0.0
H403 H 0.29887 0.01701 0.16423 0.0
H404 H 0.27433 0.01663 0.17688 0.0
H405 H 0.28236 0.02289 0.11782 0.0
H406 H 0.26838 0.97342 0.08001 0.0
H407 H 0.26291 0.99839 0.07625 0.0
H408 H 0.25309 0.98302 0.12261 0.0
H409 H 0.34871 0.92227 0.27251 0.0
H410 H 0.30967 0.91803 0.39109 0.0
H411 H 0.28686 0.93575 0.34639 0.0
H412 H 0.3182 0.9138 0.19065 0.0
H413 H 0.34025 0.92386 0.16885 0.0
H414 H 0.31781 0.93051 0.14365 0.0
H415 H 0.34334 0.96555 0.25076 0.0
H416 H 0.34323 0.96839 0.18828 0.0
H417 H 0.35571 0.94893 0.2142 0.0
H418 H 0.34616 0.96901 0.04598 0.0
C419 C 0.32712 0.96622 0.10499 0.0
C420 C 0.45863 0.27173 0.03567 0.0
C421 C 0.45631 0.29136 0.02477 0.0
C422 C 0.45854 0.3052 0.0614 0.0
C423 C 0.46812 0.28078 0.11653 0.0
C424 C 0.46407 0.26671 0.08261 0.0
C425 C 0.46629 0.24678 0.10345 0.0
H426 H 0.494 0.19449 0.29738 0.0
C427 C 0.47594 0.27169 0.15925 0.0
C428 C 0.47459 0.25162 0.1529 0.0
H429 H 0.46523 0.17213 0.17134 0.0
H430 H 0.46658 0.20428 0.13568 0.0
H431 H 0.52366 0.22084 0.24126 0.0
H432 H 0.47114 0.23218 0.31084 0.0
H433 H 0.48817 0.2501 0.32838 0.0
H434 H 0.49225 0.22533 0.34146 0.0
H435 H 0.52272 0.22557 0.30426 0.0
H436 H 0.52614 0.24477 0.26124 0.0
C437 C 0.48017 0.23564 0.07237 0.0
C438 C 0.44635 0.23689 0.1068 0.0
C439 C 0.5098 0.31459 0.28186 0.0
C440 C 0.5209 0.31083 0.32226 0.0
C441 C 0.52358 0.29162 0.33574 0.0
C442 C 0.51499 0.27635 0.30953 0.0
C443 C 0.50378 0.28039 0.26921 0.0
C444 C 0.50156 0.29927 0.25583 0.0
C445 C 0.49003 0.301 0.21097 0.0
C446 C 0.48574 0.27993 0.19918 0.0
C447 C 0.49358 0.268 0.23364 0.0
C448 C 0.5029 0.31111 0.17302 0.0
C449 C 0.47182 0.31181 0.22329 0.0
C450 C 0.48789 0.19654 0.26218 0.0
C451 C 0.47912 0.18103 0.23753 0.0
C452 C 0.47182 0.18404 0.19117 0.0
C453 C 0.4724 0.20267 0.17095 0.0
C454 C 0.48035 0.21829 0.19752 0.0
C455 C 0.48831 0.21484 0.2419 0.0
C456 C 0.49655 0.23269 0.26533 0.0
C457 C 0.491 0.24776 0.22963 0.0
C458 C 0.48163 0.23944 0.18949 0.0
C459 C 0.51837 0.23096 0.26861 0.0
C460 C 0.48666 0.23528 0.31424 0.0
H461 H 0.4664 0.31139 0.1326 0.0
H462 H 0.45653 0.26076 0.00836 0.0
H463 H 0.4357 0.24737 0.11798 0.0
H464 H 0.44552 0.22541 0.13396 0.0
H465 H 0.44178 0.23079 0.0716 0.0
H466 H 0.49325 0.24464 0.06559 0.0
H467 H 0.47366 0.2317 0.03724 0.0
H468 H 0.48469 0.22235 0.08984 0.0
H469 H 0.50775 0.32924 0.27032 0.0
H470 H 0.53205 0.28846 0.36697 0.0
H471 H 0.51729 0.26203 0.32186 0.0
H472 H 0.51719 0.30491 0.17305 0.0
H473 H 0.50477 0.32676 0.18078 0.0
H474 H 0.49764 0.30942 0.13606 0.0
H475 H 0.46872 0.31149 0.26231 0.0
H476 H 0.45899 0.30503 0.20628 0.0
H477 H 0.47313 0.32718 0.21251 0.0
H478 H 0.45682 0.32034 0.05402 0.0
C479 C 0.46437 0.30002 0.107 0.0
O480 O 0.06797 0.0042 0.64286 0.0
Zn481 Zn 0.05192 0.00415 0.70288 0.0
O482 O 0.02508 0.99764 0.6879 0.0
Zn483 Zn 0.00983 0.01902 0.70713 0.0
Zn484 Zn 0.02221 0.99312 0.61884 0.0
Zn485 Zn 0.01588 0.97462 0.72275 0.0
O486 O 0.99046 0.01127 0.75649 0.0
O487 O 0.99319 0.9798 0.76524 0.0
O488 O 0.05537 0.03085 0.7331 0.0
O489 O 0.02598 0.04101 0.73356 0.0
O490 O 0.99613 0.02959 0.65103 0.0
O491 O 0.00453 0.01189 0.58907 0.0
O492 O 0.01271 0.96589 0.60518 0.0
O493 O 0.06218 0.9845 0.74843 0.0
O494 O 0.00888 0.95265 0.67691 0.0
O495 O 0.03683 0.96564 0.76513 0.0
C496 C 0.06417 0.00118 0.59875 0.0
C497 C 0.98512 0.99536 0.77558 0.0
C498 C 0.99532 0.02562 0.60659 0.0
C499 C 0.0436 0.04384 0.74199 0.0
C500 C 0.00829 0.95141 0.63135 0.0
C501 C 0.05431 0.9704 0.77088 0.0
O502 O 0.04731 0.99688 0.58491 0.0
O503 O 0.50657 0.03231 0.6141 0.0
Zn504 Zn 0.51067 0.01753 0.67567 0.0
O505 O 0.51874 0.99121 0.66164 0.0
Zn506 Zn 0.49975 0.9726 0.68539 0.0
Zn507 Zn 0.52157 0.98796 0.59223 0.0
Zn508 Zn 0.54282 0.98614 0.69362 0.0
O509 O 0.51024 0.95549 0.73596 0.0
O510 O 0.54086 0.9636 0.73995 0.0
O511 O 0.48568 0.01705 0.7124 0.0
O512 O 0.47775 0.98583 0.71415 0.0
O513 O 0.48959 0.95557 0.63263 0.0
O514 O 0.50431 0.96623 0.56722 0.0
O515 O 0.54869 0.98275 0.57519 0.0
O516 O 0.53076 0.03213 0.71521 0.0
O517 O 0.5635 0.98146 0.64533 0.0
O518 O 0.5512 0.00942 0.73168 0.0
C519 C 0.50873 0.02831 0.56992 0.0
C520 C 0.52664 0.9532 0.75359 0.0
C521 C 0.49251 0.95467 0.58779 0.0
C522 C 0.47411 0.00323 0.72355 0.0
C523 C 0.56373 0.98064 0.59973 0.0
C524 C 0.54568 0.02656 0.73605 0.0
O525 O 0.51452 0.01199 0.55684 0.0
O526 O 0.47298 0.49274 0.6487 0.0
Zn527 Zn 0.48969 0.49193 0.70767 0.0
O528 O 0.51635 0.49781 0.68997 0.0
Zn529 Zn 0.53149 0.47628 0.70883 0.0
Zn530 Zn 0.51847 0.50202 0.62076 0.0
Zn531 Zn 0.52632 0.52094 0.72293 0.0
O532 O 0.55068 0.4838 0.75957 0.0
O533 O 0.5472 0.51511 0.7701 0.0
O534 O 0.48595 0.46509 0.73701 0.0
O535 O 0.51513 0.45445 0.73432 0.0
O536 O 0.54496 0.46553 0.65264 0.0
O537 O 0.53525 0.48257 0.59069 0.0
O538 O 0.52952 0.52855 0.6057 0.0
O539 O 0.48027 0.51227 0.75309 0.0
O540 O 0.53624 0.54134 0.67686 0.0
O541 O 0.50526 0.53268 0.75879 0.0
C542 C 0.47602 0.49594 0.60441 0.0
C543 C 0.55533 0.4996 0.78049 0.0
C544 C 0.54494 0.46914 0.60802 0.0
C545 C 0.49763 0.4518 0.74391 0.0
C546 C 0.53614 0.54246 0.63135 0.0
C547 C 0.48809 0.52797 0.76848 0.0
O548 O 0.49272 0.49958 0.58889 0.0
O549 O 0.99239 0.52601 0.6174 0.0
Zn550 Zn 0.01785 0.52712 0.65196 0.0
O551 O 0.02681 0.501 0.66416 0.0
Zn552 Zn 0.02889 0.49678 0.7333 0.0
Zn553 Zn 0.00897 0.48176 0.63689 0.0
Zn554 Zn 0.05149 0.49785 0.63427 0.0
O555 O 0.05559 0.49035 0.75187 0.0
O556 O 0.07179 0.49345 0.68408 0.0
O557 O 0.01474 0.54165 0.71416 0.0
O558 O 0.02259 0.52078 0.77021 0.0
O559 O 0.01075 0.4754 0.755 0.0
O560 O 0.99867 0.46362 0.68704 0.0
O561 O 0.02069 0.46632 0.58415 0.0
O562 O 0.03663 0.54263 0.61149 0.0
O563 O 0.05096 0.47608 0.58574 0.0
O564 O 0.05906 0.52173 0.59796 0.0
C565 C 0.98158 0.51183 0.60423 0.0
C566 C 0.07116 0.49027 0.72898 0.0
C567 C 1.00002 0.46327 0.73247 0.0
C568 C 0.01718 0.53736 0.75806 0.0
C569 C 0.03754 0.46534 0.56851 0.0
C570 C 0.0522 0.53823 0.59226 0.0
O571 O 0.98632 0.49451 0.61 0.0
C572 C 0.1872 1.00021 0.28552 0.0
C573 C 0.20527 0.00137 0.30683 0.0
C574 C 0.17097 0.00284 0.31316 0.0
C575 C 0.15464 0.02139 0.43057 0.0
H576 H 0.11406 0.98258 0.41588 0.0
C577 C 0.09842 0.00718 0.57696 0.0
C578 C 0.0796 0.00278 0.56275 0.0
C579 C 0.11293 0.00866 0.54307 0.0
C580 C 0.1251 0.99372 0.42006 0.0
H581 H 0.2206 0.00731 0.37294 0.0
H582 H 0.19246 0.01188 0.42096 0.0
H583 H 0.14056 0.98326 0.36023 0.0
H584 H 0.06137 0.99663 0.50136 0.0
H585 H 0.08665 0.99936 0.4424 0.0
H586 H 0.13935 0.03168 0.49083 0.0
C587 C 0.1907 0.00895 0.38307 0.0
C588 C 0.1403 0.99413 0.38803 0.0
C589 C 0.20684 0.00619 0.35562 0.0
C590 C 0.07569 0.99997 0.51373 0.0
C591 C 0.09021 0.00145 0.47984 0.0
C592 C 0.13944 0.021 0.46253 0.0
C593 C 0.17253 0.00689 0.3625 0.0
C594 C 0.15542 0.00778 0.39335 0.0
C595 C 0.10903 0.00579 0.49406 0.0
C596 C 0.12462 0.00697 0.45818 0.0
H597 H 0.18557 0.99643 0.24805 0.0
H598 H 0.15718 0.00137 0.29611 0.0
H599 H 0.1659 0.03228 0.43526 0.0
H600 H 0.102 0.0094 0.61435 0.0
H601 H 0.12729 0.01173 0.55546 0.0
C602 C 0.48637 0.14604 0.24621 0.0
C603 C 0.47714 0.16231 0.26262 0.0
C604 C 0.48796 0.12992 0.27602 0.0
C605 C 0.49013 0.11949 0.40446 0.0
H606 H 0.48509 0.06569 0.36808 0.0
C607 C 0.49506 0.05965 0.5454 0.0
C608 C 0.50431 0.04283 0.53294 0.0
C609 C 0.4909 0.07332 0.51063 0.0
C610 C 0.48678 0.08066 0.3787 0.0
H611 H 0.46116 0.17406 0.321 0.0
H612 H 0.46362 0.14599 0.37245 0.0
H613 H 0.47873 0.09064 0.30899 0.0
H614 H 0.51641 0.02725 0.47381 0.0
H615 H 0.5096 0.05132 0.41347 0.0
H616 H 0.49857 0.10982 0.47352 0.0
C617 C 0.46998 0.14571 0.33725 0.0
C618 C 0.48307 0.09492 0.34483 0.0
C619 C 0.46842 0.1617 0.30767 0.0
C620 C 0.50923 0.04001 0.48473 0.0
C621 C 0.50519 0.05377 0.44998 0.0
C622 C 0.49396 0.10532 0.43806 0.0
C623 C 0.48038 0.12993 0.32259 0.0
C624 C 0.48452 0.1145 0.35755 0.0
C625 C 0.49604 0.07067 0.46248 0.0
C626 C 0.49219 0.08568 0.42589 0.0
H627 H 0.49335 0.14628 0.21176 0.0
H628 H 0.49606 0.11797 0.26375 0.0
H629 H 0.49182 0.13446 0.41513 0.0
H630 H 0.49088 0.06223 0.58205 0.0
H631 H 0.48349 0.08594 0.52157 0.0
C632 C 0.32852 0.51833 0.39299 0.0
C633 C 0.3289 0.52337 0.34432 0.0
C634 C 0.34482 0.51226 0.41597 0.0
C635 C 0.39646 0.51747 0.40988 0.0
H636 H 0.3946 0.47742 0.50636 0.0
C637 C 0.46261 0.49908 0.5213 0.0
C638 C 0.45972 0.49607 0.57058 0.0
C639 C 0.4472 0.50007 0.48985 0.0
C640 C 0.39535 0.48874 0.47978 0.0
H641 H 0.34649 0.52547 0.28112 0.0
H642 H 0.37519 0.51486 0.32148 0.0
H643 H 0.36662 0.48292 0.45752 0.0
H644 H 0.43824 0.49147 0.62514 0.0
H645 H 0.41148 0.49352 0.57058 0.0
H646 H 0.42497 0.52373 0.43305 0.0
C647 C 0.36222 0.5157 0.34182 0.0
C648 C 0.37932 0.49184 0.45168 0.0
C649 C 0.3458 0.52161 0.31864 0.0
C650 C 0.44104 0.49375 0.58742 0.0
C651 C 0.42565 0.4948 0.55602 0.0
C652 C 0.41247 0.51443 0.43814 0.0
C653 C 0.36195 0.51119 0.39092 0.0
C654 C 0.37958 0.50646 0.41699 0.0
C655 C 0.42851 0.49812 0.50686 0.0
C656 C 0.41202 0.50025 0.47404 0.0
H657 H 0.31564 0.51937 0.41357 0.0
H658 H 0.34415 0.50908 0.45388 0.0
H659 H 0.39706 0.52901 0.38387 0.0
H660 H 0.47679 0.50083 0.50698 0.0
H661 H 0.44994 0.50239 0.45214 0.0
C662 C 0.07352 0.34229 0.26809 0.0
C663 C 0.05629 0.33243 0.25745 0.0
C664 C 0.07365 0.36007 0.292 0.0
C665 C 0.04239 0.39891 0.33442 0.0
H666 H 0.0759 0.40025 0.44483 0.0
C667 C 0.02641 0.44185 0.50496 0.0
C668 C 0.04142 0.45192 0.52852 0.0
C669 C 0.02991 0.42958 0.46654 0.0
C670 C 0.06665 0.4003 0.41381 0.0
H671 H 0.02578 0.33383 0.26012 0.0
H672 H 0.02588 0.36471 0.30124 0.0
H673 H 0.07943 0.37572 0.38338 0.0
H674 H 0.07196 0.45685 0.52997 0.0
H675 H 0.07803 0.43525 0.46306 0.0
H676 H 0.02914 0.42304 0.36595 0.0
C677 C 0.03935 0.35901 0.29118 0.0
C678 C 0.06872 0.38626 0.37837 0.0
C679 C 0.03924 0.34128 0.26757 0.0
C680 C 0.06005 0.44931 0.51275 0.0
C681 C 0.06355 0.4369 0.47447 0.0
C682 C 0.04026 0.41287 0.36995 0.0
C683 C 0.05653 0.36828 0.30547 0.0
C684 C 0.05631 0.38509 0.33878 0.0
C685 C 0.0485 0.42695 0.45078 0.0
C686 C 0.05207 0.41344 0.41064 0.0
H687 H 0.08684 0.33561 0.26112 0.0
H688 H 0.08714 0.36696 0.30184 0.0
H689 H 0.03279 0.39867 0.30404 0.0
H690 H 0.01189 0.44349 0.51601 0.0
H691 H 0.01801 0.4219 0.44962 0.0
C692 C 0.84103 0.99572 0.02434 0.0
C693 C 0.83583 0.015 0.02716 0.0
C694 C 0.85861 0.99111 0.00512 0.0
C695 C 0.90602 0.01254 0.9735 0.0
H696 H 0.90569 0.97356 0.8739 0.0
C697 C 0.96214 0.01277 0.82622 0.0
C698 C 0.96927 0.99525 0.81042 0.0
C699 C 0.94713 0.01301 0.8585 0.0
C700 C 0.90612 0.98426 0.90219 0.0
H701 H 0.84528 0.04458 0.01455 0.0
H702 H 0.87576 0.03666 0.98131 0.0
H703 H 0.87727 0.97773 0.92189 0.0
H704 H 0.9661 0.96418 0.81655 0.0
H705 H 0.93966 0.96464 0.87302 0.0
H706 H 0.93463 0.01948 0.95297 0.0
C707 C 0.8664 0.02503 0.99379 0.0
C708 C 0.88984 0.98663 0.92975 0.0
C709 C 0.84885 0.02958 0.01249 0.0
C710 C 0.96098 0.97793 0.82796 0.0
C711 C 0.94579 0.97818 0.86016 0.0
C712 C 0.92224 0.01018 0.946 0.0
C713 C 0.8714 0.00574 0.98906 0.0
C714 C 0.88944 0.00118 0.96483 0.0
C715 C 0.93873 0.99575 0.87586 0.0
C716 C 0.92233 0.99639 0.9091 0.0
H717 H 0.83121 0.98419 0.03524 0.0
H718 H 0.86211 0.97612 0.00228 0.0
H719 H 0.90632 0.02361 0.00088 0.0
H720 H 0.96811 0.02641 0.81357 0.0
H721 H 0.94185 0.0268 0.86915 0.0
C722 C 0.51348 0.82617 0.0498 0.0
C723 C 0.52964 0.81736 0.06754 0.0
C724 C 0.51521 0.8417 0.01848 0.0
C725 C 0.54653 0.8803 0.97057 0.0
H726 H 0.51385 0.8739 0.8592 0.0
C727 C 0.54685 0.93403 0.80946 0.0
C728 C 0.52893 0.93816 0.79069 0.0
C729 C 0.54869 0.91956 0.84395 0.0
C730 C 0.52295 0.87604 0.89023 0.0
H731 H 0.56033 0.81874 0.06886 0.0
H732 H 0.56339 0.84627 0.01378 0.0
H733 H 0.51395 0.8489 0.91979 0.0
H734 H 0.49886 0.93054 0.79463 0.0
H735 H 0.50203 0.90575 0.85458 0.0
H736 H 0.55524 0.90773 0.94103 0.0
C737 C 0.54939 0.84096 0.02418 0.0
C738 C 0.52303 0.86168 0.92495 0.0
C739 C 0.54765 0.82527 0.05571 0.0
C740 C 0.51292 0.92768 0.80775 0.0
C741 C 0.51475 0.91333 0.84208 0.0
C742 C 0.54638 0.89483 0.93573 0.0
C743 C 0.53314 0.8489 0.00408 0.0
C744 C 0.5345 0.86378 0.96599 0.0
C745 C 0.53264 0.9089 0.86028 0.0
C746 C 0.53426 0.89302 0.89563 0.0
H747 H 0.49942 0.82065 0.05908 0.0
H748 H 0.50243 0.84781 0.00455 0.0
H749 H 0.55553 0.88228 0.00183 0.0
H750 H 0.55948 0.94185 0.79721 0.0
H751 H 0.56269 0.91646 0.85709 0.0
C752 C 0.69253 0.50871 0.05524 0.0
C753 C 0.70042 0.49048 0.0576 0.0
C754 C 0.67507 0.51101 0.03241 0.0
C755 C 0.63225 0.48393 0.98677 0.0
H756 H 0.63018 0.52545 0.89464 0.0
C757 C 0.57884 0.48258 0.83092 0.0
C758 C 0.5705 0.49981 0.8175 0.0
C759 C 0.59325 0.48264 0.8653 0.0
C760 C 0.63038 0.51397 0.92075 0.0
H761 H 0.69575 0.46025 0.04021 0.0
H762 H 0.6655 0.46424 1.00015 0.0
H763 H 0.65767 0.52347 0.94736 0.0
H764 H 0.57075 0.53065 0.8302 0.0
H765 H 0.59597 0.5307 0.8904 0.0
H766 H 0.60518 0.47416 0.95941 0.0
C767 C 0.67269 0.47678 0.01596 0.0
C768 C 0.64613 0.51284 0.95104 0.0
C769 C 0.69013 0.47451 0.03851 0.0
C770 C 0.57688 0.51711 0.83959 0.0
C771 C 0.59138 0.51716 0.87396 0.0
C772 C 0.61652 0.48505 0.95651 0.0
C773 C 0.66509 0.4951 0.01185 0.0
C774 C 0.64742 0.49758 0.98372 0.0
C775 C 0.59975 0.49991 0.88716 0.0
C776 C 0.61558 0.49985 0.92246 0.0
H777 H 0.70019 0.5213 0.06941 0.0
H778 H 0.66951 0.52529 0.03025 0.0
H779 H 0.63265 0.47219 0.01214 0.0
H780 H 0.57432 0.46898 0.81469 0.0
H781 H 0.59958 0.46913 0.87403 0.0
C782 C 0.01071 0.68109 0.99771 0.0
C783 C 0.01784 0.68112 0.04473 0.0
C784 C 0.0066 0.66379 0.97368 0.0
C785 C 0.02213 0.61422 0.9709 0.0
H786 H 0.9825 0.60776 0.87501 0.0
C787 C 0.01747 0.54808 0.84421 0.0
C788 C 0.01407 0.55209 0.79562 0.0
C789 C 0.01526 0.56222 0.87931 0.0
C790 C 0.9937 0.60937 0.90151 0.0
H791 H 0.0253 0.66314 0.10451 0.0
H792 H 0.018 0.63265 0.06245 0.0
H793 H 0.98236 0.63513 0.92988 0.0
H794 H 0.00531 0.57412 0.74619 0.0
H795 H 0.00167 0.59874 0.80718 0.0
H796 H 0.0338 0.5888 0.94166 0.0
C797 C 0.01574 0.64608 0.04408 0.0
C798 C 0.99358 0.62503 0.93306 0.0
C799 C 0.01973 0.66348 0.06833 0.0
C800 C 0.00806 0.57048 0.78319 0.0
C801 C 0.00583 0.58459 0.81828 0.0
C802 C 0.02225 0.59855 0.93935 0.0
C803 C 0.00961 0.64605 0.99599 0.0
C804 C 0.00805 0.62791 0.96742 0.0
C805 C 0.00955 0.5807 0.86675 0.0
C806 C 0.00827 0.59618 0.90352 0.0
H807 H 0.0091 0.69451 0.97876 0.0
H808 H 0.00209 0.66437 0.93662 0.0
H809 H 0.03365 0.61611 0.99645 0.0
H810 H 0.02204 0.53406 0.85519 0.0
H811 H 0.01806 0.55867 0.91634 0.0
C812 C 0.00235 0.16236 0.34825 0.0
C813 C 0.02223 0.1639 0.34895 0.0
C814 C 0.99277 0.14895 0.37751 0.0
C815 C 0.98243 0.10742 0.41556 0.0
H816 H 0.99478 0.10479 0.55072 0.0
C817 C 0.9895 0.03867 0.52463 0.0
C818 C 0.98624 0.03935 0.57419 0.0
C819 C 0.98588 0.05457 0.49602 0.0
C820 C 0.99076 0.1055 0.51331 0.0
H821 H 0.04777 0.15336 0.38086 0.0
H822 H 0.031 0.1303 0.43337 0.0
H823 H 0.00527 0.13289 0.50458 0.0
H824 H 0.974 0.05605 0.63126 0.0
H825 H 0.96779 0.08375 0.58125 0.0
H826 H 0.96908 0.07934 0.42364 0.0
C827 C 0.02285 0.1393 0.41004 0.0
C828 C 0.99691 0.12152 0.48694 0.0
C829 C 0.03242 0.15237 0.3801 0.0
C830 C 0.97706 0.05521 0.59337 0.0
C831 C 0.97348 0.0711 0.56479 0.0
C832 C 0.97649 0.0912 0.44187 0.0
C833 C 0.00299 0.13731 0.40851 0.0
C834 C 0.99331 0.12232 0.43764 0.0
C835 C 0.97893 0.07136 0.51654 0.0
C836 C 0.98112 0.08986 0.49069 0.0
H837 H 0.99433 0.17111 0.32405 0.0
H838 H 0.97745 0.14756 0.3758 0.0
H839 H 0.9796 0.10776 0.37743 0.0
H840 H 0.99636 0.02658 0.5086 0.0
H841 H 0.99023 0.05436 0.45889 0.0
C842 C 0.35978 0.89907 0.34751 0.0
C843 C 0.34647 0.91159 0.3661 0.0
C844 C 0.37629 0.89538 0.37319 0.0
C845 C 0.4004 0.90387 0.4914 0.0
H846 H 0.4453 0.91157 0.41338 0.0
C847 C 0.47666 0.94524 0.51059 0.0
C848 C 0.48042 0.94122 0.55884 0.0
C849 C 0.46243 0.93475 0.48585 0.0
C850 C 0.43293 0.90936 0.43575 0.0
H851 H 0.3396 0.92922 0.42732 0.0
H852 H 0.36819 0.92297 0.47164 0.0
H853 H 0.41468 0.90552 0.37499 0.0
H854 H 0.47366 0.92185 0.61759 0.0
H855 H 0.44936 0.90307 0.57392 0.0
H856 H 0.41826 0.90945 0.55194 0.0
C857 C 0.36587 0.91566 0.43772 0.0
C858 C 0.41536 0.90558 0.41372 0.0
C859 C 0.3494 0.91927 0.4122 0.0
C860 C 0.47084 0.92547 0.5806 0.0
C861 C 0.45683 0.91478 0.55563 0.0
C862 C 0.4179 0.90789 0.51338 0.0
C863 C 0.37983 0.90419 0.41789 0.0
C864 C 0.39877 0.90363 0.44126 0.0
C865 C 0.45185 0.91983 0.50863 0.0
C866 C 0.43428 0.91148 0.48575 0.0
H867 H 0.35777 0.89272 0.3123 0.0
H868 H 0.3866 0.88621 0.35725 0.0
H869 H 0.38797 0.902 0.51373 0.0
H870 H 0.4838 0.9573 0.49286 0.0
H871 H 0.45894 0.93926 0.44992 0.0
C872 C 0.54872 0.32817 0.3615 0.0
C873 C 0.52932 0.32714 0.35002 0.0
C874 C 0.55676 0.34463 0.38381 0.0
C875 C 0.54688 0.39597 0.40487 0.0
H876 H 0.5807 0.3921 0.51367 0.0
C877 C 0.55689 0.46047 0.52681 0.0
C878 C 0.55417 0.45576 0.57519 0.0
C879 C 0.56177 0.44633 0.49394 0.0
C880 C 0.57131 0.39347 0.48323 0.0
H881 H 0.50292 0.34184 0.35488 0.0
H882 H 0.5167 0.37019 0.3947 0.0
H883 H 0.57213 0.36338 0.46685 0.0
H884 H 0.55625 0.43305 0.62792 0.0
H885 H 0.5637 0.40836 0.57088 0.0
H886 H 0.54453 0.42546 0.42316 0.0
C887 C 0.52593 0.35874 0.38506 0.0
C888 C 0.56656 0.37702 0.45609 0.0
C889 C 0.51798 0.34244 0.36265 0.0
C890 C 0.55811 0.43713 0.59079 0.0
C891 C 0.56258 0.42293 0.55788 0.0
C892 C 0.55137 0.41229 0.43226 0.0
C893 C 0.54546 0.36022 0.39505 0.0
C894 C 0.55358 0.37797 0.41802 0.0
C895 C 0.56354 0.42711 0.50868 0.0
C896 C 0.56296 0.41109 0.47315 0.0
H897 H 0.55774 0.31654 0.35183 0.0
H898 H 0.57184 0.34534 0.3912 0.0
H899 H 0.53728 0.39728 0.37478 0.0
H900 H 0.55434 0.47483 0.51392 0.0
H901 H 0.56303 0.45024 0.45657 0.0
C902 C 0.18043 0.59775 0.39312 0.0
C903 C 0.18064 0.60559 0.34669 0.0
C904 C 0.16481 0.59973 0.42281 0.0
C905 C 0.11465 0.5994 0.40755 0.0
H906 H 0.11488 0.59976 0.54642 0.0
C907 C 0.06344 0.5721 0.57358 0.0
C908 C 0.0627 0.55236 0.56219 0.0
C909 C 0.075 0.58499 0.54716 0.0
C910 C 0.11444 0.60006 0.50766 0.0
H911 H 0.16537 0.62363 0.2976 0.0
H912 H 0.13769 0.62634 0.34898 0.0
H913 H 0.14235 0.61322 0.50288 0.0
H914 H 0.07255 0.53076 0.51316 0.0
H915 H 0.09216 0.55329 0.46629 0.0
H916 H 0.08745 0.58476 0.4124 0.0
C917 C 0.1497 0.61864 0.36205 0.0
C918 C 0.13016 0.60766 0.48279 0.0
C919 C 0.1655 0.61693 0.33253 0.0
C920 C 0.07295 0.54588 0.52281 0.0
C921 C 0.08404 0.55878 0.4958 0.0
C922 C 0.09908 0.59158 0.4324 0.0
C923 C 0.14891 0.60938 0.40668 0.0
C924 C 0.13073 0.60662 0.43254 0.0
C925 C 0.08544 0.57837 0.5082 0.0
C926 C 0.09921 0.59111 0.48261 0.0
H927 H 0.1916 0.58872 0.40539 0.0
H928 H 0.16454 0.59224 0.45679 0.0
H929 H 0.11473 0.59823 0.36888 0.0
H930 H 0.05571 0.57739 0.60398 0.0
H931 H 0.076 0.60004 0.55746 0.0
C932 C 0.09386 0.83665 0.98342 0.0
C933 C 0.1019 0.83663 0.02963 0.0
C934 C 0.09694 0.85235 0.95306 0.0
C935 C 0.10135 0.90342 0.96506 0.0
H936 H 0.10344 0.90238 0.82634 0.0
C937 C 0.05703 0.94942 0.84249 0.0
C938 C 0.06571 0.95879 0.80342 0.0
C939 C 0.06727 0.93721 0.87139 0.0
C940 C 0.10322 0.903 0.86508 0.0
H941 H 0.1212 0.85234 0.0778 0.0
H942 H 0.12589 0.88016 0.02524 0.0
H943 H 0.11281 0.87424 0.87212 0.0
H944 H 0.09197 0.96302 0.76424 0.0
H945 H 0.10979 0.94091 0.81417 0.0
H946 H 0.09037 0.93158 0.95788 0.0
C947 C 0.11718 0.86794 0.01286 0.0
C948 C 0.1085 0.88692 0.8912 0.0
C949 C 0.11436 0.85206 0.04303 0.0
C950 C 0.08498 0.95603 0.79434 0.0
C951 C 0.09514 0.9434 0.82269 0.0
C952 C 0.09581 0.91936 0.93895 0.0
C953 C 0.10793 0.8685 0.96834 0.0
C954 C 0.10696 0.88674 0.94133 0.0
C955 C 0.0863 0.93381 0.86124 0.0
C956 C 0.09607 0.919 0.88873 0.0
H957 H 0.08399 0.82525 0.97181 0.0
H958 H 0.08944 0.85248 0.91914 0.0
H959 H 0.09983 0.90362 0.00363 0.0
H960 H 0.04221 0.95135 0.85038 0.0
H961 H 0.06008 0.92979 0.9006 0.0
C962 C 0.66676 0.09851 0.99065 0.0
C963 C 0.68099 0.08568 0.97915 0.0
C964 C 0.65129 0.10065 0.95997 0.0
C965 C 0.6312 0.08789 0.84015 0.0
H966 H 0.5862 0.07266 0.91197 0.0
C967 C 0.56616 0.03336 0.80698 0.0
C968 C 0.55727 0.04011 0.76563 0.0
C969 C 0.5788 0.04532 0.83277 0.0
C970 C 0.59853 0.07733 0.89149 0.0
H971 H 0.69094 0.06648 0.92408 0.0
H972 H 0.66426 0.0705 0.87052 0.0
H973 H 0.6148 0.0838 0.95454 0.0
H974 H 0.55425 0.06471 0.71912 0.0
H975 H 0.57719 0.08561 0.76367 0.0
H976 H 0.61508 0.0802 0.77719 0.0
C977 C 0.66501 0.07889 0.90326 0.0
C978 C 0.61488 0.08381 0.91576 0.0
C979 C 0.68037 0.0766 0.93409 0.0
C980 C 0.56086 0.05926 0.75114 0.0
C981 C 0.57396 0.07114 0.77639 0.0
C982 C 0.61471 0.08163 0.8158 0.0
C983 C 0.64988 0.0902 0.91692 0.0
C984 C 0.63164 0.08832 0.89047 0.0
C985 C 0.58314 0.06416 0.81718 0.0
C986 C 0.59854 0.07548 0.84146 0.0
H987 H 0.66703 0.10611 0.02456 0.0
H988 H 0.63995 0.10968 0.97107 0.0
H989 H 0.64389 0.09137 0.8198 0.0
H990 H 0.5636 0.01866 0.81888 0.0
H991 H 0.58586 0.03953 0.86378 0.0
C992 C 0.45571 0.64248 0.0487 0.0
C993 C 0.44811 0.66042 0.03839 0.0
C994 C 0.45133 0.62646 0.0201 0.0
C995 C 0.43808 0.59271 0.95916 0.0
H996 H 0.44852 0.6056 0.82673 0.0
C997 C 0.45975 0.53605 0.81813 0.0
C998 C 0.47697 0.5417 0.79617 0.0
C999 C 0.44967 0.54937 0.84465 0.0
C1000 C 0.44529 0.60175 0.86344 0.0
H1001 H 0.42875 0.67512 0.99184 0.0
H1002 H 0.42135 0.64705 0.94109 0.0
H1003 H 0.44138 0.63102 0.88306 0.0
H1004 H 0.49678 0.56585 0.78361 0.0
H1005 H 0.47931 0.58883 0.82932 0.0
H1006 H 0.44353 0.56358 0.93997 0.0
C1007 C 0.4308 0.64553 0.97138 0.0
C1008 C 0.44101 0.61629 0.89568 0.0
C1009 C 0.43511 0.66161 1.0003 0.0
C1010 C 0.48365 0.56095 0.80032 0.0
C1011 C 0.4735 0.57422 0.82605 0.0
C1012 C 0.44237 0.57814 0.92682 0.0
C1013 C 0.43934 0.62793 0.98016 0.0
C1014 C 0.43834 0.61207 0.94441 0.0
C1015 C 0.45648 0.5686 0.84871 0.0
C1016 C 0.44699 0.58272 0.87927 0.0
H1017 H 0.46606 0.64099 0.07703 0.0
H1018 H 0.45847 0.61326 0.02742 0.0
H1019 H 0.43578 0.58898 0.99637 0.0
H1020 H 0.45425 0.52132 0.81548 0.0
H1021 H 0.43662 0.54468 0.86201 0.0
C1022 C 0.85416 0.43115 0.90371 0.0
C1023 C 0.85187 0.42349 0.94981 0.0
C1024 C 0.87035 0.42751 0.87723 0.0
C1025 C 0.90481 0.41648 0.82217 0.0
H1026 H 0.95019 0.42069 0.90068 0.0
C1027 C 0.97648 0.43535 0.73589 0.0
C1028 C 0.987 0.45015 0.75953 0.0
C1029 C 0.96168 0.42533 0.75924 0.0
C1030 C 0.93768 0.4195 0.87814 0.0
H1031 H 0.8637 0.40463 0.00274 0.0
H1032 H 0.89169 0.39761 0.95579 0.0
H1033 H 0.9196 0.41552 0.93851 0.0
H1034 H 0.99108 0.46509 0.82726 0.0
H1035 H 0.96505 0.4482 0.86735 0.0
H1036 H 0.92272 0.42222 0.76219 0.0
C1037 C 0.88135 0.40697 0.94061 0.0
C1038 C 0.92008 0.4162 0.89983 0.0
C1039 C 0.86527 0.41085 0.96739 0.0
C1040 C 0.98327 0.45378 0.80797 0.0
C1041 C 0.96833 0.44395 0.83111 0.0
C1042 C 0.92239 0.42007 0.80055 0.0
C1043 C 0.88451 0.41594 0.89608 0.0
C1044 C 0.90332 0.41539 0.87227 0.0
C1045 C 0.95692 0.43005 0.80656 0.0
C1046 C 0.93898 0.42236 0.82845 0.0
H1047 H 0.84414 0.44111 0.88956 0.0
H1048 H 0.8723 0.4349 0.84345 0.0
H1049 H 0.89228 0.41547 0.79967 0.0
H1050 H 0.97917 0.43202 0.69869 0.0
H1051 H 0.95351 0.4144 0.73956 0.0
C1052 C 0.10155 0.18455 0.96581 0.0
C1053 C 0.08901 0.19972 0.9687 0.0
C1054 C 0.099 0.17018 0.93094 0.0
C1055 C 0.05934 0.14634 0.86865 0.0
H1056 H 0.09772 0.11729 0.80522 0.0
C1057 C 0.03856 0.07865 0.75883 0.0
C1058 C 0.05032 0.06283 0.76146 0.0
C1059 C 0.04448 0.09656 0.77756 0.0
C1060 C 0.08684 0.12512 0.82308 0.0
H1061 H 0.06497 0.21264 0.93507 0.0
H1062 H 0.06059 0.18764 0.87371 0.0
H1063 H 0.10674 0.14744 0.84627 0.0
H1064 H 0.07772 0.05356 0.78541 0.0
H1065 H 0.08785 0.08469 0.81978 0.0
H1066 H 0.03955 0.12385 0.8478 0.0
C1067 C 0.0723 0.18676 0.89869 0.0
C1068 C 0.09201 0.14248 0.84629 0.0
C1069 C 0.07496 0.20122 0.93337 0.0
C1070 C 0.06832 0.06545 0.78279 0.0
C1071 C 0.07417 0.08337 0.80218 0.0
C1072 C 0.05421 0.12897 0.84597 0.0
C1073 C 0.08375 0.17063 0.89853 0.0
C1074 C 0.07831 0.15324 0.86955 0.0
C1075 C 0.06224 0.09915 0.80019 0.0
C1076 C 0.06787 0.11802 0.82301 0.0
H1077 H 0.11244 0.18302 0.99283 0.0
H1078 H 0.10805 0.15796 0.93193 0.0
H1079 H 0.0485 0.154 0.88721 0.0
H1080 H 0.02473 0.07727 0.74199 0.0
H1081 H 0.03506 0.1084 0.77417 0.0
C1082 C 0.33467 0.98595 0.95673 0.0
C1083 C 0.33197 0.99794 0.99639 0.0
C1084 C 0.34684 0.9918 0.91985 0.0
C1085 C 0.38996 0.02207 0.90404 0.0
H1086 H 0.38531 0.00348 0.77339 0.0
C1087 C 0.45316 0.02488 0.77081 0.0
C1088 C 0.45603 0.00714 0.74808 0.0
C1089 C 0.43636 0.02785 0.79593 0.0
C1090 C 0.38681 0.00883 0.80972 0.0
H1091 H 0.33893 0.02587 0.02752 0.0
H1092 H 0.36015 0.03636 0.96247 0.0
H1093 H 0.35762 0.00228 0.82538 0.0
H1094 H 0.44318 0.97889 0.73272 0.0
H1095 H 0.41408 0.98412 0.77596 0.0
H1096 H 0.41932 0.02804 0.88867 0.0
C1097 C 0.35294 0.02234 0.96005 0.0
C1098 C 0.37095 0.00814 0.83954 0.0
C1099 C 0.34062 0.01648 0.99695 0.0
C1100 C 0.44152 0.99271 0.74994 0.0
C1101 C 0.42472 0.99576 0.77441 0.0
C1102 C 0.40582 0.02285 0.87409 0.0
C1103 C 0.35674 0.00977 0.92192 0.0
C1104 C 0.37246 0.0141 0.88761 0.0
C1105 C 0.42197 0.01327 0.79812 0.0
C1106 C 0.40457 0.0156 0.82711 0.0
H1107 H 0.32832 0.9715 0.95586 0.0
H1108 H 0.34952 0.98162 0.89151 0.0
H1109 H 0.39175 0.02661 0.94095 0.0
H1110 H 0.46405 0.03629 0.77009 0.0
H1111 H 0.43463 0.04152 0.81375 0.0
C1112 C 0.46897 0.29677 0.94279 0.0
C1113 C 0.45408 0.29864 0.97533 0.0
C1114 C 0.47134 0.30985 0.905 0.0
C1115 C 0.4505 0.35198 0.84311 0.0
H1116 H 0.50222 0.37264 0.85051 0.0
C1117 C 0.47287 0.42968 0.78242 0.0
C1118 C 0.49099 0.43266 0.7624 0.0
C1119 C 0.46718 0.41161 0.80092 0.0
C1120 C 0.48779 0.36695 0.84708 0.0
H1121 H 0.42872 0.31396 0.99061 0.0
H1122 H 0.43269 0.33663 0.92473 0.0
H1123 H 0.49375 0.34269 0.89055 0.0
H1124 H 0.51695 0.41865 0.74428 0.0
H1125 H 0.50694 0.38735 0.7753 0.0
H1126 H 0.44455 0.37665 0.80037 0.0
C1127 C 0.44263 0.32523 0.92811 0.0
C1128 C 0.48292 0.34964 0.87003 0.0
C1129 C 0.44028 0.31218 0.96584 0.0
C1130 C 0.50301 0.41703 0.76011 0.0
C1131 C 0.49728 0.39901 0.77811 0.0
C1132 C 0.45541 0.36934 0.81987 0.0
C1133 C 0.45884 0.32498 0.89912 0.0
C1134 C 0.46418 0.342 0.86889 0.0
C1135 C 0.47942 0.39608 0.79949 0.0
C1136 C 0.4741 0.37716 0.82202 0.0
H1137 H 0.47988 0.28657 0.94947 0.0
H1138 H 0.48375 0.30898 0.88258 0.0
H1139 H 0.43595 0.34649 0.84137 0.0
H1140 H 0.46324 0.44139 0.78467 0.0
H1141 H 0.45338 0.40997 0.81751 0.0
C1142 C 0.20418 0.49108 0.01314 0.0
C1143 C 0.21455 0.50855 0.00747 0.0
C1144 C 0.19072 0.48506 0.97878 0.0
C1145 C 0.17368 0.49113 0.85575 0.0
H1146 H 0.12342 0.48671 0.91076 0.0
C1147 C 0.10606 0.49651 0.74006 0.0
C1148 C 0.08899 0.48771 0.75588 0.0
C1149 C 0.12249 0.49594 0.76814 0.0
C1150 C 0.13731 0.48736 0.89451 0.0
H1151 H 0.21982 0.53301 0.96101 0.0
H1152 H 0.19675 0.52214 0.89983 0.0
H1153 H 0.15091 0.49026 0.96298 0.0
H1154 H 0.07596 0.4704 0.81202 0.0
H1155 H 0.10475 0.46838 0.85969 0.0
H1156 H 0.16025 0.48796 0.78727 0.0
C1157 C 0.19896 0.51314 0.93081 0.0
C1158 C 0.15309 0.48951 0.92466 0.0
C1159 C 0.21214 0.51934 0.96564 0.0
C1160 C 0.08888 0.47752 0.7992 0.0
C1161 C 0.1054 0.47653 0.82673 0.0
C1162 C 0.1579 0.48855 0.82549 0.0
C1163 C 0.18767 0.49629 0.93787 0.0
C1164 C 0.17138 0.49175 0.90559 0.0
C1165 C 0.12236 0.48617 0.81231 0.0
C1166 C 0.13942 0.48703 0.84438 0.0
H1167 H 0.20563 0.48272 0.04555 0.0
H1168 H 0.18218 0.47202 0.98499 0.0
H1169 H 0.18767 0.49276 0.84022 0.0
H1170 H 0.10655 0.50461 0.70697 0.0
H1171 H 0.13506 0.50383 0.75589 0.0
C1172 C 0.02708 0.8057 0.41628 0.0
C1173 C 0.01339 0.79847 0.3836 0.0
C1174 C 0.02234 0.81898 0.45138 0.0
C1175 C 0.98873 0.85713 0.46895 0.0
H1176 H 0.01512 0.86307 0.59041 0.0
C1177 C 0.00068 0.9157 0.63539 0.0
C1178 C 0.00361 0.93253 0.60805 0.0
C1179 C 0.99802 0.89771 0.61301 0.0
C1180 C 0.00735 0.86155 0.55702 0.0
H1181 H 0.98371 0.79847 0.36394 0.0
H1182 H 0.97526 0.8216 0.42594 0.0
H1183 H 0.01699 0.83307 0.54568 0.0
H1184 H 0.00534 0.9436 0.53554 0.0
H1185 H 0.00095 0.91241 0.49683 0.0
H1186 H 0.97928 0.88568 0.47999 0.0
C1187 C 0.98975 0.81715 0.424 0.0
C1188 C 0.00859 0.84439 0.5311 0.0
C1189 C 0.99452 0.80373 0.38889 0.0
C1190 C 0.00314 0.93098 0.55784 0.0
C1191 C 0.00047 0.91305 0.53554 0.0
C1192 C 0.98747 0.87428 0.49489 0.0
C1193 C 0.00376 0.82543 0.45462 0.0
C1194 C 0.99976 0.84216 0.48605 0.0
C1195 C 0.99817 0.89613 0.56277 0.0
C1196 C 0.99723 0.87694 0.53859 0.0
H1197 H 0.04174 0.80186 0.41298 0.0
H1198 H 0.03357 0.82512 0.47389 0.0
H1199 H 0.98184 0.85603 0.43428 0.0
H1200 H 0.00088 0.91632 0.67413 0.0
H1201 H 0.99606 0.88501 0.6351 0.0
C1202 C 0.70673 0.98076 0.34907 0.0
C1203 C 0.71162 1.00032 0.34178 0.0
C1204 C 0.69354 0.97523 0.38433 0.0
C1205 C 0.66707 0.99323 0.48982 0.0
H1206 H 0.62673 0.95849 0.44334 0.0
C1207 C 0.58263 0.97789 0.52424 0.0
C1208 C 0.58201 0.97833 0.57455 0.0
C1209 C 0.59994 0.9773 0.5003 0.0
C1210 C 0.63788 0.9682 0.45692 0.0
H1211 H 0.70767 0.02927 0.36767 0.0
H1212 H 0.68479 0.01975 0.42888 0.0
H1213 H 0.65529 0.96372 0.39573 0.0
H1214 H 0.59922 0.9778 0.63908 0.0
H1215 H 0.62941 0.97662 0.59722 0.0
H1216 H 0.64925 0.99848 0.54982 0.0
C1217 C 0.69105 0.00859 0.40774 0.0
C1218 C 0.65439 0.97101 0.4299 0.0
C1219 C 0.7041 0.01409 0.37246 0.0
C1220 C 0.59914 0.97756 0.6003 0.0
C1221 C 0.61647 0.97699 0.57631 0.0
C1222 C 0.65056 0.99042 0.51685 0.0
C1223 C 0.68514 0.98916 0.41315 0.0
C1224 C 0.66899 0.98393 0.44542 0.0
C1225 C 0.61711 0.97712 0.52598 0.0
C1226 C 0.63556 0.97824 0.50016 0.0
H1227 H 0.71224 0.96986 0.32572 0.0
H1228 H 0.68947 0.96012 0.38797 0.0
H1229 H 0.67812 0.00311 0.50311 0.0
H1230 H 0.56976 0.97848 0.50315 0.0
H1231 H 0.59987 0.97768 0.46155 0.0
C1232 C 0.55669 0.68665 0.38781 0.0
C1233 C 0.53867 0.69426 0.39213 0.0
C1234 C 0.56318 0.67382 0.42231 0.0
C1235 C 0.55043 0.64999 0.53934 0.0
H1236 H 0.56722 0.60437 0.47456 0.0
C1237 C 0.55038 0.57624 0.63493 0.0
C1238 C 0.54281 0.56063 0.60784 0.0
C1239 C 0.55521 0.59386 0.613 0.0
C1240 C 0.56253 0.61697 0.4933 0.0
H1241 H 0.51417 0.69616 0.43776 0.0
H1242 H 0.52526 0.67394 0.49759 0.0
H1243 H 0.5666 0.63464 0.43153 0.0
H1244 H 0.53496 0.55124 0.53606 0.0
H1245 H 0.54292 0.58186 0.49822 0.0
H1246 H 0.54497 0.63192 0.59998 0.0
C1247 C 0.5346 0.67775 0.46819 0.0
C1248 C 0.56249 0.63449 0.46881 0.0
C1249 C 0.52818 0.69053 0.43384 0.0
C1250 C 0.54077 0.5629 0.55812 0.0
C1251 C 0.54551 0.58049 0.53628 0.0
C1252 C 0.55033 0.63241 0.56374 0.0
C1253 C 0.55171 0.66839 0.46157 0.0
C1254 C 0.55577 0.65109 0.49092 0.0
C1255 C 0.55255 0.59631 0.56347 0.0
C1256 C 0.55572 0.61552 0.54044 0.0
H1257 H 0.56498 0.68921 0.35575 0.0
H1258 H 0.57661 0.66721 0.41658 0.0
H1259 H 0.54548 0.66253 0.55784 0.0
H1260 H 0.55227 0.57499 0.67329 0.0
H1261 H 0.56083 0.60562 0.63499 0.0
C1262 C 0.83723 0.50411 0.3634 0.0
C1263 C 0.84201 0.51288 0.31972 0.0
C1264 C 0.84852 0.50769 0.404 0.0
C1265 C 0.88807 0.53775 0.456 0.0
H1266 H 0.90654 0.48876 0.49778 0.0
C1267 C 0.96048 0.53099 0.55159 0.0
C1268 C 0.96301 0.51523 0.58195 0.0
C1269 C 0.94331 0.53287 0.527 0.0
C1270 C 0.90134 0.50264 0.48781 0.0
H1271 H 0.86117 0.53333 0.28461 0.0
H1272 H 0.88066 0.53997 0.35574 0.0
H1273 H 0.87948 0.48935 0.44445 0.0
H1274 H 0.94923 0.48991 0.61332 0.0
H1275 H 0.9191 0.49369 0.57289 0.0
H1276 H 0.91003 0.55107 0.49925 0.0
C1277 C 0.86828 0.53035 0.35885 0.0
C1278 C 0.88576 0.50293 0.457 0.0
C1279 C 0.85716 0.52657 0.31817 0.0
C1280 C 0.94777 0.50201 0.5894 0.0
C1281 C 0.93052 0.50414 0.56587 0.0
C1282 C 0.90352 0.53748 0.48762 0.0
C1283 C 0.86462 0.52024 0.40151 0.0
C1284 C 0.87918 0.52045 0.44 0.0
C1285 C 0.92819 0.51924 0.53312 0.0
C1286 C 0.91062 0.51988 0.50322 0.0
H1287 H 0.82574 0.49334 0.36516 0.0
H1288 H 0.84534 0.4998 0.43656 0.0
H1289 H 0.88325 0.55146 0.44343 0.0
H1290 H 0.97204 0.54136 0.5452 0.0
H1291 H 0.94224 0.54458 0.50179 0.0
loop_
_geom_bond_atom_site_label_1
_geom_bond_atom_site_label_2
_geom_bond_distance
_geom_bond_site_symmetry_2
_ccdc_geom_bond_type
C0 C1 1.391 . S
C0 C4 1.391 . S
C0 H42 0.948 . S
C1 C0 1.391 . S
C1 C2 1.391 . S
C2 C1 1.391 . S
C2 H58 0.947 . S
C2 C59 1.392 . S
C3 C4 1.391 . S
C3 C7 1.397 . S
C3 C59 1.419 . S
C4 C0 1.391 . S
C4 C3 1.391 . S
C4 C5 1.399 . S
C5 C4 1.399 . S
C5 C8 1.396 . S
C5 C17 1.453 . S
C5 C18 1.684 . S
H6 C30 0.948 . S
C7 C3 1.397 . S
C7 C8 1.394 . S
C7 C26 1.723 . S
C8 C5 1.396 . S
C8 C7 1.394 . S
C8 C38 1.723 . S
H9 C32 0.947 . S
H10 C33 0.948 . S
H11 C39 0.982 . S
H12 C40 0.979 . S
H13 C40 0.980 . S
H14 C40 0.983 . S
H15 C39 0.979 . S
H16 C39 0.977 . S
C17 C5 1.453 . S
C17 H46 0.982 . S
C17 H47 0.979 . S
C17 H48 0.977 . S
C18 C5 1.684 . S
C18 H43 0.979 . S
C18 H44 0.980 . S
C18 H45 0.983 . S
C19 C20 1.391 . S
C19 C24 1.391 . S
C19 H49 0.948 . S
C20 C19 1.391 . S
C20 C21 1.391 . S
C21 C20 1.391 . S
C21 C22 1.392 . S
C21 H50 0.947 . S
C22 C21 1.392 . S
C22 C23 1.419 . S
C22 H51 0.948 . S
C23 C22 1.419 . S
C23 C24 1.391 . S
C23 C27 1.397 . S
C24 C19 1.391 . S
C24 C23 1.391 . S
C24 C25 1.399 1_556 S
C25 C24 1.399 1_554 S
C25 C26 1.396 . S
C25 C28 1.453 . S
C25 C29 1.684 . S
C26 C7 1.723 . S
C26 C25 1.396 . S
C26 C27 1.394 1_554 S
C27 C23 1.397 . S
C27 C26 1.394 1_556 S
C27 C37 1.723 . S
C28 C25 1.453 . S
C28 H52 0.982 . S
C28 H53 0.979 . S
C28 H54 0.977 . S
C29 C25 1.684 . S
C29 H55 0.979 . S
C29 H56 0.980 . S
C29 H57 0.983 . S
C30 H6 0.948 . S
C30 C31 1.391 . S
C30 C35 1.391 . S
C31 C30 1.391 . S
C31 C32 1.391 1_556 S
C32 H9 0.947 . S
C32 C31 1.391 1_554 S
C32 C33 1.392 . S
C33 H10 0.948 . S
C33 C32 1.392 . S
C33 C34 1.419 . S
C34 C33 1.419 . S
C34 C35 1.391 1_554 S
C34 C38 1.397 . S
C35 C30 1.391 . S
C35 C34 1.391 1_556 S
C35 C36 1.399 . S
C36 C35 1.399 . S
C36 C37 1.396 . S
C36 C39 1.453 . S
C36 C40 1.684 . S
C37 C27 1.723 . S
C37 C36 1.396 . S
C37 C38 1.394 1_556 S
C38 C8 1.723 . S
C38 C34 1.397 . S
C38 C37 1.394 1_554 S
C39 H11 0.982 . S
C39 H15 0.979 . S
C39 H16 0.977 . S
C39 C36 1.453 . S
C40 H12 0.979 . S
C40 H13 0.980 . S
C40 H14 0.983 . S
C40 C36 1.684 . S
H41 C59 0.948 . S
H42 C0 0.948 . S
H43 C18 0.979 . S
H44 C18 0.980 . S
H45 C18 0.983 . S
H46 C17 0.982 . S
H47 C17 0.979 . S
H48 C17 0.977 . S
H49 C19 0.948 . S
H50 C21 0.947 . S
H51 C22 0.948 . S
H52 C28 0.982 . S
H53 C28 0.979 . S
H54 C28 0.977 . S
H55 C29 0.979 . S
H56 C29 0.980 . S
H57 C29 0.983 . S
H58 C2 0.947 . S
C59 C2 1.392 . S
C59 C3 1.419 . S
C59 H41 0.948 . S
C60 C61 1.391 . S
C60 C64 1.391 . S
C60 H102 0.948 . S
C61 C60 1.391 . S
C61 C62 1.391 1_556 S
C62 C61 1.391 1_554 S
C62 H118 0.947 . S
C62 C119 1.392 . S
C63 C64 1.391 1_554 S
C63 C67 1.397 . S
C63 C119 1.419 . S
C64 C60 1.391 . S
C64 C63 1.391 1_556 S
C64 C65 1.399 . S
C65 C64 1.399 . S
C65 C68 1.396 1_556 S
C65 C77 1.453 1_655 S
C65 C78 1.684 . S
H66 C90 0.948 . S
C67 C63 1.397 . S
C67 C68 1.394 . S
C67 C86 1.723 . S
C68 C65 1.396 1_554 S
C68 C67 1.394 . S
C68 C98 1.723 . S
H69 C92 0.947 1_556 S
H70 C93 0.948 1_556 S
H71 C99 0.982 . S
H72 C100 0.979 . S
H73 C100 0.980 . S
H74 C100 0.983 . S
H75 C99 0.979 . S
H76 C99 0.977 . S
C77 C65 1.453 1_455 S
C77 H106 0.982 . S
C77 H107 0.979 . S
C77 H108 0.977 . S
C78 C65 1.684 . S
C78 H103 0.979 . S
C78 H104 0.980 . S
C78 H105 0.983 . S
C79 C80 1.391 . S
C79 C84 1.391 . S
C79 H109 0.948 . S
C80 C79 1.391 . S
C80 C81 1.391 . S
C81 C80 1.391 . S
C81 C82 1.392 . S
C81 H110 0.947 . S
C82 C81 1.392 . S
C82 C83 1.419 . S
C82 H111 0.948 . S
C83 C82 1.419 . S
C83 C84 1.391 . S
C83 C87 1.397 . S
C84 C79 1.391 . S
C84 C83 1.391 . S
C84 C85 1.399 . S
C85 C84 1.399 . S
C85 C86 1.396 . S
C85 C88 1.453 1_655 S
C85 C89 1.684 . S
C86 C67 1.723 . S
C86 C85 1.396 . S
C86 C87 1.394 . S
C87 C83 1.397 . S
C87 C86 1.394 . S
C87 C97 1.723 . S
C88 C85 1.453 1_455 S
C88 H112 0.982 . S
C88 H113 0.979 . S
C88 H114 0.977 . S
C89 C85 1.684 . S
C89 H115 0.979 . S
C89 H116 0.980 . S
C89 H117 0.983 . S
C90 H66 0.948 . S
C90 C91 1.391 . S
C90 C95 1.391 . S
C91 C90 1.391 . S
C91 C92 1.391 . S
C92 H69 0.947 1_554 S
C92 C91 1.391 . S
C92 C93 1.392 . S
C93 H70 0.948 1_554 S
C93 C92 1.392 . S
C93 C94 1.419 . S
C94 C93 1.419 . S
C94 C95 1.391 . S
C94 C98 1.397 . S
C95 C90 1.391 . S
C95 C94 1.391 . S
C95 C96 1.399 . S
C96 C95 1.399 . S
C96 C97 1.396 . S
C96 C99 1.453 1_655 S
C96 C100 1.684 . S
C97 C87 1.723 . S
C97 C96 1.396 . S
C97 C98 1.394 . S
C98 C68 1.723 . S
C98 C94 1.397 . S
C98 C97 1.394 . S
C99 H71 0.982 . S
C99 H75 0.979 . S
C99 H76 0.977 . S
C99 C96 1.453 1_455 S
C100 H72 0.979 . S
C100 H73 0.980 . S
C100 H74 0.983 . S
C100 C96 1.684 . S
H101 C119 0.948 . S
H102 C60 0.948 . S
H103 C78 0.979 . S
H104 C78 0.980 . S
H105 C78 0.983 . S
H106 C77 0.982 . S
H107 C77 0.979 . S
H108 C77 0.977 . S
H109 C79 0.948 . S
H110 C81 0.947 . S
H111 C82 0.948 . S
H112 C88 0.982 . S
H113 C88 0.979 . S
H114 C88 0.977 . S
H115 C89 0.979 . S
H116 C89 0.980 . S
H117 C89 0.983 . S
H118 C62 0.947 . S
C119 C62 1.392 . S
C119 C63 1.419 . S
C119 H101 0.948 . S
C120 C121 1.391 . S
C120 C124 1.391 . S
C120 H162 0.948 . S
C121 C120 1.391 . S
C121 C122 1.391 1_554 S
C122 C121 1.391 1_556 S
C122 H178 0.947 . S
C122 C179 1.392 . S
C123 C124 1.391 . S
C123 C127 1.396 . S
C123 C179 1.419 1_554 S
C124 C120 1.391 . S
C124 C123 1.391 . S
C124 C125 1.399 . S
C125 C124 1.399 . S
C125 C128 1.387 1_565 S
C125 C137 1.453 1_565 S
C125 C138 1.684 . S
H126 C150 0.948 . S
C127 C123 1.396 . S
C127 C128 1.393 1_565 S
C127 C146 1.720 1_565 S
C128 C125 1.387 1_545 S
C128 C127 1.393 1_545 S
C128 C158 1.724 . S
H129 C152 0.947 . S
H130 C153 0.948 . S
H131 C159 0.982 . S
H132 C160 0.979 . S
H133 C160 0.980 . S
H134 C160 0.983 . S
H135 C159 0.979 . S
H136 C159 0.977 . S
C137 C125 1.453 1_545 S
C137 H166 0.982 . S
C137 H167 0.979 . S
C137 H168 0.977 . S
C138 C125 1.684 . S
C138 H163 0.979 . S
C138 H164 0.980 . S
C138 H165 0.983 . S
C139 C140 1.391 . S
C139 C144 1.391 . S
C139 H169 0.948 . S
C140 C139 1.391 . S
C140 C141 1.391 . S
C141 C140 1.391 . S
C141 C142 1.392 1_556 S
C141 H170 0.947 . S
C142 C141 1.392 1_554 S
C142 C143 1.422 . S
C142 H171 0.948 . S
C143 C142 1.422 . S
C143 C144 1.400 1_554 S
C143 C147 1.397 1_565 S
C144 C139 1.391 . S
C144 C143 1.400 1_556 S
C144 C145 1.399 . S
C145 C144 1.399 . S
C145 C146 1.389 1_566 S
C145 C148 1.453 1_565 S
C145 C149 1.684 . S
C146 C127 1.720 1_545 S
C146 C145 1.389 1_544 S
C146 C147 1.395 . S
C147 C143 1.397 1_545 S
C147 C146 1.395 . S
C147 C157 1.722 . S
C148 C145 1.453 1_545 S
C148 H172 0.982 . S
C148 H173 0.979 . S
C148 H174 0.977 . S
C149 C145 1.684 . S
C149 H175 0.979 . S
C149 H176 0.980 . S
C149 H177 0.983 . S
C150 H126 0.948 . S
C150 C151 1.391 . S
C150 C155 1.391 . S
C151 C150 1.391 . S
C151 C152 1.391 . S
C152 H129 0.947 . S
C152 C151 1.391 . S
C152 C153 1.392 . S
C153 H130 0.948 . S
C153 C152 1.392 . S
C153 C154 1.419 . S
C154 C153 1.419 . S
C154 C155 1.391 . S
C154 C158 1.397 1_565 S
C155 C150 1.391 . S
C155 C154 1.391 . S
C155 C156 1.399 . S
C156 C155 1.399 . S
C156 C157 1.389 1_565 S
C156 C159 1.453 1_565 S
C156 C160 1.684 . S
C157 C147 1.722 . S
C157 C156 1.389 1_545 S
C157 C158 1.390 . S
C158 C128 1.724 . S
C158 C154 1.397 1_545 S
C158 C157 1.390 . S
C159 H131 0.982 . S
C159 H135 0.979 . S
C159 H136 0.977 . S
C159 C156 1.453 1_545 S
C160 H132 0.979 . S
C160 H133 0.980 . S
C160 H134 0.983 . S
C160 C156 1.684 . S
H161 C179 0.948 . S
H162 C120 0.948 . S
H163 C138 0.979 . S
H164 C138 0.980 . S
H165 C138 0.983 . S
H166 C137 0.982 . S
H167 C137 0.979 . S
H168 C137 0.977 . S
H169 C139 0.948 . S
H170 C141 0.947 . S
H171 C142 0.948 . S
H172 C148 0.982 . S
H173 C148 0.979 . S
H174 C148 0.977 . S
H175 C149 0.979 . S
H176 C149 0.980 . S
H177 C149 0.983 . S
H178 C122 0.947 . S
C179 C122 1.392 . S
C179 C123 1.419 1_556 S
C179 H161 0.948 . S
C180 C181 1.391 . S
C180 C184 1.391 . S
C180 H222 0.948 . S
C181 C180 1.391 . S
C181 C182 1.391 . S
C182 C181 1.391 . S
C182 H238 0.947 . S
C182 C239 1.392 . S
C183 C184 1.391 . S
C183 C187 1.397 . S
C183 C239 1.419 . S
C184 C180 1.391 . S
C184 C183 1.391 . S
C184 C185 1.399 . S
C185 C184 1.399 . S
C185 C188 1.396 . S
C185 C197 1.453 . S
C185 C198 1.684 . S
H186 C210 0.948 . S
C187 C183 1.397 . S
C187 C188 1.394 . S
C187 C206 1.723 . S
C188 C185 1.396 . S
C188 C187 1.394 . S
C188 C218 1.723 . S
H189 C212 0.947 . S
H190 C213 0.948 . S
H191 C219 0.982 . S
H192 C220 0.979 . S
H193 C220 0.980 . S
H194 C220 0.983 . S
H195 C219 0.979 . S
H196 C219 0.977 . S
C197 C185 1.453 . S
C197 H226 0.982 . S
C197 H227 0.979 . S
C197 H228 0.977 . S
C198 C185 1.684 . S
C198 H223 0.979 . S
C198 H224 0.980 . S
C198 H225 0.983 . S
C199 C200 1.391 . S
C199 C204 1.391 . S
C199 H229 0.948 . S
C200 C199 1.391 . S
C200 C201 1.391 . S
C201 C200 1.391 . S
C201 C202 1.392 . S
C201 H230 0.947 . S
C202 C201 1.392 . S
C202 C203 1.419 . S
C202 H231 0.948 . S
C203 C202 1.419 . S
C203 C204 1.391 . S
C203 C207 1.397 1_556 S
C204 C199 1.391 . S
C204 C203 1.391 . S
C204 C205 1.399 1_556 S
C205 C204 1.399 1_554 S
C205 C206 1.396 . S
C205 C208 1.453 . S
C205 C209 1.684 . S
C206 C187 1.723 . S
C206 C205 1.396 . S
C206 C207 1.394 . S
C207 C203 1.397 1_554 S
C207 C206 1.394 . S
C207 C217 1.723 . S
C208 C205 1.453 . S
C208 H232 0.982 . S
C208 H233 0.979 . S
C208 H234 0.977 . S
C209 C205 1.684 . S
C209 H235 0.979 . S
C209 H236 0.980 . S
C209 H237 0.983 . S
C210 H186 0.948 . S
C210 C211 1.391 1_556 S
C210 C215 1.391 . S
C211 C210 1.391 1_554 S
C211 C212 1.391 . S
C212 H189 0.947 . S
C212 C211 1.391 . S
C212 C213 1.392 . S
C213 H190 0.948 . S
C213 C212 1.392 . S
C213 C214 1.419 . S
C214 C213 1.419 . S
C214 C215 1.391 1_554 S
C214 C218 1.397 . S
C215 C210 1.391 . S
C215 C214 1.391 1_556 S
C215 C216 1.399 . S
C216 C215 1.399 . S
C216 C217 1.396 1_556 S
C216 C219 1.453 . S
C216 C220 1.684 . S
C217 C207 1.723 . S
C217 C216 1.396 1_554 S
C217 C218 1.394 . S
C218 C188 1.723 . S
C218 C214 1.397 . S
C218 C217 1.394 . S
C219 H191 0.982 . S
C219 H195 0.979 . S
C219 H196 0.977 . S
C219 C216 1.453 . S
C220 H192 0.979 . S
C220 H193 0.980 . S
C220 H194 0.983 . S
C220 C216 1.684 . S
H221 C239 0.948 . S
H222 C180 0.948 . S
H223 C198 0.979 . S
H224 C198 0.980 . S
H225 C198 0.983 . S
H226 C197 0.982 . S
H227 C197 0.979 . S
H228 C197 0.977 . S
H229 C199 0.948 . S
H230 C201 0.947 . S
H231 C202 0.948 . S
H232 C208 0.982 . S
H233 C208 0.979 . S
H234 C208 0.977 . S
H235 C209 0.979 . S
H236 C209 0.980 . S
H237 C209 0.983 . S
H238 C182 0.947 . S
C239 C182 1.392 . S
C239 C183 1.419 . S
C239 H221 0.948 . S
C240 C241 1.391 . S
C240 C244 1.391 . S
C240 H282 0.948 . S
C241 C240 1.391 . S
C241 C242 1.391 . S
C242 C241 1.391 . S
C242 H298 0.947 . S
C242 C299 1.392 . S
C243 C244 1.391 . S
C243 C247 1.397 . S
C243 C299 1.419 . S
C244 C240 1.391 . S
C244 C243 1.391 . S
C244 C245 1.399 . S
C245 C244 1.399 . S
C245 C248 1.396 . S
C245 C257 1.453 . S
C245 C258 1.684 . S
H246 C270 0.948 . S
C247 C243 1.397 . S
C247 C248 1.394 . S
C247 C266 1.723 . S
C248 C245 1.396 . S
C248 C247 1.394 . S
C248 C278 1.723 . S
H249 C272 0.947 . S
H250 C273 0.948 . S
H251 C279 0.982 . S
H252 C280 0.979 . S
H253 C280 0.980 . S
H254 C280 0.983 . S
H255 C279 0.979 . S
H256 C279 0.977 . S
C257 C245 1.453 . S
C257 H286 0.982 . S
C257 H287 0.979 . S
C257 H288 0.977 . S
C258 C245 1.684 . S
C258 H283 0.979 . S
C258 H284 0.980 . S
C258 H285 0.983 . S
C259 C260 1.391 . S
C259 C264 1.391 . S
C259 H289 0.948 . S
C260 C259 1.391 . S
C260 C261 1.391 . S
C261 C260 1.391 . S
C261 C262 1.392 . S
C261 H290 0.947 . S
C262 C261 1.392 . S
C262 C263 1.419 . S
C262 H291 0.948 . S
C263 C262 1.419 . S
C263 C264 1.391 . S
C263 C267 1.397 . S
C264 C259 1.391 . S
C264 C263 1.391 . S
C264 C265 1.399 . S
C265 C264 1.399 . S
C265 C266 1.396 . S
C265 C268 1.453 . S
C265 C269 1.684 . S
C266 C247 1.723 . S
C266 C265 1.396 . S
C266 C267 1.394 . S
C267 C263 1.397 . S
C267 C266 1.394 . S
C267 C277 1.723 . S
C268 C265 1.453 . S
C268 H292 0.982 . S
C268 H293 0.979 . S
C268 H294 0.977 . S
C269 C265 1.684 . S
C269 H295 0.979 . S
C269 H296 0.980 . S
C269 H297 0.983 . S
C270 H246 0.948 . S
C270 C271 1.391 . S
C270 C275 1.391 . S
C271 C270 1.391 . S
C271 C272 1.391 . S
C272 H249 0.947 . S
C272 C271 1.391 . S
C272 C273 1.392 . S
C273 H250 0.948 . S
C273 C272 1.392 . S
C273 C274 1.419 . S
C274 C273 1.419 . S
C274 C275 1.391 . S
C274 C278 1.397 . S
C275 C270 1.391 . S
C275 C274 1.391 . S
C275 C276 1.399 . S
C276 C275 1.399 . S
C276 C277 1.396 . S
C276 C279 1.453 . S
C276 C280 1.684 . S
C277 C267 1.723 . S
C277 C276 1.396 . S
C277 C278 1.394 . S
C278 C248 1.723 . S
C278 C274 1.397 . S
C278 C277 1.394 . S
C279 H251 0.982 . S
C279 H255 0.979 . S
C279 H256 0.977 . S
C279 C276 1.453 . S
C280 H252 0.979 . S
C280 H253 0.980 . S
C280 H254 0.983 . S
C280 C276 1.684 . S
H281 C299 0.948 . S
H282 C240 0.948 . S
H283 C258 0.979 . S
H284 C258 0.980 . S
H285 C258 0.983 . S
H286 C257 0.982 . S
H287 C257 0.979 . S
H288 C257 0.977 . S
H289 C259 0.948 . S
H290 C261 0.947 . S
H291 C262 0.948 . S
H292 C268 0.982 . S
H293 C268 0.979 . S
H294 C268 0.977 . S
H295 C269 0.979 . S
H296 C269 0.980 . S
H297 C269 0.983 . S
H298 C242 0.947 . S
C299 C242 1.392 . S
C299 C243 1.419 . S
C299 H281 0.948 . S
C300 C301 1.391 . S
C300 C304 1.391 . S
C300 H342 0.948 . S
C301 C300 1.391 . S
C301 C302 1.391 . S
C302 C301 1.391 . S
C302 H358 0.947 . S
C302 C359 1.392 . S
C303 C304 1.391 . S
C303 C307 1.397 . S
C303 C359 1.419 . S
C304 C300 1.391 . S
C304 C303 1.391 . S
C304 C305 1.399 . S
C305 C304 1.399 . S
C305 C308 1.396 . S
C305 C317 1.453 . S
C305 C318 1.684 . S
H306 C330 0.948 . S
C307 C303 1.397 . S
C307 C308 1.394 . S
C307 C326 1.723 . S
C308 C305 1.396 . S
C308 C307 1.394 . S
C308 C338 1.723 . S
H309 C332 0.947 . S
H310 C333 0.948 . S
H311 C339 0.982 . S
H312 C340 0.979 . S
H313 C340 0.980 . S
H314 C340 0.983 . S
H315 C339 0.979 . S
H316 C339 0.977 . S
C317 C305 1.453 . S
C317 H346 0.982 . S
C317 H347 0.979 . S
C317 H348 0.977 . S
C318 C305 1.684 . S
C318 H343 0.979 . S
C318 H344 0.980 . S
C318 H345 0.983 . S
C319 C320 1.391 . S
C319 C324 1.391 . S
C319 H349 0.948 . S
C320 C319 1.391 . S
C320 C321 1.391 . S
C321 C320 1.391 . S
C321 C322 1.392 . S
C321 H350 0.947 . S
C322 C321 1.392 . S
C322 C323 1.419 . S
C322 H351 0.948 . S
C323 C322 1.419 . S
C323 C324 1.391 . S
C323 C327 1.397 . S
C324 C319 1.391 . S
C324 C323 1.391 . S
C324 C325 1.399 . S
C325 C324 1.399 . S
C325 C326 1.396 . S
C325 C328 1.453 . S
C325 C329 1.684 . S
C326 C307 1.723 . S
C326 C325 1.396 . S
C326 C327 1.394 . S
C327 C323 1.397 . S
C327 C326 1.394 . S
C327 C337 1.723 . S
C328 C325 1.453 . S
C328 H352 0.982 . S
C328 H353 0.979 . S
C328 H354 0.977 . S
C329 C325 1.684 . S
C329 H355 0.979 . S
C329 H356 0.980 . S
C329 H357 0.983 . S
C330 H306 0.948 . S
C330 C331 1.391 . S
C330 C335 1.391 . S
C331 C330 1.391 . S
C331 C332 1.391 . S
C332 H309 0.947 . S
C332 C331 1.391 . S
C332 C333 1.392 . S
C333 H310 0.948 . S
C333 C332 1.392 . S
C333 C334 1.419 . S
C334 C333 1.419 . S
C334 C335 1.391 . S
C334 C338 1.397 . S
C335 C330 1.391 . S
C335 C334 1.391 . S
C335 C336 1.399 . S
C336 C335 1.399 . S
C336 C337 1.396 . S
C336 C339 1.453 . S
C336 C340 1.684 . S
C337 C327 1.723 . S
C337 C336 1.396 . S
C337 C338 1.394 . S
C338 C308 1.723 . S
C338 C334 1.397 . S
C338 C337 1.394 . S
C339 H311 0.982 . S
C339 H315 0.979 . S
C339 H316 0.977 . S
C339 C336 1.453 . S
C340 H312 0.979 . S
C340 H313 0.980 . S
C340 H314 0.983 . S
C340 C336 1.684 . S
H341 C359 0.948 . S
H342 C300 0.948 . S
H343 C318 0.979 . S
H344 C318 0.980 . S
H345 C318 0.983 . S
H346 C317 0.982 . S
H347 C317 0.979 . S
H348 C317 0.977 . S
H349 C319 0.948 . S
H350 C321 0.947 . S
H351 C322 0.948 . S
H352 C328 0.982 . S
H353 C328 0.979 . S
H354 C328 0.977 . S
H355 C329 0.979 . S
H356 C329 0.980 . S
H357 C329 0.983 . S
H358 C302 0.947 . S
C359 C302 1.392 . S
C359 C303 1.419 . S
C359 H341 0.948 . S
C360 C361 1.391 . S
C360 C364 1.391 . S
C360 H402 0.948 . S
C361 C360 1.391 . S
C361 C362 1.391 . S
C362 C361 1.391 . S
C362 H418 0.947 . S
C362 C419 1.392 . S
C363 C364 1.391 . S
C363 C367 1.397 . S
C363 C419 1.419 . S
C364 C360 1.391 . S
C364 C363 1.391 . S
C364 C365 1.399 . S
C365 C364 1.399 . S
C365 C368 1.387 1_545 S
C365 C377 1.453 1_545 S
C365 C378 1.684 . S
H366 C390 0.948 . S
C367 C363 1.397 . S
C367 C368 1.395 1_545 S
C367 C386 1.721 1_545 S
C368 C365 1.387 1_565 S
C368 C367 1.395 1_565 S
C368 C398 1.721 . S
H369 C392 0.947 . S
H370 C393 0.948 . S
H371 C399 0.982 . S
H372 C400 0.979 . S
H373 C400 0.980 . S
H374 C400 0.983 . S
H375 C399 0.979 . S
H376 C399 0.977 . S
C377 C365 1.453 1_565 S
C377 H406 0.982 . S
C377 H407 0.979 . S
C377 H408 0.977 . S
C378 C365 1.684 . S
C378 H403 0.979 . S
C378 H404 0.980 . S
C378 H405 0.983 . S
C379 C380 1.391 . S
C379 C384 1.391 . S
C379 H409 0.948 . S
C380 C379 1.391 . S
C380 C381 1.391 . S
C381 C380 1.391 . S
C381 C382 1.392 . S
C381 H410 0.947 . S
C382 C381 1.392 . S
C382 C383 1.419 . S
C382 H411 0.948 . S
C383 C382 1.419 . S
C383 C384 1.391 . S
C383 C387 1.397 . S
C384 C379 1.391 . S
C384 C383 1.391 . S
C384 C385 1.399 . S
C385 C384 1.399 . S
C385 C386 1.391 1_545 S
C385 C388 1.453 1_545 S
C385 C389 1.684 . S
C386 C367 1.721 1_565 S
C386 C385 1.391 1_565 S
C386 C387 1.392 1_565 S
C387 C383 1.397 . S
C387 C386 1.392 1_545 S
C387 C397 1.724 1_545 S
C388 C385 1.453 1_565 S
C388 H412 0.982 . S
C388 H413 0.979 . S
C388 H414 0.977 . S
C389 C385 1.684 . S
C389 H415 0.979 . S
C389 H416 0.980 . S
C389 H417 0.983 . S
C390 H366 0.948 . S
C390 C391 1.391 . S
C390 C395 1.391 . S
C391 C390 1.391 . S
C391 C392 1.391 . S
C392 H369 0.947 . S
C392 C391 1.391 . S
C392 C393 1.392 . S
C393 H370 0.948 . S
C393 C392 1.392 . S
C393 C394 1.426 . S
C394 C393 1.426 . S
C394 C395 1.399 . S
C394 C398 1.393 1_545 S
C395 C390 1.391 . S
C395 C394 1.399 . S
C395 C396 1.399 . S
C396 C395 1.399 . S
C396 C397 1.386 1_545 S
C396 C399 1.453 1_545 S
C396 C400 1.684 . S
C397 C387 1.724 1_565 S
C397 C396 1.386 1_565 S
C397 C398 1.392 . S
C398 C368 1.721 . S
C398 C394 1.393 1_565 S
C398 C397 1.392 . S
C399 H371 0.982 . S
C399 H375 0.979 . S
C399 H376 0.977 . S
C399 C396 1.453 1_565 S
C400 H372 0.979 . S
C400 H373 0.980 . S
C400 H374 0.983 . S
C400 C396 1.684 . S
H401 C419 0.948 . S
H402 C360 0.948 . S
H403 C378 0.979 . S
H404 C378 0.980 . S
H405 C378 0.983 . S
H406 C377 0.982 . S
H407 C377 0.979 . S
H408 C377 0.977 . S
H409 C379 0.948 . S
H410 C381 0.947 . S
H411 C382 0.948 . S
H412 C388 0.982 . S
H413 C388 0.979 . S
H414 C388 0.977 . S
H415 C389 0.979 . S
H416 C389 0.980 . S
H417 C389 0.983 . S
H418 C362 0.947 . S
C419 C362 1.392 . S
C419 C363 1.419 . S
C419 H401 0.948 . S
C420 C421 1.391 . S
C420 C424 1.391 . S
C420 H462 0.948 . S
C421 C420 1.391 . S
C421 C422 1.391 . S
C422 C421 1.391 . S
C422 H478 0.947 . S
C422 C479 1.392 . S
C423 C424 1.391 . S
C423 C427 1.397 . S
C423 C479 1.419 . S
C424 C420 1.391 . S
C424 C423 1.391 . S
C424 C425 1.399 . S
C425 C424 1.399 . S
C425 C428 1.396 . S
C425 C437 1.453 . S
C425 C438 1.684 . S
H426 C450 0.948 . S
C427 C423 1.397 . S
C427 C428 1.394 . S
C427 C446 1.723 . S
C428 C425 1.396 . S
C428 C427 1.394 . S
C428 C458 1.723 . S
H429 C452 0.947 . S
H430 C453 0.948 . S
H431 C459 0.982 . S
H432 C460 0.979 . S
H433 C460 0.980 . S
H434 C460 0.983 . S
H435 C459 0.979 . S
H436 C459 0.977 . S
C437 C425 1.453 . S
C437 H466 0.982 . S
C437 H467 0.979 . S
C437 H468 0.977 . S
C438 C425 1.684 . S
C438 H463 0.979 . S
C438 H464 0.980 . S
C438 H465 0.983 . S
C439 C440 1.391 . S
C439 C444 1.391 . S
C439 H469 0.948 . S
C440 C439 1.391 . S
C440 C441 1.391 . S
C441 C440 1.391 . S
C441 C442 1.392 . S
C441 H470 0.947 . S
C442 C441 1.392 . S
C442 C443 1.419 . S
C442 H471 0.948 . S
C443 C442 1.419 . S
C443 C444 1.391 . S
C443 C447 1.397 . S
C444 C439 1.391 . S
C444 C443 1.391 . S
C444 C445 1.399 . S
C445 C444 1.399 . S
C445 C446 1.396 . S
C445 C448 1.453 . S
C445 C449 1.684 . S
C446 C427 1.723 . S
C446 C445 1.396 . S
C446 C447 1.394 . S
C447 C443 1.397 . S
C447 C446 1.394 . S
C447 C457 1.723 . S
C448 C445 1.453 . S
C448 H472 0.982 . S
C448 H473 0.979 . S
C448 H474 0.977 . S
C449 C445 1.684 . S
C449 H475 0.979 . S
C449 H476 0.980 . S
C449 H477 0.983 . S
C450 H426 0.948 . S
C450 C451 1.391 . S
C450 C455 1.391 . S
C451 C450 1.391 . S
C451 C452 1.391 . S
C452 H429 0.947 . S
C452 C451 1.391 . S
C452 C453 1.392 . S
C453 H430 0.948 . S
C453 C452 1.392 . S
C453 C454 1.419 . S
C454 C453 1.419 . S
C454 C455 1.391 . S
C454 C458 1.397 . S
C455 C450 1.391 . S
C455 C454 1.391 . S
C455 C456 1.399 . S
C456 C455 1.399 . S
C456 C457 1.396 . S
C456 C459 1.453 . S
C456 C460 1.684 . S
C457 C447 1.723 . S
C457 C456 1.396 . S
C457 C458 1.394 . S
C458 C428 1.723 . S
C458 C454 1.397 . S
C458 C457 1.394 . S
C459 H431 0.982 . S
C459 H435 0.979 . S
C459 H436 0.977 . S
C459 C456 1.453 . S
C460 H432 0.979 . S
C460 H433 0.980 . S
C460 H434 0.983 . S
C460 C456 1.684 . S
H461 C479 0.948 . S
H462 C420 0.948 . S
H463 C438 0.979 . S
H464 C438 0.980 . S
H465 C438 0.983 . S
H466 C437 0.982 . S
H467 C437 0.979 . S
H468 C437 0.977 . S
H469 C439 0.948 . S
H470 C441 0.947 . S
H471 C442 0.948 . S
H472 C448 0.982 . S
H473 C448 0.979 . S
H474 C448 0.977 . S
H475 C449 0.979 . S
H476 C449 0.980 . S
H477 C449 0.983 . S
H478 C422 0.947 . S
C479 C422 1.392 . S
C479 C423 1.419 . S
C479 H461 0.948 . S
O480 Zn481 1.953 . S
O480 C496 1.236 . S
Zn481 O480 1.953 . S
Zn481 O482 1.947 . S
Zn481 O488 1.879 1_565 S
Zn481 O493 1.973 . S
O482 Zn481 1.947 . S
O482 Zn483 1.904 1_565 S
O482 Zn484 1.952 . S
O482 Zn485 1.960 . S
Zn483 O482 1.904 1_545 S
Zn483 O486 1.933 1_455 S
Zn483 O489 1.941 . S
Zn483 O490 1.965 . S
Zn484 O482 1.952 . S
Zn484 O491 1.938 1_565 S
Zn484 O492 1.906 . S
Zn484 O502 1.953 . S
Zn485 O482 1.960 . S
Zn485 O487 1.932 1_455 S
Zn485 O494 1.977 . S
Zn485 O495 1.910 . S
O486 Zn483 1.933 1_655 S
O486 C497 1.226 . S
O487 Zn485 1.932 1_655 S
O487 C497 1.307 1_565 S
O488 Zn481 1.879 1_545 S
O488 C499 1.253 . S
O489 Zn483 1.941 . S
O489 C499 1.283 . S
O490 Zn483 1.965 . S
O490 C498 1.303 . S
O491 Zn484 1.938 1_545 S
O491 C498 1.247 . S
O492 Zn484 1.906 . S
O492 C500 1.304 . S
O493 Zn481 1.973 . S
O493 C501 1.311 . S
O494 Zn485 1.977 . S
O494 C500 1.272 . S
O495 Zn485 1.910 . S
O495 C501 1.231 . S
C496 O480 1.236 . S
C496 O502 1.298 . S
C497 O486 1.226 . S
C497 O487 1.307 1_545 S
C498 O490 1.303 . S
C498 O491 1.247 . S
C499 O488 1.253 . S
C499 O489 1.283 . S
C500 O492 1.304 . S
C500 O494 1.272 . S
C501 O493 1.311 . S
C501 O495 1.231 . S
O502 Zn484 1.953 . S
O502 C496 1.298 . S
O503 Zn504 1.953 . S
O503 C519 1.225 . S
Zn504 O503 1.953 . S
Zn504 O505 1.949 . S
Zn504 O511 1.919 . S
Zn504 O516 1.924 . S
O505 Zn504 1.949 . S
O505 Zn506 1.923 1_545 S
O505 Zn507 1.950 . S
O505 Zn508 1.945 1_545 S
Zn506 O505 1.923 1_565 S
Zn506 O509 1.933 . S
Zn506 O512 1.941 . S
Zn506 O513 1.965 . S
Zn507 O505 1.950 . S
Zn507 O514 1.938 . S
Zn507 O515 1.894 1_545 S
Zn507 O525 1.953 . S
Zn508 O505 1.945 1_565 S
Zn508 O510 1.932 . S
Zn508 O517 1.977 . S
Zn508 O518 1.910 1_565 S
O509 Zn506 1.933 . S
O509 C520 1.226 . S
O510 Zn508 1.932 . S
O510 C520 1.307 . S
O511 Zn504 1.919 . S
O511 C522 1.253 . S
O512 Zn506 1.941 . S
O512 C522 1.283 1_565 S
O513 Zn506 1.965 . S
O513 C521 1.303 . S
O514 Zn507 1.938 . S
O514 C521 1.247 1_545 S
O515 Zn507 1.894 1_565 S
O515 C523 1.322 . S
O516 Zn504 1.924 . S
O516 C524 1.311 . S
O517 Zn508 1.977 . S
O517 C523 1.272 . S
O518 Zn508 1.910 1_545 S
O518 C524 1.231 . S
C519 O503 1.225 . S
C519 O525 1.298 . S
C520 O509 1.226 . S
C520 O510 1.307 . S
C521 O513 1.303 . S
C521 O514 1.247 1_565 S
C522 O511 1.253 . S
C522 O512 1.283 1_545 S
C523 O515 1.322 . S
C523 O517 1.272 . S
C524 O516 1.311 . S
C524 O518 1.231 . S
O525 Zn507 1.953 . S
O525 C519 1.298 . S
O526 Zn527 1.953 . S
O526 C542 1.225 . S
Zn527 O526 1.953 . S
Zn527 O528 1.949 . S
Zn527 O534 1.919 . S
Zn527 O539 1.924 . S
O528 Zn527 1.949 . S
O528 Zn529 1.923 . S
O528 Zn530 1.950 . S
O528 Zn531 1.945 . S
Zn529 O528 1.923 . S
Zn529 O532 1.933 . S
Zn529 O535 1.941 . S
Zn529 O536 1.965 . S
Zn530 O528 1.950 . S
Zn530 O537 1.938 . S
Zn530 O538 1.906 . S
Zn530 O548 1.953 . S
Zn531 O528 1.945 . S
Zn531 O533 1.932 . S
Zn531 O540 1.977 . S
Zn531 O541 1.910 . S
O532 Zn529 1.933 . S
O532 C543 1.226 . S
O533 Zn531 1.932 . S
O533 C543 1.307 . S
O534 Zn527 1.919 . S
O534 C545 1.253 . S
O535 Zn529 1.941 . S
O535 C545 1.283 . S
O536 Zn529 1.965 . S
O536 C544 1.303 . S
O537 Zn530 1.938 . S
O537 C544 1.247 . S
O538 Zn530 1.906 . S
O538 C546 1.304 . S
O539 Zn527 1.924 . S
O539 C547 1.311 . S
O540 Zn531 1.977 . S
O540 C546 1.272 . S
O541 Zn531 1.910 . S
O541 C547 1.231 . S
C542 O526 1.225 . S
C542 O548 1.298 . S
C543 O532 1.226 . S
C543 O533 1.307 . S
C544 O536 1.303 . S
C544 O537 1.247 . S
C545 O534 1.253 . S
C545 O535 1.283 . S
C546 O538 1.304 . S
C546 O540 1.272 . S
C547 O539 1.311 . S
C547 O541 1.231 . S
O548 Zn530 1.953 . S
O548 C542 1.298 . S
O549 Zn550 1.953 1_655 S
O549 C565 1.225 . S
Zn550 O549 1.953 1_455 S
Zn550 O551 1.949 . S
Zn550 O557 1.919 . S
Zn550 O562 1.924 . S
O551 Zn550 1.949 . S
O551 Zn552 1.923 . S
O551 Zn553 1.950 1_455 S
O551 Zn554 1.945 . S
Zn552 O551 1.923 . S
Zn552 O555 1.933 . S
Zn552 O558 1.941 . S
Zn552 O559 1.965 1_455 S
Zn553 O551 1.950 1_655 S
Zn553 O560 1.938 . S
Zn553 O561 1.906 1_655 S
Zn553 O571 1.953 . S
Zn554 O551 1.945 . S
Zn554 O556 1.932 . S
Zn554 O563 1.977 . S
Zn554 O564 1.910 . S
O555 Zn552 1.933 . S
O555 C566 1.226 . S
O556 Zn554 1.932 . S
O556 C566 1.307 . S
O557 Zn550 1.919 . S
O557 C568 1.253 . S
O558 Zn552 1.941 . S
O558 C568 1.283 . S
O559 Zn552 1.965 1_655 S
O559 C567 1.303 . S
O560 Zn553 1.938 . S
O560 C567 1.247 . S
O561 Zn553 1.906 1_455 S
O561 C569 1.304 . S
O562 Zn550 1.924 . S
O562 C570 1.311 . S
O563 Zn554 1.977 . S
O563 C569 1.272 . S
O564 Zn554 1.910 . S
O564 C570 1.231 . S
C565 O549 1.225 . S
C565 O571 1.298 . S
C566 O555 1.226 . S
C566 O556 1.307 . S
C567 O559 1.303 . S
C567 O560 1.247 . S
C568 O557 1.253 . S
C568 O558 1.283 . S
C569 O561 1.304 . S
C569 O563 1.272 . S
C570 O562 1.311 . S
C570 O564 1.231 . S
O571 Zn553 1.953 . S
O571 C565 1.298 . S
C572 C573 1.371 . S
C572 C574 1.327 . S
C572 H597 0.950 . S
C573 C572 1.371 . S
C573 C589 1.327 1_565 S
C574 C572 1.327 . S
C574 C593 1.429 . S
C574 H598 0.950 . S
C575 C592 1.574 . S
C575 C594 1.368 1_545 S
C575 H599 0.949 . S
H576 C580 0.949 . S
C577 C578 1.349 1_545 S
C577 C579 1.327 . S
C577 H600 0.950 . S
C578 C577 1.349 1_565 S
C578 C590 1.349 . S
C579 C577 1.327 . S
C579 C595 1.429 1_545 S
C579 H601 0.950 . S
C580 H576 0.949 . S
C580 C588 1.574 . S
C580 C596 1.368 . S
H581 C589 0.950 . S
H582 C587 0.950 . S
H583 C588 0.949 . S
H584 C590 0.950 . S
H585 C591 0.950 . S
H586 C592 0.949 . S
C587 H582 0.950 . S
C587 C589 1.327 . S
C587 C593 1.429 1_545 S
C588 C580 1.574 . S
C588 H583 0.949 . S
C588 C594 1.368 . S
C589 C573 1.327 1_545 S
C589 H581 0.950 . S
C589 C587 1.327 . S
C590 C578 1.349 . S
C590 H584 0.950 . S
C590 C591 1.327 . S
C591 H585 0.950 . S
C591 C590 1.327 . S
C591 C595 1.429 . S
C592 C575 1.574 . S
C592 H586 0.949 . S
C592 C596 1.368 1_545 S
C593 C574 1.429 . S
C593 C587 1.429 1_565 S
C593 C594 1.523 . S
C594 C575 1.368 1_565 S
C594 C588 1.368 . S
C594 C593 1.523 . S
C595 C579 1.429 1_565 S
C595 C591 1.429 . S
C595 C596 1.523 . S
C596 C580 1.368 . S
C596 C592 1.368 1_565 S
C596 C595 1.523 . S
H597 C572 0.950 . S
H598 C574 0.950 . S
H599 C575 0.949 . S
H600 C577 0.950 . S
H601 C579 0.950 . S
C602 C603 1.349 . S
C602 C604 1.327 . S
C602 H627 0.950 . S
C603 C602 1.349 . S
C603 C619 1.349 . S
C604 C602 1.327 . S
C604 C623 1.429 . S
C604 H628 0.950 . S
C605 C622 1.574 . S
C605 C624 1.368 . S
C605 H629 0.949 . S
H606 C610 0.949 . S
C607 C608 1.349 . S
C607 C609 1.327 . S
C607 H630 0.950 . S
C608 C607 1.349 . S
C608 C620 1.349 . S
C609 C607 1.327 . S
C609 C625 1.429 . S
C609 H631 0.950 . S
C610 H606 0.949 . S
C610 C618 1.574 . S
C610 C626 1.368 . S
H611 C619 0.950 . S
H612 C617 0.950 . S
H613 C618 0.949 . S
H614 C620 0.950 . S
H615 C621 0.950 . S
H616 C622 0.949 . S
C617 H612 0.950 . S
C617 C619 1.327 . S
C617 C623 1.429 . S
C618 C610 1.574 . S
C618 H613 0.949 . S
C618 C624 1.368 . S
C619 C603 1.349 . S
C619 H611 0.950 . S
C619 C617 1.327 . S
C620 C608 1.349 . S
C620 H614 0.950 . S
C620 C621 1.327 . S
C621 H615 0.950 . S
C621 C620 1.327 . S
C621 C625 1.429 . S
C622 C605 1.574 . S
C622 H616 0.949 . S
C622 C626 1.368 . S
C623 C604 1.429 . S
C623 C617 1.429 . S
C623 C624 1.523 . S
C624 C605 1.368 . S
C624 C618 1.368 . S
C624 C623 1.523 . S
C625 C609 1.429 . S
C625 C621 1.429 . S
C625 C626 1.523 . S
C626 C610 1.368 . S
C626 C622 1.368 . S
C626 C625 1.523 . S
H627 C602 0.950 . S
H628 C604 0.950 . S
H629 C605 0.949 . S
H630 C607 0.950 . S
H631 C609 0.950 . S
C632 C633 1.349 . S
C632 C634 1.327 . S
C632 H657 0.950 . S
C633 C632 1.349 . S
C633 C649 1.349 . S
C634 C632 1.327 . S
C634 C653 1.429 . S
C634 H658 0.950 . S
C635 C652 1.574 . S
C635 C654 1.368 . S
C635 H659 0.949 . S
H636 C640 0.949 . S
C637 C638 1.349 . S
C637 C639 1.327 . S
C637 H660 0.950 . S
C638 C637 1.349 . S
C638 C650 1.349 . S
C639 C637 1.327 . S
C639 C655 1.429 . S
C639 H661 0.950 . S
C640 H636 0.949 . S
C640 C648 1.574 . S
C640 C656 1.368 . S
H641 C649 0.950 . S
H642 C647 0.950 . S
H643 C648 0.949 . S
H644 C650 0.950 . S
H645 C651 0.950 . S
H646 C652 0.949 . S
C647 H642 0.950 . S
C647 C649 1.327 . S
C647 C653 1.429 . S
C648 C640 1.574 . S
C648 H643 0.949 . S
C648 C654 1.368 . S
C649 C633 1.349 . S
C649 H641 0.950 . S
C649 C647 1.327 . S
C650 C638 1.349 . S
C650 H644 0.950 . S
C650 C651 1.327 . S
C651 H645 0.950 . S
C651 C650 1.327 . S
C651 C655 1.429 . S
C652 C635 1.574 . S
C652 H646 0.949 . S
C652 C656 1.368 . S
C653 C634 1.429 . S
C653 C647 1.429 . S
C653 C654 1.523 . S
C654 C635 1.368 . S
C654 C648 1.368 . S
C654 C653 1.523 . S
C655 C639 1.429 . S
C655 C651 1.429 . S
C655 C656 1.523 . S
C656 C640 1.368 . S
C656 C652 1.368 . S
C656 C655 1.523 . S
H657 C632 0.950 . S
H658 C634 0.950 . S
H659 C635 0.949 . S
H660 C637 0.950 . S
H661 C639 0.950 . S
C662 C663 1.349 . S
C662 C664 1.327 . S
C662 H687 0.950 . S
C663 C662 1.349 . S
C663 C679 1.349 . S
C664 C662 1.327 . S
C664 C683 1.429 . S
C664 H688 0.950 . S
C665 C682 1.574 . S
C665 C684 1.368 . S
C665 H689 0.949 . S
H666 C670 0.949 . S
C667 C668 1.349 . S
C667 C669 1.327 . S
C667 H690 0.950 . S
C668 C667 1.349 . S
C668 C680 1.349 . S
C669 C667 1.327 . S
C669 C685 1.429 . S
C669 H691 0.950 . S
C670 H666 0.949 . S
C670 C678 1.574 . S
C670 C686 1.368 . S
H671 C679 0.950 . S
H672 C677 0.950 . S
H673 C678 0.949 . S
H674 C680 0.950 . S
H675 C681 0.950 . S
H676 C682 0.949 . S
C677 H672 0.950 . S
C677 C679 1.327 . S
C677 C683 1.429 . S
C678 C670 1.574 . S
C678 H673 0.949 . S
C678 C684 1.368 . S
C679 C663 1.349 . S
C679 H671 0.950 . S
C679 C677 1.327 . S
C680 C668 1.349 . S
C680 H674 0.950 . S
C680 C681 1.327 . S
C681 H675 0.950 . S
C681 C680 1.327 . S
C681 C685 1.429 . S
C682 C665 1.574 . S
C682 H676 0.949 . S
C682 C686 1.368 . S
C683 C664 1.429 . S
C683 C677 1.429 . S
C683 C684 1.523 . S
C684 C665 1.368 . S
C684 C678 1.368 . S
C684 C683 1.523 . S
C685 C669 1.429 . S
C685 C681 1.429 . S
C685 C686 1.523 . S
C686 C670 1.368 . S
C686 C682 1.368 . S
C686 C685 1.523 . S
H687 C662 0.950 . S
H688 C664 0.950 . S
H689 C665 0.949 . S
H690 C667 0.950 . S
H691 C669 0.950 . S
C692 C693 1.342 1_566 S
C692 C694 1.327 . S
C692 H717 0.950 . S
C693 C692 1.342 1_544 S
C693 C709 1.356 . S
C694 C692 1.327 . S
C694 C713 1.429 1_565 S
C694 H718 0.950 . S
C695 C712 1.574 . S
C695 C714 1.368 . S
C695 H719 0.949 . S
H696 C700 0.949 . S
C697 C698 1.349 . S
C697 C699 1.327 . S
C697 H720 0.950 . S
C698 C697 1.349 . S
C698 C710 1.349 1_545 S
C699 C697 1.327 . S
C699 C715 1.429 . S
C699 H721 0.950 . S
C700 H696 0.949 . S
C700 C708 1.574 . S
C700 C716 1.368 1_565 S
H701 C709 0.950 . S
H702 C707 0.950 . S
H703 C708 0.949 . S
H704 C710 0.950 . S
H705 C711 0.950 . S
H706 C712 0.949 . S
C707 H702 0.950 . S
C707 C709 1.327 1_556 S
C707 C713 1.429 . S
C708 C700 1.574 . S
C708 H703 0.949 . S
C708 C714 1.368 1_565 S
C709 C693 1.356 . S
C709 H701 0.950 . S
C709 C707 1.327 1_554 S
C710 C698 1.349 1_565 S
C710 H704 0.950 . S
C710 C711 1.327 . S
C711 H705 0.950 . S
C711 C710 1.327 . S
C711 C715 1.429 1_565 S
C712 C695 1.574 . S
C712 H706 0.949 . S
C712 C716 1.368 . S
C713 C694 1.429 1_545 S
C713 C707 1.429 . S
C713 C714 1.523 . S
C714 C695 1.368 . S
C714 C708 1.368 1_545 S
C714 C713 1.523 . S
C715 C699 1.429 . S
C715 C711 1.429 1_545 S
C715 C716 1.523 . S
C716 C700 1.368 1_545 S
C716 C712 1.368 . S
C716 C715 1.523 . S
H717 C692 0.950 . S
H718 C694 0.950 . S
H719 C695 0.949 . S
H720 C697 0.950 . S
H721 C699 0.950 . S
C722 C723 1.349 . S
C722 C724 1.327 . S
C722 H747 0.950 . S
C723 C722 1.349 . S
C723 C739 1.349 . S
C724 C722 1.327 . S
C724 C743 1.429 . S
C724 H748 0.950 . S
C725 C742 1.574 . S
C725 C744 1.368 . S
C725 H749 0.949 . S
H726 C730 0.949 . S
C727 C728 1.349 . S
C727 C729 1.327 . S
C727 H750 0.950 . S
C728 C727 1.349 . S
C728 C740 1.349 . S
C729 C727 1.327 . S
C729 C745 1.429 . S
C729 H751 0.950 . S
C730 H726 0.949 . S
C730 C738 1.574 . S
C730 C746 1.368 . S
H731 C739 0.950 1_554 S
H732 C737 0.950 . S
H733 C738 0.949 . S
H734 C740 0.950 . S
H735 C741 0.950 . S
H736 C742 0.949 . S
C737 H732 0.950 . S
C737 C739 1.327 . S
C737 C743 1.429 . S
C738 C730 1.574 . S
C738 H733 0.949 . S
C738 C744 1.368 . S
C739 C723 1.349 . S
C739 H731 0.950 1_556 S
C739 C737 1.327 . S
C740 C728 1.349 . S
C740 H734 0.950 . S
C740 C741 1.327 . S
C741 H735 0.950 . S
C741 C740 1.327 . S
C741 C745 1.429 . S
C742 C725 1.574 . S
C742 H736 0.949 . S
C742 C746 1.368 . S
C743 C724 1.429 . S
C743 C737 1.429 . S
C743 C744 1.523 . S
C744 C725 1.368 . S
C744 C738 1.368 . S
C744 C743 1.523 . S
C745 C729 1.429 . S
C745 C741 1.429 . S
C745 C746 1.523 . S
C746 C730 1.368 . S
C746 C742 1.368 . S
C746 C745 1.523 . S
H747 C722 0.950 . S
H748 C724 0.950 . S
H749 C725 0.949 . S
H750 C727 0.950 . S
H751 C729 0.950 . S
C752 C753 1.349 . S
C752 C754 1.327 . S
C752 H777 0.950 . S
C753 C752 1.349 . S
C753 C769 1.349 . S
C754 C752 1.327 . S
C754 C773 1.429 . S
C754 H778 0.950 . S
C755 C772 1.574 . S
C755 C774 1.368 . S
C755 H779 0.949 . S
H756 C760 0.949 . S
C757 C758 1.349 . S
C757 C759 1.327 . S
C757 H780 0.950 . S
C758 C757 1.349 . S
C758 C770 1.349 . S
C759 C757 1.327 . S
C759 C775 1.429 . S
C759 H781 0.950 . S
C760 H756 0.949 . S
C760 C768 1.574 . S
C760 C776 1.368 . S
H761 C769 0.950 . S
H762 C767 0.950 . S
H763 C768 0.949 . S
H764 C770 0.950 . S
H765 C771 0.950 . S
H766 C772 0.949 . S
C767 H762 0.950 . S
C767 C769 1.327 . S
C767 C773 1.429 . S
C768 C760 1.574 . S
C768 H763 0.949 . S
C768 C774 1.368 . S
C769 C753 1.349 . S
C769 H761 0.950 . S
C769 C767 1.327 . S
C770 C758 1.349 . S
C770 H764 0.950 . S
C770 C771 1.327 . S
C771 H765 0.950 . S
C771 C770 1.327 . S
C771 C775 1.429 . S
C772 C755 1.574 . S
C772 H766 0.949 . S
C772 C776 1.368 . S
C773 C754 1.429 . S
C773 C767 1.429 . S
C773 C774 1.523 . S
C774 C755 1.368 . S
C774 C768 1.368 . S
C774 C773 1.523 . S
C775 C759 1.429 . S
C775 C771 1.429 . S
C775 C776 1.523 . S
C776 C760 1.368 . S
C776 C772 1.368 . S
C776 C775 1.523 . S
H777 C752 0.950 . S
H778 C754 0.950 . S
H779 C755 0.949 . S
H780 C757 0.950 . S
H781 C759 0.950 . S
C782 C783 1.349 . S
C782 C784 1.327 1_554 S
C782 H807 0.950 . S
C783 C782 1.349 . S
C783 C799 1.349 1_654 S
C784 C782 1.327 1_556 S
C784 C803 1.429 . S
C784 H808 0.950 . S
C785 C802 1.574 . S
C785 C804 1.368 1_455 S
C785 H809 0.949 . S
H786 C790 0.949 . S
C787 C788 1.349 . S
C787 C789 1.327 . S
C787 H810 0.950 . S
C788 C787 1.349 . S
C788 C800 1.349 1_455 S
C789 C787 1.327 . S
C789 C805 1.429 . S
C789 H811 0.950 . S
C790 H786 0.949 . S
C790 C798 1.574 . S
C790 C806 1.368 1_655 S
H791 C799 0.946 1_554 S
H792 C797 0.950 . S
H793 C798 0.949 . S
H794 C800 0.950 . S
H795 C801 0.950 . S
H796 C802 0.949 . S
C797 H792 0.950 . S
C797 C799 1.327 . S
C797 C803 1.429 1_455 S
C798 C790 1.574 . S
C798 H793 0.949 . S
C798 C804 1.368 . S
C799 C783 1.349 1_456 S
C799 H791 0.946 1_556 S
C799 C797 1.327 . S
C800 C788 1.349 1_655 S
C800 H794 0.950 . S
C800 C801 1.327 . S
C801 H795 0.950 . S
C801 C800 1.327 . S
C801 C805 1.429 1_655 S
C802 C785 1.574 . S
C802 H796 0.949 . S
C802 C806 1.368 . S
C803 C784 1.429 . S
C803 C797 1.429 1_655 S
C803 C804 1.523 . S
C804 C785 1.368 1_655 S
C804 C798 1.368 . S
C804 C803 1.523 . S
C805 C789 1.429 . S
C805 C801 1.429 1_455 S
C805 C806 1.523 . S
C806 C790 1.368 1_455 S
C806 C802 1.368 . S
C806 C805 1.523 . S
H807 C782 0.950 . S
H808 C784 0.950 . S
H809 C785 0.949 . S
H810 C787 0.950 . S
H811 C789 0.950 . S
C812 C813 1.349 . S
C812 C814 1.327 . S
C812 H837 0.950 . S
C813 C812 1.349 . S
C813 C829 1.349 . S
C814 C812 1.327 . S
C814 C833 1.429 . S
C814 H838 0.950 . S
C815 C832 1.574 . S
C815 C834 1.368 . S
C815 H839 0.949 . S
H816 C820 0.949 . S
C817 C818 1.349 . S
C817 C819 1.327 . S
C817 H840 0.950 . S
C818 C817 1.349 . S
C818 C830 1.349 . S
C819 C817 1.327 . S
C819 C835 1.429 . S
C819 H841 0.950 . S
C820 H816 0.949 . S
C820 C828 1.574 . S
C820 C836 1.368 . S
H821 C829 0.950 . S
H822 C827 0.950 . S
H823 C828 0.949 . S
H824 C830 0.950 . S
H825 C831 0.950 . S
H826 C832 0.949 . S
C827 H822 0.950 . S
C827 C829 1.327 . S
C827 C833 1.429 . S
C828 C820 1.574 . S
C828 H823 0.949 . S
C828 C834 1.368 . S
C829 C813 1.349 . S
C829 H821 0.950 . S
C829 C827 1.327 . S
C830 C818 1.349 . S
C830 H824 0.950 . S
C830 C831 1.327 . S
C831 H825 0.950 . S
C831 C830 1.327 . S
C831 C835 1.429 . S
C832 C815 1.574 . S
C832 H826 0.949 . S
C832 C836 1.368 . S
C833 C814 1.429 . S
C833 C827 1.429 . S
C833 C834 1.523 . S
C834 C815 1.368 . S
C834 C828 1.368 . S
C834 C833 1.523 . S
C835 C819 1.429 . S
C835 C831 1.429 . S
C835 C836 1.523 . S
C836 C820 1.368 . S
C836 C832 1.368 . S
C836 C835 1.523 . S
H837 C812 0.950 . S
H838 C814 0.950 . S
H839 C815 0.949 . S
H840 C817 0.950 . S
H841 C819 0.950 . S
C842 C843 1.324 1_565 S
C842 C844 1.327 . S
C842 H867 0.950 . S
C843 C842 1.324 1_545 S
C843 C859 1.372 . S
C844 C842 1.327 . S
C844 C863 1.432 . S
C844 H868 0.950 . S
C845 C862 1.574 . S
C845 C864 1.342 1_545 S
C845 H869 0.949 . S
H846 C850 0.949 . S
C847 C848 1.349 1_545 S
C847 C849 1.327 . S
C847 H870 0.950 . S
C848 C847 1.349 1_565 S
C848 C860 1.349 . S
C849 C847 1.327 . S
C849 C865 1.429 1_545 S
C849 H871 0.950 . S
C850 H846 0.949 . S
C850 C858 1.574 . S
C850 C866 1.368 . S
H851 C859 0.950 . S
H852 C857 0.950 . S
H853 C858 0.949 . S
H854 C860 0.950 . S
H855 C861 0.950 . S
H856 C862 0.949 . S
C857 H852 0.950 . S
C857 C859 1.327 . S
C857 C863 1.424 1_545 S
C858 C850 1.574 . S
C858 H853 0.949 . S
C858 C864 1.396 . S
C859 C843 1.372 . S
C859 H851 0.950 . S
C859 C857 1.327 . S
C860 C848 1.349 . S
C860 H854 0.950 . S
C860 C861 1.327 . S
C861 H855 0.950 . S
C861 C860 1.327 . S
C861 C865 1.429 . S
C862 C845 1.574 . S
C862 H856 0.949 . S
C862 C866 1.368 1_545 S
C863 C844 1.432 . S
C863 C857 1.424 1_565 S
C863 C864 1.522 . S
C864 C845 1.342 1_565 S
C864 C858 1.396 . S
C864 C863 1.522 . S
C865 C849 1.429 1_565 S
C865 C861 1.429 . S
C865 C866 1.523 . S
C866 C850 1.368 . S
C866 C862 1.368 1_565 S
C866 C865 1.523 . S
H867 C842 0.950 . S
H868 C844 0.950 . S
H869 C845 0.949 . S
H870 C847 0.950 . S
H871 C849 0.950 . S
C872 C873 1.349 . S
C872 C874 1.327 . S
C872 H897 0.950 . S
C873 C872 1.349 . S
C873 C889 1.349 . S
C874 C872 1.327 . S
C874 C893 1.429 . S
C874 H898 0.950 . S
C875 C892 1.574 . S
C875 C894 1.368 . S
C875 H899 0.949 . S
H876 C880 0.949 . S
C877 C878 1.349 . S
C877 C879 1.327 . S
C877 H900 0.950 . S
C878 C877 1.349 . S
C878 C890 1.349 . S
C879 C877 1.327 . S
C879 C895 1.429 . S
C879 H901 0.950 . S
C880 H876 0.949 . S
C880 C888 1.574 . S
C880 C896 1.368 . S
H881 C889 0.950 . S
H882 C887 0.950 . S
H883 C888 0.949 . S
H884 C890 0.950 . S
H885 C891 0.950 . S
H886 C892 0.949 . S
C887 H882 0.950 . S
C887 C889 1.327 . S
C887 C893 1.429 . S
C888 C880 1.574 . S
C888 H883 0.949 . S
C888 C894 1.368 . S
C889 C873 1.349 . S
C889 H881 0.950 . S
C889 C887 1.327 . S
C890 C878 1.349 . S
C890 H884 0.950 . S
C890 C891 1.327 . S
C891 H885 0.950 . S
C891 C890 1.327 . S
C891 C895 1.429 . S
C892 C875 1.574 . S
C892 H886 0.949 . S
C892 C896 1.368 . S
C893 C874 1.429 . S
C893 C887 1.429 . S
C893 C894 1.523 . S
C894 C875 1.368 . S
C894 C888 1.368 . S
C894 C893 1.523 . S
C895 C879 1.429 . S
C895 C891 1.429 . S
C895 C896 1.523 . S
C896 C880 1.368 . S
C896 C892 1.368 . S
C896 C895 1.523 . S
H897 C872 0.950 . S
H898 C874 0.950 . S
H899 C875 0.949 . S
H900 C877 0.950 . S
H901 C879 0.950 . S
C902 C903 1.349 . S
C902 C904 1.327 . S
C902 H927 0.950 . S
C903 C902 1.349 . S
C903 C919 1.349 . S
C904 C902 1.327 . S
C904 C923 1.429 . S
C904 H928 0.950 . S
C905 C922 1.574 . S
C905 C924 1.368 . S
C905 H929 0.949 . S
H906 C910 0.949 . S
C907 C908 1.349 . S
C907 C909 1.327 . S
C907 H930 0.950 . S
C908 C907 1.349 . S
C908 C920 1.349 . S
C909 C907 1.327 . S
C909 C925 1.429 . S
C909 H931 0.950 . S
C910 H906 0.949 . S
C910 C918 1.574 . S
C910 C926 1.368 . S
H911 C919 0.950 . S
H912 C917 0.950 . S
H913 C918 0.949 . S
H914 C920 0.950 . S
H915 C921 0.950 . S
H916 C922 0.949 . S
C917 H912 0.950 . S
C917 C919 1.327 . S
C917 C923 1.429 . S
C918 C910 1.574 . S
C918 H913 0.949 . S
C918 C924 1.368 . S
C919 C903 1.349 . S
C919 H911 0.950 . S
C919 C917 1.327 . S
C920 C908 1.349 . S
C920 H914 0.950 . S
C920 C921 1.327 . S
C921 H915 0.950 . S
C921 C920 1.327 . S
C921 C925 1.429 . S
C922 C905 1.574 . S
C922 H916 0.949 . S
C922 C926 1.368 . S
C923 C904 1.429 . S
C923 C917 1.429 . S
C923 C924 1.523 . S
C924 C905 1.368 . S
C924 C918 1.368 . S
C924 C923 1.523 . S
C925 C909 1.429 . S
C925 C921 1.429 . S
C925 C926 1.523 . S
C926 C910 1.368 . S
C926 C922 1.368 . S
C926 C925 1.523 . S
H927 C902 0.950 . S
H928 C904 0.950 . S
H929 C905 0.949 . S
H930 C907 0.950 . S
H931 C909 0.950 . S
C932 C933 1.349 . S
C932 C934 1.327 . S
C932 H957 0.950 . S
C933 C932 1.349 . S
C933 C949 1.349 1_655 S
C934 C932 1.327 . S
C934 C953 1.429 1_655 S
C934 H958 0.950 . S
C935 C952 1.574 . S
C935 C954 1.368 . S
C935 H959 0.949 . S
H936 C940 0.949 . S
C937 C938 1.349 . S
C937 C939 1.327 . S
C937 H960 0.950 . S
C938 C937 1.349 . S
C938 C950 1.349 . S
C939 C937 1.327 . S
C939 C955 1.429 . S
C939 H961 0.950 . S
C940 H936 0.949 . S
C940 C948 1.574 . S
C940 C956 1.368 . S
H941 C949 0.950 1_554 S
H942 C947 0.950 . S
H943 C948 0.949 1_655 S
H944 C950 0.950 . S
H945 C951 0.950 . S
H946 C952 0.949 . S
C947 H942 0.950 . S
C947 C949 1.327 . S
C947 C953 1.429 . S
C948 C940 1.574 . S
C948 H943 0.949 1_455 S
C948 C954 1.368 . S
C949 C933 1.349 1_455 S
C949 H941 0.950 1_556 S
C949 C947 1.327 . S
C950 C938 1.349 . S
C950 H944 0.950 . S
C950 C951 1.327 . S
C951 H945 0.950 . S
C951 C950 1.327 . S
C951 C955 1.429 . S
C952 C935 1.574 . S
C952 H946 0.949 . S
C952 C956 1.368 . S
C953 C934 1.429 1_455 S
C953 C947 1.429 . S
C953 C954 1.523 . S
C954 C935 1.368 . S
C954 C948 1.368 . S
C954 C953 1.523 . S
C955 C939 1.429 . S
C955 C951 1.429 . S
C955 C956 1.523 . S
C956 C940 1.368 . S
C956 C952 1.368 . S
C956 C955 1.523 . S
H957 C932 0.950 . S
H958 C934 0.950 . S
H959 C935 0.949 . S
H960 C937 0.950 . S
H961 C939 0.950 . S
C962 C963 1.349 1_545 S
C962 C964 1.327 . S
C962 H987 0.950 . S
C963 C962 1.349 1_565 S
C963 C979 1.349 . S
C964 C962 1.327 . S
C964 C983 1.429 . S
C964 H988 0.950 . S
C965 C982 1.574 . S
C965 C984 1.368 1_565 S
C965 H989 0.949 . S
H966 C970 0.949 . S
C967 C968 1.349 . S
C967 C969 1.327 . S
C967 H990 0.950 . S
C968 C967 1.349 . S
C968 C980 1.349 . S
C969 C967 1.327 . S
C969 C985 1.429 . S
C969 H991 0.950 1_545 S
C970 H966 0.949 . S
C970 C978 1.574 . S
C970 C986 1.368 . S
H971 C979 0.950 . S
H972 C977 0.950 . S
H973 C978 0.949 . S
H974 C980 0.950 . S
H975 C981 0.950 . S
H976 C982 0.949 . S
C977 H972 0.950 . S
C977 C979 1.327 . S
C977 C983 1.429 1_565 S
C978 C970 1.574 . S
C978 H973 0.949 . S
C978 C984 1.368 . S
C979 C963 1.349 . S
C979 H971 0.950 . S
C979 C977 1.327 . S
C980 C968 1.349 . S
C980 H974 0.950 . S
C980 C981 1.327 . S
C981 H975 0.950 . S
C981 C980 1.327 . S
C981 C985 1.429 . S
C982 C965 1.574 . S
C982 H976 0.949 . S
C982 C986 1.368 1_565 S
C983 C964 1.429 . S
C983 C977 1.429 1_545 S
C983 C984 1.523 . S
C984 C965 1.368 1_545 S
C984 C978 1.368 . S
C984 C983 1.523 . S
C985 C969 1.429 . S
C985 C981 1.429 . S
C985 C986 1.523 . S
C986 C970 1.368 . S
C986 C982 1.368 1_545 S
C986 C985 1.523 . S
H987 C962 0.950 . S
H988 C964 0.950 . S
H989 C965 0.949 . S
H990 C967 0.950 . S
H991 C969 0.950 1_565 S
C992 C993 1.349 . S
C992 C994 1.327 . S
C992 H1017 0.950 . S
C993 C992 1.349 . S
C993 C1009 1.349 . S
C994 C992 1.327 . S
C994 C1013 1.429 . S
C994 H1018 0.950 . S
C995 C1012 1.574 . S
C995 C1014 1.368 . S
C995 H1019 0.949 . S
H996 C1000 0.949 . S
C997 C998 1.349 . S
C997 C999 1.327 . S
C997 H1020 0.950 . S
C998 C997 1.349 . S
C998 C1010 1.349 . S
C999 C997 1.327 . S
C999 C1015 1.429 . S
C999 H1021 0.950 . S
C1000 H996 0.949 . S
C1000 C1008 1.574 . S
C1000 C1016 1.368 . S
H1001 C1009 0.950 . S
H1002 C1007 0.950 . S
H1003 C1008 0.949 . S
H1004 C1010 0.950 . S
H1005 C1011 0.950 . S
H1006 C1012 0.949 . S
C1007 H1002 0.950 . S
C1007 C1009 1.327 . S
C1007 C1013 1.429 . S
C1008 C1000 1.574 . S
C1008 H1003 0.949 . S
C1008 C1014 1.368 . S
C1009 C993 1.349 . S
C1009 H1001 0.950 . S
C1009 C1007 1.327 . S
C1010 C998 1.349 . S
C1010 H1004 0.950 . S
C1010 C1011 1.327 . S
C1011 H1005 0.950 . S
C1011 C1010 1.327 . S
C1011 C1015 1.429 . S
C1012 C995 1.574 . S
C1012 H1006 0.949 . S
C1012 C1016 1.368 . S
C1013 C994 1.429 . S
C1013 C1007 1.429 . S
C1013 C1014 1.523 . S
C1014 C995 1.368 . S
C1014 C1008 1.368 . S
C1014 C1013 1.523 . S
C1015 C999 1.429 . S
C1015 C1011 1.429 . S
C1015 C1016 1.523 . S
C1016 C1000 1.368 . S
C1016 C1012 1.368 . S
C1016 C1015 1.523 . S
H1017 C992 0.950 . S
H1018 C994 0.950 . S
H1019 C995 0.949 . S
H1020 C997 0.950 . S
H1021 C999 0.950 . S
C1022 C1023 1.349 . S
C1022 C1024 1.327 . S
C1022 H1047 0.950 . S
C1023 C1022 1.349 . S
C1023 C1039 1.349 . S
C1024 C1022 1.327 . S
C1024 C1043 1.429 . S
C1024 H1048 0.950 . S
C1025 C1042 1.574 . S
C1025 C1044 1.368 . S
C1025 H1049 0.949 . S
H1026 C1030 0.949 . S
C1027 C1028 1.349 . S
C1027 C1029 1.327 . S
C1027 H1050 0.950 . S
C1028 C1027 1.349 . S
C1028 C1040 1.349 . S
C1029 C1027 1.327 . S
C1029 C1045 1.429 . S
C1029 H1051 0.950 . S
C1030 H1026 0.949 . S
C1030 C1038 1.574 . S
C1030 C1046 1.368 . S
H1031 C1039 0.950 . S
H1032 C1037 0.950 . S
H1033 C1038 0.949 . S
H1034 C1040 0.950 . S
H1035 C1041 0.950 . S
H1036 C1042 0.949 . S
C1037 H1032 0.950 . S
C1037 C1039 1.327 . S
C1037 C1043 1.429 . S
C1038 C1030 1.574 . S
C1038 H1033 0.949 . S
C1038 C1044 1.368 . S
C1039 C1023 1.349 . S
C1039 H1031 0.950 . S
C1039 C1037 1.327 . S
C1040 C1028 1.349 . S
C1040 H1034 0.950 . S
C1040 C1041 1.327 . S
C1041 H1035 0.950 . S
C1041 C1040 1.327 . S
C1041 C1045 1.429 . S
C1042 C1025 1.574 . S
C1042 H1036 0.949 . S
C1042 C1046 1.368 . S
C1043 C1024 1.429 . S
C1043 C1037 1.429 . S
C1043 C1044 1.523 . S
C1044 C1025 1.368 . S
C1044 C1038 1.368 . S
C1044 C1043 1.523 . S
C1045 C1029 1.429 . S
C1045 C1041 1.429 . S
C1045 C1046 1.523 . S
C1046 C1030 1.368 . S
C1046 C1042 1.368 . S
C1046 C1045 1.523 . S
H1047 C1022 0.950 . S
H1048 C1024 0.950 . S
H1049 C1025 0.949 . S
H1050 C1027 0.950 . S
H1051 C1029 0.950 . S
C1052 C1053 1.349 . S
C1052 C1054 1.327 . S
C1052 H1077 0.950 . S
C1053 C1052 1.349 . S
C1053 C1069 1.349 . S
C1054 C1052 1.327 . S
C1054 C1073 1.429 . S
C1054 H1078 0.950 . S
C1055 C1072 1.574 1_554 S
C1055 C1074 1.368 1_554 S
C1055 H1079 0.949 . S
H1056 C1060 0.949 . S
C1057 C1058 1.349 . S
C1057 C1059 1.327 . S
C1057 H1080 0.950 . S
C1058 C1057 1.349 . S
C1058 C1070 1.349 . S
C1059 C1057 1.327 . S
C1059 C1075 1.429 . S
C1059 H1081 0.950 . S
C1060 H1056 0.949 . S
C1060 C1068 1.574 . S
C1060 C1076 1.368 . S
H1061 C1069 0.950 . S
H1062 C1067 0.950 . S
H1063 C1068 0.949 . S
H1064 C1070 0.950 . S
H1065 C1071 0.950 . S
H1066 C1072 0.949 . S
C1067 H1062 0.950 . S
C1067 C1069 1.327 . S
C1067 C1073 1.429 . S
C1068 C1060 1.574 . S
C1068 H1063 0.949 . S
C1068 C1074 1.368 . S
C1069 C1053 1.349 . S
C1069 H1061 0.950 . S
C1069 C1067 1.327 . S
C1070 C1058 1.349 . S
C1070 H1064 0.950 . S
C1070 C1071 1.327 . S
C1071 H1065 0.950 . S
C1071 C1070 1.327 . S
C1071 C1075 1.429 . S
C1072 C1055 1.574 1_556 S
C1072 H1066 0.949 . S
C1072 C1076 1.368 . S
C1073 C1054 1.429 . S
C1073 C1067 1.429 . S
C1073 C1074 1.523 1_554 S
C1074 C1055 1.368 1_556 S
C1074 C1068 1.368 . S
C1074 C1073 1.523 1_556 S
C1075 C1059 1.429 . S
C1075 C1071 1.429 . S
C1075 C1076 1.523 . S
C1076 C1060 1.368 . S
C1076 C1072 1.368 . S
C1076 C1075 1.523 . S
H1077 C1052 0.950 . S
H1078 C1054 0.950 . S
H1079 C1055 0.949 . S
H1080 C1057 0.950 . S
H1081 C1059 0.950 . S
C1082 C1083 1.347 1_565 S
C1082 C1084 1.327 1_554 S
C1082 H1107 0.953 . S
C1083 C1082 1.347 1_545 S
C1083 C1099 1.351 . S
C1084 C1082 1.327 1_556 S
C1084 C1103 1.429 1_565 S
C1084 H1108 0.950 . S
C1085 C1102 1.574 . S
C1085 C1104 1.366 . S
C1085 H1109 0.949 . S
H1086 C1090 0.949 . S
C1087 C1088 1.348 1_545 S
C1087 C1089 1.327 . S
C1087 H1110 0.950 . S
C1088 C1087 1.348 1_565 S
C1088 C1100 1.349 . S
C1089 C1087 1.327 . S
C1089 C1105 1.431 1_545 S
C1089 H1111 0.950 . S
C1090 H1086 0.949 . S
C1090 C1098 1.574 . S
C1090 C1106 1.365 . S
H1091 C1099 0.950 . S
H1092 C1097 0.950 . S
H1093 C1098 0.949 . S
H1094 C1100 0.950 . S
H1095 C1101 0.950 . S
H1096 C1102 0.949 . S
C1097 H1092 0.950 . S
C1097 C1099 1.327 . S
C1097 C1103 1.428 1_554 S
C1098 C1090 1.574 . S
C1098 H1093 0.949 . S
C1098 C1104 1.371 1_565 S
C1099 C1083 1.351 . S
C1099 H1091 0.950 . S
C1099 C1097 1.327 . S
C1100 C1088 1.349 . S
C1100 H1094 0.950 . S
C1100 C1101 1.327 . S
C1101 H1095 0.950 . S
C1101 C1100 1.327 . S
C1101 C1105 1.426 . S
C1102 C1085 1.574 . S
C1102 H1096 0.949 . S
C1102 C1106 1.372 1_545 S
C1103 C1084 1.429 1_545 S
C1103 C1097 1.428 1_556 S
C1103 C1104 1.523 . S
C1104 C1085 1.366 . S
C1104 C1098 1.371 1_545 S
C1104 C1103 1.523 . S
C1105 C1089 1.431 1_565 S
C1105 C1101 1.426 . S
C1105 C1106 1.523 . S
C1106 C1090 1.365 . S
C1106 C1102 1.372 1_565 S
C1106 C1105 1.523 . S
H1107 C1082 0.953 . S
H1108 C1084 0.950 . S
H1109 C1085 0.949 . S
H1110 C1087 0.950 . S
H1111 C1089 0.950 . S
C1112 C1113 1.349 . S
C1112 C1114 1.327 . S
C1112 H1137 0.950 . S
C1113 C1112 1.349 . S
C1113 C1129 1.349 1_554 S
C1114 C1112 1.327 . S
C1114 C1133 1.429 1_554 S
C1114 H1138 0.950 . S
C1115 C1132 1.574 . S
C1115 C1134 1.368 . S
C1115 H1139 0.949 . S
H1116 C1120 0.949 . S
C1117 C1118 1.349 . S
C1117 C1119 1.327 . S
C1117 H1140 0.950 . S
C1118 C1117 1.349 . S
C1118 C1130 1.349 . S
C1119 C1117 1.327 . S
C1119 C1135 1.429 . S
C1119 H1141 0.950 . S
C1120 H1116 0.949 . S
C1120 C1128 1.574 . S
C1120 C1136 1.368 . S
H1121 C1129 0.950 . S
H1122 C1127 0.950 . S
H1123 C1128 0.949 . S
H1124 C1130 0.950 . S
H1125 C1131 0.950 . S
H1126 C1132 0.949 . S
C1127 H1122 0.950 . S
C1127 C1129 1.327 . S
C1127 C1133 1.429 . S
C1128 C1120 1.574 . S
C1128 H1123 0.949 . S
C1128 C1134 1.368 . S
C1129 C1113 1.349 1_556 S
C1129 H1121 0.950 . S
C1129 C1127 1.327 . S
C1130 C1118 1.349 . S
C1130 H1124 0.950 . S
C1130 C1131 1.327 . S
C1131 H1125 0.950 . S
C1131 C1130 1.327 . S
C1131 C1135 1.429 . S
C1132 C1115 1.574 . S
C1132 H1126 0.949 . S
C1132 C1136 1.368 . S
C1133 C1114 1.429 1_556 S
C1133 C1127 1.429 . S
C1133 C1134 1.523 . S
C1134 C1115 1.368 . S
C1134 C1128 1.368 . S
C1134 C1133 1.523 . S
C1135 C1119 1.429 . S
C1135 C1131 1.429 . S
C1135 C1136 1.523 . S
C1136 C1120 1.368 . S
C1136 C1132 1.368 . S
C1136 C1135 1.523 . S
H1137 C1112 0.950 . S
H1138 C1114 0.950 . S
H1139 C1115 0.949 . S
H1140 C1117 0.950 . S
H1141 C1119 0.950 . S
C1142 C1143 1.349 . S
C1142 C1144 1.327 . S
C1142 H1167 0.950 . S
C1143 C1142 1.349 . S
C1143 C1159 1.349 1_554 S
C1144 C1142 1.327 . S
C1144 C1163 1.429 1_554 S
C1144 H1168 0.950 . S
C1145 C1162 1.574 . S
C1145 C1164 1.368 . S
C1145 H1169 0.949 . S
H1146 C1150 0.949 . S
C1147 C1148 1.349 . S
C1147 C1149 1.327 . S
C1147 H1170 0.950 . S
C1148 C1147 1.349 . S
C1148 C1160 1.349 . S
C1149 C1147 1.327 . S
C1149 C1165 1.429 . S
C1149 H1171 0.950 . S
C1150 H1146 0.949 . S
C1150 C1158 1.574 . S
C1150 C1166 1.368 . S
H1151 C1159 0.950 . S
H1152 C1157 0.950 . S
H1153 C1158 0.949 . S
H1154 C1160 0.950 . S
H1155 C1161 0.950 . S
H1156 C1162 0.949 . S
C1157 H1152 0.950 . S
C1157 C1159 1.327 . S
C1157 C1163 1.429 . S
C1158 C1150 1.574 . S
C1158 H1153 0.949 . S
C1158 C1164 1.368 . S
C1159 C1143 1.349 1_556 S
C1159 H1151 0.950 . S
C1159 C1157 1.327 . S
C1160 C1148 1.349 . S
C1160 H1154 0.950 . S
C1160 C1161 1.327 . S
C1161 H1155 0.950 . S
C1161 C1160 1.327 . S
C1161 C1165 1.429 . S
C1162 C1145 1.574 . S
C1162 H1156 0.949 . S
C1162 C1166 1.368 . S
C1163 C1144 1.429 1_556 S
C1163 C1157 1.429 . S
C1163 C1164 1.523 . S
C1164 C1145 1.368 . S
C1164 C1158 1.368 . S
C1164 C1163 1.523 . S
C1165 C1149 1.429 . S
C1165 C1161 1.429 . S
C1165 C1166 1.523 . S
C1166 C1150 1.368 . S
C1166 C1162 1.368 . S
C1166 C1165 1.523 . S
H1167 C1142 0.950 . S
H1168 C1144 0.950 . S
H1169 C1145 0.949 . S
H1170 C1147 0.950 . S
H1171 C1149 0.950 . S
C1172 C1173 1.349 1_455 S
C1172 C1174 1.327 . S
C1172 H1197 0.950 . S
C1173 C1172 1.349 1_655 S
C1173 C1189 1.349 . S
C1174 C1172 1.327 . S
C1174 C1193 1.429 1_455 S
C1174 H1198 0.950 . S
C1175 C1192 1.574 . S
C1175 C1194 1.368 . S
C1175 H1199 0.949 . S
H1176 C1180 0.949 . S
C1177 C1178 1.349 1_655 S
C1177 C1179 1.327 . S
C1177 H1200 0.950 . S
C1178 C1177 1.349 1_455 S
C1178 C1190 1.349 . S
C1179 C1177 1.327 . S
C1179 C1195 1.429 1_655 S
C1179 H1201 0.950 . S
C1180 H1176 0.949 . S
C1180 C1188 1.574 . S
C1180 C1196 1.349 1_455 S
H1181 C1189 0.950 . S
H1182 C1187 0.950 . S
H1183 C1188 0.949 . S
H1184 C1190 0.950 . S
H1185 C1191 0.950 . S
H1186 C1192 0.949 . S
C1187 H1182 0.950 . S
C1187 C1189 1.327 . S
C1187 C1193 1.429 . S
C1188 C1180 1.574 . S
C1188 H1183 0.949 . S
C1188 C1194 1.368 1_455 S
C1189 C1173 1.349 . S
C1189 H1181 0.950 . S
C1189 C1187 1.327 . S
C1190 C1178 1.349 . S
C1190 H1184 0.950 . S
C1190 C1191 1.327 . S
C1191 H1185 0.950 . S
C1191 C1190 1.327 . S
C1191 C1195 1.429 . S
C1192 C1175 1.574 . S
C1192 H1186 0.949 . S
C1192 C1196 1.388 . S
C1193 C1174 1.429 1_655 S
C1193 C1187 1.429 . S
C1193 C1194 1.523 . S
C1194 C1175 1.368 . S
C1194 C1188 1.368 1_655 S
C1194 C1193 1.523 . S
C1195 C1179 1.429 1_455 S
C1195 C1191 1.429 . S
C1195 C1196 1.522 1_455 S
C1196 C1180 1.349 1_655 S
C1196 C1192 1.388 . S
C1196 C1195 1.522 1_655 S
H1197 C1172 0.950 . S
H1198 C1174 0.950 . S
H1199 C1175 0.949 . S
H1200 C1177 0.950 . S
H1201 C1179 0.950 . S
C1202 C1203 1.349 . S
C1202 C1204 1.327 . S
C1202 H1227 0.950 . S
C1203 C1202 1.349 . S
C1203 C1219 1.349 1_565 S
C1204 C1202 1.327 . S
C1204 C1223 1.429 . S
C1204 H1228 0.950 . S
C1205 C1222 1.574 . S
C1205 C1224 1.368 1_545 S
C1205 H1229 0.949 . S
H1206 C1210 0.949 . S
C1207 C1208 1.306 1_545 S
C1207 C1209 1.332 . S
C1207 H1230 0.990 . S
C1208 C1207 1.306 1_565 S
C1208 C1220 1.349 . S
C1209 C1207 1.332 . S
C1209 C1225 1.429 1_545 S
C1209 H1231 0.950 . S
C1210 H1206 0.949 . S
C1210 C1218 1.574 . S
C1210 C1226 1.368 . S
H1211 C1219 0.950 . S
H1212 C1217 0.950 . S
H1213 C1218 0.949 . S
H1214 C1220 0.950 . S
H1215 C1221 0.950 . S
H1216 C1222 0.949 . S
C1217 H1212 0.950 . S
C1217 C1219 1.327 . S
C1217 C1223 1.429 1_545 S
C1218 C1210 1.574 . S
C1218 H1213 0.949 . S
C1218 C1224 1.368 . S
C1219 C1203 1.349 1_545 S
C1219 H1211 0.950 . S
C1219 C1217 1.327 . S
C1220 C1208 1.349 . S
C1220 H1214 0.950 . S
C1220 C1221 1.327 . S
C1221 H1215 0.950 . S
C1221 C1220 1.327 . S
C1221 C1225 1.429 . S
C1222 C1205 1.574 . S
C1222 H1216 0.949 . S
C1222 C1226 1.368 1_545 S
C1223 C1204 1.429 . S
C1223 C1217 1.429 1_565 S
C1223 C1224 1.523 . S
C1224 C1205 1.368 1_565 S
C1224 C1218 1.368 . S
C1224 C1223 1.523 . S
C1225 C1209 1.429 1_565 S
C1225 C1221 1.429 . S
C1225 C1226 1.523 . S
C1226 C1210 1.368 . S
C1226 C1222 1.368 1_565 S
C1226 C1225 1.523 . S
H1227 C1202 0.950 . S
H1228 C1204 0.950 . S
H1229 C1205 0.949 . S
H1230 C1207 0.990 . S
H1231 C1209 0.950 . S
C1232 C1233 1.349 . S
C1232 C1234 1.327 . S
C1232 H1257 0.950 . S
C1233 C1232 1.349 . S
C1233 C1249 1.349 . S
C1234 C1232 1.327 . S
C1234 C1253 1.429 . S
C1234 H1258 0.950 . S
C1235 C1252 1.574 . S
C1235 C1254 1.368 . S
C1235 H1259 0.949 . S
H1236 C1240 0.949 . S
C1237 C1238 1.349 . S
C1237 C1239 1.327 . S
C1237 H1260 0.950 . S
C1238 C1237 1.349 . S
C1238 C1250 1.349 . S
C1239 C1237 1.327 . S
C1239 C1255 1.429 . S
C1239 H1261 0.950 . S
C1240 H1236 0.949 . S
C1240 C1248 1.574 . S
C1240 C1256 1.368 . S
H1241 C1249 0.950 . S
H1242 C1247 0.950 . S
H1243 C1248 0.949 . S
H1244 C1250 0.950 . S
H1245 C1251 0.950 . S
H1246 C1252 0.949 . S
C1247 H1242 0.950 . S
C1247 C1249 1.327 . S
C1247 C1253 1.429 . S
C1248 C1240 1.574 . S
C1248 H1243 0.949 . S
C1248 C1254 1.368 . S
C1249 C1233 1.349 . S
C1249 H1241 0.950 . S
C1249 C1247 1.327 . S
C1250 C1238 1.349 . S
C1250 H1244 0.950 . S
C1250 C1251 1.327 . S
C1251 H1245 0.950 . S
C1251 C1250 1.327 . S
C1251 C1255 1.429 . S
C1252 C1235 1.574 . S
C1252 H1246 0.949 . S
C1252 C1256 1.368 . S
C1253 C1234 1.429 . S
C1253 C1247 1.429 . S
C1253 C1254 1.523 . S
C1254 C1235 1.368 . S
C1254 C1248 1.368 . S
C1254 C1253 1.523 . S
C1255 C1239 1.429 . S
C1255 C1251 1.429 . S
C1255 C1256 1.523 . S
C1256 C1240 1.368 . S
C1256 C1252 1.368 . S
C1256 C1255 1.523 . S
H1257 C1232 0.950 . S
H1258 C1234 0.950 . S
H1259 C1235 0.949 . S
H1260 C1237 0.950 . S
H1261 C1239 0.950 . S
C1262 C1263 1.349 . S
C1262 C1264 1.327 . S
C1262 H1287 0.950 . S
C1263 C1262 1.349 . S
C1263 C1279 1.349 . S
C1264 C1262 1.327 . S
C1264 C1283 1.429 . S
C1264 H1288 0.950 . S
C1265 C1282 1.574 . S
C1265 C1284 1.368 . S
C1265 H1289 0.949 . S
H1266 C1270 0.949 . S
C1267 C1268 1.349 . S
C1267 C1269 1.327 . S
C1267 H1290 0.950 . S
C1268 C1267 1.349 . S
C1268 C1280 1.349 . S
C1269 C1267 1.327 . S
C1269 C1285 1.429 . S
C1269 H1291 0.950 . S
C1270 H1266 0.949 . S
C1270 C1278 1.574 . S
C1270 C1286 1.368 . S
H1271 C1279 0.950 . S
H1272 C1277 0.950 . S
H1273 C1278 0.949 . S
H1274 C1280 0.950 . S
H1275 C1281 0.950 . S
H1276 C1282 0.949 . S
C1277 H1272 0.950 . S
C1277 C1279 1.327 . S
C1277 C1283 1.429 . S
C1278 C1270 1.574 . S
C1278 H1273 0.949 . S
C1278 C1284 1.368 . S
C1279 C1263 1.349 . S
C1279 H1271 0.950 . S
C1279 C1277 1.327 . S
C1280 C1268 1.349 . S
C1280 H1274 0.950 . S
C1280 C1281 1.327 . S
C1281 H1275 0.950 . S
C1281 C1280 1.327 . S
C1281 C1285 1.429 . S
C1282 C1265 1.574 . S
C1282 H1276 0.949 . S
C1282 C1286 1.368 . S
C1283 C1264 1.429 . S
C1283 C1277 1.429 . S
C1283 C1284 1.523 . S
C1284 C1265 1.368 . S
C1284 C1278 1.368 . S
C1284 C1283 1.523 . S
C1285 C1269 1.429 . S
C1285 C1281 1.429 . S
C1285 C1286 1.523 . S
C1286 C1270 1.368 . S
C1286 C1282 1.368 . S
C1286 C1285 1.523 . S
H1287 C1262 0.950 . S
H1288 C1264 0.950 . S
H1289 C1265 0.949 . S
H1290 C1267 0.950 . S
H1291 C1269 0.950 . S
C573 C391 1.615 1_565 S
C578 C496 1.582 . S
C608 C519 1.796 . S
C603 C451 1.843 . S
C638 C542 1.693 . S
C633 C241 1.599 . S
C668 C569 1.571 . S
C663 C331 1.537 . S
C698 C497 1.548 . S
C693 C121 1.465 1_545 S
C723 C211 1.563 1_556 S
C728 C520 1.575 . S
C753 C31 1.415 . S
C758 C543 1.398 . S
C783 C91 1.564 . S
C788 C568 1.653 . S
C818 C498 0.423 . S
C813 C301 0.970 . S
C848 C521 0.709 . S
C843 C380 0.710 . S
C878 C544 0.405 . S
C873 C440 0.410 . S
C903 C260 0.738 . S
C908 C570 0.740 . S
C933 C61 0.508 . S
C938 C501 0.701 . S
C968 C524 0.805 . S
C963 C140 0.656 . S
C998 C547 0.723 . S
C993 C200 0.559 . S
C1023 C20 0.509 . S
C1028 C567 0.547 . S
C1053 C320 1.936 . S
C1058 C499 1.924 . S
C1083 C361 1.676 . S
C1088 C522 1.826 1_565 S
C1118 C545 1.853 . S
C1113 C421 1.714 . S
C1148 C566 1.510 . S
C1143 C271 1.502 . S
C1173 C80 1.929 . S
C1178 C500 1.840 . S
C1208 C523 1.716 . S
C1203 C151 1.789 . S
C1238 C546 1.706 . S
C1233 C181 1.600 . S
C1263 C1 1.816 . S
C1268 C565 2.004 . S
