# Generated by pormake.
# Topology cml, (3,6)-cn, num edge types: 1
# Building blocks:
#     Node 0, Type 0, BuildingBlock: KAKCAD_clean_linker_0, # of connection points: 3
#     Node 1, Type 0, BuildingBlock: KAKCAD_clean_linker_0, # of connection points: 3
#     Node 2, Type 0, BuildingBlock: KAKCAD_clean_linker_0, # of connection points: 3
#     Node 3, Type 0, BuildingBlock: KAKCAD_clean_linker_0, # of connection points: 3
#     Node 4, Type 0, BuildingBlock: KAKCAD_clean_linker_0, # of connection points: 3
#     Node 5, Type 0, BuildingBlock: KAKCAD_clean_linker_0, # of connection points: 3
#     Node 6, Type 0, BuildingBlock: KAKCAD_clean_linker_0, # of connection points: 3
#     Node 7, Type 0, BuildingBlock: KAKCAD_clean_linker_0, # of connection points: 3
#     Node 8, Type 1, BuildingBlock: IZENUY_clean_sbu_0, # of connection points: 6
#     Node 9, Type 1, BuildingBlock: IZENUY_clean_sbu_0, # of connection points: 6
#     Node 10, Type 1, BuildingBlock: IZENUY_clean_sbu_0, # of connection points: 6
#     Node 11, Type 1, BuildingBlock: IZENUY_clean_sbu_0, # of connection points: 6
#     Edge 12, Type (0, 1), BuildingBlock: CIFDUS_clean_linker_0, # of connection points: 2
#     Edge 13, Type (0, 1), BuildingBlock: CIFDUS_clean_linker_0, # of connection points: 2
#     Edge 14, Type (0, 1), BuildingBlock: CIFDUS_clean_linker_0, # of connection points: 2
#     Edge 15, Type (0, 1), BuildingBlock: CIFDUS_clean_linker_0, # of connection points: 2
#     Edge 16, Type (0, 1), BuildingBlock: CIFDUS_clean_linker_0, # of connection points: 2
#     Edge 17, Type (0, 1), BuildingBlock: CIFDUS_clean_linker_0, # of connection points: 2
#     Edge 18, Type (0, 1), BuildingBlock: CIFDUS_clean_linker_0, # of connection points: 2
#     Edge 19, Type (0, 1), BuildingBlock: CIFDUS_clean_linker_0, # of connection points: 2
#     Edge 20, Type (0, 1), BuildingBlock: CIFDUS_clean_linker_0, # of connection points: 2
#     Edge 21, Type (0, 1), BuildingBlock: CIFDUS_clean_linker_0, # of connection points: 2
#     Edge 22, Type (0, 1), BuildingBlock: CIFDUS_clean_linker_0, # of connection points: 2
#     Edge 23, Type (0, 1), BuildingBlock: CIFDUS_clean_linker_0, # of connection points: 2
#     Edge 24, Type (0, 1), BuildingBlock: CIFDUS_clean_linker_0, # of connection points: 2
#     Edge 25, Type (0, 1), BuildingBlock: CIFDUS_clean_linker_0, # of connection points: 2
#     Edge 26, Type (0, 1), BuildingBlock: CIFDUS_clean_linker_0, # of connection points: 2
#     Edge 27, Type (0, 1), BuildingBlock: CIFDUS_clean_linker_0, # of connection points: 2
#     Edge 28, Type (0, 1), BuildingBlock: CIFDUS_clean_linker_0, # of connection points: 2
#     Edge 29, Type (0, 1), BuildingBlock: CIFDUS_clean_linker_0, # of connection points: 2
#     Edge 30, Type (0, 1), BuildingBlock: CIFDUS_clean_linker_0, # of connection points: 2
#     Edge 31, Type (0, 1), BuildingBlock: CIFDUS_clean_linker_0, # of connection points: 2
#     Edge 32, Type (0, 1), BuildingBlock: CIFDUS_clean_linker_0, # of connection points: 2
#     Edge 33, Type (0, 1), BuildingBlock: CIFDUS_clean_linker_0, # of connection points: 2
#     Edge 34, Type (0, 1), BuildingBlock: CIFDUS_clean_linker_0, # of connection points: 2
#     Edge 35, Type (0, 1), BuildingBlock: CIFDUS_clean_linker_0, # of connection points: 2
# Relax obj value: 0.055
# Max RMSD: 0.070
# Mean RMSD: 0.067
data_MOF--net-cml--node1-IZENUY_clean_sbu_0--node2-KAKCAD_clean_linker_0--edge1-CIFDUS_clean_linker_0
_symmetry_space_group_name_H-M    P1
_symmetry_Int_Tables_number       1
_symmetry_cell_setting            triclinic
loop_
_symmetry_equiv_pos_as_xyz
'x, y, z'
_cell_length_a     39.050617
_cell_length_b     45.322786
_cell_length_c     41.999714
_cell_angle_alpha  90.053394
_cell_angle_beta   89.8671
_cell_angle_gamma 90.077544
loop_
_atom_site_label
_atom_site_type_symbol
_atom_site_fract_x
_atom_site_fract_y
_atom_site_fract_z
_atom_type_partial_charge
C0 C 0.3247 0.46369 0.93388 0.0
C1 C 0.36008 0.46685 0.93886 0.0
C2 C 0.30673 0.44045 0.94833 0.0
C3 C 0.32401 0.42015 0.96782 0.0
C4 C 0.35978 0.42209 0.97053 0.0
C5 C 0.37759 0.44523 0.9563 0.0
C6 C 0.30482 0.3992 0.9883 0.0
C7 C 0.27865 0.38122 0.9761 0.0
C8 C 0.2605 0.36153 0.99611 0.0
C9 C 0.26886 0.36076 0.02884 0.0
C10 C 0.29582 0.37788 0.04084 0.0
C11 C 0.31327 0.3972 0.02061 0.0
C12 C 0.30828 0.37407 0.07378 0.0
C13 C 0.28729 0.38 0.10021 0.0
C14 C 0.34246 0.36581 0.07863 0.0
C15 C 0.35568 0.36379 0.1093 0.0
C16 C 0.33511 0.37031 0.13585 0.0
C17 C 0.23446 0.34072 0.98257 0.0
C18 C 0.21567 0.34798 0.95509 0.0
C19 C 0.22894 0.3128 0.9964 0.0
C20 C 0.20544 0.29297 0.98335 0.0
C21 C 0.18751 0.29981 0.95527 0.0
C22 C 0.19305 0.3277 0.94137 0.0
C23 C 0.30075 0.37843 0.13111 0.0
H24 H 0.31068 0.48012 0.92051 0.0
H25 H 0.27914 0.43944 0.94588 0.0
H26 H 0.37384 0.40637 0.98486 0.0
H27 H 0.40498 0.44692 0.96 0.0
H28 H 0.2736 0.3819 0.95078 0.0
H29 H 0.33363 0.41083 0.03024 0.0
H30 H 0.25527 0.34631 0.04503 0.0
H31 H 0.26088 0.38656 0.0969 0.0
H32 H 0.35909 0.36114 0.05855 0.0
H33 H 0.38234 0.3578 0.11222 0.0
H34 H 0.21839 0.36934 0.94389 0.0
H35 H 0.24317 0.30575 0.0171 0.0
H36 H 0.2844 0.3835 0.15125 0.0
H37 H 0.18039 0.33394 0.91951 0.0
H38 H 0.20153 0.2722 0.9955 0.0
C39 C 0.68582 0.54132 0.42802 0.0
C40 C 0.65058 0.53639 0.43192 0.0
C41 C 0.70241 0.56326 0.44571 0.0
C42 C 0.68397 0.58094 0.46738 0.0
C43 C 0.64838 0.57671 0.47011 0.0
C44 C 0.63195 0.55456 0.45277 0.0
C45 C 0.70194 0.60274 0.48807 0.0
C46 C 0.72974 0.61926 0.47641 0.0
C47 C 0.74797 0.6388 0.49629 0.0
C48 C 0.73745 0.64201 0.52824 0.0
C49 C 0.70888 0.62655 0.53987 0.0
C50 C 0.6916 0.60679 0.51984 0.0
C51 C 0.69615 0.63135 0.57273 0.0
C52 C 0.71764 0.62745 0.59917 0.0
C53 C 0.66169 0.63888 0.57772 0.0
C54 C 0.6488 0.64216 0.60854 0.0
C55 C 0.66995 0.63754 0.63507 0.0
C56 C 0.77741 0.65616 0.4833 0.0
C57 C 0.7989 0.64409 0.45972 0.0
C58 C 0.7838 0.68519 0.49366 0.0
C59 C 0.81067 0.7017 0.48061 0.0
C60 C 0.83155 0.68989 0.45638 0.0
C61 C 0.82528 0.66079 0.44622 0.0
C62 C 0.70454 0.6302 0.63014 0.0
H63 H 0.70076 0.52746 0.41223 0.0
H64 H 0.72988 0.56563 0.44321 0.0
H65 H 0.63317 0.59034 0.48589 0.0
H66 H 0.60463 0.55144 0.45585 0.0
H67 H 0.73665 0.61732 0.45152 0.0
H68 H 0.67042 0.59409 0.5294 0.0
H69 H 0.75109 0.65676 0.54408 0.0
H70 H 0.74428 0.62151 0.59586 0.0
H71 H 0.64465 0.6421 0.55769 0.0
H72 H 0.62197 0.64755 0.61164 0.0
H73 H 0.79539 0.62165 0.4515 0.0
H74 H 0.76769 0.6955 0.51146 0.0
H75 H 0.72137 0.62657 0.65022 0.0
H76 H 0.84033 0.6509 0.42737 0.0
H77 H 0.81498 0.72377 0.48962 0.0
C78 C 0.68757 0.46976 0.94298 0.0
C79 C 0.67621 0.49342 0.96198 0.0
C80 C 0.70207 0.44468 0.95673 0.0
C81 C 0.70653 0.44271 0.9899 0.0
C82 C 0.69685 0.46705 0.00877 0.0
C83 C 0.68162 0.49191 0.99505 0.0
C84 C 0.71955 0.41488 0.00469 0.0
C85 C 0.74309 0.39673 0.98843 0.0
C86 C 0.7531 0.36924 1.0009 0.0
C87 C 0.74 0.36028 0.03059 0.0
C88 C 0.7176 0.37854 0.04771 0.0
C89 C 0.70728 0.40556 0.03457 0.0
C90 C 0.70439 0.36945 0.07928 0.0
C91 C 0.68666 0.34272 0.08308 0.0
C92 C 0.70823 0.38825 0.10557 0.0
C93 C 0.69374 0.38092 0.13494 0.0
C94 C 0.67433 0.35491 0.13854 0.0
C95 C 0.77697 0.34984 0.98274 0.0
C96 C 0.77444 0.3474 0.94941 0.0
C97 C 0.80243 0.33354 0.99853 0.0
C98 C 0.82473 0.31529 0.98145 0.0
C99 C 0.82227 0.31303 0.94815 0.0
C100 C 0.79691 0.32932 0.93232 0.0
C101 C 0.67155 0.3356 0.11236 0.0
H102 H 0.68479 0.47029 0.91735 0.0
H103 H 0.70875 0.42647 0.94123 0.0
H104 H 0.70055 0.46683 0.0343 0.0
H105 H 0.67312 0.5095 0.01062 0.0
H106 H 0.75399 0.40413 0.96609 0.0
H107 H 0.68866 0.41874 0.04737 0.0
H108 H 0.74716 0.3391 0.0405 0.0
H109 H 0.68331 0.32793 0.06305 0.0
H110 H 0.72224 0.4088 0.10328 0.0
H111 H 0.69731 0.39596 0.15469 0.0
H112 H 0.75477 0.35918 0.9365 0.0
H113 H 0.80552 0.33522 0.02408 0.0
H114 H 0.65655 0.31555 0.11403 0.0
H115 H 0.79412 0.32774 0.90672 0.0
H116 H 0.84433 0.30332 0.99427 0.0
C117 C 0.3247 0.65068 0.62326 0.0
C118 C 0.36039 0.64699 0.62396 0.0
C119 C 0.30668 0.64673 0.59471 0.0
C120 C 0.32419 0.63912 0.56655 0.0
C121 C 0.36012 0.63769 0.567 0.0
C122 C 0.37799 0.64148 0.59539 0.0
C123 C 0.30526 0.62999 0.5375 0.0
C124 C 0.27712 0.64618 0.52627 0.0
C125 C 0.25918 0.6371 0.49878 0.0
C126 C 0.26967 0.61111 0.48302 0.0
C127 C 0.29831 0.59531 0.49356 0.0
C128 C 0.31571 0.60471 0.52082 0.0
C129 C 0.31197 0.57019 0.47496 0.0
C130 C 0.29186 0.54518 0.46844 0.0
C131 C 0.34591 0.5712 0.464 0.0
C132 C 0.35953 0.54777 0.44662 0.0
C133 C 0.33968 0.52261 0.44031 0.0
C134 C 0.23064 0.65541 0.48577 0.0
C135 C 0.20905 0.67161 0.50616 0.0
C136 C 0.22526 0.6575 0.4527 0.0
C137 C 0.19907 0.6751 0.44044 0.0
C138 C 0.17791 0.69175 0.46078 0.0
C139 C 0.18336 0.68975 0.49385 0.0
C140 C 0.30579 0.52132 0.45152 0.0
H141 H 0.3106 0.65486 0.64503 0.0
H142 H 0.27899 0.64797 0.59506 0.0
H143 H 0.37439 0.63258 0.54555 0.0
H144 H 0.40558 0.63897 0.59526 0.0
H145 H 0.27014 0.6664 0.53839 0.0
H146 H 0.33743 0.59202 0.52918 0.0
H147 H 0.25622 0.60343 0.46206 0.0
H148 H 0.26564 0.54395 0.47682 0.0
H149 H 0.36185 0.59031 0.46867 0.0
H150 H 0.38578 0.54916 0.43832 0.0
H151 H 0.21187 0.67034 0.53175 0.0
H152 H 0.24161 0.64591 0.43604 0.0
H153 H 0.29006 0.50211 0.44681 0.0
H154 H 0.16811 0.7025 0.51042 0.0
H155 H 0.19546 0.67549 0.4149 0.0
C156 C 0.82457 0.96993 0.94782 0.0
C157 C 0.8587 0.97571 0.95637 0.0
C158 C 0.80711 0.94577 0.96089 0.0
C159 C 0.82359 0.92694 0.9826 0.0
C160 C 0.85815 0.93215 0.99001 0.0
C161 C 0.87544 0.95628 0.97715 0.0
C162 C 0.80475 0.90264 0.99869 0.0
C163 C 0.78222 0.88423 0.98184 0.0
C164 C 0.76539 0.86063 0.99717 0.0
C165 C 0.77181 0.8554 0.02971 0.0
C166 C 0.79381 0.87403 0.04682 0.0
C167 C 0.80985 0.89761 0.03126 0.0
C168 C 0.80155 0.86897 0.08079 0.0
C169 C 0.79638 0.89179 0.10286 0.0
C170 C 0.81909 0.84348 0.09031 0.0
C171 C 0.8337 0.8419 0.12069 0.0
C172 C 0.83074 0.86574 0.14204 0.0
C173 C 0.74106 0.84167 0.97912 0.0
C174 C 0.71848 0.85422 0.95688 0.0
C175 C 0.74008 0.81099 0.98398 0.0
C176 C 0.71697 0.79333 0.96713 0.0
C177 C 0.69438 0.80593 0.94497 0.0
C178 C 0.69549 0.83656 0.93995 0.0
C179 C 0.81056 0.89009 0.13326 0.0
H180 H 0.81106 0.98461 0.93187 0.0
H181 H 0.78045 0.94239 0.95482 0.0
H182 H 0.87185 0.91764 0.00601 0.0
H183 H 0.90199 0.95981 0.98359 0.0
H184 H 0.77853 0.88778 0.95657 0.0
H185 H 0.82679 0.91195 0.04466 0.0
H186 H 0.75913 0.83741 0.04199 0.0
H187 H 0.78277 0.91161 0.096 0.0
H188 H 0.82361 0.82574 0.07351 0.0
H189 H 0.84921 0.82289 0.12657 0.0
H190 H 0.71812 0.87783 0.95292 0.0
H191 H 0.75746 0.80053 1.00055 0.0
H192 H 0.80709 0.90852 0.14937 0.0
H193 H 0.67806 0.84699 0.92341 0.0
H194 H 0.71702 0.76974 0.97123 0.0
C195 C 0.18942 0.03287 0.44229 0.0
C196 C 0.15464 0.03376 0.43385 0.0
C197 C 0.20407 0.05614 0.45953 0.0
C198 C 0.18397 0.08028 0.46913 0.0
C199 C 0.14915 0.08093 0.46093 0.0
C200 C 0.1347 0.05801 0.44331 0.0
C201 C 0.19895 0.10496 0.48755 0.0
C202 C 0.22867 0.11932 0.47681 0.0
C203 C 0.24113 0.14429 0.49286 0.0
C204 C 0.22446 0.15423 0.52053 0.0
C205 C 0.19518 0.13964 0.53195 0.0
C206 C 0.18243 0.11521 0.51513 0.0
C207 C 0.17773 0.14972 0.56138 0.0
C208 C 0.19646 0.15485 0.58937 0.0
C209 C 0.14196 0.15296 0.56202 0.0
C210 C 0.12516 0.16054 0.59025 0.0
C211 C 0.14374 0.16472 0.61851 0.0
C212 C 0.27041 0.16096 0.47967 0.0
C213 C 0.30205 0.14709 0.47445 0.0
C214 C 0.26651 0.19082 0.47158 0.0
C215 C 0.29377 0.20653 0.45821 0.0
C216 C 0.32555 0.19279 0.45336 0.0
C217 C 0.32959 0.16301 0.46175 0.0
C218 C 0.17959 0.16208 0.61775 0.0
H219 H 0.20529 0.01441 0.4352 0.0
H220 H 0.23097 0.05513 0.4657 0.0
H221 H 0.13317 0.09939 0.46784 0.0
H222 H 0.10775 0.05909 0.43734 0.0
H223 H 0.24114 0.11195 0.45513 0.0
H224 H 0.1598 0.10383 0.52378 0.0
H225 H 0.23408 0.17353 0.53293 0.0
H226 H 0.22405 0.15236 0.58954 0.0
H227 H 0.12694 0.14935 0.54071 0.0
H228 H 0.09749 0.16217 0.59019 0.0
H229 H 0.30553 0.12406 0.48052 0.0
H230 H 0.24222 0.20185 0.47521 0.0
H231 H 0.19453 0.16533 0.63917 0.0
H232 H 0.35392 0.15203 0.45817 0.0
H233 H 0.29021 0.22953 0.45207 0.0
C234 C 0.15716 0.94516 0.92473 0.0
C235 C 0.1635 0.97501 0.93229 0.0
C236 C 0.17278 0.92246 0.94197 0.0
C237 C 0.19452 0.9291 0.96749 0.0
C238 C 0.20136 0.95868 0.9749 0.0
C239 C 0.18638 0.98138 0.95727 0.0
C240 C 0.20882 0.90533 0.98749 0.0
C241 C 0.23235 0.88509 0.97489 0.0
C242 C 0.24721 0.86357 0.99453 0.0
C243 C 0.2375 0.86187 0.02677 0.0
C244 C 0.21291 0.88137 0.03946 0.0
C245 C 0.19908 0.90326 0.01955 0.0
C246 C 0.20073 0.87855 0.07304 0.0
C247 C 0.1953 0.85063 0.08679 0.0
C248 C 0.19254 0.90378 0.09104 0.0
C249 C 0.17794 0.90119 0.12132 0.0
C250 C 0.17147 0.87328 0.13471 0.0
C251 C 0.27373 0.84352 0.98151 0.0
C252 C 0.267 0.82617 0.95449 0.0
C253 C 0.30636 0.84242 0.99544 0.0
C254 C 0.33211 0.82488 0.98207 0.0
C255 C 0.32544 0.80761 0.95499 0.0
C256 C 0.29255 0.80808 0.94155 0.0
C257 C 0.181 0.84804 0.11726 0.0
H258 H 0.13931 0.93918 0.90612 0.0
H259 H 0.16701 0.89972 0.93606 0.0
H260 H 0.21828 0.96422 0.99443 0.0
H261 H 0.19271 0.00394 0.96341 0.0
H262 H 0.23999 0.88678 0.95012 0.0
H263 H 0.17992 0.91839 0.02863 0.0
H264 H 0.2491 0.8453 0.04187 0.0
H265 H 0.20105 0.83068 0.07363 0.0
H266 H 0.19694 0.92568 0.08155 0.0
H267 H 0.17073 0.92118 0.13376 0.0
H268 H 0.242 0.82665 0.94339 0.0
H269 H 0.31219 0.85573 0.01617 0.0
H270 H 0.17702 0.82617 0.12695 0.0
H271 H 0.2869 0.79505 0.92057 0.0
H272 H 0.3573 0.82482 0.99283 0.0
C273 C 0.83291 0.10807 0.61272 0.0
C274 C 0.84734 0.13377 0.62591 0.0
C275 C 0.81894 0.1084 0.58215 0.0
C276 C 0.81869 0.1345 0.56418 0.0
C277 C 0.83112 0.16063 0.57799 0.0
C278 C 0.84544 0.16026 0.60852 0.0
C279 C 0.80846 0.13382 0.53021 0.0
C280 C 0.78581 0.1548 0.51774 0.0
C281 C 0.77746 0.1546 0.48521 0.0
C282 C 0.79234 0.1334 0.46496 0.0
C283 C 0.81502 0.11215 0.47716 0.0
C284 C 0.82258 0.11247 0.50987 0.0
C285 C 0.83092 0.08935 0.45628 0.0
C286 C 0.81168 0.0744 0.43296 0.0
C287 C 0.86524 0.0811 0.461 0.0
C288 C 0.87938 0.05749 0.44427 0.0
C289 C 0.85975 0.04168 0.42208 0.0
C290 C 0.75272 0.17633 0.47259 0.0
C291 C 0.71996 0.17866 0.48621 0.0
C292 C 0.76161 0.19484 0.44707 0.0
C293 C 0.73814 0.21553 0.43549 0.0
C294 C 0.7052 0.21749 0.44881 0.0
C295 C 0.69628 0.19885 0.47419 0.0
C296 C 0.82604 0.05082 0.4159 0.0
H297 H 0.83319 0.08744 0.62572 0.0
H298 H 0.80904 0.08804 0.57222 0.0
H299 H 0.83143 0.18101 0.56454 0.0
H300 H 0.85655 0.18041 0.61777 0.0
H301 H 0.77466 0.17128 0.53334 0.0
H302 H 0.83983 0.09611 0.51964 0.0
H303 H 0.78615 0.13345 0.43982 0.0
H304 H 0.78514 0.08011 0.42882 0.0
H305 H 0.8811 0.09262 0.47812 0.0
H306 H 0.90566 0.05127 0.44902 0.0
H307 H 0.71252 0.16453 0.50585 0.0
H308 H 0.7868 0.19348 0.43632 0.0
H309 H 0.81038 0.03896 0.3989 0.0
H310 H 0.67101 0.20003 0.48482 0.0
H311 H 0.74545 0.2296 0.41577 0.0
Fe312 Fe 0.00337 0.81376 0.32455 0.0
Fe313 Fe 0.00859 0.85029 0.38576 0.0
O314 O 0.00579 0.84855 0.34376 0.0
Fe315 Fe 0.00549 0.88146 0.32115 0.0
O316 O 0.97705 0.86685 0.29015 0.0
O317 O 0.96227 0.82262 0.30689 0.0
O318 O 0.97953 0.79565 0.35713 0.0
C319 C 0.96101 0.8068 0.37886 0.0
C320 C 0.04632 0.8471 0.28332 0.0
O321 O 0.96759 0.83198 0.39003 0.0
C322 C 0.05439 0.89327 0.36971 0.0
O323 O 0.04448 0.80272 0.3408 0.0
O324 O 0.03218 0.81544 0.38997 0.0
O325 O 0.04363 0.87052 0.29935 0.0
O326 O 0.02646 0.82548 0.28849 0.0
C327 C 0.96522 0.8986 0.37108 0.0
O328 O 0.04969 0.86907 0.38399 0.0
O329 O 0.03383 0.90174 0.34827 0.0
C330 C 0.05073 0.80162 0.37021 0.0
O331 O 0.98559 0.88532 0.38953 0.0
O332 O 0.96735 0.89508 0.34133 0.0
C333 C 0.95677 0.84498 0.28974 0.0
Fe334 Fe 0.00279 0.15266 0.88453 0.0
Fe335 Fe 0.00477 0.12137 0.81986 0.0
O336 O 1.00173 0.15433 0.84242 0.0
Fe337 Fe 0.99748 0.18876 0.82259 0.0
O338 O 0.03622 0.20308 0.84045 0.0
O339 O 0.02578 0.18773 0.88937 0.0
O340 O 0.04428 0.1348 0.88459 0.0
C341 C 0.0505 0.11056 0.8711 0.0
C342 C 0.95351 0.19494 0.8763 0.0
O343 O 0.03178 0.10156 0.84853 0.0
C344 C 0.95603 0.15486 0.78535 0.0
O345 O 0.98001 0.11721 0.88698 0.0
O346 O 0.96594 0.10674 0.83755 0.0
O347 O 0.97069 0.20591 0.85358 0.0
O348 O 0.96141 0.17027 0.88796 0.0
C349 C 0.04581 0.15743 0.7847 0.0
O350 O 0.97828 0.13462 0.78678 0.0
O351 O 0.95816 0.1771 0.80328 0.0
C352 C 0.96142 0.10352 0.8671 0.0
O353 O 0.04376 0.13407 0.80091 0.0
O354 O 0.0238 0.17781 0.788 0.0
C355 C 0.04253 0.20345 0.86987 0.0
Fe356 Fe 0.50502 0.31638 0.32075 0.0
Fe357 Fe 0.49927 0.34698 0.38578 0.0
O358 O 0.50068 0.34907 0.34365 0.0
Fe359 Fe 0.49749 0.38364 0.32433 0.0
O360 O 0.45929 0.3722 0.30272 0.0
O361 O 0.4803 0.32982 0.28686 0.0
O362 O 0.46518 0.3018 0.33674 0.0
C363 C 0.45932 0.29825 0.36605 0.0
C364 C 0.54799 0.3534 0.28828 0.0
O365 O 0.4775 0.31103 0.38685 0.0
C366 C 0.53864 0.39872 0.37444 0.0
O367 O 0.53048 0.29662 0.35055 0.0
O368 O 0.54143 0.3299 0.38719 0.0
O369 O 0.52561 0.37343 0.29127 0.0
O370 O 0.54503 0.32917 0.30299 0.0
C371 C 0.44998 0.38884 0.37533 0.0
O372 O 0.52052 0.38247 0.39228 0.0
O373 O 0.53529 0.39779 0.34456 0.0
C374 C 0.5486 0.30596 0.37337 0.0
O375 O 0.45709 0.36411 0.38751 0.0
O376 O 0.46898 0.39996 0.35404 0.0
C377 C 0.45784 0.34978 0.28492 0.0
Fe378 Fe 0.50484 0.64806 0.88685 0.0
Fe379 Fe 0.50888 0.62233 0.8195 0.0
O380 O 0.50655 0.65328 0.8451 0.0
Fe381 Fe 0.50585 0.68946 0.82892 0.0
O382 O 0.54483 0.6994 0.84989 0.0
O383 O 0.5287 0.68181 0.89634 0.0
O384 O 0.54564 0.62859 0.88724 0.0
C385 C 0.55139 0.6055 0.87127 0.0
C386 C 0.4585 0.69284 0.88007 0.0
O387 O 0.53342 0.5994 0.8471 0.0
C388 C 0.46392 0.66094 0.78688 0.0
O389 O 0.4808 0.6134 0.88484 0.0
O390 O 0.46847 0.60769 0.83423 0.0
O391 O 0.47874 0.70519 0.86058 0.0
O392 O 0.46387 0.66683 0.88945 0.0
C393 C 0.55333 0.65924 0.78901 0.0
O394 O 0.48469 0.63954 0.78732 0.0
O395 O 0.46677 0.68188 0.8066 0.0
C396 C 0.4627 0.60192 0.86313 0.0
O397 O 0.5494 0.63475 0.80286 0.0
O398 O 0.53285 0.68036 0.79436 0.0
C399 C 0.54887 0.69732 0.87963 0.0
H400 H 0.12981 0.31046 0.9195 0.0
H401 H 0.19102 0.23903 0.95704 0.0
H402 H 0.15083 0.20342 0.9355 0.0
H403 H 0.09813 0.19207 0.90569 0.0
H404 H 0.04177 0.26274 0.86182 0.0
H405 H 0.08092 0.29908 0.88524 0.0
C406 C 0.13504 0.28718 0.92255 0.0
C407 C 0.1635 0.27787 0.94058 0.0
C408 C 0.11268 0.26653 0.90872 0.0
C409 C 0.16892 0.24731 0.94441 0.0
C410 C 0.1461 0.22671 0.9317 0.0
C411 C 0.09469 0.21546 0.90123 0.0
C412 C 0.06727 0.22495 0.88234 0.0
C413 C 0.11784 0.23605 0.91394 0.0
C414 C 0.06294 0.25513 0.87628 0.0
C415 C 0.08519 0.27583 0.88974 0.0
H416 H 0.83225 0.74944 0.4451 0.0
H417 H 0.89403 0.67105 0.43386 0.0
H418 H 0.93823 0.69987 0.40726 0.0
H419 H 0.95999 0.7475 0.38764 0.0
H420 H 0.90101 0.82648 0.40385 0.0
H421 H 0.85545 0.79733 0.4287 0.0
C422 C 0.85556 0.7386 0.43742 0.0
C423 C 0.85935 0.70789 0.4414 0.0
C424 C 0.88151 0.75546 0.423 0.0
C425 C 0.88974 0.69443 0.43056 0.0
C426 C 0.91529 0.71096 0.41552 0.0
C427 C 0.93706 0.75825 0.39651 0.0
C428 C 0.93364 0.789 0.39372 0.0
C429 C 0.91142 0.74146 0.41152 0.0
C430 C 0.90414 0.8028 0.40577 0.0
C431 C 0.87811 0.78615 0.41993 0.0
H432 H 0.84171 0.25698 0.96223 0.0
H433 H 0.85661 0.32628 0.89325 0.0
H434 H 0.8974 0.29548 0.86412 0.0
H435 H 0.93035 0.2495 0.85933 0.0
H436 H 0.91523 0.18022 0.92853 0.0
H437 H 0.87311 0.21038 0.9564 0.0
C438 C 0.85401 0.26536 0.94089 0.0
C439 C 0.84628 0.29392 0.93002 0.0
C440 C 0.87743 0.24755 0.92428 0.0
C441 C 0.86195 0.3043 0.902 0.0
C442 C 0.88539 0.28674 0.88541 0.0
C443 C 0.91775 0.2409 0.88041 0.0
C444 C 0.92623 0.21265 0.89186 0.0
C445 C 0.89351 0.2584 0.89645 0.0
C446 C 0.9094 0.20189 0.91916 0.0
C447 C 0.8853 0.21915 0.9352 0.0
H448 H 0.17832 0.72288 0.40471 0.0
H449 H 0.11507 0.7045 0.487 0.0
H450 H 0.07129 0.73764 0.46686 0.0
H451 H 0.05048 0.77167 0.42588 0.0
H452 H 0.11068 0.7863 0.34114 0.0
H453 H 0.15572 0.75406 0.3619 0.0
C454 C 0.15478 0.72558 0.4181 0.0
C455 C 0.15049 0.71122 0.44765 0.0
C456 C 0.12901 0.74396 0.40587 0.0
C457 C 0.1198 0.7157 0.46467 0.0
C458 C 0.09446 0.73449 0.45301 0.0
C459 C 0.07351 0.76782 0.41199 0.0
C460 C 0.07747 0.7815 0.38218 0.0
C461 C 0.09884 0.74881 0.42373 0.0
C462 C 0.10711 0.77596 0.36416 0.0
C463 C 0.13286 0.75762 0.37606 0.0
H464 H 0.65457 0.7622 0.96918 0.0
H465 H 0.6775 0.80815 0.8818 0.0
H466 H 0.63488 0.77846 0.85363 0.0
H467 H 0.59057 0.73973 0.85404 0.0
H468 H 0.56782 0.69422 0.94192 0.0
H469 H 0.61112 0.72321 0.96947 0.0
C470 C 0.65052 0.76548 0.94389 0.0
C471 C 0.66921 0.78732 0.92763 0.0
C472 C 0.62595 0.74843 0.9279 0.0
C473 C 0.66322 0.79167 0.89496 0.0
C474 C 0.63895 0.77462 0.87881 0.0
C475 C 0.59512 0.7361 0.87919 0.0
C476 C 0.57578 0.71486 0.89583 0.0
C477 C 0.62003 0.75301 0.89507 0.0
C478 C 0.5821 0.71051 0.92847 0.0
C479 C 0.60693 0.72705 0.94431 0.0
H480 H 0.32829 0.2216 0.39691 0.0
H481 H 0.38756 0.20189 0.48064 0.0
H482 H 0.43466 0.23254 0.46073 0.0
H483 H 0.45794 0.26628 0.42043 0.0
H484 H 0.40022 0.28397 0.33513 0.0
H485 H 0.35354 0.25257 0.35452 0.0
C486 C 0.35164 0.22401 0.41062 0.0
C487 C 0.35458 0.20981 0.44021 0.0
C488 C 0.37873 0.24124 0.39876 0.0
C489 C 0.38494 0.21266 0.45775 0.0
C490 C 0.41174 0.23021 0.44643 0.0
C491 C 0.43517 0.26318 0.40605 0.0
C492 C 0.43231 0.27759 0.37655 0.0
C493 C 0.40877 0.24481 0.41713 0.0
C494 C 0.40296 0.27303 0.35791 0.0
C495 C 0.37625 0.25521 0.36904 0.0
H496 H 0.32651 0.74848 0.94402 0.0
H497 H 0.38643 0.82772 0.93286 0.0
H498 H 0.43245 0.79942 0.9076 0.0
H499 H 0.45577 0.7521 0.88902 0.0
H500 H 0.39789 0.67213 0.90361 0.0
H501 H 0.35098 0.7006 0.92719 0.0
C502 C 0.34968 0.75943 0.93595 0.0
C503 C 0.35317 0.79007 0.9401 0.0
C504 C 0.37633 0.74289 0.92212 0.0
C505 C 0.38335 0.80411 0.92995 0.0
C506 C 0.40957 0.78796 0.91547 0.0
C507 C 0.43281 0.74093 0.89723 0.0
C508 C 0.43018 0.71009 0.89438 0.0
C509 C 0.40636 0.75735 0.91145 0.0
C510 C 0.40052 0.69586 0.90559 0.0
C511 C 0.37368 0.71213 0.91902 0.0
H512 H 0.64296 0.20411 0.42525 0.0
H513 H 0.71079 0.27727 0.44297 0.0
H514 H 0.66775 0.31172 0.42234 0.0
H515 H 0.61039 0.32078 0.39909 0.0
H516 H 0.54503 0.24655 0.37788 0.0
H517 H 0.58727 0.21278 0.40011 0.0
C518 C 0.64817 0.22763 0.42461 0.0
C519 C 0.67969 0.2383 0.43574 0.0
C520 C 0.62371 0.24706 0.41213 0.0
C521 C 0.68657 0.26869 0.43445 0.0
C522 C 0.66198 0.28833 0.42276 0.0
C523 C 0.60551 0.29721 0.39947 0.0
C524 C 0.57468 0.28613 0.387 0.0
C525 C 0.6304 0.27776 0.41154 0.0
C526 C 0.5687 0.25555 0.38721 0.0
C527 C 0.59278 0.23623 0.39997 0.0
H528 H 0.3627 0.49269 0.87994 0.0
H529 H 0.39812 0.50197 0.97665 0.0
H530 H 0.43089 0.54568 0.96204 0.0
H531 H 0.45161 0.57965 0.92188 0.0
H532 H 0.41919 0.57043 0.82418 0.0
H533 H 0.3828 0.52854 0.83911 0.0
C534 C 0.37746 0.5045 0.89771 0.0
C535 C 0.37838 0.49402 0.92922 0.0
C536 C 0.39675 0.52953 0.88901 0.0
C537 C 0.39753 0.5094 0.95214 0.0
C538 C 0.41614 0.53444 0.94385 0.0
C539 C 0.43647 0.56871 0.90374 0.0
C540 C 0.43833 0.57814 0.87191 0.0
C541 C 0.41629 0.54445 0.91233 0.0
C542 C 0.41837 0.56359 0.84887 0.0
C543 C 0.3976 0.53959 0.85738 0.0
H544 H 0.61155 0.49458 0.45947 0.0
H545 H 0.65186 0.52185 0.36857 0.0
H546 H 0.6217 0.48094 0.34239 0.0
H547 H 0.58204 0.43831 0.34552 0.0
H548 H 0.5437 0.41117 0.4376 0.0
H549 H 0.57499 0.451 0.46302 0.0
C550 C 0.6136 0.49158 0.4339 0.0
C551 C 0.63343 0.5113 0.41587 0.0
C552 C 0.59658 0.46801 0.41922 0.0
C553 C 0.63659 0.5069 0.38288 0.0
C554 C 0.61932 0.48358 0.36795 0.0
C555 C 0.5807 0.44102 0.37115 0.0
C556 C 0.56023 0.4218 0.38947 0.0
C557 C 0.59899 0.46409 0.38588 0.0
C558 C 0.55907 0.42557 0.42274 0.0
C559 C 0.57692 0.44844 0.43741 0.0
H560 H 0.63206 0.49167 0.91189 0.0
H561 H 0.67671 0.55221 0.9796 0.0
H562 H 0.64243 0.59236 0.95763 0.0
H563 H 0.59854 0.6101 0.91962 0.0
H564 H 0.55768 0.54906 0.85026 0.0
H565 H 0.59264 0.50974 0.87188 0.0
C566 C 0.63512 0.51371 0.92152 0.0
C567 C 0.6571 0.51863 0.94751 0.0
C568 C 0.61597 0.53681 0.90837 0.0
C569 C 0.65964 0.54743 0.95998 0.0
C570 C 0.64019 0.57054 0.94727 0.0
C571 C 0.59749 0.58825 0.90913 0.0
C572 C 0.57524 0.58266 0.88344 0.0
C573 C 0.61802 0.56545 0.92158 0.0
C574 C 0.57445 0.55418 0.87002 0.0
C575 C 0.5944 0.53152 0.88244 0.0
H576 H 0.34796 0.46529 0.45825 0.0
H577 H 0.36607 0.52588 0.38095 0.0
H578 H 0.39853 0.4882 0.35232 0.0
H579 H 0.42635 0.44029 0.35166 0.0
H580 H 0.41199 0.37984 0.42993 0.0
H581 H 0.37296 0.41493 0.45556 0.0
C582 C 0.35852 0.46989 0.43487 0.0
C583 C 0.35483 0.49821 0.42164 0.0
C584 C 0.378 0.44829 0.41891 0.0
C585 C 0.36881 0.50421 0.39152 0.0
C586 C 0.38738 0.48273 0.37522 0.0
C587 C 0.41451 0.43455 0.37422 0.0
C588 C 0.42254 0.40761 0.38905 0.0
C589 C 0.3929 0.45502 0.38908 0.0
C590 C 0.40646 0.40048 0.41804 0.0
C591 C 0.38424 0.42061 0.43278 0.0
H592 H 0.86181 0.99654 0.89549 0.0
H593 H 0.89631 0.01449 0.99109 0.0
H594 H 0.92956 0.05653 0.97207 0.0
H595 H 0.95096 0.08664 0.92829 0.0
H596 H 0.91793 0.06865 0.83215 0.0
H597 H 0.88163 0.02845 0.85145 0.0
C598 C 0.87632 0.0099 0.91213 0.0
C599 C 0.87688 1.00229 0.94458 0.0
C600 C 0.89569 0.03396 0.90097 0.0
C601 C 0.89593 0.01965 0.96592 0.0
C602 C 0.91483 0.04375 0.95509 0.0
C603 C 0.93569 0.07411 0.91148 0.0
C604 C 0.93742 0.08058 0.87878 0.0
C605 C 0.91528 0.05084 0.92264 0.0
C606 C 0.91728 0.06408 0.85745 0.0
C607 C 0.89652 0.04105 0.86846 0.0
H608 H 0.1564 0.97486 0.44637 0.0
H609 H 0.11682 0.03884 0.38009 0.0
H610 H 0.08507 1.00016 0.35236 0.0
H611 H 0.0649 0.94938 0.34971 0.0
H612 H 0.1016 0.88519 0.4174 0.0
H613 H 0.13861 0.92262 0.4415 0.0
C614 C 0.14123 0.98013 0.42554 0.0
C615 C 0.1387 0.0096 0.41533 0.0
C616 C 0.12244 0.95783 0.41011 0.0
C617 C 0.1188 0.01632 0.3885 0.0
C618 C 0.10071 0.99424 0.37265 0.0
C619 C 0.08123 0.94336 0.36952 0.0
C620 C 0.08015 0.91453 0.3819 0.0
C621 C 0.10174 0.96508 0.38369 0.0
C622 C 0.10171 0.90724 0.40749 0.0
C623 C 0.12283 0.92867 0.42135 0.0
H624 H 0.14168 0.02801 0.95624 0.0
H625 H 0.1442 0.97699 0.86928 0.0
H626 H 0.11058 0.01477 0.8425 0.0
H627 H 0.07831 0.06136 0.84431 0.0
H628 H 0.07914 0.11358 0.93032 0.0
H629 H 0.11478 0.07669 0.95642 0.0
C630 C 0.13569 0.02527 0.93123 0.0
C631 C 0.14534 0.99926 0.91509 0.0
C632 C 0.117 0.04743 0.91566 0.0
C633 C 0.13652 0.99625 0.88274 0.0
C634 C 0.11749 0.01803 0.86724 0.0
C635 C 0.08657 0.06481 0.86867 0.0
C636 C 0.07575 0.0901 0.88538 0.0
C637 C 0.10719 0.04352 0.88358 0.0
C638 C 0.08703 0.09436 0.91684 0.0
C639 C 0.10728 0.07317 0.93188 0.0
H640 H 0.88999 0.9961 0.45181 0.0
H641 H 0.86159 0.02711 0.35863 0.0
H642 H 0.88983 0.98428 0.33417 0.0
H643 H 0.92608 0.93966 0.33956 0.0
H644 H 0.95338 0.9095 0.43373 0.0
H645 H 0.922 0.95022 0.45741 0.0
C646 C 0.88997 0.99343 0.42613 0.0
C647 C 0.87425 0.01485 0.40699 0.0
C648 C 0.90614 0.96893 0.41241 0.0
C649 C 0.87367 0.01088 0.37381 0.0
C650 C 0.8899 0.98648 0.35987 0.0
C651 C 0.92484 0.94183 0.36525 0.0
C652 C 0.94254 0.92166 0.38474 0.0
C653 C 0.90671 0.96556 0.37894 0.0
C654 C 0.94042 0.92478 0.41803 0.0
C655 C 0.92246 0.94812 0.4317 0.0
H656 H 0.37186 0.32583 0.16106 0.0
H657 H 0.33302 0.41254 0.18248 0.0
H658 H 0.36589 0.41337 0.2322 0.0
H659 H 0.41004 0.391 0.2669 0.0
H660 H 0.44851 0.30416 0.24388 0.0
H661 H 0.41153 0.30192 0.1976 0.0
C662 C 0.37038 0.34478 0.17681 0.0
C663 C 0.35042 0.36918 0.16808 0.0
C664 C 0.38959 0.34523 0.20492 0.0
C665 C 0.34819 0.39345 0.18882 0.0
C666 C 0.36719 0.39401 0.21709 0.0
C667 C 0.41009 0.3715 0.25192 0.0
C668 C 0.43255 0.34803 0.25868 0.0
C669 C 0.38867 0.37029 0.22499 0.0
C670 C 0.43194 0.32279 0.23913 0.0
C671 C 0.41073 0.3214 0.21258 0.0
H672 H 0.63172 0.68177 0.65998 0.0
H673 H 0.67489 0.59696 0.6828 0.0
H674 H 0.64462 0.59699 0.73396 0.0
H675 H 0.60191 0.61935 0.77 0.0
H676 H 0.55953 0.70464 0.7468 0.0
H677 H 0.59362 0.70626 0.69827 0.0
C678 C 0.63469 0.66344 0.67633 0.0
C679 C 0.6552 0.63929 0.66759 0.0
C680 C 0.61721 0.66361 0.70558 0.0
C681 C 0.6593 0.61584 0.6891 0.0
C682 C 0.64184 0.61578 0.71824 0.0
C683 C 0.60042 0.63844 0.75453 0.0
C684 C 0.57775 0.66163 0.76196 0.0
C685 C 0.62013 0.63928 0.72644 0.0
C686 C 0.57651 0.68635 0.74172 0.0
C687 C 0.59595 0.6873 0.71382 0.0
H688 H 0.64264 0.39518 0.1763 0.0
H689 H 0.66189 0.30169 0.16847 0.0
H690 H 0.62621 0.29275 0.21546 0.0
H691 H 0.58681 0.31158 0.25728 0.0
H692 H 0.56978 0.40551 0.26441 0.0
H693 H 0.6083 0.4141 0.2199 0.0
C694 C 0.63989 0.37285 0.18518 0.0
C695 C 0.65505 0.3492 0.16866 0.0
C696 C 0.61966 0.3679 0.21225 0.0
C697 C 0.65017 0.32036 0.18032 0.0
C698 C 0.62992 0.31522 0.20735 0.0
C699 C 0.59198 0.33392 0.24936 0.0
C700 C 0.57506 0.35781 0.26397 0.0
C701 C 0.6141 0.33882 0.2233 0.0
C702 C 0.58204 0.38665 0.25338 0.0
C703 C 0.60409 0.39164 0.22787 0.0
H704 H 0.36173 0.68718 0.67297 0.0
H705 H 0.40071 0.60244 0.64332 0.0
H706 H 0.43416 0.59874 0.69197 0.0
H707 H 0.45421 0.61997 0.74126 0.0
H708 H 0.41845 0.70555 0.77178 0.0
H709 H 0.38151 0.70841 0.72465 0.0
C710 C 0.37744 0.66792 0.67742 0.0
C711 C 0.37913 0.64525 0.65451 0.0
C712 C 0.39714 0.66609 0.70545 0.0
C713 C 0.39949 0.62035 0.66041 0.0
C714 C 0.4185 0.61816 0.68824 0.0
C715 C 0.43833 0.63932 0.73785 0.0
C716 C 0.43937 0.66261 0.75999 0.0
C717 C 0.41785 0.64101 0.71067 0.0
C718 C 0.41827 0.68732 0.75508 0.0
C719 C 0.39721 0.68899 0.72809 0.0
H720 H 0.84446 0.82118 0.18441 0.0
H721 H 0.86558 0.91307 0.16535 0.0
H722 H 0.90411 0.91509 0.21061 0.0
H723 H 0.93486 0.89038 0.25329 0.0
H724 H 0.91596 0.79821 0.27232 0.0
H725 H 0.87367 0.79676 0.22944 0.0
C726 C 0.85743 0.84164 0.19024 0.0
C727 C 0.85188 0.86694 0.17148 0.0
C728 C 0.88018 0.84261 0.21618 0.0
C729 C 0.86871 0.89336 0.17962 0.0
C730 C 0.89109 0.89452 0.20537 0.0
C731 C 0.92142 0.86995 0.24823 0.0
C732 C 0.92891 0.84439 0.26581 0.0
C733 C 0.8974 0.86921 0.22349 0.0
C734 C 0.91084 0.81823 0.25911 0.0
C735 C 0.88671 0.81735 0.23451 0.0
H736 H 0.15361 0.13707 0.67498 0.0
H737 H 0.09225 0.20407 0.62992 0.0
H738 H 0.05827 0.20959 0.67856 0.0
H739 H 0.04353 0.19285 0.73247 0.0
H740 H 0.10332 0.12411 0.77656 0.0
H741 H 0.14071 0.12212 0.72992 0.0
C742 C 0.13318 0.15324 0.67604 0.0
C743 C 0.12539 0.17012 0.64893 0.0
C744 C 0.11339 0.15589 0.70385 0.0
C745 C 0.09852 0.19066 0.65043 0.0
C746 C 0.07914 0.19385 0.67823 0.0
C747 C 0.06502 0.17772 0.73208 0.0
C748 C 0.07052 0.15858 0.75793 0.0
C749 C 0.08596 0.1762 0.70489 0.0
C750 C 0.09837 0.13897 0.75691 0.0
C751 C 0.11976 0.13779 0.73024 0.0
H752 H 0.12385 0.83219 0.15241 0.0
H753 H 0.17811 0.90859 0.18762 0.0
H754 H 0.14476 0.90697 0.23677 0.0
H755 H 0.09854 0.88503 0.26901 0.0
H756 H 0.04633 0.80734 0.23447 0.0
H757 H 0.08121 0.80795 0.18628 0.0
C758 C 0.129 0.84818 0.17101 0.0
C759 C 0.15337 0.87065 0.16596 0.0
C760 C 0.11003 0.84693 0.19946 0.0
C761 C 0.15907 0.89139 0.19038 0.0
C762 C 0.14013 0.89039 0.21866 0.0
C763 C 0.09491 0.86813 0.25103 0.0
C764 C 0.06959 0.84633 0.25534 0.0
C765 C 0.11519 0.8685 0.22329 0.0
C766 C 0.06555 0.82442 0.23188 0.0
C767 C 0.08544 0.82479 0.20419 0.0
H768 H 0.84905 0.17433 0.67445 0.0
H769 H 0.89027 0.09005 0.64548 0.0
H770 H 0.9252 0.0883 0.69327 0.0
H771 H 0.94678 0.11168 0.74147 0.0
H772 H 0.90801 0.19683 0.77018 0.0
H773 H 0.86958 0.19723 0.72427 0.0
C774 C 0.86569 0.1556 0.67858 0.0
C775 C 0.86682 0.13233 0.65632 0.0
C776 C 0.88634 0.15491 0.706 0.0
C777 C 0.88828 0.10806 0.66235 0.0
C778 C 0.90857 0.10712 0.6896 0.0
C779 C 0.92982 0.13031 0.7379 0.0
C780 C 0.93056 0.15429 0.75919 0.0
C781 C 0.90813 0.13055 0.71134 0.0
C782 C 0.90814 0.1781 0.75415 0.0
C783 C 0.88619 0.17838 0.72784 0.0
loop_
_geom_bond_atom_site_label_1
_geom_bond_atom_site_label_2
_geom_bond_distance
_geom_bond_site_symmetry_2
_ccdc_geom_bond_type
C0 C1 1.386 . S
C0 C2 1.397 . S
C0 H24 0.931 . S
C1 C0 1.386 . S
C1 C5 1.397 . S
C2 C0 1.397 . S
C2 C3 1.384 . S
C2 H25 0.930 . S
C3 C2 1.384 . S
C3 C4 1.377 . S
C3 C6 1.481 . S
C4 C3 1.377 . S
C4 C5 1.389 . S
C4 H26 0.929 . S
C5 C1 1.397 . S
C5 C4 1.389 . S
C5 H27 0.931 . S
C6 C3 1.481 . S
C6 C7 1.387 . S
C6 C11 1.390 1_556 S
C7 C6 1.387 . S
C7 C8 1.401 . S
C7 H28 0.930 . S
C8 C7 1.401 . S
C8 C9 1.376 1_556 S
C8 C17 1.511 . S
C9 C8 1.376 1_554 S
C9 C10 1.392 . S
C9 H30 0.931 . S
C10 C9 1.392 . S
C10 C11 1.361 . S
C10 C12 1.500 . S
C11 C6 1.390 1_554 S
C11 C10 1.361 . S
C11 H29 0.931 . S
C12 C10 1.500 . S
C12 C13 1.371 . S
C12 C14 1.365 . S
C13 C12 1.371 . S
C13 C23 1.386 . S
C13 H31 0.931 . S
C14 C12 1.365 . S
C14 C15 1.409 . S
C14 H32 0.929 . S
C15 C14 1.409 . S
C15 C16 1.380 . S
C15 H33 0.930 . S
C16 C15 1.380 . S
C16 C23 1.357 . S
C17 C8 1.511 . S
C17 C18 1.341 . S
C17 C19 1.371 . S
C18 C17 1.341 . S
C18 C22 1.394 . S
C18 H34 0.930 . S
C19 C17 1.371 . S
C19 C20 1.392 . S
C19 H35 0.931 1_556 S
C20 C19 1.392 . S
C20 C21 1.331 . S
C20 H38 0.932 . S
C21 C20 1.331 . S
C21 C22 1.336 . S
C22 C18 1.394 . S
C22 C21 1.336 . S
C22 H37 0.929 . S
C23 C13 1.386 . S
C23 C16 1.357 . S
C23 H36 0.928 . S
H24 C0 0.931 . S
H25 C2 0.930 . S
H26 C4 0.929 . S
H27 C5 0.931 . S
H28 C7 0.930 . S
H29 C11 0.931 . S
H30 C9 0.931 . S
H31 C13 0.931 . S
H32 C14 0.929 . S
H33 C15 0.930 . S
H34 C18 0.930 . S
H35 C19 0.931 1_554 S
H36 C23 0.928 . S
H37 C22 0.929 . S
H38 C20 0.932 . S
C39 C40 1.386 . S
C39 C41 1.397 . S
C39 H63 0.931 . S
C40 C39 1.386 . S
C40 C44 1.397 . S
C41 C39 1.397 . S
C41 C42 1.384 . S
C41 H64 0.930 . S
C42 C41 1.384 . S
C42 C43 1.377 . S
C42 C45 1.481 . S
C43 C42 1.377 . S
C43 C44 1.389 . S
C43 H65 0.929 . S
C44 C40 1.397 . S
C44 C43 1.389 . S
C44 H66 0.931 . S
C45 C42 1.481 . S
C45 C46 1.387 . S
C45 C50 1.390 . S
C46 C45 1.387 . S
C46 C47 1.401 . S
C46 H67 0.930 . S
C47 C46 1.401 . S
C47 C48 1.376 . S
C47 C56 1.511 . S
C48 C47 1.376 . S
C48 C49 1.392 . S
C48 H69 0.931 . S
C49 C48 1.392 . S
C49 C50 1.361 . S
C49 C51 1.500 . S
C50 C45 1.390 . S
C50 C49 1.361 . S
C50 H68 0.931 . S
C51 C49 1.500 . S
C51 C52 1.371 . S
C51 C53 1.365 . S
C52 C51 1.371 . S
C52 C62 1.386 . S
C52 H70 0.931 . S
C53 C51 1.365 . S
C53 C54 1.409 . S
C53 H71 0.929 . S
C54 C53 1.409 . S
C54 C55 1.380 . S
C54 H72 0.930 . S
C55 C54 1.380 . S
C55 C62 1.357 . S
C56 C47 1.511 . S
C56 C57 1.341 . S
C56 C58 1.371 . S
C57 C56 1.341 . S
C57 C61 1.394 . S
C57 H73 0.930 . S
C58 C56 1.371 . S
C58 C59 1.392 . S
C58 H74 0.931 . S
C59 C58 1.392 . S
C59 C60 1.331 . S
C59 H77 0.932 . S
C60 C59 1.331 . S
C60 C61 1.336 . S
C61 C57 1.394 . S
C61 C60 1.336 . S
C61 H76 0.929 . S
C62 C52 1.386 . S
C62 C55 1.357 . S
C62 H75 0.928 . S
H63 C39 0.931 . S
H64 C41 0.930 . S
H65 C43 0.929 . S
H66 C44 0.931 . S
H67 C46 0.930 . S
H68 C50 0.931 . S
H69 C48 0.931 . S
H70 C52 0.931 . S
H71 C53 0.929 . S
H72 C54 0.930 . S
H73 C57 0.930 . S
H74 C58 0.931 . S
H75 C62 0.928 . S
H76 C61 0.929 . S
H77 C59 0.932 . S
C78 C79 1.386 . S
C78 C80 1.397 . S
C78 H102 0.931 . S
C79 C78 1.386 . S
C79 C83 1.397 . S
C80 C78 1.397 . S
C80 C81 1.384 . S
C80 H103 0.930 . S
C81 C80 1.384 . S
C81 C82 1.377 . S
C81 C84 1.481 . S
C82 C81 1.377 . S
C82 C83 1.389 . S
C82 H104 0.929 1_556 S
C83 C79 1.397 . S
C83 C82 1.389 . S
C83 H105 0.931 . S
C84 C81 1.481 . S
C84 C85 1.387 . S
C84 C89 1.390 1_556 S
C85 C84 1.387 . S
C85 C86 1.401 . S
C85 H106 0.930 . S
C86 C85 1.401 . S
C86 C87 1.376 1_556 S
C86 C95 1.511 . S
C87 C86 1.376 1_554 S
C87 C88 1.392 . S
C87 H108 0.931 . S
C88 C87 1.392 . S
C88 C89 1.361 . S
C88 C90 1.500 . S
C89 C84 1.390 1_554 S
C89 C88 1.361 . S
C89 H107 0.931 . S
C90 C88 1.500 . S
C90 C91 1.371 . S
C90 C92 1.365 . S
C91 C90 1.371 . S
C91 C101 1.386 . S
C91 H109 0.931 . S
C92 C90 1.365 . S
C92 C93 1.409 . S
C92 H110 0.929 . S
C93 C92 1.409 . S
C93 C94 1.380 . S
C93 H111 0.930 . S
C94 C93 1.380 . S
C94 C101 1.357 . S
C95 C86 1.511 . S
C95 C96 1.341 . S
C95 C97 1.381 . S
C96 C95 1.341 . S
C96 C100 1.394 . S
C96 H112 0.930 . S
C97 C95 1.381 . S
C97 C98 1.400 . S
C97 H113 0.913 1_556 S
C98 C97 1.400 . S
C98 C99 1.331 . S
C98 H116 0.940 . S
C99 C98 1.331 . S
C99 C100 1.336 . S
C100 C96 1.394 . S
C100 C99 1.336 . S
C100 H115 0.929 . S
C101 C91 1.386 . S
C101 C94 1.357 . S
C101 H114 0.928 . S
H102 C78 0.931 . S
H103 C80 0.930 . S
H104 C82 0.929 1_554 S
H105 C83 0.931 . S
H106 C85 0.930 . S
H107 C89 0.931 . S
H108 C87 0.931 . S
H109 C91 0.931 . S
H110 C92 0.929 . S
H111 C93 0.930 . S
H112 C96 0.930 . S
H113 C97 0.913 1_554 S
H114 C101 0.928 . S
H115 C100 0.929 . S
H116 C98 0.940 . S
C117 C118 1.386 . S
C117 C119 1.397 . S
C117 H141 0.931 . S
C118 C117 1.386 . S
C118 C122 1.397 . S
C119 C117 1.397 . S
C119 C120 1.384 . S
C119 H142 0.930 . S
C120 C119 1.384 . S
C120 C121 1.377 . S
C120 C123 1.481 . S
C121 C120 1.377 . S
C121 C122 1.389 . S
C121 H143 0.929 . S
C122 C118 1.397 . S
C122 C121 1.389 . S
C122 H144 0.931 . S
C123 C120 1.481 . S
C123 C124 1.387 . S
C123 C128 1.390 . S
C124 C123 1.387 . S
C124 C125 1.401 . S
C124 H145 0.930 . S
C125 C124 1.401 . S
C125 C126 1.376 . S
C125 C134 1.511 . S
C126 C125 1.376 . S
C126 C127 1.392 . S
C126 H147 0.931 . S
C127 C126 1.392 . S
C127 C128 1.361 . S
C127 C129 1.500 . S
C128 C123 1.390 . S
C128 C127 1.361 . S
C128 H146 0.931 . S
C129 C127 1.500 . S
C129 C130 1.371 . S
C129 C131 1.365 . S
C130 C129 1.371 . S
C130 C140 1.386 . S
C130 H148 0.931 . S
C131 C129 1.365 . S
C131 C132 1.409 . S
C131 H149 0.929 . S
C132 C131 1.409 . S
C132 C133 1.380 . S
C132 H150 0.930 . S
C133 C132 1.380 . S
C133 C140 1.357 . S
C134 C125 1.511 . S
C134 C135 1.341 . S
C134 C136 1.371 . S
C135 C134 1.341 . S
C135 C139 1.394 . S
C135 H151 0.930 . S
C136 C134 1.371 . S
C136 C137 1.392 . S
C136 H152 0.931 . S
C137 C136 1.392 . S
C137 C138 1.331 . S
C137 H155 0.932 . S
C138 C137 1.331 . S
C138 C139 1.336 . S
C139 C135 1.394 . S
C139 C138 1.336 . S
C139 H154 0.929 . S
C140 C130 1.386 . S
C140 C133 1.357 . S
C140 H153 0.928 . S
H141 C117 0.931 . S
H142 C119 0.930 . S
H143 C121 0.929 . S
H144 C122 0.931 . S
H145 C124 0.930 . S
H146 C128 0.931 . S
H147 C126 0.931 . S
H148 C130 0.931 . S
H149 C131 0.929 . S
H150 C132 0.930 . S
H151 C135 0.930 . S
H152 C136 0.931 . S
H153 C140 0.928 . S
H154 C139 0.929 . S
H155 C137 0.932 . S
C156 C157 1.386 . S
C156 C158 1.397 . S
C156 H180 0.922 1_565 S
C157 C156 1.386 . S
C157 C161 1.397 . S
C158 C156 1.397 . S
C158 C159 1.384 . S
C158 H181 0.930 . S
C159 C158 1.384 . S
C159 C160 1.377 . S
C159 C162 1.481 . S
C160 C159 1.377 . S
C160 C161 1.389 . S
C160 H182 0.929 . S
C161 C157 1.397 . S
C161 C160 1.389 . S
C161 H183 0.931 . S
C162 C159 1.481 . S
C162 C163 1.387 . S
C162 C167 1.390 1_556 S
C163 C162 1.387 . S
C163 C164 1.401 . S
C163 H184 0.930 . S
C164 C163 1.401 . S
C164 C165 1.376 1_556 S
C164 C173 1.511 . S
C165 C164 1.376 1_554 S
C165 C166 1.392 . S
C165 H186 0.931 . S
C166 C165 1.392 . S
C166 C167 1.361 . S
C166 C168 1.500 . S
C167 C162 1.390 1_554 S
C167 C166 1.361 . S
C167 H185 0.931 . S
C168 C166 1.500 . S
C168 C169 1.371 . S
C168 C170 1.365 . S
C169 C168 1.371 . S
C169 C179 1.386 . S
C169 H187 0.931 . S
C170 C168 1.365 . S
C170 C171 1.409 . S
C170 H188 0.929 . S
C171 C170 1.409 . S
C171 C172 1.380 . S
C171 H189 0.930 . S
C172 C171 1.380 . S
C172 C179 1.357 . S
C173 C164 1.511 . S
C173 C174 1.341 . S
C173 C175 1.371 . S
C174 C173 1.341 . S
C174 C178 1.394 . S
C174 H190 0.930 . S
C175 C173 1.371 . S
C175 C176 1.392 . S
C175 H191 0.931 1_556 S
C176 C175 1.392 . S
C176 C177 1.331 . S
C176 H194 0.932 . S
C177 C176 1.331 . S
C177 C178 1.336 . S
C178 C174 1.394 . S
C178 C177 1.336 . S
C178 H193 0.929 . S
C179 C169 1.386 . S
C179 C172 1.357 . S
C179 H192 0.928 . S
H180 C156 0.922 1_545 S
H181 C158 0.930 . S
H182 C160 0.929 . S
H183 C161 0.931 . S
H184 C163 0.930 . S
H185 C167 0.931 . S
H186 C165 0.931 . S
H187 C169 0.931 . S
H188 C170 0.929 . S
H189 C171 0.930 . S
H190 C174 0.930 . S
H191 C175 0.931 1_554 S
H192 C179 0.928 . S
H193 C178 0.929 . S
H194 C176 0.932 . S
C195 C196 1.386 . S
C195 C197 1.397 . S
C195 H219 0.923 1_545 S
C196 C195 1.386 . S
C196 C200 1.397 . S
C197 C195 1.397 . S
C197 C198 1.384 . S
C197 H220 0.930 . S
C198 C197 1.384 . S
C198 C199 1.377 . S
C198 C201 1.481 . S
C199 C198 1.377 . S
C199 C200 1.389 . S
C199 H221 0.929 . S
C200 C196 1.397 . S
C200 C199 1.389 . S
C200 H222 0.931 . S
C201 C198 1.481 . S
C201 C202 1.387 . S
C201 C206 1.390 . S
C202 C201 1.387 . S
C202 C203 1.401 . S
C202 H223 0.930 . S
C203 C202 1.401 . S
C203 C204 1.376 . S
C203 C212 1.511 . S
C204 C203 1.376 . S
C204 C205 1.392 . S
C204 H225 0.931 . S
C205 C204 1.392 . S
C205 C206 1.361 . S
C205 C207 1.500 . S
C206 C201 1.390 . S
C206 C205 1.361 . S
C206 H224 0.931 . S
C207 C205 1.500 . S
C207 C208 1.371 . S
C207 C209 1.365 . S
C208 C207 1.371 . S
C208 C218 1.386 . S
C208 H226 0.931 . S
C209 C207 1.365 . S
C209 C210 1.409 . S
C209 H227 0.929 . S
C210 C209 1.409 . S
C210 C211 1.380 . S
C210 H228 0.930 . S
C211 C210 1.380 . S
C211 C218 1.357 . S
C212 C203 1.511 . S
C212 C213 1.341 . S
C212 C214 1.371 . S
C213 C212 1.341 . S
C213 C217 1.394 . S
C213 H229 0.930 . S
C214 C212 1.371 . S
C214 C215 1.392 . S
C214 H230 0.931 . S
C215 C214 1.392 . S
C215 C216 1.331 . S
C215 H233 0.932 . S
C216 C215 1.331 . S
C216 C217 1.336 . S
C217 C213 1.394 . S
C217 C216 1.336 . S
C217 H232 0.929 . S
C218 C208 1.386 . S
C218 C211 1.357 . S
C218 H231 0.928 . S
H219 C195 0.923 1_565 S
H220 C197 0.930 . S
H221 C199 0.929 . S
H222 C200 0.931 . S
H223 C202 0.930 . S
H224 C206 0.931 . S
H225 C204 0.931 . S
H226 C208 0.931 . S
H227 C209 0.929 . S
H228 C210 0.930 . S
H229 C213 0.930 . S
H230 C214 0.931 . S
H231 C218 0.928 . S
H232 C217 0.929 . S
H233 C215 0.932 . S
C234 C235 1.386 . S
C234 C236 1.397 . S
C234 H258 0.931 . S
C235 C234 1.386 . S
C235 C239 1.398 . S
C236 C234 1.397 . S
C236 C237 1.384 . S
C236 H259 0.930 . S
C237 C236 1.384 . S
C237 C238 1.377 . S
C237 C240 1.481 . S
C238 C237 1.377 . S
C238 C239 1.392 . S
C238 H260 0.929 1_556 S
C239 C235 1.398 . S
C239 C238 1.392 . S
C239 H261 0.927 1_565 S
C240 C237 1.481 . S
C240 C241 1.387 . S
C240 C245 1.390 1_556 S
C241 C240 1.387 . S
C241 C242 1.401 . S
C241 H262 0.930 . S
C242 C241 1.401 . S
C242 C243 1.376 1_556 S
C242 C251 1.511 . S
C243 C242 1.376 1_554 S
C243 C244 1.392 . S
C243 H264 0.931 . S
C244 C243 1.392 . S
C244 C245 1.361 . S
C244 C246 1.500 . S
C245 C240 1.390 1_554 S
C245 C244 1.361 . S
C245 H263 0.931 . S
C246 C244 1.500 . S
C246 C247 1.371 . S
C246 C248 1.365 . S
C247 C246 1.371 . S
C247 C257 1.386 . S
C247 H265 0.931 . S
C248 C246 1.365 . S
C248 C249 1.409 . S
C248 H266 0.929 . S
C249 C248 1.409 . S
C249 C250 1.380 . S
C249 H267 0.930 . S
C250 C249 1.380 . S
C250 C257 1.357 . S
C251 C242 1.511 . S
C251 C252 1.341 . S
C251 C253 1.381 . S
C252 C251 1.341 . S
C252 C256 1.394 . S
C252 H268 0.930 . S
C253 C251 1.381 . S
C253 C254 1.400 . S
C253 H269 0.914 1_556 S
C254 C253 1.400 . S
C254 C255 1.331 . S
C254 H272 0.940 . S
C255 C254 1.331 . S
C255 C256 1.336 . S
C256 C252 1.394 . S
C256 C255 1.336 . S
C256 H271 0.929 . S
C257 C247 1.386 . S
C257 C250 1.357 . S
C257 H270 0.928 . S
H258 C234 0.931 . S
H259 C236 0.930 . S
H260 C238 0.929 1_554 S
H261 C239 0.927 1_545 S
H262 C241 0.930 . S
H263 C245 0.931 . S
H264 C243 0.931 . S
H265 C247 0.931 . S
H266 C248 0.929 . S
H267 C249 0.930 . S
H268 C252 0.930 . S
H269 C253 0.914 1_554 S
H270 C257 0.928 . S
H271 C256 0.929 . S
H272 C254 0.940 . S
C273 C274 1.386 . S
C273 C275 1.397 . S
C273 H297 0.931 . S
C274 C273 1.386 . S
C274 C278 1.397 . S
C275 C273 1.397 . S
C275 C276 1.384 . S
C275 H298 0.930 . S
C276 C275 1.384 . S
C276 C277 1.377 . S
C276 C279 1.481 . S
C277 C276 1.377 . S
C277 C278 1.389 . S
C277 H299 0.929 . S
C278 C274 1.397 . S
C278 C277 1.389 . S
C278 H300 0.931 . S
C279 C276 1.481 . S
C279 C280 1.387 . S
C279 C284 1.390 . S
C280 C279 1.387 . S
C280 C281 1.401 . S
C280 H301 0.930 . S
C281 C280 1.401 . S
C281 C282 1.376 . S
C281 C290 1.511 . S
C282 C281 1.376 . S
C282 C283 1.392 . S
C282 H303 0.931 . S
C283 C282 1.392 . S
C283 C284 1.361 . S
C283 C285 1.500 . S
C284 C279 1.390 . S
C284 C283 1.361 . S
C284 H302 0.931 . S
C285 C283 1.500 . S
C285 C286 1.371 . S
C285 C287 1.365 . S
C286 C285 1.371 . S
C286 C296 1.386 . S
C286 H304 0.931 . S
C287 C285 1.365 . S
C287 C288 1.409 . S
C287 H305 0.929 . S
C288 C287 1.409 . S
C288 C289 1.380 . S
C288 H306 0.930 . S
C289 C288 1.380 . S
C289 C296 1.357 . S
C290 C281 1.511 . S
C290 C291 1.341 . S
C290 C292 1.371 . S
C291 C290 1.341 . S
C291 C295 1.394 . S
C291 H307 0.930 . S
C292 C290 1.371 . S
C292 C293 1.392 . S
C292 H308 0.931 . S
C293 C292 1.392 . S
C293 C294 1.331 . S
C293 H311 0.932 . S
C294 C293 1.331 . S
C294 C295 1.336 . S
C295 C291 1.394 . S
C295 C294 1.336 . S
C295 H310 0.929 . S
C296 C286 1.386 . S
C296 C289 1.357 . S
C296 H309 0.936 . S
H297 C273 0.931 . S
H298 C275 0.930 . S
H299 C277 0.929 . S
H300 C278 0.931 . S
H301 C280 0.930 . S
H302 C284 0.931 . S
H303 C282 0.931 . S
H304 C286 0.931 . S
H305 C287 0.929 . S
H306 C288 0.930 . S
H307 C291 0.930 . S
H308 C292 0.931 . S
H309 C296 0.936 . S
H310 C295 0.929 . S
H311 C293 0.932 . S
Fe312 O314 1.918 . S
Fe312 O317 1.997 1_455 S
Fe312 O318 2.002 1_455 S
Fe312 O323 1.976 . S
Fe312 O326 1.996 . S
Fe313 O314 1.918 . S
Fe313 O321 1.997 1_455 S
Fe313 O324 1.996 . S
Fe313 O328 1.976 . S
Fe313 O331 2.002 1_455 S
O314 Fe312 1.918 . S
O314 Fe313 1.918 . S
O314 Fe315 1.918 . S
Fe315 O314 1.918 . S
Fe315 O316 2.002 1_455 S
Fe315 O325 1.976 . S
Fe315 O329 1.996 . S
Fe315 O332 1.997 1_455 S
O316 Fe315 2.002 1_655 S
O316 C333 1.295 . S
O317 Fe312 1.997 1_655 S
O317 C333 1.235 . S
O318 Fe312 2.002 1_655 S
O318 C319 1.295 . S
C319 O318 1.295 . S
C319 O321 1.235 . S
C320 O325 1.287 . S
C320 O326 1.255 . S
O321 Fe313 1.997 1_655 S
O321 C319 1.235 . S
C322 O328 1.287 . S
C322 O329 1.255 . S
O323 Fe312 1.976 . S
O323 C330 1.287 . S
O324 Fe313 1.996 . S
O324 C330 1.255 . S
O325 Fe315 1.976 . S
O325 C320 1.287 . S
O326 Fe312 1.996 . S
O326 C320 1.255 . S
C327 O331 1.295 . S
C327 O332 1.235 . S
O328 Fe313 1.976 . S
O328 C322 1.287 . S
O329 Fe315 1.996 . S
O329 C322 1.255 . S
C330 O323 1.287 . S
C330 O324 1.255 . S
O331 Fe313 2.002 1_655 S
O331 C327 1.295 . S
O332 Fe315 1.997 1_655 S
O332 C327 1.235 . S
C333 O316 1.295 . S
C333 O317 1.235 . S
Fe334 O336 1.918 1_455 S
Fe334 O339 1.994 . S
Fe334 O340 2.000 . S
Fe334 O345 1.979 1_455 S
Fe334 O348 1.998 1_455 S
Fe335 O336 1.918 . S
Fe335 O343 1.999 1_655 S
Fe335 O346 1.993 . S
Fe335 O350 1.974 . S
Fe335 O353 2.005 1_655 S
O336 Fe334 1.918 1_655 S
O336 Fe335 1.918 . S
O336 Fe337 1.918 1_655 S
Fe337 O336 1.918 1_455 S
Fe337 O338 2.000 . S
Fe337 O347 1.978 1_455 S
Fe337 O351 1.998 1_455 S
Fe337 O354 1.994 . S
O338 Fe337 2.000 . S
O338 C355 1.295 . S
O339 Fe334 1.994 . S
O339 C355 1.235 . S
O340 Fe334 2.000 . S
O340 C341 1.295 . S
C341 O340 1.295 . S
C341 O343 1.235 . S
C342 O347 1.287 . S
C342 O348 1.255 . S
O343 Fe335 1.999 1_455 S
O343 C341 1.235 . S
C344 O350 1.287 . S
C344 O351 1.255 . S
O345 Fe334 1.979 1_655 S
O345 C352 1.287 . S
O346 Fe335 1.993 . S
O346 C352 1.255 . S
O347 Fe337 1.978 1_655 S
O347 C342 1.287 . S
O348 Fe334 1.998 1_655 S
O348 C342 1.255 . S
C349 O353 1.295 . S
C349 O354 1.235 . S
O350 Fe335 1.974 . S
O350 C344 1.287 . S
O351 Fe337 1.998 1_655 S
O351 C344 1.255 . S
C352 O345 1.287 . S
C352 O346 1.255 . S
O353 Fe335 2.005 1_455 S
O353 C349 1.295 . S
O354 Fe337 1.994 . S
O354 C349 1.235 . S
C355 O338 1.295 . S
C355 O339 1.235 . S
Fe356 O358 1.918 . S
Fe356 O361 1.997 . S
Fe356 O362 2.002 . S
Fe356 O367 1.976 . S
Fe356 O370 1.996 . S
Fe357 O358 1.918 . S
Fe357 O365 1.997 . S
Fe357 O368 1.996 . S
Fe357 O372 1.976 . S
Fe357 O375 2.002 . S
O358 Fe356 1.918 . S
O358 Fe357 1.918 . S
O358 Fe359 1.918 . S
Fe359 O358 1.918 . S
Fe359 O360 2.002 . S
Fe359 O369 1.976 . S
Fe359 O373 1.996 . S
Fe359 O376 1.997 . S
O360 Fe359 2.002 . S
O360 C377 1.295 . S
O361 Fe356 1.997 . S
O361 C377 1.235 . S
O362 Fe356 2.002 . S
O362 C363 1.295 . S
C363 O362 1.295 . S
C363 O365 1.235 . S
C364 O369 1.287 . S
C364 O370 1.255 . S
O365 Fe357 1.997 . S
O365 C363 1.235 . S
C366 O372 1.287 . S
C366 O373 1.255 . S
O367 Fe356 1.976 . S
O367 C374 1.287 . S
O368 Fe357 1.996 . S
O368 C374 1.255 . S
O369 Fe359 1.976 . S
O369 C364 1.287 . S
O370 Fe356 1.996 . S
O370 C364 1.255 . S
C371 O375 1.295 . S
C371 O376 1.235 . S
O372 Fe357 1.976 . S
O372 C366 1.287 . S
O373 Fe359 1.996 . S
O373 C366 1.255 . S
C374 O367 1.287 . S
C374 O368 1.255 . S
O375 Fe357 2.002 . S
O375 C371 1.295 . S
O376 Fe359 1.997 . S
O376 C371 1.235 . S
C377 O360 1.295 . S
C377 O361 1.235 . S
Fe378 O380 1.918 . S
Fe378 O383 1.997 . S
Fe378 O384 2.002 . S
Fe378 O389 1.976 . S
Fe378 O392 1.996 . S
Fe379 O380 1.918 . S
Fe379 O387 1.997 . S
Fe379 O390 1.996 . S
Fe379 O394 1.976 . S
Fe379 O397 2.002 . S
O380 Fe378 1.918 . S
O380 Fe379 1.918 . S
O380 Fe381 1.918 . S
Fe381 O380 1.918 . S
Fe381 O382 2.002 . S
Fe381 O391 1.976 . S
Fe381 O395 1.996 . S
Fe381 O398 1.997 . S
O382 Fe381 2.002 . S
O382 C399 1.295 . S
O383 Fe378 1.997 . S
O383 C399 1.235 . S
O384 Fe378 2.002 . S
O384 C385 1.295 . S
C385 O384 1.295 . S
C385 O387 1.235 . S
C386 O391 1.287 . S
C386 O392 1.255 . S
O387 Fe379 1.997 . S
O387 C385 1.235 . S
C388 O394 1.287 . S
C388 O395 1.255 . S
O389 Fe378 1.976 . S
O389 C396 1.287 . S
O390 Fe379 1.996 . S
O390 C396 1.255 . S
O391 Fe381 1.976 . S
O391 C386 1.287 . S
O392 Fe378 1.996 . S
O392 C386 1.255 . S
C393 O397 1.295 . S
C393 O398 1.235 . S
O394 Fe379 1.976 . S
O394 C388 1.287 . S
O395 Fe381 1.996 . S
O395 C388 1.255 . S
C396 O389 1.287 . S
C396 O390 1.255 . S
O397 Fe379 2.002 . S
O397 C393 1.295 . S
O398 Fe381 1.997 . S
O398 C393 1.235 . S
C399 O382 1.295 . S
C399 O383 1.235 . S
H400 C406 0.930 . S
H401 C409 0.930 . S
H402 C410 0.930 . S
H403 C411 0.930 . S
H404 C414 0.930 . S
H405 C415 0.930 . S
C406 H400 0.930 . S
C406 C407 1.355 . S
C406 C408 1.415 . S
C407 C406 1.355 . S
C407 C409 1.419 . S
C408 C406 1.415 . S
C408 C413 1.425 . S
C408 C415 1.409 . S
C409 H401 0.930 . S
C409 C407 1.419 . S
C409 C410 1.362 . S
C410 H402 0.930 . S
C410 C409 1.362 . S
C410 C413 1.409 . S
C411 H403 0.930 . S
C411 C412 1.355 . S
C411 C413 1.415 . S
C412 C411 1.355 . S
C412 C414 1.419 . S
C413 C408 1.425 . S
C413 C410 1.409 . S
C413 C411 1.415 . S
C414 H404 0.930 . S
C414 C412 1.419 . S
C414 C415 1.362 . S
C415 H405 0.930 . S
C415 C408 1.409 . S
C415 C414 1.362 . S
H416 C422 0.930 . S
H417 C425 0.930 . S
H418 C426 0.930 . S
H419 C427 0.930 . S
H420 C430 0.930 . S
H421 C431 0.930 . S
C422 H416 0.930 . S
C422 C423 1.355 . S
C422 C424 1.415 . S
C423 C422 1.355 . S
C423 C425 1.419 . S
C424 C422 1.415 . S
C424 C429 1.425 . S
C424 C431 1.409 . S
C425 H417 0.930 . S
C425 C423 1.419 . S
C425 C426 1.362 . S
C426 H418 0.930 . S
C426 C425 1.362 . S
C426 C429 1.409 . S
C427 H419 0.930 . S
C427 C428 1.355 . S
C427 C429 1.415 . S
C428 C427 1.355 . S
C428 C430 1.419 . S
C429 C424 1.425 . S
C429 C426 1.409 . S
C429 C427 1.415 . S
C430 H420 0.930 . S
C430 C428 1.419 . S
C430 C431 1.362 . S
C431 H421 0.930 . S
C431 C424 1.409 . S
C431 C430 1.362 . S
H432 C438 0.930 . S
H433 C441 0.930 . S
H434 C442 0.930 . S
H435 C443 0.930 . S
H436 C446 0.930 . S
H437 C447 0.930 . S
C438 H432 0.930 . S
C438 C439 1.355 . S
C438 C440 1.415 . S
C439 C438 1.355 . S
C439 C441 1.419 . S
C440 C438 1.415 . S
C440 C445 1.425 . S
C440 C447 1.409 . S
C441 H433 0.930 . S
C441 C439 1.419 . S
C441 C442 1.362 . S
C442 H434 0.930 . S
C442 C441 1.362 . S
C442 C445 1.409 . S
C443 H435 0.930 . S
C443 C444 1.355 . S
C443 C445 1.415 . S
C444 C443 1.355 . S
C444 C446 1.419 . S
C445 C440 1.425 . S
C445 C442 1.409 . S
C445 C443 1.415 . S
C446 H436 0.930 . S
C446 C444 1.419 . S
C446 C447 1.362 . S
C447 H437 0.930 . S
C447 C440 1.409 . S
C447 C446 1.362 . S
H448 C454 0.930 . S
H449 C457 0.930 . S
H450 C458 0.930 . S
H451 C459 0.930 . S
H452 C462 0.930 . S
H453 C463 0.930 . S
C454 H448 0.930 . S
C454 C455 1.355 . S
C454 C456 1.415 . S
C455 C454 1.355 . S
C455 C457 1.419 . S
C456 C454 1.415 . S
C456 C461 1.425 . S
C456 C463 1.409 . S
C457 H449 0.930 . S
C457 C455 1.419 . S
C457 C458 1.362 . S
C458 H450 0.930 . S
C458 C457 1.362 . S
C458 C461 1.409 . S
C459 H451 0.930 . S
C459 C460 1.355 . S
C459 C461 1.415 . S
C460 C459 1.355 . S
C460 C462 1.419 . S
C461 C456 1.425 . S
C461 C458 1.409 . S
C461 C459 1.415 . S
C462 H452 0.930 . S
C462 C460 1.419 . S
C462 C463 1.362 . S
C463 H453 0.930 . S
C463 C456 1.409 . S
C463 C462 1.362 . S
H464 C470 0.930 . S
H465 C473 0.930 . S
H466 C474 0.930 . S
H467 C475 0.930 . S
H468 C478 0.930 . S
H469 C479 0.930 . S
C470 H464 0.930 . S
C470 C471 1.355 . S
C470 C472 1.415 . S
C471 C470 1.355 . S
C471 C473 1.419 . S
C472 C470 1.415 . S
C472 C477 1.425 . S
C472 C479 1.409 . S
C473 H465 0.930 . S
C473 C471 1.419 . S
C473 C474 1.362 . S
C474 H466 0.930 . S
C474 C473 1.362 . S
C474 C477 1.409 . S
C475 H467 0.930 . S
C475 C476 1.355 . S
C475 C477 1.415 . S
C476 C475 1.355 . S
C476 C478 1.419 . S
C477 C472 1.425 . S
C477 C474 1.409 . S
C477 C475 1.415 . S
C478 H468 0.930 . S
C478 C476 1.419 . S
C478 C479 1.362 . S
C479 H469 0.930 . S
C479 C472 1.409 . S
C479 C478 1.362 . S
H480 C486 0.930 . S
H481 C489 0.930 . S
H482 C490 0.930 . S
H483 C491 0.930 . S
H484 C494 0.930 . S
H485 C495 0.930 . S
C486 H480 0.930 . S
C486 C487 1.355 . S
C486 C488 1.415 . S
C487 C486 1.355 . S
C487 C489 1.419 . S
C488 C486 1.415 . S
C488 C493 1.425 . S
C488 C495 1.409 . S
C489 H481 0.930 . S
C489 C487 1.419 . S
C489 C490 1.362 . S
C490 H482 0.930 . S
C490 C489 1.362 . S
C490 C493 1.409 . S
C491 H483 0.930 . S
C491 C492 1.355 . S
C491 C493 1.415 . S
C492 C491 1.355 . S
C492 C494 1.419 . S
C493 C488 1.425 . S
C493 C490 1.409 . S
C493 C491 1.415 . S
C494 H484 0.930 . S
C494 C492 1.419 . S
C494 C495 1.362 . S
C495 H485 0.930 . S
C495 C488 1.409 . S
C495 C494 1.362 . S
H496 C502 0.930 . S
H497 C505 0.930 . S
H498 C506 0.930 . S
H499 C507 0.930 . S
H500 C510 0.930 . S
H501 C511 0.930 . S
C502 H496 0.930 . S
C502 C503 1.355 . S
C502 C504 1.415 . S
C503 C502 1.355 . S
C503 C505 1.419 . S
C504 C502 1.415 . S
C504 C509 1.425 . S
C504 C511 1.409 . S
C505 H497 0.930 . S
C505 C503 1.419 . S
C505 C506 1.362 . S
C506 H498 0.930 . S
C506 C505 1.362 . S
C506 C509 1.409 . S
C507 H499 0.930 . S
C507 C508 1.355 . S
C507 C509 1.415 . S
C508 C507 1.355 . S
C508 C510 1.419 . S
C509 C504 1.425 . S
C509 C506 1.409 . S
C509 C507 1.415 . S
C510 H500 0.930 . S
C510 C508 1.419 . S
C510 C511 1.362 . S
C511 H501 0.930 . S
C511 C504 1.409 . S
C511 C510 1.362 . S
H512 C518 0.930 . S
H513 C521 0.930 . S
H514 C522 0.930 . S
H515 C523 0.930 . S
H516 C526 0.930 . S
H517 C527 0.930 . S
C518 H512 0.930 . S
C518 C519 1.355 . S
C518 C520 1.415 . S
C519 C518 1.355 . S
C519 C521 1.419 . S
C520 C518 1.415 . S
C520 C525 1.425 . S
C520 C527 1.409 . S
C521 H513 0.930 . S
C521 C519 1.419 . S
C521 C522 1.362 . S
C522 H514 0.930 . S
C522 C521 1.362 . S
C522 C525 1.409 . S
C523 H515 0.930 . S
C523 C524 1.355 . S
C523 C525 1.415 . S
C524 C523 1.355 . S
C524 C526 1.419 . S
C525 C520 1.425 . S
C525 C522 1.409 . S
C525 C523 1.415 . S
C526 H516 0.930 . S
C526 C524 1.419 . S
C526 C527 1.362 . S
C527 H517 0.930 . S
C527 C520 1.409 . S
C527 C526 1.362 . S
H528 C534 0.930 . S
H529 C537 0.930 . S
H530 C538 0.930 . S
H531 C539 0.930 . S
H532 C542 0.930 . S
H533 C543 0.930 . S
C534 H528 0.930 . S
C534 C535 1.355 . S
C534 C536 1.415 . S
C535 C534 1.355 . S
C535 C537 1.419 . S
C536 C534 1.415 . S
C536 C541 1.425 . S
C536 C543 1.409 . S
C537 H529 0.930 . S
C537 C535 1.419 . S
C537 C538 1.362 . S
C538 H530 0.930 . S
C538 C537 1.362 . S
C538 C541 1.409 . S
C539 H531 0.930 . S
C539 C540 1.355 . S
C539 C541 1.415 . S
C540 C539 1.355 . S
C540 C542 1.419 . S
C541 C536 1.425 . S
C541 C538 1.409 . S
C541 C539 1.415 . S
C542 H532 0.930 . S
C542 C540 1.419 . S
C542 C543 1.362 . S
C543 H533 0.930 . S
C543 C536 1.409 . S
C543 C542 1.362 . S
H544 C550 0.930 . S
H545 C553 0.930 . S
H546 C554 0.930 . S
H547 C555 0.930 . S
H548 C558 0.930 . S
H549 C559 0.930 . S
C550 H544 0.930 . S
C550 C551 1.355 . S
C550 C552 1.415 . S
C551 C550 1.355 . S
C551 C553 1.419 . S
C552 C550 1.415 . S
C552 C557 1.425 . S
C552 C559 1.409 . S
C553 H545 0.930 . S
C553 C551 1.419 . S
C553 C554 1.362 . S
C554 H546 0.930 . S
C554 C553 1.362 . S
C554 C557 1.409 . S
C555 H547 0.930 . S
C555 C556 1.355 . S
C555 C557 1.415 . S
C556 C555 1.355 . S
C556 C558 1.419 . S
C557 C552 1.425 . S
C557 C554 1.409 . S
C557 C555 1.415 . S
C558 H548 0.930 . S
C558 C556 1.419 . S
C558 C559 1.362 . S
C559 H549 0.930 . S
C559 C552 1.409 . S
C559 C558 1.362 . S
H560 C566 0.930 . S
H561 C569 0.930 . S
H562 C570 0.930 . S
H563 C571 0.930 . S
H564 C574 0.930 . S
H565 C575 0.930 . S
C566 H560 0.930 . S
C566 C567 1.355 . S
C566 C568 1.415 . S
C567 C566 1.355 . S
C567 C569 1.419 . S
C568 C566 1.415 . S
C568 C573 1.425 . S
C568 C575 1.409 . S
C569 H561 0.930 . S
C569 C567 1.419 . S
C569 C570 1.362 . S
C570 H562 0.930 . S
C570 C569 1.362 . S
C570 C573 1.409 . S
C571 H563 0.930 . S
C571 C572 1.355 . S
C571 C573 1.415 . S
C572 C571 1.355 . S
C572 C574 1.419 . S
C573 C568 1.425 . S
C573 C570 1.409 . S
C573 C571 1.415 . S
C574 H564 0.930 . S
C574 C572 1.419 . S
C574 C575 1.362 . S
C575 H565 0.930 . S
C575 C568 1.409 . S
C575 C574 1.362 . S
H576 C582 0.930 . S
H577 C585 0.930 . S
H578 C586 0.930 . S
H579 C587 0.930 . S
H580 C590 0.930 . S
H581 C591 0.930 . S
C582 H576 0.930 . S
C582 C583 1.355 . S
C582 C584 1.415 . S
C583 C582 1.355 . S
C583 C585 1.419 . S
C584 C582 1.415 . S
C584 C589 1.425 . S
C584 C591 1.409 . S
C585 H577 0.930 . S
C585 C583 1.419 . S
C585 C586 1.362 . S
C586 H578 0.930 . S
C586 C585 1.362 . S
C586 C589 1.409 . S
C587 H579 0.930 . S
C587 C588 1.355 . S
C587 C589 1.415 . S
C588 C587 1.355 . S
C588 C590 1.419 . S
C589 C584 1.425 . S
C589 C586 1.409 . S
C589 C587 1.415 . S
C590 H580 0.930 . S
C590 C588 1.419 . S
C590 C591 1.362 . S
C591 H581 0.930 . S
C591 C584 1.409 . S
C591 C590 1.362 . S
H592 C598 0.930 . S
H593 C601 0.953 . S
H594 C602 0.930 . S
H595 C603 0.930 . S
H596 C606 0.930 . S
H597 C607 0.930 . S
C598 H592 0.930 . S
C598 C599 1.355 . S
C598 C600 1.415 . S
C599 C598 1.355 . S
C599 C601 1.419 . S
C600 C598 1.415 . S
C600 C605 1.425 . S
C600 C607 1.409 . S
C601 H593 0.953 . S
C601 C599 1.419 . S
C601 C602 1.362 . S
C602 H594 0.930 . S
C602 C601 1.362 . S
C602 C605 1.409 . S
C603 H595 0.930 . S
C603 C604 1.355 . S
C603 C605 1.415 . S
C604 C603 1.355 . S
C604 C606 1.419 . S
C605 C600 1.425 . S
C605 C602 1.409 . S
C605 C603 1.415 . S
C606 H596 0.930 . S
C606 C604 1.419 . S
C606 C607 1.362 . S
C607 H597 0.930 . S
C607 C600 1.409 . S
C607 C606 1.362 . S
H608 C614 0.930 . S
H609 C617 0.930 1_545 S
H610 C618 0.930 . S
H611 C619 0.930 . S
H612 C622 0.930 . S
H613 C623 0.930 . S
C614 H608 0.930 . S
C614 C615 1.355 . S
C614 C616 1.415 . S
C615 C614 1.355 . S
C615 C617 1.419 . S
C616 C614 1.415 . S
C616 C621 1.425 . S
C616 C623 1.409 . S
C617 H609 0.930 1_565 S
C617 C615 1.419 . S
C617 C618 1.362 . S
C618 H610 0.930 . S
C618 C617 1.362 . S
C618 C621 1.409 . S
C619 H611 0.930 . S
C619 C620 1.355 . S
C619 C621 1.415 . S
C620 C619 1.355 . S
C620 C622 1.419 . S
C621 C616 1.425 . S
C621 C618 1.409 . S
C621 C619 1.415 . S
C622 H612 0.930 . S
C622 C620 1.419 . S
C622 C623 1.362 . S
C623 H613 0.930 . S
C623 C616 1.409 . S
C623 C622 1.362 . S
H624 C630 0.930 . S
H625 C633 0.930 . S
H626 C634 0.930 . S
H627 C635 0.930 . S
H628 C638 0.930 . S
H629 C639 0.930 . S
C630 H624 0.930 . S
C630 C631 1.355 . S
C630 C632 1.415 . S
C631 C630 1.355 . S
C631 C633 1.419 . S
C632 C630 1.415 . S
C632 C637 1.425 . S
C632 C639 1.409 . S
C633 H625 0.930 . S
C633 C631 1.419 . S
C633 C634 1.362 . S
C634 H626 0.930 . S
C634 C633 1.362 . S
C634 C637 1.409 . S
C635 H627 0.930 . S
C635 C636 1.355 . S
C635 C637 1.415 . S
C636 C635 1.355 . S
C636 C638 1.419 . S
C637 C632 1.425 . S
C637 C634 1.409 . S
C637 C635 1.415 . S
C638 H628 0.930 . S
C638 C636 1.419 . S
C638 C639 1.362 . S
C639 H629 0.930 . S
C639 C632 1.409 . S
C639 C638 1.362 . S
H640 C646 0.930 . S
H641 C649 0.930 . S
H642 C650 0.930 . S
H643 C651 0.930 . S
H644 C654 0.930 . S
H645 C655 0.930 . S
C646 H640 0.930 . S
C646 C647 1.355 . S
C646 C648 1.415 . S
C647 C646 1.355 . S
C647 C649 1.419 . S
C648 C646 1.415 . S
C648 C653 1.425 . S
C648 C655 1.409 . S
C649 H641 0.930 . S
C649 C647 1.419 . S
C649 C650 1.362 . S
C650 H642 0.930 . S
C650 C649 1.362 . S
C650 C653 1.409 . S
C651 H643 0.930 . S
C651 C652 1.355 . S
C651 C653 1.415 . S
C652 C651 1.355 . S
C652 C654 1.419 . S
C653 C648 1.425 . S
C653 C650 1.409 . S
C653 C651 1.415 . S
C654 H644 0.930 . S
C654 C652 1.419 . S
C654 C655 1.362 . S
C655 H645 0.930 . S
C655 C648 1.409 . S
C655 C654 1.362 . S
H656 C662 0.930 . S
H657 C665 0.930 . S
H658 C666 0.930 . S
H659 C667 0.930 . S
H660 C670 0.930 . S
H661 C671 0.930 . S
C662 H656 0.930 . S
C662 C663 1.355 . S
C662 C664 1.415 . S
C663 C662 1.355 . S
C663 C665 1.419 . S
C664 C662 1.415 . S
C664 C669 1.425 . S
C664 C671 1.409 . S
C665 H657 0.930 . S
C665 C663 1.419 . S
C665 C666 1.362 . S
C666 H658 0.930 . S
C666 C665 1.362 . S
C666 C669 1.409 . S
C667 H659 0.930 . S
C667 C668 1.355 . S
C667 C669 1.415 . S
C668 C667 1.355 . S
C668 C670 1.419 . S
C669 C664 1.425 . S
C669 C666 1.409 . S
C669 C667 1.415 . S
C670 H660 0.930 . S
C670 C668 1.419 . S
C670 C671 1.362 . S
C671 H661 0.930 . S
C671 C664 1.409 . S
C671 C670 1.362 . S
H672 C678 0.930 . S
H673 C681 0.930 . S
H674 C682 0.930 . S
H675 C683 0.930 . S
H676 C686 0.930 . S
H677 C687 0.930 . S
C678 H672 0.930 . S
C678 C679 1.355 . S
C678 C680 1.415 . S
C679 C678 1.355 . S
C679 C681 1.419 . S
C680 C678 1.415 . S
C680 C685 1.425 . S
C680 C687 1.409 . S
C681 H673 0.930 . S
C681 C679 1.419 . S
C681 C682 1.362 . S
C682 H674 0.930 . S
C682 C681 1.362 . S
C682 C685 1.409 . S
C683 H675 0.930 . S
C683 C684 1.355 . S
C683 C685 1.415 . S
C684 C683 1.355 . S
C684 C686 1.419 . S
C685 C680 1.425 . S
C685 C682 1.409 . S
C685 C683 1.415 . S
C686 H676 0.930 . S
C686 C684 1.419 . S
C686 C687 1.362 . S
C687 H677 0.930 . S
C687 C680 1.409 . S
C687 C686 1.362 . S
H688 C694 0.930 . S
H689 C697 0.930 . S
H690 C698 0.930 . S
H691 C699 0.930 . S
H692 C702 0.930 . S
H693 C703 0.930 . S
C694 H688 0.930 . S
C694 C695 1.355 . S
C694 C696 1.415 . S
C695 C694 1.355 . S
C695 C697 1.419 . S
C696 C694 1.415 . S
C696 C701 1.425 . S
C696 C703 1.409 . S
C697 H689 0.930 . S
C697 C695 1.419 . S
C697 C698 1.362 . S
C698 H690 0.930 . S
C698 C697 1.362 . S
C698 C701 1.409 . S
C699 H691 0.930 . S
C699 C700 1.355 . S
C699 C701 1.415 . S
C700 C699 1.355 . S
C700 C702 1.419 . S
C701 C696 1.425 . S
C701 C698 1.409 . S
C701 C699 1.415 . S
C702 H692 0.930 . S
C702 C700 1.419 . S
C702 C703 1.362 . S
C703 H693 0.930 . S
C703 C696 1.409 . S
C703 C702 1.362 . S
H704 C710 0.930 . S
H705 C713 0.930 . S
H706 C714 0.930 . S
H707 C715 0.930 . S
H708 C718 0.930 . S
H709 C719 0.930 . S
C710 H704 0.930 . S
C710 C711 1.355 . S
C710 C712 1.415 . S
C711 C710 1.355 . S
C711 C713 1.419 . S
C712 C710 1.415 . S
C712 C717 1.425 . S
C712 C719 1.409 . S
C713 H705 0.930 . S
C713 C711 1.419 . S
C713 C714 1.362 . S
C714 H706 0.930 . S
C714 C713 1.362 . S
C714 C717 1.409 . S
C715 H707 0.930 . S
C715 C716 1.355 . S
C715 C717 1.415 . S
C716 C715 1.355 . S
C716 C718 1.419 . S
C717 C712 1.425 . S
C717 C714 1.409 . S
C717 C715 1.415 . S
C718 H708 0.930 . S
C718 C716 1.419 . S
C718 C719 1.362 . S
C719 H709 0.930 . S
C719 C712 1.409 . S
C719 C718 1.362 . S
H720 C726 0.930 . S
H721 C729 0.930 . S
H722 C730 0.930 . S
H723 C731 0.930 . S
H724 C734 0.930 . S
H725 C735 0.930 . S
C726 H720 0.930 . S
C726 C727 1.355 . S
C726 C728 1.415 . S
C727 C726 1.355 . S
C727 C729 1.419 . S
C728 C726 1.415 . S
C728 C733 1.425 . S
C728 C735 1.409 . S
C729 H721 0.930 . S
C729 C727 1.419 . S
C729 C730 1.362 . S
C730 H722 0.930 . S
C730 C729 1.362 . S
C730 C733 1.409 . S
C731 H723 0.930 . S
C731 C732 1.355 . S
C731 C733 1.415 . S
C732 C731 1.355 . S
C732 C734 1.419 . S
C733 C728 1.425 . S
C733 C730 1.409 . S
C733 C731 1.415 . S
C734 H724 0.930 . S
C734 C732 1.419 . S
C734 C735 1.362 . S
C735 H725 0.930 . S
C735 C728 1.409 . S
C735 C734 1.362 . S
H736 C742 0.930 . S
H737 C745 0.930 . S
H738 C746 0.930 . S
H739 C747 0.930 . S
H740 C750 0.930 . S
H741 C751 0.930 . S
C742 H736 0.930 . S
C742 C743 1.355 . S
C742 C744 1.415 . S
C743 C742 1.355 . S
C743 C745 1.419 . S
C744 C742 1.415 . S
C744 C749 1.425 . S
C744 C751 1.409 . S
C745 H737 0.930 . S
C745 C743 1.419 . S
C745 C746 1.362 . S
C746 H738 0.930 . S
C746 C745 1.362 . S
C746 C749 1.409 . S
C747 H739 0.930 . S
C747 C748 1.355 . S
C747 C749 1.415 . S
C748 C747 1.355 . S
C748 C750 1.419 . S
C749 C744 1.425 . S
C749 C746 1.409 . S
C749 C747 1.415 . S
C750 H740 0.930 . S
C750 C748 1.419 . S
C750 C751 1.362 . S
C751 H741 0.930 . S
C751 C744 1.409 . S
C751 C750 1.362 . S
H752 C758 0.930 . S
H753 C761 0.930 . S
H754 C762 0.930 . S
H755 C763 0.930 . S
H756 C766 0.930 . S
H757 C767 0.930 . S
C758 H752 0.930 . S
C758 C759 1.355 . S
C758 C760 1.415 . S
C759 C758 1.355 . S
C759 C761 1.419 . S
C760 C758 1.415 . S
C760 C765 1.425 . S
C760 C767 1.409 . S
C761 H753 0.930 . S
C761 C759 1.419 . S
C761 C762 1.362 . S
C762 H754 0.930 . S
C762 C761 1.362 . S
C762 C765 1.409 . S
C763 H755 0.930 . S
C763 C764 1.355 . S
C763 C765 1.415 . S
C764 C763 1.355 . S
C764 C766 1.419 . S
C765 C760 1.425 . S
C765 C762 1.409 . S
C765 C763 1.415 . S
C766 H756 0.930 . S
C766 C764 1.419 . S
C766 C767 1.362 . S
C767 H757 0.930 . S
C767 C760 1.409 . S
C767 C766 1.362 . S
H768 C774 0.930 . S
H769 C777 0.930 . S
H770 C778 0.930 . S
H771 C779 0.930 . S
H772 C782 0.930 . S
H773 C783 0.930 . S
C774 H768 0.930 . S
C774 C775 1.355 . S
C774 C776 1.415 . S
C775 C774 1.355 . S
C775 C777 1.419 . S
C776 C774 1.415 . S
C776 C781 1.425 . S
C776 C783 1.409 . S
C777 H769 0.930 . S
C777 C775 1.419 . S
C777 C778 1.362 . S
C778 H770 0.930 . S
C778 C777 1.362 . S
C778 C781 1.409 . S
C779 H771 0.930 . S
C779 C780 1.355 . S
C779 C781 1.415 . S
C780 C779 1.355 . S
C780 C782 1.419 . S
C781 C776 1.425 . S
C781 C778 1.409 . S
C781 C779 1.415 . S
C782 H772 0.930 . S
C782 C780 1.419 . S
C782 C783 1.362 . S
C783 H773 0.930 . S
C783 C776 1.409 . S
C783 C782 1.362 . S
C407 C21 1.556 . S
C412 C355 1.536 . S
C428 C319 1.559 . S
C423 C60 1.573 . S
C444 C342 1.535 . S
C439 C99 1.543 . S
C460 C330 1.550 . S
C455 C138 1.550 . S
C476 C399 1.516 . S
C471 C177 1.544 . S
C492 C363 1.559 . S
C487 C216 1.573 . S
C503 C255 1.557 . S
C508 C386 1.555 . S
C524 C374 1.511 . S
C519 C294 1.520 . S
C535 C1 1.500 . S
C540 C396 1.546 . S
C556 C366 1.542 . S
C551 C40 1.543 . S
C567 C79 1.575 . S
C572 C385 1.567 . S
C583 C133 1.517 . S
C588 C371 1.576 . S
C604 C352 1.545 . S
C599 C157 1.499 1_545 S
C615 C196 1.528 1_565 S
C620 C322 1.547 . S
C636 C341 1.576 . S
C631 C235 1.553 1_545 S
C652 C327 1.558 . S
C647 C289 1.562 1_565 S
C668 C377 1.554 . S
C663 C16 1.538 . S
C684 C393 1.548 . S
C679 C55 1.546 . S
C695 C94 1.525 . S
C700 C364 1.524 . S
C716 C388 1.532 . S
C711 C118 1.493 . S
C732 C333 1.538 . S
C727 C172 1.553 . S
C743 C211 1.540 . S
C748 C349 1.534 . S
C759 C250 1.524 . S
C764 C320 1.529 . S
C775 C274 1.526 . S
C780 C344 1.530 . S
