# Generated by pormake.
# Topology rtl, (3,6)-cn, num edge types: 1
# Building blocks:
#     Node 0, Type 0, BuildingBlock: BETDAH_clean_linker_0, # of connection points: 3
#     Node 1, Type 0, BuildingBlock: BETDAH_clean_linker_0, # of connection points: 3
#     Node 2, Type 0, BuildingBlock: BETDAH_clean_linker_0, # of connection points: 3
#     Node 3, Type 0, BuildingBlock: BETDAH_clean_linker_0, # of connection points: 3
#     Node 4, Type 1, BuildingBlock: VOLQOD_clean_sbu_1, # of connection points: 6
#     Node 5, Type 1, BuildingBlock: VOLQOD_clean_sbu_1, # of connection points: 6
#     Edge 6, Type (0, 1), BuildingBlock: FUNLAD_clean_linker_1, # of connection points: 2
#     Edge 7, Type (0, 1), BuildingBlock: FUNLAD_clean_linker_1, # of connection points: 2
#     Edge 8, Type (0, 1), BuildingBlock: FUNLAD_clean_linker_1, # of connection points: 2
#     Edge 9, Type (0, 1), BuildingBlock: FUNLAD_clean_linker_1, # of connection points: 2
#     Edge 10, Type (0, 1), BuildingBlock: FUNLAD_clean_linker_1, # of connection points: 2
#     Edge 11, Type (0, 1), BuildingBlock: FUNLAD_clean_linker_1, # of connection points: 2
#     Edge 12, Type (0, 1), BuildingBlock: FUNLAD_clean_linker_1, # of connection points: 2
#     Edge 13, Type (0, 1), BuildingBlock: FUNLAD_clean_linker_1, # of connection points: 2
#     Edge 14, Type (0, 1), BuildingBlock: FUNLAD_clean_linker_1, # of connection points: 2
#     Edge 15, Type (0, 1), BuildingBlock: FUNLAD_clean_linker_1, # of connection points: 2
#     Edge 16, Type (0, 1), BuildingBlock: FUNLAD_clean_linker_1, # of connection points: 2
#     Edge 17, Type (0, 1), BuildingBlock: FUNLAD_clean_linker_1, # of connection points: 2
# Relax obj value: 0.041
# Max RMSD: 0.143
# Mean RMSD: 0.094
data_MOF--net-rtl--node1-VOLQOD_clean_sbu_1--node2-BETDAH_clean_linker_0--edge1-FUNLAD_clean_linker_1
_symmetry_space_group_name_H-M    P1
_symmetry_Int_Tables_number       1
_symmetry_cell_setting            triclinic
loop_
_symmetry_equiv_pos_as_xyz
'x, y, z'
_cell_length_a     39.333348
_cell_length_b     39.377775
_cell_length_c     22.679858
_cell_angle_alpha  91.250205
_cell_angle_beta   91.58988
_cell_angle_gamma 90.06823
loop_
_atom_site_label
_atom_site_type_symbol
_atom_site_fract_x
_atom_site_fract_y
_atom_site_fract_z
_atom_type_partial_charge
H0 H 0.14885 0.87534 0.9882 0.0
H1 H 0.18272 0.80589 0.12056 0.0
H2 H 0.18908 0.77762 0.93713 0.0
C3 C 0.15941 0.85088 -0.00028 0.0
C4 C 0.16718 0.82689 0.95523 0.0
C5 C 0.16405 0.84335 0.05932 0.0
C6 C 0.17839 0.81207 0.07466 0.0
C7 C 0.18818 0.78867 0.03108 0.0
C8 C 0.18267 0.79612 0.97109 0.0
N9 N 0.2021 0.75739 0.04973 0.0
C10 C 0.22234 0.73633 0.0157 0.0
H11 H 0.64758 0.63736 0.49949 0.0
H12 H 0.7162 0.71434 0.44164 0.0
H13 H 0.69734 0.70451 0.62618 0.0
C14 C 0.6638 0.65904 0.50936 0.0
C15 C 0.66968 0.66956 0.56834 0.0
C16 C 0.67989 0.67554 0.46307 0.0
C17 C 0.7034 0.70175 0.47679 0.0
C18 C 0.70955 0.71214 0.53593 0.0
C19 C 0.69253 0.69612 0.58082 0.0
N20 N 0.73195 0.73905 0.55291 0.0
C21 C 0.75526 0.75455 0.51736 0.0
H22 H 0.87872 0.1705 0.99202 0.0
H23 H 0.84247 0.24443 0.11696 0.0
H24 H 0.80658 0.24631 0.93628 0.0
C25 C 0.86343 0.19272 0.00162 0.0
C26 C 0.8438 0.20771 0.95645 0.0
C27 C 0.86267 0.20513 0.05975 0.0
C28 C 0.84254 0.23355 0.0727 0.0
C29 C 0.82194 0.24817 0.02885 0.0
C30 C 0.82217 0.23491 0.97062 0.0
N31 N 0.80209 0.27671 0.04507 0.0
C32 C 0.77274 0.28708 0.01529 0.0
H33 H 0.39913 0.31627 0.51806 0.0
H34 H 0.30369 0.2881 0.59172 0.0
H35 H 0.31035 0.30243 0.40505 0.0
C36 C 0.37256 0.30918 0.51207 0.0
C37 C 0.35719 0.31029 0.45575 0.0
C38 C 0.35326 0.30227 0.56147 0.0
C39 C 0.31871 0.29355 0.55372 0.0
C40 C 0.30343 0.29308 0.49686 0.0
C41 C 0.32253 0.30221 0.44849 0.0
N42 N 0.26857 0.28506 0.48699 0.0
C43 C 0.25061 0.26289 0.52138 0.0
O44 O 0.92161 0.98236 0.51846 0.0
Zn45 Zn 0.95107 0.02427 0.52011 0.0
O46 O 0.99947 0.01272 0.52043 0.0
Zn47 Zn 0.02206 0.03142 0.59228 0.0
Zn48 Zn 0.00415 0.96324 0.51775 0.0
Zn49 Zn 0.02036 0.03172 0.45103 0.0
O50 O 0.05933 0.06465 0.57286 0.0
O51 O 0.05788 0.06421 0.47479 0.0
O52 O 0.93963 0.05262 0.59153 0.0
O53 O 0.98848 0.05653 0.64303 0.0
O54 O 0.04365 0.99403 0.63993 0.0
O55 O 0.03177 0.94692 0.58744 0.0
O56 O 0.02851 0.94769 0.44586 0.0
O57 O 0.9379 0.05162 0.44951 0.0
O58 O 0.04041 0.99509 0.39912 0.0
O59 O 0.9862 0.05774 0.40227 0.0
C60 C 0.9281 0.95073 0.51593 0.0
C61 C 0.07044 0.07487 0.52405 0.0
C62 C 0.04577 0.962 0.63204 0.0
C63 C 0.95696 0.06325 0.63646 0.0
C64 C 0.04154 0.9629 0.40312 0.0
C65 C 0.95451 0.06329 0.40714 0.0
O66 O 0.95853 0.93972 0.51551 0.0
O67 O 0.57269 0.48108 0.0022 0.0
Zn68 Zn 0.54125 0.5213 0.0042 0.0
O69 O 0.49388 0.50643 0.01057 0.0
Zn70 Zn 0.46667 0.52233 0.94306 0.0
Zn71 Zn 0.4919 0.45652 0.01216 0.0
Zn72 Zn 0.47542 0.52597 0.08281 0.0
O73 O 0.42958 0.55433 0.96779 0.0
O74 O 0.43641 0.55765 0.06528 0.0
O75 O 0.5476 0.54633 0.9287 0.0
O76 O 0.4959 0.54688 0.88644 0.0
O77 O 0.44459 0.48325 0.89824 0.0
O78 O 0.46327 0.43723 0.94391 0.0
O79 O 0.47098 0.44094 0.08736 0.0
O80 O 0.55657 0.55145 0.07358 0.0
O81 O 0.45802 0.48921 0.13432 0.0
O82 O 0.51105 0.5527 0.1295 0.0
C83 C 0.56829 0.44908 0.00294 0.0
C84 C 0.42091 0.56609 0.01787 0.0
C85 C 0.4458 0.45116 0.90296 0.0
C86 C 0.52737 0.55431 0.88639 0.0
C87 C 0.45835 0.45691 0.13104 0.0
C88 C 0.54168 0.56104 0.12027 0.0
O89 O 0.53879 0.43602 0.00662 0.0
H90 H 0.23312 0.2336 0.59598 0.0
C91 C 0.2299 0.23793 0.54904 0.0
H92 H 0.20545 0.22393 0.46845 0.0
H93 H 0.164 0.07641 0.53344 0.0
H94 H 0.21534 0.06418 0.47991 0.0
H95 H 0.25408 0.11035 0.45317 0.0
H96 H 0.24189 0.16898 0.4803 0.0
C97 C 0.20735 0.21996 0.51576 0.0
C98 C 0.18656 0.19212 0.53951 0.0
C99 C 0.19397 0.15806 0.52312 0.0
C100 C 0.17134 0.13154 0.53753 0.0
C101 C 0.1798 0.09763 0.52189 0.0
C102 C 0.20932 0.09024 0.49161 0.0
C103 C 0.23115 0.11623 0.47662 0.0
C104 C 0.22376 0.14978 0.49222 0.0
H105 H 0.10614 0.10832 0.48015 0.0
C106 C 0.09829 0.09991 0.52308 0.0
H107 H 0.10601 0.10564 0.61545 0.0
H108 H 0.16607 0.25439 0.58145 0.0
H109 H 0.11579 0.26621 0.63785 0.0
H110 H 0.07657 0.22011 0.66295 0.0
H111 H 0.08735 0.1619 0.63161 0.0
C112 C 0.114 0.11283 0.57198 0.0
C113 C 0.14088 0.13925 0.56702 0.0
C114 C 0.13475 0.17294 0.58731 0.0
C115 C 0.15753 0.1995 0.57322 0.0
C116 C 0.14995 0.23317 0.59163 0.0
C117 C 0.1211 0.24033 0.6239 0.0
C118 C 0.099 0.21438 0.638 0.0
C119 C 0.10551 0.18106 0.61977 0.0
H120 H 0.24156 0.70275 0.94579 0.0
C121 C 0.24593 0.71256 0.99048 0.0
H122 H 0.27486 0.71069 0.06977 0.0
H123 H 0.32979 0.56275 0.03408 0.0
H124 H 0.28381 0.55221 0.10041 0.0
H125 H 0.24241 0.59718 0.12397 0.0
H126 H 0.24654 0.6528 0.08075 0.0
C127 C 0.27193 0.70152 0.02429 0.0
C128 C 0.2949 0.67379 0.00496 0.0
C129 C 0.29239 0.64158 0.03121 0.0
C130 C 0.3167 0.61594 0.01876 0.0
C131 C 0.3128 0.58357 0.04381 0.0
C132 C 0.28632 0.57707 0.08152 0.0
C133 C 0.26298 0.60237 0.09471 0.0
C134 C 0.26575 0.63424 0.0698 0.0
H135 H 0.38704 0.60117 0.06509 0.0
C136 C 0.39229 0.59006 0.02197 0.0
H137 H 0.37763 0.58785 0.93154 0.0
H138 H 0.30589 0.73218 0.94471 0.0
H139 H 0.35096 0.74214 0.87632 0.0
H140 H 0.39335 0.69774 0.85507 0.0
H141 H 0.39098 0.64313 0.90219 0.0
C142 C 0.37241 0.59816 0.97518 0.0
C143 C 0.34411 0.62295 0.98149 0.0
C144 C 0.34543 0.65444 0.95243 0.0
C145 C 0.32085 0.67999 0.96439 0.0
C146 C 0.32355 0.7117 0.9366 0.0
C147 C 0.34938 0.71781 0.89738 0.0
C148 C 0.37326 0.69281 0.88544 0.0
C149 C 0.37156 0.66153 0.91274 0.0
H150 H 0.8048 0.7617 0.47831 0.0
C151 C 0.78231 0.77455 0.49422 0.0
H152 H 0.7603 0.82017 0.5238 0.0
H153 H 0.89545 0.88908 0.61502 0.0
H154 H 0.86851 0.87581 0.70653 0.0
H155 H 0.81659 0.84062 0.70635 0.0
H156 H 0.79141 0.81843 0.6148 0.0
C157 C 0.78236 0.80822 0.50421 0.0
C158 C 0.81423 0.82857 0.50319 0.0
C159 C 0.82847 0.84161 0.55729 0.0
C160 C 0.85824 0.86209 0.55745 0.0
C161 C 0.8724 0.87405 0.6122 0.0
C162 C 0.85733 0.86643 0.66515 0.0
C163 C 0.82813 0.84661 0.66505 0.0
C164 C 0.81384 0.83416 0.612 0.0
H165 H 0.87408 0.93663 0.52207 0.0
C166 C 0.89936 0.92664 0.51421 0.0
H167 H 0.92798 0.88277 0.49294 0.0
H168 H 0.7933 0.80811 0.39183 0.0
H169 H 0.82124 0.8203 0.30057 0.0
H170 H 0.8735 0.85503 0.30117 0.0
H171 H 0.89806 0.87798 0.39309 0.0
C172 C 0.90325 0.89321 0.50333 0.0
C173 C 0.87352 0.86984 0.50351 0.0
C174 C 0.85998 0.85596 0.44964 0.0
C175 C 0.83009 0.83552 0.44937 0.0
C176 C 0.81635 0.82312 0.39471 0.0
C177 C 0.83204 0.83008 0.34197 0.0
C178 C 0.86145 0.84968 0.3423 0.0
C179 C 0.8753 0.86265 0.39534 0.0
H180 H 0.72703 0.28845 0.95773 0.0
C181 C 0.74069 0.30067 0.99467 0.0
H182 H 0.7409 0.33776 0.06279 0.0
H183 H 0.62058 0.4037 0.89231 0.0
H184 H 0.66356 0.40956 0.81836 0.0
H185 H 0.72053 0.38442 0.83284 0.0
H186 H 0.73469 0.35284 0.9207 0.0
C187 C 0.72731 0.32705 0.02424 0.0
C188 C 0.69238 0.33988 0.01177 0.0
C189 C 0.6849 0.35883 0.96057 0.0
C190 C 0.65252 0.37449 0.95329 0.0
C191 C 0.64521 0.39236 0.90096 0.0
C192 C 0.66956 0.39572 0.85802 0.0
C193 C 0.7016 0.38148 0.8661 0.0
C194 C 0.70935 0.36328 0.91672 0.0
H195 H 0.62338 0.4394 0.00246 0.0
C196 C 0.59856 0.42715 0.00029 0.0
H197 H 0.57223 0.3803 0.9949 0.0
H198 H 0.69715 0.30198 0.11143 0.0
H199 H 0.65406 0.29609 0.18503 0.0
H200 H 0.59871 0.32501 0.17413 0.0
H201 H 0.58604 0.35981 0.08946 0.0
C202 C 0.59673 0.39311 0.99586 0.0
C203 C 0.62826 0.37224 0.9982 0.0
C204 C 0.63507 0.35178 0.04774 0.0
C205 C 0.66715 0.33553 0.05446 0.0
C206 C 0.67339 0.31534 0.10456 0.0
C207 C 0.64884 0.31163 0.14705 0.0
C208 C 0.61767 0.32788 0.14088 0.0
C209 C 0.61073 0.34779 0.09198 0.0
H210 H 0.15072 0.89492 0.09162 0.0
C211 C 0.15262 0.86845 0.10412 0.0
H212 H 0.13943 0.83298 0.16846 0.0
H213 H 0.13503 0.97564 0.32776 0.0
H214 H 0.19659 0.97485 0.323 0.0
H215 H 0.22555 0.93274 0.25987 0.0
H216 H 0.1931 0.89114 0.20113 0.0
C217 C 0.14081 0.85948 0.15649 0.0
C218 C 0.12376 0.88486 0.19476 0.0
C219 C 0.14315 0.90903 0.22852 0.0
C220 C 0.12646 0.93317 0.26511 0.0
C221 C 0.14639 0.95677 0.29909 0.0
C222 C 0.18175 0.95659 0.29681 0.0
C223 C 0.19806 0.93289 0.26123 0.0
C224 C 0.17912 0.90925 0.22754 0.0
H225 H 0.0581 0.91468 0.36274 0.0
C226 C 0.05823 0.9421 0.3578 0.0
H227 H 0.07498 0.98274 0.30637 0.0
H228 H 0.07921 0.84266 0.13363 0.0
H229 H 0.01763 0.84471 0.13566 0.0
H230 H 0.98861 0.88779 0.19674 0.0
H231 H 0.02104 0.92887 0.25645 0.0
C232 C 0.07345 0.95541 0.31137 0.0
C233 C 0.09052 0.93281 0.26809 0.0
C234 C 0.0711 0.90949 0.23243 0.0
C235 C 0.08778 0.88515 0.19637 0.0
C236 C 0.06784 0.86179 0.16181 0.0
C237 C 0.03245 0.86271 0.16244 0.0
C238 C 0.01613 0.88692 0.19689 0.0
C239 C 0.03507 0.91018 0.23137 0.0
H240 H 0.66511 0.65678 0.66217 0.0
C241 C 0.65329 0.65309 0.61853 0.0
H242 H 0.61077 0.63136 0.57178 0.0
H243 H 0.59198 0.52191 0.77119 0.0
H244 H 0.61454 0.48639 0.69273 0.0
H245 H 0.63505 0.51169 0.60167 0.0
H246 H 0.63305 0.57267 0.58842 0.0
C247 C 0.62403 0.63547 0.6139 0.0
C248 C 0.60942 0.62022 0.66694 0.0
C249 C 0.61066 0.58458 0.67377 0.0
C250 C 0.59902 0.57003 0.72635 0.0
C251 C 0.60063 0.53432 0.73221 0.0
C252 C 0.61351 0.51363 0.68751 0.0
C253 C 0.62504 0.52788 0.63624 0.0
C254 C 0.62375 0.56291 0.62921 0.0
H255 H 0.52214 0.58083 0.80197 0.0
C256 C 0.54041 0.57188 0.83498 0.0
H257 H 0.59256 0.5656 0.85732 0.0
H258 H 0.59982 0.68912 0.66484 0.0
H259 H 0.57762 0.72468 0.74352 0.0
H260 H 0.55962 0.69966 0.83648 0.0
H261 H 0.56337 0.6389 0.85103 0.0
C262 C 0.57379 0.57576 0.82641 0.0
C263 C 0.58595 0.59117 0.77169 0.0
C264 C 0.58422 0.6268 0.76453 0.0
C265 C 0.59555 0.64131 0.7117 0.0
C266 C 0.59252 0.67686 0.7048 0.0
C267 C 0.57964 0.69754 0.74948 0.0
C268 C 0.56942 0.68345 0.80175 0.0
C269 C 0.57161 0.64851 0.80944 0.0
H270 H 0.90382 0.17124 0.09076 0.0
C271 C 0.88298 0.18721 0.1054 0.0
H272 H 0.85379 0.20135 0.17937 0.0
H273 H 0.92179 0.05441 0.25525 0.0
H274 H 0.88084 0.03025 0.18421 0.0
H275 H 0.84456 0.06724 0.12268 0.0
H276 H 0.84936 0.12854 0.1313 0.0
C277 C 0.87487 0.18668 0.16248 0.0
C278 C 0.89398 0.16456 0.20382 0.0
C279 C 0.88986 0.12878 0.19967 0.0
C280 C 0.9098 0.10751 0.23669 0.0
C281 C 0.90643 0.07181 0.22968 0.0
C282 C 0.88316 0.05759 0.18879 0.0
C283 C 0.86282 0.0784 0.15403 0.0
C284 C 0.86599 0.11358 0.15922 0.0
H285 H 0.90882 0.08667 0.36708 0.0
C286 C 0.93621 0.08404 0.36346 0.0
H287 H 0.97965 0.09916 0.31765 0.0
H288 H 0.90734 0.2321 0.22338 0.0
H289 H 0.9473 0.25639 0.29624 0.0
H290 H 0.9809 0.21956 0.36237 0.0
H291 H 0.97489 0.15822 0.35591 0.0
C292 C 0.95215 0.10021 0.32064 0.0
C293 C 0.9328 0.12216 0.2793 0.0
C294 C 0.93667 0.15792 0.28378 0.0
C295 C 0.91715 0.17917 0.24601 0.0
C296 C 0.9215 0.21482 0.25119 0.0
C297 C 0.94432 0.22908 0.29281 0.0
C298 C 0.96325 0.20834 0.33003 0.0
C299 C 0.95956 0.17317 0.32582 0.0
H300 H 0.39618 0.30224 0.62619 0.0
C301 C 0.36931 0.30822 0.62049 0.0
H302 H 0.32825 0.33614 0.6551 0.0
H303 H 0.39176 0.35745 0.91302 0.0
H304 H 0.34714 0.31689 0.93232 0.0
H305 H 0.31514 0.28822 0.85036 0.0
H306 H 0.32739 0.30016 0.74847 0.0
C307 C 0.35463 0.32845 0.66089 0.0
C308 C 0.37501 0.34459 0.71029 0.0
C309 C 0.36793 0.33696 0.76947 0.0
C310 C 0.38669 0.35319 0.81674 0.0
C311 C 0.37853 0.34565 0.87545 0.0
C312 C 0.35296 0.32242 0.88715 0.0
C313 C 0.33493 0.30629 0.84099 0.0
C314 C 0.3422 0.31338 0.78275 0.0
H315 H 0.41168 0.44334 0.82541 0.0
C316 C 0.42718 0.43019 0.85815 0.0
H317 H 0.44492 0.3824 0.88667 0.0
H318 H 0.39199 0.36956 0.60235 0.0
H319 H 0.43909 0.40679 0.58298 0.0
H320 H 0.47631 0.42896 0.66434 0.0
H321 H 0.46576 0.41479 0.76568 0.0
C322 C 0.4301 0.39621 0.85396 0.0
C323 C 0.4127 0.3768 0.80464 0.0
C324 C 0.42086 0.38321 0.74533 0.0
C325 C 0.40104 0.36832 0.6982 0.0
C326 C 0.40754 0.37815 0.63976 0.0
C327 C 0.43434 0.39988 0.62797 0.0
C328 C 0.45516 0.41251 0.67376 0.0
C329 C 0.44861 0.4044 0.73181 0.0
H330 H 0.69264 0.66843 0.36854 0.0
C331 C 0.6729 0.66495 0.40048 0.0
H332 H 0.6218 0.65046 0.41239 0.0
H333 H 0.56821 0.65134 0.15167 0.0
H334 H 0.55008 0.70774 0.1828 0.0
H335 H 0.57101 0.73325 0.27734 0.0
H336 H 0.6104 0.70262 0.34114 0.0
C337 C 0.64278 0.65152 0.38237 0.0
C338 C 0.63561 0.63895 0.32096 0.0
C339 C 0.61266 0.65711 0.28423 0.0
C340 C 0.60023 0.64222 0.23015 0.0
C341 C 0.57772 0.66115 0.19391 0.0
C342 C 0.56731 0.69362 0.21106 0.0
C343 C 0.57911 0.70799 0.26428 0.0
C344 C 0.60157 0.6901 0.30058 0.0
H345 H 0.54604 0.58915 0.20509 0.0
C346 C 0.55996 0.58172 0.16609 0.0
H347 H 0.60766 0.58255 0.12532 0.0
H348 H 0.68139 0.59813 0.37888 0.0
H349 H 0.70101 0.54277 0.34591 0.0
H350 H 0.6798 0.51718 0.25168 0.0
H351 H 0.63865 0.54676 0.18997 0.0
C352 C 0.59285 0.59069 0.16279 0.0
C353 C 0.61035 0.60891 0.2134 0.0
C354 C 0.63533 0.59182 0.24785 0.0
C355 C 0.64781 0.60675 0.30198 0.0
C356 C 0.67141 0.58831 0.33701 0.0
C357 C 0.68284 0.55643 0.31867 0.0
C358 C 0.67089 0.542 0.26563 0.0
C359 C 0.64729 0.55929 0.2306 0.0
H360 H 0.822 0.19292 0.86789 0.0
C361 C 0.84516 0.19386 0.89514 0.0
H362 H 0.89778 0.18308 0.90024 0.0
H363 H 0.88864 0.05037 0.74414 0.0
H364 H 0.87252 0.02536 0.8363 0.0
H365 H 0.85746 0.06165 0.92173 0.0
H366 H 0.85818 0.12311 0.91536 0.0
C367 C 0.87424 0.18106 0.8742 0.0
C368 C 0.87549 0.15986 0.81955 0.0
C369 C 0.87462 0.12403 0.82394 0.0
C370 C 0.88369 0.10314 0.77506 0.0
C371 C 0.8826 0.0674 0.78044 0.0
C372 C 0.87323 0.05273 0.83295 0.0
C373 C 0.86474 0.07316 0.88103 0.0
C374 C 0.86537 0.10841 0.87685 0.0
H375 H 0.95479 0.08946 0.72312 0.0
C376 C 0.94046 0.08399 0.68231 0.0
H377 H 0.8947 0.09303 0.63364 0.0
H378 H 0.87542 0.22738 0.79497 0.0
H379 H 0.88955 0.25241 0.70156 0.0
H380 H 0.90543 0.21617 0.61654 0.0
H381 H 0.90738 0.15471 0.62431 0.0
C382 C 0.90901 0.09684 0.67493 0.0
C383 C 0.89396 0.1182 0.72225 0.0
C384 C 0.89207 0.1539 0.71629 0.0
C385 C 0.88293 0.17481 0.76523 0.0
C386 C 0.8823 0.21046 0.759 0.0
C387 C 0.89028 0.22508 0.7057 0.0
C388 C 0.8992 0.20467 0.65781 0.0
C389 C 0.90023 0.16946 0.66283 0.0
H390 H 0.4047 0.31594 0.40684 0.0
C391 C 0.37765 0.32167 0.40601 0.0
H392 H 0.33821 0.34922 0.36374 0.0
H393 H 0.48039 0.42267 0.27566 0.0
H394 H 0.49143 0.43729 0.37886 0.0
H395 H 0.4534 0.41713 0.45547 0.0
H396 H 0.40488 0.38151 0.42958 0.0
C397 C 0.36496 0.34238 0.36455 0.0
C398 C 0.38671 0.35683 0.31859 0.0
C399 C 0.41385 0.37935 0.33452 0.0
C400 C 0.43437 0.39294 0.29007 0.0
C401 C 0.46287 0.41321 0.30738 0.0
C402 C 0.46967 0.42157 0.36651 0.0
C403 C 0.44838 0.41008 0.40965 0.0
C404 C 0.42073 0.38931 0.39412 0.0
H405 H 0.42922 0.45266 0.21201 0.0
C406 C 0.44274 0.43808 0.17881 0.0
H407 H 0.45712 0.38908 0.14918 0.0
H408 H 0.33757 0.3136 0.27327 0.0
H409 H 0.32507 0.30115 0.16972 0.0
H410 H 0.3583 0.32772 0.09236 0.0
H411 H 0.40441 0.36662 0.11802 0.0
C412 C 0.44434 0.40411 0.18263 0.0
C413 C 0.42614 0.38616 0.22961 0.0
C414 C 0.39914 0.36356 0.21374 0.0
C415 C 0.37957 0.34873 0.2583 0.0
C416 C 0.35296 0.32598 0.24123 0.0
C417 C 0.34554 0.31854 0.18194 0.0
C418 C 0.36427 0.33347 0.13839 0.0
C419 C 0.39074 0.35576 0.1538 0.0
H420 H 0.17374 0.82271 0.85801 0.0
C421 C 0.15822 0.83363 0.89249 0.0
H422 H 0.11332 0.86062 0.91153 0.0
H423 H 0.13426 0.93592 0.66359 0.0
H424 H 0.18866 0.95602 0.70404 0.0
H425 H 0.21226 0.93358 0.79727 0.0
H426 H 0.1821 0.89051 0.84983 0.0
C427 C 0.13077 0.85235 0.87784 0.0
C428 C 0.12096 0.86113 0.8164 0.0
C429 C 0.13891 0.88667 0.7869 0.0
C430 C 0.12465 0.90068 0.73454 0.0
C431 C 0.14339 0.92544 0.70477 0.0
C432 C 0.17472 0.937 0.72728 0.0
C433 C 0.18805 0.92429 0.77968 0.0
C434 C 0.17045 0.89948 0.8094 0.0
H435 H 0.07304 0.95504 0.71704 0.0
C436 C 0.06512 0.94222 0.67596 0.0
H437 H 0.06569 0.89623 0.62607 0.0
H438 H 0.08335 0.80859 0.85665 0.0
H439 H 0.02945 0.78779 0.81501 0.0
H440 H 0.00359 0.81362 0.72637 0.0
H441 H 0.03144 0.86021 0.67868 0.0
C442 C 0.07366 0.90951 0.66663 0.0
C443 C 0.09194 0.89015 0.71339 0.0
C444 C 0.07547 0.86261 0.73995 0.0
C445 C 0.0901 0.84804 0.79148 0.0
C446 C 0.07299 0.82087 0.81789 0.0
C447 C 0.04215 0.80862 0.79433 0.0
C448 C 0.02762 0.82314 0.74438 0.0
C449 C 0.04391 0.84988 0.71741 0.0
loop_
_geom_bond_atom_site_label_1
_geom_bond_atom_site_label_2
_geom_bond_distance
_geom_bond_site_symmetry_2
_ccdc_geom_bond_type
H0 C3 0.929 . S
H1 C6 0.929 . S
H2 C8 0.930 . S
C3 H0 0.929 . S
C3 C4 1.398 1_554 S
C3 C5 1.396 . S
C4 C3 1.398 1_556 S
C4 C8 1.407 . S
C5 C3 1.396 . S
C5 C6 1.394 . S
C6 H1 0.929 . S
C6 C5 1.394 . S
C6 C7 1.382 1_554 S
C7 C6 1.382 1_556 S
C7 C8 1.392 . S
C7 N9 1.420 . S
C8 H2 0.930 . S
C8 C4 1.407 . S
C8 C7 1.392 . S
N9 C7 1.420 . S
N9 C10 1.244 1_556 S
C10 N9 1.244 1_554 S
H11 C14 0.929 . S
H12 C17 0.929 . S
H13 C19 0.930 . S
C14 H11 0.929 . S
C14 C15 1.398 . S
C14 C16 1.396 . S
C15 C14 1.398 . S
C15 C19 1.407 . S
C16 C14 1.396 . S
C16 C17 1.394 . S
C17 H12 0.929 . S
C17 C16 1.394 . S
C17 C18 1.382 . S
C18 C17 1.382 . S
C18 C19 1.392 . S
C18 N20 1.420 . S
C19 H13 0.930 . S
C19 C15 1.407 . S
C19 C18 1.392 . S
N20 C18 1.420 . S
N20 C21 1.244 . S
C21 N20 1.244 . S
H22 C25 0.929 . S
H23 C28 0.929 . S
H24 C30 0.930 . S
C25 H22 0.929 . S
C25 C26 1.398 1_554 S
C25 C27 1.396 . S
C26 C25 1.398 1_556 S
C26 C30 1.407 . S
C27 C25 1.396 . S
C27 C28 1.394 . S
C28 H23 0.929 . S
C28 C27 1.394 . S
C28 C29 1.382 1_554 S
C29 C28 1.382 1_556 S
C29 C30 1.392 . S
C29 N31 1.420 . S
C30 H24 0.930 . S
C30 C26 1.407 . S
C30 C29 1.392 . S
N31 C29 1.420 . S
N31 C32 1.244 1_556 S
C32 N31 1.244 1_554 S
H33 C36 0.929 . S
H34 C39 0.929 . S
H35 C41 0.930 . S
C36 H33 0.929 . S
C36 C37 1.398 . S
C36 C38 1.396 . S
C37 C36 1.398 . S
C37 C41 1.407 . S
C38 C36 1.396 . S
C38 C39 1.394 . S
C39 H34 0.929 . S
C39 C38 1.394 . S
C39 C40 1.382 . S
C40 C39 1.382 . S
C40 C41 1.392 . S
C40 N42 1.420 . S
C41 H35 0.930 . S
C41 C37 1.407 . S
C41 C40 1.392 . S
N42 C40 1.420 . S
N42 C43 1.244 . S
C43 N42 1.244 . S
O44 Zn45 1.953 1_565 S
O44 C60 1.225 . S
Zn45 O44 1.953 1_545 S
Zn45 O46 1.949 1_655 S
Zn45 O52 1.919 . S
Zn45 O57 1.924 . S
O46 Zn45 1.949 1_455 S
O46 Zn47 1.923 . S
O46 Zn48 1.950 1_545 S
O46 Zn49 1.945 . S
Zn47 O46 1.923 . S
Zn47 O50 1.933 . S
Zn47 O53 1.937 1_455 S
Zn47 O54 1.965 1_545 S
Zn48 O46 1.950 1_565 S
Zn48 O55 1.938 . S
Zn48 O56 1.906 . S
Zn48 O66 1.953 1_455 S
Zn49 O46 1.945 . S
Zn49 O51 1.932 . S
Zn49 O58 1.977 1_545 S
Zn49 O59 1.910 1_455 S
O50 Zn47 1.933 . S
O50 C61 1.226 . S
O51 Zn49 1.932 . S
O51 C61 1.307 . S
O52 Zn45 1.919 . S
O52 C63 1.253 . S
O53 Zn47 1.937 1_655 S
O53 C63 1.290 . S
O54 Zn47 1.965 1_565 S
O54 C62 1.303 . S
O55 Zn48 1.938 . S
O55 C62 1.247 . S
O56 Zn48 1.906 . S
O56 C64 1.304 . S
O57 Zn45 1.924 . S
O57 C65 1.311 . S
O58 Zn49 1.977 1_565 S
O58 C64 1.272 . S
O59 Zn49 1.910 1_655 S
O59 C65 1.231 . S
C60 O44 1.225 . S
C60 O66 1.298 . S
C61 O50 1.226 . S
C61 O51 1.307 . S
C62 O54 1.303 . S
C62 O55 1.247 . S
C63 O52 1.253 . S
C63 O53 1.290 . S
C64 O56 1.304 . S
C64 O58 1.272 . S
C65 O57 1.311 . S
C65 O59 1.231 . S
O66 Zn48 1.953 1_655 S
O66 C60 1.298 . S
O67 Zn68 1.954 . S
O67 C83 1.231 . S
Zn68 O67 1.954 . S
Zn68 O69 1.949 . S
Zn68 O75 1.919 1_554 S
Zn68 O80 1.924 . S
O69 Zn68 1.949 . S
O69 Zn70 1.923 1_554 S
O69 Zn71 1.950 . S
O69 Zn72 1.945 . S
Zn70 O69 1.923 1_556 S
Zn70 O73 1.933 . S
Zn70 O76 1.941 . S
Zn70 O77 1.965 . S
Zn71 O69 1.950 . S
Zn71 O78 1.938 1_554 S
Zn71 O79 1.906 . S
Zn71 O89 1.953 . S
Zn72 O69 1.945 . S
Zn72 O74 1.932 . S
Zn72 O81 1.977 . S
Zn72 O82 1.910 . S
O73 Zn70 1.933 . S
O73 C84 1.226 1_556 S
O74 Zn72 1.932 . S
O74 C84 1.307 . S
O75 Zn68 1.919 1_556 S
O75 C86 1.253 . S
O76 Zn70 1.941 . S
O76 C86 1.283 . S
O77 Zn70 1.965 . S
O77 C85 1.303 . S
O78 Zn71 1.938 1_556 S
O78 C85 1.247 . S
O79 Zn71 1.906 . S
O79 C87 1.304 . S
O80 Zn68 1.924 . S
O80 C88 1.311 . S
O81 Zn72 1.977 . S
O81 C87 1.272 . S
O82 Zn72 1.910 . S
O82 C88 1.231 . S
C83 O67 1.231 . S
C83 O89 1.298 . S
C84 O73 1.226 1_554 S
C84 O74 1.307 . S
C85 O77 1.303 . S
C85 O78 1.247 . S
C86 O75 1.253 . S
C86 O76 1.283 . S
C87 O79 1.304 . S
C87 O81 1.272 . S
C88 O80 1.311 . S
C88 O82 1.231 . S
O89 Zn71 1.953 . S
O89 C83 1.298 . S
H90 C91 0.951 . S
C91 H90 0.951 . S
C91 C97 1.265 . S
H92 C97 0.950 . S
H93 C101 0.949 . S
H94 C102 0.950 . S
H95 C103 0.951 . S
H96 C104 0.951 . S
C97 C91 1.265 . S
C97 H92 0.950 . S
C97 C98 1.478 . S
C98 C97 1.478 . S
C98 C99 1.397 . S
C98 C115 1.394 . S
C99 C98 1.397 . S
C99 C100 1.438 . S
C99 C104 1.429 . S
C100 C99 1.438 . S
C100 C101 1.428 . S
C100 C113 1.394 . S
C101 H93 0.949 . S
C101 C100 1.428 . S
C101 C102 1.345 . S
C102 H94 0.950 . S
C102 C101 1.345 . S
C102 C103 1.424 . S
C103 H95 0.951 . S
C103 C102 1.424 . S
C103 C104 1.347 . S
C104 H96 0.951 . S
C104 C99 1.429 . S
C104 C103 1.347 . S
H105 C106 0.951 . S
C106 H105 0.951 . S
C106 C112 1.265 . S
H107 C112 0.950 . S
H108 C116 0.949 . S
H109 C117 0.950 . S
H110 C118 0.951 . S
H111 C119 0.951 . S
C112 C106 1.265 . S
C112 H107 0.950 . S
C112 C113 1.478 . S
C113 C100 1.394 . S
C113 C112 1.478 . S
C113 C114 1.397 . S
C114 C113 1.397 . S
C114 C115 1.438 . S
C114 C119 1.429 . S
C115 C98 1.394 . S
C115 C114 1.438 . S
C115 C116 1.428 . S
C116 H108 0.949 . S
C116 C115 1.428 . S
C116 C117 1.345 . S
C117 H109 0.950 . S
C117 C116 1.345 . S
C117 C118 1.424 . S
C118 H110 0.951 . S
C118 C117 1.424 . S
C118 C119 1.347 . S
C119 H111 0.951 . S
C119 C114 1.429 . S
C119 C118 1.347 . S
H120 C121 0.951 . S
C121 H120 0.951 . S
C121 C127 1.265 . S
H122 C127 0.950 . S
H123 C131 0.949 . S
H124 C132 0.950 . S
H125 C133 0.951 . S
H126 C134 0.951 . S
C127 C121 1.265 . S
C127 H122 0.950 . S
C127 C128 1.478 . S
C128 C127 1.478 . S
C128 C129 1.397 . S
C128 C145 1.394 1_554 S
C129 C128 1.397 . S
C129 C130 1.438 . S
C129 C134 1.429 . S
C130 C129 1.438 . S
C130 C131 1.428 . S
C130 C143 1.394 . S
C131 H123 0.949 . S
C131 C130 1.428 . S
C131 C132 1.345 . S
C132 H124 0.950 . S
C132 C131 1.345 . S
C132 C133 1.424 . S
C133 H125 0.951 . S
C133 C132 1.424 . S
C133 C134 1.347 . S
C134 H126 0.951 . S
C134 C129 1.429 . S
C134 C133 1.347 . S
H135 C136 0.951 . S
C136 H135 0.951 . S
C136 C142 1.265 . S
H137 C142 0.950 . S
H138 C146 0.949 . S
H139 C147 0.950 . S
H140 C148 0.951 . S
H141 C149 0.951 . S
C142 C136 1.265 . S
C142 H137 0.950 . S
C142 C143 1.478 . S
C143 C130 1.394 . S
C143 C142 1.478 . S
C143 C144 1.397 1_554 S
C144 C143 1.397 1_556 S
C144 C145 1.438 . S
C144 C149 1.429 . S
C145 C128 1.394 1_556 S
C145 C144 1.438 . S
C145 C146 1.428 . S
C146 H138 0.949 . S
C146 C145 1.428 . S
C146 C147 1.345 . S
C147 H139 0.950 . S
C147 C146 1.345 . S
C147 C148 1.424 . S
C148 H140 0.951 . S
C148 C147 1.424 . S
C148 C149 1.347 . S
C149 H141 0.951 . S
C149 C144 1.429 . S
C149 C148 1.347 . S
H150 C151 0.951 . S
C151 H150 0.951 . S
C151 C157 1.265 . S
H152 C157 0.950 . S
H153 C161 0.949 . S
H154 C162 0.950 . S
H155 C163 0.951 . S
H156 C164 0.951 . S
C157 C151 1.265 . S
C157 H152 0.950 . S
C157 C158 1.478 . S
C158 C157 1.478 . S
C158 C159 1.397 . S
C158 C175 1.394 . S
C159 C158 1.397 . S
C159 C160 1.438 . S
C159 C164 1.429 . S
C160 C159 1.438 . S
C160 C161 1.428 . S
C160 C173 1.394 . S
C161 H153 0.949 . S
C161 C160 1.428 . S
C161 C162 1.345 . S
C162 H154 0.950 . S
C162 C161 1.345 . S
C162 C163 1.424 . S
C163 H155 0.951 . S
C163 C162 1.424 . S
C163 C164 1.347 . S
C164 H156 0.951 . S
C164 C159 1.429 . S
C164 C163 1.347 . S
H165 C166 0.951 . S
C166 H165 0.951 . S
C166 C172 1.265 . S
H167 C172 0.950 . S
H168 C176 0.949 . S
H169 C177 0.950 . S
H170 C178 0.951 . S
H171 C179 0.951 . S
C172 C166 1.265 . S
C172 H167 0.950 . S
C172 C173 1.478 . S
C173 C160 1.394 . S
C173 C172 1.478 . S
C173 C174 1.397 . S
C174 C173 1.397 . S
C174 C175 1.438 . S
C174 C179 1.429 . S
C175 C158 1.394 . S
C175 C174 1.438 . S
C175 C176 1.428 . S
C176 H168 0.949 . S
C176 C175 1.428 . S
C176 C177 1.345 . S
C177 H169 0.950 . S
C177 C176 1.345 . S
C177 C178 1.424 . S
C178 H170 0.951 . S
C178 C177 1.424 . S
C178 C179 1.347 . S
C179 H171 0.951 . S
C179 C174 1.429 . S
C179 C178 1.347 . S
H180 C181 0.951 . S
C181 H180 0.951 . S
C181 C187 1.265 . S
H182 C187 0.950 . S
H183 C191 0.949 . S
H184 C192 0.950 . S
H185 C193 0.951 . S
H186 C194 0.951 . S
C187 C181 1.265 . S
C187 H182 0.950 . S
C187 C188 1.478 . S
C188 C187 1.478 . S
C188 C189 1.397 1_554 S
C188 C205 1.394 . S
C189 C188 1.397 1_556 S
C189 C190 1.438 . S
C189 C194 1.429 . S
C190 C189 1.438 . S
C190 C191 1.428 . S
C190 C203 1.394 1_556 S
C191 H183 0.949 . S
C191 C190 1.428 . S
C191 C192 1.345 . S
C192 H184 0.950 . S
C192 C191 1.345 . S
C192 C193 1.424 . S
C193 H185 0.951 . S
C193 C192 1.424 . S
C193 C194 1.347 . S
C194 H186 0.951 . S
C194 C189 1.429 . S
C194 C193 1.347 . S
H195 C196 0.951 . S
C196 H195 0.951 . S
C196 C202 1.265 . S
H197 C202 0.950 . S
H198 C206 0.949 . S
H199 C207 0.950 . S
H200 C208 0.951 . S
H201 C209 0.951 . S
C202 C196 1.265 . S
C202 H197 0.950 . S
C202 C203 1.478 . S
C203 C190 1.394 1_554 S
C203 C202 1.478 . S
C203 C204 1.397 . S
C204 C203 1.397 . S
C204 C205 1.438 . S
C204 C209 1.429 . S
C205 C188 1.394 . S
C205 C204 1.438 . S
C205 C206 1.428 . S
C206 H198 0.949 . S
C206 C205 1.428 . S
C206 C207 1.345 . S
C207 H199 0.950 . S
C207 C206 1.345 . S
C207 C208 1.424 . S
C208 H200 0.951 . S
C208 C207 1.424 . S
C208 C209 1.347 . S
C209 H201 0.951 . S
C209 C204 1.429 . S
C209 C208 1.347 . S
H210 C211 0.951 . S
C211 H210 0.951 . S
C211 C217 1.265 . S
H212 C217 0.950 . S
H213 C221 0.949 . S
H214 C222 0.950 . S
H215 C223 0.951 . S
H216 C224 0.951 . S
C217 C211 1.265 . S
C217 H212 0.950 . S
C217 C218 1.478 . S
C218 C217 1.478 . S
C218 C219 1.397 . S
C218 C235 1.394 . S
C219 C218 1.397 . S
C219 C220 1.438 . S
C219 C224 1.429 . S
C220 C219 1.438 . S
C220 C221 1.428 . S
C220 C233 1.394 . S
C221 H213 0.949 . S
C221 C220 1.428 . S
C221 C222 1.345 . S
C222 H214 0.950 . S
C222 C221 1.345 . S
C222 C223 1.424 . S
C223 H215 0.951 . S
C223 C222 1.424 . S
C223 C224 1.347 . S
C224 H216 0.951 . S
C224 C219 1.429 . S
C224 C223 1.347 . S
H225 C226 0.951 . S
C226 H225 0.951 . S
C226 C232 1.265 . S
H227 C232 0.950 . S
H228 C236 0.949 . S
H229 C237 0.950 . S
H230 C238 0.951 . S
H231 C239 0.951 . S
C232 C226 1.265 . S
C232 H227 0.950 . S
C232 C233 1.478 . S
C233 C220 1.394 . S
C233 C232 1.478 . S
C233 C234 1.397 . S
C234 C233 1.397 . S
C234 C235 1.438 . S
C234 C239 1.429 . S
C235 C218 1.394 . S
C235 C234 1.438 . S
C235 C236 1.428 . S
C236 H228 0.949 . S
C236 C235 1.428 . S
C236 C237 1.345 . S
C237 H229 0.950 . S
C237 C236 1.345 . S
C237 C238 1.424 . S
C238 H230 0.951 . S
C238 C237 1.424 . S
C238 C239 1.347 . S
C239 H231 0.951 . S
C239 C234 1.429 . S
C239 C238 1.347 . S
H240 C241 0.951 . S
C241 H240 0.951 . S
C241 C247 1.265 . S
H242 C247 0.950 . S
H243 C251 0.949 . S
H244 C252 0.950 . S
H245 C253 0.951 . S
H246 C254 0.951 . S
C247 C241 1.265 . S
C247 H242 0.950 . S
C247 C248 1.478 . S
C248 C247 1.478 . S
C248 C249 1.397 . S
C248 C265 1.394 . S
C249 C248 1.397 . S
C249 C250 1.438 . S
C249 C254 1.429 . S
C250 C249 1.438 . S
C250 C251 1.428 . S
C250 C263 1.394 . S
C251 H243 0.949 . S
C251 C250 1.428 . S
C251 C252 1.345 . S
C252 H244 0.950 . S
C252 C251 1.345 . S
C252 C253 1.424 . S
C253 H245 0.951 . S
C253 C252 1.424 . S
C253 C254 1.347 . S
C254 H246 0.951 . S
C254 C249 1.429 . S
C254 C253 1.347 . S
H255 C256 0.951 . S
C256 H255 0.951 . S
C256 C262 1.265 . S
H257 C262 0.950 . S
H258 C266 0.949 . S
H259 C267 0.950 . S
H260 C268 0.951 . S
H261 C269 0.951 . S
C262 C256 1.265 . S
C262 H257 0.950 . S
C262 C263 1.478 . S
C263 C250 1.394 . S
C263 C262 1.478 . S
C263 C264 1.397 . S
C264 C263 1.397 . S
C264 C265 1.438 . S
C264 C269 1.429 . S
C265 C248 1.394 . S
C265 C264 1.438 . S
C265 C266 1.428 . S
C266 H258 0.949 . S
C266 C265 1.428 . S
C266 C267 1.345 . S
C267 H259 0.950 . S
C267 C266 1.345 . S
C267 C268 1.424 . S
C268 H260 0.951 . S
C268 C267 1.424 . S
C268 C269 1.347 . S
C269 H261 0.951 . S
C269 C264 1.429 . S
C269 C268 1.347 . S
H270 C271 0.951 . S
C271 H270 0.951 . S
C271 C277 1.265 . S
H272 C277 0.950 . S
H273 C281 0.949 . S
H274 C282 0.950 . S
H275 C283 0.951 . S
H276 C284 0.951 . S
C277 C271 1.265 . S
C277 H272 0.950 . S
C277 C278 1.478 . S
C278 C277 1.478 . S
C278 C279 1.397 . S
C278 C295 1.394 . S
C279 C278 1.397 . S
C279 C280 1.438 . S
C279 C284 1.429 . S
C280 C279 1.438 . S
C280 C281 1.428 . S
C280 C293 1.394 . S
C281 H273 0.949 . S
C281 C280 1.428 . S
C281 C282 1.345 . S
C282 H274 0.950 . S
C282 C281 1.345 . S
C282 C283 1.424 . S
C283 H275 0.951 . S
C283 C282 1.424 . S
C283 C284 1.347 . S
C284 H276 0.951 . S
C284 C279 1.429 . S
C284 C283 1.347 . S
H285 C286 0.951 . S
C286 H285 0.951 . S
C286 C292 1.265 . S
H287 C292 0.950 . S
H288 C296 0.949 . S
H289 C297 0.950 . S
H290 C298 0.951 . S
H291 C299 0.951 . S
C292 C286 1.265 . S
C292 H287 0.950 . S
C292 C293 1.478 . S
C293 C280 1.394 . S
C293 C292 1.478 . S
C293 C294 1.397 . S
C294 C293 1.397 . S
C294 C295 1.438 . S
C294 C299 1.429 . S
C295 C278 1.394 . S
C295 C294 1.438 . S
C295 C296 1.428 . S
C296 H288 0.949 . S
C296 C295 1.428 . S
C296 C297 1.345 . S
C297 H289 0.950 . S
C297 C296 1.345 . S
C297 C298 1.424 . S
C298 H290 0.951 . S
C298 C297 1.424 . S
C298 C299 1.347 . S
C299 H291 0.951 . S
C299 C294 1.429 . S
C299 C298 1.347 . S
H300 C301 0.951 . S
C301 H300 0.951 . S
C301 C307 1.265 . S
H302 C307 0.950 . S
H303 C311 0.949 . S
H304 C312 0.950 . S
H305 C313 0.951 . S
H306 C314 0.951 . S
C307 C301 1.265 . S
C307 H302 0.950 . S
C307 C308 1.478 . S
C308 C307 1.478 . S
C308 C309 1.397 . S
C308 C325 1.394 . S
C309 C308 1.397 . S
C309 C310 1.438 . S
C309 C314 1.429 . S
C310 C309 1.438 . S
C310 C311 1.428 . S
C310 C323 1.394 . S
C311 H303 0.949 . S
C311 C310 1.428 . S
C311 C312 1.345 . S
C312 H304 0.950 . S
C312 C311 1.345 . S
C312 C313 1.424 . S
C313 H305 0.951 . S
C313 C312 1.424 . S
C313 C314 1.347 . S
C314 H306 0.951 . S
C314 C309 1.429 . S
C314 C313 1.347 . S
H315 C316 0.951 . S
C316 H315 0.951 . S
C316 C322 1.265 . S
H317 C322 0.950 . S
H318 C326 0.949 . S
H319 C327 0.950 . S
H320 C328 0.951 . S
H321 C329 0.951 . S
C322 C316 1.265 . S
C322 H317 0.950 . S
C322 C323 1.478 . S
C323 C310 1.394 . S
C323 C322 1.478 . S
C323 C324 1.397 . S
C324 C323 1.397 . S
C324 C325 1.438 . S
C324 C329 1.429 . S
C325 C308 1.394 . S
C325 C324 1.438 . S
C325 C326 1.428 . S
C326 H318 0.949 . S
C326 C325 1.428 . S
C326 C327 1.345 . S
C327 H319 0.950 . S
C327 C326 1.345 . S
C327 C328 1.424 . S
C328 H320 0.951 . S
C328 C327 1.424 . S
C328 C329 1.347 . S
C329 H321 0.951 . S
C329 C324 1.429 . S
C329 C328 1.347 . S
H330 C331 0.951 . S
C331 H330 0.951 . S
C331 C337 1.265 . S
H332 C337 0.950 . S
H333 C341 0.949 . S
H334 C342 0.950 . S
H335 C343 0.951 . S
H336 C344 0.951 . S
C337 C331 1.265 . S
C337 H332 0.950 . S
C337 C338 1.478 . S
C338 C337 1.478 . S
C338 C339 1.397 . S
C338 C355 1.394 . S
C339 C338 1.397 . S
C339 C340 1.438 . S
C339 C344 1.429 . S
C340 C339 1.438 . S
C340 C341 1.428 . S
C340 C353 1.394 . S
C341 H333 0.949 . S
C341 C340 1.428 . S
C341 C342 1.345 . S
C342 H334 0.950 . S
C342 C341 1.345 . S
C342 C343 1.424 . S
C343 H335 0.951 . S
C343 C342 1.424 . S
C343 C344 1.347 . S
C344 H336 0.951 . S
C344 C339 1.429 . S
C344 C343 1.347 . S
H345 C346 0.951 . S
C346 H345 0.951 . S
C346 C352 1.265 . S
H347 C352 0.950 . S
H348 C356 0.949 . S
H349 C357 0.950 . S
H350 C358 0.951 . S
H351 C359 0.951 . S
C352 C346 1.265 . S
C352 H347 0.950 . S
C352 C353 1.478 . S
C353 C340 1.394 . S
C353 C352 1.478 . S
C353 C354 1.397 . S
C354 C353 1.397 . S
C354 C355 1.438 . S
C354 C359 1.429 . S
C355 C338 1.394 . S
C355 C354 1.438 . S
C355 C356 1.428 . S
C356 H348 0.949 . S
C356 C355 1.428 . S
C356 C357 1.345 . S
C357 H349 0.950 . S
C357 C356 1.345 . S
C357 C358 1.424 . S
C358 H350 0.951 . S
C358 C357 1.424 . S
C358 C359 1.347 . S
C359 H351 0.951 . S
C359 C354 1.429 . S
C359 C358 1.347 . S
H360 C361 0.951 . S
C361 H360 0.951 . S
C361 C367 1.265 . S
H362 C367 0.950 . S
H363 C371 0.949 . S
H364 C372 0.950 . S
H365 C373 0.951 . S
H366 C374 0.951 . S
C367 C361 1.265 . S
C367 H362 0.950 . S
C367 C368 1.478 . S
C368 C367 1.478 . S
C368 C369 1.397 . S
C368 C385 1.394 . S
C369 C368 1.397 . S
C369 C370 1.438 . S
C369 C374 1.429 . S
C370 C369 1.438 . S
C370 C371 1.428 . S
C370 C383 1.394 . S
C371 H363 0.949 . S
C371 C370 1.428 . S
C371 C372 1.345 . S
C372 H364 0.950 . S
C372 C371 1.345 . S
C372 C373 1.424 . S
C373 H365 0.951 . S
C373 C372 1.424 . S
C373 C374 1.347 . S
C374 H366 0.951 . S
C374 C369 1.429 . S
C374 C373 1.347 . S
H375 C376 0.951 . S
C376 H375 0.951 . S
C376 C382 1.265 . S
H377 C382 0.950 . S
H378 C386 0.949 . S
H379 C387 0.950 . S
H380 C388 0.951 . S
H381 C389 0.951 . S
C382 C376 1.265 . S
C382 H377 0.950 . S
C382 C383 1.478 . S
C383 C370 1.394 . S
C383 C382 1.478 . S
C383 C384 1.397 . S
C384 C383 1.397 . S
C384 C385 1.438 . S
C384 C389 1.429 . S
C385 C368 1.394 . S
C385 C384 1.438 . S
C385 C386 1.428 . S
C386 H378 0.949 . S
C386 C385 1.428 . S
C386 C387 1.345 . S
C387 H379 0.950 . S
C387 C386 1.345 . S
C387 C388 1.424 . S
C388 H380 0.951 . S
C388 C387 1.424 . S
C388 C389 1.347 . S
C389 H381 0.951 . S
C389 C384 1.429 . S
C389 C388 1.347 . S
H390 C391 0.951 . S
C391 H390 0.951 . S
C391 C397 1.265 . S
H392 C397 0.950 . S
H393 C401 0.949 . S
H394 C402 0.950 . S
H395 C403 0.951 . S
H396 C404 0.951 . S
C397 C391 1.265 . S
C397 H392 0.950 . S
C397 C398 1.478 . S
C398 C397 1.478 . S
C398 C399 1.397 . S
C398 C415 1.394 . S
C399 C398 1.397 . S
C399 C400 1.438 . S
C399 C404 1.429 . S
C400 C399 1.438 . S
C400 C401 1.428 . S
C400 C413 1.394 . S
C401 H393 0.949 . S
C401 C400 1.428 . S
C401 C402 1.345 . S
C402 H394 0.950 . S
C402 C401 1.345 . S
C402 C403 1.424 . S
C403 H395 0.951 . S
C403 C402 1.424 . S
C403 C404 1.347 . S
C404 H396 0.951 . S
C404 C399 1.429 . S
C404 C403 1.347 . S
H405 C406 0.951 . S
C406 H405 0.951 . S
C406 C412 1.265 . S
H407 C412 0.950 . S
H408 C416 0.949 . S
H409 C417 0.950 . S
H410 C418 0.951 . S
H411 C419 0.951 . S
C412 C406 1.265 . S
C412 H407 0.950 . S
C412 C413 1.478 . S
C413 C400 1.394 . S
C413 C412 1.478 . S
C413 C414 1.397 . S
C414 C413 1.397 . S
C414 C415 1.438 . S
C414 C419 1.429 . S
C415 C398 1.394 . S
C415 C414 1.438 . S
C415 C416 1.428 . S
C416 H408 0.949 . S
C416 C415 1.428 . S
C416 C417 1.345 . S
C417 H409 0.950 . S
C417 C416 1.345 . S
C417 C418 1.424 . S
C418 H410 0.951 . S
C418 C417 1.424 . S
C418 C419 1.347 . S
C419 H411 0.951 . S
C419 C414 1.429 . S
C419 C418 1.347 . S
H420 C421 0.951 . S
C421 H420 0.951 . S
C421 C427 1.265 . S
H422 C427 0.950 . S
H423 C431 0.949 . S
H424 C432 0.950 1_545 S
H425 C433 0.951 . S
H426 C434 0.951 . S
C427 C421 1.265 . S
C427 H422 0.950 . S
C427 C428 1.478 . S
C428 C427 1.478 . S
C428 C429 1.397 . S
C428 C445 1.394 . S
C429 C428 1.397 . S
C429 C430 1.438 . S
C429 C434 1.429 . S
C430 C429 1.438 . S
C430 C431 1.428 . S
C430 C443 1.394 . S
C431 H423 0.949 . S
C431 C430 1.428 . S
C431 C432 1.345 . S
C432 H424 0.950 1_565 S
C432 C431 1.345 . S
C432 C433 1.424 . S
C433 H425 0.951 . S
C433 C432 1.424 . S
C433 C434 1.347 . S
C434 H426 0.951 . S
C434 C429 1.429 . S
C434 C433 1.347 . S
H435 C436 0.951 . S
C436 H435 0.951 . S
C436 C442 1.265 . S
H437 C442 0.950 . S
H438 C446 0.949 . S
H439 C447 0.950 . S
H440 C448 0.951 . S
H441 C449 0.951 . S
C442 C436 1.265 . S
C442 H437 0.950 . S
C442 C443 1.478 . S
C443 C430 1.394 . S
C443 C442 1.478 . S
C443 C444 1.397 . S
C444 C443 1.397 . S
C444 C445 1.438 . S
C444 C449 1.429 . S
C445 C428 1.394 . S
C445 C444 1.438 . S
C445 C446 1.428 . S
C446 H438 0.949 . S
C446 C445 1.428 . S
C446 C447 1.345 . S
C447 H439 0.950 . S
C447 C446 1.345 . S
C447 C448 1.424 . S
C448 H440 0.951 . S
C448 C447 1.424 . S
C448 C449 1.347 . S
C449 H441 0.951 . S
C449 C444 1.429 . S
C449 C448 1.347 . S
C106 C61 1.482 . S
C91 C43 1.470 . S
C121 C10 1.482 . S
C136 C84 1.484 . S
C151 C21 1.500 . S
C166 C60 1.505 . S
C181 C32 1.499 . S
C196 C83 1.504 . S
C226 C64 1.500 . S
C211 C5 1.461 . S
C256 C86 1.506 . S
C241 C15 1.550 . S
C271 C27 1.490 . S
C286 C65 1.497 . S
C301 C38 1.490 . S
C316 C85 1.430 . S
C346 C88 1.372 . S
C331 C16 1.444 . S
C376 C63 1.420 . S
C361 C26 1.479 . S
C406 C87 1.429 . S
C391 C37 1.442 . S
C421 C4 1.459 . S
C436 C62 1.435 . S
