# Generated by pormake.
# Topology zzz, (3,6)-cn, num edge types: 1
# Building blocks:
#     Node 0, Type 0, BuildingBlock: BETDIP_clean_linker_0, # of connection points: 3
#     Node 1, Type 0, BuildingBlock: BETDIP_clean_linker_0, # of connection points: 3
#     Node 2, Type 0, BuildingBlock: BETDIP_clean_linker_0, # of connection points: 3
#     Node 3, Type 0, BuildingBlock: BETDIP_clean_linker_0, # of connection points: 3
#     Node 4, Type 0, BuildingBlock: BETDIP_clean_linker_0, # of connection points: 3
#     Node 5, Type 0, BuildingBlock: BETDIP_clean_linker_0, # of connection points: 3
#     Node 6, Type 0, BuildingBlock: BETDIP_clean_linker_0, # of connection points: 3
#     Node 7, Type 0, BuildingBlock: BETDIP_clean_linker_0, # of connection points: 3
#     Node 8, Type 1, BuildingBlock: PAMTUU_clean_sbu_0, # of connection points: 6
#     Node 9, Type 1, BuildingBlock: PAMTUU_clean_sbu_0, # of connection points: 6
#     Node 10, Type 1, BuildingBlock: PAMTUU_clean_sbu_0, # of connection points: 6
#     Node 11, Type 1, BuildingBlock: PAMTUU_clean_sbu_0, # of connection points: 6
#     Edge 12, Type (0, 1), BuildingBlock: EZIPEK_clean_linker_0, # of connection points: 2
#     Edge 13, Type (0, 1), BuildingBlock: EZIPEK_clean_linker_0, # of connection points: 2
#     Edge 14, Type (0, 1), BuildingBlock: EZIPEK_clean_linker_0, # of connection points: 2
#     Edge 15, Type (0, 1), BuildingBlock: EZIPEK_clean_linker_0, # of connection points: 2
#     Edge 16, Type (0, 1), BuildingBlock: EZIPEK_clean_linker_0, # of connection points: 2
#     Edge 17, Type (0, 1), BuildingBlock: EZIPEK_clean_linker_0, # of connection points: 2
#     Edge 18, Type (0, 1), BuildingBlock: EZIPEK_clean_linker_0, # of connection points: 2
#     Edge 19, Type (0, 1), BuildingBlock: EZIPEK_clean_linker_0, # of connection points: 2
#     Edge 20, Type (0, 1), BuildingBlock: EZIPEK_clean_linker_0, # of connection points: 2
#     Edge 21, Type (0, 1), BuildingBlock: EZIPEK_clean_linker_0, # of connection points: 2
#     Edge 22, Type (0, 1), BuildingBlock: EZIPEK_clean_linker_0, # of connection points: 2
#     Edge 23, Type (0, 1), BuildingBlock: EZIPEK_clean_linker_0, # of connection points: 2
#     Edge 24, Type (0, 1), BuildingBlock: EZIPEK_clean_linker_0, # of connection points: 2
#     Edge 25, Type (0, 1), BuildingBlock: EZIPEK_clean_linker_0, # of connection points: 2
#     Edge 26, Type (0, 1), BuildingBlock: EZIPEK_clean_linker_0, # of connection points: 2
#     Edge 27, Type (0, 1), BuildingBlock: EZIPEK_clean_linker_0, # of connection points: 2
#     Edge 28, Type (0, 1), BuildingBlock: EZIPEK_clean_linker_0, # of connection points: 2
#     Edge 29, Type (0, 1), BuildingBlock: EZIPEK_clean_linker_0, # of connection points: 2
#     Edge 30, Type (0, 1), BuildingBlock: EZIPEK_clean_linker_0, # of connection points: 2
#     Edge 31, Type (0, 1), BuildingBlock: EZIPEK_clean_linker_0, # of connection points: 2
#     Edge 32, Type (0, 1), BuildingBlock: EZIPEK_clean_linker_0, # of connection points: 2
#     Edge 33, Type (0, 1), BuildingBlock: EZIPEK_clean_linker_0, # of connection points: 2
#     Edge 34, Type (0, 1), BuildingBlock: EZIPEK_clean_linker_0, # of connection points: 2
#     Edge 35, Type (0, 1), BuildingBlock: EZIPEK_clean_linker_0, # of connection points: 2
# Relax obj value: 0.280
# Max RMSD: 0.251
# Mean RMSD: 0.114
data_MOF--net-zzz--node1-PAMTUU_clean_sbu_0--node2-BETDIP_clean_linker_0--edge1-EZIPEK_clean_linker_0
_symmetry_space_group_name_H-M    P1
_symmetry_Int_Tables_number       1
_symmetry_cell_setting            triclinic
loop_
_symmetry_equiv_pos_as_xyz
'x, y, z'
_cell_length_a     36.403188
_cell_length_b     40.456147
_cell_length_c     11.907683
_cell_angle_alpha  103.48589
_cell_angle_beta   89.924409
_cell_angle_gamma 89.436556
loop_
_atom_site_label
_atom_site_type_symbol
_atom_site_fract_x
_atom_site_fract_y
_atom_site_fract_z
_atom_type_partial_charge
H0 H 0.7946 0.50687 0.56204 0.0
H1 H 0.77297 0.42901 0.25327 0.0
H2 H 0.87396 0.42703 0.4347 0.0
H3 H 0.71299 0.44195 0.31929 0.0
C4 C 0.71545 0.4688 0.32071 0.0
C5 C 0.80284 0.48408 0.49919 0.0
C6 C 0.83711 0.46791 0.5123 0.0
C7 C 0.77907 0.47022 0.40503 0.0
C8 C 0.79011 0.44011 0.3263 0.0
C9 C 0.82445 0.42518 0.33521 0.0
C10 C 0.84753 0.43905 0.42785 0.0
N11 N 0.74532 0.48698 0.38562 0.0
H12 H 0.99812 0.75747 0.59437 0.0
H13 H 0.06577 0.72055 0.29101 0.0
H14 H 0.06187 0.82676 0.45119 0.0
H15 H 0.068 0.67337 0.40438 0.0
C16 C 1.03862 0.6722 0.38812 0.0
C17 C 1.01685 0.76213 0.52911 0.0
C18 C 1.02918 0.79531 0.53396 0.0
C19 C 1.02995 0.7348 0.44133 0.0
C20 C 0.05534 0.74109 0.35924 0.0
C21 C 0.066 0.7743 0.36158 0.0
C22 C 0.05285 0.80106 0.4485 0.0
N23 N 1.01638 0.70143 0.43238 0.0
H24 H 0.78512 0.97627 0.52758 0.0
H25 H 0.80314 0.05648 0.34828 0.0
H26 H 0.70301 0.05426 0.53115 0.0
H27 H 0.85998 0.04642 0.36675 0.0
C28 C 0.86268 0.01896 0.34465 0.0
C29 C 0.77618 0.99913 0.50269 0.0
C30 C 0.7409 0.01381 0.54024 0.0
C31 C 0.79989 0.01455 0.43353 0.0
C32 C 0.78721 0.04435 0.4036 0.0
C33 C 0.75255 0.05817 0.43705 0.0
C34 C 0.72984 0.0431 0.50536 0.0
N35 N 0.83528 0.99998 0.39087 0.0
H36 H 0.56463 0.78291 0.36812 0.0
H37 H 0.5189 0.74358 0.02838 0.0
H38 H 0.5362 0.67752 0.25789 0.0
H39 H 0.56791 0.78612 1.00619 0.0
C40 C 0.5546 0.80708 0.06664 0.0
C41 C 0.5528 0.76225 0.30434 0.0
C42 C 0.55159 0.72928 0.3255 0.0
C43 C 0.54057 0.76786 0.19705 0.0
C44 C 0.52711 0.74015 0.11237 0.0
C45 C 0.52531 0.70769 0.13556 0.0
C46 C 0.53643 0.70299 0.2426 0.0
N47 N 0.54252 0.80107 0.17458 0.0
H48 H 0.28307 0.48069 0.18837 0.0
H49 H 0.30817 0.55952 0.49134 0.0
H50 H 0.20359 0.55934 0.32883 0.0
H51 H 0.36741 0.54779 0.41005 0.0
C52 C 0.36547 0.52138 0.4152 0.0
C53 C 0.27541 0.50359 0.2516 0.0
C54 C 0.24031 0.51914 0.24425 0.0
C55 C 0.3006 0.51816 0.34116 0.0
C56 C 0.29007 0.54812 0.42117 0.0
C57 C 0.25498 0.56212 0.41915 0.0
C58 C 0.23066 0.54797 0.33024 0.0
N59 N 0.33518 0.50212 0.35658 0.0
H60 H 0.08067 0.23588 0.17714 0.0
H61 H 0.99835 0.27395 0.43786 0.0
H62 H 1.0139 0.16653 0.30976 0.0
H63 H 1.00096 0.31552 0.26961 0.0
C64 C 1.02598 0.32005 0.32 0.0
C65 C 0.05889 0.23135 0.23361 0.0
C66 C 0.04833 0.19786 0.23186 0.0
C67 C 0.04028 0.259 0.30585 0.0
C68 C 1.01214 0.25291 0.37971 0.0
C69 C 1.00356 0.21955 0.38404 0.0
C70 C 1.02121 0.1924 0.30844 0.0
N71 N 0.05157 0.29273 0.30953 0.0
H72 H 0.2878 0.97522 0.1434 0.0
H73 H 0.25836 0.06147 0.41791 0.0
H74 H 0.35881 0.06133 0.22969 0.0
H75 H 0.24297 0.01676 0.50187 0.0
C76 C 0.22413 1.00491 0.43396 0.0
C77 C 0.29346 1.00046 0.19472 0.0
C78 C 0.3263 0.01733 0.17424 0.0
C79 C 0.26874 0.01625 0.28547 0.0
C80 C 0.27696 0.04903 0.35049 0.0
C81 C 0.30987 0.0652 0.33559 0.0
C82 C 0.33319 0.04954 0.24388 0.0
N83 N 0.23664 0.99937 0.31577 0.0
H84 H 0.51404 0.2197 0.39617 0.0
H85 H 0.56687 0.25853 0.72614 0.0
H86 H 0.54443 0.32469 0.50277 0.0
H87 H 0.57921 0.20571 0.72454 0.0
C88 C 0.55772 0.19008 0.67713 0.0
C89 C 0.52722 0.24005 0.45772 0.0
C90 C 0.52811 0.2731 0.43676 0.0
C91 C 0.54247 0.23372 0.56071 0.0
C92 C 0.55752 0.26136 0.64281 0.0
C93 C 0.5581 0.29397 0.62106 0.0
C94 C 0.54465 0.29912 0.51721 0.0
N95 N 0.54003 0.20037 0.58301 0.0
Tb96 Tb 1.0126 0.00851 0.80395 0.0
Tb97 Tb 0.07624 0.98601 0.96169 0.0
C98 C 0.99178 0.99286 0.03957 0.0
C99 C 0.96031 0.06739 0.67349 0.0
C100 C 0.95317 0.13177 0.62332 0.0
C101 C 0.92329 0.1176 0.66931 0.0
C102 C 0.92686 0.08553 0.69419 0.0
C103 C 0.9907 0.0826 0.63398 0.0
C104 C 0.98708 0.11443 0.60875 0.0
C105 C 0.96371 0.03344 0.69803 0.0
O106 O 1.02792 0.05331 0.93545 0.0
O107 O 0.08689 0.03917 0.97067 0.0
O108 O 0.09965 0.97916 0.78718 0.0
O109 O 0.06448 0.01785 0.72218 0.0
O110 O 0.09965 0.98673 0.124 0.0
O111 O 0.1261 0.96018 0.96688 0.0
O112 O 0.04373 0.94087 0.90023 0.0
O113 O 1.02009 0.95366 0.73645 0.0
O114 O 0.98283 0.98763 0.93021 0.0
O115 O 1.02645 0.99831 0.07165 0.0
C116 C 0.0608 0.06191 0.97594 0.0
O117 O 0.99024 0.01367 0.64606 0.0
O118 O 0.96153 0.03322 0.80679 0.0
C119 C 0.09438 0.9988 0.71464 0.0
C120 C 0.12888 0.93365 0.12125 0.0
C121 C 0.12697 0.86905 0.1696 0.0
C122 C 0.15246 0.87567 0.08976 0.0
C123 C 0.15356 0.9079 0.06622 0.0
C124 C 0.10503 0.9274 0.20662 0.0
C125 C 0.10407 0.89527 0.23026 0.0
C126 C 0.12532 0.96496 0.07863 0.0
C127 C 1.02946 0.9314 0.79681 0.0
H128 H 0.89712 0.13092 0.68292 0.0
H129 H 0.90335 0.07455 0.72732 0.0
H130 H 1.01708 0.06964 0.62025 0.0
H131 H 1.01061 0.12521 0.57489 0.0
H132 H 0.17027 0.85559 0.04238 0.0
H133 H 0.17235 0.91218 1.00054 0.0
H134 H 0.08589 0.94671 0.25123 0.0
H135 H 0.08431 0.89041 0.2925 0.0
Tb136 Tb 0.52629 0.98406 0.74952 0.0
Tb137 Tb 0.55221 0.01741 1.00417 0.0
C138 C 0.54422 0.93716 0.92471 0.0
C139 C 0.47112 0.99796 0.52954 0.0
C140 C 0.41967 0.04812 0.50675 0.0
C141 C 0.42115 0.01682 0.42468 0.0
C142 C 0.44693 0.99169 0.43577 0.0
C143 C 0.46987 0.02985 0.6083 0.0
C144 C 0.44482 0.05481 0.59659 0.0
C145 C 0.49553 0.9716 0.55679 0.0
O146 O 0.47823 0.00796 0.84991 0.0
O147 O 0.49611 0.99958 0.02143 0.0
O148 O 0.53897 0.061 0.93069 0.0
O149 O 0.54799 0.03378 0.74359 0.0
O150 O 0.5887 0.02219 0.14281 0.0
O151 O 0.53936 0.05307 0.15787 0.0
O152 O 0.60115 0.01508 0.89091 0.0
O153 O 0.58505 0.97103 0.74272 0.0
O154 O 0.52728 0.94012 0.82923 0.0
O155 O 0.56007 0.9633 0.99349 0.0
C156 C 0.46934 1.00325 0.95178 0.0
O157 O 0.52992 0.98015 0.57016 0.0
O158 O 0.4841 0.95915 0.64201 0.0
C159 C 0.54455 0.062 0.82278 0.0
C160 C 0.59193 0.07745 0.25648 0.0
C161 C 0.64987 0.12268 0.3268 0.0
C162 C 0.62929 0.12418 0.22817 0.0
C163 C 0.60085 0.10121 0.19195 0.0
C164 C 0.6085 0.07935 0.36328 0.0
C165 C 0.63724 0.10173 0.39832 0.0
C166 C 0.57016 0.04753 0.20625 0.0
C167 C 0.61087 0.9909 0.7995 0.0
H168 H 0.40145 0.01156 0.35514 0.0
H169 H 0.44705 0.96727 0.37443 0.0
H170 H 0.48692 0.03515 0.6832 0.0
H171 H 0.44363 0.07858 0.6613 0.0
H172 H 0.63723 0.14076 0.17331 0.0
H173 H 0.5878 0.10032 0.10959 0.0
H174 H 0.6016 0.06138 0.41459 0.0
H175 H 0.65215 0.09949 0.47475 0.0
Tb176 Tb 0.51106 0.49278 0.97554 0.0
Tb177 Tb 0.56852 0.50807 0.77941 0.0
C178 C 0.48436 0.49843 0.72232 0.0
C179 C 0.47295 0.43436 0.14017 0.0
C180 C 0.48331 0.37136 0.20351 0.0
C181 C 0.45944 0.37381 0.11328 0.0
C182 C 0.45425 0.40494 0.08218 0.0
C183 C 0.49639 0.43186 0.23198 0.0
C184 C 0.50156 0.4007 0.26295 0.0
C185 C 0.46927 0.46664 0.10008 0.0
O186 O 0.54259 0.44686 0.90544 0.0
O187 O 0.56995 0.45303 0.73674 0.0
O188 O 0.60302 0.49663 0.91918 0.0
O189 O 0.56218 0.50482 0.07103 0.0
O190 O 0.58581 0.51087 0.61243 0.0
O191 O 0.61533 0.53663 0.76332 0.0
O192 O 0.5366 0.55384 0.8491 0.0
O193 O 0.51117 0.54789 0.02052 0.0
O194 O 0.47709 0.50383 0.83405 0.0
O195 O 0.51816 0.49299 0.68295 0.0
C196 C 0.55893 0.43425 0.80647 0.0
O197 O 0.49204 0.49117 0.14177 0.0
O198 O 0.46496 0.46307 0.98926 0.0
C199 C 0.5959 0.49995 0.0303 0.0
C200 C 0.60589 0.56758 0.61855 0.0
C201 C 0.59515 0.63123 0.56014 0.0
C202 C 0.58162 0.60117 0.4887 0.0
C203 C 0.58692 0.56971 0.51741 0.0
C204 C 0.62 0.5978 0.68873 0.0
C205 C 0.61449 0.62926 0.66026 0.0
C206 C 0.60957 0.53453 0.65389 0.0
C207 C 0.52177 0.56666 0.95027 0.0
H208 H 0.44498 0.35156 0.06655 0.0
H209 H 0.43593 0.40587 0.01136 0.0
H210 H 0.51117 0.45386 0.27905 0.0
H211 H 0.51997 0.39945 0.33329 0.0
H212 H 0.56676 0.60209 0.41069 0.0
H213 H 0.5758 0.5471 0.46095 0.0
H214 H 0.63505 0.59725 0.76666 0.0
H215 H 0.62533 0.65207 0.71627 0.0
Tb216 Tb 0.04694 0.51512 0.80125 0.0
Tb217 Tb 1.02583 0.46732 0.9754 0.0
C218 C 1.02568 0.54629 0.05808 0.0
C219 C 0.09147 0.5798 0.66956 0.0
C220 C 0.15319 0.62044 0.66141 0.0
C221 C 0.13365 0.62357 0.76541 0.0
C222 C 0.10307 0.60316 0.76971 0.0
C223 C 0.1089 0.5789 0.5644 0.0
C224 C 0.13923 0.59906 0.55999 0.0
C225 C 0.06351 0.55421 0.6728 0.0
O226 O 0.09998 0.49843 0.86186 0.0
O227 O 0.07959 0.48849 0.03237 0.0
O228 O 0.04349 0.43279 0.81443 0.0
O229 O 1.03306 0.46667 0.68801 0.0
O230 O 0.99576 0.45709 0.11334 0.0
O231 O 0.04019 0.424 0.0355 0.0
O232 O 0.9756 0.4673 0.87271 0.0
O233 O 0.98661 0.51333 0.79748 0.0
O234 O 0.04844 0.54757 0.97402 0.0
O235 O 1.00782 0.5185 0.0604 0.0
C236 C 0.10667 0.49442 0.96704 0.0
O237 O 0.0757 0.52301 0.65724 0.0
O238 O 0.03909 0.56166 0.75525 0.0
C239 C 1.03796 0.43665 0.70937 0.0
C240 C 0.98977 0.39958 0.1102 0.0
C241 C 0.92815 0.35851 0.11188 0.0
C242 C 0.9471 0.35753 0.00795 0.0
C243 C 0.97739 0.37845 1.0069 0.0
C244 C 0.97485 0.39645 0.21523 0.0
C245 C 0.94432 0.37611 0.21636 0.0
C246 C 1.01332 0.42868 0.10994 0.0
C247 C 0.96365 0.49054 0.81951 0.0
H248 H 0.14307 0.64027 0.84442 0.0
H249 H 0.08973 0.60443 0.85202 0.0
H250 H 0.10058 0.56095 0.48649 0.0
H251 H 0.1536 0.59547 0.47829 0.0
H252 H 0.937 0.34291 0.92645 0.0
H253 H 0.98938 0.37989 0.92499 0.0
H254 H 0.98456 0.41219 0.29602 0.0
H255 H 0.93117 0.37748 0.29895 0.0
C256 C 0.16949 0.97078 0.4795 0.0
C257 C 0.18489 1.0025 0.47394 0.0
C258 C 0.13982 0.03179 0.61988 0.0
C259 C 0.12386 1.00022 0.62547 0.0
N260 N 0.11852 0.94024 0.54033 0.0
N261 N 0.1769 0.063 0.51079 0.0
C262 C 0.13719 0.96986 0.54873 0.0
C263 C 0.16733 0.03287 0.53498 0.0
N264 N 0.18653 0.94151 0.42194 0.0
N265 N 0.13089 0.06061 0.70113 0.0
H266 H 0.1958 0.0642 0.44602 0.0
H267 H 0.16303 0.08583 0.54429 0.0
H268 H 0.11275 0.06081 0.76892 0.0
H269 H 0.14441 0.0836 0.70876 0.0
H270 H 0.17967 0.91748 0.43229 0.0
H271 H 0.20886 0.94158 0.36695 0.0
H272 H 0.12483 0.91777 0.48028 0.0
H273 H 0.09458 0.93885 0.58716 0.0
C274 C 0.51893 0.14654 0.74497 0.0
C275 C 0.55298 0.15565 0.70266 0.0
C276 C 0.58129 0.10312 0.73704 0.0
C277 C 0.54797 0.09524 0.78746 0.0
N278 N 0.48642 0.11186 0.85329 0.0
N279 N 0.61765 0.14443 0.66837 0.0
C280 C 0.51717 0.11765 0.79517 0.0
C281 C 0.58439 0.13435 0.70139 0.0
N282 N 0.48817 0.16558 0.73775 0.0
N283 N 0.61018 0.08064 0.7227 0.0
H284 H 0.62064 0.16525 0.63163 0.0
H285 H 0.64257 0.13315 0.68193 0.0
H286 H 0.61058 0.05924 0.75707 0.0
H287 H 0.63319 0.08226 0.67231 0.0
H288 H 0.46172 0.15818 0.75339 0.0
H289 H 0.48863 0.18782 0.70798 0.0
H290 H 0.46448 0.1289 0.87356 0.0
H291 H 0.48386 0.09095 0.88942 0.0
C292 C 0.38978 0.49111 0.56918 0.0
C293 C 0.39627 0.50843 0.47977 0.0
C294 C 0.45922 0.52073 0.55383 0.0
C295 C 0.45397 0.50114 0.63763 0.0
N296 N 0.4163 0.4606 0.70344 0.0
N297 N 0.44097 0.53095 0.36913 0.0
C298 C 0.41984 0.48417 0.63875 0.0
C299 C 0.43229 0.52023 0.46644 0.0
N300 N 0.3548 0.4829 0.59294 0.0
N301 N 0.48866 0.54188 0.56163 0.0
H302 H 0.42232 0.53013 0.30204 0.0
H303 H 0.46765 0.53693 0.34953 0.0
H304 H 0.50763 0.54542 0.62864 0.0
H305 H 0.49181 0.55908 0.50945 0.0
H306 H 0.34804 0.47391 0.66543 0.0
H307 H 0.33208 0.48766 0.54596 0.0
H308 H 0.39342 0.44508 0.69901 0.0
H309 H 0.43776 0.45406 0.75221 0.0
C310 C 0.0611 0.3709 0.43046 0.0
C311 C 1.02886 0.35079 0.41696 0.0
C312 C 1.00451 0.38502 0.60028 0.0
C313 C 1.03583 0.40619 0.61146 0.0
N314 N 0.09245 0.42182 0.53352 0.0
N315 N 0.96659 0.34296 0.47676 0.0
C316 C 0.06371 0.39984 0.52526 0.0
C317 C 0.99955 0.35921 0.49787 0.0
N318 N 0.08908 0.36247 0.3519 0.0
N319 N 0.97974 0.38895 0.68889 0.0
H320 H 0.96173 0.32271 0.40671 0.0
H321 H 0.94281 0.35131 0.52398 0.0
H322 H 0.98179 0.40779 0.76447 0.0
H323 H 0.95893 0.37174 0.69236 0.0
H324 H 0.11509 0.37312 0.36344 0.0
H325 H 0.08673 0.3438 0.27548 0.0
H326 H 0.11149 0.42129 0.46786 0.0
H327 H 0.09647 0.44195 0.60496 0.0
C328 C 0.92902 0.0281 0.30227 0.0
C329 C 0.89825 0.00606 0.28047 0.0
C330 C 0.93345 0.97062 0.11671 0.0
C331 C 0.96117 0.99594 0.12817 0.0
N332 N 0.98022 0.05271 0.22195 0.0
N333 N 0.87019 0.95747 0.15475 0.0
C334 C 0.95773 0.02561 0.21889 0.0
C335 C 0.90031 0.97732 0.18505 0.0
N336 N 0.93102 0.05166 0.40449 0.0
N337 N 0.93904 0.93982 0.04187 0.0
H338 H 0.84574 0.96133 0.20154 0.0
H339 H 0.86859 0.93873 0.07836 0.0
H340 H 0.96303 0.93385 0.99297 0.0
H341 H 0.9217 0.91921 0.03698 0.0
H342 H 0.95382 0.06691 0.42822 0.0
H343 H 0.91166 0.05324 0.47013 0.0
H344 H 0.97595 0.07646 0.27755 0.0
H345 H 1.00073 0.05294 0.16115 0.0
C346 C 0.55009 0.87241 0.11466 0.0
C347 C 0.5502 0.84068 0.03223 0.0
C348 C 0.55067 0.87225 0.87768 0.0
C349 C 0.54498 0.90357 0.95995 0.0
N350 N 0.52787 0.9304 0.15746 0.0
N351 N 0.54081 0.81155 0.83228 0.0
C352 C 0.54118 0.90275 0.07862 0.0
C353 C 0.5475 0.84094 0.91284 0.0
N354 N 0.56079 0.87445 0.22588 0.0
N355 N 0.56108 0.872 0.76724 0.0
H356 H 0.53627 0.78832 0.85335 0.0
H357 H 0.53545 0.81111 0.74594 0.0
H358 H 0.56638 0.89404 0.73926 0.0
H359 H 0.56876 0.8498 0.70754 0.0
H360 H 0.56375 0.89761 0.28575 0.0
H361 H 0.5717 0.85393 0.25397 0.0
H362 H 0.52183 0.92972 0.24254 0.0
H363 H 0.51849 0.95239 0.13509 0.0
C364 C 0.69122 0.50282 0.17767 0.0
C365 C 0.68465 0.48396 0.26272 0.0
C366 C 0.62107 0.47444 0.19201 0.0
C367 C 0.62648 0.49537 0.11226 0.0
N368 N 0.66502 0.53638 0.05221 0.0
N369 N 0.63986 0.46097 0.37153 0.0
C370 C 0.66107 0.51166 0.11207 0.0
C371 C 0.64839 0.47293 0.27655 0.0
N372 N 0.72632 0.51081 0.15443 0.0
N373 N 0.59117 0.45379 0.18246 0.0
H374 H 0.65894 0.46016 0.43622 0.0
H375 H 0.61306 0.45564 0.39217 0.0
H376 H 0.57192 0.45145 0.1166 0.0
H377 H 0.58788 0.43578 0.2315 0.0
H378 H 0.73314 0.52092 0.08438 0.0
H379 H 0.749 0.50493 0.19957 0.0
H380 H 0.68834 0.55139 0.05785 0.0
H381 H 0.64356 0.54432 1.00662 0.0
C382 C 1.01343 0.63971 0.19767 0.0
C383 C 1.02398 0.64048 0.31299 0.0
C384 C 1.02813 0.57818 0.26737 0.0
C385 C 1.01987 0.57761 0.15032 0.0
N386 N 0.99335 0.60591 0.01249 0.0
N387 N 1.03045 0.61138 0.466 0.0
C388 C 1.0089 0.60785 0.11829 0.0
C389 C 1.02759 0.60987 0.35051 0.0
N390 N 1.00954 0.66929 0.16205 0.0
N391 N 1.03859 0.54891 0.29779 0.0
H392 H 1.03026 0.63439 0.52791 0.0
H393 H 1.02926 0.59018 0.50122 0.0
H394 H 0.04046 0.5254 0.23934 0.0
H395 H 0.0472 0.5479 0.38005 0.0
H396 H 1.00754 0.67031 0.07571 0.0
H397 H 1.00954 0.69311 0.21858 0.0
H398 H 0.98142 0.62657 0.98764 0.0
H399 H 0.98911 0.58284 0.95336 0.0
C400 C 0.947 0.1904 0.42114 0.0
C401 C 0.97694 0.21115 0.46765 0.0
C402 C 0.97098 0.19194 0.64649 0.0
C403 C 0.95012 0.16424 0.58608 0.0
N404 N 0.91386 0.13864 0.41978 0.0
N405 N 1.01558 0.23459 0.63112 0.0
C406 C 0.93574 0.16447 0.47573 0.0
C407 C 0.98757 0.21374 0.58396 0.0
N408 N 0.93111 0.19453 0.32154 0.0
N409 N 0.97567 0.1964 0.76258 0.0
H410 H 1.02797 0.25141 0.58898 0.0
H411 H 1.02751 0.23416 0.71023 0.0
H412 H 0.96327 0.18033 0.80822 0.0
H413 H 0.98835 0.21759 0.81391 0.0
H414 H 0.90766 0.18169 0.28606 0.0
H415 H 0.93979 0.21339 0.28095 0.0
H416 H 0.90641 0.13508 0.33343 0.0
H417 H 0.90411 0.11999 0.45917 0.0
C418 C 0.32413 0.0849 0.53842 0.0
C419 C 0.32401 0.09344 0.4307 0.0
C420 C 0.39035 0.09594 0.43566 0.0
C421 C 0.38903 0.07216 0.50661 0.0
N422 N 0.35532 0.05 0.64855 0.0
N423 N 0.35391 0.13211 0.33827 0.0
C424 C 0.35628 0.06919 0.56848 0.0
C425 C 0.35631 0.10918 0.40522 0.0
N426 N 0.29362 0.09041 0.60642 0.0
N427 N 0.42304 0.1035 0.39212 0.0
H428 H 0.32828 0.13913 0.31121 0.0
H429 H 0.3764 0.14493 0.31572 0.0
H430 H 0.44796 0.09403 0.41545 0.0
H431 H 0.42534 0.11875 0.33319 0.0
H432 H 0.29288 0.08572 0.68885 0.0
H433 H 0.27048 0.10249 0.58202 0.0
H434 H 0.33088 0.04456 0.68591 0.0
H435 H 0.37871 0.03844 0.67329 0.0
C436 C 0.59748 0.34426 0.69654 0.0
C437 C 0.56607 0.32516 0.71047 0.0
C438 C 0.53123 0.37701 0.78643 0.0
C439 C 0.56249 0.39669 0.77354 0.0
N440 N 0.62811 0.39878 0.74641 0.0
N441 N 0.50887 0.32284 0.80889 0.0
C442 C 0.59666 0.38027 0.73822 0.0
C443 C 0.53529 0.34153 0.77175 0.0
N444 N 0.62724 0.32793 0.63833 0.0
N445 N 0.49698 0.39159 0.80228 0.0
H446 H 0.51129 0.29657 0.79769 0.0
H447 H 0.48702 0.33385 0.86163 0.0
H448 H 0.49182 0.41687 0.80075 0.0
H449 H 0.47308 0.37762 0.80226 0.0
H450 H 0.64942 0.34054 0.61273 0.0
H451 H 0.6287 0.30144 0.61213 0.0
H452 H 0.65414 0.38775 0.73071 0.0
H453 H 0.62844 0.42505 0.7789 0.0
C454 C 0.23729 0.58633 0.62777 0.0
C455 C 0.24223 0.5908 0.51356 0.0
C456 C 0.20335 0.64185 0.56057 0.0
C457 C 0.19207 0.63143 0.66017 0.0
N458 N 0.21782 0.61391 0.82209 0.0
N459 N 0.24187 0.62973 0.38792 0.0
C460 C 0.21658 0.61111 0.70612 0.0
C461 C 0.22975 0.62144 0.4862 0.0
N462 N 0.24884 0.55752 0.65889 0.0
N463 N 0.1847 0.66791 0.53105 0.0
H464 H 0.23471 0.65217 0.36461 0.0
H465 H 0.26133 0.61483 0.33372 0.0
H466 H 0.16464 0.68161 0.58622 0.0
H467 H 0.18851 0.67536 0.45394 0.0
H468 H 0.2422 0.55251 0.73848 0.0
H469 H 0.26239 0.53746 0.60325 0.0
H470 H 0.23697 0.60064 0.86014 0.0
H471 H 0.20268 0.63261 0.87911 0.0
C472 C 0.0742 0.79083 0.17532 0.0
C473 C 0.09048 0.78292 0.27377 0.0
C474 C 0.14041 0.82242 0.26982 0.0
C475 C 0.121 0.83416 0.18357 0.0
N476 N 0.077 0.82384 0.02909 0.0
N477 N 0.14396 0.78103 0.38886 0.0
C478 C 0.09065 0.81595 0.12659 0.0
C479 C 0.12578 0.79497 0.31063 0.0
N480 N 0.04155 0.77634 0.13551 0.0
N481 N 0.17119 0.83902 0.31733 0.0
H482 H 0.13283 0.761 0.41902 0.0
H483 H 0.17067 0.7872 0.41638 0.0
H484 H 0.18289 0.85851 0.28575 0.0
H485 H 0.18462 0.83419 0.38899 0.0
H486 H 1.02572 0.78361 0.07252 0.0
H487 H 1.0299 0.757 0.1679 0.0
H488 H 0.05637 0.81031 0.97851 0.0
H489 H 0.08841 0.84275 0.99389 0.0
C490 C 0.7289 0.11853 0.48065 0.0
C491 C 0.739 0.08829 0.39781 0.0
C492 C 0.71136 0.11284 0.24963 0.0
C493 C 0.68913 0.13314 0.33594 0.0
N494 N 0.68993 0.16865 0.52664 0.0
N495 N 0.74106 0.05798 0.19534 0.0
C496 C 0.70377 0.14145 0.44815 0.0
C497 C 0.73176 0.08615 0.27876 0.0
N498 N 0.74108 0.125 0.59147 0.0
N499 N 0.7109 0.11781 0.14053 0.0
H500 H 0.754 0.03665 0.21245 0.0
H501 H 0.73315 0.05485 0.10947 0.0
H502 H 0.69643 0.13818 0.12133 0.0
H503 H 0.72798 0.10432 0.07494 0.0
H504 H 0.75983 0.10936 0.62138 0.0
H505 H 0.75983 0.10936 0.62138 0.0
H506 H 0.69855 0.17487 0.61254 0.0
H507 H 0.67019 0.18462 0.5026 0.0
C508 C 0.55054 0.65856 0.99617 0.0
C509 C 0.51869 0.67609 0.04627 0.0
C510 C 0.48581 0.62184 0.01359 0.0
C511 C 0.5198 0.6043 0.98532 0.0
N512 N 0.58617 0.60797 0.96227 0.0
N513 N 0.45531 0.67552 0.10095 0.0
C514 C 0.55231 0.62301 0.97826 0.0
C515 C 0.48582 0.65801 0.05226 0.0
N516 N 0.58078 0.67615 0.97658 0.0
N517 N 0.45374 0.60415 1.00123 0.0
H518 H 0.45459 0.70206 0.12461 0.0
H519 H 0.43162 0.66391 0.1214 0.0
H520 H 0.45291 0.57776 0.97257 0.0
H521 H 0.4279 0.61576 0.01063 0.0
H522 H 0.60519 0.66406 0.94259 0.0
H523 H 0.5805 0.70253 0.98846 0.0
H524 H 0.59132 0.58234 0.95883 0.0
H525 H 0.59132 0.58234 0.95883 0.0
C526 C 0.84804 0.36489 0.28019 0.0
C527 C 0.83754 0.39519 0.24637 0.0
C528 C 0.86582 0.37152 0.05932 0.0
C529 C 0.88805 0.35081 0.11191 0.0
N530 N 0.88882 0.31606 0.24906 0.0
N531 N 0.83599 0.42628 0.094 0.0
C532 C 0.87394 0.3426 0.21208 0.0
C533 C 0.84521 0.3979 0.13158 0.0
N534 N 0.83563 0.35789 0.37981 0.0
N535 N 0.86517 0.36643 0.94234 0.0
H536 H 0.82244 0.44725 0.14494 0.0
H537 H 0.84459 0.42987 0.01413 0.0
H538 H 0.87848 0.34558 0.88936 0.0
H539 H 0.84769 0.38007 0.89998 0.0
H540 H 0.81633 0.37303 0.43394 0.0
H541 H 0.81633 0.37303 0.43394 0.0
H542 H 0.88065 0.31001 0.32591 0.0
H543 H 0.90905 0.30049 0.20053 0.0
C544 C 0.08285 0.14317 0.20136 0.0
C545 C 0.0644 0.16723 0.15181 0.0
C546 C 0.05716 0.12355 0.97239 0.0
C547 C 0.06754 0.09824 0.03161 0.0
N548 N 0.08792 0.08411 0.20851 0.0
N549 N 1.03392 0.18073 0.98844 0.0
C550 C 0.08067 0.10803 0.14698 0.0
C551 C 0.0523 0.15775 0.03577 0.0
N552 N 0.10124 0.1541 0.3029 0.0
N553 N 0.05197 0.11485 0.8556 0.0
H554 H 1.03049 0.2062 0.03058 0.0
H555 H 1.02045 0.17404 0.90962 0.0
H556 H 0.0553 0.09002 0.80677 0.0
H557 H 0.04793 0.13259 0.80581 0.0
H558 H 0.11781 0.13824 0.33929 0.0
H559 H 0.10276 0.17985 0.34392 0.0
H560 H 0.09359 0.09019 0.29662 0.0
H561 H 0.08507 0.05811 0.17501 0.0
C562 C 0.38317 0.97994 0.10792 0.0
C563 C 0.35636 1.00344 0.08626 0.0
C564 C 0.40172 0.02456 0.96501 0.0
C565 C 0.42918 1.00158 0.98856 0.0
N566 N 0.44035 0.94929 0.04816 0.0
N567 N 0.33671 0.03952 0.96414 0.0
C568 C 0.41813 0.97679 0.0497 0.0
C569 C 0.36462 0.02247 1.00333 0.0
N570 N 0.37589 0.96145 0.18751 0.0
N571 N 0.41116 0.05012 0.91358 0.0
H572 H 0.30959 0.03823 0.99147 0.0
H573 H 0.33971 0.05186 0.89718 0.0
H574 H 0.43767 0.05373 0.88717 0.0
H575 H 0.39333 0.0698 0.90639 0.0
H576 H 0.3957 0.94701 0.21803 0.0
H577 H 0.35042 0.96218 0.22808 0.0
H578 H 0.43276 0.92899 0.08285 0.0
H579 H 0.46455 0.94478 0.99987 0.0
C580 C 0.47439 0.29991 0.36364 0.0
C581 C 0.50931 0.28407 0.33955 0.0
C582 C 0.5203 0.31759 0.19487 0.0
C583 C 0.48921 0.33826 0.2375 0.0
N584 N 0.43511 0.34845 0.35788 0.0
N585 N 0.56419 0.27462 0.22497 0.0
C586 C 0.46531 0.32876 0.31882 0.0
C587 C 0.53139 0.29137 0.25034 0.0
N588 N 0.45064 0.28786 0.43311 0.0
N589 N 0.53929 0.32339 0.10238 0.0
H590 H 0.57173 0.25448 0.26159 0.0
H591 H 0.58408 0.28105 0.17116 0.0
H592 H 0.532 0.34268 0.06157 0.0
H593 H 0.56041 0.30771 0.06061 0.0
H594 H 0.42365 0.29638 0.44899 0.0
H595 H 0.45725 0.2669 0.46656 0.0
H596 H 0.41876 0.34538 0.42639 0.0
H597 H 0.42726 0.36921 0.32507 0.0
C598 C 0.18935 0.47872 0.15039 0.0
C599 C 0.21214 0.50701 0.1497 0.0
C600 C 0.16781 0.52581 0.01846 0.0
C601 C 0.14528 0.49708 0.01721 0.0
N602 N 0.14104 0.44134 0.05591 0.0
N603 N 0.22772 0.55213 0.0587 0.0
C604 C 0.15815 0.47205 0.07515 0.0
C605 C 0.20286 0.5286 0.07492 0.0
N606 N 0.19634 0.45908 0.22704 0.0
N607 N 0.15489 0.55178 0.97329 0.0
H608 H 0.25342 0.55464 0.09839 0.0
H609 H 0.22442 0.56656 0.99755 0.0
H610 H 0.12926 0.55161 0.93459 0.0
H611 H 0.1682 0.57494 0.98315 0.0
H612 H 0.17823 0.44082 0.24228 0.0
H613 H 0.21918 0.46259 0.28107 0.0
H614 H 0.15094 0.42093 0.08692 0.0
H615 H 0.11924 0.43506 0.99834 0.0
C616 C 0.05147 0.8365 0.70544 0.0
C617 C 1.0216 0.82487 0.63176 0.0
C618 C 0.9922 0.88102 0.69311 0.0
C619 C 1.02567 0.8943 0.74576 0.0
N620 N 0.08973 0.8845 0.78508 0.0
N621 N 0.96309 0.83548 0.55322 0.0
C622 C 0.05587 0.87192 0.74959 0.0
C623 C 0.99148 0.84684 0.62633 0.0
N624 N 0.07674 0.81358 0.72691 0.0
N625 N 0.96107 0.9007 0.70881 0.0
H626 H 0.96131 0.81019 0.50741 0.0
H627 H 0.94245 0.85135 0.53439 0.0
H628 H 0.9604 0.92543 0.75999 0.0
H629 H 0.93527 0.89141 0.68065 0.0
H630 H 0.0982 0.82008 0.78537 0.0
H631 H 0.07388 0.78745 0.69407 0.0
H632 H 0.11327 0.86938 0.7798 0.0
H633 H 0.09552 0.91034 0.80685 0.0
C634 C 0.6885 0.97492 0.57041 0.0
C635 C 0.71414 1.00063 0.61777 0.0
C636 C 0.6779 0.01328 0.80048 0.0
C637 C 0.65021 0.98965 0.74852 0.0
N638 N 0.64226 0.93632 0.60906 0.0
N639 N 0.73746 0.03956 0.78541 0.0
C640 C 0.65932 0.96697 0.64069 0.0
C641 C 0.70999 0.01835 0.73542 0.0
N642 N 0.69117 0.95862 0.45657 0.0
N643 N 0.67428 0.03011 0.91348 0.0
H644 H 0.76121 0.04308 0.74057 0.0
H645 H 0.73823 0.05213 0.87209 0.0
H646 H 0.65833 0.02079 0.97172 0.0
H647 H 0.68835 0.05212 0.95124 0.0
H648 H 0.67073 0.94279 0.41325 0.0
H649 H 0.71275 0.96269 0.4038 0.0
H650 H 0.64943 0.91785 0.53542 0.0
H651 H 0.62547 0.92711 0.66559 0.0
C652 C 0.60517 0.70313 0.40345 0.0
C653 C 0.5698 0.71857 0.42408 0.0
C654 C 0.55632 0.68342 0.5615 0.0
C655 C 0.5892 0.66457 0.5281 0.0
N656 N 0.64917 0.66111 0.44078 0.0
N657 N 0.51487 0.72794 0.54132 0.0
C658 C 0.61521 0.6762 0.45729 0.0
C659 C 0.547 0.71074 0.51064 0.0
N660 N 0.62777 0.71267 0.32515 0.0
N661 N 0.53316 0.67478 0.64003 0.0
H662 H 0.50638 0.74845 0.50796 0.0
H663 H 0.50638 0.74845 0.50796 0.0
H664 H 0.539 0.6551 0.68068 0.0
H665 H 0.50852 0.68781 0.66549 0.0
H666 H 0.65231 0.70047 0.29464 0.0
H667 H 0.62137 0.73317 0.2891 0.0
H668 H 0.67056 0.66938 0.39663 0.0
H669 H 0.65686 0.64109 0.47763 0.0
C670 C 0.88485 0.50824 0.62679 0.0
C671 C 0.86287 0.47886 0.61404 0.0
C672 C 0.90053 0.46101 0.76398 0.0
C673 C 0.92446 0.48928 0.76975 0.0
N674 N 0.92452 0.54773 0.75375 0.0
N675 N 0.84351 0.43238 0.69304 0.0
C676 C 0.91218 0.51533 0.7152 0.0
C677 C 0.86894 0.45679 0.68966 0.0
N678 N 0.88076 0.52895 0.55203 0.0
N679 N 0.90714 0.43842 0.83078 0.0
H680 H 0.81988 0.4293 0.64224 0.0
H681 H 0.84388 0.41713 0.75232 0.0
H682 H 0.92154 0.4448 0.90809 0.0
H683 H 0.89663 0.41392 0.81273 0.0
H684 H 0.89894 0.54849 0.5491 0.0
H685 H 0.86085 0.52504 0.48751 0.0
H686 H 0.91464 0.56817 0.72277 0.0
H687 H 0.94002 0.55499 0.82885 0.0
loop_
_geom_bond_atom_site_label_1
_geom_bond_atom_site_label_2
_geom_bond_distance
_geom_bond_site_symmetry_2
_ccdc_geom_bond_type
H0 C5 0.930 . S
H1 C8 0.930 . S
H2 C10 0.930 . S
H3 C4 1.016 . S
C4 H3 1.016 . S
C4 N11 1.286 . S
C5 H0 0.930 . S
C5 C6 1.397 . S
C5 C7 1.361 . S
C6 C5 1.397 . S
C6 C10 1.390 . S
C7 C5 1.361 . S
C7 C8 1.393 . S
C7 N11 1.413 . S
C8 H1 0.930 . S
C8 C7 1.393 . S
C8 C9 1.399 . S
C9 C8 1.399 . S
C9 C10 1.381 . S
C10 H2 0.930 . S
C10 C6 1.390 . S
C10 C9 1.381 . S
N11 C4 1.286 . S
N11 C7 1.413 . S
H12 C17 0.930 . S
H13 C20 0.930 . S
H14 C22 0.930 . S
H15 C16 1.016 . S
C16 H15 1.016 . S
C16 N23 1.286 1_655 S
C17 H12 0.930 . S
C17 C18 1.397 . S
C17 C19 1.361 . S
C18 C17 1.397 . S
C18 C22 1.390 1_455 S
C19 C17 1.361 . S
C19 C20 1.393 . S
C19 N23 1.413 . S
C20 H13 0.930 . S
C20 C19 1.393 . S
C20 C21 1.403 . S
C21 C20 1.403 . S
C21 C22 1.379 1_455 S
C22 H14 0.930 . S
C22 C18 1.390 1_655 S
C22 C21 1.379 1_655 S
N23 C16 1.286 1_455 S
N23 C19 1.413 . S
H24 C29 0.930 . S
H25 C32 0.930 . S
H26 C34 0.930 . S
H27 C28 1.016 . S
C28 H27 1.016 . S
C28 N35 1.286 1_565 S
C29 H24 0.930 . S
C29 C30 1.397 . S
C29 C31 1.361 . S
C30 C29 1.397 . S
C30 C34 1.390 1_545 S
C31 C29 1.361 . S
C31 C32 1.393 . S
C31 N35 1.413 . S
C32 H25 0.930 . S
C32 C31 1.393 . S
C32 C33 1.404 . S
C33 C32 1.404 . S
C33 C34 1.372 1_545 S
C34 H26 0.930 . S
C34 C30 1.390 1_565 S
C34 C33 1.372 1_565 S
N35 C28 1.286 1_545 S
N35 C31 1.413 . S
H36 C41 0.930 . S
H37 C44 0.930 . S
H38 C46 0.930 . S
H39 C40 1.016 . S
C40 H39 1.016 . S
C40 N47 1.286 1_556 S
C41 H36 0.930 . S
C41 C42 1.397 . S
C41 C43 1.361 . S
C42 C41 1.397 . S
C42 C46 1.390 . S
C43 C41 1.361 . S
C43 C44 1.393 1_554 S
C43 N47 1.413 . S
C44 H37 0.930 . S
C44 C43 1.393 1_556 S
C44 C45 1.399 . S
C45 C44 1.399 . S
C45 C46 1.381 1_556 S
C46 H38 0.930 . S
C46 C42 1.390 . S
C46 C45 1.381 1_554 S
N47 C40 1.286 1_554 S
N47 C43 1.413 . S
H48 C53 0.930 1_556 S
H49 C56 0.930 . S
H50 C58 0.930 . S
H51 C52 1.016 . S
C52 H51 1.016 . S
C52 N59 1.286 . S
C53 H48 0.930 1_554 S
C53 C54 1.397 . S
C53 C55 1.361 . S
C54 C53 1.397 . S
C54 C58 1.390 . S
C55 C53 1.361 . S
C55 C56 1.393 . S
C55 N59 1.413 . S
C56 H49 0.930 . S
C56 C55 1.393 . S
C56 C57 1.399 . S
C57 C56 1.399 . S
C57 C58 1.381 . S
C58 H50 0.930 . S
C58 C54 1.390 . S
C58 C57 1.381 . S
N59 C52 1.286 . S
N59 C55 1.413 . S
H60 C65 0.930 . S
H61 C68 0.930 . S
H62 C70 0.930 . S
H63 C64 1.027 . S
C64 H63 1.027 . S
C64 N71 1.272 1_655 S
C65 H60 0.930 . S
C65 C66 1.397 . S
C65 C67 1.361 . S
C66 C65 1.397 . S
C66 C70 1.390 1_455 S
C67 C65 1.361 . S
C67 C68 1.393 . S
C67 N71 1.413 . S
C68 H61 0.930 . S
C68 C67 1.393 . S
C68 C69 1.404 . S
C69 C68 1.404 . S
C69 C70 1.378 1_455 S
C70 H62 0.930 . S
C70 C66 1.390 1_655 S
C70 C69 1.378 1_655 S
N71 C64 1.272 1_455 S
N71 C67 1.413 . S
H72 C77 0.930 . S
H73 C80 0.930 . S
H74 C82 0.930 . S
H75 C76 1.035 . S
C76 H75 1.035 . S
C76 N83 1.265 1_565 S
C77 H72 0.930 . S
C77 C78 1.397 . S
C77 C79 1.361 . S
C78 C77 1.397 . S
C78 C82 1.390 1_545 S
C79 C77 1.361 . S
C79 C80 1.393 . S
C79 N83 1.413 . S
C80 H73 0.930 . S
C80 C79 1.393 . S
C80 C81 1.403 . S
C81 C80 1.403 . S
C81 C82 1.386 1_545 S
C82 H74 0.930 . S
C82 C78 1.390 1_565 S
C82 C81 1.386 1_565 S
N83 C76 1.265 1_545 S
N83 C79 1.413 . S
H84 C89 0.930 . S
H85 C92 0.930 . S
H86 C94 0.930 . S
H87 C88 1.016 . S
C88 H87 1.016 . S
C88 N95 1.286 . S
C89 H84 0.930 . S
C89 C90 1.397 . S
C89 C91 1.361 . S
C90 C89 1.397 . S
C90 C94 1.390 . S
C91 C89 1.361 . S
C91 C92 1.393 . S
C91 N95 1.413 . S
C92 H85 0.930 . S
C92 C91 1.393 . S
C92 C93 1.399 . S
C93 C92 1.399 . S
C93 C94 1.381 . S
C94 H86 0.930 . S
C94 C90 1.390 . S
C94 C93 1.381 . S
N95 C88 1.286 . S
N95 C91 1.413 . S
Tb96 C105 2.764 . S
Tb96 O106 2.325 . S
Tb96 O109 2.303 1_655 S
Tb96 O113 2.322 1_545 S
Tb96 O114 2.349 . S
Tb96 O117 2.415 . S
Tb96 O118 2.399 . S
Tb97 O107 2.322 1_566 S
Tb97 O108 2.349 . S
Tb97 O110 2.415 1_556 S
Tb97 O111 2.399 1_556 S
Tb97 O112 2.325 . S
Tb97 O115 2.303 1_455 S
Tb97 C126 2.764 1_556 S
C98 O114 1.261 . S
C98 O115 1.257 1_545 S
C99 C102 1.358 . S
C99 C103 1.332 . S
C99 C105 1.504 . S
C100 C101 1.373 . S
C100 C104 1.308 . S
C101 C100 1.373 . S
C101 C102 1.429 . S
C101 H128 0.932 . S
C102 C99 1.358 . S
C102 C101 1.429 . S
C102 H129 0.930 . S
C103 C99 1.332 . S
C103 C104 1.394 . S
C103 H130 0.932 1_655 S
C104 C100 1.308 . S
C104 C103 1.394 . S
C104 H131 0.929 . S
C105 Tb96 2.764 . S
C105 C99 1.504 . S
C105 O117 1.239 . S
C105 O118 1.263 . S
O106 Tb96 2.325 . S
O106 C116 1.236 1_655 S
O107 Tb97 2.322 1_544 S
O107 C116 1.257 1_554 S
O108 Tb97 2.349 . S
O108 C119 1.261 . S
O109 Tb96 2.303 1_455 S
O109 C119 1.257 1_545 S
O110 Tb97 2.415 1_554 S
O110 C126 1.239 . S
O111 Tb97 2.399 1_554 S
O111 C126 1.263 . S
O112 Tb97 2.325 . S
O112 C127 1.236 1_455 S
O113 Tb96 2.322 1_565 S
O113 C127 1.257 . S
O114 Tb96 2.349 . S
O114 C98 1.261 . S
O115 Tb97 2.303 1_655 S
O115 C98 1.257 1_565 S
C116 O106 1.236 1_455 S
C116 O107 1.257 1_556 S
O117 Tb96 2.415 . S
O117 C105 1.239 . S
O118 Tb96 2.399 . S
O118 C105 1.263 . S
C119 O108 1.261 . S
C119 O109 1.257 1_565 S
C120 C123 1.358 . S
C120 C124 1.332 . S
C120 C126 1.504 . S
C121 C122 1.373 . S
C121 C125 1.308 . S
C122 C121 1.373 . S
C122 C123 1.429 . S
C122 H132 0.932 . S
C123 C120 1.358 . S
C123 C122 1.429 . S
C123 H133 0.930 . S
C124 C120 1.332 . S
C124 C125 1.394 . S
C124 H134 0.932 1_455 S
C125 C121 1.308 . S
C125 C124 1.394 . S
C125 H135 0.929 . S
C126 Tb97 2.764 1_554 S
C126 O110 1.239 . S
C126 O111 1.263 . S
C126 C120 1.504 . S
C127 O112 1.236 1_655 S
C127 O113 1.257 . S
H128 C101 0.932 . S
H129 C102 0.930 . S
H130 C103 0.932 1_455 S
H131 C104 0.929 . S
H132 C122 0.932 . S
H133 C123 0.930 . S
H134 C124 0.932 1_655 S
H135 C125 0.929 . S
Tb136 C145 2.764 . S
Tb136 O146 2.325 . S
Tb136 O149 2.303 1_565 S
Tb136 O153 2.322 . S
Tb136 O154 2.349 . S
Tb136 O157 2.415 1_565 S
Tb136 O158 2.399 . S
Tb137 O147 2.322 . S
Tb137 O148 2.349 1_554 S
Tb137 O150 2.415 1_545 S
Tb137 O151 2.399 . S
Tb137 O152 2.325 1_554 S
Tb137 O155 2.303 1_544 S
Tb137 C166 2.764 . S
C138 O154 1.261 . S
C138 O155 1.257 . S
C139 C142 1.358 . S
C139 C143 1.332 1_565 S
C139 C145 1.504 . S
C140 C141 1.373 . S
C140 C144 1.308 1_565 S
C141 C140 1.373 . S
C141 C142 1.429 . S
C141 H168 0.932 . S
C142 C139 1.358 . S
C142 C141 1.429 . S
C142 H169 0.930 . S
C143 C139 1.332 1_545 S
C143 C144 1.394 . S
C143 H170 0.932 . S
C144 C140 1.308 1_545 S
C144 C143 1.394 . S
C144 H171 0.929 . S
C145 Tb136 2.764 . S
C145 C139 1.504 . S
C145 O157 1.239 1_565 S
C145 O158 1.263 . S
O146 Tb136 2.325 . S
O146 C156 1.236 1_565 S
O147 Tb137 2.322 . S
O147 C156 1.257 1_554 S
O148 Tb137 2.349 1_556 S
O148 C159 1.261 . S
O149 Tb136 2.303 1_545 S
O149 C159 1.257 . S
O150 Tb137 2.415 1_565 S
O150 C166 1.239 1_565 S
O151 Tb137 2.399 . S
O151 C166 1.263 . S
O152 Tb137 2.325 1_556 S
O152 C167 1.236 1_545 S
O153 Tb136 2.322 . S
O153 C167 1.257 . S
O154 Tb136 2.349 . S
O154 C138 1.261 . S
O155 Tb137 2.303 1_566 S
O155 C138 1.257 . S
C156 O146 1.236 1_545 S
C156 O147 1.257 1_556 S
O157 Tb136 2.415 1_545 S
O157 C145 1.239 1_545 S
O158 Tb136 2.399 . S
O158 C145 1.263 . S
C159 O148 1.261 . S
C159 O149 1.257 . S
C160 C163 1.358 . S
C160 C164 1.332 1_545 S
C160 C166 1.504 . S
C161 C162 1.373 . S
C161 C165 1.308 1_545 S
C162 C161 1.373 . S
C162 C163 1.429 . S
C162 H172 0.932 . S
C163 C160 1.358 . S
C163 C162 1.429 . S
C163 H173 0.930 . S
C164 C160 1.332 1_565 S
C164 C165 1.394 . S
C164 H174 0.932 . S
C165 C161 1.308 1_565 S
C165 C164 1.394 . S
C165 H175 0.929 . S
C166 Tb137 2.764 . S
C166 O150 1.239 1_545 S
C166 O151 1.263 . S
C166 C160 1.504 . S
C167 O152 1.236 1_565 S
C167 O153 1.257 . S
H168 C141 0.932 . S
H169 C142 0.930 . S
H170 C143 0.932 . S
H171 C144 0.929 . S
H172 C162 0.932 . S
H173 C163 0.930 . S
H174 C164 0.932 . S
H175 C165 0.929 . S
Tb176 C185 2.764 . S
Tb176 O186 2.325 1_554 S
Tb176 O189 2.303 1_554 S
Tb176 O193 2.322 1_554 S
Tb176 O194 2.349 1_554 S
Tb176 O197 2.415 . S
Tb176 O198 2.399 . S
Tb177 O187 2.322 . S
Tb177 O188 2.349 . S
Tb177 O190 2.415 . S
Tb177 O191 2.399 . S
Tb177 O192 2.325 . S
Tb177 O195 2.303 . S
Tb177 C206 2.764 . S
C178 O194 1.261 . S
C178 O195 1.257 . S
C179 C182 1.358 . S
C179 C183 1.332 . S
C179 C185 1.504 . S
C180 C181 1.373 . S
C180 C184 1.308 . S
C181 C180 1.373 . S
C181 C182 1.429 . S
C181 H208 0.932 . S
C182 C179 1.358 . S
C182 C181 1.429 . S
C182 H209 0.930 . S
C183 C179 1.332 . S
C183 C184 1.394 . S
C183 H210 0.932 . S
C184 C180 1.308 . S
C184 C183 1.394 . S
C184 H211 0.929 . S
C185 Tb176 2.764 . S
C185 C179 1.504 . S
C185 O197 1.239 . S
C185 O198 1.263 . S
O186 Tb176 2.325 1_556 S
O186 C196 1.236 . S
O187 Tb177 2.322 . S
O187 C196 1.257 . S
O188 Tb177 2.349 . S
O188 C199 1.261 . S
O189 Tb176 2.303 1_556 S
O189 C199 1.257 . S
O190 Tb177 2.415 . S
O190 C206 1.239 . S
O191 Tb177 2.399 . S
O191 C206 1.263 . S
O192 Tb177 2.325 . S
O192 C207 1.236 . S
O193 Tb176 2.322 1_556 S
O193 C207 1.257 . S
O194 Tb176 2.349 1_556 S
O194 C178 1.261 . S
O195 Tb177 2.303 . S
O195 C178 1.257 . S
C196 O186 1.236 . S
C196 O187 1.257 . S
O197 Tb176 2.415 . S
O197 C185 1.239 . S
O198 Tb176 2.399 . S
O198 C185 1.263 . S
C199 O188 1.261 . S
C199 O189 1.257 . S
C200 C203 1.358 . S
C200 C204 1.332 . S
C200 C206 1.504 . S
C201 C202 1.373 . S
C201 C205 1.308 . S
C202 C201 1.373 . S
C202 C203 1.429 . S
C202 H212 0.932 . S
C203 C200 1.358 . S
C203 C202 1.429 . S
C203 H213 0.930 . S
C204 C200 1.332 . S
C204 C205 1.394 . S
C204 H214 0.932 . S
C205 C201 1.308 . S
C205 C204 1.394 . S
C205 H215 0.929 . S
C206 Tb177 2.764 . S
C206 O190 1.239 . S
C206 O191 1.263 . S
C206 C200 1.504 . S
C207 O192 1.236 . S
C207 O193 1.257 . S
H208 C181 0.932 . S
H209 C182 0.930 . S
H210 C183 0.932 . S
H211 C184 0.929 . S
H212 C202 0.932 . S
H213 C203 0.930 . S
H214 C204 0.932 . S
H215 C205 0.929 . S
Tb216 C225 2.764 . S
Tb216 O226 2.325 . S
Tb216 O229 2.303 . S
Tb216 O233 2.322 1_455 S
Tb216 O234 2.349 . S
Tb216 O237 2.415 . S
Tb216 O238 2.399 . S
Tb217 O227 2.322 1_655 S
Tb217 O228 2.349 . S
Tb217 O230 2.415 1_556 S
Tb217 O231 2.399 1_556 S
Tb217 O232 2.325 . S
Tb217 O235 2.303 . S
Tb217 C246 2.764 1_556 S
C218 O234 1.261 . S
C218 O235 1.257 1_455 S
C219 C222 1.358 . S
C219 C223 1.332 . S
C219 C225 1.504 . S
C220 C221 1.373 . S
C220 C224 1.308 . S
C221 C220 1.373 . S
C221 C222 1.429 . S
C221 H248 0.932 . S
C222 C219 1.358 . S
C222 C221 1.429 . S
C222 H249 0.930 . S
C223 C219 1.332 . S
C223 C224 1.394 . S
C223 H250 0.932 . S
C224 C220 1.308 . S
C224 C223 1.394 . S
C224 H251 0.929 . S
C225 Tb216 2.764 . S
C225 C219 1.504 . S
C225 O237 1.239 . S
C225 O238 1.263 . S
O226 Tb216 2.325 . S
O226 C236 1.236 . S
O227 Tb217 2.322 1_455 S
O227 C236 1.257 . S
O228 Tb217 2.349 . S
O228 C239 1.261 . S
O229 Tb216 2.303 . S
O229 C239 1.257 1_455 S
O230 Tb217 2.415 1_554 S
O230 C246 1.239 . S
O231 Tb217 2.399 1_554 S
O231 C246 1.263 . S
O232 Tb217 2.325 . S
O232 C247 1.236 . S
O233 Tb216 2.322 1_655 S
O233 C247 1.257 . S
O234 Tb216 2.349 . S
O234 C218 1.261 . S
O235 Tb217 2.303 . S
O235 C218 1.257 1_655 S
C236 O226 1.236 . S
C236 O227 1.257 . S
O237 Tb216 2.415 . S
O237 C225 1.239 . S
O238 Tb216 2.399 . S
O238 C225 1.263 . S
C239 O228 1.261 . S
C239 O229 1.257 1_655 S
C240 C243 1.358 . S
C240 C244 1.332 . S
C240 C246 1.504 . S
C241 C242 1.373 . S
C241 C245 1.308 . S
C242 C241 1.373 . S
C242 C243 1.429 . S
C242 H252 0.932 . S
C243 C240 1.358 . S
C243 C242 1.429 . S
C243 H253 0.930 . S
C244 C240 1.332 . S
C244 C245 1.394 . S
C244 H254 0.932 . S
C245 C241 1.308 . S
C245 C244 1.394 . S
C245 H255 0.929 . S
C246 Tb217 2.764 1_554 S
C246 O230 1.239 . S
C246 O231 1.263 . S
C246 C240 1.504 . S
C247 O232 1.236 . S
C247 O233 1.257 . S
H248 C221 0.932 . S
H249 C222 0.930 . S
H250 C223 0.932 . S
H251 C224 0.929 . S
H252 C242 0.932 . S
H253 C243 0.930 . S
H254 C244 0.932 . S
H255 C245 0.929 . S
C256 C257 1.348 1_565 S
C256 C262 1.379 . S
C256 N264 1.356 . S
C257 C256 1.348 1_545 S
C257 C263 1.372 . S
C258 C259 1.363 . S
C258 C263 1.379 . S
C258 N265 1.356 . S
C259 C258 1.363 . S
C259 C262 1.363 1_545 S
N260 C262 1.356 . S
N260 H272 0.984 . S
N260 H273 0.985 . S
N261 C263 1.356 . S
N261 H266 0.984 . S
N261 H267 0.985 . S
C262 C256 1.379 . S
C262 C259 1.363 1_565 S
C262 N260 1.356 . S
C263 C257 1.372 . S
C263 C258 1.379 . S
C263 N261 1.356 . S
N264 C256 1.356 . S
N264 H270 0.984 . S
N264 H271 0.984 . S
N265 C258 1.356 . S
N265 H268 0.984 . S
N265 H269 0.985 . S
H266 N261 0.984 . S
H267 N261 0.985 . S
H268 N265 0.984 . S
H269 N265 0.985 . S
H270 N264 0.984 . S
H271 N264 0.984 . S
H272 N260 0.984 . S
H273 N260 0.985 . S
C274 C275 1.363 . S
C274 C280 1.379 . S
C274 N282 1.356 . S
C275 C274 1.363 . S
C275 C281 1.363 . S
C276 C277 1.363 . S
C276 C281 1.379 . S
C276 N283 1.356 . S
C277 C276 1.363 . S
C277 C280 1.363 . S
N278 C280 1.356 . S
N278 H290 0.984 . S
N278 H291 0.985 . S
N279 C281 1.356 . S
N279 H284 0.984 . S
N279 H285 0.985 . S
C280 C274 1.379 . S
C280 C277 1.363 . S
C280 N278 1.356 . S
C281 C275 1.363 . S
C281 C276 1.379 . S
C281 N279 1.356 . S
N282 C274 1.356 . S
N282 H288 0.984 . S
N282 H289 0.984 . S
N283 C276 1.356 . S
N283 H286 0.984 . S
N283 H287 0.985 . S
H284 N279 0.984 . S
H285 N279 0.985 . S
H286 N283 0.984 . S
H287 N283 0.985 . S
H288 N282 0.984 . S
H289 N282 0.984 . S
H290 N278 0.984 . S
H291 N278 0.985 . S
C292 C293 1.363 . S
C292 C298 1.379 . S
C292 N300 1.356 . S
C293 C292 1.363 . S
C293 C299 1.363 . S
C294 C295 1.363 . S
C294 C299 1.379 . S
C294 N301 1.356 . S
C295 C294 1.363 . S
C295 C298 1.363 . S
N296 C298 1.356 . S
N296 H308 0.984 . S
N296 H309 0.985 . S
N297 C299 1.356 . S
N297 H302 0.984 . S
N297 H303 0.985 . S
C298 C292 1.379 . S
C298 C295 1.363 . S
C298 N296 1.356 . S
C299 C293 1.363 . S
C299 C294 1.379 . S
C299 N297 1.356 . S
N300 C292 1.356 . S
N300 H306 0.984 . S
N300 H307 0.984 . S
N301 C294 1.356 . S
N301 H304 0.984 . S
N301 H305 0.985 . S
H302 N297 0.984 . S
H303 N297 0.985 . S
H304 N301 0.984 . S
H305 N301 0.985 . S
H306 N300 0.984 . S
H307 N300 0.984 . S
H308 N296 0.984 . S
H309 N296 0.985 . S
C310 C311 1.368 . S
C310 C316 1.379 . S
C310 N318 1.356 . S
C311 C310 1.368 . S
C311 C317 1.358 1_455 S
C312 C313 1.336 1_655 S
C312 C317 1.379 . S
C312 N319 1.356 . S
C313 C312 1.336 1_455 S
C313 C316 1.390 . S
N314 C316 1.356 . S
N314 H326 0.984 . S
N314 H327 0.985 . S
N315 C317 1.356 . S
N315 H320 0.984 . S
N315 H321 0.985 . S
C316 C310 1.379 . S
C316 C313 1.390 . S
C316 N314 1.356 . S
C317 C311 1.358 1_655 S
C317 C312 1.379 . S
C317 N315 1.356 . S
N318 C310 1.356 . S
N318 H324 0.984 . S
N318 H325 0.984 . S
N319 C312 1.356 . S
N319 H322 0.984 . S
N319 H323 0.985 . S
H320 N315 0.984 . S
H321 N315 0.985 . S
H322 N319 0.984 . S
H323 N319 0.985 . S
H324 N318 0.984 . S
H325 N318 0.984 . S
H326 N314 0.984 . S
H327 N314 0.985 . S
C328 C329 1.347 1_545 S
C328 C334 1.379 . S
C328 N336 1.356 . S
C329 C328 1.347 1_565 S
C329 C335 1.374 . S
C330 C331 1.363 . S
C330 C335 1.379 . S
C330 N337 1.356 . S
C331 C330 1.363 . S
C331 C334 1.363 1_565 S
N332 C334 1.356 . S
N332 H344 0.984 . S
N332 H345 0.985 . S
N333 C335 1.356 . S
N333 H338 0.984 . S
N333 H339 0.985 . S
C334 C328 1.379 . S
C334 C331 1.363 1_545 S
C334 N332 1.356 . S
C335 C329 1.374 . S
C335 C330 1.379 . S
C335 N333 1.356 . S
N336 C328 1.356 . S
N336 H342 0.984 . S
N336 H343 0.984 . S
N337 C330 1.356 . S
N337 H340 0.984 1_554 S
N337 H341 0.985 . S
H338 N333 0.984 . S
H339 N333 0.985 . S
H340 N337 0.984 1_556 S
H341 N337 0.985 . S
H342 N336 0.984 . S
H343 N336 0.984 . S
H344 N332 0.984 . S
H345 N332 0.985 . S
C346 C347 1.363 1_554 S
C346 C352 1.378 . S
C346 N354 1.356 . S
C347 C346 1.363 1_556 S
C347 C353 1.363 . S
C348 C349 1.363 . S
C348 C353 1.379 . S
C348 N355 1.356 . S
C349 C348 1.363 . S
C349 C352 1.364 1_556 S
N350 C352 1.356 . S
N350 H362 0.984 . S
N350 H363 0.985 . S
N351 C353 1.356 . S
N351 H356 0.984 . S
N351 H357 0.985 . S
C352 C346 1.378 . S
C352 C349 1.364 1_554 S
C352 N350 1.356 . S
C353 C347 1.363 . S
C353 C348 1.379 . S
C353 N351 1.356 . S
N354 C346 1.356 . S
N354 H360 0.984 . S
N354 H361 0.984 . S
N355 C348 1.356 . S
N355 H358 0.984 . S
N355 H359 0.985 . S
H356 N351 0.984 . S
H357 N351 0.985 . S
H358 N355 0.984 . S
H359 N355 0.985 . S
H360 N354 0.984 . S
H361 N354 0.984 . S
H362 N350 0.984 . S
H363 N350 0.985 . S
C364 C365 1.363 . S
C364 C370 1.379 . S
C364 N372 1.356 . S
C365 C364 1.363 . S
C365 C371 1.363 . S
C366 C367 1.363 . S
C366 C371 1.379 . S
C366 N373 1.356 . S
C367 C366 1.363 . S
C367 C370 1.363 . S
N368 C370 1.356 . S
N368 H380 0.984 . S
N368 H381 0.985 . S
N369 C371 1.356 . S
N369 H374 0.984 . S
N369 H375 0.985 . S
C370 C364 1.379 . S
C370 C367 1.363 . S
C370 N368 1.356 . S
C371 C365 1.363 . S
C371 C366 1.379 . S
C371 N369 1.356 . S
N372 C364 1.356 . S
N372 H378 0.984 . S
N372 H379 0.984 . S
N373 C366 1.356 . S
N373 H376 0.984 . S
N373 H377 0.985 . S
H374 N369 0.984 . S
H375 N369 0.985 . S
H376 N373 0.984 . S
H377 N373 0.985 . S
H378 N372 0.984 . S
H379 N372 0.984 . S
H380 N368 0.984 . S
H381 N368 0.985 . S
C382 C383 1.367 . S
C382 C388 1.379 . S
C382 N390 1.356 . S
C383 C382 1.367 . S
C383 C389 1.359 1_655 S
C384 C385 1.347 1_455 S
C384 C389 1.379 . S
C384 N391 1.356 . S
C385 C384 1.347 1_655 S
C385 C388 1.380 . S
N386 C388 1.356 . S
N386 H398 0.984 . S
N386 H399 0.985 1_554 S
N387 C389 1.356 . S
N387 H392 0.984 . S
N387 H393 0.985 . S
C388 C382 1.379 . S
C388 C385 1.380 . S
C388 N386 1.356 . S
C389 C383 1.359 1_455 S
C389 C384 1.379 . S
C389 N387 1.356 . S
N390 C382 1.356 . S
N390 H396 0.984 . S
N390 H397 0.984 . S
N391 C384 1.356 . S
N391 H394 0.984 . S
N391 H395 0.985 . S
H392 N387 0.984 . S
H393 N387 0.985 . S
H394 N391 0.984 . S
H395 N391 0.985 . S
H396 N390 0.984 . S
H397 N390 0.984 . S
H398 N386 0.984 . S
H399 N386 0.985 1_556 S
C400 C401 1.363 . S
C400 C406 1.379 . S
C400 N408 1.356 . S
C401 C400 1.363 . S
C401 C407 1.363 . S
C402 C403 1.363 . S
C402 C407 1.379 . S
C402 N409 1.356 . S
C403 C402 1.363 . S
C403 C406 1.363 . S
N404 C406 1.356 . S
N404 H416 0.984 . S
N404 H417 0.985 . S
N405 C407 1.356 1_455 S
N405 H410 0.984 . S
N405 H411 0.985 . S
C406 C400 1.379 . S
C406 C403 1.363 . S
C406 N404 1.356 . S
C407 C401 1.363 . S
C407 C402 1.379 . S
C407 N405 1.356 1_655 S
N408 C400 1.356 . S
N408 H414 0.984 . S
N408 H415 0.984 . S
N409 C402 1.356 . S
N409 H412 0.984 . S
N409 H413 0.985 . S
H410 N405 0.984 . S
H411 N405 0.985 . S
H412 N409 0.984 . S
H413 N409 0.985 . S
H414 N408 0.984 . S
H415 N408 0.984 . S
H416 N404 0.984 . S
H417 N404 0.985 . S
C418 C419 1.363 1_565 S
C418 C424 1.379 . S
C418 N426 1.356 . S
C419 C418 1.363 1_545 S
C419 C425 1.363 . S
C420 C421 1.363 1_545 S
C420 C425 1.379 . S
C420 N427 1.356 . S
C421 C420 1.363 1_565 S
C421 C424 1.363 . S
N422 C424 1.356 . S
N422 H434 0.984 . S
N422 H435 0.985 . S
N423 C425 1.356 . S
N423 H428 0.984 . S
N423 H429 0.985 . S
C424 C418 1.379 . S
C424 C421 1.363 . S
C424 N422 1.356 . S
C425 C419 1.363 . S
C425 C420 1.379 . S
C425 N423 1.356 . S
N426 C418 1.356 . S
N426 H432 0.984 . S
N426 H433 0.984 . S
N427 C420 1.356 . S
N427 H430 0.984 1_545 S
N427 H431 0.985 . S
H428 N423 0.984 . S
H429 N423 0.985 . S
H430 N427 0.984 1_565 S
H431 N427 0.985 . S
H432 N426 0.984 . S
H433 N426 0.984 . S
H434 N422 0.984 . S
H435 N422 0.985 . S
C436 C437 1.363 . S
C436 C442 1.379 . S
C436 N444 1.356 . S
C437 C436 1.363 . S
C437 C443 1.363 . S
C438 C439 1.363 . S
C438 C443 1.379 . S
C438 N445 1.356 . S
C439 C438 1.363 . S
C439 C442 1.363 . S
N440 C442 1.356 . S
N440 H452 0.984 . S
N440 H453 0.985 . S
N441 C443 1.356 . S
N441 H446 0.984 . S
N441 H447 0.985 . S
C442 C436 1.379 . S
C442 C439 1.363 . S
C442 N440 1.356 . S
C443 C437 1.363 . S
C443 C438 1.379 . S
C443 N441 1.356 . S
N444 C436 1.356 . S
N444 H450 0.984 . S
N444 H451 0.984 . S
N445 C438 1.356 . S
N445 H448 0.984 . S
N445 H449 0.985 . S
H446 N441 0.984 . S
H447 N441 0.985 . S
H448 N445 0.984 . S
H449 N445 0.985 . S
H450 N444 0.984 . S
H451 N444 0.984 . S
H452 N440 0.984 . S
H453 N440 0.985 . S
C454 C455 1.363 . S
C454 C460 1.379 . S
C454 N462 1.356 . S
C455 C454 1.363 . S
C455 C461 1.363 . S
C456 C457 1.363 . S
C456 C461 1.379 . S
C456 N463 1.356 . S
C457 C456 1.363 . S
C457 C460 1.363 . S
N458 C460 1.356 . S
N458 H470 0.984 . S
N458 H471 0.985 . S
N459 C461 1.356 . S
N459 H464 0.984 . S
N459 H465 0.985 . S
C460 C454 1.379 . S
C460 C457 1.363 . S
C460 N458 1.356 . S
C461 C455 1.363 . S
C461 C456 1.379 . S
C461 N459 1.356 . S
N462 C454 1.356 . S
N462 H468 0.984 . S
N462 H469 0.984 . S
N463 C456 1.356 . S
N463 H466 0.984 . S
N463 H467 0.985 . S
H464 N459 0.984 . S
H465 N459 0.985 . S
H466 N463 0.984 . S
H467 N463 0.985 . S
H468 N462 0.984 . S
H469 N462 0.984 . S
H470 N458 0.984 . S
H471 N458 0.985 . S
C472 C473 1.363 . S
C472 C478 1.379 . S
C472 N480 1.356 1_455 S
C473 C472 1.363 . S
C473 C479 1.363 . S
C474 C475 1.363 . S
C474 C479 1.379 . S
C474 N481 1.356 . S
C475 C474 1.363 . S
C475 C478 1.363 . S
N476 C478 1.356 . S
N476 H488 0.984 . S
N476 H489 0.985 . S
N477 C479 1.356 . S
N477 H482 0.984 . S
N477 H483 0.985 . S
C478 C472 1.379 . S
C478 C475 1.363 . S
C478 N476 1.356 . S
C479 C473 1.363 . S
C479 C474 1.379 . S
C479 N477 1.356 . S
N480 C472 1.356 1_655 S
N480 H486 0.984 . S
N480 H487 0.984 . S
N481 C474 1.356 . S
N481 H484 0.984 . S
N481 H485 0.985 . S
H482 N477 0.984 . S
H483 N477 0.985 . S
H484 N481 0.984 . S
H485 N481 0.985 . S
H486 N480 0.984 . S
H487 N480 0.984 . S
H488 N476 0.984 . S
H489 N476 0.985 . S
C490 C491 1.363 1_545 S
C490 C496 1.379 . S
C490 N498 1.356 . S
C491 C490 1.363 1_565 S
C491 C497 1.363 . S
C492 C493 1.363 . S
C492 C497 1.379 1_545 S
C492 N499 1.356 . S
C493 C492 1.363 . S
C493 C496 1.363 . S
N494 C496 1.356 . S
N494 H506 0.984 . S
N494 H507 0.985 . S
N495 C497 1.356 . S
N495 H500 0.984 . S
N495 H501 0.985 . S
C496 C490 1.379 . S
C496 C493 1.363 . S
C496 N494 1.356 . S
C497 C491 1.363 . S
C497 C492 1.379 1_565 S
C497 N495 1.356 . S
N498 C490 1.356 . S
N498 H504 0.984 . S
N498 H505 0.984 . S
N499 C492 1.356 . S
N499 H502 0.984 . S
N499 H503 0.985 1_545 S
H500 N495 0.984 . S
H501 N495 0.985 . S
H502 N499 0.984 . S
H503 N499 0.985 1_565 S
H504 N498 0.984 . S
H505 N498 0.984 . S
H506 N494 0.984 . S
H507 N494 0.985 . S
C508 C509 1.363 . S
C508 C514 1.379 . S
C508 N516 1.356 1_556 S
C509 C508 1.363 . S
C509 C515 1.363 . S
C510 C511 1.363 . S
C510 C515 1.379 . S
C510 N517 1.356 . S
C511 C510 1.363 . S
C511 C514 1.363 . S
N512 C514 1.356 1_554 S
N512 H524 0.984 . S
N512 H525 0.985 . S
N513 C515 1.356 . S
N513 H518 0.984 . S
N513 H519 0.985 . S
C514 C508 1.379 . S
C514 C511 1.363 . S
C514 N512 1.356 1_556 S
C515 C509 1.363 . S
C515 C510 1.379 . S
C515 N513 1.356 . S
N516 C508 1.356 1_554 S
N516 H522 0.984 . S
N516 H523 0.984 1_554 S
N517 C510 1.356 . S
N517 H520 0.984 . S
N517 H521 0.985 . S
H518 N513 0.984 . S
H519 N513 0.985 . S
H520 N517 0.984 . S
H521 N517 0.985 . S
H522 N516 0.984 . S
H523 N516 0.984 1_556 S
H524 N512 0.984 . S
H525 N512 0.985 . S
C526 C527 1.363 . S
C526 C532 1.379 . S
C526 N534 1.356 . S
C527 C526 1.363 . S
C527 C533 1.363 . S
C528 C529 1.363 . S
C528 C533 1.379 . S
C528 N535 1.356 . S
C529 C528 1.363 . S
C529 C532 1.363 . S
N530 C532 1.356 . S
N530 H542 0.984 . S
N530 H543 0.985 . S
N531 C533 1.356 . S
N531 H536 0.984 . S
N531 H537 0.985 . S
C532 C526 1.379 . S
C532 C529 1.363 . S
C532 N530 1.356 . S
C533 C527 1.363 . S
C533 C528 1.379 . S
C533 N531 1.356 . S
N534 C526 1.356 . S
N534 H540 0.984 . S
N534 H541 0.984 . S
N535 C528 1.356 . S
N535 H538 0.984 . S
N535 H539 0.985 . S
H536 N531 0.984 . S
H537 N531 0.985 . S
H538 N535 0.984 . S
H539 N535 0.985 . S
H540 N534 0.984 . S
H541 N534 0.984 . S
H542 N530 0.984 . S
H543 N530 0.985 . S
C544 C545 1.363 . S
C544 C550 1.379 . S
C544 N552 1.356 . S
C545 C544 1.363 . S
C545 C551 1.363 1_454 S
C546 C547 1.363 1_656 S
C546 C551 1.379 . S
C546 N553 1.356 . S
C547 C546 1.363 1_454 S
C547 C550 1.363 . S
N548 C550 1.356 . S
N548 H560 0.984 . S
N548 H561 0.985 . S
N549 C551 1.356 . S
N549 H554 0.984 . S
N549 H555 0.985 . S
C550 C544 1.379 . S
C550 C547 1.363 . S
C550 N548 1.356 . S
C551 C545 1.363 1_656 S
C551 C546 1.379 . S
C551 N549 1.356 . S
N552 C544 1.356 . S
N552 H558 0.984 . S
N552 H559 0.984 . S
N553 C546 1.356 . S
N553 H556 0.984 . S
N553 H557 0.985 . S
H554 N549 0.984 . S
H555 N549 0.985 . S
H556 N553 0.984 . S
H557 N553 0.985 . S
H558 N552 0.984 . S
H559 N552 0.984 . S
H560 N548 0.984 . S
H561 N548 0.985 . S
C562 C563 1.363 1_565 S
C562 C568 1.379 . S
C562 N570 1.356 . S
C563 C562 1.363 1_545 S
C563 C569 1.363 1_554 S
C564 C565 1.363 . S
C564 C569 1.379 . S
C564 N571 1.356 . S
C565 C564 1.363 . S
C565 C568 1.363 1_546 S
N566 C568 1.356 . S
N566 H578 0.984 . S
N566 H579 0.985 . S
N567 C569 1.356 . S
N567 H572 0.984 . S
N567 H573 0.985 . S
C568 C562 1.379 . S
C568 C565 1.363 1_564 S
C568 N566 1.356 . S
C569 C563 1.363 1_556 S
C569 C564 1.379 . S
C569 N567 1.356 . S
N570 C562 1.356 . S
N570 H576 0.984 . S
N570 H577 0.984 . S
N571 C564 1.356 . S
N571 H574 0.984 . S
N571 H575 0.985 . S
H572 N567 0.984 . S
H573 N567 0.985 . S
H574 N571 0.984 . S
H575 N571 0.985 . S
H576 N570 0.984 . S
H577 N570 0.984 . S
H578 N566 0.984 . S
H579 N566 0.985 . S
C580 C581 1.363 . S
C580 C586 1.379 . S
C580 N588 1.356 . S
C581 C580 1.363 . S
C581 C587 1.363 . S
C582 C583 1.363 . S
C582 C587 1.379 . S
C582 N589 1.356 . S
C583 C582 1.363 . S
C583 C586 1.363 . S
N584 C586 1.356 . S
N584 H596 0.984 . S
N584 H597 0.985 . S
N585 C587 1.356 . S
N585 H590 0.984 . S
N585 H591 0.985 . S
C586 C580 1.379 . S
C586 C583 1.363 . S
C586 N584 1.356 . S
C587 C581 1.363 . S
C587 C582 1.379 . S
C587 N585 1.356 . S
N588 C580 1.356 . S
N588 H594 0.984 . S
N588 H595 0.984 . S
N589 C582 1.356 . S
N589 H592 0.984 . S
N589 H593 0.985 . S
H590 N585 0.984 . S
H591 N585 0.985 . S
H592 N589 0.984 . S
H593 N589 0.985 . S
H594 N588 0.984 . S
H595 N588 0.984 . S
H596 N584 0.984 . S
H597 N584 0.985 . S
C598 C599 1.363 . S
C598 C604 1.379 . S
C598 N606 1.356 . S
C599 C598 1.363 . S
C599 C605 1.363 1_556 S
C600 C601 1.363 1_554 S
C600 C605 1.379 . S
C600 N607 1.356 . S
C601 C600 1.363 1_556 S
C601 C604 1.363 . S
N602 C604 1.356 . S
N602 H614 0.984 . S
N602 H615 0.985 . S
N603 C605 1.356 . S
N603 H608 0.984 . S
N603 H609 0.985 . S
C604 C598 1.379 . S
C604 C601 1.363 . S
C604 N602 1.356 . S
C605 C599 1.363 1_554 S
C605 C600 1.379 . S
C605 N603 1.356 . S
N606 C598 1.356 . S
N606 H612 0.984 . S
N606 H613 0.984 . S
N607 C600 1.356 . S
N607 H610 0.984 . S
N607 H611 0.985 . S
H608 N603 0.984 . S
H609 N603 0.985 . S
H610 N607 0.984 . S
H611 N607 0.985 . S
H612 N606 0.984 . S
H613 N606 0.984 . S
H614 N602 0.984 . S
H615 N602 0.985 . S
C616 C617 1.363 1_455 S
C616 C622 1.379 1_455 S
C616 N624 1.356 . S
C617 C616 1.363 1_655 S
C617 C623 1.363 . S
C618 C619 1.363 . S
C618 C623 1.379 . S
C618 N625 1.356 . S
C619 C618 1.363 . S
C619 C622 1.363 . S
N620 C622 1.356 1_455 S
N620 H632 0.984 . S
N620 H633 0.985 1_455 S
N621 C623 1.356 . S
N621 H626 0.984 . S
N621 H627 0.985 . S
C622 C616 1.379 1_655 S
C622 C619 1.363 . S
C622 N620 1.356 1_655 S
C623 C617 1.363 . S
C623 C618 1.379 . S
C623 N621 1.356 . S
N624 C616 1.356 . S
N624 H630 0.984 . S
N624 H631 0.984 . S
N625 C618 1.356 . S
N625 H628 0.984 . S
N625 H629 0.985 . S
H626 N621 0.984 . S
H627 N621 0.985 . S
H628 N625 0.984 . S
H629 N625 0.985 . S
H630 N624 0.984 . S
H631 N624 0.984 . S
H632 N620 0.984 . S
H633 N620 0.985 1_655 S
C634 C635 1.363 . S
C634 C640 1.379 . S
C634 N642 1.356 . S
C635 C634 1.363 . S
C635 C641 1.363 1_565 S
C636 C637 1.363 1_545 S
C636 C641 1.379 . S
C636 N643 1.356 . S
C637 C636 1.363 1_565 S
C637 C640 1.363 . S
N638 C640 1.356 . S
N638 H650 0.984 . S
N638 H651 0.985 . S
N639 C641 1.356 . S
N639 H644 0.984 . S
N639 H645 0.985 . S
C640 C634 1.379 . S
C640 C637 1.363 . S
C640 N638 1.356 . S
C641 C635 1.363 1_545 S
C641 C636 1.379 . S
C641 N639 1.356 . S
N642 C634 1.356 . S
N642 H648 0.984 . S
N642 H649 0.984 . S
N643 C636 1.356 . S
N643 H646 0.984 . S
N643 H647 0.985 . S
H644 N639 0.984 . S
H645 N639 0.985 . S
H646 N643 0.984 . S
H647 N643 0.985 . S
H648 N642 0.984 . S
H649 N642 0.984 . S
H650 N638 0.984 . S
H651 N638 0.985 . S
C652 C653 1.363 . S
C652 C658 1.379 . S
C652 N660 1.356 . S
C653 C652 1.363 . S
C653 C659 1.363 . S
C654 C655 1.363 . S
C654 C659 1.379 . S
C654 N661 1.356 . S
C655 C654 1.363 . S
C655 C658 1.363 . S
N656 C658 1.356 . S
N656 H668 0.984 . S
N656 H669 0.985 . S
N657 C659 1.356 . S
N657 H662 0.984 . S
N657 H663 0.985 . S
C658 C652 1.379 . S
C658 C655 1.363 . S
C658 N656 1.356 . S
C659 C653 1.363 . S
C659 C654 1.379 . S
C659 N657 1.356 . S
N660 C652 1.356 . S
N660 H666 0.984 . S
N660 H667 0.984 . S
N661 C654 1.356 . S
N661 H664 0.984 . S
N661 H665 0.985 . S
H662 N657 0.984 . S
H663 N657 0.985 . S
H664 N661 0.984 . S
H665 N661 0.985 . S
H666 N660 0.984 . S
H667 N660 0.984 . S
H668 N656 0.984 . S
H669 N656 0.985 . S
C670 C671 1.363 . S
C670 C676 1.379 . S
C670 N678 1.356 . S
C671 C670 1.363 . S
C671 C677 1.363 . S
C672 C673 1.363 . S
C672 C677 1.379 . S
C672 N679 1.356 . S
C673 C672 1.363 . S
C673 C676 1.363 . S
N674 C676 1.356 . S
N674 H686 0.984 . S
N674 H687 0.985 . S
N675 C677 1.356 . S
N675 H680 0.984 . S
N675 H681 0.985 . S
C676 C670 1.379 . S
C676 C673 1.363 . S
C676 N674 1.356 . S
C677 C671 1.363 . S
C677 C672 1.379 . S
C677 N675 1.356 . S
N678 C670 1.356 . S
N678 H684 0.984 . S
N678 H685 0.984 . S
N679 C672 1.356 . S
N679 H682 0.984 . S
N679 H683 0.985 . S
H680 N675 0.984 . S
H681 N675 0.985 . S
H682 N679 0.984 . S
H683 N679 0.985 . S
H684 N678 0.984 . S
H685 N678 0.984 . S
H686 N674 0.984 . S
H687 N674 0.985 . S
C257 C76 2.006 1_545 S
C259 C119 2.280 1_545 S
C277 C159 1.814 . S
C275 C88 1.800 . S
C295 C178 2.292 . S
C293 C52 2.007 . S
C313 C239 1.578 1_455 S
C311 C64 1.391 1_455 S
C331 C98 2.282 1_564 S
C329 C28 2.002 . S
C347 C40 1.813 . S
C349 C138 1.817 . S
C365 C4 2.020 . S
C367 C199 2.290 1_554 S
C383 C16 1.391 . S
C385 C218 1.579 1_654 S
C403 C100 1.140 . S
C401 C69 1.200 1_655 S
C421 C140 0.590 . S
C419 C81 0.572 . S
C439 C196 1.363 . S
C437 C93 1.193 . S
C455 C57 0.701 . S
C457 C220 0.704 . S
C473 C21 1.201 . S
C475 C121 1.145 . S
C493 C161 0.590 . S
C491 C33 0.588 1_565 S
C511 C207 1.363 . S
C509 C45 1.176 . S
C527 C9 0.706 . S
C529 C241 0.707 . S
C545 C66 1.641 . S
C547 C116 1.861 1_554 S
C563 C78 2.329 . S
C565 C156 2.597 . S
C583 C180 1.640 . S
C581 C90 1.662 . S
C601 C236 2.589 . S
C599 C54 2.330 1_556 S
C617 C18 1.653 1_655 S
C619 C127 1.870 . S
C637 C167 2.598 . S
C635 C30 2.334 1_565 S
C655 C201 1.640 . S
C653 C42 1.687 . S
C671 C6 2.324 . S
C673 C247 2.591 . S
