# Generated by pormake.
# Topology csq, (4,8)-cn, num edge types: 1
# Building blocks:
#     Node 0, Type 0, BuildingBlock: MIFKUJ_clean_linker_1, # of connection points: 4
#     Node 1, Type 0, BuildingBlock: MIFKUJ_clean_linker_1, # of connection points: 4
#     Node 2, Type 0, BuildingBlock: MIFKUJ_clean_linker_1, # of connection points: 4
#     Node 3, Type 0, BuildingBlock: MIFKUJ_clean_linker_1, # of connection points: 4
#     Node 4, Type 0, BuildingBlock: MIFKUJ_clean_linker_1, # of connection points: 4
#     Node 5, Type 0, BuildingBlock: MIFKUJ_clean_linker_1, # of connection points: 4
#     Node 6, Type 1, BuildingBlock: TAGTUT_clean_sbu_3, # of connection points: 8
#     Node 7, Type 1, BuildingBlock: TAGTUT_clean_sbu_3, # of connection points: 8
#     Node 8, Type 1, BuildingBlock: TAGTUT_clean_sbu_3, # of connection points: 8
#     Edge 9, Type (0, 1), BuildingBlock: MIFKUJ_clean_linker_0, # of connection points: 2
#     Edge 10, Type (0, 1), BuildingBlock: MIFKUJ_clean_linker_0, # of connection points: 2
#     Edge 11, Type (0, 1), BuildingBlock: MIFKUJ_clean_linker_0, # of connection points: 2
#     Edge 12, Type (0, 1), BuildingBlock: MIFKUJ_clean_linker_0, # of connection points: 2
#     Edge 13, Type (0, 1), BuildingBlock: MIFKUJ_clean_linker_0, # of connection points: 2
#     Edge 14, Type (0, 1), BuildingBlock: MIFKUJ_clean_linker_0, # of connection points: 2
#     Edge 15, Type (0, 1), BuildingBlock: MIFKUJ_clean_linker_0, # of connection points: 2
#     Edge 16, Type (0, 1), BuildingBlock: MIFKUJ_clean_linker_0, # of connection points: 2
#     Edge 17, Type (0, 1), BuildingBlock: MIFKUJ_clean_linker_0, # of connection points: 2
#     Edge 18, Type (0, 1), BuildingBlock: MIFKUJ_clean_linker_0, # of connection points: 2
#     Edge 19, Type (0, 1), BuildingBlock: MIFKUJ_clean_linker_0, # of connection points: 2
#     Edge 20, Type (0, 1), BuildingBlock: MIFKUJ_clean_linker_0, # of connection points: 2
#     Edge 21, Type (0, 1), BuildingBlock: MIFKUJ_clean_linker_0, # of connection points: 2
#     Edge 22, Type (0, 1), BuildingBlock: MIFKUJ_clean_linker_0, # of connection points: 2
#     Edge 23, Type (0, 1), BuildingBlock: MIFKUJ_clean_linker_0, # of connection points: 2
#     Edge 24, Type (0, 1), BuildingBlock: MIFKUJ_clean_linker_0, # of connection points: 2
#     Edge 25, Type (0, 1), BuildingBlock: MIFKUJ_clean_linker_0, # of connection points: 2
#     Edge 26, Type (0, 1), BuildingBlock: MIFKUJ_clean_linker_0, # of connection points: 2
#     Edge 27, Type (0, 1), BuildingBlock: MIFKUJ_clean_linker_0, # of connection points: 2
#     Edge 28, Type (0, 1), BuildingBlock: MIFKUJ_clean_linker_0, # of connection points: 2
#     Edge 29, Type (0, 1), BuildingBlock: MIFKUJ_clean_linker_0, # of connection points: 2
#     Edge 30, Type (0, 1), BuildingBlock: MIFKUJ_clean_linker_0, # of connection points: 2
#     Edge 31, Type (0, 1), BuildingBlock: MIFKUJ_clean_linker_0, # of connection points: 2
#     Edge 32, Type (0, 1), BuildingBlock: MIFKUJ_clean_linker_0, # of connection points: 2
# Relax obj value: 0.028
# Max RMSD: 0.112
# Mean RMSD: 0.043
data_MOF--net-csq--node1-TAGTUT_clean_sbu_3--node2-MIFKUJ_clean_linker_1--edge1-MIFKUJ_clean_linker_0
_symmetry_space_group_name_H-M    P1
_symmetry_Int_Tables_number       1
_symmetry_cell_setting            triclinic
loop_
_symmetry_equiv_pos_as_xyz
'x, y, z'
_cell_length_a     77.461403
_cell_length_b     76.57362
_cell_length_c     26.46714
_cell_angle_alpha  92.179625
_cell_angle_beta   92.341799
_cell_angle_gamma 119.88004
loop_
_atom_site_label
_atom_site_type_symbol
_atom_site_fract_x
_atom_site_fract_y
_atom_site_fract_z
_atom_type_partial_charge
H0 H 0.26954 0.46418 0.23023 0.0
H1 H 0.30116 0.46872 0.26745 0.0
H2 H 0.3328 0.52738 0.20685 0.0
H3 H 0.30114 0.52267 0.1694 0.0
H4 H 0.25126 0.49154 0.23846 0.0
H5 H 0.27438 0.45901 0.11732 0.0
H6 H 0.30218 0.46002 0.07426 0.0
H7 H 0.31263 0.51459 0.00628 0.0
H8 H 0.28489 0.5136 0.0502 0.0
H9 H 0.22309 0.50428 0.04787 0.0
H10 H 0.19154 0.49607 0.00192 0.0
H11 H 0.1609 0.44152 0.08095 0.0
H12 H 0.19247 0.44993 0.12732 0.0
H13 H 0.24239 0.48086 0.05068 0.0
H14 H 0.21706 0.51172 0.16165 0.0
H15 H 0.19244 0.51439 0.211 0.0
H16 H 0.18726 0.46602 0.30001 0.0
H17 H 0.21221 0.4637 0.25088 0.0
C18 C 0.2831 0.49313 0.19742 0.0
C19 C 0.28327 0.47811 0.22565 0.0
C20 C 0.30131 0.48062 0.24629 0.0
C21 C 0.31937 0.49833 0.23958 0.0
C22 C 0.31907 0.51363 0.21262 0.0
C23 C 0.30105 0.51099 0.19142 0.0
C24 C 0.26445 0.48937 0.17013 0.0
C25 C 0.24915 0.48896 0.19752 0.0
C26 C 0.26205 0.48658 0.11674 0.0
C27 C 0.27767 0.48626 0.08697 0.0
C28 C 0.28259 0.4711 0.09285 0.0
C29 C 0.29841 0.47166 0.06809 0.0
C30 C 0.30962 0.48742 0.03701 0.0
C31 C 0.30439 0.50239 0.03043 0.0
C32 C 0.28846 0.50175 0.05503 0.0
C33 C 0.21001 0.47776 0.09105 0.0
C34 C 0.20957 0.49057 0.05522 0.0
C35 C 0.1916 0.48592 0.02925 0.0
C36 C 0.17389 0.46819 0.03809 0.0
C37 C 0.17441 0.45521 0.07339 0.0
C38 C 0.19234 0.46004 0.09996 0.0
C39 C 0.22897 0.48279 0.11896 0.0
C40 C 0.24439 0.48343 0.09163 0.0
C41 C 0.23149 0.486 0.1724 0.0
C42 C 0.21635 0.48739 0.2023 0.0
C43 C 0.2105 0.50158 0.19155 0.0
C44 C 0.19637 0.50305 0.21975 0.0
C45 C 0.18779 0.49039 0.25946 0.0
C46 C 0.19374 0.4762 0.27018 0.0
C47 C 0.20794 0.47479 0.24202 0.0
H48 H 0.79491 0.29876 0.07776 0.0
H49 H 0.81425 0.32746 0.02691 0.0
H50 H 0.83261 0.29146 0.93933 0.0
H51 H 0.81293 0.2628 0.98949 0.0
H52 H 0.77322 0.24432 0.99209 0.0
H53 H 0.78512 0.28021 0.19679 0.0
H54 H 0.81136 0.30483 0.25773 0.0
H55 H 0.85555 0.29937 0.17469 0.0
H56 H 0.82924 0.27503 0.11346 0.0
H57 H 0.7639 0.20384 0.18031 0.0
H58 H 0.73787 0.17583 0.2223 0.0
H59 H 0.69288 0.18097 0.13238 0.0
H60 H 0.71895 0.20992 0.09396 0.0
H61 H 0.77473 0.24192 0.17915 0.0
H62 H 0.75282 0.18821 0.04543 0.0
H63 H 0.72639 0.15954 0.99321 0.0
H64 H 0.70469 0.19816 0.93863 0.0
H65 H 0.73169 0.22677 0.98895 0.0
C66 C 0.80248 0.27864 0.03741 0.0
C67 C 0.8034 0.2972 0.04817 0.0
C68 C 0.81445 0.31359 0.01899 0.0
C69 C 0.82476 0.31169 0.97849 0.0
C70 C 0.82445 0.29331 0.96935 0.0
C71 C 0.81335 0.27695 0.9983 0.0
C72 C 0.78857 0.26044 0.06312 0.0
C73 C 0.77371 0.24381 0.03302 0.0
C74 C 0.78913 0.25962 0.11643 0.0
C75 C 0.80524 0.2759 0.15042 0.0
C76 C 0.80049 0.28448 0.19151 0.0
C77 C 0.81549 0.29842 0.22652 0.0
C78 C 0.83554 0.30396 0.22132 0.0
C79 C 0.84029 0.29563 0.1795 0.0
C80 C 0.82527 0.28173 0.14439 0.0
C81 C 0.74344 0.20882 0.1333 0.0
C82 C 0.74842 0.19901 0.16999 0.0
C83 C 0.73346 0.1828 0.19353 0.0
C84 C 0.71316 0.17594 0.18063 0.0
C85 C 0.70828 0.1859 0.14394 0.0
C86 C 0.72323 0.20231 0.12116 0.0
C87 C 0.75932 0.22603 0.10815 0.0
C88 C 0.77444 0.24246 0.13824 0.0
C89 C 0.75926 0.2266 0.05481 0.0
C90 C 0.74411 0.20953 0.021 0.0
C91 C 0.74246 0.19045 0.02164 0.0
C92 C 0.72724 0.17406 0.99208 0.0
C93 C 0.71329 0.17645 0.96173 0.0
C94 C 0.71533 0.19576 0.96063 0.0
C95 C 0.7307 0.21216 0.9896 0.0
H96 H 0.56779 0.76097 0.97716 0.0
H97 H 0.5788 0.7428 0.92103 0.0
H98 H 0.52492 0.68694 0.94246 0.0
H99 H 0.51348 0.70516 0.99663 0.0
H100 H 0.53799 0.76609 0.96074 0.0
H101 H 0.55547 0.73527 0.09918 0.0
H102 H 0.55424 0.70814 0.14822 0.0
H103 H 0.49012 0.68029 0.14702 0.0
H104 H 0.49145 0.70744 0.09828 0.0
H105 H 0.48464 0.75826 0.12188 0.0
H106 H 0.47949 0.77913 0.18491 0.0
H107 H 0.53606 0.8305 0.15439 0.0
H108 H 0.54153 0.80942 0.09343 0.0
H109 H 0.51191 0.74843 0.13036 0.0
H110 H 0.49335 0.77801 0.99574 0.0
H111 H 0.4927 0.80375 0.94443 0.0
H112 H 0.55655 0.83249 0.93614 0.0
H113 H 0.5571 0.80659 0.98678 0.0
C114 C 0.53988 0.73442 0.99165 0.0
C115 C 0.55838 0.74478 0.97005 0.0
C116 C 0.56467 0.73446 0.93801 0.0
C117 C 0.55271 0.71355 0.92769 0.0
C118 C 0.5345 0.70306 0.95045 0.0
C119 C 0.52803 0.71344 0.98171 0.0
C120 C 0.53232 0.7459 0.02055 0.0
C121 C 0.53258 0.7624 0.99823 0.0
C122 C 0.52423 0.74044 0.06827 0.0
C123 C 0.52354 0.72334 0.09484 0.0
C124 C 0.54114 0.7232 0.10902 0.0
C125 C 0.54043 0.70777 0.13731 0.0
C126 C 0.52207 0.69207 0.15151 0.0
C127 C 0.50446 0.69205 0.13628 0.0
C128 C 0.50521 0.7076 0.10864 0.0
C129 C 0.51341 0.78227 0.10263 0.0
C130 C 0.4958 0.77409 0.12832 0.0
C131 C 0.49283 0.78606 0.16416 0.0
C132 C 0.50747 0.80642 0.17504 0.0
C133 C 0.52465 0.81478 0.14752 0.0
C134 C 0.52764 0.8028 0.11195 0.0
C135 C 0.51814 0.76896 0.07113 0.0
C136 C 0.51725 0.75206 0.0928 0.0
C137 C 0.52548 0.77391 0.02259 0.0
C138 C 0.52528 0.79042 0.99528 0.0
C139 C 0.50722 0.78996 0.98328 0.0
C140 C 0.50685 0.80456 0.95366 0.0
C141 C 0.52457 0.82007 0.93618 0.0
C142 C 0.54269 0.82077 0.94929 0.0
C143 C 0.54301 0.80598 0.97811 0.0
H144 H 0.80418 0.51409 0.14537 0.0
H145 H 0.83617 0.51518 0.16132 0.0
H146 H 0.86477 0.56645 0.07021 0.0
H147 H 0.83262 0.565 0.0532 0.0
H148 H 0.79216 0.54621 0.15602 0.0
H149 H 0.80086 0.50256 0.03619 0.0
H150 H 0.82327 0.49871 0.98109 0.0
H151 H 0.82041 0.5411 0.88231 0.0
H152 H 0.79953 0.54628 0.94059 0.0
H153 H 0.75112 0.54972 0.97274 0.0
H154 H 0.71889 0.54537 0.94329 0.0
H155 H 0.69124 0.5067 0.065 0.0
H156 H 0.72339 0.51021 0.09246 0.0
H157 H 0.76369 0.52338 0.9785 0.0
H158 H 0.75921 0.57018 0.09947 0.0
H159 H 0.73988 0.57796 0.15762 0.0
H160 H 0.73289 0.52907 0.24742 0.0
H161 H 0.75291 0.52202 0.19016 0.0
C162 C 0.81614 0.53948 0.09823 0.0
C163 C 0.81741 0.52575 0.12955 0.0
C164 C 0.83554 0.52622 0.13805 0.0
C165 C 0.85271 0.54073 0.11632 0.0
C166 C 0.85165 0.55509 0.08703 0.0
C167 C 0.83341 0.55436 0.07767 0.0
C168 C 0.79641 0.53672 0.08217 0.0
C169 C 0.78582 0.54107 0.11739 0.0
C170 C 0.78834 0.53018 0.03161 0.0
C171 C 0.79905 0.52521 0.99345 0.0
C172 C 0.80522 0.51116 0.00289 0.0
C173 C 0.81783 0.50874 0.97074 0.0
C174 C 0.82402 0.51982 0.92737 0.0
C175 C 0.81654 0.53277 0.91611 0.0
C176 C 0.80431 0.53554 0.949 0.0
C177 C 0.73972 0.53048 0.03511 0.0
C178 C 0.7381 0.54024 0.99294 0.0
C179 C 0.71968 0.53792 0.97654 0.0
C180 C 0.70248 0.52584 0.00211 0.0
C181 C 0.70414 0.516 0.04426 0.0
C182 C 0.72256 0.51819 0.06036 0.0
C183 C 0.75937 0.53305 0.0522 0.0
C184 C 0.76997 0.52856 0.01715 0.0
C185 C 0.7675 0.53959 0.10278 0.0
C186 C 0.75735 0.54545 0.14042 0.0
C187 C 0.75371 0.56135 0.13213 0.0
C188 C 0.74252 0.56566 0.16524 0.0
C189 C 0.73464 0.55406 0.20714 0.0
C190 C 0.73894 0.53855 0.21612 0.0
C191 C 0.75031 0.53441 0.18328 0.0
H192 H 0.23782 0.82192 0.01561 0.0
H193 H 0.25906 0.8469 0.95788 0.0
H194 H 0.30315 0.82849 0.98058 0.0
H195 H 0.28145 0.80297 0.03583 0.0
H196 H 0.22054 0.7817 0.00873 0.0
H197 H 0.26907 0.83508 0.12313 0.0
H198 H 0.3029 0.85996 0.15525 0.0
H199 H 0.31445 0.81182 0.18989 0.0
H200 H 0.2809 0.78702 0.15486 0.0
H201 H 0.22614 0.7338 0.15911 0.0
H202 H 0.20652 0.7087 0.21817 0.0
H203 H 0.16755 0.73394 0.22742 0.0
H204 H 0.18657 0.75802 0.16576 0.0
H205 H 0.24503 0.77729 0.18121 0.0
H206 H 0.2023 0.72556 0.05814 0.0
H207 H 0.17424 0.70028 0.00245 0.0
H208 H 0.15427 0.74306 0.97836 0.0
H209 H 0.18236 0.76832 0.03458 0.0
C210 C 0.25815 0.81074 0.03056 0.0
C211 C 0.25202 0.82323 0.00783 0.0
C212 C 0.26426 0.83761 0.97519 0.0
C213 C 0.28283 0.83974 0.96455 0.0
C214 C 0.28883 0.8271 0.98725 0.0
C215 C 0.27654 0.81266 0.01947 0.0
C216 C 0.24517 0.79544 0.06514 0.0
C217 C 0.22571 0.78105 0.04697 0.0
C218 C 0.25226 0.79408 0.11419 0.0
C219 C 0.27251 0.80919 0.13607 0.0
C220 C 0.27895 0.82989 0.13714 0.0
C221 C 0.29827 0.8441 0.15598 0.0
C222 C 0.31144 0.83791 0.17513 0.0
C223 C 0.30484 0.81714 0.17465 0.0
C224 C 0.28556 0.80293 0.15528 0.0
C225 C 0.20772 0.74764 0.15795 0.0
C226 C 0.21319 0.73368 0.1735 0.0
C227 C 0.20204 0.71948 0.20779 0.0
C228 C 0.18543 0.71926 0.2283 0.0
C229 C 0.17995 0.73327 0.21204 0.0
C230 C 0.19088 0.74718 0.17691 0.0
C231 C 0.22039 0.76362 0.12469 0.0
C232 C 0.23975 0.77818 0.14332 0.0
C233 C 0.21334 0.765 0.0758 0.0
C234 C 0.19431 0.74875 0.05082 0.0
C235 C 0.19155 0.72931 0.04217 0.0
C236 C 0.17569 0.71499 0.00981 0.0
C237 C 0.16228 0.71985 0.98563 0.0
C238 C 0.16438 0.73893 0.99661 0.0
C239 C 0.18037 0.75333 0.02869 0.0
H240 H 0.49703 0.21081 0.14735 0.0
H241 H 0.50536 0.18732 0.10434 0.0
H242 H 0.45355 0.16653 0.99986 0.0
H243 H 0.44509 0.18963 0.04366 0.0
H244 H 0.46846 0.23109 0.05275 0.0
H245 H 0.48825 0.22658 0.25687 0.0
H246 H 0.49075 0.20363 0.31482 0.0
H247 H 0.4417 0.15281 0.22885 0.0
H248 H 0.43931 0.1759 0.17069 0.0
H249 H 0.42634 0.23983 0.21798 0.0
H250 H 0.42361 0.26424 0.27401 0.0
H251 H 0.47889 0.31196 0.22385 0.0
H252 H 0.48205 0.28726 0.16991 0.0
H253 H 0.4557 0.232 0.23448 0.0
H254 H 0.434 0.25761 0.09029 0.0
H255 H 0.43675 0.28312 0.03265 0.0
H256 H 0.49586 0.29541 1.0004 0.0
H257 H 0.49322 0.27041 0.05862 0.0
C258 C 0.47034 0.20179 0.09891 0.0
C259 C 0.48731 0.20093 0.11569 0.0
C260 C 0.49215 0.18767 0.09083 0.0
C261 C 0.48009 0.17507 0.04877 0.0
C262 C 0.46297 0.17582 0.03257 0.0
C263 C 0.45819 0.1891 0.05732 0.0
C264 C 0.46579 0.2167 0.12263 0.0
C265 C 0.46549 0.23126 0.09242 0.0
C266 C 0.46242 0.21711 0.17458 0.0
C267 C 0.46367 0.20294 0.20933 0.0
C268 C 0.478 0.2105 0.25055 0.0
C269 C 0.47946 0.19738 0.28352 0.0
C270 C 0.46639 0.17645 0.27641 0.0
C271 C 0.45183 0.1689 0.23551 0.0
C272 C 0.45055 0.18203 0.20208 0.0
C273 C 0.45438 0.2617 0.18973 0.0
C274 C 0.4377 0.25562 0.21844 0.0
C275 C 0.4361 0.26962 0.25028 0.0
C276 C 0.45116 0.29003 0.25394 0.0
C277 C 0.46723 0.29628 0.22268 0.0
C278 C 0.46891 0.28222 0.19117 0.0
C279 C 0.45784 0.24625 0.16435 0.0
C280 C 0.45824 0.2317 0.19452 0.0
C281 C 0.46196 0.24633 0.11268 0.0
C282 C 0.46345 0.26214 0.07911 0.0
C283 C 0.44762 0.26597 0.07119 0.0
C284 C 0.44914 0.28041 0.03783 0.0
C285 C 0.46654 0.29135 0.01188 0.0
C286 C 0.48235 0.2875 0.02017 0.0
C287 C 0.4808 0.27307 0.05324 0.0
C288 C 0.03977 0.49737 0.55746 0.0
C289 C 0.02247 0.47372 0.74132 0.0
C290 C 0.9648 0.46593 0.69651 0.0
Mg291 Mg 0.02179 0.51861 0.48532 0.0
Mg292 Mg 0.00343 0.54594 0.53361 0.0
O293 O 0.00229 0.52086 0.5293 0.0
Mg294 Mg 0.00792 0.51044 0.59216 0.0
O295 O 0.01387 0.49869 0.65183 0.0
Mg296 Mg 0.00176 0.46993 0.62397 0.0
Mg297 Mg 0.0065 0.50263 0.71585 0.0
C298 C 0.97554 0.52457 0.62331 0.0
O299 O 0.02698 0.5418 0.63431 0.0
O300 O 0.00695 0.52702 0.41947 0.0
O301 O 0.01913 0.53515 0.71546 0.0
O302 O 0.04579 0.55235 0.50053 0.0
O303 O 0.99425 0.54501 0.45528 0.0
O304 O 0.0341 0.56951 0.54327 0.0
O305 O 0.98915 0.47874 0.5548 0.0
O306 O 0.99802 0.48506 0.47526 0.0
C307 C 0.98804 0.47269 0.50831 0.0
C308 C 0.99749 0.53683 0.41633 0.0
O309 O 0.98138 0.51153 0.62543 0.0
O310 O 0.01613 0.46485 0.69671 0.0
O311 O 0.98306 0.53936 0.59427 0.0
O312 O 0.97231 0.45924 0.66413 0.0
O313 O 0.0208 0.48893 0.75618 0.0
O314 O 0.97506 0.48345 0.71897 0.0
O315 O 0.03387 0.51029 0.55562 0.0
O316 O 0.0309 0.48172 0.58309 0.0
C317 C 0.04831 0.56864 0.52288 0.0
C318 C 0.02734 0.54751 0.68087 0.0
C319 C 0.50177 0.03187 0.51315 0.0
C320 C 0.56017 0.02089 0.45135 0.0
C321 C 0.52271 0.96081 0.50632 0.0
Mg322 Mg 0.47086 0.00914 0.60139 0.0
Mg323 Mg 0.48549 0.99255 0.69816 0.0
O324 O 0.48191 0.99206 0.62801 0.0
Mg325 Mg 0.50548 0.00078 0.5872 0.0
O326 O 0.52796 0.00954 0.54167 0.0
Mg327 Mg 0.51155 0.99674 0.47603 0.0
Mg328 Mg 0.54811 0.00311 0.55676 0.0
C329 C 0.50884 0.9701 0.66672 0.0
O330 O 0.52918 0.02133 0.65083 0.0
O331 O 0.44314 0.98988 0.64839 0.0
O332 O 0.55502 0.01642 0.63472 0.0
O333 O 0.48525 0.03312 0.66884 0.0
O334 O 0.45434 0.97758 0.7099 0.0
O335 O 0.49915 0.02309 0.72783 0.0
O336 O 0.48387 0.98125 0.52174 0.0
O337 O 0.45795 0.98577 0.53351 0.0
C338 C 0.4664 0.97793 0.50795 0.0
C339 C 0.44032 0.97894 0.68637 0.0
O340 O 0.50962 0.97511 0.62059 0.0
O341 O 0.54161 0.01389 0.43808 0.0
O342 O 0.50197 0.97658 0.70154 0.0
O343 O 0.51434 0.96844 0.4798 0.0
O344 O 0.56616 0.01856 0.49522 0.0
O345 O 0.53596 0.97108 0.54201 0.0
O346 O 0.49979 0.0255 0.55795 0.0
O347 O 0.50735 0.0243 0.47767 0.0
C348 C 0.49547 0.03632 0.71081 0.0
C349 C 0.54649 0.02359 0.66275 0.0
C350 C 0.5249 0.54485 0.67864 0.0
C351 C 0.46205 0.48444 0.75689 0.0
C352 C 0.48702 0.449 0.69972 0.0
Mg353 Mg 0.54898 0.54366 0.5826 0.0
Mg354 Mg 0.52723 0.50832 0.48932 0.0
O355 O 0.53315 0.51423 0.55917 0.0
Mg356 Mg 0.51128 0.50446 0.60701 0.0
O357 O 0.49096 0.4961 0.65885 0.0
Mg358 Mg 0.50856 0.50005 0.72113 0.0
Mg359 Mg 0.46763 0.47066 0.6492 0.0
C360 C 0.50027 0.46488 0.53074 0.0
O361 O 0.4871 0.50228 0.54948 0.0
O362 O 0.57344 0.54607 0.52897 0.0
O363 O 0.45914 0.4752 0.57313 0.0
O364 O 0.53509 0.55333 0.51766 0.0
O365 O 0.55747 0.51993 0.47035 0.0
O366 O 0.51694 0.52779 0.46031 0.0
O367 O 0.53341 0.5055 0.66776 0.0
O368 O 0.56118 0.53312 0.64826 0.0
C369 C 0.55199 0.51843 0.67673 0.0
C370 C 0.57342 0.53528 0.49039 0.0
O371 O 0.50082 0.47206 0.57584 0.0
O372 O 0.48111 0.49434 0.76644 0.0
O373 O 0.50802 0.47595 0.49352 0.0
O374 O 0.49891 0.4662 0.72259 0.0
O375 O 0.45378 0.47446 0.71442 0.0
O376 O 0.47425 0.44702 0.66465 0.0
O377 O 0.52299 0.53726 0.63338 0.0
O378 O 0.51912 0.53364 0.71626 0.0
C379 C 0.52358 0.54603 0.47709 0.0
C380 C 0.4684 0.4891 0.54242 0.0
H381 H 0.15762 0.49699 0.226 0.0
H382 H 0.13344 0.50019 0.27634 0.0
H383 H 0.15965 0.49057 0.41167 0.0
H384 H 0.18414 0.48776 0.36191 0.0
H385 H 0.11879 0.46738 0.40348 0.0
H386 H 0.16844 0.53757 0.38955 0.0
H387 H 0.18976 0.56759 0.3436 0.0
H388 H 0.13781 0.56263 0.26454 0.0
H389 H 0.11622 0.53241 0.30953 0.0
H390 H 0.06867 0.48907 0.58658 0.0
H391 H 0.09507 0.49042 0.53668 0.0
H392 H 0.07421 0.51106 0.41113 0.0
H393 H 0.04863 0.51105 0.46255 0.0
H394 H 0.11192 0.52847 0.41138 0.0
H395 H 0.06193 0.45901 0.42118 0.0
H396 H 0.03934 0.42871 0.46456 0.0
H397 H 0.08965 0.43078 0.54517 0.0
H398 H 0.11254 0.46119 0.50252 0.0
C399 C 0.15843 0.49581 0.26657 0.0
C400 C 0.17289 0.49214 0.28987 0.0
C401 C 0.14455 0.4976 0.29526 0.0
C402 C 0.14486 0.4958 0.34782 0.0
C403 C 0.15914 0.492 0.37114 0.0
C404 C 0.17307 0.49028 0.34255 0.0
C405 C 0.12998 0.49733 0.37847 0.0
C406 C 0.11743 0.48082 0.40571 0.0
C407 C 0.12774 0.51459 0.37993 0.0
C408 C 0.14074 0.53266 0.35261 0.0
C409 C 0.16159 0.54279 0.36206 0.0
C410 C 0.17372 0.55986 0.33624 0.0
C411 C 0.16515 0.56699 0.30108 0.0
C412 C 0.14444 0.55707 0.29168 0.0
C413 C 0.13225 0.53999 0.31737 0.0
C414 C 0.06988 0.49408 0.54848 0.0
C415 C 0.05652 0.49976 0.52818 0.0
C416 C 0.08486 0.49469 0.51978 0.0
C417 C 0.08624 0.50013 0.46934 0.0
C418 C 0.07337 0.50661 0.44972 0.0
C419 C 0.05873 0.50659 0.47909 0.0
C420 C 0.10073 0.49853 0.43689 0.0
C421 C 0.11318 0.51497 0.40913 0.0
C422 C 0.10263 0.48102 0.43412 0.0
C423 C 0.08893 0.46245 0.45889 0.0
C424 C 0.06817 0.45302 0.44823 0.0
C425 C 0.05531 0.43583 0.47269 0.0
C426 C 0.06305 0.42785 0.50765 0.0
C427 C 0.08367 0.43698 0.51805 0.0
C428 C 0.0966 0.45417 0.49367 0.0
H429 H 0.05308 0.41457 0.52663 0.0
H430 H 0.17457 0.58022 0.28119 0.0
H431 H 0.71285 0.14185 0.21149 0.0
H432 H 0.68695 0.11416 0.25435 0.0
H433 H 0.65063 0.1423 0.24621 0.0
H434 H 0.67707 0.17079 0.20714 0.0
H435 H 0.64834 0.1292 0.33319 0.0
H436 H 0.64164 0.09969 0.1665 0.0
H437 H 0.65241 0.08986 0.08935 0.0
H438 H 0.66917 0.05353 0.1753 0.0
H439 H 0.65876 0.06337 0.25315 0.0
H440 H 0.55582 0.04177 0.3754 0.0
H441 H 0.5819 0.06616 0.32516 0.0
H442 H 0.6247 0.05319 0.39771 0.0
H443 H 0.5988 0.02907 0.44926 0.0
H444 H 0.6232 0.05742 0.27788 0.0
H445 H 0.63001 0.09008 0.44631 0.0
H446 H 0.61606 0.09915 0.51819 0.0
H447 H 0.59525 0.12898 0.41931 0.0
H448 H 0.60883 0.11979 0.34668 0.0
C449 C 0.69949 0.14234 0.21939 0.0
C450 C 0.69714 0.15866 0.20561 0.0
C451 C 0.6845 0.12627 0.24323 0.0
C452 C 0.66662 0.1259 0.2528 0.0
C453 C 0.66423 0.14214 0.2391 0.0
C454 C 0.67933 0.15836 0.21609 0.0
C455 C 0.65062 0.10894 0.27845 0.0
C456 C 0.64277 0.11355 0.32052 0.0
C457 C 0.64334 0.08841 0.26251 0.0
C458 C 0.64961 0.08244 0.21577 0.0
C459 C 0.64777 0.08973 0.16904 0.0
C460 C 0.65379 0.08414 0.12516 0.0
C461 C 0.66152 0.07112 0.12745 0.0
C462 C 0.6632 0.06363 0.1736 0.0
C463 C 0.65723 0.0692 0.21761 0.0
C464 C 0.57069 0.04382 0.3801 0.0
C465 C 0.57529 0.03356 0.41647 0.0
C466 C 0.58554 0.05777 0.35141 0.0
C467 C 0.60514 0.06141 0.35792 0.0
C468 C 0.6096 0.05047 0.39218 0.0
C469 C 0.59483 0.03679 0.42168 0.0
C470 C 0.62123 0.07789 0.33207 0.0
C471 C 0.62897 0.07314 0.29017 0.0
C472 C 0.62813 0.0983 0.3473 0.0
C473 C 0.62023 0.10406 0.39104 0.0
C474 C 0.6223 0.09841 0.43984 0.0
C475 C 0.6145 0.1036 0.48072 0.0
C476 C 0.60472 0.11458 0.4733 0.0
C477 C 0.6028 0.12045 0.42499 0.0
C478 C 0.61055 0.11526 0.38397 0.0
H479 H 0.59869 0.11859 0.50499 0.0
H480 H 0.66616 0.0668 0.09344 0.0
H481 H 0.49698 0.65114 0.13852 0.0
H482 H 0.49526 0.62518 0.19273 0.0
H483 H 0.54321 0.67125 0.29235 0.0
H484 H 0.54535 0.6971 0.23734 0.0
H485 H 0.54926 0.64147 0.28098 0.0
H486 H 0.49148 0.64628 0.31854 0.0
H487 H 0.45968 0.64557 0.29994 0.0
H488 H 0.43263 0.58398 0.2403 0.0
H489 H 0.46437 0.58442 0.25782 0.0
H490 H 0.53873 0.58665 0.4955 0.0
H491 H 0.53609 0.60997 0.43973 0.0
H492 H 0.49692 0.56022 0.3336 0.0
H493 H 0.49951 0.53662 0.3892 0.0
H494 H 0.48555 0.59016 0.34585 0.0
H495 H 0.5436 0.5857 0.3103 0.0
H496 H 0.57519 0.58642 0.33252 0.0
H497 H 0.60149 0.64797 0.39184 0.0
H498 H 0.56994 0.64752 0.37068 0.0
C499 C 0.50713 0.6557 0.17205 0.0
C500 C 0.5213 0.67617 0.18366 0.0
C501 C 0.50607 0.64085 0.20321 0.0
C502 C 0.51886 0.64619 0.24735 0.0
C503 C 0.53315 0.66665 0.25863 0.0
C504 C 0.53441 0.68145 0.22708 0.0
C505 C 0.51768 0.63056 0.28147 0.0
C506 C 0.53532 0.63047 0.29558 0.0
C507 C 0.49945 0.61572 0.29974 0.0
C508 C 0.48038 0.61547 0.28895 0.0
C509 C 0.47881 0.63265 0.30104 0.0
C510 C 0.46078 0.63228 0.29075 0.0
C511 C 0.44416 0.61477 0.26879 0.0
C512 C 0.44553 0.59756 0.25718 0.0
C513 C 0.46353 0.59785 0.2673 0.0
C514 C 0.52932 0.58054 0.46066 0.0
C515 C 0.51955 0.55971 0.44662 0.0
C516 C 0.52788 0.59395 0.42872 0.0
C517 C 0.51659 0.58688 0.3821 0.0
C518 C 0.50582 0.56601 0.36927 0.0
C519 C 0.50736 0.55255 0.40109 0.0
C520 C 0.51712 0.60144 0.34566 0.0
C521 C 0.49941 0.60124 0.33106 0.0
C522 C 0.53527 0.61611 0.32713 0.0
C523 C 0.55435 0.61651 0.33932 0.0
C524 C 0.55608 0.59934 0.32842 0.0
C525 C 0.57398 0.59971 0.34078 0.0
C526 C 0.59032 0.61722 0.36369 0.0
C527 C 0.58881 0.63442 0.37415 0.0
C528 C 0.57093 0.63412 0.36194 0.0
H529 H 0.60417 0.61747 0.37325 0.0
H530 H 0.43022 0.61451 0.2609 0.0
H531 H 0.86023 0.51055 0.09113 0.0
H532 H 0.89031 0.50901 0.11554 0.0
H533 H 0.91731 0.56928 0.18701 0.0
H534 H 0.88762 0.5711 0.16058 0.0
H535 H 0.94529 0.5634 0.14954 0.0
H536 H 0.88911 0.52633 0.25249 0.0
H537 H 0.85453 0.50037 0.26617 0.0
H538 H 0.8654 0.45417 0.20553 0.0
H539 H 0.89999 0.47994 0.19086 0.0
H540 H 0.99054 0.56648 0.38688 0.0
H541 H 0.97188 0.56615 0.31001 0.0
H542 H 0.966 0.50935 0.25688 0.0
H543 H 0.98501 0.50973 0.33387 0.0
H544 H 0.92988 0.50865 0.26495 0.0
H545 H 0.99034 0.54772 0.18742 0.0
H546 H 0.02493 0.57512 0.1809 0.0
H547 H 0.00652 0.61918 0.20146 0.0
H548 H 0.97186 0.59208 0.20889 0.0
C549 C 0.87281 0.52356 0.11119 0.0
C550 C 0.87166 0.54083 0.12483 0.0
C551 C 0.88994 0.5227 0.12504 0.0
C552 C 0.90588 0.53885 0.15409 0.0
C553 C 0.90521 0.55662 0.16468 0.0
C554 C 0.88824 0.55763 0.1499 0.0
C555 C 0.92203 0.5365 0.17903 0.0
C556 C 0.94198 0.55141 0.17467 0.0
C557 C 0.91772 0.52055 0.21084 0.0
C558 C 0.89701 0.50505 0.22 0.0
C559 C 0.88407 0.51065 0.24181 0.0
C560 C 0.86448 0.49597 0.24974 0.0
C561 C 0.85775 0.47564 0.23657 0.0
C562 C 0.87062 0.46993 0.21558 0.0
C563 C 0.89021 0.48456 0.20743 0.0
C564 C 0.98565 0.55413 0.35833 0.0
C565 C 0.98904 0.53803 0.36648 0.0
C566 C 0.97515 0.55405 0.31422 0.0
C567 C 0.96768 0.53778 0.27766 0.0
C568 C 0.97181 0.52211 0.28453 0.0
C569 C 0.98265 0.52235 0.32843 0.0
C570 C 0.95311 0.53594 0.23692 0.0
C571 C 0.93336 0.52026 0.23848 0.0
C572 C 0.95762 0.55139 0.20343 0.0
C573 C 0.97846 0.56782 0.19888 0.0
C574 C 0.99367 0.56325 0.19091 0.0
C575 C 0.0133 0.57874 0.18699 0.0
C576 C 0.01792 0.59888 0.19079 0.0
C577 C 0.00291 0.60357 0.19847 0.0
C578 C 0.98326 0.58814 0.20244 0.0
H579 H 0.03313 0.61084 0.18775 0.0
H580 H 0.84258 0.4643 0.24276 0.0
H581 H 0.34659 0.8376 0.16697 0.0
H582 H 0.37961 0.86204 0.20677 0.0
H583 H 0.35519 0.89693 0.2714 0.0
H584 H 0.32224 0.87248 0.23329 0.0
H585 H 0.3918 0.92061 0.22924 0.0
H586 H 0.36083 0.86375 0.33914 0.0
H587 H 0.34709 0.82798 0.35673 0.0
H588 H 0.40222 0.83134 0.32109 0.0
H589 H 0.41617 0.86707 0.30261 0.0
H590 H 0.43278 0.97345 0.45848 0.0
H591 H 0.41398 0.95092 0.38483 0.0
H592 H 0.4568 0.93063 0.37801 0.0
H593 H 0.47585 0.95335 0.45208 0.0
H594 H 0.41979 0.89947 0.37064 0.0
H595 H 0.45378 0.95817 0.28394 0.0
H596 H 0.4686 0.9941 0.26706 0.0
H597 H 0.41033 0.9879 0.25549 0.0
H598 H 0.39515 0.95201 0.2731 0.0
C599 C 0.34825 0.85044 0.18984 0.0
C600 C 0.33173 0.85306 0.19698 0.0
C601 C 0.36714 0.86443 0.21219 0.0
C602 C 0.3698 0.88127 0.2419 0.0
C603 C 0.35347 0.88413 0.24814 0.0
C604 C 0.33463 0.87015 0.22618 0.0
C605 C 0.38917 0.89553 0.26923 0.0
C606 C 0.39803 0.91605 0.26006 0.0
C607 C 0.39785 0.8894 0.30766 0.0
C608 C 0.38942 0.86796 0.31876 0.0
C609 C 0.36994 0.85679 0.33459 0.0
C610 C 0.36213 0.83654 0.34481 0.0
C611 C 0.37374 0.82736 0.33982 0.0
C612 C 0.39322 0.83844 0.32477 0.0
C613 C 0.40108 0.85869 0.3144 0.0
C614 C 0.43838 0.96439 0.44108 0.0
C615 C 0.45582 0.96516 0.46124 0.0
C616 C 0.4277 0.95163 0.3986 0.0
C617 C 0.43422 0.93939 0.37519 0.0
C618 C 0.45169 0.94019 0.39494 0.0
C619 C 0.46253 0.95314 0.43733 0.0
C620 C 0.42163 0.92473 0.33282 0.0
C621 C 0.4141 0.90411 0.33884 0.0
C622 C 0.41434 0.93076 0.29105 0.0
C623 C 0.42332 0.95235 0.27995 0.0
C624 C 0.44412 0.96448 0.27807 0.0
C625 C 0.45259 0.98485 0.26835 0.0
C626 C 0.44042 0.99327 0.26022 0.0
C627 C 0.41974 0.98134 0.26172 0.0
C628 C 0.41118 0.96096 0.27147 0.0
H629 H 0.44701 0.00905 0.25273 0.0
H630 H 0.36768 0.81169 0.34779 0.0
H631 H 0.48287 0.31915 0.31326 0.0
H632 H 0.48299 0.34235 0.37852 0.0
H633 H 0.41921 0.31578 0.35239 0.0
H634 H 0.41912 0.29302 0.28459 0.0
H635 H 0.43536 0.35458 0.36019 0.0
H636 H 0.43972 0.30879 0.46433 0.0
H637 H 0.45023 0.28573 0.49808 0.0
H638 H 0.50982 0.33535 0.53035 0.0
H639 H 0.49981 0.35868 0.496 0.0
H640 H 0.46395 0.43554 0.55793 0.0
H641 H 0.4473 0.39922 0.53142 0.0
H642 H 0.4995 0.40918 0.4561 0.0
H643 H 0.51574 0.44525 0.48068 0.0
H644 H 0.47735 0.37142 0.52107 0.0
H645 H 0.47042 0.41098 0.38053 0.0
H646 H 0.45859 0.4339 0.35294 0.0
H647 H 0.40023 0.3933 0.40053 0.0
H648 H 0.41185 0.37027 0.42886 0.0
C649 C 0.46886 0.31834 0.32078 0.0
C650 C 0.45101 0.30431 0.29329 0.0
C651 C 0.46889 0.33137 0.35899 0.0
C652 C 0.45103 0.33049 0.37136 0.0
C653 C 0.43313 0.31656 0.34395 0.0
C654 C 0.43311 0.30354 0.30532 0.0
C655 C 0.45167 0.34535 0.41014 0.0
C656 C 0.44398 0.35778 0.39611 0.0
C657 C 0.46265 0.34949 0.45754 0.0
C658 C 0.46899 0.3355 0.47731 0.0
C659 C 0.45512 0.31478 0.47816 0.0
C660 C 0.46099 0.30165 0.4975 0.0
C661 C 0.48068 0.30906 0.51631 0.0
C662 C 0.49457 0.32962 0.51577 0.0
C663 C 0.48879 0.34282 0.4964 0.0
C664 C 0.47189 0.42978 0.53649 0.0
C665 C 0.491 0.44299 0.52092 0.0
C666 C 0.46243 0.40917 0.52154 0.0
C667 C 0.4723 0.40168 0.49218 0.0
C668 C 0.49178 0.41475 0.47915 0.0
C669 C 0.50096 0.43529 0.49282 0.0
C670 C 0.46199 0.38086 0.46932 0.0
C671 C 0.46794 0.36745 0.48624 0.0
C672 C 0.44906 0.37552 0.42529 0.0
C673 C 0.442 0.38904 0.40703 0.0
C674 C 0.45509 0.40701 0.3852 0.0
C675 C 0.44843 0.42 0.36946 0.0
C676 C 0.42867 0.41508 0.37507 0.0
C677 C 0.41552 0.39711 0.39626 0.0
C678 C 0.42213 0.38408 0.41213 0.0
H679 H 0.42355 0.42517 0.36295 0.0
H680 H 0.48518 0.29888 0.53134 0.0
H681 H 0.50033 0.81346 0.85105 0.0
H682 H 0.49984 0.83875 0.79755 0.0
H683 H 0.54724 0.88628 0.89508 0.0
H684 H 0.548 0.86108 0.94819 0.0
H685 H 0.51277 0.89073 0.87296 0.0
H686 H 0.55885 0.87651 0.78773 0.0
H687 H 0.56925 0.85457 0.74421 0.0
H688 H 0.52157 0.83606 0.62928 0.0
H689 H 0.51067 0.85765 0.67263 0.0
H690 H 0.53429 0.97541 0.74608 0.0
H691 H 0.53952 0.94965 0.78375 0.0
H692 H 0.5021 0.90645 0.66181 0.0
H693 H 0.49773 0.93274 0.6225 0.0
H694 H 0.53003 0.89813 0.69349 0.0
H695 H 0.48278 0.9101 0.77475 0.0
H696 H 0.47005 0.93042 0.81611 0.0
H697 H 0.51602 0.95035 0.93641 0.0
H698 H 0.5292 0.93035 0.89539 0.0
C699 C 0.51063 0.82931 0.86101 0.0
C700 C 0.52419 0.83533 0.90382 0.0
C701 C 0.51043 0.84371 0.83027 0.0
C702 C 0.52358 0.86437 0.84221 0.0
C703 C 0.53703 0.87041 0.88511 0.0
C704 C 0.53748 0.85602 0.91532 0.0
C705 C 0.52281 0.87978 0.81128 0.0
C706 C 0.5168 0.89254 0.83394 0.0
C707 C 0.52728 0.88155 0.75974 0.0
C708 C 0.53379 0.86851 0.73379 0.0
C709 C 0.55044 0.86759 0.75351 0.0
C710 C 0.55645 0.85525 0.72879 0.0
C711 C 0.54604 0.84387 0.6841 0.0
C712 C 0.5296 0.84485 0.66397 0.0
C713 C 0.5235 0.85714 0.68859 0.0
C714 C 0.52768 0.96057 0.72658 0.0
C715 C 0.51551 0.95595 0.68171 0.0
C716 C 0.53051 0.94579 0.74833 0.0
C717 C 0.52061 0.92588 0.72666 0.0
C718 C 0.5097 0.92163 0.67958 0.0
C719 C 0.50725 0.93664 0.65705 0.0
C720 C 0.52038 0.90943 0.75553 0.0
C721 C 0.52602 0.89637 0.73251 0.0
C722 C 0.51512 0.90702 0.80658 0.0
C723 C 0.50708 0.91886 0.83176 0.0
C724 C 0.49024 0.9189 0.80989 0.0
C725 C 0.48293 0.93036 0.83328 0.0
C726 C 0.49226 0.94171 0.8788 0.0
C727 C 0.50884 0.94157 0.90112 0.0
C728 C 0.51622 0.93016 0.87784 0.0
H729 H 0.48663 0.95062 0.89683 0.0
H730 H 0.55073 0.83435 0.665 0.0
H731 H 0.69482 0.55441 0.96562 0.0
H732 H 0.66352 0.54941 0.92703 0.0
H733 H 0.63409 0.48671 0.96075 0.0
H734 H 0.66577 0.49134 0.99685 0.0
H735 H 0.625 0.48933 0.86747 0.0
H736 H 0.62407 0.52167 0.02216 0.0
H737 H 0.63715 0.54718 0.09434 0.0
H738 H 0.64566 0.5932 0.99425 0.0
H739 H 0.63312 0.56814 0.92121 0.0
H740 H 0.54066 0.48665 0.73714 0.0
H741 H 0.56006 0.48438 0.80959 0.0
H742 H 0.60736 0.54506 0.79108 0.0
H743 H 0.58818 0.5475 0.71926 0.0
H744 H 0.60018 0.53735 0.89226 0.0
H745 H 0.6098 0.50576 0.73911 0.0
H746 H 0.59714 0.48051 0.66628 0.0
H747 H 0.57129 0.43269 0.76731 0.0
H748 H 0.58367 0.45772 0.84072 0.0
C749 C 0.68172 0.53953 0.96484 0.0
C750 C 0.68289 0.52323 0.98387 0.0
C751 C 0.66371 0.53676 0.94349 0.0
C752 C 0.64633 0.51773 0.9416 0.0
C753 C 0.64727 0.50156 0.96205 0.0
C754 C 0.66538 0.50427 0.98301 0.0
C755 C 0.62781 0.51452 0.91393 0.0
C756 C 0.61923 0.49949 0.87394 0.0
C757 C 0.62028 0.52781 0.92204 0.0
C758 C 0.62767 0.54297 0.96604 0.0
C759 C 0.62883 0.53724 0.01542 0.0
C760 C 0.63615 0.55163 0.05653 0.0
C761 C 0.6422 0.57177 0.0489 0.0
C762 C 0.64095 0.57759 1.00011 0.0
C763 C 0.63372 0.56329 0.95883 0.0
C764 C 0.5551 0.49957 0.7489 0.0
C765 C 0.56297 0.51718 0.72215 0.0
C766 C 0.56614 0.49825 0.79026 0.0
C767 C 0.58516 0.51454 0.80549 0.0
C768 C 0.59268 0.53235 0.78003 0.0
C769 C 0.58175 0.53364 0.73866 0.0
C770 C 0.59814 0.5128 0.84513 0.0
C771 C 0.60562 0.52685 0.88718 0.0
C772 C 0.60461 0.49858 0.83924 0.0
C773 C 0.59747 0.48357 0.79525 0.0
C774 C 0.60133 0.48986 0.74572 0.0
C775 C 0.59422 0.4756 0.70437 0.0
C776 C 0.58337 0.45501 0.71215 0.0
C777 C 0.57967 0.44864 0.76133 0.0
C778 C 0.58675 0.46285 0.80282 0.0
H779 H 0.57786 0.44399 0.68009 0.0
H780 H 0.64785 0.58287 0.08079 0.0
H781 H 0.12261 0.70822 0.97551 0.0
H782 H 0.0973 0.68324 0.91262 0.0
H783 H 0.14238 0.6745 0.84489 0.0
H784 H 0.16768 0.69942 0.90735 0.0
H785 H 0.11415 0.67529 0.77278 0.0
H786 H 0.11654 0.64345 0.9268 0.0
H787 H 0.11491 0.63968 0.0189 0.0
H788 H 0.05563 0.631 0.01064 0.0
H789 H 0.05704 0.63501 0.91852 0.0
H790 H 0.0644 0.57572 0.65651 0.0
H791 H 0.08506 0.60951 0.69808 0.0
H792 H 0.03501 0.60188 0.78063 0.0
H793 H 0.0149 0.56759 0.74174 0.0
H794 H 0.06359 0.61225 0.84344 0.0
H795 H 0.05843 0.63864 0.68733 0.0
H796 H 0.05955 0.64266 0.59533 0.0
H797 H 0.12205 0.66202 0.60496 0.0
H798 H 0.12129 0.65784 0.69697 0.0
C799 C 0.12711 0.70111 0.94682 0.0
C800 C 0.147 0.70548 0.94668 0.0
C801 C 0.11269 0.68692 0.91095 0.0
C802 C 0.11802 0.67704 0.87427 0.0
C803 C 0.13802 0.68203 0.87279 0.0
C804 C 0.15237 0.69604 0.90885 0.0
C805 C 0.10258 0.6601 0.84062 0.0
C806 C 0.10304 0.66144 0.78789 0.0
C807 C 0.08788 0.64232 0.86068 0.0
C808 C 0.08699 0.63977 0.91595 0.0
C809 C 0.10323 0.6409 0.94472 0.0
C810 C 0.10234 0.6387 0.99689 0.0
C811 C 0.0852 0.63517 0.02064 0.0
C812 C 0.06891 0.63378 0.99222 0.0
C813 C 0.06974 0.63601 0.94003 0.0
C814 C 0.05777 0.58152 0.68269 0.0
C815 C 0.03825 0.56913 0.69661 0.0
C816 C 0.06952 0.6009 0.70622 0.0
C817 C 0.06164 0.60836 0.74263 0.0
C818 C 0.04153 0.59644 0.75314 0.0
C819 C 0.03003 0.5769 0.73087 0.0
C820 C 0.07489 0.62716 0.77473 0.0
C821 C 0.07423 0.62616 0.8276 0.0
C822 C 0.0892 0.64526 0.75453 0.0
C823 C 0.08977 0.64783 0.69913 0.0
C824 C 0.07239 0.64362 0.66983 0.0
C825 C 0.07297 0.64595 0.61767 0.0
C826 C 0.09087 0.65262 0.59438 0.0
C827 C 0.10822 0.6569 0.62313 0.0
C828 C 0.10772 0.65458 0.67531 0.0
H829 H 0.0913 0.65456 0.5541 0.0
H830 H 0.08453 0.63345 0.06104 0.0
H831 H 0.45551 0.13604 0.01231 0.0
H832 H 0.46398 0.11499 0.95931 0.0
H833 H 0.5256 0.16254 0.96872 0.0
H834 H 0.51707 0.18398 0.02064 0.0
H835 H 0.51359 0.14782 0.87378 0.0
H836 H 0.51258 0.12001 0.0308 0.0
H837 H 0.50046 0.10552 0.11227 0.0
H838 H 0.44845 0.05571 0.03443 0.0
H839 H 0.46022 0.06996 0.9524 0.0
H840 H 0.51475 0.04678 0.80498 0.0
H841 H 0.51743 0.0727 0.86552 0.0
H842 H 0.49062 0.09292 0.75325 0.0
H843 H 0.48754 0.06672 0.69216 0.0
H844 H 0.49182 0.07669 0.90637 0.0
H845 H 0.50282 0.14227 0.77997 0.0
H846 H 0.51961 0.15765 0.70325 0.0
H847 H 0.55927 0.13426 0.72636 0.0
H848 H 0.54294 0.11902 0.80359 0.0
C849 C 0.47087 0.14201 0.00317 0.0
C850 C 0.48561 0.16168 0.0205 0.0
C851 C 0.47573 0.1299 0.97327 0.0
C852 C 0.49546 0.13714 0.96039 0.0
C853 C 0.51029 0.15665 0.97832 0.0
C854 C 0.50543 0.1688 0.00832 0.0
C855 C 0.50021 0.12457 0.9262 0.0
C856 C 0.50898 0.13229 0.88086 0.0
C857 C 0.4947 0.10453 0.93622 0.0
C858 C 0.48723 0.09614 0.98549 0.0
C859 C 0.49847 0.10606 0.03108 0.0
C860 C 0.49169 0.09786 0.07736 0.0
C861 C 0.47368 0.07972 0.07856 0.0
C862 C 0.4624 0.06976 0.03345 0.0
C863 C 0.46914 0.07787 0.98704 0.0
C864 C 0.50988 0.05704 0.79255 0.0
C865 C 0.50084 0.05458 0.7437 0.0
C866 C 0.51156 0.072 0.82731 0.0
C867 C 0.50477 0.08521 0.81382 0.0
C868 C 0.49651 0.08334 0.7643 0.0
C869 C 0.49467 0.06825 0.72942 0.0
C870 C 0.50475 0.09966 0.85282 0.0
C871 C 0.49674 0.09228 0.89915 0.0
C872 C 0.51156 0.12018 0.84415 0.0
C873 C 0.52158 0.12942 0.79769 0.0
C874 C 0.51523 0.14054 0.76898 0.0
C875 C 0.52467 0.14924 0.72535 0.0
C876 C 0.54051 0.14696 0.70996 0.0
C877 C 0.54699 0.13601 0.73827 0.0
C878 C 0.53764 0.12735 0.78202 0.0
H879 H 0.54773 0.15363 0.67603 0.0
H880 H 0.46848 0.07335 0.11442 0.0
H881 H 0.31151 0.45658 0.9873 0.0
H882 H 0.34016 0.45788 0.94839 0.0
H883 H 0.37543 0.52155 0.99227 0.0
H884 H 0.34669 0.52035 0.03091 0.0
H885 H 0.38181 0.51455 0.89856 0.0
H886 H 0.38107 0.48687 0.05529 0.0
H887 H 0.36746 0.46419 0.12459 0.0
H888 H 0.35607 0.41357 0.02455 0.0
H889 H 0.36928 0.4359 0.95431 0.0
H890 H 0.47065 0.51446 0.83003 0.0
H891 H 0.44737 0.5166 0.88686 0.0
H892 H 0.40078 0.45784 0.82705 0.0
H893 H 0.42372 0.45576 0.76961 0.0
H894 H 0.40383 0.4655 0.93792 0.0
H895 H 0.40064 0.49447 0.77916 0.0
H896 H 0.41575 0.51834 0.71273 0.0
H897 H 0.43663 0.56829 0.82349 0.0
H898 H 0.42193 0.54468 0.89078 0.0
C899 C 0.32541 0.47083 0.98889 0.0
C900 C 0.32688 0.48835 0.01229 0.0
C901 C 0.34178 0.47156 0.96672 0.0
C902 C 0.36006 0.48975 0.9681 0.0
C903 C 0.36149 0.50734 0.99081 0.0
C904 C 0.34506 0.50665 0.01272 0.0
C905 C 0.37751 0.49037 0.94511 0.0
C906 C 0.38684 0.50406 0.90794 0.0
C907 C 0.38408 0.47665 0.95718 0.0
C908 C 0.3761 0.46309 0.99936 0.0
C909 C 0.37556 0.47089 0.04792 0.0
C910 C 0.36792 0.45809 0.08741 0.0
C911 C 0.36091 0.43745 0.07898 0.0
C912 C 0.36152 0.42957 0.03103 0.0
C913 C 0.36909 0.4423 0.99135 0.0
C914 C 0.45552 0.50189 0.82959 0.0
C915 C 0.44894 0.48499 0.79521 0.0
C916 C 0.44227 0.50316 0.86192 0.0
C917 C 0.42239 0.48739 0.86092 0.0
C918 C 0.41608 0.47012 0.8284 0.0
C919 C 0.42917 0.46902 0.79546 0.0
C920 C 0.40766 0.48932 0.89095 0.0
C921 C 0.39889 0.47612 0.92933 0.0
C922 C 0.40178 0.50366 0.88059 0.0
C923 C 0.41041 0.51782 0.84007 0.0
C924 C 0.40861 0.51054 0.78942 0.0
C925 C 0.41707 0.52402 0.75159 0.0
C926 C 0.42719 0.54481 0.76389 0.0
C927 C 0.42882 0.55218 0.81403 0.0
C928 C 0.42043 0.53876 0.85202 0.0
H929 H 0.43374 0.55522 0.73456 0.0
H930 H 0.35501 0.42757 0.10962 0.0
H931 H 0.82579 0.30898 0.87544 0.0
H932 H 0.84471 0.33606 0.8203 0.0
H933 H 0.86585 0.37959 0.94871 0.0
H934 H 0.84726 0.35245 0.00465 0.0
H935 H 0.85526 0.39291 0.8576 0.0
H936 H 0.89511 0.36383 0.91363 0.0
H937 H 0.90156 0.33582 0.92678 0.0
H938 H 0.89227 0.32004 0.76663 0.0
H939 H 0.88546 0.3478 0.75262 0.0
H940 H 0.94713 0.47171 0.77795 0.0
H941 H 0.91782 0.44616 0.81635 0.0
H942 H 0.90722 0.40334 0.69146 0.0
H943 H 0.93697 0.42867 0.65354 0.0
H944 H 0.90963 0.38864 0.77579 0.0
H945 H 0.8763 0.42255 0.71821 0.0
H946 H 0.87043 0.4509 0.70545 0.0
H947 H 0.8659 0.45756 0.86528 0.0
H948 H 0.87298 0.43009 0.8796 0.0
C949 C 0.83452 0.32429 0.89215 0.0
C950 C 0.83527 0.32847 0.9447 0.0
C951 C 0.84515 0.33977 0.86043 0.0
C952 C 0.85675 0.3598 0.88048 0.0
C953 C 0.85689 0.36422 0.93249 0.0
C954 C 0.84628 0.34869 0.96439 0.0
C955 C 0.87009 0.37573 0.84784 0.0
C956 C 0.86731 0.39222 0.83993 0.0
C957 C 0.88537 0.37436 0.8238 0.0
C958 C 0.88955 0.35773 0.83215 0.0
C959 C 0.89427 0.35427 0.88127 0.0
C960 C 0.89802 0.33846 0.88888 0.0
C961 C 0.89726 0.32612 0.84759 0.0
C962 C 0.89281 0.32959 0.79859 0.0
C963 C 0.88901 0.34536 0.79079 0.0
C964 C 0.93834 0.457 0.75797 0.0
C965 C 0.94466 0.4521 0.71318 0.0
C966 C 0.92145 0.4424 0.77993 0.0
C967 C 0.91034 0.42274 0.75703 0.0
C968 C 0.91567 0.41835 0.7101 0.0
C969 C 0.93268 0.43286 0.6884 0.0
C970 C 0.89504 0.40619 0.78515 0.0
C971 C 0.89749 0.38947 0.7926 0.0
C972 C 0.87951 0.4075 0.80852 0.0
C973 C 0.87545 0.42429 0.80008 0.0
C974 C 0.87444 0.43027 0.75086 0.0
C975 C 0.87094 0.44625 0.74334 0.0
C976 C 0.86795 0.45614 0.78457 0.0
C977 C 0.8684 0.45001 0.8334 0.0
C978 C 0.87229 0.4343 0.84128 0.0
H979 H 0.86518 0.46847 0.77867 0.0
H980 H 0.90018 0.31389 0.85354 0.0
H981 H 0.82865 0.48692 0.90504 0.0
H982 H 0.85431 0.48588 0.85624 0.0
H983 H 0.87813 0.54844 0.82656 0.0
H984 H 0.85351 0.55012 0.87764 0.0
H985 H 0.87069 0.52105 0.73918 0.0
H986 H 0.90008 0.53861 0.9091 0.0
H987 H 0.9027 0.53431 1.00026 0.0
H988 H 0.90659 0.48115 0.96664 0.0
H989 H 0.90367 0.48492 0.87521 0.0
H990 H 0.96522 0.55304 0.6475 0.0
H991 H 0.93863 0.5496 0.70002 0.0
H992 H 0.92309 0.48831 0.72525 0.0
H993 H 0.94932 0.49144 0.67141 0.0
H994 H 0.9251 0.51189 0.81486 0.0
H995 H 0.89416 0.49353 0.64603 0.0
H996 H 0.89164 0.49786 0.55467 0.0
H997 H 0.89214 0.55343 0.5882 0.0
H998 H 0.89496 0.54958 0.67981 0.0
C999 C 0.83949 0.50057 0.88883 0.0
C1000 C 0.83887 0.51862 0.89545 0.0
C1001 C 0.85406 0.49987 0.86068 0.0
C1002 C 0.86808 0.51709 0.83803 0.0
C1003 C 0.86734 0.53497 0.84366 0.0
C1004 C 0.85308 0.53581 0.87254 0.0
C1005 C 0.88347 0.51658 0.80782 0.0
C1006 C 0.88265 0.51917 0.7558 0.0
C1007 C 0.8988 0.51369 0.82964 0.0
C1008 C 0.90087 0.51162 0.88493 0.0
C1009 C 0.90104 0.52574 0.92095 0.0
C1010 C 0.90274 0.52348 0.9728 0.0
C1011 C 0.90461 0.50735 0.98925 0.0
C1012 C 0.90496 0.49354 0.95388 0.0
C1013 C 0.90324 0.49572 0.902 0.0
C1014 C 0.95616 0.5388 0.6641 0.0
C1015 C 0.95956 0.52255 0.65568 0.0
C1016 C 0.94101 0.53689 0.69421 0.0
C1017 C 0.92894 0.51871 0.71646 0.0
C1018 C 0.93238 0.50252 0.70874 0.0
C1019 C 0.94745 0.50438 0.67823 0.0
C1020 C 0.91237 0.51658 0.74651 0.0
C1021 C 0.91297 0.51351 0.79835 0.0
C1022 C 0.89683 0.51907 0.7248 0.0
C1023 C 0.89494 0.52135 0.66976 0.0
C1024 C 0.89389 0.50675 0.63391 0.0
C1025 C 0.89237 0.5091 0.58209 0.0
C1026 C 0.89177 0.52593 0.56564 0.0
C1027 C 0.89262 0.54041 0.601 0.0
C1028 C 0.89415 0.53814 0.65288 0.0
H1029 H 0.89061 0.52773 0.5255 0.0
H1030 H 0.90595 0.50565 0.02939 0.0
H1031 H 0.28992 0.87846 0.9568 0.0
H1032 H 0.31341 0.90412 0.90364 0.0
H1033 H 0.32946 0.86154 0.8426 0.0
H1034 H 0.30565 0.83568 0.89399 0.0
H1035 H 0.36198 0.89862 0.88388 0.0
H1036 H 0.30253 0.8735 0.77042 0.0
H1037 H 0.26814 0.86571 0.7475 0.0
H1038 H 0.28566 0.92811 0.77663 0.0
H1039 H 0.32013 0.93623 0.80045 0.0
H1040 H 0.42186 0.93877 0.68955 0.0
H1041 H 0.39154 0.9172 0.73127 0.0
H1042 H 0.38348 0.96823 0.76386 0.0
H1043 H 0.4138 0.9899 0.72014 0.0
H1044 H 0.34689 0.93137 0.74392 0.0
H1045 H 0.40615 0.95744 0.8525 0.0
H1046 H 0.44073 0.96618 0.87693 0.0
H1047 H 0.42378 0.90353 0.86177 0.0
H1048 H 0.38912 0.89442 0.83652 0.0
C1049 C 0.29815 0.87443 0.93131 0.0
C1050 C 0.29603 0.85504 0.9301 0.0
C1051 C 0.3116 0.88913 0.90111 0.0
C1052 C 0.32317 0.8847 0.8694 0.0
C1053 C 0.32073 0.86527 0.86712 0.0
C1054 C 0.30721 0.85055 0.89684 0.0
C1055 C 0.33885 0.90052 0.84091 0.0
C1056 C 0.35866 0.90568 0.85307 0.0
C1057 C 0.33454 0.91031 0.80219 0.0
C1058 C 0.31384 0.90543 0.78783 0.0
C1059 C 0.29901 0.88553 0.77244 0.0
C1060 C 0.27951 0.88106 0.75917 0.0
C1061 C 0.2747 0.89639 0.76077 0.0
C1062 C 0.2894 0.91624 0.7755 0.0
C1063 C 0.30892 0.92079 0.78886 0.0
C1064 C 0.4133 0.94525 0.70439 0.0
C1065 C 0.42007 0.9659 0.70203 0.0
C1066 C 0.39605 0.93297 0.72833 0.0
C1067 C 0.38555 0.94123 0.75165 0.0
C1068 C 0.39145 0.96162 0.74624 0.0
C1069 C 0.40868 0.97394 0.72133 0.0
C1070 C 0.3699 0.92887 0.78583 0.0
C1071 C 0.3502 0.92448 0.77512 0.0
C1072 C 0.37427 0.91991 0.82656 0.0
C1073 C 0.39505 0.92527 0.84233 0.0
C1074 C 0.40982 0.94553 0.85408 0.0
C1075 C 0.42942 0.95055 0.86811 0.0
C1076 C 0.43444 0.93542 0.87087 0.0
C1077 C 0.41985 0.91523 0.85964 0.0
C1078 C 0.40022 0.91013 0.84554 0.0
H1079 H 0.44961 0.93934 0.88184 0.0
H1080 H 0.2596 0.89291 0.75046 0.0
H1081 H 0.49903 0.32853 0.00129 0.0
H1082 H 0.50246 0.3534 0.94155 0.0
H1083 H 0.44168 0.31426 0.88218 0.0
H1084 H 0.43828 0.28895 0.94122 0.0
H1085 H 0.46693 0.33163 0.80586 0.0
H1086 H 0.45248 0.35379 0.96185 0.0
H1087 H 0.45666 0.36316 0.05353 0.0
H1088 H 0.5164 0.41112 0.03715 0.0
H1089 H 0.51267 0.40185 0.94543 0.0
H1090 H 0.45719 0.40939 0.68514 0.0
H1091 H 0.45411 0.38095 0.73109 0.0
H1092 H 0.51287 0.41913 0.80436 0.0
H1093 H 0.51582 0.44768 0.7597 0.0
H1094 H 0.48737 0.40114 0.87227 0.0
H1095 H 0.5013 0.37916 0.71419 0.0
H1096 H 0.49636 0.36963 0.62241 0.0
H1097 H 0.43707 0.32143 0.6418 0.0
H1098 H 0.44151 0.33084 0.73355 0.0
C1099 C 0.48641 0.32509 0.97529 0.0
C1100 C 0.46836 0.30672 0.97617 0.0
C1101 C 0.48836 0.33941 0.94132 0.0
C1102 C 0.47229 0.33579 0.90756 0.0
C1103 C 0.45429 0.31739 0.90787 0.0
C1104 C 0.4523 0.30304 0.94202 0.0
C1105 C 0.47425 0.35148 0.87293 0.0
C1106 C 0.47117 0.34678 0.8203 0.0
C1107 C 0.48008 0.37134 0.8917 0.0
C1108 C 0.48235 0.377 0.94684 0.0
C1109 C 0.46656 0.36624 0.97786 0.0
C1110 C 0.46884 0.37154 0.02983 0.0
C1111 C 0.4868 0.38769 0.05118 0.0
C1112 C 0.5025 0.3986 0.02057 0.0
C1113 C 0.50031 0.39333 0.96858 0.0
C1114 C 0.46964 0.41162 0.71015 0.0
C1115 C 0.48667 0.43088 0.71909 0.0
C1116 C 0.46787 0.3953 0.73641 0.0
C1117 C 0.48323 0.39785 0.77144 0.0
C1118 C 0.50073 0.41679 0.77793 0.0
C1119 C 0.50243 0.43311 0.75217 0.0
C1120 C 0.48045 0.38151 0.80486 0.0
C1121 C 0.48324 0.38605 0.85753 0.0
C1122 C 0.47431 0.36156 0.78595 0.0
C1123 C 0.47168 0.35584 0.73075 0.0
C1124 C 0.48714 0.36663 0.69885 0.0
C1125 C 0.48444 0.36124 0.64683 0.0
C1126 C 0.46639 0.34498 0.62632 0.0
C1127 C 0.45103 0.33404 0.65776 0.0
C1128 C 0.45363 0.33939 0.70977 0.0
H1129 H 0.4643 0.34082 0.58611 0.0
H1130 H 0.48854 0.39178 0.09142 0.0
H1131 H 0.15807 0.49269 0.03044 0.0
H1132 H 0.12712 0.48543 0.98329 0.0
H1133 H 0.11611 0.42596 0.93663 0.0
H1134 H 0.1471 0.4331 0.98447 0.0
H1135 H 0.11327 0.44958 0.85633 0.0
H1136 H 0.08727 0.42644 0.01592 0.0
H1137 H 0.08658 0.42834 0.10895 0.0
H1138 H 0.08092 0.48124 0.10347 0.0
H1139 H 0.08188 0.47986 0.01044 0.0
H1140 H 0.02551 0.43956 0.73054 0.0
H1141 H 0.04577 0.43039 0.78458 0.0
H1142 H 0.06427 0.48385 0.88297 0.0
H1143 H 0.04369 0.49272 0.8305 0.0
H1144 H 0.05879 0.45395 0.93749 0.0
H1145 H 0.09241 0.48191 0.78451 0.0
H1146 H 0.09498 0.48264 0.6919 0.0
H1147 H 0.08816 0.42339 0.68542 0.0
H1148 H 0.0853 0.42222 0.77798 0.0
C1149 C 0.149 0.47806 0.01024 0.0
C1150 C 0.15489 0.46345 0.01086 0.0
C1151 C 0.13133 0.47389 0.98363 0.0
C1152 C 0.11935 0.45513 0.95687 0.0
C1153 C 0.12517 0.44048 0.95732 0.0
C1154 C 0.14275 0.44454 0.98467 0.0
C1155 C 0.10121 0.45142 0.92692 0.0
C1156 C 0.10105 0.44999 0.87393 0.0
C1157 C 0.08555 0.45231 0.95018 0.0
C1158 C 0.08475 0.45309 0.00615 0.0
C1159 C 0.08601 0.43856 0.03456 0.0
C1160 C 0.08555 0.43953 0.0873 0.0
C1161 C 0.08373 0.45491 0.11211 0.0
C1162 C 0.08232 0.46933 0.0842 0.0
C1163 C 0.08279 0.46844 0.03144 0.0
C1164 C 0.03371 0.44922 0.76404 0.0
C1165 C 0.03315 0.46699 0.77589 0.0
C1166 C 0.0453 0.44398 0.79481 0.0
C1167 C 0.05678 0.45661 0.83735 0.0
C1168 C 0.05553 0.47385 0.85036 0.0
C1169 C 0.0438 0.47896 0.8201 0.0
C1170 C 0.07119 0.4529 0.86677 0.0
C1171 C 0.07067 0.45295 0.91974 0.0
C1172 C 0.08641 0.45106 0.84348 0.0
C1173 C 0.0884 0.45187 0.788 0.0
C1174 C 0.09135 0.469 0.76327 0.0
C1175 C 0.09286 0.46949 0.71081 0.0
C1176 C 0.09166 0.45304 0.68276 0.0
C1177 C 0.08903 0.4361 0.70717 0.0
C1178 C 0.08747 0.43551 0.75962 0.0
H1179 H 0.09282 0.45345 0.64215 0.0
H1180 H 0.08339 0.45565 0.15295 0.0
H1181 H 0.69173 0.13743 0.98966 0.0
H1182 H 0.6623 0.10918 0.94438 0.0
H1183 H 0.66584 0.14739 0.8252 0.0
H1184 H 0.69596 0.17545 0.8683 0.0
H1185 H 0.62662 0.12314 0.88686 0.0
H1186 H 0.67607 0.11953 0.78418 0.0
H1187 H 0.70601 0.11649 0.77434 0.0
H1188 H 0.67849 0.06038 0.84615 0.0
H1189 H 0.6485 0.06327 0.85708 0.0
H1190 H 0.55353 0.06118 0.69102 0.0
H1191 H 0.57962 0.08535 0.75293 0.0
H1192 H 0.59119 0.03851 0.80021 0.0
H1193 H 0.56621 0.01489 0.73534 0.0
H1194 H 0.62337 0.06635 0.78248 0.0
H1195 H 0.57352 0.06668 0.88185 0.0
H1196 H 0.54585 0.0705 0.91241 0.0
H1197 H 0.57332 0.13087 0.86376 0.0
H1198 H 0.60095 0.12733 0.83219 0.0
C1199 C 0.68663 0.13976 0.95317 0.0
C1200 C 0.69623 0.15883 0.93282 0.0
C1201 C 0.66972 0.12361 0.92761 0.0
C1202 C 0.66202 0.12633 0.8817 0.0
C1203 C 0.67165 0.14512 0.86077 0.0
C1204 C 0.68875 0.16116 0.88573 0.0
C1205 C 0.64315 0.10995 0.85701 0.0
C1206 C 0.62573 0.11074 0.8634 0.0
C1207 C 0.64218 0.0935 0.82878 0.0
C1208 C 0.66017 0.09176 0.82205 0.0
C1209 C 0.67651 0.10667 0.7984 0.0
C1210 C 0.69346 0.10495 0.79248 0.0
C1211 C 0.69419 0.08829 0.80978 0.0
C1212 C 0.67793 0.0733 0.83287 0.0
C1213 C 0.66095 0.07497 0.8389 0.0
C1214 C 0.56133 0.056 0.71567 0.0
C1215 C 0.55811 0.03633 0.7083 0.0
C1216 C 0.57619 0.06979 0.75141 0.0
C1217 C 0.5876 0.06391 0.78149 0.0
C1218 C 0.58292 0.04362 0.7771 0.0
C1219 C 0.56856 0.03006 0.74028 0.0
C1220 C 0.60612 0.07927 0.81145 0.0
C1221 C 0.62376 0.07845 0.80607 0.0
C1222 C 0.60715 0.09552 0.84165 0.0
C1223 C 0.58926 0.09667 0.85435 0.0
C1224 C 0.57344 0.08061 0.87666 0.0
C1225 C 0.55783 0.08279 0.89448 0.0
C1226 C 0.55787 0.10095 0.89016 0.0
C1227 C 0.5733 0.11682 0.86709 0.0
C1228 C 0.58892 0.11472 0.84918 0.0
H1229 H 0.54598 0.10278 0.90478 0.0
H1230 H 0.70732 0.08697 0.80515 0.0
H1231 H 0.55492 0.67982 0.94255 0.0
H1232 H 0.56121 0.65973 0.87987 0.0
H1233 H 0.56951 0.70234 0.76803 0.0
H1234 H 0.56338 0.72268 0.83116 0.0
H1235 H 0.54111 0.66213 0.73733 0.0
H1236 H 0.60856 0.69871 0.7988 0.0
H1237 H 0.6372 0.7156 0.86211 0.0
H1238 H 0.62066 0.65881 0.92435 0.0
H1239 H 0.59173 0.6416 0.86198 0.0
H1240 H 0.53563 0.57445 0.61081 0.0
H1241 H 0.55106 0.61098 0.63124 0.0
H1242 H 0.55259 0.60126 0.79054 0.0
H1243 H 0.53764 0.56531 0.7708 0.0
H1244 H 0.58635 0.63465 0.76776 0.0
H1245 H 0.51305 0.60378 0.73101 0.0
H1246 H 0.48291 0.58591 0.67228 0.0
H1247 H 0.51039 0.63167 0.56649 0.0
H1248 H 0.54073 0.64971 0.6246 0.0
C1249 C 0.55841 0.68504 0.90483 0.0
C1250 C 0.55865 0.7027 0.89149 0.0
C1251 C 0.56215 0.67369 0.8692 0.0
C1252 C 0.56602 0.6797 0.81951 0.0
C1253 C 0.56674 0.6976 0.80633 0.0
C1254 C 0.56328 0.70917 0.84232 0.0
C1255 C 0.567 0.66585 0.78083 0.0
C1256 C 0.55144 0.65657 0.74271 0.0
C1257 C 0.58049 0.65864 0.78792 0.0
C1258 C 0.59794 0.66885 0.82556 0.0
C1259 C 0.61096 0.68982 0.82614 0.0
C1260 C 0.62726 0.69946 0.86187 0.0
C1261 C 0.63075 0.68828 0.89721 0.0
C1262 C 0.61796 0.66744 0.89688 0.0
C1263 C 0.60162 0.65773 0.86124 0.0
C1264 C 0.5395 0.5802 0.65009 0.0
C1265 C 0.53518 0.56696 0.68921 0.0
C1266 C 0.54833 0.60103 0.66165 0.0
C1267 C 0.55294 0.60879 0.71241 0.0
C1268 C 0.54932 0.59563 0.75109 0.0
C1269 C 0.54053 0.57499 0.7397 0.0
C1270 C 0.55965 0.63016 0.72714 0.0
C1271 C 0.57667 0.64088 0.76065 0.0
C1272 C 0.54743 0.63861 0.71621 0.0
C1273 C 0.52915 0.62794 0.68177 0.0
C1274 C 0.51265 0.60996 0.69513 0.0
C1275 C 0.49555 0.59982 0.66199 0.0
C1276 C 0.49476 0.60762 0.61561 0.0
C1277 C 0.51104 0.62563 0.60238 0.0
C1278 C 0.52817 0.63582 0.63539 0.0
H1279 H 0.48152 0.59974 0.58998 0.0
H1280 H 0.64338 0.69577 0.92485 0.0
H1281 H 0.50041 0.17633 0.30629 0.0
H1282 H 0.50364 0.15215 0.35807 0.0
H1283 H 0.44036 0.12102 0.376 0.0
H1284 H 0.43693 0.14506 0.32336 0.0
H1285 H 0.47471 0.13064 0.47146 0.0
H1286 H 0.4432 0.09561 0.30495 0.0
H1287 H 0.44116 0.09658 0.21191 0.0
H1288 H 0.50243 0.11169 0.20873 0.0
H1289 H 0.50487 0.11108 0.30189 0.0
H1290 H 0.47362 0.04021 0.54962 0.0
H1291 H 0.46495 0.06491 0.51839 0.0
H1292 H 0.51288 0.08532 0.41791 0.0
H1293 H 0.52088 0.06029 0.44717 0.0
H1294 H 0.48167 0.07956 0.36702 0.0
H1295 H 0.51355 0.11261 0.53087 0.0
H1296 H 0.51779 0.11446 0.62415 0.0
H1297 H 0.45888 0.10574 0.63486 0.0
H1298 H 0.45412 0.10342 0.54156 0.0
C1299 C 0.48723 0.16454 0.32194 0.0
C1300 C 0.4684 0.16253 0.31063 0.0
C1301 C 0.48911 0.1508 0.35163 0.0
C1302 C 0.47227 0.13497 0.37121 0.0
C1303 C 0.45355 0.1333 0.36166 0.0
C1304 C 0.45159 0.14688 0.33119 0.0
C1305 C 0.4741 0.11887 0.39588 0.0
C1306 C 0.47589 0.1192 0.44893 0.0
C1307 C 0.476 0.10428 0.36632 0.0
C1308 C 0.47425 0.10346 0.31024 0.0
C1309 C 0.45623 0.09918 0.28435 0.0
C1310 C 0.455 0.09967 0.23164 0.0
C1311 C 0.47167 0.10428 0.20445 0.0
C1312 C 0.48954 0.10815 0.22984 0.0
C1313 C 0.49085 0.10771 0.28258 0.0
C1314 C 0.4824 0.05018 0.52137 0.0
C1315 C 0.49781 0.04826 0.50054 0.0
C1316 C 0.47747 0.06431 0.50354 0.0
C1317 C 0.48823 0.07702 0.46559 0.0
C1318 C 0.50417 0.07558 0.44665 0.0
C1319 C 0.50879 0.0613 0.46359 0.0
C1320 C 0.48265 0.09127 0.44331 0.0
C1321 C 0.48021 0.09069 0.3902 0.0
C1322 C 0.48033 0.10568 0.47313 0.0
C1323 C 0.48339 0.10761 0.52921 0.0
C1324 C 0.50145 0.11097 0.55311 0.0
C1325 C 0.50395 0.11211 0.60598 0.0
C1326 C 0.48859 0.11016 0.63538 0.0
C1327 C 0.47075 0.10719 0.612 0.0
C1328 C 0.46814 0.10596 0.55913 0.0
H1329 H 0.49051 0.11098 0.67626 0.0
H1330 H 0.47073 0.10489 0.16374 0.0
H1331 H 0.34886 0.53052 0.29702 0.0
H1332 H 0.37925 0.53337 0.33775 0.0
H1333 H 0.36321 0.47459 0.27051 0.0
H1334 H 0.33278 0.47163 0.22989 0.0
H1335 H 0.37829 0.50684 0.40718 0.0
H1336 H 0.40777 0.47536 0.24983 0.0
H1337 H 0.41121 0.47654 0.15758 0.0
H1338 H 0.41057 0.53231 0.15979 0.0
H1339 H 0.40741 0.53162 0.25209 0.0
H1340 H 0.4298 0.4622 0.50935 0.0
H1341 H 0.40878 0.46726 0.44742 0.0
H1342 H 0.45883 0.5246 0.41598 0.0
H1343 H 0.47996 0.51995 0.47891 0.0
H1344 H 0.43112 0.4991 0.32688 0.0
H1345 H 0.43278 0.52929 0.49176 0.0
H1346 H 0.43084 0.52948 0.58456 0.0
H1347 H 0.37078 0.47959 0.56671 0.0
H1348 H 0.37247 0.47891 0.4738 0.0
C1349 C 0.35201 0.51837 0.29036 0.0
C1350 C 0.33846 0.50078 0.26079 0.0
C1351 C 0.36932 0.52001 0.3136 0.0
C1352 C 0.37348 0.50424 0.30685 0.0
C1353 C 0.36034 0.487 0.27571 0.0
C1354 C 0.34291 0.48524 0.253 0.0
C1355 C 0.3903 0.50477 0.33664 0.0
C1356 C 0.38993 0.50535 0.38956 0.0
C1357 C 0.40554 0.50294 0.31356 0.0
C1358 C 0.4072 0.50334 0.25789 0.0
C1359 C 0.40841 0.4879 0.23067 0.0
C1360 C 0.41033 0.48849 0.17837 0.0
C1361 C 0.41113 0.5045 0.15288 0.0
C1362 C 0.40991 0.5199 0.17957 0.0
C1363 C 0.40801 0.51939 0.23188 0.0
C1364 C 0.43648 0.47578 0.48885 0.0
C1365 C 0.45658 0.49076 0.49945 0.0
C1366 C 0.42445 0.47858 0.45332 0.0
C1367 C 0.43228 0.49634 0.42758 0.0
C1368 C 0.45259 0.51076 0.43545 0.0
C1369 C 0.46464 0.50805 0.47139 0.0
C1370 C 0.41866 0.50065 0.39697 0.0
C1371 C 0.41958 0.50086 0.3442 0.0
C1372 C 0.40398 0.5034 0.42004 0.0
C1373 C 0.40282 0.50395 0.47587 0.0
C1374 C 0.41922 0.51826 0.50765 0.0
C1375 C 0.41815 0.51847 0.56026 0.0
C1376 C 0.40071 0.50453 0.58151 0.0
C1377 C 0.38428 0.49038 0.55019 0.0
C1378 C 0.38528 0.49008 0.49756 0.0
H1379 H 0.39991 0.5047 0.62223 0.0
H1380 H 0.41275 0.505 0.11246 0.0
H1381 H 0.87305 0.33442 0.2052 0.0
H1382 H 0.89902 0.35777 0.26838 0.0
H1383 H 0.85993 0.32931 0.38762 0.0
H1384 H 0.83391 0.30561 0.32459 0.0
H1385 H 0.87767 0.37003 0.39885 0.0
H1386 H 0.89875 0.3221 0.37458 0.0
H1387 H 0.90717 0.29933 0.32712 0.0
H1388 H 0.95477 0.35003 0.2617 0.0
H1389 H 0.94646 0.3731 0.30817 0.0
H1390 H 0.95993 0.44258 0.56195 0.0
H1391 H 0.93447 0.4086 0.52866 0.0
H1392 H 0.95918 0.4209 0.3824 0.0
H1393 H 0.98475 0.45444 0.41535 0.0
H1394 H 0.94709 0.38268 0.4029 0.0
H1395 H 0.91989 0.42849 0.41208 0.0
H1396 H 0.91163 0.45147 0.45937 0.0
H1397 H 0.87565 0.40411 0.55441 0.0
H1398 H 0.88384 0.3809 0.50785 0.0
C1399 C 0.87005 0.33291 0.24488 0.0
C1400 C 0.8514 0.31813 0.25979 0.0
C1401 C 0.88491 0.34627 0.28098 0.0
C1402 C 0.88148 0.3451 0.33275 0.0
C1403 C 0.86289 0.33043 0.34786 0.0
C1404 C 0.84801 0.317 0.31175 0.0
C1405 C 0.89711 0.35989 0.3705 0.0
C1406 C 0.89274 0.37248 0.40065 0.0
C1407 C 0.91678 0.36313 0.37275 0.0
C1408 C 0.9219 0.34933 0.3447 0.0
C1409 C 0.91093 0.32839 0.34979 0.0
C1410 C 0.91569 0.31543 0.3231 0.0
C1411 C 0.93148 0.32322 0.29136 0.0
C1412 C 0.94255 0.34401 0.28631 0.0
C1413 C 0.93783 0.35704 0.31288 0.0
C1414 C 0.96014 0.4379 0.52298 0.0
C1415 C 0.97419 0.45133 0.4911 0.0
C1416 C 0.94555 0.4185 0.50398 0.0
C1417 C 0.94476 0.41234 0.45283 0.0
C1418 C 0.95948 0.42532 0.42196 0.0
C1419 C 0.97403 0.44459 0.44084 0.0
C1420 C 0.92779 0.39327 0.42943 0.0
C1421 C 0.93189 0.37985 0.40203 0.0
C1422 C 0.90788 0.38925 0.4297 0.0
C1423 C 0.90262 0.40305 0.45687 0.0
C1424 C 0.91027 0.42302 0.44317 0.0
C1425 C 0.9056 0.43607 0.46982 0.0
C1426 C 0.89317 0.42927 0.50995 0.0
C1427 C 0.8853 0.40936 0.52336 0.0
C1428 C 0.88993 0.39625 0.49683 0.0
H1429 H 0.8896 0.4394 0.5306 0.0
H1430 H 0.93515 0.31316 0.27074 0.0
H1431 H 0.53647 0.83263 0.24555 0.0
H1432 H 0.5337 0.85329 0.31337 0.0
H1433 H 0.4711 0.82786 0.26939 0.0
H1434 H 0.47396 0.80762 0.19976 0.0
H1435 H 0.48867 0.86744 0.28363 0.0
H1436 H 0.48641 0.8154 0.3793 0.0
H1437 H 0.49649 0.79152 0.40955 0.0
H1438 H 0.55296 0.84099 0.46899 0.0
H1439 H 0.54337 0.8652 0.43839 0.0
H1440 H 0.48577 0.92931 0.47961 0.0
H1441 H 0.47768 0.89694 0.43735 0.0
H1442 H 0.53965 0.91325 0.45639 0.0
H1443 H 0.54761 0.94538 0.50052 0.0
H1444 H 0.516 0.87339 0.46036 0.0
H1445 H 0.51986 0.92443 0.34889 0.0
H1446 H 0.50982 0.94822 0.31746 0.0
H1447 H 0.44953 0.89964 0.2878 0.0
H1448 H 0.45917 0.87557 0.31963 0.0
C1449 C 0.52213 0.83152 0.24996 0.0
C1450 C 0.50547 0.8186 0.21694 0.0
C1451 C 0.52049 0.8431 0.28934 0.0
C1452 C 0.50211 0.84187 0.29704 0.0
C1453 C 0.48539 0.82892 0.26438 0.0
C1454 C 0.48703 0.81732 0.22476 0.0
C1455 C 0.50088 0.85522 0.33705 0.0
C1456 C 0.49419 0.86838 0.32258 0.0
C1457 C 0.50832 0.85663 0.38773 0.0
C1458 C 0.5142 0.84213 0.40622 0.0
C1459 C 0.50104 0.82121 0.39846 0.0
C1460 C 0.50666 0.8076 0.41573 0.0
C1461 C 0.52536 0.81474 0.44111 0.0
C1462 C 0.53848 0.83549 0.44932 0.0
C1463 C 0.53295 0.84916 0.43207 0.0
C1464 C 0.49755 0.92573 0.47585 0.0
C1465 C 0.51736 0.93987 0.49238 0.0
C1466 C 0.49293 0.90728 0.45164 0.0
C1467 C 0.50817 0.90298 0.44229 0.0
C1468 C 0.52768 0.91634 0.46285 0.0
C1469 C 0.53224 0.93467 0.48806 0.0
C1470 C 0.50435 0.8859 0.40642 0.0
C1471 C 0.51009 0.87208 0.42166 0.0
C1472 C 0.49598 0.88382 0.35637 0.0
C1473 C 0.4902 0.89825 0.33703 0.0
C1474 C 0.50444 0.91884 0.33588 0.0
C1475 C 0.49883 0.93236 0.31795 0.0
C1476 C 0.47906 0.92543 0.30056 0.0
C1477 C 0.46484 0.90496 0.30116 0.0
C1478 C 0.47037 0.89138 0.31915 0.0
H1479 H 0.47473 0.93592 0.28676 0.0
H1480 H 0.52968 0.80418 0.45447 0.0
H1481 H 0.73178 0.55114 0.31005 0.0
H1482 H 0.70645 0.55186 0.36058 0.0
H1483 H 0.68211 0.56616 0.22947 0.0
H1484 H 0.70647 0.56414 0.17793 0.0
H1485 H 0.6948 0.5773 0.38919 0.0
H1486 H 0.63104 0.54097 0.22922 0.0
H1487 H 0.62175 0.51894 0.15065 0.0
H1488 H 0.65753 0.49429 0.20528 0.0
H1489 H 0.6665 0.51565 0.28482 0.0
H1490 H 0.606 0.57257 0.47926 0.0
H1491 H 0.63563 0.57973 0.43372 0.0
H1492 H 0.61306 0.51572 0.40793 0.0
H1493 H 0.58328 0.50867 0.45078 0.0
H1494 H 0.62446 0.53149 0.32546 0.0
H1495 H 0.6538 0.5484 0.49666 0.0
H1496 H 0.6627 0.56636 0.58135 0.0
H1497 H 0.69553 0.6231 0.5143 0.0
H1498 H 0.68661 0.60548 0.42913 0.0
C1499 C 0.721 0.55436 0.29183 0.0
C1500 C 0.72103 0.55723 0.2396 0.0
C1501 C 0.70668 0.55504 0.321 0.0
C1502 C 0.69216 0.55874 0.29867 0.0
C1503 C 0.69295 0.56295 0.24737 0.0
C1504 C 0.70708 0.56199 0.21801 0.0
C1505 C 0.67531 0.55656 0.32798 0.0
C1506 C 0.6794 0.56736 0.37521 0.0
C1507 C 0.6552 0.5433 0.31019 0.0
C1508 C 0.6497 0.53018 0.26266 0.0
C1509 C 0.63688 0.53081 0.22452 0.0
C1510 C 0.63167 0.51843 0.17982 0.0
C1511 C 0.63921 0.50538 0.17276 0.0
C1512 C 0.6518 0.5045 0.21064 0.0
C1513 C 0.65692 0.51671 0.25559 0.0
C1514 C 0.60756 0.56011 0.46422 0.0
C1515 C 0.59234 0.54009 0.46818 0.0
C1516 C 0.62449 0.56418 0.43832 0.0
C1517 C 0.62664 0.54826 0.4173 0.0
C1518 C 0.61171 0.52829 0.42315 0.0
C1519 C 0.5947 0.52426 0.44784 0.0
C1520 C 0.64386 0.55202 0.3872 0.0
C1521 C 0.63983 0.54159 0.33946 0.0
C1522 C 0.66396 0.56504 0.40539 0.0
C1523 C 0.66936 0.57564 0.45652 0.0
C1524 C 0.66279 0.56472 0.49997 0.0
C1525 C 0.66786 0.57483 0.54805 0.0
C1526 C 0.67962 0.59586 0.55319 0.0
C1527 C 0.68639 0.60681 0.51025 0.0
C1528 C 0.68135 0.59677 0.46207 0.0
H1529 H 0.68353 0.60366 0.59044 0.0
H1530 H 0.63522 0.49587 0.13803 0.0
H1531 H 0.14525 0.70106 0.243 0.0
H1532 H 0.12723 0.67847 0.30836 0.0
H1533 H 0.18128 0.68083 0.36531 0.0
H1534 H 0.19988 0.70454 0.30237 0.0
H1535 H 0.14243 0.63923 0.34148 0.0
H1536 H 0.17108 0.70363 0.4365 0.0
H1537 H 0.17896 0.73892 0.45088 0.0
H1538 H 0.11644 0.71958 0.44266 0.0
H1539 H 0.10819 0.68419 0.42737 0.0
H1540 H 0.08631 0.57487 0.5253 0.0
H1541 H 0.11541 0.6037 0.49341 0.0
H1542 H 0.08032 0.63241 0.46606 0.0
H1543 H 0.05205 0.60466 0.50232 0.0
H1544 H 0.11547 0.66014 0.48376 0.0
H1545 H 0.08617 0.59836 0.37288 0.0
H1546 H 0.0759 0.56257 0.35343 0.0
H1547 H 0.1363 0.57606 0.38467 0.0
H1548 H 0.14689 0.61191 0.40439 0.0
C1549 C 0.1535 0.69717 0.26984 0.0
C1550 C 0.17416 0.70483 0.26711 0.0
C1551 C 0.14309 0.68409 0.30696 0.0
C1552 C 0.15297 0.67808 0.3416 0.0
C1553 C 0.17342 0.6853 0.33873 0.0
C1554 C 0.18397 0.69873 0.30229 0.0
C1555 C 0.14171 0.66402 0.38029 0.0
C1556 C 0.13681 0.64381 0.37322 0.0
C1557 C 0.13412 0.67002 0.4209 0.0
C1558 C 0.13904 0.69128 0.43025 0.0
C1559 C 0.15902 0.70692 0.43721 0.0
C1560 C 0.16355 0.72694 0.44566 0.0
C1561 C 0.14821 0.7315 0.44754 0.0
C1562 C 0.12831 0.71603 0.44112 0.0
C1563 C 0.1237 0.69599 0.43261 0.0
C1564 C 0.08514 0.58773 0.51415 0.0
C1565 C 0.06695 0.58753 0.51589 0.0
C1566 C 0.10166 0.60408 0.49527 0.0
C1567 C 0.0999 0.61993 0.47526 0.0
C1568 C 0.08215 0.62037 0.48078 0.0
C1569 C 0.06593 0.60447 0.50161 0.0
C1570 C 0.11551 0.63499 0.44432 0.0
C1571 C 0.12127 0.65548 0.45265 0.0
C1572 C 0.12352 0.62914 0.404 0.0
C1573 C 0.11728 0.60774 0.39057 0.0
C1574 C 0.09725 0.59367 0.37556 0.0
C1575 C 0.09137 0.57338 0.36449 0.0
C1576 C 0.10543 0.56704 0.36786 0.0
C1577 C 0.12543 0.58099 0.38199 0.0
C1578 C 0.13138 0.6013 0.39305 0.0
H1579 H 0.10083 0.55131 0.35952 0.0
H1580 H 0.15175 0.747 0.4541 0.0
loop_
_geom_bond_atom_site_label_1
_geom_bond_atom_site_label_2
_geom_bond_distance
_geom_bond_site_symmetry_2
_ccdc_geom_bond_type
H0 C19 0.949 . S
H1 C20 0.950 . S
H2 C22 0.950 . S
H3 C23 0.950 . S
H4 C25 0.950 . S
H5 C28 0.950 . S
H6 C29 0.950 . S
H7 C31 0.951 . S
H8 C32 0.949 . S
H9 C34 0.949 . S
H10 C35 0.950 . S
H11 C37 0.950 . S
H12 C38 0.950 . S
H13 C40 0.950 . S
H14 C43 0.950 . S
H15 C44 0.950 . S
H16 C46 0.951 . S
H17 C47 0.949 . S
C18 C19 1.376 . S
C18 C23 1.386 . S
C18 C24 1.483 . S
C19 H0 0.949 . S
C19 C18 1.376 . S
C19 C20 1.397 . S
C20 H1 0.950 . S
C20 C19 1.397 . S
C20 C21 1.391 . S
C21 C20 1.391 . S
C21 C22 1.405 . S
C22 H2 0.950 . S
C22 C21 1.405 . S
C22 C23 1.367 . S
C23 H3 0.950 . S
C23 C18 1.386 . S
C23 C22 1.367 . S
C24 C18 1.483 . S
C24 C25 1.382 . S
C24 C26 1.403 . S
C25 H4 0.950 . S
C25 C24 1.382 . S
C25 C41 1.411 . S
C26 C24 1.403 . S
C26 C27 1.489 . S
C26 C40 1.411 . S
C27 C26 1.489 . S
C27 C28 1.383 . S
C27 C32 1.382 . S
C28 H5 0.950 . S
C28 C27 1.383 . S
C28 C29 1.395 . S
C29 H6 0.950 . S
C29 C28 1.395 . S
C29 C30 1.288 . S
C30 C29 1.288 . S
C30 C31 1.392 . S
C31 H7 0.951 . S
C31 C30 1.392 . S
C31 C32 1.392 . S
C32 H8 0.949 . S
C32 C27 1.382 . S
C32 C31 1.392 . S
C33 C34 1.376 . S
C33 C38 1.386 . S
C33 C39 1.483 . S
C34 H9 0.949 . S
C34 C33 1.376 . S
C34 C35 1.397 . S
C35 H10 0.950 . S
C35 C34 1.397 . S
C35 C36 1.391 . S
C36 C35 1.391 . S
C36 C37 1.405 . S
C37 H11 0.950 . S
C37 C36 1.405 . S
C37 C38 1.367 . S
C38 H12 0.950 . S
C38 C33 1.386 . S
C38 C37 1.367 . S
C39 C33 1.483 . S
C39 C40 1.382 . S
C39 C41 1.403 . S
C40 H13 0.950 . S
C40 C26 1.411 . S
C40 C39 1.382 . S
C41 C25 1.411 . S
C41 C39 1.403 . S
C41 C42 1.489 . S
C42 C41 1.489 . S
C42 C43 1.383 . S
C42 C47 1.382 . S
C43 H14 0.950 . S
C43 C42 1.383 . S
C43 C44 1.395 . S
C44 H15 0.950 . S
C44 C43 1.395 . S
C44 C45 1.288 . S
C45 C44 1.288 . S
C45 C46 1.392 . S
C46 H16 0.951 . S
C46 C45 1.392 . S
C46 C47 1.392 . S
C47 H17 0.949 . S
C47 C42 1.382 . S
C47 C46 1.392 . S
H48 C67 0.949 . S
H49 C68 0.950 . S
H50 C70 0.950 . S
H51 C71 0.950 . S
H52 C73 0.950 . S
H53 C76 0.950 . S
H54 C77 0.950 . S
H55 C79 0.951 . S
H56 C80 0.949 . S
H57 C82 0.949 . S
H58 C83 0.950 . S
H59 C85 0.950 . S
H60 C86 0.950 . S
H61 C88 0.950 . S
H62 C91 0.950 . S
H63 C92 0.949 1_554 S
H64 C94 0.951 . S
H65 C95 0.949 . S
C66 C67 1.376 . S
C66 C71 1.386 . S
C66 C72 1.483 . S
C67 H48 0.949 . S
C67 C66 1.376 . S
C67 C68 1.397 1_554 S
C68 H49 0.950 . S
C68 C67 1.397 1_556 S
C68 C69 1.391 . S
C69 C68 1.391 . S
C69 C70 1.405 1_556 S
C70 H50 0.950 . S
C70 C69 1.405 1_554 S
C70 C71 1.367 . S
C71 H51 0.950 . S
C71 C66 1.386 . S
C71 C70 1.367 . S
C72 C66 1.483 . S
C72 C73 1.382 . S
C72 C74 1.403 . S
C73 H52 0.950 . S
C73 C72 1.382 . S
C73 C89 1.411 . S
C74 C72 1.403 . S
C74 C75 1.489 . S
C74 C88 1.411 . S
C75 C74 1.489 . S
C75 C76 1.383 . S
C75 C80 1.382 . S
C76 H53 0.950 . S
C76 C75 1.383 . S
C76 C77 1.395 . S
C77 H54 0.950 . S
C77 C76 1.395 . S
C77 C78 1.288 . S
C78 C77 1.288 . S
C78 C79 1.392 . S
C79 H55 0.951 . S
C79 C78 1.392 . S
C79 C80 1.392 . S
C80 H56 0.949 . S
C80 C75 1.382 . S
C80 C79 1.392 . S
C81 C82 1.376 . S
C81 C86 1.386 . S
C81 C87 1.483 . S
C82 H57 0.949 . S
C82 C81 1.376 . S
C82 C83 1.397 . S
C83 H58 0.950 . S
C83 C82 1.397 . S
C83 C84 1.391 . S
C84 C83 1.391 . S
C84 C85 1.405 . S
C85 H59 0.950 . S
C85 C84 1.405 . S
C85 C86 1.367 . S
C86 H60 0.950 . S
C86 C81 1.386 . S
C86 C85 1.367 . S
C87 C81 1.483 . S
C87 C88 1.382 . S
C87 C89 1.403 . S
C88 H61 0.950 . S
C88 C74 1.411 . S
C88 C87 1.382 . S
C89 C73 1.411 . S
C89 C87 1.403 . S
C89 C90 1.489 . S
C90 C89 1.489 . S
C90 C91 1.383 . S
C90 C95 1.382 1_554 S
C91 H62 0.950 . S
C91 C90 1.383 . S
C91 C92 1.389 1_554 S
C92 H63 0.949 1_556 S
C92 C91 1.389 1_556 S
C92 C93 1.296 . S
C93 C92 1.296 . S
C93 C94 1.392 . S
C94 H64 0.951 . S
C94 C93 1.392 . S
C94 C95 1.392 . S
C95 H65 0.949 . S
C95 C90 1.382 1_556 S
C95 C94 1.392 . S
H96 C115 0.949 . S
H97 C116 0.950 . S
H98 C118 0.950 . S
H99 C119 0.950 . S
H100 C121 0.950 . S
H101 C124 0.950 . S
H102 C125 0.950 . S
H103 C127 0.951 . S
H104 C128 0.949 . S
H105 C130 0.949 . S
H106 C131 0.950 . S
H107 C133 0.950 . S
H108 C134 0.950 . S
H109 C136 0.950 . S
H110 C139 0.940 1_554 S
H111 C140 0.950 . S
H112 C142 0.951 . S
H113 C143 0.949 . S
C114 C115 1.376 . S
C114 C119 1.386 . S
C114 C120 1.483 1_556 S
C115 H96 0.949 . S
C115 C114 1.376 . S
C115 C116 1.397 . S
C116 H97 0.950 . S
C116 C115 1.397 . S
C116 C117 1.391 . S
C117 C116 1.391 . S
C117 C118 1.405 . S
C118 H98 0.950 . S
C118 C117 1.405 . S
C118 C119 1.367 . S
C119 H99 0.950 . S
C119 C114 1.386 . S
C119 C118 1.367 . S
C120 C114 1.483 1_554 S
C120 C121 1.382 1_554 S
C120 C122 1.403 . S
C121 H100 0.950 . S
C121 C120 1.382 1_556 S
C121 C137 1.411 1_556 S
C122 C120 1.403 . S
C122 C123 1.489 . S
C122 C136 1.411 . S
C123 C122 1.489 . S
C123 C124 1.383 . S
C123 C128 1.382 . S
C124 H101 0.950 . S
C124 C123 1.383 . S
C124 C125 1.395 . S
C125 H102 0.950 . S
C125 C124 1.395 . S
C125 C126 1.288 . S
C126 C125 1.288 . S
C126 C127 1.392 . S
C127 H103 0.951 . S
C127 C126 1.392 . S
C127 C128 1.392 . S
C128 H104 0.949 . S
C128 C123 1.382 . S
C128 C127 1.392 . S
C129 C130 1.376 . S
C129 C134 1.386 . S
C129 C135 1.483 . S
C130 H105 0.949 . S
C130 C129 1.376 . S
C130 C131 1.397 . S
C131 H106 0.950 . S
C131 C130 1.397 . S
C131 C132 1.391 . S
C132 C131 1.391 . S
C132 C133 1.405 . S
C133 H107 0.950 . S
C133 C132 1.405 . S
C133 C134 1.367 . S
C134 H108 0.950 . S
C134 C129 1.386 . S
C134 C133 1.367 . S
C135 C129 1.483 . S
C135 C136 1.382 . S
C135 C137 1.403 . S
C136 H109 0.950 . S
C136 C122 1.411 . S
C136 C135 1.382 . S
C137 C121 1.411 1_554 S
C137 C135 1.403 . S
C137 C138 1.489 1_554 S
C138 C137 1.489 1_556 S
C138 C139 1.383 . S
C138 C143 1.382 . S
C139 H110 0.940 1_556 S
C139 C138 1.383 . S
C139 C140 1.395 . S
C140 H111 0.950 . S
C140 C139 1.395 . S
C140 C141 1.288 . S
C141 C140 1.288 . S
C141 C142 1.392 . S
C142 H112 0.951 . S
C142 C141 1.392 . S
C142 C143 1.392 . S
C143 H113 0.949 . S
C143 C138 1.382 . S
C143 C142 1.392 . S
H144 C163 0.949 . S
H145 C164 0.950 . S
H146 C166 0.950 . S
H147 C167 0.950 . S
H148 C169 0.950 . S
H149 C172 0.950 . S
H150 C173 0.950 . S
H151 C175 0.951 . S
H152 C176 0.949 . S
H153 C178 0.949 . S
H154 C179 0.950 . S
H155 C181 0.950 . S
H156 C182 0.950 . S
H157 C184 0.950 . S
H158 C187 0.950 . S
H159 C188 0.950 . S
H160 C190 0.951 . S
H161 C191 0.949 . S
C162 C163 1.376 . S
C162 C167 1.386 . S
C162 C168 1.483 . S
C163 H144 0.949 . S
C163 C162 1.376 . S
C163 C164 1.397 . S
C164 H145 0.950 . S
C164 C163 1.397 . S
C164 C165 1.391 . S
C165 C164 1.391 . S
C165 C166 1.405 . S
C166 H146 0.950 . S
C166 C165 1.405 . S
C166 C167 1.367 . S
C167 H147 0.950 . S
C167 C162 1.386 . S
C167 C166 1.367 . S
C168 C162 1.483 . S
C168 C169 1.382 . S
C168 C170 1.403 1_554 S
C169 H148 0.950 . S
C169 C168 1.382 . S
C169 C185 1.411 . S
C170 C168 1.403 1_556 S
C170 C171 1.489 . S
C170 C184 1.411 . S
C171 C170 1.489 . S
C171 C172 1.383 . S
C171 C176 1.382 . S
C172 H149 0.950 . S
C172 C171 1.383 . S
C172 C173 1.395 . S
C173 H150 0.950 . S
C173 C172 1.395 . S
C173 C174 1.288 . S
C174 C173 1.288 . S
C174 C175 1.392 . S
C175 H151 0.951 . S
C175 C174 1.392 . S
C175 C176 1.392 . S
C176 H152 0.949 . S
C176 C171 1.382 . S
C176 C175 1.392 . S
C177 C178 1.376 . S
C177 C182 1.386 . S
C177 C183 1.483 . S
C178 H153 0.949 . S
C178 C177 1.376 . S
C178 C179 1.397 . S
C179 H154 0.950 . S
C179 C178 1.397 . S
C179 C180 1.391 . S
C180 C179 1.391 . S
C180 C181 1.405 . S
C181 H155 0.950 . S
C181 C180 1.405 . S
C181 C182 1.367 . S
C182 H156 0.950 . S
C182 C177 1.386 . S
C182 C181 1.367 . S
C183 C177 1.483 . S
C183 C184 1.382 . S
C183 C185 1.403 1_556 S
C184 H157 0.950 . S
C184 C170 1.411 . S
C184 C183 1.382 . S
C185 C169 1.411 . S
C185 C183 1.403 1_554 S
C185 C186 1.489 . S
C186 C185 1.489 . S
C186 C187 1.383 . S
C186 C191 1.382 . S
C187 H158 0.950 . S
C187 C186 1.383 . S
C187 C188 1.395 . S
C188 H159 0.950 . S
C188 C187 1.395 . S
C188 C189 1.288 . S
C189 C188 1.288 . S
C189 C190 1.392 . S
C190 H160 0.951 . S
C190 C189 1.392 . S
C190 C191 1.392 . S
C191 H161 0.949 . S
C191 C186 1.382 . S
C191 C190 1.392 . S
H192 C211 0.949 . S
H193 C212 0.950 . S
H194 C214 0.950 . S
H195 C215 0.950 . S
H196 C217 0.950 . S
H197 C220 0.950 . S
H198 C221 0.950 . S
H199 C223 0.951 . S
H200 C224 0.949 . S
H201 C226 0.949 . S
H202 C227 0.950 . S
H203 C229 0.950 . S
H204 C230 0.950 . S
H205 C232 0.950 . S
H206 C235 0.950 . S
H207 C236 0.950 . S
H208 C238 0.951 . S
H209 C239 0.949 1_556 S
C210 C211 1.376 . S
C210 C215 1.386 . S
C210 C216 1.483 . S
C211 H192 0.949 . S
C211 C210 1.376 . S
C211 C212 1.397 1_554 S
C212 H193 0.950 . S
C212 C211 1.397 1_556 S
C212 C213 1.391 . S
C213 C212 1.391 . S
C213 C214 1.405 1_556 S
C214 H194 0.950 . S
C214 C213 1.405 1_554 S
C214 C215 1.367 . S
C215 H195 0.950 . S
C215 C210 1.386 . S
C215 C214 1.367 . S
C216 C210 1.483 . S
C216 C217 1.382 . S
C216 C218 1.403 . S
C217 H196 0.950 . S
C217 C216 1.382 . S
C217 C233 1.411 . S
C218 C216 1.403 . S
C218 C219 1.489 . S
C218 C232 1.411 . S
C219 C218 1.489 . S
C219 C220 1.383 . S
C219 C224 1.382 . S
C220 H197 0.950 . S
C220 C219 1.383 . S
C220 C221 1.395 . S
C221 H198 0.950 . S
C221 C220 1.395 . S
C221 C222 1.288 . S
C222 C221 1.288 . S
C222 C223 1.392 . S
C223 H199 0.951 . S
C223 C222 1.392 . S
C223 C224 1.392 . S
C224 H200 0.949 . S
C224 C219 1.382 . S
C224 C223 1.392 . S
C225 C226 1.376 . S
C225 C230 1.386 . S
C225 C231 1.483 . S
C226 H201 0.949 . S
C226 C225 1.376 . S
C226 C227 1.397 . S
C227 H202 0.950 . S
C227 C226 1.397 . S
C227 C228 1.391 . S
C228 C227 1.391 . S
C228 C229 1.405 . S
C229 H203 0.950 . S
C229 C228 1.405 . S
C229 C230 1.367 . S
C230 H204 0.950 . S
C230 C225 1.386 . S
C230 C229 1.367 . S
C231 C225 1.483 . S
C231 C232 1.382 . S
C231 C233 1.403 . S
C232 H205 0.950 . S
C232 C218 1.411 . S
C232 C231 1.382 . S
C233 C217 1.411 . S
C233 C231 1.403 . S
C233 C234 1.489 . S
C234 C233 1.489 . S
C234 C235 1.383 . S
C234 C239 1.382 . S
C235 H206 0.950 . S
C235 C234 1.383 . S
C235 C236 1.395 . S
C236 H207 0.950 . S
C236 C235 1.395 . S
C236 C237 1.288 1_554 S
C237 C236 1.288 1_556 S
C237 C238 1.392 . S
C238 H208 0.951 . S
C238 C237 1.392 . S
C238 C239 1.392 1_556 S
C239 H209 0.949 1_554 S
C239 C234 1.382 . S
C239 C238 1.392 1_554 S
H240 C259 0.949 . S
H241 C260 0.950 . S
H242 C262 0.950 . S
H243 C263 0.950 . S
H244 C265 0.950 . S
H245 C268 0.950 . S
H246 C269 0.950 . S
H247 C271 0.951 . S
H248 C272 0.949 . S
H249 C274 0.949 . S
H250 C275 0.950 . S
H251 C277 0.950 . S
H252 C278 0.950 . S
H253 C280 0.950 . S
H254 C283 0.950 . S
H255 C284 0.950 . S
H256 C286 0.951 . S
H257 C287 0.949 . S
C258 C259 1.376 . S
C258 C263 1.386 . S
C258 C264 1.483 . S
C259 H240 0.949 . S
C259 C258 1.376 . S
C259 C260 1.397 . S
C260 H241 0.950 . S
C260 C259 1.397 . S
C260 C261 1.391 . S
C261 C260 1.391 . S
C261 C262 1.405 . S
C262 H242 0.950 . S
C262 C261 1.405 . S
C262 C263 1.367 . S
C263 H243 0.950 . S
C263 C258 1.386 . S
C263 C262 1.367 . S
C264 C258 1.483 . S
C264 C265 1.382 . S
C264 C266 1.403 . S
C265 H244 0.950 . S
C265 C264 1.382 . S
C265 C281 1.411 . S
C266 C264 1.403 . S
C266 C267 1.489 . S
C266 C280 1.411 . S
C267 C266 1.489 . S
C267 C268 1.383 . S
C267 C272 1.382 . S
C268 H245 0.950 . S
C268 C267 1.383 . S
C268 C269 1.395 . S
C269 H246 0.950 . S
C269 C268 1.395 . S
C269 C270 1.288 . S
C270 C269 1.288 . S
C270 C271 1.392 . S
C271 H247 0.951 . S
C271 C270 1.392 . S
C271 C272 1.392 . S
C272 H248 0.949 . S
C272 C267 1.382 . S
C272 C271 1.392 . S
C273 C274 1.376 . S
C273 C278 1.386 . S
C273 C279 1.483 . S
C274 H249 0.949 . S
C274 C273 1.376 . S
C274 C275 1.397 . S
C275 H250 0.950 . S
C275 C274 1.397 . S
C275 C276 1.391 . S
C276 C275 1.391 . S
C276 C277 1.405 . S
C277 H251 0.950 . S
C277 C276 1.405 . S
C277 C278 1.367 . S
C278 H252 0.950 . S
C278 C273 1.386 . S
C278 C277 1.367 . S
C279 C273 1.483 . S
C279 C280 1.382 . S
C279 C281 1.403 . S
C280 H253 0.950 . S
C280 C266 1.411 . S
C280 C279 1.382 . S
C281 C265 1.411 . S
C281 C279 1.403 . S
C281 C282 1.489 . S
C282 C281 1.489 . S
C282 C283 1.383 . S
C282 C287 1.382 . S
C283 H254 0.950 . S
C283 C282 1.383 . S
C283 C284 1.395 . S
C284 H255 0.950 . S
C284 C283 1.395 . S
C284 C285 1.288 . S
C285 C284 1.288 . S
C285 C286 1.392 . S
C286 H256 0.951 . S
C286 C285 1.392 . S
C286 C287 1.392 . S
C287 H257 0.949 . S
C287 C282 1.382 . S
C287 C286 1.392 . S
C288 O315 1.312 . S
C288 O316 1.208 . S
C289 O310 1.331 . S
C289 O313 1.244 . S
C290 O312 1.264 . S
C290 O314 1.273 . S
Mg291 O293 1.936 1_455 S
Mg291 O300 2.081 1_455 S
Mg291 O302 2.023 . S
Mg291 O306 2.031 1_455 S
Mg291 O315 2.291 . S
Mg292 O293 1.939 . S
Mg292 O303 1.971 . S
Mg292 O304 1.917 1_655 S
Mg292 O311 2.011 . S
O293 Mg291 1.936 1_655 S
O293 Mg292 1.939 . S
O293 Mg294 1.915 1_655 S
Mg294 O293 1.915 1_455 S
Mg294 O295 1.915 . S
Mg294 O299 2.013 . S
Mg294 O305 2.114 1_455 S
Mg294 O309 2.013 1_455 S
Mg294 O315 2.114 . S
O295 Mg294 1.915 . S
O295 Mg296 1.936 . S
O295 Mg297 1.963 . S
Mg296 O295 1.936 . S
Mg296 O305 2.291 1_455 S
Mg296 O310 2.081 . S
Mg296 O312 2.023 1_455 S
Mg296 O316 2.031 . S
Mg297 O295 1.963 . S
Mg297 O301 1.986 . S
Mg297 O313 1.942 . S
Mg297 O314 1.955 1_455 S
C298 O309 1.191 . S
C298 O311 1.307 . S
O299 Mg294 2.013 . S
O299 C318 1.191 . S
O300 Mg291 2.081 1_655 S
O300 C308 1.331 . S
O301 Mg297 1.986 . S
O301 C318 1.307 . S
O302 Mg291 2.023 . S
O302 C317 1.264 . S
O303 Mg292 1.971 . S
O303 C308 1.244 . S
O304 Mg292 1.917 1_455 S
O304 C317 1.273 . S
O305 Mg294 2.114 1_655 S
O305 Mg296 2.291 1_655 S
O305 C307 1.312 . S
O306 Mg291 2.031 1_655 S
O306 C307 1.208 . S
C307 O305 1.312 . S
C307 O306 1.208 . S
C308 O300 1.331 . S
C308 O303 1.244 . S
O309 Mg294 2.013 1_655 S
O309 C298 1.191 . S
O310 C289 1.331 . S
O310 Mg296 2.081 . S
O311 Mg292 2.011 . S
O311 C298 1.307 . S
O312 C290 1.264 . S
O312 Mg296 2.023 1_655 S
O313 C289 1.244 . S
O313 Mg297 1.942 . S
O314 C290 1.273 . S
O314 Mg297 1.955 1_655 S
O315 C288 1.312 . S
O315 Mg291 2.291 . S
O315 Mg294 2.114 . S
O316 C288 1.208 . S
O316 Mg296 2.031 . S
C317 O302 1.264 . S
C317 O304 1.273 . S
C318 O299 1.191 . S
C318 O301 1.307 . S
C319 O346 1.312 . S
C319 O347 1.208 . S
C320 O341 1.331 . S
C320 O344 1.244 . S
C321 O343 1.264 . S
C321 O345 1.273 . S
Mg322 O324 1.936 1_545 S
Mg322 O331 2.081 1_545 S
Mg322 O333 2.023 . S
Mg322 O337 2.031 1_545 S
Mg322 O346 2.291 . S
Mg323 O324 1.963 . S
Mg323 O334 1.942 . S
Mg323 O335 1.955 1_565 S
Mg323 O342 1.986 . S
O324 Mg322 1.936 1_565 S
O324 Mg323 1.963 . S
O324 Mg325 1.915 1_565 S
Mg325 O324 1.915 1_545 S
Mg325 O326 1.915 . S
Mg325 O330 2.013 . S
Mg325 O336 2.114 1_545 S
Mg325 O340 2.013 1_545 S
Mg325 O346 2.114 . S
O326 Mg325 1.915 . S
O326 Mg327 1.936 . S
O326 Mg328 1.963 . S
Mg327 O326 1.936 . S
Mg327 O336 2.291 1_545 S
Mg327 O341 2.081 . S
Mg327 O343 2.023 1_545 S
Mg327 O347 2.031 . S
Mg328 O326 1.963 . S
Mg328 O332 1.986 . S
Mg328 O344 1.942 . S
Mg328 O345 1.955 1_545 S
C329 O340 1.191 . S
C329 O342 1.307 . S
O330 Mg325 2.013 . S
O330 C349 1.191 . S
O331 Mg322 2.081 1_565 S
O331 C339 1.331 . S
O332 Mg328 1.986 . S
O332 C349 1.307 . S
O333 Mg322 2.023 . S
O333 C348 1.264 . S
O334 Mg323 1.942 . S
O334 C339 1.244 . S
O335 Mg323 1.955 1_545 S
O335 C348 1.273 . S
O336 Mg325 2.114 1_565 S
O336 Mg327 2.291 1_565 S
O336 C338 1.312 . S
O337 Mg322 2.031 1_565 S
O337 C338 1.208 . S
C338 O336 1.312 . S
C338 O337 1.208 . S
C339 O331 1.331 . S
C339 O334 1.244 . S
O340 Mg325 2.013 1_565 S
O340 C329 1.191 . S
O341 C320 1.331 . S
O341 Mg327 2.081 . S
O342 Mg323 1.986 . S
O342 C329 1.307 . S
O343 C321 1.264 . S
O343 Mg327 2.023 1_565 S
O344 C320 1.244 . S
O344 Mg328 1.942 . S
O345 C321 1.273 . S
O345 Mg328 1.955 1_565 S
O346 C319 1.312 . S
O346 Mg322 2.291 . S
O346 Mg325 2.114 . S
O347 C319 1.208 . S
O347 Mg327 2.031 . S
C348 O333 1.264 . S
C348 O335 1.273 . S
C349 O330 1.191 . S
C349 O332 1.307 . S
C350 O377 1.312 . S
C350 O378 1.208 . S
C351 O372 1.331 . S
C351 O375 1.244 . S
C352 O374 1.264 . S
C352 O376 1.273 . S
Mg353 O355 1.936 . S
Mg353 O362 2.081 . S
Mg353 O364 2.023 . S
Mg353 O368 2.031 . S
Mg353 O377 2.291 . S
Mg354 O355 1.963 . S
Mg354 O365 1.942 . S
Mg354 O366 1.955 . S
Mg354 O373 1.986 . S
O355 Mg353 1.936 . S
O355 Mg354 1.963 . S
O355 Mg356 1.915 . S
Mg356 O355 1.915 . S
Mg356 O357 1.915 . S
Mg356 O361 2.013 . S
Mg356 O367 2.114 . S
Mg356 O371 2.013 . S
Mg356 O377 2.114 . S
O357 Mg356 1.915 . S
O357 Mg358 1.936 . S
O357 Mg359 1.963 . S
Mg358 O357 1.936 . S
Mg358 O367 2.291 . S
Mg358 O372 2.081 . S
Mg358 O374 2.023 . S
Mg358 O378 2.031 . S
Mg359 O357 1.963 . S
Mg359 O363 1.986 . S
Mg359 O375 1.942 . S
Mg359 O376 1.955 . S
C360 O371 1.191 . S
C360 O373 1.307 . S
O361 Mg356 2.013 . S
O361 C380 1.191 . S
O362 Mg353 2.081 . S
O362 C370 1.331 . S
O363 Mg359 1.986 . S
O363 C380 1.307 . S
O364 Mg353 2.023 . S
O364 C379 1.264 . S
O365 Mg354 1.942 . S
O365 C370 1.244 . S
O366 Mg354 1.955 . S
O366 C379 1.273 . S
O367 Mg356 2.114 . S
O367 Mg358 2.291 . S
O367 C369 1.312 . S
O368 Mg353 2.031 . S
O368 C369 1.208 . S
C369 O367 1.312 . S
C369 O368 1.208 . S
C370 O362 1.331 . S
C370 O365 1.244 . S
O371 Mg356 2.013 . S
O371 C360 1.191 . S
O372 C351 1.331 . S
O372 Mg358 2.081 . S
O373 Mg354 1.986 . S
O373 C360 1.307 . S
O374 C352 1.264 . S
O374 Mg358 2.023 . S
O375 C351 1.244 . S
O375 Mg359 1.942 . S
O376 C352 1.273 . S
O376 Mg359 1.955 . S
O377 C350 1.312 . S
O377 Mg353 2.291 . S
O377 Mg356 2.114 . S
O378 C350 1.208 . S
O378 Mg358 2.031 . S
C379 O364 1.264 . S
C379 O366 1.273 . S
C380 O361 1.191 . S
C380 O363 1.307 . S
H381 C399 0.951 . S
H382 C401 0.951 . S
H383 C403 0.950 . S
H384 C404 0.950 . S
H385 C406 0.950 . S
H386 C409 0.950 . S
H387 C410 0.950 . S
H388 C412 0.950 . S
H389 C413 0.950 . S
H390 C414 0.951 . S
H391 C416 0.951 . S
H392 C418 0.950 . S
H393 C419 0.950 . S
H394 C421 0.950 . S
H395 C424 0.950 . S
H396 C425 0.950 . S
H397 C427 0.950 . S
H398 C428 0.950 . S
C399 H381 0.951 . S
C399 C400 1.366 . S
C399 C401 1.388 . S
C400 C399 1.366 . S
C400 C404 1.385 . S
C401 H382 0.951 . S
C401 C399 1.388 . S
C401 C402 1.366 . S
C402 C401 1.366 . S
C402 C403 1.414 . S
C402 C405 1.499 . S
C403 H383 0.950 . S
C403 C402 1.414 . S
C403 C404 1.374 . S
C404 H384 0.950 . S
C404 C400 1.385 . S
C404 C403 1.374 . S
C405 C402 1.499 . S
C405 C406 1.373 . S
C405 C407 1.389 . S
C406 H385 0.950 . S
C406 C405 1.373 . S
C406 C422 1.377 . S
C407 C405 1.389 . S
C407 C408 1.524 . S
C407 C421 1.377 . S
C408 C407 1.524 . S
C408 C409 1.397 . S
C408 C413 1.363 . S
C409 H386 0.950 . S
C409 C408 1.397 . S
C409 C410 1.334 . S
C410 H387 0.950 . S
C410 C409 1.334 . S
C410 C411 1.287 . S
C411 C410 1.287 . S
C411 C412 1.524 . S
C411 H430 0.913 . S
C412 H388 0.950 . S
C412 C411 1.524 . S
C412 C413 1.415 . S
C413 H389 0.950 . S
C413 C408 1.363 . S
C413 C412 1.415 . S
C414 H390 0.951 . S
C414 C415 1.366 . S
C414 C416 1.388 . S
C415 C414 1.366 . S
C415 C419 1.385 . S
C416 H391 0.951 . S
C416 C414 1.388 . S
C416 C417 1.366 . S
C417 C416 1.366 . S
C417 C418 1.414 . S
C417 C420 1.499 . S
C418 H392 0.950 . S
C418 C417 1.414 . S
C418 C419 1.374 . S
C419 H393 0.950 . S
C419 C415 1.385 . S
C419 C418 1.374 . S
C420 C417 1.499 . S
C420 C421 1.373 . S
C420 C422 1.389 . S
C421 H394 0.950 . S
C421 C407 1.377 . S
C421 C420 1.373 . S
C422 C406 1.377 . S
C422 C420 1.389 . S
C422 C423 1.524 . S
C423 C422 1.524 . S
C423 C424 1.397 . S
C423 C428 1.363 . S
C424 H395 0.950 . S
C424 C423 1.397 . S
C424 C425 1.334 . S
C425 H396 0.950 . S
C425 C424 1.334 . S
C425 C426 1.287 . S
C426 C425 1.287 . S
C426 C427 1.524 . S
C426 H429 0.999 . S
C427 H397 0.950 . S
C427 C426 1.524 . S
C427 C428 1.415 . S
C428 H398 0.950 . S
C428 C423 1.363 . S
C428 C427 1.415 . S
H429 C426 0.999 . S
H430 C411 0.913 . S
H431 C449 0.951 . S
H432 C451 0.951 . S
H433 C453 0.950 . S
H434 C454 0.950 . S
H435 C456 0.950 . S
H436 C459 0.950 . S
H437 C460 0.950 . S
H438 C462 0.950 . S
H439 C463 0.950 . S
H440 C464 0.951 . S
H441 C466 0.951 . S
H442 C468 0.950 . S
H443 C469 0.950 . S
H444 C471 0.950 . S
H445 C474 0.950 . S
H446 C475 0.950 . S
H447 C477 0.950 . S
H448 C478 0.950 . S
C449 H431 0.951 . S
C449 C450 1.366 . S
C449 C451 1.388 . S
C450 C449 1.366 . S
C450 C454 1.385 . S
C451 H432 0.951 . S
C451 C449 1.388 . S
C451 C452 1.366 . S
C452 C451 1.366 . S
C452 C453 1.414 . S
C452 C455 1.499 . S
C453 H433 0.950 . S
C453 C452 1.414 . S
C453 C454 1.374 . S
C454 H434 0.950 . S
C454 C450 1.385 . S
C454 C453 1.374 . S
C455 C452 1.499 . S
C455 C456 1.373 . S
C455 C457 1.389 . S
C456 H435 0.950 . S
C456 C455 1.373 . S
C456 C472 1.377 . S
C457 C455 1.389 . S
C457 C458 1.524 . S
C457 C471 1.377 . S
C458 C457 1.524 . S
C458 C459 1.397 . S
C458 C463 1.363 . S
C459 H436 0.950 . S
C459 C458 1.397 . S
C459 C460 1.334 . S
C460 H437 0.950 . S
C460 C459 1.334 . S
C460 C461 1.287 . S
C461 C460 1.287 . S
C461 C462 1.524 . S
C461 H480 0.913 . S
C462 H438 0.950 . S
C462 C461 1.524 . S
C462 C463 1.415 . S
C463 H439 0.950 . S
C463 C458 1.363 . S
C463 C462 1.415 . S
C464 H440 0.951 . S
C464 C465 1.366 . S
C464 C466 1.388 . S
C465 C464 1.366 . S
C465 C469 1.385 . S
C466 H441 0.951 . S
C466 C464 1.388 . S
C466 C467 1.366 . S
C467 C466 1.366 . S
C467 C468 1.414 . S
C467 C470 1.499 . S
C468 H442 0.950 . S
C468 C467 1.414 . S
C468 C469 1.374 . S
C469 H443 0.950 . S
C469 C465 1.385 . S
C469 C468 1.374 . S
C470 C467 1.499 . S
C470 C471 1.373 . S
C470 C472 1.389 . S
C471 H444 0.950 . S
C471 C457 1.377 . S
C471 C470 1.373 . S
C472 C456 1.377 . S
C472 C470 1.389 . S
C472 C473 1.524 . S
C473 C472 1.524 . S
C473 C474 1.397 . S
C473 C478 1.363 . S
C474 H445 0.950 . S
C474 C473 1.397 . S
C474 C475 1.334 . S
C475 H446 0.950 . S
C475 C474 1.334 . S
C475 C476 1.287 . S
C476 C475 1.287 . S
C476 C477 1.524 . S
C476 H479 0.999 . S
C477 H447 0.950 . S
C477 C476 1.524 . S
C477 C478 1.415 . S
C478 H448 0.950 . S
C478 C473 1.363 . S
C478 C477 1.415 . S
H479 C476 0.999 . S
H480 C461 0.913 . S
H481 C499 0.951 . S
H482 C501 0.951 . S
H483 C503 0.950 . S
H484 C504 0.950 . S
H485 C506 0.950 . S
H486 C509 0.950 . S
H487 C510 0.950 . S
H488 C512 0.950 . S
H489 C513 0.950 . S
H490 C514 0.951 . S
H491 C516 0.951 . S
H492 C518 0.950 . S
H493 C519 0.950 . S
H494 C521 0.950 . S
H495 C524 0.950 . S
H496 C525 0.950 . S
H497 C527 0.950 . S
H498 C528 0.950 . S
C499 H481 0.951 . S
C499 C500 1.366 . S
C499 C501 1.388 . S
C500 C499 1.366 . S
C500 C504 1.385 . S
C501 H482 0.951 . S
C501 C499 1.388 . S
C501 C502 1.366 . S
C502 C501 1.366 . S
C502 C503 1.414 . S
C502 C505 1.499 . S
C503 H483 0.950 . S
C503 C502 1.414 . S
C503 C504 1.374 . S
C504 H484 0.950 . S
C504 C500 1.385 . S
C504 C503 1.374 . S
C505 C502 1.499 . S
C505 C506 1.373 . S
C505 C507 1.389 . S
C506 H485 0.950 . S
C506 C505 1.373 . S
C506 C522 1.377 . S
C507 C505 1.389 . S
C507 C508 1.524 . S
C507 C521 1.377 . S
C508 C507 1.524 . S
C508 C509 1.397 . S
C508 C513 1.363 . S
C509 H486 0.950 . S
C509 C508 1.397 . S
C509 C510 1.334 . S
C510 H487 0.950 . S
C510 C509 1.334 . S
C510 C511 1.287 . S
C511 C510 1.287 . S
C511 C512 1.524 . S
C511 H530 0.913 . S
C512 H488 0.950 . S
C512 C511 1.524 . S
C512 C513 1.415 . S
C513 H489 0.950 . S
C513 C508 1.363 . S
C513 C512 1.415 . S
C514 H490 0.951 . S
C514 C515 1.366 . S
C514 C516 1.388 . S
C515 C514 1.366 . S
C515 C519 1.385 . S
C516 H491 0.951 . S
C516 C514 1.388 . S
C516 C517 1.366 . S
C517 C516 1.366 . S
C517 C518 1.414 . S
C517 C520 1.499 . S
C518 H492 0.950 . S
C518 C517 1.414 . S
C518 C519 1.374 . S
C519 H493 0.950 . S
C519 C515 1.385 . S
C519 C518 1.374 . S
C520 C517 1.499 . S
C520 C521 1.373 . S
C520 C522 1.389 . S
C521 H494 0.950 . S
C521 C507 1.377 . S
C521 C520 1.373 . S
C522 C506 1.377 . S
C522 C520 1.389 . S
C522 C523 1.524 . S
C523 C522 1.524 . S
C523 C524 1.397 . S
C523 C528 1.363 . S
C524 H495 0.950 . S
C524 C523 1.397 . S
C524 C525 1.334 . S
C525 H496 0.950 . S
C525 C524 1.334 . S
C525 C526 1.287 . S
C526 C525 1.287 . S
C526 C527 1.524 . S
C526 H529 0.999 . S
C527 H497 0.950 . S
C527 C526 1.524 . S
C527 C528 1.415 . S
C528 H498 0.950 . S
C528 C523 1.363 . S
C528 C527 1.415 . S
H529 C526 0.999 . S
H530 C511 0.913 . S
H531 C549 0.951 . S
H532 C551 0.951 . S
H533 C553 0.950 . S
H534 C554 0.950 . S
H535 C556 0.950 . S
H536 C559 0.950 . S
H537 C560 0.950 . S
H538 C562 0.950 . S
H539 C563 0.950 . S
H540 C564 0.951 . S
H541 C566 0.951 . S
H542 C568 0.950 . S
H543 C569 0.950 . S
H544 C571 0.950 . S
H545 C574 0.950 . S
H546 C575 0.950 . S
H547 C577 0.950 . S
H548 C578 0.950 . S
C549 H531 0.951 . S
C549 C550 1.366 . S
C549 C551 1.388 . S
C550 C549 1.366 . S
C550 C554 1.385 . S
C551 H532 0.951 . S
C551 C549 1.388 . S
C551 C552 1.366 . S
C552 C551 1.366 . S
C552 C553 1.414 . S
C552 C555 1.499 . S
C553 H533 0.950 . S
C553 C552 1.414 . S
C553 C554 1.374 . S
C554 H534 0.950 . S
C554 C550 1.385 . S
C554 C553 1.374 . S
C555 C552 1.499 . S
C555 C556 1.373 . S
C555 C557 1.389 . S
C556 H535 0.950 . S
C556 C555 1.373 . S
C556 C572 1.377 . S
C557 C555 1.389 . S
C557 C558 1.524 . S
C557 C571 1.377 . S
C558 C557 1.524 . S
C558 C559 1.397 . S
C558 C563 1.363 . S
C559 H536 0.950 . S
C559 C558 1.397 . S
C559 C560 1.334 . S
C560 H537 0.950 . S
C560 C559 1.334 . S
C560 C561 1.287 . S
C561 C560 1.287 . S
C561 C562 1.524 . S
C561 H580 0.913 . S
C562 H538 0.950 . S
C562 C561 1.524 . S
C562 C563 1.415 . S
C563 H539 0.950 . S
C563 C558 1.363 . S
C563 C562 1.415 . S
C564 H540 0.951 . S
C564 C565 1.366 . S
C564 C566 1.388 . S
C565 C564 1.366 . S
C565 C569 1.385 . S
C566 H541 0.951 . S
C566 C564 1.388 . S
C566 C567 1.366 . S
C567 C566 1.366 . S
C567 C568 1.414 . S
C567 C570 1.499 . S
C568 H542 0.950 . S
C568 C567 1.414 . S
C568 C569 1.374 . S
C569 H543 0.950 . S
C569 C565 1.385 . S
C569 C568 1.374 . S
C570 C567 1.499 . S
C570 C571 1.373 . S
C570 C572 1.389 . S
C571 H544 0.950 . S
C571 C557 1.377 . S
C571 C570 1.373 . S
C572 C556 1.377 . S
C572 C570 1.389 . S
C572 C573 1.524 . S
C573 C572 1.524 . S
C573 C574 1.397 . S
C573 C578 1.363 . S
C574 H545 0.950 . S
C574 C573 1.397 . S
C574 C575 1.334 . S
C575 H546 0.950 . S
C575 C574 1.334 . S
C575 C576 1.287 . S
C576 C575 1.287 . S
C576 C577 1.524 . S
C576 H579 0.999 . S
C577 H547 0.950 . S
C577 C576 1.524 . S
C577 C578 1.415 . S
C578 H548 0.950 . S
C578 C573 1.363 . S
C578 C577 1.415 . S
H579 C576 0.999 . S
H580 C561 0.913 . S
H581 C599 0.951 . S
H582 C601 0.951 . S
H583 C603 0.950 . S
H584 C604 0.950 . S
H585 C606 0.950 . S
H586 C609 0.950 . S
H587 C610 0.950 . S
H588 C612 0.950 . S
H589 C613 0.950 . S
H590 C614 0.951 . S
H591 C616 0.951 . S
H592 C618 0.950 . S
H593 C619 0.950 . S
H594 C621 0.950 . S
H595 C624 0.950 . S
H596 C625 0.954 . S
H597 C627 0.950 . S
H598 C628 0.950 . S
C599 H581 0.951 . S
C599 C600 1.366 . S
C599 C601 1.388 . S
C600 C599 1.366 . S
C600 C604 1.385 . S
C601 H582 0.951 . S
C601 C599 1.388 . S
C601 C602 1.366 . S
C602 C601 1.366 . S
C602 C603 1.414 . S
C602 C605 1.499 . S
C603 H583 0.950 . S
C603 C602 1.414 . S
C603 C604 1.374 . S
C604 H584 0.950 . S
C604 C600 1.385 . S
C604 C603 1.374 . S
C605 C602 1.499 . S
C605 C606 1.373 . S
C605 C607 1.389 . S
C606 H585 0.950 . S
C606 C605 1.373 . S
C606 C622 1.377 . S
C607 C605 1.389 . S
C607 C608 1.524 . S
C607 C621 1.377 . S
C608 C607 1.524 . S
C608 C609 1.397 . S
C608 C613 1.363 . S
C609 H586 0.950 . S
C609 C608 1.397 . S
C609 C610 1.334 . S
C610 H587 0.950 . S
C610 C609 1.334 . S
C610 C611 1.287 . S
C611 C610 1.287 . S
C611 C612 1.524 . S
C611 H630 0.913 . S
C612 H588 0.950 . S
C612 C611 1.524 . S
C612 C613 1.415 . S
C613 H589 0.950 . S
C613 C608 1.363 . S
C613 C612 1.415 . S
C614 H590 0.951 . S
C614 C615 1.366 . S
C614 C616 1.388 . S
C615 C614 1.366 . S
C615 C619 1.385 . S
C616 H591 0.951 . S
C616 C614 1.388 . S
C616 C617 1.366 . S
C617 C616 1.366 . S
C617 C618 1.414 . S
C617 C620 1.499 . S
C618 H592 0.950 . S
C618 C617 1.414 . S
C618 C619 1.374 . S
C619 H593 0.950 . S
C619 C615 1.385 . S
C619 C618 1.374 . S
C620 C617 1.499 . S
C620 C621 1.373 . S
C620 C622 1.389 . S
C621 H594 0.950 . S
C621 C607 1.377 . S
C621 C620 1.373 . S
C622 C606 1.377 . S
C622 C620 1.389 . S
C622 C623 1.524 . S
C623 C622 1.524 . S
C623 C624 1.397 . S
C623 C628 1.363 . S
C624 H595 0.950 . S
C624 C623 1.397 . S
C624 C625 1.334 . S
C625 H596 0.954 . S
C625 C624 1.334 . S
C625 C626 1.287 . S
C626 C625 1.287 . S
C626 C627 1.524 . S
C626 H629 0.999 1_565 S
C627 H597 0.950 . S
C627 C626 1.524 . S
C627 C628 1.415 . S
C628 H598 0.950 . S
C628 C623 1.363 . S
C628 C627 1.415 . S
H629 C626 0.999 1_545 S
H630 C611 0.913 . S
H631 C649 0.951 . S
H632 C651 0.951 . S
H633 C653 0.950 . S
H634 C654 0.950 . S
H635 C656 0.950 . S
H636 C659 0.950 . S
H637 C660 0.950 . S
H638 C662 0.950 . S
H639 C663 0.950 . S
H640 C664 0.951 . S
H641 C666 0.951 . S
H642 C668 0.950 . S
H643 C669 0.950 . S
H644 C671 0.950 . S
H645 C674 0.950 . S
H646 C675 0.950 . S
H647 C677 0.950 . S
H648 C678 0.950 . S
C649 H631 0.951 . S
C649 C650 1.366 . S
C649 C651 1.388 . S
C650 C649 1.366 . S
C650 C654 1.385 . S
C651 H632 0.951 . S
C651 C649 1.388 . S
C651 C652 1.366 . S
C652 C651 1.366 . S
C652 C653 1.414 . S
C652 C655 1.499 . S
C653 H633 0.950 . S
C653 C652 1.414 . S
C653 C654 1.374 . S
C654 H634 0.950 . S
C654 C650 1.385 . S
C654 C653 1.374 . S
C655 C652 1.499 . S
C655 C656 1.373 . S
C655 C657 1.389 . S
C656 H635 0.950 . S
C656 C655 1.373 . S
C656 C672 1.377 . S
C657 C655 1.389 . S
C657 C658 1.524 . S
C657 C671 1.377 . S
C658 C657 1.524 . S
C658 C659 1.397 . S
C658 C663 1.363 . S
C659 H636 0.950 . S
C659 C658 1.397 . S
C659 C660 1.334 . S
C660 H637 0.950 . S
C660 C659 1.334 . S
C660 C661 1.287 . S
C661 C660 1.287 . S
C661 C662 1.524 . S
C661 H680 0.913 . S
C662 H638 0.950 . S
C662 C661 1.524 . S
C662 C663 1.415 . S
C663 H639 0.950 . S
C663 C658 1.363 . S
C663 C662 1.415 . S
C664 H640 0.951 . S
C664 C665 1.366 . S
C664 C666 1.388 . S
C665 C664 1.366 . S
C665 C669 1.385 . S
C666 H641 0.951 . S
C666 C664 1.388 . S
C666 C667 1.366 . S
C667 C666 1.366 . S
C667 C668 1.414 . S
C667 C670 1.499 . S
C668 H642 0.950 . S
C668 C667 1.414 . S
C668 C669 1.374 . S
C669 H643 0.950 . S
C669 C665 1.385 . S
C669 C668 1.374 . S
C670 C667 1.499 . S
C670 C671 1.373 . S
C670 C672 1.389 . S
C671 H644 0.950 . S
C671 C657 1.377 . S
C671 C670 1.373 . S
C672 C656 1.377 . S
C672 C670 1.389 . S
C672 C673 1.524 . S
C673 C672 1.524 . S
C673 C674 1.397 . S
C673 C678 1.363 . S
C674 H645 0.950 . S
C674 C673 1.397 . S
C674 C675 1.334 . S
C675 H646 0.950 . S
C675 C674 1.334 . S
C675 C676 1.287 . S
C676 C675 1.287 . S
C676 C677 1.524 . S
C676 H679 0.999 . S
C677 H647 0.950 . S
C677 C676 1.524 . S
C677 C678 1.415 . S
C678 H648 0.950 . S
C678 C673 1.363 . S
C678 C677 1.415 . S
H679 C676 0.999 . S
H680 C661 0.913 . S
H681 C699 0.951 . S
H682 C701 0.951 . S
H683 C703 0.950 . S
H684 C704 0.950 . S
H685 C706 0.950 . S
H686 C709 0.950 . S
H687 C710 0.950 . S
H688 C712 0.950 . S
H689 C713 0.950 . S
H690 C714 0.951 . S
H691 C716 0.951 . S
H692 C718 0.950 . S
H693 C719 0.950 . S
H694 C721 0.950 . S
H695 C724 0.950 . S
H696 C725 0.950 . S
H697 C727 0.950 . S
H698 C728 0.950 . S
C699 H681 0.951 . S
C699 C700 1.366 . S
C699 C701 1.388 . S
C700 C699 1.366 . S
C700 C704 1.385 . S
C701 H682 0.951 . S
C701 C699 1.388 . S
C701 C702 1.366 . S
C702 C701 1.366 . S
C702 C703 1.414 . S
C702 C705 1.499 . S
C703 H683 0.950 . S
C703 C702 1.414 . S
C703 C704 1.374 . S
C704 H684 0.950 . S
C704 C700 1.385 . S
C704 C703 1.374 . S
C705 C702 1.499 . S
C705 C706 1.373 . S
C705 C707 1.389 . S
C706 H685 0.950 . S
C706 C705 1.373 . S
C706 C722 1.377 . S
C707 C705 1.389 . S
C707 C708 1.524 . S
C707 C721 1.377 . S
C708 C707 1.524 . S
C708 C709 1.397 . S
C708 C713 1.363 . S
C709 H686 0.950 . S
C709 C708 1.397 . S
C709 C710 1.334 . S
C710 H687 0.950 . S
C710 C709 1.334 . S
C710 C711 1.287 . S
C711 C710 1.287 . S
C711 C712 1.524 . S
C711 H730 0.913 . S
C712 H688 0.950 . S
C712 C711 1.524 . S
C712 C713 1.415 . S
C713 H689 0.950 . S
C713 C708 1.363 . S
C713 C712 1.415 . S
C714 H690 0.951 . S
C714 C715 1.366 . S
C714 C716 1.388 . S
C715 C714 1.366 . S
C715 C719 1.385 . S
C716 H691 0.951 . S
C716 C714 1.388 . S
C716 C717 1.366 . S
C717 C716 1.366 . S
C717 C718 1.414 . S
C717 C720 1.499 . S
C718 H692 0.950 . S
C718 C717 1.414 . S
C718 C719 1.374 . S
C719 H693 0.950 . S
C719 C715 1.385 . S
C719 C718 1.374 . S
C720 C717 1.499 . S
C720 C721 1.373 . S
C720 C722 1.389 . S
C721 H694 0.950 . S
C721 C707 1.377 . S
C721 C720 1.373 . S
C722 C706 1.377 . S
C722 C720 1.389 . S
C722 C723 1.524 . S
C723 C722 1.524 . S
C723 C724 1.397 . S
C723 C728 1.363 . S
C724 H695 0.950 . S
C724 C723 1.397 . S
C724 C725 1.334 . S
C725 H696 0.950 . S
C725 C724 1.334 . S
C725 C726 1.287 . S
C726 C725 1.287 . S
C726 C727 1.524 . S
C726 H729 0.999 . S
C727 H697 0.950 . S
C727 C726 1.524 . S
C727 C728 1.415 . S
C728 H698 0.950 . S
C728 C723 1.363 . S
C728 C727 1.415 . S
H729 C726 0.999 . S
H730 C711 0.913 . S
H731 C749 0.951 . S
H732 C751 0.951 . S
H733 C753 0.950 . S
H734 C754 0.950 . S
H735 C756 0.950 . S
H736 C759 0.950 . S
H737 C760 0.950 . S
H738 C762 0.950 . S
H739 C763 0.950 . S
H740 C764 0.951 . S
H741 C766 0.951 . S
H742 C768 0.950 . S
H743 C769 0.950 . S
H744 C771 0.950 . S
H745 C774 0.950 . S
H746 C775 0.950 . S
H747 C777 0.950 . S
H748 C778 0.950 . S
C749 H731 0.951 . S
C749 C750 1.366 . S
C749 C751 1.388 . S
C750 C749 1.366 . S
C750 C754 1.385 . S
C751 H732 0.951 . S
C751 C749 1.388 . S
C751 C752 1.366 . S
C752 C751 1.366 . S
C752 C753 1.414 . S
C752 C755 1.499 . S
C753 H733 0.950 . S
C753 C752 1.414 . S
C753 C754 1.374 . S
C754 H734 0.950 . S
C754 C750 1.385 . S
C754 C753 1.374 . S
C755 C752 1.499 . S
C755 C756 1.373 . S
C755 C757 1.389 . S
C756 H735 0.950 . S
C756 C755 1.373 . S
C756 C772 1.377 . S
C757 C755 1.389 . S
C757 C758 1.524 . S
C757 C771 1.377 . S
C758 C757 1.524 . S
C758 C759 1.397 . S
C758 C763 1.363 . S
C759 H736 0.950 . S
C759 C758 1.397 . S
C759 C760 1.334 . S
C760 H737 0.950 . S
C760 C759 1.334 . S
C760 C761 1.287 . S
C761 C760 1.287 . S
C761 C762 1.524 . S
C761 H780 0.913 1_556 S
C762 H738 0.950 . S
C762 C761 1.524 . S
C762 C763 1.415 . S
C763 H739 0.950 . S
C763 C758 1.363 . S
C763 C762 1.415 . S
C764 H740 0.951 . S
C764 C765 1.366 . S
C764 C766 1.388 . S
C765 C764 1.366 . S
C765 C769 1.385 . S
C766 H741 0.951 . S
C766 C764 1.388 . S
C766 C767 1.366 . S
C767 C766 1.366 . S
C767 C768 1.414 . S
C767 C770 1.499 . S
C768 H742 0.950 . S
C768 C767 1.414 . S
C768 C769 1.374 . S
C769 H743 0.950 . S
C769 C765 1.385 . S
C769 C768 1.374 . S
C770 C767 1.499 . S
C770 C771 1.373 . S
C770 C772 1.389 . S
C771 H744 0.950 . S
C771 C757 1.377 . S
C771 C770 1.373 . S
C772 C756 1.377 . S
C772 C770 1.389 . S
C772 C773 1.524 . S
C773 C772 1.524 . S
C773 C774 1.397 . S
C773 C778 1.363 . S
C774 H745 0.950 . S
C774 C773 1.397 . S
C774 C775 1.334 . S
C775 H746 0.950 . S
C775 C774 1.334 . S
C775 C776 1.287 . S
C776 C775 1.287 . S
C776 C777 1.524 . S
C776 H779 0.999 . S
C777 H747 0.950 . S
C777 C776 1.524 . S
C777 C778 1.415 . S
C778 H748 0.950 . S
C778 C773 1.363 . S
C778 C777 1.415 . S
H779 C776 0.999 . S
H780 C761 0.913 1_554 S
H781 C799 0.951 . S
H782 C801 0.951 . S
H783 C803 0.950 . S
H784 C804 0.950 . S
H785 C806 0.950 . S
H786 C809 0.950 . S
H787 C810 0.950 . S
H788 C812 0.950 1_554 S
H789 C813 0.950 . S
H790 C814 0.951 . S
H791 C816 0.951 . S
H792 C818 0.950 . S
H793 C819 0.950 . S
H794 C821 0.950 . S
H795 C824 0.950 . S
H796 C825 0.950 . S
H797 C827 0.950 . S
H798 C828 0.950 . S
C799 H781 0.951 . S
C799 C800 1.366 . S
C799 C801 1.388 . S
C800 C799 1.366 . S
C800 C804 1.385 . S
C801 H782 0.951 . S
C801 C799 1.388 . S
C801 C802 1.366 . S
C802 C801 1.366 . S
C802 C803 1.414 . S
C802 C805 1.499 . S
C803 H783 0.950 . S
C803 C802 1.414 . S
C803 C804 1.374 . S
C804 H784 0.950 . S
C804 C800 1.385 . S
C804 C803 1.374 . S
C805 C802 1.499 . S
C805 C806 1.373 . S
C805 C807 1.389 . S
C806 H785 0.950 . S
C806 C805 1.373 . S
C806 C822 1.377 . S
C807 C805 1.389 . S
C807 C808 1.524 . S
C807 C821 1.377 . S
C808 C807 1.524 . S
C808 C809 1.397 . S
C808 C813 1.363 . S
C809 H786 0.950 . S
C809 C808 1.397 . S
C809 C810 1.334 1_556 S
C810 H787 0.950 . S
C810 C809 1.334 1_554 S
C810 C811 1.287 . S
C811 C810 1.287 . S
C811 C812 1.524 1_554 S
C811 H830 0.913 . S
C812 H788 0.950 1_556 S
C812 C811 1.524 1_556 S
C812 C813 1.415 . S
C813 H789 0.950 . S
C813 C808 1.363 . S
C813 C812 1.415 . S
C814 H790 0.951 . S
C814 C815 1.366 . S
C814 C816 1.388 . S
C815 C814 1.366 . S
C815 C819 1.385 . S
C816 H791 0.951 . S
C816 C814 1.388 . S
C816 C817 1.366 . S
C817 C816 1.366 . S
C817 C818 1.414 . S
C817 C820 1.499 . S
C818 H792 0.950 . S
C818 C817 1.414 . S
C818 C819 1.374 . S
C819 H793 0.950 . S
C819 C815 1.385 . S
C819 C818 1.374 . S
C820 C817 1.499 . S
C820 C821 1.373 . S
C820 C822 1.389 . S
C821 H794 0.950 . S
C821 C807 1.377 . S
C821 C820 1.373 . S
C822 C806 1.377 . S
C822 C820 1.389 . S
C822 C823 1.524 . S
C823 C822 1.524 . S
C823 C824 1.397 . S
C823 C828 1.363 . S
C824 H795 0.950 . S
C824 C823 1.397 . S
C824 C825 1.334 . S
C825 H796 0.950 . S
C825 C824 1.334 . S
C825 C826 1.287 . S
C826 C825 1.287 . S
C826 C827 1.524 . S
C826 H829 0.999 . S
C827 H797 0.950 . S
C827 C826 1.524 . S
C827 C828 1.415 . S
C828 H798 0.950 . S
C828 C823 1.363 . S
C828 C827 1.415 . S
H829 C826 0.999 . S
H830 C811 0.913 . S
H831 C849 0.951 1_554 S
H832 C851 0.951 . S
H833 C853 0.950 . S
H834 C854 0.950 . S
H835 C856 0.950 . S
H836 C859 0.950 . S
H837 C860 0.950 . S
H838 C862 0.950 . S
H839 C863 0.950 . S
H840 C864 0.951 . S
H841 C866 0.951 . S
H842 C868 0.950 . S
H843 C869 0.950 . S
H844 C871 0.950 . S
H845 C874 0.950 . S
H846 C875 0.950 . S
H847 C877 0.950 . S
H848 C878 0.950 . S
C849 H831 0.951 1_556 S
C849 C850 1.366 1_556 S
C849 C851 1.388 . S
C850 C849 1.366 1_554 S
C850 C854 1.385 1_554 S
C851 H832 0.951 . S
C851 C849 1.388 . S
C851 C852 1.366 . S
C852 C851 1.366 . S
C852 C853 1.414 . S
C852 C855 1.499 . S
C853 H833 0.950 . S
C853 C852 1.414 . S
C853 C854 1.374 . S
C854 H834 0.950 . S
C854 C850 1.385 1_556 S
C854 C853 1.374 . S
C855 C852 1.499 . S
C855 C856 1.373 . S
C855 C857 1.389 . S
C856 H835 0.950 . S
C856 C855 1.373 . S
C856 C872 1.377 . S
C857 C855 1.389 . S
C857 C858 1.524 . S
C857 C871 1.377 . S
C858 C857 1.524 . S
C858 C859 1.397 1_556 S
C858 C863 1.363 . S
C859 H836 0.950 . S
C859 C858 1.397 1_554 S
C859 C860 1.334 . S
C860 H837 0.950 . S
C860 C859 1.334 . S
C860 C861 1.287 . S
C861 C860 1.287 . S
C861 C862 1.524 . S
C861 H880 0.913 . S
C862 H838 0.950 . S
C862 C861 1.524 . S
C862 C863 1.415 1_554 S
C863 H839 0.950 . S
C863 C858 1.363 . S
C863 C862 1.415 1_556 S
C864 H840 0.951 . S
C864 C865 1.366 . S
C864 C866 1.388 . S
C865 C864 1.366 . S
C865 C869 1.385 . S
C866 H841 0.951 . S
C866 C864 1.388 . S
C866 C867 1.366 . S
C867 C866 1.366 . S
C867 C868 1.414 . S
C867 C870 1.499 . S
C868 H842 0.950 . S
C868 C867 1.414 . S
C868 C869 1.374 . S
C869 H843 0.950 . S
C869 C865 1.385 . S
C869 C868 1.374 . S
C870 C867 1.499 . S
C870 C871 1.373 . S
C870 C872 1.389 . S
C871 H844 0.950 . S
C871 C857 1.377 . S
C871 C870 1.373 . S
C872 C856 1.377 . S
C872 C870 1.389 . S
C872 C873 1.524 . S
C873 C872 1.524 . S
C873 C874 1.397 . S
C873 C878 1.363 . S
C874 H845 0.950 . S
C874 C873 1.397 . S
C874 C875 1.334 . S
C875 H846 0.950 . S
C875 C874 1.334 . S
C875 C876 1.287 . S
C876 C875 1.287 . S
C876 C877 1.524 . S
C876 H879 0.999 . S
C877 H847 0.950 . S
C877 C876 1.524 . S
C877 C878 1.415 . S
C878 H848 0.950 . S
C878 C873 1.363 . S
C878 C877 1.415 . S
H879 C876 0.999 . S
H880 C861 0.913 . S
H881 C899 0.951 . S
H882 C901 0.951 . S
H883 C903 0.955 . S
H884 C904 0.950 . S
H885 C906 0.950 . S
H886 C909 0.950 . S
H887 C910 0.950 1_554 S
H888 C912 0.950 . S
H889 C913 0.950 . S
H890 C914 0.951 . S
H891 C916 0.951 . S
H892 C918 0.950 . S
H893 C919 0.950 . S
H894 C921 0.950 . S
H895 C924 0.950 . S
H896 C925 0.950 . S
H897 C927 0.950 . S
H898 C928 0.950 . S
C899 H881 0.951 . S
C899 C900 1.366 1_556 S
C899 C901 1.388 . S
C900 C899 1.366 1_554 S
C900 C904 1.385 . S
C901 H882 0.951 . S
C901 C899 1.388 . S
C901 C902 1.366 . S
C902 C901 1.366 . S
C902 C903 1.398 1_556 S
C902 C905 1.499 . S
C903 H883 0.955 . S
C903 C902 1.398 1_554 S
C903 C904 1.385 . S
C904 H884 0.950 . S
C904 C900 1.385 . S
C904 C903 1.385 . S
C905 C902 1.499 . S
C905 C906 1.373 . S
C905 C907 1.389 . S
C906 H885 0.950 . S
C906 C905 1.373 . S
C906 C922 1.377 . S
C907 C905 1.389 . S
C907 C908 1.524 . S
C907 C921 1.377 . S
C908 C907 1.524 . S
C908 C909 1.397 . S
C908 C913 1.363 . S
C909 H886 0.950 . S
C909 C908 1.397 . S
C909 C910 1.334 . S
C910 H887 0.950 1_556 S
C910 C909 1.334 . S
C910 C911 1.287 . S
C911 C910 1.287 . S
C911 C912 1.524 . S
C911 H930 0.913 . S
C912 H888 0.950 . S
C912 C911 1.524 . S
C912 C913 1.415 . S
C913 H889 0.950 . S
C913 C908 1.363 . S
C913 C912 1.415 . S
C914 H890 0.951 . S
C914 C915 1.366 . S
C914 C916 1.388 . S
C915 C914 1.366 . S
C915 C919 1.385 . S
C916 H891 0.951 . S
C916 C914 1.388 . S
C916 C917 1.366 . S
C917 C916 1.366 . S
C917 C918 1.414 . S
C917 C920 1.499 . S
C918 H892 0.950 . S
C918 C917 1.414 . S
C918 C919 1.374 . S
C919 H893 0.950 . S
C919 C915 1.385 . S
C919 C918 1.374 . S
C920 C917 1.499 . S
C920 C921 1.373 . S
C920 C922 1.389 . S
C921 H894 0.950 . S
C921 C907 1.377 . S
C921 C920 1.373 . S
C922 C906 1.377 . S
C922 C920 1.389 . S
C922 C923 1.524 . S
C923 C922 1.524 . S
C923 C924 1.397 . S
C923 C928 1.363 . S
C924 H895 0.950 . S
C924 C923 1.397 . S
C924 C925 1.334 . S
C925 H896 0.950 . S
C925 C924 1.334 . S
C925 C926 1.287 . S
C926 C925 1.287 . S
C926 C927 1.524 . S
C926 H929 0.999 . S
C927 H897 0.950 . S
C927 C926 1.524 . S
C927 C928 1.415 . S
C928 H898 0.950 . S
C928 C923 1.363 . S
C928 C927 1.415 . S
H929 C926 0.999 . S
H930 C911 0.913 . S
H931 C949 0.951 . S
H932 C951 0.951 . S
H933 C953 0.950 . S
H934 C954 0.950 . S
H935 C956 0.950 . S
H936 C959 0.950 . S
H937 C960 0.950 . S
H938 C962 0.950 . S
H939 C963 0.950 . S
H940 C964 0.951 . S
H941 C966 0.951 . S
H942 C968 0.950 . S
H943 C969 0.950 . S
H944 C971 0.950 . S
H945 C974 0.950 . S
H946 C975 0.950 . S
H947 C977 0.950 . S
H948 C978 0.950 . S
C949 H931 0.951 . S
C949 C950 1.366 . S
C949 C951 1.388 . S
C950 C949 1.366 . S
C950 C954 1.385 . S
C951 H932 0.951 . S
C951 C949 1.388 . S
C951 C952 1.366 . S
C952 C951 1.366 . S
C952 C953 1.414 . S
C952 C955 1.499 . S
C953 H933 0.950 . S
C953 C952 1.414 . S
C953 C954 1.374 . S
C954 H934 0.950 . S
C954 C950 1.385 . S
C954 C953 1.374 . S
C955 C952 1.499 . S
C955 C956 1.373 . S
C955 C957 1.389 . S
C956 H935 0.950 . S
C956 C955 1.373 . S
C956 C972 1.377 . S
C957 C955 1.389 . S
C957 C958 1.524 . S
C957 C971 1.377 . S
C958 C957 1.524 . S
C958 C959 1.397 . S
C958 C963 1.363 . S
C959 H936 0.950 . S
C959 C958 1.397 . S
C959 C960 1.334 . S
C960 H937 0.950 . S
C960 C959 1.334 . S
C960 C961 1.287 . S
C961 C960 1.287 . S
C961 C962 1.524 . S
C961 H980 0.913 . S
C962 H938 0.950 . S
C962 C961 1.524 . S
C962 C963 1.415 . S
C963 H939 0.950 . S
C963 C958 1.363 . S
C963 C962 1.415 . S
C964 H940 0.951 . S
C964 C965 1.366 . S
C964 C966 1.388 . S
C965 C964 1.366 . S
C965 C969 1.385 . S
C966 H941 0.951 . S
C966 C964 1.388 . S
C966 C967 1.366 . S
C967 C966 1.366 . S
C967 C968 1.414 . S
C967 C970 1.499 . S
C968 H942 0.950 . S
C968 C967 1.414 . S
C968 C969 1.374 . S
C969 H943 0.950 . S
C969 C965 1.385 . S
C969 C968 1.374 . S
C970 C967 1.499 . S
C970 C971 1.373 . S
C970 C972 1.389 . S
C971 H944 0.950 . S
C971 C957 1.377 . S
C971 C970 1.373 . S
C972 C956 1.377 . S
C972 C970 1.389 . S
C972 C973 1.524 . S
C973 C972 1.524 . S
C973 C974 1.397 . S
C973 C978 1.363 . S
C974 H945 0.950 . S
C974 C973 1.397 . S
C974 C975 1.334 . S
C975 H946 0.950 . S
C975 C974 1.334 . S
C975 C976 1.287 . S
C976 C975 1.287 . S
C976 C977 1.524 . S
C976 H979 0.999 . S
C977 H947 0.950 . S
C977 C976 1.524 . S
C977 C978 1.415 . S
C978 H948 0.950 . S
C978 C973 1.363 . S
C978 C977 1.415 . S
H979 C976 0.999 . S
H980 C961 0.913 . S
H981 C999 0.951 . S
H982 C1001 0.951 . S
H983 C1003 0.950 . S
H984 C1004 0.950 . S
H985 C1006 0.950 . S
H986 C1009 0.950 . S
H987 C1010 0.950 . S
H988 C1012 0.950 . S
H989 C1013 0.950 . S
H990 C1014 0.951 . S
H991 C1016 0.951 . S
H992 C1018 0.950 . S
H993 C1019 0.950 . S
H994 C1021 0.950 . S
H995 C1024 0.950 . S
H996 C1025 0.950 . S
H997 C1027 0.950 . S
H998 C1028 0.950 . S
C999 H981 0.951 . S
C999 C1000 1.366 . S
C999 C1001 1.388 . S
C1000 C999 1.366 . S
C1000 C1004 1.385 . S
C1001 H982 0.951 . S
C1001 C999 1.388 . S
C1001 C1002 1.366 . S
C1002 C1001 1.366 . S
C1002 C1003 1.414 . S
C1002 C1005 1.499 . S
C1003 H983 0.950 . S
C1003 C1002 1.414 . S
C1003 C1004 1.374 . S
C1004 H984 0.950 . S
C1004 C1000 1.385 . S
C1004 C1003 1.374 . S
C1005 C1002 1.499 . S
C1005 C1006 1.373 . S
C1005 C1007 1.389 . S
C1006 H985 0.950 . S
C1006 C1005 1.373 . S
C1006 C1022 1.377 . S
C1007 C1005 1.389 . S
C1007 C1008 1.524 . S
C1007 C1021 1.377 . S
C1008 C1007 1.524 . S
C1008 C1009 1.397 . S
C1008 C1013 1.363 . S
C1009 H986 0.950 . S
C1009 C1008 1.397 . S
C1009 C1010 1.334 . S
C1010 H987 0.950 . S
C1010 C1009 1.334 . S
C1010 C1011 1.287 . S
C1011 C1010 1.287 . S
C1011 C1012 1.524 . S
C1011 H1030 0.913 1_556 S
C1012 H988 0.950 . S
C1012 C1011 1.524 . S
C1012 C1013 1.415 . S
C1013 H989 0.950 . S
C1013 C1008 1.363 . S
C1013 C1012 1.415 . S
C1014 H990 0.951 . S
C1014 C1015 1.366 . S
C1014 C1016 1.388 . S
C1015 C1014 1.366 . S
C1015 C1019 1.385 . S
C1016 H991 0.951 . S
C1016 C1014 1.388 . S
C1016 C1017 1.366 . S
C1017 C1016 1.366 . S
C1017 C1018 1.414 . S
C1017 C1020 1.499 . S
C1018 H992 0.950 . S
C1018 C1017 1.414 . S
C1018 C1019 1.374 . S
C1019 H993 0.950 . S
C1019 C1015 1.385 . S
C1019 C1018 1.374 . S
C1020 C1017 1.499 . S
C1020 C1021 1.373 . S
C1020 C1022 1.389 . S
C1021 H994 0.950 . S
C1021 C1007 1.377 . S
C1021 C1020 1.373 . S
C1022 C1006 1.377 . S
C1022 C1020 1.389 . S
C1022 C1023 1.524 . S
C1023 C1022 1.524 . S
C1023 C1024 1.397 . S
C1023 C1028 1.363 . S
C1024 H995 0.950 . S
C1024 C1023 1.397 . S
C1024 C1025 1.334 . S
C1025 H996 0.950 . S
C1025 C1024 1.334 . S
C1025 C1026 1.287 . S
C1026 C1025 1.287 . S
C1026 C1027 1.524 . S
C1026 H1029 0.999 . S
C1027 H997 0.950 . S
C1027 C1026 1.524 . S
C1027 C1028 1.415 . S
C1028 H998 0.950 . S
C1028 C1023 1.363 . S
C1028 C1027 1.415 . S
H1029 C1026 0.999 . S
H1030 C1011 0.913 1_554 S
H1031 C1049 0.951 . S
H1032 C1051 0.951 . S
H1033 C1053 0.950 . S
H1034 C1054 0.950 . S
H1035 C1056 0.950 . S
H1036 C1059 0.950 . S
H1037 C1060 0.950 . S
H1038 C1062 0.950 . S
H1039 C1063 0.950 . S
H1040 C1064 0.951 . S
H1041 C1066 0.951 . S
H1042 C1068 0.950 . S
H1043 C1069 0.950 . S
H1044 C1071 0.950 . S
H1045 C1074 0.950 . S
H1046 C1075 0.950 . S
H1047 C1077 0.950 . S
H1048 C1078 0.950 . S
C1049 H1031 0.951 . S
C1049 C1050 1.366 . S
C1049 C1051 1.388 . S
C1050 C1049 1.366 . S
C1050 C1054 1.385 . S
C1051 H1032 0.951 . S
C1051 C1049 1.388 . S
C1051 C1052 1.366 . S
C1052 C1051 1.366 . S
C1052 C1053 1.414 . S
C1052 C1055 1.499 . S
C1053 H1033 0.950 . S
C1053 C1052 1.414 . S
C1053 C1054 1.374 . S
C1054 H1034 0.950 . S
C1054 C1050 1.385 . S
C1054 C1053 1.374 . S
C1055 C1052 1.499 . S
C1055 C1056 1.373 . S
C1055 C1057 1.389 . S
C1056 H1035 0.950 . S
C1056 C1055 1.373 . S
C1056 C1072 1.377 . S
C1057 C1055 1.389 . S
C1057 C1058 1.524 . S
C1057 C1071 1.377 . S
C1058 C1057 1.524 . S
C1058 C1059 1.397 . S
C1058 C1063 1.363 . S
C1059 H1036 0.950 . S
C1059 C1058 1.397 . S
C1059 C1060 1.334 . S
C1060 H1037 0.950 . S
C1060 C1059 1.334 . S
C1060 C1061 1.287 . S
C1061 C1060 1.287 . S
C1061 C1062 1.524 . S
C1061 H1080 0.913 . S
C1062 H1038 0.950 . S
C1062 C1061 1.524 . S
C1062 C1063 1.415 . S
C1063 H1039 0.950 . S
C1063 C1058 1.363 . S
C1063 C1062 1.415 . S
C1064 H1040 0.951 . S
C1064 C1065 1.366 . S
C1064 C1066 1.388 . S
C1065 C1064 1.366 . S
C1065 C1069 1.385 . S
C1066 H1041 0.951 . S
C1066 C1064 1.388 . S
C1066 C1067 1.366 . S
C1067 C1066 1.366 . S
C1067 C1068 1.414 . S
C1067 C1070 1.499 . S
C1068 H1042 0.950 . S
C1068 C1067 1.414 . S
C1068 C1069 1.374 . S
C1069 H1043 0.950 . S
C1069 C1065 1.385 . S
C1069 C1068 1.374 . S
C1070 C1067 1.499 . S
C1070 C1071 1.373 . S
C1070 C1072 1.389 . S
C1071 H1044 0.950 . S
C1071 C1057 1.377 . S
C1071 C1070 1.373 . S
C1072 C1056 1.377 . S
C1072 C1070 1.389 . S
C1072 C1073 1.524 . S
C1073 C1072 1.524 . S
C1073 C1074 1.397 . S
C1073 C1078 1.363 . S
C1074 H1045 0.950 . S
C1074 C1073 1.397 . S
C1074 C1075 1.334 . S
C1075 H1046 0.950 . S
C1075 C1074 1.334 . S
C1075 C1076 1.287 . S
C1076 C1075 1.287 . S
C1076 C1077 1.524 . S
C1076 H1079 0.999 . S
C1077 H1047 0.950 . S
C1077 C1076 1.524 . S
C1077 C1078 1.415 . S
C1078 H1048 0.950 . S
C1078 C1073 1.363 . S
C1078 C1077 1.415 . S
H1079 C1076 0.999 . S
H1080 C1061 0.913 . S
H1081 C1099 0.951 . S
H1082 C1101 0.951 . S
H1083 C1103 0.950 . S
H1084 C1104 0.950 . S
H1085 C1106 0.950 . S
H1086 C1109 0.950 . S
H1087 C1110 0.950 . S
H1088 C1112 0.950 . S
H1089 C1113 0.950 . S
H1090 C1114 0.951 . S
H1091 C1116 0.951 . S
H1092 C1118 0.950 . S
H1093 C1119 0.950 . S
H1094 C1121 0.950 . S
H1095 C1124 0.950 . S
H1096 C1125 0.950 . S
H1097 C1127 0.950 . S
H1098 C1128 0.950 . S
C1099 H1081 0.951 . S
C1099 C1100 1.366 1_554 S
C1099 C1101 1.388 1_554 S
C1100 C1099 1.366 1_556 S
C1100 C1104 1.385 . S
C1101 H1082 0.951 . S
C1101 C1099 1.388 1_556 S
C1101 C1102 1.366 . S
C1102 C1101 1.366 . S
C1102 C1103 1.414 . S
C1102 C1105 1.499 . S
C1103 H1083 0.950 . S
C1103 C1102 1.414 . S
C1103 C1104 1.374 . S
C1104 H1084 0.950 . S
C1104 C1100 1.385 . S
C1104 C1103 1.374 . S
C1105 C1102 1.499 . S
C1105 C1106 1.373 . S
C1105 C1107 1.389 . S
C1106 H1085 0.950 . S
C1106 C1105 1.373 . S
C1106 C1122 1.377 . S
C1107 C1105 1.389 . S
C1107 C1108 1.524 . S
C1107 C1121 1.377 . S
C1108 C1107 1.524 . S
C1108 C1109 1.397 . S
C1108 C1113 1.363 . S
C1109 H1086 0.950 . S
C1109 C1108 1.397 . S
C1109 C1110 1.334 . S
C1110 H1087 0.950 . S
C1110 C1109 1.334 . S
C1110 C1111 1.287 1_556 S
C1111 C1110 1.287 1_554 S
C1111 C1112 1.524 . S
C1111 H1130 0.913 . S
C1112 H1088 0.950 . S
C1112 C1111 1.524 . S
C1112 C1113 1.415 1_554 S
C1113 H1089 0.950 . S
C1113 C1108 1.363 . S
C1113 C1112 1.415 1_556 S
C1114 H1090 0.951 . S
C1114 C1115 1.366 . S
C1114 C1116 1.388 . S
C1115 C1114 1.366 . S
C1115 C1119 1.385 . S
C1116 H1091 0.951 . S
C1116 C1114 1.388 . S
C1116 C1117 1.366 . S
C1117 C1116 1.366 . S
C1117 C1118 1.414 . S
C1117 C1120 1.499 . S
C1118 H1092 0.950 . S
C1118 C1117 1.414 . S
C1118 C1119 1.374 . S
C1119 H1093 0.950 . S
C1119 C1115 1.385 . S
C1119 C1118 1.374 . S
C1120 C1117 1.499 . S
C1120 C1121 1.373 . S
C1120 C1122 1.389 . S
C1121 H1094 0.950 . S
C1121 C1107 1.377 . S
C1121 C1120 1.373 . S
C1122 C1106 1.377 . S
C1122 C1120 1.389 . S
C1122 C1123 1.524 . S
C1123 C1122 1.524 . S
C1123 C1124 1.397 . S
C1123 C1128 1.363 . S
C1124 H1095 0.950 . S
C1124 C1123 1.397 . S
C1124 C1125 1.334 . S
C1125 H1096 0.950 . S
C1125 C1124 1.334 . S
C1125 C1126 1.287 . S
C1126 C1125 1.287 . S
C1126 C1127 1.524 . S
C1126 H1129 0.999 . S
C1127 H1097 0.950 . S
C1127 C1126 1.524 . S
C1127 C1128 1.415 . S
C1128 H1098 0.950 . S
C1128 C1123 1.363 . S
C1128 C1127 1.415 . S
H1129 C1126 0.999 . S
H1130 C1111 0.913 . S
H1131 C1149 0.951 . S
H1132 C1151 0.951 1_554 S
H1133 C1153 0.950 . S
H1134 C1154 0.950 . S
H1135 C1156 0.950 . S
H1136 C1159 0.950 . S
H1137 C1160 0.950 . S
H1138 C1162 0.950 . S
H1139 C1163 0.945 1_556 S
H1140 C1164 0.951 . S
H1141 C1166 0.951 . S
H1142 C1168 0.950 . S
H1143 C1169 0.950 . S
H1144 C1171 0.950 . S
H1145 C1174 0.950 . S
H1146 C1175 0.950 . S
H1147 C1177 0.950 . S
H1148 C1178 0.950 . S
C1149 H1131 0.951 . S
C1149 C1150 1.366 . S
C1149 C1151 1.388 1_554 S
C1150 C1149 1.366 . S
C1150 C1154 1.385 1_554 S
C1151 H1132 0.951 1_556 S
C1151 C1149 1.388 1_556 S
C1151 C1152 1.366 . S
C1152 C1151 1.366 . S
C1152 C1153 1.414 . S
C1152 C1155 1.499 . S
C1153 H1133 0.950 . S
C1153 C1152 1.414 . S
C1153 C1154 1.374 . S
C1154 H1134 0.950 . S
C1154 C1150 1.385 1_556 S
C1154 C1153 1.374 . S
C1155 C1152 1.499 . S
C1155 C1156 1.373 . S
C1155 C1157 1.389 . S
C1156 H1135 0.950 . S
C1156 C1155 1.373 . S
C1156 C1172 1.377 . S
C1157 C1155 1.389 . S
C1157 C1158 1.524 . S
C1157 C1171 1.377 . S
C1158 C1157 1.524 . S
C1158 C1159 1.397 . S
C1158 C1163 1.350 1_556 S
C1159 H1136 0.950 . S
C1159 C1158 1.397 . S
C1159 C1160 1.334 1_556 S
C1160 H1137 0.950 . S
C1160 C1159 1.334 1_554 S
C1160 C1161 1.287 . S
C1161 C1160 1.287 . S
C1161 C1162 1.524 . S
C1161 H1180 0.913 . S
C1162 H1138 0.950 . S
C1162 C1161 1.524 . S
C1162 C1163 1.434 . S
C1163 H1139 0.945 1_554 S
C1163 C1158 1.350 1_554 S
C1163 C1162 1.434 . S
C1164 H1140 0.951 . S
C1164 C1165 1.366 . S
C1164 C1166 1.388 . S
C1165 C1164 1.366 . S
C1165 C1169 1.385 . S
C1166 H1141 0.951 . S
C1166 C1164 1.388 . S
C1166 C1167 1.366 . S
C1167 C1166 1.366 . S
C1167 C1168 1.414 . S
C1167 C1170 1.499 . S
C1168 H1142 0.950 . S
C1168 C1167 1.414 . S
C1168 C1169 1.374 . S
C1169 H1143 0.950 . S
C1169 C1165 1.385 . S
C1169 C1168 1.374 . S
C1170 C1167 1.499 . S
C1170 C1171 1.373 . S
C1170 C1172 1.389 . S
C1171 H1144 0.950 . S
C1171 C1157 1.377 . S
C1171 C1170 1.373 . S
C1172 C1156 1.377 . S
C1172 C1170 1.389 . S
C1172 C1173 1.524 . S
C1173 C1172 1.524 . S
C1173 C1174 1.397 . S
C1173 C1178 1.363 . S
C1174 H1145 0.950 . S
C1174 C1173 1.397 . S
C1174 C1175 1.334 . S
C1175 H1146 0.950 . S
C1175 C1174 1.334 . S
C1175 C1176 1.287 . S
C1176 C1175 1.287 . S
C1176 C1177 1.524 . S
C1176 H1179 0.999 . S
C1177 H1147 0.950 . S
C1177 C1176 1.524 . S
C1177 C1178 1.415 . S
C1178 H1148 0.950 . S
C1178 C1173 1.363 . S
C1178 C1177 1.415 . S
H1179 C1176 0.999 . S
H1180 C1161 0.913 . S
H1181 C1199 0.951 . S
H1182 C1201 0.951 . S
H1183 C1203 0.950 . S
H1184 C1204 0.950 . S
H1185 C1206 0.950 . S
H1186 C1209 0.950 . S
H1187 C1210 0.950 . S
H1188 C1212 0.950 . S
H1189 C1213 0.950 . S
H1190 C1214 0.951 . S
H1191 C1216 0.951 . S
H1192 C1218 0.950 . S
H1193 C1219 0.950 . S
H1194 C1221 0.950 . S
H1195 C1224 0.950 . S
H1196 C1225 0.950 . S
H1197 C1227 0.950 . S
H1198 C1228 0.950 . S
C1199 H1181 0.951 . S
C1199 C1200 1.366 . S
C1199 C1201 1.388 . S
C1200 C1199 1.366 . S
C1200 C1204 1.385 . S
C1201 H1182 0.951 . S
C1201 C1199 1.388 . S
C1201 C1202 1.366 . S
C1202 C1201 1.366 . S
C1202 C1203 1.414 . S
C1202 C1205 1.499 . S
C1203 H1183 0.950 . S
C1203 C1202 1.414 . S
C1203 C1204 1.374 . S
C1204 H1184 0.950 . S
C1204 C1200 1.385 . S
C1204 C1203 1.374 . S
C1205 C1202 1.499 . S
C1205 C1206 1.373 . S
C1205 C1207 1.389 . S
C1206 H1185 0.950 . S
C1206 C1205 1.373 . S
C1206 C1222 1.377 . S
C1207 C1205 1.389 . S
C1207 C1208 1.524 . S
C1207 C1221 1.377 . S
C1208 C1207 1.524 . S
C1208 C1209 1.397 . S
C1208 C1213 1.363 . S
C1209 H1186 0.950 . S
C1209 C1208 1.397 . S
C1209 C1210 1.334 . S
C1210 H1187 0.950 . S
C1210 C1209 1.334 . S
C1210 C1211 1.287 . S
C1211 C1210 1.287 . S
C1211 C1212 1.524 . S
C1211 H1230 0.913 . S
C1212 H1188 0.950 . S
C1212 C1211 1.524 . S
C1212 C1213 1.415 . S
C1213 H1189 0.950 . S
C1213 C1208 1.363 . S
C1213 C1212 1.415 . S
C1214 H1190 0.951 . S
C1214 C1215 1.366 . S
C1214 C1216 1.388 . S
C1215 C1214 1.366 . S
C1215 C1219 1.385 . S
C1216 H1191 0.951 . S
C1216 C1214 1.388 . S
C1216 C1217 1.366 . S
C1217 C1216 1.366 . S
C1217 C1218 1.414 . S
C1217 C1220 1.499 . S
C1218 H1192 0.950 . S
C1218 C1217 1.414 . S
C1218 C1219 1.374 . S
C1219 H1193 0.950 . S
C1219 C1215 1.385 . S
C1219 C1218 1.374 . S
C1220 C1217 1.499 . S
C1220 C1221 1.373 . S
C1220 C1222 1.389 . S
C1221 H1194 0.950 . S
C1221 C1207 1.377 . S
C1221 C1220 1.373 . S
C1222 C1206 1.377 . S
C1222 C1220 1.389 . S
C1222 C1223 1.524 . S
C1223 C1222 1.524 . S
C1223 C1224 1.397 . S
C1223 C1228 1.363 . S
C1224 H1195 0.950 . S
C1224 C1223 1.397 . S
C1224 C1225 1.334 . S
C1225 H1196 0.950 . S
C1225 C1224 1.334 . S
C1225 C1226 1.287 . S
C1226 C1225 1.287 . S
C1226 C1227 1.524 . S
C1226 H1229 0.999 . S
C1227 H1197 0.950 . S
C1227 C1226 1.524 . S
C1227 C1228 1.415 . S
C1228 H1198 0.950 . S
C1228 C1223 1.363 . S
C1228 C1227 1.415 . S
H1229 C1226 0.999 . S
H1230 C1211 0.913 . S
H1231 C1249 0.951 . S
H1232 C1251 0.951 . S
H1233 C1253 0.950 . S
H1234 C1254 0.950 . S
H1235 C1256 0.950 . S
H1236 C1259 0.950 . S
H1237 C1260 0.950 . S
H1238 C1262 0.950 . S
H1239 C1263 0.950 . S
H1240 C1264 0.951 . S
H1241 C1266 0.951 . S
H1242 C1268 0.950 . S
H1243 C1269 0.950 . S
H1244 C1271 0.950 . S
H1245 C1274 0.950 . S
H1246 C1275 0.950 . S
H1247 C1277 0.950 . S
H1248 C1278 0.950 . S
C1249 H1231 0.951 . S
C1249 C1250 1.366 . S
C1249 C1251 1.388 . S
C1250 C1249 1.366 . S
C1250 C1254 1.385 . S
C1251 H1232 0.951 . S
C1251 C1249 1.388 . S
C1251 C1252 1.366 . S
C1252 C1251 1.366 . S
C1252 C1253 1.414 . S
C1252 C1255 1.499 . S
C1253 H1233 0.950 . S
C1253 C1252 1.414 . S
C1253 C1254 1.374 . S
C1254 H1234 0.950 . S
C1254 C1250 1.385 . S
C1254 C1253 1.374 . S
C1255 C1252 1.499 . S
C1255 C1256 1.373 . S
C1255 C1257 1.389 . S
C1256 H1235 0.950 . S
C1256 C1255 1.373 . S
C1256 C1272 1.377 . S
C1257 C1255 1.389 . S
C1257 C1258 1.524 . S
C1257 C1271 1.377 . S
C1258 C1257 1.524 . S
C1258 C1259 1.397 . S
C1258 C1263 1.363 . S
C1259 H1236 0.950 . S
C1259 C1258 1.397 . S
C1259 C1260 1.334 . S
C1260 H1237 0.950 . S
C1260 C1259 1.334 . S
C1260 C1261 1.287 . S
C1261 C1260 1.287 . S
C1261 C1262 1.524 . S
C1261 H1280 0.913 . S
C1262 H1238 0.950 . S
C1262 C1261 1.524 . S
C1262 C1263 1.415 . S
C1263 H1239 0.950 . S
C1263 C1258 1.363 . S
C1263 C1262 1.415 . S
C1264 H1240 0.951 . S
C1264 C1265 1.366 . S
C1264 C1266 1.388 . S
C1265 C1264 1.366 . S
C1265 C1269 1.385 . S
C1266 H1241 0.951 . S
C1266 C1264 1.388 . S
C1266 C1267 1.366 . S
C1267 C1266 1.366 . S
C1267 C1268 1.414 . S
C1267 C1270 1.499 . S
C1268 H1242 0.950 . S
C1268 C1267 1.414 . S
C1268 C1269 1.374 . S
C1269 H1243 0.950 . S
C1269 C1265 1.385 . S
C1269 C1268 1.374 . S
C1270 C1267 1.499 . S
C1270 C1271 1.373 . S
C1270 C1272 1.389 . S
C1271 H1244 0.950 . S
C1271 C1257 1.377 . S
C1271 C1270 1.373 . S
C1272 C1256 1.377 . S
C1272 C1270 1.389 . S
C1272 C1273 1.524 . S
C1273 C1272 1.524 . S
C1273 C1274 1.397 . S
C1273 C1278 1.363 . S
C1274 H1245 0.950 . S
C1274 C1273 1.397 . S
C1274 C1275 1.334 . S
C1275 H1246 0.950 . S
C1275 C1274 1.334 . S
C1275 C1276 1.287 . S
C1276 C1275 1.287 . S
C1276 C1277 1.524 . S
C1276 H1279 0.999 . S
C1277 H1247 0.950 . S
C1277 C1276 1.524 . S
C1277 C1278 1.415 . S
C1278 H1248 0.950 . S
C1278 C1273 1.363 . S
C1278 C1277 1.415 . S
H1279 C1276 0.999 . S
H1280 C1261 0.913 . S
H1281 C1299 0.951 . S
H1282 C1301 0.951 . S
H1283 C1303 0.950 . S
H1284 C1304 0.950 . S
H1285 C1306 0.950 . S
H1286 C1309 0.950 . S
H1287 C1310 0.950 . S
H1288 C1312 0.950 . S
H1289 C1313 0.950 . S
H1290 C1314 0.951 . S
H1291 C1316 0.951 . S
H1292 C1318 0.950 . S
H1293 C1319 0.950 . S
H1294 C1321 0.950 . S
H1295 C1324 0.950 . S
H1296 C1325 0.950 . S
H1297 C1327 0.950 . S
H1298 C1328 0.950 . S
C1299 H1281 0.951 . S
C1299 C1300 1.366 . S
C1299 C1301 1.388 . S
C1300 C1299 1.366 . S
C1300 C1304 1.385 . S
C1301 H1282 0.951 . S
C1301 C1299 1.388 . S
C1301 C1302 1.366 . S
C1302 C1301 1.366 . S
C1302 C1303 1.414 . S
C1302 C1305 1.499 . S
C1303 H1283 0.950 . S
C1303 C1302 1.414 . S
C1303 C1304 1.374 . S
C1304 H1284 0.950 . S
C1304 C1300 1.385 . S
C1304 C1303 1.374 . S
C1305 C1302 1.499 . S
C1305 C1306 1.373 . S
C1305 C1307 1.389 . S
C1306 H1285 0.950 . S
C1306 C1305 1.373 . S
C1306 C1322 1.377 . S
C1307 C1305 1.389 . S
C1307 C1308 1.524 . S
C1307 C1321 1.377 . S
C1308 C1307 1.524 . S
C1308 C1309 1.397 . S
C1308 C1313 1.363 . S
C1309 H1286 0.950 . S
C1309 C1308 1.397 . S
C1309 C1310 1.334 . S
C1310 H1287 0.950 . S
C1310 C1309 1.334 . S
C1310 C1311 1.287 . S
C1311 C1310 1.287 . S
C1311 C1312 1.524 . S
C1311 H1330 0.913 . S
C1312 H1288 0.950 . S
C1312 C1311 1.524 . S
C1312 C1313 1.415 . S
C1313 H1289 0.950 . S
C1313 C1308 1.363 . S
C1313 C1312 1.415 . S
C1314 H1290 0.951 . S
C1314 C1315 1.366 . S
C1314 C1316 1.388 . S
C1315 C1314 1.366 . S
C1315 C1319 1.385 . S
C1316 H1291 0.951 . S
C1316 C1314 1.388 . S
C1316 C1317 1.366 . S
C1317 C1316 1.366 . S
C1317 C1318 1.414 . S
C1317 C1320 1.499 . S
C1318 H1292 0.950 . S
C1318 C1317 1.414 . S
C1318 C1319 1.374 . S
C1319 H1293 0.950 . S
C1319 C1315 1.385 . S
C1319 C1318 1.374 . S
C1320 C1317 1.499 . S
C1320 C1321 1.373 . S
C1320 C1322 1.389 . S
C1321 H1294 0.950 . S
C1321 C1307 1.377 . S
C1321 C1320 1.373 . S
C1322 C1306 1.377 . S
C1322 C1320 1.389 . S
C1322 C1323 1.524 . S
C1323 C1322 1.524 . S
C1323 C1324 1.397 . S
C1323 C1328 1.363 . S
C1324 H1295 0.950 . S
C1324 C1323 1.397 . S
C1324 C1325 1.334 . S
C1325 H1296 0.950 . S
C1325 C1324 1.334 . S
C1325 C1326 1.287 . S
C1326 C1325 1.287 . S
C1326 C1327 1.524 . S
C1326 H1329 0.999 . S
C1327 H1297 0.950 . S
C1327 C1326 1.524 . S
C1327 C1328 1.415 . S
C1328 H1298 0.950 . S
C1328 C1323 1.363 . S
C1328 C1327 1.415 . S
H1329 C1326 0.999 . S
H1330 C1311 0.913 . S
H1331 C1349 0.951 . S
H1332 C1351 0.951 . S
H1333 C1353 0.950 . S
H1334 C1354 0.950 . S
H1335 C1356 0.950 . S
H1336 C1359 0.950 . S
H1337 C1360 0.950 . S
H1338 C1362 0.950 . S
H1339 C1363 0.950 . S
H1340 C1364 0.951 . S
H1341 C1366 0.951 . S
H1342 C1368 0.950 . S
H1343 C1369 0.950 . S
H1344 C1371 0.950 . S
H1345 C1374 0.950 . S
H1346 C1375 0.950 . S
H1347 C1377 0.950 . S
H1348 C1378 0.950 . S
C1349 H1331 0.951 . S
C1349 C1350 1.366 . S
C1349 C1351 1.388 . S
C1350 C1349 1.366 . S
C1350 C1354 1.385 . S
C1351 H1332 0.951 . S
C1351 C1349 1.388 . S
C1351 C1352 1.366 . S
C1352 C1351 1.366 . S
C1352 C1353 1.414 . S
C1352 C1355 1.499 . S
C1353 H1333 0.950 . S
C1353 C1352 1.414 . S
C1353 C1354 1.374 . S
C1354 H1334 0.950 . S
C1354 C1350 1.385 . S
C1354 C1353 1.374 . S
C1355 C1352 1.499 . S
C1355 C1356 1.373 . S
C1355 C1357 1.389 . S
C1356 H1335 0.950 . S
C1356 C1355 1.373 . S
C1356 C1372 1.377 . S
C1357 C1355 1.389 . S
C1357 C1358 1.524 . S
C1357 C1371 1.377 . S
C1358 C1357 1.524 . S
C1358 C1359 1.397 . S
C1358 C1363 1.363 . S
C1359 H1336 0.950 . S
C1359 C1358 1.397 . S
C1359 C1360 1.334 . S
C1360 H1337 0.950 . S
C1360 C1359 1.334 . S
C1360 C1361 1.287 . S
C1361 C1360 1.287 . S
C1361 C1362 1.524 . S
C1361 H1380 0.913 . S
C1362 H1338 0.950 . S
C1362 C1361 1.524 . S
C1362 C1363 1.415 . S
C1363 H1339 0.950 . S
C1363 C1358 1.363 . S
C1363 C1362 1.415 . S
C1364 H1340 0.951 . S
C1364 C1365 1.366 . S
C1364 C1366 1.388 . S
C1365 C1364 1.366 . S
C1365 C1369 1.385 . S
C1366 H1341 0.951 . S
C1366 C1364 1.388 . S
C1366 C1367 1.366 . S
C1367 C1366 1.366 . S
C1367 C1368 1.414 . S
C1367 C1370 1.499 . S
C1368 H1342 0.950 . S
C1368 C1367 1.414 . S
C1368 C1369 1.374 . S
C1369 H1343 0.950 . S
C1369 C1365 1.385 . S
C1369 C1368 1.374 . S
C1370 C1367 1.499 . S
C1370 C1371 1.373 . S
C1370 C1372 1.389 . S
C1371 H1344 0.950 . S
C1371 C1357 1.377 . S
C1371 C1370 1.373 . S
C1372 C1356 1.377 . S
C1372 C1370 1.389 . S
C1372 C1373 1.524 . S
C1373 C1372 1.524 . S
C1373 C1374 1.397 . S
C1373 C1378 1.363 . S
C1374 H1345 0.950 . S
C1374 C1373 1.397 . S
C1374 C1375 1.334 . S
C1375 H1346 0.950 . S
C1375 C1374 1.334 . S
C1375 C1376 1.287 . S
C1376 C1375 1.287 . S
C1376 C1377 1.524 . S
C1376 H1379 0.999 . S
C1377 H1347 0.950 . S
C1377 C1376 1.524 . S
C1377 C1378 1.415 . S
C1378 H1348 0.950 . S
C1378 C1373 1.363 . S
C1378 C1377 1.415 . S
H1379 C1376 0.999 . S
H1380 C1361 0.913 . S
H1381 C1399 0.951 . S
H1382 C1401 0.951 . S
H1383 C1403 0.950 . S
H1384 C1404 0.950 . S
H1385 C1406 0.950 . S
H1386 C1409 0.950 . S
H1387 C1410 0.950 . S
H1388 C1412 0.950 . S
H1389 C1413 0.950 . S
H1390 C1414 0.951 . S
H1391 C1416 0.951 . S
H1392 C1418 0.950 . S
H1393 C1419 0.950 . S
H1394 C1421 0.950 . S
H1395 C1424 0.950 . S
H1396 C1425 0.950 . S
H1397 C1427 0.950 . S
H1398 C1428 0.950 . S
C1399 H1381 0.951 . S
C1399 C1400 1.366 . S
C1399 C1401 1.388 . S
C1400 C1399 1.366 . S
C1400 C1404 1.385 . S
C1401 H1382 0.951 . S
C1401 C1399 1.388 . S
C1401 C1402 1.366 . S
C1402 C1401 1.366 . S
C1402 C1403 1.414 . S
C1402 C1405 1.499 . S
C1403 H1383 0.950 . S
C1403 C1402 1.414 . S
C1403 C1404 1.374 . S
C1404 H1384 0.950 . S
C1404 C1400 1.385 . S
C1404 C1403 1.374 . S
C1405 C1402 1.499 . S
C1405 C1406 1.373 . S
C1405 C1407 1.389 . S
C1406 H1385 0.950 . S
C1406 C1405 1.373 . S
C1406 C1422 1.377 . S
C1407 C1405 1.389 . S
C1407 C1408 1.524 . S
C1407 C1421 1.377 . S
C1408 C1407 1.524 . S
C1408 C1409 1.397 . S
C1408 C1413 1.363 . S
C1409 H1386 0.950 . S
C1409 C1408 1.397 . S
C1409 C1410 1.334 . S
C1410 H1387 0.950 . S
C1410 C1409 1.334 . S
C1410 C1411 1.287 . S
C1411 C1410 1.287 . S
C1411 C1412 1.524 . S
C1411 H1430 0.913 . S
C1412 H1388 0.950 . S
C1412 C1411 1.524 . S
C1412 C1413 1.415 . S
C1413 H1389 0.950 . S
C1413 C1408 1.363 . S
C1413 C1412 1.415 . S
C1414 H1390 0.951 . S
C1414 C1415 1.366 . S
C1414 C1416 1.388 . S
C1415 C1414 1.366 . S
C1415 C1419 1.385 . S
C1416 H1391 0.951 . S
C1416 C1414 1.388 . S
C1416 C1417 1.366 . S
C1417 C1416 1.366 . S
C1417 C1418 1.414 . S
C1417 C1420 1.499 . S
C1418 H1392 0.950 . S
C1418 C1417 1.414 . S
C1418 C1419 1.374 . S
C1419 H1393 0.950 . S
C1419 C1415 1.385 . S
C1419 C1418 1.374 . S
C1420 C1417 1.499 . S
C1420 C1421 1.373 . S
C1420 C1422 1.389 . S
C1421 H1394 0.950 . S
C1421 C1407 1.377 . S
C1421 C1420 1.373 . S
C1422 C1406 1.377 . S
C1422 C1420 1.389 . S
C1422 C1423 1.524 . S
C1423 C1422 1.524 . S
C1423 C1424 1.397 . S
C1423 C1428 1.363 . S
C1424 H1395 0.950 . S
C1424 C1423 1.397 . S
C1424 C1425 1.334 . S
C1425 H1396 0.950 . S
C1425 C1424 1.334 . S
C1425 C1426 1.287 . S
C1426 C1425 1.287 . S
C1426 C1427 1.524 . S
C1426 H1429 0.999 . S
C1427 H1397 0.950 . S
C1427 C1426 1.524 . S
C1427 C1428 1.415 . S
C1428 H1398 0.950 . S
C1428 C1423 1.363 . S
C1428 C1427 1.415 . S
H1429 C1426 0.999 . S
H1430 C1411 0.913 . S
H1431 C1449 0.951 . S
H1432 C1451 0.951 . S
H1433 C1453 0.950 . S
H1434 C1454 0.950 . S
H1435 C1456 0.950 . S
H1436 C1459 0.950 . S
H1437 C1460 0.950 . S
H1438 C1462 0.950 . S
H1439 C1463 0.950 . S
H1440 C1464 0.951 . S
H1441 C1466 0.951 . S
H1442 C1468 0.950 . S
H1443 C1469 0.950 . S
H1444 C1471 0.950 . S
H1445 C1474 0.950 . S
H1446 C1475 0.950 . S
H1447 C1477 0.950 . S
H1448 C1478 0.950 . S
C1449 H1431 0.951 . S
C1449 C1450 1.366 . S
C1449 C1451 1.388 . S
C1450 C1449 1.366 . S
C1450 C1454 1.385 . S
C1451 H1432 0.951 . S
C1451 C1449 1.388 . S
C1451 C1452 1.366 . S
C1452 C1451 1.366 . S
C1452 C1453 1.414 . S
C1452 C1455 1.499 . S
C1453 H1433 0.950 . S
C1453 C1452 1.414 . S
C1453 C1454 1.374 . S
C1454 H1434 0.950 . S
C1454 C1450 1.385 . S
C1454 C1453 1.374 . S
C1455 C1452 1.499 . S
C1455 C1456 1.373 . S
C1455 C1457 1.389 . S
C1456 H1435 0.950 . S
C1456 C1455 1.373 . S
C1456 C1472 1.377 . S
C1457 C1455 1.389 . S
C1457 C1458 1.524 . S
C1457 C1471 1.377 . S
C1458 C1457 1.524 . S
C1458 C1459 1.397 . S
C1458 C1463 1.363 . S
C1459 H1436 0.950 . S
C1459 C1458 1.397 . S
C1459 C1460 1.334 . S
C1460 H1437 0.950 . S
C1460 C1459 1.334 . S
C1460 C1461 1.287 . S
C1461 C1460 1.287 . S
C1461 C1462 1.524 . S
C1461 H1480 0.913 . S
C1462 H1438 0.950 . S
C1462 C1461 1.524 . S
C1462 C1463 1.415 . S
C1463 H1439 0.950 . S
C1463 C1458 1.363 . S
C1463 C1462 1.415 . S
C1464 H1440 0.951 . S
C1464 C1465 1.366 . S
C1464 C1466 1.388 . S
C1465 C1464 1.366 . S
C1465 C1469 1.385 . S
C1466 H1441 0.951 . S
C1466 C1464 1.388 . S
C1466 C1467 1.366 . S
C1467 C1466 1.366 . S
C1467 C1468 1.414 . S
C1467 C1470 1.499 . S
C1468 H1442 0.950 . S
C1468 C1467 1.414 . S
C1468 C1469 1.374 . S
C1469 H1443 0.950 . S
C1469 C1465 1.385 . S
C1469 C1468 1.374 . S
C1470 C1467 1.499 . S
C1470 C1471 1.373 . S
C1470 C1472 1.389 . S
C1471 H1444 0.950 . S
C1471 C1457 1.377 . S
C1471 C1470 1.373 . S
C1472 C1456 1.377 . S
C1472 C1470 1.389 . S
C1472 C1473 1.524 . S
C1473 C1472 1.524 . S
C1473 C1474 1.397 . S
C1473 C1478 1.363 . S
C1474 H1445 0.950 . S
C1474 C1473 1.397 . S
C1474 C1475 1.334 . S
C1475 H1446 0.950 . S
C1475 C1474 1.334 . S
C1475 C1476 1.287 . S
C1476 C1475 1.287 . S
C1476 C1477 1.524 . S
C1476 H1479 0.999 1_565 S
C1477 H1447 0.950 . S
C1477 C1476 1.524 . S
C1477 C1478 1.415 . S
C1478 H1448 0.950 . S
C1478 C1473 1.363 . S
C1478 C1477 1.415 . S
H1479 C1476 0.999 1_545 S
H1480 C1461 0.913 . S
H1481 C1499 0.951 . S
H1482 C1501 0.951 . S
H1483 C1503 0.950 . S
H1484 C1504 0.950 . S
H1485 C1506 0.950 . S
H1486 C1509 0.950 . S
H1487 C1510 0.950 . S
H1488 C1512 0.950 . S
H1489 C1513 0.950 . S
H1490 C1514 0.951 . S
H1491 C1516 0.951 . S
H1492 C1518 0.950 . S
H1493 C1519 0.950 . S
H1494 C1521 0.950 . S
H1495 C1524 0.950 . S
H1496 C1525 0.950 . S
H1497 C1527 0.950 . S
H1498 C1528 0.950 . S
C1499 H1481 0.951 . S
C1499 C1500 1.366 . S
C1499 C1501 1.388 . S
C1500 C1499 1.366 . S
C1500 C1504 1.385 . S
C1501 H1482 0.951 . S
C1501 C1499 1.388 . S
C1501 C1502 1.366 . S
C1502 C1501 1.366 . S
C1502 C1503 1.414 . S
C1502 C1505 1.499 . S
C1503 H1483 0.950 . S
C1503 C1502 1.414 . S
C1503 C1504 1.374 . S
C1504 H1484 0.950 . S
C1504 C1500 1.385 . S
C1504 C1503 1.374 . S
C1505 C1502 1.499 . S
C1505 C1506 1.373 . S
C1505 C1507 1.389 . S
C1506 H1485 0.950 . S
C1506 C1505 1.373 . S
C1506 C1522 1.377 . S
C1507 C1505 1.389 . S
C1507 C1508 1.524 . S
C1507 C1521 1.377 . S
C1508 C1507 1.524 . S
C1508 C1509 1.397 . S
C1508 C1513 1.363 . S
C1509 H1486 0.950 . S
C1509 C1508 1.397 . S
C1509 C1510 1.334 . S
C1510 H1487 0.950 . S
C1510 C1509 1.334 . S
C1510 C1511 1.287 . S
C1511 C1510 1.287 . S
C1511 C1512 1.524 . S
C1511 H1530 0.913 . S
C1512 H1488 0.950 . S
C1512 C1511 1.524 . S
C1512 C1513 1.415 . S
C1513 H1489 0.950 . S
C1513 C1508 1.363 . S
C1513 C1512 1.415 . S
C1514 H1490 0.951 . S
C1514 C1515 1.366 . S
C1514 C1516 1.388 . S
C1515 C1514 1.366 . S
C1515 C1519 1.385 . S
C1516 H1491 0.951 . S
C1516 C1514 1.388 . S
C1516 C1517 1.366 . S
C1517 C1516 1.366 . S
C1517 C1518 1.414 . S
C1517 C1520 1.499 . S
C1518 H1492 0.950 . S
C1518 C1517 1.414 . S
C1518 C1519 1.374 . S
C1519 H1493 0.950 . S
C1519 C1515 1.385 . S
C1519 C1518 1.374 . S
C1520 C1517 1.499 . S
C1520 C1521 1.373 . S
C1520 C1522 1.389 . S
C1521 H1494 0.950 . S
C1521 C1507 1.377 . S
C1521 C1520 1.373 . S
C1522 C1506 1.377 . S
C1522 C1520 1.389 . S
C1522 C1523 1.524 . S
C1523 C1522 1.524 . S
C1523 C1524 1.397 . S
C1523 C1528 1.363 . S
C1524 H1495 0.950 . S
C1524 C1523 1.397 . S
C1524 C1525 1.334 . S
C1525 H1496 0.950 . S
C1525 C1524 1.334 . S
C1525 C1526 1.287 . S
C1526 C1525 1.287 . S
C1526 C1527 1.524 . S
C1526 H1529 0.999 . S
C1527 H1497 0.950 . S
C1527 C1526 1.524 . S
C1527 C1528 1.415 . S
C1528 H1498 0.950 . S
C1528 C1523 1.363 . S
C1528 C1527 1.415 . S
H1529 C1526 0.999 . S
H1530 C1511 0.913 . S
H1531 C1549 0.951 . S
H1532 C1551 0.951 . S
H1533 C1553 0.950 . S
H1534 C1554 0.950 . S
H1535 C1556 0.950 . S
H1536 C1559 0.950 . S
H1537 C1560 0.950 . S
H1538 C1562 0.950 . S
H1539 C1563 0.950 . S
H1540 C1564 0.951 . S
H1541 C1566 0.951 . S
H1542 C1568 0.950 . S
H1543 C1569 0.950 . S
H1544 C1571 0.950 . S
H1545 C1574 0.950 . S
H1546 C1575 0.950 . S
H1547 C1577 0.950 . S
H1548 C1578 0.950 . S
C1549 H1531 0.951 . S
C1549 C1550 1.366 . S
C1549 C1551 1.388 . S
C1550 C1549 1.366 . S
C1550 C1554 1.385 . S
C1551 H1532 0.951 . S
C1551 C1549 1.388 . S
C1551 C1552 1.366 . S
C1552 C1551 1.366 . S
C1552 C1553 1.414 . S
C1552 C1555 1.499 . S
C1553 H1533 0.950 . S
C1553 C1552 1.414 . S
C1553 C1554 1.374 . S
C1554 H1534 0.950 . S
C1554 C1550 1.385 . S
C1554 C1553 1.374 . S
C1555 C1552 1.499 . S
C1555 C1556 1.373 . S
C1555 C1557 1.389 . S
C1556 H1535 0.950 . S
C1556 C1555 1.373 . S
C1556 C1572 1.377 . S
C1557 C1555 1.389 . S
C1557 C1558 1.524 . S
C1557 C1571 1.377 . S
C1558 C1557 1.524 . S
C1558 C1559 1.397 . S
C1558 C1563 1.363 . S
C1559 H1536 0.950 . S
C1559 C1558 1.397 . S
C1559 C1560 1.334 . S
C1560 H1537 0.950 . S
C1560 C1559 1.334 . S
C1560 C1561 1.287 . S
C1561 C1560 1.287 . S
C1561 C1562 1.524 . S
C1561 H1580 0.913 . S
C1562 H1538 0.950 . S
C1562 C1561 1.524 . S
C1562 C1563 1.415 . S
C1563 H1539 0.950 . S
C1563 C1558 1.363 . S
C1563 C1562 1.415 . S
C1564 H1540 0.951 . S
C1564 C1565 1.366 . S
C1564 C1566 1.388 . S
C1565 C1564 1.366 . S
C1565 C1569 1.385 . S
C1566 H1541 0.951 . S
C1566 C1564 1.388 . S
C1566 C1567 1.366 . S
C1567 C1566 1.366 . S
C1567 C1568 1.414 . S
C1567 C1570 1.499 . S
C1568 H1542 0.950 . S
C1568 C1567 1.414 . S
C1568 C1569 1.374 . S
C1569 H1543 0.950 . S
C1569 C1565 1.385 . S
C1569 C1568 1.374 . S
C1570 C1567 1.499 . S
C1570 C1571 1.373 . S
C1570 C1572 1.389 . S
C1571 H1544 0.950 . S
C1571 C1557 1.377 . S
C1571 C1570 1.373 . S
C1572 C1556 1.377 . S
C1572 C1570 1.389 . S
C1572 C1573 1.524 . S
C1573 C1572 1.524 . S
C1573 C1574 1.397 . S
C1573 C1578 1.363 . S
C1574 H1545 0.950 . S
C1574 C1573 1.397 . S
C1574 C1575 1.334 . S
C1575 H1546 0.950 . S
C1575 C1574 1.334 . S
C1575 C1576 1.287 . S
C1576 C1575 1.287 . S
C1576 C1577 1.524 . S
C1576 H1579 0.999 . S
C1577 H1547 0.950 . S
C1577 C1576 1.524 . S
C1577 C1578 1.415 . S
C1578 H1548 0.950 . S
C1578 C1573 1.363 . S
C1578 C1577 1.415 . S
H1579 C1576 0.999 . S
H1580 C1561 0.913 . S
C400 C45 1.770 . S
C415 C288 1.671 . S
C450 C84 1.649 . S
C465 C320 1.617 . S
C515 C379 2.016 . S
C500 C126 2.034 . S
C565 C308 1.503 . S
C550 C165 1.528 . S
C600 C222 1.610 . S
C615 C338 1.554 . S
C665 C360 1.159 . S
C650 C276 1.174 . S
C715 C329 1.655 . S
C700 C141 1.696 . S
C750 C180 1.252 . S
C765 C369 1.196 . S
C815 C318 1.539 . S
C800 C237 1.585 . S
C850 C261 1.599 . S
C865 C348 1.571 . S
C900 C30 1.957 . S
C915 C351 1.941 . S
C965 C290 1.687 . S
C950 C69 1.707 . S
C1015 C298 1.598 . S
C1000 C174 1.660 . S
C1065 C339 1.611 . S
C1050 C213 1.641 . S
C1115 C352 2.035 . S
C1100 C285 2.055 1_556 S
C1165 C289 1.541 . S
C1150 C36 1.566 . S
C1215 C349 1.505 . S
C1200 C93 1.525 . S
C1250 C117 1.197 . S
C1265 C350 1.160 . S
C1315 C319 1.597 . S
C1300 C270 1.673 . S
C1365 C380 1.163 . S
C1350 C21 1.194 . S
C1415 C307 1.513 . S
C1400 C78 1.589 . S
C1465 C321 1.626 . S
C1450 C132 1.654 . S
C1500 C189 1.963 . S
C1515 C370 1.947 . S
C1550 C228 1.727 . S
C1565 C317 1.706 . S
