# Generated by pormake.
# Topology nom, (4,4)-cn, num edge types: 1
# Building blocks:
#     Node 0, Type 0, BuildingBlock: MUDLON_clean_linker_0, # of connection points: 4
#     Node 1, Type 0, BuildingBlock: MUDLON_clean_linker_0, # of connection points: 4
#     Node 2, Type 0, BuildingBlock: MUDLON_clean_linker_0, # of connection points: 4
#     Node 3, Type 0, BuildingBlock: MUDLON_clean_linker_0, # of connection points: 4
#     Node 4, Type 0, BuildingBlock: MUDLON_clean_linker_0, # of connection points: 4
#     Node 5, Type 0, BuildingBlock: MUDLON_clean_linker_0, # of connection points: 4
#     Node 6, Type 1, BuildingBlock: UXUYUI_clean_sbu_0, # of connection points: 4
#     Node 7, Type 1, BuildingBlock: UXUYUI_clean_sbu_0, # of connection points: 4
#     Node 8, Type 1, BuildingBlock: UXUYUI_clean_sbu_0, # of connection points: 4
#     Node 9, Type 1, BuildingBlock: UXUYUI_clean_sbu_0, # of connection points: 4
#     Node 10, Type 1, BuildingBlock: UXUYUI_clean_sbu_0, # of connection points: 4
#     Node 11, Type 1, BuildingBlock: UXUYUI_clean_sbu_0, # of connection points: 4
#     Edge 12, Type (0, 1), None
#     Edge 13, Type (0, 1), None
#     Edge 14, Type (0, 1), None
#     Edge 15, Type (0, 1), None
#     Edge 16, Type (0, 1), None
#     Edge 17, Type (0, 1), None
#     Edge 18, Type (0, 1), None
#     Edge 19, Type (0, 1), None
#     Edge 20, Type (0, 1), None
#     Edge 21, Type (0, 1), None
#     Edge 22, Type (0, 1), None
#     Edge 23, Type (0, 1), None
#     Edge 24, Type (0, 1), None
#     Edge 25, Type (0, 1), None
#     Edge 26, Type (0, 1), None
#     Edge 27, Type (0, 1), None
#     Edge 28, Type (0, 1), None
#     Edge 29, Type (0, 1), None
#     Edge 30, Type (0, 1), None
#     Edge 31, Type (0, 1), None
#     Edge 32, Type (0, 1), None
#     Edge 33, Type (0, 1), None
#     Edge 34, Type (0, 1), None
#     Edge 35, Type (0, 1), None
# Relax obj value: 0.040
# Max RMSD: 0.153
# Mean RMSD: 0.119
data_MOF--net-nom--node1-UXUYUI_clean_sbu_0--node2-MUDLON_clean_linker_0--edge1-none
_symmetry_space_group_name_H-M    P1
_symmetry_Int_Tables_number       1
_symmetry_cell_setting            triclinic
loop_
_symmetry_equiv_pos_as_xyz
'x, y, z'
_cell_length_a     46.041669
_cell_length_b     46.554621
_cell_length_c     46.245885
_cell_angle_alpha  90.338024
_cell_angle_beta   89.829135
_cell_angle_gamma 120.36401
loop_
_atom_site_label
_atom_site_type_symbol
_atom_site_fract_x
_atom_site_fract_y
_atom_site_fract_z
_atom_type_partial_charge
H0 H 0.18566 0.56383 0.31553 0.0
N1 N 0.13577 0.56576 0.34231 0.0
H2 H 0.23029 0.60743 0.2862 0.0
H3 H 0.13877 0.62335 0.32489 0.0
H4 H 0.18349 0.66734 0.2957 0.0
H5 H 0.14249 0.61763 0.37573 0.0
H6 H 0.16374 0.6306 0.42502 0.0
H7 H 0.15033 0.52924 0.37668 0.0
H8 H 0.17279 0.54262 0.42599 0.0
H9 H 0.10337 0.51081 0.31088 0.0
H10 H 0.08914 0.58409 0.35583 0.0
H11 H 0.04404 0.48095 0.29697 0.0
H12 H 0.02954 0.55378 0.34315 0.0
H13 H 0.85772 0.37845 0.26828 0.0
H14 H 0.83183 0.36442 0.22021 0.0
H15 H 0.87102 0.4689 0.20356 0.0
H16 H 0.89715 0.48261 0.2514 0.0
H17 H 0.86954 0.48355 0.29627 0.0
H18 H 0.82408 0.47944 0.32674 0.0
H19 H 0.81386 0.39094 0.36633 0.0
H20 H 0.85896 0.39497 0.3353 0.0
H21 H 0.93068 0.41505 0.30629 0.0
H22 H 0.99054 0.44698 0.31819 0.0
H23 H 0.98979 0.53841 0.30443 0.0
N24 N 0.89036 0.43802 0.29306 0.0
H25 H 0.92955 0.50605 0.29375 0.0
C26 C 0.15916 0.59042 0.32253 0.0
C27 C 0.18477 0.58614 0.3108 0.0
C28 C 0.2101 0.61099 0.29394 0.0
C29 C 0.21041 0.64086 0.28862 0.0
C30 C 0.18403 0.6447 0.29961 0.0
C31 C 0.15847 0.61959 0.3163 0.0
C32 C 0.14465 0.57225 0.37248 0.0
C33 C 0.1483 0.60069 0.38663 0.0
C34 C 0.16087 0.60831 0.41484 0.0
C35 C 0.17035 0.58786 0.42944 0.0
C36 C 0.16547 0.55876 0.41557 0.0
C37 C 0.15275 0.55111 0.38738 0.0
C38 C 0.10065 0.54933 0.33466 0.0
C39 C 0.08731 0.52028 0.3179 0.0
C40 C 0.05335 0.50318 0.31015 0.0
C41 C 0.03178 0.51469 0.3192 0.0
C42 C 0.04539 0.54429 0.3356 0.0
C43 C 0.07954 0.56155 0.34315 0.0
C44 C 0.87931 0.43143 0.26343 0.0
C45 C 0.86119 0.39829 0.25397 0.0
C46 C 0.84626 0.39035 0.22663 0.0
C47 C 0.84916 0.41553 0.20812 0.0
C48 C 0.86858 0.44894 0.21717 0.0
C49 C 0.88345 0.45683 0.24462 0.0
C50 C 0.86737 0.4393 0.31344 0.0
C51 C 0.85796 0.46364 0.31185 0.0
C52 C 0.83204 0.46134 0.32941 0.0
C53 C 0.81511 0.43465 0.34874 0.0
C54 C 0.82601 0.41149 0.35133 0.0
C55 C 0.85185 0.41382 0.33381 0.0
C56 C 0.92579 0.45807 0.29891 0.0
C57 C 0.94358 0.44199 0.30577 0.0
C58 C 0.97783 0.46033 0.31238 0.0
C59 C 0.99519 0.49536 0.31207 0.0
C60 C 0.97722 0.51151 0.30514 0.0
C61 C 0.94278 0.49302 0.2987 0.0
H62 H 0.47349 0.84957 0.49237 0.0
N63 N 0.47016 0.89919 0.46819 0.0
H64 H 0.43059 0.80441 0.5216 0.0
H65 H 0.41232 0.89525 0.48859 0.0
H66 H 0.36905 0.8501 0.51796 0.0
H67 H 0.41453 0.88703 0.437 0.0
H68 H 0.40111 0.86541 0.38775 0.0
H69 H 0.50951 0.89006 0.43166 0.0
H70 H 0.49601 0.86783 0.38221 0.0
H71 H 0.52417 0.9332 0.5009 0.0
H72 H 0.44974 0.94331 0.45298 0.0
H73 H 0.55275 0.9923 0.51345 0.0
H74 H 0.47896 0.00275 0.46417 0.0
H75 H 0.65546 0.18533 0.53209 0.0
H76 H 0.66961 0.21075 0.58036 0.0
H77 H 0.56484 0.1533 0.60474 0.0
H78 H 0.55096 0.12807 0.55654 0.0
H79 H 0.55445 0.17072 0.5183 0.0
H80 H 0.5566 0.2155 0.48973 0.0
H81 H 0.62493 0.20801 0.42987 0.0
H82 H 0.62443 0.16486 0.46002 0.0
H83 H 0.61859 0.10353 0.50047 0.0
H84 H 0.58686 0.04382 0.49057 0.0
H85 H 0.49378 0.0445 0.50077 0.0
N86 N 0.59479 0.14366 0.51105 0.0
H87 H 0.52614 0.10478 0.50939 0.0
C88 C 0.44607 0.87556 0.48824 0.0
C89 C 0.45101 0.85009 0.49838 0.0
C90 C 0.42652 0.82444 0.51519 0.0
C91 C 0.39636 0.82366 0.52214 0.0
C92 C 0.39189 0.84988 0.51277 0.0
C93 C 0.41661 0.87573 0.49605 0.0
C94 C 0.46312 0.89011 0.43809 0.0
C95 C 0.43273 0.88345 0.42515 0.0
C96 C 0.42495 0.87082 0.39698 0.0
C97 C 0.44733 0.86454 0.38116 0.0
C98 C 0.47834 0.87259 0.39371 0.0
C99 C 0.48606 0.88519 0.42194 0.0
C100 C 0.48525 0.93391 0.4757 0.0
C101 C 0.51413 0.9483 0.49299 0.0
C102 C 0.53053 0.98213 0.49993 0.0
C103 C 0.51852 0.00254 0.48945 0.0
C104 C 0.48887 0.98783 0.47276 0.0
C105 C 0.47225 0.95378 0.46607 0.0
C106 C 0.60233 0.15478 0.54069 0.0
C107 C 0.6357 0.17784 0.54806 0.0
C108 C 0.64366 0.19242 0.57553 0.0
C109 C 0.6183 0.18409 0.59629 0.0
C110 C 0.58497 0.15993 0.5893 0.0
C111 C 0.57699 0.14551 0.56169 0.0
C112 C 0.59014 0.16515 0.49168 0.0
C113 C 0.5697 0.17856 0.49893 0.0
C114 C 0.57071 0.20405 0.48228 0.0
C115 C 0.59158 0.21611 0.45769 0.0
C116 C 0.60947 0.2003 0.44914 0.0
C117 C 0.60896 0.17534 0.46613 0.0
C118 C 0.57478 0.1084 0.50585 0.0
C119 C 0.59133 0.09067 0.50058 0.0
C120 C 0.57309 0.0565 0.49516 0.0
C121 C 0.53765 0.03912 0.49516 0.0
C122 C 0.52101 0.05706 0.50038 0.0
C123 C 0.53942 0.09145 0.50558 0.0
H124 H 0.4735 0.65507 0.65214 0.0
N125 N 0.47017 0.60211 0.67631 0.0
H126 H 0.4306 0.65734 0.62291 0.0
H127 H 0.41234 0.54822 0.6559 0.0
H128 H 0.36907 0.55012 0.62653 0.0
H129 H 0.41454 0.55864 0.70749 0.0
H130 H 0.4011 0.56681 0.75674 0.0
H131 H 0.50951 0.65057 0.71285 0.0
H132 H 0.496 0.65929 0.76231 0.0
H133 H 0.52419 0.62212 0.64361 0.0
H134 H 0.44975 0.53758 0.6915 0.0
H135 H 0.55278 0.59161 0.63105 0.0
H136 H 0.47898 0.50736 0.6803 0.0
H137 H 0.65552 0.50132 0.61242 0.0
H138 H 0.66969 0.49006 0.56416 0.0
H139 H 0.56492 0.44268 0.53976 0.0
H140 H 0.55101 0.45402 0.58796 0.0
H141 H 0.55445 0.41489 0.62622 0.0
H142 H 0.55658 0.37226 0.65481 0.0
H143 H 0.62499 0.44807 0.71463 0.0
H144 H 0.6245 0.49072 0.68446 0.0
H145 H 0.61862 0.5462 0.64404 0.0
H146 H 0.58689 0.5742 0.65393 0.0
H147 H 0.49382 0.48045 0.6437 0.0
N148 N 0.59483 0.48229 0.63345 0.0
H149 H 0.52618 0.45253 0.63508 0.0
C150 C 0.44608 0.60166 0.65626 0.0
C151 C 0.45102 0.63207 0.64613 0.0
C152 C 0.42653 0.63324 0.62932 0.0
C153 C 0.39638 0.60387 0.62236 0.0
C154 C 0.39191 0.57317 0.63172 0.0
C155 C 0.41663 0.57204 0.64844 0.0
C156 C 0.46312 0.60415 0.70642 0.0
C157 C 0.43273 0.58041 0.71935 0.0
C158 C 0.42495 0.58525 0.74752 0.0
C159 C 0.44732 0.6139 0.76335 0.0
C160 C 0.47833 0.63686 0.7508 0.0
C161 C 0.48606 0.632 0.72257 0.0
C162 C 0.48526 0.58248 0.6688 0.0
C163 C 0.51415 0.59699 0.65151 0.0
C164 C 0.53055 0.57955 0.64457 0.0
C165 C 0.51855 0.54713 0.65504 0.0
C166 C 0.48889 0.53218 0.67173 0.0
C167 C 0.47226 0.54961 0.67841 0.0
C168 C 0.60238 0.47871 0.60382 0.0
C169 C 0.63577 0.48904 0.59645 0.0
C170 C 0.64374 0.48242 0.56898 0.0
C171 C 0.61838 0.46538 0.54822 0.0
C172 C 0.58504 0.45619 0.5552 0.0
C173 C 0.57705 0.46262 0.58281 0.0
C174 C 0.59018 0.45614 0.65282 0.0
C175 C 0.56971 0.42231 0.64558 0.0
C176 C 0.57071 0.39782 0.66224 0.0
C177 C 0.59159 0.40662 0.68683 0.0
C178 C 0.60951 0.44033 0.69536 0.0
C179 C 0.60902 0.46478 0.67836 0.0
C180 C 0.57482 0.49754 0.63864 0.0
C181 C 0.59137 0.53181 0.64392 0.0
C182 C 0.57312 0.54774 0.64933 0.0
C183 C 0.53768 0.5297 0.64933 0.0
C184 C 0.52104 0.49511 0.6441 0.0
C185 C 0.53946 0.47913 0.6389 0.0
H186 H 0.18561 0.65293 0.82897 0.0
N187 N 0.13574 0.60112 0.80218 0.0
H188 H 0.23024 0.65396 0.8583 0.0
H189 H 0.13875 0.54653 0.81959 0.0
H190 H 0.18347 0.54726 0.84879 0.0
H191 H 0.14249 0.556 0.76876 0.0
H192 H 0.16374 0.56428 0.71947 0.0
H193 H 0.15029 0.6522 0.76781 0.0
H194 H 0.17276 0.6613 0.7185 0.0
H195 H 0.10331 0.62365 0.83361 0.0
H196 H 0.08913 0.53617 0.78863 0.0
H197 H 0.04398 0.59417 0.8475 0.0
H198 H 0.02952 0.50687 0.8013 0.0
H199 H 0.85762 0.51032 0.87612 0.0
H200 H 0.83173 0.49846 0.92419 0.0
H201 H 0.871 0.43325 0.94087 0.0
H202 H 0.89713 0.44566 0.89303 0.0
H203 H 0.86948 0.41707 0.84818 0.0
H204 H 0.82403 0.37571 0.81772 0.0
H205 H 0.81383 0.45398 0.77806 0.0
H206 H 0.85893 0.49505 0.80908 0.0
H207 H 0.93062 0.54671 0.83814 0.0
H208 H 0.99048 0.57465 0.82625 0.0
H209 H 0.98975 0.48247 0.84 0.0
N210 N 0.8903 0.48341 0.85135 0.0
H211 H 0.9295 0.45458 0.85067 0.0
C212 C 0.15913 0.59985 0.82196 0.0
C213 C 0.18473 0.62975 0.8337 0.0
C214 C 0.21006 0.63021 0.85056 0.0
C215 C 0.21038 0.60066 0.85587 0.0
C216 C 0.184 0.57044 0.84488 0.0
C217 C 0.15845 0.56999 0.82819 0.0
C218 C 0.14463 0.60353 0.77201 0.0
C219 C 0.14829 0.57875 0.75785 0.0
C220 C 0.16087 0.58371 0.72965 0.0
C221 C 0.17034 0.61363 0.71506 0.0
C222 C 0.16544 0.63784 0.72893 0.0
C223 C 0.15271 0.63276 0.75712 0.0
C224 C 0.10062 0.58243 0.80982 0.0
C225 C 0.08726 0.59812 0.82658 0.0
C226 C 0.05329 0.58125 0.83432 0.0
C227 C 0.03174 0.54818 0.82526 0.0
C228 C 0.04536 0.53221 0.80886 0.0
C229 C 0.07952 0.5491 0.80132 0.0
C230 C 0.87926 0.47897 0.88098 0.0
C231 C 0.86111 0.49396 0.89043 0.0
C232 C 0.84618 0.48697 0.91777 0.0
C233 C 0.8491 0.46472 0.93629 0.0
C234 C 0.86854 0.45075 0.92726 0.0
C235 C 0.88341 0.45772 0.8998 0.0
C236 C 0.86733 0.45914 0.83098 0.0
C237 C 0.85791 0.42539 0.83258 0.0
C238 C 0.83199 0.40176 0.81503 0.0
C239 C 0.81507 0.41152 0.79569 0.0
C240 C 0.82598 0.44559 0.79307 0.0
C241 C 0.85182 0.4691 0.81059 0.0
C242 C 0.92574 0.49881 0.84551 0.0
C243 C 0.94352 0.53267 0.83866 0.0
C244 C 0.97778 0.54858 0.83206 0.0
C245 C 0.99515 0.53092 0.83237 0.0
C246 C 0.97718 0.4968 0.83929 0.0
C247 C 0.94274 0.48084 0.84572 0.0
H248 H 0.53902 0.19157 0.97405 0.0
N249 N 0.5412 0.13858 0.95617 0.0
H250 H 0.58036 0.23782 0.0034 0.0
H251 H 0.59559 0.14152 0.98324 0.0
H252 H 0.63662 0.18711 0.01373 0.0
H253 H 0.60062 0.15552 0.92906 0.0
H254 H 0.6177 0.18029 0.88113 0.0
H255 H 0.50198 0.14245 0.91604 0.0
H256 H 0.51887 0.16693 0.86763 0.0
H257 H 0.4885 0.1041 0.99009 0.0
H258 H 0.56337 0.09568 0.94071 0.0
H259 H 0.46295 0.04591 0.00439 0.0
H260 H 0.53705 0.03694 0.95364 0.0
H261 H 0.37123 0.85905 0.03597 0.0
H262 H 0.36263 0.83806 0.08552 0.0
H263 H 0.46999 0.89536 0.10015 0.0
H264 H 0.47828 0.91572 0.05054 0.0
H265 H 0.47449 0.87561 0.01259 0.0
H266 H 0.47184 0.8294 0.98539 0.0
H267 H 0.39038 0.8231 0.93404 0.0
H268 H 0.39187 0.86795 0.9629 0.0
H269 H 0.40165 0.93382 0.99781 0.0
H270 H 0.42988 0.99249 0.98451 0.0
H271 H 0.52626 0.99801 0.99136 0.0
N272 N 0.42929 0.89733 0.00926 0.0
H273 H 0.49734 0.93864 0.00325 0.0
C274 C 0.56402 0.1631 0.97661 0.0
C275 C 0.56001 0.19028 0.98308 0.0
C276 C 0.58365 0.2166 1.00002 0.0
C277 C 0.61191 0.21627 0.01113 0.0
C278 C 0.6154 0.18842 0.00531 0.0
C279 C 0.59177 0.16213 0.9881 0.0
C280 C 0.55 0.14741 0.92625 0.0
C281 C 0.58239 0.15732 0.91568 0.0
C282 C 0.59218 0.1716 0.88831 0.0
C283 C 0.56971 0.17587 0.87084 0.0
C284 C 0.53664 0.16384 0.88061 0.0
C285 C 0.52697 0.14988 0.90818 0.0
C286 C 0.52739 0.10415 0.96402 0.0
C287 C 0.4992 0.08952 0.98214 0.0
C288 C 0.48453 0.05616 0.9901 0.0
C289 C 0.49756 0.0364 0.97984 0.0
C290 C 0.5264 0.05134 0.96211 0.0
C291 C 0.54132 0.08496 0.95441 0.0
C292 C 0.42524 0.88892 0.03953 0.0
C293 C 0.39279 0.86746 0.0501 0.0
C294 C 0.38796 0.85561 0.07842 0.0
C295 C 0.41565 0.86496 0.0968 0.0
C296 C 0.44816 0.88737 0.08645 0.0
C297 C 0.45294 0.89926 0.0581 0.0
C298 C 0.4327 0.87463 0.9902 0.0
C299 C 0.45622 0.86445 0.99537 0.0
C300 C 0.45486 0.83811 0.9795 0.0
C301 C 0.43041 0.82188 0.95778 0.0
C302 C 0.40885 0.83418 0.95116 0.0
C303 C 0.40986 0.86007 0.96738 0.0
C304 C 0.44732 0.93205 1.00179 0.0
C305 C 0.42887 0.9478 0.99642 0.0
C306 C 0.44514 0.98142 0.98904 0.0
C307 C 0.48049 1.00029 0.98717 0.0
C308 C 0.49903 0.98429 0.99239 0.0
C309 C 0.48258 0.95041 0.99951 0.0
H310 H 0.53903 0.37856 0.17046 0.0
N311 N 0.54121 0.43373 0.18835 0.0
H312 H 0.58037 0.37366 0.14109 0.0
H313 H 0.5956 0.48518 0.16129 0.0
H314 H 0.63662 0.48063 0.13078 0.0
H315 H 0.60064 0.47622 0.21545 0.0
H316 H 0.61773 0.46855 0.26339 0.0
H317 H 0.50201 0.39065 0.22849 0.0
H318 H 0.51891 0.38308 0.27691 0.0
H319 H 0.4885 0.4155 0.15445 0.0
H320 H 0.56337 0.4988 0.20381 0.0
H321 H 0.46294 0.44813 0.14014 0.0
H322 H 0.53704 0.53121 0.19087 0.0
H323 H 0.3712 0.54328 0.10854 0.0
H324 H 0.3626 0.55567 0.05899 0.0
H325 H 0.46996 0.6057 0.04435 0.0
H326 H 0.47826 0.59364 0.09396 0.0
H327 H 0.47447 0.62996 0.1319 0.0
H328 H 0.47183 0.67352 0.15911 0.0
H329 H 0.39039 0.5984 0.21048 0.0
H330 H 0.39186 0.55502 0.18161 0.0
H331 H 0.40164 0.49893 0.1467 0.0
H332 H 0.42986 0.46848 0.16002 0.0
H333 H 0.52624 0.55934 0.15315 0.0
N334 N 0.42926 0.56305 0.13524 0.0
H335 H 0.49732 0.58978 0.14125 0.0
C336 C 0.56403 0.43203 0.16791 0.0
C337 C 0.56002 0.40084 0.16144 0.0
C338 C 0.58366 0.39816 0.14448 0.0
C339 C 0.61192 0.42677 0.13337 0.0
C340 C 0.61541 0.4581 0.1392 0.0
C341 C 0.59177 0.46074 0.15642 0.0
C342 C 0.55002 0.43371 0.21827 0.0
C343 C 0.58241 0.45619 0.22884 0.0
C344 C 0.59221 0.45171 0.25621 0.0
C345 C 0.56975 0.42498 0.27368 0.0
C346 C 0.53668 0.40393 0.26392 0.0
C347 C 0.527 0.40821 0.23635 0.0
C348 C 0.52739 0.45435 0.18051 0.0
C349 C 0.4992 0.44079 0.16239 0.0
C350 C 0.48452 0.45946 0.15443 0.0
C351 C 0.49755 0.49225 0.16469 0.0
C352 C 0.52639 0.50615 0.18241 0.0
C353 C 0.54132 0.48747 0.19011 0.0
C354 C 0.42521 0.5674 0.10497 0.0
C355 C 0.39276 0.55643 0.09441 0.0
C356 C 0.38793 0.56345 0.06609 0.0
C357 C 0.41562 0.58178 0.04771 0.0
C358 C 0.44813 0.59187 0.05806 0.0
C359 C 0.45291 0.58475 0.08641 0.0
C360 C 0.43269 0.58916 0.15431 0.0
C361 C 0.45621 0.62286 0.14912 0.0
C362 C 0.45485 0.64785 0.165 0.0
C363 C 0.43041 0.63963 0.18673 0.0
C364 C 0.40886 0.60578 0.19335 0.0
C365 C 0.40985 0.58089 0.17713 0.0
C366 C 0.4473 0.54636 0.14271 0.0
C367 C 0.42885 0.51216 0.1481 0.0
C368 C 0.44513 0.49482 0.15548 0.0
C369 C 0.48047 0.51129 0.15734 0.0
C370 C 0.49902 0.54583 0.15212 0.0
C371 C 0.48257 0.56326 0.145 0.0
Li372 Li 0.64303 0.41034 0.43515 0.0
Li373 Li 0.62902 0.35534 0.41468 0.0
Li374 Li 0.67899 0.40469 0.40028 0.0
Li375 Li 0.62615 0.39591 0.38313 0.0
C376 C 0.69913 0.39785 0.45075 0.0
N377 N 0.76387 0.42286 0.47135 0.0
C378 C 0.71135 0.3764 0.4564 0.0
C379 C 0.71975 0.43197 0.45589 0.0
C380 C 0.74417 0.38954 0.46673 0.0
C381 C 0.75241 0.44415 0.46623 0.0
C382 C 0.57579 0.35994 0.44055 0.0
C383 C 0.51994 0.3384 0.45998 0.0
N384 N 0.53015 0.3315 0.48525 0.0
C385 C 0.58574 0.35262 0.46671 0.0
C386 C 0.54265 0.35281 0.43713 0.0
C387 C 0.56229 0.33825 0.48904 0.0
C388 C 0.61923 0.4458 0.46853 0.0
N389 N 0.63847 0.43126 0.46908 0.0
C390 C 0.64649 0.44019 0.52007 0.0
C391 C 0.652 0.42825 0.49416 0.0
C392 C 0.62633 0.45489 0.52034 0.0
C393 C 0.6127 0.45778 0.49411 0.0
H394 H 0.60823 0.44726 0.44835 0.0
H395 H 0.66613 0.41551 0.49429 0.0
C396 C 0.63641 0.30099 0.42241 0.0
N397 N 0.61224 0.30947 0.42325 0.0
C398 C 0.62976 0.27011 0.43251 0.0
C399 C 0.57226 0.25571 0.44154 0.0
C400 C 0.58021 0.28719 0.43152 0.0
C401 C 0.59753 0.24716 0.44305 0.0
H402 H 0.66135 0.31887 0.41486 0.0
H403 H 0.56103 0.29404 0.43115 0.0
C404 C 0.68853 0.46823 0.39279 0.0
N405 N 0.73973 0.53093 0.37754 0.0
C406 C 0.70005 0.47479 0.36425 0.0
C407 C 0.70277 0.49365 0.4135 0.0
C408 C 0.72605 0.50662 0.35699 0.0
C409 C 0.72871 0.52515 0.40538 0.0
C410 C 0.62638 0.34331 0.35626 0.0
C411 C 0.64058 0.33521 0.33314 0.0
C412 C 0.59143 0.32599 0.35985 0.0
C413 C 0.61957 0.30983 0.31401 0.0
C414 C 0.57128 0.30076 0.34027 0.0
N415 N 0.58564 0.29327 0.31794 0.0
C416 C 0.7259 0.39201 0.37678 0.0
C417 C 0.75136 0.44931 0.38853 0.0
C418 C 0.75576 0.3969 0.36467 0.0
N419 N 0.72391 0.41807 0.38782 0.0
C420 C 0.78187 0.45542 0.37636 0.0
C421 C 0.78417 0.42901 0.36391 0.0
H422 H 0.70393 0.36733 0.37695 0.0
H423 H 0.74969 0.46956 0.39824 0.0
C424 C 0.57642 0.40366 0.35164 0.0
N425 N 0.60566 0.4031 0.35043 0.0
C426 C 0.56381 0.41054 0.3267 0.0
C427 C 0.61173 0.41621 0.30013 0.0
C428 C 0.62305 0.40876 0.32531 0.0
C429 C 0.58188 0.41739 0.30064 0.0
H430 H 0.56309 0.39903 0.37194 0.0
H431 H 0.64592 0.40761 0.32488 0.0
O432 O 0.66727 0.38569 0.44008 0.0
O433 O 0.59834 0.37446 0.41845 0.0
O434 O 0.66286 0.43738 0.40036 0.0
O435 O 0.6468 0.3683 0.37498 0.0
H436 H 0.6957 0.34989 0.4531 0.0
H437 H 0.71069 0.4489 0.45173 0.0
H438 H 0.75396 0.37322 0.47112 0.0
H439 H 0.76867 0.47054 0.4701 0.0
H440 H 0.4942 0.33274 0.45763 0.0
H441 H 0.61121 0.3578 0.46975 0.0
H442 H 0.53458 0.35839 0.41703 0.0
H443 H 0.56965 0.33245 0.50939 0.0
H444 H 0.65683 0.43677 0.53989 0.0
H445 H 0.59697 0.4689 0.49344 0.0
H446 H 0.6503 0.26514 0.43333 0.0
H447 H 0.54683 0.23862 0.44865 0.0
H448 H 0.68946 0.45542 0.34799 0.0
H449 H 0.69379 0.48911 0.4356 0.0
H450 H 0.7354 0.51198 0.33504 0.0
H451 H 0.74004 0.54503 0.4212 0.0
H452 H 0.66758 0.34848 0.32996 0.0
H453 H 0.57986 0.33187 0.37749 0.0
H454 H 0.63023 0.30332 0.29602 0.0
H455 H 0.54421 0.28715 0.34281 0.0
H456 H 0.75621 0.37584 0.3551 0.0
H457 H 0.80334 0.48049 0.3766 0.0
H458 H 0.5406 0.4111 0.32785 0.0
H459 H 0.626 0.42063 0.28034 0.0
Li460 Li 0.24714 0.64419 0.59907 0.0
Li461 Li 0.28968 0.63369 0.57769 0.0
Li462 Li 0.28967 0.68715 0.56681 0.0
Li463 Li 0.24714 0.63411 0.54543 0.0
C464 C 0.30606 0.68236 0.63142 0.0
N465 N 0.32505 0.70618 0.68718 0.0
C466 C 0.31174 0.66369 0.65181 0.0
C467 C 0.31083 0.71351 0.63923 0.0
C468 C 0.32108 0.67604 0.67994 0.0
C469 C 0.32023 0.72502 0.66756 0.0
C470 C 0.23297 0.57106 0.57752 0.0
C471 C 0.23473 0.52613 0.55294 0.0
N472 N 0.22019 0.50632 0.57631 0.0
C473 C 0.21775 0.55017 0.60119 0.0
C474 C 0.24129 0.55889 0.55312 0.0
C475 C 0.21161 0.51756 0.6002 0.0
C476 C 0.198 0.6444 0.63826 0.0
N477 N 0.22127 0.63506 0.63374 0.0
C478 C 0.21093 0.61053 0.68067 0.0
C479 C 0.22753 0.61799 0.65412 0.0
C480 C 0.18722 0.62038 0.68633 0.0
C481 C 0.18069 0.63741 0.6646 0.0
H482 H 0.19277 0.65721 0.62148 0.0
H483 H 0.24561 0.61022 0.64976 0.0
C484 C 0.35084 0.63462 0.57515 0.0
N485 N 0.31934 0.61768 0.58654 0.0
C486 C 0.37606 0.62898 0.58529 0.0
C487 C 0.33562 0.58758 0.61786 0.0
C488 C 0.31118 0.59405 0.60711 0.0
C489 C 0.36884 0.60592 0.60758 0.0
H490 H 0.35683 0.65381 0.55929 0.0
H491 H 0.28635 0.58182 0.61662 0.0
C492 C 0.23295 0.69307 0.56698 0.0
N493 N 0.22017 0.74502 0.56819 0.0
C494 C 0.21774 0.69875 0.5433 0.0
C495 C 0.24127 0.71356 0.59138 0.0
C496 C 0.2116 0.72521 0.54429 0.0
C497 C 0.23471 0.73975 0.59156 0.0
C498 C 0.30607 0.65487 0.51308 0.0
C499 C 0.31173 0.6792 0.49268 0.0
C500 C 0.31084 0.62849 0.50527 0.0
C501 C 0.32108 0.6762 0.46456 0.0
C502 C 0.32025 0.62638 0.47694 0.0
N503 N 0.32506 0.65004 0.45732 0.0
C504 C 0.35082 0.74738 0.56935 0.0
C505 C 0.31116 0.74829 0.53738 0.0
C506 C 0.37604 0.77824 0.55922 0.0
N507 N 0.31933 0.73282 0.55796 0.0
C508 C 0.3356 0.7792 0.52663 0.0
C509 C 0.36883 0.79408 0.53692 0.0
H510 H 0.35682 0.73419 0.58522 0.0
H511 H 0.28634 0.73569 0.52787 0.0
C512 C 0.19801 0.58476 0.50624 0.0
N513 N 0.22128 0.61738 0.51075 0.0
C514 C 0.1807 0.57444 0.47989 0.0
C515 C 0.21093 0.63156 0.46383 0.0
C516 C 0.22753 0.6407 0.49037 0.0
C517 C 0.18722 0.598 0.45817 0.0
H518 H 0.19279 0.56673 0.52302 0.0
H519 H 0.24561 0.66655 0.49473 0.0
O520 O 0.29698 0.6707 0.60373 0.0
O521 O 0.23963 0.60322 0.57827 0.0
O522 O 0.23962 0.66757 0.56623 0.0
O523 O 0.29699 0.65745 0.54077 0.0
H524 H 0.30871 0.6398 0.64607 0.0
H525 H 0.30767 0.72883 0.62354 0.0
H526 H 0.32522 0.66168 0.696 0.0
H527 H 0.32386 0.74902 0.67391 0.0
H528 H 0.24111 0.51643 0.53418 0.0
H529 H 0.2108 0.55902 0.62015 0.0
H530 H 0.25239 0.57448 0.53442 0.0
H531 H 0.2 0.50117 0.61842 0.0
H532 H 0.21717 0.59773 0.69678 0.0
H533 H 0.16225 0.64504 0.66784 0.0
H534 H 0.40128 0.64351 0.57661 0.0
H535 H 0.32907 0.57004 0.6354 0.0
H536 H 0.2108 0.68294 0.52434 0.0
H537 H 0.25236 0.70906 0.61008 0.0
H538 H 0.19999 0.72999 0.52607 0.0
H539 H 0.24108 0.75583 0.61031 0.0
H540 H 0.3087 0.70007 0.49842 0.0
H541 H 0.30769 0.61001 0.52097 0.0
H542 H 0.32521 0.6947 0.4485 0.0
H543 H 0.32389 0.60601 0.47059 0.0
H544 H 0.40126 0.78893 0.5679 0.0
H545 H 0.32905 0.79018 0.50909 0.0
H546 H 0.16227 0.54837 0.47666 0.0
H547 H 0.21717 0.65059 0.44771 0.0
Li548 Li 0.67892 0.30537 0.74422 0.0
Li549 Li 0.62607 0.26132 0.76139 0.0
Li550 Li 0.64292 0.26376 0.70936 0.0
Li551 Li 0.62894 0.30477 0.72984 0.0
C552 C 0.68842 0.25135 0.75171 0.0
N553 N 0.7396 0.23981 0.76698 0.0
C554 C 0.69995 0.25632 0.78025 0.0
C555 C 0.70264 0.24013 0.73101 0.0
C556 C 0.72593 0.25046 0.78752 0.0
C557 C 0.72857 0.23455 0.73913 0.0
C558 C 0.62635 0.31418 0.78827 0.0
C559 C 0.57127 0.30167 0.8043 0.0
N560 N 0.58566 0.32352 0.82662 0.0
C561 C 0.64058 0.33648 0.81139 0.0
C562 C 0.59139 0.29657 0.7847 0.0
C563 C 0.61959 0.34087 0.83053 0.0
C564 C 0.72584 0.36496 0.76767 0.0
N565 N 0.72385 0.3369 0.75665 0.0
C566 C 0.7818 0.35749 0.7681 0.0
C567 C 0.75129 0.3331 0.75595 0.0
C568 C 0.78412 0.38621 0.78053 0.0
C569 C 0.75572 0.38994 0.77977 0.0
H570 H 0.70388 0.36769 0.7675 0.0
H571 H 0.7496 0.31116 0.74626 0.0
C572 C 0.57636 0.20386 0.79289 0.0
N573 N 0.60559 0.23366 0.7941 0.0
C574 C 0.56376 0.18437 0.81783 0.0
C575 C 0.61167 0.22662 0.84439 0.0
C576 C 0.62299 0.24539 0.81922 0.0
C577 C 0.58183 0.19559 0.84389 0.0
H578 H 0.56302 0.19516 0.77259 0.0
H579 H 0.64586 0.2694 0.81964 0.0
C580 C 0.699 0.33231 0.69371 0.0
N581 N 0.76369 0.37198 0.67297 0.0
C582 C 0.71119 0.36595 0.68796 0.0
C583 C 0.71963 0.31881 0.68859 0.0
C584 C 0.74399 0.38561 0.67757 0.0
C585 C 0.75226 0.33926 0.67818 0.0
C586 C 0.57568 0.24696 0.704 0.0
C587 C 0.58562 0.26423 0.67783 0.0
C588 C 0.54253 0.22098 0.70742 0.0
C589 C 0.56217 0.25518 0.65551 0.0
C590 C 0.51981 0.2127 0.68458 0.0
N591 N 0.53002 0.22982 0.65932 0.0
C592 C 0.61914 0.20451 0.67598 0.0
C593 C 0.65186 0.25483 0.65035 0.0
C594 C 0.61261 0.186 0.6504 0.0
N595 N 0.63834 0.23828 0.67543 0.0
C596 C 0.64635 0.23737 0.62444 0.0
C597 C 0.62623 0.20253 0.62416 0.0
H598 H 0.60815 0.19204 0.69616 0.0
H599 H 0.66596 0.2817 0.65022 0.0
C600 C 0.63639 0.36652 0.72208 0.0
N601 N 0.61218 0.33388 0.72128 0.0
C602 C 0.62976 0.39077 0.71198 0.0
C603 C 0.57223 0.34772 0.70301 0.0
C604 C 0.58016 0.32416 0.71303 0.0
C605 C 0.59752 0.38151 0.70147 0.0
H606 H 0.66133 0.37356 0.72961 0.0
H607 H 0.56096 0.29814 0.71342 0.0
O608 O 0.66277 0.25655 0.74414 0.0
O609 O 0.64675 0.30959 0.76954 0.0
O610 O 0.66717 0.31264 0.70443 0.0
O611 O 0.59824 0.25498 0.72608 0.0
H612 H 0.68937 0.26511 0.7965 0.0
H613 H 0.69366 0.23568 0.70891 0.0
H614 H 0.73529 0.25447 0.80947 0.0
H615 H 0.73988 0.22597 0.72332 0.0
H616 H 0.5442 0.28822 0.80178 0.0
H617 H 0.66758 0.35019 0.81455 0.0
H618 H 0.57981 0.27912 0.76706 0.0
H619 H 0.63028 0.35804 0.84852 0.0
H620 H 0.80327 0.35388 0.76787 0.0
H621 H 0.75617 0.41146 0.78932 0.0
H622 H 0.54055 0.1606 0.81668 0.0
H623 H 0.62595 0.23647 0.86418 0.0
H624 H 0.69554 0.37682 0.69124 0.0
H625 H 0.71059 0.29284 0.69282 0.0
H626 H 0.75375 0.4117 0.67309 0.0
H627 H 0.76852 0.32913 0.67432 0.0
H628 H 0.6111 0.28451 0.67479 0.0
H629 H 0.53447 0.20733 0.72752 0.0
H630 H 0.56952 0.26834 0.63517 0.0
H631 H 0.49407 0.19264 0.68694 0.0
H632 H 0.59691 0.15915 0.65107 0.0
H633 H 0.65668 0.25114 0.60462 0.0
H634 H 0.65032 0.41627 0.71114 0.0
H635 H 0.54679 0.33939 0.69591 0.0
Li636 Li 0.39033 0.6314 0.93235 0.0
Li637 Li 0.40028 0.68441 0.91393 0.0
Li638 Li 0.34713 0.63013 0.90145 0.0
Li639 Li 0.40142 0.64287 0.88004 0.0
C640 C 0.35927 0.65121 0.96855 0.0
N641 N 0.35314 0.64703 0.02802 0.0
C642 C 0.38442 0.67574 0.98599 0.0
C643 C 0.33083 0.62478 0.9813 0.0
C644 C 0.38089 0.67313 0.01604 0.0
C645 C 0.32825 0.62305 0.01143 0.0
C646 C 0.46381 0.69189 0.90475 0.0
C647 C 0.49948 0.73336 0.87002 0.0
N648 N 0.52666 0.74166 0.88705 0.0
C649 C 0.49212 0.70075 0.92187 0.0
C650 C 0.46753 0.70828 0.8786 0.0
C651 C 0.52366 0.726 0.91256 0.0
C652 C 0.37788 0.58135 0.97474 0.0
N653 N 0.3988 0.61322 0.96612 0.0
C654 C 0.43229 0.62456 0.0087 0.0
C655 C 0.42584 0.63465 0.98232 0.0
C656 C 0.41067 0.59204 0.01859 0.0
C657 C 0.38334 0.57019 1.00105 0.0
H658 H 0.35656 0.56475 0.96155 0.0
H659 H 0.44173 0.66001 0.97519 0.0
C660 C 0.38754 0.73414 0.9274 0.0
N661 N 0.41403 0.72934 0.92362 0.0
C662 C 0.39253 0.76449 0.9377 0.0
C663 C 0.45236 0.78517 0.93904 0.0
C664 C 0.44612 0.75413 0.92897 0.0
C665 C 0.42527 0.79054 0.94404 0.0
H666 H 0.36226 0.71381 0.92333 0.0
H667 H 0.46683 0.7497 0.92623 0.0
C668 C 0.34146 0.56936 0.89502 0.0
N669 N 0.28824 0.50555 0.88601 0.0
C670 C 0.34129 0.55097 0.87096 0.0
C671 C 0.31465 0.55525 0.91456 0.0
C672 C 0.31413 0.51875 0.86677 0.0
C673 C 0.28795 0.52298 0.90962 0.0
C674 C 0.37558 0.68316 0.85197 0.0
C675 C 0.35106 0.66517 0.83104 0.0
C676 C 0.39756 0.71729 0.84814 0.0
C677 C 0.34936 0.68144 0.80637 0.0
C678 C 0.39505 0.73267 0.82318 0.0
N679 N 0.37122 0.71457 0.80298 0.0
C680 C 0.28576 0.62867 0.90482 0.0
C681 C 0.28623 0.59172 0.86958 0.0
C682 C 0.25489 0.62326 0.8945 0.0
N683 N 0.30108 0.61356 0.89185 0.0
C684 C 0.25528 0.58543 0.85869 0.0
C685 C 0.23977 0.60216 0.87056 0.0
H686 H 0.29843 0.64637 0.92214 0.0
H687 H 0.2994 0.58094 0.85891 0.0
C688 C 0.45021 0.64052 0.84162 0.0
N689 N 0.41841 0.63503 0.84492 0.0
C690 C 0.46037 0.63381 0.8151 0.0
C691 C 0.40457 0.61476 0.79638 0.0
C692 C 0.39562 0.622 0.82309 0.0
C693 C 0.43736 0.62075 0.79203 0.0
H694 H 0.46766 0.64992 0.85955 0.0
H695 H 0.37022 0.61678 0.82659 0.0
O696 O 0.36271 0.65287 0.93913 0.0
O697 O 0.43271 0.66751 0.91382 0.0
O698 O 0.36766 0.60107 0.89926 0.0
O699 O 0.37733 0.6678 0.87657 0.0
H700 H 0.40667 0.69629 0.97646 0.0
H701 H 0.31099 0.60578 0.96809 0.0
H702 H 0.40028 0.69177 0.02982 0.0
H703 H 0.30647 0.60263 0.02162 0.0
H704 H 0.50267 0.74618 0.84978 0.0
H705 H 0.48977 0.6883 0.94216 0.0
H706 H 0.44607 0.70142 0.86489 0.0
H707 H 0.54577 0.73314 0.92563 0.0
H708 H 0.45328 0.64245 0.02169 0.0
H709 H 0.36621 0.54482 0.00771 0.0
H710 H 0.37069 0.76688 0.94179 0.0
H711 H 0.47806 0.80451 0.94331 0.0
H712 H 0.36195 0.5614 0.85573 0.0
H713 H 0.31427 0.56925 0.93314 0.0
H714 H 0.31365 0.50425 0.84823 0.0
H715 H 0.26695 0.51183 0.92449 0.0
H716 H 0.33359 0.6389 0.83367 0.0
H717 H 0.41636 0.73186 0.86425 0.0
H718 H 0.3306 0.66773 0.78996 0.0
H719 H 0.41199 0.75902 0.81993 0.0
H720 H 0.24367 0.63651 0.90436 0.0
H721 H 0.24483 0.56944 0.83991 0.0
H722 H 0.48577 0.63836 0.81278 0.0
H723 H 0.38604 0.60494 0.77921 0.0
Li724 Li 0.71888 0.39949 0.08081 0.0
Li725 Li 0.76335 0.38773 0.09842 0.0
Li726 Li 0.76333 0.40674 0.04602 0.0
Li727 Li 0.71888 0.35052 0.06364 0.0
C728 C 0.78104 0.46253 0.09184 0.0
N729 N 0.80625 0.52762 0.1096 0.0
C730 C 0.78821 0.47106 0.12104 0.0
C731 C 0.78706 0.48712 0.07162 0.0
C732 C 0.80085 0.50411 0.1296 0.0
C733 C 0.79969 0.51988 0.08105 0.0
C734 C 0.69272 0.33265 0.11761 0.0
C735 C 0.67838 0.27724 0.13179 0.0
N736 N 0.64913 0.27253 0.14343 0.0
C737 C 0.66261 0.32734 0.12983 0.0
C738 C 0.70079 0.30749 0.11871 0.0
C739 C 0.64087 0.29675 0.14274 0.0
C740 C 0.65501 0.39109 0.08805 0.0
N741 N 0.68799 0.41332 0.0934 0.0
C742 C 0.67278 0.44693 0.1217 0.0
C743 C 0.69723 0.44123 0.10943 0.0
C744 C 0.63843 0.42371 0.1174 0.0
C745 C 0.62979 0.39599 0.09955 0.0
H746 H 0.64818 0.36871 0.07581 0.0
H747 H 0.72342 0.4584 0.11385 0.0
C748 C 0.8242 0.41804 0.13038 0.0
N749 N 0.79141 0.39323 0.13065 0.0
C750 C 0.84398 0.42536 0.15528 0.0
C751 C 0.79619 0.38073 0.17984 0.0
C752 C 0.77731 0.37449 0.15462 0.0
C753 C 0.82986 0.4068 0.18057 0.0
H754 H 0.83462 0.43287 0.11112 0.0
H755 H 0.75105 0.35545 0.15456 0.0
C756 C 0.6927 0.39118 0.02684 0.0
N757 N 0.6491 0.4077 1.00101 0.0
C758 C 0.66259 0.36638 0.01462 0.0
C759 C 0.70075 0.42441 0.02573 0.0
C760 C 0.64086 0.37523 1.00169 0.0
C761 C 0.67835 0.43225 0.01264 0.0
C762 C 0.78104 0.34964 0.05257 0.0
C763 C 0.78818 0.34828 0.02336 0.0
C764 C 0.78708 0.33107 0.07278 0.0
C765 C 0.80082 0.32787 0.01478 0.0
C766 C 0.79971 0.31095 0.06332 0.0
N767 N 0.80624 0.30976 0.03477 0.0
C768 C 0.82417 0.43729 0.01404 0.0
C769 C 0.77726 0.43391 0.9898 0.0
C770 C 0.84395 0.44975 0.98914 0.0
N771 N 0.79138 0.4293 0.01377 0.0
C772 C 0.79613 0.44653 0.96457 0.0
C773 C 0.82981 0.45416 0.96385 0.0
H774 H 0.8346 0.4329 0.03331 0.0
H775 H 0.751 0.42667 0.98986 0.0
C776 C 0.65501 0.29506 0.05641 0.0
N777 N 0.68799 0.30579 0.05107 0.0
C778 C 0.6298 0.26494 0.04492 0.0
C779 C 0.67277 0.25696 0.02279 0.0
C780 C 0.69724 0.28712 0.03505 0.0
C781 C 0.63843 0.24584 0.02709 0.0
H782 H 0.64819 0.31063 0.06864 0.0
H783 H 0.72342 0.29612 0.03063 0.0
O784 O 0.76906 0.43043 0.083 0.0
O785 O 0.71407 0.36226 0.10447 0.0
O786 O 0.71405 0.38293 0.03998 0.0
O787 O 0.76906 0.36976 0.06143 0.0
H788 H 0.78377 0.4523 0.13694 0.0
H789 H 0.78222 0.48101 0.04887 0.0
H790 H 0.80635 0.51107 0.15214 0.0
H791 H 0.8044 0.53918 0.06566 0.0
H792 H 0.68422 0.25748 0.13265 0.0
H793 H 0.65609 0.34663 0.12939 0.0
H794 H 0.72394 0.31118 0.10929 0.0
H795 H 0.61745 0.29227 0.15223 0.0
H796 H 0.68077 0.46843 0.13559 0.0
H797 H 0.60375 0.37764 0.09518 0.0
H798 H 0.86987 0.44558 0.15487 0.0
H799 H 0.78406 0.36619 0.19895 0.0
H800 H 0.65608 0.34058 0.01505 0.0
H801 H 0.7239 0.44387 0.03516 0.0
H802 H 0.61743 0.35629 0.9922 0.0
H803 H 0.68418 0.45784 0.01179 0.0
H804 H 0.78372 0.3626 0.00747 0.0
H805 H 0.78225 0.33234 0.09553 0.0
H806 H 0.80629 0.32641 0.99224 0.0
H807 H 0.80443 0.29635 0.0787 0.0
H808 H 0.86984 0.45543 0.98955 0.0
H809 H 0.78399 0.44893 0.94546 0.0
H810 H 0.60376 0.25726 0.0493 0.0
H811 H 0.68076 0.24343 0.00891 0.0
Li812 Li 0.40144 0.78967 0.26447 0.0
Li813 Li 0.34716 0.74813 0.24305 0.0
Li814 Li 0.40031 0.74699 0.23058 0.0
Li815 Li 0.39036 0.79006 0.21216 0.0
C816 C 0.37561 0.72355 0.29254 0.0
N817 N 0.37124 0.68778 0.34153 0.0
C818 C 0.35109 0.71702 0.31347 0.0
C819 C 0.39759 0.71139 0.29638 0.0
C820 C 0.34938 0.69905 0.33813 0.0
C821 C 0.39507 0.69351 0.32133 0.0
C822 C 0.34149 0.80323 0.24948 0.0
C823 C 0.28798 0.7961 0.23489 0.0
N824 N 0.28826 0.81382 0.25849 0.0
C825 C 0.34132 0.82145 0.27354 0.0
C826 C 0.31468 0.79053 0.22994 0.0
C827 C 0.31416 0.82651 0.27773 0.0
C828 C 0.45024 0.84081 0.30289 0.0
N829 N 0.41844 0.8145 0.29959 0.0
C830 C 0.40458 0.82093 0.34812 0.0
C831 C 0.39564 0.80474 0.32142 0.0
C832 C 0.43738 0.84773 0.35247 0.0
C833 C 0.46039 0.85768 0.32941 0.0
H834 H 0.46769 0.84885 0.28496 0.0
H835 H 0.37024 0.78457 0.31791 0.0
C836 C 0.28579 0.68823 0.23968 0.0
N837 N 0.30111 0.71866 0.25265 0.0
C838 C 0.25493 0.66277 0.25 0.0
C839 C 0.25531 0.70099 0.2858 0.0
C840 C 0.28625 0.72564 0.27492 0.0
C841 C 0.2398 0.66875 0.27393 0.0
H842 H 0.29847 0.68321 0.22236 0.0
H843 H 0.29942 0.7496 0.28559 0.0
C844 C 0.46384 0.80303 0.23976 0.0
N845 N 0.52669 0.81609 0.25746 0.0
C846 C 0.49215 0.82247 0.22264 0.0
C847 C 0.46756 0.79036 0.26592 0.0
C848 C 0.52369 0.82875 0.23194 0.0
C849 C 0.49951 0.79722 0.2745 0.0
C850 C 0.3593 0.73918 0.17596 0.0
C851 C 0.38446 0.7398 0.15852 0.0
C852 C 0.33087 0.73718 0.1632 0.0
C853 C 0.38093 0.73889 0.12847 0.0
C854 C 0.32829 0.73634 0.13307 0.0
N855 N 0.35318 0.73724 0.11648 0.0
C856 C 0.38756 0.68451 0.21712 0.0
C857 C 0.44615 0.7231 0.21553 0.0
C858 C 0.39255 0.65916 0.20682 0.0
N859 N 0.41406 0.7158 0.22089 0.0
C860 C 0.45237 0.69829 0.20547 0.0
C861 C 0.42528 0.66584 0.20047 0.0
H862 H 0.36229 0.67958 0.22119 0.0
H863 H 0.46685 0.74823 0.21827 0.0
C864 C 0.37791 0.82766 0.16977 0.0
N865 N 0.39884 0.8167 0.17839 0.0
C866 C 0.38338 0.84429 0.14346 0.0
C867 C 0.43232 0.83885 0.13581 0.0
C868 C 0.42587 0.8223 0.16219 0.0
C869 C 0.4107 0.84974 0.12592 0.0
H870 H 0.3566 0.82294 0.18296 0.0
H871 H 0.44176 0.81282 0.16931 0.0
O872 O 0.37736 0.74066 0.26794 0.0
O873 O 0.36769 0.79772 0.24524 0.0
O874 O 0.43274 0.79632 0.23069 0.0
O875 O 0.36274 0.74097 0.20537 0.0
H876 H 0.33361 0.72582 0.31084 0.0
H877 H 0.41638 0.71562 0.28026 0.0
H878 H 0.33063 0.69401 0.35455 0.0
H879 H 0.41202 0.6841 0.32459 0.0
H880 H 0.26698 0.78626 0.22001 0.0
H881 H 0.36197 0.83168 0.28878 0.0
H882 H 0.3143 0.77615 0.21136 0.0
H883 H 0.31367 0.84053 0.29627 0.0
H884 H 0.38606 0.81223 0.3653 0.0
H885 H 0.48579 0.87852 0.33173 0.0
H886 H 0.24371 0.6383 0.24014 0.0
H887 H 0.24485 0.70652 0.30459 0.0
H888 H 0.4898 0.83257 0.20235 0.0
H889 H 0.4461 0.77577 0.27963 0.0
H890 H 0.54579 0.8437 0.21888 0.0
H891 H 0.5027 0.7876 0.29473 0.0
H892 H 0.4067 0.7415 0.16805 0.0
H893 H 0.31103 0.73635 0.17641 0.0
H894 H 0.40032 0.73962 0.11469 0.0
H895 H 0.30651 0.73497 0.12288 0.0
H896 H 0.3707 0.63492 0.20273 0.0
H897 H 0.47807 0.70464 0.20119 0.0
H898 H 0.36624 0.85252 0.1368 0.0
H899 H 0.45331 0.84194 0.12281 0.0
loop_
_geom_bond_atom_site_label_1
_geom_bond_atom_site_label_2
_geom_bond_distance
_geom_bond_site_symmetry_2
_ccdc_geom_bond_type
H0 C27 0.929 . S
N1 C26 1.433 . S
N1 C32 1.435 . S
N1 C38 1.423 . S
H2 C28 0.930 . S
H3 C31 0.931 . S
H4 C30 0.929 . S
H5 C33 0.930 . S
H6 C34 0.932 . S
H7 C37 0.929 . S
H8 C36 0.931 . S
H9 C39 0.929 . S
H10 C43 0.932 . S
H11 C40 0.931 . S
H12 C42 0.929 . S
H13 C45 0.929 . S
H14 C46 0.930 . S
H15 C48 0.929 . S
H16 C49 0.931 . S
H17 C51 0.930 . S
H18 C52 0.932 . S
H19 C54 0.931 . S
H20 C55 0.929 . S
H21 C57 0.929 . S
H22 C58 0.931 . S
H23 C60 0.929 . S
N24 C44 1.433 . S
N24 C50 1.435 . S
N24 C56 1.423 . S
H25 C61 0.932 . S
C26 N1 1.433 . S
C26 C27 1.363 . S
C26 C31 1.370 . S
C27 H0 0.929 . S
C27 C26 1.363 . S
C27 C28 1.385 . S
C28 H2 0.930 . S
C28 C27 1.385 . S
C28 C29 1.357 . S
C29 C28 1.357 . S
C29 C30 1.406 . S
C30 H4 0.929 . S
C30 C29 1.406 . S
C30 C31 1.391 . S
C31 H3 0.931 . S
C31 C26 1.370 . S
C31 C30 1.391 . S
C32 N1 1.435 . S
C32 C33 1.358 . S
C32 C37 1.371 . S
C33 H5 0.930 . S
C33 C32 1.358 . S
C33 C34 1.405 . S
C34 H6 0.932 . S
C34 C33 1.405 . S
C34 C35 1.383 . S
C35 C34 1.383 . S
C35 C36 1.393 . S
C36 H8 0.931 . S
C36 C35 1.393 . S
C36 C37 1.382 . S
C37 H7 0.929 . S
C37 C32 1.371 . S
C37 C36 1.382 . S
C38 N1 1.423 . S
C38 C39 1.362 . S
C38 C43 1.388 . S
C39 H9 0.929 . S
C39 C38 1.362 . S
C39 C40 1.376 . S
C40 H11 0.931 . S
C40 C39 1.376 . S
C40 C41 1.396 . S
C41 C40 1.396 . S
C41 C42 1.348 . S
C41 C59 1.472 1_455 S
C42 H12 0.929 . S
C42 C41 1.348 . S
C42 C43 1.443 . S
C43 H10 0.932 . S
C43 C38 1.388 . S
C43 C42 1.443 . S
C44 N24 1.433 . S
C44 C45 1.363 . S
C44 C49 1.370 . S
C45 H13 0.929 . S
C45 C44 1.363 . S
C45 C46 1.385 . S
C46 H14 0.930 . S
C46 C45 1.385 . S
C46 C47 1.357 . S
C47 C46 1.357 . S
C47 C48 1.406 . S
C48 H15 0.929 . S
C48 C47 1.406 . S
C48 C49 1.391 . S
C49 H16 0.931 . S
C49 C44 1.370 . S
C49 C48 1.391 . S
C50 N24 1.435 . S
C50 C51 1.358 . S
C50 C55 1.371 . S
C51 H17 0.930 . S
C51 C50 1.358 . S
C51 C52 1.405 . S
C52 H18 0.932 . S
C52 C51 1.405 . S
C52 C53 1.383 . S
C53 C52 1.383 . S
C53 C54 1.393 . S
C54 H19 0.931 . S
C54 C53 1.393 . S
C54 C55 1.382 . S
C55 H20 0.929 . S
C55 C50 1.371 . S
C55 C54 1.382 . S
C56 N24 1.423 . S
C56 C57 1.362 . S
C56 C61 1.388 . S
C57 H21 0.929 . S
C57 C56 1.362 . S
C57 C58 1.376 . S
C58 H22 0.931 . S
C58 C57 1.376 . S
C58 C59 1.396 . S
C59 C41 1.472 1_655 S
C59 C58 1.396 . S
C59 C60 1.348 . S
C60 H23 0.929 . S
C60 C59 1.348 . S
C60 C61 1.443 . S
C61 H25 0.932 . S
C61 C56 1.388 . S
C61 C60 1.443 . S
H62 C89 0.929 . S
N63 C88 1.433 . S
N63 C94 1.435 . S
N63 C100 1.423 . S
H64 C90 0.930 . S
H65 C93 0.931 . S
H66 C92 0.929 . S
H67 C95 0.930 . S
H68 C96 0.932 . S
H69 C99 0.929 . S
H70 C98 0.931 . S
H71 C101 0.929 . S
H72 C105 0.932 . S
H73 C102 0.931 . S
H74 C104 0.929 1_545 S
H75 C107 0.929 . S
H76 C108 0.930 . S
H77 C110 0.929 . S
H78 C111 0.931 . S
H79 C113 0.930 . S
H80 C114 0.932 . S
H81 C116 0.931 . S
H82 C117 0.929 . S
H83 C119 0.929 . S
H84 C120 0.931 . S
H85 C122 0.929 . S
N86 C106 1.433 . S
N86 C112 1.435 . S
N86 C118 1.423 . S
H87 C123 0.932 . S
C88 N63 1.433 . S
C88 C89 1.363 . S
C88 C93 1.370 . S
C89 H62 0.929 . S
C89 C88 1.363 . S
C89 C90 1.385 . S
C90 H64 0.930 . S
C90 C89 1.385 . S
C90 C91 1.357 . S
C91 C90 1.357 . S
C91 C92 1.406 . S
C92 H66 0.929 . S
C92 C91 1.406 . S
C92 C93 1.391 . S
C93 H65 0.931 . S
C93 C88 1.370 . S
C93 C92 1.391 . S
C94 N63 1.435 . S
C94 C95 1.358 . S
C94 C99 1.371 . S
C95 H67 0.930 . S
C95 C94 1.358 . S
C95 C96 1.405 . S
C96 H68 0.932 . S
C96 C95 1.405 . S
C96 C97 1.383 . S
C97 C96 1.383 . S
C97 C98 1.393 . S
C98 H70 0.931 . S
C98 C97 1.393 . S
C98 C99 1.382 . S
C99 H69 0.929 . S
C99 C94 1.371 . S
C99 C98 1.382 . S
C100 N63 1.423 . S
C100 C101 1.362 . S
C100 C105 1.388 . S
C101 H71 0.929 . S
C101 C100 1.362 . S
C101 C102 1.376 . S
C102 H73 0.931 . S
C102 C101 1.376 . S
C102 C103 1.396 1_565 S
C103 C102 1.396 1_545 S
C103 C104 1.348 1_545 S
C103 C121 1.472 . S
C104 H74 0.929 1_565 S
C104 C103 1.348 1_565 S
C104 C105 1.443 . S
C105 H72 0.932 . S
C105 C100 1.388 . S
C105 C104 1.443 . S
C106 N86 1.433 . S
C106 C107 1.363 . S
C106 C111 1.370 . S
C107 H75 0.929 . S
C107 C106 1.363 . S
C107 C108 1.385 . S
C108 H76 0.930 . S
C108 C107 1.385 . S
C108 C109 1.357 . S
C109 C108 1.357 . S
C109 C110 1.406 . S
C110 H77 0.929 . S
C110 C109 1.406 . S
C110 C111 1.391 . S
C111 H78 0.931 . S
C111 C106 1.370 . S
C111 C110 1.391 . S
C112 N86 1.435 . S
C112 C113 1.358 . S
C112 C117 1.371 . S
C113 H79 0.930 . S
C113 C112 1.358 . S
C113 C114 1.405 . S
C114 H80 0.932 . S
C114 C113 1.405 . S
C114 C115 1.383 . S
C115 C114 1.383 . S
C115 C116 1.393 . S
C116 H81 0.931 . S
C116 C115 1.393 . S
C116 C117 1.382 . S
C117 H82 0.929 . S
C117 C112 1.371 . S
C117 C116 1.382 . S
C118 N86 1.423 . S
C118 C119 1.362 . S
C118 C123 1.388 . S
C119 H83 0.929 . S
C119 C118 1.362 . S
C119 C120 1.376 . S
C120 H84 0.931 . S
C120 C119 1.376 . S
C120 C121 1.396 . S
C121 C103 1.472 . S
C121 C120 1.396 . S
C121 C122 1.348 . S
C122 H85 0.929 . S
C122 C121 1.348 . S
C122 C123 1.443 . S
C123 H87 0.932 . S
C123 C118 1.388 . S
C123 C122 1.443 . S
H124 C151 0.929 . S
N125 C150 1.433 . S
N125 C156 1.435 . S
N125 C162 1.423 . S
H126 C152 0.930 . S
H127 C155 0.931 . S
H128 C154 0.929 . S
H129 C157 0.930 . S
H130 C158 0.932 . S
H131 C161 0.929 . S
H132 C160 0.931 . S
H133 C163 0.929 . S
H134 C167 0.932 . S
H135 C164 0.931 . S
H136 C166 0.929 . S
H137 C169 0.929 . S
H138 C170 0.930 . S
H139 C172 0.929 . S
H140 C173 0.931 . S
H141 C175 0.930 . S
H142 C176 0.932 . S
H143 C178 0.931 . S
H144 C179 0.929 . S
H145 C181 0.929 . S
H146 C182 0.931 . S
H147 C184 0.929 . S
N148 C168 1.433 . S
N148 C174 1.435 . S
N148 C180 1.423 . S
H149 C185 0.932 . S
C150 N125 1.433 . S
C150 C151 1.363 . S
C150 C155 1.370 . S
C151 H124 0.929 . S
C151 C150 1.363 . S
C151 C152 1.385 . S
C152 H126 0.930 . S
C152 C151 1.385 . S
C152 C153 1.357 . S
C153 C152 1.357 . S
C153 C154 1.406 . S
C154 H128 0.929 . S
C154 C153 1.406 . S
C154 C155 1.391 . S
C155 H127 0.931 . S
C155 C150 1.370 . S
C155 C154 1.391 . S
C156 N125 1.435 . S
C156 C157 1.358 . S
C156 C161 1.371 . S
C157 H129 0.930 . S
C157 C156 1.358 . S
C157 C158 1.405 . S
C158 H130 0.932 . S
C158 C157 1.405 . S
C158 C159 1.383 . S
C159 C158 1.383 . S
C159 C160 1.393 . S
C160 H132 0.931 . S
C160 C159 1.393 . S
C160 C161 1.382 . S
C161 H131 0.929 . S
C161 C156 1.371 . S
C161 C160 1.382 . S
C162 N125 1.423 . S
C162 C163 1.362 . S
C162 C167 1.388 . S
C163 H133 0.929 . S
C163 C162 1.362 . S
C163 C164 1.376 . S
C164 H135 0.931 . S
C164 C163 1.376 . S
C164 C165 1.396 . S
C165 C164 1.396 . S
C165 C166 1.348 . S
C165 C183 1.472 . S
C166 H136 0.929 . S
C166 C165 1.348 . S
C166 C167 1.443 . S
C167 H134 0.932 . S
C167 C162 1.388 . S
C167 C166 1.443 . S
C168 N148 1.433 . S
C168 C169 1.363 . S
C168 C173 1.370 . S
C169 H137 0.929 . S
C169 C168 1.363 . S
C169 C170 1.385 . S
C170 H138 0.930 . S
C170 C169 1.385 . S
C170 C171 1.357 . S
C171 C170 1.357 . S
C171 C172 1.406 . S
C172 H139 0.929 . S
C172 C171 1.406 . S
C172 C173 1.391 . S
C173 H140 0.931 . S
C173 C168 1.370 . S
C173 C172 1.391 . S
C174 N148 1.435 . S
C174 C175 1.358 . S
C174 C179 1.371 . S
C175 H141 0.930 . S
C175 C174 1.358 . S
C175 C176 1.405 . S
C176 H142 0.932 . S
C176 C175 1.405 . S
C176 C177 1.383 . S
C177 C176 1.383 . S
C177 C178 1.393 . S
C178 H143 0.931 . S
C178 C177 1.393 . S
C178 C179 1.382 . S
C179 H144 0.929 . S
C179 C174 1.371 . S
C179 C178 1.382 . S
C180 N148 1.423 . S
C180 C181 1.362 . S
C180 C185 1.388 . S
C181 H145 0.929 . S
C181 C180 1.362 . S
C181 C182 1.376 . S
C182 H146 0.931 . S
C182 C181 1.376 . S
C182 C183 1.396 . S
C183 C165 1.472 . S
C183 C182 1.396 . S
C183 C184 1.348 . S
C184 H147 0.929 . S
C184 C183 1.348 . S
C184 C185 1.443 . S
C185 H149 0.932 . S
C185 C180 1.388 . S
C185 C184 1.443 . S
H186 C213 0.929 . S
N187 C212 1.433 . S
N187 C218 1.435 . S
N187 C224 1.423 . S
H188 C214 0.930 . S
H189 C217 0.931 . S
H190 C216 0.929 . S
H191 C219 0.930 . S
H192 C220 0.932 . S
H193 C223 0.929 . S
H194 C222 0.931 . S
H195 C225 0.929 . S
H196 C229 0.932 . S
H197 C226 0.931 . S
H198 C228 0.929 . S
H199 C231 0.929 . S
H200 C232 0.930 . S
H201 C234 0.929 . S
H202 C235 0.931 . S
H203 C237 0.930 . S
H204 C238 0.932 . S
H205 C240 0.931 . S
H206 C241 0.929 . S
H207 C243 0.929 . S
H208 C244 0.931 . S
H209 C246 0.929 . S
N210 C230 1.433 . S
N210 C236 1.435 . S
N210 C242 1.423 . S
H211 C247 0.932 . S
C212 N187 1.433 . S
C212 C213 1.363 . S
C212 C217 1.370 . S
C213 H186 0.929 . S
C213 C212 1.363 . S
C213 C214 1.385 . S
C214 H188 0.930 . S
C214 C213 1.385 . S
C214 C215 1.357 . S
C215 C214 1.357 . S
C215 C216 1.406 . S
C216 H190 0.929 . S
C216 C215 1.406 . S
C216 C217 1.391 . S
C217 H189 0.931 . S
C217 C212 1.370 . S
C217 C216 1.391 . S
C218 N187 1.435 . S
C218 C219 1.358 . S
C218 C223 1.371 . S
C219 H191 0.930 . S
C219 C218 1.358 . S
C219 C220 1.405 . S
C220 H192 0.932 . S
C220 C219 1.405 . S
C220 C221 1.383 . S
C221 C220 1.383 . S
C221 C222 1.393 . S
C222 H194 0.931 . S
C222 C221 1.393 . S
C222 C223 1.382 . S
C223 H193 0.929 . S
C223 C218 1.371 . S
C223 C222 1.382 . S
C224 N187 1.423 . S
C224 C225 1.362 . S
C224 C229 1.388 . S
C225 H195 0.929 . S
C225 C224 1.362 . S
C225 C226 1.376 . S
C226 H197 0.931 . S
C226 C225 1.376 . S
C226 C227 1.396 . S
C227 C226 1.396 . S
C227 C228 1.348 . S
C227 C245 1.472 1_455 S
C228 H198 0.929 . S
C228 C227 1.348 . S
C228 C229 1.443 . S
C229 H196 0.932 . S
C229 C224 1.388 . S
C229 C228 1.443 . S
C230 N210 1.433 . S
C230 C231 1.363 . S
C230 C235 1.370 . S
C231 H199 0.929 . S
C231 C230 1.363 . S
C231 C232 1.385 . S
C232 H200 0.930 . S
C232 C231 1.385 . S
C232 C233 1.357 . S
C233 C232 1.357 . S
C233 C234 1.406 . S
C234 H201 0.929 . S
C234 C233 1.406 . S
C234 C235 1.391 . S
C235 H202 0.931 . S
C235 C230 1.370 . S
C235 C234 1.391 . S
C236 N210 1.435 . S
C236 C237 1.358 . S
C236 C241 1.371 . S
C237 H203 0.930 . S
C237 C236 1.358 . S
C237 C238 1.405 . S
C238 H204 0.932 . S
C238 C237 1.405 . S
C238 C239 1.383 . S
C239 C238 1.383 . S
C239 C240 1.393 . S
C240 H205 0.931 . S
C240 C239 1.393 . S
C240 C241 1.382 . S
C241 H206 0.929 . S
C241 C236 1.371 . S
C241 C240 1.382 . S
C242 N210 1.423 . S
C242 C243 1.362 . S
C242 C247 1.388 . S
C243 H207 0.929 . S
C243 C242 1.362 . S
C243 C244 1.376 . S
C244 H208 0.931 . S
C244 C243 1.376 . S
C244 C245 1.396 . S
C245 C227 1.472 1_655 S
C245 C244 1.396 . S
C245 C246 1.348 . S
C246 H209 0.929 . S
C246 C245 1.348 . S
C246 C247 1.443 . S
C247 H211 0.932 . S
C247 C242 1.388 . S
C247 C246 1.443 . S
H248 C275 0.929 . S
N249 C274 1.433 . S
N249 C280 1.435 . S
N249 C286 1.423 . S
H250 C276 0.930 . S
H251 C279 0.931 1_554 S
H252 C278 0.929 . S
H253 C281 0.930 . S
H254 C282 0.932 . S
H255 C285 0.929 . S
H256 C284 0.931 . S
H257 C287 0.929 . S
H258 C291 0.932 . S
H259 C288 0.931 1_554 S
H260 C290 0.929 . S
H261 C293 0.929 . S
H262 C294 0.930 . S
H263 C296 0.929 . S
H264 C297 0.931 . S
H265 C299 0.930 . S
H266 C300 0.932 . S
H267 C302 0.931 . S
H268 C303 0.929 . S
H269 C305 0.929 . S
H270 C306 0.908 1_545 S
H271 C308 0.929 . S
N272 C292 1.433 . S
N272 C298 1.435 1_554 S
N272 C304 1.423 . S
H273 C309 0.932 . S
C274 N249 1.433 . S
C274 C275 1.363 . S
C274 C279 1.371 . S
C275 H248 0.929 . S
C275 C274 1.363 . S
C275 C276 1.393 . S
C276 H250 0.930 . S
C276 C275 1.393 . S
C276 C277 1.348 1_556 S
C277 C276 1.348 1_554 S
C277 C278 1.406 . S
C278 H252 0.929 . S
C278 C277 1.406 . S
C278 C279 1.391 1_554 S
C279 H251 0.931 1_556 S
C279 C274 1.371 . S
C279 C278 1.391 1_556 S
C280 N249 1.435 . S
C280 C281 1.358 . S
C280 C285 1.371 . S
C281 H253 0.930 . S
C281 C280 1.358 . S
C281 C282 1.405 . S
C282 H254 0.932 . S
C282 C281 1.405 . S
C282 C283 1.383 . S
C283 C282 1.383 . S
C283 C284 1.393 . S
C284 H256 0.931 . S
C284 C283 1.393 . S
C284 C285 1.382 . S
C285 H255 0.929 . S
C285 C280 1.371 . S
C285 C284 1.382 . S
C286 N249 1.423 . S
C286 C287 1.362 . S
C286 C291 1.388 . S
C287 H257 0.929 . S
C287 C286 1.362 . S
C287 C288 1.376 . S
C288 H259 0.931 1_556 S
C288 C287 1.376 . S
C288 C289 1.396 . S
C289 C288 1.396 . S
C289 C290 1.348 . S
C289 C307 1.472 1_545 S
C290 H260 0.929 . S
C290 C289 1.348 . S
C290 C291 1.443 . S
C291 H258 0.932 . S
C291 C286 1.388 . S
C291 C290 1.443 . S
C292 N272 1.433 . S
C292 C293 1.363 . S
C292 C297 1.370 . S
C293 H261 0.929 . S
C293 C292 1.363 . S
C293 C294 1.385 . S
C294 H262 0.930 . S
C294 C293 1.385 . S
C294 C295 1.357 . S
C295 C294 1.357 . S
C295 C296 1.406 . S
C296 H263 0.929 . S
C296 C295 1.406 . S
C296 C297 1.391 . S
C297 H264 0.931 . S
C297 C292 1.370 . S
C297 C296 1.391 . S
C298 N272 1.435 1_556 S
C298 C299 1.358 1_556 S
C298 C303 1.371 . S
C299 H265 0.930 . S
C299 C298 1.358 1_554 S
C299 C300 1.405 1_554 S
C300 H266 0.932 . S
C300 C299 1.405 1_556 S
C300 C301 1.383 . S
C301 C300 1.383 . S
C301 C302 1.393 . S
C302 H267 0.931 . S
C302 C301 1.393 . S
C302 C303 1.382 . S
C303 H268 0.929 . S
C303 C298 1.371 . S
C303 C302 1.382 . S
C304 N272 1.423 . S
C304 C305 1.362 . S
C304 C309 1.388 1_554 S
C305 H269 0.929 . S
C305 C304 1.362 . S
C305 C306 1.376 . S
C306 H270 0.908 1_565 S
C306 C305 1.376 . S
C306 C307 1.396 1_554 S
C307 C289 1.472 1_565 S
C307 C306 1.396 1_556 S
C307 C308 1.348 . S
C308 H271 0.929 . S
C308 C307 1.348 . S
C308 C309 1.443 . S
C309 H273 0.932 . S
C309 C304 1.388 1_556 S
C309 C308 1.443 . S
H310 C337 0.929 . S
N311 C336 1.433 . S
N311 C342 1.435 . S
N311 C348 1.423 . S
H312 C338 0.930 . S
H313 C341 0.931 . S
H314 C340 0.929 . S
H315 C343 0.930 . S
H316 C344 0.932 . S
H317 C347 0.929 . S
H318 C346 0.931 . S
H319 C349 0.929 . S
H320 C353 0.932 . S
H321 C350 0.931 . S
H322 C352 0.929 . S
H323 C355 0.929 . S
H324 C356 0.930 . S
H325 C358 0.929 . S
H326 C359 0.931 . S
H327 C361 0.930 . S
H328 C362 0.932 . S
H329 C364 0.931 . S
H330 C365 0.929 . S
H331 C367 0.929 . S
H332 C368 0.931 . S
H333 C370 0.929 . S
N334 C354 1.433 . S
N334 C360 1.435 . S
N334 C366 1.423 . S
H335 C371 0.932 . S
C336 N311 1.433 . S
C336 C337 1.363 . S
C336 C341 1.370 . S
C337 H310 0.929 . S
C337 C336 1.363 . S
C337 C338 1.385 . S
C338 H312 0.930 . S
C338 C337 1.385 . S
C338 C339 1.357 . S
C339 C338 1.357 . S
C339 C340 1.406 . S
C340 H314 0.929 . S
C340 C339 1.406 . S
C340 C341 1.391 . S
C341 H313 0.931 . S
C341 C336 1.370 . S
C341 C340 1.391 . S
C342 N311 1.435 . S
C342 C343 1.358 . S
C342 C347 1.371 . S
C343 H315 0.930 . S
C343 C342 1.358 . S
C343 C344 1.405 . S
C344 H316 0.932 . S
C344 C343 1.405 . S
C344 C345 1.383 . S
C345 C344 1.383 . S
C345 C346 1.393 . S
C346 H318 0.931 . S
C346 C345 1.393 . S
C346 C347 1.382 . S
C347 H317 0.929 . S
C347 C342 1.371 . S
C347 C346 1.382 . S
C348 N311 1.423 . S
C348 C349 1.362 . S
C348 C353 1.388 . S
C349 H319 0.929 . S
C349 C348 1.362 . S
C349 C350 1.376 . S
C350 H321 0.931 . S
C350 C349 1.376 . S
C350 C351 1.396 . S
C351 C350 1.396 . S
C351 C352 1.348 . S
C351 C369 1.472 . S
C352 H322 0.929 . S
C352 C351 1.348 . S
C352 C353 1.443 . S
C353 H320 0.932 . S
C353 C348 1.388 . S
C353 C352 1.443 . S
C354 N334 1.433 . S
C354 C355 1.363 . S
C354 C359 1.370 . S
C355 H323 0.929 . S
C355 C354 1.363 . S
C355 C356 1.385 . S
C356 H324 0.930 . S
C356 C355 1.385 . S
C356 C357 1.357 . S
C357 C356 1.357 . S
C357 C358 1.406 . S
C358 H325 0.929 . S
C358 C357 1.406 . S
C358 C359 1.391 . S
C359 H326 0.931 . S
C359 C354 1.370 . S
C359 C358 1.391 . S
C360 N334 1.435 . S
C360 C361 1.358 . S
C360 C365 1.371 . S
C361 H327 0.930 . S
C361 C360 1.358 . S
C361 C362 1.405 . S
C362 H328 0.932 . S
C362 C361 1.405 . S
C362 C363 1.383 . S
C363 C362 1.383 . S
C363 C364 1.393 . S
C364 H329 0.931 . S
C364 C363 1.393 . S
C364 C365 1.382 . S
C365 H330 0.929 . S
C365 C360 1.371 . S
C365 C364 1.382 . S
C366 N334 1.423 . S
C366 C367 1.362 . S
C366 C371 1.388 . S
C367 H331 0.929 . S
C367 C366 1.362 . S
C367 C368 1.376 . S
C368 H332 0.931 . S
C368 C367 1.376 . S
C368 C369 1.396 . S
C369 C351 1.472 . S
C369 C368 1.396 . S
C369 C370 1.348 . S
C370 H333 0.929 . S
C370 C369 1.348 . S
C370 C371 1.443 . S
C371 H335 0.932 . S
C371 C366 1.388 . S
C371 C370 1.443 . S
Li372 N389 1.990 . S
Li372 O432 1.956 . S
Li372 O433 1.970 . S
Li372 O434 1.961 . S
Li373 N397 1.990 . S
Li373 O432 1.970 . S
Li373 O433 1.956 . S
Li373 O435 1.961 . S
Li374 N419 1.990 . S
Li374 O432 1.961 . S
Li374 O434 1.956 . S
Li374 O435 1.970 . S
Li375 N425 1.990 . S
Li375 O433 1.961 . S
Li375 O434 1.970 . S
Li375 O435 1.956 . S
C376 C378 1.348 . S
C376 C379 1.356 . S
C376 O432 1.325 . S
N377 C380 1.314 . S
N377 C381 1.279 . S
C378 C376 1.348 . S
C378 C380 1.353 . S
C378 H436 0.929 . S
C379 C376 1.356 . S
C379 C381 1.358 . S
C379 H437 0.930 . S
C380 N377 1.314 . S
C380 C378 1.353 . S
C380 H438 0.930 . S
C381 N377 1.279 . S
C381 C379 1.358 . S
C381 H439 0.930 . S
C382 C385 1.348 . S
C382 C386 1.356 . S
C382 O433 1.325 . S
C383 N384 1.279 . S
C383 C386 1.358 . S
C383 H440 0.930 . S
N384 C383 1.279 . S
N384 C387 1.314 . S
C385 C382 1.348 . S
C385 C387 1.353 . S
C385 H441 0.929 . S
C386 C382 1.356 . S
C386 C383 1.358 . S
C386 H442 0.930 . S
C387 N384 1.314 . S
C387 C385 1.353 . S
C387 H443 0.930 . S
C388 N389 1.314 . S
C388 C393 1.353 . S
C388 H394 0.930 . S
N389 Li372 1.990 . S
N389 C388 1.314 . S
N389 C391 1.279 . S
C390 C391 1.358 . S
C390 C392 1.356 . S
C390 H444 0.930 . S
C391 N389 1.279 . S
C391 C390 1.358 . S
C391 H395 0.930 . S
C392 C390 1.356 . S
C392 C393 1.348 . S
C393 C388 1.353 . S
C393 C392 1.348 . S
C393 H445 0.929 . S
H394 C388 0.930 . S
H395 C391 0.930 . S
C396 N397 1.314 . S
C396 C398 1.353 . S
C396 H402 0.930 . S
N397 Li373 1.990 . S
N397 C396 1.314 . S
N397 C400 1.279 . S
C398 C396 1.353 . S
C398 C401 1.348 . S
C398 H446 0.929 . S
C399 C400 1.358 . S
C399 C401 1.356 . S
C399 H447 0.930 . S
C400 N397 1.279 . S
C400 C399 1.358 . S
C400 H403 0.930 . S
C401 C398 1.348 . S
C401 C399 1.356 . S
H402 C396 0.930 . S
H403 C400 0.930 . S
C404 C406 1.348 . S
C404 C407 1.356 . S
C404 O434 1.325 . S
N405 C408 1.314 . S
N405 C409 1.279 . S
C406 C404 1.348 . S
C406 C408 1.353 . S
C406 H448 0.929 . S
C407 C404 1.356 . S
C407 C409 1.358 . S
C407 H449 0.930 . S
C408 N405 1.314 . S
C408 C406 1.353 . S
C408 H450 0.930 . S
C409 N405 1.279 . S
C409 C407 1.358 . S
C409 H451 0.930 . S
C410 C411 1.348 . S
C410 C412 1.356 . S
C410 O435 1.325 . S
C411 C410 1.348 . S
C411 C413 1.353 . S
C411 H452 0.929 . S
C412 C410 1.356 . S
C412 C414 1.358 . S
C412 H453 0.930 . S
C413 C411 1.353 . S
C413 N415 1.314 . S
C413 H454 0.930 . S
C414 C412 1.358 . S
C414 N415 1.279 . S
C414 H455 0.930 . S
N415 C413 1.314 . S
N415 C414 1.279 . S
C416 C418 1.353 . S
C416 N419 1.314 . S
C416 H422 0.930 . S
C417 N419 1.279 . S
C417 C420 1.358 . S
C417 H423 0.930 . S
C418 C416 1.353 . S
C418 C421 1.348 . S
C418 H456 0.929 . S
N419 Li374 1.990 . S
N419 C416 1.314 . S
N419 C417 1.279 . S
C420 C417 1.358 . S
C420 C421 1.356 . S
C420 H457 0.930 . S
C421 C418 1.348 . S
C421 C420 1.356 . S
H422 C416 0.930 . S
H423 C417 0.930 . S
C424 N425 1.314 . S
C424 C426 1.353 . S
C424 H430 0.930 . S
N425 Li375 1.990 . S
N425 C424 1.314 . S
N425 C428 1.279 . S
C426 C424 1.353 . S
C426 C429 1.348 . S
C426 H458 0.929 . S
C427 C428 1.358 . S
C427 C429 1.356 . S
C427 H459 0.930 . S
C428 N425 1.279 . S
C428 C427 1.358 . S
C428 H431 0.930 . S
C429 C426 1.348 . S
C429 C427 1.356 . S
H430 C424 0.930 . S
H431 C428 0.930 . S
O432 Li372 1.956 . S
O432 Li373 1.970 . S
O432 Li374 1.961 . S
O432 C376 1.325 . S
O433 Li372 1.970 . S
O433 Li373 1.956 . S
O433 Li375 1.961 . S
O433 C382 1.325 . S
O434 Li372 1.961 . S
O434 Li374 1.956 . S
O434 Li375 1.970 . S
O434 C404 1.325 . S
O435 Li373 1.961 . S
O435 Li374 1.970 . S
O435 Li375 1.956 . S
O435 C410 1.325 . S
H436 C378 0.929 . S
H437 C379 0.930 . S
H438 C380 0.930 . S
H439 C381 0.930 . S
H440 C383 0.930 . S
H441 C385 0.929 . S
H442 C386 0.930 . S
H443 C387 0.930 . S
H444 C390 0.930 . S
H445 C393 0.929 . S
H446 C398 0.929 . S
H447 C399 0.930 . S
H448 C406 0.929 . S
H449 C407 0.930 . S
H450 C408 0.930 . S
H451 C409 0.930 . S
H452 C411 0.929 . S
H453 C412 0.930 . S
H454 C413 0.930 . S
H455 C414 0.930 . S
H456 C418 0.929 . S
H457 C420 0.930 . S
H458 C426 0.929 . S
H459 C427 0.930 . S
Li460 N477 1.990 . S
Li460 O520 1.956 . S
Li460 O521 1.970 . S
Li460 O522 1.961 . S
Li461 N485 1.990 . S
Li461 O520 1.970 . S
Li461 O521 1.956 . S
Li461 O523 1.961 . S
Li462 N507 1.990 . S
Li462 O520 1.961 . S
Li462 O522 1.956 . S
Li462 O523 1.970 . S
Li463 N513 1.990 . S
Li463 O521 1.961 . S
Li463 O522 1.970 . S
Li463 O523 1.956 . S
C464 C466 1.348 . S
C464 C467 1.356 . S
C464 O520 1.325 . S
N465 C468 1.314 . S
N465 C469 1.279 . S
C466 C464 1.348 . S
C466 C468 1.353 . S
C466 H524 0.929 . S
C467 C464 1.356 . S
C467 C469 1.358 . S
C467 H525 0.930 . S
C468 N465 1.314 . S
C468 C466 1.353 . S
C468 H526 0.930 . S
C469 N465 1.279 . S
C469 C467 1.358 . S
C469 H527 0.930 . S
C470 C473 1.348 . S
C470 C474 1.356 . S
C470 O521 1.325 . S
C471 N472 1.279 . S
C471 C474 1.358 . S
C471 H528 0.930 . S
N472 C471 1.279 . S
N472 C475 1.314 . S
C473 C470 1.348 . S
C473 C475 1.353 . S
C473 H529 0.929 . S
C474 C470 1.356 . S
C474 C471 1.358 . S
C474 H530 0.930 . S
C475 N472 1.314 . S
C475 C473 1.353 . S
C475 H531 0.930 . S
C476 N477 1.314 . S
C476 C481 1.353 . S
C476 H482 0.930 . S
N477 Li460 1.990 . S
N477 C476 1.314 . S
N477 C479 1.279 . S
C478 C479 1.358 . S
C478 C480 1.356 . S
C478 H532 0.930 . S
C479 N477 1.279 . S
C479 C478 1.358 . S
C479 H483 0.930 . S
C480 C478 1.356 . S
C480 C481 1.348 . S
C481 C476 1.353 . S
C481 C480 1.348 . S
C481 H533 0.929 . S
H482 C476 0.930 . S
H483 C479 0.930 . S
C484 N485 1.314 . S
C484 C486 1.353 . S
C484 H490 0.930 . S
N485 Li461 1.990 . S
N485 C484 1.314 . S
N485 C488 1.279 . S
C486 C484 1.353 . S
C486 C489 1.348 . S
C486 H534 0.929 . S
C487 C488 1.358 . S
C487 C489 1.356 . S
C487 H535 0.930 . S
C488 N485 1.279 . S
C488 C487 1.358 . S
C488 H491 0.930 . S
C489 C486 1.348 . S
C489 C487 1.356 . S
H490 C484 0.930 . S
H491 C488 0.930 . S
C492 C494 1.348 . S
C492 C495 1.356 . S
C492 O522 1.325 . S
N493 C496 1.314 . S
N493 C497 1.279 . S
C494 C492 1.348 . S
C494 C496 1.353 . S
C494 H536 0.929 . S
C495 C492 1.356 . S
C495 C497 1.358 . S
C495 H537 0.930 . S
C496 N493 1.314 . S
C496 C494 1.353 . S
C496 H538 0.930 . S
C497 N493 1.279 . S
C497 C495 1.358 . S
C497 H539 0.930 . S
C498 C499 1.348 . S
C498 C500 1.356 . S
C498 O523 1.325 . S
C499 C498 1.348 . S
C499 C501 1.353 . S
C499 H540 0.929 . S
C500 C498 1.356 . S
C500 C502 1.358 . S
C500 H541 0.930 . S
C501 C499 1.353 . S
C501 N503 1.314 . S
C501 H542 0.930 . S
C502 C500 1.358 . S
C502 N503 1.279 . S
C502 H543 0.930 . S
N503 C501 1.314 . S
N503 C502 1.279 . S
C504 C506 1.353 . S
C504 N507 1.314 . S
C504 H510 0.930 . S
C505 N507 1.279 . S
C505 C508 1.358 . S
C505 H511 0.930 . S
C506 C504 1.353 . S
C506 C509 1.348 . S
C506 H544 0.929 . S
N507 Li462 1.990 . S
N507 C504 1.314 . S
N507 C505 1.279 . S
C508 C505 1.358 . S
C508 C509 1.356 . S
C508 H545 0.930 . S
C509 C506 1.348 . S
C509 C508 1.356 . S
H510 C504 0.930 . S
H511 C505 0.930 . S
C512 N513 1.314 . S
C512 C514 1.353 . S
C512 H518 0.930 . S
N513 Li463 1.990 . S
N513 C512 1.314 . S
N513 C516 1.279 . S
C514 C512 1.353 . S
C514 C517 1.348 . S
C514 H546 0.929 . S
C515 C516 1.358 . S
C515 C517 1.356 . S
C515 H547 0.930 . S
C516 N513 1.279 . S
C516 C515 1.358 . S
C516 H519 0.930 . S
C517 C514 1.348 . S
C517 C515 1.356 . S
H518 C512 0.930 . S
H519 C516 0.930 . S
O520 Li460 1.956 . S
O520 Li461 1.970 . S
O520 Li462 1.961 . S
O520 C464 1.325 . S
O521 Li460 1.970 . S
O521 Li461 1.956 . S
O521 Li463 1.961 . S
O521 C470 1.325 . S
O522 Li460 1.961 . S
O522 Li462 1.956 . S
O522 Li463 1.970 . S
O522 C492 1.325 . S
O523 Li461 1.961 . S
O523 Li462 1.970 . S
O523 Li463 1.956 . S
O523 C498 1.325 . S
H524 C466 0.929 . S
H525 C467 0.930 . S
H526 C468 0.930 . S
H527 C469 0.930 . S
H528 C471 0.930 . S
H529 C473 0.929 . S
H530 C474 0.930 . S
H531 C475 0.930 . S
H532 C478 0.930 . S
H533 C481 0.929 . S
H534 C486 0.929 . S
H535 C487 0.930 . S
H536 C494 0.929 . S
H537 C495 0.930 . S
H538 C496 0.930 . S
H539 C497 0.930 . S
H540 C499 0.929 . S
H541 C500 0.930 . S
H542 C501 0.930 . S
H543 C502 0.930 . S
H544 C506 0.929 . S
H545 C508 0.930 . S
H546 C514 0.929 . S
H547 C515 0.930 . S
Li548 N565 1.990 . S
Li548 O608 1.956 . S
Li548 O609 1.970 . S
Li548 O610 1.961 . S
Li549 N573 1.990 . S
Li549 O608 1.970 . S
Li549 O609 1.956 . S
Li549 O611 1.961 . S
Li550 N595 1.990 . S
Li550 O608 1.961 . S
Li550 O610 1.956 . S
Li550 O611 1.970 . S
Li551 N601 1.990 . S
Li551 O609 1.961 . S
Li551 O610 1.970 . S
Li551 O611 1.956 . S
C552 C554 1.348 . S
C552 C555 1.356 . S
C552 O608 1.325 . S
N553 C556 1.314 . S
N553 C557 1.279 . S
C554 C552 1.348 . S
C554 C556 1.353 . S
C554 H612 0.929 . S
C555 C552 1.356 . S
C555 C557 1.358 . S
C555 H613 0.930 . S
C556 N553 1.314 . S
C556 C554 1.353 . S
C556 H614 0.930 . S
C557 N553 1.279 . S
C557 C555 1.358 . S
C557 H615 0.930 . S
C558 C561 1.348 . S
C558 C562 1.356 . S
C558 O609 1.325 . S
C559 N560 1.279 . S
C559 C562 1.358 . S
C559 H616 0.930 . S
N560 C559 1.279 . S
N560 C563 1.314 . S
C561 C558 1.348 . S
C561 C563 1.353 . S
C561 H617 0.929 . S
C562 C558 1.356 . S
C562 C559 1.358 . S
C562 H618 0.930 . S
C563 N560 1.314 . S
C563 C561 1.353 . S
C563 H619 0.930 . S
C564 N565 1.314 . S
C564 C569 1.353 . S
C564 H570 0.930 . S
N565 Li548 1.990 . S
N565 C564 1.314 . S
N565 C567 1.279 . S
C566 C567 1.358 . S
C566 C568 1.356 . S
C566 H620 0.930 . S
C567 N565 1.279 . S
C567 C566 1.358 . S
C567 H571 0.930 . S
C568 C566 1.356 . S
C568 C569 1.348 . S
C569 C564 1.353 . S
C569 C568 1.348 . S
C569 H621 0.929 . S
H570 C564 0.930 . S
H571 C567 0.930 . S
C572 N573 1.314 . S
C572 C574 1.353 . S
C572 H578 0.930 . S
N573 Li549 1.990 . S
N573 C572 1.314 . S
N573 C576 1.279 . S
C574 C572 1.353 . S
C574 C577 1.348 . S
C574 H622 0.929 . S
C575 C576 1.358 . S
C575 C577 1.356 . S
C575 H623 0.930 . S
C576 N573 1.279 . S
C576 C575 1.358 . S
C576 H579 0.930 . S
C577 C574 1.348 . S
C577 C575 1.356 . S
H578 C572 0.930 . S
H579 C576 0.930 . S
C580 C582 1.348 . S
C580 C583 1.356 . S
C580 O610 1.325 . S
N581 C584 1.314 . S
N581 C585 1.279 . S
C582 C580 1.348 . S
C582 C584 1.353 . S
C582 H624 0.929 . S
C583 C580 1.356 . S
C583 C585 1.358 . S
C583 H625 0.930 . S
C584 N581 1.314 . S
C584 C582 1.353 . S
C584 H626 0.930 . S
C585 N581 1.279 . S
C585 C583 1.358 . S
C585 H627 0.930 . S
C586 C587 1.348 . S
C586 C588 1.356 . S
C586 O611 1.325 . S
C587 C586 1.348 . S
C587 C589 1.353 . S
C587 H628 0.929 . S
C588 C586 1.356 . S
C588 C590 1.358 . S
C588 H629 0.930 . S
C589 C587 1.353 . S
C589 N591 1.314 . S
C589 H630 0.930 . S
C590 C588 1.358 . S
C590 N591 1.279 . S
C590 H631 0.930 . S
N591 C589 1.314 . S
N591 C590 1.279 . S
C592 C594 1.353 . S
C592 N595 1.314 . S
C592 H598 0.930 . S
C593 N595 1.279 . S
C593 C596 1.358 . S
C593 H599 0.930 . S
C594 C592 1.353 . S
C594 C597 1.348 . S
C594 H632 0.929 . S
N595 Li550 1.990 . S
N595 C592 1.314 . S
N595 C593 1.279 . S
C596 C593 1.358 . S
C596 C597 1.356 . S
C596 H633 0.930 . S
C597 C594 1.348 . S
C597 C596 1.356 . S
H598 C592 0.930 . S
H599 C593 0.930 . S
C600 N601 1.314 . S
C600 C602 1.353 . S
C600 H606 0.930 . S
N601 Li551 1.990 . S
N601 C600 1.314 . S
N601 C604 1.279 . S
C602 C600 1.353 . S
C602 C605 1.348 . S
C602 H634 0.929 . S
C603 C604 1.358 . S
C603 C605 1.356 . S
C603 H635 0.930 . S
C604 N601 1.279 . S
C604 C603 1.358 . S
C604 H607 0.930 . S
C605 C602 1.348 . S
C605 C603 1.356 . S
H606 C600 0.930 . S
H607 C604 0.930 . S
O608 Li548 1.956 . S
O608 Li549 1.970 . S
O608 Li550 1.961 . S
O608 C552 1.325 . S
O609 Li548 1.970 . S
O609 Li549 1.956 . S
O609 Li551 1.961 . S
O609 C558 1.325 . S
O610 Li548 1.961 . S
O610 Li550 1.956 . S
O610 Li551 1.970 . S
O610 C580 1.325 . S
O611 Li549 1.961 . S
O611 Li550 1.970 . S
O611 Li551 1.956 . S
O611 C586 1.325 . S
H612 C554 0.929 . S
H613 C555 0.930 . S
H614 C556 0.930 . S
H615 C557 0.930 . S
H616 C559 0.930 . S
H617 C561 0.929 . S
H618 C562 0.930 . S
H619 C563 0.930 . S
H620 C566 0.930 . S
H621 C569 0.929 . S
H622 C574 0.929 . S
H623 C575 0.930 . S
H624 C582 0.929 . S
H625 C583 0.930 . S
H626 C584 0.930 . S
H627 C585 0.930 . S
H628 C587 0.929 . S
H629 C588 0.930 . S
H630 C589 0.930 . S
H631 C590 0.930 . S
H632 C594 0.929 . S
H633 C596 0.930 . S
H634 C602 0.929 . S
H635 C603 0.930 . S
Li636 N653 1.990 . S
Li636 O696 1.956 . S
Li636 O697 1.970 . S
Li636 O698 1.961 . S
Li637 N661 1.990 . S
Li637 O696 1.970 . S
Li637 O697 1.956 . S
Li637 O699 1.961 . S
Li638 N683 1.990 . S
Li638 O696 1.961 . S
Li638 O698 1.956 . S
Li638 O699 1.970 . S
Li639 N689 1.990 . S
Li639 O697 1.961 . S
Li639 O698 1.970 . S
Li639 O699 1.956 . S
C640 C642 1.348 . S
C640 C643 1.356 . S
C640 O696 1.325 . S
N641 C644 1.314 . S
N641 C645 1.279 . S
C642 C640 1.348 . S
C642 C644 1.353 1_556 S
C642 H700 0.929 . S
C643 C640 1.356 . S
C643 C645 1.358 1_556 S
C643 H701 0.930 . S
C644 N641 1.314 . S
C644 C642 1.353 1_554 S
C644 H702 0.930 . S
C645 N641 1.279 . S
C645 C643 1.358 1_554 S
C645 H703 0.930 . S
C646 C649 1.348 . S
C646 C650 1.356 . S
C646 O697 1.325 . S
C647 N648 1.279 . S
C647 C650 1.358 . S
C647 H704 0.930 . S
N648 C647 1.279 . S
N648 C651 1.314 . S
C649 C646 1.348 . S
C649 C651 1.353 . S
C649 H705 0.929 . S
C650 C646 1.356 . S
C650 C647 1.358 . S
C650 H706 0.930 . S
C651 N648 1.314 . S
C651 C649 1.353 . S
C651 H707 0.930 . S
C652 N653 1.314 . S
C652 C657 1.353 . S
C652 H658 0.930 . S
N653 Li636 1.990 . S
N653 C652 1.314 . S
N653 C655 1.279 1_556 S
C654 C655 1.358 . S
C654 C656 1.356 . S
C654 H708 0.930 . S
C655 N653 1.279 1_554 S
C655 C654 1.358 . S
C655 H659 0.930 . S
C656 C654 1.356 . S
C656 C657 1.348 1_554 S
C657 C652 1.353 . S
C657 C656 1.348 1_556 S
C657 H709 0.929 . S
H658 C652 0.930 . S
H659 C655 0.930 . S
C660 N661 1.314 . S
C660 C662 1.353 . S
C660 H666 0.930 . S
N661 Li637 1.990 . S
N661 C660 1.314 . S
N661 C664 1.279 . S
C662 C660 1.353 . S
C662 C665 1.348 . S
C662 H710 0.929 . S
C663 C664 1.358 . S
C663 C665 1.356 . S
C663 H711 0.930 . S
C664 N661 1.279 . S
C664 C663 1.358 . S
C664 H667 0.930 . S
C665 C662 1.348 . S
C665 C663 1.356 . S
H666 C660 0.930 . S
H667 C664 0.930 . S
C668 C670 1.348 . S
C668 C671 1.356 . S
C668 O698 1.325 . S
N669 C672 1.314 . S
N669 C673 1.279 . S
C670 C668 1.348 . S
C670 C672 1.353 . S
C670 H712 0.929 . S
C671 C668 1.356 . S
C671 C673 1.358 . S
C671 H713 0.930 . S
C672 N669 1.314 . S
C672 C670 1.353 . S
C672 H714 0.930 . S
C673 N669 1.279 . S
C673 C671 1.358 . S
C673 H715 0.930 . S
C674 C675 1.348 . S
C674 C676 1.356 . S
C674 O699 1.325 . S
C675 C674 1.348 . S
C675 C677 1.353 . S
C675 H716 0.929 . S
C676 C674 1.356 . S
C676 C678 1.358 . S
C676 H717 0.930 . S
C677 C675 1.353 . S
C677 N679 1.314 . S
C677 H718 0.930 . S
C678 C676 1.358 . S
C678 N679 1.279 . S
C678 H719 0.930 . S
N679 C677 1.314 . S
N679 C678 1.279 . S
C680 C682 1.353 . S
C680 N683 1.314 . S
C680 H686 0.930 . S
C681 N683 1.279 . S
C681 C684 1.358 . S
C681 H687 0.930 . S
C682 C680 1.353 . S
C682 C685 1.348 . S
C682 H720 0.929 . S
N683 Li638 1.990 . S
N683 C680 1.314 . S
N683 C681 1.279 . S
C684 C681 1.358 . S
C684 C685 1.356 . S
C684 H721 0.930 . S
C685 C682 1.348 . S
C685 C684 1.356 . S
H686 C680 0.930 . S
H687 C681 0.930 . S
C688 N689 1.314 . S
C688 C690 1.353 . S
C688 H694 0.930 . S
N689 Li639 1.990 . S
N689 C688 1.314 . S
N689 C692 1.279 . S
C690 C688 1.353 . S
C690 C693 1.348 . S
C690 H722 0.929 . S
C691 C692 1.358 . S
C691 C693 1.356 . S
C691 H723 0.930 . S
C692 N689 1.279 . S
C692 C691 1.358 . S
C692 H695 0.930 . S
C693 C690 1.348 . S
C693 C691 1.356 . S
H694 C688 0.930 . S
H695 C692 0.930 . S
O696 Li636 1.956 . S
O696 Li637 1.970 . S
O696 Li638 1.961 . S
O696 C640 1.325 . S
O697 Li636 1.970 . S
O697 Li637 1.956 . S
O697 Li639 1.961 . S
O697 C646 1.325 . S
O698 Li636 1.961 . S
O698 Li638 1.956 . S
O698 Li639 1.970 . S
O698 C668 1.325 . S
O699 Li637 1.961 . S
O699 Li638 1.970 . S
O699 Li639 1.956 . S
O699 C674 1.325 . S
H700 C642 0.929 . S
H701 C643 0.930 . S
H702 C644 0.930 . S
H703 C645 0.930 . S
H704 C647 0.930 . S
H705 C649 0.929 . S
H706 C650 0.930 . S
H707 C651 0.930 . S
H708 C654 0.930 . S
H709 C657 0.929 . S
H710 C662 0.929 . S
H711 C663 0.930 . S
H712 C670 0.929 . S
H713 C671 0.930 . S
H714 C672 0.930 . S
H715 C673 0.930 . S
H716 C675 0.929 . S
H717 C676 0.930 . S
H718 C677 0.930 . S
H719 C678 0.930 . S
H720 C682 0.929 . S
H721 C684 0.930 . S
H722 C690 0.929 . S
H723 C691 0.930 . S
Li724 N741 1.990 . S
Li724 O784 1.956 . S
Li724 O785 1.970 . S
Li724 O786 1.961 . S
Li725 N749 1.990 . S
Li725 O784 1.970 . S
Li725 O785 1.956 . S
Li725 O787 1.961 . S
Li726 N771 1.990 . S
Li726 O784 1.961 . S
Li726 O786 1.956 . S
Li726 O787 1.970 . S
Li727 N777 1.990 . S
Li727 O785 1.961 . S
Li727 O786 1.970 . S
Li727 O787 1.956 . S
C728 C730 1.348 . S
C728 C731 1.356 . S
C728 O784 1.325 . S
N729 C732 1.314 . S
N729 C733 1.279 . S
C730 C728 1.348 . S
C730 C732 1.353 . S
C730 H788 0.929 . S
C731 C728 1.356 . S
C731 C733 1.358 . S
C731 H789 0.930 . S
C732 N729 1.314 . S
C732 C730 1.353 . S
C732 H790 0.930 . S
C733 N729 1.279 . S
C733 C731 1.358 . S
C733 H791 0.930 . S
C734 C737 1.348 . S
C734 C738 1.356 . S
C734 O785 1.325 . S
C735 N736 1.279 . S
C735 C738 1.358 . S
C735 H792 0.930 . S
N736 C735 1.279 . S
N736 C739 1.314 . S
C737 C734 1.348 . S
C737 C739 1.353 . S
C737 H793 0.929 . S
C738 C734 1.356 . S
C738 C735 1.358 . S
C738 H794 0.930 . S
C739 N736 1.314 . S
C739 C737 1.353 . S
C739 H795 0.930 . S
C740 N741 1.314 . S
C740 C745 1.353 . S
C740 H746 0.930 . S
N741 Li724 1.990 . S
N741 C740 1.314 . S
N741 C743 1.279 . S
C742 C743 1.358 . S
C742 C744 1.356 . S
C742 H796 0.930 . S
C743 N741 1.279 . S
C743 C742 1.358 . S
C743 H747 0.930 . S
C744 C742 1.356 . S
C744 C745 1.348 . S
C745 C740 1.353 . S
C745 C744 1.348 . S
C745 H797 0.929 . S
H746 C740 0.930 . S
H747 C743 0.930 . S
C748 N749 1.314 . S
C748 C750 1.353 . S
C748 H754 0.930 . S
N749 Li725 1.990 . S
N749 C748 1.314 . S
N749 C752 1.279 . S
C750 C748 1.353 . S
C750 C753 1.348 . S
C750 H798 0.929 . S
C751 C752 1.358 . S
C751 C753 1.356 . S
C751 H799 0.930 . S
C752 N749 1.279 . S
C752 C751 1.358 . S
C752 H755 0.930 . S
C753 C750 1.348 . S
C753 C751 1.356 . S
H754 C748 0.930 . S
H755 C752 0.930 . S
C756 C758 1.348 . S
C756 C759 1.356 . S
C756 O786 1.325 . S
N757 C760 1.314 . S
N757 C761 1.279 . S
C758 C756 1.348 . S
C758 C760 1.353 1_554 S
C758 H800 0.929 . S
C759 C756 1.356 . S
C759 C761 1.358 1_554 S
C759 H801 0.930 . S
C760 N757 1.314 . S
C760 C758 1.353 1_556 S
C760 H802 0.930 . S
C761 N757 1.279 . S
C761 C759 1.358 1_556 S
C761 H803 0.930 . S
C762 C763 1.348 . S
C762 C764 1.356 . S
C762 O787 1.325 . S
C763 C762 1.348 . S
C763 C765 1.353 . S
C763 H804 0.929 . S
C764 C762 1.356 . S
C764 C766 1.358 . S
C764 H805 0.930 . S
C765 C763 1.353 . S
C765 N767 1.314 . S
C765 H806 0.930 . S
C766 C764 1.358 . S
C766 N767 1.279 . S
C766 H807 0.930 . S
N767 C765 1.314 . S
N767 C766 1.279 . S
C768 C770 1.353 1_554 S
C768 N771 1.314 . S
C768 H774 0.930 . S
C769 N771 1.279 1_556 S
C769 C772 1.358 . S
C769 H775 0.930 . S
C770 C768 1.353 1_556 S
C770 C773 1.348 . S
C770 H808 0.929 . S
N771 Li726 1.990 . S
N771 C768 1.314 . S
N771 C769 1.279 1_554 S
C772 C769 1.358 . S
C772 C773 1.356 . S
C772 H809 0.930 . S
C773 C770 1.348 . S
C773 C772 1.356 . S
H774 C768 0.930 . S
H775 C769 0.930 . S
C776 N777 1.314 . S
C776 C778 1.353 . S
C776 H782 0.930 . S
N777 Li727 1.990 . S
N777 C776 1.314 . S
N777 C780 1.279 . S
C778 C776 1.353 . S
C778 C781 1.348 . S
C778 H810 0.929 . S
C779 C780 1.358 . S
C779 C781 1.356 . S
C779 H811 0.930 . S
C780 N777 1.279 . S
C780 C779 1.358 . S
C780 H783 0.930 . S
C781 C778 1.348 . S
C781 C779 1.356 . S
H782 C776 0.930 . S
H783 C780 0.930 . S
O784 Li724 1.956 . S
O784 Li725 1.970 . S
O784 Li726 1.961 . S
O784 C728 1.325 . S
O785 Li724 1.970 . S
O785 Li725 1.956 . S
O785 Li727 1.961 . S
O785 C734 1.325 . S
O786 Li724 1.961 . S
O786 Li726 1.956 . S
O786 Li727 1.970 . S
O786 C756 1.325 . S
O787 Li725 1.961 . S
O787 Li726 1.970 . S
O787 Li727 1.956 . S
O787 C762 1.325 . S
H788 C730 0.929 . S
H789 C731 0.930 . S
H790 C732 0.930 . S
H791 C733 0.930 . S
H792 C735 0.930 . S
H793 C737 0.929 . S
H794 C738 0.930 . S
H795 C739 0.930 . S
H796 C742 0.930 . S
H797 C745 0.929 . S
H798 C750 0.929 . S
H799 C751 0.930 . S
H800 C758 0.929 . S
H801 C759 0.930 . S
H802 C760 0.930 . S
H803 C761 0.930 . S
H804 C763 0.929 . S
H805 C764 0.930 . S
H806 C765 0.930 . S
H807 C766 0.930 . S
H808 C770 0.929 . S
H809 C772 0.930 . S
H810 C778 0.929 . S
H811 C779 0.930 . S
Li812 N829 1.990 . S
Li812 O872 1.956 . S
Li812 O873 1.970 . S
Li812 O874 1.961 . S
Li813 N837 1.990 . S
Li813 O872 1.970 . S
Li813 O873 1.956 . S
Li813 O875 1.961 . S
Li814 N859 1.990 . S
Li814 O872 1.961 . S
Li814 O874 1.956 . S
Li814 O875 1.970 . S
Li815 N865 1.990 . S
Li815 O873 1.961 . S
Li815 O874 1.970 . S
Li815 O875 1.956 . S
C816 C818 1.348 . S
C816 C819 1.356 . S
C816 O872 1.325 . S
N817 C820 1.314 . S
N817 C821 1.279 . S
C818 C816 1.348 . S
C818 C820 1.353 . S
C818 H876 0.929 . S
C819 C816 1.356 . S
C819 C821 1.358 . S
C819 H877 0.930 . S
C820 N817 1.314 . S
C820 C818 1.353 . S
C820 H878 0.930 . S
C821 N817 1.279 . S
C821 C819 1.358 . S
C821 H879 0.930 . S
C822 C825 1.348 . S
C822 C826 1.356 . S
C822 O873 1.325 . S
C823 N824 1.279 . S
C823 C826 1.358 . S
C823 H880 0.930 . S
N824 C823 1.279 . S
N824 C827 1.314 . S
C825 C822 1.348 . S
C825 C827 1.353 . S
C825 H881 0.929 . S
C826 C822 1.356 . S
C826 C823 1.358 . S
C826 H882 0.930 . S
C827 N824 1.314 . S
C827 C825 1.353 . S
C827 H883 0.930 . S
C828 N829 1.314 . S
C828 C833 1.353 . S
C828 H834 0.930 . S
N829 Li812 1.990 . S
N829 C828 1.314 . S
N829 C831 1.279 . S
C830 C831 1.358 . S
C830 C832 1.356 . S
C830 H884 0.930 . S
C831 N829 1.279 . S
C831 C830 1.358 . S
C831 H835 0.930 . S
C832 C830 1.356 . S
C832 C833 1.348 . S
C833 C828 1.353 . S
C833 C832 1.348 . S
C833 H885 0.929 . S
H834 C828 0.930 . S
H835 C831 0.930 . S
C836 N837 1.314 . S
C836 C838 1.353 . S
C836 H842 0.930 . S
N837 Li813 1.990 . S
N837 C836 1.314 . S
N837 C840 1.279 . S
C838 C836 1.353 . S
C838 C841 1.348 . S
C838 H886 0.929 . S
C839 C840 1.358 . S
C839 C841 1.356 . S
C839 H887 0.930 . S
C840 N837 1.279 . S
C840 C839 1.358 . S
C840 H843 0.930 . S
C841 C838 1.348 . S
C841 C839 1.356 . S
H842 C836 0.930 . S
H843 C840 0.930 . S
C844 C846 1.348 . S
C844 C847 1.356 . S
C844 O874 1.325 . S
N845 C848 1.314 . S
N845 C849 1.279 . S
C846 C844 1.348 . S
C846 C848 1.353 . S
C846 H888 0.929 . S
C847 C844 1.356 . S
C847 C849 1.358 . S
C847 H889 0.930 . S
C848 N845 1.314 . S
C848 C846 1.353 . S
C848 H890 0.930 . S
C849 N845 1.279 . S
C849 C847 1.358 . S
C849 H891 0.930 . S
C850 C851 1.348 . S
C850 C852 1.356 . S
C850 O875 1.325 . S
C851 C850 1.348 . S
C851 C853 1.353 . S
C851 H892 0.929 . S
C852 C850 1.356 . S
C852 C854 1.358 . S
C852 H893 0.930 . S
C853 C851 1.353 . S
C853 N855 1.314 . S
C853 H894 0.930 . S
C854 C852 1.358 . S
C854 N855 1.279 . S
C854 H895 0.930 . S
N855 C853 1.314 . S
N855 C854 1.279 . S
C856 C858 1.353 . S
C856 N859 1.314 . S
C856 H862 0.930 . S
C857 N859 1.279 . S
C857 C860 1.358 . S
C857 H863 0.930 . S
C858 C856 1.353 . S
C858 C861 1.348 . S
C858 H896 0.929 . S
N859 Li814 1.990 . S
N859 C856 1.314 . S
N859 C857 1.279 . S
C860 C857 1.358 . S
C860 C861 1.356 . S
C860 H897 0.930 . S
C861 C858 1.348 . S
C861 C860 1.356 . S
H862 C856 0.930 . S
H863 C857 0.930 . S
C864 N865 1.314 . S
C864 C866 1.353 . S
C864 H870 0.930 . S
N865 Li815 1.990 . S
N865 C864 1.314 . S
N865 C868 1.279 . S
C866 C864 1.353 . S
C866 C869 1.348 . S
C866 H898 0.929 . S
C867 C868 1.358 . S
C867 C869 1.356 . S
C867 H899 0.930 . S
C868 N865 1.279 . S
C868 C867 1.358 . S
C868 H871 0.930 . S
C869 C866 1.348 . S
C869 C867 1.356 . S
H870 C864 0.930 . S
H871 C868 0.930 . S
O872 Li812 1.956 . S
O872 Li813 1.970 . S
O872 Li814 1.961 . S
O872 C816 1.325 . S
O873 Li812 1.970 . S
O873 Li813 1.956 . S
O873 Li815 1.961 . S
O873 C822 1.325 . S
O874 Li812 1.961 . S
O874 Li814 1.956 . S
O874 Li815 1.970 . S
O874 C844 1.325 . S
O875 Li813 1.961 . S
O875 Li814 1.970 . S
O875 Li815 1.956 . S
O875 C850 1.325 . S
H876 C818 0.929 . S
H877 C819 0.930 . S
H878 C820 0.930 . S
H879 C821 0.930 . S
H880 C823 0.930 . S
H881 C825 0.929 . S
H882 C826 0.930 . S
H883 C827 0.930 . S
H884 C830 0.930 . S
H885 C833 0.929 . S
H886 C838 0.929 . S
H887 C839 0.930 . S
H888 C846 0.929 . S
H889 C847 0.930 . S
H890 C848 0.930 . S
H891 C849 0.930 . S
H892 C851 0.929 . S
H893 C852 0.930 . S
H894 C853 0.930 . S
H895 C854 0.930 . S
H896 C858 0.929 . S
H897 C860 0.930 . S
H898 C866 0.929 . S
H899 C867 0.930 . S
C841 C29 2.976 . S
C115 C401 2.987 . S
C153 C489 2.642 . S
C239 C568 3.131 . S
C665 C301 2.826 . S
C339 C744 3.098 . S
C91 C509 2.643 . S
C177 C605 2.986 . S
C215 C685 2.976 . S
C781 C277 3.099 . S
C861 C363 2.826 . S
C421 C53 3.131 . S
C35 C517 1.722 . S
C109 C597 1.419 . S
C693 C159 1.437 . S
C233 C773 1.891 . S
C869 C295 1.718 . S
C429 C345 1.479 . S
C832 C97 1.437 . S
C171 C392 1.419 . S
C480 C221 1.723 . S
C283 C577 1.478 . S
C357 C656 1.719 . S
C47 C753 1.892 . S
