# Generated by pormake.
# Topology pyr, (3,6)-cn, num edge types: 1
# Building blocks:
#     Node 0, Type 0, BuildingBlock: BETDAH_clean_linker_0, # of connection points: 3
#     Node 1, Type 0, BuildingBlock: BETDAH_clean_linker_0, # of connection points: 3
#     Node 2, Type 0, BuildingBlock: BETDAH_clean_linker_0, # of connection points: 3
#     Node 3, Type 0, BuildingBlock: BETDAH_clean_linker_0, # of connection points: 3
#     Node 4, Type 0, BuildingBlock: BETDAH_clean_linker_0, # of connection points: 3
#     Node 5, Type 0, BuildingBlock: BETDAH_clean_linker_0, # of connection points: 3
#     Node 6, Type 0, BuildingBlock: BETDAH_clean_linker_0, # of connection points: 3
#     Node 7, Type 0, BuildingBlock: BETDAH_clean_linker_0, # of connection points: 3
#     Node 8, Type 1, BuildingBlock: FUNLAD_clean_sbu_0, # of connection points: 6
#     Node 9, Type 1, BuildingBlock: FUNLAD_clean_sbu_0, # of connection points: 6
#     Node 10, Type 1, BuildingBlock: FUNLAD_clean_sbu_0, # of connection points: 6
#     Node 11, Type 1, BuildingBlock: FUNLAD_clean_sbu_0, # of connection points: 6
#     Edge 12, Type (0, 1), BuildingBlock: ZUJKAS_clean_linker_0, # of connection points: 2
#     Edge 13, Type (0, 1), BuildingBlock: ZUJKAS_clean_linker_0, # of connection points: 2
#     Edge 14, Type (0, 1), BuildingBlock: ZUJKAS_clean_linker_0, # of connection points: 2
#     Edge 15, Type (0, 1), BuildingBlock: ZUJKAS_clean_linker_0, # of connection points: 2
#     Edge 16, Type (0, 1), BuildingBlock: ZUJKAS_clean_linker_0, # of connection points: 2
#     Edge 17, Type (0, 1), BuildingBlock: ZUJKAS_clean_linker_0, # of connection points: 2
#     Edge 18, Type (0, 1), BuildingBlock: ZUJKAS_clean_linker_0, # of connection points: 2
#     Edge 19, Type (0, 1), BuildingBlock: ZUJKAS_clean_linker_0, # of connection points: 2
#     Edge 20, Type (0, 1), BuildingBlock: ZUJKAS_clean_linker_0, # of connection points: 2
#     Edge 21, Type (0, 1), BuildingBlock: ZUJKAS_clean_linker_0, # of connection points: 2
#     Edge 22, Type (0, 1), BuildingBlock: ZUJKAS_clean_linker_0, # of connection points: 2
#     Edge 23, Type (0, 1), BuildingBlock: ZUJKAS_clean_linker_0, # of connection points: 2
#     Edge 24, Type (0, 1), BuildingBlock: ZUJKAS_clean_linker_0, # of connection points: 2
#     Edge 25, Type (0, 1), BuildingBlock: ZUJKAS_clean_linker_0, # of connection points: 2
#     Edge 26, Type (0, 1), BuildingBlock: ZUJKAS_clean_linker_0, # of connection points: 2
#     Edge 27, Type (0, 1), BuildingBlock: ZUJKAS_clean_linker_0, # of connection points: 2
#     Edge 28, Type (0, 1), BuildingBlock: ZUJKAS_clean_linker_0, # of connection points: 2
#     Edge 29, Type (0, 1), BuildingBlock: ZUJKAS_clean_linker_0, # of connection points: 2
#     Edge 30, Type (0, 1), BuildingBlock: ZUJKAS_clean_linker_0, # of connection points: 2
#     Edge 31, Type (0, 1), BuildingBlock: ZUJKAS_clean_linker_0, # of connection points: 2
#     Edge 32, Type (0, 1), BuildingBlock: ZUJKAS_clean_linker_0, # of connection points: 2
#     Edge 33, Type (0, 1), BuildingBlock: ZUJKAS_clean_linker_0, # of connection points: 2
#     Edge 34, Type (0, 1), BuildingBlock: ZUJKAS_clean_linker_0, # of connection points: 2
#     Edge 35, Type (0, 1), BuildingBlock: ZUJKAS_clean_linker_0, # of connection points: 2
# Relax obj value: 0.157
# Max RMSD: 0.202
# Mean RMSD: 0.129
data_MOF--net-pry--node1-FUNLAD_clean_sbu_0--node2-BETDAH_clean_linker_0--edge1-ZUJKAS_clean_linker_0
_symmetry_space_group_name_H-M    P1
_symmetry_Int_Tables_number       1
_symmetry_cell_setting            triclinic
loop_
_symmetry_equiv_pos_as_xyz
'x, y, z'
_cell_length_a     44.612562
_cell_length_b     47.627521
_cell_length_c     50.078542
_cell_angle_alpha  90.006913
_cell_angle_beta   90.574301
_cell_angle_gamma 89.762159
loop_
_atom_site_label
_atom_site_type_symbol
_atom_site_fract_x
_atom_site_fract_y
_atom_site_fract_z
_atom_type_partial_charge
H0 H 0.19783 0.17067 0.22724 0.0
H1 H 0.18464 0.23312 0.16543 0.0
H2 H 0.12216 0.22657 0.22965 0.0
C3 C 0.18508 0.18786 0.2186 0.0
C4 C 0.15877 0.19685 0.23139 0.0
C5 C 0.19474 0.20048 0.19457 0.0
C6 C 0.178 0.22336 0.18396 0.0
C7 C 0.15174 0.23267 0.19673 0.0
C8 C 0.14239 0.21918 0.22007 0.0
N9 N 0.13286 0.25444 0.18649 0.0
C10 C 0.13941 0.27486 0.16746 0.0
H11 H 0.42229 0.87331 0.75393 0.0
H12 H 0.35948 0.94166 0.7594 0.0
H13 H 0.35879 0.88947 0.68975 0.0
C14 C 0.40423 0.88563 0.74519 0.0
C15 C 0.39205 0.87818 0.7199 0.0
C16 C 0.39231 0.90831 0.75978 0.0
C17 C 0.36856 0.92384 0.74863 0.0
C18 C 0.3564 0.91724 0.72364 0.0
C19 C 0.36806 0.89437 0.70926 0.0
N20 N 0.33264 0.93458 0.71402 0.0
C21 C 0.31625 0.93153 0.69042 0.0
H22 H 0.65247 0.44938 1.01581 0.0
H23 H 0.64283 0.53755 0.99724 0.0
H24 H 0.56924 0.48166 0.9846 0.0
C25 C 0.63913 0.46708 1.009 0.0
C26 C 0.6095 0.46241 1.00044 0.0
C27 C 0.65198 0.49401 1.00749 0.0
C28 C 0.63369 0.51665 0.99926 0.0
C29 C 0.60399 0.51226 0.99119 0.0
C30 C 0.59207 0.48509 0.99141 0.0
N31 N 0.58706 0.53512 0.981 0.0
C32 C 0.57247 0.53288 0.95653 0.0
H33 H 0.88871 0.67296 0.48443 0.0
H34 H 0.95241 0.63804 0.42969 0.0
H35 H 0.88328 0.58592 0.46182 0.0
C36 C 0.89743 0.65512 0.4735 0.0
C37 C 0.88295 0.62908 0.47536 0.0
C38 C 0.92248 0.6586 0.45707 0.0
C39 C 0.93306 0.63559 0.44236 0.0
C40 C 0.91902 0.60931 0.44428 0.0
C41 C 0.89444 0.60607 0.46111 0.0
N42 N 0.92847 0.58615 0.42865 0.0
C43 C 0.94138 0.58974 0.40379 0.0
H44 H 0.92694 0.87791 0.82617 0.0
H45 H 0.86113 0.89279 0.88765 0.0
H46 H 0.8698 0.95072 0.82285 0.0
C47 C 0.90884 0.89025 0.83446 0.0
C48 C 0.89993 0.91522 0.82138 0.0
C49 C 0.89541 0.88195 0.85881 0.0
C50 C 0.87211 0.89884 0.86937 0.0
C51 C 0.8631 0.92369 0.85633 0.0
C52 C 0.87716 0.93159 0.83271 0.0
N53 N 0.84061 0.94211 0.86625 0.0
C54 C 0.82043 0.93724 0.88676 0.0
H55 H 0.70319 0.17794 0.34738 0.0
H56 H 0.68686 0.24151 0.40702 0.0
H57 H 0.63034 0.23644 0.33719 0.0
C58 C 0.69017 0.19564 0.35453 0.0
C59 C 0.66575 0.20552 0.33921 0.0
C60 C 0.69806 0.20848 0.37898 0.0
C61 C 0.68093 0.23146 0.38831 0.0
C62 C 0.65663 0.24172 0.3729 0.0
C63 C 0.64937 0.22863 0.34863 0.0
N64 N 0.63868 0.26514 0.38042 0.0
C65 C 0.64066 0.28144 0.40347 0.0
H66 H 0.39764 0.67644 0.08559 0.0
H67 H 0.38503 0.59167 0.11376 0.0
H68 H 0.45541 0.64238 0.14648 0.0
C69 C 0.40382 0.65903 0.09843 0.0
C70 C 0.42785 0.66247 0.11643 0.0
C71 C 0.38745 0.63385 0.09741 0.0
C72 C 0.39733 0.6112 0.11339 0.0
C73 C 0.42186 0.61405 0.13081 0.0
C74 C 0.437 0.6398 0.13242 0.0
N75 N 0.4298 0.59112 0.14752 0.0
C76 C 0.44164 0.59489 0.173 0.0
H77 H 0.15656 0.448 0.57373 0.0
H78 H 0.14166 0.53715 0.58028 0.0
H79 H 0.06944 0.48016 0.59412 0.0
C80 C 0.14177 0.46559 0.57766 0.0
C81 C 0.11161 0.46062 0.58388 0.0
C82 C 0.15305 0.49308 0.57647 0.0
C83 C 0.13337 0.51579 0.58042 0.0
C84 C 0.10338 0.51112 0.58684 0.0
C85 C 0.09256 0.48358 0.58858 0.0
N86 N 0.08499 0.53419 0.5938 0.0
C87 C 0.0704 0.53421 0.61811 0.0
C88 C 0.03923 0.07913 0.47551 0.0
N89 N 0.02683 0.11608 0.5509 0.0
C90 C 0.05396 0.12838 0.54739 0.0
C91 C 0.05913 0.15554 0.55674 0.0
C92 C 0.03612 0.1702 0.56976 0.0
C93 C 1.00875 0.15654 0.57406 0.0
C94 C 1.00457 0.12932 0.56443 0.0
Zn95 Zn 0.01831 0.0786 0.53283 0.0
C96 C 0.95813 0.08 0.50481 0.0
N97 N 0.99981 1.00135 0.49372 0.0
C98 C 0.02159 0.98873 0.47908 0.0
C99 C 0.97328 0.98838 0.49842 0.0
C100 C 0.96841 0.9611 0.48933 0.0
C101 C 0.991 0.94711 0.47518 0.0
C102 C 0.01757 0.96148 0.46945 0.0
Zn103 Zn 1.00825 0.03879 0.51179 0.0
O104 O 0.03869 0.09374 0.49679 0.0
C105 C 0.06829 0.03766 0.53985 0.0
O106 O 0.0277 0.05474 0.47578 0.0
H107 H 0.95627 0.99885 0.51005 0.0
H108 H 0.07127 0.11751 0.53646 0.0
H109 H 0.04256 0.99941 0.47571 0.0
O110 O 0.06028 0.06236 0.54638 0.0
O111 O 0.05105 0.0232 0.52491 0.0
H112 H 0.98319 0.11909 0.56701 0.0
O113 O 0.98944 0.02307 0.54814 0.0
O114 O 0.99826 0.06272 0.56884 0.0
O115 O 0.96531 0.05484 0.49904 0.0
O116 O 0.97614 0.09461 0.51885 0.0
C117 C 0.98851 0.03763 0.56942 0.0
H118 H 0.08044 0.16539 0.55269 0.0
H119 H 0.99055 0.16699 0.58426 0.0
H120 H 0.94746 0.9508 0.49387 0.0
H121 H 0.0356 0.9513 0.45878 0.0
C122 C 0.56905 0.0403 0.03358 0.0
N123 N 0.52482 0.11789 0.02353 0.0
C124 C 0.55263 0.12949 0.02426 0.0
C125 C 0.55715 0.15658 1.01459 0.0
C126 C 0.53272 0.17202 1.0045 0.0
C127 C 0.50443 0.15931 1.00323 0.0
C128 C 0.50101 0.13194 1.0127 0.0
Zn129 Zn 0.51843 0.08031 0.04212 0.0
C130 C 0.48745 0.03837 1.00718 0.0
N131 N 0.50523 1.00301 0.08271 0.0
C132 C 0.52867 0.99206 0.0969 0.0
C133 C 0.4793 0.98849 0.07932 0.0
C134 C 0.47666 0.96136 0.08955 0.0
C135 C 0.50091 0.94912 0.10349 0.0
C136 C 0.52694 0.96509 0.10759 0.0
Zn137 Zn 0.51083 0.04046 0.06385 0.0
O138 O 0.56009 0.0648 0.02717 0.0
C139 C 0.54293 0.08189 0.09846 0.0
O140 O 0.55309 0.02571 0.0492 0.0
H141 H 0.461 0.99759 0.06789 0.0
H142 H 0.57117 0.11812 0.03327 0.0
H143 H 0.54912 1.00394 0.09929 0.0
O144 O 0.54046 0.09645 0.07724 0.0
O145 O 0.53232 0.05716 0.09863 0.0
H146 H 0.47911 0.12229 1.01222 0.0
O147 O 0.46837 0.05563 0.07831 0.0
O148 O 0.47646 0.09522 0.05737 0.0
O149 O 0.48983 0.02404 0.02855 0.0
O150 O 0.49679 0.0636 1.00715 0.0
C151 C 0.4599 0.08045 0.07235 0.0
H152 H 0.57923 0.16585 1.01621 0.0
H153 H 0.48511 0.17063 0.99548 0.0
H154 H 0.45629 0.94973 0.08558 0.0
H155 H 0.546 0.95666 0.11853 0.0
C156 C 0.5427 0.52752 0.54383 0.0
N157 N 0.53593 0.55813 0.62229 0.0
C158 C 0.52477 0.53319 0.63084 0.0
C159 C 0.5264 0.52599 0.65785 0.0
C160 C 0.53956 0.54471 0.67615 0.0
C161 C 0.55202 0.56973 0.66653 0.0
C162 C 0.54991 0.57607 0.63942 0.0
Zn163 Zn 0.52845 0.57099 0.58403 0.0
C164 C 0.58224 0.59769 0.5602 0.0
N165 N 0.51108 0.60009 0.5049 0.0
C166 C 0.49552 0.58177 0.48926 0.0
C167 C 0.52157 0.62469 0.49487 0.0
C168 C 0.51679 0.63143 0.46793 0.0
C169 C 0.50084 0.61276 0.45141 0.0
C170 C 0.49006 0.58774 0.46247 0.0
Zn171 Zn 0.51933 0.58777 0.54337 0.0
O172 O 0.54281 0.53122 0.56899 0.0
C173 C 0.46562 0.56059 0.56658 0.0
O174 O 0.53369 0.54742 0.52876 0.0
H175 H 0.53399 0.63889 0.50765 0.0
H176 H 0.51367 0.5193 0.61685 0.0
H177 H 0.48773 0.56214 0.49744 0.0
O178 O 0.48343 0.55648 0.58616 0.0
O179 O 0.475 0.57331 0.54608 0.0
H180 H 0.55861 0.59578 0.63219 0.0
O181 O 0.50511 0.62792 0.55871 0.0
O182 O 0.51414 0.61096 0.59869 0.0
O183 O 0.56388 0.60189 0.54104 0.0
O184 O 0.57328 0.58547 0.58122 0.0
C185 C 0.50531 0.63119 0.58397 0.0
H186 H 0.51637 0.50657 0.66447 0.0
H187 H 0.56283 0.58451 0.67991 0.0
H188 H 0.52543 0.65097 0.46012 0.0
H189 H 0.47822 0.57247 0.45034 0.0
C190 C 1.00383 0.6303 0.99349 0.0
N191 N 1.0115 0.59663 0.07215 0.0
C192 C 0.02112 0.62123 0.08305 0.0
C193 C 0.01804 0.62614 0.11049 0.0
C194 C 1.00519 0.60538 0.12665 0.0
C195 C 0.99456 0.58073 0.11461 0.0
C196 C 0.99798 0.57676 0.08732 0.0
Zn197 Zn 0.01932 0.58582 0.03333 0.0
C198 C 0.96598 0.55818 1.0091 0.0
N199 N 0.0355 0.55895 0.95367 0.0
C200 C 0.04949 0.57757 0.93747 0.0
C201 C 0.02434 0.53439 0.94398 0.0
C202 C 0.02599 0.52831 0.91674 0.0
C203 C 0.03921 0.54774 0.89939 0.0
C204 C 0.05167 0.57233 0.91019 0.0
Zn205 Zn 0.02807 0.57041 0.99223 0.0
O206 O 1.00361 0.62632 0.01869 0.0
C207 C 0.08162 0.59726 1.0175 0.0
O208 O 0.01318 0.61062 0.97851 0.0
H209 H 0.01322 0.51995 0.95724 0.0
H210 H 0.03192 0.63669 0.07063 0.0
H211 H 0.05817 0.59698 0.94558 0.0
O212 O 0.06326 0.60079 0.03643 0.0
O213 O 0.07293 0.58547 0.99601 0.0
H214 H 0.9905 0.55732 0.07837 0.0
O215 O 0.04299 0.52994 1.0065 0.0
O216 O 0.03536 0.54565 0.04697 0.0
O217 O 0.98309 0.55567 0.98911 0.0
O218 O 0.97558 0.56995 0.03019 0.0
C219 C 0.04397 0.52596 0.03164 0.0
H220 H 0.02652 0.64544 0.11908 0.0
H221 H 0.98399 0.56444 0.12626 0.0
H222 H 0.01594 0.50918 0.90923 0.0
H223 H 0.06257 0.58762 0.89761 0.0
H224 H 0.19149 0.17978 0.27554 0.0
H225 H 0.17285 0.15893 0.31691 0.0
H226 H 0.08272 0.16145 0.28512 0.0
H227 H 0.10113 0.18235 0.24389 0.0
H228 H 0.08449 0.1812 0.33541 0.0
H229 H 0.14558 0.07971 0.33191 0.0
H230 H 0.16964 0.10976 0.33026 0.0
H231 H 0.14329 0.1031 0.30361 0.0
C232 C 0.16775 0.17554 0.2772 0.0
C233 C 0.14786 0.18286 0.25629 0.0
C234 C 0.1571 0.16354 0.30091 0.0
C235 C 0.12634 0.15822 0.30417 0.0
C236 C 0.10652 0.16531 0.28323 0.0
H237 H 0.04161 0.05473 0.42583 0.0
H238 H 0.06283 0.07415 0.3849 0.0
C239 C 0.11711 0.17739 0.25963 0.0
C240 C 0.11447 0.14624 0.32962 0.0
H241 H 0.11961 0.08993 0.37197 0.0
C242 C 0.0922 0.16122 0.34336 0.0
C243 C 0.12413 0.11998 0.33996 0.0
C244 C 0.14676 0.10203 0.32557 0.0
C245 C 0.07955 0.15088 0.36706 0.0
C246 C 0.08982 0.12501 0.37782 0.0
C247 C 0.11189 0.10988 0.36397 0.0
C248 C 0.07746 0.11304 0.40307 0.0
C249 C 0.05473 0.16751 0.37995 0.0
C250 C 0.07894 0.12812 0.42718 0.0
C251 C 0.06666 0.11712 0.45064 0.0
C252 C 0.05283 0.09058 0.45066 0.0
C253 C 0.05196 0.07525 0.42661 0.0
C254 C 0.06416 0.08633 0.40314 0.0
H255 H 0.04387 0.18227 0.36561 0.0
H256 H 0.0373 0.15344 0.38813 0.0
H257 H 0.06421 0.18009 0.39664 0.0
H258 H 0.08968 0.14846 0.42792 0.0
H259 H 0.06802 0.12946 0.46877 0.0
H260 H 0.36026 0.9177 0.80496 0.0
H261 H 0.37777 0.93807 0.84708 0.0
H262 H 0.46822 0.93895 0.81757 0.0
H263 H 0.45073 0.91801 0.77528 0.0
H264 H 0.46598 0.92405 0.87093 0.0
H265 H 0.39893 0.02053 0.85353 0.0
H266 H 0.37658 0.98931 0.85302 0.0
H267 H 0.40462 0.99448 0.82791 0.0
C268 C 0.38395 0.92197 0.80752 0.0
C269 C 0.40407 0.91652 0.78667 0.0
C270 C 0.39391 0.93381 0.83157 0.0
C271 C 0.42419 0.94087 0.83529 0.0
C272 C 0.44468 0.93398 0.81509 0.0
H273 H 0.48645 0.06024 0.95643 0.0
H274 H 0.47225 0.03649 0.91486 0.0
C275 C 0.43472 0.92189 0.79099 0.0
C276 C 0.43406 0.9561 0.85992 0.0
H277 H 0.42039 1.0151 0.89694 0.0
C278 C 0.45611 0.94401 0.87656 0.0
C279 C 0.42164 0.98246 0.86711 0.0
C280 C 0.39936 0.99763 0.84933 0.0
C281 C 0.46545 0.95713 0.90045 0.0
C282 C 0.45196 0.98284 0.90827 0.0
C283 C 0.43048 0.99525 0.89125 0.0
C284 C 0.46 0.99739 0.93381 0.0
C285 C 0.4901 0.94353 0.91681 0.0
C286 C 0.45715 0.98371 0.95851 0.0
C287 C 0.46534 0.99724 0.98235 0.0
C288 C 0.47625 0.02495 0.98211 0.0
C289 C 0.47812 0.03894 0.95743 0.0
C290 C 0.47007 0.02533 0.93359 0.0
H291 H 0.5039 0.92908 0.90454 0.0
H292 H 0.50505 0.95952 0.92597 0.0
H293 H 0.47998 0.93102 0.93307 0.0
H294 H 0.44863 0.96248 0.9594 0.0
H295 H 0.46341 0.98583 1.00096 0.0
H296 H 0.5692 0.48463 0.92898 0.0
H297 H 0.55736 0.4797 0.88116 0.0
H298 H 0.54069 0.56887 0.876 0.0
H299 H 0.55226 0.57371 0.92385 0.0
H300 H 0.49857 0.53378 0.84679 0.0
H301 H 0.61813 0.50892 0.82557 0.0
H302 H 0.6 0.48723 0.84989 0.0
H303 H 0.60637 0.52368 0.85698 0.0
C304 C 0.5624 0.50299 0.91762 0.0
C305 C 0.56144 0.52951 0.92971 0.0
C306 C 0.55585 0.50021 0.89041 0.0
C307 C 0.54854 0.52398 0.87509 0.0
C308 C 0.5463 0.5503 0.88756 0.0
H309 H 0.52686 0.5817 0.71602 0.0
H310 H 0.52673 0.57297 0.764 0.0
C311 C 0.55285 0.55307 0.91476 0.0
C312 C 0.54517 0.52196 0.84578 0.0
H313 H 0.58523 0.51209 0.78883 0.0
C314 C 0.5174 0.52877 0.83408 0.0
C315 C 0.56981 0.5153 0.82935 0.0
C316 C 0.60036 0.50854 0.84095 0.0
C317 C 0.51376 0.52968 0.80624 0.0
C318 C 0.53871 0.52417 0.78981 0.0
C319 C 0.56617 0.51629 0.80152 0.0
C320 C 0.53758 0.52879 0.76062 0.0
C321 C 0.48331 0.53676 0.79466 0.0
C322 C 0.5445 0.50697 0.74285 0.0
C323 C 0.545 0.51199 0.71534 0.0
C324 C 0.53894 0.539 0.70525 0.0
C325 C 0.53201 0.56075 0.72318 0.0
C326 C 0.53147 0.55571 0.75058 0.0
H327 H 0.46514 0.53156 0.80882 0.0
H328 H 0.48211 0.55964 0.79058 0.0
H329 H 0.4792 0.52538 0.77562 0.0
H330 H 0.54963 0.48612 0.75029 0.0
H331 H 0.55065 0.49489 0.70202 0.0
H332 H 0.93752 0.63796 0.37613 0.0
H333 H 0.95121 0.64507 0.32916 0.0
H334 H 0.98271 0.5594 0.32507 0.0
H335 H 0.96871 0.55224 0.37191 0.0
H336 H 1.00671 0.63784 0.30128 0.0
H337 H 0.91786 0.56517 0.26588 0.0
H338 H 0.9189 0.57907 0.29941 0.0
H339 H 0.94279 0.55014 0.29041 0.0
C340 C 0.94769 0.62083 0.36515 0.0
C341 C 0.95211 0.59458 0.37722 0.0
C342 C 0.95548 0.6249 0.33846 0.0
C343 C 0.96756 0.60264 0.32361 0.0
C344 C 0.973 0.57668 0.33612 0.0
H345 H 0.01971 0.56637 0.16422 0.0
H346 H 1.01179 0.56898 0.21229 0.0
C347 C 0.96518 0.57264 0.36278 0.0
C348 C 0.97323 0.60606 0.29475 0.0
H349 H 0.95323 0.57998 0.23373 0.0
C350 C 0.99491 0.62539 0.28643 0.0
C351 C 0.95748 0.59 0.2755 0.0
C352 C 0.93274 0.57012 0.28315 0.0
C353 C 1.00217 0.62817 0.2593 0.0
C354 C 0.98711 0.61138 0.24021 0.0
C355 C 0.96486 0.59267 0.24851 0.0
C356 C 0.9949 0.6116 0.21159 0.0
C357 C 0.02648 0.64828 0.25127 0.0
C358 C 0.98844 0.63494 0.19536 0.0
C359 C 0.99284 0.63346 0.16773 0.0
C360 C 1.00347 0.60854 0.15605 0.0
C361 C 1.01097 0.58567 0.1726 0.0
C362 C 1.00663 0.58717 0.20006 0.0
H363 H 0.03914 0.65648 0.26881 0.0
H364 H 0.04243 0.63784 0.23753 0.0
H365 H 0.01626 0.66633 0.24047 0.0
H366 H 0.97899 0.65385 0.2039 0.0
H367 H 0.98675 0.65133 0.15541 0.0
H368 H 0.21219 0.1453 0.18938 0.0
H369 H 0.25693 0.12645 0.16824 0.0
H370 H 0.28249 0.20993 0.1446 0.0
H371 H 0.23844 0.22924 0.16701 0.0
H372 H 0.27508 0.12639 0.11779 0.0
H373 H 0.35929 0.18352 0.17889 0.0
H374 H 0.32011 0.18277 0.18739 0.0
H375 H 0.33323 0.20631 0.16198 0.0
C376 C 0.22753 0.15985 0.18016 0.0
C377 C 0.22172 0.18898 0.18044 0.0
C378 C 0.25308 0.14892 0.16778 0.0
C379 C 0.27362 0.1667 0.1552 0.0
C380 C 0.26753 0.19572 0.15473 0.0
H381 H 0.43884 0.13439 0.06751 0.0
H382 H 0.39355 0.15487 0.0868 0.0
C383 C 0.242 0.20674 0.16729 0.0
C384 C 0.301 0.15462 0.14233 0.0
H385 H 0.37771 0.15761 0.14201 0.0
C386 C 0.2975 0.1332 0.1232 0.0
C387 C 0.33042 0.16334 0.1493 0.0
C388 C 0.33611 0.18504 0.17069 0.0
C389 C 0.32235 0.12059 0.11074 0.0
C390 C 0.35168 0.12936 0.11769 0.0
C391 C 0.35525 0.15089 0.13663 0.0
C392 C 0.37896 0.11647 0.10556 0.0
C393 C 0.31699 0.09826 0.0899 0.0
C394 C 0.3861 0.088 0.10975 0.0
C395 C 0.41214 0.07618 0.09881 0.0
C396 C 0.43166 0.09256 0.08337 0.0
C397 C 0.42435 0.12105 0.07916 0.0
C398 C 0.39844 0.13286 0.09025 0.0
H399 H 0.29348 0.09849 0.08238 0.0
H400 H 0.33227 0.10104 0.07273 0.0
H401 H 0.32155 0.07732 0.0988 0.0
H402 H 0.37171 0.07498 0.12182 0.0
H403 H 0.41706 0.05425 0.1026 0.0
H404 H 0.32014 0.96754 0.64923 0.0
H405 H 0.27902 0.98158 0.61904 0.0
H406 H 0.22248 0.91836 0.65376 0.0
H407 H 0.26354 0.9046 0.68421 0.0
H408 H 0.24098 0.95432 0.58115 0.0
H409 H 0.17875 0.99267 0.66963 0.0
H410 H 0.21781 0.98283 0.6713 0.0
H411 H 0.18932 0.95626 0.67089 0.0
C412 C 0.29919 0.95613 0.64979 0.0
C413 C 0.2949 0.93489 0.66874 0.0
C414 C 0.27569 0.96422 0.63265 0.0
C415 C 0.24751 0.95135 0.63444 0.0
C416 C 0.24389 0.92885 0.65229 0.0
H417 H 0.0904 0.98437 0.53256 0.0
H418 H 0.13452 0.96302 0.5539 0.0
C419 C 0.26739 0.9208 0.66946 0.0
C420 C 0.22141 0.96309 0.61937 0.0
H421 H 0.15411 0.99628 0.62791 0.0
C422 C 0.22191 0.9634 0.59133 0.0
C423 C 0.19678 0.97541 0.6327 0.0
C424 C 0.1956 0.97708 0.66278 0.0
C425 C 0.19832 0.97546 0.57628 0.0
C426 C 0.17346 0.9873 0.58964 0.0
C427 C 0.17308 0.98708 0.61767 0.0
C428 C 0.14779 1.00062 0.57514 0.0
C429 C 0.20057 0.97607 0.54626 0.0
C430 C 0.14034 0.02881 0.58009 0.0
C431 C 0.11504 0.04104 0.56805 0.0
C432 C 0.09647 0.0253 0.55086 0.0
C433 C 0.10426 0.99718 0.54556 0.0
C434 C 0.12961 0.98495 0.55765 0.0
H435 H 0.22397 0.97265 0.53954 0.0
H436 H 0.18648 0.95911 0.53768 0.0
H437 H 0.19234 0.99642 0.53813 0.0
H438 H 0.15396 0.0413 0.59357 0.0
H439 H 0.10974 0.06272 0.57264 0.0
H440 H 0.69764 0.45649 0.99743 0.0
H441 H 0.75114 0.46384 1.00156 0.0
H442 H 0.73542 0.54905 0.0273 0.0
H443 H 0.68172 0.54084 0.02652 0.0
H444 H 0.78445 0.49471 0.97492 0.0
H445 H 0.79799 0.5297 0.07932 0.0
H446 H 0.76319 0.51547 0.06692 0.0
H447 H 0.77189 0.5521 0.06216 0.0
C448 C 0.70528 0.47647 1.00512 0.0
C449 C 0.68489 0.49797 1.01184 0.0
C450 C 0.73613 0.4808 1.00701 0.0
C451 C 0.74754 0.50691 1.01504 0.0
C452 C 0.72737 0.52842 0.0218 0.0
H453 H 0.92474 0.56423 0.96907 0.0
H454 H 0.87183 0.5508 0.97018 0.0
C455 C 0.69646 0.52383 0.02076 0.0
C456 C 0.78039 0.51208 1.01451 0.0
H457 H 0.83829 0.54097 0.04979 0.0
C458 C 0.79628 0.50445 0.9915 0.0
C459 C 0.79611 0.52437 0.03622 0.0
C460 C 0.78142 0.53055 0.06262 0.0
C461 C 0.8272 0.50907 0.98943 0.0
C462 C 0.84247 0.5232 1.01036 0.0
C463 C 0.82666 0.53047 0.03353 0.0
C464 C 0.87478 0.53056 1.00894 0.0
C465 C 0.84311 0.49801 0.9651 0.0
C466 C 0.89396 0.52462 0.03066 0.0
C467 C 0.92375 0.53337 0.03047 0.0
C468 C 0.93517 0.54754 1.00826 0.0
C469 C 0.91642 0.55289 0.9862 0.0
C470 C 0.88628 0.54499 0.98677 0.0
H471 H 0.83126 0.47957 0.95651 0.0
H472 H 0.84337 0.51455 0.94951 0.0
H473 H 0.86655 0.49171 0.96984 0.0
H474 H 0.88578 0.51353 0.04799 0.0
H475 H 0.93792 0.52908 0.04772 0.0
H476 H 0.83648 0.6665 0.47678 0.0
H477 H 0.78856 0.66142 0.49912 0.0
H478 H 0.81626 0.58056 0.52945 0.0
H479 H 0.8648 0.58567 0.50744 0.0
H480 H 0.76091 0.5805 0.50267 0.0
H481 H 0.76507 0.66552 0.57816 0.0
H482 H 0.77476 0.67706 0.54523 0.0
H483 H 0.79825 0.65185 0.56223 0.0
C484 C 0.83279 0.64794 0.48877 0.0
C485 C 0.85459 0.62656 0.49047 0.0
C486 C 0.80534 0.64509 0.50154 0.0
C487 C 0.7991 0.62085 0.5163 0.0
C488 C 0.82082 0.59955 0.51832 0.0
H489 H 0.6281 0.59035 0.59643 0.0
H490 H 0.68188 0.59607 0.58847 0.0
C491 C 0.84841 0.60242 0.5056 0.0
C492 C 0.7688 0.61681 0.52735 0.0
H493 H 0.7162 0.64746 0.56713 0.0
C494 C 0.75129 0.59486 0.51709 0.0
C495 C 0.75639 0.63551 0.54625 0.0
C496 C 0.77468 0.65866 0.55883 0.0
C497 C 0.7212 0.5919 0.52427 0.0
C498 C 0.70835 0.61152 0.54201 0.0
C499 C 0.72616 0.63268 0.55329 0.0
C500 C 0.67604 0.6109 0.54794 0.0
C501 C 0.7031 0.56819 0.51243 0.0
C502 C 0.65516 0.61821 0.52802 0.0
C503 C 0.62454 0.61511 0.53248 0.0
C504 C 0.61429 0.60455 0.55695 0.0
C505 C 0.63528 0.59846 0.57733 0.0
C506 C 0.66597 0.6017 0.57286 0.0
H507 H 0.71764 0.55171 0.50357 0.0
H508 H 0.68876 0.55842 0.52784 0.0
H509 H 0.68818 0.5766 0.49644 0.0
H510 H 0.66263 0.62559 0.50874 0.0
H511 H 0.609 0.6201 0.51639 0.0
H512 H 0.13731 0.32834 0.18414 0.0
H513 H 0.1248 0.3699 0.15736 0.0
H514 H 0.12424 0.31905 0.08605 0.0
H515 H 0.13594 0.27721 0.11315 0.0
H516 H 0.1501 0.39776 0.1169 0.0
H517 H 0.04187 0.35336 0.08163 0.0
H518 H 0.06426 0.33683 0.10741 0.0
H519 H 0.07401 0.33268 0.07285 0.0
C520 C 0.13508 0.32618 0.16267 0.0
C521 C 0.13784 0.29971 0.15063 0.0
C522 C 0.12778 0.34993 0.14736 0.0
C523 C 0.12287 0.3477 0.11966 0.0
C524 C 0.12711 0.32134 0.10743 0.0
H525 H 0.06095 0.47753 1.0055 0.0
H526 H 0.08136 0.43416 0.02525 0.0
C527 C 0.13425 0.29749 0.12284 0.0
C528 C 0.11245 0.37284 0.10406 0.0
H529 H 0.05477 0.39806 0.06506 0.0
C530 C 0.12929 0.39771 0.10552 0.0
C531 C 0.08521 0.37304 0.08915 0.0
C532 C 0.06511 0.34766 0.0878 0.0
C533 C 0.11968 0.42257 0.09271 0.0
C534 C 0.0923 0.42282 0.07816 0.0
C535 C 0.07578 0.39787 0.07614 0.0
C536 C 0.0798 0.4491 0.066 0.0
C537 C 0.13899 0.44841 0.09483 0.0
C538 C 0.0716 0.47181 0.0823 0.0
C539 C 0.05975 0.4965 0.07113 0.0
C540 C 0.0558 0.49919 0.04329 0.0
C541 C 0.06374 0.47628 0.02698 0.0
C542 C 0.07542 0.45145 0.03825 0.0
H543 H 0.16246 0.44309 0.10055 0.0
H544 H 0.13913 0.4601 0.07564 0.0
H545 H 0.12978 0.46252 0.11039 0.0
H546 H 0.07422 0.47039 0.10379 0.0
H547 H 0.05386 0.51358 0.08438 0.0
H548 H 0.61002 0.42283 0.03978 0.0
H549 H 0.59401 0.37383 0.03628 0.0
H550 H 0.5677 0.38754 0.95413 0.0
H551 H 0.5828 0.4368 0.95786 0.0
H552 H 0.52771 0.35563 0.97883 0.0
H553 H 0.64145 0.3138 0.99943 0.0
H554 H 0.6286 0.33582 0.02603 0.0
H555 H 0.63443 0.35057 0.99337 0.0
C556 C 0.60067 0.41535 0.02105 0.0
C557 C 0.59775 0.43345 0.99906 0.0
C558 C 0.59173 0.38736 0.019 0.0
C559 C 0.58041 0.37685 0.99472 0.0
C560 C 0.57656 0.39517 0.97299 0.0
H561 H 0.57492 0.19534 0.97235 0.0
H562 H 0.58451 0.24544 0.96545 0.0
C563 C 0.5851 0.42327 0.97516 0.0
C564 C 0.57288 0.34669 0.99196 0.0
H565 H 0.60131 0.28087 1.00165 0.0
C566 C 0.54386 0.33925 0.98358 0.0
C567 C 0.59419 0.32532 0.99746 0.0
C568 C 0.62649 0.33176 1.00427 0.0
C569 C 0.53524 0.311 0.9815 0.0
C570 C 0.55597 0.28969 0.98881 0.0
C571 C 0.58528 0.29717 0.9963 0.0
C572 C 0.54766 0.25958 0.98996 0.0
C573 C 0.50416 0.30438 0.97124 0.0
C574 C 0.52351 0.25084 1.00566 0.0
C575 C 0.51773 0.2223 1.0092 0.0
C576 C 0.53643 0.20198 0.99762 0.0
C577 C 0.56022 0.21066 0.98149 0.0
C578 C 0.56568 0.23922 0.97758 0.0
H579 H 0.49558 0.32127 0.95785 0.0
H580 H 0.50368 0.28419 0.96016 0.0
H581 H 0.48866 0.30288 0.98836 0.0
H582 H 0.50985 0.26604 1.01612 0.0
H583 H 0.49958 0.21612 0.02213 0.0
H584 H 0.93495 0.69588 0.497 0.0
H585 H 0.95335 0.74382 0.49261 0.0
H586 H 0.96165 0.7324 0.40755 0.0
H587 H 0.942 0.68465 0.41161 0.0
H588 H 1.00623 0.76537 0.47258 0.0
H589 H 0.90716 0.80127 0.41292 0.0
H590 H 0.90793 0.76797 0.43006 0.0
H591 H 0.92808 0.7723 0.39948 0.0
C592 C 0.94057 0.70358 0.47733 0.0
C593 C 0.93661 0.68661 0.45462 0.0
C594 C 0.95131 0.73089 0.47488 0.0
C595 C 0.95838 0.74177 0.44971 0.0
C596 C 0.95579 0.72453 0.42709 0.0
H597 H 1.00395 0.92089 0.42785 0.0
H598 H 0.99976 0.87047 0.41775 0.0
C599 C 0.94488 0.69717 0.4295 0.0
C600 C 0.96728 0.77156 0.44746 0.0
H601 H 0.94211 0.83552 0.42578 0.0
C602 C 0.99248 0.78066 0.462 0.0
C603 C 0.94929 0.79143 0.43359 0.0
C604 C 0.92147 0.78292 0.41826 0.0
C605 C 0.99942 0.80925 0.46401 0.0
C606 C 0.98061 0.82913 0.45125 0.0
C607 C 0.95643 0.82005 0.43546 0.0
C608 C 0.98347 0.85939 0.45686 0.0
C609 C 0.02616 0.81817 0.48056 0.0
C610 C 0.97526 0.8696 0.48199 0.0
C611 C 0.97736 0.89815 0.4877 0.0
C612 C 0.9878 0.91702 0.46837 0.0
C613 C 0.99596 0.90675 0.44312 0.0
C614 C 0.99356 0.87809 0.43732 0.0
H615 H 0.04212 0.80053 0.48392 0.0
H616 H 0.03813 0.83572 0.47077 0.0
H617 H 0.01838 0.82568 0.50031 0.0
H618 H 0.9672 0.85541 0.49721 0.0
H619 H 0.97132 0.9054 0.50744 0.0
H620 H 0.45068 0.86027 0.71548 0.0
H621 H 0.46975 0.81941 0.6913 0.0
H622 H 0.38001 0.79939 0.66516 0.0
H623 H 0.36059 0.83947 0.69015 0.0
H624 H 0.40923 0.75319 0.68244 0.0
H625 H 0.48175 0.81031 0.61182 0.0
H626 H 0.4902 0.81797 0.64616 0.0
H627 H 0.45437 0.82792 0.63223 0.0
C628 C 0.43491 0.84712 0.70474 0.0
C629 C 0.40402 0.85343 0.70477 0.0
C630 C 0.44595 0.82391 0.69057 0.0
C631 C 0.42645 0.80651 0.67589 0.0
C632 C 0.39561 0.81258 0.67608 0.0
H633 H 0.48019 0.67779 0.5597 0.0
H634 H 0.46061 0.72026 0.58135 0.0
C635 C 0.38454 0.83572 0.69026 0.0
C636 C 0.43795 0.78143 0.66111 0.0
H637 H 0.48757 0.76053 0.61323 0.0
C638 C 0.42628 0.75487 0.66724 0.0
C639 C 0.45987 0.7835 0.64091 0.0
C640 C 0.47209 0.81147 0.63215 0.0
C641 C 0.43631 0.7304 0.65426 0.0
C642 C 0.45915 0.73231 0.63488 0.0
C643 C 0.47033 0.75894 0.62826 0.0
C644 C 0.47185 0.70689 0.62153 0.0
C645 C 0.42195 0.70274 0.66119 0.0
C646 C 0.48531 0.68543 0.63675 0.0
C647 C 0.49642 0.66117 0.62447 0.0
C648 C 0.49463 0.65777 0.59655 0.0
C649 C 0.48189 0.67962 0.58122 0.0
C650 C 0.47068 0.70394 0.59358 0.0
H651 H 0.39946 0.70579 0.67009 0.0
H652 H 0.41959 0.68914 0.64328 0.0
H653 H 0.43623 0.6916 0.67608 0.0
H654 H 0.48721 0.68742 0.65824 0.0
H655 H 0.5063 0.64496 0.63697 0.0
H656 H 0.91974 0.96791 0.80934 0.0
H657 H 0.93606 0.98592 0.76619 0.0
H658 H 0.92828 0.90303 0.73233 0.0
H659 H 0.91137 0.88488 0.77563 0.0
H660 H 0.98409 0.9719 0.73314 0.0
H661 H 0.87512 0.95097 0.68239 0.0
H662 H 0.87953 0.94983 0.71824 0.0
H663 H 0.89263 0.92115 0.69815 0.0
C664 C 0.9216 0.95343 0.79276 0.0
C665 C 0.91391 0.92496 0.79593 0.0
C666 C 0.93103 0.96377 0.76806 0.0
C667 C 0.93286 0.94603 0.74575 0.0
C668 C 0.92648 0.91731 0.74907 0.0
H669 H 0.97014 0.98346 0.57789 0.0
H670 H 0.95734 0.9611 0.62022 0.0
C671 C 0.91716 0.90686 0.77392 0.0
C672 C 0.9409 0.958 0.71912 0.0
H673 H 0.91339 0.97035 0.6561 0.0
C674 C 0.96865 0.9715 0.71629 0.0
C675 C 0.9208 0.95756 0.69703 0.0
C676 C 0.89023 0.94432 0.69901 0.0
C677 C 0.9769 0.98431 0.69208 0.0
C678 C 0.95657 0.98434 0.67012 0.0
C679 C 0.92898 0.97051 0.67286 0.0
C680 C 0.96355 0.99848 0.64417 0.0
C681 C 1.00764 0.99721 0.69017 0.0
C682 C 0.97061 0.02723 0.64317 0.0
C683 C 0.97804 0.04013 0.6189 0.0
C684 C 0.97829 0.02467 0.59493 0.0
C685 C 0.97024 0.9961 0.59587 0.0
C686 C 0.96292 0.98322 0.62015 0.0
H687 H 0.02333 0.98835 0.70537 0.0
H688 H 0.01733 0.99388 0.67007 0.0
H689 H 1.00589 0.02015 0.69376 0.0
H690 H 0.97049 0.03975 0.66121 0.0
H691 H 0.98394 0.06217 0.619 0.0
H692 H 0.66043 0.14917 0.32859 0.0
H693 H 0.64247 0.12695 0.28721 0.0
H694 H 0.63227 0.20843 0.2507 0.0
H695 H 0.65042 0.23072 0.29179 0.0
H696 H 0.58485 0.13768 0.26173 0.0
H697 H 0.67982 0.16207 0.19487 0.0
H698 H 0.68323 0.16304 0.23084 0.0
H699 H 0.66521 0.19142 0.21326 0.0
C700 C 0.65482 0.16232 0.3116 0.0
C701 C 0.65687 0.19174 0.31353 0.0
C702 C 0.6444 0.1496 0.28802 0.0
C703 C 0.63626 0.16599 0.26575 0.0
C704 C 0.63877 0.19531 0.26747 0.0
H705 H 0.5619 0.13591 0.10712 0.0
H706 H 0.58437 0.15549 0.14783 0.0
C707 C 0.64893 0.20804 0.29107 0.0
C708 C 0.62375 0.15265 0.24116 0.0
H709 H 0.63593 0.14369 0.17439 0.0
C710 C 0.59611 0.13878 0.24266 0.0
C711 C 0.63832 0.15432 0.21625 0.0
C712 C 0.66841 0.16831 0.21359 0.0
C713 C 0.5823 0.12714 0.21984 0.0
C714 C 0.59691 0.12869 0.19487 0.0
C715 C 0.62468 0.14243 0.19345 0.0
C716 C 0.58362 0.11648 0.16997 0.0
C717 C 0.55168 0.11415 0.22261 0.0
C718 C 0.57614 0.08788 0.16854 0.0
C719 C 0.56304 0.07666 0.14535 0.0
C720 C 0.55751 0.0937 0.12285 0.0
C721 C 0.56575 0.12217 0.12406 0.0
C722 C 0.57864 0.13341 0.14735 0.0
H723 H 0.54005 0.12189 0.24071 0.0
H724 H 0.53732 0.1187 0.20488 0.0
H725 H 0.55415 0.09104 0.22449 0.0
H726 H 0.58048 0.07414 0.18537 0.0
H727 H 0.55731 0.05459 0.14506 0.0
H728 H 0.41296 0.57712 0.2164 0.0
H729 H 0.42758 0.58498 0.26313 0.0
H730 H 0.5061 0.62978 0.23742 0.0
H731 H 0.4911 0.62222 0.1905 0.0
H732 H 0.48036 0.56781 0.28863 0.0
H733 H 0.46754 0.6841 0.29111 0.0
H734 H 0.45188 0.66285 0.26461 0.0
H735 H 0.49131 0.67022 0.26546 0.0
C736 C 0.43332 0.58863 0.22084 0.0
C737 C 0.45105 0.59905 0.20024 0.0
C738 C 0.44163 0.59314 0.24742 0.0
C739 C 0.46772 0.60824 0.25371 0.0
C740 C 0.48562 0.61851 0.23298 0.0
H741 H 0.54183 0.63207 0.41543 0.0
H742 H 0.53601 0.63402 0.36662 0.0
C743 C 0.47723 0.61402 0.20631 0.0
C744 C 0.47629 0.61235 0.28207 0.0
H745 H 0.48372 0.66199 0.33099 0.0
C746 C 0.48132 0.58841 0.29783 0.0
C747 C 0.47759 0.63929 0.29397 0.0
C748 C 0.47159 0.66564 0.27805 0.0
C749 C 0.48695 0.59063 0.32531 0.0
C750 C 0.48735 0.61745 0.33733 0.0
C751 C 0.48336 0.6415 0.32155 0.0
C752 C 0.48985 0.62038 0.3666 0.0
C753 C 0.49186 0.56425 0.34149 0.0
C754 C 0.46549 0.61299 0.38252 0.0
C755 C 0.46866 0.61197 0.41023 0.0
C756 C 0.49631 0.61827 0.4225 0.0
C757 C 0.52022 0.62726 0.40654 0.0
C758 C 0.517 0.62828 0.37872 0.0
H759 H 0.49635 0.54572 0.32863 0.0
H760 H 0.51092 0.56694 0.35568 0.0
H761 H 0.4715 0.55993 0.35335 0.0
H762 H 0.44431 0.60703 0.37342 0.0
H763 H 0.4497 0.60543 0.42203 0.0
H764 H 0.05309 0.57732 0.64925 0.0
H765 H 0.04227 0.57492 0.69725 0.0
H766 H 0.05402 0.48496 0.69531 0.0
H767 H 0.06504 0.48742 0.6474 0.0
H768 H 0.99863 0.54226 0.72751 0.0
H769 H 0.11747 0.51411 0.75012 0.0
H770 H 0.10574 0.52845 0.71831 0.0
H771 H 0.09836 0.49236 0.72611 0.0
C772 C 0.05273 0.55706 0.65909 0.0
C773 C 0.05968 0.53253 0.645 0.0
C774 C 0.04663 0.55569 0.68637 0.0
C775 C 0.04771 0.5298 0.69977 0.0
C776 C 0.0534 0.50514 0.68532 0.0
H777 H 0.04967 0.49878 0.87204 0.0
H778 H 0.04879 0.49181 0.82352 0.0
C779 C 0.05948 0.50652 0.65805 0.0
C780 C 0.04476 0.52894 0.72911 0.0
H781 H 0.08488 0.51789 0.78655 0.0
C782 C 0.01738 0.53678 0.74047 0.0
C783 C 0.06931 0.52167 0.74585 0.0
C784 C 0.09949 0.51385 0.73461 0.0
C785 C 0.01395 0.53778 0.76827 0.0
C786 C 0.03877 0.53133 0.78502 0.0
C787 C 0.06591 0.52278 0.77363 0.0
C788 C 0.03771 0.53504 0.81433 0.0
C789 C 0.98379 0.54569 0.77945 0.0
C790 C 0.03208 0.56168 0.82513 0.0
C791 C 0.03246 0.56568 0.85271 0.0
C792 C 0.03878 0.54317 0.87008 0.0
C793 C 0.04444 0.51646 0.8592 0.0
C794 C 0.04405 0.51247 0.83153 0.0
H795 H 0.96541 0.54138 0.76491 0.0
H796 H 0.97926 0.53411 0.79822 0.0
H797 H 0.98349 0.56851 0.78391 0.0
H798 H 0.02779 0.57951 0.8122 0.0
H799 H 0.02761 0.58644 0.86044 0.0
H800 H 0.76204 0.93848 0.87384 0.0
H801 H 0.72059 0.95251 0.90274 0.0
H802 H 0.78168 0.95673 0.96996 0.0
H803 H 0.8234 0.94341 0.94068 0.0
H804 H 0.6946 0.93257 0.94703 0.0
H805 H 0.74753 0.03527 0.96946 0.0
H806 H 0.76187 1.01171 0.94442 0.0
H807 H 0.76987 1.0055 0.9792 0.0
C808 C 0.76643 0.94181 0.89493 0.0
C809 C 0.79571 0.93969 0.90518 0.0
C810 C 0.74278 0.94995 0.91142 0.0
C811 C 0.748 0.9563 0.93848 0.0
C812 C 0.77713 0.95263 0.94905 0.0
H813 H 0.59706 0.99055 0.04615 0.0
H814 H 0.64107 0.96966 0.02503 0.0
C815 C 0.80088 0.94464 0.93244 0.0
C816 C 0.72316 0.96797 0.95498 0.0
H817 H 0.70177 0.02576 0.99078 0.0
C818 C 0.69623 0.95288 0.95672 0.0
C819 C 0.725 0.99474 0.96725 0.0
C820 C 0.75248 1.01291 0.96484 0.0
C821 C 0.67118 0.96381 0.97017 0.0
C822 C 0.67323 0.99034 0.98288 0.0
C823 C 0.70021 1.00534 0.98128 0.0
C824 C 0.64727 1.00353 0.99682 0.0
C825 C 0.64242 0.94724 0.96972 0.0
C826 C 0.63672 0.03014 0.98889 0.0
C827 C 0.61181 0.04236 1.00124 0.0
C828 C 0.59681 0.02825 0.02182 0.0
C829 C 0.60788 1.00193 0.03022 0.0
C830 C 0.63295 0.98982 1.01799 0.0
H831 H 0.6421 0.93152 0.95332 0.0
H832 H 0.64022 0.93575 0.98887 0.0
H833 H 0.62265 0.96128 0.96727 0.0
H834 H 0.64742 0.04126 0.97273 0.0
H835 H 0.60396 0.06264 0.99424 0.0
H836 H 0.70049 0.18995 0.43078 0.0
H837 H 0.7432 0.16802 0.45409 0.0
H838 H 0.79818 0.18152 0.38488 0.0
H839 H 0.75513 0.20203 0.36123 0.0
H840 H 0.80764 0.13165 0.40163 0.0
H841 H 0.81399 0.20045 0.49047 0.0
H842 H 0.77812 0.18391 0.48731 0.0
H843 H 0.79009 0.20847 0.46224 0.0
C844 C 0.72184 0.18852 0.42076 0.0
C845 C 0.72454 0.19777 0.39425 0.0
C846 C 0.74635 0.17611 0.43413 0.0
C847 C 0.77432 0.17342 0.42153 0.0
C848 C 0.77701 0.18323 0.39517 0.0
H849 H 0.94432 0.13577 0.50057 0.0
H850 H 0.89962 0.15721 0.4806 0.0
C851 C 0.75242 0.19507 0.38166 0.0
C852 C 0.80042 0.15926 0.43505 0.0
H853 H 0.84352 0.15872 0.49196 0.0
C854 C 0.81552 0.13773 0.42135 0.0
C855 C 0.81116 0.16723 0.46069 0.0
C856 C 0.7977 0.19147 0.47591 0.0
C857 C 0.84088 0.12415 0.43233 0.0
C858 C 0.8509 0.13134 0.4584 0.0
C859 C 0.83578 0.15284 0.47215 0.0
C860 C 0.87778 0.11783 0.47127 0.0
C861 C 0.85723 0.103 0.41531 0.0
C862 C 0.8805 0.08843 0.47328 0.0
C863 C 0.90646 0.07607 0.48424 0.0
C864 C 0.92995 0.09282 0.49418 0.0
C865 C 0.92668 0.1222 0.49314 0.0
C866 C 0.90103 0.13452 0.48171 0.0
H867 H 0.85262 0.10641 0.3937 0.0
H868 H 0.88183 0.10401 0.41869 0.0
H869 H 0.84946 0.08158 0.42038 0.0
H870 H 0.86258 0.07497 0.46629 0.0
H871 H 0.90808 0.05338 0.48501 0.0
H872 H 0.3482 0.67698 0.08459 0.0
H873 H 0.29945 0.67381 0.06352 0.0
H874 H 0.30937 0.58399 0.05709 0.0
H875 H 0.36023 0.58721 0.07477 0.0
H876 H 0.27835 0.6012 1.01714 0.0
H877 H 0.23062 0.65194 0.10667 0.0
H878 H 0.25582 0.67494 0.08986 0.0
H879 H 0.26968 0.6428 0.10465 0.0
C880 C 0.34088 0.65652 0.07788 0.0
C881 C 0.35856 0.63224 0.082 0.0
C882 C 0.31239 0.65474 0.06633 0.0
C883 C 0.30009 0.62855 0.05985 0.0
C884 C 0.31811 0.60445 0.06242 0.0
H885 H 0.11244 0.5935 0.06395 0.0
H886 H 0.1657 0.6012 0.07159 0.0
C887 C 0.34715 0.6063 0.07302 0.0
C888 C 0.26805 0.62612 0.05177 0.0
H889 H 0.19729 0.64433 0.0705 0.0
C890 C 0.26058 0.61049 0.02888 0.0
C891 C 0.24478 0.6379 0.0673 0.0
C892 C 0.2506 0.65254 0.09362 0.0
C893 C 0.23056 0.60592 0.02134 0.0
C894 C 0.20738 0.61856 0.03637 0.0
C895 C 0.21498 0.63477 0.05884 0.0
C896 C 0.17503 0.61352 0.03083 0.0
C897 C 0.22416 0.58657 0.99812 0.0
C898 C 0.16226 0.61788 1.00535 0.0
C899 C 0.13178 0.61257 1.00076 0.0
C900 C 0.11345 0.60395 0.02184 0.0
C901 C 0.12603 0.60045 0.04741 0.0
C902 C 0.15652 0.60483 0.05177 0.0
H903 H 0.24347 0.57244 0.99404 0.0
H904 H 0.20415 0.57341 1.00186 0.0
H905 H 0.21994 0.59929 0.9799 0.0
H906 H 0.17575 0.62546 0.98905 0.0
H907 H 0.12245 0.61554 0.9809 0.0
H908 H 0.18068 0.53444 0.54759 0.0
H909 H 0.2345 0.544 0.54515 0.0
H910 H 0.25302 0.47238 0.59536 0.0
H911 H 0.19941 0.46307 0.5986 0.0
H912 H 0.27388 0.55282 0.59259 0.0
H913 H 0.30849 0.46345 0.52807 0.0
H914 H 0.27036 0.47638 0.52895 0.0
H915 H 0.28475 0.45516 0.5558 0.0
C916 C 0.19619 0.52073 0.55813 0.0
C917 C 0.1857 0.49792 0.5732 0.0
C918 C 0.22688 0.52615 0.55661 0.0
C919 C 0.24759 0.50872 0.56988 0.0
C920 C 0.23733 0.48578 0.58464 0.0
H921 H 0.43502 0.54029 0.60962 0.0
H922 H 0.38203 0.52681 0.61105 0.0
C923 C 0.20668 0.48044 0.58633 0.0
C924 C 0.27989 0.51523 0.56935 0.0
H925 H 0.34723 0.49133 0.54669 0.0
C926 C 0.28996 0.53943 0.58256 0.0
C927 C 0.30063 0.49766 0.55619 0.0
C928 C 0.29065 0.47177 0.54125 0.0
C929 C 0.32046 0.54646 0.58311 0.0
C930 C 0.34123 0.52875 0.57018 0.0
C931 C 0.33114 0.50466 0.55678 0.0
C932 C 0.3734 0.5357 0.56931 0.0
C933 C 0.33028 0.57296 0.59712 0.0
C934 C 0.38596 0.54466 0.54528 0.0
C935 C 0.41603 0.55248 0.54441 0.0
C936 C 0.43413 0.55121 0.56754 0.0
C937 C 0.42163 0.54154 0.5915 0.0
C938 C 0.39141 0.53391 0.59237 0.0
H939 H 0.31096 0.58645 0.60273 0.0
H940 H 0.34291 0.56736 0.61559 0.0
H941 H 0.34547 0.58524 0.58419 0.0
H942 H 0.37234 0.54608 0.52729 0.0
H943 H 0.42502 0.55967 0.5256 0.0
H944 H 0.9143 0.83113 0.83814 0.0
H945 H 0.93254 0.78972 0.86239 0.0
H946 H 0.91919 0.83255 0.93714 0.0
H947 H 0.90149 0.87418 0.91316 0.0
H948 H 0.98158 0.78472 0.8981 0.0
H949 H 0.87538 0.75806 0.94884 0.0
H950 H 0.87673 0.78191 0.92086 0.0
H951 H 0.8877 0.79358 0.95364 0.0
C952 C 0.91536 0.8319 0.85973 0.0
C953 C 0.90614 0.8562 0.87354 0.0
C954 C 0.92568 0.80806 0.87361 0.0
C955 C 0.92685 0.80771 0.90168 0.0
C956 C 0.91787 0.83193 0.91554 0.0
H957 H 0.98265 0.67831 0.01824 0.0
H958 H 0.96497 0.72194 0.9969 0.0
C959 C 0.90766 0.85581 0.9017 0.0
C960 C 0.93823 0.78236 0.91637 0.0
H961 H 0.91845 0.73191 0.96158 0.0
C962 C 0.96772 0.77315 0.91192 0.0
C963 C 0.92033 0.76728 0.93464 0.0
C964 C 0.88819 0.77549 0.9397 0.0
C965 C 0.97983 0.74959 0.92529 0.0
C966 C 0.96179 0.73419 0.94324 0.0
C967 C 0.93238 0.74359 0.94792 0.0
C968 C 0.97264 0.70774 0.95647 0.0
C969 C 1.01213 0.74177 0.9204 0.0
C970 C 0.98245 0.68494 0.941 0.0
C971 C 0.99264 0.66012 0.95311 0.0
C972 C 0.99306 0.65715 0.98112 0.0
C973 C 0.98281 0.67983 0.99666 0.0
C974 C 0.97263 0.7048 0.98446 0.0
H975 H 0.02521 0.76007 0.91331 0.0
H976 H 0.02304 0.73338 0.93878 0.0
H977 H 0.01306 0.72536 0.9047 0.0
H978 H 0.98198 0.68621 0.91941 0.0
H979 H 1.00005 0.64313 0.94037 0.0
H980 H 0.39885 0.71228 0.12193 0.0
H981 H 0.42071 0.75901 0.12611 0.0
H982 H 0.50947 0.72296 0.12378 0.0
H983 H 0.48762 0.6758 0.11931 0.0
H984 H 0.46552 0.77946 0.16658 0.0
H985 H 0.50311 0.78225 0.06069 0.0
H986 H 0.47463 0.75817 0.07171 0.0
H987 H 0.51307 0.75232 0.08096 0.0
C988 C 0.42304 0.71429 0.12218 0.0
C989 C 0.44158 0.6905 0.11989 0.0
C990 C 0.43545 0.74093 0.12482 0.0
C991 C 0.46662 0.74432 0.1251 0.0
C992 C 0.48533 0.72064 0.12345 0.0
H993 H 0.54567 0.90976 0.10108 0.0
H994 H 0.54243 0.85974 0.11121 0.0
C995 C 0.47287 0.69382 0.12097 0.0
C996 C 0.479 0.77299 0.12588 0.0
H997 H 0.50663 0.82391 0.08528 0.0
C998 C 0.475 0.78915 0.14899 0.0
C999 C 0.49145 0.78536 0.10292 0.0
C1000 C 0.49581 0.76881 0.07754 0.0
C1001 C 0.48217 0.81779 0.14943 0.0
C1002 C 0.49288 0.83061 0.12592 0.0
C1003 C 0.49833 0.81405 0.10326 0.0
C1004 C 0.49609 0.86143 0.12345 0.0
C1005 C 0.47781 0.83409 0.17494 0.0
C1006 C 0.47119 0.87905 0.12724 0.0
C1007 C 0.47305 0.90773 0.12177 0.0
C1008 C 0.49975 0.91929 0.11206 0.0
C1009 C 0.52489 0.90168 0.10893 0.0
C1010 C 0.52305 0.87302 0.11454 0.0
H1011 H 0.48 0.82021 0.1927 0.0
H1012 H 0.49426 0.85142 0.17686 0.0
H1013 H 0.4549 0.84324 0.17499 0.0
H1014 H 0.44994 0.87048 0.13348 0.0
H1015 H 0.45337 0.92073 0.12463 0.0
H1016 H 0.05803 0.43971 0.56583 0.0
H1017 H 0.04027 0.39125 0.56852 0.0
H1018 H 0.12235 0.36702 0.60869 0.0
H1019 H 0.13973 0.41552 0.60705 0.0
H1020 H 0.06699 0.34564 0.54581 0.0
H1021 H 0.05977 0.33031 0.65521 0.0
H1022 H 0.06286 0.36461 0.64017 0.0
H1023 H 0.09566 0.34301 0.64494 0.0
C1024 C 0.07204 0.42416 0.57569 0.0
C1025 C 0.10032 0.43144 0.58616 0.0
C1026 C 0.06192 0.39648 0.57711 0.0
C1027 C 0.0798 0.37564 0.58915 0.0
C1028 C 0.10791 0.38288 0.59983 0.0
H1029 H 0.08532 0.19547 0.59226 0.0
H1030 H 0.09354 0.24589 0.5986 0.0
C1031 C 0.118 0.41054 0.59849 0.0
C1032 C 0.07014 0.34595 0.58874 0.0
H1033 H 0.05887 0.28864 0.62835 0.0
C1034 C 0.06482 0.33327 0.56386 0.0
C1035 C 0.06743 0.32987 0.61235 0.0
C1036 C 0.07144 0.3427 0.63969 0.0
C1037 C 0.0578 0.30469 0.56188 0.0
C1038 C 0.05571 0.2885 0.58544 0.0
C1039 C 0.06056 0.3012 0.61036 0.0
C1040 C 0.04947 0.25809 0.58431 0.0
C1041 C 0.05363 0.29179 0.53456 0.0
C1042 C 0.0217 0.24839 0.57489 0.0
C1043 C 0.01697 0.21969 0.57116 0.0
C1044 C 0.03997 0.20022 0.57682 0.0
C1045 C 0.06733 0.20999 0.58739 0.0
C1046 C 0.072 0.23871 0.59118 0.0
H1047 H 0.06162 0.30583 0.51843 0.0
H1048 H 0.06579 0.27146 0.53323 0.0
H1049 H 0.02946 0.28766 0.53101 0.0
H1050 H 1.00398 0.26309 0.56972 0.0
H1051 H 0.99575 0.21289 0.56276 0.0
H1052 H 0.58715 0.29357 0.42401 0.0
H1053 H 0.57396 0.33415 0.45153 0.0
H1054 H 0.66714 0.35791 0.45563 0.0
H1055 H 0.68016 0.31757 0.42714 0.0
H1056 H 0.58723 0.35248 0.50015 0.0
H1057 H 0.63052 0.42863 0.42623 0.0
H1058 H 0.6275 0.39164 0.41913 0.0
H1059 H 0.65843 0.40469 0.43879 0.0
C1060 C 0.60486 0.30722 0.43121 0.0
C1061 C 0.63464 0.30247 0.42368 0.0
C1062 C 0.59731 0.33047 0.44688 0.0
C1063 C 0.6194 0.34957 0.4553 0.0
C1064 C 0.64953 0.34396 0.44887 0.0
H1065 H 0.57378 0.48485 0.56868 0.0
H1066 H 0.5937 0.44188 0.54861 0.0
C1067 C 0.65706 0.32073 0.43292 0.0
C1068 C 0.61035 0.37569 0.46981 0.0
H1069 H 0.61136 0.44742 0.46617 0.0
C1070 C 0.59263 0.37325 0.49276 0.0
C1071 C 0.61688 0.40289 0.46 0.0
C1072 C 0.63412 0.40724 0.43456 0.0
C1073 C 0.58109 0.39703 0.50594 0.0
C1074 C 0.5881 0.42423 0.49642 0.0
C1075 C 0.60608 0.42667 0.47364 0.0
C1076 C 0.57606 0.45041 0.50897 0.0
C1077 C 0.56051 0.39264 0.52929 0.0
C1078 C 0.56019 0.47013 0.49337 0.0
C1079 C 0.54921 0.49498 0.50472 0.0
C1080 C 0.5537 0.50072 0.53203 0.0
C1081 C 0.56958 0.48098 0.54766 0.0
C1082 C 0.58086 0.45625 0.53621 0.0
H1083 H 0.5506 0.37127 0.52915 0.0
H1084 H 0.5735 0.39498 0.54816 0.0
H1085 H 0.542 0.40829 0.52924 0.0
H1086 H 0.55618 0.46627 0.47232 0.0
H1087 H 0.53714 0.50968 0.49204 0.0
loop_
_geom_bond_atom_site_label_1
_geom_bond_atom_site_label_2
_geom_bond_distance
_geom_bond_site_symmetry_2
_ccdc_geom_bond_type
H0 C3 0.929 . S
H1 C6 0.929 . S
H2 C8 0.930 . S
C3 H0 0.929 . S
C3 C4 1.398 . S
C3 C5 1.396 . S
C4 C3 1.398 . S
C4 C8 1.407 . S
C5 C3 1.396 . S
C5 C6 1.394 . S
C6 H1 0.929 . S
C6 C5 1.394 . S
C6 C7 1.382 . S
C7 C6 1.382 . S
C7 C8 1.392 . S
C7 N9 1.420 . S
C8 H2 0.930 . S
C8 C4 1.407 . S
C8 C7 1.392 . S
N9 C7 1.420 . S
N9 C10 1.244 . S
C10 N9 1.244 . S
H11 C14 0.929 . S
H12 C17 0.929 . S
H13 C19 0.930 . S
C14 H11 0.929 . S
C14 C15 1.398 . S
C14 C16 1.396 . S
C15 C14 1.398 . S
C15 C19 1.407 . S
C16 C14 1.396 . S
C16 C17 1.394 . S
C17 H12 0.929 . S
C17 C16 1.394 . S
C17 C18 1.382 . S
C18 C17 1.382 . S
C18 C19 1.392 . S
C18 N20 1.420 . S
C19 H13 0.930 . S
C19 C15 1.407 . S
C19 C18 1.392 . S
N20 C18 1.420 . S
N20 C21 1.244 . S
C21 N20 1.244 . S
H22 C25 0.929 . S
H23 C28 0.929 . S
H24 C30 0.930 . S
C25 H22 0.929 . S
C25 C26 1.398 . S
C25 C27 1.396 . S
C26 C25 1.398 . S
C26 C30 1.407 . S
C27 C25 1.396 . S
C27 C28 1.394 . S
C28 H23 0.929 . S
C28 C27 1.394 . S
C28 C29 1.382 . S
C29 C28 1.382 . S
C29 C30 1.392 . S
C29 N31 1.420 . S
C30 H24 0.930 . S
C30 C26 1.407 . S
C30 C29 1.392 . S
N31 C29 1.420 . S
N31 C32 1.244 . S
C32 N31 1.244 . S
H33 C36 0.929 . S
H34 C39 0.929 . S
H35 C41 0.930 . S
C36 H33 0.929 . S
C36 C37 1.398 . S
C36 C38 1.396 . S
C37 C36 1.398 . S
C37 C41 1.407 . S
C38 C36 1.396 . S
C38 C39 1.394 . S
C39 H34 0.929 . S
C39 C38 1.394 . S
C39 C40 1.382 . S
C40 C39 1.382 . S
C40 C41 1.392 . S
C40 N42 1.420 . S
C41 H35 0.930 . S
C41 C37 1.407 . S
C41 C40 1.392 . S
N42 C40 1.420 . S
N42 C43 1.244 . S
C43 N42 1.244 . S
H44 C47 0.929 . S
H45 C50 0.929 . S
H46 C52 0.930 . S
C47 H44 0.929 . S
C47 C48 1.398 . S
C47 C49 1.396 . S
C48 C47 1.398 . S
C48 C52 1.407 . S
C49 C47 1.396 . S
C49 C50 1.394 . S
C50 H45 0.929 . S
C50 C49 1.394 . S
C50 C51 1.382 . S
C51 C50 1.382 . S
C51 C52 1.392 . S
C51 N53 1.420 . S
C52 H46 0.930 . S
C52 C48 1.407 . S
C52 C51 1.392 . S
N53 C51 1.420 . S
N53 C54 1.244 . S
C54 N53 1.244 . S
H55 C58 0.929 . S
H56 C61 0.929 . S
H57 C63 0.930 . S
C58 H55 0.929 . S
C58 C59 1.398 . S
C58 C60 1.396 . S
C59 C58 1.398 . S
C59 C63 1.407 . S
C60 C58 1.396 . S
C60 C61 1.394 . S
C61 H56 0.929 . S
C61 C60 1.394 . S
C61 C62 1.382 . S
C62 C61 1.382 . S
C62 C63 1.392 . S
C62 N64 1.420 . S
C63 H57 0.930 . S
C63 C59 1.407 . S
C63 C62 1.392 . S
N64 C62 1.420 . S
N64 C65 1.244 . S
C65 N64 1.244 . S
H66 C69 0.929 . S
H67 C72 0.929 . S
H68 C74 0.930 . S
C69 H66 0.929 . S
C69 C70 1.398 . S
C69 C71 1.396 . S
C70 C69 1.398 . S
C70 C74 1.407 . S
C71 C69 1.396 . S
C71 C72 1.394 . S
C72 H67 0.929 . S
C72 C71 1.394 . S
C72 C73 1.382 . S
C73 C72 1.382 . S
C73 C74 1.392 . S
C73 N75 1.420 . S
C74 H68 0.930 . S
C74 C70 1.407 . S
C74 C73 1.392 . S
N75 C73 1.420 . S
N75 C76 1.244 . S
C76 N75 1.244 . S
H77 C80 0.929 . S
H78 C83 0.929 . S
H79 C85 0.930 . S
C80 H77 0.929 . S
C80 C81 1.398 . S
C80 C82 1.396 . S
C81 C80 1.398 . S
C81 C85 1.407 . S
C82 C80 1.396 . S
C82 C83 1.394 . S
C83 H78 0.929 . S
C83 C82 1.394 . S
C83 C84 1.382 . S
C84 C83 1.382 . S
C84 C85 1.392 . S
C84 N86 1.420 . S
C85 H79 0.930 . S
C85 C81 1.407 . S
C85 C84 1.392 . S
N86 C84 1.420 . S
N86 C87 1.244 . S
C87 N86 1.244 . S
C88 O104 1.251 . S
C88 O106 1.254 . S
N89 C90 1.333 . S
N89 C94 1.307 . S
N89 Zn95 2.020 . S
C90 N89 1.333 . S
C90 C91 1.379 . S
C90 H108 0.952 . S
C91 C90 1.379 . S
C91 C92 1.390 . S
C91 H118 0.949 . S
C92 C91 1.390 . S
C92 C93 1.357 . S
C93 C92 1.357 . S
C93 C94 1.370 . S
C93 H119 0.950 . S
C94 N89 1.307 . S
C94 C93 1.370 . S
C94 H112 0.948 . S
Zn95 N89 2.020 . S
Zn95 O104 2.039 . S
Zn95 O110 2.034 . S
Zn95 O114 2.025 . S
Zn95 O116 2.024 1_455 S
C96 O115 1.246 . S
C96 O116 1.249 . S
N97 C98 1.307 . S
N97 C99 1.333 . S
N97 Zn103 2.016 1_665 S
C98 N97 1.307 . S
C98 C102 1.370 . S
C98 H109 0.948 1_655 S
C99 N97 1.333 . S
C99 C100 1.379 . S
C99 H107 0.952 . S
C100 C99 1.379 . S
C100 C101 1.390 . S
C100 H120 0.949 . S
C101 C100 1.390 . S
C101 C102 1.357 . S
C102 C98 1.370 . S
C102 C101 1.357 . S
C102 H121 0.971 . S
Zn103 N97 2.016 1_445 S
Zn103 O106 2.031 . S
Zn103 O111 2.039 . S
Zn103 O113 2.035 1_455 S
Zn103 O115 2.020 1_455 S
O104 C88 1.251 . S
O104 Zn95 2.039 . S
C105 O110 1.246 . S
C105 O111 1.249 . S
O106 C88 1.254 . S
O106 Zn103 2.031 . S
H107 C99 0.952 . S
H108 C90 0.952 . S
H109 C98 0.948 1_455 S
O110 Zn95 2.034 . S
O110 C105 1.246 . S
O111 Zn103 2.039 . S
O111 C105 1.249 . S
H112 C94 0.948 . S
O113 Zn103 2.035 1_655 S
O113 C117 1.251 . S
O114 Zn95 2.025 . S
O114 C117 1.254 1_455 S
O115 C96 1.246 . S
O115 Zn103 2.020 1_655 S
O116 Zn95 2.024 1_655 S
O116 C96 1.249 . S
C117 O113 1.251 . S
C117 O114 1.254 1_655 S
H118 C91 0.949 . S
H119 C93 0.950 . S
H120 C100 0.949 . S
H121 C102 0.971 . S
C122 O138 1.251 . S
C122 O140 1.254 . S
N123 C124 1.333 . S
N123 C128 1.307 . S
N123 Zn129 2.020 . S
C124 N123 1.333 . S
C124 C125 1.379 . S
C124 H142 0.952 . S
C125 C124 1.379 . S
C125 C126 1.390 1_554 S
C125 H152 0.949 . S
C126 C125 1.390 1_556 S
C126 C127 1.357 . S
C127 C126 1.357 . S
C127 C128 1.370 1_556 S
C127 H153 0.950 . S
C128 N123 1.307 . S
C128 C127 1.370 1_554 S
C128 H146 0.948 1_554 S
Zn129 N123 2.020 . S
Zn129 O138 2.039 . S
Zn129 O144 2.034 . S
Zn129 O148 2.025 . S
Zn129 O150 2.024 1_554 S
C130 O149 1.246 1_556 S
C130 O150 1.249 . S
N131 C132 1.307 . S
N131 C133 1.333 . S
N131 Zn137 2.020 1_565 S
C132 N131 1.307 . S
C132 C136 1.370 . S
C132 H143 0.948 . S
C133 N131 1.333 . S
C133 C134 1.379 . S
C133 H141 0.952 . S
C134 C133 1.379 . S
C134 C135 1.390 . S
C134 H154 0.949 . S
C135 C134 1.390 . S
C135 C136 1.357 . S
C136 C132 1.370 . S
C136 C135 1.357 . S
C136 H155 0.950 . S
Zn137 N131 2.020 1_545 S
Zn137 O140 2.025 . S
Zn137 O145 2.024 . S
Zn137 O147 2.039 . S
Zn137 O149 2.034 . S
O138 C122 1.251 . S
O138 Zn129 2.039 . S
C139 O144 1.246 . S
C139 O145 1.249 . S
O140 C122 1.254 . S
O140 Zn137 2.025 . S
H141 C133 0.952 . S
H142 C124 0.952 . S
H143 C132 0.948 . S
O144 Zn129 2.034 . S
O144 C139 1.246 . S
O145 Zn137 2.024 . S
O145 C139 1.249 . S
H146 C128 0.948 1_556 S
O147 Zn137 2.039 . S
O147 C151 1.251 . S
O148 Zn129 2.025 . S
O148 C151 1.254 . S
O149 C130 1.246 1_554 S
O149 Zn137 2.034 . S
O150 Zn129 2.024 1_556 S
O150 C130 1.249 . S
C151 O147 1.251 . S
C151 O148 1.254 . S
H152 C125 0.949 . S
H153 C127 0.950 . S
H154 C134 0.949 . S
H155 C136 0.950 . S
C156 O172 1.251 . S
C156 O174 1.254 . S
N157 C158 1.333 . S
N157 C162 1.307 . S
N157 Zn163 2.020 . S
C158 N157 1.333 . S
C158 C159 1.379 . S
C158 H176 0.952 . S
C159 C158 1.379 . S
C159 C160 1.390 . S
C159 H186 0.949 . S
C160 C159 1.390 . S
C160 C161 1.357 . S
C161 C160 1.357 . S
C161 C162 1.370 . S
C161 H187 0.950 . S
C162 N157 1.307 . S
C162 C161 1.370 . S
C162 H180 0.948 . S
Zn163 N157 2.020 . S
Zn163 O172 2.039 . S
Zn163 O178 2.034 . S
Zn163 O182 2.025 . S
Zn163 O184 2.024 . S
C164 O183 1.246 . S
C164 O184 1.249 . S
N165 C166 1.307 . S
N165 C167 1.333 . S
N165 Zn171 2.020 . S
C166 N165 1.307 . S
C166 C170 1.370 . S
C166 H177 0.948 . S
C167 N165 1.333 . S
C167 C168 1.379 . S
C167 H175 0.952 . S
C168 C167 1.379 . S
C168 C169 1.390 . S
C168 H188 0.949 . S
C169 C168 1.390 . S
C169 C170 1.357 . S
C170 C166 1.370 . S
C170 C169 1.357 . S
C170 H189 0.950 . S
Zn171 N165 2.020 . S
Zn171 O174 2.025 . S
Zn171 O179 2.024 . S
Zn171 O181 2.039 . S
Zn171 O183 2.034 . S
O172 C156 1.251 . S
O172 Zn163 2.039 . S
C173 O178 1.246 . S
C173 O179 1.249 . S
O174 C156 1.254 . S
O174 Zn171 2.025 . S
H175 C167 0.952 . S
H176 C158 0.952 . S
H177 C166 0.948 . S
O178 Zn163 2.034 . S
O178 C173 1.246 . S
O179 Zn171 2.024 . S
O179 C173 1.249 . S
H180 C162 0.948 . S
O181 Zn171 2.039 . S
O181 C185 1.251 . S
O182 Zn163 2.025 . S
O182 C185 1.254 . S
O183 C164 1.246 . S
O183 Zn171 2.034 . S
O184 Zn163 2.024 . S
O184 C164 1.249 . S
C185 O181 1.251 . S
C185 O182 1.254 . S
H186 C159 0.949 . S
H187 C161 0.950 . S
H188 C168 0.949 . S
H189 C170 0.950 . S
C190 O206 1.253 1_556 S
C190 O208 1.249 1_655 S
N191 C192 1.333 . S
N191 C196 1.307 . S
N191 Zn197 2.020 1_655 S
C192 N191 1.333 . S
C192 C193 1.379 . S
C192 H210 0.952 . S
C193 C192 1.379 . S
C193 C194 1.390 . S
C193 H220 0.949 . S
C194 C193 1.390 . S
C194 C195 1.357 . S
C195 C194 1.357 . S
C195 C196 1.370 . S
C195 H221 0.950 . S
C196 N191 1.307 . S
C196 C195 1.370 . S
C196 H214 0.948 . S
Zn197 N191 2.020 1_455 S
Zn197 O206 2.039 1_455 S
Zn197 O212 2.034 . S
Zn197 O216 2.025 . S
Zn197 O218 2.024 1_455 S
C198 O217 1.246 . S
C198 O218 1.249 1_556 S
N199 C200 1.307 . S
N199 C201 1.333 . S
N199 Zn205 2.020 . S
C200 N199 1.307 . S
C200 C204 1.370 . S
C200 H211 0.948 . S
C201 N199 1.333 . S
C201 C202 1.379 . S
C201 H209 0.952 . S
C202 C201 1.379 . S
C202 C203 1.390 . S
C202 H222 0.949 . S
C203 C202 1.390 . S
C203 C204 1.357 . S
C204 C200 1.370 . S
C204 C203 1.357 . S
C204 H223 0.950 . S
Zn205 N199 2.020 . S
Zn205 O208 2.025 . S
Zn205 O213 2.034 . S
Zn205 O215 2.045 . S
Zn205 O217 2.034 1_455 S
O206 C190 1.253 1_554 S
O206 Zn197 2.039 1_655 S
C207 O212 1.246 . S
C207 O213 1.228 1_554 S
O208 C190 1.249 1_455 S
O208 Zn205 2.025 . S
H209 C201 0.952 . S
H210 C192 0.952 . S
H211 C200 0.948 . S
O212 Zn197 2.034 . S
O212 C207 1.246 . S
O213 Zn205 2.034 . S
O213 C207 1.228 1_556 S
H214 C196 0.948 . S
O215 Zn205 2.045 . S
O215 C219 1.238 1_556 S
O216 Zn197 2.025 . S
O216 C219 1.254 . S
O217 C198 1.246 . S
O217 Zn205 2.034 1_655 S
O218 Zn197 2.024 1_655 S
O218 C198 1.249 1_554 S
C219 O215 1.238 1_554 S
C219 O216 1.254 . S
H220 C193 0.949 . S
H221 C195 0.950 . S
H222 C202 0.949 . S
H223 C204 0.950 . S
H224 C232 0.929 . S
H225 C234 0.930 . S
H226 C236 0.930 . S
H227 C239 0.929 . S
H228 C242 0.930 . S
H229 C244 0.960 . S
H230 C244 0.960 . S
H231 C244 0.960 . S
C232 H224 0.929 . S
C232 C233 1.377 . S
C232 C234 1.384 . S
C233 C232 1.377 . S
C233 C239 1.390 . S
C234 H225 0.930 . S
C234 C232 1.384 . S
C234 C235 1.372 . S
C235 C234 1.372 . S
C235 C236 1.400 . S
C235 C240 1.490 . S
C236 H226 0.930 . S
C236 C235 1.400 . S
C236 C239 1.386 . S
H237 C253 0.908 1_655 S
H238 C254 0.931 . S
C239 H227 0.929 . S
C239 C233 1.390 . S
C239 C236 1.386 . S
C240 C235 1.490 . S
C240 C242 1.395 . S
C240 C243 1.403 . S
H241 C247 0.930 . S
C242 H228 0.930 . S
C242 C240 1.395 . S
C242 C245 1.403 . S
C243 C240 1.403 . S
C243 C244 1.524 . S
C243 C247 1.400 . S
C244 H229 0.960 . S
C244 H230 0.960 . S
C244 H231 0.960 . S
C244 C243 1.524 . S
C245 C242 1.403 . S
C245 C246 1.392 . S
C245 C249 1.495 . S
C246 C245 1.392 . S
C246 C247 1.385 . S
C246 C248 1.478 . S
C247 H241 0.930 . S
C247 C243 1.400 . S
C247 C246 1.385 . S
C248 C246 1.478 . S
C248 C250 1.381 . S
C248 C254 1.383 . S
C249 C245 1.495 . S
C249 H255 0.959 . S
C249 H256 0.961 . S
C249 H257 0.960 . S
C250 C248 1.381 . S
C250 C251 1.394 . S
C250 H258 0.930 . S
C251 C250 1.394 . S
C251 C252 1.383 . S
C251 H259 0.929 . S
C252 C251 1.383 . S
C252 C253 1.377 . S
C253 H237 0.908 1_455 S
C253 C252 1.377 . S
C253 C254 1.379 . S
C254 H238 0.931 . S
C254 C248 1.383 . S
C254 C253 1.379 . S
H255 C249 0.959 . S
H256 C249 0.961 . S
H257 C249 0.960 . S
H258 C250 0.930 . S
H259 C251 0.929 . S
H260 C268 0.929 . S
H261 C270 0.930 . S
H262 C272 0.930 . S
H263 C275 0.929 . S
H264 C278 0.930 . S
H265 C280 0.960 . S
H266 C280 0.960 . S
H267 C280 0.960 . S
C268 H260 0.929 . S
C268 C269 1.377 . S
C268 C270 1.384 . S
C269 C268 1.377 . S
C269 C275 1.390 . S
C270 H261 0.930 . S
C270 C268 1.384 . S
C270 C271 1.372 . S
C271 C270 1.372 . S
C271 C272 1.400 . S
C271 C276 1.490 . S
C272 H262 0.930 . S
C272 C271 1.400 . S
C272 C275 1.386 . S
H273 C289 0.930 . S
H274 C290 0.931 . S
C275 H263 0.929 . S
C275 C269 1.390 . S
C275 C272 1.386 . S
C276 C271 1.490 . S
C276 C278 1.395 . S
C276 C279 1.403 . S
H277 C283 0.930 . S
C278 H264 0.930 . S
C278 C276 1.395 . S
C278 C281 1.403 . S
C279 C276 1.403 . S
C279 C280 1.524 1_565 S
C279 C283 1.400 1_565 S
C280 H265 0.960 . S
C280 H266 0.960 . S
C280 H267 0.960 . S
C280 C279 1.524 1_545 S
C281 C278 1.403 . S
C281 C282 1.392 . S
C281 C285 1.495 . S
C282 C281 1.392 . S
C282 C283 1.385 1_565 S
C282 C284 1.478 . S
C283 H277 0.930 . S
C283 C279 1.400 1_545 S
C283 C282 1.385 1_545 S
C284 C282 1.478 . S
C284 C286 1.381 . S
C284 C290 1.383 . S
C285 C281 1.495 . S
C285 H291 0.959 . S
C285 H292 0.961 . S
C285 H293 0.960 . S
C286 C284 1.381 . S
C286 C287 1.394 1_565 S
C286 H294 0.930 . S
C287 C286 1.394 1_545 S
C287 C288 1.383 . S
C287 H295 0.929 . S
C288 C287 1.383 . S
C288 C289 1.377 . S
C289 H273 0.930 . S
C289 C288 1.377 . S
C289 C290 1.379 1_545 S
C290 H274 0.931 . S
C290 C284 1.383 . S
C290 C289 1.379 1_565 S
H291 C285 0.959 . S
H292 C285 0.961 . S
H293 C285 0.960 . S
H294 C286 0.930 . S
H295 C287 0.929 . S
H296 C304 0.929 . S
H297 C306 0.930 . S
H298 C308 0.930 . S
H299 C311 0.929 . S
H300 C314 0.930 . S
H301 C316 0.960 . S
H302 C316 0.960 . S
H303 C316 0.960 . S
C304 H296 0.929 . S
C304 C305 1.377 . S
C304 C306 1.384 . S
C305 C304 1.377 . S
C305 C311 1.390 . S
C306 H297 0.930 . S
C306 C304 1.384 . S
C306 C307 1.372 . S
C307 C306 1.372 . S
C307 C308 1.400 . S
C307 C312 1.490 . S
C308 H298 0.930 . S
C308 C307 1.400 . S
C308 C311 1.386 . S
H309 C325 0.930 . S
H310 C326 0.931 . S
C311 H299 0.929 . S
C311 C305 1.390 . S
C311 C308 1.386 . S
C312 C307 1.490 . S
C312 C314 1.395 . S
C312 C315 1.403 . S
H313 C319 0.930 . S
C314 H300 0.930 . S
C314 C312 1.395 . S
C314 C317 1.403 . S
C315 C312 1.403 . S
C315 C316 1.524 . S
C315 C319 1.400 . S
C316 H301 0.960 . S
C316 H302 0.960 . S
C316 H303 0.960 . S
C316 C315 1.524 . S
C317 C314 1.403 . S
C317 C318 1.392 . S
C317 C321 1.495 . S
C318 C317 1.392 . S
C318 C319 1.385 . S
C318 C320 1.478 . S
C319 H313 0.930 . S
C319 C315 1.400 . S
C319 C318 1.385 . S
C320 C318 1.478 . S
C320 C322 1.381 . S
C320 C326 1.383 . S
C321 C317 1.495 . S
C321 H327 0.959 . S
C321 H328 0.961 . S
C321 H329 0.960 . S
C322 C320 1.381 . S
C322 C323 1.394 . S
C322 H330 0.930 . S
C323 C322 1.394 . S
C323 C324 1.383 . S
C323 H331 0.929 . S
C324 C323 1.383 . S
C324 C325 1.377 . S
C325 H309 0.930 . S
C325 C324 1.377 . S
C325 C326 1.379 . S
C326 H310 0.931 . S
C326 C320 1.383 . S
C326 C325 1.379 . S
H327 C321 0.959 . S
H328 C321 0.961 . S
H329 C321 0.960 . S
H330 C322 0.930 . S
H331 C323 0.929 . S
H332 C340 0.929 . S
H333 C342 0.930 . S
H334 C344 0.930 . S
H335 C347 0.929 . S
H336 C350 0.930 . S
H337 C352 0.960 . S
H338 C352 0.960 . S
H339 C352 0.960 . S
C340 H332 0.929 . S
C340 C341 1.377 . S
C340 C342 1.384 . S
C341 C340 1.377 . S
C341 C347 1.390 . S
C342 H333 0.930 . S
C342 C340 1.384 . S
C342 C343 1.372 . S
C343 C342 1.372 . S
C343 C344 1.400 . S
C343 C348 1.490 . S
C344 H334 0.930 . S
C344 C343 1.400 . S
C344 C347 1.386 . S
H345 C361 0.930 . S
H346 C362 0.931 . S
C347 H335 0.929 . S
C347 C341 1.390 . S
C347 C344 1.386 . S
C348 C343 1.490 . S
C348 C350 1.395 . S
C348 C351 1.403 . S
H349 C355 0.930 . S
C350 H336 0.930 . S
C350 C348 1.395 . S
C350 C353 1.403 . S
C351 C348 1.403 . S
C351 C352 1.524 . S
C351 C355 1.400 . S
C352 H337 0.960 . S
C352 H338 0.960 . S
C352 H339 0.960 . S
C352 C351 1.524 . S
C353 C350 1.403 . S
C353 C354 1.392 . S
C353 C357 1.495 . S
C354 C353 1.392 . S
C354 C355 1.385 . S
C354 C356 1.478 . S
C355 H349 0.930 . S
C355 C351 1.400 . S
C355 C354 1.385 . S
C356 C354 1.478 . S
C356 C358 1.381 . S
C356 C362 1.383 . S
C357 C353 1.495 . S
C357 H363 0.959 . S
C357 H364 0.961 . S
C357 H365 0.960 . S
C358 C356 1.381 . S
C358 C359 1.394 . S
C358 H366 0.930 . S
C359 C358 1.394 . S
C359 C360 1.383 . S
C359 H367 0.929 . S
C360 C359 1.383 . S
C360 C361 1.377 . S
C361 H345 0.930 . S
C361 C360 1.377 . S
C361 C362 1.379 . S
C362 H346 0.931 . S
C362 C356 1.383 . S
C362 C361 1.379 . S
H363 C357 0.959 . S
H364 C357 0.961 . S
H365 C357 0.960 . S
H366 C358 0.930 . S
H367 C359 0.929 . S
H368 C376 0.929 . S
H369 C378 0.930 . S
H370 C380 0.930 . S
H371 C383 0.929 . S
H372 C386 0.930 . S
H373 C388 0.960 . S
H374 C388 0.960 . S
H375 C388 0.960 . S
C376 H368 0.929 . S
C376 C377 1.377 . S
C376 C378 1.384 . S
C377 C376 1.377 . S
C377 C383 1.390 . S
C378 H369 0.930 . S
C378 C376 1.384 . S
C378 C379 1.372 . S
C379 C378 1.372 . S
C379 C380 1.400 . S
C379 C384 1.490 . S
C380 H370 0.930 . S
C380 C379 1.400 . S
C380 C383 1.386 . S
H381 C397 0.930 . S
H382 C398 0.931 . S
C383 H371 0.929 . S
C383 C377 1.390 . S
C383 C380 1.386 . S
C384 C379 1.490 . S
C384 C386 1.395 . S
C384 C387 1.403 . S
H385 C391 0.930 . S
C386 H372 0.930 . S
C386 C384 1.395 . S
C386 C389 1.403 . S
C387 C384 1.403 . S
C387 C388 1.524 . S
C387 C391 1.400 . S
C388 H373 0.960 . S
C388 H374 0.960 . S
C388 H375 0.960 . S
C388 C387 1.524 . S
C389 C386 1.403 . S
C389 C390 1.392 . S
C389 C393 1.495 . S
C390 C389 1.392 . S
C390 C391 1.385 . S
C390 C392 1.478 . S
C391 H385 0.930 . S
C391 C387 1.400 . S
C391 C390 1.385 . S
C392 C390 1.478 . S
C392 C394 1.381 . S
C392 C398 1.383 . S
C393 C389 1.495 . S
C393 H399 0.959 . S
C393 H400 0.961 . S
C393 H401 0.960 . S
C394 C392 1.381 . S
C394 C395 1.394 . S
C394 H402 0.930 . S
C395 C394 1.394 . S
C395 C396 1.383 . S
C395 H403 0.929 . S
C396 C395 1.383 . S
C396 C397 1.377 . S
C397 H381 0.930 . S
C397 C396 1.377 . S
C397 C398 1.379 . S
C398 H382 0.931 . S
C398 C392 1.383 . S
C398 C397 1.379 . S
H399 C393 0.959 . S
H400 C393 0.961 . S
H401 C393 0.960 . S
H402 C394 0.930 . S
H403 C395 0.929 . S
H404 C412 0.929 . S
H405 C414 0.930 . S
H406 C416 0.930 . S
H407 C419 0.929 . S
H408 C422 0.930 . S
H409 C424 0.960 . S
H410 C424 0.960 . S
H411 C424 0.960 . S
C412 H404 0.929 . S
C412 C413 1.377 . S
C412 C414 1.384 . S
C413 C412 1.377 . S
C413 C419 1.390 . S
C414 H405 0.930 . S
C414 C412 1.384 . S
C414 C415 1.372 . S
C415 C414 1.372 . S
C415 C416 1.400 . S
C415 C420 1.490 . S
C416 H406 0.930 . S
C416 C415 1.400 . S
C416 C419 1.386 . S
H417 C433 0.933 . S
H418 C434 0.931 . S
C419 H407 0.929 . S
C419 C413 1.390 . S
C419 C416 1.386 . S
C420 C415 1.490 . S
C420 C422 1.395 . S
C420 C423 1.403 1_565 S
H421 C427 0.930 . S
C422 H408 0.930 . S
C422 C420 1.395 . S
C422 C425 1.403 . S
C423 C420 1.403 1_545 S
C423 C424 1.524 . S
C423 C427 1.400 . S
C424 H409 0.960 . S
C424 H410 0.960 . S
C424 H411 0.960 . S
C424 C423 1.524 . S
C425 C422 1.403 . S
C425 C426 1.392 . S
C425 C429 1.495 . S
C426 C425 1.392 . S
C426 C427 1.385 1_565 S
C426 C428 1.476 . S
C427 H421 0.930 . S
C427 C423 1.400 . S
C427 C426 1.385 1_545 S
C428 C426 1.476 . S
C428 C430 1.384 1_565 S
C428 C434 1.382 . S
C429 C425 1.495 . S
C429 H435 0.959 . S
C429 H436 0.961 . S
C429 H437 0.960 . S
C430 C428 1.384 1_545 S
C430 C431 1.394 . S
C430 H438 0.930 . S
C431 C430 1.394 . S
C431 C432 1.383 . S
C431 H439 0.929 . S
C432 C431 1.383 . S
C432 C433 1.369 1_545 S
C433 H417 0.933 . S
C433 C432 1.369 1_565 S
C433 C434 1.384 . S
C434 H418 0.931 . S
C434 C428 1.382 . S
C434 C433 1.384 . S
H435 C429 0.959 . S
H436 C429 0.961 . S
H437 C429 0.960 . S
H438 C430 0.930 . S
H439 C431 0.929 . S
H440 C448 0.929 . S
H441 C450 0.930 . S
H442 C452 0.930 . S
H443 C455 0.929 . S
H444 C458 0.930 . S
H445 C460 0.960 1_554 S
H446 C460 0.935 1_554 S
H447 C460 0.960 . S
C448 H440 0.929 . S
C448 C449 1.377 . S
C448 C450 1.384 . S
C449 C448 1.377 . S
C449 C455 1.390 . S
C450 H441 0.930 . S
C450 C448 1.384 . S
C450 C451 1.372 . S
C451 C450 1.372 . S
C451 C452 1.400 . S
C451 C456 1.490 . S
C452 H442 0.930 . S
C452 C451 1.400 . S
C452 C455 1.386 . S
H453 C469 0.930 . S
H454 C470 0.931 . S
C455 H443 0.929 . S
C455 C449 1.390 . S
C455 C452 1.386 . S
C456 C451 1.490 . S
C456 C458 1.395 . S
C456 C459 1.403 . S
H457 C463 0.930 . S
C458 H444 0.930 . S
C458 C456 1.395 . S
C458 C461 1.403 . S
C459 C456 1.403 . S
C459 C460 1.524 . S
C459 C463 1.400 . S
C460 H445 0.960 1_556 S
C460 H446 0.935 1_556 S
C460 H447 0.960 . S
C460 C459 1.524 . S
C461 C458 1.403 . S
C461 C462 1.392 . S
C461 C465 1.495 . S
C462 C461 1.392 . S
C462 C463 1.385 . S
C462 C464 1.478 . S
C463 H457 0.930 . S
C463 C459 1.400 . S
C463 C462 1.385 . S
C464 C462 1.478 . S
C464 C466 1.381 . S
C464 C470 1.383 . S
C465 C461 1.495 . S
C465 H471 0.959 . S
C465 H472 0.961 . S
C465 H473 0.960 . S
C466 C464 1.381 . S
C466 C467 1.394 . S
C466 H474 0.930 . S
C467 C466 1.394 . S
C467 C468 1.383 . S
C467 H475 0.929 1_556 S
C468 C467 1.383 . S
C468 C469 1.377 . S
C469 H453 0.930 . S
C469 C468 1.377 . S
C469 C470 1.379 . S
C470 H454 0.931 . S
C470 C464 1.383 . S
C470 C469 1.379 . S
H471 C465 0.959 . S
H472 C465 0.961 . S
H473 C465 0.960 . S
H474 C466 0.930 . S
H475 C467 0.929 1_554 S
H476 C484 0.929 . S
H477 C486 0.930 . S
H478 C488 0.930 . S
H479 C491 0.929 . S
H480 C494 0.930 . S
H481 C496 0.960 . S
H482 C496 0.960 . S
H483 C496 0.960 . S
C484 H476 0.929 . S
C484 C485 1.377 . S
C484 C486 1.384 . S
C485 C484 1.377 . S
C485 C491 1.390 . S
C486 H477 0.930 . S
C486 C484 1.384 . S
C486 C487 1.372 . S
C487 C486 1.372 . S
C487 C488 1.400 . S
C487 C492 1.490 . S
C488 H478 0.930 . S
C488 C487 1.400 . S
C488 C491 1.386 . S
H489 C505 0.930 . S
H490 C506 0.931 . S
C491 H479 0.929 . S
C491 C485 1.390 . S
C491 C488 1.386 . S
C492 C487 1.490 . S
C492 C494 1.395 . S
C492 C495 1.403 . S
H493 C499 0.930 . S
C494 H480 0.930 . S
C494 C492 1.395 . S
C494 C497 1.403 . S
C495 C492 1.403 . S
C495 C496 1.524 . S
C495 C499 1.400 . S
C496 H481 0.960 . S
C496 H482 0.960 . S
C496 H483 0.960 . S
C496 C495 1.524 . S
C497 C494 1.403 . S
C497 C498 1.392 . S
C497 C501 1.495 . S
C498 C497 1.392 . S
C498 C499 1.385 . S
C498 C500 1.478 . S
C499 H493 0.930 . S
C499 C495 1.400 . S
C499 C498 1.385 . S
C500 C498 1.478 . S
C500 C502 1.381 . S
C500 C506 1.383 . S
C501 C497 1.495 . S
C501 H507 0.959 . S
C501 H508 0.961 . S
C501 H509 0.960 . S
C502 C500 1.381 . S
C502 C503 1.394 . S
C502 H510 0.930 . S
C503 C502 1.394 . S
C503 C504 1.383 . S
C503 H511 0.929 . S
C504 C503 1.383 . S
C504 C505 1.377 . S
C505 H489 0.930 . S
C505 C504 1.377 . S
C505 C506 1.379 . S
C506 H490 0.931 . S
C506 C500 1.383 . S
C506 C505 1.379 . S
H507 C501 0.959 . S
H508 C501 0.961 . S
H509 C501 0.960 . S
H510 C502 0.930 . S
H511 C503 0.929 . S
H512 C520 0.929 . S
H513 C522 0.930 . S
H514 C524 0.930 . S
H515 C527 0.929 . S
H516 C530 0.930 . S
H517 C532 0.960 . S
H518 C532 0.960 . S
H519 C532 0.960 . S
C520 H512 0.929 . S
C520 C521 1.377 . S
C520 C522 1.384 . S
C521 C520 1.377 . S
C521 C527 1.390 . S
C522 H513 0.930 . S
C522 C520 1.384 . S
C522 C523 1.372 . S
C523 C522 1.372 . S
C523 C524 1.400 . S
C523 C528 1.490 . S
C524 H514 0.930 . S
C524 C523 1.400 . S
C524 C527 1.386 . S
H525 C541 0.930 . S
H526 C542 0.931 . S
C527 H515 0.929 . S
C527 C521 1.390 . S
C527 C524 1.386 . S
C528 C523 1.490 . S
C528 C530 1.395 . S
C528 C531 1.403 . S
H529 C535 0.930 . S
C530 H516 0.930 . S
C530 C528 1.395 . S
C530 C533 1.403 . S
C531 C528 1.403 . S
C531 C532 1.524 . S
C531 C535 1.400 . S
C532 H517 0.960 . S
C532 H518 0.960 . S
C532 H519 0.960 . S
C532 C531 1.524 . S
C533 C530 1.403 . S
C533 C534 1.392 . S
C533 C537 1.495 . S
C534 C533 1.392 . S
C534 C535 1.385 . S
C534 C536 1.478 . S
C535 H529 0.930 . S
C535 C531 1.400 . S
C535 C534 1.385 . S
C536 C534 1.478 . S
C536 C538 1.381 . S
C536 C542 1.383 . S
C537 C533 1.495 . S
C537 H543 0.959 . S
C537 H544 0.961 . S
C537 H545 0.960 . S
C538 C536 1.381 . S
C538 C539 1.394 . S
C538 H546 0.930 . S
C539 C538 1.394 . S
C539 C540 1.383 . S
C539 H547 0.929 . S
C540 C539 1.383 . S
C540 C541 1.377 . S
C541 H525 0.930 . S
C541 C540 1.377 . S
C541 C542 1.379 . S
C542 H526 0.931 . S
C542 C536 1.383 . S
C542 C541 1.379 . S
H543 C537 0.959 . S
H544 C537 0.961 . S
H545 C537 0.960 . S
H546 C538 0.930 . S
H547 C539 0.929 . S
H548 C556 0.929 . S
H549 C558 0.930 . S
H550 C560 0.930 . S
H551 C563 0.929 . S
H552 C566 0.930 . S
H553 C568 0.960 . S
H554 C568 0.960 . S
H555 C568 0.960 . S
C556 H548 0.929 . S
C556 C557 1.377 . S
C556 C558 1.384 . S
C557 C556 1.377 . S
C557 C563 1.390 . S
C558 H549 0.930 . S
C558 C556 1.384 . S
C558 C559 1.372 . S
C559 C558 1.372 . S
C559 C560 1.400 . S
C559 C564 1.490 . S
C560 H550 0.930 . S
C560 C559 1.400 . S
C560 C563 1.386 . S
H561 C577 0.930 . S
H562 C578 0.931 . S
C563 H551 0.929 . S
C563 C557 1.390 . S
C563 C560 1.386 . S
C564 C559 1.490 . S
C564 C566 1.395 . S
C564 C567 1.403 . S
H565 C571 0.930 . S
C566 H552 0.930 . S
C566 C564 1.395 . S
C566 C569 1.403 . S
C567 C564 1.403 . S
C567 C568 1.524 . S
C567 C571 1.400 . S
C568 H553 0.960 . S
C568 H554 0.960 . S
C568 H555 0.960 . S
C568 C567 1.524 . S
C569 C566 1.403 . S
C569 C570 1.392 . S
C569 C573 1.495 . S
C570 C569 1.392 . S
C570 C571 1.385 . S
C570 C572 1.478 . S
C571 H565 0.930 . S
C571 C567 1.400 . S
C571 C570 1.385 . S
C572 C570 1.478 . S
C572 C574 1.381 . S
C572 C578 1.383 . S
C573 C569 1.495 . S
C573 H579 0.959 . S
C573 H580 0.961 . S
C573 H581 0.960 . S
C574 C572 1.381 . S
C574 C575 1.394 1_556 S
C574 H582 0.930 1_556 S
C575 C574 1.394 1_554 S
C575 C576 1.383 1_554 S
C575 H583 0.929 . S
C576 C575 1.383 1_556 S
C576 C577 1.377 . S
C577 H561 0.930 . S
C577 C576 1.377 . S
C577 C578 1.379 . S
C578 H562 0.931 . S
C578 C572 1.383 . S
C578 C577 1.379 . S
H579 C573 0.959 . S
H580 C573 0.961 . S
H581 C573 0.960 . S
H582 C574 0.930 1_554 S
H583 C575 0.929 . S
H584 C592 0.929 . S
H585 C594 0.930 . S
H586 C596 0.930 . S
H587 C599 0.929 . S
H588 C602 0.930 . S
H589 C604 0.960 . S
H590 C604 0.960 . S
H591 C604 0.960 . S
C592 H584 0.929 . S
C592 C593 1.377 . S
C592 C594 1.384 . S
C593 C592 1.377 . S
C593 C599 1.390 . S
C594 H585 0.930 . S
C594 C592 1.384 . S
C594 C595 1.372 . S
C595 C594 1.372 . S
C595 C596 1.400 . S
C595 C600 1.490 . S
C596 H586 0.930 . S
C596 C595 1.400 . S
C596 C599 1.386 . S
H597 C613 0.930 . S
H598 C614 0.931 . S
C599 H587 0.929 . S
C599 C593 1.390 . S
C599 C596 1.386 . S
C600 C595 1.490 . S
C600 C602 1.395 . S
C600 C603 1.403 . S
H601 C607 0.930 . S
C602 H588 0.930 . S
C602 C600 1.395 . S
C602 C605 1.403 . S
C603 C600 1.403 . S
C603 C604 1.524 . S
C603 C607 1.400 . S
C604 H589 0.960 . S
C604 H590 0.960 . S
C604 H591 0.960 . S
C604 C603 1.524 . S
C605 C602 1.403 . S
C605 C606 1.392 . S
C605 C609 1.495 . S
C606 C605 1.392 . S
C606 C607 1.385 . S
C606 C608 1.478 . S
C607 H601 0.930 . S
C607 C603 1.400 . S
C607 C606 1.385 . S
C608 C606 1.478 . S
C608 C610 1.381 . S
C608 C614 1.383 . S
C609 C605 1.495 . S
C609 H615 0.959 . S
C609 H616 0.961 . S
C609 H617 0.960 . S
C610 C608 1.381 . S
C610 C611 1.394 . S
C610 H618 0.930 . S
C611 C610 1.394 . S
C611 C612 1.383 . S
C611 H619 0.929 . S
C612 C611 1.383 . S
C612 C613 1.377 . S
C613 H597 0.930 . S
C613 C612 1.377 . S
C613 C614 1.379 . S
C614 H598 0.931 . S
C614 C608 1.383 . S
C614 C613 1.379 . S
H615 C609 0.959 . S
H616 C609 0.961 . S
H617 C609 0.960 . S
H618 C610 0.930 . S
H619 C611 0.929 . S
H620 C628 0.929 . S
H621 C630 0.930 . S
H622 C632 0.930 . S
H623 C635 0.929 . S
H624 C638 0.930 . S
H625 C640 0.960 . S
H626 C640 0.960 . S
H627 C640 0.960 . S
C628 H620 0.929 . S
C628 C629 1.377 . S
C628 C630 1.384 . S
C629 C628 1.377 . S
C629 C635 1.390 . S
C630 H621 0.930 . S
C630 C628 1.384 . S
C630 C631 1.372 . S
C631 C630 1.372 . S
C631 C632 1.400 . S
C631 C636 1.490 . S
C632 H622 0.930 . S
C632 C631 1.400 . S
C632 C635 1.386 . S
H633 C649 0.930 . S
H634 C650 0.931 . S
C635 H623 0.929 . S
C635 C629 1.390 . S
C635 C632 1.386 . S
C636 C631 1.490 . S
C636 C638 1.395 . S
C636 C639 1.403 . S
H637 C643 0.930 . S
C638 H624 0.930 . S
C638 C636 1.395 . S
C638 C641 1.403 . S
C639 C636 1.403 . S
C639 C640 1.524 . S
C639 C643 1.400 . S
C640 H625 0.960 . S
C640 H626 0.960 . S
C640 H627 0.960 . S
C640 C639 1.524 . S
C641 C638 1.403 . S
C641 C642 1.392 . S
C641 C645 1.495 . S
C642 C641 1.392 . S
C642 C643 1.385 . S
C642 C644 1.478 . S
C643 H637 0.930 . S
C643 C639 1.400 . S
C643 C642 1.385 . S
C644 C642 1.478 . S
C644 C646 1.381 . S
C644 C650 1.383 . S
C645 C641 1.495 . S
C645 H651 0.959 . S
C645 H652 0.961 . S
C645 H653 0.960 . S
C646 C644 1.381 . S
C646 C647 1.394 . S
C646 H654 0.930 . S
C647 C646 1.394 . S
C647 C648 1.383 . S
C647 H655 0.929 . S
C648 C647 1.383 . S
C648 C649 1.377 . S
C649 H633 0.930 . S
C649 C648 1.377 . S
C649 C650 1.379 . S
C650 H634 0.931 . S
C650 C644 1.383 . S
C650 C649 1.379 . S
H651 C645 0.959 . S
H652 C645 0.961 . S
H653 C645 0.960 . S
H654 C646 0.930 . S
H655 C647 0.929 . S
H656 C664 0.929 . S
H657 C666 0.930 . S
H658 C668 0.930 . S
H659 C671 0.929 . S
H660 C674 0.930 . S
H661 C676 0.960 . S
H662 C676 0.960 . S
H663 C676 0.960 . S
C664 H656 0.929 . S
C664 C665 1.377 . S
C664 C666 1.384 . S
C665 C664 1.377 . S
C665 C671 1.390 . S
C666 H657 0.930 . S
C666 C664 1.384 . S
C666 C667 1.372 . S
C667 C666 1.372 . S
C667 C668 1.400 . S
C667 C672 1.490 . S
C668 H658 0.930 . S
C668 C667 1.400 . S
C668 C671 1.386 . S
H669 C685 0.930 1_455 S
H670 C686 0.906 1_455 S
C671 H659 0.929 . S
C671 C665 1.390 . S
C671 C668 1.386 . S
C672 C667 1.490 . S
C672 C674 1.395 1_565 S
C672 C675 1.403 . S
H673 C679 0.930 . S
C674 H660 0.930 . S
C674 C672 1.395 1_545 S
C674 C677 1.403 . S
C675 C672 1.403 . S
C675 C676 1.524 . S
C675 C679 1.400 . S
C676 H661 0.960 . S
C676 H662 0.960 . S
C676 H663 0.960 . S
C676 C675 1.524 . S
C677 C674 1.403 . S
C677 C678 1.392 1_545 S
C677 C681 1.495 . S
C678 C677 1.392 1_565 S
C678 C679 1.385 . S
C678 C680 1.478 1_565 S
C679 H673 0.930 . S
C679 C675 1.400 . S
C679 C678 1.385 . S
C680 C678 1.478 1_545 S
C680 C682 1.381 . S
C680 C686 1.383 1_545 S
C681 C677 1.495 . S
C681 H687 0.959 . S
C681 H688 0.961 . S
C681 H689 0.960 . S
C682 C680 1.381 . S
C682 C683 1.394 . S
C682 H690 0.930 . S
C683 C682 1.394 . S
C683 C684 1.383 . S
C683 H691 0.929 . S
C684 C683 1.383 . S
C684 C685 1.377 1_545 S
C685 H669 0.930 1_655 S
C685 C684 1.377 1_565 S
C685 C686 1.379 . S
C686 H670 0.906 1_655 S
C686 C680 1.383 1_565 S
C686 C685 1.379 . S
H687 C681 0.959 . S
H688 C681 0.961 . S
H689 C681 0.960 . S
H690 C682 0.930 . S
H691 C683 0.929 . S
H692 C700 0.929 . S
H693 C702 0.930 . S
H694 C704 0.930 . S
H695 C707 0.929 . S
H696 C710 0.930 . S
H697 C712 0.960 . S
H698 C712 0.960 . S
H699 C712 0.960 . S
C700 H692 0.929 . S
C700 C701 1.377 . S
C700 C702 1.384 . S
C701 C700 1.377 . S
C701 C707 1.390 . S
C702 H693 0.930 . S
C702 C700 1.384 . S
C702 C703 1.372 . S
C703 C702 1.372 . S
C703 C704 1.400 . S
C703 C708 1.490 . S
C704 H694 0.930 . S
C704 C703 1.400 . S
C704 C707 1.386 . S
H705 C721 0.930 . S
H706 C722 0.931 . S
C707 H695 0.929 . S
C707 C701 1.390 . S
C707 C704 1.386 . S
C708 C703 1.490 . S
C708 C710 1.395 . S
C708 C711 1.403 . S
H709 C715 0.930 . S
C710 H696 0.930 . S
C710 C708 1.395 . S
C710 C713 1.403 . S
C711 C708 1.403 . S
C711 C712 1.524 . S
C711 C715 1.400 . S
C712 H697 0.960 . S
C712 H698 0.960 . S
C712 H699 0.960 . S
C712 C711 1.524 . S
C713 C710 1.403 . S
C713 C714 1.392 . S
C713 C717 1.495 . S
C714 C713 1.392 . S
C714 C715 1.385 . S
C714 C716 1.478 . S
C715 H709 0.930 . S
C715 C711 1.400 . S
C715 C714 1.385 . S
C716 C714 1.478 . S
C716 C718 1.381 . S
C716 C722 1.383 . S
C717 C713 1.495 . S
C717 H723 0.959 . S
C717 H724 0.961 . S
C717 H725 0.960 . S
C718 C716 1.381 . S
C718 C719 1.394 . S
C718 H726 0.930 . S
C719 C718 1.394 . S
C719 C720 1.383 . S
C719 H727 0.929 . S
C720 C719 1.383 . S
C720 C721 1.377 . S
C721 H705 0.930 . S
C721 C720 1.377 . S
C721 C722 1.379 . S
C722 H706 0.931 . S
C722 C716 1.383 . S
C722 C721 1.379 . S
H723 C717 0.959 . S
H724 C717 0.961 . S
H725 C717 0.960 . S
H726 C718 0.930 . S
H727 C719 0.929 . S
H728 C736 0.929 . S
H729 C738 0.930 . S
H730 C740 0.930 . S
H731 C743 0.929 . S
H732 C746 0.930 . S
H733 C748 0.960 . S
H734 C748 0.960 . S
H735 C748 0.960 . S
C736 H728 0.929 . S
C736 C737 1.377 . S
C736 C738 1.384 . S
C737 C736 1.377 . S
C737 C743 1.390 . S
C738 H729 0.930 . S
C738 C736 1.384 . S
C738 C739 1.372 . S
C739 C738 1.372 . S
C739 C740 1.400 . S
C739 C744 1.490 . S
C740 H730 0.930 . S
C740 C739 1.400 . S
C740 C743 1.386 . S
H741 C757 0.930 . S
H742 C758 0.931 . S
C743 H731 0.929 . S
C743 C737 1.390 . S
C743 C740 1.386 . S
C744 C739 1.490 . S
C744 C746 1.395 . S
C744 C747 1.403 . S
H745 C751 0.930 . S
C746 H732 0.930 . S
C746 C744 1.395 . S
C746 C749 1.403 . S
C747 C744 1.403 . S
C747 C748 1.524 . S
C747 C751 1.400 . S
C748 H733 0.960 . S
C748 H734 0.960 . S
C748 H735 0.960 . S
C748 C747 1.524 . S
C749 C746 1.403 . S
C749 C750 1.392 . S
C749 C753 1.495 . S
C750 C749 1.392 . S
C750 C751 1.385 . S
C750 C752 1.478 . S
C751 H745 0.930 . S
C751 C747 1.400 . S
C751 C750 1.385 . S
C752 C750 1.478 . S
C752 C754 1.381 . S
C752 C758 1.383 . S
C753 C749 1.495 . S
C753 H759 0.959 . S
C753 H760 0.961 . S
C753 H761 0.960 . S
C754 C752 1.381 . S
C754 C755 1.394 . S
C754 H762 0.930 . S
C755 C754 1.394 . S
C755 C756 1.383 . S
C755 H763 0.929 . S
C756 C755 1.383 . S
C756 C757 1.377 . S
C757 H741 0.930 . S
C757 C756 1.377 . S
C757 C758 1.379 . S
C758 H742 0.931 . S
C758 C752 1.383 . S
C758 C757 1.379 . S
H759 C753 0.959 . S
H760 C753 0.961 . S
H761 C753 0.960 . S
H762 C754 0.930 . S
H763 C755 0.929 . S
H764 C772 0.929 . S
H765 C774 0.930 . S
H766 C776 0.930 . S
H767 C779 0.929 . S
H768 C782 0.930 . S
H769 C784 0.960 . S
H770 C784 0.960 . S
H771 C784 0.960 . S
C772 H764 0.929 . S
C772 C773 1.377 . S
C772 C774 1.384 . S
C773 C772 1.377 . S
C773 C779 1.390 . S
C774 H765 0.930 . S
C774 C772 1.384 . S
C774 C775 1.372 . S
C775 C774 1.372 . S
C775 C776 1.400 . S
C775 C780 1.490 . S
C776 H766 0.930 . S
C776 C775 1.400 . S
C776 C779 1.386 . S
H777 C793 0.930 . S
H778 C794 0.931 . S
C779 H767 0.929 . S
C779 C773 1.390 . S
C779 C776 1.386 . S
C780 C775 1.490 . S
C780 C782 1.395 . S
C780 C783 1.403 . S
H781 C787 0.930 . S
C782 H768 0.930 . S
C782 C780 1.395 . S
C782 C785 1.403 . S
C783 C780 1.403 . S
C783 C784 1.524 . S
C783 C787 1.400 . S
C784 H769 0.960 . S
C784 H770 0.960 . S
C784 H771 0.960 . S
C784 C783 1.524 . S
C785 C782 1.403 . S
C785 C786 1.392 . S
C785 C789 1.495 . S
C786 C785 1.392 . S
C786 C787 1.385 . S
C786 C788 1.478 . S
C787 H781 0.930 . S
C787 C783 1.400 . S
C787 C786 1.385 . S
C788 C786 1.478 . S
C788 C790 1.381 . S
C788 C794 1.383 . S
C789 C785 1.495 . S
C789 H795 0.959 . S
C789 H796 0.961 . S
C789 H797 0.960 . S
C790 C788 1.381 . S
C790 C791 1.394 . S
C790 H798 0.930 . S
C791 C790 1.394 . S
C791 C792 1.383 . S
C791 H799 0.929 . S
C792 C791 1.383 . S
C792 C793 1.377 . S
C793 H777 0.930 . S
C793 C792 1.377 . S
C793 C794 1.379 . S
C794 H778 0.931 . S
C794 C788 1.383 . S
C794 C793 1.379 . S
H795 C789 0.959 . S
H796 C789 0.961 . S
H797 C789 0.960 . S
H798 C790 0.930 . S
H799 C791 0.929 . S
H800 C808 0.929 . S
H801 C810 0.930 . S
H802 C812 0.930 . S
H803 C815 0.929 . S
H804 C818 0.930 . S
H805 C820 0.960 . S
H806 C820 0.960 . S
H807 C820 0.960 . S
C808 H800 0.929 . S
C808 C809 1.377 . S
C808 C810 1.384 . S
C809 C808 1.377 . S
C809 C815 1.390 . S
C810 H801 0.930 . S
C810 C808 1.384 . S
C810 C811 1.372 . S
C811 C810 1.372 . S
C811 C812 1.400 . S
C811 C816 1.490 . S
C812 H802 0.930 . S
C812 C811 1.400 . S
C812 C815 1.386 . S
H813 C829 0.930 . S
H814 C830 0.931 . S
C815 H803 0.929 . S
C815 C809 1.390 . S
C815 C812 1.386 . S
C816 C811 1.490 . S
C816 C818 1.395 . S
C816 C819 1.403 1_565 S
H817 C823 0.930 . S
C818 H804 0.930 . S
C818 C816 1.395 . S
C818 C821 1.403 . S
C819 C816 1.403 1_545 S
C819 C820 1.524 . S
C819 C823 1.400 . S
C820 H805 0.960 . S
C820 H806 0.960 . S
C820 H807 0.960 . S
C820 C819 1.524 . S
C821 C818 1.403 . S
C821 C822 1.392 . S
C821 C825 1.495 . S
C822 C821 1.392 . S
C822 C823 1.385 1_565 S
C822 C824 1.485 . S
C823 H817 0.930 . S
C823 C819 1.400 . S
C823 C822 1.385 1_545 S
C824 C822 1.485 . S
C824 C826 1.371 1_565 S
C824 C830 1.384 1_556 S
C825 C821 1.495 . S
C825 H831 0.959 . S
C825 H832 0.961 . S
C825 H833 0.960 . S
C826 C824 1.371 1_545 S
C826 C827 1.394 . S
C826 H834 0.930 . S
C827 C826 1.394 . S
C827 C828 1.383 1_556 S
C827 H835 0.929 . S
C828 C827 1.383 1_554 S
C828 C829 1.377 . S
C829 H813 0.930 . S
C829 C828 1.377 . S
C829 C830 1.379 1_545 S
C830 H814 0.931 . S
C830 C824 1.384 1_554 S
C830 C829 1.379 1_565 S
H831 C825 0.959 . S
H832 C825 0.961 . S
H833 C825 0.960 . S
H834 C826 0.930 . S
H835 C827 0.929 . S
H836 C844 0.929 . S
H837 C846 0.930 . S
H838 C848 0.930 . S
H839 C851 0.929 . S
H840 C854 0.930 . S
H841 C856 0.960 . S
H842 C856 0.960 . S
H843 C856 0.960 . S
C844 H836 0.929 . S
C844 C845 1.377 . S
C844 C846 1.384 . S
C845 C844 1.377 . S
C845 C851 1.390 . S
C846 H837 0.930 . S
C846 C844 1.384 . S
C846 C847 1.372 . S
C847 C846 1.372 . S
C847 C848 1.400 . S
C847 C852 1.490 . S
C848 H838 0.930 . S
C848 C847 1.400 . S
C848 C851 1.386 . S
H849 C865 0.930 . S
H850 C866 0.931 . S
C851 H839 0.929 . S
C851 C845 1.390 . S
C851 C848 1.386 . S
C852 C847 1.490 . S
C852 C854 1.395 . S
C852 C855 1.403 . S
H853 C859 0.930 . S
C854 H840 0.930 . S
C854 C852 1.395 . S
C854 C857 1.403 . S
C855 C852 1.403 . S
C855 C856 1.524 . S
C855 C859 1.400 . S
C856 H841 0.960 . S
C856 H842 0.960 . S
C856 H843 0.960 . S
C856 C855 1.524 . S
C857 C854 1.403 . S
C857 C858 1.392 . S
C857 C861 1.495 . S
C858 C857 1.392 . S
C858 C859 1.385 . S
C858 C860 1.478 . S
C859 H853 0.930 . S
C859 C855 1.400 . S
C859 C858 1.385 . S
C860 C858 1.478 . S
C860 C862 1.381 . S
C860 C866 1.383 . S
C861 C857 1.495 . S
C861 H867 0.959 . S
C861 H868 0.961 . S
C861 H869 0.960 . S
C862 C860 1.381 . S
C862 C863 1.394 . S
C862 H870 0.930 . S
C863 C862 1.394 . S
C863 C864 1.383 . S
C863 H871 0.929 . S
C864 C863 1.383 . S
C864 C865 1.377 . S
C865 H849 0.930 . S
C865 C864 1.377 . S
C865 C866 1.379 . S
C866 H850 0.931 . S
C866 C860 1.383 . S
C866 C865 1.379 . S
H867 C861 0.959 . S
H868 C861 0.961 . S
H869 C861 0.960 . S
H870 C862 0.930 . S
H871 C863 0.929 . S
H872 C880 0.929 . S
H873 C882 0.930 . S
H874 C884 0.930 . S
H875 C887 0.929 . S
H876 C890 0.930 . S
H877 C892 0.960 . S
H878 C892 0.960 . S
H879 C892 0.960 . S
C880 H872 0.929 . S
C880 C881 1.377 . S
C880 C882 1.384 . S
C881 C880 1.377 . S
C881 C887 1.390 . S
C882 H873 0.930 . S
C882 C880 1.384 . S
C882 C883 1.372 . S
C883 C882 1.372 . S
C883 C884 1.400 . S
C883 C888 1.490 . S
C884 H874 0.930 . S
C884 C883 1.400 . S
C884 C887 1.386 . S
H885 C901 0.930 . S
H886 C902 0.931 . S
C887 H875 0.929 . S
C887 C881 1.390 . S
C887 C884 1.386 . S
C888 C883 1.490 . S
C888 C890 1.395 . S
C888 C891 1.403 . S
H889 C895 0.930 . S
C890 H876 0.930 . S
C890 C888 1.395 . S
C890 C893 1.403 . S
C891 C888 1.403 . S
C891 C892 1.524 . S
C891 C895 1.400 . S
C892 H877 0.960 . S
C892 H878 0.960 . S
C892 H879 0.960 . S
C892 C891 1.524 . S
C893 C890 1.403 . S
C893 C894 1.392 . S
C893 C897 1.495 . S
C894 C893 1.392 . S
C894 C895 1.385 . S
C894 C896 1.478 . S
C895 H889 0.930 . S
C895 C891 1.400 . S
C895 C894 1.385 . S
C896 C894 1.478 . S
C896 C898 1.381 . S
C896 C902 1.383 . S
C897 C893 1.495 . S
C897 H903 0.959 . S
C897 H904 0.961 . S
C897 H905 0.960 . S
C898 C896 1.381 . S
C898 C899 1.394 . S
C898 H906 0.930 . S
C899 C898 1.394 . S
C899 C900 1.383 . S
C899 H907 0.929 . S
C900 C899 1.383 . S
C900 C901 1.377 . S
C901 H885 0.930 . S
C901 C900 1.377 . S
C901 C902 1.379 . S
C902 H886 0.931 . S
C902 C896 1.383 . S
C902 C901 1.379 . S
H903 C897 0.959 . S
H904 C897 0.961 . S
H905 C897 0.960 . S
H906 C898 0.930 . S
H907 C899 0.929 . S
H908 C916 0.929 . S
H909 C918 0.930 . S
H910 C920 0.930 . S
H911 C923 0.929 . S
H912 C926 0.930 . S
H913 C928 0.960 . S
H914 C928 0.960 . S
H915 C928 0.960 . S
C916 H908 0.929 . S
C916 C917 1.377 . S
C916 C918 1.384 . S
C917 C916 1.377 . S
C917 C923 1.390 . S
C918 H909 0.930 . S
C918 C916 1.384 . S
C918 C919 1.372 . S
C919 C918 1.372 . S
C919 C920 1.400 . S
C919 C924 1.490 . S
C920 H910 0.930 . S
C920 C919 1.400 . S
C920 C923 1.386 . S
H921 C937 0.930 . S
H922 C938 0.931 . S
C923 H911 0.929 . S
C923 C917 1.390 . S
C923 C920 1.386 . S
C924 C919 1.490 . S
C924 C926 1.395 . S
C924 C927 1.403 . S
H925 C931 0.930 . S
C926 H912 0.930 . S
C926 C924 1.395 . S
C926 C929 1.403 . S
C927 C924 1.403 . S
C927 C928 1.524 . S
C927 C931 1.400 . S
C928 H913 0.960 . S
C928 H914 0.960 . S
C928 H915 0.960 . S
C928 C927 1.524 . S
C929 C926 1.403 . S
C929 C930 1.392 . S
C929 C933 1.495 . S
C930 C929 1.392 . S
C930 C931 1.385 . S
C930 C932 1.478 . S
C931 H925 0.930 . S
C931 C927 1.400 . S
C931 C930 1.385 . S
C932 C930 1.478 . S
C932 C934 1.381 . S
C932 C938 1.383 . S
C933 C929 1.495 . S
C933 H939 0.959 . S
C933 H940 0.961 . S
C933 H941 0.960 . S
C934 C932 1.381 . S
C934 C935 1.394 . S
C934 H942 0.930 . S
C935 C934 1.394 . S
C935 C936 1.383 . S
C935 H943 0.929 . S
C936 C935 1.383 . S
C936 C937 1.377 . S
C937 H921 0.930 . S
C937 C936 1.377 . S
C937 C938 1.379 . S
C938 H922 0.931 . S
C938 C932 1.383 . S
C938 C937 1.379 . S
H939 C933 0.959 . S
H940 C933 0.961 . S
H941 C933 0.960 . S
H942 C934 0.930 . S
H943 C935 0.929 . S
H944 C952 0.929 . S
H945 C954 0.930 . S
H946 C956 0.930 . S
H947 C959 0.929 . S
H948 C962 0.930 . S
H949 C964 0.960 . S
H950 C964 0.960 . S
H951 C964 0.960 . S
C952 H944 0.929 . S
C952 C953 1.377 . S
C952 C954 1.384 . S
C953 C952 1.377 . S
C953 C959 1.390 . S
C954 H945 0.930 . S
C954 C952 1.384 . S
C954 C955 1.372 . S
C955 C954 1.372 . S
C955 C956 1.400 . S
C955 C960 1.490 . S
C956 H946 0.930 . S
C956 C955 1.400 . S
C956 C959 1.386 . S
H957 C973 0.927 1_454 S
H958 C974 0.931 . S
C959 H947 0.929 . S
C959 C953 1.390 . S
C959 C956 1.386 . S
C960 C955 1.490 . S
C960 C962 1.395 . S
C960 C963 1.403 . S
H961 C967 0.930 . S
C962 H948 0.930 . S
C962 C960 1.395 . S
C962 C965 1.403 . S
C963 C960 1.403 . S
C963 C964 1.524 . S
C963 C967 1.400 . S
C964 H949 0.960 . S
C964 H950 0.960 . S
C964 H951 0.960 . S
C964 C963 1.524 . S
C965 C962 1.403 . S
C965 C966 1.392 . S
C965 C969 1.495 1_655 S
C966 C965 1.392 . S
C966 C967 1.385 . S
C966 C968 1.478 . S
C967 H961 0.930 . S
C967 C963 1.400 . S
C967 C966 1.385 . S
C968 C966 1.478 . S
C968 C970 1.381 . S
C968 C974 1.383 . S
C969 C965 1.495 1_455 S
C969 H975 0.959 . S
C969 H976 0.961 . S
C969 H977 0.960 1_455 S
C970 C968 1.381 . S
C970 C971 1.394 . S
C970 H978 0.930 . S
C971 C970 1.394 . S
C971 C972 1.383 . S
C971 H979 0.929 . S
C972 C971 1.383 . S
C972 C973 1.377 . S
C973 H957 0.927 1_656 S
C973 C972 1.377 . S
C973 C974 1.379 . S
C974 H958 0.931 . S
C974 C968 1.383 . S
C974 C973 1.379 . S
H975 C969 0.959 . S
H976 C969 0.961 . S
H977 C969 0.960 1_655 S
H978 C970 0.930 . S
H979 C971 0.929 . S
H980 C988 0.929 . S
H981 C990 0.930 . S
H982 C992 0.930 . S
H983 C995 0.929 . S
H984 C998 0.930 . S
H985 C1000 0.960 . S
H986 C1000 0.960 . S
H987 C1000 0.960 . S
C988 H980 0.929 . S
C988 C989 1.377 . S
C988 C990 1.384 . S
C989 C988 1.377 . S
C989 C995 1.390 . S
C990 H981 0.930 . S
C990 C988 1.384 . S
C990 C991 1.372 . S
C991 C990 1.372 . S
C991 C992 1.400 . S
C991 C996 1.490 . S
C992 H982 0.930 . S
C992 C991 1.400 . S
C992 C995 1.386 . S
H993 C1009 0.930 . S
H994 C1010 0.931 . S
C995 H983 0.929 . S
C995 C989 1.390 . S
C995 C992 1.386 . S
C996 C991 1.490 . S
C996 C998 1.395 . S
C996 C999 1.403 . S
H997 C1003 0.930 . S
C998 H984 0.930 . S
C998 C996 1.395 . S
C998 C1001 1.403 . S
C999 C996 1.403 . S
C999 C1000 1.524 . S
C999 C1003 1.400 . S
C1000 H985 0.960 . S
C1000 H986 0.960 . S
C1000 H987 0.960 . S
C1000 C999 1.524 . S
C1001 C998 1.403 . S
C1001 C1002 1.392 . S
C1001 C1005 1.495 . S
C1002 C1001 1.392 . S
C1002 C1003 1.385 . S
C1002 C1004 1.478 . S
C1003 H997 0.930 . S
C1003 C999 1.400 . S
C1003 C1002 1.385 . S
C1004 C1002 1.478 . S
C1004 C1006 1.381 . S
C1004 C1010 1.383 . S
C1005 C1001 1.495 . S
C1005 H1011 0.959 . S
C1005 H1012 0.961 . S
C1005 H1013 0.960 . S
C1006 C1004 1.381 . S
C1006 C1007 1.394 . S
C1006 H1014 0.930 . S
C1007 C1006 1.394 . S
C1007 C1008 1.383 . S
C1007 H1015 0.929 . S
C1008 C1007 1.383 . S
C1008 C1009 1.377 . S
C1009 H993 0.930 . S
C1009 C1008 1.377 . S
C1009 C1010 1.379 . S
C1010 H994 0.931 . S
C1010 C1004 1.383 . S
C1010 C1009 1.379 . S
H1011 C1005 0.959 . S
H1012 C1005 0.961 . S
H1013 C1005 0.960 . S
H1014 C1006 0.930 . S
H1015 C1007 0.929 . S
H1016 C1024 0.929 . S
H1017 C1026 0.930 . S
H1018 C1028 0.930 . S
H1019 C1031 0.929 . S
H1020 C1034 0.930 . S
H1021 C1036 0.960 . S
H1022 C1036 0.960 . S
H1023 C1036 0.960 . S
C1024 H1016 0.929 . S
C1024 C1025 1.377 . S
C1024 C1026 1.384 . S
C1025 C1024 1.377 . S
C1025 C1031 1.390 . S
C1026 H1017 0.930 . S
C1026 C1024 1.384 . S
C1026 C1027 1.372 . S
C1027 C1026 1.372 . S
C1027 C1028 1.400 . S
C1027 C1032 1.490 . S
C1028 H1018 0.930 . S
C1028 C1027 1.400 . S
C1028 C1031 1.386 . S
H1029 C1045 0.930 . S
H1030 C1046 0.931 . S
C1031 H1019 0.929 . S
C1031 C1025 1.390 . S
C1031 C1028 1.386 . S
C1032 C1027 1.490 . S
C1032 C1034 1.395 . S
C1032 C1035 1.403 . S
H1033 C1039 0.930 . S
C1034 H1020 0.930 . S
C1034 C1032 1.395 . S
C1034 C1037 1.403 . S
C1035 C1032 1.403 . S
C1035 C1036 1.524 . S
C1035 C1039 1.400 . S
C1036 H1021 0.960 . S
C1036 H1022 0.960 . S
C1036 H1023 0.960 . S
C1036 C1035 1.524 . S
C1037 C1034 1.403 . S
C1037 C1038 1.392 . S
C1037 C1041 1.495 . S
C1038 C1037 1.392 . S
C1038 C1039 1.385 . S
C1038 C1040 1.478 . S
C1039 H1033 0.930 . S
C1039 C1035 1.400 . S
C1039 C1038 1.385 . S
C1040 C1038 1.478 . S
C1040 C1042 1.381 . S
C1040 C1046 1.383 . S
C1041 C1037 1.495 . S
C1041 H1047 0.959 . S
C1041 H1048 0.961 . S
C1041 H1049 0.960 . S
C1042 C1040 1.381 . S
C1042 C1043 1.394 . S
C1042 H1050 0.930 . S
C1043 C1042 1.394 . S
C1043 C1044 1.383 . S
C1043 H1051 0.929 . S
C1044 C1043 1.383 . S
C1044 C1045 1.377 . S
C1045 H1029 0.930 . S
C1045 C1044 1.377 . S
C1045 C1046 1.379 . S
C1046 H1030 0.931 . S
C1046 C1040 1.383 . S
C1046 C1045 1.379 . S
H1047 C1041 0.959 . S
H1048 C1041 0.961 . S
H1049 C1041 0.960 . S
H1050 C1042 0.930 . S
H1051 C1043 0.929 . S
H1052 C1060 0.929 . S
H1053 C1062 0.930 . S
H1054 C1064 0.930 . S
H1055 C1067 0.929 . S
H1056 C1070 0.930 . S
H1057 C1072 0.960 . S
H1058 C1072 0.960 . S
H1059 C1072 0.960 . S
C1060 H1052 0.929 . S
C1060 C1061 1.377 . S
C1060 C1062 1.384 . S
C1061 C1060 1.377 . S
C1061 C1067 1.390 . S
C1062 H1053 0.930 . S
C1062 C1060 1.384 . S
C1062 C1063 1.372 . S
C1063 C1062 1.372 . S
C1063 C1064 1.400 . S
C1063 C1068 1.490 . S
C1064 H1054 0.930 . S
C1064 C1063 1.400 . S
C1064 C1067 1.386 . S
H1065 C1081 0.930 . S
H1066 C1082 0.931 . S
C1067 H1055 0.929 . S
C1067 C1061 1.390 . S
C1067 C1064 1.386 . S
C1068 C1063 1.490 . S
C1068 C1070 1.395 . S
C1068 C1071 1.403 . S
H1069 C1075 0.930 . S
C1070 H1056 0.930 . S
C1070 C1068 1.395 . S
C1070 C1073 1.403 . S
C1071 C1068 1.403 . S
C1071 C1072 1.524 . S
C1071 C1075 1.400 . S
C1072 H1057 0.960 . S
C1072 H1058 0.960 . S
C1072 H1059 0.960 . S
C1072 C1071 1.524 . S
C1073 C1070 1.403 . S
C1073 C1074 1.392 . S
C1073 C1077 1.495 . S
C1074 C1073 1.392 . S
C1074 C1075 1.385 . S
C1074 C1076 1.478 . S
C1075 H1069 0.930 . S
C1075 C1071 1.400 . S
C1075 C1074 1.385 . S
C1076 C1074 1.478 . S
C1076 C1078 1.381 . S
C1076 C1082 1.383 . S
C1077 C1073 1.495 . S
C1077 H1083 0.959 . S
C1077 H1084 0.961 . S
C1077 H1085 0.960 . S
C1078 C1076 1.381 . S
C1078 C1079 1.394 . S
C1078 H1086 0.930 . S
C1079 C1078 1.394 . S
C1079 C1080 1.383 . S
C1079 H1087 0.929 . S
C1080 C1079 1.383 . S
C1080 C1081 1.377 . S
C1081 H1065 0.930 . S
C1081 C1080 1.377 . S
C1081 C1082 1.379 . S
C1082 H1066 0.931 . S
C1082 C1076 1.383 . S
C1082 C1081 1.379 . S
H1083 C1077 0.959 . S
H1084 C1077 0.961 . S
H1085 C1077 0.960 . S
H1086 C1078 0.930 . S
H1087 C1079 0.929 . S
C233 C4 2.542 . S
C252 C88 2.543 . S
C269 C16 2.653 . S
C288 C130 2.658 . S
C324 C160 0.502 . S
C305 C32 0.507 . S
C341 C43 0.833 . S
C360 C194 0.852 . S
C396 C151 2.366 . S
C377 C5 2.357 . S
C432 C105 1.638 . S
C413 C21 1.631 . S
C468 C198 1.089 . S
C449 C27 1.080 . S
C504 C164 1.150 . S
C485 C37 1.144 . S
C521 C10 2.226 . S
C540 C219 2.237 . S
C576 C126 1.160 . S
C557 C26 1.159 . S
C593 C38 0.849 . S
C612 C101 0.851 . S
C629 C15 2.364 . S
C648 C185 2.365 . S
C684 C117 2.687 . S
C665 C48 2.686 . S
C701 C59 2.396 . S
C720 C139 2.408 . S
C737 C76 0.787 . S
C756 C169 0.776 . S
C773 C87 0.643 . S
C792 C203 0.620 . S
C809 C54 1.691 . S
C828 C122 1.701 . S
C864 C96 2.313 . S
C845 C60 2.303 . S
C900 C207 1.072 . S
C881 C71 1.055 . S
C936 C173 1.130 . S
C917 C82 1.117 . S
C953 C49 2.526 . S
C972 C190 2.530 . S
C1008 C135 0.806 . S
C989 C70 0.792 . S
C1044 C92 1.131 . S
C1025 C81 1.124 . S
C1061 C65 2.161 . S
C1080 C156 2.166 . S
