# Generated by pormake.
# Topology ssb, (4,4)-cn, num edge types: 1
# Building blocks:
#     Node 0, Type 0, BuildingBlock: MUDLON_clean_linker_0, # of connection points: 4
#     Node 1, Type 0, BuildingBlock: MUDLON_clean_linker_0, # of connection points: 4
#     Node 2, Type 0, BuildingBlock: MUDLON_clean_linker_0, # of connection points: 4
#     Node 3, Type 0, BuildingBlock: MUDLON_clean_linker_0, # of connection points: 4
#     Node 4, Type 0, BuildingBlock: MUDLON_clean_linker_0, # of connection points: 4
#     Node 5, Type 0, BuildingBlock: MUDLON_clean_linker_0, # of connection points: 4
#     Node 6, Type 0, BuildingBlock: MUDLON_clean_linker_0, # of connection points: 4
#     Node 7, Type 0, BuildingBlock: MUDLON_clean_linker_0, # of connection points: 4
#     Node 8, Type 1, BuildingBlock: NAWXER_clean_sbu_0, # of connection points: 4
#     Node 9, Type 1, BuildingBlock: NAWXER_clean_sbu_0, # of connection points: 4
#     Node 10, Type 1, BuildingBlock: NAWXER_clean_sbu_0, # of connection points: 4
#     Node 11, Type 1, BuildingBlock: NAWXER_clean_sbu_0, # of connection points: 4
#     Node 12, Type 1, BuildingBlock: NAWXER_clean_sbu_0, # of connection points: 4
#     Node 13, Type 1, BuildingBlock: NAWXER_clean_sbu_0, # of connection points: 4
#     Node 14, Type 1, BuildingBlock: NAWXER_clean_sbu_0, # of connection points: 4
#     Node 15, Type 1, BuildingBlock: NAWXER_clean_sbu_0, # of connection points: 4
#     Edge 16, Type (0, 1), BuildingBlock: AJUNOK_clean_linker_0, # of connection points: 2
#     Edge 17, Type (0, 1), BuildingBlock: AJUNOK_clean_linker_0, # of connection points: 2
#     Edge 18, Type (0, 1), BuildingBlock: AJUNOK_clean_linker_0, # of connection points: 2
#     Edge 19, Type (0, 1), BuildingBlock: AJUNOK_clean_linker_0, # of connection points: 2
#     Edge 20, Type (0, 1), BuildingBlock: AJUNOK_clean_linker_0, # of connection points: 2
#     Edge 21, Type (0, 1), BuildingBlock: AJUNOK_clean_linker_0, # of connection points: 2
#     Edge 22, Type (0, 1), BuildingBlock: AJUNOK_clean_linker_0, # of connection points: 2
#     Edge 23, Type (0, 1), BuildingBlock: AJUNOK_clean_linker_0, # of connection points: 2
#     Edge 24, Type (0, 1), BuildingBlock: AJUNOK_clean_linker_0, # of connection points: 2
#     Edge 25, Type (0, 1), BuildingBlock: AJUNOK_clean_linker_0, # of connection points: 2
#     Edge 26, Type (0, 1), BuildingBlock: AJUNOK_clean_linker_0, # of connection points: 2
#     Edge 27, Type (0, 1), BuildingBlock: AJUNOK_clean_linker_0, # of connection points: 2
#     Edge 28, Type (0, 1), BuildingBlock: AJUNOK_clean_linker_0, # of connection points: 2
#     Edge 29, Type (0, 1), BuildingBlock: AJUNOK_clean_linker_0, # of connection points: 2
#     Edge 30, Type (0, 1), BuildingBlock: AJUNOK_clean_linker_0, # of connection points: 2
#     Edge 31, Type (0, 1), BuildingBlock: AJUNOK_clean_linker_0, # of connection points: 2
#     Edge 32, Type (0, 1), BuildingBlock: AJUNOK_clean_linker_0, # of connection points: 2
#     Edge 33, Type (0, 1), BuildingBlock: AJUNOK_clean_linker_0, # of connection points: 2
#     Edge 34, Type (0, 1), BuildingBlock: AJUNOK_clean_linker_0, # of connection points: 2
#     Edge 35, Type (0, 1), BuildingBlock: AJUNOK_clean_linker_0, # of connection points: 2
#     Edge 36, Type (0, 1), BuildingBlock: AJUNOK_clean_linker_0, # of connection points: 2
#     Edge 37, Type (0, 1), BuildingBlock: AJUNOK_clean_linker_0, # of connection points: 2
#     Edge 38, Type (0, 1), BuildingBlock: AJUNOK_clean_linker_0, # of connection points: 2
#     Edge 39, Type (0, 1), BuildingBlock: AJUNOK_clean_linker_0, # of connection points: 2
#     Edge 40, Type (0, 1), BuildingBlock: AJUNOK_clean_linker_0, # of connection points: 2
#     Edge 41, Type (0, 1), BuildingBlock: AJUNOK_clean_linker_0, # of connection points: 2
#     Edge 42, Type (0, 1), BuildingBlock: AJUNOK_clean_linker_0, # of connection points: 2
#     Edge 43, Type (0, 1), BuildingBlock: AJUNOK_clean_linker_0, # of connection points: 2
#     Edge 44, Type (0, 1), BuildingBlock: AJUNOK_clean_linker_0, # of connection points: 2
#     Edge 45, Type (0, 1), BuildingBlock: AJUNOK_clean_linker_0, # of connection points: 2
#     Edge 46, Type (0, 1), BuildingBlock: AJUNOK_clean_linker_0, # of connection points: 2
#     Edge 47, Type (0, 1), BuildingBlock: AJUNOK_clean_linker_0, # of connection points: 2
# Relax obj value: 0.004
# Max RMSD: 0.056
# Mean RMSD: 0.030
data_MOF--net-ssb--node1-NAWXER_clean_sbu_0--node2-MUDLON_clean_linker_0--edge1-AJUNOK_clean_linker_0
_symmetry_space_group_name_H-M    P1
_symmetry_Int_Tables_number       1
_symmetry_cell_setting            triclinic
loop_
_symmetry_equiv_pos_as_xyz
'x, y, z'
_cell_length_a     48.616377
_cell_length_b     48.599198
_cell_length_c     42.450179
_cell_angle_alpha  89.979613
_cell_angle_beta   89.991988
_cell_angle_gamma 89.948151
loop_
_atom_site_label
_atom_site_type_symbol
_atom_site_fract_x
_atom_site_fract_y
_atom_site_fract_z
_atom_type_partial_charge
H0 H 0.27122 0.32618 0.09362 0.0
N1 N 0.29 0.31224 0.15005 0.0
H2 H 0.25689 0.37194 0.07597 0.0
H3 H 0.28086 0.35705 0.18817 0.0
H4 H 0.26534 0.40235 0.17107 0.0
H5 H 0.33154 0.34569 0.17076 0.0
H6 H 0.3785 0.34688 0.14961 0.0
H7 H 0.31358 0.27475 0.11357 0.0
H8 H 0.36076 0.27501 0.09339 0.0
H9 H 0.2538 0.27177 0.14811 0.0
H10 H 0.30299 0.31938 0.21233 0.0
H11 H 0.23215 0.24816 0.19231 0.0
H12 H 0.27999 0.29748 0.25708 0.0
H13 H 0.13702 0.22155 0.33308 0.0
H14 H 0.10688 0.2473 0.36866 0.0
H15 H 0.17688 0.29291 0.40301 0.0
H16 H 0.20692 0.26734 0.3667 0.0
H17 H 0.22724 0.22456 0.38005 0.0
H18 H 0.23932 0.18578 0.41379 0.0
H19 H 0.19004 0.13193 0.35596 0.0
H20 H 0.17785 0.17114 0.32209 0.0
H21 H 0.1737 0.23596 0.27322 0.0
H22 H 0.19921 0.25702 0.23018 0.0
H23 H 0.27232 0.2583 0.28827 0.0
N24 N 0.19135 0.22362 0.33029 0.0
H25 H 0.24599 0.23883 0.3318 0.0
C26 C 0.27723 0.3381 0.14205 0.0
C27 C 0.26945 0.34263 0.11072 0.0
C28 C 0.26113 0.36872 0.10075 0.0
C29 C 0.26035 0.39082 0.12208 0.0
C30 C 0.26628 0.38583 0.15398 0.0
C31 C 0.27496 0.35978 0.16385 0.0
C32 C 0.31897 0.31028 0.14329 0.0
C33 C 0.33788 0.33 0.1542 0.0
C34 C 0.3647 0.33068 0.14208 0.0
C35 C 0.37303 0.31157 0.11908 0.0
C36 C 0.35465 0.29062 0.1102 0.0
C37 C 0.32786 0.29015 0.12203 0.0
C38 C 0.27949 0.29761 0.17694 0.0
C39 C 0.25978 0.27717 0.1719 0.0
C40 C 0.24722 0.26396 0.19728 0.0
C41 C 0.25371 0.27132 0.2285 0.0
C42 C 0.27441 0.29117 0.23349 0.0
C43 C 0.2874 0.30399 0.20791 0.0
C44 C 0.17409 0.24222 0.34769 0.0
C45 C 0.14569 0.23759 0.34772 0.0
C46 C 0.12856 0.25238 0.3679 0.0
C47 C 0.13964 0.27193 0.38868 0.0
C48 C 0.16793 0.27779 0.38734 0.0
C49 C 0.18506 0.26314 0.36678 0.0
C50 C 0.20192 0.20066 0.3481 0.0
C51 C 0.21951 0.2044 0.37406 0.0
C52 C 0.22638 0.18217 0.39343 0.0
C53 C 0.21574 0.15582 0.38735 0.0
C54 C 0.1985 0.15204 0.36117 0.0
C55 C 0.19176 0.17427 0.34169 0.0
C56 C 0.20786 0.2354 0.30554 0.0
C57 C 0.19525 0.24077 0.27657 0.0
C58 C 0.21003 0.2526 0.25189 0.0
C59 C 0.23811 0.25902 0.25537 0.0
C60 C 0.25074 0.25382 0.28466 0.0
C61 C 0.23571 0.24236 0.30962 0.0
H62 H 0.68813 0.38223 0.20917 0.0
N63 N 0.70996 0.33239 0.20392 0.0
H64 H 0.69604 0.42214 0.17507 0.0
H65 H 0.74923 0.33623 0.15788 0.0
H66 H 0.75669 0.37582 0.12295 0.0
H67 H 0.70903 0.30783 0.14586 0.0
H68 H 0.66938 0.2866 0.12056 0.0
H69 H 0.66102 0.32227 0.22963 0.0
H70 H 0.62101 0.30067 0.20432 0.0
H71 H 0.73845 0.34895 0.25391 0.0
H72 H 0.73129 0.28125 0.18874 0.0
H73 H 0.77227 0.32296 0.28428 0.0
H74 H 0.76278 0.25447 0.22006 0.0
H75 H 0.8294 0.23773 0.39199 0.0
H76 H 0.86903 0.24568 0.4262 0.0
H77 H 0.92239 0.20962 0.35618 0.0
H78 H 0.88249 0.20169 0.32191 0.0
H79 H 0.83505 0.15731 0.32677 0.0
H80 H 0.8108 0.12068 0.35497 0.0
H81 H 0.76112 0.18166 0.4023 0.0
H82 H 0.78588 0.21798 0.37499 0.0
H83 H 0.8017 0.25753 0.35363 0.0
H84 H 0.77544 0.28799 0.31994 0.0
H85 H 0.80566 0.24439 0.238 0.0
N86 N 0.82994 0.21119 0.33496 0.0
H87 H 0.82975 0.21226 0.27255 0.0
C88 C 0.71794 0.35632 0.186 0.0
C89 C 0.70345 0.38091 0.1907 0.0
C90 C 0.70776 0.40352 0.17099 0.0
C91 C 0.72652 0.40189 0.14587 0.0
C92 C 0.74202 0.37763 0.14203 0.0
C93 C 0.73776 0.355 0.16192 0.0
C94 C 0.68794 0.31677 0.18974 0.0
C95 C 0.6901 0.30599 0.15906 0.0
C96 C 0.66748 0.29352 0.14472 0.0
C97 C 0.64221 0.29169 0.16063 0.0
C98 C 0.64032 0.30166 0.19164 0.0
C99 C 0.66306 0.31398 0.20607 0.0
C100 C 0.73179 0.31719 0.21928 0.0
C101 C 0.74415 0.32849 0.24615 0.0
C102 C 0.76326 0.31338 0.26372 0.0
C103 C 0.77012 0.2862 0.2552 0.0
C104 C 0.7585 0.27534 0.22745 0.0
C105 C 0.73993 0.29073 0.20948 0.0
C106 C 0.85303 0.21926 0.35415 0.0
C107 C 0.84959 0.23203 0.38362 0.0
C108 C 0.87228 0.23645 0.40328 0.0
C109 C 0.89872 0.22793 0.39401 0.0
C110 C 0.90219 0.21596 0.36415 0.0
C111 C 0.87953 0.21168 0.34446 0.0
C112 C 0.8124 0.1904 0.34853 0.0
C113 C 0.81849 0.16268 0.34269 0.0
C114 C 0.80443 0.1418 0.35861 0.0
C115 C 0.78381 0.14828 0.38062 0.0
C116 C 0.77687 0.17605 0.38542 0.0
C117 C 0.79107 0.19691 0.36965 0.0
C118 C 0.81708 0.23195 0.31565 0.0
C119 C 0.80245 0.25421 0.32851 0.0
C120 C 0.78772 0.2721 0.30893 0.0
C121 C 0.78791 0.26869 0.27593 0.0
C122 C 0.8041 0.24734 0.2632 0.0
C123 C 0.81821 0.22907 0.28288 0.0
H124 H 0.81955 0.77926 0.42478 0.0
N125 N 0.81075 0.80257 0.36916 0.0
H126 H 0.86343 0.76294 0.44607 0.0
H127 H 0.85877 0.79563 0.3356 0.0
H128 H 0.90226 0.77879 0.35641 0.0
H129 H 0.84799 0.84367 0.35641 0.0
H130 H 0.84662 0.89075 0.37701 0.0
H131 H 0.77063 0.82613 0.40179 0.0
H132 H 0.76903 0.87328 0.42218 0.0
H133 H 0.77123 0.76602 0.35949 0.0
H134 H 0.82455 0.82254 0.3108 0.0
H135 H 0.75228 0.75062 0.30922 0.0
H136 H 0.80745 0.80598 0.2604 0.0
H137 H 0.72503 0.68253 0.16823 0.0
H138 H 0.74165 0.63925 0.1471 0.0
H139 H 0.81507 0.67983 0.11339 0.0
H140 H 0.79717 0.72386 0.13304 0.0
H141 H 0.73469 0.74537 0.10007 0.0
H142 H 0.68867 0.74532 0.07639 0.0
H143 H 0.65295 0.72847 0.16736 0.0
H144 H 0.6991 0.72775 0.19093 0.0
H145 H 0.74868 0.70542 0.21548 0.0
H146 H 0.7627 0.72375 0.26612 0.0
H147 H 0.77188 0.80444 0.22426 0.0
N148 N 0.74809 0.73324 0.15898 0.0
H149 H 0.75973 0.78519 0.17296 0.0
C150 C 0.83568 0.78873 0.37872 0.0
C151 C 0.83738 0.77848 0.40951 0.0
C152 C 0.8624 0.76896 0.42152 0.0
C153 C 0.88624 0.76941 0.40279 0.0
C154 C 0.88419 0.77818 0.37134 0.0
C155 C 0.8592 0.78781 0.35939 0.0
C156 C 0.8093 0.83128 0.37767 0.0
C157 C 0.83052 0.84999 0.37042 0.0
C158 C 0.82981 0.87687 0.38228 0.0
C159 C 0.80768 0.88565 0.40105 0.0
C160 C 0.78615 0.86718 0.40739 0.0
C161 C 0.78701 0.84029 0.39583 0.0
C162 C 0.7995 0.79506 0.33896 0.0
C163 C 0.77894 0.77495 0.33785 0.0
C164 C 0.76836 0.76601 0.30901 0.0
C165 C 0.7785 0.7767 0.28044 0.0
C166 C 0.79878 0.7974 0.28172 0.0
C167 C 0.80893 0.80671 0.31066 0.0
C168 C 0.75971 0.70661 0.15171 0.0
C169 C 0.74486 0.68216 0.15668 0.0
C170 C 0.75468 0.6572 0.14498 0.0
C171 C 0.7799 0.65592 0.12877 0.0
C172 C 0.79552 0.68013 0.12562 0.0
C173 C 0.78543 0.70524 0.13692 0.0
C174 C 0.72043 0.7369 0.14722 0.0
C175 C 0.71692 0.74209 0.11498 0.0
C176 C 0.69075 0.74182 0.10149 0.0
C177 C 0.66749 0.73664 0.12011 0.0
C178 C 0.6707 0.73246 0.15263 0.0
C179 C 0.69702 0.73227 0.16609 0.0
C180 C 0.75377 0.74386 0.19009 0.0
C181 C 0.75386 0.727 0.21703 0.0
C182 C 0.7616 0.7377 0.24628 0.0
C183 C 0.76874 0.76567 0.24953 0.0
C184 C 0.7673 0.78269 0.22272 0.0
C185 C 0.76008 0.77182 0.19337 0.0
H186 H 0.32938 0.74129 0.13985 0.0
N187 N 0.33858 0.72083 0.19893 0.0
H188 H 0.36345 0.76281 0.10566 0.0
H189 H 0.38878 0.73758 0.21511 0.0
H190 H 0.42363 0.75784 0.18023 0.0
H191 H 0.371 0.67742 0.19198 0.0
H192 H 0.36373 0.63759 0.15825 0.0
H193 H 0.29022 0.70777 0.16866 0.0
H194 H 0.28175 0.66671 0.13698 0.0
H195 H 0.30413 0.76277 0.17949 0.0
H196 H 0.32446 0.71055 0.25825 0.0
H197 H 0.27285 0.78878 0.21214 0.0
H198 H 0.29136 0.73545 0.29098 0.0
H199 H 0.23397 0.89112 0.31113 0.0
H200 H 0.25516 0.92687 0.34409 0.0
H201 H 0.25922 0.86954 0.42161 0.0
H202 H 0.2379 0.8343 0.38906 0.0
H203 H 0.20742 0.79805 0.36918 0.0
H204 H 0.16616 0.79173 0.4015 0.0
H205 H 0.12855 0.86198 0.3564 0.0
H206 H 0.17027 0.86867 0.32491 0.0
H207 H 0.2064 0.82514 0.2711 0.0
H208 H 0.23169 0.79193 0.23902 0.0
H209 H 0.28676 0.77696 0.31724 0.0
N210 N 0.2174 0.84136 0.32942 0.0
H211 H 0.26028 0.80839 0.34945 0.0
C212 C 0.35655 0.73791 0.1802 0.0
C213 C 0.34953 0.7458 0.14933 0.0
C214 C 0.36913 0.75782 0.12967 0.0
C215 C 0.39632 0.76144 0.14012 0.0
C216 C 0.40281 0.75533 0.1716 0.0
C217 C 0.38301 0.74369 0.19148 0.0
C218 C 0.33116 0.69545 0.18334 0.0
C219 C 0.35126 0.67489 0.18053 0.0
C220 C 0.34693 0.65195 0.16137 0.0
C221 C 0.32193 0.64852 0.14518 0.0
C222 C 0.30132 0.66869 0.14894 0.0
C223 C 0.30599 0.69209 0.16746 0.0
C224 C 0.31737 0.73492 0.21659 0.0
C225 C 0.30173 0.75657 0.20373 0.0
C226 C 0.28333 0.77135 0.22255 0.0
C227 C 0.27955 0.76453 0.25451 0.0
C228 C 0.29414 0.74188 0.26677 0.0
C229 C 0.31291 0.7274 0.24804 0.0
C230 C 0.23415 0.86012 0.34751 0.0
C231 C 0.24014 0.88613 0.33497 0.0
C232 C 0.25239 0.90641 0.35371 0.0
C233 C 0.25882 0.90088 0.38535 0.0
C234 C 0.25443 0.87429 0.39728 0.0
C235 C 0.24219 0.85412 0.37862 0.0
C236 C 0.19193 0.83399 0.34469 0.0
C237 C 0.19017 0.81184 0.36593 0.0
C238 C 0.16656 0.80827 0.3844 0.0
C239 C 0.14433 0.82673 0.38196 0.0
C240 C 0.1456 0.84788 0.35943 0.0
C241 C 0.16922 0.85151 0.34114 0.0
C242 C 0.2316 0.81985 0.31244 0.0
C243 C 0.22371 0.81432 0.28136 0.0
C244 C 0.23842 0.7955 0.26298 0.0
C245 C 0.26175 0.78199 0.27518 0.0
C246 C 0.26887 0.78668 0.3069 0.0
C247 C 0.25381 0.80511 0.32542 0.0
H248 H 0.1955 0.84745 0.66068 0.0
N249 N 0.23756 0.80934 0.66042 0.0
H250 H 0.19747 0.89348 0.63866 0.0
H251 H 0.28254 0.83741 0.6449 0.0
H252 H 0.28526 0.88476 0.62566 0.0
H253 H 0.23216 0.78993 0.6024 0.0
H254 H 0.18973 0.7741 0.57704 0.0
H255 H 0.18894 0.79817 0.69057 0.0
H256 H 0.1465 0.78205 0.66532 0.0
H257 H 0.22761 0.83313 0.71782 0.0
H258 H 0.26825 0.76542 0.67178 0.0
H259 H 0.24558 0.8177 0.76865 0.0
H260 H 0.28497 0.74875 0.7225 0.0
H261 H 0.32872 0.77861 0.906 0.0
H262 H 0.37571 0.77944 0.92699 0.0
H263 H 0.39577 0.70765 0.87166 0.0
H264 H 0.34884 0.70662 0.85129 0.0
H265 H 0.30182 0.69401 0.83306 0.0
H266 H 0.2872 0.64863 0.85176 0.0
H267 H 0.26962 0.6832 0.94327 0.0
H268 H 0.28391 0.7286 0.92428 0.0
H269 H 0.25943 0.76684 0.85806 0.0
H270 H 0.24179 0.78391 0.80784 0.0
H271 H 0.31681 0.75741 0.76217 0.0
N272 N 0.30632 0.74065 0.86899 0.0
H273 H 0.33336 0.73907 0.81176 0.0
C274 C 0.23887 0.8385 0.65359 0.0
C275 C 0.21524 0.85533 0.65323 0.0
C276 C 0.21647 0.88206 0.64104 0.0
C277 C 0.24152 0.893 0.63015 0.0
C278 C 0.26548 0.87687 0.63315 0.0
C279 C 0.26407 0.84987 0.64441 0.0
C280 C 0.21373 0.79525 0.6482 0.0
C281 C 0.21374 0.78745 0.61646 0.0
C282 C 0.18959 0.7784 0.60209 0.0
C283 C 0.16503 0.77677 0.61936 0.0
C284 C 0.16534 0.78273 0.65171 0.0
C285 C 0.18954 0.79202 0.66608 0.0
C286 C 0.24705 0.80058 0.69097 0.0
C287 C 0.24036 0.81488 0.71871 0.0
C288 C 0.25046 0.80582 0.74783 0.0
C289 C 0.26699 0.78202 0.74984 0.0
C290 C 0.27299 0.76752 0.72196 0.0
C291 C 0.26325 0.77683 0.69293 0.0
C292 C 0.33512 0.74267 0.87716 0.0
C293 C 0.34341 0.76335 0.89804 0.0
C294 C 0.37021 0.76376 0.90999 0.0
C295 C 0.38929 0.74335 0.9013 0.0
C296 C 0.38136 0.72329 0.87929 0.0
C297 C 0.35453 0.72286 0.86741 0.0
C298 C 0.29408 0.71467 0.87748 0.0
C299 C 0.29429 0.69195 0.85693 0.0
C300 C 0.28604 0.66603 0.86765 0.0
C301 C 0.27761 0.6624 0.89905 0.0
C302 C 0.27588 0.68545 0.91891 0.0
C303 C 0.28411 0.71131 0.90818 0.0
C304 C 0.29774 0.75185 0.83902 0.0
C305 C 0.27204 0.76484 0.83715 0.0
C306 C 0.26209 0.77475 0.80841 0.0
C307 C 0.27782 0.77212 0.78075 0.0
C308 C 0.30382 0.75941 0.78276 0.0
C309 C 0.31355 0.74911 0.81144 0.0
H310 H 0.3226 0.27692 0.93723 0.0
N311 N 0.3128 0.29798 0.8807 0.0
H312 H 0.36669 0.2609 0.95812 0.0
H313 H 0.36032 0.29108 0.84681 0.0
H314 H 0.40413 0.27411 0.86708 0.0
H315 H 0.34471 0.33975 0.85759 0.0
H316 H 0.34399 0.38781 0.87542 0.0
H317 H 0.27635 0.32134 0.91859 0.0
H318 H 0.27551 0.36921 0.9366 0.0
H319 H 0.27109 0.26318 0.88195 0.0
H320 H 0.32305 0.30847 0.81832 0.0
H321 H 0.24823 0.24124 0.83741 0.0
H322 H 0.30173 0.28525 0.77342 0.0
H323 H 0.22238 0.1448 0.69833 0.0
H324 H 0.24844 0.11351 0.66448 0.0
H325 H 0.29436 0.18237 0.62752 0.0
H326 H 0.26818 0.21362 0.66192 0.0
H327 H 0.22452 0.23365 0.64897 0.0
H328 H 0.18428 0.24602 0.61751 0.0
H329 H 0.13229 0.20055 0.68148 0.0
H330 H 0.17292 0.18772 0.71254 0.0
H331 H 0.23586 0.18168 0.75758 0.0
H332 H 0.2571 0.20701 0.80067 0.0
H333 H 0.26263 0.27907 0.74111 0.0
N334 N 0.22519 0.19915 0.69993 0.0
H335 H 0.24275 0.25278 0.69756 0.0
C336 C 0.33805 0.28508 0.89054 0.0
C337 C 0.34021 0.27574 0.92166 0.0
C338 C 0.36535 0.26632 0.93342 0.0
C339 C 0.38883 0.26584 0.9141 0.0
C340 C 0.38636 0.27414 0.88248 0.0
C341 C 0.36124 0.2838 0.87082 0.0
C342 C 0.31052 0.327 0.88691 0.0
C343 C 0.32928 0.34614 0.87442 0.0
C344 C 0.329 0.37352 0.88482 0.0
C345 C 0.30991 0.38215 0.90769 0.0
C346 C 0.2904 0.36319 0.9189 0.0
C347 C 0.2908 0.33591 0.90864 0.0
C348 C 0.29901 0.28697 0.85351 0.0
C349 C 0.27762 0.26822 0.85825 0.0
C350 C 0.26482 0.25551 0.8327 0.0
C351 C 0.27348 0.26092 0.80164 0.0
C352 C 0.29442 0.28054 0.79689 0.0
C353 C 0.30692 0.29364 0.8226 0.0
C354 C 0.24318 0.18137 0.68236 0.0
C355 C 0.2385 0.153 0.68342 0.0
C356 C 0.25358 0.13519 0.66431 0.0
C357 C 0.2737 0.14548 0.64365 0.0
C358 C 0.27909 0.17391 0.64337 0.0
C359 C 0.26407 0.19175 0.66281 0.0
C360 C 0.20166 0.2098 0.68326 0.0
C361 C 0.20447 0.22672 0.65658 0.0
C362 C 0.18139 0.23389 0.63866 0.0
C363 C 0.15507 0.22439 0.64713 0.0
C364 C 0.1523 0.2081 0.67431 0.0
C365 C 0.17538 0.20093 0.69217 0.0
C366 C 0.23736 0.21536 0.72462 0.0
C367 C 0.24167 0.20296 0.75393 0.0
C368 C 0.25361 0.21763 0.77861 0.0
C369 C 0.26125 0.24537 0.77472 0.0
C370 C 0.25718 0.25775 0.74503 0.0
C371 C 0.24553 0.24281 0.72011 0.0
H372 H 0.82072 0.2664 0.60677 0.0
N373 N 0.8083 0.24406 0.66208 0.0
H374 H 0.86597 0.28203 0.58885 0.0
H375 H 0.85382 0.25141 0.69943 0.0
H376 H 0.8988 0.26784 0.68197 0.0
H377 H 0.84948 0.20479 0.66191 0.0
H378 H 0.8474 0.16011 0.63682 0.0
H379 H 0.76353 0.21807 0.64168 0.0
H380 H 0.76054 0.17179 0.61941 0.0
H381 H 0.77797 0.28811 0.67437 0.0
H382 H 0.81346 0.2164 0.71807 0.0
H383 H 0.75989 0.30312 0.7252 0.0
H384 H 0.79433 0.23039 0.76888 0.0
H385 H 0.73846 0.35748 0.83698 0.0
H386 H 0.75366 0.40282 0.85528 0.0
H387 H 0.78338 0.36609 0.94143 0.0
H388 H 0.76796 0.3209 0.92309 0.0
H389 H 0.72121 0.27332 0.91298 0.0
H390 H 0.67614 0.27248 0.93887 0.0
H391 H 0.64939 0.34006 0.88032 0.0
H392 H 0.6945 0.34129 0.85528 0.0
H393 H 0.71175 0.31333 0.81482 0.0
H394 H 0.72694 0.29485 0.76453 0.0
H395 H 0.80049 0.26325 0.80903 0.0
N396 N 0.73943 0.30981 0.87142 0.0
H397 H 0.78432 0.28072 0.85969 0.0
C398 C 0.83383 0.25764 0.65425 0.0
C399 C 0.83755 0.26726 0.62344 0.0
C400 C 0.86335 0.27628 0.61332 0.0
C401 C 0.88595 0.2758 0.63394 0.0
C402 C 0.88181 0.268 0.66547 0.0
C403 C 0.85602 0.25882 0.67553 0.0
C404 C 0.80669 0.21538 0.65291 0.0
C405 C 0.8299 0.19793 0.65277 0.0
C406 C 0.82859 0.1719 0.6388 0.0
C407 C 0.80379 0.16212 0.6259 0.0
C408 C 0.78016 0.17879 0.62843 0.0
C409 C 0.78171 0.20517 0.64144 0.0
C410 C 0.7968 0.25114 0.69235 0.0
C411 C 0.78144 0.27541 0.69496 0.0
C412 C 0.77096 0.2838 0.72404 0.0
C413 C 0.77545 0.26793 0.7513 0.0
C414 C 0.79069 0.24334 0.74854 0.0
C415 C 0.80144 0.23512 0.71942 0.0
C416 C 0.75195 0.33585 0.87892 0.0
C417 C 0.74871 0.3591 0.85952 0.0
C418 C 0.75744 0.38496 0.86993 0.0
C419 C 0.76985 0.38789 0.89965 0.0
C420 C 0.77439 0.36436 0.91817 0.0
C421 C 0.76547 0.33861 0.90786 0.0
C422 C 0.71135 0.30716 0.88213 0.0
C423 C 0.70542 0.28758 0.90537 0.0
C424 C 0.67972 0.28721 0.92015 0.0
C425 C 0.65937 0.30653 0.91199 0.0
C426 C 0.66485 0.32534 0.88764 0.0
C427 C 0.69062 0.32578 0.87296 0.0
C428 C 0.74682 0.29817 0.84131 0.0
C429 C 0.73091 0.30211 0.81401 0.0
C430 C 0.73983 0.2917 0.78502 0.0
C431 C 0.76505 0.27754 0.78251 0.0
C432 C 0.78075 0.27354 0.80998 0.0
C433 C 0.77165 0.28366 0.83897 0.0
H434 H 0.78072 0.82799 0.59944 0.0
N435 N 0.79974 0.81811 0.65702 0.0
H436 H 0.76258 0.87154 0.57911 0.0
H437 H 0.78582 0.86321 0.69241 0.0
H438 H 0.76649 0.90623 0.67266 0.0
H439 H 0.83456 0.8625 0.64844 0.0
H440 H 0.88093 0.86044 0.62823 0.0
H441 H 0.83246 0.7738 0.6546 0.0
H442 H 0.88027 0.77188 0.63738 0.0
H443 H 0.76636 0.77524 0.6536 0.0
H444 H 0.80872 0.82715 0.71976 0.0
H445 H 0.74443 0.75055 0.69684 0.0
H446 H 0.78535 0.80397 0.76354 0.0
H447 H 0.6447 0.72226 0.83288 0.0
H448 H 0.61254 0.74898 0.8649 0.0
H449 H 0.68038 0.79571 0.90296 0.0
H450 H 0.71252 0.76866 0.87062 0.0
H451 H 0.73302 0.72495 0.88435 0.0
H452 H 0.74446 0.68511 0.91704 0.0
H453 H 0.69804 0.6327 0.85454 0.0
H454 H 0.6865 0.67286 0.82195 0.0
H455 H 0.68326 0.73515 0.77456 0.0
H456 H 0.7092 0.75739 0.73264 0.0
H457 H 0.7794 0.76421 0.79479 0.0
N458 N 0.69906 0.72515 0.83295 0.0
H459 H 0.75245 0.74331 0.83716 0.0
C460 C 0.78468 0.84228 0.6473 0.0
C461 C 0.77711 0.84484 0.61561 0.0
C462 C 0.76662 0.86967 0.60412 0.0
C463 C 0.76346 0.89243 0.62423 0.0
C464 C 0.7692 0.88921 0.65649 0.0
C465 C 0.78001 0.86446 0.6679 0.0
C466 C 0.82939 0.81814 0.65282 0.0
C467 C 0.84421 0.84252 0.64661 0.0
C468 C 0.87124 0.84139 0.63534 0.0
C469 C 0.88459 0.81597 0.63101 0.0
C470 C 0.87055 0.79183 0.63981 0.0
C471 C 0.84324 0.79289 0.6501 0.0
C472 C 0.78864 0.80324 0.68348 0.0
C473 C 0.77073 0.78135 0.67761 0.0
C474 C 0.75802 0.76749 0.70243 0.0
C475 C 0.76251 0.77558 0.73387 0.0
C476 C 0.78135 0.79704 0.73975 0.0
C477 C 0.79451 0.81059 0.71476 0.0
C478 C 0.68083 0.74335 0.84961 0.0
C479 C 0.65251 0.73866 0.84766 0.0
C480 C 0.6342 0.75415 0.86569 0.0
C481 C 0.64392 0.77476 0.88609 0.0
C482 C 0.67234 0.78008 0.88727 0.0
C483 C 0.69069 0.76459 0.869 0.0
C484 C 0.70912 0.70178 0.85041 0.0
C485 C 0.7258 0.70486 0.87723 0.0
C486 C 0.73234 0.68204 0.89593 0.0
C487 C 0.72227 0.65576 0.88823 0.0
C488 C 0.70605 0.6527 0.86106 0.0
C489 C 0.69963 0.67551 0.84233 0.0
C490 C 0.71594 0.73718 0.80874 0.0
C491 C 0.7043 0.74136 0.779 0.0
C492 C 0.71933 0.75391 0.75499 0.0
C493 C 0.7467 0.76232 0.75998 0.0
C494 C 0.75838 0.7582 0.79003 0.0
C495 C 0.74306 0.74594 0.81428 0.0
C496 C 0.98804 0.28219 0.56508 0.0
C497 C 0.05941 0.28722 0.48464 0.0
O498 O 0.99799 0.30388 0.55281 0.0
Zn499 Zn 0.02338 0.28558 0.5243 0.0
O500 O 0.99667 0.25858 0.55599 0.0
Zn501 Zn 0.02549 0.24184 0.52335 0.0
O502 O 0.05038 0.22208 0.55035 0.0
O503 O 0.05349 0.26711 0.55567 0.0
O504 O 0.05342 0.26257 0.49276 0.0
O505 O 0.04641 0.30746 0.4964 0.0
O506 O 0.99551 0.26613 0.49179 0.0
O507 O 0.00228 0.22142 0.49467 0.0
C508 C 0.06174 0.24284 0.5631 0.0
C509 C 0.98947 0.24169 0.48273 0.0
C510 C 0.79912 0.06288 0.54888 0.0
C511 C 0.80135 0.98775 0.47164 0.0
O512 O 0.82044 0.05001 0.53957 0.0
Zn513 Zn 0.80167 0.02503 0.51104 0.0
O514 O 0.77528 0.05575 0.53887 0.0
Zn515 Zn 0.75739 0.02556 0.50807 0.0
O516 O 0.73634 0.00176 0.53644 0.0
O517 O 0.78124 0.99889 0.54323 0.0
O518 O 0.77712 0.99618 0.4785 0.0
O519 O 0.82199 0.99875 0.4851 0.0
O520 O 0.78462 0.05293 0.47736 0.0
O521 O 0.73921 0.04905 0.47734 0.0
C522 C 0.75688 0.99162 0.55095 0.0
C523 C 0.76104 0.06011 0.46671 0.0
C524 C 0.98493 0.80978 0.55576 0.0
C525 C 0.05451 0.81408 0.47214 0.0
O526 O 0.99604 0.83127 0.5444 0.0
Zn527 Zn 0.02058 0.81297 0.5147 0.0
O528 O 0.99318 0.78603 0.54665 0.0
Zn529 Zn 0.02277 0.76894 0.5149 0.0
O530 O 0.04967 0.75094 0.54233 0.0
O531 O 0.0521 0.79625 0.54327 0.0
O532 O 0.04878 0.78943 0.48083 0.0
O533 O 0.04239 0.83422 0.48541 0.0
O534 O 0.9929 0.79237 0.48354 0.0
O535 O 0.99866 0.74739 0.48797 0.0
C536 C 0.06139 0.77278 0.55188 0.0
C537 C 0.98634 0.76781 0.47553 0.0
C538 C 0.28914 0.06457 0.54938 0.0
C539 C 0.27586 0.99288 0.47012 0.0
O540 O 0.30815 0.05219 0.53447 0.0
Zn541 Zn 0.284 0.02888 0.50911 0.0
O542 O 0.26394 0.05833 0.5446 0.0
Zn543 Zn 0.24027 0.03095 0.51692 0.0
O544 O 0.22341 0.00739 0.54859 0.0
O545 O 0.26799 1.00004 0.54273 0.0
O546 O 0.25364 0.00142 0.48307 0.0
O547 O 0.29878 0.00386 0.47737 0.0
O548 O 0.26246 0.05816 0.48058 0.0
O549 O 0.21825 0.05603 0.4917 0.0
C550 C 0.24497 0.99386 0.55566 0.0
C551 C 0.23783 0.06667 0.47598 0.0
C552 C 0.48912 0.77764 0.05618 0.0
C553 C 0.56101 0.79163 0.97741 0.0
O554 O 0.49972 0.80071 0.04885 0.0
Zn555 Zn 0.52568 0.78612 0.01782 0.0
O556 O 0.49866 0.75546 0.04414 0.0
Zn557 Zn 0.52854 0.74244 0.01096 0.0
O558 O 0.55448 0.72131 0.03554 0.0
O559 O 0.55586 0.76567 0.04647 0.0
O560 O 0.55512 0.76637 0.98242 0.0
O561 O 0.54856 0.81059 0.99236 0.0
O562 O 0.49789 0.76907 0.98343 0.0
O563 O 0.50519 0.72431 0.98051 0.0
C564 C 0.56502 0.74119 0.05078 0.0
C565 C 0.49184 0.7455 0.97173 0.0
C566 C 0.30866 0.56009 0.05376 0.0
C567 C 0.3071 0.48623 0.97536 0.0
O568 O 0.32906 0.54655 0.04321 0.0
Zn569 Zn 0.30873 0.5237 0.01412 0.0
O570 O 0.28433 0.55489 0.04375 0.0
Zn571 Zn 0.26494 0.52674 0.01142 0.0
O572 O 0.24203 0.50418 0.03892 0.0
O573 O 0.28663 0.49811 0.0458 0.0
O574 O 0.28312 0.49579 0.98174 0.0
O575 O 0.32801 0.49684 0.98858 0.0
O576 O 0.29347 0.55255 0.98036 0.0
O577 O 0.24808 0.55186 0.98169 0.0
C578 C 0.26178 0.49239 0.05324 0.0
C579 C 0.27027 0.5614 0.97019 0.0
C580 C 0.55981 0.30619 0.98881 0.0
C581 C 0.48017 0.31192 0.05926 0.0
O582 O 0.54733 0.32782 0.99779 0.0
Zn583 Zn 0.52045 0.31033 0.02497 0.0
O584 O 0.55177 0.28272 0.99908 0.0
Zn585 Zn 0.52115 0.26641 0.03027 0.0
O586 O 0.49897 0.24347 0.0025 0.0
O587 O 0.4956 0.28797 0.99263 0.0
O588 O 0.48889 0.28729 0.05524 0.0
O589 O 0.49251 0.33198 0.04622 0.0
O590 O 0.54491 0.29567 0.06283 0.0
O591 O 0.54349 0.25028 0.06364 0.0
C592 C 0.48867 0.26312 0.98652 0.0
C593 C 0.55231 0.27278 0.07513 0.0
C594 C 0.78643 0.55968 0.05156 0.0
C595 C 0.77798 0.4887 0.9712 0.0
O596 O 0.80593 0.54762 0.0372 0.0
Zn597 Zn 0.78277 0.52446 0.01131 0.0
O598 O 0.76136 0.55379 0.04518 0.0
Zn599 Zn 0.7393 0.527 0.0141 0.0
O600 O 0.71912 0.50398 0.04295 0.0
O601 O 0.76386 0.49701 0.04517 0.0
O602 O 0.75467 0.4976 0.981 0.0
O603 O 0.79996 0.49891 0.98236 0.0
O604 O 0.7641 0.55458 0.98063 0.0
O605 O 0.7193 0.55265 0.98781 0.0
C606 C 0.73948 0.49116 0.05471 0.0
C607 C 0.73989 0.56342 0.97409 0.0
C608 C 0.09615 0.29439 0.40725 0.0
C609 C 0.12205 0.2829 0.41427 0.0
C610 C 0.07644 0.29858 0.43097 0.0
C611 C 0.08205 0.2911 0.46225 0.0
H612 H 0.09054 0.29861 0.38302 0.0
H613 H 0.05608 0.30564 0.42443 0.0
S614 S 0.14715 0.26238 0.49338 0.0
N615 N 0.15275 0.26609 0.45524 0.0
N616 N 0.11556 0.27365 0.49957 0.0
C617 C 0.10835 0.28131 0.46988 0.0
C618 C 0.12847 0.27733 0.44593 0.0
C619 C 0.77314 0.13084 0.4345 0.0
C620 C 0.77252 0.12662 0.4017 0.0
C621 C 0.76723 0.10944 0.45548 0.0
C622 C 0.76008 0.08319 0.44448 0.0
H623 H 0.77993 0.15032 0.44413 0.0
H624 H 0.76967 0.11307 0.4805 0.0
S625 S 0.75279 0.0619 0.36123 0.0
N626 N 0.76201 0.09459 0.3593 0.0
N627 N 0.75102 0.05428 0.39913 0.0
C628 C 0.75783 0.07895 0.41194 0.0
C629 C 0.76403 0.10072 0.39044 0.0
C630 C 0.93376 0.78574 0.41366 0.0
C631 C 0.91365 0.76524 0.41743 0.0
C632 C 0.95802 0.78531 0.43127 0.0
C633 C 0.96331 0.76426 0.45319 0.0
H634 H 0.93005 0.80319 0.39834 0.0
H635 H 0.97227 0.80229 0.42859 0.0
S636 S 0.91879 0.70396 0.4692 0.0
N637 N 0.90166 0.72192 0.44258 0.0
N638 N 0.94755 0.7211 0.47582 0.0
C639 C 0.94429 0.74261 0.45573 0.0
C640 C 0.91933 0.74317 0.4379 0.0
C641 C 0.24909 0.92727 0.43407 0.0
C642 C 0.26564 0.92358 0.40728 0.0
C643 C 0.25313 0.9495 0.45431 0.0
C644 C 0.27405 0.9689 0.44884 0.0
H645 H 0.2323 0.91326 0.43899 0.0
H646 H 0.23951 0.95158 0.4744 0.0
S647 S 0.32387 0.9679 0.38276 0.0
N648 N 0.30429 0.94062 0.37666 0.0
N649 N 0.31219 0.98253 0.41527 0.0
C650 C 0.29134 0.96511 0.42267 0.0
C651 C 0.28697 0.94249 0.40166 0.0
C652 C 0.13183 0.79402 0.57991 0.0
C653 C 0.13865 0.77399 0.60239 0.0
C654 C 0.10677 0.7932 0.56397 0.0
C655 C 0.08757 0.77208 0.56953 0.0
H656 H 0.14588 0.81078 0.57493 0.0
H657 H 0.10252 0.80923 0.5469 0.0
S658 S 0.09581 0.71441 0.62592 0.0
N659 N 0.12447 0.73241 0.62968 0.0
N660 N 0.07722 0.73039 0.59889 0.0
C661 C 0.09424 0.7516 0.59165 0.0
C662 C 0.11977 0.75274 0.6084 0.0
C663 C 0.28274 0.1335 0.5875 0.0
C664 C 0.28583 0.12691 0.61959 0.0
C665 C 0.28692 0.11359 0.56411 0.0
C666 C 0.29484 0.08665 0.57199 0.0
H667 H 0.27471 0.1534 0.58056 0.0
H668 H 0.28186 0.11869 0.53993 0.0
S669 S 0.30964 0.06011 0.65191 0.0
N670 N 0.30044 0.09246 0.65765 0.0
N671 N 0.30826 0.05506 0.61344 0.0
C672 C 0.30036 0.08046 0.60359 0.0
C673 C 0.2959 0.10064 0.62749 0.0
C674 C 0.91986 0.30257 0.60146 0.0
C675 C 0.9141 0.28005 0.62126 0.0
C676 C 0.94487 0.30433 0.58501 0.0
C677 C 0.96474 0.28338 0.58747 0.0
H678 H 0.90449 0.3184 0.59775 0.0
H679 H 0.9479 0.32131 0.56883 0.0
S680 S 0.9607 0.22137 0.6383 0.0
N681 N 0.93114 0.23735 0.64394 0.0
N682 N 0.97806 0.24075 0.61332 0.0
C683 C 0.95988 0.26162 0.60859 0.0
C684 C 0.93457 0.25992 0.62542 0.0
C685 C 0.73716 0.92355 0.58758 0.0
C686 C 0.7578 0.92006 0.61057 0.0
C687 C 0.73513 0.94802 0.57004 0.0
C688 C 0.7539 0.96961 0.57471 0.0
H689 H 0.72331 0.90677 0.58211 0.0
H690 H 0.7201 0.9492 0.55124 0.0
S691 S 0.80977 0.97208 0.63413 0.0
N692 N 0.79594 0.94132 0.63857 0.0
N693 N 0.79185 0.98719 0.606 0.0
C694 C 0.7733 0.96714 0.5991 0.0
C695 C 0.77534 0.94239 0.61695 0.0
C696 C 0.91545 0.79346 0.59129 0.0
C697 C 0.91152 0.81424 0.61401 0.0
C698 C 0.93952 0.792 0.57329 0.0
C699 C 0.96057 0.81158 0.57662 0.0
H700 H 0.89946 0.77851 0.5866 0.0
H701 H 0.94123 0.77582 0.55583 0.0
S702 S 0.96201 0.86888 0.63413 0.0
N703 N 0.93211 0.8537 0.64039 0.0
N704 N 0.97679 0.85165 0.60517 0.0
C705 C 0.95729 0.83231 0.59934 0.0
C706 C 0.93294 0.83348 0.61832 0.0
C707 C 0.2587 0.92184 0.58537 0.0
C708 C 0.24244 0.91975 0.61275 0.0
C709 C 0.25949 0.94602 0.56755 0.0
C710 C 0.24361 0.96908 0.57583 0.0
H711 H 0.27059 0.90441 0.57712 0.0
H712 H 0.2722 0.94641 0.54657 0.0
S713 S 0.19871 0.97544 0.64594 0.0
N714 N 0.21122 0.94387 0.6482 0.0
N715 N 0.21177 0.98895 0.61351 0.0
C716 C 0.22722 0.96754 0.60299 0.0
C717 C 0.22685 0.943 0.6217 0.0
C718 C 0.11351 0.20825 0.61752 0.0
C719 C 0.13081 0.23001 0.62672 0.0
C720 C 0.09115 0.21265 0.59725 0.0
C721 C 0.085 0.23905 0.5855 0.0
H722 H 0.11762 0.18748 0.62553 0.0
H723 H 0.07869 0.19511 0.59065 0.0
S724 S 0.12348 0.30322 0.60346 0.0
N725 N 0.13987 0.27906 0.62337 0.0
N726 N 0.09802 0.28745 0.58516 0.0
C727 C 0.10195 0.2611 0.59492 0.0
C728 C 0.12481 0.25655 0.61548 0.0
C729 C 0.78737 0.13495 0.57935 0.0
C730 C 0.8029 0.13595 0.60737 0.0
C731 C 0.78633 0.11115 0.56085 0.0
C732 C 0.80135 0.08753 0.56901 0.0
H733 H 0.77614 0.15285 0.57124 0.0
H734 H 0.77394 0.11141 0.53964 0.0
S735 S 0.84398 0.07818 0.64047 0.0
N736 N 0.83237 0.11006 0.64322 0.0
N737 N 0.83153 0.06586 0.60714 0.0
C738 C 0.81708 0.08799 0.59669 0.0
C739 C 0.81762 0.11206 0.61614 0.0
C740 C 0.92785 0.25652 0.43005 0.0
C741 C 0.92244 0.23098 0.41584 0.0
C742 C 0.94977 0.25977 0.45119 0.0
C743 C 0.96702 0.23753 0.45934 0.0
H744 H 0.91508 0.27419 0.42465 0.0
H745 H 0.95294 0.2799 0.46152 0.0
S746 S 0.96103 0.1661 0.42901 0.0
N747 N 0.93575 0.18293 0.41157 0.0
N748 N 0.97693 0.18892 0.45132 0.0
C749 C 0.96178 0.21182 0.44525 0.0
C750 C 0.93954 0.20859 0.42351 0.0
C751 C 0.82961 0.92249 0.43402 0.0
C752 C 0.80742 0.91354 0.41535 0.0
C753 C 0.82817 0.94728 0.45104 0.0
C754 C 0.80449 0.96395 0.44995 0.0
H755 H 0.8477 0.90966 0.43661 0.0
H756 H 0.84522 0.95273 0.46622 0.0
S757 S 0.74266 0.95165 0.40041 0.0
N758 N 0.7625 0.92466 0.3939 0.0
N759 N 0.75967 0.97114 0.42558 0.0
C760 C 0.78289 0.95596 0.42975 0.0
C761 C 0.78438 0.93078 0.41257 0.0
C762 C 0.10792 0.79879 0.409 0.0
C763 C 0.1204 0.82446 0.40372 0.0
C764 C 0.08624 0.79588 0.43053 0.0
C765 C 0.0761 0.81852 0.44779 0.0
H766 H 0.11504 0.78074 0.39644 0.0
H767 H 0.07757 0.77557 0.43386 0.0
S768 S 0.10223 0.89019 0.44317 0.0
N769 N 0.12142 0.87292 0.41789 0.0
N770 N 0.08048 0.86758 0.45805 0.0
C771 C 0.08819 0.84442 0.44243 0.0
C772 C 0.11035 0.84735 0.42051 0.0
C773 C 0.20032 0.11694 0.42201 0.0
C774 C 0.22186 0.13258 0.40899 0.0
C775 C 0.20559 0.0957 0.44363 0.0
C776 C 0.23265 0.08908 0.4528 0.0
H777 H 0.17917 0.12152 0.4159 0.0
H778 H 0.1883 0.08441 0.45321 0.0
S779 S 0.29636 0.12337 0.42427 0.0
N780 N 0.2712 0.13959 0.40593 0.0
N781 N 0.28133 0.09987 0.44643 0.0
C782 C 0.2544 0.10441 0.43949 0.0
C783 C 0.24896 0.1261 0.41767 0.0
C784 C 0.63071 0.78565 0.94145 0.0
C785 C 0.62471 0.78748 0.90908 0.0
C786 C 0.61028 0.7903 0.96412 0.0
C787 C 0.58337 0.79739 0.95521 0.0
H788 H 0.65057 0.77818 0.94928 0.0
H789 H 0.61498 0.78612 0.98862 0.0
S790 S 0.55822 0.80912 0.87406 0.0
N791 N 0.59083 0.80033 0.86954 0.0
N792 N 0.55241 0.80885 0.91242 0.0
C793 C 0.57773 0.80174 0.92324 0.0
C794 C 0.59846 0.79688 0.90008 0.0
C795 C 0.25035 0.62857 0.93095 0.0
C796 C 0.27362 0.63449 0.91243 0.0
C797 C 0.24843 0.60387 0.94797 0.0
C798 C 0.26995 0.58449 0.94744 0.0
H799 H 0.23396 0.64356 0.93315 0.0
H800 H 0.23072 0.6007 0.96302 0.0
S801 S 0.33426 0.58925 0.9006 0.0
N802 N 0.31779 0.61822 0.89305 0.0
N803 N 0.31418 0.57187 0.92483 0.0
C804 C 0.29263 0.58955 0.92768 0.0
C805 C 0.29447 0.61454 0.91022 0.0
C806 C 0.43754 0.27982 0.92279 0.0
C807 C 0.41637 0.26069 0.92812 0.0
C808 C 0.46196 0.27891 0.94012 0.0
C809 C 0.4663 0.25879 0.96344 0.0
H810 H 0.43455 0.29678 0.90656 0.0
H811 H 0.47694 0.29509 0.9364 0.0
S812 S 0.41902 0.20153 0.98331 0.0
N813 N 0.40262 0.21906 0.95574 0.0
N814 N 0.44861 0.21754 0.98871 0.0
C815 C 0.44628 0.23822 0.96734 0.0
C816 C 0.42125 0.2392 0.94968 0.0
C817 C 0.75247 0.43426 0.91464 0.0
C818 C 0.7745 0.41556 0.91332 0.0
C819 C 0.75441 0.45856 0.93215 0.0
C820 C 0.77851 0.46524 0.94888 0.0
H821 H 0.73304 0.42938 0.90348 0.0
H822 H 0.73644 0.47171 0.93348 0.0
S823 S 0.84322 0.42464 0.94965 0.0
N824 N 0.82198 0.40637 0.92765 0.0
N825 N 0.82579 0.45223 0.96058 0.0
C826 C 0.80133 0.44756 0.94607 0.0
C827 C 0.79925 0.42263 0.92837 0.0
C828 C 0.59456 0.30109 0.14211 0.0
C829 C 0.61718 0.2831 0.14325 0.0
C830 C 0.57274 0.29647 0.12131 0.0
C831 C 0.5725 0.27351 0.10113 0.0
H832 H 0.59448 0.31981 0.15596 0.0
H833 H 0.55646 0.31169 0.12007 0.0
S834 S 0.62519 0.21841 0.09784 0.0
N835 N 0.6369 0.2401 0.12462 0.0
N836 N 0.5956 0.23128 0.08556 0.0
C837 C 0.59399 0.25429 0.10362 0.0
C838 C 0.61646 0.25918 0.12461 0.0
C839 C 0.79624 0.63204 0.07996 0.0
C840 C 0.78781 0.63035 0.1117 0.0
C841 C 0.79824 0.60843 0.06113 0.0
C842 C 0.79176 0.58243 0.07336 0.0
H843 H 0.79945 0.65186 0.0689 0.0
H844 H 0.80292 0.61078 0.03631 0.0
S845 S 0.77309 0.566 0.15573 0.0
N846 N 0.77686 0.59978 0.15542 0.0
N847 N 0.77936 0.55564 0.11936 0.0
C848 C 0.78516 0.5801 0.10535 0.0
C849 C 0.78356 0.60402 0.12472 0.0
C850 C 0.43839 0.78804 0.12343 0.0
C851 C 0.41856 0.7676 0.11722 0.0
C852 C 0.4608 0.79221 0.10297 0.0
C853 C 0.46431 0.77564 0.07612 0.0
H854 H 0.43672 0.80061 0.1444 0.0
H855 H 0.47595 0.80773 0.10879 0.0
S856 S 0.41769 0.72008 0.04875 0.0
N857 N 0.40372 0.73116 0.08182 0.0
N858 N 0.44538 0.73913 0.04349 0.0
C859 C 0.44423 0.75568 0.06931 0.0
C860 C 0.42148 0.7516 0.08984 0.0
C861 C 0.23641 0.42537 0.08753 0.0
C862 C 0.25693 0.41932 0.10996 0.0
C863 C 0.2364 0.45044 0.07103 0.0
C864 C 0.25711 0.47007 0.07621 0.0
H865 H 0.22106 0.41008 0.08162 0.0
H866 H 0.22135 0.45354 0.05255 0.0
S867 S 0.31348 0.46579 0.13489 0.0
N868 N 0.29704 0.43623 0.13826 0.0
N869 N 0.29672 0.48329 0.10765 0.0
C870 C 0.27642 0.46517 0.10021 0.0
C871 C 0.27642 0.43979 0.11701 0.0
C872 C 0.4245 0.31731 0.12139 0.0
C873 C 0.40034 0.31398 0.10341 0.0
C874 C 0.45055 0.3179 0.10695 0.0
C875 C 0.45313 0.31569 0.0741 0.0
H876 H 0.42333 0.3185 0.14683 0.0
H877 H 0.46875 0.31933 0.12156 0.0
S878 S 0.39667 0.30826 0.01621 0.0
N879 N 0.38097 0.3099 0.05068 0.0
N880 N 0.42986 0.31072 0.02393 0.0
C881 C 0.42927 0.31316 0.05584 0.0
C882 C 0.40287 0.31243 0.07039 0.0
C883 C 0.7554 0.43495 0.11465 0.0
C884 C 0.72926 0.42508 0.12314 0.0
C885 C 0.75842 0.45651 0.0929 0.0
C886 C 0.73541 0.46905 0.0786 0.0
H887 H 0.77371 0.42604 0.12504 0.0
H888 H 0.77904 0.46329 0.08721 0.0
S889 S 0.66235 0.44981 0.09185 0.0
N890 N 0.67993 0.42879 0.11484 0.0
N891 N 0.68546 0.4694 0.0743 0.0
C892 C 0.7091 0.4593 0.08692 0.0
C893 C 0.70606 0.43733 0.10907 0.0
C894 C 0.62008 0.75525 0.11205 0.0
C895 C 0.64005 0.73527 0.10515 0.0
C896 C 0.59528 0.7563 0.09516 0.0
C897 C 0.58941 0.73709 0.07121 0.0
H898 H 0.62415 0.77084 0.12967 0.0
H899 H 0.58089 0.7727 0.1004 0.0
S900 S 0.63448 0.67945 0.04608 0.0
N901 N 0.65205 0.69508 0.07414 0.0
N902 N 0.60527 0.6966 0.04277 0.0
C903 C 0.60876 0.71618 0.06526 0.0
C904 C 0.63416 0.71543 0.0821 0.0
C905 C 0.30523 0.62973 0.0934 0.0
C906 C 0.31812 0.62513 0.12271 0.0
C907 C 0.30223 0.60852 0.07128 0.0
C908 C 0.31261 0.58207 0.07722 0.0
H909 H 0.29776 0.65001 0.08718 0.0
H910 H 0.2921 0.61296 0.04911 0.0
S911 S 0.34581 0.55809 0.15074 0.0
N912 N 0.33927 0.59098 0.15716 0.0
N913 N 0.33492 0.5517 0.11463 0.0
C914 C 0.32534 0.57694 0.10625 0.0
C915 C 0.32781 0.59832 0.1292 0.0
C916 C 0.43262 0.76667 0.91879 0.0
C917 C 0.4169 0.7425 0.91636 0.0
C918 C 0.45748 0.76705 0.93552 0.0
C919 C 0.46767 0.74326 0.95049 0.0
H920 H 0.4254 0.7856 0.90814 0.0
H921 H 0.46847 0.78637 0.93732 0.0
S922 S 0.43424 0.67463 0.95125 0.0
N923 N 0.41329 0.6941 0.93025 0.0
N924 N 0.46016 0.6947 0.96138 0.0
C925 C 0.45258 0.71871 0.94744 0.0
C926 C 0.42717 0.71836 0.93047 0.0
C927 C 0.28637 0.4257 0.92399 0.0
C928 C 0.31077 0.41036 0.92126 0.0
C929 C 0.28579 0.45077 0.94026 0.0
C930 C 0.30956 0.46155 0.95473 0.0
H931 H 0.26737 0.41792 0.91406 0.0
H932 H 0.26624 0.46133 0.94227 0.0
S933 S 0.37907 0.42974 0.95325 0.0
N934 N 0.35956 0.40805 0.93336 0.0
N935 N 0.35862 0.45527 0.96385 0.0
C936 C 0.3344 0.44691 0.95107 0.0
C937 C 0.33496 0.42132 0.93438 0.0
C938 C 0.6185 0.28304 0.93586 0.0
C939 C 0.63296 0.30748 0.92974 0.0
C940 C 0.59458 0.28305 0.95429 0.0
C941 C 0.58407 0.30753 0.96748 0.0
H942 H 0.62583 0.26364 0.92647 0.0
H943 H 0.58445 0.26355 0.9585 0.0
S944 S 0.61454 0.37715 0.95879 0.0
N945 N 0.63526 0.35687 0.93851 0.0
N946 N 0.59011 0.35701 0.97283 0.0
C947 C 0.59808 0.33225 0.96106 0.0
C948 C 0.62254 0.3322 0.9423 0.0
C949 C 0.70542 0.61546 0.91971 0.0
C950 C 0.72749 0.63182 0.90927 0.0
C951 C 0.70962 0.59336 0.94048 0.0
C952 C 0.73612 0.58652 0.95142 0.0
H953 H 0.68462 0.62011 0.91224 0.0
H954 H 0.69189 0.58161 0.94805 0.0
S955 S 0.80099 0.62246 0.93001 0.0
N956 N 0.77684 0.63929 0.9106 0.0
N957 N 0.78491 0.5979 0.94957 0.0
C958 C 0.75844 0.60255 0.94073 0.0
C959 C 0.75409 0.62516 0.91974 0.0
loop_
_geom_bond_atom_site_label_1
_geom_bond_atom_site_label_2
_geom_bond_distance
_geom_bond_site_symmetry_2
_ccdc_geom_bond_type
H0 C27 0.929 . S
N1 C26 1.433 . S
N1 C32 1.435 . S
N1 C38 1.423 . S
H2 C28 0.930 . S
H3 C31 0.931 . S
H4 C30 0.929 . S
H5 C33 0.930 . S
H6 C34 0.932 . S
H7 C37 0.929 . S
H8 C36 0.931 . S
H9 C39 0.929 . S
H10 C43 0.932 . S
H11 C40 0.931 . S
H12 C42 0.929 . S
H13 C45 0.929 . S
H14 C46 0.930 . S
H15 C48 0.929 . S
H16 C49 0.931 . S
H17 C51 0.930 . S
H18 C52 0.932 . S
H19 C54 0.931 . S
H20 C55 0.929 . S
H21 C57 0.929 . S
H22 C58 0.931 . S
H23 C60 0.929 . S
N24 C44 1.433 . S
N24 C50 1.435 . S
N24 C56 1.423 . S
H25 C61 0.932 . S
C26 N1 1.433 . S
C26 C27 1.363 . S
C26 C31 1.370 . S
C27 H0 0.929 . S
C27 C26 1.363 . S
C27 C28 1.385 . S
C28 H2 0.930 . S
C28 C27 1.385 . S
C28 C29 1.357 . S
C29 C28 1.357 . S
C29 C30 1.406 . S
C30 H4 0.929 . S
C30 C29 1.406 . S
C30 C31 1.391 . S
C31 H3 0.931 . S
C31 C26 1.370 . S
C31 C30 1.391 . S
C32 N1 1.435 . S
C32 C33 1.358 . S
C32 C37 1.371 . S
C33 H5 0.930 . S
C33 C32 1.358 . S
C33 C34 1.405 . S
C34 H6 0.932 . S
C34 C33 1.405 . S
C34 C35 1.383 . S
C35 C34 1.383 . S
C35 C36 1.393 . S
C36 H8 0.931 . S
C36 C35 1.393 . S
C36 C37 1.382 . S
C37 H7 0.929 . S
C37 C32 1.371 . S
C37 C36 1.382 . S
C38 N1 1.423 . S
C38 C39 1.362 . S
C38 C43 1.388 . S
C39 H9 0.929 . S
C39 C38 1.362 . S
C39 C40 1.376 . S
C40 H11 0.931 . S
C40 C39 1.376 . S
C40 C41 1.396 . S
C41 C40 1.396 . S
C41 C42 1.348 . S
C41 C59 1.472 . S
C42 H12 0.929 . S
C42 C41 1.348 . S
C42 C43 1.443 . S
C43 H10 0.932 . S
C43 C38 1.388 . S
C43 C42 1.443 . S
C44 N24 1.433 . S
C44 C45 1.363 . S
C44 C49 1.370 . S
C45 H13 0.929 . S
C45 C44 1.363 . S
C45 C46 1.385 . S
C46 H14 0.930 . S
C46 C45 1.385 . S
C46 C47 1.357 . S
C47 C46 1.357 . S
C47 C48 1.406 . S
C48 H15 0.929 . S
C48 C47 1.406 . S
C48 C49 1.391 . S
C49 H16 0.931 . S
C49 C44 1.370 . S
C49 C48 1.391 . S
C50 N24 1.435 . S
C50 C51 1.358 . S
C50 C55 1.371 . S
C51 H17 0.930 . S
C51 C50 1.358 . S
C51 C52 1.405 . S
C52 H18 0.932 . S
C52 C51 1.405 . S
C52 C53 1.383 . S
C53 C52 1.383 . S
C53 C54 1.393 . S
C54 H19 0.931 . S
C54 C53 1.393 . S
C54 C55 1.382 . S
C55 H20 0.929 . S
C55 C50 1.371 . S
C55 C54 1.382 . S
C56 N24 1.423 . S
C56 C57 1.362 . S
C56 C61 1.388 . S
C57 H21 0.929 . S
C57 C56 1.362 . S
C57 C58 1.376 . S
C58 H22 0.931 . S
C58 C57 1.376 . S
C58 C59 1.396 . S
C59 C41 1.472 . S
C59 C58 1.396 . S
C59 C60 1.348 . S
C60 H23 0.929 . S
C60 C59 1.348 . S
C60 C61 1.443 . S
C61 H25 0.932 . S
C61 C56 1.388 . S
C61 C60 1.443 . S
H62 C89 0.929 . S
N63 C88 1.433 . S
N63 C94 1.435 . S
N63 C100 1.423 . S
H64 C90 0.930 . S
H65 C93 0.931 . S
H66 C92 0.929 . S
H67 C95 0.930 . S
H68 C96 0.932 . S
H69 C99 0.929 . S
H70 C98 0.931 . S
H71 C101 0.929 . S
H72 C105 0.932 . S
H73 C102 0.931 . S
H74 C104 0.929 . S
H75 C107 0.929 . S
H76 C108 0.930 . S
H77 C110 0.929 . S
H78 C111 0.931 . S
H79 C113 0.930 . S
H80 C114 0.932 . S
H81 C116 0.931 . S
H82 C117 0.929 . S
H83 C119 0.929 . S
H84 C120 0.931 . S
H85 C122 0.929 . S
N86 C106 1.433 . S
N86 C112 1.435 . S
N86 C118 1.423 . S
H87 C123 0.932 . S
C88 N63 1.433 . S
C88 C89 1.363 . S
C88 C93 1.370 . S
C89 H62 0.929 . S
C89 C88 1.363 . S
C89 C90 1.385 . S
C90 H64 0.930 . S
C90 C89 1.385 . S
C90 C91 1.357 . S
C91 C90 1.357 . S
C91 C92 1.406 . S
C92 H66 0.929 . S
C92 C91 1.406 . S
C92 C93 1.391 . S
C93 H65 0.931 . S
C93 C88 1.370 . S
C93 C92 1.391 . S
C94 N63 1.435 . S
C94 C95 1.358 . S
C94 C99 1.371 . S
C95 H67 0.930 . S
C95 C94 1.358 . S
C95 C96 1.405 . S
C96 H68 0.932 . S
C96 C95 1.405 . S
C96 C97 1.383 . S
C97 C96 1.383 . S
C97 C98 1.393 . S
C98 H70 0.931 . S
C98 C97 1.393 . S
C98 C99 1.382 . S
C99 H69 0.929 . S
C99 C94 1.371 . S
C99 C98 1.382 . S
C100 N63 1.423 . S
C100 C101 1.362 . S
C100 C105 1.388 . S
C101 H71 0.929 . S
C101 C100 1.362 . S
C101 C102 1.376 . S
C102 H73 0.931 . S
C102 C101 1.376 . S
C102 C103 1.396 . S
C103 C102 1.396 . S
C103 C104 1.348 . S
C103 C121 1.472 . S
C104 H74 0.929 . S
C104 C103 1.348 . S
C104 C105 1.443 . S
C105 H72 0.932 . S
C105 C100 1.388 . S
C105 C104 1.443 . S
C106 N86 1.433 . S
C106 C107 1.363 . S
C106 C111 1.370 . S
C107 H75 0.929 . S
C107 C106 1.363 . S
C107 C108 1.385 . S
C108 H76 0.930 . S
C108 C107 1.385 . S
C108 C109 1.357 . S
C109 C108 1.357 . S
C109 C110 1.406 . S
C110 H77 0.929 . S
C110 C109 1.406 . S
C110 C111 1.391 . S
C111 H78 0.931 . S
C111 C106 1.370 . S
C111 C110 1.391 . S
C112 N86 1.435 . S
C112 C113 1.358 . S
C112 C117 1.371 . S
C113 H79 0.930 . S
C113 C112 1.358 . S
C113 C114 1.405 . S
C114 H80 0.932 . S
C114 C113 1.405 . S
C114 C115 1.383 . S
C115 C114 1.383 . S
C115 C116 1.393 . S
C116 H81 0.931 . S
C116 C115 1.393 . S
C116 C117 1.382 . S
C117 H82 0.929 . S
C117 C112 1.371 . S
C117 C116 1.382 . S
C118 N86 1.423 . S
C118 C119 1.362 . S
C118 C123 1.388 . S
C119 H83 0.929 . S
C119 C118 1.362 . S
C119 C120 1.376 . S
C120 H84 0.931 . S
C120 C119 1.376 . S
C120 C121 1.396 . S
C121 C103 1.472 . S
C121 C120 1.396 . S
C121 C122 1.348 . S
C122 H85 0.929 . S
C122 C121 1.348 . S
C122 C123 1.443 . S
C123 H87 0.932 . S
C123 C118 1.388 . S
C123 C122 1.443 . S
H124 C151 0.929 . S
N125 C150 1.433 . S
N125 C156 1.435 . S
N125 C162 1.423 . S
H126 C152 0.930 . S
H127 C155 0.931 . S
H128 C154 0.929 . S
H129 C157 0.930 . S
H130 C158 0.932 . S
H131 C161 0.929 . S
H132 C160 0.931 . S
H133 C163 0.929 . S
H134 C167 0.932 . S
H135 C164 0.931 . S
H136 C166 0.929 . S
H137 C169 0.929 . S
H138 C170 0.930 . S
H139 C172 0.929 . S
H140 C173 0.931 . S
H141 C175 0.930 . S
H142 C176 0.932 . S
H143 C178 0.931 . S
H144 C179 0.929 . S
H145 C181 0.929 . S
H146 C182 0.931 . S
H147 C184 0.929 . S
N148 C168 1.433 . S
N148 C174 1.435 . S
N148 C180 1.423 . S
H149 C185 0.932 . S
C150 N125 1.433 . S
C150 C151 1.363 . S
C150 C155 1.370 . S
C151 H124 0.929 . S
C151 C150 1.363 . S
C151 C152 1.385 . S
C152 H126 0.930 . S
C152 C151 1.385 . S
C152 C153 1.357 . S
C153 C152 1.357 . S
C153 C154 1.406 . S
C154 H128 0.929 . S
C154 C153 1.406 . S
C154 C155 1.391 . S
C155 H127 0.931 . S
C155 C150 1.370 . S
C155 C154 1.391 . S
C156 N125 1.435 . S
C156 C157 1.358 . S
C156 C161 1.371 . S
C157 H129 0.930 . S
C157 C156 1.358 . S
C157 C158 1.405 . S
C158 H130 0.932 . S
C158 C157 1.405 . S
C158 C159 1.383 . S
C159 C158 1.383 . S
C159 C160 1.393 . S
C160 H132 0.931 . S
C160 C159 1.393 . S
C160 C161 1.382 . S
C161 H131 0.929 . S
C161 C156 1.371 . S
C161 C160 1.382 . S
C162 N125 1.423 . S
C162 C163 1.362 . S
C162 C167 1.388 . S
C163 H133 0.929 . S
C163 C162 1.362 . S
C163 C164 1.376 . S
C164 H135 0.931 . S
C164 C163 1.376 . S
C164 C165 1.396 . S
C165 C164 1.396 . S
C165 C166 1.348 . S
C165 C183 1.472 . S
C166 H136 0.929 . S
C166 C165 1.348 . S
C166 C167 1.443 . S
C167 H134 0.932 . S
C167 C162 1.388 . S
C167 C166 1.443 . S
C168 N148 1.433 . S
C168 C169 1.363 . S
C168 C173 1.370 . S
C169 H137 0.929 . S
C169 C168 1.363 . S
C169 C170 1.385 . S
C170 H138 0.930 . S
C170 C169 1.385 . S
C170 C171 1.357 . S
C171 C170 1.357 . S
C171 C172 1.406 . S
C172 H139 0.929 . S
C172 C171 1.406 . S
C172 C173 1.391 . S
C173 H140 0.931 . S
C173 C168 1.370 . S
C173 C172 1.391 . S
C174 N148 1.435 . S
C174 C175 1.358 . S
C174 C179 1.371 . S
C175 H141 0.930 . S
C175 C174 1.358 . S
C175 C176 1.405 . S
C176 H142 0.932 . S
C176 C175 1.405 . S
C176 C177 1.383 . S
C177 C176 1.383 . S
C177 C178 1.393 . S
C178 H143 0.931 . S
C178 C177 1.393 . S
C178 C179 1.382 . S
C179 H144 0.929 . S
C179 C174 1.371 . S
C179 C178 1.382 . S
C180 N148 1.423 . S
C180 C181 1.362 . S
C180 C185 1.388 . S
C181 H145 0.929 . S
C181 C180 1.362 . S
C181 C182 1.376 . S
C182 H146 0.931 . S
C182 C181 1.376 . S
C182 C183 1.396 . S
C183 C165 1.472 . S
C183 C182 1.396 . S
C183 C184 1.348 . S
C184 H147 0.929 . S
C184 C183 1.348 . S
C184 C185 1.443 . S
C185 H149 0.932 . S
C185 C180 1.388 . S
C185 C184 1.443 . S
H186 C213 0.929 . S
N187 C212 1.433 . S
N187 C218 1.435 . S
N187 C224 1.423 . S
H188 C214 0.930 . S
H189 C217 0.931 . S
H190 C216 0.929 . S
H191 C219 0.930 . S
H192 C220 0.932 . S
H193 C223 0.929 . S
H194 C222 0.931 . S
H195 C225 0.929 . S
H196 C229 0.932 . S
H197 C226 0.931 . S
H198 C228 0.929 . S
H199 C231 0.929 . S
H200 C232 0.930 . S
H201 C234 0.929 . S
H202 C235 0.931 . S
H203 C237 0.930 . S
H204 C238 0.932 . S
H205 C240 0.931 . S
H206 C241 0.929 . S
H207 C243 0.929 . S
H208 C244 0.931 . S
H209 C246 0.929 . S
N210 C230 1.433 . S
N210 C236 1.435 . S
N210 C242 1.423 . S
H211 C247 0.932 . S
C212 N187 1.433 . S
C212 C213 1.363 . S
C212 C217 1.370 . S
C213 H186 0.929 . S
C213 C212 1.363 . S
C213 C214 1.385 . S
C214 H188 0.930 . S
C214 C213 1.385 . S
C214 C215 1.357 . S
C215 C214 1.357 . S
C215 C216 1.406 . S
C216 H190 0.929 . S
C216 C215 1.406 . S
C216 C217 1.391 . S
C217 H189 0.931 . S
C217 C212 1.370 . S
C217 C216 1.391 . S
C218 N187 1.435 . S
C218 C219 1.358 . S
C218 C223 1.371 . S
C219 H191 0.930 . S
C219 C218 1.358 . S
C219 C220 1.405 . S
C220 H192 0.932 . S
C220 C219 1.405 . S
C220 C221 1.383 . S
C221 C220 1.383 . S
C221 C222 1.393 . S
C222 H194 0.931 . S
C222 C221 1.393 . S
C222 C223 1.382 . S
C223 H193 0.929 . S
C223 C218 1.371 . S
C223 C222 1.382 . S
C224 N187 1.423 . S
C224 C225 1.362 . S
C224 C229 1.388 . S
C225 H195 0.929 . S
C225 C224 1.362 . S
C225 C226 1.376 . S
C226 H197 0.931 . S
C226 C225 1.376 . S
C226 C227 1.396 . S
C227 C226 1.396 . S
C227 C228 1.348 . S
C227 C245 1.472 . S
C228 H198 0.929 . S
C228 C227 1.348 . S
C228 C229 1.443 . S
C229 H196 0.932 . S
C229 C224 1.388 . S
C229 C228 1.443 . S
C230 N210 1.433 . S
C230 C231 1.363 . S
C230 C235 1.370 . S
C231 H199 0.929 . S
C231 C230 1.363 . S
C231 C232 1.385 . S
C232 H200 0.930 . S
C232 C231 1.385 . S
C232 C233 1.357 . S
C233 C232 1.357 . S
C233 C234 1.406 . S
C234 H201 0.929 . S
C234 C233 1.406 . S
C234 C235 1.391 . S
C235 H202 0.931 . S
C235 C230 1.370 . S
C235 C234 1.391 . S
C236 N210 1.435 . S
C236 C237 1.358 . S
C236 C241 1.371 . S
C237 H203 0.930 . S
C237 C236 1.358 . S
C237 C238 1.405 . S
C238 H204 0.932 . S
C238 C237 1.405 . S
C238 C239 1.383 . S
C239 C238 1.383 . S
C239 C240 1.393 . S
C240 H205 0.931 . S
C240 C239 1.393 . S
C240 C241 1.382 . S
C241 H206 0.929 . S
C241 C236 1.371 . S
C241 C240 1.382 . S
C242 N210 1.423 . S
C242 C243 1.362 . S
C242 C247 1.388 . S
C243 H207 0.929 . S
C243 C242 1.362 . S
C243 C244 1.376 . S
C244 H208 0.931 . S
C244 C243 1.376 . S
C244 C245 1.396 . S
C245 C227 1.472 . S
C245 C244 1.396 . S
C245 C246 1.348 . S
C246 H209 0.929 . S
C246 C245 1.348 . S
C246 C247 1.443 . S
C247 H211 0.932 . S
C247 C242 1.388 . S
C247 C246 1.443 . S
H248 C275 0.929 . S
N249 C274 1.433 . S
N249 C280 1.435 . S
N249 C286 1.423 . S
H250 C276 0.930 . S
H251 C279 0.931 . S
H252 C278 0.929 . S
H253 C281 0.930 . S
H254 C282 0.932 . S
H255 C285 0.929 . S
H256 C284 0.931 . S
H257 C287 0.929 . S
H258 C291 0.932 . S
H259 C288 0.931 . S
H260 C290 0.929 . S
H261 C293 0.929 . S
H262 C294 0.930 . S
H263 C296 0.929 . S
H264 C297 0.931 . S
H265 C299 0.930 . S
H266 C300 0.932 . S
H267 C302 0.931 . S
H268 C303 0.929 . S
H269 C305 0.929 . S
H270 C306 0.931 . S
H271 C308 0.929 . S
N272 C292 1.433 . S
N272 C298 1.435 . S
N272 C304 1.423 . S
H273 C309 0.932 . S
C274 N249 1.433 . S
C274 C275 1.363 . S
C274 C279 1.370 . S
C275 H248 0.929 . S
C275 C274 1.363 . S
C275 C276 1.385 . S
C276 H250 0.930 . S
C276 C275 1.385 . S
C276 C277 1.357 . S
C277 C276 1.357 . S
C277 C278 1.406 . S
C278 H252 0.929 . S
C278 C277 1.406 . S
C278 C279 1.391 . S
C279 H251 0.931 . S
C279 C274 1.370 . S
C279 C278 1.391 . S
C280 N249 1.435 . S
C280 C281 1.358 . S
C280 C285 1.371 . S
C281 H253 0.930 . S
C281 C280 1.358 . S
C281 C282 1.405 . S
C282 H254 0.932 . S
C282 C281 1.405 . S
C282 C283 1.383 . S
C283 C282 1.383 . S
C283 C284 1.393 . S
C284 H256 0.931 . S
C284 C283 1.393 . S
C284 C285 1.382 . S
C285 H255 0.929 . S
C285 C280 1.371 . S
C285 C284 1.382 . S
C286 N249 1.423 . S
C286 C287 1.362 . S
C286 C291 1.388 . S
C287 H257 0.929 . S
C287 C286 1.362 . S
C287 C288 1.376 . S
C288 H259 0.931 . S
C288 C287 1.376 . S
C288 C289 1.396 . S
C289 C288 1.396 . S
C289 C290 1.348 . S
C289 C307 1.472 . S
C290 H260 0.929 . S
C290 C289 1.348 . S
C290 C291 1.443 . S
C291 H258 0.932 . S
C291 C286 1.388 . S
C291 C290 1.443 . S
C292 N272 1.433 . S
C292 C293 1.363 . S
C292 C297 1.370 . S
C293 H261 0.929 . S
C293 C292 1.363 . S
C293 C294 1.385 . S
C294 H262 0.930 . S
C294 C293 1.385 . S
C294 C295 1.357 . S
C295 C294 1.357 . S
C295 C296 1.406 . S
C296 H263 0.929 . S
C296 C295 1.406 . S
C296 C297 1.391 . S
C297 H264 0.931 . S
C297 C292 1.370 . S
C297 C296 1.391 . S
C298 N272 1.435 . S
C298 C299 1.358 . S
C298 C303 1.371 . S
C299 H265 0.930 . S
C299 C298 1.358 . S
C299 C300 1.405 . S
C300 H266 0.932 . S
C300 C299 1.405 . S
C300 C301 1.383 . S
C301 C300 1.383 . S
C301 C302 1.393 . S
C302 H267 0.931 . S
C302 C301 1.393 . S
C302 C303 1.382 . S
C303 H268 0.929 . S
C303 C298 1.371 . S
C303 C302 1.382 . S
C304 N272 1.423 . S
C304 C305 1.362 . S
C304 C309 1.388 . S
C305 H269 0.929 . S
C305 C304 1.362 . S
C305 C306 1.376 . S
C306 H270 0.931 . S
C306 C305 1.376 . S
C306 C307 1.396 . S
C307 C289 1.472 . S
C307 C306 1.396 . S
C307 C308 1.348 . S
C308 H271 0.929 . S
C308 C307 1.348 . S
C308 C309 1.443 . S
C309 H273 0.932 . S
C309 C304 1.388 . S
C309 C308 1.443 . S
H310 C337 0.929 . S
N311 C336 1.433 . S
N311 C342 1.435 . S
N311 C348 1.423 . S
H312 C338 0.930 . S
H313 C341 0.931 . S
H314 C340 0.929 . S
H315 C343 0.930 . S
H316 C344 0.932 . S
H317 C347 0.929 . S
H318 C346 0.931 . S
H319 C349 0.929 . S
H320 C353 0.932 . S
H321 C350 0.931 . S
H322 C352 0.929 . S
H323 C355 0.929 . S
H324 C356 0.930 . S
H325 C358 0.929 . S
H326 C359 0.931 . S
H327 C361 0.930 . S
H328 C362 0.932 . S
H329 C364 0.931 . S
H330 C365 0.929 . S
H331 C367 0.929 . S
H332 C368 0.931 . S
H333 C370 0.929 . S
N334 C354 1.433 . S
N334 C360 1.435 . S
N334 C366 1.423 . S
H335 C371 0.932 . S
C336 N311 1.433 . S
C336 C337 1.363 . S
C336 C341 1.370 . S
C337 H310 0.929 . S
C337 C336 1.363 . S
C337 C338 1.385 . S
C338 H312 0.930 . S
C338 C337 1.385 . S
C338 C339 1.357 . S
C339 C338 1.357 . S
C339 C340 1.406 . S
C340 H314 0.929 . S
C340 C339 1.406 . S
C340 C341 1.391 . S
C341 H313 0.931 . S
C341 C336 1.370 . S
C341 C340 1.391 . S
C342 N311 1.435 . S
C342 C343 1.358 . S
C342 C347 1.371 . S
C343 H315 0.930 . S
C343 C342 1.358 . S
C343 C344 1.405 . S
C344 H316 0.932 . S
C344 C343 1.405 . S
C344 C345 1.383 . S
C345 C344 1.383 . S
C345 C346 1.393 . S
C346 H318 0.931 . S
C346 C345 1.393 . S
C346 C347 1.382 . S
C347 H317 0.929 . S
C347 C342 1.371 . S
C347 C346 1.382 . S
C348 N311 1.423 . S
C348 C349 1.362 . S
C348 C353 1.388 . S
C349 H319 0.929 . S
C349 C348 1.362 . S
C349 C350 1.376 . S
C350 H321 0.931 . S
C350 C349 1.376 . S
C350 C351 1.396 . S
C351 C350 1.396 . S
C351 C352 1.348 . S
C351 C369 1.472 . S
C352 H322 0.929 . S
C352 C351 1.348 . S
C352 C353 1.443 . S
C353 H320 0.932 . S
C353 C348 1.388 . S
C353 C352 1.443 . S
C354 N334 1.433 . S
C354 C355 1.363 . S
C354 C359 1.370 . S
C355 H323 0.929 . S
C355 C354 1.363 . S
C355 C356 1.385 . S
C356 H324 0.930 . S
C356 C355 1.385 . S
C356 C357 1.357 . S
C357 C356 1.357 . S
C357 C358 1.406 . S
C358 H325 0.929 . S
C358 C357 1.406 . S
C358 C359 1.391 . S
C359 H326 0.931 . S
C359 C354 1.370 . S
C359 C358 1.391 . S
C360 N334 1.435 . S
C360 C361 1.358 . S
C360 C365 1.371 . S
C361 H327 0.930 . S
C361 C360 1.358 . S
C361 C362 1.405 . S
C362 H328 0.932 . S
C362 C361 1.405 . S
C362 C363 1.383 . S
C363 C362 1.383 . S
C363 C364 1.393 . S
C364 H329 0.931 . S
C364 C363 1.393 . S
C364 C365 1.382 . S
C365 H330 0.929 . S
C365 C360 1.371 . S
C365 C364 1.382 . S
C366 N334 1.423 . S
C366 C367 1.362 . S
C366 C371 1.388 . S
C367 H331 0.929 . S
C367 C366 1.362 . S
C367 C368 1.376 . S
C368 H332 0.931 . S
C368 C367 1.376 . S
C368 C369 1.396 . S
C369 C351 1.472 . S
C369 C368 1.396 . S
C369 C370 1.348 . S
C370 H333 0.929 . S
C370 C369 1.348 . S
C370 C371 1.443 . S
C371 H335 0.932 . S
C371 C366 1.388 . S
C371 C370 1.443 . S
H372 C399 0.929 . S
N373 C398 1.433 . S
N373 C404 1.435 . S
N373 C410 1.423 . S
H374 C400 0.930 . S
H375 C403 0.931 . S
H376 C402 0.929 . S
H377 C405 0.930 . S
H378 C406 0.932 . S
H379 C409 0.929 . S
H380 C408 0.931 . S
H381 C411 0.929 . S
H382 C415 0.932 . S
H383 C412 0.931 . S
H384 C414 0.929 . S
H385 C417 0.929 . S
H386 C418 0.930 . S
H387 C420 0.929 . S
H388 C421 0.931 . S
H389 C423 0.930 . S
H390 C424 0.932 . S
H391 C426 0.931 . S
H392 C427 0.929 . S
H393 C429 0.929 . S
H394 C430 0.931 . S
H395 C432 0.929 . S
N396 C416 1.433 . S
N396 C422 1.435 . S
N396 C428 1.423 . S
H397 C433 0.932 . S
C398 N373 1.433 . S
C398 C399 1.363 . S
C398 C403 1.370 . S
C399 H372 0.929 . S
C399 C398 1.363 . S
C399 C400 1.385 . S
C400 H374 0.930 . S
C400 C399 1.385 . S
C400 C401 1.357 . S
C401 C400 1.357 . S
C401 C402 1.406 . S
C402 H376 0.929 . S
C402 C401 1.406 . S
C402 C403 1.391 . S
C403 H375 0.931 . S
C403 C398 1.370 . S
C403 C402 1.391 . S
C404 N373 1.435 . S
C404 C405 1.358 . S
C404 C409 1.371 . S
C405 H377 0.930 . S
C405 C404 1.358 . S
C405 C406 1.405 . S
C406 H378 0.932 . S
C406 C405 1.405 . S
C406 C407 1.383 . S
C407 C406 1.383 . S
C407 C408 1.393 . S
C408 H380 0.931 . S
C408 C407 1.393 . S
C408 C409 1.382 . S
C409 H379 0.929 . S
C409 C404 1.371 . S
C409 C408 1.382 . S
C410 N373 1.423 . S
C410 C411 1.362 . S
C410 C415 1.388 . S
C411 H381 0.929 . S
C411 C410 1.362 . S
C411 C412 1.376 . S
C412 H383 0.931 . S
C412 C411 1.376 . S
C412 C413 1.396 . S
C413 C412 1.396 . S
C413 C414 1.348 . S
C413 C431 1.472 . S
C414 H384 0.929 . S
C414 C413 1.348 . S
C414 C415 1.443 . S
C415 H382 0.932 . S
C415 C410 1.388 . S
C415 C414 1.443 . S
C416 N396 1.433 . S
C416 C417 1.363 . S
C416 C421 1.370 . S
C417 H385 0.929 . S
C417 C416 1.363 . S
C417 C418 1.385 . S
C418 H386 0.930 . S
C418 C417 1.385 . S
C418 C419 1.357 . S
C419 C418 1.357 . S
C419 C420 1.406 . S
C420 H387 0.929 . S
C420 C419 1.406 . S
C420 C421 1.391 . S
C421 H388 0.931 . S
C421 C416 1.370 . S
C421 C420 1.391 . S
C422 N396 1.435 . S
C422 C423 1.358 . S
C422 C427 1.371 . S
C423 H389 0.930 . S
C423 C422 1.358 . S
C423 C424 1.405 . S
C424 H390 0.932 . S
C424 C423 1.405 . S
C424 C425 1.383 . S
C425 C424 1.383 . S
C425 C426 1.393 . S
C426 H391 0.931 . S
C426 C425 1.393 . S
C426 C427 1.382 . S
C427 H392 0.929 . S
C427 C422 1.371 . S
C427 C426 1.382 . S
C428 N396 1.423 . S
C428 C429 1.362 . S
C428 C433 1.388 . S
C429 H393 0.929 . S
C429 C428 1.362 . S
C429 C430 1.376 . S
C430 H394 0.931 . S
C430 C429 1.376 . S
C430 C431 1.396 . S
C431 C413 1.472 . S
C431 C430 1.396 . S
C431 C432 1.348 . S
C432 H395 0.929 . S
C432 C431 1.348 . S
C432 C433 1.443 . S
C433 H397 0.932 . S
C433 C428 1.388 . S
C433 C432 1.443 . S
H434 C461 0.929 . S
N435 C460 1.433 . S
N435 C466 1.435 . S
N435 C472 1.423 . S
H436 C462 0.930 . S
H437 C465 0.931 . S
H438 C464 0.929 . S
H439 C467 0.930 . S
H440 C468 0.932 . S
H441 C471 0.929 . S
H442 C470 0.931 . S
H443 C473 0.929 . S
H444 C477 0.932 . S
H445 C474 0.931 . S
H446 C476 0.929 . S
H447 C479 0.929 . S
H448 C480 0.930 . S
H449 C482 0.929 . S
H450 C483 0.931 . S
H451 C485 0.930 . S
H452 C486 0.932 . S
H453 C488 0.931 . S
H454 C489 0.929 . S
H455 C491 0.929 . S
H456 C492 0.931 . S
H457 C494 0.929 . S
N458 C478 1.433 . S
N458 C484 1.435 . S
N458 C490 1.423 . S
H459 C495 0.932 . S
C460 N435 1.433 . S
C460 C461 1.363 . S
C460 C465 1.370 . S
C461 H434 0.929 . S
C461 C460 1.363 . S
C461 C462 1.385 . S
C462 H436 0.930 . S
C462 C461 1.385 . S
C462 C463 1.357 . S
C463 C462 1.357 . S
C463 C464 1.406 . S
C464 H438 0.929 . S
C464 C463 1.406 . S
C464 C465 1.391 . S
C465 H437 0.931 . S
C465 C460 1.370 . S
C465 C464 1.391 . S
C466 N435 1.435 . S
C466 C467 1.358 . S
C466 C471 1.371 . S
C467 H439 0.930 . S
C467 C466 1.358 . S
C467 C468 1.405 . S
C468 H440 0.932 . S
C468 C467 1.405 . S
C468 C469 1.383 . S
C469 C468 1.383 . S
C469 C470 1.393 . S
C470 H442 0.931 . S
C470 C469 1.393 . S
C470 C471 1.382 . S
C471 H441 0.929 . S
C471 C466 1.371 . S
C471 C470 1.382 . S
C472 N435 1.423 . S
C472 C473 1.362 . S
C472 C477 1.388 . S
C473 H443 0.929 . S
C473 C472 1.362 . S
C473 C474 1.376 . S
C474 H445 0.931 . S
C474 C473 1.376 . S
C474 C475 1.396 . S
C475 C474 1.396 . S
C475 C476 1.348 . S
C475 C493 1.472 . S
C476 H446 0.929 . S
C476 C475 1.348 . S
C476 C477 1.443 . S
C477 H444 0.932 . S
C477 C472 1.388 . S
C477 C476 1.443 . S
C478 N458 1.433 . S
C478 C479 1.363 . S
C478 C483 1.370 . S
C479 H447 0.929 . S
C479 C478 1.363 . S
C479 C480 1.385 . S
C480 H448 0.930 . S
C480 C479 1.385 . S
C480 C481 1.357 . S
C481 C480 1.357 . S
C481 C482 1.406 . S
C482 H449 0.929 . S
C482 C481 1.406 . S
C482 C483 1.391 . S
C483 H450 0.931 . S
C483 C478 1.370 . S
C483 C482 1.391 . S
C484 N458 1.435 . S
C484 C485 1.358 . S
C484 C489 1.371 . S
C485 H451 0.930 . S
C485 C484 1.358 . S
C485 C486 1.405 . S
C486 H452 0.932 . S
C486 C485 1.405 . S
C486 C487 1.383 . S
C487 C486 1.383 . S
C487 C488 1.393 . S
C488 H453 0.931 . S
C488 C487 1.393 . S
C488 C489 1.382 . S
C489 H454 0.929 . S
C489 C484 1.371 . S
C489 C488 1.382 . S
C490 N458 1.423 . S
C490 C491 1.362 . S
C490 C495 1.388 . S
C491 H455 0.929 . S
C491 C490 1.362 . S
C491 C492 1.376 . S
C492 H456 0.931 . S
C492 C491 1.376 . S
C492 C493 1.396 . S
C493 C475 1.472 . S
C493 C492 1.396 . S
C493 C494 1.348 . S
C494 H457 0.929 . S
C494 C493 1.348 . S
C494 C495 1.443 . S
C495 H459 0.932 . S
C495 C490 1.388 . S
C495 C494 1.443 . S
C496 O498 1.247 . S
C496 O500 1.258 . S
C497 O504 1.247 . S
C497 O505 1.258 . S
O498 C496 1.247 . S
O498 Zn499 2.028 1_655 S
Zn499 O498 2.028 1_455 S
Zn499 O503 2.035 . S
Zn499 O505 2.035 . S
Zn499 O506 2.028 1_455 S
O500 C496 1.258 . S
O500 Zn501 2.035 1_655 S
Zn501 O500 2.035 1_455 S
Zn501 O502 2.028 . S
Zn501 O504 2.028 . S
Zn501 O507 2.035 1_455 S
O502 Zn501 2.028 . S
O502 C508 1.247 . S
O503 Zn499 2.035 . S
O503 C508 1.258 . S
O504 C497 1.247 . S
O504 Zn501 2.028 . S
O505 C497 1.258 . S
O505 Zn499 2.035 . S
O506 Zn499 2.028 1_655 S
O506 C509 1.247 . S
O507 Zn501 2.035 1_655 S
O507 C509 1.258 . S
C508 O502 1.247 . S
C508 O503 1.258 . S
C509 O506 1.247 . S
C509 O507 1.258 . S
C510 O512 1.247 . S
C510 O514 1.258 . S
C511 O518 1.247 . S
C511 O519 1.258 . S
O512 C510 1.247 . S
O512 Zn513 2.028 . S
Zn513 O512 2.028 . S
Zn513 O517 2.035 1_545 S
Zn513 O519 2.035 1_545 S
Zn513 O520 2.028 . S
O514 C510 1.258 . S
O514 Zn515 2.035 . S
Zn515 O514 2.035 . S
Zn515 O516 2.028 1_545 S
Zn515 O518 2.028 1_545 S
Zn515 O521 2.035 . S
O516 Zn515 2.028 1_565 S
O516 C522 1.247 . S
O517 Zn513 2.035 1_565 S
O517 C522 1.258 . S
O518 C511 1.247 . S
O518 Zn515 2.028 1_565 S
O519 C511 1.258 . S
O519 Zn513 2.035 1_565 S
O520 Zn513 2.028 . S
O520 C523 1.247 . S
O521 Zn515 2.035 . S
O521 C523 1.258 . S
C522 O516 1.247 . S
C522 O517 1.258 . S
C523 O520 1.247 . S
C523 O521 1.258 . S
C524 O526 1.247 . S
C524 O528 1.258 . S
C525 O532 1.247 . S
C525 O533 1.258 . S
O526 C524 1.247 . S
O526 Zn527 2.028 1_655 S
Zn527 O526 2.028 1_455 S
Zn527 O531 2.035 . S
Zn527 O533 2.035 . S
Zn527 O534 2.028 1_455 S
O528 C524 1.258 . S
O528 Zn529 2.035 1_655 S
Zn529 O528 2.035 1_455 S
Zn529 O530 2.028 . S
Zn529 O532 2.028 . S
Zn529 O535 2.035 1_455 S
O530 Zn529 2.028 . S
O530 C536 1.247 . S
O531 Zn527 2.035 . S
O531 C536 1.258 . S
O532 C525 1.247 . S
O532 Zn529 2.028 . S
O533 C525 1.258 . S
O533 Zn527 2.035 . S
O534 Zn527 2.028 1_655 S
O534 C537 1.247 . S
O535 Zn529 2.035 1_655 S
O535 C537 1.258 . S
C536 O530 1.247 . S
C536 O531 1.258 . S
C537 O534 1.247 . S
C537 O535 1.258 . S
C538 O540 1.247 . S
C538 O542 1.258 . S
C539 O546 1.247 . S
C539 O547 1.258 . S
O540 C538 1.247 . S
O540 Zn541 2.028 . S
Zn541 O540 2.028 . S
Zn541 O545 2.035 1_545 S
Zn541 O547 2.035 1_545 S
Zn541 O548 2.028 . S
O542 C538 1.258 . S
O542 Zn543 2.035 . S
Zn543 O542 2.035 . S
Zn543 O544 2.028 1_545 S
Zn543 O546 2.028 1_545 S
Zn543 O549 2.035 . S
O544 Zn543 2.028 1_565 S
O544 C550 1.247 . S
O545 Zn541 2.035 1_565 S
O545 C550 1.258 . S
O546 C539 1.247 . S
O546 Zn543 2.028 1_565 S
O547 C539 1.258 . S
O547 Zn541 2.035 1_565 S
O548 Zn541 2.028 . S
O548 C551 1.247 . S
O549 Zn543 2.035 . S
O549 C551 1.258 . S
C550 O544 1.247 . S
C550 O545 1.258 . S
C551 O548 1.247 . S
C551 O549 1.258 . S
C552 O554 1.247 . S
C552 O556 1.258 . S
C553 O560 1.247 . S
C553 O561 1.258 . S
O554 C552 1.247 . S
O554 Zn555 2.028 . S
Zn555 O554 2.028 . S
Zn555 O559 2.035 . S
Zn555 O561 2.035 1_554 S
Zn555 O562 2.028 1_554 S
O556 C552 1.258 . S
O556 Zn557 2.035 . S
Zn557 O556 2.035 . S
Zn557 O558 2.028 . S
Zn557 O560 2.028 1_554 S
Zn557 O563 2.035 1_554 S
O558 Zn557 2.028 . S
O558 C564 1.247 . S
O559 Zn555 2.035 . S
O559 C564 1.258 . S
O560 C553 1.247 . S
O560 Zn557 2.028 1_556 S
O561 C553 1.258 . S
O561 Zn555 2.035 1_556 S
O562 Zn555 2.028 1_556 S
O562 C565 1.247 . S
O563 Zn557 2.035 1_556 S
O563 C565 1.258 . S
C564 O558 1.247 . S
C564 O559 1.258 . S
C565 O562 1.247 . S
C565 O563 1.258 . S
C566 O568 1.247 . S
C566 O570 1.258 . S
C567 O574 1.247 . S
C567 O575 1.258 . S
O568 C566 1.247 . S
O568 Zn569 2.028 . S
Zn569 O568 2.028 . S
Zn569 O573 2.035 . S
Zn569 O575 2.035 1_554 S
Zn569 O576 2.028 1_554 S
O570 C566 1.258 . S
O570 Zn571 2.035 . S
Zn571 O570 2.035 . S
Zn571 O572 2.028 . S
Zn571 O574 2.028 1_554 S
Zn571 O577 2.035 1_554 S
O572 Zn571 2.028 . S
O572 C578 1.247 . S
O573 Zn569 2.035 . S
O573 C578 1.258 . S
O574 C567 1.247 . S
O574 Zn571 2.028 1_556 S
O575 C567 1.258 . S
O575 Zn569 2.035 1_556 S
O576 Zn569 2.028 1_556 S
O576 C579 1.247 . S
O577 Zn571 2.035 1_556 S
O577 C579 1.258 . S
C578 O572 1.247 . S
C578 O573 1.258 . S
C579 O576 1.247 . S
C579 O577 1.258 . S
C580 O582 1.247 . S
C580 O584 1.258 . S
C581 O588 1.247 . S
C581 O589 1.258 . S
O582 C580 1.247 . S
O582 Zn583 2.028 1_556 S
Zn583 O582 2.028 1_554 S
Zn583 O587 2.035 1_554 S
Zn583 O589 2.035 . S
Zn583 O590 2.028 . S
O584 C580 1.258 . S
O584 Zn585 2.035 1_556 S
Zn585 O584 2.035 1_554 S
Zn585 O586 2.028 1_554 S
Zn585 O588 2.028 . S
Zn585 O591 2.035 . S
O586 Zn585 2.028 1_556 S
O586 C592 1.247 . S
O587 Zn583 2.035 1_556 S
O587 C592 1.258 . S
O588 C581 1.247 . S
O588 Zn585 2.028 . S
O589 C581 1.258 . S
O589 Zn583 2.035 . S
O590 Zn583 2.028 . S
O590 C593 1.247 . S
O591 Zn585 2.035 . S
O591 C593 1.258 . S
C592 O586 1.247 . S
C592 O587 1.258 . S
C593 O590 1.247 . S
C593 O591 1.258 . S
C594 O596 1.247 . S
C594 O598 1.258 . S
C595 O602 1.247 . S
C595 O603 1.258 . S
O596 C594 1.247 . S
O596 Zn597 2.028 . S
Zn597 O596 2.028 . S
Zn597 O601 2.035 . S
Zn597 O603 2.035 1_554 S
Zn597 O604 2.028 1_554 S
O598 C594 1.258 . S
O598 Zn599 2.035 . S
Zn599 O598 2.035 . S
Zn599 O600 2.028 . S
Zn599 O602 2.028 1_554 S
Zn599 O605 2.035 1_554 S
O600 Zn599 2.028 . S
O600 C606 1.247 . S
O601 Zn597 2.035 . S
O601 C606 1.258 . S
O602 C595 1.247 . S
O602 Zn599 2.028 1_556 S
O603 C595 1.258 . S
O603 Zn597 2.035 1_556 S
O604 Zn597 2.028 1_556 S
O604 C607 1.247 . S
O605 Zn599 2.035 1_556 S
O605 C607 1.258 . S
C606 O600 1.247 . S
C606 O601 1.258 . S
C607 O604 1.247 . S
C607 O605 1.258 . S
C608 C609 1.369 . S
C608 C610 1.419 . S
C608 H612 0.930 . S
C609 C608 1.369 . S
C609 C618 1.429 . S
C610 C608 1.419 . S
C610 C611 1.363 . S
C610 H613 0.929 . S
C611 C610 1.363 . S
C611 C617 1.428 . S
H612 C608 0.930 . S
H613 C610 0.929 . S
S614 N615 1.613 . S
S614 N616 1.610 . S
N615 S614 1.613 . S
N615 C618 1.350 . S
N616 S614 1.610 . S
N616 C617 1.351 . S
C617 C611 1.428 . S
C617 N616 1.351 . S
C617 C618 1.434 . S
C618 C609 1.429 . S
C618 N615 1.350 . S
C618 C617 1.434 . S
C619 C620 1.369 . S
C619 C621 1.419 . S
C619 H623 0.930 . S
C620 C619 1.369 . S
C620 C629 1.429 . S
C621 C619 1.419 . S
C621 C622 1.363 . S
C621 H624 0.929 . S
C622 C621 1.363 . S
C622 C628 1.428 . S
H623 C619 0.930 . S
H624 C621 0.929 . S
S625 N626 1.613 . S
S625 N627 1.610 . S
N626 S625 1.613 . S
N626 C629 1.350 . S
N627 S625 1.610 . S
N627 C628 1.351 . S
C628 C622 1.428 . S
C628 N627 1.351 . S
C628 C629 1.434 . S
C629 C620 1.429 . S
C629 N626 1.350 . S
C629 C628 1.434 . S
C630 C631 1.369 . S
C630 C632 1.419 . S
C630 H634 0.930 . S
C631 C630 1.369 . S
C631 C640 1.429 . S
C632 C630 1.419 . S
C632 C633 1.363 . S
C632 H635 0.929 . S
C633 C632 1.363 . S
C633 C639 1.428 . S
H634 C630 0.930 . S
H635 C632 0.929 . S
S636 N637 1.613 . S
S636 N638 1.610 . S
N637 S636 1.613 . S
N637 C640 1.350 . S
N638 S636 1.610 . S
N638 C639 1.351 . S
C639 C633 1.428 . S
C639 N638 1.351 . S
C639 C640 1.434 . S
C640 C631 1.429 . S
C640 N637 1.350 . S
C640 C639 1.434 . S
C641 C642 1.369 . S
C641 C643 1.419 . S
C641 H645 0.930 . S
C642 C641 1.369 . S
C642 C651 1.429 . S
C643 C641 1.419 . S
C643 C644 1.363 . S
C643 H646 0.929 . S
C644 C643 1.363 . S
C644 C650 1.428 . S
H645 C641 0.930 . S
H646 C643 0.929 . S
S647 N648 1.613 . S
S647 N649 1.610 . S
N648 S647 1.613 . S
N648 C651 1.350 . S
N649 S647 1.610 . S
N649 C650 1.351 . S
C650 C644 1.428 . S
C650 N649 1.351 . S
C650 C651 1.434 . S
C651 C642 1.429 . S
C651 N648 1.350 . S
C651 C650 1.434 . S
C652 C653 1.369 . S
C652 C654 1.419 . S
C652 H656 0.930 . S
C653 C652 1.369 . S
C653 C662 1.429 . S
C654 C652 1.419 . S
C654 C655 1.363 . S
C654 H657 0.929 . S
C655 C654 1.363 . S
C655 C661 1.428 . S
H656 C652 0.930 . S
H657 C654 0.929 . S
S658 N659 1.613 . S
S658 N660 1.610 . S
N659 S658 1.613 . S
N659 C662 1.350 . S
N660 S658 1.610 . S
N660 C661 1.351 . S
C661 C655 1.428 . S
C661 N660 1.351 . S
C661 C662 1.434 . S
C662 C653 1.429 . S
C662 N659 1.350 . S
C662 C661 1.434 . S
C663 C664 1.369 . S
C663 C665 1.419 . S
C663 H667 0.930 . S
C664 C663 1.369 . S
C664 C673 1.429 . S
C665 C663 1.419 . S
C665 C666 1.363 . S
C665 H668 0.929 . S
C666 C665 1.363 . S
C666 C672 1.428 . S
H667 C663 0.930 . S
H668 C665 0.929 . S
S669 N670 1.613 . S
S669 N671 1.610 . S
N670 S669 1.613 . S
N670 C673 1.350 . S
N671 S669 1.610 . S
N671 C672 1.351 . S
C672 C666 1.428 . S
C672 N671 1.351 . S
C672 C673 1.434 . S
C673 C664 1.429 . S
C673 N670 1.350 . S
C673 C672 1.434 . S
C674 C675 1.369 . S
C674 C676 1.419 . S
C674 H678 0.930 . S
C675 C674 1.369 . S
C675 C684 1.429 . S
C676 C674 1.419 . S
C676 C677 1.363 . S
C676 H679 0.929 . S
C677 C676 1.363 . S
C677 C683 1.428 . S
H678 C674 0.930 . S
H679 C676 0.929 . S
S680 N681 1.613 . S
S680 N682 1.610 . S
N681 S680 1.613 . S
N681 C684 1.350 . S
N682 S680 1.610 . S
N682 C683 1.351 . S
C683 C677 1.428 . S
C683 N682 1.351 . S
C683 C684 1.434 . S
C684 C675 1.429 . S
C684 N681 1.350 . S
C684 C683 1.434 . S
C685 C686 1.369 . S
C685 C687 1.419 . S
C685 H689 0.930 . S
C686 C685 1.369 . S
C686 C695 1.429 . S
C687 C685 1.419 . S
C687 C688 1.363 . S
C687 H690 0.929 . S
C688 C687 1.363 . S
C688 C694 1.428 . S
H689 C685 0.930 . S
H690 C687 0.929 . S
S691 N692 1.613 . S
S691 N693 1.610 . S
N692 S691 1.613 . S
N692 C695 1.350 . S
N693 S691 1.610 . S
N693 C694 1.351 . S
C694 C688 1.428 . S
C694 N693 1.351 . S
C694 C695 1.434 . S
C695 C686 1.429 . S
C695 N692 1.350 . S
C695 C694 1.434 . S
C696 C697 1.369 . S
C696 C698 1.419 . S
C696 H700 0.930 . S
C697 C696 1.369 . S
C697 C706 1.429 . S
C698 C696 1.419 . S
C698 C699 1.363 . S
C698 H701 0.929 . S
C699 C698 1.363 . S
C699 C705 1.428 . S
H700 C696 0.930 . S
H701 C698 0.929 . S
S702 N703 1.613 . S
S702 N704 1.610 . S
N703 S702 1.613 . S
N703 C706 1.350 . S
N704 S702 1.610 . S
N704 C705 1.351 . S
C705 C699 1.428 . S
C705 N704 1.351 . S
C705 C706 1.434 . S
C706 C697 1.429 . S
C706 N703 1.350 . S
C706 C705 1.434 . S
C707 C708 1.369 . S
C707 C709 1.419 . S
C707 H711 0.930 . S
C708 C707 1.369 . S
C708 C717 1.429 . S
C709 C707 1.419 . S
C709 C710 1.363 . S
C709 H712 0.929 . S
C710 C709 1.363 . S
C710 C716 1.428 . S
H711 C707 0.930 . S
H712 C709 0.929 . S
S713 N714 1.613 . S
S713 N715 1.610 . S
N714 S713 1.613 . S
N714 C717 1.350 . S
N715 S713 1.610 . S
N715 C716 1.351 . S
C716 C710 1.428 . S
C716 N715 1.351 . S
C716 C717 1.434 . S
C717 C708 1.429 . S
C717 N714 1.350 . S
C717 C716 1.434 . S
C718 C719 1.369 . S
C718 C720 1.419 . S
C718 H722 0.930 . S
C719 C718 1.369 . S
C719 C728 1.429 . S
C720 C718 1.419 . S
C720 C721 1.363 . S
C720 H723 0.929 . S
C721 C720 1.363 . S
C721 C727 1.428 . S
H722 C718 0.930 . S
H723 C720 0.929 . S
S724 N725 1.613 . S
S724 N726 1.610 . S
N725 S724 1.613 . S
N725 C728 1.350 . S
N726 S724 1.610 . S
N726 C727 1.351 . S
C727 C721 1.428 . S
C727 N726 1.351 . S
C727 C728 1.434 . S
C728 C719 1.429 . S
C728 N725 1.350 . S
C728 C727 1.434 . S
C729 C730 1.369 . S
C729 C731 1.419 . S
C729 H733 0.930 . S
C730 C729 1.369 . S
C730 C739 1.429 . S
C731 C729 1.419 . S
C731 C732 1.363 . S
C731 H734 0.929 . S
C732 C731 1.363 . S
C732 C738 1.428 . S
H733 C729 0.930 . S
H734 C731 0.929 . S
S735 N736 1.613 . S
S735 N737 1.610 . S
N736 S735 1.613 . S
N736 C739 1.350 . S
N737 S735 1.610 . S
N737 C738 1.351 . S
C738 C732 1.428 . S
C738 N737 1.351 . S
C738 C739 1.434 . S
C739 C730 1.429 . S
C739 N736 1.350 . S
C739 C738 1.434 . S
C740 C741 1.369 . S
C740 C742 1.419 . S
C740 H744 0.930 . S
C741 C740 1.369 . S
C741 C750 1.429 . S
C742 C740 1.419 . S
C742 C743 1.363 . S
C742 H745 0.929 . S
C743 C742 1.363 . S
C743 C749 1.428 . S
H744 C740 0.930 . S
H745 C742 0.929 . S
S746 N747 1.613 . S
S746 N748 1.610 . S
N747 S746 1.613 . S
N747 C750 1.350 . S
N748 S746 1.610 . S
N748 C749 1.351 . S
C749 C743 1.428 . S
C749 N748 1.351 . S
C749 C750 1.434 . S
C750 C741 1.429 . S
C750 N747 1.350 . S
C750 C749 1.434 . S
C751 C752 1.369 . S
C751 C753 1.419 . S
C751 H755 0.930 . S
C752 C751 1.369 . S
C752 C761 1.429 . S
C753 C751 1.419 . S
C753 C754 1.363 . S
C753 H756 0.929 . S
C754 C753 1.363 . S
C754 C760 1.428 . S
H755 C751 0.930 . S
H756 C753 0.929 . S
S757 N758 1.613 . S
S757 N759 1.610 . S
N758 S757 1.613 . S
N758 C761 1.350 . S
N759 S757 1.610 . S
N759 C760 1.351 . S
C760 C754 1.428 . S
C760 N759 1.351 . S
C760 C761 1.434 . S
C761 C752 1.429 . S
C761 N758 1.350 . S
C761 C760 1.434 . S
C762 C763 1.369 . S
C762 C764 1.419 . S
C762 H766 0.930 . S
C763 C762 1.369 . S
C763 C772 1.429 . S
C764 C762 1.419 . S
C764 C765 1.363 . S
C764 H767 0.929 . S
C765 C764 1.363 . S
C765 C771 1.428 . S
H766 C762 0.930 . S
H767 C764 0.929 . S
S768 N769 1.613 . S
S768 N770 1.610 . S
N769 S768 1.613 . S
N769 C772 1.350 . S
N770 S768 1.610 . S
N770 C771 1.351 . S
C771 C765 1.428 . S
C771 N770 1.351 . S
C771 C772 1.434 . S
C772 C763 1.429 . S
C772 N769 1.350 . S
C772 C771 1.434 . S
C773 C774 1.369 . S
C773 C775 1.419 . S
C773 H777 0.930 . S
C774 C773 1.369 . S
C774 C783 1.429 . S
C775 C773 1.419 . S
C775 C776 1.363 . S
C775 H778 0.929 . S
C776 C775 1.363 . S
C776 C782 1.428 . S
H777 C773 0.930 . S
H778 C775 0.929 . S
S779 N780 1.613 . S
S779 N781 1.610 . S
N780 S779 1.613 . S
N780 C783 1.350 . S
N781 S779 1.610 . S
N781 C782 1.351 . S
C782 C776 1.428 . S
C782 N781 1.351 . S
C782 C783 1.434 . S
C783 C774 1.429 . S
C783 N780 1.350 . S
C783 C782 1.434 . S
C784 C785 1.369 . S
C784 C786 1.419 . S
C784 H788 0.930 . S
C785 C784 1.369 . S
C785 C794 1.429 . S
C786 C784 1.419 . S
C786 C787 1.363 . S
C786 H789 0.929 . S
C787 C786 1.363 . S
C787 C793 1.428 . S
H788 C784 0.930 . S
H789 C786 0.929 . S
S790 N791 1.613 . S
S790 N792 1.610 . S
N791 S790 1.613 . S
N791 C794 1.350 . S
N792 S790 1.610 . S
N792 C793 1.351 . S
C793 C787 1.428 . S
C793 N792 1.351 . S
C793 C794 1.434 . S
C794 C785 1.429 . S
C794 N791 1.350 . S
C794 C793 1.434 . S
C795 C796 1.369 . S
C795 C797 1.419 . S
C795 H799 0.930 . S
C796 C795 1.369 . S
C796 C805 1.429 . S
C797 C795 1.419 . S
C797 C798 1.363 . S
C797 H800 0.929 . S
C798 C797 1.363 . S
C798 C804 1.428 . S
H799 C795 0.930 . S
H800 C797 0.929 . S
S801 N802 1.613 . S
S801 N803 1.610 . S
N802 S801 1.613 . S
N802 C805 1.350 . S
N803 S801 1.610 . S
N803 C804 1.351 . S
C804 C798 1.428 . S
C804 N803 1.351 . S
C804 C805 1.434 . S
C805 C796 1.429 . S
C805 N802 1.350 . S
C805 C804 1.434 . S
C806 C807 1.369 . S
C806 C808 1.419 . S
C806 H810 0.930 . S
C807 C806 1.369 . S
C807 C816 1.429 . S
C808 C806 1.419 . S
C808 C809 1.363 . S
C808 H811 0.929 . S
C809 C808 1.363 . S
C809 C815 1.428 . S
H810 C806 0.930 . S
H811 C808 0.929 . S
S812 N813 1.613 . S
S812 N814 1.610 . S
N813 S812 1.613 . S
N813 C816 1.350 . S
N814 S812 1.610 . S
N814 C815 1.351 . S
C815 C809 1.428 . S
C815 N814 1.351 . S
C815 C816 1.434 . S
C816 C807 1.429 . S
C816 N813 1.350 . S
C816 C815 1.434 . S
C817 C818 1.369 . S
C817 C819 1.419 . S
C817 H821 0.930 . S
C818 C817 1.369 . S
C818 C827 1.429 . S
C819 C817 1.419 . S
C819 C820 1.363 . S
C819 H822 0.929 . S
C820 C819 1.363 . S
C820 C826 1.428 . S
H821 C817 0.930 . S
H822 C819 0.929 . S
S823 N824 1.613 . S
S823 N825 1.610 . S
N824 S823 1.613 . S
N824 C827 1.350 . S
N825 S823 1.610 . S
N825 C826 1.351 . S
C826 C820 1.428 . S
C826 N825 1.351 . S
C826 C827 1.434 . S
C827 C818 1.429 . S
C827 N824 1.350 . S
C827 C826 1.434 . S
C828 C829 1.369 . S
C828 C830 1.419 . S
C828 H832 0.930 . S
C829 C828 1.369 . S
C829 C838 1.429 . S
C830 C828 1.419 . S
C830 C831 1.363 . S
C830 H833 0.929 . S
C831 C830 1.363 . S
C831 C837 1.428 . S
H832 C828 0.930 . S
H833 C830 0.929 . S
S834 N835 1.613 . S
S834 N836 1.610 . S
N835 S834 1.613 . S
N835 C838 1.350 . S
N836 S834 1.610 . S
N836 C837 1.351 . S
C837 C831 1.428 . S
C837 N836 1.351 . S
C837 C838 1.434 . S
C838 C829 1.429 . S
C838 N835 1.350 . S
C838 C837 1.434 . S
C839 C840 1.369 . S
C839 C841 1.419 . S
C839 H843 0.930 . S
C840 C839 1.369 . S
C840 C849 1.429 . S
C841 C839 1.419 . S
C841 C842 1.363 . S
C841 H844 0.929 . S
C842 C841 1.363 . S
C842 C848 1.428 . S
H843 C839 0.930 . S
H844 C841 0.929 . S
S845 N846 1.613 . S
S845 N847 1.610 . S
N846 S845 1.613 . S
N846 C849 1.350 . S
N847 S845 1.610 . S
N847 C848 1.351 . S
C848 C842 1.428 . S
C848 N847 1.351 . S
C848 C849 1.434 . S
C849 C840 1.429 . S
C849 N846 1.350 . S
C849 C848 1.434 . S
C850 C851 1.369 . S
C850 C852 1.419 . S
C850 H854 0.930 . S
C851 C850 1.369 . S
C851 C860 1.429 . S
C852 C850 1.419 . S
C852 C853 1.363 . S
C852 H855 0.929 . S
C853 C852 1.363 . S
C853 C859 1.428 . S
H854 C850 0.930 . S
H855 C852 0.929 . S
S856 N857 1.613 . S
S856 N858 1.610 . S
N857 S856 1.613 . S
N857 C860 1.350 . S
N858 S856 1.610 . S
N858 C859 1.351 . S
C859 C853 1.428 . S
C859 N858 1.351 . S
C859 C860 1.434 . S
C860 C851 1.429 . S
C860 N857 1.350 . S
C860 C859 1.434 . S
C861 C862 1.369 . S
C861 C863 1.419 . S
C861 H865 0.930 . S
C862 C861 1.369 . S
C862 C871 1.429 . S
C863 C861 1.419 . S
C863 C864 1.363 . S
C863 H866 0.929 . S
C864 C863 1.363 . S
C864 C870 1.428 . S
H865 C861 0.930 . S
H866 C863 0.929 . S
S867 N868 1.613 . S
S867 N869 1.610 . S
N868 S867 1.613 . S
N868 C871 1.350 . S
N869 S867 1.610 . S
N869 C870 1.351 . S
C870 C864 1.428 . S
C870 N869 1.351 . S
C870 C871 1.434 . S
C871 C862 1.429 . S
C871 N868 1.350 . S
C871 C870 1.434 . S
C872 C873 1.369 . S
C872 C874 1.419 . S
C872 H876 0.930 . S
C873 C872 1.369 . S
C873 C882 1.429 . S
C874 C872 1.419 . S
C874 C875 1.363 . S
C874 H877 0.929 . S
C875 C874 1.363 . S
C875 C881 1.428 . S
H876 C872 0.930 . S
H877 C874 0.929 . S
S878 N879 1.613 . S
S878 N880 1.610 . S
N879 S878 1.613 . S
N879 C882 1.350 . S
N880 S878 1.610 . S
N880 C881 1.351 . S
C881 C875 1.428 . S
C881 N880 1.351 . S
C881 C882 1.434 . S
C882 C873 1.429 . S
C882 N879 1.350 . S
C882 C881 1.434 . S
C883 C884 1.369 . S
C883 C885 1.419 . S
C883 H887 0.930 . S
C884 C883 1.369 . S
C884 C893 1.429 . S
C885 C883 1.419 . S
C885 C886 1.363 . S
C885 H888 0.929 . S
C886 C885 1.363 . S
C886 C892 1.428 . S
H887 C883 0.930 . S
H888 C885 0.929 . S
S889 N890 1.613 . S
S889 N891 1.610 . S
N890 S889 1.613 . S
N890 C893 1.350 . S
N891 S889 1.610 . S
N891 C892 1.351 . S
C892 C886 1.428 . S
C892 N891 1.351 . S
C892 C893 1.434 . S
C893 C884 1.429 . S
C893 N890 1.350 . S
C893 C892 1.434 . S
C894 C895 1.369 . S
C894 C896 1.419 . S
C894 H898 0.930 . S
C895 C894 1.369 . S
C895 C904 1.429 . S
C896 C894 1.419 . S
C896 C897 1.363 . S
C896 H899 0.929 . S
C897 C896 1.363 . S
C897 C903 1.428 . S
H898 C894 0.930 . S
H899 C896 0.929 . S
S900 N901 1.613 . S
S900 N902 1.610 . S
N901 S900 1.613 . S
N901 C904 1.350 . S
N902 S900 1.610 . S
N902 C903 1.351 . S
C903 C897 1.428 . S
C903 N902 1.351 . S
C903 C904 1.434 . S
C904 C895 1.429 . S
C904 N901 1.350 . S
C904 C903 1.434 . S
C905 C906 1.369 . S
C905 C907 1.419 . S
C905 H909 0.930 . S
C906 C905 1.369 . S
C906 C915 1.429 . S
C907 C905 1.419 . S
C907 C908 1.363 . S
C907 H910 0.929 . S
C908 C907 1.363 . S
C908 C914 1.428 . S
H909 C905 0.930 . S
H910 C907 0.929 . S
S911 N912 1.613 . S
S911 N913 1.610 . S
N912 S911 1.613 . S
N912 C915 1.350 . S
N913 S911 1.610 . S
N913 C914 1.351 . S
C914 C908 1.428 . S
C914 N913 1.351 . S
C914 C915 1.434 . S
C915 C906 1.429 . S
C915 N912 1.350 . S
C915 C914 1.434 . S
C916 C917 1.369 . S
C916 C918 1.419 . S
C916 H920 0.930 . S
C917 C916 1.369 . S
C917 C926 1.429 . S
C918 C916 1.419 . S
C918 C919 1.363 . S
C918 H921 0.929 . S
C919 C918 1.363 . S
C919 C925 1.428 . S
H920 C916 0.930 . S
H921 C918 0.929 . S
S922 N923 1.613 . S
S922 N924 1.610 . S
N923 S922 1.613 . S
N923 C926 1.350 . S
N924 S922 1.610 . S
N924 C925 1.351 . S
C925 C919 1.428 . S
C925 N924 1.351 . S
C925 C926 1.434 . S
C926 C917 1.429 . S
C926 N923 1.350 . S
C926 C925 1.434 . S
C927 C928 1.369 . S
C927 C929 1.419 . S
C927 H931 0.930 . S
C928 C927 1.369 . S
C928 C937 1.429 . S
C929 C927 1.419 . S
C929 C930 1.363 . S
C929 H932 0.929 . S
C930 C929 1.363 . S
C930 C936 1.428 . S
H931 C927 0.930 . S
H932 C929 0.929 . S
S933 N934 1.613 . S
S933 N935 1.610 . S
N934 S933 1.613 . S
N934 C937 1.350 . S
N935 S933 1.610 . S
N935 C936 1.351 . S
C936 C930 1.428 . S
C936 N935 1.351 . S
C936 C937 1.434 . S
C937 C928 1.429 . S
C937 N934 1.350 . S
C937 C936 1.434 . S
C938 C939 1.369 . S
C938 C940 1.419 . S
C938 H942 0.930 . S
C939 C938 1.369 . S
C939 C948 1.429 . S
C940 C938 1.419 . S
C940 C941 1.363 . S
C940 H943 0.929 . S
C941 C940 1.363 . S
C941 C947 1.428 . S
H942 C938 0.930 . S
H943 C940 0.929 . S
S944 N945 1.613 . S
S944 N946 1.610 . S
N945 S944 1.613 . S
N945 C948 1.350 . S
N946 S944 1.610 . S
N946 C947 1.351 . S
C947 C941 1.428 . S
C947 N946 1.351 . S
C947 C948 1.434 . S
C948 C939 1.429 . S
C948 N945 1.350 . S
C948 C947 1.434 . S
C949 C950 1.369 . S
C949 C951 1.419 . S
C949 H953 0.930 . S
C950 C949 1.369 . S
C950 C959 1.429 . S
C951 C949 1.419 . S
C951 C952 1.363 . S
C951 H954 0.929 . S
C952 C951 1.363 . S
C952 C958 1.428 . S
H953 C949 0.930 . S
H954 C951 0.929 . S
S955 N956 1.613 . S
S955 N957 1.610 . S
N956 S955 1.613 . S
N956 C959 1.350 . S
N957 S955 1.610 . S
N957 C958 1.351 . S
C958 C952 1.428 . S
C958 N957 1.351 . S
C958 C959 1.434 . S
C959 C950 1.429 . S
C959 N956 1.350 . S
C959 C958 1.434 . S
C611 C497 1.606 . S
C609 C47 1.488 . S
C622 C523 1.490 . S
C620 C115 1.452 . S
C633 C537 1.589 . S
C631 C153 1.413 . S
C644 C539 1.675 . S
C642 C233 1.545 . S
C653 C283 1.449 . S
C655 C536 1.489 . S
C666 C538 1.605 . S
C664 C357 1.494 . S
C677 C496 1.676 . S
C675 C401 1.518 . S
C688 C522 1.587 . S
C686 C463 1.420 . S
C699 C524 1.402 . S
C697 C469 1.362 . S
C710 C550 1.535 . S
C708 C277 1.434 . S
C721 C508 1.547 . S
C719 C363 1.549 . S
C732 C510 1.399 . S
C730 C407 1.379 . S
C743 C509 1.535 . S
C741 C109 1.426 . S
C754 C511 1.400 . S
C752 C159 1.367 . S
C765 C525 1.399 . S
C763 C239 1.366 . S
C776 C551 1.549 . S
C774 C53 1.550 . S
C787 C553 1.605 . S
C785 C481 1.498 . S
C796 C301 1.448 . S
C798 C579 1.491 . S
C807 C339 1.406 . S
C809 C592 1.590 . S
C818 C419 1.545 . S
C820 C595 1.675 . S
C829 C97 1.446 . S
C831 C593 1.490 . S
C840 C171 1.489 . S
C842 C594 1.606 . S
C851 C215 1.513 . S
C853 C552 1.677 . S
C864 C578 1.590 . S
C862 C29 1.406 . S
C875 C581 1.402 . S
C873 C35 1.365 . S
C884 C91 1.433 . S
C886 C606 1.536 . S
C895 C177 1.549 . S
C897 C564 1.547 . S
C906 C221 1.381 . S
C908 C566 1.399 . S
C919 C565 1.535 . S
C917 C295 1.427 . S
C930 C567 1.402 . S
C928 C345 1.361 . S
C939 C425 1.368 . S
C941 C580 1.399 . S
C952 C607 1.547 . S
C950 C487 1.550 . S
