# Generated by pormake.
# Topology ptr, (4,4)-cn, num edge types: 1
# Building blocks:
#     Node 0, Type 0, BuildingBlock: CEKHIL_clean_sbu_0, # of connection points: 4
#     Node 1, Type 0, BuildingBlock: CEKHIL_clean_sbu_0, # of connection points: 4
#     Node 2, Type 0, BuildingBlock: CEKHIL_clean_sbu_0, # of connection points: 4
#     Node 3, Type 0, BuildingBlock: CEKHIL_clean_sbu_0, # of connection points: 4
#     Node 4, Type 0, BuildingBlock: CEKHIL_clean_sbu_0, # of connection points: 4
#     Node 5, Type 0, BuildingBlock: CEKHIL_clean_sbu_0, # of connection points: 4
#     Node 6, Type 0, BuildingBlock: CEKHIL_clean_sbu_0, # of connection points: 4
#     Node 7, Type 0, BuildingBlock: CEKHIL_clean_sbu_0, # of connection points: 4
#     Node 8, Type 0, BuildingBlock: CEKHIL_clean_sbu_0, # of connection points: 4
#     Node 9, Type 0, BuildingBlock: CEKHIL_clean_sbu_0, # of connection points: 4
#     Node 10, Type 0, BuildingBlock: CEKHIL_clean_sbu_0, # of connection points: 4
#     Node 11, Type 0, BuildingBlock: CEKHIL_clean_sbu_0, # of connection points: 4
#     Node 12, Type 0, BuildingBlock: CEKHIL_clean_sbu_0, # of connection points: 4
#     Node 13, Type 0, BuildingBlock: CEKHIL_clean_sbu_0, # of connection points: 4
#     Node 14, Type 0, BuildingBlock: CEKHIL_clean_sbu_0, # of connection points: 4
#     Node 15, Type 0, BuildingBlock: CEKHIL_clean_sbu_0, # of connection points: 4
#     Node 16, Type 0, BuildingBlock: CEKHIL_clean_sbu_0, # of connection points: 4
#     Node 17, Type 0, BuildingBlock: CEKHIL_clean_sbu_0, # of connection points: 4
#     Node 18, Type 1, BuildingBlock: NAWXER_clean_linker_0, # of connection points: 4
#     Node 19, Type 1, BuildingBlock: NAWXER_clean_linker_0, # of connection points: 4
#     Node 20, Type 1, BuildingBlock: NAWXER_clean_linker_0, # of connection points: 4
#     Node 21, Type 1, BuildingBlock: NAWXER_clean_linker_0, # of connection points: 4
#     Node 22, Type 1, BuildingBlock: NAWXER_clean_linker_0, # of connection points: 4
#     Node 23, Type 1, BuildingBlock: NAWXER_clean_linker_0, # of connection points: 4
#     Node 24, Type 1, BuildingBlock: NAWXER_clean_linker_0, # of connection points: 4
#     Node 25, Type 1, BuildingBlock: NAWXER_clean_linker_0, # of connection points: 4
#     Node 26, Type 1, BuildingBlock: NAWXER_clean_linker_0, # of connection points: 4
#     Node 27, Type 1, BuildingBlock: NAWXER_clean_linker_0, # of connection points: 4
#     Node 28, Type 1, BuildingBlock: NAWXER_clean_linker_0, # of connection points: 4
#     Node 29, Type 1, BuildingBlock: NAWXER_clean_linker_0, # of connection points: 4
#     Node 30, Type 1, BuildingBlock: NAWXER_clean_linker_0, # of connection points: 4
#     Node 31, Type 1, BuildingBlock: NAWXER_clean_linker_0, # of connection points: 4
#     Node 32, Type 1, BuildingBlock: NAWXER_clean_linker_0, # of connection points: 4
#     Node 33, Type 1, BuildingBlock: NAWXER_clean_linker_0, # of connection points: 4
#     Node 34, Type 1, BuildingBlock: NAWXER_clean_linker_0, # of connection points: 4
#     Node 35, Type 1, BuildingBlock: NAWXER_clean_linker_0, # of connection points: 4
#     Edge 36, Type (0, 1), BuildingBlock: KIFKEQ_clean_linker_1, # of connection points: 2
#     Edge 37, Type (0, 1), BuildingBlock: KIFKEQ_clean_linker_1, # of connection points: 2
#     Edge 38, Type (0, 1), BuildingBlock: KIFKEQ_clean_linker_1, # of connection points: 2
#     Edge 39, Type (0, 1), BuildingBlock: KIFKEQ_clean_linker_1, # of connection points: 2
#     Edge 40, Type (0, 1), BuildingBlock: KIFKEQ_clean_linker_1, # of connection points: 2
#     Edge 41, Type (0, 1), BuildingBlock: KIFKEQ_clean_linker_1, # of connection points: 2
#     Edge 42, Type (0, 1), BuildingBlock: KIFKEQ_clean_linker_1, # of connection points: 2
#     Edge 43, Type (0, 1), BuildingBlock: KIFKEQ_clean_linker_1, # of connection points: 2
#     Edge 44, Type (0, 1), BuildingBlock: KIFKEQ_clean_linker_1, # of connection points: 2
#     Edge 45, Type (0, 1), BuildingBlock: KIFKEQ_clean_linker_1, # of connection points: 2
#     Edge 46, Type (0, 1), BuildingBlock: KIFKEQ_clean_linker_1, # of connection points: 2
#     Edge 47, Type (0, 1), BuildingBlock: KIFKEQ_clean_linker_1, # of connection points: 2
#     Edge 48, Type (0, 1), BuildingBlock: KIFKEQ_clean_linker_1, # of connection points: 2
#     Edge 49, Type (0, 1), BuildingBlock: KIFKEQ_clean_linker_1, # of connection points: 2
#     Edge 50, Type (0, 1), BuildingBlock: KIFKEQ_clean_linker_1, # of connection points: 2
#     Edge 51, Type (0, 1), BuildingBlock: KIFKEQ_clean_linker_1, # of connection points: 2
#     Edge 52, Type (0, 1), BuildingBlock: KIFKEQ_clean_linker_1, # of connection points: 2
#     Edge 53, Type (0, 1), BuildingBlock: KIFKEQ_clean_linker_1, # of connection points: 2
#     Edge 54, Type (0, 1), BuildingBlock: KIFKEQ_clean_linker_1, # of connection points: 2
#     Edge 55, Type (0, 1), BuildingBlock: KIFKEQ_clean_linker_1, # of connection points: 2
#     Edge 56, Type (0, 1), BuildingBlock: KIFKEQ_clean_linker_1, # of connection points: 2
#     Edge 57, Type (0, 1), BuildingBlock: KIFKEQ_clean_linker_1, # of connection points: 2
#     Edge 58, Type (0, 1), BuildingBlock: KIFKEQ_clean_linker_1, # of connection points: 2
#     Edge 59, Type (0, 1), BuildingBlock: KIFKEQ_clean_linker_1, # of connection points: 2
#     Edge 60, Type (0, 1), BuildingBlock: KIFKEQ_clean_linker_1, # of connection points: 2
#     Edge 61, Type (0, 1), BuildingBlock: KIFKEQ_clean_linker_1, # of connection points: 2
#     Edge 62, Type (0, 1), BuildingBlock: KIFKEQ_clean_linker_1, # of connection points: 2
#     Edge 63, Type (0, 1), BuildingBlock: KIFKEQ_clean_linker_1, # of connection points: 2
#     Edge 64, Type (0, 1), BuildingBlock: KIFKEQ_clean_linker_1, # of connection points: 2
#     Edge 65, Type (0, 1), BuildingBlock: KIFKEQ_clean_linker_1, # of connection points: 2
#     Edge 66, Type (0, 1), BuildingBlock: KIFKEQ_clean_linker_1, # of connection points: 2
#     Edge 67, Type (0, 1), BuildingBlock: KIFKEQ_clean_linker_1, # of connection points: 2
#     Edge 68, Type (0, 1), BuildingBlock: KIFKEQ_clean_linker_1, # of connection points: 2
#     Edge 69, Type (0, 1), BuildingBlock: KIFKEQ_clean_linker_1, # of connection points: 2
#     Edge 70, Type (0, 1), BuildingBlock: KIFKEQ_clean_linker_1, # of connection points: 2
#     Edge 71, Type (0, 1), BuildingBlock: KIFKEQ_clean_linker_1, # of connection points: 2
#     Edge 72, Type (0, 1), BuildingBlock: KIFKEQ_clean_linker_1, # of connection points: 2
#     Edge 73, Type (0, 1), BuildingBlock: KIFKEQ_clean_linker_1, # of connection points: 2
#     Edge 74, Type (0, 1), BuildingBlock: KIFKEQ_clean_linker_1, # of connection points: 2
#     Edge 75, Type (0, 1), BuildingBlock: KIFKEQ_clean_linker_1, # of connection points: 2
#     Edge 76, Type (0, 1), BuildingBlock: KIFKEQ_clean_linker_1, # of connection points: 2
#     Edge 77, Type (0, 1), BuildingBlock: KIFKEQ_clean_linker_1, # of connection points: 2
#     Edge 78, Type (0, 1), BuildingBlock: KIFKEQ_clean_linker_1, # of connection points: 2
#     Edge 79, Type (0, 1), BuildingBlock: KIFKEQ_clean_linker_1, # of connection points: 2
#     Edge 80, Type (0, 1), BuildingBlock: KIFKEQ_clean_linker_1, # of connection points: 2
#     Edge 81, Type (0, 1), BuildingBlock: KIFKEQ_clean_linker_1, # of connection points: 2
#     Edge 82, Type (0, 1), BuildingBlock: KIFKEQ_clean_linker_1, # of connection points: 2
#     Edge 83, Type (0, 1), BuildingBlock: KIFKEQ_clean_linker_1, # of connection points: 2
#     Edge 84, Type (0, 1), BuildingBlock: KIFKEQ_clean_linker_1, # of connection points: 2
#     Edge 85, Type (0, 1), BuildingBlock: KIFKEQ_clean_linker_1, # of connection points: 2
#     Edge 86, Type (0, 1), BuildingBlock: KIFKEQ_clean_linker_1, # of connection points: 2
#     Edge 87, Type (0, 1), BuildingBlock: KIFKEQ_clean_linker_1, # of connection points: 2
#     Edge 88, Type (0, 1), BuildingBlock: KIFKEQ_clean_linker_1, # of connection points: 2
#     Edge 89, Type (0, 1), BuildingBlock: KIFKEQ_clean_linker_1, # of connection points: 2
#     Edge 90, Type (0, 1), BuildingBlock: KIFKEQ_clean_linker_1, # of connection points: 2
#     Edge 91, Type (0, 1), BuildingBlock: KIFKEQ_clean_linker_1, # of connection points: 2
#     Edge 92, Type (0, 1), BuildingBlock: KIFKEQ_clean_linker_1, # of connection points: 2
#     Edge 93, Type (0, 1), BuildingBlock: KIFKEQ_clean_linker_1, # of connection points: 2
#     Edge 94, Type (0, 1), BuildingBlock: KIFKEQ_clean_linker_1, # of connection points: 2
#     Edge 95, Type (0, 1), BuildingBlock: KIFKEQ_clean_linker_1, # of connection points: 2
#     Edge 96, Type (0, 1), BuildingBlock: KIFKEQ_clean_linker_1, # of connection points: 2
#     Edge 97, Type (0, 1), BuildingBlock: KIFKEQ_clean_linker_1, # of connection points: 2
#     Edge 98, Type (0, 1), BuildingBlock: KIFKEQ_clean_linker_1, # of connection points: 2
#     Edge 99, Type (0, 1), BuildingBlock: KIFKEQ_clean_linker_1, # of connection points: 2
#     Edge 100, Type (0, 1), BuildingBlock: KIFKEQ_clean_linker_1, # of connection points: 2
#     Edge 101, Type (0, 1), BuildingBlock: KIFKEQ_clean_linker_1, # of connection points: 2
#     Edge 102, Type (0, 1), BuildingBlock: KIFKEQ_clean_linker_1, # of connection points: 2
#     Edge 103, Type (0, 1), BuildingBlock: KIFKEQ_clean_linker_1, # of connection points: 2
#     Edge 104, Type (0, 1), BuildingBlock: KIFKEQ_clean_linker_1, # of connection points: 2
#     Edge 105, Type (0, 1), BuildingBlock: KIFKEQ_clean_linker_1, # of connection points: 2
#     Edge 106, Type (0, 1), BuildingBlock: KIFKEQ_clean_linker_1, # of connection points: 2
#     Edge 107, Type (0, 1), BuildingBlock: KIFKEQ_clean_linker_1, # of connection points: 2
# Relax obj value: 0.032
# Max RMSD: 0.131
# Mean RMSD: 0.053
data_MOF--net-ptr--node1-CEKHIL_clean_sbu_0--node2-NAWXER_clean_linker_0--edge1-KIFKEQ_clean_linker_1
_symmetry_space_group_name_H-M    P1
_symmetry_Int_Tables_number       1
_symmetry_cell_setting            triclinic
loop_
_symmetry_equiv_pos_as_xyz
'x, y, z'
_cell_length_a     88.78578
_cell_length_b     87.833733
_cell_length_c     65.545504
_cell_angle_alpha  90.908423
_cell_angle_beta   89.474781
_cell_angle_gamma 120.96425
loop_
_atom_site_label
_atom_site_type_symbol
_atom_site_fract_x
_atom_site_fract_y
_atom_site_fract_z
_atom_type_partial_charge
Co0 Co 0.00816 0.34397 0.00647 0.0
O1 O 0.01335 0.33143 0.02623 0.0
O2 O 0.03327 0.35622 0.01126 0.0
C3 C 0.9895 0.31994 0.9877 0.0
O4 O 0.00751 0.36019 0.98497 0.0
Co5 Co 0.96998 0.33634 0.00258 0.0
O6 O 0.97923 0.34993 0.97696 0.0
C7 C 0.99197 0.35776 0.03726 0.0
C8 C 0.02973 0.34366 0.02414 0.0
C9 C 0.99563 0.36023 0.97383 0.0
O10 O 0.00537 0.35822 0.02894 0.0
O11 O 0.97637 0.3485 0.03009 0.0
O12 O 0.00635 0.32744 0.98493 0.0
O13 O 0.98473 0.32613 0.00279 0.0
Co14 Co 0.65987 0.66119 0.01064 0.0
O15 O 0.67601 0.67248 0.98839 0.0
O16 O 0.67127 0.6481 0.00386 0.0
C17 C 0.66811 0.68614 0.02905 0.0
O18 O 0.64488 0.6459 0.03418 0.0
Co19 Co 0.63079 0.66957 0.0216 0.0
O20 O 0.62809 0.65613 0.04678 0.0
C21 C 0.62668 0.64713 0.98541 0.0
C22 C 0.67961 0.65997 0.98995 0.0
C23 C 0.6342 0.64582 0.04764 0.0
O24 O 0.64041 0.64669 0.99055 0.0
O25 O 0.62152 0.65648 0.99497 0.0
O26 O 0.67704 0.67821 0.03015 0.0
O27 O 0.65552 0.67959 0.01589 0.0
Co28 Co 0.34067 0.99944 0.00582 0.0
O29 O 0.3285 0.00602 0.98727 0.0
O30 O 0.35351 0.02509 0.0025 0.0
C31 C 0.31691 0.98059 0.02437 0.0
O32 O 0.35645 0.99699 0.02641 0.0
Co33 Co 0.331 0.95998 0.00507 0.0
O34 O 0.34704 0.96784 0.02887 0.0
C35 C 0.35324 0.98368 0.97254 0.0
C36 C 0.34099 0.02234 0.99001 0.0
C37 C 0.35715 0.98401 0.03433 0.0
O38 O 0.35421 0.99694 0.98241 0.0
O39 O 0.34328 0.96755 0.978 0.0
O40 O 0.32504 0.99757 0.02809 0.0
O41 O 0.32219 0.97592 0.00835 0.0
Co42 Co 0.99619 0.6595 0.01129 0.0
O43 O 0.99067 0.67194 0.99174 0.0
O44 O 0.97102 0.64708 0.00679 0.0
C45 C 0.01495 0.68364 0.02993 0.0
O46 O 0.99716 0.64335 0.03266 0.0
Co47 Co 0.03442 0.6673 0.01457 0.0
O48 O 0.02552 0.65375 0.04027 0.0
C49 C 0.01211 0.64553 0.98025 0.0
C50 C 0.97434 0.6596 0.99395 0.0
C51 C 0.00916 0.64338 0.0436 0.0
O52 O 0.99883 0.64525 0.98867 0.0
O53 O 0.02777 0.65478 0.98726 0.0
O54 O 0.99812 0.67597 0.03296 0.0
O55 O 0.01964 0.67752 0.0147 0.0
Co56 Co 0.34121 0.34282 0.01 0.0
O57 O 0.3223 0.32946 0.02874 0.0
O58 O 0.32919 0.35551 0.01595 0.0
C59 C 0.33575 0.3199 0.98925 0.0
O60 O 0.35921 0.35997 0.98965 0.0
Co61 Co 0.37131 0.33472 0.00544 0.0
O62 O 0.37937 0.35226 0.98314 0.0
C63 C 0.36996 0.35391 0.04182 0.0
C64 C 0.31909 0.34226 0.0277 0.0
C65 C 0.37279 0.36194 0.98001 0.0
O66 O 0.3578 0.35548 0.03343 0.0
O67 O 0.37591 0.34457 0.03404 0.0
O68 O 0.32684 0.32779 0.98729 0.0
O69 O 0.34618 0.32492 0.00473 0.0
Co70 Co 0.6604 -0.0 0.01034 0.0
O71 O 0.67223 0.99345 0.02958 0.0
O72 O 0.64731 0.97447 0.014 0.0
C73 C 0.68457 0.01862 0.99222 0.0
O74 O 0.64493 0.00196 0.98895 0.0
Co75 Co 0.66942 0.03911 0.00845 0.0
O76 O 0.65625 0.03092 0.98231 0.0
C77 C 0.64673 0.01629 0.04151 0.0
C78 C 0.65969 0.97715 0.02665 0.0
C79 C 0.64559 0.01453 0.97835 0.0
O80 O 0.64646 0.00287 0.03295 0.0
O81 O 0.65626 0.0322 0.0351 0.0
O82 O 0.6765 0.0016 0.9888 0.0
O83 O 0.67883 0.02355 0.00761 0.0
Co84 Co 0.67272 0.67686 0.34183 0.0
O85 O 0.67828 0.66486 0.36191 0.0
O86 O 0.69779 0.6899 0.34706 0.0
C87 C 0.65483 0.65242 0.32308 0.0
O88 O 0.6717 0.69263 0.31998 0.0
Co89 Co 0.63404 0.66763 0.33691 0.0
O90 O 0.64337 0.68147 0.31146 0.0
C91 C 0.65494 0.68906 0.3722 0.0
C92 C 0.69454 0.67745 0.36 0.0
C93 C 0.65974 0.69219 0.30856 0.0
O94 O 0.66892 0.69072 0.36399 0.0
O95 O 0.63953 0.67902 0.36482 0.0
O96 O 0.67175 0.66048 0.3205 0.0
O97 O 0.64962 0.65843 0.33789 0.0
Co98 Co 0.32825 0.9954 0.34477 0.0
O99 O 0.34528 0.00726 0.32347 0.0
O100 O 0.33972 0.98232 0.33811 0.0
C101 C 0.33578 0.01982 0.36391 0.0
O102 O 0.31237 0.97959 0.36754 0.0
Co103 Co 0.29884 0.0037 0.35425 0.0
O104 O 0.29583 0.99033 0.37959 0.0
C105 C 0.29566 0.98151 0.31823 0.0
C106 C 0.34868 0.99458 0.32478 0.0
C107 C 0.30161 0.97976 0.38073 0.0
O108 O 0.30949 0.9814 0.32371 0.0
O109 O 0.29001 0.9905 0.32762 0.0
O110 O 0.34474 0.01193 0.36522 0.0
O111 O 0.32376 0.01365 0.35006 0.0
Co112 Co 0.00904 0.33635 0.34334 0.0
O113 O 0.99811 0.34325 0.32335 0.0
O114 O 0.02249 0.36195 0.33996 0.0
C115 C 0.98429 0.31783 0.36061 0.0
O116 O 0.02374 0.3337 0.36534 0.0
Co117 Co 0.99884 0.29672 0.34404 0.0
O118 O 0.01365 0.30452 0.36891 0.0
C119 C 0.02223 0.31989 0.3118 0.0
C120 C 0.01077 0.35946 0.3264 0.0
C121 C 0.02385 0.32072 0.37417 0.0
O122 O 0.02331 0.33338 0.32122 0.0
O123 O 0.01184 0.30386 0.31736 0.0
O124 O 0.99242 0.33482 0.36421 0.0
O125 O 0.99029 0.31296 0.34545 0.0
Co126 Co 0.66277 0.99295 0.34436 0.0
O127 O 0.65697 0.00453 0.32395 0.0
O128 O 0.63784 0.97914 0.33844 0.0
C129 C 0.6796 0.01758 0.36338 0.0
O130 O 0.66394 0.97739 0.36644 0.0
Co131 Co 0.70156 0.00338 0.35093 0.0
O132 O 0.69207 0.98965 0.37633 0.0
C133 C 0.68174 0.98056 0.31575 0.0
C134 C 0.64087 0.99147 0.32544 0.0
C135 C 0.67576 0.97832 0.37853 0.0
O136 O 0.66764 0.97969 0.32239 0.0
O137 O 0.69677 0.99019 0.32422 0.0
O138 O 0.66262 0.00885 0.36554 0.0
O139 O 0.68555 0.01202 0.34887 0.0
Co140 Co 0.00895 0.67386 0.34551 0.0
O141 O 0.99123 0.66188 0.36598 0.0
O142 O 0.99681 0.68656 0.35063 0.0
C143 C 0.00272 0.64957 0.32691 0.0
O144 O 0.02569 0.68954 0.32324 0.0
Co145 Co 0.03908 0.66588 0.34014 0.0
O146 O 0.04306 0.67886 0.31419 0.0
C147 C 0.03962 0.68769 0.37506 0.0
C148 C 0.98757 0.6743 0.36388 0.0
C149 C 0.03713 0.68916 0.31136 0.0
O150 O 0.02671 0.68832 0.36728 0.0
O151 O 0.0455 0.6782 0.36752 0.0
O152 O 0.99351 0.65709 0.32456 0.0
O153 O 0.01397 0.65586 0.34162 0.0
Co154 Co 0.32776 0.33398 0.34523 0.0
O155 O 0.33935 0.32596 0.36285 0.0
O156 O 0.3139 0.30833 0.34748 0.0
C157 C 0.35181 0.35273 0.32706 0.0
O158 O 0.3124 0.33762 0.32525 0.0
Co159 Co 0.33843 0.37365 0.34692 0.0
O160 O 0.32294 0.36695 0.32269 0.0
C161 C 0.31574 0.34973 0.37916 0.0
C162 C 0.32632 0.31 0.35941 0.0
C163 C 0.31234 0.3509 0.31722 0.0
O164 O 0.31466 0.33648 0.36914 0.0
O165 O 0.3258 0.36588 0.37379 0.0
O166 O 0.34312 0.33586 0.32265 0.0
O167 O 0.34677 0.35731 0.34336 0.0
Co168 Co 0.34153 0.01262 0.67569 0.0
O169 O 0.34933 0.00073 0.69322 0.0
O170 O 0.36682 0.02667 0.67864 0.0
C171 C 0.32298 0.98852 0.65688 0.0
O172 O 0.33823 0.02847 0.65608 0.0
Co173 Co 0.30229 0.00204 0.67625 0.0
O174 O 0.30939 0.01852 0.65293 0.0
C175 C 0.32542 0.0235 0.71 0.0
C176 C 0.3651 0.01409 0.69045 0.0
C177 C 0.32538 0.02908 0.64799 0.0
O178 O 0.33878 0.02548 0.69987 0.0
O179 O 0.30955 0.0132 0.70414 0.0
O180 O 0.3397 0.99721 0.65273 0.0
O181 O 0.31849 0.99364 0.67317 0.0
Co182 Co 0.9932 0.32737 0.67399 0.0
O183 O 0.01212 0.34024 0.6551 0.0
O184 O 0.00514 0.31445 0.66865 0.0
C185 C 0.9991 0.35098 0.69386 0.0
O186 O 0.97514 0.31074 0.6947 0.0
Co187 Co 0.9635 0.33604 0.67842 0.0
O188 O 0.95757 0.32129 0.70322 0.0
C189 C 0.96422 0.31584 0.64248 0.0
C190 C 0.01533 0.32748 0.65668 0.0
C191 C 0.96308 0.31062 0.7059 0.0
O192 O 0.9765 0.31436 0.65074 0.0
O193 O 0.95837 0.32528 0.65021 0.0
O194 O 0.00772 0.34285 0.69641 0.0
O195 O 0.98855 0.34559 0.67848 0.0
Co196 Co 0.67539 0.66961 0.6766 0.0
O197 O 0.66327 0.67461 0.65612 0.0
O198 O 0.68769 0.69492 0.67145 0.0
C199 C 0.65131 0.65128 0.69505 0.0
O200 O 0.69111 0.66924 0.69891 0.0
Co201 Co 0.66733 0.63094 0.68131 0.0
O202 O 0.68113 0.64075 0.70683 0.0
C203 C 0.6889 0.65236 0.64683 0.0
C204 C 0.67534 0.6912 0.65826 0.0
C205 C 0.69122 0.65737 0.71012 0.0
O206 O 0.68966 0.6662 0.65486 0.0
O207 O 0.67932 0.63671 0.65395 0.0
O208 O 0.65892 0.66838 0.69747 0.0
O209 O 0.65745 0.64603 0.6804 0.0
Co210 Co 0.33159 0.32666 0.6765 0.0
O211 O 0.32511 0.33963 0.65893 0.0
O212 O 0.30653 0.31295 0.67112 0.0
C213 C 0.34869 0.34974 0.69751 0.0
O214 O 0.3336 0.3097 0.69582 0.0
Co215 Co 0.37091 0.33755 0.67934 0.0
O216 O 0.36227 0.3199 0.70144 0.0
C217 C 0.35005 0.31705 0.64359 0.0
C218 C 0.30913 0.32631 0.6601 0.0
C219 C 0.34604 0.30891 0.7048 0.0
O220 O 0.33607 0.31523 0.65204 0.0
O221 O 0.36539 0.32663 0.65131 0.0
O222 O 0.33175 0.34077 0.70006 0.0
O223 O 0.35436 0.34554 0.68148 0.0
Co224 Co 0.67539 0.00928 0.67667 0.0
O225 O 0.65769 0.99915 0.69748 0.0
O226 O 0.66632 0.02477 0.6824 0.0
C227 C 0.66551 0.98417 0.65816 0.0
O228 O 0.69282 0.02365 0.65423 0.0
Co229 Co 0.70134 0.99589 0.66978 0.0
O230 O 0.7089 0.01142 0.6456 0.0
C231 C 0.70613 0.01925 0.70507 0.0
C232 C 0.65629 0.01307 0.69581 0.0
C233 C 0.70439 0.02288 0.64298 0.0
O234 O 0.69402 0.02175 0.69826 0.0
O235 O 0.70996 0.00836 0.69678 0.0
O236 O 0.65856 0.99392 0.65575 0.0
O237 O 0.67697 0.98907 0.67251 0.0
Co238 Co 0.99319 0.66754 0.67829 0.0
O239 O 0.00497 0.66031 0.69676 0.0
O240 O 0.97977 0.64195 0.68132 0.0
C241 C 0.01727 0.68633 0.6601 0.0
O242 O 0.97767 0.67022 0.65762 0.0
Co243 Co 0.00298 0.707 0.67837 0.0
O244 O 0.98664 0.69921 0.65483 0.0
C245 C 0.98088 0.68369 0.71127 0.0
C246 C 0.99215 0.64417 0.69369 0.0
C247 C 0.97671 0.68298 0.64953 0.0
O248 O 0.97969 0.67025 0.70159 0.0
O249 O 0.99096 0.69974 0.70561 0.0
O250 O 0.00897 0.66937 0.65616 0.0
O251 O 0.01182 0.691 0.67597 0.0
C252 C 0.22716 0.35045 0.13167 0.0
C253 C 0.22396 0.33626 0.11864 0.0
C254 C 0.21367 0.34941 0.14384 0.0
C255 C 0.19675 0.33429 0.14287 0.0
C256 C 0.20712 0.321 0.11798 0.0
C257 C 0.19353 0.32013 0.12981 0.0
C258 C 0.18217 0.33383 0.1543 0.0
C259 C 0.21274 0.32329 0.20101 0.0
C260 C 0.22065 0.33659 0.21622 0.0
C261 C 0.20055 0.32314 0.18748 0.0
C262 C 0.19604 0.33629 0.18888 0.0
C263 C 0.21625 0.34986 0.21729 0.0
C264 C 0.20396 0.3496 0.20392 0.0
C265 C 0.18227 0.33567 0.17571 0.0
C266 C 0.11032 0.32128 0.19523 0.0
C267 C 0.11417 0.33471 0.20987 0.0
C268 C 0.12365 0.3218 0.18318 0.0
C269 C 0.1411 0.33569 0.18562 0.0
C270 C 0.13168 0.3488 0.21188 0.0
C271 C 0.14501 0.34915 0.20006 0.0
C272 C 0.15547 0.33572 0.17405 0.0
C273 C 0.12627 0.34894 0.12901 0.0
C274 C 0.11916 0.33725 0.11218 0.0
C275 C 0.13793 0.34787 0.14225 0.0
C276 C 0.14248 0.33487 0.13922 0.0
C277 C 0.12395 0.32441 0.10901 0.0
C278 C 0.13553 0.32328 0.12235 0.0
C279 C 0.15551 0.33416 0.15255 0.0
H280 H 0.24008 0.36232 0.1324 0.0
H281 H 0.21631 0.36058 0.15363 0.0
H282 H 0.20438 0.30996 0.10792 0.0
H283 H 0.1805 0.30845 0.12876 0.0
H284 H 0.2156 0.31271 0.19988 0.0
H285 H 0.19429 0.31247 0.17632 0.0
H286 H 0.22232 0.36054 0.22847 0.0
H287 H 0.20067 0.35986 0.2053 0.0
H288 H 0.0971 0.31005 0.19346 0.0
H289 H 0.1204 0.3111 0.17235 0.0
H290 H 0.13514 0.35957 0.22265 0.0
H291 H 0.15842 0.35998 0.20216 0.0
H292 H 0.1228 0.35891 0.13203 0.0
H293 H 0.1436 0.35745 0.15465 0.0
H294 H 0.11899 0.31539 0.09602 0.0
H295 H 0.13908 0.31335 0.11946 0.0
N296 N 0.16882 0.33314 0.14353 0.0
N297 N 0.16892 0.33657 0.18477 0.0
C298 C 0.65521 0.87538 0.12415 0.0
C299 C 0.66822 0.88648 0.11006 0.0
C300 C 0.658 0.86463 0.1372 0.0
C301 C 0.67372 0.86451 0.13627 0.0
C302 C 0.68397 0.88622 0.10923 0.0
C303 C 0.68656 0.87516 0.12199 0.0
C304 C 0.67661 0.85299 0.14988 0.0
C305 C 0.68394 0.89895 0.1888 0.0
C306 C 0.67344 0.89451 0.20645 0.0
C307 C 0.68454 0.8858 0.17715 0.0
C308 C 0.67425 0.86785 0.18254 0.0
C309 C 0.66311 0.87651 0.21174 0.0
C310 C 0.66351 0.86336 0.19991 0.0
C311 C 0.67572 0.85384 0.17136 0.0
C312 C 0.6911 0.7971 0.19792 0.0
C313 C 0.67827 0.78929 0.21331 0.0
C314 C 0.6917 0.81017 0.18539 0.0
C315 C 0.67925 0.81543 0.18769 0.0
C316 C 0.66646 0.79533 0.21624 0.0
C317 C 0.66695 0.8082 0.20358 0.0
C318 C 0.67881 0.82846 0.17391 0.0
C319 C 0.66984 0.78245 0.13374 0.0
C320 C 0.68256 0.787 0.11838 0.0
C321 C 0.669 0.79567 0.14491 0.0
C322 C 0.6811 0.81368 0.14122 0.0
C323 C 0.69456 0.80503 0.11461 0.0
C324 C 0.69379 0.81824 0.12589 0.0
C325 C 0.67999 0.82783 0.1524 0.0
H326 H 0.64275 0.87481 0.12501 0.0
H327 H 0.64778 0.85624 0.14789 0.0
H328 H 0.69449 0.89477 0.09897 0.0
H329 H 0.69878 0.87522 0.12104 0.0
H330 H 0.69197 0.91262 0.18412 0.0
H331 H 0.69348 0.88982 0.16433 0.0
H332 H 0.65514 0.87257 0.22543 0.0
H333 H 0.65563 0.84965 0.20458 0.0
H334 H 0.70042 0.79283 0.19521 0.0
H335 H 0.70176 0.81598 0.17373 0.0
H336 H 0.65674 0.79005 0.2283 0.0
H337 H 0.6574 0.81225 0.20597 0.0
H338 H 0.66019 0.76868 0.13668 0.0
H339 H 0.65872 0.79181 0.1562 0.0
H340 H 0.70453 0.80892 0.1029 0.0
H341 H 0.70313 0.83206 0.12266 0.0
N342 N 0.67889 0.84015 0.14125 0.0
N343 N 0.67671 0.84145 0.18248 0.0
C344 C 0.11486 0.78099 0.13179 0.0
C345 C 0.1062 0.78459 0.11647 0.0
C346 C 0.12829 0.79482 0.14318 0.0
C347 C 0.13302 0.8125 0.1398 0.0
C348 C 0.11125 0.80233 0.11278 0.0
C349 C 0.12456 0.81615 0.12432 0.0
C350 C 0.14725 0.8273 0.1517 0.0
C351 C 0.10454 0.79238 0.19601 0.0
C352 C 0.11025 0.78551 0.2114 0.0
C353 C 0.11673 0.80626 0.18373 0.0
C354 C 0.13484 0.81328 0.18638 0.0
C355 C 0.12841 0.79317 0.21453 0.0
C356 C 0.14052 0.80685 0.20217 0.0
C357 C 0.14817 0.82753 0.17324 0.0
C358 C 0.21027 0.90059 0.19191 0.0
C359 C 0.21688 0.89623 0.20887 0.0
C360 C 0.19694 0.88726 0.17988 0.0
C361 C 0.19024 0.86927 0.18423 0.0
C362 C 0.20997 0.8782 0.21328 0.0
C363 C 0.19682 0.86491 0.2011 0.0
C364 C 0.1757 0.85486 0.17216 0.0
C365 C 0.22062 0.88383 0.12886 0.0
C366 C 0.2173 0.89201 0.11268 0.0
C367 C 0.20688 0.87154 0.14109 0.0
C368 C 0.18958 0.86743 0.13765 0.0
C369 C 0.19991 0.8875 0.1089 0.0
C370 C 0.18617 0.87529 0.12124 0.0
C371 C 0.17495 0.85447 0.15061 0.0
H372 H 0.11151 0.76749 0.13468 0.0
H373 H 0.13504 0.7917 0.15455 0.0
H374 H 0.10477 0.8055 0.10111 0.0
H375 H 0.12815 0.8297 0.12128 0.0
H376 H 0.09067 0.78683 0.19318 0.0
H377 H 0.11198 0.81138 0.17211 0.0
H378 H 0.13332 0.78861 0.2266 0.0
H379 H 0.15441 0.81224 0.20478 0.0
H380 H 0.21532 0.91431 0.18796 0.0
H381 H 0.19174 0.89105 0.16735 0.0
H382 H 0.21437 0.87428 0.22646 0.0
H383 H 0.19172 0.85114 0.20497 0.0
H384 H 0.23382 0.88673 0.13188 0.0
H385 H 0.20979 0.86517 0.15318 0.0
H386 H 0.19695 0.89363 0.09659 0.0
H387 H 0.1729 0.87215 0.11815 0.0
N388 N 0.16064 0.84083 0.14125 0.0
N389 N 0.16236 0.8413 0.18254 0.0
C390 C 0.34137 0.11848 0.82973 0.0
C391 C 0.33015 0.11047 0.81299 0.0
C392 C 0.34032 0.13127 0.84159 0.0
C393 C 0.32754 0.13573 0.83735 0.0
C394 C 0.31765 0.11516 0.80848 0.0
C395 C 0.31632 0.12762 0.8206 0.0
C396 C 0.3265 0.14969 0.84918 0.0
C397 C 0.31915 0.10832 0.89417 0.0
C398 C 0.33287 0.11458 0.9085 0.0
C399 C 0.31718 0.12016 0.8821 0.0
C400 C 0.32899 0.13851 0.88397 0.0
C401 C 0.3443 0.13302 0.9108 0.0
C402 C 0.34231 0.14485 0.89872 0.0
C403 C 0.32758 0.15123 0.87072 0.0
C404 C 0.31293 0.21043 0.88708 0.0
C405 C 0.32611 0.22041 0.90155 0.0
C406 C 0.31247 0.19613 0.8768 0.0
C407 C 0.32528 0.1917 0.8807 0.0
C408 C 0.33846 0.21545 0.90598 0.0
C409 C 0.338 0.2012 0.89571 0.0
C410 C 0.32576 0.17738 0.86914 0.0
C411 C 0.33799 0.22063 0.82469 0.0
C412 C 0.32709 0.21557 0.80738 0.0
C413 C 0.33735 0.20788 0.83769 0.0
C414 C 0.32531 0.18973 0.83425 0.0
C415 C 0.31518 0.19736 0.8038 0.0
C416 C 0.31432 0.18461 0.81709 0.0
C417 C 0.32497 0.17603 0.8476 0.0
H418 H 0.35129 0.11523 0.83323 0.0
H419 H 0.34971 0.13788 0.8538 0.0
H420 H 0.3089 0.10914 0.79557 0.0
H421 H 0.30654 0.13098 0.81681 0.0
H422 H 0.30986 0.09423 0.89233 0.0
H423 H 0.3065 0.11497 0.87121 0.0
H424 H 0.35505 0.13831 0.92158 0.0
H425 H 0.35148 0.15898 0.90054 0.0
H426 H 0.30322 0.21391 0.88337 0.0
H427 H 0.30227 0.1887 0.8656 0.0
H428 H 0.34852 0.22261 0.9174 0.0
H429 H 0.34787 0.19786 0.89915 0.0
H430 H 0.34719 0.23448 0.82818 0.0
H431 H 0.34651 0.21227 0.85029 0.0
H432 H 0.30682 0.19288 0.79045 0.0
H433 H 0.30514 0.17068 0.81386 0.0
N434 N 0.32518 0.16212 0.83854 0.0
N435 N 0.32723 0.16506 0.87981 0.0
C436 C 0.90206 0.209 0.88804 0.0
C437 C 0.89782 0.21776 0.90311 0.0
C438 C 0.88881 0.19455 0.8772 0.0
C439 C 0.87107 0.18871 0.88105 0.0
C440 C 0.88003 0.21155 0.90731 0.0
C441 C 0.86679 0.19712 0.89644 0.0
C442 C 0.85692 0.17372 0.86928 0.0
C443 C 0.88432 0.21766 0.82401 0.0
C444 C 0.89303 0.21428 0.80816 0.0
C445 C 0.87306 0.20414 0.83717 0.0
C446 C 0.87034 0.18699 0.83485 0.0
C447 C 0.89047 0.19715 0.80599 0.0
C448 C 0.87908 0.18358 0.81911 0.0
C449 C 0.85736 0.17235 0.8478 0.0
C450 C 0.78628 0.11378 0.82441 0.0
C451 C 0.79037 0.1038 0.81089 0.0
C452 C 0.79919 0.12672 0.8372 0.0
C453 C 0.81638 0.1299 0.83666 0.0
C454 C 0.80755 0.10679 0.81086 0.0
C455 C 0.82046 0.11985 0.82344 0.0
C456 C 0.83048 0.14451 0.84871 0.0
C457 C 0.7948 0.10193 0.89209 0.0
C458 C 0.78689 0.10744 0.90679 0.0
C459 C 0.80886 0.11441 0.88032 0.0
C460 C 0.81508 0.13264 0.88275 0.0
C461 C 0.79346 0.12571 0.90957 0.0
C462 C 0.80744 0.13816 0.89771 0.0
C463 C 0.82972 0.14608 0.87012 0.0
H464 H 0.91563 0.21347 0.8844 0.0
H465 H 0.89246 0.18798 0.86578 0.0
H466 H 0.87632 0.21779 0.91911 0.0
H467 H 0.85319 0.19269 0.89984 0.0
H468 H 0.8861 0.23074 0.82612 0.0
H469 H 0.86615 0.20702 0.84888 0.0
H470 H 0.89685 0.19412 0.79377 0.0
H471 H 0.87699 0.17038 0.81689 0.0
H472 H 0.77329 0.11203 0.82465 0.0
H473 H 0.79588 0.13459 0.84707 0.0
H474 H 0.81109 0.09911 0.80099 0.0
H475 H 0.83367 0.12216 0.82282 0.0
H476 H 0.79027 0.08798 0.88988 0.0
H477 H 0.81491 0.10979 0.86943 0.0
H478 H 0.78759 0.13037 0.92067 0.0
H479 H 0.81208 0.15214 0.89998 0.0
N480 N 0.84302 0.16065 0.87959 0.0
N481 N 0.84423 0.15769 0.83838 0.0
C482 C 0.79017 0.68112 0.89566 0.0
C483 C 0.77656 0.66456 0.9027 0.0
C484 C 0.80401 0.68232 0.88407 0.0
C485 C 0.80479 0.66709 0.87969 0.0
C486 C 0.77741 0.6493 0.89795 0.0
C487 C 0.79155 0.65062 0.88688 0.0
C488 C 0.81963 0.66841 0.86798 0.0
C489 C 0.77899 0.66156 0.82278 0.0
C490 C 0.7842 0.67634 0.81028 0.0
C491 C 0.79123 0.66031 0.83473 0.0
C492 C 0.80897 0.6739 0.83468 0.0
C493 C 0.80204 0.68983 0.81 0.0
C494 C 0.81431 0.68858 0.82203 0.0
C495 C 0.82203 0.67238 0.84703 0.0
C496 C 0.88199 0.66098 0.82587 0.0
C497 C 0.88995 0.67376 0.81061 0.0
C498 C 0.86853 0.66023 0.83786 0.0
C499 C 0.86326 0.67272 0.83534 0.0
C500 C 0.88442 0.68593 0.80767 0.0
C501 C 0.87125 0.68546 0.81998 0.0
C502 C 0.8487 0.67193 0.84756 0.0
C503 C 0.88931 0.67887 0.89338 0.0
C504 C 0.88364 0.66452 0.90673 0.0
C505 C 0.87728 0.68021 0.88105 0.0
C506 C 0.85937 0.66709 0.8816 0.0
C507 C 0.86564 0.65162 0.90755 0.0
C508 C 0.85363 0.65295 0.89518 0.0
C509 C 0.84642 0.66835 0.86874 0.0
H510 H 0.79036 0.69327 0.89934 0.0
H511 H 0.81429 0.69518 0.8788 0.0
H512 H 0.7671 0.63624 0.90257 0.0
H513 H 0.79197 0.63872 0.88355 0.0
H514 H 0.76548 0.65067 0.82293 0.0
H515 H 0.78687 0.64849 0.84366 0.0
H516 H 0.8065 0.70141 0.80058 0.0
H517 H 0.82797 0.69913 0.82157 0.0
H518 H 0.88585 0.65126 0.82812 0.0
H519 H 0.86207 0.64969 0.84884 0.0
H520 H 0.89036 0.69586 0.79591 0.0
H521 H 0.8673 0.69507 0.81748 0.0
H522 H 0.90302 0.68923 0.89269 0.0
H523 H 0.88197 0.69154 0.87117 0.0
H524 H 0.86084 0.64034 0.91753 0.0
H525 H 0.83985 0.64277 0.896 0.0
N526 N 0.83187 0.66657 0.87805 0.0
N527 N 0.83648 0.674 0.83761 0.0
C528 C 0.77982 0.65803 0.45982 0.0
C529 C 0.78549 0.67235 0.4464 0.0
C530 C 0.79179 0.65691 0.47247 0.0
C531 C 0.80965 0.67019 0.47214 0.0
C532 C 0.80343 0.68546 0.44591 0.0
C533 C 0.81539 0.68433 0.45857 0.0
C534 C 0.8226 0.6691 0.48515 0.0
C535 C 0.78578 0.6751 0.52765 0.0
C536 C 0.77799 0.66221 0.54295 0.0
C537 C 0.79961 0.67648 0.51581 0.0
C538 C 0.80557 0.66459 0.51845 0.0
C539 C 0.78438 0.65068 0.54592 0.0
C540 C 0.79791 0.65181 0.53378 0.0
C541 C 0.82043 0.66591 0.50637 0.0
C542 C 0.89054 0.67643 0.53151 0.0
C543 C 0.88463 0.66386 0.54714 0.0
C544 C 0.87854 0.67712 0.51845 0.0
C545 C 0.86042 0.66487 0.52031 0.0
C546 C 0.86654 0.65176 0.54919 0.0
C547 C 0.85457 0.65223 0.53588 0.0
C548 C 0.84736 0.66588 0.50727 0.0
C549 C 0.88196 0.65761 0.46349 0.0
C550 C 0.89134 0.67167 0.44986 0.0
C551 C 0.86835 0.65668 0.47532 0.0
C552 C 0.86402 0.66992 0.47395 0.0
C553 C 0.88677 0.68473 0.44829 0.0
C554 C 0.87319 0.68381 0.46015 0.0
C555 C 0.84944 0.669 0.48604 0.0
H556 H 0.76608 0.64776 0.46066 0.0
H557 H 0.78711 0.64564 0.48245 0.0
H558 H 0.80828 0.69649 0.43553 0.0
H559 H 0.82915 0.69459 0.45785 0.0
H560 H 0.78124 0.68417 0.52474 0.0
H561 H 0.80572 0.68699 0.50474 0.0
H562 H 0.77917 0.64092 0.55789 0.0
H563 H 0.80246 0.64269 0.53645 0.0
H564 H 0.90439 0.68616 0.5299 0.0
H565 H 0.88346 0.68754 0.50724 0.0
H566 H 0.86165 0.64198 0.56116 0.0
H567 H 0.84068 0.64277 0.53785 0.0
H568 H 0.88493 0.64715 0.46475 0.0
H569 H 0.8611 0.64553 0.4854 0.0
H570 H 0.89383 0.6958 0.43806 0.0
H571 H 0.86996 0.69408 0.45871 0.0
N572 N 0.83706 0.67062 0.47591 0.0
N573 N 0.83287 0.66436 0.51649 0.0
C574 C 0.31924 0.20621 0.45487 0.0
C575 C 0.33223 0.21704 0.44063 0.0
C576 C 0.32209 0.19581 0.46841 0.0
C577 C 0.33787 0.19579 0.46783 0.0
C578 C 0.34795 0.21671 0.43998 0.0
C579 C 0.35062 0.206 0.45325 0.0
C580 C 0.34104 0.18511 0.48245 0.0
C581 C 0.34832 0.23298 0.51732 0.0
C582 C 0.3383 0.22954 0.53526 0.0
C583 C 0.34892 0.2193 0.5069 0.0
C584 C 0.33902 0.20171 0.51373 0.0
C585 C 0.32839 0.21191 0.54204 0.0
C586 C 0.32872 0.19819 0.53138 0.0
C587 C 0.34044 0.18718 0.50381 0.0
C588 C 0.35775 0.13401 0.53685 0.0
C589 C 0.34435 0.12583 0.55156 0.0
C590 C 0.3577 0.14593 0.52294 0.0
C591 C 0.34421 0.14983 0.52344 0.0
C592 C 0.33102 0.13002 0.5521 0.0
C593 C 0.33106 0.14199 0.53833 0.0
C594 C 0.34357 0.16205 0.50864 0.0
C595 C 0.33327 0.11362 0.47277 0.0
C596 C 0.34537 0.11688 0.457 0.0
C597 C 0.3331 0.12766 0.4828 0.0
C598 C 0.34525 0.1453 0.47755 0.0
C599 C 0.35758 0.13456 0.45183 0.0
C600 C 0.35745 0.14862 0.46195 0.0
C601 C 0.34451 0.16021 0.48729 0.0
H602 H 0.30679 0.20567 0.45558 0.0
H603 H 0.31195 0.18774 0.47934 0.0
H604 H 0.35843 0.22504 0.42956 0.0
H605 H 0.36288 0.20612 0.45257 0.0
H606 H 0.356 0.24631 0.51146 0.0
H607 H 0.35758 0.22266 0.49387 0.0
H608 H 0.32083 0.2087 0.55602 0.0
H609 H 0.32115 0.18481 0.53718 0.0
H610 H 0.36837 0.13134 0.53618 0.0
H611 H 0.3682 0.15211 0.51183 0.0
H612 H 0.3203 0.12377 0.56291 0.0
H613 H 0.32053 0.14481 0.53899 0.0
H614 H 0.32376 0.10017 0.47722 0.0
H615 H 0.3232 0.12469 0.49436 0.0
H616 H 0.36687 0.13753 0.43952 0.0
H617 H 0.36678 0.16212 0.45747 0.0
N618 N 0.34324 0.17185 0.475 0.0
N619 N 0.34156 0.17544 0.51603 0.0
C620 C 0.77644 0.11623 0.46433 0.0
C621 C 0.76707 0.12024 0.45041 0.0
C622 C 0.79074 0.12978 0.47496 0.0
C623 C 0.79574 0.14762 0.47223 0.0
C624 C 0.7722 0.1381 0.44751 0.0
C625 C 0.78642 0.15166 0.45831 0.0
C626 C 0.81127 0.16213 0.48288 0.0
C627 C 0.77276 0.13028 0.53285 0.0
C628 C 0.77862 0.12122 0.54495 0.0
C629 C 0.78426 0.14344 0.51937 0.0
C630 C 0.80182 0.14779 0.51777 0.0
C631 C 0.79623 0.12565 0.54313 0.0
C632 C 0.80772 0.13891 0.52988 0.0
C633 C 0.81433 0.16188 0.50398 0.0
C634 C 0.87543 0.23449 0.5209 0.0
C635 C 0.8852 0.23054 0.53428 0.0
C636 C 0.86167 0.221 0.50955 0.0
C637 C 0.85742 0.20332 0.51136 0.0
C638 C 0.88121 0.21289 0.5357 0.0
C639 C 0.86732 0.19937 0.52447 0.0
C640 C 0.84185 0.18884 0.50085 0.0
C641 C 0.88176 0.21459 0.45126 0.0
C642 C 0.87979 0.22762 0.44167 0.0
C643 C 0.86837 0.20199 0.46358 0.0
C644 C 0.85269 0.20205 0.46618 0.0
C645 C 0.8641 0.22768 0.44419 0.0
C646 C 0.8505 0.21478 0.45617 0.0
C647 C 0.83892 0.18902 0.47979 0.0
H648 H 0.77306 0.10263 0.46652 0.0
H649 H 0.79812 0.1263 0.48495 0.0
H650 H 0.76521 0.14158 0.43689 0.0
H651 H 0.79016 0.16532 0.45578 0.0
H652 H 0.75939 0.12744 0.53404 0.0
H653 H 0.77952 0.15037 0.5104 0.0
H654 H 0.80116 0.11874 0.55181 0.0
H655 H 0.82121 0.14206 0.52884 0.0
H656 H 0.87825 0.24798 0.51949 0.0
H657 H 0.85396 0.22433 0.49991 0.0
H658 H 0.88839 0.20945 0.54609 0.0
H659 H 0.86415 0.18578 0.52621 0.0
H660 H 0.8938 0.21438 0.44949 0.0
H661 H 0.87024 0.19221 0.47116 0.0
H662 H 0.86238 0.23765 0.43685 0.0
H663 H 0.83848 0.215 0.45806 0.0
N664 N 0.82372 0.17573 0.47154 0.0
N665 N 0.82952 0.17522 0.51214 0.0
C666 C 0.98436 0.54223 0.15635 0.0
C667 C 0.99502 0.54903 0.13896 0.0
C668 C 0.98572 0.53023 0.16887 0.0
C669 C 0.99823 0.52531 0.16463 0.0
C670 C 0.00697 0.54352 0.13424 0.0
C671 C 0.00858 0.53182 0.14697 0.0
C672 C 1.00031 0.513 0.17801 0.0
C673 C 0.01195 0.55992 0.21759 0.0
C674 C 0.99982 0.55591 0.23354 0.0
C675 C 0.0122 0.54635 0.20653 0.0
C676 C 1.00019 0.5285 0.21106 0.0
C677 C 0.98795 0.53802 0.23817 0.0
C678 C 0.98821 0.52444 0.2271 0.0
C679 C 1.00044 0.51403 0.19958 0.0
C680 C 0.02076 0.46067 0.22314 0.0
C681 C 0.00998 0.45332 0.24037 0.0
C682 C 0.01876 0.47218 0.21051 0.0
C683 C 0.00565 0.47628 0.21454 0.0
C684 C 0.99725 0.45789 0.24478 0.0
C685 C 0.99513 0.46926 0.232 0.0
C686 C 0.00338 0.48853 0.2013 0.0
C687 C 0.99124 0.44257 0.1582 0.0
C688 C 0.00463 0.4471 0.14364 0.0
C689 C 0.99111 0.45568 0.17046 0.0
C690 C 0.00425 0.47355 0.16824 0.0
C691 C 0.01806 0.46503 0.14203 0.0
C692 C 0.01771 0.47813 0.15399 0.0
C693 C 0.00344 0.48764 0.17977 0.0
H694 H 0.97484 0.54605 0.16013 0.0
H695 H 0.97698 0.52483 0.18183 0.0
H696 H 0.01538 0.54861 0.12094 0.0
H697 H 0.01815 0.52807 0.14316 0.0
H698 H 0.02122 0.57357 0.21361 0.0
H699 H 0.02183 0.54979 0.1945 0.0
H700 H 0.97867 0.5345 0.25061 0.0
H701 H 0.97898 0.51075 0.23098 0.0
H702 H 0.03091 0.45768 0.21958 0.0
H703 H 0.02765 0.47803 0.19774 0.0
H704 H 0.98869 0.45237 0.25789 0.0
H705 H 0.98509 0.4724 0.23563 0.0
H706 H 0.98051 0.42901 0.1597 0.0
H707 H 0.98048 0.45194 0.18123 0.0
H708 H 0.02882 0.46903 0.1314 0.0
H709 H 0.02798 0.49188 0.15212 0.0
N710 N 0.00197 0.4999 0.16899 0.0
N711 N 0.0018 0.50167 0.21036 0.0
C712 C 0.4608 0.43481 0.16038 0.0
C713 C 0.45175 0.43984 0.14711 0.0
C714 C 0.47476 0.44755 0.17224 0.0
C715 C 0.48004 0.46554 0.17088 0.0
C716 C 0.4569 0.4579 0.14628 0.0
C717 C 0.47105 0.47062 0.15782 0.0
C718 C 0.49527 0.47927 0.18247 0.0
C719 C 0.45073 0.45134 0.22635 0.0
C720 C 0.45356 0.44183 0.24137 0.0
C721 C 0.4646 0.46359 0.21427 0.0
C722 C 0.48157 0.46646 0.21675 0.0
C723 C 0.47063 0.44493 0.24407 0.0
C724 C 0.48453 0.45723 0.23195 0.0
C725 C 0.49627 0.47945 0.20394 0.0
C726 C 0.55556 0.55318 0.22114 0.0
C727 C 0.56481 0.55045 0.23655 0.0
C728 C 0.5423 0.53882 0.21025 0.0
C729 C 0.5382 0.52144 0.21427 0.0
C730 C 0.56046 0.53299 0.2408 0.0
C731 C 0.54719 0.51861 0.22982 0.0
C732 C 0.52421 0.50624 0.20265 0.0
C733 C 0.56807 0.53945 0.15924 0.0
C734 C 0.56316 0.54573 0.14253 0.0
C735 C 0.55525 0.52617 0.17158 0.0
C736 C 0.5373 0.51942 0.16783 0.0
C737 C 0.54526 0.53848 0.13828 0.0
C738 C 0.53247 0.5255 0.15083 0.0
C739 C 0.52335 0.5058 0.18107 0.0
H740 H 0.45745 0.42112 0.16122 0.0
H741 H 0.4817 0.44342 0.1821 0.0
H742 H 0.45005 0.46228 0.13665 0.0
H743 H 0.4749 0.48445 0.15668 0.0
H744 H 0.43774 0.4492 0.22379 0.0
H745 H 0.46206 0.47091 0.20303 0.0
H746 H 0.47329 0.43802 0.25572 0.0
H747 H 0.49757 0.45943 0.2343 0.0
H748 H 0.55864 0.56645 0.21739 0.0
H749 H 0.53523 0.54131 0.19866 0.0
H750 H 0.56711 0.53041 0.25282 0.0
H751 H 0.54405 0.50527 0.23335 0.0
H752 H 0.58182 0.54469 0.16262 0.0
H753 H 0.55939 0.52122 0.18404 0.0
H754 H 0.54116 0.54316 0.12551 0.0
H755 H 0.51876 0.52042 0.14744 0.0
N756 N 0.5088 0.4924 0.17188 0.0
N757 N 0.51074 0.49292 0.21325 0.0
C758 C 0.45255 0.00925 0.22292 0.0
C759 C 0.44341 0.99562 0.23712 0.0
C760 C 0.4659 0.00977 0.21092 0.0
C761 C 0.47022 0.99655 0.21269 0.0
C762 C 0.44801 0.9826 0.23912 0.0
C763 C 0.46134 0.98313 0.22709 0.0
C764 C 0.48434 0.99692 0.20015 0.0
C765 C 0.44135 0.98717 0.15669 0.0
C766 C 0.44626 0.99895 0.14026 0.0
C767 C 0.45403 0.98722 0.16919 0.0
C768 C 0.47197 0.99952 0.16614 0.0
C769 C 0.46426 0.01116 0.13712 0.0
C770 C 0.47693 0.01144 0.14992 0.0
C771 C 0.48566 0.99925 0.17877 0.0
C772 C 0.54676 0.98955 0.15678 0.0
C773 C 0.554 0.00207 0.14115 0.0
C774 C 0.53318 0.98837 0.16896 0.0
C775 C 0.52711 0.00019 0.16625 0.0
C776 C 0.54761 0.0135 0.138 0.0
C777 C 0.53435 0.01262 0.15049 0.0
C778 C 0.5126 0.99918 0.17881 0.0
C779 C 0.55441 0.00743 0.22382 0.0
C780 C 0.54896 0.99326 0.23738 0.0
C781 C 0.54218 0.00863 0.21171 0.0
C782 C 0.52428 0.99555 0.21274 0.0
C783 C 0.53098 0.98038 0.23864 0.0
C784 C 0.51877 0.98158 0.22651 0.0
C785 C 0.51109 0.9966 0.20017 0.0
H786 H 0.44958 0.01969 0.22131 0.0
H787 H 0.47291 0.02056 0.20033 0.0
H788 H 0.44114 0.97184 0.24977 0.0
H789 H 0.46455 0.97287 0.22883 0.0
H790 H 0.42766 0.97769 0.15984 0.0
H791 H 0.44974 0.97736 0.18101 0.0
H792 H 0.46865 0.0202 0.12442 0.0
H793 H 0.49068 0.02088 0.14698 0.0
H794 H 0.55131 0.9804 0.1592 0.0
H795 H 0.52732 0.97806 0.18029 0.0
H796 H 0.55298 0.02321 0.12595 0.0
H797 H 0.52978 0.02172 0.14784 0.0
H798 H 0.56811 0.01777 0.22278 0.0
H799 H 0.54669 0.01982 0.20163 0.0
H800 H 0.52634 0.96923 0.24879 0.0
H801 H 0.505 0.97142 0.22769 0.0
N802 N 0.497 0.99551 0.20992 0.0
N803 N 0.49982 0.00044 0.16904 0.0
C804 C 0.56718 0.02616 0.80134 0.0
C805 C 0.56428 0.0164 0.78311 0.0
C806 C 0.553 0.02401 0.81309 0.0
C807 C 0.53567 0.01174 0.80706 0.0
C808 C 0.54695 0.00438 0.77693 0.0
C809 C 0.5328 0.0021 0.78877 0.0
C810 C 0.5204 0.00967 0.81879 0.0
C811 C 0.54955 0.9938 0.86082 0.0
C812 C 0.55487 0.00325 0.87943 0.0
C813 C 0.53773 0.99521 0.84815 0.0
C814 C 0.53146 0.00654 0.85351 0.0
C815 C 0.54815 0.0141 0.88511 0.0
C816 C 0.53659 0.01574 0.87228 0.0
C817 C 0.5189 0.00825 0.84032 0.0
C818 C 0.44531 0.9907 0.85652 0.0
C819 C 0.4478 0.00269 0.87243 0.0
C820 C 0.45964 0.99267 0.84529 0.0
C821 C 0.47672 0.00658 0.84986 0.0
C822 C 0.46488 0.01673 0.87682 0.0
C823 C 0.47925 0.01854 0.86576 0.0
C824 C 0.49199 0.00818 0.83869 0.0
C825 C 0.46623 0.02603 0.79318 0.0
C826 C 0.45695 0.01301 0.77799 0.0
C827 C 0.47773 0.02455 0.8063 0.0
C828 C 0.4804 0.0102 0.80432 0.0
C829 C 0.45953 0.99848 0.77638 0.0
C830 C 0.47132 0.99724 0.78922 0.0
C831 C 0.4933 0.00911 0.81728 0.0
H832 H 0.58041 0.03569 0.80632 0.0
H833 H 0.55559 0.03209 0.82674 0.0
H834 H 0.54431 0.99655 0.76305 0.0
H835 H 0.51957 0.9927 0.78367 0.0
H836 H 0.55432 0.98512 0.85624 0.0
H837 H 0.53344 0.98733 0.83423 0.0
H838 H 0.5521 0.02159 0.89933 0.0
H839 H 0.53178 0.02438 0.87694 0.0
H840 H 0.43228 0.97978 0.85283 0.0
H841 H 0.45743 0.98311 0.8333 0.0
H842 H 0.46716 0.02602 0.88916 0.0
H843 H 0.49234 0.02927 0.86961 0.0
H844 H 0.46494 0.03759 0.79472 0.0
H845 H 0.48486 0.03484 0.8177 0.0
H846 H 0.45237 0.98793 0.76529 0.0
H847 H 0.47322 0.98606 0.7875 0.0
N848 N 0.50742 0.00984 0.80815 0.0
N849 N 0.50481 0.00777 0.84942 0.0
C850 C 0.98344 0.5403 0.79097 0.0
C851 C 0.99703 0.55161 0.77759 0.0
C852 C 0.98546 0.52891 0.80383 0.0
C853 C 0.00098 0.52838 0.8034 0.0
C854 C 0.01263 0.55107 0.77741 0.0
C855 C 0.01447 0.5394 0.78998 0.0
C856 C 0.00289 0.5159 0.81642 0.0
C857 C 0.01263 0.56079 0.85954 0.0
C858 C 0.99884 0.55602 0.87359 0.0
C859 C 0.01321 0.54789 0.84738 0.0
C860 C 1.00013 0.52995 0.84914 0.0
C861 C 0.98545 0.53802 0.87474 0.0
C862 C 0.98623 0.52511 0.86284 0.0
C863 C 0.00162 0.51612 0.83784 0.0
C864 C 0.0212 0.4621 0.86193 0.0
C865 C 0.01 0.45477 0.87881 0.0
C866 C 0.01994 0.47414 0.84941 0.0
C867 C 0.00701 0.47859 0.85309 0.0
C868 C 0.9976 0.45979 0.88301 0.0
C869 C 0.9961 0.47155 0.87026 0.0
C870 C 0.0051 0.49099 0.83968 0.0
C871 C 0.99553 0.44507 0.79932 0.0
C872 C 0.00781 0.44954 0.78346 0.0
C873 C 0.99489 0.45834 0.81062 0.0
C874 C 0.00673 0.47634 0.80653 0.0
C875 C 0.01953 0.46756 0.77926 0.0
C876 C 0.01893 0.48083 0.79064 0.0
C877 C 0.00595 0.49051 0.8181 0.0
H878 H 0.97109 0.53997 0.79134 0.0
H879 H 0.97476 0.52027 0.81387 0.0
H880 H 0.02358 0.55978 0.76773 0.0
H881 H 0.02655 0.53917 0.78944 0.0
H882 H 0.02337 0.5744 0.85843 0.0
H883 H 0.02422 0.55185 0.83712 0.0
H884 H 0.97442 0.53383 0.885 0.0
H885 H 0.97601 0.5113 0.86438 0.0
H886 H 0.03106 0.45866 0.85857 0.0
H887 H 0.0291 0.47996 0.83686 0.0
H888 H 0.98878 0.4543 0.89592 0.0
H889 H 0.98619 0.47493 0.87365 0.0
H890 H 0.98609 0.43131 0.80263 0.0
H891 H 0.98499 0.45454 0.8224 0.0
H892 H 0.0292 0.47141 0.76721 0.0
H893 H 0.02809 0.49462 0.78712 0.0
N894 N 0.005 0.50312 0.80733 0.0
N895 N 0.00278 0.5037 0.84867 0.0
C896 C 0.53998 0.56903 0.79429 0.0
C897 C 0.54784 0.56344 0.77963 0.0
C898 C 0.52582 0.55661 0.80597 0.0
C899 C 0.51942 0.53836 0.80346 0.0
C900 C 0.54109 0.54514 0.77677 0.0
C901 C 0.52698 0.53274 0.78851 0.0
C902 C 0.50476 0.52503 0.81611 0.0
C903 C 0.54926 0.5566 0.86048 0.0
C904 C 0.54575 0.5666 0.87461 0.0
C905 C 0.53586 0.54381 0.84805 0.0
C906 C 0.51875 0.5408 0.84959 0.0
C907 C 0.52863 0.56362 0.87598 0.0
C908 C 0.51522 0.55072 0.86371 0.0
C909 C 0.50423 0.52655 0.83754 0.0
C910 C 0.44584 0.4544 0.86203 0.0
C911 C 0.43946 0.4593 0.87902 0.0
C912 C 0.45779 0.46729 0.84868 0.0
C913 C 0.46311 0.48527 0.85166 0.0
C914 C 0.4449 0.47726 0.88217 0.0
C915 C 0.45658 0.49011 0.86857 0.0
C916 C 0.4767 0.49927 0.83848 0.0
C917 C 0.43197 0.46251 0.79791 0.0
C918 C 0.43632 0.45328 0.78359 0.0
C919 C 0.44516 0.47728 0.80846 0.0
C920 C 0.46293 0.48295 0.80507 0.0
C921 C 0.45415 0.45949 0.77965 0.0
C922 C 0.46731 0.47419 0.79024 0.0
C923 C 0.47708 0.49785 0.81696 0.0
H924 H 0.54463 0.583 0.79656 0.0
H925 H 0.51985 0.56129 0.81692 0.0
H926 H 0.54693 0.5404 0.76571 0.0
H927 H 0.5222 0.51873 0.7862 0.0
H928 H 0.56234 0.55864 0.85911 0.0
H929 H 0.53879 0.53603 0.83753 0.0
H930 H 0.52549 0.57094 0.88695 0.0
H931 H 0.50206 0.54843 0.86528 0.0
H932 H 0.44213 0.44068 0.85955 0.0
H933 H 0.4632 0.4632 0.83638 0.0
H934 H 0.44022 0.48135 0.89524 0.0
H935 H 0.46068 0.5039 0.87141 0.0
H936 H 0.41838 0.45809 0.80131 0.0
H937 H 0.44147 0.48411 0.81947 0.0
H938 H 0.45797 0.45297 0.76835 0.0
H939 H 0.48093 0.47847 0.78716 0.0
N940 N 0.49118 0.5107 0.80666 0.0
N941 N 0.49023 0.51368 0.84785 0.0
C942 C 0.67035 0.78303 0.49407 0.0
C943 C 0.65797 0.77457 0.47832 0.0
C944 C 0.67056 0.79653 0.50588 0.0
C945 C 0.65802 0.80147 0.5027 0.0
C946 C 0.64576 0.77994 0.47483 0.0
C947 C 0.64576 0.79316 0.48692 0.0
C948 C 0.65815 0.81598 0.51471 0.0
C949 C 0.6514 0.77513 0.56047 0.0
C950 C 0.66539 0.78134 0.57441 0.0
C951 C 0.6497 0.78697 0.54807 0.0
C952 C 0.66206 0.80525 0.54918 0.0
C953 C 0.67754 0.79969 0.57575 0.0
C954 C 0.67582 0.81152 0.56335 0.0
C955 C 0.66055 0.81802 0.53614 0.0
C956 C 0.64446 0.87449 0.55742 0.0
C957 C 0.65905 0.88634 0.56941 0.0
C958 C 0.64463 0.86101 0.54601 0.0
C959 C 0.65928 0.85896 0.54659 0.0
C960 C 0.67382 0.88433 0.56957 0.0
C961 C 0.6738 0.87061 0.55853 0.0
C962 C 0.65938 0.84451 0.53499 0.0
C963 C 0.67095 0.88707 0.49023 0.0
C964 C 0.65809 0.88237 0.47513 0.0
C965 C 0.67053 0.8742 0.50283 0.0
C966 C 0.6571 0.85634 0.50083 0.0
C967 C 0.6446 0.86448 0.47316 0.0
C968 C 0.6442 0.85156 0.4858 0.0
C969 C 0.65717 0.84262 0.51365 0.0
H970 H 0.67991 0.77926 0.49733 0.0
H971 H 0.68067 0.8032 0.51735 0.0
H972 H 0.63635 0.77418 0.46251 0.0
H973 H 0.63617 0.79696 0.48386 0.0
H974 H 0.64186 0.76107 0.55896 0.0
H975 H 0.63873 0.78184 0.5376 0.0
H976 H 0.68828 0.80496 0.58655 0.0
H977 H 0.68539 0.82559 0.56466 0.0
H978 H 0.63273 0.87535 0.55716 0.0
H979 H 0.63321 0.85198 0.53701 0.0
H980 H 0.68548 0.8934 0.57815 0.0
H981 H 0.68525 0.86926 0.55904 0.0
H982 H 0.68145 0.90073 0.49225 0.0
H983 H 0.68094 0.8782 0.51387 0.0
H984 H 0.63462 0.86042 0.46151 0.0
H985 H 0.63384 0.83782 0.48382 0.0
N986 N 0.6565 0.82836 0.50434 0.0
N987 N 0.66113 0.83227 0.54541 0.0
C988 C 0.12826 0.77093 0.49465 0.0
C989 C 0.11924 0.77567 0.48097 0.0
C990 C 0.14168 0.7838 0.50698 0.0
C991 C 0.14645 0.80166 0.50571 0.0
C992 C 0.12383 0.79357 0.48023 0.0
C993 C 0.13745 0.80644 0.49227 0.0
C994 C 0.16128 0.81558 0.51764 0.0
C995 C 0.11623 0.78629 0.56041 0.0
C996 C 0.1191 0.77686 0.57551 0.0
C997 C 0.13018 0.79891 0.54871 0.0
C998 C 0.14727 0.80225 0.55164 0.0
C999 C 0.13629 0.78044 0.57866 0.0
C1000 C 0.15027 0.79311 0.56691 0.0
C1001 C 0.16203 0.81557 0.53912 0.0
C1002 C 0.22084 0.88943 0.5575 0.0
C1003 C 0.23033 0.88662 0.57253 0.0
C1004 C 0.20757 0.87513 0.54653 0.0
C1005 C 0.20365 0.85775 0.55018 0.0
C1006 C 0.22614 0.86916 0.57642 0.0
C1007 C 0.21282 0.85484 0.56543 0.0
C1008 C 0.18978 0.84264 0.53833 0.0
C1009 C 0.23394 0.87603 0.49504 0.0
C1010 C 0.2291 0.88213 0.4781 0.0
C1011 C 0.22107 0.86295 0.50755 0.0
C1012 C 0.20314 0.85621 0.50371 0.0
C1013 C 0.2112 0.87501 0.47391 0.0
C1014 C 0.19837 0.86222 0.4866 0.0
C1015 C 0.18913 0.84243 0.51675 0.0
H1016 H 0.12534 0.75737 0.49543 0.0
H1017 H 0.14866 0.77991 0.51711 0.0
H1018 H 0.11697 0.7977 0.47028 0.0
H1019 H 0.14092 0.82017 0.49117 0.0
H1020 H 0.10316 0.7838 0.5575 0.0
H1021 H 0.12758 0.80614 0.53741 0.0
H1022 H 0.13898 0.77361 0.59038 0.0
H1023 H 0.16339 0.79564 0.5696 0.0
H1024 H 0.2238 0.90271 0.55405 0.0
H1025 H 0.20039 0.87766 0.53513 0.0
H1026 H 0.23301 0.86655 0.58814 0.0
H1027 H 0.20983 0.8415 0.56865 0.0
H1028 H 0.24767 0.88116 0.4984 0.0
H1029 H 0.22518 0.85806 0.52009 0.0
H1030 H 0.20713 0.87956 0.46098 0.0
H1031 H 0.18467 0.85715 0.48315 0.0
N1032 N 0.17481 0.82895 0.50731 0.0
N1033 N 0.1763 0.82909 0.5487 0.0
C1034 C 0.22681 0.34827 0.49396 0.0
C1035 C 0.22286 0.33468 0.47952 0.0
C1036 C 0.21351 0.34817 0.50564 0.0
C1037 C 0.19596 0.33455 0.50305 0.0
C1038 C 0.20523 0.32089 0.47728 0.0
C1039 C 0.19192 0.32095 0.48876 0.0
C1040 C 0.18173 0.33496 0.51448 0.0
C1041 C 0.20782 0.31871 0.56072 0.0
C1042 C 0.21876 0.33273 0.57404 0.0
C1043 C 0.19598 0.32008 0.5481 0.0
C1044 C 0.1947 0.33536 0.54882 0.0
C1045 C 0.21752 0.34805 0.57468 0.0
C1046 C 0.2054 0.34925 0.56236 0.0
C1047 C 0.18178 0.33653 0.53593 0.0
C1048 C 0.11009 0.32016 0.55669 0.0
C1049 C 0.11306 0.33419 0.56987 0.0
C1050 C 0.12375 0.32137 0.54472 0.0
C1051 C 0.14065 0.33651 0.54601 0.0
C1052 C 0.1299 0.34945 0.57091 0.0
C1053 C 0.14367 0.35048 0.55928 0.0
C1054 C 0.15533 0.3372 0.53449 0.0
C1055 C 0.12519 0.34909 0.48869 0.0
C1056 C 0.11702 0.33604 0.47328 0.0
C1057 C 0.13737 0.34883 0.50191 0.0
C1058 C 0.14163 0.33552 0.49999 0.0
C1059 C 0.12121 0.32262 0.47165 0.0
C1060 C 0.13349 0.32248 0.4847 0.0
C1061 C 0.15524 0.33563 0.51302 0.0
H1062 H 0.24012 0.35932 0.49587 0.0
H1063 H 0.21689 0.35901 0.5163 0.0
H1064 H 0.20166 0.31001 0.46663 0.0
H1065 H 0.17844 0.31032 0.48654 0.0
H1066 H 0.2086 0.30681 0.55991 0.0
H1067 H 0.18767 0.30912 0.53792 0.0
H1068 H 0.22578 0.35898 0.58491 0.0
H1069 H 0.2045 0.36109 0.56321 0.0
H1070 H 0.09718 0.3083 0.55564 0.0
H1071 H 0.12124 0.31035 0.53476 0.0
H1072 H 0.13247 0.36038 0.58107 0.0
H1073 H 0.15667 0.36219 0.56058 0.0
H1074 H 0.12252 0.35977 0.49026 0.0
H1075 H 0.14379 0.35931 0.51328 0.0
H1076 H 0.11495 0.3121 0.46032 0.0
H1077 H 0.13657 0.31209 0.48292 0.0
N1078 N 0.16843 0.33449 0.50381 0.0
N1079 N 0.16861 0.33765 0.54517 0.0
H1080 H 0.96778 0.35486 0.06553 0.0
H1081 H 0.02269 0.38708 0.04943 0.0
H1082 H 0.97209 0.37583 0.09308 0.0
H1083 H 0.02683 0.40809 0.07678 0.0
H1084 H 0.01475 0.45095 0.1035 0.0
H1085 H 0.01315 0.42852 0.07999 0.0
H1086 H 0.99066 0.38932 0.12728 0.0
H1087 H 0.99309 0.41199 0.15143 0.0
C1088 C 0.98078 0.3663 0.06798 0.0
C1089 C 0.99486 0.36938 0.0552 0.0
C1090 C 0.98325 0.37821 0.08381 0.0
C1091 C 0.99976 0.39355 0.08692 0.0
C1092 C 0.01395 0.39637 0.07459 0.0
C1093 C 0.01158 0.38431 0.059 0.0
C1094 C 0.00989 0.43772 0.10919 0.0
C1095 C 0.00413 0.43339 0.1295 0.0
C1096 C 0.0089 0.42484 0.09562 0.0
C1097 C 0.00183 0.40726 0.10188 0.0
C1098 C 0.99609 0.40282 0.12211 0.0
C1099 C 0.99739 0.41579 0.13585 0.0
H1100 H 0.63413 0.61466 0.04751 0.0
H1101 H 0.61865 0.64588 0.08383 0.0
H1102 H 0.61945 0.59039 0.07172 0.0
H1103 H 0.60416 0.62164 0.10808 0.0
H1104 H 0.59012 0.57808 0.15498 0.0
H1105 H 0.6103 0.60301 0.13339 0.0
H1106 H 0.58629 0.57058 0.07964 0.0
H1107 H 0.56608 0.54581 0.10117 0.0
C1108 C 0.6279 0.61649 0.06084 0.0
C1109 C 0.62742 0.63215 0.06366 0.0
C1110 C 0.61944 0.60256 0.07463 0.0
C1111 C 0.61063 0.60414 0.09168 0.0
C1112 C 0.61096 0.62013 0.09511 0.0
C1113 C 0.61917 0.63396 0.08116 0.0
C1114 C 0.5894 0.57626 0.13856 0.0
C1115 C 0.57655 0.56011 0.12968 0.0
C1116 C 0.60084 0.5905 0.12625 0.0
C1117 C 0.59983 0.58869 0.10488 0.0
C1118 C 0.58746 0.57228 0.09607 0.0
C1119 C 0.57584 0.55817 0.10835 0.0
H1120 H 0.37438 0.01277 0.06066 0.0
H1121 H 0.37073 0.96342 0.04289 0.0
H1122 H 0.39561 0.0172 0.08723 0.0
H1123 H 0.39219 0.9681 0.06844 0.0
H1124 H 0.41589 0.96913 0.1277 0.0
H1125 H 0.39431 0.96679 0.10369 0.0
H1126 H 0.42483 0.02343 0.09426 0.0
H1127 H 0.44589 0.02603 0.11979 0.0
C1128 C 0.37821 0.00297 0.06231 0.0
C1129 C 0.37066 0.98762 0.04989 0.0
C1130 C 0.39042 0.00552 0.07747 0.0
C1131 C 0.39543 0.99285 0.08028 0.0
C1132 C 0.38827 0.97787 0.06728 0.0
C1133 C 0.37598 0.97522 0.05247 0.0
C1134 C 0.4179 0.98121 0.12098 0.0
C1135 C 0.43276 0.99779 0.12582 0.0
C1136 C 0.4056 0.97981 0.10682 0.0
C1137 C 0.40792 0.99487 0.09667 0.0
C1138 C 0.42255 0.01154 0.10179 0.0
C1139 C 0.43479 0.01299 0.11624 0.0
H1140 H 0.35023 0.96095 0.94166 0.0
H1141 H 0.38381 0.01454 0.96427 0.0
H1142 H 0.37173 0.96595 0.91529 0.0
H1143 H 0.4057 0.01929 0.93865 0.0
H1144 H 0.43891 0.02731 0.88289 0.0
H1145 H 0.41455 0.02315 0.9045 0.0
H1146 H 0.39901 0.96817 0.91268 0.0
H1147 H 0.42283 0.97227 0.89039 0.0
C1148 C 0.36219 0.97383 0.94096 0.0
C1149 C 0.36534 0.98731 0.95514 0.0
C1150 C 0.37461 0.97666 0.92593 0.0
C1151 C 0.39064 0.99295 0.92493 0.0
C1152 C 0.39347 0.00664 0.93869 0.0
C1153 C 0.38092 0.00389 0.9535 0.0
C1154 C 0.43016 0.01434 0.88926 0.0
C1155 C 0.43271 0.00011 0.88498 0.0
C1156 C 0.41625 0.01194 0.90171 0.0
C1157 C 0.40473 0.99531 0.91044 0.0
C1158 C 0.40729 0.98107 0.90593 0.0
C1159 C 0.42103 0.98341 0.89324 0.0
H1160 H 0.02442 0.39382 0.97326 0.0
H1161 H 0.97843 0.35716 0.93847 0.0
H1162 H 0.03043 0.41742 0.9492 0.0
H1163 H 0.98464 0.38059 0.91431 0.0
H1164 H 0.00943 0.42466 0.86662 0.0
H1165 H 0.00861 0.40174 0.8883 0.0
H1166 H 0.01192 0.43248 0.94192 0.0
H1167 H 0.0125 0.45525 0.92028 0.0
C1168 C 0.01585 0.39071 0.96023 0.0
C1169 C 1.00091 0.37369 0.95777 0.0
C1170 C 0.01923 0.40421 0.94657 0.0
C1171 C 0.00796 0.40081 0.92997 0.0
C1172 C 0.99359 0.38355 0.92691 0.0
C1173 C 0.99001 0.37017 0.94077 0.0
C1174 C 0.01021 0.42659 0.88303 0.0
C1175 C 0.01095 0.44165 0.89182 0.0
C1176 C 0.00969 0.41348 0.8954 0.0
C1177 C 0.01025 0.41539 0.91675 0.0
C1178 C 0.01164 0.43077 0.9255 0.0
C1179 C 0.01184 0.44371 0.91315 0.0
H1180 H 0.63449 0.62831 0.95776 0.0
H1181 H 0.59464 0.64091 0.97327 0.0
H1182 H 0.61655 0.61001 0.92914 0.0
H1183 H 0.57667 0.62236 0.94521 0.0
H1184 H 0.55382 0.60037 0.88372 0.0
H1185 H 0.57486 0.62081 0.90888 0.0
H1186 H 0.58964 0.58226 0.92259 0.0
H1187 H 0.56886 0.56202 0.89703 0.0
C1188 C 0.62192 0.62716 0.95512 0.0
C1189 C 0.61604 0.63611 0.96784 0.0
C1190 C 0.61161 0.61662 0.93876 0.0
C1191 C 0.59519 0.61476 0.9348 0.0
C1192 C 0.58939 0.62376 0.94752 0.0
C1193 C 0.59968 0.63433 0.96375 0.0
C1194 C 0.56166 0.59635 0.89204 0.0
C1195 C 0.55963 0.57958 0.88854 0.0
C1196 C 0.57367 0.60801 0.9065 0.0
C1197 C 0.5838 0.6031 0.91795 0.0
C1198 C 0.5822 0.58655 0.91391 0.0
C1199 C 0.57027 0.57493 0.89931 0.0
H1200 H 0.03603 0.64794 0.95188 0.0
H1201 H 0.98117 0.61627 0.96841 0.0
H1202 H 0.03134 0.6268 0.9244 0.0
H1203 H 0.97664 0.59508 0.9411 0.0
H1204 H 0.98771 0.55171 0.91341 0.0
H1205 H 0.98937 0.57407 0.93714 0.0
H1206 H 0.01299 0.61374 0.89046 0.0
H1207 H 0.01054 0.5912 0.86614 0.0
C1208 C 0.02295 0.63658 0.94954 0.0
C1209 C 0.009 0.63373 0.9624 0.0
C1210 C 0.02027 0.62455 0.93375 0.0
C1211 C 0.00366 0.60932 0.93074 0.0
C1212 C 0.9896 0.6067 0.94321 0.0
C1213 C 0.9922 0.61887 0.95877 0.0
C1214 C 0.99282 0.56505 0.9079 0.0
C1215 C 0.99898 0.56956 0.88774 0.0
C1216 C 0.99385 0.57788 0.9216 0.0
C1217 C 0.00132 0.59559 0.9156 0.0
C1218 C 0.00729 0.60017 0.89546 0.0
C1219 C 0.00598 0.58726 0.88161 0.0
H1220 H 0.40728 0.37946 0.96921 0.0
H1221 H 0.35841 0.37732 0.95742 0.0
H1222 H 0.42231 0.40376 0.94517 0.0
H1223 H 0.37354 0.40149 0.93286 0.0
H1224 H 0.40905 0.42774 0.87209 0.0
H1225 H 0.3917 0.40447 0.89701 0.0
H1226 H 0.42756 0.43709 0.94467 0.0
H1227 H 0.44467 0.46045 0.91992 0.0
C1228 C 0.39973 0.38411 0.96139 0.0
C1229 C 0.38166 0.37648 0.96518 0.0
C1230 C 0.40836 0.39806 0.94774 0.0
C1231 C 0.39905 0.40445 0.93728 0.0
C1232 C 0.38095 0.39673 0.94078 0.0
C1233 C 0.37235 0.38299 0.95484 0.0
C1234 C 0.41305 0.42996 0.88795 0.0
C1235 C 0.42815 0.44583 0.89415 0.0
C1236 C 0.40312 0.41675 0.90215 0.0
C1237 C 0.40838 0.41906 0.92266 0.0
C1238 C 0.4233 0.43504 0.92891 0.0
C1239 C 0.433 0.44838 0.91481 0.0
H1240 H 0.61256 0.98524 0.97472 0.0
H1241 H 0.64941 0.03407 0.94477 0.0
H1242 H 0.5901 0.98015 0.94957 0.0
H1243 H 0.6271 0.02885 0.91963 0.0
H1244 H 0.58625 0.00672 0.86863 0.0
H1245 H 0.60825 0.00698 0.89116 0.0
H1246 H 0.57417 0.99738 0.94288 0.0
H1247 H 0.55223 0.99721 0.92039 0.0
C1248 C 0.61596 0.99469 0.96256 0.0
C1249 C 0.63271 0.0101 0.96177 0.0
C1250 C 0.60309 0.99182 0.94827 0.0
C1251 C 0.60686 0.00413 0.93271 0.0
C1252 C 0.62386 0.01908 0.93137 0.0
C1253 C 0.6366 0.0221 0.94583 0.0
C1254 C 0.58339 0.00443 0.88477 0.0
C1255 C 0.5676 0.00204 0.8928 0.0
C1256 C 0.59599 0.00465 0.89765 0.0
C1257 C 0.5929 0.00219 0.91874 0.0
C1258 C 0.57683 0.99915 0.92666 0.0
C1259 C 0.56436 0.99921 0.91384 0.0
H1260 H 0.61581 0.98576 0.04943 0.0
H1261 H 0.6494 0.03951 0.07164 0.0
H1262 H 0.59359 0.98141 0.07476 0.0
H1263 H 0.62724 0.03489 0.09733 0.0
H1264 H 0.58657 0.0092 0.15208 0.0
H1265 H 0.61005 0.01193 0.12936 0.0
H1266 H 0.57578 0.99927 0.07753 0.0
H1267 H 0.55259 0.99708 0.10011 0.0
C1268 C 0.61861 0.99652 0.05997 0.0
C1269 C 0.63434 0.01302 0.05848 0.0
C1270 C 0.60586 0.99403 0.07437 0.0
C1271 C 0.60875 0.00783 0.08788 0.0
C1272 C 0.62478 0.02404 0.08709 0.0
C1273 C 0.63739 0.02668 0.07237 0.0
C1274 C 0.58413 0.00695 0.13583 0.0
C1275 C 0.56788 0.00297 0.12774 0.0
C1276 C 0.5975 0.00856 0.1229 0.0
C1277 C 0.59462 0.00573 0.10179 0.0
C1278 C 0.57823 0.00138 0.09379 0.0
C1279 C 0.56504 0.0002 0.10664 0.0
H1280 H 0.98013 0.60995 0.04482 0.0
H1281 H 0.02699 0.64639 0.07843 0.0
H1282 H 0.9742 0.58647 0.069 0.0
H1283 H 0.02089 0.62306 0.10269 0.0
H1284 H 0.9966 0.57966 0.15106 0.0
H1285 H 0.99746 0.60257 0.12933 0.0
H1286 H 0.99208 0.5708 0.07589 0.0
H1287 H 0.99143 0.54802 0.09759 0.0
C1288 C 0.98893 0.61305 0.05761 0.0
C1289 C 0.00407 0.62997 0.0597 0.0
C1290 C 0.9856 0.59959 0.07134 0.0
C1291 C 0.99713 0.60297 0.08765 0.0
C1292 C 0.01174 0.62014 0.09033 0.0
C1293 C 0.01526 0.63345 0.0764 0.0
C1294 C 0.99536 0.5775 0.13469 0.0
C1295 C 0.99402 0.56214 0.12596 0.0
C1296 C 0.99592 0.5906 0.12229 0.0
C1297 C 0.9948 0.58841 0.10096 0.0
C1298 C 0.99279 0.57274 0.0923 0.0
C1299 C 0.99256 0.55979 0.10467 0.0
H1300 H 0.36975 0.3832 0.05606 0.0
H1301 H 0.39001 0.34899 0.06933 0.0
H1302 H 0.38754 0.4033 0.08366 0.0
H1303 H 0.40762 0.36907 0.09705 0.0
H1304 H 0.42705 0.40493 0.15521 0.0
H1305 H 0.40496 0.38288 0.13192 0.0
H1306 H 0.42176 0.42261 0.08536 0.0
H1307 H 0.44433 0.44439 0.10798 0.0
C1308 C 0.3777 0.37977 0.06511 0.0
C1309 C 0.37862 0.3646 0.06037 0.0
C1310 C 0.38792 0.39132 0.08083 0.0
C1311 C 0.39899 0.38775 0.09233 0.0
C1312 C 0.39912 0.37206 0.08844 0.0
C1313 C 0.38912 0.36064 0.07251 0.0
C1314 C 0.42615 0.40897 0.13997 0.0
C1315 C 0.43755 0.42652 0.13355 0.0
C1316 C 0.41341 0.39636 0.12673 0.0
C1317 C 0.41161 0.40113 0.10696 0.0
C1318 C 0.42268 0.41868 0.10067 0.0
C1319 C 0.43559 0.43118 0.11372 0.0
H1320 H 0.68214 0.72218 0.38162 0.0
H1321 H 0.63161 0.68084 0.40335 0.0
H1322 H 0.68331 0.74187 0.40888 0.0
H1323 H 0.63319 0.7 0.43151 0.0
H1324 H 0.62971 0.74505 0.46125 0.0
H1325 H 0.6299 0.724 0.43722 0.0
H1326 H 0.68636 0.75003 0.44296 0.0
H1327 H 0.68633 0.77221 0.46545 0.0
C1328 C 0.67148 0.71718 0.39258 0.0
C1329 C 0.6567 0.70008 0.39027 0.0
C1330 C 0.67217 0.72843 0.40833 0.0
C1331 C 0.65825 0.72268 0.42242 0.0
C1332 C 0.64393 0.70515 0.42067 0.0
C1333 C 0.64306 0.69407 0.40463 0.0
C1334 C 0.64222 0.74649 0.45721 0.0
C1335 C 0.65802 0.76059 0.46516 0.0
C1336 C 0.64231 0.73412 0.44366 0.0
C1337 C 0.65816 0.73521 0.43799 0.0
C1338 C 0.6739 0.74889 0.44659 0.0
C1339 C 0.67386 0.7615 0.45984 0.0
H1340 H 0.30005 0.94783 0.38098 0.0
H1341 H 0.28676 0.98097 0.41691 0.0
H1342 H 0.2849 0.92403 0.40573 0.0
H1343 H 0.27181 0.95724 0.44166 0.0
H1344 H 0.25683 0.91438 0.4896 0.0
H1345 H 0.27727 0.93852 0.46729 0.0
H1346 H 0.2519 0.90527 0.41447 0.0
H1347 H 0.23144 0.88127 0.43672 0.0
C1348 C 0.29419 0.95016 0.39433 0.0
C1349 C 0.29447 0.96623 0.39691 0.0
C1350 C 0.28546 0.93651 0.40842 0.0
C1351 C 0.27715 0.9388 0.42554 0.0
C1352 C 0.27821 0.95517 0.42867 0.0
C1353 C 0.28667 0.96871 0.41443 0.0
C1354 C 0.25584 0.9122 0.47323 0.0
C1355 C 0.24255 0.89605 0.46482 0.0
C1356 C 0.26745 0.926 0.4605 0.0
C1357 C 0.26614 0.92374 0.43918 0.0
C1358 C 0.2533 0.90731 0.43085 0.0
C1359 C 0.24153 0.89365 0.44354 0.0
H1360 H 0.03292 0.29771 0.38878 0.0
H1361 H 0.0453 0.35204 0.3954 0.0
H1362 H 0.05602 0.30358 0.41268 0.0
H1363 H 0.06854 0.35776 0.41994 0.0
H1364 H 0.09234 0.34564 0.48087 0.0
H1365 H 0.07035 0.3441 0.45725 0.0
H1366 H 0.09063 0.32525 0.40948 0.0
H1367 H 0.11301 0.32744 0.43254 0.0
C1368 C 0.04042 0.3109 0.39547 0.0
C1369 C 0.03722 0.32443 0.39005 0.0
C1370 C 0.05375 0.31424 0.40912 0.0
C1371 C 0.06413 0.33113 0.41799 0.0
C1372 C 0.06068 0.34461 0.41325 0.0
C1373 C 0.04743 0.34134 0.39921 0.0
C1374 C 0.09238 0.34153 0.46522 0.0
C1375 C 0.10432 0.33637 0.45877 0.0
C1376 C 0.07976 0.34064 0.45174 0.0
C1377 C 0.07874 0.33441 0.43165 0.0
C1378 C 0.09103 0.32989 0.42499 0.0
C1379 C 0.10374 0.331 0.4383 0.0
H1380 H 0.05225 0.35091 0.30219 0.0
H1381 H 0.02001 0.2961 0.28269 0.0
H1382 H 0.07397 0.35541 0.2762 0.0
H1383 H 0.04176 0.30074 0.25659 0.0
H1384 H 0.07943 0.32218 0.20083 0.0
H1385 H 0.05638 0.31923 0.224 0.0
H1386 H 0.09416 0.34239 0.27285 0.0
H1387 H 0.11703 0.34466 0.25019 0.0
C1388 C 0.04965 0.33989 0.29219 0.0
C1389 C 0.03444 0.32309 0.29463 0.0
C1390 C 0.06214 0.34246 0.27738 0.0
C1391 C 0.05956 0.3284 0.2645 0.0
C1392 C 0.04402 0.31183 0.26628 0.0
C1393 C 0.03163 0.30917 0.28129 0.0
C1394 C 0.08283 0.32651 0.21654 0.0
C1395 C 0.10017 0.33368 0.22356 0.0
C1396 C 0.06963 0.3249 0.22975 0.0
C1397 C 0.07354 0.33068 0.25015 0.0
C1398 C 0.09086 0.3381 0.2571 0.0
C1399 C 0.10398 0.33946 0.24403 0.0
H1400 H 0.64212 0.6886 0.27341 0.0
H1401 H 0.68865 0.72577 0.307 0.0
H1402 H 0.64804 0.71138 0.24871 0.0
H1403 H 0.69421 0.74896 0.28277 0.0
H1404 H 0.7048 0.78519 0.2286 0.0
H1405 H 0.70192 0.76096 0.24932 0.0
H1406 H 0.64543 0.73654 0.24825 0.0
H1407 H 0.64827 0.75991 0.22658 0.0
C1408 C 0.65367 0.70167 0.27546 0.0
C1409 C 0.66481 0.70544 0.29225 0.0
C1410 C 0.65701 0.7148 0.26138 0.0
C1411 C 0.6714 0.73219 0.26393 0.0
C1412 C 0.68306 0.73573 0.28021 0.0
C1413 C 0.67986 0.72245 0.29415 0.0
C1414 C 0.69177 0.77448 0.23253 0.0
C1415 C 0.67678 0.7746 0.22595 0.0
C1416 C 0.69012 0.76068 0.24463 0.0
C1417 C 0.67344 0.74669 0.25048 0.0
C1418 C 0.6585 0.74684 0.2438 0.0
C1419 C 0.66014 0.76049 0.23162 0.0
H1420 H 0.26219 0.97173 0.30773 0.0
H1421 H 0.30571 0.9658 0.28893 0.0
H1422 H 0.24461 0.95233 0.27998 0.0
H1423 H 0.28824 0.94682 0.26047 0.0
H1424 H 0.24427 0.89658 0.22845 0.0
H1425 H 0.26403 0.91796 0.2537 0.0
H1426 H 0.24053 0.94989 0.24444 0.0
H1427 H 0.21992 0.92786 0.22037 0.0
C1428 C 0.26812 0.96649 0.29748 0.0
C1429 C 0.28537 0.97031 0.30061 0.0
C1430 C 0.25804 0.95542 0.28141 0.0
C1431 C 0.26498 0.94802 0.26785 0.0
C1432 C 0.28236 0.95207 0.27077 0.0
C1433 C 0.29241 0.96302 0.28703 0.0
C1434 C 0.24322 0.90809 0.2319 0.0
C1435 C 0.23029 0.91031 0.22253 0.0
C1436 C 0.25476 0.92052 0.24618 0.0
C1437 C 0.25381 0.93562 0.25129 0.0
C1438 C 0.24142 0.93825 0.24122 0.0
C1439 C 0.22975 0.92572 0.22712 0.0
H1440 H 0.7061 0.97244 0.30282 0.0
H1441 H 0.65458 0.96315 0.28851 0.0
H1442 H 0.70366 0.95276 0.27507 0.0
H1443 H 0.6524 0.94387 0.26005 0.0
H1444 H 0.64651 0.89376 0.22837 0.0
H1445 H 0.64849 0.91539 0.25351 0.0
H1446 H 0.70361 0.94942 0.23945 0.0
H1447 H 0.70195 0.92727 0.21554 0.0
C1448 C 0.69434 0.96641 0.29354 0.0
C1449 C 0.68052 0.96936 0.29795 0.0
C1450 C 0.69298 0.95517 0.27747 0.0
C1451 C 0.67786 0.94673 0.26519 0.0
C1452 C 0.66414 0.94994 0.26935 0.0
C1453 C 0.66543 0.96107 0.28561 0.0
C1454 C 0.65909 0.9058 0.23073 0.0
C1455 C 0.6741 0.90861 0.22003 0.0
C1456 C 0.66017 0.91836 0.24496 0.0
C1457 C 0.67626 0.93412 0.2487 0.0
C1458 C 0.69107 0.93728 0.23731 0.0
C1459 C 0.69005 0.92465 0.22329 0.0
H1460 H 0.05145 0.68556 0.27607 0.0
H1461 H 0.03995 0.72158 0.3085 0.0
H1462 H 0.06669 0.70764 0.24982 0.0
H1463 H 0.05596 0.7441 0.28274 0.0
H1464 H 0.0785 0.77874 0.22701 0.0
H1465 H 0.05834 0.75422 0.24877 0.0
H1466 H 0.09372 0.73411 0.24714 0.0
H1467 H 0.11309 0.75773 0.22445 0.0
C1468 C 0.05218 0.69823 0.27756 0.0
C1469 C 0.04468 0.70192 0.29445 0.0
C1470 C 0.06102 0.71095 0.26257 0.0
C1471 C 0.06289 0.72783 0.2643 0.0
C1472 C 0.05469 0.73123 0.28077 0.0
C1473 C 0.04557 0.71835 0.29562 0.0
C1474 C 0.08178 0.76888 0.231 0.0
C1475 C 0.09751 0.77032 0.22409 0.0
C1476 C 0.07032 0.75492 0.24369 0.0
C1477 C 0.07436 0.74213 0.2498 0.0
C1478 C 0.08996 0.74348 0.24256 0.0
C1479 C 0.10128 0.75727 0.22978 0.0
H1480 H 0.30222 0.37384 0.30529 0.0
H1481 H 0.29184 0.32062 0.29419 0.0
H1482 H 0.27953 0.36868 0.28097 0.0
H1483 H 0.26904 0.31558 0.26944 0.0
H1484 H 0.24581 0.32754 0.20963 0.0
H1485 H 0.26739 0.32926 0.23401 0.0
H1486 H 0.24581 0.3477 0.28075 0.0
H1487 H 0.2239 0.3454 0.25685 0.0
C1488 C 0.29519 0.36105 0.29757 0.0
C1489 C 0.29886 0.34763 0.30174 0.0
C1490 C 0.2821 0.35808 0.28372 0.0
C1491 C 0.27247 0.34171 0.27345 0.0
C1492 C 0.27632 0.32834 0.27717 0.0
C1493 C 0.2893 0.33121 0.29136 0.0
C1494 C 0.24544 0.33165 0.2252 0.0
C1495 C 0.23324 0.3366 0.23114 0.0
C1496 C 0.25782 0.33265 0.23912 0.0
C1497 C 0.25835 0.33879 0.25916 0.0
C1498 C 0.24585 0.34319 0.26528 0.0
C1499 C 0.23339 0.34199 0.2515 0.0
H1500 H 0.31789 0.37294 0.40904 0.0
H1501 H 0.28594 0.31839 0.38851 0.0
H1502 H 0.29588 0.36789 0.43492 0.0
H1503 H 0.26394 0.31349 0.4143 0.0
H1504 H 0.2205 0.3243 0.43937 0.0
H1505 H 0.24365 0.32632 0.41738 0.0
H1506 H 0.28064 0.3493 0.46702 0.0
H1507 H 0.25731 0.3466 0.48949 0.0
C1508 C 0.30631 0.35982 0.41021 0.0
C1509 C 0.30364 0.34611 0.39659 0.0
C1510 C 0.29375 0.35693 0.4251 0.0
C1511 C 0.27816 0.34034 0.42649 0.0
C1512 C 0.27578 0.32645 0.41342 0.0
C1513 C 0.28844 0.32925 0.39874 0.0
C1514 C 0.23342 0.32939 0.44585 0.0
C1515 C 0.23694 0.33527 0.46631 0.0
C1516 C 0.24672 0.3306 0.43317 0.0
C1517 C 0.26392 0.33794 0.44051 0.0
C1518 C 0.2675 0.3437 0.46095 0.0
C1519 C 0.25413 0.34224 0.47375 0.0
H1520 H 0.69418 0.98116 0.41275 0.0
H1521 H 0.64617 0.94508 0.38076 0.0
H1522 H 0.68848 0.95801 0.43677 0.0
H1523 H 0.64066 0.9216 0.40466 0.0
H1524 H 0.63156 0.8873 0.46203 0.0
H1525 H 0.63418 0.91078 0.43989 0.0
H1526 H 0.68993 0.93149 0.4342 0.0
H1527 H 0.68733 0.90831 0.45626 0.0
C1528 C 0.68233 0.96828 0.41091 0.0
C1529 C 0.67075 0.9649 0.39467 0.0
C1530 C 0.67912 0.95496 0.42462 0.0
C1531 C 0.66432 0.93782 0.42238 0.0
C1532 C 0.65218 0.93466 0.40683 0.0
C1533 C 0.65534 0.94811 0.39313 0.0
C1534 C 0.64434 0.89685 0.45593 0.0
C1535 C 0.65928 0.89609 0.46111 0.0
C1536 C 0.64584 0.91028 0.44326 0.0
C1537 C 0.66231 0.9232 0.43552 0.0
C1538 C 0.67712 0.9221 0.44034 0.0
C1539 C 0.67563 0.90877 0.45298 0.0
H1540 H 0.0394 0.71732 0.38796 0.0
H1541 H 0.06083 0.68433 0.40231 0.0
H1542 H 0.05702 0.73807 0.4152 0.0
H1543 H 0.07825 0.70503 0.42968 0.0
H1544 H 0.09517 0.74044 0.48829 0.0
H1545 H 0.0742 0.71823 0.46424 0.0
H1546 H 0.09115 0.75825 0.41804 0.0
H1547 H 0.11266 0.78026 0.44146 0.0
C1548 C 0.04764 0.71434 0.39711 0.0
C1549 C 0.04884 0.69925 0.39287 0.0
C1550 C 0.05775 0.72625 0.41262 0.0
C1551 C 0.06899 0.72313 0.42443 0.0
C1552 C 0.06959 0.70766 0.42084 0.0
C1553 C 0.05971 0.69589 0.40511 0.0
C1554 C 0.09456 0.74451 0.47297 0.0
C1555 C 0.10568 0.76222 0.46689 0.0
C1556 C 0.08246 0.7318 0.45928 0.0
C1557 C 0.08103 0.7366 0.43939 0.0
C1558 C 0.09182 0.75429 0.43342 0.0
C1559 C 0.10409 0.76692 0.44693 0.0
H1560 H 0.3029 0.0176 0.74167 0.0
H1561 H 0.35473 0.05538 0.71914 0.0
H1562 H 0.3063 0.03856 0.76882 0.0
H1563 H 0.3579 0.07639 0.74609 0.0
H1564 H 0.33736 0.11343 0.77254 0.0
H1565 H 0.33859 0.0917 0.74984 0.0
H1566 H 0.32728 0.05679 0.80073 0.0
H1567 H 0.32649 0.07885 0.82362 0.0
C1568 C 0.31511 0.03025 0.74271 0.0
C1569 C 0.32849 0.0349 0.72818 0.0
C1570 C 0.31707 0.04218 0.75829 0.0
C1571 C 0.33231 0.05906 0.75939 0.0
C1572 C 0.346 0.06344 0.74546 0.0
C1573 C 0.34419 0.05139 0.73012 0.0
C1574 C 0.33534 0.10119 0.77886 0.0
C1575 C 0.3318 0.0977 0.79971 0.0
C1576 C 0.33615 0.08885 0.76595 0.0
C1577 C 0.3331 0.07266 0.77362 0.0
C1578 C 0.32971 0.06922 0.79454 0.0
C1579 C 0.32928 0.08177 0.80756 0.0
H1580 H 0.94413 0.31131 0.73847 0.0
H1581 H 0.96275 0.27937 0.70985 0.0
H1582 H 0.92842 0.28846 0.76372 0.0
H1583 H 0.94643 0.2561 0.73479 0.0
H1584 H 0.92574 0.2237 0.79365 0.0
H1585 H 0.94392 0.24742 0.7698 0.0
H1586 H 0.90292 0.25991 0.76515 0.0
H1587 H 0.88511 0.23663 0.78923 0.0
C1588 C 0.94483 0.29937 0.73753 0.0
C1589 C 0.95458 0.29711 0.72202 0.0
C1590 C 0.93572 0.28619 0.75196 0.0
C1591 C 0.9359 0.27027 0.75115 0.0
C1592 C 0.94608 0.26822 0.73599 0.0
C1593 C 0.95539 0.28154 0.72164 0.0
C1594 C 0.92067 0.23154 0.78746 0.0
C1595 C 0.90409 0.22843 0.79345 0.0
C1596 C 0.93105 0.24509 0.77376 0.0
C1597 C 0.92499 0.25573 0.76565 0.0
C1598 C 0.90825 0.25234 0.77145 0.0
C1599 C 0.89799 0.23894 0.78523 0.0
H1600 H 0.68982 0.63791 0.74279 0.0
H1601 H 0.72224 0.68915 0.71508 0.0
H1602 H 0.71247 0.64523 0.76806 0.0
H1603 H 0.74505 0.69655 0.74067 0.0
H1604 H 0.78812 0.68744 0.77063 0.0
H1605 H 0.76552 0.68557 0.74799 0.0
H1606 H 0.72792 0.66502 0.79731 0.0
H1607 H 0.7505 0.66704 0.82001 0.0
C1608 C 0.70171 0.65085 0.74224 0.0
C1609 C 0.70425 0.6629 0.72682 0.0
C1610 C 0.71467 0.6551 0.75685 0.0
C1611 C 0.73058 0.67146 0.75637 0.0
C1612 C 0.73296 0.68378 0.74134 0.0
C1613 C 0.71986 0.67959 0.72678 0.0
C1614 C 0.77514 0.68289 0.77678 0.0
C1615 C 0.77107 0.67716 0.79708 0.0
C1616 C 0.76219 0.68184 0.76379 0.0
C1617 C 0.74489 0.67498 0.7708 0.0
C1618 C 0.74105 0.67007 0.79136 0.0
C1619 C 0.75398 0.67117 0.80434 0.0
H1620 H 0.68311 0.62873 0.616 0.0
H1621 H 0.72098 0.68117 0.63845 0.0
H1622 H 0.7032 0.63166 0.58875 0.0
H1623 H 0.74163 0.68374 0.61218 0.0
H1624 H 0.7732 0.68931 0.55645 0.0
H1625 H 0.75027 0.68736 0.57857 0.0
H1626 H 0.72823 0.6307 0.58329 0.0
H1627 H 0.74998 0.63239 0.5595 0.0
C1628 C 0.69578 0.64088 0.6151 0.0
C1629 C 0.70051 0.6547 0.62936 0.0
C1630 C 0.70741 0.64253 0.59958 0.0
C1631 C 0.72425 0.65786 0.59827 0.0
C1632 C 0.72874 0.67184 0.61234 0.0
C1633 C 0.71693 0.67035 0.62754 0.0
C1634 C 0.76322 0.67634 0.56174 0.0
C1635 C 0.76363 0.66102 0.55614 0.0
C1636 C 0.75017 0.67527 0.57482 0.0
C1637 C 0.73736 0.65889 0.58303 0.0
C1638 C 0.73763 0.64355 0.57716 0.0
C1639 C 0.75043 0.64457 0.56375 0.0
H1640 H 0.30347 0.04033 0.63587 0.0
H1641 H 0.35594 0.04997 0.6266 0.0
H1642 H 0.30979 0.06435 0.61286 0.0
H1643 H 0.36215 0.07409 0.60322 0.0
H1644 H 0.35328 0.10047 0.54446 0.0
H1645 H 0.35024 0.07758 0.56779 0.0
H1646 H 0.33094 0.09829 0.61464 0.0
H1647 H 0.33453 0.12152 0.59179 0.0
C1648 C 0.31633 0.04748 0.62882 0.0
C1649 C 0.32921 0.04321 0.63314 0.0
C1650 C 0.31996 0.06133 0.61574 0.0
C1651 C 0.33649 0.07115 0.6064 0.0
C1652 C 0.3493 0.06669 0.61023 0.0
C1653 C 0.34575 0.05295 0.62364 0.0
C1654 C 0.34874 0.1004 0.55986 0.0
C1655 C 0.34393 0.11275 0.56612 0.0
C1656 C 0.34696 0.08725 0.57318 0.0
C1657 C 0.34016 0.08606 0.5929 0.0
C1658 C 0.33594 0.09873 0.59939 0.0
C1659 C 0.33791 0.11198 0.58622 0.0
H1660 H 0.94618 0.32232 0.61387 0.0
H1661 H 0.96257 0.28536 0.62916 0.0
H1662 H 0.92923 0.30331 0.58534 0.0
H1663 H 0.94494 0.26586 0.60122 0.0
H1664 H 0.91856 0.23785 0.54207 0.0
H1665 H 0.93993 0.26016 0.56577 0.0
H1666 H 0.90269 0.27631 0.58141 0.0
H1667 H 0.88181 0.25456 0.55733 0.0
C1668 C 0.94618 0.31013 0.61109 0.0
C1669 C 0.95556 0.30525 0.62388 0.0
C1670 C 0.93636 0.29915 0.59481 0.0
C1671 C 0.93542 0.28285 0.59113 0.0
C1672 C 0.94544 0.27836 0.60342 0.0
C1673 C 0.95551 0.28951 0.61953 0.0
C1674 C 0.91508 0.24631 0.55052 0.0
C1675 C 0.89858 0.24455 0.54782 0.0
C1676 C 0.92727 0.25904 0.56414 0.0
C1677 C 0.9231 0.27011 0.57553 0.0
C1678 C 0.9066 0.26837 0.5726 0.0
C1679 C 0.89455 0.25583 0.55884 0.0
H1680 H 0.37465 0.31093 0.62677 0.0
H1681 H 0.32149 0.29923 0.61818 0.0
H1682 H 0.3712 0.2914 0.59851 0.0
H1683 H 0.31825 0.28012 0.58901 0.0
H1684 H 0.31206 0.22948 0.55808 0.0
H1685 H 0.31481 0.25209 0.58212 0.0
H1686 H 0.36877 0.28645 0.56345 0.0
H1687 H 0.36652 0.26331 0.54086 0.0
C1688 C 0.36231 0.30448 0.61856 0.0
C1689 C 0.34831 0.3066 0.62486 0.0
C1690 C 0.36036 0.29331 0.60216 0.0
C1691 C 0.34443 0.28412 0.59134 0.0
C1692 C 0.33061 0.28674 0.59716 0.0
C1693 C 0.3325 0.29778 0.61381 0.0
C1694 C 0.32457 0.2418 0.55919 0.0
C1695 C 0.33914 0.24433 0.5477 0.0
C1696 C 0.32606 0.25495 0.57277 0.0
C1697 C 0.3421 0.27109 0.575 0.0
C1698 C 0.35633 0.27404 0.56256 0.0
C1699 C 0.35493 0.2608 0.54926 0.0
H1700 H 0.73535 0.03165 0.62435 0.0
H1701 H 0.69504 0.04537 0.62625 0.0
H1702 H 0.75225 0.05562 0.60058 0.0
H1703 H 0.71207 0.06935 0.60205 0.0
H1704 H 0.74341 0.09642 0.54021 0.0
H1705 H 0.72429 0.07265 0.56357 0.0
H1706 H 0.76749 0.0902 0.60547 0.0
H1707 H 0.7864 0.11437 0.58281 0.0
C1708 C 0.72997 0.03963 0.61954 0.0
C1709 C 0.71385 0.03661 0.62729 0.0
C1710 C 0.73973 0.05342 0.60601 0.0
C1711 C 0.7335 0.06437 0.59964 0.0
C1712 C 0.71712 0.06105 0.60675 0.0
C1713 C 0.70744 0.04739 0.62062 0.0
C1714 C 0.74877 0.09545 0.55457 0.0
C1715 C 0.76656 0.10724 0.55945 0.0
C1716 C 0.73782 0.08179 0.56787 0.0
C1717 C 0.74451 0.07952 0.58615 0.0
C1718 C 0.7621 0.09151 0.59128 0.0
C1719 C 0.77295 0.10528 0.5782 0.0
H1720 H 0.96119 0.70201 0.64164 0.0
H1721 H 0.96094 0.65448 0.6229 0.0
H1722 H 0.93816 0.69534 0.61698 0.0
H1723 H 0.93798 0.64807 0.59767 0.0
H1724 H 0.91503 0.66398 0.53936 0.0
H1725 H 0.93686 0.66676 0.56427 0.0
H1726 H 0.90465 0.66785 0.61329 0.0
H1727 H 0.88274 0.66476 0.58853 0.0
C1728 C 0.9563 0.69019 0.63215 0.0
C1729 C 0.96292 0.67878 0.63419 0.0
C1730 C 0.94305 0.68634 0.61813 0.0
C1731 C 0.93631 0.6712 0.60553 0.0
C1732 C 0.94302 0.65985 0.60726 0.0
C1733 C 0.95607 0.66349 0.62169 0.0
C1734 C 0.91257 0.66461 0.55548 0.0
C1735 C 0.89724 0.66418 0.56206 0.0
C1736 C 0.92497 0.66608 0.56968 0.0
C1737 C 0.92238 0.66753 0.59062 0.0
C1738 C 0.90691 0.66676 0.5972 0.0
C1739 C 0.89438 0.66494 0.58307 0.0
H1740 H 0.98536 0.70606 0.7432 0.0
H1741 H 0.94876 0.65422 0.7179 0.0
H1742 H 0.96352 0.70227 0.76889 0.0
H1743 H 0.92686 0.65072 0.74328 0.0
H1744 H 0.88928 0.67053 0.76935 0.0
H1745 H 0.91192 0.67124 0.74701 0.0
H1746 H 0.94415 0.67882 0.79952 0.0
H1747 H 0.92121 0.67761 0.82197 0.0
C1748 C 0.97276 0.69378 0.7433 0.0
C1749 C 0.96876 0.68046 0.72851 0.0
C1750 C 0.96032 0.69161 0.75801 0.0
C1751 C 0.94355 0.67626 0.7579 0.0
C1752 C 0.93972 0.66269 0.74358 0.0
C1753 C 0.95228 0.66468 0.72916 0.0
C1754 C 0.90117 0.67226 0.77607 0.0
C1755 C 0.90359 0.67404 0.79728 0.0
C1756 C 0.91403 0.67256 0.76336 0.0
C1757 C 0.92967 0.67501 0.77163 0.0
C1758 C 0.93216 0.67689 0.79285 0.0
C1759 C 0.91909 0.67617 0.80562 0.0
H1760 H 0.31637 0.28995 0.72845 0.0
H1761 H 0.36602 0.2947 0.71324 0.0
H1762 H 0.31091 0.26728 0.75363 0.0
H1763 H 0.36034 0.27177 0.73735 0.0
H1764 H 0.35706 0.2462 0.79631 0.0
H1765 H 0.36027 0.26837 0.77249 0.0
H1766 H 0.30466 0.23766 0.75948 0.0
H1767 H 0.30116 0.21597 0.7848 0.0
C1768 C 0.326 0.28602 0.73033 0.0
C1769 C 0.34175 0.29432 0.71912 0.0
C1770 C 0.32286 0.27298 0.74467 0.0
C1771 C 0.33533 0.26787 0.74785 0.0
C1772 C 0.35069 0.27573 0.73592 0.0
C1773 C 0.35391 0.28885 0.72193 0.0
C1774 C 0.34538 0.24426 0.78879 0.0
C1775 C 0.32882 0.22921 0.79266 0.0
C1776 C 0.34729 0.25689 0.77474 0.0
C1777 C 0.33278 0.25474 0.76372 0.0
C1778 C 0.31614 0.23983 0.76771 0.0
C1779 C 0.31417 0.22724 0.78205 0.0
H1780 H 0.70069 0.04129 0.73032 0.0
H1781 H 0.73627 0.02212 0.71932 0.0
H1782 H 0.72026 0.06116 0.75717 0.0
H1783 H 0.75561 0.04192 0.74593 0.0
H1784 H 0.79561 0.09742 0.77131 0.0
H1785 H 0.77423 0.07595 0.74736 0.0
H1786 H 0.73335 0.05996 0.79258 0.0
H1787 H 0.75493 0.0811 0.81707 0.0
C1788 C 0.71256 0.04118 0.73371 0.0
C1789 C 0.71697 0.0302 0.72253 0.0
C1790 C 0.72368 0.05249 0.74913 0.0
C1791 C 0.73948 0.05315 0.75343 0.0
C1792 C 0.7436 0.0418 0.74272 0.0
C1793 C 0.73245 0.0304 0.72753 0.0
C1794 C 0.78216 0.08916 0.77637 0.0
C1795 C 0.77707 0.09086 0.79625 0.0
C1796 C 0.76989 0.07693 0.76257 0.0
C1797 C 0.7522 0.06625 0.76821 0.0
C1798 C 0.74693 0.06813 0.78788 0.0
C1799 C 0.75928 0.08025 0.80184 0.0
H1800 H 0.06556 0.36582 0.02195 0.0
H1801 H 0.02484 0.32027 0.05376 0.0
H1802 H 0.08785 0.36433 0.04211 0.0
H1803 H 0.04687 0.31909 0.07412 0.0
H1804 H 0.08975 0.30994 0.09408 0.0
H1805 H 0.0692 0.31176 0.07147 0.0
H1806 H 0.09934 0.36902 0.07645 0.0
H1807 H 0.12048 0.36722 0.0982 0.0
C1808 C 0.06138 0.35555 0.03327 0.0
C1809 C 0.04346 0.34313 0.0362 0.0
C1810 C 0.07412 0.35474 0.04488 0.0
C1811 C 0.06917 0.34152 0.05967 0.0
C1812 C 0.05121 0.32921 0.06261 0.0
C1813 C 0.03855 0.32998 0.05099 0.0
C1814 C 0.09219 0.32294 0.09011 0.0
C1815 C 0.10676 0.33843 0.09806 0.0
C1816 C 0.08026 0.32398 0.07733 0.0
C1817 C 0.08251 0.34054 0.07226 0.0
C1818 C 0.09726 0.35605 0.0799 0.0
C1819 C 0.10925 0.35501 0.09263 0.0
H1820 H 0.65368 0.70673 0.02611 0.0
H1821 H 0.69001 0.69957 0.06219 0.0
H1822 H 0.65879 0.73161 0.04793 0.0
H1823 H 0.69513 0.72466 0.08419 0.0
H1824 H 0.67952 0.75592 0.13086 0.0
H1825 H 0.67736 0.73182 0.10935 0.0
H1826 H 0.68372 0.76243 0.05563 0.0
H1827 H 0.68561 0.78633 0.07702 0.0
C1828 C 0.66279 0.7105 0.0387 0.0
C1829 C 0.67147 0.70123 0.04244 0.0
C1830 C 0.6658 0.72482 0.05111 0.0
C1831 C 0.67744 0.73013 0.06766 0.0
C1832 C 0.68605 0.72079 0.07156 0.0
C1833 C 0.68317 0.70651 0.05895 0.0
C1834 C 0.68052 0.75749 0.11446 0.0
C1835 C 0.68265 0.77296 0.1056 0.0
C1836 C 0.67944 0.74379 0.10219 0.0
C1837 C 0.68027 0.74524 0.08084 0.0
C1838 C 0.68287 0.7609 0.07204 0.0
C1839 C 0.6841 0.77463 0.08429 0.0
H1840 H 0.3051 0.98705 0.06014 0.0
H1841 H 0.29641 0.94478 0.01832 0.0
H1842 H 0.281 0.96566 0.08151 0.0
H1843 H 0.27239 0.92336 0.03979 0.0
H1844 H 0.21824 0.89454 0.0711 0.0
H1845 H 0.24242 0.91606 0.04989 0.0
H1846 H 0.27379 0.94033 0.10388 0.0
H1847 H 0.24947 0.91906 0.12511 0.0
C1848 C 0.29808 0.97318 0.05555 0.0
C1849 C 0.30261 0.96758 0.03754 0.0
C1850 C 0.28434 0.96093 0.06784 0.0
C1851 C 0.27478 0.94284 0.06231 0.0
C1852 C 0.27938 0.93725 0.04432 0.0
C1853 C 0.29319 0.94949 0.0321 0.0
C1854 C 0.23025 0.90456 0.07843 0.0
C1855 C 0.23196 0.90511 0.09977 0.0
C1856 C 0.24415 0.91676 0.06628 0.0
C1857 C 0.26002 0.92986 0.07521 0.0
C1858 C 0.26168 0.93048 0.09656 0.0
C1859 C 0.24782 0.91821 0.1087 0.0
H1860 H 0.36439 0.05848 0.99239 0.0
H1861 H 0.31685 0.0187 0.96229 0.0
H1862 H 0.36355 0.08167 0.97281 0.0
H1863 H 0.31597 0.04159 0.94314 0.0
H1864 H 0.32975 0.08335 0.89562 0.0
H1865 H 0.33284 0.06201 0.91562 0.0
H1866 H 0.34518 0.09579 0.96901 0.0
H1867 H 0.34192 0.11719 0.94898 0.0
C1868 C 0.35378 0.0547 0.98168 0.0
C1869 C 0.34075 0.03675 0.97884 0.0
C1870 C 0.35326 0.06795 0.97054 0.0
C1871 C 0.33978 0.06343 0.95628 0.0
C1872 C 0.32671 0.0455 0.9537 0.0
C1873 C 0.32717 0.03237 0.96482 0.0
C1874 C 0.33298 0.0862 0.91165 0.0
C1875 C 0.33537 0.1019 0.92072 0.0
C1876 C 0.33482 0.07399 0.92311 0.0
C1877 C 0.33913 0.07715 0.94395 0.0
C1878 C 0.342 0.09305 0.95295 0.0
C1879 C 0.3401 0.10529 0.94147 0.0
H1880 H 0.95393 0.30395 0.98943 0.0
H1881 H 0.99577 0.30347 0.9558 0.0
H1882 H 0.93231 0.27972 0.96811 0.0
H1883 H 0.97402 0.27924 0.9342 0.0
H1884 H 0.92849 0.22214 0.91826 0.0
H1885 H 0.95119 0.24745 0.93758 0.0
H1886 H 0.92161 0.27383 0.93284 0.0
H1887 H 0.89898 0.2486 0.91345 0.0
C1888 C 0.95851 0.29873 0.97739 0.0
C1889 C 0.97654 0.30558 0.97429 0.0
C1890 C 0.94612 0.28491 0.96509 0.0
C1891 C 0.95146 0.27759 0.94945 0.0
C1892 C 0.96951 0.2845 0.94627 0.0
C1893 C 0.98195 0.29842 0.95855 0.0
C1894 C 0.92694 0.23343 0.92113 0.0
C1895 C 0.91188 0.23331 0.91443 0.0
C1896 C 0.93994 0.24793 0.93219 0.0
C1897 C 0.93814 0.2626 0.9368 0.0
C1898 C 0.92323 0.2626 0.92981 0.0
C1899 C 0.91025 0.24813 0.91874 0.0
H1900 H 0.70168 0.64834 0.9996 0.0
H1901 H 0.68744 0.67074 0.95068 0.0
H1902 H 0.725 0.64952 0.97867 0.0
H1903 H 0.70969 0.67057 0.9289 0.0
H1904 H 0.76169 0.68539 0.90076 0.0
H1905 H 0.73881 0.68427 0.922 0.0
H1906 H 0.73306 0.63817 0.95236 0.0
H1907 H 0.75747 0.64071 0.93294 0.0
C1908 C 0.70337 0.65319 0.98416 0.0
C1909 C 0.69289 0.65953 0.97674 0.0
C1910 C 0.71667 0.65376 0.97202 0.0
C1911 C 0.71943 0.66018 0.95192 0.0
C1912 C 0.70844 0.666 0.9444 0.0
C1913 C 0.69552 0.66595 0.95679 0.0
C1914 C 0.75589 0.67524 0.91227 0.0
C1915 C 0.76171 0.66324 0.91507 0.0
C1916 C 0.74236 0.67434 0.92425 0.0
C1917 C 0.73384 0.66107 0.93902 0.0
C1918 C 0.73941 0.64883 0.9415 0.0
C1919 C 0.75328 0.65005 0.92994 0.0
H1920 H 0.93883 0.63537 0.99377 0.0
H1921 H 0.97853 0.68454 0.96679 0.0
H1922 H 0.91642 0.63585 0.97271 0.0
H1923 H 0.95629 0.68516 0.94617 0.0
H1924 H 0.91624 0.67101 0.89602 0.0
H1925 H 0.93754 0.66916 0.91734 0.0
H1926 H 0.90139 0.65265 0.96814 0.0
H1927 H 0.88003 0.65452 0.94677 0.0
C1928 C 0.94275 0.6463 0.98345 0.0
C1929 C 0.96046 0.65987 0.9819 0.0
C1930 C 0.92993 0.64662 0.97145 0.0
C1931 C 0.93459 0.66048 0.95764 0.0
C1932 C 0.95228 0.67412 0.95635 0.0
C1933 C 0.96503 0.67381 0.9683 0.0
C1934 C 0.91287 0.66711 0.91178 0.0
C1935 C 0.89646 0.66302 0.91971 0.0
C1936 C 0.92508 0.66603 0.924 0.0
C1937 C 0.92121 0.66085 0.94449 0.0
C1938 C 0.9047 0.65648 0.95236 0.0
C1939 C 0.89247 0.65757 0.94011 0.0
H1940 H 0.31261 0.30422 0.95757 0.0
H1941 H 0.35575 0.30472 0.98822 0.0
H1942 H 0.31007 0.2809 0.93428 0.0
H1943 H 0.35316 0.28154 0.96518 0.0
H1944 H 0.35549 0.25255 0.90921 0.0
H1945 H 0.35774 0.2775 0.92866 0.0
H1946 H 0.30144 0.24876 0.93674 0.0
H1947 H 0.29916 0.22365 0.91735 0.0
C1948 C 0.32158 0.29941 0.95927 0.0
C1949 C 0.33437 0.30627 0.97469 0.0
C1950 C 0.32007 0.28604 0.94602 0.0
C1951 C 0.33146 0.27947 0.94788 0.0
C1952 C 0.34436 0.28652 0.96318 0.0
C1953 C 0.34577 0.29973 0.97646 0.0
C1954 C 0.34359 0.25153 0.91518 0.0
C1955 C 0.32717 0.23603 0.91202 0.0
C1956 C 0.34488 0.26583 0.92625 0.0
C1957 C 0.32978 0.265 0.93437 0.0
C1958 C 0.31328 0.24981 0.93052 0.0
C1959 C 0.31198 0.23544 0.91945 0.0
H1960 H 0.70163 0.05478 0.99444 0.0
H1961 H 0.70055 0.01158 0.96075 0.0
H1962 H 0.72601 0.07608 0.97347 0.0
H1963 H 0.7253 0.03287 0.94011 0.0
H1964 H 0.75831 0.07621 0.89385 0.0
H1965 H 0.73335 0.05474 0.9141 0.0
H1966 H 0.75667 0.08724 0.96807 0.0
H1967 H 0.78146 0.10876 0.94774 0.0
C1968 C 0.70665 0.04984 0.98258 0.0
C1969 C 0.69919 0.03151 0.97926 0.0
C1970 C 0.72071 0.06205 0.97064 0.0
C1971 C 0.72771 0.05622 0.95514 0.0
C1972 C 0.72012 0.03784 0.95173 0.0
C1973 C 0.70599 0.02563 0.96363 0.0
C1974 C 0.75814 0.07868 0.91007 0.0
C1975 C 0.77184 0.0942 0.91919 0.0
C1976 C 0.74385 0.06637 0.92169 0.0
C1977 C 0.74295 0.06926 0.94273 0.0
C1978 C 0.75675 0.08473 0.95184 0.0
C1979 C 0.77099 0.09707 0.94021 0.0
H1980 H 0.68825 0.97677 0.04008 0.0
H1981 H 0.63166 0.94474 0.03726 0.0
H1982 H 0.68905 0.95337 0.05885 0.0
H1983 H 0.63249 0.92146 0.05676 0.0
H1984 H 0.64979 0.90334 0.11825 0.0
H1985 H 0.6461 0.9234 0.09638 0.0
H1986 H 0.6776 0.91788 0.0498 0.0
H1987 H 0.68042 0.89685 0.07088 0.0
C1988 C 0.67598 0.9647 0.04348 0.0
C1989 C 0.65988 0.96254 0.03724 0.0
C1990 C 0.67646 0.95133 0.05413 0.0
C1991 C 0.66084 0.93569 0.05919 0.0
C1992 C 0.6447 0.93345 0.05299 0.0
C1993 C 0.64423 0.94669 0.04182 0.0
C1994 C 0.65558 0.90594 0.10316 0.0
C1995 C 0.66549 0.8984 0.09649 0.0
C1996 C 0.6535 0.91752 0.0907 0.0
C1997 C 0.66158 0.92212 0.07148 0.0
C1998 C 0.67132 0.91455 0.06464 0.0
C1999 C 0.67308 0.90266 0.07687 0.0
H2000 H 0.00901 0.69677 0.06527 0.0
H2001 H 0.05031 0.70344 0.02428 0.0
H2002 H 0.03074 0.72135 0.08653 0.0
H2003 H 0.07193 0.72789 0.04548 0.0
H2004 H 0.07888 0.75292 0.12979 0.0
H2005 H 0.05643 0.72838 0.10914 0.0
H2006 H 0.07949 0.75875 0.05457 0.0
H2007 H 0.10204 0.78314 0.07515 0.0
C2008 C 0.02271 0.70346 0.06083 0.0
C2009 C 0.02796 0.69823 0.0431 0.0
C2010 C 0.03514 0.71746 0.07304 0.0
C2011 C 0.05301 0.72659 0.0676 0.0
C2012 C 0.05823 0.72127 0.04991 0.0
C2013 C 0.04585 0.7072 0.03783 0.0
C2014 C 0.07915 0.75431 0.11338 0.0
C2015 C 0.09223 0.76992 0.10406 0.0
C2016 C 0.06623 0.74034 0.10159 0.0
C2017 C 0.06625 0.74164 0.08025 0.0
C2018 C 0.07925 0.75731 0.07097 0.0
C2019 C 0.09206 0.77133 0.08276 0.0
H2020 H 0.31642 0.37026 0.04162 0.0
H2021 H 0.28958 0.31303 0.04117 0.0
H2022 H 0.29378 0.36919 0.06397 0.0
H2023 H 0.26636 0.31175 0.0623 0.0
H2024 H 0.2368 0.31411 0.11723 0.0
H2025 H 0.26001 0.31608 0.09524 0.0
H2026 H 0.26508 0.36277 0.0671 0.0
H2027 H 0.24262 0.36125 0.09016 0.0
C2028 C 0.30549 0.35745 0.04604 0.0
C2029 C 0.30477 0.34174 0.03981 0.0
C2030 C 0.29243 0.35679 0.05878 0.0
C2031 C 0.27819 0.34036 0.06518 0.0
C2032 C 0.2773 0.32467 0.05827 0.0
C2033 C 0.29054 0.32536 0.04596 0.0
C2034 C 0.243 0.32479 0.10636 0.0
C2035 C 0.23805 0.33754 0.10533 0.0
C2036 C 0.2562 0.32589 0.0936 0.0
C2037 C 0.26443 0.33953 0.07916 0.0
C2038 C 0.25933 0.35226 0.07819 0.0
C2039 C 0.24639 0.35137 0.09129 0.0
H2040 H 0.73004 0.7017 0.35995 0.0
H2041 H 0.6904 0.65284 0.38759 0.0
H2042 H 0.75267 0.70078 0.38009 0.0
H2043 H 0.71278 0.6521 0.40779 0.0
H2044 H 0.75836 0.64551 0.42479 0.0
H2045 H 0.7371 0.64722 0.40323 0.0
H2046 H 0.76259 0.70356 0.41568 0.0
H2047 H 0.78391 0.70185 0.4373 0.0
C2048 C 0.72616 0.69081 0.37033 0.0
C2049 C 0.70845 0.67733 0.37213 0.0
C2050 C 0.73909 0.69032 0.38193 0.0
C2051 C 0.73454 0.6763 0.39546 0.0
C2052 C 0.7168 0.66291 0.39726 0.0
C2053 C 0.70394 0.66341 0.38575 0.0
C2054 C 0.75937 0.65824 0.42305 0.0
C2055 C 0.77277 0.67351 0.43289 0.0
C2056 C 0.7472 0.65924 0.41067 0.0
C2057 C 0.74809 0.67552 0.40781 0.0
C2058 C 0.76166 0.69086 0.41736 0.0
C2059 C 0.77386 0.68987 0.42977 0.0
H2060 H 0.3179 0.03722 0.36392 0.0
H2061 H 0.35862 0.03443 0.39618 0.0
H2062 H 0.32079 0.06018 0.38743 0.0
H2063 H 0.36136 0.05747 0.42012 0.0
H2064 H 0.37268 0.11336 0.44286 0.0
H2065 H 0.3709 0.08962 0.42106 0.0
H2066 H 0.31426 0.06262 0.42305 0.0
H2067 H 0.316 0.08653 0.44403 0.0
C2068 C 0.32745 0.04147 0.37611 0.0
C2069 C 0.33799 0.03397 0.37825 0.0
C2070 C 0.32902 0.05458 0.38968 0.0
C2071 C 0.34117 0.06052 0.40577 0.0
C2072 C 0.35193 0.0532 0.40781 0.0
C2073 C 0.35032 0.03999 0.39418 0.0
C2074 C 0.35986 0.10235 0.4386 0.0
C2075 C 0.34449 0.10189 0.44511 0.0
C2076 C 0.35885 0.08868 0.4263 0.0
C2077 C 0.34245 0.07433 0.42021 0.0
C2078 C 0.32711 0.07363 0.42723 0.0
C2079 C 0.32811 0.08725 0.43948 0.0
H2080 H 0.9719 0.28253 0.36469 0.0
H2081 H 0.96247 0.32409 0.38401 0.0
H2082 H 0.94676 0.26114 0.38449 0.0
H2083 H 0.93655 0.30256 0.40282 0.0
H2084 H 0.90047 0.26279 0.45034 0.0
H2085 H 0.92606 0.28483 0.43129 0.0
H2086 H 0.91654 0.24478 0.38549 0.0
H2087 H 0.89175 0.22272 0.40544 0.0
C2088 C 0.96431 0.28704 0.37304 0.0
C2089 C 0.96912 0.30495 0.37283 0.0
C2090 C 0.94974 0.27474 0.38428 0.0
C2091 C 0.93937 0.27997 0.39521 0.0
C2092 C 0.94429 0.29799 0.39493 0.0
C2093 C 0.95911 0.31036 0.38404 0.0
C2094 C 0.90392 0.25886 0.43614 0.0
C2095 C 0.89428 0.24119 0.42925 0.0
C2096 C 0.91851 0.27146 0.42512 0.0
C2097 C 0.92355 0.26668 0.40678 0.0
C2098 C 0.91344 0.24896 0.39974 0.0
C2099 C 0.8991 0.23633 0.411 0.0
H2100 H 0.99177 0.3563 0.29276 0.0
H2101 H 0.03191 0.39555 0.33266 0.0
H2102 H 0.9929 0.37975 0.27242 0.0
H2103 H 0.03295 0.41924 0.31211 0.0
H2104 H 0.01067 0.45257 0.28215 0.0
H2105 H 0.01215 0.43066 0.3034 0.0
H2106 H 0.01475 0.4036 0.24914 0.0
H2107 H 0.01314 0.42532 0.22796 0.0
C2108 C 1.00085 0.36996 0.29722 0.0
C2109 C 0.01177 0.37407 0.31434 0.0
C2110 C 0.00156 0.38341 0.28545 0.0
C2111 C 0.01308 0.40132 0.2906 0.0
C2112 C 0.02391 0.40552 0.30785 0.0
C2113 C 0.02337 0.39199 0.31954 0.0
C2114 C 0.01159 0.44194 0.2748 0.0
C2115 C 0.01172 0.44062 0.25339 0.0
C2116 C 0.0126 0.42952 0.28695 0.0
C2117 C 0.01351 0.4154 0.27791 0.0
C2118 C 0.01393 0.41427 0.25652 0.0
C2119 C 0.01312 0.42677 0.2444 0.0
H2120 H 0.61929 0.63411 0.32621 0.0
H2121 H 0.66179 0.63752 0.28997 0.0
H2122 H 0.59814 0.60969 0.30485 0.0
H2123 H 0.64044 0.61311 0.26818 0.0
H2124 H 0.59676 0.55617 0.24899 0.0
H2125 H 0.61897 0.58101 0.26942 0.0
H2126 H 0.58648 0.60446 0.27065 0.0
H2127 H 0.56406 0.57937 0.25106 0.0
C2128 C 0.62412 0.6297 0.31358 0.0
C2129 C 0.6422 0.63775 0.30974 0.0
C2130 C 0.61197 0.61575 0.30125 0.0
C2131 C 0.61759 0.60952 0.28473 0.0
C2132 C 0.63571 0.61753 0.2809 0.0
C2133 C 0.64792 0.63154 0.29329 0.0
C2134 C 0.59433 0.56657 0.25377 0.0
C2135 C 0.57861 0.56575 0.24845 0.0
C2136 C 0.60714 0.5809 0.26525 0.0
C2137 C 0.60447 0.59468 0.27171 0.0
C2138 C 0.58885 0.59395 0.26614 0.0
C2139 C 0.57608 0.57966 0.2547 0.0
H2140 H 0.35913 0.97021 0.32454 0.0
H2141 H 0.36878 0.01826 0.29553 0.0
H2142 H 0.38164 0.96996 0.30307 0.0
H2143 H 0.39142 0.01817 0.27436 0.0
H2144 H 0.41777 0.00214 0.22539 0.0
H2145 H 0.39458 0.00141 0.24634 0.0
H2146 H 0.41361 0.98695 0.29861 0.0
H2147 H 0.43683 0.98772 0.27768 0.0
C2148 C 0.36607 0.98072 0.31361 0.0
C2149 C 0.36218 0.99425 0.31173 0.0
C2150 C 0.37903 0.98064 0.30139 0.0
C2151 C 0.38833 0.99405 0.28701 0.0
C2152 C 0.38435 0.00752 0.2851 0.0
C2153 C 0.37144 0.00762 0.29732 0.0
C2154 C 0.41709 0.99895 0.24139 0.0
C2155 C 0.42918 0.99503 0.24986 0.0
C2156 C 0.40379 0.99851 0.25339 0.0
C2157 C 0.40225 0.99414 0.27415 0.0
C2158 C 0.41427 0.99011 0.2826 0.0
C2159 C 0.42759 0.99056 0.2706 0.0
H2160 H 0.64463 0.01531 0.29694 0.0
H2161 H 0.60561 0.96641 0.32504 0.0
H2162 H 0.6221 0.01491 0.27582 0.0
H2163 H 0.58292 0.96586 0.3035 0.0
H2164 H 0.54589 0.98378 0.27755 0.0
H2165 H 0.56758 0.98232 0.29872 0.0
H2166 H 0.60311 0.99825 0.24735 0.0
H2167 H 0.58145 0.99967 0.2262 0.0
C2168 C 0.63123 0.0044 0.29856 0.0
C2169 C 0.62691 0.99087 0.31268 0.0
C2170 C 0.61831 0.00412 0.28632 0.0
C2171 C 0.60073 0.9903 0.28786 0.0
C2172 C 0.59635 0.97676 0.30205 0.0
C2173 C 0.60933 0.97703 0.31432 0.0
C2174 C 0.55826 0.98677 0.27072 0.0
C2175 C 0.56198 0.99195 0.2502 0.0
C2176 C 0.57068 0.98592 0.28285 0.0
C2177 C 0.58711 0.99025 0.27476 0.0
C2178 C 0.5907 0.99513 0.25416 0.0
C2179 C 0.57829 0.99598 0.24204 0.0
H2180 H 0.0218 0.63341 0.32824 0.0
H2181 H 0.98145 0.63488 0.2935 0.0
H2182 H 0.02081 0.61125 0.30473 0.0
H2183 H 0.98061 0.6127 0.26967 0.0
H2184 H 0.97164 0.55801 0.24701 0.0
H2185 H 0.97202 0.58092 0.26902 0.0
H2186 H 0.02875 0.60946 0.26928 0.0
H2187 H 0.02837 0.58633 0.2479 0.0
C2188 C 0.01273 0.62903 0.31553 0.0
C2189 C 0.00171 0.6359 0.31269 0.0
C2190 C 0.01226 0.61641 0.30198 0.0
C2191 C 1.00073 0.61033 0.28526 0.0
C2192 C 0.98955 0.61707 0.28249 0.0
C2193 C 0.99007 0.62979 0.29607 0.0
C2194 C 0.98418 0.56916 0.25183 0.0
C2195 C 0.99997 0.57032 0.24582 0.0
C2196 C 0.98439 0.58236 0.26424 0.0
C2197 C 1.00041 0.59692 0.27096 0.0
C2198 C 0.01619 0.59827 0.26455 0.0
C2199 C 0.01598 0.58512 0.25213 0.0
H2200 H 0.3716 0.38861 0.33287 0.0
H2201 H 0.36524 0.34632 0.29255 0.0
H2202 H 0.39633 0.4101 0.31239 0.0
H2203 H 0.38979 0.36786 0.27183 0.0
H2204 H 0.44618 0.40885 0.25295 0.0
H2205 H 0.42167 0.38742 0.2738 0.0
H2206 H 0.40254 0.42368 0.27895 0.0
H2207 H 0.42735 0.44533 0.25876 0.0
C2208 C 0.37543 0.38392 0.31957 0.0
C2209 C 0.3665 0.36578 0.31433 0.0
C2210 C 0.38955 0.39625 0.30777 0.0
C2211 C 0.39505 0.3907 0.29048 0.0
C2212 C 0.38604 0.37254 0.28521 0.0
C2213 C 0.3719 0.36022 0.29699 0.0
C2214 C 0.43684 0.41231 0.25872 0.0
C2215 C 0.43872 0.4288 0.25419 0.0
C2216 C 0.42268 0.39995 0.27046 0.0
C2217 C 0.41012 0.40382 0.278 0.0
C2218 C 0.41207 0.42034 0.27355 0.0
C2219 C 0.42619 0.43268 0.26179 0.0
H2220 H 0.35431 0.30756 0.37042 0.0
H2221 H 0.29759 0.2781 0.37006 0.0
H2222 H 0.35426 0.28332 0.38822 0.0
H2223 H 0.29759 0.25393 0.38854 0.0
H2224 H 0.31427 0.23436 0.4487 0.0
H2225 H 0.31105 0.25467 0.42683 0.0
H2226 H 0.34188 0.24819 0.38014 0.0
H2227 H 0.34427 0.22693 0.40131 0.0
C2228 C 0.34183 0.29584 0.37408 0.0
C2229 C 0.32594 0.29468 0.3689 0.0
C2230 C 0.34182 0.28197 0.38416 0.0
C2231 C 0.32593 0.26682 0.38969 0.0
C2232 C 0.31 0.26552 0.38439 0.0
C2233 C 0.31 0.27927 0.37379 0.0
C2234 C 0.31998 0.23678 0.43358 0.0
C2235 C 0.32961 0.22892 0.42692 0.0
C2236 C 0.31816 0.2485 0.4211 0.0
C2237 C 0.32621 0.25293 0.40186 0.0
C2238 C 0.33562 0.245 0.39499 0.0
C2239 C 0.33712 0.23297 0.40726 0.0
H2240 H 0.67151 0.02943 0.39837 0.0
H2241 H 0.71463 0.03999 0.35827 0.0
H2242 H 0.69165 0.05488 0.4199 0.0
H2243 H 0.73458 0.06525 0.37963 0.0
H2244 H 0.7615 0.11978 0.40951 0.0
H2245 H 0.73924 0.09528 0.38882 0.0
H2246 H 0.71807 0.06353 0.44284 0.0
H2247 H 0.74026 0.08818 0.46364 0.0
C2248 C 0.68525 0.03718 0.39416 0.0
C2249 C 0.6915 0.03275 0.37664 0.0
C2250 C 0.69676 0.05168 0.40649 0.0
C2251 C 0.71464 0.0621 0.40133 0.0
C2252 C 0.72082 0.05762 0.38381 0.0
C2253 C 0.70941 0.04307 0.37166 0.0
C2254 C 0.75192 0.10769 0.41702 0.0
C2255 C 0.75265 0.10586 0.43818 0.0
C2256 C 0.73928 0.09361 0.40515 0.0
C2257 C 0.72702 0.07747 0.41421 0.0
C2258 C 0.72732 0.07585 0.43547 0.0
C2259 C 0.74009 0.08989 0.44733 0.0
H2260 H 0.97689 0.69855 0.36356 0.0
H2261 H 0.96667 0.65014 0.39218 0.0
H2262 H 0.95394 0.69852 0.38452 0.0
H2263 H 0.94364 0.64994 0.41274 0.0
H2264 H 0.91698 0.66522 0.46164 0.0
H2265 H 0.94048 0.66645 0.44086 0.0
H2266 H 0.92189 0.68159 0.38874 0.0
H2267 H 0.89837 0.68037 0.40955 0.0
C2268 C 0.96971 0.68789 0.37425 0.0
C2269 C 0.9736 0.67437 0.37624 0.0
C2270 C 0.95652 0.68782 0.38619 0.0
C2271 C 0.94701 0.67425 0.40035 0.0
C2272 C 0.95091 0.66073 0.40223 0.0
C2273 C 0.96404 0.66079 0.39033 0.0
C2274 C 0.91783 0.66869 0.44571 0.0
C2275 C 0.90578 0.67264 0.43723 0.0
C2276 C 0.9313 0.66941 0.43381 0.0
C2277 C 0.93302 0.67407 0.41313 0.0
C2278 C 0.92107 0.67819 0.40469 0.0
C2279 C 0.90759 0.67747 0.41661 0.0
H2280 H 0.39552 0.04371 0.70297 0.0
H2281 H 0.36827 0.98641 0.70208 0.0
H2282 H 0.41905 0.04466 0.72352 0.0
H2283 H 0.39199 0.98744 0.72194 0.0
H2284 H 0.44987 0.00231 0.73772 0.0
H2285 H 0.42861 0.00329 0.71534 0.0
H2286 H 0.41584 0.02928 0.76286 0.0
H2287 H 0.43615 0.0273 0.78594 0.0
C2288 C 0.39474 0.03138 0.70686 0.0
C2289 C 0.38013 0.01498 0.70099 0.0
C2290 C 0.4081 0.03193 0.71865 0.0
C2291 C 0.40722 0.01612 0.7242 0.0
C2292 C 0.39293 0.99978 0.71773 0.0
C2293 C 0.37939 0.99921 0.70644 0.0
C2294 C 0.4424 0.00801 0.74364 0.0
C2295 C 0.44471 0.01456 0.76385 0.0
C2296 C 0.43039 0.00874 0.73067 0.0
C2297 C 0.42076 0.01644 0.73742 0.0
C2298 C 0.42334 0.02347 0.75729 0.0
C2299 C 0.43505 0.02239 0.77045 0.0
H2300 H 0.98335 0.37031 0.69004 0.0
H2301 H 0.01864 0.36378 0.72887 0.0
H2302 H 0.98629 0.39418 0.71215 0.0
H2303 H 0.02171 0.38795 0.75105 0.0
H2304 H 0.00508 0.41864 0.7962 0.0
H2305 H 0.0035 0.3947 0.77496 0.0
H2306 H 0.00947 0.42487 0.72095 0.0
H2307 H 0.0106 0.44852 0.74205 0.0
C2308 C 0.99176 0.37399 0.70331 0.0
C2309 C 1.00082 0.36522 0.70769 0.0
C2310 C 0.99353 0.38775 0.71591 0.0
C2311 C 0.00434 0.39304 0.73323 0.0
C2312 C 0.01322 0.38409 0.73784 0.0
C2313 C 0.01152 0.37033 0.72512 0.0
C2314 C 0.00602 0.42011 0.77978 0.0
C2315 C 0.00789 0.43543 0.77078 0.0
C2316 C 0.00529 0.4065 0.76765 0.0
C2317 C 0.00627 0.40788 0.7463 0.0
C2318 C 0.00847 0.42334 0.73736 0.0
C2319 C 0.0093 0.43696 0.74946 0.0
H2320 H 0.63453 0.61515 0.69388 0.0
H2321 H 0.63492 0.65882 0.72563 0.0
H2322 H 0.60983 0.59416 0.71469 0.0
H2323 H 0.60989 0.63779 0.74618 0.0
H2324 H 0.55376 0.56202 0.73881 0.0
H2325 H 0.57892 0.58338 0.71882 0.0
H2326 H 0.6016 0.61602 0.77283 0.0
H2327 H 0.57635 0.59467 0.7928 0.0
C2328 C 0.62931 0.62027 0.7053 0.0
C2329 C 0.63663 0.63863 0.7081 0.0
C2330 C 0.61507 0.60823 0.71714 0.0
C2331 C 0.60779 0.61427 0.73203 0.0
C2332 C 0.61528 0.63268 0.73499 0.0
C2333 C 0.62957 0.64473 0.72315 0.0
C2334 C 0.56417 0.5737 0.74644 0.0
C2335 C 0.56307 0.57662 0.7674 0.0
C2336 C 0.57861 0.58594 0.735 0.0
C2337 C 0.59233 0.60139 0.74423 0.0
C2338 C 0.59117 0.60438 0.76518 0.0
C2339 C 0.5767 0.59214 0.77662 0.0
H2340 H 0.69792 0.7274 0.65951 0.0
H2341 H 0.65109 0.68608 0.62974 0.0
H2342 H 0.69583 0.74978 0.63995 0.0
H2343 H 0.6492 0.70822 0.61009 0.0
H2344 H 0.63951 0.75247 0.59443 0.0
H2345 H 0.64243 0.73138 0.6152 0.0
H2346 H 0.69849 0.76057 0.60496 0.0
H2347 H 0.69556 0.78172 0.58415 0.0
C2348 C 0.68725 0.7231 0.64876 0.0
C2349 C 0.67465 0.70498 0.64624 0.0
C2350 C 0.68608 0.73589 0.63749 0.0
C2351 C 0.67226 0.7308 0.62355 0.0
C2352 C 0.65981 0.71265 0.62096 0.0
C2353 C 0.66098 0.69993 0.63215 0.0
C2354 C 0.65245 0.75434 0.59648 0.0
C2355 C 0.66728 0.76873 0.58751 0.0
C2356 C 0.65413 0.74225 0.60841 0.0
C2357 C 0.67069 0.74422 0.61165 0.0
C2358 C 0.68558 0.75878 0.60297 0.0
C2359 C 0.68389 0.77089 0.59102 0.0
H2360 H 0.28759 0.9698 0.66219 0.0
H2361 H 0.3286 0.97427 0.62221 0.0
H2362 H 0.26566 0.94539 0.64138 0.0
H2363 H 0.30649 0.94986 0.60107 0.0
H2364 H 0.26272 0.89257 0.58318 0.0
H2365 H 0.28547 0.91747 0.60307 0.0
H2366 H 0.25251 0.94027 0.60763 0.0
H2367 H 0.2296 0.91517 0.58841 0.0
C2368 C 0.29192 0.96562 0.64887 0.0
C2369 C 0.30982 0.97396 0.64382 0.0
C2370 C 0.27933 0.95169 0.63687 0.0
C2371 C 0.28432 0.94573 0.61953 0.0
C2372 C 0.30225 0.95406 0.61445 0.0
C2373 C 0.31489 0.96808 0.62647 0.0
C2374 C 0.2603 0.90285 0.58857 0.0
C2375 C 0.24434 0.90187 0.58428 0.0
C2376 C 0.27341 0.91721 0.59974 0.0
C2377 C 0.27078 0.93083 0.60694 0.0
C2378 C 0.25487 0.9299 0.60249 0.0
C2379 C 0.24181 0.9156 0.5913 0.0
H2380 H 0.01846 0.29951 0.64349 0.0
H2381 H 0.04509 0.35672 0.64387 0.0
H2382 H 0.04176 0.30073 0.62219 0.0
H2383 H 0.06891 0.35815 0.62387 0.0
H2384 H 0.10019 0.35633 0.57059 0.0
H2385 H 0.07633 0.35409 0.59149 0.0
H2386 H 0.07051 0.3072 0.61996 0.0
H2387 H 0.09366 0.30898 0.59791 0.0
C2388 C 0.02947 0.31234 0.63928 0.0
C2389 C 0.02994 0.328 0.64516 0.0
C2390 C 0.0429 0.31309 0.62715 0.0
C2391 C 0.05727 0.32956 0.62104 0.0
C2392 C 0.05789 0.3452 0.62764 0.0
C2393 C 0.0443 0.34441 0.63931 0.0
C2394 C 0.09371 0.34555 0.58131 0.0
C2395 C 0.09867 0.33283 0.58271 0.0
C2396 C 0.08012 0.3443 0.59346 0.0
C2397 C 0.07146 0.33053 0.60768 0.0
C2398 C 0.07658 0.31782 0.60902 0.0
C2399 C 0.08992 0.31887 0.59651 0.0
H2400 H 0.30788 0.35531 0.64972 0.0
H2401 H 0.27833 0.2981 0.64563 0.0
H2402 H 0.2855 0.35659 0.63016 0.0
H2403 H 0.25627 0.29926 0.62477 0.0
H2404 H 0.2123 0.30657 0.60081 0.0
H2405 H 0.23331 0.30471 0.62286 0.0
H2406 H 0.2752 0.35365 0.59748 0.0
H2407 H 0.25394 0.35586 0.57653 0.0
C2408 C 0.29658 0.34298 0.64447 0.0
C2409 C 0.29485 0.32661 0.64911 0.0
C2410 C 0.28379 0.34369 0.63305 0.0
C2411 C 0.26909 0.32806 0.62547 0.0
C2412 C 0.26724 0.31161 0.63047 0.0
C2413 C 0.27991 0.3109 0.64235 0.0
C2414 C 0.22603 0.3169 0.60009 0.0
C2415 C 0.23153 0.33141 0.58713 0.0
C2416 C 0.23812 0.31581 0.61261 0.0
C2417 C 0.25606 0.32906 0.61215 0.0
C2418 C 0.2615 0.34341 0.59879 0.0
C2419 C 0.24935 0.34466 0.58662 0.0
H2420 H 0.66051 0.98093 0.61688 0.0
H2421 H 0.66171 0.95321 0.66995 0.0
H2422 H 0.65805 0.95696 0.59492 0.0
H2423 H 0.6579 0.92868 0.6485 0.0
H2424 H 0.67416 0.89911 0.60685 0.0
H2425 H 0.67461 0.92245 0.62717 0.0
H2426 H 0.6421 0.92778 0.58251 0.0
H2427 H 0.6432 0.90555 0.56101 0.0
C2428 C 0.65977 0.96945 0.6238 0.0
C2429 C 0.66145 0.96887 0.64497 0.0
C2430 C 0.65831 0.95567 0.61129 0.0
C2431 C 0.6581 0.94093 0.61984 0.0
C2432 C 0.65867 0.94004 0.64122 0.0
C2433 C 0.66065 0.95399 0.65359 0.0
C2434 C 0.6674 0.90546 0.60105 0.0
C2435 C 0.65876 0.90042 0.58211 0.0
C2436 C 0.66731 0.91867 0.61301 0.0
C2437 C 0.65817 0.92694 0.60672 0.0
C2438 C 0.64941 0.92185 0.58784 0.0
C2439 C 0.64981 0.90885 0.57562 0.0
H2440 H 0.03151 0.68003 0.62617 0.0
H2441 H 0.03626 0.72225 0.66542 0.0
H2442 H 0.05606 0.7018 0.60555 0.0
H2443 H 0.06094 0.74393 0.64512 0.0
H2444 H 0.09201 0.77933 0.59201 0.0
H2445 H 0.06716 0.75721 0.6117 0.0
H2446 H 0.08782 0.72219 0.60763 0.0
H2447 H 0.1124 0.74411 0.58721 0.0
C2448 C 0.03781 0.69395 0.6304 0.0
C2449 C 0.03195 0.69943 0.64739 0.0
C2450 C 0.05195 0.70641 0.61868 0.0
C2451 C 0.06048 0.72461 0.62369 0.0
C2452 C 0.05453 0.73005 0.64066 0.0
C2453 C 0.04043 0.71761 0.65237 0.0
C2454 C 0.09118 0.76685 0.59514 0.0
C2455 C 0.10418 0.76348 0.58799 0.0
C2456 C 0.07702 0.75423 0.60663 0.0
C2457 C 0.0755 0.73793 0.61128 0.0
C2458 C 0.0885 0.73454 0.60414 0.0
C2459 C 0.1027 0.74719 0.59266 0.0
H2460 H 0.96357 0.61211 0.70418 0.0
H2461 H 0.02022 0.64274 0.70691 0.0
H2462 H 0.96361 0.58846 0.72377 0.0
H2463 H 0.02023 0.61899 0.72581 0.0
H2464 H 0.01053 0.56248 0.73897 0.0
H2465 H 0.00863 0.58393 0.71768 0.0
H2466 H 0.97612 0.58939 0.76291 0.0
H2467 H 0.97883 0.56884 0.785 0.0
C2468 C 0.97599 0.61366 0.70871 0.0
C2469 C 0.99189 0.62924 0.70409 0.0
C2470 C 0.976 0.60022 0.71995 0.0
C2471 C 0.99193 0.60197 0.72621 0.0
C2472 C 0.0078 0.61731 0.72105 0.0
C2473 C 0.00777 0.63089 0.71031 0.0
C2474 C 0.00316 0.56837 0.74464 0.0
C2475 C 0.99499 0.56393 0.76394 0.0
C2476 C 0.00194 0.58052 0.73227 0.0
C2477 C 0.99218 0.5882 0.73866 0.0
C2478 C 0.98355 0.58345 0.75757 0.0
C2479 C 0.98507 0.57159 0.77016 0.0
H2480 H 0.34043 0.36446 0.72964 0.0
H2481 H 0.38434 0.36703 0.69744 0.0
H2482 H 0.36088 0.38884 0.75215 0.0
H2483 H 0.40463 0.39126 0.71974 0.0
H2484 H 0.43589 0.42251 0.77513 0.0
H2485 H 0.414 0.39668 0.75589 0.0
H2486 H 0.38314 0.42145 0.74884 0.0
H2487 H 0.40519 0.44749 0.76791 0.0
C2488 C 0.35441 0.37016 0.72746 0.0
C2489 C 0.36079 0.36386 0.71179 0.0
C2490 C 0.3661 0.38415 0.74025 0.0
C2491 C 0.38435 0.39193 0.73772 0.0
C2492 C 0.39065 0.3854 0.72224 0.0
C2493 C 0.37901 0.37157 0.70939 0.0
C2494 C 0.4245 0.42252 0.76938 0.0
C2495 C 0.42241 0.43717 0.77284 0.0
C2496 C 0.41193 0.40769 0.75843 0.0
C2497 C 0.39692 0.4071 0.75075 0.0
C2498 C 0.3945 0.42147 0.75474 0.0
C2499 C 0.40714 0.43638 0.76565 0.0
H2500 H 0.63893 0.99391 0.72915 0.0
H2501 H 0.64579 0.03733 0.69215 0.0
H2502 H 0.61801 0.99682 0.75058 0.0
H2503 H 0.62466 0.04021 0.71376 0.0
H2504 H 0.59379 0.01726 0.79627 0.0
H2505 H 0.61738 0.01851 0.77547 0.0
H2506 H 0.59191 0.02115 0.72096 0.0
H2507 H 0.56842 0.02012 0.74178 0.0
C2508 C 0.636 0.00413 0.72562 0.0
C2509 C 0.64395 0.01536 0.70892 0.0
C2510 C 0.62411 0.00587 0.73801 0.0
C2511 C 0.61976 0.01878 0.73389 0.0
C2512 C 0.62774 0.03009 0.71722 0.0
C2513 C 0.63985 0.02849 0.70492 0.0
C2514 C 0.59338 0.01838 0.77988 0.0
C2515 C 0.57923 0.01848 0.77063 0.0
C2516 C 0.6068 0.01897 0.76797 0.0
C2517 C 0.60642 0.01984 0.7466 0.0
C2518 C 0.5926 0.0206 0.7374 0.0
C2519 C 0.57909 0.01983 0.74929 0.0
loop_
_geom_bond_atom_site_label_1
_geom_bond_atom_site_label_2
_geom_bond_distance
_geom_bond_site_symmetry_2
_ccdc_geom_bond_type
Co0 O1 2.216 . S
Co0 O2 2.091 . S
Co0 O4 2.004 1_554 S
Co0 O10 2.021 . S
Co0 O12 2.137 1_454 S
Co0 O13 2.244 1_455 S
O1 Co0 2.216 . S
O1 C8 1.247 . S
O2 Co0 2.091 . S
O2 C8 1.261 . S
C3 O12 1.247 . S
C3 O13 1.272 1_556 S
O4 Co0 2.004 1_556 S
O4 C9 1.259 . S
Co5 O6 2.061 1_554 S
Co5 O11 2.052 . S
Co5 O13 2.135 . S
O6 Co5 2.061 1_556 S
O6 C9 1.235 1_655 S
C7 O10 1.238 1_655 S
C7 O11 1.241 . S
C8 O1 1.247 . S
C8 O2 1.261 . S
C9 O4 1.259 . S
C9 O6 1.235 1_455 S
O10 Co0 2.021 . S
O10 C7 1.238 1_455 S
O11 Co5 2.052 . S
O11 C7 1.241 . S
O12 Co0 2.137 1_656 S
O12 C3 1.247 . S
O13 Co0 2.244 1_655 S
O13 C3 1.272 1_554 S
O13 Co5 2.135 . S
Co14 O15 2.216 1_554 S
Co14 O16 2.091 . S
Co14 O18 2.004 . S
Co14 O24 2.021 1_554 S
Co14 O26 2.137 . S
Co14 O27 2.244 . S
O15 Co14 2.216 1_556 S
O15 C22 1.247 . S
O16 Co14 2.091 . S
O16 C22 1.261 1_554 S
C17 O26 1.247 . S
C17 O27 1.272 . S
O18 Co14 2.004 . S
O18 C23 1.259 . S
Co19 O20 2.061 . S
Co19 O25 2.052 1_554 S
Co19 O27 2.135 . S
O20 Co19 2.061 . S
O20 C23 1.235 . S
C21 O24 1.238 . S
C21 O25 1.241 . S
C22 O15 1.247 . S
C22 O16 1.261 1_556 S
C23 O18 1.259 . S
C23 O20 1.235 . S
O24 Co14 2.021 1_556 S
O24 C21 1.238 . S
O25 Co19 2.052 1_556 S
O25 C21 1.241 . S
O26 Co14 2.137 . S
O26 C17 1.247 . S
O27 Co14 2.244 . S
O27 C17 1.272 . S
O27 Co19 2.135 . S
Co28 O29 2.216 1_554 S
Co28 O30 2.091 . S
Co28 O32 2.004 . S
Co28 O38 2.021 1_554 S
Co28 O40 2.136 . S
Co28 O41 2.244 1_545 S
O29 Co28 2.216 1_556 S
O29 C36 1.247 . S
O30 Co28 2.091 . S
O30 C36 1.261 1_554 S
C31 O40 1.222 1_565 S
C31 O41 1.272 . S
O32 Co28 2.004 . S
O32 C37 1.259 . S
Co33 O34 2.061 . S
Co33 O39 2.052 1_554 S
Co33 O41 2.135 . S
O34 Co33 2.061 . S
O34 C37 1.235 1_565 S
C35 O38 1.238 1_565 S
C35 O39 1.241 . S
C36 O29 1.247 . S
C36 O30 1.261 1_556 S
C37 O32 1.259 . S
C37 O34 1.235 1_545 S
O38 Co28 2.021 1_556 S
O38 C35 1.238 1_545 S
O39 Co33 2.052 1_556 S
O39 C35 1.241 . S
O40 Co28 2.136 . S
O40 C31 1.222 1_545 S
O41 Co28 2.244 1_565 S
O41 C31 1.272 . S
O41 Co33 2.135 . S
Co42 O43 2.216 1_554 S
Co42 O44 2.091 . S
Co42 O46 2.004 . S
Co42 O52 2.021 1_554 S
Co42 O54 2.137 1_655 S
Co42 O55 2.244 1_655 S
O43 Co42 2.216 1_556 S
O43 C50 1.247 . S
O44 Co42 2.091 . S
O44 C50 1.261 1_554 S
C45 O54 1.247 . S
C45 O55 1.272 . S
O46 Co42 2.004 . S
O46 C51 1.301 . S
Co47 O48 2.061 . S
Co47 O53 2.052 1_554 S
Co47 O55 2.135 . S
O48 Co47 2.061 . S
O48 C51 1.192 1_455 S
C49 O52 1.238 1_455 S
C49 O53 1.241 . S
C50 O43 1.247 . S
C50 O44 1.261 1_556 S
C51 O46 1.301 . S
C51 O48 1.192 1_655 S
O52 Co42 2.021 1_556 S
O52 C49 1.238 1_655 S
O53 Co47 2.052 1_556 S
O53 C49 1.241 . S
O54 Co42 2.137 1_455 S
O54 C45 1.247 . S
O55 Co42 2.244 1_455 S
O55 C45 1.272 . S
O55 Co47 2.135 . S
Co56 O57 2.216 . S
Co56 O58 2.091 . S
Co56 O60 2.004 1_554 S
Co56 O66 2.021 . S
Co56 O68 2.137 1_554 S
Co56 O69 2.237 1_554 S
O57 Co56 2.216 . S
O57 C64 1.247 . S
O58 Co56 2.091 . S
O58 C64 1.261 . S
C59 O68 1.247 . S
C59 O69 1.291 . S
O60 Co56 2.004 1_556 S
O60 C65 1.259 . S
Co61 O62 2.061 . S
Co61 O67 2.052 1_556 S
Co61 O69 2.137 . S
O62 Co61 2.061 . S
O62 C65 1.235 . S
C63 O66 1.238 . S
C63 O67 1.241 . S
C64 O57 1.247 . S
C64 O58 1.261 . S
C65 O60 1.259 . S
C65 O62 1.235 . S
O66 Co56 2.021 . S
O66 C63 1.238 . S
O67 Co61 2.052 1_554 S
O67 C63 1.241 . S
O68 Co56 2.137 1_556 S
O68 C59 1.247 . S
O69 Co56 2.237 1_556 S
O69 C59 1.291 . S
O69 Co61 2.137 . S
Co70 O71 2.216 . S
Co70 O72 2.091 . S
Co70 O74 2.004 1_554 S
Co70 O80 2.021 . S
Co70 O82 2.137 1_564 S
Co70 O83 2.244 1_565 S
O71 Co70 2.216 . S
O71 C78 1.247 . S
O72 Co70 2.091 . S
O72 C78 1.261 . S
C73 O82 1.247 . S
C73 O83 1.272 1_556 S
O74 Co70 2.004 1_556 S
O74 C79 1.302 . S
Co75 O76 2.061 1_554 S
Co75 O81 2.052 . S
Co75 O83 2.135 . S
O76 Co75 2.061 1_556 S
O76 C79 1.193 1_545 S
C77 O80 1.238 1_545 S
C77 O81 1.241 . S
C78 O71 1.247 . S
C78 O72 1.261 . S
C79 O74 1.302 . S
C79 O76 1.193 1_565 S
O80 Co70 2.021 . S
O80 C77 1.238 1_565 S
O81 Co75 2.052 . S
O81 C77 1.241 . S
O82 Co70 2.137 1_546 S
O82 C73 1.247 . S
O83 Co70 2.244 1_545 S
O83 C73 1.272 1_554 S
O83 Co75 2.135 . S
Co84 O85 2.216 . S
Co84 O86 2.091 . S
Co84 O88 2.004 . S
Co84 O94 2.021 . S
Co84 O96 2.137 . S
Co84 O97 2.244 . S
O85 Co84 2.216 . S
O85 C92 1.247 . S
O86 Co84 2.091 . S
O86 C92 1.261 . S
C87 O96 1.247 . S
C87 O97 1.272 . S
O88 Co84 2.004 . S
O88 C93 1.259 . S
Co89 O90 2.061 . S
Co89 O95 2.052 . S
Co89 O97 2.135 . S
O90 Co89 2.061 . S
O90 C93 1.235 . S
C91 O94 1.238 . S
C91 O95 1.241 . S
C92 O85 1.247 . S
C92 O86 1.261 . S
C93 O88 1.259 . S
C93 O90 1.235 . S
O94 Co84 2.021 . S
O94 C91 1.238 . S
O95 Co89 2.052 . S
O95 C91 1.241 . S
O96 Co84 2.137 . S
O96 C87 1.247 . S
O97 Co84 2.244 . S
O97 C87 1.272 . S
O97 Co89 2.135 . S
Co98 O99 2.217 1_565 S
Co98 O100 2.091 . S
Co98 O102 2.004 . S
Co98 O108 2.021 . S
Co98 O110 2.137 1_565 S
Co98 O111 2.244 1_565 S
O99 Co98 2.217 1_545 S
O99 C106 1.249 1_545 S
O100 Co98 2.091 . S
O100 C106 1.261 . S
C101 O110 1.247 . S
C101 O111 1.272 . S
O102 Co98 2.004 . S
O102 C107 1.259 . S
Co103 O104 2.061 . S
Co103 O109 2.052 . S
Co103 O111 2.135 1_565 S
O104 Co103 2.061 . S
O104 C107 1.235 . S
C105 O108 1.238 . S
C105 O109 1.241 . S
C106 O99 1.249 1_565 S
C106 O100 1.261 . S
C107 O102 1.259 . S
C107 O104 1.235 . S
O108 Co98 2.021 . S
O108 C105 1.238 . S
O109 Co103 2.052 . S
O109 C105 1.241 . S
O110 Co98 2.137 1_545 S
O110 C101 1.247 . S
O111 Co98 2.244 1_545 S
O111 C101 1.272 . S
O111 Co103 2.135 1_545 S
Co112 O113 2.216 . S
Co112 O114 2.091 . S
Co112 O116 2.004 . S
Co112 O122 2.021 . S
Co112 O124 2.137 1_455 S
Co112 O125 2.244 . S
O113 Co112 2.216 . S
O113 C120 1.247 . S
O114 Co112 2.091 . S
O114 C120 1.261 . S
C115 O124 1.247 . S
C115 O125 1.272 1_655 S
O116 Co112 2.004 . S
O116 C121 1.259 . S
Co117 O118 2.061 . S
Co117 O123 2.052 . S
Co117 O125 2.135 . S
O118 Co117 2.061 . S
O118 C121 1.235 . S
C119 O122 1.238 . S
C119 O123 1.241 . S
C120 O113 1.247 . S
C120 O114 1.261 . S
C121 O116 1.259 . S
C121 O118 1.235 . S
O122 Co112 2.021 . S
O122 C119 1.238 . S
O123 Co117 2.052 . S
O123 C119 1.241 . S
O124 Co112 2.137 1_655 S
O124 C115 1.247 . S
O125 Co112 2.244 . S
O125 C115 1.272 1_455 S
O125 Co117 2.135 . S
Co126 O127 2.237 . S
Co126 O128 2.091 . S
Co126 O130 2.004 . S
Co126 O136 2.021 . S
Co126 O138 2.137 1_565 S
Co126 O139 2.244 1_565 S
O127 Co126 2.237 . S
O127 C134 1.248 . S
O128 Co126 2.091 . S
O128 C134 1.261 . S
C129 O138 1.247 . S
C129 O139 1.272 . S
O130 Co126 2.004 . S
O130 C135 1.259 . S
Co131 O132 2.061 . S
Co131 O137 2.052 . S
Co131 O139 2.135 1_565 S
O132 Co131 2.061 . S
O132 C135 1.235 . S
C133 O136 1.238 . S
C133 O137 1.241 . S
C134 O127 1.248 . S
C134 O128 1.261 . S
C135 O130 1.259 . S
C135 O132 1.235 . S
O136 Co126 2.021 . S
O136 C133 1.238 . S
O137 Co131 2.052 . S
O137 C133 1.241 . S
O138 Co126 2.137 1_545 S
O138 C129 1.247 . S
O139 Co126 2.244 1_545 S
O139 C129 1.272 . S
O139 Co131 2.135 1_545 S
Co140 O141 2.216 1_455 S
Co140 O142 2.091 1_455 S
Co140 O144 2.004 . S
Co140 O150 2.021 . S
Co140 O152 2.137 1_455 S
Co140 O153 2.244 . S
O141 Co140 2.216 1_655 S
O141 C148 1.247 . S
O142 Co140 2.091 1_655 S
O142 C148 1.261 . S
C143 O152 1.247 1_455 S
C143 O153 1.272 . S
O144 Co140 2.004 . S
O144 C149 1.259 . S
Co145 O146 2.061 . S
Co145 O151 2.052 . S
Co145 O153 2.135 . S
O146 Co145 2.061 . S
O146 C149 1.235 . S
C147 O150 1.238 . S
C147 O151 1.241 . S
C148 O141 1.247 . S
C148 O142 1.261 . S
C149 O144 1.259 . S
C149 O146 1.235 . S
O150 Co140 2.021 . S
O150 C147 1.238 . S
O151 Co145 2.052 . S
O151 C147 1.241 . S
O152 Co140 2.137 1_655 S
O152 C143 1.247 1_655 S
O153 Co140 2.244 . S
O153 C143 1.272 . S
O153 Co145 2.135 . S
Co154 O155 2.216 . S
Co154 O156 2.091 . S
Co154 O158 2.004 . S
Co154 O164 2.021 . S
Co154 O166 2.137 . S
Co154 O167 2.244 . S
O155 Co154 2.216 . S
O155 C162 1.247 . S
O156 Co154 2.091 . S
O156 C162 1.261 . S
C157 O166 1.247 . S
C157 O167 1.272 . S
O158 Co154 2.004 . S
O158 C163 1.259 . S
Co159 O160 2.061 . S
Co159 O165 2.052 . S
Co159 O167 2.135 . S
O160 Co159 2.061 . S
O160 C163 1.235 . S
C161 O164 1.238 . S
C161 O165 1.241 . S
C162 O155 1.247 . S
C162 O156 1.261 . S
C163 O158 1.259 . S
C163 O160 1.235 . S
O164 Co154 2.021 . S
O164 C161 1.238 . S
O165 Co159 2.052 . S
O165 C161 1.241 . S
O166 Co154 2.137 . S
O166 C157 1.247 . S
O167 Co154 2.244 . S
O167 C157 1.272 . S
O167 Co159 2.135 . S
Co168 O169 2.216 . S
Co168 O170 2.091 . S
Co168 O172 2.004 . S
Co168 O178 2.021 . S
Co168 O180 2.137 1_545 S
Co168 O181 2.250 . S
O169 Co168 2.216 . S
O169 C176 1.247 . S
O170 Co168 2.091 . S
O170 C176 1.261 . S
C171 O180 1.247 . S
C171 O181 1.238 1_565 S
O172 Co168 2.004 . S
O172 C177 1.259 . S
Co173 O174 2.061 . S
Co173 O179 2.052 . S
Co173 O181 2.173 . S
O174 Co173 2.061 . S
O174 C177 1.235 . S
C175 O178 1.238 . S
C175 O179 1.241 . S
C176 O169 1.247 . S
C176 O170 1.261 . S
C177 O172 1.259 . S
C177 O174 1.235 . S
O178 Co168 2.021 . S
O178 C175 1.238 . S
O179 Co173 2.052 . S
O179 C175 1.241 . S
O180 Co168 2.137 1_565 S
O180 C171 1.247 . S
O181 Co168 2.250 . S
O181 C171 1.238 1_545 S
O181 Co173 2.173 . S
Co182 O183 2.216 1_655 S
Co182 O184 2.091 1_655 S
Co182 O186 2.004 . S
Co182 O192 2.021 . S
Co182 O194 2.137 1_655 S
Co182 O195 2.244 . S
O183 Co182 2.216 1_455 S
O183 C190 1.247 . S
O184 Co182 2.091 1_455 S
O184 C190 1.261 . S
C185 O194 1.247 1_655 S
C185 O195 1.272 . S
O186 Co182 2.004 . S
O186 C191 1.259 . S
Co187 O188 2.061 . S
Co187 O193 2.052 . S
Co187 O195 2.135 . S
O188 Co187 2.061 . S
O188 C191 1.235 . S
C189 O192 1.238 . S
C189 O193 1.241 . S
C190 O183 1.247 . S
C190 O184 1.261 . S
C191 O186 1.259 . S
C191 O188 1.235 . S
O192 Co182 2.021 . S
O192 C189 1.238 . S
O193 Co187 2.052 . S
O193 C189 1.241 . S
O194 Co182 2.137 1_455 S
O194 C185 1.247 1_455 S
O195 Co182 2.244 . S
O195 C185 1.272 . S
O195 Co187 2.135 . S
Co196 O197 2.216 . S
Co196 O198 2.091 . S
Co196 O200 2.004 . S
Co196 O206 2.021 . S
Co196 O208 2.137 . S
Co196 O209 2.244 . S
O197 Co196 2.216 . S
O197 C204 1.247 . S
O198 Co196 2.091 . S
O198 C204 1.261 . S
C199 O208 1.247 . S
C199 O209 1.272 . S
O200 Co196 2.004 . S
O200 C205 1.259 . S
Co201 O202 2.061 . S
Co201 O207 2.052 . S
Co201 O209 2.135 . S
O202 Co201 2.061 . S
O202 C205 1.235 . S
C203 O206 1.238 . S
C203 O207 1.241 . S
C204 O197 1.247 . S
C204 O198 1.261 . S
C205 O200 1.259 . S
C205 O202 1.235 . S
O206 Co196 2.021 . S
O206 C203 1.238 . S
O207 Co201 2.052 . S
O207 C203 1.241 . S
O208 Co196 2.137 . S
O208 C199 1.247 . S
O209 Co196 2.244 . S
O209 C199 1.272 . S
O209 Co201 2.135 . S
Co210 O211 2.216 . S
Co210 O212 2.091 . S
Co210 O214 2.004 . S
Co210 O220 2.021 . S
Co210 O222 2.137 . S
Co210 O223 2.244 . S
O211 Co210 2.216 . S
O211 C218 1.247 . S
O212 Co210 2.091 . S
O212 C218 1.261 . S
C213 O222 1.247 . S
C213 O223 1.272 . S
O214 Co210 2.004 . S
O214 C219 1.259 . S
Co215 O216 2.061 . S
Co215 O221 2.052 . S
Co215 O223 2.135 . S
O216 Co215 2.061 . S
O216 C219 1.235 . S
C217 O220 1.238 . S
C217 O221 1.241 . S
C218 O211 1.247 . S
C218 O212 1.261 . S
C219 O214 1.259 . S
C219 O216 1.235 . S
O220 Co210 2.021 . S
O220 C217 1.238 . S
O221 Co215 2.052 . S
O221 C217 1.241 . S
O222 Co210 2.137 . S
O222 C213 1.247 . S
O223 Co210 2.244 . S
O223 C213 1.272 . S
O223 Co215 2.135 . S
Co224 O225 2.216 . S
Co224 O226 2.091 . S
Co224 O228 2.004 . S
Co224 O234 2.021 . S
Co224 O236 2.137 1_545 S
Co224 O237 2.252 . S
O225 Co224 2.216 . S
O225 C232 1.247 . S
O226 Co224 2.091 . S
O226 C232 1.261 . S
C227 O236 1.247 . S
C227 O237 1.270 1_565 S
O228 Co224 2.004 . S
O228 C233 1.259 . S
Co229 O230 2.061 . S
Co229 O235 2.052 . S
Co229 O237 2.135 . S
O230 Co229 2.061 . S
O230 C233 1.235 . S
C231 O234 1.238 . S
C231 O235 1.241 . S
C232 O225 1.247 . S
C232 O226 1.261 . S
C233 O228 1.259 . S
C233 O230 1.235 . S
O234 Co224 2.021 . S
O234 C231 1.238 . S
O235 Co229 2.052 . S
O235 C231 1.241 . S
O236 Co224 2.137 1_565 S
O236 C227 1.247 . S
O237 Co224 2.252 . S
O237 C227 1.270 1_545 S
O237 Co229 2.135 . S
Co238 O239 2.216 . S
Co238 O240 2.091 . S
Co238 O242 2.004 . S
Co238 O248 2.021 . S
Co238 O250 2.137 1_655 S
Co238 O251 2.249 . S
O239 Co238 2.216 . S
O239 C246 1.247 . S
O240 Co238 2.091 . S
O240 C246 1.261 . S
C241 O250 1.247 . S
C241 O251 1.244 1_455 S
O242 Co238 2.004 . S
O242 C247 1.259 . S
Co243 O244 2.061 . S
Co243 O249 2.052 . S
Co243 O251 2.166 . S
O244 Co243 2.061 . S
O244 C247 1.235 . S
C245 O248 1.238 . S
C245 O249 1.241 . S
C246 O239 1.247 . S
C246 O240 1.261 . S
C247 O242 1.259 . S
C247 O244 1.235 . S
O248 Co238 2.021 . S
O248 C245 1.238 . S
O249 Co243 2.052 . S
O249 C245 1.241 . S
O250 Co238 2.137 1_455 S
O250 C241 1.247 . S
O251 Co238 2.249 . S
O251 C241 1.244 1_655 S
O251 Co243 2.166 . S
C252 C253 1.384 . S
C252 C254 1.384 . S
C252 H280 0.931 . S
C253 C252 1.384 . S
C253 C256 1.382 . S
C254 C252 1.384 . S
C254 C255 1.381 . S
C254 H281 0.930 . S
C255 C254 1.381 . S
C255 C257 1.381 . S
C255 C258 1.487 . S
C256 C253 1.382 . S
C256 C257 1.387 . S
C256 H282 0.930 . S
C257 C255 1.381 . S
C257 C256 1.387 . S
C257 H283 0.931 . S
C258 C255 1.487 . S
C258 C265 1.399 . S
C258 N296 1.343 . S
C259 C260 1.384 . S
C259 C261 1.384 . S
C259 H284 0.931 . S
C260 C259 1.384 . S
C260 C263 1.382 . S
C261 C259 1.384 . S
C261 C262 1.381 . S
C261 H285 0.930 . S
C262 C261 1.381 . S
C262 C264 1.381 . S
C262 C265 1.487 . S
C263 C260 1.382 . S
C263 C264 1.387 . S
C263 H286 0.930 . S
C264 C262 1.381 . S
C264 C263 1.387 . S
C264 H287 0.931 . S
C265 C258 1.399 . S
C265 C262 1.487 . S
C265 N297 1.343 . S
C266 C267 1.384 . S
C266 C268 1.384 . S
C266 H288 0.931 . S
C267 C266 1.384 . S
C267 C270 1.382 . S
C268 C266 1.384 . S
C268 C269 1.381 . S
C268 H289 0.930 . S
C269 C268 1.381 . S
C269 C271 1.381 . S
C269 C272 1.487 . S
C270 C267 1.382 . S
C270 C271 1.387 . S
C270 H290 0.930 . S
C271 C269 1.381 . S
C271 C270 1.387 . S
C271 H291 0.931 . S
C272 C269 1.487 . S
C272 C279 1.399 . S
C272 N297 1.343 . S
C273 C274 1.384 . S
C273 C275 1.384 . S
C273 H292 0.931 . S
C274 C273 1.384 . S
C274 C277 1.382 . S
C275 C273 1.384 . S
C275 C276 1.381 . S
C275 H293 0.930 . S
C276 C275 1.381 . S
C276 C278 1.381 . S
C276 C279 1.487 . S
C277 C274 1.382 . S
C277 C278 1.387 . S
C277 H294 0.930 . S
C278 C276 1.381 . S
C278 C277 1.387 . S
C278 H295 0.931 . S
C279 C272 1.399 . S
C279 C276 1.487 . S
C279 N296 1.343 . S
H280 C252 0.931 . S
H281 C254 0.930 . S
H282 C256 0.930 . S
H283 C257 0.931 . S
H284 C259 0.931 . S
H285 C261 0.930 . S
H286 C263 0.930 . S
H287 C264 0.931 . S
H288 C266 0.931 . S
H289 C268 0.930 . S
H290 C270 0.930 . S
H291 C271 0.931 . S
H292 C273 0.931 . S
H293 C275 0.930 . S
H294 C277 0.930 . S
H295 C278 0.931 . S
N296 C258 1.343 . S
N296 C279 1.343 . S
N297 C265 1.343 . S
N297 C272 1.343 . S
C298 C299 1.384 . S
C298 C300 1.384 . S
C298 H326 0.931 . S
C299 C298 1.384 . S
C299 C302 1.382 . S
C300 C298 1.384 . S
C300 C301 1.381 . S
C300 H327 0.930 . S
C301 C300 1.381 . S
C301 C303 1.381 . S
C301 C304 1.487 . S
C302 C299 1.382 . S
C302 C303 1.387 . S
C302 H328 0.930 . S
C303 C301 1.381 . S
C303 C302 1.387 . S
C303 H329 0.931 . S
C304 C301 1.487 . S
C304 C311 1.399 . S
C304 N342 1.343 . S
C305 C306 1.384 . S
C305 C307 1.384 . S
C305 H330 0.931 . S
C306 C305 1.384 . S
C306 C309 1.382 . S
C307 C305 1.384 . S
C307 C308 1.381 . S
C307 H331 0.930 . S
C308 C307 1.381 . S
C308 C310 1.381 . S
C308 C311 1.487 . S
C309 C306 1.382 . S
C309 C310 1.387 . S
C309 H332 0.930 . S
C310 C308 1.381 . S
C310 C309 1.387 . S
C310 H333 0.931 . S
C311 C304 1.399 . S
C311 C308 1.487 . S
C311 N343 1.343 . S
C312 C313 1.384 . S
C312 C314 1.384 . S
C312 H334 0.931 . S
C313 C312 1.384 . S
C313 C316 1.382 . S
C314 C312 1.384 . S
C314 C315 1.381 . S
C314 H335 0.930 . S
C315 C314 1.381 . S
C315 C317 1.381 . S
C315 C318 1.487 . S
C316 C313 1.382 . S
C316 C317 1.387 . S
C316 H336 0.930 . S
C317 C315 1.381 . S
C317 C316 1.387 . S
C317 H337 0.931 . S
C318 C315 1.487 . S
C318 C325 1.399 . S
C318 N343 1.343 . S
C319 C320 1.384 . S
C319 C321 1.384 . S
C319 H338 0.931 . S
C320 C319 1.384 . S
C320 C323 1.382 . S
C321 C319 1.384 . S
C321 C322 1.381 . S
C321 H339 0.930 . S
C322 C321 1.381 . S
C322 C324 1.381 . S
C322 C325 1.487 . S
C323 C320 1.382 . S
C323 C324 1.387 . S
C323 H340 0.930 . S
C324 C322 1.381 . S
C324 C323 1.387 . S
C324 H341 0.931 . S
C325 C318 1.399 . S
C325 C322 1.487 . S
C325 N342 1.343 . S
H326 C298 0.931 . S
H327 C300 0.930 . S
H328 C302 0.930 . S
H329 C303 0.931 . S
H330 C305 0.931 . S
H331 C307 0.930 . S
H332 C309 0.930 . S
H333 C310 0.931 . S
H334 C312 0.931 . S
H335 C314 0.930 . S
H336 C316 0.930 . S
H337 C317 0.931 . S
H338 C319 0.931 . S
H339 C321 0.930 . S
H340 C323 0.930 . S
H341 C324 0.931 . S
N342 C304 1.343 . S
N342 C325 1.343 . S
N343 C311 1.343 . S
N343 C318 1.343 . S
C344 C345 1.384 . S
C344 C346 1.384 . S
C344 H372 0.931 . S
C345 C344 1.384 . S
C345 C348 1.382 . S
C346 C344 1.384 . S
C346 C347 1.381 . S
C346 H373 0.930 . S
C347 C346 1.381 . S
C347 C349 1.381 . S
C347 C350 1.487 . S
C348 C345 1.382 . S
C348 C349 1.387 . S
C348 H374 0.930 . S
C349 C347 1.381 . S
C349 C348 1.387 . S
C349 H375 0.931 . S
C350 C347 1.487 . S
C350 C357 1.399 . S
C350 N388 1.343 . S
C351 C352 1.384 . S
C351 C353 1.384 . S
C351 H376 0.931 . S
C352 C351 1.384 . S
C352 C355 1.382 . S
C353 C351 1.384 . S
C353 C354 1.381 . S
C353 H377 0.930 . S
C354 C353 1.381 . S
C354 C356 1.381 . S
C354 C357 1.487 . S
C355 C352 1.382 . S
C355 C356 1.387 . S
C355 H378 0.930 . S
C356 C354 1.381 . S
C356 C355 1.387 . S
C356 H379 0.931 . S
C357 C350 1.399 . S
C357 C354 1.487 . S
C357 N389 1.343 . S
C358 C359 1.384 . S
C358 C360 1.384 . S
C358 H380 0.931 . S
C359 C358 1.384 . S
C359 C362 1.382 . S
C360 C358 1.384 . S
C360 C361 1.381 . S
C360 H381 0.930 . S
C361 C360 1.381 . S
C361 C363 1.381 . S
C361 C364 1.487 . S
C362 C359 1.382 . S
C362 C363 1.387 . S
C362 H382 0.930 . S
C363 C361 1.381 . S
C363 C362 1.387 . S
C363 H383 0.931 . S
C364 C361 1.487 . S
C364 C371 1.399 . S
C364 N389 1.343 . S
C365 C366 1.384 . S
C365 C367 1.384 . S
C365 H384 0.931 . S
C366 C365 1.384 . S
C366 C369 1.382 . S
C367 C365 1.384 . S
C367 C368 1.381 . S
C367 H385 0.930 . S
C368 C367 1.381 . S
C368 C370 1.381 . S
C368 C371 1.487 . S
C369 C366 1.382 . S
C369 C370 1.387 . S
C369 H386 0.930 . S
C370 C368 1.381 . S
C370 C369 1.387 . S
C370 H387 0.931 . S
C371 C364 1.399 . S
C371 C368 1.487 . S
C371 N388 1.343 . S
H372 C344 0.931 . S
H373 C346 0.930 . S
H374 C348 0.930 . S
H375 C349 0.931 . S
H376 C351 0.931 . S
H377 C353 0.930 . S
H378 C355 0.930 . S
H379 C356 0.931 . S
H380 C358 0.931 . S
H381 C360 0.930 . S
H382 C362 0.930 . S
H383 C363 0.931 . S
H384 C365 0.931 . S
H385 C367 0.930 . S
H386 C369 0.930 . S
H387 C370 0.931 . S
N388 C350 1.343 . S
N388 C371 1.343 . S
N389 C357 1.343 . S
N389 C364 1.343 . S
C390 C391 1.384 . S
C390 C392 1.384 . S
C390 H418 0.931 . S
C391 C390 1.384 . S
C391 C394 1.382 . S
C392 C390 1.384 . S
C392 C393 1.381 . S
C392 H419 0.930 . S
C393 C392 1.381 . S
C393 C395 1.381 . S
C393 C396 1.487 . S
C394 C391 1.382 . S
C394 C395 1.387 . S
C394 H420 0.930 . S
C395 C393 1.381 . S
C395 C394 1.387 . S
C395 H421 0.931 . S
C396 C393 1.487 . S
C396 C403 1.399 . S
C396 N434 1.343 . S
C397 C398 1.384 . S
C397 C399 1.384 . S
C397 H422 0.931 . S
C398 C397 1.384 . S
C398 C401 1.382 . S
C399 C397 1.384 . S
C399 C400 1.381 . S
C399 H423 0.930 . S
C400 C399 1.381 . S
C400 C402 1.381 . S
C400 C403 1.487 . S
C401 C398 1.382 . S
C401 C402 1.387 . S
C401 H424 0.930 . S
C402 C400 1.381 . S
C402 C401 1.387 . S
C402 H425 0.931 . S
C403 C396 1.399 . S
C403 C400 1.487 . S
C403 N435 1.343 . S
C404 C405 1.384 . S
C404 C406 1.384 . S
C404 H426 0.931 . S
C405 C404 1.384 . S
C405 C408 1.382 . S
C406 C404 1.384 . S
C406 C407 1.381 . S
C406 H427 0.930 . S
C407 C406 1.381 . S
C407 C409 1.381 . S
C407 C410 1.487 . S
C408 C405 1.382 . S
C408 C409 1.387 . S
C408 H428 0.930 . S
C409 C407 1.381 . S
C409 C408 1.387 . S
C409 H429 0.931 . S
C410 C407 1.487 . S
C410 C417 1.399 . S
C410 N435 1.343 . S
C411 C412 1.384 . S
C411 C413 1.384 . S
C411 H430 0.931 . S
C412 C411 1.384 . S
C412 C415 1.382 . S
C413 C411 1.384 . S
C413 C414 1.381 . S
C413 H431 0.930 . S
C414 C413 1.381 . S
C414 C416 1.381 . S
C414 C417 1.487 . S
C415 C412 1.382 . S
C415 C416 1.387 . S
C415 H432 0.930 . S
C416 C414 1.381 . S
C416 C415 1.387 . S
C416 H433 0.931 . S
C417 C410 1.399 . S
C417 C414 1.487 . S
C417 N434 1.343 . S
H418 C390 0.931 . S
H419 C392 0.930 . S
H420 C394 0.930 . S
H421 C395 0.931 . S
H422 C397 0.931 . S
H423 C399 0.930 . S
H424 C401 0.930 . S
H425 C402 0.931 . S
H426 C404 0.931 . S
H427 C406 0.930 . S
H428 C408 0.930 . S
H429 C409 0.931 . S
H430 C411 0.931 . S
H431 C413 0.930 . S
H432 C415 0.930 . S
H433 C416 0.931 . S
N434 C396 1.343 . S
N434 C417 1.343 . S
N435 C403 1.343 . S
N435 C410 1.343 . S
C436 C437 1.384 . S
C436 C438 1.384 . S
C436 H464 0.931 . S
C437 C436 1.384 . S
C437 C440 1.382 . S
C438 C436 1.384 . S
C438 C439 1.381 . S
C438 H465 0.930 . S
C439 C438 1.381 . S
C439 C441 1.381 . S
C439 C442 1.487 . S
C440 C437 1.382 . S
C440 C441 1.387 . S
C440 H466 0.930 . S
C441 C439 1.381 . S
C441 C440 1.387 . S
C441 H467 0.931 . S
C442 C439 1.487 . S
C442 C449 1.399 . S
C442 N480 1.343 . S
C443 C444 1.384 . S
C443 C445 1.384 . S
C443 H468 0.931 . S
C444 C443 1.384 . S
C444 C447 1.382 . S
C445 C443 1.384 . S
C445 C446 1.381 . S
C445 H469 0.930 . S
C446 C445 1.381 . S
C446 C448 1.381 . S
C446 C449 1.487 . S
C447 C444 1.382 . S
C447 C448 1.387 . S
C447 H470 0.930 . S
C448 C446 1.381 . S
C448 C447 1.387 . S
C448 H471 0.931 . S
C449 C442 1.399 . S
C449 C446 1.487 . S
C449 N481 1.343 . S
C450 C451 1.384 . S
C450 C452 1.384 . S
C450 H472 0.931 . S
C451 C450 1.384 . S
C451 C454 1.382 . S
C452 C450 1.384 . S
C452 C453 1.381 . S
C452 H473 0.930 . S
C453 C452 1.381 . S
C453 C455 1.381 . S
C453 C456 1.487 . S
C454 C451 1.382 . S
C454 C455 1.387 . S
C454 H474 0.930 . S
C455 C453 1.381 . S
C455 C454 1.387 . S
C455 H475 0.931 . S
C456 C453 1.487 . S
C456 C463 1.399 . S
C456 N481 1.343 . S
C457 C458 1.384 . S
C457 C459 1.384 . S
C457 H476 0.931 . S
C458 C457 1.384 . S
C458 C461 1.382 . S
C459 C457 1.384 . S
C459 C460 1.381 . S
C459 H477 0.930 . S
C460 C459 1.381 . S
C460 C462 1.381 . S
C460 C463 1.487 . S
C461 C458 1.382 . S
C461 C462 1.387 . S
C461 H478 0.930 . S
C462 C460 1.381 . S
C462 C461 1.387 . S
C462 H479 0.931 . S
C463 C456 1.399 . S
C463 C460 1.487 . S
C463 N480 1.343 . S
H464 C436 0.931 . S
H465 C438 0.930 . S
H466 C440 0.930 . S
H467 C441 0.931 . S
H468 C443 0.931 . S
H469 C445 0.930 . S
H470 C447 0.930 . S
H471 C448 0.931 . S
H472 C450 0.931 . S
H473 C452 0.930 . S
H474 C454 0.930 . S
H475 C455 0.931 . S
H476 C457 0.931 . S
H477 C459 0.930 . S
H478 C461 0.930 . S
H479 C462 0.931 . S
N480 C442 1.343 . S
N480 C463 1.343 . S
N481 C449 1.343 . S
N481 C456 1.343 . S
C482 C483 1.384 . S
C482 C484 1.384 . S
C482 H510 0.931 . S
C483 C482 1.384 . S
C483 C486 1.382 . S
C484 C482 1.384 . S
C484 C485 1.381 . S
C484 H511 0.930 . S
C485 C484 1.381 . S
C485 C487 1.381 . S
C485 C488 1.487 . S
C486 C483 1.382 . S
C486 C487 1.387 . S
C486 H512 0.930 . S
C487 C485 1.381 . S
C487 C486 1.387 . S
C487 H513 0.931 . S
C488 C485 1.487 . S
C488 C495 1.399 . S
C488 N526 1.343 . S
C489 C490 1.384 . S
C489 C491 1.384 . S
C489 H514 0.931 . S
C490 C489 1.384 . S
C490 C493 1.382 . S
C491 C489 1.384 . S
C491 C492 1.381 . S
C491 H515 0.930 . S
C492 C491 1.381 . S
C492 C494 1.381 . S
C492 C495 1.487 . S
C493 C490 1.382 . S
C493 C494 1.387 . S
C493 H516 0.930 . S
C494 C492 1.381 . S
C494 C493 1.387 . S
C494 H517 0.931 . S
C495 C488 1.399 . S
C495 C492 1.487 . S
C495 N527 1.343 . S
C496 C497 1.384 . S
C496 C498 1.384 . S
C496 H518 0.931 . S
C497 C496 1.384 . S
C497 C500 1.382 . S
C498 C496 1.384 . S
C498 C499 1.381 . S
C498 H519 0.930 . S
C499 C498 1.381 . S
C499 C501 1.381 . S
C499 C502 1.487 . S
C500 C497 1.382 . S
C500 C501 1.387 . S
C500 H520 0.930 . S
C501 C499 1.381 . S
C501 C500 1.387 . S
C501 H521 0.931 . S
C502 C499 1.487 . S
C502 C509 1.399 . S
C502 N527 1.343 . S
C503 C504 1.384 . S
C503 C505 1.384 . S
C503 H522 0.931 . S
C504 C503 1.384 . S
C504 C507 1.382 . S
C505 C503 1.384 . S
C505 C506 1.381 . S
C505 H523 0.930 . S
C506 C505 1.381 . S
C506 C508 1.381 . S
C506 C509 1.487 . S
C507 C504 1.382 . S
C507 C508 1.387 . S
C507 H524 0.930 . S
C508 C506 1.381 . S
C508 C507 1.387 . S
C508 H525 0.931 . S
C509 C502 1.399 . S
C509 C506 1.487 . S
C509 N526 1.343 . S
H510 C482 0.931 . S
H511 C484 0.930 . S
H512 C486 0.930 . S
H513 C487 0.931 . S
H514 C489 0.931 . S
H515 C491 0.930 . S
H516 C493 0.930 . S
H517 C494 0.931 . S
H518 C496 0.931 . S
H519 C498 0.930 . S
H520 C500 0.930 . S
H521 C501 0.931 . S
H522 C503 0.931 . S
H523 C505 0.930 . S
H524 C507 0.930 . S
H525 C508 0.931 . S
N526 C488 1.343 . S
N526 C509 1.343 . S
N527 C495 1.343 . S
N527 C502 1.343 . S
C528 C529 1.384 . S
C528 C530 1.384 . S
C528 H556 0.931 . S
C529 C528 1.384 . S
C529 C532 1.382 . S
C530 C528 1.384 . S
C530 C531 1.381 . S
C530 H557 0.930 . S
C531 C530 1.381 . S
C531 C533 1.381 . S
C531 C534 1.487 . S
C532 C529 1.382 . S
C532 C533 1.387 . S
C532 H558 0.930 . S
C533 C531 1.381 . S
C533 C532 1.387 . S
C533 H559 0.931 . S
C534 C531 1.487 . S
C534 C541 1.399 . S
C534 N572 1.343 . S
C535 C536 1.384 . S
C535 C537 1.384 . S
C535 H560 0.931 . S
C536 C535 1.384 . S
C536 C539 1.382 . S
C537 C535 1.384 . S
C537 C538 1.381 . S
C537 H561 0.930 . S
C538 C537 1.381 . S
C538 C540 1.381 . S
C538 C541 1.487 . S
C539 C536 1.382 . S
C539 C540 1.387 . S
C539 H562 0.930 . S
C540 C538 1.381 . S
C540 C539 1.387 . S
C540 H563 0.931 . S
C541 C534 1.399 . S
C541 C538 1.487 . S
C541 N573 1.343 . S
C542 C543 1.384 . S
C542 C544 1.384 . S
C542 H564 0.931 . S
C543 C542 1.384 . S
C543 C546 1.382 . S
C544 C542 1.384 . S
C544 C545 1.381 . S
C544 H565 0.930 . S
C545 C544 1.381 . S
C545 C547 1.381 . S
C545 C548 1.487 . S
C546 C543 1.382 . S
C546 C547 1.387 . S
C546 H566 0.930 . S
C547 C545 1.381 . S
C547 C546 1.387 . S
C547 H567 0.931 . S
C548 C545 1.487 . S
C548 C555 1.399 . S
C548 N573 1.343 . S
C549 C550 1.384 . S
C549 C551 1.384 . S
C549 H568 0.931 . S
C550 C549 1.384 . S
C550 C553 1.382 . S
C551 C549 1.384 . S
C551 C552 1.381 . S
C551 H569 0.930 . S
C552 C551 1.381 . S
C552 C554 1.381 . S
C552 C555 1.487 . S
C553 C550 1.382 . S
C553 C554 1.387 . S
C553 H570 0.930 . S
C554 C552 1.381 . S
C554 C553 1.387 . S
C554 H571 0.931 . S
C555 C548 1.399 . S
C555 C552 1.487 . S
C555 N572 1.343 . S
H556 C528 0.931 . S
H557 C530 0.930 . S
H558 C532 0.930 . S
H559 C533 0.931 . S
H560 C535 0.931 . S
H561 C537 0.930 . S
H562 C539 0.930 . S
H563 C540 0.931 . S
H564 C542 0.931 . S
H565 C544 0.930 . S
H566 C546 0.930 . S
H567 C547 0.931 . S
H568 C549 0.931 . S
H569 C551 0.930 . S
H570 C553 0.930 . S
H571 C554 0.931 . S
N572 C534 1.343 . S
N572 C555 1.343 . S
N573 C541 1.343 . S
N573 C548 1.343 . S
C574 C575 1.384 . S
C574 C576 1.384 . S
C574 H602 0.931 . S
C575 C574 1.384 . S
C575 C578 1.382 . S
C576 C574 1.384 . S
C576 C577 1.381 . S
C576 H603 0.930 . S
C577 C576 1.381 . S
C577 C579 1.381 . S
C577 C580 1.487 . S
C578 C575 1.382 . S
C578 C579 1.387 . S
C578 H604 0.930 . S
C579 C577 1.381 . S
C579 C578 1.387 . S
C579 H605 0.931 . S
C580 C577 1.487 . S
C580 C587 1.399 . S
C580 N618 1.343 . S
C581 C582 1.384 . S
C581 C583 1.384 . S
C581 H606 0.931 . S
C582 C581 1.384 . S
C582 C585 1.382 . S
C583 C581 1.384 . S
C583 C584 1.381 . S
C583 H607 0.930 . S
C584 C583 1.381 . S
C584 C586 1.381 . S
C584 C587 1.487 . S
C585 C582 1.382 . S
C585 C586 1.387 . S
C585 H608 0.930 . S
C586 C584 1.381 . S
C586 C585 1.387 . S
C586 H609 0.931 . S
C587 C580 1.399 . S
C587 C584 1.487 . S
C587 N619 1.343 . S
C588 C589 1.384 . S
C588 C590 1.384 . S
C588 H610 0.931 . S
C589 C588 1.384 . S
C589 C592 1.382 . S
C590 C588 1.384 . S
C590 C591 1.381 . S
C590 H611 0.930 . S
C591 C590 1.381 . S
C591 C593 1.381 . S
C591 C594 1.487 . S
C592 C589 1.382 . S
C592 C593 1.387 . S
C592 H612 0.930 . S
C593 C591 1.381 . S
C593 C592 1.387 . S
C593 H613 0.931 . S
C594 C591 1.487 . S
C594 C601 1.399 . S
C594 N619 1.343 . S
C595 C596 1.384 . S
C595 C597 1.384 . S
C595 H614 0.931 . S
C596 C595 1.384 . S
C596 C599 1.382 . S
C597 C595 1.384 . S
C597 C598 1.381 . S
C597 H615 0.930 . S
C598 C597 1.381 . S
C598 C600 1.381 . S
C598 C601 1.487 . S
C599 C596 1.382 . S
C599 C600 1.387 . S
C599 H616 0.930 . S
C600 C598 1.381 . S
C600 C599 1.387 . S
C600 H617 0.931 . S
C601 C594 1.399 . S
C601 C598 1.487 . S
C601 N618 1.343 . S
H602 C574 0.931 . S
H603 C576 0.930 . S
H604 C578 0.930 . S
H605 C579 0.931 . S
H606 C581 0.931 . S
H607 C583 0.930 . S
H608 C585 0.930 . S
H609 C586 0.931 . S
H610 C588 0.931 . S
H611 C590 0.930 . S
H612 C592 0.930 . S
H613 C593 0.931 . S
H614 C595 0.931 . S
H615 C597 0.930 . S
H616 C599 0.930 . S
H617 C600 0.931 . S
N618 C580 1.343 . S
N618 C601 1.343 . S
N619 C587 1.343 . S
N619 C594 1.343 . S
C620 C621 1.384 . S
C620 C622 1.384 . S
C620 H648 0.931 . S
C621 C620 1.384 . S
C621 C624 1.382 . S
C622 C620 1.384 . S
C622 C623 1.381 . S
C622 H649 0.930 . S
C623 C622 1.381 . S
C623 C625 1.381 . S
C623 C626 1.487 . S
C624 C621 1.382 . S
C624 C625 1.387 . S
C624 H650 0.930 . S
C625 C623 1.381 . S
C625 C624 1.387 . S
C625 H651 0.931 . S
C626 C623 1.487 . S
C626 C633 1.399 . S
C626 N664 1.343 . S
C627 C628 1.384 . S
C627 C629 1.384 . S
C627 H652 0.931 . S
C628 C627 1.384 . S
C628 C631 1.382 . S
C629 C627 1.384 . S
C629 C630 1.381 . S
C629 H653 0.930 . S
C630 C629 1.381 . S
C630 C632 1.381 . S
C630 C633 1.487 . S
C631 C628 1.382 . S
C631 C632 1.387 . S
C631 H654 0.930 . S
C632 C630 1.381 . S
C632 C631 1.387 . S
C632 H655 0.931 . S
C633 C626 1.399 . S
C633 C630 1.487 . S
C633 N665 1.343 . S
C634 C635 1.384 . S
C634 C636 1.384 . S
C634 H656 0.931 . S
C635 C634 1.384 . S
C635 C638 1.382 . S
C636 C634 1.384 . S
C636 C637 1.381 . S
C636 H657 0.930 . S
C637 C636 1.381 . S
C637 C639 1.381 . S
C637 C640 1.487 . S
C638 C635 1.382 . S
C638 C639 1.387 . S
C638 H658 0.930 . S
C639 C637 1.381 . S
C639 C638 1.387 . S
C639 H659 0.931 . S
C640 C637 1.487 . S
C640 C647 1.399 . S
C640 N665 1.343 . S
C641 C642 1.384 . S
C641 C643 1.384 . S
C641 H660 0.931 . S
C642 C641 1.384 . S
C642 C645 1.382 . S
C643 C641 1.384 . S
C643 C644 1.381 . S
C643 H661 0.930 . S
C644 C643 1.381 . S
C644 C646 1.381 . S
C644 C647 1.487 . S
C645 C642 1.382 . S
C645 C646 1.387 . S
C645 H662 0.930 . S
C646 C644 1.381 . S
C646 C645 1.387 . S
C646 H663 0.931 . S
C647 C640 1.399 . S
C647 C644 1.487 . S
C647 N664 1.343 . S
H648 C620 0.931 . S
H649 C622 0.930 . S
H650 C624 0.930 . S
H651 C625 0.931 . S
H652 C627 0.931 . S
H653 C629 0.930 . S
H654 C631 0.930 . S
H655 C632 0.931 . S
H656 C634 0.931 . S
H657 C636 0.930 . S
H658 C638 0.930 . S
H659 C639 0.931 . S
H660 C641 0.931 . S
H661 C643 0.930 . S
H662 C645 0.930 . S
H663 C646 0.931 . S
N664 C626 1.343 . S
N664 C647 1.343 . S
N665 C633 1.343 . S
N665 C640 1.343 . S
C666 C667 1.384 . S
C666 C668 1.384 . S
C666 H694 0.931 . S
C667 C666 1.384 . S
C667 C670 1.382 1_655 S
C668 C666 1.384 . S
C668 C669 1.405 . S
C668 H695 0.930 . S
C669 C668 1.405 . S
C669 C671 1.369 1_655 S
C669 C672 1.473 1_655 S
C670 C667 1.382 1_455 S
C670 C671 1.387 . S
C670 H696 0.930 . S
C671 C669 1.369 1_455 S
C671 C670 1.387 . S
C671 H697 0.931 . S
C672 C669 1.473 1_455 S
C672 C679 1.399 1_455 S
C672 N710 1.312 . S
C673 C674 1.384 . S
C673 C675 1.384 . S
C673 H698 0.931 . S
C674 C673 1.384 . S
C674 C677 1.382 1_455 S
C675 C673 1.384 . S
C675 C676 1.382 1_455 S
C675 H699 0.930 . S
C676 C675 1.382 1_655 S
C676 C678 1.378 . S
C676 C679 1.496 . S
C677 C674 1.382 1_655 S
C677 C678 1.387 . S
C677 H700 0.930 . S
C678 C676 1.378 . S
C678 C677 1.387 . S
C678 H701 0.931 . S
C679 C672 1.399 1_655 S
C679 C676 1.496 . S
C679 N711 1.361 . S
C680 C681 1.384 . S
C680 C682 1.384 . S
C680 H702 0.931 . S
C681 C680 1.384 . S
C681 C684 1.382 1_455 S
C682 C680 1.384 . S
C682 C683 1.422 . S
C682 H703 0.930 . S
C683 C682 1.422 . S
C683 C685 1.361 1_455 S
C683 C686 1.465 . S
C684 C681 1.382 1_655 S
C684 C685 1.387 . S
C684 H704 0.930 . S
C685 C683 1.361 1_655 S
C685 C684 1.387 . S
C685 H705 0.931 . S
C686 C683 1.465 . S
C686 C693 1.399 . S
C686 N711 1.319 1_455 S
C687 C688 1.384 . S
C687 C689 1.384 . S
C687 H706 0.931 . S
C688 C687 1.384 . S
C688 C691 1.382 1_655 S
C689 C687 1.384 . S
C689 C690 1.379 1_655 S
C689 H707 0.930 . S
C690 C689 1.379 1_455 S
C690 C692 1.388 . S
C690 C693 1.496 . S
C691 C688 1.382 1_455 S
C691 C692 1.387 . S
C691 H708 0.930 . S
C692 C690 1.388 . S
C692 C691 1.387 . S
C692 H709 0.931 . S
C693 C686 1.399 . S
C693 C690 1.496 . S
C693 N710 1.361 . S
H694 C666 0.931 . S
H695 C668 0.930 . S
H696 C670 0.930 . S
H697 C671 0.931 . S
H698 C673 0.931 . S
H699 C675 0.930 . S
H700 C677 0.930 . S
H701 C678 0.931 . S
H702 C680 0.931 . S
H703 C682 0.930 . S
H704 C684 0.930 . S
H705 C685 0.931 . S
H706 C687 0.931 . S
H707 C689 0.930 . S
H708 C691 0.930 . S
H709 C692 0.931 . S
N710 C672 1.312 . S
N710 C693 1.361 . S
N711 C679 1.361 . S
N711 C686 1.319 1_655 S
C712 C713 1.384 . S
C712 C714 1.384 . S
C712 H740 0.931 . S
C713 C712 1.384 . S
C713 C716 1.382 . S
C714 C712 1.384 . S
C714 C715 1.381 . S
C714 H741 0.930 . S
C715 C714 1.381 . S
C715 C717 1.381 . S
C715 C718 1.487 . S
C716 C713 1.382 . S
C716 C717 1.387 . S
C716 H742 0.930 . S
C717 C715 1.381 . S
C717 C716 1.387 . S
C717 H743 0.931 . S
C718 C715 1.487 . S
C718 C725 1.399 . S
C718 N756 1.343 . S
C719 C720 1.384 . S
C719 C721 1.384 . S
C719 H744 0.931 . S
C720 C719 1.384 . S
C720 C723 1.382 . S
C721 C719 1.384 . S
C721 C722 1.381 . S
C721 H745 0.930 . S
C722 C721 1.381 . S
C722 C724 1.381 . S
C722 C725 1.487 . S
C723 C720 1.382 . S
C723 C724 1.387 . S
C723 H746 0.930 . S
C724 C722 1.381 . S
C724 C723 1.387 . S
C724 H747 0.931 . S
C725 C718 1.399 . S
C725 C722 1.487 . S
C725 N757 1.343 . S
C726 C727 1.384 . S
C726 C728 1.384 . S
C726 H748 0.931 . S
C727 C726 1.384 . S
C727 C730 1.382 . S
C728 C726 1.384 . S
C728 C729 1.381 . S
C728 H749 0.930 . S
C729 C728 1.381 . S
C729 C731 1.381 . S
C729 C732 1.487 . S
C730 C727 1.382 . S
C730 C731 1.387 . S
C730 H750 0.930 . S
C731 C729 1.381 . S
C731 C730 1.387 . S
C731 H751 0.931 . S
C732 C729 1.487 . S
C732 C739 1.399 . S
C732 N757 1.343 . S
C733 C734 1.384 . S
C733 C735 1.384 . S
C733 H752 0.931 . S
C734 C733 1.384 . S
C734 C737 1.382 . S
C735 C733 1.384 . S
C735 C736 1.381 . S
C735 H753 0.930 . S
C736 C735 1.381 . S
C736 C738 1.381 . S
C736 C739 1.487 . S
C737 C734 1.382 . S
C737 C738 1.387 . S
C737 H754 0.930 . S
C738 C736 1.381 . S
C738 C737 1.387 . S
C738 H755 0.931 . S
C739 C732 1.399 . S
C739 C736 1.487 . S
C739 N756 1.343 . S
H740 C712 0.931 . S
H741 C714 0.930 . S
H742 C716 0.930 . S
H743 C717 0.931 . S
H744 C719 0.931 . S
H745 C721 0.930 . S
H746 C723 0.930 . S
H747 C724 0.931 . S
H748 C726 0.931 . S
H749 C728 0.930 . S
H750 C730 0.930 . S
H751 C731 0.931 . S
H752 C733 0.931 . S
H753 C735 0.930 . S
H754 C737 0.930 . S
H755 C738 0.931 . S
N756 C718 1.343 . S
N756 C739 1.343 . S
N757 C725 1.343 . S
N757 C732 1.343 . S
C758 C759 1.384 1_545 S
C758 C760 1.384 . S
C758 H786 0.931 . S
C759 C758 1.384 1_565 S
C759 C762 1.382 . S
C760 C758 1.384 . S
C760 C761 1.381 1_545 S
C760 H787 0.930 . S
C761 C760 1.381 1_565 S
C761 C763 1.381 . S
C761 C764 1.487 . S
C762 C759 1.382 . S
C762 C763 1.387 . S
C762 H788 0.930 . S
C763 C761 1.381 . S
C763 C762 1.387 . S
C763 H789 0.931 . S
C764 C761 1.487 . S
C764 C771 1.399 1_565 S
C764 N802 1.343 . S
C765 C766 1.384 1_565 S
C765 C767 1.384 . S
C765 H790 0.931 . S
C766 C765 1.384 1_545 S
C766 C769 1.382 . S
C767 C765 1.384 . S
C767 C768 1.381 1_565 S
C767 H791 0.930 . S
C768 C767 1.381 1_545 S
C768 C770 1.381 . S
C768 C771 1.487 . S
C769 C766 1.382 . S
C769 C770 1.387 . S
C769 H792 0.930 . S
C770 C768 1.381 . S
C770 C769 1.387 . S
C770 H793 0.931 . S
C771 C764 1.399 1_545 S
C771 C768 1.487 . S
C771 N803 1.343 . S
C772 C773 1.384 1_565 S
C772 C774 1.384 . S
C772 H794 0.931 . S
C773 C772 1.384 1_545 S
C773 C776 1.382 . S
C774 C772 1.384 . S
C774 C775 1.381 1_565 S
C774 H795 0.930 . S
C775 C774 1.381 1_545 S
C775 C777 1.381 . S
C775 C778 1.487 . S
C776 C773 1.382 . S
C776 C777 1.387 . S
C776 H796 0.930 . S
C777 C775 1.381 . S
C777 C776 1.387 . S
C777 H797 0.931 . S
C778 C775 1.487 . S
C778 C785 1.399 1_545 S
C778 N803 1.343 . S
C779 C780 1.384 1_545 S
C779 C781 1.384 . S
C779 H798 0.931 . S
C780 C779 1.384 1_565 S
C780 C783 1.382 . S
C781 C779 1.384 . S
C781 C782 1.381 1_545 S
C781 H799 0.930 . S
C782 C781 1.381 1_565 S
C782 C784 1.381 . S
C782 C785 1.487 . S
C783 C780 1.382 . S
C783 C784 1.387 . S
C783 H800 0.930 . S
C784 C782 1.381 . S
C784 C783 1.387 . S
C784 H801 0.931 . S
C785 C778 1.399 1_565 S
C785 C782 1.487 . S
C785 N802 1.343 . S
H786 C758 0.931 . S
H787 C760 0.930 . S
H788 C762 0.930 . S
H789 C763 0.931 . S
H790 C765 0.931 . S
H791 C767 0.930 . S
H792 C769 0.930 . S
H793 C770 0.931 . S
H794 C772 0.931 . S
H795 C774 0.930 . S
H796 C776 0.930 . S
H797 C777 0.931 . S
H798 C779 0.931 . S
H799 C781 0.930 . S
H800 C783 0.930 . S
H801 C784 0.931 . S
N802 C764 1.343 . S
N802 C785 1.343 . S
N803 C771 1.343 . S
N803 C778 1.343 . S
C804 C805 1.384 . S
C804 C806 1.384 . S
C804 H832 0.931 . S
C805 C804 1.384 . S
C805 C808 1.382 1_545 S
C806 C804 1.384 . S
C806 C807 1.380 . S
C806 H833 0.930 . S
C807 C806 1.380 . S
C807 C809 1.385 1_545 S
C807 C810 1.490 1_545 S
C808 C805 1.382 1_565 S
C808 C809 1.387 . S
C808 H834 0.930 . S
C809 C807 1.385 1_565 S
C809 C808 1.387 . S
C809 H835 0.931 . S
C810 C807 1.490 1_565 S
C810 C817 1.399 1_565 S
C810 N848 1.363 . S
C811 C812 1.384 . S
C811 C813 1.384 . S
C811 H836 0.931 . S
C812 C811 1.384 . S
C812 C815 1.382 1_565 S
C813 C811 1.384 . S
C813 C814 1.400 . S
C813 H837 0.930 . S
C814 C813 1.400 . S
C814 C816 1.372 1_565 S
C814 C817 1.474 1_565 S
C815 C812 1.382 1_545 S
C815 C816 1.387 . S
C815 H838 0.930 . S
C816 C814 1.372 1_545 S
C816 C815 1.387 . S
C816 H839 0.931 . S
C817 C810 1.399 1_545 S
C817 C814 1.474 1_545 S
C817 N849 1.313 . S
C818 C819 1.384 . S
C818 C820 1.384 . S
C818 H840 0.931 . S
C819 C818 1.384 . S
C819 C822 1.382 1_565 S
C820 C818 1.384 . S
C820 C821 1.380 1_565 S
C820 H841 0.930 . S
C821 C820 1.380 1_545 S
C821 C823 1.385 . S
C821 C824 1.497 . S
C822 C819 1.382 1_545 S
C822 C823 1.387 . S
C822 H842 0.930 . S
C823 C821 1.385 . S
C823 C822 1.387 . S
C823 H843 0.931 . S
C824 C821 1.497 . S
C824 C831 1.399 1_545 S
C824 N849 1.363 . S
C825 C826 1.384 . S
C825 C827 1.384 . S
C825 H844 0.931 . S
C826 C825 1.384 . S
C826 C829 1.382 1_545 S
C827 C825 1.384 . S
C827 C828 1.416 . S
C827 H845 0.930 . S
C828 C827 1.416 . S
C828 C830 1.364 1_545 S
C828 C831 1.474 1_545 S
C829 C826 1.382 1_565 S
C829 C830 1.387 . S
C829 H846 0.930 . S
C830 C828 1.364 1_565 S
C830 C829 1.387 . S
C830 H847 0.931 . S
C831 C824 1.399 1_565 S
C831 C828 1.474 1_565 S
C831 N848 1.313 . S
H832 C804 0.931 . S
H833 C806 0.930 . S
H834 C808 0.930 . S
H835 C809 0.931 . S
H836 C811 0.931 . S
H837 C813 0.930 . S
H838 C815 0.930 . S
H839 C816 0.931 . S
H840 C818 0.931 . S
H841 C820 0.930 . S
H842 C822 0.930 . S
H843 C823 0.931 . S
H844 C825 0.931 . S
H845 C827 0.930 . S
H846 C829 0.930 . S
H847 C830 0.931 . S
N848 C810 1.363 . S
N848 C831 1.313 . S
N849 C817 1.313 . S
N849 C824 1.363 . S
C850 C851 1.384 . S
C850 C852 1.384 . S
C850 H878 0.931 . S
C851 C850 1.384 . S
C851 C854 1.382 1_655 S
C852 C850 1.384 . S
C852 C853 1.431 . S
C852 H879 0.930 . S
C853 C852 1.431 . S
C853 C855 1.357 1_655 S
C853 C856 1.463 . S
C854 C851 1.382 1_455 S
C854 C855 1.387 . S
C854 H880 0.930 . S
C855 C853 1.357 1_455 S
C855 C854 1.387 . S
C855 H881 0.931 . S
C856 C853 1.463 . S
C856 C863 1.399 . S
C856 N894 1.321 1_655 S
C857 C858 1.384 . S
C857 C859 1.384 . S
C857 H882 0.931 . S
C858 C857 1.384 . S
C858 C861 1.382 1_455 S
C859 C857 1.384 . S
C859 C860 1.381 1_455 S
C859 H883 0.930 . S
C860 C859 1.381 1_655 S
C860 C862 1.383 . S
C860 C863 1.498 . S
C861 C858 1.382 1_655 S
C861 C862 1.387 . S
C861 H884 0.930 . S
C862 C860 1.383 . S
C862 C861 1.387 . S
C862 H885 0.931 . S
C863 C856 1.399 . S
C863 C860 1.498 . S
C863 N895 1.360 . S
C864 C865 1.384 . S
C864 C866 1.384 . S
C864 H886 0.931 . S
C865 C864 1.384 . S
C865 C868 1.382 1_455 S
C866 C864 1.384 . S
C866 C867 1.414 . S
C866 H887 0.930 . S
C867 C866 1.414 . S
C867 C869 1.365 1_455 S
C867 C870 1.470 1_455 S
C868 C865 1.382 1_655 S
C868 C869 1.387 . S
C868 H888 0.930 . S
C869 C867 1.365 1_655 S
C869 C868 1.387 . S
C869 H889 0.931 . S
C870 C867 1.470 1_655 S
C870 C877 1.399 1_655 S
C870 N895 1.313 . S
C871 C872 1.384 . S
C871 C873 1.384 . S
C871 H890 0.931 . S
C872 C871 1.384 . S
C872 C875 1.382 1_655 S
C873 C871 1.384 . S
C873 C874 1.381 . S
C873 H891 0.930 . S
C874 C873 1.381 . S
C874 C876 1.383 1_655 S
C874 C877 1.491 1_655 S
C875 C872 1.382 1_455 S
C875 C876 1.387 . S
C875 H892 0.930 . S
C876 C874 1.383 1_455 S
C876 C875 1.387 . S
C876 H893 0.931 . S
C877 C870 1.399 1_455 S
C877 C874 1.491 1_455 S
C877 N894 1.360 . S
H878 C850 0.931 . S
H879 C852 0.930 . S
H880 C854 0.930 . S
H881 C855 0.931 . S
H882 C857 0.931 . S
H883 C859 0.930 . S
H884 C861 0.930 . S
H885 C862 0.931 . S
H886 C864 0.931 . S
H887 C866 0.930 . S
H888 C868 0.930 . S
H889 C869 0.931 . S
H890 C871 0.931 . S
H891 C873 0.930 . S
H892 C875 0.930 . S
H893 C876 0.931 . S
N894 C856 1.321 1_455 S
N894 C877 1.360 . S
N895 C863 1.360 . S
N895 C870 1.313 . S
C896 C897 1.384 . S
C896 C898 1.384 . S
C896 H924 0.931 . S
C897 C896 1.384 . S
C897 C900 1.382 . S
C898 C896 1.384 . S
C898 C899 1.381 . S
C898 H925 0.930 . S
C899 C898 1.381 . S
C899 C901 1.381 . S
C899 C902 1.487 . S
C900 C897 1.382 . S
C900 C901 1.387 . S
C900 H926 0.930 . S
C901 C899 1.381 . S
C901 C900 1.387 . S
C901 H927 0.931 . S
C902 C899 1.487 . S
C902 C909 1.399 . S
C902 N940 1.343 . S
C903 C904 1.384 . S
C903 C905 1.384 . S
C903 H928 0.931 . S
C904 C903 1.384 . S
C904 C907 1.382 . S
C905 C903 1.384 . S
C905 C906 1.381 . S
C905 H929 0.930 . S
C906 C905 1.381 . S
C906 C908 1.381 . S
C906 C909 1.487 . S
C907 C904 1.382 . S
C907 C908 1.387 . S
C907 H930 0.930 . S
C908 C906 1.381 . S
C908 C907 1.387 . S
C908 H931 0.931 . S
C909 C902 1.399 . S
C909 C906 1.487 . S
C909 N941 1.343 . S
C910 C911 1.384 . S
C910 C912 1.384 . S
C910 H932 0.931 . S
C911 C910 1.384 . S
C911 C914 1.382 . S
C912 C910 1.384 . S
C912 C913 1.381 . S
C912 H933 0.930 . S
C913 C912 1.381 . S
C913 C915 1.381 . S
C913 C916 1.487 . S
C914 C911 1.382 . S
C914 C915 1.387 . S
C914 H934 0.930 . S
C915 C913 1.381 . S
C915 C914 1.387 . S
C915 H935 0.931 . S
C916 C913 1.487 . S
C916 C923 1.399 . S
C916 N941 1.343 . S
C917 C918 1.384 . S
C917 C919 1.384 . S
C917 H936 0.931 . S
C918 C917 1.384 . S
C918 C921 1.382 . S
C919 C917 1.384 . S
C919 C920 1.381 . S
C919 H937 0.930 . S
C920 C919 1.381 . S
C920 C922 1.381 . S
C920 C923 1.487 . S
C921 C918 1.382 . S
C921 C922 1.387 . S
C921 H938 0.930 . S
C922 C920 1.381 . S
C922 C921 1.387 . S
C922 H939 0.931 . S
C923 C916 1.399 . S
C923 C920 1.487 . S
C923 N940 1.343 . S
H924 C896 0.931 . S
H925 C898 0.930 . S
H926 C900 0.930 . S
H927 C901 0.931 . S
H928 C903 0.931 . S
H929 C905 0.930 . S
H930 C907 0.930 . S
H931 C908 0.931 . S
H932 C910 0.931 . S
H933 C912 0.930 . S
H934 C914 0.930 . S
H935 C915 0.931 . S
H936 C917 0.931 . S
H937 C919 0.930 . S
H938 C921 0.930 . S
H939 C922 0.931 . S
N940 C902 1.343 . S
N940 C923 1.343 . S
N941 C909 1.343 . S
N941 C916 1.343 . S
C942 C943 1.384 . S
C942 C944 1.384 . S
C942 H970 0.931 . S
C943 C942 1.384 . S
C943 C946 1.382 . S
C944 C942 1.384 . S
C944 C945 1.381 . S
C944 H971 0.930 . S
C945 C944 1.381 . S
C945 C947 1.381 . S
C945 C948 1.487 . S
C946 C943 1.382 . S
C946 C947 1.387 . S
C946 H972 0.930 . S
C947 C945 1.381 . S
C947 C946 1.387 . S
C947 H973 0.931 . S
C948 C945 1.487 . S
C948 C955 1.399 . S
C948 N986 1.343 . S
C949 C950 1.384 . S
C949 C951 1.384 . S
C949 H974 0.931 . S
C950 C949 1.384 . S
C950 C953 1.382 . S
C951 C949 1.384 . S
C951 C952 1.381 . S
C951 H975 0.930 . S
C952 C951 1.381 . S
C952 C954 1.381 . S
C952 C955 1.487 . S
C953 C950 1.382 . S
C953 C954 1.387 . S
C953 H976 0.930 . S
C954 C952 1.381 . S
C954 C953 1.387 . S
C954 H977 0.931 . S
C955 C948 1.399 . S
C955 C952 1.487 . S
C955 N987 1.343 . S
C956 C957 1.384 . S
C956 C958 1.384 . S
C956 H978 0.931 . S
C957 C956 1.384 . S
C957 C960 1.382 . S
C958 C956 1.384 . S
C958 C959 1.381 . S
C958 H979 0.930 . S
C959 C958 1.381 . S
C959 C961 1.381 . S
C959 C962 1.487 . S
C960 C957 1.382 . S
C960 C961 1.387 . S
C960 H980 0.930 . S
C961 C959 1.381 . S
C961 C960 1.387 . S
C961 H981 0.931 . S
C962 C959 1.487 . S
C962 C969 1.399 . S
C962 N987 1.343 . S
C963 C964 1.384 . S
C963 C965 1.384 . S
C963 H982 0.931 . S
C964 C963 1.384 . S
C964 C967 1.382 . S
C965 C963 1.384 . S
C965 C966 1.381 . S
C965 H983 0.930 . S
C966 C965 1.381 . S
C966 C968 1.381 . S
C966 C969 1.487 . S
C967 C964 1.382 . S
C967 C968 1.387 . S
C967 H984 0.930 . S
C968 C966 1.381 . S
C968 C967 1.387 . S
C968 H985 0.931 . S
C969 C962 1.399 . S
C969 C966 1.487 . S
C969 N986 1.343 . S
H970 C942 0.931 . S
H971 C944 0.930 . S
H972 C946 0.930 . S
H973 C947 0.931 . S
H974 C949 0.931 . S
H975 C951 0.930 . S
H976 C953 0.930 . S
H977 C954 0.931 . S
H978 C956 0.931 . S
H979 C958 0.930 . S
H980 C960 0.930 . S
H981 C961 0.931 . S
H982 C963 0.931 . S
H983 C965 0.930 . S
H984 C967 0.930 . S
H985 C968 0.931 . S
N986 C948 1.343 . S
N986 C969 1.343 . S
N987 C955 1.343 . S
N987 C962 1.343 . S
C988 C989 1.384 . S
C988 C990 1.384 . S
C988 H1016 0.931 . S
C989 C988 1.384 . S
C989 C992 1.382 . S
C990 C988 1.384 . S
C990 C991 1.381 . S
C990 H1017 0.930 . S
C991 C990 1.381 . S
C991 C993 1.381 . S
C991 C994 1.487 . S
C992 C989 1.382 . S
C992 C993 1.387 . S
C992 H1018 0.930 . S
C993 C991 1.381 . S
C993 C992 1.387 . S
C993 H1019 0.931 . S
C994 C991 1.487 . S
C994 C1001 1.399 . S
C994 N1032 1.343 . S
C995 C996 1.384 . S
C995 C997 1.384 . S
C995 H1020 0.931 . S
C996 C995 1.384 . S
C996 C999 1.382 . S
C997 C995 1.384 . S
C997 C998 1.381 . S
C997 H1021 0.930 . S
C998 C997 1.381 . S
C998 C1000 1.381 . S
C998 C1001 1.487 . S
C999 C996 1.382 . S
C999 C1000 1.387 . S
C999 H1022 0.930 . S
C1000 C998 1.381 . S
C1000 C999 1.387 . S
C1000 H1023 0.931 . S
C1001 C994 1.399 . S
C1001 C998 1.487 . S
C1001 N1033 1.343 . S
C1002 C1003 1.384 . S
C1002 C1004 1.384 . S
C1002 H1024 0.931 . S
C1003 C1002 1.384 . S
C1003 C1006 1.382 . S
C1004 C1002 1.384 . S
C1004 C1005 1.381 . S
C1004 H1025 0.930 . S
C1005 C1004 1.381 . S
C1005 C1007 1.381 . S
C1005 C1008 1.487 . S
C1006 C1003 1.382 . S
C1006 C1007 1.387 . S
C1006 H1026 0.930 . S
C1007 C1005 1.381 . S
C1007 C1006 1.387 . S
C1007 H1027 0.931 . S
C1008 C1005 1.487 . S
C1008 C1015 1.399 . S
C1008 N1033 1.343 . S
C1009 C1010 1.384 . S
C1009 C1011 1.384 . S
C1009 H1028 0.931 . S
C1010 C1009 1.384 . S
C1010 C1013 1.382 . S
C1011 C1009 1.384 . S
C1011 C1012 1.381 . S
C1011 H1029 0.930 . S
C1012 C1011 1.381 . S
C1012 C1014 1.381 . S
C1012 C1015 1.487 . S
C1013 C1010 1.382 . S
C1013 C1014 1.387 . S
C1013 H1030 0.930 . S
C1014 C1012 1.381 . S
C1014 C1013 1.387 . S
C1014 H1031 0.931 . S
C1015 C1008 1.399 . S
C1015 C1012 1.487 . S
C1015 N1032 1.343 . S
H1016 C988 0.931 . S
H1017 C990 0.930 . S
H1018 C992 0.930 . S
H1019 C993 0.931 . S
H1020 C995 0.931 . S
H1021 C997 0.930 . S
H1022 C999 0.930 . S
H1023 C1000 0.931 . S
H1024 C1002 0.931 . S
H1025 C1004 0.930 . S
H1026 C1006 0.930 . S
H1027 C1007 0.931 . S
H1028 C1009 0.931 . S
H1029 C1011 0.930 . S
H1030 C1013 0.930 . S
H1031 C1014 0.931 . S
N1032 C994 1.343 . S
N1032 C1015 1.343 . S
N1033 C1001 1.343 . S
N1033 C1008 1.343 . S
C1034 C1035 1.384 . S
C1034 C1036 1.384 . S
C1034 H1062 0.931 . S
C1035 C1034 1.384 . S
C1035 C1038 1.382 . S
C1036 C1034 1.384 . S
C1036 C1037 1.381 . S
C1036 H1063 0.930 . S
C1037 C1036 1.381 . S
C1037 C1039 1.381 . S
C1037 C1040 1.487 . S
C1038 C1035 1.382 . S
C1038 C1039 1.387 . S
C1038 H1064 0.930 . S
C1039 C1037 1.381 . S
C1039 C1038 1.387 . S
C1039 H1065 0.931 . S
C1040 C1037 1.487 . S
C1040 C1047 1.399 . S
C1040 N1078 1.343 . S
C1041 C1042 1.384 . S
C1041 C1043 1.384 . S
C1041 H1066 0.931 . S
C1042 C1041 1.384 . S
C1042 C1045 1.382 . S
C1043 C1041 1.384 . S
C1043 C1044 1.381 . S
C1043 H1067 0.930 . S
C1044 C1043 1.381 . S
C1044 C1046 1.381 . S
C1044 C1047 1.487 . S
C1045 C1042 1.382 . S
C1045 C1046 1.387 . S
C1045 H1068 0.930 . S
C1046 C1044 1.381 . S
C1046 C1045 1.387 . S
C1046 H1069 0.931 . S
C1047 C1040 1.399 . S
C1047 C1044 1.487 . S
C1047 N1079 1.343 . S
C1048 C1049 1.384 . S
C1048 C1050 1.384 . S
C1048 H1070 0.931 . S
C1049 C1048 1.384 . S
C1049 C1052 1.382 . S
C1050 C1048 1.384 . S
C1050 C1051 1.381 . S
C1050 H1071 0.930 . S
C1051 C1050 1.381 . S
C1051 C1053 1.381 . S
C1051 C1054 1.487 . S
C1052 C1049 1.382 . S
C1052 C1053 1.387 . S
C1052 H1072 0.930 . S
C1053 C1051 1.381 . S
C1053 C1052 1.387 . S
C1053 H1073 0.931 . S
C1054 C1051 1.487 . S
C1054 C1061 1.399 . S
C1054 N1079 1.343 . S
C1055 C1056 1.384 . S
C1055 C1057 1.384 . S
C1055 H1074 0.931 . S
C1056 C1055 1.384 . S
C1056 C1059 1.382 . S
C1057 C1055 1.384 . S
C1057 C1058 1.381 . S
C1057 H1075 0.930 . S
C1058 C1057 1.381 . S
C1058 C1060 1.381 . S
C1058 C1061 1.487 . S
C1059 C1056 1.382 . S
C1059 C1060 1.387 . S
C1059 H1076 0.930 . S
C1060 C1058 1.381 . S
C1060 C1059 1.387 . S
C1060 H1077 0.931 . S
C1061 C1054 1.399 . S
C1061 C1058 1.487 . S
C1061 N1078 1.343 . S
H1062 C1034 0.931 . S
H1063 C1036 0.930 . S
H1064 C1038 0.930 . S
H1065 C1039 0.931 . S
H1066 C1041 0.931 . S
H1067 C1043 0.930 . S
H1068 C1045 0.930 . S
H1069 C1046 0.931 . S
H1070 C1048 0.931 . S
H1071 C1050 0.930 . S
H1072 C1052 0.930 . S
H1073 C1053 0.931 . S
H1074 C1055 0.931 . S
H1075 C1057 0.930 . S
H1076 C1059 0.930 . S
H1077 C1060 0.931 . S
N1078 C1040 1.343 . S
N1078 C1061 1.343 . S
N1079 C1047 1.343 . S
N1079 C1054 1.343 . S
H1080 C1088 0.950 . S
H1081 C1093 0.945 . S
H1082 C1090 0.950 . S
H1083 C1092 0.945 . S
H1084 C1094 0.950 . S
H1085 C1096 0.950 . S
H1086 C1098 0.950 . S
H1087 C1099 0.950 . S
C1088 H1080 0.950 . S
C1088 C1089 1.386 . S
C1088 C1090 1.391 . S
C1089 C1088 1.386 . S
C1089 C1093 1.393 . S
C1090 H1082 0.950 . S
C1090 C1088 1.391 . S
C1090 C1091 1.400 . S
C1091 C1090 1.400 . S
C1091 C1092 1.398 . S
C1091 C1097 1.491 . S
C1092 H1083 0.945 . S
C1092 C1091 1.398 . S
C1092 C1093 1.391 . S
C1093 H1081 0.945 . S
C1093 C1089 1.393 . S
C1093 C1092 1.391 . S
C1094 H1084 0.950 . S
C1094 C1095 1.386 . S
C1094 C1096 1.391 . S
C1095 C1094 1.386 . S
C1095 C1099 1.393 . S
C1096 H1085 0.950 . S
C1096 C1094 1.391 . S
C1096 C1097 1.400 . S
C1097 C1091 1.491 . S
C1097 C1096 1.400 . S
C1097 C1098 1.398 . S
C1098 H1086 0.950 . S
C1098 C1097 1.398 . S
C1098 C1099 1.391 . S
C1099 H1087 0.950 . S
C1099 C1095 1.393 . S
C1099 C1098 1.391 . S
H1100 C1108 0.950 . S
H1101 C1113 0.950 . S
H1102 C1110 0.950 . S
H1103 C1112 0.950 . S
H1104 C1114 0.950 . S
H1105 C1116 0.950 . S
H1106 C1118 0.950 . S
H1107 C1119 0.950 . S
C1108 H1100 0.950 . S
C1108 C1109 1.386 . S
C1108 C1110 1.391 . S
C1109 C1108 1.386 . S
C1109 C1113 1.393 . S
C1110 H1102 0.950 . S
C1110 C1108 1.391 . S
C1110 C1111 1.400 . S
C1111 C1110 1.400 . S
C1111 C1112 1.398 . S
C1111 C1117 1.491 . S
C1112 H1103 0.950 . S
C1112 C1111 1.398 . S
C1112 C1113 1.391 . S
C1113 H1101 0.950 . S
C1113 C1109 1.393 . S
C1113 C1112 1.391 . S
C1114 H1104 0.950 . S
C1114 C1115 1.386 . S
C1114 C1116 1.391 . S
C1115 C1114 1.386 . S
C1115 C1119 1.393 . S
C1116 H1105 0.950 . S
C1116 C1114 1.391 . S
C1116 C1117 1.400 . S
C1117 C1111 1.491 . S
C1117 C1116 1.400 . S
C1117 C1118 1.398 . S
C1118 H1106 0.950 . S
C1118 C1117 1.398 . S
C1118 C1119 1.391 . S
C1119 H1107 0.950 . S
C1119 C1115 1.393 . S
C1119 C1118 1.391 . S
H1120 C1128 0.950 . S
H1121 C1133 0.950 . S
H1122 C1130 0.950 . S
H1123 C1132 0.950 . S
H1124 C1134 0.950 . S
H1125 C1136 0.950 . S
H1126 C1138 0.950 . S
H1127 C1139 0.950 . S
C1128 H1120 0.950 . S
C1128 C1129 1.386 . S
C1128 C1130 1.391 . S
C1129 C1128 1.386 . S
C1129 C1133 1.393 1_545 S
C1130 H1122 0.950 . S
C1130 C1128 1.391 . S
C1130 C1131 1.400 . S
C1131 C1130 1.400 . S
C1131 C1132 1.398 1_545 S
C1131 C1137 1.491 . S
C1132 H1123 0.950 . S
C1132 C1131 1.398 1_565 S
C1132 C1133 1.391 . S
C1133 H1121 0.950 . S
C1133 C1129 1.393 1_565 S
C1133 C1132 1.391 . S
C1134 H1124 0.950 . S
C1134 C1135 1.386 1_565 S
C1134 C1136 1.391 . S
C1135 C1134 1.386 1_545 S
C1135 C1139 1.393 . S
C1136 H1125 0.950 . S
C1136 C1134 1.391 . S
C1136 C1137 1.400 1_565 S
C1137 C1131 1.491 . S
C1137 C1136 1.400 1_545 S
C1137 C1138 1.398 . S
C1138 H1126 0.950 . S
C1138 C1137 1.398 . S
C1138 C1139 1.391 . S
C1139 H1127 0.950 . S
C1139 C1135 1.393 . S
C1139 C1138 1.391 . S
H1140 C1148 0.950 . S
H1141 C1153 0.950 . S
H1142 C1150 0.950 . S
H1143 C1152 0.950 . S
H1144 C1154 0.950 . S
H1145 C1156 0.950 . S
H1146 C1158 0.950 . S
H1147 C1159 0.950 . S
C1148 H1140 0.950 . S
C1148 C1149 1.384 . S
C1148 C1150 1.391 . S
C1149 C1148 1.384 . S
C1149 C1153 1.394 1_565 S
C1150 H1142 0.950 . S
C1150 C1148 1.391 . S
C1150 C1151 1.435 . S
C1151 C1150 1.435 . S
C1151 C1152 1.335 1_565 S
C1151 C1157 1.521 . S
C1152 H1143 0.950 . S
C1152 C1151 1.335 1_545 S
C1152 C1153 1.391 . S
C1153 H1141 0.950 . S
C1153 C1149 1.394 1_545 S
C1153 C1152 1.391 . S
C1154 H1144 0.950 . S
C1154 C1155 1.386 1_545 S
C1154 C1156 1.391 . S
C1155 C1154 1.386 1_565 S
C1155 C1159 1.393 . S
C1156 H1145 0.950 . S
C1156 C1154 1.391 . S
C1156 C1157 1.400 1_545 S
C1157 C1151 1.521 . S
C1157 C1156 1.400 1_565 S
C1157 C1158 1.398 . S
C1158 H1146 0.950 . S
C1158 C1157 1.398 . S
C1158 C1159 1.391 . S
C1159 H1147 0.950 . S
C1159 C1155 1.393 . S
C1159 C1158 1.391 . S
H1160 C1168 0.950 . S
H1161 C1173 0.950 . S
H1162 C1170 0.950 . S
H1163 C1172 0.950 . S
H1164 C1174 0.950 . S
H1165 C1176 0.950 . S
H1166 C1178 0.950 . S
H1167 C1179 0.950 . S
C1168 H1160 0.950 . S
C1168 C1169 1.386 1_655 S
C1168 C1170 1.391 . S
C1169 C1168 1.386 1_455 S
C1169 C1173 1.393 . S
C1170 H1162 0.950 . S
C1170 C1168 1.391 . S
C1170 C1171 1.400 1_655 S
C1171 C1170 1.400 1_455 S
C1171 C1172 1.398 . S
C1171 C1177 1.491 . S
C1172 H1163 0.950 . S
C1172 C1171 1.398 . S
C1172 C1173 1.391 . S
C1173 H1161 0.950 . S
C1173 C1169 1.393 . S
C1173 C1172 1.391 . S
C1174 H1164 0.950 . S
C1174 C1175 1.386 . S
C1174 C1176 1.391 . S
C1175 C1174 1.386 . S
C1175 C1179 1.393 1_455 S
C1176 H1165 0.950 . S
C1176 C1174 1.391 . S
C1176 C1177 1.400 . S
C1177 C1171 1.491 . S
C1177 C1176 1.400 . S
C1177 C1178 1.398 1_455 S
C1178 H1166 0.950 . S
C1178 C1177 1.398 1_655 S
C1178 C1179 1.391 . S
C1179 H1167 0.950 . S
C1179 C1175 1.393 1_655 S
C1179 C1178 1.391 . S
H1180 C1188 0.950 . S
H1181 C1193 0.950 . S
H1182 C1190 0.950 . S
H1183 C1192 0.950 . S
H1184 C1194 0.950 . S
H1185 C1196 0.950 . S
H1186 C1198 0.950 . S
H1187 C1199 0.950 . S
C1188 H1180 0.950 . S
C1188 C1189 1.386 . S
C1188 C1190 1.391 . S
C1189 C1188 1.386 . S
C1189 C1193 1.393 . S
C1190 H1182 0.950 . S
C1190 C1188 1.391 . S
C1190 C1191 1.400 . S
C1191 C1190 1.400 . S
C1191 C1192 1.398 . S
C1191 C1197 1.491 . S
C1192 H1183 0.950 . S
C1192 C1191 1.398 . S
C1192 C1193 1.391 . S
C1193 H1181 0.950 . S
C1193 C1189 1.393 . S
C1193 C1192 1.391 . S
C1194 H1184 0.950 . S
C1194 C1195 1.386 . S
C1194 C1196 1.391 . S
C1195 C1194 1.386 . S
C1195 C1199 1.393 . S
C1196 H1185 0.950 . S
C1196 C1194 1.391 . S
C1196 C1197 1.400 . S
C1197 C1191 1.491 . S
C1197 C1196 1.400 . S
C1197 C1198 1.398 . S
C1198 H1186 0.950 . S
C1198 C1197 1.398 . S
C1198 C1199 1.391 . S
C1199 H1187 0.950 . S
C1199 C1195 1.393 . S
C1199 C1198 1.391 . S
H1200 C1208 0.950 . S
H1201 C1213 0.950 . S
H1202 C1210 0.950 . S
H1203 C1212 0.950 . S
H1204 C1214 0.950 . S
H1205 C1216 0.950 . S
H1206 C1218 0.950 . S
H1207 C1219 0.950 . S
C1208 H1200 0.950 . S
C1208 C1209 1.386 . S
C1208 C1210 1.391 . S
C1209 C1208 1.386 . S
C1209 C1213 1.393 1_455 S
C1210 H1202 0.950 . S
C1210 C1208 1.391 . S
C1210 C1211 1.400 . S
C1211 C1210 1.400 . S
C1211 C1212 1.398 1_455 S
C1211 C1217 1.491 . S
C1212 H1203 0.950 . S
C1212 C1211 1.398 1_655 S
C1212 C1213 1.391 . S
C1213 H1201 0.950 . S
C1213 C1209 1.393 1_655 S
C1213 C1212 1.391 . S
C1214 H1204 0.950 . S
C1214 C1215 1.386 1_655 S
C1214 C1216 1.391 . S
C1215 C1214 1.386 1_455 S
C1215 C1219 1.393 . S
C1216 H1205 0.950 . S
C1216 C1214 1.391 . S
C1216 C1217 1.400 1_655 S
C1217 C1211 1.491 . S
C1217 C1216 1.400 1_455 S
C1217 C1218 1.398 . S
C1218 H1206 0.950 . S
C1218 C1217 1.398 . S
C1218 C1219 1.391 . S
C1219 H1207 0.950 . S
C1219 C1215 1.393 . S
C1219 C1218 1.391 . S
H1220 C1228 0.950 . S
H1221 C1233 0.950 . S
H1222 C1230 0.950 . S
H1223 C1232 0.950 . S
H1224 C1234 0.950 . S
H1225 C1236 0.950 . S
H1226 C1238 0.950 . S
H1227 C1239 0.950 . S
C1228 H1220 0.950 . S
C1228 C1229 1.386 . S
C1228 C1230 1.391 . S
C1229 C1228 1.386 . S
C1229 C1233 1.393 . S
C1230 H1222 0.950 . S
C1230 C1228 1.391 . S
C1230 C1231 1.400 . S
C1231 C1230 1.400 . S
C1231 C1232 1.398 . S
C1231 C1237 1.491 . S
C1232 H1223 0.950 . S
C1232 C1231 1.398 . S
C1232 C1233 1.391 . S
C1233 H1221 0.950 . S
C1233 C1229 1.393 . S
C1233 C1232 1.391 . S
C1234 H1224 0.950 . S
C1234 C1235 1.386 . S
C1234 C1236 1.391 . S
C1235 C1234 1.386 . S
C1235 C1239 1.393 . S
C1236 H1225 0.950 . S
C1236 C1234 1.391 . S
C1236 C1237 1.400 . S
C1237 C1231 1.491 . S
C1237 C1236 1.400 . S
C1237 C1238 1.398 . S
C1238 H1226 0.950 . S
C1238 C1237 1.398 . S
C1238 C1239 1.391 . S
C1239 H1227 0.950 . S
C1239 C1235 1.393 . S
C1239 C1238 1.391 . S
H1240 C1248 0.950 . S
H1241 C1253 0.950 . S
H1242 C1250 0.950 . S
H1243 C1252 0.950 . S
H1244 C1254 0.950 . S
H1245 C1256 0.950 . S
H1246 C1258 0.950 . S
H1247 C1259 0.950 . S
C1248 H1240 0.950 . S
C1248 C1249 1.386 1_545 S
C1248 C1250 1.391 . S
C1249 C1248 1.386 1_565 S
C1249 C1253 1.393 . S
C1250 H1242 0.950 . S
C1250 C1248 1.391 . S
C1250 C1251 1.400 1_545 S
C1251 C1250 1.400 1_565 S
C1251 C1252 1.398 . S
C1251 C1257 1.491 . S
C1252 H1243 0.950 . S
C1252 C1251 1.398 . S
C1252 C1253 1.391 . S
C1253 H1241 0.950 . S
C1253 C1249 1.393 . S
C1253 C1252 1.391 . S
C1254 H1244 0.950 . S
C1254 C1255 1.386 . S
C1254 C1256 1.391 . S
C1255 C1254 1.386 . S
C1255 C1259 1.393 1_565 S
C1256 H1245 0.950 . S
C1256 C1254 1.391 . S
C1256 C1257 1.400 . S
C1257 C1251 1.491 . S
C1257 C1256 1.400 . S
C1257 C1258 1.398 1_565 S
C1258 H1246 0.950 . S
C1258 C1257 1.398 1_545 S
C1258 C1259 1.391 . S
C1259 H1247 0.950 . S
C1259 C1255 1.393 1_545 S
C1259 C1258 1.391 . S
H1260 C1268 0.950 . S
H1261 C1273 0.950 . S
H1262 C1270 0.950 . S
H1263 C1272 0.950 . S
H1264 C1274 0.950 . S
H1265 C1276 0.950 . S
H1266 C1278 0.950 . S
H1267 C1279 0.950 . S
C1268 H1260 0.950 . S
C1268 C1269 1.386 1_565 S
C1268 C1270 1.391 . S
C1269 C1268 1.386 1_545 S
C1269 C1273 1.393 . S
C1270 H1262 0.950 . S
C1270 C1268 1.391 . S
C1270 C1271 1.400 1_565 S
C1271 C1270 1.400 1_545 S
C1271 C1272 1.398 . S
C1271 C1277 1.491 . S
C1272 H1263 0.950 . S
C1272 C1271 1.398 . S
C1272 C1273 1.391 . S
C1273 H1261 0.950 . S
C1273 C1269 1.393 . S
C1273 C1272 1.391 . S
C1274 H1264 0.950 . S
C1274 C1275 1.386 . S
C1274 C1276 1.391 . S
C1275 C1274 1.386 . S
C1275 C1279 1.393 1_545 S
C1276 H1265 0.950 . S
C1276 C1274 1.391 . S
C1276 C1277 1.400 . S
C1277 C1271 1.491 . S
C1277 C1276 1.400 . S
C1277 C1278 1.398 1_545 S
C1278 H1266 0.950 . S
C1278 C1277 1.398 1_565 S
C1278 C1279 1.391 . S
C1279 H1267 0.950 . S
C1279 C1275 1.393 1_565 S
C1279 C1278 1.391 . S
H1280 C1288 0.950 . S
H1281 C1293 0.950 . S
H1282 C1290 0.950 . S
H1283 C1292 0.950 . S
H1284 C1294 0.950 . S
H1285 C1296 0.950 . S
H1286 C1298 0.950 . S
H1287 C1299 0.950 . S
C1288 H1280 0.950 . S
C1288 C1289 1.386 . S
C1288 C1290 1.391 . S
C1289 C1288 1.386 . S
C1289 C1293 1.393 1_655 S
C1290 H1282 0.950 . S
C1290 C1288 1.391 . S
C1290 C1291 1.400 . S
C1291 C1290 1.400 . S
C1291 C1292 1.398 1_655 S
C1291 C1297 1.491 . S
C1292 H1283 0.950 . S
C1292 C1291 1.398 1_455 S
C1292 C1293 1.391 . S
C1293 H1281 0.950 . S
C1293 C1289 1.393 1_455 S
C1293 C1292 1.391 . S
C1294 H1284 0.950 . S
C1294 C1295 1.386 1_455 S
C1294 C1296 1.391 . S
C1295 C1294 1.386 1_655 S
C1295 C1299 1.393 . S
C1296 H1285 0.950 . S
C1296 C1294 1.391 . S
C1296 C1297 1.400 1_455 S
C1297 C1291 1.491 . S
C1297 C1296 1.400 1_655 S
C1297 C1298 1.398 . S
C1298 H1286 0.950 . S
C1298 C1297 1.398 . S
C1298 C1299 1.391 . S
C1299 H1287 0.950 . S
C1299 C1295 1.393 . S
C1299 C1298 1.391 . S
H1300 C1308 0.950 . S
H1301 C1313 0.950 . S
H1302 C1310 0.950 . S
H1303 C1312 0.950 . S
H1304 C1314 0.950 . S
H1305 C1316 0.950 . S
H1306 C1318 0.950 . S
H1307 C1319 0.950 . S
C1308 H1300 0.950 . S
C1308 C1309 1.386 . S
C1308 C1310 1.391 . S
C1309 C1308 1.386 . S
C1309 C1313 1.393 . S
C1310 H1302 0.950 . S
C1310 C1308 1.391 . S
C1310 C1311 1.400 . S
C1311 C1310 1.400 . S
C1311 C1312 1.398 . S
C1311 C1317 1.491 . S
C1312 H1303 0.950 . S
C1312 C1311 1.398 . S
C1312 C1313 1.391 . S
C1313 H1301 0.950 . S
C1313 C1309 1.393 . S
C1313 C1312 1.391 . S
C1314 H1304 0.950 . S
C1314 C1315 1.386 . S
C1314 C1316 1.391 . S
C1315 C1314 1.386 . S
C1315 C1319 1.393 . S
C1316 H1305 0.950 . S
C1316 C1314 1.391 . S
C1316 C1317 1.400 . S
C1317 C1311 1.491 . S
C1317 C1316 1.400 . S
C1317 C1318 1.398 . S
C1318 H1306 0.950 . S
C1318 C1317 1.398 . S
C1318 C1319 1.391 . S
C1319 H1307 0.950 . S
C1319 C1315 1.393 . S
C1319 C1318 1.391 . S
H1320 C1328 0.950 . S
H1321 C1333 0.950 . S
H1322 C1330 0.950 . S
H1323 C1332 0.950 . S
H1324 C1334 0.950 . S
H1325 C1336 0.950 . S
H1326 C1338 0.950 . S
H1327 C1339 0.950 . S
C1328 H1320 0.950 . S
C1328 C1329 1.386 . S
C1328 C1330 1.391 . S
C1329 C1328 1.386 . S
C1329 C1333 1.393 . S
C1330 H1322 0.950 . S
C1330 C1328 1.391 . S
C1330 C1331 1.400 . S
C1331 C1330 1.400 . S
C1331 C1332 1.398 . S
C1331 C1337 1.491 . S
C1332 H1323 0.950 . S
C1332 C1331 1.398 . S
C1332 C1333 1.391 . S
C1333 H1321 0.950 . S
C1333 C1329 1.393 . S
C1333 C1332 1.391 . S
C1334 H1324 0.950 . S
C1334 C1335 1.386 . S
C1334 C1336 1.391 . S
C1335 C1334 1.386 . S
C1335 C1339 1.393 . S
C1336 H1325 0.950 . S
C1336 C1334 1.391 . S
C1336 C1337 1.400 . S
C1337 C1331 1.491 . S
C1337 C1336 1.400 . S
C1337 C1338 1.398 . S
C1338 H1326 0.950 . S
C1338 C1337 1.398 . S
C1338 C1339 1.391 . S
C1339 H1327 0.950 . S
C1339 C1335 1.393 . S
C1339 C1338 1.391 . S
H1340 C1348 0.950 . S
H1341 C1353 0.950 . S
H1342 C1350 0.950 . S
H1343 C1352 0.950 . S
H1344 C1354 0.950 . S
H1345 C1356 0.950 . S
H1346 C1358 0.950 . S
H1347 C1359 0.950 . S
C1348 H1340 0.950 . S
C1348 C1349 1.386 . S
C1348 C1350 1.391 . S
C1349 C1348 1.386 . S
C1349 C1353 1.393 . S
C1350 H1342 0.950 . S
C1350 C1348 1.391 . S
C1350 C1351 1.400 . S
C1351 C1350 1.400 . S
C1351 C1352 1.398 . S
C1351 C1357 1.491 . S
C1352 H1343 0.950 . S
C1352 C1351 1.398 . S
C1352 C1353 1.391 . S
C1353 H1341 0.950 . S
C1353 C1349 1.393 . S
C1353 C1352 1.391 . S
C1354 H1344 0.950 . S
C1354 C1355 1.386 . S
C1354 C1356 1.391 . S
C1355 C1354 1.386 . S
C1355 C1359 1.393 . S
C1356 H1345 0.950 . S
C1356 C1354 1.391 . S
C1356 C1357 1.400 . S
C1357 C1351 1.491 . S
C1357 C1356 1.400 . S
C1357 C1358 1.398 . S
C1358 H1346 0.950 . S
C1358 C1357 1.398 . S
C1358 C1359 1.391 . S
C1359 H1347 0.950 . S
C1359 C1355 1.393 . S
C1359 C1358 1.391 . S
H1360 C1368 0.950 . S
H1361 C1373 0.950 . S
H1362 C1370 0.950 . S
H1363 C1372 0.950 . S
H1364 C1374 0.950 . S
H1365 C1376 0.950 . S
H1366 C1378 0.950 . S
H1367 C1379 0.950 . S
C1368 H1360 0.950 . S
C1368 C1369 1.386 . S
C1368 C1370 1.391 . S
C1369 C1368 1.386 . S
C1369 C1373 1.393 . S
C1370 H1362 0.950 . S
C1370 C1368 1.391 . S
C1370 C1371 1.400 . S
C1371 C1370 1.400 . S
C1371 C1372 1.398 . S
C1371 C1377 1.491 . S
C1372 H1363 0.950 . S
C1372 C1371 1.398 . S
C1372 C1373 1.391 . S
C1373 H1361 0.950 . S
C1373 C1369 1.393 . S
C1373 C1372 1.391 . S
C1374 H1364 0.950 . S
C1374 C1375 1.386 . S
C1374 C1376 1.391 . S
C1375 C1374 1.386 . S
C1375 C1379 1.393 . S
C1376 H1365 0.950 . S
C1376 C1374 1.391 . S
C1376 C1377 1.400 . S
C1377 C1371 1.491 . S
C1377 C1376 1.400 . S
C1377 C1378 1.398 . S
C1378 H1366 0.950 . S
C1378 C1377 1.398 . S
C1378 C1379 1.391 . S
C1379 H1367 0.950 . S
C1379 C1375 1.393 . S
C1379 C1378 1.391 . S
H1380 C1388 0.950 . S
H1381 C1393 0.950 . S
H1382 C1390 0.950 . S
H1383 C1392 0.950 . S
H1384 C1394 0.950 . S
H1385 C1396 0.950 . S
H1386 C1398 0.950 . S
H1387 C1399 0.950 . S
C1388 H1380 0.950 . S
C1388 C1389 1.386 . S
C1388 C1390 1.391 . S
C1389 C1388 1.386 . S
C1389 C1393 1.393 . S
C1390 H1382 0.950 . S
C1390 C1388 1.391 . S
C1390 C1391 1.400 . S
C1391 C1390 1.400 . S
C1391 C1392 1.398 . S
C1391 C1397 1.491 . S
C1392 H1383 0.950 . S
C1392 C1391 1.398 . S
C1392 C1393 1.391 . S
C1393 H1381 0.950 . S
C1393 C1389 1.393 . S
C1393 C1392 1.391 . S
C1394 H1384 0.950 . S
C1394 C1395 1.386 . S
C1394 C1396 1.391 . S
C1395 C1394 1.386 . S
C1395 C1399 1.393 . S
C1396 H1385 0.950 . S
C1396 C1394 1.391 . S
C1396 C1397 1.400 . S
C1397 C1391 1.491 . S
C1397 C1396 1.400 . S
C1397 C1398 1.398 . S
C1398 H1386 0.950 . S
C1398 C1397 1.398 . S
C1398 C1399 1.391 . S
C1399 H1387 0.950 . S
C1399 C1395 1.393 . S
C1399 C1398 1.391 . S
H1400 C1408 0.950 . S
H1401 C1413 0.950 . S
H1402 C1410 0.950 . S
H1403 C1412 0.950 . S
H1404 C1414 0.950 . S
H1405 C1416 0.950 . S
H1406 C1418 0.950 . S
H1407 C1419 0.950 . S
C1408 H1400 0.950 . S
C1408 C1409 1.386 . S
C1408 C1410 1.391 . S
C1409 C1408 1.386 . S
C1409 C1413 1.393 . S
C1410 H1402 0.950 . S
C1410 C1408 1.391 . S
C1410 C1411 1.400 . S
C1411 C1410 1.400 . S
C1411 C1412 1.398 . S
C1411 C1417 1.491 . S
C1412 H1403 0.950 . S
C1412 C1411 1.398 . S
C1412 C1413 1.391 . S
C1413 H1401 0.950 . S
C1413 C1409 1.393 . S
C1413 C1412 1.391 . S
C1414 H1404 0.950 . S
C1414 C1415 1.386 . S
C1414 C1416 1.391 . S
C1415 C1414 1.386 . S
C1415 C1419 1.393 . S
C1416 H1405 0.950 . S
C1416 C1414 1.391 . S
C1416 C1417 1.400 . S
C1417 C1411 1.491 . S
C1417 C1416 1.400 . S
C1417 C1418 1.398 . S
C1418 H1406 0.950 . S
C1418 C1417 1.398 . S
C1418 C1419 1.391 . S
C1419 H1407 0.950 . S
C1419 C1415 1.393 . S
C1419 C1418 1.391 . S
H1420 C1428 0.950 . S
H1421 C1433 0.950 . S
H1422 C1430 0.950 . S
H1423 C1432 0.950 . S
H1424 C1434 0.950 . S
H1425 C1436 0.950 . S
H1426 C1438 0.950 . S
H1427 C1439 0.950 . S
C1428 H1420 0.950 . S
C1428 C1429 1.386 . S
C1428 C1430 1.391 . S
C1429 C1428 1.386 . S
C1429 C1433 1.393 . S
C1430 H1422 0.950 . S
C1430 C1428 1.391 . S
C1430 C1431 1.400 . S
C1431 C1430 1.400 . S
C1431 C1432 1.398 . S
C1431 C1437 1.491 . S
C1432 H1423 0.950 . S
C1432 C1431 1.398 . S
C1432 C1433 1.391 . S
C1433 H1421 0.950 . S
C1433 C1429 1.393 . S
C1433 C1432 1.391 . S
C1434 H1424 0.950 . S
C1434 C1435 1.386 . S
C1434 C1436 1.391 . S
C1435 C1434 1.386 . S
C1435 C1439 1.393 . S
C1436 H1425 0.950 . S
C1436 C1434 1.391 . S
C1436 C1437 1.400 . S
C1437 C1431 1.491 . S
C1437 C1436 1.400 . S
C1437 C1438 1.398 . S
C1438 H1426 0.950 . S
C1438 C1437 1.398 . S
C1438 C1439 1.391 . S
C1439 H1427 0.950 . S
C1439 C1435 1.393 . S
C1439 C1438 1.391 . S
H1440 C1448 0.950 . S
H1441 C1453 0.950 . S
H1442 C1450 0.950 . S
H1443 C1452 0.950 . S
H1444 C1454 0.950 . S
H1445 C1456 0.950 . S
H1446 C1458 0.950 . S
H1447 C1459 0.950 . S
C1448 H1440 0.950 . S
C1448 C1449 1.386 . S
C1448 C1450 1.391 . S
C1449 C1448 1.386 . S
C1449 C1453 1.393 . S
C1450 H1442 0.950 . S
C1450 C1448 1.391 . S
C1450 C1451 1.400 . S
C1451 C1450 1.400 . S
C1451 C1452 1.398 . S
C1451 C1457 1.491 . S
C1452 H1443 0.950 . S
C1452 C1451 1.398 . S
C1452 C1453 1.391 . S
C1453 H1441 0.950 . S
C1453 C1449 1.393 . S
C1453 C1452 1.391 . S
C1454 H1444 0.950 . S
C1454 C1455 1.386 . S
C1454 C1456 1.391 . S
C1455 C1454 1.386 . S
C1455 C1459 1.393 . S
C1456 H1445 0.950 . S
C1456 C1454 1.391 . S
C1456 C1457 1.400 . S
C1457 C1451 1.491 . S
C1457 C1456 1.400 . S
C1457 C1458 1.398 . S
C1458 H1446 0.950 . S
C1458 C1457 1.398 . S
C1458 C1459 1.391 . S
C1459 H1447 0.950 . S
C1459 C1455 1.393 . S
C1459 C1458 1.391 . S
H1460 C1468 0.950 . S
H1461 C1473 0.950 . S
H1462 C1470 0.950 . S
H1463 C1472 0.950 . S
H1464 C1474 0.950 . S
H1465 C1476 0.950 . S
H1466 C1478 0.950 . S
H1467 C1479 0.950 . S
C1468 H1460 0.950 . S
C1468 C1469 1.386 . S
C1468 C1470 1.391 . S
C1469 C1468 1.386 . S
C1469 C1473 1.393 . S
C1470 H1462 0.950 . S
C1470 C1468 1.391 . S
C1470 C1471 1.400 . S
C1471 C1470 1.400 . S
C1471 C1472 1.398 . S
C1471 C1477 1.491 . S
C1472 H1463 0.950 . S
C1472 C1471 1.398 . S
C1472 C1473 1.391 . S
C1473 H1461 0.950 . S
C1473 C1469 1.393 . S
C1473 C1472 1.391 . S
C1474 H1464 0.950 . S
C1474 C1475 1.386 . S
C1474 C1476 1.391 . S
C1475 C1474 1.386 . S
C1475 C1479 1.393 . S
C1476 H1465 0.950 . S
C1476 C1474 1.391 . S
C1476 C1477 1.400 . S
C1477 C1471 1.491 . S
C1477 C1476 1.400 . S
C1477 C1478 1.398 . S
C1478 H1466 0.950 . S
C1478 C1477 1.398 . S
C1478 C1479 1.391 . S
C1479 H1467 0.950 . S
C1479 C1475 1.393 . S
C1479 C1478 1.391 . S
H1480 C1488 0.950 . S
H1481 C1493 0.950 . S
H1482 C1490 0.950 . S
H1483 C1492 0.950 . S
H1484 C1494 0.950 . S
H1485 C1496 0.950 . S
H1486 C1498 0.950 . S
H1487 C1499 0.950 . S
C1488 H1480 0.950 . S
C1488 C1489 1.386 . S
C1488 C1490 1.391 . S
C1489 C1488 1.386 . S
C1489 C1493 1.393 . S
C1490 H1482 0.950 . S
C1490 C1488 1.391 . S
C1490 C1491 1.400 . S
C1491 C1490 1.400 . S
C1491 C1492 1.398 . S
C1491 C1497 1.491 . S
C1492 H1483 0.950 . S
C1492 C1491 1.398 . S
C1492 C1493 1.391 . S
C1493 H1481 0.950 . S
C1493 C1489 1.393 . S
C1493 C1492 1.391 . S
C1494 H1484 0.950 . S
C1494 C1495 1.386 . S
C1494 C1496 1.391 . S
C1495 C1494 1.386 . S
C1495 C1499 1.393 . S
C1496 H1485 0.950 . S
C1496 C1494 1.391 . S
C1496 C1497 1.400 . S
C1497 C1491 1.491 . S
C1497 C1496 1.400 . S
C1497 C1498 1.398 . S
C1498 H1486 0.950 . S
C1498 C1497 1.398 . S
C1498 C1499 1.391 . S
C1499 H1487 0.950 . S
C1499 C1495 1.393 . S
C1499 C1498 1.391 . S
H1500 C1508 0.950 . S
H1501 C1513 0.950 . S
H1502 C1510 0.950 . S
H1503 C1512 0.950 . S
H1504 C1514 0.950 . S
H1505 C1516 0.950 . S
H1506 C1518 0.950 . S
H1507 C1519 0.950 . S
C1508 H1500 0.950 . S
C1508 C1509 1.386 . S
C1508 C1510 1.391 . S
C1509 C1508 1.386 . S
C1509 C1513 1.393 . S
C1510 H1502 0.950 . S
C1510 C1508 1.391 . S
C1510 C1511 1.400 . S
C1511 C1510 1.400 . S
C1511 C1512 1.398 . S
C1511 C1517 1.491 . S
C1512 H1503 0.950 . S
C1512 C1511 1.398 . S
C1512 C1513 1.391 . S
C1513 H1501 0.950 . S
C1513 C1509 1.393 . S
C1513 C1512 1.391 . S
C1514 H1504 0.950 . S
C1514 C1515 1.386 . S
C1514 C1516 1.391 . S
C1515 C1514 1.386 . S
C1515 C1519 1.393 . S
C1516 H1505 0.950 . S
C1516 C1514 1.391 . S
C1516 C1517 1.400 . S
C1517 C1511 1.491 . S
C1517 C1516 1.400 . S
C1517 C1518 1.398 . S
C1518 H1506 0.950 . S
C1518 C1517 1.398 . S
C1518 C1519 1.391 . S
C1519 H1507 0.950 . S
C1519 C1515 1.393 . S
C1519 C1518 1.391 . S
H1520 C1528 0.950 . S
H1521 C1533 0.950 . S
H1522 C1530 0.950 . S
H1523 C1532 0.950 . S
H1524 C1534 0.950 . S
H1525 C1536 0.950 . S
H1526 C1538 0.950 . S
H1527 C1539 0.950 . S
C1528 H1520 0.950 . S
C1528 C1529 1.386 . S
C1528 C1530 1.391 . S
C1529 C1528 1.386 . S
C1529 C1533 1.393 . S
C1530 H1522 0.950 . S
C1530 C1528 1.391 . S
C1530 C1531 1.400 . S
C1531 C1530 1.400 . S
C1531 C1532 1.398 . S
C1531 C1537 1.491 . S
C1532 H1523 0.950 . S
C1532 C1531 1.398 . S
C1532 C1533 1.391 . S
C1533 H1521 0.950 . S
C1533 C1529 1.393 . S
C1533 C1532 1.391 . S
C1534 H1524 0.950 . S
C1534 C1535 1.386 . S
C1534 C1536 1.391 . S
C1535 C1534 1.386 . S
C1535 C1539 1.393 . S
C1536 H1525 0.950 . S
C1536 C1534 1.391 . S
C1536 C1537 1.400 . S
C1537 C1531 1.491 . S
C1537 C1536 1.400 . S
C1537 C1538 1.398 . S
C1538 H1526 0.950 . S
C1538 C1537 1.398 . S
C1538 C1539 1.391 . S
C1539 H1527 0.950 . S
C1539 C1535 1.393 . S
C1539 C1538 1.391 . S
H1540 C1548 0.950 . S
H1541 C1553 0.950 . S
H1542 C1550 0.950 . S
H1543 C1552 0.950 . S
H1544 C1554 0.950 . S
H1545 C1556 0.950 . S
H1546 C1558 0.950 . S
H1547 C1559 0.950 . S
C1548 H1540 0.950 . S
C1548 C1549 1.386 . S
C1548 C1550 1.391 . S
C1549 C1548 1.386 . S
C1549 C1553 1.393 . S
C1550 H1542 0.950 . S
C1550 C1548 1.391 . S
C1550 C1551 1.400 . S
C1551 C1550 1.400 . S
C1551 C1552 1.398 . S
C1551 C1557 1.491 . S
C1552 H1543 0.950 . S
C1552 C1551 1.398 . S
C1552 C1553 1.391 . S
C1553 H1541 0.950 . S
C1553 C1549 1.393 . S
C1553 C1552 1.391 . S
C1554 H1544 0.950 . S
C1554 C1555 1.386 . S
C1554 C1556 1.391 . S
C1555 C1554 1.386 . S
C1555 C1559 1.393 . S
C1556 H1545 0.950 . S
C1556 C1554 1.391 . S
C1556 C1557 1.400 . S
C1557 C1551 1.491 . S
C1557 C1556 1.400 . S
C1557 C1558 1.398 . S
C1558 H1546 0.950 . S
C1558 C1557 1.398 . S
C1558 C1559 1.391 . S
C1559 H1547 0.950 . S
C1559 C1555 1.393 . S
C1559 C1558 1.391 . S
H1560 C1568 0.950 . S
H1561 C1573 0.950 . S
H1562 C1570 0.950 . S
H1563 C1572 0.950 . S
H1564 C1574 0.950 . S
H1565 C1576 0.950 . S
H1566 C1578 0.950 . S
H1567 C1579 0.950 . S
C1568 H1560 0.950 . S
C1568 C1569 1.386 . S
C1568 C1570 1.391 . S
C1569 C1568 1.386 . S
C1569 C1573 1.393 . S
C1570 H1562 0.950 . S
C1570 C1568 1.391 . S
C1570 C1571 1.400 . S
C1571 C1570 1.400 . S
C1571 C1572 1.398 . S
C1571 C1577 1.491 . S
C1572 H1563 0.950 . S
C1572 C1571 1.398 . S
C1572 C1573 1.391 . S
C1573 H1561 0.950 . S
C1573 C1569 1.393 . S
C1573 C1572 1.391 . S
C1574 H1564 0.950 . S
C1574 C1575 1.386 . S
C1574 C1576 1.391 . S
C1575 C1574 1.386 . S
C1575 C1579 1.393 . S
C1576 H1565 0.950 . S
C1576 C1574 1.391 . S
C1576 C1577 1.400 . S
C1577 C1571 1.491 . S
C1577 C1576 1.400 . S
C1577 C1578 1.398 . S
C1578 H1566 0.950 . S
C1578 C1577 1.398 . S
C1578 C1579 1.391 . S
C1579 H1567 0.950 . S
C1579 C1575 1.393 . S
C1579 C1578 1.391 . S
H1580 C1588 0.950 . S
H1581 C1593 0.950 . S
H1582 C1590 0.950 . S
H1583 C1592 0.950 . S
H1584 C1594 0.950 . S
H1585 C1596 0.950 . S
H1586 C1598 0.950 . S
H1587 C1599 0.950 . S
C1588 H1580 0.950 . S
C1588 C1589 1.386 . S
C1588 C1590 1.391 . S
C1589 C1588 1.386 . S
C1589 C1593 1.393 . S
C1590 H1582 0.950 . S
C1590 C1588 1.391 . S
C1590 C1591 1.400 . S
C1591 C1590 1.400 . S
C1591 C1592 1.398 . S
C1591 C1597 1.491 . S
C1592 H1583 0.950 . S
C1592 C1591 1.398 . S
C1592 C1593 1.391 . S
C1593 H1581 0.950 . S
C1593 C1589 1.393 . S
C1593 C1592 1.391 . S
C1594 H1584 0.950 . S
C1594 C1595 1.386 . S
C1594 C1596 1.391 . S
C1595 C1594 1.386 . S
C1595 C1599 1.393 . S
C1596 H1585 0.950 . S
C1596 C1594 1.391 . S
C1596 C1597 1.400 . S
C1597 C1591 1.491 . S
C1597 C1596 1.400 . S
C1597 C1598 1.398 . S
C1598 H1586 0.950 . S
C1598 C1597 1.398 . S
C1598 C1599 1.391 . S
C1599 H1587 0.950 . S
C1599 C1595 1.393 . S
C1599 C1598 1.391 . S
H1600 C1608 0.950 . S
H1601 C1613 0.950 . S
H1602 C1610 0.950 . S
H1603 C1612 0.950 . S
H1604 C1614 0.950 . S
H1605 C1616 0.950 . S
H1606 C1618 0.950 . S
H1607 C1619 0.950 . S
C1608 H1600 0.950 . S
C1608 C1609 1.386 . S
C1608 C1610 1.391 . S
C1609 C1608 1.386 . S
C1609 C1613 1.393 . S
C1610 H1602 0.950 . S
C1610 C1608 1.391 . S
C1610 C1611 1.400 . S
C1611 C1610 1.400 . S
C1611 C1612 1.398 . S
C1611 C1617 1.491 . S
C1612 H1603 0.950 . S
C1612 C1611 1.398 . S
C1612 C1613 1.391 . S
C1613 H1601 0.950 . S
C1613 C1609 1.393 . S
C1613 C1612 1.391 . S
C1614 H1604 0.950 . S
C1614 C1615 1.386 . S
C1614 C1616 1.391 . S
C1615 C1614 1.386 . S
C1615 C1619 1.393 . S
C1616 H1605 0.950 . S
C1616 C1614 1.391 . S
C1616 C1617 1.400 . S
C1617 C1611 1.491 . S
C1617 C1616 1.400 . S
C1617 C1618 1.398 . S
C1618 H1606 0.950 . S
C1618 C1617 1.398 . S
C1618 C1619 1.391 . S
C1619 H1607 0.950 . S
C1619 C1615 1.393 . S
C1619 C1618 1.391 . S
H1620 C1628 0.950 . S
H1621 C1633 0.950 . S
H1622 C1630 0.950 . S
H1623 C1632 0.950 . S
H1624 C1634 0.950 . S
H1625 C1636 0.950 . S
H1626 C1638 0.950 . S
H1627 C1639 0.950 . S
C1628 H1620 0.950 . S
C1628 C1629 1.386 . S
C1628 C1630 1.391 . S
C1629 C1628 1.386 . S
C1629 C1633 1.393 . S
C1630 H1622 0.950 . S
C1630 C1628 1.391 . S
C1630 C1631 1.400 . S
C1631 C1630 1.400 . S
C1631 C1632 1.398 . S
C1631 C1637 1.491 . S
C1632 H1623 0.950 . S
C1632 C1631 1.398 . S
C1632 C1633 1.391 . S
C1633 H1621 0.950 . S
C1633 C1629 1.393 . S
C1633 C1632 1.391 . S
C1634 H1624 0.950 . S
C1634 C1635 1.386 . S
C1634 C1636 1.391 . S
C1635 C1634 1.386 . S
C1635 C1639 1.393 . S
C1636 H1625 0.950 . S
C1636 C1634 1.391 . S
C1636 C1637 1.400 . S
C1637 C1631 1.491 . S
C1637 C1636 1.400 . S
C1637 C1638 1.398 . S
C1638 H1626 0.950 . S
C1638 C1637 1.398 . S
C1638 C1639 1.391 . S
C1639 H1627 0.950 . S
C1639 C1635 1.393 . S
C1639 C1638 1.391 . S
H1640 C1648 0.950 . S
H1641 C1653 0.950 . S
H1642 C1650 0.950 . S
H1643 C1652 0.950 . S
H1644 C1654 0.950 . S
H1645 C1656 0.950 . S
H1646 C1658 0.950 . S
H1647 C1659 0.950 . S
C1648 H1640 0.950 . S
C1648 C1649 1.386 . S
C1648 C1650 1.391 . S
C1649 C1648 1.386 . S
C1649 C1653 1.393 . S
C1650 H1642 0.950 . S
C1650 C1648 1.391 . S
C1650 C1651 1.400 . S
C1651 C1650 1.400 . S
C1651 C1652 1.398 . S
C1651 C1657 1.491 . S
C1652 H1643 0.950 . S
C1652 C1651 1.398 . S
C1652 C1653 1.391 . S
C1653 H1641 0.950 . S
C1653 C1649 1.393 . S
C1653 C1652 1.391 . S
C1654 H1644 0.950 . S
C1654 C1655 1.386 . S
C1654 C1656 1.391 . S
C1655 C1654 1.386 . S
C1655 C1659 1.393 . S
C1656 H1645 0.950 . S
C1656 C1654 1.391 . S
C1656 C1657 1.400 . S
C1657 C1651 1.491 . S
C1657 C1656 1.400 . S
C1657 C1658 1.398 . S
C1658 H1646 0.950 . S
C1658 C1657 1.398 . S
C1658 C1659 1.391 . S
C1659 H1647 0.950 . S
C1659 C1655 1.393 . S
C1659 C1658 1.391 . S
H1660 C1668 0.950 . S
H1661 C1673 0.950 . S
H1662 C1670 0.950 . S
H1663 C1672 0.950 . S
H1664 C1674 0.950 . S
H1665 C1676 0.950 . S
H1666 C1678 0.950 . S
H1667 C1679 0.950 . S
C1668 H1660 0.950 . S
C1668 C1669 1.386 . S
C1668 C1670 1.391 . S
C1669 C1668 1.386 . S
C1669 C1673 1.393 . S
C1670 H1662 0.950 . S
C1670 C1668 1.391 . S
C1670 C1671 1.400 . S
C1671 C1670 1.400 . S
C1671 C1672 1.398 . S
C1671 C1677 1.491 . S
C1672 H1663 0.950 . S
C1672 C1671 1.398 . S
C1672 C1673 1.391 . S
C1673 H1661 0.950 . S
C1673 C1669 1.393 . S
C1673 C1672 1.391 . S
C1674 H1664 0.950 . S
C1674 C1675 1.386 . S
C1674 C1676 1.391 . S
C1675 C1674 1.386 . S
C1675 C1679 1.393 . S
C1676 H1665 0.950 . S
C1676 C1674 1.391 . S
C1676 C1677 1.400 . S
C1677 C1671 1.491 . S
C1677 C1676 1.400 . S
C1677 C1678 1.398 . S
C1678 H1666 0.950 . S
C1678 C1677 1.398 . S
C1678 C1679 1.391 . S
C1679 H1667 0.950 . S
C1679 C1675 1.393 . S
C1679 C1678 1.391 . S
H1680 C1688 0.950 . S
H1681 C1693 0.950 . S
H1682 C1690 0.950 . S
H1683 C1692 0.950 . S
H1684 C1694 0.950 . S
H1685 C1696 0.950 . S
H1686 C1698 0.950 . S
H1687 C1699 0.950 . S
C1688 H1680 0.950 . S
C1688 C1689 1.386 . S
C1688 C1690 1.391 . S
C1689 C1688 1.386 . S
C1689 C1693 1.393 . S
C1690 H1682 0.950 . S
C1690 C1688 1.391 . S
C1690 C1691 1.400 . S
C1691 C1690 1.400 . S
C1691 C1692 1.398 . S
C1691 C1697 1.491 . S
C1692 H1683 0.950 . S
C1692 C1691 1.398 . S
C1692 C1693 1.391 . S
C1693 H1681 0.950 . S
C1693 C1689 1.393 . S
C1693 C1692 1.391 . S
C1694 H1684 0.950 . S
C1694 C1695 1.386 . S
C1694 C1696 1.391 . S
C1695 C1694 1.386 . S
C1695 C1699 1.393 . S
C1696 H1685 0.950 . S
C1696 C1694 1.391 . S
C1696 C1697 1.400 . S
C1697 C1691 1.491 . S
C1697 C1696 1.400 . S
C1697 C1698 1.398 . S
C1698 H1686 0.950 . S
C1698 C1697 1.398 . S
C1698 C1699 1.391 . S
C1699 H1687 0.950 . S
C1699 C1695 1.393 . S
C1699 C1698 1.391 . S
H1700 C1708 0.950 . S
H1701 C1713 0.950 . S
H1702 C1710 0.950 . S
H1703 C1712 0.950 . S
H1704 C1714 0.950 . S
H1705 C1716 0.950 . S
H1706 C1718 0.950 . S
H1707 C1719 0.950 . S
C1708 H1700 0.950 . S
C1708 C1709 1.386 . S
C1708 C1710 1.391 . S
C1709 C1708 1.386 . S
C1709 C1713 1.393 . S
C1710 H1702 0.950 . S
C1710 C1708 1.391 . S
C1710 C1711 1.400 . S
C1711 C1710 1.400 . S
C1711 C1712 1.398 . S
C1711 C1717 1.491 . S
C1712 H1703 0.950 . S
C1712 C1711 1.398 . S
C1712 C1713 1.391 . S
C1713 H1701 0.950 . S
C1713 C1709 1.393 . S
C1713 C1712 1.391 . S
C1714 H1704 0.950 . S
C1714 C1715 1.386 . S
C1714 C1716 1.391 . S
C1715 C1714 1.386 . S
C1715 C1719 1.393 . S
C1716 H1705 0.950 . S
C1716 C1714 1.391 . S
C1716 C1717 1.400 . S
C1717 C1711 1.491 . S
C1717 C1716 1.400 . S
C1717 C1718 1.398 . S
C1718 H1706 0.950 . S
C1718 C1717 1.398 . S
C1718 C1719 1.391 . S
C1719 H1707 0.950 . S
C1719 C1715 1.393 . S
C1719 C1718 1.391 . S
H1720 C1728 0.950 . S
H1721 C1733 0.950 . S
H1722 C1730 0.950 . S
H1723 C1732 0.950 . S
H1724 C1734 0.950 . S
H1725 C1736 0.950 . S
H1726 C1738 0.950 . S
H1727 C1739 0.950 . S
C1728 H1720 0.950 . S
C1728 C1729 1.386 . S
C1728 C1730 1.391 . S
C1729 C1728 1.386 . S
C1729 C1733 1.393 . S
C1730 H1722 0.950 . S
C1730 C1728 1.391 . S
C1730 C1731 1.400 . S
C1731 C1730 1.400 . S
C1731 C1732 1.398 . S
C1731 C1737 1.491 . S
C1732 H1723 0.950 . S
C1732 C1731 1.398 . S
C1732 C1733 1.391 . S
C1733 H1721 0.950 . S
C1733 C1729 1.393 . S
C1733 C1732 1.391 . S
C1734 H1724 0.950 . S
C1734 C1735 1.386 . S
C1734 C1736 1.391 . S
C1735 C1734 1.386 . S
C1735 C1739 1.393 . S
C1736 H1725 0.950 . S
C1736 C1734 1.391 . S
C1736 C1737 1.400 . S
C1737 C1731 1.491 . S
C1737 C1736 1.400 . S
C1737 C1738 1.398 . S
C1738 H1726 0.950 . S
C1738 C1737 1.398 . S
C1738 C1739 1.391 . S
C1739 H1727 0.950 . S
C1739 C1735 1.393 . S
C1739 C1738 1.391 . S
H1740 C1748 0.950 . S
H1741 C1753 0.950 . S
H1742 C1750 0.950 . S
H1743 C1752 0.950 . S
H1744 C1754 0.950 . S
H1745 C1756 0.950 . S
H1746 C1758 0.950 . S
H1747 C1759 0.950 . S
C1748 H1740 0.950 . S
C1748 C1749 1.386 . S
C1748 C1750 1.391 . S
C1749 C1748 1.386 . S
C1749 C1753 1.393 . S
C1750 H1742 0.950 . S
C1750 C1748 1.391 . S
C1750 C1751 1.400 . S
C1751 C1750 1.400 . S
C1751 C1752 1.398 . S
C1751 C1757 1.491 . S
C1752 H1743 0.950 . S
C1752 C1751 1.398 . S
C1752 C1753 1.391 . S
C1753 H1741 0.950 . S
C1753 C1749 1.393 . S
C1753 C1752 1.391 . S
C1754 H1744 0.950 . S
C1754 C1755 1.386 . S
C1754 C1756 1.391 . S
C1755 C1754 1.386 . S
C1755 C1759 1.393 . S
C1756 H1745 0.950 . S
C1756 C1754 1.391 . S
C1756 C1757 1.400 . S
C1757 C1751 1.491 . S
C1757 C1756 1.400 . S
C1757 C1758 1.398 . S
C1758 H1746 0.950 . S
C1758 C1757 1.398 . S
C1758 C1759 1.391 . S
C1759 H1747 0.950 . S
C1759 C1755 1.393 . S
C1759 C1758 1.391 . S
H1760 C1768 0.950 . S
H1761 C1773 0.950 . S
H1762 C1770 0.950 . S
H1763 C1772 0.950 . S
H1764 C1774 0.950 . S
H1765 C1776 0.950 . S
H1766 C1778 0.950 . S
H1767 C1779 0.950 . S
C1768 H1760 0.950 . S
C1768 C1769 1.386 . S
C1768 C1770 1.391 . S
C1769 C1768 1.386 . S
C1769 C1773 1.393 . S
C1770 H1762 0.950 . S
C1770 C1768 1.391 . S
C1770 C1771 1.400 . S
C1771 C1770 1.400 . S
C1771 C1772 1.398 . S
C1771 C1777 1.491 . S
C1772 H1763 0.950 . S
C1772 C1771 1.398 . S
C1772 C1773 1.391 . S
C1773 H1761 0.950 . S
C1773 C1769 1.393 . S
C1773 C1772 1.391 . S
C1774 H1764 0.950 . S
C1774 C1775 1.386 . S
C1774 C1776 1.391 . S
C1775 C1774 1.386 . S
C1775 C1779 1.393 . S
C1776 H1765 0.950 . S
C1776 C1774 1.391 . S
C1776 C1777 1.400 . S
C1777 C1771 1.491 . S
C1777 C1776 1.400 . S
C1777 C1778 1.398 . S
C1778 H1766 0.950 . S
C1778 C1777 1.398 . S
C1778 C1779 1.391 . S
C1779 H1767 0.950 . S
C1779 C1775 1.393 . S
C1779 C1778 1.391 . S
H1780 C1788 0.950 . S
H1781 C1793 0.950 . S
H1782 C1790 0.950 . S
H1783 C1792 0.950 . S
H1784 C1794 0.950 . S
H1785 C1796 0.950 . S
H1786 C1798 0.950 . S
H1787 C1799 0.950 . S
C1788 H1780 0.950 . S
C1788 C1789 1.386 . S
C1788 C1790 1.391 . S
C1789 C1788 1.386 . S
C1789 C1793 1.393 . S
C1790 H1782 0.950 . S
C1790 C1788 1.391 . S
C1790 C1791 1.400 . S
C1791 C1790 1.400 . S
C1791 C1792 1.398 . S
C1791 C1797 1.491 . S
C1792 H1783 0.950 . S
C1792 C1791 1.398 . S
C1792 C1793 1.391 . S
C1793 H1781 0.950 . S
C1793 C1789 1.393 . S
C1793 C1792 1.391 . S
C1794 H1784 0.950 . S
C1794 C1795 1.386 . S
C1794 C1796 1.391 . S
C1795 C1794 1.386 . S
C1795 C1799 1.393 . S
C1796 H1785 0.950 . S
C1796 C1794 1.391 . S
C1796 C1797 1.400 . S
C1797 C1791 1.491 . S
C1797 C1796 1.400 . S
C1797 C1798 1.398 . S
C1798 H1786 0.950 . S
C1798 C1797 1.398 . S
C1798 C1799 1.391 . S
C1799 H1787 0.950 . S
C1799 C1795 1.393 . S
C1799 C1798 1.391 . S
H1800 C1808 0.950 . S
H1801 C1813 0.950 . S
H1802 C1810 0.950 . S
H1803 C1812 0.950 . S
H1804 C1814 0.950 . S
H1805 C1816 0.950 . S
H1806 C1818 0.950 . S
H1807 C1819 0.950 . S
C1808 H1800 0.950 . S
C1808 C1809 1.386 . S
C1808 C1810 1.391 . S
C1809 C1808 1.386 . S
C1809 C1813 1.393 . S
C1810 H1802 0.950 . S
C1810 C1808 1.391 . S
C1810 C1811 1.400 . S
C1811 C1810 1.400 . S
C1811 C1812 1.398 . S
C1811 C1817 1.491 . S
C1812 H1803 0.950 . S
C1812 C1811 1.398 . S
C1812 C1813 1.391 . S
C1813 H1801 0.950 . S
C1813 C1809 1.393 . S
C1813 C1812 1.391 . S
C1814 H1804 0.950 . S
C1814 C1815 1.386 . S
C1814 C1816 1.391 . S
C1815 C1814 1.386 . S
C1815 C1819 1.393 . S
C1816 H1805 0.950 . S
C1816 C1814 1.391 . S
C1816 C1817 1.400 . S
C1817 C1811 1.491 . S
C1817 C1816 1.400 . S
C1817 C1818 1.398 . S
C1818 H1806 0.950 . S
C1818 C1817 1.398 . S
C1818 C1819 1.391 . S
C1819 H1807 0.950 . S
C1819 C1815 1.393 . S
C1819 C1818 1.391 . S
H1820 C1828 0.950 . S
H1821 C1833 0.950 . S
H1822 C1830 0.950 . S
H1823 C1832 0.950 . S
H1824 C1834 0.950 . S
H1825 C1836 0.950 . S
H1826 C1838 0.950 . S
H1827 C1839 0.950 . S
C1828 H1820 0.950 . S
C1828 C1829 1.386 . S
C1828 C1830 1.391 . S
C1829 C1828 1.386 . S
C1829 C1833 1.393 . S
C1830 H1822 0.950 . S
C1830 C1828 1.391 . S
C1830 C1831 1.400 . S
C1831 C1830 1.400 . S
C1831 C1832 1.398 . S
C1831 C1837 1.491 . S
C1832 H1823 0.950 . S
C1832 C1831 1.398 . S
C1832 C1833 1.391 . S
C1833 H1821 0.950 . S
C1833 C1829 1.393 . S
C1833 C1832 1.391 . S
C1834 H1824 0.950 . S
C1834 C1835 1.386 . S
C1834 C1836 1.391 . S
C1835 C1834 1.386 . S
C1835 C1839 1.393 . S
C1836 H1825 0.950 . S
C1836 C1834 1.391 . S
C1836 C1837 1.400 . S
C1837 C1831 1.491 . S
C1837 C1836 1.400 . S
C1837 C1838 1.398 . S
C1838 H1826 0.950 . S
C1838 C1837 1.398 . S
C1838 C1839 1.391 . S
C1839 H1827 0.950 . S
C1839 C1835 1.393 . S
C1839 C1838 1.391 . S
H1840 C1848 0.950 . S
H1841 C1853 0.950 . S
H1842 C1850 0.950 . S
H1843 C1852 0.950 . S
H1844 C1854 0.950 . S
H1845 C1856 0.950 . S
H1846 C1858 0.950 . S
H1847 C1859 0.950 . S
C1848 H1840 0.950 . S
C1848 C1849 1.386 . S
C1848 C1850 1.391 . S
C1849 C1848 1.386 . S
C1849 C1853 1.393 . S
C1850 H1842 0.950 . S
C1850 C1848 1.391 . S
C1850 C1851 1.400 . S
C1851 C1850 1.400 . S
C1851 C1852 1.398 . S
C1851 C1857 1.491 . S
C1852 H1843 0.950 . S
C1852 C1851 1.398 . S
C1852 C1853 1.391 . S
C1853 H1841 0.950 . S
C1853 C1849 1.393 . S
C1853 C1852 1.391 . S
C1854 H1844 0.950 . S
C1854 C1855 1.386 . S
C1854 C1856 1.391 . S
C1855 C1854 1.386 . S
C1855 C1859 1.393 . S
C1856 H1845 0.950 . S
C1856 C1854 1.391 . S
C1856 C1857 1.400 . S
C1857 C1851 1.491 . S
C1857 C1856 1.400 . S
C1857 C1858 1.398 . S
C1858 H1846 0.950 . S
C1858 C1857 1.398 . S
C1858 C1859 1.391 . S
C1859 H1847 0.950 . S
C1859 C1855 1.393 . S
C1859 C1858 1.391 . S
H1860 C1868 0.950 1_554 S
H1861 C1873 0.950 . S
H1862 C1870 0.950 . S
H1863 C1872 0.950 . S
H1864 C1874 0.950 . S
H1865 C1876 0.950 . S
H1866 C1878 0.950 . S
H1867 C1879 0.950 . S
C1868 H1860 0.950 1_556 S
C1868 C1869 1.386 . S
C1868 C1870 1.391 . S
C1869 C1868 1.386 . S
C1869 C1873 1.393 . S
C1870 H1862 0.950 . S
C1870 C1868 1.391 . S
C1870 C1871 1.400 . S
C1871 C1870 1.400 . S
C1871 C1872 1.398 . S
C1871 C1877 1.491 . S
C1872 H1863 0.950 . S
C1872 C1871 1.398 . S
C1872 C1873 1.391 . S
C1873 H1861 0.950 . S
C1873 C1869 1.393 . S
C1873 C1872 1.391 . S
C1874 H1864 0.950 . S
C1874 C1875 1.386 . S
C1874 C1876 1.391 . S
C1875 C1874 1.386 . S
C1875 C1879 1.393 . S
C1876 H1865 0.950 . S
C1876 C1874 1.391 . S
C1876 C1877 1.400 . S
C1877 C1871 1.491 . S
C1877 C1876 1.400 . S
C1877 C1878 1.398 . S
C1878 H1866 0.950 . S
C1878 C1877 1.398 . S
C1878 C1879 1.391 . S
C1879 H1867 0.950 . S
C1879 C1875 1.393 . S
C1879 C1878 1.391 . S
H1880 C1888 0.950 . S
H1881 C1893 0.995 . S
H1882 C1890 0.950 . S
H1883 C1892 0.950 . S
H1884 C1894 0.950 . S
H1885 C1896 0.950 . S
H1886 C1898 0.950 . S
H1887 C1899 0.950 . S
C1888 H1880 0.950 . S
C1888 C1889 1.386 . S
C1888 C1890 1.391 . S
C1889 C1888 1.386 . S
C1889 C1893 1.393 . S
C1890 H1882 0.950 . S
C1890 C1888 1.391 . S
C1890 C1891 1.400 . S
C1891 C1890 1.400 . S
C1891 C1892 1.398 . S
C1891 C1897 1.491 . S
C1892 H1883 0.950 . S
C1892 C1891 1.398 . S
C1892 C1893 1.391 . S
C1893 H1881 0.995 . S
C1893 C1889 1.393 . S
C1893 C1892 1.391 . S
C1894 H1884 0.950 . S
C1894 C1895 1.386 . S
C1894 C1896 1.391 . S
C1895 C1894 1.386 . S
C1895 C1899 1.393 . S
C1896 H1885 0.950 . S
C1896 C1894 1.391 . S
C1896 C1897 1.400 . S
C1897 C1891 1.491 . S
C1897 C1896 1.400 . S
C1897 C1898 1.398 . S
C1898 H1886 0.950 . S
C1898 C1897 1.398 . S
C1898 C1899 1.391 . S
C1899 H1887 0.950 . S
C1899 C1895 1.393 . S
C1899 C1898 1.391 . S
H1900 C1908 0.950 1_554 S
H1901 C1913 0.950 . S
H1902 C1910 0.950 . S
H1903 C1912 0.950 . S
H1904 C1914 0.950 . S
H1905 C1916 0.950 . S
H1906 C1918 0.950 . S
H1907 C1919 0.950 . S
C1908 H1900 0.950 1_556 S
C1908 C1909 1.386 . S
C1908 C1910 1.391 . S
C1909 C1908 1.386 . S
C1909 C1913 1.393 . S
C1910 H1902 0.950 . S
C1910 C1908 1.391 . S
C1910 C1911 1.400 . S
C1911 C1910 1.400 . S
C1911 C1912 1.398 . S
C1911 C1917 1.491 . S
C1912 H1903 0.950 . S
C1912 C1911 1.398 . S
C1912 C1913 1.391 . S
C1913 H1901 0.950 . S
C1913 C1909 1.393 . S
C1913 C1912 1.391 . S
C1914 H1904 0.950 . S
C1914 C1915 1.386 . S
C1914 C1916 1.391 . S
C1915 C1914 1.386 . S
C1915 C1919 1.393 . S
C1916 H1905 0.950 . S
C1916 C1914 1.391 . S
C1916 C1917 1.400 . S
C1917 C1911 1.491 . S
C1917 C1916 1.400 . S
C1917 C1918 1.398 . S
C1918 H1906 0.950 . S
C1918 C1917 1.398 . S
C1918 C1919 1.391 . S
C1919 H1907 0.950 . S
C1919 C1915 1.393 . S
C1919 C1918 1.391 . S
H1920 C1928 0.900 1_554 S
H1921 C1933 0.950 . S
H1922 C1930 0.950 . S
H1923 C1932 0.950 . S
H1924 C1934 0.950 . S
H1925 C1936 0.950 . S
H1926 C1938 0.950 . S
H1927 C1939 0.950 . S
C1928 H1920 0.900 1_556 S
C1928 C1929 1.386 . S
C1928 C1930 1.391 . S
C1929 C1928 1.386 . S
C1929 C1933 1.393 . S
C1930 H1922 0.950 . S
C1930 C1928 1.391 . S
C1930 C1931 1.400 . S
C1931 C1930 1.400 . S
C1931 C1932 1.398 . S
C1931 C1937 1.491 . S
C1932 H1923 0.950 . S
C1932 C1931 1.398 . S
C1932 C1933 1.391 . S
C1933 H1921 0.950 . S
C1933 C1929 1.393 . S
C1933 C1932 1.391 . S
C1934 H1924 0.950 . S
C1934 C1935 1.386 . S
C1934 C1936 1.391 . S
C1935 C1934 1.386 . S
C1935 C1939 1.393 . S
C1936 H1925 0.950 . S
C1936 C1934 1.391 . S
C1936 C1937 1.400 . S
C1937 C1931 1.491 . S
C1937 C1936 1.400 . S
C1937 C1938 1.398 . S
C1938 H1926 0.950 . S
C1938 C1937 1.398 . S
C1938 C1939 1.391 . S
C1939 H1927 0.950 . S
C1939 C1935 1.393 . S
C1939 C1938 1.391 . S
H1940 C1948 0.950 . S
H1941 C1953 0.950 . S
H1942 C1950 0.950 . S
H1943 C1952 0.950 . S
H1944 C1954 0.950 . S
H1945 C1956 0.950 . S
H1946 C1958 0.950 . S
H1947 C1959 0.950 . S
C1948 H1940 0.950 . S
C1948 C1949 1.386 . S
C1948 C1950 1.391 . S
C1949 C1948 1.386 . S
C1949 C1953 1.393 . S
C1950 H1942 0.950 . S
C1950 C1948 1.391 . S
C1950 C1951 1.400 . S
C1951 C1950 1.400 . S
C1951 C1952 1.398 . S
C1951 C1957 1.491 . S
C1952 H1943 0.950 . S
C1952 C1951 1.398 . S
C1952 C1953 1.391 . S
C1953 H1941 0.950 . S
C1953 C1949 1.393 . S
C1953 C1952 1.391 . S
C1954 H1944 0.950 . S
C1954 C1955 1.386 . S
C1954 C1956 1.391 . S
C1955 C1954 1.386 . S
C1955 C1959 1.393 . S
C1956 H1945 0.950 . S
C1956 C1954 1.391 . S
C1956 C1957 1.400 . S
C1957 C1951 1.491 . S
C1957 C1956 1.400 . S
C1957 C1958 1.398 . S
C1958 H1946 0.950 . S
C1958 C1957 1.398 . S
C1958 C1959 1.391 . S
C1959 H1947 0.950 . S
C1959 C1955 1.393 . S
C1959 C1958 1.391 . S
H1960 C1968 0.950 1_554 S
H1961 C1973 0.950 . S
H1962 C1970 0.950 . S
H1963 C1972 0.950 . S
H1964 C1974 0.950 . S
H1965 C1976 0.950 . S
H1966 C1978 0.950 . S
H1967 C1979 0.950 . S
C1968 H1960 0.950 1_556 S
C1968 C1969 1.386 . S
C1968 C1970 1.391 . S
C1969 C1968 1.386 . S
C1969 C1973 1.393 . S
C1970 H1962 0.950 . S
C1970 C1968 1.391 . S
C1970 C1971 1.400 . S
C1971 C1970 1.400 . S
C1971 C1972 1.398 . S
C1971 C1977 1.491 . S
C1972 H1963 0.950 . S
C1972 C1971 1.398 . S
C1972 C1973 1.391 . S
C1973 H1961 0.950 . S
C1973 C1969 1.393 . S
C1973 C1972 1.391 . S
C1974 H1964 0.950 . S
C1974 C1975 1.386 . S
C1974 C1976 1.391 . S
C1975 C1974 1.386 . S
C1975 C1979 1.393 . S
C1976 H1965 0.950 . S
C1976 C1974 1.391 . S
C1976 C1977 1.400 . S
C1977 C1971 1.491 . S
C1977 C1976 1.400 . S
C1977 C1978 1.398 . S
C1978 H1966 0.950 . S
C1978 C1977 1.398 . S
C1978 C1979 1.391 . S
C1979 H1967 0.950 . S
C1979 C1975 1.393 . S
C1979 C1978 1.391 . S
H1980 C1988 0.950 . S
H1981 C1993 0.950 . S
H1982 C1990 0.950 . S
H1983 C1992 0.950 . S
H1984 C1994 0.950 . S
H1985 C1996 0.950 . S
H1986 C1998 0.950 . S
H1987 C1999 0.950 . S
C1988 H1980 0.950 . S
C1988 C1989 1.386 . S
C1988 C1990 1.391 . S
C1989 C1988 1.386 . S
C1989 C1993 1.393 . S
C1990 H1982 0.950 . S
C1990 C1988 1.391 . S
C1990 C1991 1.400 . S
C1991 C1990 1.400 . S
C1991 C1992 1.398 . S
C1991 C1997 1.491 . S
C1992 H1983 0.950 . S
C1992 C1991 1.398 . S
C1992 C1993 1.391 . S
C1993 H1981 0.950 . S
C1993 C1989 1.393 . S
C1993 C1992 1.391 . S
C1994 H1984 0.950 . S
C1994 C1995 1.386 . S
C1994 C1996 1.391 . S
C1995 C1994 1.386 . S
C1995 C1999 1.393 . S
C1996 H1985 0.950 . S
C1996 C1994 1.391 . S
C1996 C1997 1.400 . S
C1997 C1991 1.491 . S
C1997 C1996 1.400 . S
C1997 C1998 1.398 . S
C1998 H1986 0.950 . S
C1998 C1997 1.398 . S
C1998 C1999 1.391 . S
C1999 H1987 0.950 . S
C1999 C1995 1.393 . S
C1999 C1998 1.391 . S
H2000 C2008 0.950 . S
H2001 C2013 0.950 . S
H2002 C2010 0.950 . S
H2003 C2012 0.950 . S
H2004 C2014 0.950 . S
H2005 C2016 0.950 . S
H2006 C2018 0.950 . S
H2007 C2019 0.950 . S
C2008 H2000 0.950 . S
C2008 C2009 1.386 . S
C2008 C2010 1.391 . S
C2009 C2008 1.386 . S
C2009 C2013 1.393 . S
C2010 H2002 0.950 . S
C2010 C2008 1.391 . S
C2010 C2011 1.400 . S
C2011 C2010 1.400 . S
C2011 C2012 1.398 . S
C2011 C2017 1.491 . S
C2012 H2003 0.950 . S
C2012 C2011 1.398 . S
C2012 C2013 1.391 . S
C2013 H2001 0.950 . S
C2013 C2009 1.393 . S
C2013 C2012 1.391 . S
C2014 H2004 0.950 . S
C2014 C2015 1.386 . S
C2014 C2016 1.391 . S
C2015 C2014 1.386 . S
C2015 C2019 1.393 . S
C2016 H2005 0.950 . S
C2016 C2014 1.391 . S
C2016 C2017 1.400 . S
C2017 C2011 1.491 . S
C2017 C2016 1.400 . S
C2017 C2018 1.398 . S
C2018 H2006 0.950 . S
C2018 C2017 1.398 . S
C2018 C2019 1.391 . S
C2019 H2007 0.950 . S
C2019 C2015 1.393 . S
C2019 C2018 1.391 . S
H2020 C2028 0.950 . S
H2021 C2033 0.950 . S
H2022 C2030 0.950 . S
H2023 C2032 0.950 . S
H2024 C2034 0.950 . S
H2025 C2036 0.950 . S
H2026 C2038 0.950 . S
H2027 C2039 0.950 . S
C2028 H2020 0.950 . S
C2028 C2029 1.386 . S
C2028 C2030 1.391 . S
C2029 C2028 1.386 . S
C2029 C2033 1.393 . S
C2030 H2022 0.950 . S
C2030 C2028 1.391 . S
C2030 C2031 1.400 . S
C2031 C2030 1.400 . S
C2031 C2032 1.398 . S
C2031 C2037 1.491 . S
C2032 H2023 0.950 . S
C2032 C2031 1.398 . S
C2032 C2033 1.391 . S
C2033 H2021 0.950 . S
C2033 C2029 1.393 . S
C2033 C2032 1.391 . S
C2034 H2024 0.950 . S
C2034 C2035 1.386 . S
C2034 C2036 1.391 . S
C2035 C2034 1.386 . S
C2035 C2039 1.393 . S
C2036 H2025 0.950 . S
C2036 C2034 1.391 . S
C2036 C2037 1.400 . S
C2037 C2031 1.491 . S
C2037 C2036 1.400 . S
C2037 C2038 1.398 . S
C2038 H2026 0.950 . S
C2038 C2037 1.398 . S
C2038 C2039 1.391 . S
C2039 H2027 0.950 . S
C2039 C2035 1.393 . S
C2039 C2038 1.391 . S
H2040 C2048 0.950 . S
H2041 C2053 0.950 . S
H2042 C2050 0.950 . S
H2043 C2052 0.950 . S
H2044 C2054 0.950 . S
H2045 C2056 0.950 . S
H2046 C2058 0.950 . S
H2047 C2059 0.950 . S
C2048 H2040 0.950 . S
C2048 C2049 1.386 . S
C2048 C2050 1.391 . S
C2049 C2048 1.386 . S
C2049 C2053 1.393 . S
C2050 H2042 0.950 . S
C2050 C2048 1.391 . S
C2050 C2051 1.400 . S
C2051 C2050 1.400 . S
C2051 C2052 1.398 . S
C2051 C2057 1.491 . S
C2052 H2043 0.950 . S
C2052 C2051 1.398 . S
C2052 C2053 1.391 . S
C2053 H2041 0.950 . S
C2053 C2049 1.393 . S
C2053 C2052 1.391 . S
C2054 H2044 0.950 . S
C2054 C2055 1.386 . S
C2054 C2056 1.391 . S
C2055 C2054 1.386 . S
C2055 C2059 1.393 . S
C2056 H2045 0.950 . S
C2056 C2054 1.391 . S
C2056 C2057 1.400 . S
C2057 C2051 1.491 . S
C2057 C2056 1.400 . S
C2057 C2058 1.398 . S
C2058 H2046 0.950 . S
C2058 C2057 1.398 . S
C2058 C2059 1.391 . S
C2059 H2047 0.950 . S
C2059 C2055 1.393 . S
C2059 C2058 1.391 . S
H2060 C2068 0.950 . S
H2061 C2073 0.950 . S
H2062 C2070 0.950 . S
H2063 C2072 0.950 . S
H2064 C2074 0.950 . S
H2065 C2076 0.950 . S
H2066 C2078 0.950 . S
H2067 C2079 0.950 . S
C2068 H2060 0.950 . S
C2068 C2069 1.386 . S
C2068 C2070 1.391 . S
C2069 C2068 1.386 . S
C2069 C2073 1.393 . S
C2070 H2062 0.950 . S
C2070 C2068 1.391 . S
C2070 C2071 1.400 . S
C2071 C2070 1.400 . S
C2071 C2072 1.398 . S
C2071 C2077 1.491 . S
C2072 H2063 0.950 . S
C2072 C2071 1.398 . S
C2072 C2073 1.391 . S
C2073 H2061 0.950 . S
C2073 C2069 1.393 . S
C2073 C2072 1.391 . S
C2074 H2064 0.950 . S
C2074 C2075 1.386 . S
C2074 C2076 1.391 . S
C2075 C2074 1.386 . S
C2075 C2079 1.393 . S
C2076 H2065 0.950 . S
C2076 C2074 1.391 . S
C2076 C2077 1.400 . S
C2077 C2071 1.491 . S
C2077 C2076 1.400 . S
C2077 C2078 1.398 . S
C2078 H2066 0.950 . S
C2078 C2077 1.398 . S
C2078 C2079 1.391 . S
C2079 H2067 0.950 . S
C2079 C2075 1.393 . S
C2079 C2078 1.391 . S
H2080 C2088 0.950 . S
H2081 C2093 0.950 . S
H2082 C2090 0.950 . S
H2083 C2092 0.950 . S
H2084 C2094 0.950 . S
H2085 C2096 0.950 . S
H2086 C2098 0.950 . S
H2087 C2099 0.950 . S
C2088 H2080 0.950 . S
C2088 C2089 1.386 . S
C2088 C2090 1.391 . S
C2089 C2088 1.386 . S
C2089 C2093 1.393 . S
C2090 H2082 0.950 . S
C2090 C2088 1.391 . S
C2090 C2091 1.400 . S
C2091 C2090 1.400 . S
C2091 C2092 1.398 . S
C2091 C2097 1.491 . S
C2092 H2083 0.950 . S
C2092 C2091 1.398 . S
C2092 C2093 1.391 . S
C2093 H2081 0.950 . S
C2093 C2089 1.393 . S
C2093 C2092 1.391 . S
C2094 H2084 0.950 . S
C2094 C2095 1.386 . S
C2094 C2096 1.391 . S
C2095 C2094 1.386 . S
C2095 C2099 1.393 . S
C2096 H2085 0.950 . S
C2096 C2094 1.391 . S
C2096 C2097 1.400 . S
C2097 C2091 1.491 . S
C2097 C2096 1.400 . S
C2097 C2098 1.398 . S
C2098 H2086 0.950 . S
C2098 C2097 1.398 . S
C2098 C2099 1.391 . S
C2099 H2087 0.950 . S
C2099 C2095 1.393 . S
C2099 C2098 1.391 . S
H2100 C2108 0.950 1_655 S
H2101 C2113 0.950 . S
H2102 C2110 0.950 1_655 S
H2103 C2112 0.950 . S
H2104 C2114 0.950 . S
H2105 C2116 0.950 . S
H2106 C2118 0.950 1_655 S
H2107 C2119 0.950 . S
C2108 H2100 0.950 1_455 S
C2108 C2109 1.386 . S
C2108 C2110 1.391 . S
C2109 C2108 1.386 . S
C2109 C2113 1.393 . S
C2110 H2102 0.950 1_455 S
C2110 C2108 1.391 . S
C2110 C2111 1.400 . S
C2111 C2110 1.400 . S
C2111 C2112 1.398 . S
C2111 C2117 1.491 . S
C2112 H2103 0.950 . S
C2112 C2111 1.398 . S
C2112 C2113 1.391 . S
C2113 H2101 0.950 . S
C2113 C2109 1.393 . S
C2113 C2112 1.391 . S
C2114 H2104 0.950 . S
C2114 C2115 1.386 . S
C2114 C2116 1.391 . S
C2115 C2114 1.386 . S
C2115 C2119 1.393 1_455 S
C2116 H2105 0.950 . S
C2116 C2114 1.391 . S
C2116 C2117 1.400 . S
C2117 C2111 1.491 . S
C2117 C2116 1.400 . S
C2117 C2118 1.398 . S
C2118 H2106 0.950 1_455 S
C2118 C2117 1.398 . S
C2118 C2119 1.391 1_455 S
C2119 H2107 0.950 . S
C2119 C2115 1.393 1_655 S
C2119 C2118 1.391 1_655 S
H2120 C2128 0.950 . S
H2121 C2133 0.950 . S
H2122 C2130 0.950 . S
H2123 C2132 0.950 . S
H2124 C2134 0.950 . S
H2125 C2136 0.950 . S
H2126 C2138 0.950 . S
H2127 C2139 0.950 . S
C2128 H2120 0.950 . S
C2128 C2129 1.386 . S
C2128 C2130 1.391 . S
C2129 C2128 1.386 . S
C2129 C2133 1.393 . S
C2130 H2122 0.950 . S
C2130 C2128 1.391 . S
C2130 C2131 1.400 . S
C2131 C2130 1.400 . S
C2131 C2132 1.398 . S
C2131 C2137 1.491 . S
C2132 H2123 0.950 . S
C2132 C2131 1.398 . S
C2132 C2133 1.391 . S
C2133 H2121 0.950 . S
C2133 C2129 1.393 . S
C2133 C2132 1.391 . S
C2134 H2124 0.950 . S
C2134 C2135 1.386 . S
C2134 C2136 1.391 . S
C2135 C2134 1.386 . S
C2135 C2139 1.393 . S
C2136 H2125 0.950 . S
C2136 C2134 1.391 . S
C2136 C2137 1.400 . S
C2137 C2131 1.491 . S
C2137 C2136 1.400 . S
C2137 C2138 1.398 . S
C2138 H2126 0.950 . S
C2138 C2137 1.398 . S
C2138 C2139 1.391 . S
C2139 H2127 0.950 . S
C2139 C2135 1.393 . S
C2139 C2138 1.391 . S
H2140 C2148 0.950 . S
H2141 C2153 0.950 . S
H2142 C2150 0.950 . S
H2143 C2152 0.950 . S
H2144 C2154 0.950 . S
H2145 C2156 0.950 . S
H2146 C2158 0.950 . S
H2147 C2159 0.950 . S
C2148 H2140 0.950 . S
C2148 C2149 1.386 . S
C2148 C2150 1.391 . S
C2149 C2148 1.386 . S
C2149 C2153 1.393 1_565 S
C2150 H2142 0.950 . S
C2150 C2148 1.391 . S
C2150 C2151 1.400 . S
C2151 C2150 1.400 . S
C2151 C2152 1.398 1_565 S
C2151 C2157 1.491 . S
C2152 H2143 0.950 . S
C2152 C2151 1.398 1_545 S
C2152 C2153 1.391 . S
C2153 H2141 0.950 . S
C2153 C2149 1.393 1_545 S
C2153 C2152 1.391 . S
C2154 H2144 0.950 . S
C2154 C2155 1.386 1_545 S
C2154 C2156 1.391 . S
C2155 C2154 1.386 1_565 S
C2155 C2159 1.393 . S
C2156 H2145 0.950 . S
C2156 C2154 1.391 . S
C2156 C2157 1.400 1_545 S
C2157 C2151 1.491 . S
C2157 C2156 1.400 1_565 S
C2157 C2158 1.398 . S
C2158 H2146 0.950 . S
C2158 C2157 1.398 . S
C2158 C2159 1.391 . S
C2159 H2147 0.950 . S
C2159 C2155 1.393 . S
C2159 C2158 1.391 . S
H2160 C2168 0.950 . S
H2161 C2173 0.950 . S
H2162 C2170 0.950 . S
H2163 C2172 0.950 . S
H2164 C2174 0.950 . S
H2165 C2176 0.950 . S
H2166 C2178 0.950 . S
H2167 C2179 0.950 . S
C2168 H2160 0.950 . S
C2168 C2169 1.386 . S
C2168 C2170 1.391 . S
C2169 C2168 1.386 . S
C2169 C2173 1.393 . S
C2170 H2162 0.950 . S
C2170 C2168 1.391 . S
C2170 C2171 1.400 . S
C2171 C2170 1.400 . S
C2171 C2172 1.398 . S
C2171 C2177 1.491 . S
C2172 H2163 0.950 . S
C2172 C2171 1.398 . S
C2172 C2173 1.391 . S
C2173 H2161 0.950 . S
C2173 C2169 1.393 . S
C2173 C2172 1.391 . S
C2174 H2164 0.950 . S
C2174 C2175 1.386 . S
C2174 C2176 1.391 . S
C2175 C2174 1.386 . S
C2175 C2179 1.393 . S
C2176 H2165 0.950 . S
C2176 C2174 1.391 . S
C2176 C2177 1.400 . S
C2177 C2171 1.491 . S
C2177 C2176 1.400 . S
C2177 C2178 1.398 . S
C2178 H2166 0.950 . S
C2178 C2177 1.398 . S
C2178 C2179 1.391 . S
C2179 H2167 0.950 . S
C2179 C2175 1.393 . S
C2179 C2178 1.391 . S
H2180 C2188 0.950 . S
H2181 C2193 0.950 . S
H2182 C2190 0.950 . S
H2183 C2192 0.950 . S
H2184 C2194 0.950 . S
H2185 C2196 0.950 . S
H2186 C2198 0.950 . S
H2187 C2199 0.950 . S
C2188 H2180 0.950 . S
C2188 C2189 1.386 . S
C2188 C2190 1.391 . S
C2189 C2188 1.386 . S
C2189 C2193 1.393 1_455 S
C2190 H2182 0.950 . S
C2190 C2188 1.391 . S
C2190 C2191 1.400 . S
C2191 C2190 1.400 . S
C2191 C2192 1.398 1_455 S
C2191 C2197 1.491 . S
C2192 H2183 0.950 . S
C2192 C2191 1.398 1_655 S
C2192 C2193 1.391 . S
C2193 H2181 0.950 . S
C2193 C2189 1.393 1_655 S
C2193 C2192 1.391 . S
C2194 H2184 0.950 . S
C2194 C2195 1.386 1_655 S
C2194 C2196 1.391 . S
C2195 C2194 1.386 1_455 S
C2195 C2199 1.393 . S
C2196 H2185 0.950 . S
C2196 C2194 1.391 . S
C2196 C2197 1.400 1_655 S
C2197 C2191 1.491 . S
C2197 C2196 1.400 1_455 S
C2197 C2198 1.398 . S
C2198 H2186 0.950 . S
C2198 C2197 1.398 . S
C2198 C2199 1.391 . S
C2199 H2187 0.950 . S
C2199 C2195 1.393 . S
C2199 C2198 1.391 . S
H2200 C2208 0.950 . S
H2201 C2213 0.950 . S
H2202 C2210 0.950 . S
H2203 C2212 0.950 . S
H2204 C2214 0.950 . S
H2205 C2216 0.950 . S
H2206 C2218 0.950 . S
H2207 C2219 0.950 . S
C2208 H2200 0.950 . S
C2208 C2209 1.386 . S
C2208 C2210 1.391 . S
C2209 C2208 1.386 . S
C2209 C2213 1.393 . S
C2210 H2202 0.950 . S
C2210 C2208 1.391 . S
C2210 C2211 1.400 . S
C2211 C2210 1.400 . S
C2211 C2212 1.398 . S
C2211 C2217 1.491 . S
C2212 H2203 0.950 . S
C2212 C2211 1.398 . S
C2212 C2213 1.391 . S
C2213 H2201 0.950 . S
C2213 C2209 1.393 . S
C2213 C2212 1.391 . S
C2214 H2204 0.950 . S
C2214 C2215 1.386 . S
C2214 C2216 1.391 . S
C2215 C2214 1.386 . S
C2215 C2219 1.393 . S
C2216 H2205 0.950 . S
C2216 C2214 1.391 . S
C2216 C2217 1.400 . S
C2217 C2211 1.491 . S
C2217 C2216 1.400 . S
C2217 C2218 1.398 . S
C2218 H2206 0.950 . S
C2218 C2217 1.398 . S
C2218 C2219 1.391 . S
C2219 H2207 0.950 . S
C2219 C2215 1.393 . S
C2219 C2218 1.391 . S
H2220 C2228 0.950 . S
H2221 C2233 0.950 . S
H2222 C2230 0.950 . S
H2223 C2232 0.950 . S
H2224 C2234 0.950 . S
H2225 C2236 0.950 . S
H2226 C2238 0.950 . S
H2227 C2239 0.950 . S
C2228 H2220 0.950 . S
C2228 C2229 1.386 . S
C2228 C2230 1.391 . S
C2229 C2228 1.386 . S
C2229 C2233 1.393 . S
C2230 H2222 0.950 . S
C2230 C2228 1.391 . S
C2230 C2231 1.400 . S
C2231 C2230 1.400 . S
C2231 C2232 1.398 . S
C2231 C2237 1.491 . S
C2232 H2223 0.950 . S
C2232 C2231 1.398 . S
C2232 C2233 1.391 . S
C2233 H2221 0.950 . S
C2233 C2229 1.393 . S
C2233 C2232 1.391 . S
C2234 H2224 0.950 . S
C2234 C2235 1.386 . S
C2234 C2236 1.391 . S
C2235 C2234 1.386 . S
C2235 C2239 1.393 . S
C2236 H2225 0.950 . S
C2236 C2234 1.391 . S
C2236 C2237 1.400 . S
C2237 C2231 1.491 . S
C2237 C2236 1.400 . S
C2237 C2238 1.398 . S
C2238 H2226 0.950 . S
C2238 C2237 1.398 . S
C2238 C2239 1.391 . S
C2239 H2227 0.950 . S
C2239 C2235 1.393 . S
C2239 C2238 1.391 . S
H2240 C2248 0.950 . S
H2241 C2253 0.950 . S
H2242 C2250 0.950 . S
H2243 C2252 0.950 . S
H2244 C2254 0.950 . S
H2245 C2256 0.950 . S
H2246 C2258 0.950 . S
H2247 C2259 0.950 . S
C2248 H2240 0.950 . S
C2248 C2249 1.386 . S
C2248 C2250 1.391 . S
C2249 C2248 1.386 . S
C2249 C2253 1.393 . S
C2250 H2242 0.950 . S
C2250 C2248 1.391 . S
C2250 C2251 1.400 . S
C2251 C2250 1.400 . S
C2251 C2252 1.398 . S
C2251 C2257 1.491 . S
C2252 H2243 0.950 . S
C2252 C2251 1.398 . S
C2252 C2253 1.391 . S
C2253 H2241 0.950 . S
C2253 C2249 1.393 . S
C2253 C2252 1.391 . S
C2254 H2244 0.950 . S
C2254 C2255 1.386 . S
C2254 C2256 1.391 . S
C2255 C2254 1.386 . S
C2255 C2259 1.393 . S
C2256 H2245 0.950 . S
C2256 C2254 1.391 . S
C2256 C2257 1.400 . S
C2257 C2251 1.491 . S
C2257 C2256 1.400 . S
C2257 C2258 1.398 . S
C2258 H2246 0.950 . S
C2258 C2257 1.398 . S
C2258 C2259 1.391 . S
C2259 H2247 0.950 . S
C2259 C2255 1.393 . S
C2259 C2258 1.391 . S
H2260 C2268 0.950 . S
H2261 C2273 0.950 . S
H2262 C2270 0.950 . S
H2263 C2272 0.950 . S
H2264 C2274 0.950 . S
H2265 C2276 0.950 . S
H2266 C2278 0.950 . S
H2267 C2279 0.950 . S
C2268 H2260 0.950 . S
C2268 C2269 1.386 . S
C2268 C2270 1.391 . S
C2269 C2268 1.386 . S
C2269 C2273 1.393 . S
C2270 H2262 0.950 . S
C2270 C2268 1.391 . S
C2270 C2271 1.400 . S
C2271 C2270 1.400 . S
C2271 C2272 1.398 . S
C2271 C2277 1.491 . S
C2272 H2263 0.950 . S
C2272 C2271 1.398 . S
C2272 C2273 1.391 . S
C2273 H2261 0.950 . S
C2273 C2269 1.393 . S
C2273 C2272 1.391 . S
C2274 H2264 0.950 . S
C2274 C2275 1.386 . S
C2274 C2276 1.391 . S
C2275 C2274 1.386 . S
C2275 C2279 1.393 . S
C2276 H2265 0.950 . S
C2276 C2274 1.391 . S
C2276 C2277 1.400 . S
C2277 C2271 1.491 . S
C2277 C2276 1.400 . S
C2277 C2278 1.398 . S
C2278 H2266 0.950 . S
C2278 C2277 1.398 . S
C2278 C2279 1.391 . S
C2279 H2267 0.950 . S
C2279 C2275 1.393 . S
C2279 C2278 1.391 . S
H2280 C2288 0.950 . S
H2281 C2293 0.970 . S
H2282 C2290 0.950 . S
H2283 C2292 0.950 . S
H2284 C2294 0.950 . S
H2285 C2296 0.950 . S
H2286 C2298 0.950 . S
H2287 C2299 0.950 . S
C2288 H2280 0.950 . S
C2288 C2289 1.386 . S
C2288 C2290 1.391 . S
C2289 C2288 1.386 . S
C2289 C2293 1.348 1_545 S
C2290 H2282 0.950 . S
C2290 C2288 1.391 . S
C2290 C2291 1.400 . S
C2291 C2290 1.400 . S
C2291 C2292 1.398 1_545 S
C2291 C2297 1.491 . S
C2292 H2283 0.950 . S
C2292 C2291 1.398 1_565 S
C2292 C2293 1.418 . S
C2293 H2281 0.970 . S
C2293 C2289 1.348 1_565 S
C2293 C2292 1.418 . S
C2294 H2284 0.950 . S
C2294 C2295 1.386 1_565 S
C2294 C2296 1.391 . S
C2295 C2294 1.386 1_545 S
C2295 C2299 1.393 . S
C2296 H2285 0.950 . S
C2296 C2294 1.391 . S
C2296 C2297 1.400 1_565 S
C2297 C2291 1.491 . S
C2297 C2296 1.400 1_545 S
C2297 C2298 1.398 . S
C2298 H2286 0.950 . S
C2298 C2297 1.398 . S
C2298 C2299 1.391 . S
C2299 H2287 0.950 . S
C2299 C2295 1.393 . S
C2299 C2298 1.391 . S
H2300 C2308 0.950 . S
H2301 C2313 0.950 . S
H2302 C2310 0.950 . S
H2303 C2312 0.950 . S
H2304 C2314 0.950 . S
H2305 C2316 0.950 . S
H2306 C2318 0.950 . S
H2307 C2319 0.950 . S
C2308 H2300 0.950 . S
C2308 C2309 1.386 . S
C2308 C2310 1.391 . S
C2309 C2308 1.386 . S
C2309 C2313 1.393 1_655 S
C2310 H2302 0.950 . S
C2310 C2308 1.391 . S
C2310 C2311 1.400 . S
C2311 C2310 1.400 . S
C2311 C2312 1.398 1_655 S
C2311 C2317 1.491 . S
C2312 H2303 0.950 . S
C2312 C2311 1.398 1_455 S
C2312 C2313 1.391 . S
C2313 H2301 0.950 . S
C2313 C2309 1.393 1_455 S
C2313 C2312 1.391 . S
C2314 H2304 0.950 . S
C2314 C2315 1.386 1_455 S
C2314 C2316 1.391 . S
C2315 C2314 1.386 1_655 S
C2315 C2319 1.393 . S
C2316 H2305 0.950 . S
C2316 C2314 1.391 . S
C2316 C2317 1.400 1_455 S
C2317 C2311 1.491 . S
C2317 C2316 1.400 1_655 S
C2317 C2318 1.398 . S
C2318 H2306 0.950 . S
C2318 C2317 1.398 . S
C2318 C2319 1.391 . S
C2319 H2307 0.950 . S
C2319 C2315 1.393 . S
C2319 C2318 1.391 . S
H2320 C2328 0.950 . S
H2321 C2333 0.950 . S
H2322 C2330 0.950 . S
H2323 C2332 0.950 . S
H2324 C2334 0.950 . S
H2325 C2336 0.950 . S
H2326 C2338 0.950 . S
H2327 C2339 0.950 . S
C2328 H2320 0.950 . S
C2328 C2329 1.386 . S
C2328 C2330 1.391 . S
C2329 C2328 1.386 . S
C2329 C2333 1.393 . S
C2330 H2322 0.950 . S
C2330 C2328 1.391 . S
C2330 C2331 1.400 . S
C2331 C2330 1.400 . S
C2331 C2332 1.398 . S
C2331 C2337 1.491 . S
C2332 H2323 0.950 . S
C2332 C2331 1.398 . S
C2332 C2333 1.391 . S
C2333 H2321 0.950 . S
C2333 C2329 1.393 . S
C2333 C2332 1.391 . S
C2334 H2324 0.950 . S
C2334 C2335 1.386 . S
C2334 C2336 1.391 . S
C2335 C2334 1.386 . S
C2335 C2339 1.393 . S
C2336 H2325 0.950 . S
C2336 C2334 1.391 . S
C2336 C2337 1.400 . S
C2337 C2331 1.491 . S
C2337 C2336 1.400 . S
C2337 C2338 1.398 . S
C2338 H2326 0.950 . S
C2338 C2337 1.398 . S
C2338 C2339 1.391 . S
C2339 H2327 0.950 . S
C2339 C2335 1.393 . S
C2339 C2338 1.391 . S
H2340 C2348 0.950 . S
H2341 C2353 0.950 . S
H2342 C2350 0.950 . S
H2343 C2352 0.950 . S
H2344 C2354 0.950 . S
H2345 C2356 0.950 . S
H2346 C2358 0.950 . S
H2347 C2359 0.950 . S
C2348 H2340 0.950 . S
C2348 C2349 1.386 . S
C2348 C2350 1.391 . S
C2349 C2348 1.386 . S
C2349 C2353 1.393 . S
C2350 H2342 0.950 . S
C2350 C2348 1.391 . S
C2350 C2351 1.400 . S
C2351 C2350 1.400 . S
C2351 C2352 1.398 . S
C2351 C2357 1.491 . S
C2352 H2343 0.950 . S
C2352 C2351 1.398 . S
C2352 C2353 1.391 . S
C2353 H2341 0.950 . S
C2353 C2349 1.393 . S
C2353 C2352 1.391 . S
C2354 H2344 0.950 . S
C2354 C2355 1.386 . S
C2354 C2356 1.391 . S
C2355 C2354 1.386 . S
C2355 C2359 1.393 . S
C2356 H2345 0.950 . S
C2356 C2354 1.391 . S
C2356 C2357 1.400 . S
C2357 C2351 1.491 . S
C2357 C2356 1.400 . S
C2357 C2358 1.398 . S
C2358 H2346 0.950 . S
C2358 C2357 1.398 . S
C2358 C2359 1.391 . S
C2359 H2347 0.950 . S
C2359 C2355 1.393 . S
C2359 C2358 1.391 . S
H2360 C2368 0.950 . S
H2361 C2373 0.950 . S
H2362 C2370 0.950 . S
H2363 C2372 0.950 . S
H2364 C2374 0.950 . S
H2365 C2376 0.950 . S
H2366 C2378 0.950 . S
H2367 C2379 0.950 . S
C2368 H2360 0.950 . S
C2368 C2369 1.386 . S
C2368 C2370 1.391 . S
C2369 C2368 1.386 . S
C2369 C2373 1.393 . S
C2370 H2362 0.950 . S
C2370 C2368 1.391 . S
C2370 C2371 1.400 . S
C2371 C2370 1.400 . S
C2371 C2372 1.398 . S
C2371 C2377 1.491 . S
C2372 H2363 0.950 . S
C2372 C2371 1.398 . S
C2372 C2373 1.391 . S
C2373 H2361 0.950 . S
C2373 C2369 1.393 . S
C2373 C2372 1.391 . S
C2374 H2364 0.950 . S
C2374 C2375 1.386 . S
C2374 C2376 1.391 . S
C2375 C2374 1.386 . S
C2375 C2379 1.393 . S
C2376 H2365 0.950 . S
C2376 C2374 1.391 . S
C2376 C2377 1.400 . S
C2377 C2371 1.491 . S
C2377 C2376 1.400 . S
C2377 C2378 1.398 . S
C2378 H2366 0.950 . S
C2378 C2377 1.398 . S
C2378 C2379 1.391 . S
C2379 H2367 0.950 . S
C2379 C2375 1.393 . S
C2379 C2378 1.391 . S
H2380 C2388 0.950 . S
H2381 C2393 0.950 . S
H2382 C2390 0.950 . S
H2383 C2392 0.950 . S
H2384 C2394 0.950 . S
H2385 C2396 0.950 . S
H2386 C2398 0.950 . S
H2387 C2399 0.950 . S
C2388 H2380 0.950 . S
C2388 C2389 1.386 . S
C2388 C2390 1.391 . S
C2389 C2388 1.386 . S
C2389 C2393 1.393 . S
C2390 H2382 0.950 . S
C2390 C2388 1.391 . S
C2390 C2391 1.400 . S
C2391 C2390 1.400 . S
C2391 C2392 1.398 . S
C2391 C2397 1.491 . S
C2392 H2383 0.950 . S
C2392 C2391 1.398 . S
C2392 C2393 1.391 . S
C2393 H2381 0.950 . S
C2393 C2389 1.393 . S
C2393 C2392 1.391 . S
C2394 H2384 0.950 . S
C2394 C2395 1.386 . S
C2394 C2396 1.391 . S
C2395 C2394 1.386 . S
C2395 C2399 1.393 . S
C2396 H2385 0.950 . S
C2396 C2394 1.391 . S
C2396 C2397 1.400 . S
C2397 C2391 1.491 . S
C2397 C2396 1.400 . S
C2397 C2398 1.398 . S
C2398 H2386 0.950 . S
C2398 C2397 1.398 . S
C2398 C2399 1.391 . S
C2399 H2387 0.950 . S
C2399 C2395 1.393 . S
C2399 C2398 1.391 . S
H2400 C2408 0.950 . S
H2401 C2413 0.950 . S
H2402 C2410 0.950 . S
H2403 C2412 0.950 . S
H2404 C2414 0.950 . S
H2405 C2416 0.950 . S
H2406 C2418 0.950 . S
H2407 C2419 0.950 . S
C2408 H2400 0.950 . S
C2408 C2409 1.386 . S
C2408 C2410 1.391 . S
C2409 C2408 1.386 . S
C2409 C2413 1.393 . S
C2410 H2402 0.950 . S
C2410 C2408 1.391 . S
C2410 C2411 1.400 . S
C2411 C2410 1.400 . S
C2411 C2412 1.398 . S
C2411 C2417 1.491 . S
C2412 H2403 0.950 . S
C2412 C2411 1.398 . S
C2412 C2413 1.391 . S
C2413 H2401 0.950 . S
C2413 C2409 1.393 . S
C2413 C2412 1.391 . S
C2414 H2404 0.950 . S
C2414 C2415 1.386 . S
C2414 C2416 1.391 . S
C2415 C2414 1.386 . S
C2415 C2419 1.393 . S
C2416 H2405 0.950 . S
C2416 C2414 1.391 . S
C2416 C2417 1.400 . S
C2417 C2411 1.491 . S
C2417 C2416 1.400 . S
C2417 C2418 1.398 . S
C2418 H2406 0.950 . S
C2418 C2417 1.398 . S
C2418 C2419 1.391 . S
C2419 H2407 0.950 . S
C2419 C2415 1.393 . S
C2419 C2418 1.391 . S
H2420 C2428 0.950 . S
H2421 C2433 0.950 . S
H2422 C2430 0.950 . S
H2423 C2432 0.950 . S
H2424 C2434 0.950 . S
H2425 C2436 0.950 . S
H2426 C2438 0.950 . S
H2427 C2439 0.950 . S
C2428 H2420 0.950 . S
C2428 C2429 1.386 . S
C2428 C2430 1.391 . S
C2429 C2428 1.386 . S
C2429 C2433 1.393 . S
C2430 H2422 0.950 . S
C2430 C2428 1.391 . S
C2430 C2431 1.400 . S
C2431 C2430 1.400 . S
C2431 C2432 1.398 . S
C2431 C2437 1.491 . S
C2432 H2423 0.950 . S
C2432 C2431 1.398 . S
C2432 C2433 1.391 . S
C2433 H2421 0.950 . S
C2433 C2429 1.393 . S
C2433 C2432 1.391 . S
C2434 H2424 0.950 . S
C2434 C2435 1.386 . S
C2434 C2436 1.391 . S
C2435 C2434 1.386 . S
C2435 C2439 1.393 . S
C2436 H2425 0.950 . S
C2436 C2434 1.391 . S
C2436 C2437 1.400 . S
C2437 C2431 1.491 . S
C2437 C2436 1.400 . S
C2437 C2438 1.398 . S
C2438 H2426 0.950 . S
C2438 C2437 1.398 . S
C2438 C2439 1.391 . S
C2439 H2427 0.950 . S
C2439 C2435 1.393 . S
C2439 C2438 1.391 . S
H2440 C2448 0.950 . S
H2441 C2453 0.950 . S
H2442 C2450 0.950 . S
H2443 C2452 0.950 . S
H2444 C2454 0.950 . S
H2445 C2456 0.950 . S
H2446 C2458 0.950 . S
H2447 C2459 0.950 . S
C2448 H2440 0.950 . S
C2448 C2449 1.386 . S
C2448 C2450 1.391 . S
C2449 C2448 1.386 . S
C2449 C2453 1.393 . S
C2450 H2442 0.950 . S
C2450 C2448 1.391 . S
C2450 C2451 1.400 . S
C2451 C2450 1.400 . S
C2451 C2452 1.398 . S
C2451 C2457 1.491 . S
C2452 H2443 0.950 . S
C2452 C2451 1.398 . S
C2452 C2453 1.391 . S
C2453 H2441 0.950 . S
C2453 C2449 1.393 . S
C2453 C2452 1.391 . S
C2454 H2444 0.950 . S
C2454 C2455 1.386 . S
C2454 C2456 1.391 . S
C2455 C2454 1.386 . S
C2455 C2459 1.393 . S
C2456 H2445 0.950 . S
C2456 C2454 1.391 . S
C2456 C2457 1.400 . S
C2457 C2451 1.491 . S
C2457 C2456 1.400 . S
C2457 C2458 1.398 . S
C2458 H2446 0.950 . S
C2458 C2457 1.398 . S
C2458 C2459 1.391 . S
C2459 H2447 0.950 . S
C2459 C2455 1.393 . S
C2459 C2458 1.391 . S
H2460 C2468 0.950 . S
H2461 C2473 0.949 . S
H2462 C2470 0.950 . S
H2463 C2472 0.950 . S
H2464 C2474 0.950 . S
H2465 C2476 0.950 . S
H2466 C2478 0.950 . S
H2467 C2479 0.950 . S
C2468 H2460 0.950 . S
C2468 C2469 1.386 . S
C2468 C2470 1.391 . S
C2469 C2468 1.386 . S
C2469 C2473 1.393 1_655 S
C2470 H2462 0.950 . S
C2470 C2468 1.391 . S
C2470 C2471 1.400 . S
C2471 C2470 1.400 . S
C2471 C2472 1.398 1_655 S
C2471 C2477 1.491 . S
C2472 H2463 0.950 . S
C2472 C2471 1.398 1_455 S
C2472 C2473 1.390 . S
C2473 H2461 0.949 . S
C2473 C2469 1.393 1_455 S
C2473 C2472 1.390 . S
C2474 H2464 0.950 . S
C2474 C2475 1.386 1_455 S
C2474 C2476 1.391 . S
C2475 C2474 1.386 1_655 S
C2475 C2479 1.393 . S
C2476 H2465 0.950 . S
C2476 C2474 1.391 . S
C2476 C2477 1.400 1_455 S
C2477 C2471 1.491 . S
C2477 C2476 1.400 1_655 S
C2477 C2478 1.398 . S
C2478 H2466 0.950 . S
C2478 C2477 1.398 . S
C2478 C2479 1.391 . S
C2479 H2467 0.950 . S
C2479 C2475 1.393 . S
C2479 C2478 1.391 . S
H2480 C2488 0.950 . S
H2481 C2493 0.950 . S
H2482 C2490 0.950 . S
H2483 C2492 0.950 . S
H2484 C2494 0.950 . S
H2485 C2496 0.950 . S
H2486 C2498 0.950 . S
H2487 C2499 0.950 . S
C2488 H2480 0.950 . S
C2488 C2489 1.386 . S
C2488 C2490 1.391 . S
C2489 C2488 1.386 . S
C2489 C2493 1.393 . S
C2490 H2482 0.950 . S
C2490 C2488 1.391 . S
C2490 C2491 1.400 . S
C2491 C2490 1.400 . S
C2491 C2492 1.398 . S
C2491 C2497 1.491 . S
C2492 H2483 0.950 . S
C2492 C2491 1.398 . S
C2492 C2493 1.391 . S
C2493 H2481 0.950 . S
C2493 C2489 1.393 . S
C2493 C2492 1.391 . S
C2494 H2484 0.950 . S
C2494 C2495 1.386 . S
C2494 C2496 1.391 . S
C2495 C2494 1.386 . S
C2495 C2499 1.393 . S
C2496 H2485 0.950 . S
C2496 C2494 1.391 . S
C2496 C2497 1.400 . S
C2497 C2491 1.491 . S
C2497 C2496 1.400 . S
C2497 C2498 1.398 . S
C2498 H2486 0.950 . S
C2498 C2497 1.398 . S
C2498 C2499 1.391 . S
C2499 H2487 0.950 . S
C2499 C2495 1.393 . S
C2499 C2498 1.391 . S
H2500 C2508 0.950 1_565 S
H2501 C2513 0.950 . S
H2502 C2510 0.950 1_565 S
H2503 C2512 0.950 . S
H2504 C2514 0.950 . S
H2505 C2516 0.950 . S
H2506 C2518 0.950 . S
H2507 C2519 0.950 . S
C2508 H2500 0.950 1_545 S
C2508 C2509 1.386 . S
C2508 C2510 1.391 . S
C2509 C2508 1.386 . S
C2509 C2513 1.393 . S
C2510 H2502 0.950 1_545 S
C2510 C2508 1.391 . S
C2510 C2511 1.400 . S
C2511 C2510 1.400 . S
C2511 C2512 1.398 . S
C2511 C2517 1.491 . S
C2512 H2503 0.950 . S
C2512 C2511 1.398 . S
C2512 C2513 1.391 . S
C2513 H2501 0.950 . S
C2513 C2509 1.393 . S
C2513 C2512 1.391 . S
C2514 H2504 0.950 . S
C2514 C2515 1.386 . S
C2514 C2516 1.391 . S
C2515 C2514 1.386 . S
C2515 C2519 1.393 1_545 S
C2516 H2505 0.950 . S
C2516 C2514 1.391 . S
C2516 C2517 1.400 . S
C2517 C2511 1.491 . S
C2517 C2516 1.400 . S
C2517 C2518 1.398 1_545 S
C2518 H2506 0.950 . S
C2518 C2517 1.398 1_565 S
C2518 C2519 1.391 . S
C2519 H2507 0.950 . S
C2519 C2515 1.393 1_565 S
C2519 C2518 1.391 . S
C1089 C7 1.435 . S
C1095 C688 1.457 . S
C1109 C23 1.604 . S
C1115 C734 1.580 . S
C1135 C766 1.474 . S
C1129 C37 1.436 . S
C1149 C35 1.444 . S
C1155 C819 1.458 . S
C1169 C9 1.450 . S
C1175 C865 1.480 . S
C1189 C21 1.569 . S
C1195 C904 1.610 . S
C1209 C49 1.416 . S
C1215 C858 1.446 . S
C1235 C911 1.598 . S
C1229 C65 1.595 . S
C1255 C812 1.492 . S
C1249 C79 1.448 . S
C1269 C77 1.427 . S
C1275 C773 1.438 . S
C1295 C667 1.490 . S
C1289 C51 1.437 . S
C1309 C63 1.583 . S
C1315 C713 1.599 . S
C1329 C91 1.646 . S
C1335 C943 1.688 . S
C1349 C107 1.674 . S
C1355 C1010 1.640 . S
C1375 C1056 1.635 . S
C1369 C121 1.671 . S
C1389 C119 1.591 . S
C1395 C267 1.606 . S
C1409 C93 1.669 . S
C1415 C313 1.656 . S
C1429 C105 1.625 . S
C1435 C359 1.628 . S
C1449 C133 1.554 . S
C1455 C306 1.577 . S
C1469 C149 1.649 . S
C1475 C352 1.621 . S
C1495 C260 1.654 . S
C1489 C163 1.669 . S
C1515 C1035 1.712 . S
C1509 C161 1.687 . S
C1535 C964 1.641 . S
C1529 C135 1.661 . S
C1555 C989 1.678 . S
C1549 C147 1.658 . S
C1569 C175 1.567 . S
C1575 C391 1.592 . S
C1589 C191 1.636 . S
C1595 C444 1.636 . S
C1609 C205 1.663 . S
C1615 C490 1.665 . S
C1629 C203 1.703 . S
C1635 C536 1.726 . S
C1655 C589 1.636 . S
C1649 C177 1.671 . S
C1675 C635 1.672 . S
C1669 C189 1.659 . S
C1695 C582 1.691 . S
C1689 C217 1.666 . S
C1715 C628 1.659 . S
C1709 C233 1.677 . S
C1729 C247 1.661 . S
C1735 C543 1.656 . S
C1755 C497 1.619 . S
C1749 C245 1.584 . S
C1769 C219 1.668 . S
C1775 C412 1.661 . S
C1795 C451 1.644 . S
C1789 C231 1.622 . S
C1815 C274 1.625 . S
C1809 C8 1.637 . S
C1829 C17 1.533 . S
C1835 C320 1.523 . S
C1855 C366 1.625 . S
C1849 C31 1.633 . S
C1875 C398 1.633 . S
C1869 C36 1.655 . S
C1895 C437 1.594 . S
C1889 C3 1.610 . S
C1915 C483 1.526 . S
C1909 C22 1.552 . S
C1929 C50 1.642 . S
C1935 C504 1.616 . S
C1949 C59 1.530 . S
C1955 C405 1.512 . S
C1969 C73 1.611 . S
C1975 C458 1.590 . S
C1989 C78 1.668 . S
C1995 C299 1.660 . S
C2015 C345 1.606 . S
C2009 C45 1.605 . S
C2029 C64 1.548 . S
C2035 C253 1.529 . S
C2055 C529 1.571 . S
C2049 C92 1.597 . S
C2069 C101 1.681 . S
C2075 C596 1.670 . S
C2089 C115 1.687 . S
C2095 C642 1.673 . S
C2115 C681 1.427 . S
C2109 C120 1.426 . S
C2129 C87 1.593 . S
C2135 C727 1.588 . S
C2149 C106 1.385 . S
C2155 C759 1.393 . S
C2169 C134 1.402 . S
C2175 C780 1.404 . S
C2189 C143 1.412 . S
C2195 C674 1.407 . S
C2215 C720 1.593 . S
C2209 C157 1.607 . S
C2229 C162 1.613 . S
C2235 C575 1.596 . S
C2249 C129 1.684 . S
C2255 C621 1.670 . S
C2275 C550 1.642 . S
C2269 C148 1.680 . S
C2295 C826 1.418 . S
C2289 C176 1.414 . S
C2309 C185 1.406 . S
C2315 C872 1.410 . S
C2329 C199 1.599 . S
C2335 C897 1.578 . S
C2355 C950 1.575 . S
C2349 C204 1.601 . S
C2375 C1003 1.670 . S
C2369 C171 1.686 . S
C2389 C190 1.683 . S
C2395 C1049 1.662 . S
C2409 C218 1.604 . S
C2415 C1042 1.588 . S
C2429 C227 1.678 . S
C2435 C957 1.652 . S
C2455 C996 1.668 . S
C2449 C241 1.678 . S
C2475 C851 1.416 . S
C2469 C246 1.412 . S
C2495 C918 1.579 . S
C2489 C213 1.597 . S
C2509 C232 1.397 . S
C2515 C805 1.398 . S
