# Generated by pormake.
# Topology pyr, (3,6)-cn, num edge types: 1
# Building blocks:
#     Node 0, Type 0, BuildingBlock: VETTIZ_charged_linker_0, # of connection points: 3
#     Node 1, Type 0, BuildingBlock: VETTIZ_charged_linker_0, # of connection points: 3
#     Node 2, Type 0, BuildingBlock: VETTIZ_charged_linker_0, # of connection points: 3
#     Node 3, Type 0, BuildingBlock: VETTIZ_charged_linker_0, # of connection points: 3
#     Node 4, Type 0, BuildingBlock: VETTIZ_charged_linker_0, # of connection points: 3
#     Node 5, Type 0, BuildingBlock: VETTIZ_charged_linker_0, # of connection points: 3
#     Node 6, Type 0, BuildingBlock: VETTIZ_charged_linker_0, # of connection points: 3
#     Node 7, Type 0, BuildingBlock: VETTIZ_charged_linker_0, # of connection points: 3
#     Node 8, Type 1, BuildingBlock: PAMTUU_clean_sbu_0, # of connection points: 6
#     Node 9, Type 1, BuildingBlock: PAMTUU_clean_sbu_0, # of connection points: 6
#     Node 10, Type 1, BuildingBlock: PAMTUU_clean_sbu_0, # of connection points: 6
#     Node 11, Type 1, BuildingBlock: PAMTUU_clean_sbu_0, # of connection points: 6
#     Edge 12, Type (0, 1), BuildingBlock: CIFDUS_clean_linker_0, # of connection points: 2
#     Edge 13, Type (0, 1), BuildingBlock: CIFDUS_clean_linker_0, # of connection points: 2
#     Edge 14, Type (0, 1), BuildingBlock: CIFDUS_clean_linker_0, # of connection points: 2
#     Edge 15, Type (0, 1), BuildingBlock: CIFDUS_clean_linker_0, # of connection points: 2
#     Edge 16, Type (0, 1), BuildingBlock: CIFDUS_clean_linker_0, # of connection points: 2
#     Edge 17, Type (0, 1), BuildingBlock: CIFDUS_clean_linker_0, # of connection points: 2
#     Edge 18, Type (0, 1), BuildingBlock: CIFDUS_clean_linker_0, # of connection points: 2
#     Edge 19, Type (0, 1), BuildingBlock: CIFDUS_clean_linker_0, # of connection points: 2
#     Edge 20, Type (0, 1), BuildingBlock: CIFDUS_clean_linker_0, # of connection points: 2
#     Edge 21, Type (0, 1), BuildingBlock: CIFDUS_clean_linker_0, # of connection points: 2
#     Edge 22, Type (0, 1), BuildingBlock: CIFDUS_clean_linker_0, # of connection points: 2
#     Edge 23, Type (0, 1), BuildingBlock: CIFDUS_clean_linker_0, # of connection points: 2
#     Edge 24, Type (0, 1), BuildingBlock: CIFDUS_clean_linker_0, # of connection points: 2
#     Edge 25, Type (0, 1), BuildingBlock: CIFDUS_clean_linker_0, # of connection points: 2
#     Edge 26, Type (0, 1), BuildingBlock: CIFDUS_clean_linker_0, # of connection points: 2
#     Edge 27, Type (0, 1), BuildingBlock: CIFDUS_clean_linker_0, # of connection points: 2
#     Edge 28, Type (0, 1), BuildingBlock: CIFDUS_clean_linker_0, # of connection points: 2
#     Edge 29, Type (0, 1), BuildingBlock: CIFDUS_clean_linker_0, # of connection points: 2
#     Edge 30, Type (0, 1), BuildingBlock: CIFDUS_clean_linker_0, # of connection points: 2
#     Edge 31, Type (0, 1), BuildingBlock: CIFDUS_clean_linker_0, # of connection points: 2
#     Edge 32, Type (0, 1), BuildingBlock: CIFDUS_clean_linker_0, # of connection points: 2
#     Edge 33, Type (0, 1), BuildingBlock: CIFDUS_clean_linker_0, # of connection points: 2
#     Edge 34, Type (0, 1), BuildingBlock: CIFDUS_clean_linker_0, # of connection points: 2
#     Edge 35, Type (0, 1), BuildingBlock: CIFDUS_clean_linker_0, # of connection points: 2
# Relax obj value: 0.103
# Max RMSD: 0.132
# Mean RMSD: 0.055
data_MOF--net-pyr--node1-PAMTUU_clean_sbu_0--node2-VETTIZ_charged_linker_0--edge1-CIFDUS_clean_linker_0
_symmetry_space_group_name_H-M    P1
_symmetry_Int_Tables_number       1
_symmetry_cell_setting            triclinic
loop_
_symmetry_equiv_pos_as_xyz
'x, y, z'
_cell_length_a     41.599966
_cell_length_b     42.329129
_cell_length_c     40.599182
_cell_angle_alpha  89.950007
_cell_angle_beta   89.274111
_cell_angle_gamma 100.74095
loop_
_atom_site_label
_atom_site_type_symbol
_atom_site_fract_x
_atom_site_fract_y
_atom_site_fract_z
_atom_type_partial_charge
C0 C 0.33192 0.23335 0.34846 0.0
C1 C 0.30245 0.23757 0.36387 0.0
C2 C 0.2857 0.26075 0.35073 0.0
C3 C 0.32346 0.26948 0.30438 0.0
C4 C 0.34144 0.2488 0.3184 0.0
C5 C 0.36791 0.24165 0.29549 0.0
H6 H 0.42267 0.2353 0.13973 0.0
C7 C 0.33597 0.27684 0.27052 0.0
C8 C 0.36206 0.26072 0.26507 0.0
H9 H 0.45637 0.19453 0.22773 0.0
H10 H 0.42393 0.22368 0.26132 0.0
H11 H 0.42525 0.30827 0.17288 0.0
H12 H 0.34747 0.22627 0.15995 0.0
H13 H 0.33421 0.26145 0.14705 0.0
H14 H 0.368 0.24915 0.12597 0.0
H15 H 0.40754 0.29791 0.13334 0.0
H16 H 0.38965 0.32243 0.16212 0.0
C17 C 0.40151 0.25492 0.31107 0.0
C18 C 0.36127 0.20486 0.28915 0.0
C19 C 0.27284 0.33772 0.19538 0.0
C20 C 0.27494 0.34534 0.16165 0.0
C21 C 0.30044 0.33645 0.14261 0.0
C22 C 0.32311 0.31989 0.157 0.0
C23 C 0.32005 0.31185 0.19069 0.0
C24 C 0.29547 0.32129 0.20926 0.0
C25 C 0.29505 0.31033 0.2444 0.0
C26 C 0.32394 0.29323 0.24425 0.0
C27 C 0.33834 0.29375 0.21271 0.0
C28 C 0.30123 0.34052 0.26665 0.0
C29 C 0.26202 0.28703 0.25119 0.0
C30 C 0.42306 0.23273 0.16626 0.0
C31 C 0.44163 0.21201 0.181 0.0
C32 C 0.44234 0.21021 0.21565 0.0
C33 C 0.42314 0.22684 0.23517 0.0
C34 C 0.40249 0.24502 0.21997 0.0
C35 C 0.40376 0.24904 0.18619 0.0
C36 C 0.38091 0.27044 0.17469 0.0
C37 C 0.36455 0.27707 0.20701 0.0
C38 C 0.37693 0.26152 0.23331 0.0
C39 C 0.40169 0.30137 0.15972 0.0
C40 C 0.35634 0.25108 0.15048 0.0
H41 H 0.2817 0.29327 0.31218 0.0
H42 H 0.34606 0.21651 0.35818 0.0
H43 H 0.33464 0.19565 0.28599 0.0
H44 H 0.37285 0.19785 0.26649 0.0
H45 H 0.36954 0.1917 0.31016 0.0
H46 H 0.40033 0.27608 0.32698 0.0
H47 H 0.40983 0.23645 0.32659 0.0
H48 H 0.42062 0.26391 0.29236 0.0
H49 H 0.25314 0.34332 0.21069 0.0
H50 H 0.3028 0.3422 0.11659 0.0
H51 H 0.34178 0.31347 0.14125 0.0
H52 H 0.32006 0.35976 0.25538 0.0
H53 H 0.27852 0.35044 0.27018 0.0
H54 H 0.31093 0.33586 0.29103 0.0
H55 H 0.25066 0.27643 0.22807 0.0
H56 H 0.26491 0.26591 0.26615 0.0
H57 H 0.24403 0.29956 0.26357 0.0
H58 H 0.2629 0.26477 0.3615 0.0
C59 C 0.29633 0.27699 0.32143 0.0
C60 C 0.13557 0.83674 0.65502 0.0
C61 C 0.11222 0.85201 0.67083 0.0
C62 C 0.1061 0.84647 0.70484 0.0
C63 C 0.14928 0.81539 0.70736 0.0
C64 C 0.1534 0.81825 0.67365 0.0
C65 C 0.17894 0.80016 0.66092 0.0
H66 H 0.3051 0.72561 0.69473 0.0
C67 C 0.17356 0.79731 0.72002 0.0
C68 C 0.19044 0.78741 0.69286 0.0
H69 H 0.26838 0.74361 0.59887 0.0
H70 H 0.2237 0.76471 0.62456 0.0
H71 H 0.30213 0.78546 0.72533 0.0
H72 H 0.23161 0.69836 0.72862 0.0
H73 H 0.23418 0.71424 0.76881 0.0
H74 H 0.27039 0.70509 0.74889 0.0
H75 H 0.30242 0.75681 0.75767 0.0
H76 H 0.28034 0.78948 0.76177 0.0
C77 C 0.20636 0.82447 0.6436 0.0
C78 C 0.16204 0.77266 0.63838 0.0
C79 C 0.20481 0.80844 0.84017 0.0
C80 C 0.23223 0.80142 0.85668 0.0
C81 C 0.24954 0.77909 0.84249 0.0
C82 C 0.24218 0.7671 0.81084 0.0
C83 C 0.21769 0.77796 0.79292 0.0
C84 C 0.19834 0.79697 0.8081 0.0
C85 C 0.1742 0.80703 0.78473 0.0
C86 C 0.18396 0.79265 0.75257 0.0
C87 C 0.20963 0.77597 0.75761 0.0
C88 C 0.18043 0.84429 0.78357 0.0
C89 C 0.13913 0.79141 0.79618 0.0
C90 C 0.28735 0.73404 0.67928 0.0
C91 C 0.29036 0.73354 0.64487 0.0
C92 C 0.26652 0.74405 0.6255 0.0
C93 C 0.24075 0.75631 0.64045 0.0
C94 C 0.23886 0.75787 0.67506 0.0
C95 C 0.26153 0.74606 0.69376 0.0
C96 C 0.25593 0.74927 0.73007 0.0
C97 C 0.22613 0.76515 0.73026 0.0
C98 C 0.21639 0.77047 0.69803 0.0
C99 C 0.28667 0.77117 0.74468 0.0
C100 C 0.2478 0.71504 0.74517 0.0
H101 H 0.11913 0.8254 0.74895 0.0
H102 H 0.14078 0.83992 0.62892 0.0
H103 H 0.13607 0.76413 0.64596 0.0
H104 H 0.17336 0.75105 0.63987 0.0
H105 H 0.16223 0.78069 0.61231 0.0
H106 H 0.21327 0.84644 0.65888 0.0
H107 H 0.19815 0.83194 0.61935 0.0
H108 H 0.22907 0.81506 0.63965 0.0
H109 H 0.19048 0.82482 0.85087 0.0
H110 H 0.27069 0.77303 0.8545 0.0
H111 H 0.25741 0.75164 0.80069 0.0
H112 H 0.20698 0.8541 0.77997 0.0
H113 H 0.17234 0.85424 0.8069 0.0
H114 H 0.16789 0.85406 0.76334 0.0
H115 H 0.13914 0.77022 0.81241 0.0
H116 H 0.12343 0.78193 0.77522 0.0
H117 H 0.12724 0.80871 0.81021 0.0
H118 H 0.08735 0.85656 0.71756 0.0
C119 C 0.12442 0.82822 0.72309 0.0
C120 C 0.63849 0.2736 0.92074 0.0
C121 C 0.60942 0.25324 0.91104 0.0
C122 C 0.59332 0.26262 0.8831 0.0
C123 C 0.63423 0.31222 0.87692 0.0
C124 C 0.65007 0.30254 0.90385 0.0
C125 C 0.67986 0.32657 0.91291 0.0
H126 H 0.78549 0.46658 0.8886 0.0
C127 C 0.65302 0.34443 0.86575 0.0
C128 C 0.67972 0.35254 0.88718 0.0
H129 H 0.7855 0.39463 0.96451 0.0
H130 H 0.73732 0.36293 0.9422 0.0
H131 H 0.70733 0.46515 0.89396 0.0
H132 H 0.76295 0.41608 0.82755 0.0
H133 H 0.73405 0.43222 0.80473 0.0
H134 H 0.76533 0.45888 0.8267 0.0
H135 H 0.73157 0.48576 0.86084 0.0
H136 H 0.68996 0.46528 0.85478 0.0
C137 C 0.67439 0.33881 0.94824 0.0
C138 C 0.71006 0.31014 0.90885 0.0
C139 C 0.61664 0.40622 0.76726 0.0
C140 C 0.62882 0.43702 0.75356 0.0
C141 C 0.65739 0.45529 0.76716 0.0
C142 C 0.67344 0.44368 0.7936 0.0
C143 C 0.66083 0.41335 0.80744 0.0
C144 C 0.63283 0.39502 0.79435 0.0
C145 C 0.62252 0.36381 0.81344 0.0
C146 C 0.64891 0.3664 0.83976 0.0
C147 C 0.67148 0.39567 0.83596 0.0
C148 C 0.58833 0.36353 0.82882 0.0
C149 C 0.62363 0.33549 0.78983 0.0
C150 C 0.77505 0.44405 0.90051 0.0
C151 C 0.79038 0.4331 0.92824 0.0
C152 C 0.77541 0.40355 0.94268 0.0
C153 C 0.74689 0.3851 0.92979 0.0
C154 C 0.73222 0.39601 0.90204 0.0
C155 C 0.74607 0.42515 0.88793 0.0
C156 C 0.72615 0.43291 0.85898 0.0
C157 C 0.6985 0.40344 0.85795 0.0
C158 C 0.70241 0.38199 0.88332 0.0
C159 C 0.71315 0.464 0.86721 0.0
C160 C 0.74813 0.43542 0.82772 0.0
H161 H 0.59197 0.29762 0.8453 0.0
H162 H 0.65228 0.26729 0.9414 0.0
H163 H 0.70695 0.29315 0.88772 0.0
H164 H 0.73287 0.32729 0.90307 0.0
H165 H 0.71373 0.29623 0.93125 0.0
H166 H 0.64797 0.33821 0.95352 0.0
H167 H 0.68342 0.32374 0.96716 0.0
H168 H 0.68599 0.36424 0.95189 0.0
H169 H 0.5945 0.39169 0.75781 0.0
H170 H 0.66735 0.47894 0.75731 0.0
H171 H 0.69498 0.45905 0.80254 0.0
H172 H 0.58712 0.38727 0.83998 0.0
H173 H 0.56904 0.35845 0.80986 0.0
H174 H 0.58233 0.34577 0.84889 0.0
H175 H 0.64677 0.33983 0.7751 0.0
H176 H 0.62299 0.31257 0.80297 0.0
H177 H 0.60289 0.33247 0.77242 0.0
H178 H 0.57085 0.24777 0.8748 0.0
C179 C 0.60552 0.29182 0.86608 0.0
C180 C 0.93218 0.80325 0.39335 0.0
C181 C 0.92048 0.81848 0.42102 0.0
C182 C 0.89076 0.80335 0.43593 0.0
C183 C 0.88576 0.75867 0.39782 0.0
C184 C 0.91436 0.77333 0.3822 0.0
C185 C 0.9225 0.75318 0.35336 0.0
H186 H 0.88032 0.61875 0.25712 0.0
C187 C 0.87289 0.72796 0.38088 0.0
C188 C 0.89404 0.72433 0.35453 0.0
H189 H 0.96514 0.6948 0.24719 0.0
H190 H 0.94793 0.72126 0.29495 0.0
H191 H 0.88295 0.61411 0.34035 0.0
H192 H 0.82829 0.66565 0.27589 0.0
H193 H 0.8026 0.64594 0.30742 0.0
H194 H 0.82058 0.62247 0.27785 0.0
H195 H 0.85264 0.59364 0.31269 0.0
H196 H 0.84123 0.60763 0.3522 0.0
C197 C 0.95563 0.74308 0.3602 0.0
C198 C 0.92234 0.77321 0.32153 0.0
C199 C 0.76832 0.66055 0.42637 0.0
C200 C 0.74721 0.63232 0.4165 0.0
C201 C 0.75654 0.61598 0.38853 0.0
C202 C 0.78573 0.62806 0.37065 0.0
C203 C 0.80596 0.65696 0.38058 0.0
C204 C 0.79675 0.67249 0.40807 0.0
C205 C 0.81954 0.7035 0.41483 0.0
C206 C 0.84463 0.70412 0.38735 0.0
C207 C 0.83701 0.67681 0.36716 0.0
C208 C 0.83467 0.70069 0.44923 0.0
C209 C 0.7999 0.73119 0.41138 0.0
C210 C 0.89537 0.64092 0.26538 0.0
C211 C 0.9241 0.65465 0.24763 0.0
C212 C 0.94261 0.68378 0.25955 0.0
C213 C 0.93265 0.6992 0.28756 0.0
C214 C 0.90368 0.68565 0.30447 0.0
C215 C 0.88564 0.65679 0.2935 0.0
C216 C 0.85541 0.64605 0.31472 0.0
C217 C 0.8583 0.67302 0.34005 0.0
C218 C 0.88675 0.69645 0.33387 0.0
C219 C 0.85789 0.61352 0.33082 0.0
C220 C 0.82495 0.64469 0.29297 0.0
H221 H 0.85166 0.76399 0.43793 0.0
H222 H 0.95478 0.81405 0.381 0.0
H223 H 0.90134 0.7861 0.32187 0.0
H224 H 0.9193 0.75835 0.2991 0.0
H225 H 0.94516 0.79149 0.31905 0.0
H226 H 0.95727 0.73655 0.3866 0.0
H227 H 0.97639 0.763 0.35447 0.0
H228 H 0.959 0.72152 0.34631 0.0
H229 H 0.76285 0.67362 0.448 0.0
H230 H 0.74094 0.59427 0.37994 0.0
H231 H 0.79124 0.6147 0.34951 0.0
H232 H 0.83895 0.67586 0.45363 0.0
H233 H 0.81817 0.70638 0.46919 0.0
H234 H 0.85898 0.71617 0.45192 0.0
H235 H 0.77868 0.72448 0.39472 0.0
H236 H 0.81449 0.75307 0.39992 0.0
H237 H 0.79016 0.73754 0.43559 0.0
H238 H 0.8802 0.81454 0.45634 0.0
C239 C 0.87373 0.77382 0.42481 0.0
C240 C 0.73039 0.70532 0.93339 0.0
C241 C 0.75115 0.68592 0.91976 0.0
C242 C 0.75 0.67927 0.88581 0.0
C243 C 0.71198 0.7153 0.87858 0.0
C244 C 0.71031 0.71914 0.91228 0.0
C245 C 0.68561 0.73959 0.92179 0.0
H246 H 0.58689 0.84155 0.87403 0.0
C247 C 0.6915 0.73567 0.86298 0.0
C248 C 0.67466 0.7489 0.88803 0.0
H249 H 0.60324 0.81078 0.97277 0.0
H250 H 0.63716 0.7745 0.95144 0.0
H251 H 0.5831 0.76969 0.83494 0.0
H252 H 0.65287 0.85471 0.85422 0.0
H253 H 0.67126 0.83743 0.82148 0.0
H254 H 0.63241 0.84969 0.81565 0.0
H255 H 0.58334 0.80922 0.81863 0.0
H256 H 0.60553 0.78193 0.7983 0.0
C257 C 0.65742 0.71839 0.94144 0.0
C258 C 0.70355 0.76914 0.94096 0.0
C259 C 0.72177 0.77662 0.74797 0.0
C260 C 0.71383 0.80288 0.73076 0.0
C261 C 0.68522 0.81426 0.73984 0.0
C262 C 0.66721 0.80225 0.76802 0.0
C263 C 0.6784 0.77929 0.78766 0.0
C264 C 0.70428 0.76567 0.77672 0.0
C265 C 0.71366 0.74251 0.80137 0.0
C266 C 0.69082 0.74665 0.83002 0.0
C267 C 0.67041 0.76833 0.82184 0.0
C268 C 0.70614 0.70811 0.78672 0.0
C269 C 0.75016 0.75404 0.81007 0.0
C270 C 0.59703 0.82622 0.89087 0.0
C271 C 0.5921 0.8284 0.92494 0.0
C272 C 0.60661 0.80911 0.94637 0.0
C273 C 0.62634 0.78823 0.93394 0.0
C274 C 0.63221 0.78728 0.89981 0.0
C275 C 0.61745 0.80592 0.87889 0.0
C276 C 0.62871 0.80411 0.84375 0.0
C277 C 0.65136 0.77998 0.84673 0.0
C278 C 0.65349 0.77035 0.87966 0.0
C279 C 0.59864 0.79069 0.82255 0.0
C280 C 0.64712 0.83809 0.833 0.0
H281 H 0.73082 0.68849 0.83939 0.0
H282 H 0.73026 0.70997 0.95962 0.0
H283 H 0.72702 0.77965 0.92836 0.0
H284 H 0.68952 0.78877 0.94258 0.0
H285 H 0.70927 0.76228 0.96634 0.0
H286 H 0.65431 0.69273 0.93393 0.0
H287 H 0.66218 0.71952 0.96831 0.0
H288 H 0.6334 0.72505 0.93681 0.0
H289 H 0.74308 0.76682 0.74081 0.0
H290 H 0.67828 0.83425 0.72682 0.0
H291 H 0.64649 0.81272 0.77459 0.0
H292 H 0.69116 0.70686 0.76408 0.0
H293 H 0.72897 0.69948 0.77994 0.0
H294 H 0.69162 0.69065 0.80412 0.0
H295 H 0.7547 0.77983 0.81727 0.0
H296 H 0.75834 0.74072 0.83062 0.0
H297 H 0.76635 0.75135 0.7887 0.0
H298 H 0.76553 0.66401 0.87504 0.0
C299 C 0.73027 0.69369 0.86517 0.0
C300 C 0.90578 0.23241 0.42835 0.0
C301 C 0.928 0.21451 0.41474 0.0
C302 C 0.93283 0.21453 0.38034 0.0
C303 C 0.89044 0.246 0.37343 0.0
C304 C 0.88762 0.24836 0.40723 0.0
C305 C 0.86276 0.26843 0.41714 0.0
H306 H 0.74342 0.34816 0.37075 0.0
C307 C 0.86588 0.26223 0.35832 0.0
C308 C 0.85016 0.27634 0.3837 0.0
H309 H 0.77673 0.33641 0.46949 0.0
H310 H 0.81768 0.30732 0.44821 0.0
H311 H 0.73816 0.28178 0.35234 0.0
H312 H 0.81536 0.36124 0.33194 0.0
H313 H 0.80736 0.33871 0.29537 0.0
H314 H 0.77499 0.35509 0.31498 0.0
H315 H 0.73909 0.30389 0.31471 0.0
H316 H 0.75768 0.26872 0.31783 0.0
C317 C 0.83581 0.2473 0.43832 0.0
C318 C 0.88083 0.29886 0.43485 0.0
C319 C 0.83105 0.2347 0.24114 0.0
C320 C 0.80281 0.23893 0.22411 0.0
C321 C 0.78574 0.26284 0.23535 0.0
C322 C 0.79449 0.27952 0.26456 0.0
C323 C 0.81981 0.27159 0.28351 0.0
C324 C 0.8385 0.25047 0.2712 0.0
C325 C 0.86317 0.24349 0.29574 0.0
C326 C 0.85454 0.26232 0.32547 0.0
C327 C 0.8292 0.27871 0.31801 0.0
C328 C 0.85652 0.20673 0.30229 0.0
C329 C 0.89797 0.25705 0.28207 0.0
C330 C 0.76005 0.33995 0.38771 0.0
C331 C 0.75741 0.34499 0.42167 0.0
C332 C 0.77858 0.33289 0.44316 0.0
C333 C 0.80227 0.3161 0.43073 0.0
C334 C 0.80425 0.31085 0.39657 0.0
C335 C 0.7832 0.32269 0.37581 0.0
C336 C 0.78652 0.31274 0.34069 0.0
C337 C 0.81438 0.29439 0.34329 0.0
C338 C 0.82467 0.29319 0.37602 0.0
C339 C 0.75379 0.29082 0.33063 0.0
C340 C 0.7964 0.34345 0.31938 0.0
H341 H 0.91836 0.22882 0.33362 0.0
H342 H 0.90219 0.23341 0.45478 0.0
H343 H 0.9054 0.30744 0.42351 0.0
H344 H 0.86807 0.31941 0.43282 0.0
H345 H 0.88441 0.29387 0.46129 0.0
H346 H 0.82956 0.22261 0.42799 0.0
H347 H 0.84408 0.24521 0.46401 0.0
H348 H 0.81259 0.25633 0.43893 0.0
H349 H 0.84565 0.2176 0.23267 0.0
H350 H 0.76396 0.26713 0.22319 0.0
H351 H 0.77984 0.29653 0.27226 0.0
H352 H 0.82995 0.19771 0.30673 0.0
H353 H 0.8643 0.19357 0.28084 0.0
H354 H 0.86895 0.19968 0.32409 0.0
H355 H 0.89773 0.27634 0.26348 0.0
H356 H 0.91458 0.2686 0.30151 0.0
H357 H 0.90895 0.23796 0.27001 0.0
H358 H 0.94992 0.20104 0.36935 0.0
C359 C 0.91429 0.23034 0.35964 0.0
C360 C 0.42218 0.65437 0.31673 0.0
C361 C 0.40792 0.62436 0.33116 0.0
C362 C 0.3775 0.60859 0.31879 0.0
C363 C 0.37714 0.65054 0.27774 0.0
C364 C 0.40646 0.66688 0.29005 0.0
C365 C 0.41816 0.69799 0.27114 0.0
H366 H 0.39564 0.79745 0.14291 0.0
C367 C 0.36758 0.66893 0.24921 0.0
C368 C 0.3917 0.69696 0.24504 0.0
H369 H 0.47293 0.81385 0.21456 0.0
H370 H 0.45034 0.76325 0.2412 0.0
H371 H 0.33677 0.77086 0.19615 0.0
H372 H 0.39671 0.72588 0.13092 0.0
H373 H 0.35847 0.70009 0.13237 0.0
H374 H 0.36161 0.74046 0.11644 0.0
H375 H 0.33427 0.77193 0.15206 0.0
H376 H 0.31114 0.73933 0.17579 0.0
C377 C 0.41859 0.72632 0.29519 0.0
C378 C 0.4519 0.69671 0.25546 0.0
C379 C 0.26268 0.62509 0.18542 0.0
C380 C 0.24899 0.63496 0.15611 0.0
C381 C 0.2664 0.66272 0.13996 0.0
C382 C 0.29547 0.68046 0.15276 0.0
C383 C 0.30837 0.67047 0.18201 0.0
C384 C 0.29238 0.64284 0.19751 0.0
C385 C 0.31123 0.63466 0.22702 0.0
C386 C 0.34059 0.66241 0.2271 0.0
C387 C 0.33846 0.68353 0.20083 0.0
C388 C 0.28939 0.63503 0.2581 0.0
C389 C 0.32161 0.60192 0.22032 0.0
C390 C 0.40761 0.79063 0.16462 0.0
C391 C 0.43633 0.81031 0.17631 0.0
C392 C 0.4511 0.79941 0.20439 0.0
C393 C 0.43777 0.76996 0.22013 0.0
C394 C 0.40909 0.75069 0.208 0.0
C395 C 0.39457 0.76139 0.18067 0.0
C396 C 0.36434 0.73818 0.17076 0.0
C397 C 0.36259 0.71201 0.19679 0.0
C398 C 0.38898 0.71906 0.21873 0.0
C399 C 0.33495 0.75581 0.17355 0.0
C400 C 0.37026 0.72554 0.13575 0.0
H401 H 0.33926 0.60778 0.28459 0.0
H402 H 0.44539 0.66742 0.3254 0.0
H403 H 0.45167 0.67292 0.24375 0.0
H404 H 0.45882 0.71473 0.23575 0.0
H405 H 0.47132 0.70035 0.27434 0.0
H406 H 0.39643 0.72203 0.31139 0.0
H407 H 0.44039 0.72932 0.31122 0.0
H408 H 0.41818 0.74925 0.28245 0.0
H409 H 0.25067 0.60411 0.19899 0.0
H410 H 0.25804 0.67079 0.11686 0.0
H411 H 0.30695 0.7013 0.1391 0.0
H412 H 0.27618 0.65557 0.25714 0.0
H413 H 0.27078 0.61256 0.2601 0.0
H414 H 0.30352 0.63835 0.28107 0.0
H415 H 0.32654 0.5989 0.19361 0.0
H416 H 0.3447 0.59968 0.23242 0.0
H417 H 0.30211 0.58155 0.22812 0.0
H418 H 0.3652 0.58608 0.32957 0.0
C419 C 0.36223 0.62135 0.29252 0.0
C420 C 0.10842 0.27574 0.69058 0.0
C421 C 0.12124 0.2595 0.66427 0.0
C422 C 0.1534 0.27172 0.65312 0.0
C423 C 0.15797 0.31703 0.69024 0.0
C424 C 0.12739 0.30453 0.70327 0.0
C425 C 0.11886 0.32553 0.73129 0.0
H426 H 0.15832 0.46682 0.81811 0.0
C427 C 0.17093 0.34796 0.70664 0.0
C428 C 0.14838 0.3534 0.73106 0.0
H429 H 0.07659 0.38943 0.83639 0.0
H430 H 0.09429 0.35909 0.791 0.0
H431 H 0.15698 0.46396 0.7369 0.0
H432 H 0.21162 0.4197 0.80778 0.0
H433 H 0.23794 0.43643 0.77541 0.0
H434 H 0.21885 0.46243 0.80118 0.0
H435 H 0.18823 0.48714 0.76174 0.0
H436 H 0.19817 0.4688 0.72384 0.0
C437 C 0.08685 0.33703 0.72288 0.0
C438 C 0.11669 0.30572 0.7635 0.0
C439 C 0.27834 0.41237 0.66336 0.0
C440 C 0.29766 0.4423 0.6711 0.0
C441 C 0.2859 0.46113 0.69562 0.0
C442 C 0.25601 0.44982 0.71256 0.0
C443 C 0.23746 0.41932 0.70492 0.0
C444 C 0.24886 0.40148 0.6804 0.0
C445 C 0.2265 0.3699 0.6748 0.0
C446 C 0.19962 0.37127 0.70008 0.0
C447 C 0.20594 0.40013 0.71793 0.0
C448 C 0.21388 0.37003 0.63896 0.0
C449 C 0.2457 0.34268 0.68267 0.0
C450 C 0.1442 0.44337 0.8123 0.0
C451 C 0.11587 0.43066 0.83092 0.0
C452 C 0.09855 0.39977 0.82268 0.0
C453 C 0.10887 0.38217 0.79628 0.0
C454 C 0.13731 0.39514 0.77802 0.0
C455 C 0.15465 0.42519 0.7865 0.0
C456 C 0.18519 0.43472 0.76563 0.0
C457 C 0.18347 0.40568 0.74323 0.0
C458 C 0.15501 0.38243 0.75015 0.0
C459 C 0.18232 0.4654 0.74604 0.0
C460 C 0.21513 0.4388 0.78852 0.0
H461 H 0.19536 0.30792 0.6551 0.0
H462 H 0.08412 0.26676 0.70041 0.0
H463 H 0.136 0.29073 0.76391 0.0
H464 H 0.12089 0.32094 0.78564 0.0
H465 H 0.09259 0.28932 0.76593 0.0
H466 H 0.08816 0.34676 0.69734 0.0
H467 H 0.06558 0.31684 0.72456 0.0
H468 H 0.08203 0.35652 0.73914 0.0
H469 H 0.286 0.39742 0.64425 0.0
H470 H 0.30016 0.48427 0.70226 0.0
H471 H 0.24861 0.46512 0.73115 0.0
H472 H 0.21069 0.39455 0.6315 0.0
H473 H 0.23136 0.36223 0.62122 0.0
H474 H 0.18948 0.35492 0.63572 0.0
H475 H 0.26516 0.35056 0.70106 0.0
H476 H 0.23009 0.32139 0.69419 0.0
H477 H 0.25774 0.33507 0.66024 0.0
H478 H 0.16476 0.25938 0.63413 0.0
C479 C 0.17149 0.30011 0.66562 0.0
Tb480 Tb 0.03862 0.0398 0.53449 0.0
Tb481 Tb 0.97432 1.02824 0.58374 0.0
C482 C 0.98204 0.97979 0.52617 0.0
C483 C 0.11498 0.07526 0.4884 0.0
C484 C 0.16669 0.12491 0.46907 0.0
C485 C 0.15639 0.09834 0.44842 0.0
C486 C 0.1309 0.07372 0.45809 0.0
C487 C 0.12447 0.10203 0.50888 0.0
C488 C 0.15022 0.12667 0.4993 0.0
C489 C 0.08924 0.04829 0.49846 0.0
O490 O 1.01336 0.07862 0.52284 0.0
O491 O 0.96234 0.05461 0.54104 0.0
O492 O 0.99973 0.07594 0.59755 0.0
O493 O 0.05058 0.0752 0.57423 0.0
O494 O 0.92317 1.01971 0.58685 0.0
O495 O 0.95213 1.02309 0.63084 0.0
O496 O 1.01244 1.00973 0.60958 0.0
O497 O 0.04122 0.99789 0.56437 0.0
O498 O 1.00218 1.00286 0.51061 0.0
O499 O 0.97319 0.98341 0.55697 0.0
C500 C 0.98166 0.07717 0.52426 0.0
O501 O 0.08875 0.04009 0.52947 0.0
O502 O 0.05998 0.0485 0.48735 0.0
C503 C 0.03104 0.08815 0.59386 0.0
C504 C 0.90193 0.98609 0.6316 0.0
C505 C 0.86069 0.931 0.65738 0.0
C506 C 0.87596 0.95544 0.67844 0.0
C507 C 0.89626 0.9828 0.66564 0.0
C508 C 0.88698 0.96145 0.61048 0.0
C509 C 0.86636 0.93423 0.62328 0.0
C510 C 0.92289 1.01555 0.61864 0.0
C511 C 0.0333 0.99407 0.59561 0.0
H512 H 0.16789 0.09662 0.42457 0.0
H513 H 0.12369 0.05335 0.44191 0.0
H514 H 0.11227 0.10369 0.53238 0.0
H515 H 0.15754 0.14677 0.51576 0.0
H516 H 0.87168 0.95368 0.70481 0.0
H517 H 0.90739 1.00152 0.68234 0.0
H518 H 0.89103 0.96321 0.58408 0.0
H519 H 0.85503 0.91561 0.60658 0.0
Tb520 Tb 0.54592 0.03492 0.05553 0.0
Tb521 Tb 0.47966 1.0216 1.01146 0.0
C522 C 0.53541 0.98343 1.00015 0.0
C523 C 0.623 0.07299 0.09766 0.0
C524 C 0.67246 0.1236 0.1185 0.0
C525 C 0.65804 0.12492 0.0875 0.0
C526 C 0.63342 0.09986 0.07719 0.0
C527 C 0.63677 0.07196 0.1288 0.0
C528 C 0.66112 0.09706 0.13921 0.0
C529 C 0.599 0.04516 0.0866 0.0
O530 O 0.54835 0.07865 1.02587 0.0
O531 O 0.51594 0.05622 0.9835 0.0
O532 O 0.47858 0.0657 1.03813 0.0
O533 O 0.51205 0.05995 0.08129 0.0
O534 O 0.45626 1.00961 0.96645 0.0
O535 O 0.42958 1.02274 1.00889 0.0
O536 O 0.46792 0.99144 0.05556 0.0
O537 O 0.51963 0.98751 0.07209 0.0
O538 O 0.55489 1.00885 1.01149 0.0
O539 O 0.5036 0.98098 1.00204 0.0
C540 C 0.5376 0.08005 0.9956 0.0
O541 O 0.57029 0.04042 0.10094 0.0
O542 O 0.59695 0.04067 0.05492 0.0
C543 C 0.48955 0.07349 0.06769 0.0
C544 C 0.39964 0.98675 0.97144 0.0
C545 C 0.345 0.9408 0.95262 0.0
C546 C 0.34114 0.97149 0.96321 0.0
C547 C 0.36823 0.99424 0.97242 0.0
C548 C 0.40352 0.95564 0.96248 0.0
C549 C 0.37638 0.93283 0.9531 0.0
C550 C 0.4277 1.01234 0.97866 0.0
C551 C 0.48772 0.97704 0.07284 0.0
H552 H 0.66621 0.14496 0.07095 0.0
H553 H 0.62297 0.10125 0.05305 0.0
H554 H 0.62891 0.05154 0.14499 0.0
H555 H 0.671 0.09565 0.16361 0.0
H556 H 0.31725 0.97819 0.96357 0.0
H557 H 0.36473 1.01805 0.97957 0.0
H558 H 0.42755 0.94924 0.96182 0.0
H559 H 0.38019 0.90949 0.94478 0.0
Tb560 Tb 0.51598 0.49893 0.52243 0.0
Tb561 Tb 0.52784 0.56702 0.56203 0.0
C562 C 0.49309 0.5603 0.49171 0.0
C563 C 0.53601 0.42502 0.48913 0.0
C564 C 0.59081 0.39539 0.47948 0.0
C565 C 0.57529 0.40663 0.45246 0.0
C566 C 0.5481 0.42119 0.45724 0.0
C567 C 0.5506 0.41239 0.51604 0.0
C568 C 0.57767 0.39765 0.51123 0.0
C569 C 0.51099 0.44527 0.49428 0.0
O570 O 0.56165 0.52572 0.50195 0.0
O571 O 0.57588 0.56597 0.54017 0.0
O572 O 0.54083 0.53164 0.59692 0.0
O573 O 0.55141 0.4935 0.56054 0.0
O574 O 0.54471 0.61696 0.56418 0.0
O575 O 0.52162 0.59079 0.60638 0.0
O576 O 0.47537 0.54822 0.56501 0.0
O577 O 0.4773 0.49501 0.55988 0.0
O578 O 0.48742 0.52862 0.49439 0.0
O579 O 0.51144 0.57857 0.51316 0.0
C580 C 0.58261 0.54989 0.51401 0.0
O581 O 0.50157 0.4487 0.52458 0.0
O582 O 0.51621 0.47261 0.47852 0.0
C583 C 0.55273 0.50553 0.59049 0.0
C584 C 0.50871 0.64135 0.59662 0.0
C585 C 0.45925 0.67799 0.60628 0.0
C586 C 0.48113 0.67456 0.63168 0.0
C587 C 0.50565 0.65647 0.62684 0.0
C588 C 0.48744 0.6452 0.57094 0.0
C589 C 0.4631 0.66353 0.57564 0.0
C590 C 0.53171 0.61903 0.59329 0.0
C591 C 0.46226 0.51792 0.56999 0.0
H592 H 0.58459 0.4047 0.42765 0.0
H593 H 0.53728 0.43059 0.43609 0.0
H594 H 0.54194 0.41492 0.54099 0.0
H595 H 0.58918 0.38929 0.53251 0.0
H596 H 0.47858 0.68482 0.65578 0.0
H597 H 0.52152 0.65337 0.64707 0.0
H598 H 0.48909 0.63338 0.54749 0.0
H599 H 0.44701 0.66598 0.55541 0.0
Tb600 Tb 1.01559 0.56414 1.02346 0.0
Tb601 Tb 0.02067 0.50077 0.06733 0.0
C602 C 0.0505 0.50853 0.99534 0.0
C603 C 0.97791 0.62821 0.99016 0.0
C604 C 0.92049 0.65387 0.98409 0.0
C605 C 0.94911 0.66741 0.96644 0.0
C606 C 0.97761 0.65456 0.96938 0.0
C607 C 0.94976 0.61533 1.00863 0.0
C608 C 0.92126 0.62797 1.00555 0.0
C609 C 1.00683 0.61302 0.9916 0.0
O610 O 0.96636 0.53478 1.0229 0.0
O611 O 0.97972 0.48589 1.0341 0.0
O612 O 0.98486 0.52344 0.09388 0.0
O613 O 1.00088 0.57454 0.07381 0.0
O614 O 0.01956 0.45102 0.06987 0.0
O615 O 0.02725 0.48036 0.11344 0.0
O616 O 0.062 0.53742 0.08256 0.0
O617 O 0.06677 0.57235 1.03864 0.0
O618 O 0.03357 0.53114 0.98881 0.0
O619 O 0.05414 0.49936 1.02581 0.0
C620 C 0.95944 0.50321 1.02198 0.0
O621 O 0.0212 0.61444 1.01999 0.0
O622 O 1.00289 0.58421 0.97927 0.0
C623 C 0.9857 0.5546 0.09632 0.0
C624 C 0.05839 0.4398 0.10795 0.0
C625 C 0.11766 0.42094 0.12455 0.0
C626 C 0.0922 0.41926 0.148 0.0
C627 C 0.06279 0.42854 0.13973 0.0
C628 C 0.08365 0.44114 0.08434 0.0
C629 C 0.11293 0.43155 0.0925 0.0
C630 C 0.02865 0.4525 0.10051 0.0
C631 C 0.07837 0.56199 0.06586 0.0
H632 H 0.94912 0.68716 0.94946 0.0
H633 H 0.99913 0.66472 0.95492 0.0
H634 H 0.94965 0.59506 1.02497 0.0
H635 H 0.8997 0.61727 1.01968 0.0
H636 H 0.09511 0.41087 0.17281 0.0
H637 H 0.04372 0.42755 0.15833 0.0
H638 H 0.08106 0.45024 0.05976 0.0
H639 H 0.13224 0.43337 0.07406 0.0
H640 H 0.26107 0.24799 0.41456 0.0
H641 H 0.30627 0.17381 0.37042 0.0
H642 H 0.27165 0.13346 0.40361 0.0
H643 H 0.22309 0.11772 0.43829 0.0
H644 H 0.17215 0.19021 0.4762 0.0
H645 H 0.21409 0.23236 0.45218 0.0
C646 C 0.26345 0.22304 0.41209 0.0
C647 C 0.28621 0.21433 0.38939 0.0
C648 C 0.24191 0.19935 0.4298 0.0
C649 C 0.28953 0.18181 0.38775 0.0
C650 C 0.26926 0.15838 0.40644 0.0
C651 C 0.2211 0.14274 0.44131 0.0
C652 C 0.19415 0.15072 0.45844 0.0
C653 C 0.2445 0.16672 0.42639 0.0
C654 C 0.1926 0.18333 0.4631 0.0
C655 C 0.21648 0.20746 0.44918 0.0
H656 H 0.23603 0.86559 0.86255 0.0
H657 H 0.2632 0.78418 0.91174 0.0
H658 H 0.29894 0.82058 0.94827 0.0
H659 H 0.32741 0.87571 0.96131 0.0
H660 H 0.30031 0.95611 0.91014 0.0
H661 H 0.25881 0.91978 0.88003 0.0
C662 C 0.24874 0.85557 0.88199 0.0
C663 C 0.24706 0.82212 0.88416 0.0
C664 C 0.26958 0.87653 0.90239 0.0
C665 C 0.26438 0.80985 0.90921 0.0
C666 C 0.28488 0.83065 0.93005 0.0
C667 C 0.31218 0.88522 0.94378 0.0
C668 C 0.31713 0.91856 0.93786 0.0
C669 C 0.28861 0.86407 0.92599 0.0
C670 C 0.29688 0.93061 0.91544 0.0
C671 C 0.27325 0.90983 0.89799 0.0
H672 H 0.61423 0.41561 0.6899 0.0
H673 H 0.60528 0.49266 0.75659 0.0
H674 H 0.58115 0.52041 0.71313 0.0
H675 H 0.56362 0.52395 0.65543 0.0
H676 H 0.57467 0.44816 0.58767 0.0
H677 H 0.59676 0.41936 0.6316 0.0
C678 C 0.60662 0.43827 0.69498 0.0
C679 C 0.61141 0.45179 0.72681 0.0
C680 C 0.59331 0.4547 0.66934 0.0
C681 C 0.60185 0.48154 0.73255 0.0
C682 C 0.58809 0.49754 0.70757 0.0
C683 C 0.57086 0.50116 0.65014 0.0
C684 C 0.56728 0.48854 0.61782 0.0
C685 C 0.58394 0.48459 0.67572 0.0
C686 C 0.57702 0.45882 0.61196 0.0
C687 C 0.58968 0.44214 0.63726 0.0
H688 H 0.92249 0.59025 0.23262 0.0
H689 H 0.94952 0.68561 0.19124 0.0
H690 H 0.97001 0.66353 0.14157 0.0
H691 H 0.98199 0.61751 0.10976 0.0
H692 H 0.95499 0.52181 0.15014 0.0
H693 H 0.93271 0.54352 0.19946 0.0
C694 C 0.93257 0.60622 0.21265 0.0
C695 C 0.9347 0.63982 0.21634 0.0
C696 C 0.9445 0.59325 0.18363 0.0
C697 C 0.94807 0.65984 0.18986 0.0
C698 C 0.95971 0.64717 0.16114 0.0
C699 C 0.97112 0.60126 0.12921 0.0
C700 C 0.97042 0.56788 0.12586 0.0
C701 C 0.9584 0.61396 0.1578 0.0
C702 C 0.95604 0.54752 0.15166 0.0
C703 C 0.94327 0.55999 0.18007 0.0
H704 H 0.41656 0.17833 0.12753 0.0
H705 H 0.50151 0.19492 0.18953 0.0
H706 H 0.52371 0.15308 0.16033 0.0
H707 H 0.5179 0.11037 0.11838 0.0
H708 H 0.43326 0.09517 0.05584 0.0
H709 H 0.41222 0.13809 0.08392 0.0
C710 C 0.44028 0.17334 0.13423 0.0
C711 C 0.45731 0.18975 0.16071 0.0
C712 C 0.45282 0.14925 0.11745 0.0
C713 C 0.48772 0.18244 0.16944 0.0
C714 C 0.50044 0.15852 0.15276 0.0
C715 C 0.49481 0.1164 0.111 0.0
C716 C 0.47707 0.09941 0.08524 0.0
C717 C 0.48294 0.14141 0.12705 0.0
C718 C 0.44741 0.10783 0.07562 0.0
C719 C 0.43534 0.13239 0.09165 0.0
H720 H 0.09416 0.90692 0.69373 0.0
H721 H 0.09244 0.84849 0.60626 0.0
H722 H 0.06888 0.88777 0.57536 0.0
H723 H 0.04937 0.93903 0.57287 0.0
H724 H 0.04656 0.99497 0.66123 0.0
H725 H 0.07052 0.95572 0.69239 0.0
C726 C 0.08804 0.90224 0.66811 0.0
C727 C 0.09544 0.87468 0.65245 0.0
C728 C 0.07367 0.92451 0.65062 0.0
C729 C 0.08781 0.86971 0.61895 0.0
C730 C 0.07407 0.89208 0.60123 0.0
C731 C 0.05409 0.94262 0.59895 0.0
C732 C 0.04667 0.96998 0.61473 0.0
C733 C 0.0672 0.91968 0.61675 0.0
C734 C 0.05219 0.97409 0.64862 0.0
C735 C 0.06592 0.95171 0.66637 0.0
H736 H 0.84102 0.40959 0.95596 0.0
H737 H 0.81054 0.49913 0.93351 0.0
H738 H 0.85954 0.52876 0.96014 0.0
H739 H 0.91086 0.52921 0.99152 0.0
H740 H 0.93867 0.43856 1.01526 0.0
H741 H 0.89065 0.4098 0.98741 0.0
C742 C 0.84462 0.43558 0.95714 0.0
C743 C 0.82147 0.45181 0.94277 0.0
C744 C 0.87251 0.45248 0.97317 0.0
C745 C 0.82772 0.4857 0.94392 0.0
C746 C 0.85574 0.50274 0.95949 0.0
C747 C 0.90636 0.50316 0.99077 0.0
C748 C 0.92871 0.48629 1.00582 0.0
C749 C 0.87826 0.48639 0.97451 0.0
C750 C 0.92221 0.45246 1.00422 0.0
C751 C 0.89465 0.43584 0.98812 0.0
H752 H 0.71416 0.57014 0.42889 0.0
H753 H 0.70754 0.66954 0.44568 0.0
H754 H 0.65875 0.65301 0.47938 0.0
H755 H 0.61688 0.61061 0.5041 0.0
H756 H 0.61928 0.51135 0.48298 0.0
H757 H 0.67014 0.52747 0.45112 0.0
C758 C 0.70194 0.58825 0.43958 0.0
C759 C 0.7155 0.62119 0.4351 0.0
C760 C 0.6729 0.57858 0.45848 0.0
C761 C 0.69883 0.64404 0.44938 0.0
C762 C 0.67053 0.63463 0.46858 0.0
C763 C 0.62875 0.59251 0.49282 0.0
C764 C 0.61452 0.55981 0.49635 0.0
C765 C 0.65742 0.60201 0.47354 0.0
C766 C 0.62981 0.5367 0.48084 0.0
C767 C 0.65889 0.54592 0.46252 0.0
H768 H 0.24696 0.39294 0.18773 0.0
H769 H 0.24481 0.33223 0.10214 0.0
H770 H 0.1972 0.35213 0.08177 0.0
H771 H 0.1529 0.38284 0.09113 0.0
H772 H 0.15352 0.44046 0.17879 0.0
H773 H 0.20447 0.42499 0.19598 0.0
C774 C 0.2361 0.384 0.1646 0.0
C775 C 0.24926 0.36082 0.14673 0.0
C776 C 0.20807 0.39458 0.15371 0.0
C777 C 0.23538 0.35022 0.11635 0.0
C778 C 0.2079 0.36133 0.10485 0.0
C779 C 0.16443 0.39222 0.11381 0.0
C780 C 0.14934 0.41247 0.13386 0.0
C781 C 0.19356 0.3829 0.12375 0.0
C782 C 0.1644 0.42438 0.16326 0.0
C783 C 0.1936 0.41571 0.17299 0.0
H784 H 0.57712 0.19316 0.8899 0.0
H785 H 0.61095 0.24535 0.97804 0.0
H786 H 0.59359 0.19713 1.01099 0.0
H787 H 0.56894 0.1397 1.0157 0.0
H788 H 0.53201 0.08751 0.92874 0.0
H789 H 0.55002 0.1357 0.89507 0.0
C790 C 0.58045 0.19416 0.91634 0.0
C791 C 0.59613 0.22325 0.93099 0.0
C792 C 0.56983 0.16603 0.93567 0.0
C793 C 0.60001 0.2235 0.9655 0.0
C794 C 0.58981 0.1958 0.98463 0.0
C795 C 0.56491 0.13873 0.98936 0.0
C796 C 0.54923 0.10962 0.97497 0.0
C797 C 0.57492 0.16682 0.97005 0.0
C798 C 0.54399 0.10932 0.94073 0.0
C799 C 0.55432 0.13702 0.92134 0.0
H800 H 0.92632 0.83586 0.48569 0.0
H801 H 0.9544 0.87239 0.38828 0.0
H802 H 0.97706 0.9252 0.41174 0.0
H803 H 0.98583 0.96224 0.46032 0.0
H804 H 0.9532 0.92432 0.5564 0.0
H805 H 0.93469 0.87155 0.53289 0.0
C806 C 0.93706 0.85534 0.46931 0.0
C807 C 0.938 0.84992 0.43502 0.0
C808 C 0.94895 0.88583 0.48282 0.0
C809 C 0.95327 0.8755 0.41471 0.0
C810 C 0.96598 0.90591 0.42815 0.0
C811 C 0.97467 0.94243 0.47608 0.0
C812 C 0.97085 0.94772 0.51025 0.0
C813 C 0.96346 0.91159 0.46221 0.0
C814 C 0.95633 0.92149 0.53011 0.0
C815 C 0.94578 0.89103 0.51668 0.0
H816 H 0.35378 0.75612 0.65786 0.0
H817 H 0.29081 0.6867 0.59871 0.0
H818 H 0.33817 0.66441 0.57971 0.0
H819 H 0.39654 0.66176 0.58427 0.0
H820 H 0.45951 0.73264 0.64236 0.0
H821 H 0.41289 0.75706 0.65781 0.0
C822 C 0.35057 0.7363 0.64054 0.0
C823 C 0.31901 0.72277 0.62988 0.0
C824 C 0.37775 0.72367 0.62994 0.0
C825 C 0.31499 0.69744 0.60715 0.0
C826 C 0.34199 0.68462 0.59649 0.0
C827 C 0.40029 0.68298 0.59971 0.0
C828 C 0.43153 0.69502 0.61248 0.0
C829 C 0.37339 0.69714 0.60828 0.0
C830 C 0.43568 0.72235 0.63279 0.0
C831 C 0.40906 0.73648 0.64149 0.0
H832 H 0.77851 0.81941 0.74141 0.0
H833 H 0.70437 0.83143 0.67157 0.0
H834 H 0.74449 0.87062 0.64077 0.0
H835 H 0.79941 0.90502 0.63706 0.0
H836 H 0.8721 0.89369 0.70878 0.0
H837 H 0.83375 0.85019 0.73538 0.0
C838 C 0.77125 0.82982 0.71889 0.0
C839 C 0.73854 0.82233 0.70864 0.0
C840 C 0.79411 0.85271 0.70193 0.0
C841 C 0.7294 0.83684 0.67996 0.0
C842 C 0.7523 0.85926 0.66243 0.0
C843 C 0.80694 0.89259 0.65817 0.0
C844 C 0.83838 0.90261 0.67116 0.0
C845 C 0.78453 0.86796 0.67368 0.0
C846 C 0.84785 0.88661 0.69867 0.0
C847 C 0.82599 0.86173 0.7138 0.0
H848 H 0.76415 0.24803 0.17153 0.0
H849 H 0.80659 0.17492 0.22037 0.0
H850 H 0.77348 0.13376 0.18786 0.0
H851 H 0.72681 0.11719 0.15214 0.0
H852 H 0.6782 0.18877 0.10953 0.0
H853 H 0.71893 0.23146 0.13329 0.0
C854 C 0.76624 0.22314 0.17523 0.0
C855 C 0.78779 0.21502 0.19902 0.0
C856 C 0.74544 0.199 0.15792 0.0
C857 C 0.79081 0.18252 0.20218 0.0
C858 C 0.77137 0.15862 0.18389 0.0
C859 C 0.72501 0.14213 0.14809 0.0
C860 C 0.69909 0.14969 0.12963 0.0
C861 C 0.74769 0.16646 0.16281 0.0
C862 C 0.69787 0.18219 0.12366 0.0
C863 C 0.72106 0.20664 0.13741 0.0
H864 H 0.44201 0.65153 0.38603 0.0
H865 H 0.41092 0.56049 0.33761 0.0
H866 H 0.43298 0.53283 0.3822 0.0
H867 H 0.46083 0.5336 0.43591 0.0
H868 H 0.49303 0.62467 0.48394 0.0
H869 H 0.4712 0.65245 0.43923 0.0
C870 C 0.4403 0.62569 0.38501 0.0
C871 C 0.4242 0.60839 0.35821 0.0
C872 C 0.45325 0.60954 0.4111 0.0
C873 C 0.42237 0.57473 0.3579 0.0
C874 C 0.4352 0.55871 0.3835 0.0
C875 C 0.46303 0.55951 0.43674 0.0
C876 C 0.47868 0.57668 0.46381 0.0
C877 C 0.45049 0.57572 0.41048 0.0
C878 C 0.48125 0.61043 0.46381 0.0
C879 C 0.46872 0.62654 0.43803 0.0
H880 H 0.10136 0.41228 0.89509 0.0
H881 H 0.10443 0.49224 0.82873 0.0
H882 H 0.08447 0.52345 0.87281 0.0
H883 H 0.06527 0.52797 0.93071 0.0
H884 H 0.06621 0.4489 0.99761 0.0
H885 H 0.08537 0.41791 0.9534 0.0
C886 C 0.09761 0.43653 0.89028 0.0
C887 C 0.10421 0.44972 0.85842 0.0
C888 C 0.08684 0.45471 0.9161 0.0
C889 C 0.09963 0.48142 0.85291 0.0
C890 C 0.08812 0.4993 0.87818 0.0
C891 C 0.06981 0.50403 0.93567 0.0
C892 C 0.06417 0.49102 0.96779 0.0
C893 C 0.08154 0.48623 0.90996 0.0
C894 C 0.07046 0.45989 0.97346 0.0
C895 C 0.08133 0.44193 0.94802 0.0
H896 H 0.61827 0.87784 0.96323 0.0
H897 H 0.5292 0.83593 0.91449 0.0
H898 H 0.5031 0.88022 0.9337 0.0
H899 H 0.50641 0.9316 0.9638 0.0
H900 H 0.59759 0.97444 1.00902 0.0
H901 H 0.62211 0.92931 0.99158 0.0
C902 C 0.59301 0.87831 0.95721 0.0
C903 C 0.57538 0.85364 0.93807 0.0
C904 C 0.57871 0.9042 0.9674 0.0
C905 C 0.54299 0.85468 0.92957 0.0
C906 C 0.52819 0.88 0.94043 0.0
C907 C 0.53165 0.93105 0.96971 0.0
C908 C 0.55009 0.95645 0.98762 0.0
C909 C 0.54591 0.90505 0.95921 0.0
C910 C 0.58284 0.95542 0.99502 0.0
C911 C 0.59691 0.9295 0.98522 0.0
H912 H 0.89899 0.17142 0.46006 0.0
H913 H 0.99264 0.20996 0.41537 0.0
H914 H 0.01782 0.17116 0.44588 0.0
H915 H 1.01254 0.12484 0.48343 0.0
H916 H 0.91807 0.08523 0.52642 0.0
H917 H 0.89392 0.12587 0.49836 0.0
C918 C 0.92502 0.17164 0.45748 0.0
C919 C 0.94403 0.19357 0.43574 0.0
C920 C 0.93909 0.14885 0.47448 0.0
C921 C 0.97759 0.19325 0.43202 0.0
C922 C 0.99193 0.17105 0.44938 0.0
C923 C 0.98667 0.12508 0.48672 0.0
C924 C 0.96717 0.10184 0.50691 0.0
C925 C 0.97281 0.14843 0.47032 0.0
C926 C 0.93368 0.10263 0.51087 0.0
C927 C 0.91981 0.12595 0.49492 0.0
H928 H 0.20407 0.6572 0.11626 0.0
H929 H 0.22126 0.57021 0.16325 0.0
H930 H 0.1705 0.5408 0.14077 0.0
H931 H 0.12099 0.539 0.10683 0.0
H932 H 0.10748 0.62462 0.05527 0.0
H933 H 0.15751 0.65462 0.0794 0.0
C934 C 0.1975 0.63168 0.12126 0.0
C935 C 0.21734 0.61649 0.14194 0.0
C936 C 0.16869 0.6143 0.10703 0.0
C937 C 0.20682 0.58334 0.14834 0.0
C938 C 0.1777 0.56617 0.13506 0.0
C939 C 0.12905 0.56421 0.10076 0.0
C940 C 0.11021 0.57945 0.07919 0.0
C941 C 0.1584 0.58134 0.11433 0.0
C942 C 0.12137 0.61209 0.07152 0.0
C943 C 0.14999 0.62937 0.0855 0.0
H944 H 0.32605 0.50253 0.64755 0.0
H945 H 0.34298 0.40533 0.65637 0.0
H946 H 0.39404 0.41974 0.62537 0.0
H947 H 0.43396 0.45937 0.59504 0.0
H948 H 0.41909 0.55725 0.58721 0.0
H949 H 0.36764 0.54319 0.61842 0.0
C950 C 0.34107 0.48459 0.64298 0.0
C951 C 0.33016 0.45269 0.65405 0.0
C952 C 0.37088 0.4931 0.62506 0.0
C953 C 0.35013 0.42986 0.64766 0.0
C954 C 0.37955 0.4381 0.62999 0.0
C955 C 0.41947 0.47768 0.59997 0.0
C956 C 0.43047 0.50931 0.58843 0.0
C957 C 0.39005 0.46953 0.61828 0.0
C958 C 0.41133 0.53268 0.59557 0.0
C959 C 0.38184 0.52465 0.61352 0.0
H960 H 0.80401 0.7228 0.94634 0.0
H961 H 0.75555 0.62437 0.93484 0.0
H962 H 0.80317 0.60564 0.95724 0.0
H963 H 0.8607 0.61745 0.97365 0.0
H964 H 0.91077 0.71596 0.98129 0.0
H965 H 0.86057 0.73467 0.96666 0.0
C966 C 0.8037 0.69731 0.94969 0.0
C967 C 0.77642 0.67488 0.9395 0.0
C968 C 0.83164 0.68684 0.96122 0.0
C969 C 0.77629 0.64189 0.94299 0.0
C970 C 0.80356 0.63127 0.9555 0.0
C971 C 0.86043 0.64301 0.97277 0.0
C972 C 0.8894 0.66531 0.97843 0.0
C973 C 0.83171 0.65352 0.96374 0.0
C974 C 0.88885 0.69836 0.97667 0.0
C975 C 0.86015 0.70905 0.96843 0.0
H976 H 0.40479 0.8541 0.14544 0.0
H977 H 0.50152 0.83751 0.16751 0.0
H978 H 0.52567 0.88728 0.13914 0.0
H979 H 0.51982 0.93544 0.1065 0.0
H980 H 0.42297 0.95092 0.08327 0.0
H981 H 0.39891 0.90196 0.113 0.0
C982 C 0.43119 0.86107 0.14391 0.0
C983 C 0.45104 0.84153 0.159 0.0
C984 C 0.44515 0.88984 0.12708 0.0
C985 C 0.48527 0.85186 0.15688 0.0
C986 C 0.49925 0.8804 0.14032 0.0
C987 C 0.49344 0.92827 0.10803 0.0
C988 C 0.47344 0.94733 0.09244 0.0
C989 C 0.47949 0.89964 0.1252 0.0
C990 C 0.43924 0.93713 0.09481 0.0
C991 C 0.42533 0.90894 0.1119 0.0
H992 H 0.07938 0.20581 0.69014 0.0
H993 H 0.11984 0.24802 0.59829 0.0
H994 H 0.09774 0.19887 0.56922 0.0
H995 H 0.06873 0.14267 0.56937 0.0
H996 H 0.02256 0.10137 0.65892 0.0
H997 H 0.04478 0.15077 0.68904 0.0
C998 C 0.08291 0.20444 0.66372 0.0
C999 C 0.10229 0.2306 0.64685 0.0
C1000 C 0.06935 0.17589 0.64659 0.0
C1001 C 0.10612 0.22815 0.61239 0.0
C1002 C 0.09334 0.19995 0.59553 0.0
C1003 C 0.06365 0.1445 0.59551 0.0
C1004 C 0.04453 0.11819 0.612 0.0
C1005 C 0.07549 0.17341 0.61239 0.0
C1006 C 0.03746 0.12121 0.64571 0.0
C1007 C 0.05013 0.14952 0.66294 0.0
H1008 H 0.71049 0.32308 0.46757 0.0
H1009 H 0.74512 0.40281 0.4022 0.0
H1010 H 0.69696 0.42604 0.41531 0.0
H1011 H 0.64337 0.42174 0.44226 0.0
H1012 H 0.60739 0.34141 0.50649 0.0
H1013 H 0.65776 0.32041 0.49721 0.0
C1014 C 0.70772 0.34587 0.45682 0.0
C1015 C 0.73118 0.36129 0.43401 0.0
C1016 C 0.67957 0.3587 0.46391 0.0
C1017 C 0.72724 0.39057 0.41979 0.0
C1018 C 0.69969 0.40375 0.42715 0.0
C1019 C 0.6465 0.39954 0.45408 0.0
C1020 C 0.62155 0.38289 0.47463 0.0
C1021 C 0.67535 0.38762 0.44853 0.0
C1022 C 0.62626 0.35461 0.4905 0.0
C1023 C 0.65501 0.34258 0.48516 0.0
loop_
_geom_bond_atom_site_label_1
_geom_bond_atom_site_label_2
_geom_bond_distance
_geom_bond_site_symmetry_2
_ccdc_geom_bond_type
C0 C1 1.391 . S
C0 C4 1.391 . S
C0 H42 0.948 . S
C1 C0 1.391 . S
C1 C2 1.391 . S
C2 C1 1.391 . S
C2 H58 0.947 . S
C2 C59 1.392 . S
C3 C4 1.391 . S
C3 C7 1.397 . S
C3 C59 1.419 . S
C4 C0 1.391 . S
C4 C3 1.391 . S
C4 C5 1.399 . S
C5 C4 1.399 . S
C5 C8 1.396 . S
C5 C17 1.453 . S
C5 C18 1.684 . S
H6 C30 0.948 . S
C7 C3 1.397 . S
C7 C8 1.394 . S
C7 C26 1.723 . S
C8 C5 1.396 . S
C8 C7 1.394 . S
C8 C38 1.723 . S
H9 C32 0.947 . S
H10 C33 0.948 . S
H11 C39 0.982 . S
H12 C40 0.979 . S
H13 C40 0.980 . S
H14 C40 0.983 . S
H15 C39 0.979 . S
H16 C39 0.977 . S
C17 C5 1.453 . S
C17 H46 0.982 . S
C17 H47 0.979 . S
C17 H48 0.977 . S
C18 C5 1.684 . S
C18 H43 0.979 . S
C18 H44 0.980 . S
C18 H45 0.983 . S
C19 C20 1.391 . S
C19 C24 1.391 . S
C19 H49 0.948 . S
C20 C19 1.391 . S
C20 C21 1.391 . S
C21 C20 1.391 . S
C21 C22 1.392 . S
C21 H50 0.947 . S
C22 C21 1.392 . S
C22 C23 1.419 . S
C22 H51 0.948 . S
C23 C22 1.419 . S
C23 C24 1.391 . S
C23 C27 1.397 . S
C24 C19 1.391 . S
C24 C23 1.391 . S
C24 C25 1.399 . S
C25 C24 1.399 . S
C25 C26 1.396 . S
C25 C28 1.453 . S
C25 C29 1.684 . S
C26 C7 1.723 . S
C26 C25 1.396 . S
C26 C27 1.394 . S
C27 C23 1.397 . S
C27 C26 1.394 . S
C27 C37 1.723 . S
C28 C25 1.453 . S
C28 H52 0.982 . S
C28 H53 0.979 . S
C28 H54 0.977 . S
C29 C25 1.684 . S
C29 H55 0.979 . S
C29 H56 0.980 . S
C29 H57 0.983 . S
C30 H6 0.948 . S
C30 C31 1.391 . S
C30 C35 1.391 . S
C31 C30 1.391 . S
C31 C32 1.391 . S
C32 H9 0.947 . S
C32 C31 1.391 . S
C32 C33 1.392 . S
C33 H10 0.948 . S
C33 C32 1.392 . S
C33 C34 1.419 . S
C34 C33 1.419 . S
C34 C35 1.391 . S
C34 C38 1.397 . S
C35 C30 1.391 . S
C35 C34 1.391 . S
C35 C36 1.399 . S
C36 C35 1.399 . S
C36 C37 1.396 . S
C36 C39 1.453 . S
C36 C40 1.684 . S
C37 C27 1.723 . S
C37 C36 1.396 . S
C37 C38 1.394 . S
C38 C8 1.723 . S
C38 C34 1.397 . S
C38 C37 1.394 . S
C39 H11 0.982 . S
C39 H15 0.979 . S
C39 H16 0.977 . S
C39 C36 1.453 . S
C40 H12 0.979 . S
C40 H13 0.980 . S
C40 H14 0.983 . S
C40 C36 1.684 . S
H41 C59 0.948 . S
H42 C0 0.948 . S
H43 C18 0.979 . S
H44 C18 0.980 . S
H45 C18 0.983 . S
H46 C17 0.982 . S
H47 C17 0.979 . S
H48 C17 0.977 . S
H49 C19 0.948 . S
H50 C21 0.947 . S
H51 C22 0.948 . S
H52 C28 0.982 . S
H53 C28 0.979 . S
H54 C28 0.977 . S
H55 C29 0.979 . S
H56 C29 0.980 . S
H57 C29 0.983 . S
H58 C2 0.947 . S
C59 C2 1.392 . S
C59 C3 1.419 . S
C59 H41 0.948 . S
C60 C61 1.391 . S
C60 C64 1.391 . S
C60 H102 0.948 . S
C61 C60 1.391 . S
C61 C62 1.391 . S
C62 C61 1.391 . S
C62 H118 0.947 . S
C62 C119 1.392 . S
C63 C64 1.391 . S
C63 C67 1.397 . S
C63 C119 1.419 . S
C64 C60 1.391 . S
C64 C63 1.391 . S
C64 C65 1.399 . S
C65 C64 1.399 . S
C65 C68 1.396 . S
C65 C77 1.453 . S
C65 C78 1.684 . S
H66 C90 0.948 . S
C67 C63 1.397 . S
C67 C68 1.394 . S
C67 C86 1.723 . S
C68 C65 1.396 . S
C68 C67 1.394 . S
C68 C98 1.723 . S
H69 C92 0.947 . S
H70 C93 0.948 . S
H71 C99 0.982 . S
H72 C100 0.979 . S
H73 C100 0.980 . S
H74 C100 0.983 . S
H75 C99 0.979 . S
H76 C99 0.977 . S
C77 C65 1.453 . S
C77 H106 0.982 . S
C77 H107 0.979 . S
C77 H108 0.977 . S
C78 C65 1.684 . S
C78 H103 0.979 . S
C78 H104 0.980 . S
C78 H105 0.983 . S
C79 C80 1.391 . S
C79 C84 1.391 . S
C79 H109 0.948 . S
C80 C79 1.391 . S
C80 C81 1.391 . S
C81 C80 1.391 . S
C81 C82 1.392 . S
C81 H110 0.947 . S
C82 C81 1.392 . S
C82 C83 1.419 . S
C82 H111 0.948 . S
C83 C82 1.419 . S
C83 C84 1.391 . S
C83 C87 1.397 . S
C84 C79 1.391 . S
C84 C83 1.391 . S
C84 C85 1.399 . S
C85 C84 1.399 . S
C85 C86 1.396 . S
C85 C88 1.453 . S
C85 C89 1.684 . S
C86 C67 1.723 . S
C86 C85 1.396 . S
C86 C87 1.394 . S
C87 C83 1.397 . S
C87 C86 1.394 . S
C87 C97 1.723 . S
C88 C85 1.453 . S
C88 H112 0.982 . S
C88 H113 0.979 . S
C88 H114 0.977 . S
C89 C85 1.684 . S
C89 H115 0.979 . S
C89 H116 0.980 . S
C89 H117 0.983 . S
C90 H66 0.948 . S
C90 C91 1.391 . S
C90 C95 1.391 . S
C91 C90 1.391 . S
C91 C92 1.391 . S
C92 H69 0.947 . S
C92 C91 1.391 . S
C92 C93 1.392 . S
C93 H70 0.948 . S
C93 C92 1.392 . S
C93 C94 1.419 . S
C94 C93 1.419 . S
C94 C95 1.391 . S
C94 C98 1.397 . S
C95 C90 1.391 . S
C95 C94 1.391 . S
C95 C96 1.399 . S
C96 C95 1.399 . S
C96 C97 1.396 . S
C96 C99 1.453 . S
C96 C100 1.684 . S
C97 C87 1.723 . S
C97 C96 1.396 . S
C97 C98 1.394 . S
C98 C68 1.723 . S
C98 C94 1.397 . S
C98 C97 1.394 . S
C99 H71 0.982 . S
C99 H75 0.979 . S
C99 H76 0.977 . S
C99 C96 1.453 . S
C100 H72 0.979 . S
C100 H73 0.980 . S
C100 H74 0.983 . S
C100 C96 1.684 . S
H101 C119 0.948 . S
H102 C60 0.948 . S
H103 C78 0.979 . S
H104 C78 0.980 . S
H105 C78 0.983 . S
H106 C77 0.982 . S
H107 C77 0.979 . S
H108 C77 0.977 . S
H109 C79 0.948 . S
H110 C81 0.947 . S
H111 C82 0.948 . S
H112 C88 0.982 . S
H113 C88 0.979 . S
H114 C88 0.977 . S
H115 C89 0.979 . S
H116 C89 0.980 . S
H117 C89 0.983 . S
H118 C62 0.947 . S
C119 C62 1.392 . S
C119 C63 1.419 . S
C119 H101 0.948 . S
C120 C121 1.391 . S
C120 C124 1.391 . S
C120 H162 0.948 . S
C121 C120 1.391 . S
C121 C122 1.391 . S
C122 C121 1.391 . S
C122 H178 0.947 . S
C122 C179 1.392 . S
C123 C124 1.391 . S
C123 C127 1.397 . S
C123 C179 1.419 . S
C124 C120 1.391 . S
C124 C123 1.391 . S
C124 C125 1.399 . S
C125 C124 1.399 . S
C125 C128 1.396 . S
C125 C137 1.453 . S
C125 C138 1.684 . S
H126 C150 0.948 . S
C127 C123 1.397 . S
C127 C128 1.394 . S
C127 C146 1.723 . S
C128 C125 1.396 . S
C128 C127 1.394 . S
C128 C158 1.723 . S
H129 C152 0.947 . S
H130 C153 0.948 . S
H131 C159 0.982 . S
H132 C160 0.979 . S
H133 C160 0.980 . S
H134 C160 0.983 . S
H135 C159 0.979 . S
H136 C159 0.977 . S
C137 C125 1.453 . S
C137 H166 0.982 . S
C137 H167 0.979 . S
C137 H168 0.977 . S
C138 C125 1.684 . S
C138 H163 0.979 . S
C138 H164 0.980 . S
C138 H165 0.983 . S
C139 C140 1.391 . S
C139 C144 1.391 . S
C139 H169 0.948 . S
C140 C139 1.391 . S
C140 C141 1.391 . S
C141 C140 1.391 . S
C141 C142 1.392 . S
C141 H170 0.947 . S
C142 C141 1.392 . S
C142 C143 1.419 . S
C142 H171 0.948 . S
C143 C142 1.419 . S
C143 C144 1.391 . S
C143 C147 1.397 . S
C144 C139 1.391 . S
C144 C143 1.391 . S
C144 C145 1.399 . S
C145 C144 1.399 . S
C145 C146 1.396 . S
C145 C148 1.453 . S
C145 C149 1.684 . S
C146 C127 1.723 . S
C146 C145 1.396 . S
C146 C147 1.394 . S
C147 C143 1.397 . S
C147 C146 1.394 . S
C147 C157 1.723 . S
C148 C145 1.453 . S
C148 H172 0.982 . S
C148 H173 0.979 . S
C148 H174 0.977 . S
C149 C145 1.684 . S
C149 H175 0.979 . S
C149 H176 0.980 . S
C149 H177 0.983 . S
C150 H126 0.948 . S
C150 C151 1.391 . S
C150 C155 1.391 . S
C151 C150 1.391 . S
C151 C152 1.391 . S
C152 H129 0.947 . S
C152 C151 1.391 . S
C152 C153 1.392 . S
C153 H130 0.948 . S
C153 C152 1.392 . S
C153 C154 1.419 . S
C154 C153 1.419 . S
C154 C155 1.391 . S
C154 C158 1.397 . S
C155 C150 1.391 . S
C155 C154 1.391 . S
C155 C156 1.399 . S
C156 C155 1.399 . S
C156 C157 1.396 . S
C156 C159 1.453 . S
C156 C160 1.684 . S
C157 C147 1.723 . S
C157 C156 1.396 . S
C157 C158 1.394 . S
C158 C128 1.723 . S
C158 C154 1.397 . S
C158 C157 1.394 . S
C159 H131 0.982 . S
C159 H135 0.979 . S
C159 H136 0.977 . S
C159 C156 1.453 . S
C160 H132 0.979 . S
C160 H133 0.980 . S
C160 H134 0.983 . S
C160 C156 1.684 . S
H161 C179 0.948 . S
H162 C120 0.948 . S
H163 C138 0.979 . S
H164 C138 0.980 . S
H165 C138 0.983 . S
H166 C137 0.982 . S
H167 C137 0.979 . S
H168 C137 0.977 . S
H169 C139 0.948 . S
H170 C141 0.947 . S
H171 C142 0.948 . S
H172 C148 0.982 . S
H173 C148 0.979 . S
H174 C148 0.977 . S
H175 C149 0.979 . S
H176 C149 0.980 . S
H177 C149 0.983 . S
H178 C122 0.947 . S
C179 C122 1.392 . S
C179 C123 1.419 . S
C179 H161 0.948 . S
C180 C181 1.391 . S
C180 C184 1.391 . S
C180 H222 0.948 . S
C181 C180 1.391 . S
C181 C182 1.391 . S
C182 C181 1.391 . S
C182 H238 0.947 . S
C182 C239 1.392 . S
C183 C184 1.391 . S
C183 C187 1.397 . S
C183 C239 1.419 . S
C184 C180 1.391 . S
C184 C183 1.391 . S
C184 C185 1.399 . S
C185 C184 1.399 . S
C185 C188 1.396 . S
C185 C197 1.453 . S
C185 C198 1.684 . S
H186 C210 0.948 . S
C187 C183 1.397 . S
C187 C188 1.394 . S
C187 C206 1.723 . S
C188 C185 1.396 . S
C188 C187 1.394 . S
C188 C218 1.723 . S
H189 C212 0.947 . S
H190 C213 0.948 . S
H191 C219 0.982 . S
H192 C220 0.979 . S
H193 C220 0.980 . S
H194 C220 0.983 . S
H195 C219 0.979 . S
H196 C219 0.977 . S
C197 C185 1.453 . S
C197 H226 0.982 . S
C197 H227 0.979 . S
C197 H228 0.977 . S
C198 C185 1.684 . S
C198 H223 0.979 . S
C198 H224 0.980 . S
C198 H225 0.983 . S
C199 C200 1.391 . S
C199 C204 1.391 . S
C199 H229 0.948 . S
C200 C199 1.391 . S
C200 C201 1.391 . S
C201 C200 1.391 . S
C201 C202 1.392 . S
C201 H230 0.947 . S
C202 C201 1.392 . S
C202 C203 1.419 . S
C202 H231 0.948 . S
C203 C202 1.419 . S
C203 C204 1.391 . S
C203 C207 1.397 . S
C204 C199 1.391 . S
C204 C203 1.391 . S
C204 C205 1.399 . S
C205 C204 1.399 . S
C205 C206 1.396 . S
C205 C208 1.453 . S
C205 C209 1.684 . S
C206 C187 1.723 . S
C206 C205 1.396 . S
C206 C207 1.394 . S
C207 C203 1.397 . S
C207 C206 1.394 . S
C207 C217 1.723 . S
C208 C205 1.453 . S
C208 H232 0.982 . S
C208 H233 0.979 . S
C208 H234 0.977 . S
C209 C205 1.684 . S
C209 H235 0.979 . S
C209 H236 0.980 . S
C209 H237 0.983 . S
C210 H186 0.948 . S
C210 C211 1.391 . S
C210 C215 1.391 . S
C211 C210 1.391 . S
C211 C212 1.391 . S
C212 H189 0.947 . S
C212 C211 1.391 . S
C212 C213 1.392 . S
C213 H190 0.948 . S
C213 C212 1.392 . S
C213 C214 1.419 . S
C214 C213 1.419 . S
C214 C215 1.391 . S
C214 C218 1.397 . S
C215 C210 1.391 . S
C215 C214 1.391 . S
C215 C216 1.399 . S
C216 C215 1.399 . S
C216 C217 1.396 . S
C216 C219 1.453 . S
C216 C220 1.684 . S
C217 C207 1.723 . S
C217 C216 1.396 . S
C217 C218 1.394 . S
C218 C188 1.723 . S
C218 C214 1.397 . S
C218 C217 1.394 . S
C219 H191 0.982 . S
C219 H195 0.979 . S
C219 H196 0.977 . S
C219 C216 1.453 . S
C220 H192 0.979 . S
C220 H193 0.980 . S
C220 H194 0.983 . S
C220 C216 1.684 . S
H221 C239 0.948 . S
H222 C180 0.948 . S
H223 C198 0.979 . S
H224 C198 0.980 . S
H225 C198 0.983 . S
H226 C197 0.982 . S
H227 C197 0.979 . S
H228 C197 0.977 . S
H229 C199 0.948 . S
H230 C201 0.947 . S
H231 C202 0.948 . S
H232 C208 0.982 . S
H233 C208 0.979 . S
H234 C208 0.977 . S
H235 C209 0.979 . S
H236 C209 0.980 . S
H237 C209 0.983 . S
H238 C182 0.947 . S
C239 C182 1.392 . S
C239 C183 1.419 . S
C239 H221 0.948 . S
C240 C241 1.391 . S
C240 C244 1.391 . S
C240 H282 0.948 . S
C241 C240 1.391 . S
C241 C242 1.391 . S
C242 C241 1.391 . S
C242 H298 0.947 . S
C242 C299 1.392 . S
C243 C244 1.391 . S
C243 C247 1.397 . S
C243 C299 1.419 . S
C244 C240 1.391 . S
C244 C243 1.391 . S
C244 C245 1.399 . S
C245 C244 1.399 . S
C245 C248 1.396 . S
C245 C257 1.453 . S
C245 C258 1.684 . S
H246 C270 0.948 . S
C247 C243 1.397 . S
C247 C248 1.394 . S
C247 C266 1.723 . S
C248 C245 1.396 . S
C248 C247 1.394 . S
C248 C278 1.723 . S
H249 C272 0.947 . S
H250 C273 0.948 . S
H251 C279 0.982 . S
H252 C280 0.979 . S
H253 C280 0.980 . S
H254 C280 0.983 . S
H255 C279 0.979 . S
H256 C279 0.977 . S
C257 C245 1.453 . S
C257 H286 0.982 . S
C257 H287 0.979 . S
C257 H288 0.977 . S
C258 C245 1.684 . S
C258 H283 0.979 . S
C258 H284 0.980 . S
C258 H285 0.983 . S
C259 C260 1.391 . S
C259 C264 1.391 . S
C259 H289 0.948 . S
C260 C259 1.391 . S
C260 C261 1.391 . S
C261 C260 1.391 . S
C261 C262 1.392 . S
C261 H290 0.947 . S
C262 C261 1.392 . S
C262 C263 1.419 . S
C262 H291 0.948 . S
C263 C262 1.419 . S
C263 C264 1.391 . S
C263 C267 1.397 . S
C264 C259 1.391 . S
C264 C263 1.391 . S
C264 C265 1.399 . S
C265 C264 1.399 . S
C265 C266 1.396 . S
C265 C268 1.453 . S
C265 C269 1.684 . S
C266 C247 1.723 . S
C266 C265 1.396 . S
C266 C267 1.394 . S
C267 C263 1.397 . S
C267 C266 1.394 . S
C267 C277 1.723 . S
C268 C265 1.453 . S
C268 H292 0.982 . S
C268 H293 0.979 . S
C268 H294 0.977 . S
C269 C265 1.684 . S
C269 H295 0.979 . S
C269 H296 0.980 . S
C269 H297 0.983 . S
C270 H246 0.948 . S
C270 C271 1.391 . S
C270 C275 1.391 . S
C271 C270 1.391 . S
C271 C272 1.391 . S
C272 H249 0.947 . S
C272 C271 1.391 . S
C272 C273 1.392 . S
C273 H250 0.948 . S
C273 C272 1.392 . S
C273 C274 1.419 . S
C274 C273 1.419 . S
C274 C275 1.391 . S
C274 C278 1.397 . S
C275 C270 1.391 . S
C275 C274 1.391 . S
C275 C276 1.399 . S
C276 C275 1.399 . S
C276 C277 1.396 . S
C276 C279 1.453 . S
C276 C280 1.684 . S
C277 C267 1.723 . S
C277 C276 1.396 . S
C277 C278 1.394 . S
C278 C248 1.723 . S
C278 C274 1.397 . S
C278 C277 1.394 . S
C279 H251 0.982 . S
C279 H255 0.979 . S
C279 H256 0.977 . S
C279 C276 1.453 . S
C280 H252 0.979 . S
C280 H253 0.980 . S
C280 H254 0.983 . S
C280 C276 1.684 . S
H281 C299 0.948 . S
H282 C240 0.948 . S
H283 C258 0.979 . S
H284 C258 0.980 . S
H285 C258 0.983 . S
H286 C257 0.982 . S
H287 C257 0.979 . S
H288 C257 0.977 . S
H289 C259 0.948 . S
H290 C261 0.947 . S
H291 C262 0.948 . S
H292 C268 0.982 . S
H293 C268 0.979 . S
H294 C268 0.977 . S
H295 C269 0.979 . S
H296 C269 0.980 . S
H297 C269 0.983 . S
H298 C242 0.947 . S
C299 C242 1.392 . S
C299 C243 1.419 . S
C299 H281 0.948 . S
C300 C301 1.391 . S
C300 C304 1.391 . S
C300 H342 0.948 . S
C301 C300 1.391 . S
C301 C302 1.391 . S
C302 C301 1.391 . S
C302 H358 0.947 . S
C302 C359 1.392 . S
C303 C304 1.391 . S
C303 C307 1.397 . S
C303 C359 1.419 . S
C304 C300 1.391 . S
C304 C303 1.391 . S
C304 C305 1.399 . S
C305 C304 1.399 . S
C305 C308 1.396 . S
C305 C317 1.453 . S
C305 C318 1.684 . S
H306 C330 0.948 . S
C307 C303 1.397 . S
C307 C308 1.394 . S
C307 C326 1.723 . S
C308 C305 1.396 . S
C308 C307 1.394 . S
C308 C338 1.723 . S
H309 C332 0.947 . S
H310 C333 0.948 . S
H311 C339 0.982 . S
H312 C340 0.979 . S
H313 C340 0.980 . S
H314 C340 0.983 . S
H315 C339 0.979 . S
H316 C339 0.977 . S
C317 C305 1.453 . S
C317 H346 0.982 . S
C317 H347 0.979 . S
C317 H348 0.977 . S
C318 C305 1.684 . S
C318 H343 0.979 . S
C318 H344 0.980 . S
C318 H345 0.983 . S
C319 C320 1.391 . S
C319 C324 1.391 . S
C319 H349 0.948 . S
C320 C319 1.391 . S
C320 C321 1.391 . S
C321 C320 1.391 . S
C321 C322 1.392 . S
C321 H350 0.947 . S
C322 C321 1.392 . S
C322 C323 1.419 . S
C322 H351 0.948 . S
C323 C322 1.419 . S
C323 C324 1.391 . S
C323 C327 1.397 . S
C324 C319 1.391 . S
C324 C323 1.391 . S
C324 C325 1.399 . S
C325 C324 1.399 . S
C325 C326 1.396 . S
C325 C328 1.453 . S
C325 C329 1.684 . S
C326 C307 1.723 . S
C326 C325 1.396 . S
C326 C327 1.394 . S
C327 C323 1.397 . S
C327 C326 1.394 . S
C327 C337 1.723 . S
C328 C325 1.453 . S
C328 H352 0.982 . S
C328 H353 0.979 . S
C328 H354 0.977 . S
C329 C325 1.684 . S
C329 H355 0.979 . S
C329 H356 0.980 . S
C329 H357 0.983 . S
C330 H306 0.948 . S
C330 C331 1.391 . S
C330 C335 1.391 . S
C331 C330 1.391 . S
C331 C332 1.391 . S
C332 H309 0.947 . S
C332 C331 1.391 . S
C332 C333 1.392 . S
C333 H310 0.948 . S
C333 C332 1.392 . S
C333 C334 1.419 . S
C334 C333 1.419 . S
C334 C335 1.391 . S
C334 C338 1.397 . S
C335 C330 1.391 . S
C335 C334 1.391 . S
C335 C336 1.399 . S
C336 C335 1.399 . S
C336 C337 1.396 . S
C336 C339 1.453 . S
C336 C340 1.684 . S
C337 C327 1.723 . S
C337 C336 1.396 . S
C337 C338 1.394 . S
C338 C308 1.723 . S
C338 C334 1.397 . S
C338 C337 1.394 . S
C339 H311 0.982 . S
C339 H315 0.979 . S
C339 H316 0.977 . S
C339 C336 1.453 . S
C340 H312 0.979 . S
C340 H313 0.980 . S
C340 H314 0.983 . S
C340 C336 1.684 . S
H341 C359 0.948 . S
H342 C300 0.948 . S
H343 C318 0.979 . S
H344 C318 0.980 . S
H345 C318 0.983 . S
H346 C317 0.982 . S
H347 C317 0.979 . S
H348 C317 0.977 . S
H349 C319 0.948 . S
H350 C321 0.947 . S
H351 C322 0.948 . S
H352 C328 0.982 . S
H353 C328 0.979 . S
H354 C328 0.977 . S
H355 C329 0.979 . S
H356 C329 0.980 . S
H357 C329 0.983 . S
H358 C302 0.947 . S
C359 C302 1.392 . S
C359 C303 1.419 . S
C359 H341 0.948 . S
C360 C361 1.391 . S
C360 C364 1.391 . S
C360 H402 0.948 . S
C361 C360 1.391 . S
C361 C362 1.391 . S
C362 C361 1.391 . S
C362 H418 0.947 . S
C362 C419 1.392 . S
C363 C364 1.391 . S
C363 C367 1.397 . S
C363 C419 1.419 . S
C364 C360 1.391 . S
C364 C363 1.391 . S
C364 C365 1.399 . S
C365 C364 1.399 . S
C365 C368 1.396 . S
C365 C377 1.453 . S
C365 C378 1.684 . S
H366 C390 0.948 . S
C367 C363 1.397 . S
C367 C368 1.394 . S
C367 C386 1.723 . S
C368 C365 1.396 . S
C368 C367 1.394 . S
C368 C398 1.723 . S
H369 C392 0.947 . S
H370 C393 0.948 . S
H371 C399 0.982 . S
H372 C400 0.979 . S
H373 C400 0.980 . S
H374 C400 0.983 . S
H375 C399 0.979 . S
H376 C399 0.977 . S
C377 C365 1.453 . S
C377 H406 0.982 . S
C377 H407 0.979 . S
C377 H408 0.977 . S
C378 C365 1.684 . S
C378 H403 0.979 . S
C378 H404 0.980 . S
C378 H405 0.983 . S
C379 C380 1.391 . S
C379 C384 1.391 . S
C379 H409 0.948 . S
C380 C379 1.391 . S
C380 C381 1.391 . S
C381 C380 1.391 . S
C381 C382 1.392 . S
C381 H410 0.947 . S
C382 C381 1.392 . S
C382 C383 1.419 . S
C382 H411 0.948 . S
C383 C382 1.419 . S
C383 C384 1.391 . S
C383 C387 1.397 . S
C384 C379 1.391 . S
C384 C383 1.391 . S
C384 C385 1.399 . S
C385 C384 1.399 . S
C385 C386 1.396 . S
C385 C388 1.453 . S
C385 C389 1.684 . S
C386 C367 1.723 . S
C386 C385 1.396 . S
C386 C387 1.394 . S
C387 C383 1.397 . S
C387 C386 1.394 . S
C387 C397 1.723 . S
C388 C385 1.453 . S
C388 H412 0.982 . S
C388 H413 0.979 . S
C388 H414 0.977 . S
C389 C385 1.684 . S
C389 H415 0.979 . S
C389 H416 0.980 . S
C389 H417 0.983 . S
C390 H366 0.948 . S
C390 C391 1.391 . S
C390 C395 1.391 . S
C391 C390 1.391 . S
C391 C392 1.391 . S
C392 H369 0.947 . S
C392 C391 1.391 . S
C392 C393 1.392 . S
C393 H370 0.948 . S
C393 C392 1.392 . S
C393 C394 1.419 . S
C394 C393 1.419 . S
C394 C395 1.391 . S
C394 C398 1.397 . S
C395 C390 1.391 . S
C395 C394 1.391 . S
C395 C396 1.399 . S
C396 C395 1.399 . S
C396 C397 1.396 . S
C396 C399 1.453 . S
C396 C400 1.684 . S
C397 C387 1.723 . S
C397 C396 1.396 . S
C397 C398 1.394 . S
C398 C368 1.723 . S
C398 C394 1.397 . S
C398 C397 1.394 . S
C399 H371 0.982 . S
C399 H375 0.979 . S
C399 H376 0.977 . S
C399 C396 1.453 . S
C400 H372 0.979 . S
C400 H373 0.980 . S
C400 H374 0.983 . S
C400 C396 1.684 . S
H401 C419 0.948 . S
H402 C360 0.948 . S
H403 C378 0.979 . S
H404 C378 0.980 . S
H405 C378 0.983 . S
H406 C377 0.982 . S
H407 C377 0.979 . S
H408 C377 0.977 . S
H409 C379 0.948 . S
H410 C381 0.947 . S
H411 C382 0.948 . S
H412 C388 0.982 . S
H413 C388 0.979 . S
H414 C388 0.977 . S
H415 C389 0.979 . S
H416 C389 0.980 . S
H417 C389 0.983 . S
H418 C362 0.947 . S
C419 C362 1.392 . S
C419 C363 1.419 . S
C419 H401 0.948 . S
C420 C421 1.391 . S
C420 C424 1.391 . S
C420 H462 0.948 . S
C421 C420 1.391 . S
C421 C422 1.391 . S
C422 C421 1.391 . S
C422 H478 0.947 . S
C422 C479 1.392 . S
C423 C424 1.391 . S
C423 C427 1.397 . S
C423 C479 1.419 . S
C424 C420 1.391 . S
C424 C423 1.391 . S
C424 C425 1.399 . S
C425 C424 1.399 . S
C425 C428 1.396 . S
C425 C437 1.453 . S
C425 C438 1.684 . S
H426 C450 0.948 . S
C427 C423 1.397 . S
C427 C428 1.394 . S
C427 C446 1.723 . S
C428 C425 1.396 . S
C428 C427 1.394 . S
C428 C458 1.723 . S
H429 C452 0.947 . S
H430 C453 0.948 . S
H431 C459 0.982 . S
H432 C460 0.979 . S
H433 C460 0.980 . S
H434 C460 0.983 . S
H435 C459 0.979 . S
H436 C459 0.977 . S
C437 C425 1.453 . S
C437 H466 0.982 . S
C437 H467 0.979 . S
C437 H468 0.977 . S
C438 C425 1.684 . S
C438 H463 0.979 . S
C438 H464 0.980 . S
C438 H465 0.983 . S
C439 C440 1.391 . S
C439 C444 1.391 . S
C439 H469 0.948 . S
C440 C439 1.391 . S
C440 C441 1.391 . S
C441 C440 1.391 . S
C441 C442 1.392 . S
C441 H470 0.947 . S
C442 C441 1.392 . S
C442 C443 1.419 . S
C442 H471 0.948 . S
C443 C442 1.419 . S
C443 C444 1.391 . S
C443 C447 1.397 . S
C444 C439 1.391 . S
C444 C443 1.391 . S
C444 C445 1.399 . S
C445 C444 1.399 . S
C445 C446 1.396 . S
C445 C448 1.453 . S
C445 C449 1.684 . S
C446 C427 1.723 . S
C446 C445 1.396 . S
C446 C447 1.394 . S
C447 C443 1.397 . S
C447 C446 1.394 . S
C447 C457 1.723 . S
C448 C445 1.453 . S
C448 H472 0.982 . S
C448 H473 0.979 . S
C448 H474 0.977 . S
C449 C445 1.684 . S
C449 H475 0.979 . S
C449 H476 0.980 . S
C449 H477 0.983 . S
C450 H426 0.948 . S
C450 C451 1.391 . S
C450 C455 1.391 . S
C451 C450 1.391 . S
C451 C452 1.391 . S
C452 H429 0.947 . S
C452 C451 1.391 . S
C452 C453 1.392 . S
C453 H430 0.948 . S
C453 C452 1.392 . S
C453 C454 1.419 . S
C454 C453 1.419 . S
C454 C455 1.391 . S
C454 C458 1.397 . S
C455 C450 1.391 . S
C455 C454 1.391 . S
C455 C456 1.399 . S
C456 C455 1.399 . S
C456 C457 1.396 . S
C456 C459 1.453 . S
C456 C460 1.684 . S
C457 C447 1.723 . S
C457 C456 1.396 . S
C457 C458 1.394 . S
C458 C428 1.723 . S
C458 C454 1.397 . S
C458 C457 1.394 . S
C459 H431 0.982 . S
C459 H435 0.979 . S
C459 H436 0.977 . S
C459 C456 1.453 . S
C460 H432 0.979 . S
C460 H433 0.980 . S
C460 H434 0.983 . S
C460 C456 1.684 . S
H461 C479 0.948 . S
H462 C420 0.948 . S
H463 C438 0.979 . S
H464 C438 0.980 . S
H465 C438 0.983 . S
H466 C437 0.982 . S
H467 C437 0.979 . S
H468 C437 0.977 . S
H469 C439 0.948 . S
H470 C441 0.947 . S
H471 C442 0.948 . S
H472 C448 0.982 . S
H473 C448 0.979 . S
H474 C448 0.977 . S
H475 C449 0.979 . S
H476 C449 0.980 . S
H477 C449 0.983 . S
H478 C422 0.947 . S
C479 C422 1.392 . S
C479 C423 1.419 . S
C479 H461 0.948 . S
Tb480 C489 2.764 . S
Tb480 O490 2.325 1_455 S
Tb480 O493 2.303 . S
Tb480 O497 2.322 1_545 S
Tb480 O498 2.349 1_545 S
Tb480 O501 2.415 . S
Tb480 O502 2.399 . S
Tb481 O491 2.322 1_565 S
Tb481 O492 2.349 1_565 S
Tb481 O494 2.415 . S
Tb481 O495 2.399 . S
Tb481 O496 2.325 1_655 S
Tb481 O499 2.303 . S
Tb481 C510 2.764 . S
C482 O498 1.261 1_655 S
C482 O499 1.257 . S
C483 C486 1.358 . S
C483 C487 1.332 . S
C483 C489 1.504 . S
C484 C485 1.373 . S
C484 C488 1.308 . S
C485 C484 1.373 . S
C485 C486 1.429 . S
C485 H512 0.932 . S
C486 C483 1.358 . S
C486 C485 1.429 . S
C486 H513 0.930 . S
C487 C483 1.332 . S
C487 C488 1.394 . S
C487 H514 0.932 . S
C488 C484 1.308 . S
C488 C487 1.394 . S
C488 H515 0.929 . S
C489 Tb480 2.764 . S
C489 C483 1.504 . S
C489 O501 1.239 . S
C489 O502 1.263 . S
O490 Tb480 2.325 1_655 S
O490 C500 1.236 . S
O491 Tb481 2.322 1_545 S
O491 C500 1.257 . S
O492 Tb481 2.349 1_545 S
O492 C503 1.261 1_655 S
O493 Tb480 2.303 . S
O493 C503 1.257 . S
O494 Tb481 2.415 . S
O494 C510 1.239 . S
O495 Tb481 2.399 . S
O495 C510 1.263 . S
O496 Tb481 2.325 1_455 S
O496 C511 1.236 . S
O497 Tb480 2.322 1_565 S
O497 C511 1.257 . S
O498 Tb480 2.349 1_565 S
O498 C482 1.261 1_455 S
O499 Tb481 2.303 . S
O499 C482 1.257 . S
C500 O490 1.236 . S
C500 O491 1.257 . S
O501 Tb480 2.415 . S
O501 C489 1.239 . S
O502 Tb480 2.399 . S
O502 C489 1.263 . S
C503 O492 1.261 1_455 S
C503 O493 1.257 . S
C504 C507 1.358 . S
C504 C508 1.332 . S
C504 C510 1.504 . S
C505 C506 1.373 . S
C505 C509 1.308 . S
C506 C505 1.373 . S
C506 C507 1.429 . S
C506 H516 0.932 . S
C507 C504 1.358 . S
C507 C506 1.429 . S
C507 H517 0.930 . S
C508 C504 1.332 . S
C508 C509 1.394 . S
C508 H518 0.932 . S
C509 C505 1.308 . S
C509 C508 1.394 . S
C509 H519 0.929 . S
C510 Tb481 2.764 . S
C510 O494 1.239 . S
C510 O495 1.263 . S
C510 C504 1.504 . S
C511 O496 1.236 . S
C511 O497 1.257 . S
H512 C485 0.932 . S
H513 C486 0.930 . S
H514 C487 0.932 . S
H515 C488 0.929 . S
H516 C506 0.932 . S
H517 C507 0.930 . S
H518 C508 0.932 . S
H519 C509 0.929 . S
Tb520 C529 2.764 . S
Tb520 O530 2.325 1_554 S
Tb520 O533 2.303 . S
Tb520 O537 2.322 1_545 S
Tb520 O538 2.349 1_544 S
Tb520 O541 2.415 . S
Tb520 O542 2.399 . S
Tb521 O531 2.322 1_565 S
Tb521 O532 2.349 1_566 S
Tb521 O534 2.415 . S
Tb521 O535 2.399 . S
Tb521 O536 2.325 1_556 S
Tb521 O539 2.303 . S
Tb521 C550 2.764 . S
C522 O538 1.261 . S
C522 O539 1.257 . S
C523 C526 1.358 . S
C523 C527 1.332 . S
C523 C529 1.504 . S
C524 C525 1.373 . S
C524 C528 1.308 . S
C525 C524 1.373 . S
C525 C526 1.429 . S
C525 H552 0.932 . S
C526 C523 1.358 . S
C526 C525 1.429 . S
C526 H553 0.930 . S
C527 C523 1.332 . S
C527 C528 1.394 . S
C527 H554 0.932 . S
C528 C524 1.308 . S
C528 C527 1.394 . S
C528 H555 0.929 . S
C529 Tb520 2.764 . S
C529 C523 1.504 . S
C529 O541 1.239 . S
C529 O542 1.263 . S
O530 Tb520 2.325 1_556 S
O530 C540 1.236 . S
O531 Tb521 2.322 1_545 S
O531 C540 1.257 . S
O532 Tb521 2.349 1_544 S
O532 C543 1.261 . S
O533 Tb520 2.303 . S
O533 C543 1.257 . S
O534 Tb521 2.415 . S
O534 C550 1.239 . S
O535 Tb521 2.399 . S
O535 C550 1.263 . S
O536 Tb521 2.325 1_554 S
O536 C551 1.236 . S
O537 Tb520 2.322 1_565 S
O537 C551 1.257 . S
O538 Tb520 2.349 1_566 S
O538 C522 1.261 . S
O539 Tb521 2.303 . S
O539 C522 1.257 . S
C540 O530 1.236 . S
C540 O531 1.257 . S
O541 Tb520 2.415 . S
O541 C529 1.239 . S
O542 Tb520 2.399 . S
O542 C529 1.263 . S
C543 O532 1.261 . S
C543 O533 1.257 . S
C544 C547 1.358 . S
C544 C548 1.332 . S
C544 C550 1.504 . S
C545 C546 1.373 . S
C545 C549 1.308 . S
C546 C545 1.373 . S
C546 C547 1.429 . S
C546 H556 0.932 . S
C547 C544 1.358 . S
C547 C546 1.429 . S
C547 H557 0.930 . S
C548 C544 1.332 . S
C548 C549 1.394 . S
C548 H558 0.932 . S
C549 C545 1.308 . S
C549 C548 1.394 . S
C549 H559 0.929 . S
C550 Tb521 2.764 . S
C550 O534 1.239 . S
C550 O535 1.263 . S
C550 C544 1.504 . S
C551 O536 1.236 . S
C551 O537 1.257 . S
H552 C525 0.932 . S
H553 C526 0.930 . S
H554 C527 0.932 . S
H555 C528 0.929 . S
H556 C546 0.932 . S
H557 C547 0.930 . S
H558 C548 0.932 . S
H559 C549 0.929 . S
Tb560 C569 2.764 . S
Tb560 O570 2.325 . S
Tb560 O573 2.303 . S
Tb560 O577 2.322 . S
Tb560 O578 2.349 . S
Tb560 O581 2.415 . S
Tb560 O582 2.399 . S
Tb561 O571 2.322 . S
Tb561 O572 2.349 . S
Tb561 O574 2.415 . S
Tb561 O575 2.399 . S
Tb561 O576 2.325 . S
Tb561 O579 2.303 . S
Tb561 C590 2.764 . S
C562 O578 1.261 . S
C562 O579 1.257 . S
C563 C566 1.358 . S
C563 C567 1.332 . S
C563 C569 1.504 . S
C564 C565 1.373 . S
C564 C568 1.308 . S
C565 C564 1.373 . S
C565 C566 1.429 . S
C565 H592 0.932 . S
C566 C563 1.358 . S
C566 C565 1.429 . S
C566 H593 0.930 . S
C567 C563 1.332 . S
C567 C568 1.394 . S
C567 H594 0.932 . S
C568 C564 1.308 . S
C568 C567 1.394 . S
C568 H595 0.929 . S
C569 Tb560 2.764 . S
C569 C563 1.504 . S
C569 O581 1.239 . S
C569 O582 1.263 . S
O570 Tb560 2.325 . S
O570 C580 1.236 . S
O571 Tb561 2.322 . S
O571 C580 1.257 . S
O572 Tb561 2.349 . S
O572 C583 1.261 . S
O573 Tb560 2.303 . S
O573 C583 1.257 . S
O574 Tb561 2.415 . S
O574 C590 1.239 . S
O575 Tb561 2.399 . S
O575 C590 1.263 . S
O576 Tb561 2.325 . S
O576 C591 1.236 . S
O577 Tb560 2.322 . S
O577 C591 1.257 . S
O578 Tb560 2.349 . S
O578 C562 1.261 . S
O579 Tb561 2.303 . S
O579 C562 1.257 . S
C580 O570 1.236 . S
C580 O571 1.257 . S
O581 Tb560 2.415 . S
O581 C569 1.239 . S
O582 Tb560 2.399 . S
O582 C569 1.263 . S
C583 O572 1.261 . S
C583 O573 1.257 . S
C584 C587 1.358 . S
C584 C588 1.332 . S
C584 C590 1.504 . S
C585 C586 1.373 . S
C585 C589 1.308 . S
C586 C585 1.373 . S
C586 C587 1.429 . S
C586 H596 0.932 . S
C587 C584 1.358 . S
C587 C586 1.429 . S
C587 H597 0.930 . S
C588 C584 1.332 . S
C588 C589 1.394 . S
C588 H598 0.932 . S
C589 C585 1.308 . S
C589 C588 1.394 . S
C589 H599 0.929 . S
C590 Tb561 2.764 . S
C590 O574 1.239 . S
C590 O575 1.263 . S
C590 C584 1.504 . S
C591 O576 1.236 . S
C591 O577 1.257 . S
H592 C565 0.932 . S
H593 C566 0.930 . S
H594 C567 0.932 . S
H595 C568 0.929 . S
H596 C586 0.932 . S
H597 C587 0.930 . S
H598 C588 0.932 . S
H599 C589 0.929 . S
Tb600 C609 2.764 . S
Tb600 O610 2.325 . S
Tb600 O613 2.303 1_556 S
Tb600 O617 2.335 1_655 S
Tb600 O618 2.349 1_655 S
Tb600 O621 2.415 . S
Tb600 O622 2.399 . S
Tb601 O611 2.339 1_455 S
Tb601 O612 2.349 1_455 S
Tb601 O614 2.415 . S
Tb601 O615 2.399 . S
Tb601 O616 2.325 . S
Tb601 O619 2.303 1_554 S
Tb601 C630 2.764 . S
C602 O618 1.261 . S
C602 O619 1.257 . S
C603 C606 1.358 . S
C603 C607 1.332 . S
C603 C609 1.504 . S
C604 C605 1.373 . S
C604 C608 1.308 . S
C605 C604 1.373 . S
C605 C606 1.429 . S
C605 H632 0.932 . S
C606 C603 1.358 . S
C606 C605 1.429 . S
C606 H633 0.930 . S
C607 C603 1.332 . S
C607 C608 1.394 . S
C607 H634 0.932 . S
C608 C604 1.308 . S
C608 C607 1.394 . S
C608 H635 0.929 . S
C609 Tb600 2.764 . S
C609 C603 1.504 . S
C609 O621 1.239 . S
C609 O622 1.263 . S
O610 Tb600 2.325 . S
O610 C620 1.236 . S
O611 Tb601 2.339 1_655 S
O611 C620 1.232 1_554 S
O612 Tb601 2.349 1_655 S
O612 C623 1.261 . S
O613 Tb600 2.303 1_554 S
O613 C623 1.257 . S
O614 Tb601 2.415 . S
O614 C630 1.239 . S
O615 Tb601 2.399 . S
O615 C630 1.263 . S
O616 Tb601 2.325 . S
O616 C631 1.236 . S
O617 Tb600 2.335 1_455 S
O617 C631 1.238 1_556 S
O618 Tb600 2.349 1_455 S
O618 C602 1.261 . S
O619 Tb601 2.303 1_556 S
O619 C602 1.257 . S
C620 O610 1.236 . S
C620 O611 1.232 1_556 S
O621 Tb600 2.415 . S
O621 C609 1.239 . S
O622 Tb600 2.399 . S
O622 C609 1.263 . S
C623 O612 1.261 . S
C623 O613 1.257 . S
C624 C627 1.358 . S
C624 C628 1.332 . S
C624 C630 1.504 . S
C625 C626 1.373 . S
C625 C629 1.308 . S
C626 C625 1.373 . S
C626 C627 1.429 . S
C626 H636 0.932 . S
C627 C624 1.358 . S
C627 C626 1.429 . S
C627 H637 0.930 . S
C628 C624 1.332 . S
C628 C629 1.394 . S
C628 H638 0.932 . S
C629 C625 1.308 . S
C629 C628 1.394 . S
C629 H639 0.929 . S
C630 Tb601 2.764 . S
C630 O614 1.239 . S
C630 O615 1.263 . S
C630 C624 1.504 . S
C631 O616 1.236 . S
C631 O617 1.238 1_554 S
H632 C605 0.932 . S
H633 C606 0.930 . S
H634 C607 0.932 . S
H635 C608 0.929 . S
H636 C626 0.932 . S
H637 C627 0.930 . S
H638 C628 0.932 . S
H639 C629 0.929 . S
H640 C646 0.930 . S
H641 C649 0.930 . S
H642 C650 0.930 . S
H643 C651 0.930 . S
H644 C654 0.930 . S
H645 C655 0.930 . S
C646 H640 0.930 . S
C646 C647 1.355 . S
C646 C648 1.415 . S
C647 C646 1.355 . S
C647 C649 1.419 . S
C648 C646 1.415 . S
C648 C653 1.425 . S
C648 C655 1.409 . S
C649 H641 0.930 . S
C649 C647 1.419 . S
C649 C650 1.362 . S
C650 H642 0.930 . S
C650 C649 1.362 . S
C650 C653 1.409 . S
C651 H643 0.930 . S
C651 C652 1.355 . S
C651 C653 1.415 . S
C652 C651 1.355 . S
C652 C654 1.419 . S
C653 C648 1.425 . S
C653 C650 1.409 . S
C653 C651 1.415 . S
C654 H644 0.930 . S
C654 C652 1.419 . S
C654 C655 1.362 . S
C655 H645 0.930 . S
C655 C648 1.409 . S
C655 C654 1.362 . S
H656 C662 0.930 . S
H657 C665 0.930 . S
H658 C666 0.930 . S
H659 C667 0.930 . S
H660 C670 0.930 . S
H661 C671 0.930 . S
C662 H656 0.930 . S
C662 C663 1.355 . S
C662 C664 1.415 . S
C663 C662 1.355 . S
C663 C665 1.419 . S
C664 C662 1.415 . S
C664 C669 1.425 . S
C664 C671 1.409 . S
C665 H657 0.930 . S
C665 C663 1.419 . S
C665 C666 1.362 . S
C666 H658 0.930 . S
C666 C665 1.362 . S
C666 C669 1.409 . S
C667 H659 0.930 . S
C667 C668 1.355 . S
C667 C669 1.415 . S
C668 C667 1.355 . S
C668 C670 1.419 . S
C669 C664 1.425 . S
C669 C666 1.409 . S
C669 C667 1.415 . S
C670 H660 0.930 . S
C670 C668 1.419 . S
C670 C671 1.362 . S
C671 H661 0.930 . S
C671 C664 1.409 . S
C671 C670 1.362 . S
H672 C678 0.930 . S
H673 C681 0.930 . S
H674 C682 0.930 . S
H675 C683 0.930 . S
H676 C686 0.930 . S
H677 C687 0.930 . S
C678 H672 0.930 . S
C678 C679 1.355 . S
C678 C680 1.415 . S
C679 C678 1.355 . S
C679 C681 1.419 . S
C680 C678 1.415 . S
C680 C685 1.425 . S
C680 C687 1.409 . S
C681 H673 0.930 . S
C681 C679 1.419 . S
C681 C682 1.362 . S
C682 H674 0.930 . S
C682 C681 1.362 . S
C682 C685 1.409 . S
C683 H675 0.930 . S
C683 C684 1.355 . S
C683 C685 1.415 . S
C684 C683 1.355 . S
C684 C686 1.419 . S
C685 C680 1.425 . S
C685 C682 1.409 . S
C685 C683 1.415 . S
C686 H676 0.930 . S
C686 C684 1.419 . S
C686 C687 1.362 . S
C687 H677 0.930 . S
C687 C680 1.409 . S
C687 C686 1.362 . S
H688 C694 0.930 . S
H689 C697 0.930 . S
H690 C698 0.930 . S
H691 C699 0.930 . S
H692 C702 0.930 . S
H693 C703 0.930 . S
C694 H688 0.930 . S
C694 C695 1.355 . S
C694 C696 1.415 . S
C695 C694 1.355 . S
C695 C697 1.419 . S
C696 C694 1.415 . S
C696 C701 1.425 . S
C696 C703 1.409 . S
C697 H689 0.930 . S
C697 C695 1.419 . S
C697 C698 1.362 . S
C698 H690 0.930 . S
C698 C697 1.362 . S
C698 C701 1.409 . S
C699 H691 0.930 . S
C699 C700 1.355 . S
C699 C701 1.415 . S
C700 C699 1.355 . S
C700 C702 1.419 . S
C701 C696 1.425 . S
C701 C698 1.409 . S
C701 C699 1.415 . S
C702 H692 0.930 . S
C702 C700 1.419 . S
C702 C703 1.362 . S
C703 H693 0.930 . S
C703 C696 1.409 . S
C703 C702 1.362 . S
H704 C710 0.930 . S
H705 C713 0.930 . S
H706 C714 0.930 . S
H707 C715 0.930 . S
H708 C718 0.930 . S
H709 C719 0.930 . S
C710 H704 0.930 . S
C710 C711 1.355 . S
C710 C712 1.415 . S
C711 C710 1.355 . S
C711 C713 1.419 . S
C712 C710 1.415 . S
C712 C717 1.425 . S
C712 C719 1.409 . S
C713 H705 0.930 . S
C713 C711 1.419 . S
C713 C714 1.362 . S
C714 H706 0.930 . S
C714 C713 1.362 . S
C714 C717 1.409 . S
C715 H707 0.930 . S
C715 C716 1.355 . S
C715 C717 1.415 . S
C716 C715 1.355 . S
C716 C718 1.419 . S
C717 C712 1.425 . S
C717 C714 1.409 . S
C717 C715 1.415 . S
C718 H708 0.930 . S
C718 C716 1.419 . S
C718 C719 1.362 . S
C719 H709 0.930 . S
C719 C712 1.409 . S
C719 C718 1.362 . S
H720 C726 0.930 . S
H721 C729 0.930 . S
H722 C730 0.930 . S
H723 C731 0.930 . S
H724 C734 0.930 . S
H725 C735 0.930 . S
C726 H720 0.930 . S
C726 C727 1.355 . S
C726 C728 1.415 . S
C727 C726 1.355 . S
C727 C729 1.419 . S
C728 C726 1.415 . S
C728 C733 1.425 . S
C728 C735 1.409 . S
C729 H721 0.930 . S
C729 C727 1.419 . S
C729 C730 1.362 . S
C730 H722 0.930 . S
C730 C729 1.362 . S
C730 C733 1.409 . S
C731 H723 0.930 . S
C731 C732 1.355 . S
C731 C733 1.415 . S
C732 C731 1.355 . S
C732 C734 1.419 . S
C733 C728 1.425 . S
C733 C730 1.409 . S
C733 C731 1.415 . S
C734 H724 0.930 . S
C734 C732 1.419 . S
C734 C735 1.362 . S
C735 H725 0.930 . S
C735 C728 1.409 . S
C735 C734 1.362 . S
H736 C742 0.930 . S
H737 C745 0.930 . S
H738 C746 0.930 . S
H739 C747 0.930 . S
H740 C750 0.930 . S
H741 C751 0.930 . S
C742 H736 0.930 . S
C742 C743 1.355 . S
C742 C744 1.415 . S
C743 C742 1.355 . S
C743 C745 1.419 . S
C744 C742 1.415 . S
C744 C749 1.425 . S
C744 C751 1.409 . S
C745 H737 0.930 . S
C745 C743 1.419 . S
C745 C746 1.362 . S
C746 H738 0.930 . S
C746 C745 1.362 . S
C746 C749 1.409 . S
C747 H739 0.930 . S
C747 C748 1.355 . S
C747 C749 1.415 . S
C748 C747 1.355 . S
C748 C750 1.419 . S
C749 C744 1.425 . S
C749 C746 1.409 . S
C749 C747 1.415 . S
C750 H740 0.930 . S
C750 C748 1.419 . S
C750 C751 1.362 . S
C751 H741 0.930 . S
C751 C744 1.409 . S
C751 C750 1.362 . S
H752 C758 0.930 . S
H753 C761 0.930 . S
H754 C762 0.930 . S
H755 C763 0.930 . S
H756 C766 0.930 . S
H757 C767 0.930 . S
C758 H752 0.930 . S
C758 C759 1.355 . S
C758 C760 1.415 . S
C759 C758 1.355 . S
C759 C761 1.419 . S
C760 C758 1.415 . S
C760 C765 1.425 . S
C760 C767 1.409 . S
C761 H753 0.930 . S
C761 C759 1.419 . S
C761 C762 1.362 . S
C762 H754 0.930 . S
C762 C761 1.362 . S
C762 C765 1.409 . S
C763 H755 0.930 . S
C763 C764 1.355 . S
C763 C765 1.415 . S
C764 C763 1.355 . S
C764 C766 1.419 . S
C765 C760 1.425 . S
C765 C762 1.409 . S
C765 C763 1.415 . S
C766 H756 0.930 . S
C766 C764 1.419 . S
C766 C767 1.362 . S
C767 H757 0.930 . S
C767 C760 1.409 . S
C767 C766 1.362 . S
H768 C774 0.930 . S
H769 C777 0.930 . S
H770 C778 0.930 . S
H771 C779 0.930 . S
H772 C782 0.930 . S
H773 C783 0.930 . S
C774 H768 0.930 . S
C774 C775 1.355 . S
C774 C776 1.415 . S
C775 C774 1.355 . S
C775 C777 1.419 . S
C776 C774 1.415 . S
C776 C781 1.425 . S
C776 C783 1.409 . S
C777 H769 0.930 . S
C777 C775 1.419 . S
C777 C778 1.362 . S
C778 H770 0.930 . S
C778 C777 1.362 . S
C778 C781 1.409 . S
C779 H771 0.930 . S
C779 C780 1.355 . S
C779 C781 1.415 . S
C780 C779 1.355 . S
C780 C782 1.419 . S
C781 C776 1.425 . S
C781 C778 1.409 . S
C781 C779 1.415 . S
C782 H772 0.930 . S
C782 C780 1.419 . S
C782 C783 1.362 . S
C783 H773 0.930 . S
C783 C776 1.409 . S
C783 C782 1.362 . S
H784 C790 0.930 . S
H785 C793 0.930 . S
H786 C794 0.930 . S
H787 C795 0.930 . S
H788 C798 0.930 . S
H789 C799 0.930 . S
C790 H784 0.930 . S
C790 C791 1.355 . S
C790 C792 1.415 . S
C791 C790 1.355 . S
C791 C793 1.419 . S
C792 C790 1.415 . S
C792 C797 1.425 . S
C792 C799 1.409 . S
C793 H785 0.930 . S
C793 C791 1.419 . S
C793 C794 1.362 . S
C794 H786 0.930 . S
C794 C793 1.362 . S
C794 C797 1.409 . S
C795 H787 0.930 . S
C795 C796 1.355 . S
C795 C797 1.415 . S
C796 C795 1.355 . S
C796 C798 1.419 . S
C797 C792 1.425 . S
C797 C794 1.409 . S
C797 C795 1.415 . S
C798 H788 0.930 . S
C798 C796 1.419 . S
C798 C799 1.362 . S
C799 H789 0.930 . S
C799 C792 1.409 . S
C799 C798 1.362 . S
H800 C806 0.930 . S
H801 C809 0.930 . S
H802 C810 0.930 . S
H803 C811 0.930 . S
H804 C814 0.930 . S
H805 C815 0.930 . S
C806 H800 0.930 . S
C806 C807 1.355 . S
C806 C808 1.415 . S
C807 C806 1.355 . S
C807 C809 1.419 . S
C808 C806 1.415 . S
C808 C813 1.425 . S
C808 C815 1.409 . S
C809 H801 0.930 . S
C809 C807 1.419 . S
C809 C810 1.362 . S
C810 H802 0.930 . S
C810 C809 1.362 . S
C810 C813 1.409 . S
C811 H803 0.930 . S
C811 C812 1.355 . S
C811 C813 1.415 . S
C812 C811 1.355 . S
C812 C814 1.419 . S
C813 C808 1.425 . S
C813 C810 1.409 . S
C813 C811 1.415 . S
C814 H804 0.930 . S
C814 C812 1.419 . S
C814 C815 1.362 . S
C815 H805 0.930 . S
C815 C808 1.409 . S
C815 C814 1.362 . S
H816 C822 0.930 . S
H817 C825 0.930 . S
H818 C826 0.930 . S
H819 C827 0.930 . S
H820 C830 0.930 . S
H821 C831 0.930 . S
C822 H816 0.930 . S
C822 C823 1.355 . S
C822 C824 1.415 . S
C823 C822 1.355 . S
C823 C825 1.419 . S
C824 C822 1.415 . S
C824 C829 1.425 . S
C824 C831 1.409 . S
C825 H817 0.930 . S
C825 C823 1.419 . S
C825 C826 1.362 . S
C826 H818 0.930 . S
C826 C825 1.362 . S
C826 C829 1.409 . S
C827 H819 0.930 . S
C827 C828 1.355 . S
C827 C829 1.415 . S
C828 C827 1.355 . S
C828 C830 1.419 . S
C829 C824 1.425 . S
C829 C826 1.409 . S
C829 C827 1.415 . S
C830 H820 0.930 . S
C830 C828 1.419 . S
C830 C831 1.362 . S
C831 H821 0.930 . S
C831 C824 1.409 . S
C831 C830 1.362 . S
H832 C838 0.930 . S
H833 C841 0.930 . S
H834 C842 0.930 . S
H835 C843 0.930 . S
H836 C846 0.930 . S
H837 C847 0.930 . S
C838 H832 0.930 . S
C838 C839 1.355 . S
C838 C840 1.415 . S
C839 C838 1.355 . S
C839 C841 1.419 . S
C840 C838 1.415 . S
C840 C845 1.425 . S
C840 C847 1.409 . S
C841 H833 0.930 . S
C841 C839 1.419 . S
C841 C842 1.362 . S
C842 H834 0.930 . S
C842 C841 1.362 . S
C842 C845 1.409 . S
C843 H835 0.930 . S
C843 C844 1.355 . S
C843 C845 1.415 . S
C844 C843 1.355 . S
C844 C846 1.419 . S
C845 C840 1.425 . S
C845 C842 1.409 . S
C845 C843 1.415 . S
C846 H836 0.930 . S
C846 C844 1.419 . S
C846 C847 1.362 . S
C847 H837 0.930 . S
C847 C840 1.409 . S
C847 C846 1.362 . S
H848 C854 0.930 . S
H849 C857 0.930 . S
H850 C858 0.930 . S
H851 C859 0.930 . S
H852 C862 0.930 . S
H853 C863 0.930 . S
C854 H848 0.930 . S
C854 C855 1.355 . S
C854 C856 1.415 . S
C855 C854 1.355 . S
C855 C857 1.419 . S
C856 C854 1.415 . S
C856 C861 1.425 . S
C856 C863 1.409 . S
C857 H849 0.930 . S
C857 C855 1.419 . S
C857 C858 1.362 . S
C858 H850 0.930 . S
C858 C857 1.362 . S
C858 C861 1.409 . S
C859 H851 0.930 . S
C859 C860 1.355 . S
C859 C861 1.415 . S
C860 C859 1.355 . S
C860 C862 1.419 . S
C861 C856 1.425 . S
C861 C858 1.409 . S
C861 C859 1.415 . S
C862 H852 0.930 . S
C862 C860 1.419 . S
C862 C863 1.362 . S
C863 H853 0.930 . S
C863 C856 1.409 . S
C863 C862 1.362 . S
H864 C870 0.930 . S
H865 C873 0.930 . S
H866 C874 0.930 . S
H867 C875 0.930 . S
H868 C878 0.930 . S
H869 C879 0.930 . S
C870 H864 0.930 . S
C870 C871 1.355 . S
C870 C872 1.415 . S
C871 C870 1.355 . S
C871 C873 1.419 . S
C872 C870 1.415 . S
C872 C877 1.425 . S
C872 C879 1.409 . S
C873 H865 0.930 . S
C873 C871 1.419 . S
C873 C874 1.362 . S
C874 H866 0.930 . S
C874 C873 1.362 . S
C874 C877 1.409 . S
C875 H867 0.930 . S
C875 C876 1.355 . S
C875 C877 1.415 . S
C876 C875 1.355 . S
C876 C878 1.419 . S
C877 C872 1.425 . S
C877 C874 1.409 . S
C877 C875 1.415 . S
C878 H868 0.930 . S
C878 C876 1.419 . S
C878 C879 1.362 . S
C879 H869 0.930 . S
C879 C872 1.409 . S
C879 C878 1.362 . S
H880 C886 0.930 . S
H881 C889 0.930 . S
H882 C890 0.930 . S
H883 C891 0.930 . S
H884 C894 0.930 1_655 S
H885 C895 0.930 . S
C886 H880 0.930 . S
C886 C887 1.355 . S
C886 C888 1.415 . S
C887 C886 1.355 . S
C887 C889 1.419 . S
C888 C886 1.415 . S
C888 C893 1.425 . S
C888 C895 1.409 . S
C889 H881 0.930 . S
C889 C887 1.419 . S
C889 C890 1.362 . S
C890 H882 0.930 . S
C890 C889 1.362 . S
C890 C893 1.409 . S
C891 H883 0.930 . S
C891 C892 1.355 . S
C891 C893 1.415 . S
C892 C891 1.355 . S
C892 C894 1.419 . S
C893 C888 1.425 . S
C893 C890 1.409 . S
C893 C891 1.415 . S
C894 H884 0.930 1_455 S
C894 C892 1.419 . S
C894 C895 1.362 . S
C895 H885 0.930 . S
C895 C888 1.409 . S
C895 C894 1.362 . S
H896 C902 0.930 . S
H897 C905 0.930 . S
H898 C906 0.930 . S
H899 C907 0.930 . S
H900 C910 0.930 . S
H901 C911 0.930 . S
C902 H896 0.930 . S
C902 C903 1.355 . S
C902 C904 1.415 . S
C903 C902 1.355 . S
C903 C905 1.419 . S
C904 C902 1.415 . S
C904 C909 1.425 . S
C904 C911 1.409 . S
C905 H897 0.930 . S
C905 C903 1.419 . S
C905 C906 1.362 . S
C906 H898 0.930 . S
C906 C905 1.362 . S
C906 C909 1.409 . S
C907 H899 0.930 . S
C907 C908 1.355 . S
C907 C909 1.415 . S
C908 C907 1.355 . S
C908 C910 1.419 . S
C909 C904 1.425 . S
C909 C906 1.409 . S
C909 C907 1.415 . S
C910 H900 0.930 . S
C910 C908 1.419 . S
C910 C911 1.362 . S
C911 H901 0.930 . S
C911 C904 1.409 . S
C911 C910 1.362 . S
H912 C918 0.930 . S
H913 C921 0.932 . S
H914 C922 0.930 1_455 S
H915 C923 0.930 1_455 S
H916 C926 0.930 . S
H917 C927 0.930 . S
C918 H912 0.930 . S
C918 C919 1.355 . S
C918 C920 1.415 . S
C919 C918 1.355 . S
C919 C921 1.419 . S
C920 C918 1.415 . S
C920 C925 1.425 . S
C920 C927 1.409 . S
C921 H913 0.932 . S
C921 C919 1.419 . S
C921 C922 1.362 . S
C922 H914 0.930 1_655 S
C922 C921 1.362 . S
C922 C925 1.409 . S
C923 H915 0.930 1_655 S
C923 C924 1.355 . S
C923 C925 1.415 . S
C924 C923 1.355 . S
C924 C926 1.419 . S
C925 C920 1.425 . S
C925 C922 1.409 . S
C925 C923 1.415 . S
C926 H916 0.930 . S
C926 C924 1.419 . S
C926 C927 1.362 . S
C927 H917 0.930 . S
C927 C920 1.409 . S
C927 C926 1.362 . S
H928 C934 0.930 . S
H929 C937 0.930 . S
H930 C938 0.930 . S
H931 C939 0.930 . S
H932 C942 0.930 . S
H933 C943 0.930 . S
C934 H928 0.930 . S
C934 C935 1.355 . S
C934 C936 1.415 . S
C935 C934 1.355 . S
C935 C937 1.419 . S
C936 C934 1.415 . S
C936 C941 1.425 . S
C936 C943 1.409 . S
C937 H929 0.930 . S
C937 C935 1.419 . S
C937 C938 1.362 . S
C938 H930 0.930 . S
C938 C937 1.362 . S
C938 C941 1.409 . S
C939 H931 0.930 . S
C939 C940 1.355 . S
C939 C941 1.415 . S
C940 C939 1.355 . S
C940 C942 1.419 . S
C941 C936 1.425 . S
C941 C938 1.409 . S
C941 C939 1.415 . S
C942 H932 0.930 . S
C942 C940 1.419 . S
C942 C943 1.362 . S
C943 H933 0.930 . S
C943 C936 1.409 . S
C943 C942 1.362 . S
H944 C950 0.930 . S
H945 C953 0.930 . S
H946 C954 0.930 . S
H947 C955 0.930 . S
H948 C958 0.930 . S
H949 C959 0.930 . S
C950 H944 0.930 . S
C950 C951 1.355 . S
C950 C952 1.415 . S
C951 C950 1.355 . S
C951 C953 1.419 . S
C952 C950 1.415 . S
C952 C957 1.425 . S
C952 C959 1.409 . S
C953 H945 0.930 . S
C953 C951 1.419 . S
C953 C954 1.362 . S
C954 H946 0.930 . S
C954 C953 1.362 . S
C954 C957 1.409 . S
C955 H947 0.930 . S
C955 C956 1.355 . S
C955 C957 1.415 . S
C956 C955 1.355 . S
C956 C958 1.419 . S
C957 C952 1.425 . S
C957 C954 1.409 . S
C957 C955 1.415 . S
C958 H948 0.930 . S
C958 C956 1.419 . S
C958 C959 1.362 . S
C959 H949 0.930 . S
C959 C952 1.409 . S
C959 C958 1.362 . S
H960 C966 0.930 . S
H961 C969 0.930 . S
H962 C970 0.930 . S
H963 C971 0.930 . S
H964 C974 0.930 . S
H965 C975 0.930 . S
C966 H960 0.930 . S
C966 C967 1.355 . S
C966 C968 1.415 . S
C967 C966 1.355 . S
C967 C969 1.419 . S
C968 C966 1.415 . S
C968 C973 1.425 . S
C968 C975 1.409 . S
C969 H961 0.930 . S
C969 C967 1.419 . S
C969 C970 1.362 . S
C970 H962 0.930 . S
C970 C969 1.362 . S
C970 C973 1.409 . S
C971 H963 0.930 . S
C971 C972 1.355 . S
C971 C973 1.415 . S
C972 C971 1.355 . S
C972 C974 1.419 . S
C973 C968 1.425 . S
C973 C970 1.409 . S
C973 C971 1.415 . S
C974 H964 0.930 . S
C974 C972 1.419 . S
C974 C975 1.362 . S
C975 H965 0.930 . S
C975 C968 1.409 . S
C975 C974 1.362 . S
H976 C982 0.930 . S
H977 C985 0.930 . S
H978 C986 0.930 . S
H979 C987 0.930 . S
H980 C990 0.930 . S
H981 C991 0.930 . S
C982 H976 0.930 . S
C982 C983 1.355 . S
C982 C984 1.415 . S
C983 C982 1.355 . S
C983 C985 1.419 . S
C984 C982 1.415 . S
C984 C989 1.425 . S
C984 C991 1.409 . S
C985 H977 0.930 . S
C985 C983 1.419 . S
C985 C986 1.362 . S
C986 H978 0.930 . S
C986 C985 1.362 . S
C986 C989 1.409 . S
C987 H979 0.930 . S
C987 C988 1.355 . S
C987 C989 1.415 . S
C988 C987 1.355 . S
C988 C990 1.419 . S
C989 C984 1.425 . S
C989 C986 1.409 . S
C989 C987 1.415 . S
C990 H980 0.930 . S
C990 C988 1.419 . S
C990 C991 1.362 . S
C991 H981 0.930 . S
C991 C984 1.409 . S
C991 C990 1.362 . S
H992 C998 0.930 . S
H993 C1001 0.930 . S
H994 C1002 0.930 . S
H995 C1003 0.930 . S
H996 C1006 0.930 . S
H997 C1007 0.930 . S
C998 H992 0.930 . S
C998 C999 1.355 . S
C998 C1000 1.415 . S
C999 C998 1.355 . S
C999 C1001 1.419 . S
C1000 C998 1.415 . S
C1000 C1005 1.425 . S
C1000 C1007 1.409 . S
C1001 H993 0.930 . S
C1001 C999 1.419 . S
C1001 C1002 1.362 . S
C1002 H994 0.930 . S
C1002 C1001 1.362 . S
C1002 C1005 1.409 . S
C1003 H995 0.930 . S
C1003 C1004 1.355 . S
C1003 C1005 1.415 . S
C1004 C1003 1.355 . S
C1004 C1006 1.419 . S
C1005 C1000 1.425 . S
C1005 C1002 1.409 . S
C1005 C1003 1.415 . S
C1006 H996 0.930 . S
C1006 C1004 1.419 . S
C1006 C1007 1.362 . S
C1007 H997 0.930 . S
C1007 C1000 1.409 . S
C1007 C1006 1.362 . S
H1008 C1014 0.930 . S
H1009 C1017 0.930 . S
H1010 C1018 0.930 . S
H1011 C1019 0.930 . S
H1012 C1022 0.930 . S
H1013 C1023 0.930 . S
C1014 H1008 0.930 . S
C1014 C1015 1.355 . S
C1014 C1016 1.415 . S
C1015 C1014 1.355 . S
C1015 C1017 1.419 . S
C1016 C1014 1.415 . S
C1016 C1021 1.425 . S
C1016 C1023 1.409 . S
C1017 H1009 0.930 . S
C1017 C1015 1.419 . S
C1017 C1018 1.362 . S
C1018 H1010 0.930 . S
C1018 C1017 1.362 . S
C1018 C1021 1.409 . S
C1019 H1011 0.930 . S
C1019 C1020 1.355 . S
C1019 C1021 1.415 . S
C1020 C1019 1.355 . S
C1020 C1022 1.419 . S
C1021 C1016 1.425 . S
C1021 C1018 1.409 . S
C1021 C1019 1.415 . S
C1022 H1012 0.930 . S
C1022 C1020 1.419 . S
C1022 C1023 1.362 . S
C1023 H1013 0.930 . S
C1023 C1016 1.409 . S
C1023 C1022 1.362 . S
C647 C1 0.981 . S
C652 C484 1.011 . S
C663 C80 1.131 . S
C668 C545 1.237 . S
C684 C583 2.528 . S
C679 C140 2.537 . S
C695 C211 2.338 . S
C700 C623 2.325 . S
C716 C543 1.326 . S
C711 C31 1.198 . S
C732 C511 2.175 . S
C727 C61 2.092 . S
C748 C620 1.742 . S
C743 C151 1.707 . S
C764 C580 1.869 . S
C759 C200 1.878 . S
C775 C20 1.190 . S
C780 C625 1.239 . S
C796 C540 2.383 . S
C791 C121 2.357 . S
C807 C181 2.133 . S
C812 C482 2.162 . S
C823 C91 1.667 . S
C828 C585 1.666 . S
C844 C505 1.038 . S
C839 C260 1.036 . S
C855 C320 1.130 . S
C860 C524 1.232 . S
C871 C361 2.543 . S
C876 C562 2.507 . S
C887 C451 2.349 . S
C892 C602 2.312 . S
C903 C271 1.320 . S
C908 C522 1.344 . S
C924 C500 2.179 . S
C919 C301 2.085 . S
C940 C631 1.770 . S
C935 C380 1.753 . S
C956 C591 1.858 . S
C951 C440 1.890 . S
C967 C241 1.162 . S
C972 C604 1.245 . S
C988 C551 2.388 . S
C983 C391 2.380 . S
C1004 C503 2.154 . S
C999 C421 2.143 . S
C1015 C331 1.647 . S
C1020 C564 1.626 . S
