# Generated by pormake.
# Topology rtl, (3,6)-cn, num edge types: 1
# Building blocks:
#     Node 0, Type 0, BuildingBlock: MIDCAF_clean_linker_0, # of connection points: 3
#     Node 1, Type 0, BuildingBlock: MIDCAF_clean_linker_0, # of connection points: 3
#     Node 2, Type 0, BuildingBlock: MIDCAF_clean_linker_0, # of connection points: 3
#     Node 3, Type 0, BuildingBlock: MIDCAF_clean_linker_0, # of connection points: 3
#     Node 4, Type 1, BuildingBlock: FUNLAD_clean_sbu_0, # of connection points: 6
#     Node 5, Type 1, BuildingBlock: FUNLAD_clean_sbu_0, # of connection points: 6
#     Edge 6, Type (0, 1), BuildingBlock: AJUNOK_clean_linker_0, # of connection points: 2
#     Edge 7, Type (0, 1), BuildingBlock: AJUNOK_clean_linker_0, # of connection points: 2
#     Edge 8, Type (0, 1), BuildingBlock: AJUNOK_clean_linker_0, # of connection points: 2
#     Edge 9, Type (0, 1), BuildingBlock: AJUNOK_clean_linker_0, # of connection points: 2
#     Edge 10, Type (0, 1), BuildingBlock: AJUNOK_clean_linker_0, # of connection points: 2
#     Edge 11, Type (0, 1), BuildingBlock: AJUNOK_clean_linker_0, # of connection points: 2
#     Edge 12, Type (0, 1), BuildingBlock: AJUNOK_clean_linker_0, # of connection points: 2
#     Edge 13, Type (0, 1), BuildingBlock: AJUNOK_clean_linker_0, # of connection points: 2
#     Edge 14, Type (0, 1), BuildingBlock: AJUNOK_clean_linker_0, # of connection points: 2
#     Edge 15, Type (0, 1), BuildingBlock: AJUNOK_clean_linker_0, # of connection points: 2
#     Edge 16, Type (0, 1), BuildingBlock: AJUNOK_clean_linker_0, # of connection points: 2
#     Edge 17, Type (0, 1), BuildingBlock: AJUNOK_clean_linker_0, # of connection points: 2
# Relax obj value: 0.026
# Max RMSD: 0.107
# Mean RMSD: 0.089
data_MOF--net-rtl--node1-FUNLAD_clean_sbu_0--node2-MIDCAF_clean_linker_0--edge1-AJUNOK_clean_linker_0
_symmetry_space_group_name_H-M    P1
_symmetry_Int_Tables_number       1
_symmetry_cell_setting            triclinic
loop_
_symmetry_equiv_pos_as_xyz
'x, y, z'
_cell_length_a     39.552821
_cell_length_b     31.645905
_cell_length_c     22.09755
_cell_angle_alpha  89.708414
_cell_angle_beta   90.884257
_cell_angle_gamma 90.431531
loop_
_atom_site_label
_atom_site_type_symbol
_atom_site_fract_x
_atom_site_fract_y
_atom_site_fract_z
_atom_type_partial_charge
C0 C 0.04929 0.83776 0.17755 0.0
C1 C 0.06845 0.8376 0.2315 0.0
C2 C 0.09962 0.8166 0.23323 0.0
C3 C 0.11174 0.79685 0.18142 0.0
H4 H 0.18106 0.70788 0.11534 0.0
H5 H 0.23271 0.66627 0.11606 0.0
H6 H 0.23915 0.68042 0.9222 0.0
H7 H 0.18716 0.72117 0.92083 0.0
H8 H 0.13639 0.78253 0.85086 0.0
H9 H 0.11516 0.81689 0.75853 0.0
H10 H 0.02603 0.85604 0.8528 0.0
H11 H 0.04673 0.82163 0.94461 0.0
H12 H 0.04627 0.81997 0.08464 0.0
H13 H 0.02544 0.85432 0.17467 0.0
H14 H 0.11485 0.81609 0.27439 0.0
H15 H 0.13624 0.78181 0.18372 0.0
N16 N 0.13512 0.75713 0.07034 0.0
N17 N 0.13525 0.75788 0.96402 0.0
N18 N 0.09366 0.79455 0.01606 0.0
C19 C 0.14911 0.74462 0.0175 0.0
C20 C 0.1074 0.78273 0.96301 0.0
C21 C 0.10727 0.78204 0.06985 0.0
C22 C 0.17997 0.71821 0.01807 0.0
C23 C 0.19339 0.70213 0.07277 0.0
C24 C 0.22311 0.67847 0.07332 0.0
C25 C 0.24019 0.67065 0.01929 0.0
C26 C 0.22645 0.6859 0.96452 0.0
C27 C 0.1967 0.7094 0.96387 0.0
C28 C 0.09335 0.79947 0.90527 0.0
C29 C 0.11201 0.79784 0.85166 0.0
C30 C 0.09997 0.81761 0.79889 0.0
C31 C 0.06891 0.83884 0.7986 0.0
C32 C 0.04979 0.83929 0.85154 0.0
C33 C 0.06185 0.81984 0.90426 0.0
C34 C 0.09306 0.7983 0.12677 0.0
C35 C 0.06142 0.81833 0.12582 0.0
C36 C 0.54414 0.66845 0.34211 0.0
C37 C 0.56343 0.67014 0.2894 0.0
C38 C 0.59364 0.6937 0.28945 0.0
C39 C 0.60481 0.7144 0.34188 0.0
H40 H 0.67939 0.79162 0.40977 0.0
H41 H 0.73235 0.83117 0.41074 0.0
H42 H 0.72698 0.84382 0.60475 0.0
H43 H 0.67425 0.80334 0.60444 0.0
H44 H 0.62775 0.73509 0.67422 0.0
H45 H 0.60925 0.6983 0.76554 0.0
H46 H 0.52454 0.64503 0.66608 0.0
H47 H 0.54238 0.68206 0.5752 0.0
H48 H 0.54024 0.68598 0.43487 0.0
H49 H 0.521 0.64995 0.3435 0.0
H50 H 0.60891 0.69544 0.24921 0.0
H51 H 0.62866 0.73142 0.34093 0.0
N52 N 0.62742 0.7544 0.45362 0.0
N53 N 0.62767 0.75453 0.55984 0.0
N54 N 0.58631 0.71611 0.50622 0.0
C55 C 0.64138 0.76773 0.50686 0.0
C56 C 0.60002 0.72879 0.55982 0.0
C57 C 0.59976 0.72874 0.45298 0.0
C58 C 0.67248 0.79416 0.50707 0.0
C59 C 0.68922 0.80308 0.45271 0.0
C60 C 0.7195 0.82604 0.45311 0.0
C61 C 0.73356 0.84094 0.50775 0.0
C62 C 0.71669 0.83259 0.56201 0.0
C63 C 0.68645 0.80948 0.56171 0.0
C64 C 0.58682 0.71112 0.61707 0.0
C65 C 0.60491 0.71603 0.67194 0.0
C66 C 0.59451 0.69476 0.72414 0.0
C67 C 0.56583 0.66831 0.72242 0.0
C68 C 0.54677 0.66519 0.66855 0.0
C69 C 0.55716 0.6863 0.61643 0.0
C70 C 0.58614 0.7114 0.39542 0.0
C71 C 0.55535 0.68886 0.39456 0.0
C72 C 0.95717 0.168 0.84492 0.0
C73 C 0.93782 0.16961 0.79126 0.0
C74 C 0.90836 0.19416 0.78939 0.0
C75 C 0.8975 0.21491 0.8413 0.0
H76 H 0.82743 0.3011 0.90871 0.0
H77 H 0.77533 0.34197 0.90926 0.0
H78 H 0.77183 0.3301 0.10374 0.0
H79 H 0.82411 0.2902 0.1038 0.0
H80 H 0.87624 0.23404 0.17393 0.0
H81 H 0.89539 0.19795 0.2661 0.0
H82 H 0.97809 0.14358 0.1688 0.0
H83 H 0.95957 0.1799 0.07698 0.0
H84 H 0.96138 0.18544 0.93788 0.0
H85 H 0.98 0.14932 0.84755 0.0
H86 H 0.89332 0.19651 0.74815 0.0
H87 H 0.87408 0.23238 0.83897 0.0
N88 N 0.87477 0.25349 0.95316 0.0
N89 N 0.87499 0.25249 0.05943 0.0
N90 N 0.916 0.21523 0.00685 0.0
C91 C 0.86106 0.26606 0.0062 0.0
C92 C 0.90256 0.22718 0.06011 0.0
C93 C 0.9024 0.22817 0.95323 0.0
C94 C 0.83012 0.29233 0.00622 0.0
C95 C 0.81577 0.30747 0.9517 0.0
C96 C 0.78587 0.33081 0.95191 0.0
C97 C 0.76974 0.3396 0.00657 0.0
C98 C 0.78412 0.3247 0.06103 0.0
C99 C 0.81402 0.30151 0.06091 0.0
C100 C 0.91609 0.20949 0.11772 0.0
C101 C 0.89875 0.21484 0.17225 0.0
C102 C 0.90954 0.19399 0.22496 0.0
C103 C 0.93786 0.16749 0.22415 0.0
C104 C 0.95615 0.16381 0.17058 0.0
C105 C 0.94538 0.18451 0.11792 0.0
C106 C 0.91591 0.21135 0.89604 0.0
C107 C 0.94633 0.18855 0.89675 0.0
C108 C 0.46094 0.33345 0.67013 0.0
C109 C 0.44156 0.33216 0.72276 0.0
C110 C 0.41108 0.30913 0.7226 0.0
C111 C 0.39975 0.28857 0.67015 0.0
H112 H 0.32367 0.21353 0.60134 0.0
H113 H 0.26992 0.17545 0.59939 0.0
H114 H 0.27722 0.16044 0.40601 0.0
H115 H 0.33064 0.19937 0.40728 0.0
H116 H 0.37737 0.26767 0.33756 0.0
H117 H 0.39624 0.30427 0.24636 0.0
H118 H 0.48092 0.3571 0.34638 0.0
H119 H 0.4627 0.32024 0.43719 0.0
H120 H 0.46476 0.31575 0.57743 0.0
H121 H 0.48427 0.35155 0.66879 0.0
H122 H 0.39574 0.3077 0.76277 0.0
H123 H 0.37572 0.27197 0.67101 0.0
N124 N 0.37685 0.24885 0.55824 0.0
N125 N 0.37686 0.24866 0.45202 0.0
N126 N 0.41851 0.2864 0.5059 0.0
C127 C 0.36288 0.23571 0.50489 0.0
C128 C 0.40478 0.27394 0.45221 0.0
C129 C 0.40481 0.27402 0.55906 0.0
C130 C 0.33141 0.20997 0.50435 0.0
C131 C 0.31398 0.20204 0.55832 0.0
C132 C 0.2832 0.18012 0.55734 0.0
C133 C 0.26917 0.1656 0.50246 0.0
C134 C 0.28706 0.17222 0.44877 0.0
C135 C 0.31778 0.1943 0.44964 0.0
C136 C 0.41824 0.29143 0.39503 0.0
C137 C 0.40028 0.28659 0.34001 0.0
C138 C 0.4109 0.30775 0.28787 0.0
C139 C 0.43967 0.33404 0.28976 0.0
C140 C 0.45862 0.33706 0.34377 0.0
C141 C 0.44802 0.31605 0.39585 0.0
C142 C 0.41853 0.29118 0.61669 0.0
C143 C 0.44957 0.31318 0.61767 0.0
C144 C 0.02246 0.94631 0.42452 0.0
N145 N 0.07363 0.0457 0.51199 0.0
C146 C 0.10174 0.02121 0.51079 0.0
C147 C 0.13381 0.03984 0.50849 0.0
C148 C 0.13691 0.08403 0.50728 0.0
C149 C 0.10752 0.10852 0.50976 0.0
C150 C 0.07597 0.0886 0.51185 0.0
Zn151 Zn 0.02697 0.01783 0.51214 0.0
C152 C 0.98006 0.05771 0.42269 0.0
N153 N 0.92973 0.95938 0.51084 0.0
C154 C 0.92667 0.91654 0.5098 0.0
C155 C 0.90202 0.9846 0.51165 0.0
C156 C 0.86964 0.96688 0.51132 0.0
C157 C 0.86573 0.9228 0.50952 0.0
C158 C 0.89473 0.8975 0.50913 0.0
Zn159 Zn 0.9765 0.98679 0.51118 0.0
O160 O 0.04248 0.97461 0.445 0.0
C161 C 0.02308 0.94667 0.60056 0.0
O162 O 0.99251 0.94432 0.44429 0.0
H163 H 0.90502 0.01859 0.51267 0.0
H164 H 0.09929 0.98715 0.51105 0.0
H165 H 0.94904 0.89711 0.50933 0.0
O166 O 0.04304 0.97504 0.58073 0.0
O167 O 0.99311 0.94454 0.57925 0.0
H168 H 0.0533 0.10746 0.51306 0.0
O169 O 0.96107 0.02951 0.578 0.0
O170 O 0.01067 0.06066 0.57944 0.0
O171 O 0.96044 0.02931 0.44317 0.0
O172 O 0.01017 0.06016 0.44336 0.0
C173 C 0.98063 0.05808 0.59883 0.0
H174 H 0.15592 0.01992 0.50671 0.0
H175 H 0.1089 0.1427 0.51037 0.0
H176 H 0.84792 0.98745 0.51306 0.0
H177 H 0.89271 0.86336 0.50767 0.0
C178 C 0.48264 0.44417 0.91845 0.0
N179 N 0.57541 0.4598 0.01023 0.0
C180 C 0.578 0.41695 0.01154 0.0
C181 C 0.60971 0.39788 0.01121 0.0
C182 C 0.63904 0.42312 0.00952 0.0
C183 C 0.63561 0.46724 0.00782 0.0
C184 C 0.60341 0.485 0.00848 0.0
Zn185 Zn 0.52857 0.48672 0.00859 0.0
C186 C 0.52444 0.55651 0.91771 0.0
N187 N 0.4309 0.54298 0.00232 0.0
C188 C 0.40222 0.51905 0.00518 0.0
C189 C 0.42956 0.58593 0.00163 0.0
C190 C 0.3986 0.60647 0.00495 0.0
C191 C 0.36868 0.58265 0.00955 0.0
C192 C 0.37064 0.53837 0.00871 0.0
Zn193 Zn 0.47743 0.5153 0.00342 0.0
O194 O 0.51234 0.44363 0.94118 0.0
C195 C 0.48153 0.44552 0.09431 0.0
O196 O 0.46188 0.47179 0.93626 0.0
H197 H 0.45262 0.6044 -0.0007 0.0
H198 H 0.55543 0.39749 0.01261 0.0
H199 H 0.40387 0.48495 0.00571 0.0
O200 O 0.51193 0.44437 0.07658 0.0
O201 O 0.46157 0.47265 0.07123 0.0
H202 H 0.60079 0.51899 0.00707 0.0
O203 O 0.49364 0.55828 0.07074 0.0
O204 O 0.54406 0.5303 0.07592 0.0
O205 O 0.49406 0.55757 0.93543 0.0
O206 O 0.54442 0.52942 0.94074 0.0
C207 C 0.52326 0.55785 0.09362 0.0
H208 H 0.6113 0.36373 0.01266 0.0
H209 H 0.65755 0.4878 0.00511 0.0
H210 H 0.39809 0.64068 0.00397 0.0
H211 H 0.34807 0.51895 0.01203 0.0
C212 C 0.22868 0.11154 0.54273 0.0
C213 C 0.23562 0.14435 0.50144 0.0
C214 C 0.19684 0.09183 0.54381 0.0
C215 C 0.17069 0.10448 0.50398 0.0
H216 H 0.24805 0.10096 0.57441 0.0
H217 H 0.19249 0.06701 0.57678 0.0
S218 S 0.176 0.18845 0.38667 0.0
N219 N 0.21371 0.18863 0.41978 0.0
N220 N 0.15411 0.15097 0.42094 0.0
C221 C 0.17739 0.13695 0.46208 0.0
C222 C 0.2098 0.15697 0.46094 0.0
C223 C 0.27752 0.61414 0.97859 0.0
C224 C 0.27261 0.64728 0.01971 0.0
C225 C 0.30842 0.59278 0.97642 0.0
C226 C 0.33562 0.60405 0.01492 0.0
H227 H 0.25734 0.60471 0.94772 0.0
H228 H 0.31127 0.56789 0.94344 0.0
S229 S 0.33554 0.68778 0.13184 0.0
N230 N 0.29749 0.69002 0.10025 0.0
N231 N 0.35527 0.64932 0.097 0.0
C232 C 0.33087 0.63662 0.05694 0.0
C233 C 0.29943 0.65832 0.05921 0.0
C234 C 0.79235 0.85033 0.54889 0.0
C235 C 0.7666 0.8634 0.50852 0.0
C236 C 0.82428 0.86974 0.54891 0.0
C237 C 0.83159 0.90311 0.50881 0.0
H238 H 0.78797 0.82437 0.58001 0.0
H239 H 0.84336 0.85864 0.58078 0.0
S240 S 0.77273 0.94966 0.39482 0.0
N241 N 0.75023 0.91243 0.4284 0.0
N242 N 0.81053 0.94834 0.4275 0.0
C243 C 0.806 0.91674 0.46852 0.0
C244 C 0.77347 0.89697 0.46851 0.0
C245 C 0.71065 0.35006 0.96742 0.0
C246 C 0.73718 0.36268 0.00659 0.0
C247 C 0.6791 0.36987 0.96854 0.0
C248 C 0.67293 0.40326 0.00863 0.0
H249 H 0.71408 0.32407 0.93643 0.0
H250 H 0.65939 0.35902 0.93765 0.0
S251 S 0.73426 0.44896 0.11941 0.0
N252 N 0.75555 0.41149 0.08533 0.0
N253 N 0.69602 0.44815 0.08838 0.0
C254 C 0.69936 0.41654 0.04755 0.0
C255 C 0.73149 0.39635 0.0464 0.0
C256 C 0.07858 0.89251 0.31061 0.0
C257 C 0.05695 0.86215 0.28417 0.0
C258 C 0.0673 0.91916 0.35641 0.0
C259 C 0.03396 0.91638 0.37772 0.0
H260 H 0.10412 0.89663 0.29446 0.0
H261 H 0.0848 0.94256 0.37449 0.0
S262 S 0.96831 0.83928 0.32652 0.0
N263 N 0.00146 0.82879 0.28481 0.0
N264 N 0.98003 0.87878 0.37082 0.0
C265 C 0.0124 0.8851 0.35286 0.0
C266 C 0.02393 0.85806 0.30609 0.0
C267 C 0.52304 0.64125 0.79545 0.0
C268 C 0.55657 0.642 0.77534 0.0
C269 C 0.51306 0.61404 0.84216 0.0
C270 C 0.53619 0.58624 0.87023 0.0
H271 H 0.50428 0.66164 0.77452 0.0
H272 H 0.48685 0.61443 0.85563 0.0
S273 S 0.6272 0.57621 0.8338 0.0
N274 N 0.61298 0.61288 0.78671 0.0
N275 N 0.59449 0.56187 0.87481 0.0
C276 C 0.57001 0.5872 0.85103 0.0
C277 C 0.58013 0.61506 0.80358 0.0
C278 C 0.9812 0.14122 0.29865 0.0
C279 C 0.94746 0.14171 0.27778 0.0
C280 C 0.99136 0.1146 0.34631 0.0
C281 C 0.9682 0.08711 0.3745 0.0
H282 H -3e-05 0.16136 0.2776 0.0
H283 H 0.01772 0.11509 0.36032 0.0
S284 S 0.87665 0.0767 0.3365 0.0
N285 N 0.89081 0.11274 0.28875 0.0
N286 N 0.90963 0.06286 0.37853 0.0
C287 C 0.93418 0.08783 0.35455 0.0
C288 C 0.92388 0.11511 0.3062 0.0
C289 C 0.4292 0.38668 0.80033 0.0
C290 C 0.45193 0.35765 0.77597 0.0
C291 C 0.43926 0.41409 0.84689 0.0
C292 C 0.47241 0.41339 0.87107 0.0
H293 H 0.40373 0.38915 0.78197 0.0
H294 H 0.42096 0.43642 0.86332 0.0
S295 S 0.54067 0.34038 0.82591 0.0
N296 N 0.50826 0.32778 0.78143 0.0
N297 N 0.52742 0.37918 0.869 0.0
C298 C 0.49508 0.38343 0.84826 0.0
C299 C 0.48479 0.35564 0.80067 0.0
C300 C 0.57625 0.61585 0.21181 0.0
C301 C 0.55328 0.64457 0.2362 0.0
C302 C 0.56642 0.58835 0.1652 0.0
C303 C 0.53327 0.58868 0.14103 0.0
H304 H 0.60174 0.61369 0.23016 0.0
H305 H 0.5849 0.56627 0.14872 0.0
S306 S 0.46439 0.66075 0.18633 0.0
N307 N 0.49671 0.67372 0.23082 0.0
N308 N 0.47797 0.62219 0.14317 0.0
C309 C 0.51035 0.61833 0.16389 0.0
C310 C 0.5204 0.64619 0.21152 0.0
C311 C 0.98085 0.1443 0.71805 0.0
C312 C 0.94747 0.14334 0.739 0.0
C313 C 0.99119 0.11716 0.67204 0.0
C314 C 0.96861 0.08772 0.64559 0.0
H315 H 0.99921 0.16598 0.73779 0.0
H316 H 0.01726 0.1189 0.65785 0.0
S317 S 0.87823 0.07271 0.68493 0.0
N318 N 0.89183 0.11072 0.73022 0.0
N319 N 0.91095 0.05989 0.64358 0.0
C320 C 0.93494 0.08692 0.66571 0.0
C321 C 0.92445 0.11469 0.71238 0.0
C322 C 0.48266 0.36095 0.21689 0.0
C323 C 0.4491 0.36033 0.2369 0.0
C324 C 0.49274 0.38806 0.17011 0.0
C325 C 0.4697 0.41589 0.14187 0.0
H326 H 0.50134 0.34051 0.23794 0.0
H327 H 0.51896 0.38756 0.15671 0.0
S328 S 0.37869 0.42636 0.17811 0.0
N329 N 0.39278 0.38969 0.22531 0.0
N330 N 0.41146 0.4405 0.13712 0.0
C331 C 0.43587 0.4151 0.16102 0.0
C332 C 0.42563 0.38734 0.20853 0.0
C333 C 0.07911 0.89346 0.71894 0.0
C334 C 0.05747 0.86319 0.74478 0.0
C335 C 0.06789 0.91987 0.67184 0.0
C336 C 0.03459 0.9169 0.64858 0.0
H337 H 0.10462 0.89769 0.73656 0.0
H338 H 0.08537 0.94323 0.65427 0.0
S339 S 0.96897 0.83983 0.69756 0.0
N340 N 0.00206 0.82966 0.74158 0.0
N341 N 0.98071 0.87916 0.65303 0.0
C342 C 0.01303 0.88566 0.67284 0.0
C343 C 0.02451 0.85889 0.72096 0.0
loop_
_geom_bond_atom_site_label_1
_geom_bond_atom_site_label_2
_geom_bond_distance
_geom_bond_site_symmetry_2
_ccdc_geom_bond_type
C0 C1 1.384 . S
C0 H13 0.947 . S
C0 C35 1.382 . S
C1 C0 1.384 . S
C1 C2 1.378 . S
C2 C1 1.378 . S
C2 C3 1.378 . S
C2 H14 0.952 . S
C3 C2 1.378 . S
C3 H15 0.950 . S
C3 C34 1.383 . S
H4 C23 0.947 . S
H5 C24 0.946 . S
H6 C26 0.953 . S
H7 C27 0.945 . S
H8 C29 0.952 . S
H9 C30 0.949 . S
H10 C32 0.950 . S
H11 C33 0.948 . S
H12 C35 0.951 . S
H13 C0 0.947 . S
H14 C2 0.952 . S
H15 C3 0.950 . S
N16 C19 1.382 . S
N16 C21 1.363 . S
N17 C19 1.371 1_556 S
N17 C20 1.372 . S
N18 C20 1.361 1_554 S
N18 C21 1.377 . S
C19 N16 1.382 . S
C19 N17 1.371 1_554 S
C19 C22 1.480 . S
C20 N17 1.372 . S
C20 N18 1.361 1_556 S
C20 C28 1.457 . S
C21 N16 1.363 . S
C21 N18 1.377 . S
C21 C34 1.479 . S
C22 C19 1.480 . S
C22 C23 1.383 . S
C22 C27 1.385 1_554 S
C23 H4 0.947 . S
C23 C22 1.383 . S
C23 C24 1.388 . S
C24 H5 0.946 . S
C24 C23 1.388 . S
C24 C25 1.384 . S
C25 C24 1.384 . S
C25 C26 1.377 1_554 S
C26 H6 0.953 . S
C26 C25 1.377 1_556 S
C26 C27 1.369 . S
C27 H7 0.945 . S
C27 C22 1.385 1_556 S
C27 C26 1.369 . S
C28 C20 1.457 . S
C28 C29 1.372 . S
C28 C33 1.364 . S
C29 H8 0.952 . S
C29 C28 1.372 . S
C29 C30 1.389 . S
C30 H9 0.949 . S
C30 C29 1.389 . S
C30 C31 1.387 . S
C31 C30 1.387 . S
C31 C32 1.372 . S
C32 H10 0.950 . S
C32 C31 1.372 . S
C32 C33 1.379 . S
C33 H11 0.948 . S
C33 C28 1.364 . S
C33 C32 1.379 . S
C34 C3 1.383 . S
C34 C21 1.479 . S
C34 C35 1.398 . S
C35 C0 1.382 . S
C35 H12 0.951 . S
C35 C34 1.398 . S
C36 C37 1.384 . S
C36 H49 0.947 . S
C36 C71 1.382 . S
C37 C36 1.384 . S
C37 C38 1.378 . S
C38 C37 1.378 . S
C38 C39 1.378 . S
C38 H50 0.952 . S
C39 C38 1.378 . S
C39 H51 0.950 . S
C39 C70 1.383 . S
H40 C59 0.947 . S
H41 C60 0.946 . S
H42 C62 0.953 . S
H43 C63 0.945 . S
H44 C65 0.952 . S
H45 C66 0.949 . S
H46 C68 0.950 . S
H47 C69 0.948 . S
H48 C71 0.951 . S
H49 C36 0.947 . S
H50 C38 0.952 . S
H51 C39 0.950 . S
N52 C55 1.382 . S
N52 C57 1.363 . S
N53 C55 1.371 . S
N53 C56 1.372 . S
N54 C56 1.361 . S
N54 C57 1.377 . S
C55 N52 1.382 . S
C55 N53 1.371 . S
C55 C58 1.480 . S
C56 N53 1.372 . S
C56 N54 1.361 . S
C56 C64 1.457 . S
C57 N52 1.363 . S
C57 N54 1.377 . S
C57 C70 1.479 . S
C58 C55 1.480 . S
C58 C59 1.383 . S
C58 C63 1.385 . S
C59 H40 0.947 . S
C59 C58 1.383 . S
C59 C60 1.388 . S
C60 H41 0.946 . S
C60 C59 1.388 . S
C60 C61 1.384 . S
C61 C60 1.384 . S
C61 C62 1.377 . S
C62 H42 0.953 . S
C62 C61 1.377 . S
C62 C63 1.369 . S
C63 H43 0.945 . S
C63 C58 1.385 . S
C63 C62 1.369 . S
C64 C56 1.457 . S
C64 C65 1.372 . S
C64 C69 1.364 . S
C65 H44 0.952 . S
C65 C64 1.372 . S
C65 C66 1.389 . S
C66 H45 0.949 . S
C66 C65 1.389 . S
C66 C67 1.387 . S
C67 C66 1.387 . S
C67 C68 1.372 . S
C68 H46 0.950 . S
C68 C67 1.372 . S
C68 C69 1.379 . S
C69 H47 0.948 . S
C69 C64 1.364 . S
C69 C68 1.379 . S
C70 C39 1.383 . S
C70 C57 1.479 . S
C70 C71 1.398 . S
C71 C36 1.382 . S
C71 H48 0.951 . S
C71 C70 1.398 . S
C72 C73 1.384 . S
C72 H85 0.947 . S
C72 C107 1.382 . S
C73 C72 1.384 . S
C73 C74 1.378 . S
C74 C73 1.378 . S
C74 C75 1.378 . S
C74 H86 0.952 . S
C75 C74 1.378 . S
C75 H87 0.950 . S
C75 C106 1.383 . S
H76 C95 0.947 . S
H77 C96 0.946 . S
H78 C98 0.953 . S
H79 C99 0.945 . S
H80 C101 0.952 . S
H81 C102 0.949 . S
H82 C104 0.950 . S
H83 C105 0.948 . S
H84 C107 0.951 . S
H85 C72 0.947 . S
H86 C74 0.952 . S
H87 C75 0.950 . S
N88 C91 1.382 1_556 S
N88 C93 1.363 . S
N89 C91 1.371 . S
N89 C92 1.372 . S
N90 C92 1.361 . S
N90 C93 1.377 1_554 S
C91 N88 1.382 1_554 S
C91 N89 1.371 . S
C91 C94 1.480 . S
C92 N89 1.372 . S
C92 N90 1.361 . S
C92 C100 1.457 . S
C93 N88 1.363 . S
C93 N90 1.377 1_556 S
C93 C106 1.479 . S
C94 C91 1.480 . S
C94 C95 1.383 1_554 S
C94 C99 1.385 . S
C95 H76 0.947 . S
C95 C94 1.383 1_556 S
C95 C96 1.388 . S
C96 H77 0.946 . S
C96 C95 1.388 . S
C96 C97 1.384 1_556 S
C97 C96 1.384 1_554 S
C97 C98 1.377 . S
C98 H78 0.953 . S
C98 C97 1.377 . S
C98 C99 1.369 . S
C99 H79 0.945 . S
C99 C94 1.385 . S
C99 C98 1.369 . S
C100 C92 1.457 . S
C100 C101 1.372 . S
C100 C105 1.364 . S
C101 H80 0.952 . S
C101 C100 1.372 . S
C101 C102 1.389 . S
C102 H81 0.949 . S
C102 C101 1.389 . S
C102 C103 1.387 . S
C103 C102 1.387 . S
C103 C104 1.372 . S
C104 H82 0.950 . S
C104 C103 1.372 . S
C104 C105 1.379 . S
C105 H83 0.948 . S
C105 C100 1.364 . S
C105 C104 1.379 . S
C106 C75 1.383 . S
C106 C93 1.479 . S
C106 C107 1.398 . S
C107 C72 1.382 . S
C107 H84 0.951 . S
C107 C106 1.398 . S
C108 C109 1.384 . S
C108 H121 0.947 . S
C108 C143 1.382 . S
C109 C108 1.384 . S
C109 C110 1.378 . S
C110 C109 1.378 . S
C110 C111 1.378 . S
C110 H122 0.952 . S
C111 C110 1.378 . S
C111 H123 0.950 . S
C111 C142 1.383 . S
H112 C131 0.947 . S
H113 C132 0.946 . S
H114 C134 0.953 . S
H115 C135 0.945 . S
H116 C137 0.952 . S
H117 C138 0.949 . S
H118 C140 0.950 . S
H119 C141 0.948 . S
H120 C143 0.951 . S
H121 C108 0.947 . S
H122 C110 0.952 . S
H123 C111 0.950 . S
N124 C127 1.382 . S
N124 C129 1.363 . S
N125 C127 1.371 . S
N125 C128 1.372 . S
N126 C128 1.361 . S
N126 C129 1.377 . S
C127 N124 1.382 . S
C127 N125 1.371 . S
C127 C130 1.480 . S
C128 N125 1.372 . S
C128 N126 1.361 . S
C128 C136 1.457 . S
C129 N124 1.363 . S
C129 N126 1.377 . S
C129 C142 1.479 . S
C130 C127 1.480 . S
C130 C131 1.383 . S
C130 C135 1.385 . S
C131 H112 0.947 . S
C131 C130 1.383 . S
C131 C132 1.388 . S
C132 H113 0.946 . S
C132 C131 1.388 . S
C132 C133 1.384 . S
C133 C132 1.384 . S
C133 C134 1.377 . S
C134 H114 0.953 . S
C134 C133 1.377 . S
C134 C135 1.369 . S
C135 H115 0.945 . S
C135 C130 1.385 . S
C135 C134 1.369 . S
C136 C128 1.457 . S
C136 C137 1.372 . S
C136 C141 1.364 . S
C137 H116 0.952 . S
C137 C136 1.372 . S
C137 C138 1.389 . S
C138 H117 0.949 . S
C138 C137 1.389 . S
C138 C139 1.387 . S
C139 C138 1.387 . S
C139 C140 1.372 . S
C140 H118 0.950 . S
C140 C139 1.372 . S
C140 C141 1.379 . S
C141 H119 0.948 . S
C141 C136 1.364 . S
C141 C140 1.379 . S
C142 C111 1.383 . S
C142 C129 1.479 . S
C142 C143 1.398 . S
C143 C108 1.382 . S
C143 H120 0.951 . S
C143 C142 1.398 . S
C144 O160 1.251 . S
C144 O162 1.254 1_455 S
N145 C146 1.333 . S
N145 C150 1.307 . S
N145 Zn151 2.020 . S
C146 N145 1.333 . S
C146 C147 1.379 . S
C146 H164 0.952 . S
C147 C146 1.379 . S
C147 C148 1.390 . S
C147 H174 0.949 . S
C148 C147 1.390 . S
C148 C149 1.357 . S
C149 C148 1.357 . S
C149 C150 1.370 . S
C149 H175 0.950 . S
C150 N145 1.307 . S
C150 C149 1.370 . S
C150 H168 0.948 . S
Zn151 N145 2.020 . S
Zn151 O160 2.039 1_545 S
Zn151 O166 2.034 1_545 S
Zn151 O170 2.025 . S
Zn151 O172 2.024 . S
C152 O171 1.246 . S
C152 O172 1.249 1_655 S
N153 C154 1.307 . S
N153 C155 1.333 . S
N153 Zn159 2.020 . S
C154 N153 1.307 . S
C154 C158 1.370 . S
C154 H165 0.948 . S
C155 N153 1.333 . S
C155 C156 1.379 . S
C155 H163 0.975 . S
C156 C155 1.379 . S
C156 C157 1.390 . S
C156 H176 0.949 . S
C157 C156 1.390 . S
C157 C158 1.357 . S
C158 C154 1.370 . S
C158 C157 1.357 . S
C158 H177 0.950 . S
Zn159 N153 2.020 . S
Zn159 O162 2.025 . S
Zn159 O167 2.024 . S
Zn159 O169 2.039 1_565 S
Zn159 O171 2.034 1_565 S
O160 C144 1.251 . S
O160 Zn151 2.039 1_565 S
C161 O166 1.246 . S
C161 O167 1.249 1_455 S
O162 C144 1.254 1_655 S
O162 Zn159 2.025 . S
H163 C155 0.975 . S
H164 C146 0.952 . S
H165 C154 0.948 . S
O166 Zn151 2.034 1_565 S
O166 C161 1.246 . S
O167 Zn159 2.024 . S
O167 C161 1.249 1_655 S
H168 C150 0.948 . S
O169 Zn159 2.039 1_545 S
O169 C173 1.251 . S
O170 Zn151 2.025 . S
O170 C173 1.254 1_455 S
O171 C152 1.246 . S
O171 Zn159 2.034 1_545 S
O172 Zn151 2.024 . S
O172 C152 1.249 1_455 S
C173 O169 1.251 . S
C173 O170 1.254 1_655 S
H174 C147 0.949 . S
H175 C149 0.950 . S
H176 C156 0.949 . S
H177 C158 0.950 . S
C178 O194 1.251 . S
C178 O196 1.254 . S
N179 C180 1.333 1_554 S
N179 C184 1.307 . S
N179 Zn185 2.020 . S
C180 N179 1.333 1_556 S
C180 C181 1.379 . S
C180 H198 0.952 . S
C181 C180 1.379 . S
C181 C182 1.390 1_556 S
C181 H208 0.949 . S
C182 C181 1.390 1_554 S
C182 C183 1.357 . S
C183 C182 1.357 . S
C183 C184 1.370 . S
C183 H209 0.950 . S
C184 N179 1.307 . S
C184 C183 1.370 . S
C184 H202 0.948 . S
Zn185 N179 2.020 . S
Zn185 O194 2.039 1_554 S
Zn185 O200 2.034 . S
Zn185 O204 2.025 . S
Zn185 O206 2.024 1_554 S
C186 O205 1.246 . S
C186 O206 1.249 . S
N187 C188 1.307 1_554 S
N187 C189 1.333 . S
N187 Zn193 2.020 . S
C188 N187 1.307 1_556 S
C188 C192 1.370 . S
C188 H199 0.948 . S
C189 N187 1.333 . S
C189 C190 1.379 . S
C189 H197 0.952 . S
C190 C189 1.379 . S
C190 C191 1.390 . S
C190 H210 0.949 . S
C191 C190 1.390 . S
C191 C192 1.357 1_554 S
C192 C188 1.370 . S
C192 C191 1.357 1_556 S
C192 H211 0.950 . S
Zn193 N187 2.020 . S
Zn193 O196 2.025 1_554 S
Zn193 O201 2.024 . S
Zn193 O203 2.039 . S
Zn193 O205 2.034 1_554 S
O194 C178 1.251 . S
O194 Zn185 2.039 1_556 S
C195 O200 1.246 . S
C195 O201 1.249 . S
O196 C178 1.254 . S
O196 Zn193 2.025 1_556 S
H197 C189 0.952 . S
H198 C180 0.952 . S
H199 C188 0.948 . S
O200 Zn185 2.034 . S
O200 C195 1.246 . S
O201 Zn193 2.024 . S
O201 C195 1.249 . S
H202 C184 0.948 . S
O203 Zn193 2.039 . S
O203 C207 1.251 . S
O204 Zn185 2.025 . S
O204 C207 1.254 . S
O205 C186 1.246 . S
O205 Zn193 2.034 1_556 S
O206 Zn185 2.024 1_556 S
O206 C186 1.249 . S
C207 O203 1.251 . S
C207 O204 1.254 . S
H208 C181 0.949 . S
H209 C183 0.950 . S
H210 C190 0.949 . S
H211 C192 0.950 . S
C212 C213 1.369 . S
C212 C214 1.419 . S
C212 H216 0.930 . S
C213 C212 1.369 . S
C213 C222 1.429 . S
C214 C212 1.419 . S
C214 C215 1.363 . S
C214 H217 0.929 . S
C215 C214 1.363 . S
C215 C221 1.428 . S
H216 C212 0.930 . S
H217 C214 0.929 . S
S218 N219 1.613 . S
S218 N220 1.610 . S
N219 S218 1.613 . S
N219 C222 1.350 . S
N220 S218 1.610 . S
N220 C221 1.351 . S
C221 C215 1.428 . S
C221 N220 1.351 . S
C221 C222 1.434 . S
C222 C213 1.429 . S
C222 N219 1.350 . S
C222 C221 1.434 . S
C223 C224 1.369 1_556 S
C223 C225 1.419 . S
C223 H227 0.930 . S
C224 C223 1.369 1_554 S
C224 C233 1.429 . S
C225 C223 1.419 . S
C225 C226 1.363 1_556 S
C225 H228 0.929 . S
C226 C225 1.363 1_554 S
C226 C232 1.428 . S
H227 C223 0.930 . S
H228 C225 0.929 . S
S229 N230 1.613 . S
S229 N231 1.610 . S
N230 S229 1.613 . S
N230 C233 1.350 . S
N231 S229 1.610 . S
N231 C232 1.351 . S
C232 C226 1.428 . S
C232 N231 1.351 . S
C232 C233 1.434 . S
C233 C224 1.429 . S
C233 N230 1.350 . S
C233 C232 1.434 . S
C234 C235 1.369 . S
C234 C236 1.419 . S
C234 H238 0.930 . S
C235 C234 1.369 . S
C235 C244 1.429 . S
C236 C234 1.419 . S
C236 C237 1.363 . S
C236 H239 0.929 . S
C237 C236 1.363 . S
C237 C243 1.428 . S
H238 C234 0.930 . S
H239 C236 0.929 . S
S240 N241 1.613 . S
S240 N242 1.610 . S
N241 S240 1.613 . S
N241 C244 1.350 . S
N242 S240 1.610 . S
N242 C243 1.351 . S
C243 C237 1.428 . S
C243 N242 1.351 . S
C243 C244 1.434 . S
C244 C235 1.429 . S
C244 N241 1.350 . S
C244 C243 1.434 . S
C245 C246 1.369 1_556 S
C245 C247 1.419 . S
C245 H249 0.930 . S
C246 C245 1.369 1_554 S
C246 C255 1.429 . S
C247 C245 1.419 . S
C247 C248 1.363 1_556 S
C247 H250 0.929 . S
C248 C247 1.363 1_554 S
C248 C254 1.428 . S
H249 C245 0.930 . S
H250 C247 0.929 . S
S251 N252 1.613 . S
S251 N253 1.610 . S
N252 S251 1.613 . S
N252 C255 1.350 . S
N253 S251 1.610 . S
N253 C254 1.351 . S
C254 C248 1.428 . S
C254 N253 1.351 . S
C254 C255 1.434 . S
C255 C246 1.429 . S
C255 N252 1.350 . S
C255 C254 1.434 . S
C256 C257 1.369 . S
C256 C258 1.419 . S
C256 H260 0.930 . S
C257 C256 1.369 . S
C257 C266 1.429 . S
C258 C256 1.419 . S
C258 C259 1.363 . S
C258 H261 0.929 . S
C259 C258 1.363 . S
C259 C265 1.428 . S
H260 C256 0.930 . S
H261 C258 0.929 . S
S262 N263 1.613 . S
S262 N264 1.610 . S
N263 S262 1.613 . S
N263 C266 1.350 1_655 S
N264 S262 1.610 . S
N264 C265 1.351 1_655 S
C265 C259 1.428 . S
C265 N264 1.351 1_455 S
C265 C266 1.434 . S
C266 C257 1.429 . S
C266 N263 1.350 1_455 S
C266 C265 1.434 . S
C267 C268 1.369 . S
C267 C269 1.419 . S
C267 H271 0.930 . S
C268 C267 1.369 . S
C268 C277 1.429 . S
C269 C267 1.419 . S
C269 C270 1.363 . S
C269 H272 0.929 . S
C270 C269 1.363 . S
C270 C276 1.428 . S
H271 C267 0.930 . S
H272 C269 0.929 . S
S273 N274 1.613 . S
S273 N275 1.610 . S
N274 S273 1.613 . S
N274 C277 1.350 . S
N275 S273 1.610 . S
N275 C276 1.351 . S
C276 C270 1.428 . S
C276 N275 1.351 . S
C276 C277 1.434 . S
C277 C268 1.429 . S
C277 N274 1.350 . S
C277 C276 1.434 . S
C278 C279 1.369 . S
C278 C280 1.419 . S
C278 H282 0.930 . S
C279 C278 1.369 . S
C279 C288 1.429 . S
C280 C278 1.419 . S
C280 C281 1.363 . S
C280 H283 0.929 . S
C281 C280 1.363 . S
C281 C287 1.428 . S
H282 C278 0.930 . S
H283 C280 0.929 . S
S284 N285 1.613 . S
S284 N286 1.610 . S
N285 S284 1.613 . S
N285 C288 1.350 . S
N286 S284 1.610 . S
N286 C287 1.351 . S
C287 C281 1.428 . S
C287 N286 1.351 . S
C287 C288 1.434 . S
C288 C279 1.429 . S
C288 N285 1.350 . S
C288 C287 1.434 . S
C289 C290 1.369 . S
C289 C291 1.419 . S
C289 H293 0.930 . S
C290 C289 1.369 . S
C290 C299 1.429 . S
C291 C289 1.419 . S
C291 C292 1.363 . S
C291 H294 0.929 . S
C292 C291 1.363 . S
C292 C298 1.428 . S
H293 C289 0.930 . S
H294 C291 0.929 . S
S295 N296 1.613 . S
S295 N297 1.610 . S
N296 S295 1.613 . S
N296 C299 1.350 . S
N297 S295 1.610 . S
N297 C298 1.351 . S
C298 C292 1.428 . S
C298 N297 1.351 . S
C298 C299 1.434 . S
C299 C290 1.429 . S
C299 N296 1.350 . S
C299 C298 1.434 . S
C300 C301 1.369 . S
C300 C302 1.419 . S
C300 H304 0.930 . S
C301 C300 1.369 . S
C301 C310 1.429 . S
C302 C300 1.419 . S
C302 C303 1.363 . S
C302 H305 0.929 . S
C303 C302 1.363 . S
C303 C309 1.428 . S
H304 C300 0.930 . S
H305 C302 0.929 . S
S306 N307 1.613 . S
S306 N308 1.610 . S
N307 S306 1.613 . S
N307 C310 1.350 . S
N308 S306 1.610 . S
N308 C309 1.351 . S
C309 C303 1.428 . S
C309 N308 1.351 . S
C309 C310 1.434 . S
C310 C301 1.429 . S
C310 N307 1.350 . S
C310 C309 1.434 . S
C311 C312 1.369 . S
C311 C313 1.419 . S
C311 H315 0.930 . S
C312 C311 1.369 . S
C312 C321 1.429 . S
C313 C311 1.419 . S
C313 C314 1.363 . S
C313 H316 0.929 . S
C314 C313 1.363 . S
C314 C320 1.428 . S
H315 C311 0.930 . S
H316 C313 0.929 . S
S317 N318 1.613 1_455 S
S317 N319 1.610 1_455 S
N318 S317 1.613 1_655 S
N318 C321 1.350 . S
N319 S317 1.610 1_655 S
N319 C320 1.351 . S
C320 C314 1.428 . S
C320 N319 1.351 . S
C320 C321 1.434 . S
C321 C312 1.429 . S
C321 N318 1.350 . S
C321 C320 1.434 . S
C322 C323 1.369 . S
C322 C324 1.419 . S
C322 H326 0.930 . S
C323 C322 1.369 . S
C323 C332 1.429 . S
C324 C322 1.419 . S
C324 C325 1.363 . S
C324 H327 0.929 . S
C325 C324 1.363 . S
C325 C331 1.428 . S
H326 C322 0.930 . S
H327 C324 0.929 . S
S328 N329 1.613 . S
S328 N330 1.610 . S
N329 S328 1.613 . S
N329 C332 1.350 . S
N330 S328 1.610 . S
N330 C331 1.351 . S
C331 C325 1.428 . S
C331 N330 1.351 . S
C331 C332 1.434 . S
C332 C323 1.429 . S
C332 N329 1.350 . S
C332 C331 1.434 . S
C333 C334 1.369 . S
C333 C335 1.419 . S
C333 H337 0.930 . S
C334 C333 1.369 . S
C334 C343 1.429 . S
C335 C333 1.419 . S
C335 C336 1.363 . S
C335 H338 0.929 . S
C336 C335 1.363 . S
C336 C342 1.428 . S
H337 C333 0.930 . S
H338 C335 0.929 . S
S339 N340 1.613 . S
S339 N341 1.610 . S
N340 S339 1.613 . S
N340 C343 1.350 1_655 S
N341 S339 1.610 . S
N341 C342 1.351 1_655 S
C342 C336 1.428 . S
C342 N341 1.351 1_455 S
C342 C343 1.434 . S
C343 C334 1.429 . S
C343 N340 1.350 1_455 S
C343 C342 1.434 . S
C215 C148 1.677 . S
C213 C133 1.656 . S
C224 C25 1.543 . S
C226 C191 1.594 . S
C235 C61 1.601 . S
C237 C157 1.675 . S
C246 C97 1.595 . S
C248 C182 1.590 . S
C259 C144 1.680 . S
C257 C1 1.618 . S
C270 C186 1.785 . S
C268 C67 1.669 . S
C279 C103 1.646 . S
C281 C152 1.666 . S
C290 C109 1.741 . S
C292 C178 1.776 . S
C303 C207 1.777 . S
C301 C37 1.684 . S
C314 C173 1.681 . S
C312 C73 1.660 . S
C325 C195 1.785 . S
C323 C139 1.743 . S
C334 C31 1.595 . S
C336 C161 1.662 . S
