# Generated by pormake.
# Topology nom, (4,4)-cn, num edge types: 1
# Building blocks:
#     Node 0, Type 0, BuildingBlock: KUFVIS_clean_linker_0, # of connection points: 4
#     Node 1, Type 0, BuildingBlock: KUFVIS_clean_linker_0, # of connection points: 4
#     Node 2, Type 0, BuildingBlock: KUFVIS_clean_linker_0, # of connection points: 4
#     Node 3, Type 0, BuildingBlock: KUFVIS_clean_linker_0, # of connection points: 4
#     Node 4, Type 0, BuildingBlock: KUFVIS_clean_linker_0, # of connection points: 4
#     Node 5, Type 0, BuildingBlock: KUFVIS_clean_linker_0, # of connection points: 4
#     Node 6, Type 1, BuildingBlock: KUFVIS_clean_sbu_0, # of connection points: 4
#     Node 7, Type 1, BuildingBlock: KUFVIS_clean_sbu_0, # of connection points: 4
#     Node 8, Type 1, BuildingBlock: KUFVIS_clean_sbu_0, # of connection points: 4
#     Node 9, Type 1, BuildingBlock: KUFVIS_clean_sbu_0, # of connection points: 4
#     Node 10, Type 1, BuildingBlock: KUFVIS_clean_sbu_0, # of connection points: 4
#     Node 11, Type 1, BuildingBlock: KUFVIS_clean_sbu_0, # of connection points: 4
#     Edge 12, Type (0, 1), BuildingBlock: XIVTED_clean_linker_0, # of connection points: 2
#     Edge 13, Type (0, 1), BuildingBlock: XIVTED_clean_linker_0, # of connection points: 2
#     Edge 14, Type (0, 1), BuildingBlock: XIVTED_clean_linker_0, # of connection points: 2
#     Edge 15, Type (0, 1), BuildingBlock: XIVTED_clean_linker_0, # of connection points: 2
#     Edge 16, Type (0, 1), BuildingBlock: XIVTED_clean_linker_0, # of connection points: 2
#     Edge 17, Type (0, 1), BuildingBlock: XIVTED_clean_linker_0, # of connection points: 2
#     Edge 18, Type (0, 1), BuildingBlock: XIVTED_clean_linker_0, # of connection points: 2
#     Edge 19, Type (0, 1), BuildingBlock: XIVTED_clean_linker_0, # of connection points: 2
#     Edge 20, Type (0, 1), BuildingBlock: XIVTED_clean_linker_0, # of connection points: 2
#     Edge 21, Type (0, 1), BuildingBlock: XIVTED_clean_linker_0, # of connection points: 2
#     Edge 22, Type (0, 1), BuildingBlock: XIVTED_clean_linker_0, # of connection points: 2
#     Edge 23, Type (0, 1), BuildingBlock: XIVTED_clean_linker_0, # of connection points: 2
#     Edge 24, Type (0, 1), BuildingBlock: XIVTED_clean_linker_0, # of connection points: 2
#     Edge 25, Type (0, 1), BuildingBlock: XIVTED_clean_linker_0, # of connection points: 2
#     Edge 26, Type (0, 1), BuildingBlock: XIVTED_clean_linker_0, # of connection points: 2
#     Edge 27, Type (0, 1), BuildingBlock: XIVTED_clean_linker_0, # of connection points: 2
#     Edge 28, Type (0, 1), BuildingBlock: XIVTED_clean_linker_0, # of connection points: 2
#     Edge 29, Type (0, 1), BuildingBlock: XIVTED_clean_linker_0, # of connection points: 2
#     Edge 30, Type (0, 1), BuildingBlock: XIVTED_clean_linker_0, # of connection points: 2
#     Edge 31, Type (0, 1), BuildingBlock: XIVTED_clean_linker_0, # of connection points: 2
#     Edge 32, Type (0, 1), BuildingBlock: XIVTED_clean_linker_0, # of connection points: 2
#     Edge 33, Type (0, 1), BuildingBlock: XIVTED_clean_linker_0, # of connection points: 2
#     Edge 34, Type (0, 1), BuildingBlock: XIVTED_clean_linker_0, # of connection points: 2
#     Edge 35, Type (0, 1), BuildingBlock: XIVTED_clean_linker_0, # of connection points: 2
# Relax obj value: 0.004
# Max RMSD: 0.052
# Mean RMSD: 0.039
data_MOF--net-nom--node1-KUFVIS_clean_sbu_0--node2-KUFVIS_clean_linker_0--edge1-XIVTED_clean_linker_0
_symmetry_space_group_name_H-M    P1
_symmetry_Int_Tables_number       1
_symmetry_cell_setting            triclinic
loop_
_symmetry_equiv_pos_as_xyz
'x, y, z'
_cell_length_a     45.123397
_cell_length_b     45.604348
_cell_length_c     47.430266
_cell_angle_alpha  90.373795
_cell_angle_beta   90.512434
_cell_angle_gamma 120.05778
loop_
_atom_site_label
_atom_site_type_symbol
_atom_site_fract_x
_atom_site_fract_y
_atom_site_fract_z
_atom_type_partial_charge
H0 H 0.14905 0.62003 0.32879 0.0
H1 H 0.07122 0.59489 0.26563 0.0
H2 H 0.04475 0.5512 0.34908 0.0
H3 H 0.99585 0.55149 0.3393 0.0
H4 H 0.91965 0.492 0.27696 0.0
H5 H 0.02523 0.54335 0.254 0.0
C6 C 0.12223 0.60623 0.32244 0.0
C7 C 0.09778 0.58559 0.34185 0.0
C8 C 0.11293 0.6096 0.29505 0.0
C9 C 0.07819 0.59173 0.28682 0.0
C10 C 0.05276 0.57056 0.30626 0.0
C11 C 0.06317 0.56786 0.33389 0.0
C12 C 1.01568 0.55026 0.2978 0.0
C13 C 0.98955 0.54166 0.31792 0.0
C14 C 0.95499 0.51972 0.31064 0.0
C15 C 0.94642 0.50785 0.28292 0.0
C16 C 0.97149 0.5167 0.26249 0.0
C17 C 1.00607 0.5378 0.26986 0.0
H18 H 0.56644 0.14084 0.50723 0.0
H19 H 0.51573 0.07565 0.43685 0.0
H20 H 0.50797 0.03477 0.52106 0.0
H21 H 0.4702 0.98722 0.50556 0.0
H22 H 0.44085 0.92112 0.4339 0.0
H23 H 0.50157 0.02707 0.42104 0.0
C24 C 0.55058 0.1154 0.4987 0.0
C25 C 0.53708 0.08803 0.51693 0.0
C26 C 0.54375 0.11083 0.46983 0.0
C27 C 0.52166 0.078 0.45912 0.0
C28 C 0.50842 0.04916 0.47698 0.0
C29 C 0.51646 0.05513 0.50622 0.0
C30 C 0.48798 1.01332 0.46516 0.0
C31 C 0.47075 0.98462 0.483 0.0
C32 C 0.45499 0.95143 0.47185 0.0
C33 C 0.45338 0.94665 0.4427 0.0
C34 C 0.46948 0.97405 0.42472 0.0
C35 C 0.48741 1.00702 0.43576 0.0
H36 H 0.5527 0.44107 0.61366 0.0
H37 H 0.50799 0.47015 0.67951 0.0
H38 H 0.52559 0.51667 0.5971 0.0
H39 H 0.48001 0.52151 0.60876 0.0
H40 H 0.46757 0.57812 0.67533 0.0
H41 H 0.5166 0.52076 0.69345 0.0
C42 C 0.54192 0.45632 0.62097 0.0
C43 C 0.53966 0.47871 0.60244 0.0
C44 C 0.5308 0.45329 0.64869 0.0
C45 C 0.51713 0.47329 0.65811 0.0
C46 C 0.5146 0.49641 0.63966 0.0
C47 C 0.52609 0.49873 0.61164 0.0
C48 C 0.50096 0.51866 0.64956 0.0
C49 C 0.48454 0.53007 0.63053 0.0
C50 C 0.47348 0.55243 0.63956 0.0
C51 C 0.47777 0.56242 0.66789 0.0
C52 C 0.49244 0.55038 0.68731 0.0
C53 C 0.5044 0.52895 0.67815 0.0
H54 H 0.14106 0.58115 0.77363 0.0
H55 H 0.06919 0.5292 0.83883 0.0
H56 H 0.03409 0.53383 0.7543 0.0
H57 H 0.98661 0.48814 0.76714 0.0
H58 H 0.91517 0.46816 0.83316 0.0
H59 H 1.0221 0.52798 0.85183 0.0
C60 C 0.11473 0.56732 0.78062 0.0
C61 C 0.08821 0.55799 0.76098 0.0
C62 C 0.10801 0.55747 0.80869 0.0
C63 C 0.07386 0.53772 0.81725 0.0
C64 C 0.04627 0.52934 0.79813 0.0
C65 C 0.0541 0.53947 0.76972 0.0
C66 C 1.00973 0.51119 0.8079 0.0
C67 C 0.98204 0.49199 0.78884 0.0
C68 C 0.94794 0.47753 0.79772 0.0
C69 C 0.94143 0.48072 0.82594 0.0
C70 C 0.96808 0.49795 0.84543 0.0
C71 C 1.00206 0.51359 0.83643 0.0
H72 H 0.49417 0.91354 0.0054 0.0
H73 H 0.54013 0.9828 0.93744 0.0
H74 H 0.52871 0.01836 0.01964 0.0
H75 H 0.57525 0.06593 0.00655 0.0
H76 H 0.58858 0.13354 0.93952 0.0
H77 H 0.53502 0.02682 0.92267 0.0
C78 C 0.50588 0.93913 -0.00266 0.0
C79 C 0.51086 0.96543 0.01541 0.0
C80 C 0.51636 0.94516 0.96934 0.0
C81 C 0.53152 0.97838 0.95902 0.0
C82 C 0.53649 1.00565 0.97694 0.0
C83 C 0.52597 0.99855 0.00533 0.0
C84 C 0.55208 0.04126 0.96629 0.0
C85 C 0.57031 0.06947 0.98483 0.0
C86 C 0.58246 0.10268 0.9754 0.0
C87 C 0.57775 0.10784 0.94717 0.0
C88 C 0.56155 0.08074 0.92812 0.0
C89 C 0.54842 0.04749 0.93763 0.0
H90 H 0.49437 0.59885 0.11432 0.0
H91 H 0.55207 0.58288 0.17798 0.0
H92 H 0.53664 0.53585 0.09495 0.0
H93 H 0.58051 0.53017 0.10604 0.0
H94 H 0.6034 0.48249 0.17342 0.0
H95 H 0.55354 0.53855 0.19232 0.0
C96 C 0.50887 0.58691 0.12097 0.0
C97 C 0.51512 0.56758 0.10163 0.0
C98 C 0.52136 0.59172 0.14856 0.0
C99 C 0.54153 0.57765 0.15679 0.0
C100 C 0.54714 0.55653 0.13794 0.0
C101 C 0.53383 0.55212 0.11005 0.0
C102 C 0.56466 0.53752 0.1477 0.0
C103 C 0.57934 0.52466 0.12827 0.0
C104 C 0.59208 0.50372 0.13741 0.0
C105 C 0.59232 0.49748 0.16615 0.0
C106 C 0.57925 0.51072 0.18581 0.0
C107 C 0.56511 0.53027 0.17666 0.0
Mn108 Mn 0.6535 0.4029 0.40246 0.0
Mn109 Mn 0.69196 0.48572 0.42225 0.0
C110 C 0.62714 0.42119 0.43391 0.0
C111 C 0.64273 0.34741 0.40685 0.0
C112 C 0.65378 0.45895 0.36684 0.0
O113 O 0.7031 0.4211 0.39043 0.0
O114 O 0.7257 0.47506 0.40571 0.0
C115 C 0.73539 0.48324 0.46829 0.0
N116 N 0.7114 0.49091 0.45918 0.0
C117 C 0.70886 0.51229 0.50507 0.0
C118 C 0.7337 0.50481 0.51491 0.0
C119 C 0.74693 0.49011 0.49646 0.0
C120 C 0.69827 0.50476 0.47682 0.0
H121 H 0.74564 0.47195 0.45418 0.0
C122 C 0.72847 0.45105 0.39428 0.0
O123 O 0.63774 0.35848 0.38321 0.0
O124 O 0.65548 0.369 0.42771 0.0
N125 N 0.66306 0.50042 0.43896 0.0
C126 C 0.63883 0.50557 0.4263 0.0
C127 C 0.62295 0.52001 0.44191 0.0
C128 C 0.63247 0.52948 0.47024 0.0
C129 C 0.65796 0.52459 0.48265 0.0
C130 C 0.67305 0.51029 0.46599 0.0
H131 H 0.63157 0.49861 0.40447 0.0
O132 O 0.60934 0.39313 0.41977 0.0
O133 O 0.66002 0.43751 0.42985 0.0
O134 O 0.64564 0.42821 0.37068 0.0
O135 O 0.67179 0.48281 0.38443 0.0
C136 C 0.66867 0.53295 0.51101 0.0
C137 C 0.69395 0.52661 0.52226 0.0
H138 H 0.74267 0.51008 0.53662 0.0
H139 H 0.76601 0.48413 0.50392 0.0
H140 H 0.60338 0.52381 0.43214 0.0
H141 H 0.61995 0.54034 0.48229 0.0
H142 H 0.65735 0.5439 0.52445 0.0
H143 H 0.70167 0.53275 0.54419 0.0
Mn144 Mn 0.27978 0.66227 0.55066 0.0
Mn145 Mn 0.23517 0.57853 0.53383 0.0
C146 C 0.2356 0.64183 0.51771 0.0
C147 C 0.32475 0.71765 0.5447 0.0
C148 C 0.223 0.60807 0.58681 0.0
O149 O 0.31125 0.64526 0.56539 0.0
O150 O 0.27968 0.59051 0.55183 0.0
C151 C 0.28151 0.57817 0.49014 0.0
N152 N 0.24969 0.57114 0.49806 0.0
C153 C 0.22586 0.54681 0.45249 0.0
C154 C 0.25833 0.55361 0.4439 0.0
C155 C 0.28629 0.56946 0.46278 0.0
C156 C 0.22267 0.55612 0.48 0.0
H157 H 0.30307 0.59033 0.50458 0.0
C158 C 0.30668 0.6153 0.56292 0.0
O159 O 0.30848 0.70795 0.56828 0.0
O160 O 0.31607 0.69475 0.52501 0.0
N161 N 0.1916 0.56295 0.51578 0.0
C162 C 0.16222 0.55925 0.527 0.0
C163 C 0.13196 0.54428 0.51065 0.0
C164 C 0.13208 0.53287 0.4831 0.0
C165 C 0.16247 0.53645 0.47217 0.0
C166 C 0.19181 0.55141 0.4895 0.0
H167 H 0.16187 0.56777 0.54821 0.0
O168 O 0.24541 0.67044 0.53067 0.0
O169 O 0.25208 0.62613 0.52402 0.0
O170 O 0.24592 0.63866 0.58235 0.0
O171 O 0.21746 0.58346 0.57044 0.0
C172 C 0.16493 0.52621 0.44462 0.0
C173 C 0.19664 0.53154 0.43473 0.0
H174 H 0.26214 0.54696 0.42281 0.0
H175 H 0.31146 0.57492 0.45627 0.0
H176 H 0.10859 0.54156 0.51925 0.0
H177 H 0.10876 0.52159 0.47047 0.0
H178 H 0.1427 0.51467 0.4307 0.0
H179 H 0.19831 0.52403 0.41336 0.0
Mn180 Mn 0.64204 0.2716 0.71994 0.0
Mn181 Mn 0.68288 0.22896 0.70212 0.0
C182 C 0.61601 0.22518 0.68988 0.0
C183 C 0.62814 0.31396 0.71313 0.0
C184 C 0.64582 0.21876 0.75712 0.0
O185 O 0.69171 0.30522 0.7309 0.0
O186 O 0.71577 0.27429 0.71819 0.0
C187 C 0.72446 0.27364 0.6559 0.0
N188 N 0.70146 0.24221 0.66528 0.0
C189 C 0.69942 0.21699 0.62005 0.0
C190 C 0.72325 0.24906 0.60997 0.0
C191 C 0.73571 0.27751 0.62795 0.0
C192 C 0.6891 0.2147 0.64808 0.0
H193 H 0.73415 0.29559 0.66964 0.0
C194 C 0.71773 0.30142 0.72807 0.0
O195 O 0.6256 0.30059 0.73768 0.0
O196 O 0.64045 0.30403 0.69295 0.0
N197 N 0.65494 0.18476 0.68583 0.0
C198 C 0.63115 0.1558 0.69848 0.0
C199 C 0.61574 0.12511 0.68318 0.0
C200 C 0.62528 0.12439 0.65519 0.0
C201 C 0.65022 0.15439 0.64277 0.0
C202 C 0.66479 0.1842 0.65908 0.0
H203 H 0.62384 0.1561 0.72004 0.0
O204 O 0.59776 0.23498 0.70371 0.0
O205 O 0.64904 0.24302 0.69361 0.0
O206 O 0.63724 0.24113 0.75303 0.0
O207 O 0.6636 0.21267 0.73977 0.0
C208 C 0.66082 0.15597 0.61469 0.0
C209 C 0.68525 0.18728 0.60329 0.0
H210 H 0.73198 0.25216 0.58842 0.0
H211 H 0.754 0.30237 0.62029 0.0
H212 H 0.59654 0.10205 0.69293 0.0
H213 H 0.61315 0.10072 0.64338 0.0
H214 H 0.65002 0.13333 0.60157 0.0
H215 H 0.69282 0.18824 0.58155 0.0
Mn216 Mn 0.40739 0.65014 0.9016 0.0
Mn217 Mn 0.36527 0.56626 0.91627 0.0
C218 C 0.43122 0.62813 0.9323 0.0
C219 C 0.42071 0.70608 0.90943 0.0
C220 C 0.40548 0.59503 0.86303 0.0
O221 O 0.35847 0.63496 0.88846 0.0
O222 O 0.33343 0.57987 0.8999 0.0
C223 C 0.32119 0.5676 0.96159 0.0
N224 N 0.34462 0.55932 0.95244 0.0
C225 C 0.34334 0.53297 -0.00345 0.0
C226 C 0.31905 0.54105 0.00639 0.0
C227 C 0.30805 0.55857 -0.01113 0.0
C228 C 0.35564 0.54277 0.96922 0.0
H229 H 0.31256 0.58095 0.94816 0.0
C230 C 0.33219 0.60537 0.89021 0.0
O231 O 0.42495 0.69588 0.88501 0.0
O232 O 0.40725 0.68344 0.92897 0.0
N233 N 0.39223 0.5489 0.9326 0.0
C234 C 0.4168 0.54423 0.92035 0.0
C235 C 0.43105 0.52769 0.93534 0.0
C236 C 0.4195 0.51561 0.96253 0.0
C237 C 0.39379 0.5202 0.9745 0.0
C238 C 0.38056 0.53688 0.95858 0.0
H239 H 0.4256 0.55318 0.89937 0.0
O240 O 0.45047 0.6566 0.91975 0.0
O241 O 0.39853 0.61349 0.92696 0.0
O242 O 0.41437 0.62579 0.86832 0.0
O243 O 0.38644 0.57063 0.87918 0.0
C244 C 0.38107 0.50925 0.00176 0.0
C245 C 0.35605 0.51584 0.01285 0.0
H246 H 0.30882 0.53409 0.02741 0.0
H247 H 0.28941 0.56501 -0.00364 0.0
H248 H 0.45085 0.5242 0.92593 0.0
H249 H 0.43068 0.50302 0.97409 0.0
H250 H 0.39078 0.49623 0.01455 0.0
H251 H 0.34692 0.50781 0.03402 0.0
Mn252 Mn 0.7822 0.40569 0.05832 0.0
Mn253 Mn 0.82884 0.36819 0.07408 0.0
C254 C 0.82705 0.43062 0.09062 0.0
C255 C 0.73604 0.41465 0.06463 0.0
C256 C 0.83891 0.40873 0.02122 0.0
O257 O 0.75145 0.35711 0.04381 0.0
O258 O 0.78415 0.33492 0.05684 0.0
C259 C 0.78433 0.32213 0.11843 0.0
N260 N 0.81569 0.34691 0.10996 0.0
C261 C 0.84136 0.34678 0.15461 0.0
C262 C 0.80938 0.32112 0.16376 0.0
C263 C 0.78072 0.30886 0.14562 0.0
C264 C 0.84336 0.35913 0.12733 0.0
H265 H 0.76226 0.31254 0.10453 0.0
C266 C 0.75667 0.33213 0.0462 0.0
O267 O 0.75226 0.42132 0.041 0.0
O268 O 0.74574 0.40148 0.08435 0.0
N269 N 0.87272 0.39682 0.09136 0.0
C270 C 0.90144 0.42257 0.07976 0.0
C271 C 0.93223 0.43814 0.09541 0.0
C272 C 0.93334 0.42672 0.12262 0.0
C273 C 0.90361 0.39982 0.13393 0.0
C274 C 0.87366 0.38529 0.11735 0.0
H275 H 0.90087 0.43129 0.05877 0.0
O276 O 0.81612 0.44862 0.078 0.0
O277 O 0.81114 0.39842 0.08449 0.0
O278 O 0.81566 0.41604 0.0262 0.0
O279 O 0.84526 0.39014 0.03727 0.0
C280 C 0.90241 0.38713 0.16115 0.0
C281 C 0.87126 0.3608 0.17156 0.0
H282 H 0.80649 0.31078 0.18471 0.0
H283 H 0.75593 0.28915 0.15257 0.0
H284 H 0.95508 0.45885 0.08651 0.0
H285 H 0.95709 0.43891 0.13469 0.0
H286 H 0.92518 0.39784 0.17445 0.0
H287 H 0.87055 0.35167 0.19271 0.0
Mn288 Mn 0.40865 0.78346 0.22887 0.0
Mn289 Mn 0.49255 0.82922 0.24763 0.0
C290 C 0.42788 0.82983 0.25885 0.0
C291 C 0.35211 0.74018 0.23479 0.0
C292 C 0.46465 0.83833 0.19242 0.0
O293 O 0.42599 0.7511 0.21864 0.0
O294 O 0.48148 0.78505 0.23042 0.0
C295 C 0.49109 0.78376 0.29263 0.0
N296 N 0.49876 0.8152 0.28403 0.0
C297 C 0.52343 0.83959 0.32937 0.0
C298 C 0.516 0.80751 0.33867 0.0
C299 C 0.4996 0.77945 0.32025 0.0
C300 C 0.51416 0.84229 0.30168 0.0
H301 H 0.47864 0.76213 0.27853 0.0
C302 C 0.45679 0.75706 0.2208 0.0
O303 O 0.36327 0.7535 0.21033 0.0
O304 O 0.37433 0.75045 0.25541 0.0
N305 N 0.50792 0.87255 0.26501 0.0
C306 C 0.5119 0.90145 0.25321 0.0
C307 C 0.52718 0.93171 0.26911 0.0
C308 C 0.53887 0.93211 0.29674 0.0
C309 C 0.535 0.90218 0.30828 0.0
C310 C 0.51946 0.87276 0.29147 0.0
H311 H 0.50334 0.9014 0.23187 0.0
O312 O 0.39976 0.81903 0.24431 0.0
O313 O 0.44404 0.81305 0.25584 0.0
O314 O 0.4341 0.81417 0.19584 0.0
O315 O 0.48872 0.84623 0.21045 0.0
C316 C 0.54552 0.90025 0.33594 0.0
C317 C 0.53949 0.86894 0.34656 0.0
H318 H 0.52259 0.8041 0.35994 0.0
H319 H 0.49365 0.75458 0.32729 0.0
H320 H 0.5301 0.95471 0.26004 0.0
H321 H 0.5506 0.95549 0.30894 0.0
H322 H 0.55791 0.92263 0.34937 0.0
H323 H 0.54719 0.86769 0.36801 0.0
H324 H 0.15475 0.67718 0.30091 0.0
H325 H 0.3009 0.69998 0.19678 0.0
H326 H 0.13675 0.59213 0.24856 0.0
H327 H 0.31883 0.73211 0.28405 0.0
H328 H 0.23868 0.6693 0.20544 0.0
H329 H 0.21283 0.70938 0.28254 0.0
C330 C 0.1626 0.66585 0.28459 0.0
C331 C 0.14102 0.63204 0.27615 0.0
C332 C 0.25643 0.68301 0.22258 0.0
C333 C 0.20752 0.66839 0.25558 0.0
C334 C 0.29178 0.70033 0.21775 0.0
C335 C 0.31503 0.71835 0.23982 0.0
C336 C 0.24448 0.68488 0.24935 0.0
C337 C 0.3019 0.71825 0.26652 0.0
C338 C 0.19583 0.684 0.27448 0.0
C339 C 0.15259 0.61826 0.25533 0.0
N340 N 0.26754 0.70219 0.27043 0.0
N341 N 0.18538 0.63639 0.24592 0.0
H342 H 0.61159 0.15689 0.46866 0.0
H343 H 0.59477 0.29329 0.37581 0.0
H344 H 0.51514 0.13475 0.43101 0.0
H345 H 0.66444 0.31886 0.4466 0.0
H346 H 0.5722 0.23289 0.38531 0.0
H347 H 0.6384 0.21363 0.44881 0.0
C348 C 0.59621 0.16379 0.45566 0.0
C349 C 0.56096 0.14129 0.45181 0.0
C350 C 0.59267 0.2518 0.3985 0.0
C351 C 0.59156 0.20629 0.42908 0.0
C352 C 0.6057 0.28621 0.39306 0.0
C353 C 0.63148 0.31111 0.41053 0.0
C354 C 0.60609 0.2423 0.42116 0.0
C355 C 0.6445 0.30052 0.4327 0.0
C356 C 0.6115 0.19622 0.4445 0.0
C357 C 0.54235 0.15137 0.43451 0.0
N358 N 0.63172 0.26693 0.43734 0.0
N359 N 0.55781 0.1834 0.424 0.0
H360 H 0.41943 0.51372 0.6038 0.0
H361 H 0.36986 0.6589 0.58742 0.0
H362 H 0.48379 0.61645 0.63362 0.0
H363 H 0.30651 0.55544 0.5583 0.0
H364 H 0.41437 0.64555 0.60093 0.0
H365 H 0.38109 0.53064 0.58178 0.0
C366 C 0.42594 0.54001 0.60509 0.0
C367 C 0.45462 0.56363 0.62077 0.0
C368 C 0.39071 0.62586 0.59149 0.0
C369 C 0.41045 0.58307 0.59636 0.0
C370 C 0.36523 0.63344 0.5839 0.0
C371 C 0.33414 0.60826 0.57193 0.0
C372 C 0.3851 0.5929 0.58704 0.0
C373 C 0.32981 0.57574 0.56767 0.0
C374 C 0.40385 0.54963 0.59282 0.0
C375 C 0.46164 0.59734 0.62202 0.0
N376 N 0.35486 0.56905 0.57527 0.0
N377 N 0.4395 0.60596 0.61033 0.0
H378 H 0.93483 0.42246 0.76499 0.0
H379 H 0.73615 0.36521 0.74851 0.0
H380 H 0.89253 0.48517 0.78891 0.0
H381 H 0.77901 0.30306 0.72351 0.0
H382 H 0.79406 0.41154 0.75946 0.0
H383 H 0.8792 0.38121 0.74409 0.0
C384 C 0.9141 0.42796 0.76508 0.0
C385 C 0.91811 0.45707 0.77878 0.0
C386 C 0.79074 0.38776 0.75147 0.0
C387 C 0.85428 0.40978 0.75576 0.0
C388 C 0.75763 0.36122 0.74535 0.0
C389 C 0.75248 0.32995 0.73532 0.0
C390 C 0.81898 0.38306 0.74758 0.0
C391 C 0.78149 0.32651 0.73142 0.0
C392 C 0.88223 0.40428 0.75349 0.0
C393 C 0.89031 0.46284 0.77868 0.0
N394 N 0.81335 0.35261 0.73766 0.0
N395 N 0.85949 0.43923 0.76773 0.0
H396 H 0.47842 0.91945 0.92037 0.0
H397 H 0.4384 0.73775 0.96065 0.0
H398 H 0.54008 0.90246 0.98069 0.0
H399 H 0.4346 0.75728 0.87218 0.0
H400 H 0.46653 0.79862 0.97038 0.0
H401 H 0.45569 0.86104 0.90221 0.0
C402 C 0.48805 0.90387 0.92906 0.0
C403 C 0.51098 0.91559 0.95212 0.0
C404 C 0.45942 0.78954 0.94884 0.0
C405 C 0.48422 0.84903 0.93251 0.0
C406 C 0.44304 0.75481 0.94331 0.0
C407 C 0.43418 0.74247 0.91558 0.0
C408 C 0.46634 0.81214 0.9266 0.0
C409 C 0.44113 0.76586 0.89387 0.0
C410 C 0.47484 0.87055 0.91895 0.0
C411 C 0.52226 0.89426 0.963 0.0
N412 N 0.45663 0.7997 0.89984 0.0
N413 N 0.50819 0.86181 0.95357 0.0
H414 H 0.57281 0.43711 0.13423 0.0
H415 H 0.72641 0.46139 0.03636 0.0
H416 H 0.64214 0.53338 0.09722 0.0
H417 H 0.68613 0.39029 0.10452 0.0
H418 H 0.68626 0.48107 0.04807 0.0
H419 H 0.60385 0.4124 0.1117 0.0
C420 C 0.59417 0.45286 0.12079 0.0
C421 C 0.60528 0.48746 0.11788 0.0
C422 C 0.68603 0.46092 0.0602 0.0
C423 C 0.641 0.45933 0.09218 0.0
C424 C 0.70876 0.44955 0.0535 0.0
C425 C 0.70966 0.42424 0.06961 0.0
C426 C 0.66359 0.44634 0.08276 0.0
C427 C 0.68642 0.40996 0.09168 0.0
C428 C 0.61196 0.43879 0.10811 0.0
C429 C 0.63283 0.50663 0.10001 0.0
N430 N 0.66432 0.42118 0.09758 0.0
N431 N 0.65012 0.49239 0.08805 0.0
H432 H 0.47434 0.90415 0.46907 0.0
H433 H 0.33249 0.7733 0.57369 0.0
H434 H 0.40757 0.92911 0.51471 0.0
H435 H 0.37273 0.74436 0.50339 0.0
H436 H 0.36883 0.83303 0.56101 0.0
H437 H 0.44709 0.84867 0.49111 0.0
C438 C 0.45419 0.89805 0.48412 0.0
C439 C 0.44279 0.92101 0.48976 0.0
C440 C 0.36992 0.81358 0.5486 0.0
C441 C 0.41133 0.85734 0.51504 0.0
C442 C 0.34938 0.77952 0.55588 0.0
C443 C 0.34952 0.75381 0.53948 0.0
C444 C 0.39115 0.82194 0.52507 0.0
C445 C 0.37169 0.76332 0.51653 0.0
C446 C 0.43858 0.86634 0.4966 0.0
C447 C 0.41698 0.91205 0.50974 0.0
N448 N 0.39157 0.79657 0.51002 0.0
N449 N 0.40177 0.88065 0.52148 0.0
H450 H 0.50378 0.38593 0.63991 0.0
H451 H 0.61717 0.35393 0.75053 0.0
H452 H 0.56948 0.46688 0.69722 0.0
H453 H 0.60493 0.32337 0.66296 0.0
H454 H 0.58815 0.38651 0.74033 0.0
H455 H 0.5261 0.35116 0.65929 0.0
C456 C 0.52202 0.39588 0.65733 0.0
C457 C 0.53499 0.42932 0.66691 0.0
C458 C 0.59201 0.37267 0.72348 0.0
C459 C 0.56097 0.38994 0.6888 0.0
C460 C 0.60857 0.35424 0.7292 0.0
C461 C 0.61366 0.33616 0.70748 0.0
C462 C 0.57955 0.37191 0.69612 0.0
C463 C 0.60188 0.3372 0.68026 0.0
C464 C 0.53502 0.37623 0.66809 0.0
C465 C 0.55878 0.44114 0.6894 0.0
N466 N 0.58505 0.35441 0.67545 0.0
N467 N 0.57146 0.42157 0.69943 0.0
H468 H 0.16366 0.62016 0.8173 0.0
H469 H 0.27033 0.54721 0.89502 0.0
H470 H 0.12018 0.51626 0.8429 0.0
H471 H 0.3154 0.6503 0.86617 0.0
H472 H 0.2142 0.53728 0.88068 0.0
H473 H 0.21761 0.63359 0.84063 0.0
C474 C 0.16535 0.60031 0.82834 0.0
C475 C 0.13756 0.56698 0.82801 0.0
C476 C 0.23629 0.56212 0.87754 0.0
C477 C 0.19938 0.58204 0.85438 0.0
C478 C 0.26855 0.56786 0.88562 0.0
C479 C 0.29795 0.59964 0.88154 0.0
C480 C 0.2331 0.58825 0.86517 0.0
C481 C 0.29362 0.62535 0.86955 0.0
C482 C 0.19619 0.60795 0.84152 0.0
C483 C 0.14096 0.54227 0.84274 0.0
N484 N 0.26183 0.61902 0.86165 0.0
N485 N 0.17149 0.5502 0.85503 0.0
H486 H 0.57172 0.15584 0.98342 0.0
H487 H 0.75854 0.27324 0.04972 0.0
H488 H 0.63963 0.11921 0.00746 0.0
H489 H 0.69184 0.31124 0.0246 0.0
H490 H 0.71333 0.2161 0.03812 0.0
H491 H 0.6124 0.21144 0.00352 0.0
C492 C 0.59492 0.15938 -0.00645 0.0
C493 C 0.60247 0.133 -0.00631 0.0
C494 C 0.70848 0.23686 0.03515 0.0
C495 C 0.64948 0.19673 0.01618 0.0
C496 C 0.73442 0.26971 0.04164 0.0
C497 C 0.72925 0.29742 0.03794 0.0
C498 C 0.67688 0.23133 0.02477 0.0
C499 C 0.69719 0.29083 0.02761 0.0
C500 C 0.61823 0.19116 0.00483 0.0
C501 C 0.63278 0.13881 0.00706 0.0
N502 N 0.67227 0.25848 0.0213 0.0
N503 N 0.65542 0.17021 0.01744 0.0
H504 H 0.5643 0.65055 0.17747 0.0
H505 H 0.41313 0.69144 0.20225 0.0
H506 H 0.45761 0.57872 0.16187 0.0
H507 H 0.51954 0.76144 0.22222 0.0
H508 H 0.42835 0.64828 0.19053 0.0
H509 H 0.54791 0.68953 0.19879 0.0
C510 C 0.53742 0.64265 0.17933 0.0
C511 C 0.51227 0.61155 0.1679 0.0
C512 C 0.44832 0.67309 0.1976 0.0
C513 C 0.49327 0.6561 0.19133 0.0
C514 C 0.43964 0.69781 0.20414 0.0
C515 C 0.46503 0.73032 0.21303 0.0
C516 C 0.48266 0.68091 0.19988 0.0
C517 C 0.49898 0.73689 0.21529 0.0
C518 C 0.52802 0.66499 0.19116 0.0
C519 C 0.47775 0.60262 0.1704 0.0
N520 N 0.50676 0.71253 0.20866 0.0
N521 N 0.46929 0.62492 0.18149 0.0
H522 H 0.94076 0.55943 0.34533 0.0
H523 H 0.7489 0.40915 0.36948 0.0
H524 H 0.90424 0.45544 0.32121 0.0
H525 H 0.7881 0.51179 0.39973 0.0
H526 H 0.80681 0.42461 0.35483 0.0
H527 H 0.88679 0.54142 0.36991 0.0
C528 C 0.92174 0.53273 0.34585 0.0
C529 C 0.92674 0.50893 0.33103 0.0
C530 C 0.8027 0.44366 0.36483 0.0
C531 C 0.86472 0.48818 0.35836 0.0
C532 C 0.76958 0.43486 0.3731 0.0
C533 C 0.76335 0.4592 0.38562 0.0
C534 C 0.82981 0.47708 0.36901 0.0
C535 C 0.79138 0.49211 0.38995 0.0
C536 C 0.89078 0.52245 0.35961 0.0
C537 C 0.90113 0.47464 0.33213 0.0
N538 N 0.8232 0.50008 0.38152 0.0
N539 N 0.87109 0.46535 0.34517 0.0
H540 H 0.14341 0.56598 0.35586 0.0
H541 H 0.1724 0.63629 0.51448 0.0
H542 H 0.08072 0.60278 0.39207 0.0
H543 H 0.2473 0.62724 0.46533 0.0
H544 H 0.13336 0.61692 0.47315 0.0
H545 H 0.17499 0.57778 0.40037 0.0
C546 C 0.13578 0.57574 0.37356 0.0
C547 C 0.10972 0.58368 0.37043 0.0
C548 C 0.15831 0.61912 0.47152 0.0
C549 C 0.14609 0.59795 0.42116 0.0
C550 C 0.18048 0.63019 0.49495 0.0
C551 C 0.21231 0.63194 0.49332 0.0
C552 C 0.16853 0.61029 0.44648 0.0
C553 C 0.22232 0.62485 0.46756 0.0
C554 C 0.15398 0.5828 0.39884 0.0
C555 C 0.10068 0.59628 0.39385 0.0
N556 N 0.20036 0.61401 0.4452 0.0
N557 N 0.11921 0.60349 0.41829 0.0
H558 H 0.49278 0.07436 0.56046 0.0
H559 H 0.55884 0.16215 0.69173 0.0
H560 H 0.60003 0.12035 0.54136 0.0
H561 H 0.63656 0.23236 0.63603 0.0
H562 H 0.53554 0.1199 0.65291 0.0
H563 H 0.50832 0.10328 0.60676 0.0
C564 C 0.51955 0.08942 0.56654 0.0
C565 C 0.54525 0.09527 0.54723 0.0
C566 C 0.55755 0.14463 0.64926 0.0
C567 C 0.56302 0.12874 0.5992 0.0
C568 C 0.57082 0.16856 0.67128 0.0
C569 C 0.60035 0.2 0.66708 0.0
C570 C 0.57398 0.15277 0.62311 0.0
C571 C 0.61458 0.20779 0.64025 0.0
C572 C 0.52838 0.10605 0.59279 0.0
C573 C 0.57955 0.11543 0.5557 0.0
N574 N 0.60157 0.18412 0.61937 0.0
N575 N 0.58741 0.13211 0.58079 0.0
H576 H 0.51812 0.61221 0.7127 0.0
H577 H 0.39644 0.53355 0.84523 0.0
H578 H 0.46175 0.50521 0.7295 0.0
H579 H 0.44995 0.63994 0.8248 0.0
H580 H 0.42494 0.52299 0.8062 0.0
H581 H 0.5006 0.62343 0.7582 0.0
C582 C 0.50286 0.59118 0.72645 0.0
C583 C 0.49118 0.55778 0.71745 0.0
C584 C 0.43045 0.54863 0.81032 0.0
C585 C 0.47002 0.57017 0.76897 0.0
C586 C 0.41398 0.55468 0.83248 0.0
C587 C 0.42051 0.58768 0.83823 0.0
C588 C 0.45365 0.57575 0.79378 0.0
C589 C 0.44382 0.61404 0.82111 0.0
C590 C 0.49254 0.5975 0.75226 0.0
C591 C 0.47136 0.53133 0.73585 0.0
N592 N 0.45945 0.60747 0.79967 0.0
N593 N 0.46085 0.53804 0.7606 0.0
H594 H 0.92767 0.51938 0.86947 0.0
H595 H 0.8942 0.40342 0.00425 0.0
H596 H 0.98627 0.47086 0.88864 0.0
H597 H 0.83544 0.45146 0.98269 0.0
H598 H 0.9323 0.4325 0.96507 0.0
H599 H 0.89959 0.5016 0.91499 0.0
C600 C 0.93529 0.50581 0.88374 0.0
C601 C 0.95918 0.49648 0.87545 0.0
C602 C 0.91111 0.43671 0.969 0.0
C603 C 0.92638 0.47494 0.92702 0.0
C604 C 0.88915 0.41991 -0.00876 0.0
C605 C 0.86127 0.42467 -0.00331 0.0
C606 C 0.90519 0.45844 0.95204 0.0
C607 C 0.85636 0.4467 0.97925 0.0
C608 C 0.91904 0.49533 0.90957 0.0
C609 C 0.96809 0.47868 0.89446 0.0
N610 N 0.87801 0.46264 0.95772 0.0
N611 N 0.95123 0.46794 0.91924 0.0
H612 H 0.44766 0.92477 0.03653 0.0
H613 H 0.5253 0.89458 0.17802 0.0
H614 H 0.55393 0.98498 0.06096 0.0
H615 H 0.42004 0.83263 0.15026 0.0
H616 H 0.53524 0.93214 0.13833 0.0
H617 H 0.43542 0.89685 0.0822 0.0
C618 C 0.46817 0.93285 0.05202 0.0
C619 C 0.50177 0.95717 0.04521 0.0
C620 C 0.50997 0.91035 0.14099 0.0
C621 C 0.48842 0.9245 0.09692 0.0
C622 C 0.50431 0.8887 0.16353 0.0
C623 C 0.47182 0.86011 0.16742 0.0
C624 C 0.48299 0.90344 0.12216 0.0
C625 C 0.44558 0.85412 0.14807 0.0
C626 C 0.46133 0.91665 0.07791 0.0
C627 C 0.52764 0.96652 0.06566 0.0
N628 N 0.45178 0.87554 0.1263 0.0
N629 N 0.52055 0.94974 0.09051 0.0
H630 H 0.61051 0.55652 0.22893 0.0
H631 H 0.61019 0.4146 0.32675 0.0
H632 H 0.55415 0.44938 0.21039 0.0
H633 H 0.66475 0.52104 0.34921 0.0
H634 H 0.58588 0.42718 0.28594 0.0
H635 H 0.62554 0.54435 0.27564 0.0
C636 C 0.60053 0.53042 0.23508 0.0
C637 C 0.58131 0.50387 0.21592 0.0
C638 C 0.60311 0.44786 0.29978 0.0
C639 C 0.59888 0.4898 0.26863 0.0
C640 C 0.61724 0.44071 0.32308 0.0
C641 C 0.6399 0.46683 0.3414 0.0
C642 C 0.61174 0.48144 0.29446 0.0
C643 C 0.64764 0.5001 0.33556 0.0
C644 C 0.60938 0.52349 0.26154 0.0
C645 C 0.56925 0.47051 0.2246 0.0
N646 N 0.63372 0.50649 0.31249 0.0
N647 N 0.57856 0.46445 0.25018 0.0
H648 H 0.51884 0.96716 0.39941 0.0
H649 H 0.44598 0.82724 0.31287 0.0
H650 H 0.42153 0.96062 0.38367 0.0
H651 H 0.42654 0.88897 0.25576 0.0
H652 H 0.46202 0.87073 0.34974 0.0
H653 H 0.5115 0.93547 0.3555 0.0
C654 C 0.49671 0.96034 0.38598 0.0
C655 C 0.47084 0.96656 0.39477 0.0
C656 C 0.45467 0.87488 0.32899 0.0
C657 C 0.46207 0.92998 0.34534 0.0
C658 C 0.44571 0.85029 0.30804 0.0
C659 C 0.43681 0.8556 0.28103 0.0
C660 C 0.45355 0.90439 0.32305 0.0
C661 C 0.43448 0.88472 0.27621 0.0
C662 C 0.49237 0.94198 0.36124 0.0
C663 C 0.4421 0.95647 0.3772 0.0
N664 N 0.44283 0.90825 0.29715 0.0
N665 N 0.43823 0.93824 0.35325 0.0
H666 H 0.50186 0.45822 0.55365 0.0
H667 H 0.57026 0.42767 0.43047 0.0
H668 H 0.60449 0.49928 0.58666 0.0
H669 H 0.64692 0.43346 0.48861 0.0
H670 H 0.54656 0.44646 0.46833 0.0
H671 H 0.51978 0.44404 0.5094 0.0
C672 C 0.5285 0.4655 0.55102 0.0
C673 C 0.55188 0.48009 0.57353 0.0
C674 C 0.56825 0.44322 0.47297 0.0
C675 C 0.57247 0.46344 0.5236 0.0
C676 C 0.58181 0.43267 0.45136 0.0
C677 C 0.61119 0.43035 0.45645 0.0
C678 C 0.58397 0.45069 0.49983 0.0
C679 C 0.62495 0.43622 0.48377 0.0
C680 C 0.53872 0.45719 0.52587 0.0
C681 C 0.58585 0.48822 0.56961 0.0
N682 N 0.61145 0.44649 0.50438 0.0
N683 N 0.59498 0.47929 0.54531 0.0
H684 H 0.0706 0.51408 0.71639 0.0
H685 H 0.22435 0.65354 0.62559 0.0
H686 H 0.12882 0.62014 0.73862 0.0
H687 H 0.16875 0.54709 0.60322 0.0
H688 H 0.18509 0.64237 0.66419 0.0
H689 H 0.10007 0.52654 0.67105 0.0
C690 C 0.08874 0.54013 0.71125 0.0
C691 C 0.09747 0.56615 0.73113 0.0
C692 C 0.18139 0.62142 0.65083 0.0
C693 C 0.13191 0.58048 0.68001 0.0
C694 C 0.204 0.62775 0.62882 0.0
C695 C 0.20017 0.60118 0.61119 0.0
C696 C 0.15468 0.58824 0.65544 0.0
C697 C 0.17297 0.56835 0.61638 0.0
C698 C 0.10589 0.5472 0.68559 0.0
C699 C 0.12152 0.59941 0.72377 0.0
N700 N 0.15136 0.5628 0.6381 0.0
N701 N 0.13823 0.60557 0.69896 0.0
H702 H 0.5925 0.06678 0.88528 0.0
H703 H 0.60159 0.21872 0.79633 0.0
H704 H 0.53427 0.11577 0.90372 0.0
H705 H 0.6556 0.16637 0.77333 0.0
H706 H 0.57356 0.17815 0.83376 0.0
H707 H 0.61027 0.09759 0.84076 0.0
C708 C 0.58239 0.08302 0.87936 0.0
C709 C 0.562 0.0889 0.89804 0.0
C710 C 0.59151 0.17547 0.82053 0.0
C711 C 0.58312 0.12508 0.848 0.0
C712 C 0.60784 0.1989 0.79926 0.0
C713 C 0.63128 0.19623 0.78168 0.0
C714 C 0.59868 0.14914 0.82448 0.0
C715 C 0.63794 0.16965 0.78645 0.0
C716 C 0.59294 0.101 0.85421 0.0
C717 C 0.55004 0.11064 0.88977 0.0
N718 N 0.62179 0.14721 0.80744 0.0
N719 N 0.56123 0.12837 0.86557 0.0
H720 H 0.44893 0.54223 0.08607 0.0
H721 H 0.4883 0.62152 0.93209 0.0
H722 H 0.55074 0.58847 0.05243 0.0
H723 H 0.40696 0.61208 0.98502 0.0
H724 H 0.50886 0.60026 0.97098 0.0
H725 H 0.42884 0.5552 0.04269 0.0
C726 C 0.46674 0.55399 0.069 0.0
C727 C 0.5015 0.56453 0.07273 0.0
C728 C 0.48646 0.60276 0.97393 0.0
C729 C 0.47884 0.57973 0.02315 0.0
C730 C 0.47485 0.6149 0.95191 0.0
C731 C 0.4452 0.61711 0.95526 0.0
C732 C 0.46827 0.59319 -0.00075 0.0
C733 C 0.42911 0.60932 0.98138 0.0
C734 C 0.45538 0.56169 0.04436 0.0
C735 C 0.5237 0.57989 0.05015 0.0
N736 N 0.44062 0.59734 0.0023 0.0
N737 N 0.51207 0.5875 0.02627 0.0
H738 H 0.93163 0.45114 0.24647 0.0
H739 H 0.88903 0.48934 0.09198 0.0
H740 H 0.98357 0.55242 0.21354 0.0
H741 H 0.81934 0.4057 0.14309 0.0
H742 H 0.93035 0.51096 0.13183 0.0
H743 H 0.89828 0.43082 0.20288 0.0
C744 C 0.93671 0.46889 0.22958 0.0
C745 C 0.96001 0.50349 0.23357 0.0
C746 C 0.90603 0.48784 0.13419 0.0
C747 C 0.92191 0.4805 0.18366 0.0
C748 C 0.88258 0.47562 0.11162 0.0
C749 C 0.85159 0.44508 0.11418 0.0
C750 C 0.89798 0.46938 0.15929 0.0
C751 C 0.84367 0.42861 0.14007 0.0
C752 C 0.91751 0.45736 0.2048 0.0
C753 C 0.96579 0.52552 0.21112 0.0
N754 N 0.86688 0.44076 0.16156 0.0
N755 N 0.94647 0.5137 0.18707 0.0
loop_
_geom_bond_atom_site_label_1
_geom_bond_atom_site_label_2
_geom_bond_distance
_geom_bond_site_symmetry_2
_ccdc_geom_bond_type
H0 C6 0.930 . S
H1 C9 0.931 . S
H2 C11 0.931 . S
H3 C13 0.930 . S
H4 C15 0.930 . S
H5 C17 0.931 . S
C6 H0 0.930 . S
C6 C7 1.380 . S
C6 C8 1.394 . S
C7 C6 1.380 . S
C7 C11 1.382 . S
C8 C6 1.394 . S
C8 C9 1.400 . S
C9 H1 0.931 . S
C9 C8 1.400 . S
C9 C10 1.375 . S
C10 C9 1.375 . S
C10 C11 1.415 . S
C10 C12 1.501 1_455 S
C11 H2 0.931 . S
C11 C7 1.382 . S
C11 C10 1.415 . S
C12 C10 1.501 1_655 S
C12 C13 1.384 . S
C12 C17 1.408 . S
C13 H3 0.930 . S
C13 C12 1.384 . S
C13 C14 1.389 . S
C14 C13 1.389 . S
C14 C15 1.405 . S
C15 H4 0.930 . S
C15 C14 1.405 . S
C15 C16 1.364 . S
C16 C15 1.364 . S
C16 C17 1.400 . S
C17 H5 0.931 . S
C17 C12 1.408 . S
C17 C16 1.400 . S
H18 C24 0.930 . S
H19 C27 0.931 . S
H20 C29 0.931 . S
H21 C31 0.930 . S
H22 C33 0.930 . S
H23 C35 0.931 1_545 S
C24 H18 0.930 . S
C24 C25 1.380 . S
C24 C26 1.394 . S
C25 C24 1.380 . S
C25 C29 1.382 . S
C26 C24 1.394 . S
C26 C27 1.400 . S
C27 H19 0.931 . S
C27 C26 1.400 . S
C27 C28 1.375 . S
C28 C27 1.375 . S
C28 C29 1.415 . S
C28 C30 1.501 1_545 S
C29 H20 0.931 . S
C29 C25 1.382 . S
C29 C28 1.415 . S
C30 C28 1.501 1_565 S
C30 C31 1.384 . S
C30 C35 1.408 . S
C31 H21 0.930 . S
C31 C30 1.384 . S
C31 C32 1.389 . S
C32 C31 1.389 . S
C32 C33 1.405 . S
C33 H22 0.930 . S
C33 C32 1.405 . S
C33 C34 1.364 . S
C34 C33 1.364 . S
C34 C35 1.400 . S
C35 H23 0.931 1_565 S
C35 C30 1.408 . S
C35 C34 1.400 . S
H36 C42 0.930 . S
H37 C45 0.931 . S
H38 C47 0.931 . S
H39 C49 0.930 . S
H40 C51 0.930 . S
H41 C53 0.931 . S
C42 H36 0.930 . S
C42 C43 1.380 . S
C42 C44 1.394 . S
C43 C42 1.380 . S
C43 C47 1.382 . S
C44 C42 1.394 . S
C44 C45 1.400 . S
C45 H37 0.931 . S
C45 C44 1.400 . S
C45 C46 1.375 . S
C46 C45 1.375 . S
C46 C47 1.415 . S
C46 C48 1.501 . S
C47 H38 0.931 . S
C47 C43 1.382 . S
C47 C46 1.415 . S
C48 C46 1.501 . S
C48 C49 1.384 . S
C48 C53 1.408 . S
C49 H39 0.930 . S
C49 C48 1.384 . S
C49 C50 1.389 . S
C50 C49 1.389 . S
C50 C51 1.405 . S
C51 H40 0.930 . S
C51 C50 1.405 . S
C51 C52 1.364 . S
C52 C51 1.364 . S
C52 C53 1.400 . S
C53 H41 0.931 . S
C53 C48 1.408 . S
C53 C52 1.400 . S
H54 C60 0.930 . S
H55 C63 0.931 . S
H56 C65 0.931 . S
H57 C67 0.930 . S
H58 C69 0.930 . S
H59 C71 0.952 . S
C60 H54 0.930 . S
C60 C61 1.380 . S
C60 C62 1.394 . S
C61 C60 1.380 . S
C61 C65 1.382 . S
C62 C60 1.394 . S
C62 C63 1.400 . S
C63 H55 0.931 . S
C63 C62 1.400 . S
C63 C64 1.375 . S
C64 C63 1.375 . S
C64 C65 1.415 . S
C64 C66 1.501 1_455 S
C65 H56 0.931 . S
C65 C61 1.382 . S
C65 C64 1.415 . S
C66 C64 1.501 1_655 S
C66 C67 1.384 . S
C66 C71 1.408 . S
C67 H57 0.930 . S
C67 C66 1.384 . S
C67 C68 1.389 . S
C68 C67 1.389 . S
C68 C69 1.405 . S
C69 H58 0.930 . S
C69 C68 1.405 . S
C69 C70 1.364 . S
C70 C69 1.364 . S
C70 C71 1.400 . S
C71 H59 0.952 . S
C71 C66 1.408 . S
C71 C70 1.400 . S
H72 C78 0.930 . S
H73 C81 0.931 . S
H74 C83 0.931 1_545 S
H75 C85 0.930 . S
H76 C87 0.930 . S
H77 C89 0.931 . S
C78 H72 0.930 . S
C78 C79 1.380 . S
C78 C80 1.394 1_554 S
C79 C78 1.380 . S
C79 C83 1.382 . S
C80 C78 1.394 1_556 S
C80 C81 1.400 . S
C81 H73 0.931 . S
C81 C80 1.400 . S
C81 C82 1.375 . S
C82 C81 1.375 . S
C82 C83 1.415 1_556 S
C82 C84 1.501 1_565 S
C83 H74 0.931 1_565 S
C83 C79 1.382 . S
C83 C82 1.415 1_554 S
C84 C82 1.501 1_545 S
C84 C85 1.384 1_556 S
C84 C89 1.408 . S
C85 H75 0.930 . S
C85 C84 1.384 1_554 S
C85 C86 1.389 1_554 S
C86 C85 1.389 1_556 S
C86 C87 1.405 . S
C87 H76 0.930 . S
C87 C86 1.405 . S
C87 C88 1.364 . S
C88 C87 1.364 . S
C88 C89 1.400 . S
C89 H77 0.931 . S
C89 C84 1.408 . S
C89 C88 1.400 . S
H90 C96 0.930 . S
H91 C99 0.931 . S
H92 C101 0.931 . S
H93 C103 0.930 . S
H94 C105 0.930 . S
H95 C107 0.931 . S
C96 H90 0.930 . S
C96 C97 1.380 . S
C96 C98 1.394 . S
C97 C96 1.380 . S
C97 C101 1.382 . S
C98 C96 1.394 . S
C98 C99 1.400 . S
C99 H91 0.931 . S
C99 C98 1.400 . S
C99 C100 1.375 . S
C100 C99 1.375 . S
C100 C101 1.415 . S
C100 C102 1.501 . S
C101 H92 0.931 . S
C101 C97 1.382 . S
C101 C100 1.415 . S
C102 C100 1.501 . S
C102 C103 1.384 . S
C102 C107 1.408 . S
C103 H93 0.930 . S
C103 C102 1.384 . S
C103 C104 1.389 . S
C104 C103 1.389 . S
C104 C105 1.405 . S
C105 H94 0.930 . S
C105 C104 1.405 . S
C105 C106 1.364 . S
C106 C105 1.364 . S
C106 C107 1.400 . S
C107 H95 0.931 . S
C107 C102 1.408 . S
C107 C106 1.400 . S
Mn108 O113 2.095 . S
Mn108 O123 2.162 . S
Mn108 O124 2.297 . S
Mn108 O132 2.385 . S
Mn108 O133 2.209 . S
Mn108 O134 2.094 . S
Mn109 O114 2.121 . S
Mn109 N116 2.257 . S
Mn109 N125 2.282 . S
Mn109 O133 2.215 . S
Mn109 O135 2.117 . S
C110 O132 1.234 . S
C110 O133 1.283 . S
C111 O123 1.281 . S
C111 O124 1.236 . S
C112 O134 1.240 . S
C112 O135 1.264 . S
O113 Mn108 2.095 . S
O113 C122 1.250 . S
O114 Mn109 2.121 . S
O114 C122 1.258 . S
C115 N116 1.326 . S
C115 C119 1.460 . S
C115 H121 0.929 . S
N116 Mn109 2.257 . S
N116 C115 1.326 . S
N116 C120 1.362 . S
C117 C118 1.258 . S
C117 C120 1.431 . S
C117 C137 1.449 . S
C118 C117 1.258 . S
C118 C119 1.477 . S
C118 H138 0.931 . S
C119 C115 1.460 . S
C119 C118 1.477 . S
C119 H139 0.930 . S
C120 N116 1.362 . S
C120 C117 1.431 . S
C120 C130 1.476 . S
H121 C115 0.929 . S
C122 O113 1.250 . S
C122 O114 1.258 . S
O123 Mn108 2.162 . S
O123 C111 1.281 . S
O124 Mn108 2.297 . S
O124 C111 1.236 . S
N125 Mn109 2.282 . S
N125 C126 1.328 . S
N125 C130 1.318 . S
C126 N125 1.328 . S
C126 C127 1.457 . S
C126 H131 0.929 . S
C127 C126 1.457 . S
C127 C128 1.291 . S
C127 H140 0.931 . S
C128 C127 1.291 . S
C128 C129 1.373 . S
C128 H141 0.929 . S
C129 C128 1.373 . S
C129 C130 1.396 . S
C129 C136 1.403 . S
C130 C120 1.476 . S
C130 N125 1.318 . S
C130 C129 1.396 . S
H131 C126 0.929 . S
O132 Mn108 2.385 . S
O132 C110 1.234 . S
O133 Mn108 2.209 . S
O133 Mn109 2.215 . S
O133 C110 1.283 . S
O134 Mn108 2.094 . S
O134 C112 1.240 . S
O135 Mn109 2.117 . S
O135 C112 1.264 . S
C136 C129 1.403 . S
C136 C137 1.399 . S
C136 H142 0.929 . S
C137 C117 1.449 . S
C137 C136 1.399 . S
C137 H143 0.930 . S
H138 C118 0.931 . S
H139 C119 0.930 . S
H140 C127 0.931 . S
H141 C128 0.929 . S
H142 C136 0.929 . S
H143 C137 0.930 . S
Mn144 O149 2.095 . S
Mn144 O159 2.162 . S
Mn144 O160 2.297 . S
Mn144 O168 2.385 . S
Mn144 O169 2.209 . S
Mn144 O170 2.094 . S
Mn145 O150 2.121 . S
Mn145 N152 2.257 . S
Mn145 N161 2.282 . S
Mn145 O169 2.215 . S
Mn145 O171 2.117 . S
C146 O168 1.234 . S
C146 O169 1.283 . S
C147 O159 1.281 . S
C147 O160 1.236 . S
C148 O170 1.240 . S
C148 O171 1.264 . S
O149 Mn144 2.095 . S
O149 C158 1.250 . S
O150 Mn145 2.121 . S
O150 C158 1.258 . S
C151 N152 1.326 . S
C151 C155 1.460 . S
C151 H157 0.929 . S
N152 Mn145 2.257 . S
N152 C151 1.326 . S
N152 C156 1.362 . S
C153 C154 1.258 . S
C153 C156 1.431 . S
C153 C173 1.449 . S
C154 C153 1.258 . S
C154 C155 1.477 . S
C154 H174 0.931 . S
C155 C151 1.460 . S
C155 C154 1.477 . S
C155 H175 0.930 . S
C156 N152 1.362 . S
C156 C153 1.431 . S
C156 C166 1.476 . S
H157 C151 0.929 . S
C158 O149 1.250 . S
C158 O150 1.258 . S
O159 Mn144 2.162 . S
O159 C147 1.281 . S
O160 Mn144 2.297 . S
O160 C147 1.236 . S
N161 Mn145 2.282 . S
N161 C162 1.328 . S
N161 C166 1.318 . S
C162 N161 1.328 . S
C162 C163 1.457 . S
C162 H167 0.929 . S
C163 C162 1.457 . S
C163 C164 1.291 . S
C163 H176 0.931 . S
C164 C163 1.291 . S
C164 C165 1.373 . S
C164 H177 0.929 . S
C165 C164 1.373 . S
C165 C166 1.396 . S
C165 C172 1.403 . S
C166 C156 1.476 . S
C166 N161 1.318 . S
C166 C165 1.396 . S
H167 C162 0.929 . S
O168 Mn144 2.385 . S
O168 C146 1.234 . S
O169 Mn144 2.209 . S
O169 Mn145 2.215 . S
O169 C146 1.283 . S
O170 Mn144 2.094 . S
O170 C148 1.240 . S
O171 Mn145 2.117 . S
O171 C148 1.264 . S
C172 C165 1.403 . S
C172 C173 1.399 . S
C172 H178 0.929 . S
C173 C153 1.449 . S
C173 C172 1.399 . S
C173 H179 0.930 . S
H174 C154 0.931 . S
H175 C155 0.930 . S
H176 C163 0.931 . S
H177 C164 0.929 . S
H178 C172 0.929 . S
H179 C173 0.930 . S
Mn180 O185 2.095 . S
Mn180 O195 2.162 . S
Mn180 O196 2.297 . S
Mn180 O204 2.385 . S
Mn180 O205 2.209 . S
Mn180 O206 2.094 . S
Mn181 O186 2.121 . S
Mn181 N188 2.257 . S
Mn181 N197 2.282 . S
Mn181 O205 2.215 . S
Mn181 O207 2.117 . S
C182 O204 1.234 . S
C182 O205 1.283 . S
C183 O195 1.281 . S
C183 O196 1.236 . S
C184 O206 1.240 . S
C184 O207 1.264 . S
O185 Mn180 2.095 . S
O185 C194 1.250 . S
O186 Mn181 2.121 . S
O186 C194 1.258 . S
C187 N188 1.326 . S
C187 C191 1.460 . S
C187 H193 0.929 . S
N188 Mn181 2.257 . S
N188 C187 1.326 . S
N188 C192 1.362 . S
C189 C190 1.258 . S
C189 C192 1.431 . S
C189 C209 1.449 . S
C190 C189 1.258 . S
C190 C191 1.477 . S
C190 H210 0.931 . S
C191 C187 1.460 . S
C191 C190 1.477 . S
C191 H211 0.930 . S
C192 N188 1.362 . S
C192 C189 1.431 . S
C192 C202 1.476 . S
H193 C187 0.929 . S
C194 O185 1.250 . S
C194 O186 1.258 . S
O195 Mn180 2.162 . S
O195 C183 1.281 . S
O196 Mn180 2.297 . S
O196 C183 1.236 . S
N197 Mn181 2.282 . S
N197 C198 1.328 . S
N197 C202 1.318 . S
C198 N197 1.328 . S
C198 C199 1.457 . S
C198 H203 0.929 . S
C199 C198 1.457 . S
C199 C200 1.291 . S
C199 H212 0.931 . S
C200 C199 1.291 . S
C200 C201 1.373 . S
C200 H213 0.929 . S
C201 C200 1.373 . S
C201 C202 1.396 . S
C201 C208 1.403 . S
C202 C192 1.476 . S
C202 N197 1.318 . S
C202 C201 1.396 . S
H203 C198 0.929 . S
O204 Mn180 2.385 . S
O204 C182 1.234 . S
O205 Mn180 2.209 . S
O205 Mn181 2.215 . S
O205 C182 1.283 . S
O206 Mn180 2.094 . S
O206 C184 1.240 . S
O207 Mn181 2.117 . S
O207 C184 1.264 . S
C208 C201 1.403 . S
C208 C209 1.399 . S
C208 H214 0.929 . S
C209 C189 1.449 . S
C209 C208 1.399 . S
C209 H215 0.930 . S
H210 C190 0.931 . S
H211 C191 0.930 . S
H212 C199 0.931 . S
H213 C200 0.929 . S
H214 C208 0.929 . S
H215 C209 0.930 . S
Mn216 O221 2.095 . S
Mn216 O231 2.162 . S
Mn216 O232 2.297 . S
Mn216 O240 2.385 . S
Mn216 O241 2.209 . S
Mn216 O242 2.094 . S
Mn217 O222 2.121 . S
Mn217 N224 2.257 . S
Mn217 N233 2.282 . S
Mn217 O241 2.215 . S
Mn217 O243 2.117 . S
C218 O240 1.234 . S
C218 O241 1.283 . S
C219 O231 1.281 . S
C219 O232 1.236 . S
C220 O242 1.240 . S
C220 O243 1.264 . S
O221 Mn216 2.095 . S
O221 C230 1.250 . S
O222 Mn217 2.121 . S
O222 C230 1.258 . S
C223 N224 1.326 . S
C223 C227 1.460 . S
C223 H229 0.929 . S
N224 Mn217 2.257 . S
N224 C223 1.326 . S
N224 C228 1.362 . S
C225 C226 1.258 . S
C225 C228 1.431 . S
C225 C245 1.449 . S
C226 C225 1.258 . S
C226 C227 1.477 . S
C226 H246 0.931 1_556 S
C227 C223 1.460 . S
C227 C226 1.477 . S
C227 H247 0.930 . S
C228 N224 1.362 . S
C228 C225 1.431 . S
C228 C238 1.476 . S
H229 C223 0.929 . S
C230 O221 1.250 . S
C230 O222 1.258 . S
O231 Mn216 2.162 . S
O231 C219 1.281 . S
O232 Mn216 2.297 . S
O232 C219 1.236 . S
N233 Mn217 2.282 . S
N233 C234 1.328 . S
N233 C238 1.318 . S
C234 N233 1.328 . S
C234 C235 1.457 . S
C234 H239 0.929 . S
C235 C234 1.457 . S
C235 C236 1.291 . S
C235 H248 0.931 . S
C236 C235 1.291 . S
C236 C237 1.373 . S
C236 H249 0.929 . S
C237 C236 1.373 . S
C237 C238 1.396 . S
C237 C244 1.403 . S
C238 C228 1.476 . S
C238 N233 1.318 . S
C238 C237 1.396 . S
H239 C234 0.929 . S
O240 Mn216 2.385 . S
O240 C218 1.234 . S
O241 Mn216 2.209 . S
O241 Mn217 2.215 . S
O241 C218 1.283 . S
O242 Mn216 2.094 . S
O242 C220 1.240 . S
O243 Mn217 2.117 . S
O243 C220 1.264 . S
C244 C237 1.403 . S
C244 C245 1.399 . S
C244 H250 0.929 . S
C245 C225 1.449 . S
C245 C244 1.399 . S
C245 H251 0.930 1_556 S
H246 C226 0.931 1_554 S
H247 C227 0.930 . S
H248 C235 0.931 . S
H249 C236 0.929 . S
H250 C244 0.929 . S
H251 C245 0.930 1_554 S
Mn252 O257 2.095 . S
Mn252 O267 2.162 . S
Mn252 O268 2.297 . S
Mn252 O276 2.385 . S
Mn252 O277 2.209 . S
Mn252 O278 2.094 . S
Mn253 O258 2.121 . S
Mn253 N260 2.257 . S
Mn253 N269 2.282 . S
Mn253 O277 2.215 . S
Mn253 O279 2.117 . S
C254 O276 1.234 . S
C254 O277 1.283 . S
C255 O267 1.281 . S
C255 O268 1.236 . S
C256 O278 1.240 . S
C256 O279 1.264 . S
O257 Mn252 2.095 . S
O257 C266 1.250 . S
O258 Mn253 2.121 . S
O258 C266 1.258 . S
C259 N260 1.326 . S
C259 C263 1.460 . S
C259 H265 0.929 . S
N260 Mn253 2.257 . S
N260 C259 1.326 . S
N260 C264 1.362 . S
C261 C262 1.258 . S
C261 C264 1.431 . S
C261 C281 1.449 . S
C262 C261 1.258 . S
C262 C263 1.477 . S
C262 H282 0.931 . S
C263 C259 1.460 . S
C263 C262 1.477 . S
C263 H283 0.930 . S
C264 N260 1.362 . S
C264 C261 1.431 . S
C264 C274 1.476 . S
H265 C259 0.929 . S
C266 O257 1.250 . S
C266 O258 1.258 . S
O267 Mn252 2.162 . S
O267 C255 1.281 . S
O268 Mn252 2.297 . S
O268 C255 1.236 . S
N269 Mn253 2.282 . S
N269 C270 1.328 . S
N269 C274 1.318 . S
C270 N269 1.328 . S
C270 C271 1.457 . S
C270 H275 0.929 . S
C271 C270 1.457 . S
C271 C272 1.291 . S
C271 H284 0.931 . S
C272 C271 1.291 . S
C272 C273 1.373 . S
C272 H285 0.929 . S
C273 C272 1.373 . S
C273 C274 1.396 . S
C273 C280 1.403 . S
C274 C264 1.476 . S
C274 N269 1.318 . S
C274 C273 1.396 . S
H275 C270 0.929 . S
O276 Mn252 2.385 . S
O276 C254 1.234 . S
O277 Mn252 2.209 . S
O277 Mn253 2.215 . S
O277 C254 1.283 . S
O278 Mn252 2.094 . S
O278 C256 1.240 . S
O279 Mn253 2.117 . S
O279 C256 1.264 . S
C280 C273 1.403 . S
C280 C281 1.399 . S
C280 H286 0.929 . S
C281 C261 1.449 . S
C281 C280 1.399 . S
C281 H287 0.930 . S
H282 C262 0.931 . S
H283 C263 0.930 . S
H284 C271 0.931 . S
H285 C272 0.929 . S
H286 C280 0.929 . S
H287 C281 0.930 . S
Mn288 O293 2.095 . S
Mn288 O303 2.162 . S
Mn288 O304 2.297 . S
Mn288 O312 2.385 . S
Mn288 O313 2.209 . S
Mn288 O314 2.094 . S
Mn289 O294 2.121 . S
Mn289 N296 2.257 . S
Mn289 N305 2.282 . S
Mn289 O313 2.215 . S
Mn289 O315 2.117 . S
C290 O312 1.234 . S
C290 O313 1.283 . S
C291 O303 1.281 . S
C291 O304 1.236 . S
C292 O314 1.240 . S
C292 O315 1.264 . S
O293 Mn288 2.095 . S
O293 C302 1.250 . S
O294 Mn289 2.121 . S
O294 C302 1.258 . S
C295 N296 1.326 . S
C295 C299 1.460 . S
C295 H301 0.929 . S
N296 Mn289 2.257 . S
N296 C295 1.326 . S
N296 C300 1.362 . S
C297 C298 1.258 . S
C297 C300 1.431 . S
C297 C317 1.449 . S
C298 C297 1.258 . S
C298 C299 1.477 . S
C298 H318 0.931 . S
C299 C295 1.460 . S
C299 C298 1.477 . S
C299 H319 0.930 . S
C300 N296 1.362 . S
C300 C297 1.431 . S
C300 C310 1.476 . S
H301 C295 0.929 . S
C302 O293 1.250 . S
C302 O294 1.258 . S
O303 Mn288 2.162 . S
O303 C291 1.281 . S
O304 Mn288 2.297 . S
O304 C291 1.236 . S
N305 Mn289 2.282 . S
N305 C306 1.328 . S
N305 C310 1.318 . S
C306 N305 1.328 . S
C306 C307 1.457 . S
C306 H311 0.929 . S
C307 C306 1.457 . S
C307 C308 1.291 . S
C307 H320 0.931 . S
C308 C307 1.291 . S
C308 C309 1.373 . S
C308 H321 0.929 . S
C309 C308 1.373 . S
C309 C310 1.396 . S
C309 C316 1.403 . S
C310 C300 1.476 . S
C310 N305 1.318 . S
C310 C309 1.396 . S
H311 C306 0.929 . S
O312 Mn288 2.385 . S
O312 C290 1.234 . S
O313 Mn288 2.209 . S
O313 Mn289 2.215 . S
O313 C290 1.283 . S
O314 Mn288 2.094 . S
O314 C292 1.240 . S
O315 Mn289 2.117 . S
O315 C292 1.264 . S
C316 C309 1.403 . S
C316 C317 1.399 . S
C316 H322 0.929 . S
C317 C297 1.449 . S
C317 C316 1.399 . S
C317 H323 0.930 . S
H318 C298 0.931 . S
H319 C299 0.930 . S
H320 C307 0.931 . S
H321 C308 0.929 . S
H322 C316 0.929 . S
H323 C317 0.930 . S
H324 C330 0.930 . S
H325 C334 0.930 . S
H326 C339 0.929 . S
H327 C337 0.929 . S
H328 C332 0.929 . S
H329 C338 0.929 . S
C330 H324 0.930 . S
C330 C331 1.367 . S
C330 C338 1.378 . S
C331 C330 1.367 . S
C331 C339 1.433 . S
C332 H328 0.929 . S
C332 C334 1.378 . S
C332 C336 1.350 . S
C333 C336 1.463 . S
C333 C338 1.350 . S
C333 N341 1.427 . S
C334 H325 0.930 . S
C334 C332 1.378 . S
C334 C335 1.367 . S
C335 C334 1.367 . S
C335 C337 1.433 . S
C336 C332 1.350 . S
C336 C333 1.463 . S
C336 N340 1.427 . S
C337 H327 0.929 . S
C337 C335 1.433 . S
C337 N340 1.384 . S
C338 H329 0.929 . S
C338 C330 1.378 . S
C338 C333 1.350 . S
C339 H326 0.929 . S
C339 C331 1.433 . S
C339 N341 1.384 . S
N340 C336 1.427 . S
N340 C337 1.384 . S
N341 C333 1.427 . S
N341 C339 1.384 . S
H342 C348 0.930 . S
H343 C352 0.930 . S
H344 C357 0.929 . S
H345 C355 0.929 . S
H346 C350 0.929 . S
H347 C356 0.929 . S
C348 H342 0.930 . S
C348 C349 1.367 . S
C348 C356 1.378 . S
C349 C348 1.367 . S
C349 C357 1.433 . S
C350 H346 0.929 . S
C350 C352 1.378 . S
C350 C354 1.350 . S
C351 C354 1.463 . S
C351 C356 1.350 . S
C351 N359 1.427 . S
C352 H343 0.930 . S
C352 C350 1.378 . S
C352 C353 1.367 . S
C353 C352 1.367 . S
C353 C355 1.433 . S
C354 C350 1.350 . S
C354 C351 1.463 . S
C354 N358 1.427 . S
C355 H345 0.929 . S
C355 C353 1.433 . S
C355 N358 1.384 . S
C356 H347 0.929 . S
C356 C348 1.378 . S
C356 C351 1.350 . S
C357 H344 0.929 . S
C357 C349 1.433 . S
C357 N359 1.384 . S
N358 C354 1.427 . S
N358 C355 1.384 . S
N359 C351 1.427 . S
N359 C357 1.384 . S
H360 C366 0.930 . S
H361 C370 0.930 . S
H362 C375 0.929 . S
H363 C373 0.929 . S
H364 C368 0.929 . S
H365 C374 0.929 . S
C366 H360 0.930 . S
C366 C367 1.367 . S
C366 C374 1.378 . S
C367 C366 1.367 . S
C367 C375 1.433 . S
C368 H364 0.929 . S
C368 C370 1.378 . S
C368 C372 1.350 . S
C369 C372 1.463 . S
C369 C374 1.350 . S
C369 N377 1.427 . S
C370 H361 0.930 . S
C370 C368 1.378 . S
C370 C371 1.367 . S
C371 C370 1.367 . S
C371 C373 1.433 . S
C372 C368 1.350 . S
C372 C369 1.463 . S
C372 N376 1.427 . S
C373 H363 0.929 . S
C373 C371 1.433 . S
C373 N376 1.384 . S
C374 H365 0.929 . S
C374 C366 1.378 . S
C374 C369 1.350 . S
C375 H362 0.929 . S
C375 C367 1.433 . S
C375 N377 1.384 . S
N376 C372 1.427 . S
N376 C373 1.384 . S
N377 C369 1.427 . S
N377 C375 1.384 . S
H378 C384 0.930 . S
H379 C388 0.930 . S
H380 C393 0.929 . S
H381 C391 0.929 . S
H382 C386 0.929 . S
H383 C392 0.929 . S
C384 H378 0.930 . S
C384 C385 1.367 . S
C384 C392 1.378 . S
C385 C384 1.367 . S
C385 C393 1.433 . S
C386 H382 0.929 . S
C386 C388 1.378 . S
C386 C390 1.350 . S
C387 C390 1.463 . S
C387 C392 1.350 . S
C387 N395 1.427 . S
C388 H379 0.930 . S
C388 C386 1.378 . S
C388 C389 1.367 . S
C389 C388 1.367 . S
C389 C391 1.433 . S
C390 C386 1.350 . S
C390 C387 1.463 . S
C390 N394 1.427 . S
C391 H381 0.929 . S
C391 C389 1.433 . S
C391 N394 1.384 . S
C392 H383 0.929 . S
C392 C384 1.378 . S
C392 C387 1.350 . S
C393 H380 0.929 . S
C393 C385 1.433 . S
C393 N395 1.384 . S
N394 C390 1.427 . S
N394 C391 1.384 . S
N395 C387 1.427 . S
N395 C393 1.384 . S
H396 C402 0.930 . S
H397 C406 0.930 . S
H398 C411 0.929 1_554 S
H399 C409 0.929 . S
H400 C404 0.929 . S
H401 C410 0.929 . S
C402 H396 0.930 . S
C402 C403 1.367 . S
C402 C410 1.378 . S
C403 C402 1.367 . S
C403 C411 1.433 . S
C404 H400 0.929 . S
C404 C406 1.378 . S
C404 C408 1.350 . S
C405 C408 1.463 . S
C405 C410 1.350 . S
C405 N413 1.427 . S
C406 H397 0.930 . S
C406 C404 1.378 . S
C406 C407 1.367 . S
C407 C406 1.367 . S
C407 C409 1.433 . S
C408 C404 1.350 . S
C408 C405 1.463 . S
C408 N412 1.427 . S
C409 H399 0.929 . S
C409 C407 1.433 . S
C409 N412 1.384 . S
C410 H401 0.929 . S
C410 C402 1.378 . S
C410 C405 1.350 . S
C411 H398 0.929 1_556 S
C411 C403 1.433 . S
C411 N413 1.384 . S
N412 C408 1.427 . S
N412 C409 1.384 . S
N413 C405 1.427 . S
N413 C411 1.384 . S
H414 C420 0.930 . S
H415 C424 0.930 . S
H416 C429 0.929 . S
H417 C427 0.929 . S
H418 C422 0.929 . S
H419 C428 0.929 . S
C420 H414 0.930 . S
C420 C421 1.367 . S
C420 C428 1.378 . S
C421 C420 1.367 . S
C421 C429 1.433 . S
C422 H418 0.929 . S
C422 C424 1.378 . S
C422 C426 1.350 . S
C423 C426 1.463 . S
C423 C428 1.350 . S
C423 N431 1.427 . S
C424 H415 0.930 . S
C424 C422 1.378 . S
C424 C425 1.367 . S
C425 C424 1.367 . S
C425 C427 1.433 . S
C426 C422 1.350 . S
C426 C423 1.463 . S
C426 N430 1.427 . S
C427 H417 0.929 . S
C427 C425 1.433 . S
C427 N430 1.384 . S
C428 H419 0.929 . S
C428 C420 1.378 . S
C428 C423 1.350 . S
C429 H416 0.929 . S
C429 C421 1.433 . S
C429 N431 1.384 . S
N430 C426 1.427 . S
N430 C427 1.384 . S
N431 C423 1.427 . S
N431 C429 1.384 . S
H432 C438 0.930 . S
H433 C442 0.930 . S
H434 C447 0.929 . S
H435 C445 0.929 . S
H436 C440 0.929 . S
H437 C446 0.929 . S
C438 H432 0.930 . S
C438 C439 1.367 . S
C438 C446 1.378 . S
C439 C438 1.367 . S
C439 C447 1.433 . S
C440 H436 0.929 . S
C440 C442 1.378 . S
C440 C444 1.350 . S
C441 C444 1.463 . S
C441 C446 1.350 . S
C441 N449 1.427 . S
C442 H433 0.930 . S
C442 C440 1.378 . S
C442 C443 1.367 . S
C443 C442 1.367 . S
C443 C445 1.433 . S
C444 C440 1.350 . S
C444 C441 1.463 . S
C444 N448 1.427 . S
C445 H435 0.929 . S
C445 C443 1.433 . S
C445 N448 1.384 . S
C446 H437 0.929 . S
C446 C438 1.378 . S
C446 C441 1.350 . S
C447 H434 0.929 . S
C447 C439 1.433 . S
C447 N449 1.384 . S
N448 C444 1.427 . S
N448 C445 1.384 . S
N449 C441 1.427 . S
N449 C447 1.384 . S
H450 C456 0.930 . S
H451 C460 0.930 . S
H452 C465 0.929 . S
H453 C463 0.929 . S
H454 C458 0.929 . S
H455 C464 0.929 . S
C456 H450 0.930 . S
C456 C457 1.367 . S
C456 C464 1.378 . S
C457 C456 1.367 . S
C457 C465 1.433 . S
C458 H454 0.929 . S
C458 C460 1.378 . S
C458 C462 1.350 . S
C459 C462 1.463 . S
C459 C464 1.350 . S
C459 N467 1.427 . S
C460 H451 0.930 . S
C460 C458 1.378 . S
C460 C461 1.367 . S
C461 C460 1.367 . S
C461 C463 1.433 . S
C462 C458 1.350 . S
C462 C459 1.463 . S
C462 N466 1.427 . S
C463 H453 0.929 . S
C463 C461 1.433 . S
C463 N466 1.384 . S
C464 H455 0.929 . S
C464 C456 1.378 . S
C464 C459 1.350 . S
C465 H452 0.929 . S
C465 C457 1.433 . S
C465 N467 1.384 . S
N466 C462 1.427 . S
N466 C463 1.384 . S
N467 C459 1.427 . S
N467 C465 1.384 . S
H468 C474 0.930 . S
H469 C478 0.930 . S
H470 C483 0.929 . S
H471 C481 0.929 . S
H472 C476 0.929 . S
H473 C482 0.929 . S
C474 H468 0.930 . S
C474 C475 1.367 . S
C474 C482 1.378 . S
C475 C474 1.367 . S
C475 C483 1.433 . S
C476 H472 0.929 . S
C476 C478 1.378 . S
C476 C480 1.350 . S
C477 C480 1.463 . S
C477 C482 1.350 . S
C477 N485 1.427 . S
C478 H469 0.930 . S
C478 C476 1.378 . S
C478 C479 1.367 . S
C479 C478 1.367 . S
C479 C481 1.433 . S
C480 C476 1.350 . S
C480 C477 1.463 . S
C480 N484 1.427 . S
C481 H471 0.929 . S
C481 C479 1.433 . S
C481 N484 1.384 . S
C482 H473 0.929 . S
C482 C474 1.378 . S
C482 C477 1.350 . S
C483 H470 0.929 . S
C483 C475 1.433 . S
C483 N485 1.384 . S
N484 C480 1.427 . S
N484 C481 1.384 . S
N485 C477 1.427 . S
N485 C483 1.384 . S
H486 C492 0.930 . S
H487 C496 0.930 . S
H488 C501 0.929 . S
H489 C499 0.929 . S
H490 C494 0.929 1_556 S
H491 C500 0.929 . S
C492 H486 0.930 . S
C492 C493 1.367 . S
C492 C500 1.378 . S
C493 C492 1.367 . S
C493 C501 1.433 1_554 S
C494 H490 0.929 1_554 S
C494 C496 1.378 . S
C494 C498 1.350 . S
C495 C498 1.463 . S
C495 C500 1.350 . S
C495 N503 1.430 1_554 S
C496 H487 0.930 . S
C496 C494 1.378 . S
C496 C497 1.367 . S
C497 C496 1.367 . S
C497 C499 1.433 . S
C498 C494 1.350 . S
C498 C495 1.463 . S
C498 N502 1.427 . S
C499 H489 0.929 . S
C499 C497 1.433 . S
C499 N502 1.384 . S
C500 H491 0.929 . S
C500 C492 1.378 . S
C500 C495 1.350 . S
C501 H488 0.929 . S
C501 C493 1.433 1_556 S
C501 N503 1.383 . S
N502 C498 1.427 . S
N502 C499 1.384 . S
N503 C495 1.430 1_556 S
N503 C501 1.383 . S
H504 C510 0.930 . S
H505 C514 0.930 . S
H506 C519 0.929 . S
H507 C517 0.929 . S
H508 C512 0.929 . S
H509 C518 0.929 . S
C510 H504 0.930 . S
C510 C511 1.367 . S
C510 C518 1.378 . S
C511 C510 1.367 . S
C511 C519 1.433 . S
C512 H508 0.929 . S
C512 C514 1.378 . S
C512 C516 1.350 . S
C513 C516 1.463 . S
C513 C518 1.350 . S
C513 N521 1.427 . S
C514 H505 0.930 . S
C514 C512 1.378 . S
C514 C515 1.367 . S
C515 C514 1.367 . S
C515 C517 1.433 . S
C516 C512 1.350 . S
C516 C513 1.463 . S
C516 N520 1.427 . S
C517 H507 0.929 . S
C517 C515 1.433 . S
C517 N520 1.384 . S
C518 H509 0.929 . S
C518 C510 1.378 . S
C518 C513 1.350 . S
C519 H506 0.929 . S
C519 C511 1.433 . S
C519 N521 1.384 . S
N520 C516 1.427 . S
N520 C517 1.384 . S
N521 C513 1.427 . S
N521 C519 1.384 . S
H522 C528 0.930 . S
H523 C532 0.930 . S
H524 C537 0.929 . S
H525 C535 0.929 . S
H526 C530 0.929 . S
H527 C536 0.929 . S
C528 H522 0.930 . S
C528 C529 1.367 . S
C528 C536 1.378 . S
C529 C528 1.367 . S
C529 C537 1.433 . S
C530 H526 0.929 . S
C530 C532 1.378 . S
C530 C534 1.350 . S
C531 C534 1.463 . S
C531 C536 1.350 . S
C531 N539 1.427 . S
C532 H523 0.930 . S
C532 C530 1.378 . S
C532 C533 1.367 . S
C533 C532 1.367 . S
C533 C535 1.433 . S
C534 C530 1.350 . S
C534 C531 1.463 . S
C534 N538 1.427 . S
C535 H525 0.929 . S
C535 C533 1.433 . S
C535 N538 1.384 . S
C536 H527 0.929 . S
C536 C528 1.378 . S
C536 C531 1.350 . S
C537 H524 0.929 . S
C537 C529 1.433 . S
C537 N539 1.384 . S
N538 C534 1.427 . S
N538 C535 1.384 . S
N539 C531 1.427 . S
N539 C537 1.384 . S
H540 C546 0.930 . S
H541 C550 0.930 . S
H542 C555 0.929 . S
H543 C553 0.929 . S
H544 C548 0.929 . S
H545 C554 0.929 . S
C546 H540 0.930 . S
C546 C547 1.367 . S
C546 C554 1.378 . S
C547 C546 1.367 . S
C547 C555 1.433 . S
C548 H544 0.929 . S
C548 C550 1.378 . S
C548 C552 1.350 . S
C549 C552 1.463 . S
C549 C554 1.350 . S
C549 N557 1.427 . S
C550 H541 0.930 . S
C550 C548 1.378 . S
C550 C551 1.367 . S
C551 C550 1.367 . S
C551 C553 1.433 . S
C552 C548 1.350 . S
C552 C549 1.463 . S
C552 N556 1.427 . S
C553 H543 0.929 . S
C553 C551 1.433 . S
C553 N556 1.384 . S
C554 H545 0.929 . S
C554 C546 1.378 . S
C554 C549 1.350 . S
C555 H542 0.929 . S
C555 C547 1.433 . S
C555 N557 1.384 . S
N556 C552 1.427 . S
N556 C553 1.384 . S
N557 C549 1.427 . S
N557 C555 1.384 . S
H558 C564 0.930 . S
H559 C568 0.930 . S
H560 C573 0.929 . S
H561 C571 0.929 . S
H562 C566 0.929 . S
H563 C572 0.929 . S
C564 H558 0.930 . S
C564 C565 1.367 . S
C564 C572 1.378 . S
C565 C564 1.367 . S
C565 C573 1.433 . S
C566 H562 0.929 . S
C566 C568 1.378 . S
C566 C570 1.350 . S
C567 C570 1.463 . S
C567 C572 1.350 . S
C567 N575 1.427 . S
C568 H559 0.930 . S
C568 C566 1.378 . S
C568 C569 1.367 . S
C569 C568 1.367 . S
C569 C571 1.433 . S
C570 C566 1.350 . S
C570 C567 1.463 . S
C570 N574 1.427 . S
C571 H561 0.929 . S
C571 C569 1.433 . S
C571 N574 1.384 . S
C572 H563 0.929 . S
C572 C564 1.378 . S
C572 C567 1.350 . S
C573 H560 0.929 . S
C573 C565 1.433 . S
C573 N575 1.384 . S
N574 C570 1.427 . S
N574 C571 1.384 . S
N575 C567 1.427 . S
N575 C573 1.384 . S
H576 C582 0.930 . S
H577 C586 0.930 . S
H578 C591 0.929 . S
H579 C589 0.929 . S
H580 C584 0.929 . S
H581 C590 0.929 . S
C582 H576 0.930 . S
C582 C583 1.367 . S
C582 C590 1.378 . S
C583 C582 1.367 . S
C583 C591 1.433 . S
C584 H580 0.929 . S
C584 C586 1.378 . S
C584 C588 1.350 . S
C585 C588 1.463 . S
C585 C590 1.350 . S
C585 N593 1.427 . S
C586 H577 0.930 . S
C586 C584 1.378 . S
C586 C587 1.367 . S
C587 C586 1.367 . S
C587 C589 1.433 . S
C588 C584 1.350 . S
C588 C585 1.463 . S
C588 N592 1.427 . S
C589 H579 0.929 . S
C589 C587 1.433 . S
C589 N592 1.384 . S
C590 H581 0.929 . S
C590 C582 1.378 . S
C590 C585 1.350 . S
C591 H578 0.929 . S
C591 C583 1.433 . S
C591 N593 1.384 . S
N592 C588 1.427 . S
N592 C589 1.384 . S
N593 C585 1.427 . S
N593 C591 1.384 . S
H594 C600 0.930 . S
H595 C604 0.930 . S
H596 C609 0.929 . S
H597 C607 0.938 . S
H598 C602 0.929 . S
H599 C608 0.929 . S
C600 H594 0.930 . S
C600 C601 1.367 . S
C600 C608 1.378 . S
C601 C600 1.367 . S
C601 C609 1.433 . S
C602 H598 0.929 . S
C602 C604 1.378 . S
C602 C606 1.350 . S
C603 C606 1.463 . S
C603 C608 1.350 . S
C603 N611 1.427 . S
C604 H595 0.930 . S
C604 C602 1.378 . S
C604 C605 1.365 . S
C605 C604 1.365 . S
C605 C607 1.432 . S
C606 C602 1.350 . S
C606 C603 1.463 . S
C606 N610 1.427 . S
C607 H597 0.938 . S
C607 C605 1.432 . S
C607 N610 1.384 . S
C608 H599 0.929 . S
C608 C600 1.378 . S
C608 C603 1.350 . S
C609 H596 0.929 . S
C609 C601 1.433 . S
C609 N611 1.384 . S
N610 C606 1.427 . S
N610 C607 1.384 . S
N611 C603 1.427 . S
N611 C609 1.384 . S
H612 C618 0.930 . S
H613 C622 0.930 . S
H614 C627 0.929 . S
H615 C625 0.929 . S
H616 C620 0.929 . S
H617 C626 0.929 . S
C618 H612 0.930 . S
C618 C619 1.367 . S
C618 C626 1.378 . S
C619 C618 1.367 . S
C619 C627 1.433 . S
C620 H616 0.929 . S
C620 C622 1.378 . S
C620 C624 1.350 . S
C621 C624 1.463 . S
C621 C626 1.350 . S
C621 N629 1.427 . S
C622 H613 0.930 . S
C622 C620 1.378 . S
C622 C623 1.367 . S
C623 C622 1.367 . S
C623 C625 1.433 . S
C624 C620 1.350 . S
C624 C621 1.463 . S
C624 N628 1.427 . S
C625 H615 0.929 . S
C625 C623 1.433 . S
C625 N628 1.384 . S
C626 H617 0.929 . S
C626 C618 1.378 . S
C626 C621 1.350 . S
C627 H614 0.929 . S
C627 C619 1.433 . S
C627 N629 1.384 . S
N628 C624 1.427 . S
N628 C625 1.384 . S
N629 C621 1.427 . S
N629 C627 1.384 . S
H630 C636 0.930 . S
H631 C640 0.930 . S
H632 C645 0.929 . S
H633 C643 0.929 . S
H634 C638 0.929 . S
H635 C644 0.929 . S
C636 H630 0.930 . S
C636 C637 1.367 . S
C636 C644 1.378 . S
C637 C636 1.367 . S
C637 C645 1.433 . S
C638 H634 0.929 . S
C638 C640 1.378 . S
C638 C642 1.350 . S
C639 C642 1.463 . S
C639 C644 1.350 . S
C639 N647 1.427 . S
C640 H631 0.930 . S
C640 C638 1.378 . S
C640 C641 1.367 . S
C641 C640 1.367 . S
C641 C643 1.433 . S
C642 C638 1.350 . S
C642 C639 1.463 . S
C642 N646 1.427 . S
C643 H633 0.929 . S
C643 C641 1.433 . S
C643 N646 1.384 . S
C644 H635 0.929 . S
C644 C636 1.378 . S
C644 C639 1.350 . S
C645 H632 0.929 . S
C645 C637 1.433 . S
C645 N647 1.384 . S
N646 C642 1.427 . S
N646 C643 1.384 . S
N647 C639 1.427 . S
N647 C645 1.384 . S
H648 C654 0.930 . S
H649 C658 0.930 . S
H650 C663 0.929 . S
H651 C661 0.929 . S
H652 C656 0.929 . S
H653 C662 0.929 . S
C654 H648 0.930 . S
C654 C655 1.367 . S
C654 C662 1.378 . S
C655 C654 1.367 . S
C655 C663 1.433 . S
C656 H652 0.929 . S
C656 C658 1.378 . S
C656 C660 1.350 . S
C657 C660 1.463 . S
C657 C662 1.350 . S
C657 N665 1.427 . S
C658 H649 0.930 . S
C658 C656 1.378 . S
C658 C659 1.367 . S
C659 C658 1.367 . S
C659 C661 1.433 . S
C660 C656 1.350 . S
C660 C657 1.463 . S
C660 N664 1.427 . S
C661 H651 0.929 . S
C661 C659 1.433 . S
C661 N664 1.384 . S
C662 H653 0.929 . S
C662 C654 1.378 . S
C662 C657 1.350 . S
C663 H650 0.929 . S
C663 C655 1.433 . S
C663 N665 1.384 . S
N664 C660 1.427 . S
N664 C661 1.384 . S
N665 C657 1.427 . S
N665 C663 1.384 . S
H666 C672 0.930 . S
H667 C676 0.930 . S
H668 C681 0.929 . S
H669 C679 0.929 . S
H670 C674 0.929 . S
H671 C680 0.929 . S
C672 H666 0.930 . S
C672 C673 1.367 . S
C672 C680 1.378 . S
C673 C672 1.367 . S
C673 C681 1.433 . S
C674 H670 0.929 . S
C674 C676 1.378 . S
C674 C678 1.350 . S
C675 C678 1.463 . S
C675 C680 1.350 . S
C675 N683 1.427 . S
C676 H667 0.930 . S
C676 C674 1.378 . S
C676 C677 1.367 . S
C677 C676 1.367 . S
C677 C679 1.433 . S
C678 C674 1.350 . S
C678 C675 1.463 . S
C678 N682 1.427 . S
C679 H669 0.929 . S
C679 C677 1.433 . S
C679 N682 1.384 . S
C680 H671 0.929 . S
C680 C672 1.378 . S
C680 C675 1.350 . S
C681 H668 0.929 . S
C681 C673 1.433 . S
C681 N683 1.384 . S
N682 C678 1.427 . S
N682 C679 1.384 . S
N683 C675 1.427 . S
N683 C681 1.384 . S
H684 C690 0.930 . S
H685 C694 0.930 . S
H686 C699 0.929 . S
H687 C697 0.929 . S
H688 C692 0.929 . S
H689 C698 0.929 . S
C690 H684 0.930 . S
C690 C691 1.367 . S
C690 C698 1.378 . S
C691 C690 1.367 . S
C691 C699 1.433 . S
C692 H688 0.929 . S
C692 C694 1.378 . S
C692 C696 1.350 . S
C693 C696 1.463 . S
C693 C698 1.350 . S
C693 N701 1.427 . S
C694 H685 0.930 . S
C694 C692 1.378 . S
C694 C695 1.367 . S
C695 C694 1.367 . S
C695 C697 1.433 . S
C696 C692 1.350 . S
C696 C693 1.463 . S
C696 N700 1.427 . S
C697 H687 0.929 . S
C697 C695 1.433 . S
C697 N700 1.384 . S
C698 H689 0.929 . S
C698 C690 1.378 . S
C698 C693 1.350 . S
C699 H686 0.929 . S
C699 C691 1.433 . S
C699 N701 1.384 . S
N700 C696 1.427 . S
N700 C697 1.384 . S
N701 C693 1.427 . S
N701 C699 1.384 . S
H702 C708 0.930 . S
H703 C712 0.930 . S
H704 C717 0.929 . S
H705 C715 0.929 . S
H706 C710 0.929 . S
H707 C716 0.929 . S
C708 H702 0.930 . S
C708 C709 1.367 . S
C708 C716 1.378 . S
C709 C708 1.367 . S
C709 C717 1.433 . S
C710 H706 0.929 . S
C710 C712 1.378 . S
C710 C714 1.350 . S
C711 C714 1.463 . S
C711 C716 1.350 . S
C711 N719 1.427 . S
C712 H703 0.930 . S
C712 C710 1.378 . S
C712 C713 1.367 . S
C713 C712 1.367 . S
C713 C715 1.433 . S
C714 C710 1.350 . S
C714 C711 1.463 . S
C714 N718 1.427 . S
C715 H705 0.929 . S
C715 C713 1.433 . S
C715 N718 1.384 . S
C716 H707 0.929 . S
C716 C708 1.378 . S
C716 C711 1.350 . S
C717 H704 0.929 . S
C717 C709 1.433 . S
C717 N719 1.384 . S
N718 C714 1.427 . S
N718 C715 1.384 . S
N719 C711 1.427 . S
N719 C717 1.384 . S
H720 C726 0.930 . S
H721 C730 0.930 . S
H722 C735 0.929 . S
H723 C733 0.929 . S
H724 C728 0.929 . S
H725 C734 0.929 . S
C726 H720 0.930 . S
C726 C727 1.367 . S
C726 C734 1.378 . S
C727 C726 1.367 . S
C727 C735 1.433 . S
C728 H724 0.929 . S
C728 C730 1.378 1_554 S
C728 C732 1.350 . S
C729 C732 1.463 . S
C729 C734 1.350 . S
C729 N737 1.427 . S
C730 H721 0.930 . S
C730 C728 1.378 1_556 S
C730 C731 1.367 . S
C731 C730 1.367 . S
C731 C733 1.433 . S
C732 C728 1.350 . S
C732 C729 1.463 . S
C732 N736 1.427 1_554 S
C733 H723 0.929 . S
C733 C731 1.433 . S
C733 N736 1.384 . S
C734 H725 0.929 . S
C734 C726 1.378 . S
C734 C729 1.350 . S
C735 H722 0.929 . S
C735 C727 1.433 . S
C735 N737 1.384 . S
N736 C732 1.427 1_556 S
N736 C733 1.384 . S
N737 C729 1.427 . S
N737 C735 1.384 . S
H738 C744 0.930 . S
H739 C748 0.930 . S
H740 C753 0.929 . S
H741 C751 0.929 . S
H742 C746 0.929 . S
H743 C752 0.929 . S
C744 H738 0.930 . S
C744 C745 1.367 . S
C744 C752 1.378 . S
C745 C744 1.367 . S
C745 C753 1.433 . S
C746 H742 0.929 . S
C746 C748 1.378 . S
C746 C750 1.350 . S
C747 C750 1.463 . S
C747 C752 1.350 . S
C747 N755 1.427 . S
C748 H739 0.930 . S
C748 C746 1.378 . S
C748 C749 1.367 . S
C749 C748 1.367 . S
C749 C751 1.433 . S
C750 C746 1.350 . S
C750 C747 1.463 . S
C750 N754 1.427 . S
C751 H741 0.929 . S
C751 C749 1.433 . S
C751 N754 1.384 . S
C752 H743 0.929 . S
C752 C744 1.378 . S
C752 C747 1.350 . S
C753 H740 0.929 . S
C753 C745 1.433 . S
C753 N755 1.384 . S
N754 C750 1.427 . S
N754 C751 1.384 . S
N755 C747 1.427 . S
N755 C753 1.384 . S
C335 C291 1.574 . S
C331 C8 1.524 . S
C349 C26 1.559 . S
C353 C111 1.607 . S
C367 C50 1.544 . S
C371 C158 1.550 . S
C385 C68 1.487 . S
C389 C194 1.501 . S
C407 C219 1.559 . S
C403 C80 1.518 . S
C421 C104 1.516 . S
C425 C255 1.573 . S
C439 C32 1.548 . S
C443 C147 1.606 . S
C457 C44 1.507 . S
C461 C183 1.556 . S
C475 C62 1.478 . S
C479 C230 1.480 . S
C497 C266 1.518 . S
C493 C86 1.518 1_554 S
C515 C302 1.528 . S
C511 C98 1.527 . S
C533 C122 1.548 . S
C529 C14 1.529 . S
C547 C7 1.466 . S
C551 C146 1.501 . S
C565 C25 1.467 . S
C569 C182 1.514 . S
C587 C220 1.508 . S
C583 C52 1.470 . S
C601 C70 1.471 . S
C605 C256 1.515 1_556 S
C623 C292 1.486 . S
C619 C79 1.444 . S
C641 C112 1.471 . S
C637 C106 1.421 . S
C659 C290 1.493 . S
C655 C34 1.462 . S
C673 C43 1.448 . S
C677 C110 1.494 . S
C695 C148 1.499 . S
C691 C61 1.458 . S
C709 C88 1.456 . S
C713 C184 1.504 . S
C727 C97 1.502 . S
C731 C218 1.534 . S
C745 C16 1.493 . S
C749 C254 1.522 . S
