# Generated by pormake.
# Topology dag, (6,3)-cn, num edge types: 1
# Building blocks:
#     Node 0, Type 0, BuildingBlock: MIDCAF_clean_sbu_0, # of connection points: 6
#     Node 1, Type 0, BuildingBlock: MIDCAF_clean_sbu_0, # of connection points: 6
#     Node 2, Type 0, BuildingBlock: MIDCAF_clean_sbu_0, # of connection points: 6
#     Node 3, Type 0, BuildingBlock: MIDCAF_clean_sbu_0, # of connection points: 6
#     Node 4, Type 1, BuildingBlock: QEWDON_clean_linker_0, # of connection points: 3
#     Node 5, Type 1, BuildingBlock: QEWDON_clean_linker_0, # of connection points: 3
#     Node 6, Type 1, BuildingBlock: QEWDON_clean_linker_0, # of connection points: 3
#     Node 7, Type 1, BuildingBlock: QEWDON_clean_linker_0, # of connection points: 3
#     Node 8, Type 1, BuildingBlock: QEWDON_clean_linker_0, # of connection points: 3
#     Node 9, Type 1, BuildingBlock: QEWDON_clean_linker_0, # of connection points: 3
#     Node 10, Type 1, BuildingBlock: QEWDON_clean_linker_0, # of connection points: 3
#     Node 11, Type 1, BuildingBlock: QEWDON_clean_linker_0, # of connection points: 3
#     Edge 12, Type (0, 1), BuildingBlock: ZUJKAS_clean_linker_0, # of connection points: 2
#     Edge 13, Type (0, 1), BuildingBlock: ZUJKAS_clean_linker_0, # of connection points: 2
#     Edge 14, Type (0, 1), BuildingBlock: ZUJKAS_clean_linker_0, # of connection points: 2
#     Edge 15, Type (0, 1), BuildingBlock: ZUJKAS_clean_linker_0, # of connection points: 2
#     Edge 16, Type (0, 1), BuildingBlock: ZUJKAS_clean_linker_0, # of connection points: 2
#     Edge 17, Type (0, 1), BuildingBlock: ZUJKAS_clean_linker_0, # of connection points: 2
#     Edge 18, Type (0, 1), BuildingBlock: ZUJKAS_clean_linker_0, # of connection points: 2
#     Edge 19, Type (0, 1), BuildingBlock: ZUJKAS_clean_linker_0, # of connection points: 2
#     Edge 20, Type (0, 1), BuildingBlock: ZUJKAS_clean_linker_0, # of connection points: 2
#     Edge 21, Type (0, 1), BuildingBlock: ZUJKAS_clean_linker_0, # of connection points: 2
#     Edge 22, Type (0, 1), BuildingBlock: ZUJKAS_clean_linker_0, # of connection points: 2
#     Edge 23, Type (0, 1), BuildingBlock: ZUJKAS_clean_linker_0, # of connection points: 2
#     Edge 24, Type (0, 1), BuildingBlock: ZUJKAS_clean_linker_0, # of connection points: 2
#     Edge 25, Type (0, 1), BuildingBlock: ZUJKAS_clean_linker_0, # of connection points: 2
#     Edge 26, Type (0, 1), BuildingBlock: ZUJKAS_clean_linker_0, # of connection points: 2
#     Edge 27, Type (0, 1), BuildingBlock: ZUJKAS_clean_linker_0, # of connection points: 2
#     Edge 28, Type (0, 1), BuildingBlock: ZUJKAS_clean_linker_0, # of connection points: 2
#     Edge 29, Type (0, 1), BuildingBlock: ZUJKAS_clean_linker_0, # of connection points: 2
#     Edge 30, Type (0, 1), BuildingBlock: ZUJKAS_clean_linker_0, # of connection points: 2
#     Edge 31, Type (0, 1), BuildingBlock: ZUJKAS_clean_linker_0, # of connection points: 2
#     Edge 32, Type (0, 1), BuildingBlock: ZUJKAS_clean_linker_0, # of connection points: 2
#     Edge 33, Type (0, 1), BuildingBlock: ZUJKAS_clean_linker_0, # of connection points: 2
#     Edge 34, Type (0, 1), BuildingBlock: ZUJKAS_clean_linker_0, # of connection points: 2
#     Edge 35, Type (0, 1), BuildingBlock: ZUJKAS_clean_linker_0, # of connection points: 2
# Relax obj value: 0.077
# Max RMSD: 0.114
# Mean RMSD: 0.079
data_MOF--net-dag--node1-MIDCAF_clean_sbu_0--node2-QEWDON_clean_linker_0--edge1-ZUJKAS_clean_linker_0
_symmetry_space_group_name_H-M    P1
_symmetry_Int_Tables_number       1
_symmetry_cell_setting            triclinic
loop_
_symmetry_equiv_pos_as_xyz
'x, y, z'
_cell_length_a     54.715014
_cell_length_b     54.572335
_cell_length_c     43.200369
_cell_angle_alpha  89.480943
_cell_angle_beta   89.932554
_cell_angle_gamma 89.863971
loop_
_atom_site_label
_atom_site_type_symbol
_atom_site_fract_x
_atom_site_fract_y
_atom_site_fract_z
_atom_type_partial_charge
Zn0 Zn 0.11021 0.88909 0.06842 0.0
Zn1 Zn 0.11499 0.88454 0.95086 0.0
Zn2 Zn 0.11107 0.88469 0.00926 0.0
C3 C 0.12691 0.93096 0.96355 0.0
C4 C 0.06681 0.87211 0.96427 0.0
O5 O 0.13737 0.85755 0.02854 0.0
O6 O 0.13726 0.86612 0.07844 0.0
C7 C 0.12369 0.93405 0.04814 0.0
O8 O 0.12069 0.92231 0.99036 0.0
O9 O 0.12752 0.91712 0.94041 0.0
O10 O 0.08059 0.87813 0.94207 0.0
O11 O 0.07478 0.87285 0.99232 0.0
O12 O 0.11665 0.92431 0.07315 0.0
O13 O 0.12281 0.92191 0.02272 0.0
O14 O 0.07282 0.87468 0.02524 0.0
O15 O 0.07707 0.877 0.07605 0.0
C16 C 0.06397 0.87229 0.05288 0.0
O17 O 0.13994 0.85769 0.99631 0.0
O18 O 0.13781 0.85727 0.94522 0.0
C19 C 0.14527 0.85353 0.05624 0.0
C20 C 0.14719 0.84942 0.97 0.0
Zn21 Zn 0.60654 0.61441 0.45246 0.0
Zn22 Zn 0.61064 0.60158 0.56221 0.0
Zn23 Zn 0.60965 0.60645 0.50914 0.0
C24 C 0.60813 0.55568 0.54644 0.0
C25 C 0.57319 0.63284 0.55214 0.0
O26 O 0.63648 0.63567 0.49681 0.0
O27 O 0.62622 0.64462 0.44854 0.0
C28 C 0.62668 0.56727 0.46105 0.0
O29 O 0.61718 0.56696 0.52262 0.0
O30 O 0.59738 0.56796 0.56698 0.0
O31 O 0.58977 0.6302 0.57212 0.0
O32 O 0.57465 0.621 0.52654 0.0
O33 O 0.62273 0.5837 0.44093 0.0
O34 O 0.62145 0.57119 0.48966 0.0
O35 O 0.57019 0.61531 0.49596 0.0
O36 O 0.57131 0.61579 0.44478 0.0
C37 C 0.55916 0.6167 0.46951 0.0
O38 O 0.63952 0.62929 0.52807 0.0
O39 O 0.64633 0.60597 0.569 0.0
C40 C 0.63907 0.6488 0.47211 0.0
C41 C 0.65299 0.62328 0.55142 0.0
Zn42 Zn 0.86709 0.1202 0.9262 0.0
Zn43 Zn 0.89137 0.09182 0.04898 0.0
Zn44 Zn 0.88282 0.11241 1.00441 0.0
C45 C 0.93303 0.10985 0.03528 0.0
C46 C 0.84489 0.08023 0.03268 0.0
O47 O 0.84632 0.13025 1.00393 0.0
O48 O 0.83968 0.13388 0.95263 0.0
C49 C 0.90364 0.14379 0.94736 0.0
O50 O 0.91636 0.12478 0.02647 0.0
O51 O 0.92735 0.08757 0.03927 0.0
O52 O 0.86414 0.06816 0.03885 0.0
O53 O 0.84691 0.10257 0.02339 0.0
O54 O 0.89566 0.14434 0.91994 0.0
O55 O 0.89228 0.13058 0.96653 0.0
O56 O 0.88556 0.07671 0.98442 0.0
O57 O 0.87605 0.08425 0.93492 0.0
C58 C 0.88246 0.06954 0.95652 0.0
O59 O 0.85668 0.12934 0.03533 0.0
O60 O 0.88111 0.12243 0.07479 0.0
C61 C 0.83314 0.13723 0.98051 0.0
C62 C 0.86356 0.13454 0.06301 0.0
Zn63 Zn 0.402 0.36843 0.58618 0.0
Zn64 Zn 0.37951 0.3876 0.42608 0.0
Zn65 Zn 0.38361 0.36873 0.51291 0.0
C66 C 0.42675 0.38643 0.45997 0.0
C67 C 0.3536 0.39998 0.48411 0.0
O68 O 0.35338 0.3832 0.54307 0.0
O69 O 0.36345 0.36231 0.58592 0.0
C70 C 0.38985 0.3258 0.55011 0.0
O71 O 0.41564 0.37864 0.4845 0.0
O72 O 0.41552 0.39221 0.43498 0.0
O73 O 0.36515 0.38493 0.46776 0.0
O74 O 0.35475 0.39634 0.51328 0.0
O75 O 0.38095 0.34054 0.56938 0.0
O76 O 0.38451 0.33032 0.52217 0.0
O77 O 0.37471 0.40207 0.53959 0.0
O78 O 0.40822 0.40318 0.56824 0.0
C79 C 0.39009 0.41418 0.55601 0.0
O80 O 0.36819 0.33579 0.49458 0.0
O81 O 0.37001 0.35586 0.45058 0.0
C82 C 0.3471 0.37265 0.56893 0.0
C83 C 0.3642 0.33652 0.46545 0.0
H84 H 0.20952 0.11585 0.25417 0.0
C85 C 0.19404 0.12127 0.24003 0.0
C86 C 0.18749 0.10693 0.21471 0.0
C87 C 0.17939 0.14141 0.24845 0.0
H88 H 0.16184 0.10185 0.17766 0.0
C89 C 0.16681 0.11313 0.19722 0.0
C90 C 0.1519 0.1329 0.20531 0.0
C91 C 0.15849 0.14732 0.23069 0.0
C92 C 0.18418 0.15427 0.27787 0.0
H93 H 0.1468 0.16243 0.23742 0.0
C94 C 0.20802 0.16141 0.28612 0.0
C95 C 0.21242 0.172 0.31511 0.0
C96 C 0.16485 0.1582 0.29875 0.0
H97 H 0.14642 0.15253 0.29323 0.0
C98 C 0.1692 0.16884 0.3274 0.0
H99 H 0.22307 0.15858 0.2702 0.0
C100 C 0.19281 0.17562 0.33563 0.0
H101 H 0.19573 0.18406 0.35793 0.0
H102 H 0.15422 0.17172 0.34336 0.0
H103 H 0.36419 0.70737 0.74727 0.0
C104 C 0.3609 0.69033 0.73529 0.0
C105 C 0.3732 0.68566 0.70748 0.0
C106 C 0.34537 0.67244 0.74834 0.0
H107 H 0.38055 0.65906 0.67213 0.0
C108 C 0.37022 0.66301 0.69297 0.0
C109 C 0.35541 0.64477 0.70593 0.0
C110 C 0.3425 0.64976 0.73324 0.0
C111 C 0.3339 0.6765 0.77906 0.0
H112 H 0.33104 0.63563 0.74335 0.0
C113 C 0.32254 0.69898 0.78633 0.0
C114 C 0.31165 0.70223 0.81549 0.0
C115 C 0.33458 0.65772 0.8016 0.0
H116 H 0.34362 0.64046 0.79696 0.0
C117 C 0.32392 0.6611 0.83057 0.0
H118 H 0.32167 0.71362 0.76923 0.0
C119 C 0.31242 0.68318 0.83747 0.0
H120 H 0.30402 0.68542 0.86001 0.0
H121 H 0.32455 0.64654 0.84773 0.0
H122 H 0.82483 0.8299 0.2187 0.0
C123 C 0.82034 0.84903 0.22223 0.0
C124 C 0.8361 0.86737 0.21083 0.0
C125 C 0.79762 0.85542 0.23543 0.0
H126 H 0.84109 0.90613 0.20436 0.0
C127 C 0.82932 0.89202 0.21401 0.0
C128 C 0.80644 0.8986 0.22604 0.0
C129 C 0.79076 0.8802 0.23709 0.0
C130 C 0.77868 0.83654 0.24028 0.0
H131 H 0.77254 0.88502 0.2449 0.0
C132 C 0.77409 0.82596 0.26961 0.0
C133 C 0.75549 0.80827 0.27305 0.0
C134 C 0.76424 0.82989 0.2149 0.0
H135 H 0.76732 0.83815 0.19233 0.0
C136 C 0.74559 0.81276 0.21844 0.0
H137 H 0.78509 0.83111 0.28935 0.0
C138 C 0.74129 0.80192 0.24725 0.0
H139 H 0.72676 0.78856 0.24945 0.0
H140 H 0.73446 0.80782 0.19877 0.0
H141 H 0.67243 0.3203 0.72453 0.0
C142 C 0.65291 0.31723 0.72623 0.0
C143 C 0.63645 0.33615 0.71822 0.0
C144 C 0.64397 0.29384 0.73446 0.0
H145 H 0.59889 0.3454 0.70986 0.0
C146 C 0.61131 0.33138 0.71842 0.0
C147 C 0.60236 0.30785 0.72478 0.0
C148 C 0.61872 0.28941 0.73385 0.0
C149 C 0.66047 0.27257 0.73818 0.0
H150 H 0.61197 0.27102 0.73824 0.0
C151 C 0.67388 0.26866 0.76557 0.0
C152 C 0.6869 0.24652 0.77022 0.0
C153 C 0.66049 0.25457 0.7152 0.0
H154 H 0.64998 0.25717 0.69416 0.0
C155 C 0.67342 0.23282 0.71949 0.0
H156 H 0.6737 0.28257 0.78329 0.0
C157 C 0.68634 0.22868 0.74682 0.0
H158 H 0.69543 0.21118 0.74982 0.0
H159 H 0.67302 0.21889 0.70182 0.0
H160 H 0.71765 0.3668 0.26527 0.0
C161 C 0.70109 0.3638 0.27856 0.0
C162 C 0.69732 0.37694 0.3058 0.0
C163 C 0.68292 0.34774 0.26776 0.0
H164 H 0.67245 0.38499 0.34288 0.0
C165 C 0.67539 0.37425 0.32217 0.0
C166 C 0.65672 0.35914 0.31135 0.0
C167 C 0.66077 0.34541 0.28445 0.0
C168 C 0.68621 0.33515 0.23769 0.0
H169 H 0.6464 0.33364 0.27594 0.0
C170 C 0.70865 0.32396 0.22995 0.0
C171 C 0.7119 0.31298 0.20084 0.0
C172 C 0.66704 0.335 0.21605 0.0
H173 H 0.64971 0.34372 0.22114 0.0
C174 C 0.67019 0.3241 0.18726 0.0
H175 H 0.72352 0.32378 0.2465 0.0
C176 C 0.69244 0.31323 0.17962 0.0
H177 H 0.69426 0.30454 0.15728 0.0
H178 H 0.6553 0.3241 0.17077 0.0
H179 H 0.16969 0.16691 0.79083 0.0
C180 C 0.1507 0.17256 0.78974 0.0
C181 C 0.13211 0.15599 0.79818 0.0
C182 C 0.14491 0.19702 0.78213 0.0
H183 H 0.09376 0.15224 0.80772 0.0
C184 C 0.10783 0.16428 0.79864 0.0
C185 C 0.10201 0.18888 0.79244 0.0
C186 C 0.12055 0.20496 0.78315 0.0
C187 C 0.16417 0.21576 0.78093 0.0
H188 H 0.11638 0.22423 0.77961 0.0
C189 C 0.17455 0.22355 0.75274 0.0
C190 C 0.19152 0.24297 0.75229 0.0
C191 C 0.17054 0.22747 0.80852 0.0
H192 H 0.16229 0.22192 0.83029 0.0
C193 C 0.18708 0.2468 0.80815 0.0
H194 H 0.16943 0.21458 0.73144 0.0
C195 C 0.19746 0.25456 0.7803 0.0
H196 H 0.2099 0.26997 0.78065 0.0
H197 H 0.19166 0.25598 0.82947 0.0
H198 H 0.32513 0.66785 0.29698 0.0
C199 C 0.32184 0.64839 0.29439 0.0
C200 C 0.34009 0.63139 0.30281 0.0
C201 C 0.2987 0.64017 0.28481 0.0
H202 H 0.34832 0.59335 0.31042 0.0
C203 C 0.3349 0.60627 0.30155 0.0
C204 C 0.31149 0.59793 0.29376 0.0
C205 C 0.29373 0.61498 0.28437 0.0
C206 C 0.27799 0.65736 0.28225 0.0
H207 H 0.27536 0.60879 0.27922 0.0
C208 C 0.2726 0.66976 0.25438 0.0
C209 C 0.25164 0.6848 0.25224 0.0
C210 C 0.26238 0.65987 0.3078 0.0
H211 H 0.26614 0.65014 0.32926 0.0
C212 C 0.24162 0.67458 0.30575 0.0
H213 H 0.28461 0.66768 0.23461 0.0
C214 C 0.23621 0.68691 0.27821 0.0
H215 H 0.2197 0.69787 0.27713 0.0
H216 H 0.22954 0.67626 0.32549 0.0
H217 H 0.86989 0.78093 0.76121 0.0
C218 C 0.86571 0.79602 0.77649 0.0
C219 C 0.87938 0.79918 0.80359 0.0
C220 C 0.8475 0.81323 0.76845 0.0
H221 H 0.88624 0.82216 0.84275 0.0
C222 C 0.87473 0.81928 0.82266 0.0
C223 C 0.85718 0.83686 0.81469 0.0
C224 C 0.84343 0.83362 0.78766 0.0
C225 C 0.83382 0.81119 0.73898 0.0
H226 H 0.82976 0.84718 0.78135 0.0
C227 C 0.82229 0.78916 0.73055 0.0
C228 C 0.80781 0.78834 0.70367 0.0
C229 C 0.83152 0.83191 0.71957 0.0
H230 H 0.84052 0.84894 0.72527 0.0
C231 C 0.81759 0.8309 0.69264 0.0
H232 H 0.82374 0.77311 0.74539 0.0
C233 C 0.80562 0.80933 0.68484 0.0
H234 H 0.79467 0.80898 0.66397 0.0
H235 H 0.8159 0.84696 0.6779 0.0
H236 H 0.16845 0.94227 0.0234 0.0
H237 H 0.19888 0.96984 0.04595 0.0
H238 H 0.14258 0.00302 0.1016 0.0
H239 H 0.11237 0.97505 0.07999 0.0
H240 H 0.19438 0.03137 0.06704 0.0
H241 H 0.19884 0.95541 0.15348 0.0
H242 H 0.19332 0.95021 0.11279 0.0
H243 H 0.16945 0.96226 0.13677 0.0
C244 C 0.16239 0.95633 0.03924 0.0
C245 C 0.13818 0.95654 0.05025 0.0
C246 C 0.17982 0.97187 0.05225 0.0
C247 C 0.17291 0.98803 0.07572 0.0
C248 C 0.14816 0.99047 0.08361 0.0
H249 H 0.1688 0.06184 0.22112 0.0
H250 H 0.17937 0.02746 0.18868 0.0
C251 C 0.1309 0.97467 0.07112 0.0
C252 C 0.19125 -0.00058 0.09593 0.0
H253 H 0.21068 0.99493 0.17061 0.0
C254 C 0.1988 0.02333 0.08939 0.0
C255 C 0.19719 0.98845 0.12469 0.0
C256 C 0.18946 0.96259 0.13247 0.0
C257 C 0.20942 0.03781 0.11245 0.0
C258 C 0.21257 0.0278 0.14272 0.0
C259 C 0.20815 0.0027 0.14763 0.0
C260 C 0.21251 0.04391 0.17029 0.0
C261 C 0.21446 0.0644 0.10493 0.0
C262 C 0.22888 0.06358 0.17349 0.0
C263 C 0.22235 0.08375 0.19164 0.0
C264 C 0.19994 0.08374 0.20748 0.0
C265 C 0.18605 0.06223 0.20875 0.0
C266 C 0.19218 0.04252 0.19014 0.0
H267 H 0.20973 0.06926 0.08063 0.0
H268 H 0.20377 0.07647 0.12047 0.0
H269 H 0.23417 0.06826 0.10821 0.0
H270 H 0.24532 0.0645 0.15961 0.0
H271 H 0.23345 0.10014 0.19072 0.0
H272 H 0.57541 0.67517 0.58364 0.0
H273 H 0.54129 0.69786 0.606 0.0
H274 H 0.49048 0.65016 0.55997 0.0
H275 H 0.5248 0.62714 0.53755 0.0
H276 H 0.49466 0.72116 0.58469 0.0
H277 H 0.48597 0.63633 0.65634 0.0
H278 H 0.51235 0.64242 0.63243 0.0
H279 H 0.4844 0.63209 0.61517 0.0
C280 C 0.55693 0.66991 0.57765 0.0
C281 C 0.55261 0.64924 0.55926 0.0
C282 C 0.53751 0.68302 0.59023 0.0
C283 C 0.51347 0.67551 0.58486 0.0
C284 C 0.509 0.65615 0.56435 0.0
H285 H 0.37478 0.70788 0.65108 0.0
H286 H 0.41268 0.71555 0.62291 0.0
C287 C 0.52853 0.64307 0.55152 0.0
C288 C 0.49383 0.68495 0.60497 0.0
H289 H 0.4573 0.66763 0.66509 0.0
C290 C 0.48639 0.70954 0.60228 0.0
C291 C 0.4838 0.66993 0.62854 0.0
C292 C 0.49211 0.64378 0.63362 0.0
C293 C 0.46829 0.71918 0.62193 0.0
C294 C 0.45759 0.70379 0.64462 0.0
C295 C 0.46569 0.67949 0.64783 0.0
C296 C 0.43594 0.71093 0.663 0.0
C297 C 0.4607 0.74561 0.61836 0.0
C298 C 0.43633 0.70779 0.69533 0.0
C299 C 0.4146 0.70342 0.71147 0.0
C300 C 0.39243 0.70202 0.6953 0.0
C301 C 0.39172 0.70899 0.66395 0.0
C302 C 0.41341 0.71342 0.64784 0.0
H303 H 0.47495 0.75658 0.60627 0.0
H304 H 0.44368 0.74663 0.60446 0.0
H305 H 0.45693 0.75389 0.64128 0.0
H306 H 0.45356 0.70573 0.70741 0.0
H307 H 0.41558 0.69791 0.7356 0.0
H308 H 0.82213 0.03869 0.01577 0.0
H309 H 0.80042 0.01234 0.05248 0.0
H310 H 0.79864 0.07136 0.11823 0.0
H311 H 0.8192 0.09804 0.0808 0.0
H312 H 0.82843 0.00335 0.10146 0.0
H313 H 0.73769 0.03407 0.14323 0.0
H314 H 0.75059 0.04453 0.10693 0.0
H315 H 0.76025 0.0579 0.14277 0.0
C316 C 0.81541 0.04653 0.03713 0.0
C317 C 0.82213 0.07035 0.04547 0.0
C318 C 0.80328 0.0314 0.05831 0.0
C319 C 0.79814 0.03974 0.08832 0.0
C320 C 0.80203 0.06455 0.09515 0.0
H321 H 0.8285 0.94186 0.2407 0.0
H322 H 0.82241 0.98063 0.21277 0.0
C323 C 0.81371 0.07988 0.07363 0.0
C324 C 0.79482 0.02155 0.11375 0.0
H325 H 0.75908 0.00501 0.17548 0.0
C326 C 0.81309 0.00364 0.1174 0.0
C327 C 0.77504 0.02209 0.13485 0.0
C328 C 0.75465 0.04055 0.13165 0.0
C329 C 0.81211 0.98621 0.14126 0.0
C330 C 0.79263 0.98701 0.16279 0.0
C331 C 0.7742 0.00477 0.15923 0.0
C332 C 0.79075 0.96816 0.1875 0.0
C333 C 0.83181 0.96674 0.14286 0.0
C334 C 0.77369 0.9492 0.18448 0.0
C335 C 0.77699 0.92714 0.20066 0.0
C336 C 0.79749 0.92381 0.21985 0.0
C337 C 0.81263 0.94396 0.22592 0.0
C338 C 0.80919 0.96607 0.20994 0.0
H339 H 0.84248 0.9657 0.12101 0.0
H340 H 0.84467 0.9711 0.16187 0.0
H341 H 0.8238 0.94843 0.14774 0.0
H342 H 0.75934 0.95049 0.16728 0.0
H343 H 0.76512 0.91188 0.19539 0.0
H344 H 0.40485 0.2807 0.56802 0.0
H345 H 0.4438 0.27124 0.5936 0.0
H346 H 0.46901 0.34465 0.574 0.0
H347 H 0.43072 0.35355 0.54676 0.0
H348 H 0.50688 0.3108 0.57642 0.0
H349 H 0.44561 0.30357 0.67864 0.0
H350 H 0.43858 0.28223 0.64858 0.0
H351 H 0.43531 0.3146 0.64142 0.0
C352 C 0.41918 0.29436 0.56809 0.0
C353 C 0.4149 0.3179 0.55619 0.0
C354 C 0.44125 0.28908 0.58286 0.0
C355 C 0.45877 0.30756 0.58663 0.0
C356 C 0.45556 0.33025 0.57164 0.0
H357 H 0.5599 0.3334 0.73466 0.0
H358 H 0.5232 0.33105 0.70242 0.0
C359 C 0.43373 0.33533 0.55622 0.0
C360 C 0.47831 0.30463 0.60986 0.0
H361 H 0.48753 0.29564 0.68731 0.0
C362 C 0.50272 0.30726 0.6006 0.0
C363 C 0.47265 0.30103 0.64159 0.0
C364 C 0.44663 0.30046 0.65329 0.0
C365 C 0.52173 0.30578 0.62226 0.0
C366 C 0.51609 0.30086 0.65371 0.0
C367 C 0.4917 0.29876 0.66304 0.0
C368 C 0.53539 0.2991 0.67738 0.0
C369 C 0.54763 0.31027 0.61152 0.0
C370 C 0.55336 0.28087 0.67536 0.0
C371 C 0.57427 0.28217 0.69364 0.0
C372 C 0.5774 0.30173 0.71425 0.0
C373 C 0.55804 0.31832 0.7187 0.0
C374 C 0.53715 0.31704 0.70029 0.0
H375 H 0.54822 0.31947 0.58848 0.0
H376 H 0.55768 0.32175 0.62835 0.0
H377 H 0.55735 0.29247 0.60966 0.0
H378 H 0.55196 0.26659 0.6582 0.0
H379 H 0.58887 0.26917 0.6895 0.0
H380 H 0.62615 0.54875 0.40326 0.0
H381 H 0.65239 0.51682 0.38239 0.0
H382 H 0.6823 0.50323 0.47323 0.0
H383 H 0.6565 0.53617 0.49418 0.0
H384 H 0.70836 0.51685 0.39051 0.0
H385 H 0.65734 0.435 0.43378 0.0
H386 H 0.64249 0.46428 0.42837 0.0
H387 H 0.66336 0.45989 0.45987 0.0
C388 C 0.63806 0.5388 0.41899 0.0
C389 C 0.63911 0.54479 0.45057 0.0
C390 C 0.65314 0.52068 0.40694 0.0
C391 C 0.6694 0.50797 0.42623 0.0
C392 C 0.66984 0.513 0.45803 0.0
H393 H 0.72837 0.37592 0.35464 0.0
H394 H 0.73455 0.41178 0.38708 0.0
C395 C 0.65481 0.53143 0.47012 0.0
C396 C 0.68569 0.48949 0.41243 0.0
H397 H 0.68887 0.42839 0.3984 0.0
C398 C 0.7046 0.49741 0.39273 0.0
C399 C 0.68055 0.46429 0.41534 0.0
C400 C 0.65981 0.45515 0.43536 0.0
C401 C 0.71786 0.48068 0.37472 0.0
C402 C 0.71184 0.45555 0.37641 0.0
C403 C 0.69383 0.44762 0.39748 0.0
C404 C 0.72033 0.43756 0.35327 0.0
C405 C 0.73751 0.49012 0.35326 0.0
C406 C 0.71282 0.44056 0.32238 0.0
C407 C 0.70975 0.42008 0.30364 0.0
C408 C 0.71382 0.39653 0.31587 0.0
C409 C 0.72529 0.39397 0.34474 0.0
C410 C 0.72864 0.41447 0.36336 0.0
H411 H 0.74587 0.50713 0.36238 0.0
H412 H 0.75208 0.47622 0.34975 0.0
H413 H 0.72927 0.49464 0.33045 0.0
H414 H 0.70604 0.45809 0.31411 0.0
H415 H 0.70062 0.4224 0.28155 0.0
H416 H 0.91326 0.19075 0.96257 0.0
H417 H 0.95213 0.21107 0.95094 0.0
H418 H 0.98529 0.14075 0.93334 0.0
H419 H 0.94682 0.12049 0.94624 0.0
H420 H 0.01965 0.17892 0.94626 0.0
H421 H 0.95083 0.20221 0.85551 0.0
H422 H 0.94443 0.21324 0.89372 0.0
H423 H 0.94461 0.18085 0.88648 0.0
C424 C 0.92933 0.17969 0.95809 0.0
C425 C 0.92732 0.15432 0.95448 0.0
C426 C 0.95146 0.19124 0.95148 0.0
C427 C 0.97111 0.1774 0.94013 0.0
C428 C 0.97017 0.15173 0.94172 0.0
H429 H 0.05633 0.17008 0.78326 0.0
H430 H 0.02239 0.17456 0.81958 0.0
C431 C 0.94821 0.14017 0.94892 0.0
C432 C 0.98857 0.18867 0.91835 0.0
H433 H 0.99157 0.21038 0.84405 0.0
C434 C 0.01363 0.18646 0.92423 0.0
C435 C 0.98043 0.19761 0.88918 0.0
C436 C 0.95365 0.19848 0.88058 0.0
C437 C 0.03086 0.19222 0.90126 0.0
C438 C 0.02266 0.20105 0.87209 0.0
C439 C -0.00234 0.20411 0.86667 0.0
C440 C 0.03952 0.20354 0.84564 0.0
C441 C 0.05755 0.18713 0.9076 0.0
C442 C 0.05923 0.21981 0.84678 0.0
C443 C 0.07866 0.2172 0.82616 0.0
C444 C 0.07844 0.19834 0.80416 0.0
C445 C 0.05704 0.18453 0.80027 0.0
C446 C 0.03772 0.18703 0.82105 0.0
H447 H 0.06029 0.17642 0.92932 0.0
H448 H 0.0659 0.17685 0.88818 0.0
H449 H 0.06745 0.20474 0.90982 0.0
H450 H 0.06056 0.23306 0.86522 0.0
H451 H 0.09489 0.22814 0.82977 0.0
H452 H 0.3774 0.42842 0.44286 0.0
H453 H 0.36007 0.46123 0.41109 0.0
H454 H 0.29266 0.45677 0.46266 0.0
H455 H 0.31001 0.4232 0.49455 0.0
H456 H 0.31041 0.45028 0.37747 0.0
H457 H 0.31623 0.53356 0.45105 0.0
H458 H 0.33793 0.50879 0.45547 0.0
H459 H 0.30692 0.50455 0.46766 0.0
C460 C 0.35891 0.43448 0.44753 0.0
C461 C 0.34468 0.42295 0.47039 0.0
C462 C 0.34913 0.45328 0.42953 0.0
C463 C 0.32504 0.46099 0.43431 0.0
C464 C 0.31128 0.45081 0.45866 0.0
H465 H 0.27148 0.5844 0.32714 0.0
H466 H 0.26747 0.54703 0.35796 0.0
C467 C 0.32117 0.43185 0.47685 0.0
C468 C 0.31421 0.47831 0.41191 0.0
H469 H 0.30567 0.53927 0.39875 0.0
C470 C 0.30879 0.46971 0.38218 0.0
C471 C 0.31234 0.5035 0.41832 0.0
C472 C 0.31864 0.51337 0.4498 0.0
C473 C 0.30247 0.48594 0.35815 0.0
C474 C 0.3018 0.51131 0.36412 0.0
C475 C 0.306 0.51974 0.39432 0.0
C476 C 0.29976 0.52982 0.33909 0.0
C477 C 0.29732 0.47587 0.32644 0.0
C478 C 0.31845 0.53182 0.31692 0.0
C479 C 0.32069 0.55311 0.29899 0.0
C480 C 0.30443 0.57276 0.30328 0.0
C481 C 0.2842 0.56954 0.32304 0.0
C482 C 0.28197 0.54825 0.34091 0.0
H483 H 0.29087 0.4566 0.32784 0.0
H484 H 0.28341 0.4871 0.31407 0.0
H485 H 0.31443 0.47611 0.31261 0.0
H486 H 0.33257 0.51793 0.31542 0.0
H487 H 0.33636 0.55508 0.28382 0.0
H488 H 0.03926 0.88288 0.91426 0.0
H489 H 0.00857 0.85658 0.89098 0.0
H490 H 0.01091 0.80875 0.97088 0.0
H491 H 0.04224 0.83505 0.99444 0.0
H492 H 0.02131 0.79964 0.8844 0.0
H493 H 0.93493 0.82693 0.94363 0.0
H494 H 0.95965 0.84848 0.93881 0.0
H495 H 0.9629 0.82331 0.96539 0.0
C496 C 0.03277 0.86715 0.92735 0.0
C497 C 0.04322 0.86091 0.95609 0.0
C498 C 0.01543 0.85204 0.91386 0.0
C499 C 0.00798 0.83055 0.92897 0.0
C500 C 0.01675 0.82521 0.95883 0.0
H501 H 0.88387 0.76317 0.84692 0.0
H502 H 0.92078 0.75879 0.87827 0.0
C503 C 0.03431 0.8404 0.97243 0.0
C504 C 0.99182 0.81354 0.91235 0.0
H505 H 0.93161 0.80225 0.89983 0.0
C506 C 0.00171 0.7996 0.88816 0.0
C507 C 0.9664 0.81367 0.91736 0.0
C508 C 0.95512 0.82886 0.94265 0.0
C509 C 0.98656 0.78664 0.86782 0.0
C510 C 0.96092 0.78802 0.87163 0.0
C511 C 0.95126 0.80083 0.89704 0.0
C512 C 0.94346 0.7803 0.84732 0.0
C513 C -0.00187 0.77238 0.8419 0.0
C514 C 0.94467 0.79154 0.81795 0.0
C515 C 0.92371 0.79342 0.79965 0.0
C516 C 0.9013 0.78458 0.81087 0.0
C517 C 0.90103 0.76992 0.83772 0.0
C518 C 0.92209 0.76767 0.8558 0.0
H519 H 0.01615 0.76483 0.84909 0.0
H520 H 0.98629 0.75708 0.83428 0.0
H521 H 0.00136 0.78484 0.82187 0.0
H522 H 0.96074 0.80171 0.81093 0.0
H523 H 0.92423 0.80509 0.77922 0.0
H524 H 0.89191 0.05155 0.89962 0.0
H525 H 0.8888 0.00942 0.88262 0.0
H526 H 0.87579 0.9857 0.97673 0.0
H527 H 0.87817 0.0285 0.99403 0.0
H528 H 0.91292 0.96749 0.8957 0.0
H529 H 0.81556 0.96031 0.93222 0.0
H530 H 0.83178 0.98905 0.93179 0.0
H531 H 0.83702 0.96715 0.96238 0.0
C532 C 0.88857 0.03741 0.91688 0.0
C533 C 0.8849 0.04341 0.94815 0.0
C534 C 0.88689 0.01327 0.90708 0.0
C535 C 0.88152 0.99445 0.92825 0.0
C536 C 0.87938 5e-05 0.95988 0.0
H537 H 0.85576 0.84151 0.87767 0.0
H538 H 0.86112 0.87918 0.9074 0.0
C539 C 0.88104 0.02443 0.9698 0.0
C540 C 0.8771 0.96944 0.91627 0.0
H541 H 0.83226 0.92679 0.9056 0.0
C542 C 0.89537 0.95848 0.89816 0.0
C543 C 0.85408 0.95779 0.91925 0.0
C544 C 0.83337 0.96919 0.93723 0.0
C545 C 0.89109 0.93653 0.88243 0.0
C546 C 0.86794 0.92527 0.88483 0.0
C547 C 0.84994 0.93563 0.90379 0.0
C548 C 0.86206 0.90297 0.86714 0.0
C549 C 0.91125 0.92567 0.86298 0.0
C550 C 0.85992 0.9041 0.83479 0.0
C551 C 0.85673 0.88268 0.81777 0.0
C552 C 0.85573 0.85977 0.83287 0.0
C553 C 0.85661 0.8589 0.86542 0.0
C554 C 0.85966 0.88035 0.88242 0.0
H555 H 0.92933 0.93384 0.86833 0.0
H556 H 0.91234 0.90553 0.86659 0.0
H557 H 0.90725 0.92916 0.83815 0.0
H558 H 0.86151 0.92149 0.82266 0.0
H559 H 0.85639 0.88392 0.79273 0.0
H560 H 0.44866 0.34282 0.45356 0.0
H561 H 0.48955 0.33543 0.4322 0.0
H562 H 0.50446 0.4129 0.43477 0.0
H563 H 0.4631 0.42043 0.45522 0.0
H564 H 0.50382 0.37011 0.37088 0.0
H565 H 0.56659 0.36452 0.47226 0.0
H566 H 0.53517 0.35451 0.47482 0.0
H567 H 0.5419 0.38655 0.47211 0.0
C568 C 0.46108 0.35813 0.45078 0.0
C569 C 0.45311 0.38214 0.4567 0.0
C570 C 0.48428 0.35391 0.43832 0.0
C571 C 0.49997 0.37361 0.43209 0.0
C572 C 0.49259 0.39748 0.43967 0.0
H573 H 0.63128 0.39933 0.32978 0.0
H574 H 0.5931 0.40082 0.35908 0.0
C575 C 0.46915 0.40176 0.45157 0.0
C576 C 0.5228 0.36952 0.4145 0.0
H577 H 0.58451 0.36248 0.42246 0.0
C578 C 0.52146 0.36826 0.38211 0.0
C579 C 0.54566 0.36712 0.42933 0.0
C580 C 0.54768 0.36816 0.46407 0.0
C581 C 0.54258 0.36508 0.36408 0.0
C582 C 0.56549 0.36296 0.37887 0.0
C583 C 0.56682 0.36392 0.41129 0.0
C584 C 0.5884 0.36154 0.36078 0.0
C585 C 0.54054 0.36455 0.32929 0.0
C586 C 0.59816 0.33888 0.35173 0.0
C587 C 0.6201 0.33792 0.33491 0.0
C588 C 0.63258 0.35963 0.32719 0.0
C589 C 0.62233 0.38226 0.33584 0.0
C590 C 0.60051 0.38319 0.35251 0.0
H591 H 0.52126 0.36551 0.32131 0.0
H592 H 0.55072 0.38028 0.31915 0.0
H593 H 0.54903 0.34752 0.32034 0.0
H594 H 0.58891 0.322 0.35788 0.0
H595 H 0.6276 0.32027 0.32865 0.0
H596 H 0.16797 0.94894 0.93769 0.0
H597 H 0.17315 0.9896 0.91453 0.0
H598 H 0.10309 0.01152 0.95114 0.0
H599 H 0.09843 0.97092 0.97548 0.0
H600 H 0.14312 0.00394 0.86965 0.0
H601 H 0.14191 0.07383 0.96204 0.0
H602 H 0.14719 0.04172 0.97007 0.0
H603 H 0.11665 0.05293 0.96379 0.0
C604 C 0.1542 0.96283 0.94192 0.0
C605 C 0.1329 0.95698 0.95848 0.0
C606 C 0.15706 0.98599 0.92849 0.0
C607 C 0.1385 0.00367 0.93092 0.0
C608 C 0.11789 -0.0016 0.94934 0.0
H609 H 0.1079 0.11288 0.78902 0.0
H610 H 0.11032 0.07584 0.82088 0.0
C611 C 0.11522 0.97523 0.96331 0.0
C612 C 0.13938 0.02586 0.91066 0.0
H613 H 0.13697 0.0884 0.91018 0.0
C614 C 0.14201 0.02242 0.87861 0.0
C615 C 0.13792 0.04997 0.92224 0.0
C616 C 0.13598 0.05492 0.95644 0.0
C617 C 0.14322 0.0423 0.85785 0.0
C618 C 0.1411 0.06642 0.86929 0.0
C619 C 0.1386 0.06992 0.90137 0.0
C620 C 0.14089 0.08823 0.84836 0.0
C621 C 0.14715 0.03715 0.82393 0.0
C622 C 0.15723 0.10766 0.8531 0.0
C623 C 0.15562 0.12911 0.83517 0.0
C624 C 0.13758 0.13155 0.81217 0.0
C625 C 0.12202 0.11158 0.80652 0.0
C626 C 0.12347 0.0903 0.82465 0.0
H627 H 0.1563 0.01918 0.82049 0.0
H628 H 0.12917 0.03643 0.81213 0.0
H629 H 0.15836 0.05162 0.81264 0.0
H630 H 0.1708 0.10651 0.87129 0.0
H631 H 0.16756 0.14427 0.84057 0.0
H632 H 0.53076 0.65692 0.48026 0.0
H633 H 0.48969 0.6641 0.45877 0.0
H634 H 0.48779 0.58949 0.42677 0.0
H635 H 0.52845 0.58238 0.44838 0.0
H636 H 0.48161 0.66055 0.39583 0.0
H637 H 0.41845 0.59807 0.45805 0.0
H638 H 0.44807 0.60609 0.47332 0.0
H639 H 0.44534 0.58275 0.44435 0.0
C640 C 0.52098 0.64181 0.46997 0.0
C641 C 0.53243 0.61895 0.46657 0.0
C642 C 0.49768 0.64596 0.45739 0.0
C643 C 0.4855 0.62728 0.44132 0.0
C644 C 0.49644 0.60403 0.43962 0.0
H645 H 0.38704 0.61861 0.2889 0.0
H646 H 0.42265 0.62178 0.32311 0.0
C647 C 0.51968 0.59994 0.45206 0.0
C648 C 0.46318 0.63273 0.42275 0.0
H649 H 0.40525 0.61261 0.40801 0.0
C650 C 0.46476 0.65037 0.39888 0.0
C651 C 0.44122 0.61934 0.42651 0.0
C652 C 0.43805 0.60066 0.45214 0.0
C653 C 0.44537 0.65428 0.37805 0.0
C654 C 0.42384 0.6403 0.38122 0.0
C655 C 0.42186 0.62329 0.40565 0.0
C656 C 0.40359 0.6421 0.35851 0.0
C657 C 0.44809 0.67296 0.35238 0.0
C658 C 0.38136 0.65318 0.36666 0.0
C659 C 0.36114 0.65178 0.3469 0.0
C660 C 0.36276 0.63891 0.31893 0.0
C661 C 0.38541 0.62891 0.31014 0.0
C662 C 0.40569 0.63059 0.32971 0.0
H663 H 0.46446 0.68468 0.35553 0.0
H664 H 0.44978 0.66337 0.32992 0.0
H665 H 0.4316 0.68483 0.35112 0.0
H666 H 0.37938 0.66202 0.38888 0.0
H667 H 0.34379 0.65919 0.35454 0.0
H668 H 0.34623 0.43879 0.55266 0.0
H669 H 0.33629 0.47878 0.57511 0.0
H670 H 0.41095 0.48654 0.60511 0.0
H671 H 0.42103 0.44673 0.58302 0.0
H672 H 0.34409 0.49138 0.64112 0.0
H673 H 0.39401 0.5524 0.55948 0.0
H674 H 0.38514 0.52156 0.54965 0.0
H675 H 0.4114 0.52667 0.57366 0.0
C676 C 0.36063 0.44918 0.5636 0.0
C677 C 0.38445 0.43953 0.56604 0.0
C678 C 0.35487 0.47196 0.57655 0.0
C679 C 0.37291 0.48565 0.59164 0.0
C680 C 0.39681 0.47638 0.59331 0.0
H681 H 0.39508 0.61694 0.6929 0.0
H682 H 0.39655 0.57796 0.66566 0.0
C683 C 0.40252 0.45358 0.5807 0.0
C684 C 0.36682 0.50912 0.60702 0.0
H685 H 0.38142 0.56988 0.60717 0.0
C686 C 0.35193 0.50865 0.63352 0.0
C687 C 0.37715 0.53156 0.59708 0.0
C688 C 0.39266 0.53325 0.56825 0.0
C689 C 0.34806 0.52986 0.65123 0.0
C690 C 0.35897 0.5522 0.64173 0.0
C691 C 0.37314 0.55275 0.61457 0.0
C692 C 0.35733 0.57495 0.6604 0.0
C693 C 0.33335 0.52788 0.68071 0.0
C694 C 0.33474 0.58613 0.66706 0.0
C695 C 0.33387 0.60841 0.68302 0.0
C696 C 0.35559 0.62001 0.69203 0.0
C697 C 0.37807 0.6085 0.68594 0.0
C698 C 0.37892 0.58624 0.67035 0.0
H699 H 0.33118 0.50853 0.68845 0.0
H700 H 0.34209 0.53836 0.69961 0.0
H701 H 0.31486 0.53564 0.67669 0.0
H702 H 0.31785 0.57802 0.65915 0.0
H703 H 0.31635 0.61703 0.68726 0.0
H704 H 0.02047 0.88958 0.02871 0.0
H705 H 0.97978 0.88372 0.05239 0.0
H706 H 0.01049 0.83136 0.11684 0.0
H707 H 0.05078 0.83744 0.09382 0.0
H708 H 0.94847 0.8424 0.06665 0.0
H709 H 0.98426 0.88559 0.17315 0.0
H710 H 0.00052 0.88666 0.1368 0.0
H711 H 0.00162 0.85952 0.16071 0.0
C712 C 0.01827 0.87624 0.04721 0.0
C713 C 0.03874 0.86397 0.05946 0.0
C714 C 0.99511 0.87306 0.06094 0.0
C715 C 0.99223 0.85759 0.08699 0.0
C716 C 0.01232 0.84382 0.09731 0.0
H717 H 0.87494 0.83675 0.22435 0.0
H718 H 0.91249 0.83127 0.19348 0.0
C719 C 0.0353 0.8471 0.08387 0.0
C720 C 0.96889 0.85686 0.10484 0.0
H721 H 0.9447 0.86838 0.17637 0.0
C722 C 0.94762 0.84814 0.0906 0.0
C723 C 0.96777 0.86423 0.13623 0.0
C724 C 0.98969 0.87474 0.1526 0.0
C725 C 0.92538 0.84633 0.10694 0.0
C726 C 0.92425 0.85385 0.13824 0.0
C727 C 0.94557 0.86238 0.15252 0.0
C728 C 0.9008 0.85499 0.15581 0.0
C729 C 0.90336 0.83606 0.09062 0.0
C730 C 0.88176 0.86998 0.14493 0.0
C731 C 0.86053 0.87308 0.1624 0.0
C732 C 0.85782 0.86147 0.19143 0.0
C733 C 0.87652 0.84584 0.20205 0.0
C734 C 0.89796 0.8428 0.18448 0.0
H735 H 0.90881 0.82407 0.07114 0.0
H736 H 0.89164 0.82539 0.10681 0.0
H737 H 0.89236 0.8514 0.0809 0.0
H738 H 0.88362 0.87998 0.12329 0.0
H739 H 0.84634 0.88507 0.15345 0.0
H740 H 0.57626 0.52149 0.56768 0.0
H741 H 0.58648 0.48282 0.59384 0.0
H742 H 0.66245 0.49329 0.57071 0.0
H743 H 0.65235 0.53261 0.54606 0.0
H744 H 0.60873 0.43945 0.57849 0.0
H745 H 0.66413 0.48977 0.66464 0.0
H746 H 0.64457 0.50517 0.63705 0.0
H747 H 0.67405 0.49393 0.62532 0.0
C748 C 0.59502 0.51511 0.56729 0.0
C749 C 0.6134 0.52967 0.55378 0.0
C750 C 0.60088 0.49308 0.58242 0.0
C751 C 0.6253 0.48527 0.58469 0.0
C752 C 0.64352 0.49905 0.5696 0.0
H753 H 0.66304 0.34192 0.66546 0.0
H754 H 0.66373 0.37873 0.63237 0.0
C755 C 0.63765 0.5212 0.55461 0.0
C756 C 0.63165 0.4637 0.60456 0.0
H757 H 0.66307 0.44668 0.66984 0.0
C758 C 0.6208 0.44099 0.59827 0.0
C759 C 0.64696 0.46581 0.63088 0.0
C760 C 0.65793 0.49001 0.64015 0.0
C761 C 0.62489 0.4204 0.61742 0.0
C762 C 0.64063 0.42241 0.64327 0.0
C763 C 0.65141 0.44509 0.64967 0.0
C764 C 0.64453 0.40156 0.66513 0.0
C765 C 0.61161 0.39685 0.61053 0.0
C766 C 0.63491 0.40265 0.69522 0.0
C767 C 0.63472 0.38175 0.7142 0.0
C768 C 0.64439 0.35946 0.70354 0.0
C769 C 0.65591 0.35897 0.67447 0.0
C770 C 0.65595 0.37987 0.65538 0.0
H771 H 0.5967 0.39962 0.59341 0.0
H772 H 0.62473 0.38336 0.60094 0.0
H773 H 0.60369 0.38886 0.63203 0.0
H774 H 0.62608 0.41922 0.70326 0.0
H775 H 0.6254 0.38249 0.73632 0.0
H776 H 0.94615 0.15619 0.05271 0.0
H777 H 0.98428 0.16832 0.07828 0.0
H778 H 0.01257 0.09511 0.06746 0.0
H779 H 0.97457 0.08279 0.04237 0.0
H780 H 0.00161 0.14255 0.13498 0.0
H781 H 0.06963 0.14184 0.03953 0.0
H782 H 0.03721 0.14549 0.03282 0.0
H783 H 0.04975 0.11567 0.04097 0.0
C784 C 0.96072 0.14285 0.05514 0.0
C785 C 0.95733 0.11851 0.04559 0.0
C786 C 0.98243 0.14978 0.06986 0.0
C787 C 0.00128 0.13265 0.0746 0.0
C788 C -0.00163 0.10869 0.06372 0.0
H789 H 0.11785 0.09844 0.19236 0.0
H790 H 0.08088 0.10302 0.16119 0.0
C791 C 0.97661 0.10167 0.04945 0.0
C792 C 0.02304 0.13882 0.09343 0.0
H793 H 0.08545 0.14 0.09118 0.0
C794 C 0.01991 0.14255 0.12532 0.0
C795 C 0.04689 0.13871 0.08078 0.0
C796 C 0.05118 0.13541 0.04659 0.0
C797 C 0.04013 0.14486 0.14511 0.0
C798 C 0.06395 0.14361 0.13264 0.0
C799 C 0.06709 0.14107 0.1006 0.0
C800 C 0.08567 0.14182 0.15288 0.0
C801 C 0.03607 0.14748 0.17945 0.0
C802 C 0.10041 0.16228 0.15879 0.0
C803 C 0.12163 0.15975 0.17678 0.0
C804 C 0.12846 0.13664 0.18862 0.0
C805 C 0.11324 0.1164 0.18317 0.0
C806 C 0.09208 0.11898 0.16548 0.0
H807 H 0.01662 0.15123 0.18514 0.0
H808 H 0.04172 0.13029 0.19141 0.0
H809 H 0.04755 0.16253 0.1886 0.0
H810 H 0.09566 0.18006 0.14918 0.0
H811 H 0.13308 0.1756 0.1806 0.0
H812 H 0.17853 0.85176 0.10248 0.0
H813 H 0.20127 0.81602 0.12096 0.0
H814 H 0.17251 0.77324 0.04599 0.0
H815 H 0.14978 0.80933 0.02692 0.0
H816 H 0.16376 0.75829 0.11623 0.0
H817 H 0.2604 0.77288 0.08122 0.0
H818 H 0.24364 0.79985 0.09237 0.0
H819 H 0.23479 0.78358 0.05826 0.0
C820 C 0.17755 0.83495 0.0894 0.0
C821 C 0.16243 0.83331 0.06325 0.0
C822 C 0.19059 0.81458 0.09994 0.0
C823 C 0.18863 0.79211 0.08473 0.0
C824 C 0.1744 0.79055 0.05781 0.0
H825 H 0.2532 0.66822 0.1922 0.0
H826 H 0.23878 0.68993 0.1454 0.0
C827 C 0.16156 0.81116 0.04689 0.0
C828 C 0.19905 0.77004 0.09983 0.0
H829 H 0.2535 0.74728 0.12585 0.0
C830 C 0.18334 0.75525 0.11755 0.0
C831 C 0.22455 0.76628 0.10157 0.0
C832 C 0.24193 0.78133 0.08218 0.0
C833 C 0.19265 0.73812 0.13892 0.0
C834 C 0.21821 0.73582 0.14252 0.0
C835 C 0.23389 0.74916 0.12301 0.0
C836 C 0.22862 0.7229 0.16968 0.0
C837 C 0.17518 0.72383 0.15915 0.0
C838 C 0.22815 0.73456 0.19841 0.0
C839 C 0.23647 0.72243 0.22489 0.0
C840 C 0.24534 0.69827 0.22326 0.0
C841 C 0.2466 0.68687 0.19417 0.0
C842 C 0.23828 0.69915 0.1675 0.0
H843 H 0.15632 0.724 0.14963 0.0
H844 H 0.18141 0.70455 0.16181 0.0
H845 H 0.17469 0.73211 0.18253 0.0
H846 H 0.22094 0.753 0.2004 0.0
H847 H 0.23566 0.73189 0.2468 0.0
H848 H 0.65983 0.67266 0.54555 0.0
H849 H 0.69151 0.69684 0.57152 0.0
H850 H 0.72593 0.63028 0.60396 0.0
H851 H 0.69432 0.6061 0.57838 0.0
H852 H 0.70537 0.67154 0.65018 0.0
H853 H 0.77292 0.69882 0.55963 0.0
H854 H 0.74083 0.69817 0.54997 0.0
H855 H 0.75663 0.67007 0.55809 0.0
C856 C 0.67464 0.66323 0.55732 0.0
C857 C 0.67467 0.63758 0.56013 0.0
C858 C 0.6926 0.67701 0.57224 0.0
C859 C 0.7109 0.66524 0.58967 0.0
C860 C 0.71189 0.63961 0.59065 0.0
H861 H 0.82637 0.74332 0.6893 0.0
H862 H 0.80401 0.70917 0.66555 0.0
C863 C 0.69388 0.62588 0.57602 0.0
C864 C 0.72717 0.67954 0.60983 0.0
H865 H 0.77765 0.71602 0.60925 0.0
C866 C 0.7213 0.68115 0.64136 0.0
C867 C 0.74805 0.69161 0.59822 0.0
C868 C 0.75522 0.68966 0.56464 0.0
C869 C 0.73534 0.69542 0.66148 0.0
C870 C 0.75561 0.7085 0.6496 0.0
C871 C 0.76208 0.70598 0.61829 0.0
C872 C 0.76868 0.72695 0.66823 0.0
C873 C 0.72818 0.69662 0.69516 0.0
C874 C 0.75612 0.74792 0.67807 0.0
C875 C 0.76881 0.76733 0.69129 0.0
C876 C 0.79425 0.76605 0.69505 0.0
C877 C 0.80671 0.74455 0.68681 0.0
C878 C 0.794 0.72517 0.67318 0.0
H879 H 0.71752 0.68023 0.7024 0.0
H880 H 0.74452 0.69814 0.71023 0.0
H881 H 0.71653 0.71302 0.69883 0.0
H882 H 0.73667 0.74984 0.67405 0.0
H883 H 0.75889 0.78379 0.69743 0.0
H884 H 0.87718 0.15479 0.11828 0.0
H885 H 0.85636 0.18764 0.14652 0.0
H886 H 0.80131 0.19156 0.07528 0.0
H887 H 0.82127 0.15818 0.04791 0.0
H888 H 0.8439 0.23654 0.12785 0.0
H889 H 0.76164 0.18081 0.15418 0.0
H890 H 0.78975 0.16736 0.14044 0.0
H891 H 0.76909 0.18213 0.11375 0.0
C892 C 0.86052 0.16253 0.10879 0.0
C893 C 0.85088 0.15389 0.08076 0.0
C894 C 0.84878 0.18142 0.12482 0.0
C895 C 0.82719 0.19188 0.11312 0.0
C896 C 0.81777 0.18352 0.08495 0.0
H897 H 0.73821 0.31672 0.14724 0.0
H898 H 0.77107 0.28952 0.12998 0.0
C899 C 0.82934 0.16457 0.06914 0.0
C900 C 0.81395 0.21103 0.13062 0.0
H901 H 0.75853 0.22366 0.16313 0.0
C902 C 0.82533 0.23369 0.13587 0.0
C903 C 0.7898 0.20718 0.1413 0.0
C904 C 0.77691 0.18298 0.13741 0.0
C905 C 0.81274 0.25291 0.15052 0.0
C906 C 0.78833 0.24923 0.16013 0.0
C907 C 0.77731 0.22637 0.15576 0.0
C908 C 0.77302 0.26907 0.17303 0.0
C909 C 0.82545 0.27702 0.15553 0.0
C910 C 0.76369 0.26696 0.20322 0.0
C911 C 0.74491 0.28247 0.21314 0.0
C912 C 0.73491 0.30005 0.19279 0.0
C913 C 0.7454 0.30315 0.16327 0.0
C914 C 0.76432 0.28779 0.15349 0.0
H915 H 0.8455 0.27559 0.15179 0.0
H916 H 0.81803 0.29089 0.13909 0.0
H917 H 0.82197 0.28368 0.17935 0.0
H918 H 0.77004 0.25246 0.21852 0.0
H919 H 0.73711 0.2796 0.23594 0.0
H920 H 0.3229 0.37886 0.62278 0.0
H921 H 0.28684 0.35583 0.63948 0.0
H922 H 0.27916 0.32663 0.5476 0.0
H923 H 0.31508 0.3502 0.53061 0.0
H924 H 0.23517 0.34777 0.61528 0.0
H925 H 0.29923 0.26826 0.60942 0.0
H926 H 0.31022 0.29941 0.60928 0.0
H927 H 0.29536 0.2875 0.57566 0.0
C928 C 0.31277 0.36848 0.60582 0.0
C929 C 0.32149 0.36646 0.57542 0.0
C930 C 0.29228 0.35524 0.61537 0.0
C931 C 0.28053 0.33937 0.59483 0.0
C932 C 0.28799 0.33883 0.56373 0.0
H933 H 0.16989 0.25041 0.69536 0.0
H934 H 0.18832 0.26988 0.64946 0.0
C935 C 0.30831 0.35248 0.554 0.0
C936 C 0.26332 0.32099 0.60761 0.0
H937 H 0.26286 0.26271 0.63695 0.0
C938 C 0.2408 0.32895 0.61936 0.0
C939 C 0.27095 0.29653 0.61298 0.0
C940 C 0.29527 0.28725 0.60135 0.0
C941 C 0.22637 0.31352 0.63811 0.0
C942 C 0.23474 0.28952 0.64507 0.0
C943 C 0.25646 0.28107 0.63149 0.0
C944 C 0.22384 0.27471 0.67053 0.0
C945 C 0.20325 0.32366 0.65219 0.0
C946 C 0.23802 0.26982 0.69691 0.0
C947 C 0.22773 0.25844 0.72278 0.0
C948 C 0.20293 0.25179 0.72301 0.0
C949 C 0.18903 0.25539 0.69593 0.0
C950 C 0.19945 0.26674 0.66982 0.0
H951 H 0.20104 0.3436 0.64758 0.0
H952 H 0.18723 0.31408 0.6423 0.0
H953 H 0.20312 0.32051 0.67762 0.0
H954 H 0.25692 0.27565 0.69794 0.0
H955 H 0.23909 0.25543 0.74298 0.0
H956 H 0.63565 0.69685 0.48753 0.0
H957 H 0.66095 0.72986 0.4654 0.0
H958 H 0.70901 0.676 0.42545 0.0
H959 H 0.6838 0.64314 0.44745 0.0
H960 H 0.7249 0.73537 0.45481 0.0
H961 H 0.65899 0.71885 0.35886 0.0
H962 H 0.65045 0.71462 0.39891 0.0
H963 H 0.67034 0.69294 0.3807 0.0
C964 C 0.65234 0.69219 0.47538 0.0
C965 C 0.65806 0.66761 0.46938 0.0
C966 C 0.66672 0.711 0.46272 0.0
C967 C 0.68682 0.70531 0.44386 0.0
C968 C 0.69375 0.68073 0.44028 0.0
H969 H 0.75779 0.75959 0.28427 0.0
H970 H 0.74264 0.73734 0.32973 0.0
C971 C 0.67941 0.662 0.45288 0.0
C972 C 0.69722 0.72403 0.42268 0.0
H973 H 0.69238 0.74449 0.3481 0.0
C974 C 0.71767 0.73771 0.43161 0.0
C975 C 0.68765 0.72695 0.39251 0.0
C976 C 0.66559 0.71269 0.38197 0.0
C977 C 0.72935 0.75371 0.4105 0.0
C978 C 0.72027 0.75587 0.37994 0.0
C979 C 0.69933 0.74276 0.37153 0.0
C980 C 0.7331 0.76991 0.35527 0.0
C981 C 0.75183 0.76744 0.42044 0.0
C982 C 0.73336 0.79567 0.35489 0.0
C983 C 0.74225 0.80847 0.32886 0.0
C984 C 0.7507 0.79559 0.3029 0.0
C985 C 0.75142 0.76989 0.30404 0.0
C986 C 0.74275 0.7572 0.32995 0.0
H987 H 0.75805 0.76183 0.44393 0.0
H988 H 0.76694 0.76437 0.40371 0.0
H989 H 0.74781 0.78738 0.42057 0.0
H990 H 0.72563 0.80583 0.37399 0.0
H991 H 0.74121 0.82829 0.32829 0.0
H992 H 0.82819 0.18467 0.99715 0.0
H993 H 0.7965 0.21157 0.97573 0.0
H994 H 0.75699 0.14818 0.9442 0.0
H995 H 0.78797 0.12157 0.96679 0.0
H996 H 0.79332 0.21325 0.91675 0.0
H997 H 0.70065 0.19192 0.95794 0.0
H998 H 0.72747 0.18224 0.97913 0.0
H999 H 0.71567 0.16392 0.94795 0.0
C1000 C 0.81177 0.17653 0.98777 0.0
C1001 C 0.81028 0.15105 0.98407 0.0
C1002 C 0.79383 0.19192 0.975 0.0
C1003 C 0.77427 0.18203 0.95811 0.0
C1004 C 0.77143 0.15645 0.95762 0.0
H1005 H 0.73014 0.22168 0.77739 0.0
H1006 H 0.75007 0.20936 0.82524 0.0
C1007 C 0.78918 0.14112 0.97072 0.0
C1008 C 0.76029 0.1976 0.93575 0.0
H1009 H 0.70376 0.20499 0.90346 0.0
C1010 C 0.77363 0.21193 0.91445 0.0
C1011 C 0.73458 0.19623 0.93258 0.0
C1012 C 0.71881 0.18293 0.9559 0.0
C1013 C 0.76227 0.22355 0.88918 0.0
C1014 C 0.73692 0.22015 0.88435 0.0
C1015 C 0.72328 0.20725 0.90673 0.0
C1016 C 0.72467 0.22827 0.85525 0.0
C1017 C 0.77775 0.23901 0.86768 0.0
C1018 C 0.70313 0.24233 0.85597 0.0
C1019 C 0.6911 0.24879 0.82843 0.0
C1020 C 0.7004 0.24131 0.79958 0.0
C1021 C 0.72218 0.22754 0.79906 0.0
C1022 C 0.73392 0.22081 0.82651 0.0
H1023 H 0.79336 0.24727 0.88026 0.0
H1024 H 0.78548 0.22723 0.84928 0.0
H1025 H 0.76696 0.25395 0.85665 0.0
H1026 H 0.69549 0.24812 0.87787 0.0
H1027 H 0.67418 0.25903 0.82986 0.0
H1028 H 0.35796 0.33274 0.40335 0.0
H1029 H 0.33927 0.29917 0.37509 0.0
H1030 H 0.32914 0.25911 0.46062 0.0
H1031 H 0.34785 0.29281 0.48937 0.0
H1032 H 0.35028 0.24567 0.37339 0.0
H1033 H 0.25943 0.27097 0.42178 0.0
H1034 H 0.28529 0.29143 0.42253 0.0
H1035 H 0.28344 0.26638 0.44965 0.0
C1036 C 0.35193 0.31672 0.41622 0.0
C1037 C 0.3541 0.31548 0.44865 0.0
C1038 C 0.34144 0.29751 0.39995 0.0
C1039 C 0.33283 0.2768 0.41583 0.0
C1040 C 0.33567 0.27508 0.44808 0.0
H1041 H 0.23703 0.16031 0.36772 0.0
H1042 H 0.27199 0.18221 0.38915 0.0
C1043 C 0.34626 0.29431 0.46443 0.0
C1044 C 0.31885 0.25813 0.39895 0.0
H1045 H 0.26113 0.236 0.39046 0.0
C1046 C 0.3308 0.24341 0.37709 0.0
C1047 C 0.29342 0.25569 0.40357 0.0
C1048 C 0.2795 0.27205 0.42543 0.0
C1049 C 0.31786 0.2258 0.36013 0.0
C1050 C 0.29255 0.22308 0.36532 0.0
C1051 C 0.28067 0.238 0.38692 0.0
C1052 C 0.27739 0.20518 0.3487 0.0
C1053 C 0.33117 0.21006 0.3371 0.0
C1054 C 0.26966 0.21017 0.31831 0.0
C1055 C 0.24964 0.19765 0.30601 0.0
C1056 C 0.23707 0.1803 0.32418 0.0
C1057 C 0.24632 0.17381 0.35344 0.0
C1058 C 0.26633 0.18617 0.3656 0.0
H1059 H 0.35128 0.21276 0.33799 0.0
H1060 H 0.32704 0.19042 0.34155 0.0
H1061 H 0.32471 0.21461 0.31339 0.0
H1062 H 0.27779 0.22504 0.30513 0.0
H1063 H 0.24276 0.203 0.28343 0.0
H1064 H 0.1472 0.80345 0.94803 0.0
H1065 H 0.18212 0.78362 0.92322 0.0
H1066 H 0.22947 0.8408 0.95621 0.0
H1067 H 0.19448 0.86026 0.9819 0.0
H1068 H 0.20586 0.81265 0.87628 0.0
H1069 H 0.27186 0.7778 0.9646 0.0
H1070 H 0.24 0.78275 0.97377 0.0
H1071 H 0.26002 0.80841 0.9686 0.0
C1072 C 0.1653 0.81097 0.95141 0.0
C1073 C 0.16833 0.83309 0.96713 0.0
C1074 C 0.18517 0.79986 0.93693 0.0
C1075 C 0.20832 0.81086 0.93765 0.0
C1076 C 0.21183 0.83185 0.95567 0.0
H1077 H 0.33085 0.74518 0.83587 0.0
H1078 H 0.30817 0.77858 0.861 0.0
C1079 C 0.1919 0.84283 0.97055 0.0
C1080 C 0.22741 0.80218 0.916 0.0
H1081 H 0.28101 0.77038 0.91238 0.0
C1082 C 0.22244 0.80362 0.88414 0.0
C1083 C 0.24936 0.79117 0.92624 0.0
C1084 C 0.25576 0.78976 0.96015 0.0
C1085 C 0.23804 0.79287 0.86236 0.0
C1086 C 0.2589 0.77989 0.87277 0.0
C1087 C 0.26488 0.78015 0.90443 0.0
C1088 C 0.27252 0.76297 0.85227 0.0
C1089 C 0.23165 0.795 0.82848 0.0
C1090 C 0.25999 0.74355 0.8383 0.0
C1091 C 0.27286 0.72467 0.824 0.0
C1092 C 0.29846 0.72489 0.82341 0.0
C1093 C 0.31105 0.74493 0.83573 0.0
C1094 C 0.29814 0.76387 0.85018 0.0
H1095 H 0.22183 0.81244 0.82351 0.0
H1096 H 0.24818 0.7941 0.8136 0.0
H1097 H 0.21928 0.77975 0.82219 0.0
H1098 H 0.24031 0.74209 0.84025 0.0
H1099 H 0.26289 0.70913 0.81508 0.0
loop_
_geom_bond_atom_site_label_1
_geom_bond_atom_site_label_2
_geom_bond_distance
_geom_bond_site_symmetry_2
_ccdc_geom_bond_type
Zn0 O6 1.920 . S
Zn0 O12 1.898 . S
Zn0 O15 1.905 . S
Zn1 O9 1.905 . S
Zn1 O10 1.898 . S
Zn1 O18 1.920 . S
Zn2 O5 2.080 . S
Zn2 O8 2.114 1_554 S
Zn2 O11 2.120 1_554 S
Zn2 O13 2.120 . S
Zn2 O14 2.114 . S
Zn2 O17 2.080 1_554 S
C3 O8 1.166 . S
C3 O9 1.182 . S
C4 O10 1.167 . S
C4 O11 1.299 . S
O5 Zn2 2.080 . S
O5 C19 1.305 . S
O6 Zn0 1.920 . S
O6 C19 1.234 . S
C7 O12 1.167 . S
C7 O13 1.299 . S
O8 Zn2 2.114 1_556 S
O8 C3 1.166 . S
O9 Zn1 1.905 . S
O9 C3 1.182 . S
O10 Zn1 1.898 . S
O10 C4 1.167 . S
O11 Zn2 2.120 1_556 S
O11 C4 1.299 . S
O12 Zn0 1.898 . S
O12 C7 1.167 . S
O13 Zn2 2.120 . S
O13 C7 1.299 . S
O14 Zn2 2.114 . S
O14 C16 1.166 . S
O15 Zn0 1.905 . S
O15 C16 1.182 . S
C16 O14 1.166 . S
C16 O15 1.182 . S
O17 Zn2 2.080 1_556 S
O17 C20 1.305 . S
O18 Zn1 1.920 . S
O18 C20 1.234 . S
C19 O5 1.305 . S
C19 O6 1.234 . S
C20 O17 1.305 . S
C20 O18 1.234 . S
Zn21 O27 1.920 . S
Zn21 O33 1.898 . S
Zn21 O36 1.905 . S
Zn22 O30 1.905 . S
Zn22 O31 1.898 . S
Zn22 O39 1.920 . S
Zn23 O26 2.080 . S
Zn23 O29 2.114 . S
Zn23 O32 2.120 . S
Zn23 O34 2.120 . S
Zn23 O35 2.114 . S
Zn23 O38 2.080 . S
C24 O29 1.166 . S
C24 O30 1.182 . S
C25 O31 1.167 . S
C25 O32 1.299 . S
O26 Zn23 2.080 . S
O26 C40 1.305 . S
O27 Zn21 1.920 . S
O27 C40 1.234 . S
C28 O33 1.167 . S
C28 O34 1.299 . S
O29 Zn23 2.114 . S
O29 C24 1.166 . S
O30 Zn22 1.905 . S
O30 C24 1.182 . S
O31 Zn22 1.898 . S
O31 C25 1.167 . S
O32 Zn23 2.120 . S
O32 C25 1.299 . S
O33 Zn21 1.898 . S
O33 C28 1.167 . S
O34 Zn23 2.120 . S
O34 C28 1.299 . S
O35 Zn23 2.114 . S
O35 C37 1.166 . S
O36 Zn21 1.905 . S
O36 C37 1.182 . S
C37 O35 1.166 . S
C37 O36 1.182 . S
O38 Zn23 2.080 . S
O38 C41 1.305 . S
O39 Zn22 1.920 . S
O39 C41 1.234 . S
C40 O26 1.305 . S
C40 O27 1.234 . S
C41 O38 1.305 . S
C41 O39 1.234 . S
Zn42 O48 1.920 . S
Zn42 O54 1.898 . S
Zn42 O57 1.905 . S
Zn43 O51 1.905 . S
Zn43 O52 1.898 . S
Zn43 O60 1.920 . S
Zn44 O47 2.080 1_554 S
Zn44 O50 2.114 . S
Zn44 O53 2.120 . S
Zn44 O55 2.120 1_554 S
Zn44 O56 2.114 1_554 S
Zn44 O59 2.080 . S
C45 O50 1.166 . S
C45 O51 1.182 . S
C46 O52 1.167 . S
C46 O53 1.299 . S
O47 Zn44 2.080 1_556 S
O47 C61 1.305 . S
O48 Zn42 1.920 . S
O48 C61 1.234 . S
C49 O54 1.167 . S
C49 O55 1.299 . S
O50 Zn44 2.114 . S
O50 C45 1.166 . S
O51 Zn43 1.905 . S
O51 C45 1.182 . S
O52 Zn43 1.898 . S
O52 C46 1.167 . S
O53 Zn44 2.120 . S
O53 C46 1.299 . S
O54 Zn42 1.898 . S
O54 C49 1.167 . S
O55 Zn44 2.120 1_556 S
O55 C49 1.299 . S
O56 Zn44 2.114 1_556 S
O56 C58 1.166 . S
O57 Zn42 1.905 . S
O57 C58 1.182 . S
C58 O56 1.166 . S
C58 O57 1.182 . S
O59 Zn44 2.080 . S
O59 C62 1.305 . S
O60 Zn43 1.920 . S
O60 C62 1.234 . S
C61 O47 1.305 . S
C61 O48 1.234 . S
C62 O59 1.305 . S
C62 O60 1.234 . S
Zn63 O69 1.920 . S
Zn63 O75 1.898 . S
Zn63 O78 1.905 . S
Zn64 O72 1.905 . S
Zn64 O73 1.898 . S
Zn64 O81 1.920 . S
Zn65 O68 2.080 . S
Zn65 O71 2.114 . S
Zn65 O74 2.120 . S
Zn65 O76 2.120 . S
Zn65 O77 2.114 . S
Zn65 O80 2.080 . S
C66 O71 1.166 . S
C66 O72 1.182 . S
C67 O73 1.167 . S
C67 O74 1.299 . S
O68 Zn65 2.080 . S
O68 C82 1.305 . S
O69 Zn63 1.920 . S
O69 C82 1.234 . S
C70 O75 1.167 . S
C70 O76 1.299 . S
O71 Zn65 2.114 . S
O71 C66 1.166 . S
O72 Zn64 1.905 . S
O72 C66 1.182 . S
O73 Zn64 1.898 . S
O73 C67 1.167 . S
O74 Zn65 2.120 . S
O74 C67 1.299 . S
O75 Zn63 1.898 . S
O75 C70 1.167 . S
O76 Zn65 2.120 . S
O76 C70 1.299 . S
O77 Zn65 2.114 . S
O77 C79 1.166 . S
O78 Zn63 1.905 . S
O78 C79 1.182 . S
C79 O77 1.166 . S
C79 O78 1.182 . S
O80 Zn65 2.080 . S
O80 C83 1.305 . S
O81 Zn64 1.920 . S
O81 C83 1.234 . S
C82 O68 1.305 . S
C82 O69 1.234 . S
C83 O80 1.305 . S
C83 O81 1.234 . S
H84 C85 0.949 . S
C85 H84 0.949 . S
C85 C86 1.395 . S
C85 C87 1.391 . S
C86 C85 1.395 . S
C86 C89 1.390 . S
C87 C85 1.391 . S
C87 C91 1.387 . S
C87 C92 1.491 . S
H88 C89 0.950 . S
C89 C86 1.390 . S
C89 H88 0.950 . S
C89 C90 1.378 . S
C90 C89 1.378 . S
C90 C91 1.409 . S
C91 C87 1.387 . S
C91 C90 1.409 . S
C91 H93 0.951 . S
C92 C87 1.491 . S
C92 C94 1.382 . S
C92 C96 1.404 . S
H93 C91 0.951 . S
C94 C92 1.382 . S
C94 C95 1.390 . S
C94 H99 0.949 . S
C95 C94 1.390 . S
C95 C100 1.399 . S
C96 C92 1.404 . S
C96 H97 0.950 . S
C96 C98 1.375 . S
H97 C96 0.950 . S
C98 C96 1.375 . S
C98 C100 1.382 . S
C98 H102 0.950 . S
H99 C94 0.949 . S
C100 C95 1.399 . S
C100 C98 1.382 . S
C100 H101 0.952 . S
H101 C100 0.952 . S
H102 C98 0.950 . S
H103 C104 0.949 . S
C104 H103 0.949 . S
C104 C105 1.395 . S
C104 C106 1.391 . S
C105 C104 1.395 . S
C105 C108 1.390 . S
C106 C104 1.391 . S
C106 C110 1.387 . S
C106 C111 1.491 . S
H107 C108 0.950 . S
C108 C105 1.390 . S
C108 H107 0.950 . S
C108 C109 1.378 . S
C109 C108 1.378 . S
C109 C110 1.409 . S
C110 C106 1.387 . S
C110 C109 1.409 . S
C110 H112 0.951 . S
C111 C106 1.491 . S
C111 C113 1.382 . S
C111 C115 1.404 . S
H112 C110 0.951 . S
C113 C111 1.382 . S
C113 C114 1.390 . S
C113 H118 0.949 . S
C114 C113 1.390 . S
C114 C119 1.399 . S
C115 C111 1.404 . S
C115 H116 0.950 . S
C115 C117 1.375 . S
H116 C115 0.950 . S
C117 C115 1.375 . S
C117 C119 1.382 . S
C117 H121 0.950 . S
H118 C113 0.949 . S
C119 C114 1.399 . S
C119 C117 1.382 . S
C119 H120 0.952 . S
H120 C119 0.952 . S
H121 C117 0.950 . S
H122 C123 0.949 . S
C123 H122 0.949 . S
C123 C124 1.395 . S
C123 C125 1.391 . S
C124 C123 1.395 . S
C124 C127 1.390 . S
C125 C123 1.391 . S
C125 C129 1.387 . S
C125 C130 1.491 . S
H126 C127 0.950 . S
C127 C124 1.390 . S
C127 H126 0.950 . S
C127 C128 1.378 . S
C128 C127 1.378 . S
C128 C129 1.409 . S
C129 C125 1.387 . S
C129 C128 1.409 . S
C129 H131 0.951 . S
C130 C125 1.491 . S
C130 C132 1.382 . S
C130 C134 1.404 . S
H131 C129 0.951 . S
C132 C130 1.382 . S
C132 C133 1.390 . S
C132 H137 0.949 . S
C133 C132 1.390 . S
C133 C138 1.399 . S
C134 C130 1.404 . S
C134 H135 0.950 . S
C134 C136 1.375 . S
H135 C134 0.950 . S
C136 C134 1.375 . S
C136 C138 1.382 . S
C136 H140 0.950 . S
H137 C132 0.949 . S
C138 C133 1.399 . S
C138 C136 1.382 . S
C138 H139 0.952 . S
H139 C138 0.952 . S
H140 C136 0.950 . S
H141 C142 0.949 . S
C142 H141 0.949 . S
C142 C143 1.395 . S
C142 C144 1.391 . S
C143 C142 1.395 . S
C143 C146 1.390 . S
C144 C142 1.391 . S
C144 C148 1.387 . S
C144 C149 1.491 . S
H145 C146 0.950 . S
C146 C143 1.390 . S
C146 H145 0.950 . S
C146 C147 1.378 . S
C147 C146 1.378 . S
C147 C148 1.409 . S
C148 C144 1.387 . S
C148 C147 1.409 . S
C148 H150 0.951 . S
C149 C144 1.491 . S
C149 C151 1.382 . S
C149 C153 1.404 . S
H150 C148 0.951 . S
C151 C149 1.382 . S
C151 C152 1.390 . S
C151 H156 0.949 . S
C152 C151 1.390 . S
C152 C157 1.399 . S
C153 C149 1.404 . S
C153 H154 0.950 . S
C153 C155 1.375 . S
H154 C153 0.950 . S
C155 C153 1.375 . S
C155 C157 1.382 . S
C155 H159 0.950 . S
H156 C151 0.949 . S
C157 C152 1.399 . S
C157 C155 1.382 . S
C157 H158 0.952 . S
H158 C157 0.952 . S
H159 C155 0.950 . S
H160 C161 0.949 . S
C161 H160 0.949 . S
C161 C162 1.395 . S
C161 C163 1.391 . S
C162 C161 1.395 . S
C162 C165 1.390 . S
C163 C161 1.391 . S
C163 C167 1.387 . S
C163 C168 1.491 . S
H164 C165 0.950 . S
C165 C162 1.390 . S
C165 H164 0.950 . S
C165 C166 1.378 . S
C166 C165 1.378 . S
C166 C167 1.409 . S
C167 C163 1.387 . S
C167 C166 1.409 . S
C167 H169 0.951 . S
C168 C163 1.491 . S
C168 C170 1.382 . S
C168 C172 1.404 . S
H169 C167 0.951 . S
C170 C168 1.382 . S
C170 C171 1.390 . S
C170 H175 0.949 . S
C171 C170 1.390 . S
C171 C176 1.399 . S
C172 C168 1.404 . S
C172 H173 0.950 . S
C172 C174 1.375 . S
H173 C172 0.950 . S
C174 C172 1.375 . S
C174 C176 1.382 . S
C174 H178 0.950 . S
H175 C170 0.949 . S
C176 C171 1.399 . S
C176 C174 1.382 . S
C176 H177 0.952 . S
H177 C176 0.952 . S
H178 C174 0.950 . S
H179 C180 0.949 . S
C180 H179 0.949 . S
C180 C181 1.395 . S
C180 C182 1.391 . S
C181 C180 1.395 . S
C181 C184 1.390 . S
C182 C180 1.391 . S
C182 C186 1.387 . S
C182 C187 1.491 . S
H183 C184 0.950 . S
C184 C181 1.390 . S
C184 H183 0.950 . S
C184 C185 1.378 . S
C185 C184 1.378 . S
C185 C186 1.409 . S
C186 C182 1.387 . S
C186 C185 1.409 . S
C186 H188 0.951 . S
C187 C182 1.491 . S
C187 C189 1.382 . S
C187 C191 1.404 . S
H188 C186 0.951 . S
C189 C187 1.382 . S
C189 C190 1.390 . S
C189 H194 0.949 . S
C190 C189 1.390 . S
C190 C195 1.399 . S
C191 C187 1.404 . S
C191 H192 0.950 . S
C191 C193 1.375 . S
H192 C191 0.950 . S
C193 C191 1.375 . S
C193 C195 1.382 . S
C193 H197 0.950 . S
H194 C189 0.949 . S
C195 C190 1.399 . S
C195 C193 1.382 . S
C195 H196 0.952 . S
H196 C195 0.952 . S
H197 C193 0.950 . S
H198 C199 0.949 . S
C199 H198 0.949 . S
C199 C200 1.395 . S
C199 C201 1.391 . S
C200 C199 1.395 . S
C200 C203 1.390 . S
C201 C199 1.391 . S
C201 C205 1.387 . S
C201 C206 1.491 . S
H202 C203 0.950 . S
C203 C200 1.390 . S
C203 H202 0.950 . S
C203 C204 1.378 . S
C204 C203 1.378 . S
C204 C205 1.409 . S
C205 C201 1.387 . S
C205 C204 1.409 . S
C205 H207 0.951 . S
C206 C201 1.491 . S
C206 C208 1.382 . S
C206 C210 1.404 . S
H207 C205 0.951 . S
C208 C206 1.382 . S
C208 C209 1.390 . S
C208 H213 0.949 . S
C209 C208 1.390 . S
C209 C214 1.399 . S
C210 C206 1.404 . S
C210 H211 0.950 . S
C210 C212 1.375 . S
H211 C210 0.950 . S
C212 C210 1.375 . S
C212 C214 1.382 . S
C212 H216 0.950 . S
H213 C208 0.949 . S
C214 C209 1.399 . S
C214 C212 1.382 . S
C214 H215 0.952 . S
H215 C214 0.952 . S
H216 C212 0.950 . S
H217 C218 0.949 . S
C218 H217 0.949 . S
C218 C219 1.395 . S
C218 C220 1.391 . S
C219 C218 1.395 . S
C219 C222 1.390 . S
C220 C218 1.391 . S
C220 C224 1.387 . S
C220 C225 1.491 . S
H221 C222 0.950 . S
C222 C219 1.390 . S
C222 H221 0.950 . S
C222 C223 1.378 . S
C223 C222 1.378 . S
C223 C224 1.409 . S
C224 C220 1.387 . S
C224 C223 1.409 . S
C224 H226 0.951 . S
C225 C220 1.491 . S
C225 C227 1.382 . S
C225 C229 1.404 . S
H226 C224 0.951 . S
C227 C225 1.382 . S
C227 C228 1.390 . S
C227 H232 0.949 . S
C228 C227 1.390 . S
C228 C233 1.399 . S
C229 C225 1.404 . S
C229 H230 0.950 . S
C229 C231 1.375 . S
H230 C229 0.950 . S
C231 C229 1.375 . S
C231 C233 1.382 . S
C231 H235 0.950 . S
H232 C227 0.949 . S
C233 C228 1.399 . S
C233 C231 1.382 . S
C233 H234 0.952 . S
H234 C233 0.952 . S
H235 C231 0.950 . S
H236 C244 0.929 . S
H237 C246 0.930 . S
H238 C248 0.930 . S
H239 C251 0.929 . S
H240 C254 0.930 1_565 S
H241 C256 0.960 . S
H242 C256 0.960 . S
H243 C256 0.960 . S
C244 H236 0.929 . S
C244 C245 1.377 . S
C244 C246 1.384 . S
C245 C244 1.377 . S
C245 C251 1.390 . S
C246 H237 0.930 . S
C246 C244 1.384 . S
C246 C247 1.372 . S
C247 C246 1.372 . S
C247 C248 1.400 . S
C247 C252 1.490 . S
C248 H238 0.930 . S
C248 C247 1.400 . S
C248 C251 1.386 . S
H249 C265 0.930 . S
H250 C266 0.931 . S
C251 H239 0.929 . S
C251 C245 1.390 . S
C251 C248 1.386 . S
C252 C247 1.490 . S
C252 C254 1.395 1_565 S
C252 C255 1.403 . S
H253 C259 0.930 . S
C254 H240 0.930 1_545 S
C254 C252 1.395 1_545 S
C254 C257 1.403 . S
C255 C252 1.403 . S
C255 C256 1.524 . S
C255 C259 1.400 1_565 S
C256 H241 0.960 . S
C256 H242 0.960 . S
C256 H243 0.960 . S
C256 C255 1.524 . S
C257 C254 1.403 . S
C257 C258 1.392 . S
C257 C261 1.495 . S
C258 C257 1.392 . S
C258 C259 1.385 . S
C258 C260 1.478 . S
C259 H253 0.930 . S
C259 C255 1.400 1_545 S
C259 C258 1.385 . S
C260 C258 1.478 . S
C260 C262 1.381 . S
C260 C266 1.383 . S
C261 C257 1.495 . S
C261 H267 0.959 . S
C261 H268 0.961 . S
C261 H269 0.960 . S
C262 C260 1.381 . S
C262 C263 1.394 . S
C262 H270 0.930 . S
C263 C262 1.394 . S
C263 C264 1.383 . S
C263 H271 0.929 . S
C264 C263 1.383 . S
C264 C265 1.377 . S
C265 H249 0.930 . S
C265 C264 1.377 . S
C265 C266 1.379 . S
C266 H250 0.931 . S
C266 C260 1.383 . S
C266 C265 1.379 . S
H267 C261 0.959 . S
H268 C261 0.961 . S
H269 C261 0.960 . S
H270 C262 0.930 . S
H271 C263 0.929 . S
H272 C280 0.929 . S
H273 C282 0.930 . S
H274 C284 0.930 . S
H275 C287 0.929 . S
H276 C290 0.930 . S
H277 C292 0.960 . S
H278 C292 0.960 . S
H279 C292 0.960 . S
C280 H272 0.929 . S
C280 C281 1.377 . S
C280 C282 1.384 . S
C281 C280 1.377 . S
C281 C287 1.390 . S
C282 H273 0.930 . S
C282 C280 1.384 . S
C282 C283 1.372 . S
C283 C282 1.372 . S
C283 C284 1.400 . S
C283 C288 1.490 . S
C284 H274 0.930 . S
C284 C283 1.400 . S
C284 C287 1.386 . S
H285 C301 0.930 . S
H286 C302 0.931 . S
C287 H275 0.929 . S
C287 C281 1.390 . S
C287 C284 1.386 . S
C288 C283 1.490 . S
C288 C290 1.395 . S
C288 C291 1.403 . S
H289 C295 0.930 . S
C290 H276 0.930 . S
C290 C288 1.395 . S
C290 C293 1.403 . S
C291 C288 1.403 . S
C291 C292 1.524 . S
C291 C295 1.400 . S
C292 H277 0.960 . S
C292 H278 0.960 . S
C292 H279 0.960 . S
C292 C291 1.524 . S
C293 C290 1.403 . S
C293 C294 1.392 . S
C293 C297 1.495 . S
C294 C293 1.392 . S
C294 C295 1.385 . S
C294 C296 1.478 . S
C295 H289 0.930 . S
C295 C291 1.400 . S
C295 C294 1.385 . S
C296 C294 1.478 . S
C296 C298 1.381 . S
C296 C302 1.383 . S
C297 C293 1.495 . S
C297 H303 0.959 . S
C297 H304 0.961 . S
C297 H305 0.960 . S
C298 C296 1.381 . S
C298 C299 1.394 . S
C298 H306 0.930 . S
C299 C298 1.394 . S
C299 C300 1.383 . S
C299 H307 0.929 . S
C300 C299 1.383 . S
C300 C301 1.377 . S
C301 H285 0.930 . S
C301 C300 1.377 . S
C301 C302 1.379 . S
C302 H286 0.931 . S
C302 C296 1.383 . S
C302 C301 1.379 . S
H303 C297 0.959 . S
H304 C297 0.961 . S
H305 C297 0.960 . S
H306 C298 0.930 . S
H307 C299 0.929 . S
H308 C316 0.929 . S
H309 C318 0.930 . S
H310 C320 0.930 . S
H311 C323 0.929 . S
H312 C326 0.930 . S
H313 C328 0.960 . S
H314 C328 0.960 . S
H315 C328 0.960 . S
C316 H308 0.929 . S
C316 C317 1.377 . S
C316 C318 1.384 . S
C317 C316 1.377 . S
C317 C323 1.390 . S
C318 H309 0.930 . S
C318 C316 1.384 . S
C318 C319 1.372 . S
C319 C318 1.372 . S
C319 C320 1.400 . S
C319 C324 1.490 . S
C320 H310 0.930 . S
C320 C319 1.400 . S
C320 C323 1.386 . S
H321 C337 0.930 . S
H322 C338 0.931 . S
C323 H311 0.929 . S
C323 C317 1.390 . S
C323 C320 1.386 . S
C324 C319 1.490 . S
C324 C326 1.395 1_545 S
C324 C327 1.403 . S
H325 C331 0.930 . S
C326 H312 0.930 . S
C326 C324 1.395 1_565 S
C326 C329 1.403 . S
C327 C324 1.403 . S
C327 C328 1.524 . S
C327 C331 1.400 1_545 S
C328 H313 0.960 . S
C328 H314 0.960 . S
C328 H315 0.960 . S
C328 C327 1.524 . S
C329 C326 1.403 . S
C329 C330 1.392 . S
C329 C333 1.495 . S
C330 C329 1.392 . S
C330 C331 1.385 . S
C330 C332 1.478 . S
C331 H325 0.930 . S
C331 C327 1.400 1_565 S
C331 C330 1.385 . S
C332 C330 1.478 . S
C332 C334 1.381 . S
C332 C338 1.383 . S
C333 C329 1.495 . S
C333 H339 0.959 . S
C333 H340 0.961 . S
C333 H341 0.960 . S
C334 C332 1.381 . S
C334 C335 1.394 . S
C334 H342 0.930 . S
C335 C334 1.394 . S
C335 C336 1.383 . S
C335 H343 0.929 . S
C336 C335 1.383 . S
C336 C337 1.377 . S
C337 H321 0.930 . S
C337 C336 1.377 . S
C337 C338 1.379 . S
C338 H322 0.931 . S
C338 C332 1.383 . S
C338 C337 1.379 . S
H339 C333 0.959 . S
H340 C333 0.961 . S
H341 C333 0.960 . S
H342 C334 0.930 . S
H343 C335 0.929 . S
H344 C352 0.929 . S
H345 C354 0.930 . S
H346 C356 0.930 . S
H347 C359 0.929 . S
H348 C362 0.930 . S
H349 C364 0.960 . S
H350 C364 0.960 . S
H351 C364 0.960 . S
C352 H344 0.929 . S
C352 C353 1.377 . S
C352 C354 1.384 . S
C353 C352 1.377 . S
C353 C359 1.390 . S
C354 H345 0.930 . S
C354 C352 1.384 . S
C354 C355 1.372 . S
C355 C354 1.372 . S
C355 C356 1.400 . S
C355 C360 1.490 . S
C356 H346 0.930 . S
C356 C355 1.400 . S
C356 C359 1.386 . S
H357 C373 0.930 . S
H358 C374 0.931 . S
C359 H347 0.929 . S
C359 C353 1.390 . S
C359 C356 1.386 . S
C360 C355 1.490 . S
C360 C362 1.395 . S
C360 C363 1.403 . S
H361 C367 0.930 . S
C362 H348 0.930 . S
C362 C360 1.395 . S
C362 C365 1.403 . S
C363 C360 1.403 . S
C363 C364 1.524 . S
C363 C367 1.400 . S
C364 H349 0.960 . S
C364 H350 0.960 . S
C364 H351 0.960 . S
C364 C363 1.524 . S
C365 C362 1.403 . S
C365 C366 1.392 . S
C365 C369 1.495 . S
C366 C365 1.392 . S
C366 C367 1.385 . S
C366 C368 1.478 . S
C367 H361 0.930 . S
C367 C363 1.400 . S
C367 C366 1.385 . S
C368 C366 1.478 . S
C368 C370 1.381 . S
C368 C374 1.383 . S
C369 C365 1.495 . S
C369 H375 0.959 . S
C369 H376 0.961 . S
C369 H377 0.960 . S
C370 C368 1.381 . S
C370 C371 1.394 . S
C370 H378 0.930 . S
C371 C370 1.394 . S
C371 C372 1.383 . S
C371 H379 0.929 . S
C372 C371 1.383 . S
C372 C373 1.377 . S
C373 H357 0.930 . S
C373 C372 1.377 . S
C373 C374 1.379 . S
C374 H358 0.931 . S
C374 C368 1.383 . S
C374 C373 1.379 . S
H375 C369 0.959 . S
H376 C369 0.961 . S
H377 C369 0.960 . S
H378 C370 0.930 . S
H379 C371 0.929 . S
H380 C388 0.929 . S
H381 C390 0.930 . S
H382 C392 0.930 . S
H383 C395 0.929 . S
H384 C398 0.930 . S
H385 C400 0.960 . S
H386 C400 0.960 . S
H387 C400 0.960 . S
C388 H380 0.929 . S
C388 C389 1.377 . S
C388 C390 1.384 . S
C389 C388 1.377 . S
C389 C395 1.390 . S
C390 H381 0.930 . S
C390 C388 1.384 . S
C390 C391 1.372 . S
C391 C390 1.372 . S
C391 C392 1.400 . S
C391 C396 1.490 . S
C392 H382 0.930 . S
C392 C391 1.400 . S
C392 C395 1.386 . S
H393 C409 0.930 . S
H394 C410 0.931 . S
C395 H383 0.929 . S
C395 C389 1.390 . S
C395 C392 1.386 . S
C396 C391 1.490 . S
C396 C398 1.395 . S
C396 C399 1.403 . S
H397 C403 0.930 . S
C398 H384 0.930 . S
C398 C396 1.395 . S
C398 C401 1.403 . S
C399 C396 1.403 . S
C399 C400 1.524 . S
C399 C403 1.400 . S
C400 H385 0.960 . S
C400 H386 0.960 . S
C400 H387 0.960 . S
C400 C399 1.524 . S
C401 C398 1.403 . S
C401 C402 1.392 . S
C401 C405 1.495 . S
C402 C401 1.392 . S
C402 C403 1.385 . S
C402 C404 1.478 . S
C403 H397 0.930 . S
C403 C399 1.400 . S
C403 C402 1.385 . S
C404 C402 1.478 . S
C404 C406 1.381 . S
C404 C410 1.383 . S
C405 C401 1.495 . S
C405 H411 0.959 . S
C405 H412 0.961 . S
C405 H413 0.960 . S
C406 C404 1.381 . S
C406 C407 1.394 . S
C406 H414 0.930 . S
C407 C406 1.394 . S
C407 C408 1.383 . S
C407 H415 0.929 . S
C408 C407 1.383 . S
C408 C409 1.377 . S
C409 H393 0.930 . S
C409 C408 1.377 . S
C409 C410 1.379 . S
C410 H394 0.931 . S
C410 C404 1.383 . S
C410 C409 1.379 . S
H411 C405 0.959 . S
H412 C405 0.961 . S
H413 C405 0.960 . S
H414 C406 0.930 . S
H415 C407 0.929 . S
H416 C424 0.929 . S
H417 C426 0.930 . S
H418 C428 0.930 . S
H419 C431 0.929 . S
H420 C434 0.930 . S
H421 C436 0.960 . S
H422 C436 0.960 . S
H423 C436 0.960 . S
C424 H416 0.929 . S
C424 C425 1.377 . S
C424 C426 1.384 . S
C425 C424 1.377 . S
C425 C431 1.390 . S
C426 H417 0.930 . S
C426 C424 1.384 . S
C426 C427 1.372 . S
C427 C426 1.372 . S
C427 C428 1.400 . S
C427 C432 1.490 . S
C428 H418 0.930 . S
C428 C427 1.400 . S
C428 C431 1.386 . S
H429 C445 0.930 . S
H430 C446 0.931 . S
C431 H419 0.929 . S
C431 C425 1.390 . S
C431 C428 1.386 . S
C432 C427 1.490 . S
C432 C434 1.395 1_655 S
C432 C435 1.403 . S
H433 C439 0.936 . S
C434 H420 0.930 . S
C434 C432 1.395 1_455 S
C434 C437 1.403 . S
C435 C432 1.403 . S
C435 C436 1.524 . S
C435 C439 1.400 1_655 S
C436 H421 0.960 . S
C436 H422 0.960 . S
C436 H423 0.960 . S
C436 C435 1.524 . S
C437 C434 1.403 . S
C437 C438 1.392 . S
C437 C441 1.495 . S
C438 C437 1.392 . S
C438 C439 1.385 . S
C438 C440 1.478 . S
C439 H433 0.936 . S
C439 C435 1.400 1_455 S
C439 C438 1.385 . S
C440 C438 1.478 . S
C440 C442 1.381 . S
C440 C446 1.383 . S
C441 C437 1.495 . S
C441 H447 0.959 . S
C441 H448 0.961 . S
C441 H449 0.960 . S
C442 C440 1.381 . S
C442 C443 1.394 . S
C442 H450 0.930 . S
C443 C442 1.394 . S
C443 C444 1.383 . S
C443 H451 0.929 . S
C444 C443 1.383 . S
C444 C445 1.377 . S
C445 H429 0.930 . S
C445 C444 1.377 . S
C445 C446 1.379 . S
C446 H430 0.931 . S
C446 C440 1.383 . S
C446 C445 1.379 . S
H447 C441 0.959 . S
H448 C441 0.961 . S
H449 C441 0.960 . S
H450 C442 0.930 . S
H451 C443 0.929 . S
H452 C460 0.929 . S
H453 C462 0.930 . S
H454 C464 0.930 . S
H455 C467 0.929 . S
H456 C470 0.930 . S
H457 C472 0.960 . S
H458 C472 0.960 . S
H459 C472 0.960 . S
C460 H452 0.929 . S
C460 C461 1.377 . S
C460 C462 1.384 . S
C461 C460 1.377 . S
C461 C467 1.390 . S
C462 H453 0.930 . S
C462 C460 1.384 . S
C462 C463 1.372 . S
C463 C462 1.372 . S
C463 C464 1.400 . S
C463 C468 1.490 . S
C464 H454 0.930 . S
C464 C463 1.400 . S
C464 C467 1.386 . S
H465 C481 0.930 . S
H466 C482 0.931 . S
C467 H455 0.929 . S
C467 C461 1.390 . S
C467 C464 1.386 . S
C468 C463 1.490 . S
C468 C470 1.395 . S
C468 C471 1.403 . S
H469 C475 0.930 . S
C470 H456 0.930 . S
C470 C468 1.395 . S
C470 C473 1.403 . S
C471 C468 1.403 . S
C471 C472 1.524 . S
C471 C475 1.400 . S
C472 H457 0.960 . S
C472 H458 0.960 . S
C472 H459 0.960 . S
C472 C471 1.524 . S
C473 C470 1.403 . S
C473 C474 1.392 . S
C473 C477 1.495 . S
C474 C473 1.392 . S
C474 C475 1.385 . S
C474 C476 1.478 . S
C475 H469 0.930 . S
C475 C471 1.400 . S
C475 C474 1.385 . S
C476 C474 1.478 . S
C476 C478 1.381 . S
C476 C482 1.383 . S
C477 C473 1.495 . S
C477 H483 0.959 . S
C477 H484 0.961 . S
C477 H485 0.960 . S
C478 C476 1.381 . S
C478 C479 1.394 . S
C478 H486 0.930 . S
C479 C478 1.394 . S
C479 C480 1.383 . S
C479 H487 0.929 . S
C480 C479 1.383 . S
C480 C481 1.377 . S
C481 H465 0.930 . S
C481 C480 1.377 . S
C481 C482 1.379 . S
C482 H466 0.931 . S
C482 C476 1.383 . S
C482 C481 1.379 . S
H483 C477 0.959 . S
H484 C477 0.961 . S
H485 C477 0.960 . S
H486 C478 0.930 . S
H487 C479 0.929 . S
H488 C496 0.929 . S
H489 C498 0.930 . S
H490 C500 0.930 . S
H491 C503 0.929 . S
H492 C506 0.930 . S
H493 C508 0.960 . S
H494 C508 0.960 . S
H495 C508 0.960 . S
C496 H488 0.929 . S
C496 C497 1.377 . S
C496 C498 1.384 . S
C497 C496 1.377 . S
C497 C503 1.390 . S
C498 H489 0.930 . S
C498 C496 1.384 . S
C498 C499 1.372 . S
C499 C498 1.372 . S
C499 C500 1.400 . S
C499 C504 1.490 . S
C500 H490 0.930 . S
C500 C499 1.400 . S
C500 C503 1.386 . S
H501 C517 0.930 . S
H502 C518 0.931 . S
C503 H491 0.929 . S
C503 C497 1.390 . S
C503 C500 1.386 . S
C504 C499 1.490 . S
C504 C506 1.395 . S
C504 C507 1.403 1_455 S
H505 C511 0.930 . S
C506 H492 0.930 . S
C506 C504 1.395 . S
C506 C509 1.403 1_455 S
C507 C504 1.403 1_655 S
C507 C508 1.524 . S
C507 C511 1.400 . S
C508 H493 0.960 . S
C508 H494 0.960 . S
C508 H495 0.960 . S
C508 C507 1.524 . S
C509 C506 1.403 1_655 S
C509 C510 1.392 . S
C509 C513 1.495 1_655 S
C510 C509 1.392 . S
C510 C511 1.385 . S
C510 C512 1.478 . S
C511 H505 0.930 . S
C511 C507 1.400 . S
C511 C510 1.385 . S
C512 C510 1.478 . S
C512 C514 1.381 . S
C512 C518 1.383 . S
C513 C509 1.495 1_455 S
C513 H519 0.959 . S
C513 H520 0.961 1_455 S
C513 H521 0.960 1_455 S
C514 C512 1.381 . S
C514 C515 1.394 . S
C514 H522 0.930 . S
C515 C514 1.394 . S
C515 C516 1.383 . S
C515 H523 0.929 . S
C516 C515 1.383 . S
C516 C517 1.377 . S
C517 H501 0.930 . S
C517 C516 1.377 . S
C517 C518 1.379 . S
C518 H502 0.931 . S
C518 C512 1.383 . S
C518 C517 1.379 . S
H519 C513 0.959 . S
H520 C513 0.961 1_655 S
H521 C513 0.960 1_655 S
H522 C514 0.930 . S
H523 C515 0.929 . S
H524 C532 0.929 . S
H525 C534 0.930 . S
H526 C536 0.930 1_565 S
H527 C539 0.929 . S
H528 C542 0.930 . S
H529 C544 0.960 . S
H530 C544 0.960 . S
H531 C544 0.960 . S
C532 H524 0.929 . S
C532 C533 1.377 . S
C532 C534 1.384 . S
C533 C532 1.377 . S
C533 C539 1.390 . S
C534 H525 0.930 . S
C534 C532 1.384 . S
C534 C535 1.407 . S
C535 C534 1.407 . S
C535 C536 1.401 . S
C535 C540 1.455 1_545 S
C536 H526 0.930 1_545 S
C536 C535 1.401 . S
C536 C539 1.386 . S
H537 C553 0.930 . S
H538 C554 0.931 . S
C539 H527 0.929 . S
C539 C533 1.390 . S
C539 C536 1.386 . S
C540 C535 1.455 1_565 S
C540 C542 1.395 . S
C540 C543 1.403 . S
H541 C547 0.930 . S
C542 H528 0.930 . S
C542 C540 1.395 . S
C542 C545 1.403 . S
C543 C540 1.403 . S
C543 C544 1.524 . S
C543 C547 1.400 . S
C544 H529 0.960 . S
C544 H530 0.960 . S
C544 H531 0.960 . S
C544 C543 1.524 . S
C545 C542 1.403 . S
C545 C546 1.392 . S
C545 C549 1.495 . S
C546 C545 1.392 . S
C546 C547 1.385 . S
C546 C548 1.478 . S
C547 H541 0.930 . S
C547 C543 1.400 . S
C547 C546 1.385 . S
C548 C546 1.478 . S
C548 C550 1.381 . S
C548 C554 1.383 . S
C549 C545 1.495 . S
C549 H555 0.959 . S
C549 H556 0.961 . S
C549 H557 0.960 . S
C550 C548 1.381 . S
C550 C551 1.394 . S
C550 H558 0.930 . S
C551 C550 1.394 . S
C551 C552 1.383 . S
C551 H559 0.929 . S
C552 C551 1.383 . S
C552 C553 1.377 . S
C553 H537 0.930 . S
C553 C552 1.377 . S
C553 C554 1.379 . S
C554 H538 0.931 . S
C554 C548 1.383 . S
C554 C553 1.379 . S
H555 C549 0.959 . S
H556 C549 0.961 . S
H557 C549 0.960 . S
H558 C550 0.930 . S
H559 C551 0.929 . S
H560 C568 0.929 . S
H561 C570 0.930 . S
H562 C572 0.930 . S
H563 C575 0.929 . S
H564 C578 0.930 . S
H565 C580 0.960 . S
H566 C580 0.960 . S
H567 C580 0.960 . S
C568 H560 0.929 . S
C568 C569 1.377 . S
C568 C570 1.384 . S
C569 C568 1.377 . S
C569 C575 1.390 . S
C570 H561 0.930 . S
C570 C568 1.384 . S
C570 C571 1.372 . S
C571 C570 1.372 . S
C571 C572 1.400 . S
C571 C576 1.490 . S
C572 H562 0.930 . S
C572 C571 1.400 . S
C572 C575 1.386 . S
H573 C589 0.930 . S
H574 C590 0.931 . S
C575 H563 0.929 . S
C575 C569 1.390 . S
C575 C572 1.386 . S
C576 C571 1.490 . S
C576 C578 1.395 . S
C576 C579 1.403 . S
H577 C583 0.930 . S
C578 H564 0.930 . S
C578 C576 1.395 . S
C578 C581 1.403 . S
C579 C576 1.403 . S
C579 C580 1.524 . S
C579 C583 1.400 . S
C580 H565 0.960 . S
C580 H566 0.960 . S
C580 H567 0.960 . S
C580 C579 1.524 . S
C581 C578 1.403 . S
C581 C582 1.392 . S
C581 C585 1.495 . S
C582 C581 1.392 . S
C582 C583 1.385 . S
C582 C584 1.478 . S
C583 H577 0.930 . S
C583 C579 1.400 . S
C583 C582 1.385 . S
C584 C582 1.478 . S
C584 C586 1.381 . S
C584 C590 1.383 . S
C585 C581 1.495 . S
C585 H591 0.959 . S
C585 H592 0.961 . S
C585 H593 0.960 . S
C586 C584 1.381 . S
C586 C587 1.394 . S
C586 H594 0.930 . S
C587 C586 1.394 . S
C587 C588 1.383 . S
C587 H595 0.929 . S
C588 C587 1.383 . S
C588 C589 1.377 . S
C589 H573 0.930 . S
C589 C588 1.377 . S
C589 C590 1.379 . S
C590 H574 0.931 . S
C590 C584 1.383 . S
C590 C589 1.379 . S
H591 C585 0.959 . S
H592 C585 0.961 . S
H593 C585 0.960 . S
H594 C586 0.930 . S
H595 C587 0.929 . S
H596 C604 0.929 . S
H597 C606 0.930 . S
H598 C608 0.930 1_545 S
H599 C611 0.929 . S
H600 C614 0.930 . S
H601 C616 0.960 . S
H602 C616 0.960 . S
H603 C616 0.960 . S
C604 H596 0.929 . S
C604 C605 1.377 . S
C604 C606 1.384 . S
C605 C604 1.377 . S
C605 C611 1.390 . S
C606 H597 0.930 . S
C606 C604 1.384 . S
C606 C607 1.372 1_565 S
C607 C606 1.372 1_545 S
C607 C608 1.400 1_545 S
C607 C612 1.490 . S
C608 H598 0.930 1_565 S
C608 C607 1.400 1_565 S
C608 C611 1.386 . S
H609 C625 0.930 . S
H610 C626 0.931 . S
C611 H599 0.929 . S
C611 C605 1.390 . S
C611 C608 1.386 . S
C612 C607 1.490 . S
C612 C614 1.395 . S
C612 C615 1.403 . S
H613 C619 0.930 . S
C614 H600 0.930 . S
C614 C612 1.395 . S
C614 C617 1.403 . S
C615 C612 1.403 . S
C615 C616 1.524 . S
C615 C619 1.400 . S
C616 H601 0.960 . S
C616 H602 0.960 . S
C616 H603 0.960 . S
C616 C615 1.524 . S
C617 C614 1.403 . S
C617 C618 1.392 . S
C617 C621 1.495 . S
C618 C617 1.392 . S
C618 C619 1.385 . S
C618 C620 1.478 . S
C619 H613 0.930 . S
C619 C615 1.400 . S
C619 C618 1.385 . S
C620 C618 1.478 . S
C620 C622 1.381 . S
C620 C626 1.383 . S
C621 C617 1.495 . S
C621 H627 0.959 . S
C621 H628 0.961 . S
C621 H629 0.960 . S
C622 C620 1.381 . S
C622 C623 1.394 . S
C622 H630 0.930 . S
C623 C622 1.394 . S
C623 C624 1.383 . S
C623 H631 0.929 . S
C624 C623 1.383 . S
C624 C625 1.377 . S
C625 H609 0.930 . S
C625 C624 1.377 . S
C625 C626 1.379 . S
C626 H610 0.931 . S
C626 C620 1.383 . S
C626 C625 1.379 . S
H627 C621 0.959 . S
H628 C621 0.961 . S
H629 C621 0.960 . S
H630 C622 0.930 . S
H631 C623 0.929 . S
H632 C640 0.929 . S
H633 C642 0.930 . S
H634 C644 0.930 . S
H635 C647 0.929 . S
H636 C650 0.930 . S
H637 C652 0.960 . S
H638 C652 0.960 . S
H639 C652 0.960 . S
C640 H632 0.929 . S
C640 C641 1.377 . S
C640 C642 1.384 . S
C641 C640 1.377 . S
C641 C647 1.390 . S
C642 H633 0.930 . S
C642 C640 1.384 . S
C642 C643 1.372 . S
C643 C642 1.372 . S
C643 C644 1.400 . S
C643 C648 1.490 . S
C644 H634 0.930 . S
C644 C643 1.400 . S
C644 C647 1.386 . S
H645 C661 0.930 . S
H646 C662 0.931 . S
C647 H635 0.929 . S
C647 C641 1.390 . S
C647 C644 1.386 . S
C648 C643 1.490 . S
C648 C650 1.395 . S
C648 C651 1.403 . S
H649 C655 0.930 . S
C650 H636 0.930 . S
C650 C648 1.395 . S
C650 C653 1.403 . S
C651 C648 1.403 . S
C651 C652 1.524 . S
C651 C655 1.400 . S
C652 H637 0.960 . S
C652 H638 0.960 . S
C652 H639 0.960 . S
C652 C651 1.524 . S
C653 C650 1.403 . S
C653 C654 1.392 . S
C653 C657 1.495 . S
C654 C653 1.392 . S
C654 C655 1.385 . S
C654 C656 1.478 . S
C655 H649 0.930 . S
C655 C651 1.400 . S
C655 C654 1.385 . S
C656 C654 1.478 . S
C656 C658 1.381 . S
C656 C662 1.383 . S
C657 C653 1.495 . S
C657 H663 0.959 . S
C657 H664 0.961 . S
C657 H665 0.960 . S
C658 C656 1.381 . S
C658 C659 1.394 . S
C658 H666 0.930 . S
C659 C658 1.394 . S
C659 C660 1.383 . S
C659 H667 0.929 . S
C660 C659 1.383 . S
C660 C661 1.377 . S
C661 H645 0.930 . S
C661 C660 1.377 . S
C661 C662 1.379 . S
C662 H646 0.931 . S
C662 C656 1.383 . S
C662 C661 1.379 . S
H663 C657 0.959 . S
H664 C657 0.961 . S
H665 C657 0.960 . S
H666 C658 0.930 . S
H667 C659 0.929 . S
H668 C676 0.929 . S
H669 C678 0.930 . S
H670 C680 0.930 . S
H671 C683 0.929 . S
H672 C686 0.930 . S
H673 C688 0.960 . S
H674 C688 0.960 . S
H675 C688 0.960 . S
C676 H668 0.929 . S
C676 C677 1.377 . S
C676 C678 1.384 . S
C677 C676 1.377 . S
C677 C683 1.390 . S
C678 H669 0.930 . S
C678 C676 1.384 . S
C678 C679 1.372 . S
C679 C678 1.372 . S
C679 C680 1.400 . S
C679 C684 1.490 . S
C680 H670 0.930 . S
C680 C679 1.400 . S
C680 C683 1.386 . S
H681 C697 0.930 . S
H682 C698 0.931 . S
C683 H671 0.929 . S
C683 C677 1.390 . S
C683 C680 1.386 . S
C684 C679 1.490 . S
C684 C686 1.395 . S
C684 C687 1.403 . S
H685 C691 0.930 . S
C686 H672 0.930 . S
C686 C684 1.395 . S
C686 C689 1.403 . S
C687 C684 1.403 . S
C687 C688 1.524 . S
C687 C691 1.400 . S
C688 H673 0.960 . S
C688 H674 0.960 . S
C688 H675 0.960 . S
C688 C687 1.524 . S
C689 C686 1.403 . S
C689 C690 1.392 . S
C689 C693 1.495 . S
C690 C689 1.392 . S
C690 C691 1.385 . S
C690 C692 1.478 . S
C691 H685 0.930 . S
C691 C687 1.400 . S
C691 C690 1.385 . S
C692 C690 1.478 . S
C692 C694 1.381 . S
C692 C698 1.383 . S
C693 C689 1.495 . S
C693 H699 0.959 . S
C693 H700 0.961 . S
C693 H701 0.960 . S
C694 C692 1.381 . S
C694 C695 1.394 . S
C694 H702 0.930 . S
C695 C694 1.394 . S
C695 C696 1.383 . S
C695 H703 0.929 . S
C696 C695 1.383 . S
C696 C697 1.377 . S
C697 H681 0.930 . S
C697 C696 1.377 . S
C697 C698 1.379 . S
C698 H682 0.931 . S
C698 C692 1.383 . S
C698 C697 1.379 . S
H699 C693 0.959 . S
H700 C693 0.961 . S
H701 C693 0.960 . S
H702 C694 0.930 . S
H703 C695 0.929 . S
H704 C712 0.929 . S
H705 C714 0.939 . S
H706 C716 0.930 . S
H707 C719 0.929 . S
H708 C722 0.930 . S
H709 C724 0.960 . S
H710 C724 0.960 . S
H711 C724 0.960 1_455 S
C712 H704 0.929 . S
C712 C713 1.377 . S
C712 C714 1.373 1_455 S
C713 C712 1.377 . S
C713 C719 1.390 . S
C714 H705 0.939 . S
C714 C712 1.373 1_655 S
C714 C715 1.374 . S
C715 C714 1.374 . S
C715 C716 1.400 1_655 S
C715 C720 1.490 . S
C716 H706 0.930 . S
C716 C715 1.400 1_455 S
C716 C719 1.386 . S
H717 C733 0.930 . S
H718 C734 0.931 . S
C719 H707 0.929 . S
C719 C713 1.390 . S
C719 C716 1.386 . S
C720 C715 1.490 . S
C720 C722 1.395 . S
C720 C723 1.403 . S
H721 C727 0.930 . S
C722 H708 0.930 . S
C722 C720 1.395 . S
C722 C725 1.403 . S
C723 C720 1.403 . S
C723 C724 1.524 . S
C723 C727 1.400 . S
C724 H709 0.960 . S
C724 H710 0.960 . S
C724 H711 0.960 1_655 S
C724 C723 1.524 . S
C725 C722 1.403 . S
C725 C726 1.392 . S
C725 C729 1.495 . S
C726 C725 1.392 . S
C726 C727 1.385 . S
C726 C728 1.478 . S
C727 H721 0.930 . S
C727 C723 1.400 . S
C727 C726 1.385 . S
C728 C726 1.478 . S
C728 C730 1.381 . S
C728 C734 1.383 . S
C729 C725 1.495 . S
C729 H735 0.959 . S
C729 H736 0.961 . S
C729 H737 0.960 . S
C730 C728 1.381 . S
C730 C731 1.394 . S
C730 H738 0.930 . S
C731 C730 1.394 . S
C731 C732 1.383 . S
C731 H739 0.929 . S
C732 C731 1.383 . S
C732 C733 1.377 . S
C733 H717 0.930 . S
C733 C732 1.377 . S
C733 C734 1.379 . S
C734 H718 0.931 . S
C734 C728 1.383 . S
C734 C733 1.379 . S
H735 C729 0.959 . S
H736 C729 0.961 . S
H737 C729 0.960 . S
H738 C730 0.930 . S
H739 C731 0.929 . S
H740 C748 0.929 . S
H741 C750 0.930 . S
H742 C752 0.930 . S
H743 C755 0.929 . S
H744 C758 0.930 . S
H745 C760 0.960 . S
H746 C760 0.960 . S
H747 C760 0.960 . S
C748 H740 0.929 . S
C748 C749 1.377 . S
C748 C750 1.384 . S
C749 C748 1.377 . S
C749 C755 1.390 . S
C750 H741 0.930 . S
C750 C748 1.384 . S
C750 C751 1.372 . S
C751 C750 1.372 . S
C751 C752 1.400 . S
C751 C756 1.490 . S
C752 H742 0.930 . S
C752 C751 1.400 . S
C752 C755 1.386 . S
H753 C769 0.930 . S
H754 C770 0.931 . S
C755 H743 0.929 . S
C755 C749 1.390 . S
C755 C752 1.386 . S
C756 C751 1.490 . S
C756 C758 1.395 . S
C756 C759 1.403 . S
H757 C763 0.930 . S
C758 H744 0.930 . S
C758 C756 1.395 . S
C758 C761 1.403 . S
C759 C756 1.403 . S
C759 C760 1.524 . S
C759 C763 1.400 . S
C760 H745 0.960 . S
C760 H746 0.960 . S
C760 H747 0.960 . S
C760 C759 1.524 . S
C761 C758 1.403 . S
C761 C762 1.392 . S
C761 C765 1.495 . S
C762 C761 1.392 . S
C762 C763 1.385 . S
C762 C764 1.478 . S
C763 H757 0.930 . S
C763 C759 1.400 . S
C763 C762 1.385 . S
C764 C762 1.478 . S
C764 C766 1.381 . S
C764 C770 1.383 . S
C765 C761 1.495 . S
C765 H771 0.959 . S
C765 H772 0.961 . S
C765 H773 0.960 . S
C766 C764 1.381 . S
C766 C767 1.394 . S
C766 H774 0.930 . S
C767 C766 1.394 . S
C767 C768 1.383 . S
C767 H775 0.929 . S
C768 C767 1.383 . S
C768 C769 1.377 . S
C769 H753 0.930 . S
C769 C768 1.377 . S
C769 C770 1.379 . S
C770 H754 0.931 . S
C770 C764 1.383 . S
C770 C769 1.379 . S
H771 C765 0.959 . S
H772 C765 0.961 . S
H773 C765 0.960 . S
H774 C766 0.930 . S
H775 C767 0.929 . S
H776 C784 0.929 . S
H777 C786 0.930 . S
H778 C788 0.930 1_455 S
H779 C791 0.929 . S
H780 C794 0.930 . S
H781 C796 0.960 . S
H782 C796 0.960 . S
H783 C796 0.960 . S
C784 H776 0.929 . S
C784 C785 1.377 . S
C784 C786 1.384 . S
C785 C784 1.377 . S
C785 C791 1.390 . S
C786 H777 0.930 . S
C786 C784 1.384 . S
C786 C787 1.398 . S
C787 C786 1.398 . S
C787 C788 1.409 . S
C787 C792 1.456 1_655 S
C788 H778 0.930 1_655 S
C788 C787 1.409 . S
C788 C791 1.386 . S
H789 C805 0.930 . S
H790 C806 0.931 . S
C791 H779 0.929 . S
C791 C785 1.390 . S
C791 C788 1.386 . S
C792 C787 1.456 1_455 S
C792 C794 1.395 . S
C792 C795 1.403 . S
H793 C799 0.930 . S
C794 H780 0.930 . S
C794 C792 1.395 . S
C794 C797 1.403 . S
C795 C792 1.403 . S
C795 C796 1.524 . S
C795 C799 1.400 . S
C796 H781 0.960 . S
C796 H782 0.960 . S
C796 H783 0.960 . S
C796 C795 1.524 . S
C797 C794 1.403 . S
C797 C798 1.392 . S
C797 C801 1.495 . S
C798 C797 1.392 . S
C798 C799 1.385 . S
C798 C800 1.478 . S
C799 H793 0.930 . S
C799 C795 1.400 . S
C799 C798 1.385 . S
C800 C798 1.478 . S
C800 C802 1.381 . S
C800 C806 1.383 . S
C801 C797 1.495 . S
C801 H807 0.959 . S
C801 H808 0.961 . S
C801 H809 0.960 . S
C802 C800 1.381 . S
C802 C803 1.394 . S
C802 H810 0.930 . S
C803 C802 1.394 . S
C803 C804 1.383 . S
C803 H811 0.929 . S
C804 C803 1.383 . S
C804 C805 1.377 . S
C805 H789 0.930 . S
C805 C804 1.377 . S
C805 C806 1.379 . S
C806 H790 0.931 . S
C806 C800 1.383 . S
C806 C805 1.379 . S
H807 C801 0.959 . S
H808 C801 0.961 . S
H809 C801 0.960 . S
H810 C802 0.930 . S
H811 C803 0.929 . S
H812 C820 0.929 . S
H813 C822 0.930 . S
H814 C824 0.930 . S
H815 C827 0.929 . S
H816 C830 0.930 . S
H817 C832 0.960 . S
H818 C832 0.960 . S
H819 C832 0.960 . S
C820 H812 0.929 . S
C820 C821 1.377 . S
C820 C822 1.384 . S
C821 C820 1.377 . S
C821 C827 1.390 . S
C822 H813 0.930 . S
C822 C820 1.384 . S
C822 C823 1.372 . S
C823 C822 1.372 . S
C823 C824 1.400 . S
C823 C828 1.490 . S
C824 H814 0.930 . S
C824 C823 1.400 . S
C824 C827 1.386 . S
H825 C841 0.930 . S
H826 C842 0.931 . S
C827 H815 0.929 . S
C827 C821 1.390 . S
C827 C824 1.386 . S
C828 C823 1.490 . S
C828 C830 1.395 . S
C828 C831 1.403 . S
H829 C835 0.930 . S
C830 H816 0.930 . S
C830 C828 1.395 . S
C830 C833 1.403 . S
C831 C828 1.403 . S
C831 C832 1.524 . S
C831 C835 1.400 . S
C832 H817 0.960 . S
C832 H818 0.960 . S
C832 H819 0.960 . S
C832 C831 1.524 . S
C833 C830 1.403 . S
C833 C834 1.392 . S
C833 C837 1.495 . S
C834 C833 1.392 . S
C834 C835 1.385 . S
C834 C836 1.478 . S
C835 H829 0.930 . S
C835 C831 1.400 . S
C835 C834 1.385 . S
C836 C834 1.478 . S
C836 C838 1.381 . S
C836 C842 1.383 . S
C837 C833 1.495 . S
C837 H843 0.959 . S
C837 H844 0.961 . S
C837 H845 0.960 . S
C838 C836 1.381 . S
C838 C839 1.394 . S
C838 H846 0.930 . S
C839 C838 1.394 . S
C839 C840 1.383 . S
C839 H847 0.929 . S
C840 C839 1.383 . S
C840 C841 1.377 . S
C841 H825 0.930 . S
C841 C840 1.377 . S
C841 C842 1.379 . S
C842 H826 0.931 . S
C842 C836 1.383 . S
C842 C841 1.379 . S
H843 C837 0.959 . S
H844 C837 0.961 . S
H845 C837 0.960 . S
H846 C838 0.930 . S
H847 C839 0.929 . S
H848 C856 0.929 . S
H849 C858 0.930 . S
H850 C860 0.930 . S
H851 C863 0.929 . S
H852 C866 0.930 . S
H853 C868 0.960 . S
H854 C868 0.960 . S
H855 C868 0.960 . S
C856 H848 0.929 . S
C856 C857 1.377 . S
C856 C858 1.384 . S
C857 C856 1.377 . S
C857 C863 1.390 . S
C858 H849 0.930 . S
C858 C856 1.384 . S
C858 C859 1.372 . S
C859 C858 1.372 . S
C859 C860 1.400 . S
C859 C864 1.490 . S
C860 H850 0.930 . S
C860 C859 1.400 . S
C860 C863 1.386 . S
H861 C877 0.930 . S
H862 C878 0.931 . S
C863 H851 0.929 . S
C863 C857 1.390 . S
C863 C860 1.386 . S
C864 C859 1.490 . S
C864 C866 1.395 . S
C864 C867 1.403 . S
H865 C871 0.930 . S
C866 H852 0.930 . S
C866 C864 1.395 . S
C866 C869 1.403 . S
C867 C864 1.403 . S
C867 C868 1.524 . S
C867 C871 1.400 . S
C868 H853 0.960 . S
C868 H854 0.960 . S
C868 H855 0.960 . S
C868 C867 1.524 . S
C869 C866 1.403 . S
C869 C870 1.392 . S
C869 C873 1.495 . S
C870 C869 1.392 . S
C870 C871 1.385 . S
C870 C872 1.478 . S
C871 H865 0.930 . S
C871 C867 1.400 . S
C871 C870 1.385 . S
C872 C870 1.478 . S
C872 C874 1.381 . S
C872 C878 1.383 . S
C873 C869 1.495 . S
C873 H879 0.959 . S
C873 H880 0.961 . S
C873 H881 0.960 . S
C874 C872 1.381 . S
C874 C875 1.394 . S
C874 H882 0.930 . S
C875 C874 1.394 . S
C875 C876 1.383 . S
C875 H883 0.929 . S
C876 C875 1.383 . S
C876 C877 1.377 . S
C877 H861 0.930 . S
C877 C876 1.377 . S
C877 C878 1.379 . S
C878 H862 0.931 . S
C878 C872 1.383 . S
C878 C877 1.379 . S
H879 C873 0.959 . S
H880 C873 0.961 . S
H881 C873 0.960 . S
H882 C874 0.930 . S
H883 C875 0.929 . S
H884 C892 0.929 . S
H885 C894 0.930 . S
H886 C896 0.930 . S
H887 C899 0.929 . S
H888 C902 0.930 . S
H889 C904 0.960 . S
H890 C904 0.960 . S
H891 C904 0.960 . S
C892 H884 0.929 . S
C892 C893 1.377 . S
C892 C894 1.384 . S
C893 C892 1.377 . S
C893 C899 1.390 . S
C894 H885 0.930 . S
C894 C892 1.384 . S
C894 C895 1.372 . S
C895 C894 1.372 . S
C895 C896 1.400 . S
C895 C900 1.490 . S
C896 H886 0.930 . S
C896 C895 1.400 . S
C896 C899 1.386 . S
H897 C913 0.930 . S
H898 C914 0.931 . S
C899 H887 0.929 . S
C899 C893 1.390 . S
C899 C896 1.386 . S
C900 C895 1.490 . S
C900 C902 1.395 . S
C900 C903 1.403 . S
H901 C907 0.930 . S
C902 H888 0.930 . S
C902 C900 1.395 . S
C902 C905 1.403 . S
C903 C900 1.403 . S
C903 C904 1.524 . S
C903 C907 1.400 . S
C904 H889 0.960 . S
C904 H890 0.960 . S
C904 H891 0.960 . S
C904 C903 1.524 . S
C905 C902 1.403 . S
C905 C906 1.392 . S
C905 C909 1.495 . S
C906 C905 1.392 . S
C906 C907 1.385 . S
C906 C908 1.478 . S
C907 H901 0.930 . S
C907 C903 1.400 . S
C907 C906 1.385 . S
C908 C906 1.478 . S
C908 C910 1.381 . S
C908 C914 1.383 . S
C909 C905 1.495 . S
C909 H915 0.959 . S
C909 H916 0.961 . S
C909 H917 0.960 . S
C910 C908 1.381 . S
C910 C911 1.394 . S
C910 H918 0.930 . S
C911 C910 1.394 . S
C911 C912 1.383 . S
C911 H919 0.929 . S
C912 C911 1.383 . S
C912 C913 1.377 . S
C913 H897 0.930 . S
C913 C912 1.377 . S
C913 C914 1.379 . S
C914 H898 0.931 . S
C914 C908 1.383 . S
C914 C913 1.379 . S
H915 C909 0.959 . S
H916 C909 0.961 . S
H917 C909 0.960 . S
H918 C910 0.930 . S
H919 C911 0.929 . S
H920 C928 0.929 . S
H921 C930 0.930 . S
H922 C932 0.930 . S
H923 C935 0.929 . S
H924 C938 0.930 . S
H925 C940 0.960 . S
H926 C940 0.960 . S
H927 C940 0.960 . S
C928 H920 0.929 . S
C928 C929 1.377 . S
C928 C930 1.384 . S
C929 C928 1.377 . S
C929 C935 1.390 . S
C930 H921 0.930 . S
C930 C928 1.384 . S
C930 C931 1.372 . S
C931 C930 1.372 . S
C931 C932 1.400 . S
C931 C936 1.490 . S
C932 H922 0.930 . S
C932 C931 1.400 . S
C932 C935 1.386 . S
H933 C949 0.930 . S
H934 C950 0.931 . S
C935 H923 0.929 . S
C935 C929 1.390 . S
C935 C932 1.386 . S
C936 C931 1.490 . S
C936 C938 1.395 . S
C936 C939 1.403 . S
H937 C943 0.930 . S
C938 H924 0.930 . S
C938 C936 1.395 . S
C938 C941 1.403 . S
C939 C936 1.403 . S
C939 C940 1.524 . S
C939 C943 1.400 . S
C940 H925 0.960 . S
C940 H926 0.960 . S
C940 H927 0.960 . S
C940 C939 1.524 . S
C941 C938 1.403 . S
C941 C942 1.392 . S
C941 C945 1.495 . S
C942 C941 1.392 . S
C942 C943 1.385 . S
C942 C944 1.478 . S
C943 H937 0.930 . S
C943 C939 1.400 . S
C943 C942 1.385 . S
C944 C942 1.478 . S
C944 C946 1.381 . S
C944 C950 1.383 . S
C945 C941 1.495 . S
C945 H951 0.959 . S
C945 H952 0.961 . S
C945 H953 0.960 . S
C946 C944 1.381 . S
C946 C947 1.394 . S
C946 H954 0.930 . S
C947 C946 1.394 . S
C947 C948 1.383 . S
C947 H955 0.929 . S
C948 C947 1.383 . S
C948 C949 1.377 . S
C949 H933 0.930 . S
C949 C948 1.377 . S
C949 C950 1.379 . S
C950 H934 0.931 . S
C950 C944 1.383 . S
C950 C949 1.379 . S
H951 C945 0.959 . S
H952 C945 0.961 . S
H953 C945 0.960 . S
H954 C946 0.930 . S
H955 C947 0.929 . S
H956 C964 0.929 . S
H957 C966 0.930 . S
H958 C968 0.930 . S
H959 C971 0.929 . S
H960 C974 0.930 . S
H961 C976 0.960 . S
H962 C976 0.960 . S
H963 C976 0.960 . S
C964 H956 0.929 . S
C964 C965 1.377 . S
C964 C966 1.384 . S
C965 C964 1.377 . S
C965 C971 1.390 . S
C966 H957 0.930 . S
C966 C964 1.384 . S
C966 C967 1.372 . S
C967 C966 1.372 . S
C967 C968 1.400 . S
C967 C972 1.490 . S
C968 H958 0.930 . S
C968 C967 1.400 . S
C968 C971 1.386 . S
H969 C985 0.930 . S
H970 C986 0.931 . S
C971 H959 0.929 . S
C971 C965 1.390 . S
C971 C968 1.386 . S
C972 C967 1.490 . S
C972 C974 1.395 . S
C972 C975 1.403 . S
H973 C979 0.930 . S
C974 H960 0.930 . S
C974 C972 1.395 . S
C974 C977 1.403 . S
C975 C972 1.403 . S
C975 C976 1.524 . S
C975 C979 1.400 . S
C976 H961 0.960 . S
C976 H962 0.960 . S
C976 H963 0.960 . S
C976 C975 1.524 . S
C977 C974 1.403 . S
C977 C978 1.392 . S
C977 C981 1.495 . S
C978 C977 1.392 . S
C978 C979 1.385 . S
C978 C980 1.478 . S
C979 H973 0.930 . S
C979 C975 1.400 . S
C979 C978 1.385 . S
C980 C978 1.478 . S
C980 C982 1.381 . S
C980 C986 1.383 . S
C981 C977 1.495 . S
C981 H987 0.959 . S
C981 H988 0.961 . S
C981 H989 0.960 . S
C982 C980 1.381 . S
C982 C983 1.394 . S
C982 H990 0.930 . S
C983 C982 1.394 . S
C983 C984 1.383 . S
C983 H991 0.929 . S
C984 C983 1.383 . S
C984 C985 1.377 . S
C985 H969 0.930 . S
C985 C984 1.377 . S
C985 C986 1.379 . S
C986 H970 0.931 . S
C986 C980 1.383 . S
C986 C985 1.379 . S
H987 C981 0.959 . S
H988 C981 0.961 . S
H989 C981 0.960 . S
H990 C982 0.930 . S
H991 C983 0.929 . S
H992 C1000 0.929 . S
H993 C1002 0.930 . S
H994 C1004 0.930 . S
H995 C1007 0.929 . S
H996 C1010 0.930 . S
H997 C1012 0.960 . S
H998 C1012 0.960 . S
H999 C1012 0.960 . S
C1000 H992 0.929 . S
C1000 C1001 1.377 . S
C1000 C1002 1.384 . S
C1001 C1000 1.377 . S
C1001 C1007 1.390 . S
C1002 H993 0.930 . S
C1002 C1000 1.384 . S
C1002 C1003 1.372 . S
C1003 C1002 1.372 . S
C1003 C1004 1.400 . S
C1003 C1008 1.490 . S
C1004 H994 0.930 . S
C1004 C1003 1.400 . S
C1004 C1007 1.386 . S
H1005 C1021 0.930 . S
H1006 C1022 0.931 . S
C1007 H995 0.929 . S
C1007 C1001 1.390 . S
C1007 C1004 1.386 . S
C1008 C1003 1.490 . S
C1008 C1010 1.395 . S
C1008 C1011 1.403 . S
H1009 C1015 0.930 . S
C1010 H996 0.930 . S
C1010 C1008 1.395 . S
C1010 C1013 1.403 . S
C1011 C1008 1.403 . S
C1011 C1012 1.524 . S
C1011 C1015 1.400 . S
C1012 H997 0.960 . S
C1012 H998 0.960 . S
C1012 H999 0.960 . S
C1012 C1011 1.524 . S
C1013 C1010 1.403 . S
C1013 C1014 1.392 . S
C1013 C1017 1.495 . S
C1014 C1013 1.392 . S
C1014 C1015 1.385 . S
C1014 C1016 1.478 . S
C1015 H1009 0.930 . S
C1015 C1011 1.400 . S
C1015 C1014 1.385 . S
C1016 C1014 1.478 . S
C1016 C1018 1.381 . S
C1016 C1022 1.383 . S
C1017 C1013 1.495 . S
C1017 H1023 0.959 . S
C1017 H1024 0.961 . S
C1017 H1025 0.960 . S
C1018 C1016 1.381 . S
C1018 C1019 1.394 . S
C1018 H1026 0.930 . S
C1019 C1018 1.394 . S
C1019 C1020 1.383 . S
C1019 H1027 0.929 . S
C1020 C1019 1.383 . S
C1020 C1021 1.377 . S
C1021 H1005 0.930 . S
C1021 C1020 1.377 . S
C1021 C1022 1.379 . S
C1022 H1006 0.931 . S
C1022 C1016 1.383 . S
C1022 C1021 1.379 . S
H1023 C1017 0.959 . S
H1024 C1017 0.961 . S
H1025 C1017 0.960 . S
H1026 C1018 0.930 . S
H1027 C1019 0.929 . S
H1028 C1036 0.929 . S
H1029 C1038 0.930 . S
H1030 C1040 0.930 . S
H1031 C1043 0.929 . S
H1032 C1046 0.930 . S
H1033 C1048 0.960 . S
H1034 C1048 0.960 . S
H1035 C1048 0.960 . S
C1036 H1028 0.929 . S
C1036 C1037 1.377 . S
C1036 C1038 1.384 . S
C1037 C1036 1.377 . S
C1037 C1043 1.390 . S
C1038 H1029 0.930 . S
C1038 C1036 1.384 . S
C1038 C1039 1.372 . S
C1039 C1038 1.372 . S
C1039 C1040 1.400 . S
C1039 C1044 1.490 . S
C1040 H1030 0.930 . S
C1040 C1039 1.400 . S
C1040 C1043 1.386 . S
H1041 C1057 0.930 . S
H1042 C1058 0.931 . S
C1043 H1031 0.929 . S
C1043 C1037 1.390 . S
C1043 C1040 1.386 . S
C1044 C1039 1.490 . S
C1044 C1046 1.395 . S
C1044 C1047 1.403 . S
H1045 C1051 0.930 . S
C1046 H1032 0.930 . S
C1046 C1044 1.395 . S
C1046 C1049 1.403 . S
C1047 C1044 1.403 . S
C1047 C1048 1.524 . S
C1047 C1051 1.400 . S
C1048 H1033 0.960 . S
C1048 H1034 0.960 . S
C1048 H1035 0.960 . S
C1048 C1047 1.524 . S
C1049 C1046 1.403 . S
C1049 C1050 1.392 . S
C1049 C1053 1.495 . S
C1050 C1049 1.392 . S
C1050 C1051 1.385 . S
C1050 C1052 1.478 . S
C1051 H1045 0.930 . S
C1051 C1047 1.400 . S
C1051 C1050 1.385 . S
C1052 C1050 1.478 . S
C1052 C1054 1.381 . S
C1052 C1058 1.383 . S
C1053 C1049 1.495 . S
C1053 H1059 0.959 . S
C1053 H1060 0.961 . S
C1053 H1061 0.960 . S
C1054 C1052 1.381 . S
C1054 C1055 1.394 . S
C1054 H1062 0.930 . S
C1055 C1054 1.394 . S
C1055 C1056 1.383 . S
C1055 H1063 0.929 . S
C1056 C1055 1.383 . S
C1056 C1057 1.377 . S
C1057 H1041 0.930 . S
C1057 C1056 1.377 . S
C1057 C1058 1.379 . S
C1058 H1042 0.931 . S
C1058 C1052 1.383 . S
C1058 C1057 1.379 . S
H1059 C1053 0.959 . S
H1060 C1053 0.961 . S
H1061 C1053 0.960 . S
H1062 C1054 0.930 . S
H1063 C1055 0.929 . S
H1064 C1072 0.929 . S
H1065 C1074 0.930 . S
H1066 C1076 0.930 . S
H1067 C1079 0.929 . S
H1068 C1082 0.930 . S
H1069 C1084 0.960 . S
H1070 C1084 0.960 . S
H1071 C1084 0.960 . S
C1072 H1064 0.929 . S
C1072 C1073 1.377 . S
C1072 C1074 1.384 . S
C1073 C1072 1.377 . S
C1073 C1079 1.390 . S
C1074 H1065 0.930 . S
C1074 C1072 1.384 . S
C1074 C1075 1.372 . S
C1075 C1074 1.372 . S
C1075 C1076 1.400 . S
C1075 C1080 1.490 . S
C1076 H1066 0.930 . S
C1076 C1075 1.400 . S
C1076 C1079 1.386 . S
H1077 C1093 0.930 . S
H1078 C1094 0.931 . S
C1079 H1067 0.929 . S
C1079 C1073 1.390 . S
C1079 C1076 1.386 . S
C1080 C1075 1.490 . S
C1080 C1082 1.395 . S
C1080 C1083 1.403 . S
H1081 C1087 0.930 . S
C1082 H1068 0.930 . S
C1082 C1080 1.395 . S
C1082 C1085 1.403 . S
C1083 C1080 1.403 . S
C1083 C1084 1.524 . S
C1083 C1087 1.400 . S
C1084 H1069 0.960 . S
C1084 H1070 0.960 . S
C1084 H1071 0.960 . S
C1084 C1083 1.524 . S
C1085 C1082 1.403 . S
C1085 C1086 1.392 . S
C1085 C1089 1.495 . S
C1086 C1085 1.392 . S
C1086 C1087 1.385 . S
C1086 C1088 1.478 . S
C1087 H1081 0.930 . S
C1087 C1083 1.400 . S
C1087 C1086 1.385 . S
C1088 C1086 1.478 . S
C1088 C1090 1.381 . S
C1088 C1094 1.383 . S
C1089 C1085 1.495 . S
C1089 H1095 0.959 . S
C1089 H1096 0.961 . S
C1089 H1097 0.960 . S
C1090 C1088 1.381 . S
C1090 C1091 1.394 . S
C1090 H1098 0.930 . S
C1091 C1090 1.394 . S
C1091 C1092 1.383 . S
C1091 H1099 0.929 . S
C1092 C1091 1.383 . S
C1092 C1093 1.377 . S
C1093 H1077 0.930 . S
C1093 C1092 1.377 . S
C1093 C1094 1.379 . S
C1094 H1078 0.931 . S
C1094 C1088 1.383 . S
C1094 C1093 1.379 . S
H1095 C1089 0.959 . S
H1096 C1089 0.961 . S
H1097 C1089 0.960 . S
H1098 C1090 0.930 . S
H1099 C1091 0.929 . S
C245 C7 0.695 . S
C264 C86 0.734 . S
C281 C25 0.735 . S
C300 C105 0.812 . S
C317 C46 0.636 . S
C336 C128 0.485 . S
C372 C147 0.446 . S
C353 C70 0.604 . S
C408 C162 0.788 . S
C389 C28 0.698 . S
C425 C49 0.601 . S
C444 C185 0.453 . S
C461 C67 0.618 . S
C480 C204 0.609 . S
C497 C4 0.746 . S
C516 C219 0.812 . S
C533 C58 1.646 . S
C552 C223 1.746 . S
C588 C166 1.720 . S
C569 C66 1.614 . S
C624 C181 1.910 . S
C605 C3 1.850 . S
C641 C37 1.893 . S
C660 C200 1.960 . S
C696 C109 1.765 . S
C677 C79 1.656 . S
C713 C16 1.886 . S
C732 C124 1.935 . S
C768 C143 1.883 . S
C749 C24 1.842 . S
C804 C90 1.721 . S
C785 C45 1.615 . S
C840 C209 1.292 . S
C821 C19 1.288 . S
C876 C228 1.334 . S
C857 C41 1.350 . S
C893 C62 1.252 . S
C912 C171 1.281 . S
C948 C190 1.218 . S
C929 C82 1.198 . S
C984 C133 1.365 . S
C965 C40 1.295 . S
C1001 C61 1.218 . S
C1020 C152 1.257 . S
C1056 C95 1.286 . S
C1037 C83 1.254 . S
C1092 C114 1.335 . S
C1073 C20 1.349 . S
