# Generated by pormake.
# Topology ptr, (4,4)-cn, num edge types: 1
# Building blocks:
#     Node 0, Type 0, BuildingBlock: NAHDIM_clean_sbu_0, # of connection points: 4
#     Node 1, Type 0, BuildingBlock: NAHDIM_clean_sbu_0, # of connection points: 4
#     Node 2, Type 0, BuildingBlock: NAHDIM_clean_sbu_0, # of connection points: 4
#     Node 3, Type 0, BuildingBlock: NAHDIM_clean_sbu_0, # of connection points: 4
#     Node 4, Type 0, BuildingBlock: NAHDIM_clean_sbu_0, # of connection points: 4
#     Node 5, Type 0, BuildingBlock: NAHDIM_clean_sbu_0, # of connection points: 4
#     Node 6, Type 0, BuildingBlock: NAHDIM_clean_sbu_0, # of connection points: 4
#     Node 7, Type 0, BuildingBlock: NAHDIM_clean_sbu_0, # of connection points: 4
#     Node 8, Type 0, BuildingBlock: NAHDIM_clean_sbu_0, # of connection points: 4
#     Node 9, Type 0, BuildingBlock: NAHDIM_clean_sbu_0, # of connection points: 4
#     Node 10, Type 0, BuildingBlock: NAHDIM_clean_sbu_0, # of connection points: 4
#     Node 11, Type 0, BuildingBlock: NAHDIM_clean_sbu_0, # of connection points: 4
#     Node 12, Type 0, BuildingBlock: NAHDIM_clean_sbu_0, # of connection points: 4
#     Node 13, Type 0, BuildingBlock: NAHDIM_clean_sbu_0, # of connection points: 4
#     Node 14, Type 0, BuildingBlock: NAHDIM_clean_sbu_0, # of connection points: 4
#     Node 15, Type 0, BuildingBlock: NAHDIM_clean_sbu_0, # of connection points: 4
#     Node 16, Type 0, BuildingBlock: NAHDIM_clean_sbu_0, # of connection points: 4
#     Node 17, Type 0, BuildingBlock: NAHDIM_clean_sbu_0, # of connection points: 4
#     Node 18, Type 1, BuildingBlock: GIZVER_clean_linker_0, # of connection points: 4
#     Node 19, Type 1, BuildingBlock: GIZVER_clean_linker_0, # of connection points: 4
#     Node 20, Type 1, BuildingBlock: GIZVER_clean_linker_0, # of connection points: 4
#     Node 21, Type 1, BuildingBlock: GIZVER_clean_linker_0, # of connection points: 4
#     Node 22, Type 1, BuildingBlock: GIZVER_clean_linker_0, # of connection points: 4
#     Node 23, Type 1, BuildingBlock: GIZVER_clean_linker_0, # of connection points: 4
#     Node 24, Type 1, BuildingBlock: GIZVER_clean_linker_0, # of connection points: 4
#     Node 25, Type 1, BuildingBlock: GIZVER_clean_linker_0, # of connection points: 4
#     Node 26, Type 1, BuildingBlock: GIZVER_clean_linker_0, # of connection points: 4
#     Node 27, Type 1, BuildingBlock: GIZVER_clean_linker_0, # of connection points: 4
#     Node 28, Type 1, BuildingBlock: GIZVER_clean_linker_0, # of connection points: 4
#     Node 29, Type 1, BuildingBlock: GIZVER_clean_linker_0, # of connection points: 4
#     Node 30, Type 1, BuildingBlock: GIZVER_clean_linker_0, # of connection points: 4
#     Node 31, Type 1, BuildingBlock: GIZVER_clean_linker_0, # of connection points: 4
#     Node 32, Type 1, BuildingBlock: GIZVER_clean_linker_0, # of connection points: 4
#     Node 33, Type 1, BuildingBlock: GIZVER_clean_linker_0, # of connection points: 4
#     Node 34, Type 1, BuildingBlock: GIZVER_clean_linker_0, # of connection points: 4
#     Node 35, Type 1, BuildingBlock: GIZVER_clean_linker_0, # of connection points: 4
#     Edge 36, Type (0, 1), BuildingBlock: ZUJKAS_clean_linker_0, # of connection points: 2
#     Edge 37, Type (0, 1), BuildingBlock: ZUJKAS_clean_linker_0, # of connection points: 2
#     Edge 38, Type (0, 1), BuildingBlock: ZUJKAS_clean_linker_0, # of connection points: 2
#     Edge 39, Type (0, 1), BuildingBlock: ZUJKAS_clean_linker_0, # of connection points: 2
#     Edge 40, Type (0, 1), BuildingBlock: ZUJKAS_clean_linker_0, # of connection points: 2
#     Edge 41, Type (0, 1), BuildingBlock: ZUJKAS_clean_linker_0, # of connection points: 2
#     Edge 42, Type (0, 1), BuildingBlock: ZUJKAS_clean_linker_0, # of connection points: 2
#     Edge 43, Type (0, 1), BuildingBlock: ZUJKAS_clean_linker_0, # of connection points: 2
#     Edge 44, Type (0, 1), BuildingBlock: ZUJKAS_clean_linker_0, # of connection points: 2
#     Edge 45, Type (0, 1), BuildingBlock: ZUJKAS_clean_linker_0, # of connection points: 2
#     Edge 46, Type (0, 1), BuildingBlock: ZUJKAS_clean_linker_0, # of connection points: 2
#     Edge 47, Type (0, 1), BuildingBlock: ZUJKAS_clean_linker_0, # of connection points: 2
#     Edge 48, Type (0, 1), BuildingBlock: ZUJKAS_clean_linker_0, # of connection points: 2
#     Edge 49, Type (0, 1), BuildingBlock: ZUJKAS_clean_linker_0, # of connection points: 2
#     Edge 50, Type (0, 1), BuildingBlock: ZUJKAS_clean_linker_0, # of connection points: 2
#     Edge 51, Type (0, 1), BuildingBlock: ZUJKAS_clean_linker_0, # of connection points: 2
#     Edge 52, Type (0, 1), BuildingBlock: ZUJKAS_clean_linker_0, # of connection points: 2
#     Edge 53, Type (0, 1), BuildingBlock: ZUJKAS_clean_linker_0, # of connection points: 2
#     Edge 54, Type (0, 1), BuildingBlock: ZUJKAS_clean_linker_0, # of connection points: 2
#     Edge 55, Type (0, 1), BuildingBlock: ZUJKAS_clean_linker_0, # of connection points: 2
#     Edge 56, Type (0, 1), BuildingBlock: ZUJKAS_clean_linker_0, # of connection points: 2
#     Edge 57, Type (0, 1), BuildingBlock: ZUJKAS_clean_linker_0, # of connection points: 2
#     Edge 58, Type (0, 1), BuildingBlock: ZUJKAS_clean_linker_0, # of connection points: 2
#     Edge 59, Type (0, 1), BuildingBlock: ZUJKAS_clean_linker_0, # of connection points: 2
#     Edge 60, Type (0, 1), BuildingBlock: ZUJKAS_clean_linker_0, # of connection points: 2
#     Edge 61, Type (0, 1), BuildingBlock: ZUJKAS_clean_linker_0, # of connection points: 2
#     Edge 62, Type (0, 1), BuildingBlock: ZUJKAS_clean_linker_0, # of connection points: 2
#     Edge 63, Type (0, 1), BuildingBlock: ZUJKAS_clean_linker_0, # of connection points: 2
#     Edge 64, Type (0, 1), BuildingBlock: ZUJKAS_clean_linker_0, # of connection points: 2
#     Edge 65, Type (0, 1), BuildingBlock: ZUJKAS_clean_linker_0, # of connection points: 2
#     Edge 66, Type (0, 1), BuildingBlock: ZUJKAS_clean_linker_0, # of connection points: 2
#     Edge 67, Type (0, 1), BuildingBlock: ZUJKAS_clean_linker_0, # of connection points: 2
#     Edge 68, Type (0, 1), BuildingBlock: ZUJKAS_clean_linker_0, # of connection points: 2
#     Edge 69, Type (0, 1), BuildingBlock: ZUJKAS_clean_linker_0, # of connection points: 2
#     Edge 70, Type (0, 1), BuildingBlock: ZUJKAS_clean_linker_0, # of connection points: 2
#     Edge 71, Type (0, 1), BuildingBlock: ZUJKAS_clean_linker_0, # of connection points: 2
#     Edge 72, Type (0, 1), BuildingBlock: ZUJKAS_clean_linker_0, # of connection points: 2
#     Edge 73, Type (0, 1), BuildingBlock: ZUJKAS_clean_linker_0, # of connection points: 2
#     Edge 74, Type (0, 1), BuildingBlock: ZUJKAS_clean_linker_0, # of connection points: 2
#     Edge 75, Type (0, 1), BuildingBlock: ZUJKAS_clean_linker_0, # of connection points: 2
#     Edge 76, Type (0, 1), BuildingBlock: ZUJKAS_clean_linker_0, # of connection points: 2
#     Edge 77, Type (0, 1), BuildingBlock: ZUJKAS_clean_linker_0, # of connection points: 2
#     Edge 78, Type (0, 1), BuildingBlock: ZUJKAS_clean_linker_0, # of connection points: 2
#     Edge 79, Type (0, 1), BuildingBlock: ZUJKAS_clean_linker_0, # of connection points: 2
#     Edge 80, Type (0, 1), BuildingBlock: ZUJKAS_clean_linker_0, # of connection points: 2
#     Edge 81, Type (0, 1), BuildingBlock: ZUJKAS_clean_linker_0, # of connection points: 2
#     Edge 82, Type (0, 1), BuildingBlock: ZUJKAS_clean_linker_0, # of connection points: 2
#     Edge 83, Type (0, 1), BuildingBlock: ZUJKAS_clean_linker_0, # of connection points: 2
#     Edge 84, Type (0, 1), BuildingBlock: ZUJKAS_clean_linker_0, # of connection points: 2
#     Edge 85, Type (0, 1), BuildingBlock: ZUJKAS_clean_linker_0, # of connection points: 2
#     Edge 86, Type (0, 1), BuildingBlock: ZUJKAS_clean_linker_0, # of connection points: 2
#     Edge 87, Type (0, 1), BuildingBlock: ZUJKAS_clean_linker_0, # of connection points: 2
#     Edge 88, Type (0, 1), BuildingBlock: ZUJKAS_clean_linker_0, # of connection points: 2
#     Edge 89, Type (0, 1), BuildingBlock: ZUJKAS_clean_linker_0, # of connection points: 2
#     Edge 90, Type (0, 1), BuildingBlock: ZUJKAS_clean_linker_0, # of connection points: 2
#     Edge 91, Type (0, 1), BuildingBlock: ZUJKAS_clean_linker_0, # of connection points: 2
#     Edge 92, Type (0, 1), BuildingBlock: ZUJKAS_clean_linker_0, # of connection points: 2
#     Edge 93, Type (0, 1), BuildingBlock: ZUJKAS_clean_linker_0, # of connection points: 2
#     Edge 94, Type (0, 1), BuildingBlock: ZUJKAS_clean_linker_0, # of connection points: 2
#     Edge 95, Type (0, 1), BuildingBlock: ZUJKAS_clean_linker_0, # of connection points: 2
#     Edge 96, Type (0, 1), BuildingBlock: ZUJKAS_clean_linker_0, # of connection points: 2
#     Edge 97, Type (0, 1), BuildingBlock: ZUJKAS_clean_linker_0, # of connection points: 2
#     Edge 98, Type (0, 1), BuildingBlock: ZUJKAS_clean_linker_0, # of connection points: 2
#     Edge 99, Type (0, 1), BuildingBlock: ZUJKAS_clean_linker_0, # of connection points: 2
#     Edge 100, Type (0, 1), BuildingBlock: ZUJKAS_clean_linker_0, # of connection points: 2
#     Edge 101, Type (0, 1), BuildingBlock: ZUJKAS_clean_linker_0, # of connection points: 2
#     Edge 102, Type (0, 1), BuildingBlock: ZUJKAS_clean_linker_0, # of connection points: 2
#     Edge 103, Type (0, 1), BuildingBlock: ZUJKAS_clean_linker_0, # of connection points: 2
#     Edge 104, Type (0, 1), BuildingBlock: ZUJKAS_clean_linker_0, # of connection points: 2
#     Edge 105, Type (0, 1), BuildingBlock: ZUJKAS_clean_linker_0, # of connection points: 2
#     Edge 106, Type (0, 1), BuildingBlock: ZUJKAS_clean_linker_0, # of connection points: 2
#     Edge 107, Type (0, 1), BuildingBlock: ZUJKAS_clean_linker_0, # of connection points: 2
# Relax obj value: 0.076
# Max RMSD: 0.208
# Mean RMSD: 0.115
data_MOF--net-ptr--node1-NAHDIM_clean_sbu_0--node2-GIZVER_clean_linker_0--edge1-ZUJKAS_clean_linker_0
_symmetry_space_group_name_H-M    P1
_symmetry_Int_Tables_number       1
_symmetry_cell_setting            triclinic
loop_
_symmetry_equiv_pos_as_xyz
'x, y, z'
_cell_length_a     104.68111
_cell_length_b     102.91485
_cell_length_c     60.521715
_cell_angle_alpha  91.861332
_cell_angle_beta   89.437961
_cell_angle_gamma 121.62474
loop_
_atom_site_label
_atom_site_type_symbol
_atom_site_fract_x
_atom_site_fract_y
_atom_site_fract_z
_atom_type_partial_charge
C0 C 0.02611 0.36046 0.00442 0.0
O1 O 0.01575 0.35031 0.99075 0.0
O2 O 0.98756 0.35003 0.00475 0.0
Zn3 Zn 0.00573 0.37147 0.00802 0.0
O4 O 0.0031 0.38321 0.03311 0.0
C5 C 0.9973 0.38423 0.97444 0.0
O6 O 0.98471 0.37717 0.98555 0.0
O7 O 0.02428 0.37066 0.0136 0.0
C8 C 0.01219 0.39758 0.03437 0.0
O9 O 0.02306 0.40393 0.0199 0.0
C10 C 0.97577 0.34517 0.0163 0.0
O11 O 0.97514 0.35435 0.03125 0.0
O12 O 0.00823 0.38305 0.98049 0.0
C13 C 0.65939 0.6298 0.01119 0.0
O14 O 0.64799 0.61562 0.01084 0.0
O15 O 0.63721 0.65691 0.01814 0.0
Zn16 Zn 0.63589 0.63666 0.01473 0.0
O17 O 0.62434 0.62541 0.98705 0.0
C18 C 0.61522 0.62458 0.05122 0.0
O19 O 0.61313 0.63575 0.04677 0.0
O20 O 0.65687 0.64061 0.01291 0.0
C21 C 0.61099 0.62236 0.98456 0.0
O22 O 0.60525 0.62719 -0.00025 0.0
C23 C 0.63871 0.6648 0.00148 0.0
O24 O 0.63919 0.65954 0.98162 0.0
O25 O 0.62484 0.62314 0.04023 0.0
C26 C 0.36124 0.02951 0.99418 0.0
O27 O 0.35386 0.01791 0.98011 0.0
O28 O 0.34936 0.99135 0.01345 0.0
Zn29 Zn 0.37034 0.00977 0.01058 0.0
O30 O 0.38075 0.0077 0.98369 0.0
C31 C 0.37951 1.00045 0.04892 0.0
O32 O 0.36694 0.98742 0.04485 0.0
O33 O 0.36931 0.02874 0.00901 0.0
C34 C 0.3831 0.99677 0.98232 0.0
O35 O 0.37788 0.98661 0.99782 0.0
C36 C 0.34172 0.982 0.99773 0.0
O37 O 0.34747 0.98415 0.97783 0.0
O38 O 0.38301 0.01172 0.03687 0.0
C39 C 0.97214 0.6411 0.01225 0.0
O40 O 0.98034 0.6477 0.03011 0.0
O41 O 0.01206 0.65457 0.00851 0.0
Zn42 Zn 0.99428 0.63297 0.00456 0.0
O43 O 0.99759 0.62204 0.97887 0.0
C44 C 0.99811 0.62647 0.04987 0.0
O45 O 0.007 0.64135 0.05225 0.0
O46 O 0.97584 0.63388 -0.00116 0.0
C47 C 0.00346 0.61415 0.98248 0.0
O48 O 0.00766 0.61374 0.00269 0.0
C49 C 0.02548 0.65837 0.00427 0.0
O50 O 0.02819 0.6479 0.99697 0.0
O51 O 0.99128 0.62076 0.0316 0.0
C52 C 0.3305 0.3648 0.99832 0.0
O53 O 0.33259 0.3581 0.98102 0.0
O54 O 0.35774 0.35284 0.00317 0.0
Zn55 Zn 0.36108 0.37397 0.00731 0.0
O56 O 0.37483 0.3849 0.0334 0.0
C57 C 0.37742 0.38231 0.96612 0.0
O58 O 0.37615 0.36899 0.96781 0.0
O59 O 0.34123 0.37241 0.01202 0.0
C60 C 0.38857 0.38904 0.03165 0.0
O61 O 0.39311 0.38558 0.01331 0.0
C62 C 0.35791 0.34514 0.01906 0.0
O63 O 0.36008 0.35092 0.03932 0.0
O64 O 0.3714 0.38657 0.98065 0.0
C65 C 0.64008 0.97193 0.99798 0.0
O66 O 0.64786 0.98163 0.98253 0.0
O67 O 0.65064 0.011 0.00135 0.0
Zn68 Zn 0.62972 0.99265 0.00548 0.0
O69 O 0.61962 0.9958 0.03201 0.0
C70 C 0.62042 0.99754 0.96268 0.0
O71 O 0.63427 0.00923 0.96184 0.0
O72 O 0.63131 0.97419 0.00991 0.0
C73 C 0.61168 0.00168 0.02941 0.0
O74 O 0.61086 0.00628 0.00978 0.0
C75 C 0.65592 0.0238 0.01164 0.0
O76 O 0.64745 0.0257 0.02589 0.0
O77 O 0.61643 0.98881 0.97901 0.0
C78 C 0.69336 0.70095 0.35902 0.0
O79 O 0.68437 0.69911 0.37553 0.0
O80 O 0.65443 0.68603 0.33295 0.0
Zn81 Zn 0.6731 0.70705 0.33703 0.0
O82 O 0.67193 0.71855 0.36391 0.0
C83 C 0.66557 0.71771 0.29827 0.0
O84 O 0.65202 0.70599 0.30172 0.0
O85 O 0.69086 0.70454 0.34036 0.0
C86 C 0.66437 0.72499 0.36344 0.0
O87 O 0.65651 0.72332 0.34563 0.0
C88 C 0.64312 0.68033 0.34563 0.0
O89 O 0.64301 0.68843 0.36277 0.0
O90 O 0.6763 0.71999 0.31075 0.0
C91 C 0.33508 0.98072 0.35296 0.0
O92 O 0.33534 0.99331 0.35842 0.0
O93 O 0.30524 0.98781 0.35472 0.0
Zn94 Zn 0.3025 0.9669 0.35135 0.0
O95 O 0.29045 0.95581 0.32396 0.0
C96 C 0.28115 0.95573 0.38702 0.0
O97 O 0.27917 0.96676 0.38128 0.0
O98 O 0.32254 0.96841 0.34944 0.0
C99 C 0.278 0.95462 0.31981 0.0
O100 O 0.27323 0.96151 0.33311 0.0
C101 C 0.30786 0.99637 0.33847 0.0
O102 O 0.30882 0.99154 0.31852 0.0
O103 O 0.29091 0.95399 0.37702 0.0
C104 C 0.02868 0.36748 0.34567 0.0
O105 O 0.02118 0.35901 0.36241 0.0
O106 O 0.01751 0.32746 0.34645 0.0
Zn107 Zn 0.03813 0.34568 0.34066 0.0
O108 O 0.04739 0.34087 0.31475 0.0
C109 C 0.0486 0.34137 0.38243 0.0
O110 O 0.03536 0.3287 0.38229 0.0
O111 O 0.03669 0.36396 0.33407 0.0
C112 C 0.05229 0.33202 0.31744 0.0
O113 O 0.0506 0.32583 0.33672 0.0
C114 C 0.00849 0.31944 0.33082 0.0
O115 O 0.0126 0.3232 0.31029 0.0
O116 O 0.05197 0.35058 0.36682 0.0
C117 C 0.64 0.97492 0.3487 0.0
O118 O 0.64886 0.98292 0.36543 0.0
O119 O 0.67934 0.98645 0.348 0.0
Zn120 Zn 0.66123 0.96523 0.3431 0.0
O121 O 0.66497 0.95491 0.3172 0.0
C122 C 0.66694 0.95662 0.38539 0.0
O123 O 0.67917 0.97026 0.3851 0.0
O124 O 0.64306 0.96648 0.33687 0.0
C125 C 0.67365 0.94988 0.3197 0.0
O126 O 0.68015 0.95181 0.339 0.0
C127 C 0.6873 0.99428 0.33196 0.0
O128 O 0.68353 0.98851 0.31172 0.0
O129 O 0.65751 0.9523 0.36961 0.0
C130 C 1.00124 0.69897 0.3553 0.0
O131 O 0.00401 0.68955 0.36529 0.0
O132 O 0.02881 0.69025 0.33805 0.0
Zn133 Zn 0.03165 0.71124 0.34166 0.0
O134 O 0.04419 0.72224 0.36882 0.0
C135 C 0.05626 0.72641 0.31271 0.0
O136 O 0.0616 0.72077 0.32651 0.0
O137 O 0.01153 0.70947 0.34391 0.0
C138 C 0.05159 0.73675 0.37009 0.0
O139 O 0.05038 0.74433 0.35403 0.0
C140 C 0.03211 0.68409 0.35307 0.0
O141 O 0.03747 0.69148 0.37208 0.0
O142 O 0.04298 0.72356 0.31542 0.0
C143 C 0.31069 0.30742 0.32541 0.0
O144 O 0.31805 0.31687 0.3095 0.0
O145 O 0.31976 0.34635 0.32654 0.0
Zn146 Zn 0.29947 0.32752 0.33254 0.0
O147 O 0.28993 0.3311 0.35927 0.0
C148 C 0.28828 0.32896 0.28894 0.0
O149 O 0.30232 0.33939 0.28493 0.0
O150 O 0.30197 0.30967 0.33748 0.0
C151 C 0.2835 0.3386 0.35703 0.0
O152 O 0.2839 0.34429 0.33773 0.0
C153 C 0.32648 0.35756 0.34032 0.0
O154 O 0.32005 0.35718 0.35922 0.0
O155 O 0.28496 0.32236 0.30732 0.0
C156 C 0.36065 0.03009 0.66851 0.0
O157 O 0.34999 0.01976 0.65536 0.0
O158 O 0.32258 0.02107 0.66755 0.0
Zn159 Zn 0.34106 0.04223 0.67176 0.0
O160 O 0.33869 0.05358 0.6977 0.0
C161 C 0.33365 0.05249 0.63259 0.0
O162 O 0.32015 0.04073 0.63616 0.0
O163 O 0.35924 0.04071 0.67714 0.0
C164 C 0.32839 0.05665 0.69795 0.0
O165 O 0.31869 0.05164 0.6815 0.0
C166 C 0.31325 0.01415 0.68289 0.0
O167 O 0.31552 0.02085 0.70252 0.0
O168 O 0.34443 0.05495 0.64512 0.0
C169 C 0.99638 0.30156 0.66265 0.0
O170 O 0.98788 0.29935 0.64538 0.0
O171 O 0.97202 0.31806 0.68837 0.0
Zn172 Zn 0.9704 0.29762 0.68524 0.0
O173 O 0.95776 0.28544 0.65868 0.0
C174 C 0.95175 0.28723 0.72406 0.0
O175 O 0.94982 0.29851 0.71967 0.0
O176 O 0.99128 0.30129 0.68189 0.0
C177 C 0.9435 0.2778 0.65923 0.0
O178 O 0.9367 0.27822 0.67733 0.0
C179 C 0.96605 0.32276 0.67513 0.0
O180 O 0.95823 0.31402 0.65811 0.0
O181 O 0.96051 0.28503 0.71202 0.0
C182 C 0.70989 0.70826 0.67875 0.0
O183 O 0.72334 0.71149 0.68451 0.0
O184 O 0.68199 0.65777 0.68512 0.0
Zn185 Zn 0.70233 0.67675 0.68072 0.0
O186 O 0.71259 0.67371 0.65442 0.0
C187 C 0.71234 0.67104 0.72165 0.0
O188 O 0.69946 0.65801 0.71986 0.0
O189 O 0.69942 0.69436 0.67614 0.0
C190 C 0.71771 0.665 0.65641 0.0
O191 O 0.71566 0.658 0.67506 0.0
C192 C 0.67449 0.64797 0.66979 0.0
O193 O 0.68003 0.65005 0.64976 0.0
O194 O 0.71573 0.68107 0.70729 0.0
C195 C 0.30383 0.3077 0.67761 0.0
O196 O 0.31181 0.31412 0.69571 0.0
O197 O 0.34419 0.32244 0.6717 0.0
Zn198 Zn 0.32665 0.30059 0.66976 0.0
O199 O 0.32969 0.28885 0.64496 0.0
C200 C 0.33405 0.29514 0.71349 0.0
O201 O 0.3458 0.30901 0.71197 0.0
O202 O 0.30792 0.30094 0.66396 0.0
C203 C 0.33608 0.2815 0.64891 0.0
O204 O 0.34088 0.28196 0.66906 0.0
C205 C 0.35759 0.32633 0.66704 0.0
O206 O 0.36045 0.3158 0.66067 0.0
O207 O 0.32431 0.28965 0.69802 0.0
C208 C 0.66804 0.03251 0.67887 0.0
O209 O 0.66968 0.02149 0.68573 0.0
O210 O 0.69695 0.02512 0.66378 0.0
Zn211 Zn 0.69945 0.04595 0.66812 0.0
O212 O 0.71146 0.05648 0.69578 0.0
C213 C 0.71892 0.05604 0.63009 0.0
O214 O 0.71888 0.04345 0.63319 0.0
O215 O 0.67921 0.04412 0.67044 0.0
C216 C 0.72472 0.05918 0.69778 0.0
O217 O 0.7302 0.05449 0.68197 0.0
C218 C 0.69658 0.01706 0.67957 0.0
O219 O 0.69759 0.02216 0.70005 0.0
O220 O 0.71111 0.0593 0.64267 0.0
C221 C 0.9785 0.64475 0.68359 0.0
O222 O 0.9892 0.65821 0.6912 0.0
O223 O 0.98635 0.68093 0.66939 0.0
Zn224 Zn 0.96545 0.66231 0.67268 0.0
O225 O 0.95505 0.66419 0.69979 0.0
C226 C 0.95528 0.6713 0.6352 0.0
O227 O 0.96732 0.68466 0.63996 0.0
O228 O 0.96693 0.64354 0.67476 0.0
C229 C 0.95101 0.6739 0.70065 0.0
O230 O 0.95449 0.68324 0.68429 0.0
C231 C 0.9931 0.69173 0.68377 0.0
O232 O 0.98635 0.6913 0.70238 0.0
O233 O 0.95248 0.65989 0.64645 0.0
H234 H 0.1441 0.31338 0.13841 0.0
H235 H 0.14363 0.32537 0.07096 0.0
H236 H 0.12497 0.33999 0.1225 0.0
H237 H 0.14661 0.29879 0.10544 0.0
H238 H 0.15025 0.30682 0.07871 0.0
H239 H 0.16586 0.31147 0.13589 0.0
H240 H 0.21146 0.33844 0.11461 0.0
H241 H 0.17552 0.32625 0.06866 0.0
C242 C 0.14168 0.31938 0.12637 0.0
C243 C 0.13463 0.32724 0.13319 0.0
C244 C 0.14529 0.31893 0.104 0.0
C245 C 0.14137 0.32611 0.08832 0.0
C246 C 0.13415 0.33386 0.09496 0.0
C247 C 0.1311 0.33458 0.11743 0.0
C248 C 0.15218 0.30978 0.09671 0.0
C249 C 0.16879 0.31831 0.10187 0.0
C250 C 0.17387 0.31789 0.12315 0.0
C251 C 0.18927 0.32546 0.1279 0.0
C252 C 0.19959 0.33334 0.11119 0.0
C253 C 0.1948 0.33356 0.08972 0.0
C254 C 0.17934 0.32619 0.08521 0.0
H255 H 0.69204 0.83698 0.13321 0.0
H256 H 0.68624 0.82814 0.06268 0.0
H257 H 0.67086 0.79105 0.10673 0.0
H258 H 0.7086 0.85703 0.10408 0.0
H259 H 0.7017 0.85391 0.07639 0.0
H260 H 0.69478 0.86086 0.13512 0.0
H261 H 0.66837 0.87959 0.11694 0.0
H262 H 0.68229 0.85898 0.06694 0.0
C263 C 0.68771 0.82904 0.11915 0.0
C264 C 0.68063 0.81333 0.12261 0.0
C265 C 0.6895 0.83452 0.09758 0.0
C266 C 0.68442 0.82407 0.07939 0.0
C267 C 0.67781 0.80842 0.08278 0.0
C268 C 0.67572 0.80315 0.10431 0.0
C269 C 0.69814 0.8515 0.09392 0.0
C270 C 0.68915 0.85867 0.10038 0.0
C271 C 0.68876 0.86289 0.1226 0.0
C272 C 0.68092 0.87006 0.1287 0.0
C273 C 0.67366 0.87324 0.11233 0.0
C274 C 0.6742 0.86948 0.08997 0.0
C275 C 0.68177 0.86193 0.08414 0.0
H276 H 0.17029 0.81816 0.14227 0.0
H277 H 0.16509 0.80616 0.0727 0.0
H278 H 0.12631 0.7914 0.11342 0.0
H279 H 0.19046 0.81719 0.11921 0.0
H280 H 0.18916 0.81654 0.08981 0.0
H281 H 0.19395 0.84014 0.14113 0.0
H282 H 0.21929 0.88238 0.10774 0.0
H283 H 0.19898 0.83983 0.07045 0.0
C284 C 0.16318 0.8131 0.12778 0.0
C285 C 0.14754 0.80532 0.13012 0.0
C286 C 0.16965 0.81378 0.10701 0.0
C287 C 0.16024 0.80629 0.08855 0.0
C288 C 0.14456 0.79831 0.09074 0.0
C289 C 0.13838 0.79821 0.11144 0.0
C290 C 0.18641 0.82081 0.10514 0.0
C291 C 0.19477 0.83806 0.1056 0.0
C292 C 0.19778 0.84625 0.1259 0.0
C293 C 0.20664 0.86226 0.12679 0.0
C294 C 0.21221 0.87003 0.10706 0.0
C295 C 0.20974 0.86211 0.0867 0.0
C296 C 0.20078 0.84608 0.08603 0.0
H297 H 0.35452 0.19922 0.87178 0.0
H298 H 0.35798 0.20378 0.94279 0.0
H299 H 0.3362 0.2224 0.90706 0.0
H300 H 0.37405 0.19736 0.89302 0.0
H301 H 0.37315 0.19644 0.9224 0.0
H302 H 0.35045 0.1753 0.87068 0.0
H303 H 0.33861 0.13177 0.89494 0.0
H304 H 0.36368 0.17199 0.93654 0.0
C305 C 0.35171 0.20255 0.88735 0.0
C306 C 0.34396 0.21028 0.88723 0.0
C307 C 0.35644 0.19974 0.90737 0.0
C308 C 0.35375 0.20525 0.9274 0.0
C309 C 0.3464 0.21344 0.92745 0.0
C310 C 0.34123 0.21549 0.90733 0.0
C311 C 0.36613 0.19285 0.90711 0.0
C312 C 0.35709 0.1756 0.90458 0.0
C313 C 0.35 0.1685 0.88425 0.0
C314 C 0.34301 0.15265 0.8809 0.0
C315 C 0.34335 0.14392 0.89787 0.0
C316 C 0.35103 0.15082 0.91773 0.0
C317 C 0.35747 0.1666 0.92136 0.0
H318 H 0.85204 0.17025 0.89028 0.0
H319 H 0.8508 0.18128 0.95934 0.0
H320 H 0.87256 0.21699 0.91269 0.0
H321 H 0.84626 0.15129 0.9203 0.0
H322 H 0.84257 0.1553 0.94778 0.0
H323 H 0.8286 0.14881 0.88873 0.0
H324 H 0.78254 0.12763 0.90797 0.0
H325 H 0.81715 0.14643 0.95775 0.0
C326 C 0.85437 0.17857 0.90348 0.0
C327 C 0.86231 0.19414 0.89878 0.0
C328 C 0.84967 0.17375 0.92517 0.0
C329 C 0.85372 0.18479 0.94242 0.0
C330 C 0.8619 0.2004 0.93786 0.0
C331 C 0.86581 0.20491 0.91603 0.0
C332 C 0.84131 0.15693 0.93002 0.0
C333 C 0.82486 0.14915 0.9239 0.0
C334 C 0.82032 0.14583 0.90154 0.0
C335 C 0.80509 0.13837 0.89564 0.0
C336 C 0.79437 0.13408 0.91233 0.0
C337 C 0.79859 0.1368 0.93469 0.0
C338 C 0.81387 0.14445 0.94046 0.0
H339 H 0.83455 0.64991 0.86782 0.0
H340 H 0.83661 0.64421 0.93765 0.0
H341 H 0.87716 0.66804 0.90011 0.0
H342 H 0.81244 0.62977 0.88839 0.0
H343 H 0.81304 0.62935 0.9178 0.0
H344 H 0.81353 0.65274 0.87074 0.0
H345 H 0.78855 0.66848 0.90707 0.0
H346 H 0.80312 0.64182 0.93924 0.0
C347 C 0.84104 0.65225 0.88284 0.0
C348 C 0.85676 0.6602 0.88176 0.0
C349 C 0.83367 0.64677 0.90306 0.0
C350 C 0.84221 0.64901 0.92222 0.0
C351 C 0.85793 0.65682 0.92126 0.0
C352 C 0.86508 0.66267 0.90111 0.0
C353 C 0.81675 0.63715 0.90367 0.0
C354 C 0.80985 0.64688 0.90515 0.0
C355 C 0.80896 0.65398 0.88623 0.0
C356 C 0.80152 0.66204 0.88693 0.0
C357 C 0.79509 0.66307 0.90682 0.0
C358 C 0.79545 0.6557 0.92567 0.0
C359 C 0.80304 0.64778 0.92485 0.0
H360 H 0.81213 0.65082 0.47724 0.0
H361 H 0.81225 0.66323 0.40985 0.0
H362 H 0.79149 0.67588 0.4608 0.0
H363 H 0.81654 0.63746 0.44491 0.0
H364 H 0.81946 0.64506 0.41794 0.0
H365 H 0.83561 0.65276 0.47557 0.0
H366 H 0.88088 0.68095 0.45326 0.0
H367 H 0.84443 0.66395 0.4068 0.0
C368 C 0.80956 0.65665 0.46512 0.0
C369 C 0.80191 0.66393 0.47171 0.0
C370 C 0.81365 0.65664 0.44289 0.0
C371 C 0.80955 0.66361 0.4271 0.0
C372 C 0.80163 0.67069 0.43348 0.0
C373 C 0.79813 0.671 0.45586 0.0
C374 C 0.82141 0.64828 0.43587 0.0
C375 C 0.83804 0.65781 0.4408 0.0
C376 C 0.84341 0.65886 0.46246 0.0
C377 C 0.85885 0.66744 0.46714 0.0
C378 C 0.8689 0.67494 0.44998 0.0
C379 C 0.86384 0.67363 0.42823 0.0
C380 C 0.84837 0.66515 0.42367 0.0
H381 H 0.35757 0.17015 0.46612 0.0
H382 H 0.34824 0.15847 0.39668 0.0
H383 H 0.3311 0.12321 0.44435 0.0
H384 H 0.37392 0.18798 0.43528 0.0
H385 H 0.36653 0.18418 0.40781 0.0
H386 H 0.36179 0.19485 0.46578 0.0
H387 H 0.33948 0.21739 0.44484 0.0
H388 H 0.34905 0.19167 0.39734 0.0
C389 C 0.35191 0.16169 0.45291 0.0
C390 C 0.34357 0.14616 0.4579 0.0
C391 C 0.35335 0.16627 0.43089 0.0
C392 C 0.34667 0.15508 0.41375 0.0
C393 C 0.3385 0.13949 0.41853 0.0
C394 C 0.33678 0.13522 0.44064 0.0
C395 C 0.36331 0.18293 0.42554 0.0
C396 C 0.35589 0.19186 0.43104 0.0
C397 C 0.35631 0.19726 0.45286 0.0
C398 C 0.3504 0.20647 0.45786 0.0
C399 C 0.34381 0.21004 0.44098 0.0
C400 C 0.34323 0.20479 0.41913 0.0
C401 C 0.34925 0.19562 0.41423 0.0
H402 H 0.83621 0.15118 0.46662 0.0
H403 H 0.83216 0.13947 0.39702 0.0
H404 H 0.79274 0.12461 0.43636 0.0
H405 H 0.85595 0.14792 0.44314 0.0
H406 H 0.8559 0.15012 0.41412 0.0
H407 H 0.86142 0.1693 0.46964 0.0
H408 H 0.88951 0.21401 0.44432 0.0
H409 H 0.86618 0.17526 0.39929 0.0
C410 C 0.82937 0.14625 0.45186 0.0
C411 C 0.8137 0.13858 0.4536 0.0
C412 C 0.83617 0.14688 0.4314 0.0
C413 C 0.82704 0.13954 0.41263 0.0
C414 C 0.81131 0.13152 0.41423 0.0
C415 C 0.80483 0.13143 0.43468 0.0
C416 C 0.85287 0.15328 0.43023 0.0
C417 C 0.8621 0.17041 0.43401 0.0
C418 C 0.86561 0.17671 0.45568 0.0
C419 C 0.87542 0.19244 0.45943 0.0
C420 C 0.88159 0.20192 0.44134 0.0
C421 C 0.87844 0.19588 0.41958 0.0
C422 C 0.86849 0.18009 0.416 0.0
H423 H 0.02644 0.53621 0.20812 0.0
H424 H 0.03122 0.54095 0.27911 0.0
H425 H 0.01045 0.56113 0.24483 0.0
H426 H 0.04574 0.53342 0.22861 0.0
H427 H 0.04506 0.53228 0.25795 0.0
H428 H 0.02493 0.51215 0.20509 0.0
H429 H 0.00671 0.46785 0.23218 0.0
H430 H 0.03028 0.50794 0.27449 0.0
C431 C 0.02415 0.53986 0.22387 0.0
C432 C 0.01755 0.54872 0.22428 0.0
C433 C 0.02892 0.53677 0.24366 0.0
C434 C 0.02695 0.54264 0.26393 0.0
C435 C 0.02016 0.55135 0.26447 0.0
C436 C 0.01522 0.55398 0.24463 0.0
C437 C 0.03793 0.52914 0.24285 0.0
C438 C 0.02806 0.51198 0.24029 0.0
C439 C 0.02252 0.50509 0.21927 0.0
C440 C 0.01459 0.48913 0.21629 0.0
C441 C 0.01202 0.48011 0.23463 0.0
C442 C 0.01771 0.48675 0.25561 0.0
C443 C 0.02557 0.50272 0.25842 0.0
H444 H 0.51829 0.50478 0.21657 0.0
H445 H 0.52067 0.51623 0.28619 0.0
H446 H 0.53784 0.5515 0.23869 0.0
H447 H 0.5173 0.48736 0.24733 0.0
H448 H 0.51306 0.49066 0.2748 0.0
H449 H 0.49838 0.47931 0.21674 0.0
H450 H 0.45233 0.45609 0.23701 0.0
H451 H 0.48734 0.482 0.28497 0.0
C452 C 0.52094 0.51313 0.22985 0.0
C453 C 0.52791 0.52863 0.22492 0.0
C454 C 0.51786 0.50846 0.25189 0.0
C455 C 0.52229 0.51958 0.26911 0.0
C456 C 0.52932 0.5351 0.26431 0.0
C457 C 0.53176 0.53944 0.24225 0.0
C458 C 0.5113 0.49187 0.25706 0.0
C459 C 0.49477 0.4823 0.25134 0.0
C460 C 0.49011 0.47675 0.22947 0.0
C461 C 0.47482 0.4672 0.22421 0.0
C462 C 0.46418 0.46351 0.24088 0.0
C463 C 0.46861 0.46872 0.26272 0.0
C464 C 0.4839 0.47817 0.26797 0.0
H465 H 0.4996 0.98147 0.20317 0.0
H466 H 0.50353 0.97649 0.2727 0.0
H467 H 0.54289 0.99811 0.23245 0.0
H468 H 0.47811 0.9612 0.2254 0.0
H469 H 0.4794 0.96204 0.25481 0.0
H470 H 0.47825 0.98284 0.20555 0.0
H471 H 0.45404 0.99996 0.24067 0.0
H472 H 0.47066 0.97598 0.27542 0.0
C473 C 0.50652 0.9837 0.21765 0.0
C474 C 0.52216 0.99101 0.21539 0.0
C475 C 0.49971 0.97864 0.23833 0.0
C476 C 0.50871 0.98088 0.25689 0.0
C477 C 0.52434 0.98813 0.25486 0.0
C478 C 0.53094 0.99333 0.2342 0.0
C479 C 0.48281 0.96922 0.23998 0.0
C480 C 0.47595 0.97901 0.24063 0.0
C481 C 0.47421 0.9849 0.221 0.0
C482 C 0.46657 0.99276 0.22098 0.0
C483 C 0.46077 0.99478 0.24089 0.0
C484 C 0.46205 0.98867 0.26055 0.0
C485 C 0.46988 0.98099 0.2604 0.0
H486 H 0.48146 0.98753 0.80542 0.0
H487 H 0.48017 0.99763 0.73719 0.0
H488 H 0.46002 0.01156 0.78723 0.0
H489 H 0.48432 0.97252 0.77279 0.0
H490 H 0.48842 0.98061 0.74611 0.0
H491 H 0.50278 0.98506 0.80395 0.0
H492 H 0.54877 0.01396 0.78522 0.0
H493 H 0.51374 1.00084 0.73729 0.0
C494 C 0.47855 0.99287 0.79295 0.0
C495 C 0.47078 1.00012 0.79911 0.0
C496 C 0.48227 0.99218 0.7707 0.0
C497 C 0.4778 0.99854 0.75446 0.0
C498 C 0.46994 0.00574 0.76043 0.0
C499 C 0.46669 0.00663 0.78275 0.0
C500 C 0.48983 0.98353 0.76414 0.0
C501 C 0.50632 0.99249 0.7702 0.0
C502 C 0.511 0.99195 0.79172 0.0
C503 C 0.52631 0.99992 0.79733 0.0
C504 C 0.53692 0.00843 0.78126 0.0
C505 C 0.53253 0.00869 0.75957 0.0
C506 C 0.51719 1.00083 0.75412 0.0
H507 H 0.01799 0.4958 0.80026 0.0
H508 H 0.00473 0.48395 0.73177 0.0
H509 H 0.98907 0.44888 0.77954 0.0
H510 H 0.0318 0.51417 0.76941 0.0
H511 H 0.02378 0.50988 0.74224 0.0
H512 H 0.01795 0.51827 0.80125 0.0
H513 H 0.99299 0.53858 0.78283 0.0
H514 H 0.00683 0.51804 0.73276 0.0
C515 C 0.01149 0.48734 0.78739 0.0
C516 C 0.00305 0.47187 0.79261 0.0
C517 C 0.01175 0.49189 0.7656 0.0
C518 C 0.00404 0.48066 0.74878 0.0
C519 C 0.99579 0.46515 0.75384 0.0
C520 C 0.99504 0.46091 0.7758 0.0
C521 C 0.02098 0.50858 0.76013 0.0
C522 C 0.01283 0.51668 0.76638 0.0
C523 C 0.01236 0.52078 0.78866 0.0
C524 C 0.00493 0.52839 0.79474 0.0
C525 C 0.99808 0.53201 0.77833 0.0
C526 C 0.99883 0.5285 0.75597 0.0
C527 C 0.00611 0.52069 0.75004 0.0
H528 H 0.49837 0.48066 0.80891 0.0
H529 H 0.49642 0.47296 0.73831 0.0
H530 H 0.45586 0.45683 0.77528 0.0
H531 H 0.51955 0.48127 0.78744 0.0
H532 H 0.51945 0.48136 0.75797 0.0
H533 H 0.52104 0.50374 0.8095 0.0
H534 H 0.54954 0.5468 0.77966 0.0
H535 H 0.53124 0.50528 0.74015 0.0
C536 C 0.49197 0.47669 0.79362 0.0
C537 C 0.47627 0.46922 0.79434 0.0
C538 C 0.49938 0.47845 0.77339 0.0
C539 C 0.49086 0.47228 0.75381 0.0
C540 C 0.47512 0.46456 0.75437 0.0
C541 C 0.46801 0.46345 0.7746 0.0
C542 C 0.51616 0.48532 0.77309 0.0
C543 C 0.52464 0.50256 0.77446 0.0
C544 C 0.5262 0.51022 0.79487 0.0
C545 C 0.53487 0.5262 0.79669 0.0
C546 C 0.54209 0.53452 0.77792 0.0
C547 C 0.54101 0.52713 0.75749 0.0
C548 C 0.53204 0.51111 0.75578 0.0
H549 H 0.68994 0.86322 0.54192 0.0
H550 H 0.70058 0.87715 0.6105 0.0
H551 H 0.67133 0.88691 0.57536 0.0
H552 H 0.71426 0.86827 0.56181 0.0
H553 H 0.71406 0.86767 0.59119 0.0
H554 H 0.69722 0.84511 0.53868 0.0
H555 H 0.68248 0.80239 0.56882 0.0
H556 H 0.70044 0.84338 0.6094 0.0
C557 C 0.68824 0.86803 0.557 0.0
C558 C 0.67924 0.87443 0.5565 0.0
C559 C 0.69568 0.86858 0.57658 0.0
C560 C 0.69425 0.87589 0.59568 0.0
C561 C 0.68529 0.88232 0.59534 0.0
C562 C 0.67755 0.88119 0.57591 0.0
C563 C 0.70671 0.8633 0.57623 0.0
C564 C 0.69899 0.84611 0.57437 0.0
C565 C 0.69496 0.83859 0.55344 0.0
C566 C 0.68906 0.82282 0.55139 0.0
C567 C 0.68675 0.81453 0.57045 0.0
C568 C 0.69086 0.82181 0.59138 0.0
C569 C 0.69691 0.83763 0.59331 0.0
H570 H 0.18458 0.84028 0.55673 0.0
H571 H 0.18719 0.85111 0.62659 0.0
H572 H 0.2056 0.88695 0.57991 0.0
H573 H 0.18196 0.82183 0.58622 0.0
H574 H 0.179 0.82541 0.61429 0.0
H575 H 0.1625 0.81696 0.55677 0.0
H576 H 0.11723 0.79417 0.58028 0.0
H577 H 0.15386 0.81629 0.62675 0.0
C578 C 0.18748 0.84856 0.5702 0.0
C579 C 0.19495 0.86414 0.56562 0.0
C580 C 0.18418 0.84367 0.59212 0.0
C581 C 0.18897 0.85465 0.60959 0.0
C582 C 0.19656 0.87026 0.60513 0.0
C583 C 0.19917 0.87485 0.58319 0.0
C584 C 0.17686 0.82691 0.59686 0.0
C585 C 0.16016 0.81827 0.59223 0.0
C586 C 0.15473 0.81405 0.57033 0.0
C587 C 0.13926 0.80532 0.56593 0.0
C588 C 0.12921 0.80105 0.58354 0.0
C589 C 0.13438 0.80491 0.60541 0.0
C590 C 0.14986 0.81356 0.60978 0.0
H591 H 0.17119 0.31671 0.52532 0.0
H592 H 0.16963 0.31125 0.59577 0.0
H593 H 0.21197 0.33359 0.56247 0.0
H594 H 0.14774 0.29813 0.54358 0.0
H595 H 0.14705 0.29634 0.57286 0.0
H596 H 0.14993 0.32178 0.52742 0.0
H597 H 0.12595 0.33847 0.56454 0.0
H598 H 0.13826 0.30955 0.59526 0.0
C599 C 0.17695 0.31894 0.54105 0.0
C600 C 0.19261 0.32592 0.54158 0.0
C601 C 0.16857 0.31381 0.5606 0.0
C602 C 0.17603 0.31577 0.5808 0.0
C603 C 0.19172 0.32304 0.58153 0.0
C604 C 0.19988 0.32836 0.56198 0.0
C605 C 0.15166 0.30479 0.55952 0.0
C606 C 0.14545 0.31511 0.56144 0.0
C607 C 0.14526 0.32292 0.5429 0.0
C608 C 0.13837 0.33152 0.54395 0.0
C609 C 0.13202 0.33257 0.56394 0.0
C610 C 0.13183 0.32461 0.58241 0.0
C611 C 0.1387 0.31601 0.58118 0.0
H612 H 0.98987 0.38852 0.06501 0.0
H613 H 0.9871 0.40449 0.09316 0.0
H614 H 0.02782 0.44401 0.07084 0.0
H615 H 0.03053 0.42825 0.04246 0.0
H616 H 0.00636 0.42105 0.12695 0.0
H617 H 0.99945 0.45967 0.07352 0.0
H618 H 0.99771 0.44218 0.06305 0.0
H619 H 0.01594 0.45913 0.06718 0.0
C620 C 0.99818 0.40063 0.06601 0.0
C621 C 0.01041 0.40712 0.05147 0.0
C622 C 0.99656 0.40974 0.08206 0.0
C623 C 0.00708 0.42549 0.08381 0.0
C624 C 0.01933 0.43197 0.0694 0.0
H625 H 0.03255 0.49777 0.17993 0.0
H626 H 0.02875 0.4824 0.14615 0.0
C627 C 0.02094 0.42289 0.05331 0.0
C628 C 0.00585 0.43499 0.10164 0.0
H629 H 0.00525 0.46755 0.11171 0.0
C630 C 0.00589 0.43109 0.12362 0.0
C631 C 0.00528 0.44811 0.09723 0.0
C632 C 0.00444 0.45246 0.07396 0.0
C633 C 0.00595 0.44025 0.14133 0.0
C634 C 0.00572 0.45354 0.13693 0.0
C635 C 0.0054 0.45733 0.11498 0.0
C636 C 0.00665 0.464 0.15509 0.0
C637 C 0.00682 0.43593 0.16464 0.0
C638 C 0.99516 0.45906 0.1707 0.0
C639 C 0.99727 0.46785 0.18996 0.0
C640 C 0.0109 0.48172 0.19387 0.0
C641 C 0.02189 0.48721 0.17733 0.0
C642 C 0.01977 0.4784 0.15807 0.0
H643 H 0.00983 0.42707 0.16503 0.0
H644 H 0.01522 0.44608 0.17458 0.0
H645 H 0.99574 0.43132 0.17263 0.0
H646 H 0.98486 0.44808 0.16849 0.0
H647 H 0.98854 0.46343 0.20231 0.0
H648 H 0.61575 0.59943 0.0632 0.0
H649 H 0.59909 0.57994 0.08905 0.0
H650 H 0.57652 0.60436 0.10221 0.0
H651 H 0.59297 0.62379 0.07628 0.0
H652 H 0.59501 0.58357 0.13385 0.0
H653 H 0.54174 0.56095 0.08731 0.0
H654 H 0.55989 0.57277 0.0749 0.0
H655 H 0.55183 0.58129 0.09188 0.0
C656 C 0.60724 0.60065 0.07158 0.0
C657 C 0.60565 0.61314 0.06761 0.0
C658 C 0.59771 0.58949 0.0863 0.0
C659 C 0.58637 0.59055 0.09718 0.0
C660 C 0.58495 0.60313 0.09356 0.0
H661 H 0.52541 0.55 0.20309 0.0
H662 H 0.53873 0.56299 0.16968 0.0
C663 C 0.59446 0.6143 0.07887 0.0
C664 C 0.57642 0.57885 0.11303 0.0
H665 H 0.53961 0.55379 0.12501 0.0
C666 C 0.58291 0.57688 0.13179 0.0
C667 C 0.56064 0.57016 0.11025 0.0
C668 C 0.5531 0.57126 0.08989 0.0
C669 C 0.57401 0.56695 0.14837 0.0
C670 C 0.55821 0.55855 0.14587 0.0
C671 C 0.55172 0.56021 0.12682 0.0
C672 C 0.54828 0.54898 0.16374 0.0
C673 C 0.58158 0.56606 0.16888 0.0
C674 C 0.54867 0.53633 0.17082 0.0
C675 C 0.5411 0.52892 0.18995 0.0
C676 C 0.53301 0.53404 0.20224 0.0
C677 C 0.5317 0.54594 0.19409 0.0
C678 C 0.53927 0.55333 0.17499 0.0
H679 H 0.59353 0.57545 0.17012 0.0
H680 H 0.57569 0.56652 0.18398 0.0
H681 H 0.58117 0.55506 0.16849 0.0
H682 H 0.55537 0.53265 0.16211 0.0
H683 H 0.54238 0.51984 0.19587 0.0
H684 H 0.40772 0.0247 0.05877 0.0
H685 H 0.42531 0.02607 0.08651 0.0
H686 H 0.39266 0.98039 0.10588 0.0
H687 H 0.37498 0.9789 0.07834 0.0
H688 H 0.40667 0.00233 0.14153 0.0
H689 H 0.44792 0.0027 0.08245 0.0
H690 H 0.44277 0.01662 0.07836 0.0
H691 H 0.42899 0.99668 0.07434 0.0
C692 C 0.40426 0.01495 0.06898 0.0
C693 C 0.38996 0.00166 0.06631 0.0
C694 C 0.41436 0.01573 0.0847 0.0
C695 C 0.41034 0.00325 0.09798 0.0
C696 C 0.39599 0.99011 0.09567 0.0
H697 H 0.45591 0.97548 0.18274 0.0
H698 H 0.44432 0.98005 0.15146 0.0
C699 C 0.38591 0.98928 0.07993 0.0
C700 C 0.42093 0.00388 0.11461 0.0
H701 H 0.4538 0.00475 0.12049 0.0
C702 C 0.41703 0.00297 0.13698 0.0
C703 C 0.43435 0.00458 0.10851 0.0
C704 C 0.43878 0.00509 0.08461 0.0
C705 C 0.42614 0.0026 0.15346 0.0
C706 C 0.4396 0.00336 0.1474 0.0
C707 C 0.44356 0.00436 0.12504 0.0
C708 C 0.44907 0.00206 0.16409 0.0
C709 C 0.42104 1.0009 0.17719 0.0
C710 C 0.45619 0.01328 0.18096 0.0
C711 C 0.46289 0.01074 0.1988 0.0
C712 C 0.46259 0.99695 0.20002 0.0
C713 C 0.45645 0.98627 0.18222 0.0
C714 C 0.44975 0.98882 0.16438 0.0
H715 H 0.40911 0.99757 0.17853 0.0
H716 H 0.42245 0.99221 0.18533 0.0
H717 H 0.42801 0.01195 0.18638 0.0
H718 H 0.45596 0.02368 0.18083 0.0
H719 H 0.46771 0.01925 0.21216 0.0
H720 H 0.39875 0.01789 0.95093 0.0
H721 H 0.41516 0.01713 0.92248 0.0
H722 H 0.40516 0.97342 0.94475 0.0
H723 H 0.38875 0.97405 0.9733 0.0
H724 H 0.44112 0.01314 0.93103 0.0
H725 H 0.39649 0.96804 0.87595 0.0
H726 H 0.39278 0.97917 0.89572 0.0
H727 H 0.39545 0.96437 0.90499 0.0
C728 C 0.39995 0.00806 0.9497 0.0
C729 C 0.39241 0.99601 0.96436 0.0
C730 C 0.40937 0.00768 0.9335 0.0
C731 C 0.41129 0.9952 0.93152 0.0
C732 C 0.40371 0.98309 0.94595 0.0
H733 H 0.4576 0.97593 0.82664 0.0
H734 H 0.44501 0.97437 0.86168 0.0
C735 C 0.39435 0.98349 0.96225 0.0
C736 C 0.4214 0.99498 0.91448 0.0
H737 H 0.42149 0.97815 0.86505 0.0
C738 C 0.43688 0.00545 0.91664 0.0
C739 C 0.4158 0.9848 0.89592 0.0
C740 C 0.39922 0.97348 0.89279 0.0
C741 C 0.44693 0.00617 0.90049 0.0
C742 C 0.44128 0.99639 0.88146 0.0
C743 C 0.42582 0.98562 0.87966 0.0
C744 C 0.45092 0.99793 0.86235 0.0
C745 C 0.4635 0.01735 0.90404 0.0
C746 C 0.45873 0.01178 0.85139 0.0
C747 C 0.46605 0.01274 0.83156 0.0
C748 C 0.46554 0.99981 0.8221 0.0
C749 C 0.45834 0.98613 0.83363 0.0
C750 C 0.45104 0.98519 0.85355 0.0
H751 H 0.46633 0.01986 0.92193 0.0
H752 H 0.4703 0.01297 0.89655 0.0
H753 H 0.46668 0.02826 0.89627 0.0
H754 H 0.45855 0.02168 0.85756 0.0
H755 H 0.47159 0.02346 0.82312 0.0
H756 H 0.9753 0.38637 0.95427 0.0
H757 H 0.97813 0.40354 0.9251 0.0
H758 H 0.02591 0.42237 0.92486 0.0
H759 H 0.02312 0.40492 0.95363 0.0
H760 H 0.99374 0.43449 0.92553 0.0
H761 H 0.01573 0.41251 0.86 0.0
H762 H 0.0076 0.40248 0.8851 0.0
H763 H 0.02658 0.41854 0.88512 0.0
C764 C 0.9864 0.39406 0.94788 0.0
C765 C 0.99897 0.3942 0.95616 0.0
C766 C 0.988 0.4039 0.93125 0.0
C767 C 0.0022 0.41411 0.92259 0.0
C768 C 0.0148 0.41435 0.93092 0.0
H769 H 0.02779 0.47967 0.81753 0.0
H770 H 0.02864 0.46765 0.85142 0.0
C771 C 0.01319 0.4044 0.94742 0.0
C772 C 0.00375 0.42466 0.90517 0.0
H773 H 0.01513 0.43452 0.85202 0.0
C774 C 0.99844 0.43451 0.90947 0.0
C775 C 0.00992 0.4247 0.88423 0.0
C776 C 0.01516 0.41391 0.8782 0.0
C777 C 0.99902 0.44431 0.89334 0.0
C778 C 0.00502 0.4442 0.87238 0.0
C779 C 0.01064 0.43463 0.86821 0.0
C780 C 0.00454 0.45302 0.85393 0.0
C781 C 0.99318 0.45466 0.89875 0.0
C782 C 0.9907 0.44893 0.84441 0.0
C783 C 0.9902 0.4557 0.82509 0.0
C784 C 0.00353 0.46673 0.815 0.0
C785 C 0.01736 0.47135 0.82514 0.0
C786 C 0.01786 0.46444 0.84438 0.0
H787 H 0.99231 0.45608 0.91687 0.0
H788 H 1.00056 0.46609 0.89172 0.0
H789 H 0.98183 0.44966 0.89134 0.0
H790 H 0.98031 0.43999 0.85137 0.0
H791 H 0.9794 0.45194 0.81756 0.0
H792 H 0.61913 0.60992 0.95079 0.0
H793 H 0.60354 0.59353 0.91989 0.0
H794 H 0.56646 0.59695 0.94396 0.0
H795 H 0.58191 0.61322 0.97511 0.0
H796 H 0.55858 0.567 0.9326 0.0
H797 H 0.59045 0.60666 0.86563 0.0
H798 H 0.60191 0.60328 0.88353 0.0
H799 H 0.59277 0.6128 0.89437 0.0
C800 C 0.60769 0.60728 0.94946 0.0
C801 C 0.60178 0.61293 0.96537 0.0
C802 C 0.59881 0.59796 0.93174 0.0
C803 C 0.58391 0.5942 0.92951 0.0
C804 C 0.57796 0.59978 0.94536 0.0
H805 H 0.53435 0.55194 0.80705 0.0
H806 H 0.54391 0.56791 0.84088 0.0
C807 C 0.58682 0.6091 0.9631 0.0
C808 C 0.57447 0.58416 0.91088 0.0
H809 H 0.57274 0.58086 0.8546 0.0
C810 C 0.56157 0.57006 0.91552 0.0
C811 C 0.57828 0.5883 0.88866 0.0
C812 C 0.59152 0.60365 0.88269 0.0
C813 C 0.55267 0.55974 0.89846 0.0
C814 C 0.55692 0.56357 0.87625 0.0
C815 C 0.56953 0.57789 0.87165 0.0
C816 C 0.54892 0.55275 0.85743 0.0
C817 C 0.53879 0.54486 0.90438 0.0
C818 C 0.54823 0.53876 0.85574 0.0
C819 C 0.54272 0.52959 0.83647 0.0
C820 C 0.53798 0.53437 0.81847 0.0
C821 C 0.53802 0.54803 0.82062 0.0
C822 C 0.54346 0.55715 0.83992 0.0
H823 H 0.53461 0.54567 0.921 0.0
H824 H 0.52967 0.54133 0.89205 0.0
H825 H 0.54154 0.53582 0.9047 0.0
H826 H 0.55269 0.5353 0.86883 0.0
H827 H 0.54305 0.51925 0.83515 0.0
H828 H 0.01446 0.59537 0.98543 0.0
H829 H 0.01666 0.57994 0.95582 0.0
H830 H 0.99838 0.59691 0.90921 0.0
H831 H 0.99624 0.6125 0.93867 0.0
H832 H 0.99344 0.557 0.92915 0.0
H833 H 0.03686 0.60388 0.87917 0.0
H834 H 0.03307 0.6068 0.90748 0.0
H835 H 0.02106 0.60569 0.88553 0.0
C836 C 0.011 0.59592 0.96885 0.0
C837 C 0.00521 0.6052 0.96438 0.0
C838 C 0.01225 0.58707 0.95198 0.0
C839 C 0.00785 0.58743 0.93032 0.0
C840 C 0.00209 0.59669 0.92577 0.0
H841 H 0.98172 0.52622 0.81865 0.0
H842 H 0.98326 0.53929 0.85388 0.0
C843 C 1.00081 0.60553 0.94264 0.0
C844 C 0.00878 0.57771 0.91261 0.0
H845 H 0.02381 0.57902 0.86187 0.0
C846 C 1.00019 0.56179 0.91452 0.0
C847 C 0.01778 0.58402 0.89376 0.0
C848 C 0.02784 0.60104 0.89138 0.0
C849 C 0.99989 0.55198 0.89759 0.0
C850 C 0.00826 0.55829 0.87821 0.0
C851 C 0.01733 0.57421 0.87672 0.0
C852 C 0.00704 0.54869 0.85863 0.0
C853 C 0.99054 0.53497 0.90053 0.0
C854 C 0.01987 0.54955 0.8497 0.0
C855 C 0.01903 0.54213 0.8295 0.0
C856 C 0.00536 0.5339 0.81781 0.0
C857 C 0.9924 0.53253 0.82729 0.0
C858 C 0.99325 0.53989 0.84748 0.0
H859 H 0.98863 0.53216 0.91829 0.0
H860 H 0.97944 0.53035 0.89249 0.0
H861 H 0.99597 0.52916 0.89279 0.0
H862 H 0.03064 0.55638 0.858 0.0
H863 H 0.02922 0.54354 0.82247 0.0
H864 H 0.39165 0.37661 0.93262 0.0
H865 H 0.40869 0.3944 0.90537 0.0
H866 H 0.40184 0.42947 0.93278 0.0
H867 H 0.38483 0.41178 0.96031 0.0
H868 H 0.40307 0.41037 0.87364 0.0
H869 H 0.44804 0.44961 0.93329 0.0
H870 H 0.43319 0.43067 0.94035 0.0
H871 H 0.42955 0.44585 0.93917 0.0
C872 C 0.39371 0.38809 0.93285 0.0
C873 C 0.38693 0.39279 0.94871 0.0
C874 C 0.40346 0.39823 0.91727 0.0
C875 C 0.40669 0.4133 0.9173 0.0
C876 C 0.3997 0.41797 0.93275 0.0
H877 H 0.45227 0.47166 0.80578 0.0
H878 H 0.43564 0.46013 0.83735 0.0
C879 C 0.3899 0.4078 0.94835 0.0
C880 C 0.41732 0.42399 0.90096 0.0
H881 H 0.45196 0.4562 0.89574 0.0
C882 C 0.41371 0.42046 0.87844 0.0
C883 C 0.43124 0.43704 0.90735 0.0
C884 C 0.43587 0.44103 0.93134 0.0
C885 C 0.42373 0.42954 0.86208 0.0
C886 C 0.43763 0.44264 0.86844 0.0
C887 C 0.44121 0.44625 0.89097 0.0
C888 C 0.44893 0.45203 0.85178 0.0
C889 C 0.41957 0.42473 0.8381 0.0
C890 C 0.46231 0.45203 0.8502 0.0
C891 C 0.47186 0.45866 0.83226 0.0
C892 C 0.46814 0.46539 0.81564 0.0
C893 C 0.4553 0.46638 0.81821 0.0
C894 C 0.4458 0.45979 0.83618 0.0
H895 H 0.40992 0.4128 0.83617 0.0
H896 H 0.4164 0.43234 0.83051 0.0
H897 H 0.42923 0.42573 0.82881 0.0
H898 H 0.46493 0.44612 0.86213 0.0
H899 H 0.48158 0.4576 0.83065 0.0
H900 H 0.62521 0.01307 0.92465 0.0
H901 H 0.60631 0.01107 0.89892 0.0
H902 H 0.57124 0.97566 0.93756 0.0
H903 H 0.59003 0.97754 0.96341 0.0
H904 H 0.58291 0.98379 0.87433 0.0
H905 H 0.56063 0.00973 0.9332 0.0
H906 H 0.57881 0.01201 0.93685 0.0
H907 H 0.56211 0.99422 0.94293 0.0
C908 C 0.61349 0.00479 0.92762 0.0
C909 C 0.60913 0.99551 0.94613 0.0
C910 C 0.60272 0.00366 0.9129 0.0
C911 C 0.58741 0.99336 0.91654 0.0
C912 C 0.58301 0.98381 0.93466 0.0
H913 H 0.51811 0.97343 0.81786 0.0
H914 H 0.531 0.97043 0.84915 0.0
C915 C 0.59378 0.98486 0.94932 0.0
C916 C 0.57608 0.99277 0.90142 0.0
H917 H 0.54935 0.00217 0.89782 0.0
C918 C 0.57546 0.98766 0.87948 0.0
C919 C 0.56648 0.99794 0.90824 0.0
C920 C 0.56702 0.0039 0.93154 0.0
C921 C 0.56559 0.98774 0.86404 0.0
C922 C 0.55606 0.993 0.87081 0.0
C923 C 0.55656 0.99798 0.89281 0.0
C924 C 0.54652 0.99466 0.85467 0.0
C925 C 0.56579 0.98273 0.84039 0.0
C926 C 0.55055 0.00929 0.8482 0.0
C927 C 0.54322 0.01103 0.83044 0.0
C928 C 0.53166 0.99816 0.81897 0.0
C929 C 0.5269 0.98354 0.82653 0.0
C930 C 0.53432 0.9818 0.84424 0.0
H931 H 0.57535 0.98112 0.83717 0.0
H932 H 0.55522 0.97172 0.83669 0.0
H933 H 0.56648 0.99124 0.82886 0.0
H934 H 0.55991 0.01934 0.85611 0.0
H935 H 0.54705 0.02242 0.82498 0.0
H936 H 0.61336 0.99698 0.07329 0.0
H937 H 0.5973 0.99675 0.1031 0.0
H938 H 0.57312 0.0072 0.05677 0.0
H939 H 0.58942 0.00794 0.02705 0.0
H940 H 0.57806 0.02318 0.09486 0.0
H941 H 0.55484 0.96236 0.11254 0.0
H942 H 0.5749 0.97353 0.11506 0.0
H943 H 0.56613 0.97117 0.08856 0.0
C944 C 0.60466 0.99929 0.06947 0.0
C945 C 0.60258 0.00235 0.04778 0.0
C946 C 0.59542 0.99905 0.08649 0.0
C947 C 0.58377 0.00159 0.08206 0.0
C948 C 0.58197 0.00511 0.06055 0.0
H949 H 0.51165 0.97393 0.17674 0.0
H950 H 0.52527 0.97769 0.14228 0.0
C951 C 0.59131 0.00551 0.04358 0.0
C952 C 0.57335 1.00044 0.09977 0.0
H953 H 0.54961 0.97666 0.13882 0.0
C954 C 0.57174 0.01297 0.10438 0.0
C955 C 0.56484 0.98699 0.11184 0.0
C956 C 0.56512 0.9727 0.10661 0.0
C957 C 0.5622 0.01259 0.12118 0.0
C958 C 0.55437 0.99945 0.1341 0.0
C959 C 0.55568 0.98678 0.12905 0.0
C960 C 0.54521 0.99868 0.15349 0.0
C961 C 0.56051 0.02618 0.12471 0.0
C962 C 0.55169 0.00946 0.17105 0.0
C963 C 0.54378 0.00753 0.19062 0.0
C964 C 0.52935 0.99458 0.19326 0.0
C965 C 0.52263 0.98415 0.17526 0.0
C966 C 0.53048 0.9862 0.15558 0.0
H967 H 0.56275 0.03257 0.10926 0.0
H968 H 0.54908 0.0227 0.13051 0.0
H969 H 0.56878 0.0341 0.13735 0.0
H970 H 0.56313 0.01902 0.17007 0.0
H971 H 0.54922 0.01588 0.20404 0.0
H972 H 0.98405 0.59531 0.0478 0.0
H973 H 0.98421 0.57877 0.07581 0.0
H974 H 0.01058 0.61802 0.11918 0.0
H975 H 0.01045 0.63466 0.09138 0.0
H976 H 0.01019 0.58077 0.0941 0.0
H977 H 0.97593 0.58755 0.15848 0.0
H978 H 0.97593 0.59236 0.13004 0.0
H979 H 0.9909 0.60537 0.1485 0.0
C980 C 0.98973 0.60042 0.06342 0.0
C981 C 0.99721 0.61632 0.0674 0.0
C982 C 0.98983 0.59094 0.07935 0.0
C983 C 0.99726 0.59716 0.09961 0.0
C984 C 0.00456 0.61298 0.10376 0.0
H985 H 0.02708 0.57797 0.21512 0.0
H986 H 0.02083 0.58744 0.18315 0.0
C987 C 0.00453 0.62248 0.08782 0.0
C988 C 0.99807 0.58729 0.11611 0.0
H989 H 0.99089 0.57765 0.17014 0.0
C990 C 0.00577 0.57984 0.11064 0.0
C991 C 0.99217 0.58603 0.13756 0.0
C992 C 0.98314 0.59313 0.14398 0.0
C993 C 0.00854 0.57194 0.12655 0.0
C994 C 0.0033 0.57137 0.14831 0.0
C995 C 0.99495 0.57817 0.15343 0.0
C996 C 0.00766 0.56528 0.16667 0.0
C997 C 0.01772 0.56498 0.12034 0.0
C998 C 0.00252 0.54966 0.16781 0.0
C999 C 0.00611 0.54418 0.1862 0.0
C1000 C 0.01472 0.55425 0.20369 0.0
C1001 C 0.02019 0.56991 0.20206 0.0
C1002 C 0.01667 0.57534 0.18379 0.0
H1003 H 0.02265 0.56822 0.10361 0.0
H1004 H 0.02692 0.56859 0.13255 0.0
H1005 H 0.01047 0.55236 0.12054 0.0
H1006 H 0.99544 0.5417 0.15481 0.0
H1007 H 0.00176 0.53207 0.18712 0.0
H1008 H 0.38288 0.39736 0.07223 0.0
H1009 H 0.40098 0.41267 0.10154 0.0
H1010 H 0.43694 0.41678 0.06096 0.0
H1011 H 0.41889 0.40125 0.03167 0.0
H1012 H 0.43878 0.40949 0.10321 0.0
H1013 H 0.43072 0.45851 0.10374 0.0
H1014 H 0.41339 0.44068 0.10686 0.0
H1015 H 0.42379 0.44419 0.08162 0.0
C1016 C 0.39464 0.40154 0.0695 0.0
C1017 C 0.39944 0.39813 0.04958 0.0
C1018 C 0.40499 0.4104 0.08621 0.0
C1019 C 0.42035 0.41613 0.08324 0.0
C1020 C 0.42516 0.41258 0.0635 0.0
H1021 H 0.48327 0.48128 0.18438 0.0
H1022 H 0.47269 0.46981 0.14769 0.0
C1023 C 0.41481 0.40368 0.04681 0.0
C1024 C 0.43127 0.42531 0.10112 0.0
H1025 H 0.44288 0.45642 0.13573 0.0
C1026 C 0.43984 0.41987 0.11012 0.0
C1027 C 0.43291 0.43904 0.10982 0.0
C1028 C 0.42483 0.44605 0.09986 0.0
C1029 C 0.44934 0.42731 0.12842 0.0
C1030 C 0.45008 0.44037 0.13816 0.0
C1031 C 0.44219 0.44632 0.12837 0.0
C1032 C 0.45771 0.44712 0.15967 0.0
C1033 C 0.45832 0.42098 0.13733 0.0
C1034 C 0.45284 0.43815 0.17843 0.0
C1035 C 0.45883 0.44462 0.19921 0.0
C1036 C 0.46972 0.46026 0.20172 0.0
C1037 C 0.47494 0.46919 0.18286 0.0
C1038 C 0.46888 0.46268 0.16198 0.0
H1039 H 0.46055 0.41463 0.12421 0.0
H1040 H 0.46919 0.43018 0.1445 0.0
H1041 H 0.45183 0.41287 0.1505 0.0
H1042 H 0.44404 0.42621 0.17713 0.0
H1043 H 0.45471 0.43743 0.21343 0.0
H1044 H 0.68038 0.7318 0.40197 0.0
H1045 H 0.68334 0.75005 0.43138 0.0
H1046 H 0.65395 0.75992 0.39614 0.0
H1047 H 0.65078 0.74157 0.36671 0.0
H1048 H 0.69486 0.7816 0.42586 0.0
H1049 H 0.63686 0.75176 0.45932 0.0
H1050 H 0.64371 0.74208 0.44208 0.0
H1051 H 0.63855 0.7544 0.42998 0.0
C1052 C 0.67441 0.73772 0.40056 0.0
C1053 C 0.66534 0.73522 0.38199 0.0
C1054 C 0.67614 0.74816 0.41736 0.0
C1055 C 0.66877 0.75624 0.41599 0.0
C1056 C 0.65954 0.75363 0.39766 0.0
H1057 H 0.67333 0.8233 0.51566 0.0
H1058 H 0.66845 0.80886 0.48025 0.0
C1059 C 0.6578 0.74318 0.38083 0.0
C1060 C 0.67134 0.76783 0.43339 0.0
H1061 H 0.65435 0.77573 0.47568 0.0
C1062 C 0.68598 0.78037 0.43666 0.0
C1063 C 0.65969 0.76629 0.44726 0.0
C1064 C 0.64382 0.75287 0.44469 0.0
C1065 C 0.68938 0.7912 0.45384 0.0
C1066 C 0.67789 0.78931 0.46829 0.0
C1067 C 0.66312 0.77714 0.46449 0.0
C1068 C 0.68131 0.79875 0.48887 0.0
C1069 C 0.70532 0.80445 0.45662 0.0
C1070 C 0.69009 0.79778 0.5053 0.0
C1071 C 0.69279 0.80587 0.52533 0.0
C1072 C 0.68673 0.81508 0.52943 0.0
C1073 C 0.67816 0.81631 0.51283 0.0
C1074 C 0.67534 0.80806 0.49272 0.0
H1075 H 0.71163 0.80682 0.44091 0.0
H1076 H 0.70563 0.81496 0.46248 0.0
H1077 H 0.71115 0.80166 0.4691 0.0
H1078 H 0.69462 0.7905 0.50276 0.0
H1079 H 0.69957 0.80484 0.53775 0.0
H1080 H 0.28105 0.93062 0.40085 0.0
H1081 H 0.2644 0.91221 0.42787 0.0
H1082 H 0.2429 0.93792 0.43871 0.0
H1083 H 0.25932 0.95625 0.4115 0.0
H1084 H 0.26121 0.91728 0.47192 0.0
H1085 H 0.20724 0.89471 0.42736 0.0
H1086 H 0.22518 0.90587 0.41408 0.0
H1087 H 0.21776 0.91513 0.43082 0.0
C1088 C 0.27276 0.93235 0.40894 0.0
C1089 C 0.27148 0.94488 0.40396 0.0
C1090 C 0.26323 0.9218 0.42434 0.0
C1091 C 0.25221 0.92353 0.43494 0.0
C1092 C 0.25107 0.93615 0.43028 0.0
H1093 H 0.19328 0.88627 0.54452 0.0
H1094 H 0.20623 0.89887 0.51067 0.0
C1095 C 0.26056 0.94669 0.41486 0.0
C1096 C 0.24237 0.91253 0.45165 0.0
H1097 H 0.20568 0.88852 0.46545 0.0
C1098 C 0.24907 0.91084 0.47039 0.0
C1099 C 0.22654 0.90414 0.44956 0.0
C1100 C 0.21874 0.90492 0.42927 0.0
C1101 C 0.24037 0.90142 0.48754 0.0
C1102 C 0.22454 0.8933 0.48569 0.0
C1103 C 0.21782 0.89474 0.46675 0.0
C1104 C 0.21488 0.88412 0.50401 0.0
C1105 C 0.24818 0.90071 0.5079 0.0
C1106 C 0.21493 0.87126 0.51088 0.0
C1107 C 0.20757 0.86406 0.53024 0.0
C1108 C 0.20004 0.86963 0.54298 0.0
C1109 C 0.19914 0.88185 0.53516 0.0
C1110 C 0.20648 0.88901 0.51581 0.0
H1111 H 0.26024 0.90988 0.50852 0.0
H1112 H 0.2427 0.9017 0.52313 0.0
H1113 H 0.24742 0.88955 0.50789 0.0
H1114 H 0.2212 0.8672 0.50178 0.0
H1115 H 0.20854 0.85474 0.53591 0.0
H1116 H 0.045 0.32399 0.41781 0.0
H1117 H 0.06418 0.32727 0.4439 0.0
H1118 H 0.09721 0.36795 0.41131 0.0
H1119 H 0.07807 0.36468 0.38489 0.0
H1120 H 0.10662 0.34749 0.41853 0.0
H1121 H 0.08402 0.35851 0.49514 0.0
H1122 H 0.07025 0.34162 0.48014 0.0
H1123 H 0.07803 0.35996 0.46794 0.0
C1124 C 0.05629 0.33374 0.4163 0.0
C1125 C 0.05998 0.34409 0.39929 0.0
C1126 C 0.06724 0.33564 0.4313 0.0
C1127 C 0.08207 0.34796 0.4297 0.0
C1128 C 0.0858 0.35841 0.41288 0.0
H1129 H 0.14161 0.3594 0.53851 0.0
H1130 H 0.13112 0.36644 0.50846 0.0
C1131 C 0.07484 0.35654 0.39786 0.0
C1132 C 0.09375 0.34941 0.44501 0.0
H1133 H 0.10164 0.35058 0.49981 0.0
C1134 C 0.10569 0.3484 0.4363 0.0
C1135 C 0.09267 0.35088 0.46815 0.0
C1136 C 0.08064 0.35297 0.47841 0.0
C1137 C 0.11612 0.34797 0.45021 0.0
C1138 C 0.11439 0.34833 0.47339 0.0
C1139 C 0.10292 0.35018 0.48203 0.0
C1140 C 0.12346 0.34556 0.48909 0.0
C1141 C 0.12876 0.34695 0.43994 0.0
C1142 C 0.1231 0.33172 0.48783 0.0
C1143 C 0.12914 0.32771 0.50491 0.0
C1144 C 0.1355 0.3374 0.5237 0.0
C1145 C 0.13672 0.35169 0.52427 0.0
C1146 C 0.13073 0.35571 0.50713 0.0
H1147 H 0.13161 0.35205 0.42337 0.0
H1148 H 0.13899 0.3528 0.45055 0.0
H1149 H 0.12523 0.33476 0.43776 0.0
H1150 H 0.11725 0.32353 0.47437 0.0
H1151 H 0.1278 0.31653 0.50416 0.0
H1152 H 0.05632 0.34154 0.27485 0.0
H1153 H 0.07104 0.33824 0.24603 0.0
H1154 H 0.08188 0.31363 0.29085 0.0
H1155 H 0.0672 0.31686 0.31981 0.0
H1156 H 0.10706 0.33778 0.26806 0.0
H1157 H 0.06041 0.29821 0.21125 0.0
H1158 H 0.06023 0.31497 0.21999 0.0
H1159 H 0.05749 0.30121 0.23997 0.0
C1160 C 0.06173 0.33532 0.27854 0.0
C1161 C 0.06056 0.32944 0.29961 0.0
C1162 C 0.07009 0.3334 0.26204 0.0
C1163 C 0.07741 0.32557 0.26629 0.0
C1164 C 0.07625 0.31965 0.28725 0.0
H1165 H 0.1187 0.30213 0.15831 0.0
H1166 H 0.10611 0.30066 0.19337 0.0
C1167 C 0.06782 0.32148 0.30373 0.0
C1168 C 0.08672 0.32407 0.24905 0.0
H1169 H 0.08515 0.3099 0.19674 0.0
C1170 C 0.10228 0.33155 0.25254 0.0
C1171 C 0.08041 0.31576 0.229 0.0
C1172 C 0.0637 0.30695 0.22482 0.0
C1173 C 0.11178 0.33149 0.23605 0.0
C1174 C 0.10554 0.32384 0.21556 0.0
C1175 C 0.08992 0.31581 0.21245 0.0
C1176 C 0.11499 0.32494 0.19648 0.0
C1177 C 0.12843 0.33974 0.24058 0.0
C1178 C 0.12438 0.33911 0.18693 0.0
C1179 C 0.13156 0.33997 0.16698 0.0
C1180 C 0.12944 0.32667 0.15621 0.0
C1181 C 0.12066 0.31258 0.16639 0.0
C1182 C 0.1134 0.31172 0.18631 0.0
H1183 H 0.13091 0.34114 0.25861 0.0
H1184 H 0.13343 0.33356 0.2327 0.0
H1185 H 0.13392 0.35129 0.23363 0.0
H1186 H 0.12557 0.34943 0.19431 0.0
H1187 H 0.13827 0.35097 0.15947 0.0
H1188 H 0.69177 0.74417 0.28886 0.0
H1189 H 0.69546 0.76335 0.26247 0.0
H1190 H 0.64885 0.73583 0.24315 0.0
H1191 H 0.645 0.7167 0.26966 0.0
H1192 H 0.6911 0.7603 0.21714 0.0
H1193 H 0.65409 0.77746 0.25714 0.0
H1194 H 0.66039 0.76652 0.27101 0.0
H1195 H 0.64494 0.75726 0.25172 0.0
C1196 C 0.6823 0.74218 0.27899 0.0
C1197 C 0.66806 0.72893 0.28145 0.0
C1198 C 0.68443 0.75318 0.26397 0.0
C1199 C 0.67236 0.75116 0.25121 0.0
C1200 C 0.65823 0.73779 0.25326 0.0
H1201 H 0.65601 0.7893 0.1408 0.0
H1202 H 0.65508 0.77624 0.17437 0.0
C1203 C 0.65608 0.7268 0.26828 0.0
C1204 C 0.67463 0.76277 0.23519 0.0
H1205 H 0.66162 0.7855 0.2201 0.0
C1206 C 0.68482 0.76599 0.21793 0.0
C1207 C 0.66647 0.7702 0.23636 0.0
C1208 C 0.65597 0.76782 0.25518 0.0
C1209 C 0.68654 0.7759 0.2012 0.0
C1210 C 0.67802 0.78296 0.20199 0.0
C1211 C 0.66815 0.78009 0.21959 0.0
C1212 C 0.67823 0.79223 0.18362 0.0
C1213 C 0.69696 0.7782 0.18227 0.0
C1214 C 0.69139 0.80591 0.17823 0.0
C1215 C 0.69195 0.8134 0.15902 0.0
C1216 C 0.67935 0.80729 0.14497 0.0
C1217 C 0.66593 0.79415 0.15123 0.0
C1218 C 0.66537 0.78672 0.17041 0.0
H1219 H 0.70059 0.76981 0.18211 0.0
H1220 H 0.69144 0.77721 0.16619 0.0
H1221 H 0.70711 0.78983 0.1838 0.0
H1222 H 0.70137 0.81046 0.18844 0.0
H1223 H 0.70245 0.82346 0.15454 0.0
H1224 H 0.25122 0.9502 0.30545 0.0
H1225 H 0.23528 0.93319 0.27512 0.0
H1226 H 0.26744 0.9199 0.26146 0.0
H1227 H 0.2834 0.93677 0.29168 0.0
H1228 H 0.24293 0.93383 0.22988 0.0
H1229 H 0.2272 0.87882 0.26675 0.0
H1230 H 0.23481 0.89643 0.28293 0.0
H1231 H 0.24705 0.8924 0.26714 0.0
C1232 C 0.2549 0.94365 0.29601 0.0
C1233 C 0.26856 0.9448 0.30103 0.0
C1234 C 0.24576 0.93392 0.27873 0.0
C1235 C 0.25006 0.92509 0.26637 0.0
C1236 C 0.26377 0.92638 0.27114 0.0
H1237 H 0.23455 0.8859 0.13848 0.0
H1238 H 0.24252 0.90074 0.17315 0.0
C1239 C 0.27293 0.93612 0.28831 0.0
C1240 C 0.24061 0.91498 0.24781 0.0
H1241 H 0.22337 0.87821 0.22756 0.0
C1242 C 0.23843 0.92163 0.2295 0.0
C1243 C 0.23456 0.89904 0.24751 0.0
C1244 C 0.23588 0.8912 0.26722 0.0
C1245 C 0.23115 0.91288 0.21033 0.0
C1246 C 0.22605 0.89714 0.20948 0.0
C1247 C 0.2274 0.89031 0.22825 0.0
C1248 C 0.22078 0.88804 0.18853 0.0
C1249 C 0.22934 0.9206 0.19089 0.0
C1250 C 0.20594 0.87572 0.18591 0.0
C1251 C 0.20125 0.86724 0.16588 0.0
C1252 C 0.21138 0.87093 0.14831 0.0
C1253 C 0.22632 0.88304 0.15137 0.0
C1254 C 0.23094 0.89151 0.17122 0.0
H1255 H 0.23004 0.93142 0.19604 0.0
H1256 H 0.23846 0.92337 0.17891 0.0
H1257 H 0.21844 0.91298 0.1823 0.0
H1258 H 0.198 0.87279 0.19924 0.0
H1259 H 0.18968 0.85796 0.16404 0.0
H1260 H 0.68858 0.93468 0.32117 0.0
H1261 H 0.69204 0.92042 0.29098 0.0
H1262 H 0.66764 0.93189 0.24675 0.0
H1263 H 0.6641 0.94617 0.27678 0.0
H1264 H 0.66849 0.89512 0.26488 0.0
H1265 H 0.70771 0.9444 0.21442 0.0
H1266 H 0.70445 0.94643 0.24334 0.0
H1267 H 0.69107 0.94415 0.22283 0.0
C1268 C 0.68402 0.93425 0.30499 0.0
C1269 C 0.67608 0.94159 0.30135 0.0
C1270 C 0.68599 0.92608 0.2878 0.0
C1271 C 0.68023 0.92526 0.26665 0.0
C1272 C 0.67235 0.93259 0.26293 0.0
H1273 H 0.65728 0.86642 0.153 0.0
H1274 H 0.6582 0.87871 0.18873 0.0
C1275 C 0.67028 0.94068 0.28012 0.0
C1276 C 0.68205 0.91638 0.24853 0.0
H1277 H 0.6967 0.91971 0.19697 0.0
C1278 C 0.67479 0.90048 0.25012 0.0
C1279 C 0.69044 0.92346 0.22948 0.0
C1280 C 0.69899 0.94057 0.2274 0.0
C1281 C 0.67515 0.89138 0.23264 0.0
C1282 C 0.6829 0.89839 0.21311 0.0
C1283 C 0.69071 0.91436 0.21195 0.0
C1284 C 0.6822 0.8894 0.19308 0.0
C1285 C 0.66713 0.87433 0.23508 0.0
C1286 C 0.69537 0.89128 0.18377 0.0
C1287 C 0.69487 0.88427 0.16333 0.0
C1288 C 0.6812 0.87546 0.15178 0.0
C1289 C 0.66796 0.87318 0.16154 0.0
C1290 C 0.66846 0.88009 0.18201 0.0
H1291 H 0.66544 0.87123 0.25274 0.0
H1292 H 0.65593 0.86888 0.22702 0.0
H1293 H 0.67346 0.86959 0.227 0.0
H1294 H 0.70609 0.89853 0.19201 0.0
H1295 H 0.70525 0.88636 0.15606 0.0
H1296 H 0.0496 0.74179 0.28337 0.0
H1297 H 0.06567 0.75851 0.25428 0.0
H1298 H 0.10047 0.75028 0.2726 0.0
H1299 H 0.08463 0.73378 0.30192 0.0
H1300 H 0.11109 0.78111 0.26573 0.0
H1301 H 0.07479 0.74385 0.19605 0.0
H1302 H 0.06552 0.74922 0.21618 0.0
H1303 H 0.07247 0.73732 0.22395 0.0
C1304 C 0.06066 0.7435 0.28117 0.0
C1305 C 0.0658 0.73636 0.29486 0.0
C1306 C 0.0698 0.75303 0.26451 0.0
C1307 C 0.08418 0.75547 0.26112 0.0
C1308 C 0.0894 0.74852 0.27492 0.0
H1309 H 0.15536 0.7967 0.16735 0.0
H1310 H 0.14064 0.78714 0.201 0.0
C1311 C 0.0803 0.73904 0.29162 0.0
C1312 C 0.09379 0.76515 0.24307 0.0
H1313 H 0.09603 0.76745 0.18692 0.0
C1314 C 0.10779 0.77818 0.24848 0.0
C1315 C 0.08944 0.76128 0.22061 0.0
C1316 C 0.0748 0.74709 0.21375 0.0
C1317 C 0.1176 0.78743 0.23199 0.0
C1318 C 0.11334 0.78342 0.20954 0.0
C1319 C 0.09922 0.77056 0.20417 0.0
C1320 C 0.1236 0.79174 0.19117 0.0
C1321 C 0.13239 0.80144 0.23872 0.0
C1322 C 0.11904 0.79773 0.17463 0.0
C1323 C 0.12744 0.8032 0.15537 0.0
C1324 C 0.14049 0.80267 0.15224 0.0
C1325 C 0.14549 0.79749 0.1694 0.0
C1326 C 0.13708 0.79201 0.18866 0.0
H1327 H 0.13207 0.80539 0.25591 0.0
H1328 H 0.14129 0.79865 0.23798 0.0
H1329 H 0.1355 0.81092 0.22741 0.0
H1330 H 0.10866 0.7976 0.17623 0.0
H1331 H 0.12337 0.80723 0.14249 0.0
H1332 H 0.25797 0.31138 0.29511 0.0
H1333 H 0.23804 0.3078 0.2702 0.0
H1334 H 0.27114 0.33622 0.22259 0.0
H1335 H 0.29119 0.33989 0.24737 0.0
H1336 H 0.23488 0.33189 0.25371 0.0
H1337 H 0.24031 0.29709 0.18654 0.0
H1338 H 0.2479 0.2991 0.21399 0.0
H1339 H 0.25763 0.3141 0.19471 0.0
C1340 C 0.26104 0.31674 0.27923 0.0
C1341 C 0.2762 0.32591 0.2732 0.0
C1342 C 0.24962 0.3147 0.26507 0.0
C1343 C 0.25312 0.32163 0.24452 0.0
C1344 C 0.26821 0.3306 0.23828 0.0
H1345 H 0.21057 0.34846 0.1542 0.0
H1346 H 0.22373 0.34605 0.18548 0.0
C1347 C 0.27965 0.33272 0.25248 0.0
C1348 C 0.24108 0.32012 0.23001 0.0
H1349 H 0.22565 0.30794 0.17846 0.0
C1350 C 0.23272 0.3265 0.23735 0.0
C1351 C 0.23817 0.3129 0.20883 0.0
C1352 C 0.24636 0.30527 0.20056 0.0
C1353 C 0.22197 0.32647 0.2236 0.0
C1354 C 0.21963 0.31996 0.20198 0.0
C1355 C 0.22751 0.31297 0.19504 0.0
C1356 C 0.21004 0.32138 0.18561 0.0
C1357 C 0.21336 0.33357 0.23219 0.0
C1358 C 0.19783 0.30832 0.17555 0.0
C1359 C 0.19025 0.30969 0.15772 0.0
C1360 C 0.19495 0.32414 0.1495 0.0
C1361 C 0.20672 0.33721 0.16029 0.0
C1362 C 0.21419 0.33584 0.17819 0.0
H1363 H 0.21324 0.33405 0.25055 0.0
H1364 H 0.21879 0.34542 0.22639 0.0
H1365 H 0.2016 0.3271 0.22594 0.0
H1366 H 0.19454 0.29706 0.18096 0.0
H1367 H 0.18134 0.29944 0.1495 0.0
H1368 H 0.26612 0.35121 0.35616 0.0
H1369 H 0.25092 0.35255 0.38611 0.0
H1370 H 0.26607 0.33069 0.42922 0.0
H1371 H 0.28134 0.32934 0.39948 0.0
H1372 H 0.22764 0.32739 0.4087 0.0
H1373 H 0.27299 0.36831 0.466 0.0
H1374 H 0.2762 0.36617 0.43709 0.0
H1375 H 0.27502 0.35277 0.45659 0.0
C1376 C 0.26635 0.34682 0.37208 0.0
C1377 C 0.27497 0.34018 0.37546 0.0
C1378 C 0.25764 0.34758 0.38914 0.0
C1379 C 0.25753 0.34189 0.40992 0.0
C1380 C 0.26622 0.3354 0.41341 0.0
H1381 H 0.21357 0.31869 0.53194 0.0
H1382 H 0.22869 0.32423 0.49877 0.0
C1383 C 0.27488 0.33457 0.39635 0.0
C1384 C 0.24777 0.34198 0.42771 0.0
H1385 H 0.24846 0.35337 0.48146 0.0
C1386 C 0.23215 0.33326 0.42451 0.0
C1387 C 0.25373 0.34976 0.44821 0.0
C1388 C 0.27041 0.35991 0.45216 0.0
C1389 C 0.22231 0.33134 0.4418 0.0
C1390 C 0.2283 0.33852 0.46264 0.0
C1391 C 0.24391 0.34784 0.46546 0.0
C1392 C 0.21874 0.33522 0.48238 0.0
C1393 C 0.20563 0.321 0.43804 0.0
C1394 C 0.20804 0.33952 0.48413 0.0
C1395 C 0.19934 0.33639 0.50325 0.0
C1396 C 0.20137 0.32907 0.5209 0.0
C1397 C 0.21198 0.32466 0.51885 0.0
C1398 C 0.22059 0.32775 0.49987 0.0
H1399 H 0.20295 0.3145 0.42201 0.0
H1400 H 0.20051 0.31279 0.45156 0.0
H1401 H 0.20037 0.32797 0.43804 0.0
H1402 H 0.20657 0.34545 0.47087 0.0
H1403 H 0.19127 0.33994 0.50441 0.0
H1404 H 0.64463 0.92655 0.38838 0.0
H1405 H 0.64217 0.90859 0.41617 0.0
H1406 H 0.68214 0.94438 0.44919 0.0
H1407 H 0.68465 0.96241 0.42169 0.0
H1408 H 0.66321 0.9003 0.42617 0.0
H1409 H 0.6515 0.92609 0.49932 0.0
H1410 H 0.64966 0.93054 0.47135 0.0
H1411 H 0.66782 0.93963 0.48448 0.0
C1412 C 0.65281 0.93065 0.40171 0.0
C1413 C 0.66482 0.94594 0.40287 0.0
C1414 C 0.65139 0.92035 0.41751 0.0
C1415 C 0.66187 0.92521 0.43485 0.0
C1416 C 0.67378 0.94047 0.43615 0.0
H1417 H 0.69439 0.88426 0.51776 0.0
H1418 H 0.68731 0.8933 0.48612 0.0
C1419 C 0.67523 0.95075 0.42036 0.0
C1420 C 0.6608 0.91426 0.45114 0.0
H1421 H 0.65968 0.90882 0.50655 0.0
C1422 C 0.66221 0.902 0.44374 0.0
C1423 C 0.65924 0.91635 0.47398 0.0
C1424 C 0.65682 0.92877 0.48278 0.0
C1425 C 0.66292 0.89225 0.45873 0.0
C1426 C 0.6624 0.895 0.48168 0.0
C1427 C 0.66018 0.90677 0.48896 0.0
C1428 C 0.66533 0.88673 0.49857 0.0
C1429 C 0.6644 0.87924 0.44987 0.0
C1430 C 0.65523 0.87977 0.51595 0.0
C1431 C 0.65928 0.87462 0.53413 0.0
C1432 C 0.67354 0.87642 0.5353 0.0
C1433 C 0.68323 0.88247 0.5172 0.0
C1434 C 0.67919 0.88766 0.49907 0.0
H1435 H 0.65959 0.87555 0.43291 0.0
H1436 H 0.67646 0.88307 0.44899 0.0
H1437 H 0.65872 0.86927 0.46072 0.0
H1438 H 0.64449 0.87897 0.51593 0.0
H1439 H 0.65156 0.86993 0.54779 0.0
H1440 H 0.07112 0.76753 0.3755 0.0
H1441 H 0.08905 0.7811 0.40577 0.0
H1442 H 0.07356 0.7384 0.43733 0.0
H1443 H 0.05583 0.7247 0.40694 0.0
H1444 H 0.08405 0.78276 0.44961 0.0
H1445 H 0.11854 0.75683 0.43732 0.0
H1446 H 0.10525 0.75506 0.41683 0.0
H1447 H 0.09898 0.74275 0.44008 0.0
C1448 C 0.07155 0.76101 0.38886 0.0
C1449 C 0.06209 0.74502 0.38876 0.0
C1450 C 0.08183 0.76879 0.40612 0.0
C1451 C 0.08287 0.76073 0.42356 0.0
C1452 C 0.07324 0.74481 0.42372 0.0
H1453 H 0.11878 0.7762 0.55265 0.0
H1454 H 0.10705 0.767 0.51619 0.0
C1455 C 0.06301 0.73701 0.40643 0.0
C1456 C 0.09358 0.76901 0.44207 0.0
H1457 H 0.12131 0.76972 0.47238 0.0
C1458 C 0.09237 0.78011 0.45439 0.0
C1459 C 0.10451 0.7656 0.44815 0.0
C1460 C 0.10703 0.75452 0.43476 0.0
C1461 C 0.10126 0.78731 0.47332 0.0
C1462 C 0.11168 0.78337 0.47995 0.0
C1463 C 0.11328 0.77269 0.46721 0.0
C1464 C 0.11985 0.78903 0.50126 0.0
C1465 C 0.09898 0.79854 0.48673 0.0
C1466 C 0.13118 0.80442 0.50473 0.0
C1467 C 0.13796 0.80972 0.5256 0.0
C1468 C 0.13335 0.7997 0.54324 0.0
C1469 C 0.12238 0.78421 0.53941 0.0
C1470 C 0.11573 0.77892 0.5186 0.0
H1471 H 0.08924 0.79902 0.48074 0.0
H1472 H 0.09723 0.79545 0.50439 0.0
H1473 H 0.10918 0.81011 0.48577 0.0
H1474 H 0.13457 0.81235 0.49143 0.0
H1475 H 0.1464 0.82171 0.52816 0.0
H1476 H 0.3071 0.06416 0.70464 0.0
H1477 H 0.30661 0.08086 0.73392 0.0
H1478 H 0.34792 0.0881 0.7609 0.0
H1479 H 0.34835 0.07119 0.73204 0.0
H1480 H 0.32702 0.08191 0.79251 0.0
H1481 H 0.33258 0.12727 0.73865 0.0
H1482 H 0.31706 0.10843 0.73182 0.0
H1483 H 0.33593 0.11257 0.72882 0.0
C1484 C 0.31608 0.0693 0.71682 0.0
C1485 C 0.32779 0.06638 0.71597 0.0
C1486 C 0.31584 0.07894 0.73343 0.0
C1487 C 0.32737 0.08595 0.74934 0.0
C1488 C 0.33895 0.08287 0.7487 0.0
H1489 H 0.35811 0.16093 0.84204 0.0
H1490 H 0.3521 0.14481 0.80845 0.0
C1491 C 0.33917 0.07319 0.7322 0.0
C1492 C 0.32728 0.09618 0.76708 0.0
H1493 H 0.32907 0.12999 0.77685 0.0
C1494 C 0.32738 0.09238 0.7891 0.0
C1495 C 0.32791 0.10991 0.76254 0.0
C1496 C 0.3285 0.11491 0.73919 0.0
C1497 C 0.32832 0.10202 0.80673 0.0
C1498 C 0.32875 0.11567 0.80223 0.0
C1499 C 0.3285 0.11942 0.78022 0.0
C1500 C 0.33069 0.12667 0.82025 0.0
C1501 C 0.32945 0.09778 0.82998 0.0
C1502 C 0.32024 0.12222 0.83742 0.0
C1503 C 0.32369 0.13136 0.85665 0.0
C1504 C 0.33753 0.14522 0.85881 0.0
C1505 C 0.34731 0.15036 0.84072 0.0
C1506 C 0.34392 0.14113 0.82158 0.0
H1507 H 0.33244 0.0889 0.83018 0.0
H1508 H 0.33799 0.10792 0.83979 0.0
H1509 H 0.31846 0.09318 0.83824 0.0
H1510 H 0.30981 0.11125 0.8365 0.0
H1511 H 0.31595 0.12721 0.87035 0.0
H1512 H 0.93135 0.28811 0.75155 0.0
H1513 H 0.91529 0.26929 0.77847 0.0
H1514 H 0.93511 0.2426 0.76212 0.0
H1515 H 0.95138 0.26145 0.73527 0.0
H1516 H 0.89422 0.23771 0.76991 0.0
H1517 H 0.93846 0.24724 0.83002 0.0
H1518 H 0.94172 0.26073 0.80907 0.0
H1519 H 0.94135 0.24348 0.80179 0.0
C1520 C 0.93242 0.27832 0.75379 0.0
C1521 C 0.94269 0.27632 0.74131 0.0
C1522 C 0.92318 0.26755 0.76913 0.0
C1523 C 0.92409 0.25462 0.77237 0.0
C1524 C 0.93439 0.25261 0.76008 0.0
H1525 H 0.87754 0.18515 0.87171 0.0
H1526 H 0.89112 0.1974 0.83793 0.0
C1527 C 0.94365 0.26339 0.74472 0.0
C1528 C 0.91401 0.24315 0.78837 0.0
H1529 H 0.91365 0.22792 0.83777 0.0
C1530 C 0.89846 0.2355 0.7847 0.0
C1531 C 0.91959 0.2402 0.80752 0.0
C1532 C 0.93618 0.2484 0.81253 0.0
C1533 C 0.8883 0.22514 0.7999 0.0
C1534 C 0.89386 0.22259 0.81943 0.0
C1535 C 0.90942 0.22986 0.82273 0.0
C1536 C 0.88385 0.21358 0.83762 0.0
C1537 C 0.87171 0.21708 0.79497 0.0
C1538 C 0.87504 0.21843 0.84834 0.0
C1539 C 0.86727 0.21144 0.8675 0.0
C1540 C 0.86823 0.19953 0.8764 0.0
C1541 C 0.87646 0.19419 0.86507 0.0
C1542 C 0.88429 0.20123 0.84589 0.0
H1543 H 0.8695 0.21634 0.77692 0.0
H1544 H 0.86563 0.20536 0.80145 0.0
H1545 H 0.86711 0.2236 0.80297 0.0
H1546 H 0.87476 0.22812 0.84251 0.0
H1547 H 0.86098 0.21576 0.87589 0.0
H1548 H 0.7411 0.69541 0.72776 0.0
H1549 H 0.75977 0.69801 0.75455 0.0
H1550 H 0.72738 0.65425 0.78056 0.0
H1551 H 0.70864 0.65162 0.75414 0.0
H1552 H 0.74347 0.67702 0.81309 0.0
H1553 H 0.78124 0.67392 0.75065 0.0
H1554 H 0.77672 0.68831 0.74675 0.0
H1555 H 0.76224 0.6685 0.74417 0.0
C1556 C 0.73792 0.68638 0.73928 0.0
C1557 C 0.72339 0.67327 0.73875 0.0
C1558 C 0.74864 0.68785 0.75445 0.0
C1559 C 0.74502 0.67621 0.76926 0.0
C1560 C 0.73042 0.66333 0.76917 0.0
H1561 H 0.79089 0.64631 0.84761 0.0
H1562 H 0.77967 0.65243 0.81756 0.0
C1563 C 0.71972 0.66185 0.75405 0.0
C1564 C 0.75632 0.67727 0.78498 0.0
H1565 H 0.78854 0.67659 0.78807 0.0
C1566 C 0.75341 0.67709 0.80766 0.0
C1567 C 0.76919 0.67722 0.77776 0.0
C1568 C 0.77255 0.67688 0.75352 0.0
C1569 C 0.76284 0.6765 0.82337 0.0
C1570 C 0.77569 0.67638 0.81618 0.0
C1571 C 0.77877 0.67686 0.7935 0.0
C1572 C 0.78518 0.67431 0.83194 0.0
C1573 C 0.75855 0.67528 0.84745 0.0
C1574 C 0.79271 0.68497 0.84935 0.0
C1575 C 0.79913 0.6815 0.86655 0.0
C1576 C 0.79823 0.66737 0.86649 0.0
C1577 C 0.79187 0.65733 0.84804 0.0
C1578 C 0.78538 0.66078 0.83091 0.0
H1579 H 0.7468 0.67238 0.84967 0.0
H1580 H 0.75984 0.66645 0.85541 0.0
H1581 H 0.76606 0.68638 0.8562 0.0
H1582 H 0.79294 0.69562 0.8502 0.0
H1583 H 0.80411 0.6895 0.88047 0.0
H1584 H 0.72233 0.67596 0.61459 0.0
H1585 H 0.73748 0.67365 0.58546 0.0
H1586 H 0.74812 0.64797 0.62845 0.0
H1587 H 0.733 0.65019 0.65769 0.0
H1588 H 0.77347 0.67304 0.60661 0.0
H1589 H 0.72713 0.63417 0.54878 0.0
H1590 H 0.72679 0.65066 0.55859 0.0
H1591 H 0.7241 0.63646 0.57772 0.0
C1592 C 0.72781 0.66975 0.61782 0.0
C1593 C 0.72643 0.66323 0.63844 0.0
C1594 C 0.73642 0.66839 0.60114 0.0
C1595 C 0.74378 0.66052 0.60479 0.0
C1596 C 0.74245 0.65403 0.62533 0.0
H1597 H 0.78613 0.63866 0.49656 0.0
H1598 H 0.77326 0.63685 0.5315 0.0
C1599 C 0.73378 0.65529 0.64197 0.0
C1600 C 0.75323 0.65947 0.58735 0.0
H1601 H 0.75194 0.64595 0.53469 0.0
C1602 C 0.76878 0.667 0.59095 0.0
C1603 C 0.74702 0.6514 0.5671 0.0
C1604 C 0.73033 0.64258 0.56279 0.0
C1605 C 0.77837 0.6672 0.57441 0.0
C1606 C 0.77223 0.65974 0.55378 0.0
C1607 C 0.75662 0.65169 0.55052 0.0
C1608 C 0.78178 0.66105 0.53474 0.0
C1609 C 0.79501 0.67549 0.57903 0.0
C1610 C 0.79104 0.67529 0.5253 0.0
C1611 C 0.79835 0.67634 0.50543 0.0
C1612 C 0.79652 0.66316 0.49464 0.0
C1613 C 0.78787 0.64901 0.50468 0.0
C1614 C 0.78045 0.64795 0.52452 0.0
H1615 H 0.79746 0.67688 0.59707 0.0
H1616 H 0.80006 0.66934 0.57117 0.0
H1617 H 0.80049 0.68704 0.57207 0.0
H1618 H 0.79202 0.6855 0.53273 0.0
H1619 H 0.80495 0.68738 0.498 0.0
H1620 H 0.3128 0.05124 0.60435 0.0
H1621 H 0.31635 0.07017 0.57767 0.0
H1622 H 0.36312 0.09786 0.59595 0.0
H1623 H 0.35975 0.07891 0.62255 0.0
H1624 H 0.32672 0.10151 0.5865 0.0
H1625 H 0.36388 0.09393 0.52811 0.0
H1626 H 0.35287 0.08013 0.54864 0.0
H1627 H 0.36982 0.0976 0.55658 0.0
C1628 C 0.32388 0.06128 0.60258 0.0
C1629 C 0.336 0.06352 0.61553 0.0
C1630 C 0.32587 0.07212 0.58739 0.0
C1631 C 0.34001 0.08535 0.58473 0.0
C1632 C 0.35216 0.08761 0.59752 0.0
H1633 H 0.3671 0.15551 0.48646 0.0
H1634 H 0.36706 0.14317 0.52046 0.0
C1635 C 0.35019 0.07678 0.61274 0.0
C1636 C 0.3419 0.09685 0.56878 0.0
H1637 H 0.35872 0.11298 0.52023 0.0
C1638 C 0.33377 0.10409 0.57205 0.0
C1639 C 0.3512 0.10027 0.55007 0.0
C1640 C 0.35988 0.09252 0.54545 0.0
C1641 C 0.33452 0.11451 0.55691 0.0
C1642 C 0.34345 0.11757 0.53783 0.0
C1643 C 0.35193 0.11067 0.53492 0.0
C1644 C 0.34316 0.12674 0.51967 0.0
C1645 C 0.32574 0.12214 0.56146 0.0
C1646 C 0.32969 0.12184 0.50827 0.0
C1647 C 0.32968 0.12891 0.48898 0.0
C1648 C 0.34316 0.14094 0.4806 0.0
C1649 C 0.35652 0.14639 0.49267 0.0
C1650 C 0.35653 0.13928 0.51199 0.0
H1651 H 0.32365 0.12259 0.57942 0.0
H1652 H 0.33169 0.13393 0.55527 0.0
H1653 H 0.31468 0.11546 0.55295 0.0
H1654 H 0.31928 0.11202 0.51362 0.0
H1655 H 0.31922 0.12449 0.48001 0.0
H1656 H 0.9541 0.27447 0.61936 0.0
H1657 H 0.93961 0.25778 0.58798 0.0
H1658 H 0.89862 0.2422 0.62414 0.0
H1659 H 0.913 0.25901 0.65558 0.0
H1660 H 0.92028 0.22568 0.58804 0.0
H1661 H 0.89013 0.25454 0.56451 0.0
H1662 H 0.90648 0.26365 0.58234 0.0
H1663 H 0.88863 0.24933 0.5929 0.0
C1664 C 0.942 0.26758 0.62061 0.0
C1665 C 0.9347 0.2681 0.63995 0.0
C1666 C 0.93374 0.25803 0.60269 0.0
C1667 C 0.91805 0.24887 0.60369 0.0
C1668 C 0.91071 0.24937 0.62291 0.0
H1669 H 0.85816 0.18804 0.49611 0.0
H1670 H 0.8669 0.19985 0.53326 0.0
C1671 C 0.91896 0.25894 0.64088 0.0
C1672 C 0.90954 0.23854 0.58473 0.0
H1673 H 0.88493 0.23265 0.54336 0.0
C1674 C 0.91246 0.22712 0.57836 0.0
C1675 C 0.89925 0.24038 0.5723 0.0
C1676 C 0.89596 0.25269 0.57818 0.0
C1677 C 0.90567 0.21774 0.5595 0.0
C1678 C 0.89588 0.22 0.54655 0.0
C1679 C 0.89244 0.23097 0.5534 0.0
C1680 C 0.89042 0.21226 0.52467 0.0
C1681 C 0.90922 0.20566 0.55336 0.0
C1682 C 0.90075 0.21542 0.50768 0.0
C1683 C 0.89583 0.20881 0.48664 0.0
C1684 C 0.88045 0.19893 0.48212 0.0
C1685 C 0.87008 0.19558 0.49922 0.0
C1686 C 0.87503 0.20233 0.52034 0.0
H1687 H 0.91325 0.20242 0.56789 0.0
H1688 H 0.89923 0.19526 0.54616 0.0
H1689 H 0.91823 0.21016 0.54081 0.0
H1690 H 0.91265 0.22321 0.51063 0.0
H1691 H 0.90408 0.21144 0.47385 0.0
H1692 H 0.32639 0.27692 0.6059 0.0
H1693 H 0.32978 0.26199 0.57675 0.0
H1694 H 0.35367 0.25083 0.6225 0.0
H1695 H 0.35043 0.26581 0.65175 0.0
H1696 H 0.36803 0.26093 0.58154 0.0
H1697 H 0.30829 0.21505 0.57078 0.0
H1698 H 0.31151 0.23395 0.56944 0.0
H1699 H 0.31516 0.22781 0.59481 0.0
C1700 C 0.33233 0.27126 0.6098 0.0
C1701 C 0.3381 0.27252 0.63116 0.0
C1702 C 0.33417 0.26265 0.59316 0.0
C1703 C 0.34177 0.25512 0.5976 0.0
C1704 C 0.34768 0.25648 0.61882 0.0
H1705 H 0.342 0.1916 0.49695 0.0
H1706 H 0.34132 0.20242 0.53351 0.0
C1707 C 0.34581 0.26504 0.63549 0.0
C1708 C 0.34397 0.24627 0.57984 0.0
H1709 H 0.325 0.21693 0.54207 0.0
C1710 C 0.35865 0.25119 0.57307 0.0
C1711 C 0.33172 0.2334 0.56912 0.0
C1712 C 0.31578 0.22712 0.57652 0.0
C1713 C 0.36135 0.24405 0.55505 0.0
C1714 C 0.34904 0.2318 0.54344 0.0
C1715 C 0.33442 0.22638 0.55094 0.0
C1716 C 0.35097 0.22546 0.52226 0.0
C1717 C 0.37733 0.24983 0.54835 0.0
C1718 C 0.35671 0.23485 0.50399 0.0
C1719 C 0.35704 0.22873 0.48328 0.0
C1720 C 0.35159 0.21306 0.48039 0.0
C1721 C 0.34634 0.20372 0.49882 0.0
C1722 C 0.3459 0.20986 0.51961 0.0
H1723 H 0.38524 0.25577 0.56242 0.0
H1724 H 0.37863 0.24035 0.54198 0.0
H1725 H 0.38049 0.25813 0.53503 0.0
H1726 H 0.36044 0.24685 0.50559 0.0
H1727 H 0.36124 0.23618 0.46934 0.0
H1728 H 0.72508 0.08497 0.62309 0.0
H1729 H 0.7415 0.10253 0.59489 0.0
H1730 H 0.75085 0.06866 0.57005 0.0
H1731 H 0.73456 0.05107 0.59809 0.0
H1732 H 0.77365 0.11286 0.58711 0.0
H1733 H 0.73579 0.08162 0.51555 0.0
H1734 H 0.72921 0.07913 0.54371 0.0
H1735 H 0.73891 0.07003 0.53367 0.0
C1736 C 0.73057 0.08123 0.61155 0.0
C1737 C 0.72846 0.06659 0.61277 0.0
C1738 C 0.73998 0.0913 0.59554 0.0
C1739 C 0.74727 0.08682 0.58036 0.0
C1740 C 0.7452 0.07225 0.58153 0.0
H1741 H 0.82059 0.12973 0.4915 0.0
H1742 H 0.80505 0.12004 0.52441 0.0
C1743 C 0.7359 0.06223 0.59759 0.0
C1744 C 0.75712 0.09732 0.56324 0.0
H1745 H 0.76087 0.10083 0.50738 0.0
C1746 C 0.77083 0.11037 0.56967 0.0
C1747 C 0.75329 0.09409 0.54057 0.0
C1748 C 0.73845 0.08053 0.53287 0.0
C1749 C 0.78111 0.11998 0.55386 0.0
C1750 C 0.77757 0.11633 0.53114 0.0
C1751 C 0.76359 0.1036 0.52481 0.0
C1752 C 0.78841 0.12492 0.51348 0.0
C1753 C 0.79568 0.13388 0.56159 0.0
C1754 C 0.78439 0.13117 0.49661 0.0
C1755 C 0.79326 0.13672 0.47779 0.0
C1756 C 0.80626 0.13601 0.47542 0.0
C1757 C 0.81077 0.13064 0.49297 0.0
C1758 C 0.80188 0.12509 0.5118 0.0
H1759 H 0.79483 0.13752 0.57874 0.0
H1760 H 0.8046 0.13111 0.5614 0.0
H1761 H 0.79913 0.14356 0.55053 0.0
H1762 H 0.77403 0.13113 0.49757 0.0
H1763 H 0.78957 0.14089 0.46459 0.0
H1764 H 0.92886 0.64561 0.62191 0.0
H1765 H 0.91066 0.64374 0.59485 0.0
H1766 H 0.93881 0.69195 0.58375 0.0
H1767 H 0.95712 0.6939 0.6104 0.0
H1768 H 0.89489 0.65889 0.59505 0.0
H1769 H 0.93119 0.67309 0.52138 0.0
H1770 H 0.9356 0.66788 0.54713 0.0
H1771 H 0.93975 0.687 0.54363 0.0
C1772 C 0.93124 0.65579 0.61355 0.0
C1773 C 0.9445 0.66989 0.6182 0.0
C1774 C 0.9208 0.6547 0.59817 0.0
C1775 C 0.92348 0.66766 0.5871 0.0
C1776 C 0.93666 0.68174 0.59179 0.0
H1777 H 0.88065 0.69188 0.49095 0.0
H1778 H 0.89477 0.69127 0.52244 0.0
C1779 C 0.9471 0.68284 0.60709 0.0
C1780 C 0.91244 0.66661 0.57087 0.0
H1781 H 0.90896 0.6738 0.51734 0.0
C1782 C 0.89789 0.66201 0.578 0.0
C1783 C 0.91638 0.67061 0.54862 0.0
C1784 C 0.93153 0.67477 0.53964 0.0
C1785 C 0.88734 0.66185 0.5636 0.0
C1786 C 0.89147 0.66631 0.54158 0.0
C1787 C 0.9059 0.67057 0.53436 0.0
C1788 C 0.88116 0.66678 0.52553 0.0
C1789 C 0.87201 0.65734 0.57213 0.0
C1790 C 0.86852 0.65325 0.51734 0.0
C1791 C 0.86042 0.65357 0.49932 0.0
C1792 C 0.86495 0.66742 0.48915 0.0
C1793 C 0.87699 0.68105 0.49838 0.0
C1794 C 0.88505 0.68072 0.51634 0.0
H1795 H 0.87151 0.65692 0.59046 0.0
H1796 H 0.86881 0.66547 0.56672 0.0
H1797 H 0.86361 0.64585 0.56522 0.0
H1798 H 0.86547 0.64236 0.52402 0.0
H1799 H 0.85131 0.64289 0.49238 0.0
H1800 H 0.93941 0.65433 0.73492 0.0
H1801 H 0.92289 0.65384 0.76415 0.0
H1802 H 0.9253 0.69348 0.73772 0.0
H1803 H 0.9416 0.6939 0.70817 0.0
H1804 H 0.92766 0.67536 0.7962 0.0
H1805 H 0.88021 0.66355 0.74154 0.0
H1806 H 0.89559 0.66171 0.732 0.0
H1807 H 0.89781 0.68023 0.73475 0.0
C1808 C 0.93645 0.66296 0.73532 0.0
C1809 C 0.94174 0.67409 0.71913 0.0
C1810 C 0.927 0.66266 0.75203 0.0
C1811 C 0.92264 0.67345 0.75285 0.0
C1812 C 0.92822 0.68482 0.73707 0.0
H1813 H 0.88187 0.68712 0.87084 0.0
H1814 H 0.89758 0.69173 0.83822 0.0
C1815 C 0.93763 0.6851 0.72029 0.0
C1816 C 0.91243 0.67287 0.77046 0.0
H1817 H 0.87812 0.66848 0.77952 0.0
C1818 C 0.91685 0.67389 0.79257 0.0
C1819 C 0.89825 0.67078 0.76564 0.0
C1820 C 0.89258 0.66886 0.74221 0.0
C1821 C 0.90747 0.67285 0.81002 0.0
C1822 C 0.89343 0.67109 0.80523 0.0
C1823 C 0.88898 0.67005 0.78312 0.0
C1824 C 0.88288 0.66938 0.82303 0.0
C1825 C 0.91251 0.67316 0.83343 0.0
C1826 C 0.86899 0.65566 0.82458 0.0
C1827 C 0.85992 0.65307 0.84305 0.0
C1828 C 0.86464 0.66417 0.86026 0.0
C1829 C 0.87806 0.67832 0.85791 0.0
C1830 C 0.88706 0.68093 0.83937 0.0
H1831 H 0.92178 0.67089 0.834 0.0
H1832 H 0.91665 0.68461 0.8412 0.0
H1833 H 0.90307 0.66457 0.84345 0.0
H1834 H 0.86552 0.64663 0.81207 0.0
H1835 H 0.84971 0.64203 0.84449 0.0
H1836 H 0.35364 0.30277 0.74798 0.0
H1837 H 0.35308 0.28598 0.77613 0.0
H1838 H 0.3117 0.24868 0.74845 0.0
H1839 H 0.31222 0.26533 0.72003 0.0
H1840 H 0.33134 0.26922 0.80776 0.0
H1841 H 0.33937 0.23142 0.74913 0.0
H1842 H 0.34263 0.24974 0.74154 0.0
H1843 H 0.32382 0.23354 0.74288 0.0
C1844 C 0.34437 0.29102 0.74792 0.0
C1845 C 0.33303 0.28537 0.73167 0.0
C1846 C 0.34408 0.28144 0.76401 0.0
C1847 C 0.3325 0.26604 0.7641 0.0
C1848 C 0.3209 0.26046 0.74837 0.0
H1849 H 0.31782 0.20836 0.87587 0.0
H1850 H 0.31366 0.22027 0.8446 0.0
C1851 C 0.32117 0.27003 0.73225 0.0
C1852 C 0.33264 0.25587 0.78072 0.0
H1853 H 0.33554 0.2246 0.78665 0.0
C1854 C 0.33218 0.25942 0.80317 0.0
C1855 C 0.33392 0.24321 0.77462 0.0
C1856 C 0.3351 0.23927 0.75075 0.0
C1857 C 0.33301 0.25067 0.81974 0.0
C1858 C 0.33408 0.23787 0.81365 0.0
C1859 C 0.33453 0.2343 0.7912 0.0
C1860 C 0.3356 0.22865 0.83051 0.0
C1861 C 0.3332 0.25547 0.84363 0.0
C1862 C 0.34899 0.22872 0.8322 0.0
C1863 C 0.35137 0.22185 0.84995 0.0
C1864 C 0.34036 0.2148 0.86626 0.0
C1865 C 0.32656 0.21388 0.86367 0.0
C1866 C 0.32419 0.2207 0.84589 0.0
H1867 H 0.33562 0.26734 0.84538 0.0
H1868 H 0.32206 0.24775 0.85099 0.0
H1869 H 0.34173 0.25468 0.85326 0.0
H1870 H 0.35792 0.23476 0.82042 0.0
H1871 H 0.36215 0.22287 0.8516 0.0
H1872 H 0.71772 0.07266 0.73147 0.0
H1873 H 0.73344 0.08777 0.76307 0.0
H1874 H 0.76842 0.0805 0.74012 0.0
H1875 H 0.75289 0.06562 0.70818 0.0
H1876 H 0.74478 0.07898 0.79585 0.0
H1877 H 0.79122 0.12657 0.75036 0.0
H1878 H 0.77345 0.11297 0.73744 0.0
H1879 H 0.7873 0.10797 0.74171 0.0
C1880 C 0.72877 0.0743 0.73308 0.0
C1881 C 0.73407 0.06799 0.71725 0.0
C1882 C 0.73775 0.08296 0.75115 0.0
C1883 C 0.7522 0.08549 0.75373 0.0
C1884 C 0.75745 0.07902 0.73815 0.0
H1885 H 0.81467 0.12518 0.86503 0.0
H1886 H 0.80298 0.1134 0.82911 0.0
C1887 C 0.7485 0.07041 0.72 0.0
C1888 C 0.76149 0.09443 0.77323 0.0
H1889 H 0.79477 0.12632 0.78905 0.0
C1890 C 0.75569 0.08935 0.79434 0.0
C1891 C 0.77574 0.10795 0.77121 0.0
C1892 C 0.78227 0.1143 0.74898 0.0
C1893 C 0.76376 0.09737 0.81348 0.0
C1894 C 0.77795 0.11089 0.81146 0.0
C1895 C 0.78388 0.11593 0.79043 0.0
C1896 C 0.7865 0.12 0.83124 0.0
C1897 C 0.75711 0.09134 0.83581 0.0
C1898 C 0.78143 0.12808 0.84377 0.0
C1899 C 0.78812 0.13489 0.86414 0.0
C1900 C 0.79997 0.13369 0.87235 0.0
C1901 C 0.80564 0.1264 0.85908 0.0
C1902 C 0.79894 0.1196 0.83863 0.0
H1903 H 0.74735 0.07943 0.83457 0.0
H1904 H 0.76568 0.09171 0.84694 0.0
H1905 H 0.7533 0.09865 0.84351 0.0
H1906 H 0.77192 0.12861 0.83818 0.0
H1907 H 0.78365 0.14062 0.87386 0.0
H1908 H 0.03185 0.33825 0.99163 0.0
H1909 H 0.05295 0.33596 0.00295 0.0
H1910 H 0.0717 0.37848 0.04047 0.0
H1911 H 0.05053 0.38073 0.02963 0.0
H1912 H 0.08417 0.3548 0.99844 0.0
H1913 H 0.06739 0.34843 0.08661 0.0
H1914 H 0.05523 0.34718 0.06467 0.0
H1915 H 0.07017 0.36551 0.07485 0.0
C1916 C 0.04049 0.34716 0.00222 0.0
C1917 C 0.0394 0.35958 0.00995 0.0
C1918 C 0.05256 0.34584 0.00861 0.0
C1919 C 0.06375 0.35691 0.02285 0.0
C1920 C 0.06302 0.36964 0.02985 0.0
H1921 H 0.13677 0.36166 0.09569 0.0
H1922 H 0.12146 0.36868 0.07489 0.0
C1923 C 0.05093 0.37093 0.02357 0.0
C1924 C 0.07584 0.35482 0.03112 0.0
H1925 H 0.09048 0.3505 0.07847 0.0
C1926 C 0.08558 0.35387 0.01593 0.0
C1927 C 0.07757 0.35349 0.05394 0.0
C1928 C 0.06696 0.35355 0.07097 0.0
C1929 C 0.09718 0.35187 0.02303 0.0
C1930 C 0.09896 0.35067 0.04586 0.0
C1931 C 0.0892 0.35161 0.06098 0.0
C1932 C 0.11044 0.34786 0.0547 0.0
C1933 C 0.10755 0.35126 0.00614 0.0
C1934 C 0.10973 0.33408 0.04965 0.0
C1935 C 0.11852 0.33007 0.06149 0.0
C1936 C 0.12802 0.33973 0.07869 0.0
C1937 C 0.12949 0.35399 0.08258 0.0
C1938 C 0.12075 0.358 0.07073 0.0
H1939 H 0.10722 0.35625 0.99032 0.0
H1940 H 0.11929 0.35742 0.01243 0.0
H1941 H 0.10403 0.33917 0.00268 0.0
H1942 H 0.10166 0.32596 0.03764 0.0
H1943 H 0.11702 0.31893 0.05835 0.0
H1944 H 0.64042 0.67989 0.04037 0.0
H1945 H 0.64472 0.70549 0.04545 0.0
H1946 H 0.64529 0.70984 0.97475 0.0
H1947 H 0.64129 0.68427 0.96948 0.0
H1948 H 0.66855 0.73471 0.99441 0.0
H1949 H 0.6167 0.72088 0.03838 0.0
H1950 H 0.62594 0.71269 0.05174 0.0
H1951 H 0.61879 0.70647 0.02395 0.0
C1952 C 0.64131 0.68621 0.02587 0.0
C1953 C 0.6405 0.68001 0.00452 0.0
C1954 C 0.64364 0.70082 0.02881 0.0
C1955 C 0.64502 0.70948 0.01048 0.0
C1956 C 0.64413 0.70331 0.98912 0.0
H1957 H 0.65432 0.79638 0.05349 0.0
H1958 H 0.64587 0.77366 0.02906 0.0
C1959 C 0.64185 0.68869 0.98616 0.0
C1960 C 0.64843 0.72534 0.01386 0.0
H1961 H 0.63802 0.74662 0.04454 0.0
C1962 C 0.66171 0.73732 0.00499 0.0
C1963 C 0.63933 0.7288 0.02715 0.0
C1964 C 0.62431 0.7165 0.03563 0.0
C1965 C 0.66674 0.75263 0.01055 0.0
C1966 C 0.65842 0.756 0.02572 0.0
C1967 C 0.64453 0.74407 0.03312 0.0
C1968 C 0.66477 0.77135 0.03653 0.0
C1969 C 0.68112 0.765 0.00055 0.0
C1970 C 0.67832 0.77777 0.04839 0.0
C1971 C 0.68313 0.79068 0.0621 0.0
C1972 C 0.67444 0.79737 0.06432 0.0
C1973 C 0.66128 0.79151 0.05167 0.0
C1974 C 0.65644 0.77852 0.03787 0.0
H1975 H 0.6827 0.76144 0.98372 0.0
H1976 H 0.6813 0.77584 -0.0005 0.0
H1977 H 0.69074 0.76709 0.01092 0.0
H1978 H 0.68472 0.77224 0.04821 0.0
H1979 H 0.69318 0.7949 0.07205 0.0
H1980 H 0.32326 0.95828 0.96914 0.0
H1981 H 0.29881 0.93567 0.97719 0.0
H1982 H 0.3016 0.95291 0.044 0.0
H1983 H 0.32607 0.97533 0.03628 0.0
H1984 H 0.29441 0.92317 0.04186 0.0
H1985 H 0.25783 0.93128 0.98522 0.0
H1986 H 0.27357 0.93155 0.97255 0.0
H1987 H 0.27672 0.9464 0.99225 0.0
C1988 C 0.31861 0.95731 0.9855 0.0
C1989 C 0.32663 0.96861 0.00208 0.0
C1990 C 0.30459 0.94442 0.99002 0.0
C1991 C 0.29831 0.94269 0.01111 0.0
C1992 C 0.30623 0.95403 0.02758 0.0
H1993 H 0.21415 0.889 0.07187 0.0
H1994 H 0.23477 0.90686 0.04859 0.0
C1995 C 0.32023 0.96685 0.02313 0.0
C1996 C 0.28388 0.92875 0.01665 0.0
H1997 H 0.24617 0.90887 0.00593 0.0
C1998 C 0.28387 0.91996 0.03388 0.0
C1999 C 0.27015 0.92465 0.00626 0.0
C2000 C 0.26945 0.934 0.98815 0.0
C2001 C 0.2705 0.90745 0.04149 0.0
C2002 C 0.25674 0.90333 0.03116 0.0
C2003 C 0.25675 0.91191 0.01357 0.0
C2004 C 0.24222 0.89129 0.04024 0.0
C2005 C 0.2712 0.89926 0.06128 0.0
C2006 C 0.23894 0.87627 0.04203 0.0
C2007 C 0.22725 0.86608 0.05557 0.0
C2008 C 0.2186 0.87075 0.06732 0.0
C2009 C 0.2208 0.88518 0.06332 0.0
C2010 C 0.23255 0.89538 0.04995 0.0
H2011 H 0.28221 0.90581 0.06997 0.0
H2012 H 0.26227 0.89716 0.07328 0.0
H2013 H 0.26947 0.88806 0.05575 0.0
H2014 H 0.24609 0.87279 0.03426 0.0
H2015 H 0.22586 0.85506 0.05829 0.0
H2016 H 0.34657 0.03533 0.9627 0.0
H2017 H 0.34583 0.05845 0.95887 0.0
H2018 H 0.37272 0.07801 0.01808 0.0
H2019 H 0.37378 0.05496 0.02183 0.0
H2020 H 0.33539 0.07272 0.98705 0.0
H2021 H 0.3967 0.11019 0.97228 0.0
H2022 H 0.38734 0.08965 0.97157 0.0
H2023 H 0.39137 0.10001 0.99758 0.0
C2024 C 0.35232 0.04452 0.97495 0.0
C2025 C 0.36035 0.04334 0.99245 0.0
C2026 C 0.35184 0.05772 0.97278 0.0
C2027 C 0.35936 0.07002 0.98804 0.0
C2028 C 0.36706 0.06876 0.0059 0.0
H2029 H 0.34534 0.1464 0.96231 0.0
H2030 H 0.34836 0.12871 0.98515 0.0
C2031 C 0.36761 0.05556 0.00804 0.0
C2032 C 0.35941 0.08425 0.98455 0.0
H2033 H 0.38202 0.12106 0.96875 0.0
C2034 C 0.34559 0.0834 0.98343 0.0
C2035 C 0.37277 0.09814 0.97984 0.0
C2036 C 0.3879 0.09963 0.9802 0.0
C2037 C 0.34468 0.09578 0.9765 0.0
C2038 C 0.35798 0.10945 0.97087 0.0
C2039 C 0.37187 0.1106 0.97326 0.0
C2040 C 0.35752 0.12145 0.95865 0.0
C2041 C 0.32944 0.0938 0.97375 0.0
C2042 C 0.36216 0.12359 0.93658 0.0
C2043 C 0.36049 0.13358 0.92374 0.0
C2044 C 0.35415 0.14169 0.93266 0.0
C2045 C 0.35018 0.14019 0.95509 0.0
C2046 C 0.35182 0.13006 0.96803 0.0
H2047 H 0.32017 0.08188 0.97641 0.0
H2048 H 0.32826 0.10142 0.98587 0.0
H2049 H 0.32821 0.09703 0.95693 0.0
H2050 H 0.36662 0.11711 0.92902 0.0
H2051 H 0.36385 0.13471 0.90657 0.0
H2052 H 0.97376 0.32298 0.9878 0.0
H2053 H 0.95191 0.29751 0.98023 0.0
H2054 H 0.92634 0.30628 0.02812 0.0
H2055 H 0.94825 0.33176 0.03608 0.0
H2056 H 0.92182 0.27671 0.03029 0.0
H2057 H 0.91549 0.2904 0.94476 0.0
H2058 H 0.93385 0.29395 0.95063 0.0
H2059 H 0.92734 0.30491 0.96513 0.0
C2060 C 0.96352 0.31951 0.99679 0.0
C2061 C 0.96272 0.32948 0.01239 0.0
C2062 C 0.95102 0.30495 0.9924 0.0
C2063 C 0.93744 0.30011 0.00335 0.0
C2064 C 0.93671 0.30983 0.01942 0.0
H2065 H 0.85679 0.22351 0.94457 0.0
H2066 H 0.87301 0.24743 0.96543 0.0
C2067 C 0.94923 0.3244 0.02388 0.0
C2068 C 0.92392 0.28508 0.99748 0.0
H2069 H 0.90128 0.26423 0.95385 0.0
C2070 C 0.9172 0.27398 0.01364 0.0
C2071 C 0.91775 0.28167 0.97588 0.0
C2072 C 0.92387 0.2934 0.95815 0.0
C2073 C 0.9048 0.25932 0.00851 0.0
C2074 C 0.89915 0.25567 0.98658 0.0
C2075 C 0.90559 0.26698 0.97067 0.0
C2076 C 0.88713 0.24006 0.97912 0.0
C2077 C 0.89789 0.24795 0.02661 0.0
C2078 C 0.88917 0.22767 0.98079 0.0
C2079 C 0.8797 0.21389 0.96922 0.0
C2080 C 0.86822 0.21241 0.95556 0.0
C2081 C 0.86547 0.22436 0.95522 0.0
C2082 C 0.8748 0.23805 0.967 0.0
H2083 H 0.89995 0.25378 0.04312 0.0
H2084 H 0.88561 0.24023 0.02407 0.0
H2085 H 0.90307 0.24091 0.02665 0.0
H2086 H 0.89877 0.22901 0.98958 0.0
H2087 H 0.88221 0.20493 0.96934 0.0
H2088 H 0.68543 0.65778 0.01276 0.0
H2089 H 0.71087 0.66351 0.00554 0.0
H2090 H 0.69404 0.61547 0.99583 0.0
H2091 H 0.66855 0.60958 0.00337 0.0
H2092 H 0.72158 0.63191 0.02046 0.0
H2093 H 0.72363 0.65989 0.94232 0.0
H2094 H 0.71943 0.66745 0.96656 0.0
H2095 H 0.7064 0.64819 0.957 0.0
C2096 C 0.68713 0.64841 0.00924 0.0
C2097 C 0.67492 0.63322 0.00838 0.0
C2098 C 0.70168 0.65172 0.00509 0.0
C2099 C 0.70429 0.63993 -0.00018 0.0
C2100 C 0.69225 0.62473 -0.00019 0.0
H2101 H 0.77432 0.62972 0.94533 0.0
H2102 H 0.7536 0.62672 0.96812 0.0
C2103 C 0.67768 0.6214 0.00404 0.0
C2104 C 0.71941 0.64348 0.99306 0.0
H2105 H 0.74545 0.66032 0.95255 0.0
C2106 C 0.72687 0.63818 0.00568 0.0
C2107 C 0.72624 0.65163 0.97374 0.0
C2108 C 0.7185 0.65702 0.95897 0.0
C2109 C 0.74103 0.64088 -0.00051 0.0
C2110 C 0.74776 0.64888 0.98002 0.0
C2111 C 0.74036 0.65433 0.96761 0.0
C2112 C 0.76192 0.65091 0.97106 0.0
C2113 C 0.74868 0.63523 0.01387 0.0
C2114 C 0.77373 0.66553 0.96565 0.0
C2115 C 0.78554 0.66724 0.95251 0.0
C2116 C 0.78573 0.65437 0.94453 0.0
C2117 C 0.77458 0.63985 0.95152 0.0
C2118 C 0.76272 0.63813 0.96456 0.0
H2119 H 0.74458 0.6338 0.03115 0.0
H2120 H 0.74616 0.62393 0.00731 0.0
H2121 H 0.76104 0.64317 0.01399 0.0
H2122 H 0.77334 0.67555 0.97045 0.0
H2123 H 0.794 0.67856 0.94736 0.0
H2124 H 0.9529 0.62884 0.97686 0.0
H2125 H 0.93256 0.63276 0.9674 0.0
H2126 H 0.94181 0.66105 0.02638 0.0
H2127 H 0.96212 0.65705 0.03617 0.0
H2128 H 0.91064 0.64018 0.01781 0.0
H2129 H 0.9405 0.67357 0.94444 0.0
H2130 H 0.93861 0.65519 0.94461 0.0
H2131 H 0.94976 0.66941 0.96561 0.0
C2132 C 0.95059 0.63584 0.9879 0.0
C2133 C 0.95924 0.64275 0.00717 0.0
C2134 C 0.93899 0.63811 0.98242 0.0
C2135 C 0.93585 0.6474 0.99601 0.0
C2136 C 0.94411 0.6539 0.01563 0.0
H2137 H 0.88335 0.68123 0.93921 0.0
H2138 H 0.90183 0.68028 0.96245 0.0
C2139 C 0.95573 0.65162 0.02116 0.0
C2140 C 0.92426 0.65065 0.98927 0.0
H2141 H 0.91471 0.66542 0.94742 0.0
C2142 C 0.91156 0.64583 0.00254 0.0
C2143 C 0.92563 0.65829 0.96958 0.0
C2144 C 0.93942 0.66456 0.95533 0.0
C2145 C 0.89987 0.64789 0.99611 0.0
C2146 C 0.90089 0.65477 0.97577 0.0
C2147 C 0.91388 0.6601 0.96299 0.0
C2148 C 0.8884 0.65584 0.96652 0.0
C2149 C 0.88659 0.64268 0.01113 0.0
C2150 C 0.87443 0.64254 0.96189 0.0
C2151 C 0.86379 0.64311 0.94885 0.0
C2152 C 0.86705 0.65696 0.93994 0.0
C2153 C 0.88057 0.67043 0.9459 0.0
C2154 C 0.89114 0.66987 0.95911 0.0
H2155 H 0.88966 0.64254 0.02861 0.0
H2156 H 0.88191 0.65016 0.01014 0.0
H2157 H 0.87769 0.63088 0.0061 0.0
H2158 H 0.87216 0.63154 0.96697 0.0
H2159 H 0.85357 0.63254 0.9442 0.0
H2160 H 0.35964 0.32647 0.04864 0.0
H2161 H 0.35816 0.30221 0.04062 0.0
H2162 H 0.35075 0.30543 0.97159 0.0
H2163 H 0.35242 0.3297 0.97932 0.0
H2164 H 0.33541 0.27448 0.02124 0.0
H2165 H 0.38698 0.30036 0.97093 0.0
H2166 H 0.38218 0.31162 0.9886 0.0
H2167 H 0.37376 0.30512 0.96156 0.0
C2168 C 0.35767 0.322 0.03175 0.0
C2169 C 0.35629 0.3301 0.01458 0.0
C2170 C 0.35682 0.30813 0.02723 0.0
C2171 C 0.35463 0.30218 0.00547 0.0
C2172 C 0.35278 0.31 0.98843 0.0
H2173 H 0.32338 0.2166 0.9424 0.0
H2174 H 0.32574 0.23692 0.96712 0.0
C2175 C 0.35367 0.32385 0.99291 0.0
C2176 C 0.35439 0.28786 0.00031 0.0
H2177 H 0.37047 0.27329 0.96669 0.0
C2178 C 0.3432 0.27421 0.00956 0.0
C2179 C 0.36478 0.28757 0.98553 0.0
C2180 C 0.3777 0.30198 0.97626 0.0
C2181 C 0.34159 0.26013 0.00334 0.0
C2182 C 0.35126 0.25972 0.98719 0.0
C2183 C 0.36297 0.27351 0.97897 0.0
C2184 C 0.34871 0.24525 0.97678 0.0
C2185 C 0.32945 0.24586 0.01397 0.0
C2186 C 0.36068 0.24282 0.97435 0.0
C2187 C 0.35944 0.23135 0.95982 0.0
C2188 C 0.3462 0.22213 0.94744 0.0
C2189 C 0.33377 0.22362 0.95156 0.0
C2190 C 0.33506 0.23516 0.96591 0.0
H2191 H 0.32717 0.24843 0.03101 0.0
H2192 H 0.31891 0.24108 0.00422 0.0
H2193 H 0.33251 0.23705 0.01466 0.0
H2194 H 0.37133 0.25047 0.98255 0.0
H2195 H 0.36926 0.23061 0.95692 0.0
H2196 H 0.67692 0.02301 0.9854 0.0
H2197 H 0.70236 0.04394 0.9779 0.0
H2198 H 0.69554 0.0742 0.02039 0.0
H2199 H 0.67012 0.05323 0.02835 0.0
H2200 H 0.71023 0.07036 0.95833 0.0
H2201 H 0.73611 0.0829 0.04193 0.0
H2202 H 0.71852 0.06561 0.03509 0.0
H2203 H 0.71913 0.08319 0.04077 0.0
C2204 C 0.68084 0.03407 0.99331 0.0
C2205 C 0.67147 0.03643 0.00749 0.0
C2206 C 0.69541 0.04603 0.98902 0.0
C2207 C 0.70094 0.06059 -0.00118 0.0
C2208 C 0.69164 0.06298 0.01305 0.0
H2209 H 0.77519 0.141 0.94066 0.0
H2210 H 0.75178 0.12393 0.95987 0.0
C2211 C 0.67707 0.051 0.01743 0.0
C2212 C 0.71606 0.07341 0.99291 0.0
H2213 H 0.75044 0.1005 0.01407 0.0
C2214 C 0.71901 0.07694 0.97053 0.0
C2215 C 0.72756 0.08189 0.00883 0.0
C2216 C 0.72527 0.07815 0.03298 0.0
C2217 C 0.73309 0.0887 0.9636 0.0
C2218 C 0.74447 0.09748 0.97956 0.0
C2219 C 0.74161 0.09391 0.00194 0.0
C2220 C 0.75956 0.10991 0.97285 0.0
C2221 C 0.73576 0.09137 0.93914 0.0
C2222 C 0.77203 0.10836 0.97524 0.0
C2223 C 0.78549 0.11827 0.96459 0.0
C2224 C 0.7866 0.12979 0.95138 0.0
C2225 C 0.77457 0.13218 0.95075 0.0
C2226 C 0.76119 0.12239 0.96156 0.0
H2227 H 0.72721 0.08144 0.92898 0.0
H2228 H 0.73515 0.10144 0.93494 0.0
H2229 H 0.74704 0.09367 0.93452 0.0
H2230 H 0.771 0.09883 0.98396 0.0
H2231 H 0.79456 0.11611 0.96512 0.0
H2232 H 0.66022 0.96582 0.97877 0.0
H2233 H 0.66463 0.94543 0.98748 0.0
H2234 H 0.62919 0.92856 0.03551 0.0
H2235 H 0.62466 0.94888 0.02691 0.0
H2236 H 0.67269 0.94146 0.03023 0.0
H2237 H 0.62034 0.88963 -0.00012 0.0
H2238 H 0.6263 0.90853 0.99079 0.0
H2239 H 0.61744 0.90237 0.01716 0.0
C2240 C 0.65323 0.95767 0.991 0.0
C2241 C 0.6421 0.959 0.00218 0.0
C2242 C 0.65576 0.94601 0.99592 0.0
C2243 C 0.6471 0.93537 0.01191 0.0
C2244 C 0.6358 0.93648 0.0228 0.0
H2245 H 0.64778 0.86895 0.09056 0.0
H2246 H 0.6412 0.88382 0.06787 0.0
C2247 C 0.63331 0.94817 0.01798 0.0
C2248 C 0.65074 0.92395 0.01865 0.0
H2249 H 0.63586 0.88571 0.02402 0.0
C2250 C 0.66475 0.92925 0.02858 0.0
C2251 C 0.64031 0.90806 0.01655 0.0
C2252 C 0.62529 0.90176 0.00534 0.0
C2253 C 0.66837 0.91914 0.03742 0.0
C2254 C 0.65783 0.90322 0.03571 0.0
C2255 C 0.64396 0.89789 0.0252 0.0
C2256 C 0.66051 0.89212 0.04659 0.0
C2257 C 0.68314 0.92567 0.04956 0.0
C2258 C 0.67311 0.89117 0.04142 0.0
C2259 C 0.67702 0.88282 0.05458 0.0
C2260 C 0.66828 0.87516 0.07298 0.0
C2261 C 0.6549 0.87498 0.07677 0.0
C2262 C 0.65108 0.88341 0.06374 0.0
H2263 H 0.68835 0.93804 0.05366 0.0
H2264 H 0.68164 0.91963 0.06514 0.0
H2265 H 0.69106 0.92425 0.03898 0.0
H2266 H 0.68034 0.89751 0.0279 0.0
H2267 H 0.6874 0.88322 0.05121 0.0
H2268 H 0.02369 0.683 0.01772 0.0
H2269 H 0.04439 0.7091 0.02573 0.0
H2270 H 0.07619 0.69594 0.00827 0.0
H2271 H 0.05557 0.66989 -0.00018 0.0
H2272 H 0.06577 0.71748 0.05728 0.0
H2273 H 0.09289 0.73544 0.97563 0.0
H2274 H 0.07428 0.71891 0.97879 0.0
H2275 H 0.09054 0.71776 0.98408 0.0
C2276 C 0.03508 0.68569 0.01533 0.0
C2277 C 0.03797 0.67435 0.00815 0.0
C2278 C 0.0469 0.70062 0.01987 0.0
C2279 C 0.06184 0.70454 0.01726 0.0
C2280 C 0.06476 0.69329 0.00986 0.0
H2281 H 0.14712 0.77717 0.066 0.0
H2282 H 0.12709 0.75562 0.0445 0.0
C2283 C 0.05294 0.67836 0.00523 0.0
C2284 C 0.07432 0.72 0.0242 0.0
H2285 H 0.10702 0.75107 0.00701 0.0
C2286 C 0.07468 0.7249 0.0462 0.0
C2287 C 0.08599 0.72963 0.00974 0.0
C2288 C 0.08587 0.72525 0.98569 0.0
C2289 C 0.08657 0.73897 0.05435 0.0
C2290 C 0.09832 0.74852 0.03999 0.0
C2291 C 0.09795 0.74373 0.01791 0.0
C2292 C 0.11138 0.76317 0.04822 0.0
C2293 C 0.08671 0.74326 0.07849 0.0
C2294 C 0.10944 0.77495 0.05629 0.0
C2295 C 0.12085 0.78726 0.06854 0.0
C2296 C 0.13441 0.78801 0.07279 0.0
C2297 C 0.13684 0.77696 0.06285 0.0
C2298 C 0.12538 0.7646 0.05066 0.0
H2299 H 0.07848 0.73335 0.0882 0.0
H2300 H 0.09803 0.74801 0.08587 0.0
H2301 H 0.08377 0.75216 0.08004 0.0
H2302 H 0.09876 0.77413 0.05429 0.0
H2303 H 0.11873 0.79569 0.07587 0.0
H2304 H 0.32278 0.37815 0.03135 0.0
H2305 H 0.29796 0.3741 0.03892 0.0
H2306 H 0.27986 0.34353 0.98186 0.0
H2307 H 0.30464 0.34747 0.97413 0.0
H2308 H 0.27738 0.37784 0.0098 0.0
H2309 H 0.25488 0.3183 0.03609 0.0
H2310 H 0.27476 0.33205 0.03445 0.0
H2311 H 0.26393 0.32341 0.00965 0.0
C2312 C 0.31356 0.37063 0.02031 0.0
C2313 C 0.31567 0.36303 0.00223 0.0
C2314 C 0.2994 0.36838 0.02462 0.0
C2315 C 0.28709 0.35844 0.01103 0.0
C2316 C 0.28921 0.35116 0.99263 0.0
H2317 H 0.19384 0.32048 0.04924 0.0
H2318 H 0.21507 0.3277 0.02457 0.0
C2319 C 0.30339 0.35344 0.98825 0.0
C2320 C 0.27193 0.35514 0.01692 0.0
H2321 H 0.23889 0.32776 0.03901 0.0
C2322 C 0.26887 0.36685 0.01597 0.0
C2323 C 0.26085 0.34076 0.02477 0.0
C2324 C 0.2637 0.32788 0.02649 0.0
C2325 C 0.25508 0.36465 0.02317 0.0
C2326 C 0.24425 0.35048 0.03203 0.0
C2327 C 0.24714 0.3386 0.03213 0.0
C2328 C 0.23064 0.34813 0.04358 0.0
C2329 C 0.25231 0.37756 0.02132 0.0
C2330 C 0.23215 0.35753 0.06194 0.0
C2331 C 0.22 0.35354 0.07586 0.0
C2332 C 0.20615 0.33992 0.07191 0.0
C2333 C 0.20432 0.33111 0.05261 0.0
C2334 C 0.21648 0.33516 0.03859 0.0
H2335 H 0.25856 0.38484 0.00722 0.0
H2336 H 0.2402 0.37325 0.01914 0.0
H2337 H 0.25639 0.38487 0.03662 0.0
H2338 H 0.24298 0.3674 0.06646 0.0
H2339 H 0.22172 0.36058 0.09056 0.0
H2340 H 0.7028 0.69545 0.39749 0.0
H2341 H 0.72337 0.69119 0.40283 0.0
H2342 H 0.73302 0.69647 0.33313 0.0
H2343 H 0.71256 0.70106 0.32767 0.0
H2344 H 0.72643 0.66831 0.38441 0.0
H2345 H 0.77428 0.72512 0.36121 0.0
H2346 H 0.75582 0.72173 0.36676 0.0
H2347 H 0.75957 0.7154 0.34086 0.0
C2348 C 0.70933 0.6958 0.38328 0.0
C2349 C 0.70604 0.69863 0.36216 0.0
C2350 C 0.72109 0.69335 0.38637 0.0
C2351 C 0.72984 0.69367 0.36843 0.0
C2352 C 0.72661 0.69646 0.34728 0.0
H2353 H 0.78673 0.65641 0.39486 0.0
H2354 H 0.77082 0.6624 0.37344 0.0
C2355 C 0.71485 0.699 0.34418 0.0
C2356 C 0.74198 0.69055 0.37208 0.0
H2357 H 0.78003 0.70682 0.37139 0.0
C2358 C 0.73815 0.67666 0.38136 0.0
C2359 C 0.75725 0.70151 0.36814 0.0
C2360 C 0.76206 0.71684 0.35886 0.0
C2361 C 0.74916 0.67361 0.38759 0.0
C2362 C 0.76447 0.68462 0.38388 0.0
C2363 C 0.76829 0.69833 0.37395 0.0
C2364 C 0.7766 0.68283 0.39283 0.0
C2365 C 0.74433 0.65898 0.39924 0.0
C2366 C 0.78601 0.69298 0.40963 0.0
C2367 C 0.7953 0.68975 0.42159 0.0
C2368 C 0.79529 0.67626 0.41703 0.0
C2369 C 0.78698 0.66689 0.39877 0.0
C2370 C 0.77774 0.67019 0.38669 0.0
H2371 H 0.73247 0.65325 0.4047 0.0
H2372 H 0.74538 0.65096 0.38778 0.0
H2373 H 0.75154 0.6612 0.41394 0.0
H2374 H 0.78544 0.70288 0.41452 0.0
H2375 H 0.80177 0.69731 0.43535 0.0
H2376 H 0.30704 0.00979 0.37768 0.0
H2377 H 0.3117 0.03547 0.3841 0.0
H2378 H 0.31894 0.04373 0.31439 0.0
H2379 H 0.31415 0.01792 0.30772 0.0
H2380 H 0.33842 0.06284 0.37374 0.0
H2381 H 0.28873 0.05696 0.33102 0.0
H2382 H 0.28957 0.04066 0.339 0.0
H2383 H 0.29976 0.05121 0.31536 0.0
C2384 C 0.30952 0.017 0.36366 0.0
C2385 C 0.31023 0.01179 0.34218 0.0
C2386 C 0.31219 0.03168 0.36736 0.0
C2387 C 0.31553 0.04144 0.3497 0.0
C2388 C 0.31614 0.03628 0.3282 0.0
H2389 H 0.35458 0.13856 0.38334 0.0
H2390 H 0.34895 0.1158 0.36113 0.0
C2391 C 0.31349 0.02156 0.32445 0.0
C2392 C 0.31904 0.05723 0.35419 0.0
H2393 H 0.3059 0.08105 0.34748 0.0
C2394 C 0.33142 0.0669 0.36781 0.0
C2395 C 0.30981 0.06241 0.34649 0.0
C2396 C 0.29614 0.05228 0.33227 0.0
C2397 C 0.33462 0.08149 0.37449 0.0
C2398 C 0.32532 0.08666 0.36698 0.0
C2399 C 0.31311 0.07712 0.35294 0.0
C2400 C 0.32721 0.10119 0.37573 0.0
C2401 C 0.34749 0.09093 0.39042 0.0
C2402 C 0.31638 0.10075 0.39004 0.0
C2403 C 0.31948 0.11374 0.40252 0.0
C2404 C 0.33348 0.1274 0.4009 0.0
C2405 C 0.34369 0.12822 0.3849 0.0
C2406 C 0.34055 0.11519 0.37236 0.0
H2407 H 0.35177 0.08415 0.3977 0.0
H2408 H 0.35686 0.1005 0.38155 0.0
H2409 H 0.34402 0.09587 0.40408 0.0
H2410 H 0.30597 0.09007 0.39277 0.0
H2411 H 0.31135 0.11284 0.41457 0.0
H2412 H 0.99642 0.30896 0.3714 0.0
H2413 H 0.97234 0.28611 0.37956 0.0
H2414 H 0.96296 0.27602 0.3098 0.0
H2415 H 0.987 0.29904 0.30142 0.0
H2416 H 0.93838 0.27227 0.3338 0.0
H2417 H 0.96315 0.2424 0.37263 0.0
H2418 H 0.97005 0.26109 0.38474 0.0
H2419 H 0.97404 0.25907 0.35627 0.0
C2420 C 0.98926 0.30191 0.35776 0.0
C2421 C 0.9937 0.30578 0.33575 0.0
C2422 C 0.97552 0.2888 0.36246 0.0
C2423 C 0.96599 0.27922 0.34528 0.0
C2424 C 0.9702 0.28321 0.32329 0.0
H2425 H 0.89295 0.1903 0.3863 0.0
H2426 H 0.91242 0.20918 0.36243 0.0
C2427 C 0.98395 0.29636 0.31855 0.0
C2428 C 0.95163 0.26508 0.35046 0.0
H2429 H 0.9372 0.23266 0.37984 0.0
C2430 C 0.93809 0.26348 0.34361 0.0
C2431 C 0.95126 0.25346 0.36281 0.0
C2432 C 0.96541 0.25398 0.36934 0.0
C2433 C 0.92417 0.25097 0.34988 0.0
C2434 C 0.92384 0.23993 0.36362 0.0
C2435 C 0.9374 0.24114 0.36942 0.0
C2436 C 0.90984 0.22781 0.37392 0.0
C2437 C 0.91 0.24979 0.34185 0.0
C2438 C 0.90148 0.23183 0.38765 0.0
C2439 C 0.89023 0.22102 0.40107 0.0
C2440 C 0.88725 0.20602 0.4013 0.0
C2441 C 0.89486 0.20172 0.38636 0.0
C2442 C 0.90608 0.21253 0.37283 0.0
H2443 H 0.91179 0.25539 0.32577 0.0
H2444 H 0.90066 0.23771 0.33994 0.0
H2445 H 0.90663 0.25573 0.35401 0.0
H2446 H 0.90431 0.24357 0.38916 0.0
H2447 H 0.88448 0.22465 0.41231 0.0
H2448 H 0.04358 0.3879 0.31323 0.0
H2449 H 0.04124 0.40937 0.30325 0.0
H2450 H 0.00879 0.39852 0.3549 0.0
H2451 H 0.01123 0.37713 0.36528 0.0
H2452 H 0.01578 0.40778 0.28879 0.0
H2453 H 0.03749 0.44447 0.36511 0.0
H2454 H 0.04035 0.42886 0.35929 0.0
H2455 H 0.02261 0.42516 0.36952 0.0
C2456 C 0.03603 0.39014 0.32262 0.0
C2457 C 0.02759 0.38079 0.34007 0.0
C2458 C 0.03471 0.40243 0.31689 0.0
C2459 C 0.02498 0.40568 0.32851 0.0
C2460 C 0.0166 0.39643 0.34602 0.0
H2461 H 0.99358 0.46017 0.26975 0.0
H2462 H 0.99437 0.44072 0.29096 0.0
C2463 C 0.01794 0.38414 0.35182 0.0
C2464 C 0.02301 0.41817 0.3213 0.0
H2465 H 0.02678 0.45211 0.33784 0.0
C2466 C 0.01816 0.41746 0.29953 0.0
C2467 C 0.02624 0.43084 0.3353 0.0
C2468 C 0.03209 0.43251 0.35855 0.0
C2469 C 0.01649 0.42907 0.29131 0.0
C2470 C 0.01943 0.4416 0.30542 0.0
C2471 C 0.02432 0.44237 0.3272 0.0
C2472 C 0.01829 0.45437 0.29716 0.0
C2473 C 0.01201 0.42802 0.26737 0.0
C2474 C 0.03129 0.46884 0.295 0.0
C2475 C 0.03083 0.48003 0.28312 0.0
C2476 C 0.01736 0.47686 0.2732 0.0
C2477 C 0.00412 0.46285 0.2771 0.0
C2478 C 0.00457 0.45172 0.2891 0.0
H2479 H 0.01351 0.41958 0.25763 0.0
H2480 H 0.99999 0.42437 0.26639 0.0
H2481 H 0.01869 0.43928 0.25959 0.0
H2482 H 0.04198 0.47112 0.30118 0.0
H2483 H 0.04122 0.49067 0.28021 0.0
H2484 H 0.61565 0.66588 0.36572 0.0
H2485 H 0.59416 0.64027 0.35712 0.0
H2486 H 0.61997 0.63368 0.30694 0.0
H2487 H 0.64131 0.65934 0.315 0.0
H2488 H 0.59289 0.62588 0.29179 0.0
H2489 H 0.58665 0.59877 0.37217 0.0
H2490 H 0.58617 0.61595 0.37415 0.0
H2491 H 0.60306 0.61681 0.36542 0.0
C2492 C 0.61678 0.65894 0.35295 0.0
C2493 C 0.6302 0.66467 0.34103 0.0
C2494 C 0.60451 0.64424 0.34818 0.0
C2495 C 0.60551 0.63495 0.33162 0.0
C2496 C 0.61894 0.64062 0.31984 0.0
H2497 H 0.55093 0.54001 0.29375 0.0
H2498 H 0.568 0.56421 0.3135 0.0
C2499 C 0.63114 0.65532 0.32446 0.0
C2500 C 0.59239 0.61964 0.32553 0.0
H2501 H 0.56761 0.58431 0.34521 0.0
C2502 C 0.58735 0.61681 0.3035 0.0
C2503 C 0.58525 0.60777 0.34078 0.0
C2504 C 0.59062 0.60988 0.3644 0.0
C2505 C 0.57551 0.60244 0.29619 0.0
C2506 C 0.56813 0.59064 0.31152 0.0
C2507 C 0.57311 0.59345 0.3336 0.0
C2508 C 0.55596 0.57509 0.3043 0.0
C2509 C 0.57143 0.59991 0.2719 0.0
C2510 C 0.54302 0.57286 0.29383 0.0
C2511 C 0.53336 0.55911 0.2824 0.0
C2512 C 0.53631 0.54727 0.28174 0.0
C2513 C 0.54833 0.54891 0.29424 0.0
C2514 C 0.55813 0.56276 0.30541 0.0
H2515 H 0.58048 0.60882 0.26169 0.0
H2516 H 0.56911 0.58858 0.26579 0.0
H2517 H 0.56117 0.60034 0.26936 0.0
H2518 H 0.54095 0.58211 0.29321 0.0
H2519 H 0.52416 0.55809 0.27283 0.0
H2520 H 0.33859 0.95637 0.34611 0.0
H2521 H 0.36183 0.95692 0.33843 0.0
H2522 H 0.38678 0.00611 0.34411 0.0
H2523 H 0.36366 0.00565 0.35237 0.0
H2524 H 0.37917 0.96944 0.30342 0.0
H2525 H 0.41343 0.99677 0.37906 0.0
H2526 H 0.39353 0.98938 0.37806 0.0
H2527 H 0.40665 0.00789 0.3675 0.0
C2528 C 0.34905 0.96731 0.34605 0.0
C2529 C 0.34927 0.98097 0.34981 0.0
C2530 C 0.36234 0.96759 0.3417 0.0
C2531 C 0.3761 0.98154 0.34101 0.0
C2532 C 0.37638 0.99519 0.34514 0.0
H2533 H 0.46008 0.01218 0.27891 0.0
H2534 H 0.43992 0.00976 0.30269 0.0
C2535 C 0.36311 0.99491 0.34967 0.0
C2536 C 0.38985 0.98185 0.33373 0.0
H2537 H 0.42668 0.99604 0.34677 0.0
C2538 C 0.38947 0.97504 0.31309 0.0
C2539 C 0.40333 0.98923 0.3463 0.0
C2540 C 0.40425 0.9961 0.36906 0.0
C2541 C 0.4023 0.97583 0.30432 0.0
C2542 C 0.41585 0.9835 0.31664 0.0
C2543 C 0.41623 0.99012 0.33744 0.0
C2544 C 0.42986 0.98556 0.30717 0.0
C2545 C 0.4014 0.96896 0.28152 0.0
C2546 C 0.43131 0.97291 0.30289 0.0
C2547 C 0.4428 0.97425 0.28931 0.0
C2548 C 0.45297 0.98828 0.27981 0.0
C2549 C 0.45232 0.00122 0.28589 0.0
C2550 C 0.44084 0.99987 0.2995 0.0
H2551 H 0.39081 0.9657 0.27275 0.0
H2552 H 0.411 0.97712 0.27131 0.0
H2553 H 0.40197 0.95856 0.28296 0.0
H2554 H 0.42296 0.96179 0.30881 0.0
H2555 H 0.44294 0.96406 0.28479 0.0
H2556 H 0.63144 0.9935 0.36843 0.0
H2557 H 0.61051 0.99629 0.35783 0.0
H2558 H 0.59794 0.96177 0.30615 0.0
H2559 H 0.61892 0.95906 0.31635 0.0
H2560 H 0.60038 0.9879 0.29161 0.0
H2561 H 0.56524 0.9684 0.3669 0.0
H2562 H 0.5845 0.98315 0.37179 0.0
H2563 H 0.58003 0.96464 0.3615 0.0
C2564 C 0.62413 0.98639 0.35494 0.0
C2565 C 0.62688 0.97608 0.3432 0.0
C2566 C 0.61211 0.98793 0.34901 0.0
C2567 C 0.60256 0.9791 0.33139 0.0
C2568 C 0.60515 0.96865 0.31987 0.0
H2569 H 0.51975 0.96428 0.27928 0.0
H2570 H 0.53862 0.9632 0.30143 0.0
C2571 C 0.61716 0.96713 0.32572 0.0
C2572 C 0.5905 0.98144 0.3238 0.0
H2573 H 0.55786 0.97908 0.33923 0.0
C2574 C 0.5911 0.98599 0.30204 0.0
C2575 C 0.57836 0.97884 0.33741 0.0
C2576 C 0.57686 0.97336 0.36065 0.0
C2577 C 0.57988 0.98797 0.29343 0.0
C2578 C 0.56786 0.98565 0.30713 0.0
C2579 C 0.56721 0.98106 0.32891 0.0
C2580 C 0.55552 0.98712 0.2984 0.0
C2581 C 0.58077 0.99209 0.2695 0.0
C2582 C 0.55851 0.00111 0.29051 0.0
C2583 C 0.54779 0.00174 0.27783 0.0
C2584 C 0.53385 0.98842 0.27308 0.0
C2585 C 0.53035 0.97474 0.28284 0.0
C2586 C 0.54114 0.97409 0.2954 0.0
H2587 H 0.58877 0.99009 0.26005 0.0
H2588 H 0.56958 0.98538 0.26133 0.0
H2589 H 0.58465 0.00438 0.26863 0.0
H2590 H 0.56947 0.01134 0.29299 0.0
H2591 H 0.55071 0.01244 0.2706 0.0
H2592 H 0.02055 0.66549 0.31615 0.0
H2593 H 0.0185 0.64101 0.30863 0.0
H2594 H 0.03779 0.64398 0.37262 0.0
H2595 H 0.0397 0.66844 0.38046 0.0
H2596 H 0.04229 0.63638 0.30716 0.0
H2597 H 1.00074 0.60035 0.37023 0.0
H2598 H 0.0035 0.61845 0.36247 0.0
H2599 H 0.01674 0.61793 0.38048 0.0
C2600 C 0.02424 0.66091 0.32874 0.0
C2601 C 0.0303 0.66895 0.34891 0.0
C2602 C 0.02306 0.6469 0.32441 0.0
C2603 C 0.02785 0.6406 0.34015 0.0
C2604 C 0.03377 0.64849 0.3604 0.0
H2605 H 0.04395 0.56955 0.29185 0.0
H2606 H 0.04654 0.59034 0.31609 0.0
C2607 C 0.03493 0.66252 0.36478 0.0
C2608 C 0.02743 0.62624 0.33461 0.0
H2609 H 0.01102 0.5888 0.348 0.0
C2610 C 0.03555 0.62601 0.3162 0.0
C2611 C 0.01858 0.61272 0.3464 0.0
C2612 C 0.00928 0.61224 0.36591 0.0
C2613 C 0.0348 0.61256 0.30887 0.0
C2614 C 0.02593 0.599 0.32061 0.0
C2615 C 0.018 0.59927 0.33929 0.0
C2616 C 0.0235 0.58422 0.31197 0.0
C2617 C 0.04294 0.61284 0.28798 0.0
C2618 C 0.0094 0.57319 0.30323 0.0
C2619 C 0.00785 0.56119 0.28967 0.0
C2620 C 0.02039 0.56009 0.28459 0.0
C2621 C 0.03408 0.57008 0.29551 0.0
C2622 C 0.03561 0.58207 0.30917 0.0
H2623 H 0.04688 0.62343 0.27873 0.0
H2624 H 0.05289 0.61223 0.29229 0.0
H2625 H 0.03557 0.60287 0.27688 0.0
H2626 H 0.99988 0.57457 0.30533 0.0
H2627 H 0.99714 0.55356 0.28161 0.0
H2628 H 0.34231 0.38482 0.36346 0.0
H2629 H 0.36701 0.40678 0.3548 0.0
H2630 H 0.36954 0.38208 0.29767 0.0
H2631 H 0.34472 0.36027 0.30584 0.0
H2632 H 0.39431 0.41007 0.35179 0.0
H2633 H 0.37848 0.42128 0.2709 0.0
H2634 H 0.36472 0.40843 0.29017 0.0
H2635 H 0.37428 0.40205 0.27213 0.0
C2636 C 0.34809 0.38409 0.34898 0.0
C2637 C 0.34148 0.37084 0.33522 0.0
C2638 C 0.36222 0.39665 0.34409 0.0
C2639 C 0.37001 0.3962 0.32536 0.0
C2640 C 0.36357 0.38286 0.31187 0.0
H2641 H 0.46268 0.44669 0.2914 0.0
H2642 H 0.43901 0.43098 0.31065 0.0
C2643 C 0.3494 0.37035 0.31663 0.0
C2644 C 0.38495 0.40957 0.32 0.0
H2645 H 0.40477 0.43303 0.27804 0.0
C2646 C 0.39658 0.41523 0.33576 0.0
C2647 C 0.38784 0.41656 0.2993 0.0
C2648 C 0.37562 0.41188 0.28226 0.0
C2649 C 0.41117 0.42723 0.331 0.0
C2650 C 0.41428 0.43348 0.30972 0.0
C2651 C 0.40248 0.42822 0.29433 0.0
C2652 C 0.42974 0.44474 0.30232 0.0
C2653 C 0.42305 0.43306 0.34885 0.0
C2654 C 0.4326 0.45788 0.29147 0.0
C2655 C 0.44604 0.4667 0.28016 0.0
C2656 C 0.45693 0.46266 0.27982 0.0
C2657 C 0.45458 0.45023 0.29198 0.0
C2658 C 0.44104 0.44126 0.303 0.0
H2659 H 0.41801 0.43139 0.36555 0.0
H2660 H 0.42877 0.42654 0.34774 0.0
H2661 H 0.43157 0.44537 0.34713 0.0
H2662 H 0.42406 0.46078 0.29062 0.0
H2663 H 0.44754 0.47607 0.2705 0.0
H2664 H 0.33066 0.30124 0.30568 0.0
H2665 H 0.33507 0.28079 0.31407 0.0
H2666 H 0.30037 0.26436 0.36325 0.0
H2667 H 0.29584 0.28471 0.35497 0.0
H2668 H 0.34369 0.27658 0.35605 0.0
H2669 H 0.29039 0.22526 0.32743 0.0
H2670 H 0.29643 0.24422 0.31856 0.0
H2671 H 0.28792 0.2381 0.34516 0.0
C2672 C 0.32384 0.29318 0.31812 0.0
C2673 C 0.3129 0.29462 0.32968 0.0
C2674 C 0.32638 0.2815 0.32286 0.0
C2675 C 0.3179 0.27093 0.33903 0.0
C2676 C 0.30683 0.2722 0.35038 0.0
H2677 H 0.31756 0.20551 0.41959 0.0
H2678 H 0.31147 0.22027 0.39582 0.0
C2679 C 0.30434 0.28392 0.34574 0.0
C2680 C 0.3214 0.25933 0.34539 0.0
H2681 H 0.30575 0.22106 0.35166 0.0
C2682 C 0.33552 0.26441 0.35475 0.0
C2683 C 0.31068 0.2435 0.34369 0.0
C2684 C 0.29554 0.2374 0.33298 0.0
C2685 C 0.33894 0.25414 0.36361 0.0
C2686 C 0.32805 0.2383 0.36252 0.0
C2687 C 0.31411 0.23318 0.35238 0.0
C2688 C 0.33034 0.22715 0.37405 0.0
C2689 C 0.35385 0.26045 0.37521 0.0
C2690 C 0.34251 0.22542 0.369 0.0
C2691 C 0.3461 0.21707 0.38274 0.0
C2692 C 0.3375 0.21026 0.40161 0.0
C2693 C 0.32453 0.21085 0.40536 0.0
C2694 C 0.321 0.21923 0.39174 0.0
H2695 H 0.3596 0.27297 0.37852 0.0
H2696 H 0.35239 0.25482 0.39116 0.0
H2697 H 0.36129 0.25826 0.36464 0.0
H2698 H 0.34966 0.23115 0.3551 0.0
H2699 H 0.35616 0.21682 0.37943 0.0
H2700 H 0.70823 0.01289 0.30199 0.0
H2701 H 0.73131 0.03756 0.30937 0.0
H2702 H 0.72009 0.03497 0.37848 0.0
H2703 H 0.69719 0.01022 0.37138 0.0
H2704 H 0.73625 0.06497 0.32709 0.0
H2705 H 0.76203 0.04182 0.37999 0.0
H2706 H 0.74574 0.02973 0.36288 0.0
H2707 H 0.74377 0.03692 0.3894 0.0
C2708 C 0.71067 0.01757 0.31877 0.0
C2709 C 0.70094 0.00951 0.33614 0.0
C2710 C 0.72386 0.03168 0.32293 0.0
C2711 C 0.72755 0.03795 0.34453 0.0
C2712 C 0.71763 0.03015 0.36177 0.0
H2713 H 0.78424 0.1267 0.40053 0.0
H2714 H 0.76526 0.10487 0.37856 0.0
C2715 C 0.7045 0.01604 0.35766 0.0
C2716 C 0.74178 0.05262 0.34921 0.0
H2717 H 0.77287 0.06887 0.38235 0.0
C2718 C 0.74438 0.06583 0.33896 0.0
C2719 C 0.75255 0.05367 0.36426 0.0
C2720 C 0.75098 0.03975 0.37458 0.0
C2721 C 0.75709 0.08021 0.34428 0.0
C2722 C 0.76729 0.08139 0.36059 0.0
C2723 C 0.76504 0.06804 0.36995 0.0
C2724 C 0.77966 0.09629 0.36969 0.0
C2725 C 0.75941 0.09395 0.33247 0.0
C2726 C 0.79422 0.09898 0.37174 0.0
C2727 C 0.80503 0.1113 0.38475 0.0
C2728 C 0.80146 0.12117 0.39596 0.0
C2729 C 0.78729 0.1192 0.3923 0.0
C2730 C 0.77645 0.1068 0.37949 0.0
H2731 H 0.75433 0.0907 0.31563 0.0
H2732 H 0.75379 0.09901 0.34183 0.0
H2733 H 0.7715 0.10279 0.33105 0.0
H2734 H 0.79696 0.09101 0.36437 0.0
H2735 H 0.81576 0.11236 0.38735 0.0
H2736 H 0.9917 0.71663 0.33728 0.0
H2737 H 0.96767 0.71494 0.3434 0.0
H2738 H 0.95345 0.67654 0.38502 0.0
H2739 H 0.97733 0.67814 0.37914 0.0
H2740 H 0.9365 0.68908 0.33654 0.0
H2741 H 0.95085 0.70926 0.42407 0.0
H2742 H 0.96479 0.71173 0.40403 0.0
H2743 H 0.95314 0.69358 0.41652 0.0
C2744 C 0.98342 0.70778 0.34766 0.0
C2745 C 0.9865 0.69761 0.35791 0.0
C2746 C 0.9697 0.70681 0.35106 0.0
C2747 C 0.95889 0.69573 0.36484 0.0
C2748 C 0.96174 0.68529 0.37453 0.0
H2749 H 0.86693 0.65716 0.39502 0.0
H2750 H 0.89004 0.6648 0.37479 0.0
C2751 C 0.97541 0.68622 0.37113 0.0
C2752 C 0.94484 0.69535 0.36999 0.0
H2753 H 0.92537 0.69827 0.4133 0.0
C2754 C 0.93408 0.69127 0.35324 0.0
C2755 C 0.94186 0.69847 0.3917 0.0
C2756 C 0.95331 0.70364 0.4101 0.0
C2757 C 0.92008 0.68953 0.35792 0.0
C2758 C 0.91678 0.6918 0.37992 0.0
C2759 C 0.92785 0.69652 0.39641 0.0
C2760 C 0.90169 0.68832 0.38694 0.0
C2761 C 0.90896 0.68522 0.3393 0.0
C2762 C 0.9003 0.69909 0.3999 0.0
C2763 C 0.88716 0.69467 0.41166 0.0
C2764 C 0.87514 0.67943 0.41049 0.0
C2765 C 0.87595 0.66903 0.39585 0.0
C2766 C 0.88918 0.67341 0.38427 0.0
H2767 H 0.91472 0.68901 0.32318 0.0
H2768 H 0.9015 0.6726 0.33819 0.0
H2769 H 0.9019 0.69023 0.3421 0.0
H2770 H 0.9098 0.71064 0.40224 0.0
H2771 H 0.88682 0.70284 0.423 0.0
H2772 H 0.36574 0.00729 0.65657 0.0
H2773 H 0.38672 0.00478 0.66791 0.0
H2774 H 0.40646 0.048 0.70378 0.0
H2775 H 0.38544 0.05049 0.6929 0.0
H2776 H 0.41809 0.02335 0.66258 0.0
H2777 H 0.40207 0.01844 0.75099 0.0
H2778 H 0.38976 0.01692 0.72908 0.0
H2779 H 0.40482 0.03536 0.73872 0.0
C2780 C 0.37458 0.0163 0.6668 0.0
C2781 C 0.37382 0.029 0.67406 0.0
C2782 C 0.38658 0.01486 0.67321 0.0
C2783 C 0.39801 0.02608 0.68698 0.0
C2784 C 0.39759 0.03905 0.69351 0.0
H2785 H 0.47203 0.03322 0.75948 0.0
H2786 H 0.45615 0.03924 0.73818 0.0
C2787 C 0.38558 0.04048 0.68722 0.0
C2788 C 0.41006 0.02394 0.69528 0.0
H2789 H 0.42521 0.02057 0.74281 0.0
C2790 C 0.41966 0.02272 0.68011 0.0
C2791 C 0.412 0.023 0.71815 0.0
C2792 C 0.40154 0.02334 0.73519 0.0
C2793 C 0.43138 0.02092 0.68729 0.0
C2794 C 0.43341 0.0202 0.71017 0.0
C2795 C 0.42374 0.02131 0.72527 0.0
C2796 C 0.4452 0.01791 0.71916 0.0
C2797 C 0.44163 0.02007 0.67042 0.0
C2798 C 0.44474 0.00417 0.71491 0.0
C2799 C 0.45388 1.00074 0.72701 0.0
C2800 C 0.46348 0.01095 0.74368 0.0
C2801 C 0.4647 0.02515 0.74675 0.0
C2802 C 0.45562 0.02858 0.73462 0.0
H2803 H 0.44095 0.02452 0.65428 0.0
H2804 H 0.45346 0.0266 0.67635 0.0
H2805 H 0.43831 0.00797 0.66771 0.0
H2806 H 0.4366 0.99566 0.70333 0.0
H2807 H 0.45258 0.98963 0.72454 0.0
H2808 H 0.98361 0.34464 0.70628 0.0
H2809 H 0.98578 0.36916 0.71377 0.0
H2810 H 0.95426 0.35955 0.66112 0.0
H2811 H 0.95224 0.33503 0.65314 0.0
H2812 H 0.97836 0.38935 0.66134 0.0
H2813 H 0.95399 0.37412 0.74489 0.0
H2814 H 0.96971 0.37177 0.74151 0.0
H2815 H 0.95299 0.36012 0.72509 0.0
C2816 C 0.97713 0.34771 0.69626 0.0
C2817 C 0.96764 0.33781 0.67924 0.0
C2818 C 0.97833 0.36172 0.70064 0.0
C2819 C 0.96994 0.36604 0.68831 0.0
C2820 C 0.96075 0.35638 0.67093 0.0
H2821 H 0.96673 0.44211 0.74806 0.0
H2822 H 0.95797 0.41821 0.72682 0.0
C2823 C 0.9596 0.34237 0.66643 0.0
C2824 C 0.97075 0.3806 0.69383 0.0
H2825 H 0.96755 0.40071 0.73706 0.0
C2826 C 0.9758 0.3918 0.6778 0.0
C2827 C 0.96706 0.38365 0.71511 0.0
C2828 C 0.96048 0.37171 0.73255 0.0
C2829 C 0.97803 0.40628 0.6829 0.0
C2830 C 0.97543 0.40971 0.70471 0.0
C2831 C 0.96966 0.3982 0.72035 0.0
C2832 C 0.97963 0.42533 0.71247 0.0
C2833 C 0.98319 0.41774 0.66488 0.0
C2834 C 0.99452 0.43759 0.71059 0.0
C2835 C 0.99941 0.45136 0.72231 0.0
C2836 C 0.98957 0.45297 0.73641 0.0
C2837 C 0.97446 0.44115 0.73709 0.0
C2838 C 0.9695 0.42748 0.72508 0.0
H2839 H 0.97919 0.41193 0.6484 0.0
H2840 H 0.97917 0.42572 0.6676 0.0
H2841 H 0.99564 0.42445 0.66457 0.0
H2842 H 0.00268 0.43615 0.70151 0.0
H2843 H 0.01119 0.46022 0.72191 0.0
H2844 H 0.65628 0.62369 0.64188 0.0
H2845 H 0.63211 0.6009 0.65045 0.0
H2846 H 0.63501 0.61867 0.71696 0.0
H2847 H 0.65923 0.64127 0.70872 0.0
H2848 H 0.62769 0.58892 0.7155 0.0
H2849 H 0.59125 0.5967 0.6581 0.0
H2850 H 0.60691 0.59674 0.64555 0.0
H2851 H 0.61019 0.6118 0.66493 0.0
C2852 C 0.65174 0.62278 0.6583 0.0
C2853 C 0.65969 0.63431 0.67462 0.0
C2854 C 0.63787 0.60979 0.66312 0.0
C2855 C 0.63167 0.60819 0.68425 0.0
C2856 C 0.63958 0.6197 0.70051 0.0
H2857 H 0.54657 0.55456 0.7432 0.0
H2858 H 0.5679 0.5726 0.72115 0.0
C2859 C 0.65343 0.63262 0.69577 0.0
C2860 C 0.61723 0.59431 0.68994 0.0
H2861 H 0.57955 0.57439 0.679 0.0
C2862 C 0.61718 0.58565 0.70741 0.0
C2863 C 0.60353 0.59016 0.67941 0.0
C2864 C 0.60286 0.59937 0.66107 0.0
C2865 C 0.60378 0.57321 0.71508 0.0
C2866 C 0.59004 0.56904 0.70459 0.0
C2867 C 0.59011 0.57748 0.68679 0.0
C2868 C 0.57548 0.55703 0.71359 0.0
C2869 C 0.6044 0.56514 0.73508 0.0
C2870 C 0.57214 0.542 0.71555 0.0
C2871 C 0.56003 0.53171 0.72839 0.0
C2872 C 0.55102 0.53628 0.73928 0.0
C2873 C 0.55348 0.55081 0.73532 0.0
C2874 C 0.56563 0.56111 0.72264 0.0
H2875 H 0.61537 0.57178 0.74388 0.0
H2876 H 0.59539 0.56307 0.74692 0.0
H2877 H 0.60274 0.55394 0.72976 0.0
H2878 H 0.57943 0.53853 0.70828 0.0
H2879 H 0.55846 0.52061 0.73111 0.0
H2880 H 0.68299 0.70541 0.66963 0.0
H2881 H 0.67835 0.72565 0.66121 0.0
H2882 H 0.72542 0.75927 0.6701 0.0
H2883 H 0.73016 0.7391 0.67894 0.0
H2884 H 0.7061 0.76836 0.68878 0.0
H2885 H 0.69066 0.74683 0.60185 0.0
H2886 H 0.67996 0.73287 0.62212 0.0
H2887 H 0.69977 0.74046 0.61988 0.0
C2888 C 0.69236 0.71711 0.6699 0.0
C2889 C 0.70698 0.72061 0.67471 0.0
C2890 C 0.68969 0.72866 0.66505 0.0
C2891 C 0.70158 0.74392 0.66469 0.0
C2892 C 0.7161 0.74755 0.67022 0.0
H2893 H 0.71426 0.82794 0.61811 0.0
H2894 H 0.71594 0.80949 0.64048 0.0
C2895 C 0.71879 0.73599 0.67518 0.0
C2896 C 0.69896 0.75598 0.6575 0.0
H2897 H 0.68745 0.76704 0.61323 0.0
C2898 C 0.702 0.7681 0.67229 0.0
C2899 C 0.69369 0.75563 0.63593 0.0
C2900 C 0.69095 0.74334 0.61893 0.0
C2901 C 0.69969 0.77979 0.66612 0.0
C2902 C 0.69438 0.77938 0.64456 0.0
C2903 C 0.69134 0.76724 0.62986 0.0
C2904 C 0.69257 0.79171 0.63614 0.0
C2905 C 0.7028 0.79236 0.68274 0.0
C2906 C 0.67878 0.78805 0.6269 0.0
C2907 C 0.67783 0.79854 0.61405 0.0
C2908 C 0.69067 0.81288 0.61021 0.0
C2909 C 0.70415 0.81705 0.62109 0.0
C2910 C 0.70512 0.80649 0.63387 0.0
H2911 H 0.70264 0.78883 0.69994 0.0
H2912 H 0.7141 0.80245 0.67969 0.0
H2913 H 0.69446 0.79586 0.68119 0.0
H2914 H 0.66897 0.7767 0.62842 0.0
H2915 H 0.66733 0.79506 0.60578 0.0
H2916 H 0.30761 0.99505 0.64698 0.0
H2917 H 0.28532 0.96989 0.63952 0.0
H2918 H 0.26607 0.97337 0.70112 0.0
H2919 H 0.28859 0.9984 0.70905 0.0
H2920 H 0.26147 0.94522 0.69465 0.0
H2921 H 0.24542 0.96198 0.61885 0.0
H2922 H 0.26412 0.96563 0.6171 0.0
H2923 H 0.25976 0.97579 0.63761 0.0
C2924 C 0.29863 0.99049 0.65894 0.0
C2925 C 0.29982 0.99879 0.67852 0.0
C2926 C 0.28585 0.97613 0.6546 0.0
C2927 C 0.27386 0.96989 0.66951 0.0
C2928 C 0.27513 0.978 0.6893 0.0
H2929 H 0.19074 0.89239 0.61668 0.0
H2930 H 0.20746 0.91611 0.63771 0.0
C2931 C 0.28801 0.99232 0.69378 0.0
C2932 C 0.26005 0.95488 0.66439 0.0
H2933 H 0.23383 0.93514 0.62392 0.0
C2934 C 0.25529 0.94304 0.67932 0.0
C2935 C 0.25174 0.95212 0.64467 0.0
C2936 C 0.25542 0.96461 0.62877 0.0
C2937 C 0.24288 0.92833 0.67454 0.0
C2938 C 0.23527 0.9253 0.65404 0.0
C2939 C 0.23967 0.93735 0.6396 0.0
C2940 C 0.22341 0.90968 0.64631 0.0
C2941 C 0.23807 0.91626 0.69156 0.0
C2942 C 0.22637 0.89784 0.64503 0.0
C2943 C 0.21659 0.88413 0.63354 0.0
C2944 C 0.20386 0.88218 0.62278 0.0
C2945 C 0.20039 0.89359 0.62516 0.0
C2946 C 0.21001 0.90717 0.637 0.0
H2947 H 0.24091 0.92146 0.70855 0.0
H2948 H 0.22583 0.90779 0.69059 0.0
H2949 H 0.24416 0.91021 0.68874 0.0
H2950 H 0.23679 0.89957 0.65146 0.0
H2951 H 0.21967 0.87563 0.63144 0.0
H2952 H 0.01852 0.31054 0.69398 0.0
H2953 H 0.04427 0.3166 0.68801 0.0
H2954 H 0.03452 0.30511 0.61857 0.0
H2955 H 0.00901 0.29939 0.62424 0.0
H2956 H 0.05566 0.29942 0.67171 0.0
H2957 H 0.07145 0.3477 0.61751 0.0
H2958 H 0.05464 0.33925 0.63393 0.0
H2959 H 0.05482 0.33068 0.60759 0.0
C2960 C 0.02188 0.30932 0.67744 0.0
C2961 C 0.01176 0.30464 0.65953 0.0
C2962 C 0.03659 0.31278 0.67407 0.0
C2963 C 0.0414 0.31163 0.65277 0.0
C2964 C 0.03117 0.30649 0.63505 0.0
H2965 H 0.10846 0.29867 0.59862 0.0
H2966 H 0.08824 0.2967 0.62148 0.0
C2967 C 0.01655 0.30314 0.63834 0.0
C2968 C 0.05707 0.31571 0.64879 0.0
H2969 H 0.08673 0.33664 0.61502 0.0
C2970 C 0.06259 0.30774 0.65959 0.0
C2971 C 0.06628 0.32686 0.63345 0.0
C2972 C 0.06156 0.33673 0.62265 0.0
C2973 C 0.0767 0.30994 0.65436 0.0
C2974 C 0.08531 0.3201 0.63753 0.0
C2975 C 0.08014 0.32872 0.62778 0.0
C2976 C 0.09896 0.32106 0.62816 0.0
C2977 C 0.08212 0.30125 0.66681 0.0
C2978 C 0.11191 0.33537 0.6245 0.0
C2979 C 0.12335 0.33651 0.61102 0.0
C2980 C 0.12213 0.32334 0.60121 0.0
C2981 C 0.10979 0.30897 0.60634 0.0
C2982 C 0.09823 0.30784 0.6195 0.0
H2983 H 0.07768 0.29911 0.68392 0.0
H2984 H 0.07793 0.28998 0.65837 0.0
H2985 H 0.09456 0.30748 0.66763 0.0
H2986 H 0.11275 0.34573 0.63095 0.0
H2987 H 0.13274 0.34771 0.60718 0.0
H2988 H 0.28507 0.2958 0.64168 0.0
H2989 H 0.26464 0.29955 0.63207 0.0
H2990 H 0.27263 0.32656 0.69209 0.0
H2991 H 0.29304 0.32274 0.70203 0.0
H2992 H 0.24143 0.30542 0.68179 0.0
H2993 H 0.27308 0.34112 0.61109 0.0
H2994 H 0.27143 0.32285 0.61054 0.0
H2995 H 0.28187 0.33656 0.63247 0.0
C2996 C 0.28245 0.30246 0.65294 0.0
C2997 C 0.2908 0.3091 0.67252 0.0
C2998 C 0.27079 0.30463 0.64738 0.0
C2999 C 0.2673 0.31353 0.66121 0.0
C3000 C 0.27521 0.31971 0.68117 0.0
H3001 H 0.21574 0.34747 0.60206 0.0
H3002 H 0.2334 0.34651 0.62716 0.0
C3003 C 0.28689 0.31754 0.68677 0.0
C3004 C 0.25579 0.31685 0.65428 0.0
H3005 H 0.24714 0.33257 0.61272 0.0
C3006 C 0.2427 0.31149 0.66682 0.0
C3007 C 0.25763 0.32504 0.63501 0.0
C3008 C 0.27182 0.33187 0.62159 0.0
C3009 C 0.23108 0.31354 0.66 0.0
C3010 C 0.23257 0.32097 0.64001 0.0
C3011 C 0.24594 0.32684 0.62803 0.0
C3012 C 0.22019 0.32197 0.63014 0.0
C3013 C 0.21734 0.30771 0.67422 0.0
C3014 C 0.20653 0.30859 0.62439 0.0
C3015 C 0.19633 0.30918 0.61033 0.0
C3016 C 0.19975 0.3231 0.60154 0.0
C3017 C 0.21283 0.33661 0.60872 0.0
C3018 C 0.22294 0.33605 0.62296 0.0
H3019 H 0.21999 0.30726 0.69181 0.0
H3020 H 0.21244 0.31498 0.67316 0.0
H3021 H 0.20877 0.29594 0.66851 0.0
H3022 H 0.20427 0.29756 0.62926 0.0
H3023 H 0.18644 0.29858 0.60472 0.0
H3024 H 0.69915 0.00543 0.63975 0.0
H3025 H 0.69598 0.98049 0.63181 0.0
H3026 H 0.68647 0.96942 0.70049 0.0
H3027 H 0.69009 0.99462 0.70872 0.0
H3028 H 0.70479 0.96061 0.68422 0.0
H3029 H 0.65683 0.94041 0.62687 0.0
H3030 H 0.67269 0.95807 0.61824 0.0
H3031 H 0.66376 0.95745 0.64413 0.0
C3032 C 0.69634 0.99768 0.65317 0.0
C3033 C 0.69475 0.00196 0.67484 0.0
C3034 C 0.69444 0.98338 0.64858 0.0
C3035 C 0.69062 0.97292 0.66545 0.0
C3036 C 0.68929 0.97725 0.68718 0.0
H3037 H 0.6618 0.88064 0.61785 0.0
H3038 H 0.66234 0.90107 0.64057 0.0
C3039 C 0.69135 0.99165 0.69185 0.0
C3040 C 0.68825 0.95759 0.66032 0.0
H3041 H 0.66974 0.92684 0.62473 0.0
C3042 C 0.69698 0.9531 0.67143 0.0
C3043 C 0.67778 0.9476 0.64405 0.0
C3044 C 0.66712 0.95105 0.63283 0.0
C3045 C 0.69606 0.93926 0.66588 0.0
C3046 C 0.68646 0.92987 0.64835 0.0
C3047 C 0.67722 0.93404 0.63804 0.0
C3048 C 0.68647 0.91627 0.6392 0.0
C3049 C 0.7054 0.9349 0.6789 0.0
C3050 C 0.69988 0.91769 0.63164 0.0
C3051 C 0.69958 0.90588 0.61913 0.0
C3052 C 0.68586 0.89257 0.61354 0.0
C3053 C 0.67253 0.89076 0.62213 0.0
C3054 C 0.67284 0.90246 0.63498 0.0
H3055 H 0.70728 0.93968 0.69611 0.0
H3056 H 0.70001 0.92232 0.67947 0.0
H3057 H 0.71655 0.93972 0.67106 0.0
H3058 H 0.71049 0.92833 0.63406 0.0
H3059 H 0.70997 0.90767 0.6123 0.0
H3060 H 0.01194 0.69372 0.65074 0.0
H3061 H 0.0372 0.71502 0.64342 0.0
H3062 H 0.03427 0.7404 0.69932 0.0
H3063 H 0.00909 0.71891 0.70717 0.0
H3064 H 0.0455 0.74318 0.63268 0.0
H3065 H 0.07485 0.74591 0.71012 0.0
H3066 H 0.05646 0.72995 0.70275 0.0
H3067 H 0.0586 0.74728 0.71445 0.0
C3068 C 0.01669 0.70378 0.66159 0.0
C3069 C 0.0085 0.70461 0.67956 0.0
C3070 C 0.03115 0.71595 0.6574 0.0
C3071 C 0.03774 0.72925 0.67099 0.0
C3072 C 0.02959 0.73013 0.68893 0.0
H3073 H 0.11328 0.81158 0.6171 0.0
H3074 H 0.09022 0.79501 0.63746 0.0
C3075 C 0.01514 0.71788 0.69328 0.0
C3076 C 0.05278 0.74239 0.66547 0.0
H3077 H 0.08856 0.76591 0.68513 0.0
C3078 C 0.0549 0.74816 0.64418 0.0
C3079 C 0.06508 0.7488 0.68043 0.0
C3080 C 0.06372 0.74259 0.70314 0.0
C3081 C 0.06896 0.75999 0.63729 0.0
C3082 C 0.0812 0.76666 0.65238 0.0
C3083 C 0.07911 0.76097 0.67374 0.0
C3084 C 0.09644 0.77869 0.64546 0.0
C3085 C 0.07066 0.76477 0.61357 0.0
C3086 C 0.10809 0.7757 0.64493 0.0
C3087 C 0.12142 0.7854 0.63386 0.0
C3088 C 0.12321 0.79813 0.62314 0.0
C3089 C 0.11215 0.80187 0.62543 0.0
C3090 C 0.09893 0.79232 0.63679 0.0
H3091 H 0.06128 0.75605 0.60293 0.0
H3092 H 0.07068 0.77554 0.61289 0.0
H3093 H 0.08136 0.76679 0.60654 0.0
H3094 H 0.10644 0.76529 0.6516 0.0
H3095 H 0.12974 0.7822 0.63199 0.0
H3096 H 0.00203 0.64397 0.7009 0.0
H3097 H 0.00383 0.62163 0.70672 0.0
H3098 H 0.95979 0.59248 0.67797 0.0
H3099 H 0.95793 0.61486 0.67183 0.0
H3100 H 0.98426 0.59758 0.73298 0.0
H3101 H 0.98508 0.57707 0.64717 0.0
H3102 H 0.9891 0.59612 0.65361 0.0
H3103 H 0.97007 0.58025 0.65326 0.0
C3104 C 0.99276 0.63284 0.69559 0.0
C3105 C 0.97981 0.6312 0.68597 0.0
C3106 C 0.99383 0.62008 0.6989 0.0
C3107 C 0.98202 0.60541 0.69257 0.0
C3108 C 0.96916 0.60372 0.6826 0.0
H3109 H 0.97133 0.52519 0.75299 0.0
H3110 H 0.9655 0.54204 0.73369 0.0
C3111 C 0.96807 0.61652 0.67925 0.0
C3112 C 0.98278 0.59192 0.69818 0.0
H3113 H 0.98385 0.56146 0.67619 0.0
C3114 C 0.98413 0.58967 0.72056 0.0
C3115 C 0.98271 0.58168 0.68192 0.0
C3116 C 0.98178 0.5839 0.65761 0.0
C3117 C 0.98546 0.57751 0.72716 0.0
C3118 C 0.98517 0.56712 0.71097 0.0
C3119 C 0.98386 0.56935 0.68854 0.0
C3120 C 0.98696 0.5544 0.7174 0.0
C3121 C 0.98752 0.57607 0.75145 0.0
C3122 C 1.00054 0.55511 0.71337 0.0
C3123 C 0.00383 0.54539 0.72422 0.0
C3124 C 0.99359 0.53491 0.73927 0.0
C3125 C 0.97941 0.53321 0.7415 0.0
C3126 C 0.9761 0.54285 0.73056 0.0
H3127 H 0.99052 0.58666 0.76118 0.0
H3128 H 0.97689 0.56657 0.75809 0.0
H3129 H 0.99642 0.57345 0.75398 0.0
H3130 H 0.00905 0.56397 0.70325 0.0
H3131 H 0.01488 0.54702 0.72238 0.0
H3132 H 0.38778 0.33774 0.66571 0.0
H3133 H 0.40813 0.36402 0.67372 0.0
H3134 H 0.37585 0.37772 0.68256 0.0
H3135 H 0.35541 0.3514 0.67516 0.0
H3136 H 0.41739 0.39197 0.65516 0.0
H3137 H 0.39804 0.39033 0.74142 0.0
H3138 H 0.39067 0.37343 0.72376 0.0
H3139 H 0.38419 0.38637 0.72073 0.0
C3140 C 0.385 0.34635 0.66925 0.0
C3141 C 0.36996 0.34244 0.67011 0.0
C3142 C 0.39665 0.36138 0.67374 0.0
C3143 C 0.39349 0.37277 0.67911 0.0
C3144 C 0.37853 0.36904 0.67893 0.0
H3145 H 0.45027 0.46333 0.73803 0.0
H3146 H 0.43082 0.44276 0.71454 0.0
C3147 C 0.36686 0.354 0.67465 0.0
C3148 C 0.40578 0.3883 0.68608 0.0
H3149 H 0.41866 0.41361 0.73009 0.0
C3150 C 0.41766 0.39676 0.67149 0.0
C3151 C 0.40613 0.39449 0.70745 0.0
C3152 C 0.39417 0.38565 0.72434 0.0
C3153 C 0.42988 0.41126 0.67775 0.0
C3154 C 0.43025 0.41735 0.69917 0.0
C3155 C 0.41826 0.40899 0.71357 0.0
C3156 C 0.44336 0.43177 0.70795 0.0
C3157 C 0.4423 0.41994 0.66147 0.0
C3158 C 0.45713 0.4328 0.71117 0.0
C3159 C 0.46827 0.44457 0.72455 0.0
C3160 C 0.46573 0.45538 0.73508 0.0
C3161 C 0.45248 0.4551 0.73018 0.0
C3162 C 0.44137 0.44337 0.71679 0.0
H3163 H 0.43843 0.41591 0.64418 0.0
H3164 H 0.44672 0.43238 0.66295 0.0
H3165 H 0.45164 0.41814 0.66494 0.0
H3166 H 0.45881 0.42384 0.70487 0.0
H3167 H 0.47827 0.44437 0.72826 0.0
H3168 H 0.66059 0.05333 0.66724 0.0
H3169 H 0.63716 0.05252 0.67528 0.0
H3170 H 0.61949 0.00917 0.7059 0.0
H3171 H 0.64273 0.00983 0.69803 0.0
H3172 H 0.60497 0.02805 0.66466 0.0
H3173 H 0.61909 0.03947 0.75418 0.0
H3174 H 0.63299 0.04344 0.73326 0.0
H3175 H 0.62068 0.02423 0.74197 0.0
C3176 C 0.65167 0.04357 0.67553 0.0
C3177 C 0.6536 0.03171 0.68217 0.0
C3178 C 0.63829 0.04312 0.68004 0.0
C3179 C 0.62669 0.03086 0.69135 0.0
C3180 C 0.62839 0.0188 0.69732 0.0
H3181 H 0.53513 0.99437 0.72285 0.0
H3182 H 0.5582 0.00245 0.70226 0.0
C3183 C 0.64169 0.0192 0.69279 0.0
C3184 C 0.61309 0.03091 0.69809 0.0
H3185 H 0.59405 0.0311 0.74395 0.0
C3186 C 0.6026 0.02891 0.68195 0.0
C3187 C 0.61019 0.03227 0.72061 0.0
C3188 C 0.62137 0.03511 0.73854 0.0
C3189 C 0.58893 0.02754 0.68792 0.0
C3190 C 0.58567 0.02805 0.71058 0.0
C3191 C 0.59649 0.03071 0.72657 0.0
C3192 C 0.57082 0.02479 0.71853 0.0
C3193 C 0.57809 0.02548 0.66995 0.0
C3194 C 0.57004 0.03479 0.73405 0.0
C3195 C 0.55691 0.03011 0.74598 0.0
C3196 C 0.54431 0.01536 0.74251 0.0
C3197 C 0.54462 0.00589 0.72556 0.0
C3198 C 0.55782 0.01052 0.71377 0.0
H3199 H 0.58402 0.03045 0.65427 0.0
H3200 H 0.57008 0.0131 0.6667 0.0
H3201 H 0.57159 0.03084 0.67484 0.0
H3202 H 0.57992 0.04584 0.73802 0.0
H3203 H 0.55695 0.03758 0.75906 0.0
loop_
_geom_bond_atom_site_label_1
_geom_bond_atom_site_label_2
_geom_bond_distance
_geom_bond_site_symmetry_2
_ccdc_geom_bond_type
C0 O1 1.160 . S
C0 O7 1.185 . S
O1 C0 1.160 . S
O2 Zn3 1.899 1_656 S
O2 C10 1.284 1_556 S
Zn3 O2 1.899 1_454 S
Zn3 O4 2.032 . S
Zn3 O7 2.086 . S
Zn3 O12 1.977 1_554 S
O4 Zn3 2.032 . S
O4 C8 1.278 1_455 S
C5 O6 1.203 1_455 S
C5 O12 1.267 . S
O6 C5 1.203 1_655 S
O7 C0 1.185 . S
O7 Zn3 2.086 . S
C8 O4 1.278 1_655 S
C8 O9 1.211 . S
O9 C8 1.211 . S
C10 O2 1.284 1_554 S
C10 O11 1.273 . S
O11 C10 1.273 . S
O12 Zn3 1.977 1_556 S
O12 C5 1.267 . S
C13 O14 1.151 1_554 S
C13 O20 1.199 . S
O14 C13 1.151 1_556 S
O15 Zn16 1.899 . S
O15 C23 1.284 . S
Zn16 O15 1.899 . S
Zn16 O17 2.032 1_554 S
Zn16 O20 2.086 . S
Zn16 O25 1.977 . S
O17 Zn16 2.032 1_556 S
O17 C21 1.278 . S
C18 O19 1.203 . S
C18 O25 1.267 . S
O19 C18 1.203 . S
O20 C13 1.199 . S
O20 Zn16 2.086 . S
C21 O17 1.278 . S
C21 O22 1.211 . S
O22 C21 1.211 . S
C23 O15 1.284 . S
C23 O24 1.273 . S
O24 C23 1.273 . S
O25 Zn16 1.977 . S
O25 C18 1.267 . S
C26 O27 1.160 1_554 S
C26 O33 1.185 . S
O27 C26 1.160 1_556 S
O28 Zn29 1.899 1_565 S
O28 C36 1.284 . S
Zn29 O28 1.899 1_545 S
Zn29 O30 2.032 1_554 S
Zn29 O33 2.086 . S
Zn29 O38 1.977 . S
O30 Zn29 2.032 1_556 S
O30 C34 1.278 . S
C31 O32 1.203 1_545 S
C31 O38 1.267 . S
O32 C31 1.203 1_565 S
O33 C26 1.185 . S
O33 Zn29 2.086 . S
C34 O30 1.278 . S
C34 O35 1.211 1_545 S
O35 C34 1.211 1_565 S
C36 O28 1.284 . S
C36 O37 1.273 . S
O37 C36 1.273 . S
O38 Zn29 1.977 . S
O38 C31 1.267 . S
C39 O40 1.160 . S
C39 O46 1.185 1_556 S
O40 C39 1.160 . S
O41 Zn42 1.899 1_455 S
O41 C49 1.284 . S
Zn42 O41 1.899 1_655 S
Zn42 O43 2.032 1_554 S
Zn42 O46 2.086 . S
Zn42 O51 1.977 . S
O43 Zn42 2.032 1_556 S
O43 C47 1.278 1_655 S
C44 O45 1.143 1_655 S
C44 O51 1.329 . S
O45 C44 1.143 1_455 S
O46 C39 1.185 1_554 S
O46 Zn42 2.086 . S
C47 O43 1.278 1_455 S
C47 O48 1.211 . S
O48 C47 1.211 . S
C49 O41 1.284 . S
C49 O50 1.273 . S
O50 C49 1.273 . S
O51 Zn42 1.977 . S
O51 C44 1.329 . S
C52 O53 1.160 . S
C52 O59 1.185 . S
O53 C52 1.160 . S
O54 Zn55 1.899 1_556 S
O54 C62 1.284 . S
Zn55 O54 1.899 1_554 S
Zn55 O56 2.032 . S
Zn55 O59 2.086 . S
Zn55 O64 1.977 1_554 S
O56 Zn55 2.032 . S
O56 C60 1.278 . S
C57 O58 1.203 . S
C57 O64 1.267 . S
O58 C57 1.203 . S
O59 C52 1.185 . S
O59 Zn55 2.086 . S
C60 O56 1.278 . S
C60 O61 1.211 . S
O61 C60 1.211 . S
C62 O54 1.284 . S
C62 O63 1.273 1_556 S
O63 C62 1.273 1_554 S
O64 Zn55 1.977 1_556 S
O64 C57 1.267 . S
C65 O66 1.160 . S
C65 O72 1.185 . S
O66 C65 1.160 . S
O67 Zn68 1.899 1_546 S
O67 C75 1.284 . S
Zn68 O67 1.899 1_564 S
Zn68 O69 2.055 . S
Zn68 O72 2.086 . S
Zn68 O77 1.977 1_554 S
O69 Zn68 2.055 . S
O69 C73 1.204 1_565 S
C70 O71 1.203 1_565 S
C70 O77 1.267 . S
O71 C70 1.203 1_545 S
O72 C65 1.185 . S
O72 Zn68 2.086 . S
C73 O69 1.204 1_545 S
C73 O74 1.211 . S
O74 C73 1.211 . S
C75 O67 1.284 . S
C75 O76 1.273 1_556 S
O76 C75 1.273 1_554 S
O77 Zn68 1.977 1_556 S
O77 C70 1.267 . S
C78 O79 1.160 . S
C78 O85 1.185 . S
O79 C78 1.160 . S
O80 Zn81 1.899 . S
O80 C88 1.284 . S
Zn81 O80 1.899 . S
Zn81 O82 2.032 . S
Zn81 O85 2.086 . S
Zn81 O90 1.977 . S
O82 Zn81 2.032 . S
O82 C86 1.278 . S
C83 O84 1.203 . S
C83 O90 1.267 . S
O84 C83 1.203 . S
O85 C78 1.185 . S
O85 Zn81 2.086 . S
C86 O82 1.278 . S
C86 O87 1.211 . S
O87 C86 1.211 . S
C88 O80 1.284 . S
C88 O89 1.273 . S
O89 C88 1.273 . S
O90 Zn81 1.977 . S
O90 C83 1.267 . S
C91 O92 1.165 . S
C91 O98 1.185 . S
O92 C91 1.165 . S
O93 Zn94 1.899 1_545 S
O93 C101 1.284 . S
Zn94 O93 1.899 1_565 S
Zn94 O95 2.032 . S
Zn94 O98 2.086 . S
Zn94 O103 1.977 . S
O95 Zn94 2.032 . S
O95 C99 1.278 . S
C96 O97 1.203 . S
C96 O103 1.267 . S
O97 C96 1.203 . S
O98 C91 1.185 . S
O98 Zn94 2.086 . S
C99 O95 1.278 . S
C99 O100 1.211 . S
O100 C99 1.211 . S
C101 O93 1.284 . S
C101 O102 1.277 . S
O102 C101 1.277 . S
O103 Zn94 1.977 . S
O103 C96 1.267 . S
C104 O105 1.160 . S
C104 O111 1.185 . S
O105 C104 1.160 . S
O106 Zn107 1.899 . S
O106 C114 1.284 1_455 S
Zn107 O106 1.899 . S
Zn107 O108 2.032 . S
Zn107 O111 2.086 . S
Zn107 O116 1.977 . S
O108 Zn107 2.032 . S
O108 C112 1.278 . S
C109 O110 1.203 . S
C109 O116 1.267 . S
O110 C109 1.203 . S
O111 C104 1.185 . S
O111 Zn107 2.086 . S
C112 O108 1.278 . S
C112 O113 1.211 . S
O113 C112 1.211 . S
C114 O106 1.284 1_655 S
C114 O115 1.273 1_655 S
O115 C114 1.273 1_455 S
O116 Zn107 1.977 . S
O116 C109 1.267 . S
C117 O118 1.161 1_565 S
C117 O124 1.185 . S
O118 C117 1.161 1_545 S
O119 Zn120 1.899 1_545 S
O119 C127 1.284 . S
Zn120 O119 1.899 1_565 S
Zn120 O121 2.032 . S
Zn120 O124 2.086 . S
Zn120 O129 1.977 . S
O121 Zn120 2.032 . S
O121 C125 1.278 . S
C122 O123 1.203 . S
C122 O129 1.267 . S
O123 C122 1.203 . S
O124 C117 1.185 . S
O124 Zn120 2.086 . S
C125 O121 1.278 . S
C125 O126 1.211 . S
O126 C125 1.211 . S
C127 O119 1.284 . S
C127 O128 1.273 . S
O128 C127 1.273 . S
O129 Zn120 1.977 . S
O129 C122 1.267 . S
C130 O131 1.160 . S
C130 O137 1.185 . S
O131 C130 1.160 . S
O132 Zn133 1.899 . S
O132 C140 1.284 . S
Zn133 O132 1.899 . S
Zn133 O134 2.032 . S
Zn133 O137 2.086 1_455 S
Zn133 O142 1.977 . S
O134 Zn133 2.032 . S
O134 C138 1.278 . S
C135 O136 1.203 . S
C135 O142 1.267 . S
O136 C135 1.203 . S
O137 C130 1.185 . S
O137 Zn133 2.086 1_655 S
C138 O134 1.278 . S
C138 O139 1.211 . S
O139 C138 1.211 . S
C140 O132 1.284 . S
C140 O141 1.273 . S
O141 C140 1.273 . S
O142 Zn133 1.977 . S
O142 C135 1.267 . S
C143 O144 1.160 . S
C143 O150 1.185 . S
O144 C143 1.160 . S
O145 Zn146 1.899 . S
O145 C153 1.284 . S
Zn146 O145 1.899 . S
Zn146 O147 2.032 . S
Zn146 O150 2.086 . S
Zn146 O155 1.977 . S
O147 Zn146 2.032 . S
O147 C151 1.278 . S
C148 O149 1.203 . S
C148 O155 1.267 . S
O149 C148 1.203 . S
O150 C143 1.185 . S
O150 Zn146 2.086 . S
C151 O147 1.278 . S
C151 O152 1.211 . S
O152 C151 1.211 . S
C153 O145 1.284 . S
C153 O154 1.273 . S
O154 C153 1.273 . S
O155 Zn146 1.977 . S
O155 C148 1.267 . S
C156 O157 1.160 . S
C156 O163 1.185 . S
O157 C156 1.160 . S
O158 Zn159 1.899 . S
O158 C166 1.284 1_545 S
Zn159 O158 1.899 . S
Zn159 O160 2.032 . S
Zn159 O163 2.086 . S
Zn159 O168 1.977 . S
O160 Zn159 2.032 . S
O160 C164 1.278 . S
C161 O162 1.203 . S
C161 O168 1.267 . S
O162 C161 1.203 . S
O163 C156 1.185 . S
O163 Zn159 2.086 . S
C164 O160 1.278 . S
C164 O165 1.211 . S
O165 C164 1.211 . S
C166 O158 1.284 1_565 S
C166 O167 1.273 1_565 S
O167 C166 1.273 1_545 S
O168 Zn159 1.977 . S
O168 C161 1.267 . S
C169 O170 1.160 . S
C169 O176 1.185 . S
O170 C169 1.160 . S
O171 Zn172 1.899 . S
O171 C179 1.284 . S
Zn172 O171 1.899 . S
Zn172 O173 2.032 . S
Zn172 O176 2.086 1_655 S
Zn172 O181 1.977 . S
O173 Zn172 2.032 . S
O173 C177 1.278 . S
C174 O175 1.203 . S
C174 O181 1.267 . S
O175 C174 1.203 . S
O176 C169 1.185 . S
O176 Zn172 2.086 1_455 S
C177 O173 1.278 . S
C177 O178 1.211 . S
O178 C177 1.211 . S
C179 O171 1.284 . S
C179 O180 1.273 . S
O180 C179 1.273 . S
O181 Zn172 1.977 . S
O181 C174 1.267 . S
C182 O183 1.160 . S
C182 O189 1.185 . S
O183 C182 1.160 . S
O184 Zn185 1.899 . S
O184 C192 1.284 . S
Zn185 O184 1.899 . S
Zn185 O186 2.032 . S
Zn185 O189 2.086 . S
Zn185 O194 1.977 . S
O186 Zn185 2.032 . S
O186 C190 1.278 . S
C187 O188 1.203 . S
C187 O194 1.267 . S
O188 C187 1.203 . S
O189 C182 1.185 . S
O189 Zn185 2.086 . S
C190 O186 1.278 . S
C190 O191 1.211 . S
O191 C190 1.211 . S
C192 O184 1.284 . S
C192 O193 1.273 . S
O193 C192 1.273 . S
O194 Zn185 1.977 . S
O194 C187 1.267 . S
C195 O196 1.160 . S
C195 O202 1.185 . S
O196 C195 1.160 . S
O197 Zn198 1.899 . S
O197 C205 1.284 . S
Zn198 O197 1.899 . S
Zn198 O199 2.032 . S
Zn198 O202 2.086 . S
Zn198 O207 1.977 . S
O199 Zn198 2.032 . S
O199 C203 1.278 . S
C200 O201 1.203 . S
C200 O207 1.267 . S
O201 C200 1.203 . S
O202 C195 1.185 . S
O202 Zn198 2.086 . S
C203 O199 1.278 . S
C203 O204 1.211 . S
O204 C203 1.211 . S
C205 O197 1.284 . S
C205 O206 1.273 . S
O206 C205 1.273 . S
O207 Zn198 1.977 . S
O207 C200 1.267 . S
C208 O209 1.160 . S
C208 O215 1.185 . S
O209 C208 1.160 . S
O210 Zn211 1.899 . S
O210 C218 1.284 1_545 S
Zn211 O210 1.899 . S
Zn211 O212 2.032 . S
Zn211 O215 2.086 . S
Zn211 O220 1.977 . S
O212 Zn211 2.032 . S
O212 C216 1.278 . S
C213 O214 1.203 . S
C213 O220 1.267 . S
O214 C213 1.203 . S
O215 C208 1.185 . S
O215 Zn211 2.086 . S
C216 O212 1.278 . S
C216 O217 1.211 . S
O217 C216 1.211 . S
C218 O210 1.284 1_565 S
C218 O219 1.273 1_565 S
O219 C218 1.273 1_545 S
O220 Zn211 1.977 . S
O220 C213 1.267 . S
C221 O222 1.160 . S
C221 O228 1.185 . S
O222 C221 1.160 . S
O223 Zn224 1.899 . S
O223 C231 1.284 1_655 S
Zn224 O223 1.899 . S
Zn224 O225 2.032 . S
Zn224 O228 2.086 . S
Zn224 O233 1.977 . S
O225 Zn224 2.032 . S
O225 C229 1.278 . S
C226 O227 1.203 . S
C226 O233 1.267 . S
O227 C226 1.203 . S
O228 C221 1.185 . S
O228 Zn224 2.086 . S
C229 O225 1.278 . S
C229 O230 1.211 . S
O230 C229 1.211 . S
C231 O223 1.284 1_455 S
C231 O232 1.273 1_455 S
O232 C231 1.273 1_655 S
O233 Zn224 1.977 . S
O233 C226 1.267 . S
H234 C242 0.930 . S
H235 C245 0.930 . S
H236 C247 0.930 . S
H237 C248 0.970 . S
H238 C248 0.970 . S
H239 C250 0.930 . S
H240 C252 0.930 . S
H241 C254 0.930 . S
C242 H234 0.930 . S
C242 C243 1.382 . S
C242 C244 1.426 . S
C243 C242 1.382 . S
C243 C247 1.389 . S
C244 C242 1.426 . S
C244 C245 1.375 . S
C244 C248 1.532 . S
C245 H235 0.930 . S
C245 C244 1.375 . S
C245 C246 1.416 . S
C246 C245 1.416 . S
C246 C247 1.371 . S
C247 H236 0.930 . S
C247 C243 1.389 . S
C247 C246 1.371 . S
C248 H237 0.970 . S
C248 H238 0.970 . S
C248 C244 1.532 . S
C248 C249 1.499 . S
C249 C248 1.499 . S
C249 C250 1.370 . S
C249 C254 1.415 . S
C250 H239 0.930 . S
C250 C249 1.370 . S
C250 C251 1.407 . S
C251 C250 1.407 . S
C251 C252 1.365 . S
C252 H240 0.930 . S
C252 C251 1.365 . S
C252 C253 1.393 . S
C253 C252 1.393 . S
C253 C254 1.387 . S
C254 H241 0.930 . S
C254 C249 1.415 . S
C254 C253 1.387 . S
H255 C263 0.930 . S
H256 C266 0.930 . S
H257 C268 0.930 . S
H258 C269 0.970 . S
H259 C269 0.970 . S
H260 C271 0.930 . S
H261 C273 0.930 . S
H262 C275 0.930 . S
C263 H255 0.930 . S
C263 C264 1.382 . S
C263 C265 1.426 . S
C264 C263 1.382 . S
C264 C268 1.389 . S
C265 C263 1.426 . S
C265 C266 1.375 . S
C265 C269 1.532 . S
C266 H256 0.930 . S
C266 C265 1.375 . S
C266 C267 1.416 . S
C267 C266 1.416 . S
C267 C268 1.371 . S
C268 H257 0.930 . S
C268 C264 1.389 . S
C268 C267 1.371 . S
C269 H258 0.970 . S
C269 H259 0.970 . S
C269 C265 1.532 . S
C269 C270 1.499 . S
C270 C269 1.499 . S
C270 C271 1.370 . S
C270 C275 1.415 . S
C271 H260 0.930 . S
C271 C270 1.370 . S
C271 C272 1.407 . S
C272 C271 1.407 . S
C272 C273 1.365 . S
C273 H261 0.930 . S
C273 C272 1.365 . S
C273 C274 1.393 . S
C274 C273 1.393 . S
C274 C275 1.387 . S
C275 H262 0.930 . S
C275 C270 1.415 . S
C275 C274 1.387 . S
H276 C284 0.930 . S
H277 C287 0.930 . S
H278 C289 0.930 . S
H279 C290 0.970 . S
H280 C290 0.970 . S
H281 C292 0.930 . S
H282 C294 0.930 . S
H283 C296 0.930 . S
C284 H276 0.930 . S
C284 C285 1.382 . S
C284 C286 1.426 . S
C285 C284 1.382 . S
C285 C289 1.389 . S
C286 C284 1.426 . S
C286 C287 1.375 . S
C286 C290 1.532 . S
C287 H277 0.930 . S
C287 C286 1.375 . S
C287 C288 1.416 . S
C288 C287 1.416 . S
C288 C289 1.371 . S
C289 H278 0.930 . S
C289 C285 1.389 . S
C289 C288 1.371 . S
C290 H279 0.970 . S
C290 H280 0.970 . S
C290 C286 1.532 . S
C290 C291 1.499 . S
C291 C290 1.499 . S
C291 C292 1.370 . S
C291 C296 1.415 . S
C292 H281 0.930 . S
C292 C291 1.370 . S
C292 C293 1.407 . S
C293 C292 1.407 . S
C293 C294 1.365 . S
C294 H282 0.930 . S
C294 C293 1.365 . S
C294 C295 1.393 . S
C295 C294 1.393 . S
C295 C296 1.387 . S
C296 H283 0.930 . S
C296 C291 1.415 . S
C296 C295 1.387 . S
H297 C305 0.930 . S
H298 C308 0.930 . S
H299 C310 0.930 . S
H300 C311 0.970 . S
H301 C311 0.970 . S
H302 C313 0.930 . S
H303 C315 0.930 . S
H304 C317 0.930 . S
C305 H297 0.930 . S
C305 C306 1.382 . S
C305 C307 1.426 . S
C306 C305 1.382 . S
C306 C310 1.389 . S
C307 C305 1.426 . S
C307 C308 1.375 . S
C307 C311 1.532 . S
C308 H298 0.930 . S
C308 C307 1.375 . S
C308 C309 1.416 . S
C309 C308 1.416 . S
C309 C310 1.371 . S
C310 H299 0.930 . S
C310 C306 1.389 . S
C310 C309 1.371 . S
C311 H300 0.970 . S
C311 H301 0.970 . S
C311 C307 1.532 . S
C311 C312 1.499 . S
C312 C311 1.499 . S
C312 C313 1.370 . S
C312 C317 1.415 . S
C313 H302 0.930 . S
C313 C312 1.370 . S
C313 C314 1.407 . S
C314 C313 1.407 . S
C314 C315 1.365 . S
C315 H303 0.930 . S
C315 C314 1.365 . S
C315 C316 1.393 . S
C316 C315 1.393 . S
C316 C317 1.387 . S
C317 H304 0.930 . S
C317 C312 1.415 . S
C317 C316 1.387 . S
H318 C326 0.930 . S
H319 C329 0.930 . S
H320 C331 0.930 . S
H321 C332 0.970 . S
H322 C332 0.970 . S
H323 C334 0.930 . S
H324 C336 0.930 . S
H325 C338 0.930 . S
C326 H318 0.930 . S
C326 C327 1.382 . S
C326 C328 1.426 . S
C327 C326 1.382 . S
C327 C331 1.389 . S
C328 C326 1.426 . S
C328 C329 1.375 . S
C328 C332 1.532 . S
C329 H319 0.930 . S
C329 C328 1.375 . S
C329 C330 1.416 . S
C330 C329 1.416 . S
C330 C331 1.371 . S
C331 H320 0.930 . S
C331 C327 1.389 . S
C331 C330 1.371 . S
C332 H321 0.970 . S
C332 H322 0.970 . S
C332 C328 1.532 . S
C332 C333 1.499 . S
C333 C332 1.499 . S
C333 C334 1.370 . S
C333 C338 1.415 . S
C334 H323 0.930 . S
C334 C333 1.370 . S
C334 C335 1.407 . S
C335 C334 1.407 . S
C335 C336 1.365 . S
C336 H324 0.930 . S
C336 C335 1.365 . S
C336 C337 1.393 . S
C337 C336 1.393 . S
C337 C338 1.387 . S
C338 H325 0.930 . S
C338 C333 1.415 . S
C338 C337 1.387 . S
H339 C347 0.930 . S
H340 C350 0.930 . S
H341 C352 0.930 . S
H342 C353 0.970 . S
H343 C353 0.970 . S
H344 C355 0.930 . S
H345 C357 0.930 . S
H346 C359 0.930 . S
C347 H339 0.930 . S
C347 C348 1.382 . S
C347 C349 1.426 . S
C348 C347 1.382 . S
C348 C352 1.389 . S
C349 C347 1.426 . S
C349 C350 1.375 . S
C349 C353 1.532 . S
C350 H340 0.930 . S
C350 C349 1.375 . S
C350 C351 1.416 . S
C351 C350 1.416 . S
C351 C352 1.371 . S
C352 H341 0.930 . S
C352 C348 1.389 . S
C352 C351 1.371 . S
C353 H342 0.970 . S
C353 H343 0.970 . S
C353 C349 1.532 . S
C353 C354 1.499 . S
C354 C353 1.499 . S
C354 C355 1.370 . S
C354 C359 1.415 . S
C355 H344 0.930 . S
C355 C354 1.370 . S
C355 C356 1.407 . S
C356 C355 1.407 . S
C356 C357 1.365 . S
C357 H345 0.930 . S
C357 C356 1.365 . S
C357 C358 1.393 . S
C358 C357 1.393 . S
C358 C359 1.387 . S
C359 H346 0.930 . S
C359 C354 1.415 . S
C359 C358 1.387 . S
H360 C368 0.930 . S
H361 C371 0.930 . S
H362 C373 0.930 . S
H363 C374 0.970 . S
H364 C374 0.970 . S
H365 C376 0.930 . S
H366 C378 0.930 . S
H367 C380 0.930 . S
C368 H360 0.930 . S
C368 C369 1.382 . S
C368 C370 1.426 . S
C369 C368 1.382 . S
C369 C373 1.389 . S
C370 C368 1.426 . S
C370 C371 1.375 . S
C370 C374 1.532 . S
C371 H361 0.930 . S
C371 C370 1.375 . S
C371 C372 1.416 . S
C372 C371 1.416 . S
C372 C373 1.371 . S
C373 H362 0.930 . S
C373 C369 1.389 . S
C373 C372 1.371 . S
C374 H363 0.970 . S
C374 H364 0.970 . S
C374 C370 1.532 . S
C374 C375 1.499 . S
C375 C374 1.499 . S
C375 C376 1.370 . S
C375 C380 1.415 . S
C376 H365 0.930 . S
C376 C375 1.370 . S
C376 C377 1.407 . S
C377 C376 1.407 . S
C377 C378 1.365 . S
C378 H366 0.930 . S
C378 C377 1.365 . S
C378 C379 1.393 . S
C379 C378 1.393 . S
C379 C380 1.387 . S
C380 H367 0.930 . S
C380 C375 1.415 . S
C380 C379 1.387 . S
H381 C389 0.930 . S
H382 C392 0.930 . S
H383 C394 0.930 . S
H384 C395 0.970 . S
H385 C395 0.970 . S
H386 C397 0.930 . S
H387 C399 0.930 . S
H388 C401 0.930 . S
C389 H381 0.930 . S
C389 C390 1.382 . S
C389 C391 1.426 . S
C390 C389 1.382 . S
C390 C394 1.389 . S
C391 C389 1.426 . S
C391 C392 1.375 . S
C391 C395 1.532 . S
C392 H382 0.930 . S
C392 C391 1.375 . S
C392 C393 1.416 . S
C393 C392 1.416 . S
C393 C394 1.371 . S
C394 H383 0.930 . S
C394 C390 1.389 . S
C394 C393 1.371 . S
C395 H384 0.970 . S
C395 H385 0.970 . S
C395 C391 1.532 . S
C395 C396 1.499 . S
C396 C395 1.499 . S
C396 C397 1.370 . S
C396 C401 1.415 . S
C397 H386 0.930 . S
C397 C396 1.370 . S
C397 C398 1.407 . S
C398 C397 1.407 . S
C398 C399 1.365 . S
C399 H387 0.930 . S
C399 C398 1.365 . S
C399 C400 1.393 . S
C400 C399 1.393 . S
C400 C401 1.387 . S
C401 H388 0.930 . S
C401 C396 1.415 . S
C401 C400 1.387 . S
H402 C410 0.930 . S
H403 C413 0.930 . S
H404 C415 0.930 . S
H405 C416 0.970 . S
H406 C416 0.970 . S
H407 C418 0.930 . S
H408 C420 0.930 . S
H409 C422 0.930 . S
C410 H402 0.930 . S
C410 C411 1.382 . S
C410 C412 1.426 . S
C411 C410 1.382 . S
C411 C415 1.389 . S
C412 C410 1.426 . S
C412 C413 1.375 . S
C412 C416 1.532 . S
C413 H403 0.930 . S
C413 C412 1.375 . S
C413 C414 1.416 . S
C414 C413 1.416 . S
C414 C415 1.371 . S
C415 H404 0.930 . S
C415 C411 1.389 . S
C415 C414 1.371 . S
C416 H405 0.970 . S
C416 H406 0.970 . S
C416 C412 1.532 . S
C416 C417 1.499 . S
C417 C416 1.499 . S
C417 C418 1.370 . S
C417 C422 1.415 . S
C418 H407 0.930 . S
C418 C417 1.370 . S
C418 C419 1.407 . S
C419 C418 1.407 . S
C419 C420 1.365 . S
C420 H408 0.930 . S
C420 C419 1.365 . S
C420 C421 1.393 . S
C421 C420 1.393 . S
C421 C422 1.387 . S
C422 H409 0.930 . S
C422 C417 1.415 . S
C422 C421 1.387 . S
H423 C431 0.930 . S
H424 C434 0.930 . S
H425 C436 0.930 . S
H426 C437 0.970 . S
H427 C437 0.970 . S
H428 C439 0.930 . S
H429 C441 0.930 . S
H430 C443 0.930 . S
C431 H423 0.930 . S
C431 C432 1.382 . S
C431 C433 1.426 . S
C432 C431 1.382 . S
C432 C436 1.389 1_455 S
C433 C431 1.426 . S
C433 C434 1.375 . S
C433 C437 1.532 . S
C434 H424 0.930 . S
C434 C433 1.375 . S
C434 C435 1.416 . S
C435 C434 1.416 . S
C435 C436 1.371 1_455 S
C436 H425 0.930 . S
C436 C432 1.389 1_655 S
C436 C435 1.371 1_655 S
C437 H426 0.970 . S
C437 H427 0.970 . S
C437 C433 1.532 . S
C437 C438 1.499 . S
C438 C437 1.499 . S
C438 C439 1.370 . S
C438 C443 1.415 . S
C439 H428 0.930 . S
C439 C438 1.370 . S
C439 C440 1.411 . S
C440 C439 1.411 . S
C440 C441 1.376 1_455 S
C441 H429 0.930 . S
C441 C440 1.376 1_655 S
C441 C442 1.393 1_655 S
C442 C441 1.393 1_455 S
C442 C443 1.387 . S
C443 H430 0.930 . S
C443 C438 1.415 . S
C443 C442 1.387 . S
H444 C452 0.930 . S
H445 C455 0.930 . S
H446 C457 0.930 . S
H447 C458 0.970 . S
H448 C458 0.970 . S
H449 C460 0.930 . S
H450 C462 0.930 . S
H451 C464 0.930 . S
C452 H444 0.930 . S
C452 C453 1.382 . S
C452 C454 1.426 . S
C453 C452 1.382 . S
C453 C457 1.389 . S
C454 C452 1.426 . S
C454 C455 1.375 . S
C454 C458 1.532 . S
C455 H445 0.930 . S
C455 C454 1.375 . S
C455 C456 1.416 . S
C456 C455 1.416 . S
C456 C457 1.371 . S
C457 H446 0.930 . S
C457 C453 1.389 . S
C457 C456 1.371 . S
C458 H447 0.970 . S
C458 H448 0.970 . S
C458 C454 1.532 . S
C458 C459 1.499 . S
C459 C458 1.499 . S
C459 C460 1.370 . S
C459 C464 1.415 . S
C460 H449 0.930 . S
C460 C459 1.370 . S
C460 C461 1.407 . S
C461 C460 1.407 . S
C461 C462 1.365 . S
C462 H450 0.930 . S
C462 C461 1.365 . S
C462 C463 1.393 . S
C463 C462 1.393 . S
C463 C464 1.387 . S
C464 H451 0.930 . S
C464 C459 1.415 . S
C464 C463 1.387 . S
H465 C473 0.930 . S
H466 C476 0.930 . S
H467 C478 0.934 . S
H468 C479 0.970 . S
H469 C479 0.970 . S
H470 C481 0.930 . S
H471 C483 0.930 . S
H472 C485 0.930 . S
C473 H465 0.930 . S
C473 C474 1.382 . S
C473 C475 1.426 . S
C474 C473 1.382 . S
C474 C478 1.394 1_565 S
C475 C473 1.426 . S
C475 C476 1.375 . S
C475 C479 1.532 . S
C476 H466 0.930 . S
C476 C475 1.375 . S
C476 C477 1.416 . S
C477 C476 1.416 . S
C477 C478 1.370 1_565 S
C478 H467 0.934 . S
C478 C474 1.394 1_545 S
C478 C477 1.370 1_545 S
C479 H468 0.970 . S
C479 H469 0.970 . S
C479 C475 1.532 . S
C479 C480 1.499 . S
C480 C479 1.499 . S
C480 C481 1.370 . S
C480 C485 1.415 . S
C481 H470 0.930 . S
C481 C480 1.370 . S
C481 C482 1.402 . S
C482 C481 1.402 . S
C482 C483 1.366 1_565 S
C483 H471 0.930 . S
C483 C482 1.366 1_545 S
C483 C484 1.393 1_545 S
C484 C483 1.393 1_565 S
C484 C485 1.387 . S
C485 H472 0.930 . S
C485 C480 1.415 . S
C485 C484 1.387 . S
H486 C494 0.930 . S
H487 C497 0.930 . S
H488 C499 0.930 . S
H489 C500 0.970 . S
H490 C500 0.970 . S
H491 C502 0.930 . S
H492 C504 0.930 . S
H493 C506 0.930 . S
C494 H486 0.930 . S
C494 C495 1.382 . S
C494 C496 1.426 . S
C495 C494 1.382 . S
C495 C499 1.389 1_565 S
C496 C494 1.426 . S
C496 C497 1.375 . S
C496 C500 1.532 . S
C497 H487 0.930 . S
C497 C496 1.375 . S
C497 C498 1.461 . S
C498 C497 1.461 . S
C498 C499 1.355 1_565 S
C499 H488 0.930 . S
C499 C495 1.389 1_545 S
C499 C498 1.355 1_545 S
C500 H489 0.970 . S
C500 H490 0.970 . S
C500 C496 1.532 . S
C500 C501 1.499 . S
C501 C500 1.499 . S
C501 C502 1.370 . S
C501 C506 1.415 . S
C502 H491 0.930 . S
C502 C501 1.370 . S
C502 C503 1.407 . S
C503 C502 1.407 . S
C503 C504 1.365 1_565 S
C504 H492 0.930 . S
C504 C503 1.365 1_545 S
C504 C505 1.393 1_545 S
C505 C504 1.393 1_565 S
C505 C506 1.387 . S
C506 H493 0.930 . S
C506 C501 1.415 . S
C506 C505 1.387 . S
H507 C515 0.930 . S
H508 C518 0.930 . S
H509 C520 0.934 . S
H510 C521 0.970 . S
H511 C521 0.970 . S
H512 C523 0.930 . S
H513 C525 0.930 . S
H514 C527 0.930 . S
C515 H507 0.930 . S
C515 C516 1.382 . S
C515 C517 1.426 . S
C516 C515 1.382 . S
C516 C520 1.382 1_455 S
C517 C515 1.426 . S
C517 C518 1.375 . S
C517 C521 1.532 . S
C518 H508 0.930 . S
C518 C517 1.375 . S
C518 C519 1.416 . S
C519 C518 1.416 . S
C519 C520 1.383 1_455 S
C520 H509 0.934 . S
C520 C516 1.382 1_655 S
C520 C519 1.383 1_655 S
C521 H510 0.970 . S
C521 H511 0.970 . S
C521 C517 1.532 . S
C521 C522 1.499 . S
C522 C521 1.499 . S
C522 C523 1.370 . S
C522 C527 1.415 . S
C523 H512 0.930 . S
C523 C522 1.370 . S
C523 C524 1.407 . S
C524 C523 1.407 . S
C524 C525 1.365 1_455 S
C525 H513 0.930 . S
C525 C524 1.365 1_655 S
C525 C526 1.393 1_655 S
C526 C525 1.393 1_455 S
C526 C527 1.387 . S
C527 H514 0.930 . S
C527 C522 1.415 . S
C527 C526 1.387 . S
H528 C536 0.930 . S
H529 C539 0.930 . S
H530 C541 0.930 . S
H531 C542 0.970 . S
H532 C542 0.970 . S
H533 C544 0.930 . S
H534 C546 0.930 . S
H535 C548 0.930 . S
C536 H528 0.930 . S
C536 C537 1.382 . S
C536 C538 1.426 . S
C537 C536 1.382 . S
C537 C541 1.389 . S
C538 C536 1.426 . S
C538 C539 1.375 . S
C538 C542 1.532 . S
C539 H529 0.930 . S
C539 C538 1.375 . S
C539 C540 1.416 . S
C540 C539 1.416 . S
C540 C541 1.371 . S
C541 H530 0.930 . S
C541 C537 1.389 . S
C541 C540 1.371 . S
C542 H531 0.970 . S
C542 H532 0.970 . S
C542 C538 1.532 . S
C542 C543 1.499 . S
C543 C542 1.499 . S
C543 C544 1.370 . S
C543 C548 1.415 . S
C544 H533 0.930 . S
C544 C543 1.370 . S
C544 C545 1.407 . S
C545 C544 1.407 . S
C545 C546 1.365 . S
C546 H534 0.930 . S
C546 C545 1.365 . S
C546 C547 1.393 . S
C547 C546 1.393 . S
C547 C548 1.387 . S
C548 H535 0.930 . S
C548 C543 1.415 . S
C548 C547 1.387 . S
H549 C557 0.930 . S
H550 C560 0.930 . S
H551 C562 0.930 . S
H552 C563 0.970 . S
H553 C563 0.970 . S
H554 C565 0.930 . S
H555 C567 0.930 . S
H556 C569 0.930 . S
C557 H549 0.930 . S
C557 C558 1.382 . S
C557 C559 1.426 . S
C558 C557 1.382 . S
C558 C562 1.389 . S
C559 C557 1.426 . S
C559 C560 1.375 . S
C559 C563 1.532 . S
C560 H550 0.930 . S
C560 C559 1.375 . S
C560 C561 1.416 . S
C561 C560 1.416 . S
C561 C562 1.371 . S
C562 H551 0.930 . S
C562 C558 1.389 . S
C562 C561 1.371 . S
C563 H552 0.970 . S
C563 H553 0.970 . S
C563 C559 1.532 . S
C563 C564 1.499 . S
C564 C563 1.499 . S
C564 C565 1.370 . S
C564 C569 1.415 . S
C565 H554 0.930 . S
C565 C564 1.370 . S
C565 C566 1.407 . S
C566 C565 1.407 . S
C566 C567 1.365 . S
C567 H555 0.930 . S
C567 C566 1.365 . S
C567 C568 1.393 . S
C568 C567 1.393 . S
C568 C569 1.387 . S
C569 H556 0.930 . S
C569 C564 1.415 . S
C569 C568 1.387 . S
H570 C578 0.930 . S
H571 C581 0.930 . S
H572 C583 0.930 . S
H573 C584 0.970 . S
H574 C584 0.970 . S
H575 C586 0.930 . S
H576 C588 0.930 . S
H577 C590 0.930 . S
C578 H570 0.930 . S
C578 C579 1.382 . S
C578 C580 1.426 . S
C579 C578 1.382 . S
C579 C583 1.389 . S
C580 C578 1.426 . S
C580 C581 1.375 . S
C580 C584 1.532 . S
C581 H571 0.930 . S
C581 C580 1.375 . S
C581 C582 1.416 . S
C582 C581 1.416 . S
C582 C583 1.371 . S
C583 H572 0.930 . S
C583 C579 1.389 . S
C583 C582 1.371 . S
C584 H573 0.970 . S
C584 H574 0.970 . S
C584 C580 1.532 . S
C584 C585 1.499 . S
C585 C584 1.499 . S
C585 C586 1.370 . S
C585 C590 1.415 . S
C586 H575 0.930 . S
C586 C585 1.370 . S
C586 C587 1.407 . S
C587 C586 1.407 . S
C587 C588 1.365 . S
C588 H576 0.930 . S
C588 C587 1.365 . S
C588 C589 1.393 . S
C589 C588 1.393 . S
C589 C590 1.387 . S
C590 H577 0.930 . S
C590 C585 1.415 . S
C590 C589 1.387 . S
H591 C599 0.930 . S
H592 C602 0.930 . S
H593 C604 0.930 . S
H594 C605 0.970 . S
H595 C605 0.970 . S
H596 C607 0.930 . S
H597 C609 0.930 . S
H598 C611 0.930 . S
C599 H591 0.930 . S
C599 C600 1.382 . S
C599 C601 1.426 . S
C600 C599 1.382 . S
C600 C604 1.389 . S
C601 C599 1.426 . S
C601 C602 1.375 . S
C601 C605 1.532 . S
C602 H592 0.930 . S
C602 C601 1.375 . S
C602 C603 1.416 . S
C603 C602 1.416 . S
C603 C604 1.371 . S
C604 H593 0.930 . S
C604 C600 1.389 . S
C604 C603 1.371 . S
C605 H594 0.970 . S
C605 H595 0.970 . S
C605 C601 1.532 . S
C605 C606 1.499 . S
C606 C605 1.499 . S
C606 C607 1.370 . S
C606 C611 1.415 . S
C607 H596 0.930 . S
C607 C606 1.370 . S
C607 C608 1.407 . S
C608 C607 1.407 . S
C608 C609 1.365 . S
C609 H597 0.930 . S
C609 C608 1.365 . S
C609 C610 1.393 . S
C610 C609 1.393 . S
C610 C611 1.387 . S
C611 H598 0.930 . S
C611 C606 1.415 . S
C611 C610 1.387 . S
H612 C620 0.929 . S
H613 C622 0.930 . S
H614 C624 0.918 . S
H615 C627 0.945 . S
H616 C630 0.930 . S
H617 C632 0.960 . S
H618 C632 0.960 . S
H619 C632 0.960 . S
C620 H612 0.929 . S
C620 C621 1.377 . S
C620 C622 1.384 . S
C621 C620 1.377 . S
C621 C627 1.406 1_655 S
C622 H613 0.930 . S
C622 C620 1.384 . S
C622 C623 1.372 . S
C623 C622 1.372 . S
C623 C624 1.390 1_655 S
C623 C628 1.490 . S
C624 H614 0.918 . S
C624 C623 1.390 1_455 S
C624 C627 1.382 . S
H625 C641 0.930 . S
H626 C642 0.931 . S
C627 H615 0.945 . S
C627 C621 1.406 1_455 S
C627 C624 1.382 . S
C628 C623 1.490 . S
C628 C630 1.395 1_655 S
C628 C631 1.403 . S
H629 C635 0.930 . S
C630 H616 0.930 . S
C630 C628 1.395 1_455 S
C630 C633 1.403 . S
C631 C628 1.403 . S
C631 C632 1.524 . S
C631 C635 1.400 . S
C632 H617 0.960 . S
C632 H618 0.960 . S
C632 H619 0.960 . S
C632 C631 1.524 . S
C633 C630 1.403 . S
C633 C634 1.392 1_455 S
C633 C637 1.495 . S
C634 C633 1.392 1_655 S
C634 C635 1.385 . S
C634 C636 1.449 . S
C635 H629 0.930 . S
C635 C631 1.400 . S
C635 C634 1.385 . S
C636 C634 1.449 . S
C636 C638 1.408 . S
C636 C642 1.396 1_655 S
C637 C633 1.495 . S
C637 H643 0.959 . S
C637 H644 0.961 . S
C637 H645 0.960 . S
C638 C636 1.408 . S
C638 C639 1.394 . S
C638 H646 0.930 . S
C639 C638 1.394 . S
C639 C640 1.383 . S
C639 H647 0.929 . S
C640 C639 1.383 . S
C640 C641 1.377 1_655 S
C641 H625 0.930 . S
C641 C640 1.377 1_455 S
C641 C642 1.379 . S
C642 H626 0.931 . S
C642 C636 1.396 1_455 S
C642 C641 1.379 . S
H643 C637 0.959 . S
H644 C637 0.961 . S
H645 C637 0.960 . S
H646 C638 0.930 . S
H647 C639 0.929 . S
H648 C656 0.929 . S
H649 C658 0.930 . S
H650 C660 0.930 . S
H651 C663 0.929 . S
H652 C666 0.930 . S
H653 C668 0.960 . S
H654 C668 0.960 . S
H655 C668 0.960 . S
C656 H648 0.929 . S
C656 C657 1.377 . S
C656 C658 1.384 . S
C657 C656 1.377 . S
C657 C663 1.390 . S
C658 H649 0.930 . S
C658 C656 1.384 . S
C658 C659 1.372 . S
C659 C658 1.372 . S
C659 C660 1.400 . S
C659 C664 1.490 . S
C660 H650 0.930 . S
C660 C659 1.400 . S
C660 C663 1.386 . S
H661 C677 0.930 . S
H662 C678 0.931 . S
C663 H651 0.929 . S
C663 C657 1.390 . S
C663 C660 1.386 . S
C664 C659 1.490 . S
C664 C666 1.395 . S
C664 C667 1.403 . S
H665 C671 0.930 . S
C666 H652 0.930 . S
C666 C664 1.395 . S
C666 C669 1.403 . S
C667 C664 1.403 . S
C667 C668 1.524 . S
C667 C671 1.400 . S
C668 H653 0.960 . S
C668 H654 0.960 . S
C668 H655 0.960 . S
C668 C667 1.524 . S
C669 C666 1.403 . S
C669 C670 1.392 . S
C669 C673 1.495 . S
C670 C669 1.392 . S
C670 C671 1.385 . S
C670 C672 1.478 . S
C671 H665 0.930 . S
C671 C667 1.400 . S
C671 C670 1.385 . S
C672 C670 1.478 . S
C672 C674 1.381 . S
C672 C678 1.383 . S
C673 C669 1.495 . S
C673 H679 0.959 . S
C673 H680 0.961 . S
C673 H681 0.960 . S
C674 C672 1.381 . S
C674 C675 1.394 . S
C674 H682 0.930 . S
C675 C674 1.394 . S
C675 C676 1.383 . S
C675 H683 0.929 . S
C676 C675 1.383 . S
C676 C677 1.377 . S
C677 H661 0.930 . S
C677 C676 1.377 . S
C677 C678 1.379 . S
C678 H662 0.931 . S
C678 C672 1.383 . S
C678 C677 1.379 . S
H679 C673 0.959 . S
H680 C673 0.961 . S
H681 C673 0.960 . S
H682 C674 0.930 . S
H683 C675 0.929 . S
H684 C692 0.929 . S
H685 C694 0.930 . S
H686 C696 0.930 1_565 S
H687 C699 0.929 1_565 S
H688 C702 0.928 . S
H689 C704 0.960 . S
H690 C704 0.960 . S
H691 C704 0.960 . S
C692 H684 0.929 . S
C692 C693 1.377 . S
C692 C694 1.384 . S
C693 C692 1.377 . S
C693 C699 1.390 . S
C694 H685 0.930 . S
C694 C692 1.384 . S
C694 C695 1.372 . S
C695 C694 1.372 . S
C695 C696 1.400 . S
C695 C700 1.490 . S
C696 H686 0.930 1_545 S
C696 C695 1.400 . S
C696 C699 1.386 . S
H697 C713 0.930 . S
H698 C714 0.931 . S
C699 H687 0.929 1_545 S
C699 C693 1.390 . S
C699 C696 1.386 . S
C700 C695 1.490 . S
C700 C702 1.395 . S
C700 C703 1.403 . S
H701 C707 0.930 . S
C702 H688 0.928 . S
C702 C700 1.395 . S
C702 C705 1.403 . S
C703 C700 1.403 . S
C703 C704 1.524 . S
C703 C707 1.400 . S
C704 H689 0.960 . S
C704 H690 0.960 . S
C704 H691 0.960 . S
C704 C703 1.524 . S
C705 C702 1.403 . S
C705 C706 1.392 . S
C705 C709 1.495 1_545 S
C706 C705 1.392 . S
C706 C707 1.385 . S
C706 C708 1.478 . S
C707 H701 0.930 . S
C707 C703 1.400 . S
C707 C706 1.385 . S
C708 C706 1.478 . S
C708 C710 1.381 . S
C708 C714 1.383 1_545 S
C709 C705 1.495 1_565 S
C709 H715 0.959 . S
C709 H716 0.961 . S
C709 H717 0.960 1_565 S
C710 C708 1.381 . S
C710 C711 1.394 . S
C710 H718 0.930 . S
C711 C710 1.394 . S
C711 C712 1.383 . S
C711 H719 0.929 . S
C712 C711 1.383 . S
C712 C713 1.377 1_545 S
C713 H697 0.930 . S
C713 C712 1.377 1_565 S
C713 C714 1.379 . S
C714 H698 0.931 . S
C714 C708 1.383 1_565 S
C714 C713 1.379 . S
H715 C709 0.959 . S
H716 C709 0.961 . S
H717 C709 0.960 1_545 S
H718 C710 0.930 . S
H719 C711 0.929 . S
H720 C728 0.929 . S
H721 C730 0.930 . S
H722 C732 0.930 . S
H723 C735 0.929 . S
H724 C738 0.930 . S
H725 C740 0.960 . S
H726 C740 1.004 . S
H727 C740 0.960 . S
C728 H720 0.929 . S
C728 C729 1.388 . S
C728 C730 1.384 . S
C729 C728 1.388 . S
C729 C735 1.370 1_545 S
C730 H721 0.930 . S
C730 C728 1.384 . S
C730 C731 1.395 . S
C731 C730 1.395 . S
C731 C732 1.387 1_545 S
C731 C736 1.484 . S
C732 H722 0.930 . S
C732 C731 1.387 1_565 S
C732 C735 1.386 . S
H733 C749 0.930 . S
H734 C750 0.931 . S
C735 H723 0.929 . S
C735 C729 1.370 1_565 S
C735 C732 1.386 . S
C736 C731 1.484 . S
C736 C738 1.392 . S
C736 C739 1.401 1_545 S
H737 C743 0.930 . S
C738 H724 0.930 . S
C738 C736 1.392 . S
C738 C741 1.403 . S
C739 C736 1.401 1_565 S
C739 C740 1.524 . S
C739 C743 1.400 . S
C740 H725 0.960 . S
C740 H726 1.004 . S
C740 H727 0.960 . S
C740 C739 1.524 . S
C741 C738 1.403 . S
C741 C742 1.390 . S
C741 C745 1.495 . S
C742 C741 1.390 . S
C742 C743 1.383 1_545 S
C742 C744 1.457 1_545 S
C743 H737 0.930 . S
C743 C739 1.400 . S
C743 C742 1.383 1_565 S
C744 C742 1.457 1_565 S
C744 C746 1.352 1_565 S
C744 C750 1.438 . S
C745 C741 1.495 . S
C745 H751 0.959 . S
C745 H752 0.961 . S
C745 H753 0.960 . S
C746 C744 1.352 1_545 S
C746 C747 1.394 . S
C746 H754 0.930 . S
C747 C746 1.394 . S
C747 C748 1.383 1_545 S
C747 H755 0.929 . S
C748 C747 1.383 1_565 S
C748 C749 1.377 . S
C749 H733 0.930 . S
C749 C748 1.377 . S
C749 C750 1.379 . S
C750 H734 0.931 . S
C750 C744 1.438 . S
C750 C749 1.379 . S
H751 C745 0.959 . S
H752 C745 0.961 . S
H753 C745 0.960 . S
H754 C746 0.930 . S
H755 C747 0.929 . S
H756 C764 0.929 . S
H757 C766 0.930 . S
H758 C768 0.930 . S
H759 C771 0.929 . S
H760 C774 0.931 1_655 S
H761 C776 0.960 . S
H762 C776 0.960 . S
H763 C776 0.960 . S
C764 H756 0.929 . S
C764 C765 1.377 1_655 S
C764 C766 1.384 . S
C765 C764 1.377 1_455 S
C765 C771 1.390 . S
C766 H757 0.930 . S
C766 C764 1.384 . S
C766 C767 1.372 1_655 S
C767 C766 1.372 1_455 S
C767 C768 1.400 . S
C767 C772 1.490 . S
C768 H758 0.930 . S
C768 C767 1.400 . S
C768 C771 1.386 . S
H769 C785 0.930 . S
H770 C786 0.931 . S
C771 H759 0.929 . S
C771 C765 1.390 . S
C771 C768 1.386 . S
C772 C767 1.490 . S
C772 C774 1.391 . S
C772 C775 1.403 . S
H773 C779 0.930 . S
C774 H760 0.931 1_455 S
C774 C772 1.391 . S
C774 C777 1.387 1_455 S
C775 C772 1.403 . S
C775 C776 1.524 . S
C775 C779 1.400 . S
C776 H761 0.960 . S
C776 H762 0.960 . S
C776 H763 0.960 . S
C776 C775 1.524 . S
C777 C774 1.387 1_655 S
C777 C778 1.382 1_655 S
C777 C781 1.524 . S
C778 C777 1.382 1_455 S
C778 C779 1.385 . S
C778 C780 1.478 . S
C779 H773 0.930 . S
C779 C775 1.400 . S
C779 C778 1.385 . S
C780 C778 1.478 . S
C780 C782 1.381 1_455 S
C780 C786 1.383 . S
C781 C777 1.524 . S
C781 H787 0.959 . S
C781 H788 0.961 1_655 S
C781 H789 0.960 . S
C782 C780 1.381 1_655 S
C782 C783 1.394 . S
C782 H790 0.930 . S
C783 C782 1.394 . S
C783 C784 1.383 1_655 S
C783 H791 0.929 . S
C784 C783 1.383 1_455 S
C784 C785 1.377 . S
C785 H769 0.930 . S
C785 C784 1.377 . S
C785 C786 1.379 . S
C786 H770 0.931 . S
C786 C780 1.383 . S
C786 C785 1.379 . S
H787 C781 0.959 . S
H788 C781 0.961 1_455 S
H789 C781 0.960 . S
H790 C782 0.930 . S
H791 C783 0.929 . S
H792 C800 0.929 . S
H793 C802 0.930 . S
H794 C804 0.930 . S
H795 C807 0.929 . S
H796 C810 0.930 . S
H797 C812 0.960 . S
H798 C812 0.960 . S
H799 C812 0.960 . S
C800 H792 0.929 . S
C800 C801 1.377 . S
C800 C802 1.384 . S
C801 C800 1.377 . S
C801 C807 1.390 . S
C802 H793 0.930 . S
C802 C800 1.384 . S
C802 C803 1.372 . S
C803 C802 1.372 . S
C803 C804 1.400 . S
C803 C808 1.490 . S
C804 H794 0.930 . S
C804 C803 1.400 . S
C804 C807 1.386 . S
H805 C821 0.930 . S
H806 C822 0.931 . S
C807 H795 0.929 . S
C807 C801 1.390 . S
C807 C804 1.386 . S
C808 C803 1.490 . S
C808 C810 1.395 . S
C808 C811 1.403 . S
H809 C815 0.930 . S
C810 H796 0.930 . S
C810 C808 1.395 . S
C810 C813 1.403 . S
C811 C808 1.403 . S
C811 C812 1.524 . S
C811 C815 1.400 . S
C812 H797 0.960 . S
C812 H798 0.960 . S
C812 H799 0.960 . S
C812 C811 1.524 . S
C813 C810 1.403 . S
C813 C814 1.392 . S
C813 C817 1.495 . S
C814 C813 1.392 . S
C814 C815 1.385 . S
C814 C816 1.478 . S
C815 H809 0.930 . S
C815 C811 1.400 . S
C815 C814 1.385 . S
C816 C814 1.478 . S
C816 C818 1.381 . S
C816 C822 1.383 . S
C817 C813 1.495 . S
C817 H823 0.959 . S
C817 H824 0.961 . S
C817 H825 0.960 . S
C818 C816 1.381 . S
C818 C819 1.394 . S
C818 H826 0.930 . S
C819 C818 1.394 . S
C819 C820 1.383 . S
C819 H827 0.929 . S
C820 C819 1.383 . S
C820 C821 1.377 . S
C821 H805 0.930 . S
C821 C820 1.377 . S
C821 C822 1.379 . S
C822 H806 0.931 . S
C822 C816 1.383 . S
C822 C821 1.379 . S
H823 C817 0.959 . S
H824 C817 0.961 . S
H825 C817 0.960 . S
H826 C818 0.930 . S
H827 C819 0.929 . S
H828 C836 0.929 . S
H829 C838 0.930 . S
H830 C840 0.930 . S
H831 C843 0.929 . S
H832 C846 0.930 . S
H833 C848 0.960 . S
H834 C848 0.960 . S
H835 C848 0.960 . S
C836 H828 0.929 . S
C836 C837 1.377 . S
C836 C838 1.384 . S
C837 C836 1.377 . S
C837 C843 1.390 1_455 S
C838 H829 0.930 . S
C838 C836 1.384 . S
C838 C839 1.372 . S
C839 C838 1.372 . S
C839 C840 1.400 1_455 S
C839 C844 1.490 . S
C840 H830 0.930 . S
C840 C839 1.400 1_655 S
C840 C843 1.386 . S
H841 C857 0.930 . S
H842 C858 0.931 . S
C843 H831 0.929 . S
C843 C837 1.390 1_655 S
C843 C840 1.386 . S
C844 C839 1.490 . S
C844 C846 1.395 . S
C844 C847 1.403 1_455 S
H845 C851 0.930 . S
C846 H832 0.930 . S
C846 C844 1.395 . S
C846 C849 1.403 . S
C847 C844 1.403 1_655 S
C847 C848 1.524 . S
C847 C851 1.400 . S
C848 H833 0.960 . S
C848 H834 0.960 . S
C848 H835 0.960 . S
C848 C847 1.524 . S
C849 C846 1.403 . S
C849 C850 1.392 . S
C849 C853 1.495 . S
C850 C849 1.392 . S
C850 C851 1.385 1_455 S
C850 C852 1.478 . S
C851 H845 0.930 . S
C851 C847 1.400 . S
C851 C850 1.385 1_655 S
C852 C850 1.478 . S
C852 C854 1.381 . S
C852 C858 1.383 1_455 S
C853 C849 1.495 . S
C853 H859 0.959 . S
C853 H860 0.961 . S
C853 H861 0.960 . S
C854 C852 1.381 . S
C854 C855 1.394 . S
C854 H862 0.930 . S
C855 C854 1.394 . S
C855 C856 1.383 . S
C855 H863 0.929 . S
C856 C855 1.383 . S
C856 C857 1.377 1_455 S
C857 H841 0.930 . S
C857 C856 1.377 1_655 S
C857 C858 1.379 . S
C858 H842 0.931 . S
C858 C852 1.383 1_655 S
C858 C857 1.379 . S
H859 C853 0.959 . S
H860 C853 0.961 . S
H861 C853 0.960 . S
H862 C854 0.930 . S
H863 C855 0.929 . S
H864 C872 0.929 . S
H865 C874 0.930 . S
H866 C876 0.930 . S
H867 C879 0.929 . S
H868 C882 0.930 . S
H869 C884 0.960 . S
H870 C884 0.960 . S
H871 C884 0.960 . S
C872 H864 0.929 . S
C872 C873 1.377 . S
C872 C874 1.384 . S
C873 C872 1.377 . S
C873 C879 1.390 . S
C874 H865 0.930 . S
C874 C872 1.384 . S
C874 C875 1.372 . S
C875 C874 1.372 . S
C875 C876 1.400 . S
C875 C880 1.490 . S
C876 H866 0.930 . S
C876 C875 1.400 . S
C876 C879 1.386 . S
H877 C893 0.930 . S
H878 C894 0.931 . S
C879 H867 0.929 . S
C879 C873 1.390 . S
C879 C876 1.386 . S
C880 C875 1.490 . S
C880 C882 1.395 . S
C880 C883 1.403 . S
H881 C887 0.930 . S
C882 H868 0.930 . S
C882 C880 1.395 . S
C882 C885 1.403 . S
C883 C880 1.403 . S
C883 C884 1.524 . S
C883 C887 1.400 . S
C884 H869 0.960 . S
C884 H870 0.960 . S
C884 H871 0.960 . S
C884 C883 1.524 . S
C885 C882 1.403 . S
C885 C886 1.392 . S
C885 C889 1.495 . S
C886 C885 1.392 . S
C886 C887 1.385 . S
C886 C888 1.478 . S
C887 H881 0.930 . S
C887 C883 1.400 . S
C887 C886 1.385 . S
C888 C886 1.478 . S
C888 C890 1.381 . S
C888 C894 1.383 . S
C889 C885 1.495 . S
C889 H895 0.959 . S
C889 H896 0.961 . S
C889 H897 0.960 . S
C890 C888 1.381 . S
C890 C891 1.394 . S
C890 H898 0.930 . S
C891 C890 1.394 . S
C891 C892 1.383 . S
C891 H899 0.929 . S
C892 C891 1.383 . S
C892 C893 1.377 . S
C893 H877 0.930 . S
C893 C892 1.377 . S
C893 C894 1.379 . S
C894 H878 0.931 . S
C894 C888 1.383 . S
C894 C893 1.379 . S
H895 C889 0.959 . S
H896 C889 0.961 . S
H897 C889 0.960 . S
H898 C890 0.930 . S
H899 C891 0.929 . S
H900 C908 0.929 . S
H901 C910 0.930 . S
H902 C912 0.930 . S
H903 C915 0.929 . S
H904 C918 0.930 . S
H905 C920 0.960 . S
H906 C920 0.960 . S
H907 C920 1.010 . S
C908 H900 0.929 . S
C908 C909 1.377 1_545 S
C908 C910 1.384 . S
C909 C908 1.377 1_565 S
C909 C915 1.390 . S
C910 H901 0.930 . S
C910 C908 1.384 . S
C910 C911 1.372 1_545 S
C911 C910 1.372 1_565 S
C911 C912 1.400 . S
C911 C916 1.490 . S
C912 H902 0.930 . S
C912 C911 1.400 . S
C912 C915 1.386 . S
H913 C929 0.930 . S
H914 C930 0.931 . S
C915 H903 0.929 . S
C915 C909 1.390 . S
C915 C912 1.386 . S
C916 C911 1.490 . S
C916 C918 1.395 . S
C916 C919 1.403 1_565 S
H917 C923 0.930 . S
C918 H904 0.930 . S
C918 C916 1.395 . S
C918 C921 1.403 . S
C919 C916 1.403 1_545 S
C919 C920 1.524 . S
C919 C923 1.400 . S
C920 H905 0.960 . S
C920 H906 0.960 . S
C920 H907 1.010 . S
C920 C919 1.524 . S
C921 C918 1.403 . S
C921 C922 1.392 . S
C921 C925 1.495 . S
C922 C921 1.392 . S
C922 C923 1.385 1_565 S
C922 C924 1.478 . S
C923 H917 0.930 . S
C923 C919 1.400 . S
C923 C922 1.385 1_545 S
C924 C922 1.478 . S
C924 C926 1.381 1_565 S
C924 C930 1.383 . S
C925 C921 1.495 . S
C925 H931 0.959 . S
C925 H932 0.961 . S
C925 H933 0.960 . S
C926 C924 1.381 1_545 S
C926 C927 1.394 . S
C926 H934 0.930 . S
C927 C926 1.394 . S
C927 C928 1.383 1_545 S
C927 H935 0.929 . S
C928 C927 1.383 1_565 S
C928 C929 1.377 . S
C929 H913 0.930 . S
C929 C928 1.377 . S
C929 C930 1.379 . S
C930 H914 0.931 . S
C930 C924 1.383 . S
C930 C929 1.379 . S
H931 C925 0.959 . S
H932 C925 0.961 . S
H933 C925 0.960 . S
H934 C926 0.930 . S
H935 C927 0.929 . S
H936 C944 0.929 . S
H937 C946 0.930 . S
H938 C948 0.930 . S
H939 C951 0.929 . S
H940 C954 0.930 . S
H941 C956 0.960 . S
H942 C956 0.960 . S
H943 C956 0.960 . S
C944 H936 0.929 . S
C944 C945 1.377 . S
C944 C946 1.384 . S
C945 C944 1.377 . S
C945 C951 1.390 1_545 S
C946 H937 0.930 . S
C946 C944 1.384 . S
C946 C947 1.372 . S
C947 C946 1.372 . S
C947 C948 1.400 1_545 S
C947 C952 1.490 . S
C948 H938 0.930 . S
C948 C947 1.400 1_565 S
C948 C951 1.386 . S
H949 C965 0.930 . S
H950 C966 0.931 . S
C951 H939 0.929 . S
C951 C945 1.390 1_565 S
C951 C948 1.386 . S
C952 C947 1.490 . S
C952 C954 1.395 . S
C952 C955 1.403 1_545 S
H953 C959 0.930 . S
C954 H940 0.930 . S
C954 C952 1.395 . S
C954 C957 1.403 . S
C955 C952 1.403 1_565 S
C955 C956 1.524 . S
C955 C959 1.400 . S
C956 H941 0.960 . S
C956 H942 0.960 . S
C956 H943 0.960 . S
C956 C955 1.524 . S
C957 C954 1.403 . S
C957 C958 1.392 . S
C957 C961 1.495 . S
C958 C957 1.392 . S
C958 C959 1.385 1_545 S
C958 C960 1.478 . S
C959 H953 0.930 . S
C959 C955 1.400 . S
C959 C958 1.385 1_565 S
C960 C958 1.478 . S
C960 C962 1.381 . S
C960 C966 1.383 1_545 S
C961 C957 1.495 . S
C961 H967 0.959 . S
C961 H968 0.961 . S
C961 H969 0.960 . S
C962 C960 1.381 . S
C962 C963 1.394 . S
C962 H970 0.930 . S
C963 C962 1.394 . S
C963 C964 1.383 . S
C963 H971 0.929 . S
C964 C963 1.383 . S
C964 C965 1.377 1_545 S
C965 H949 0.930 . S
C965 C964 1.377 1_565 S
C965 C966 1.379 . S
C966 H950 0.931 . S
C966 C960 1.383 1_565 S
C966 C965 1.379 . S
H967 C961 0.959 . S
H968 C961 0.961 . S
H969 C961 0.960 . S
H970 C962 0.930 . S
H971 C963 0.929 . S
H972 C980 0.929 . S
H973 C982 0.930 . S
H974 C984 0.930 . S
H975 C987 0.929 1_455 S
H976 C990 0.930 . S
H977 C992 0.960 . S
H978 C992 0.960 . S
H979 C992 0.960 . S
C980 H972 0.929 . S
C980 C981 1.377 . S
C980 C982 1.384 . S
C981 C980 1.377 . S
C981 C987 1.389 . S
C982 H973 0.930 . S
C982 C980 1.384 . S
C982 C983 1.372 . S
C983 C982 1.372 . S
C983 C984 1.400 1_655 S
C983 C988 1.490 . S
C984 H974 0.930 . S
C984 C983 1.400 1_455 S
C984 C987 1.386 1_455 S
H985 C1001 0.930 . S
H986 C1002 0.931 . S
C987 H975 0.929 1_655 S
C987 C981 1.389 . S
C987 C984 1.386 1_655 S
C988 C983 1.490 . S
C988 C990 1.395 1_655 S
C988 C991 1.403 . S
H989 C995 0.930 . S
C990 H976 0.930 . S
C990 C988 1.395 1_455 S
C990 C993 1.403 . S
C991 C988 1.403 . S
C991 C992 1.524 . S
C991 C995 1.400 . S
C992 H977 0.960 . S
C992 H978 0.960 . S
C992 H979 0.960 . S
C992 C991 1.524 . S
C993 C990 1.403 . S
C993 C994 1.361 1_455 S
C993 C997 1.495 . S
C994 C993 1.361 1_655 S
C994 C995 1.456 . S
C994 C996 1.443 . S
C995 H989 0.930 . S
C995 C991 1.400 . S
C995 C994 1.456 . S
C996 C994 1.443 . S
C996 C998 1.382 . S
C996 C1002 1.384 1_655 S
C997 C993 1.495 . S
C997 H1003 0.959 . S
C997 H1004 0.961 . S
C997 H1005 0.960 . S
C998 C996 1.382 . S
C998 C999 1.394 . S
C998 H1006 0.930 . S
C999 C998 1.394 . S
C999 C1000 1.390 . S
C999 H1007 0.929 . S
C1000 C999 1.390 . S
C1000 C1001 1.381 1_655 S
C1001 H985 0.930 . S
C1001 C1000 1.381 1_455 S
C1001 C1002 1.379 . S
C1002 H986 0.931 . S
C1002 C996 1.384 1_455 S
C1002 C1001 1.379 . S
H1003 C997 0.959 . S
H1004 C997 0.961 . S
H1005 C997 0.960 . S
H1006 C998 0.930 . S
H1007 C999 0.929 . S
H1008 C1016 0.929 . S
H1009 C1018 0.930 . S
H1010 C1020 0.930 . S
H1011 C1023 0.929 . S
H1012 C1026 0.930 . S
H1013 C1028 0.960 . S
H1014 C1028 0.960 . S
H1015 C1028 0.960 . S
C1016 H1008 0.929 . S
C1016 C1017 1.377 . S
C1016 C1018 1.384 . S
C1017 C1016 1.377 . S
C1017 C1023 1.390 . S
C1018 H1009 0.930 . S
C1018 C1016 1.384 . S
C1018 C1019 1.372 . S
C1019 C1018 1.372 . S
C1019 C1020 1.400 . S
C1019 C1024 1.490 . S
C1020 H1010 0.930 . S
C1020 C1019 1.400 . S
C1020 C1023 1.386 . S
H1021 C1037 0.930 . S
H1022 C1038 0.931 . S
C1023 H1011 0.929 . S
C1023 C1017 1.390 . S
C1023 C1020 1.386 . S
C1024 C1019 1.490 . S
C1024 C1026 1.395 . S
C1024 C1027 1.403 . S
H1025 C1031 0.930 . S
C1026 H1012 0.930 . S
C1026 C1024 1.395 . S
C1026 C1029 1.403 . S
C1027 C1024 1.403 . S
C1027 C1028 1.524 . S
C1027 C1031 1.400 . S
C1028 H1013 0.960 . S
C1028 H1014 0.960 . S
C1028 H1015 0.960 . S
C1028 C1027 1.524 . S
C1029 C1026 1.403 . S
C1029 C1030 1.392 . S
C1029 C1033 1.495 . S
C1030 C1029 1.392 . S
C1030 C1031 1.385 . S
C1030 C1032 1.478 . S
C1031 H1025 0.930 . S
C1031 C1027 1.400 . S
C1031 C1030 1.385 . S
C1032 C1030 1.478 . S
C1032 C1034 1.381 . S
C1032 C1038 1.383 . S
C1033 C1029 1.495 . S
C1033 H1039 0.959 . S
C1033 H1040 0.961 . S
C1033 H1041 0.960 . S
C1034 C1032 1.381 . S
C1034 C1035 1.394 . S
C1034 H1042 0.930 . S
C1035 C1034 1.394 . S
C1035 C1036 1.383 . S
C1035 H1043 0.929 . S
C1036 C1035 1.383 . S
C1036 C1037 1.377 . S
C1037 H1021 0.930 . S
C1037 C1036 1.377 . S
C1037 C1038 1.379 . S
C1038 H1022 0.931 . S
C1038 C1032 1.383 . S
C1038 C1037 1.379 . S
H1039 C1033 0.959 . S
H1040 C1033 0.961 . S
H1041 C1033 0.960 . S
H1042 C1034 0.930 . S
H1043 C1035 0.929 . S
H1044 C1052 0.929 . S
H1045 C1054 0.930 . S
H1046 C1056 0.930 . S
H1047 C1059 0.929 . S
H1048 C1062 0.930 . S
H1049 C1064 0.960 . S
H1050 C1064 0.960 . S
H1051 C1064 0.960 . S
C1052 H1044 0.929 . S
C1052 C1053 1.377 . S
C1052 C1054 1.384 . S
C1053 C1052 1.377 . S
C1053 C1059 1.390 . S
C1054 H1045 0.930 . S
C1054 C1052 1.384 . S
C1054 C1055 1.372 . S
C1055 C1054 1.372 . S
C1055 C1056 1.400 . S
C1055 C1060 1.490 . S
C1056 H1046 0.930 . S
C1056 C1055 1.400 . S
C1056 C1059 1.386 . S
H1057 C1073 0.930 . S
H1058 C1074 0.931 . S
C1059 H1047 0.929 . S
C1059 C1053 1.390 . S
C1059 C1056 1.386 . S
C1060 C1055 1.490 . S
C1060 C1062 1.395 . S
C1060 C1063 1.403 . S
H1061 C1067 0.930 . S
C1062 H1048 0.930 . S
C1062 C1060 1.395 . S
C1062 C1065 1.403 . S
C1063 C1060 1.403 . S
C1063 C1064 1.524 . S
C1063 C1067 1.400 . S
C1064 H1049 0.960 . S
C1064 H1050 0.960 . S
C1064 H1051 0.960 . S
C1064 C1063 1.524 . S
C1065 C1062 1.403 . S
C1065 C1066 1.392 . S
C1065 C1069 1.495 . S
C1066 C1065 1.392 . S
C1066 C1067 1.385 . S
C1066 C1068 1.478 . S
C1067 H1061 0.930 . S
C1067 C1063 1.400 . S
C1067 C1066 1.385 . S
C1068 C1066 1.478 . S
C1068 C1070 1.381 . S
C1068 C1074 1.383 . S
C1069 C1065 1.495 . S
C1069 H1075 0.959 . S
C1069 H1076 0.961 . S
C1069 H1077 0.960 . S
C1070 C1068 1.381 . S
C1070 C1071 1.394 . S
C1070 H1078 0.930 . S
C1071 C1070 1.394 . S
C1071 C1072 1.383 . S
C1071 H1079 0.929 . S
C1072 C1071 1.383 . S
C1072 C1073 1.377 . S
C1073 H1057 0.930 . S
C1073 C1072 1.377 . S
C1073 C1074 1.379 . S
C1074 H1058 0.931 . S
C1074 C1068 1.383 . S
C1074 C1073 1.379 . S
H1075 C1069 0.959 . S
H1076 C1069 0.961 . S
H1077 C1069 0.960 . S
H1078 C1070 0.930 . S
H1079 C1071 0.929 . S
H1080 C1088 0.929 . S
H1081 C1090 0.930 . S
H1082 C1092 0.930 . S
H1083 C1095 0.929 . S
H1084 C1098 0.930 . S
H1085 C1100 0.960 . S
H1086 C1100 0.960 . S
H1087 C1100 0.960 . S
C1088 H1080 0.929 . S
C1088 C1089 1.377 . S
C1088 C1090 1.384 . S
C1089 C1088 1.377 . S
C1089 C1095 1.390 . S
C1090 H1081 0.930 . S
C1090 C1088 1.384 . S
C1090 C1091 1.372 . S
C1091 C1090 1.372 . S
C1091 C1092 1.400 . S
C1091 C1096 1.490 . S
C1092 H1082 0.930 . S
C1092 C1091 1.400 . S
C1092 C1095 1.386 . S
H1093 C1109 0.930 . S
H1094 C1110 0.931 . S
C1095 H1083 0.929 . S
C1095 C1089 1.390 . S
C1095 C1092 1.386 . S
C1096 C1091 1.490 . S
C1096 C1098 1.395 . S
C1096 C1099 1.403 . S
H1097 C1103 0.930 . S
C1098 H1084 0.930 . S
C1098 C1096 1.395 . S
C1098 C1101 1.403 . S
C1099 C1096 1.403 . S
C1099 C1100 1.524 . S
C1099 C1103 1.400 . S
C1100 H1085 0.960 . S
C1100 H1086 0.960 . S
C1100 H1087 0.960 . S
C1100 C1099 1.524 . S
C1101 C1098 1.403 . S
C1101 C1102 1.392 . S
C1101 C1105 1.495 . S
C1102 C1101 1.392 . S
C1102 C1103 1.385 . S
C1102 C1104 1.478 . S
C1103 H1097 0.930 . S
C1103 C1099 1.400 . S
C1103 C1102 1.385 . S
C1104 C1102 1.478 . S
C1104 C1106 1.381 . S
C1104 C1110 1.383 . S
C1105 C1101 1.495 . S
C1105 H1111 0.959 . S
C1105 H1112 0.961 . S
C1105 H1113 0.960 . S
C1106 C1104 1.381 . S
C1106 C1107 1.394 . S
C1106 H1114 0.930 . S
C1107 C1106 1.394 . S
C1107 C1108 1.383 . S
C1107 H1115 0.929 . S
C1108 C1107 1.383 . S
C1108 C1109 1.377 . S
C1109 H1093 0.930 . S
C1109 C1108 1.377 . S
C1109 C1110 1.379 . S
C1110 H1094 0.931 . S
C1110 C1104 1.383 . S
C1110 C1109 1.379 . S
H1111 C1105 0.959 . S
H1112 C1105 0.961 . S
H1113 C1105 0.960 . S
H1114 C1106 0.930 . S
H1115 C1107 0.929 . S
H1116 C1124 0.929 . S
H1117 C1126 0.930 . S
H1118 C1128 0.930 . S
H1119 C1131 0.929 . S
H1120 C1134 0.930 . S
H1121 C1136 0.960 . S
H1122 C1136 0.960 . S
H1123 C1136 0.960 . S
C1124 H1116 0.929 . S
C1124 C1125 1.377 . S
C1124 C1126 1.384 . S
C1125 C1124 1.377 . S
C1125 C1131 1.390 . S
C1126 H1117 0.930 . S
C1126 C1124 1.384 . S
C1126 C1127 1.372 . S
C1127 C1126 1.372 . S
C1127 C1128 1.400 . S
C1127 C1132 1.490 . S
C1128 H1118 0.930 . S
C1128 C1127 1.400 . S
C1128 C1131 1.386 . S
H1129 C1145 0.930 . S
H1130 C1146 0.931 . S
C1131 H1119 0.929 . S
C1131 C1125 1.390 . S
C1131 C1128 1.386 . S
C1132 C1127 1.490 . S
C1132 C1134 1.395 . S
C1132 C1135 1.403 . S
H1133 C1139 0.930 . S
C1134 H1120 0.930 . S
C1134 C1132 1.395 . S
C1134 C1137 1.403 . S
C1135 C1132 1.403 . S
C1135 C1136 1.524 . S
C1135 C1139 1.400 . S
C1136 H1121 0.960 . S
C1136 H1122 0.960 . S
C1136 H1123 0.960 . S
C1136 C1135 1.524 . S
C1137 C1134 1.403 . S
C1137 C1138 1.392 . S
C1137 C1141 1.495 . S
C1138 C1137 1.392 . S
C1138 C1139 1.385 . S
C1138 C1140 1.478 . S
C1139 H1133 0.930 . S
C1139 C1135 1.400 . S
C1139 C1138 1.385 . S
C1140 C1138 1.478 . S
C1140 C1142 1.381 . S
C1140 C1146 1.383 . S
C1141 C1137 1.495 . S
C1141 H1147 0.959 . S
C1141 H1148 0.961 . S
C1141 H1149 0.960 . S
C1142 C1140 1.381 . S
C1142 C1143 1.394 . S
C1142 H1150 0.930 . S
C1143 C1142 1.394 . S
C1143 C1144 1.383 . S
C1143 H1151 0.929 . S
C1144 C1143 1.383 . S
C1144 C1145 1.377 . S
C1145 H1129 0.930 . S
C1145 C1144 1.377 . S
C1145 C1146 1.379 . S
C1146 H1130 0.931 . S
C1146 C1140 1.383 . S
C1146 C1145 1.379 . S
H1147 C1141 0.959 . S
H1148 C1141 0.961 . S
H1149 C1141 0.960 . S
H1150 C1142 0.930 . S
H1151 C1143 0.929 . S
H1152 C1160 0.929 . S
H1153 C1162 0.930 . S
H1154 C1164 0.930 . S
H1155 C1167 0.929 . S
H1156 C1170 0.930 . S
H1157 C1172 0.960 . S
H1158 C1172 0.960 . S
H1159 C1172 0.960 . S
C1160 H1152 0.929 . S
C1160 C1161 1.377 . S
C1160 C1162 1.384 . S
C1161 C1160 1.377 . S
C1161 C1167 1.390 . S
C1162 H1153 0.930 . S
C1162 C1160 1.384 . S
C1162 C1163 1.372 . S
C1163 C1162 1.372 . S
C1163 C1164 1.400 . S
C1163 C1168 1.490 . S
C1164 H1154 0.930 . S
C1164 C1163 1.400 . S
C1164 C1167 1.386 . S
H1165 C1181 0.930 . S
H1166 C1182 0.931 . S
C1167 H1155 0.929 . S
C1167 C1161 1.390 . S
C1167 C1164 1.386 . S
C1168 C1163 1.490 . S
C1168 C1170 1.395 . S
C1168 C1171 1.403 . S
H1169 C1175 0.930 . S
C1170 H1156 0.930 . S
C1170 C1168 1.395 . S
C1170 C1173 1.403 . S
C1171 C1168 1.403 . S
C1171 C1172 1.524 . S
C1171 C1175 1.400 . S
C1172 H1157 0.960 . S
C1172 H1158 0.960 . S
C1172 H1159 0.960 . S
C1172 C1171 1.524 . S
C1173 C1170 1.403 . S
C1173 C1174 1.392 . S
C1173 C1177 1.495 . S
C1174 C1173 1.392 . S
C1174 C1175 1.385 . S
C1174 C1176 1.478 . S
C1175 H1169 0.930 . S
C1175 C1171 1.400 . S
C1175 C1174 1.385 . S
C1176 C1174 1.478 . S
C1176 C1178 1.381 . S
C1176 C1182 1.383 . S
C1177 C1173 1.495 . S
C1177 H1183 0.959 . S
C1177 H1184 0.961 . S
C1177 H1185 0.960 . S
C1178 C1176 1.381 . S
C1178 C1179 1.394 . S
C1178 H1186 0.930 . S
C1179 C1178 1.394 . S
C1179 C1180 1.383 . S
C1179 H1187 0.929 . S
C1180 C1179 1.383 . S
C1180 C1181 1.377 . S
C1181 H1165 0.930 . S
C1181 C1180 1.377 . S
C1181 C1182 1.379 . S
C1182 H1166 0.931 . S
C1182 C1176 1.383 . S
C1182 C1181 1.379 . S
H1183 C1177 0.959 . S
H1184 C1177 0.961 . S
H1185 C1177 0.960 . S
H1186 C1178 0.930 . S
H1187 C1179 0.929 . S
H1188 C1196 0.929 . S
H1189 C1198 0.930 . S
H1190 C1200 0.930 . S
H1191 C1203 0.929 . S
H1192 C1206 0.930 . S
H1193 C1208 0.960 . S
H1194 C1208 0.960 . S
H1195 C1208 0.960 . S
C1196 H1188 0.929 . S
C1196 C1197 1.377 . S
C1196 C1198 1.384 . S
C1197 C1196 1.377 . S
C1197 C1203 1.390 . S
C1198 H1189 0.930 . S
C1198 C1196 1.384 . S
C1198 C1199 1.372 . S
C1199 C1198 1.372 . S
C1199 C1200 1.400 . S
C1199 C1204 1.490 . S
C1200 H1190 0.930 . S
C1200 C1199 1.400 . S
C1200 C1203 1.386 . S
H1201 C1217 0.930 . S
H1202 C1218 0.931 . S
C1203 H1191 0.929 . S
C1203 C1197 1.390 . S
C1203 C1200 1.386 . S
C1204 C1199 1.490 . S
C1204 C1206 1.395 . S
C1204 C1207 1.403 . S
H1205 C1211 0.930 . S
C1206 H1192 0.930 . S
C1206 C1204 1.395 . S
C1206 C1209 1.403 . S
C1207 C1204 1.403 . S
C1207 C1208 1.524 . S
C1207 C1211 1.400 . S
C1208 H1193 0.960 . S
C1208 H1194 0.960 . S
C1208 H1195 0.960 . S
C1208 C1207 1.524 . S
C1209 C1206 1.403 . S
C1209 C1210 1.392 . S
C1209 C1213 1.495 . S
C1210 C1209 1.392 . S
C1210 C1211 1.385 . S
C1210 C1212 1.478 . S
C1211 H1205 0.930 . S
C1211 C1207 1.400 . S
C1211 C1210 1.385 . S
C1212 C1210 1.478 . S
C1212 C1214 1.381 . S
C1212 C1218 1.383 . S
C1213 C1209 1.495 . S
C1213 H1219 0.959 . S
C1213 H1220 0.961 . S
C1213 H1221 0.960 . S
C1214 C1212 1.381 . S
C1214 C1215 1.394 . S
C1214 H1222 0.930 . S
C1215 C1214 1.394 . S
C1215 C1216 1.383 . S
C1215 H1223 0.929 . S
C1216 C1215 1.383 . S
C1216 C1217 1.377 . S
C1217 H1201 0.930 . S
C1217 C1216 1.377 . S
C1217 C1218 1.379 . S
C1218 H1202 0.931 . S
C1218 C1212 1.383 . S
C1218 C1217 1.379 . S
H1219 C1213 0.959 . S
H1220 C1213 0.961 . S
H1221 C1213 0.960 . S
H1222 C1214 0.930 . S
H1223 C1215 0.929 . S
H1224 C1232 0.929 . S
H1225 C1234 0.930 . S
H1226 C1236 0.930 . S
H1227 C1239 0.929 . S
H1228 C1242 0.930 . S
H1229 C1244 0.960 . S
H1230 C1244 0.960 . S
H1231 C1244 0.960 . S
C1232 H1224 0.929 . S
C1232 C1233 1.377 . S
C1232 C1234 1.384 . S
C1233 C1232 1.377 . S
C1233 C1239 1.390 . S
C1234 H1225 0.930 . S
C1234 C1232 1.384 . S
C1234 C1235 1.372 . S
C1235 C1234 1.372 . S
C1235 C1236 1.400 . S
C1235 C1240 1.490 . S
C1236 H1226 0.930 . S
C1236 C1235 1.400 . S
C1236 C1239 1.386 . S
H1237 C1253 0.930 . S
H1238 C1254 0.931 . S
C1239 H1227 0.929 . S
C1239 C1233 1.390 . S
C1239 C1236 1.386 . S
C1240 C1235 1.490 . S
C1240 C1242 1.395 . S
C1240 C1243 1.403 . S
H1241 C1247 0.930 . S
C1242 H1228 0.930 . S
C1242 C1240 1.395 . S
C1242 C1245 1.403 . S
C1243 C1240 1.403 . S
C1243 C1244 1.524 . S
C1243 C1247 1.400 . S
C1244 H1229 0.960 . S
C1244 H1230 0.960 . S
C1244 H1231 0.960 . S
C1244 C1243 1.524 . S
C1245 C1242 1.403 . S
C1245 C1246 1.392 . S
C1245 C1249 1.495 . S
C1246 C1245 1.392 . S
C1246 C1247 1.385 . S
C1246 C1248 1.478 . S
C1247 H1241 0.930 . S
C1247 C1243 1.400 . S
C1247 C1246 1.385 . S
C1248 C1246 1.478 . S
C1248 C1250 1.381 . S
C1248 C1254 1.383 . S
C1249 C1245 1.495 . S
C1249 H1255 0.959 . S
C1249 H1256 0.961 . S
C1249 H1257 0.960 . S
C1250 C1248 1.381 . S
C1250 C1251 1.394 . S
C1250 H1258 0.930 . S
C1251 C1250 1.394 . S
C1251 C1252 1.383 . S
C1251 H1259 0.929 . S
C1252 C1251 1.383 . S
C1252 C1253 1.377 . S
C1253 H1237 0.930 . S
C1253 C1252 1.377 . S
C1253 C1254 1.379 . S
C1254 H1238 0.931 . S
C1254 C1248 1.383 . S
C1254 C1253 1.379 . S
H1255 C1249 0.959 . S
H1256 C1249 0.961 . S
H1257 C1249 0.960 . S
H1258 C1250 0.930 . S
H1259 C1251 0.929 . S
H1260 C1268 0.929 . S
H1261 C1270 0.930 . S
H1262 C1272 0.930 . S
H1263 C1275 0.929 . S
H1264 C1278 0.930 . S
H1265 C1280 0.960 . S
H1266 C1280 0.960 . S
H1267 C1280 0.960 . S
C1268 H1260 0.929 . S
C1268 C1269 1.377 . S
C1268 C1270 1.384 . S
C1269 C1268 1.377 . S
C1269 C1275 1.390 . S
C1270 H1261 0.930 . S
C1270 C1268 1.384 . S
C1270 C1271 1.372 . S
C1271 C1270 1.372 . S
C1271 C1272 1.400 . S
C1271 C1276 1.490 . S
C1272 H1262 0.930 . S
C1272 C1271 1.400 . S
C1272 C1275 1.386 . S
H1273 C1289 0.930 . S
H1274 C1290 0.931 . S
C1275 H1263 0.929 . S
C1275 C1269 1.390 . S
C1275 C1272 1.386 . S
C1276 C1271 1.490 . S
C1276 C1278 1.395 . S
C1276 C1279 1.403 . S
H1277 C1283 0.930 . S
C1278 H1264 0.930 . S
C1278 C1276 1.395 . S
C1278 C1281 1.403 . S
C1279 C1276 1.403 . S
C1279 C1280 1.524 . S
C1279 C1283 1.400 . S
C1280 H1265 0.960 . S
C1280 H1266 0.960 . S
C1280 H1267 0.960 . S
C1280 C1279 1.524 . S
C1281 C1278 1.403 . S
C1281 C1282 1.392 . S
C1281 C1285 1.495 . S
C1282 C1281 1.392 . S
C1282 C1283 1.385 . S
C1282 C1284 1.478 . S
C1283 H1277 0.930 . S
C1283 C1279 1.400 . S
C1283 C1282 1.385 . S
C1284 C1282 1.478 . S
C1284 C1286 1.381 . S
C1284 C1290 1.383 . S
C1285 C1281 1.495 . S
C1285 H1291 0.959 . S
C1285 H1292 0.961 . S
C1285 H1293 0.960 . S
C1286 C1284 1.381 . S
C1286 C1287 1.394 . S
C1286 H1294 0.930 . S
C1287 C1286 1.394 . S
C1287 C1288 1.383 . S
C1287 H1295 0.929 . S
C1288 C1287 1.383 . S
C1288 C1289 1.377 . S
C1289 H1273 0.930 . S
C1289 C1288 1.377 . S
C1289 C1290 1.379 . S
C1290 H1274 0.931 . S
C1290 C1284 1.383 . S
C1290 C1289 1.379 . S
H1291 C1285 0.959 . S
H1292 C1285 0.961 . S
H1293 C1285 0.960 . S
H1294 C1286 0.930 . S
H1295 C1287 0.929 . S
H1296 C1304 0.929 . S
H1297 C1306 0.930 . S
H1298 C1308 0.930 . S
H1299 C1311 0.929 . S
H1300 C1314 0.930 . S
H1301 C1316 0.960 . S
H1302 C1316 0.960 . S
H1303 C1316 0.960 . S
C1304 H1296 0.929 . S
C1304 C1305 1.377 . S
C1304 C1306 1.384 . S
C1305 C1304 1.377 . S
C1305 C1311 1.390 . S
C1306 H1297 0.930 . S
C1306 C1304 1.384 . S
C1306 C1307 1.372 . S
C1307 C1306 1.372 . S
C1307 C1308 1.400 . S
C1307 C1312 1.490 . S
C1308 H1298 0.930 . S
C1308 C1307 1.400 . S
C1308 C1311 1.386 . S
H1309 C1325 0.930 . S
H1310 C1326 0.931 . S
C1311 H1299 0.929 . S
C1311 C1305 1.390 . S
C1311 C1308 1.386 . S
C1312 C1307 1.490 . S
C1312 C1314 1.395 . S
C1312 C1315 1.403 . S
H1313 C1319 0.930 . S
C1314 H1300 0.930 . S
C1314 C1312 1.395 . S
C1314 C1317 1.403 . S
C1315 C1312 1.403 . S
C1315 C1316 1.524 . S
C1315 C1319 1.400 . S
C1316 H1301 0.960 . S
C1316 H1302 0.960 . S
C1316 H1303 0.960 . S
C1316 C1315 1.524 . S
C1317 C1314 1.403 . S
C1317 C1318 1.392 . S
C1317 C1321 1.495 . S
C1318 C1317 1.392 . S
C1318 C1319 1.385 . S
C1318 C1320 1.478 . S
C1319 H1313 0.930 . S
C1319 C1315 1.400 . S
C1319 C1318 1.385 . S
C1320 C1318 1.478 . S
C1320 C1322 1.381 . S
C1320 C1326 1.383 . S
C1321 C1317 1.495 . S
C1321 H1327 0.959 . S
C1321 H1328 0.961 . S
C1321 H1329 0.960 . S
C1322 C1320 1.381 . S
C1322 C1323 1.394 . S
C1322 H1330 0.930 . S
C1323 C1322 1.394 . S
C1323 C1324 1.383 . S
C1323 H1331 0.929 . S
C1324 C1323 1.383 . S
C1324 C1325 1.377 . S
C1325 H1309 0.930 . S
C1325 C1324 1.377 . S
C1325 C1326 1.379 . S
C1326 H1310 0.931 . S
C1326 C1320 1.383 . S
C1326 C1325 1.379 . S
H1327 C1321 0.959 . S
H1328 C1321 0.961 . S
H1329 C1321 0.960 . S
H1330 C1322 0.930 . S
H1331 C1323 0.929 . S
H1332 C1340 0.929 . S
H1333 C1342 0.930 . S
H1334 C1344 0.930 . S
H1335 C1347 0.929 . S
H1336 C1350 0.930 . S
H1337 C1352 0.960 . S
H1338 C1352 0.960 . S
H1339 C1352 0.960 . S
C1340 H1332 0.929 . S
C1340 C1341 1.377 . S
C1340 C1342 1.384 . S
C1341 C1340 1.377 . S
C1341 C1347 1.390 . S
C1342 H1333 0.930 . S
C1342 C1340 1.384 . S
C1342 C1343 1.372 . S
C1343 C1342 1.372 . S
C1343 C1344 1.400 . S
C1343 C1348 1.490 . S
C1344 H1334 0.930 . S
C1344 C1343 1.400 . S
C1344 C1347 1.386 . S
H1345 C1361 0.930 . S
H1346 C1362 0.931 . S
C1347 H1335 0.929 . S
C1347 C1341 1.390 . S
C1347 C1344 1.386 . S
C1348 C1343 1.490 . S
C1348 C1350 1.395 . S
C1348 C1351 1.403 . S
H1349 C1355 0.930 . S
C1350 H1336 0.930 . S
C1350 C1348 1.395 . S
C1350 C1353 1.403 . S
C1351 C1348 1.403 . S
C1351 C1352 1.524 . S
C1351 C1355 1.400 . S
C1352 H1337 0.960 . S
C1352 H1338 0.960 . S
C1352 H1339 0.960 . S
C1352 C1351 1.524 . S
C1353 C1350 1.403 . S
C1353 C1354 1.392 . S
C1353 C1357 1.495 . S
C1354 C1353 1.392 . S
C1354 C1355 1.385 . S
C1354 C1356 1.478 . S
C1355 H1349 0.930 . S
C1355 C1351 1.400 . S
C1355 C1354 1.385 . S
C1356 C1354 1.478 . S
C1356 C1358 1.381 . S
C1356 C1362 1.383 . S
C1357 C1353 1.495 . S
C1357 H1363 0.959 . S
C1357 H1364 0.961 . S
C1357 H1365 0.960 . S
C1358 C1356 1.381 . S
C1358 C1359 1.394 . S
C1358 H1366 0.930 . S
C1359 C1358 1.394 . S
C1359 C1360 1.383 . S
C1359 H1367 0.929 . S
C1360 C1359 1.383 . S
C1360 C1361 1.377 . S
C1361 H1345 0.930 . S
C1361 C1360 1.377 . S
C1361 C1362 1.379 . S
C1362 H1346 0.931 . S
C1362 C1356 1.383 . S
C1362 C1361 1.379 . S
H1363 C1357 0.959 . S
H1364 C1357 0.961 . S
H1365 C1357 0.960 . S
H1366 C1358 0.930 . S
H1367 C1359 0.929 . S
H1368 C1376 0.929 . S
H1369 C1378 0.930 . S
H1370 C1380 0.930 . S
H1371 C1383 0.929 . S
H1372 C1386 0.930 . S
H1373 C1388 0.960 . S
H1374 C1388 0.960 . S
H1375 C1388 0.960 . S
C1376 H1368 0.929 . S
C1376 C1377 1.377 . S
C1376 C1378 1.384 . S
C1377 C1376 1.377 . S
C1377 C1383 1.390 . S
C1378 H1369 0.930 . S
C1378 C1376 1.384 . S
C1378 C1379 1.372 . S
C1379 C1378 1.372 . S
C1379 C1380 1.400 . S
C1379 C1384 1.490 . S
C1380 H1370 0.930 . S
C1380 C1379 1.400 . S
C1380 C1383 1.386 . S
H1381 C1397 0.930 . S
H1382 C1398 0.931 . S
C1383 H1371 0.929 . S
C1383 C1377 1.390 . S
C1383 C1380 1.386 . S
C1384 C1379 1.490 . S
C1384 C1386 1.395 . S
C1384 C1387 1.403 . S
H1385 C1391 0.930 . S
C1386 H1372 0.930 . S
C1386 C1384 1.395 . S
C1386 C1389 1.403 . S
C1387 C1384 1.403 . S
C1387 C1388 1.524 . S
C1387 C1391 1.400 . S
C1388 H1373 0.960 . S
C1388 H1374 0.960 . S
C1388 H1375 0.960 . S
C1388 C1387 1.524 . S
C1389 C1386 1.403 . S
C1389 C1390 1.392 . S
C1389 C1393 1.495 . S
C1390 C1389 1.392 . S
C1390 C1391 1.385 . S
C1390 C1392 1.478 . S
C1391 H1385 0.930 . S
C1391 C1387 1.400 . S
C1391 C1390 1.385 . S
C1392 C1390 1.478 . S
C1392 C1394 1.381 . S
C1392 C1398 1.383 . S
C1393 C1389 1.495 . S
C1393 H1399 0.959 . S
C1393 H1400 0.961 . S
C1393 H1401 0.960 . S
C1394 C1392 1.381 . S
C1394 C1395 1.394 . S
C1394 H1402 0.930 . S
C1395 C1394 1.394 . S
C1395 C1396 1.383 . S
C1395 H1403 0.929 . S
C1396 C1395 1.383 . S
C1396 C1397 1.377 . S
C1397 H1381 0.930 . S
C1397 C1396 1.377 . S
C1397 C1398 1.379 . S
C1398 H1382 0.931 . S
C1398 C1392 1.383 . S
C1398 C1397 1.379 . S
H1399 C1393 0.959 . S
H1400 C1393 0.961 . S
H1401 C1393 0.960 . S
H1402 C1394 0.930 . S
H1403 C1395 0.929 . S
H1404 C1412 0.929 . S
H1405 C1414 0.930 . S
H1406 C1416 0.930 . S
H1407 C1419 0.929 . S
H1408 C1422 0.930 . S
H1409 C1424 0.960 . S
H1410 C1424 0.960 . S
H1411 C1424 0.960 . S
C1412 H1404 0.929 . S
C1412 C1413 1.377 . S
C1412 C1414 1.384 . S
C1413 C1412 1.377 . S
C1413 C1419 1.390 . S
C1414 H1405 0.930 . S
C1414 C1412 1.384 . S
C1414 C1415 1.372 . S
C1415 C1414 1.372 . S
C1415 C1416 1.400 . S
C1415 C1420 1.490 . S
C1416 H1406 0.930 . S
C1416 C1415 1.400 . S
C1416 C1419 1.386 . S
H1417 C1433 0.930 . S
H1418 C1434 0.931 . S
C1419 H1407 0.929 . S
C1419 C1413 1.390 . S
C1419 C1416 1.386 . S
C1420 C1415 1.490 . S
C1420 C1422 1.395 . S
C1420 C1423 1.403 . S
H1421 C1427 0.930 . S
C1422 H1408 0.930 . S
C1422 C1420 1.395 . S
C1422 C1425 1.403 . S
C1423 C1420 1.403 . S
C1423 C1424 1.524 . S
C1423 C1427 1.400 . S
C1424 H1409 0.960 . S
C1424 H1410 0.960 . S
C1424 H1411 0.960 . S
C1424 C1423 1.524 . S
C1425 C1422 1.403 . S
C1425 C1426 1.392 . S
C1425 C1429 1.495 . S
C1426 C1425 1.392 . S
C1426 C1427 1.385 . S
C1426 C1428 1.478 . S
C1427 H1421 0.930 . S
C1427 C1423 1.400 . S
C1427 C1426 1.385 . S
C1428 C1426 1.478 . S
C1428 C1430 1.381 . S
C1428 C1434 1.383 . S
C1429 C1425 1.495 . S
C1429 H1435 0.959 . S
C1429 H1436 0.961 . S
C1429 H1437 0.960 . S
C1430 C1428 1.381 . S
C1430 C1431 1.394 . S
C1430 H1438 0.930 . S
C1431 C1430 1.394 . S
C1431 C1432 1.383 . S
C1431 H1439 0.929 . S
C1432 C1431 1.383 . S
C1432 C1433 1.377 . S
C1433 H1417 0.930 . S
C1433 C1432 1.377 . S
C1433 C1434 1.379 . S
C1434 H1418 0.931 . S
C1434 C1428 1.383 . S
C1434 C1433 1.379 . S
H1435 C1429 0.959 . S
H1436 C1429 0.961 . S
H1437 C1429 0.960 . S
H1438 C1430 0.930 . S
H1439 C1431 0.929 . S
H1440 C1448 0.929 . S
H1441 C1450 0.930 . S
H1442 C1452 0.930 . S
H1443 C1455 0.929 . S
H1444 C1458 0.930 . S
H1445 C1460 0.960 . S
H1446 C1460 0.960 . S
H1447 C1460 0.960 . S
C1448 H1440 0.929 . S
C1448 C1449 1.377 . S
C1448 C1450 1.384 . S
C1449 C1448 1.377 . S
C1449 C1455 1.390 . S
C1450 H1441 0.930 . S
C1450 C1448 1.384 . S
C1450 C1451 1.372 . S
C1451 C1450 1.372 . S
C1451 C1452 1.400 . S
C1451 C1456 1.490 . S
C1452 H1442 0.930 . S
C1452 C1451 1.400 . S
C1452 C1455 1.386 . S
H1453 C1469 0.930 . S
H1454 C1470 0.931 . S
C1455 H1443 0.929 . S
C1455 C1449 1.390 . S
C1455 C1452 1.386 . S
C1456 C1451 1.490 . S
C1456 C1458 1.395 . S
C1456 C1459 1.403 . S
H1457 C1463 0.930 . S
C1458 H1444 0.930 . S
C1458 C1456 1.395 . S
C1458 C1461 1.403 . S
C1459 C1456 1.403 . S
C1459 C1460 1.524 . S
C1459 C1463 1.400 . S
C1460 H1445 0.960 . S
C1460 H1446 0.960 . S
C1460 H1447 0.960 . S
C1460 C1459 1.524 . S
C1461 C1458 1.403 . S
C1461 C1462 1.392 . S
C1461 C1465 1.495 . S
C1462 C1461 1.392 . S
C1462 C1463 1.385 . S
C1462 C1464 1.478 . S
C1463 H1457 0.930 . S
C1463 C1459 1.400 . S
C1463 C1462 1.385 . S
C1464 C1462 1.478 . S
C1464 C1466 1.381 . S
C1464 C1470 1.383 . S
C1465 C1461 1.495 . S
C1465 H1471 0.959 . S
C1465 H1472 0.961 . S
C1465 H1473 0.960 . S
C1466 C1464 1.381 . S
C1466 C1467 1.394 . S
C1466 H1474 0.930 . S
C1467 C1466 1.394 . S
C1467 C1468 1.383 . S
C1467 H1475 0.929 . S
C1468 C1467 1.383 . S
C1468 C1469 1.377 . S
C1469 H1453 0.930 . S
C1469 C1468 1.377 . S
C1469 C1470 1.379 . S
C1470 H1454 0.931 . S
C1470 C1464 1.383 . S
C1470 C1469 1.379 . S
H1471 C1465 0.959 . S
H1472 C1465 0.961 . S
H1473 C1465 0.960 . S
H1474 C1466 0.930 . S
H1475 C1467 0.929 . S
H1476 C1484 0.929 . S
H1477 C1486 0.930 . S
H1478 C1488 0.930 . S
H1479 C1491 0.929 . S
H1480 C1494 0.930 . S
H1481 C1496 0.960 . S
H1482 C1496 0.960 . S
H1483 C1496 0.960 . S
C1484 H1476 0.929 . S
C1484 C1485 1.377 . S
C1484 C1486 1.384 . S
C1485 C1484 1.377 . S
C1485 C1491 1.390 . S
C1486 H1477 0.930 . S
C1486 C1484 1.384 . S
C1486 C1487 1.372 . S
C1487 C1486 1.372 . S
C1487 C1488 1.400 . S
C1487 C1492 1.490 . S
C1488 H1478 0.930 . S
C1488 C1487 1.400 . S
C1488 C1491 1.386 . S
H1489 C1505 0.930 . S
H1490 C1506 0.931 . S
C1491 H1479 0.929 . S
C1491 C1485 1.390 . S
C1491 C1488 1.386 . S
C1492 C1487 1.490 . S
C1492 C1494 1.395 . S
C1492 C1495 1.403 . S
H1493 C1499 0.930 . S
C1494 H1480 0.930 . S
C1494 C1492 1.395 . S
C1494 C1497 1.403 . S
C1495 C1492 1.403 . S
C1495 C1496 1.524 . S
C1495 C1499 1.400 . S
C1496 H1481 0.960 . S
C1496 H1482 0.960 . S
C1496 H1483 0.960 . S
C1496 C1495 1.524 . S
C1497 C1494 1.403 . S
C1497 C1498 1.392 . S
C1497 C1501 1.495 . S
C1498 C1497 1.392 . S
C1498 C1499 1.385 . S
C1498 C1500 1.478 . S
C1499 H1493 0.930 . S
C1499 C1495 1.400 . S
C1499 C1498 1.385 . S
C1500 C1498 1.478 . S
C1500 C1502 1.381 . S
C1500 C1506 1.383 . S
C1501 C1497 1.495 . S
C1501 H1507 0.959 . S
C1501 H1508 0.961 . S
C1501 H1509 0.960 . S
C1502 C1500 1.381 . S
C1502 C1503 1.394 . S
C1502 H1510 0.930 . S
C1503 C1502 1.394 . S
C1503 C1504 1.383 . S
C1503 H1511 0.929 . S
C1504 C1503 1.383 . S
C1504 C1505 1.377 . S
C1505 H1489 0.930 . S
C1505 C1504 1.377 . S
C1505 C1506 1.379 . S
C1506 H1490 0.931 . S
C1506 C1500 1.383 . S
C1506 C1505 1.379 . S
H1507 C1501 0.959 . S
H1508 C1501 0.961 . S
H1509 C1501 0.960 . S
H1510 C1502 0.930 . S
H1511 C1503 0.929 . S
H1512 C1520 0.929 . S
H1513 C1522 0.930 . S
H1514 C1524 0.930 . S
H1515 C1527 0.929 . S
H1516 C1530 0.930 . S
H1517 C1532 0.960 . S
H1518 C1532 0.960 . S
H1519 C1532 0.960 . S
C1520 H1512 0.929 . S
C1520 C1521 1.377 . S
C1520 C1522 1.384 . S
C1521 C1520 1.377 . S
C1521 C1527 1.390 . S
C1522 H1513 0.930 . S
C1522 C1520 1.384 . S
C1522 C1523 1.372 . S
C1523 C1522 1.372 . S
C1523 C1524 1.400 . S
C1523 C1528 1.490 . S
C1524 H1514 0.930 . S
C1524 C1523 1.400 . S
C1524 C1527 1.386 . S
H1525 C1541 0.930 . S
H1526 C1542 0.931 . S
C1527 H1515 0.929 . S
C1527 C1521 1.390 . S
C1527 C1524 1.386 . S
C1528 C1523 1.490 . S
C1528 C1530 1.395 . S
C1528 C1531 1.403 . S
H1529 C1535 0.930 . S
C1530 H1516 0.930 . S
C1530 C1528 1.395 . S
C1530 C1533 1.403 . S
C1531 C1528 1.403 . S
C1531 C1532 1.524 . S
C1531 C1535 1.400 . S
C1532 H1517 0.960 . S
C1532 H1518 0.960 . S
C1532 H1519 0.960 . S
C1532 C1531 1.524 . S
C1533 C1530 1.403 . S
C1533 C1534 1.392 . S
C1533 C1537 1.495 . S
C1534 C1533 1.392 . S
C1534 C1535 1.385 . S
C1534 C1536 1.478 . S
C1535 H1529 0.930 . S
C1535 C1531 1.400 . S
C1535 C1534 1.385 . S
C1536 C1534 1.478 . S
C1536 C1538 1.381 . S
C1536 C1542 1.383 . S
C1537 C1533 1.495 . S
C1537 H1543 0.959 . S
C1537 H1544 0.961 . S
C1537 H1545 0.960 . S
C1538 C1536 1.381 . S
C1538 C1539 1.394 . S
C1538 H1546 0.930 . S
C1539 C1538 1.394 . S
C1539 C1540 1.383 . S
C1539 H1547 0.929 . S
C1540 C1539 1.383 . S
C1540 C1541 1.377 . S
C1541 H1525 0.930 . S
C1541 C1540 1.377 . S
C1541 C1542 1.379 . S
C1542 H1526 0.931 . S
C1542 C1536 1.383 . S
C1542 C1541 1.379 . S
H1543 C1537 0.959 . S
H1544 C1537 0.961 . S
H1545 C1537 0.960 . S
H1546 C1538 0.930 . S
H1547 C1539 0.929 . S
H1548 C1556 0.929 . S
H1549 C1558 0.930 . S
H1550 C1560 0.930 . S
H1551 C1563 0.929 . S
H1552 C1566 0.930 . S
H1553 C1568 0.960 . S
H1554 C1568 0.960 . S
H1555 C1568 0.960 . S
C1556 H1548 0.929 . S
C1556 C1557 1.377 . S
C1556 C1558 1.384 . S
C1557 C1556 1.377 . S
C1557 C1563 1.390 . S
C1558 H1549 0.930 . S
C1558 C1556 1.384 . S
C1558 C1559 1.372 . S
C1559 C1558 1.372 . S
C1559 C1560 1.400 . S
C1559 C1564 1.490 . S
C1560 H1550 0.930 . S
C1560 C1559 1.400 . S
C1560 C1563 1.386 . S
H1561 C1577 0.930 . S
H1562 C1578 0.931 . S
C1563 H1551 0.929 . S
C1563 C1557 1.390 . S
C1563 C1560 1.386 . S
C1564 C1559 1.490 . S
C1564 C1566 1.395 . S
C1564 C1567 1.403 . S
H1565 C1571 0.930 . S
C1566 H1552 0.930 . S
C1566 C1564 1.395 . S
C1566 C1569 1.403 . S
C1567 C1564 1.403 . S
C1567 C1568 1.524 . S
C1567 C1571 1.400 . S
C1568 H1553 0.960 . S
C1568 H1554 0.960 . S
C1568 H1555 0.960 . S
C1568 C1567 1.524 . S
C1569 C1566 1.403 . S
C1569 C1570 1.392 . S
C1569 C1573 1.495 . S
C1570 C1569 1.392 . S
C1570 C1571 1.385 . S
C1570 C1572 1.478 . S
C1571 H1565 0.930 . S
C1571 C1567 1.400 . S
C1571 C1570 1.385 . S
C1572 C1570 1.478 . S
C1572 C1574 1.381 . S
C1572 C1578 1.383 . S
C1573 C1569 1.495 . S
C1573 H1579 0.959 . S
C1573 H1580 0.961 . S
C1573 H1581 0.960 . S
C1574 C1572 1.381 . S
C1574 C1575 1.394 . S
C1574 H1582 0.930 . S
C1575 C1574 1.394 . S
C1575 C1576 1.383 . S
C1575 H1583 0.929 . S
C1576 C1575 1.383 . S
C1576 C1577 1.377 . S
C1577 H1561 0.930 . S
C1577 C1576 1.377 . S
C1577 C1578 1.379 . S
C1578 H1562 0.931 . S
C1578 C1572 1.383 . S
C1578 C1577 1.379 . S
H1579 C1573 0.959 . S
H1580 C1573 0.961 . S
H1581 C1573 0.960 . S
H1582 C1574 0.930 . S
H1583 C1575 0.929 . S
H1584 C1592 0.929 . S
H1585 C1594 0.930 . S
H1586 C1596 0.930 . S
H1587 C1599 0.929 . S
H1588 C1602 0.930 . S
H1589 C1604 0.960 . S
H1590 C1604 0.960 . S
H1591 C1604 0.960 . S
C1592 H1584 0.929 . S
C1592 C1593 1.377 . S
C1592 C1594 1.384 . S
C1593 C1592 1.377 . S
C1593 C1599 1.390 . S
C1594 H1585 0.930 . S
C1594 C1592 1.384 . S
C1594 C1595 1.372 . S
C1595 C1594 1.372 . S
C1595 C1596 1.400 . S
C1595 C1600 1.490 . S
C1596 H1586 0.930 . S
C1596 C1595 1.400 . S
C1596 C1599 1.386 . S
H1597 C1613 0.930 . S
H1598 C1614 0.931 . S
C1599 H1587 0.929 . S
C1599 C1593 1.390 . S
C1599 C1596 1.386 . S
C1600 C1595 1.490 . S
C1600 C1602 1.395 . S
C1600 C1603 1.403 . S
H1601 C1607 0.930 . S
C1602 H1588 0.930 . S
C1602 C1600 1.395 . S
C1602 C1605 1.403 . S
C1603 C1600 1.403 . S
C1603 C1604 1.524 . S
C1603 C1607 1.400 . S
C1604 H1589 0.960 . S
C1604 H1590 0.960 . S
C1604 H1591 0.960 . S
C1604 C1603 1.524 . S
C1605 C1602 1.403 . S
C1605 C1606 1.392 . S
C1605 C1609 1.495 . S
C1606 C1605 1.392 . S
C1606 C1607 1.385 . S
C1606 C1608 1.478 . S
C1607 H1601 0.930 . S
C1607 C1603 1.400 . S
C1607 C1606 1.385 . S
C1608 C1606 1.478 . S
C1608 C1610 1.381 . S
C1608 C1614 1.383 . S
C1609 C1605 1.495 . S
C1609 H1615 0.959 . S
C1609 H1616 0.961 . S
C1609 H1617 0.960 . S
C1610 C1608 1.381 . S
C1610 C1611 1.394 . S
C1610 H1618 0.930 . S
C1611 C1610 1.394 . S
C1611 C1612 1.383 . S
C1611 H1619 0.929 . S
C1612 C1611 1.383 . S
C1612 C1613 1.377 . S
C1613 H1597 0.930 . S
C1613 C1612 1.377 . S
C1613 C1614 1.379 . S
C1614 H1598 0.931 . S
C1614 C1608 1.383 . S
C1614 C1613 1.379 . S
H1615 C1609 0.959 . S
H1616 C1609 0.961 . S
H1617 C1609 0.960 . S
H1618 C1610 0.930 . S
H1619 C1611 0.929 . S
H1620 C1628 0.929 . S
H1621 C1630 0.930 . S
H1622 C1632 0.930 . S
H1623 C1635 0.929 . S
H1624 C1638 0.930 . S
H1625 C1640 0.960 . S
H1626 C1640 0.960 . S
H1627 C1640 0.960 . S
C1628 H1620 0.929 . S
C1628 C1629 1.377 . S
C1628 C1630 1.384 . S
C1629 C1628 1.377 . S
C1629 C1635 1.390 . S
C1630 H1621 0.930 . S
C1630 C1628 1.384 . S
C1630 C1631 1.372 . S
C1631 C1630 1.372 . S
C1631 C1632 1.400 . S
C1631 C1636 1.490 . S
C1632 H1622 0.930 . S
C1632 C1631 1.400 . S
C1632 C1635 1.386 . S
H1633 C1649 0.930 . S
H1634 C1650 0.931 . S
C1635 H1623 0.929 . S
C1635 C1629 1.390 . S
C1635 C1632 1.386 . S
C1636 C1631 1.490 . S
C1636 C1638 1.395 . S
C1636 C1639 1.403 . S
H1637 C1643 0.930 . S
C1638 H1624 0.930 . S
C1638 C1636 1.395 . S
C1638 C1641 1.403 . S
C1639 C1636 1.403 . S
C1639 C1640 1.524 . S
C1639 C1643 1.400 . S
C1640 H1625 0.960 . S
C1640 H1626 0.960 . S
C1640 H1627 0.960 . S
C1640 C1639 1.524 . S
C1641 C1638 1.403 . S
C1641 C1642 1.392 . S
C1641 C1645 1.495 . S
C1642 C1641 1.392 . S
C1642 C1643 1.385 . S
C1642 C1644 1.478 . S
C1643 H1637 0.930 . S
C1643 C1639 1.400 . S
C1643 C1642 1.385 . S
C1644 C1642 1.478 . S
C1644 C1646 1.381 . S
C1644 C1650 1.383 . S
C1645 C1641 1.495 . S
C1645 H1651 0.959 . S
C1645 H1652 0.961 . S
C1645 H1653 0.960 . S
C1646 C1644 1.381 . S
C1646 C1647 1.394 . S
C1646 H1654 0.930 . S
C1647 C1646 1.394 . S
C1647 C1648 1.383 . S
C1647 H1655 0.929 . S
C1648 C1647 1.383 . S
C1648 C1649 1.377 . S
C1649 H1633 0.930 . S
C1649 C1648 1.377 . S
C1649 C1650 1.379 . S
C1650 H1634 0.931 . S
C1650 C1644 1.383 . S
C1650 C1649 1.379 . S
H1651 C1645 0.959 . S
H1652 C1645 0.961 . S
H1653 C1645 0.960 . S
H1654 C1646 0.930 . S
H1655 C1647 0.929 . S
H1656 C1664 0.929 . S
H1657 C1666 0.930 . S
H1658 C1668 0.930 . S
H1659 C1671 0.929 . S
H1660 C1674 0.930 . S
H1661 C1676 0.960 . S
H1662 C1676 0.960 . S
H1663 C1676 0.960 . S
C1664 H1656 0.929 . S
C1664 C1665 1.377 . S
C1664 C1666 1.384 . S
C1665 C1664 1.377 . S
C1665 C1671 1.390 . S
C1666 H1657 0.930 . S
C1666 C1664 1.384 . S
C1666 C1667 1.372 . S
C1667 C1666 1.372 . S
C1667 C1668 1.400 . S
C1667 C1672 1.490 . S
C1668 H1658 0.930 . S
C1668 C1667 1.400 . S
C1668 C1671 1.386 . S
H1669 C1685 0.930 . S
H1670 C1686 0.931 . S
C1671 H1659 0.929 . S
C1671 C1665 1.390 . S
C1671 C1668 1.386 . S
C1672 C1667 1.490 . S
C1672 C1674 1.395 . S
C1672 C1675 1.403 . S
H1673 C1679 0.930 . S
C1674 H1660 0.930 . S
C1674 C1672 1.395 . S
C1674 C1677 1.403 . S
C1675 C1672 1.403 . S
C1675 C1676 1.524 . S
C1675 C1679 1.400 . S
C1676 H1661 0.960 . S
C1676 H1662 0.960 . S
C1676 H1663 0.960 . S
C1676 C1675 1.524 . S
C1677 C1674 1.403 . S
C1677 C1678 1.392 . S
C1677 C1681 1.495 . S
C1678 C1677 1.392 . S
C1678 C1679 1.385 . S
C1678 C1680 1.478 . S
C1679 H1673 0.930 . S
C1679 C1675 1.400 . S
C1679 C1678 1.385 . S
C1680 C1678 1.478 . S
C1680 C1682 1.381 . S
C1680 C1686 1.383 . S
C1681 C1677 1.495 . S
C1681 H1687 0.959 . S
C1681 H1688 0.961 . S
C1681 H1689 0.960 . S
C1682 C1680 1.381 . S
C1682 C1683 1.394 . S
C1682 H1690 0.930 . S
C1683 C1682 1.394 . S
C1683 C1684 1.383 . S
C1683 H1691 0.929 . S
C1684 C1683 1.383 . S
C1684 C1685 1.377 . S
C1685 H1669 0.930 . S
C1685 C1684 1.377 . S
C1685 C1686 1.379 . S
C1686 H1670 0.931 . S
C1686 C1680 1.383 . S
C1686 C1685 1.379 . S
H1687 C1681 0.959 . S
H1688 C1681 0.961 . S
H1689 C1681 0.960 . S
H1690 C1682 0.930 . S
H1691 C1683 0.929 . S
H1692 C1700 0.929 . S
H1693 C1702 0.930 . S
H1694 C1704 0.930 . S
H1695 C1707 0.929 . S
H1696 C1710 0.930 . S
H1697 C1712 0.960 . S
H1698 C1712 0.960 . S
H1699 C1712 0.960 . S
C1700 H1692 0.929 . S
C1700 C1701 1.377 . S
C1700 C1702 1.384 . S
C1701 C1700 1.377 . S
C1701 C1707 1.390 . S
C1702 H1693 0.930 . S
C1702 C1700 1.384 . S
C1702 C1703 1.372 . S
C1703 C1702 1.372 . S
C1703 C1704 1.400 . S
C1703 C1708 1.490 . S
C1704 H1694 0.930 . S
C1704 C1703 1.400 . S
C1704 C1707 1.386 . S
H1705 C1721 0.930 . S
H1706 C1722 0.931 . S
C1707 H1695 0.929 . S
C1707 C1701 1.390 . S
C1707 C1704 1.386 . S
C1708 C1703 1.490 . S
C1708 C1710 1.395 . S
C1708 C1711 1.403 . S
H1709 C1715 0.930 . S
C1710 H1696 0.930 . S
C1710 C1708 1.395 . S
C1710 C1713 1.403 . S
C1711 C1708 1.403 . S
C1711 C1712 1.524 . S
C1711 C1715 1.400 . S
C1712 H1697 0.960 . S
C1712 H1698 0.960 . S
C1712 H1699 0.960 . S
C1712 C1711 1.524 . S
C1713 C1710 1.403 . S
C1713 C1714 1.392 . S
C1713 C1717 1.495 . S
C1714 C1713 1.392 . S
C1714 C1715 1.385 . S
C1714 C1716 1.478 . S
C1715 H1709 0.930 . S
C1715 C1711 1.400 . S
C1715 C1714 1.385 . S
C1716 C1714 1.478 . S
C1716 C1718 1.381 . S
C1716 C1722 1.383 . S
C1717 C1713 1.495 . S
C1717 H1723 0.959 . S
C1717 H1724 0.961 . S
C1717 H1725 0.960 . S
C1718 C1716 1.381 . S
C1718 C1719 1.394 . S
C1718 H1726 0.930 . S
C1719 C1718 1.394 . S
C1719 C1720 1.383 . S
C1719 H1727 0.929 . S
C1720 C1719 1.383 . S
C1720 C1721 1.377 . S
C1721 H1705 0.930 . S
C1721 C1720 1.377 . S
C1721 C1722 1.379 . S
C1722 H1706 0.931 . S
C1722 C1716 1.383 . S
C1722 C1721 1.379 . S
H1723 C1717 0.959 . S
H1724 C1717 0.961 . S
H1725 C1717 0.960 . S
H1726 C1718 0.930 . S
H1727 C1719 0.929 . S
H1728 C1736 0.929 . S
H1729 C1738 0.930 . S
H1730 C1740 0.930 . S
H1731 C1743 0.929 . S
H1732 C1746 0.930 . S
H1733 C1748 0.960 . S
H1734 C1748 0.960 . S
H1735 C1748 0.960 . S
C1736 H1728 0.929 . S
C1736 C1737 1.377 . S
C1736 C1738 1.384 . S
C1737 C1736 1.377 . S
C1737 C1743 1.390 . S
C1738 H1729 0.930 . S
C1738 C1736 1.384 . S
C1738 C1739 1.372 . S
C1739 C1738 1.372 . S
C1739 C1740 1.400 . S
C1739 C1744 1.490 . S
C1740 H1730 0.930 . S
C1740 C1739 1.400 . S
C1740 C1743 1.386 . S
H1741 C1757 0.930 . S
H1742 C1758 0.931 . S
C1743 H1731 0.929 . S
C1743 C1737 1.390 . S
C1743 C1740 1.386 . S
C1744 C1739 1.490 . S
C1744 C1746 1.395 . S
C1744 C1747 1.403 . S
H1745 C1751 0.930 . S
C1746 H1732 0.930 . S
C1746 C1744 1.395 . S
C1746 C1749 1.403 . S
C1747 C1744 1.403 . S
C1747 C1748 1.524 . S
C1747 C1751 1.400 . S
C1748 H1733 0.960 . S
C1748 H1734 0.960 . S
C1748 H1735 0.960 . S
C1748 C1747 1.524 . S
C1749 C1746 1.403 . S
C1749 C1750 1.392 . S
C1749 C1753 1.495 . S
C1750 C1749 1.392 . S
C1750 C1751 1.385 . S
C1750 C1752 1.478 . S
C1751 H1745 0.930 . S
C1751 C1747 1.400 . S
C1751 C1750 1.385 . S
C1752 C1750 1.478 . S
C1752 C1754 1.381 . S
C1752 C1758 1.383 . S
C1753 C1749 1.495 . S
C1753 H1759 0.959 . S
C1753 H1760 0.961 . S
C1753 H1761 0.960 . S
C1754 C1752 1.381 . S
C1754 C1755 1.394 . S
C1754 H1762 0.930 . S
C1755 C1754 1.394 . S
C1755 C1756 1.383 . S
C1755 H1763 0.929 . S
C1756 C1755 1.383 . S
C1756 C1757 1.377 . S
C1757 H1741 0.930 . S
C1757 C1756 1.377 . S
C1757 C1758 1.379 . S
C1758 H1742 0.931 . S
C1758 C1752 1.383 . S
C1758 C1757 1.379 . S
H1759 C1753 0.959 . S
H1760 C1753 0.961 . S
H1761 C1753 0.960 . S
H1762 C1754 0.930 . S
H1763 C1755 0.929 . S
H1764 C1772 0.929 . S
H1765 C1774 0.930 . S
H1766 C1776 0.930 . S
H1767 C1779 0.929 . S
H1768 C1782 0.930 . S
H1769 C1784 0.960 . S
H1770 C1784 0.960 . S
H1771 C1784 0.960 . S
C1772 H1764 0.929 . S
C1772 C1773 1.377 . S
C1772 C1774 1.384 . S
C1773 C1772 1.377 . S
C1773 C1779 1.390 . S
C1774 H1765 0.930 . S
C1774 C1772 1.384 . S
C1774 C1775 1.372 . S
C1775 C1774 1.372 . S
C1775 C1776 1.400 . S
C1775 C1780 1.490 . S
C1776 H1766 0.930 . S
C1776 C1775 1.400 . S
C1776 C1779 1.386 . S
H1777 C1793 0.930 . S
H1778 C1794 0.931 . S
C1779 H1767 0.929 . S
C1779 C1773 1.390 . S
C1779 C1776 1.386 . S
C1780 C1775 1.490 . S
C1780 C1782 1.395 . S
C1780 C1783 1.403 . S
H1781 C1787 0.930 . S
C1782 H1768 0.930 . S
C1782 C1780 1.395 . S
C1782 C1785 1.403 . S
C1783 C1780 1.403 . S
C1783 C1784 1.524 . S
C1783 C1787 1.400 . S
C1784 H1769 0.960 . S
C1784 H1770 0.960 . S
C1784 H1771 0.960 . S
C1784 C1783 1.524 . S
C1785 C1782 1.403 . S
C1785 C1786 1.392 . S
C1785 C1789 1.495 . S
C1786 C1785 1.392 . S
C1786 C1787 1.385 . S
C1786 C1788 1.478 . S
C1787 H1781 0.930 . S
C1787 C1783 1.400 . S
C1787 C1786 1.385 . S
C1788 C1786 1.478 . S
C1788 C1790 1.381 . S
C1788 C1794 1.383 . S
C1789 C1785 1.495 . S
C1789 H1795 0.959 . S
C1789 H1796 0.961 . S
C1789 H1797 0.960 . S
C1790 C1788 1.381 . S
C1790 C1791 1.394 . S
C1790 H1798 0.930 . S
C1791 C1790 1.394 . S
C1791 C1792 1.383 . S
C1791 H1799 0.929 . S
C1792 C1791 1.383 . S
C1792 C1793 1.377 . S
C1793 H1777 0.930 . S
C1793 C1792 1.377 . S
C1793 C1794 1.379 . S
C1794 H1778 0.931 . S
C1794 C1788 1.383 . S
C1794 C1793 1.379 . S
H1795 C1789 0.959 . S
H1796 C1789 0.961 . S
H1797 C1789 0.960 . S
H1798 C1790 0.930 . S
H1799 C1791 0.929 . S
H1800 C1808 0.929 . S
H1801 C1810 0.930 . S
H1802 C1812 0.930 . S
H1803 C1815 0.929 . S
H1804 C1818 0.930 . S
H1805 C1820 0.960 . S
H1806 C1820 0.960 . S
H1807 C1820 0.960 . S
C1808 H1800 0.929 . S
C1808 C1809 1.377 . S
C1808 C1810 1.384 . S
C1809 C1808 1.377 . S
C1809 C1815 1.390 . S
C1810 H1801 0.930 . S
C1810 C1808 1.384 . S
C1810 C1811 1.372 . S
C1811 C1810 1.372 . S
C1811 C1812 1.400 . S
C1811 C1816 1.490 . S
C1812 H1802 0.930 . S
C1812 C1811 1.400 . S
C1812 C1815 1.386 . S
H1813 C1829 0.930 . S
H1814 C1830 0.931 . S
C1815 H1803 0.929 . S
C1815 C1809 1.390 . S
C1815 C1812 1.386 . S
C1816 C1811 1.490 . S
C1816 C1818 1.395 . S
C1816 C1819 1.403 . S
H1817 C1823 0.930 . S
C1818 H1804 0.930 . S
C1818 C1816 1.395 . S
C1818 C1821 1.403 . S
C1819 C1816 1.403 . S
C1819 C1820 1.524 . S
C1819 C1823 1.400 . S
C1820 H1805 0.960 . S
C1820 H1806 0.960 . S
C1820 H1807 0.960 . S
C1820 C1819 1.524 . S
C1821 C1818 1.403 . S
C1821 C1822 1.392 . S
C1821 C1825 1.495 . S
C1822 C1821 1.392 . S
C1822 C1823 1.385 . S
C1822 C1824 1.478 . S
C1823 H1817 0.930 . S
C1823 C1819 1.400 . S
C1823 C1822 1.385 . S
C1824 C1822 1.478 . S
C1824 C1826 1.381 . S
C1824 C1830 1.383 . S
C1825 C1821 1.495 . S
C1825 H1831 0.959 . S
C1825 H1832 0.961 . S
C1825 H1833 0.960 . S
C1826 C1824 1.381 . S
C1826 C1827 1.394 . S
C1826 H1834 0.930 . S
C1827 C1826 1.394 . S
C1827 C1828 1.383 . S
C1827 H1835 0.929 . S
C1828 C1827 1.383 . S
C1828 C1829 1.377 . S
C1829 H1813 0.930 . S
C1829 C1828 1.377 . S
C1829 C1830 1.379 . S
C1830 H1814 0.931 . S
C1830 C1824 1.383 . S
C1830 C1829 1.379 . S
H1831 C1825 0.959 . S
H1832 C1825 0.961 . S
H1833 C1825 0.960 . S
H1834 C1826 0.930 . S
H1835 C1827 0.929 . S
H1836 C1844 0.929 . S
H1837 C1846 0.930 . S
H1838 C1848 0.930 . S
H1839 C1851 0.929 . S
H1840 C1854 0.930 . S
H1841 C1856 0.960 . S
H1842 C1856 0.960 . S
H1843 C1856 0.960 . S
C1844 H1836 0.929 . S
C1844 C1845 1.377 . S
C1844 C1846 1.384 . S
C1845 C1844 1.377 . S
C1845 C1851 1.390 . S
C1846 H1837 0.930 . S
C1846 C1844 1.384 . S
C1846 C1847 1.372 . S
C1847 C1846 1.372 . S
C1847 C1848 1.400 . S
C1847 C1852 1.490 . S
C1848 H1838 0.930 . S
C1848 C1847 1.400 . S
C1848 C1851 1.386 . S
H1849 C1865 0.930 . S
H1850 C1866 0.931 . S
C1851 H1839 0.929 . S
C1851 C1845 1.390 . S
C1851 C1848 1.386 . S
C1852 C1847 1.490 . S
C1852 C1854 1.395 . S
C1852 C1855 1.403 . S
H1853 C1859 0.930 . S
C1854 H1840 0.930 . S
C1854 C1852 1.395 . S
C1854 C1857 1.403 . S
C1855 C1852 1.403 . S
C1855 C1856 1.524 . S
C1855 C1859 1.400 . S
C1856 H1841 0.960 . S
C1856 H1842 0.960 . S
C1856 H1843 0.960 . S
C1856 C1855 1.524 . S
C1857 C1854 1.403 . S
C1857 C1858 1.392 . S
C1857 C1861 1.495 . S
C1858 C1857 1.392 . S
C1858 C1859 1.385 . S
C1858 C1860 1.478 . S
C1859 H1853 0.930 . S
C1859 C1855 1.400 . S
C1859 C1858 1.385 . S
C1860 C1858 1.478 . S
C1860 C1862 1.381 . S
C1860 C1866 1.383 . S
C1861 C1857 1.495 . S
C1861 H1867 0.959 . S
C1861 H1868 0.961 . S
C1861 H1869 0.960 . S
C1862 C1860 1.381 . S
C1862 C1863 1.394 . S
C1862 H1870 0.930 . S
C1863 C1862 1.394 . S
C1863 C1864 1.383 . S
C1863 H1871 0.929 . S
C1864 C1863 1.383 . S
C1864 C1865 1.377 . S
C1865 H1849 0.930 . S
C1865 C1864 1.377 . S
C1865 C1866 1.379 . S
C1866 H1850 0.931 . S
C1866 C1860 1.383 . S
C1866 C1865 1.379 . S
H1867 C1861 0.959 . S
H1868 C1861 0.961 . S
H1869 C1861 0.960 . S
H1870 C1862 0.930 . S
H1871 C1863 0.929 . S
H1872 C1880 0.929 . S
H1873 C1882 0.930 . S
H1874 C1884 0.930 . S
H1875 C1887 0.929 . S
H1876 C1890 0.930 . S
H1877 C1892 0.960 . S
H1878 C1892 0.960 . S
H1879 C1892 0.960 . S
C1880 H1872 0.929 . S
C1880 C1881 1.377 . S
C1880 C1882 1.384 . S
C1881 C1880 1.377 . S
C1881 C1887 1.390 . S
C1882 H1873 0.930 . S
C1882 C1880 1.384 . S
C1882 C1883 1.372 . S
C1883 C1882 1.372 . S
C1883 C1884 1.400 . S
C1883 C1888 1.490 . S
C1884 H1874 0.930 . S
C1884 C1883 1.400 . S
C1884 C1887 1.386 . S
H1885 C1901 0.930 . S
H1886 C1902 0.931 . S
C1887 H1875 0.929 . S
C1887 C1881 1.390 . S
C1887 C1884 1.386 . S
C1888 C1883 1.490 . S
C1888 C1890 1.395 . S
C1888 C1891 1.403 . S
H1889 C1895 0.930 . S
C1890 H1876 0.930 . S
C1890 C1888 1.395 . S
C1890 C1893 1.403 . S
C1891 C1888 1.403 . S
C1891 C1892 1.524 . S
C1891 C1895 1.400 . S
C1892 H1877 0.960 . S
C1892 H1878 0.960 . S
C1892 H1879 0.960 . S
C1892 C1891 1.524 . S
C1893 C1890 1.403 . S
C1893 C1894 1.392 . S
C1893 C1897 1.495 . S
C1894 C1893 1.392 . S
C1894 C1895 1.385 . S
C1894 C1896 1.478 . S
C1895 H1889 0.930 . S
C1895 C1891 1.400 . S
C1895 C1894 1.385 . S
C1896 C1894 1.478 . S
C1896 C1898 1.381 . S
C1896 C1902 1.383 . S
C1897 C1893 1.495 . S
C1897 H1903 0.959 . S
C1897 H1904 0.961 . S
C1897 H1905 0.960 . S
C1898 C1896 1.381 . S
C1898 C1899 1.394 . S
C1898 H1906 0.930 . S
C1899 C1898 1.394 . S
C1899 C1900 1.383 . S
C1899 H1907 0.929 . S
C1900 C1899 1.383 . S
C1900 C1901 1.377 . S
C1901 H1885 0.930 . S
C1901 C1900 1.377 . S
C1901 C1902 1.379 . S
C1902 H1886 0.931 . S
C1902 C1896 1.383 . S
C1902 C1901 1.379 . S
H1903 C1897 0.959 . S
H1904 C1897 0.961 . S
H1905 C1897 0.960 . S
H1906 C1898 0.930 . S
H1907 C1899 0.929 . S
H1908 C1916 0.929 . S
H1909 C1918 0.930 . S
H1910 C1920 0.930 . S
H1911 C1923 0.929 . S
H1912 C1926 0.930 . S
H1913 C1928 0.960 . S
H1914 C1928 0.960 . S
H1915 C1928 0.960 . S
C1916 H1908 0.929 . S
C1916 C1917 1.377 . S
C1916 C1918 1.384 . S
C1917 C1916 1.377 . S
C1917 C1923 1.390 . S
C1918 H1909 0.930 . S
C1918 C1916 1.384 . S
C1918 C1919 1.372 . S
C1919 C1918 1.372 . S
C1919 C1920 1.400 . S
C1919 C1924 1.490 . S
C1920 H1910 0.930 . S
C1920 C1919 1.400 . S
C1920 C1923 1.386 . S
H1921 C1937 0.930 . S
H1922 C1938 0.931 . S
C1923 H1911 0.929 . S
C1923 C1917 1.390 . S
C1923 C1920 1.386 . S
C1924 C1919 1.490 . S
C1924 C1926 1.395 . S
C1924 C1927 1.403 . S
H1925 C1931 0.930 . S
C1926 H1912 0.930 . S
C1926 C1924 1.395 . S
C1926 C1929 1.403 . S
C1927 C1924 1.403 . S
C1927 C1928 1.524 . S
C1927 C1931 1.400 . S
C1928 H1913 0.960 . S
C1928 H1914 0.960 . S
C1928 H1915 0.960 . S
C1928 C1927 1.524 . S
C1929 C1926 1.403 . S
C1929 C1930 1.392 . S
C1929 C1933 1.495 . S
C1930 C1929 1.392 . S
C1930 C1931 1.385 . S
C1930 C1932 1.478 . S
C1931 H1925 0.930 . S
C1931 C1927 1.400 . S
C1931 C1930 1.385 . S
C1932 C1930 1.478 . S
C1932 C1934 1.381 . S
C1932 C1938 1.383 . S
C1933 C1929 1.495 . S
C1933 H1939 0.959 . S
C1933 H1940 0.961 . S
C1933 H1941 0.960 . S
C1934 C1932 1.381 . S
C1934 C1935 1.394 . S
C1934 H1942 0.930 . S
C1935 C1934 1.394 . S
C1935 C1936 1.383 . S
C1935 H1943 0.929 . S
C1936 C1935 1.383 . S
C1936 C1937 1.377 . S
C1937 H1921 0.930 . S
C1937 C1936 1.377 . S
C1937 C1938 1.379 . S
C1938 H1922 0.931 . S
C1938 C1932 1.383 . S
C1938 C1937 1.379 . S
H1939 C1933 0.959 . S
H1940 C1933 0.961 . S
H1941 C1933 0.960 . S
H1942 C1934 0.930 . S
H1943 C1935 0.929 . S
H1944 C1952 0.929 . S
H1945 C1954 0.930 . S
H1946 C1956 0.930 . S
H1947 C1959 0.929 . S
H1948 C1962 0.930 . S
H1949 C1964 0.960 . S
H1950 C1964 0.960 . S
H1951 C1964 0.960 . S
C1952 H1944 0.929 . S
C1952 C1953 1.377 . S
C1952 C1954 1.384 . S
C1953 C1952 1.377 . S
C1953 C1959 1.390 . S
C1954 H1945 0.930 . S
C1954 C1952 1.384 . S
C1954 C1955 1.372 . S
C1955 C1954 1.372 . S
C1955 C1956 1.400 . S
C1955 C1960 1.490 . S
C1956 H1946 0.930 . S
C1956 C1955 1.400 . S
C1956 C1959 1.386 . S
H1957 C1973 0.930 . S
H1958 C1974 0.931 . S
C1959 H1947 0.929 . S
C1959 C1953 1.390 . S
C1959 C1956 1.386 . S
C1960 C1955 1.490 . S
C1960 C1962 1.395 . S
C1960 C1963 1.403 . S
H1961 C1967 0.930 . S
C1962 H1948 0.930 . S
C1962 C1960 1.395 . S
C1962 C1965 1.403 . S
C1963 C1960 1.403 . S
C1963 C1964 1.524 . S
C1963 C1967 1.400 . S
C1964 H1949 0.960 . S
C1964 H1950 0.960 . S
C1964 H1951 0.960 . S
C1964 C1963 1.524 . S
C1965 C1962 1.403 . S
C1965 C1966 1.392 . S
C1965 C1969 1.495 . S
C1966 C1965 1.392 . S
C1966 C1967 1.385 . S
C1966 C1968 1.478 . S
C1967 H1961 0.930 . S
C1967 C1963 1.400 . S
C1967 C1966 1.385 . S
C1968 C1966 1.478 . S
C1968 C1970 1.381 . S
C1968 C1974 1.383 . S
C1969 C1965 1.495 . S
C1969 H1975 0.959 . S
C1969 H1976 0.961 . S
C1969 H1977 0.960 . S
C1970 C1968 1.381 . S
C1970 C1971 1.394 . S
C1970 H1978 0.930 . S
C1971 C1970 1.394 . S
C1971 C1972 1.383 . S
C1971 H1979 0.929 . S
C1972 C1971 1.383 . S
C1972 C1973 1.377 . S
C1973 H1957 0.930 . S
C1973 C1972 1.377 . S
C1973 C1974 1.379 . S
C1974 H1958 0.931 . S
C1974 C1968 1.383 . S
C1974 C1973 1.379 . S
H1975 C1969 0.959 . S
H1976 C1969 0.961 . S
H1977 C1969 0.960 . S
H1978 C1970 0.930 . S
H1979 C1971 0.929 . S
H1980 C1988 0.929 . S
H1981 C1990 0.930 . S
H1982 C1992 0.930 . S
H1983 C1995 0.929 . S
H1984 C1998 0.930 . S
H1985 C2000 0.960 . S
H1986 C2000 0.960 . S
H1987 C2000 0.960 . S
C1988 H1980 0.929 . S
C1988 C1989 1.377 . S
C1988 C1990 1.384 . S
C1989 C1988 1.377 . S
C1989 C1995 1.390 . S
C1990 H1981 0.930 . S
C1990 C1988 1.384 . S
C1990 C1991 1.372 . S
C1991 C1990 1.372 . S
C1991 C1992 1.400 . S
C1991 C1996 1.490 . S
C1992 H1982 0.930 . S
C1992 C1991 1.400 . S
C1992 C1995 1.386 . S
H1993 C2009 0.930 . S
H1994 C2010 0.931 . S
C1995 H1983 0.929 . S
C1995 C1989 1.390 . S
C1995 C1992 1.386 . S
C1996 C1991 1.490 . S
C1996 C1998 1.395 . S
C1996 C1999 1.403 . S
H1997 C2003 0.930 . S
C1998 H1984 0.930 . S
C1998 C1996 1.395 . S
C1998 C2001 1.403 . S
C1999 C1996 1.403 . S
C1999 C2000 1.524 . S
C1999 C2003 1.400 . S
C2000 H1985 0.960 . S
C2000 H1986 0.960 . S
C2000 H1987 0.960 . S
C2000 C1999 1.524 . S
C2001 C1998 1.403 . S
C2001 C2002 1.392 . S
C2001 C2005 1.495 . S
C2002 C2001 1.392 . S
C2002 C2003 1.385 . S
C2002 C2004 1.478 . S
C2003 H1997 0.930 . S
C2003 C1999 1.400 . S
C2003 C2002 1.385 . S
C2004 C2002 1.478 . S
C2004 C2006 1.381 . S
C2004 C2010 1.383 . S
C2005 C2001 1.495 . S
C2005 H2011 0.959 . S
C2005 H2012 0.961 . S
C2005 H2013 0.960 . S
C2006 C2004 1.381 . S
C2006 C2007 1.394 . S
C2006 H2014 0.930 . S
C2007 C2006 1.394 . S
C2007 C2008 1.383 . S
C2007 H2015 0.929 . S
C2008 C2007 1.383 . S
C2008 C2009 1.377 . S
C2009 H1993 0.930 . S
C2009 C2008 1.377 . S
C2009 C2010 1.379 . S
C2010 H1994 0.931 . S
C2010 C2004 1.383 . S
C2010 C2009 1.379 . S
H2011 C2005 0.959 . S
H2012 C2005 0.961 . S
H2013 C2005 0.960 . S
H2014 C2006 0.930 . S
H2015 C2007 0.929 . S
H2016 C2024 0.929 . S
H2017 C2026 0.930 . S
H2018 C2028 0.930 1_554 S
H2019 C2031 0.929 . S
H2020 C2034 0.930 . S
H2021 C2036 0.960 . S
H2022 C2036 0.960 . S
H2023 C2036 0.960 . S
C2024 H2016 0.929 . S
C2024 C2025 1.377 . S
C2024 C2026 1.384 . S
C2025 C2024 1.377 . S
C2025 C2031 1.390 1_556 S
C2026 H2017 0.930 . S
C2026 C2024 1.384 . S
C2026 C2027 1.372 . S
C2027 C2026 1.372 . S
C2027 C2028 1.400 . S
C2027 C2032 1.490 . S
C2028 H2018 0.930 1_556 S
C2028 C2027 1.400 . S
C2028 C2031 1.386 1_556 S
H2029 C2045 0.930 . S
H2030 C2046 0.931 . S
C2031 H2019 0.929 . S
C2031 C2025 1.390 1_554 S
C2031 C2028 1.386 1_554 S
C2032 C2027 1.490 . S
C2032 C2034 1.395 . S
C2032 C2035 1.403 . S
H2033 C2039 0.930 . S
C2034 H2020 0.930 . S
C2034 C2032 1.395 . S
C2034 C2037 1.403 . S
C2035 C2032 1.403 . S
C2035 C2036 1.524 . S
C2035 C2039 1.400 . S
C2036 H2021 0.960 . S
C2036 H2022 0.960 . S
C2036 H2023 0.960 . S
C2036 C2035 1.524 . S
C2037 C2034 1.403 . S
C2037 C2038 1.392 . S
C2037 C2041 1.495 . S
C2038 C2037 1.392 . S
C2038 C2039 1.385 . S
C2038 C2040 1.478 . S
C2039 H2033 0.930 . S
C2039 C2035 1.400 . S
C2039 C2038 1.385 . S
C2040 C2038 1.478 . S
C2040 C2042 1.381 . S
C2040 C2046 1.383 . S
C2041 C2037 1.495 . S
C2041 H2047 0.959 . S
C2041 H2048 0.961 . S
C2041 H2049 0.960 . S
C2042 C2040 1.381 . S
C2042 C2043 1.394 . S
C2042 H2050 0.930 . S
C2043 C2042 1.394 . S
C2043 C2044 1.383 . S
C2043 H2051 0.929 . S
C2044 C2043 1.383 . S
C2044 C2045 1.377 . S
C2045 H2029 0.930 . S
C2045 C2044 1.377 . S
C2045 C2046 1.379 . S
C2046 H2030 0.931 . S
C2046 C2040 1.383 . S
C2046 C2045 1.379 . S
H2047 C2041 0.959 . S
H2048 C2041 0.961 . S
H2049 C2041 0.960 . S
H2050 C2042 0.930 . S
H2051 C2043 0.929 . S
H2052 C2060 0.929 . S
H2053 C2062 0.930 . S
H2054 C2064 0.930 . S
H2055 C2067 0.916 1_554 S
H2056 C2070 0.930 . S
H2057 C2072 0.960 . S
H2058 C2072 0.960 . S
H2059 C2072 0.960 . S
C2060 H2052 0.929 . S
C2060 C2061 1.377 . S
C2060 C2062 1.384 . S
C2061 C2060 1.377 . S
C2061 C2067 1.396 . S
C2062 H2053 0.930 . S
C2062 C2060 1.384 . S
C2062 C2063 1.372 . S
C2063 C2062 1.372 . S
C2063 C2064 1.400 . S
C2063 C2068 1.490 . S
C2064 H2054 0.930 . S
C2064 C2063 1.400 . S
C2064 C2067 1.394 . S
H2065 C2081 0.930 . S
H2066 C2082 0.931 . S
C2067 H2055 0.916 1_556 S
C2067 C2061 1.396 . S
C2067 C2064 1.394 . S
C2068 C2063 1.490 . S
C2068 C2070 1.395 . S
C2068 C2071 1.403 . S
H2069 C2075 0.930 . S
C2070 H2056 0.930 . S
C2070 C2068 1.395 . S
C2070 C2073 1.403 . S
C2071 C2068 1.403 . S
C2071 C2072 1.524 . S
C2071 C2075 1.400 . S
C2072 H2057 0.960 . S
C2072 H2058 0.960 . S
C2072 H2059 0.960 . S
C2072 C2071 1.524 . S
C2073 C2070 1.403 . S
C2073 C2074 1.392 . S
C2073 C2077 1.495 . S
C2074 C2073 1.392 . S
C2074 C2075 1.385 . S
C2074 C2076 1.478 . S
C2075 H2069 0.930 . S
C2075 C2071 1.400 . S
C2075 C2074 1.385 . S
C2076 C2074 1.478 . S
C2076 C2078 1.381 . S
C2076 C2082 1.383 . S
C2077 C2073 1.495 . S
C2077 H2083 0.959 . S
C2077 H2084 0.961 . S
C2077 H2085 0.960 . S
C2078 C2076 1.381 . S
C2078 C2079 1.394 . S
C2078 H2086 0.930 . S
C2079 C2078 1.394 . S
C2079 C2080 1.383 . S
C2079 H2087 0.929 . S
C2080 C2079 1.383 . S
C2080 C2081 1.377 . S
C2081 H2065 0.930 . S
C2081 C2080 1.377 . S
C2081 C2082 1.379 . S
C2082 H2066 0.931 . S
C2082 C2076 1.383 . S
C2082 C2081 1.379 . S
H2083 C2077 0.959 . S
H2084 C2077 0.961 . S
H2085 C2077 0.960 . S
H2086 C2078 0.930 . S
H2087 C2079 0.929 . S
H2088 C2096 0.929 . S
H2089 C2098 0.906 1_554 S
H2090 C2100 0.930 . S
H2091 C2103 0.929 . S
H2092 C2106 0.930 . S
H2093 C2108 0.960 . S
H2094 C2108 0.960 . S
H2095 C2108 0.960 . S
C2096 H2088 0.929 . S
C2096 C2097 1.377 1_554 S
C2096 C2098 1.371 1_554 S
C2097 C2096 1.377 1_556 S
C2097 C2103 1.390 . S
C2098 H2089 0.906 1_556 S
C2098 C2096 1.371 1_556 S
C2098 C2099 1.408 . S
C2099 C2098 1.408 . S
C2099 C2100 1.400 . S
C2099 C2104 1.490 . S
C2100 H2090 0.930 . S
C2100 C2099 1.400 . S
C2100 C2103 1.386 . S
H2101 C2117 0.930 . S
H2102 C2118 0.931 . S
C2103 H2091 0.929 . S
C2103 C2097 1.390 . S
C2103 C2100 1.386 . S
C2104 C2099 1.490 . S
C2104 C2106 1.395 . S
C2104 C2107 1.403 . S
H2105 C2111 0.930 . S
C2106 H2092 0.930 . S
C2106 C2104 1.395 . S
C2106 C2109 1.403 . S
C2107 C2104 1.403 . S
C2107 C2108 1.524 . S
C2107 C2111 1.400 . S
C2108 H2093 0.960 . S
C2108 H2094 0.960 . S
C2108 H2095 0.960 . S
C2108 C2107 1.524 . S
C2109 C2106 1.403 . S
C2109 C2110 1.392 . S
C2109 C2113 1.495 . S
C2110 C2109 1.392 . S
C2110 C2111 1.385 . S
C2110 C2112 1.478 . S
C2111 H2105 0.930 . S
C2111 C2107 1.400 . S
C2111 C2110 1.385 . S
C2112 C2110 1.478 . S
C2112 C2114 1.381 . S
C2112 C2118 1.383 . S
C2113 C2109 1.495 . S
C2113 H2119 0.959 . S
C2113 H2120 0.961 . S
C2113 H2121 0.960 . S
C2114 C2112 1.381 . S
C2114 C2115 1.394 . S
C2114 H2122 0.930 . S
C2115 C2114 1.394 . S
C2115 C2116 1.383 . S
C2115 H2123 0.929 . S
C2116 C2115 1.383 . S
C2116 C2117 1.377 . S
C2117 H2101 0.930 . S
C2117 C2116 1.377 . S
C2117 C2118 1.379 . S
C2118 H2102 0.931 . S
C2118 C2112 1.383 . S
C2118 C2117 1.379 . S
H2119 C2113 0.959 . S
H2120 C2113 0.961 . S
H2121 C2113 0.960 . S
H2122 C2114 0.930 . S
H2123 C2115 0.929 . S
H2124 C2132 0.929 . S
H2125 C2134 0.930 . S
H2126 C2136 0.930 . S
H2127 C2139 0.929 . S
H2128 C2142 0.930 . S
H2129 C2144 0.960 . S
H2130 C2144 0.960 . S
H2131 C2144 0.960 . S
C2132 H2124 0.929 . S
C2132 C2133 1.377 . S
C2132 C2134 1.384 . S
C2133 C2132 1.377 . S
C2133 C2139 1.390 . S
C2134 H2125 0.930 . S
C2134 C2132 1.384 . S
C2134 C2135 1.372 . S
C2135 C2134 1.372 . S
C2135 C2136 1.400 . S
C2135 C2140 1.490 . S
C2136 H2126 0.930 . S
C2136 C2135 1.400 . S
C2136 C2139 1.386 . S
H2137 C2153 0.930 . S
H2138 C2154 0.931 . S
C2139 H2127 0.929 . S
C2139 C2133 1.390 . S
C2139 C2136 1.386 . S
C2140 C2135 1.490 . S
C2140 C2142 1.395 . S
C2140 C2143 1.403 . S
H2141 C2147 0.930 . S
C2142 H2128 0.930 . S
C2142 C2140 1.395 . S
C2142 C2145 1.403 . S
C2143 C2140 1.403 . S
C2143 C2144 1.524 . S
C2143 C2147 1.400 . S
C2144 H2129 0.960 . S
C2144 H2130 0.960 . S
C2144 H2131 0.960 . S
C2144 C2143 1.524 . S
C2145 C2142 1.403 . S
C2145 C2146 1.392 . S
C2145 C2149 1.495 . S
C2146 C2145 1.392 . S
C2146 C2147 1.385 . S
C2146 C2148 1.478 . S
C2147 H2141 0.930 . S
C2147 C2143 1.400 . S
C2147 C2146 1.385 . S
C2148 C2146 1.478 . S
C2148 C2150 1.381 . S
C2148 C2154 1.383 . S
C2149 C2145 1.495 . S
C2149 H2155 0.959 . S
C2149 H2156 0.961 . S
C2149 H2157 0.960 . S
C2150 C2148 1.381 . S
C2150 C2151 1.394 . S
C2150 H2158 0.930 . S
C2151 C2150 1.394 . S
C2151 C2152 1.383 . S
C2151 H2159 0.929 . S
C2152 C2151 1.383 . S
C2152 C2153 1.377 . S
C2153 H2137 0.930 . S
C2153 C2152 1.377 . S
C2153 C2154 1.379 . S
C2154 H2138 0.931 . S
C2154 C2148 1.383 . S
C2154 C2153 1.379 . S
H2155 C2149 0.959 . S
H2156 C2149 0.961 . S
H2157 C2149 0.960 . S
H2158 C2150 0.930 . S
H2159 C2151 0.929 . S
H2160 C2168 0.929 1_554 S
H2161 C2170 0.930 . S
H2162 C2172 0.930 . S
H2163 C2175 0.929 . S
H2164 C2178 0.930 . S
H2165 C2180 0.960 . S
H2166 C2180 0.960 . S
H2167 C2180 0.960 . S
C2168 H2160 0.929 1_556 S
C2168 C2169 1.377 . S
C2168 C2170 1.384 . S
C2169 C2168 1.377 . S
C2169 C2175 1.390 . S
C2170 H2161 0.930 . S
C2170 C2168 1.384 . S
C2170 C2171 1.372 . S
C2171 C2170 1.372 . S
C2171 C2172 1.400 . S
C2171 C2176 1.490 . S
C2172 H2162 0.930 . S
C2172 C2171 1.400 . S
C2172 C2175 1.386 . S
H2173 C2189 0.930 . S
H2174 C2190 0.931 . S
C2175 H2163 0.929 . S
C2175 C2169 1.390 . S
C2175 C2172 1.386 . S
C2176 C2171 1.490 . S
C2176 C2178 1.395 . S
C2176 C2179 1.403 . S
H2177 C2183 0.930 . S
C2178 H2164 0.930 . S
C2178 C2176 1.395 . S
C2178 C2181 1.403 . S
C2179 C2176 1.403 . S
C2179 C2180 1.524 . S
C2179 C2183 1.400 . S
C2180 H2165 0.960 . S
C2180 H2166 0.960 . S
C2180 H2167 0.960 . S
C2180 C2179 1.524 . S
C2181 C2178 1.403 . S
C2181 C2182 1.392 . S
C2181 C2185 1.495 . S
C2182 C2181 1.392 . S
C2182 C2183 1.385 . S
C2182 C2184 1.478 . S
C2183 H2177 0.930 . S
C2183 C2179 1.400 . S
C2183 C2182 1.385 . S
C2184 C2182 1.478 . S
C2184 C2186 1.381 . S
C2184 C2190 1.383 . S
C2185 C2181 1.495 . S
C2185 H2191 0.959 1_556 S
C2185 H2192 0.961 . S
C2185 H2193 0.960 . S
C2186 C2184 1.381 . S
C2186 C2187 1.394 . S
C2186 H2194 0.930 . S
C2187 C2186 1.394 . S
C2187 C2188 1.383 . S
C2187 H2195 0.929 . S
C2188 C2187 1.383 . S
C2188 C2189 1.377 . S
C2189 H2173 0.930 . S
C2189 C2188 1.377 . S
C2189 C2190 1.379 . S
C2190 H2174 0.931 . S
C2190 C2184 1.383 . S
C2190 C2189 1.379 . S
H2191 C2185 0.959 1_554 S
H2192 C2185 0.961 . S
H2193 C2185 0.960 . S
H2194 C2186 0.930 . S
H2195 C2187 0.929 . S
H2196 C2204 0.929 . S
H2197 C2206 0.930 . S
H2198 C2208 0.930 1_554 S
H2199 C2211 0.929 . S
H2200 C2214 0.930 . S
H2201 C2216 0.960 . S
H2202 C2216 0.960 . S
H2203 C2216 0.938 1_554 S
C2204 H2196 0.929 . S
C2204 C2205 1.377 . S
C2204 C2206 1.384 . S
C2205 C2204 1.377 . S
C2205 C2211 1.390 1_556 S
C2206 H2197 0.930 . S
C2206 C2204 1.384 . S
C2206 C2207 1.372 . S
C2207 C2206 1.372 . S
C2207 C2208 1.400 . S
C2207 C2212 1.490 . S
C2208 H2198 0.930 1_556 S
C2208 C2207 1.400 . S
C2208 C2211 1.386 1_556 S
H2209 C2225 0.930 . S
H2210 C2226 0.931 . S
C2211 H2199 0.929 . S
C2211 C2205 1.390 1_554 S
C2211 C2208 1.386 1_554 S
C2212 C2207 1.490 . S
C2212 C2214 1.395 . S
C2212 C2215 1.403 . S
H2213 C2219 0.930 . S
C2214 H2200 0.930 . S
C2214 C2212 1.395 . S
C2214 C2217 1.403 . S
C2215 C2212 1.403 . S
C2215 C2216 1.524 . S
C2215 C2219 1.400 . S
C2216 H2201 0.960 . S
C2216 H2202 0.960 . S
C2216 H2203 0.938 1_556 S
C2216 C2215 1.524 . S
C2217 C2214 1.403 . S
C2217 C2218 1.392 . S
C2217 C2221 1.495 . S
C2218 C2217 1.392 . S
C2218 C2219 1.385 . S
C2218 C2220 1.478 . S
C2219 H2213 0.930 . S
C2219 C2215 1.400 . S
C2219 C2218 1.385 . S
C2220 C2218 1.478 . S
C2220 C2222 1.381 . S
C2220 C2226 1.383 . S
C2221 C2217 1.495 . S
C2221 H2227 0.959 . S
C2221 H2228 0.961 . S
C2221 H2229 0.960 . S
C2222 C2220 1.381 . S
C2222 C2223 1.394 . S
C2222 H2230 0.930 . S
C2223 C2222 1.394 . S
C2223 C2224 1.383 . S
C2223 H2231 0.929 . S
C2224 C2223 1.383 . S
C2224 C2225 1.377 . S
C2225 H2209 0.930 . S
C2225 C2224 1.377 . S
C2225 C2226 1.379 . S
C2226 H2210 0.931 . S
C2226 C2220 1.383 . S
C2226 C2225 1.379 . S
H2227 C2221 0.959 . S
H2228 C2221 0.961 . S
H2229 C2221 0.960 . S
H2230 C2222 0.930 . S
H2231 C2223 0.929 . S
H2232 C2240 0.929 . S
H2233 C2242 0.930 . S
H2234 C2244 0.930 . S
H2235 C2247 0.929 . S
H2236 C2250 0.930 . S
H2237 C2252 0.960 . S
H2238 C2252 0.960 . S
H2239 C2252 0.960 . S
C2240 H2232 0.929 . S
C2240 C2241 1.377 . S
C2240 C2242 1.384 . S
C2241 C2240 1.377 . S
C2241 C2247 1.390 . S
C2242 H2233 0.930 . S
C2242 C2240 1.384 . S
C2242 C2243 1.372 . S
C2243 C2242 1.372 . S
C2243 C2244 1.400 . S
C2243 C2248 1.490 . S
C2244 H2234 0.930 . S
C2244 C2243 1.400 . S
C2244 C2247 1.386 . S
H2245 C2261 0.930 . S
H2246 C2262 0.931 . S
C2247 H2235 0.929 . S
C2247 C2241 1.390 . S
C2247 C2244 1.386 . S
C2248 C2243 1.490 . S
C2248 C2250 1.395 . S
C2248 C2251 1.403 . S
H2249 C2255 0.930 . S
C2250 H2236 0.930 . S
C2250 C2248 1.395 . S
C2250 C2253 1.403 . S
C2251 C2248 1.403 . S
C2251 C2252 1.524 . S
C2251 C2255 1.400 . S
C2252 H2237 0.960 . S
C2252 H2238 0.960 . S
C2252 H2239 0.960 . S
C2252 C2251 1.524 . S
C2253 C2250 1.403 . S
C2253 C2254 1.392 . S
C2253 C2257 1.495 . S
C2254 C2253 1.392 . S
C2254 C2255 1.385 . S
C2254 C2256 1.478 . S
C2255 H2249 0.930 . S
C2255 C2251 1.400 . S
C2255 C2254 1.385 . S
C2256 C2254 1.478 . S
C2256 C2258 1.381 . S
C2256 C2262 1.383 . S
C2257 C2253 1.495 . S
C2257 H2263 0.959 . S
C2257 H2264 0.961 . S
C2257 H2265 0.960 . S
C2258 C2256 1.381 . S
C2258 C2259 1.394 . S
C2258 H2266 0.930 . S
C2259 C2258 1.394 . S
C2259 C2260 1.383 . S
C2259 H2267 0.929 . S
C2260 C2259 1.383 . S
C2260 C2261 1.377 . S
C2261 H2245 0.930 . S
C2261 C2260 1.377 . S
C2261 C2262 1.379 . S
C2262 H2246 0.931 . S
C2262 C2256 1.383 . S
C2262 C2261 1.379 . S
H2263 C2257 0.959 . S
H2264 C2257 0.961 . S
H2265 C2257 0.960 . S
H2266 C2258 0.930 . S
H2267 C2259 0.929 . S
H2268 C2276 0.929 . S
H2269 C2278 0.930 . S
H2270 C2280 0.930 . S
H2271 C2283 0.929 . S
H2272 C2286 0.930 . S
H2273 C2288 0.960 . S
H2274 C2288 0.960 . S
H2275 C2288 0.960 . S
C2276 H2268 0.929 . S
C2276 C2277 1.377 . S
C2276 C2278 1.384 . S
C2277 C2276 1.377 . S
C2277 C2283 1.390 . S
C2278 H2269 0.930 . S
C2278 C2276 1.384 . S
C2278 C2279 1.372 . S
C2279 C2278 1.372 . S
C2279 C2280 1.400 . S
C2279 C2284 1.490 . S
C2280 H2270 0.930 . S
C2280 C2279 1.400 . S
C2280 C2283 1.386 . S
H2281 C2297 0.930 . S
H2282 C2298 0.931 . S
C2283 H2271 0.929 . S
C2283 C2277 1.390 . S
C2283 C2280 1.386 . S
C2284 C2279 1.490 . S
C2284 C2286 1.395 . S
C2284 C2287 1.403 . S
H2285 C2291 0.930 . S
C2286 H2272 0.930 . S
C2286 C2284 1.395 . S
C2286 C2289 1.403 . S
C2287 C2284 1.403 . S
C2287 C2288 1.524 . S
C2287 C2291 1.400 . S
C2288 H2273 0.960 . S
C2288 H2274 0.960 . S
C2288 H2275 0.960 . S
C2288 C2287 1.524 . S
C2289 C2286 1.403 . S
C2289 C2290 1.392 . S
C2289 C2293 1.495 . S
C2290 C2289 1.392 . S
C2290 C2291 1.385 . S
C2290 C2292 1.478 . S
C2291 H2285 0.930 . S
C2291 C2287 1.400 . S
C2291 C2290 1.385 . S
C2292 C2290 1.478 . S
C2292 C2294 1.381 . S
C2292 C2298 1.383 . S
C2293 C2289 1.495 . S
C2293 H2299 0.959 . S
C2293 H2300 0.961 . S
C2293 H2301 0.960 . S
C2294 C2292 1.381 . S
C2294 C2295 1.394 . S
C2294 H2302 0.930 . S
C2295 C2294 1.394 . S
C2295 C2296 1.383 . S
C2295 H2303 0.929 . S
C2296 C2295 1.383 . S
C2296 C2297 1.377 . S
C2297 H2281 0.930 . S
C2297 C2296 1.377 . S
C2297 C2298 1.379 . S
C2298 H2282 0.931 . S
C2298 C2292 1.383 . S
C2298 C2297 1.379 . S
H2299 C2293 0.959 . S
H2300 C2293 0.961 . S
H2301 C2293 0.960 . S
H2302 C2294 0.930 . S
H2303 C2295 0.929 . S
H2304 C2312 0.929 . S
H2305 C2314 0.930 . S
H2306 C2316 0.930 . S
H2307 C2319 0.929 . S
H2308 C2322 0.930 . S
H2309 C2324 0.960 . S
H2310 C2324 0.960 . S
H2311 C2324 0.960 . S
C2312 H2304 0.929 . S
C2312 C2313 1.377 . S
C2312 C2314 1.384 . S
C2313 C2312 1.377 . S
C2313 C2319 1.390 . S
C2314 H2305 0.930 . S
C2314 C2312 1.384 . S
C2314 C2315 1.372 . S
C2315 C2314 1.372 . S
C2315 C2316 1.400 . S
C2315 C2320 1.490 . S
C2316 H2306 0.930 . S
C2316 C2315 1.400 . S
C2316 C2319 1.386 . S
H2317 C2333 0.930 . S
H2318 C2334 0.931 . S
C2319 H2307 0.929 . S
C2319 C2313 1.390 . S
C2319 C2316 1.386 . S
C2320 C2315 1.490 . S
C2320 C2322 1.395 . S
C2320 C2323 1.403 . S
H2321 C2327 0.930 . S
C2322 H2308 0.930 . S
C2322 C2320 1.395 . S
C2322 C2325 1.403 . S
C2323 C2320 1.403 . S
C2323 C2324 1.524 . S
C2323 C2327 1.400 . S
C2324 H2309 0.960 . S
C2324 H2310 0.960 . S
C2324 H2311 0.960 . S
C2324 C2323 1.524 . S
C2325 C2322 1.403 . S
C2325 C2326 1.392 . S
C2325 C2329 1.495 . S
C2326 C2325 1.392 . S
C2326 C2327 1.385 . S
C2326 C2328 1.478 . S
C2327 H2321 0.930 . S
C2327 C2323 1.400 . S
C2327 C2326 1.385 . S
C2328 C2326 1.478 . S
C2328 C2330 1.381 . S
C2328 C2334 1.383 . S
C2329 C2325 1.495 . S
C2329 H2335 0.959 . S
C2329 H2336 0.961 . S
C2329 H2337 0.960 . S
C2330 C2328 1.381 . S
C2330 C2331 1.394 . S
C2330 H2338 0.930 . S
C2331 C2330 1.394 . S
C2331 C2332 1.383 . S
C2331 H2339 0.929 . S
C2332 C2331 1.383 . S
C2332 C2333 1.377 . S
C2333 H2317 0.930 . S
C2333 C2332 1.377 . S
C2333 C2334 1.379 . S
C2334 H2318 0.931 . S
C2334 C2328 1.383 . S
C2334 C2333 1.379 . S
H2335 C2329 0.959 . S
H2336 C2329 0.961 . S
H2337 C2329 0.960 . S
H2338 C2330 0.930 . S
H2339 C2331 0.929 . S
H2340 C2348 0.929 . S
H2341 C2350 0.930 . S
H2342 C2352 0.930 . S
H2343 C2355 0.929 . S
H2344 C2358 0.930 . S
H2345 C2360 0.960 . S
H2346 C2360 0.960 . S
H2347 C2360 0.960 . S
C2348 H2340 0.929 . S
C2348 C2349 1.377 . S
C2348 C2350 1.384 . S
C2349 C2348 1.377 . S
C2349 C2355 1.390 . S
C2350 H2341 0.930 . S
C2350 C2348 1.384 . S
C2350 C2351 1.372 . S
C2351 C2350 1.372 . S
C2351 C2352 1.400 . S
C2351 C2356 1.490 . S
C2352 H2342 0.930 . S
C2352 C2351 1.400 . S
C2352 C2355 1.386 . S
H2353 C2369 0.930 . S
H2354 C2370 0.931 . S
C2355 H2343 0.929 . S
C2355 C2349 1.390 . S
C2355 C2352 1.386 . S
C2356 C2351 1.490 . S
C2356 C2358 1.395 . S
C2356 C2359 1.403 . S
H2357 C2363 0.930 . S
C2358 H2344 0.930 . S
C2358 C2356 1.395 . S
C2358 C2361 1.403 . S
C2359 C2356 1.403 . S
C2359 C2360 1.524 . S
C2359 C2363 1.400 . S
C2360 H2345 0.960 . S
C2360 H2346 0.960 . S
C2360 H2347 0.960 . S
C2360 C2359 1.524 . S
C2361 C2358 1.403 . S
C2361 C2362 1.392 . S
C2361 C2365 1.495 . S
C2362 C2361 1.392 . S
C2362 C2363 1.385 . S
C2362 C2364 1.478 . S
C2363 H2357 0.930 . S
C2363 C2359 1.400 . S
C2363 C2362 1.385 . S
C2364 C2362 1.478 . S
C2364 C2366 1.381 . S
C2364 C2370 1.383 . S
C2365 C2361 1.495 . S
C2365 H2371 0.959 . S
C2365 H2372 0.961 . S
C2365 H2373 0.960 . S
C2366 C2364 1.381 . S
C2366 C2367 1.394 . S
C2366 H2374 0.930 . S
C2367 C2366 1.394 . S
C2367 C2368 1.383 . S
C2367 H2375 0.929 . S
C2368 C2367 1.383 . S
C2368 C2369 1.377 . S
C2369 H2353 0.930 . S
C2369 C2368 1.377 . S
C2369 C2370 1.379 . S
C2370 H2354 0.931 . S
C2370 C2364 1.383 . S
C2370 C2369 1.379 . S
H2371 C2365 0.959 . S
H2372 C2365 0.961 . S
H2373 C2365 0.960 . S
H2374 C2366 0.930 . S
H2375 C2367 0.929 . S
H2376 C2384 0.929 . S
H2377 C2386 0.930 . S
H2378 C2388 0.930 . S
H2379 C2391 0.929 . S
H2380 C2394 0.930 . S
H2381 C2396 0.960 . S
H2382 C2396 0.960 . S
H2383 C2396 0.960 . S
C2384 H2376 0.929 . S
C2384 C2385 1.377 . S
C2384 C2386 1.384 . S
C2385 C2384 1.377 . S
C2385 C2391 1.390 . S
C2386 H2377 0.930 . S
C2386 C2384 1.384 . S
C2386 C2387 1.372 . S
C2387 C2386 1.372 . S
C2387 C2388 1.400 . S
C2387 C2392 1.490 . S
C2388 H2378 0.930 . S
C2388 C2387 1.400 . S
C2388 C2391 1.386 . S
H2389 C2405 0.930 . S
H2390 C2406 0.931 . S
C2391 H2379 0.929 . S
C2391 C2385 1.390 . S
C2391 C2388 1.386 . S
C2392 C2387 1.490 . S
C2392 C2394 1.395 . S
C2392 C2395 1.403 . S
H2393 C2399 0.930 . S
C2394 H2380 0.930 . S
C2394 C2392 1.395 . S
C2394 C2397 1.403 . S
C2395 C2392 1.403 . S
C2395 C2396 1.524 . S
C2395 C2399 1.400 . S
C2396 H2381 0.960 . S
C2396 H2382 0.960 . S
C2396 H2383 0.960 . S
C2396 C2395 1.524 . S
C2397 C2394 1.403 . S
C2397 C2398 1.392 . S
C2397 C2401 1.495 . S
C2398 C2397 1.392 . S
C2398 C2399 1.385 . S
C2398 C2400 1.478 . S
C2399 H2393 0.930 . S
C2399 C2395 1.400 . S
C2399 C2398 1.385 . S
C2400 C2398 1.478 . S
C2400 C2402 1.381 . S
C2400 C2406 1.383 . S
C2401 C2397 1.495 . S
C2401 H2407 0.959 . S
C2401 H2408 0.961 . S
C2401 H2409 0.960 . S
C2402 C2400 1.381 . S
C2402 C2403 1.394 . S
C2402 H2410 0.930 . S
C2403 C2402 1.394 . S
C2403 C2404 1.383 . S
C2403 H2411 0.929 . S
C2404 C2403 1.383 . S
C2404 C2405 1.377 . S
C2405 H2389 0.930 . S
C2405 C2404 1.377 . S
C2405 C2406 1.379 . S
C2406 H2390 0.931 . S
C2406 C2400 1.383 . S
C2406 C2405 1.379 . S
H2407 C2401 0.959 . S
H2408 C2401 0.961 . S
H2409 C2401 0.960 . S
H2410 C2402 0.930 . S
H2411 C2403 0.929 . S
H2412 C2420 0.929 . S
H2413 C2422 0.930 . S
H2414 C2424 0.930 . S
H2415 C2427 0.929 . S
H2416 C2430 0.930 . S
H2417 C2432 0.960 . S
H2418 C2432 0.960 . S
H2419 C2432 0.960 . S
C2420 H2412 0.929 . S
C2420 C2421 1.377 . S
C2420 C2422 1.384 . S
C2421 C2420 1.377 . S
C2421 C2427 1.390 . S
C2422 H2413 0.930 . S
C2422 C2420 1.384 . S
C2422 C2423 1.372 . S
C2423 C2422 1.372 . S
C2423 C2424 1.400 . S
C2423 C2428 1.490 . S
C2424 H2414 0.930 . S
C2424 C2423 1.400 . S
C2424 C2427 1.386 . S
H2425 C2441 0.930 . S
H2426 C2442 0.931 . S
C2427 H2415 0.929 . S
C2427 C2421 1.390 . S
C2427 C2424 1.386 . S
C2428 C2423 1.490 . S
C2428 C2430 1.395 . S
C2428 C2431 1.403 . S
H2429 C2435 0.930 . S
C2430 H2416 0.930 . S
C2430 C2428 1.395 . S
C2430 C2433 1.403 . S
C2431 C2428 1.403 . S
C2431 C2432 1.524 . S
C2431 C2435 1.400 . S
C2432 H2417 0.960 . S
C2432 H2418 0.960 . S
C2432 H2419 0.960 . S
C2432 C2431 1.524 . S
C2433 C2430 1.403 . S
C2433 C2434 1.392 . S
C2433 C2437 1.495 . S
C2434 C2433 1.392 . S
C2434 C2435 1.385 . S
C2434 C2436 1.478 . S
C2435 H2429 0.930 . S
C2435 C2431 1.400 . S
C2435 C2434 1.385 . S
C2436 C2434 1.478 . S
C2436 C2438 1.381 . S
C2436 C2442 1.383 . S
C2437 C2433 1.495 . S
C2437 H2443 0.959 . S
C2437 H2444 0.961 . S
C2437 H2445 0.960 . S
C2438 C2436 1.381 . S
C2438 C2439 1.394 . S
C2438 H2446 0.930 . S
C2439 C2438 1.394 . S
C2439 C2440 1.383 . S
C2439 H2447 0.929 . S
C2440 C2439 1.383 . S
C2440 C2441 1.377 . S
C2441 H2425 0.930 . S
C2441 C2440 1.377 . S
C2441 C2442 1.379 . S
C2442 H2426 0.931 . S
C2442 C2436 1.383 . S
C2442 C2441 1.379 . S
H2443 C2437 0.959 . S
H2444 C2437 0.961 . S
H2445 C2437 0.960 . S
H2446 C2438 0.930 . S
H2447 C2439 0.929 . S
H2448 C2456 0.929 . S
H2449 C2458 0.930 . S
H2450 C2460 0.930 1_655 S
H2451 C2463 0.929 1_655 S
H2452 C2466 0.930 . S
H2453 C2468 0.960 . S
H2454 C2468 0.960 . S
H2455 C2468 0.960 1_655 S
C2456 H2448 0.929 . S
C2456 C2457 1.377 . S
C2456 C2458 1.384 . S
C2457 C2456 1.377 . S
C2457 C2463 1.390 . S
C2458 H2449 0.930 . S
C2458 C2456 1.384 . S
C2458 C2459 1.372 . S
C2459 C2458 1.372 . S
C2459 C2460 1.400 . S
C2459 C2464 1.490 . S
C2460 H2450 0.930 1_455 S
C2460 C2459 1.400 . S
C2460 C2463 1.386 . S
H2461 C2477 0.930 . S
H2462 C2478 0.931 . S
C2463 H2451 0.929 1_455 S
C2463 C2457 1.390 . S
C2463 C2460 1.386 . S
C2464 C2459 1.490 . S
C2464 C2466 1.395 . S
C2464 C2467 1.403 . S
H2465 C2471 0.930 . S
C2466 H2452 0.930 . S
C2466 C2464 1.395 . S
C2466 C2469 1.403 . S
C2467 C2464 1.403 . S
C2467 C2468 1.524 . S
C2467 C2471 1.400 . S
C2468 H2453 0.960 . S
C2468 H2454 0.960 . S
C2468 H2455 0.960 1_455 S
C2468 C2467 1.524 . S
C2469 C2466 1.403 . S
C2469 C2470 1.392 . S
C2469 C2473 1.495 . S
C2470 C2469 1.392 . S
C2470 C2471 1.385 . S
C2470 C2472 1.478 . S
C2471 H2465 0.930 . S
C2471 C2467 1.400 . S
C2471 C2470 1.385 . S
C2472 C2470 1.478 . S
C2472 C2474 1.381 . S
C2472 C2478 1.383 1_455 S
C2473 C2469 1.495 . S
C2473 H2479 0.959 . S
C2473 H2480 0.961 . S
C2473 H2481 0.960 . S
C2474 C2472 1.381 . S
C2474 C2475 1.394 . S
C2474 H2482 0.930 . S
C2475 C2474 1.394 . S
C2475 C2476 1.383 . S
C2475 H2483 0.929 . S
C2476 C2475 1.383 . S
C2476 C2477 1.377 1_455 S
C2477 H2461 0.930 . S
C2477 C2476 1.377 1_655 S
C2477 C2478 1.379 . S
C2478 H2462 0.931 . S
C2478 C2472 1.383 1_655 S
C2478 C2477 1.379 . S
H2479 C2473 0.959 . S
H2480 C2473 0.961 . S
H2481 C2473 0.960 . S
H2482 C2474 0.930 . S
H2483 C2475 0.929 . S
H2484 C2492 0.929 . S
H2485 C2494 0.930 . S
H2486 C2496 0.930 . S
H2487 C2499 0.929 . S
H2488 C2502 0.930 . S
H2489 C2504 0.960 . S
H2490 C2504 0.960 . S
H2491 C2504 0.960 . S
C2492 H2484 0.929 . S
C2492 C2493 1.377 . S
C2492 C2494 1.384 . S
C2493 C2492 1.377 . S
C2493 C2499 1.390 . S
C2494 H2485 0.930 . S
C2494 C2492 1.384 . S
C2494 C2495 1.372 . S
C2495 C2494 1.372 . S
C2495 C2496 1.400 . S
C2495 C2500 1.490 . S
C2496 H2486 0.930 . S
C2496 C2495 1.400 . S
C2496 C2499 1.386 . S
H2497 C2513 0.930 . S
H2498 C2514 0.931 . S
C2499 H2487 0.929 . S
C2499 C2493 1.390 . S
C2499 C2496 1.386 . S
C2500 C2495 1.490 . S
C2500 C2502 1.395 . S
C2500 C2503 1.403 . S
H2501 C2507 0.930 . S
C2502 H2488 0.930 . S
C2502 C2500 1.395 . S
C2502 C2505 1.403 . S
C2503 C2500 1.403 . S
C2503 C2504 1.524 . S
C2503 C2507 1.400 . S
C2504 H2489 0.960 . S
C2504 H2490 0.960 . S
C2504 H2491 0.960 . S
C2504 C2503 1.524 . S
C2505 C2502 1.403 . S
C2505 C2506 1.392 . S
C2505 C2509 1.495 . S
C2506 C2505 1.392 . S
C2506 C2507 1.385 . S
C2506 C2508 1.478 . S
C2507 H2501 0.930 . S
C2507 C2503 1.400 . S
C2507 C2506 1.385 . S
C2508 C2506 1.478 . S
C2508 C2510 1.381 . S
C2508 C2514 1.383 . S
C2509 C2505 1.495 . S
C2509 H2515 0.959 . S
C2509 H2516 0.961 . S
C2509 H2517 0.960 . S
C2510 C2508 1.381 . S
C2510 C2511 1.394 . S
C2510 H2518 0.930 . S
C2511 C2510 1.394 . S
C2511 C2512 1.383 . S
C2511 H2519 0.929 . S
C2512 C2511 1.383 . S
C2512 C2513 1.377 . S
C2513 H2497 0.930 . S
C2513 C2512 1.377 . S
C2513 C2514 1.379 . S
C2514 H2498 0.931 . S
C2514 C2508 1.383 . S
C2514 C2513 1.379 . S
H2515 C2509 0.959 . S
H2516 C2509 0.961 . S
H2517 C2509 0.960 . S
H2518 C2510 0.930 . S
H2519 C2511 0.929 . S
H2520 C2528 0.929 . S
H2521 C2530 0.930 . S
H2522 C2532 0.930 . S
H2523 C2535 0.941 . S
H2524 C2538 0.930 . S
H2525 C2540 0.960 . S
H2526 C2540 0.960 . S
H2527 C2540 0.960 . S
C2528 H2520 0.929 . S
C2528 C2529 1.377 . S
C2528 C2530 1.384 . S
C2529 C2528 1.377 . S
C2529 C2535 1.383 1_565 S
C2530 H2521 0.930 . S
C2530 C2528 1.384 . S
C2530 C2531 1.372 . S
C2531 C2530 1.372 . S
C2531 C2532 1.400 1_565 S
C2531 C2536 1.490 . S
C2532 H2522 0.930 . S
C2532 C2531 1.400 1_545 S
C2532 C2535 1.381 . S
H2533 C2549 0.930 . S
H2534 C2550 0.931 . S
C2535 H2523 0.941 . S
C2535 C2529 1.383 1_545 S
C2535 C2532 1.381 . S
C2536 C2531 1.490 . S
C2536 C2538 1.395 . S
C2536 C2539 1.404 . S
H2537 C2543 0.931 . S
C2538 H2524 0.930 . S
C2538 C2536 1.395 . S
C2538 C2541 1.403 . S
C2539 C2536 1.404 . S
C2539 C2540 1.520 1_565 S
C2539 C2543 1.404 1_565 S
C2540 H2525 0.960 . S
C2540 H2526 0.960 . S
C2540 H2527 0.960 . S
C2540 C2539 1.520 1_545 S
C2541 C2538 1.403 . S
C2541 C2542 1.392 . S
C2541 C2545 1.495 . S
C2542 C2541 1.392 . S
C2542 C2543 1.383 1_565 S
C2542 C2544 1.478 . S
C2543 H2537 0.931 . S
C2543 C2539 1.404 1_545 S
C2543 C2542 1.383 1_545 S
C2544 C2542 1.478 . S
C2544 C2546 1.381 . S
C2544 C2550 1.383 1_565 S
C2545 C2541 1.495 . S
C2545 H2551 0.959 . S
C2545 H2552 0.961 . S
C2545 H2553 0.960 . S
C2546 C2544 1.381 . S
C2546 C2547 1.394 . S
C2546 H2554 0.930 . S
C2547 C2546 1.394 . S
C2547 C2548 1.383 . S
C2547 H2555 0.929 . S
C2548 C2547 1.383 . S
C2548 C2549 1.377 1_565 S
C2549 H2533 0.930 . S
C2549 C2548 1.377 1_545 S
C2549 C2550 1.379 . S
C2550 H2534 0.931 . S
C2550 C2544 1.383 1_545 S
C2550 C2549 1.379 . S
H2551 C2545 0.959 . S
H2552 C2545 0.961 . S
H2553 C2545 0.960 . S
H2554 C2546 0.930 . S
H2555 C2547 0.929 . S
H2556 C2564 0.929 1_545 S
H2557 C2566 0.952 . S
H2558 C2568 0.930 . S
H2559 C2571 0.929 . S
H2560 C2574 0.930 . S
H2561 C2576 0.960 . S
H2562 C2576 0.960 . S
H2563 C2576 0.960 . S
C2564 H2556 0.929 1_565 S
C2564 C2565 1.377 . S
C2564 C2566 1.370 1_565 S
C2565 C2564 1.377 . S
C2565 C2571 1.390 . S
C2566 H2557 0.952 . S
C2566 C2564 1.370 1_545 S
C2566 C2567 1.364 1_545 S
C2567 C2566 1.364 1_565 S
C2567 C2568 1.400 . S
C2567 C2572 1.490 . S
C2568 H2558 0.930 . S
C2568 C2567 1.400 . S
C2568 C2571 1.386 . S
H2569 C2585 0.930 . S
H2570 C2586 0.931 . S
C2571 H2559 0.929 . S
C2571 C2565 1.390 . S
C2571 C2568 1.386 . S
C2572 C2567 1.490 . S
C2572 C2574 1.395 1_565 S
C2572 C2575 1.403 . S
H2573 C2579 0.930 . S
C2574 H2560 0.930 . S
C2574 C2572 1.395 1_545 S
C2574 C2577 1.403 . S
C2575 C2572 1.403 . S
C2575 C2576 1.524 . S
C2575 C2579 1.400 . S
C2576 H2561 0.960 . S
C2576 H2562 0.960 . S
C2576 H2563 0.960 . S
C2576 C2575 1.524 . S
C2577 C2574 1.403 . S
C2577 C2578 1.392 1_545 S
C2577 C2581 1.495 . S
C2578 C2577 1.392 1_565 S
C2578 C2579 1.385 . S
C2578 C2580 1.478 . S
C2579 H2573 0.930 . S
C2579 C2575 1.400 . S
C2579 C2578 1.385 . S
C2580 C2578 1.478 . S
C2580 C2582 1.381 1_565 S
C2580 C2586 1.383 . S
C2581 C2577 1.495 . S
C2581 H2587 0.959 . S
C2581 H2588 0.961 . S
C2581 H2589 0.960 . S
C2582 C2580 1.381 1_545 S
C2582 C2583 1.394 . S
C2582 H2590 0.930 . S
C2583 C2582 1.394 . S
C2583 C2584 1.366 1_545 S
C2583 H2591 0.929 . S
C2584 C2583 1.366 1_565 S
C2584 C2585 1.422 . S
C2585 H2569 0.930 . S
C2585 C2584 1.422 . S
C2585 C2586 1.379 . S
C2586 H2570 0.931 . S
C2586 C2580 1.383 . S
C2586 C2585 1.379 . S
H2587 C2581 0.959 . S
H2588 C2581 0.961 . S
H2589 C2581 0.960 . S
H2590 C2582 0.930 . S
H2591 C2583 0.929 . S
H2592 C2600 0.929 . S
H2593 C2602 0.930 . S
H2594 C2604 0.930 . S
H2595 C2607 0.929 . S
H2596 C2610 0.894 1_655 S
H2597 C2612 0.960 . S
H2598 C2612 0.960 . S
H2599 C2612 0.960 . S
C2600 H2592 0.929 . S
C2600 C2601 1.377 1_655 S
C2600 C2602 1.384 . S
C2601 C2600 1.377 1_455 S
C2601 C2607 1.390 . S
C2602 H2593 0.930 . S
C2602 C2600 1.384 . S
C2602 C2603 1.372 1_655 S
C2603 C2602 1.372 1_455 S
C2603 C2604 1.400 . S
C2603 C2608 1.490 . S
C2604 H2594 0.930 . S
C2604 C2603 1.400 . S
C2604 C2607 1.386 . S
H2605 C2621 0.930 . S
H2606 C2622 0.931 . S
C2607 H2595 0.929 . S
C2607 C2601 1.390 . S
C2607 C2604 1.386 . S
C2608 C2603 1.490 . S
C2608 C2610 1.411 . S
C2608 C2611 1.403 . S
H2609 C2615 0.930 . S
C2610 H2596 0.894 1_455 S
C2610 C2608 1.411 . S
C2610 C2613 1.425 1_455 S
C2611 C2608 1.403 . S
C2611 C2612 1.524 . S
C2611 C2615 1.400 . S
C2612 H2597 0.960 . S
C2612 H2598 0.960 . S
C2612 H2599 0.960 . S
C2612 C2611 1.524 . S
C2613 C2610 1.425 1_655 S
C2613 C2614 1.392 1_655 S
C2613 C2617 1.495 . S
C2614 C2613 1.392 1_455 S
C2614 C2615 1.385 . S
C2614 C2616 1.478 . S
C2615 H2609 0.930 . S
C2615 C2611 1.400 . S
C2615 C2614 1.385 . S
C2616 C2614 1.478 . S
C2616 C2618 1.381 1_455 S
C2616 C2622 1.383 . S
C2617 C2613 1.495 . S
C2617 H2623 0.959 . S
C2617 H2624 0.989 . S
C2617 H2625 0.960 . S
C2618 C2616 1.381 1_655 S
C2618 C2619 1.394 . S
C2618 H2626 0.930 . S
C2619 C2618 1.394 . S
C2619 C2620 1.373 1_655 S
C2619 H2627 0.929 . S
C2620 C2619 1.373 1_455 S
C2620 C2621 1.383 . S
C2621 H2605 0.930 . S
C2621 C2620 1.383 . S
C2621 C2622 1.379 . S
C2622 H2606 0.931 . S
C2622 C2616 1.383 . S
C2622 C2621 1.379 . S
H2623 C2617 0.959 . S
H2624 C2617 0.989 . S
H2625 C2617 0.960 . S
H2626 C2618 0.930 . S
H2627 C2619 0.929 . S
H2628 C2636 0.929 . S
H2629 C2638 0.930 . S
H2630 C2640 0.930 . S
H2631 C2643 0.929 . S
H2632 C2646 0.930 . S
H2633 C2648 0.960 . S
H2634 C2648 0.960 . S
H2635 C2648 0.960 . S
C2636 H2628 0.929 . S
C2636 C2637 1.377 . S
C2636 C2638 1.384 . S
C2637 C2636 1.377 . S
C2637 C2643 1.390 . S
C2638 H2629 0.930 . S
C2638 C2636 1.384 . S
C2638 C2639 1.372 . S
C2639 C2638 1.372 . S
C2639 C2640 1.400 . S
C2639 C2644 1.490 . S
C2640 H2630 0.930 . S
C2640 C2639 1.400 . S
C2640 C2643 1.386 . S
H2641 C2657 0.930 . S
H2642 C2658 0.931 . S
C2643 H2631 0.929 . S
C2643 C2637 1.390 . S
C2643 C2640 1.386 . S
C2644 C2639 1.490 . S
C2644 C2646 1.395 . S
C2644 C2647 1.403 . S
H2645 C2651 0.930 . S
C2646 H2632 0.930 . S
C2646 C2644 1.395 . S
C2646 C2649 1.403 . S
C2647 C2644 1.403 . S
C2647 C2648 1.524 . S
C2647 C2651 1.400 . S
C2648 H2633 0.960 . S
C2648 H2634 0.960 . S
C2648 H2635 0.960 . S
C2648 C2647 1.524 . S
C2649 C2646 1.403 . S
C2649 C2650 1.392 . S
C2649 C2653 1.495 . S
C2650 C2649 1.392 . S
C2650 C2651 1.385 . S
C2650 C2652 1.478 . S
C2651 H2645 0.930 . S
C2651 C2647 1.400 . S
C2651 C2650 1.385 . S
C2652 C2650 1.478 . S
C2652 C2654 1.381 . S
C2652 C2658 1.383 . S
C2653 C2649 1.495 . S
C2653 H2659 0.959 . S
C2653 H2660 0.961 . S
C2653 H2661 0.960 . S
C2654 C2652 1.381 . S
C2654 C2655 1.394 . S
C2654 H2662 0.930 . S
C2655 C2654 1.394 . S
C2655 C2656 1.383 . S
C2655 H2663 0.929 . S
C2656 C2655 1.383 . S
C2656 C2657 1.377 . S
C2657 H2641 0.930 . S
C2657 C2656 1.377 . S
C2657 C2658 1.379 . S
C2658 H2642 0.931 . S
C2658 C2652 1.383 . S
C2658 C2657 1.379 . S
H2659 C2653 0.959 . S
H2660 C2653 0.961 . S
H2661 C2653 0.960 . S
H2662 C2654 0.930 . S
H2663 C2655 0.929 . S
H2664 C2672 0.929 . S
H2665 C2674 0.930 . S
H2666 C2676 0.930 . S
H2667 C2679 0.929 . S
H2668 C2682 0.930 . S
H2669 C2684 0.960 . S
H2670 C2684 0.960 . S
H2671 C2684 0.960 . S
C2672 H2664 0.929 . S
C2672 C2673 1.377 . S
C2672 C2674 1.384 . S
C2673 C2672 1.377 . S
C2673 C2679 1.390 . S
C2674 H2665 0.930 . S
C2674 C2672 1.384 . S
C2674 C2675 1.372 . S
C2675 C2674 1.372 . S
C2675 C2676 1.400 . S
C2675 C2680 1.490 . S
C2676 H2666 0.930 . S
C2676 C2675 1.400 . S
C2676 C2679 1.386 . S
H2677 C2693 0.930 . S
H2678 C2694 0.931 . S
C2679 H2667 0.929 . S
C2679 C2673 1.390 . S
C2679 C2676 1.386 . S
C2680 C2675 1.490 . S
C2680 C2682 1.395 . S
C2680 C2683 1.403 . S
H2681 C2687 0.930 . S
C2682 H2668 0.930 . S
C2682 C2680 1.395 . S
C2682 C2685 1.403 . S
C2683 C2680 1.403 . S
C2683 C2684 1.524 . S
C2683 C2687 1.400 . S
C2684 H2669 0.960 . S
C2684 H2670 0.960 . S
C2684 H2671 0.960 . S
C2684 C2683 1.524 . S
C2685 C2682 1.403 . S
C2685 C2686 1.392 . S
C2685 C2689 1.495 . S
C2686 C2685 1.392 . S
C2686 C2687 1.385 . S
C2686 C2688 1.478 . S
C2687 H2681 0.930 . S
C2687 C2683 1.400 . S
C2687 C2686 1.385 . S
C2688 C2686 1.478 . S
C2688 C2690 1.381 . S
C2688 C2694 1.383 . S
C2689 C2685 1.495 . S
C2689 H2695 0.959 . S
C2689 H2696 0.961 . S
C2689 H2697 0.960 . S
C2690 C2688 1.381 . S
C2690 C2691 1.394 . S
C2690 H2698 0.930 . S
C2691 C2690 1.394 . S
C2691 C2692 1.383 . S
C2691 H2699 0.929 . S
C2692 C2691 1.383 . S
C2692 C2693 1.377 . S
C2693 H2677 0.930 . S
C2693 C2692 1.377 . S
C2693 C2694 1.379 . S
C2694 H2678 0.931 . S
C2694 C2688 1.383 . S
C2694 C2693 1.379 . S
H2695 C2689 0.959 . S
H2696 C2689 0.961 . S
H2697 C2689 0.960 . S
H2698 C2690 0.930 . S
H2699 C2691 0.929 . S
H2700 C2708 0.929 . S
H2701 C2710 0.930 . S
H2702 C2712 0.930 . S
H2703 C2715 0.929 . S
H2704 C2718 0.930 . S
H2705 C2720 0.960 . S
H2706 C2720 0.960 . S
H2707 C2720 0.960 . S
C2708 H2700 0.929 . S
C2708 C2709 1.377 . S
C2708 C2710 1.384 . S
C2709 C2708 1.377 . S
C2709 C2715 1.390 . S
C2710 H2701 0.930 . S
C2710 C2708 1.384 . S
C2710 C2711 1.372 . S
C2711 C2710 1.372 . S
C2711 C2712 1.400 . S
C2711 C2716 1.490 . S
C2712 H2702 0.930 . S
C2712 C2711 1.400 . S
C2712 C2715 1.386 . S
H2713 C2729 0.930 . S
H2714 C2730 0.931 . S
C2715 H2703 0.929 . S
C2715 C2709 1.390 . S
C2715 C2712 1.386 . S
C2716 C2711 1.490 . S
C2716 C2718 1.395 . S
C2716 C2719 1.403 . S
H2717 C2723 0.930 . S
C2718 H2704 0.930 . S
C2718 C2716 1.395 . S
C2718 C2721 1.403 . S
C2719 C2716 1.403 . S
C2719 C2720 1.524 . S
C2719 C2723 1.400 . S
C2720 H2705 0.960 . S
C2720 H2706 0.960 . S
C2720 H2707 0.960 . S
C2720 C2719 1.524 . S
C2721 C2718 1.403 . S
C2721 C2722 1.392 . S
C2721 C2725 1.495 . S
C2722 C2721 1.392 . S
C2722 C2723 1.385 . S
C2722 C2724 1.478 . S
C2723 H2717 0.930 . S
C2723 C2719 1.400 . S
C2723 C2722 1.385 . S
C2724 C2722 1.478 . S
C2724 C2726 1.381 . S
C2724 C2730 1.383 . S
C2725 C2721 1.495 . S
C2725 H2731 0.959 . S
C2725 H2732 0.961 . S
C2725 H2733 0.960 . S
C2726 C2724 1.381 . S
C2726 C2727 1.394 . S
C2726 H2734 0.930 . S
C2727 C2726 1.394 . S
C2727 C2728 1.383 . S
C2727 H2735 0.929 . S
C2728 C2727 1.383 . S
C2728 C2729 1.377 . S
C2729 H2713 0.930 . S
C2729 C2728 1.377 . S
C2729 C2730 1.379 . S
C2730 H2714 0.931 . S
C2730 C2724 1.383 . S
C2730 C2729 1.379 . S
H2731 C2725 0.959 . S
H2732 C2725 0.961 . S
H2733 C2725 0.960 . S
H2734 C2726 0.930 . S
H2735 C2727 0.929 . S
H2736 C2744 0.929 . S
H2737 C2746 0.930 . S
H2738 C2748 0.930 . S
H2739 C2751 0.929 . S
H2740 C2754 0.930 . S
H2741 C2756 0.960 . S
H2742 C2756 0.960 . S
H2743 C2756 0.960 . S
C2744 H2736 0.929 . S
C2744 C2745 1.377 . S
C2744 C2746 1.384 . S
C2745 C2744 1.377 . S
C2745 C2751 1.390 . S
C2746 H2737 0.930 . S
C2746 C2744 1.384 . S
C2746 C2747 1.372 . S
C2747 C2746 1.372 . S
C2747 C2748 1.400 . S
C2747 C2752 1.490 . S
C2748 H2738 0.930 . S
C2748 C2747 1.400 . S
C2748 C2751 1.386 . S
H2749 C2765 0.930 . S
H2750 C2766 0.931 . S
C2751 H2739 0.929 . S
C2751 C2745 1.390 . S
C2751 C2748 1.386 . S
C2752 C2747 1.490 . S
C2752 C2754 1.395 . S
C2752 C2755 1.403 . S
H2753 C2759 0.930 . S
C2754 H2740 0.930 . S
C2754 C2752 1.395 . S
C2754 C2757 1.403 . S
C2755 C2752 1.403 . S
C2755 C2756 1.524 . S
C2755 C2759 1.400 . S
C2756 H2741 0.960 . S
C2756 H2742 0.960 . S
C2756 H2743 0.960 . S
C2756 C2755 1.524 . S
C2757 C2754 1.403 . S
C2757 C2758 1.392 . S
C2757 C2761 1.495 . S
C2758 C2757 1.392 . S
C2758 C2759 1.385 . S
C2758 C2760 1.478 . S
C2759 H2753 0.930 . S
C2759 C2755 1.400 . S
C2759 C2758 1.385 . S
C2760 C2758 1.478 . S
C2760 C2762 1.381 . S
C2760 C2766 1.383 . S
C2761 C2757 1.495 . S
C2761 H2767 0.959 . S
C2761 H2768 0.961 . S
C2761 H2769 0.960 . S
C2762 C2760 1.381 . S
C2762 C2763 1.394 . S
C2762 H2770 0.930 . S
C2763 C2762 1.394 . S
C2763 C2764 1.383 . S
C2763 H2771 0.929 . S
C2764 C2763 1.383 . S
C2764 C2765 1.377 . S
C2765 H2749 0.930 . S
C2765 C2764 1.377 . S
C2765 C2766 1.379 . S
C2766 H2750 0.931 . S
C2766 C2760 1.383 . S
C2766 C2765 1.379 . S
H2767 C2761 0.959 . S
H2768 C2761 0.961 . S
H2769 C2761 0.960 . S
H2770 C2762 0.930 . S
H2771 C2763 0.929 . S
H2772 C2780 0.929 1_565 S
H2773 C2782 0.930 1_565 S
H2774 C2784 0.930 . S
H2775 C2787 0.929 . S
H2776 C2790 0.923 1_565 S
H2777 C2792 0.960 . S
H2778 C2792 0.960 . S
H2779 C2792 0.960 . S
C2780 H2772 0.929 1_545 S
C2780 C2781 1.377 . S
C2780 C2782 1.384 . S
C2781 C2780 1.377 . S
C2781 C2787 1.390 . S
C2782 H2773 0.930 1_545 S
C2782 C2780 1.384 . S
C2782 C2783 1.372 . S
C2783 C2782 1.372 . S
C2783 C2784 1.400 . S
C2783 C2788 1.490 . S
C2784 H2774 0.930 . S
C2784 C2783 1.400 . S
C2784 C2787 1.386 . S
H2785 C2801 0.930 . S
H2786 C2802 0.931 . S
C2787 H2775 0.929 . S
C2787 C2781 1.390 . S
C2787 C2784 1.386 . S
C2788 C2783 1.490 . S
C2788 C2790 1.422 . S
C2788 C2791 1.403 . S
H2789 C2795 0.930 . S
C2790 H2776 0.923 1_545 S
C2790 C2788 1.422 . S
C2790 C2793 1.384 1_545 S
C2791 C2788 1.403 . S
C2791 C2792 1.524 . S
C2791 C2795 1.400 . S
C2792 H2777 0.960 . S
C2792 H2778 0.960 . S
C2792 H2779 0.960 . S
C2792 C2791 1.524 . S
C2793 C2790 1.384 1_565 S
C2793 C2794 1.392 1_565 S
C2793 C2797 1.495 . S
C2794 C2793 1.392 1_545 S
C2794 C2795 1.385 . S
C2794 C2796 1.478 . S
C2795 H2789 0.930 . S
C2795 C2791 1.400 . S
C2795 C2794 1.385 . S
C2796 C2794 1.478 . S
C2796 C2798 1.381 1_545 S
C2796 C2802 1.383 . S
C2797 C2793 1.495 . S
C2797 H2803 0.959 . S
C2797 H2804 0.961 . S
C2797 H2805 0.960 . S
C2798 C2796 1.381 1_565 S
C2798 C2799 1.394 . S
C2798 H2806 0.930 . S
C2799 C2798 1.394 . S
C2799 C2800 1.383 1_565 S
C2799 H2807 0.929 . S
C2800 C2799 1.383 1_545 S
C2800 C2801 1.377 . S
C2801 H2785 0.930 . S
C2801 C2800 1.377 . S
C2801 C2802 1.379 . S
C2802 H2786 0.931 . S
C2802 C2796 1.383 . S
C2802 C2801 1.379 . S
H2803 C2797 0.959 . S
H2804 C2797 0.961 . S
H2805 C2797 0.960 . S
H2806 C2798 0.930 . S
H2807 C2799 0.929 . S
H2808 C2816 0.970 . S
H2809 C2818 0.930 . S
H2810 C2820 0.930 . S
H2811 C2823 0.929 . S
H2812 C2826 0.930 . S
H2813 C2828 0.960 . S
H2814 C2828 0.960 . S
H2815 C2828 0.960 . S
C2816 H2808 0.970 . S
C2816 C2817 1.355 1_455 S
C2816 C2818 1.367 . S
C2817 C2816 1.355 1_655 S
C2817 C2823 1.390 . S
C2818 H2809 0.930 . S
C2818 C2816 1.367 . S
C2818 C2819 1.372 1_455 S
C2819 C2818 1.372 1_655 S
C2819 C2820 1.400 . S
C2819 C2824 1.490 . S
C2820 H2810 0.930 . S
C2820 C2819 1.400 . S
C2820 C2823 1.386 . S
H2821 C2837 0.930 . S
H2822 C2838 0.931 . S
C2823 H2811 0.929 . S
C2823 C2817 1.390 . S
C2823 C2820 1.386 . S
C2824 C2819 1.490 . S
C2824 C2826 1.395 1_655 S
C2824 C2827 1.403 . S
H2825 C2831 0.930 . S
C2826 H2812 0.930 . S
C2826 C2824 1.395 1_455 S
C2826 C2829 1.403 . S
C2827 C2824 1.403 . S
C2827 C2828 1.524 . S
C2827 C2831 1.400 . S
C2828 H2813 0.960 . S
C2828 H2814 0.960 . S
C2828 H2815 0.960 . S
C2828 C2827 1.524 . S
C2829 C2826 1.403 . S
C2829 C2830 1.392 1_455 S
C2829 C2833 1.495 . S
C2830 C2829 1.392 1_655 S
C2830 C2831 1.385 . S
C2830 C2832 1.478 . S
C2831 H2825 0.930 . S
C2831 C2827 1.400 . S
C2831 C2830 1.385 . S
C2832 C2830 1.478 . S
C2832 C2834 1.381 1_655 S
C2832 C2838 1.383 . S
C2833 C2829 1.495 . S
C2833 H2839 0.959 . S
C2833 H2840 0.961 . S
C2833 H2841 0.960 . S
C2834 C2832 1.381 1_455 S
C2834 C2835 1.394 . S
C2834 H2842 0.930 . S
C2835 C2834 1.394 . S
C2835 C2836 1.383 1_455 S
C2835 H2843 0.929 . S
C2836 C2835 1.383 1_655 S
C2836 C2837 1.377 . S
C2837 H2821 0.930 . S
C2837 C2836 1.377 . S
C2837 C2838 1.379 . S
C2838 H2822 0.931 . S
C2838 C2832 1.383 . S
C2838 C2837 1.379 . S
H2839 C2833 0.959 . S
H2840 C2833 0.961 . S
H2841 C2833 0.960 . S
H2842 C2834 0.930 . S
H2843 C2835 0.929 . S
H2844 C2852 0.929 . S
H2845 C2854 0.930 . S
H2846 C2856 0.930 . S
H2847 C2859 0.929 . S
H2848 C2862 0.930 . S
H2849 C2864 0.960 . S
H2850 C2864 0.960 . S
H2851 C2864 0.960 . S
C2852 H2844 0.929 . S
C2852 C2853 1.377 . S
C2852 C2854 1.384 . S
C2853 C2852 1.377 . S
C2853 C2859 1.390 . S
C2854 H2845 0.930 . S
C2854 C2852 1.384 . S
C2854 C2855 1.372 . S
C2855 C2854 1.372 . S
C2855 C2856 1.400 . S
C2855 C2860 1.490 . S
C2856 H2846 0.930 . S
C2856 C2855 1.400 . S
C2856 C2859 1.386 . S
H2857 C2873 0.930 . S
H2858 C2874 0.931 . S
C2859 H2847 0.929 . S
C2859 C2853 1.390 . S
C2859 C2856 1.386 . S
C2860 C2855 1.490 . S
C2860 C2862 1.395 . S
C2860 C2863 1.403 . S
H2861 C2867 0.930 . S
C2862 H2848 0.930 . S
C2862 C2860 1.395 . S
C2862 C2865 1.403 . S
C2863 C2860 1.403 . S
C2863 C2864 1.524 . S
C2863 C2867 1.400 . S
C2864 H2849 0.960 . S
C2864 H2850 0.960 . S
C2864 H2851 0.960 . S
C2864 C2863 1.524 . S
C2865 C2862 1.403 . S
C2865 C2866 1.392 . S
C2865 C2869 1.495 . S
C2866 C2865 1.392 . S
C2866 C2867 1.385 . S
C2866 C2868 1.478 . S
C2867 H2861 0.930 . S
C2867 C2863 1.400 . S
C2867 C2866 1.385 . S
C2868 C2866 1.478 . S
C2868 C2870 1.381 . S
C2868 C2874 1.383 . S
C2869 C2865 1.495 . S
C2869 H2875 0.959 . S
C2869 H2876 0.961 . S
C2869 H2877 0.960 . S
C2870 C2868 1.381 . S
C2870 C2871 1.394 . S
C2870 H2878 0.930 . S
C2871 C2870 1.394 . S
C2871 C2872 1.383 . S
C2871 H2879 0.929 . S
C2872 C2871 1.383 . S
C2872 C2873 1.377 . S
C2873 H2857 0.930 . S
C2873 C2872 1.377 . S
C2873 C2874 1.379 . S
C2874 H2858 0.931 . S
C2874 C2868 1.383 . S
C2874 C2873 1.379 . S
H2875 C2869 0.959 . S
H2876 C2869 0.961 . S
H2877 C2869 0.960 . S
H2878 C2870 0.930 . S
H2879 C2871 0.929 . S
H2880 C2888 0.929 . S
H2881 C2890 0.930 . S
H2882 C2892 0.930 . S
H2883 C2895 0.929 . S
H2884 C2898 0.930 . S
H2885 C2900 0.960 . S
H2886 C2900 0.960 . S
H2887 C2900 0.960 . S
C2888 H2880 0.929 . S
C2888 C2889 1.377 . S
C2888 C2890 1.384 . S
C2889 C2888 1.377 . S
C2889 C2895 1.390 . S
C2890 H2881 0.930 . S
C2890 C2888 1.384 . S
C2890 C2891 1.372 . S
C2891 C2890 1.372 . S
C2891 C2892 1.400 . S
C2891 C2896 1.490 . S
C2892 H2882 0.930 . S
C2892 C2891 1.400 . S
C2892 C2895 1.386 . S
H2893 C2909 0.930 . S
H2894 C2910 0.931 . S
C2895 H2883 0.929 . S
C2895 C2889 1.390 . S
C2895 C2892 1.386 . S
C2896 C2891 1.490 . S
C2896 C2898 1.395 . S
C2896 C2899 1.403 . S
H2897 C2903 0.930 . S
C2898 H2884 0.930 . S
C2898 C2896 1.395 . S
C2898 C2901 1.403 . S
C2899 C2896 1.403 . S
C2899 C2900 1.524 . S
C2899 C2903 1.400 . S
C2900 H2885 0.960 . S
C2900 H2886 0.960 . S
C2900 H2887 0.960 . S
C2900 C2899 1.524 . S
C2901 C2898 1.403 . S
C2901 C2902 1.392 . S
C2901 C2905 1.495 . S
C2902 C2901 1.392 . S
C2902 C2903 1.385 . S
C2902 C2904 1.478 . S
C2903 H2897 0.930 . S
C2903 C2899 1.400 . S
C2903 C2902 1.385 . S
C2904 C2902 1.478 . S
C2904 C2906 1.381 . S
C2904 C2910 1.383 . S
C2905 C2901 1.495 . S
C2905 H2911 0.959 . S
C2905 H2912 0.961 . S
C2905 H2913 0.960 . S
C2906 C2904 1.381 . S
C2906 C2907 1.394 . S
C2906 H2914 0.930 . S
C2907 C2906 1.394 . S
C2907 C2908 1.383 . S
C2907 H2915 0.929 . S
C2908 C2907 1.383 . S
C2908 C2909 1.377 . S
C2909 H2893 0.930 . S
C2909 C2908 1.377 . S
C2909 C2910 1.379 . S
C2910 H2894 0.931 . S
C2910 C2904 1.383 . S
C2910 C2909 1.379 . S
H2911 C2905 0.959 . S
H2912 C2905 0.961 . S
H2913 C2905 0.960 . S
H2914 C2906 0.930 . S
H2915 C2907 0.929 . S
H2916 C2924 0.929 . S
H2917 C2926 0.930 . S
H2918 C2928 0.930 . S
H2919 C2931 0.929 . S
H2920 C2934 0.930 . S
H2921 C2936 0.960 . S
H2922 C2936 0.960 . S
H2923 C2936 0.960 . S
C2924 H2916 0.929 . S
C2924 C2925 1.377 . S
C2924 C2926 1.384 . S
C2925 C2924 1.377 . S
C2925 C2931 1.390 . S
C2926 H2917 0.930 . S
C2926 C2924 1.384 . S
C2926 C2927 1.372 . S
C2927 C2926 1.372 . S
C2927 C2928 1.400 . S
C2927 C2932 1.490 . S
C2928 H2918 0.930 . S
C2928 C2927 1.400 . S
C2928 C2931 1.386 . S
H2929 C2945 0.930 . S
H2930 C2946 0.931 . S
C2931 H2919 0.929 . S
C2931 C2925 1.390 . S
C2931 C2928 1.386 . S
C2932 C2927 1.490 . S
C2932 C2934 1.395 . S
C2932 C2935 1.403 . S
H2933 C2939 0.930 . S
C2934 H2920 0.930 . S
C2934 C2932 1.395 . S
C2934 C2937 1.403 . S
C2935 C2932 1.403 . S
C2935 C2936 1.524 . S
C2935 C2939 1.400 . S
C2936 H2921 0.960 . S
C2936 H2922 0.960 . S
C2936 H2923 0.960 . S
C2936 C2935 1.524 . S
C2937 C2934 1.403 . S
C2937 C2938 1.392 . S
C2937 C2941 1.495 . S
C2938 C2937 1.392 . S
C2938 C2939 1.385 . S
C2938 C2940 1.478 . S
C2939 H2933 0.930 . S
C2939 C2935 1.400 . S
C2939 C2938 1.385 . S
C2940 C2938 1.478 . S
C2940 C2942 1.381 . S
C2940 C2946 1.383 . S
C2941 C2937 1.495 . S
C2941 H2947 0.959 . S
C2941 H2948 0.961 . S
C2941 H2949 0.960 . S
C2942 C2940 1.381 . S
C2942 C2943 1.394 . S
C2942 H2950 0.930 . S
C2943 C2942 1.394 . S
C2943 C2944 1.383 . S
C2943 H2951 0.929 . S
C2944 C2943 1.383 . S
C2944 C2945 1.377 . S
C2945 H2929 0.930 . S
C2945 C2944 1.377 . S
C2945 C2946 1.379 . S
C2946 H2930 0.931 . S
C2946 C2940 1.383 . S
C2946 C2945 1.379 . S
H2947 C2941 0.959 . S
H2948 C2941 0.961 . S
H2949 C2941 0.960 . S
H2950 C2942 0.930 . S
H2951 C2943 0.929 . S
H2952 C2960 0.929 . S
H2953 C2962 0.930 . S
H2954 C2964 0.930 . S
H2955 C2967 0.929 . S
H2956 C2970 0.930 . S
H2957 C2972 0.960 . S
H2958 C2972 0.960 . S
H2959 C2972 0.960 . S
C2960 H2952 0.929 . S
C2960 C2961 1.377 . S
C2960 C2962 1.384 . S
C2961 C2960 1.377 . S
C2961 C2967 1.390 . S
C2962 H2953 0.930 . S
C2962 C2960 1.384 . S
C2962 C2963 1.372 . S
C2963 C2962 1.372 . S
C2963 C2964 1.400 . S
C2963 C2968 1.490 . S
C2964 H2954 0.930 . S
C2964 C2963 1.400 . S
C2964 C2967 1.386 . S
H2965 C2981 0.930 . S
H2966 C2982 0.931 . S
C2967 H2955 0.929 . S
C2967 C2961 1.390 . S
C2967 C2964 1.386 . S
C2968 C2963 1.490 . S
C2968 C2970 1.395 . S
C2968 C2971 1.403 . S
H2969 C2975 0.930 . S
C2970 H2956 0.930 . S
C2970 C2968 1.395 . S
C2970 C2973 1.403 . S
C2971 C2968 1.403 . S
C2971 C2972 1.524 . S
C2971 C2975 1.400 . S
C2972 H2957 0.960 . S
C2972 H2958 0.960 . S
C2972 H2959 0.960 . S
C2972 C2971 1.524 . S
C2973 C2970 1.403 . S
C2973 C2974 1.392 . S
C2973 C2977 1.495 . S
C2974 C2973 1.392 . S
C2974 C2975 1.385 . S
C2974 C2976 1.478 . S
C2975 H2969 0.930 . S
C2975 C2971 1.400 . S
C2975 C2974 1.385 . S
C2976 C2974 1.478 . S
C2976 C2978 1.381 . S
C2976 C2982 1.383 . S
C2977 C2973 1.495 . S
C2977 H2983 0.959 . S
C2977 H2984 0.961 . S
C2977 H2985 0.960 . S
C2978 C2976 1.381 . S
C2978 C2979 1.394 . S
C2978 H2986 0.930 . S
C2979 C2978 1.394 . S
C2979 C2980 1.383 . S
C2979 H2987 0.929 . S
C2980 C2979 1.383 . S
C2980 C2981 1.377 . S
C2981 H2965 0.930 . S
C2981 C2980 1.377 . S
C2981 C2982 1.379 . S
C2982 H2966 0.931 . S
C2982 C2976 1.383 . S
C2982 C2981 1.379 . S
H2983 C2977 0.959 . S
H2984 C2977 0.961 . S
H2985 C2977 0.960 . S
H2986 C2978 0.930 . S
H2987 C2979 0.929 . S
H2988 C2996 0.929 . S
H2989 C2998 0.930 . S
H2990 C3000 0.930 . S
H2991 C3003 0.929 . S
H2992 C3006 0.930 . S
H2993 C3008 0.960 . S
H2994 C3008 0.960 . S
H2995 C3008 0.960 . S
C2996 H2988 0.929 . S
C2996 C2997 1.377 . S
C2996 C2998 1.384 . S
C2997 C2996 1.377 . S
C2997 C3003 1.390 . S
C2998 H2989 0.930 . S
C2998 C2996 1.384 . S
C2998 C2999 1.372 . S
C2999 C2998 1.372 . S
C2999 C3000 1.400 . S
C2999 C3004 1.490 . S
C3000 H2990 0.930 . S
C3000 C2999 1.400 . S
C3000 C3003 1.386 . S
H3001 C3017 0.930 . S
H3002 C3018 0.931 . S
C3003 H2991 0.929 . S
C3003 C2997 1.390 . S
C3003 C3000 1.386 . S
C3004 C2999 1.490 . S
C3004 C3006 1.395 . S
C3004 C3007 1.403 . S
H3005 C3011 0.930 . S
C3006 H2992 0.930 . S
C3006 C3004 1.395 . S
C3006 C3009 1.403 . S
C3007 C3004 1.403 . S
C3007 C3008 1.524 . S
C3007 C3011 1.400 . S
C3008 H2993 0.960 . S
C3008 H2994 0.960 . S
C3008 H2995 0.960 . S
C3008 C3007 1.524 . S
C3009 C3006 1.403 . S
C3009 C3010 1.392 . S
C3009 C3013 1.495 . S
C3010 C3009 1.392 . S
C3010 C3011 1.385 . S
C3010 C3012 1.478 . S
C3011 H3005 0.930 . S
C3011 C3007 1.400 . S
C3011 C3010 1.385 . S
C3012 C3010 1.478 . S
C3012 C3014 1.381 . S
C3012 C3018 1.383 . S
C3013 C3009 1.495 . S
C3013 H3019 0.959 . S
C3013 H3020 0.961 . S
C3013 H3021 0.960 . S
C3014 C3012 1.381 . S
C3014 C3015 1.394 . S
C3014 H3022 0.930 . S
C3015 C3014 1.394 . S
C3015 C3016 1.383 . S
C3015 H3023 0.929 . S
C3016 C3015 1.383 . S
C3016 C3017 1.377 . S
C3017 H3001 0.930 . S
C3017 C3016 1.377 . S
C3017 C3018 1.379 . S
C3018 H3002 0.931 . S
C3018 C3012 1.383 . S
C3018 C3017 1.379 . S
H3019 C3013 0.959 . S
H3020 C3013 0.961 . S
H3021 C3013 0.960 . S
H3022 C3014 0.930 . S
H3023 C3015 0.929 . S
H3024 C3032 0.929 . S
H3025 C3034 0.930 . S
H3026 C3036 0.930 . S
H3027 C3039 0.929 . S
H3028 C3042 0.930 . S
H3029 C3044 0.960 . S
H3030 C3044 0.960 . S
H3031 C3044 0.960 . S
C3032 H3024 0.929 . S
C3032 C3033 1.377 . S
C3032 C3034 1.384 . S
C3033 C3032 1.377 . S
C3033 C3039 1.390 . S
C3034 H3025 0.930 . S
C3034 C3032 1.384 . S
C3034 C3035 1.372 . S
C3035 C3034 1.372 . S
C3035 C3036 1.400 . S
C3035 C3040 1.490 . S
C3036 H3026 0.930 . S
C3036 C3035 1.400 . S
C3036 C3039 1.386 . S
H3037 C3053 0.930 . S
H3038 C3054 0.931 . S
C3039 H3027 0.929 . S
C3039 C3033 1.390 . S
C3039 C3036 1.386 . S
C3040 C3035 1.490 . S
C3040 C3042 1.395 . S
C3040 C3043 1.403 . S
H3041 C3047 0.930 . S
C3042 H3028 0.930 . S
C3042 C3040 1.395 . S
C3042 C3045 1.403 . S
C3043 C3040 1.403 . S
C3043 C3044 1.524 . S
C3043 C3047 1.400 . S
C3044 H3029 0.960 . S
C3044 H3030 0.960 . S
C3044 H3031 0.960 . S
C3044 C3043 1.524 . S
C3045 C3042 1.403 . S
C3045 C3046 1.392 . S
C3045 C3049 1.495 . S
C3046 C3045 1.392 . S
C3046 C3047 1.385 . S
C3046 C3048 1.478 . S
C3047 H3041 0.930 . S
C3047 C3043 1.400 . S
C3047 C3046 1.385 . S
C3048 C3046 1.478 . S
C3048 C3050 1.381 . S
C3048 C3054 1.383 . S
C3049 C3045 1.495 . S
C3049 H3055 0.959 . S
C3049 H3056 0.961 . S
C3049 H3057 0.960 . S
C3050 C3048 1.381 . S
C3050 C3051 1.394 . S
C3050 H3058 0.930 . S
C3051 C3050 1.394 . S
C3051 C3052 1.383 . S
C3051 H3059 0.929 . S
C3052 C3051 1.383 . S
C3052 C3053 1.377 . S
C3053 H3037 0.930 . S
C3053 C3052 1.377 . S
C3053 C3054 1.379 . S
C3054 H3038 0.931 . S
C3054 C3048 1.383 . S
C3054 C3053 1.379 . S
H3055 C3049 0.959 . S
H3056 C3049 0.961 . S
H3057 C3049 0.960 . S
H3058 C3050 0.930 . S
H3059 C3051 0.929 . S
H3060 C3068 0.929 . S
H3061 C3070 0.930 . S
H3062 C3072 0.930 . S
H3063 C3075 0.929 . S
H3064 C3078 0.930 . S
H3065 C3080 0.960 . S
H3066 C3080 0.960 . S
H3067 C3080 0.960 . S
C3068 H3060 0.929 . S
C3068 C3069 1.377 . S
C3068 C3070 1.384 . S
C3069 C3068 1.377 . S
C3069 C3075 1.390 . S
C3070 H3061 0.930 . S
C3070 C3068 1.384 . S
C3070 C3071 1.372 . S
C3071 C3070 1.372 . S
C3071 C3072 1.400 . S
C3071 C3076 1.490 . S
C3072 H3062 0.930 . S
C3072 C3071 1.400 . S
C3072 C3075 1.386 . S
H3073 C3089 0.930 . S
H3074 C3090 0.931 . S
C3075 H3063 0.929 . S
C3075 C3069 1.390 . S
C3075 C3072 1.386 . S
C3076 C3071 1.490 . S
C3076 C3078 1.395 . S
C3076 C3079 1.403 . S
H3077 C3083 0.930 . S
C3078 H3064 0.930 . S
C3078 C3076 1.395 . S
C3078 C3081 1.403 . S
C3079 C3076 1.403 . S
C3079 C3080 1.524 . S
C3079 C3083 1.400 . S
C3080 H3065 0.960 . S
C3080 H3066 0.960 . S
C3080 H3067 0.960 . S
C3080 C3079 1.524 . S
C3081 C3078 1.403 . S
C3081 C3082 1.392 . S
C3081 C3085 1.495 . S
C3082 C3081 1.392 . S
C3082 C3083 1.385 . S
C3082 C3084 1.478 . S
C3083 H3077 0.930 . S
C3083 C3079 1.400 . S
C3083 C3082 1.385 . S
C3084 C3082 1.478 . S
C3084 C3086 1.381 . S
C3084 C3090 1.383 . S
C3085 C3081 1.495 . S
C3085 H3091 0.959 . S
C3085 H3092 0.961 . S
C3085 H3093 0.960 . S
C3086 C3084 1.381 . S
C3086 C3087 1.394 . S
C3086 H3094 0.930 . S
C3087 C3086 1.394 . S
C3087 C3088 1.383 . S
C3087 H3095 0.929 . S
C3088 C3087 1.383 . S
C3088 C3089 1.377 . S
C3089 H3073 0.930 . S
C3089 C3088 1.377 . S
C3089 C3090 1.379 . S
C3090 H3074 0.931 . S
C3090 C3084 1.383 . S
C3090 C3089 1.379 . S
H3091 C3085 0.959 . S
H3092 C3085 0.961 . S
H3093 C3085 0.960 . S
H3094 C3086 0.930 . S
H3095 C3087 0.929 . S
H3096 C3104 0.929 1_455 S
H3097 C3106 0.930 1_455 S
H3098 C3108 0.930 . S
H3099 C3111 0.929 . S
H3100 C3114 0.930 . S
H3101 C3116 0.960 . S
H3102 C3116 0.960 . S
H3103 C3116 0.960 . S
C3104 H3096 0.929 1_655 S
C3104 C3105 1.377 . S
C3104 C3106 1.384 . S
C3105 C3104 1.377 . S
C3105 C3111 1.390 . S
C3106 H3097 0.930 1_655 S
C3106 C3104 1.384 . S
C3106 C3107 1.372 . S
C3107 C3106 1.372 . S
C3107 C3108 1.400 . S
C3107 C3112 1.490 . S
C3108 H3098 0.930 . S
C3108 C3107 1.400 . S
C3108 C3111 1.386 . S
H3109 C3125 0.930 . S
H3110 C3126 0.931 . S
C3111 H3099 0.929 . S
C3111 C3105 1.390 . S
C3111 C3108 1.386 . S
C3112 C3107 1.490 . S
C3112 C3114 1.395 . S
C3112 C3115 1.403 . S
H3113 C3119 0.930 . S
C3114 H3100 0.930 . S
C3114 C3112 1.395 . S
C3114 C3117 1.403 . S
C3115 C3112 1.403 . S
C3115 C3116 1.524 . S
C3115 C3119 1.400 . S
C3116 H3101 0.960 . S
C3116 H3102 0.960 . S
C3116 H3103 0.960 . S
C3116 C3115 1.524 . S
C3117 C3114 1.403 . S
C3117 C3118 1.392 . S
C3117 C3121 1.495 . S
C3118 C3117 1.392 . S
C3118 C3119 1.385 . S
C3118 C3120 1.478 . S
C3119 H3113 0.930 . S
C3119 C3115 1.400 . S
C3119 C3118 1.385 . S
C3120 C3118 1.478 . S
C3120 C3122 1.381 1_655 S
C3120 C3126 1.383 . S
C3121 C3117 1.495 . S
C3121 H3127 0.959 . S
C3121 H3128 0.961 . S
C3121 H3129 0.960 1_655 S
C3122 C3120 1.381 1_455 S
C3122 C3123 1.394 . S
C3122 H3130 0.930 . S
C3123 C3122 1.394 . S
C3123 C3124 1.383 1_455 S
C3123 H3131 0.929 . S
C3124 C3123 1.383 1_655 S
C3124 C3125 1.377 . S
C3125 H3109 0.930 . S
C3125 C3124 1.377 . S
C3125 C3126 1.379 . S
C3126 H3110 0.931 . S
C3126 C3120 1.383 . S
C3126 C3125 1.379 . S
H3127 C3121 0.959 . S
H3128 C3121 0.961 . S
H3129 C3121 0.960 1_455 S
H3130 C3122 0.930 . S
H3131 C3123 0.929 . S
H3132 C3140 0.929 . S
H3133 C3142 0.930 . S
H3134 C3144 0.930 . S
H3135 C3147 0.929 . S
H3136 C3150 0.930 . S
H3137 C3152 0.960 . S
H3138 C3152 0.960 . S
H3139 C3152 0.960 . S
C3140 H3132 0.929 . S
C3140 C3141 1.377 . S
C3140 C3142 1.384 . S
C3141 C3140 1.377 . S
C3141 C3147 1.390 . S
C3142 H3133 0.930 . S
C3142 C3140 1.384 . S
C3142 C3143 1.372 . S
C3143 C3142 1.372 . S
C3143 C3144 1.400 . S
C3143 C3148 1.490 . S
C3144 H3134 0.930 . S
C3144 C3143 1.400 . S
C3144 C3147 1.386 . S
H3145 C3161 0.930 . S
H3146 C3162 0.931 . S
C3147 H3135 0.929 . S
C3147 C3141 1.390 . S
C3147 C3144 1.386 . S
C3148 C3143 1.490 . S
C3148 C3150 1.395 . S
C3148 C3151 1.403 . S
H3149 C3155 0.930 . S
C3150 H3136 0.930 . S
C3150 C3148 1.395 . S
C3150 C3153 1.403 . S
C3151 C3148 1.403 . S
C3151 C3152 1.524 . S
C3151 C3155 1.400 . S
C3152 H3137 0.960 . S
C3152 H3138 0.960 . S
C3152 H3139 0.960 . S
C3152 C3151 1.524 . S
C3153 C3150 1.403 . S
C3153 C3154 1.392 . S
C3153 C3157 1.495 . S
C3154 C3153 1.392 . S
C3154 C3155 1.385 . S
C3154 C3156 1.478 . S
C3155 H3149 0.930 . S
C3155 C3151 1.400 . S
C3155 C3154 1.385 . S
C3156 C3154 1.478 . S
C3156 C3158 1.381 . S
C3156 C3162 1.383 . S
C3157 C3153 1.495 . S
C3157 H3163 0.959 . S
C3157 H3164 0.961 . S
C3157 H3165 0.960 . S
C3158 C3156 1.381 . S
C3158 C3159 1.394 . S
C3158 H3166 0.930 . S
C3159 C3158 1.394 . S
C3159 C3160 1.383 . S
C3159 H3167 0.929 . S
C3160 C3159 1.383 . S
C3160 C3161 1.377 . S
C3161 H3145 0.930 . S
C3161 C3160 1.377 . S
C3161 C3162 1.379 . S
C3162 H3146 0.931 . S
C3162 C3156 1.383 . S
C3162 C3161 1.379 . S
H3163 C3157 0.959 . S
H3164 C3157 0.961 . S
H3165 C3157 0.960 . S
H3166 C3158 0.930 . S
H3167 C3159 0.929 . S
H3168 C3176 0.929 . S
H3169 C3178 0.930 . S
H3170 C3180 0.930 . S
H3171 C3183 0.929 . S
H3172 C3186 0.930 . S
H3173 C3188 0.960 . S
H3174 C3188 0.960 . S
H3175 C3188 0.960 . S
C3176 H3168 0.929 . S
C3176 C3177 1.377 . S
C3176 C3178 1.384 . S
C3177 C3176 1.377 . S
C3177 C3183 1.390 . S
C3178 H3169 0.930 . S
C3178 C3176 1.384 . S
C3178 C3179 1.372 . S
C3179 C3178 1.372 . S
C3179 C3180 1.400 . S
C3179 C3184 1.490 . S
C3180 H3170 0.930 . S
C3180 C3179 1.400 . S
C3180 C3183 1.386 . S
H3181 C3197 0.930 . S
H3182 C3198 0.931 . S
C3183 H3171 0.929 . S
C3183 C3177 1.390 . S
C3183 C3180 1.386 . S
C3184 C3179 1.490 . S
C3184 C3186 1.395 1_545 S
C3184 C3187 1.403 . S
H3185 C3191 0.930 . S
C3186 H3172 0.930 . S
C3186 C3184 1.395 1_565 S
C3186 C3189 1.403 . S
C3187 C3184 1.403 . S
C3187 C3188 1.524 . S
C3187 C3191 1.400 . S
C3188 H3173 0.960 . S
C3188 H3174 0.960 . S
C3188 H3175 0.960 . S
C3188 C3187 1.524 . S
C3189 C3186 1.403 . S
C3189 C3190 1.392 1_565 S
C3189 C3193 1.495 . S
C3190 C3189 1.392 1_545 S
C3190 C3191 1.385 . S
C3190 C3192 1.478 . S
C3191 H3185 0.930 . S
C3191 C3187 1.400 . S
C3191 C3190 1.385 . S
C3192 C3190 1.478 . S
C3192 C3194 1.381 1_545 S
C3192 C3198 1.383 . S
C3193 C3189 1.495 . S
C3193 H3199 0.959 . S
C3193 H3200 0.961 . S
C3193 H3201 0.960 . S
C3194 C3192 1.381 1_565 S
C3194 C3195 1.394 . S
C3194 H3202 0.930 . S
C3195 C3194 1.394 . S
C3195 C3196 1.386 . S
C3195 H3203 0.929 . S
C3196 C3195 1.386 . S
C3196 C3197 1.378 1_565 S
C3197 H3181 0.930 . S
C3197 C3196 1.378 1_545 S
C3197 C3198 1.379 . S
C3198 H3182 0.931 . S
C3198 C3192 1.383 . S
C3198 C3197 1.379 . S
H3199 C3193 0.959 . S
H3200 C3193 0.961 . S
H3201 C3193 0.960 . S
H3202 C3194 0.930 . S
H3203 C3195 0.929 . S
C621 C8 1.502 . S
C640 C440 1.499 1_655 S
C657 C18 1.526 . S
C676 C453 1.502 . S
C712 C482 1.488 1_545 S
C693 C31 1.528 . S
C729 C34 1.520 . S
C748 C495 1.557 . S
C765 C5 1.525 . S
C784 C516 1.558 . S
C801 C21 1.516 . S
C820 C545 1.519 . S
C837 C47 1.497 . S
C856 C524 1.513 . S
C892 C537 1.483 . S
C873 C57 1.507 . S
C928 C503 1.505 . S
C909 C70 1.533 . S
C945 C73 1.488 . S
C964 C474 1.527 1_545 S
C1000 C432 1.519 1_655 S
C981 C44 1.525 . S
C1017 C60 1.501 . S
C1036 C461 1.494 . S
C1053 C86 1.559 . S
C1072 C566 1.519 . S
C1089 C96 1.544 . S
C1108 C579 1.525 . S
C1144 C608 1.545 . S
C1125 C109 1.595 . S
C1161 C112 1.577 . S
C1180 C243 1.625 . S
C1197 C83 1.594 . S
C1216 C264 1.581 . S
C1233 C99 1.530 . S
C1252 C293 1.548 . S
C1269 C125 1.517 . S
C1288 C272 1.555 . S
C1305 C135 1.538 . S
C1324 C285 1.552 . S
C1360 C251 1.593 . S
C1341 C148 1.580 . S
C1396 C600 1.581 . S
C1377 C151 1.582 . S
C1432 C558 1.529 . S
C1413 C122 1.566 . S
C1468 C587 1.576 . S
C1449 C138 1.537 . S
C1485 C164 1.526 . S
C1504 C314 1.530 . S
C1521 C174 1.541 . S
C1540 C327 1.565 . S
C1557 C187 1.591 . S
C1576 C356 1.516 . S
C1593 C190 1.596 . S
C1612 C369 1.645 . S
C1648 C390 1.610 . S
C1629 C161 1.590 . S
C1684 C419 1.522 . S
C1665 C177 1.559 . S
C1720 C398 1.558 . S
C1701 C203 1.554 . S
C1756 C411 1.526 . S
C1737 C213 1.546 . S
C1773 C226 1.575 . S
C1792 C377 1.577 . S
C1828 C348 1.513 . S
C1809 C229 1.542 . S
C1845 C200 1.572 . S
C1864 C306 1.539 . S
C1900 C335 1.545 . S
C1881 C216 1.527 . S
C1936 C246 1.286 . S
C1917 C0 1.314 . S
C1953 C23 1.289 . S
C1972 C267 1.157 . S
C2008 C295 1.197 . S
C1989 C36 1.346 . S
C2044 C316 1.279 . S
C2025 C26 1.331 1_556 S
C2080 C330 1.203 . S
C2061 C10 1.308 1_556 S
C2116 C358 1.194 . S
C2097 C13 1.265 1_556 S
C2133 C39 1.344 . S
C2152 C351 1.252 . S
C2169 C62 1.302 . S
C2188 C309 1.208 . S
C2205 C75 1.327 . S
C2224 C337 1.234 . S
C2241 C65 1.377 . S
C2260 C274 1.315 . S
C2296 C288 1.171 . S
C2277 C49 1.310 . S
C2313 C52 1.299 . S
C2332 C253 1.289 . S
C2368 C372 1.210 . S
C2349 C78 1.323 . S
C2385 C101 1.360 . S
C2404 C393 1.210 . S
C2421 C114 1.392 . S
C2440 C421 1.322 . S
C2476 C442 1.160 . S
C2457 C104 1.276 . S
C2493 C88 1.311 . S
C2512 C456 1.239 . S
C2529 C91 1.213 . S
C2548 C484 1.104 . S
C2565 C117 1.256 . S
C2584 C477 1.148 . S
C2601 C140 1.259 . S
C2620 C435 1.111 . S
C2656 C463 1.265 . S
C2637 C153 1.354 . S
C2673 C143 1.340 . S
C2692 C400 1.271 . S
C2709 C127 1.388 . S
C2728 C414 1.277 . S
C2764 C379 1.331 . S
C2745 C130 1.354 . S
C2800 C498 1.169 1_545 S
C2781 C156 1.261 . S
C2817 C179 1.246 . S
C2836 C519 1.149 1_655 S
C2853 C192 1.335 . S
C2872 C547 1.193 . S
C2908 C568 1.244 . S
C2889 C182 1.301 . S
C2944 C582 1.305 . S
C2925 C166 1.381 . S
C2961 C169 1.333 . S
C2980 C610 1.263 . S
C2997 C195 1.345 . S
C3016 C603 1.227 . S
C3033 C218 1.376 . S
C3052 C561 1.175 . S
C3088 C589 1.284 . S
C3069 C231 1.387 . S
C3124 C526 1.171 1_655 S
C3105 C221 1.259 . S
C3160 C540 1.184 . S
C3141 C205 1.329 . S
C3177 C208 1.233 . S
C3196 C505 1.162 . S
