# Generated by pormake.
# Topology apo, (3,6)-cn, num edge types: 1
# Building blocks:
#     Node 0, Type 0, BuildingBlock: BETDAH_clean_linker_0, # of connection points: 3
#     Node 1, Type 0, BuildingBlock: BETDAH_clean_linker_0, # of connection points: 3
#     Node 2, Type 0, BuildingBlock: BETDAH_clean_linker_0, # of connection points: 3
#     Node 3, Type 0, BuildingBlock: BETDAH_clean_linker_0, # of connection points: 3
#     Node 4, Type 0, BuildingBlock: BETDAH_clean_linker_0, # of connection points: 3
#     Node 5, Type 0, BuildingBlock: BETDAH_clean_linker_0, # of connection points: 3
#     Node 6, Type 0, BuildingBlock: BETDAH_clean_linker_0, # of connection points: 3
#     Node 7, Type 0, BuildingBlock: BETDAH_clean_linker_0, # of connection points: 3
#     Node 8, Type 1, BuildingBlock: KUMJIN_clean_sbu_1, # of connection points: 6
#     Node 9, Type 1, BuildingBlock: KUMJIN_clean_sbu_1, # of connection points: 6
#     Node 10, Type 1, BuildingBlock: KUMJIN_clean_sbu_1, # of connection points: 6
#     Node 11, Type 1, BuildingBlock: KUMJIN_clean_sbu_1, # of connection points: 6
#     Edge 12, Type (0, 1), BuildingBlock: OJICUG_clean_linker_0, # of connection points: 2
#     Edge 13, Type (0, 1), BuildingBlock: OJICUG_clean_linker_0, # of connection points: 2
#     Edge 14, Type (0, 1), BuildingBlock: OJICUG_clean_linker_0, # of connection points: 2
#     Edge 15, Type (0, 1), BuildingBlock: OJICUG_clean_linker_0, # of connection points: 2
#     Edge 16, Type (0, 1), BuildingBlock: OJICUG_clean_linker_0, # of connection points: 2
#     Edge 17, Type (0, 1), BuildingBlock: OJICUG_clean_linker_0, # of connection points: 2
#     Edge 18, Type (0, 1), BuildingBlock: OJICUG_clean_linker_0, # of connection points: 2
#     Edge 19, Type (0, 1), BuildingBlock: OJICUG_clean_linker_0, # of connection points: 2
#     Edge 20, Type (0, 1), BuildingBlock: OJICUG_clean_linker_0, # of connection points: 2
#     Edge 21, Type (0, 1), BuildingBlock: OJICUG_clean_linker_0, # of connection points: 2
#     Edge 22, Type (0, 1), BuildingBlock: OJICUG_clean_linker_0, # of connection points: 2
#     Edge 23, Type (0, 1), BuildingBlock: OJICUG_clean_linker_0, # of connection points: 2
#     Edge 24, Type (0, 1), BuildingBlock: OJICUG_clean_linker_0, # of connection points: 2
#     Edge 25, Type (0, 1), BuildingBlock: OJICUG_clean_linker_0, # of connection points: 2
#     Edge 26, Type (0, 1), BuildingBlock: OJICUG_clean_linker_0, # of connection points: 2
#     Edge 27, Type (0, 1), BuildingBlock: OJICUG_clean_linker_0, # of connection points: 2
#     Edge 28, Type (0, 1), BuildingBlock: OJICUG_clean_linker_0, # of connection points: 2
#     Edge 29, Type (0, 1), BuildingBlock: OJICUG_clean_linker_0, # of connection points: 2
#     Edge 30, Type (0, 1), BuildingBlock: OJICUG_clean_linker_0, # of connection points: 2
#     Edge 31, Type (0, 1), BuildingBlock: OJICUG_clean_linker_0, # of connection points: 2
#     Edge 32, Type (0, 1), BuildingBlock: OJICUG_clean_linker_0, # of connection points: 2
#     Edge 33, Type (0, 1), BuildingBlock: OJICUG_clean_linker_0, # of connection points: 2
#     Edge 34, Type (0, 1), BuildingBlock: OJICUG_clean_linker_0, # of connection points: 2
#     Edge 35, Type (0, 1), BuildingBlock: OJICUG_clean_linker_0, # of connection points: 2
# Relax obj value: 0.036
# Max RMSD: 0.242
# Mean RMSD: 0.168
data_MOF--net-apo--node1-KUMJIN_clean_sbu_1--node2-BETDAH_clean_linker_0--edge1-OJICUG_clean_linker_0
_symmetry_space_group_name_H-M    P1
_symmetry_Int_Tables_number       1
_symmetry_cell_setting            triclinic
loop_
_symmetry_equiv_pos_as_xyz
'x, y, z'
_cell_length_a     20.378475
_cell_length_b     30.289226
_cell_length_c     39.630454
_cell_angle_alpha  89.293028
_cell_angle_beta   90.019163
_cell_angle_gamma 90.184682
loop_
_atom_site_label
_atom_site_type_symbol
_atom_site_fract_x
_atom_site_fract_y
_atom_site_fract_z
_atom_type_partial_charge
H0 H 0.39768 0.42726 0.42709 0.0
H1 H 0.25979 0.39985 0.34728 0.0
H2 H 0.23451 0.3389 0.44437 0.0
C3 C 0.35512 0.40964 0.41778 0.0
C4 C 0.31991 0.38126 0.43969 0.0
C5 C 0.33406 0.41644 0.38421 0.0
C6 C 0.27757 0.39429 0.37276 0.0
C7 C 0.24263 0.36581 0.3943 0.0
C8 C 0.2638 0.35943 0.42753 0.0
N9 N 0.18099 0.3488 0.38426 0.0
C10 C 0.17426 0.30904 0.3675 0.0
H11 H 0.12671 0.05716 0.91991 0.0
H12 H 0.13252 0.14981 0.83659 0.0
H13 H 0.17686 0.19361 0.93656 0.0
C14 C 0.13673 0.0901 0.91017 0.0
C15 C 0.15336 0.12409 0.93262 0.0
C16 C 0.12856 0.09915 0.87549 0.0
C17 C 0.1399 0.14222 0.86313 0.0
C18 C 0.15902 0.17595 0.88497 0.0
C19 C 0.16454 0.16697 0.91966 0.0
N20 N 0.16288 0.22008 0.87284 0.0
C21 C 0.22074 0.23941 0.8611 0.0
H22 H 0.83425 0.06585 0.60157 0.0
H23 H 0.79145 0.15057 0.68589 0.0
H24 H 0.80716 0.20489 0.58596 0.0
C25 C 0.82226 0.09779 0.6118 0.0
C26 C 0.81894 0.13416 0.5895 0.0
C27 C 0.81351 0.10286 0.64696 0.0
C28 C 0.7993 0.14542 0.65922 0.0
C29 C 0.79808 0.18211 0.63719 0.0
C30 C 0.80874 0.17632 0.60268 0.0
N31 N 0.7918 0.22575 0.64928 0.0
C32 C 0.74363 0.2393 0.6717 0.0
H33 H 0.66256 0.4225 0.09528 0.0
H34 H 0.79741 0.40168 0.17801 0.0
H35 H 0.83745 0.34464 0.08244 0.0
C36 C 0.70708 0.40812 0.1054 0.0
C37 C 0.74691 0.38205 0.08436 0.0
C38 C 0.72432 0.41557 0.13948 0.0
C39 C 0.7814 0.39535 0.15245 0.0
C40 C 0.82079 0.36898 0.13203 0.0
C41 C 0.80407 0.36303 0.09819 0.0
N42 N 0.88226 0.35373 0.14397 0.0
C43 C 0.88931 0.31482 0.16259 0.0
H44 H 0.62051 0.54811 0.60163 0.0
H45 H 0.73798 0.61874 0.67381 0.0
H46 H 0.77145 0.63788 0.56776 0.0
C47 C 0.65843 0.57218 0.60704 0.0
C48 C 0.6927 0.59263 0.58023 0.0
C49 C 0.6746 0.58103 0.64089 0.0
C50 C 0.72433 0.61217 0.64792 0.0
C51 C 0.75812 0.63337 0.62126 0.0
C52 C 0.74259 0.62298 0.58788 0.0
N53 N 0.81276 0.66167 0.62659 0.0
C54 C 0.81952 0.69233 0.65223 0.0
H55 H 0.90511 0.94666 0.10698 0.0
H56 H 0.74424 0.8652 0.07374 0.0
H57 H 0.78146 0.87974 0.17931 0.0
C58 C 0.86438 0.92459 0.11221 0.0
C59 C 0.84695 0.91603 0.146 0.0
C60 C 0.82798 0.90661 0.08548 0.0
C61 C 0.77512 0.87836 0.09346 0.0
C62 C 0.75998 0.86699 0.12688 0.0
C63 C 0.79533 0.88639 0.15334 0.0
N64 N 0.70551 0.83852 0.13247 0.0
C65 C 0.69672 0.81008 0.15992 0.0
H66 H 0.18459 0.94205 0.4357 0.0
H67 H 0.29505 0.88149 0.35538 0.0
H68 H 0.33366 0.84685 0.45874 0.0
C69 C 0.2209 0.91876 0.427 0.0
C70 C 0.25541 0.89354 0.45101 0.0
C71 C 0.23392 0.91465 0.39214 0.0
C72 C 0.28318 0.88488 0.38185 0.0
C73 C 0.31916 0.86063 0.40604 0.0
C74 C 0.30485 0.86507 0.44027 0.0
N75 N 0.37522 0.83575 0.39727 0.0
C76 C 0.37654 0.80322 0.37289 0.0
H77 H 0.35158 0.56763 0.92234 0.0
H78 H 0.3091 0.70326 0.94395 0.0
H79 H 0.30559 0.65932 0.84163 0.0
C80 C 0.33704 0.60024 0.91377 0.0
C81 C 0.32862 0.60875 0.87895 0.0
C82 C 0.32906 0.63371 0.93768 0.0
C83 C 0.31531 0.67672 0.92616 0.0
C84 C 0.30653 0.68587 0.89178 0.0
C85 C 0.3123 0.65186 0.8682 0.0
N86 N 0.29526 0.73018 0.88158 0.0
C87 C 0.24754 0.74276 0.85839 0.0
Eu88 Eu 0.09875 0.09585 0.22693 0.0
C89 C 0.80741 0.08448 0.28639 0.0
N90 N 0.85115 0.11858 0.28648 0.0
C91 C 0.76564 0.16934 0.27128 0.0
C92 C 0.74112 0.0916 0.27759 0.0
C93 C 0.83068 0.16082 0.28036 0.0
C94 C 0.72078 0.13455 0.26957 0.0
C95 C 0.78425 1.00643 0.29543 0.0
C96 C 0.82854 0.04235 0.29574 0.0
C97 C 0.71849 0.01348 0.28636 0.0
C98 C 0.69697 0.05591 0.27753 0.0
Eu99 Eu 0.95897 0.10051 0.30365 0.0
N100 N 0.89292 0.03615 0.3037 0.0
C101 C 0.80761 0.96427 0.30368 0.0
C102 C 0.91589 0.99507 0.31168 0.0
C103 C 0.87372 0.95859 0.31175 0.0
H104 H 0.86376 0.18834 0.28335 0.0
H105 H 0.89231 0.92605 0.31794 0.0
H106 H 0.21606 0.01928 0.23813 0.0
H107 H 0.13308 0.26602 0.18359 0.0
H108 H 0.96675 0.99001 0.31758 0.0
H109 H 0.77516 0.93586 0.30362 0.0
H110 H 0.07356 0.19553 0.19242 0.0
H111 H 0.74991 0.20284 0.26613 0.0
H112 H 0.68386 0.98626 0.28599 0.0
H113 H 0.64597 0.06082 0.27076 0.0
H114 H 0.33495 0.016 0.25036 0.0
H115 H 0.67029 0.14133 0.26275 0.0
H116 H 0.24937 0.27234 0.20109 0.0
N117 N 0.21313 0.08939 0.23673 0.0
C118 C 0.24893 0.12727 0.23524 0.0
C119 C 0.31123 0.04761 0.24668 0.0
C120 C 0.31722 0.12699 0.24109 0.0
C121 C 0.24381 0.04963 0.24023 0.0
C122 C 0.34791 0.08658 0.24786 0.0
N123 N 0.1536 0.16368 0.21657 0.0
C124 C 0.12363 0.19847 0.20074 0.0
C125 C 0.25478 0.20476 0.21941 0.0
C126 C 0.21837 0.16555 0.22437 0.0
C127 C 0.2231 0.24162 0.20537 0.0
C128 C 0.15749 0.23819 0.19545 0.0
H129 H 0.40027 0.08491 0.25243 0.0
H130 H 0.40545 0.16707 0.24301 0.0
H131 H 0.35062 0.23533 0.22413 0.0
O132 O 0.07417 0.10542 0.17316 0.0
O133 O 0.10267 0.15458 0.26183 0.0
O134 O 0.06531 0.12222 0.31052 0.0
O135 O 0.138 0.0526 0.18822 0.0
O136 O 0.9973 0.12697 0.22004 0.0
O137 O 0.97119 0.16084 0.26991 0.0
O138 O 0.94348 0.08318 0.35676 0.0
O139 O 0.93421 0.06491 0.25486 0.0
O140 O 0.03471 0.03754 0.24103 0.0
O141 O 0.92695 0.15017 0.3399 0.0
O142 O 0.04133 0.0522 0.31442 0.0
O143 O 0.12053 0.04757 0.27137 0.0
C144 C 0.09483 0.15497 0.29468 0.0
C145 C 0.16181 0.08778 0.13604 0.0
C146 C 0.18952 0.09963 0.07642 0.0
C147 C 0.25508 0.10711 0.08566 0.0
C148 C 0.22779 0.09585 0.14443 0.0
C149 C 0.27387 0.10555 0.11944 0.0
C150 C 0.14256 0.09034 0.1018 0.0
C151 C 0.97395 0.16092 0.23672 0.0
C152 C 0.11438 0.07516 0.16292 0.0
C153 C 0.35312 0.16655 0.23821 0.0
C154 C 0.32192 0.20539 0.22738 0.0
C155 C 0.97082 0.03729 0.23785 0.0
C156 C 0.86507 0.12381 0.38709 0.0
C157 C 0.817 0.1221 0.44373 0.0
C158 C 0.75414 0.12172 0.42911 0.0
C159 C 0.80176 0.12409 0.37322 0.0
C160 C 0.8725 0.12326 0.42245 0.0
C161 C 0.74673 0.12294 0.39411 0.0
C162 C 0.09586 0.03598 0.3014 0.0
C163 C 0.92366 0.1223 0.3652 0.0
H164 H 0.2918 0.11456 0.06663 0.0
H165 H 0.24424 0.094 0.17028 0.0
H166 H 0.32452 0.11152 0.12629 0.0
H167 H 0.09191 0.0842 0.0949 0.0
H168 H 0.7106 0.12129 0.44479 0.0
H169 H 0.79458 0.12515 0.34633 0.0
H170 H 0.92129 0.123 0.43337 0.0
H171 H 0.69809 0.12305 0.38312 0.0
Eu172 Eu 0.42075 0.40101 0.73199 0.0
C173 C 0.66902 0.479 0.80358 0.0
N174 N 0.65489 0.43639 0.79612 0.0
C175 C 0.76385 0.42598 0.77503 0.0
C176 C 0.73096 0.49734 0.79584 0.0
C177 C 0.70154 0.40938 0.78295 0.0
C178 C 0.77846 0.47029 0.78118 0.0
C179 C 0.63564 0.54781 0.82885 0.0
C180 C 0.62182 0.50384 0.81979 0.0
C181 C 0.69615 0.56693 0.81981 0.0
C182 C 0.74377 0.54172 0.80341 0.0
Eu183 Eu 0.54943 0.41037 0.81076 0.0
N184 N 0.56429 0.48412 0.82875 0.0
C185 C 0.5893 0.57064 0.84793 0.0
C186 C 0.52207 0.50485 0.85003 0.0
C187 C 0.53289 0.54873 0.85916 0.0
H188 H 0.6903 0.37512 0.77839 0.0
H189 H 0.49827 0.56533 0.87534 0.0
H190 H 0.3013 0.47239 0.75699 0.0
H191 H 0.39493 0.22775 0.7 0.0
H192 H 0.48056 0.48738 0.86059 0.0
H193 H 0.598 0.60446 0.85538 0.0
H194 H 0.44971 0.30088 0.70256 0.0
H195 H 0.80052 0.40463 0.76418 0.0
H196 H 0.70733 0.6008 0.82626 0.0
H197 H 0.79079 0.55658 0.79731 0.0
H198 H 0.19177 0.46873 0.78261 0.0
H199 H 0.8267 0.4831 0.77494 0.0
H200 H 0.28504 0.21728 0.72557 0.0
N201 N 0.3122 0.4025 0.75407 0.0
C202 C 0.28044 0.36294 0.75583 0.0
C203 C 0.21658 0.43862 0.77573 0.0
C204 C 0.21624 0.35956 0.76896 0.0
C205 C 0.27966 0.44041 0.7619 0.0
C206 C 0.18514 0.39792 0.77985 0.0
N207 N 0.37226 0.33037 0.72994 0.0
C208 C 0.4019 0.29622 0.71384 0.0
C209 C 0.2777 0.28507 0.74191 0.0
C210 C 0.31078 0.32601 0.74273 0.0
C211 C 0.30884 0.24928 0.7267 0.0
C212 C 0.37094 0.25502 0.7123 0.0
H213 H 0.13593 0.39672 0.79015 0.0
H214 H 0.13522 0.31513 0.78003 0.0
H215 H 0.18893 0.24995 0.75615 0.0
O216 O 0.44531 0.39399 0.67832 0.0
O217 O 0.43454 0.34482 0.77043 0.0
O218 O 0.44755 0.3821 0.81936 0.0
O219 O 0.35649 0.42698 0.69244 0.0
O220 O 0.52279 0.37338 0.72353 0.0
O221 O 0.5649 0.35174 0.77592 0.0
O222 O 0.57483 0.41348 0.86434 0.0
O223 O 0.57962 0.43988 0.75923 0.0
O224 O 0.48123 0.46333 0.73761 0.0
O225 O 0.59117 0.35319 0.83728 0.0
O226 O 0.44533 0.43656 0.81619 0.0
O227 O 0.41651 0.46351 0.76367 0.0
C228 C 0.42309 0.34868 0.80281 0.0
C229 C 0.35314 0.38517 0.64261 0.0
C230 C 0.33194 0.36363 0.58421 0.0
C231 C 0.28159 0.33542 0.59592 0.0
C232 C 0.30179 0.35734 0.65331 0.0
C233 C 0.26677 0.33239 0.63016 0.0
C234 C 0.36786 0.38852 0.60789 0.0
C235 C 0.56149 0.34863 0.74265 0.0
C236 C 0.39039 0.41094 0.66767 0.0
C237 C 0.18426 0.31838 0.76974 0.0
C238 C 0.21476 0.28128 0.75605 0.0
C239 C 0.54553 0.46533 0.7385 0.0
C240 C 0.65974 0.36752 0.88489 0.0
C241 C 0.71702 0.36429 0.93924 0.0
C242 C 0.77466 0.35215 0.92227 0.0
C243 C 0.71805 0.35567 0.86854 0.0
C244 C 0.65971 0.37237 0.92027 0.0
C245 C 0.77517 0.34821 0.88719 0.0
C246 C 0.41583 0.46591 0.79683 0.0
C247 C 0.59804 0.37366 0.86585 0.0
H248 H 0.25219 0.31651 0.57845 0.0
H249 H 0.28798 0.35529 0.67954 0.0
H250 H 0.22728 0.31108 0.63876 0.0
H251 H 0.40694 0.41032 0.5994 0.0
H252 H 0.81955 0.346 0.93619 0.0
H253 H 0.71941 0.35174 0.84144 0.0
H254 H 0.61476 0.38129 0.93309 0.0
H255 H 0.81993 0.33899 0.87442 0.0
Eu256 Eu 0.04252 0.9102 0.72031 0.0
C257 C 0.76917 0.85544 0.76896 0.0
N258 N 0.79964 0.89494 0.77347 0.0
C259 C 0.70355 0.9328 0.75353 0.0
C260 C 0.70561 0.85311 0.75496 0.0
C261 C 0.76613 0.93339 0.76801 0.0
C262 C 0.67367 0.89247 0.74631 0.0
C263 C 0.76712 0.77632 0.77944 0.0
C264 C 0.79936 0.81749 0.78098 0.0
C265 C 0.70552 0.7735 0.76372 0.0
C266 C 0.67486 0.81182 0.75144 0.0
Eu267 Eu 0.90852 0.89162 0.79496 0.0
N268 N 0.85904 0.82119 0.79581 0.0
C269 C 0.79695 0.73952 0.79466 0.0
C270 C 0.88673 0.78616 0.81244 0.0
C271 C 0.85648 0.74464 0.81176 0.0
H272 H 0.78716 0.9648 0.77491 0.0
H273 H 0.87922 0.71662 0.82423 0.0
H274 H 0.18108 0.88488 0.76143 0.0
H275 H 0.97925 0.06489 0.6555 0.0
H276 H 0.93303 0.79026 0.82536 0.0
H277 H 0.77369 0.70731 0.79408 0.0
H278 H 0.9734 0.98484 0.66756 0.0
H279 H 0.67803 0.96343 0.7484 0.0
H280 H 0.68032 0.74206 0.76184 0.0
H281 H 0.62639 0.80935 0.74037 0.0
H282 H 0.27766 0.92295 0.78563 0.0
H283 H 0.62485 0.89211 0.73548 0.0
H284 H 0.06236 0.11084 0.68421 0.0
N285 N 0.13741 0.94404 0.74308 0.0
C286 C 0.14402 0.98827 0.73811 0.0
C287 C 0.2402 0.94174 0.77254 0.0
C288 C 0.198 0.01138 0.75151 0.0
C289 C 0.18558 0.92028 0.75893 0.0
C290 C 0.24602 0.98757 0.76921 0.0
N291 N 0.04736 0.98625 0.70534 0.0
C292 C 0.0078 1.0049 0.68135 0.0
C293 C 0.10353 0.05575 0.71231 0.0
C294 C 0.09701 0.0101 0.71907 0.0
C295 C 0.05899 0.07588 0.69013 0.0
C296 C 0.01192 0.0501 0.67395 0.0
H297 H 0.28828 1.00413 0.77987 0.0
H298 H 0.24354 0.0757 0.75675 0.0
H299 H 0.16104 0.11455 0.72219 0.0
O300 O 0.06529 0.91678 0.66677 0.0
O301 O 0.05797 0.93515 0.77423 0.0
O302 O 0.95675 0.9586 0.78996 0.0
O303 O 0.11141 0.86508 0.69574 0.0
O304 O 0.9358 0.92842 0.70994 0.0
O305 O 0.89971 0.95299 0.76126 0.0
O306 O 0.94323 0.89179 0.84719 0.0
O307 O 0.93153 0.83579 0.75906 0.0
O308 O 0.94928 0.87148 0.70879 0.0
O309 O 0.84055 0.90186 0.83662 0.0
O310 O 0.01033 0.86272 0.80404 0.0
O311 O 0.06096 0.84877 0.75241 0.0
C312 C 0.02056 0.9634 0.79 0.0
C313 C 0.16985 0.89616 0.64892 0.0
C314 C 0.22767 0.9076 0.59552 0.0
C315 C 0.28076 0.92589 0.6132 0.0
C316 C 0.2236 0.91415 0.66615 0.0
C317 C 0.27883 0.92875 0.64834 0.0
C318 C 0.17247 0.89245 0.61361 0.0
C319 C 0.8991 0.95468 0.72807 0.0
C320 C 0.10821 0.88533 0.6666 0.0
C321 C 0.20281 0.05724 0.74635 0.0
C322 C 0.15568 0.07938 0.72678 0.0
C323 C 0.92595 0.83773 0.72618 0.0
C324 C 0.88367 0.93579 0.88495 0.0
C325 C 0.87218 0.95609 0.94425 0.0
C326 C 0.86941 1.00084 0.93394 0.0
C327 C 0.88188 0.98042 0.87535 0.0
C328 C 0.88067 0.9239 0.91919 0.0
C329 C 0.87519 0.01278 0.89986 0.0
C330 C 0.05485 0.84268 0.78536 0.0
C331 C 0.88594 0.90088 0.85967 0.0
H332 H 0.32393 0.93758 0.59984 0.0
H333 H 0.22263 0.91758 0.69319 0.0
H334 H 0.32 0.94279 0.66179 0.0
H335 H 0.13069 0.87915 0.60011 0.0
H336 H 0.86134 0.02682 0.95193 0.0
H337 H 0.88469 0.9901 0.84898 0.0
H338 H 0.88459 0.88928 0.92597 0.0
H339 H 0.87306 0.04723 0.89236 0.0
Eu340 Eu 0.45097 0.60301 0.22562 0.0
C341 C 0.73187 0.64735 0.27552 0.0
N342 N 0.70493 0.60674 0.27083 0.0
C343 C 0.80077 0.58352 0.241 0.0
C344 C 0.79425 0.6579 0.26226 0.0
C345 C 0.73857 0.57466 0.25438 0.0
C346 C 0.82862 0.62538 0.24479 0.0
C347 C 0.72256 0.72127 0.29789 0.0
C348 C 0.69595 0.67878 0.29285 0.0
C349 C 0.78426 0.73211 0.28426 0.0
C350 C 0.82001 0.70052 0.26652 0.0
Eu351 Eu 0.59914 0.59504 0.29337 0.0
N352 N 0.63583 0.66759 0.30538 0.0
C353 C 0.68699 0.75134 0.31711 0.0
C354 C 0.60409 0.69544 0.32665 0.0
C355 C 0.62811 0.73804 0.3321 0.0
H356 H 0.71756 0.54213 0.25174 0.0
H357 H 0.60182 0.76028 0.34841 0.0
H358 H 0.34075 0.67634 0.25286 0.0
H359 H 0.42487 0.42564 0.20376 0.0
H360 H 0.56147 0.68465 0.34043 0.0
H361 H 0.70574 0.78428 0.32157 0.0
H362 H 0.48136 0.4974 0.20305 0.0
H363 H 0.8272 0.55807 0.22779 0.0
H364 H 0.80515 0.7647 0.28768 0.0
H365 H 0.86766 0.70932 0.25632 0.0
H366 H 0.22569 0.67705 0.27248 0.0
H367 H 0.87667 0.63221 0.23423 0.0
H368 H 0.31018 0.42017 0.22378 0.0
N369 N 0.34151 0.60724 0.24434 0.0
C370 C 0.30678 0.56881 0.24458 0.0
C371 C 0.24799 0.64638 0.26482 0.0
C372 C 0.24083 0.56778 0.25532 0.0
C373 C 0.31326 0.64582 0.25399 0.0
C374 C 0.21163 0.6072 0.26556 0.0
N375 N 0.40189 0.53206 0.22488 0.0
C376 C 0.43252 0.49543 0.21305 0.0
C377 C 0.30291 0.48987 0.23464 0.0
C378 C 0.33765 0.53022 0.2344 0.0
C379 C 0.33518 0.4518 0.22399 0.0
C380 C 0.40004 0.4547 0.21285 0.0
H381 H 0.16108 0.60776 0.27399 0.0
H382 H 0.15567 0.52614 0.26394 0.0
H383 H 0.20991 0.45802 0.24582 0.0
O384 O 0.45692 0.59441 0.17089 0.0
O385 O 0.43028 0.56837 0.27608 0.0
O386 O 0.52915 0.53744 0.28913 0.0
O387 O 0.3894 0.64181 0.19131 0.0
O388 O 0.54559 0.56911 0.20946 0.0
O389 O 0.59153 0.53748 0.25733 0.0
O390 O 0.60059 0.59079 0.34935 0.0
O391 O 0.61705 0.62991 0.24269 0.0
O392 O 0.51863 0.66231 0.2295 0.0
O393 O 0.67034 0.5535 0.31918 0.0
O394 O 0.50329 0.6291 0.30897 0.0
O395 O 0.46184 0.66131 0.26017 0.0
C396 C 0.4657 0.54001 0.2935 0.0
C397 C 0.35892 0.60724 0.14037 0.0
C398 C 0.32011 0.59946 0.08223 0.0
C399 C 0.26191 0.58015 0.09476 0.0
C400 C 0.30045 0.58792 0.15206 0.0
C401 C 0.25244 0.57435 0.12938 0.0
C402 C 0.36867 0.61285 0.10542 0.0
C403 C 0.58406 0.53983 0.22431 0.0
C404 C 0.40967 0.62207 0.16428 0.0
C405 C 0.20632 0.52758 0.25569 0.0
C406 C 0.23726 0.48876 0.24539 0.0
C407 C 0.58308 0.663 0.23018 0.0
C408 C 0.67949 0.54294 0.37972 0.0
C409 C 0.69339 0.537 0.44112 0.0
C410 C 0.73617 0.50125 0.43628 0.0
C411 C 0.72242 0.50712 0.37591 0.0
C412 C 0.66522 0.558 0.41252 0.0
C413 C 0.75045 0.48654 0.40397 0.0
C414 C 0.46787 0.65958 0.29323 0.0
C415 C 0.64925 0.56297 0.34916 0.0
H416 H 0.2229 0.57032 0.07787 0.0
H417 H 0.29143 0.58372 0.17868 0.0
H418 H 0.20731 0.55971 0.13869 0.0
H419 H 0.41409 0.62748 0.09639 0.0
H420 H 0.7597 0.48501 0.45755 0.0
H421 H 0.73417 0.49467 0.35113 0.0
H422 H 0.63205 0.5855 0.41581 0.0
H423 H 0.78357 0.45906 0.40067 0.0
C424 C 0.22965 0.96155 0.33879 0.0
C425 C 0.19778 0.94296 0.36713 0.0
H426 H 0.22356 1.00536 0.2964 0.0
C427 C 0.13158 0.95376 0.37251 0.0
H428 H 0.28094 0.95479 0.33403 0.0
C429 C 0.09905 0.9834 0.35106 0.0
C430 C 0.13092 1.00258 0.3229 0.0
H431 H 0.10473 0.93967 0.39363 0.0
H432 H 0.04887 0.99163 0.35712 0.0
C433 C 0.19659 0.99084 0.317 0.0
C434 C 0.37349 0.58128 0.82363 0.0
C435 C 0.34031 0.57281 0.85425 0.0
H436 H 0.42254 0.55354 0.78085 0.0
C437 C 0.32357 0.52887 0.86255 0.0
H438 H 0.38763 0.61457 0.81645 0.0
C439 C 0.34473 0.49413 0.84253 0.0
C440 C 0.38173 0.50257 0.81334 0.0
H441 H 0.29626 0.52108 0.8853 0.0
H442 H 0.3345 0.46049 0.85059 0.0
C443 C 0.39352 0.54639 0.80317 0.0
C444 C 0.57336 0.55251 0.66995 0.0
C445 C 0.64209 0.55502 0.66832 0.0
H446 H 0.48928 0.52311 0.69349 0.0
C447 C 0.67925 0.52903 0.69085 0.0
H448 H 0.5435 0.572 0.65278 0.0
C449 C 0.64822 0.50004 0.71374 0.0
C450 C 0.57936 0.49715 0.71523 0.0
H451 H 0.73236 0.5297 0.68973 0.0
H452 H 0.67828 0.47907 0.72955 0.0
C453 C 0.5424 0.52428 0.69327 0.0
C454 C 0.94723 0.94442 0.17543 0.0
C455 C 0.87855 0.94228 0.17285 0.0
H456 H 0.03024 0.97566 0.19824 0.0
C457 C 0.84032 0.97018 0.19282 0.0
H458 H 0.97773 0.92353 0.15998 0.0
C459 C 0.87021 1.00088 0.21399 0.0
C460 C 0.93901 1.0036 0.21634 0.0
H461 H 0.78731 0.96985 0.19073 0.0
H462 H 0.83922 0.0233 0.2277 0.0
C463 C 0.97716 0.97447 0.19718 0.0
C464 C 0.8131 0.02077 0.66005 0.0
C465 C 0.82441 0.06447 0.6706 0.0
H466 H 0.82851 0.95173 0.66992 0.0
C467 C 0.85195 0.07076 0.70288 0.0
H468 H 0.7898 0.01413 0.6361 0.0
C469 C 0.87129 0.03465 0.72288 0.0
C470 C 0.86534 0.99154 0.7107 0.0
H471 H 0.86252 0.10351 0.71205 0.0
H472 H 0.89563 0.04067 0.7467 0.0
C473 C 0.83434 0.98481 0.67961 0.0
C474 C 0.6573 0.48485 0.14719 0.0
C475 C 0.68543 0.4463 0.16106 0.0
H476 H 0.60378 0.54432 0.15604 0.0
C477 C 0.67869 0.43855 0.19606 0.0
H478 H 0.66227 0.4926 0.12057 0.0
C479 C 0.64608 0.4688 0.21658 0.0
C480 C 0.61863 0.50745 0.20267 0.0
H481 H 0.69855 0.40897 0.20771 0.0
H482 H 0.64213 0.46175 0.24337 0.0
C483 C 0.62413 0.51485 0.16766 0.0
C484 C 0.437 0.44733 0.35767 0.0
C485 C 0.36848 0.44842 0.36153 0.0
H486 H 0.52145 0.47489 0.33285 0.0
C487 C 0.3325 0.48028 0.34337 0.0
H488 H 0.46596 0.4231 0.37134 0.0
C489 C 0.36415 0.51026 0.32175 0.0
C490 C 0.4325 0.50859 0.31709 0.0
H491 H 0.27974 0.48244 0.34625 0.0
H492 H 0.33482 0.53487 0.30887 0.0
C493 C 0.46865 0.47691 0.33551 0.0
C494 C 0.13534 0.02416 0.8491 0.0
C495 C 0.10278 0.06466 0.85267 0.0
H496 H 0.13522 0.9604 0.82594 0.0
C497 C 0.04397 0.07183 0.83496 0.0
H498 H 0.18075 0.01788 0.86252 0.0
C499 C 0.01748 0.03886 0.8146 0.0
C500 C 0.05001 0.99841 0.81091 0.0
H501 H 0.01772 0.10266 0.83747 0.0
H502 H 0.97156 0.04506 0.80162 0.0
C503 C 0.10952 0.99148 0.82809 0.0
C504 C 0.19489 0.07991 0.98227 0.0
C505 C 0.15731 0.11523 0.96964 0.0
H506 H 0.23443 0.0474 0.02619 0.0
C507 C 0.12512 0.14283 0.99266 0.0
H508 H 0.22033 0.05819 0.96519 0.0
C509 C 0.13202 0.13603 0.02756 0.0
C510 C 0.17207 0.10196 0.04007 0.0
H511 H 0.09527 0.17004 0.98364 0.0
H512 H 0.10852 0.15859 0.04475 0.0
C513 C 0.20278 0.07366 0.01712 0.0
C514 C 0.33696 0.33474 0.49158 0.0
C515 C 0.33724 0.37665 0.47603 0.0
H516 H 0.33734 0.29772 0.53787 0.0
C517 C 0.34586 0.4141 0.49623 0.0
H518 H 0.33138 0.30526 0.47662 0.0
C519 C 0.34875 0.40984 0.53151 0.0
C520 C 0.34324 0.36804 0.54715 0.0
H521 H 0.34593 0.44685 0.48494 0.0
H522 H 0.35088 0.43943 0.54654 0.0
C523 C 0.34022 0.33047 0.52667 0.0
C524 C 0.70499 0.41075 0.02787 0.0
C525 C 0.7317 0.37615 0.04762 0.0
H526 H 0.67888 0.434 0.97814 0.0
C527 C 0.74802 0.3365 0.03142 0.0
H528 H 0.69233 0.44193 0.03919 0.0
C529 C 0.74164 0.33248 0.99646 0.0
C530 C 0.71742 0.36758 0.97669 0.0
H531 H 0.7669 0.30859 0.04568 0.0
H532 H 0.75641 0.30194 0.98475 0.0
C533 C 0.69752 0.40636 0.99282 0.0
C534 C 0.86318 0.1568 0.53243 0.0
C535 C 0.82431 0.12819 0.55235 0.0
H536 H 0.89214 0.17683 0.48243 0.0
C537 C 0.78707 0.09543 0.53631 0.0
H538 H 0.89282 0.18214 0.5441 0.0
C539 C 0.78638 0.09262 0.5011 0.0
C540 C 0.82359 0.12211 0.48112 0.0
H541 H 0.75638 0.07307 0.55093 0.0
H542 H 0.75573 0.06783 0.48942 0.0
C543 C 0.86321 0.15356 0.49718 0.0
C544 C 0.86978 0.96008 0.0406 0.0
C545 C 0.84278 0.91863 0.04945 0.0
H546 H 0.90332 1.00348 1.00145 0.0
C547 C 0.82795 0.8892 0.0233 0.0
H548 H 0.88113 0.98427 0.0596 0.0
C549 C 0.83694 0.90142 0.98954 0.0
C550 C 0.86381 0.94286 0.9806 0.0
H551 H 0.80878 0.85652 0.02867 0.0
H552 H 0.82134 0.87827 0.97058 0.0
C553 C 0.88113 0.97167 1.00681 0.0
C554 C 0.67269 0.53485 0.53627 0.0
C555 C 0.68153 0.57952 0.54443 0.0
H556 H 0.66788 0.48665 0.49733 0.0
C557 C 0.68578 0.6108 0.51787 0.0
H558 H 0.66959 0.50973 0.55588 0.0
C559 C 0.68555 0.59742 0.48411 0.0
C560 C 0.68119 0.55243 0.47615 0.0
H561 H 0.69149 0.64559 0.52319 0.0
H562 H 0.69239 0.62205 0.46437 0.0
C563 C 0.6724 0.52153 0.50261 0.0
C564 C 0.35907 0.65396 0.99746 0.0
C565 C 0.33257 0.62344 0.9746 0.0
H566 H 0.3755 0.67068 0.04913 0.0
C567 C 0.30626 0.58369 0.9875 0.0
H568 H 0.38082 0.68458 0.9885 0.0
C569 C 0.30457 0.5753 0.02223 0.0
C570 C 0.32846 0.6066 0.04516 0.0
H571 H 0.28487 0.5595 0.97084 0.0
H572 H 0.28345 0.54444 0.03113 0.0
C573 C 0.35689 0.6457 0.03229 0.0
C574 C 0.2499 0.93901 0.50328 0.0
C575 C 0.24256 0.898 0.48759 0.0
H576 H 0.25172 0.97402 0.55004 0.0
C577 C 0.22731 0.86056 0.5074 0.0
H578 H 0.26213 0.96824 0.48853 0.0
C579 C 0.22036 0.86395 0.54239 0.0
C580 C 0.23005 0.90466 0.55824 0.0
H581 H 0.22151 0.82858 0.49579 0.0
H582 H 0.20951 0.83452 0.55719 0.0
C583 C 0.24438 0.94223 0.53837 0.0
C584 C 0.16527 0.26794 0.31453 0.0
C585 C 0.15953 0.26891 0.34969 0.0
H586 H 0.14879 0.2314 0.26963 0.0
C587 C 0.13441 0.23197 0.36706 0.0
H588 H 0.18389 0.29639 0.30068 0.0
C589 C 0.11433 0.19452 0.34933 0.0
C590 C 0.11899 0.19355 0.31391 0.0
H591 H 0.12906 0.2324 0.39426 0.0
H592 H 0.09426 0.16667 0.36333 0.0
C593 C 0.14517 0.23063 0.29681 0.0
C594 C 0.31803 0.24813 0.82394 0.0
C595 C 0.27556 0.26518 0.84833 0.0
H596 H 0.39918 0.26128 0.79061 0.0
C597 C 0.28385 0.30884 0.8589 0.0
H598 H 0.31211 0.21455 0.8153 0.0
C599 C 0.33317 0.33552 0.84479 0.0
C600 C 0.37465 0.3191 0.81958 0.0
H601 H 0.25123 0.32268 0.87756 0.0
H602 H 0.33736 0.36948 0.8528 0.0
C603 C 0.36745 0.27488 0.80975 0.0
C604 C 0.69744 0.26552 0.72577 0.0
C605 C 0.69367 0.26196 0.69059 0.0
H606 H 0.65788 0.29532 0.77017 0.0
C607 C 0.64465 0.28478 0.67295 0.0
H608 H 0.73549 0.24836 0.73976 0.0
C609 C 0.60094 0.31199 0.69003 0.0
C610 C 0.60535 0.31699 0.72525 0.0
H611 H 0.64136 0.28268 0.64571 0.0
H612 H 0.56455 0.32982 0.67538 0.0
C613 C 0.65327 0.29261 0.74305 0.0
C614 C 0.91304 0.23491 0.16514 0.0
C615 C 0.90499 0.27521 0.18162 0.0
H616 H 0.94092 0.16686 0.16967 0.0
C617 C 0.91755 0.27763 0.21629 0.0
H618 H 0.90414 0.23259 0.13826 0.0
C619 C 0.93889 0.24029 0.23426 0.0
C620 C 0.94811 0.19982 0.21784 0.0
H621 H 0.91231 0.30865 0.22935 0.0
H622 H 0.94967 0.24345 0.26089 0.0
C623 C 0.93434 0.19746 0.18309 0.0
C624 C 0.86791 0.72205 0.70459 0.0
C625 C 0.83855 0.72915 0.67303 0.0
H626 H 0.91997 0.75094 0.74588 0.0
C627 C 0.83616 0.7721 0.65944 0.0
H628 H 0.87141 0.689 0.71519 0.0
C629 C 0.86397 0.80749 0.67686 0.0
C630 C 0.89456 0.80051 0.70824 0.0
H631 H 0.81457 0.7781 0.63482 0.0
H632 H 0.86208 0.84025 0.66562 0.0
C633 C 0.89565 0.75749 0.72208 0.0
C634 C 0.61338 0.77956 0.19831 0.0
C635 C 0.67492 0.77574 0.18296 0.0
H636 H 0.53628 0.74677 0.22551 0.0
C637 C 0.70892 0.73562 0.18537 0.0
H638 H 0.58601 0.81011 0.1963 0.0
C639 C 0.68032 0.69911 0.20186 0.0
C640 C 0.61713 0.70225 0.21587 0.0
H641 H 0.75607 0.73186 0.17313 0.0
H642 H 0.70618 0.66793 0.20216 0.0
C643 C 0.58471 0.74317 0.21463 0.0
C644 C 0.39928 0.7713 0.31706 0.0
C645 C 0.3903 0.76583 0.35187 0.0
H646 H 0.43072 0.74165 0.27105 0.0
C647 C 0.40266 0.72466 0.36707 0.0
H648 H 0.39069 0.80306 0.305 0.0
C649 C 0.42587 0.68957 0.34786 0.0
C650 C 0.43734 0.69522 0.31311 0.0
H651 H 0.39655 0.72004 0.39406 0.0
H652 H 0.43654 0.6584 0.36037 0.0
C653 C 0.4223 0.73617 0.29776 0.0
C654 C 0.20296 0.77009 0.80391 0.0
C655 C 0.19579 0.76267 0.83868 0.0
H656 H 0.16327 0.80082 0.75939 0.0
C657 C 0.14048 0.77882 0.85531 0.0
H658 H 0.24579 0.75802 0.79076 0.0
C659 C 0.09374 0.80356 0.83769 0.0
C660 C 0.10148 0.81268 0.80299 0.0
H661 H 0.13444 0.77354 0.88224 0.0
H662 H 0.05239 0.81645 0.85158 0.0
C663 C 0.15586 0.79469 0.7861 0.0
loop_
_geom_bond_atom_site_label_1
_geom_bond_atom_site_label_2
_geom_bond_distance
_geom_bond_site_symmetry_2
_ccdc_geom_bond_type
H0 C3 0.929 . S
H1 C6 0.929 . S
H2 C8 0.930 . S
C3 H0 0.929 . S
C3 C4 1.398 . S
C3 C5 1.396 . S
C4 C3 1.398 . S
C4 C8 1.407 . S
C5 C3 1.396 . S
C5 C6 1.394 . S
C6 H1 0.929 . S
C6 C5 1.394 . S
C6 C7 1.382 . S
C7 C6 1.382 . S
C7 C8 1.392 . S
C7 N9 1.420 . S
C8 H2 0.930 . S
C8 C4 1.407 . S
C8 C7 1.392 . S
N9 C7 1.420 . S
N9 C10 1.244 . S
C10 N9 1.244 . S
H11 C14 0.929 . S
H12 C17 0.929 . S
H13 C19 0.930 . S
C14 H11 0.929 . S
C14 C15 1.398 . S
C14 C16 1.396 . S
C15 C14 1.398 . S
C15 C19 1.407 . S
C16 C14 1.396 . S
C16 C17 1.394 . S
C17 H12 0.929 . S
C17 C16 1.394 . S
C17 C18 1.382 . S
C18 C17 1.382 . S
C18 C19 1.392 . S
C18 N20 1.420 . S
C19 H13 0.930 . S
C19 C15 1.407 . S
C19 C18 1.392 . S
N20 C18 1.420 . S
N20 C21 1.244 . S
C21 N20 1.244 . S
H22 C25 0.929 . S
H23 C28 0.929 . S
H24 C30 0.930 . S
C25 H22 0.929 . S
C25 C26 1.398 . S
C25 C27 1.396 . S
C26 C25 1.398 . S
C26 C30 1.407 . S
C27 C25 1.396 . S
C27 C28 1.394 . S
C28 H23 0.929 . S
C28 C27 1.394 . S
C28 C29 1.382 . S
C29 C28 1.382 . S
C29 C30 1.392 . S
C29 N31 1.420 . S
C30 H24 0.930 . S
C30 C26 1.407 . S
C30 C29 1.392 . S
N31 C29 1.420 . S
N31 C32 1.244 . S
C32 N31 1.244 . S
H33 C36 0.929 . S
H34 C39 0.929 . S
H35 C41 0.930 . S
C36 H33 0.929 . S
C36 C37 1.398 . S
C36 C38 1.396 . S
C37 C36 1.398 . S
C37 C41 1.407 . S
C38 C36 1.396 . S
C38 C39 1.394 . S
C39 H34 0.929 . S
C39 C38 1.394 . S
C39 C40 1.382 . S
C40 C39 1.382 . S
C40 C41 1.392 . S
C40 N42 1.420 . S
C41 H35 0.930 . S
C41 C37 1.407 . S
C41 C40 1.392 . S
N42 C40 1.420 . S
N42 C43 1.244 . S
C43 N42 1.244 . S
H44 C47 0.929 . S
H45 C50 0.929 . S
H46 C52 0.930 . S
C47 H44 0.929 . S
C47 C48 1.398 . S
C47 C49 1.396 . S
C48 C47 1.398 . S
C48 C52 1.407 . S
C49 C47 1.396 . S
C49 C50 1.394 . S
C50 H45 0.929 . S
C50 C49 1.394 . S
C50 C51 1.382 . S
C51 C50 1.382 . S
C51 C52 1.392 . S
C51 N53 1.420 . S
C52 H46 0.930 . S
C52 C48 1.407 . S
C52 C51 1.392 . S
N53 C51 1.420 . S
N53 C54 1.244 . S
C54 N53 1.244 . S
H55 C58 0.929 . S
H56 C61 0.929 . S
H57 C63 0.930 . S
C58 H55 0.929 . S
C58 C59 1.398 . S
C58 C60 1.396 . S
C59 C58 1.398 . S
C59 C63 1.407 . S
C60 C58 1.396 . S
C60 C61 1.394 . S
C61 H56 0.929 . S
C61 C60 1.394 . S
C61 C62 1.382 . S
C62 C61 1.382 . S
C62 C63 1.392 . S
C62 N64 1.420 . S
C63 H57 0.930 . S
C63 C59 1.407 . S
C63 C62 1.392 . S
N64 C62 1.420 . S
N64 C65 1.244 . S
C65 N64 1.244 . S
H66 C69 0.929 . S
H67 C72 0.929 . S
H68 C74 0.930 . S
C69 H66 0.929 . S
C69 C70 1.398 . S
C69 C71 1.396 . S
C70 C69 1.398 . S
C70 C74 1.407 . S
C71 C69 1.396 . S
C71 C72 1.394 . S
C72 H67 0.929 . S
C72 C71 1.394 . S
C72 C73 1.382 . S
C73 C72 1.382 . S
C73 C74 1.392 . S
C73 N75 1.420 . S
C74 H68 0.930 . S
C74 C70 1.407 . S
C74 C73 1.392 . S
N75 C73 1.420 . S
N75 C76 1.244 . S
C76 N75 1.244 . S
H77 C80 0.929 . S
H78 C83 0.929 . S
H79 C85 0.930 . S
C80 H77 0.929 . S
C80 C81 1.398 . S
C80 C82 1.396 . S
C81 C80 1.398 . S
C81 C85 1.407 . S
C82 C80 1.396 . S
C82 C83 1.394 . S
C83 H78 0.929 . S
C83 C82 1.394 . S
C83 C84 1.382 . S
C84 C83 1.382 . S
C84 C85 1.392 . S
C84 N86 1.420 . S
C85 H79 0.930 . S
C85 C81 1.407 . S
C85 C84 1.392 . S
N86 C84 1.420 . S
N86 C87 1.244 . S
C87 N86 1.244 . S
Eu88 N117 2.600 . S
Eu88 N123 2.562 . S
Eu88 O132 2.462 . S
Eu88 O133 2.373 . S
Eu88 O135 2.432 . S
Eu88 O136 2.291 . S
Eu88 O140 2.335 . S
Eu88 O143 2.372 . S
Eu88 C152 2.787 . S
C89 N90 1.365 . S
C89 C92 1.405 . S
C89 C96 1.448 . S
N90 C89 1.365 . S
N90 C93 1.319 . S
N90 Eu99 2.600 . S
C91 C93 1.397 . S
C91 C94 1.367 . S
C91 H111 0.931 . S
C92 C89 1.405 . S
C92 C94 1.403 . S
C92 C98 1.439 . S
C93 N90 1.319 . S
C93 C91 1.397 . S
C93 H104 0.930 . S
C94 C91 1.367 . S
C94 C92 1.403 . S
C94 H115 0.929 . S
C95 C96 1.430 1_565 S
C95 C97 1.387 . S
C95 C101 1.404 . S
C96 C89 1.448 . S
C96 C95 1.430 1_545 S
C96 N100 1.351 . S
C97 C95 1.387 . S
C97 C98 1.374 1_565 S
C97 H112 0.931 . S
C98 C92 1.439 . S
C98 C97 1.374 1_545 S
C98 H113 0.931 . S
Eu99 N90 2.600 . S
Eu99 N100 2.562 . S
Eu99 O134 2.335 1_655 S
Eu99 O137 2.372 . S
Eu99 O138 2.462 . S
Eu99 O139 2.373 . S
Eu99 O141 2.432 . S
Eu99 O142 2.291 1_655 S
Eu99 C163 2.787 . S
N100 C96 1.351 . S
N100 Eu99 2.562 . S
N100 C102 1.325 1_545 S
C101 C95 1.404 . S
C101 C103 1.366 . S
C101 H109 0.930 . S
C102 N100 1.325 1_565 S
C102 C103 1.416 . S
C102 H108 0.929 . S
C103 C101 1.366 . S
C103 C102 1.416 . S
C103 H105 0.930 . S
H104 C93 0.930 . S
H105 C103 0.930 . S
H106 C121 0.930 . S
H107 C128 0.930 . S
H108 C102 0.929 . S
H109 C101 0.930 . S
H110 C124 0.929 . S
H111 C91 0.931 . S
H112 C97 0.931 . S
H113 C98 0.931 . S
H114 C119 0.931 . S
H115 C94 0.929 . S
H116 C127 0.930 . S
N117 Eu88 2.600 . S
N117 C118 1.365 . S
N117 C121 1.319 . S
C118 N117 1.365 . S
C118 C120 1.405 . S
C118 C126 1.448 . S
C119 H114 0.931 . S
C119 C121 1.397 . S
C119 C122 1.367 . S
C120 C118 1.405 . S
C120 C122 1.403 . S
C120 C153 1.439 . S
C121 H106 0.930 . S
C121 N117 1.319 . S
C121 C119 1.397 . S
C122 C119 1.367 . S
C122 C120 1.403 . S
C122 H129 0.929 . S
N123 Eu88 2.562 . S
N123 C124 1.325 . S
N123 C126 1.351 . S
C124 H110 0.929 . S
C124 N123 1.325 . S
C124 C128 1.416 . S
C125 C126 1.430 . S
C125 C127 1.404 . S
C125 C154 1.387 . S
C126 C118 1.448 . S
C126 N123 1.351 . S
C126 C125 1.430 . S
C127 H116 0.930 . S
C127 C125 1.404 . S
C127 C128 1.366 . S
C128 H107 0.930 . S
C128 C124 1.416 . S
C128 C127 1.366 . S
H129 C122 0.929 . S
H130 C153 0.931 . S
H131 C154 0.931 . S
O132 Eu88 2.462 . S
O132 C152 1.252 . S
O133 Eu88 2.373 . S
O133 C144 1.249 . S
O134 Eu99 2.335 1_455 S
O134 C144 1.264 . S
O135 Eu88 2.432 . S
O135 C152 1.268 . S
O136 Eu88 2.291 . S
O136 C151 1.255 1_455 S
O137 Eu99 2.372 . S
O137 C151 1.257 . S
O138 Eu99 2.462 . S
O138 C163 1.252 . S
O139 Eu99 2.373 . S
O139 C155 1.249 . S
O140 Eu88 2.335 . S
O140 C155 1.264 1_455 S
O141 Eu99 2.432 . S
O141 C163 1.268 . S
O142 Eu99 2.291 1_455 S
O142 C162 1.255 . S
O143 Eu88 2.372 . S
O143 C162 1.257 . S
C144 O133 1.249 . S
C144 O134 1.264 . S
C145 C148 1.382 . S
C145 C150 1.390 . S
C145 C152 1.506 . S
C146 C147 1.398 . S
C146 C150 1.392 . S
C147 C146 1.398 . S
C147 C149 1.372 . S
C147 H164 0.931 . S
C148 C145 1.382 . S
C148 C149 1.390 . S
C148 H165 0.931 . S
C149 C147 1.372 . S
C149 C148 1.390 . S
C149 H166 0.929 . S
C150 C145 1.390 . S
C150 C146 1.392 . S
C150 H167 0.930 . S
C151 O136 1.255 1_655 S
C151 O137 1.257 . S
C152 Eu88 2.787 . S
C152 O132 1.252 . S
C152 O135 1.268 . S
C152 C145 1.506 . S
C153 C120 1.439 . S
C153 H130 0.931 . S
C153 C154 1.374 . S
C154 C125 1.387 . S
C154 H131 0.931 . S
C154 C153 1.374 . S
C155 O139 1.249 . S
C155 O140 1.264 1_655 S
C156 C159 1.382 . S
C156 C160 1.390 . S
C156 C163 1.506 . S
C157 C158 1.398 . S
C157 C160 1.392 . S
C158 C157 1.398 . S
C158 C161 1.372 . S
C158 H168 0.931 . S
C159 C156 1.382 . S
C159 C161 1.390 . S
C159 H169 0.931 . S
C160 C156 1.390 . S
C160 C157 1.392 . S
C160 H170 0.930 . S
C161 C158 1.372 . S
C161 C159 1.390 . S
C161 H171 0.929 . S
C162 O142 1.255 . S
C162 O143 1.257 . S
C163 Eu99 2.787 . S
C163 O138 1.252 . S
C163 O141 1.268 . S
C163 C156 1.506 . S
H164 C147 0.931 . S
H165 C148 0.931 . S
H166 C149 0.929 . S
H167 C150 0.930 . S
H168 C158 0.931 . S
H169 C159 0.931 . S
H170 C160 0.930 . S
H171 C161 0.929 . S
Eu172 N201 2.600 . S
Eu172 N207 2.562 . S
Eu172 O216 2.462 . S
Eu172 O217 2.373 . S
Eu172 O219 2.432 . S
Eu172 O220 2.291 . S
Eu172 O224 2.335 . S
Eu172 O227 2.372 . S
Eu172 C236 2.787 . S
C173 N174 1.365 . S
C173 C176 1.405 . S
C173 C180 1.448 . S
N174 C173 1.365 . S
N174 C177 1.319 . S
N174 Eu183 2.600 . S
C175 C177 1.397 . S
C175 C178 1.367 . S
C175 H195 0.931 . S
C176 C173 1.405 . S
C176 C178 1.403 . S
C176 C182 1.439 . S
C177 N174 1.319 . S
C177 C175 1.397 . S
C177 H188 0.930 . S
C178 C175 1.367 . S
C178 C176 1.403 . S
C178 H199 0.929 . S
C179 C180 1.430 . S
C179 C181 1.387 . S
C179 C185 1.404 . S
C180 C173 1.448 . S
C180 C179 1.430 . S
C180 N184 1.351 . S
C181 C179 1.387 . S
C181 C182 1.374 . S
C181 H196 0.931 . S
C182 C176 1.439 . S
C182 C181 1.374 . S
C182 H197 0.931 . S
Eu183 N174 2.600 . S
Eu183 N184 2.562 . S
Eu183 O218 2.335 . S
Eu183 O221 2.372 . S
Eu183 O222 2.462 . S
Eu183 O223 2.373 . S
Eu183 O225 2.432 . S
Eu183 O226 2.291 . S
Eu183 C247 2.787 . S
N184 C180 1.351 . S
N184 Eu183 2.562 . S
N184 C186 1.325 . S
C185 C179 1.404 . S
C185 C187 1.366 . S
C185 H193 0.930 . S
C186 N184 1.325 . S
C186 C187 1.416 . S
C186 H192 0.929 . S
C187 C185 1.366 . S
C187 C186 1.416 . S
C187 H189 0.930 . S
H188 C177 0.930 . S
H189 C187 0.930 . S
H190 C205 0.930 . S
H191 C212 0.930 . S
H192 C186 0.929 . S
H193 C185 0.930 . S
H194 C208 0.929 . S
H195 C175 0.931 . S
H196 C181 0.931 . S
H197 C182 0.931 . S
H198 C203 0.931 . S
H199 C178 0.929 . S
H200 C211 0.930 . S
N201 Eu172 2.600 . S
N201 C202 1.365 . S
N201 C205 1.319 . S
C202 N201 1.365 . S
C202 C204 1.405 . S
C202 C210 1.448 . S
C203 H198 0.931 . S
C203 C205 1.397 . S
C203 C206 1.367 . S
C204 C202 1.405 . S
C204 C206 1.403 . S
C204 C237 1.439 . S
C205 H190 0.930 . S
C205 N201 1.319 . S
C205 C203 1.397 . S
C206 C203 1.367 . S
C206 C204 1.403 . S
C206 H213 0.929 . S
N207 Eu172 2.562 . S
N207 C208 1.325 . S
N207 C210 1.351 . S
C208 H194 0.929 . S
C208 N207 1.325 . S
C208 C212 1.416 . S
C209 C210 1.430 . S
C209 C211 1.404 . S
C209 C238 1.387 . S
C210 C202 1.448 . S
C210 N207 1.351 . S
C210 C209 1.430 . S
C211 H200 0.930 . S
C211 C209 1.404 . S
C211 C212 1.366 . S
C212 H191 0.930 . S
C212 C208 1.416 . S
C212 C211 1.366 . S
H213 C206 0.929 . S
H214 C237 0.931 . S
H215 C238 0.931 . S
O216 Eu172 2.462 . S
O216 C236 1.252 . S
O217 Eu172 2.373 . S
O217 C228 1.249 . S
O218 Eu183 2.335 . S
O218 C228 1.264 . S
O219 Eu172 2.432 . S
O219 C236 1.268 . S
O220 Eu172 2.291 . S
O220 C235 1.255 . S
O221 Eu183 2.372 . S
O221 C235 1.257 . S
O222 Eu183 2.462 . S
O222 C247 1.252 . S
O223 Eu183 2.373 . S
O223 C239 1.249 . S
O224 Eu172 2.335 . S
O224 C239 1.264 . S
O225 Eu183 2.432 . S
O225 C247 1.268 . S
O226 Eu183 2.291 . S
O226 C246 1.255 . S
O227 Eu172 2.372 . S
O227 C246 1.257 . S
C228 O217 1.249 . S
C228 O218 1.264 . S
C229 C232 1.382 . S
C229 C234 1.390 . S
C229 C236 1.506 . S
C230 C231 1.398 . S
C230 C234 1.392 . S
C231 C230 1.398 . S
C231 C233 1.372 . S
C231 H248 0.931 . S
C232 C229 1.382 . S
C232 C233 1.390 . S
C232 H249 0.931 . S
C233 C231 1.372 . S
C233 C232 1.390 . S
C233 H250 0.929 . S
C234 C229 1.390 . S
C234 C230 1.392 . S
C234 H251 0.930 . S
C235 O220 1.255 . S
C235 O221 1.257 . S
C236 Eu172 2.787 . S
C236 O216 1.252 . S
C236 O219 1.268 . S
C236 C229 1.506 . S
C237 C204 1.439 . S
C237 H214 0.931 . S
C237 C238 1.374 . S
C238 C209 1.387 . S
C238 H215 0.931 . S
C238 C237 1.374 . S
C239 O223 1.249 . S
C239 O224 1.264 . S
C240 C243 1.382 . S
C240 C244 1.390 . S
C240 C247 1.506 . S
C241 C242 1.398 . S
C241 C244 1.392 . S
C242 C241 1.398 . S
C242 C245 1.372 . S
C242 H252 0.931 . S
C243 C240 1.382 . S
C243 C245 1.390 . S
C243 H253 0.931 . S
C244 C240 1.390 . S
C244 C241 1.392 . S
C244 H254 0.930 . S
C245 C242 1.372 . S
C245 C243 1.390 . S
C245 H255 0.929 . S
C246 O226 1.255 . S
C246 O227 1.257 . S
C247 Eu183 2.787 . S
C247 O222 1.252 . S
C247 O225 1.268 . S
C247 C240 1.506 . S
H248 C231 0.931 . S
H249 C232 0.931 . S
H250 C233 0.929 . S
H251 C234 0.930 . S
H252 C242 0.931 . S
H253 C243 0.931 . S
H254 C244 0.930 . S
H255 C245 0.929 . S
Eu256 N285 2.600 . S
Eu256 N291 2.562 . S
Eu256 O300 2.462 . S
Eu256 O301 2.373 . S
Eu256 O303 2.432 . S
Eu256 O304 2.294 . S
Eu256 O308 2.322 1_455 S
Eu256 O311 2.372 . S
Eu256 C320 2.787 . S
C257 N258 1.365 . S
C257 C260 1.405 . S
C257 C264 1.448 . S
N258 C257 1.365 . S
N258 C261 1.319 . S
N258 Eu267 2.600 . S
C259 C261 1.397 . S
C259 C262 1.367 . S
C259 H279 0.931 . S
C260 C257 1.405 . S
C260 C262 1.403 . S
C260 C266 1.439 . S
C261 N258 1.319 . S
C261 C259 1.397 . S
C261 H272 0.930 . S
C262 C259 1.367 . S
C262 C260 1.403 . S
C262 H283 0.929 . S
C263 C264 1.430 . S
C263 C265 1.387 . S
C263 C269 1.404 . S
C264 C257 1.448 . S
C264 C263 1.430 . S
C264 N268 1.351 . S
C265 C263 1.387 . S
C265 C266 1.374 . S
C265 H280 0.931 . S
C266 C260 1.439 . S
C266 C265 1.374 . S
C266 H281 0.931 . S
Eu267 N258 2.600 . S
Eu267 N268 2.562 . S
Eu267 O302 2.335 1_655 S
Eu267 O305 2.372 . S
Eu267 O306 2.462 . S
Eu267 O307 2.373 . S
Eu267 O309 2.432 . S
Eu267 O310 2.291 1_655 S
Eu267 C331 2.787 . S
N268 C264 1.351 . S
N268 Eu267 2.562 . S
N268 C270 1.325 . S
C269 C263 1.404 . S
C269 C271 1.366 . S
C269 H277 0.930 . S
C270 N268 1.325 . S
C270 C271 1.416 . S
C270 H276 0.929 . S
C271 C269 1.366 . S
C271 C270 1.416 . S
C271 H273 0.930 . S
H272 C261 0.930 . S
H273 C271 0.930 . S
H274 C289 0.930 . S
H275 C296 0.930 . S
H276 C270 0.929 . S
H277 C269 0.930 . S
H278 C292 0.929 . S
H279 C259 0.931 . S
H280 C265 0.931 . S
H281 C266 0.931 . S
H282 C287 0.931 . S
H283 C262 0.929 . S
H284 C295 0.930 . S
N285 Eu256 2.600 . S
N285 C286 1.365 . S
N285 C289 1.319 . S
C286 N285 1.365 . S
C286 C288 1.405 . S
C286 C294 1.448 . S
C287 H282 0.931 . S
C287 C289 1.397 . S
C287 C290 1.367 . S
C288 C286 1.405 . S
C288 C290 1.403 . S
C288 C321 1.439 . S
C289 H274 0.930 . S
C289 N285 1.319 . S
C289 C287 1.397 . S
C290 C287 1.367 . S
C290 C288 1.403 . S
C290 H297 0.929 . S
N291 Eu256 2.562 . S
N291 C292 1.325 1_565 S
N291 C294 1.351 . S
C292 H278 0.929 . S
C292 N291 1.325 1_545 S
C292 C296 1.416 . S
C293 C294 1.430 1_545 S
C293 C295 1.404 . S
C293 C322 1.387 . S
C294 C286 1.448 . S
C294 N291 1.351 . S
C294 C293 1.430 1_565 S
C295 H284 0.930 . S
C295 C293 1.404 . S
C295 C296 1.366 . S
C296 H275 0.930 . S
C296 C292 1.416 . S
C296 C295 1.366 . S
H297 C290 0.929 . S
H298 C321 0.931 . S
H299 C322 0.931 . S
O300 Eu256 2.462 . S
O300 C320 1.252 . S
O301 Eu256 2.373 . S
O301 C312 1.249 . S
O302 Eu267 2.335 1_455 S
O302 C312 1.264 . S
O303 Eu256 2.432 . S
O303 C320 1.268 . S
O304 Eu256 2.294 . S
O304 C319 1.251 1_455 S
O305 Eu267 2.372 . S
O305 C319 1.257 . S
O306 Eu267 2.462 . S
O306 C331 1.252 . S
O307 Eu267 2.373 . S
O307 C323 1.249 . S
O308 Eu256 2.322 1_655 S
O308 C323 1.280 . S
O309 Eu267 2.432 . S
O309 C331 1.268 . S
O310 Eu267 2.291 1_455 S
O310 C330 1.255 . S
O311 Eu256 2.372 . S
O311 C330 1.257 . S
C312 O301 1.249 . S
C312 O302 1.264 . S
C313 C316 1.382 . S
C313 C318 1.390 . S
C313 C320 1.506 . S
C314 C315 1.398 . S
C314 C318 1.392 . S
C315 C314 1.398 . S
C315 C317 1.372 . S
C315 H332 0.931 . S
C316 C313 1.382 . S
C316 C317 1.390 . S
C316 H333 0.931 . S
C317 C315 1.372 . S
C317 C316 1.390 . S
C317 H334 0.929 . S
C318 C313 1.390 . S
C318 C314 1.392 . S
C318 H335 0.930 . S
C319 O304 1.251 1_655 S
C319 O305 1.257 . S
C320 Eu256 2.787 . S
C320 O300 1.252 . S
C320 O303 1.268 . S
C320 C313 1.506 . S
C321 C288 1.439 . S
C321 H298 0.931 . S
C321 C322 1.374 1_565 S
C322 C293 1.387 . S
C322 H299 0.931 . S
C322 C321 1.374 1_545 S
C323 O307 1.249 . S
C323 O308 1.280 . S
C324 C327 1.382 . S
C324 C328 1.390 . S
C324 C331 1.506 . S
C325 C326 1.398 . S
C325 C328 1.392 . S
C326 C325 1.398 . S
C326 C329 1.372 . S
C326 H336 0.931 . S
C327 C324 1.382 . S
C327 C329 1.390 . S
C327 H337 0.931 . S
C328 C324 1.390 . S
C328 C325 1.392 . S
C328 H338 0.930 . S
C329 C326 1.372 . S
C329 C327 1.390 . S
C329 H339 0.929 . S
C330 O310 1.255 . S
C330 O311 1.257 . S
C331 Eu267 2.787 . S
C331 O306 1.252 . S
C331 O309 1.268 . S
C331 C324 1.506 . S
H332 C315 0.931 . S
H333 C316 0.931 . S
H334 C317 0.929 . S
H335 C318 0.930 . S
H336 C326 0.931 . S
H337 C327 0.931 . S
H338 C328 0.930 . S
H339 C329 0.929 . S
Eu340 N369 2.600 . S
Eu340 N375 2.562 . S
Eu340 O384 2.462 . S
Eu340 O385 2.373 . S
Eu340 O387 2.432 . S
Eu340 O388 2.291 . S
Eu340 O392 2.335 . S
Eu340 O395 2.372 . S
Eu340 C404 2.787 . S
C341 N342 1.365 . S
C341 C344 1.405 . S
C341 C348 1.448 . S
N342 C341 1.365 . S
N342 C345 1.319 . S
N342 Eu351 2.600 . S
C343 C345 1.397 . S
C343 C346 1.367 . S
C343 H363 0.931 . S
C344 C341 1.405 . S
C344 C346 1.403 . S
C344 C350 1.439 . S
C345 N342 1.319 . S
C345 C343 1.397 . S
C345 H356 0.930 . S
C346 C343 1.367 . S
C346 C344 1.403 . S
C346 H367 0.929 . S
C347 C348 1.430 . S
C347 C349 1.387 . S
C347 C353 1.404 . S
C348 C341 1.448 . S
C348 C347 1.430 . S
C348 N352 1.351 . S
C349 C347 1.387 . S
C349 C350 1.374 . S
C349 H364 0.931 . S
C350 C344 1.439 . S
C350 C349 1.374 . S
C350 H365 0.931 . S
Eu351 N342 2.600 . S
Eu351 N352 2.562 . S
Eu351 O386 2.335 . S
Eu351 O389 2.372 . S
Eu351 O390 2.462 . S
Eu351 O391 2.373 . S
Eu351 O393 2.432 . S
Eu351 O394 2.291 . S
Eu351 C415 2.787 . S
N352 C348 1.351 . S
N352 Eu351 2.562 . S
N352 C354 1.325 . S
C353 C347 1.404 . S
C353 C355 1.366 . S
C353 H361 0.930 . S
C354 N352 1.325 . S
C354 C355 1.416 . S
C354 H360 0.929 . S
C355 C353 1.366 . S
C355 C354 1.416 . S
C355 H357 0.930 . S
H356 C345 0.930 . S
H357 C355 0.930 . S
H358 C373 0.930 . S
H359 C380 0.930 . S
H360 C354 0.929 . S
H361 C353 0.930 . S
H362 C376 0.929 . S
H363 C343 0.931 . S
H364 C349 0.931 . S
H365 C350 0.931 . S
H366 C371 0.931 . S
H367 C346 0.929 . S
H368 C379 0.930 . S
N369 Eu340 2.600 . S
N369 C370 1.365 . S
N369 C373 1.319 . S
C370 N369 1.365 . S
C370 C372 1.405 . S
C370 C378 1.448 . S
C371 H366 0.931 . S
C371 C373 1.397 . S
C371 C374 1.367 . S
C372 C370 1.405 . S
C372 C374 1.403 . S
C372 C405 1.439 . S
C373 H358 0.930 . S
C373 N369 1.319 . S
C373 C371 1.397 . S
C374 C371 1.367 . S
C374 C372 1.403 . S
C374 H381 0.929 . S
N375 Eu340 2.562 . S
N375 C376 1.325 . S
N375 C378 1.351 . S
C376 H362 0.929 . S
C376 N375 1.325 . S
C376 C380 1.416 . S
C377 C378 1.430 . S
C377 C379 1.404 . S
C377 C406 1.387 . S
C378 C370 1.448 . S
C378 N375 1.351 . S
C378 C377 1.430 . S
C379 H368 0.930 . S
C379 C377 1.404 . S
C379 C380 1.366 . S
C380 H359 0.930 . S
C380 C376 1.416 . S
C380 C379 1.366 . S
H381 C374 0.929 . S
H382 C405 0.931 . S
H383 C406 0.931 . S
O384 Eu340 2.462 . S
O384 C404 1.252 . S
O385 Eu340 2.373 . S
O385 C396 1.249 . S
O386 Eu351 2.335 . S
O386 C396 1.264 . S
O387 Eu340 2.432 . S
O387 C404 1.268 . S
O388 Eu340 2.291 . S
O388 C403 1.255 . S
O389 Eu351 2.372 . S
O389 C403 1.257 . S
O390 Eu351 2.462 . S
O390 C415 1.252 . S
O391 Eu351 2.373 . S
O391 C407 1.249 . S
O392 Eu340 2.335 . S
O392 C407 1.264 . S
O393 Eu351 2.432 . S
O393 C415 1.268 . S
O394 Eu351 2.291 . S
O394 C414 1.255 . S
O395 Eu340 2.372 . S
O395 C414 1.257 . S
C396 O385 1.249 . S
C396 O386 1.264 . S
C397 C400 1.382 . S
C397 C402 1.390 . S
C397 C404 1.506 . S
C398 C399 1.398 . S
C398 C402 1.392 . S
C399 C398 1.398 . S
C399 C401 1.372 . S
C399 H416 0.931 . S
C400 C397 1.382 . S
C400 C401 1.390 . S
C400 H417 0.931 . S
C401 C399 1.372 . S
C401 C400 1.390 . S
C401 H418 0.929 . S
C402 C397 1.390 . S
C402 C398 1.392 . S
C402 H419 0.930 . S
C403 O388 1.255 . S
C403 O389 1.257 . S
C404 Eu340 2.787 . S
C404 O384 1.252 . S
C404 O387 1.268 . S
C404 C397 1.506 . S
C405 C372 1.439 . S
C405 H382 0.931 . S
C405 C406 1.374 . S
C406 C377 1.387 . S
C406 H383 0.931 . S
C406 C405 1.374 . S
C407 O391 1.249 . S
C407 O392 1.264 . S
C408 C411 1.382 . S
C408 C412 1.390 . S
C408 C415 1.506 . S
C409 C410 1.398 . S
C409 C412 1.392 . S
C410 C409 1.398 . S
C410 C413 1.372 . S
C410 H420 0.931 . S
C411 C408 1.382 . S
C411 C413 1.390 . S
C411 H421 0.931 . S
C412 C408 1.390 . S
C412 C409 1.392 . S
C412 H422 0.930 . S
C413 C410 1.372 . S
C413 C411 1.390 . S
C413 H423 0.929 . S
C414 O394 1.255 . S
C414 O395 1.257 . S
C415 Eu351 2.787 . S
C415 O390 1.252 . S
C415 O393 1.268 . S
C415 C408 1.506 . S
H416 C399 0.931 . S
H417 C400 0.931 . S
H418 C401 0.929 . S
H419 C402 0.930 . S
H420 C410 0.931 . S
H421 C411 0.931 . S
H422 C412 0.930 . S
H423 C413 0.929 . S
C424 C425 1.387 . S
C424 H428 0.950 . S
C424 C433 1.390 . S
C425 C424 1.387 . S
C425 C427 1.387 . S
H426 C433 0.950 . S
C427 C425 1.387 . S
C427 C429 1.390 . S
C427 H431 0.950 . S
H428 C424 0.950 . S
C429 C427 1.390 . S
C429 C430 1.387 . S
C429 H432 0.950 . S
C430 C429 1.387 . S
C430 C433 1.387 . S
H431 C427 0.950 . S
H432 C429 0.950 . S
C433 C424 1.390 . S
C433 H426 0.950 . S
C433 C430 1.387 . S
C434 C435 1.387 . S
C434 H438 0.950 . S
C434 C443 1.390 . S
C435 C434 1.387 . S
C435 C437 1.387 . S
H436 C443 0.950 . S
C437 C435 1.387 . S
C437 C439 1.390 . S
C437 H441 0.950 . S
H438 C434 0.950 . S
C439 C437 1.390 . S
C439 C440 1.387 . S
C439 H442 0.950 . S
C440 C439 1.387 . S
C440 C443 1.387 . S
H441 C437 0.950 . S
H442 C439 0.950 . S
C443 C434 1.390 . S
C443 H436 0.950 . S
C443 C440 1.387 . S
C444 C445 1.387 . S
C444 H448 0.950 . S
C444 C453 1.390 . S
C445 C444 1.387 . S
C445 C447 1.387 . S
H446 C453 0.950 . S
C447 C445 1.387 . S
C447 C449 1.390 . S
C447 H451 0.950 . S
H448 C444 0.950 . S
C449 C447 1.390 . S
C449 C450 1.387 . S
C449 H452 0.950 . S
C450 C449 1.387 . S
C450 C453 1.387 . S
H451 C447 0.950 . S
H452 C449 0.950 . S
C453 C444 1.390 . S
C453 H446 0.950 . S
C453 C450 1.387 . S
C454 C455 1.387 . S
C454 H458 0.950 . S
C454 C463 1.390 . S
C455 C454 1.387 . S
C455 C457 1.387 . S
H456 C463 0.950 . S
C457 C455 1.387 . S
C457 C459 1.390 1_565 S
C457 H461 0.950 1_565 S
H458 C454 0.950 . S
C459 C457 1.390 1_545 S
C459 C460 1.387 . S
C459 H462 0.950 . S
C460 C459 1.387 . S
C460 C463 1.387 1_545 S
H461 C457 0.950 1_545 S
H462 C459 0.950 . S
C463 C454 1.390 . S
C463 H456 0.950 . S
C463 C460 1.387 1_565 S
C464 C465 1.387 . S
C464 H468 0.950 . S
C464 C473 1.390 1_545 S
C465 C464 1.387 . S
C465 C467 1.387 . S
H466 C473 0.950 . S
C467 C465 1.387 . S
C467 C469 1.390 . S
C467 H471 0.950 . S
H468 C464 0.950 . S
C469 C467 1.390 . S
C469 C470 1.390 1_545 S
C469 H472 0.950 . S
C470 C469 1.390 1_565 S
C470 C473 1.387 . S
H471 C467 0.950 . S
H472 C469 0.950 . S
C473 C464 1.390 1_565 S
C473 H466 0.950 . S
C473 C470 1.387 . S
C474 C475 1.387 . S
C474 H478 0.950 . S
C474 C483 1.390 . S
C475 C474 1.387 . S
C475 C477 1.387 . S
H476 C483 0.950 . S
C477 C475 1.387 . S
C477 C479 1.390 . S
C477 H481 0.950 . S
H478 C474 0.950 . S
C479 C477 1.390 . S
C479 C480 1.387 . S
C479 H482 0.950 . S
C480 C479 1.387 . S
C480 C483 1.387 . S
H481 C477 0.950 . S
H482 C479 0.950 . S
C483 C474 1.390 . S
C483 H476 0.950 . S
C483 C480 1.387 . S
C484 C485 1.387 . S
C484 H488 0.950 . S
C484 C493 1.390 . S
C485 C484 1.387 . S
C485 C487 1.387 . S
H486 C493 0.950 . S
C487 C485 1.387 . S
C487 C489 1.390 . S
C487 H491 0.950 . S
H488 C484 0.950 . S
C489 C487 1.390 . S
C489 C490 1.387 . S
C489 H492 0.950 . S
C490 C489 1.387 . S
C490 C493 1.387 . S
H491 C487 0.950 . S
H492 C489 0.950 . S
C493 C484 1.390 . S
C493 H486 0.950 . S
C493 C490 1.387 . S
C494 C495 1.387 . S
C494 H498 0.950 1_545 S
C494 C503 1.390 1_545 S
C495 C494 1.387 . S
C495 C497 1.387 . S
H496 C503 0.950 . S
C497 C495 1.387 . S
C497 C499 1.390 . S
C497 H501 0.950 . S
H498 C494 0.950 1_565 S
C499 C497 1.390 . S
C499 C500 1.366 1_545 S
C499 H502 0.950 . S
C500 C499 1.366 1_565 S
C500 C503 1.396 . S
H501 C497 0.950 . S
H502 C499 0.950 . S
C503 C494 1.390 1_565 S
C503 H496 0.950 . S
C503 C500 1.396 . S
C504 C505 1.387 . S
C504 H508 0.950 . S
C504 C513 1.390 1_556 S
C505 C504 1.387 . S
C505 C507 1.387 . S
H506 C513 0.950 . S
C507 C505 1.387 . S
C507 C509 1.390 1_556 S
C507 H511 0.950 . S
H508 C504 0.950 . S
C509 C507 1.390 1_554 S
C509 C510 1.387 . S
C509 H512 0.950 . S
C510 C509 1.387 . S
C510 C513 1.387 . S
H511 C507 0.950 . S
H512 C509 0.950 . S
C513 C504 1.390 1_554 S
C513 H506 0.950 . S
C513 C510 1.387 . S
C514 C515 1.387 . S
C514 H518 0.950 . S
C514 C523 1.390 . S
C515 C514 1.387 . S
C515 C517 1.387 . S
H516 C523 0.950 . S
C517 C515 1.387 . S
C517 C519 1.390 . S
C517 H521 0.950 . S
H518 C514 0.950 . S
C519 C517 1.390 . S
C519 C520 1.387 . S
C519 H522 0.950 . S
C520 C519 1.387 . S
C520 C523 1.387 . S
H521 C517 0.950 . S
H522 C519 0.950 . S
C523 C514 1.390 . S
C523 H516 0.950 . S
C523 C520 1.387 . S
C524 C525 1.387 . S
C524 H528 0.950 . S
C524 C533 1.390 1_554 S
C525 C524 1.387 . S
C525 C527 1.387 . S
H526 C533 0.950 . S
C527 C525 1.387 . S
C527 C529 1.390 1_554 S
C527 H531 0.950 . S
H528 C524 0.950 . S
C529 C527 1.390 1_556 S
C529 C530 1.387 . S
C529 H532 0.950 . S
C530 C529 1.387 . S
C530 C533 1.387 . S
H531 C527 0.950 . S
H532 C529 0.950 . S
C533 C524 1.390 1_556 S
C533 H526 0.950 . S
C533 C530 1.387 . S
C534 C535 1.387 . S
C534 H538 0.950 . S
C534 C543 1.390 . S
C535 C534 1.387 . S
C535 C537 1.387 . S
H536 C543 0.950 . S
C537 C535 1.387 . S
C537 C539 1.390 . S
C537 H541 0.950 . S
H538 C534 0.950 . S
C539 C537 1.390 . S
C539 C540 1.387 . S
C539 H542 0.950 . S
C540 C539 1.387 . S
C540 C543 1.387 . S
H541 C537 0.950 . S
H542 C539 0.950 . S
C543 C534 1.390 . S
C543 H536 0.950 . S
C543 C540 1.387 . S
C544 C545 1.387 . S
C544 H548 0.950 . S
C544 C553 1.390 1_554 S
C545 C544 1.387 . S
C545 C547 1.387 . S
H546 C553 0.950 . S
C547 C545 1.387 . S
C547 C549 1.390 1_554 S
C547 H551 0.950 . S
H548 C544 0.950 . S
C549 C547 1.390 1_556 S
C549 C550 1.387 . S
C549 H552 0.950 . S
C550 C549 1.387 . S
C550 C553 1.387 . S
H551 C547 0.950 . S
H552 C549 0.950 . S
C553 C544 1.390 1_556 S
C553 H546 0.950 . S
C553 C550 1.387 . S
C554 C555 1.387 . S
C554 H558 0.950 . S
C554 C563 1.390 . S
C555 C554 1.387 . S
C555 C557 1.387 . S
H556 C563 0.950 . S
C557 C555 1.387 . S
C557 C559 1.390 . S
C557 H561 0.950 . S
H558 C554 0.950 . S
C559 C557 1.390 . S
C559 C560 1.387 . S
C559 H562 0.950 . S
C560 C559 1.387 . S
C560 C563 1.387 . S
H561 C557 0.950 . S
H562 C559 0.950 . S
C563 C554 1.390 . S
C563 H556 0.950 . S
C563 C560 1.387 . S
C564 C565 1.387 . S
C564 H568 0.950 . S
C564 C573 1.390 1_556 S
C565 C564 1.387 . S
C565 C567 1.387 . S
H566 C573 0.950 . S
C567 C565 1.387 . S
C567 C569 1.376 1_556 S
C567 H571 0.950 . S
H568 C564 0.950 . S
C569 C567 1.376 1_554 S
C569 C570 1.398 . S
C569 H572 0.954 . S
C570 C569 1.398 . S
C570 C573 1.387 . S
H571 C567 0.950 . S
H572 C569 0.954 . S
C573 C564 1.390 1_554 S
C573 H566 0.950 . S
C573 C570 1.387 . S
C574 C575 1.387 . S
C574 H578 0.950 . S
C574 C583 1.390 . S
C575 C574 1.387 . S
C575 C577 1.387 . S
H576 C583 0.950 . S
C577 C575 1.387 . S
C577 C579 1.390 . S
C577 H581 0.950 . S
H578 C574 0.950 . S
C579 C577 1.390 . S
C579 C580 1.387 . S
C579 H582 0.950 . S
C580 C579 1.387 . S
C580 C583 1.387 . S
H581 C577 0.950 . S
H582 C579 0.950 . S
C583 C574 1.390 . S
C583 H576 0.950 . S
C583 C580 1.387 . S
C584 C585 1.387 . S
C584 H588 0.950 . S
C584 C593 1.390 . S
C585 C584 1.387 . S
C585 C587 1.387 . S
H586 C593 0.950 . S
C587 C585 1.387 . S
C587 C589 1.390 . S
C587 H591 0.950 . S
H588 C584 0.950 . S
C589 C587 1.390 . S
C589 C590 1.387 . S
C589 H592 0.950 . S
C590 C589 1.387 . S
C590 C593 1.387 . S
H591 C587 0.950 . S
H592 C589 0.950 . S
C593 C584 1.390 . S
C593 H586 0.950 . S
C593 C590 1.387 . S
C594 C595 1.387 . S
C594 H598 0.950 . S
C594 C603 1.390 . S
C595 C594 1.387 . S
C595 C597 1.387 . S
H596 C603 0.950 . S
C597 C595 1.387 . S
C597 C599 1.390 . S
C597 H601 0.950 . S
H598 C594 0.950 . S
C599 C597 1.390 . S
C599 C600 1.387 . S
C599 H602 0.950 . S
C600 C599 1.387 . S
C600 C603 1.387 . S
H601 C597 0.950 . S
H602 C599 0.950 . S
C603 C594 1.390 . S
C603 H596 0.950 . S
C603 C600 1.387 . S
C604 C605 1.387 . S
C604 H608 0.950 . S
C604 C613 1.390 . S
C605 C604 1.387 . S
C605 C607 1.387 . S
H606 C613 0.950 . S
C607 C605 1.387 . S
C607 C609 1.390 . S
C607 H611 0.950 . S
H608 C604 0.950 . S
C609 C607 1.390 . S
C609 C610 1.387 . S
C609 H612 0.950 . S
C610 C609 1.387 . S
C610 C613 1.387 . S
H611 C607 0.950 . S
H612 C609 0.950 . S
C613 C604 1.390 . S
C613 H606 0.950 . S
C613 C610 1.387 . S
C614 C615 1.387 . S
C614 H618 0.950 . S
C614 C623 1.390 . S
C615 C614 1.387 . S
C615 C617 1.387 . S
H616 C623 0.950 . S
C617 C615 1.387 . S
C617 C619 1.390 . S
C617 H621 0.950 . S
H618 C614 0.950 . S
C619 C617 1.390 . S
C619 C620 1.387 . S
C619 H622 0.950 . S
C620 C619 1.387 . S
C620 C623 1.387 . S
H621 C617 0.950 . S
H622 C619 0.950 . S
C623 C614 1.390 . S
C623 H616 0.950 . S
C623 C620 1.387 . S
C624 C625 1.387 . S
C624 H628 0.950 . S
C624 C633 1.390 . S
C625 C624 1.387 . S
C625 C627 1.387 . S
H626 C633 0.950 . S
C627 C625 1.387 . S
C627 C629 1.390 . S
C627 H631 0.950 . S
H628 C624 0.950 . S
C629 C627 1.390 . S
C629 C630 1.387 . S
C629 H632 0.950 . S
C630 C629 1.387 . S
C630 C633 1.387 . S
H631 C627 0.950 . S
H632 C629 0.950 . S
C633 C624 1.390 . S
C633 H626 0.950 . S
C633 C630 1.387 . S
C634 C635 1.387 . S
C634 H638 0.950 . S
C634 C643 1.390 . S
C635 C634 1.387 . S
C635 C637 1.387 . S
H636 C643 0.950 . S
C637 C635 1.387 . S
C637 C639 1.390 . S
C637 H641 0.950 . S
H638 C634 0.950 . S
C639 C637 1.390 . S
C639 C640 1.387 . S
C639 H642 0.950 . S
C640 C639 1.387 . S
C640 C643 1.387 . S
H641 C637 0.950 . S
H642 C639 0.950 . S
C643 C634 1.390 . S
C643 H636 0.950 . S
C643 C640 1.387 . S
C644 C645 1.387 . S
C644 H648 0.950 . S
C644 C653 1.390 . S
C645 C644 1.387 . S
C645 C647 1.387 . S
H646 C653 0.950 . S
C647 C645 1.387 . S
C647 C649 1.390 . S
C647 H651 0.950 . S
H648 C644 0.950 . S
C649 C647 1.390 . S
C649 C650 1.387 . S
C649 H652 0.950 . S
C650 C649 1.387 . S
C650 C653 1.387 . S
H651 C647 0.950 . S
H652 C649 0.950 . S
C653 C644 1.390 . S
C653 H646 0.950 . S
C653 C650 1.387 . S
C654 C655 1.387 . S
C654 H658 0.950 . S
C654 C663 1.390 . S
C655 C654 1.387 . S
C655 C657 1.387 . S
H656 C663 0.950 . S
C657 C655 1.387 . S
C657 C659 1.390 . S
C657 H661 0.950 . S
H658 C654 0.950 . S
C659 C657 1.390 . S
C659 C660 1.387 . S
C659 H662 0.950 . S
C660 C659 1.387 . S
C660 C663 1.387 . S
H661 C657 0.950 . S
H662 C659 0.950 . S
C663 C654 1.390 . S
C663 H656 0.950 . S
C663 C660 1.387 . S
C425 C71 1.657 . S
C430 C162 1.645 1_565 S
C440 C246 1.637 . S
C435 C81 1.636 . S
C450 C239 1.647 . S
C445 C49 1.653 . S
C455 C59 1.634 . S
C460 C155 1.629 . S
C470 C319 1.650 . S
C465 C27 1.658 . S
C480 C403 1.682 . S
C475 C38 1.690 . S
C485 C5 1.653 . S
C490 C396 1.650 . S
C495 C16 1.686 . S
C500 C312 1.701 . S
C510 C146 1.393 . S
C505 C15 1.554 . S
C520 C230 1.415 . S
C515 C4 1.573 . S
C530 C241 1.336 . S
C525 C37 1.555 . S
C540 C157 1.347 . S
C535 C26 1.573 . S
C550 C325 1.463 . S
C545 C60 1.602 . S
C555 C48 1.624 . S
C560 C409 1.464 . S
C570 C398 1.374 . S
C565 C82 1.601 . S
C575 C70 1.623 . S
C580 C314 1.389 . S
C590 C144 1.491 . S
C585 C10 1.481 . S
C600 C228 1.527 . S
C595 C21 1.518 . S
C605 C32 1.476 . S
C610 C235 1.458 . S
C620 C151 1.494 . S
C615 C43 1.513 . S
C630 C323 1.565 . S
C625 C54 1.546 . S
C635 C65 1.527 . S
C640 C407 1.529 . S
C645 C76 1.546 . S
C650 C414 1.541 . S
C655 C87 1.523 . S
C660 C330 1.507 . S
