# Generated by pormake.
# Topology rtl, (3,6)-cn, num edge types: 1
# Building blocks:
#     Node 0, Type 0, BuildingBlock: BELTOD_clean_linker_0, # of connection points: 3
#     Node 1, Type 0, BuildingBlock: BELTOD_clean_linker_0, # of connection points: 3
#     Node 2, Type 0, BuildingBlock: BELTOD_clean_linker_0, # of connection points: 3
#     Node 3, Type 0, BuildingBlock: BELTOD_clean_linker_0, # of connection points: 3
#     Node 4, Type 1, BuildingBlock: CIFDUS_clean_sbu_1, # of connection points: 6
#     Node 5, Type 1, BuildingBlock: CIFDUS_clean_sbu_1, # of connection points: 6
#     Edge 6, Type (0, 1), BuildingBlock: AJUNOK_clean_linker_0, # of connection points: 2
#     Edge 7, Type (0, 1), BuildingBlock: AJUNOK_clean_linker_0, # of connection points: 2
#     Edge 8, Type (0, 1), BuildingBlock: AJUNOK_clean_linker_0, # of connection points: 2
#     Edge 9, Type (0, 1), BuildingBlock: AJUNOK_clean_linker_0, # of connection points: 2
#     Edge 10, Type (0, 1), BuildingBlock: AJUNOK_clean_linker_0, # of connection points: 2
#     Edge 11, Type (0, 1), BuildingBlock: AJUNOK_clean_linker_0, # of connection points: 2
#     Edge 12, Type (0, 1), BuildingBlock: AJUNOK_clean_linker_0, # of connection points: 2
#     Edge 13, Type (0, 1), BuildingBlock: AJUNOK_clean_linker_0, # of connection points: 2
#     Edge 14, Type (0, 1), BuildingBlock: AJUNOK_clean_linker_0, # of connection points: 2
#     Edge 15, Type (0, 1), BuildingBlock: AJUNOK_clean_linker_0, # of connection points: 2
#     Edge 16, Type (0, 1), BuildingBlock: AJUNOK_clean_linker_0, # of connection points: 2
#     Edge 17, Type (0, 1), BuildingBlock: AJUNOK_clean_linker_0, # of connection points: 2
# Relax obj value: 0.026
# Max RMSD: 0.063
# Mean RMSD: 0.044
data_MOF--net-rtl--node1-CIFDUS_clean_sbu_1--node2-BELTOD_clean_linker_0--edge1-AJUNOK_clean_linker_0
_symmetry_space_group_name_H-M    P1
_symmetry_Int_Tables_number       1
_symmetry_cell_setting            triclinic
loop_
_symmetry_equiv_pos_as_xyz
'x, y, z'
_cell_length_a     27.035713
_cell_length_b     30.320785
_cell_length_c     20.650387
_cell_angle_alpha  89.281782
_cell_angle_beta   98.596567
_cell_angle_gamma 89.571913
loop_
_atom_site_label
_atom_site_type_symbol
_atom_site_fract_x
_atom_site_fract_y
_atom_site_fract_z
_atom_type_partial_charge
P0 P 0.2922 0.89927 0.10947 0.0
H1 H 0.31063 0.88359 0.25107 0.0
H2 H 0.26541 0.90568 0.34016 0.0
H3 H 0.15488 0.97289 0.20001 0.0
H4 H 0.19988 0.95066 0.1113 0.0
H5 H 0.38072 0.8597 0.06963 0.0
H6 H 0.41475 0.78502 0.07654 0.0
H7 H 0.29599 0.74279 0.18111 0.0
H8 H 0.26071 0.81775 0.17122 0.0
H9 H 0.28519 0.96681 1.00652 0.0
H10 H 0.21421 0.84313 0.03783 0.0
O11 O 0.33952 0.93456 0.11224 0.0
H12 H 0.23297 0.97542 0.90024 0.0
H13 H 0.16181 0.85129 0.93005 0.0
C14 C 0.25775 0.91423 0.17432 0.0
C15 C 0.27643 0.90277 0.23948 0.0
C16 C 0.2509 0.91571 0.29037 0.0
C17 C 0.20698 0.94135 0.27702 0.0
C18 C 0.18913 0.95378 0.21184 0.0
C19 C 0.21444 0.9405 0.16097 0.0
C20 C 0.31876 0.8445 0.12093 0.0
C21 C 0.3625 0.83461 0.09518 0.0
C22 C 0.38241 0.79188 0.10014 0.0
C23 C 0.35906 0.75799 0.13128 0.0
C24 C 0.31533 0.76821 0.15774 0.0
C25 C 0.29513 0.81104 0.15211 0.0
C26 C 0.25413 0.90405 0.02982 0.0
C27 C 0.25875 0.94117 0.99021 0.0
C28 C 0.22892 0.94598 0.92916 0.0
C29 C 0.1934 0.9139 0.90633 0.0
C30 C 0.18861 0.87668 0.9463 0.0
C31 C 0.2187 0.87187 1.00768 0.0
P32 P 0.76848 0.65163 0.59403 0.0
H33 H 0.78387 0.67594 0.46149 0.0
H34 H 0.733 0.66806 0.35409 0.0
H35 H 0.61277 0.61557 0.44722 0.0
H36 H 0.66187 0.62735 0.55408 0.0
H37 H 0.85729 0.67802 0.68277 0.0
H38 H 0.90102 0.74826 0.70101 0.0
H39 H 0.79065 0.81013 0.55401 0.0
H40 H 0.74547 0.74105 0.54013 0.0
H41 H 0.71746 0.57162 0.62684 0.0
H42 H 0.7537 0.6979 0.71485 0.0
O43 O 0.81276 0.61365 0.5896 0.0
H44 H 0.67103 0.55254 0.7162 0.0
H45 H 0.71196 0.67738 0.8068 0.0
C46 C 0.72726 0.6516 0.51618 0.0
C47 C 0.74613 0.66361 0.45883 0.0
C48 C 0.71714 0.65858 0.39728 0.0
C49 C 0.66921 0.63983 0.39159 0.0
C50 C 0.64948 0.63003 0.44943 0.0
C51 C 0.67804 0.63616 0.51101 0.0
C52 C 0.7992 0.70397 0.60834 0.0
C53 C 0.84252 0.70691 0.65481 0.0
C54 C 0.86753 0.74705 0.66508 0.0
C55 C 0.85014 0.78478 0.62796 0.0
C56 C 0.80519 0.78195 0.58381 0.0
C57 C 0.77967 0.74211 0.57477 0.0
C58 C 0.73768 0.6367 0.6628 0.0
C59 C 0.71587 0.59505 0.66565 0.0
C60 C 0.68996 0.58395 0.71725 0.0
C61 C 0.68667 0.61391 0.76792 0.0
C62 C 0.71195 0.65426 0.76729 0.0
C63 C 0.73636 0.66588 0.71468 0.0
P64 P 0.84779 0.23823 1.00211 0.0
H65 H 0.87383 0.2472 0.87164 0.0
H66 H 0.87503 0.19599 0.78227 0.0
H67 H 0.80827 0.09601 0.89177 0.0
H68 H 0.80885 0.14765 0.98278 0.0
H69 H 0.82812 0.31509 0.07628 0.0
H70 H 0.75978 0.36892 0.06559 0.0
H71 H 0.68473 0.29997 0.89763 0.0
H72 H 0.75301 0.24543 0.9095 0.0
H73 H 0.93411 0.19143 0.07148 0.0
H74 H 0.78338 0.22044 0.10347 0.0
O75 O 0.89868 0.26859 0.99923 0.0
H76 H 0.95009 0.15216 0.17681 0.0
H77 H 0.79945 0.18179 0.20983 0.0
C78 C 0.84282 0.20073 0.93453 0.0
C79 C 0.85931 0.21431 0.87647 0.0
C80 C 0.85929 0.18507 0.82493 0.0
C81 C 0.84219 0.14161 0.82994 0.0
C82 C 0.82264 0.12892 0.88683 0.0
C83 C 0.82294 0.15836 0.93882 0.0
C84 C 0.79564 0.27623 0.99399 0.0
C85 C 0.79707 0.31164 0.03699 0.0
C86 C 0.75836 0.34284 0.03002 0.0
C87 C 0.71751 0.33948 0.97943 0.0
C88 C 0.71607 0.30377 0.93641 0.0
C89 C 0.75495 0.27244 0.9435 0.0
C90 C 0.85772 0.20908 0.07983 0.0
C91 C 0.90453 0.18956 0.10143 0.0
C92 C 0.91374 0.16742 0.16187 0.0
C93 C 0.87613 0.16398 0.20182 0.0
C94 C 0.82908 0.18357 0.17996 0.0
C95 C 0.81989 0.20579 0.11927 0.0
P96 P 0.33423 0.30386 0.50208 0.0
H97 H 0.3815 0.27052 0.63018 0.0
H98 H 0.39872 0.30444 0.73831 0.0
H99 H 0.32235 0.42325 0.65859 0.0
H100 H 0.30339 0.38848 0.552 0.0
H101 H 0.31283 0.2266 0.42007 0.0
H102 H 0.24222 0.17552 0.40434 0.0
H103 H 0.16969 0.25076 0.54036 0.0
H104 H 0.23936 0.30213 0.55413 0.0
H105 H 0.39253 0.38202 0.48568 0.0
H106 H 0.26411 0.3178 0.37896 0.0
O107 O 0.38574 0.27469 0.49527 0.0
H108 H 0.39513 0.4322 0.39314 0.0
H109 H 0.26676 0.36797 0.28603 0.0
C110 C 0.34241 0.32745 0.58271 0.0
C111 C 0.36821 0.30378 0.63628 0.0
C112 C 0.37835 0.3233 0.69791 0.0
C113 C 0.36292 0.36693 0.70684 0.0
C114 C 0.33485 0.38962 0.65354 0.0
C115 C 0.32435 0.36992 0.59226 0.0
C116 C 0.28186 0.26721 0.48989 0.0
C117 C 0.28159 0.23199 0.44639 0.0
C118 C 0.24125 0.20296 0.43722 0.0
C119 C 0.20063 0.20887 0.4715 0.0
C120 C 0.20023 0.2455 0.51275 0.0
C121 C 0.24037 0.27456 0.52152 0.0
C122 C 0.3282 0.34621 0.43945 0.0
C123 C 0.36388 0.37966 0.4432 0.0
C124 C 0.36497 0.40865 0.39046 0.0
C125 C 0.33065 0.40436 0.33264 0.0
C126 C 0.29326 0.37226 0.33028 0.0
C127 C 0.292 0.3434 0.38336 0.0
O128 O 0.96413 0.0521 0.47256 0.0
Mn129 Mn 0.00346 0.01492 0.55124 0.0
O130 O 0.92427 0.00418 0.40106 0.0
Mn131 Mn 0.95866 0.95495 0.43799 0.0
O132 O 0.04399 0.9785 0.63011 0.0
O133 O 0.04222 0.0692 0.57861 0.0
Mn134 Mn 0.04643 0.07775 0.66307 0.0
O135 O 0.94834 0.03156 0.60946 0.0
O136 O 0.08019 0.02875 0.70172 0.0
O137 O 0.05803 0.99844 0.49281 0.0
O138 O 0.02331 0.94836 0.42029 0.0
O139 O 0.0806 0.12356 0.6311 0.0
O140 O 0.98161 0.08433 0.67849 0.0
C141 C 0.93941 0.92435 0.52399 0.0
C142 C 0.93388 0.04342 0.41994 0.0
C143 C 0.07307 0.98913 0.68291 0.0
C144 C 0.06878 0.10401 0.5757 0.0
C145 C 0.94535 0.0602 0.65433 0.0
C146 C 0.06035 0.97109 0.44613 0.0
O147 O 0.96424 0.96053 0.52356 0.0
O148 O 0.92573 0.90755 0.46688 0.0
O149 O 0.53088 0.55955 0.12058 0.0
Mn150 Mn 0.49358 0.52111 0.04401 0.0
O151 O 0.56809 0.51044 0.19601 0.0
Mn152 Mn 0.54223 0.45992 0.1556 0.0
O153 O 0.45839 0.48074 0.9687 0.0
O154 O 0.44583 0.57205 0.01705 0.0
Mn155 Mn 0.43415 0.57443 0.93076 0.0
O156 O 0.54312 0.54431 0.98237 0.0
O157 O 0.40411 0.52259 0.90148 0.0
O158 O 0.44188 0.49933 0.1036 0.0
O159 O 0.47868 0.44467 0.16796 0.0
O160 O 0.39674 0.61937 0.95724 0.0
O161 O 0.49548 0.58595 0.90526 0.0
C162 C 0.57218 0.43715 0.07308 0.0
C163 C 0.55912 0.54983 0.17504 0.0
C164 C 0.42294 0.48523 0.92004 0.0
C165 C 0.41611 0.60594 0.01534 0.0
C166 C 0.5377 0.57029 0.93185 0.0
C167 C 0.44049 0.46758 0.14491 0.0
O168 O 0.54066 0.46972 0.07103 0.0
O169 O 0.58426 0.41835 0.12992 0.0
C170 C 0.11103 0.18859 0.46927 0.0
C171 C 0.16115 0.17504 0.47118 0.0
C172 C 0.07635 0.161 0.49312 0.0
C173 C 0.09067 0.119 0.51885 0.0
H174 H 0.09991 0.22226 0.45573 0.0
H175 H 0.04012 0.17463 0.49893 0.0
S176 S 0.21336 0.064 0.52031 0.0
N177 N 0.22051 0.11373 0.48966 0.0
N178 N 0.15477 0.06203 0.53394 0.0
C179 C 0.13817 0.10273 0.51188 0.0
C180 C 0.17372 0.1308 0.48807 0.0
C181 C 0.34021 0.67962 0.10205 0.0
C182 C 0.3758 0.71137 0.126 0.0
C183 C 0.35483 0.6402 0.07545 0.0
C184 C 0.40539 0.6311 0.07199 0.0
H185 H 0.30059 0.68714 0.09704 0.0
H186 H 0.32597 0.61923 0.05043 0.0
S187 S 0.51369 0.69775 0.14311 0.0
N188 N 0.4644 0.7265 0.15744 0.0
N189 N 0.49146 0.65287 0.10498 0.0
C190 C 0.44159 0.65946 0.10379 0.0
C191 C 0.42683 0.69963 0.13127 0.0
C192 C 0.85669 0.86723 0.6213 0.0
C193 C 0.8807 0.82561 0.62843 0.0
C194 C 0.88032 0.90396 0.59803 0.0
C195 C 0.92886 0.90035 0.58225 0.0
H196 H 0.81773 0.87042 0.62741 0.0
H197 H 0.85828 0.93358 0.5846 0.0
S198 S 0.01261 0.80277 0.60773 0.0
N199 N 0.95941 0.7857 0.62909 0.0
N200 N 0.00367 0.85538 0.58753 0.0
C201 C 0.95589 0.86126 0.59914 0.0
C202 C 0.9318 0.82356 0.62167 0.0
C203 C 0.62615 0.35268 0.97848 0.0
C204 C 0.67411 0.37016 0.97765 0.0
C205 C 0.58811 0.37825 0.99898 0.0
C206 C 0.59669 0.42205 0.0187 0.0
H207 H 0.61949 0.31786 0.97039 0.0
H208 H 0.55389 0.36205 1.00701 0.0
S209 S 0.71145 0.48617 1.01023 0.0
N210 N 0.72471 0.43645 0.98539 0.0
N211 N 0.65336 0.48391 0.02591 0.0
C212 C 0.64196 0.44153 1.00947 0.0
C213 C 0.68078 0.41563 0.98855 0.0
C214 C 0.1621 0.91735 0.36837 0.0
C215 C 0.17729 0.95185 0.32987 0.0
C216 C 0.12682 0.92468 0.41043 0.0
C217 C 0.10632 0.96688 0.41647 0.0
H218 H 0.17509 0.88391 0.36283 0.0
H219 H 0.11351 0.89671 0.43585 0.0
S220 S 0.13726 0.06906 0.33158 0.0
N221 N 0.17222 0.03046 0.30457 0.0
N222 N 0.10558 0.04403 0.38364 0.0
C223 C 0.12349 0.00218 0.3816 0.0
C224 C 0.15907 0.99469 0.3382 0.0
C225 C 0.65201 0.56218 0.84627 0.0
C226 C 0.65347 0.60464 0.81782 0.0
C227 C 0.61641 0.55161 0.88704 0.0
C228 C 0.58131 0.58318 0.90083 0.0
H229 H 0.67753 0.53658 0.83534 0.0
H230 H 0.61447 0.51796 0.90454 0.0
S231 S 0.57073 0.69951 0.8423 0.0
N232 N 0.61703 0.67858 0.8084 0.0
N233 N 0.5521 0.65914 0.88692 0.0
C234 C 0.58399 0.62619 0.87551 0.0
C235 C 0.61961 0.63684 0.83364 0.0
C236 C 0.93026 0.14406 0.30849 0.0
C237 C 0.88586 0.1379 0.26424 0.0
C238 C 0.94372 0.11555 0.36265 0.0
C239 C 0.91358 0.07947 0.37398 0.0
H240 H 0.95566 0.1702 0.29986 0.0
H241 H 0.9795 0.12012 0.3932 0.0
S242 S 0.79145 0.05122 0.27652 0.0
N243 N 0.8102 0.09482 0.23847 0.0
N244 N 0.83528 0.04153 0.33991 0.0
C245 C 0.86772 0.07458 0.33237 0.0
C246 C 0.85391 0.1037 0.27764 0.0
C247 C 0.34235 0.41703 0.79491 0.0
C248 C 0.37752 0.39004 0.77008 0.0
C249 C 0.35681 0.44536 0.84727 0.0
C250 C 0.40688 0.44741 0.87765 0.0
H251 H 0.30363 0.4177 0.77183 0.0
H252 H 0.32894 0.46738 0.86214 0.0
S253 S 0.51309 0.38146 0.83498 0.0
N254 N 0.46449 0.36563 0.78251 0.0
N255 N 0.49117 0.41812 0.88219 0.0
C256 C 0.44184 0.41843 0.85664 0.0
C257 C 0.42728 0.3899 0.80256 0.0
C258 C 0.58931 0.63045 0.31204 0.0
C259 C 0.64189 0.62598 0.32662 0.0
C260 C 0.56199 0.60965 0.25756 0.0
C261 C 0.58642 0.58418 0.2154 0.0
H262 H 0.56885 0.64819 0.34491 0.0
H263 H 0.52149 0.61082 0.25125 0.0
S264 S 0.72285 0.56454 0.22748 0.0
N265 N 0.71692 0.59558 0.29099 0.0
N266 N 0.6656 0.55812 0.1883 0.0
C267 C 0.63886 0.58218 0.2264 0.0
C268 C 0.66664 0.60274 0.28195 0.0
C269 C 0.84373 0.12253 0.7124 0.0
C270 C 0.8511 0.10931 0.77892 0.0
C271 C 0.86829 0.10079 0.66652 0.0
C272 C 0.90025 0.06473 0.68547 0.0
H273 H 0.823 0.15253 0.69711 0.0
H274 H 0.86702 0.11551 0.6182 0.0
S275 S 0.92359 0.01103 0.84918 0.0
N276 N 0.8864 0.05323 0.85832 0.0
N277 N 0.93115 0.012 0.77131 0.0
C278 C 0.90196 0.04732 0.74903 0.0
C279 C 0.87768 0.06972 0.79612 0.0
C280 C 0.34933 0.40008 0.2189 0.0
C281 C 0.34118 0.42654 0.27188 0.0
C282 C 0.37635 0.41602 0.17099 0.0
C283 C 0.39519 0.45906 0.1739 0.0
H284 H 0.33976 0.36544 0.21828 0.0
H285 H 0.38691 0.39317 0.13537 0.0
S286 S 0.37432 0.54437 0.29373 0.0
N287 N 0.34657 0.50003 0.31803 0.0
N288 N 0.39717 0.53006 0.22705 0.0
C289 C 0.38172 0.48755 0.2214 0.0
C290 C 0.35472 0.47121 0.27081 0.0
C291 C 0.18222 0.93611 0.7876 0.0
C292 C 0.16082 0.92114 0.84196 0.0
C293 C 0.15244 0.95314 0.73123 0.0
C294 C 0.10012 0.95531 0.72664 0.0
H295 H 0.22251 0.93735 0.79033 0.0
H296 H 0.17072 0.96805 0.69323 0.0
S297 S 0.02493 0.916 0.85128 0.0
N298 N 0.08344 0.90606 0.88472 0.0
N299 N 0.02772 0.93769 0.77814 0.0
C300 C 0.07794 0.93698 0.7779 0.0
C301 C 0.10823 0.91985 0.83569 0.0
loop_
_geom_bond_atom_site_label_1
_geom_bond_atom_site_label_2
_geom_bond_distance
_geom_bond_site_symmetry_2
_ccdc_geom_bond_type
P0 O11 1.490 . S
P0 C14 1.812 . S
P0 C20 1.803 . S
P0 C26 1.819 . S
H1 C15 0.941 . S
H2 C16 0.939 . S
H3 C18 0.940 . S
H4 C19 0.940 . S
H5 C21 0.939 . S
H6 C22 0.942 . S
H7 C24 0.940 . S
H8 C25 0.939 . S
H9 C27 0.941 1_545 S
H10 C31 0.939 . S
O11 P0 1.490 . S
H12 C28 0.939 1_545 S
H13 C30 0.940 . S
C14 P0 1.812 . S
C14 C15 1.389 . S
C14 C19 1.391 . S
C15 H1 0.941 . S
C15 C14 1.389 . S
C15 C16 1.397 . S
C16 H2 0.939 . S
C16 C15 1.397 . S
C16 C17 1.378 . S
C17 C16 1.378 . S
C17 C18 1.378 . S
C18 H3 0.940 . S
C18 C17 1.378 . S
C18 C19 1.396 . S
C19 H4 0.940 . S
C19 C14 1.391 . S
C19 C18 1.396 . S
C20 P0 1.803 . S
C20 C21 1.378 . S
C20 C25 1.400 . S
C21 H5 0.939 . S
C21 C20 1.378 . S
C21 C22 1.361 . S
C22 H6 0.942 . S
C22 C21 1.361 . S
C22 C23 1.369 . S
C23 C22 1.369 . S
C23 C24 1.404 . S
C24 H7 0.940 . S
C24 C23 1.404 . S
C24 C25 1.389 . S
C25 H8 0.939 . S
C25 C20 1.400 . S
C25 C24 1.389 . S
C26 P0 1.819 . S
C26 C27 1.391 . S
C26 C31 1.391 1_554 S
C27 H9 0.941 1_565 S
C27 C26 1.391 . S
C27 C28 1.396 1_554 S
C28 H12 0.939 1_565 S
C28 C27 1.396 1_556 S
C28 C29 1.397 . S
C29 C28 1.397 . S
C29 C30 1.385 . S
C30 H13 0.940 . S
C30 C29 1.385 . S
C30 C31 1.388 . S
C31 H10 0.939 . S
C31 C26 1.391 1_556 S
C31 C30 1.388 . S
P32 O43 1.490 . S
P32 C46 1.812 . S
P32 C52 1.803 . S
P32 C58 1.819 . S
H33 C47 0.941 . S
H34 C48 0.939 . S
H35 C50 0.940 . S
H36 C51 0.940 . S
H37 C53 0.939 . S
H38 C54 0.942 . S
H39 C56 0.940 . S
H40 C57 0.939 . S
H41 C59 0.941 . S
H42 C63 0.939 . S
O43 P32 1.490 . S
H44 C60 0.939 . S
H45 C62 0.940 . S
C46 P32 1.812 . S
C46 C47 1.389 . S
C46 C51 1.391 . S
C47 H33 0.941 . S
C47 C46 1.389 . S
C47 C48 1.397 . S
C48 H34 0.939 . S
C48 C47 1.397 . S
C48 C49 1.378 . S
C49 C48 1.378 . S
C49 C50 1.378 . S
C50 H35 0.940 . S
C50 C49 1.378 . S
C50 C51 1.396 . S
C51 H36 0.940 . S
C51 C46 1.391 . S
C51 C50 1.396 . S
C52 P32 1.803 . S
C52 C53 1.378 . S
C52 C57 1.400 . S
C53 H37 0.939 . S
C53 C52 1.378 . S
C53 C54 1.361 . S
C54 H38 0.942 . S
C54 C53 1.361 . S
C54 C55 1.369 . S
C55 C54 1.369 . S
C55 C56 1.404 . S
C56 H39 0.940 . S
C56 C55 1.404 . S
C56 C57 1.389 . S
C57 H40 0.939 . S
C57 C52 1.400 . S
C57 C56 1.389 . S
C58 P32 1.819 . S
C58 C59 1.391 . S
C58 C63 1.391 . S
C59 H41 0.941 . S
C59 C58 1.391 . S
C59 C60 1.396 . S
C60 H44 0.939 . S
C60 C59 1.396 . S
C60 C61 1.397 . S
C61 C60 1.397 . S
C61 C62 1.385 . S
C62 H45 0.940 . S
C62 C61 1.385 . S
C62 C63 1.388 . S
C63 H42 0.939 . S
C63 C58 1.391 . S
C63 C62 1.388 . S
P64 O75 1.490 . S
P64 C78 1.812 1_554 S
P64 C84 1.804 1_554 S
P64 C90 1.819 . S
H65 C79 0.941 . S
H66 C80 0.939 . S
H67 C82 0.940 . S
H68 C83 0.940 . S
H69 C85 0.939 . S
H70 C86 0.942 . S
H71 C88 0.940 . S
H72 C89 0.939 . S
H73 C91 0.941 . S
H74 C95 0.939 . S
O75 P64 1.490 . S
H76 C92 0.939 . S
H77 C94 0.940 . S
C78 P64 1.812 1_556 S
C78 C79 1.389 . S
C78 C83 1.391 . S
C79 H65 0.941 . S
C79 C78 1.389 . S
C79 C80 1.397 . S
C80 H66 0.939 . S
C80 C79 1.397 . S
C80 C81 1.378 . S
C81 C80 1.378 . S
C81 C82 1.378 . S
C82 H67 0.940 . S
C82 C81 1.378 . S
C82 C83 1.396 . S
C83 H68 0.940 . S
C83 C78 1.391 . S
C83 C82 1.396 . S
C84 P64 1.804 1_556 S
C84 C85 1.371 1_556 S
C84 C89 1.405 . S
C85 H69 0.939 . S
C85 C84 1.371 1_554 S
C85 C86 1.361 . S
C86 H70 0.942 . S
C86 C85 1.361 . S
C86 C87 1.369 1_554 S
C87 C86 1.369 1_556 S
C87 C88 1.404 . S
C88 H71 0.940 . S
C88 C87 1.404 . S
C88 C89 1.389 . S
C89 H72 0.939 . S
C89 C84 1.405 . S
C89 C88 1.389 . S
C90 P64 1.819 . S
C90 C91 1.391 . S
C90 C95 1.391 . S
C91 H73 0.941 . S
C91 C90 1.391 . S
C91 C92 1.396 . S
C92 H76 0.939 . S
C92 C91 1.396 . S
C92 C93 1.397 . S
C93 C92 1.397 . S
C93 C94 1.385 . S
C94 H77 0.940 . S
C94 C93 1.385 . S
C94 C95 1.388 . S
C95 H74 0.939 . S
C95 C90 1.391 . S
C95 C94 1.388 . S
P96 O107 1.490 . S
P96 C110 1.812 . S
P96 C116 1.803 . S
P96 C122 1.819 . S
H97 C111 0.941 . S
H98 C112 0.939 . S
H99 C114 0.940 . S
H100 C115 0.940 . S
H101 C117 0.939 . S
H102 C118 0.942 . S
H103 C120 0.940 . S
H104 C121 0.939 . S
H105 C123 0.941 . S
H106 C127 0.939 . S
O107 P96 1.490 . S
H108 C124 0.939 . S
H109 C126 0.940 . S
C110 P96 1.812 . S
C110 C111 1.389 . S
C110 C115 1.391 . S
C111 H97 0.941 . S
C111 C110 1.389 . S
C111 C112 1.397 . S
C112 H98 0.939 . S
C112 C111 1.397 . S
C112 C113 1.378 . S
C113 C112 1.378 . S
C113 C114 1.378 . S
C114 H99 0.940 . S
C114 C113 1.378 . S
C114 C115 1.396 . S
C115 H100 0.940 . S
C115 C110 1.391 . S
C115 C114 1.396 . S
C116 P96 1.803 . S
C116 C117 1.378 . S
C116 C121 1.400 . S
C117 H101 0.939 . S
C117 C116 1.378 . S
C117 C118 1.361 . S
C118 H102 0.942 . S
C118 C117 1.361 . S
C118 C119 1.369 . S
C119 C118 1.369 . S
C119 C120 1.404 . S
C120 H103 0.940 . S
C120 C119 1.404 . S
C120 C121 1.389 . S
C121 H104 0.939 . S
C121 C116 1.400 . S
C121 C120 1.389 . S
C122 P96 1.819 . S
C122 C123 1.391 . S
C122 C127 1.391 . S
C123 H105 0.941 . S
C123 C122 1.391 . S
C123 C124 1.396 . S
C124 H108 0.939 . S
C124 C123 1.396 . S
C124 C125 1.397 . S
C125 C124 1.397 . S
C125 C126 1.385 . S
C126 H109 0.940 . S
C126 C125 1.385 . S
C126 C127 1.388 . S
C127 H106 0.939 . S
C127 C122 1.391 . S
C127 C126 1.388 . S
O128 Mn129 2.163 1_655 S
O128 C142 1.244 . S
Mn129 O128 2.163 1_455 S
Mn129 O132 2.160 1_545 S
Mn129 O133 2.221 . S
Mn129 O135 2.163 1_455 S
Mn129 O137 2.160 1_545 S
Mn129 O147 2.221 1_445 S
O130 Mn131 2.087 1_545 S
O130 C142 1.256 . S
Mn131 O130 2.087 1_565 S
Mn131 O138 2.089 1_655 S
Mn131 O147 2.290 . S
Mn131 O148 2.251 . S
O132 Mn129 2.160 1_565 S
O132 C143 1.239 . S
O133 Mn129 2.221 . S
O133 Mn134 2.290 . S
O133 C144 1.278 . S
Mn134 O133 2.290 . S
Mn134 O136 2.089 . S
Mn134 O139 2.251 . S
Mn134 O140 2.087 1_455 S
O135 Mn129 2.163 1_655 S
O135 C145 1.244 . S
O136 Mn134 2.089 . S
O136 C143 1.256 1_545 S
O137 Mn129 2.160 1_565 S
O137 C146 1.239 . S
O138 Mn131 2.089 1_455 S
O138 C146 1.256 . S
O139 Mn134 2.251 . S
O139 C144 1.241 . S
O140 Mn134 2.087 1_655 S
O140 C145 1.256 . S
C141 O147 1.278 . S
C141 O148 1.241 . S
C142 O128 1.244 . S
C142 O130 1.256 . S
C143 O132 1.239 . S
C143 O136 1.256 1_565 S
C144 O133 1.278 . S
C144 O139 1.241 . S
C145 O135 1.244 . S
C145 O140 1.256 . S
C146 O137 1.239 . S
C146 O138 1.256 . S
O147 Mn129 2.221 1_665 S
O147 Mn131 2.290 . S
O147 C141 1.278 . S
O148 Mn131 2.251 . S
O148 C141 1.241 . S
O149 Mn150 2.163 . S
O149 C163 1.244 . S
Mn150 O149 2.163 . S
Mn150 O153 2.160 1_554 S
Mn150 O154 2.221 . S
Mn150 O156 2.163 1_554 S
Mn150 O158 2.160 . S
Mn150 O168 2.221 . S
O151 Mn152 2.087 . S
O151 C163 1.256 . S
Mn152 O151 2.087 . S
Mn152 O159 2.089 . S
Mn152 O168 2.290 . S
Mn152 O169 2.251 . S
O153 Mn150 2.160 1_556 S
O153 C164 1.239 . S
O154 Mn150 2.221 . S
O154 Mn155 2.290 1_554 S
O154 C165 1.278 . S
Mn155 O154 2.290 1_556 S
Mn155 O157 2.089 . S
Mn155 O160 2.251 . S
Mn155 O161 2.087 . S
O156 Mn150 2.163 1_556 S
O156 C166 1.244 . S
O157 Mn155 2.089 . S
O157 C164 1.256 . S
O158 Mn150 2.160 . S
O158 C167 1.239 . S
O159 Mn152 2.089 . S
O159 C167 1.256 . S
O160 Mn155 2.251 . S
O160 C165 1.241 1_556 S
O161 Mn155 2.087 . S
O161 C166 1.256 . S
C162 O168 1.278 . S
C162 O169 1.241 . S
C163 O149 1.244 . S
C163 O151 1.256 . S
C164 O153 1.239 . S
C164 O157 1.256 . S
C165 O154 1.278 . S
C165 O160 1.241 1_554 S
C166 O156 1.244 . S
C166 O161 1.256 . S
C167 O158 1.239 . S
C167 O159 1.256 . S
O168 Mn150 2.221 . S
O168 Mn152 2.290 . S
O168 C162 1.278 . S
O169 Mn152 2.251 . S
O169 C162 1.241 . S
C170 C171 1.369 . S
C170 C172 1.419 . S
C170 H174 0.930 . S
C171 C170 1.369 . S
C171 C180 1.429 . S
C172 C170 1.419 . S
C172 C173 1.363 . S
C172 H175 0.929 . S
C173 C172 1.363 . S
C173 C179 1.428 . S
H174 C170 0.930 . S
H175 C172 0.929 . S
S176 N177 1.613 . S
S176 N178 1.610 . S
N177 S176 1.613 . S
N177 C180 1.350 . S
N178 S176 1.610 . S
N178 C179 1.351 . S
C179 C173 1.428 . S
C179 N178 1.351 . S
C179 C180 1.434 . S
C180 C171 1.429 . S
C180 N177 1.350 . S
C180 C179 1.434 . S
C181 C182 1.369 . S
C181 C183 1.419 . S
C181 H185 0.930 . S
C182 C181 1.369 . S
C182 C191 1.429 . S
C183 C181 1.419 . S
C183 C184 1.363 . S
C183 H186 0.929 . S
C184 C183 1.363 . S
C184 C190 1.428 . S
H185 C181 0.930 . S
H186 C183 0.929 . S
S187 N188 1.613 . S
S187 N189 1.610 . S
N188 S187 1.613 . S
N188 C191 1.350 . S
N189 S187 1.610 . S
N189 C190 1.351 . S
C190 C184 1.428 . S
C190 N189 1.351 . S
C190 C191 1.434 . S
C191 C182 1.429 . S
C191 N188 1.350 . S
C191 C190 1.434 . S
C192 C193 1.369 . S
C192 C194 1.419 . S
C192 H196 0.930 . S
C193 C192 1.369 . S
C193 C202 1.429 . S
C194 C192 1.419 . S
C194 C195 1.363 . S
C194 H197 0.929 . S
C195 C194 1.363 . S
C195 C201 1.428 . S
H196 C192 0.930 . S
H197 C194 0.929 . S
S198 N199 1.614 . S
S198 N200 1.610 . S
N199 S198 1.614 . S
N199 C202 1.350 . S
N200 S198 1.610 . S
N200 C201 1.351 . S
C201 C195 1.428 . S
C201 N200 1.351 . S
C201 C202 1.434 . S
C202 C193 1.429 . S
C202 N199 1.350 . S
C202 C201 1.434 . S
C203 C204 1.368 1_556 S
C203 C205 1.419 . S
C203 H207 0.930 . S
C204 C203 1.368 1_554 S
C204 C213 1.434 . S
C205 C203 1.419 . S
C205 C206 1.363 1_556 S
C205 H208 0.929 . S
C206 C205 1.363 1_554 S
C206 C212 1.428 . S
H207 C203 0.930 . S
H208 C205 0.929 . S
S209 N210 1.613 . S
S209 N211 1.610 . S
N210 S209 1.613 . S
N210 C213 1.350 . S
N211 S209 1.610 . S
N211 C212 1.351 . S
C212 C206 1.428 . S
C212 N211 1.351 . S
C212 C213 1.434 . S
C213 C204 1.434 . S
C213 N210 1.350 . S
C213 C212 1.434 . S
C214 C215 1.369 . S
C214 C216 1.419 . S
C214 H218 0.930 . S
C215 C214 1.369 . S
C215 C224 1.429 . S
C216 C214 1.419 . S
C216 C217 1.363 . S
C216 H219 0.929 . S
C217 C216 1.363 . S
C217 C223 1.428 . S
H218 C214 0.930 . S
H219 C216 0.929 . S
S220 N221 1.613 . S
S220 N222 1.610 . S
N221 S220 1.613 . S
N221 C224 1.350 . S
N222 S220 1.610 . S
N222 C223 1.351 . S
C223 C217 1.428 . S
C223 N222 1.351 . S
C223 C224 1.434 . S
C224 C215 1.429 . S
C224 N221 1.350 . S
C224 C223 1.434 . S
C225 C226 1.369 . S
C225 C227 1.419 . S
C225 H229 0.930 . S
C226 C225 1.369 . S
C226 C235 1.429 . S
C227 C225 1.419 . S
C227 C228 1.363 . S
C227 H230 0.929 . S
C228 C227 1.363 . S
C228 C234 1.428 . S
H229 C225 0.930 . S
H230 C227 0.929 . S
S231 N232 1.613 . S
S231 N233 1.610 . S
N232 S231 1.613 . S
N232 C235 1.350 . S
N233 S231 1.610 . S
N233 C234 1.351 . S
C234 C228 1.428 . S
C234 N233 1.351 . S
C234 C235 1.434 . S
C235 C226 1.429 . S
C235 N232 1.350 . S
C235 C234 1.434 . S
C236 C237 1.369 . S
C236 C238 1.419 . S
C236 H240 0.930 . S
C237 C236 1.369 . S
C237 C246 1.429 . S
C238 C236 1.419 . S
C238 C239 1.363 . S
C238 H241 0.929 . S
C239 C238 1.363 . S
C239 C245 1.428 . S
H240 C236 0.930 . S
H241 C238 0.929 . S
S242 N243 1.613 1_565 S
S242 N244 1.610 . S
N243 S242 1.613 1_545 S
N243 C246 1.350 . S
N244 S242 1.610 . S
N244 C245 1.351 1_565 S
C245 C239 1.428 . S
C245 N244 1.351 1_545 S
C245 C246 1.434 . S
C246 C237 1.429 . S
C246 N243 1.350 . S
C246 C245 1.434 . S
C247 C248 1.369 . S
C247 C249 1.419 . S
C247 H251 0.930 . S
C248 C247 1.369 . S
C248 C257 1.429 . S
C249 C247 1.419 . S
C249 C250 1.363 . S
C249 H252 0.929 . S
C250 C249 1.363 . S
C250 C256 1.428 . S
H251 C247 0.930 . S
H252 C249 0.929 . S
S253 N254 1.613 . S
S253 N255 1.610 . S
N254 S253 1.613 . S
N254 C257 1.350 . S
N255 S253 1.610 . S
N255 C256 1.351 . S
C256 C250 1.428 . S
C256 N255 1.351 . S
C256 C257 1.434 . S
C257 C248 1.429 . S
C257 N254 1.350 . S
C257 C256 1.434 . S
C258 C259 1.369 . S
C258 C260 1.419 . S
C258 H262 0.930 . S
C259 C258 1.369 . S
C259 C268 1.429 . S
C260 C258 1.419 . S
C260 C261 1.363 . S
C260 H263 0.929 . S
C261 C260 1.363 . S
C261 C267 1.428 . S
H262 C258 0.930 . S
H263 C260 0.929 . S
S264 N265 1.613 . S
S264 N266 1.610 . S
N265 S264 1.613 . S
N265 C268 1.350 . S
N266 S264 1.610 . S
N266 C267 1.351 . S
C267 C261 1.428 . S
C267 N266 1.351 . S
C267 C268 1.434 . S
C268 C259 1.429 . S
C268 N265 1.350 . S
C268 C267 1.434 . S
C269 C270 1.369 . S
C269 C271 1.419 . S
C269 H273 0.930 . S
C270 C269 1.369 . S
C270 C279 1.429 . S
C271 C269 1.419 . S
C271 C272 1.363 . S
C271 H274 0.929 . S
C272 C271 1.363 . S
C272 C278 1.428 . S
H273 C269 0.930 . S
H274 C271 0.929 . S
S275 N276 1.613 1_565 S
S275 N277 1.610 . S
N276 S275 1.613 1_545 S
N276 C279 1.350 . S
N277 S275 1.610 . S
N277 C278 1.351 1_565 S
C278 C272 1.428 . S
C278 N277 1.351 1_545 S
C278 C279 1.434 . S
C279 C270 1.429 . S
C279 N276 1.350 . S
C279 C278 1.434 . S
C280 C281 1.369 . S
C280 C282 1.419 . S
C280 H284 0.930 . S
C281 C280 1.369 . S
C281 C290 1.429 . S
C282 C280 1.419 . S
C282 C283 1.363 . S
C282 H285 0.929 . S
C283 C282 1.363 . S
C283 C289 1.428 . S
H284 C280 0.930 . S
H285 C282 0.929 . S
S286 N287 1.613 . S
S286 N288 1.610 . S
N287 S286 1.613 . S
N287 C290 1.350 . S
N288 S286 1.610 . S
N288 C289 1.351 . S
C289 C283 1.428 . S
C289 N288 1.351 . S
C289 C290 1.434 . S
C290 C281 1.429 . S
C290 N287 1.350 . S
C290 C289 1.434 . S
C291 C292 1.369 . S
C291 C293 1.419 1_565 S
C291 H295 0.930 1_565 S
C292 C291 1.369 . S
C292 C301 1.429 . S
C293 C291 1.419 1_545 S
C293 C294 1.363 1_545 S
C293 H296 0.929 . S
C294 C293 1.363 1_565 S
C294 C300 1.428 . S
H295 C291 0.930 1_545 S
H296 C293 0.929 . S
S297 N298 1.613 . S
S297 N299 1.610 . S
N298 S297 1.613 . S
N298 C301 1.350 . S
N299 S297 1.610 . S
N299 C300 1.351 . S
C300 C294 1.428 . S
C300 N299 1.351 . S
C300 C301 1.434 . S
C301 C292 1.429 . S
C301 N298 1.350 . S
C301 C300 1.434 . S
C173 C144 1.373 . S
C171 C119 1.418 . S
C182 C23 1.549 . S
C184 C165 1.355 . S
C193 C55 1.661 . S
C195 C141 1.458 . S
C204 C87 1.544 1_554 S
C206 C162 1.446 . S
C217 C146 1.605 . S
C215 C17 1.619 . S
C228 C166 1.563 . S
C226 C61 1.600 . S
C237 C93 1.484 . S
C239 C142 1.492 . S
C248 C113 1.482 . S
C250 C164 1.509 . S
C261 C163 1.496 . S
C259 C49 1.586 . S
C272 C145 1.562 . S
C270 C81 1.524 . S
C283 C167 1.614 . S
C281 C125 1.490 . S
C292 C29 1.620 . S
C294 C143 1.513 . S
