# Generated by pormake.
# Topology ssa, (4,4)-cn, num edge types: 1
# Building blocks:
#     Node 0, Type 0, BuildingBlock: ESEHIV_clean_sbu_0, # of connection points: 4
#     Node 1, Type 0, BuildingBlock: ESEHIV_clean_sbu_0, # of connection points: 4
#     Node 2, Type 0, BuildingBlock: ESEHIV_clean_sbu_0, # of connection points: 4
#     Node 3, Type 0, BuildingBlock: ESEHIV_clean_sbu_0, # of connection points: 4
#     Node 4, Type 0, BuildingBlock: ESEHIV_clean_sbu_0, # of connection points: 4
#     Node 5, Type 0, BuildingBlock: ESEHIV_clean_sbu_0, # of connection points: 4
#     Node 6, Type 1, BuildingBlock: KUFVIS_clean_linker_0, # of connection points: 4
#     Node 7, Type 1, BuildingBlock: KUFVIS_clean_linker_0, # of connection points: 4
#     Node 8, Type 1, BuildingBlock: KUFVIS_clean_linker_0, # of connection points: 4
#     Node 9, Type 1, BuildingBlock: KUFVIS_clean_linker_0, # of connection points: 4
#     Node 10, Type 1, BuildingBlock: KUFVIS_clean_linker_0, # of connection points: 4
#     Node 11, Type 1, BuildingBlock: KUFVIS_clean_linker_0, # of connection points: 4
#     Edge 12, Type (0, 1), BuildingBlock: MIFKUJ_clean_linker_0, # of connection points: 2
#     Edge 13, Type (0, 1), BuildingBlock: MIFKUJ_clean_linker_0, # of connection points: 2
#     Edge 14, Type (0, 1), BuildingBlock: MIFKUJ_clean_linker_0, # of connection points: 2
#     Edge 15, Type (0, 1), BuildingBlock: MIFKUJ_clean_linker_0, # of connection points: 2
#     Edge 16, Type (0, 1), BuildingBlock: MIFKUJ_clean_linker_0, # of connection points: 2
#     Edge 17, Type (0, 1), BuildingBlock: MIFKUJ_clean_linker_0, # of connection points: 2
#     Edge 18, Type (0, 1), BuildingBlock: MIFKUJ_clean_linker_0, # of connection points: 2
#     Edge 19, Type (0, 1), BuildingBlock: MIFKUJ_clean_linker_0, # of connection points: 2
#     Edge 20, Type (0, 1), BuildingBlock: MIFKUJ_clean_linker_0, # of connection points: 2
#     Edge 21, Type (0, 1), BuildingBlock: MIFKUJ_clean_linker_0, # of connection points: 2
#     Edge 22, Type (0, 1), BuildingBlock: MIFKUJ_clean_linker_0, # of connection points: 2
#     Edge 23, Type (0, 1), BuildingBlock: MIFKUJ_clean_linker_0, # of connection points: 2
#     Edge 24, Type (0, 1), BuildingBlock: MIFKUJ_clean_linker_0, # of connection points: 2
#     Edge 25, Type (0, 1), BuildingBlock: MIFKUJ_clean_linker_0, # of connection points: 2
#     Edge 26, Type (0, 1), BuildingBlock: MIFKUJ_clean_linker_0, # of connection points: 2
#     Edge 27, Type (0, 1), BuildingBlock: MIFKUJ_clean_linker_0, # of connection points: 2
#     Edge 28, Type (0, 1), BuildingBlock: MIFKUJ_clean_linker_0, # of connection points: 2
#     Edge 29, Type (0, 1), BuildingBlock: MIFKUJ_clean_linker_0, # of connection points: 2
#     Edge 30, Type (0, 1), BuildingBlock: MIFKUJ_clean_linker_0, # of connection points: 2
#     Edge 31, Type (0, 1), BuildingBlock: MIFKUJ_clean_linker_0, # of connection points: 2
#     Edge 32, Type (0, 1), BuildingBlock: MIFKUJ_clean_linker_0, # of connection points: 2
#     Edge 33, Type (0, 1), BuildingBlock: MIFKUJ_clean_linker_0, # of connection points: 2
#     Edge 34, Type (0, 1), BuildingBlock: MIFKUJ_clean_linker_0, # of connection points: 2
#     Edge 35, Type (0, 1), BuildingBlock: MIFKUJ_clean_linker_0, # of connection points: 2
# Relax obj value: 0.005
# Max RMSD: 0.107
# Mean RMSD: 0.074
data_MOF--net-ssa--node1-ESEHIV_clean_sbu_0--node2-KUFVIS_clean_linker_0--edge1-MIFKUJ_clean_linker_0
_symmetry_space_group_name_H-M    P1
_symmetry_Int_Tables_number       1
_symmetry_cell_setting            triclinic
loop_
_symmetry_equiv_pos_as_xyz
'x, y, z'
_cell_length_a     68.409353
_cell_length_b     72.220168
_cell_length_c     39.192321
_cell_angle_alpha  88.316898
_cell_angle_beta   90.799829
_cell_angle_gamma 122.2414
loop_
_atom_site_label
_atom_site_type_symbol
_atom_site_fract_x
_atom_site_fract_y
_atom_site_fract_z
_atom_type_partial_charge
Cu0 Cu 0.03485 0.52769 0.97103 0.0
N1 N 0.03086 0.5101 0.93435 0.0
N2 N 1.00953 0.48049 0.90307 0.0
C3 C 1.01366 0.48891 0.93442 0.0
C4 C 0.02497 0.497 0.88231 0.0
C5 C 0.03831 0.5153 0.90181 0.0
O6 O 1.00495 0.52518 0.97565 0.0
C7 C 0.06559 0.52045 0.00337 0.0
O8 O 0.07524 0.52861 0.97343 0.0
H9 H 1.00277 0.48051 0.95644 0.0
H10 H 0.05099 0.53161 0.89241 0.0
N11 N 0.05787 0.55734 0.96485 0.0
N12 N 0.08685 0.5903 0.98076 0.0
C13 C 0.07203 0.56924 0.99031 0.0
C14 C 0.06374 0.57146 0.93806 0.0
C15 C 0.08164 0.59192 0.9479 0.0
C16 C 0.99733 0.52843 0.9476 0.0
O17 O 1.01022 0.53418 0.92011 0.0
H18 H 0.07113 0.56261 0.01577 0.0
H19 H 0.05555 0.5673 0.91329 0.0
O20 O 0.04571 0.51736 0.0092 0.0
H21 H 0.02559 0.49628 0.85483 0.0
H22 H 0.09023 0.60673 0.93213 0.0
Cu23 Cu 0.52046 0.01206 0.50554 0.0
N24 N 0.5323 1.0054 0.46837 0.0
N25 N 0.54131 0.98594 0.43599 0.0
C26 C 0.5303 0.986 0.46432 0.0
C27 C 0.55051 1.00617 0.42164 0.0
C28 C 0.54491 0.01812 0.44165 0.0
O29 O 0.48992 0.98609 0.51438 0.0
C30 C 0.56258 0.02738 0.54104 0.0
O31 O 0.56977 0.02393 0.51245 0.0
H32 H 0.52147 0.97242 0.48246 0.0
H33 H 0.55 0.03498 0.43733 0.0
N34 N 0.51855 0.03675 0.49752 0.0
N35 N 0.51839 0.06662 0.5107 0.0
C36 C 0.51978 0.04965 0.52264 0.0
C37 C 0.51643 0.04593 0.46843 0.0
C38 C 0.51616 0.06431 0.47654 0.0
C39 C 0.47299 0.98352 0.49647 0.0
O40 O 0.47631 0.99937 0.4753 0.0
H41 H 0.52141 0.04643 0.54934 0.0
H42 H 0.51512 0.03969 0.4432 0.0
O43 O 0.54125 0.02052 0.54446 0.0
H44 H 0.56057 0.01197 0.39833 0.0
H45 H 0.51478 0.07528 0.45868 0.0
Cu46 Cu 0.51683 0.5074 0.02085 0.0
N47 N 0.51119 0.47889 0.02297 0.0
N48 N 0.50775 0.44829 0.00424 0.0
C49 C 0.51206 0.46838 0.99571 0.0
C50 C 0.50407 0.44608 0.03829 0.0
C51 C 0.50638 0.46505 0.04983 0.0
O52 O 0.5432 0.52373 0.99018 0.0
C53 C 0.47079 0.49233 0.02616 0.0
O54 O 0.47265 0.47878 0.04696 0.0
H55 H 0.51576 0.47539 0.97006 0.0
H56 H 0.50472 0.46852 0.07592 0.0
N57 N 0.52567 0.52212 0.06211 0.0
N58 N 0.53506 0.54976 0.09673 0.0
C59 C 0.52556 0.54046 0.0667 0.0
C60 C 0.53544 0.51952 0.0904 0.0
C61 C 0.54135 0.53665 0.1118 0.0
C62 C 0.56048 0.523 0.00089 0.0
O63 O 0.55845 0.51262 0.03 0.0
H64 H 0.51959 0.54741 0.04752 0.0
H65 H 0.53878 0.50659 0.09467 0.0
O66 O 0.48846 0.50634 0.00874 0.0
H67 H 0.50047 0.43197 0.05386 0.0
H68 H 0.54989 0.53941 0.13626 0.0
Cu69 Cu 0.02136 0.51038 0.52162 0.0
N70 N 0.02482 0.50062 0.48017 0.0
N71 N 0.04236 0.49193 0.44198 0.0
C72 C 0.04471 0.50271 0.47072 0.0
C73 C 0.01996 0.48258 0.43293 0.0
C74 C 1.00914 0.48802 0.45663 0.0
O75 O 0.05272 0.53496 0.53064 0.0
C76 C 1.00234 0.48268 0.58316 0.0
O77 O 1.00713 0.50013 0.59986 0.0
H78 H 0.0603 0.51093 0.48589 0.0
H79 H 0.99101 0.48249 0.45741 0.0
N80 N 1.00074 0.51985 0.51718 0.0
N81 N 0.97492 0.5285 0.53048 0.0
C82 C 0.98518 0.51762 0.54034 0.0
C83 C 1.00004 0.5323 0.49156 0.0
C84 C 0.98419 0.53773 0.49973 0.0
C85 C 0.05812 0.55467 0.53374 0.0
O86 O 0.04187 0.55848 0.54066 0.0
H87 H 0.98205 0.50896 0.56453 0.0
H88 H 1.01089 0.53764 0.46905 0.0
O89 O 1.00854 0.48468 0.55212 0.0
H90 H 1.01188 0.47219 0.41126 0.0
H91 H 0.98003 0.54788 0.48442 0.0
Cu92 Cu 0.52586 0.01726 0.04825 0.0
N93 N 0.52165 0.03933 0.06266 0.0
N94 N 0.5174 0.0679 0.05751 0.0
C95 C 0.52887 0.0587 0.04663 0.0
C96 C 0.50284 0.05406 0.082 0.0
C97 C 0.50556 0.03651 0.08518 0.0
O98 O 0.54546 0.02774 0.00769 0.0
C99 C 0.49007 0.97172 0.03996 0.0
O100 O 0.50647 0.96869 0.03048 0.0
H101 H 0.54062 0.06495 0.02515 0.0
H102 H 0.49509 0.02179 0.10061 0.0
N103 N 0.54112 1.01089 0.08169 0.0
N104 N 0.5557 0.99282 0.1074 0.0
C105 C 0.54882 0.99743 0.07764 0.0
C106 C 0.54356 0.01541 0.11507 0.0
C107 C 0.55258 1.00428 0.13104 0.0
C108 C 0.54189 0.03641 0.98156 0.0
O109 O 0.52199 0.03502 0.97854 0.0
H110 H 0.54796 0.99008 0.0536 0.0
H111 H 0.53811 0.02519 0.12719 0.0
O112 O 0.4949 0.99113 0.0444 0.0
H113 H 0.48998 0.05573 0.0949 0.0
H114 H 0.55573 1.00404 0.15813 0.0
Cu115 Cu 0.50583 0.49939 0.51173 0.0
N116 N 0.51928 0.51789 0.47355 0.0
N117 N 0.5288 0.54701 0.43973 0.0
C118 C 0.5125 0.53092 0.46007 0.0
C119 C 0.54644 0.54366 0.43979 0.0
C120 C 0.54053 0.52574 0.46079 0.0
O121 O 0.47456 0.49349 0.51536 0.0
C122 C 0.52782 0.50634 0.57775 0.0
O123 O 0.50866 0.48912 0.58956 0.0
H124 H 0.4969 0.52997 0.4676 0.0
H125 H 0.55172 0.52003 0.46851 0.0
N126 N 0.50407 0.47297 0.50617 0.0
N127 N 0.50101 0.44148 0.52173 0.0
C128 C 0.4958 0.45644 0.52953 0.0
C129 C 0.51444 0.46809 0.48227 0.0
C130 C 0.51258 0.44867 0.49179 0.0
C131 C 0.46968 0.50788 0.52076 0.0
O132 O 0.48586 0.52691 0.53255 0.0
H133 H 0.48736 0.45609 0.55285 0.0
H134 H 0.52374 0.47845 0.46042 0.0
O135 O 0.52795 0.51425 0.54825 0.0
H136 H 0.56298 0.55418 0.42739 0.0
H137 H 0.51991 0.44089 0.47831 0.0
H138 H 0.33642 0.50633 0.24703 0.0
H139 H 0.28133 0.50311 0.30314 0.0
H140 H 0.27477 0.49155 0.19437 0.0
H141 H 0.24976 0.50229 0.19652 0.0
H142 H 0.18633 0.47711 0.25091 0.0
H143 H 0.24366 0.48115 0.30296 0.0
C144 C 0.31942 0.50407 0.24762 0.0
C145 C 0.3068 0.49959 0.21738 0.0
C146 C 0.31016 0.50503 0.27866 0.0
C147 C 0.28791 0.50169 0.27908 0.0
C148 C 0.27458 0.49689 0.24877 0.0
C149 C 0.28449 0.4959 0.21793 0.0
C150 C 0.2502 0.49203 0.24942 0.0
C151 C 0.23992 0.4952 0.2198 0.0
C152 C 0.21663 0.48911 0.22006 0.0
C153 C 0.20393 0.48081 0.25023 0.0
C154 C 0.21381 0.47849 0.28009 0.0
C155 C 0.23674 0.4838 0.27967 0.0
H156 H 0.70277 0.18295 0.76018 0.0
H157 H 0.76113 0.23277 0.81436 0.0
H158 H 0.75766 0.23686 0.70371 0.0
H159 H 0.7959 0.25707 0.70701 0.0
H160 H 0.84353 0.31677 0.75628 0.0
H161 H 0.782 0.26909 0.8094 0.0
C162 C 0.71944 0.19831 0.75982 0.0
C163 C 0.72924 0.20886 0.7287 0.0
C164 C 0.73068 0.20699 0.79052 0.0
C165 C 0.75249 0.22662 0.79023 0.0
C166 C 0.76284 0.23802 0.75894 0.0
C167 C 0.75081 0.22867 0.72814 0.0
C168 C 0.7856 0.25977 0.75837 0.0
C169 C 0.80025 0.26718 0.7291 0.0
C170 C 0.82098 0.28782 0.72844 0.0
C171 C 0.82739 0.30091 0.75685 0.0
C172 C 0.81357 0.29416 0.78594 0.0
C173 C 0.79272 0.27368 0.78686 0.0
H174 H 0.5562 0.7123 0.27611 0.0
H175 H 0.56487 0.76545 0.21321 0.0
H176 H 0.54353 0.75853 0.31935 0.0
H177 H 0.56 0.79422 0.31661 0.0
H178 H 0.55542 0.84067 0.25257 0.0
H179 H 0.54945 0.78492 0.20711 0.0
C180 C 0.556 0.72721 0.27328 0.0
C181 C 0.55025 0.73486 0.30121 0.0
C182 C 0.56063 0.73785 0.24152 0.0
C183 C 0.56029 0.75709 0.23784 0.0
C184 C 0.55457 0.76541 0.26595 0.0
C185 C 0.54899 0.75356 0.29754 0.0
C186 C 0.55444 0.78622 0.26245 0.0
C187 C 0.55724 0.79889 0.29141 0.0
C188 C 0.55738 0.81839 0.28779 0.0
C189 C 0.55498 0.82544 0.25546 0.0
C190 C 0.55256 0.8136 0.22662 0.0
C191 C 0.55198 0.79396 0.22996 0.0
H192 H 0.84765 0.55302 0.76528 0.0
H193 H 0.7881 0.53828 0.82269 0.0
H194 H 0.79136 0.55087 0.71329 0.0
H195 H 0.75275 0.53259 0.71916 0.0
H196 H 0.71186 0.55148 0.77148 0.0
H197 H 0.77169 0.55882 0.82099 0.0
C198 C 0.83074 0.5505 0.76614 0.0
C199 C 0.82036 0.55144 0.73552 0.0
C200 C 0.81906 0.54513 0.79757 0.0
C201 C 0.79712 0.54241 0.79849 0.0
C202 C 0.78708 0.54532 0.76841 0.0
C203 C 0.79869 0.5491 0.73688 0.0
C204 C 0.76523 0.54551 0.76996 0.0
C205 C 0.74991 0.53919 0.74167 0.0
C206 C 0.7309 0.54169 0.74222 0.0
C207 C 0.72673 0.54985 0.77109 0.0
C208 C 0.74115 0.55573 0.79954 0.0
C209 C 0.76031 0.55352 0.7991 0.0
H210 H 0.20022 0.69822 0.2753 0.0
H211 H 0.25264 0.75894 0.22948 0.0
H212 H 0.25625 0.745 0.33701 0.0
H213 H 0.27515 0.7807 0.34104 0.0
H214 H 0.33307 0.8373 0.29431 0.0
H215 H 0.29004 0.78146 0.23346 0.0
C216 C 0.21624 0.71397 0.27774 0.0
C217 C 0.22701 0.72022 0.30962 0.0
C218 C 0.22576 0.72776 0.24889 0.0
C219 C 0.24627 0.74829 0.25193 0.0
C220 C 0.25774 0.75523 0.28367 0.0
C221 C 0.24782 0.74073 0.31241 0.0
C222 C 0.2794 0.77771 0.28679 0.0
C223 C 0.28558 0.78843 0.31843 0.0
C224 C 0.30494 0.80977 0.32109 0.0
C225 C 0.31806 0.82083 0.29202 0.0
C226 C 0.31251 0.81088 0.26027 0.0
C227 C 0.29364 0.78913 0.25796 0.0
H228 H 0.50012 0.30836 0.77104 0.0
H229 H 0.52111 0.26936 0.82436 0.0
H230 H 0.4917 0.25222 0.72255 0.0
H231 H 0.51458 0.2382 0.72077 0.0
H232 H 0.51352 0.18677 0.78032 0.0
H233 H 0.50276 0.23252 0.82997 0.0
C234 C 0.50173 0.29416 0.77187 0.0
C235 C 0.49486 0.28069 0.74393 0.0
C236 C 0.51117 0.29019 0.80055 0.0
C237 C 0.51348 0.27202 0.80186 0.0
C238 C 0.50643 0.25781 0.77377 0.0
C239 C 0.49729 0.26258 0.74453 0.0
C240 C 0.50845 0.23811 0.77516 0.0
C241 C 0.5124 0.22997 0.74525 0.0
C242 C 0.51433 0.21149 0.74692 0.0
C243 C 0.51229 0.20114 0.77866 0.0
C244 C 0.50845 0.20893 0.80838 0.0
C245 C 0.50636 0.22718 0.80666 0.0
H246 H 0.05319 0.48527 0.04697 0.0
H247 H 0.0794 0.47981 0.08332 0.0
H248 H 0.13567 0.54514 0.0561 0.0
H249 H 0.10991 0.54993 0.01854 0.0
H250 H 0.15067 0.52058 0.05047 0.0
H251 H 0.10808 0.52804 0.13925 0.0
H252 H 0.07366 0.52002 0.17171 0.0
H253 H 0.05584 0.45391 0.19057 0.0
H254 H 0.09 0.46145 0.15784 0.0
H255 H 0.22897 0.52674 0.18329 0.0
H256 H 0.20381 0.53232 0.14457 0.0
H257 H 0.15159 0.46343 0.15302 0.0
H258 H 0.17665 0.45784 0.19121 0.0
H259 H 0.13498 0.48977 0.16869 0.0
H260 H 0.17959 0.48433 0.07958 0.0
H261 H 0.21547 0.4945 0.04929 0.0
H262 H 0.23116 0.5602 0.03403 0.0
H263 H 0.19551 0.55049 0.06466 0.0
C264 C 0.07105 0.49853 0.04942 0.0
C265 C 0.07956 0.51802 0.03013 0.0
C266 C 0.08608 0.49546 0.0702 0.0
C267 C 0.10968 0.5121 0.0727 0.0
C268 C 0.11772 0.53193 0.05452 0.0
C269 C 0.10292 0.53474 0.03325 0.0
C270 C 0.12644 0.50865 0.09243 0.0
C271 C 0.14728 0.51414 0.07653 0.0
C272 C 0.12209 0.49986 0.12625 0.0
C273 C 0.10146 0.49525 0.14577 0.0
C274 C 0.09671 0.51174 0.15007 0.0
C275 C 0.07727 0.50729 0.16857 0.0
C276 C 0.06254 0.48645 0.18311 0.0
C277 C 0.06725 0.47003 0.17925 0.0
C278 C 0.08665 0.47438 0.16075 0.0
C279 C 0.21249 0.51272 0.17579 0.0
C280 C 0.2048 0.49185 0.19006 0.0
C281 C 0.19803 0.51593 0.15397 0.0
C282 C 0.1757 0.4983 0.14616 0.0
C283 C 0.16863 0.47728 0.15888 0.0
C284 C 0.18305 0.47408 0.18042 0.0
C285 C 0.15903 0.5018 0.1267 0.0
C286 C 0.13825 0.49628 0.14267 0.0
C287 C 0.1636 0.51091 0.09321 0.0
C288 C 0.185 0.51673 0.07471 0.0
C289 C 0.19079 0.50099 0.07003 0.0
C290 C 0.21107 0.50666 0.05274 0.0
C291 C 0.22562 0.528 0.03983 0.0
C292 C 0.21989 0.54369 0.04409 0.0
C293 C 0.19964 0.5381 0.06138 0.0
H294 H 0.24131 0.53236 0.02645 0.0
H295 H 0.04751 0.48304 0.19743 0.0
H296 H 0.55587 0.0506 0.58853 0.0
H297 H 0.58579 0.08319 0.61765 0.0
H298 H 0.63829 0.07492 0.5748 0.0
H299 H 0.60852 0.04235 0.54549 0.0
H300 H 0.64665 0.08808 0.64321 0.0
H301 H 0.62436 0.10768 0.53641 0.0
H302 H 0.59667 0.10863 0.49654 0.0
H303 H 0.58115 0.14168 0.57055 0.0
H304 H 0.60807 0.14027 0.61119 0.0
H305 H 0.74161 0.1911 0.6797 0.0
H306 H 0.71467 0.16198 0.64157 0.0
H307 H 0.66019 0.17128 0.67215 0.0
H308 H 0.68715 0.20052 0.70965 0.0
H309 H 0.65345 0.15789 0.60798 0.0
H310 H 0.66899 0.13602 0.71569 0.0
H311 H 0.69359 0.13501 0.76134 0.0
H312 H 0.7178 0.10585 0.69339 0.0
H313 H 0.69365 0.1071 0.64708 0.0
C314 C 0.57372 0.05536 0.58595 0.0
C315 C 0.57983 0.04394 0.56448 0.0
C316 C 0.59081 0.07411 0.6024 0.0
C317 C 0.61427 0.08169 0.59782 0.0
C318 C 0.6203 0.06943 0.57846 0.0
C319 C 0.60325 0.0508 0.56176 0.0
C320 C 0.63261 0.10303 0.61146 0.0
C321 C 0.64836 0.10337 0.63512 0.0
C322 C 0.63436 0.12292 0.60167 0.0
C323 C 0.61811 0.12369 0.57701 0.0
C324 C 0.61484 0.11493 0.54433 0.0
C325 C 0.59926 0.11555 0.52156 0.0
C326 C 0.5871 0.12518 0.53098 0.0
C327 C 0.5905 0.13419 0.56321 0.0
C328 C 0.60587 0.13343 0.58617 0.0
C329 C 0.72419 0.18762 0.67688 0.0
C330 C 0.71638 0.19796 0.69746 0.0
C331 C 0.70873 0.17082 0.65549 0.0
C332 C 0.68527 0.16408 0.65472 0.0
C333 C 0.67815 0.17609 0.67244 0.0
C334 C 0.69357 0.19287 0.69373 0.0
C335 C 0.66761 0.14296 0.6395 0.0
C336 C 0.65192 0.14262 0.61573 0.0
C337 C 0.66544 0.12297 0.64993 0.0
C338 C 0.67973 0.12189 0.6778 0.0
C339 C 0.67969 0.12954 0.7104 0.0
C340 C 0.69354 0.12892 0.7364 0.0
C341 C 0.70729 0.12042 0.73024 0.0
C342 C 0.70717 0.11247 0.69809 0.0
C343 C 0.69341 0.11314 0.67195 0.0
H344 H 0.718 0.11994 0.75039 0.0
H345 H 0.57506 0.12567 0.51334 0.0
H346 H 0.57124 0.57979 0.13424 0.0
H347 H 0.57878 0.61521 0.1521 0.0
H348 H 0.51552 0.60166 0.10383 0.0
H349 H 0.5083 0.56648 0.0852 0.0
H350 H 0.54756 0.64255 0.09128 0.0
H351 H 0.52081 0.5965 0.19192 0.0
H352 H 0.52042 0.57121 0.2359 0.0
H353 H 0.58908 0.62059 0.26651 0.0
H354 H 0.59012 0.64602 0.22208 0.0
H355 H 0.53132 0.71653 0.18918 0.0
H356 H 0.53038 0.68768 0.15637 0.0
H357 H 0.5963 0.70474 0.1989 0.0
H358 H 0.59699 0.73329 0.23201 0.0
H359 H 0.56401 0.66299 0.21269 0.0
H360 H 0.58909 0.70982 0.11232 0.0
H361 H 0.58777 0.73443 0.06868 0.0
H362 H 0.51965 0.68315 0.03938 0.0
H363 H 0.52042 0.65832 0.08318 0.0
C364 C 0.55886 0.5843 0.12771 0.0
C365 C 0.53911 0.57028 0.10849 0.0
C366 C 0.56319 0.60458 0.13787 0.0
C367 C 0.54758 0.6111 0.12971 0.0
C368 C 0.52788 0.59712 0.11038 0.0
C369 C 0.52373 0.57698 0.09982 0.0
C370 C 0.5516 0.63229 0.1417 0.0
C371 C 0.55094 0.64692 0.1179 0.0
C372 C 0.55634 0.63825 0.17634 0.0
C373 C 0.55565 0.62307 0.20337 0.0
C374 C 0.53591 0.60191 0.20781 0.0
C375 C 0.53559 0.58754 0.2328 0.0
C376 C 0.55476 0.59426 0.25389 0.0
C377 C 0.57427 0.61539 0.25008 0.0
C378 C 0.57475 0.62977 0.22496 0.0
C379 C 0.54612 0.71482 0.19008 0.0
C380 C 0.56435 0.72726 0.21274 0.0
C381 C 0.54552 0.69821 0.17155 0.0
C382 C 0.56322 0.69391 0.17531 0.0
C383 C 0.58242 0.70768 0.19565 0.0
C384 C 0.58296 0.72418 0.21422 0.0
C385 C 0.56026 0.67338 0.16225 0.0
C386 C 0.56089 0.65875 0.18599 0.0
C387 C 0.55521 0.66737 0.1277 0.0
C388 C 0.55475 0.68226 0.10125 0.0
C389 C 0.57375 0.70384 0.09677 0.0
C390 C 0.57312 0.71782 0.07196 0.0
C391 C 0.55362 0.71037 0.05133 0.0
C392 C 0.53474 0.68891 0.0554 0.0
C393 C 0.53527 0.67486 0.08019 0.0
H394 H 0.55316 0.72123 0.03214 0.0
H395 H 0.55445 0.58312 0.27328 0.0
H396 H 0.9429 0.49919 0.57566 0.0
H397 H 0.91497 0.50321 0.60783 0.0
H398 H 0.9429 0.56769 0.56247 0.0
H399 H 0.97046 0.56356 0.52991 0.0
H400 H 0.91702 0.53002 0.65456 0.0
H401 H 0.90135 0.57735 0.54636 0.0
H402 H 0.90192 0.57988 0.48341 0.0
H403 H 0.8881 0.51462 0.47871 0.0
H404 H 0.88715 0.51159 0.54158 0.0
H405 H 0.86064 0.58575 0.70719 0.0
H406 H 0.88458 0.58232 0.66456 0.0
H407 H 0.8291 0.51632 0.64599 0.0
H408 H 0.80504 0.51963 0.68827 0.0
H409 H 0.86782 0.55036 0.58994 0.0
H410 H 0.84719 0.50878 0.69235 0.0
H411 H 0.83168 0.50849 0.75419 0.0
H412 H 0.92772 0.5594 0.77805 0.0
H413 H 0.92949 0.555 0.70813 0.0
C414 C 0.94312 0.51425 0.57269 0.0
C415 C 0.95869 0.53094 0.54989 0.0
C416 C 0.92719 0.51655 0.59116 0.0
C417 C 0.92658 0.53563 0.58728 0.0
C418 C 0.94266 0.55261 0.56538 0.0
C419 C 0.95838 0.55021 0.54665 0.0
C420 C 0.90861 0.53753 0.60494 0.0
C421 C 0.90621 0.53442 0.64061 0.0
C422 C 0.89416 0.54278 0.58654 0.0
C423 C 0.8944 0.54435 0.54868 0.0
C424 C 0.89834 0.56352 0.53188 0.0
C425 C 0.89875 0.56504 0.49622 0.0
C426 C 0.89512 0.54745 0.47708 0.0
C427 C 0.89099 0.52826 0.49356 0.0
C428 C 0.89054 0.52664 0.52921 0.0
C429 C 0.8533 0.57074 0.69322 0.0
C430 C 0.83145 0.55254 0.70233 0.0
C431 C 0.86699 0.56876 0.66883 0.0
C432 C 0.85955 0.54813 0.65555 0.0
C433 C 0.83596 0.53173 0.65866 0.0
C434 C 0.82214 0.53367 0.68269 0.0
C435 C 0.87631 0.54345 0.63972 0.0
C436 C 0.8786 0.54602 0.60419 0.0
C437 C 0.89006 0.53683 0.65851 0.0
C438 C 0.88805 0.53246 0.69637 0.0
C439 C 0.86024 0.51892 0.71057 0.0
C440 C 0.85014 0.51781 0.74982 0.0
C441 C 0.86812 0.53027 0.78291 0.0
C442 C 0.91151 0.55 0.76398 0.0
C443 C 0.91279 0.54664 0.72058 0.0
H444 H 0.86015 0.52882 0.80663 0.0
H445 H 0.89546 0.54867 0.44948 0.0
H446 H 0.47381 0.92782 0.03689 0.0
H447 H 0.44025 0.89756 0.06698 0.0
H448 H 0.42246 0.94254 0.10313 0.0
H449 H 0.45571 0.97277 0.07304 0.0
H450 H 0.42758 0.91822 0.15511 0.0
H451 H 0.3885 0.90564 0.04703 0.0
H452 H 0.38322 0.89857 0.98539 0.0
H453 H 0.38149 0.83872 0.00251 0.0
H454 H 0.3871 0.84558 0.06424 0.0
H455 H 0.32411 0.85192 0.24097 0.0
H456 H 0.35159 0.87598 0.19706 0.0
H457 H 0.36065 0.82404 0.16705 0.0
H458 H 0.33284 0.79965 0.21141 0.0
H459 H 0.36066 0.84957 0.11071 0.0
H460 H 0.40345 0.86232 0.21421 0.0
H461 H 0.41176 0.86866 0.2756 0.0
H462 H 0.40826 0.92625 0.26701 0.0
H463 H 0.4005 0.92051 0.20523 0.0
C464 C 0.46247 0.93121 0.05058 0.0
C465 C 0.4676 0.95281 0.05265 0.0
C466 C 0.44326 0.91386 0.06776 0.0
C467 C 0.42888 0.91778 0.08744 0.0
C468 C 0.43334 0.93913 0.08818 0.0
C469 C 0.45236 0.95641 0.0708 0.0
C470 C 0.41063 0.90024 0.10992 0.0
C471 C 0.41281 0.90337 0.14526 0.0
C472 C 0.39186 0.88039 0.09731 0.0
C473 C 0.38848 0.87625 0.06022 0.0
C474 C 0.38723 0.89107 0.03762 0.0
C475 C 0.38412 0.88708 0.00267 0.0
C476 C 0.38209 0.86824 0.99003 0.0
C477 C 0.3831 0.85332 0.01233 0.0
C478 C 0.38623 0.85725 0.04731 0.0
C479 C 0.33177 0.84551 0.22484 0.0
C480 C 0.32655 0.82397 0.22997 0.0
C481 C 0.3475 0.8593 0.19974 0.0
C482 C 0.35855 0.85198 0.17916 0.0
C483 C 0.3524 0.83007 0.18274 0.0
C484 C 0.3365 0.81614 0.208 0.0
C485 C 0.37745 0.86787 0.1557 0.0
C486 C 0.37549 0.86443 0.12039 0.0
C487 C 0.39675 0.88735 0.16821 0.0
C488 C 0.40119 0.89087 0.20528 0.0
C489 C 0.40432 0.87626 0.22549 0.0
C490 C 0.40898 0.87977 0.26032 0.0
C491 C 0.41026 0.8977 0.27533 0.0
C492 C 0.40718 0.91232 0.25539 0.0
C493 C 0.40281 0.90903 0.22041 0.0
H494 H 0.41375 0.90032 0.30237 0.0
H495 H 0.37968 0.86518 0.96296 0.0
H496 H 0.5279 0.42431 0.52439 0.0
H497 H 0.52339 0.39494 0.56242 0.0
H498 H 0.46305 0.38897 0.60745 0.0
H499 H 0.46746 0.41845 0.56929 0.0
H500 H 0.491 0.38673 0.65599 0.0
H501 H 0.45644 0.35235 0.55061 0.0
H502 H 0.45454 0.34776 0.48831 0.0
H503 H 0.51282 0.34042 0.49294 0.0
H504 H 0.51527 0.34527 0.55524 0.0
H505 H 0.45749 0.28424 0.738 0.0
H506 H 0.45596 0.31135 0.70088 0.0
H507 H 0.51662 0.32347 0.64751 0.0
H508 H 0.51809 0.29637 0.68451 0.0
H509 H 0.4854 0.32201 0.60527 0.0
H510 H 0.52347 0.35744 0.71441 0.0
H511 H 0.53372 0.3724 0.78005 0.0
H512 H 0.45599 0.37944 0.76125 0.0
H513 H 0.457 0.36373 0.70048 0.0
C514 C 0.51349 0.41661 0.54202 0.0
C515 C 0.49789 0.42361 0.54348 0.0
C516 C 0.51102 0.3999 0.56396 0.0
C517 C 0.49276 0.38962 0.5876 0.0
C518 C 0.47731 0.39672 0.58948 0.0
C519 C 0.47982 0.41353 0.56759 0.0
C520 C 0.48951 0.37101 0.60944 0.0
C521 C 0.48941 0.37234 0.64516 0.0
C522 C 0.48768 0.35246 0.595 0.0
C523 C 0.48614 0.34935 0.55755 0.0
C524 C 0.46894 0.3499 0.53831 0.0
C525 C 0.46775 0.34723 0.50301 0.0
C526 C 0.48358 0.34384 0.48667 0.0
C527 C 0.50058 0.34306 0.50563 0.0
C528 C 0.50187 0.34575 0.54094 0.0
C529 C 0.4698 0.29199 0.71723 0.0
C530 C 0.48777 0.28814 0.7137 0.0
C531 C 0.46933 0.3079 0.69682 0.0
C532 C 0.48673 0.31998 0.67251 0.0
C533 C 0.50329 0.31456 0.66666 0.0
C534 C 0.50381 0.29871 0.68716 0.0
C535 C 0.4874 0.33781 0.65216 0.0
C536 C 0.48687 0.33626 0.61649 0.0
C537 C 0.48841 0.35598 0.66701 0.0
C538 C 0.48936 0.35936 0.70461 0.0
C539 C 0.5122 0.36145 0.7268 0.0
C540 C 0.51874 0.3713 0.76762 0.0
C541 C 0.48924 0.38131 0.78771 0.0
C542 C 0.4693 0.37602 0.75666 0.0
C543 C 0.47005 0.36578 0.7186 0.0
H544 H 0.48761 0.38803 0.81141 0.0
H545 H 0.48263 0.34179 0.45933 0.0
H546 H 0.57536 0.98916 0.39644 0.0
H547 H 0.57897 0.95929 0.37714 0.0
H548 H 0.51591 0.91251 0.42995 0.0
H549 H 0.51213 0.94233 0.44929 0.0
H550 H 0.54729 0.90185 0.43996 0.0
H551 H 0.51675 0.91945 0.34364 0.0
H552 H 0.51361 0.94233 0.2987 0.0
H553 H 0.57975 0.96036 0.25871 0.0
H554 H 0.58347 0.93778 0.30375 0.0
H555 H 0.52655 0.80974 0.33865 0.0
H556 H 0.52557 0.8375 0.37213 0.0
H557 H 0.5926 0.88691 0.33241 0.0
H558 H 0.59361 0.85926 0.29928 0.0
H559 H 0.55804 0.8951 0.31709 0.0
H560 H 0.58666 0.87515 0.41527 0.0
H561 H 0.58649 0.84975 0.45885 0.0
H562 H 0.51965 0.83324 0.49354 0.0
H563 H 0.51927 0.85832 0.44981 0.0
C564 C 0.56211 0.97254 0.40371 0.0
C565 C 0.5434 0.96823 0.42435 0.0
C566 C 0.56423 0.95543 0.3927 0.0
C567 C 0.54759 0.93357 0.40179 0.0
C568 C 0.52901 0.92921 0.42267 0.0
C569 C 0.5269 0.94633 0.43376 0.0
C570 C 0.54957 0.91533 0.38929 0.0
C571 C 0.54937 0.90023 0.41304 0.0
C572 C 0.55246 0.91323 0.35419 0.0
C573 C 0.55051 0.92712 0.32735 0.0
C574 C 0.53076 0.92847 0.3255 0.0
C575 C 0.52884 0.94133 0.29995 0.0
C576 C 0.54651 0.95281 0.27591 0.0
C577 C 0.56611 0.95144 0.27737 0.0
C578 C 0.56813 0.93861 0.30289 0.0
C579 C 0.54153 0.82631 0.33852 0.0
C580 C 0.56025 0.83237 0.31672 0.0
C581 C 0.54089 0.84221 0.35737 0.0
C582 C 0.55894 0.86433 0.35451 0.0
C583 C 0.57847 0.86998 0.33494 0.0
C584 C 0.57915 0.85414 0.31632 0.0
C585 C 0.55622 0.88193 0.36777 0.0
C586 C 0.5561 0.89682 0.34404 0.0
C587 C 0.55263 0.88354 0.40272 0.0
C588 C 0.55283 0.86845 0.42901 0.0
C589 C 0.57182 0.86594 0.43196 0.0
C590 C 0.57185 0.85164 0.45675 0.0
C591 C 0.55304 0.83984 0.47889 0.0
C592 C 0.53419 0.84236 0.47634 0.0
C593 C 0.53407 0.85664 0.45158 0.0
H594 H 0.5531 0.82877 0.49807 0.0
H595 H 0.54498 0.96273 0.2561 0.0
H596 H 0.59552 0.51688 0.01452 0.0
H597 H 0.63125 0.53102 0.98343 0.0
H598 H 0.61137 0.56456 0.91177 0.0
H599 H 0.57464 0.54974 0.94275 0.0
H600 H 0.62869 0.54453 0.87936 0.0
H601 H 0.65457 0.59328 0.97171 0.0
H602 H 0.65828 0.60424 0.0316 0.0
H603 H 0.69098 0.56882 0.05706 0.0
H604 H 0.68716 0.55737 0.99744 0.0
H605 H 0.73594 0.59032 0.8018 0.0
H606 H 0.7112 0.59384 0.84206 0.0
H607 H 0.70576 0.54099 0.9041 0.0
H608 H 0.73034 0.53721 0.86347 0.0
H609 H 0.70394 0.57801 0.93992 0.0
H610 H 0.66739 0.52198 0.85197 0.0
H611 H 0.66502 0.51119 0.79215 0.0
H612 H 0.65422 0.56228 0.7591 0.0
H613 H 0.65652 0.57334 0.8188 0.0
C614 C 0.59866 0.52739 0.9923 0.0
C615 C 0.58224 0.53232 0.98127 0.0
C616 C 0.61929 0.53562 0.97465 0.0
C617 C 0.62434 0.54934 0.94577 0.0
C618 C 0.60793 0.55419 0.93427 0.0
C619 C 0.58699 0.54574 0.95193 0.0
C620 C 0.64631 0.55742 0.92704 0.0
C621 C 0.64518 0.55237 0.89248 0.0
C622 C 0.6679 0.56735 0.94419 0.0
C623 C 0.67048 0.57439 0.98007 0.0
C624 C 0.66244 0.58772 0.99011 0.0
C625 C 0.66457 0.59403 0.02402 0.0
C626 C 0.67484 0.58721 0.04812 0.0
C627 C 0.68304 0.5741 0.03836 0.0
C628 C 0.68093 0.56773 0.00448 0.0
C629 C 0.73038 0.58018 0.82491 0.0
C630 C 0.73482 0.56338 0.82953 0.0
C631 C 0.71622 0.58217 0.8478 0.0
C632 C 0.70648 0.56749 0.8757 0.0
C633 C 0.71324 0.55251 0.8827 0.0
C634 C 0.72734 0.55041 0.85961 0.0
C635 C 0.68596 0.56474 0.89288 0.0
C636 C 0.68744 0.57068 0.9269 0.0
C637 C 0.66469 0.55572 0.87536 0.0
C638 C 0.66221 0.54852 0.83971 0.0
C639 C 0.66447 0.53087 0.83191 0.0
C640 C 0.66309 0.52468 0.79808 0.0
C641 C 0.65938 0.53598 0.77186 0.0
C642 C 0.65695 0.55345 0.77944 0.0
C643 C 0.65823 0.55965 0.81328 0.0
H644 H 0.65842 0.53119 0.74573 0.0
H645 H 0.67646 0.5921 0.07437 0.0
H646 H 0.07857 0.59855 0.54442 0.0
H647 H 0.11214 0.62882 0.51463 0.0
H648 H 0.12153 0.58259 0.46158 0.0
H649 H 0.08878 0.55241 0.49252 0.0
H650 H 0.16161 0.61644 0.47155 0.0
H651 H 0.09112 0.60653 0.42684 0.0
H652 H 0.05355 0.60362 0.42891 0.0
H653 H 0.08689 0.66913 0.46551 0.0
H654 H 0.12464 0.67232 0.46411 0.0
H655 H 0.21053 0.67649 0.31519 0.0
H656 H 0.1868 0.65076 0.36106 0.0
H657 H 0.19319 0.70405 0.41763 0.0
H658 H 0.21707 0.72995 0.3716 0.0
H659 H 0.14753 0.66926 0.41006 0.0
H660 H 0.2197 0.67895 0.44641 0.0
H661 H 0.25606 0.68009 0.43889 0.0
H662 H 0.21776 0.61255 0.41113 0.0
H663 H 0.18117 0.61108 0.41802 0.0
C664 C 0.08812 0.59486 0.52699 0.0
C665 C 0.08085 0.57301 0.52077 0.0
C666 C 0.10721 0.6122 0.50966 0.0
C667 C 0.11908 0.60809 0.48494 0.0
C668 C 0.11269 0.58632 0.48028 0.0
C669 C 0.0939 0.569 0.4981 0.0
C670 C 0.13715 0.62619 0.46256 0.0
C671 C 0.15841 0.62787 0.45799 0.0
C672 C 0.1333 0.64142 0.44495 0.0
C673 C 0.11065 0.63957 0.44576 0.0
C674 C 0.09041 0.62026 0.43557 0.0
C675 C 0.06909 0.61856 0.43659 0.0
C676 C 0.06783 0.63616 0.44744 0.0
C677 C 0.08789 0.6555 0.45719 0.0
C678 C 0.10925 0.65727 0.45628 0.0
C679 C 0.2072 0.68278 0.33767 0.0
C680 C 0.21568 0.70526 0.3398 0.0
C681 C 0.19369 0.66806 0.36394 0.0
C682 C 0.18823 0.67544 0.39291 0.0
C683 C 0.19722 0.69797 0.39557 0.0
C684 C 0.211 0.71278 0.3694 0.0
C685 C 0.17182 0.65939 0.41903 0.0
C686 C 0.15082 0.65802 0.42409 0.0
C687 C 0.17571 0.64417 0.43639 0.0
C688 C 0.19769 0.64496 0.43251 0.0
C689 C 0.21903 0.66438 0.43847 0.0
C690 C 0.23968 0.66508 0.43436 0.0
C691 C 0.23922 0.64642 0.42448 0.0
C692 C 0.21809 0.627 0.41877 0.0
C693 C 0.19739 0.62622 0.42283 0.0
H694 H 0.25523 0.64699 0.42131 0.0
H695 H 0.05131 0.63482 0.4482 0.0
H696 H 0.47929 0.06936 0.04476 0.0
H697 H 0.47685 0.09596 0.00778 0.0
H698 H 0.55058 0.13174 0.99219 0.0
H699 H 0.55309 0.10489 0.0289 0.0
H700 H 0.52624 0.15736 0.00589 0.0
H701 H 0.52696 0.1039 0.93222 0.0
H702 H 0.51294 0.06642 0.91373 0.0
H703 H 0.44412 0.05331 0.90425 0.0
H704 H 0.45771 0.09071 0.92262 0.0
H705 H 0.54305 0.22026 0.85363 0.0
H706 H 0.54285 0.19837 0.90275 0.0
H707 H 0.47064 0.15047 0.88513 0.0
H708 H 0.47122 0.17212 0.83526 0.0
H709 H 0.49239 0.13073 0.8915 0.0
H710 H 0.49032 0.18382 0.95702 0.0
H711 H 0.50167 0.22053 0.97582 0.0
H712 H 0.56873 0.23367 0.00396 0.0
H713 H 0.5579 0.19714 0.98487 0.0
C714 C 0.49506 0.08318 0.03417 0.0
C715 C 0.51643 0.08515 0.03982 0.0
C716 C 0.49361 0.09826 0.0129 0.0
C717 C 0.51353 0.11574 0.99735 0.0
C718 C 0.53505 0.11838 0.00415 0.0
C719 C 0.53646 0.10306 0.02497 0.0
C720 C 0.51158 0.13024 0.97202 0.0
C721 C 0.51909 0.15173 0.9807 0.0
C722 C 0.50147 0.12251 0.93976 0.0
C723 C 0.49329 0.09997 0.92919 0.0
C724 C 0.5088 0.09294 0.92654 0.0
C725 C 0.50096 0.07175 0.916 0.0
C726 C 0.47766 0.05746 0.90808 0.0
C727 C 0.46216 0.06437 0.9105 0.0
C728 C 0.46992 0.08557 0.92088 0.0
C729 C 0.52706 0.20531 0.86092 0.0
C730 C 0.50709 0.19786 0.8412 0.0
C731 C 0.5269 0.19283 0.88898 0.0
C732 C 0.50666 0.17281 0.89793 0.0
C733 C 0.48645 0.16584 0.8788 0.0
C734 C 0.4867 0.17822 0.85053 0.0
C735 C 0.50721 0.15821 0.92499 0.0
C736 C 0.49943 0.13656 0.91668 0.0
C737 C 0.51671 0.16576 0.95777 0.0
C738 C 0.52336 0.18779 0.96921 0.0
C739 C 0.50756 0.1946 0.96694 0.0
C740 C 0.51389 0.21537 0.9777 0.0
C741 C 0.53592 0.22944 0.991 0.0
C742 C 0.55167 0.22276 0.99362 0.0
C743 C 0.54544 0.20201 0.98287 0.0
H744 H 0.54079 0.24551 0.99933 0.0
H745 H 0.47164 0.04107 0.89992 0.0
H746 H 0.45461 0.53635 0.52197 0.0
H747 H 0.42442 0.53558 0.48643 0.0
H748 H 0.40792 0.47415 0.44535 0.0
H749 H 0.43776 0.47462 0.48088 0.0
H750 H 0.41586 0.50484 0.395 0.0
H751 H 0.37056 0.47447 0.49669 0.0
H752 H 0.36143 0.47288 0.55774 0.0
H753 H 0.3632 0.53305 0.54575 0.0
H754 H 0.37268 0.53517 0.48467 0.0
H755 H 0.29612 0.47991 0.33753 0.0
H756 H 0.32076 0.48097 0.38459 0.0
H757 H 0.37935 0.53853 0.33838 0.0
H758 H 0.35496 0.53714 0.29103 0.0
H759 H 0.34906 0.5083 0.43337 0.0
H760 H 0.42563 0.53489 0.34269 0.0
H761 H 0.43236 0.53404 0.28117 0.0
H762 H 0.3649 0.47599 0.27154 0.0
H763 H 0.3578 0.47636 0.33299 0.0
C764 C 0.44421 0.52242 0.50597 0.0
C765 C 0.44872 0.50557 0.50436 0.0
C766 C 0.42698 0.52203 0.48558 0.0
C767 C 0.41397 0.50486 0.46303 0.0
C768 C 0.4178 0.48762 0.46239 0.0
C769 C 0.43481 0.48787 0.48297 0.0
C770 C 0.39741 0.50548 0.43859 0.0
C771 C 0.4013 0.50563 0.40347 0.0
C772 C 0.37823 0.50629 0.44949 0.0
C773 C 0.37257 0.5051 0.48619 0.0
C774 C 0.36922 0.48748 0.50713 0.0
C775 C 0.36393 0.48646 0.54173 0.0
C776 C 0.3618 0.50289 0.55564 0.0
C777 C 0.36489 0.52035 0.53495 0.0
C778 C 0.3702 0.52146 0.50033 0.0
C779 C 0.31413 0.49308 0.33792 0.0
C780 C 0.32367 0.50832 0.31048 0.0
C781 C 0.32822 0.49366 0.36478 0.0
C782 C 0.35205 0.50955 0.36471 0.0
C783 C 0.36115 0.52582 0.33869 0.0
C784 C 0.34718 0.52507 0.3117 0.0
C785 C 0.36774 0.50797 0.38985 0.0
C786 C 0.36372 0.50764 0.42499 0.0
C787 C 0.38665 0.50665 0.37904 0.0
C788 C 0.39115 0.50574 0.34238 0.0
C789 C 0.41231 0.52185 0.32749 0.0
C790 C 0.41618 0.52147 0.29264 0.0
C791 C 0.3991 0.50497 0.2725 0.0
C792 C 0.37812 0.48876 0.28717 0.0
C793 C 0.37416 0.48905 0.32199 0.0
H794 H 0.40211 0.50475 0.24552 0.0
H795 H 0.35769 0.50206 0.58243 0.0
H796 H 0.99169 0.44178 0.93676 0.0
H797 H 0.95468 0.40781 0.92535 0.0
H798 H 0.94411 0.43933 0.83822 0.0
H799 H 0.98132 0.4732 0.84929 0.0
H800 H 0.90562 0.41662 0.88863 0.0
H801 H 0.95723 0.40595 0.82127 0.0
H802 H 0.99108 0.40322 0.81128 0.0
H803 H 0.96568 0.35041 0.88549 0.0
H804 H 0.93175 0.35299 0.89609 0.0
H805 H 0.819 0.33394 0.78798 0.0
H806 H 0.84908 0.36437 0.81998 0.0
H807 H 0.86011 0.31958 0.87983 0.0
H808 H 0.83051 0.28911 0.84629 0.0
H809 H 0.89804 0.34798 0.8518 0.0
H810 H 0.84431 0.35521 0.91567 0.0
H811 H 0.81026 0.35743 0.92684 0.0
H812 H 0.83885 0.4158 0.86377 0.0
H813 H 0.87293 0.41378 0.85177 0.0
C814 C 0.98157 0.44127 0.9149 0.0
C815 C 0.98937 0.45997 0.89373 0.0
C816 C 0.96048 0.42197 0.90848 0.0
C817 C 0.94665 0.42116 0.8811 0.0
C818 C 0.95454 0.4397 0.85957 0.0
C819 C 0.97586 0.45891 0.86563 0.0
C820 C 0.92378 0.40106 0.87526 0.0
C821 C 0.90383 0.40159 0.88031 0.0
C822 C 0.9216 0.38131 0.86588 0.0
C823 C 0.94208 0.37984 0.85972 0.0
C824 C 0.95896 0.39389 0.83565 0.0
C825 C 0.97814 0.39234 0.82983 0.0
C826 C 0.98058 0.3767 0.84783 0.0
C827 C 0.9638 0.36255 0.87161 0.0
C828 C 0.94457 0.36404 0.8775 0.0
C829 C 0.82695 0.33047 0.80925 0.0
C830 C 0.82243 0.30922 0.81481 0.0
C831 C 0.84429 0.34794 0.82756 0.0
C832 C 0.8571 0.34442 0.85235 0.0
C833 C 0.85061 0.32277 0.8607 0.0
C834 C 0.83341 0.30528 0.84197 0.0
C835 C 0.87943 0.36335 0.86467 0.0
C836 C 0.8995 0.36273 0.86077 0.0
C837 C 0.88165 0.38293 0.87553 0.0
C838 C 0.86115 0.38425 0.88267 0.0
C839 C 0.84328 0.36843 0.90397 0.0
C840 C 0.82397 0.36967 0.91048 0.0
C841 C 0.82237 0.38672 0.89599 0.0
C842 C 0.84011 0.4026 0.87499 0.0
C843 C 0.85945 0.40143 0.86837 0.0
H844 H 0.80741 0.38765 0.90106 0.0
H845 H 0.99544 0.37551 0.84329 0.0
H846 H 0.97771 0.54731 0.98144 0.0
H847 H 0.94292 0.547 0.96377 0.0
H848 H 0.92993 0.50055 0.88612 0.0
H849 H 0.96509 0.50169 0.90284 0.0
H850 H 0.92701 0.53092 0.85801 0.0
H851 H 0.89416 0.48749 0.9594 0.0
H852 H 0.89155 0.4775 0.02061 0.0
H853 H 0.89162 0.53497 0.04596 0.0
H854 H 0.89453 0.54547 0.9849 0.0
H855 H 0.80785 0.50647 0.83052 0.0
H856 H 0.83417 0.50073 0.86642 0.0
H857 H 0.88065 0.5705 0.87276 0.0
H858 H 0.85553 0.57627 0.83449 0.0
H859 H 0.86625 0.5257 0.93303 0.0
H860 H 0.90505 0.57314 0.83183 0.0
H861 H 0.89421 0.58451 0.77256 0.0
H862 H 0.88051 0.50308 0.73809 0.0
H863 H 0.89145 0.50238 0.80631 0.0
C864 C 0.96696 0.53656 0.96136 0.0
C865 C 0.97387 0.52436 0.94371 0.0
C866 C 0.9471 0.5364 0.95113 0.0
C867 C 0.93362 0.52371 0.92349 0.0
C868 C 0.93999 0.51061 0.90726 0.0
C869 C 0.95996 0.51108 0.91706 0.0
C870 C 0.91407 0.52534 0.90965 0.0
C871 C 0.91363 0.52955 0.87441 0.0
C872 C 0.89651 0.52361 0.93083 0.0
C873 C 0.89477 0.51737 0.96758 0.0
C874 C 0.8938 0.49809 0.97804 0.0
C875 C 0.89223 0.49232 0.01271 0.0
C876 C 0.89148 0.50562 0.03716 0.0
C877 C 0.89223 0.5247 0.02699 0.0
C878 C 0.89381 0.53055 0.99235 0.0
C879 C 0.82344 0.52058 0.84021 0.0
C880 C 0.8301 0.54183 0.82852 0.0
C881 C 0.83854 0.51728 0.86077 0.0
C882 C 0.86058 0.53523 0.86935 0.0
C883 C 0.86486 0.55639 0.86356 0.0
C884 C 0.85026 0.55971 0.84219 0.0
C885 C 0.87951 0.53196 0.8818 0.0
C886 C 0.87967 0.52709 0.91668 0.0
C887 C 0.89686 0.53294 0.86003 0.0
C888 C 0.89814 0.53765 0.8225 0.0
C889 C 0.89921 0.56124 0.81204 0.0
C890 C 0.89268 0.56883 0.77473 0.0
C891 C 0.88444 0.55277 0.74017 0.0
C892 C 0.88416 0.51683 0.75382 0.0
C893 C 0.89194 0.51666 0.79595 0.0
H894 H 0.88177 0.55942 0.71738 0.0
H895 H 0.89027 0.50112 0.06399 0.0
H896 H 0.43228 0.97533 0.47009 0.0
H897 H 0.39811 0.9399 0.45747 0.0
H898 H 0.42933 0.90738 0.5056 0.0
H899 H 0.46399 0.9431 0.51803 0.0
H900 H 0.41467 0.89276 0.44294 0.0
H901 H 0.38034 0.90197 0.53976 0.0
H902 H 0.36956 0.92116 0.57898 0.0
H903 H 0.32998 0.92831 0.49962 0.0
H904 H 0.34079 0.90944 0.45973 0.0
H905 H 0.3184 0.79715 0.37834 0.0
H906 H 0.34063 0.82063 0.42607 0.0
H907 H 0.33137 0.87145 0.38467 0.0
H908 H 0.30937 0.84814 0.33706 0.0
H909 H 0.33293 0.87068 0.45688 0.0
H910 H 0.37378 0.86824 0.35861 0.0
H911 H 0.38304 0.84822 0.31889 0.0
H912 H 0.41184 0.82977 0.4012 0.0
H913 H 0.40142 0.84861 0.44189 0.0
C914 C 0.43174 0.96066 0.47869 0.0
C915 C 0.4509 0.96204 0.49494 0.0
C916 C 0.41206 0.94035 0.47164 0.0
C917 C 0.411 0.9209 0.48078 0.0
C918 C 0.42971 0.92217 0.49843 0.0
C919 C 0.44945 0.94258 0.50567 0.0
C920 C 0.39154 0.89966 0.46821 0.0
C921 C 0.39676 0.88758 0.44689 0.0
C922 C 0.36815 0.89306 0.47277 0.0
C923 C 0.36147 0.90434 0.49669 0.0
C924 C 0.36946 0.90775 0.53058 0.0
C925 C 0.36332 0.91856 0.55296 0.0
C926 C 0.34911 0.92596 0.54179 0.0
C927 C 0.34097 0.92255 0.50824 0.0
C928 C 0.34707 0.91176 0.48575 0.0
C929 C 0.32037 0.813 0.38028 0.0
C930 C 0.31235 0.82096 0.35409 0.0
C931 C 0.33311 0.82641 0.40743 0.0
C932 C 0.33788 0.84788 0.40867 0.0
C933 C 0.32787 0.85495 0.38427 0.0
C934 C 0.31538 0.84167 0.35704 0.0
C935 C 0.35621 0.86424 0.43129 0.0
C936 C 0.3508 0.87549 0.45407 0.0
C937 C 0.37948 0.87018 0.42803 0.0
C938 C 0.38647 0.85953 0.4034 0.0
C939 C 0.38186 0.85973 0.36834 0.0
C940 C 0.38733 0.8486 0.34562 0.0
C941 C 0.39816 0.83784 0.35744 0.0
C942 C 0.40342 0.83809 0.39208 0.0
C943 C 0.39759 0.84886 0.41503 0.0
H944 H 0.40246 0.82929 0.33977 0.0
H945 H 0.34438 0.93433 0.55915 0.0
H946 H 0.48095 0.40411 0.00942 0.0
H947 H 0.48205 0.37773 0.97306 0.0
H948 H 0.53605 0.43081 0.91229 0.0
H949 H 0.53448 0.45724 0.94814 0.0
H950 H 0.50807 0.39834 0.87188 0.0
H951 H 0.5482 0.40388 0.97574 0.0
H952 H 0.5535 0.4037 0.03809 0.0
H953 H 0.49641 0.33695 0.04558 0.0
H954 H 0.49058 0.33683 0.9833 0.0
H955 H 0.54622 0.33261 0.8016 0.0
H956 H 0.54605 0.36091 0.83443 0.0
H957 H 0.48746 0.31069 0.89222 0.0
H958 H 0.48774 0.28243 0.85953 0.0
H959 H 0.51874 0.34286 0.93143 0.0
H960 H 0.47851 0.33448 0.82133 0.0
H961 H 0.46731 0.33613 0.75404 0.0
H962 H 0.53964 0.42468 0.76324 0.0
H963 H 0.54042 0.41041 0.82693 0.0
C964 C 0.49303 0.41014 0.98829 0.0
C965 C 0.50779 0.43275 0.9819 0.0
C966 C 0.49364 0.39506 0.96744 0.0
C967 C 0.50946 0.40222 0.94021 0.0
C968 C 0.5237 0.42482 0.93308 0.0
C969 C 0.52283 0.43992 0.95365 0.0
C970 C 0.51199 0.38618 0.9206 0.0
C971 C 0.51073 0.38635 0.88469 0.0
C972 C 0.51528 0.37044 0.93745 0.0
C973 C 0.51883 0.37041 0.9749 0.0
C974 C 0.53669 0.38921 0.99071 0.0
C975 C 0.5398 0.38916 0.02604 0.0
C976 C 0.52527 0.37035 0.0458 0.0
C977 C 0.50764 0.35152 0.03025 0.0
C978 C 0.50443 0.35149 0.99494 0.0
C979 C 0.53402 0.32768 0.82243 0.0
C980 C 0.51726 0.3054 0.82862 0.0
C981 C 0.53349 0.34382 0.84039 0.0
C982 C 0.51619 0.33788 0.86475 0.0
C983 C 0.50072 0.31559 0.87304 0.0
C984 C 0.5012 0.29945 0.85501 0.0
C985 C 0.51455 0.35476 0.88257 0.0
C986 C 0.51611 0.35481 0.91832 0.0
C987 C 0.51209 0.37091 0.86518 0.0
C988 C 0.51037 0.3723 0.82719 0.0
C989 C 0.48866 0.34976 0.80706 0.0
C990 C 0.48148 0.35112 0.7651 0.0
C991 C 0.50817 0.39093 0.74002 0.0
C992 C 0.52746 0.40764 0.7699 0.0
C993 C 0.52784 0.39821 0.80993 0.0
H994 H 0.50902 0.39836 0.71491 0.0
H995 H 0.5277 0.37034 0.07314 0.0
H996 H 0.03612 0.45689 0.40804 0.0
H997 H 0.06644 0.45173 0.38694 0.0
H998 H 0.11855 0.51576 0.42185 0.0
H999 H 0.08842 0.52118 0.44215 0.0
H1000 H 0.12835 0.50877 0.35907 0.0
H1001 H 0.1054 0.46955 0.46757 0.0
H1002 H 0.07756 0.44223 0.5093 0.0
H1003 H 0.0601 0.39075 0.4398 0.0
H1004 H 0.08761 0.41781 0.39745 0.0
H1005 H 0.22444 0.50382 0.33537 0.0
H1006 H 0.19576 0.5027 0.37348 0.0
H1007 H 0.14323 0.44085 0.33235 0.0
H1008 H 0.17191 0.44189 0.29446 0.0
H1009 H 0.13389 0.44606 0.40039 0.0
H1010 H 0.15264 0.48377 0.29075 0.0
H1011 H 0.1793 0.50982 0.24667 0.0
H1012 H 0.20294 0.56273 0.31576 0.0
H1013 H 0.17657 0.53692 0.36039 0.0
C1014 C 0.05402 0.46996 0.41075 0.0
C1015 C 0.05989 0.48938 0.42697 0.0
C1016 C 0.07133 0.46691 0.39906 0.0
C1017 C 0.09477 0.48322 0.40338 0.0
C1018 C 0.1006 0.50289 0.41851 0.0
C1019 C 0.08336 0.50592 0.43024 0.0
C1020 C 0.11334 0.48 0.39202 0.0
C1021 C 0.12973 0.49524 0.36855 0.0
C1022 C 0.11481 0.46202 0.40368 0.0
C1023 C 0.09841 0.44573 0.42922 0.0
C1024 C 0.0955 0.45242 0.46109 0.0
C1025 C 0.0798 0.43698 0.48487 0.0
C1026 C 0.06703 0.41477 0.47717 0.0
C1027 C 0.06998 0.40796 0.44571 0.0
C1028 C 0.08564 0.42334 0.42182 0.0
C1029 C 0.2071 0.48939 0.33595 0.0
C1030 C 0.20026 0.47303 0.31189 0.0
C1031 C 0.19067 0.48885 0.35747 0.0
C1032 C 0.16729 0.47197 0.35502 0.0
C1033 C 0.16114 0.45408 0.3345 0.0
C1034 C 0.17755 0.45463 0.31296 0.0
C1035 C 0.149 0.47504 0.36802 0.0
C1036 C 0.13259 0.45971 0.39136 0.0
C1037 C 0.14725 0.49278 0.35597 0.0
C1038 C 0.16282 0.5084 0.32901 0.0
C1039 C 0.16363 0.50094 0.2966 0.0
C1040 C 0.17867 0.51565 0.27152 0.0
C1041 C 0.19287 0.5379 0.27846 0.0
C1042 C 0.19196 0.54549 0.31045 0.0
C1043 C 0.17696 0.53083 0.33563 0.0
H1044 H 0.20452 0.54926 0.25903 0.0
H1045 H 0.05488 0.40285 0.49561 0.0
H1046 H 0.54598 0.06989 0.94171 0.0
H1047 H 0.58028 0.099 0.91222 0.0
H1048 H 0.6178 0.0687 0.94347 0.0
H1049 H 0.58345 0.03969 0.97387 0.0
H1050 H 0.6438 0.11045 0.95344 0.0
H1051 H 0.60022 0.06854 0.85846 0.0
H1052 H 0.56632 0.04837 0.82101 0.0
H1053 H 0.56604 0.10703 0.80131 0.0
H1054 H 0.59978 0.12751 0.839 0.0
H1055 H 0.73469 0.1766 0.82742 0.0
H1056 H 0.70467 0.14792 0.86506 0.0
H1057 H 0.66654 0.17992 0.85815 0.0
H1058 H 0.69661 0.20862 0.82105 0.0
H1059 H 0.64235 0.13616 0.83527 0.0
H1060 H 0.68694 0.17753 0.93206 0.0
H1061 H 0.72186 0.19668 0.96781 0.0
H1062 H 0.72145 0.13726 0.98129 0.0
H1063 H 0.68669 0.11781 0.94518 0.0
C1064 C 0.5613 0.06907 0.9416 0.0
C1065 C 0.56181 0.05225 0.95973 0.0
C1066 C 0.58103 0.08583 0.92477 0.0
C1067 C 0.6017 0.08602 0.92515 0.0
C1068 C 0.60213 0.06899 0.94273 0.0
C1069 C 0.58242 0.05231 0.9599 0.0
C1070 C 0.62298 0.10446 0.90837 0.0
C1071 C 0.64353 0.11581 0.92739 0.0
C1072 C 0.62274 0.11176 0.87449 0.0
C1073 C 0.60242 0.09951 0.85181 0.0
C1074 C 0.59283 0.0771 0.84635 0.0
C1075 C 0.57366 0.06562 0.82504 0.0
C1076 C 0.564 0.0764 0.80886 0.0
C1077 C 0.57353 0.0987 0.81389 0.0
C1078 C 0.5927 0.11026 0.83519 0.0
C1079 C 0.7205 0.17807 0.8355 0.0
C1080 C 0.71817 0.19504 0.82207 0.0
C1081 C 0.70323 0.16157 0.85664 0.0
C1082 C 0.6833 0.16172 0.86423 0.0
C1083 C 0.68177 0.17948 0.85264 0.0
C1084 C 0.69908 0.19603 0.83186 0.0
C1085 C 0.66287 0.14227 0.88055 0.0
C1086 C 0.64254 0.13069 0.86129 0.0
C1087 C 0.66347 0.13461 0.91391 0.0
C1088 C 0.68437 0.14628 0.93559 0.0
C1089 C 0.69443 0.1686 0.94235 0.0
C1090 C 0.71416 0.17949 0.96275 0.0
C1091 C 0.72391 0.16821 0.97673 0.0
C1092 C 0.71391 0.14599 0.9704 0.0
C1093 C 0.69418 0.13501 0.94999 0.0
H1094 H 0.73919 0.17667 0.99253 0.0
H1095 H 0.54917 0.06748 0.79237 0.0
H1096 H 0.49163 0.54978 0.42459 0.0
H1097 H 0.49162 0.58299 0.41132 0.0
H1098 H 0.56614 0.62105 0.41379 0.0
H1099 H 0.5663 0.58806 0.42857 0.0
H1100 H 0.54835 0.6408 0.44805 0.0
H1101 H 0.53574 0.60594 0.34001 0.0
H1102 H 0.51511 0.57498 0.30131 0.0
H1103 H 0.45369 0.57675 0.31039 0.0
H1104 H 0.47358 0.60704 0.35063 0.0
H1105 H 0.58093 0.73382 0.34367 0.0
H1106 H 0.57276 0.70236 0.37953 0.0
H1107 H 0.49959 0.67406 0.36475 0.0
H1108 H 0.50799 0.7055 0.32788 0.0
H1109 H 0.51142 0.64785 0.34291 0.0
H1110 H 0.52516 0.68539 0.44655 0.0
H1111 H 0.54547 0.71569 0.48657 0.0
H1112 H 0.60462 0.70973 0.48491 0.0
H1113 H 0.58482 0.6796 0.44449 0.0
C1114 C 0.50804 0.5652 0.42238 0.0
C1115 C 0.52897 0.56618 0.42773 0.0
C1116 C 0.50799 0.58417 0.41466 0.0
C1117 C 0.52888 0.6045 0.41154 0.0
C1118 C 0.54982 0.60553 0.41623 0.0
C1119 C 0.54988 0.58657 0.42417 0.0
C1120 C 0.529 0.62471 0.40298 0.0
C1121 C 0.54042 0.64246 0.42496 0.0
C1122 C 0.51791 0.62653 0.37348 0.0
C1123 C 0.50609 0.60862 0.34868 0.0
C1124 C 0.51777 0.59962 0.33403 0.0
C1125 C 0.50623 0.58221 0.31178 0.0
C1126 C 0.48319 0.57402 0.30318 0.0
C1127 C 0.47156 0.58313 0.31705 0.0
C1128 C 0.48293 0.60036 0.33973 0.0
C1129 C 0.5631 0.72147 0.34973 0.0
C1130 C 0.54507 0.72207 0.33341 0.0
C1131 C 0.55839 0.70339 0.37015 0.0
C1132 C 0.53552 0.68571 0.37481 0.0
C1133 C 0.51736 0.68747 0.36148 0.0
C1134 C 0.52212 0.70555 0.34083 0.0
C1135 C 0.53111 0.66425 0.38773 0.0
C1136 C 0.51896 0.64619 0.36643 0.0
C1137 C 0.54153 0.66218 0.41785 0.0
C1138 C 0.55351 0.68027 0.44231 0.0
C1139 C 0.54256 0.69063 0.45452 0.0
C1140 C 0.55397 0.70777 0.47732 0.0
C1141 C 0.57633 0.71465 0.48824 0.0
C1142 C 0.5873 0.70438 0.47644 0.0
C1143 C 0.57597 0.68723 0.45363 0.0
H1144 H 0.58514 0.72793 0.50588 0.0
H1145 H 0.47438 0.56062 0.28577 0.0
H1146 H 0.49689 0.08856 0.49709 0.0
H1147 H 0.49659 0.11568 0.53279 0.0
H1148 H 0.54158 0.11019 0.605 0.0
H1149 H 0.54144 0.08282 0.56986 0.0
H1150 H 0.50986 0.10986 0.63834 0.0
H1151 H 0.55944 0.15597 0.54618 0.0
H1152 H 0.56987 0.16805 0.48611 0.0
H1153 H 0.51336 0.17786 0.47706 0.0
H1154 H 0.50241 0.16549 0.537 0.0
H1155 H 0.5463 0.20056 0.73819 0.0
H1156 H 0.54777 0.17892 0.69271 0.0
H1157 H 0.49211 0.17941 0.64058 0.0
H1158 H 0.4906 0.20124 0.68631 0.0
H1159 H 0.52653 0.18227 0.59565 0.0
H1160 H 0.47855 0.13743 0.68969 0.0
H1161 H 0.47003 0.12677 0.75059 0.0
H1162 H 0.52566 0.11555 0.75619 0.0
H1163 H 0.53478 0.12654 0.69544 0.0
C1164 C 0.5069 0.09333 0.5204 0.0
C1165 C 0.51911 0.08346 0.53068 0.0
C1166 C 0.50678 0.1089 0.5408 0.0
C1167 C 0.51929 0.11528 0.57155 0.0
C1168 C 0.53167 0.10555 0.58156 0.0
C1169 C 0.53155 0.08983 0.56145 0.0
C1170 C 0.51891 0.1314 0.59413 0.0
C1171 C 0.51381 0.12577 0.62891 0.0
C1172 C 0.52335 0.15201 0.58193 0.0
C1173 C 0.52997 0.15956 0.54596 0.0
C1174 C 0.54914 0.16052 0.5313 0.0
C1175 C 0.55516 0.16745 0.49728 0.0
C1176 C 0.54224 0.17366 0.47773 0.0
C1177 C 0.52332 0.17301 0.49221 0.0
C1178 C 0.51721 0.16605 0.52621 0.0
C1179 C 0.53464 0.19639 0.71674 0.0
C1180 C 0.51812 0.20233 0.71601 0.0
C1181 C 0.5355 0.18403 0.69077 0.0
C1182 C 0.51975 0.17718 0.6636 0.0
C1183 C 0.50436 0.18445 0.6614 0.0
C1184 C 0.50354 0.19695 0.68746 0.0
C1185 C 0.51808 0.1608 0.63965 0.0
C1186 C 0.52259 0.16631 0.60479 0.0
C1187 C 0.51327 0.1401 0.65173 0.0
C1188 C 0.50746 0.13297 0.68807 0.0
C1189 C 0.48905 0.13281 0.70395 0.0
C1190 C 0.48411 0.12671 0.73845 0.0
C1191 C 0.49732 0.12053 0.75726 0.0
C1192 C 0.51545 0.12036 0.74158 0.0
C1193 C 0.5205 0.12651 0.70712 0.0
H1194 H 0.49349 0.11583 0.78397 0.0
H1195 H 0.54692 0.17903 0.4514 0.0
H1196 H 0.42863 0.45993 0.04831 0.0
H1197 H 0.39687 0.46325 0.0663 0.0
H1198 H 0.43336 0.53039 0.02925 0.0
H1199 H 0.46589 0.52727 0.01194 0.0
H1200 H 0.41994 0.52794 0.09251 0.0
H1201 H 0.38067 0.4895 0.99292 0.0
H1202 H 0.36662 0.46082 0.95 0.0
H1203 H 0.3267 0.41151 0.02685 0.0
H1204 H 0.34074 0.43983 0.07035 0.0
H1205 H 0.3263 0.52999 0.16562 0.0
H1206 H 0.35019 0.5305 0.11877 0.0
H1207 H 0.33538 0.46683 0.1523 0.0
H1208 H 0.31181 0.46648 0.1992 0.0
H1209 H 0.33631 0.47228 0.08017 0.0
H1210 H 0.38186 0.50957 0.17993 0.0
H1211 H 0.39609 0.53751 0.22414 0.0
H1212 H 0.4245 0.58849 0.14662 0.0
H1213 H 0.40999 0.56081 0.10188 0.0
C1214 C 0.42972 0.47528 0.04314 0.0
C1215 C 0.44981 0.49336 0.02877 0.0
C1216 C 0.41139 0.47711 0.05327 0.0
C1217 C 0.4125 0.49701 0.04891 0.0
C1218 C 0.43204 0.51483 0.03276 0.0
C1219 C 0.45053 0.51299 0.0226 0.0
C1220 C 0.39451 0.4996 0.06505 0.0
C1221 C 0.40163 0.51614 0.08896 0.0
C1222 C 0.37057 0.48395 0.06112 0.0
C1223 C 0.36183 0.46683 0.03495 0.0
C1224 C 0.36898 0.47253 0.00072 0.0
C1225 C 0.36101 0.45633 0.97628 0.0
C1226 C 0.34579 0.43436 0.98569 0.0
C1227 C 0.33847 0.42854 0.01957 0.0
C1228 C 0.34639 0.44467 0.04413 0.0
C1229 C 0.3277 0.51591 0.16226 0.0
C1230 C 0.31719 0.49812 0.18561 0.0
C1231 C 0.34138 0.51623 0.13569 0.0
C1232 C 0.34462 0.49874 0.13217 0.0
C1233 C 0.33299 0.48042 0.15442 0.0
C1234 C 0.31956 0.48021 0.18114 0.0
C1235 C 0.36189 0.50028 0.1078 0.0
C1236 C 0.3546 0.48445 0.0827 0.0
C1237 C 0.38568 0.51651 0.11064 0.0
C1238 C 0.39457 0.53313 0.13755 0.0
C1239 C 0.39095 0.52673 0.1723 0.0
C1240 C 0.3991 0.54251 0.19746 0.0
C1241 C 0.41115 0.56475 0.18819 0.0
C1242 C 0.41512 0.57125 0.15375 0.0
C1243 C 0.40692 0.55553 0.12848 0.0
H1244 H 0.41747 0.57694 0.20771 0.0
H1245 H 0.33966 0.42184 0.96674 0.0
H1246 H 0.97446 0.47093 0.63956 0.0
H1247 H 0.94492 0.43396 0.6592 0.0
H1248 H 0.96492 0.40682 0.58027 0.0
H1249 H 0.99396 0.44376 0.55984 0.0
H1250 H 0.92037 0.38677 0.58093 0.0
H1251 H 0.97731 0.40445 0.66948 0.0
H1252 H 1.00397 0.42655 0.71547 0.0
H1253 H 0.94752 0.42151 0.77084 0.0
H1254 H 0.92056 0.39935 0.72528 0.0
H1255 H 0.86126 0.28989 0.71957 0.0
H1256 H 0.89431 0.31914 0.68739 0.0
H1257 H 0.85036 0.33902 0.64178 0.0
H1258 H 0.81732 0.30963 0.6738 0.0
H1259 H 0.90928 0.36048 0.70157 0.0
H1260 H 0.87634 0.37049 0.56951 0.0
H1261 H 0.85001 0.34735 0.52407 0.0
H1262 H 0.8599 0.29541 0.55525 0.0
H1263 H 0.88653 0.31834 0.60057 0.0
C1264 C 0.97286 0.4571 0.62674 0.0
C1265 C 0.98665 0.46036 0.59815 0.0
C1266 C 0.95593 0.4359 0.63804 0.0
C1267 C 0.95271 0.41744 0.62145 0.0
C1268 C 0.96694 0.4207 0.5935 0.0
C1269 C 0.98366 0.44188 0.58194 0.0
C1270 C 0.93382 0.39483 0.63209 0.0
C1271 C 0.91805 0.381 0.60731 0.0
C1272 C 0.93073 0.38708 0.66643 0.0
C1273 C 0.94696 0.40037 0.69387 0.0
C1274 C 0.97062 0.40813 0.69142 0.0
C1275 C 0.98577 0.42061 0.71746 0.0
C1276 C 0.97745 0.42541 0.74608 0.0
C1277 C 0.95395 0.41772 0.74874 0.0
C1278 C 0.93872 0.40514 0.72288 0.0
C1279 C 0.85842 0.29966 0.70108 0.0
C1280 C 0.83668 0.29727 0.69867 0.0
C1281 C 0.87739 0.31663 0.68313 0.0
C1282 C 0.87494 0.33147 0.66239 0.0
C1283 C 0.85272 0.3277 0.65732 0.0
C1284 C 0.83373 0.31072 0.67532 0.0
C1285 C 0.8958 0.35249 0.65047 0.0
C1286 C 0.9118 0.36612 0.6751 0.0
C1287 C 0.89913 0.35996 0.61602 0.0
C1288 C 0.88329 0.34609 0.58864 0.0
C1289 C 0.87298 0.35417 0.56658 0.0
C1290 C 0.85798 0.34108 0.54086 0.0
C1291 C 0.85323 0.3199 0.53684 0.0
C1292 C 0.86352 0.31179 0.55848 0.0
C1293 C 0.87854 0.32481 0.58423 0.0
H1294 H 0.84161 0.3098 0.51691 0.0
H1295 H 0.9892 0.43508 0.76621 0.0
H1296 H 0.55133 0.97016 0.16653 0.0
H1297 H 0.55626 0.93926 0.17386 0.0
H1298 H 0.57654 0.94601 0.06833 0.0
H1299 H 0.57224 0.97734 0.06088 0.0
H1300 H 0.54254 0.90385 0.08586 0.0
H1301 H 0.61586 0.95928 0.12805 0.0
H1302 H 0.64336 0.99047 0.16297 0.0
H1303 H 0.61354 0.9514 0.25438 0.0
H1304 H 0.58538 0.92014 0.22011 0.0
H1305 H 0.58871 0.83647 0.18361 0.0
H1306 H 0.59409 0.86642 0.14571 0.0
H1307 H 0.5226 0.84517 0.1602 0.0
H1308 H 0.51733 0.81535 0.19804 0.0
H1309 H 0.58948 0.89658 0.17654 0.0
H1310 H 0.50539 0.86672 0.0975 0.0
H1311 H 0.47872 0.83547 0.06201 0.0
H1312 H 0.53256 0.82356 0.0418 0.0
H1313 H 0.55966 0.85493 0.07674 0.0
C1314 C 0.55735 0.96549 0.14501 0.0
C1315 C 0.56118 0.97623 0.11299 0.0
C1316 C 0.56007 0.94771 0.14924 0.0
C1317 C 0.56671 0.94032 0.12159 0.0
C1318 C 0.57124 0.95137 0.08991 0.0
C1319 C 0.56869 0.96924 0.08571 0.0
C1320 C 0.56771 0.92037 0.12548 0.0
C1321 C 0.55294 0.90226 0.10548 0.0
C1322 C 0.58164 0.91851 0.15061 0.0
C1323 C 0.59838 0.93738 0.17143 0.0
C1324 C 0.61497 0.95739 0.15561 0.0
C1325 C 0.63069 0.97509 0.17531 0.0
C1326 C 0.63014 0.97293 0.21088 0.0
C1327 C 0.61389 0.95306 0.22682 0.0
C1328 C 0.59802 0.93535 0.20727 0.0
C1329 C 0.57385 0.83743 0.17692 0.0
C1330 C 0.55257 0.82361 0.19336 0.0
C1331 C 0.57698 0.85468 0.15562 0.0
C1332 C 0.55881 0.85814 0.15036 0.0
C1333 C 0.53681 0.8427 0.16355 0.0
C1334 C 0.53373 0.82556 0.18501 0.0
C1335 C 0.56368 0.87977 0.13775 0.0
C1336 C 0.57944 0.89823 0.15636 0.0
C1337 C 0.5507 0.88192 0.11133 0.0
C1338 C 0.53454 0.86314 0.08994 0.0
C1339 C 0.5116 0.85753 0.08533 0.0
C1340 C 0.49638 0.83976 0.06534 0.0
C1341 C 0.50392 0.82751 0.04972 0.0
C1342 C 0.52671 0.83302 0.054 0.0
C1343 C 0.542 0.85077 0.07395 0.0
H1344 H 0.49211 0.81375 0.03427 0.0
H1345 H 0.64235 0.98664 0.22608 0.0
H1346 H 0.53547 0.4965 0.64291 0.0
H1347 H 0.57211 0.50341 0.6668 0.0
H1348 H 0.60716 0.53694 0.57332 0.0
H1349 H 0.57098 0.53068 0.54958 0.0
H1350 H 0.61381 0.50127 0.59922 0.0
H1351 H 0.61892 0.56814 0.63298 0.0
H1352 H 0.60473 0.58887 0.66123 0.0
H1353 H 0.60088 0.5565 0.75689 0.0
H1354 H 0.61463 0.53529 0.72901 0.0
H1355 H 0.73096 0.57098 0.69795 0.0
H1356 H 0.69803 0.56543 0.66395 0.0
H1357 H 0.66087 0.49642 0.68996 0.0
H1358 H 0.6939 0.50207 0.72431 0.0
H1359 H 0.65604 0.55066 0.6948 0.0
H1360 H 0.6205 0.46998 0.62344 0.0
H1361 H 0.63489 0.44927 0.5957 0.0
H1362 H 0.69999 0.50894 0.57573 0.0
H1363 H 0.68588 0.53004 0.60291 0.0
C1364 C 0.55106 0.5057 0.62769 0.0
C1365 C 0.55025 0.51309 0.59439 0.0
C1366 C 0.57194 0.50952 0.6413 0.0
C1367 C 0.59226 0.52049 0.62165 0.0
C1368 C 0.59163 0.52832 0.58878 0.0
C1369 C 0.57092 0.52488 0.57541 0.0
C1370 C 0.61415 0.52349 0.63503 0.0
C1371 C 0.62302 0.51196 0.62027 0.0
C1372 C 0.62617 0.53751 0.66229 0.0
C1373 C 0.61765 0.55006 0.67889 0.0
C1374 C 0.61483 0.5653 0.65996 0.0
C1375 C 0.60689 0.57716 0.67591 0.0
C1376 C 0.60186 0.57398 0.71082 0.0
C1377 C 0.60475 0.55894 0.72985 0.0
C1378 C 0.61262 0.547 0.71399 0.0
C1379 C 0.71617 0.55448 0.69506 0.0
C1380 C 0.71511 0.53686 0.71302 0.0
C1381 C 0.69726 0.55137 0.67604 0.0
C1382 C 0.67696 0.53054 0.67448 0.0
C1383 C 0.67645 0.5126 0.69049 0.0
C1384 C 0.69538 0.51576 0.70979 0.0
C1385 C 0.65564 0.52813 0.65949 0.0
C1386 C 0.6468 0.53977 0.674 0.0
C1387 C 0.64357 0.51401 0.63226 0.0
C1388 C 0.65219 0.50155 0.61555 0.0
C1389 C 0.63786 0.47869 0.61304 0.0
C1390 C 0.64597 0.46688 0.59741 0.0
C1391 C 0.66837 0.47778 0.58407 0.0
C1392 C 0.68268 0.50051 0.58621 0.0
C1393 C 0.67464 0.5124 0.60178 0.0
H1394 H 0.67462 0.46861 0.572 0.0
H1395 H 0.59576 0.5832 0.72313 0.0
H1396 H 0.10118 0.63337 0.9801 0.0
H1397 H 0.12747 0.66073 0.02111 0.0
H1398 H 0.13787 0.61246 0.07055 0.0
H1399 H 0.11148 0.58523 0.03023 0.0
H1400 H 0.12865 0.63152 0.11628 0.0
H1401 H 0.18037 0.65593 0.02119 0.0
H1402 H 0.19334 0.66844 0.9619 0.0
H1403 H 0.18848 0.7246 0.9759 0.0
H1404 H 0.17518 0.71227 0.03517 0.0
H1405 H 0.24353 0.72312 0.19024 0.0
H1406 H 0.2219 0.70379 0.13911 0.0
H1407 H 0.16012 0.69634 0.18147 0.0
H1408 H 0.1815 0.71486 0.23298 0.0
H1409 H 0.19601 0.70589 0.08895 0.0
H1410 H 0.11516 0.6455 0.16926 0.0
H1411 H 0.10538 0.63179 0.22889 0.0
H1412 H 0.17366 0.6443 0.24404 0.0
H1413 H 0.1837 0.6577 0.18435 0.0
C1414 C 0.1094 0.62878 0.99943 0.0
C1415 C 0.10411 0.60712 0.00219 0.0
C1416 C 0.12441 0.64439 0.02285 0.0
C1417 C 0.13467 0.63868 0.04904 0.0
C1418 C 0.13003 0.61725 0.05087 0.0
C1419 C 0.11492 0.60168 0.0278 0.0
C1420 C 0.14916 0.65443 0.07584 0.0
C1421 C 0.14334 0.64779 0.11017 0.0
C1422 C 0.16855 0.67558 0.06809 0.0
C1423 C 0.17655 0.68306 0.03249 0.0
C1424 C 0.18189 0.67086 0.01153 0.0
C1425 C 0.18933 0.67793 0.97795 0.0
C1426 C 0.19167 0.69727 0.96511 0.0
C1427 C 0.18663 0.70961 0.98586 0.0
C1428 C 0.17915 0.70259 0.01946 0.0
C1429 C 0.22545 0.71774 0.18818 0.0
C1430 C 0.21405 0.72018 0.21557 0.0
C1431 C 0.21312 0.70675 0.159 0.0
C1432 C 0.18927 0.6982 0.15675 0.0
C1433 C 0.17839 0.70237 0.18293 0.0
C1434 C 0.19059 0.71298 0.21228 0.0
C1435 C 0.1753 0.68296 0.12915 0.0
C1436 C 0.18121 0.68967 0.09485 0.0
C1437 C 0.15635 0.66156 0.13683 0.0
C1438 C 0.15023 0.65281 0.17244 0.0
C1439 C 0.12803 0.64519 0.18526 0.0
C1440 C 0.12245 0.63748 0.21907 0.0
C1441 C 0.13891 0.63724 0.24027 0.0
C1442 C 0.16094 0.64455 0.22763 0.0
C1443 C 0.16658 0.65218 0.1938 0.0
H1444 H 0.13459 0.63135 0.26647 0.0
H1445 H 0.19744 0.70272 0.9391 0.0
loop_
_geom_bond_atom_site_label_1
_geom_bond_atom_site_label_2
_geom_bond_distance
_geom_bond_site_symmetry_2
_ccdc_geom_bond_type
Cu0 N1 1.999 1_454 S
Cu0 O6 1.974 1_454 S
Cu0 N11 1.985 . S
Cu0 O20 1.959 . S
N1 Cu0 1.999 1_656 S
N1 C3 1.263 . S
N1 C5 1.389 1_556 S
N2 C3 1.358 . S
N2 C4 1.400 . S
C3 N1 1.263 . S
C3 N2 1.358 . S
C3 H9 0.930 . S
C4 N2 1.400 . S
C4 C5 1.351 1_556 S
C4 H21 0.934 . S
C5 N1 1.389 1_554 S
C5 C4 1.351 1_554 S
C5 H10 0.930 . S
O6 Cu0 1.974 1_656 S
O6 C16 1.282 . S
C7 O8 1.261 1_554 S
C7 O20 1.251 . S
O8 C7 1.261 1_556 S
H9 C3 0.930 . S
H10 C5 0.930 . S
N11 Cu0 1.985 . S
N11 C13 1.335 . S
N11 C14 1.390 . S
N12 C13 1.345 . S
N12 C15 1.336 . S
C13 N11 1.335 . S
C13 N12 1.345 . S
C13 H18 0.930 . S
C14 N11 1.390 . S
C14 C15 1.346 . S
C14 H19 0.930 1_554 S
C15 N12 1.336 . S
C15 C14 1.346 . S
C15 H22 0.929 . S
C16 O6 1.282 . S
C16 O17 1.216 1_655 S
O17 C16 1.216 1_455 S
H18 C13 0.930 . S
H19 C14 0.930 1_556 S
O20 Cu0 1.959 . S
O20 C7 1.251 . S
H21 C4 0.934 . S
H22 C15 0.929 . S
Cu23 N24 1.999 . S
Cu23 O29 1.974 . S
Cu23 N34 1.985 1_565 S
Cu23 O43 1.959 1_565 S
N24 Cu23 1.999 . S
N24 C26 1.263 . S
N24 C28 1.389 . S
N25 C26 1.358 . S
N25 C27 1.400 . S
C26 N24 1.263 . S
C26 N25 1.358 . S
C26 H32 0.930 . S
C27 N25 1.400 . S
C27 C28 1.351 . S
C27 H44 0.930 . S
C28 N24 1.389 . S
C28 C27 1.351 . S
C28 H33 0.930 . S
O29 Cu23 1.974 . S
O29 C39 1.282 . S
C30 O31 1.261 . S
C30 O43 1.251 . S
O31 C30 1.261 . S
H32 C26 0.930 . S
H33 C28 0.930 . S
N34 Cu23 1.985 1_545 S
N34 C36 1.335 . S
N34 C37 1.390 . S
N35 C36 1.345 . S
N35 C38 1.336 . S
C36 N34 1.335 . S
C36 N35 1.345 . S
C36 H41 0.930 . S
C37 N34 1.390 . S
C37 C38 1.346 . S
C37 H42 0.930 . S
C38 N35 1.336 . S
C38 C37 1.346 . S
C38 H45 0.929 . S
C39 O29 1.282 . S
C39 O40 1.216 . S
O40 C39 1.216 . S
H41 C36 0.930 . S
H42 C37 0.930 . S
O43 Cu23 1.959 1_545 S
O43 C30 1.251 . S
H44 C27 0.930 . S
H45 C38 0.929 . S
Cu46 N47 1.999 1_554 S
Cu46 O52 1.974 1_554 S
Cu46 N57 1.985 . S
Cu46 O66 1.959 . S
N47 Cu46 1.999 1_556 S
N47 C49 1.263 . S
N47 C51 1.389 . S
N48 C49 1.358 . S
N48 C50 1.400 . S
C49 N47 1.263 . S
C49 N48 1.358 . S
C49 H55 0.930 . S
C50 N48 1.400 . S
C50 C51 1.351 . S
C50 H67 0.930 . S
C51 N47 1.389 . S
C51 C50 1.351 . S
C51 H56 0.930 . S
O52 Cu46 1.974 1_556 S
O52 C62 1.270 1_556 S
C53 O54 1.261 . S
C53 O66 1.251 . S
O54 C53 1.261 . S
H55 C49 0.930 . S
H56 C51 0.930 . S
N57 Cu46 1.985 . S
N57 C59 1.335 . S
N57 C60 1.390 . S
N58 C59 1.345 . S
N58 C61 1.336 . S
C59 N57 1.335 . S
C59 N58 1.345 . S
C59 H64 0.930 . S
C60 N57 1.390 . S
C60 C61 1.346 . S
C60 H65 0.930 . S
C61 N58 1.336 . S
C61 C60 1.346 . S
C61 H68 0.929 . S
C62 O52 1.270 1_554 S
C62 O63 1.244 . S
O63 C62 1.244 . S
H64 C59 0.930 . S
H65 C60 0.930 . S
O66 Cu46 1.959 . S
O66 C53 1.251 . S
H67 C50 0.930 . S
H68 C61 0.929 . S
Cu69 N70 1.999 1_655 S
Cu69 O75 1.974 1_655 S
Cu69 N80 1.985 . S
Cu69 O89 1.959 . S
N70 Cu69 1.999 1_455 S
N70 C72 1.263 . S
N70 C74 1.389 1_455 S
N71 C72 1.358 . S
N71 C73 1.400 . S
C72 N70 1.263 . S
C72 N71 1.358 . S
C72 H78 0.930 . S
C73 N71 1.400 . S
C73 C74 1.351 1_455 S
C73 H90 0.930 . S
C74 N70 1.389 1_655 S
C74 C73 1.351 1_655 S
C74 H79 0.930 . S
O75 Cu69 1.974 1_455 S
O75 C85 1.282 . S
C76 O77 1.261 . S
C76 O89 1.251 . S
O77 C76 1.261 . S
H78 C72 0.930 . S
H79 C74 0.930 . S
N80 Cu69 1.985 . S
N80 C82 1.335 . S
N80 C83 1.390 . S
N81 C82 1.345 . S
N81 C84 1.336 . S
C82 N80 1.335 . S
C82 N81 1.345 . S
C82 H87 0.930 . S
C83 N80 1.390 . S
C83 C84 1.346 . S
C83 H88 0.930 1_655 S
C84 N81 1.336 . S
C84 C83 1.346 . S
C84 H91 0.929 . S
C85 O75 1.282 . S
C85 O86 1.216 . S
O86 C85 1.216 . S
H87 C82 0.930 . S
H88 C83 0.930 1_455 S
O89 Cu69 1.959 . S
O89 C76 1.251 . S
H90 C73 0.930 . S
H91 C84 0.929 . S
Cu92 N93 1.999 . S
Cu92 O98 1.974 . S
Cu92 N103 1.985 1_545 S
Cu92 O112 1.959 1_545 S
N93 Cu92 1.999 . S
N93 C95 1.263 1_554 S
N93 C97 1.389 . S
N94 C95 1.358 . S
N94 C96 1.400 1_556 S
C95 N93 1.263 1_556 S
C95 N94 1.358 . S
C95 H101 0.930 . S
C96 N94 1.400 1_554 S
C96 C97 1.351 . S
C96 H113 0.930 . S
C97 N93 1.389 . S
C97 C96 1.351 . S
C97 H102 0.930 . S
O98 Cu92 1.974 . S
O98 C108 1.282 1_554 S
C99 O100 1.261 . S
C99 O112 1.251 . S
O100 C99 1.261 . S
H101 C95 0.930 . S
H102 C97 0.930 . S
N103 Cu92 1.985 1_565 S
N103 C105 1.335 . S
N103 C106 1.390 . S
N104 C105 1.345 . S
N104 C107 1.336 . S
C105 N103 1.335 . S
C105 N104 1.345 . S
C105 H110 0.930 . S
C106 N103 1.390 . S
C106 C107 1.346 . S
C106 H111 0.930 1_565 S
C107 N104 1.336 . S
C107 C106 1.346 . S
C107 H114 0.929 . S
C108 O98 1.282 1_556 S
C108 O109 1.216 . S
O109 C108 1.216 . S
H110 C105 0.930 . S
H111 C106 0.930 1_545 S
O112 Cu92 1.959 1_565 S
O112 C99 1.251 . S
H113 C96 0.930 . S
H114 C107 0.929 . S
Cu115 N116 1.999 . S
Cu115 O121 1.974 . S
Cu115 N126 1.985 . S
Cu115 O135 1.959 . S
N116 Cu115 1.999 . S
N116 C118 1.263 . S
N116 C120 1.389 . S
N117 C118 1.358 . S
N117 C119 1.400 . S
C118 N116 1.263 . S
C118 N117 1.358 . S
C118 H124 0.930 . S
C119 N117 1.400 . S
C119 C120 1.351 . S
C119 H136 0.930 . S
C120 N116 1.389 . S
C120 C119 1.351 . S
C120 H125 0.930 . S
O121 Cu115 1.974 . S
O121 C131 1.282 . S
C122 O123 1.261 . S
C122 O135 1.251 . S
O123 C122 1.261 . S
H124 C118 0.930 . S
H125 C120 0.930 . S
N126 Cu115 1.985 . S
N126 C128 1.335 . S
N126 C129 1.390 . S
N127 C128 1.345 . S
N127 C130 1.336 . S
C128 N126 1.335 . S
C128 N127 1.345 . S
C128 H133 0.930 . S
C129 N126 1.390 . S
C129 C130 1.346 . S
C129 H134 0.930 . S
C130 N127 1.336 . S
C130 C129 1.346 . S
C130 H137 0.929 . S
C131 O121 1.282 . S
C131 O132 1.216 . S
O132 C131 1.216 . S
H133 C128 0.930 . S
H134 C129 0.930 . S
O135 Cu115 1.959 . S
O135 C122 1.251 . S
H136 C119 0.930 . S
H137 C130 0.929 . S
H138 C144 0.930 . S
H139 C147 0.931 . S
H140 C149 0.931 . S
H141 C151 0.930 . S
H142 C153 0.930 . S
H143 C155 0.931 . S
C144 H138 0.930 . S
C144 C145 1.380 . S
C144 C146 1.394 . S
C145 C144 1.380 . S
C145 C149 1.382 . S
C146 C144 1.394 . S
C146 C147 1.400 . S
C147 H139 0.931 . S
C147 C146 1.400 . S
C147 C148 1.375 . S
C148 C147 1.375 . S
C148 C149 1.415 . S
C148 C150 1.501 . S
C149 H140 0.931 . S
C149 C145 1.382 . S
C149 C148 1.415 . S
C150 C148 1.501 . S
C150 C151 1.384 . S
C150 C155 1.408 . S
C151 H141 0.930 . S
C151 C150 1.384 . S
C151 C152 1.389 . S
C152 C151 1.389 . S
C152 C153 1.405 . S
C153 H142 0.930 . S
C153 C152 1.405 . S
C153 C154 1.364 . S
C154 C153 1.364 . S
C154 C155 1.400 . S
C155 H143 0.931 . S
C155 C150 1.408 . S
C155 C154 1.400 . S
H156 C162 0.930 . S
H157 C165 0.931 . S
H158 C167 0.931 . S
H159 C169 0.930 . S
H160 C171 0.930 . S
H161 C173 0.931 . S
C162 H156 0.930 . S
C162 C163 1.380 . S
C162 C164 1.394 . S
C163 C162 1.380 . S
C163 C167 1.382 . S
C164 C162 1.394 . S
C164 C165 1.400 . S
C165 H157 0.931 . S
C165 C164 1.400 . S
C165 C166 1.375 . S
C166 C165 1.375 . S
C166 C167 1.415 . S
C166 C168 1.501 . S
C167 H158 0.931 . S
C167 C163 1.382 . S
C167 C166 1.415 . S
C168 C166 1.501 . S
C168 C169 1.384 . S
C168 C173 1.408 . S
C169 H159 0.930 . S
C169 C168 1.384 . S
C169 C170 1.389 . S
C170 C169 1.389 . S
C170 C171 1.405 . S
C171 H160 0.930 . S
C171 C170 1.405 . S
C171 C172 1.364 . S
C172 C171 1.364 . S
C172 C173 1.400 . S
C173 H161 0.931 . S
C173 C168 1.408 . S
C173 C172 1.400 . S
H174 C180 0.930 . S
H175 C183 0.931 . S
H176 C185 0.931 . S
H177 C187 0.930 . S
H178 C189 0.930 . S
H179 C191 0.931 . S
C180 H174 0.930 . S
C180 C181 1.380 . S
C180 C182 1.394 . S
C181 C180 1.380 . S
C181 C185 1.382 . S
C182 C180 1.394 . S
C182 C183 1.400 . S
C183 H175 0.931 . S
C183 C182 1.400 . S
C183 C184 1.375 . S
C184 C183 1.375 . S
C184 C185 1.415 . S
C184 C186 1.501 . S
C185 H176 0.931 . S
C185 C181 1.382 . S
C185 C184 1.415 . S
C186 C184 1.501 . S
C186 C187 1.384 . S
C186 C191 1.408 . S
C187 H177 0.930 . S
C187 C186 1.384 . S
C187 C188 1.389 . S
C188 C187 1.389 . S
C188 C189 1.405 . S
C189 H178 0.930 . S
C189 C188 1.405 . S
C189 C190 1.364 . S
C190 C189 1.364 . S
C190 C191 1.400 . S
C191 H179 0.931 . S
C191 C186 1.408 . S
C191 C190 1.400 . S
H192 C198 0.930 . S
H193 C201 0.931 . S
H194 C203 0.931 . S
H195 C205 0.930 . S
H196 C207 0.930 . S
H197 C209 0.931 . S
C198 H192 0.930 . S
C198 C199 1.380 . S
C198 C200 1.394 . S
C199 C198 1.380 . S
C199 C203 1.382 . S
C200 C198 1.394 . S
C200 C201 1.400 . S
C201 H193 0.931 . S
C201 C200 1.400 . S
C201 C202 1.375 . S
C202 C201 1.375 . S
C202 C203 1.415 . S
C202 C204 1.501 . S
C203 H194 0.931 . S
C203 C199 1.382 . S
C203 C202 1.415 . S
C204 C202 1.501 . S
C204 C205 1.384 . S
C204 C209 1.408 . S
C205 H195 0.930 . S
C205 C204 1.384 . S
C205 C206 1.389 . S
C206 C205 1.389 . S
C206 C207 1.405 . S
C207 H196 0.930 . S
C207 C206 1.405 . S
C207 C208 1.364 . S
C208 C207 1.364 . S
C208 C209 1.400 . S
C209 H197 0.931 . S
C209 C204 1.408 . S
C209 C208 1.400 . S
H210 C216 0.930 . S
H211 C219 0.931 . S
H212 C221 0.931 . S
H213 C223 0.930 . S
H214 C225 0.930 . S
H215 C227 0.931 . S
C216 H210 0.930 . S
C216 C217 1.380 . S
C216 C218 1.394 . S
C217 C216 1.380 . S
C217 C221 1.382 . S
C218 C216 1.394 . S
C218 C219 1.400 . S
C219 H211 0.931 . S
C219 C218 1.400 . S
C219 C220 1.375 . S
C220 C219 1.375 . S
C220 C221 1.415 . S
C220 C222 1.501 . S
C221 H212 0.931 . S
C221 C217 1.382 . S
C221 C220 1.415 . S
C222 C220 1.501 . S
C222 C223 1.384 . S
C222 C227 1.408 . S
C223 H213 0.930 . S
C223 C222 1.384 . S
C223 C224 1.389 . S
C224 C223 1.389 . S
C224 C225 1.405 . S
C225 H214 0.930 . S
C225 C224 1.405 . S
C225 C226 1.364 . S
C226 C225 1.364 . S
C226 C227 1.400 . S
C227 H215 0.931 . S
C227 C222 1.408 . S
C227 C226 1.400 . S
H228 C234 0.930 . S
H229 C237 0.931 . S
H230 C239 0.931 . S
H231 C241 0.930 . S
H232 C243 0.930 . S
H233 C245 0.931 . S
C234 H228 0.930 . S
C234 C235 1.380 . S
C234 C236 1.394 . S
C235 C234 1.380 . S
C235 C239 1.382 . S
C236 C234 1.394 . S
C236 C237 1.400 . S
C237 H229 0.931 . S
C237 C236 1.400 . S
C237 C238 1.375 . S
C238 C237 1.375 . S
C238 C239 1.415 . S
C238 C240 1.501 . S
C239 H230 0.931 . S
C239 C235 1.382 . S
C239 C238 1.415 . S
C240 C238 1.501 . S
C240 C241 1.384 . S
C240 C245 1.408 . S
C241 H231 0.930 . S
C241 C240 1.384 . S
C241 C242 1.389 . S
C242 C241 1.389 . S
C242 C243 1.405 . S
C243 H232 0.930 . S
C243 C242 1.405 . S
C243 C244 1.364 . S
C244 C243 1.364 . S
C244 C245 1.400 . S
C245 H233 0.931 . S
C245 C240 1.408 . S
C245 C244 1.400 . S
H246 C264 0.951 . S
H247 C266 0.951 . S
H248 C268 0.950 . S
H249 C269 0.950 . S
H250 C271 0.950 . S
H251 C274 0.950 . S
H252 C275 0.950 . S
H253 C277 0.950 . S
H254 C278 0.950 . S
H255 C279 0.951 . S
H256 C281 0.951 . S
H257 C283 0.950 . S
H258 C284 0.950 . S
H259 C286 0.950 . S
H260 C289 0.950 . S
H261 C290 0.950 . S
H262 C292 0.950 . S
H263 C293 0.950 . S
C264 H246 0.951 . S
C264 C265 1.366 . S
C264 C266 1.388 . S
C265 C264 1.366 . S
C265 C269 1.385 . S
C266 H247 0.951 . S
C266 C264 1.388 . S
C266 C267 1.366 . S
C267 C266 1.366 . S
C267 C268 1.414 . S
C267 C270 1.499 . S
C268 H248 0.950 . S
C268 C267 1.414 . S
C268 C269 1.374 . S
C269 H249 0.950 . S
C269 C265 1.385 . S
C269 C268 1.374 . S
C270 C267 1.499 . S
C270 C271 1.373 . S
C270 C272 1.389 . S
C271 H250 0.950 . S
C271 C270 1.373 . S
C271 C287 1.377 . S
C272 C270 1.389 . S
C272 C273 1.524 . S
C272 C286 1.377 . S
C273 C272 1.524 . S
C273 C274 1.397 . S
C273 C278 1.363 . S
C274 H251 0.950 . S
C274 C273 1.397 . S
C274 C275 1.334 . S
C275 H252 0.950 . S
C275 C274 1.334 . S
C275 C276 1.287 . S
C276 C275 1.287 . S
C276 C277 1.524 . S
C276 H295 0.913 . S
C277 H253 0.950 . S
C277 C276 1.524 . S
C277 C278 1.415 . S
C278 H254 0.950 . S
C278 C273 1.363 . S
C278 C277 1.415 . S
C279 H255 0.951 . S
C279 C280 1.366 . S
C279 C281 1.388 . S
C280 C279 1.366 . S
C280 C284 1.385 . S
C281 H256 0.951 . S
C281 C279 1.388 . S
C281 C282 1.366 . S
C282 C281 1.366 . S
C282 C283 1.414 . S
C282 C285 1.499 . S
C283 H257 0.950 . S
C283 C282 1.414 . S
C283 C284 1.374 . S
C284 H258 0.950 . S
C284 C280 1.385 . S
C284 C283 1.374 . S
C285 C282 1.499 . S
C285 C286 1.373 . S
C285 C287 1.389 . S
C286 H259 0.950 . S
C286 C272 1.377 . S
C286 C285 1.373 . S
C287 C271 1.377 . S
C287 C285 1.389 . S
C287 C288 1.524 . S
C288 C287 1.524 . S
C288 C289 1.397 . S
C288 C293 1.363 . S
C289 H260 0.950 . S
C289 C288 1.397 . S
C289 C290 1.334 . S
C290 H261 0.950 . S
C290 C289 1.334 . S
C290 C291 1.287 . S
C291 C290 1.287 . S
C291 C292 1.524 . S
C291 H294 0.999 . S
C292 H262 0.950 . S
C292 C291 1.524 . S
C292 C293 1.415 . S
C293 H263 0.950 . S
C293 C288 1.363 . S
C293 C292 1.415 . S
H294 C291 0.999 . S
H295 C276 0.913 . S
H296 C314 0.951 . S
H297 C316 0.951 . S
H298 C318 0.950 . S
H299 C319 0.950 . S
H300 C321 0.950 . S
H301 C324 0.950 . S
H302 C325 0.950 . S
H303 C327 0.950 . S
H304 C328 0.950 . S
H305 C329 0.951 . S
H306 C331 0.951 . S
H307 C333 0.950 . S
H308 C334 0.950 . S
H309 C336 0.950 . S
H310 C339 0.950 . S
H311 C340 0.950 . S
H312 C342 0.950 . S
H313 C343 0.950 . S
C314 H296 0.951 . S
C314 C315 1.366 . S
C314 C316 1.388 . S
C315 C314 1.366 . S
C315 C319 1.385 . S
C316 H297 0.951 . S
C316 C314 1.388 . S
C316 C317 1.366 . S
C317 C316 1.366 . S
C317 C318 1.414 . S
C317 C320 1.499 . S
C318 H298 0.950 . S
C318 C317 1.414 . S
C318 C319 1.374 . S
C319 H299 0.950 . S
C319 C315 1.385 . S
C319 C318 1.374 . S
C320 C317 1.499 . S
C320 C321 1.373 . S
C320 C322 1.389 . S
C321 H300 0.950 . S
C321 C320 1.373 . S
C321 C337 1.377 . S
C322 C320 1.389 . S
C322 C323 1.524 . S
C322 C336 1.377 . S
C323 C322 1.524 . S
C323 C324 1.397 . S
C323 C328 1.363 . S
C324 H301 0.950 . S
C324 C323 1.397 . S
C324 C325 1.334 . S
C325 H302 0.950 . S
C325 C324 1.334 . S
C325 C326 1.287 . S
C326 C325 1.287 . S
C326 C327 1.524 . S
C326 H345 0.913 . S
C327 H303 0.950 . S
C327 C326 1.524 . S
C327 C328 1.415 . S
C328 H304 0.950 . S
C328 C323 1.363 . S
C328 C327 1.415 . S
C329 H305 0.951 . S
C329 C330 1.366 . S
C329 C331 1.388 . S
C330 C329 1.366 . S
C330 C334 1.385 . S
C331 H306 0.951 . S
C331 C329 1.388 . S
C331 C332 1.366 . S
C332 C331 1.366 . S
C332 C333 1.414 . S
C332 C335 1.499 . S
C333 H307 0.950 . S
C333 C332 1.414 . S
C333 C334 1.374 . S
C334 H308 0.950 . S
C334 C330 1.385 . S
C334 C333 1.374 . S
C335 C332 1.499 . S
C335 C336 1.373 . S
C335 C337 1.389 . S
C336 H309 0.950 . S
C336 C322 1.377 . S
C336 C335 1.373 . S
C337 C321 1.377 . S
C337 C335 1.389 . S
C337 C338 1.524 . S
C338 C337 1.524 . S
C338 C339 1.397 . S
C338 C343 1.363 . S
C339 H310 0.950 . S
C339 C338 1.397 . S
C339 C340 1.334 . S
C340 H311 0.950 . S
C340 C339 1.334 . S
C340 C341 1.287 . S
C341 C340 1.287 . S
C341 C342 1.524 . S
C341 H344 0.999 . S
C342 H312 0.950 . S
C342 C341 1.524 . S
C342 C343 1.415 . S
C343 H313 0.950 . S
C343 C338 1.363 . S
C343 C342 1.415 . S
H344 C341 0.999 . S
H345 C326 0.913 . S
H346 C364 0.951 . S
H347 C366 0.951 . S
H348 C368 0.950 . S
H349 C369 0.950 . S
H350 C371 0.950 . S
H351 C374 0.950 . S
H352 C375 0.950 . S
H353 C377 0.950 . S
H354 C378 0.950 . S
H355 C379 0.951 . S
H356 C381 0.951 . S
H357 C383 0.950 . S
H358 C384 0.950 . S
H359 C386 0.950 . S
H360 C389 0.950 . S
H361 C390 0.950 . S
H362 C392 0.950 . S
H363 C393 0.950 . S
C364 H346 0.951 . S
C364 C365 1.366 . S
C364 C366 1.388 . S
C365 C364 1.366 . S
C365 C369 1.385 . S
C366 H347 0.951 . S
C366 C364 1.388 . S
C366 C367 1.366 . S
C367 C366 1.366 . S
C367 C368 1.414 . S
C367 C370 1.499 . S
C368 H348 0.950 . S
C368 C367 1.414 . S
C368 C369 1.374 . S
C369 H349 0.950 . S
C369 C365 1.385 . S
C369 C368 1.374 . S
C370 C367 1.499 . S
C370 C371 1.373 . S
C370 C372 1.389 . S
C371 H350 0.950 . S
C371 C370 1.373 . S
C371 C387 1.377 . S
C372 C370 1.389 . S
C372 C373 1.524 . S
C372 C386 1.377 . S
C373 C372 1.524 . S
C373 C374 1.397 . S
C373 C378 1.363 . S
C374 H351 0.950 . S
C374 C373 1.397 . S
C374 C375 1.334 . S
C375 H352 0.950 . S
C375 C374 1.334 . S
C375 C376 1.287 . S
C376 C375 1.287 . S
C376 C377 1.524 . S
C376 H395 0.913 . S
C377 H353 0.950 . S
C377 C376 1.524 . S
C377 C378 1.415 . S
C378 H354 0.950 . S
C378 C373 1.363 . S
C378 C377 1.415 . S
C379 H355 0.951 . S
C379 C380 1.366 . S
C379 C381 1.388 . S
C380 C379 1.366 . S
C380 C384 1.385 . S
C381 H356 0.951 . S
C381 C379 1.388 . S
C381 C382 1.366 . S
C382 C381 1.366 . S
C382 C383 1.414 . S
C382 C385 1.499 . S
C383 H357 0.950 . S
C383 C382 1.414 . S
C383 C384 1.374 . S
C384 H358 0.950 . S
C384 C380 1.385 . S
C384 C383 1.374 . S
C385 C382 1.499 . S
C385 C386 1.373 . S
C385 C387 1.389 . S
C386 H359 0.950 . S
C386 C372 1.377 . S
C386 C385 1.373 . S
C387 C371 1.377 . S
C387 C385 1.389 . S
C387 C388 1.524 . S
C388 C387 1.524 . S
C388 C389 1.397 . S
C388 C393 1.363 . S
C389 H360 0.950 . S
C389 C388 1.397 . S
C389 C390 1.334 . S
C390 H361 0.950 . S
C390 C389 1.334 . S
C390 C391 1.287 . S
C391 C390 1.287 . S
C391 C392 1.524 . S
C391 H394 0.999 . S
C392 H362 0.950 . S
C392 C391 1.524 . S
C392 C393 1.415 . S
C393 H363 0.950 . S
C393 C388 1.363 . S
C393 C392 1.415 . S
H394 C391 0.999 . S
H395 C376 0.913 . S
H396 C414 0.951 . S
H397 C416 0.951 . S
H398 C418 0.950 . S
H399 C419 0.950 . S
H400 C421 0.950 . S
H401 C424 0.950 . S
H402 C425 0.950 . S
H403 C427 0.950 . S
H404 C428 0.950 . S
H405 C429 0.951 . S
H406 C431 0.951 . S
H407 C433 0.950 . S
H408 C434 0.950 . S
H409 C436 0.950 . S
H410 C439 0.950 . S
H411 C440 0.950 . S
H412 C442 0.950 . S
H413 C443 0.950 . S
C414 H396 0.951 . S
C414 C415 1.366 . S
C414 C416 1.388 . S
C415 C414 1.366 . S
C415 C419 1.385 . S
C416 H397 0.951 . S
C416 C414 1.388 . S
C416 C417 1.366 . S
C417 C416 1.366 . S
C417 C418 1.414 . S
C417 C420 1.499 . S
C418 H398 0.950 . S
C418 C417 1.414 . S
C418 C419 1.374 . S
C419 H399 0.950 . S
C419 C415 1.385 . S
C419 C418 1.374 . S
C420 C417 1.499 . S
C420 C421 1.373 . S
C420 C422 1.389 . S
C421 H400 0.950 . S
C421 C420 1.373 . S
C421 C437 1.377 . S
C422 C420 1.389 . S
C422 C423 1.524 . S
C422 C436 1.377 . S
C423 C422 1.524 . S
C423 C424 1.397 . S
C423 C428 1.363 . S
C424 H401 0.950 . S
C424 C423 1.397 . S
C424 C425 1.334 . S
C425 H402 0.950 . S
C425 C424 1.334 . S
C425 C426 1.287 . S
C426 C425 1.287 . S
C426 C427 1.524 . S
C426 H445 0.913 . S
C427 H403 0.950 . S
C427 C426 1.524 . S
C427 C428 1.415 . S
C428 H404 0.950 . S
C428 C423 1.363 . S
C428 C427 1.415 . S
C429 H405 0.951 . S
C429 C430 1.366 . S
C429 C431 1.388 . S
C430 C429 1.366 . S
C430 C434 1.385 . S
C431 H406 0.951 . S
C431 C429 1.388 . S
C431 C432 1.366 . S
C432 C431 1.366 . S
C432 C433 1.414 . S
C432 C435 1.499 . S
C433 H407 0.950 . S
C433 C432 1.414 . S
C433 C434 1.374 . S
C434 H408 0.950 . S
C434 C430 1.385 . S
C434 C433 1.374 . S
C435 C432 1.499 . S
C435 C436 1.373 . S
C435 C437 1.389 . S
C436 H409 0.950 . S
C436 C422 1.377 . S
C436 C435 1.373 . S
C437 C421 1.377 . S
C437 C435 1.389 . S
C437 C438 1.524 . S
C438 C437 1.524 . S
C438 C439 1.397 . S
C438 C443 1.363 . S
C439 H410 0.950 . S
C439 C438 1.397 . S
C439 C440 1.334 . S
C440 H411 0.950 . S
C440 C439 1.334 . S
C440 C441 1.287 . S
C441 C440 1.287 . S
C441 C442 1.524 . S
C441 H444 0.999 . S
C442 H412 0.950 . S
C442 C441 1.524 . S
C442 C443 1.415 . S
C443 H413 0.950 . S
C443 C438 1.363 . S
C443 C442 1.415 . S
H444 C441 0.999 . S
H445 C426 0.913 . S
H446 C464 0.951 . S
H447 C466 0.951 . S
H448 C468 0.950 . S
H449 C469 0.950 . S
H450 C471 0.950 . S
H451 C474 0.950 . S
H452 C475 0.950 . S
H453 C477 0.953 . S
H454 C478 0.950 . S
H455 C479 0.951 . S
H456 C481 0.951 . S
H457 C483 0.950 . S
H458 C484 0.950 . S
H459 C486 0.950 . S
H460 C489 0.950 . S
H461 C490 0.950 . S
H462 C492 0.950 . S
H463 C493 0.950 . S
C464 H446 0.951 . S
C464 C465 1.366 . S
C464 C466 1.388 . S
C465 C464 1.366 . S
C465 C469 1.385 . S
C466 H447 0.951 . S
C466 C464 1.388 . S
C466 C467 1.366 . S
C467 C466 1.366 . S
C467 C468 1.414 . S
C467 C470 1.499 . S
C468 H448 0.950 . S
C468 C467 1.414 . S
C468 C469 1.374 . S
C469 H449 0.950 . S
C469 C465 1.385 . S
C469 C468 1.374 . S
C470 C467 1.499 . S
C470 C471 1.373 . S
C470 C472 1.389 . S
C471 H450 0.950 . S
C471 C470 1.373 . S
C471 C487 1.377 . S
C472 C470 1.389 . S
C472 C473 1.524 . S
C472 C486 1.377 . S
C473 C472 1.524 . S
C473 C474 1.397 . S
C473 C478 1.363 . S
C474 H451 0.950 . S
C474 C473 1.397 . S
C474 C475 1.334 . S
C475 H452 0.950 . S
C475 C474 1.334 . S
C475 C476 1.287 . S
C476 C475 1.287 . S
C476 C477 1.524 . S
C476 H495 0.913 1_554 S
C477 H453 0.953 . S
C477 C476 1.524 . S
C477 C478 1.415 . S
C478 H454 0.950 . S
C478 C473 1.363 . S
C478 C477 1.415 . S
C479 H455 0.951 . S
C479 C480 1.366 . S
C479 C481 1.388 . S
C480 C479 1.366 . S
C480 C484 1.385 . S
C481 H456 0.951 . S
C481 C479 1.388 . S
C481 C482 1.366 . S
C482 C481 1.366 . S
C482 C483 1.414 . S
C482 C485 1.499 . S
C483 H457 0.950 . S
C483 C482 1.414 . S
C483 C484 1.374 . S
C484 H458 0.950 . S
C484 C480 1.385 . S
C484 C483 1.374 . S
C485 C482 1.499 . S
C485 C486 1.373 . S
C485 C487 1.389 . S
C486 H459 0.950 . S
C486 C472 1.377 . S
C486 C485 1.373 . S
C487 C471 1.377 . S
C487 C485 1.389 . S
C487 C488 1.524 . S
C488 C487 1.524 . S
C488 C489 1.397 . S
C488 C493 1.363 . S
C489 H460 0.950 . S
C489 C488 1.397 . S
C489 C490 1.334 . S
C490 H461 0.950 . S
C490 C489 1.334 . S
C490 C491 1.287 . S
C491 C490 1.287 . S
C491 C492 1.524 . S
C491 H494 0.999 . S
C492 H462 0.950 . S
C492 C491 1.524 . S
C492 C493 1.415 . S
C493 H463 0.950 . S
C493 C488 1.363 . S
C493 C492 1.415 . S
H494 C491 0.999 . S
H495 C476 0.913 1_556 S
H496 C514 0.951 . S
H497 C516 0.951 . S
H498 C518 0.950 . S
H499 C519 0.950 . S
H500 C521 0.950 . S
H501 C524 0.950 . S
H502 C525 0.950 . S
H503 C527 0.950 . S
H504 C528 0.950 . S
H505 C529 0.951 . S
H506 C531 0.951 . S
H507 C533 0.950 . S
H508 C534 0.950 . S
H509 C536 0.950 . S
H510 C539 0.950 . S
H511 C540 0.950 . S
H512 C542 0.950 . S
H513 C543 0.950 . S
C514 H496 0.951 . S
C514 C515 1.366 . S
C514 C516 1.388 . S
C515 C514 1.366 . S
C515 C519 1.385 . S
C516 H497 0.951 . S
C516 C514 1.388 . S
C516 C517 1.366 . S
C517 C516 1.366 . S
C517 C518 1.414 . S
C517 C520 1.499 . S
C518 H498 0.950 . S
C518 C517 1.414 . S
C518 C519 1.374 . S
C519 H499 0.950 . S
C519 C515 1.385 . S
C519 C518 1.374 . S
C520 C517 1.499 . S
C520 C521 1.373 . S
C520 C522 1.389 . S
C521 H500 0.950 . S
C521 C520 1.373 . S
C521 C537 1.377 . S
C522 C520 1.389 . S
C522 C523 1.524 . S
C522 C536 1.377 . S
C523 C522 1.524 . S
C523 C524 1.397 . S
C523 C528 1.363 . S
C524 H501 0.950 . S
C524 C523 1.397 . S
C524 C525 1.334 . S
C525 H502 0.950 . S
C525 C524 1.334 . S
C525 C526 1.287 . S
C526 C525 1.287 . S
C526 C527 1.524 . S
C526 H545 0.913 . S
C527 H503 0.950 . S
C527 C526 1.524 . S
C527 C528 1.415 . S
C528 H504 0.950 . S
C528 C523 1.363 . S
C528 C527 1.415 . S
C529 H505 0.951 . S
C529 C530 1.366 . S
C529 C531 1.388 . S
C530 C529 1.366 . S
C530 C534 1.385 . S
C531 H506 0.951 . S
C531 C529 1.388 . S
C531 C532 1.366 . S
C532 C531 1.366 . S
C532 C533 1.414 . S
C532 C535 1.499 . S
C533 H507 0.950 . S
C533 C532 1.414 . S
C533 C534 1.374 . S
C534 H508 0.950 . S
C534 C530 1.385 . S
C534 C533 1.374 . S
C535 C532 1.499 . S
C535 C536 1.373 . S
C535 C537 1.389 . S
C536 H509 0.950 . S
C536 C522 1.377 . S
C536 C535 1.373 . S
C537 C521 1.377 . S
C537 C535 1.389 . S
C537 C538 1.524 . S
C538 C537 1.524 . S
C538 C539 1.397 . S
C538 C543 1.363 . S
C539 H510 0.950 . S
C539 C538 1.397 . S
C539 C540 1.334 . S
C540 H511 0.950 . S
C540 C539 1.334 . S
C540 C541 1.287 . S
C541 C540 1.287 . S
C541 C542 1.524 . S
C541 H544 0.999 . S
C542 H512 0.950 . S
C542 C541 1.524 . S
C542 C543 1.415 . S
C543 H513 0.950 . S
C543 C538 1.363 . S
C543 C542 1.415 . S
H544 C541 0.999 . S
H545 C526 0.913 . S
H546 C564 0.951 . S
H547 C566 0.951 . S
H548 C568 0.950 . S
H549 C569 0.950 . S
H550 C571 0.950 . S
H551 C574 0.950 . S
H552 C575 0.950 . S
H553 C577 0.950 . S
H554 C578 0.950 . S
H555 C579 0.951 . S
H556 C581 0.951 . S
H557 C583 0.950 . S
H558 C584 0.950 . S
H559 C586 0.950 . S
H560 C589 0.950 . S
H561 C590 0.950 . S
H562 C592 0.950 . S
H563 C593 0.950 . S
C564 H546 0.951 . S
C564 C565 1.366 . S
C564 C566 1.388 . S
C565 C564 1.366 . S
C565 C569 1.385 . S
C566 H547 0.951 . S
C566 C564 1.388 . S
C566 C567 1.366 . S
C567 C566 1.366 . S
C567 C568 1.414 . S
C567 C570 1.499 . S
C568 H548 0.950 . S
C568 C567 1.414 . S
C568 C569 1.374 . S
C569 H549 0.950 . S
C569 C565 1.385 . S
C569 C568 1.374 . S
C570 C567 1.499 . S
C570 C571 1.373 . S
C570 C572 1.389 . S
C571 H550 0.950 . S
C571 C570 1.373 . S
C571 C587 1.377 . S
C572 C570 1.389 . S
C572 C573 1.524 . S
C572 C586 1.377 . S
C573 C572 1.524 . S
C573 C574 1.397 . S
C573 C578 1.363 . S
C574 H551 0.950 . S
C574 C573 1.397 . S
C574 C575 1.334 . S
C575 H552 0.950 . S
C575 C574 1.334 . S
C575 C576 1.287 . S
C576 C575 1.287 . S
C576 C577 1.524 . S
C576 H595 0.913 . S
C577 H553 0.950 . S
C577 C576 1.524 . S
C577 C578 1.415 . S
C578 H554 0.950 . S
C578 C573 1.363 . S
C578 C577 1.415 . S
C579 H555 0.951 . S
C579 C580 1.366 . S
C579 C581 1.388 . S
C580 C579 1.366 . S
C580 C584 1.385 . S
C581 H556 0.951 . S
C581 C579 1.388 . S
C581 C582 1.366 . S
C582 C581 1.366 . S
C582 C583 1.414 . S
C582 C585 1.499 . S
C583 H557 0.950 . S
C583 C582 1.414 . S
C583 C584 1.374 . S
C584 H558 0.950 . S
C584 C580 1.385 . S
C584 C583 1.374 . S
C585 C582 1.499 . S
C585 C586 1.373 . S
C585 C587 1.389 . S
C586 H559 0.950 . S
C586 C572 1.377 . S
C586 C585 1.373 . S
C587 C571 1.377 . S
C587 C585 1.389 . S
C587 C588 1.524 . S
C588 C587 1.524 . S
C588 C589 1.397 . S
C588 C593 1.363 . S
C589 H560 0.950 . S
C589 C588 1.397 . S
C589 C590 1.334 . S
C590 H561 0.950 . S
C590 C589 1.334 . S
C590 C591 1.287 . S
C591 C590 1.287 . S
C591 C592 1.524 . S
C591 H594 0.999 . S
C592 H562 0.950 . S
C592 C591 1.524 . S
C592 C593 1.415 . S
C593 H563 0.950 . S
C593 C588 1.363 . S
C593 C592 1.415 . S
H594 C591 0.999 . S
H595 C576 0.913 . S
H596 C614 0.951 . S
H597 C616 0.951 . S
H598 C618 0.950 . S
H599 C619 0.950 . S
H600 C621 0.950 . S
H601 C624 0.950 . S
H602 C625 0.950 . S
H603 C627 0.950 . S
H604 C628 0.950 . S
H605 C629 0.951 . S
H606 C631 0.951 . S
H607 C633 0.950 . S
H608 C634 0.950 . S
H609 C636 0.950 . S
H610 C639 0.950 . S
H611 C640 0.950 . S
H612 C642 0.950 . S
H613 C643 0.950 . S
C614 H596 0.951 . S
C614 C615 1.366 . S
C614 C616 1.388 . S
C615 C614 1.366 . S
C615 C619 1.385 . S
C616 H597 0.951 . S
C616 C614 1.388 . S
C616 C617 1.366 . S
C617 C616 1.366 . S
C617 C618 1.414 . S
C617 C620 1.499 . S
C618 H598 0.950 . S
C618 C617 1.414 . S
C618 C619 1.374 . S
C619 H599 0.950 . S
C619 C615 1.385 . S
C619 C618 1.374 . S
C620 C617 1.499 . S
C620 C621 1.373 . S
C620 C622 1.389 . S
C621 H600 0.950 . S
C621 C620 1.373 . S
C621 C637 1.377 . S
C622 C620 1.389 . S
C622 C623 1.524 . S
C622 C636 1.377 . S
C623 C622 1.524 . S
C623 C624 1.397 . S
C623 C628 1.363 . S
C624 H601 0.950 . S
C624 C623 1.397 . S
C624 C625 1.334 1_556 S
C625 H602 0.950 . S
C625 C624 1.334 1_554 S
C625 C626 1.287 . S
C626 C625 1.287 . S
C626 C627 1.524 . S
C626 H645 0.913 . S
C627 H603 0.950 . S
C627 C626 1.524 . S
C627 C628 1.415 1_554 S
C628 H604 0.950 . S
C628 C623 1.363 . S
C628 C627 1.415 1_556 S
C629 H605 0.951 . S
C629 C630 1.366 . S
C629 C631 1.388 . S
C630 C629 1.366 . S
C630 C634 1.385 . S
C631 H606 0.951 . S
C631 C629 1.388 . S
C631 C632 1.366 . S
C632 C631 1.366 . S
C632 C633 1.414 . S
C632 C635 1.499 . S
C633 H607 0.950 . S
C633 C632 1.414 . S
C633 C634 1.374 . S
C634 H608 0.950 . S
C634 C630 1.385 . S
C634 C633 1.374 . S
C635 C632 1.499 . S
C635 C636 1.373 . S
C635 C637 1.389 . S
C636 H609 0.950 . S
C636 C622 1.377 . S
C636 C635 1.373 . S
C637 C621 1.377 . S
C637 C635 1.389 . S
C637 C638 1.524 . S
C638 C637 1.524 . S
C638 C639 1.397 . S
C638 C643 1.363 . S
C639 H610 0.950 . S
C639 C638 1.397 . S
C639 C640 1.334 . S
C640 H611 0.950 . S
C640 C639 1.334 . S
C640 C641 1.287 . S
C641 C640 1.287 . S
C641 C642 1.524 . S
C641 H644 0.999 . S
C642 H612 0.950 . S
C642 C641 1.524 . S
C642 C643 1.415 . S
C643 H613 0.950 . S
C643 C638 1.363 . S
C643 C642 1.415 . S
H644 C641 0.999 . S
H645 C626 0.913 . S
H646 C664 0.951 . S
H647 C666 0.951 . S
H648 C668 0.950 . S
H649 C669 0.950 . S
H650 C671 0.950 . S
H651 C674 0.950 . S
H652 C675 0.950 . S
H653 C677 0.950 . S
H654 C678 0.950 . S
H655 C679 0.951 . S
H656 C681 0.951 . S
H657 C683 0.950 . S
H658 C684 0.950 . S
H659 C686 0.950 . S
H660 C689 0.950 . S
H661 C690 0.950 . S
H662 C692 0.950 . S
H663 C693 0.950 . S
C664 H646 0.951 . S
C664 C665 1.366 . S
C664 C666 1.388 . S
C665 C664 1.366 . S
C665 C669 1.385 . S
C666 H647 0.951 . S
C666 C664 1.388 . S
C666 C667 1.366 . S
C667 C666 1.366 . S
C667 C668 1.414 . S
C667 C670 1.499 . S
C668 H648 0.950 . S
C668 C667 1.414 . S
C668 C669 1.374 . S
C669 H649 0.950 . S
C669 C665 1.385 . S
C669 C668 1.374 . S
C670 C667 1.499 . S
C670 C671 1.373 . S
C670 C672 1.389 . S
C671 H650 0.950 . S
C671 C670 1.373 . S
C671 C687 1.377 . S
C672 C670 1.389 . S
C672 C673 1.524 . S
C672 C686 1.377 . S
C673 C672 1.524 . S
C673 C674 1.397 . S
C673 C678 1.363 . S
C674 H651 0.950 . S
C674 C673 1.397 . S
C674 C675 1.334 . S
C675 H652 0.950 . S
C675 C674 1.334 . S
C675 C676 1.287 . S
C676 C675 1.287 . S
C676 C677 1.524 . S
C676 H695 0.913 . S
C677 H653 0.950 . S
C677 C676 1.524 . S
C677 C678 1.415 . S
C678 H654 0.950 . S
C678 C673 1.363 . S
C678 C677 1.415 . S
C679 H655 0.951 . S
C679 C680 1.366 . S
C679 C681 1.388 . S
C680 C679 1.366 . S
C680 C684 1.385 . S
C681 H656 0.951 . S
C681 C679 1.388 . S
C681 C682 1.366 . S
C682 C681 1.366 . S
C682 C683 1.414 . S
C682 C685 1.499 . S
C683 H657 0.950 . S
C683 C682 1.414 . S
C683 C684 1.374 . S
C684 H658 0.950 . S
C684 C680 1.385 . S
C684 C683 1.374 . S
C685 C682 1.499 . S
C685 C686 1.373 . S
C685 C687 1.389 . S
C686 H659 0.950 . S
C686 C672 1.377 . S
C686 C685 1.373 . S
C687 C671 1.377 . S
C687 C685 1.389 . S
C687 C688 1.524 . S
C688 C687 1.524 . S
C688 C689 1.397 . S
C688 C693 1.363 . S
C689 H660 0.950 . S
C689 C688 1.397 . S
C689 C690 1.334 . S
C690 H661 0.950 . S
C690 C689 1.334 . S
C690 C691 1.287 . S
C691 C690 1.287 . S
C691 C692 1.524 . S
C691 H694 0.999 . S
C692 H662 0.950 . S
C692 C691 1.524 . S
C692 C693 1.415 . S
C693 H663 0.950 . S
C693 C688 1.363 . S
C693 C692 1.415 . S
H694 C691 0.999 . S
H695 C676 0.913 . S
H696 C714 0.951 . S
H697 C716 0.951 . S
H698 C718 0.950 . S
H699 C719 0.950 . S
H700 C721 0.950 . S
H701 C724 0.950 . S
H702 C725 0.950 . S
H703 C727 0.950 . S
H704 C728 0.950 . S
H705 C729 0.951 . S
H706 C731 0.951 . S
H707 C733 0.950 . S
H708 C734 0.950 . S
H709 C736 0.950 . S
H710 C739 0.950 . S
H711 C740 0.950 . S
H712 C742 0.950 . S
H713 C743 0.950 . S
C714 H696 0.951 . S
C714 C715 1.366 . S
C714 C716 1.388 . S
C715 C714 1.366 . S
C715 C719 1.385 . S
C716 H697 0.951 . S
C716 C714 1.388 . S
C716 C717 1.366 . S
C717 C716 1.366 . S
C717 C718 1.414 . S
C717 C720 1.499 . S
C718 H698 0.950 . S
C718 C717 1.414 . S
C718 C719 1.374 . S
C719 H699 0.950 . S
C719 C715 1.385 . S
C719 C718 1.374 . S
C720 C717 1.499 . S
C720 C721 1.373 . S
C720 C722 1.389 . S
C721 H700 0.950 . S
C721 C720 1.373 . S
C721 C737 1.377 . S
C722 C720 1.389 . S
C722 C723 1.524 . S
C722 C736 1.377 . S
C723 C722 1.524 . S
C723 C724 1.397 . S
C723 C728 1.363 . S
C724 H701 0.950 . S
C724 C723 1.397 . S
C724 C725 1.334 . S
C725 H702 0.950 . S
C725 C724 1.334 . S
C725 C726 1.287 . S
C726 C725 1.287 . S
C726 C727 1.524 . S
C726 H745 0.913 . S
C727 H703 0.950 . S
C727 C726 1.524 . S
C727 C728 1.415 . S
C728 H704 0.950 . S
C728 C723 1.363 . S
C728 C727 1.415 . S
C729 H705 0.951 . S
C729 C730 1.366 . S
C729 C731 1.388 . S
C730 C729 1.366 . S
C730 C734 1.385 . S
C731 H706 0.951 . S
C731 C729 1.388 . S
C731 C732 1.366 . S
C732 C731 1.366 . S
C732 C733 1.414 . S
C732 C735 1.499 . S
C733 H707 0.950 . S
C733 C732 1.414 . S
C733 C734 1.374 . S
C734 H708 0.950 . S
C734 C730 1.385 . S
C734 C733 1.374 . S
C735 C732 1.499 . S
C735 C736 1.373 . S
C735 C737 1.389 . S
C736 H709 0.950 . S
C736 C722 1.377 . S
C736 C735 1.373 . S
C737 C721 1.377 . S
C737 C735 1.389 . S
C737 C738 1.524 . S
C738 C737 1.524 . S
C738 C739 1.397 . S
C738 C743 1.363 . S
C739 H710 0.950 . S
C739 C738 1.397 . S
C739 C740 1.334 . S
C740 H711 0.950 . S
C740 C739 1.334 . S
C740 C741 1.287 . S
C741 C740 1.287 . S
C741 C742 1.524 . S
C741 H744 0.999 . S
C742 H712 0.950 . S
C742 C741 1.524 . S
C742 C743 1.415 . S
C743 H713 0.950 . S
C743 C738 1.363 . S
C743 C742 1.415 . S
H744 C741 0.999 . S
H745 C726 0.913 . S
H746 C764 0.951 . S
H747 C766 0.951 . S
H748 C768 0.950 . S
H749 C769 0.950 . S
H750 C771 0.950 . S
H751 C774 0.950 . S
H752 C775 0.950 . S
H753 C777 0.950 . S
H754 C778 0.950 . S
H755 C779 0.951 . S
H756 C781 0.951 . S
H757 C783 0.950 . S
H758 C784 0.950 . S
H759 C786 0.950 . S
H760 C789 0.950 . S
H761 C790 0.950 . S
H762 C792 0.950 . S
H763 C793 0.950 . S
C764 H746 0.951 . S
C764 C765 1.366 . S
C764 C766 1.388 . S
C765 C764 1.366 . S
C765 C769 1.385 . S
C766 H747 0.951 . S
C766 C764 1.388 . S
C766 C767 1.366 . S
C767 C766 1.366 . S
C767 C768 1.414 . S
C767 C770 1.499 . S
C768 H748 0.950 . S
C768 C767 1.414 . S
C768 C769 1.374 . S
C769 H749 0.950 . S
C769 C765 1.385 . S
C769 C768 1.374 . S
C770 C767 1.499 . S
C770 C771 1.373 . S
C770 C772 1.389 . S
C771 H750 0.950 . S
C771 C770 1.373 . S
C771 C787 1.377 . S
C772 C770 1.389 . S
C772 C773 1.524 . S
C772 C786 1.377 . S
C773 C772 1.524 . S
C773 C774 1.397 . S
C773 C778 1.363 . S
C774 H751 0.950 . S
C774 C773 1.397 . S
C774 C775 1.334 . S
C775 H752 0.950 . S
C775 C774 1.334 . S
C775 C776 1.287 . S
C776 C775 1.287 . S
C776 C777 1.524 . S
C776 H795 0.913 . S
C777 H753 0.950 . S
C777 C776 1.524 . S
C777 C778 1.415 . S
C778 H754 0.950 . S
C778 C773 1.363 . S
C778 C777 1.415 . S
C779 H755 0.951 . S
C779 C780 1.366 . S
C779 C781 1.388 . S
C780 C779 1.366 . S
C780 C784 1.385 . S
C781 H756 0.951 . S
C781 C779 1.388 . S
C781 C782 1.366 . S
C782 C781 1.366 . S
C782 C783 1.414 . S
C782 C785 1.499 . S
C783 H757 0.950 . S
C783 C782 1.414 . S
C783 C784 1.374 . S
C784 H758 0.950 . S
C784 C780 1.385 . S
C784 C783 1.374 . S
C785 C782 1.499 . S
C785 C786 1.373 . S
C785 C787 1.389 . S
C786 H759 0.950 . S
C786 C772 1.377 . S
C786 C785 1.373 . S
C787 C771 1.377 . S
C787 C785 1.389 . S
C787 C788 1.524 . S
C788 C787 1.524 . S
C788 C789 1.397 . S
C788 C793 1.363 . S
C789 H760 0.950 . S
C789 C788 1.397 . S
C789 C790 1.334 . S
C790 H761 0.950 . S
C790 C789 1.334 . S
C790 C791 1.287 . S
C791 C790 1.287 . S
C791 C792 1.524 . S
C791 H794 0.999 . S
C792 H762 0.950 . S
C792 C791 1.524 . S
C792 C793 1.415 . S
C793 H763 0.950 . S
C793 C788 1.363 . S
C793 C792 1.415 . S
H794 C791 0.999 . S
H795 C776 0.913 . S
H796 C814 0.951 . S
H797 C816 0.951 . S
H798 C818 0.950 . S
H799 C819 0.950 . S
H800 C821 0.950 . S
H801 C824 0.950 . S
H802 C825 0.950 . S
H803 C827 0.950 1_554 S
H804 C828 0.950 . S
H805 C829 0.951 . S
H806 C831 0.951 . S
H807 C833 0.950 . S
H808 C834 0.950 . S
H809 C836 0.950 . S
H810 C839 0.950 . S
H811 C840 0.950 . S
H812 C842 0.950 . S
H813 C843 0.950 . S
C814 H796 0.951 . S
C814 C815 1.366 . S
C814 C816 1.388 . S
C815 C814 1.366 . S
C815 C819 1.385 . S
C816 H797 0.951 . S
C816 C814 1.388 . S
C816 C817 1.366 . S
C817 C816 1.366 . S
C817 C818 1.414 . S
C817 C820 1.499 . S
C818 H798 0.950 . S
C818 C817 1.414 . S
C818 C819 1.374 . S
C819 H799 0.950 . S
C819 C815 1.385 . S
C819 C818 1.374 . S
C820 C817 1.499 . S
C820 C821 1.373 . S
C820 C822 1.389 . S
C821 H800 0.950 . S
C821 C820 1.373 . S
C821 C837 1.377 . S
C822 C820 1.389 . S
C822 C823 1.524 . S
C822 C836 1.377 . S
C823 C822 1.524 . S
C823 C824 1.397 . S
C823 C828 1.363 . S
C824 H801 0.950 . S
C824 C823 1.397 . S
C824 C825 1.334 . S
C825 H802 0.950 . S
C825 C824 1.334 . S
C825 C826 1.287 . S
C826 C825 1.287 . S
C826 C827 1.524 . S
C826 H845 0.913 1_556 S
C827 H803 0.950 1_556 S
C827 C826 1.524 . S
C827 C828 1.415 . S
C828 H804 0.950 . S
C828 C823 1.363 . S
C828 C827 1.415 . S
C829 H805 0.951 . S
C829 C830 1.366 . S
C829 C831 1.388 . S
C830 C829 1.366 . S
C830 C834 1.385 . S
C831 H806 0.951 . S
C831 C829 1.388 . S
C831 C832 1.366 . S
C832 C831 1.366 . S
C832 C833 1.414 . S
C832 C835 1.499 . S
C833 H807 0.950 . S
C833 C832 1.414 . S
C833 C834 1.374 . S
C834 H808 0.950 . S
C834 C830 1.385 . S
C834 C833 1.374 . S
C835 C832 1.499 . S
C835 C836 1.373 . S
C835 C837 1.389 . S
C836 H809 0.950 . S
C836 C822 1.377 . S
C836 C835 1.373 . S
C837 C821 1.377 . S
C837 C835 1.389 . S
C837 C838 1.524 . S
C838 C837 1.524 . S
C838 C839 1.397 . S
C838 C843 1.363 . S
C839 H810 0.950 . S
C839 C838 1.397 . S
C839 C840 1.334 . S
C840 H811 0.950 . S
C840 C839 1.334 . S
C840 C841 1.287 . S
C841 C840 1.287 . S
C841 C842 1.524 . S
C841 H844 0.999 . S
C842 H812 0.950 . S
C842 C841 1.524 . S
C842 C843 1.415 . S
C843 H813 0.950 . S
C843 C838 1.363 . S
C843 C842 1.415 . S
H844 C841 0.999 . S
H845 C826 0.913 1_554 S
H846 C864 0.951 . S
H847 C866 0.951 . S
H848 C868 0.950 . S
H849 C869 0.950 . S
H850 C871 0.950 . S
H851 C874 0.950 . S
H852 C875 0.950 . S
H853 C877 0.950 . S
H854 C878 0.950 . S
H855 C879 0.951 . S
H856 C881 0.951 . S
H857 C883 0.950 . S
H858 C884 0.950 . S
H859 C886 0.950 . S
H860 C889 0.950 . S
H861 C890 0.950 . S
H862 C892 0.950 . S
H863 C893 0.950 . S
C864 H846 0.951 . S
C864 C865 1.366 . S
C864 C866 1.388 . S
C865 C864 1.366 . S
C865 C869 1.385 . S
C866 H847 0.951 . S
C866 C864 1.388 . S
C866 C867 1.366 . S
C867 C866 1.366 . S
C867 C868 1.414 . S
C867 C870 1.499 . S
C868 H848 0.950 . S
C868 C867 1.414 . S
C868 C869 1.374 . S
C869 H849 0.950 . S
C869 C865 1.385 . S
C869 C868 1.374 . S
C870 C867 1.499 . S
C870 C871 1.373 . S
C870 C872 1.389 . S
C871 H850 0.950 . S
C871 C870 1.373 . S
C871 C887 1.377 . S
C872 C870 1.389 . S
C872 C873 1.524 . S
C872 C886 1.377 . S
C873 C872 1.524 . S
C873 C874 1.397 . S
C873 C878 1.363 . S
C874 H851 0.950 . S
C874 C873 1.397 . S
C874 C875 1.334 1_556 S
C875 H852 0.950 . S
C875 C874 1.334 1_554 S
C875 C876 1.287 . S
C876 C875 1.287 . S
C876 C877 1.524 . S
C876 H895 0.913 . S
C877 H853 0.950 . S
C877 C876 1.524 . S
C877 C878 1.415 1_554 S
C878 H854 0.950 . S
C878 C873 1.363 . S
C878 C877 1.415 1_556 S
C879 H855 0.951 . S
C879 C880 1.366 . S
C879 C881 1.388 . S
C880 C879 1.366 . S
C880 C884 1.385 . S
C881 H856 0.951 . S
C881 C879 1.388 . S
C881 C882 1.366 . S
C882 C881 1.366 . S
C882 C883 1.414 . S
C882 C885 1.499 . S
C883 H857 0.950 . S
C883 C882 1.414 . S
C883 C884 1.374 . S
C884 H858 0.950 . S
C884 C880 1.385 . S
C884 C883 1.374 . S
C885 C882 1.499 . S
C885 C886 1.373 . S
C885 C887 1.389 . S
C886 H859 0.950 . S
C886 C872 1.377 . S
C886 C885 1.373 . S
C887 C871 1.377 . S
C887 C885 1.389 . S
C887 C888 1.524 . S
C888 C887 1.524 . S
C888 C889 1.397 . S
C888 C893 1.363 . S
C889 H860 0.950 . S
C889 C888 1.397 . S
C889 C890 1.334 . S
C890 H861 0.950 . S
C890 C889 1.334 . S
C890 C891 1.287 . S
C891 C890 1.287 . S
C891 C892 1.524 . S
C891 H894 0.999 . S
C892 H862 0.950 . S
C892 C891 1.524 . S
C892 C893 1.415 . S
C893 H863 0.950 . S
C893 C888 1.363 . S
C893 C892 1.415 . S
H894 C891 0.999 . S
H895 C876 0.913 . S
H896 C914 0.951 . S
H897 C916 0.951 . S
H898 C918 0.950 . S
H899 C919 0.950 . S
H900 C921 0.950 . S
H901 C924 0.950 . S
H902 C925 0.950 . S
H903 C927 0.950 . S
H904 C928 0.950 . S
H905 C929 0.951 . S
H906 C931 0.951 . S
H907 C933 0.950 . S
H908 C934 0.950 . S
H909 C936 0.950 . S
H910 C939 0.950 . S
H911 C940 0.950 . S
H912 C942 0.950 . S
H913 C943 0.950 . S
C914 H896 0.951 . S
C914 C915 1.366 . S
C914 C916 1.388 . S
C915 C914 1.366 . S
C915 C919 1.385 . S
C916 H897 0.951 . S
C916 C914 1.388 . S
C916 C917 1.366 . S
C917 C916 1.366 . S
C917 C918 1.414 . S
C917 C920 1.499 . S
C918 H898 0.950 . S
C918 C917 1.414 . S
C918 C919 1.374 . S
C919 H899 0.950 . S
C919 C915 1.385 . S
C919 C918 1.374 . S
C920 C917 1.499 . S
C920 C921 1.373 . S
C920 C922 1.389 . S
C921 H900 0.950 . S
C921 C920 1.373 . S
C921 C937 1.377 . S
C922 C920 1.389 . S
C922 C923 1.524 . S
C922 C936 1.377 . S
C923 C922 1.524 . S
C923 C924 1.397 . S
C923 C928 1.363 . S
C924 H901 0.950 . S
C924 C923 1.397 . S
C924 C925 1.334 . S
C925 H902 0.950 . S
C925 C924 1.334 . S
C925 C926 1.287 . S
C926 C925 1.287 . S
C926 C927 1.524 . S
C926 H945 0.913 . S
C927 H903 0.950 . S
C927 C926 1.524 . S
C927 C928 1.415 . S
C928 H904 0.950 . S
C928 C923 1.363 . S
C928 C927 1.415 . S
C929 H905 0.951 . S
C929 C930 1.366 . S
C929 C931 1.388 . S
C930 C929 1.366 . S
C930 C934 1.385 . S
C931 H906 0.951 . S
C931 C929 1.388 . S
C931 C932 1.366 . S
C932 C931 1.366 . S
C932 C933 1.414 . S
C932 C935 1.499 . S
C933 H907 0.950 . S
C933 C932 1.414 . S
C933 C934 1.374 . S
C934 H908 0.950 . S
C934 C930 1.385 . S
C934 C933 1.374 . S
C935 C932 1.499 . S
C935 C936 1.373 . S
C935 C937 1.389 . S
C936 H909 0.950 . S
C936 C922 1.377 . S
C936 C935 1.373 . S
C937 C921 1.377 . S
C937 C935 1.389 . S
C937 C938 1.524 . S
C938 C937 1.524 . S
C938 C939 1.397 . S
C938 C943 1.363 . S
C939 H910 0.950 . S
C939 C938 1.397 . S
C939 C940 1.334 . S
C940 H911 0.950 . S
C940 C939 1.334 . S
C940 C941 1.287 . S
C941 C940 1.287 . S
C941 C942 1.524 . S
C941 H944 0.999 . S
C942 H912 0.950 . S
C942 C941 1.524 . S
C942 C943 1.415 . S
C943 H913 0.950 . S
C943 C938 1.363 . S
C943 C942 1.415 . S
H944 C941 0.999 . S
H945 C926 0.913 . S
H946 C964 0.951 . S
H947 C966 0.951 . S
H948 C968 0.950 . S
H949 C969 0.950 . S
H950 C971 0.950 . S
H951 C974 0.950 . S
H952 C975 0.950 . S
H953 C977 0.950 . S
H954 C978 0.950 . S
H955 C979 0.951 . S
H956 C981 0.951 . S
H957 C983 0.950 . S
H958 C984 0.950 . S
H959 C986 0.950 . S
H960 C989 0.950 . S
H961 C990 0.950 . S
H962 C992 0.950 . S
H963 C993 0.950 . S
C964 H946 0.951 . S
C964 C965 1.366 . S
C964 C966 1.388 . S
C965 C964 1.366 . S
C965 C969 1.385 . S
C966 H947 0.951 . S
C966 C964 1.388 . S
C966 C967 1.366 . S
C967 C966 1.366 . S
C967 C968 1.414 . S
C967 C970 1.499 . S
C968 H948 0.950 . S
C968 C967 1.414 . S
C968 C969 1.374 . S
C969 H949 0.950 . S
C969 C965 1.385 . S
C969 C968 1.374 . S
C970 C967 1.499 . S
C970 C971 1.373 . S
C970 C972 1.389 . S
C971 H950 0.950 . S
C971 C970 1.373 . S
C971 C987 1.377 . S
C972 C970 1.389 . S
C972 C973 1.524 . S
C972 C986 1.377 . S
C973 C972 1.524 . S
C973 C974 1.397 . S
C973 C978 1.363 . S
C974 H951 0.950 . S
C974 C973 1.397 . S
C974 C975 1.334 1_556 S
C975 H952 0.950 . S
C975 C974 1.334 1_554 S
C975 C976 1.287 . S
C976 C975 1.287 . S
C976 C977 1.524 . S
C976 H995 0.913 . S
C977 H953 0.950 . S
C977 C976 1.524 . S
C977 C978 1.415 1_554 S
C978 H954 0.950 . S
C978 C973 1.363 . S
C978 C977 1.415 1_556 S
C979 H955 0.951 . S
C979 C980 1.366 . S
C979 C981 1.388 . S
C980 C979 1.366 . S
C980 C984 1.385 . S
C981 H956 0.951 . S
C981 C979 1.388 . S
C981 C982 1.366 . S
C982 C981 1.366 . S
C982 C983 1.414 . S
C982 C985 1.499 . S
C983 H957 0.950 . S
C983 C982 1.414 . S
C983 C984 1.374 . S
C984 H958 0.950 . S
C984 C980 1.385 . S
C984 C983 1.374 . S
C985 C982 1.499 . S
C985 C986 1.373 . S
C985 C987 1.389 . S
C986 H959 0.950 . S
C986 C972 1.377 . S
C986 C985 1.373 . S
C987 C971 1.377 . S
C987 C985 1.389 . S
C987 C988 1.524 . S
C988 C987 1.524 . S
C988 C989 1.397 . S
C988 C993 1.363 . S
C989 H960 0.950 . S
C989 C988 1.397 . S
C989 C990 1.334 . S
C990 H961 0.950 . S
C990 C989 1.334 . S
C990 C991 1.287 . S
C991 C990 1.287 . S
C991 C992 1.524 . S
C991 H994 0.999 . S
C992 H962 0.950 . S
C992 C991 1.524 . S
C992 C993 1.415 . S
C993 H963 0.950 . S
C993 C988 1.363 . S
C993 C992 1.415 . S
H994 C991 0.999 . S
H995 C976 0.913 . S
H996 C1014 0.951 . S
H997 C1016 0.951 . S
H998 C1018 0.950 . S
H999 C1019 0.950 . S
H1000 C1021 0.950 . S
H1001 C1024 0.950 . S
H1002 C1025 0.950 . S
H1003 C1027 0.950 . S
H1004 C1028 0.950 . S
H1005 C1029 0.951 . S
H1006 C1031 0.951 . S
H1007 C1033 0.950 . S
H1008 C1034 0.950 . S
H1009 C1036 0.950 . S
H1010 C1039 0.950 . S
H1011 C1040 0.950 . S
H1012 C1042 0.950 . S
H1013 C1043 0.950 . S
C1014 H996 0.951 . S
C1014 C1015 1.366 . S
C1014 C1016 1.388 . S
C1015 C1014 1.366 . S
C1015 C1019 1.385 . S
C1016 H997 0.951 . S
C1016 C1014 1.388 . S
C1016 C1017 1.366 . S
C1017 C1016 1.366 . S
C1017 C1018 1.414 . S
C1017 C1020 1.499 . S
C1018 H998 0.950 . S
C1018 C1017 1.414 . S
C1018 C1019 1.374 . S
C1019 H999 0.950 . S
C1019 C1015 1.385 . S
C1019 C1018 1.374 . S
C1020 C1017 1.499 . S
C1020 C1021 1.373 . S
C1020 C1022 1.389 . S
C1021 H1000 0.950 . S
C1021 C1020 1.373 . S
C1021 C1037 1.377 . S
C1022 C1020 1.389 . S
C1022 C1023 1.524 . S
C1022 C1036 1.377 . S
C1023 C1022 1.524 . S
C1023 C1024 1.397 . S
C1023 C1028 1.363 . S
C1024 H1001 0.950 . S
C1024 C1023 1.397 . S
C1024 C1025 1.334 . S
C1025 H1002 0.950 . S
C1025 C1024 1.334 . S
C1025 C1026 1.287 . S
C1026 C1025 1.287 . S
C1026 C1027 1.524 . S
C1026 H1045 0.913 . S
C1027 H1003 0.950 . S
C1027 C1026 1.524 . S
C1027 C1028 1.415 . S
C1028 H1004 0.950 . S
C1028 C1023 1.363 . S
C1028 C1027 1.415 . S
C1029 H1005 0.951 . S
C1029 C1030 1.366 . S
C1029 C1031 1.388 . S
C1030 C1029 1.366 . S
C1030 C1034 1.385 . S
C1031 H1006 0.951 . S
C1031 C1029 1.388 . S
C1031 C1032 1.366 . S
C1032 C1031 1.366 . S
C1032 C1033 1.414 . S
C1032 C1035 1.499 . S
C1033 H1007 0.950 . S
C1033 C1032 1.414 . S
C1033 C1034 1.374 . S
C1034 H1008 0.950 . S
C1034 C1030 1.385 . S
C1034 C1033 1.374 . S
C1035 C1032 1.499 . S
C1035 C1036 1.373 . S
C1035 C1037 1.389 . S
C1036 H1009 0.950 . S
C1036 C1022 1.377 . S
C1036 C1035 1.373 . S
C1037 C1021 1.377 . S
C1037 C1035 1.389 . S
C1037 C1038 1.524 . S
C1038 C1037 1.524 . S
C1038 C1039 1.397 . S
C1038 C1043 1.363 . S
C1039 H1010 0.950 . S
C1039 C1038 1.397 . S
C1039 C1040 1.334 . S
C1040 H1011 0.950 . S
C1040 C1039 1.334 . S
C1040 C1041 1.287 . S
C1041 C1040 1.287 . S
C1041 C1042 1.524 . S
C1041 H1044 0.999 . S
C1042 H1012 0.950 . S
C1042 C1041 1.524 . S
C1042 C1043 1.415 . S
C1043 H1013 0.950 . S
C1043 C1038 1.363 . S
C1043 C1042 1.415 . S
H1044 C1041 0.999 . S
H1045 C1026 0.913 . S
H1046 C1064 0.951 . S
H1047 C1066 0.951 . S
H1048 C1068 0.950 . S
H1049 C1069 0.950 . S
H1050 C1071 0.950 . S
H1051 C1074 0.950 . S
H1052 C1075 0.950 . S
H1053 C1077 0.950 . S
H1054 C1078 0.950 . S
H1055 C1079 0.951 . S
H1056 C1081 0.951 . S
H1057 C1083 0.950 . S
H1058 C1084 0.950 . S
H1059 C1086 0.950 . S
H1060 C1089 0.950 . S
H1061 C1090 0.950 . S
H1062 C1092 0.950 . S
H1063 C1093 0.950 . S
C1064 H1046 0.951 . S
C1064 C1065 1.366 . S
C1064 C1066 1.388 . S
C1065 C1064 1.366 . S
C1065 C1069 1.385 . S
C1066 H1047 0.951 . S
C1066 C1064 1.388 . S
C1066 C1067 1.366 . S
C1067 C1066 1.366 . S
C1067 C1068 1.414 . S
C1067 C1070 1.499 . S
C1068 H1048 0.950 . S
C1068 C1067 1.414 . S
C1068 C1069 1.374 . S
C1069 H1049 0.950 . S
C1069 C1065 1.385 . S
C1069 C1068 1.374 . S
C1070 C1067 1.499 . S
C1070 C1071 1.373 . S
C1070 C1072 1.389 . S
C1071 H1050 0.950 . S
C1071 C1070 1.373 . S
C1071 C1087 1.377 . S
C1072 C1070 1.389 . S
C1072 C1073 1.524 . S
C1072 C1086 1.377 . S
C1073 C1072 1.524 . S
C1073 C1074 1.397 . S
C1073 C1078 1.363 . S
C1074 H1051 0.950 . S
C1074 C1073 1.397 . S
C1074 C1075 1.334 . S
C1075 H1052 0.950 . S
C1075 C1074 1.334 . S
C1075 C1076 1.287 . S
C1076 C1075 1.287 . S
C1076 C1077 1.524 . S
C1076 H1095 0.913 . S
C1077 H1053 0.950 . S
C1077 C1076 1.524 . S
C1077 C1078 1.415 . S
C1078 H1054 0.950 . S
C1078 C1073 1.363 . S
C1078 C1077 1.415 . S
C1079 H1055 0.951 . S
C1079 C1080 1.366 . S
C1079 C1081 1.388 . S
C1080 C1079 1.366 . S
C1080 C1084 1.385 . S
C1081 H1056 0.951 . S
C1081 C1079 1.388 . S
C1081 C1082 1.366 . S
C1082 C1081 1.366 . S
C1082 C1083 1.414 . S
C1082 C1085 1.499 . S
C1083 H1057 0.950 . S
C1083 C1082 1.414 . S
C1083 C1084 1.374 . S
C1084 H1058 0.950 . S
C1084 C1080 1.385 . S
C1084 C1083 1.374 . S
C1085 C1082 1.499 . S
C1085 C1086 1.373 . S
C1085 C1087 1.389 . S
C1086 H1059 0.950 . S
C1086 C1072 1.377 . S
C1086 C1085 1.373 . S
C1087 C1071 1.377 . S
C1087 C1085 1.389 . S
C1087 C1088 1.524 . S
C1088 C1087 1.524 . S
C1088 C1089 1.397 . S
C1088 C1093 1.363 . S
C1089 H1060 0.950 . S
C1089 C1088 1.397 . S
C1089 C1090 1.334 . S
C1090 H1061 0.950 . S
C1090 C1089 1.334 . S
C1090 C1091 1.287 . S
C1091 C1090 1.287 . S
C1091 C1092 1.524 . S
C1091 H1094 0.999 . S
C1092 H1062 0.950 . S
C1092 C1091 1.524 . S
C1092 C1093 1.415 . S
C1093 H1063 0.950 . S
C1093 C1088 1.363 . S
C1093 C1092 1.415 . S
H1094 C1091 0.999 . S
H1095 C1076 0.913 . S
H1096 C1114 0.951 . S
H1097 C1116 0.951 . S
H1098 C1118 0.950 . S
H1099 C1119 0.950 . S
H1100 C1121 0.950 . S
H1101 C1124 0.950 . S
H1102 C1125 0.950 . S
H1103 C1127 0.950 . S
H1104 C1128 0.950 . S
H1105 C1129 0.951 . S
H1106 C1131 0.951 . S
H1107 C1133 0.950 . S
H1108 C1134 0.950 . S
H1109 C1136 0.950 . S
H1110 C1139 0.950 . S
H1111 C1140 0.950 . S
H1112 C1142 0.950 . S
H1113 C1143 0.950 . S
C1114 H1096 0.951 . S
C1114 C1115 1.366 . S
C1114 C1116 1.388 . S
C1115 C1114 1.366 . S
C1115 C1119 1.385 . S
C1116 H1097 0.951 . S
C1116 C1114 1.388 . S
C1116 C1117 1.366 . S
C1117 C1116 1.366 . S
C1117 C1118 1.414 . S
C1117 C1120 1.499 . S
C1118 H1098 0.950 . S
C1118 C1117 1.414 . S
C1118 C1119 1.374 . S
C1119 H1099 0.950 . S
C1119 C1115 1.385 . S
C1119 C1118 1.374 . S
C1120 C1117 1.499 . S
C1120 C1121 1.373 . S
C1120 C1122 1.389 . S
C1121 H1100 0.950 . S
C1121 C1120 1.373 . S
C1121 C1137 1.377 . S
C1122 C1120 1.389 . S
C1122 C1123 1.524 . S
C1122 C1136 1.377 . S
C1123 C1122 1.524 . S
C1123 C1124 1.397 . S
C1123 C1128 1.363 . S
C1124 H1101 0.950 . S
C1124 C1123 1.397 . S
C1124 C1125 1.334 . S
C1125 H1102 0.950 . S
C1125 C1124 1.334 . S
C1125 C1126 1.287 . S
C1126 C1125 1.287 . S
C1126 C1127 1.524 . S
C1126 H1145 0.913 . S
C1127 H1103 0.950 . S
C1127 C1126 1.524 . S
C1127 C1128 1.415 . S
C1128 H1104 0.950 . S
C1128 C1123 1.363 . S
C1128 C1127 1.415 . S
C1129 H1105 0.951 . S
C1129 C1130 1.366 . S
C1129 C1131 1.388 . S
C1130 C1129 1.366 . S
C1130 C1134 1.385 . S
C1131 H1106 0.951 . S
C1131 C1129 1.388 . S
C1131 C1132 1.366 . S
C1132 C1131 1.366 . S
C1132 C1133 1.414 . S
C1132 C1135 1.499 . S
C1133 H1107 0.950 . S
C1133 C1132 1.414 . S
C1133 C1134 1.374 . S
C1134 H1108 0.950 . S
C1134 C1130 1.385 . S
C1134 C1133 1.374 . S
C1135 C1132 1.499 . S
C1135 C1136 1.373 . S
C1135 C1137 1.389 . S
C1136 H1109 0.950 . S
C1136 C1122 1.377 . S
C1136 C1135 1.373 . S
C1137 C1121 1.377 . S
C1137 C1135 1.389 . S
C1137 C1138 1.524 . S
C1138 C1137 1.524 . S
C1138 C1139 1.397 . S
C1138 C1143 1.363 . S
C1139 H1110 0.950 . S
C1139 C1138 1.397 . S
C1139 C1140 1.334 . S
C1140 H1111 0.950 . S
C1140 C1139 1.334 . S
C1140 C1141 1.287 . S
C1141 C1140 1.287 . S
C1141 C1142 1.524 . S
C1141 H1144 0.999 . S
C1142 H1112 0.950 . S
C1142 C1141 1.524 . S
C1142 C1143 1.415 . S
C1143 H1113 0.950 . S
C1143 C1138 1.363 . S
C1143 C1142 1.415 . S
H1144 C1141 0.999 . S
H1145 C1126 0.913 . S
H1146 C1164 0.951 . S
H1147 C1166 0.951 . S
H1148 C1168 0.950 . S
H1149 C1169 0.950 . S
H1150 C1171 0.950 . S
H1151 C1174 0.950 . S
H1152 C1175 0.950 . S
H1153 C1177 0.950 . S
H1154 C1178 0.950 . S
H1155 C1179 0.951 . S
H1156 C1181 0.951 . S
H1157 C1183 0.950 . S
H1158 C1184 0.950 . S
H1159 C1186 0.950 . S
H1160 C1189 0.950 . S
H1161 C1190 0.950 . S
H1162 C1192 0.950 . S
H1163 C1193 0.950 . S
C1164 H1146 0.951 . S
C1164 C1165 1.366 . S
C1164 C1166 1.388 . S
C1165 C1164 1.366 . S
C1165 C1169 1.385 . S
C1166 H1147 0.951 . S
C1166 C1164 1.388 . S
C1166 C1167 1.366 . S
C1167 C1166 1.366 . S
C1167 C1168 1.414 . S
C1167 C1170 1.499 . S
C1168 H1148 0.950 . S
C1168 C1167 1.414 . S
C1168 C1169 1.374 . S
C1169 H1149 0.950 . S
C1169 C1165 1.385 . S
C1169 C1168 1.374 . S
C1170 C1167 1.499 . S
C1170 C1171 1.373 . S
C1170 C1172 1.389 . S
C1171 H1150 0.950 . S
C1171 C1170 1.373 . S
C1171 C1187 1.377 . S
C1172 C1170 1.389 . S
C1172 C1173 1.524 . S
C1172 C1186 1.377 . S
C1173 C1172 1.524 . S
C1173 C1174 1.397 . S
C1173 C1178 1.363 . S
C1174 H1151 0.950 . S
C1174 C1173 1.397 . S
C1174 C1175 1.334 . S
C1175 H1152 0.950 . S
C1175 C1174 1.334 . S
C1175 C1176 1.287 . S
C1176 C1175 1.287 . S
C1176 C1177 1.524 . S
C1176 H1195 0.913 . S
C1177 H1153 0.950 . S
C1177 C1176 1.524 . S
C1177 C1178 1.415 . S
C1178 H1154 0.950 . S
C1178 C1173 1.363 . S
C1178 C1177 1.415 . S
C1179 H1155 0.951 . S
C1179 C1180 1.366 . S
C1179 C1181 1.388 . S
C1180 C1179 1.366 . S
C1180 C1184 1.385 . S
C1181 H1156 0.951 . S
C1181 C1179 1.388 . S
C1181 C1182 1.366 . S
C1182 C1181 1.366 . S
C1182 C1183 1.414 . S
C1182 C1185 1.499 . S
C1183 H1157 0.950 . S
C1183 C1182 1.414 . S
C1183 C1184 1.374 . S
C1184 H1158 0.950 . S
C1184 C1180 1.385 . S
C1184 C1183 1.374 . S
C1185 C1182 1.499 . S
C1185 C1186 1.373 . S
C1185 C1187 1.389 . S
C1186 H1159 0.950 . S
C1186 C1172 1.377 . S
C1186 C1185 1.373 . S
C1187 C1171 1.377 . S
C1187 C1185 1.389 . S
C1187 C1188 1.524 . S
C1188 C1187 1.524 . S
C1188 C1189 1.397 . S
C1188 C1193 1.363 . S
C1189 H1160 0.950 . S
C1189 C1188 1.397 . S
C1189 C1190 1.334 . S
C1190 H1161 0.950 . S
C1190 C1189 1.334 . S
C1190 C1191 1.287 . S
C1191 C1190 1.287 . S
C1191 C1192 1.524 . S
C1191 H1194 0.999 . S
C1192 H1162 0.950 . S
C1192 C1191 1.524 . S
C1192 C1193 1.415 . S
C1193 H1163 0.950 . S
C1193 C1188 1.363 . S
C1193 C1192 1.415 . S
H1194 C1191 0.999 . S
H1195 C1176 0.913 . S
H1196 C1214 0.951 . S
H1197 C1216 0.951 . S
H1198 C1218 0.950 . S
H1199 C1219 0.950 . S
H1200 C1221 0.950 . S
H1201 C1224 0.950 . S
H1202 C1225 0.950 . S
H1203 C1227 0.950 . S
H1204 C1228 0.950 . S
H1205 C1229 0.951 . S
H1206 C1231 0.951 . S
H1207 C1233 0.950 . S
H1208 C1234 0.950 . S
H1209 C1236 0.950 . S
H1210 C1239 0.950 . S
H1211 C1240 0.950 . S
H1212 C1242 0.950 . S
H1213 C1243 0.950 . S
C1214 H1196 0.951 . S
C1214 C1215 1.366 . S
C1214 C1216 1.388 . S
C1215 C1214 1.366 . S
C1215 C1219 1.385 . S
C1216 H1197 0.951 . S
C1216 C1214 1.388 . S
C1216 C1217 1.366 . S
C1217 C1216 1.366 . S
C1217 C1218 1.414 . S
C1217 C1220 1.499 . S
C1218 H1198 0.950 . S
C1218 C1217 1.414 . S
C1218 C1219 1.374 . S
C1219 H1199 0.950 . S
C1219 C1215 1.385 . S
C1219 C1218 1.374 . S
C1220 C1217 1.499 . S
C1220 C1221 1.373 . S
C1220 C1222 1.389 . S
C1221 H1200 0.950 . S
C1221 C1220 1.373 . S
C1221 C1237 1.377 . S
C1222 C1220 1.389 . S
C1222 C1223 1.524 . S
C1222 C1236 1.377 . S
C1223 C1222 1.524 . S
C1223 C1224 1.397 . S
C1223 C1228 1.363 . S
C1224 H1201 0.950 . S
C1224 C1223 1.397 . S
C1224 C1225 1.334 . S
C1225 H1202 0.950 . S
C1225 C1224 1.334 . S
C1225 C1226 1.287 . S
C1226 C1225 1.287 . S
C1226 C1227 1.524 . S
C1226 H1245 0.913 . S
C1227 H1203 0.950 . S
C1227 C1226 1.524 . S
C1227 C1228 1.415 . S
C1228 H1204 0.950 . S
C1228 C1223 1.363 . S
C1228 C1227 1.415 . S
C1229 H1205 0.951 . S
C1229 C1230 1.366 . S
C1229 C1231 1.388 . S
C1230 C1229 1.366 . S
C1230 C1234 1.385 . S
C1231 H1206 0.951 . S
C1231 C1229 1.388 . S
C1231 C1232 1.366 . S
C1232 C1231 1.366 . S
C1232 C1233 1.414 . S
C1232 C1235 1.499 . S
C1233 H1207 0.950 . S
C1233 C1232 1.414 . S
C1233 C1234 1.374 . S
C1234 H1208 0.950 . S
C1234 C1230 1.385 . S
C1234 C1233 1.374 . S
C1235 C1232 1.499 . S
C1235 C1236 1.373 . S
C1235 C1237 1.389 . S
C1236 H1209 0.950 . S
C1236 C1222 1.377 . S
C1236 C1235 1.373 . S
C1237 C1221 1.377 . S
C1237 C1235 1.389 . S
C1237 C1238 1.524 . S
C1238 C1237 1.524 . S
C1238 C1239 1.397 . S
C1238 C1243 1.363 . S
C1239 H1210 0.950 . S
C1239 C1238 1.397 . S
C1239 C1240 1.334 . S
C1240 H1211 0.950 . S
C1240 C1239 1.334 . S
C1240 C1241 1.287 . S
C1241 C1240 1.287 . S
C1241 C1242 1.524 . S
C1241 H1244 0.999 . S
C1242 H1212 0.950 . S
C1242 C1241 1.524 . S
C1242 C1243 1.415 . S
C1243 H1213 0.950 . S
C1243 C1238 1.363 . S
C1243 C1242 1.415 . S
H1244 C1241 0.999 . S
H1245 C1226 0.913 . S
H1246 C1264 0.951 . S
H1247 C1266 0.951 . S
H1248 C1268 0.950 . S
H1249 C1269 0.950 . S
H1250 C1271 0.950 . S
H1251 C1274 0.950 . S
H1252 C1275 0.950 . S
H1253 C1277 0.950 . S
H1254 C1278 0.950 . S
H1255 C1279 0.951 . S
H1256 C1281 0.951 . S
H1257 C1283 0.950 . S
H1258 C1284 0.950 . S
H1259 C1286 0.950 . S
H1260 C1289 0.950 . S
H1261 C1290 0.950 . S
H1262 C1292 0.950 . S
H1263 C1293 0.950 . S
C1264 H1246 0.951 . S
C1264 C1265 1.366 . S
C1264 C1266 1.388 . S
C1265 C1264 1.366 . S
C1265 C1269 1.385 . S
C1266 H1247 0.951 . S
C1266 C1264 1.388 . S
C1266 C1267 1.366 . S
C1267 C1266 1.366 . S
C1267 C1268 1.414 . S
C1267 C1270 1.499 . S
C1268 H1248 0.950 . S
C1268 C1267 1.414 . S
C1268 C1269 1.374 . S
C1269 H1249 0.950 . S
C1269 C1265 1.385 . S
C1269 C1268 1.374 . S
C1270 C1267 1.499 . S
C1270 C1271 1.373 . S
C1270 C1272 1.389 . S
C1271 H1250 0.950 . S
C1271 C1270 1.373 . S
C1271 C1287 1.377 . S
C1272 C1270 1.389 . S
C1272 C1273 1.524 . S
C1272 C1286 1.377 . S
C1273 C1272 1.524 . S
C1273 C1274 1.397 . S
C1273 C1278 1.363 . S
C1274 H1251 0.950 . S
C1274 C1273 1.397 . S
C1274 C1275 1.334 . S
C1275 H1252 0.950 . S
C1275 C1274 1.334 . S
C1275 C1276 1.287 . S
C1276 C1275 1.287 . S
C1276 C1277 1.524 . S
C1276 H1295 0.913 . S
C1277 H1253 0.950 . S
C1277 C1276 1.524 . S
C1277 C1278 1.415 . S
C1278 H1254 0.950 . S
C1278 C1273 1.363 . S
C1278 C1277 1.415 . S
C1279 H1255 0.951 . S
C1279 C1280 1.366 . S
C1279 C1281 1.388 . S
C1280 C1279 1.366 . S
C1280 C1284 1.385 . S
C1281 H1256 0.951 . S
C1281 C1279 1.388 . S
C1281 C1282 1.366 . S
C1282 C1281 1.366 . S
C1282 C1283 1.414 . S
C1282 C1285 1.499 . S
C1283 H1257 0.950 . S
C1283 C1282 1.414 . S
C1283 C1284 1.374 . S
C1284 H1258 0.950 . S
C1284 C1280 1.385 . S
C1284 C1283 1.374 . S
C1285 C1282 1.499 . S
C1285 C1286 1.373 . S
C1285 C1287 1.389 . S
C1286 H1259 0.950 . S
C1286 C1272 1.377 . S
C1286 C1285 1.373 . S
C1287 C1271 1.377 . S
C1287 C1285 1.389 . S
C1287 C1288 1.524 . S
C1288 C1287 1.524 . S
C1288 C1289 1.397 . S
C1288 C1293 1.363 . S
C1289 H1260 0.950 . S
C1289 C1288 1.397 . S
C1289 C1290 1.334 . S
C1290 H1261 0.950 . S
C1290 C1289 1.334 . S
C1290 C1291 1.287 . S
C1291 C1290 1.287 . S
C1291 C1292 1.524 . S
C1291 H1294 0.999 . S
C1292 H1262 0.950 . S
C1292 C1291 1.524 . S
C1292 C1293 1.415 . S
C1293 H1263 0.950 . S
C1293 C1288 1.363 . S
C1293 C1292 1.415 . S
H1294 C1291 0.999 . S
H1295 C1276 0.913 . S
H1296 C1314 0.951 . S
H1297 C1316 0.951 . S
H1298 C1318 0.950 . S
H1299 C1319 0.950 . S
H1300 C1321 0.950 . S
H1301 C1324 0.950 . S
H1302 C1325 0.950 . S
H1303 C1327 0.950 . S
H1304 C1328 0.950 . S
H1305 C1329 0.951 . S
H1306 C1331 0.951 . S
H1307 C1333 0.950 . S
H1308 C1334 0.950 . S
H1309 C1336 0.950 . S
H1310 C1339 0.950 . S
H1311 C1340 0.950 . S
H1312 C1342 0.950 . S
H1313 C1343 0.950 . S
C1314 H1296 0.951 . S
C1314 C1315 1.366 . S
C1314 C1316 1.388 . S
C1315 C1314 1.366 . S
C1315 C1319 1.385 . S
C1316 H1297 0.951 . S
C1316 C1314 1.388 . S
C1316 C1317 1.366 . S
C1317 C1316 1.366 . S
C1317 C1318 1.414 . S
C1317 C1320 1.499 . S
C1318 H1298 0.950 . S
C1318 C1317 1.414 . S
C1318 C1319 1.374 . S
C1319 H1299 0.950 . S
C1319 C1315 1.385 . S
C1319 C1318 1.374 . S
C1320 C1317 1.499 . S
C1320 C1321 1.373 . S
C1320 C1322 1.389 . S
C1321 H1300 0.950 . S
C1321 C1320 1.373 . S
C1321 C1337 1.377 . S
C1322 C1320 1.389 . S
C1322 C1323 1.524 . S
C1322 C1336 1.377 . S
C1323 C1322 1.524 . S
C1323 C1324 1.397 . S
C1323 C1328 1.363 . S
C1324 H1301 0.950 . S
C1324 C1323 1.397 . S
C1324 C1325 1.334 . S
C1325 H1302 0.950 . S
C1325 C1324 1.334 . S
C1325 C1326 1.287 . S
C1326 C1325 1.287 . S
C1326 C1327 1.524 . S
C1326 H1345 0.913 . S
C1327 H1303 0.950 . S
C1327 C1326 1.524 . S
C1327 C1328 1.415 . S
C1328 H1304 0.950 . S
C1328 C1323 1.363 . S
C1328 C1327 1.415 . S
C1329 H1305 0.951 . S
C1329 C1330 1.366 . S
C1329 C1331 1.388 . S
C1330 C1329 1.366 . S
C1330 C1334 1.385 . S
C1331 H1306 0.951 . S
C1331 C1329 1.388 . S
C1331 C1332 1.366 . S
C1332 C1331 1.366 . S
C1332 C1333 1.414 . S
C1332 C1335 1.499 . S
C1333 H1307 0.950 . S
C1333 C1332 1.414 . S
C1333 C1334 1.374 . S
C1334 H1308 0.950 . S
C1334 C1330 1.385 . S
C1334 C1333 1.374 . S
C1335 C1332 1.499 . S
C1335 C1336 1.373 . S
C1335 C1337 1.389 . S
C1336 H1309 0.950 . S
C1336 C1322 1.377 . S
C1336 C1335 1.373 . S
C1337 C1321 1.377 . S
C1337 C1335 1.389 . S
C1337 C1338 1.524 . S
C1338 C1337 1.524 . S
C1338 C1339 1.397 . S
C1338 C1343 1.363 . S
C1339 H1310 0.950 . S
C1339 C1338 1.397 . S
C1339 C1340 1.334 . S
C1340 H1311 0.950 . S
C1340 C1339 1.334 . S
C1340 C1341 1.287 . S
C1341 C1340 1.287 . S
C1341 C1342 1.524 . S
C1341 H1344 0.999 . S
C1342 H1312 0.950 . S
C1342 C1341 1.524 . S
C1342 C1343 1.415 . S
C1343 H1313 0.950 . S
C1343 C1338 1.363 . S
C1343 C1342 1.415 . S
H1344 C1341 0.999 . S
H1345 C1326 0.913 . S
H1346 C1364 0.951 . S
H1347 C1366 0.951 . S
H1348 C1368 0.950 . S
H1349 C1369 0.950 . S
H1350 C1371 0.950 . S
H1351 C1374 0.950 . S
H1352 C1375 0.950 . S
H1353 C1377 0.950 . S
H1354 C1378 0.950 . S
H1355 C1379 0.951 . S
H1356 C1381 0.951 . S
H1357 C1383 0.950 . S
H1358 C1384 0.950 . S
H1359 C1386 0.950 . S
H1360 C1389 0.950 . S
H1361 C1390 0.950 . S
H1362 C1392 0.950 . S
H1363 C1393 0.950 . S
C1364 H1346 0.951 . S
C1364 C1365 1.366 . S
C1364 C1366 1.388 . S
C1365 C1364 1.366 . S
C1365 C1369 1.385 . S
C1366 H1347 0.951 . S
C1366 C1364 1.388 . S
C1366 C1367 1.366 . S
C1367 C1366 1.366 . S
C1367 C1368 1.414 . S
C1367 C1370 1.499 . S
C1368 H1348 0.950 . S
C1368 C1367 1.414 . S
C1368 C1369 1.374 . S
C1369 H1349 0.950 . S
C1369 C1365 1.385 . S
C1369 C1368 1.374 . S
C1370 C1367 1.499 . S
C1370 C1371 1.373 . S
C1370 C1372 1.389 . S
C1371 H1350 0.950 . S
C1371 C1370 1.373 . S
C1371 C1387 1.377 . S
C1372 C1370 1.389 . S
C1372 C1373 1.524 . S
C1372 C1386 1.377 . S
C1373 C1372 1.524 . S
C1373 C1374 1.397 . S
C1373 C1378 1.363 . S
C1374 H1351 0.950 . S
C1374 C1373 1.397 . S
C1374 C1375 1.334 . S
C1375 H1352 0.950 . S
C1375 C1374 1.334 . S
C1375 C1376 1.287 . S
C1376 C1375 1.287 . S
C1376 C1377 1.524 . S
C1376 H1395 0.913 . S
C1377 H1353 0.950 . S
C1377 C1376 1.524 . S
C1377 C1378 1.415 . S
C1378 H1354 0.950 . S
C1378 C1373 1.363 . S
C1378 C1377 1.415 . S
C1379 H1355 0.951 . S
C1379 C1380 1.366 . S
C1379 C1381 1.388 . S
C1380 C1379 1.366 . S
C1380 C1384 1.385 . S
C1381 H1356 0.951 . S
C1381 C1379 1.388 . S
C1381 C1382 1.366 . S
C1382 C1381 1.366 . S
C1382 C1383 1.414 . S
C1382 C1385 1.499 . S
C1383 H1357 0.950 . S
C1383 C1382 1.414 . S
C1383 C1384 1.374 . S
C1384 H1358 0.950 . S
C1384 C1380 1.385 . S
C1384 C1383 1.374 . S
C1385 C1382 1.499 . S
C1385 C1386 1.373 . S
C1385 C1387 1.389 . S
C1386 H1359 0.950 . S
C1386 C1372 1.377 . S
C1386 C1385 1.373 . S
C1387 C1371 1.377 . S
C1387 C1385 1.389 . S
C1387 C1388 1.524 . S
C1388 C1387 1.524 . S
C1388 C1389 1.397 . S
C1388 C1393 1.363 . S
C1389 H1360 0.950 . S
C1389 C1388 1.397 . S
C1389 C1390 1.334 . S
C1390 H1361 0.950 . S
C1390 C1389 1.334 . S
C1390 C1391 1.287 . S
C1391 C1390 1.287 . S
C1391 C1392 1.524 . S
C1391 H1394 0.999 . S
C1392 H1362 0.950 . S
C1392 C1391 1.524 . S
C1392 C1393 1.415 . S
C1393 H1363 0.950 . S
C1393 C1388 1.363 . S
C1393 C1392 1.415 . S
H1394 C1391 0.999 . S
H1395 C1376 0.913 . S
H1396 C1414 0.951 . S
H1397 C1416 0.951 . S
H1398 C1418 0.950 . S
H1399 C1419 0.950 . S
H1400 C1421 0.950 . S
H1401 C1424 0.950 . S
H1402 C1425 0.950 . S
H1403 C1427 0.950 . S
H1404 C1428 0.950 . S
H1405 C1429 0.951 . S
H1406 C1431 0.951 . S
H1407 C1433 0.950 . S
H1408 C1434 0.950 . S
H1409 C1436 0.950 . S
H1410 C1439 0.950 . S
H1411 C1440 0.950 . S
H1412 C1442 0.950 . S
H1413 C1443 0.950 . S
C1414 H1396 0.951 . S
C1414 C1415 1.366 . S
C1414 C1416 1.388 . S
C1415 C1414 1.366 . S
C1415 C1419 1.385 . S
C1416 H1397 0.951 . S
C1416 C1414 1.388 . S
C1416 C1417 1.366 . S
C1417 C1416 1.366 . S
C1417 C1418 1.414 . S
C1417 C1420 1.499 . S
C1418 H1398 0.950 . S
C1418 C1417 1.414 . S
C1418 C1419 1.374 . S
C1419 H1399 0.950 . S
C1419 C1415 1.385 . S
C1419 C1418 1.374 . S
C1420 C1417 1.499 . S
C1420 C1421 1.373 . S
C1420 C1422 1.389 . S
C1421 H1400 0.950 . S
C1421 C1420 1.373 . S
C1421 C1437 1.377 . S
C1422 C1420 1.389 . S
C1422 C1423 1.524 . S
C1422 C1436 1.377 . S
C1423 C1422 1.524 . S
C1423 C1424 1.397 . S
C1423 C1428 1.363 . S
C1424 H1401 0.950 . S
C1424 C1423 1.397 . S
C1424 C1425 1.334 . S
C1425 H1402 0.950 . S
C1425 C1424 1.334 . S
C1425 C1426 1.287 . S
C1426 C1425 1.287 . S
C1426 C1427 1.524 . S
C1426 H1445 0.913 1_554 S
C1427 H1403 0.950 . S
C1427 C1426 1.524 . S
C1427 C1428 1.415 . S
C1428 H1404 0.950 . S
C1428 C1423 1.363 . S
C1428 C1427 1.415 . S
C1429 H1405 0.951 . S
C1429 C1430 1.366 . S
C1429 C1431 1.388 . S
C1430 C1429 1.366 . S
C1430 C1434 1.385 . S
C1431 H1406 0.951 . S
C1431 C1429 1.388 . S
C1431 C1432 1.366 . S
C1432 C1431 1.366 . S
C1432 C1433 1.414 . S
C1432 C1435 1.499 . S
C1433 H1407 0.950 . S
C1433 C1432 1.414 . S
C1433 C1434 1.374 . S
C1434 H1408 0.950 . S
C1434 C1430 1.385 . S
C1434 C1433 1.374 . S
C1435 C1432 1.499 . S
C1435 C1436 1.373 . S
C1435 C1437 1.389 . S
C1436 H1409 0.950 . S
C1436 C1422 1.377 . S
C1436 C1435 1.373 . S
C1437 C1421 1.377 . S
C1437 C1435 1.389 . S
C1437 C1438 1.524 . S
C1438 C1437 1.524 . S
C1438 C1439 1.397 . S
C1438 C1443 1.363 . S
C1439 H1410 0.950 . S
C1439 C1438 1.397 . S
C1439 C1440 1.334 . S
C1440 H1411 0.950 . S
C1440 C1439 1.334 . S
C1440 C1441 1.287 . S
C1441 C1440 1.287 . S
C1441 C1442 1.524 . S
C1441 H1444 0.999 . S
C1442 H1412 0.950 . S
C1442 C1441 1.524 . S
C1442 C1443 1.415 . S
C1443 H1413 0.950 . S
C1443 C1438 1.363 . S
C1443 C1442 1.415 . S
H1444 C1441 0.999 . S
H1445 C1426 0.913 1_556 S
C265 C7 1.759 . S
C280 C152 1.684 . S
C315 C30 1.521 . S
C330 C163 1.461 . S
C380 C182 1.580 . S
C365 N58 1.604 . S
C430 C199 1.357 . S
C415 N81 1.365 . S
C480 C226 1.598 . S
C465 C99 1.642 . S
C530 C235 1.377 . S
C515 N127 1.399 . S
C565 N25 1.609 . S
C580 C188 1.581 . S
C615 C62 1.490 1_556 S
C630 C208 1.460 . S
C680 C217 1.646 . S
C665 C85 1.707 . S
C730 C244 1.386 . S
C715 N94 1.402 . S
C765 C131 1.675 . S
C780 C146 1.629 . S
C830 C172 1.359 . S
C815 N2 1.366 . S
C880 C200 1.672 . S
C865 C16 1.758 . S
C915 C39 1.534 . S
C930 C224 1.471 . S
C980 C236 1.597 . S
C965 N48 1.641 . S
C1015 N71 1.415 . S
C1030 C154 1.368 . S
C1065 C108 1.693 . S
C1080 C164 1.634 . S
C1115 N117 1.443 . S
C1130 C181 1.391 . S
C1165 N35 1.653 . S
C1180 C242 1.606 . S
C1230 C145 1.478 . S
C1215 C53 1.567 . S
C1265 C76 1.793 . S
C1280 C170 1.705 . S
C1315 N104 1.437 . S
C1330 C190 1.379 . S
C1365 C122 1.688 . S
C1380 C206 1.622 . S
C1415 N12 1.386 . S
C1430 C218 1.363 . S
