# Generated by pormake.
# Topology anh, (6,3)-cn, num edge types: 1
# Building blocks:
#     Node 0, Type 0, BuildingBlock: VOLQOD_clean_sbu_1, # of connection points: 6
#     Node 1, Type 0, BuildingBlock: VOLQOD_clean_sbu_1, # of connection points: 6
#     Node 2, Type 0, BuildingBlock: VOLQOD_clean_sbu_1, # of connection points: 6
#     Node 3, Type 1, BuildingBlock: PAMTOO_clean_linker_0, # of connection points: 3
#     Node 4, Type 1, BuildingBlock: PAMTOO_clean_linker_0, # of connection points: 3
#     Node 5, Type 1, BuildingBlock: PAMTOO_clean_linker_0, # of connection points: 3
#     Node 6, Type 1, BuildingBlock: PAMTOO_clean_linker_0, # of connection points: 3
#     Node 7, Type 1, BuildingBlock: PAMTOO_clean_linker_0, # of connection points: 3
#     Node 8, Type 1, BuildingBlock: PAMTOO_clean_linker_0, # of connection points: 3
#     Edge 9, Type (0, 1), BuildingBlock: TEMPAE_clean_linker_10, # of connection points: 2
#     Edge 10, Type (0, 1), BuildingBlock: TEMPAE_clean_linker_10, # of connection points: 2
#     Edge 11, Type (0, 1), BuildingBlock: TEMPAE_clean_linker_10, # of connection points: 2
#     Edge 12, Type (0, 1), BuildingBlock: TEMPAE_clean_linker_10, # of connection points: 2
#     Edge 13, Type (0, 1), BuildingBlock: TEMPAE_clean_linker_10, # of connection points: 2
#     Edge 14, Type (0, 1), BuildingBlock: TEMPAE_clean_linker_10, # of connection points: 2
#     Edge 15, Type (0, 1), BuildingBlock: TEMPAE_clean_linker_10, # of connection points: 2
#     Edge 16, Type (0, 1), BuildingBlock: TEMPAE_clean_linker_10, # of connection points: 2
#     Edge 17, Type (0, 1), BuildingBlock: TEMPAE_clean_linker_10, # of connection points: 2
#     Edge 18, Type (0, 1), BuildingBlock: TEMPAE_clean_linker_10, # of connection points: 2
#     Edge 19, Type (0, 1), BuildingBlock: TEMPAE_clean_linker_10, # of connection points: 2
#     Edge 20, Type (0, 1), BuildingBlock: TEMPAE_clean_linker_10, # of connection points: 2
#     Edge 21, Type (0, 1), BuildingBlock: TEMPAE_clean_linker_10, # of connection points: 2
#     Edge 22, Type (0, 1), BuildingBlock: TEMPAE_clean_linker_10, # of connection points: 2
#     Edge 23, Type (0, 1), BuildingBlock: TEMPAE_clean_linker_10, # of connection points: 2
#     Edge 24, Type (0, 1), BuildingBlock: TEMPAE_clean_linker_10, # of connection points: 2
#     Edge 25, Type (0, 1), BuildingBlock: TEMPAE_clean_linker_10, # of connection points: 2
#     Edge 26, Type (0, 1), BuildingBlock: TEMPAE_clean_linker_10, # of connection points: 2
# Relax obj value: 0.159
# Max RMSD: 0.218
# Mean RMSD: 0.138
data_MOF--net-anh--node1-VOLQOD_clean_sbu_1--node2-PAMTOO_clean_linker_0--edge1-TEMPAE_clean_linker_10
_symmetry_space_group_name_H-M    P1
_symmetry_Int_Tables_number       1
_symmetry_cell_setting            triclinic
loop_
_symmetry_equiv_pos_as_xyz
'x, y, z'
_cell_length_a     29.780406
_cell_length_b     29.764715
_cell_length_c     57.0845
_cell_angle_alpha  84.614374
_cell_angle_beta   92.666618
_cell_angle_gamma 120.23671
loop_
_atom_site_label
_atom_site_type_symbol
_atom_site_fract_x
_atom_site_fract_y
_atom_site_fract_z
_atom_type_partial_charge
O0 O 0.08996 0.56755 0.21107 0.0
Zn1 Zn 0.0951 0.58653 0.17601 0.0
O2 O 0.10759 0.53894 0.15978 0.0
Zn3 Zn 0.05251 0.50303 0.13764 0.0
Zn4 Zn 0.10999 0.4875 0.18258 0.0
Zn5 Zn 0.17233 0.57718 0.14251 0.0
O6 O 0.07946 0.5101 0.10509 0.0
O7 O 0.15986 0.57722 0.10746 0.0
O8 O 0.02964 0.58589 0.16441 0.0
O9 O 0.00538 0.53277 0.13573 0.0
O10 O 0.00652 0.42806 0.1488 0.0
O11 O 0.04266 0.41865 0.18236 0.0
O12 O 0.16916 0.47643 0.17576 0.0
O13 O 0.156 0.66 0.17139 0.0
O14 O 0.21536 0.54282 0.14955 0.0
O15 O 0.21265 0.65118 0.1511 0.0
C16 C 0.10516 0.54034 0.22388 0.0
C17 C 0.12209 0.5449 0.09546 0.0
C18 C 0.00592 0.40057 0.16738 0.0
C19 C -0.00098 0.56322 0.14763 0.0
C20 C 0.20883 0.50268 0.16249 0.0
C21 C 0.2006 0.67912 0.16196 0.0
O22 O 0.11875 0.51116 0.21515 0.0
O23 O 0.5457 0.04682 0.44776 0.0
Zn24 Zn 0.529 0.04385 0.48193 0.0
O25 O 0.58109 0.03846 0.50227 0.0
Zn26 Zn 0.61927 0.09968 0.51961 0.0
Zn27 Zn 0.63004 0.03149 0.48339 0.0
Zn28 Zn 0.54634 0.97903 0.52515 0.0
O29 O 0.61685 0.08225 0.55451 0.0
O30 O 0.55254 -8e-05 0.55825 0.0
O31 O 0.52485 0.1076 0.48757 0.0
O32 O 0.58862 0.14552 0.51335 0.0
O33 O 0.69337 0.14167 0.50969 0.0
O34 O 0.70219 0.09393 0.48473 0.0
O35 O 0.6338 0.96734 0.49467 0.0
O36 O 0.45828 0.98023 0.48747 0.0
O37 O 0.57858 0.93438 0.52474 0.0
O38 O 0.47129 0.93425 0.5171 0.0
C39 C 0.57716 0.03775 0.43756 0.0
C40 C 0.58548 0.04178 0.56722 0.0
C41 C 0.72118 0.1348 0.49584 0.0
C42 C 0.55201 0.14462 0.50062 0.0
C43 C 0.61157 0.93319 0.51179 0.0
C44 C 0.44156 0.93968 0.5018 0.0
O45 O 0.60962 0.02864 0.44926 0.0
O46 O 0.56049 0.4998 0.77762 0.0
Zn47 Zn 0.54318 0.47792 0.8121 0.0
O48 O 0.60034 0.52432 0.83167 0.0
Zn49 Zn 0.57931 0.56095 0.85078 0.0
Zn50 Zn 0.6577 0.5751 0.81147 0.0
Zn51 Zn 0.62189 0.48391 0.85281 0.0
O52 O 0.58903 0.54831 0.88531 0.0
O53 O 0.60197 0.48086 0.88649 0.0
O54 O 0.47734 0.47699 0.81931 0.0
O55 O 0.5036 0.53562 0.84572 0.0
O56 O 0.61719 0.63769 0.84181 0.0
O57 O 0.66456 0.64628 0.81099 0.0
O58 O 0.72509 0.58129 0.82317 0.0
O59 O 0.5306 0.40448 0.8172 0.0
O60 O 0.69948 0.51785 0.852 0.0
O61 O 0.59083 0.41091 0.84331 0.0
C62 C 0.60398 0.52739 0.76708 0.0
C63 C 0.59385 0.51223 0.89679 0.0
C64 C 0.64791 0.66557 0.82498 0.0
C65 C 0.46805 0.50263 0.83307 0.0
C66 C 0.73535 0.55581 0.8396 0.0
C67 C 0.55382 0.38434 0.82948 0.0
O68 O 0.6459 0.55489 0.77813 0.0
H69 H 0.6838 0.12815 0.2625 0.0
H70 H 0.52317 0.01261 0.25229 0.0
H71 H 0.62467 0.0868 0.19283 0.0
H72 H 0.51051 0.06044 0.18297 0.0
C73 C 0.49425 0.03163 0.19852 0.0
O74 O 0.53035 0.01782 0.20667 0.0
H75 H 0.48493 0.04986 0.21228 0.0
C76 C 0.65161 0.10581 0.25098 0.0
C77 C 0.66013 0.11201 0.22661 0.0
C78 C 0.60239 0.06996 0.26059 0.0
C79 C 0.5616 0.04021 0.24539 0.0
C80 C 0.56974 0.04671 0.22106 0.0
C81 C 0.61889 0.08222 0.2117 0.0
H82 H 0.63737 0.6334 0.58955 0.0
H83 H 0.58619 0.47093 0.58391 0.0
H84 H 0.60367 0.57093 0.52197 0.0
H85 H 0.5127 0.47264 0.51826 0.0
C86 C 0.5205 0.44913 0.53243 0.0
O87 O 0.57235 0.47561 0.53856 0.0
H88 H 0.49548 0.44237 0.5478 0.0
C89 C 0.62717 0.6011 0.57905 0.0
C90 C 0.62405 0.60866 0.5545 0.0
C91 C 0.61413 0.55175 0.59016 0.0
C92 C 0.59668 0.50954 0.57612 0.0
C93 C 0.59215 0.51669 0.55172 0.0
C94 C 0.60699 0.56616 0.54092 0.0
H95 H 0.063 0.60027 0.91671 0.0
H96 H 0.15989 0.53154 0.9131 0.0
H97 H 0.09696 0.56723 0.85013 0.0
H98 H 0.10207 0.47494 0.84674 0.0
C99 C 0.12953 0.4794 0.86143 0.0
O100 O 0.15466 0.53013 0.86758 0.0
H101 H 0.10684 0.45178 0.87658 0.0
C102 C 0.08266 0.58622 0.90665 0.0
C103 C 0.07514 0.58501 0.88216 0.0
C104 C 0.1133 0.56722 0.91831 0.0
C105 C 0.13746 0.5481 0.9048 0.0
C106 C 0.13164 0.5487 0.88035 0.0
C107 C 0.10138 0.56776 0.86907 0.0
H108 H 0.0246 0.43449 0.3996 0.0
H109 H 0.14949 0.59142 0.40823 0.0
H110 H 0.06222 0.49263 0.46807 0.0
H111 H 0.08506 0.60096 0.47022 0.0
C112 C 0.11656 0.6199 0.45681 0.0
O113 O 0.13423 0.5862 0.45319 0.0
H114 H 0.10051 0.62915 0.44023 0.0
C115 C 0.04915 0.46561 0.41063 0.0
C116 C 0.03998 0.45732 0.43496 0.0
C117 C 0.08887 0.51366 0.40052 0.0
C118 C 0.11858 0.55389 0.4153 0.0
C119 C 0.10821 0.54629 0.43947 0.0
C120 C 0.06987 0.49788 0.44934 0.0
H121 H 0.63919 0.97329 0.74611 0.0
H122 H 0.56661 0.06684 0.74989 0.0
H123 H 0.58858 0.98896 0.81246 0.0
H124 H 0.49144 0.00697 0.81324 0.0
C125 C 0.50705 0.03749 0.79829 0.0
O126 O 0.55921 0.0549 0.7955 0.0
H127 H 0.48478 0.02016 0.78216 0.0
C128 C 0.62142 0.98965 0.75599 0.0
C129 C 0.61567 0.97744 0.78035 0.0
C130 C 0.60256 0.02071 0.74437 0.0
C131 C 0.5815 0.04266 0.75805 0.0
C132 C 0.57727 0.03178 0.78253 0.0
C133 C 0.59324 -0.00171 0.7936 0.0
H134 H 0.68226 0.53633 0.07342 0.0
H135 H 0.5159 0.46328 0.08111 0.0
H136 H 0.61405 0.50742 0.1418 0.0
H137 H 0.50948 0.41413 0.15208 0.0
C138 C 0.48855 0.42116 0.13683 0.0
O139 O 0.51919 0.47065 0.12626 0.0
H140 H 0.47928 0.39129 0.1242 0.0
C141 C 0.64798 0.52127 0.08427 0.0
C142 C 0.65402 0.52358 0.10874 0.0
C143 C 0.59838 0.49897 0.07383 0.0
C144 C 0.55474 0.48066 0.08842 0.0
C145 C 0.56072 0.48434 0.11275 0.0
C146 C 0.61006 0.50514 0.12292 0.0
C147 C 0.23747 0.43699 0.17226 0.0
C148 C 0.24754 0.48561 0.16153 0.0
C149 C 0.2731 0.41967 0.17049 0.0
C150 C 0.31989 0.45189 0.15785 0.0
C151 C 0.33068 0.50134 0.14737 0.0
C152 C 0.29434 0.51751 0.14929 0.0
C153 C 0.26033 0.36664 0.18179 0.0
C154 C 0.38043 0.53704 0.13388 0.0
C155 C 0.44015 0.43959 0.16568 0.0
C156 C 0.43972 0.41793 0.14488 0.0
C157 C 0.39939 0.44767 0.17101 0.0
C158 C 0.35761 0.43407 0.155 0.0
C159 C 0.35557 0.40932 0.13465 0.0
C160 C 0.397 0.40197 0.12971 0.0
C161 C 0.40305 0.47431 0.19284 0.0
C162 C 0.31153 0.39403 0.11722 0.0
H163 H 0.20134 0.41202 0.18171 0.0
H164 H 0.30262 0.55523 0.14105 0.0
H165 H 0.25756 0.34131 0.16807 0.0
H166 H 0.29187 0.37027 0.19399 0.0
H167 H 0.22311 0.3471 0.1917 0.0
H168 H 0.38346 0.57482 0.12733 0.0
H169 H 0.41449 0.54508 0.14524 0.0
H170 H 0.38262 0.51777 0.1186 0.0
H171 H 0.47377 0.45278 0.17714 0.0
H172 H 0.39724 0.38609 0.11341 0.0
H173 H 0.36551 0.45384 0.20245 0.0
H174 H 0.41172 0.51479 0.18772 0.0
H175 H 0.43407 0.47597 0.20495 0.0
H176 H 0.27351 0.37272 0.12643 0.0
H177 H 0.31222 0.36917 0.10404 0.0
H178 H 0.31443 0.42969 0.10773 0.0
C179 C 0.80639 0.17255 0.47497 0.0
C180 C 0.77496 0.17762 0.49086 0.0
C181 C 0.85418 0.2156 0.46747 0.0
C182 C 0.87046 0.26473 0.47591 0.0
C183 C 0.84056 0.26929 0.49308 0.0
C184 C 0.7933 0.22559 0.50044 0.0
C185 C 0.88563 0.20919 0.44944 0.0
C186 C 0.85656 0.32111 0.50244 0.0
C187 C 0.00604 0.38046 0.46476 0.0
C188 C -0.00266 0.40705 0.44511 0.0
C189 C 0.96541 0.33303 0.47464 0.0
C190 C 0.91504 0.31251 0.4648 0.0
C191 C 0.90628 0.33913 0.44484 0.0
C192 C 0.94765 0.386 0.43518 0.0
C193 C 0.97617 0.30524 0.49572 0.0
C194 C 0.85291 0.31879 0.43402 0.0
H195 H 0.79281 0.1355 0.46767 0.0
H196 H 0.76956 0.22986 0.51289 0.0
H197 H 0.88274 0.228 0.43216 0.0
H198 H 0.9273 0.22869 0.45444 0.0
H199 H 0.87179 0.16747 0.44732 0.0
H200 H 0.83185 0.317 0.51741 0.0
H201 H 0.89765 0.34015 0.50831 0.0
H202 H 0.85349 0.3475 0.4882 0.0
H203 H 0.04469 0.39667 0.47228 0.0
H204 H 0.94091 0.40693 0.42013 0.0
H205 H 0.96281 0.26431 0.49225 0.0
H206 H 0.95409 0.30385 0.51116 0.0
H207 H 0.01811 0.3247 0.50032 0.0
H208 H 0.83784 0.27862 0.42888 0.0
H209 H 0.853 0.3437 0.41824 0.0
H210 H 0.82551 0.31688 0.44714 0.0
C211 C 0.66006 0.74794 0.83877 0.0
C212 C 0.65931 0.71982 0.82024 0.0
C213 C 0.66164 0.79584 0.83428 0.0
C214 C 0.6607 0.81496 0.81073 0.0
C215 C 0.66304 0.78818 0.79198 0.0
C216 C 0.66305 0.74117 0.79701 0.0
C217 C 0.66103 0.82425 0.85472 0.0
C218 C 0.66117 0.80684 0.76661 0.0
C219 C 0.5877 0.88786 0.79732 0.0
C220 C 0.62821 0.93837 0.79124 0.0
C221 C 0.59797 0.84756 0.80426 0.0
C222 C 0.65016 0.85859 0.80561 0.0
C223 C 0.69138 0.91034 0.80065 0.0
C224 C 0.67982 0.94965 0.79309 0.0
C225 C 0.55287 0.79274 0.809 0.0
C226 C 0.74743 0.92379 0.80259 0.0
H227 H 0.65774 0.73166 0.85678 0.0
H228 H 0.66221 0.7193 0.78267 0.0
H229 H 0.68886 0.86671 0.85168 0.0
H230 H 0.62174 0.81913 0.85645 0.0
H231 H 0.67093 0.80937 0.87157 0.0
H232 H 0.6678 0.78418 0.75418 0.0
H233 H 0.62253 0.80297 0.76284 0.0
H234 H 0.69074 0.84866 0.76325 0.0
H235 H 0.54784 0.87946 0.79554 0.0
H236 H 0.71093 0.98895 0.78821 0.0
H237 H 0.55608 0.77664 0.82691 0.0
H238 H 0.55373 0.7671 0.79632 0.0
H239 H 0.51472 0.79103 0.80748 0.0
H240 H 0.75422 0.90656 0.81953 0.0
H241 H 0.77456 0.96663 0.80132 0.0
H242 H 0.75676 0.90708 0.78827 0.0
C243 C 0.91928 0.54348 0.12429 0.0
C244 C 0.95276 0.56889 0.14274 0.0
C245 C 0.87247 0.54336 0.12067 0.0
C246 C 0.85878 0.56965 0.13577 0.0
C247 C 0.89324 0.59729 0.15383 0.0
C248 C 0.9399 0.59648 0.15716 0.0
C249 C 0.8368 0.51345 0.10115 0.0
C250 C 0.88004 0.6262 0.17006 0.0
C251 C 0.74944 0.58727 0.10959 0.0
C252 C 0.7061 0.54196 0.1193 0.0
C253 C 0.79995 0.59956 0.11637 0.0
C254 C 0.80701 0.56537 0.13306 0.0
C255 C 0.76329 0.5219 0.1443 0.0
C256 C 0.71323 0.51079 0.13731 0.0
C257 C 0.84559 0.64675 0.1043 0.0
C258 C 0.76919 0.48445 0.16215 0.0
H259 H 0.92892 0.52234 0.11293 0.0
H260 H 0.96558 0.61634 0.17143 0.0
H261 H 0.79954 0.48129 0.10872 0.0
H262 H 0.82767 0.53942 0.08923 0.0
H263 H 0.85401 0.49643 0.09053 0.0
H264 H 0.91334 0.65047 0.18144 0.0
H265 H 0.86777 0.65171 0.15976 0.0
H266 H 0.84691 0.59783 0.1815 0.0
H267 H 0.74385 0.61186 0.09592 0.0
H268 H 0.67975 0.47566 0.14479 0.0
H269 H 0.86212 0.63398 0.0911 0.0
H270 H 0.87674 0.66801 0.11714 0.0
H271 H 0.83413 0.67405 0.09511 0.0
H272 H 0.78185 0.46128 0.15309 0.0
H273 H 0.7322 0.45705 0.17155 0.0
H274 H 0.79943 0.50596 0.17529 0.0
C275 C 0.35204 0.90246 0.48476 0.0
C276 C 0.38821 0.89565 0.49898 0.0
C277 C 0.30391 0.85955 0.47939 0.0
C278 C 0.29224 0.80873 0.48812 0.0
C279 C 0.32748 0.80189 0.50342 0.0
C280 C 0.37487 0.84549 0.50882 0.0
C281 C 0.26672 0.86839 0.46344 0.0
C282 C 0.31661 0.74822 0.51291 0.0
C283 C 0.15667 0.69124 0.48469 0.0
C284 C 0.16099 0.66994 0.46463 0.0
C285 C 0.19865 0.73744 0.49226 0.0
C286 C 0.24588 0.76238 0.47948 0.0
C287 C 0.24983 0.74164 0.45884 0.0
C288 C 0.20707 0.69592 0.45153 0.0
C289 C 0.19282 0.75903 0.51408 0.0
C290 C 0.29966 0.76697 0.4448 0.0
H291 H 0.36189 0.94118 0.47729 0.0
H292 H 0.40258 0.83984 0.51982 0.0
H293 H 0.26549 0.85408 0.44603 0.0
H294 H 0.22677 0.84611 0.4708 0.0
H295 H 0.27835 0.91031 0.46076 0.0
H296 H 0.34611 0.74986 0.52599 0.0
H297 H 0.27771 0.72592 0.5213 0.0
H298 H 0.31641 0.72627 0.49819 0.0
H299 H 0.12062 0.67149 0.49458 0.0
H300 H 0.20989 0.67975 0.43578 0.0
H301 H 0.20418 0.80067 0.5103 0.0
H302 H 0.21921 0.75725 0.52804 0.0
H303 H 0.15242 0.73715 0.52099 0.0
H304 H 0.31144 0.80809 0.43911 0.0
H305 H 0.29593 0.74631 0.42896 0.0
H306 H 0.33136 0.76743 0.45598 0.0
C307 C 0.4915 0.29518 0.81691 0.0
C308 C 0.53955 0.32985 0.82667 0.0
C309 C 0.47908 0.24433 0.81293 0.0
C310 C 0.51606 0.22836 0.81836 0.0
C311 C 0.56421 0.2629 0.82858 0.0
C312 C 0.57514 0.31302 0.83283 0.0
C313 C 0.42691 0.20812 0.80248 0.0
C314 C 0.60503 0.24759 0.83428 0.0
C315 C 0.4844 0.08743 0.82428 0.0
C316 C 0.50162 0.08357 0.80254 0.0
C317 C 0.48591 0.1335 0.82922 0.0
C318 C 0.50612 0.17676 0.81218 0.0
C319 C 0.5215 0.17214 0.78984 0.0
C320 C 0.51864 0.12536 0.78524 0.0
C321 C 0.46816 0.13668 0.85304 0.0
C322 C 0.54386 0.21754 0.7713 0.0
H323 H 0.46367 0.30786 0.8123 0.0
H324 H 0.61245 0.33969 0.84026 0.0
H325 H 0.43234 0.19995 0.78459 0.0
H326 H 0.40753 0.17024 0.81327 0.0
H327 H 0.40082 0.22484 0.80123 0.0
H328 H 0.64002 0.27864 0.84264 0.0
H329 H 0.58877 0.21147 0.8463 0.0
H330 H 0.61718 0.23919 0.81792 0.0
H331 H 0.47119 0.05502 0.83764 0.0
H332 H 0.53198 0.12214 0.76846 0.0
H333 H 0.4422 0.15348 0.85111 0.0
H334 H 0.50233 0.16292 0.86348 0.0
H335 H 0.4473 0.09786 0.86307 0.0
H336 H 0.51738 0.23352 0.7681 0.0
H337 H 0.55076 0.20644 0.75434 0.0
H338 H 0.58137 0.24929 0.77757 0.0
C339 C 0.65382 0.88316 0.50116 0.0
C340 C 0.62291 0.89023 0.51657 0.0
C341 C 0.66187 0.84045 0.50504 0.0
C342 C 0.6384 0.80425 0.52474 0.0
C343 C 0.6086 0.81215 0.54072 0.0
C344 C 0.60126 0.85501 0.53645 0.0
C345 C 0.69408 0.83319 0.48774 0.0
C346 C 0.58308 0.77445 0.56202 0.0
C347 C 0.59813 0.66203 0.52713 0.0
C348 C 0.63367 0.65977 0.54348 0.0
C349 C 0.60178 0.70975 0.51934 0.0
C350 C 0.6418 0.75614 0.52822 0.0
C351 C 0.68007 0.75456 0.54334 0.0
C352 C 0.67549 0.70622 0.55085 0.0
C353 C 0.56027 0.7099 0.50314 0.0
C354 C 0.7236 0.80334 0.55297 0.0
H355 H 0.67085 0.91032 0.4858 0.0
H356 H 0.57773 0.86037 0.54858 0.0
H357 H 0.72391 0.82649 0.49714 0.0
H358 H 0.66877 0.79817 0.47817 0.0
H359 H 0.71377 0.86739 0.47467 0.0
H360 H 0.56296 0.78748 0.57322 0.0
H361 H 0.55419 0.7355 0.5563 0.0
H362 H 0.61252 0.76973 0.57289 0.0
H363 H 0.56552 0.62622 0.5215 0.0
H364 H 0.70355 0.70459 0.56317 0.0
H365 H 0.57791 0.74131 0.48871 0.0
H366 H 0.53422 0.7177 0.51317 0.0
H367 H 0.53632 0.67202 0.49531 0.0
H368 H 0.74105 0.83559 0.53887 0.0
H369 H 0.75465 0.79682 0.56116 0.0
H370 H 0.70787 0.81611 0.56652 0.0
C371 C 0.83 0.60603 0.82907 0.0
C372 C 0.78997 0.57021 0.84446 0.0
C373 C 0.88149 0.61767 0.83306 0.0
C374 C 0.89294 0.59298 0.85291 0.0
C375 C 0.85304 0.55835 0.86894 0.0
C376 C 0.80207 0.54731 0.86449 0.0
C377 C 0.92318 0.65481 0.81564 0.0
C378 C 0.86383 0.53146 0.89042 0.0
C379 C -7e-05 0.5605 0.8549 0.0
C380 C 0.03463 0.59482 0.8709 0.0
C381 C 0.9556 0.56248 0.84731 0.0
C382 C 0.94539 0.59927 0.85615 0.0
C383 C 0.98213 0.63663 0.87084 0.0
C384 C 0.02653 0.63405 0.87802 0.0
C385 C 0.91751 0.52219 0.83145 0.0
C386 C 0.97269 0.67672 0.88043 0.0
H387 H 0.821 0.62408 0.81359 0.0
H388 H 0.77153 0.5201 0.87663 0.0
H389 H 0.95755 0.68433 0.8249 0.0
H390 H 0.93627 0.63287 0.80592 0.0
H391 H 0.90917 0.67527 0.80269 0.0
H392 H 0.82909 0.50822 0.90189 0.0
H393 H 0.87669 0.50495 0.88489 0.0
H394 H 0.8957 0.56064 0.90094 0.0
H395 H 0.00543 0.52967 0.84947 0.0
H396 H 0.05376 0.66135 0.89 0.0
H397 H 0.90445 0.54065 0.81705 0.0
H398 H 0.88263 0.49306 0.84177 0.0
H399 H 0.93446 0.50128 0.82357 0.0
H400 H 0.95805 0.69456 0.86645 0.0
H401 H 0.00848 0.70815 0.88815 0.0
H402 H 0.94253 0.65741 0.89437 0.0
C403 C 0.29304 0.75114 0.16127 0.0
C404 C 0.2404 0.7341 0.16489 0.0
C405 C 0.33182 0.8017 0.16584 0.0
C406 C 0.3176 0.83642 0.17385 0.0
C407 C 0.26446 0.82024 0.17663 0.0
C408 C 0.22644 0.76904 0.17232 0.0
C409 C 0.38814 0.8173 0.16294 0.0
C410 C 0.24787 0.85659 0.1847 0.0
C411 C 0.42079 0.94154 0.2096 0.0
C412 C 0.44526 0.98319 0.19241 0.0
C413 C 0.378 0.89398 0.20395 0.0
C414 C 0.35877 0.88841 0.18062 0.0
C415 C 0.38167 0.93133 0.16346 0.0
C416 C 0.42502 0.97827 0.16954 0.0
C417 C 0.35494 0.84902 0.2227 0.0
C418 C 0.36156 0.92709 0.13853 0.0
H419 H 0.3042 0.72436 0.15561 0.0
H420 H 0.18579 0.75625 0.17496 0.0
H421 H 0.40815 0.85326 0.15091 0.0
H422 H 0.40818 0.82611 0.1802 0.0
H423 H 0.39258 0.78623 0.15586 0.0
H424 H 0.20504 0.83965 0.18393 0.0
H425 H 0.2608 0.86535 0.20309 0.0
H426 H 0.26655 0.89419 0.17368 0.0
H427 H 0.4364 0.94574 0.22732 0.0
H428 H 0.44374 0.01072 0.1563 0.0
H429 H 0.36088 0.81716 0.2178 0.0
H430 H 0.31244 0.83298 0.22407 0.0
H431 H 0.37271 0.86063 0.24025 0.0
H432 H 0.36955 0.90016 0.12973 0.0
H433 H 0.37993 0.96547 0.12806 0.0
H434 H 0.31882 0.91052 0.13846 0.0
C435 C 0.49333 0.18229 0.49369 0.0
C436 C 0.54097 0.18752 0.50152 0.0
C437 C 0.48185 0.22197 0.49615 0.0
C438 C 0.51909 0.26774 0.50648 0.0
C439 C 0.56783 0.27383 0.51367 0.0
C440 C 0.57807 0.23362 0.51116 0.0
C441 C 0.4295 0.21434 0.48836 0.0
C442 C 0.60888 0.32238 0.52455 0.0
C443 C 0.52358 0.39711 0.50117 0.0
C444 C 0.50859 0.39825 0.52389 0.0
C445 C 0.52289 0.35271 0.49441 0.0
C446 C 0.50723 0.30891 0.51092 0.0
C447 C 0.4886 0.30866 0.53333 0.0
C448 C 0.48998 0.35368 0.53964 0.0
C449 C 0.54318 0.35449 0.4704 0.0
C450 C 0.47142 0.26259 0.55136 0.0
H451 H 0.46452 0.14669 0.48624 0.0
H452 H 0.61522 0.23821 0.51698 0.0
H453 H 0.40705 0.2116 0.50394 0.0
H454 H 0.43433 0.24837 0.47663 0.0
H455 H 0.40652 0.17843 0.47898 0.0
H456 H 0.64553 0.32176 0.52826 0.0
H457 H 0.61785 0.35755 0.51265 0.0
H458 H 0.59416 0.32629 0.5413 0.0
H459 H 0.53858 0.43201 0.48916 0.0
H460 H 0.47902 0.35497 0.55731 0.0
H461 H 0.51824 0.31734 0.46221 0.0
H462 H 0.58277 0.35973 0.4722 0.0
H463 H 0.54537 0.38718 0.45841 0.0
H464 H 0.44552 0.22557 0.54325 0.0
H465 H 0.45073 0.26535 0.56638 0.0
H466 H 0.50596 0.26079 0.55831 0.0
C467 C 0.40658 0.52952 0.84546 0.0
C468 C 0.41485 0.49388 0.83469 0.0
C469 C 0.35648 0.52147 0.84785 0.0
C470 C 0.3135 0.47637 0.83946 0.0
C471 C 0.32145 0.44043 0.82834 0.0
C472 C 0.37222 0.44976 0.82597 0.0
C473 C 0.34956 0.56107 0.85958 0.0
C474 C 0.27636 0.39181 0.81936 0.0
C475 C 0.18965 0.4438 0.86982 0.0
C476 C 0.16997 0.46809 0.85377 0.0
C477 C 0.2344 0.44245 0.86455 0.0
C478 C 0.26038 0.46698 0.84294 0.0
C479 C 0.23893 0.48897 0.82614 0.0
C480 C 0.19385 0.48931 0.83181 0.0
C481 C 0.25596 0.41828 0.88282 0.0
C482 C 0.26575 0.51582 0.80299 0.0
H483 H 0.43937 0.56394 0.85206 0.0
H484 H 0.37838 0.42199 0.81768 0.0
H485 H 0.32844 0.57579 0.84768 0.0
H486 H 0.32581 0.54241 0.87576 0.0
H487 H 0.38724 0.59486 0.86444 0.0
H488 H 0.28928 0.36868 0.81041 0.0
H489 H 0.25053 0.36686 0.83424 0.0
H490 H 0.25282 0.40229 0.80685 0.0
H491 H 0.17144 0.42805 0.88694 0.0
H492 H 0.17883 0.50876 0.81961 0.0
H493 H 0.29129 0.44957 0.89082 0.0
H494 H 0.26749 0.39325 0.87461 0.0
H495 H 0.22748 0.39446 0.89708 0.0
H496 H 0.30144 0.55324 0.8062 0.0
H497 H 0.2405 0.5243 0.79064 0.0
H498 H 0.27782 0.49159 0.79446 0.0
C499 C 0.95611 0.3177 0.19318 0.0
C500 C 0.95831 0.3497 0.17307 0.0
C501 C 0.90876 0.27414 0.20088 0.0
C502 C 0.86259 0.26285 0.18834 0.0
C503 C 0.86507 0.2931 0.16727 0.0
C504 C 0.91295 0.33589 0.15979 0.0
C505 C 0.90773 0.24207 0.22318 0.0
C506 C 0.81665 0.2826 0.15349 0.0
C507 C 0.73641 0.13529 0.20129 0.0
C508 C 0.71208 0.15016 0.21683 0.0
C509 C 0.78602 0.17124 0.19219 0.0
C510 C 0.81118 0.22332 0.19851 0.0
C511 C 0.78653 0.23845 0.21414 0.0
C512 C 0.73742 0.20153 0.22325 0.0
C513 C 0.81149 0.15359 0.17587 0.0
C514 C 0.8117 0.29384 0.22099 0.0
H515 H 0.991 0.32777 0.20344 0.0
H516 H 0.91414 0.36021 0.14419 0.0
H517 H 0.88905 0.2498 0.23744 0.0
H518 H 0.88434 0.19981 0.22064 0.0
H519 H 0.94738 0.25134 0.22902 0.0
H520 H 0.82577 0.30637 0.13633 0.0
H521 H 0.79322 0.24077 0.15018 0.0
H522 H 0.79218 0.29181 0.1639 0.0
H523 H 0.71689 0.09534 0.19653 0.0
H524 H 0.71833 0.21304 0.23513 0.0
H525 H 0.84991 0.16159 0.18298 0.0
H526 H 0.81846 0.17593 0.15845 0.0
H527 H 0.78746 0.11131 0.17334 0.0
H528 H 0.84982 0.30511 0.22946 0.0
H529 H 0.78726 0.29917 0.23331 0.0
H530 H 0.8191 0.32098 0.20504 0.0
C531 C 0.15002 0.59794 0.05705 0.0
C532 C 0.12685 0.54896 0.06972 0.0
C533 C 0.1506 0.6022 0.03236 0.0
C534 C 0.12918 0.5564 0.02022 0.0
C535 C 0.10801 0.50696 0.03305 0.0
C536 C 0.10614 0.50378 0.05768 0.0
C537 C 0.17187 0.65545 0.0193 0.0
C538 C 0.08646 0.45738 0.02076 0.0
C539 C 0.07615 0.55596 0.95856 0.0
C540 C 0.1179 0.56505 0.94451 0.0
C541 C 0.07997 0.55453 0.98314 0.0
C542 C 0.12576 0.55987 0.99414 0.0
C543 C 0.16767 0.56785 0.98024 0.0
C544 C 0.16364 0.57137 0.95561 0.0
C545 C 0.03483 0.54717 0.99734 0.0
C546 C 0.21652 0.57213 0.9914 0.0
H547 H 0.16563 0.63281 0.06644 0.0
H548 H 0.08862 0.46594 0.06758 0.0
H549 H 0.20232 0.66245 0.00666 0.0
H550 H 0.1403 0.65737 0.00896 0.0
H551 H 0.18866 0.68727 0.03136 0.0
H552 H 0.0765 0.4228 0.03331 0.0
H553 H 0.0509 0.45045 0.01086 0.0
H554 H 0.11508 0.46106 0.00783 0.0
H555 H 0.03994 0.54931 0.95046 0.0
H556 H 0.19654 0.57921 0.9451 0.0
H557 H 0.04842 0.5785 0.00952 0.0
H558 H 0.01795 0.50946 0.00825 0.0
H559 H 0.00362 0.54757 0.98604 0.0
H560 H 0.23567 0.60632 0.00204 0.0
H561 H 0.24473 0.57619 0.97813 0.0
H562 H 0.20657 0.537 0.00353 0.0
C563 C 0.61589 0.03629 0.39985 0.0
C564 C 0.57699 0.03903 0.41153 0.0
C565 C 0.61759 0.03955 0.37522 0.0
C566 C 0.5793 0.04537 0.3619 0.0
C567 C 0.53928 0.04706 0.37352 0.0
C568 C 0.53869 0.04405 0.39821 0.0
C569 C 0.66104 0.03785 0.36344 0.0
C570 C 0.49755 0.0528 0.35987 0.0
C571 C 0.61659 0.10741 0.29956 0.0
C572 C 0.59403 0.0636 0.28643 0.0
C573 C 0.61134 0.10204 0.32409 0.0
C574 C 0.58243 0.05163 0.33579 0.0
C575 C 0.55837 0.0073 0.32262 0.0
C576 C 0.5646 0.0138 0.29809 0.0
C577 C 0.63758 0.15026 0.33754 0.0
C578 C 0.52705 0.95295 0.3345 0.0
H579 H 0.64569 0.03245 0.40995 0.0
H580 H 0.50831 0.04591 0.40705 0.0
H581 H 0.64478 0.00602 0.35143 0.0
H582 H 0.6848 0.075 0.35258 0.0
H583 H 0.68693 0.03168 0.37633 0.0
H584 H 0.46783 0.0511 0.37155 0.0
H585 H 0.51534 0.09062 0.34901 0.0
H586 H 0.47788 0.02153 0.34765 0.0
H587 H 0.63855 0.14608 0.29063 0.0
H588 H 0.54746 0.97972 0.2881 0.0
H589 H 0.6667 0.14843 0.34983 0.0
H590 H 0.60861 0.1522 0.34829 0.0
H591 H 0.6575 0.1867 0.32574 0.0
H592 H 0.55267 0.94358 0.3461 0.0
H593 H 0.50823 0.92288 0.32163 0.0
H594 H 0.49651 0.95063 0.34579 0.0
C595 C 0.64036 0.51649 0.73114 0.0
C596 C 0.60587 0.52788 0.74141 0.0
C597 C 0.64247 0.51675 0.70661 0.0
C598 C 0.61091 0.53095 0.69215 0.0
C599 C 0.57646 0.54312 0.70256 0.0
C600 C 0.57359 0.54035 0.72715 0.0
C601 C 0.67813 0.50154 0.69619 0.0
C602 C 0.54354 0.56023 0.68774 0.0
C603 C 0.65327 0.58517 0.62924 0.0
C604 C 0.61616 0.54438 0.61636 0.0
C605 C 0.65222 0.5812 0.65389 0.0
C606 C 0.61464 0.53439 0.66611 0.0
C607 C 0.57908 0.49189 0.65338 0.0
C608 C 0.57958 0.4977 0.62869 0.0
C609 C 0.69011 0.62786 0.66682 0.0
C610 C 0.53957 0.44068 0.66583 0.0
H611 H 0.66496 0.50645 0.74234 0.0
H612 H 0.54723 0.54948 0.73526 0.0
H613 H 0.65576 0.46962 0.6845 0.0
H614 H 0.70837 0.53511 0.68524 0.0
H615 H 0.69767 0.48843 0.70993 0.0
H616 H 0.51997 0.56982 0.6986 0.0
H617 H 0.56881 0.59514 0.67587 0.0
H618 H 0.51693 0.529 0.67647 0.0
H619 H 0.68282 0.62084 0.62007 0.0
H620 H 0.55021 0.46601 0.61916 0.0
H621 H 0.71362 0.61736 0.67932 0.0
H622 H 0.66845 0.64037 0.6773 0.0
H623 H 0.71689 0.66145 0.65468 0.0
H624 H 0.55871 0.4274 0.67967 0.0
H625 H 0.51903 0.40963 0.65353 0.0
H626 H 0.51028 0.44588 0.67465 0.0
C627 C 0.54302 0.01905 0.60649 0.0
C628 C 0.58846 0.043 0.59296 0.0
C629 C 0.54552 0.01921 0.63109 0.0
C630 C 0.59463 0.04199 0.64234 0.0
C631 C 0.64065 0.06626 0.62867 0.0
C632 C 0.63697 0.06733 0.60407 0.0
C633 C 0.49565 0.99453 0.64503 0.0
C634 C 0.69364 0.08918 0.64004 0.0
C635 C 0.6066 0.07299 0.70619 0.0
C636 C 0.60215 0.02739 0.7181 0.0
C637 C 0.6034 0.07805 0.68155 0.0
C638 C 0.59776 0.0375 0.66841 0.0
C639 C 0.59462 0.99205 0.68018 0.0
C640 C 0.59557 0.98703 0.7048 0.0
C641 C 0.60531 0.12645 0.66959 0.0
C642 C 0.58997 0.94845 0.66677 0.0
H643 H 0.50554 0.00069 0.5978 0.0
H644 H 0.67207 0.0855 0.59351 0.0
H645 H 0.49055 0.95918 0.65572 0.0
H646 H 0.49731 0.02196 0.6574 0.0
H647 H 0.46106 0.98316 0.63353 0.0
H648 H 0.72559 0.10757 0.62688 0.0
H649 H 0.69902 0.1189 0.65194 0.0
H650 H 0.69687 0.05805 0.65096 0.0
H651 H 0.61252 0.1049 0.71605 0.0
H652 H 0.59031 0.95082 0.71355 0.0
H653 H 0.57013 0.11537 0.65856 0.0
H654 H 0.63944 0.14759 0.6577 0.0
H655 H 0.60766 0.15346 0.68238 0.0
H656 H 0.55246 0.93024 0.6572 0.0
H657 H 0.59212 0.91762 0.6785 0.0
H658 H 0.62143 0.96417 0.65346 0.0
C659 C 0.56506 0.45832 0.93508 0.0
C660 C 0.59096 0.5075 0.92265 0.0
C661 C 0.56177 0.45361 0.95973 0.0
C662 C 0.5868 0.49913 0.97214 0.0
C663 C 0.61344 0.54886 0.95958 0.0
C664 C 0.61433 0.55246 0.93492 0.0
C665 C 0.53141 0.40006 0.97249 0.0
C666 C 0.6421 0.59821 0.97218 0.0
C667 C 0.55386 0.50097 0.03537 0.0
C668 C 0.59278 0.49531 0.04784 0.0
C669 C 0.54994 0.49985 0.0108 0.0
C670 C 0.58695 0.49494 -0.00173 0.0
C671 C 0.62583 0.48853 0.01067 0.0
C672 C 0.6275 0.48758 0.03528 0.0
C673 C 0.50686 0.50506 0.99821 0.0
C674 C 0.66677 0.48436 0.99792 0.0
H675 H 0.54654 0.42361 0.92549 0.0
H676 H 0.63464 0.59046 0.92523 0.0
H677 H 0.5578 0.39135 0.98381 0.0
H678 H 0.50198 0.39882 0.98417 0.0
H679 H 0.51134 0.36897 0.96017 0.0
H680 H 0.66169 0.63371 0.95979 0.0
H681 H 0.61476 0.60199 0.98326 0.0
H682 H 0.67182 0.59642 0.98407 0.0
H683 H 0.52705 0.5075 0.04468 0.0
H684 H 0.65661 0.48129 0.04462 0.0
H685 H 0.4866 0.47414 0.98585 0.0
H686 H 0.52343 0.54318 0.98764 0.0
H687 H 0.47785 0.50245 0.01063 0.0
H688 H 0.64822 0.45044 0.98711 0.0
H689 H 0.69468 0.48005 0.01019 0.0
H690 H 0.68879 0.51976 0.98575 0.0
C691 C 0.06311 0.53485 0.26143 0.0
C692 C 0.10654 0.54204 0.24953 0.0
C693 C 0.06255 0.53264 0.28607 0.0
C694 C 0.10732 0.53993 0.29889 0.0
C695 C 0.15213 0.54957 0.28678 0.0
C696 C 0.15078 0.54935 0.2622 0.0
C697 C 0.01344 0.5205 0.2984 0.0
C698 C 0.20123 0.55955 0.29978 0.0
C699 C 0.1122 0.57047 0.36236 0.0
C700 C 0.09753 0.52182 0.37457 0.0
C701 C 0.11755 0.57753 0.33778 0.0
C702 C 0.10612 0.5345 0.32501 0.0
C703 C 0.09193 0.48554 0.33714 0.0
C704 C 0.08898 0.48014 0.36175 0.0
C705 C 0.13452 0.63079 0.32546 0.0
C706 C 0.07839 0.43839 0.32411 0.0
H707 H 0.02887 0.52888 0.25149 0.0
H708 H 0.18448 0.5554 0.25282 0.0
H709 H -0.00091 0.48376 0.30992 0.0
H710 H 0.02147 0.55187 0.30982 0.0
H711 H 0.98214 0.51614 0.28582 0.0
H712 H 0.23412 0.57142 0.28762 0.0
H713 H 0.21261 0.59062 0.3119 0.0
H714 H 0.1944 0.52378 0.31065 0.0
H715 H 0.11833 0.60291 0.37189 0.0
H716 H 0.07927 0.4428 0.37091 0.0
H717 H 0.10195 0.62984 0.31484 0.0
H718 H 0.16701 0.64211 0.31318 0.0
H719 H 0.14722 0.66128 0.33805 0.0
H720 H 0.04591 0.43073 0.31172 0.0
H721 H 0.0668 0.40277 0.33618 0.0
H722 H 0.11207 0.44581 0.31351 0.0
loop_
_geom_bond_atom_site_label_1
_geom_bond_atom_site_label_2
_geom_bond_distance
_geom_bond_site_symmetry_2
_ccdc_geom_bond_type
O0 Zn1 1.953 . S
O0 C16 1.225 . S
Zn1 O0 1.953 . S
Zn1 O2 1.949 . S
Zn1 O8 1.919 1_455 S
Zn1 O13 1.924 . S
O2 Zn1 1.949 . S
O2 Zn3 1.923 1_455 S
O2 Zn4 1.950 . S
O2 Zn5 1.945 . S
Zn3 O2 1.923 1_655 S
Zn3 O6 1.931 1_655 S
Zn3 O9 1.941 . S
Zn3 O10 1.965 . S
Zn4 O2 1.950 . S
Zn4 O11 1.938 1_455 S
Zn4 O12 1.906 . S
Zn4 O22 1.953 . S
Zn5 O2 1.945 . S
Zn5 O7 1.932 . S
Zn5 O14 1.977 . S
Zn5 O15 1.910 . S
O6 Zn3 1.931 1_455 S
O6 C17 1.235 . S
O7 Zn5 1.932 . S
O7 C17 1.307 . S
O8 Zn1 1.919 1_655 S
O8 C19 1.253 . S
O9 Zn3 1.941 . S
O9 C19 1.283 . S
O10 Zn3 1.965 . S
O10 C18 1.303 . S
O11 Zn4 1.938 1_655 S
O11 C18 1.247 . S
O12 Zn4 1.906 . S
O12 C20 1.304 . S
O13 Zn1 1.924 . S
O13 C21 1.311 . S
O14 Zn5 1.977 . S
O14 C20 1.272 . S
O15 Zn5 1.910 . S
O15 C21 1.231 . S
C16 O0 1.225 . S
C16 O22 1.298 . S
C17 O6 1.235 . S
C17 O7 1.307 . S
C18 O10 1.303 . S
C18 O11 1.247 . S
C19 O8 1.253 . S
C19 O9 1.283 . S
C20 O12 1.304 . S
C20 O14 1.272 . S
C21 O13 1.311 . S
C21 O15 1.231 . S
O22 Zn4 1.953 . S
O22 C16 1.298 . S
O23 Zn24 1.953 . S
O23 C39 1.225 . S
Zn24 O23 1.953 . S
Zn24 O25 1.949 . S
Zn24 O31 1.919 . S
Zn24 O36 1.924 1_545 S
O25 Zn24 1.949 . S
O25 Zn26 1.923 . S
O25 Zn27 1.950 . S
O25 Zn28 1.945 1_545 S
Zn26 O25 1.923 . S
Zn26 O29 1.933 . S
Zn26 O32 1.941 . S
Zn26 O33 1.965 . S
Zn27 O25 1.950 . S
Zn27 O34 1.938 . S
Zn27 O35 1.906 1_545 S
Zn27 O45 1.953 . S
Zn28 O25 1.945 1_565 S
Zn28 O30 1.932 . S
Zn28 O37 1.977 . S
Zn28 O38 1.910 . S
O29 Zn26 1.933 . S
O29 C40 1.226 . S
O30 Zn28 1.932 . S
O30 C40 1.307 1_565 S
O31 Zn24 1.919 . S
O31 C42 1.253 . S
O32 Zn26 1.941 . S
O32 C42 1.283 . S
O33 Zn26 1.965 . S
O33 C41 1.303 . S
O34 Zn27 1.938 . S
O34 C41 1.247 . S
O35 Zn27 1.906 1_565 S
O35 C43 1.304 . S
O36 Zn24 1.924 1_565 S
O36 C44 1.311 . S
O37 Zn28 1.977 . S
O37 C43 1.272 . S
O38 Zn28 1.910 . S
O38 C44 1.231 . S
C39 O23 1.225 . S
C39 O45 1.298 . S
C40 O29 1.226 . S
C40 O30 1.307 1_545 S
C41 O33 1.303 . S
C41 O34 1.247 . S
C42 O31 1.253 . S
C42 O32 1.283 . S
C43 O35 1.304 . S
C43 O37 1.272 . S
C44 O36 1.311 . S
C44 O38 1.231 . S
O45 Zn27 1.953 . S
O45 C39 1.298 . S
O46 Zn47 1.953 . S
O46 C62 1.225 . S
Zn47 O46 1.953 . S
Zn47 O48 1.949 . S
Zn47 O54 1.919 . S
Zn47 O59 1.924 . S
O48 Zn47 1.949 . S
O48 Zn49 1.923 . S
O48 Zn50 1.950 . S
O48 Zn51 1.945 . S
Zn49 O48 1.923 . S
Zn49 O52 1.933 . S
Zn49 O55 1.941 . S
Zn49 O56 1.965 . S
Zn50 O48 1.950 . S
Zn50 O57 1.938 . S
Zn50 O58 1.906 . S
Zn50 O68 1.953 . S
Zn51 O48 1.945 . S
Zn51 O53 1.932 . S
Zn51 O60 1.977 . S
Zn51 O61 1.910 . S
O52 Zn49 1.933 . S
O52 C63 1.226 . S
O53 Zn51 1.932 . S
O53 C63 1.307 . S
O54 Zn47 1.919 . S
O54 C65 1.253 . S
O55 Zn49 1.941 . S
O55 C65 1.283 . S
O56 Zn49 1.965 . S
O56 C64 1.303 . S
O57 Zn50 1.938 . S
O57 C64 1.247 . S
O58 Zn50 1.906 . S
O58 C66 1.304 . S
O59 Zn47 1.924 . S
O59 C67 1.311 . S
O60 Zn51 1.977 . S
O60 C66 1.272 . S
O61 Zn51 1.910 . S
O61 C67 1.231 . S
C62 O46 1.225 . S
C62 O68 1.298 . S
C63 O52 1.226 . S
C63 O53 1.307 . S
C64 O56 1.303 . S
C64 O57 1.247 . S
C65 O54 1.253 . S
C65 O55 1.283 . S
C66 O58 1.304 . S
C66 O60 1.272 . S
C67 O59 1.311 . S
C67 O61 1.231 . S
O68 Zn50 1.953 . S
O68 C62 1.298 . S
H69 C76 0.929 . S
H70 C79 0.930 1_565 S
H71 C81 0.929 . S
H72 C73 0.969 . S
C73 H72 0.969 . S
C73 O74 1.550 . S
C73 H75 0.973 . S
O74 C73 1.550 . S
O74 C80 1.412 1_565 S
H75 C73 0.973 . S
C76 H69 0.929 . S
C76 C77 1.400 . S
C76 C78 1.364 . S
C77 C76 1.400 . S
C77 C81 1.377 . S
C78 C76 1.364 . S
C78 C79 1.374 . S
C79 H70 0.930 1_545 S
C79 C78 1.374 . S
C79 C80 1.383 . S
C80 O74 1.412 1_545 S
C80 C79 1.383 . S
C80 C81 1.394 . S
C81 H71 0.929 . S
C81 C77 1.377 . S
C81 C80 1.394 . S
H82 C89 0.929 . S
H83 C92 0.930 . S
H84 C94 0.929 . S
H85 C86 0.969 . S
C86 H85 0.969 . S
C86 O87 1.550 . S
C86 H88 0.973 . S
O87 C86 1.550 . S
O87 C93 1.412 . S
H88 C86 0.973 . S
C89 H82 0.929 . S
C89 C90 1.400 . S
C89 C91 1.364 . S
C90 C89 1.400 . S
C90 C94 1.377 . S
C91 C89 1.364 . S
C91 C92 1.374 . S
C92 H83 0.930 . S
C92 C91 1.374 . S
C92 C93 1.383 . S
C93 O87 1.412 . S
C93 C92 1.383 . S
C93 C94 1.394 . S
C94 H84 0.929 . S
C94 C90 1.377 . S
C94 C93 1.394 . S
H95 C102 0.929 . S
H96 C105 0.930 . S
H97 C107 0.929 . S
H98 C99 0.969 . S
C99 H98 0.969 . S
C99 O100 1.550 . S
C99 H101 0.973 . S
O100 C99 1.550 . S
O100 C106 1.412 . S
H101 C99 0.973 . S
C102 H95 0.929 . S
C102 C103 1.400 . S
C102 C104 1.364 . S
C103 C102 1.400 . S
C103 C107 1.377 . S
C104 C102 1.364 . S
C104 C105 1.374 . S
C105 H96 0.930 . S
C105 C104 1.374 . S
C105 C106 1.383 . S
C106 O100 1.412 . S
C106 C105 1.383 . S
C106 C107 1.394 . S
C107 H97 0.929 . S
C107 C103 1.377 . S
C107 C106 1.394 . S
H108 C115 0.929 . S
H109 C118 0.930 . S
H110 C120 0.929 . S
H111 C112 0.969 . S
C112 H111 0.969 . S
C112 O113 1.550 . S
C112 H114 0.973 . S
O113 C112 1.550 . S
O113 C119 1.412 . S
H114 C112 0.973 . S
C115 H108 0.929 . S
C115 C116 1.400 . S
C115 C117 1.364 . S
C116 C115 1.400 . S
C116 C120 1.377 . S
C117 C115 1.364 . S
C117 C118 1.374 . S
C118 H109 0.930 . S
C118 C117 1.374 . S
C118 C119 1.383 . S
C119 O113 1.412 . S
C119 C118 1.383 . S
C119 C120 1.394 . S
C120 H110 0.929 . S
C120 C116 1.377 . S
C120 C119 1.394 . S
H121 C128 0.929 . S
H122 C131 0.930 . S
H123 C133 0.929 . S
H124 C125 0.969 . S
C125 H124 0.969 . S
C125 O126 1.550 . S
C125 H127 0.973 . S
O126 C125 1.550 . S
O126 C132 1.412 . S
H127 C125 0.973 . S
C128 H121 0.929 . S
C128 C129 1.400 . S
C128 C130 1.364 1_565 S
C129 C128 1.400 . S
C129 C133 1.377 1_565 S
C130 C128 1.364 1_545 S
C130 C131 1.374 . S
C131 H122 0.930 . S
C131 C130 1.374 . S
C131 C132 1.383 . S
C132 O126 1.412 . S
C132 C131 1.383 . S
C132 C133 1.394 . S
C133 H123 0.929 . S
C133 C129 1.377 1_545 S
C133 C132 1.394 . S
H134 C141 0.929 . S
H135 C144 0.930 . S
H136 C146 0.929 . S
H137 C138 0.969 . S
C138 H137 0.969 . S
C138 O139 1.550 . S
C138 H140 0.973 . S
O139 C138 1.550 . S
O139 C145 1.412 . S
H140 C138 0.973 . S
C141 H134 0.929 . S
C141 C142 1.400 . S
C141 C143 1.364 . S
C142 C141 1.400 . S
C142 C146 1.377 . S
C143 C141 1.364 . S
C143 C144 1.374 . S
C144 H135 0.930 . S
C144 C143 1.374 . S
C144 C145 1.383 . S
C145 O139 1.412 . S
C145 C144 1.383 . S
C145 C146 1.394 . S
C146 H136 0.929 . S
C146 C142 1.377 . S
C146 C145 1.394 . S
C147 C148 1.391 . S
C147 C149 1.394 . S
C147 H163 0.931 . S
C148 C147 1.391 . S
C148 C152 1.376 . S
C149 C147 1.394 . S
C149 C150 1.369 . S
C149 C153 1.531 . S
C150 C149 1.369 . S
C150 C151 1.410 . S
C150 C158 1.503 . S
C151 C150 1.410 . S
C151 C152 1.392 . S
C151 C154 1.511 . S
C152 C148 1.376 . S
C152 C151 1.392 . S
C152 H164 0.929 . S
C153 C149 1.531 . S
C153 H165 0.960 . S
C153 H166 0.962 . S
C153 H167 0.960 . S
C154 C151 1.511 . S
C154 H168 0.961 . S
C154 H169 0.961 . S
C154 H170 0.961 . S
C155 C156 1.370 . S
C155 C157 1.363 . S
C155 H171 0.931 . S
C156 C155 1.370 . S
C156 C160 1.408 . S
C157 C155 1.363 . S
C157 C158 1.370 . S
C157 C161 1.524 . S
C158 C150 1.503 . S
C158 C157 1.370 . S
C158 C159 1.403 . S
C159 C158 1.403 . S
C159 C160 1.404 . S
C159 C162 1.539 . S
C160 C156 1.408 . S
C160 C159 1.404 . S
C160 H172 0.930 . S
C161 C157 1.524 . S
C161 H173 0.956 . S
C161 H174 0.961 . S
C161 H175 0.961 . S
C162 C159 1.539 . S
C162 H176 0.958 . S
C162 H177 0.961 . S
C162 H178 0.960 . S
H163 C147 0.931 . S
H164 C152 0.929 . S
H165 C153 0.960 . S
H166 C153 0.962 . S
H167 C153 0.960 . S
H168 C154 0.961 . S
H169 C154 0.961 . S
H170 C154 0.961 . S
H171 C155 0.931 . S
H172 C160 0.930 . S
H173 C161 0.956 . S
H174 C161 0.961 . S
H175 C161 0.961 . S
H176 C162 0.958 . S
H177 C162 0.961 . S
H178 C162 0.960 . S
C179 C180 1.391 . S
C179 C181 1.394 . S
C179 H195 0.931 . S
C180 C179 1.391 . S
C180 C184 1.376 . S
C181 C179 1.394 . S
C181 C182 1.369 . S
C181 C185 1.531 . S
C182 C181 1.369 . S
C182 C183 1.410 . S
C182 C190 1.503 . S
C183 C182 1.410 . S
C183 C184 1.392 . S
C183 C186 1.511 . S
C184 C180 1.376 . S
C184 C183 1.392 . S
C184 H196 0.929 . S
C185 C181 1.531 . S
C185 H197 0.960 . S
C185 H198 0.962 . S
C185 H199 0.960 . S
C186 C183 1.511 . S
C186 H200 0.961 . S
C186 H201 0.961 . S
C186 H202 0.961 . S
C187 C188 1.370 . S
C187 C189 1.363 . S
C187 H203 0.931 1_655 S
C188 C187 1.370 . S
C188 C192 1.408 . S
C189 C187 1.363 . S
C189 C190 1.370 . S
C189 C193 1.524 . S
C190 C182 1.503 . S
C190 C189 1.370 . S
C190 C191 1.403 . S
C191 C190 1.403 . S
C191 C192 1.404 . S
C191 C194 1.539 . S
C192 C188 1.408 . S
C192 C191 1.404 . S
C192 H204 0.930 . S
C193 C189 1.524 . S
C193 H205 0.956 . S
C193 H206 0.961 . S
C193 H207 0.961 . S
C194 C191 1.539 . S
C194 H208 0.958 . S
C194 H209 0.961 . S
C194 H210 0.960 . S
H195 C179 0.931 . S
H196 C184 0.929 . S
H197 C185 0.960 . S
H198 C185 0.962 . S
H199 C185 0.960 . S
H200 C186 0.961 . S
H201 C186 0.961 . S
H202 C186 0.961 . S
H203 C187 0.931 1_455 S
H204 C192 0.930 . S
H205 C193 0.956 . S
H206 C193 0.961 . S
H207 C193 0.961 . S
H208 C194 0.958 . S
H209 C194 0.961 . S
H210 C194 0.960 . S
C211 C212 1.391 . S
C211 C213 1.394 . S
C211 H227 0.931 . S
C212 C211 1.391 . S
C212 C216 1.376 . S
C213 C211 1.394 . S
C213 C214 1.369 . S
C213 C217 1.531 . S
C214 C213 1.369 . S
C214 C215 1.410 . S
C214 C222 1.503 . S
C215 C214 1.410 . S
C215 C216 1.392 . S
C215 C218 1.511 . S
C216 C212 1.376 . S
C216 C215 1.392 . S
C216 H228 0.929 . S
C217 C213 1.531 . S
C217 H229 0.960 . S
C217 H230 0.962 . S
C217 H231 0.960 . S
C218 C215 1.511 . S
C218 H232 0.961 . S
C218 H233 0.961 . S
C218 H234 0.961 . S
C219 C220 1.370 . S
C219 C221 1.363 . S
C219 H235 0.931 . S
C220 C219 1.370 . S
C220 C224 1.408 . S
C221 C219 1.363 . S
C221 C222 1.370 . S
C221 C225 1.524 . S
C222 C214 1.503 . S
C222 C221 1.370 . S
C222 C223 1.403 . S
C223 C222 1.403 . S
C223 C224 1.404 . S
C223 C226 1.539 . S
C224 C220 1.408 . S
C224 C223 1.404 . S
C224 H236 0.930 . S
C225 C221 1.524 . S
C225 H237 0.956 . S
C225 H238 0.961 . S
C225 H239 0.961 . S
C226 C223 1.539 . S
C226 H240 0.958 . S
C226 H241 0.961 . S
C226 H242 0.960 . S
H227 C211 0.931 . S
H228 C216 0.929 . S
H229 C217 0.960 . S
H230 C217 0.962 . S
H231 C217 0.960 . S
H232 C218 0.961 . S
H233 C218 0.961 . S
H234 C218 0.961 . S
H235 C219 0.931 . S
H236 C224 0.930 . S
H237 C225 0.956 . S
H238 C225 0.961 . S
H239 C225 0.961 . S
H240 C226 0.958 . S
H241 C226 0.961 . S
H242 C226 0.960 . S
C243 C244 1.391 . S
C243 C245 1.394 . S
C243 H259 0.931 . S
C244 C243 1.391 . S
C244 C248 1.376 . S
C245 C243 1.394 . S
C245 C246 1.369 . S
C245 C249 1.531 . S
C246 C245 1.369 . S
C246 C247 1.410 . S
C246 C254 1.503 . S
C247 C246 1.410 . S
C247 C248 1.392 . S
C247 C250 1.511 . S
C248 C244 1.376 . S
C248 C247 1.392 . S
C248 H260 0.929 . S
C249 C245 1.531 . S
C249 H261 0.960 . S
C249 H262 0.962 . S
C249 H263 0.960 . S
C250 C247 1.511 . S
C250 H264 0.961 . S
C250 H265 0.961 . S
C250 H266 0.961 . S
C251 C252 1.370 . S
C251 C253 1.363 . S
C251 H267 0.931 . S
C252 C251 1.370 . S
C252 C256 1.408 . S
C253 C251 1.363 . S
C253 C254 1.370 . S
C253 C257 1.524 . S
C254 C246 1.503 . S
C254 C253 1.370 . S
C254 C255 1.403 . S
C255 C254 1.403 . S
C255 C256 1.404 . S
C255 C258 1.539 . S
C256 C252 1.408 . S
C256 C255 1.404 . S
C256 H268 0.930 . S
C257 C253 1.524 . S
C257 H269 0.956 . S
C257 H270 0.961 . S
C257 H271 0.961 . S
C258 C255 1.539 . S
C258 H272 0.958 . S
C258 H273 0.961 . S
C258 H274 0.960 . S
H259 C243 0.931 . S
H260 C248 0.929 . S
H261 C249 0.960 . S
H262 C249 0.962 . S
H263 C249 0.960 . S
H264 C250 0.961 . S
H265 C250 0.961 . S
H266 C250 0.961 . S
H267 C251 0.931 . S
H268 C256 0.930 . S
H269 C257 0.956 . S
H270 C257 0.961 . S
H271 C257 0.961 . S
H272 C258 0.958 . S
H273 C258 0.961 . S
H274 C258 0.960 . S
C275 C276 1.391 . S
C275 C277 1.394 . S
C275 H291 0.931 . S
C276 C275 1.391 . S
C276 C280 1.376 . S
C277 C275 1.394 . S
C277 C278 1.369 . S
C277 C281 1.531 . S
C278 C277 1.369 . S
C278 C279 1.410 . S
C278 C286 1.503 . S
C279 C278 1.410 . S
C279 C280 1.392 . S
C279 C282 1.511 . S
C280 C276 1.376 . S
C280 C279 1.392 . S
C280 H292 0.929 . S
C281 C277 1.531 . S
C281 H293 0.960 . S
C281 H294 0.962 . S
C281 H295 0.960 . S
C282 C279 1.511 . S
C282 H296 0.961 . S
C282 H297 0.961 . S
C282 H298 0.961 . S
C283 C284 1.370 . S
C283 C285 1.363 . S
C283 H299 0.931 . S
C284 C283 1.370 . S
C284 C288 1.408 . S
C285 C283 1.363 . S
C285 C286 1.370 . S
C285 C289 1.524 . S
C286 C278 1.503 . S
C286 C285 1.370 . S
C286 C287 1.403 . S
C287 C286 1.403 . S
C287 C288 1.404 . S
C287 C290 1.539 . S
C288 C284 1.408 . S
C288 C287 1.404 . S
C288 H300 0.930 . S
C289 C285 1.524 . S
C289 H301 0.956 . S
C289 H302 0.961 . S
C289 H303 0.961 . S
C290 C287 1.539 . S
C290 H304 0.958 . S
C290 H305 0.961 . S
C290 H306 0.960 . S
H291 C275 0.931 . S
H292 C280 0.929 . S
H293 C281 0.960 . S
H294 C281 0.962 . S
H295 C281 0.960 . S
H296 C282 0.961 . S
H297 C282 0.961 . S
H298 C282 0.961 . S
H299 C283 0.931 . S
H300 C288 0.930 . S
H301 C289 0.956 . S
H302 C289 0.961 . S
H303 C289 0.961 . S
H304 C290 0.958 . S
H305 C290 0.961 . S
H306 C290 0.960 . S
C307 C308 1.391 . S
C307 C309 1.394 . S
C307 H323 0.931 . S
C308 C307 1.391 . S
C308 C312 1.376 . S
C309 C307 1.394 . S
C309 C310 1.369 . S
C309 C313 1.531 . S
C310 C309 1.369 . S
C310 C311 1.410 . S
C310 C318 1.503 . S
C311 C310 1.410 . S
C311 C312 1.392 . S
C311 C314 1.511 . S
C312 C308 1.376 . S
C312 C311 1.392 . S
C312 H324 0.929 . S
C313 C309 1.531 . S
C313 H325 0.960 . S
C313 H326 0.962 . S
C313 H327 0.960 . S
C314 C311 1.511 . S
C314 H328 0.961 . S
C314 H329 0.961 . S
C314 H330 0.961 . S
C315 C316 1.370 . S
C315 C317 1.363 . S
C315 H331 0.931 . S
C316 C315 1.370 . S
C316 C320 1.408 . S
C317 C315 1.363 . S
C317 C318 1.370 . S
C317 C321 1.524 . S
C318 C310 1.503 . S
C318 C317 1.370 . S
C318 C319 1.403 . S
C319 C318 1.403 . S
C319 C320 1.404 . S
C319 C322 1.539 . S
C320 C316 1.408 . S
C320 C319 1.404 . S
C320 H332 0.930 . S
C321 C317 1.524 . S
C321 H333 0.956 . S
C321 H334 0.961 . S
C321 H335 0.961 . S
C322 C319 1.539 . S
C322 H336 0.958 . S
C322 H337 0.961 . S
C322 H338 0.960 . S
H323 C307 0.931 . S
H324 C312 0.929 . S
H325 C313 0.960 . S
H326 C313 0.962 . S
H327 C313 0.960 . S
H328 C314 0.961 . S
H329 C314 0.961 . S
H330 C314 0.961 . S
H331 C315 0.931 . S
H332 C320 0.930 . S
H333 C321 0.956 . S
H334 C321 0.961 . S
H335 C321 0.961 . S
H336 C322 0.958 . S
H337 C322 0.961 . S
H338 C322 0.960 . S
C339 C340 1.391 . S
C339 C341 1.394 . S
C339 H355 0.931 . S
C340 C339 1.391 . S
C340 C344 1.376 . S
C341 C339 1.394 . S
C341 C342 1.369 . S
C341 C345 1.531 . S
C342 C341 1.369 . S
C342 C343 1.410 . S
C342 C350 1.503 . S
C343 C342 1.410 . S
C343 C344 1.392 . S
C343 C346 1.511 . S
C344 C340 1.376 . S
C344 C343 1.392 . S
C344 H356 0.929 . S
C345 C341 1.531 . S
C345 H357 0.960 . S
C345 H358 0.962 . S
C345 H359 0.960 . S
C346 C343 1.511 . S
C346 H360 0.961 . S
C346 H361 0.961 . S
C346 H362 0.961 . S
C347 C348 1.370 . S
C347 C349 1.363 . S
C347 H363 0.931 . S
C348 C347 1.370 . S
C348 C352 1.408 . S
C349 C347 1.363 . S
C349 C350 1.370 . S
C349 C353 1.524 . S
C350 C342 1.503 . S
C350 C349 1.370 . S
C350 C351 1.403 . S
C351 C350 1.403 . S
C351 C352 1.404 . S
C351 C354 1.539 . S
C352 C348 1.408 . S
C352 C351 1.404 . S
C352 H364 0.930 . S
C353 C349 1.524 . S
C353 H365 0.956 . S
C353 H366 0.961 . S
C353 H367 0.961 . S
C354 C351 1.539 . S
C354 H368 0.958 . S
C354 H369 0.961 . S
C354 H370 0.960 . S
H355 C339 0.931 . S
H356 C344 0.929 . S
H357 C345 0.960 . S
H358 C345 0.962 . S
H359 C345 0.960 . S
H360 C346 0.961 . S
H361 C346 0.961 . S
H362 C346 0.961 . S
H363 C347 0.931 . S
H364 C352 0.930 . S
H365 C353 0.956 . S
H366 C353 0.961 . S
H367 C353 0.961 . S
H368 C354 0.958 . S
H369 C354 0.961 . S
H370 C354 0.960 . S
C371 C372 1.391 . S
C371 C373 1.394 . S
C371 H387 0.931 . S
C372 C371 1.391 . S
C372 C376 1.376 . S
C373 C371 1.394 . S
C373 C374 1.369 . S
C373 C377 1.531 . S
C374 C373 1.369 . S
C374 C375 1.410 . S
C374 C382 1.503 . S
C375 C374 1.410 . S
C375 C376 1.392 . S
C375 C378 1.511 . S
C376 C372 1.376 . S
C376 C375 1.392 . S
C376 H388 0.929 . S
C377 C373 1.531 . S
C377 H389 0.960 . S
C377 H390 0.962 . S
C377 H391 0.960 . S
C378 C375 1.511 . S
C378 H392 0.961 . S
C378 H393 0.961 . S
C378 H394 0.961 . S
C379 C380 1.370 1_655 S
C379 C381 1.363 . S
C379 H395 0.931 . S
C380 C379 1.370 1_455 S
C380 C384 1.408 . S
C381 C379 1.363 . S
C381 C382 1.370 . S
C381 C385 1.524 . S
C382 C374 1.503 . S
C382 C381 1.370 . S
C382 C383 1.403 . S
C383 C382 1.403 . S
C383 C384 1.404 1_655 S
C383 C386 1.539 1_655 S
C384 C380 1.408 . S
C384 C383 1.404 1_455 S
C384 H396 0.930 . S
C385 C381 1.524 . S
C385 H397 0.956 . S
C385 H398 0.961 . S
C385 H399 0.961 . S
C386 C383 1.539 1_455 S
C386 H400 0.958 . S
C386 H401 0.961 . S
C386 H402 0.960 1_455 S
H387 C371 0.931 . S
H388 C376 0.929 . S
H389 C377 0.960 . S
H390 C377 0.962 . S
H391 C377 0.960 . S
H392 C378 0.961 . S
H393 C378 0.961 . S
H394 C378 0.961 . S
H395 C379 0.931 . S
H396 C384 0.930 . S
H397 C385 0.956 . S
H398 C385 0.961 . S
H399 C385 0.961 . S
H400 C386 0.958 . S
H401 C386 0.961 . S
H402 C386 0.960 1_655 S
C403 C404 1.391 . S
C403 C405 1.394 . S
C403 H419 0.931 . S
C404 C403 1.391 . S
C404 C408 1.376 . S
C405 C403 1.394 . S
C405 C406 1.369 . S
C405 C409 1.531 . S
C406 C405 1.369 . S
C406 C407 1.410 . S
C406 C414 1.503 . S
C407 C406 1.410 . S
C407 C408 1.392 . S
C407 C410 1.511 . S
C408 C404 1.376 . S
C408 C407 1.392 . S
C408 H420 0.929 . S
C409 C405 1.531 . S
C409 H421 0.960 . S
C409 H422 0.962 . S
C409 H423 0.960 . S
C410 C407 1.511 . S
C410 H424 0.961 . S
C410 H425 0.961 . S
C410 H426 0.961 . S
C411 C412 1.370 . S
C411 C413 1.363 . S
C411 H427 0.931 . S
C412 C411 1.370 . S
C412 C416 1.408 . S
C413 C411 1.363 . S
C413 C414 1.370 . S
C413 C417 1.524 . S
C414 C406 1.503 . S
C414 C413 1.370 . S
C414 C415 1.403 . S
C415 C414 1.403 . S
C415 C416 1.404 . S
C415 C418 1.539 . S
C416 C412 1.408 . S
C416 C415 1.404 . S
C416 H428 0.930 . S
C417 C413 1.524 . S
C417 H429 0.956 . S
C417 H430 0.961 . S
C417 H431 0.961 . S
C418 C415 1.539 . S
C418 H432 0.958 . S
C418 H433 0.961 . S
C418 H434 0.960 . S
H419 C403 0.931 . S
H420 C408 0.929 . S
H421 C409 0.960 . S
H422 C409 0.962 . S
H423 C409 0.960 . S
H424 C410 0.961 . S
H425 C410 0.961 . S
H426 C410 0.961 . S
H427 C411 0.931 . S
H428 C416 0.930 . S
H429 C417 0.956 . S
H430 C417 0.961 . S
H431 C417 0.961 . S
H432 C418 0.958 . S
H433 C418 0.961 . S
H434 C418 0.960 . S
C435 C436 1.391 . S
C435 C437 1.394 . S
C435 H451 0.931 . S
C436 C435 1.391 . S
C436 C440 1.376 . S
C437 C435 1.394 . S
C437 C438 1.369 . S
C437 C441 1.531 . S
C438 C437 1.369 . S
C438 C439 1.410 . S
C438 C446 1.503 . S
C439 C438 1.410 . S
C439 C440 1.392 . S
C439 C442 1.511 . S
C440 C436 1.376 . S
C440 C439 1.392 . S
C440 H452 0.929 . S
C441 C437 1.531 . S
C441 H453 0.960 . S
C441 H454 0.962 . S
C441 H455 0.960 . S
C442 C439 1.511 . S
C442 H456 0.961 . S
C442 H457 0.961 . S
C442 H458 0.961 . S
C443 C444 1.370 . S
C443 C445 1.363 . S
C443 H459 0.931 . S
C444 C443 1.370 . S
C444 C448 1.408 . S
C445 C443 1.363 . S
C445 C446 1.370 . S
C445 C449 1.524 . S
C446 C438 1.503 . S
C446 C445 1.370 . S
C446 C447 1.403 . S
C447 C446 1.403 . S
C447 C448 1.404 . S
C447 C450 1.539 . S
C448 C444 1.408 . S
C448 C447 1.404 . S
C448 H460 0.930 . S
C449 C445 1.524 . S
C449 H461 0.956 . S
C449 H462 0.961 . S
C449 H463 0.961 . S
C450 C447 1.539 . S
C450 H464 0.958 . S
C450 H465 0.961 . S
C450 H466 0.960 . S
H451 C435 0.931 . S
H452 C440 0.929 . S
H453 C441 0.960 . S
H454 C441 0.962 . S
H455 C441 0.960 . S
H456 C442 0.961 . S
H457 C442 0.961 . S
H458 C442 0.961 . S
H459 C443 0.931 . S
H460 C448 0.930 . S
H461 C449 0.956 . S
H462 C449 0.961 . S
H463 C449 0.961 . S
H464 C450 0.958 . S
H465 C450 0.961 . S
H466 C450 0.960 . S
C467 C468 1.391 . S
C467 C469 1.394 . S
C467 H483 0.931 . S
C468 C467 1.391 . S
C468 C472 1.376 . S
C469 C467 1.394 . S
C469 C470 1.369 . S
C469 C473 1.531 . S
C470 C469 1.369 . S
C470 C471 1.410 . S
C470 C478 1.503 . S
C471 C470 1.410 . S
C471 C472 1.392 . S
C471 C474 1.511 . S
C472 C468 1.376 . S
C472 C471 1.392 . S
C472 H484 0.929 . S
C473 C469 1.531 . S
C473 H485 0.960 . S
C473 H486 0.962 . S
C473 H487 0.960 . S
C474 C471 1.511 . S
C474 H488 0.961 . S
C474 H489 0.961 . S
C474 H490 0.961 . S
C475 C476 1.370 . S
C475 C477 1.363 . S
C475 H491 0.931 . S
C476 C475 1.370 . S
C476 C480 1.408 . S
C477 C475 1.363 . S
C477 C478 1.370 . S
C477 C481 1.524 . S
C478 C470 1.503 . S
C478 C477 1.370 . S
C478 C479 1.403 . S
C479 C478 1.403 . S
C479 C480 1.404 . S
C479 C482 1.539 . S
C480 C476 1.408 . S
C480 C479 1.404 . S
C480 H492 0.930 . S
C481 C477 1.524 . S
C481 H493 0.956 . S
C481 H494 0.961 . S
C481 H495 0.961 . S
C482 C479 1.539 . S
C482 H496 0.958 . S
C482 H497 0.961 . S
C482 H498 0.960 . S
H483 C467 0.931 . S
H484 C472 0.929 . S
H485 C473 0.960 . S
H486 C473 0.962 . S
H487 C473 0.960 . S
H488 C474 0.961 . S
H489 C474 0.961 . S
H490 C474 0.961 . S
H491 C475 0.931 . S
H492 C480 0.930 . S
H493 C481 0.956 . S
H494 C481 0.961 . S
H495 C481 0.961 . S
H496 C482 0.958 . S
H497 C482 0.961 . S
H498 C482 0.960 . S
C499 C500 1.391 . S
C499 C501 1.394 . S
C499 H515 0.931 . S
C500 C499 1.391 . S
C500 C504 1.376 . S
C501 C499 1.394 . S
C501 C502 1.369 . S
C501 C505 1.531 . S
C502 C501 1.369 . S
C502 C503 1.410 . S
C502 C510 1.503 . S
C503 C502 1.410 . S
C503 C504 1.392 . S
C503 C506 1.511 . S
C504 C500 1.376 . S
C504 C503 1.392 . S
C504 H516 0.929 . S
C505 C501 1.531 . S
C505 H517 0.960 . S
C505 H518 0.962 . S
C505 H519 0.960 . S
C506 C503 1.511 . S
C506 H520 0.961 . S
C506 H521 0.961 . S
C506 H522 0.961 . S
C507 C508 1.370 . S
C507 C509 1.363 . S
C507 H523 0.931 . S
C508 C507 1.370 . S
C508 C512 1.408 . S
C509 C507 1.363 . S
C509 C510 1.370 . S
C509 C513 1.524 . S
C510 C502 1.503 . S
C510 C509 1.370 . S
C510 C511 1.403 . S
C511 C510 1.403 . S
C511 C512 1.404 . S
C511 C514 1.539 . S
C512 C508 1.408 . S
C512 C511 1.404 . S
C512 H524 0.930 . S
C513 C509 1.524 . S
C513 H525 0.956 . S
C513 H526 0.961 . S
C513 H527 0.961 . S
C514 C511 1.539 . S
C514 H528 0.958 . S
C514 H529 0.961 . S
C514 H530 0.960 . S
H515 C499 0.931 . S
H516 C504 0.929 . S
H517 C505 0.960 . S
H518 C505 0.962 . S
H519 C505 0.960 . S
H520 C506 0.961 . S
H521 C506 0.961 . S
H522 C506 0.961 . S
H523 C507 0.931 . S
H524 C512 0.930 . S
H525 C513 0.956 . S
H526 C513 0.961 . S
H527 C513 0.961 . S
H528 C514 0.958 . S
H529 C514 0.961 . S
H530 C514 0.960 . S
C531 C532 1.391 . S
C531 C533 1.394 . S
C531 H547 0.931 . S
C532 C531 1.391 . S
C532 C536 1.376 . S
C533 C531 1.394 . S
C533 C534 1.369 . S
C533 C537 1.531 . S
C534 C533 1.369 . S
C534 C535 1.410 . S
C534 C542 1.503 . S
C535 C534 1.410 . S
C535 C536 1.392 . S
C535 C538 1.511 . S
C536 C532 1.376 . S
C536 C535 1.392 . S
C536 H548 0.929 . S
C537 C533 1.531 . S
C537 H549 0.960 . S
C537 H550 0.962 . S
C537 H551 0.960 . S
C538 C535 1.511 . S
C538 H552 0.961 . S
C538 H553 0.961 . S
C538 H554 0.961 . S
C539 C540 1.370 . S
C539 C541 1.363 . S
C539 H555 0.931 . S
C540 C539 1.370 . S
C540 C544 1.408 . S
C541 C539 1.363 . S
C541 C542 1.370 1_556 S
C541 C545 1.524 1_456 S
C542 C534 1.503 . S
C542 C541 1.370 1_554 S
C542 C543 1.403 1_554 S
C543 C542 1.403 1_556 S
C543 C544 1.404 . S
C543 C546 1.539 1_556 S
C544 C540 1.408 . S
C544 C543 1.404 . S
C544 H556 0.930 . S
C545 C541 1.524 1_654 S
C545 H557 0.956 . S
C545 H558 0.970 . S
C545 H559 0.961 1_554 S
C546 C543 1.539 1_554 S
C546 H560 0.958 . S
C546 H561 0.961 1_554 S
C546 H562 0.960 . S
H547 C531 0.931 . S
H548 C536 0.929 . S
H549 C537 0.960 . S
H550 C537 0.962 . S
H551 C537 0.960 . S
H552 C538 0.961 . S
H553 C538 0.961 . S
H554 C538 0.961 . S
H555 C539 0.931 . S
H556 C544 0.930 . S
H557 C545 0.956 . S
H558 C545 0.970 . S
H559 C545 0.961 1_556 S
H560 C546 0.958 . S
H561 C546 0.961 1_556 S
H562 C546 0.960 . S
C563 C564 1.391 . S
C563 C565 1.394 . S
C563 H579 0.931 . S
C564 C563 1.391 . S
C564 C568 1.376 . S
C565 C563 1.394 . S
C565 C566 1.369 . S
C565 C569 1.531 . S
C566 C565 1.369 . S
C566 C567 1.410 . S
C566 C574 1.503 . S
C567 C566 1.410 . S
C567 C568 1.392 . S
C567 C570 1.511 . S
C568 C564 1.376 . S
C568 C567 1.392 . S
C568 H580 0.929 . S
C569 C565 1.531 . S
C569 H581 0.960 1_545 S
C569 H582 0.962 . S
C569 H583 0.960 1_545 S
C570 C567 1.511 . S
C570 H584 0.961 . S
C570 H585 0.961 . S
C570 H586 0.961 . S
C571 C572 1.370 . S
C571 C573 1.363 . S
C571 H587 0.931 . S
C572 C571 1.370 . S
C572 C576 1.408 1_545 S
C573 C571 1.363 . S
C573 C574 1.370 . S
C573 C577 1.524 . S
C574 C566 1.503 . S
C574 C573 1.370 . S
C574 C575 1.403 1_545 S
C575 C574 1.403 1_565 S
C575 C576 1.404 . S
C575 C578 1.539 . S
C576 C572 1.408 1_565 S
C576 C575 1.404 . S
C576 H588 0.930 . S
C577 C573 1.524 . S
C577 H589 0.956 . S
C577 H590 0.961 . S
C577 H591 0.961 . S
C578 C575 1.539 . S
C578 H592 0.958 . S
C578 H593 0.961 . S
C578 H594 0.960 . S
H579 C563 0.931 . S
H580 C568 0.929 . S
H581 C569 0.960 1_565 S
H582 C569 0.962 . S
H583 C569 0.960 1_565 S
H584 C570 0.961 . S
H585 C570 0.961 . S
H586 C570 0.961 . S
H587 C571 0.931 . S
H588 C576 0.930 . S
H589 C577 0.956 . S
H590 C577 0.961 . S
H591 C577 0.961 . S
H592 C578 0.958 . S
H593 C578 0.961 . S
H594 C578 0.960 . S
C595 C596 1.391 . S
C595 C597 1.394 . S
C595 H611 0.931 . S
C596 C595 1.391 . S
C596 C600 1.376 . S
C597 C595 1.394 . S
C597 C598 1.369 . S
C597 C601 1.531 . S
C598 C597 1.369 . S
C598 C599 1.410 . S
C598 C606 1.503 . S
C599 C598 1.410 . S
C599 C600 1.392 . S
C599 C602 1.511 . S
C600 C596 1.376 . S
C600 C599 1.392 . S
C600 H612 0.929 . S
C601 C597 1.531 . S
C601 H613 0.960 . S
C601 H614 0.962 . S
C601 H615 0.960 . S
C602 C599 1.511 . S
C602 H616 0.961 . S
C602 H617 0.961 . S
C602 H618 0.961 . S
C603 C604 1.370 . S
C603 C605 1.363 . S
C603 H619 0.931 . S
C604 C603 1.370 . S
C604 C608 1.408 . S
C605 C603 1.363 . S
C605 C606 1.370 . S
C605 C609 1.524 . S
C606 C598 1.503 . S
C606 C605 1.370 . S
C606 C607 1.403 . S
C607 C606 1.403 . S
C607 C608 1.404 . S
C607 C610 1.539 . S
C608 C604 1.408 . S
C608 C607 1.404 . S
C608 H620 0.930 . S
C609 C605 1.524 . S
C609 H621 0.956 . S
C609 H622 0.961 . S
C609 H623 0.961 . S
C610 C607 1.539 . S
C610 H624 0.958 . S
C610 H625 0.961 . S
C610 H626 0.960 . S
H611 C595 0.931 . S
H612 C600 0.929 . S
H613 C601 0.960 . S
H614 C601 0.962 . S
H615 C601 0.960 . S
H616 C602 0.961 . S
H617 C602 0.961 . S
H618 C602 0.961 . S
H619 C603 0.931 . S
H620 C608 0.930 . S
H621 C609 0.956 . S
H622 C609 0.961 . S
H623 C609 0.961 . S
H624 C610 0.958 . S
H625 C610 0.961 . S
H626 C610 0.960 . S
C627 C628 1.391 . S
C627 C629 1.394 . S
C627 H643 0.931 . S
C628 C627 1.391 . S
C628 C632 1.376 . S
C629 C627 1.394 . S
C629 C630 1.369 . S
C629 C633 1.531 . S
C630 C629 1.369 . S
C630 C631 1.390 1_545 S
C630 C638 1.503 . S
C631 C630 1.390 1_565 S
C631 C632 1.395 1_565 S
C631 C634 1.527 . S
C632 C628 1.376 . S
C632 C631 1.395 1_545 S
C632 H644 0.929 1_545 S
C633 C629 1.531 . S
C633 H645 0.960 . S
C633 H646 0.962 . S
C633 H647 0.960 . S
C634 C631 1.527 . S
C634 H648 0.961 . S
C634 H649 0.961 . S
C634 H650 0.961 . S
C635 C636 1.370 . S
C635 C637 1.363 . S
C635 H651 0.931 . S
C636 C635 1.370 . S
C636 C640 1.408 1_545 S
C637 C635 1.363 . S
C637 C638 1.370 . S
C637 C641 1.524 . S
C638 C630 1.503 . S
C638 C637 1.370 . S
C638 C639 1.403 1_545 S
C639 C638 1.403 1_565 S
C639 C640 1.404 . S
C639 C642 1.539 . S
C640 C636 1.408 1_565 S
C640 C639 1.404 . S
C640 H652 0.930 . S
C641 C637 1.524 . S
C641 H653 0.956 . S
C641 H654 0.961 . S
C641 H655 0.961 . S
C642 C639 1.539 . S
C642 H656 0.958 . S
C642 H657 0.961 . S
C642 H658 0.960 . S
H643 C627 0.931 . S
H644 C632 0.929 1_565 S
H645 C633 0.960 . S
H646 C633 0.962 . S
H647 C633 0.960 . S
H648 C634 0.961 . S
H649 C634 0.961 . S
H650 C634 0.961 . S
H651 C635 0.931 . S
H652 C640 0.930 . S
H653 C641 0.956 . S
H654 C641 0.961 . S
H655 C641 0.961 . S
H656 C642 0.958 . S
H657 C642 0.961 . S
H658 C642 0.960 . S
C659 C660 1.391 . S
C659 C661 1.394 . S
C659 H675 0.931 . S
C660 C659 1.391 . S
C660 C664 1.376 . S
C661 C659 1.394 . S
C661 C662 1.369 . S
C661 C665 1.531 . S
C662 C661 1.369 . S
C662 C663 1.410 . S
C662 C670 1.503 . S
C663 C662 1.410 . S
C663 C664 1.392 . S
C663 C666 1.511 . S
C664 C660 1.376 . S
C664 C663 1.392 . S
C664 H676 0.929 . S
C665 C661 1.531 . S
C665 H677 0.960 . S
C665 H678 0.962 . S
C665 H679 0.960 . S
C666 C663 1.511 . S
C666 H680 0.961 . S
C666 H681 0.961 . S
C666 H682 0.961 . S
C667 C668 1.370 . S
C667 C669 1.363 . S
C667 H683 0.931 . S
C668 C667 1.370 . S
C668 C672 1.408 . S
C669 C667 1.363 . S
C669 C670 1.370 1_554 S
C669 C673 1.524 1_554 S
C670 C662 1.503 . S
C670 C669 1.370 1_556 S
C670 C671 1.403 1_556 S
C671 C670 1.403 1_554 S
C671 C672 1.404 . S
C671 C674 1.539 . S
C672 C668 1.408 . S
C672 C671 1.404 . S
C672 H684 0.930 . S
C673 C669 1.524 1_556 S
C673 H685 0.956 . S
C673 H686 0.961 . S
C673 H687 0.961 . S
C674 C671 1.539 . S
C674 H688 0.958 . S
C674 H689 0.961 . S
C674 H690 0.960 1_554 S
H675 C659 0.931 . S
H676 C664 0.929 . S
H677 C665 0.960 . S
H678 C665 0.962 . S
H679 C665 0.960 . S
H680 C666 0.961 . S
H681 C666 0.961 . S
H682 C666 0.961 . S
H683 C667 0.931 . S
H684 C672 0.930 . S
H685 C673 0.956 . S
H686 C673 0.961 . S
H687 C673 0.961 . S
H688 C674 0.958 . S
H689 C674 0.961 . S
H690 C674 0.960 1_556 S
C691 C692 1.390 . S
C691 C693 1.394 . S
C691 H707 0.932 1_455 S
C692 C691 1.390 . S
C692 C696 1.376 . S
C693 C691 1.394 . S
C693 C694 1.369 . S
C693 C697 1.531 1_455 S
C694 C693 1.369 . S
C694 C695 1.410 . S
C694 C702 1.503 . S
C695 C694 1.410 . S
C695 C696 1.392 . S
C695 C698 1.511 . S
C696 C692 1.376 . S
C696 C695 1.392 . S
C696 H708 0.929 . S
C697 C693 1.531 1_655 S
C697 H709 0.960 . S
C697 H710 0.962 . S
C697 H711 0.960 . S
C698 C695 1.511 . S
C698 H712 0.961 . S
C698 H713 0.961 . S
C698 H714 0.961 . S
C699 C700 1.370 . S
C699 C701 1.363 . S
C699 H715 0.931 . S
C700 C699 1.370 . S
C700 C704 1.408 . S
C701 C699 1.363 . S
C701 C702 1.370 . S
C701 C705 1.524 . S
C702 C694 1.503 . S
C702 C701 1.370 . S
C702 C703 1.403 . S
C703 C702 1.403 . S
C703 C704 1.404 . S
C703 C706 1.539 . S
C704 C700 1.408 . S
C704 C703 1.404 . S
C704 H716 0.930 . S
C705 C701 1.524 . S
C705 H717 0.956 . S
C705 H718 0.961 . S
C705 H719 0.961 . S
C706 C703 1.539 . S
C706 H720 0.958 . S
C706 H721 0.961 . S
C706 H722 0.960 . S
H707 C691 0.932 1_655 S
H708 C696 0.929 . S
H709 C697 0.960 . S
H710 C697 0.962 . S
H711 C697 0.960 . S
H712 C698 0.961 . S
H713 C698 0.961 . S
H714 C698 0.961 . S
H715 C699 0.931 . S
H716 C704 0.930 . S
H717 C705 0.956 . S
H718 C705 0.961 . S
H719 C705 0.961 . S
H720 C706 0.958 . S
H721 C706 0.961 . S
H722 C706 0.960 . S
C148 C20 1.297 . S
C156 C138 1.220 . S
C180 C41 1.307 . S
C188 C116 1.292 1_655 S
C212 C64 1.331 . S
C220 C129 1.314 . S
C244 C19 1.190 . S
C252 C142 1.288 . S
C284 C112 1.229 . S
C276 C44 1.322 . S
C316 C125 1.235 . S
C308 C67 1.311 . S
C340 C43 1.228 . S
C348 C90 1.256 . S
C372 C66 1.246 . S
C380 C103 1.250 . S
C404 C21 1.310 . S
C412 C73 1.248 . S
C444 C86 1.235 . S
C436 C42 1.303 . S
C476 C99 1.246 . S
C468 C65 1.263 . S
C500 C18 1.255 . S
C508 C77 1.268 . S
C540 C104 1.519 . S
C532 C17 1.510 . S
C564 C39 1.520 . S
C572 C78 1.534 . S
C596 C62 1.525 . S
C604 C91 1.543 . S
C636 C130 1.511 . S
C628 C40 1.516 . S
C668 C143 1.532 . S
C660 C63 1.544 . S
C692 C16 1.522 . S
C700 C117 1.515 . S
