# Generated by pormake.
# Topology apo, (3,6)-cn, num edge types: 1
# Building blocks:
#     Node 0, Type 0, BuildingBlock: BETDAH_clean_linker_0, # of connection points: 3
#     Node 1, Type 0, BuildingBlock: BETDAH_clean_linker_0, # of connection points: 3
#     Node 2, Type 0, BuildingBlock: BETDAH_clean_linker_0, # of connection points: 3
#     Node 3, Type 0, BuildingBlock: BETDAH_clean_linker_0, # of connection points: 3
#     Node 4, Type 0, BuildingBlock: BETDAH_clean_linker_0, # of connection points: 3
#     Node 5, Type 0, BuildingBlock: BETDAH_clean_linker_0, # of connection points: 3
#     Node 6, Type 0, BuildingBlock: BETDAH_clean_linker_0, # of connection points: 3
#     Node 7, Type 0, BuildingBlock: BETDAH_clean_linker_0, # of connection points: 3
#     Node 8, Type 1, BuildingBlock: KUMJIN_clean_sbu_1, # of connection points: 6
#     Node 9, Type 1, BuildingBlock: KUMJIN_clean_sbu_1, # of connection points: 6
#     Node 10, Type 1, BuildingBlock: KUMJIN_clean_sbu_1, # of connection points: 6
#     Node 11, Type 1, BuildingBlock: KUMJIN_clean_sbu_1, # of connection points: 6
#     Edge 12, Type (0, 1), BuildingBlock: UVAHIK_clean_linker_0, # of connection points: 2
#     Edge 13, Type (0, 1), BuildingBlock: UVAHIK_clean_linker_0, # of connection points: 2
#     Edge 14, Type (0, 1), BuildingBlock: UVAHIK_clean_linker_0, # of connection points: 2
#     Edge 15, Type (0, 1), BuildingBlock: UVAHIK_clean_linker_0, # of connection points: 2
#     Edge 16, Type (0, 1), BuildingBlock: UVAHIK_clean_linker_0, # of connection points: 2
#     Edge 17, Type (0, 1), BuildingBlock: UVAHIK_clean_linker_0, # of connection points: 2
#     Edge 18, Type (0, 1), BuildingBlock: UVAHIK_clean_linker_0, # of connection points: 2
#     Edge 19, Type (0, 1), BuildingBlock: UVAHIK_clean_linker_0, # of connection points: 2
#     Edge 20, Type (0, 1), BuildingBlock: UVAHIK_clean_linker_0, # of connection points: 2
#     Edge 21, Type (0, 1), BuildingBlock: UVAHIK_clean_linker_0, # of connection points: 2
#     Edge 22, Type (0, 1), BuildingBlock: UVAHIK_clean_linker_0, # of connection points: 2
#     Edge 23, Type (0, 1), BuildingBlock: UVAHIK_clean_linker_0, # of connection points: 2
#     Edge 24, Type (0, 1), BuildingBlock: UVAHIK_clean_linker_0, # of connection points: 2
#     Edge 25, Type (0, 1), BuildingBlock: UVAHIK_clean_linker_0, # of connection points: 2
#     Edge 26, Type (0, 1), BuildingBlock: UVAHIK_clean_linker_0, # of connection points: 2
#     Edge 27, Type (0, 1), BuildingBlock: UVAHIK_clean_linker_0, # of connection points: 2
#     Edge 28, Type (0, 1), BuildingBlock: UVAHIK_clean_linker_0, # of connection points: 2
#     Edge 29, Type (0, 1), BuildingBlock: UVAHIK_clean_linker_0, # of connection points: 2
#     Edge 30, Type (0, 1), BuildingBlock: UVAHIK_clean_linker_0, # of connection points: 2
#     Edge 31, Type (0, 1), BuildingBlock: UVAHIK_clean_linker_0, # of connection points: 2
#     Edge 32, Type (0, 1), BuildingBlock: UVAHIK_clean_linker_0, # of connection points: 2
#     Edge 33, Type (0, 1), BuildingBlock: UVAHIK_clean_linker_0, # of connection points: 2
#     Edge 34, Type (0, 1), BuildingBlock: UVAHIK_clean_linker_0, # of connection points: 2
#     Edge 35, Type (0, 1), BuildingBlock: UVAHIK_clean_linker_0, # of connection points: 2
# Relax obj value: 0.037
# Max RMSD: 0.207
# Mean RMSD: 0.149
data_MOF--net-apo--node1-KUMJIN_clean_sbu_1--node2-BETDAH_clean_linker_0--edge1-UVAHIK_clean_linker_0
_symmetry_space_group_name_H-M    P1
_symmetry_Int_Tables_number       1
_symmetry_cell_setting            triclinic
loop_
_symmetry_equiv_pos_as_xyz
'x, y, z'
_cell_length_a     34.795421
_cell_length_b     54.621302
_cell_length_c     65.152656
_cell_angle_alpha  89.59281
_cell_angle_beta   90.158495
_cell_angle_gamma 90.664697
loop_
_atom_site_label
_atom_site_type_symbol
_atom_site_fract_x
_atom_site_fract_y
_atom_site_fract_z
_atom_type_partial_charge
H0 H 0.35534 0.40179 0.42164 0.0
H1 H 0.27784 0.36305 0.38149 0.0
H2 H 0.27844 0.34664 0.44608 0.0
C3 C 0.33321 0.38792 0.41944 0.0
C4 C 0.3191 0.37462 0.43641 0.0
C5 C 0.31823 0.38403 0.39966 0.0
C6 C 0.28957 0.36601 0.3967 0.0
C7 C 0.27582 0.35218 0.41351 0.0
C8 C 0.29031 0.35681 0.43319 0.0
N9 N 0.24654 0.33404 0.4115 0.0
C10 C 0.23521 0.32318 0.39319 0.0
H11 H 0.17114 0.10695 0.92395 0.0
H12 H 0.24843 0.14323 0.8819 0.0
H13 H 0.25749 0.15706 0.94657 0.0
C14 C 0.19465 0.11974 0.92121 0.0
C15 C 0.21232 0.13164 0.93786 0.0
C16 C 0.20775 0.1236 0.90105 0.0
C17 C 0.23811 0.14028 0.89741 0.0
C18 C 0.25549 0.15272 0.91391 0.0
C19 C 0.24289 0.14802 0.93396 0.0
N20 N 0.28671 0.16935 0.91117 0.0
C21 C 0.29531 0.18165 0.89298 0.0
H22 H 0.85573 0.1171 0.58155 0.0
H23 H 0.76562 0.14195 0.62154 0.0
H24 H 0.7717 0.16777 0.55919 0.0
C25 C 0.83089 0.12841 0.58432 0.0
C26 C 0.81643 0.14298 0.56835 0.0
C27 C 0.81288 0.12792 0.60365 0.0
C28 C 0.78019 0.14243 0.60686 0.0
C29 C 0.7655 0.15689 0.59078 0.0
C30 C 0.78359 0.15696 0.57165 0.0
N31 N 0.73059 0.16973 0.59272 0.0
C32 C 0.72239 0.18544 0.60876 0.0
H33 H 0.66378 0.40117 0.08062 0.0
H34 H 0.74951 0.37642 0.12381 0.0
H35 H 0.75251 0.35236 0.06131 0.0
C36 C 0.68874 0.39022 0.0842 0.0
C37 C 0.70553 0.37621 0.0687 0.0
C38 C 0.70439 0.3905 0.10416 0.0
C39 C 0.73694 0.37624 0.10858 0.0
C40 C 0.75408 0.36242 0.09307 0.0
C41 C 0.73854 0.36269 0.07326 0.0
N42 N 0.78872 0.34963 0.09645 0.0
C43 C 0.79511 0.33411 0.11306 0.0
H44 H 0.6614 0.61206 0.58252 0.0
H45 H 0.74534 0.64577 0.62228 0.0
H46 H 0.74124 0.66571 0.55844 0.0
C47 C 0.68486 0.625 0.58476 0.0
C48 C 0.69873 0.63883 0.56803 0.0
C49 C 0.70173 0.62723 0.60431 0.0
C50 C 0.73209 0.64408 0.60728 0.0
C51 C 0.74583 0.65826 0.59069 0.0
C52 C 0.72947 0.65527 0.57121 0.0
N53 N 0.77715 0.67493 0.5927 0.0
C54 C 0.78744 0.68679 0.61073 0.0
H55 H 0.85301 0.90494 0.07966 0.0
H56 H 0.7806 0.84423 0.06216 0.0
H57 H 0.78713 0.86548 0.12537 0.0
C58 C 0.83357 0.89007 0.0838 0.0
C59 C 0.82229 0.88693 0.10443 0.0
C60 C 0.81842 0.87495 0.06836 0.0
C61 C 0.79225 0.85631 0.07382 0.0
C62 C 0.78103 0.85266 0.09419 0.0
C63 C 0.79596 0.86806 0.10956 0.0
N64 N 0.75406 0.83357 0.09826 0.0
C65 C 0.74381 0.82458 0.1175 0.0
H66 H 0.16896 0.90369 0.42102 0.0
H67 H 0.25211 0.87203 0.38029 0.0
H68 H 0.24482 0.84782 0.44296 0.0
C69 C 0.19193 0.89092 0.41821 0.0
C70 C 0.20432 0.87568 0.43427 0.0
C71 C 0.20919 0.89011 0.3987 0.0
C72 C 0.2379 0.87264 0.39505 0.0
C73 C 0.2504 0.85726 0.4111 0.0
C74 C 0.23387 0.8591 0.43055 0.0
N75 N 0.2822 0.84154 0.40896 0.0
C76 C 0.28961 0.82738 0.39184 0.0
H77 H 0.34322 0.6076 0.92263 0.0
H78 H 0.31817 0.68271 0.93533 0.0
H79 H 0.30941 0.65658 0.8736 0.0
C80 C 0.33383 0.62538 0.91731 0.0
C81 C 0.32665 0.62942 0.89624 0.0
C82 C 0.33001 0.64429 0.93161 0.0
C83 C 0.31966 0.66763 0.92463 0.0
C84 C 0.31185 0.67202 0.9039 0.0
C85 C 0.31485 0.65289 0.8897 0.0
N86 N 0.30531 0.69649 0.89759 0.0
C87 C 0.2759 0.70379 0.88454 0.0
Eu88 Eu 0.05087 0.11191 0.22764 0.0
C89 C 0.8892 0.09124 0.25533 0.0
N90 N 0.9088 0.11276 0.25747 0.0
C91 C 0.85577 0.13448 0.24273 0.0
C92 C 0.85279 0.09042 0.24577 0.0
C93 C 0.89153 0.13437 0.25258 0.0
C94 C 0.83666 0.11236 0.23892 0.0
C95 C 0.88384 0.04781 0.26324 0.0
C96 C 0.90437 0.07017 0.264 0.0
C97 C 0.84853 0.04667 0.25278 0.0
C98 C 0.83306 0.06793 0.24405 0.0
Eu99 Eu 0.97084 0.10998 0.27253 0.0
N100 N 0.93892 0.0717 0.27366 0.0
C101 C 0.89913 0.02738 0.27334 0.0
C102 C 0.95305 0.05229 0.28449 0.0
C103 C 0.93359 0.02973 0.28429 0.0
H104 H 0.90496 0.15165 0.25643 0.0
H105 H 0.94526 0.01417 0.29247 0.0
H106 H 0.13079 0.0938 0.2511 0.0
H107 H 0.02781 0.1956 0.18259 0.0
H108 H 0.97984 0.05416 0.29281 0.0
H109 H 0.88421 0.00986 0.27313 0.0
H110 H 0.01691 0.15244 0.19249 0.0
H111 H 0.84273 0.15166 0.23837 0.0
H112 H 0.83254 0.02958 0.25179 0.0
H113 H 0.80527 0.06691 0.23653 0.0
H114 H 0.1929 0.11161 0.26288 0.0
H115 H 0.80876 0.11252 0.23148 0.0
H116 H 0.08231 0.2189 0.19761 0.0
N117 N 0.11082 0.12742 0.23876 0.0
C118 C 0.1191 0.15113 0.2341 0.0
C119 C 0.17228 0.12296 0.25494 0.0
C120 C 0.15382 0.16213 0.24063 0.0
C121 C 0.13725 0.11294 0.24828 0.0
C122 C 0.18035 0.14778 0.25139 0.0
N123 N 0.0617 0.15215 0.21478 0.0
C124 C 0.03955 0.16275 0.19993 0.0
C125 C 0.10174 0.18843 0.21622 0.0
C126 C 0.09339 0.16403 0.22204 0.0
C127 C 0.07696 0.20015 0.20244 0.0
C128 C 0.04616 0.18707 0.19395 0.0
H129 H 0.2074 0.15553 0.25664 0.0
H130 H 0.18756 0.19574 0.24093 0.0
H131 H 0.1419 0.2188 0.21954 0.0
O132 O 0.07638 0.11038 0.19666 0.0
O133 O 0.06404 0.12675 0.25956 0.0
O134 O 0.00756 0.14422 0.26895 0.0
O135 O 0.07347 0.07767 0.21617 0.0
O136 O 0.99176 0.12777 0.22066 0.0
O137 O 0.97216 0.14362 0.25156 0.0
O138 O 0.98534 0.11041 0.30524 0.0
O139 O 0.97993 0.0779 0.25093 0.0
O140 O 0.99127 0.09738 0.22061 0.0
O141 O 0.92857 0.12054 0.29541 0.0
O142 O 0.02725 0.09175 0.28083 0.0
O143 O 0.05571 0.07994 0.25013 0.0
C144 C 0.04522 0.14423 0.26872 0.0
C145 C 0.10315 0.0725 0.18289 0.0
C146 C 0.12492 0.0667 0.14759 0.0
C147 C 0.13963 0.04376 0.15339 0.0
C148 C 0.11782 0.04945 0.18818 0.0
C149 C 0.13602 0.03525 0.17352 0.0
C150 C 0.10691 0.08113 0.16255 0.0
C151 C 0.97315 0.14422 0.23135 0.0
C152 C 0.08405 0.08723 0.19871 0.0
C153 C 0.16129 0.18683 0.2358 0.0
C154 C 0.13525 0.19997 0.22365 0.0
C155 C 0.97632 0.079 0.23093 0.0
C156 C 0.95361 0.14039 0.32442 0.0
C157 C 0.94493 0.15769 0.35861 0.0
C158 C 0.95285 0.18111 0.35029 0.0
C159 C 0.96173 0.16382 0.31655 0.0
C160 C 0.9457 0.13733 0.3454 0.0
C161 C 0.96147 0.18405 0.32948 0.0
C162 C 0.05062 0.07785 0.27016 0.0
C163 C 0.95236 0.11913 0.31077 0.0
H164 H 0.15437 0.03244 0.14241 0.0
H165 H 0.11547 0.04241 0.20372 0.0
H166 H 0.14749 0.01758 0.17778 0.0
H167 H 0.09519 0.09876 0.15832 0.0
H168 H 0.95171 0.19731 0.35972 0.0
H169 H 0.96781 0.16647 0.30039 0.0
H170 H 0.94023 0.11904 0.35133 0.0
H171 H 0.96746 0.20214 0.32329 0.0
Eu172 Eu 0.46368 0.40403 0.73196 0.0
C173 C 0.62893 0.43246 0.75908 0.0
N174 N 0.61394 0.40981 0.75531 0.0
C175 C 0.6692 0.39953 0.73543 0.0
C176 C 0.66455 0.43972 0.75056 0.0
C177 C 0.63365 0.39319 0.74401 0.0
C178 C 0.68465 0.42292 0.73863 0.0
C179 C 0.6231 0.47223 0.77508 0.0
C180 C 0.60813 0.44858 0.77111 0.0
C181 C 0.65809 0.47969 0.7662 0.0
C182 C 0.67878 0.46348 0.75402 0.0
Eu183 Eu 0.55457 0.40047 0.77099 0.0
N184 N 0.57422 0.44091 0.77958 0.0
C185 C 0.60306 0.48745 0.78839 0.0
C186 C 0.55688 0.45483 0.79414 0.0
C187 C 0.57024 0.47852 0.79827 0.0
H188 H 0.62186 0.37504 0.74169 0.0
H189 H 0.5557 0.48965 0.80945 0.0
H190 H 0.39706 0.4318 0.76003 0.0
H191 H 0.46196 0.31194 0.69855 0.0
H192 H 0.53344 0.44763 0.80319 0.0
H193 H 0.61361 0.50572 0.79181 0.0
H194 H 0.48486 0.3542 0.70272 0.0
H195 H 0.68466 0.38638 0.72635 0.0
H196 H 0.66978 0.49785 0.76897 0.0
H197 H 0.70591 0.46945 0.74744 0.0
H198 H 0.3342 0.42192 0.77598 0.0
H199 H 0.71209 0.42783 0.73184 0.0
H200 H 0.40328 0.29769 0.71651 0.0
N201 N 0.40389 0.39622 0.74771 0.0
C202 C 0.38847 0.37347 0.74504 0.0
C203 C 0.34922 0.40813 0.76738 0.0
C204 C 0.35287 0.36701 0.75398 0.0
C205 C 0.38477 0.41365 0.75842 0.0
C206 C 0.33326 0.38469 0.76522 0.0
N207 N 0.44335 0.36315 0.72536 0.0
C208 C 0.46098 0.34793 0.71187 0.0
C209 C 0.3939 0.33252 0.73124 0.0
C210 C 0.4091 0.35636 0.73394 0.0
C211 C 0.414 0.31614 0.71897 0.0
C212 C 0.44728 0.32406 0.70892 0.0
H213 H 0.30585 0.38042 0.77233 0.0
H214 H 0.31113 0.33776 0.75862 0.0
H215 H 0.34688 0.30763 0.73861 0.0
O216 O 0.45489 0.40627 0.69822 0.0
O217 O 0.45528 0.38706 0.76367 0.0
O218 O 0.51247 0.36842 0.7708 0.0
O219 O 0.42 0.42766 0.71917 0.0
O220 O 0.51852 0.38595 0.72037 0.0
O221 O 0.54403 0.36866 0.74972 0.0
O222 O 0.56465 0.39656 0.80463 0.0
O223 O 0.56314 0.41855 0.73953 0.0
O224 O 0.50506 0.43623 0.73258 0.0
O225 O 0.59899 0.37664 0.78245 0.0
O226 O 0.4999 0.41884 0.78245 0.0
O227 O 0.47365 0.43615 0.75313 0.0
C228 C 0.47487 0.36913 0.7719 0.0
C229 C 0.40571 0.43328 0.68316 0.0
C230 C 0.38963 0.43695 0.64671 0.0
C231 C 0.36479 0.45625 0.65138 0.0
C232 C 0.38065 0.45263 0.68733 0.0
C233 C 0.36036 0.46397 0.67154 0.0
C234 C 0.40997 0.42536 0.66275 0.0
C235 C 0.54057 0.36974 0.72967 0.0
C236 C 0.42734 0.42203 0.70029 0.0
C237 C 0.33828 0.34312 0.75172 0.0
C238 C 0.35875 0.32592 0.74041 0.0
C239 C 0.5426 0.43596 0.73109 0.0
C240 C 0.6157 0.36946 0.8179 0.0
C241 C 0.63077 0.36121 0.85394 0.0
C242 C 0.65956 0.34502 0.84771 0.0
C243 C 0.64479 0.35319 0.81217 0.0
C244 C 0.60903 0.37367 0.83893 0.0
C245 C 0.66653 0.34114 0.82699 0.0
C246 C 0.47869 0.43552 0.77315 0.0
C247 C 0.59257 0.38128 0.80161 0.0
H248 H 0.3483 0.46521 0.63943 0.0
H249 H 0.37678 0.45916 0.70285 0.0
H250 H 0.3411 0.47881 0.67495 0.0
H251 H 0.42928 0.41051 0.65933 0.0
H252 H 0.67701 0.3355 0.85894 0.0
H253 H 0.65076 0.34962 0.79617 0.0
H254 H 0.5867 0.38612 0.84359 0.0
H255 H 0.68884 0.32869 0.82238 0.0
Eu256 Eu 0.05041 0.90409 0.73316 0.0
C257 C 0.88774 0.87088 0.75528 0.0
N258 N 0.90078 0.89439 0.75375 0.0
C259 C 0.84594 0.90531 0.73351 0.0
C260 C 0.85343 0.86355 0.74539 0.0
C261 C 0.88029 0.91171 0.74338 0.0
C262 C 0.83254 0.88111 0.73442 0.0
C263 C 0.8966 0.82945 0.76793 0.0
C264 C 0.90938 0.85401 0.76632 0.0
C265 C 0.86293 0.82196 0.75769 0.0
C266 C 0.84137 0.83896 0.7465 0.0
Eu267 Eu 0.95865 0.90362 0.77104 0.0
N268 N 0.9421 0.8617 0.77599 0.0
C269 C 0.91744 0.81325 0.78028 0.0
C270 C 0.96007 0.84655 0.78964 0.0
C271 C 0.94883 0.82199 0.79152 0.0
H272 H 0.89065 0.93042 0.7427 0.0
H273 H 0.96387 0.80995 0.80199 0.0
H274 H 0.11208 0.86082 0.74804 0.0
H275 H 0.07207 1.0032 0.7253 0.0
H276 H 0.98231 0.85337 0.79966 0.0
H277 H 0.90856 0.79426 0.78192 0.0
H278 H 0.03715 0.9641 0.7218 0.0
H279 H 0.82988 0.91901 0.72515 0.0
H280 H 0.85296 0.80312 0.75862 0.0
H281 H 0.81532 0.83293 0.73881 0.0
H282 H 0.17792 0.85805 0.76218 0.0
H283 H 0.80607 0.87617 0.7266 0.0
H284 H 0.13793 1.00396 0.73966 0.0
N285 N 0.11346 0.89957 0.74582 0.0
C286 C 0.13466 0.92048 0.7479 0.0
C287 C 0.16603 0.87573 0.75834 0.0
C288 C 0.17255 0.91976 0.75559 0.0
C289 C 0.12862 0.87734 0.7506 0.0
C290 C 0.18806 0.89704 0.76092 0.0
N291 N 0.08142 0.94285 0.73532 0.0
C292 C 0.06523 0.96411 0.72868 0.0
C293 C 0.13967 0.96469 0.74431 0.0
C294 C 0.11832 0.94273 0.74238 0.0
C295 C 0.12251 0.98668 0.73838 0.0
C296 C 0.08527 0.98635 0.73036 0.0
H297 H 0.21706 0.89572 0.76689 0.0
H298 H 0.22284 0.94147 0.76363 0.0
H299 H 0.19409 0.98076 0.75375 0.0
O300 O 0.04654 0.91044 0.70003 0.0
O301 O 0.05828 0.92262 0.76423 0.0
O302 O 0.99854 0.93636 0.77379 0.0
O303 O 0.08913 0.88571 0.71205 0.0
O304 O 0.99777 0.92563 0.72291 0.0
O305 O 0.9654 0.93818 0.75203 0.0
O306 O 0.94651 0.90239 0.80448 0.0
O307 O 0.9537 0.89007 0.73809 0.0
O308 O 0.01069 0.87095 0.733 0.0
O309 O 0.91267 0.92518 0.78374 0.0
O310 O 0.01487 0.88671 0.78247 0.0
O311 O 0.04054 0.87053 0.75301 0.0
C312 C 0.0362 0.93766 0.77439 0.0
C313 C 0.10478 0.90768 0.6818 0.0
C314 C 0.12934 0.91361 0.64702 0.0
C315 C 0.15857 0.92892 0.65488 0.0
C316 C 0.13439 0.92281 0.68928 0.0
C317 C 0.16104 0.93342 0.67588 0.0
C318 C 0.10244 0.90301 0.66065 0.0
C319 C 0.97376 0.94024 0.73241 0.0
C320 C 0.07603 0.89688 0.69581 0.0
C321 C 0.19372 0.94166 0.7577 0.0
C322 C 0.17734 0.96404 0.75207 0.0
C323 C 0.97343 0.8721 0.73032 0.0
C324 C 0.89468 0.92694 0.81947 0.0
C325 C 0.87283 0.9253 0.85508 0.0
C326 C 0.84707 0.94429 0.85075 0.0
C327 C 0.86866 0.94596 0.81561 0.0
C328 C 0.89702 0.91681 0.83939 0.0
C329 C 0.84517 0.95459 0.83117 0.0
C330 C 0.03722 0.87092 0.77311 0.0
C331 C 0.91847 0.91783 0.80245 0.0
H332 H 0.17995 0.93708 0.6448 0.0
H333 H 0.13707 0.92637 0.70544 0.0
H334 H 0.18382 0.94506 0.68182 0.0
H335 H 0.07951 0.89136 0.65482 0.0
H336 H 0.8285 0.95131 0.86261 0.0
H337 H 0.86636 0.95422 0.80049 0.0
H338 H 0.91678 0.90205 0.84257 0.0
H339 H 0.8253 0.96925 0.82802 0.0
Eu340 Eu 0.4622 0.61128 0.23311 0.0
C341 C 0.6256 0.64267 0.25818 0.0
N342 N 0.61207 0.61936 0.25613 0.0
C343 C 0.6676 0.6086 0.23666 0.0
C344 C 0.66057 0.65 0.24898 0.0
C345 C 0.63261 0.60221 0.24586 0.0
C346 C 0.68156 0.63262 0.23813 0.0
C347 C 0.61706 0.68376 0.27116 0.0
C348 C 0.60379 0.65938 0.26902 0.0
C349 C 0.65141 0.69126 0.2616 0.0
C350 C 0.67315 0.67442 0.25059 0.0
Eu351 Eu 0.55294 0.61015 0.27212 0.0
N352 N 0.57038 0.6517 0.27798 0.0
C353 C 0.59595 0.69974 0.28331 0.0
C354 C 0.55206 0.66655 0.2915 0.0
C355 C 0.56377 0.69093 0.29388 0.0
H356 H 0.62182 0.58364 0.24474 0.0
H357 H 0.54845 0.70277 0.30421 0.0
H358 H 0.40013 0.65203 0.25156 0.0
H359 H 0.44354 0.51295 0.21985 0.0
H360 H 0.5291 0.65962 0.30102 0.0
H361 H 0.60516 0.71859 0.28533 0.0
H362 H 0.47687 0.55277 0.21813 0.0
H363 H 0.68371 0.59504 0.22838 0.0
H364 H 0.66175 0.70998 0.26291 0.0
H365 H 0.6997 0.68046 0.24342 0.0
H366 H 0.33489 0.6524 0.26642 0.0
H367 H 0.70852 0.63756 0.23083 0.0
H368 H 0.37848 0.50983 0.23489 0.0
N369 N 0.39989 0.6136 0.24697 0.0
C370 C 0.37942 0.59226 0.24795 0.0
C371 C 0.34715 0.63535 0.26139 0.0
C372 C 0.34187 0.59166 0.25603 0.0
C373 C 0.38425 0.63506 0.25321 0.0
C374 C 0.32591 0.61355 0.26288 0.0
N375 N 0.43283 0.57194 0.23355 0.0
C376 C 0.44932 0.55166 0.22547 0.0
C377 C 0.3757 0.54848 0.24181 0.0
C378 C 0.39623 0.57088 0.24093 0.0
C379 C 0.39329 0.52739 0.23446 0.0
C380 C 0.4301 0.52904 0.22607 0.0
H381 H 0.29716 0.61384 0.26921 0.0
H382 H 0.29269 0.56851 0.26327 0.0
H383 H 0.32226 0.53075 0.25084 0.0
O384 O 0.46206 0.60603 0.19981 0.0
O385 O 0.45386 0.59262 0.26433 0.0
O386 O 0.51301 0.57727 0.27307 0.0
O387 O 0.42334 0.63191 0.21333 0.0
O388 O 0.51553 0.59078 0.22286 0.0
O389 O 0.54659 0.57663 0.25213 0.0
O390 O 0.56164 0.60951 0.30586 0.0
O391 O 0.55983 0.62506 0.23955 0.0
O392 O 0.5029 0.64403 0.23296 0.0
O393 O 0.59817 0.58824 0.28564 0.0
O394 O 0.49666 0.62745 0.28268 0.0
O395 O 0.47253 0.64443 0.25288 0.0
C396 C 0.47537 0.57648 0.27384 0.0
C397 C 0.40211 0.6116 0.18337 0.0
C398 C 0.37534 0.60544 0.14902 0.0
C399 C 0.34257 0.59444 0.15794 0.0
C400 C 0.369 0.60074 0.19185 0.0
C401 C 0.33954 0.59212 0.1792 0.0
C402 C 0.40518 0.61391 0.16194 0.0
C403 C 0.53906 0.57561 0.23233 0.0
C404 C 0.43342 0.62076 0.19664 0.0
C405 C 0.32152 0.56934 0.25705 0.0
C406 C 0.33838 0.54782 0.24996 0.0
C407 C 0.54046 0.6432 0.23154 0.0
C408 C 0.61238 0.5846 0.32188 0.0
C409 C 0.62735 0.5827 0.35856 0.0
C410 C 0.65408 0.56421 0.35461 0.0
C411 C 0.63933 0.5661 0.31842 0.0
C412 C 0.60662 0.59298 0.34204 0.0
C413 C 0.65999 0.55603 0.33468 0.0
C414 C 0.47545 0.64379 0.27298 0.0
C415 C 0.59022 0.59442 0.30433 0.0
H416 H 0.31884 0.58811 0.14851 0.0
H417 H 0.36563 0.59913 0.20822 0.0
H418 H 0.31406 0.58384 0.18592 0.0
H419 H 0.43081 0.62223 0.15536 0.0
H420 H 0.67087 0.55625 0.36694 0.0
H421 H 0.64437 0.55924 0.30311 0.0
H422 H 0.58581 0.60716 0.34491 0.0
H423 H 0.6807 0.54183 0.33183 0.0
C424 C 0.19418 0.90278 0.36213 0.0
C425 C 0.1988 0.90883 0.38295 0.0
C426 C 0.18278 0.92059 0.34779 0.0
C427 C 0.17413 0.98838 0.34118 0.0
H428 H 0.09693 0.97145 0.30051 0.0
C429 C 0.0764 0.05962 0.3027 0.0
C430 C 0.07169 0.05843 0.2813 0.0
C431 C 0.09565 0.04112 0.31332 0.0
C432 C 0.11883 0.97636 0.31163 0.0
H433 H 0.19683 0.93865 0.40475 0.0
H434 H 0.17578 0.96911 0.38021 0.0
H435 H 0.12445 0.93932 0.32214 0.0
H436 H 0.0833 0.03674 0.25428 0.0
H437 H 0.11635 1.00412 0.27301 0.0
H438 H 0.16722 0.02554 0.33124 0.0
C439 C 0.18129 0.95082 0.37473 0.0
C440 C 0.13474 0.95796 0.32398 0.0
C441 C 0.19278 0.93316 0.38894 0.0
C442 C 0.08662 0.03827 0.27076 0.0
C443 C 0.10534 0.01953 0.28146 0.0
C444 C 0.15789 1.00675 0.32904 0.0
C445 C 0.17594 0.94483 0.35397 0.0
C446 C 0.16205 0.96381 0.33922 0.0
C447 C 0.11013 0.02083 0.30284 0.0
C448 C 0.12961 1.001 0.3144 0.0
H449 H 0.19859 0.88421 0.35701 0.0
H450 H 0.17933 0.91537 0.33188 0.0
H451 H 0.1958 0.99354 0.35234 0.0
H452 H 0.06532 0.07491 0.31128 0.0
H453 H 0.09862 0.04248 0.32983 0.0
C454 C 0.35216 0.61488 0.8623 0.0
C455 C 0.33454 0.60955 0.88124 0.0
C456 C 0.36415 0.59603 0.84945 0.0
C457 C 0.35776 0.52803 0.84166 0.0
H458 H 0.45399 0.53919 0.81301 0.0
C459 C 0.44957 0.45086 0.80578 0.0
C460 C 0.46083 0.45504 0.78536 0.0
C461 C 0.43223 0.46948 0.81703 0.0
C462 C 0.42698 0.53587 0.82085 0.0
H463 H 0.31341 0.57995 0.90072 0.0
H464 H 0.33603 0.5473 0.87901 0.0
H465 H 0.42619 0.5721 0.83288 0.0
H466 H 0.46325 0.48196 0.76075 0.0
H467 H 0.43387 0.51457 0.78056 0.0
H468 H 0.35977 0.49135 0.83011 0.0
C469 C 0.34018 0.56601 0.87381 0.0
C470 C 0.41077 0.5548 0.83212 0.0
C471 C 0.32766 0.58484 0.88649 0.0
C472 C 0.4547 0.47818 0.77645 0.0
C473 C 0.43809 0.49688 0.78779 0.0
C474 C 0.37437 0.50896 0.83065 0.0
C475 C 0.35935 0.5713 0.85529 0.0
C476 C 0.37585 0.55122 0.84268 0.0
C477 C 0.42657 0.49271 0.80816 0.0
C478 C 0.40909 0.51273 0.82011 0.0
H479 H 0.3582 0.63362 0.85771 0.0
H480 H 0.37786 0.60093 0.83508 0.0
H481 H 0.33056 0.52457 0.84923 0.0
H482 H 0.45382 0.43315 0.81297 0.0
H483 H 0.42378 0.46586 0.83276 0.0
C484 C 0.64962 0.60872 0.62607 0.0
C485 C 0.6888 0.61072 0.62113 0.0
C486 C 0.63684 0.59124 0.64035 0.0
C487 C 0.659 0.53072 0.65938 0.0
H488 H 0.5887 0.54522 0.70358 0.0
C489 C 0.59987 0.45419 0.71288 0.0
C490 C 0.56195 0.45632 0.71989 0.0
C491 C 0.61809 0.4737 0.70264 0.0
C492 C 0.60789 0.54073 0.69115 0.0
H493 H 0.74541 0.59633 0.62734 0.0
H494 H 0.72289 0.56529 0.65206 0.0
H495 H 0.61508 0.57851 0.68261 0.0
H496 H 0.51289 0.48041 0.721 0.0
H497 H 0.54357 0.51374 0.7022 0.0
H498 H 0.65053 0.49295 0.66702 0.0
C499 C 0.70222 0.57746 0.64504 0.0
C500 C 0.6232 0.55988 0.67926 0.0
C501 C 0.7151 0.59528 0.63105 0.0
C502 C 0.54227 0.47817 0.71594 0.0
C503 C 0.56015 0.49749 0.70537 0.0
C504 C 0.64317 0.51151 0.67102 0.0
C505 C 0.66291 0.5751 0.64964 0.0
C506 C 0.64869 0.55504 0.66317 0.0
C507 C 0.59841 0.49563 0.69864 0.0
C508 C 0.61706 0.5162 0.68697 0.0
H509 H 0.62881 0.62041 0.61858 0.0
H510 H 0.60636 0.5897 0.64353 0.0
H511 H 0.67827 0.52647 0.6469 0.0
H512 H 0.61535 0.43732 0.71507 0.0
H513 H 0.64764 0.47151 0.69791 0.0
C514 C 0.81191 0.91505 0.13422 0.0
C515 C 0.83709 0.90408 0.12028 0.0
C516 C 0.82543 0.93278 0.14797 0.0
C517 C 0.85819 0.98142 0.16374 0.0
H518 H 0.95515 0.97393 0.19248 0.0
C519 C 0.94143 0.06243 0.20034 0.0
C520 C 0.95805 0.0585 0.21973 0.0
C521 C 0.9245 0.04299 0.18962 0.0
C522 C 0.92786 0.97621 0.1847 0.0
H523 H 0.89638 0.9024 0.11034 0.0
H524 H 0.92001 0.93324 0.13436 0.0
H525 H 0.9298 0.94032 0.17171 0.0
H526 H 0.97048 0.03118 0.243 0.0
H527 H 0.94079 0.99721 0.22433 0.0
H528 H 0.85648 0.01743 0.17656 0.0
C529 C 0.88982 0.92818 0.13467 0.0
C530 C 0.91352 0.95705 0.17268 0.0
C531 C 0.87625 0.91066 0.12081 0.0
C532 C 0.95744 0.03479 0.2282 0.0
C533 C 0.94077 0.01531 0.21743 0.0
C534 C 0.87271 1.00068 0.17562 0.0
C535 C 0.86449 0.9397 0.14821 0.0
C536 C 0.87866 0.9595 0.16194 0.0
C537 C 0.92423 0.01918 0.19797 0.0
C538 C 0.90785 0.99835 0.18612 0.0
H539 H 0.78153 0.91049 0.13407 0.0
H540 H 0.80528 0.94118 0.15833 0.0
H541 H 0.83141 0.98395 0.15552 0.0
H542 H 0.94143 0.08055 0.19348 0.0
H543 H 0.91235 0.04651 0.17458 0.0
C544 C 0.80199 0.09461 0.62978 0.0
C545 C 0.82721 0.11112 0.6199 0.0
C546 C 0.81613 0.07697 0.64345 0.0
C547 C 0.89813 0.06143 0.67661 0.0
H548 H 0.86726 0.994 0.66694 0.0
C549 C 0.95339 0.95884 0.69887 0.0
C550 C 0.95549 0.96011 0.72039 0.0
C551 C 0.93606 0.97754 0.6875 0.0
C552 C 0.87609 0.01275 0.66982 0.0
H553 H 0.88669 0.12279 0.61715 0.0
H554 H 0.91134 0.09226 0.64135 0.0
H555 H 0.83952 0.02681 0.64609 0.0
H556 H 0.94138 0.98215 0.74683 0.0
H557 H 0.91176 0.01505 0.72688 0.0
H558 H 0.93478 0.04731 0.70032 0.0
C559 C 0.8807 0.09286 0.63843 0.0
C560 C 0.86 0.03153 0.65802 0.0
C561 C 0.86664 0.11023 0.62453 0.0
C562 C 0.94009 0.98058 0.73028 0.0
C563 C 0.92332 0.99947 0.71887 0.0
C564 C 0.91377 0.04267 0.68864 0.0
C565 C 0.85569 0.07575 0.64775 0.0
C566 C 0.87114 0.05604 0.66114 0.0
C567 C 0.921 0.9981 0.69737 0.0
C568 C 0.90322 0.01811 0.68521 0.0
H569 H 0.7715 0.09476 0.62637 0.0
H570 H 0.79618 0.06411 0.65052 0.0
H571 H 0.90712 0.08017 0.67939 0.0
H572 H 0.96488 0.9433 0.69079 0.0
H573 H 0.93494 0.9761 0.67094 0.0
C574 C 0.64778 0.40785 0.12259 0.0
C575 C 0.68776 0.40676 0.11992 0.0
C576 C 0.63188 0.42472 0.13608 0.0
C577 C 0.65602 0.46757 0.17867 0.0
H578 H 0.56269 0.49935 0.1606 0.0
C579 C 0.57459 0.536 0.22983 0.0
C580 C 0.55731 0.55614 0.22012 0.0
C581 C 0.59073 0.51728 0.21824 0.0
C582 C 0.58897 0.49087 0.16583 0.0
H583 H 0.74249 0.4222 0.12951 0.0
H584 H 0.71484 0.45198 0.15277 0.0
H585 H 0.59057 0.46764 0.13962 0.0
H586 H 0.54431 0.5727 0.19058 0.0
H587 H 0.57325 0.54049 0.17043 0.0
H588 H 0.65518 0.49157 0.20449 0.0
C589 C 0.69568 0.43949 0.14479 0.0
C590 C 0.60466 0.47233 0.15392 0.0
C591 C 0.71159 0.42244 0.13144 0.0
C592 C 0.55707 0.55733 0.19857 0.0
C593 C 0.57348 0.53875 0.18699 0.0
C594 C 0.64044 0.48627 0.19053 0.0
C595 C 0.65556 0.44111 0.14707 0.0
C596 C 0.63843 0.46043 0.16015 0.0
C597 C 0.59025 0.51835 0.19665 0.0
C598 C 0.60676 0.49823 0.18422 0.0
H599 H 0.62875 0.39576 0.1141 0.0
H600 H 0.60094 0.42502 0.13777 0.0
H601 H 0.68181 0.45867 0.1841 0.0
H602 H 0.57507 0.53443 0.24641 0.0
H603 H 0.6029 0.50173 0.22623 0.0
C604 C 0.30484 0.41413 0.37145 0.0
C605 C 0.33135 0.40001 0.38253 0.0
C606 C 0.31766 0.43184 0.35733 0.0
C607 C 0.39959 0.45136 0.32552 0.0
H608 H 0.36371 0.51729 0.33479 0.0
C609 C 0.47798 0.53526 0.29085 0.0
C610 C 0.45664 0.5559 0.28509 0.0
C611 C 0.46047 0.5156 0.30114 0.0
C612 C 0.37355 0.49897 0.33163 0.0
H613 H 0.39174 0.39242 0.38698 0.0
H614 H 0.41417 0.4229 0.36189 0.0
H615 H 0.33633 0.48329 0.35449 0.0
H616 H 0.4003 0.5723 0.28634 0.0
H617 H 0.36918 0.53752 0.30317 0.0
H618 H 0.43646 0.46677 0.30252 0.0
C619 C 0.38355 0.42044 0.36421 0.0
C620 C 0.35787 0.47949 0.343 0.0
C621 C 0.37077 0.40308 0.37858 0.0
C622 C 0.4174 0.55647 0.29007 0.0
C623 C 0.39967 0.53661 0.30006 0.0
C624 C 0.41486 0.47076 0.31391 0.0
C625 C 0.35718 0.43538 0.35379 0.0
C626 C 0.3712 0.45556 0.3403 0.0
C627 C 0.42099 0.51589 0.3058 0.0
C628 C 0.4026 0.49494 0.31707 0.0
H629 H 0.27431 0.41224 0.37438 0.0
H630 H 0.29675 0.44304 0.34942 0.0
H631 H 0.41009 0.43303 0.323 0.0
H632 H 0.50835 0.53422 0.28738 0.0
H633 H 0.47816 0.50031 0.3057 0.0
C634 C 0.21433 0.09381 0.87229 0.0
C635 C 0.1909 0.1088 0.88424 0.0
C636 C 0.19792 0.07687 0.85872 0.0
C637 C 0.10566 0.04335 0.85026 0.0
H638 H 0.15474 0.02268 0.80002 0.0
C639 C 0.03231 0.97749 0.79306 0.0
C640 C 0.05442 0.95774 0.7863 0.0
C641 C 0.04932 0.99664 0.80406 0.0
C642 C 0.14087 0.02823 0.81408 0.0
H643 H 0.13225 0.11903 0.89055 0.0
H644 H 0.10352 0.09038 0.86626 0.0
H645 H 0.18327 0.05604 0.81996 0.0
H646 H 0.11163 0.94237 0.78642 0.0
H647 H 0.14156 0.9763 0.805 0.0
H648 H 0.06297 0.01579 0.84415 0.0
C649 C 0.1345 0.0909 0.86782 0.0
C650 C 0.15722 0.04729 0.82556 0.0
C651 C 0.1509 0.10752 0.8816 0.0
C652 C 0.09394 0.95757 0.7909 0.0
C653 C 0.11109 0.97696 0.80162 0.0
C654 C 0.08911 0.02457 0.83866 0.0
C655 C 0.15769 0.07479 0.85665 0.0
C656 C 0.13987 0.05508 0.84386 0.0
C657 C 0.08888 0.99662 0.80841 0.0
C658 C 0.10657 0.01675 0.8205 0.0
H659 H 0.24527 0.09428 0.87424 0.0
H660 H 0.21677 0.06468 0.85058 0.0
H661 H 0.0919 0.04828 0.86451 0.0
H662 H 1.00182 0.97829 0.78977 0.0
H663 H 0.03156 0.01164 0.809 0.0
C664 C 0.19032 0.10215 0.96533 0.0
C665 C 0.20001 0.12621 0.95933 0.0
C666 C 0.18004 0.0968 0.98559 0.0
C667 C 0.14807 0.12509 0.0343 0.0
H668 H 0.18528 0.0644 0.05785 0.0
C669 C 0.13905 0.09966 0.12127 0.0
C670 C 0.12873 0.07527 0.12594 0.0
C671 C 0.14559 0.10697 0.1009 0.0
C672 C 0.17435 0.08131 0.05144 0.0
H673 H 0.20556 0.16363 0.96999 0.0
H674 H 0.1888 0.15416 0.00551 0.0
H675 H 0.2013 0.07504 0.02258 0.0
H676 H 0.11484 0.03989 0.11273 0.0
H677 H 0.12664 0.05256 0.0774 0.0
H678 H 0.12167 0.1314 0.0635 0.0
C679 C 0.18864 0.13946 0.99444 0.0
C680 C 0.18344 0.0874 0.03118 0.0
C681 C 0.19873 0.14484 0.97411 0.0
C682 C 0.12369 0.05866 0.10974 0.0
C683 C 0.1304 0.06591 0.08948 0.0
C684 C 0.13918 0.11905 0.05469 0.0
C685 C 0.17946 0.11532 1.00048 0.0
C686 C 0.17017 0.10925 0.02226 0.0
C687 C 0.14208 0.09002 0.08485 0.0
C688 C 0.15196 0.09697 0.0634 0.0
H689 H 0.19142 0.08726 0.95447 0.0
H690 H 0.17255 0.07807 0.98957 0.0
H691 H 0.13704 0.14195 0.02788 0.0
H692 H 0.14341 0.11288 0.13339 0.0
H693 H 0.15473 0.12566 0.0978 0.0
C694 C 0.33817 0.36126 0.47212 0.0
C695 C 0.33297 0.38012 0.45758 0.0
C696 C 0.34902 0.36665 0.49231 0.0
C697 C 0.34726 0.41753 0.52941 0.0
H698 H 0.41627 0.37681 0.56125 0.0
C699 C 0.3965 0.44675 0.60935 0.0
C700 C 0.39323 0.42907 0.62503 0.0
C701 C 0.39399 0.44001 0.58878 0.0
C702 C 0.3968 0.38825 0.55256 0.0
H703 H 0.33572 0.41949 0.45295 0.0
H704 H 0.35579 0.42878 0.4878 0.0
H705 H 0.40252 0.36665 0.52541 0.0
H706 H 0.38709 0.39025 0.63143 0.0
H707 H 0.3827 0.37835 0.59528 0.0
H708 H 0.3414 0.43909 0.55642 0.0
C709 C 0.35083 0.40981 0.48374 0.0
C710 C 0.38884 0.38243 0.53205 0.0
C711 C 0.33982 0.40444 0.46362 0.0
C712 C 0.38982 0.40426 0.61966 0.0
C713 C 0.38727 0.39747 0.59898 0.0
C714 C 0.35533 0.42339 0.54979 0.0
C715 C 0.35499 0.39104 0.49844 0.0
C716 C 0.36402 0.39706 0.52021 0.0
C717 C 0.38814 0.41539 0.58335 0.0
C718 C 0.38028 0.4089 0.5616 0.0
H719 H 0.33364 0.34229 0.46793 0.0
H720 H 0.3517 0.35173 0.50323 0.0
H721 H 0.32726 0.42887 0.52098 0.0
H722 H 0.39992 0.46597 0.61301 0.0
H723 H 0.39571 0.45418 0.57709 0.0
C724 C 0.68091 0.39772 0.03711 0.0
C725 C 0.68934 0.37585 0.04761 0.0
C726 C 0.66876 0.39721 0.01659 0.0
C727 C 0.67271 0.3568 0.97126 0.0
H728 H 0.59912 0.40178 0.94755 0.0
C729 C 0.62137 0.34404 0.88912 0.0
C730 C 0.62447 0.36467 0.87622 0.0
C731 C 0.62321 0.34653 0.91038 0.0
C732 C 0.61982 0.38919 0.95399 0.0
H733 H 0.68948 0.33633 0.04537 0.0
H734 H 0.66739 0.3353 0.0099 0.0
H735 H 0.61411 0.40377 0.98432 0.0
H736 H 0.62914 0.40422 0.87541 0.0
H737 H 0.63242 0.40864 0.91288 0.0
H738 H 0.67846 0.34217 0.94114 0.0
C739 C 0.67134 0.35293 0.01715 0.0
C740 C 0.62851 0.39035 0.97501 0.0
C741 C 0.68384 0.35347 0.03752 0.0
C742 C 0.62656 0.38805 0.88505 0.0
C743 C 0.62849 0.39055 0.90645 0.0
C744 C 0.66385 0.35554 0.95042 0.0
C745 C 0.66451 0.37479 0.00623 0.0
C746 C 0.65491 0.37402 0.98393 0.0
C747 C 0.62833 0.3697 0.91927 0.0
C748 C 0.63713 0.37156 0.94154 0.0
H749 H 0.6851 0.41524 0.04452 0.0
H750 H 0.66406 0.4144 0.00865 0.0
H751 H 0.69402 0.34441 0.97737 0.0
H752 H 0.61918 0.32583 0.8827 0.0
H753 H 0.62211 0.33016 0.91987 0.0
C754 C 0.85203 0.16457 0.5403 0.0
C755 C 0.83458 0.14314 0.54791 0.0
C756 C 0.86702 0.16532 0.52042 0.0
C757 C 0.8925 0.12542 0.47592 0.0
H758 H 0.88546 0.18678 0.4459 0.0
C759 C 0.90848 0.13662 0.38734 0.0
C760 C 0.93513 0.15467 0.38082 0.0
C761 C 0.89851 0.13431 0.40806 0.0
C762 C 0.8878 0.16958 0.45417 0.0
H763 H 0.81882 0.10569 0.54103 0.0
H764 H 0.84324 0.10712 0.50593 0.0
H765 H 0.86321 0.18446 0.48124 0.0
H766 H 0.97294 0.18392 0.39146 0.0
H767 H 0.95393 0.18057 0.42737 0.0
H768 H 0.91543 0.11045 0.44819 0.0
C769 C 0.8468 0.1232 0.51539 0.0
C770 C 0.87533 0.16823 0.47452 0.0
C771 C 0.83257 0.12234 0.53546 0.0
C772 C 0.95166 0.17019 0.39569 0.0
C773 C 0.94106 0.16819 0.41632 0.0
C774 C 0.90421 0.12669 0.45539 0.0
C775 C 0.86399 0.14479 0.5075 0.0
C776 C 0.87764 0.14616 0.48577 0.0
C777 C 0.91434 0.15029 0.42267 0.0
C778 C 0.90211 0.14881 0.4444 0.0
H779 H 0.85395 0.18079 0.54975 0.0
H780 H 0.88086 0.18208 0.51522 0.0
H781 H 0.89547 0.10821 0.48406 0.0
H782 H 0.89448 0.1246 0.37643 0.0
H783 H 0.87755 0.1205 0.4126 0.0
C784 C 0.8672 0.88344 0.04056 0.0
C785 C 0.82892 0.87875 0.04643 0.0
C786 C 0.87688 0.88594 0.01978 0.0
C787 C 0.84035 0.87062 0.96788 0.0
H788 H 0.90829 0.92288 0.94917 0.0
C789 C 0.83877 0.90741 0.88539 0.0
C790 C 0.87346 0.91446 0.87599 0.0
C791 C 0.83815 0.89977 0.90585 0.0
C792 C 0.88983 0.9079 0.95418 0.0
H793 H 0.77063 0.87411 0.03511 0.0
H794 H 0.7874 0.8785 0.99908 0.0
H795 H 0.89792 0.91664 0.98594 0.0
H796 H 0.93493 0.91837 0.88037 0.0
H797 H 0.9339 0.90503 0.91647 0.0
H798 H 0.83137 0.86231 0.93617 0.0
C799 C 0.81015 0.87962 0.01043 0.0
C800 C 0.88383 0.90436 0.97525 0.0
C801 C 0.80051 0.87715 0.03111 0.0
C802 C 0.90783 0.91292 0.88727 0.0
C803 C 0.90718 0.9055 0.90791 0.0
C804 C 0.84627 0.87419 0.94688 0.0
C805 C 0.84848 0.88379 0.00446 0.0
C806 C 0.85824 0.88606 0.9823 0.0
C807 C 0.8722 0.89915 0.91748 0.0
C808 C 0.87033 0.89324 0.93976 0.0
H809 H 0.88978 0.88461 0.052 0.0
H810 H 0.9067 0.88906 0.01569 0.0
H811 H 0.82119 0.85597 0.97281 0.0
H812 H 0.81189 0.90832 0.87699 0.0
H813 H 0.81069 0.89527 0.91279 0.0
C814 C 0.67326 0.61191 0.53981 0.0
C815 C 0.68236 0.63546 0.54707 0.0
C816 C 0.65999 0.60859 0.51974 0.0
C817 C 0.66295 0.63774 0.46874 0.0
H818 H 0.58584 0.58848 0.4555 0.0
C819 C 0.62269 0.61625 0.38466 0.0
C820 C 0.6221 0.59118 0.37997 0.0
C821 C 0.62302 0.62392 0.40514 0.0
C822 C 0.60748 0.60227 0.45893 0.0
H823 H 0.6832 0.67409 0.53909 0.0
H824 H 0.66025 0.66825 0.504 0.0
H825 H 0.60014 0.59756 0.49136 0.0
H826 H 0.61882 0.55457 0.39295 0.0
H827 H 0.61983 0.56784 0.4285 0.0
H828 H 0.67115 0.64196 0.43637 0.0
C829 C 0.66387 0.65233 0.51379 0.0
C830 C 0.6157 0.60745 0.47948 0.0
C831 C 0.67706 0.65566 0.53389 0.0
C832 C 0.61975 0.57402 0.39611 0.0
C833 C 0.61993 0.58166 0.4165 0.0
C834 C 0.65478 0.63253 0.44819 0.0
C835 C 0.65554 0.62873 0.50641 0.0
C836 C 0.64407 0.6249 0.48463 0.0
C837 C 0.62248 0.60667 0.4213 0.0
C838 C 0.62751 0.61437 0.44303 0.0
H839 H 0.67756 0.59591 0.54942 0.0
H840 H 0.65443 0.59013 0.51446 0.0
H841 H 0.68527 0.65109 0.47216 0.0
H842 H 0.62461 0.62988 0.37254 0.0
H843 H 0.62452 0.64335 0.40832 0.0
C844 C 0.31295 0.64942 0.96868 0.0
C845 C 0.33769 0.63994 0.95378 0.0
C846 C 0.32021 0.64566 0.98956 0.0
C847 C 0.37329 0.60581 0.02569 0.0
H848 H 0.35304 0.65815 0.06393 0.0
C849 C 0.36397 0.59008 0.11324 0.0
C850 C 0.37752 0.60862 0.12636 0.0
C851 C 0.36298 0.59377 0.09201 0.0
C852 C 0.35934 0.64342 0.05346 0.0
H853 H 0.38972 0.61928 0.94911 0.0
H854 H 0.40258 0.6128 0.98559 0.0
H855 H 0.34404 0.66513 0.02731 0.0
H856 H 0.40164 0.64539 0.12733 0.0
H857 H 0.40078 0.65162 0.09022 0.0
H858 H 0.3891 0.58421 0.05185 0.0
C859 C 0.37719 0.62282 0.98113 0.0
C860 C 0.35364 0.64732 0.03246 0.0
C861 C 0.36983 0.62653 0.96022 0.0
C862 C 0.39126 0.63066 0.11767 0.0
C863 C 0.39032 0.63434 0.09641 0.0
C864 C 0.37907 0.60192 0.0467 0.0
C865 C 0.3525 0.63239 0.99606 0.0
C866 C 0.36014 0.62849 0.01832 0.0
C867 C 0.37561 0.61608 0.08334 0.0
C868 C 0.37181 0.6206 0.06087 0.0
H869 H 0.28765 0.65953 0.96419 0.0
H870 H 0.30017 0.65287 1.0006 0.0
H871 H 0.37831 0.59084 0.01526 0.0
H872 H 0.35367 0.57275 0.11941 0.0
H873 H 0.35117 0.57937 0.08246 0.0
C874 C 0.17975 0.85729 0.46725 0.0
C875 C 0.18826 0.87813 0.45525 0.0
C876 C 0.16691 0.85969 0.48744 0.0
C877 C 0.12716 0.90459 0.52425 0.0
H878 H 0.17275 0.86193 0.56519 0.0
C879 C 0.13303 0.92758 0.61036 0.0
C880 C 0.12767 0.90851 0.6247 0.0
C881 C 0.13453 0.92264 0.58939 0.0
C882 C 0.15925 0.87373 0.55392 0.0
H883 H 0.1898 0.91783 0.45501 0.0
H884 H 0.16782 0.92204 0.49022 0.0
H885 H 0.18635 0.85552 0.52899 0.0
H886 H 0.11873 0.86938 0.62827 0.0
H887 H 0.12125 0.86071 0.5915 0.0
H888 H 0.10104 0.92326 0.54933 0.0
C889 C 0.17026 0.90382 0.48395 0.0
C890 C 0.16701 0.87005 0.53315 0.0
C891 C 0.18293 0.90142 0.46375 0.0
C892 C 0.1227 0.88445 0.61757 0.0
C893 C 0.12448 0.87948 0.59656 0.0
C894 C 0.11954 0.90834 0.54503 0.0
C895 C 0.16246 0.88299 0.49613 0.0
C896 C 0.15154 0.88567 0.51806 0.0
C897 C 0.13089 0.89849 0.58226 0.0
C898 C 0.13597 0.89317 0.56012 0.0
H899 H 0.18313 0.83911 0.46102 0.0
H900 H 0.1606 0.84327 0.49628 0.0
H901 H 0.11418 0.91668 0.51302 0.0
H902 H 0.13656 0.94633 0.6154 0.0
H903 H 0.13984 0.93766 0.57879 0.0
C904 C 0.24144 0.28819 0.36997 0.0
C905 C 0.2209 0.30865 0.37637 0.0
C906 C 0.22498 0.27169 0.35608 0.0
C907 C 0.14515 0.26288 0.31876 0.0
H908 H 0.15502 0.19453 0.33415 0.0
C909 C 0.04944 0.18627 0.28376 0.0
C910 C 0.06661 0.16365 0.27978 0.0
C911 C 0.06974 0.20462 0.29422 0.0
C912 C 0.1524 0.21348 0.3294 0.0
H913 H 0.16789 0.32859 0.3732 0.0
H914 H 0.13886 0.2998 0.34883 0.0
H915 H 0.18879 0.22575 0.35383 0.0
H916 H 0.11803 0.14229 0.28416 0.0
H917 H 0.15402 0.17448 0.30164 0.0
H918 H 0.10847 0.25053 0.29438 0.0
C919 C 0.16781 0.29654 0.35426 0.0
C920 C 0.17182 0.23142 0.3407 0.0
C921 C 0.18432 0.31301 0.36819 0.0
C922 C 0.10436 0.15971 0.28657 0.0
C923 C 0.12476 0.17807 0.29688 0.0
C924 C 0.12578 0.24489 0.30738 0.0
C925 C 0.18758 0.27535 0.34843 0.0
C926 C 0.16832 0.25635 0.3356 0.0
C927 C 0.10768 0.20075 0.30094 0.0
C928 C 0.12901 0.21996 0.31263 0.0
H929 H 0.26966 0.28448 0.37627 0.0
H930 H 0.24119 0.25576 0.35168 0.0
H931 H 0.14214 0.28191 0.31431 0.0
H932 H 0.02033 0.18985 0.27872 0.0
H933 H 0.05544 0.2217 0.29734 0.0
C934 C 0.34212 0.19349 0.86631 0.0
C935 C 0.30723 0.1975 0.87634 0.0
C936 C 0.35687 0.21102 0.85259 0.0
C937 C 0.35339 0.27729 0.84303 0.0
H938 H 0.40863 0.262 0.79323 0.0
C939 C 0.41758 0.35325 0.79116 0.0
C940 C 0.45402 0.34919 0.78275 0.0
C941 C 0.39738 0.33429 0.80098 0.0
C942 C 0.39359 0.26655 0.80719 0.0
H943 H 0.25956 0.22216 0.87975 0.0
H944 H 0.28494 0.25279 0.85554 0.0
H945 H 0.37647 0.22921 0.81254 0.0
H946 H 0.49825 0.32215 0.77827 0.0
H947 H 0.46359 0.28917 0.796 0.0
H948 H 0.37109 0.31445 0.83805 0.0
C949 C 0.30118 0.23629 0.85832 0.0
C950 C 0.37508 0.24777 0.81822 0.0
C951 C 0.28646 0.21872 0.87199 0.0
C952 C 0.47017 0.32583 0.78461 0.0
C953 C 0.45008 0.30686 0.79455 0.0
C954 C 0.37198 0.29602 0.83207 0.0
C955 C 0.33703 0.23293 0.84883 0.0
C956 C 0.35492 0.25291 0.83633 0.0
C957 C 0.41342 0.31085 0.80288 0.0
C958 C 0.39253 0.2909 0.81408 0.0
H959 H 0.35873 0.17729 0.86972 0.0
H960 H 0.38469 0.20796 0.84571 0.0
H961 H 0.33877 0.28185 0.85712 0.0
H962 H 0.40473 0.37119 0.7903 0.0
H963 H 0.36909 0.33801 0.80701 0.0
C964 C 0.70035 0.22732 0.61391 0.0
C965 C 0.7096 0.20446 0.62229 0.0
C966 C 0.68471 0.24547 0.62623 0.0
C967 C 0.63149 0.25346 0.67474 0.0
H968 H 0.65593 0.32213 0.66552 0.0
C969 C 0.57482 0.32986 0.72705 0.0
C970 C 0.56086 0.35112 0.71743 0.0
C971 C 0.5941 0.31217 0.71579 0.0
C972 C 0.64855 0.30304 0.66814 0.0
H973 H 0.71065 0.18234 0.64992 0.0
H974 H 0.68388 0.21431 0.67182 0.0
H975 H 0.68935 0.29097 0.646 0.0
H976 H 0.55658 0.37056 0.68842 0.0
H977 H 0.59035 0.33954 0.66866 0.0
H978 H 0.59079 0.26559 0.69695 0.0
C979 C 0.68817 0.21821 0.65566 0.0
C980 C 0.66772 0.28515 0.65697 0.0
C981 C 0.70376 0.19998 0.64324 0.0
C982 C 0.56685 0.35434 0.69626 0.0
C983 C 0.58641 0.33666 0.68498 0.0
C984 C 0.61249 0.27134 0.68599 0.0
C985 C 0.67803 0.24112 0.64725 0.0
C986 C 0.65924 0.26012 0.66 0.0
C987 C 0.60015 0.31533 0.69463 0.0
C988 C 0.62062 0.29635 0.68274 0.0
H989 H 0.70436 0.23097 0.59768 0.0
H990 H 0.67674 0.26265 0.61911 0.0
H991 H 0.62367 0.23443 0.67724 0.0
H992 H 0.57073 0.32677 0.74335 0.0
H993 H 0.60469 0.29611 0.72374 0.0
C994 C 0.82106 0.3208 0.14673 0.0
C995 C 0.80595 0.31511 0.12736 0.0
C996 C 0.83618 0.30224 0.15925 0.0
C997 C 0.88081 0.24199 0.15475 0.0
H998 H 0.86334 0.23597 0.21331 0.0
C999 C 0.93722 0.15942 0.2006 0.0
C1000 C 0.95193 0.16362 0.22035 0.0
C1001 C 0.91778 0.17788 0.19001 0.0
C1002 C 0.86891 0.23757 0.19701 0.0
H1003 H 0.79362 0.28607 0.10586 0.0
H1004 H 0.81979 0.25363 0.12765 0.0
H1005 H 0.83169 0.26845 0.19379 0.0
H1006 H 0.95761 0.1903 0.24464 0.0
H1007 H 0.92437 0.22278 0.22601 0.0
H1008 H 0.91854 0.21161 0.15784 0.0
C1009 C 0.82028 0.27227 0.13323 0.0
C1010 C 0.85067 0.25615 0.18584 0.0
C1011 C 0.80504 0.29075 0.12084 0.0
C1012 C 0.94641 0.18655 0.22944 0.0
C1013 C 0.92719 0.20511 0.21879 0.0
C1014 C 0.89924 0.2236 0.1659 0.0
C1015 C 0.83674 0.27785 0.1524 0.0
C1016 C 0.8562 0.25842 0.16455 0.0
C1017 C 0.91282 0.20107 0.19886 0.0
C1018 C 0.89336 0.22099 0.18716 0.0
H1019 H 0.82229 0.3396 0.15189 0.0
H1020 H 0.84885 0.30711 0.17389 0.0
H1021 H 0.8863 0.24357 0.13843 0.0
H1022 H 0.9406 0.14179 0.19335 0.0
H1023 H 0.90643 0.17387 0.1749 0.0
C1024 C 0.78168 0.72465 0.63049 0.0
C1025 C 0.80053 0.70256 0.62703 0.0
C1026 C 0.79767 0.74205 0.64373 0.0
C1027 C 0.87058 0.75221 0.68447 0.0
H1028 H 0.87402 0.81811 0.66196 0.0
C1029 C 0.9678 0.82866 0.71856 0.0
C1030 C 0.95314 0.85249 0.71897 0.0
C1031 C 0.94769 0.80992 0.70848 0.0
C1032 C 0.87284 0.79993 0.66869 0.0
H1033 H 0.84988 0.68066 0.63485 0.0
H1034 H 0.878 0.71104 0.65821 0.0
H1035 H 0.84024 0.78593 0.64341 0.0
H1036 H 0.90665 0.8756 0.70874 0.0
H1037 H 0.87096 0.84292 0.69169 0.0
H1038 H 0.90327 0.76629 0.70978 0.0
C1039 C 0.85073 0.71492 0.6509 0.0
C1040 C 0.85344 0.78145 0.65802 0.0
C1041 C 0.83473 0.69755 0.63756 0.0
C1042 C 0.91836 0.85732 0.70887 0.0
C1043 C 0.89813 0.83861 0.69891 0.0
C1044 C 0.88984 0.77078 0.69525 0.0
C1045 C 0.83287 0.73765 0.65371 0.0
C1046 C 0.85217 0.75735 0.66572 0.0
C1047 C 0.91253 0.81465 0.69854 0.0
C1048 C 0.89137 0.79487 0.68743 0.0
H1049 H 0.75535 0.72887 0.62234 0.0
H1050 H 0.78295 0.75922 0.64578 0.0
H1051 H 0.86986 0.73387 0.69089 0.0
H1052 H 0.99457 0.82442 0.72625 0.0
H1053 H 0.95997 0.7918 0.70825 0.0
C1054 C 0.69608 0.81881 0.14503 0.0
C1055 C 0.7292 0.81105 0.13493 0.0
C1056 C 0.67744 0.80324 0.15908 0.0
C1057 C 0.68723 0.74453 0.1884 0.0
H1058 H 0.57673 0.7406 0.18087 0.0
C1059 C 0.59705 0.65984 0.21225 0.0
C1060 C 0.56156 0.66377 0.22178 0.0
C1061 C 0.61814 0.67947 0.20401 0.0
C1062 C 0.60748 0.74168 0.18341 0.0
H1063 H 0.76982 0.7817 0.13171 0.0
H1064 H 0.73738 0.75437 0.15607 0.0
H1065 H 0.61346 0.77263 0.16337 0.0
H1066 H 0.51984 0.69117 0.22989 0.0
H1067 H 0.55644 0.72554 0.21519 0.0
H1068 H 0.68115 0.71301 0.20797 0.0
C1069 C 0.72593 0.77251 0.15361 0.0
C1070 C 0.62859 0.76013 0.17342 0.0
C1071 C 0.74454 0.78811 0.13964 0.0
C1072 C 0.54704 0.68763 0.2225 0.0
C1073 C 0.56804 0.70728 0.21415 0.0
C1074 C 0.6661 0.72601 0.19832 0.0
C1075 C 0.69151 0.77959 0.16308 0.0
C1076 C 0.66882 0.76158 0.17553 0.0
C1077 C 0.60394 0.70343 0.20491 0.0
C1078 C 0.62606 0.72415 0.19566 0.0
H1079 H 0.68366 0.83642 0.1414 0.0
H1080 H 0.65135 0.80944 0.16632 0.0
H1081 H 0.71806 0.74533 0.19064 0.0
H1082 H 0.60857 0.64156 0.2112 0.0
H1083 H 0.64537 0.67583 0.19669 0.0
C1084 C 0.3046 0.78477 0.38448 0.0
C1085 C 0.30157 0.80898 0.37755 0.0
C1086 C 0.32044 0.76695 0.37191 0.0
C1087 C 0.38558 0.76059 0.3276 0.0
H1088 H 0.3507 0.69292 0.3299 0.0
C1089 C 0.44677 0.68536 0.27539 0.0
C1090 C 0.45537 0.66281 0.28476 0.0
C1091 C 0.427 0.70329 0.28611 0.0
C1092 C 0.36094 0.71171 0.32924 0.0
H1093 H 0.31163 0.83388 0.35215 0.0
H1094 H 0.33864 0.80254 0.3297 0.0
H1095 H 0.31562 0.72408 0.34855 0.0
H1096 H 0.45028 0.64139 0.31274 0.0
H1097 H 0.41541 0.67281 0.33157 0.0
H1098 H 0.43074 0.74814 0.30813 0.0
C1099 C 0.32935 0.79729 0.34497 0.0
C1100 C 0.34085 0.7296 0.33991 0.0
C1101 C 0.31359 0.81518 0.35767 0.0
C1102 C 0.44404 0.65862 0.30516 0.0
C1103 C 0.42387 0.67651 0.31585 0.0
C1104 C 0.40547 0.74272 0.31679 0.0
C1105 C 0.33353 0.773 0.35208 0.0
C1106 C 0.35314 0.75425 0.33943 0.0
C1107 C 0.41511 0.69903 0.30642 0.0
C1108 C 0.39359 0.71805 0.31765 0.0
H1109 H 0.29584 0.77976 0.39992 0.0
H1110 H 0.32373 0.74864 0.37809 0.0
H1111 H 0.39633 0.77927 0.32713 0.0
H1112 H 0.45536 0.68918 0.25971 0.0
H1113 H 0.42045 0.72037 0.27838 0.0
C1114 C 0.24074 0.71396 0.85248 0.0
C1115 C 0.24602 0.71665 0.87367 0.0
C1116 C 0.21476 0.72899 0.84192 0.0
C1117 C 0.17167 0.78979 0.84562 0.0
H1118 H 0.10065 0.76664 0.80395 0.0
C1119 C 0.06435 0.85521 0.80643 0.0
C1120 C 0.05788 0.85216 0.78532 0.0
C1121 C 0.08487 0.83772 0.81766 0.0
C1122 C 0.12063 0.77349 0.81538 0.0
H1123 H 0.22841 0.73633 0.90069 0.0
H1124 H 0.18307 0.76253 0.88237 0.0
H1125 H 0.14106 0.73742 0.8223 0.0
H1126 H 0.06669 0.82787 0.75959 0.0
H1127 H 0.1036 0.798 0.77888 0.0
H1128 H 0.15231 0.82585 0.83846 0.0
C1129 C 0.19886 0.74903 0.87381 0.0
C1130 C 0.1437 0.75669 0.82591 0.0
C1131 C 0.22453 0.73395 0.8843 0.0
C1132 C 0.07166 0.83099 0.77579 0.0
C1133 C 0.09244 0.81365 0.78694 0.0
C1134 C 0.14893 0.80659 0.83498 0.0
C1135 C 0.19418 0.74706 0.85244 0.0
C1136 C 0.16941 0.76467 0.84119 0.0
C1137 C 0.09958 0.81681 0.80802 0.0
C1138 C 0.12307 0.7987 0.8197 0.0
H1139 H 0.25744 0.70082 0.84402 0.0
H1140 H 0.21193 0.72714 0.82545 0.0
H1141 H 0.19167 0.79657 0.85707 0.0
H1142 H 0.05387 0.87123 0.81426 0.0
H1143 H 0.08912 0.84059 0.83394 0.0
loop_
_geom_bond_atom_site_label_1
_geom_bond_atom_site_label_2
_geom_bond_distance
_geom_bond_site_symmetry_2
_ccdc_geom_bond_type
H0 C3 0.929 . S
H1 C6 0.929 . S
H2 C8 0.930 . S
C3 H0 0.929 . S
C3 C4 1.398 . S
C3 C5 1.396 . S
C4 C3 1.398 . S
C4 C8 1.407 . S
C5 C3 1.396 . S
C5 C6 1.394 . S
C6 H1 0.929 . S
C6 C5 1.394 . S
C6 C7 1.382 . S
C7 C6 1.382 . S
C7 C8 1.392 . S
C7 N9 1.420 . S
C8 H2 0.930 . S
C8 C4 1.407 . S
C8 C7 1.392 . S
N9 C7 1.420 . S
N9 C10 1.244 . S
C10 N9 1.244 . S
H11 C14 0.929 . S
H12 C17 0.929 . S
H13 C19 0.930 . S
C14 H11 0.929 . S
C14 C15 1.398 . S
C14 C16 1.396 . S
C15 C14 1.398 . S
C15 C19 1.407 . S
C16 C14 1.396 . S
C16 C17 1.394 . S
C17 H12 0.929 . S
C17 C16 1.394 . S
C17 C18 1.382 . S
C18 C17 1.382 . S
C18 C19 1.392 . S
C18 N20 1.420 . S
C19 H13 0.930 . S
C19 C15 1.407 . S
C19 C18 1.392 . S
N20 C18 1.420 . S
N20 C21 1.244 . S
C21 N20 1.244 . S
H22 C25 0.929 . S
H23 C28 0.929 . S
H24 C30 0.930 . S
C25 H22 0.929 . S
C25 C26 1.398 . S
C25 C27 1.396 . S
C26 C25 1.398 . S
C26 C30 1.407 . S
C27 C25 1.396 . S
C27 C28 1.394 . S
C28 H23 0.929 . S
C28 C27 1.394 . S
C28 C29 1.382 . S
C29 C28 1.382 . S
C29 C30 1.392 . S
C29 N31 1.420 . S
C30 H24 0.930 . S
C30 C26 1.407 . S
C30 C29 1.392 . S
N31 C29 1.420 . S
N31 C32 1.244 . S
C32 N31 1.244 . S
H33 C36 0.929 . S
H34 C39 0.929 . S
H35 C41 0.930 . S
C36 H33 0.929 . S
C36 C37 1.398 . S
C36 C38 1.396 . S
C37 C36 1.398 . S
C37 C41 1.407 . S
C38 C36 1.396 . S
C38 C39 1.394 . S
C39 H34 0.929 . S
C39 C38 1.394 . S
C39 C40 1.382 . S
C40 C39 1.382 . S
C40 C41 1.392 . S
C40 N42 1.420 . S
C41 H35 0.930 . S
C41 C37 1.407 . S
C41 C40 1.392 . S
N42 C40 1.420 . S
N42 C43 1.244 . S
C43 N42 1.244 . S
H44 C47 0.929 . S
H45 C50 0.929 . S
H46 C52 0.930 . S
C47 H44 0.929 . S
C47 C48 1.398 . S
C47 C49 1.396 . S
C48 C47 1.398 . S
C48 C52 1.407 . S
C49 C47 1.396 . S
C49 C50 1.394 . S
C50 H45 0.929 . S
C50 C49 1.394 . S
C50 C51 1.382 . S
C51 C50 1.382 . S
C51 C52 1.392 . S
C51 N53 1.420 . S
C52 H46 0.930 . S
C52 C48 1.407 . S
C52 C51 1.392 . S
N53 C51 1.420 . S
N53 C54 1.244 . S
C54 N53 1.244 . S
H55 C58 0.929 . S
H56 C61 0.929 . S
H57 C63 0.930 . S
C58 H55 0.929 . S
C58 C59 1.398 . S
C58 C60 1.396 . S
C59 C58 1.398 . S
C59 C63 1.407 . S
C60 C58 1.396 . S
C60 C61 1.394 . S
C61 H56 0.929 . S
C61 C60 1.394 . S
C61 C62 1.382 . S
C62 C61 1.382 . S
C62 C63 1.392 . S
C62 N64 1.420 . S
C63 H57 0.930 . S
C63 C59 1.407 . S
C63 C62 1.392 . S
N64 C62 1.420 . S
N64 C65 1.244 . S
C65 N64 1.244 . S
H66 C69 0.929 . S
H67 C72 0.929 . S
H68 C74 0.930 . S
C69 H66 0.929 . S
C69 C70 1.398 . S
C69 C71 1.396 . S
C70 C69 1.398 . S
C70 C74 1.407 . S
C71 C69 1.396 . S
C71 C72 1.394 . S
C72 H67 0.929 . S
C72 C71 1.394 . S
C72 C73 1.382 . S
C73 C72 1.382 . S
C73 C74 1.392 . S
C73 N75 1.420 . S
C74 H68 0.930 . S
C74 C70 1.407 . S
C74 C73 1.392 . S
N75 C73 1.420 . S
N75 C76 1.244 . S
C76 N75 1.244 . S
H77 C80 0.929 . S
H78 C83 0.929 . S
H79 C85 0.930 . S
C80 H77 0.929 . S
C80 C81 1.398 . S
C80 C82 1.396 . S
C81 C80 1.398 . S
C81 C85 1.407 . S
C82 C80 1.396 . S
C82 C83 1.394 . S
C83 H78 0.929 . S
C83 C82 1.394 . S
C83 C84 1.382 . S
C84 C83 1.382 . S
C84 C85 1.392 . S
C84 N86 1.420 . S
C85 H79 0.930 . S
C85 C81 1.407 . S
C85 C84 1.392 . S
N86 C84 1.420 . S
N86 C87 1.244 . S
C87 N86 1.244 . S
Eu88 N117 2.600 . S
Eu88 N123 2.562 . S
Eu88 O132 2.462 . S
Eu88 O133 2.373 . S
Eu88 O135 2.432 . S
Eu88 O136 2.291 . S
Eu88 O140 2.335 . S
Eu88 O143 2.372 . S
Eu88 C152 2.787 . S
C89 N90 1.365 . S
C89 C92 1.405 . S
C89 C96 1.448 . S
N90 C89 1.365 . S
N90 C93 1.319 . S
N90 Eu99 2.600 . S
C91 C93 1.397 . S
C91 C94 1.367 . S
C91 H111 0.931 . S
C92 C89 1.405 . S
C92 C94 1.403 . S
C92 C98 1.439 . S
C93 N90 1.319 . S
C93 C91 1.397 . S
C93 H104 0.930 . S
C94 C91 1.367 . S
C94 C92 1.403 . S
C94 H115 0.929 . S
C95 C96 1.430 . S
C95 C97 1.387 . S
C95 C101 1.404 . S
C96 C89 1.448 . S
C96 C95 1.430 . S
C96 N100 1.351 . S
C97 C95 1.387 . S
C97 C98 1.374 . S
C97 H112 0.931 . S
C98 C92 1.439 . S
C98 C97 1.374 . S
C98 H113 0.931 . S
Eu99 N90 2.600 . S
Eu99 N100 2.562 . S
Eu99 O134 2.335 1_655 S
Eu99 O137 2.372 . S
Eu99 O138 2.462 . S
Eu99 O139 2.373 . S
Eu99 O141 2.432 . S
Eu99 O142 2.291 1_655 S
Eu99 C163 2.787 . S
N100 C96 1.351 . S
N100 Eu99 2.562 . S
N100 C102 1.325 . S
C101 C95 1.404 . S
C101 C103 1.366 . S
C101 H109 0.930 . S
C102 N100 1.325 . S
C102 C103 1.416 . S
C102 H108 0.929 . S
C103 C101 1.366 . S
C103 C102 1.416 . S
C103 H105 0.930 . S
H104 C93 0.930 . S
H105 C103 0.930 . S
H106 C121 0.930 . S
H107 C128 0.930 . S
H108 C102 0.929 . S
H109 C101 0.930 . S
H110 C124 0.929 . S
H111 C91 0.931 . S
H112 C97 0.931 . S
H113 C98 0.931 . S
H114 C119 0.931 . S
H115 C94 0.929 . S
H116 C127 0.930 . S
N117 Eu88 2.600 . S
N117 C118 1.365 . S
N117 C121 1.319 . S
C118 N117 1.365 . S
C118 C120 1.405 . S
C118 C126 1.448 . S
C119 H114 0.931 . S
C119 C121 1.397 . S
C119 C122 1.367 . S
C120 C118 1.405 . S
C120 C122 1.403 . S
C120 C153 1.439 . S
C121 H106 0.930 . S
C121 N117 1.319 . S
C121 C119 1.397 . S
C122 C119 1.367 . S
C122 C120 1.403 . S
C122 H129 0.929 . S
N123 Eu88 2.562 . S
N123 C124 1.325 . S
N123 C126 1.351 . S
C124 H110 0.929 . S
C124 N123 1.325 . S
C124 C128 1.416 . S
C125 C126 1.430 . S
C125 C127 1.404 . S
C125 C154 1.387 . S
C126 C118 1.448 . S
C126 N123 1.351 . S
C126 C125 1.430 . S
C127 H116 0.930 . S
C127 C125 1.404 . S
C127 C128 1.366 . S
C128 H107 0.930 . S
C128 C124 1.416 . S
C128 C127 1.366 . S
H129 C122 0.929 . S
H130 C153 0.931 . S
H131 C154 0.931 . S
O132 Eu88 2.462 . S
O132 C152 1.252 . S
O133 Eu88 2.373 . S
O133 C144 1.249 . S
O134 Eu99 2.335 1_455 S
O134 C144 1.264 . S
O135 Eu88 2.432 . S
O135 C152 1.268 . S
O136 Eu88 2.291 . S
O136 C151 1.255 1_455 S
O137 Eu99 2.372 . S
O137 C151 1.257 . S
O138 Eu99 2.462 . S
O138 C163 1.252 . S
O139 Eu99 2.373 . S
O139 C155 1.249 . S
O140 Eu88 2.335 . S
O140 C155 1.264 1_455 S
O141 Eu99 2.432 . S
O141 C163 1.268 . S
O142 Eu99 2.291 1_455 S
O142 C162 1.255 . S
O143 Eu88 2.372 . S
O143 C162 1.257 . S
C144 O133 1.249 . S
C144 O134 1.264 . S
C145 C148 1.382 . S
C145 C150 1.390 . S
C145 C152 1.506 . S
C146 C147 1.398 . S
C146 C150 1.392 . S
C147 C146 1.398 . S
C147 C149 1.372 . S
C147 H164 0.931 . S
C148 C145 1.382 . S
C148 C149 1.390 . S
C148 H165 0.931 . S
C149 C147 1.372 . S
C149 C148 1.390 . S
C149 H166 0.929 . S
C150 C145 1.390 . S
C150 C146 1.392 . S
C150 H167 0.930 . S
C151 O136 1.255 1_655 S
C151 O137 1.257 . S
C152 Eu88 2.787 . S
C152 O132 1.252 . S
C152 O135 1.268 . S
C152 C145 1.506 . S
C153 C120 1.439 . S
C153 H130 0.931 . S
C153 C154 1.374 . S
C154 C125 1.387 . S
C154 H131 0.931 . S
C154 C153 1.374 . S
C155 O139 1.249 . S
C155 O140 1.264 1_655 S
C156 C159 1.382 . S
C156 C160 1.390 . S
C156 C163 1.506 . S
C157 C158 1.398 . S
C157 C160 1.392 . S
C158 C157 1.398 . S
C158 C161 1.372 . S
C158 H168 0.931 . S
C159 C156 1.382 . S
C159 C161 1.390 . S
C159 H169 0.931 . S
C160 C156 1.390 . S
C160 C157 1.392 . S
C160 H170 0.930 . S
C161 C158 1.372 . S
C161 C159 1.390 . S
C161 H171 0.929 . S
C162 O142 1.255 . S
C162 O143 1.257 . S
C163 Eu99 2.787 . S
C163 O138 1.252 . S
C163 O141 1.268 . S
C163 C156 1.506 . S
H164 C147 0.931 . S
H165 C148 0.931 . S
H166 C149 0.929 . S
H167 C150 0.930 . S
H168 C158 0.931 . S
H169 C159 0.931 . S
H170 C160 0.930 . S
H171 C161 0.929 . S
Eu172 N201 2.600 . S
Eu172 N207 2.562 . S
Eu172 O216 2.462 . S
Eu172 O217 2.373 . S
Eu172 O219 2.432 . S
Eu172 O220 2.291 . S
Eu172 O224 2.335 . S
Eu172 O227 2.372 . S
Eu172 C236 2.787 . S
C173 N174 1.365 . S
C173 C176 1.405 . S
C173 C180 1.448 . S
N174 C173 1.365 . S
N174 C177 1.319 . S
N174 Eu183 2.600 . S
C175 C177 1.397 . S
C175 C178 1.367 . S
C175 H195 0.931 . S
C176 C173 1.405 . S
C176 C178 1.403 . S
C176 C182 1.439 . S
C177 N174 1.319 . S
C177 C175 1.397 . S
C177 H188 0.930 . S
C178 C175 1.367 . S
C178 C176 1.403 . S
C178 H199 0.929 . S
C179 C180 1.430 . S
C179 C181 1.387 . S
C179 C185 1.404 . S
C180 C173 1.448 . S
C180 C179 1.430 . S
C180 N184 1.351 . S
C181 C179 1.387 . S
C181 C182 1.374 . S
C181 H196 0.931 . S
C182 C176 1.439 . S
C182 C181 1.374 . S
C182 H197 0.931 . S
Eu183 N174 2.600 . S
Eu183 N184 2.562 . S
Eu183 O218 2.335 . S
Eu183 O221 2.372 . S
Eu183 O222 2.462 . S
Eu183 O223 2.373 . S
Eu183 O225 2.432 . S
Eu183 O226 2.291 . S
Eu183 C247 2.787 . S
N184 C180 1.351 . S
N184 Eu183 2.562 . S
N184 C186 1.325 . S
C185 C179 1.404 . S
C185 C187 1.366 . S
C185 H193 0.930 . S
C186 N184 1.325 . S
C186 C187 1.416 . S
C186 H192 0.929 . S
C187 C185 1.366 . S
C187 C186 1.416 . S
C187 H189 0.930 . S
H188 C177 0.930 . S
H189 C187 0.930 . S
H190 C205 0.930 . S
H191 C212 0.930 . S
H192 C186 0.929 . S
H193 C185 0.930 . S
H194 C208 0.929 . S
H195 C175 0.931 . S
H196 C181 0.931 . S
H197 C182 0.931 . S
H198 C203 0.931 . S
H199 C178 0.929 . S
H200 C211 0.930 . S
N201 Eu172 2.600 . S
N201 C202 1.365 . S
N201 C205 1.319 . S
C202 N201 1.365 . S
C202 C204 1.405 . S
C202 C210 1.448 . S
C203 H198 0.931 . S
C203 C205 1.397 . S
C203 C206 1.367 . S
C204 C202 1.405 . S
C204 C206 1.403 . S
C204 C237 1.439 . S
C205 H190 0.930 . S
C205 N201 1.319 . S
C205 C203 1.397 . S
C206 C203 1.367 . S
C206 C204 1.403 . S
C206 H213 0.929 . S
N207 Eu172 2.562 . S
N207 C208 1.325 . S
N207 C210 1.351 . S
C208 H194 0.929 . S
C208 N207 1.325 . S
C208 C212 1.416 . S
C209 C210 1.430 . S
C209 C211 1.404 . S
C209 C238 1.387 . S
C210 C202 1.448 . S
C210 N207 1.351 . S
C210 C209 1.430 . S
C211 H200 0.930 . S
C211 C209 1.404 . S
C211 C212 1.366 . S
C212 H191 0.930 . S
C212 C208 1.416 . S
C212 C211 1.366 . S
H213 C206 0.929 . S
H214 C237 0.931 . S
H215 C238 0.931 . S
O216 Eu172 2.462 . S
O216 C236 1.252 . S
O217 Eu172 2.373 . S
O217 C228 1.249 . S
O218 Eu183 2.335 . S
O218 C228 1.264 . S
O219 Eu172 2.432 . S
O219 C236 1.268 . S
O220 Eu172 2.291 . S
O220 C235 1.255 . S
O221 Eu183 2.372 . S
O221 C235 1.257 . S
O222 Eu183 2.462 . S
O222 C247 1.252 . S
O223 Eu183 2.373 . S
O223 C239 1.249 . S
O224 Eu172 2.335 . S
O224 C239 1.264 . S
O225 Eu183 2.432 . S
O225 C247 1.268 . S
O226 Eu183 2.291 . S
O226 C246 1.255 . S
O227 Eu172 2.372 . S
O227 C246 1.257 . S
C228 O217 1.249 . S
C228 O218 1.264 . S
C229 C232 1.382 . S
C229 C234 1.390 . S
C229 C236 1.506 . S
C230 C231 1.398 . S
C230 C234 1.392 . S
C231 C230 1.398 . S
C231 C233 1.372 . S
C231 H248 0.931 . S
C232 C229 1.382 . S
C232 C233 1.390 . S
C232 H249 0.931 . S
C233 C231 1.372 . S
C233 C232 1.390 . S
C233 H250 0.929 . S
C234 C229 1.390 . S
C234 C230 1.392 . S
C234 H251 0.930 . S
C235 O220 1.255 . S
C235 O221 1.257 . S
C236 Eu172 2.787 . S
C236 O216 1.252 . S
C236 O219 1.268 . S
C236 C229 1.506 . S
C237 C204 1.439 . S
C237 H214 0.931 . S
C237 C238 1.374 . S
C238 C209 1.387 . S
C238 H215 0.931 . S
C238 C237 1.374 . S
C239 O223 1.249 . S
C239 O224 1.264 . S
C240 C243 1.382 . S
C240 C244 1.390 . S
C240 C247 1.506 . S
C241 C242 1.398 . S
C241 C244 1.392 . S
C242 C241 1.398 . S
C242 C245 1.372 . S
C242 H252 0.931 . S
C243 C240 1.382 . S
C243 C245 1.390 . S
C243 H253 0.931 . S
C244 C240 1.390 . S
C244 C241 1.392 . S
C244 H254 0.930 . S
C245 C242 1.372 . S
C245 C243 1.390 . S
C245 H255 0.929 . S
C246 O226 1.255 . S
C246 O227 1.257 . S
C247 Eu183 2.787 . S
C247 O222 1.252 . S
C247 O225 1.268 . S
C247 C240 1.506 . S
H248 C231 0.931 . S
H249 C232 0.931 . S
H250 C233 0.929 . S
H251 C234 0.930 . S
H252 C242 0.931 . S
H253 C243 0.931 . S
H254 C244 0.930 . S
H255 C245 0.929 . S
Eu256 N285 2.600 . S
Eu256 N291 2.562 . S
Eu256 O300 2.462 . S
Eu256 O301 2.373 . S
Eu256 O303 2.432 . S
Eu256 O304 2.291 . S
Eu256 O308 2.335 . S
Eu256 O311 2.372 . S
Eu256 C320 2.787 . S
C257 N258 1.365 . S
C257 C260 1.405 . S
C257 C264 1.448 . S
N258 C257 1.365 . S
N258 C261 1.319 . S
N258 Eu267 2.600 . S
C259 C261 1.397 . S
C259 C262 1.367 . S
C259 H279 0.931 . S
C260 C257 1.405 . S
C260 C262 1.403 . S
C260 C266 1.439 . S
C261 N258 1.319 . S
C261 C259 1.397 . S
C261 H272 0.930 . S
C262 C259 1.367 . S
C262 C260 1.403 . S
C262 H283 0.929 . S
C263 C264 1.430 . S
C263 C265 1.387 . S
C263 C269 1.404 . S
C264 C257 1.448 . S
C264 C263 1.430 . S
C264 N268 1.351 . S
C265 C263 1.387 . S
C265 C266 1.374 . S
C265 H280 0.931 . S
C266 C260 1.439 . S
C266 C265 1.374 . S
C266 H281 0.931 . S
Eu267 N258 2.600 . S
Eu267 N268 2.562 . S
Eu267 O302 2.335 1_655 S
Eu267 O305 2.372 . S
Eu267 O306 2.462 . S
Eu267 O307 2.373 . S
Eu267 O309 2.432 . S
Eu267 O310 2.291 1_655 S
Eu267 C331 2.787 . S
N268 C264 1.351 . S
N268 Eu267 2.562 . S
N268 C270 1.325 . S
C269 C263 1.404 . S
C269 C271 1.366 . S
C269 H277 0.930 . S
C270 N268 1.325 . S
C270 C271 1.416 . S
C270 H276 0.929 . S
C271 C269 1.366 . S
C271 C270 1.416 . S
C271 H273 0.930 . S
H272 C261 0.930 . S
H273 C271 0.930 . S
H274 C289 0.930 . S
H275 C296 0.930 . S
H276 C270 0.929 . S
H277 C269 0.930 . S
H278 C292 0.929 . S
H279 C259 0.931 . S
H280 C265 0.931 . S
H281 C266 0.931 . S
H282 C287 0.931 . S
H283 C262 0.929 . S
H284 C295 0.930 . S
N285 Eu256 2.600 . S
N285 C286 1.365 . S
N285 C289 1.319 . S
C286 N285 1.365 . S
C286 C288 1.405 . S
C286 C294 1.448 . S
C287 H282 0.931 . S
C287 C289 1.397 . S
C287 C290 1.367 . S
C288 C286 1.405 . S
C288 C290 1.403 . S
C288 C321 1.439 . S
C289 H274 0.930 . S
C289 N285 1.319 . S
C289 C287 1.397 . S
C290 C287 1.367 . S
C290 C288 1.403 . S
C290 H297 0.929 . S
N291 Eu256 2.562 . S
N291 C292 1.325 . S
N291 C294 1.351 . S
C292 H278 0.929 . S
C292 N291 1.325 . S
C292 C296 1.416 . S
C293 C294 1.430 . S
C293 C295 1.404 . S
C293 C322 1.387 . S
C294 C286 1.448 . S
C294 N291 1.351 . S
C294 C293 1.430 . S
C295 H284 0.930 . S
C295 C293 1.404 . S
C295 C296 1.366 . S
C296 H275 0.930 . S
C296 C292 1.416 . S
C296 C295 1.366 . S
H297 C290 0.929 . S
H298 C321 0.931 . S
H299 C322 0.931 . S
O300 Eu256 2.462 . S
O300 C320 1.252 . S
O301 Eu256 2.373 . S
O301 C312 1.249 . S
O302 Eu267 2.335 1_455 S
O302 C312 1.264 . S
O303 Eu256 2.432 . S
O303 C320 1.268 . S
O304 Eu256 2.291 . S
O304 C319 1.255 1_455 S
O305 Eu267 2.372 . S
O305 C319 1.257 . S
O306 Eu267 2.462 . S
O306 C331 1.252 . S
O307 Eu267 2.373 . S
O307 C323 1.249 . S
O308 Eu256 2.335 . S
O308 C323 1.264 1_455 S
O309 Eu267 2.432 . S
O309 C331 1.268 . S
O310 Eu267 2.291 1_455 S
O310 C330 1.255 . S
O311 Eu256 2.372 . S
O311 C330 1.257 . S
C312 O301 1.249 . S
C312 O302 1.264 . S
C313 C316 1.382 . S
C313 C318 1.390 . S
C313 C320 1.506 . S
C314 C315 1.398 . S
C314 C318 1.392 . S
C315 C314 1.398 . S
C315 C317 1.372 . S
C315 H332 0.931 . S
C316 C313 1.382 . S
C316 C317 1.390 . S
C316 H333 0.931 . S
C317 C315 1.372 . S
C317 C316 1.390 . S
C317 H334 0.929 . S
C318 C313 1.390 . S
C318 C314 1.392 . S
C318 H335 0.930 . S
C319 O304 1.255 1_655 S
C319 O305 1.257 . S
C320 Eu256 2.787 . S
C320 O300 1.252 . S
C320 O303 1.268 . S
C320 C313 1.506 . S
C321 C288 1.439 . S
C321 H298 0.931 . S
C321 C322 1.374 . S
C322 C293 1.387 . S
C322 H299 0.931 . S
C322 C321 1.374 . S
C323 O307 1.249 . S
C323 O308 1.264 1_655 S
C324 C327 1.382 . S
C324 C328 1.390 . S
C324 C331 1.506 . S
C325 C326 1.398 . S
C325 C328 1.392 . S
C326 C325 1.398 . S
C326 C329 1.372 . S
C326 H336 0.931 . S
C327 C324 1.382 . S
C327 C329 1.390 . S
C327 H337 0.931 . S
C328 C324 1.390 . S
C328 C325 1.392 . S
C328 H338 0.930 . S
C329 C326 1.372 . S
C329 C327 1.390 . S
C329 H339 0.929 . S
C330 O310 1.255 . S
C330 O311 1.257 . S
C331 Eu267 2.787 . S
C331 O306 1.252 . S
C331 O309 1.268 . S
C331 C324 1.506 . S
H332 C315 0.931 . S
H333 C316 0.931 . S
H334 C317 0.929 . S
H335 C318 0.930 . S
H336 C326 0.931 . S
H337 C327 0.931 . S
H338 C328 0.930 . S
H339 C329 0.929 . S
Eu340 N369 2.600 . S
Eu340 N375 2.562 . S
Eu340 O384 2.462 . S
Eu340 O385 2.373 . S
Eu340 O387 2.432 . S
Eu340 O388 2.291 . S
Eu340 O392 2.335 . S
Eu340 O395 2.372 . S
Eu340 C404 2.787 . S
C341 N342 1.365 . S
C341 C344 1.405 . S
C341 C348 1.448 . S
N342 C341 1.365 . S
N342 C345 1.319 . S
N342 Eu351 2.600 . S
C343 C345 1.397 . S
C343 C346 1.367 . S
C343 H363 0.931 . S
C344 C341 1.405 . S
C344 C346 1.403 . S
C344 C350 1.439 . S
C345 N342 1.319 . S
C345 C343 1.397 . S
C345 H356 0.930 . S
C346 C343 1.367 . S
C346 C344 1.403 . S
C346 H367 0.929 . S
C347 C348 1.430 . S
C347 C349 1.387 . S
C347 C353 1.404 . S
C348 C341 1.448 . S
C348 C347 1.430 . S
C348 N352 1.351 . S
C349 C347 1.387 . S
C349 C350 1.374 . S
C349 H364 0.931 . S
C350 C344 1.439 . S
C350 C349 1.374 . S
C350 H365 0.931 . S
Eu351 N342 2.600 . S
Eu351 N352 2.562 . S
Eu351 O386 2.335 . S
Eu351 O389 2.372 . S
Eu351 O390 2.462 . S
Eu351 O391 2.373 . S
Eu351 O393 2.432 . S
Eu351 O394 2.291 . S
Eu351 C415 2.787 . S
N352 C348 1.351 . S
N352 Eu351 2.562 . S
N352 C354 1.325 . S
C353 C347 1.404 . S
C353 C355 1.366 . S
C353 H361 0.930 . S
C354 N352 1.325 . S
C354 C355 1.416 . S
C354 H360 0.929 . S
C355 C353 1.366 . S
C355 C354 1.416 . S
C355 H357 0.930 . S
H356 C345 0.930 . S
H357 C355 0.930 . S
H358 C373 0.930 . S
H359 C380 0.930 . S
H360 C354 0.929 . S
H361 C353 0.930 . S
H362 C376 0.929 . S
H363 C343 0.931 . S
H364 C349 0.931 . S
H365 C350 0.931 . S
H366 C371 0.931 . S
H367 C346 0.929 . S
H368 C379 0.930 . S
N369 Eu340 2.600 . S
N369 C370 1.365 . S
N369 C373 1.319 . S
C370 N369 1.365 . S
C370 C372 1.405 . S
C370 C378 1.448 . S
C371 H366 0.931 . S
C371 C373 1.397 . S
C371 C374 1.367 . S
C372 C370 1.405 . S
C372 C374 1.403 . S
C372 C405 1.439 . S
C373 H358 0.930 . S
C373 N369 1.319 . S
C373 C371 1.397 . S
C374 C371 1.367 . S
C374 C372 1.403 . S
C374 H381 0.929 . S
N375 Eu340 2.562 . S
N375 C376 1.325 . S
N375 C378 1.351 . S
C376 H362 0.929 . S
C376 N375 1.325 . S
C376 C380 1.416 . S
C377 C378 1.430 . S
C377 C379 1.404 . S
C377 C406 1.387 . S
C378 C370 1.448 . S
C378 N375 1.351 . S
C378 C377 1.430 . S
C379 H368 0.930 . S
C379 C377 1.404 . S
C379 C380 1.366 . S
C380 H359 0.930 . S
C380 C376 1.416 . S
C380 C379 1.366 . S
H381 C374 0.929 . S
H382 C405 0.931 . S
H383 C406 0.931 . S
O384 Eu340 2.462 . S
O384 C404 1.252 . S
O385 Eu340 2.373 . S
O385 C396 1.249 . S
O386 Eu351 2.335 . S
O386 C396 1.264 . S
O387 Eu340 2.432 . S
O387 C404 1.268 . S
O388 Eu340 2.291 . S
O388 C403 1.255 . S
O389 Eu351 2.372 . S
O389 C403 1.257 . S
O390 Eu351 2.462 . S
O390 C415 1.252 . S
O391 Eu351 2.373 . S
O391 C407 1.249 . S
O392 Eu340 2.335 . S
O392 C407 1.264 . S
O393 Eu351 2.432 . S
O393 C415 1.268 . S
O394 Eu351 2.291 . S
O394 C414 1.255 . S
O395 Eu340 2.372 . S
O395 C414 1.257 . S
C396 O385 1.249 . S
C396 O386 1.264 . S
C397 C400 1.382 . S
C397 C402 1.390 . S
C397 C404 1.506 . S
C398 C399 1.398 . S
C398 C402 1.392 . S
C399 C398 1.398 . S
C399 C401 1.372 . S
C399 H416 0.931 . S
C400 C397 1.382 . S
C400 C401 1.390 . S
C400 H417 0.931 . S
C401 C399 1.372 . S
C401 C400 1.390 . S
C401 H418 0.929 . S
C402 C397 1.390 . S
C402 C398 1.392 . S
C402 H419 0.930 . S
C403 O388 1.255 . S
C403 O389 1.257 . S
C404 Eu340 2.787 . S
C404 O384 1.252 . S
C404 O387 1.268 . S
C404 C397 1.506 . S
C405 C372 1.439 . S
C405 H382 0.931 . S
C405 C406 1.374 . S
C406 C377 1.387 . S
C406 H383 0.931 . S
C406 C405 1.374 . S
C407 O391 1.249 . S
C407 O392 1.264 . S
C408 C411 1.382 . S
C408 C412 1.390 . S
C408 C415 1.506 . S
C409 C410 1.398 . S
C409 C412 1.392 . S
C410 C409 1.398 . S
C410 C413 1.372 . S
C410 H420 0.931 . S
C411 C408 1.382 . S
C411 C413 1.390 . S
C411 H421 0.931 . S
C412 C408 1.390 . S
C412 C409 1.392 . S
C412 H422 0.930 . S
C413 C410 1.372 . S
C413 C411 1.390 . S
C413 H423 0.929 . S
C414 O394 1.255 . S
C414 O395 1.257 . S
C415 Eu351 2.787 . S
C415 O390 1.252 . S
C415 O393 1.268 . S
C415 C408 1.506 . S
H416 C399 0.931 . S
H417 C400 0.931 . S
H418 C401 0.929 . S
H419 C402 0.930 . S
H420 C410 0.931 . S
H421 C411 0.931 . S
H422 C412 0.930 . S
H423 C413 0.929 . S
C424 C425 1.349 . S
C424 C426 1.327 . S
C424 H449 0.950 . S
C425 C424 1.349 . S
C425 C441 1.349 . S
C426 C424 1.327 . S
C426 C445 1.429 . S
C426 H450 0.950 . S
C427 C444 1.574 1_565 S
C427 C446 1.368 . S
C427 H451 0.949 . S
H428 C432 0.949 . S
C429 C430 1.349 . S
C429 C431 1.327 . S
C429 H452 0.950 . S
C430 C429 1.349 . S
C430 C442 1.349 . S
C431 C429 1.327 . S
C431 C447 1.429 . S
C431 H453 0.950 . S
C432 H428 0.949 . S
C432 C440 1.574 . S
C432 C448 1.368 . S
H433 C441 0.950 . S
H434 C439 0.950 . S
H435 C440 0.949 . S
H436 C442 0.950 . S
H437 C443 0.950 1_565 S
H438 C444 0.949 . S
C439 H434 0.950 . S
C439 C441 1.327 . S
C439 C445 1.429 . S
C440 C432 1.574 . S
C440 H435 0.949 . S
C440 C446 1.368 . S
C441 C425 1.349 . S
C441 H433 0.950 . S
C441 C439 1.327 . S
C442 C430 1.349 . S
C442 H436 0.950 . S
C442 C443 1.327 . S
C443 H437 0.950 1_545 S
C443 C442 1.327 . S
C443 C447 1.429 . S
C444 C427 1.574 1_545 S
C444 H438 0.949 . S
C444 C448 1.368 1_545 S
C445 C426 1.429 . S
C445 C439 1.429 . S
C445 C446 1.523 . S
C446 C427 1.368 . S
C446 C440 1.368 . S
C446 C445 1.523 . S
C447 C431 1.429 . S
C447 C443 1.429 . S
C447 C448 1.523 1_545 S
C448 C432 1.368 . S
C448 C444 1.368 1_565 S
C448 C447 1.523 1_565 S
H449 C424 0.950 . S
H450 C426 0.950 . S
H451 C427 0.949 . S
H452 C429 0.950 . S
H453 C431 0.950 . S
C454 C455 1.349 . S
C454 C456 1.327 . S
C454 H479 0.950 . S
C455 C454 1.349 . S
C455 C471 1.349 . S
C456 C454 1.327 . S
C456 C475 1.429 . S
C456 H480 0.950 . S
C457 C474 1.574 . S
C457 C476 1.368 . S
C457 H481 0.949 . S
H458 C462 0.949 . S
C459 C460 1.349 . S
C459 C461 1.327 . S
C459 H482 0.950 . S
C460 C459 1.349 . S
C460 C472 1.349 . S
C461 C459 1.327 . S
C461 C477 1.429 . S
C461 H483 0.950 . S
C462 H458 0.949 . S
C462 C470 1.574 . S
C462 C478 1.368 . S
H463 C471 0.950 . S
H464 C469 0.950 . S
H465 C470 0.949 . S
H466 C472 0.950 . S
H467 C473 0.950 . S
H468 C474 0.949 . S
C469 H464 0.950 . S
C469 C471 1.327 . S
C469 C475 1.429 . S
C470 C462 1.574 . S
C470 H465 0.949 . S
C470 C476 1.368 . S
C471 C455 1.349 . S
C471 H463 0.950 . S
C471 C469 1.327 . S
C472 C460 1.349 . S
C472 H466 0.950 . S
C472 C473 1.327 . S
C473 H467 0.950 . S
C473 C472 1.327 . S
C473 C477 1.429 . S
C474 C457 1.574 . S
C474 H468 0.949 . S
C474 C478 1.368 . S
C475 C456 1.429 . S
C475 C469 1.429 . S
C475 C476 1.523 . S
C476 C457 1.368 . S
C476 C470 1.368 . S
C476 C475 1.523 . S
C477 C461 1.429 . S
C477 C473 1.429 . S
C477 C478 1.523 . S
C478 C462 1.368 . S
C478 C474 1.368 . S
C478 C477 1.523 . S
H479 C454 0.950 . S
H480 C456 0.950 . S
H481 C457 0.949 . S
H482 C459 0.950 . S
H483 C461 0.950 . S
C484 C485 1.349 . S
C484 C486 1.327 . S
C484 H509 0.950 . S
C485 C484 1.349 . S
C485 C501 1.349 . S
C486 C484 1.327 . S
C486 C505 1.429 . S
C486 H510 0.950 . S
C487 C504 1.574 . S
C487 C506 1.368 . S
C487 H511 0.949 . S
H488 C492 0.949 . S
C489 C490 1.349 . S
C489 C491 1.327 . S
C489 H512 0.950 . S
C490 C489 1.349 . S
C490 C502 1.349 . S
C491 C489 1.327 . S
C491 C507 1.429 . S
C491 H513 0.950 . S
C492 H488 0.949 . S
C492 C500 1.574 . S
C492 C508 1.368 . S
H493 C501 0.950 . S
H494 C499 0.950 . S
H495 C500 0.949 . S
H496 C502 0.950 . S
H497 C503 0.950 . S
H498 C504 0.949 . S
C499 H494 0.950 . S
C499 C501 1.327 . S
C499 C505 1.429 . S
C500 C492 1.574 . S
C500 H495 0.949 . S
C500 C506 1.368 . S
C501 C485 1.349 . S
C501 H493 0.950 . S
C501 C499 1.327 . S
C502 C490 1.349 . S
C502 H496 0.950 . S
C502 C503 1.327 . S
C503 H497 0.950 . S
C503 C502 1.327 . S
C503 C507 1.429 . S
C504 C487 1.574 . S
C504 H498 0.949 . S
C504 C508 1.368 . S
C505 C486 1.429 . S
C505 C499 1.429 . S
C505 C506 1.523 . S
C506 C487 1.368 . S
C506 C500 1.368 . S
C506 C505 1.523 . S
C507 C491 1.429 . S
C507 C503 1.429 . S
C507 C508 1.523 . S
C508 C492 1.368 . S
C508 C504 1.368 . S
C508 C507 1.523 . S
H509 C484 0.950 . S
H510 C486 0.950 . S
H511 C487 0.949 . S
H512 C489 0.950 . S
H513 C491 0.950 . S
C514 C515 1.349 . S
C514 C516 1.327 . S
C514 H539 0.950 . S
C515 C514 1.349 . S
C515 C531 1.349 . S
C516 C514 1.327 . S
C516 C535 1.429 . S
C516 H540 0.950 . S
C517 C534 1.574 1_565 S
C517 C536 1.368 . S
C517 H541 0.949 . S
H518 C522 0.949 . S
C519 C520 1.349 . S
C519 C521 1.327 . S
C519 H542 0.950 . S
C520 C519 1.349 . S
C520 C532 1.349 . S
C521 C519 1.327 . S
C521 C537 1.429 . S
C521 H543 0.950 . S
C522 H518 0.949 . S
C522 C530 1.574 . S
C522 C538 1.388 . S
H523 C531 0.950 . S
H524 C529 0.950 . S
H525 C530 0.949 . S
H526 C532 0.950 . S
H527 C533 0.950 . S
H528 C534 0.949 . S
C529 H524 0.950 . S
C529 C531 1.327 . S
C529 C535 1.429 . S
C530 C522 1.574 . S
C530 H525 0.949 . S
C530 C536 1.368 . S
C531 C515 1.349 . S
C531 H523 0.950 . S
C531 C529 1.327 . S
C532 C520 1.349 . S
C532 H526 0.950 . S
C532 C533 1.327 . S
C533 H527 0.950 . S
C533 C532 1.327 . S
C533 C537 1.429 . S
C534 C517 1.574 1_545 S
C534 H528 0.949 . S
C534 C538 1.365 1_545 S
C535 C516 1.429 . S
C535 C529 1.429 . S
C535 C536 1.523 . S
C536 C517 1.368 . S
C536 C530 1.368 . S
C536 C535 1.523 . S
C537 C521 1.429 . S
C537 C533 1.429 . S
C537 C538 1.502 1_545 S
C538 C522 1.388 . S
C538 C534 1.365 1_565 S
C538 C537 1.502 1_565 S
H539 C514 0.950 . S
H540 C516 0.950 . S
H541 C517 0.949 . S
H542 C519 0.950 . S
H543 C521 0.950 . S
C544 C545 1.349 . S
C544 C546 1.327 . S
C544 H569 0.950 . S
C545 C544 1.349 . S
C545 C561 1.349 . S
C546 C544 1.327 . S
C546 C565 1.429 . S
C546 H570 0.950 . S
C547 C564 1.574 . S
C547 C566 1.368 . S
C547 H571 0.949 . S
H548 C552 0.949 . S
C549 C550 1.349 . S
C549 C551 1.327 . S
C549 H572 0.950 . S
C550 C549 1.349 . S
C550 C562 1.349 . S
C551 C549 1.327 . S
C551 C567 1.429 . S
C551 H573 0.950 . S
C552 H548 0.949 . S
C552 C560 1.574 . S
C552 C568 1.368 . S
H553 C561 0.950 . S
H554 C559 0.950 . S
H555 C560 0.949 . S
H556 C562 0.950 . S
H557 C563 0.950 . S
H558 C564 0.949 . S
C559 H554 0.950 . S
C559 C561 1.327 . S
C559 C565 1.429 . S
C560 C552 1.574 . S
C560 H555 0.949 . S
C560 C566 1.368 . S
C561 C545 1.349 . S
C561 H553 0.950 . S
C561 C559 1.327 . S
C562 C550 1.349 . S
C562 H556 0.950 . S
C562 C563 1.327 . S
C563 H557 0.950 . S
C563 C562 1.327 . S
C563 C567 1.429 . S
C564 C547 1.574 . S
C564 H558 0.949 . S
C564 C568 1.368 . S
C565 C546 1.429 . S
C565 C559 1.429 . S
C565 C566 1.523 . S
C566 C547 1.368 . S
C566 C560 1.368 . S
C566 C565 1.523 . S
C567 C551 1.429 . S
C567 C563 1.429 . S
C567 C568 1.523 1_565 S
C568 C552 1.368 . S
C568 C564 1.368 . S
C568 C567 1.523 1_545 S
H569 C544 0.950 . S
H570 C546 0.950 . S
H571 C547 0.949 . S
H572 C549 0.950 . S
H573 C551 0.950 . S
C574 C575 1.349 . S
C574 C576 1.327 . S
C574 H599 0.950 . S
C575 C574 1.349 . S
C575 C591 1.349 . S
C576 C574 1.327 . S
C576 C595 1.429 . S
C576 H600 0.950 . S
C577 C594 1.574 . S
C577 C596 1.368 . S
C577 H601 0.949 . S
H578 C582 0.949 . S
C579 C580 1.349 . S
C579 C581 1.327 . S
C579 H602 0.950 . S
C580 C579 1.349 . S
C580 C592 1.349 . S
C581 C579 1.327 . S
C581 C597 1.429 . S
C581 H603 0.950 . S
C582 H578 0.949 . S
C582 C590 1.574 . S
C582 C598 1.368 . S
H583 C591 0.950 . S
H584 C589 0.950 . S
H585 C590 0.949 . S
H586 C592 0.950 . S
H587 C593 0.950 . S
H588 C594 0.949 . S
C589 H584 0.950 . S
C589 C591 1.327 . S
C589 C595 1.429 . S
C590 C582 1.574 . S
C590 H585 0.949 . S
C590 C596 1.368 . S
C591 C575 1.349 . S
C591 H583 0.950 . S
C591 C589 1.327 . S
C592 C580 1.349 . S
C592 H586 0.950 . S
C592 C593 1.327 . S
C593 H587 0.950 . S
C593 C592 1.327 . S
C593 C597 1.429 . S
C594 C577 1.574 . S
C594 H588 0.949 . S
C594 C598 1.368 . S
C595 C576 1.429 . S
C595 C589 1.429 . S
C595 C596 1.523 . S
C596 C577 1.368 . S
C596 C590 1.368 . S
C596 C595 1.523 . S
C597 C581 1.429 . S
C597 C593 1.429 . S
C597 C598 1.523 . S
C598 C582 1.368 . S
C598 C594 1.368 . S
C598 C597 1.523 . S
H599 C574 0.950 . S
H600 C576 0.950 . S
H601 C577 0.949 . S
H602 C579 0.950 . S
H603 C581 0.950 . S
C604 C605 1.349 . S
C604 C606 1.327 . S
C604 H629 0.950 . S
C605 C604 1.349 . S
C605 C621 1.349 . S
C606 C604 1.327 . S
C606 C625 1.429 . S
C606 H630 0.950 . S
C607 C624 1.574 . S
C607 C626 1.368 . S
C607 H631 0.949 . S
H608 C612 0.949 . S
C609 C610 1.349 . S
C609 C611 1.327 . S
C609 H632 0.950 . S
C610 C609 1.349 . S
C610 C622 1.349 . S
C611 C609 1.327 . S
C611 C627 1.429 . S
C611 H633 0.950 . S
C612 H608 0.949 . S
C612 C620 1.574 . S
C612 C628 1.368 . S
H613 C621 0.950 . S
H614 C619 0.950 . S
H615 C620 0.949 . S
H616 C622 0.950 . S
H617 C623 0.950 . S
H618 C624 0.949 . S
C619 H614 0.950 . S
C619 C621 1.327 . S
C619 C625 1.429 . S
C620 C612 1.574 . S
C620 H615 0.949 . S
C620 C626 1.368 . S
C621 C605 1.349 . S
C621 H613 0.950 . S
C621 C619 1.327 . S
C622 C610 1.349 . S
C622 H616 0.950 . S
C622 C623 1.327 . S
C623 H617 0.950 . S
C623 C622 1.327 . S
C623 C627 1.429 . S
C624 C607 1.574 . S
C624 H618 0.949 . S
C624 C628 1.368 . S
C625 C606 1.429 . S
C625 C619 1.429 . S
C625 C626 1.523 . S
C626 C607 1.368 . S
C626 C620 1.368 . S
C626 C625 1.523 . S
C627 C611 1.429 . S
C627 C623 1.429 . S
C627 C628 1.523 . S
C628 C612 1.368 . S
C628 C624 1.368 . S
C628 C627 1.523 . S
H629 C604 0.950 . S
H630 C606 0.950 . S
H631 C607 0.949 . S
H632 C609 0.950 . S
H633 C611 0.950 . S
C634 C635 1.349 . S
C634 C636 1.327 . S
C634 H659 0.950 . S
C635 C634 1.349 . S
C635 C651 1.349 . S
C636 C634 1.327 . S
C636 C655 1.429 . S
C636 H660 0.950 . S
C637 C654 1.574 . S
C637 C656 1.368 . S
C637 H661 0.949 . S
H638 C642 0.957 . S
C639 C640 1.349 . S
C639 C641 1.327 . S
C639 H662 0.950 . S
C640 C639 1.349 . S
C640 C652 1.349 . S
C641 C639 1.327 . S
C641 C657 1.429 . S
C641 H663 0.950 . S
C642 H638 0.957 . S
C642 C650 1.574 . S
C642 C658 1.368 . S
H643 C651 0.950 . S
H644 C649 0.950 . S
H645 C650 0.949 . S
H646 C652 0.950 . S
H647 C653 0.950 . S
H648 C654 0.949 . S
C649 H644 0.950 . S
C649 C651 1.327 . S
C649 C655 1.429 . S
C650 C642 1.574 . S
C650 H645 0.949 . S
C650 C656 1.368 . S
C651 C635 1.349 . S
C651 H643 0.950 . S
C651 C649 1.327 . S
C652 C640 1.349 . S
C652 H646 0.950 . S
C652 C653 1.327 . S
C653 H647 0.950 . S
C653 C652 1.327 . S
C653 C657 1.429 . S
C654 C637 1.574 . S
C654 H648 0.949 . S
C654 C658 1.368 . S
C655 C636 1.429 . S
C655 C649 1.429 . S
C655 C656 1.523 . S
C656 C637 1.368 . S
C656 C650 1.368 . S
C656 C655 1.523 . S
C657 C641 1.429 . S
C657 C653 1.429 . S
C657 C658 1.523 1_565 S
C658 C642 1.368 . S
C658 C654 1.368 . S
C658 C657 1.523 1_545 S
H659 C634 0.950 . S
H660 C636 0.950 . S
H661 C637 0.949 . S
H662 C639 0.950 . S
H663 C641 0.950 . S
C664 C665 1.349 . S
C664 C666 1.327 . S
C664 H689 0.950 . S
C665 C664 1.349 . S
C665 C681 1.349 . S
C666 C664 1.327 . S
C666 C685 1.429 . S
C666 H690 0.950 . S
C667 C684 1.574 . S
C667 C686 1.368 . S
C667 H691 0.949 . S
H668 C672 0.949 . S
C669 C670 1.349 . S
C669 C671 1.327 . S
C669 H692 0.950 . S
C670 C669 1.349 . S
C670 C682 1.349 . S
C671 C669 1.327 . S
C671 C687 1.429 . S
C671 H693 0.950 . S
C672 H668 0.949 . S
C672 C680 1.574 . S
C672 C688 1.368 . S
H673 C681 0.950 . S
H674 C679 0.950 . S
H675 C680 0.949 . S
H676 C682 0.950 . S
H677 C683 0.950 . S
H678 C684 0.949 . S
C679 H674 0.950 . S
C679 C681 1.327 . S
C679 C685 1.429 . S
C680 C672 1.574 . S
C680 H675 0.949 . S
C680 C686 1.368 . S
C681 C665 1.349 . S
C681 H673 0.950 . S
C681 C679 1.327 . S
C682 C670 1.349 . S
C682 H676 0.950 . S
C682 C683 1.327 . S
C683 H677 0.950 . S
C683 C682 1.327 . S
C683 C687 1.429 . S
C684 C667 1.574 . S
C684 H678 0.949 . S
C684 C688 1.368 . S
C685 C666 1.429 . S
C685 C679 1.429 . S
C685 C686 1.523 1_556 S
C686 C667 1.368 . S
C686 C680 1.368 . S
C686 C685 1.523 1_554 S
C687 C671 1.429 . S
C687 C683 1.429 . S
C687 C688 1.523 . S
C688 C672 1.368 . S
C688 C684 1.368 . S
C688 C687 1.523 . S
H689 C664 0.950 . S
H690 C666 0.950 . S
H691 C667 0.949 . S
H692 C669 0.950 . S
H693 C671 0.950 . S
C694 C695 1.349 . S
C694 C696 1.327 . S
C694 H719 0.950 . S
C695 C694 1.349 . S
C695 C711 1.349 . S
C696 C694 1.327 . S
C696 C715 1.429 . S
C696 H720 0.950 . S
C697 C714 1.574 . S
C697 C716 1.368 . S
C697 H721 0.949 . S
H698 C702 0.949 . S
C699 C700 1.349 . S
C699 C701 1.327 . S
C699 H722 0.950 . S
C700 C699 1.349 . S
C700 C712 1.349 . S
C701 C699 1.327 . S
C701 C717 1.429 . S
C701 H723 0.950 . S
C702 H698 0.949 . S
C702 C710 1.574 . S
C702 C718 1.368 . S
H703 C711 0.950 . S
H704 C709 0.950 . S
H705 C710 0.949 . S
H706 C712 0.950 . S
H707 C713 0.950 . S
H708 C714 0.949 . S
C709 H704 0.950 . S
C709 C711 1.327 . S
C709 C715 1.429 . S
C710 C702 1.574 . S
C710 H705 0.949 . S
C710 C716 1.368 . S
C711 C695 1.349 . S
C711 H703 0.950 . S
C711 C709 1.327 . S
C712 C700 1.349 . S
C712 H706 0.950 . S
C712 C713 1.327 . S
C713 H707 0.950 . S
C713 C712 1.327 . S
C713 C717 1.429 . S
C714 C697 1.574 . S
C714 H708 0.949 . S
C714 C718 1.368 . S
C715 C696 1.429 . S
C715 C709 1.429 . S
C715 C716 1.523 . S
C716 C697 1.368 . S
C716 C710 1.368 . S
C716 C715 1.523 . S
C717 C701 1.429 . S
C717 C713 1.429 . S
C717 C718 1.523 . S
C718 C702 1.368 . S
C718 C714 1.368 . S
C718 C717 1.523 . S
H719 C694 0.950 . S
H720 C696 0.950 . S
H721 C697 0.949 . S
H722 C699 0.950 . S
H723 C701 0.950 . S
C724 C725 1.349 . S
C724 C726 1.327 . S
C724 H749 0.950 . S
C725 C724 1.349 . S
C725 C741 1.349 . S
C726 C724 1.327 . S
C726 C745 1.429 . S
C726 H750 0.950 . S
C727 C744 1.574 . S
C727 C746 1.368 . S
C727 H751 0.949 . S
H728 C732 0.949 . S
C729 C730 1.349 . S
C729 C731 1.327 . S
C729 H752 0.950 . S
C730 C729 1.349 . S
C730 C742 1.349 . S
C731 C729 1.327 . S
C731 C747 1.429 . S
C731 H753 0.950 . S
C732 H728 0.949 . S
C732 C740 1.574 . S
C732 C748 1.368 . S
H733 C741 0.950 . S
H734 C739 0.950 . S
H735 C740 0.949 . S
H736 C742 0.950 . S
H737 C743 0.950 . S
H738 C744 0.949 . S
C739 H734 0.950 . S
C739 C741 1.327 . S
C739 C745 1.429 . S
C740 C732 1.574 . S
C740 H735 0.949 . S
C740 C746 1.368 . S
C741 C725 1.349 . S
C741 H733 0.950 . S
C741 C739 1.327 . S
C742 C730 1.349 . S
C742 H736 0.950 . S
C742 C743 1.327 . S
C743 H737 0.950 . S
C743 C742 1.327 . S
C743 C747 1.429 . S
C744 C727 1.574 . S
C744 H738 0.949 . S
C744 C748 1.368 . S
C745 C726 1.429 . S
C745 C739 1.429 . S
C745 C746 1.523 1_554 S
C746 C727 1.368 . S
C746 C740 1.368 . S
C746 C745 1.523 1_556 S
C747 C731 1.429 . S
C747 C743 1.429 . S
C747 C748 1.523 . S
C748 C732 1.368 . S
C748 C744 1.368 . S
C748 C747 1.523 . S
H749 C724 0.950 . S
H750 C726 0.950 . S
H751 C727 0.949 . S
H752 C729 0.950 . S
H753 C731 0.950 . S
C754 C755 1.349 . S
C754 C756 1.327 . S
C754 H779 0.950 . S
C755 C754 1.349 . S
C755 C771 1.349 . S
C756 C754 1.327 . S
C756 C775 1.429 . S
C756 H780 0.950 . S
C757 C774 1.574 . S
C757 C776 1.368 . S
C757 H781 0.949 . S
H758 C762 0.949 . S
C759 C760 1.349 . S
C759 C761 1.327 . S
C759 H782 0.950 . S
C760 C759 1.349 . S
C760 C772 1.349 . S
C761 C759 1.327 . S
C761 C777 1.429 . S
C761 H783 0.950 . S
C762 H758 0.949 . S
C762 C770 1.574 . S
C762 C778 1.368 . S
H763 C771 0.950 . S
H764 C769 0.950 . S
H765 C770 0.949 . S
H766 C772 0.950 . S
H767 C773 0.950 . S
H768 C774 0.949 . S
C769 H764 0.950 . S
C769 C771 1.327 . S
C769 C775 1.429 . S
C770 C762 1.574 . S
C770 H765 0.949 . S
C770 C776 1.368 . S
C771 C755 1.349 . S
C771 H763 0.950 . S
C771 C769 1.327 . S
C772 C760 1.349 . S
C772 H766 0.950 . S
C772 C773 1.327 . S
C773 H767 0.950 . S
C773 C772 1.327 . S
C773 C777 1.429 . S
C774 C757 1.574 . S
C774 H768 0.949 . S
C774 C778 1.368 . S
C775 C756 1.429 . S
C775 C769 1.429 . S
C775 C776 1.523 . S
C776 C757 1.368 . S
C776 C770 1.368 . S
C776 C775 1.523 . S
C777 C761 1.429 . S
C777 C773 1.429 . S
C777 C778 1.523 . S
C778 C762 1.368 . S
C778 C774 1.368 . S
C778 C777 1.523 . S
H779 C754 0.950 . S
H780 C756 0.950 . S
H781 C757 0.949 . S
H782 C759 0.950 . S
H783 C761 0.950 . S
C784 C785 1.349 . S
C784 C786 1.327 . S
C784 H809 0.950 . S
C785 C784 1.349 . S
C785 C801 1.349 . S
C786 C784 1.327 . S
C786 C805 1.429 . S
C786 H810 0.950 . S
C787 C804 1.574 . S
C787 C806 1.368 . S
C787 H811 0.949 . S
H788 C792 0.949 . S
C789 C790 1.349 . S
C789 C791 1.327 . S
C789 H812 0.950 . S
C790 C789 1.349 . S
C790 C802 1.349 . S
C791 C789 1.327 . S
C791 C807 1.429 . S
C791 H813 0.950 . S
C792 H788 0.949 . S
C792 C800 1.574 . S
C792 C808 1.368 . S
H793 C801 0.950 . S
H794 C799 0.950 . S
H795 C800 0.949 . S
H796 C802 0.950 . S
H797 C803 0.950 . S
H798 C804 0.949 . S
C799 H794 0.950 . S
C799 C801 1.327 . S
C799 C805 1.429 . S
C800 C792 1.574 . S
C800 H795 0.949 . S
C800 C806 1.368 . S
C801 C785 1.349 . S
C801 H793 0.950 . S
C801 C799 1.327 . S
C802 C790 1.349 . S
C802 H796 0.950 . S
C802 C803 1.327 . S
C803 H797 0.950 . S
C803 C802 1.327 . S
C803 C807 1.429 . S
C804 C787 1.574 . S
C804 H798 0.949 . S
C804 C808 1.368 . S
C805 C786 1.429 . S
C805 C799 1.429 . S
C805 C806 1.523 1_554 S
C806 C787 1.368 . S
C806 C800 1.368 . S
C806 C805 1.523 1_556 S
C807 C791 1.429 . S
C807 C803 1.429 . S
C807 C808 1.523 . S
C808 C792 1.368 . S
C808 C804 1.368 . S
C808 C807 1.523 . S
H809 C784 0.950 . S
H810 C786 0.950 . S
H811 C787 0.949 . S
H812 C789 0.950 . S
H813 C791 0.950 . S
C814 C815 1.349 . S
C814 C816 1.327 . S
C814 H839 0.950 . S
C815 C814 1.349 . S
C815 C831 1.349 . S
C816 C814 1.327 . S
C816 C835 1.429 . S
C816 H840 0.950 . S
C817 C834 1.574 . S
C817 C836 1.368 . S
C817 H841 0.949 . S
H818 C822 0.949 . S
C819 C820 1.349 . S
C819 C821 1.327 . S
C819 H842 0.950 . S
C820 C819 1.349 . S
C820 C832 1.349 . S
C821 C819 1.327 . S
C821 C837 1.429 . S
C821 H843 0.950 . S
C822 H818 0.949 . S
C822 C830 1.574 . S
C822 C838 1.368 . S
H823 C831 0.950 . S
H824 C829 0.950 . S
H825 C830 0.949 . S
H826 C832 0.950 . S
H827 C833 0.950 . S
H828 C834 0.949 . S
C829 H824 0.950 . S
C829 C831 1.327 . S
C829 C835 1.429 . S
C830 C822 1.574 . S
C830 H825 0.949 . S
C830 C836 1.368 . S
C831 C815 1.349 . S
C831 H823 0.950 . S
C831 C829 1.327 . S
C832 C820 1.349 . S
C832 H826 0.950 . S
C832 C833 1.327 . S
C833 H827 0.950 . S
C833 C832 1.327 . S
C833 C837 1.429 . S
C834 C817 1.574 . S
C834 H828 0.949 . S
C834 C838 1.368 . S
C835 C816 1.429 . S
C835 C829 1.429 . S
C835 C836 1.523 . S
C836 C817 1.368 . S
C836 C830 1.368 . S
C836 C835 1.523 . S
C837 C821 1.429 . S
C837 C833 1.429 . S
C837 C838 1.523 . S
C838 C822 1.368 . S
C838 C834 1.368 . S
C838 C837 1.523 . S
H839 C814 0.950 . S
H840 C816 0.950 . S
H841 C817 0.949 . S
H842 C819 0.950 . S
H843 C821 0.950 . S
C844 C845 1.349 . S
C844 C846 1.327 . S
C844 H869 0.950 . S
C845 C844 1.349 . S
C845 C861 1.349 . S
C846 C844 1.327 . S
C846 C865 1.429 . S
C846 H870 0.950 . S
C847 C864 1.574 . S
C847 C866 1.368 . S
C847 H871 0.987 . S
H848 C852 0.949 . S
C849 C850 1.349 . S
C849 C851 1.327 . S
C849 H872 0.950 . S
C850 C849 1.349 . S
C850 C862 1.349 . S
C851 C849 1.327 . S
C851 C867 1.429 . S
C851 H873 0.950 . S
C852 H848 0.949 . S
C852 C860 1.574 . S
C852 C868 1.368 . S
H853 C861 0.950 . S
H854 C859 0.950 . S
H855 C860 0.949 . S
H856 C862 0.950 . S
H857 C863 0.950 . S
H858 C864 0.949 . S
C859 H854 0.950 . S
C859 C861 1.327 . S
C859 C865 1.429 . S
C860 C852 1.574 . S
C860 H855 0.949 . S
C860 C866 1.368 . S
C861 C845 1.349 . S
C861 H853 0.950 . S
C861 C859 1.327 . S
C862 C850 1.349 . S
C862 H856 0.950 . S
C862 C863 1.327 . S
C863 H857 0.950 . S
C863 C862 1.327 . S
C863 C867 1.429 . S
C864 C847 1.574 . S
C864 H858 0.949 . S
C864 C868 1.368 . S
C865 C846 1.429 . S
C865 C859 1.429 . S
C865 C866 1.523 1_556 S
C866 C847 1.368 . S
C866 C860 1.368 . S
C866 C865 1.523 1_554 S
C867 C851 1.429 . S
C867 C863 1.429 . S
C867 C868 1.523 . S
C868 C852 1.368 . S
C868 C864 1.368 . S
C868 C867 1.523 . S
H869 C844 0.950 . S
H870 C846 0.950 . S
H871 C847 0.987 . S
H872 C849 0.950 . S
H873 C851 0.950 . S
C874 C875 1.349 . S
C874 C876 1.327 . S
C874 H899 0.950 . S
C875 C874 1.349 . S
C875 C891 1.349 . S
C876 C874 1.327 . S
C876 C895 1.429 . S
C876 H900 0.950 . S
C877 C894 1.574 . S
C877 C896 1.368 . S
C877 H901 0.949 . S
H878 C882 0.949 . S
C879 C880 1.349 . S
C879 C881 1.327 . S
C879 H902 0.950 . S
C880 C879 1.349 . S
C880 C892 1.349 . S
C881 C879 1.327 . S
C881 C897 1.429 . S
C881 H903 0.950 . S
C882 H878 0.949 . S
C882 C890 1.574 . S
C882 C898 1.368 . S
H883 C891 0.950 . S
H884 C889 0.950 . S
H885 C890 0.949 . S
H886 C892 0.950 . S
H887 C893 0.950 . S
H888 C894 0.949 . S
C889 H884 0.950 . S
C889 C891 1.327 . S
C889 C895 1.429 . S
C890 C882 1.574 . S
C890 H885 0.949 . S
C890 C896 1.368 . S
C891 C875 1.349 . S
C891 H883 0.950 . S
C891 C889 1.327 . S
C892 C880 1.349 . S
C892 H886 0.950 . S
C892 C893 1.327 . S
C893 H887 0.950 . S
C893 C892 1.327 . S
C893 C897 1.429 . S
C894 C877 1.574 . S
C894 H888 0.949 . S
C894 C898 1.368 . S
C895 C876 1.429 . S
C895 C889 1.429 . S
C895 C896 1.523 . S
C896 C877 1.368 . S
C896 C890 1.368 . S
C896 C895 1.523 . S
C897 C881 1.429 . S
C897 C893 1.429 . S
C897 C898 1.523 . S
C898 C882 1.368 . S
C898 C894 1.368 . S
C898 C897 1.523 . S
H899 C874 0.950 . S
H900 C876 0.950 . S
H901 C877 0.949 . S
H902 C879 0.950 . S
H903 C881 0.950 . S
C904 C905 1.349 . S
C904 C906 1.327 . S
C904 H929 0.950 . S
C905 C904 1.349 . S
C905 C921 1.349 . S
C906 C904 1.327 . S
C906 C925 1.429 . S
C906 H930 0.950 . S
C907 C924 1.574 . S
C907 C926 1.368 . S
C907 H931 0.949 . S
H908 C912 0.949 . S
C909 C910 1.349 . S
C909 C911 1.327 . S
C909 H932 0.950 . S
C910 C909 1.349 . S
C910 C922 1.349 . S
C911 C909 1.327 . S
C911 C927 1.429 . S
C911 H933 0.950 . S
C912 H908 0.949 . S
C912 C920 1.574 . S
C912 C928 1.368 . S
H913 C921 0.950 . S
H914 C919 0.950 . S
H915 C920 0.949 . S
H916 C922 0.950 . S
H917 C923 0.950 . S
H918 C924 0.949 . S
C919 H914 0.950 . S
C919 C921 1.327 . S
C919 C925 1.429 . S
C920 C912 1.574 . S
C920 H915 0.949 . S
C920 C926 1.368 . S
C921 C905 1.349 . S
C921 H913 0.950 . S
C921 C919 1.327 . S
C922 C910 1.349 . S
C922 H916 0.950 . S
C922 C923 1.327 . S
C923 H917 0.950 . S
C923 C922 1.327 . S
C923 C927 1.429 . S
C924 C907 1.574 . S
C924 H918 0.949 . S
C924 C928 1.368 . S
C925 C906 1.429 . S
C925 C919 1.429 . S
C925 C926 1.523 . S
C926 C907 1.368 . S
C926 C920 1.368 . S
C926 C925 1.523 . S
C927 C911 1.429 . S
C927 C923 1.429 . S
C927 C928 1.523 . S
C928 C912 1.368 . S
C928 C924 1.368 . S
C928 C927 1.523 . S
H929 C904 0.950 . S
H930 C906 0.950 . S
H931 C907 0.949 . S
H932 C909 0.950 . S
H933 C911 0.950 . S
C934 C935 1.349 . S
C934 C936 1.327 . S
C934 H959 0.950 . S
C935 C934 1.349 . S
C935 C951 1.349 . S
C936 C934 1.327 . S
C936 C955 1.429 . S
C936 H960 0.950 . S
C937 C954 1.574 . S
C937 C956 1.368 . S
C937 H961 0.949 . S
H938 C942 0.949 . S
C939 C940 1.349 . S
C939 C941 1.327 . S
C939 H962 0.950 . S
C940 C939 1.349 . S
C940 C952 1.349 . S
C941 C939 1.327 . S
C941 C957 1.429 . S
C941 H963 0.950 . S
C942 H938 0.949 . S
C942 C950 1.574 . S
C942 C958 1.368 . S
H943 C951 0.950 . S
H944 C949 0.950 . S
H945 C950 0.949 . S
H946 C952 0.950 . S
H947 C953 0.950 . S
H948 C954 0.949 . S
C949 H944 0.950 . S
C949 C951 1.327 . S
C949 C955 1.429 . S
C950 C942 1.574 . S
C950 H945 0.949 . S
C950 C956 1.368 . S
C951 C935 1.349 . S
C951 H943 0.950 . S
C951 C949 1.327 . S
C952 C940 1.349 . S
C952 H946 0.950 . S
C952 C953 1.327 . S
C953 H947 0.950 . S
C953 C952 1.327 . S
C953 C957 1.429 . S
C954 C937 1.574 . S
C954 H948 0.949 . S
C954 C958 1.368 . S
C955 C936 1.429 . S
C955 C949 1.429 . S
C955 C956 1.523 . S
C956 C937 1.368 . S
C956 C950 1.368 . S
C956 C955 1.523 . S
C957 C941 1.429 . S
C957 C953 1.429 . S
C957 C958 1.523 . S
C958 C942 1.368 . S
C958 C954 1.368 . S
C958 C957 1.523 . S
H959 C934 0.950 . S
H960 C936 0.950 . S
H961 C937 0.949 . S
H962 C939 0.950 . S
H963 C941 0.950 . S
C964 C965 1.349 . S
C964 C966 1.327 . S
C964 H989 0.950 . S
C965 C964 1.349 . S
C965 C981 1.349 . S
C966 C964 1.327 . S
C966 C985 1.429 . S
C966 H990 0.950 . S
C967 C984 1.574 . S
C967 C986 1.368 . S
C967 H991 0.949 . S
H968 C972 0.949 . S
C969 C970 1.349 . S
C969 C971 1.327 . S
C969 H992 0.950 . S
C970 C969 1.349 . S
C970 C982 1.349 . S
C971 C969 1.327 . S
C971 C987 1.429 . S
C971 H993 0.950 . S
C972 H968 0.949 . S
C972 C980 1.574 . S
C972 C988 1.368 . S
H973 C981 0.950 . S
H974 C979 0.950 . S
H975 C980 0.949 . S
H976 C982 0.950 . S
H977 C983 0.950 . S
H978 C984 0.949 . S
C979 H974 0.950 . S
C979 C981 1.327 . S
C979 C985 1.429 . S
C980 C972 1.574 . S
C980 H975 0.949 . S
C980 C986 1.368 . S
C981 C965 1.349 . S
C981 H973 0.950 . S
C981 C979 1.327 . S
C982 C970 1.349 . S
C982 H976 0.950 . S
C982 C983 1.327 . S
C983 H977 0.950 . S
C983 C982 1.327 . S
C983 C987 1.429 . S
C984 C967 1.574 . S
C984 H978 0.949 . S
C984 C988 1.368 . S
C985 C966 1.429 . S
C985 C979 1.429 . S
C985 C986 1.523 . S
C986 C967 1.368 . S
C986 C980 1.368 . S
C986 C985 1.523 . S
C987 C971 1.429 . S
C987 C983 1.429 . S
C987 C988 1.523 . S
C988 C972 1.368 . S
C988 C984 1.368 . S
C988 C987 1.523 . S
H989 C964 0.950 . S
H990 C966 0.950 . S
H991 C967 0.949 . S
H992 C969 0.950 . S
H993 C971 0.950 . S
C994 C995 1.349 . S
C994 C996 1.327 . S
C994 H1019 0.950 . S
C995 C994 1.349 . S
C995 C1011 1.349 . S
C996 C994 1.327 . S
C996 C1015 1.429 . S
C996 H1020 0.950 . S
C997 C1014 1.574 . S
C997 C1016 1.368 . S
C997 H1021 0.949 . S
H998 C1002 0.949 . S
C999 C1000 1.349 . S
C999 C1001 1.327 . S
C999 H1022 0.950 . S
C1000 C999 1.349 . S
C1000 C1012 1.349 . S
C1001 C999 1.327 . S
C1001 C1017 1.429 . S
C1001 H1023 0.950 . S
C1002 H998 0.949 . S
C1002 C1010 1.574 . S
C1002 C1018 1.368 . S
H1003 C1011 0.950 . S
H1004 C1009 0.950 . S
H1005 C1010 0.949 . S
H1006 C1012 0.950 . S
H1007 C1013 0.950 . S
H1008 C1014 0.949 . S
C1009 H1004 0.950 . S
C1009 C1011 1.327 . S
C1009 C1015 1.429 . S
C1010 C1002 1.574 . S
C1010 H1005 0.949 . S
C1010 C1016 1.368 . S
C1011 C995 1.349 . S
C1011 H1003 0.950 . S
C1011 C1009 1.327 . S
C1012 C1000 1.349 . S
C1012 H1006 0.950 . S
C1012 C1013 1.327 . S
C1013 H1007 0.950 . S
C1013 C1012 1.327 . S
C1013 C1017 1.429 . S
C1014 C997 1.574 . S
C1014 H1008 0.949 . S
C1014 C1018 1.368 . S
C1015 C996 1.429 . S
C1015 C1009 1.429 . S
C1015 C1016 1.523 . S
C1016 C997 1.368 . S
C1016 C1010 1.368 . S
C1016 C1015 1.523 . S
C1017 C1001 1.429 . S
C1017 C1013 1.429 . S
C1017 C1018 1.523 . S
C1018 C1002 1.368 . S
C1018 C1014 1.368 . S
C1018 C1017 1.523 . S
H1019 C994 0.950 . S
H1020 C996 0.950 . S
H1021 C997 0.949 . S
H1022 C999 0.950 . S
H1023 C1001 0.950 . S
C1024 C1025 1.349 . S
C1024 C1026 1.327 . S
C1024 H1049 0.950 . S
C1025 C1024 1.349 . S
C1025 C1041 1.349 . S
C1026 C1024 1.327 . S
C1026 C1045 1.429 . S
C1026 H1050 0.950 . S
C1027 C1044 1.574 . S
C1027 C1046 1.368 . S
C1027 H1051 0.949 . S
H1028 C1032 0.949 . S
C1029 C1030 1.349 . S
C1029 C1031 1.327 . S
C1029 H1052 0.950 . S
C1030 C1029 1.349 . S
C1030 C1042 1.349 . S
C1031 C1029 1.327 . S
C1031 C1047 1.429 . S
C1031 H1053 0.950 . S
C1032 H1028 0.949 . S
C1032 C1040 1.574 . S
C1032 C1048 1.368 . S
H1033 C1041 0.950 . S
H1034 C1039 0.950 . S
H1035 C1040 0.949 . S
H1036 C1042 0.950 . S
H1037 C1043 0.950 . S
H1038 C1044 0.949 . S
C1039 H1034 0.950 . S
C1039 C1041 1.327 . S
C1039 C1045 1.429 . S
C1040 C1032 1.574 . S
C1040 H1035 0.949 . S
C1040 C1046 1.368 . S
C1041 C1025 1.349 . S
C1041 H1033 0.950 . S
C1041 C1039 1.327 . S
C1042 C1030 1.349 . S
C1042 H1036 0.950 . S
C1042 C1043 1.327 . S
C1043 H1037 0.950 . S
C1043 C1042 1.327 . S
C1043 C1047 1.429 . S
C1044 C1027 1.574 . S
C1044 H1038 0.949 . S
C1044 C1048 1.368 . S
C1045 C1026 1.429 . S
C1045 C1039 1.429 . S
C1045 C1046 1.523 . S
C1046 C1027 1.368 . S
C1046 C1040 1.368 . S
C1046 C1045 1.523 . S
C1047 C1031 1.429 . S
C1047 C1043 1.429 . S
C1047 C1048 1.523 . S
C1048 C1032 1.368 . S
C1048 C1044 1.368 . S
C1048 C1047 1.523 . S
H1049 C1024 0.950 . S
H1050 C1026 0.950 . S
H1051 C1027 0.949 . S
H1052 C1029 0.950 . S
H1053 C1031 0.950 . S
C1054 C1055 1.349 . S
C1054 C1056 1.327 . S
C1054 H1079 0.950 . S
C1055 C1054 1.349 . S
C1055 C1071 1.349 . S
C1056 C1054 1.327 . S
C1056 C1075 1.429 . S
C1056 H1080 0.950 . S
C1057 C1074 1.574 . S
C1057 C1076 1.368 . S
C1057 H1081 0.949 . S
H1058 C1062 0.949 . S
C1059 C1060 1.349 . S
C1059 C1061 1.327 . S
C1059 H1082 0.950 . S
C1060 C1059 1.349 . S
C1060 C1072 1.349 . S
C1061 C1059 1.327 . S
C1061 C1077 1.429 . S
C1061 H1083 0.950 . S
C1062 H1058 0.949 . S
C1062 C1070 1.574 . S
C1062 C1078 1.368 . S
H1063 C1071 0.950 . S
H1064 C1069 0.950 . S
H1065 C1070 0.949 . S
H1066 C1072 0.950 . S
H1067 C1073 0.950 . S
H1068 C1074 0.949 . S
C1069 H1064 0.950 . S
C1069 C1071 1.327 . S
C1069 C1075 1.429 . S
C1070 C1062 1.574 . S
C1070 H1065 0.949 . S
C1070 C1076 1.368 . S
C1071 C1055 1.349 . S
C1071 H1063 0.950 . S
C1071 C1069 1.327 . S
C1072 C1060 1.349 . S
C1072 H1066 0.950 . S
C1072 C1073 1.327 . S
C1073 H1067 0.950 . S
C1073 C1072 1.327 . S
C1073 C1077 1.429 . S
C1074 C1057 1.574 . S
C1074 H1068 0.949 . S
C1074 C1078 1.368 . S
C1075 C1056 1.429 . S
C1075 C1069 1.429 . S
C1075 C1076 1.523 . S
C1076 C1057 1.368 . S
C1076 C1070 1.368 . S
C1076 C1075 1.523 . S
C1077 C1061 1.429 . S
C1077 C1073 1.429 . S
C1077 C1078 1.523 . S
C1078 C1062 1.368 . S
C1078 C1074 1.368 . S
C1078 C1077 1.523 . S
H1079 C1054 0.950 . S
H1080 C1056 0.950 . S
H1081 C1057 0.949 . S
H1082 C1059 0.950 . S
H1083 C1061 0.950 . S
C1084 C1085 1.349 . S
C1084 C1086 1.327 . S
C1084 H1109 0.950 . S
C1085 C1084 1.349 . S
C1085 C1101 1.349 . S
C1086 C1084 1.327 . S
C1086 C1105 1.429 . S
C1086 H1110 0.950 . S
C1087 C1104 1.574 . S
C1087 C1106 1.368 . S
C1087 H1111 0.949 . S
H1088 C1092 0.949 . S
C1089 C1090 1.349 . S
C1089 C1091 1.327 . S
C1089 H1112 0.950 . S
C1090 C1089 1.349 . S
C1090 C1102 1.349 . S
C1091 C1089 1.327 . S
C1091 C1107 1.429 . S
C1091 H1113 0.950 . S
C1092 H1088 0.949 . S
C1092 C1100 1.574 . S
C1092 C1108 1.368 . S
H1093 C1101 0.950 . S
H1094 C1099 0.950 . S
H1095 C1100 0.949 . S
H1096 C1102 0.950 . S
H1097 C1103 0.950 . S
H1098 C1104 0.949 . S
C1099 H1094 0.950 . S
C1099 C1101 1.327 . S
C1099 C1105 1.429 . S
C1100 C1092 1.574 . S
C1100 H1095 0.949 . S
C1100 C1106 1.368 . S
C1101 C1085 1.349 . S
C1101 H1093 0.950 . S
C1101 C1099 1.327 . S
C1102 C1090 1.349 . S
C1102 H1096 0.950 . S
C1102 C1103 1.327 . S
C1103 H1097 0.950 . S
C1103 C1102 1.327 . S
C1103 C1107 1.429 . S
C1104 C1087 1.574 . S
C1104 H1098 0.949 . S
C1104 C1108 1.368 . S
C1105 C1086 1.429 . S
C1105 C1099 1.429 . S
C1105 C1106 1.523 . S
C1106 C1087 1.368 . S
C1106 C1100 1.368 . S
C1106 C1105 1.523 . S
C1107 C1091 1.429 . S
C1107 C1103 1.429 . S
C1107 C1108 1.523 . S
C1108 C1092 1.368 . S
C1108 C1104 1.368 . S
C1108 C1107 1.523 . S
H1109 C1084 0.950 . S
H1110 C1086 0.950 . S
H1111 C1087 0.949 . S
H1112 C1089 0.950 . S
H1113 C1091 0.950 . S
C1114 C1115 1.349 . S
C1114 C1116 1.327 . S
C1114 H1139 0.950 . S
C1115 C1114 1.349 . S
C1115 C1131 1.349 . S
C1116 C1114 1.327 . S
C1116 C1135 1.429 . S
C1116 H1140 0.950 . S
C1117 C1134 1.574 . S
C1117 C1136 1.368 . S
C1117 H1141 0.949 . S
H1118 C1122 0.949 . S
C1119 C1120 1.349 . S
C1119 C1121 1.327 . S
C1119 H1142 0.950 . S
C1120 C1119 1.349 . S
C1120 C1132 1.349 . S
C1121 C1119 1.327 . S
C1121 C1137 1.429 . S
C1121 H1143 0.950 . S
C1122 H1118 0.949 . S
C1122 C1130 1.574 . S
C1122 C1138 1.368 . S
H1123 C1131 0.950 . S
H1124 C1129 0.950 . S
H1125 C1130 0.949 . S
H1126 C1132 0.950 . S
H1127 C1133 0.950 . S
H1128 C1134 0.949 . S
C1129 H1124 0.950 . S
C1129 C1131 1.327 . S
C1129 C1135 1.429 . S
C1130 C1122 1.574 . S
C1130 H1125 0.949 . S
C1130 C1136 1.368 . S
C1131 C1115 1.349 . S
C1131 H1123 0.950 . S
C1131 C1129 1.327 . S
C1132 C1120 1.349 . S
C1132 H1126 0.950 . S
C1132 C1133 1.327 . S
C1133 H1127 0.950 . S
C1133 C1132 1.327 . S
C1133 C1137 1.429 . S
C1134 C1117 1.574 . S
C1134 H1128 0.949 . S
C1134 C1138 1.368 . S
C1135 C1116 1.429 . S
C1135 C1129 1.429 . S
C1135 C1136 1.523 . S
C1136 C1117 1.368 . S
C1136 C1130 1.368 . S
C1136 C1135 1.523 . S
C1137 C1121 1.429 . S
C1137 C1133 1.429 . S
C1137 C1138 1.523 . S
C1138 C1122 1.368 . S
C1138 C1134 1.368 . S
C1138 C1137 1.523 . S
H1139 C1114 0.950 . S
H1140 C1116 0.950 . S
H1141 C1117 0.949 . S
H1142 C1119 0.950 . S
H1143 C1121 0.950 . S
C425 C71 1.681 . S
C430 C162 1.662 . S
C460 C246 1.632 . S
C455 C81 1.647 . S
C490 C239 1.671 . S
C485 C49 1.671 . S
C515 C59 1.640 . S
C520 C155 1.640 . S
C550 C319 1.664 . S
C545 C27 1.678 . S
C580 C403 1.707 . S
C575 C38 1.722 . S
C605 C5 1.669 . S
C610 C396 1.671 . S
C635 C16 1.715 . S
C640 C312 1.719 . S
C670 C146 1.419 . S
C665 C15 1.574 . S
C700 C230 1.433 . S
C695 C4 1.587 . S
C730 C241 1.390 . S
C725 C37 1.585 . S
C760 C157 1.398 . S
C755 C26 1.597 . S
C790 C325 1.485 . S
C785 C60 1.629 . S
C815 C48 1.663 . S
C820 C409 1.502 . S
C850 C398 1.446 . S
C845 C82 1.640 . S
C875 C70 1.673 . S
C880 C314 1.461 . S
C910 C144 1.511 . S
C905 C10 1.503 . S
C940 C228 1.569 . S
C935 C21 1.561 . S
C965 C32 1.498 . S
C970 C235 1.482 . S
C1000 C151 1.538 . S
C995 C43 1.557 . S
C1030 C323 1.621 . S
C1025 C54 1.608 . S
C1055 C65 1.562 . S
C1060 C407 1.560 . S
C1085 C76 1.607 . S
C1090 C414 1.597 . S
C1115 C87 1.558 . S
C1120 C330 1.532 . S
