# Generated by pormake.
# Topology zzz, (3,6)-cn, num edge types: 1
# Building blocks:
#     Node 0, Type 0, BuildingBlock: MIDCAF_clean_linker_0, # of connection points: 3
#     Node 1, Type 0, BuildingBlock: MIDCAF_clean_linker_0, # of connection points: 3
#     Node 2, Type 0, BuildingBlock: MIDCAF_clean_linker_0, # of connection points: 3
#     Node 3, Type 0, BuildingBlock: MIDCAF_clean_linker_0, # of connection points: 3
#     Node 4, Type 0, BuildingBlock: MIDCAF_clean_linker_0, # of connection points: 3
#     Node 5, Type 0, BuildingBlock: MIDCAF_clean_linker_0, # of connection points: 3
#     Node 6, Type 0, BuildingBlock: MIDCAF_clean_linker_0, # of connection points: 3
#     Node 7, Type 0, BuildingBlock: MIDCAF_clean_linker_0, # of connection points: 3
#     Node 8, Type 1, BuildingBlock: KUMBOL_clean_sbu_0, # of connection points: 6
#     Node 9, Type 1, BuildingBlock: KUMBOL_clean_sbu_0, # of connection points: 6
#     Node 10, Type 1, BuildingBlock: KUMBOL_clean_sbu_0, # of connection points: 6
#     Node 11, Type 1, BuildingBlock: KUMBOL_clean_sbu_0, # of connection points: 6
#     Edge 12, Type (0, 1), BuildingBlock: XIVTED_clean_linker_0, # of connection points: 2
#     Edge 13, Type (0, 1), BuildingBlock: XIVTED_clean_linker_0, # of connection points: 2
#     Edge 14, Type (0, 1), BuildingBlock: XIVTED_clean_linker_0, # of connection points: 2
#     Edge 15, Type (0, 1), BuildingBlock: XIVTED_clean_linker_0, # of connection points: 2
#     Edge 16, Type (0, 1), BuildingBlock: XIVTED_clean_linker_0, # of connection points: 2
#     Edge 17, Type (0, 1), BuildingBlock: XIVTED_clean_linker_0, # of connection points: 2
#     Edge 18, Type (0, 1), BuildingBlock: XIVTED_clean_linker_0, # of connection points: 2
#     Edge 19, Type (0, 1), BuildingBlock: XIVTED_clean_linker_0, # of connection points: 2
#     Edge 20, Type (0, 1), BuildingBlock: XIVTED_clean_linker_0, # of connection points: 2
#     Edge 21, Type (0, 1), BuildingBlock: XIVTED_clean_linker_0, # of connection points: 2
#     Edge 22, Type (0, 1), BuildingBlock: XIVTED_clean_linker_0, # of connection points: 2
#     Edge 23, Type (0, 1), BuildingBlock: XIVTED_clean_linker_0, # of connection points: 2
#     Edge 24, Type (0, 1), BuildingBlock: XIVTED_clean_linker_0, # of connection points: 2
#     Edge 25, Type (0, 1), BuildingBlock: XIVTED_clean_linker_0, # of connection points: 2
#     Edge 26, Type (0, 1), BuildingBlock: XIVTED_clean_linker_0, # of connection points: 2
#     Edge 27, Type (0, 1), BuildingBlock: XIVTED_clean_linker_0, # of connection points: 2
#     Edge 28, Type (0, 1), BuildingBlock: XIVTED_clean_linker_0, # of connection points: 2
#     Edge 29, Type (0, 1), BuildingBlock: XIVTED_clean_linker_0, # of connection points: 2
#     Edge 30, Type (0, 1), BuildingBlock: XIVTED_clean_linker_0, # of connection points: 2
#     Edge 31, Type (0, 1), BuildingBlock: XIVTED_clean_linker_0, # of connection points: 2
#     Edge 32, Type (0, 1), BuildingBlock: XIVTED_clean_linker_0, # of connection points: 2
#     Edge 33, Type (0, 1), BuildingBlock: XIVTED_clean_linker_0, # of connection points: 2
#     Edge 34, Type (0, 1), BuildingBlock: XIVTED_clean_linker_0, # of connection points: 2
#     Edge 35, Type (0, 1), BuildingBlock: XIVTED_clean_linker_0, # of connection points: 2
# Relax obj value: 0.299
# Max RMSD: 0.227
# Mean RMSD: 0.213
data_MOF--net-zzz--node1-KUMBOL_clean_sbu_0--node2-MIDCAF_clean_linker_0--edge1-XIVTED_clean_linker_0
_symmetry_space_group_name_H-M    P1
_symmetry_Int_Tables_number       1
_symmetry_cell_setting            triclinic
loop_
_symmetry_equiv_pos_as_xyz
'x, y, z'
_cell_length_a     57.296585
_cell_length_b     57.163371
_cell_length_c     20.05056
_cell_angle_alpha  90.603589
_cell_angle_beta   90.191832
_cell_angle_gamma 90.014058
loop_
_atom_site_label
_atom_site_type_symbol
_atom_site_fract_x
_atom_site_fract_y
_atom_site_fract_z
_atom_type_partial_charge
C0 C 0.79704 0.55233 0.34607 0.0
C1 C 0.8118 0.53282 0.33649 0.0
C2 C 0.8072 0.51799 0.28124 0.0
C3 C 0.78967 0.52349 0.23465 0.0
H4 H 0.69728 0.53501 0.15558 0.0
H5 H 0.65891 0.52805 0.10335 0.0
H6 H 0.68336 0.56021 0.92268 0.0
H7 H 0.72075 0.5674 0.97392 0.0
H8 H 0.76469 0.59426 0.96116 0.0
H9 H 0.79489 0.60806 0.88586 0.0
H10 H 0.84474 0.60726 0.04824 0.0
H11 H 0.81465 0.59442 0.12324 0.0
H12 H 0.77007 0.57408 0.30522 0.0
H13 H 0.79951 0.56397 0.38844 0.0
H14 H 0.81817 0.50297 0.27113 0.0
H15 H 0.78801 0.51283 0.18989 0.0
N16 N 0.74357 0.54834 0.15843 0.0
N17 N 0.74967 0.57283 0.06629 0.0
N18 N 0.77869 0.5694 0.14727 0.0
C19 C 0.73558 0.55789 0.10001 0.0
C20 C 0.77112 0.57873 0.08941 0.0
C21 C 0.76528 0.55437 0.18218 0.0
C22 C 0.71226 0.55203 0.06972 0.0
C23 C 0.69441 0.54053 0.10472 0.0
C24 C 0.6724 0.53652 0.07462 0.0
C25 C 0.66772 0.54393 0.00886 0.0
C26 C 0.68583 0.55484 0.97385 0.0
C27 C 0.70756 0.55884 1.00358 0.0
C28 C 0.78742 0.59246 0.04784 0.0
C29 C 0.78194 0.5977 0.98119 0.0
C30 C 0.7993 0.60557 0.93786 0.0
C31 C 0.82246 0.60824 0.96027 0.0
C32 C 0.82718 0.60552 0.02869 0.0
C33 C 0.80987 0.59779 0.07191 0.0
C34 C 0.77619 0.54388 0.24203 0.0
C35 C 0.7797 0.55789 0.29914 0.0
C36 C 0.9869 0.8046 0.33202 0.0
C37 C 0.99875 0.82436 0.30713 0.0
C38 C 0.0056 0.82366 0.23955 0.0
C39 C 0.99968 0.80467 0.19783 0.0
H40 H 0.99487 0.70191 0.14311 0.0
H41 H 1.00321 0.66488 0.08387 0.0
H42 H 0.97259 0.69301 0.90471 0.0
H43 H 0.96398 0.72911 0.96334 0.0
H44 H 0.93002 0.76767 0.96566 0.0
H45 H 0.91147 0.79799 0.90261 0.0
H46 H 0.89199 0.83344 0.08611 0.0
H47 H 0.91243 0.80355 0.14916 0.0
H48 H 0.97003 0.77176 0.30938 0.0
H49 H 0.98164 0.80395 0.38374 0.0
H50 H 0.01429 0.83842 0.21721 0.0
H51 H 1.00374 0.80564 0.14518 0.0
N52 N 0.98192 0.75069 0.14573 0.0
N53 N 0.95039 0.75039 0.07001 0.0
N54 N 0.95367 0.78069 0.14822 0.0
C55 C 0.97003 0.74008 0.09402 0.0
C56 C 0.94198 0.77047 0.09697 0.0
C57 C 0.97345 0.7711 0.17321 0.0
C58 C 0.97846 0.71848 0.05853 0.0
C59 C 0.99021 0.70018 0.09091 0.0
C60 C 0.99494 0.67892 0.0568 0.0
C61 C 0.98811 0.67555 0.98949 0.0
C62 C 0.97744 0.6944 0.95684 0.0
C63 C 0.97264 0.71534 0.99067 0.0
C64 C 0.92355 0.78377 0.0622 0.0
C65 C 0.92119 0.78155 0.99277 0.0
C66 C 0.91025 0.7991 0.95635 0.0
C67 C 0.90108 0.81909 0.98876 0.0
C68 C 0.89994 0.81906 0.05898 0.0
C69 C 0.91149 0.8018 0.09537 0.0
C70 C 0.9867 0.78572 0.22192 0.0
C71 C 0.9807 0.78572 0.28979 0.0
C72 C 0.71048 0.96632 0.36497 0.0
C73 C 0.69798 0.9874 0.35753 0.0
C74 C 0.70511 1.00267 0.30648 0.0
C75 C 0.723 0.99636 0.26201 0.0
H76 H 0.8185 0.97655 0.18682 0.0
H77 H 0.85515 0.98665 0.12935 0.0
H78 H 0.81924 0.98215 0.93995 0.0
H79 H 0.78335 0.97245 0.99639 0.0
H80 H 0.75556 0.91776 0.99657 0.0
H81 H 0.72929 0.90598 0.90667 0.0
H82 H 0.6702 0.92103 0.03377 0.0
H83 H 0.69628 0.93167 0.12367 0.0
H84 H 0.73596 0.94274 0.3238 0.0
H85 H 0.70619 0.95426 0.40433 0.0
H86 H 0.69595 0.01891 0.29781 0.0
H87 H 0.72681 0.00772 0.22049 0.0
N88 N 0.76727 0.97297 0.18563 0.0
N89 N 0.76387 0.94839 0.09116 0.0
N90 N 0.73444 0.94852 0.17115 0.0
C91 C 0.77624 0.96447 0.12691 0.0
C92 C 0.74306 0.94027 0.11267 0.0
C93 C 0.74633 0.9646 0.20816 0.0
C94 C 0.79799 0.97371 0.09626 0.0
C95 C 0.81848 0.9782 0.13307 0.0
C96 C 0.83949 0.98372 0.10006 0.0
C97 C 0.84021 0.98528 0.02984 0.0
C98 C 0.81944 0.98148 0.99391 0.0
C99 C 0.79878 0.97575 0.02646 0.0
C100 C 0.72801 0.92649 0.06656 0.0
C101 C 0.73695 0.91779 1.00594 0.0
C102 C 0.72186 0.91111 0.95422 0.0
C103 C 0.69755 0.91334 0.96179 0.0
C104 C 0.68875 0.91908 0.02541 0.0
C105 C 0.70382 0.92545 0.07731 0.0
C106 C 0.73412 0.97458 0.26692 0.0
C107 C 0.72801 0.95986 0.31968 0.0
C108 C 0.61886 0.69383 0.05834 0.0
C109 C 0.60991 0.69074 0.99321 0.0
C110 C 0.59751 0.70949 0.96461 0.0
C111 C 0.59183 0.72931 1.00255 0.0
H112 H 0.59475 0.81156 0.0621 0.0
H113 H 0.58525 0.84799 1.00626 0.0
H114 H 0.51498 0.8444 0.08243 0.0
H115 H 0.52464 0.80778 0.13939 0.0
H116 H 0.52161 0.72615 0.20427 0.0
H117 H 0.50927 0.69801 0.28762 0.0
H118 H 0.56297 0.72364 0.42164 0.0
H119 H 0.57566 0.75122 0.33644 0.0
H120 H 0.6177 0.71412 0.14889 0.0
H121 H 0.62941 0.68047 0.0815 0.0
H122 H 0.59015 0.70818 0.91499 0.0
H123 H 0.5806 0.74244 0.98072 0.0
N124 N 0.58038 0.769 0.09436 0.0
N125 N 0.55554 0.77432 0.18674 0.0
N126 N 0.5757 0.73884 0.17102 0.0
C127 C 0.56578 0.78294 0.1305 0.0
C128 C 0.56085 0.75224 0.20742 0.0
C129 C 0.5855 0.74704 0.11457 0.0
C130 C 0.56042 0.8067 0.10502 0.0
C131 C 0.57735 0.8187 0.06791 0.0
C132 C 0.57195 0.83969 0.03615 0.0
C133 C 0.54934 0.8491 0.03961 0.0
C134 C 0.53254 0.83752 0.0785 0.0
C135 C 0.5381 0.81665 0.1115 0.0
C136 C 0.54922 0.74117 0.26459 0.0
C137 C 0.53013 0.72633 0.25261 0.0
C138 C 0.52315 0.7101 0.30052 0.0
C139 C 0.53522 0.70822 0.36161 0.0
C140 C 0.55347 0.72419 0.37492 0.0
C141 C 0.56052 0.74034 0.32668 0.0
C142 C 0.59793 0.73058 0.07021 0.0
C143 C 0.61244 0.71328 0.09696 0.0
C144 C 0.22069 0.50432 0.93704 0.0
C145 C 0.21012 0.48717 0.8954 0.0
C146 C 0.21857 0.46408 0.89963 0.0
C147 C 0.23567 0.45806 0.94647 0.0
H148 H 0.32436 0.48705 0.08354 0.0
H149 H 0.36185 0.49525 0.13989 0.0
H150 H 0.33259 0.47203 0.32591 0.0
H151 H 0.29595 0.46386 0.27085 0.0
H152 H 0.25837 0.42635 0.27496 0.0
H153 H 0.22849 0.41084 0.34844 0.0
H154 H 0.18001 0.40835 0.18264 0.0
H155 H 0.20989 0.42261 0.10953 0.0
H156 H 0.24435 0.51142 0.0188 0.0
H157 H 0.21508 0.52237 0.93493 0.0
H158 H 0.21094 0.45014 0.86986 0.0
H159 H 0.2404 0.43979 0.95112 0.0
N160 N 0.27673 0.47481 0.07954 0.0
N161 N 0.27198 0.45009 0.17204 0.0
N162 N 0.24409 0.4499 0.08741 0.0
C163 C 0.28483 0.46636 0.13934 0.0
C164 C 0.25171 0.44173 0.14658 0.0
C165 C 0.25617 0.46627 0.05341 0.0
C166 C 0.30707 0.47444 0.17205 0.0
C167 C 0.32593 0.48397 0.13656 0.0
C168 C 0.34744 0.48862 0.16895 0.0
C169 C 0.35055 0.4838 0.23744 0.0
C170 C 0.33129 0.4753 0.27292 0.0
C171 C 0.31005 0.47072 0.24098 0.0
C172 C 0.23626 0.42662 0.18684 0.0
C173 C 0.24154 0.42177 0.25384 0.0
C174 C 0.22434 0.41293 0.29613 0.0
C175 C 0.20149 0.40905 0.27237 0.0
C176 C 0.19725 0.41111 0.20347 0.0
C177 C 0.21445 0.41968 0.16125 0.0
C178 C 0.24505 0.4748 0.99093 0.0
C179 C 0.23792 0.49819 0.9843 0.0
C180 C 0.06208 0.20078 0.93406 0.0
C181 C 0.04045 0.19802 0.90147 0.0
C182 C 0.0227 0.21445 0.91635 0.0
C183 C 0.02634 0.23256 0.96391 0.0
H184 H 0.00541 0.30511 0.14094 0.0
H185 H 0.99823 0.34257 0.19787 0.0
H186 H 0.07171 0.3588 0.18646 0.0
H187 H 0.07867 0.32127 0.13089 0.0
H188 H 0.07251 0.27107 0.29463 0.0
H189 H 0.07563 0.25021 0.39951 0.0
H190 H 0.07539 0.18447 0.29078 0.0
H191 H 0.07299 0.20517 0.18674 0.0
H192 H 0.08218 0.2193 0.00766 0.0
H193 H 0.07614 0.1885 0.92516 0.0
H194 H 0.00584 0.21309 0.89205 0.0
H195 H 0.01207 0.24424 0.97622 0.0
N196 N 0.04418 0.27275 0.0626 0.0
N197 N 0.05813 0.27461 0.17337 0.0
N198 N 0.06056 0.23953 0.11348 0.0
C199 C 0.04831 0.28533 0.1203 0.0
C200 C 0.06417 0.25178 0.17078 0.0
C201 C 0.05076 0.24962 0.05909 0.0
C202 C 0.04251 0.31048 0.12964 0.0
C203 C 0.01979 0.31721 0.14778 0.0
C204 C 0.01577 0.33864 0.18129 0.0
C205 C 0.03444 0.35375 0.19818 0.0
C206 C 0.05691 0.34756 0.17585 0.0
C207 C 0.06087 0.32623 0.14251 0.0
C208 C 0.07175 0.23975 0.23226 0.0
C209 C 0.07375 0.25217 0.29304 0.0
C210 C 0.07552 0.24022 0.35331 0.0
C211 C 0.07524 0.21564 0.354 0.0
C212 C 0.07577 0.2034 0.29268 0.0
C213 C 0.07412 0.21532 0.23255 0.0
C214 C 0.0477 0.23446 0.99835 0.0
C215 C 0.06557 0.21854 0.98174 0.0
C216 C 0.32563 0.06189 0.91823 0.0
C217 C 0.32712 0.03823 0.89886 0.0
C218 C 0.31087 0.02242 0.92623 0.0
C219 C 0.29425 0.02999 0.97356 0.0
H220 H 0.22908 0.01728 0.13575 0.0
H221 H 0.19294 0.00627 0.19363 0.0
H222 H 0.17546 0.07937 0.21758 0.0
H223 H 0.21117 0.09009 0.16033 0.0
H224 H 0.26372 0.10358 0.27052 0.0
H225 H 0.28773 0.11541 0.36541 0.0
H226 H 0.34949 0.10825 0.24334 0.0
H227 H 0.32561 0.09763 0.14882 0.0
H228 H 0.30945 0.08757 0.98083 0.0
H229 H 0.33787 0.07462 0.89934 0.0
H230 H 0.31129 1.00409 0.91208 0.0
H231 H 0.28268 0.01729 0.99575 0.0
N232 N 0.25814 0.05338 0.06869 0.0
N233 N 0.25768 0.07758 0.16471 0.0
N234 N 0.29048 0.07703 0.09635 0.0
C235 C 0.24673 0.06196 0.1238 0.0
C236 C 0.27959 0.08507 0.1518 0.0
C237 C 0.28008 0.06144 0.05423 0.0
C238 C 0.22284 0.05453 0.14299 0.0
C239 C 0.21707 0.03087 0.15154 0.0
C240 C 0.19653 0.02462 0.18555 0.0
C241 C 0.18125 0.04193 0.21082 0.0
C242 C 0.18653 0.0655 0.19846 0.0
C243 C 0.20706 0.07169 0.16552 0.0
C244 C 0.29282 0.0987 0.20271 0.0
C245 C 0.28238 0.10527 0.26347 0.0
C246 C 0.29618 0.11201 0.31807 0.0
C247 C 0.32069 0.11196 0.31319 0.0
C248 C 0.33075 0.10845 0.24986 0.0
C249 C 0.31696 0.10201 0.19524 0.0
C250 C 0.29376 0.05347 0.99506 0.0
C251 C 0.30931 0.06933 0.96551 0.0
C252 C 0.40424 0.33355 0.22008 0.0
C253 C 0.40372 0.32823 0.28848 0.0
C254 C 0.40563 0.30462 0.30717 0.0
C255 C 0.41088 0.28731 0.2596 0.0
H256 H 0.41306 0.21215 0.18313 0.0
H257 H 0.42038 0.17534 0.23851 0.0
H258 H 0.49225 0.17741 0.17422 0.0
H259 H 0.4845 0.21433 0.11629 0.0
H260 H 0.4926 0.27327 0.99739 0.0
H261 H 0.50695 0.30013 0.91158 0.0
H262 H 0.43616 0.32287 0.87491 0.0
H263 H 0.4222 0.29607 0.95865 0.0
H264 H 0.41114 0.32148 0.12119 0.0
H265 H 0.40295 0.3514 0.20307 0.0
H266 H 0.40468 0.29973 0.35911 0.0
H267 H 0.41402 0.26964 0.27639 0.0
N268 N 0.43062 0.25465 0.16265 0.0
N269 N 0.45302 0.24923 0.06511 0.0
N270 N 0.43416 0.28506 0.08686 0.0
C271 C 0.44396 0.24058 0.12308 0.0
C272 C 0.44766 0.27158 0.04651 0.0
C273 C 0.42574 0.27693 0.14513 0.0
C274 C 0.44825 0.21628 0.14577 0.0
C275 C 0.43037 0.2046 0.17986 0.0
C276 C 0.43465 0.18354 0.21225 0.0
C277 C 0.45708 0.17357 0.2126 0.0
C278 C 0.47474 0.18453 0.17515 0.0
C279 C 0.47034 0.20567 0.1418 0.0
C280 C 0.45627 0.28245 0.98434 0.0
C281 C 0.48016 0.28342 0.96901 0.0
C282 C 0.48836 0.2991 0.92058 0.0
C283 C 0.47278 0.31394 0.88627 0.0
C284 C 0.44877 0.31167 0.89914 0.0
C285 C 0.4407 0.29625 0.94746 0.0
C286 C 0.41416 0.29329 0.1924 0.0
C287 C 0.4093 0.31629 0.17272 0.0
Gd288 Gd 0.99166 0.01665 0.56413 0.0
Gd289 Gd 0.03464 1.00012 0.68913 0.0
C290 C 0.06203 0.06141 0.81764 0.0
C291 C 0.10302 0.06253 0.78741 0.0
C292 C 0.07727 0.03295 0.73931 0.0
C293 C 0.05874 0.04214 0.77395 0.0
C294 C 0.09982 0.04258 0.74695 0.0
C295 C 0.08412 0.07195 0.82276 0.0
C296 C 0.04321 0.06912 0.85612 0.0
C297 C 0.02197 0.05731 0.85161 0.0
N298 N 0.03771 0.03146 0.76752 0.0
C299 C 0.01952 0.03846 0.80707 0.0
H300 H 1.00279 0.03007 0.80412 0.0
C301 C 0.09205 1.00159 0.67503 0.0
N302 N 0.07353 0.01355 0.70162 0.0
C303 C 0.11471 0.01052 0.68041 0.0
C304 C 0.11858 0.03135 0.71565 0.0
H305 H 0.08918 0.98544 0.64768 0.0
H306 H 0.0869 0.08696 0.85528 0.0
H307 H 0.00839 0.04081 0.42049 0.0
H308 H 0.04499 0.08385 0.8902 0.0
H309 H 0.00733 0.06293 0.88176 0.0
H310 H 0.12014 0.07036 0.79328 0.0
H311 H 0.95839 0.97367 0.63332 0.0
H312 H 0.99631 0.99207 0.26065 0.0
H313 H 0.01127 0.03028 0.30104 0.0
H314 H 0.95469 0.93008 0.36617 0.0
H315 H 0.12916 1.00131 0.65748 0.0
H316 H 0.13616 0.03818 0.72021 0.0
H317 H 0.97528 0.9547 0.28549 0.0
H318 H 0.93816 0.9381 0.59919 0.0
N319 N 0.99361 0.00821 0.44841 0.0
C320 C 0.99534 0.99648 0.31325 0.0
C321 C 1.0038 0.01804 0.33582 0.0
C322 C 0.98486 0.98129 0.35846 0.0
C323 C 0.98407 0.98785 0.42652 0.0
C324 C 1.00234 0.02383 0.40356 0.0
N325 N 0.97191 0.9812 0.53665 0.0
C326 C 0.97252 0.97409 0.47181 0.0
C327 C 0.94775 0.94805 0.56272 0.0
C328 C 0.94889 0.94024 0.49679 0.0
C329 C 0.95939 0.96857 0.58187 0.0
C330 C 0.96137 0.95326 0.45035 0.0
H331 H 0.94009 0.92419 0.48229 0.0
O332 O 0.95893 0.03158 0.5996 0.0
O333 O 0.0121 0.02902 0.653 0.0
O334 O 0.99885 0.99637 0.73665 0.0
O335 O 0.97221 0.01124 0.66015 0.0
O336 O 0.0129 0.04996 0.57007 0.0
O337 O 0.97212 0.04139 0.50403 0.0
O338 O 0.05493 0.96972 0.71766 0.0
O339 O 0.00935 0.98664 0.61165 0.0
O340 O 0.02749 0.01792 0.51464 0.0
O341 O 0.05518 0.01325 0.59971 0.0
O342 O 0.04302 0.97327 0.60965 0.0
O343 O 0.02654 0.98112 0.77961 0.0
C344 C 0.01956 0.04839 0.63127 0.0
C345 C 0.96287 0.94617 0.38325 0.0
C346 C 0.97464 0.96014 0.33739 0.0
C347 C 0.9575 0.04641 0.55136 0.0
C348 C 0.95582 0.07124 0.57191 0.0
C349 C 0.93751 0.07901 0.61264 0.0
C350 C 0.97369 0.0869 0.55555 0.0
C351 C 0.97382 0.11007 0.57969 0.0
C352 C 0.93723 0.1021 0.63653 0.0
C353 C 0.95527 0.11755 0.62045 0.0
C354 C 0.97749 1.00275 0.71933 0.0
C355 C 0.02282 0.97235 0.58177 0.0
C356 C 0.04048 0.96396 0.76426 0.0
C357 C 0.03 0.94042 0.75706 0.0
C358 C 0.04335 0.92192 0.73074 0.0
C359 C 0.0062 0.93668 0.77053 0.0
C360 C 0.99578 0.91482 0.75779 0.0
C361 C 0.03306 0.90027 0.71709 0.0
C362 C 0.00945 0.8967 0.73038 0.0
C363 C 0.04935 0.01723 0.53669 0.0
H364 H 0.92365 0.06717 0.62666 0.0
H365 H 0.98794 0.08076 0.52505 0.0
H366 H 0.92304 0.108 0.66796 0.0
H367 H 0.95444 0.13535 0.63921 0.0
H368 H 0.06167 0.92433 0.7195 0.0
H369 H 0.99564 0.95082 0.79018 0.0
H370 H 0.04346 0.88616 0.69646 0.0
H371 H 1.00212 0.87951 0.72107 0.0
Gd372 Gd 0.50624 0.98467 0.55123 0.0
Gd373 Gd 0.51077 0.03352 0.674 0.0
C374 C 0.44925 0.06157 0.79636 0.0
C375 C 0.44255 0.09946 0.746 0.0
C376 C 0.47414 0.07451 0.70673 0.0
C377 C 0.46799 0.05758 0.75206 0.0
C378 C 0.46187 0.09588 0.70424 0.0
C379 C 0.43624 0.08232 0.79196 0.0
C380 C 0.44443 0.04481 0.84464 0.0
C381 C 0.45852 0.02502 0.84909 0.0
N382 N 0.48084 0.03763 0.7546 0.0
C383 C 0.47684 0.02179 0.80402 0.0
H384 H 0.48731 0.0063 0.80905 0.0
C385 C 0.50151 0.08796 0.62797 0.0
N386 N 0.49287 0.07053 0.66718 0.0
C387 C 0.48992 0.10941 0.62362 0.0
C388 C 0.46978 0.11326 0.66115 0.0
H389 H 0.51692 0.08491 0.59812 0.0
H390 H 0.4216 0.0855 0.82493 0.0
H391 H 0.53135 0.01474 0.42419 0.0
H392 H 0.43016 0.04718 0.87941 0.0
H393 H 0.45519 0.01212 0.88703 0.0
H394 H 0.43273 0.11564 0.74426 0.0
H395 H 0.49772 0.93029 0.60459 0.0
H396 H 0.59074 0.97697 0.35535 0.0
H397 H 0.56488 0.0115 0.35012 0.0
H398 H 0.58686 0.90519 0.47559 0.0
H399 H 0.49643 0.12288 0.59104 0.0
H400 H 0.46081 0.1299 0.65773 0.0
H401 H 0.59915 0.93756 0.40371 0.0
H402 H 0.51868 0.89252 0.60881 0.0
N403 N 0.53774 0.98258 0.47425 0.0
C404 C 0.57584 0.97824 0.38835 0.0
C405 C 0.56128 0.99771 0.38524 0.0
C406 C 0.5706 0.96033 0.43271 0.0
C407 C 0.55104 0.96294 0.47488 0.0
C408 C 0.5421 0.99947 0.42801 0.0
N409 N 0.52442 0.94753 0.55069 0.0
C410 C 0.54427 0.94489 0.51514 0.0
C411 C 0.52627 0.90718 0.58292 0.0
C412 C 0.5477 0.90476 0.55072 0.0
C413 C 0.51455 0.92861 0.58091 0.0
C414 C 0.55666 0.92354 0.51465 0.0
H415 H 0.55667 0.88808 0.55168 0.0
O416 O 0.48078 0.95922 0.51631 0.0
O417 O 0.48787 0.00805 0.62268 0.0
O418 O 0.51468 0.99871 0.72724 0.0
O419 O 0.521 0.96946 0.64631 0.0
O420 O 0.47631 0.97399 0.61896 0.0
O421 O 0.48684 0.99058 0.45962 0.0
O422 O 0.53651 0.05988 0.6996 0.0
O423 O 0.53 0.00914 0.60556 0.0
O424 O 0.50264 0.02078 0.50312 0.0
O425 O 0.48833 0.04488 0.58755 0.0
O426 O 0.53905 0.04406 0.60176 0.0
O427 O 0.5304 0.03087 0.76643 0.0
C428 C 0.47288 0.99424 0.64589 0.0
C429 C 0.57693 0.92132 0.47596 0.0
C430 C 0.58389 0.93971 0.43495 0.0
C431 C 0.47308 0.97279 0.46964 0.0
C432 C 0.44787 0.97752 0.47228 0.0
C433 C 0.43205 0.9589 0.4663 0.0
C434 C 0.43949 1.00012 0.48684 0.0
C435 C 0.41549 1.00424 0.49437 0.0
C436 C 0.4082 0.96278 0.4748 0.0
C437 C 0.39992 0.98527 0.4887 0.0
C438 C 0.52009 0.97699 0.70906 0.0
C439 C 0.54415 0.02342 0.58013 0.0
C440 C 0.5442 0.04813 0.75037 0.0
C441 C 0.56944 0.0434 0.74924 0.0
C442 C 0.5851 0.06224 0.7473 0.0
C443 C 0.57803 0.0204 0.7445 0.0
C444 C 0.60213 0.01618 0.73963 0.0
C445 C 0.60899 0.0582 0.74075 0.0
C446 C 0.61751 0.03535 0.73709 0.0
C447 C 0.49207 0.04022 0.52377 0.0
H448 H 0.43821 0.94131 0.45611 0.0
H449 H 0.4516 0.0145 0.49284 0.0
H450 H 0.39607 0.94833 0.47016 0.0
H451 H 0.38126 0.9879 0.49294 0.0
H452 H 0.57878 0.08009 0.74986 0.0
H453 H 0.56603 0.00577 0.74424 0.0
H454 H 0.62097 0.07282 0.73921 0.0
H455 H 0.6362 0.03273 0.73449 0.0
Gd456 Gd 0.48018 0.51498 0.67027 0.0
Gd457 Gd 0.53696 0.5067 0.58722 0.0
C458 C 0.6075 0.52043 0.68807 0.0
C459 C 0.62071 0.5554 0.63165 0.0
C460 C 0.58375 0.53727 0.60087 0.0
C461 C 0.58698 0.52044 0.64888 0.0
C462 C 0.60084 0.55462 0.5905 0.0
C463 C 0.62403 0.53833 0.68039 0.0
C464 C 0.61104 0.50213 0.73268 0.0
C465 C 0.59469 0.48411 0.73592 0.0
N466 N 0.57055 0.50348 0.65525 0.0
C467 C 0.5746 0.48492 0.69617 0.0
H468 H 0.56234 0.47076 0.69954 0.0
C469 C 0.56204 0.5502 0.50787 0.0
N470 N 0.56444 0.53594 0.56187 0.0
C471 C 0.57845 0.56775 0.49568 0.0
C472 C 0.59776 0.57021 0.53783 0.0
H473 H 0.54697 0.54851 0.4756 0.0
H474 H 0.63972 0.53879 0.71073 0.0
H475 H 0.45445 0.5509 0.55895 0.0
H476 H 0.62652 0.5015 0.7638 0.0
H477 H 0.59747 0.46961 0.76932 0.0
H478 H 0.6339 0.56876 0.62501 0.0
H479 H 0.47119 0.47222 0.77999 0.0
H480 H 0.38987 0.52034 0.49715 0.0
H481 H 0.4189 0.55223 0.4908 0.0
H482 H 0.38364 0.45231 0.63332 0.0
H483 H 0.57611 0.57942 0.45404 0.0
H484 H 0.61046 0.5838 0.52828 0.0
H485 H 0.37711 0.48279 0.54954 0.0
H486 H 0.44253 0.44078 0.80062 0.0
N487 N 0.44646 0.5181 0.60295 0.0
C488 C 0.40553 0.51964 0.52752 0.0
C489 C 0.42188 0.53766 0.52379 0.0
C490 C 0.40937 0.50119 0.57145 0.0
C491 C 0.43011 0.50108 0.60966 0.0
C492 C 0.44219 0.53675 0.56258 0.0
N493 N 0.45319 0.48522 0.69512 0.0
C494 C 0.43369 0.484 0.65684 0.0
C495 C 0.43986 0.45276 0.75986 0.0
C496 C 0.42033 0.45045 0.71845 0.0
C497 C 0.45599 0.47059 0.74819 0.0
C498 C 0.41681 0.46644 0.66698 0.0
H499 H 0.40781 0.43667 0.7277 0.0
O500 O 0.46488 0.52142 0.76709 0.0
O501 O 0.51876 0.51768 0.67953 0.0
O502 O 0.5259 0.47443 0.64646 0.0
O503 O 0.48542 0.47669 0.64569 0.0
O504 O 0.50182 0.50568 0.76225 0.0
O505 O 0.46856 0.54998 0.6973 0.0
O506 O 0.55112 0.49975 0.48913 0.0
O507 O 0.49836 0.50423 0.57788 0.0
O508 O 0.49114 0.54744 0.61171 0.0
O509 O 0.53169 0.54514 0.60957 0.0
O510 O 0.51535 0.51619 0.49525 0.0
O511 O 0.54882 0.47172 0.56109 0.0
C512 C 0.5219 0.51124 0.7387 0.0
C513 C 0.39669 0.4658 0.62679 0.0
C514 C 0.39296 0.48317 0.57915 0.0
C515 C 0.46349 0.5439 0.75818 0.0
C516 C 0.4735 0.55803 0.81241 0.0
C517 C 0.45982 0.56286 0.86864 0.0
C518 C 0.49714 0.56463 0.81173 0.0
C519 C 0.50718 0.57555 0.86795 0.0
C520 C 0.46963 0.574 0.92418 0.0
C521 C 0.49318 0.5802 0.92412 0.0
C522 C 0.50498 0.46474 0.65335 0.0
C523 C 0.49523 0.51074 0.51874 0.0
C524 C 0.55256 0.47733 0.49903 0.0
C525 C 0.54113 0.46292 0.44766 0.0
C526 C 0.55212 0.45978 0.3859 0.0
C527 C 0.51841 0.45432 0.45718 0.0
C528 C 0.50665 0.44281 0.40485 0.0
C529 C 0.54051 0.44829 0.33382 0.0
C530 C 0.51787 0.43993 0.343 0.0
C531 C 0.51204 0.5571 0.60347 0.0
H532 H 0.44165 0.55762 0.87 0.0
H533 H 0.50778 0.56078 0.7684 0.0
H534 H 0.45902 0.57767 0.96758 0.0
H535 H 0.50037 0.58899 0.96769 0.0
H536 H 0.56951 0.4666 0.37764 0.0
H537 H 0.50971 0.45699 0.50457 0.0
H538 H 0.54904 0.44594 0.28612 0.0
H539 H 0.5093 0.43081 0.30212 0.0
Gd540 Gd 0.00687 0.48374 0.65636 0.0
Gd541 Gd 0.01751 0.53786 0.56336 0.0
C542 C 0.00683 0.61171 0.64946 0.0
C543 C 0.97243 0.62471 0.58923 0.0
C544 C 0.98914 0.58636 0.56621 0.0
C545 C 0.00605 0.59018 0.61423 0.0
C546 C 0.97253 0.60383 0.55176 0.0
C547 C 0.98955 0.62864 0.63807 0.0
C548 C 0.0253 0.61585 0.69371 0.0
C549 C 0.04289 0.59918 0.6998 0.0
N550 N 0.02251 0.57343 0.62382 0.0
C551 C 0.04144 0.5782 0.6635 0.0
H552 H 0.05563 0.56608 0.6681 0.0
C553 C 0.97567 0.563 0.47612 0.0
N554 N 0.98984 0.56611 0.53067 0.0
C555 C 0.95887 0.57976 0.4599 0.0
C556 C 0.95702 0.60011 0.49863 0.0
H557 H 0.97682 0.54714 0.44652 0.0
H558 H 0.98969 0.6451 0.66537 0.0
H559 H 0.96954 0.45659 0.54858 0.0
H560 H 0.02648 0.63209 0.72188 0.0
H561 H 0.05766 0.60249 0.73234 0.0
H562 H 0.95963 0.63821 0.57948 0.0
H563 H 0.04837 0.47454 0.77113 0.0
H564 H 0.99806 0.39024 0.49493 0.0
H565 H 0.96712 0.4201 0.48438 0.0
H566 H 0.06531 0.38382 0.63581 0.0
H567 H 0.94729 0.5769 0.41787 0.0
H568 H 0.94401 0.61309 0.48597 0.0
H569 H 0.03492 0.37704 0.5508 0.0
H570 H 0.07839 0.44495 0.7975 0.0
N571 N 1.0022 0.4486 0.59418 0.0
C572 C 0.99929 0.4064 0.52343 0.0
C573 C 0.98182 0.4232 0.51737 0.0
C574 C 0.01781 0.41039 0.56767 0.0
C575 C 0.01865 0.43181 0.60337 0.0
C576 C 0.98337 0.44411 0.55396 0.0
N577 N 0.03512 0.45575 0.68697 0.0
C578 C 0.03571 0.43557 0.65102 0.0
C579 C 0.06658 0.44212 0.75596 0.0
C580 C 0.06829 0.42185 0.71686 0.0
C581 C 0.04954 0.45878 0.74104 0.0
C582 C 0.05247 0.41814 0.66447 0.0
H583 H 0.08144 0.4089 0.72869 0.0
O584 O 1.0002 0.47042 0.75507 0.0
O585 O 0.00524 0.52265 0.6579 0.0
O586 O 0.04854 0.52854 0.63067 0.0
O587 O 0.04576 0.48817 0.63924 0.0
O588 O 0.01679 0.5075 0.74433 0.0
O589 O 0.97134 0.47609 0.68693 0.0
O590 O 0.02515 0.55132 0.46525 0.0
O591 O 0.0187 0.49882 0.56097 0.0
O592 O 0.97478 0.4939 0.59377 0.0
O593 O 0.97863 0.53414 0.58119 0.0
O594 O 0.00614 0.51448 0.47645 0.0
O595 O 0.05349 0.54276 0.53236 0.0
C596 C 0.01162 0.52707 0.7169 0.0
C597 C 0.05243 0.39731 0.62673 0.0
C598 C 0.03512 0.39344 0.57839 0.0
C599 C 0.97769 0.47208 0.74837 0.0
C600 C 0.96617 0.48565 0.80144 0.0
C601 C 0.96678 0.47716 0.86676 0.0
C602 C 0.95669 0.50792 0.78914 0.0
C603 C 0.94788 0.5216 0.84197 0.0
C604 C 0.95821 0.49073 0.91937 0.0
C605 C 0.94886 0.51281 0.90725 0.0
C606 C 0.0577 0.50788 0.64549 0.0
C607 C 0.01138 0.49472 0.5026 0.0
C608 C 0.04741 0.54755 0.47123 0.0
C609 C 0.05761 0.53319 0.41742 0.0
C610 C 0.05604 0.54107 0.35159 0.0
C611 C 0.06706 0.51094 0.43006 0.0
C612 C 0.07512 0.49673 0.37726 0.0
C613 C 0.0637 0.52696 0.29895 0.0
C614 C 0.07318 0.50496 0.31152 0.0
C615 C 0.96597 0.51475 0.57885 0.0
H616 H 0.9743 0.46019 0.87717 0.0
H617 H 0.95645 0.51473 0.73889 0.0
H618 H 0.95877 0.4841 0.96972 0.0
H619 H 0.94178 0.52272 0.94884 0.0
H620 H 0.04854 0.55803 0.34085 0.0
H621 H 0.06793 0.50457 0.48074 0.0
H622 H 0.06242 0.53314 0.24824 0.0
H623 H 0.07965 0.49473 0.26975 0.0
H624 H 0.1787 0.00902 0.31002 0.0
H625 H 0.04927 0.04507 0.4258 0.0
H626 H 0.13723 0.06147 0.21181 0.0
H627 H 0.09292 0.99719 0.53402 0.0
H628 H 0.0803 0.04957 0.34331 0.0
H629 H 0.14651 1.00236 0.38766 0.0
C630 C 0.16273 0.01891 0.30404 0.0
C631 C 0.16083 0.0359 0.25408 0.0
C632 C 0.08315 0.03809 0.38516 0.0
C633 C 0.12384 0.02858 0.34398 0.0
C634 C 0.06533 0.03541 0.43219 0.0
C635 C 0.06843 0.02078 0.48736 0.0
C636 C 0.10432 0.02594 0.39285 0.0
C637 C 0.08986 0.00903 0.49333 0.0
C638 C 0.1444 0.01525 0.34893 0.0
C639 C 0.13971 0.0484 0.24986 0.0
N640 N 0.10691 0.01181 0.44677 0.0
N641 N 0.12216 0.04454 0.29412 0.0
H642 H 0.48576 0.13545 0.18679 0.0
H643 H 0.46003 0.07533 0.53955 0.0
H644 H 0.43982 0.16413 0.33698 0.0
H645 H 0.50741 0.04593 0.39453 0.0
H646 H 0.45102 0.10682 0.4625 0.0
H647 H 0.49315 0.10186 0.25926 0.0
C648 C 0.47724 0.13476 0.23484 0.0
C649 C 0.46198 0.15272 0.25523 0.0
C650 C 0.4634 0.09351 0.44732 0.0
C651 C 0.47025 0.11412 0.33842 0.0
C652 C 0.46863 0.0755 0.49153 0.0
C653 C 0.48488 0.05809 0.47424 0.0
C654 C 0.4745 0.09429 0.38493 0.0
C655 C 0.49492 0.05898 0.41041 0.0
C656 C 0.48136 0.11548 0.27608 0.0
C657 C 0.45133 0.15062 0.31808 0.0
N658 N 0.48972 0.07685 0.36834 0.0
N659 N 0.45567 0.1318 0.35713 0.0
H660 H 0.38296 0.51953 0.22492 0.0
H661 H 0.46482 0.47364 0.52341 0.0
H662 H 0.37092 0.45545 0.33121 0.0
H663 H 0.47963 0.53607 0.4129 0.0
H664 H 0.43096 0.46625 0.45121 0.0
H665 H 0.41899 0.5254 0.28977 0.0
C666 C 0.38793 0.50658 0.26133 0.0
C667 C 0.37356 0.48709 0.27278 0.0
C668 C 0.44155 0.48161 0.44256 0.0
C669 C 0.4149 0.4938 0.3479 0.0
C670 C 0.46079 0.48593 0.48429 0.0
C671 C 0.47455 0.50596 0.47567 0.0
C672 C 0.43607 0.49731 0.39115 0.0
C673 C 0.46912 0.52071 0.42219 0.0
C674 C 0.40849 0.51001 0.2987 0.0
C675 C 0.38102 0.47102 0.32129 0.0
N676 N 0.4502 0.51625 0.3825 0.0
N677 N 0.40097 0.47478 0.35696 0.0
H678 H 0.99741 0.38489 0.20093 0.0
H679 H 0.04653 0.46181 0.51007 0.0
H680 H 0.06317 0.371 0.29822 0.0
H681 H 0.98476 0.47945 0.39857 0.0
H682 H 0.05224 0.42754 0.43662 0.0
H683 H 0.99175 0.41852 0.27587 0.0
C684 C 0.01067 0.38882 0.23796 0.0
C685 C 0.03088 0.37493 0.24248 0.0
C686 C 0.03737 0.43884 0.42828 0.0
C687 C 0.02447 0.41378 0.32916 0.0
C688 C 0.034 0.45828 0.47067 0.0
C689 C 0.01475 0.47311 0.46163 0.0
C690 C 0.02152 0.4343 0.3758 0.0
C691 C 0.99959 0.46821 0.40807 0.0
C692 C 0.00747 0.40816 0.28072 0.0
C693 C 0.04749 0.38126 0.29159 0.0
N694 N 1.00319 0.44924 0.36764 0.0
N695 N 0.04389 0.40007 0.33283 0.0
H696 H 0.88468 0.9677 0.05122 0.0
H697 H 0.93206 0.01666 0.70447 0.0
H698 H 0.84616 0.01376 0.92217 0.0
H699 H 0.97819 0.98443 0.84732 0.0
H700 H 0.90034 0.01385 0.78369 0.0
H701 H 0.91909 0.97243 0.97927 0.0
C702 C 0.88351 0.97907 0.00846 0.0
C703 C 0.8623 0.99014 0.99252 0.0
C704 C 0.91737 0.00737 0.79803 0.0
C705 C 0.90153 0.99531 0.90939 0.0
C706 C 0.93563 0.00889 0.75244 0.0
C707 C 0.95805 1.00066 0.76857 0.0
C708 C 0.92119 0.99735 0.86078 0.0
C709 C 0.96125 0.99086 0.83215 0.0
C710 C 0.90313 0.98162 0.96716 0.0
C711 C 0.86188 1.00447 0.93597 0.0
N712 N 0.94303 0.98937 0.87577 0.0
N713 N 0.88102 0.00647 0.89651 0.0
H714 H 0.51097 0.85493 0.9598 0.0
H715 H 0.54478 0.98206 0.82625 0.0
H716 H 0.57376 0.89024 0.02428 0.0
H717 H 0.5023 0.93291 0.71632 0.0
H718 H 0.55143 0.95207 0.91175 0.0
H719 H 0.50295 0.88714 0.88351 0.0
C720 C 0.52288 0.86964 0.95873 0.0
C721 C 0.54309 0.86982 0.9985 0.0
C722 C 0.54081 0.94785 0.86849 0.0
C723 C 0.53406 0.90679 0.9108 0.0
C724 C 0.5371 0.96489 0.81968 0.0
C725 C 0.52387 0.95959 0.76244 0.0
C726 C 0.53046 0.92565 0.86106 0.0
C727 C 0.5136 0.93736 0.75763 0.0
C728 C 0.5184 0.88792 0.91471 0.0
C729 C 0.55807 0.88927 0.99416 0.0
N730 N 0.51703 0.92128 0.80616 0.0
N731 N 0.55326 0.90697 0.95117 0.0
H732 H 0.64446 0.57374 0.92436 0.0
H733 H 0.53758 0.4866 0.84558 0.0
H734 H 0.63727 0.50631 0.01692 0.0
H735 H 0.55192 0.54866 0.73295 0.0
H736 H 0.5715 0.49536 0.91708 0.0
H737 H 0.60851 0.56652 0.86204 0.0
C738 C 0.63539 0.55735 0.93171 0.0
C739 C 0.64436 0.54046 0.97562 0.0
C740 C 0.56727 0.50705 0.87667 0.0
C741 C 0.60245 0.53229 0.90457 0.0
C742 C 0.54794 0.50204 0.83584 0.0
C743 C 0.54245 0.51646 0.78179 0.0
C744 C 0.58096 0.52696 0.86436 0.0
C745 C 0.55603 0.5366 0.77253 0.0
C746 C 0.61469 0.55332 0.89617 0.0
C747 C 0.63118 0.51992 0.98402 0.0
N748 N 0.57468 0.54118 0.81305 0.0
N749 N 0.61104 0.51637 0.94865 0.0
H750 H 0.02488 0.64404 0.99743 0.0
H751 H 0.97616 0.55916 0.70541 0.0
H752 H 0.95892 0.65428 0.89738 0.0
H753 H 0.03807 0.5442 0.81956 0.0
H754 H 0.96994 0.59446 0.77391 0.0
H755 H 0.03033 0.60778 0.93274 0.0
C756 C 0.01145 0.63869 0.96236 0.0
C757 C 0.9915 0.65262 0.95285 0.0
C758 C 0.98497 0.58356 0.78393 0.0
C759 C 0.99779 0.61095 0.87761 0.0
C760 C 0.98862 0.56351 0.74435 0.0
C761 C 0.00807 0.54914 0.75549 0.0
C762 C 1.00084 0.58933 0.83539 0.0
C763 C 0.02312 0.55509 0.80846 0.0
C764 C 0.01465 0.61798 0.92504 0.0
C765 C 0.97487 0.64461 0.9058 0.0
N766 N 0.01934 0.57478 0.84592 0.0
N767 N 0.97843 0.62451 0.87008 0.0
H768 H 0.04615 0.22908 0.45608 0.0
H769 H 0.99918 0.11023 0.46357 0.0
H770 H 0.09121 0.17244 0.39344 0.0
H771 H 0.99322 0.14687 0.65279 0.0
H772 H 0.03176 0.13487 0.43531 0.0
H773 H 0.02694 0.20271 0.53323 0.0
C774 C 0.05273 0.2114 0.46022 0.0
C775 C 0.06983 0.20276 0.41614 0.0
C776 C 0.02358 0.13721 0.48359 0.0
C777 C 0.04734 0.17255 0.50302 0.0
C778 C 0.00489 0.12305 0.50018 0.0
C779 C 0.99341 0.12598 0.56156 0.0
C780 C 0.0304 0.15527 0.52695 0.0
C781 C 1.00121 0.14404 0.60458 0.0
C782 C 0.04162 0.19635 0.50433 0.0
C783 C 0.07744 0.17962 0.42431 0.0
N784 N 0.01899 0.15837 0.58586 0.0
N785 N 0.06556 0.16505 0.46503 0.0
H786 H 0.36601 0.12753 0.33436 0.0
H787 H 0.37967 0.02022 0.57372 0.0
H788 H 0.30988 0.09088 0.43172 0.0
H789 H 0.43078 0.04364 0.43155 0.0
H790 H 0.35906 0.05743 0.56173 0.0
H791 H 0.39365 0.10911 0.41057 0.0
C792 C 0.35934 0.11619 0.37279 0.0
C793 C 0.33563 0.10981 0.37392 0.0
C794 C 0.37515 0.05464 0.53459 0.0
C795 C 0.36713 0.08903 0.46176 0.0
C796 C 0.3868 0.03335 0.54097 0.0
C797 C 0.40645 0.02847 0.50161 0.0
C798 C 0.38314 0.07103 0.48816 0.0
C799 C 0.41548 0.04645 0.46208 0.0
C800 C 0.37516 0.10576 0.41648 0.0
C801 C 0.32797 0.09597 0.42719 0.0
N802 N 0.40344 0.06673 0.45516 0.0
N803 N 0.34375 0.08552 0.46771 0.0
H804 H 0.3848 0.37282 0.28692 0.0
H805 H 0.49196 0.41524 0.5071 0.0
H806 H 0.42922 0.3282 0.40489 0.0
H807 H 0.46811 0.44733 0.32551 0.0
H808 H 0.45646 0.39125 0.50809 0.0
H809 H 0.4024 0.40695 0.34178 0.0
C810 C 0.39772 0.37008 0.32558 0.0
C811 C 0.40637 0.34754 0.33857 0.0
C812 C 0.45872 0.40406 0.46918 0.0
C813 C 0.42602 0.38646 0.40248 0.0
C814 C 0.47892 0.41772 0.46855 0.0
C815 C 0.48321 0.43266 0.4149 0.0
C816 C 0.44276 0.40558 0.41609 0.0
C817 C 0.46574 0.43538 0.3665 0.0
C818 C 0.40764 0.38959 0.35708 0.0
C819 C 0.42228 0.34512 0.39164 0.0
N820 N 0.44641 0.42168 0.36763 0.0
N821 N 0.43205 0.36438 0.42041 0.0
H822 H 0.15918 0.38594 0.25778 0.0
H823 H 0.10594 0.48699 0.47822 0.0
H824 H 0.19714 0.43104 0.39419 0.0
H825 H 0.07243 0.45528 0.30658 0.0
H826 H 0.13317 0.45428 0.48165 0.0
H827 H 0.12275 0.39865 0.30987 0.0
C828 C 0.16 0.39798 0.29977 0.0
C829 C 0.18129 0.40833 0.31909 0.0
C830 C 0.11949 0.45419 0.4442 0.0
C831 C 0.13972 0.42258 0.37943 0.0
C832 C 0.10385 0.47286 0.44229 0.0
C833 C 0.08746 0.47437 0.39029 0.0
C834 C 0.11886 0.43706 0.3935 0.0
C835 C 0.08551 0.45536 0.34567 0.0
C836 C 0.13916 0.40514 0.32963 0.0
C837 C 0.18126 0.42292 0.37602 0.0
N838 N 0.10138 0.43773 0.34734 0.0
N839 N 0.16076 0.43009 0.40295 0.0
H840 H 0.90773 0.86439 0.03454 0.0
H841 H 0.96217 0.88889 0.69205 0.0
H842 H 0.88899 0.82584 0.85553 0.0
H843 H 0.97342 0.93039 0.87036 0.0
H844 H 0.92618 0.87375 0.74049 0.0
H845 H 0.91965 0.89678 0.96706 0.0
C846 C 0.90535 0.86273 0.98118 0.0
C847 C 0.89863 0.84141 0.95098 0.0
C848 C 0.9362 0.88663 0.76833 0.0
C849 C 0.91365 0.87862 0.87277 0.0
C850 C 0.95688 0.89512 0.74092 0.0
C851 C 0.97133 0.9102 0.77829 0.0
C852 C 0.93013 0.89309 0.83384 0.0
C853 C 0.96312 0.91845 0.84008 0.0
C854 C 0.91253 0.88142 0.94228 0.0
C855 C 0.89561 0.84121 0.88126 0.0
N856 N 0.94338 0.90937 0.86653 0.0
N857 N 0.90405 0.85911 0.8443 0.0
H858 H 0.65116 0.90037 0.94866 0.0
H859 H 0.63849 0.99634 0.66978 0.0
H860 H 0.70802 0.93097 0.83859 0.0
H861 H 0.58734 0.98105 0.82062 0.0
H862 H 0.65931 0.96047 0.69912 0.0
H863 H 0.62374 0.91718 0.86874 0.0
C864 C 0.65799 0.91005 0.9069 0.0
C865 C 0.68195 0.91508 0.90237 0.0
C866 C 0.64316 0.96467 0.72444 0.0
C867 C 0.65068 0.93407 0.81045 0.0
C868 C 0.63136 0.9852 0.70807 0.0
C869 C 0.6115 0.99204 0.74414 0.0
C870 C 0.63504 0.95098 0.77734 0.0
C871 C 0.6026 0.97657 0.79168 0.0
C872 C 0.6423 0.91957 0.86115 0.0
C873 C 0.68976 0.92688 0.84538 0.0
N874 N 0.61469 0.95701 0.80787 0.0
N875 N 0.67413 0.93647 0.80266 0.0
H876 H 0.61069 0.64753 0.05409 0.0
H877 H 0.53056 0.60007 0.77218 0.0
H878 H 0.60702 0.67851 0.85842 0.0
H879 H 0.54003 0.56813 0.96418 0.0
H880 H 0.56749 0.62103 0.78791 0.0
H881 H 0.59634 0.61133 0.0075 0.0
C882 C 0.60754 0.64683 1.00092 0.0
C883 C 0.60904 0.66694 0.96117 0.0
C884 C 0.56181 0.60899 0.82592 0.0
C885 C 0.59111 0.62515 0.90801 0.0
C886 C 0.54074 0.59701 0.81688 0.0
C887 C 0.53188 0.58314 0.86825 0.0
C888 C 0.57384 0.60714 0.88692 0.0
C889 C 0.54588 0.57943 0.92456 0.0
C890 C 0.59899 0.62591 0.97431 0.0
C891 C 0.60478 0.6641 0.89231 0.0
N892 N 0.56591 0.59176 0.93306 0.0
N893 N 0.59519 0.64391 0.86836 0.0
H894 H 0.86495 0.63095 0.97257 0.0
H895 H 0.91644 0.53144 0.74305 0.0
H896 H 0.82561 0.58633 0.83824 0.0
H897 H 0.95161 0.56294 0.91205 0.0
H898 H 0.88877 0.56394 0.74314 0.0
H899 H 0.90079 0.61888 0.91605 0.0
C900 C 0.86371 0.61914 0.93011 0.0
C901 C 0.84226 0.60883 0.91229 0.0
C902 C 0.90292 0.56406 0.77911 0.0
C903 C 0.88315 0.59517 0.8472 0.0
C904 C 0.91879 0.54554 0.77896 0.0
C905 C 0.93573 0.54404 0.82941 0.0
C906 C 0.904 0.58104 0.83025 0.0
C907 C 0.93814 0.56297 0.87407 0.0
C908 C 0.8842 0.61233 0.89773 0.0
C909 C 0.84168 0.59444 0.85501 0.0
N910 N 0.92209 0.58044 0.87446 0.0
N911 N 0.86189 0.58755 0.82568 0.0
H912 H 0.07091 0.17813 0.81052 0.0
H913 H 0.98764 0.06946 0.71291 0.0
H914 H 1.00107 0.17021 0.88669 0.0
H915 H 0.05721 0.0779 0.63676 0.0
H916 H 0.99159 0.10683 0.77376 0.0
H917 H 0.06568 0.14237 0.74414 0.0
C918 C 0.05442 0.16895 0.8134 0.0
C919 C 0.03649 0.17737 0.85518 0.0
C920 C 0.00612 0.10048 0.74432 0.0
C921 C 0.03033 0.13597 0.77815 0.0
C922 C 1.00392 0.07905 0.70999 0.0
C923 C 0.0225 0.07013 0.67197 0.0
C924 C 0.02703 0.11332 0.7403 0.0
C925 C 0.04275 0.08381 0.66721 0.0
C926 C 0.05143 0.14847 0.7751 0.0
C927 C 0.01538 0.16469 0.85518 0.0
N928 N 0.04458 0.10453 0.70144 0.0
N929 N 0.01298 0.14467 0.81785 0.0
H930 H 0.3458 0.06067 0.78991 0.0
H931 H 0.44997 0.9683 0.7374 0.0
H932 H 0.35337 0.99782 0.90536 0.0
H933 H 0.44496 0.033 0.63023 0.0
H934 H 0.41308 0.97749 0.79358 0.0
H935 H 0.38037 0.04962 0.72572 0.0
C936 C 0.35463 0.04448 0.80178 0.0
C937 C 0.34656 0.03028 0.85388 0.0
C938 C 0.42003 0.98976 0.758 0.0
C939 C 0.38637 0.0174 0.77957 0.0
C940 C 0.44113 0.98454 0.72612 0.0
C941 C 0.45098 1.00035 0.6812 0.0
C942 C 0.40836 0.01079 0.74391 0.0
C943 C 0.43845 0.02078 0.66661 0.0
C944 C 0.3744 0.03816 0.7648 0.0
C945 C 0.35865 0.00929 0.86556 0.0
N946 N 0.41789 0.02548 0.69814 0.0
N947 N 0.37794 1.0036 0.82915 0.0
H948 H 0.51171 0.34206 0.90107 0.0
H949 H 0.46944 0.4339 0.62863 0.0
H950 H 0.45288 0.33017 0.77002 0.0
H951 H 0.5356 0.43962 0.73058 0.0
H952 H 0.46388 0.39524 0.67722 0.0
H953 H 0.5219 0.37666 0.83644 0.0
C954 C 0.50114 0.3464 0.85809 0.0
C955 C 0.4812 0.33311 0.84174 0.0
C956 C 0.47976 0.40478 0.68847 0.0
C957 C 0.49258 0.37327 0.76807 0.0
C958 C 0.48294 0.4269 0.66071 0.0
C959 C 0.503 0.44009 0.67567 0.0
C960 C 0.49663 0.39576 0.73238 0.0
C961 C 0.51995 0.43004 0.71731 0.0
C962 C 0.5069 0.36634 0.82143 0.0
C963 C 0.46809 0.34003 0.78577 0.0
N964 N 0.51625 0.40864 0.74482 0.0
N965 N 0.47385 0.35966 0.75161 0.0
H966 H 0.19738 0.46704 0.77399 0.0
H967 H 0.07873 0.53982 0.72948 0.0
H968 H 0.17463 0.51952 0.91597 0.0
H969 H 0.09059 0.47304 0.63377 0.0
H970 H 0.11658 0.53642 0.78602 0.0
H971 H 0.16132 0.47274 0.711 0.0
C972 C 0.18493 0.47978 0.7923 0.0
C973 C 0.1893 0.49256 0.8516 0.0
C974 C 0.11101 0.5226 0.75221 0.0
C975 C 0.14773 0.49955 0.77764 0.0
C976 C 0.08948 0.52465 0.71923 0.0
C977 C 0.0815 0.50683 0.67604 0.0
C978 C 0.12498 0.50269 0.74149 0.0
C979 C 0.09601 0.48725 0.66645 0.0
C980 C 0.16427 0.48307 0.75581 0.0
C981 C 0.17246 0.50932 0.87064 0.0
N982 N 0.117 0.48575 0.69861 0.0
N983 N 0.15253 0.51226 0.83404 0.0
H984 H 0.03426 0.85742 0.29964 0.0
H985 H 0.99601 0.93469 0.61512 0.0
H986 H 0.97216 0.84178 0.41246 0.0
H987 H 0.03748 0.96223 0.45567 0.0
H988 H 0.98985 0.89859 0.54939 0.0
H989 H 0.03856 0.89375 0.36344 0.0
C990 C 0.0214 0.86147 0.33741 0.0
C991 C 1.00266 0.8461 0.34959 0.0
C992 C 0.99997 0.91265 0.52822 0.0
C993 C 0.00805 0.888 0.42489 0.0
C994 C 1.00326 0.93335 0.56543 0.0
C995 C 0.01628 0.95191 0.53931 0.0
C996 C 0.01045 0.91015 0.46516 0.0
C997 C 0.02661 0.94866 0.47652 0.0
C998 C 0.024 0.88233 0.37419 0.0
C999 C 0.98713 0.85253 0.40122 0.0
N1000 N 0.02345 0.92827 0.44159 0.0
N1001 N 0.99022 0.87281 0.43682 0.0
H1002 H 0.66647 0.95627 0.41282 0.0
H1003 H 0.57077 0.05137 0.50301 0.0
H1004 H 0.67989 0.03043 0.39732 0.0
H1005 H 0.5716 0.98419 0.59825 0.0
H1006 H 0.60946 0.04322 0.45664 0.0
H1007 H 0.6308 0.9651 0.47415 0.0
C1008 C 0.6623 0.97442 0.42288 0.0
C1009 C 0.67665 0.99258 0.39913 0.0
C1010 C 0.60123 0.03023 0.48767 0.0
C1011 C 0.63488 1.00271 0.46812 0.0
C1012 C 0.5791 0.03483 0.51388 0.0
C1013 C 0.56757 0.01805 0.55232 0.0
C1014 C 0.61207 0.00866 0.49993 0.0
C1015 C 0.57948 0.9972 0.56659 0.0
C1016 C 0.64169 0.97939 0.45771 0.0
C1017 C 0.66946 0.01571 0.41289 0.0
N1018 N 0.60093 0.99292 0.53957 0.0
N1019 N 0.64907 0.02006 0.44566 0.0
H1020 H 0.4928 0.68748 0.39067 0.0
H1021 H 0.54952 0.58661 0.61468 0.0
H1022 H 0.56625 0.68303 0.43787 0.0
H1023 H 0.47883 0.58398 0.54047 0.0
H1024 H 0.55436 0.62489 0.56341 0.0
H1025 H 0.48599 0.65251 0.45727 0.0
C1026 C 0.50752 0.67929 0.4151 0.0
C1027 C 0.5302 0.68838 0.40793 0.0
C1028 C 0.53771 0.61605 0.55867 0.0
C1029 C 0.52237 0.64825 0.48531 0.0
C1030 C 0.53493 0.59413 0.58793 0.0
C1031 C 0.51385 0.58177 0.58094 0.0
C1032 C 0.51922 0.62593 0.52238 0.0
C1033 C 0.49542 0.59272 0.54699 0.0
C1034 C 0.50356 0.65933 0.45344 0.0
C1035 C 0.5484 0.67707 0.44224 0.0
N1036 N 0.49859 0.61405 0.51853 0.0
N1037 N 0.54411 0.65764 0.47893 0.0
H1038 H 0.83272 0.49119 0.37516 0.0
H1039 H 0.93795 0.55368 0.57517 0.0
H1040 H 0.84 0.56605 0.39751 0.0
H1041 H 0.93756 0.48017 0.52498 0.0
H1042 H 0.89983 0.55774 0.52133 0.0
H1043 H 0.86878 0.48616 0.43939 0.0
C1044 C 0.84175 0.50662 0.39345 0.0
C1045 C 0.83297 0.52913 0.38025 0.0
C1046 C 0.908 0.54067 0.52225 0.0
C1047 C 0.8745 0.52336 0.45522 0.0
C1048 C 0.92988 0.53833 0.55294 0.0
C1049 C 0.94139 0.51661 0.55372 0.0
C1050 C 0.89719 0.52109 0.49235 0.0
C1051 C 0.92958 0.49729 0.52554 0.0
C1052 C 0.86238 0.50368 0.43054 0.0
C1053 C 0.84556 0.5483 0.40684 0.0
N1054 N 0.90829 0.5 0.49575 0.0
N1055 N 0.86555 0.54497 0.44261 0.0
loop_
_geom_bond_atom_site_label_1
_geom_bond_atom_site_label_2
_geom_bond_distance
_geom_bond_site_symmetry_2
_ccdc_geom_bond_type
C0 C1 1.384 . S
C0 H13 0.947 . S
C0 C35 1.382 . S
C1 C0 1.384 . S
C1 C2 1.378 . S
C2 C1 1.378 . S
C2 C3 1.378 . S
C2 H14 0.952 . S
C3 C2 1.378 . S
C3 H15 0.950 . S
C3 C34 1.383 . S
H4 C23 0.947 . S
H5 C24 0.946 . S
H6 C26 0.953 . S
H7 C27 0.945 . S
H8 C29 0.952 . S
H9 C30 0.949 . S
H10 C32 0.950 . S
H11 C33 0.948 . S
H12 C35 0.951 . S
H13 C0 0.947 . S
H14 C2 0.952 . S
H15 C3 0.950 . S
N16 C19 1.382 . S
N16 C21 1.363 . S
N17 C19 1.371 . S
N17 C20 1.372 . S
N18 C20 1.361 . S
N18 C21 1.377 . S
C19 N16 1.382 . S
C19 N17 1.371 . S
C19 C22 1.480 . S
C20 N17 1.372 . S
C20 N18 1.361 . S
C20 C28 1.457 . S
C21 N16 1.363 . S
C21 N18 1.377 . S
C21 C34 1.479 . S
C22 C19 1.480 . S
C22 C23 1.383 . S
C22 C27 1.385 . S
C23 H4 0.947 . S
C23 C22 1.383 . S
C23 C24 1.388 . S
C24 H5 0.946 . S
C24 C23 1.388 . S
C24 C25 1.384 . S
C25 C24 1.384 . S
C25 C26 1.377 . S
C26 H6 0.953 . S
C26 C25 1.377 . S
C26 C27 1.369 . S
C27 H7 0.945 . S
C27 C22 1.385 . S
C27 C26 1.369 . S
C28 C20 1.457 . S
C28 C29 1.372 . S
C28 C33 1.364 . S
C29 H8 0.952 . S
C29 C28 1.372 . S
C29 C30 1.389 1_554 S
C30 H9 0.949 . S
C30 C29 1.389 1_556 S
C30 C31 1.387 1_556 S
C31 C30 1.387 1_554 S
C31 C32 1.372 . S
C32 H10 0.950 . S
C32 C31 1.372 . S
C32 C33 1.379 . S
C33 H11 0.948 . S
C33 C28 1.364 . S
C33 C32 1.379 . S
C34 C3 1.383 . S
C34 C21 1.479 . S
C34 C35 1.398 . S
C35 C0 1.382 . S
C35 H12 0.951 . S
C35 C34 1.398 . S
C36 C37 1.384 . S
C36 H49 0.947 . S
C36 C71 1.382 . S
C37 C36 1.384 . S
C37 C38 1.378 . S
C38 C37 1.378 . S
C38 C39 1.378 . S
C38 H50 0.952 . S
C39 C38 1.378 . S
C39 H51 0.950 . S
C39 C70 1.383 . S
H40 C59 0.947 . S
H41 C60 0.946 . S
H42 C62 0.953 . S
H43 C63 0.945 . S
H44 C65 0.952 . S
H45 C66 0.946 1_556 S
H46 C68 0.950 . S
H47 C69 0.948 . S
H48 C71 0.951 . S
H49 C36 0.947 . S
H50 C38 0.952 . S
H51 C39 0.950 . S
N52 C55 1.382 . S
N52 C57 1.363 . S
N53 C55 1.371 . S
N53 C56 1.372 . S
N54 C56 1.361 . S
N54 C57 1.377 . S
C55 N52 1.382 . S
C55 N53 1.371 . S
C55 C58 1.480 . S
C56 N53 1.372 . S
C56 N54 1.361 . S
C56 C64 1.457 . S
C57 N52 1.363 . S
C57 N54 1.377 . S
C57 C70 1.479 . S
C58 C55 1.480 . S
C58 C59 1.383 . S
C58 C63 1.385 . S
C59 H40 0.947 . S
C59 C58 1.383 . S
C59 C60 1.388 . S
C60 H41 0.946 . S
C60 C59 1.388 . S
C60 C61 1.384 . S
C61 C60 1.384 . S
C61 C62 1.377 . S
C62 H42 0.953 . S
C62 C61 1.377 . S
C62 C63 1.369 . S
C63 H43 0.945 . S
C63 C58 1.385 . S
C63 C62 1.369 . S
C64 C56 1.457 . S
C64 C65 1.372 . S
C64 C69 1.364 . S
C65 H44 0.952 . S
C65 C64 1.372 . S
C65 C66 1.391 . S
C66 H45 0.946 1_554 S
C66 C65 1.391 . S
C66 C67 1.387 . S
C67 C66 1.387 . S
C67 C68 1.372 . S
C68 H46 0.950 . S
C68 C67 1.372 . S
C68 C69 1.379 . S
C69 H47 0.948 . S
C69 C64 1.364 . S
C69 C68 1.379 . S
C70 C39 1.383 . S
C70 C57 1.479 . S
C70 C71 1.398 . S
C71 C36 1.382 . S
C71 H48 0.951 . S
C71 C70 1.398 . S
C72 C73 1.384 . S
C72 H85 0.947 . S
C72 C107 1.382 . S
C73 C72 1.384 . S
C73 C74 1.378 . S
C74 C73 1.378 . S
C74 C75 1.378 . S
C74 H86 0.952 . S
C75 C74 1.378 . S
C75 H87 0.950 . S
C75 C106 1.383 . S
H76 C95 0.947 . S
H77 C96 0.946 . S
H78 C98 0.953 . S
H79 C99 0.945 . S
H80 C101 0.952 . S
H81 C102 0.949 1_556 S
H82 C104 0.950 . S
H83 C105 0.948 . S
H84 C107 0.951 . S
H85 C72 0.947 . S
H86 C74 0.952 . S
H87 C75 0.950 . S
N88 C91 1.382 . S
N88 C93 1.363 . S
N89 C91 1.371 . S
N89 C92 1.372 . S
N90 C92 1.361 . S
N90 C93 1.377 . S
C91 N88 1.382 . S
C91 N89 1.371 . S
C91 C94 1.480 . S
C92 N89 1.372 . S
C92 N90 1.361 . S
C92 C100 1.457 . S
C93 N88 1.363 . S
C93 N90 1.377 . S
C93 C106 1.479 . S
C94 C91 1.480 . S
C94 C95 1.383 . S
C94 C99 1.385 . S
C95 H76 0.947 . S
C95 C94 1.383 . S
C95 C96 1.388 . S
C96 H77 0.946 . S
C96 C95 1.388 . S
C96 C97 1.384 . S
C97 C96 1.384 . S
C97 C98 1.377 . S
C98 H78 0.953 . S
C98 C97 1.377 . S
C98 C99 1.369 . S
C99 H79 0.945 . S
C99 C94 1.385 . S
C99 C98 1.369 . S
C100 C92 1.457 . S
C100 C101 1.372 . S
C100 C105 1.364 . S
C101 H80 0.952 . S
C101 C100 1.372 . S
C101 C102 1.389 . S
C102 H81 0.949 1_554 S
C102 C101 1.389 . S
C102 C103 1.387 . S
C103 C102 1.387 . S
C103 C104 1.372 . S
C104 H82 0.950 . S
C104 C103 1.372 . S
C104 C105 1.379 . S
C105 H83 0.948 . S
C105 C100 1.364 . S
C105 C104 1.379 . S
C106 C75 1.383 . S
C106 C93 1.479 . S
C106 C107 1.398 . S
C107 C72 1.382 . S
C107 H84 0.951 . S
C107 C106 1.398 . S
C108 C109 1.384 . S
C108 H121 0.947 . S
C108 C143 1.382 . S
C109 C108 1.384 . S
C109 C110 1.378 1_554 S
C110 C109 1.378 1_556 S
C110 C111 1.378 1_556 S
C110 H122 0.952 . S
C111 C110 1.378 1_554 S
C111 H123 0.950 . S
C111 C142 1.383 . S
H112 C131 0.947 . S
H113 C132 0.946 . S
H114 C134 0.953 . S
H115 C135 0.945 . S
H116 C137 0.952 . S
H117 C138 0.949 . S
H118 C140 0.950 . S
H119 C141 0.948 . S
H120 C143 0.951 . S
H121 C108 0.947 . S
H122 C110 0.952 . S
H123 C111 0.950 . S
N124 C127 1.382 . S
N124 C129 1.363 . S
N125 C127 1.371 . S
N125 C128 1.372 . S
N126 C128 1.361 . S
N126 C129 1.377 . S
C127 N124 1.382 . S
C127 N125 1.371 . S
C127 C130 1.480 . S
C128 N125 1.372 . S
C128 N126 1.361 . S
C128 C136 1.457 . S
C129 N124 1.363 . S
C129 N126 1.377 . S
C129 C142 1.479 . S
C130 C127 1.480 . S
C130 C131 1.383 . S
C130 C135 1.385 . S
C131 H112 0.947 . S
C131 C130 1.383 . S
C131 C132 1.388 . S
C132 H113 0.946 . S
C132 C131 1.388 . S
C132 C133 1.384 . S
C133 C132 1.384 . S
C133 C134 1.377 . S
C134 H114 0.953 . S
C134 C133 1.377 . S
C134 C135 1.369 . S
C135 H115 0.945 . S
C135 C130 1.385 . S
C135 C134 1.369 . S
C136 C128 1.457 . S
C136 C137 1.372 . S
C136 C141 1.364 . S
C137 H116 0.952 . S
C137 C136 1.372 . S
C137 C138 1.389 . S
C138 H117 0.949 . S
C138 C137 1.389 . S
C138 C139 1.387 . S
C139 C138 1.387 . S
C139 C140 1.372 . S
C140 H118 0.950 . S
C140 C139 1.372 . S
C140 C141 1.379 . S
C141 H119 0.948 . S
C141 C136 1.364 . S
C141 C140 1.379 . S
C142 C111 1.383 . S
C142 C129 1.479 . S
C142 C143 1.398 . S
C143 C108 1.382 . S
C143 H120 0.951 . S
C143 C142 1.398 . S
C144 C145 1.384 . S
C144 H157 0.947 . S
C144 C179 1.382 . S
C145 C144 1.384 . S
C145 C146 1.378 . S
C146 C145 1.378 . S
C146 C147 1.378 . S
C146 H158 0.952 . S
C147 C146 1.378 . S
C147 H159 0.950 . S
C147 C178 1.383 . S
H148 C167 0.947 1_556 S
H149 C168 0.946 1_556 S
H150 C170 0.953 . S
H151 C171 0.945 . S
H152 C173 0.952 . S
H153 C174 0.949 . S
H154 C176 0.950 . S
H155 C177 0.948 . S
H156 C179 0.951 . S
H157 C144 0.947 . S
H158 C146 0.952 . S
H159 C147 0.950 . S
N160 C163 1.382 1_556 S
N160 C165 1.363 . S
N161 C163 1.371 . S
N161 C164 1.372 . S
N162 C164 1.361 . S
N162 C165 1.377 1_554 S
C163 N160 1.382 1_554 S
C163 N161 1.371 . S
C163 C166 1.480 . S
C164 N161 1.372 . S
C164 N162 1.361 . S
C164 C172 1.457 . S
C165 N160 1.363 . S
C165 N162 1.377 1_556 S
C165 C178 1.479 . S
C166 C163 1.480 . S
C166 C167 1.383 . S
C166 C171 1.385 . S
C167 H148 0.947 1_554 S
C167 C166 1.383 . S
C167 C168 1.388 . S
C168 H149 0.946 1_554 S
C168 C167 1.388 . S
C168 C169 1.384 . S
C169 C168 1.384 . S
C169 C170 1.377 . S
C170 H150 0.953 . S
C170 C169 1.377 . S
C170 C171 1.369 . S
C171 H151 0.945 . S
C171 C166 1.385 . S
C171 C170 1.369 . S
C172 C164 1.457 . S
C172 C173 1.372 . S
C172 C177 1.364 . S
C173 H152 0.952 . S
C173 C172 1.372 . S
C173 C174 1.389 . S
C174 H153 0.949 . S
C174 C173 1.389 . S
C174 C175 1.387 . S
C175 C174 1.387 . S
C175 C176 1.372 . S
C176 H154 0.950 . S
C176 C175 1.372 . S
C176 C177 1.379 . S
C177 H155 0.948 . S
C177 C172 1.364 . S
C177 C176 1.379 . S
C178 C147 1.383 . S
C178 C165 1.479 . S
C178 C179 1.398 . S
C179 C144 1.382 . S
C179 H156 0.951 . S
C179 C178 1.398 . S
C180 C181 1.384 . S
C180 H193 0.947 . S
C180 C215 1.382 . S
C181 C180 1.384 . S
C181 C182 1.378 . S
C182 C181 1.378 . S
C182 C183 1.378 . S
C182 H194 0.952 . S
C183 C182 1.378 . S
C183 H195 0.950 . S
C183 C214 1.383 . S
H184 C203 0.947 1_556 S
H185 C204 0.946 1_556 S
H186 C206 0.953 . S
H187 C207 0.945 . S
H188 C209 0.952 . S
H189 C210 0.949 . S
H190 C212 0.950 . S
H191 C213 0.948 . S
H192 C215 0.951 . S
H193 C180 0.947 . S
H194 C182 0.952 . S
H195 C183 0.950 . S
N196 C199 1.382 1_556 S
N196 C201 1.363 . S
N197 C199 1.371 . S
N197 C200 1.372 . S
N198 C200 1.361 . S
N198 C201 1.377 1_554 S
C199 N196 1.382 1_554 S
C199 N197 1.371 . S
C199 C202 1.480 . S
C200 N197 1.372 . S
C200 N198 1.361 . S
C200 C208 1.457 . S
C201 N196 1.363 . S
C201 N198 1.377 1_556 S
C201 C214 1.479 . S
C202 C199 1.480 . S
C202 C203 1.383 . S
C202 C207 1.385 . S
C203 H184 0.947 1_554 S
C203 C202 1.383 . S
C203 C204 1.388 . S
C204 H185 0.946 1_554 S
C204 C203 1.388 . S
C204 C205 1.384 . S
C205 C204 1.384 . S
C205 C206 1.377 . S
C206 H186 0.953 . S
C206 C205 1.377 . S
C206 C207 1.369 . S
C207 H187 0.945 . S
C207 C202 1.385 . S
C207 C206 1.369 . S
C208 C200 1.457 . S
C208 C209 1.372 . S
C208 C213 1.364 . S
C209 H188 0.952 . S
C209 C208 1.372 . S
C209 C210 1.389 . S
C210 H189 0.949 . S
C210 C209 1.389 . S
C210 C211 1.387 . S
C211 C210 1.387 . S
C211 C212 1.372 . S
C212 H190 0.950 . S
C212 C211 1.372 . S
C212 C213 1.379 . S
C213 H191 0.948 . S
C213 C208 1.364 . S
C213 C212 1.379 . S
C214 C183 1.383 . S
C214 C201 1.479 . S
C214 C215 1.398 . S
C215 C180 1.382 . S
C215 H192 0.951 . S
C215 C214 1.398 . S
C216 C217 1.384 . S
C216 H229 0.947 . S
C216 C251 1.382 . S
C217 C216 1.384 . S
C217 C218 1.378 . S
C218 C217 1.378 . S
C218 C219 1.378 . S
C218 H230 0.952 . S
C219 C218 1.378 . S
C219 H231 0.950 . S
C219 C250 1.383 . S
H220 C239 0.931 1_556 S
H221 C240 0.946 1_556 S
H222 C242 0.953 . S
H223 C243 0.945 . S
H224 C245 0.952 . S
H225 C246 0.949 . S
H226 C248 0.950 . S
H227 C249 0.948 . S
H228 C251 0.951 . S
H229 C216 0.947 . S
H230 C218 0.952 . S
H231 C219 0.950 . S
N232 C235 1.382 1_556 S
N232 C237 1.363 . S
N233 C235 1.371 . S
N233 C236 1.372 . S
N234 C236 1.361 . S
N234 C237 1.377 1_554 S
C235 N232 1.382 1_554 S
C235 N233 1.371 . S
C235 C238 1.480 . S
C236 N233 1.372 . S
C236 N234 1.361 . S
C236 C244 1.457 . S
C237 N232 1.363 . S
C237 N234 1.377 1_556 S
C237 C250 1.479 . S
C238 C235 1.480 . S
C238 C239 1.395 . S
C238 C243 1.385 . S
C239 H220 0.931 1_554 S
C239 C238 1.395 . S
C239 C240 1.392 . S
C240 H221 0.946 1_554 S
C240 C239 1.392 . S
C240 C241 1.384 . S
C241 C240 1.384 . S
C241 C242 1.377 . S
C242 H222 0.953 . S
C242 C241 1.377 . S
C242 C243 1.369 . S
C243 H223 0.945 . S
C243 C238 1.385 . S
C243 C242 1.369 . S
C244 C236 1.457 . S
C244 C245 1.372 . S
C244 C249 1.364 . S
C245 H224 0.952 . S
C245 C244 1.372 . S
C245 C246 1.389 . S
C246 H225 0.949 . S
C246 C245 1.389 . S
C246 C247 1.387 . S
C247 C246 1.387 . S
C247 C248 1.372 . S
C248 H226 0.950 . S
C248 C247 1.372 . S
C248 C249 1.379 . S
C249 H227 0.948 . S
C249 C244 1.364 . S
C249 C248 1.379 . S
C250 C219 1.383 . S
C250 C237 1.479 . S
C250 C251 1.398 . S
C251 C216 1.382 . S
C251 H228 0.951 . S
C251 C250 1.398 . S
C252 C253 1.384 . S
C252 H265 0.947 . S
C252 C287 1.382 . S
C253 C252 1.384 . S
C253 C254 1.378 . S
C254 C253 1.378 . S
C254 C255 1.378 . S
C254 H266 0.952 . S
C255 C254 1.378 . S
C255 H267 0.950 . S
C255 C286 1.383 . S
H256 C275 0.947 . S
H257 C276 0.946 . S
H258 C278 0.953 1_556 S
H259 C279 0.945 1_556 S
H260 C281 0.952 . S
H261 C282 0.949 . S
H262 C284 0.950 . S
H263 C285 0.948 . S
H264 C287 0.951 . S
H265 C252 0.947 . S
H266 C254 0.952 . S
H267 C255 0.950 . S
N268 C271 1.382 . S
N268 C273 1.363 . S
N269 C271 1.371 1_556 S
N269 C272 1.372 . S
N270 C272 1.361 1_554 S
N270 C273 1.377 . S
C271 N268 1.382 . S
C271 N269 1.371 1_554 S
C271 C274 1.480 . S
C272 N269 1.372 . S
C272 N270 1.361 1_556 S
C272 C280 1.457 . S
C273 N268 1.363 . S
C273 N270 1.377 . S
C273 C286 1.479 . S
C274 C271 1.480 . S
C274 C275 1.383 . S
C274 C279 1.385 . S
C275 H256 0.947 . S
C275 C274 1.383 . S
C275 C276 1.388 . S
C276 H257 0.946 . S
C276 C275 1.388 . S
C276 C277 1.384 . S
C277 C276 1.384 . S
C277 C278 1.377 . S
C278 H258 0.953 1_554 S
C278 C277 1.377 . S
C278 C279 1.369 . S
C279 H259 0.945 1_554 S
C279 C274 1.385 . S
C279 C278 1.369 . S
C280 C272 1.457 . S
C280 C281 1.372 . S
C280 C285 1.364 . S
C281 H260 0.952 . S
C281 C280 1.372 . S
C281 C282 1.389 . S
C282 H261 0.949 . S
C282 C281 1.389 . S
C282 C283 1.387 . S
C283 C282 1.387 . S
C283 C284 1.372 . S
C284 H262 0.950 . S
C284 C283 1.372 . S
C284 C285 1.379 . S
C285 H263 0.948 . S
C285 C280 1.364 . S
C285 C284 1.379 . S
C286 C255 1.383 . S
C286 C273 1.479 . S
C286 C287 1.398 . S
C287 C252 1.382 . S
C287 H264 0.951 . S
C287 C286 1.398 . S
Gd288 N319 2.659 1_545 S
Gd288 N325 2.601 . S
Gd288 O332 2.545 . S
Gd288 O333 2.606 1_655 S
Gd288 O335 2.429 . S
Gd288 O336 2.545 1_655 S
Gd288 O337 2.412 . S
Gd288 O339 2.362 1_545 S
Gd288 O340 2.324 1_655 S
Gd288 C347 2.828 . S
Gd289 N298 2.661 1_565 S
Gd289 N302 2.601 . S
Gd289 O333 2.362 1_565 S
Gd289 O334 2.324 1_455 S
Gd289 O338 2.545 . S
Gd289 O339 2.606 1_455 S
Gd289 O341 2.429 . S
Gd289 O342 2.545 . S
Gd289 O343 2.412 . S
Gd289 C356 2.828 . S
C290 C293 1.417 . S
C290 C295 1.431 . S
C290 C296 1.412 . S
C291 C294 1.437 . S
C291 C295 1.317 . S
C291 H310 0.929 . S
C292 C293 1.426 . S
C292 C294 1.413 . S
C292 N302 1.359 1_545 S
C293 C290 1.417 . S
C293 C292 1.426 . S
C293 N298 1.350 . S
C294 C291 1.437 . S
C294 C292 1.413 . S
C294 C304 1.378 1_545 S
C295 C290 1.431 . S
C295 C291 1.317 . S
C295 H306 0.930 . S
C296 C290 1.412 . S
C296 C297 1.355 . S
C296 H308 0.930 . S
C297 C296 1.355 . S
C297 C299 1.402 . S
C297 H309 0.930 1_455 S
N298 Gd289 2.661 1_545 S
N298 C293 1.350 . S
N298 C299 1.307 . S
C299 C297 1.402 . S
C299 N298 1.307 . S
C299 H300 0.930 1_455 S
H300 C299 0.930 1_655 S
C301 N302 1.334 . S
C301 C303 1.394 . S
C301 H305 0.930 . S
N302 Gd289 2.601 . S
N302 C292 1.359 1_565 S
N302 C301 1.334 . S
C303 C301 1.394 . S
C303 C304 1.375 . S
C303 H315 0.930 . S
C304 C294 1.378 1_565 S
C304 C303 1.375 . S
C304 H316 0.926 1_565 S
H305 C301 0.930 . S
H306 C295 0.930 . S
H307 C324 0.930 . S
H308 C296 0.930 . S
H309 C297 0.930 1_655 S
H310 C291 0.929 . S
H311 C329 0.930 . S
H312 C320 0.930 . S
H313 C321 0.942 . S
H314 C345 0.929 . S
H315 C303 0.930 . S
H316 C304 0.926 1_545 S
H317 C346 0.930 . S
H318 C327 0.930 . S
N319 Gd288 2.659 1_565 S
N319 C323 1.351 . S
N319 C324 1.308 1_655 S
C320 H312 0.930 . S
C320 C321 1.341 1_655 S
C320 C322 1.412 . S
C321 H313 0.942 . S
C321 C320 1.341 1_455 S
C321 C324 1.403 . S
C322 C320 1.412 . S
C322 C323 1.417 . S
C322 C346 1.431 . S
C323 N319 1.351 . S
C323 C322 1.417 . S
C323 C326 1.426 1_565 S
C324 H307 0.930 . S
C324 N319 1.308 1_455 S
C324 C321 1.403 . S
N325 Gd288 2.601 . S
N325 C326 1.359 . S
N325 C329 1.334 . S
C326 C323 1.426 1_545 S
C326 N325 1.359 . S
C326 C330 1.413 . S
C327 H318 0.930 . S
C327 C328 1.359 . S
C327 C329 1.394 . S
C328 C327 1.359 . S
C328 C330 1.391 . S
C328 H331 0.929 . S
C329 H311 0.930 . S
C329 N325 1.334 . S
C329 C327 1.394 . S
C330 C326 1.413 . S
C330 C328 1.391 . S
C330 C345 1.437 1_545 S
H331 C328 0.929 . S
O332 Gd288 2.545 . S
O332 C347 1.258 . S
O333 Gd288 2.606 1_455 S
O333 Gd289 2.362 1_545 S
O333 C344 1.284 . S
O334 Gd289 2.324 1_655 S
O334 C354 1.254 1_565 S
O335 Gd288 2.429 . S
O335 C354 1.268 . S
O336 Gd288 2.545 1_455 S
O336 C344 1.250 . S
O337 Gd288 2.412 . S
O337 C347 1.252 . S
O338 Gd289 2.545 . S
O338 C356 1.258 . S
O339 Gd288 2.362 1_565 S
O339 Gd289 2.606 1_655 S
O339 C355 1.284 . S
O340 Gd288 2.324 1_455 S
O340 C363 1.254 . S
O341 Gd289 2.429 . S
O341 C363 1.268 1_565 S
O342 Gd289 2.545 . S
O342 C355 1.250 1_455 S
O343 Gd289 2.412 . S
O343 C356 1.252 . S
C344 O333 1.284 . S
C344 O336 1.250 . S
C345 H314 0.929 . S
C345 C330 1.437 1_565 S
C345 C346 1.317 . S
C346 H317 0.930 . S
C346 C322 1.431 . S
C346 C345 1.317 . S
C347 Gd288 2.828 . S
C347 O332 1.258 . S
C347 O337 1.252 . S
C347 C348 1.497 . S
C348 C347 1.497 . S
C348 C349 1.395 . S
C348 C350 1.380 . S
C349 C348 1.395 . S
C349 C352 1.398 . S
C349 H364 0.930 . S
C350 C348 1.380 . S
C350 C351 1.391 . S
C350 H365 0.930 1_655 S
C351 C350 1.391 . S
C351 C353 1.387 . S
C352 C349 1.398 . S
C352 C353 1.380 . S
C352 H366 0.930 . S
C353 C351 1.387 . S
C353 C352 1.380 . S
C353 H367 0.930 . S
C354 O334 1.254 1_545 S
C354 O335 1.268 . S
C355 O339 1.284 . S
C355 O342 1.250 1_655 S
C356 Gd289 2.828 . S
C356 O338 1.258 . S
C356 O343 1.252 . S
C356 C357 1.497 . S
C357 C356 1.497 . S
C357 C358 1.395 . S
C357 C359 1.380 . S
C358 C357 1.395 . S
C358 C361 1.398 . S
C358 H368 0.930 . S
C359 C357 1.380 . S
C359 C360 1.391 . S
C359 H369 0.916 1_455 S
C360 C359 1.391 . S
C360 C362 1.387 . S
C361 C358 1.398 . S
C361 C362 1.380 . S
C361 H370 0.930 . S
C362 C360 1.387 . S
C362 C361 1.380 . S
C362 H371 0.930 . S
C363 O340 1.254 . S
C363 O341 1.268 1_545 S
H364 C349 0.930 . S
H365 C350 0.930 1_455 S
H366 C352 0.930 . S
H367 C353 0.930 . S
H368 C358 0.930 . S
H369 C359 0.916 1_655 S
H370 C361 0.930 . S
H371 C362 0.930 . S
Gd372 N403 2.661 . S
Gd372 N409 2.601 . S
Gd372 O416 2.545 . S
Gd372 O417 2.606 1_565 S
Gd372 O419 2.429 . S
Gd372 O420 2.545 1_565 S
Gd372 O421 2.412 . S
Gd372 O423 2.362 . S
Gd372 O424 2.324 1_565 S
Gd372 C431 2.828 . S
Gd373 N382 2.661 . S
Gd373 N386 2.601 . S
Gd373 O417 2.362 . S
Gd373 O418 2.324 1_545 S
Gd373 O422 2.545 . S
Gd373 O423 2.606 1_545 S
Gd373 O425 2.429 . S
Gd373 O426 2.545 . S
Gd373 O427 2.412 . S
Gd373 C440 2.828 . S
C374 C377 1.417 . S
C374 C379 1.431 . S
C374 C380 1.412 . S
C375 C378 1.437 . S
C375 C379 1.317 . S
C375 H394 0.929 . S
C376 C377 1.426 . S
C376 C378 1.413 . S
C376 N386 1.359 . S
C377 C374 1.417 . S
C377 C376 1.426 . S
C377 N382 1.350 . S
C378 C375 1.437 . S
C378 C376 1.413 . S
C378 C388 1.391 . S
C379 C374 1.431 . S
C379 C375 1.317 . S
C379 H390 0.930 . S
C380 C374 1.412 . S
C380 C381 1.355 . S
C380 H392 0.930 . S
C381 C380 1.355 . S
C381 C383 1.402 . S
C381 H393 0.930 1_545 S
N382 Gd373 2.661 . S
N382 C377 1.350 . S
N382 C383 1.307 . S
C383 C381 1.402 . S
C383 N382 1.307 . S
C383 H384 0.930 1_545 S
H384 C383 0.930 1_565 S
C385 N386 1.334 . S
C385 C387 1.394 . S
C385 H389 0.930 . S
N386 Gd373 2.601 . S
N386 C376 1.359 . S
N386 C385 1.334 . S
C387 C385 1.394 . S
C387 C388 1.359 . S
C387 H399 0.930 . S
C388 C378 1.391 . S
C388 C387 1.359 . S
C388 H400 0.929 . S
H389 C385 0.930 . S
H390 C379 0.930 . S
H391 C408 0.930 . S
H392 C380 0.930 . S
H393 C381 0.930 1_565 S
H394 C375 0.929 . S
H395 C413 0.930 . S
H396 C404 0.930 . S
H397 C405 0.930 . S
H398 C429 0.929 . S
H399 C387 0.930 . S
H400 C388 0.929 . S
H401 C430 0.930 . S
H402 C411 0.930 . S
N403 Gd372 2.661 . S
N403 C407 1.350 . S
N403 C408 1.307 1_565 S
C404 H396 0.930 . S
C404 C405 1.355 1_565 S
C404 C406 1.412 . S
C405 H397 0.930 . S
C405 C404 1.355 1_545 S
C405 C408 1.402 . S
C406 C404 1.412 . S
C406 C407 1.417 . S
C406 C430 1.431 . S
C407 N403 1.350 . S
C407 C406 1.417 . S
C407 C410 1.426 . S
C408 H391 0.930 . S
C408 N403 1.307 1_545 S
C408 C405 1.402 . S
N409 Gd372 2.601 . S
N409 C410 1.359 . S
N409 C413 1.334 . S
C410 C407 1.426 . S
C410 N409 1.359 . S
C410 C414 1.413 . S
C411 H402 0.930 . S
C411 C412 1.359 . S
C411 C413 1.394 . S
C412 C411 1.359 . S
C412 C414 1.391 . S
C412 H415 0.929 . S
C413 H395 0.930 . S
C413 N409 1.334 . S
C413 C411 1.394 . S
C414 C410 1.413 . S
C414 C412 1.391 . S
C414 C429 1.437 . S
H415 C412 0.929 . S
O416 Gd372 2.545 . S
O416 C431 1.258 . S
O417 Gd372 2.606 1_545 S
O417 Gd373 2.362 . S
O417 C428 1.284 . S
O418 Gd373 2.324 1_565 S
O418 C438 1.254 . S
O419 Gd372 2.429 . S
O419 C438 1.268 . S
O420 Gd372 2.545 1_545 S
O420 C428 1.250 . S
O421 Gd372 2.412 . S
O421 C431 1.252 . S
O422 Gd373 2.545 . S
O422 C440 1.258 . S
O423 Gd372 2.362 . S
O423 Gd373 2.606 1_565 S
O423 C439 1.284 . S
O424 Gd372 2.324 1_545 S
O424 C447 1.254 . S
O425 Gd373 2.429 . S
O425 C447 1.268 . S
O426 Gd373 2.545 . S
O426 C439 1.250 1_545 S
O427 Gd373 2.412 . S
O427 C440 1.252 . S
C428 O417 1.284 . S
C428 O420 1.250 . S
C429 H398 0.929 . S
C429 C414 1.437 . S
C429 C430 1.317 . S
C430 H401 0.930 . S
C430 C406 1.431 . S
C430 C429 1.317 . S
C431 Gd372 2.828 . S
C431 O416 1.258 . S
C431 O421 1.252 . S
C431 C432 1.497 . S
C432 C431 1.497 . S
C432 C433 1.395 . S
C432 C434 1.380 . S
C433 C432 1.395 . S
C433 C436 1.398 . S
C433 H448 0.930 . S
C434 C432 1.380 . S
C434 C435 1.391 . S
C434 H449 0.930 1_565 S
C435 C434 1.391 . S
C435 C437 1.387 . S
C436 C433 1.398 . S
C436 C437 1.380 . S
C436 H450 0.930 . S
C437 C435 1.387 . S
C437 C436 1.380 . S
C437 H451 0.930 . S
C438 O418 1.254 . S
C438 O419 1.268 . S
C439 O423 1.284 . S
C439 O426 1.250 1_565 S
C440 Gd373 2.828 . S
C440 O422 1.258 . S
C440 O427 1.252 . S
C440 C441 1.497 . S
C441 C440 1.497 . S
C441 C442 1.395 . S
C441 C443 1.380 . S
C442 C441 1.395 . S
C442 C445 1.398 . S
C442 H452 0.930 . S
C443 C441 1.380 . S
C443 C444 1.391 . S
C443 H453 0.930 . S
C444 C443 1.391 . S
C444 C446 1.387 . S
C445 C442 1.398 . S
C445 C446 1.380 . S
C445 H454 0.930 . S
C446 C444 1.387 . S
C446 C445 1.380 . S
C446 H455 0.930 . S
C447 O424 1.254 . S
C447 O425 1.268 . S
H448 C433 0.930 . S
H449 C434 0.930 1_545 S
H450 C436 0.930 . S
H451 C437 0.930 . S
H452 C442 0.930 . S
H453 C443 0.930 . S
H454 C445 0.930 . S
H455 C446 0.930 . S
Gd456 N487 2.661 . S
Gd456 N493 2.601 . S
Gd456 O500 2.545 . S
Gd456 O501 2.606 . S
Gd456 O503 2.429 . S
Gd456 O504 2.545 . S
Gd456 O505 2.412 . S
Gd456 O507 2.362 . S
Gd456 O508 2.324 . S
Gd456 C515 2.828 . S
Gd457 N466 2.661 . S
Gd457 N470 2.601 . S
Gd457 O501 2.362 . S
Gd457 O502 2.324 . S
Gd457 O506 2.545 . S
Gd457 O507 2.606 . S
Gd457 O509 2.429 . S
Gd457 O510 2.545 . S
Gd457 O511 2.412 . S
Gd457 C524 2.828 . S
C458 C461 1.417 . S
C458 C463 1.431 . S
C458 C464 1.412 . S
C459 C462 1.437 . S
C459 C463 1.317 . S
C459 H478 0.929 . S
C460 C461 1.426 . S
C460 C462 1.413 . S
C460 N470 1.359 . S
C461 C458 1.417 . S
C461 C460 1.426 . S
C461 N466 1.350 . S
C462 C459 1.437 . S
C462 C460 1.413 . S
C462 C472 1.391 . S
C463 C458 1.431 . S
C463 C459 1.317 . S
C463 H474 0.930 . S
C464 C458 1.412 . S
C464 C465 1.355 . S
C464 H476 0.930 . S
C465 C464 1.355 . S
C465 C467 1.402 . S
C465 H477 0.930 . S
N466 Gd457 2.661 . S
N466 C461 1.350 . S
N466 C467 1.307 . S
C467 C465 1.402 . S
C467 N466 1.307 . S
C467 H468 0.930 . S
H468 C467 0.930 . S
C469 N470 1.334 . S
C469 C471 1.394 . S
C469 H473 0.930 . S
N470 Gd457 2.601 . S
N470 C460 1.359 . S
N470 C469 1.334 . S
C471 C469 1.394 . S
C471 C472 1.359 . S
C471 H483 0.930 . S
C472 C462 1.391 . S
C472 C471 1.359 . S
C472 H484 0.929 . S
H473 C469 0.930 . S
H474 C463 0.930 . S
H475 C492 0.930 . S
H476 C464 0.930 . S
H477 C465 0.930 . S
H478 C459 0.929 . S
H479 C497 0.930 . S
H480 C488 0.930 . S
H481 C489 0.930 . S
H482 C513 0.929 . S
H483 C471 0.930 . S
H484 C472 0.929 . S
H485 C514 0.930 . S
H486 C495 0.930 . S
N487 Gd456 2.661 . S
N487 C491 1.350 . S
N487 C492 1.307 . S
C488 H480 0.930 . S
C488 C489 1.355 . S
C488 C490 1.412 . S
C489 H481 0.930 . S
C489 C488 1.355 . S
C489 C492 1.402 . S
C490 C488 1.412 . S
C490 C491 1.417 . S
C490 C514 1.431 . S
C491 N487 1.350 . S
C491 C490 1.417 . S
C491 C494 1.426 . S
C492 H475 0.930 . S
C492 N487 1.307 . S
C492 C489 1.402 . S
N493 Gd456 2.601 . S
N493 C494 1.359 . S
N493 C497 1.334 . S
C494 C491 1.426 . S
C494 N493 1.359 . S
C494 C498 1.413 . S
C495 H486 0.930 . S
C495 C496 1.359 . S
C495 C497 1.394 . S
C496 C495 1.359 . S
C496 C498 1.391 . S
C496 H499 0.929 . S
C497 H479 0.930 . S
C497 N493 1.334 . S
C497 C495 1.394 . S
C498 C494 1.413 . S
C498 C496 1.391 . S
C498 C513 1.437 . S
H499 C496 0.929 . S
O500 Gd456 2.545 . S
O500 C515 1.258 . S
O501 Gd456 2.606 . S
O501 Gd457 2.362 . S
O501 C512 1.284 . S
O502 Gd457 2.324 . S
O502 C522 1.254 . S
O503 Gd456 2.429 . S
O503 C522 1.268 . S
O504 Gd456 2.545 . S
O504 C512 1.250 . S
O505 Gd456 2.412 . S
O505 C515 1.252 . S
O506 Gd457 2.545 . S
O506 C524 1.258 . S
O507 Gd456 2.362 . S
O507 Gd457 2.606 . S
O507 C523 1.284 . S
O508 Gd456 2.324 . S
O508 C531 1.254 . S
O509 Gd457 2.429 . S
O509 C531 1.268 . S
O510 Gd457 2.545 . S
O510 C523 1.250 . S
O511 Gd457 2.412 . S
O511 C524 1.252 . S
C512 O501 1.284 . S
C512 O504 1.250 . S
C513 H482 0.929 . S
C513 C498 1.437 . S
C513 C514 1.317 . S
C514 H485 0.930 . S
C514 C490 1.431 . S
C514 C513 1.317 . S
C515 Gd456 2.828 . S
C515 O500 1.258 . S
C515 O505 1.252 . S
C515 C516 1.497 . S
C516 C515 1.497 . S
C516 C517 1.395 . S
C516 C518 1.380 . S
C517 C516 1.395 . S
C517 C520 1.398 . S
C517 H532 0.930 . S
C518 C516 1.380 . S
C518 C519 1.391 . S
C518 H533 0.930 . S
C519 C518 1.391 . S
C519 C521 1.387 . S
C520 C517 1.398 . S
C520 C521 1.380 . S
C520 H534 0.930 . S
C521 C519 1.387 . S
C521 C520 1.380 . S
C521 H535 0.930 . S
C522 O502 1.254 . S
C522 O503 1.268 . S
C523 O507 1.284 . S
C523 O510 1.250 . S
C524 Gd457 2.828 . S
C524 O506 1.258 . S
C524 O511 1.252 . S
C524 C525 1.497 . S
C525 C524 1.497 . S
C525 C526 1.395 . S
C525 C527 1.380 . S
C526 C525 1.395 . S
C526 C529 1.398 . S
C526 H536 0.930 . S
C527 C525 1.380 . S
C527 C528 1.391 . S
C527 H537 0.930 . S
C528 C527 1.391 . S
C528 C530 1.387 . S
C529 C526 1.398 . S
C529 C530 1.380 . S
C529 H538 0.930 . S
C530 C528 1.387 . S
C530 C529 1.380 . S
C530 H539 0.930 . S
C531 O508 1.254 . S
C531 O509 1.268 . S
H532 C517 0.930 . S
H533 C518 0.930 . S
H534 C520 0.930 . S
H535 C521 0.930 . S
H536 C526 0.930 . S
H537 C527 0.930 . S
H538 C529 0.930 . S
H539 C530 0.930 . S
Gd540 N571 2.661 . S
Gd540 N577 2.601 . S
Gd540 O584 2.545 . S
Gd540 O585 2.601 1_655 S
Gd540 O587 2.429 1_655 S
Gd540 O588 2.545 . S
Gd540 O589 2.412 . S
Gd540 O591 2.362 1_655 S
Gd540 O592 2.324 . S
Gd540 C599 2.828 . S
Gd541 N550 2.661 . S
Gd541 N554 2.601 . S
Gd541 O585 2.370 . S
Gd541 O586 2.324 . S
Gd541 O590 2.545 . S
Gd541 O591 2.606 . S
Gd541 O593 2.429 1_455 S
Gd541 O594 2.545 . S
Gd541 O595 2.412 . S
Gd541 C608 2.828 . S
C542 C545 1.417 . S
C542 C547 1.431 . S
C542 C548 1.412 . S
C543 C546 1.437 . S
C543 C547 1.317 . S
C543 H562 0.929 . S
C544 C545 1.426 . S
C544 C546 1.413 . S
C544 N554 1.359 . S
C545 C542 1.417 . S
C545 C544 1.426 . S
C545 N550 1.350 . S
C546 C543 1.437 . S
C546 C544 1.413 . S
C546 C556 1.391 . S
C547 C542 1.431 . S
C547 C543 1.317 . S
C547 H558 0.930 . S
C548 C542 1.412 . S
C548 C549 1.355 . S
C548 H560 0.930 . S
C549 C548 1.355 . S
C549 C551 1.402 . S
C549 H561 0.930 . S
N550 Gd541 2.661 . S
N550 C545 1.350 . S
N550 C551 1.307 . S
C551 C549 1.402 . S
C551 N550 1.307 . S
C551 H552 0.930 . S
H552 C551 0.930 . S
C553 N554 1.334 . S
C553 C555 1.398 . S
C553 H557 0.930 1_455 S
N554 Gd541 2.601 . S
N554 C544 1.359 . S
N554 C553 1.334 . S
C555 C553 1.398 . S
C555 C556 1.375 . S
C555 H567 0.913 1_455 S
C556 C546 1.391 . S
C556 C555 1.375 . S
C556 H568 0.929 . S
H557 C553 0.930 1_655 S
H558 C547 0.930 . S
H559 C576 0.930 . S
H560 C548 0.930 . S
H561 C549 0.930 . S
H562 C543 0.929 . S
H563 C581 0.930 . S
H564 C572 0.930 . S
H565 C573 0.930 . S
H566 C597 0.929 . S
H567 C555 0.913 1_655 S
H568 C556 0.929 . S
H569 C598 0.930 . S
H570 C579 0.930 . S
N571 Gd540 2.661 . S
N571 C575 1.350 . S
N571 C576 1.307 . S
C572 H564 0.930 . S
C572 C573 1.355 . S
C572 C574 1.412 . S
C573 H565 0.930 . S
C573 C572 1.355 . S
C573 C576 1.402 . S
C574 C572 1.412 . S
C574 C575 1.417 . S
C574 C598 1.431 . S
C575 N571 1.350 . S
C575 C574 1.417 . S
C575 C578 1.426 . S
C576 H559 0.930 . S
C576 N571 1.307 . S
C576 C573 1.402 . S
N577 Gd540 2.601 . S
N577 C578 1.359 . S
N577 C581 1.334 1_655 S
C578 C575 1.426 . S
C578 N577 1.359 . S
C578 C582 1.413 . S
C579 H570 0.930 . S
C579 C580 1.359 1_455 S
C579 C581 1.394 . S
C580 C579 1.359 1_655 S
C580 C582 1.391 . S
C580 H583 0.929 . S
C581 H563 0.930 . S
C581 N577 1.334 1_455 S
C581 C579 1.394 . S
C582 C578 1.413 . S
C582 C580 1.391 . S
C582 C597 1.437 . S
H583 C580 0.929 . S
O584 Gd540 2.545 . S
O584 C599 1.258 . S
O585 Gd540 2.601 1_455 S
O585 Gd541 2.370 . S
O585 C596 1.278 1_455 S
O586 Gd541 2.324 . S
O586 C606 1.254 . S
O587 Gd540 2.429 1_455 S
O587 C606 1.268 . S
O588 Gd540 2.545 . S
O588 C596 1.250 . S
O589 Gd540 2.412 . S
O589 C599 1.252 . S
O590 Gd541 2.545 . S
O590 C608 1.258 . S
O591 Gd540 2.362 1_455 S
O591 Gd541 2.606 . S
O591 C607 1.284 . S
O592 Gd540 2.324 . S
O592 C615 1.254 . S
O593 Gd541 2.429 1_655 S
O593 C615 1.268 . S
O594 Gd541 2.545 . S
O594 C607 1.250 . S
O595 Gd541 2.412 . S
O595 C608 1.252 . S
C596 O585 1.278 1_655 S
C596 O588 1.250 . S
C597 H566 0.929 . S
C597 C582 1.437 . S
C597 C598 1.317 . S
C598 H569 0.930 . S
C598 C574 1.431 . S
C598 C597 1.317 . S
C599 Gd540 2.828 . S
C599 O584 1.258 . S
C599 O589 1.252 . S
C599 C600 1.497 . S
C600 C599 1.497 . S
C600 C601 1.395 . S
C600 C602 1.380 . S
C601 C600 1.395 . S
C601 C604 1.398 . S
C601 H616 0.930 . S
C602 C600 1.380 . S
C602 C603 1.391 . S
C602 H617 0.930 . S
C603 C602 1.391 . S
C603 C605 1.387 . S
C604 C601 1.398 . S
C604 C605 1.380 . S
C604 H618 0.930 . S
C605 C603 1.387 . S
C605 C604 1.380 . S
C605 H619 0.930 . S
C606 O586 1.254 . S
C606 O587 1.268 . S
C607 O591 1.284 . S
C607 O594 1.250 . S
C608 Gd541 2.828 . S
C608 O590 1.258 . S
C608 O595 1.252 . S
C608 C609 1.497 . S
C609 C608 1.497 . S
C609 C610 1.395 . S
C609 C611 1.380 . S
C610 C609 1.395 . S
C610 C613 1.398 . S
C610 H620 0.930 . S
C611 C609 1.380 . S
C611 C612 1.391 . S
C611 H621 0.930 . S
C612 C611 1.391 . S
C612 C614 1.387 . S
C613 C610 1.398 . S
C613 C614 1.380 . S
C613 H622 0.930 . S
C614 C612 1.387 . S
C614 C613 1.380 . S
C614 H623 0.930 . S
C615 O592 1.254 . S
C615 O593 1.268 . S
H616 C601 0.930 . S
H617 C602 0.930 . S
H618 C604 0.930 . S
H619 C605 0.930 . S
H620 C610 0.930 . S
H621 C611 0.930 . S
H622 C613 0.930 . S
H623 C614 0.930 . S
H624 C630 0.930 . S
H625 C634 0.930 . S
H626 C639 0.929 . S
H627 C637 0.929 . S
H628 C632 0.929 . S
H629 C638 0.929 . S
C630 H624 0.930 . S
C630 C631 1.367 . S
C630 C638 1.378 . S
C631 C630 1.367 . S
C631 C639 1.433 . S
C632 H628 0.929 . S
C632 C634 1.378 . S
C632 C636 1.350 . S
C633 C636 1.463 . S
C633 C638 1.350 . S
C633 N641 1.427 . S
C634 H625 0.930 . S
C634 C632 1.378 . S
C634 C635 1.367 . S
C635 C634 1.367 . S
C635 C637 1.433 . S
C636 C632 1.350 . S
C636 C633 1.463 . S
C636 N640 1.427 . S
C637 H627 0.929 . S
C637 C635 1.433 . S
C637 N640 1.384 . S
C638 H629 0.929 . S
C638 C630 1.378 . S
C638 C633 1.350 . S
C639 H626 0.929 . S
C639 C631 1.433 . S
C639 N641 1.384 . S
N640 C636 1.427 . S
N640 C637 1.384 . S
N641 C633 1.427 . S
N641 C639 1.384 . S
H642 C648 0.930 . S
H643 C652 0.930 . S
H644 C657 0.929 . S
H645 C655 0.929 . S
H646 C650 0.929 . S
H647 C656 0.929 . S
C648 H642 0.930 . S
C648 C649 1.367 . S
C648 C656 1.378 . S
C649 C648 1.367 . S
C649 C657 1.433 . S
C650 H646 0.929 . S
C650 C652 1.378 . S
C650 C654 1.350 . S
C651 C654 1.463 . S
C651 C656 1.350 . S
C651 N659 1.427 . S
C652 H643 0.930 . S
C652 C650 1.378 . S
C652 C653 1.367 . S
C653 C652 1.367 . S
C653 C655 1.433 . S
C654 C650 1.350 . S
C654 C651 1.463 . S
C654 N658 1.427 . S
C655 H645 0.929 . S
C655 C653 1.433 . S
C655 N658 1.384 . S
C656 H647 0.929 . S
C656 C648 1.378 . S
C656 C651 1.350 . S
C657 H644 0.929 . S
C657 C649 1.433 . S
C657 N659 1.384 . S
N658 C654 1.427 . S
N658 C655 1.384 . S
N659 C651 1.427 . S
N659 C657 1.384 . S
H660 C666 0.930 . S
H661 C670 0.930 . S
H662 C675 0.929 . S
H663 C673 0.929 . S
H664 C668 0.929 . S
H665 C674 0.929 . S
C666 H660 0.930 . S
C666 C667 1.367 . S
C666 C674 1.378 . S
C667 C666 1.367 . S
C667 C675 1.433 . S
C668 H664 0.929 . S
C668 C670 1.378 . S
C668 C672 1.350 . S
C669 C672 1.463 . S
C669 C674 1.350 . S
C669 N677 1.427 . S
C670 H661 0.930 . S
C670 C668 1.378 . S
C670 C671 1.367 . S
C671 C670 1.367 . S
C671 C673 1.433 . S
C672 C668 1.350 . S
C672 C669 1.463 . S
C672 N676 1.427 . S
C673 H663 0.929 . S
C673 C671 1.433 . S
C673 N676 1.384 . S
C674 H665 0.929 . S
C674 C666 1.378 . S
C674 C669 1.350 . S
C675 H662 0.929 . S
C675 C667 1.433 . S
C675 N677 1.384 . S
N676 C672 1.427 . S
N676 C673 1.384 . S
N677 C669 1.427 . S
N677 C675 1.384 . S
H678 C684 0.930 . S
H679 C688 0.930 . S
H680 C693 0.929 . S
H681 C691 0.929 . S
H682 C686 0.929 . S
H683 C692 0.929 . S
C684 H678 0.930 . S
C684 C685 1.367 . S
C684 C692 1.378 . S
C685 C684 1.367 . S
C685 C693 1.433 . S
C686 H682 0.929 . S
C686 C688 1.378 . S
C686 C690 1.350 . S
C687 C690 1.463 . S
C687 C692 1.350 . S
C687 N695 1.427 . S
C688 H679 0.930 . S
C688 C686 1.378 . S
C688 C689 1.367 . S
C689 C688 1.367 . S
C689 C691 1.433 . S
C690 C686 1.350 . S
C690 C687 1.463 . S
C690 N694 1.427 . S
C691 H681 0.929 . S
C691 C689 1.433 . S
C691 N694 1.384 . S
C692 H683 0.929 . S
C692 C684 1.378 . S
C692 C687 1.350 . S
C693 H680 0.929 . S
C693 C685 1.433 . S
C693 N695 1.384 . S
N694 C690 1.427 . S
N694 C691 1.384 . S
N695 C687 1.427 . S
N695 C693 1.384 . S
H696 C702 0.930 . S
H697 C706 0.930 1_545 S
H698 C711 0.929 . S
H699 C709 0.929 . S
H700 C704 0.929 . S
H701 C710 0.929 . S
C702 H696 0.930 . S
C702 C703 1.367 . S
C702 C710 1.378 1_554 S
C703 C702 1.367 . S
C703 C711 1.433 . S
C704 H700 0.929 . S
C704 C706 1.378 . S
C704 C708 1.350 . S
C705 C708 1.463 . S
C705 C710 1.350 . S
C705 N713 1.427 1_556 S
C706 H697 0.930 1_565 S
C706 C704 1.378 . S
C706 C707 1.367 . S
C707 C706 1.367 . S
C707 C709 1.433 . S
C708 C704 1.350 . S
C708 C705 1.463 . S
C708 N712 1.427 . S
C709 H699 0.929 . S
C709 C707 1.433 . S
C709 N712 1.384 . S
C710 H701 0.929 . S
C710 C702 1.378 1_556 S
C710 C705 1.350 . S
C711 H698 0.929 . S
C711 C703 1.433 . S
C711 N713 1.384 . S
N712 C708 1.427 . S
N712 C709 1.384 . S
N713 C705 1.427 1_554 S
N713 C711 1.384 . S
H714 C720 0.930 . S
H715 C724 0.930 . S
H716 C729 0.929 . S
H717 C727 0.929 . S
H718 C722 0.929 . S
H719 C728 0.929 . S
C720 H714 0.930 . S
C720 C721 1.367 . S
C720 C728 1.378 1_554 S
C721 C720 1.367 . S
C721 C729 1.433 . S
C722 H718 0.929 . S
C722 C724 1.378 . S
C722 C726 1.350 . S
C723 C726 1.463 . S
C723 C728 1.350 . S
C723 N731 1.427 . S
C724 H715 0.930 . S
C724 C722 1.378 . S
C724 C725 1.367 . S
C725 C724 1.367 . S
C725 C727 1.433 . S
C726 C722 1.350 . S
C726 C723 1.463 . S
C726 N730 1.427 . S
C727 H717 0.929 . S
C727 C725 1.433 . S
C727 N730 1.384 . S
C728 H719 0.929 . S
C728 C720 1.378 1_556 S
C728 C723 1.350 . S
C729 H716 0.929 . S
C729 C721 1.433 . S
C729 N731 1.384 1_554 S
N730 C726 1.427 . S
N730 C727 1.384 . S
N731 C723 1.427 . S
N731 C729 1.384 1_556 S
H732 C738 0.930 1_556 S
H733 C742 0.930 . S
H734 C747 0.929 . S
H735 C745 0.929 . S
H736 C740 0.929 . S
H737 C746 0.929 . S
C738 H732 0.930 1_554 S
C738 C739 1.368 . S
C738 C746 1.377 1_554 S
C739 C738 1.368 . S
C739 C747 1.433 . S
C740 H736 0.929 . S
C740 C742 1.378 . S
C740 C744 1.350 . S
C741 C744 1.463 . S
C741 C746 1.350 . S
C741 N749 1.427 1_556 S
C742 H733 0.930 . S
C742 C740 1.378 . S
C742 C743 1.367 . S
C743 C742 1.367 . S
C743 C745 1.433 . S
C744 C740 1.350 . S
C744 C741 1.463 . S
C744 N748 1.427 . S
C745 H735 0.929 . S
C745 C743 1.433 . S
C745 N748 1.384 . S
C746 H737 0.929 . S
C746 C738 1.377 1_556 S
C746 C741 1.350 . S
C747 H734 0.929 . S
C747 C739 1.433 . S
C747 N749 1.384 . S
N748 C744 1.427 . S
N748 C745 1.384 . S
N749 C741 1.427 1_554 S
N749 C747 1.384 . S
H750 C756 0.930 . S
H751 C760 0.930 . S
H752 C765 0.929 . S
H753 C763 0.929 . S
H754 C758 0.929 . S
H755 C764 0.929 . S
C756 H750 0.930 . S
C756 C757 1.367 . S
C756 C764 1.378 . S
C757 C756 1.367 . S
C757 C765 1.433 . S
C758 H754 0.929 . S
C758 C760 1.378 . S
C758 C762 1.350 . S
C759 C762 1.463 . S
C759 C764 1.350 1_556 S
C759 N767 1.427 . S
C760 H751 0.930 . S
C760 C758 1.378 . S
C760 C761 1.367 . S
C761 C760 1.367 . S
C761 C763 1.433 . S
C762 C758 1.350 . S
C762 C759 1.463 . S
C762 N766 1.427 . S
C763 H753 0.929 . S
C763 C761 1.433 . S
C763 N766 1.384 . S
C764 H755 0.929 . S
C764 C756 1.378 . S
C764 C759 1.350 1_554 S
C765 H752 0.929 . S
C765 C757 1.433 . S
C765 N767 1.384 1_554 S
N766 C762 1.427 . S
N766 C763 1.384 . S
N767 C759 1.427 . S
N767 C765 1.384 1_556 S
H768 C774 0.930 . S
H769 C778 0.930 . S
H770 C783 0.929 . S
H771 C781 0.929 1_655 S
H772 C776 0.929 . S
H773 C782 0.929 . S
C774 H768 0.930 . S
C774 C775 1.367 . S
C774 C782 1.378 . S
C775 C774 1.367 . S
C775 C783 1.433 . S
C776 H772 0.929 . S
C776 C778 1.378 . S
C776 C780 1.350 . S
C777 C780 1.463 . S
C777 C782 1.350 . S
C777 N785 1.427 . S
C778 H769 0.930 . S
C778 C776 1.378 . S
C778 C779 1.367 . S
C779 C778 1.367 . S
C779 C781 1.433 . S
C780 C776 1.350 . S
C780 C777 1.463 . S
C780 N784 1.427 . S
C781 H771 0.929 1_455 S
C781 C779 1.433 . S
C781 N784 1.384 . S
C782 H773 0.929 . S
C782 C774 1.378 . S
C782 C777 1.350 . S
C783 H770 0.929 . S
C783 C775 1.433 . S
C783 N785 1.384 . S
N784 C780 1.427 . S
N784 C781 1.384 . S
N785 C777 1.427 . S
N785 C783 1.384 . S
H786 C792 0.930 . S
H787 C796 0.930 1_565 S
H788 C801 0.929 . S
H789 C799 0.929 . S
H790 C794 0.929 . S
H791 C800 0.929 . S
C792 H786 0.930 . S
C792 C793 1.367 . S
C792 C800 1.378 . S
C793 C792 1.367 . S
C793 C801 1.433 . S
C794 H790 0.929 . S
C794 C796 1.378 . S
C794 C798 1.350 . S
C795 C798 1.463 . S
C795 C800 1.350 . S
C795 N803 1.427 . S
C796 H787 0.930 1_545 S
C796 C794 1.378 . S
C796 C797 1.374 . S
C797 C796 1.374 . S
C797 C799 1.456 . S
C798 C794 1.350 . S
C798 C795 1.463 . S
C798 N802 1.427 . S
C799 H789 0.929 . S
C799 C797 1.456 . S
C799 N802 1.384 . S
C800 H791 0.929 . S
C800 C792 1.378 . S
C800 C795 1.350 . S
C801 H788 0.929 . S
C801 C793 1.433 . S
C801 N803 1.384 . S
N802 C798 1.427 . S
N802 C799 1.384 . S
N803 C795 1.427 . S
N803 C801 1.384 . S
H804 C810 0.930 . S
H805 C814 0.930 . S
H806 C819 0.929 . S
H807 C817 0.929 . S
H808 C812 0.929 . S
H809 C818 0.929 . S
C810 H804 0.930 . S
C810 C811 1.367 . S
C810 C818 1.378 . S
C811 C810 1.367 . S
C811 C819 1.433 . S
C812 H808 0.929 . S
C812 C814 1.378 . S
C812 C816 1.350 . S
C813 C816 1.463 . S
C813 C818 1.350 . S
C813 N821 1.427 . S
C814 H805 0.930 . S
C814 C812 1.378 . S
C814 C815 1.367 . S
C815 C814 1.367 . S
C815 C817 1.433 . S
C816 C812 1.350 . S
C816 C813 1.463 . S
C816 N820 1.427 . S
C817 H807 0.929 . S
C817 C815 1.433 . S
C817 N820 1.384 . S
C818 H809 0.929 . S
C818 C810 1.378 . S
C818 C813 1.350 . S
C819 H806 0.929 . S
C819 C811 1.433 . S
C819 N821 1.384 . S
N820 C816 1.427 . S
N820 C817 1.384 . S
N821 C813 1.427 . S
N821 C819 1.384 . S
H822 C828 0.930 . S
H823 C832 0.930 . S
H824 C837 0.929 . S
H825 C835 0.929 . S
H826 C830 0.929 . S
H827 C836 0.929 . S
C828 H822 0.930 . S
C828 C829 1.367 . S
C828 C836 1.378 . S
C829 C828 1.367 . S
C829 C837 1.433 . S
C830 H826 0.929 . S
C830 C832 1.378 . S
C830 C834 1.350 . S
C831 C834 1.463 . S
C831 C836 1.350 . S
C831 N839 1.427 . S
C832 H823 0.930 . S
C832 C830 1.378 . S
C832 C833 1.367 . S
C833 C832 1.367 . S
C833 C835 1.433 . S
C834 C830 1.350 . S
C834 C831 1.463 . S
C834 N838 1.427 . S
C835 H825 0.929 . S
C835 C833 1.433 . S
C835 N838 1.384 . S
C836 H827 0.929 . S
C836 C828 1.378 . S
C836 C831 1.350 . S
C837 H824 0.929 . S
C837 C829 1.433 . S
C837 N839 1.384 . S
N838 C834 1.427 . S
N838 C835 1.384 . S
N839 C831 1.427 . S
N839 C837 1.384 . S
H840 C846 0.930 . S
H841 C850 0.930 . S
H842 C855 0.929 . S
H843 C853 0.929 . S
H844 C848 0.929 . S
H845 C854 0.929 . S
C846 H840 0.930 . S
C846 C847 1.367 1_554 S
C846 C854 1.378 . S
C847 C846 1.367 1_556 S
C847 C855 1.433 . S
C848 H844 0.929 . S
C848 C850 1.378 . S
C848 C852 1.350 . S
C849 C852 1.463 . S
C849 C854 1.350 1_556 S
C849 N857 1.427 . S
C850 H841 0.930 . S
C850 C848 1.378 . S
C850 C851 1.367 1_655 S
C851 C850 1.367 1_455 S
C851 C853 1.433 . S
C852 C848 1.350 . S
C852 C849 1.463 . S
C852 N856 1.427 . S
C853 H843 0.929 . S
C853 C851 1.433 . S
C853 N856 1.384 1_455 S
C854 H845 0.929 . S
C854 C846 1.378 . S
C854 C849 1.350 1_554 S
C855 H842 0.929 . S
C855 C847 1.433 . S
C855 N857 1.384 . S
N856 C852 1.427 . S
N856 C853 1.384 1_655 S
N857 C849 1.427 . S
N857 C855 1.384 . S
H858 C864 0.930 . S
H859 C868 0.930 . S
H860 C873 0.929 . S
H861 C871 0.927 1_545 S
H862 C866 0.929 . S
H863 C872 0.929 1_554 S
C864 H858 0.930 . S
C864 C865 1.367 1_554 S
C864 C872 1.378 1_554 S
C865 C864 1.367 1_556 S
C865 C873 1.433 . S
C866 H862 0.929 . S
C866 C868 1.378 1_565 S
C866 C870 1.350 . S
C867 C870 1.463 . S
C867 C872 1.350 . S
C867 N875 1.427 . S
C868 H859 0.930 . S
C868 C866 1.378 1_545 S
C868 C869 1.367 . S
C869 C868 1.367 . S
C869 C871 1.426 1_545 S
C870 C866 1.350 . S
C870 C867 1.463 . S
C870 N874 1.427 . S
C871 H861 0.927 1_565 S
C871 C869 1.426 1_565 S
C871 N874 1.393 . S
C872 H863 0.929 1_556 S
C872 C864 1.378 1_556 S
C872 C867 1.350 . S
C873 H860 0.929 . S
C873 C865 1.433 . S
C873 N875 1.384 . S
N874 C870 1.427 . S
N874 C871 1.393 . S
N875 C867 1.427 . S
N875 C873 1.384 . S
H876 C882 0.930 . S
H877 C886 0.930 . S
H878 C891 0.929 . S
H879 C889 0.929 . S
H880 C884 0.929 . S
H881 C890 0.929 . S
C882 H876 0.930 . S
C882 C883 1.367 1_554 S
C882 C890 1.378 . S
C883 C882 1.367 1_556 S
C883 C891 1.433 . S
C884 H880 0.929 . S
C884 C886 1.378 . S
C884 C888 1.350 . S
C885 C888 1.463 . S
C885 C890 1.350 1_556 S
C885 N893 1.427 . S
C886 H877 0.930 . S
C886 C884 1.378 . S
C886 C887 1.367 . S
C887 C886 1.367 . S
C887 C889 1.433 . S
C888 C884 1.350 . S
C888 C885 1.463 . S
C888 N892 1.427 . S
C889 H879 0.929 . S
C889 C887 1.433 . S
C889 N892 1.384 . S
C890 H881 0.929 . S
C890 C882 1.378 . S
C890 C885 1.350 1_554 S
C891 H878 0.929 . S
C891 C883 1.433 . S
C891 N893 1.384 . S
N892 C888 1.427 . S
N892 C889 1.384 . S
N893 C885 1.427 . S
N893 C891 1.384 . S
H894 C900 0.930 . S
H895 C904 0.930 . S
H896 C909 0.929 . S
H897 C907 0.929 . S
H898 C902 0.929 . S
H899 C908 0.929 . S
C900 H894 0.930 . S
C900 C901 1.367 . S
C900 C908 1.378 . S
C901 C900 1.367 . S
C901 C909 1.433 1_556 S
C902 H898 0.929 . S
C902 C904 1.378 . S
C902 C906 1.350 . S
C903 C906 1.463 . S
C903 C908 1.350 . S
C903 N911 1.427 . S
C904 H895 0.930 . S
C904 C902 1.378 . S
C904 C905 1.367 . S
C905 C904 1.367 . S
C905 C907 1.433 . S
C906 C902 1.350 . S
C906 C903 1.463 . S
C906 N910 1.427 . S
C907 H897 0.929 . S
C907 C905 1.433 . S
C907 N910 1.384 . S
C908 H899 0.929 . S
C908 C900 1.378 . S
C908 C903 1.350 . S
C909 H896 0.929 . S
C909 C901 1.433 1_554 S
C909 N911 1.384 1_554 S
N910 C906 1.427 . S
N910 C907 1.384 . S
N911 C903 1.427 . S
N911 C909 1.384 1_556 S
H912 C918 0.930 . S
H913 C922 0.930 . S
H914 C927 0.929 . S
H915 C925 0.929 . S
H916 C920 0.929 . S
H917 C926 0.929 . S
C918 H912 0.930 . S
C918 C919 1.367 . S
C918 C926 1.378 . S
C919 C918 1.367 . S
C919 C927 1.433 . S
C920 H916 0.929 . S
C920 C922 1.378 . S
C920 C924 1.350 . S
C921 C924 1.463 . S
C921 C926 1.350 . S
C921 N929 1.427 . S
C922 H913 0.930 . S
C922 C920 1.378 . S
C922 C923 1.367 . S
C923 C922 1.367 . S
C923 C925 1.433 . S
C924 C920 1.350 . S
C924 C921 1.463 . S
C924 N928 1.427 . S
C925 H915 0.929 . S
C925 C923 1.433 . S
C925 N928 1.384 . S
C926 H917 0.929 . S
C926 C918 1.378 . S
C926 C921 1.350 . S
C927 H914 0.929 . S
C927 C919 1.433 . S
C927 N929 1.384 . S
N928 C924 1.427 . S
N928 C925 1.384 . S
N929 C921 1.427 . S
N929 C927 1.384 . S
H930 C936 0.930 . S
H931 C940 0.930 . S
H932 C945 0.929 . S
H933 C943 0.929 . S
H934 C938 0.929 . S
H935 C944 0.929 . S
C936 H930 0.930 . S
C936 C937 1.367 . S
C936 C944 1.378 . S
C937 C936 1.367 . S
C937 C945 1.433 . S
C938 H934 0.929 . S
C938 C940 1.378 . S
C938 C942 1.350 . S
C939 C942 1.463 . S
C939 C944 1.350 . S
C939 N947 1.427 . S
C940 H931 0.930 . S
C940 C938 1.378 . S
C940 C941 1.367 . S
C941 C940 1.367 . S
C941 C943 1.433 . S
C942 C938 1.350 . S
C942 C939 1.463 . S
C942 N946 1.427 . S
C943 H933 0.929 . S
C943 C941 1.433 . S
C943 N946 1.384 . S
C944 H935 0.929 . S
C944 C936 1.378 . S
C944 C939 1.350 . S
C945 H932 0.929 . S
C945 C937 1.433 . S
C945 N947 1.384 . S
N946 C942 1.427 . S
N946 C943 1.384 . S
N947 C939 1.427 . S
N947 C945 1.384 . S
H948 C954 0.930 . S
H949 C958 0.930 . S
H950 C963 0.929 . S
H951 C961 0.929 . S
H952 C956 0.929 . S
H953 C962 0.929 . S
C954 H948 0.930 . S
C954 C955 1.367 . S
C954 C962 1.378 . S
C955 C954 1.367 . S
C955 C963 1.433 . S
C956 H952 0.929 . S
C956 C958 1.378 . S
C956 C960 1.350 . S
C957 C960 1.463 . S
C957 C962 1.350 . S
C957 N965 1.427 . S
C958 H949 0.930 . S
C958 C956 1.378 . S
C958 C959 1.367 . S
C959 C958 1.367 . S
C959 C961 1.433 . S
C960 C956 1.350 . S
C960 C957 1.463 . S
C960 N964 1.427 . S
C961 H951 0.929 . S
C961 C959 1.433 . S
C961 N964 1.384 . S
C962 H953 0.929 . S
C962 C954 1.378 . S
C962 C957 1.350 . S
C963 H950 0.929 . S
C963 C955 1.433 . S
C963 N965 1.384 . S
N964 C960 1.427 . S
N964 C961 1.384 . S
N965 C957 1.427 . S
N965 C963 1.384 . S
H966 C972 0.930 . S
H967 C976 0.930 . S
H968 C981 0.929 . S
H969 C979 0.929 . S
H970 C974 0.929 . S
H971 C980 0.929 . S
C972 H966 0.930 . S
C972 C973 1.367 . S
C972 C980 1.378 . S
C973 C972 1.367 . S
C973 C981 1.433 . S
C974 H970 0.929 . S
C974 C976 1.378 . S
C974 C978 1.350 . S
C975 C978 1.463 . S
C975 C980 1.350 . S
C975 N983 1.427 . S
C976 H967 0.930 . S
C976 C974 1.378 . S
C976 C977 1.367 . S
C977 C976 1.367 . S
C977 C979 1.433 . S
C978 C974 1.350 . S
C978 C975 1.463 . S
C978 N982 1.427 . S
C979 H969 0.929 . S
C979 C977 1.433 . S
C979 N982 1.384 . S
C980 H971 0.929 . S
C980 C972 1.378 . S
C980 C975 1.350 . S
C981 H968 0.929 . S
C981 C973 1.433 . S
C981 N983 1.384 . S
N982 C978 1.427 . S
N982 C979 1.384 . S
N983 C975 1.427 . S
N983 C981 1.384 . S
H984 C990 0.930 . S
H985 C994 0.930 . S
H986 C999 0.929 . S
H987 C997 0.929 . S
H988 C992 0.929 . S
H989 C998 0.929 . S
C990 H984 0.930 . S
C990 C991 1.367 . S
C990 C998 1.378 . S
C991 C990 1.367 . S
C991 C999 1.433 . S
C992 H988 0.929 . S
C992 C994 1.378 . S
C992 C996 1.350 . S
C993 C996 1.463 . S
C993 C998 1.350 . S
C993 N1001 1.427 . S
C994 H985 0.930 . S
C994 C992 1.378 . S
C994 C995 1.367 . S
C995 C994 1.367 . S
C995 C997 1.433 . S
C996 C992 1.350 . S
C996 C993 1.463 . S
C996 N1000 1.427 . S
C997 H987 0.929 . S
C997 C995 1.433 . S
C997 N1000 1.384 . S
C998 H989 0.929 . S
C998 C990 1.378 . S
C998 C993 1.350 . S
C999 H986 0.929 . S
C999 C991 1.433 . S
C999 N1001 1.384 . S
N1000 C996 1.427 . S
N1000 C997 1.384 . S
N1001 C993 1.427 . S
N1001 C999 1.384 . S
H1002 C1008 0.930 . S
H1003 C1012 0.930 1_545 S
H1004 C1017 0.929 . S
H1005 C1015 0.929 . S
H1006 C1010 0.929 . S
H1007 C1016 0.929 . S
C1008 H1002 0.930 . S
C1008 C1009 1.367 . S
C1008 C1016 1.378 . S
C1009 C1008 1.367 . S
C1009 C1017 1.433 . S
C1010 H1006 0.929 . S
C1010 C1012 1.378 . S
C1010 C1014 1.350 . S
C1011 C1014 1.463 . S
C1011 C1016 1.350 . S
C1011 N1019 1.427 . S
C1012 H1003 0.930 1_565 S
C1012 C1010 1.378 . S
C1012 C1013 1.367 . S
C1013 C1012 1.367 . S
C1013 C1015 1.433 . S
C1014 C1010 1.350 . S
C1014 C1011 1.463 . S
C1014 N1018 1.427 . S
C1015 H1005 0.929 . S
C1015 C1013 1.433 . S
C1015 N1018 1.384 . S
C1016 H1007 0.929 . S
C1016 C1008 1.378 . S
C1016 C1011 1.350 . S
C1017 H1004 0.929 . S
C1017 C1009 1.433 . S
C1017 N1019 1.384 . S
N1018 C1014 1.427 . S
N1018 C1015 1.384 . S
N1019 C1011 1.427 . S
N1019 C1017 1.384 . S
H1020 C1026 0.930 . S
H1021 C1030 0.930 . S
H1022 C1035 0.929 . S
H1023 C1033 0.929 . S
H1024 C1028 0.929 . S
H1025 C1034 0.929 . S
C1026 H1020 0.930 . S
C1026 C1027 1.367 . S
C1026 C1034 1.378 . S
C1027 C1026 1.367 . S
C1027 C1035 1.433 . S
C1028 H1024 0.929 . S
C1028 C1030 1.378 . S
C1028 C1032 1.350 . S
C1029 C1032 1.463 . S
C1029 C1034 1.350 . S
C1029 N1037 1.427 . S
C1030 H1021 0.930 . S
C1030 C1028 1.378 . S
C1030 C1031 1.367 . S
C1031 C1030 1.367 . S
C1031 C1033 1.433 . S
C1032 C1028 1.350 . S
C1032 C1029 1.463 . S
C1032 N1036 1.427 . S
C1033 H1023 0.929 . S
C1033 C1031 1.433 . S
C1033 N1036 1.384 . S
C1034 H1025 0.929 . S
C1034 C1026 1.378 . S
C1034 C1029 1.350 . S
C1035 H1022 0.929 . S
C1035 C1027 1.433 . S
C1035 N1037 1.384 . S
N1036 C1032 1.427 . S
N1036 C1033 1.384 . S
N1037 C1029 1.427 . S
N1037 C1035 1.384 . S
H1038 C1044 0.930 . S
H1039 C1048 0.930 . S
H1040 C1053 0.929 . S
H1041 C1051 0.929 . S
H1042 C1046 0.929 . S
H1043 C1052 0.929 . S
C1044 H1038 0.930 . S
C1044 C1045 1.367 . S
C1044 C1052 1.378 . S
C1045 C1044 1.367 . S
C1045 C1053 1.433 . S
C1046 H1042 0.929 . S
C1046 C1048 1.378 . S
C1046 C1050 1.350 . S
C1047 C1050 1.463 . S
C1047 C1052 1.350 . S
C1047 N1055 1.427 . S
C1048 H1039 0.930 . S
C1048 C1046 1.378 . S
C1048 C1049 1.367 . S
C1049 C1048 1.367 . S
C1049 C1051 1.433 . S
C1050 C1046 1.350 . S
C1050 C1047 1.463 . S
C1050 N1054 1.427 . S
C1051 H1041 0.929 . S
C1051 C1049 1.433 . S
C1051 N1054 1.384 . S
C1052 H1043 0.929 . S
C1052 C1044 1.378 . S
C1052 C1047 1.350 . S
C1053 H1040 0.929 . S
C1053 C1045 1.433 . S
C1053 N1055 1.384 . S
N1054 C1050 1.427 . S
N1054 C1051 1.384 . S
N1055 C1047 1.427 . S
N1055 C1053 1.384 . S
C631 C241 2.232 . S
C635 C363 2.336 . S
C653 C447 2.375 . S
C649 C277 2.281 . S
C671 C523 2.258 . S
C667 C169 2.364 . S
C689 C607 2.257 . S
C685 C205 2.361 . S
C707 C354 2.333 1_565 S
C703 C97 2.187 . S
C721 C133 2.321 . S
C725 C438 2.369 . S
C739 C25 2.303 . S
C743 C512 2.252 . S
C757 C61 2.311 . S
C761 C596 2.260 . S
C779 C351 0.651 1_455 S
C775 C211 0.669 . S
C797 C435 0.552 1_545 S
C793 C247 0.610 . S
C815 C528 0.575 . S
C811 C253 0.635 . S
C829 C175 0.661 . S
C833 C612 0.616 . S
C847 C67 0.667 1_556 S
C851 C360 0.653 . S
C869 C444 0.595 . S
C865 C103 0.643 1_556 S
C887 C519 0.588 . S
C883 C109 0.569 1_556 S
C901 C31 0.693 1_556 S
C905 C603 0.619 . S
C919 C181 2.800 . S
C923 C344 2.903 . S
C937 C217 2.755 . S
C941 C428 2.858 . S
C959 C522 2.940 . S
C955 C283 2.534 . S
C977 C606 2.963 . S
C973 C145 2.674 . S
C991 C37 2.766 . S
C995 C355 2.905 . S
C1013 C439 2.850 . S
C1009 C73 2.717 . S
C1031 C531 2.939 . S
C1027 C139 2.592 . S
C1045 C1 2.640 . S
C1049 C615 2.962 . S
