# Generated by pormake.
# Topology ctn, (3,4)-cn, num edge types: 1
# Building blocks:
#     Node 0, Type 0, BuildingBlock: BETDAH_clean_linker_0, # of connection points: 3
#     Node 1, Type 0, BuildingBlock: BETDAH_clean_linker_0, # of connection points: 3
#     Node 2, Type 0, BuildingBlock: BETDAH_clean_linker_0, # of connection points: 3
#     Node 3, Type 0, BuildingBlock: BETDAH_clean_linker_0, # of connection points: 3
#     Node 4, Type 0, BuildingBlock: BETDAH_clean_linker_0, # of connection points: 3
#     Node 5, Type 0, BuildingBlock: BETDAH_clean_linker_0, # of connection points: 3
#     Node 6, Type 0, BuildingBlock: BETDAH_clean_linker_0, # of connection points: 3
#     Node 7, Type 0, BuildingBlock: BETDAH_clean_linker_0, # of connection points: 3
#     Node 8, Type 0, BuildingBlock: BETDAH_clean_linker_0, # of connection points: 3
#     Node 9, Type 0, BuildingBlock: BETDAH_clean_linker_0, # of connection points: 3
#     Node 10, Type 0, BuildingBlock: BETDAH_clean_linker_0, # of connection points: 3
#     Node 11, Type 0, BuildingBlock: BETDAH_clean_linker_0, # of connection points: 3
#     Node 12, Type 0, BuildingBlock: BETDAH_clean_linker_0, # of connection points: 3
#     Node 13, Type 0, BuildingBlock: BETDAH_clean_linker_0, # of connection points: 3
#     Node 14, Type 0, BuildingBlock: BETDAH_clean_linker_0, # of connection points: 3
#     Node 15, Type 0, BuildingBlock: BETDAH_clean_linker_0, # of connection points: 3
#     Node 16, Type 1, BuildingBlock: AZAVOO_clean_sbu_0, # of connection points: 4
#     Node 17, Type 1, BuildingBlock: AZAVOO_clean_sbu_0, # of connection points: 4
#     Node 18, Type 1, BuildingBlock: AZAVOO_clean_sbu_0, # of connection points: 4
#     Node 19, Type 1, BuildingBlock: AZAVOO_clean_sbu_0, # of connection points: 4
#     Node 20, Type 1, BuildingBlock: AZAVOO_clean_sbu_0, # of connection points: 4
#     Node 21, Type 1, BuildingBlock: AZAVOO_clean_sbu_0, # of connection points: 4
#     Node 22, Type 1, BuildingBlock: AZAVOO_clean_sbu_0, # of connection points: 4
#     Node 23, Type 1, BuildingBlock: AZAVOO_clean_sbu_0, # of connection points: 4
#     Node 24, Type 1, BuildingBlock: AZAVOO_clean_sbu_0, # of connection points: 4
#     Node 25, Type 1, BuildingBlock: AZAVOO_clean_sbu_0, # of connection points: 4
#     Node 26, Type 1, BuildingBlock: AZAVOO_clean_sbu_0, # of connection points: 4
#     Node 27, Type 1, BuildingBlock: AZAVOO_clean_sbu_0, # of connection points: 4
#     Edge 28, Type (0, 1), BuildingBlock: OJICUG_clean_linker_0, # of connection points: 2
#     Edge 29, Type (0, 1), BuildingBlock: OJICUG_clean_linker_0, # of connection points: 2
#     Edge 30, Type (0, 1), BuildingBlock: OJICUG_clean_linker_0, # of connection points: 2
#     Edge 31, Type (0, 1), BuildingBlock: OJICUG_clean_linker_0, # of connection points: 2
#     Edge 32, Type (0, 1), BuildingBlock: OJICUG_clean_linker_0, # of connection points: 2
#     Edge 33, Type (0, 1), BuildingBlock: OJICUG_clean_linker_0, # of connection points: 2
#     Edge 34, Type (0, 1), BuildingBlock: OJICUG_clean_linker_0, # of connection points: 2
#     Edge 35, Type (0, 1), BuildingBlock: OJICUG_clean_linker_0, # of connection points: 2
#     Edge 36, Type (0, 1), BuildingBlock: OJICUG_clean_linker_0, # of connection points: 2
#     Edge 37, Type (0, 1), BuildingBlock: OJICUG_clean_linker_0, # of connection points: 2
#     Edge 38, Type (0, 1), BuildingBlock: OJICUG_clean_linker_0, # of connection points: 2
#     Edge 39, Type (0, 1), BuildingBlock: OJICUG_clean_linker_0, # of connection points: 2
#     Edge 40, Type (0, 1), BuildingBlock: OJICUG_clean_linker_0, # of connection points: 2
#     Edge 41, Type (0, 1), BuildingBlock: OJICUG_clean_linker_0, # of connection points: 2
#     Edge 42, Type (0, 1), BuildingBlock: OJICUG_clean_linker_0, # of connection points: 2
#     Edge 43, Type (0, 1), BuildingBlock: OJICUG_clean_linker_0, # of connection points: 2
#     Edge 44, Type (0, 1), BuildingBlock: OJICUG_clean_linker_0, # of connection points: 2
#     Edge 45, Type (0, 1), BuildingBlock: OJICUG_clean_linker_0, # of connection points: 2
#     Edge 46, Type (0, 1), BuildingBlock: OJICUG_clean_linker_0, # of connection points: 2
#     Edge 47, Type (0, 1), BuildingBlock: OJICUG_clean_linker_0, # of connection points: 2
#     Edge 48, Type (0, 1), BuildingBlock: OJICUG_clean_linker_0, # of connection points: 2
#     Edge 49, Type (0, 1), BuildingBlock: OJICUG_clean_linker_0, # of connection points: 2
#     Edge 50, Type (0, 1), BuildingBlock: OJICUG_clean_linker_0, # of connection points: 2
#     Edge 51, Type (0, 1), BuildingBlock: OJICUG_clean_linker_0, # of connection points: 2
#     Edge 52, Type (0, 1), BuildingBlock: OJICUG_clean_linker_0, # of connection points: 2
#     Edge 53, Type (0, 1), BuildingBlock: OJICUG_clean_linker_0, # of connection points: 2
#     Edge 54, Type (0, 1), BuildingBlock: OJICUG_clean_linker_0, # of connection points: 2
#     Edge 55, Type (0, 1), BuildingBlock: OJICUG_clean_linker_0, # of connection points: 2
#     Edge 56, Type (0, 1), BuildingBlock: OJICUG_clean_linker_0, # of connection points: 2
#     Edge 57, Type (0, 1), BuildingBlock: OJICUG_clean_linker_0, # of connection points: 2
#     Edge 58, Type (0, 1), BuildingBlock: OJICUG_clean_linker_0, # of connection points: 2
#     Edge 59, Type (0, 1), BuildingBlock: OJICUG_clean_linker_0, # of connection points: 2
#     Edge 60, Type (0, 1), BuildingBlock: OJICUG_clean_linker_0, # of connection points: 2
#     Edge 61, Type (0, 1), BuildingBlock: OJICUG_clean_linker_0, # of connection points: 2
#     Edge 62, Type (0, 1), BuildingBlock: OJICUG_clean_linker_0, # of connection points: 2
#     Edge 63, Type (0, 1), BuildingBlock: OJICUG_clean_linker_0, # of connection points: 2
#     Edge 64, Type (0, 1), BuildingBlock: OJICUG_clean_linker_0, # of connection points: 2
#     Edge 65, Type (0, 1), BuildingBlock: OJICUG_clean_linker_0, # of connection points: 2
#     Edge 66, Type (0, 1), BuildingBlock: OJICUG_clean_linker_0, # of connection points: 2
#     Edge 67, Type (0, 1), BuildingBlock: OJICUG_clean_linker_0, # of connection points: 2
#     Edge 68, Type (0, 1), BuildingBlock: OJICUG_clean_linker_0, # of connection points: 2
#     Edge 69, Type (0, 1), BuildingBlock: OJICUG_clean_linker_0, # of connection points: 2
#     Edge 70, Type (0, 1), BuildingBlock: OJICUG_clean_linker_0, # of connection points: 2
#     Edge 71, Type (0, 1), BuildingBlock: OJICUG_clean_linker_0, # of connection points: 2
#     Edge 72, Type (0, 1), BuildingBlock: OJICUG_clean_linker_0, # of connection points: 2
#     Edge 73, Type (0, 1), BuildingBlock: OJICUG_clean_linker_0, # of connection points: 2
#     Edge 74, Type (0, 1), BuildingBlock: OJICUG_clean_linker_0, # of connection points: 2
#     Edge 75, Type (0, 1), BuildingBlock: OJICUG_clean_linker_0, # of connection points: 2
# Relax obj value: 0.054
# Max RMSD: 0.178
# Mean RMSD: 0.102
data_MOF--net-ctn--node1-AZAVOO_clean_sbu_0--node2-BETDAH_clean_linker_0--edge1-OJICUG_clean_linker_0
_symmetry_space_group_name_H-M    P1
_symmetry_Int_Tables_number       1
_symmetry_cell_setting            triclinic
loop_
_symmetry_equiv_pos_as_xyz
'x, y, z'
_cell_length_a     37.835315
_cell_length_b     39.04474
_cell_length_c     39.208498
_cell_angle_alpha  98.406917
_cell_angle_beta   93.371242
_cell_angle_gamma 97.867677
loop_
_atom_site_label
_atom_site_type_symbol
_atom_site_fract_x
_atom_site_fract_y
_atom_site_fract_z
_atom_type_partial_charge
H0 H 0.09379 0.97676 0.09868 0.0
H1 H 0.08136 0.97139 0.98803 0.0
H2 H 1.00362 0.01322 0.05013 0.0
C3 C 0.07881 0.98123 0.07577 0.0
C4 C 0.04722 0.99653 0.07903 0.0
C5 C 0.09119 0.97149 0.04302 0.0
C6 C 0.07194 0.97781 0.01343 0.0
C7 C 0.04079 0.9931 0.01625 0.0
C8 C 0.02829 0.0021 0.04876 0.0
N9 N 0.02239 1.00005 0.9862 0.0
C10 C 0.03 0.0326 0.97597 0.0
H11 H 0.34819 0.70201 0.30479 0.0
H12 H 0.43082 0.76008 0.25604 0.0
H13 H 0.32577 0.72878 0.20426 0.0
C14 C 0.35718 0.7148 0.28347 0.0
C15 C 0.3332 0.71323 0.25438 0.0
C16 C 0.39276 0.73128 0.28454 0.0
C17 C 0.40346 0.74771 0.25642 0.0
C18 C 0.37935 0.74805 0.22809 0.0
C19 C 0.34424 0.73016 0.22676 0.0
N20 N 0.39175 0.76595 0.2011 0.0
C21 C 0.36944 0.77406 0.17502 0.0
H22 H 0.07551 0.44089 0.07451 0.0
H23 H 1.00698 0.51986 0.09541 0.0
H24 H 0.96813 0.42389 0.02706 0.0
C25 C 0.05036 0.45045 0.06977 0.0
C26 C 0.02283 0.42881 0.04821 0.0
C27 C 0.04493 0.48319 0.08722 0.0
C28 C 0.01165 0.49487 0.08182 0.0
C29 C 0.98408 0.47339 0.05964 0.0
C30 C 0.98974 0.44044 0.04357 0.0
N31 N 0.94944 0.48265 0.05451 0.0
C32 C 0.94182 0.51639 0.05418 0.0
H33 H 0.81943 0.82758 0.19766 0.0
H34 H 0.70706 0.8021 0.20836 0.0
H35 H 0.7615 0.90468 0.25005 0.0
C36 C 0.795 0.83536 0.20726 0.0
C37 C 0.79503 0.86942 0.22486 0.0
C38 C 0.76334 0.81138 0.20033 0.0
C39 C 0.73166 0.82048 0.21356 0.0
C40 C 0.73154 0.85392 0.23246 0.0
C41 C 0.76272 0.87852 0.23695 0.0
N42 N 0.70002 0.86379 0.24622 0.0
C43 C 0.67971 0.84312 0.266 0.0
H44 H 0.0926 0.0606 0.45567 0.0
H45 H 0.12292 0.0361 0.5556 0.0
H46 H 0.03331 0.97319 0.49285 0.0
C47 C 0.08827 0.04452 0.47581 0.0
C48 C 0.05999 0.01651 0.47085 0.0
C49 C 0.11156 0.05142 0.50592 0.0
C50 C 0.10578 0.0304 0.53171 0.0
C51 C 0.07784 0.0022 0.52733 0.0
C52 C 0.05517 0.99475 0.49644 0.0
N53 N 0.07265 0.98341 0.55549 0.0
C54 C 0.0559 0.94909 0.5533 0.0
H55 H 0.3039 0.70748 0.81429 0.0
H56 H 0.19681 0.72474 0.78523 0.0
H57 H 0.24145 0.64028 0.72908 0.0
C58 C 0.2795 0.70059 0.7974 0.0
C59 C 0.27691 0.67222 0.77042 0.0
C60 C 0.25078 0.71964 0.80337 0.0
C61 C 0.21922 0.7105 0.78104 0.0
C62 C 0.2161 0.68194 0.75411 0.0
C63 C 0.24465 0.66278 0.74936 0.0
N64 N 0.18384 0.67011 0.73276 0.0
C65 C 0.16072 0.69157 0.72121 0.0
H66 H 0.91984 0.52101 0.53167 0.0
H67 H 0.97845 0.56302 0.4518 0.0
H68 H 0.9289 0.4559 0.4356 0.0
C69 C 0.92958 0.51815 0.50614 0.0
C70 C 0.92202 0.48537 0.48511 0.0
C71 C 0.94975 0.54683 0.49458 0.0
C72 C 0.9636 0.54144 0.46179 0.0
C73 C 0.95626 0.50845 0.44077 0.0
C74 C 0.9352 0.48094 0.45239 0.0
N75 N 0.9673 0.5024 0.40675 0.0
C76 C 0.9994 0.51753 0.39622 0.0
H77 H 0.85347 0.74058 0.81902 0.0
H78 H 0.80357 0.7968 0.74702 0.0
H79 H 0.74891 0.76948 0.83359 0.0
C80 C 0.83135 0.7532 0.81094 0.0
C81 C 0.8011 0.75277 0.83034 0.0
C82 C 0.83285 0.76899 0.78067 0.0
C83 C 0.80382 0.78557 0.7707 0.0
C84 C 0.77362 0.78532 0.78985 0.0
C85 C 0.77245 0.76896 0.81921 0.0
N86 N 0.74231 0.79782 0.77818 0.0
C87 C 0.74177 0.83119 0.76995 0.0
H88 H 0.36796 0.2562 0.32464 0.0
H89 H 0.31887 0.30741 0.24779 0.0
H90 H 0.26179 0.28281 0.33392 0.0
C91 C 0.34574 0.2679 0.31516 0.0
C92 C 0.31478 0.26757 0.33344 0.0
C93 C 0.3478 0.28219 0.28411 0.0
C94 C 0.31863 0.29744 0.27215 0.0
C95 C 0.28771 0.29736 0.29023 0.0
C96 C 0.28596 0.28244 0.32047 0.0
N97 N 0.25632 0.30795 0.27621 0.0
C98 C 0.25418 0.34188 0.27036 0.0
H99 H 0.57062 0.94915 0.57194 0.0
H100 H 0.5044 0.02837 0.60128 0.0
H101 H 0.46158 0.9358 0.52953 0.0
C102 C 0.54557 0.95941 0.5691 0.0
C103 C 0.51703 0.93912 0.54776 0.0
C104 C 0.54135 0.99145 0.58882 0.0
C105 C 0.50819 0.00394 0.58591 0.0
C106 C 0.47952 0.98385 0.56403 0.0
C107 C 0.484 0.95139 0.54571 0.0
N108 N 0.44494 0.99388 0.56171 0.0
C109 C 0.43798 0.02784 0.56131 0.0
H110 H 0.31671 0.35577 0.68179 0.0
H111 H 0.22987 0.31248 0.73575 0.0
H112 H 0.29181 0.41237 0.77768 0.0
C113 C 0.30041 0.35794 0.70364 0.0
C114 C 0.30808 0.38712 0.72962 0.0
C115 C 0.27231 0.33112 0.70564 0.0
C116 C 0.25143 0.33337 0.73413 0.0
C117 C 0.25818 0.36326 0.7599 0.0
C118 C 0.28626 0.38995 0.75729 0.0
N119 N 0.23752 0.36773 0.78883 0.0
C120 C 0.2143 0.34145 0.79961 0.0
H121 H 0.85914 0.18652 0.80397 0.0
H122 H 0.92985 0.27119 0.77341 0.0
H123 H 0.82622 0.23575 0.71926 0.0
C124 C 0.8653 0.20603 0.78735 0.0
C125 C 0.83974 0.20835 0.76079 0.0
C126 C 0.89819 0.22846 0.79253 0.0
C127 C 0.90455 0.25396 0.77077 0.0
C128 C 0.87874 0.2573 0.74482 0.0
C129 C 0.84619 0.23418 0.73971 0.0
N130 N 0.88675 0.28391 0.72417 0.0
C131 C 0.86411 0.28913 0.69685 0.0
H132 H 0.59528 0.48559 0.58606 0.0
H133 H 0.58952 0.47274 0.4749 0.0
H134 H 0.51673 0.53076 0.52972 0.0
C135 C 0.58292 0.49028 0.56188 0.0
C136 C 0.554 0.50957 0.56218 0.0
C137 C 0.5959 0.47664 0.53059 0.0
C138 C 0.57969 0.48259 0.4993 0.0
C139 C 0.55191 0.50271 0.49917 0.0
C140 C 0.53904 0.51614 0.53045 0.0
N141 N 0.53736 0.50958 0.46726 0.0
C142 C 0.539 0.54368 0.46073 0.0
H143 H 0.60085 0.55748 0.94702 0.0
H144 H 0.59772 0.51404 0.04186 0.0
H145 H 0.50838 0.48727 0.96499 0.0
C146 C 0.58718 0.54043 0.96314 0.0
C147 C 0.55291 0.52239 0.95191 0.0
C148 C 0.60363 0.53742 0.99537 0.0
C149 C 0.58571 0.51561 0.01646 0.0
C150 C 0.55139 0.49719 0.00527 0.0
C151 C 0.53514 0.50089 0.97318 0.0
N152 N 0.53103 0.47786 0.0272 0.0
C153 C 0.543 0.45165 0.04334 0.0
H154 H 0.8035 0.1896 0.33172 0.0
H155 H 0.70175 0.21526 0.29629 0.0
H156 H 0.74396 0.12857 0.24126 0.0
C157 C 0.7803 0.18471 0.31323 0.0
C158 C 0.77789 0.1571 0.28552 0.0
C159 C 0.75294 0.20574 0.31772 0.0
C160 C 0.72302 0.19936 0.2933 0.0
C161 C 0.72005 0.17157 0.26559 0.0
C162 C 0.74711 0.15039 0.26227 0.0
N163 N 0.6894 0.16281 0.2416 0.0
C164 C 0.66869 0.18657 0.23059 0.0
H165 H 0.428 0.03229 0.03153 0.0
H166 H 0.48096 0.08014 0.95156 0.0
H167 H 0.42649 0.97497 0.92929 0.0
C168 C 0.43546 0.03142 0.00521 0.0
C169 C 0.42504 1.00036 0.98178 0.0
C170 C 0.45572 0.06086 0.99489 0.0
C171 C 0.4663 0.05792 0.96072 0.0
C172 C 0.45589 0.02682 0.93731 0.0
C173 C 0.43501 0.99857 0.94782 0.0
N174 N 0.46373 0.02403 0.90224 0.0
C175 C 0.49772 0.03331 0.89187 0.0
Mg176 Mg 0.2538 0.83433 0.01514 0.0
O177 O 0.30282 0.87606 0.01143 0.0
O178 O 0.34995 0.84742 0.00566 0.0
Mg179 Mg 0.33231 0.78928 0.00539 0.0
C180 C 0.33621 0.87568 0.00792 0.0
C181 C 0.21493 0.89917 0.0326 0.0
O182 O 0.23989 0.90509 0.05837 0.0
O183 O 0.25128 0.81524 0.95674 0.0
O184 O 0.29954 0.7878 0.9538 0.0
O185 O 0.26536 0.8397 0.07232 0.0
O186 O 0.28691 0.80202 0.03444 0.0
C187 C 0.27222 0.79762 0.93951 0.0
C188 C 0.28562 0.81573 0.06616 0.0
O189 O 0.21486 0.87311 0.00895 0.0
Mg190 Mg 0.18624 0.54831 0.27722 0.0
O191 O 0.15337 0.53876 0.2244 0.0
O192 O 0.19229 0.5365 0.18372 0.0
Mg193 Mg 0.24942 0.54716 0.20979 0.0
C194 C 0.16023 0.53486 0.19264 0.0
C195 C 0.12847 0.55282 0.33075 0.0
O196 O 0.15067 0.58159 0.34261 0.0
O197 O 0.19933 0.49202 0.26892 0.0
O198 O 0.24101 0.4948 0.23088 0.0
O199 O 0.19103 0.60665 0.27983 0.0
O200 O 0.22923 0.57426 0.25607 0.0
C201 C 0.22245 0.47814 0.25108 0.0
C202 C 0.21946 0.60459 0.26326 0.0
O203 O 0.13566 0.53301 0.30407 0.0
Mg204 Mg 0.81171 0.67919 0.03428 0.0
O205 O 0.75782 0.6413 0.02569 0.0
O206 O 0.7145 0.67516 0.02651 0.0
Mg207 Mg 0.73922 0.73222 0.0301 0.0
C208 C 0.72474 0.64518 0.02479 0.0
C209 C 0.87164 0.63608 0.04455 0.0
O210 O 0.8805 0.66454 0.0675 0.0
O211 O 0.80821 0.68813 0.97754 0.0
O212 O 0.76373 0.72055 0.97793 0.0
O213 O 0.80855 0.68521 0.09151 0.0
O214 O 0.78606 0.71929 0.05835 0.0
C215 C 0.78741 0.70535 0.9623 0.0
C216 C 0.7905 0.71061 0.0886 0.0
O217 O 0.84365 0.63365 0.0241 0.0
Mg218 Mg 0.9673 0.04855 0.27117 0.0
O219 O 0.92716 0.99843 0.25699 0.0
O220 O 0.95651 0.95303 0.24289 0.0
Mg221 Mg 0.0163 0.97389 0.2514 0.0
C222 C 0.92757 0.96595 0.24693 0.0
C223 C 0.89669 0.07821 0.26474 0.0
O224 O 0.9001 0.06217 0.23351 0.0
O225 O 0.9801 0.0329 0.32427 0.0
O226 O 0.01115 0.98882 0.31002 0.0
O227 O 0.96912 0.05583 0.21582 0.0
O228 O 1.00511 0.02555 0.24103 0.0
C229 C 0.99788 0.00934 0.33267 0.0
C230 C 0.99394 0.03615 0.21323 0.0
O231 O 0.92063 0.07743 0.28879 0.0
Mg232 Mg 0.31558 0.19719 0.53955 0.0
O233 O 0.2603 0.16226 0.52864 0.0
O234 O 0.2194 0.19793 0.52377 0.0
Mg235 Mg 0.24721 0.25428 0.53072 0.0
C236 C 0.22781 0.16736 0.52372 0.0
C237 C 0.37221 0.15054 0.55229 0.0
O238 O 0.38202 0.17884 0.57525 0.0
O239 O 0.31607 0.20579 0.48263 0.0
O240 O 0.27426 0.24111 0.48059 0.0
O241 O 0.30846 0.204 0.59625 0.0
O242 O 0.29124 0.23905 0.56126 0.0
C243 C 0.29755 0.22424 0.46636 0.0
C244 C 0.29268 0.23059 0.59178 0.0
O245 O 0.3449 0.14943 0.53132 0.0
Mg246 Mg 0.47202 0.57238 0.75053 0.0
O247 O 0.43355 0.52074 0.73863 0.0
O248 O 0.46509 0.47656 0.72768 0.0
Mg249 Mg 0.52423 0.49956 0.7333 0.0
C250 C 0.43531 0.48813 0.73098 0.0
C251 C 0.39963 0.59985 0.74469 0.0
O252 O 0.40253 0.58388 0.71331 0.0
O253 O 0.48648 0.5593 0.80474 0.0
O254 O 0.51818 0.51553 0.79096 0.0
O255 O 0.47263 0.57714 0.69413 0.0
O256 O 0.50986 0.54935 0.72106 0.0
C257 C 0.50462 0.53605 0.81327 0.0
C258 C 0.49795 0.55799 0.69256 0.0
O259 O 0.42458 0.60006 0.76808 0.0
Mg260 Mg 0.74753 0.3268 0.52591 0.0
O261 O 0.79757 0.36638 0.5204 0.0
O262 O 0.84462 0.33737 0.52007 0.0
Mg263 Mg 0.82551 0.28044 0.52424 0.0
C264 C 0.83111 0.36541 0.51872 0.0
C265 C 0.71164 0.39398 0.5344 0.0
O266 O 0.73653 0.40163 0.56026 0.0
O267 O 0.74717 0.30308 0.4689 0.0
O268 O 0.79536 0.27566 0.47073 0.0
O269 O 0.75724 0.33778 0.58338 0.0
O270 O 0.77936 0.29651 0.55021 0.0
C271 C 0.76882 0.28445 0.45412 0.0
C272 C 0.77757 0.31358 0.58059 0.0
O273 O 0.71021 0.36538 0.5138 0.0
Mg274 Mg 0.6879 0.04259 0.77603 0.0
O275 O 0.65435 0.03623 0.72402 0.0
O276 O 0.69171 0.03141 0.6822 0.0
Mg277 Mg 0.74902 0.03666 0.70712 0.0
C278 C 0.66021 0.03234 0.69204 0.0
C279 C 0.63071 0.05306 0.82899 0.0
O280 O 0.65462 0.08083 0.83986 0.0
O281 O 0.6959 0.98475 0.76694 0.0
O282 O 0.73656 0.98431 0.72776 0.0
O283 O 0.69777 0.10097 0.77863 0.0
O284 O 0.73285 0.06508 0.75496 0.0
C285 C 0.71725 0.96894 0.74833 0.0
C286 C 0.72605 0.09656 0.76241 0.0
O287 O 0.63667 0.03147 0.80311 0.0
Mg288 Mg 0.0846 0.23521 0.93972 0.0
O289 O 0.03318 0.22855 0.90414 0.0
O290 O 0.98693 0.20619 0.93115 0.0
Mg291 Mg 1.00851 0.20323 0.98619 0.0
C292 C 1.00003 0.21716 0.9048 0.0
C293 C 0.13 0.25218 0.87726 0.0
O294 O 0.12993 0.21816 0.87242 0.0
O295 O 0.06826 0.28486 0.96832 0.0
O296 O 0.02203 0.26338 0.99578 0.0
O297 O 0.09088 0.17889 0.92368 0.0
O298 O 0.06151 0.19802 0.96785 0.0
C299 C 0.04321 0.28917 0.98828 0.0
C300 C 0.07135 0.17203 0.94858 0.0
O301 O 0.11399 0.26611 0.90213 0.0
Mg302 Mg 0.5798 0.74981 0.43227 0.0
O303 O 0.52712 0.74087 0.39841 0.0
O304 O 0.48292 0.71651 0.42657 0.0
Mg305 Mg 0.50714 0.71446 0.48091 0.0
C306 C 0.49445 0.72813 0.39989 0.0
C307 C 0.60693 0.7669 0.36213 0.0
O308 O 0.59224 0.73413 0.3527 0.0
O309 O 0.5621 0.79818 0.46168 0.0
O310 O 0.51794 0.77489 0.49053 0.0
O311 O 0.58849 0.6949 0.41491 0.0
O312 O 0.55974 0.71127 0.46057 0.0
C313 C 0.53758 0.8014 0.48246 0.0
C314 C 0.57005 0.68641 0.44 0.0
O315 O 0.60613 0.78115 0.39335 0.0
Mg316 Mg 0.97115 0.74628 0.61145 0.0
O317 O 0.02391 0.73798 0.64061 0.0
O318 O 0.06122 0.72707 0.59944 0.0
Mg319 Mg 0.03302 0.72423 0.54558 0.0
C320 C 0.05455 0.73164 0.63124 0.0
C321 C 0.94113 0.74851 0.6833 0.0
O322 O 0.95187 0.71771 0.67796 0.0
O323 O 0.99708 0.79982 0.59969 0.0
O324 O 0.02982 0.78319 0.55625 0.0
O325 O 0.94933 0.68942 0.60597 0.0
O326 O 0.982 0.71216 0.56792 0.0
C327 C 0.01728 0.80701 0.57582 0.0
C328 C 0.96516 0.6848 0.57768 0.0
O329 O 0.94809 0.76933 0.6616 0.0
Mg330 Mg 0.48986 0.25666 0.1195 0.0
O331 O 0.54072 0.24556 0.14953 0.0
O332 O 0.5791 0.23472 0.10942 0.0
Mg333 Mg 0.55278 0.23453 0.05524 0.0
C334 C 0.57131 0.23838 0.1409 0.0
C335 C 0.45871 0.25934 0.19073 0.0
O336 O 0.46863 0.22816 0.1857 0.0
O337 O 0.51791 0.30995 0.10972 0.0
O338 O 0.55125 0.29409 0.06659 0.0
O339 O 0.46587 0.20049 0.11274 0.0
O340 O 0.50028 0.22274 0.0756 0.0
C341 C 0.53884 0.31769 0.08662 0.0
C342 C 0.48191 0.19565 0.08459 0.0
O343 O 0.46663 0.27997 0.16911 0.0
C344 C 0.22462 0.74842 0.85595 0.0
C345 C 0.25339 0.74674 0.83482 0.0
H346 H 0.20796 0.7668 0.90599 0.0
C347 C 0.2864 0.76762 0.8466 0.0
H348 H 0.19886 0.73265 0.84784 0.0
C349 C 0.29175 0.7863 0.8801 0.0
C350 C 0.2639 0.78552 0.90215 0.0
H351 H 0.30884 0.76789 0.83066 0.0
H352 H 0.31821 0.80002 0.88937 0.0
C353 C 0.22979 0.76792 0.88931 0.0
C354 C 0.05578 0.55735 0.39362 0.0
C355 C 0.03194 0.52704 0.38026 0.0
H356 H 0.1053 0.58936 0.38836 0.0
C357 C 0.03978 0.5052 0.35091 0.0
H358 H 0.05008 0.57444 0.41635 0.0
C359 C 0.07117 0.51351 0.33489 0.0
C360 C 0.09531 0.5439 0.348 0.0
H361 H 0.02159 0.48162 0.34032 0.0
H362 H 0.07645 0.49612 0.31221 0.0
C363 C 0.08728 0.56576 0.37758 0.0
C364 C 0.76555 0.7199 0.87101 0.0
C365 C 0.79887 0.73559 0.86212 0.0
H366 H 0.73589 0.6983 0.90976 0.0
C367 C 0.82931 0.73652 0.88499 0.0
H368 H 0.74163 0.71732 0.85372 0.0
C369 C 0.82606 0.72402 0.91664 0.0
C370 C 0.79228 0.71101 0.92633 0.0
H371 H 0.85541 0.74849 0.87937 0.0
H372 H 0.84961 0.72669 0.93448 0.0
C373 C 0.76222 0.70841 0.90293 0.0
C374 C 0.03649 0.98075 0.41376 0.0
C375 C 0.03657 0.01075 0.43826 0.0
H376 H 0.02403 0.95666 0.36094 0.0
C377 C 0.01934 0.03815 0.42903 0.0
H378 H 0.04989 0.95945 0.4202 0.0
C379 C 1.00437 0.03661 0.39525 0.0
C380 C 1.00688 0.00787 0.36983 0.0
H381 H 0.01921 0.06163 0.44753 0.0
H382 H 0.99294 0.05896 0.38861 0.0
C383 C 0.02194 0.97937 0.37979 0.0
C384 C 0.27778 0.2692 0.68314 0.0
C385 C 0.26664 0.3009 0.67762 0.0
H386 H 0.29468 0.22158 0.65991 0.0
C387 C 0.25862 0.30657 0.64371 0.0
H388 H 0.28462 0.26462 0.70915 0.0
C389 C 0.26464 0.28233 0.61564 0.0
C390 C 0.27894 0.25199 0.62099 0.0
H391 H 0.25037 0.33108 0.63897 0.0
H392 H 0.26043 0.2887 0.58992 0.0
C393 C 0.28386 0.24483 0.65496 0.0
C394 C 0.52577 0.55422 0.60086 0.0
C395 C 0.53912 0.52206 0.59547 0.0
H396 H 0.50203 0.59055 0.63567 0.0
C397 C 0.53789 0.50158 0.62222 0.0
H398 H 0.52657 0.57097 0.58114 0.0
C399 C 0.52456 0.51322 0.65363 0.0
C400 C 0.51153 0.54537 0.65905 0.0
H401 H 0.54681 0.47619 0.61882 0.0
H402 H 0.52384 0.49655 0.6733 0.0
C403 C 0.51184 0.56557 0.63219 0.0
C404 C 0.82224 0.32304 0.67121 0.0
C405 C 0.84166 0.29485 0.66798 0.0
H406 H 0.78654 0.35118 0.64585 0.0
C407 C 0.83982 0.2726 0.63635 0.0
H408 H 0.82348 0.34046 0.69559 0.0
C409 C 0.81886 0.27864 0.60791 0.0
C410 C 0.7995 0.30709 0.61078 0.0
H411 H 0.8547 0.25066 0.63357 0.0
H412 H 0.81779 0.26095 0.58377 0.0
C413 C 0.80121 0.32912 0.64279 0.0
C414 C 0.60638 0.01294 0.60496 0.0
C415 C 0.57102 0.00914 0.61456 0.0
H416 H 0.6621 0.0233 0.62167 0.0
C417 C 0.56506 0.01674 0.6497 0.0
H418 H 0.61173 0.00737 0.57802 0.0
C419 C 0.59401 0.02563 0.67492 0.0
C420 C 0.62948 0.02718 0.66543 0.0
H421 H 0.5381 0.01366 0.65785 0.0
H422 H 0.58852 0.02985 0.70189 0.0
C423 C 0.63525 0.02189 0.63005 0.0
C424 C 0.92792 0.19254 0.83132 0.0
C425 C 0.92558 0.22515 0.82049 0.0
H426 H 0.95287 0.16467 0.86708 0.0
C427 C 0.94927 0.25467 0.83717 0.0
H428 H 0.91115 0.16889 0.81866 0.0
C429 C 0.97433 0.25166 0.86378 0.0
C430 C 0.97549 0.21938 0.87508 0.0
H431 H 0.94806 0.28039 0.8304 0.0
H432 H 0.99197 0.27484 0.87639 0.0
C433 C 0.95213 0.18987 0.85879 0.0
C434 C 0.55175 0.89965 0.51121 0.0
C435 C 0.52136 0.9042 0.52934 0.0
H436 H 0.58063 0.8637 0.48193 0.0
C437 C 0.49588 0.87491 0.5311 0.0
H438 H 0.57168 0.92187 0.50929 0.0
C439 C 0.50106 0.84159 0.51569 0.0
C440 C 0.5317 0.8369 0.49791 0.0
H441 H 0.47239 0.87761 0.54521 0.0
H442 H 0.48111 0.8195 0.51791 0.0
C443 C 0.55678 0.86637 0.49548 0.0
C444 C 0.16794 0.33204 0.83959 0.0
C445 C 0.19077 0.31806 0.81624 0.0
H446 H 0.13066 0.32215 0.87715 0.0
C447 C 0.19252 0.2821 0.81157 0.0
H448 H 0.16647 0.35986 0.84359 0.0
C449 C 0.17204 0.26035 0.83076 0.0
C450 C 0.14981 0.27444 0.85506 0.0
H451 H 0.21028 0.271 0.79373 0.0
H452 H 0.17431 0.23273 0.8272 0.0
C453 C 0.14761 0.31045 0.85885 0.0
C454 C 0.53568 0.60606 0.47877 0.0
C455 C 0.54432 0.57927 0.45433 0.0
H456 H 0.53716 0.66122 0.49342 0.0
C457 C 0.56037 0.58741 0.42468 0.0
H458 H 0.52358 0.6001 0.50199 0.0
C459 C 0.56823 0.62227 0.41967 0.0
C460 C 0.56013 0.64942 0.44433 0.0
H461 H 0.56742 0.56688 0.4057 0.0
H462 H 0.58106 0.62794 0.39674 0.0
C463 C 0.54347 0.64094 0.47379 0.0
C464 C 0.87578 0.7923 0.7392 0.0
C465 C 0.8632 0.76563 0.75807 0.0
H466 H 0.9104 0.80814 0.70102 0.0
C467 C 0.87866 0.73463 0.75376 0.0
H468 H 0.86501 0.81677 0.74214 0.0
C469 C 0.90505 0.73 0.73074 0.0
C470 C 0.9166 0.75601 0.71089 0.0
H471 H 0.86943 0.71313 0.76714 0.0
H472 H 0.91544 0.70532 0.72762 0.0
C473 C 0.90208 0.7875 0.71581 0.0
C474 C 0.02194 0.90601 0.5838 0.0
C475 C 0.04316 0.91331 0.55685 0.0
H476 H 0.99707 0.86665 0.61118 0.0
C477 C 0.05539 0.88589 0.53599 0.0
H478 H 0.01272 0.92705 0.60052 0.0
C479 C 0.04684 0.85146 0.54218 0.0
C480 C 0.02596 0.8438 0.56952 0.0
H481 H 0.07225 0.89113 0.51538 0.0
H482 H 0.05699 0.83091 0.52566 0.0
C483 C 0.01328 0.87151 0.59005 0.0
C484 C 0.10062 0.70889 0.71217 0.0
C485 C 0.13556 0.70798 0.70225 0.0
H486 H 0.04736 0.71769 0.6976 0.0
C487 C 0.14453 0.71825 0.67075 0.0
H488 H 0.09313 0.70061 0.73627 0.0
C489 C 0.1185 0.72761 0.64853 0.0
C490 C 0.0829 0.72693 0.65738 0.0
H491 H 0.17129 0.7174 0.66252 0.0
H492 H 0.12606 0.73419 0.62379 0.0
C493 C 0.07449 0.71858 0.69 0.0
C494 C 0.98547 0.60697 0.51553 0.0
C495 C 0.95464 0.58236 0.5162 0.0
H496 H 0.01305 0.65874 0.53429 0.0
C497 C 0.92788 0.59214 0.53761 0.0
H498 H 1.00696 0.60046 0.49989 0.0
C499 C 0.93205 0.62501 0.55809 0.0
C500 C 0.96252 0.64956 0.55704 0.0
H501 H 0.90316 0.57473 0.53821 0.0
H502 H 0.91078 0.63156 0.57406 0.0
C503 C 0.98916 0.64037 0.53545 0.0
C504 C 0.83535 0.92136 0.25941 0.0
C505 C 0.82857 0.8953 0.22995 0.0
H506 H 0.87182 0.9646 0.28742 0.0
C507 C 0.85455 0.89382 0.20559 0.0
H508 H 0.81653 0.92318 0.27911 0.0
C509 C 0.88684 0.91663 0.21126 0.0
C510 C 0.89333 0.94234 0.24066 0.0
H511 H 0.85009 0.87514 0.18194 0.0
H512 H 0.90655 0.91452 0.19239 0.0
C513 C 0.86716 0.94498 0.2644 0.0
C514 C 0.82786 0.1278 0.30911 0.0
C515 C 0.80774 0.1358 0.28061 0.0
H516 H 0.87186 0.10364 0.32662 0.0
C517 C 0.8171 0.12416 0.24716 0.0
H518 H 0.82115 0.13569 0.33528 0.0
C519 C 0.84566 0.10525 0.24229 0.0
C520 C 0.86607 0.09777 0.27071 0.0
H521 H 0.80287 0.13029 0.22458 0.0
H522 H 0.85213 0.09702 0.21609 0.0
C523 C 0.85686 0.10924 0.30421 0.0
C524 C 0.37025 0.97171 0.00567 0.0
C525 C 0.40358 0.96944 0.99213 0.0
H526 H 0.32237 0.94373 0.021 0.0
C527 C 0.41531 0.93672 0.98588 0.0
H528 H 0.36058 0.9967 0.01051 0.0
C529 C 0.39383 0.90665 0.99211 0.0
C530 C 0.35976 0.90843 0.00429 0.0
H531 H 0.44097 0.93433 0.97559 0.0
H532 H 0.40361 0.88181 0.98632 0.0
C533 C 0.34836 0.9414 0.01145 0.0
C534 C 0.22054 0.39109 0.28415 0.0
C535 C 0.2466 0.37617 0.26549 0.0
H536 H 0.19212 0.43488 0.29414 0.0
C537 C 0.26404 0.39416 0.24145 0.0
H538 H 0.20661 0.37735 0.30268 0.0
C539 C 0.25572 0.427 0.23635 0.0
C540 C 0.22973 0.4424 0.25521 0.0
H541 H 0.28406 0.38286 0.22664 0.0
H542 H 0.26989 0.4404 0.21777 0.0
C543 C 0.21215 0.42391 0.2791 0.0
C544 C 0.13576 0.11371 0.50255 0.0
C545 C 0.14157 0.08091 0.51046 0.0
H546 H 0.15825 0.16651 0.50047 0.0
C547 C 0.1762 0.07644 0.52232 0.0
H548 H 0.10932 0.11801 0.49361 0.0
C549 C 0.20447 0.10426 0.5261 0.0
C550 C 0.19854 0.13721 0.51849 0.0
H551 H 0.1815 0.05131 0.52831 0.0
H552 H 0.23082 0.10005 0.53538 0.0
C553 C 0.16384 0.14154 0.50663 0.0
C554 C 0.77533 0.18866 0.76809 0.0
C555 C 0.80751 0.18182 0.75437 0.0
H556 H 0.72363 0.16674 0.78101 0.0
C557 C 0.8108 0.14773 0.73933 0.0
H558 H 0.77258 0.21485 0.78015 0.0
C559 C 0.78312 0.12033 0.73982 0.0
C560 C 0.75169 0.1265 0.75561 0.0
H561 H 0.83562 0.142 0.72891 0.0
H562 H 0.78736 0.09408 0.72959 0.0
C563 C 0.74749 0.16114 0.76863 0.0
C564 C 0.43576 0.0907 0.58044 0.0
C565 C 0.42398 0.05974 0.55749 0.0
H566 H 0.42875 0.14397 0.59659 0.0
C567 C 0.39644 0.05902 0.53174 0.0
H568 H 0.45691 0.09161 0.60057 0.0
C569 C 0.38016 0.08876 0.5294 0.0
C570 C 0.39117 0.11975 0.55287 0.0
H571 H 0.38694 0.03518 0.51387 0.0
H572 H 0.35847 0.08723 0.50967 0.0
C573 C 0.41955 0.12054 0.5781 0.0
C574 C 0.65603 0.46693 0.55493 0.0
C575 C 0.62635 0.45626 0.53056 0.0
H576 H 0.70637 0.45595 0.57497 0.0
C577 C 0.62589 0.42584 0.50629 0.0
H578 H 0.65753 0.49057 0.57357 0.0
C579 C 0.65407 0.40616 0.50685 0.0
C580 C 0.68333 0.4164 0.53174 0.0
H581 H 0.60331 0.41673 0.48735 0.0
H582 H 0.6525 0.38248 0.48823 0.0
C583 C 0.68418 0.44723 0.55552 0.0
C584 C 0.7885 0.25117 0.36341 0.0
C585 C 0.75513 0.23236 0.34946 0.0
H586 H 0.81888 0.28219 0.40777 0.0
C587 C 0.72501 0.23585 0.36847 0.0
H588 H 0.81205 0.25004 0.34911 0.0
C589 C 0.72885 0.2553 0.40183 0.0
C590 C 0.7629 0.27101 0.4168 0.0
H591 H 0.69893 0.22167 0.35862 0.0
H592 H 0.70569 0.25585 0.41679 0.0
C593 C 0.79242 0.2698 0.3969 0.0
C594 C 0.55736 0.06741 0.88944 0.0
C595 C 0.53161 0.0383 0.877 0.0
H596 H 0.60923 0.09494 0.88398 0.0
C597 C 0.53856 0.01375 0.84936 0.0
H598 H 0.55233 0.08659 0.91083 0.0
C599 C 0.57089 0.01835 0.83396 0.0
C600 C 0.59685 0.04766 0.846 0.0
H601 H 0.51885 0.99107 0.83949 0.0
H602 H 0.57541 0.99905 0.81247 0.0
C603 C 0.58981 0.07208 0.87405 0.0
C604 C 0.27868 0.23476 0.37361 0.0
C605 C 0.31195 0.2515 0.36576 0.0
H606 H 0.24822 0.21308 0.41179 0.0
C607 C 0.34171 0.25433 0.38994 0.0
H608 H 0.25537 0.23084 0.35533 0.0
C609 C 0.33773 0.24265 0.42188 0.0
C610 C 0.30387 0.22849 0.43039 0.0
H611 H 0.36772 0.26719 0.38506 0.0
H612 H 0.36059 0.24687 0.44078 0.0
C613 C 0.2746 0.22398 0.40574 0.0
C614 C 0.533 0.55912 0.90899 0.0
C615 C 0.5361 0.52591 0.91775 0.0
H616 H 0.51941 0.58839 0.86899 0.0
C617 C 0.52536 0.4961 0.89284 0.0
H618 H 0.54103 0.58248 0.9279 0.0
C619 C 0.51368 0.49951 0.8592 0.0
C620 C 0.5117 0.53274 0.85002 0.0
H621 H 0.5276 0.47026 0.89896 0.0
H622 H 0.50703 0.47614 0.84006 0.0
C623 C 0.52044 0.56249 0.87547 0.0
C624 C 0.78889 0.75702 0.1797 0.0
C625 C 0.76335 0.77925 0.17522 0.0
H626 H 0.81699 0.71716 0.15564 0.0
C627 C 0.74294 0.7749 0.14343 0.0
H628 H 0.80506 0.76009 0.20399 0.0
C629 C 0.75027 0.75095 0.11558 0.0
C630 C 0.77773 0.73059 0.11924 0.0
H631 H 0.72333 0.79197 0.13929 0.0
H632 H 0.73551 0.74962 0.09087 0.0
C633 C 0.79575 0.73259 0.152 0.0
C634 C 0.03852 0.98699 0.14068 0.0
C635 C 0.03397 0.0067 0.11378 0.0
H636 H 0.02993 0.98083 0.19305 0.0
C637 C 0.01639 0.03625 0.12034 0.0
H638 H 0.05129 0.96371 0.13665 0.0
C639 C 1.00324 0.04541 0.15248 0.0
C640 C 1.00791 0.02577 0.17926 0.0
H641 H 0.01305 0.05271 0.10078 0.0
H642 H 0.98982 0.0683 0.15648 0.0
C643 C 0.02597 0.99662 0.17311 0.0
C644 C 0.34668 0.76642 0.11405 0.0
C645 C 0.34771 0.78402 0.1479 0.0
H646 H 0.326 0.76259 0.06149 0.0
C647 C 0.32845 0.81204 0.1551 0.0
H648 H 0.36152 0.74471 0.10817 0.0
C649 C 0.30828 0.82251 0.12848 0.0
C650 C 0.30727 0.80509 0.09432 0.0
H651 H 0.32914 0.82592 0.18122 0.0
H652 H 0.29361 0.84427 0.13465 0.0
C653 C 0.32656 0.77683 0.08741 0.0
C654 C 0.06619 0.51238 0.14765 0.0
C655 C 0.07348 0.50288 0.1131 0.0
H656 H 0.08785 0.52974 0.20006 0.0
C657 C 0.10917 0.50734 0.10453 0.0
H658 H 0.03894 0.50886 0.155 0.0
C659 C 0.13716 0.51912 0.13019 0.0
C660 C 0.13017 0.52651 0.16515 0.0
H661 H 0.11551 0.5003 0.07806 0.0
H662 H 0.16436 0.52107 0.12266 0.0
C663 C 0.09428 0.52399 0.17346 0.0
C664 C 0.41631 0.70154 0.33234 0.0
C665 C 0.41892 0.7304 0.31433 0.0
H666 H 0.43788 0.67847 0.37387 0.0
C667 C 0.44704 0.75824 0.32482 0.0
H668 H 0.39578 0.6791 0.32465 0.0
C669 C 0.47202 0.75701 0.35212 0.0
C670 C 0.46883 0.72848 0.37027 0.0
H671 H 0.44967 0.7813 0.31233 0.0
H672 H 0.49333 0.77885 0.35962 0.0
C673 C 0.44066 0.70088 0.36036 0.0
C674 C 1.00195 0.36443 0.03401 0.0
C675 C 0.02797 0.39325 0.03214 0.0
H676 H 0.98642 0.3091 0.02186 0.0
C677 C 0.05907 0.38775 0.0155 0.0
H678 H 0.97792 0.36785 0.04704 0.0
C679 C 0.06399 0.35401 1.00094 0.0
C680 C 0.03808 0.32509 1.00312 0.0
H681 H 0.07945 0.40959 0.01355 0.0
H682 H 0.08822 0.35058 0.98827 0.0
C683 C 1.00699 0.33073 0.01978 0.0
C684 C 0.65731 0.84057 0.32315 0.0
C685 C 0.66039 0.82402 0.28952 0.0
H686 H 0.63788 0.83552 0.3726 0.0
C687 C 0.64553 0.78889 0.27941 0.0
H688 H 0.66878 0.86775 0.33132 0.0
C689 C 0.6278 0.77034 0.30292 0.0
C690 C 0.62486 0.78671 0.33691 0.0
H691 H 0.64785 0.77575 0.25348 0.0
H692 H 0.61671 0.74312 0.29455 0.0
C693 C 0.63968 0.8221 0.34669 0.0
C694 C 0.03148 0.09592 0.99057 0.0
C695 C 0.03908 0.06731 0.96784 0.0
H696 H 0.036 0.15151 1.00242 0.0
C697 C 0.05675 0.07278 0.93824 0.0
H698 H 0.0181 0.09205 0.01371 0.0
C699 C 0.06699 0.10686 0.93155 0.0
C700 C 0.05964 0.13578 0.95446 0.0
H701 H 0.06297 0.05078 0.92055 0.0
H702 H 0.08087 0.11055 0.90868 0.0
C703 C 0.04167 0.12989 0.98397 0.0
C704 C 0.39208 0.3044 0.24345 0.0
C705 C 0.37891 0.27834 0.26274 0.0
H706 H 0.42788 0.31918 0.20587 0.0
C707 C 0.39449 0.24742 0.26001 0.0
H708 H 0.38113 0.32875 0.24523 0.0
C709 C 0.42158 0.24221 0.23794 0.0
C710 C 0.4337 0.26757 0.2176 0.0
H711 H 0.38481 0.22642 0.27384 0.0
H712 H 0.43205 0.21759 0.2359 0.0
C713 C 0.41913 0.29905 0.22109 0.0
C714 C 0.52945 0.41341 0.08702 0.0
C715 C 0.54802 0.42084 0.05844 0.0
H716 H 0.51237 0.37511 0.11888 0.0
C717 C 0.56701 0.39583 0.04174 0.0
H718 H 0.51434 0.43236 0.10005 0.0
C719 C 0.56594 0.363 0.05239 0.0
C720 C 0.54553 0.3545 0.07977 0.0
H721 H 0.58125 0.40101 0.01942 0.0
H722 H 0.57968 0.34373 0.03799 0.0
C723 C 0.52829 0.38058 0.0977 0.0
C724 C 0.65741 0.21735 0.18176 0.0
C725 C 0.64612 0.20593 0.21209 0.0
H726 H 0.64275 0.23705 0.13567 0.0
C727 C 0.61116 0.20875 0.22104 0.0
H728 H 0.68423 0.21509 0.17428 0.0
C729 C 0.58721 0.22142 0.19895 0.0
C730 C 0.59781 0.23093 0.16736 0.0
H731 H 0.60187 0.19964 0.24422 0.0
H732 H 0.55991 0.22191 0.20569 0.0
C733 C 0.63354 0.22972 0.1596 0.0
C734 C 0.49507 0.11889 0.01713 0.0
C735 C 0.46403 0.0949 0.0191 0.0
H736 H 0.52508 0.16962 0.036 0.0
C737 C 0.44008 0.10431 0.04379 0.0
H738 H 0.51462 0.11257 0.99905 0.0
C739 C 0.4468 0.13647 0.06565 0.0
C740 C 0.47717 0.16067 0.06295 0.0
H741 H 0.41539 0.08736 0.04576 0.0
H742 H 0.4274 0.14286 0.08391 0.0
C743 C 0.50132 0.15157 0.03853 0.0
C744 C 0.33863 0.44943 0.73676 0.0
C745 C 0.34005 0.41344 0.72853 0.0
H746 H 0.36746 0.50141 0.74347 0.0
C747 C 0.3726 0.40239 0.71965 0.0
H748 H 0.31382 0.4587 0.74336 0.0
C749 C 0.4032 0.4267 0.71952 0.0
C750 C 0.40205 0.46271 0.7283 0.0
H751 H 0.37469 0.3748 0.71361 0.0
H752 H 0.42792 0.41713 0.71312 0.0
C753 C 0.3693 0.47386 0.73655 0.0
C754 C 0.31561 0.64057 0.73029 0.0
C755 C 0.30792 0.65271 0.76422 0.0
H756 H 0.35023 0.61453 0.69768 0.0
C757 C 0.33067 0.64682 0.79192 0.0
H758 H 0.29923 0.64507 0.70826 0.0
C759 C 0.36052 0.62979 0.78579 0.0
C760 C 0.3681 0.61784 0.75183 0.0
H761 H 0.32533 0.65514 0.81845 0.0
H762 H 0.3775 0.62579 0.80765 0.0
C763 C 0.34513 0.62323 0.72421 0.0
C764 C 0.91149 0.42287 0.49401 0.0
C765 C 0.89973 0.45563 0.49668 0.0
H766 H 0.89936 0.36901 0.49926 0.0
C767 C 0.86587 0.45918 0.50855 0.0
H768 H 0.93758 0.41953 0.48516 0.0
C769 C 0.84361 0.43006 0.51633 0.0
C770 C 0.85509 0.39703 0.51287 0.0
H771 H 0.85616 0.48419 0.51066 0.0
H772 H 0.8173 0.43334 0.52459 0.0
C773 C 0.88956 0.39398 0.50223 0.0
C774 C 0.75331 0.88196 0.739 0.0
C775 C 0.73552 0.86554 0.76387 0.0
H776 H 0.76119 0.92743 0.71423 0.0
C777 C 0.71066 0.88231 0.78265 0.0
H778 H 0.77242 0.86922 0.72411 0.0
C779 C 0.70397 0.9155 0.77703 0.0
C780 C 0.72208 0.93253 0.75247 0.0
H781 H 0.6965 0.8698 0.80184 0.0
H782 H 0.68499 0.92798 0.79232 0.0
C783 C 0.74667 0.91519 0.73333 0.0
C784 C 0.63704 0.58951 0.0336 0.0
C785 C 0.63751 0.56063 0.00788 0.0
H786 H 0.66449 0.63921 0.05881 0.0
C787 C 0.66855 0.5578 0.99027 0.0
H788 H 0.61319 0.59245 0.04709 0.0
C789 C 0.69824 0.58424 0.99741 0.0
C790 C 0.69672 0.61432 0.02144 0.0
H791 H 0.66919 0.53591 0.96997 0.0
H792 H 0.72135 0.58223 0.9826 0.0
C793 C 0.66623 0.6163 0.04005 0.0
C794 C 0.27545 0.69354 0.27855 0.0
C795 C 0.29843 0.69017 0.25178 0.0
H796 H 0.23131 0.66906 0.30252 0.0
C797 C 0.29125 0.66095 0.22561 0.0
H798 H 0.28059 0.71587 0.29904 0.0
C799 C 0.2636 0.63394 0.22794 0.0
C800 C 0.24232 0.63606 0.25612 0.0
H801 H 0.30874 0.6577 0.20483 0.0
H802 H 0.26003 0.61071 0.20858 0.0
C803 C 0.24728 0.66683 0.28047 0.0
C804 C 0.89936 0.5461 0.02412 0.0
C805 C 0.92695 0.54773 0.05003 0.0
H806 H 0.86025 0.57287 1.0018 0.0
C807 C 0.93786 0.57893 0.07286 0.0
H808 H 0.89057 0.52204 0.00633 0.0
C809 C 0.92061 0.60809 0.07031 0.0
C810 C 0.89205 0.60631 0.04501 0.0
H811 H 0.95906 0.58052 0.09311 0.0
H812 H 0.92904 0.6317 0.08877 0.0
C813 C 0.88203 0.57514 0.02158 0.0
C814 C 0.15411 0.96505 0.06306 0.0
C815 C 0.12381 0.95423 0.03947 0.0
H816 H 0.20684 0.95649 0.07915 0.0
C817 C 0.12466 0.9264 0.01247 0.0
H818 H 0.15463 0.98678 0.08379 0.0
C819 C 0.15474 0.90937 0.00951 0.0
C820 C 0.18465 0.91958 0.03362 0.0
H821 H 0.10167 0.91708 0.99407 0.0
H822 H 0.1541 0.88756 0.98884 0.0
C823 C 0.18418 0.94789 0.06019 0.0
loop_
_geom_bond_atom_site_label_1
_geom_bond_atom_site_label_2
_geom_bond_distance
_geom_bond_site_symmetry_2
_ccdc_geom_bond_type
H0 C3 0.929 . S
H1 C6 0.929 . S
H2 C8 0.930 . S
C3 H0 0.929 . S
C3 C4 1.398 . S
C3 C5 1.396 . S
C4 C3 1.398 . S
C4 C8 1.407 . S
C5 C3 1.396 . S
C5 C6 1.394 . S
C6 H1 0.929 . S
C6 C5 1.394 . S
C6 C7 1.382 . S
C7 C6 1.382 . S
C7 C8 1.392 . S
C7 N9 1.420 . S
C8 H2 0.930 . S
C8 C4 1.407 . S
C8 C7 1.392 . S
N9 C7 1.420 . S
N9 C10 1.244 1_554 S
C10 N9 1.244 1_556 S
H11 C14 0.929 . S
H12 C17 0.929 . S
H13 C19 0.930 . S
C14 H11 0.929 . S
C14 C15 1.398 . S
C14 C16 1.396 . S
C15 C14 1.398 . S
C15 C19 1.407 . S
C16 C14 1.396 . S
C16 C17 1.394 . S
C17 H12 0.929 . S
C17 C16 1.394 . S
C17 C18 1.382 . S
C18 C17 1.382 . S
C18 C19 1.392 . S
C18 N20 1.420 . S
C19 H13 0.930 . S
C19 C15 1.407 . S
C19 C18 1.392 . S
N20 C18 1.420 . S
N20 C21 1.244 . S
C21 N20 1.244 . S
H22 C25 0.929 . S
H23 C28 0.929 . S
H24 C30 0.930 1_556 S
C25 H22 0.929 . S
C25 C26 1.398 . S
C25 C27 1.396 . S
C26 C25 1.398 . S
C26 C30 1.407 1_455 S
C27 C25 1.396 . S
C27 C28 1.394 . S
C28 H23 0.929 . S
C28 C27 1.394 . S
C28 C29 1.382 1_455 S
C29 C28 1.382 1_655 S
C29 C30 1.392 . S
C29 N31 1.420 . S
C30 H24 0.930 1_554 S
C30 C26 1.407 1_655 S
C30 C29 1.392 . S
N31 C29 1.420 . S
N31 C32 1.244 . S
C32 N31 1.244 . S
H33 C36 0.929 . S
H34 C39 0.929 . S
H35 C41 0.930 . S
C36 H33 0.929 . S
C36 C37 1.398 . S
C36 C38 1.396 . S
C37 C36 1.398 . S
C37 C41 1.407 . S
C38 C36 1.396 . S
C38 C39 1.394 . S
C39 H34 0.929 . S
C39 C38 1.394 . S
C39 C40 1.382 . S
C40 C39 1.382 . S
C40 C41 1.392 . S
C40 N42 1.420 . S
C41 H35 0.930 . S
C41 C37 1.407 . S
C41 C40 1.392 . S
N42 C40 1.420 . S
N42 C43 1.244 . S
C43 N42 1.244 . S
H44 C47 0.929 . S
H45 C50 0.929 . S
H46 C52 0.930 . S
C47 H44 0.929 . S
C47 C48 1.398 1_545 S
C47 C49 1.396 . S
C48 C47 1.398 1_565 S
C48 C52 1.407 . S
C49 C47 1.396 . S
C49 C50 1.394 1_545 S
C50 H45 0.929 . S
C50 C49 1.394 1_565 S
C50 C51 1.382 . S
C51 C50 1.382 . S
C51 C52 1.392 . S
C51 N53 1.420 . S
C52 H46 0.930 . S
C52 C48 1.407 . S
C52 C51 1.392 . S
N53 C51 1.420 . S
N53 C54 1.244 . S
C54 N53 1.244 . S
H55 C58 0.929 . S
H56 C61 0.929 . S
H57 C63 0.930 . S
C58 H55 0.929 . S
C58 C59 1.398 . S
C58 C60 1.396 . S
C59 C58 1.398 . S
C59 C63 1.407 . S
C60 C58 1.396 . S
C60 C61 1.394 . S
C61 H56 0.929 . S
C61 C60 1.394 . S
C61 C62 1.382 . S
C62 C61 1.382 . S
C62 C63 1.392 . S
C62 N64 1.420 . S
C63 H57 0.930 . S
C63 C59 1.407 . S
C63 C62 1.392 . S
N64 C62 1.420 . S
N64 C65 1.244 . S
C65 N64 1.244 . S
H66 C69 0.929 . S
H67 C72 0.929 1_455 S
H68 C74 0.930 . S
C69 H66 0.929 . S
C69 C70 1.398 . S
C69 C71 1.396 . S
C70 C69 1.398 . S
C70 C74 1.407 . S
C71 C69 1.396 . S
C71 C72 1.394 . S
C72 H67 0.929 1_655 S
C72 C71 1.394 . S
C72 C73 1.382 . S
C73 C72 1.382 . S
C73 C74 1.392 . S
C73 N75 1.420 1_655 S
C74 H68 0.930 . S
C74 C70 1.407 . S
C74 C73 1.392 . S
N75 C73 1.420 1_455 S
N75 C76 1.244 . S
C76 N75 1.244 . S
H77 C80 0.929 . S
H78 C83 0.929 . S
H79 C85 0.930 . S
C80 H77 0.929 . S
C80 C81 1.398 . S
C80 C82 1.396 . S
C81 C80 1.398 . S
C81 C85 1.407 . S
C82 C80 1.396 . S
C82 C83 1.394 . S
C83 H78 0.929 . S
C83 C82 1.394 . S
C83 C84 1.382 . S
C84 C83 1.382 . S
C84 C85 1.392 . S
C84 N86 1.420 . S
C85 H79 0.930 . S
C85 C81 1.407 . S
C85 C84 1.392 . S
N86 C84 1.420 . S
N86 C87 1.244 . S
C87 N86 1.244 . S
H88 C91 0.929 . S
H89 C94 0.929 . S
H90 C96 0.930 . S
C91 H88 0.929 . S
C91 C92 1.398 . S
C91 C93 1.396 . S
C92 C91 1.398 . S
C92 C96 1.407 . S
C93 C91 1.396 . S
C93 C94 1.394 . S
C94 H89 0.929 . S
C94 C93 1.394 . S
C94 C95 1.382 . S
C95 C94 1.382 . S
C95 C96 1.392 . S
C95 N97 1.420 . S
C96 H90 0.930 . S
C96 C92 1.407 . S
C96 C95 1.392 . S
N97 C95 1.420 . S
N97 C98 1.244 . S
C98 N97 1.244 . S
H99 C102 0.929 . S
H100 C105 0.926 . S
H101 C107 0.930 . S
C102 H99 0.929 . S
C102 C103 1.398 . S
C102 C104 1.396 . S
C103 C102 1.398 . S
C103 C107 1.407 . S
C104 C102 1.396 . S
C104 C105 1.397 1_565 S
C105 H100 0.926 . S
C105 C104 1.397 1_545 S
C105 C106 1.382 1_545 S
C106 C105 1.382 1_565 S
C106 C107 1.392 . S
C106 N108 1.420 1_565 S
C107 H101 0.930 . S
C107 C103 1.407 . S
C107 C106 1.392 . S
N108 C106 1.420 1_545 S
N108 C109 1.244 . S
C109 N108 1.244 . S
H110 C113 0.929 . S
H111 C116 0.929 . S
H112 C118 0.930 . S
C113 H110 0.929 . S
C113 C114 1.398 . S
C113 C115 1.396 . S
C114 C113 1.398 . S
C114 C118 1.407 . S
C115 C113 1.396 . S
C115 C116 1.394 . S
C116 H111 0.929 . S
C116 C115 1.394 . S
C116 C117 1.382 . S
C117 C116 1.382 . S
C117 C118 1.392 . S
C117 N119 1.420 . S
C118 H112 0.930 . S
C118 C114 1.407 . S
C118 C117 1.392 . S
N119 C117 1.420 . S
N119 C120 1.244 . S
C120 N119 1.244 . S
H121 C124 0.929 . S
H122 C127 0.929 . S
H123 C129 0.930 . S
C124 H121 0.929 . S
C124 C125 1.398 . S
C124 C126 1.396 . S
C125 C124 1.398 . S
C125 C129 1.407 . S
C126 C124 1.396 . S
C126 C127 1.394 . S
C127 H122 0.929 . S
C127 C126 1.394 . S
C127 C128 1.382 . S
C128 C127 1.382 . S
C128 C129 1.392 . S
C128 N130 1.420 . S
C129 H123 0.930 . S
C129 C125 1.407 . S
C129 C128 1.392 . S
N130 C128 1.420 . S
N130 C131 1.244 . S
C131 N130 1.244 . S
H132 C135 0.929 . S
H133 C138 0.929 . S
H134 C140 0.930 . S
C135 H132 0.929 . S
C135 C136 1.398 . S
C135 C137 1.396 . S
C136 C135 1.398 . S
C136 C140 1.407 . S
C137 C135 1.396 . S
C137 C138 1.394 . S
C138 H133 0.929 . S
C138 C137 1.394 . S
C138 C139 1.382 . S
C139 C138 1.382 . S
C139 C140 1.392 . S
C139 N141 1.420 . S
C140 H134 0.930 . S
C140 C136 1.407 . S
C140 C139 1.392 . S
N141 C139 1.420 . S
N141 C142 1.244 . S
C142 N141 1.244 . S
H143 C146 0.929 . S
H144 C149 0.929 . S
H145 C151 0.930 . S
C146 H143 0.929 . S
C146 C147 1.398 . S
C146 C148 1.396 . S
C147 C146 1.398 . S
C147 C151 1.407 . S
C148 C146 1.396 . S
C148 C149 1.394 1_556 S
C149 H144 0.929 . S
C149 C148 1.394 1_554 S
C149 C150 1.382 1_554 S
C150 C149 1.382 1_556 S
C150 C151 1.392 . S
C150 N152 1.420 1_556 S
C151 H145 0.930 . S
C151 C147 1.407 . S
C151 C150 1.392 . S
N152 C150 1.420 1_554 S
N152 C153 1.244 . S
C153 N152 1.244 . S
H154 C157 0.929 . S
H155 C160 0.929 . S
H156 C162 0.930 . S
C157 H154 0.929 . S
C157 C158 1.398 . S
C157 C159 1.396 . S
C158 C157 1.398 . S
C158 C162 1.407 . S
C159 C157 1.396 . S
C159 C160 1.394 . S
C160 H155 0.929 . S
C160 C159 1.394 . S
C160 C161 1.382 . S
C161 C160 1.382 . S
C161 C162 1.392 . S
C161 N163 1.420 . S
C162 H156 0.930 . S
C162 C158 1.407 . S
C162 C161 1.392 . S
N163 C161 1.420 . S
N163 C164 1.244 . S
C164 N163 1.244 . S
H165 C168 0.929 . S
H166 C171 0.929 . S
H167 C173 0.930 . S
C168 H165 0.929 . S
C168 C169 1.398 1_554 S
C168 C170 1.396 . S
C169 C168 1.398 1_556 S
C169 C173 1.407 1_545 S
C170 C168 1.396 . S
C170 C171 1.394 1_554 S
C171 H166 0.929 . S
C171 C170 1.394 1_556 S
C171 C172 1.382 . S
C172 C171 1.382 . S
C172 C173 1.392 1_545 S
C172 N174 1.420 . S
C173 H167 0.930 . S
C173 C169 1.407 1_565 S
C173 C172 1.392 1_565 S
N174 C172 1.420 . S
N174 C175 1.244 . S
C175 N174 1.244 . S
Mg176 O177 2.028 . S
Mg176 O183 1.986 1_554 S
Mg176 O185 2.114 . S
Mg176 O186 2.251 . S
Mg176 O189 2.010 . S
O177 Mg176 2.028 . S
O177 C180 1.250 . S
O178 Mg179 2.028 . S
O178 C180 1.248 . S
Mg179 O178 2.028 . S
Mg179 O184 2.032 1_554 S
Mg179 O186 2.079 . S
C180 O177 1.250 . S
C180 O178 1.248 . S
C181 O182 1.264 . S
C181 O189 1.249 . S
O182 C181 1.264 . S
O183 Mg176 1.986 1_556 S
O183 C187 1.246 . S
O184 Mg179 2.032 1_556 S
O184 C187 1.259 . S
O185 Mg176 2.114 . S
O185 C188 1.252 . S
O186 Mg176 2.251 . S
O186 Mg179 2.079 . S
O186 C188 1.273 . S
C187 O183 1.246 . S
C187 O184 1.259 . S
C188 O185 1.252 . S
C188 O186 1.273 . S
O189 Mg176 2.010 . S
O189 C181 1.249 . S
Mg190 O191 2.028 . S
Mg190 O197 1.986 . S
Mg190 O199 2.114 . S
Mg190 O200 2.251 . S
Mg190 O203 2.010 . S
O191 Mg190 2.028 . S
O191 C194 1.250 . S
O192 Mg193 2.028 . S
O192 C194 1.248 . S
Mg193 O192 2.028 . S
Mg193 O198 2.032 . S
Mg193 O200 2.079 . S
C194 O191 1.250 . S
C194 O192 1.248 . S
C195 O196 1.264 . S
C195 O203 1.249 . S
O196 C195 1.264 . S
O197 Mg190 1.986 . S
O197 C201 1.246 . S
O198 Mg193 2.032 . S
O198 C201 1.259 . S
O199 Mg190 2.114 . S
O199 C202 1.252 . S
O200 Mg190 2.251 . S
O200 Mg193 2.079 . S
O200 C202 1.273 . S
C201 O197 1.246 . S
C201 O198 1.259 . S
C202 O199 1.252 . S
C202 O200 1.273 . S
O203 Mg190 2.010 . S
O203 C195 1.249 . S
Mg204 O205 2.028 1_554 S
Mg204 O211 1.986 1_554 S
Mg204 O213 2.114 . S
Mg204 O214 2.251 . S
Mg204 O217 2.010 . S
O205 Mg204 2.028 1_556 S
O205 C208 1.250 . S
O206 Mg207 2.028 . S
O206 C208 1.248 . S
Mg207 O206 2.028 . S
Mg207 O212 2.032 . S
Mg207 O214 2.079 1_556 S
C208 O205 1.250 . S
C208 O206 1.248 . S
C209 O210 1.264 . S
C209 O217 1.249 . S
O210 C209 1.264 . S
O211 Mg204 1.986 1_556 S
O211 C215 1.246 . S
O212 Mg207 2.032 . S
O212 C215 1.259 . S
O213 Mg204 2.114 . S
O213 C216 1.252 . S
O214 Mg204 2.251 . S
O214 Mg207 2.079 1_554 S
O214 C216 1.273 . S
C215 O211 1.246 . S
C215 O212 1.259 . S
C216 O213 1.252 . S
C216 O214 1.273 . S
O217 Mg204 2.010 . S
O217 C209 1.249 . S
Mg218 O219 2.028 . S
Mg218 O225 1.986 . S
Mg218 O227 2.114 . S
Mg218 O228 2.251 . S
Mg218 O231 2.010 . S
O219 Mg218 2.028 . S
O219 C222 1.250 1_545 S
O220 Mg221 2.028 . S
O220 C222 1.248 . S
Mg221 O220 2.028 . S
Mg221 O226 2.032 . S
Mg221 O228 2.079 1_565 S
C222 O219 1.250 1_565 S
C222 O220 1.248 . S
C223 O224 1.264 . S
C223 O231 1.249 . S
O224 C223 1.264 . S
O225 Mg218 1.986 . S
O225 C229 1.246 . S
O226 Mg221 2.032 . S
O226 C229 1.259 1_565 S
O227 Mg218 2.114 . S
O227 C230 1.252 . S
O228 Mg218 2.251 . S
O228 Mg221 2.079 1_545 S
O228 C230 1.273 . S
C229 O225 1.246 . S
C229 O226 1.259 1_545 S
C230 O227 1.252 . S
C230 O228 1.273 . S
O231 Mg218 2.010 . S
O231 C223 1.249 . S
Mg232 O233 2.028 . S
Mg232 O239 1.986 . S
Mg232 O241 2.114 . S
Mg232 O242 2.251 . S
Mg232 O245 2.010 . S
O233 Mg232 2.028 . S
O233 C236 1.250 . S
O234 Mg235 2.028 . S
O234 C236 1.248 . S
Mg235 O234 2.028 . S
Mg235 O240 2.032 . S
Mg235 O242 2.079 . S
C236 O233 1.250 . S
C236 O234 1.248 . S
C237 O238 1.264 . S
C237 O245 1.249 . S
O238 C237 1.264 . S
O239 Mg232 1.986 . S
O239 C243 1.246 . S
O240 Mg235 2.032 . S
O240 C243 1.259 . S
O241 Mg232 2.114 . S
O241 C244 1.252 . S
O242 Mg232 2.251 . S
O242 Mg235 2.079 . S
O242 C244 1.273 . S
C243 O239 1.246 . S
C243 O240 1.259 . S
C244 O241 1.252 . S
C244 O242 1.273 . S
O245 Mg232 2.010 . S
O245 C237 1.249 . S
Mg246 O247 2.028 . S
Mg246 O253 1.986 . S
Mg246 O255 2.114 . S
Mg246 O256 2.251 . S
Mg246 O259 2.010 . S
O247 Mg246 2.028 . S
O247 C250 1.250 . S
O248 Mg249 2.028 . S
O248 C250 1.248 . S
Mg249 O248 2.028 . S
Mg249 O254 2.032 . S
Mg249 O256 2.079 . S
C250 O247 1.250 . S
C250 O248 1.248 . S
C251 O252 1.264 . S
C251 O259 1.249 . S
O252 C251 1.264 . S
O253 Mg246 1.986 . S
O253 C257 1.246 . S
O254 Mg249 2.032 . S
O254 C257 1.259 . S
O255 Mg246 2.114 . S
O255 C258 1.252 . S
O256 Mg246 2.251 . S
O256 Mg249 2.079 . S
O256 C258 1.273 . S
C257 O253 1.246 . S
C257 O254 1.259 . S
C258 O255 1.252 . S
C258 O256 1.273 . S
O259 Mg246 2.010 . S
O259 C251 1.249 . S
Mg260 O261 2.028 . S
Mg260 O267 1.986 . S
Mg260 O269 2.114 . S
Mg260 O270 2.251 . S
Mg260 O273 2.010 . S
O261 Mg260 2.028 . S
O261 C264 1.250 . S
O262 Mg263 2.028 . S
O262 C264 1.248 . S
Mg263 O262 2.028 . S
Mg263 O268 2.032 . S
Mg263 O270 2.079 . S
C264 O261 1.250 . S
C264 O262 1.248 . S
C265 O266 1.264 . S
C265 O273 1.249 . S
O266 C265 1.264 . S
O267 Mg260 1.986 . S
O267 C271 1.246 . S
O268 Mg263 2.032 . S
O268 C271 1.259 . S
O269 Mg260 2.114 . S
O269 C272 1.252 . S
O270 Mg260 2.251 . S
O270 Mg263 2.079 . S
O270 C272 1.273 . S
C271 O267 1.246 . S
C271 O268 1.259 . S
C272 O269 1.252 . S
C272 O270 1.273 . S
O273 Mg260 2.010 . S
O273 C265 1.249 . S
Mg274 O275 2.028 1_545 S
Mg274 O281 1.986 1_545 S
Mg274 O283 2.114 . S
Mg274 O284 2.251 . S
Mg274 O287 2.010 . S
O275 Mg274 2.028 1_565 S
O275 C278 1.250 . S
O276 Mg277 2.028 . S
O276 C278 1.248 . S
Mg277 O276 2.028 . S
Mg277 O282 2.032 . S
Mg277 O284 2.079 1_565 S
C278 O275 1.250 . S
C278 O276 1.248 . S
C279 O280 1.264 . S
C279 O287 1.249 . S
O280 C279 1.264 . S
O281 Mg274 1.986 1_565 S
O281 C285 1.246 . S
O282 Mg277 2.032 . S
O282 C285 1.259 . S
O283 Mg274 2.114 . S
O283 C286 1.252 . S
O284 Mg274 2.251 . S
O284 Mg277 2.079 1_545 S
O284 C286 1.273 . S
C285 O281 1.246 . S
C285 O282 1.259 . S
C286 O283 1.252 . S
C286 O284 1.273 . S
O287 Mg274 2.010 . S
O287 C279 1.249 . S
Mg288 O289 2.028 . S
Mg288 O295 1.986 . S
Mg288 O297 2.114 . S
Mg288 O298 2.251 . S
Mg288 O301 2.010 . S
O289 Mg288 2.028 . S
O289 C292 1.250 1_455 S
O290 Mg291 2.028 . S
O290 C292 1.248 . S
Mg291 O290 2.028 . S
Mg291 O296 2.032 . S
Mg291 O298 2.079 1_655 S
C292 O289 1.250 1_655 S
C292 O290 1.248 . S
C293 O294 1.264 . S
C293 O301 1.249 . S
O294 C293 1.264 . S
O295 Mg288 1.986 . S
O295 C299 1.246 . S
O296 Mg291 2.032 . S
O296 C299 1.259 1_655 S
O297 Mg288 2.114 . S
O297 C300 1.252 . S
O298 Mg288 2.251 . S
O298 Mg291 2.079 1_455 S
O298 C300 1.273 . S
C299 O295 1.246 . S
C299 O296 1.259 1_455 S
C300 O297 1.252 . S
C300 O298 1.273 . S
O301 Mg288 2.010 . S
O301 C293 1.249 . S
Mg302 O303 2.028 . S
Mg302 O309 1.986 . S
Mg302 O311 2.114 . S
Mg302 O312 2.251 . S
Mg302 O315 2.010 . S
O303 Mg302 2.028 . S
O303 C306 1.250 . S
O304 Mg305 2.028 . S
O304 C306 1.248 . S
Mg305 O304 2.028 . S
Mg305 O310 2.032 . S
Mg305 O312 2.079 . S
C306 O303 1.250 . S
C306 O304 1.248 . S
C307 O308 1.264 . S
C307 O315 1.249 . S
O308 C307 1.264 . S
O309 Mg302 1.986 . S
O309 C313 1.246 . S
O310 Mg305 2.032 . S
O310 C313 1.259 . S
O311 Mg302 2.114 . S
O311 C314 1.252 . S
O312 Mg302 2.251 . S
O312 Mg305 2.079 . S
O312 C314 1.273 . S
C313 O309 1.246 . S
C313 O310 1.259 . S
C314 O311 1.252 . S
C314 O312 1.273 . S
O315 Mg302 2.010 . S
O315 C307 1.249 . S
Mg316 O317 2.028 1_655 S
Mg316 O323 1.986 1_655 S
Mg316 O325 2.114 . S
Mg316 O326 2.251 1_655 S
Mg316 O329 2.010 . S
O317 Mg316 2.028 1_455 S
O317 C320 1.250 . S
O318 Mg319 2.028 . S
O318 C320 1.248 . S
Mg319 O318 2.028 . S
Mg319 O324 2.032 . S
Mg319 O326 2.079 . S
C320 O317 1.250 . S
C320 O318 1.248 . S
C321 O322 1.264 . S
C321 O329 1.249 . S
O322 C321 1.264 . S
O323 Mg316 1.986 1_455 S
O323 C327 1.246 . S
O324 Mg319 2.032 . S
O324 C327 1.259 . S
O325 Mg316 2.114 . S
O325 C328 1.252 . S
O326 Mg316 2.251 1_455 S
O326 Mg319 2.079 . S
O326 C328 1.273 1_455 S
C327 O323 1.246 . S
C327 O324 1.259 . S
C328 O325 1.252 . S
C328 O326 1.273 1_655 S
O329 Mg316 2.010 . S
O329 C321 1.249 . S
Mg330 O331 2.028 . S
Mg330 O337 1.986 . S
Mg330 O339 2.114 . S
Mg330 O340 2.251 . S
Mg330 O343 2.010 . S
O331 Mg330 2.028 . S
O331 C334 1.250 . S
O332 Mg333 2.028 . S
O332 C334 1.248 . S
Mg333 O332 2.028 . S
Mg333 O338 2.032 . S
Mg333 O340 2.079 . S
C334 O331 1.250 . S
C334 O332 1.248 . S
C335 O336 1.264 . S
C335 O343 1.249 . S
O336 C335 1.264 . S
O337 Mg330 1.986 . S
O337 C341 1.246 . S
O338 Mg333 2.032 . S
O338 C341 1.259 . S
O339 Mg330 2.114 . S
O339 C342 1.252 . S
O340 Mg330 2.251 . S
O340 Mg333 2.079 . S
O340 C342 1.273 . S
C341 O337 1.246 . S
C341 O338 1.259 . S
C342 O339 1.252 . S
C342 O340 1.273 . S
O343 Mg330 2.010 . S
O343 C335 1.249 . S
C344 C345 1.387 . S
C344 H348 0.950 . S
C344 C353 1.390 . S
C345 C344 1.387 . S
C345 C347 1.387 . S
H346 C353 0.950 . S
C347 C345 1.387 . S
C347 C349 1.390 . S
C347 H351 0.950 . S
H348 C344 0.950 . S
C349 C347 1.390 . S
C349 C350 1.387 . S
C349 H352 0.950 . S
C350 C349 1.387 . S
C350 C353 1.387 . S
H351 C347 0.950 . S
H352 C349 0.950 . S
C353 C344 1.390 . S
C353 H346 0.950 . S
C353 C350 1.387 . S
C354 C355 1.387 . S
C354 H358 0.950 . S
C354 C363 1.390 . S
C355 C354 1.387 . S
C355 C357 1.387 . S
H356 C363 0.950 . S
C357 C355 1.387 . S
C357 C359 1.390 . S
C357 H361 0.950 . S
H358 C354 0.950 . S
C359 C357 1.390 . S
C359 C360 1.387 . S
C359 H362 0.950 . S
C360 C359 1.387 . S
C360 C363 1.387 . S
H361 C357 0.950 . S
H362 C359 0.950 . S
C363 C354 1.390 . S
C363 H356 0.950 . S
C363 C360 1.387 . S
C364 C365 1.387 . S
C364 H368 0.950 . S
C364 C373 1.390 . S
C365 C364 1.387 . S
C365 C367 1.387 . S
H366 C373 0.950 . S
C367 C365 1.387 . S
C367 C369 1.390 . S
C367 H371 0.950 . S
H368 C364 0.950 . S
C369 C367 1.390 . S
C369 C370 1.387 . S
C369 H372 0.950 . S
C370 C369 1.387 . S
C370 C373 1.387 . S
H371 C367 0.950 . S
H372 C369 0.950 . S
C373 C364 1.390 . S
C373 H366 0.950 . S
C373 C370 1.387 . S
C374 C375 1.387 1_565 S
C374 H378 0.950 . S
C374 C383 1.390 1_455 S
C375 C374 1.387 1_545 S
C375 C377 1.387 . S
H376 C383 0.950 . S
C377 C375 1.387 . S
C377 C379 1.390 . S
C377 H381 0.950 . S
H378 C374 0.950 . S
C379 C377 1.390 . S
C379 C380 1.387 1_455 S
C379 H382 0.950 . S
C380 C379 1.387 1_655 S
C380 C383 1.387 1_545 S
H381 C377 0.950 . S
H382 C379 0.950 . S
C383 C374 1.390 1_655 S
C383 H376 0.950 . S
C383 C380 1.387 1_565 S
C384 C385 1.387 . S
C384 H388 0.950 . S
C384 C393 1.390 . S
C385 C384 1.387 . S
C385 C387 1.387 . S
H386 C393 0.950 . S
C387 C385 1.387 . S
C387 C389 1.390 . S
C387 H391 0.950 . S
H388 C384 0.950 . S
C389 C387 1.390 . S
C389 C390 1.387 . S
C389 H392 0.950 . S
C390 C389 1.387 . S
C390 C393 1.387 . S
H391 C387 0.950 . S
H392 C389 0.950 . S
C393 C384 1.390 . S
C393 H386 0.950 . S
C393 C390 1.387 . S
C394 C395 1.387 . S
C394 H398 0.950 . S
C394 C403 1.390 . S
C395 C394 1.387 . S
C395 C397 1.387 . S
H396 C403 0.950 . S
C397 C395 1.387 . S
C397 C399 1.390 . S
C397 H401 0.950 . S
H398 C394 0.950 . S
C399 C397 1.390 . S
C399 C400 1.387 . S
C399 H402 0.950 . S
C400 C399 1.387 . S
C400 C403 1.387 . S
H401 C397 0.950 . S
H402 C399 0.950 . S
C403 C394 1.390 . S
C403 H396 0.950 . S
C403 C400 1.387 . S
C404 C405 1.387 . S
C404 H408 0.950 . S
C404 C413 1.390 . S
C405 C404 1.387 . S
C405 C407 1.387 . S
H406 C413 0.950 . S
C407 C405 1.387 . S
C407 C409 1.390 . S
C407 H411 0.950 . S
H408 C404 0.950 . S
C409 C407 1.390 . S
C409 C410 1.387 . S
C409 H412 0.950 . S
C410 C409 1.387 . S
C410 C413 1.387 . S
H411 C407 0.950 . S
H412 C409 0.950 . S
C413 C404 1.390 . S
C413 H406 0.950 . S
C413 C410 1.387 . S
C414 C415 1.387 1_545 S
C414 H418 0.950 . S
C414 C423 1.390 . S
C415 C414 1.387 1_565 S
C415 C417 1.387 . S
H416 C423 0.950 . S
C417 C415 1.387 . S
C417 C419 1.390 . S
C417 H421 0.950 . S
H418 C414 0.950 . S
C419 C417 1.390 . S
C419 C420 1.387 . S
C419 H422 0.950 . S
C420 C419 1.387 . S
C420 C423 1.387 1_565 S
H421 C417 0.950 . S
H422 C419 0.950 . S
C423 C414 1.390 . S
C423 H416 0.950 . S
C423 C420 1.387 1_545 S
C424 C425 1.387 . S
C424 H428 0.950 . S
C424 C433 1.390 . S
C425 C424 1.387 . S
C425 C427 1.387 . S
H426 C433 0.950 . S
C427 C425 1.387 . S
C427 C429 1.390 . S
C427 H431 0.950 . S
H428 C424 0.950 . S
C429 C427 1.390 . S
C429 C430 1.387 . S
C429 H432 0.950 . S
C430 C429 1.387 . S
C430 C433 1.387 . S
H431 C427 0.950 . S
H432 C429 0.950 . S
C433 C424 1.390 . S
C433 H426 0.950 . S
C433 C430 1.387 . S
C434 C435 1.387 . S
C434 H438 0.950 . S
C434 C443 1.390 . S
C435 C434 1.387 . S
C435 C437 1.387 . S
H436 C443 0.950 . S
C437 C435 1.387 . S
C437 C439 1.390 . S
C437 H441 0.950 . S
H438 C434 0.950 . S
C439 C437 1.390 . S
C439 C440 1.387 . S
C439 H442 0.950 . S
C440 C439 1.387 . S
C440 C443 1.387 . S
H441 C437 0.950 . S
H442 C439 0.950 . S
C443 C434 1.390 . S
C443 H436 0.950 . S
C443 C440 1.387 . S
C444 C445 1.387 . S
C444 H448 0.950 . S
C444 C453 1.390 . S
C445 C444 1.387 . S
C445 C447 1.387 . S
H446 C453 0.950 . S
C447 C445 1.387 . S
C447 C449 1.390 . S
C447 H451 0.950 . S
H448 C444 0.950 . S
C449 C447 1.390 . S
C449 C450 1.387 . S
C449 H452 0.950 . S
C450 C449 1.387 . S
C450 C453 1.387 . S
H451 C447 0.950 . S
H452 C449 0.950 . S
C453 C444 1.390 . S
C453 H446 0.950 . S
C453 C450 1.387 . S
C454 C455 1.387 . S
C454 H458 0.950 . S
C454 C463 1.390 . S
C455 C454 1.387 . S
C455 C457 1.387 . S
H456 C463 0.950 . S
C457 C455 1.387 . S
C457 C459 1.390 . S
C457 H461 0.950 . S
H458 C454 0.950 . S
C459 C457 1.390 . S
C459 C460 1.387 . S
C459 H462 0.950 . S
C460 C459 1.387 . S
C460 C463 1.387 . S
H461 C457 0.950 . S
H462 C459 0.950 . S
C463 C454 1.390 . S
C463 H456 0.950 . S
C463 C460 1.387 . S
C464 C465 1.387 . S
C464 H468 0.950 . S
C464 C473 1.390 . S
C465 C464 1.387 . S
C465 C467 1.387 . S
H466 C473 0.950 . S
C467 C465 1.387 . S
C467 C469 1.390 . S
C467 H471 0.950 . S
H468 C464 0.950 . S
C469 C467 1.390 . S
C469 C470 1.387 . S
C469 H472 0.950 . S
C470 C469 1.387 . S
C470 C473 1.387 . S
H471 C467 0.950 . S
H472 C469 0.950 . S
C473 C464 1.390 . S
C473 H466 0.950 . S
C473 C470 1.387 . S
C474 C475 1.387 . S
C474 H478 0.950 . S
C474 C483 1.390 . S
C475 C474 1.387 . S
C475 C477 1.387 . S
H476 C483 0.950 1_655 S
C477 C475 1.387 . S
C477 C479 1.390 . S
C477 H481 0.950 . S
H478 C474 0.950 . S
C479 C477 1.390 . S
C479 C480 1.387 . S
C479 H482 0.950 . S
C480 C479 1.387 . S
C480 C483 1.387 . S
H481 C477 0.950 . S
H482 C479 0.950 . S
C483 C474 1.390 . S
C483 H476 0.950 1_455 S
C483 C480 1.387 . S
C484 C485 1.387 . S
C484 H488 0.950 . S
C484 C493 1.390 . S
C485 C484 1.387 . S
C485 C487 1.387 . S
H486 C493 0.950 . S
C487 C485 1.387 . S
C487 C489 1.390 . S
C487 H491 0.950 . S
H488 C484 0.950 . S
C489 C487 1.390 . S
C489 C490 1.387 . S
C489 H492 0.950 . S
C490 C489 1.387 . S
C490 C493 1.387 . S
H491 C487 0.950 . S
H492 C489 0.950 . S
C493 C484 1.390 . S
C493 H486 0.950 . S
C493 C490 1.387 . S
C494 C495 1.387 1_455 S
C494 H498 0.950 . S
C494 C503 1.390 . S
C495 C494 1.387 1_655 S
C495 C497 1.387 . S
H496 C503 0.950 . S
C497 C495 1.387 . S
C497 C499 1.390 . S
C497 H501 0.950 . S
H498 C494 0.950 . S
C499 C497 1.390 . S
C499 C500 1.387 . S
C499 H502 0.950 . S
C500 C499 1.387 . S
C500 C503 1.387 1_655 S
H501 C497 0.950 . S
H502 C499 0.950 . S
C503 C494 1.390 . S
C503 H496 0.950 . S
C503 C500 1.387 1_455 S
C504 C505 1.387 . S
C504 H508 0.950 . S
C504 C513 1.390 . S
C505 C504 1.387 . S
C505 C507 1.387 . S
H506 C513 0.950 . S
C507 C505 1.387 . S
C507 C509 1.390 . S
C507 H511 0.950 . S
H508 C504 0.950 . S
C509 C507 1.390 . S
C509 C510 1.387 . S
C509 H512 0.950 . S
C510 C509 1.387 . S
C510 C513 1.387 . S
H511 C507 0.950 . S
H512 C509 0.950 . S
C513 C504 1.390 . S
C513 H506 0.950 . S
C513 C510 1.387 . S
C514 C515 1.387 . S
C514 H518 0.950 . S
C514 C523 1.390 . S
C515 C514 1.387 . S
C515 C517 1.387 . S
H516 C523 0.950 . S
C517 C515 1.387 . S
C517 C519 1.390 . S
C517 H521 0.950 . S
H518 C514 0.950 . S
C519 C517 1.390 . S
C519 C520 1.387 . S
C519 H522 0.950 . S
C520 C519 1.387 . S
C520 C523 1.387 . S
H521 C517 0.950 . S
H522 C519 0.950 . S
C523 C514 1.390 . S
C523 H516 0.950 . S
C523 C520 1.387 . S
C524 C525 1.400 . S
C524 H528 0.950 . S
C524 C533 1.390 . S
C525 C524 1.400 . S
C525 C527 1.365 1_556 S
H526 C533 0.950 . S
C527 C525 1.365 1_554 S
C527 C529 1.390 . S
C527 H531 0.950 1_565 S
H528 C524 0.950 . S
C529 C527 1.390 . S
C529 C530 1.387 . S
C529 H532 0.950 . S
C530 C529 1.387 . S
C530 C533 1.387 1_554 S
H531 C527 0.950 1_545 S
H532 C529 0.950 . S
C533 C524 1.390 . S
C533 H526 0.950 . S
C533 C530 1.387 1_556 S
C534 C535 1.387 . S
C534 H538 0.950 . S
C534 C543 1.390 . S
C535 C534 1.387 . S
C535 C537 1.387 . S
H536 C543 0.950 . S
C537 C535 1.387 . S
C537 C539 1.390 . S
C537 H541 0.950 . S
H538 C534 0.950 . S
C539 C537 1.390 . S
C539 C540 1.387 . S
C539 H542 0.950 . S
C540 C539 1.387 . S
C540 C543 1.387 . S
H541 C537 0.950 . S
H542 C539 0.950 . S
C543 C534 1.390 . S
C543 H536 0.950 . S
C543 C540 1.387 . S
C544 C545 1.387 . S
C544 H548 0.950 . S
C544 C553 1.390 . S
C545 C544 1.387 . S
C545 C547 1.387 . S
H546 C553 0.950 . S
C547 C545 1.387 . S
C547 C549 1.390 . S
C547 H551 0.950 . S
H548 C544 0.950 . S
C549 C547 1.390 . S
C549 C550 1.387 . S
C549 H552 0.950 . S
C550 C549 1.387 . S
C550 C553 1.387 . S
H551 C547 0.950 . S
H552 C549 0.950 . S
C553 C544 1.390 . S
C553 H546 0.950 . S
C553 C550 1.387 . S
C554 C555 1.387 . S
C554 H558 0.950 . S
C554 C563 1.390 . S
C555 C554 1.387 . S
C555 C557 1.387 . S
H556 C563 0.950 . S
C557 C555 1.387 . S
C557 C559 1.390 . S
C557 H561 0.950 . S
H558 C554 0.950 . S
C559 C557 1.390 . S
C559 C560 1.387 . S
C559 H562 0.950 . S
C560 C559 1.387 . S
C560 C563 1.387 . S
H561 C557 0.950 . S
H562 C559 0.950 . S
C563 C554 1.390 . S
C563 H556 0.950 . S
C563 C560 1.387 . S
C564 C565 1.387 . S
C564 H568 0.950 . S
C564 C573 1.390 . S
C565 C564 1.387 . S
C565 C567 1.387 . S
H566 C573 0.950 . S
C567 C565 1.387 . S
C567 C569 1.390 . S
C567 H571 0.950 . S
H568 C564 0.950 . S
C569 C567 1.390 . S
C569 C570 1.387 . S
C569 H572 0.950 . S
C570 C569 1.387 . S
C570 C573 1.387 . S
H571 C567 0.950 . S
H572 C569 0.950 . S
C573 C564 1.390 . S
C573 H566 0.950 . S
C573 C570 1.387 . S
C574 C575 1.387 . S
C574 H578 0.950 . S
C574 C583 1.390 . S
C575 C574 1.387 . S
C575 C577 1.387 . S
H576 C583 0.950 . S
C577 C575 1.387 . S
C577 C579 1.390 . S
C577 H581 0.950 . S
H578 C574 0.950 . S
C579 C577 1.390 . S
C579 C580 1.387 . S
C579 H582 0.950 . S
C580 C579 1.387 . S
C580 C583 1.387 . S
H581 C577 0.950 . S
H582 C579 0.950 . S
C583 C574 1.390 . S
C583 H576 0.950 . S
C583 C580 1.387 . S
C584 C585 1.387 . S
C584 H588 0.950 . S
C584 C593 1.390 . S
C585 C584 1.387 . S
C585 C587 1.387 . S
H586 C593 0.950 . S
C587 C585 1.387 . S
C587 C589 1.390 . S
C587 H591 0.950 . S
H588 C584 0.950 . S
C589 C587 1.390 . S
C589 C590 1.387 . S
C589 H592 0.950 . S
C590 C589 1.387 . S
C590 C593 1.387 . S
H591 C587 0.950 . S
H592 C589 0.950 . S
C593 C584 1.390 . S
C593 H586 0.950 . S
C593 C590 1.387 . S
C594 C595 1.387 . S
C594 H598 0.950 . S
C594 C603 1.390 . S
C595 C594 1.387 . S
C595 C597 1.387 1_545 S
H596 C603 0.950 . S
C597 C595 1.387 1_565 S
C597 C599 1.390 . S
C597 H601 0.950 . S
H598 C594 0.950 . S
C599 C597 1.390 . S
C599 C600 1.387 1_565 S
C599 H602 0.950 . S
C600 C599 1.387 1_545 S
C600 C603 1.387 . S
H601 C597 0.950 . S
H602 C599 0.950 . S
C603 C594 1.390 . S
C603 H596 0.950 . S
C603 C600 1.387 . S
C604 C605 1.387 . S
C604 H608 0.950 . S
C604 C613 1.390 . S
C605 C604 1.387 . S
C605 C607 1.387 . S
H606 C613 0.950 . S
C607 C605 1.387 . S
C607 C609 1.390 . S
C607 H611 0.950 . S
H608 C604 0.950 . S
C609 C607 1.390 . S
C609 C610 1.387 . S
C609 H612 0.950 . S
C610 C609 1.387 . S
C610 C613 1.387 . S
H611 C607 0.950 . S
H612 C609 0.950 . S
C613 C604 1.390 . S
C613 H606 0.950 . S
C613 C610 1.387 . S
C614 C615 1.387 . S
C614 H618 0.950 . S
C614 C623 1.390 . S
C615 C614 1.387 . S
C615 C617 1.387 . S
H616 C623 0.950 . S
C617 C615 1.387 . S
C617 C619 1.390 . S
C617 H621 0.950 . S
H618 C614 0.950 . S
C619 C617 1.390 . S
C619 C620 1.387 . S
C619 H622 0.950 . S
C620 C619 1.387 . S
C620 C623 1.387 . S
H621 C617 0.950 . S
H622 C619 0.950 . S
C623 C614 1.390 . S
C623 H616 0.950 . S
C623 C620 1.387 . S
C624 C625 1.387 . S
C624 H628 0.950 . S
C624 C633 1.390 . S
C625 C624 1.387 . S
C625 C627 1.387 . S
H626 C633 0.950 . S
C627 C625 1.387 . S
C627 C629 1.390 . S
C627 H631 0.950 . S
H628 C624 0.950 . S
C629 C627 1.390 . S
C629 C630 1.387 . S
C629 H632 0.950 . S
C630 C629 1.387 . S
C630 C633 1.387 . S
H631 C627 0.950 . S
H632 C629 0.950 . S
C633 C624 1.390 . S
C633 H626 0.950 . S
C633 C630 1.387 . S
C634 C635 1.387 . S
C634 H638 0.950 1_545 S
C634 C643 1.390 1_455 S
C635 C634 1.387 . S
C635 C637 1.387 . S
H636 C643 0.950 1_565 S
C637 C635 1.387 . S
C637 C639 1.390 . S
C637 H641 0.950 . S
H638 C634 0.950 1_565 S
C639 C637 1.390 . S
C639 C640 1.387 1_455 S
C639 H642 0.950 . S
C640 C639 1.387 1_655 S
C640 C643 1.387 . S
H641 C637 0.950 . S
H642 C639 0.950 . S
C643 C634 1.390 1_655 S
C643 H636 0.950 1_545 S
C643 C640 1.387 . S
C644 C645 1.387 . S
C644 H648 0.950 . S
C644 C653 1.390 . S
C645 C644 1.387 . S
C645 C647 1.387 . S
H646 C653 0.950 . S
C647 C645 1.387 . S
C647 C649 1.390 . S
C647 H651 0.950 . S
H648 C644 0.950 . S
C649 C647 1.390 . S
C649 C650 1.387 . S
C649 H652 0.950 . S
C650 C649 1.387 . S
C650 C653 1.387 . S
H651 C647 0.950 . S
H652 C649 0.950 . S
C653 C644 1.390 . S
C653 H646 0.950 . S
C653 C650 1.387 . S
C654 C655 1.387 . S
C654 H658 0.950 . S
C654 C663 1.390 . S
C655 C654 1.387 . S
C655 C657 1.387 . S
H656 C663 0.950 . S
C657 C655 1.387 . S
C657 C659 1.390 . S
C657 H661 0.950 . S
H658 C654 0.950 . S
C659 C657 1.390 . S
C659 C660 1.387 . S
C659 H662 0.950 . S
C660 C659 1.387 . S
C660 C663 1.387 . S
H661 C657 0.950 . S
H662 C659 0.950 . S
C663 C654 1.390 . S
C663 H656 0.950 . S
C663 C660 1.387 . S
C664 C665 1.387 . S
C664 H668 0.950 . S
C664 C673 1.390 . S
C665 C664 1.387 . S
C665 C667 1.387 . S
H666 C673 0.950 . S
C667 C665 1.387 . S
C667 C669 1.390 . S
C667 H671 0.950 . S
H668 C664 0.950 . S
C669 C667 1.390 . S
C669 C670 1.387 . S
C669 H672 0.950 . S
C670 C669 1.387 . S
C670 C673 1.387 . S
H671 C667 0.950 . S
H672 C669 0.950 . S
C673 C664 1.390 . S
C673 H666 0.950 . S
C673 C670 1.387 . S
C674 C675 1.387 1_655 S
C674 H678 0.950 . S
C674 C683 1.390 . S
C675 C674 1.387 1_455 S
C675 C677 1.387 1_556 S
H676 C683 0.950 . S
C677 C675 1.387 1_554 S
C677 C679 1.390 1_554 S
C677 H681 0.950 . S
H678 C674 0.950 . S
C679 C677 1.390 1_556 S
C679 C680 1.387 . S
C679 H682 0.950 . S
C680 C679 1.387 . S
C680 C683 1.387 1_455 S
H681 C677 0.950 . S
H682 C679 0.950 . S
C683 C674 1.390 . S
C683 H676 0.950 . S
C683 C680 1.387 1_655 S
C684 C685 1.387 . S
C684 H688 0.950 . S
C684 C693 1.390 . S
C685 C684 1.387 . S
C685 C687 1.387 . S
H686 C693 0.950 . S
C687 C685 1.387 . S
C687 C689 1.390 . S
C687 H691 0.950 . S
H688 C684 0.950 . S
C689 C687 1.390 . S
C689 C690 1.387 . S
C689 H692 0.950 . S
C690 C689 1.387 . S
C690 C693 1.387 . S
H691 C687 0.950 . S
H692 C689 0.950 . S
C693 C684 1.390 . S
C693 H686 0.950 . S
C693 C690 1.387 . S
C694 C695 1.387 . S
C694 H698 0.950 1_556 S
C694 C703 1.390 . S
C695 C694 1.387 . S
C695 C697 1.387 . S
H696 C703 0.963 . S
C697 C695 1.387 . S
C697 C699 1.390 . S
C697 H701 0.950 . S
H698 C694 0.950 1_554 S
C699 C697 1.390 . S
C699 C700 1.387 . S
C699 H702 0.950 . S
C700 C699 1.387 . S
C700 C703 1.387 . S
H701 C697 0.950 . S
H702 C699 0.950 . S
C703 C694 1.390 . S
C703 H696 0.963 . S
C703 C700 1.387 . S
C704 C705 1.387 . S
C704 H708 0.950 . S
C704 C713 1.390 . S
C705 C704 1.387 . S
C705 C707 1.387 . S
H706 C713 0.950 . S
C707 C705 1.387 . S
C707 C709 1.390 . S
C707 H711 0.950 . S
H708 C704 0.950 . S
C709 C707 1.390 . S
C709 C710 1.387 . S
C709 H712 0.950 . S
C710 C709 1.387 . S
C710 C713 1.387 . S
H711 C707 0.950 . S
H712 C709 0.950 . S
C713 C704 1.390 . S
C713 H706 0.950 . S
C713 C710 1.387 . S
C714 C715 1.387 . S
C714 H718 0.950 . S
C714 C723 1.390 . S
C715 C714 1.387 . S
C715 C717 1.387 . S
H716 C723 0.950 . S
C717 C715 1.387 . S
C717 C719 1.390 . S
C717 H721 0.950 . S
H718 C714 0.950 . S
C719 C717 1.390 . S
C719 C720 1.387 . S
C719 H722 0.950 . S
C720 C719 1.387 . S
C720 C723 1.387 . S
H721 C717 0.950 . S
H722 C719 0.950 . S
C723 C714 1.390 . S
C723 H716 0.950 . S
C723 C720 1.387 . S
C724 C725 1.387 . S
C724 H728 0.950 . S
C724 C733 1.390 . S
C725 C724 1.387 . S
C725 C727 1.387 . S
H726 C733 0.950 . S
C727 C725 1.387 . S
C727 C729 1.390 . S
C727 H731 0.950 . S
H728 C724 0.950 . S
C729 C727 1.390 . S
C729 C730 1.387 . S
C729 H732 0.950 . S
C730 C729 1.387 . S
C730 C733 1.387 . S
H731 C727 0.950 . S
H732 C729 0.950 . S
C733 C724 1.390 . S
C733 H726 0.950 . S
C733 C730 1.387 . S
C734 C735 1.387 . S
C734 H738 0.950 . S
C734 C743 1.390 . S
C735 C734 1.387 . S
C735 C737 1.387 . S
H736 C743 0.950 . S
C737 C735 1.387 . S
C737 C739 1.390 . S
C737 H741 0.950 . S
H738 C734 0.950 . S
C739 C737 1.390 . S
C739 C740 1.387 . S
C739 H742 0.950 . S
C740 C739 1.387 . S
C740 C743 1.387 . S
H741 C737 0.950 . S
H742 C739 0.950 . S
C743 C734 1.390 . S
C743 H736 0.950 . S
C743 C740 1.387 . S
C744 C745 1.387 . S
C744 H748 0.950 . S
C744 C753 1.390 . S
C745 C744 1.387 . S
C745 C747 1.387 . S
H746 C753 0.950 . S
C747 C745 1.387 . S
C747 C749 1.390 . S
C747 H751 0.950 . S
H748 C744 0.950 . S
C749 C747 1.390 . S
C749 C750 1.387 . S
C749 H752 0.950 . S
C750 C749 1.387 . S
C750 C753 1.387 . S
H751 C747 0.950 . S
H752 C749 0.950 . S
C753 C744 1.390 . S
C753 H746 0.950 . S
C753 C750 1.387 . S
C754 C755 1.387 . S
C754 H758 0.950 . S
C754 C763 1.390 . S
C755 C754 1.387 . S
C755 C757 1.387 . S
H756 C763 0.950 . S
C757 C755 1.387 . S
C757 C759 1.390 . S
C757 H761 0.950 . S
H758 C754 0.950 . S
C759 C757 1.390 . S
C759 C760 1.387 . S
C759 H762 0.950 . S
C760 C759 1.387 . S
C760 C763 1.387 . S
H761 C757 0.950 . S
H762 C759 0.950 . S
C763 C754 1.390 . S
C763 H756 0.950 . S
C763 C760 1.387 . S
C764 C765 1.387 . S
C764 H768 0.950 . S
C764 C773 1.390 . S
C765 C764 1.387 . S
C765 C767 1.387 . S
H766 C773 0.950 . S
C767 C765 1.387 . S
C767 C769 1.390 . S
C767 H771 0.950 . S
H768 C764 0.950 . S
C769 C767 1.390 . S
C769 C770 1.387 . S
C769 H772 0.950 . S
C770 C769 1.387 . S
C770 C773 1.387 . S
H771 C767 0.950 . S
H772 C769 0.950 . S
C773 C764 1.390 . S
C773 H766 0.950 . S
C773 C770 1.387 . S
C774 C775 1.387 . S
C774 H778 0.950 . S
C774 C783 1.390 . S
C775 C774 1.387 . S
C775 C777 1.387 . S
H776 C783 0.950 . S
C777 C775 1.387 . S
C777 C779 1.390 . S
C777 H781 0.950 . S
H778 C774 0.950 . S
C779 C777 1.390 . S
C779 C780 1.387 . S
C779 H782 0.950 . S
C780 C779 1.387 . S
C780 C783 1.387 . S
H781 C777 0.950 . S
H782 C779 0.950 . S
C783 C774 1.390 . S
C783 H776 0.950 . S
C783 C780 1.387 . S
C784 C785 1.387 1_554 S
C784 H788 0.950 . S
C784 C793 1.390 . S
C785 C784 1.387 1_556 S
C785 C787 1.387 . S
H786 C793 0.950 . S
C787 C785 1.387 . S
C787 C789 1.390 . S
C787 H791 0.950 . S
H788 C784 0.950 . S
C789 C787 1.390 . S
C789 C790 1.387 . S
C789 H792 0.950 . S
C790 C789 1.387 . S
C790 C793 1.387 1_556 S
H791 C787 0.950 . S
H792 C789 0.950 . S
C793 C784 1.390 . S
C793 H786 0.950 . S
C793 C790 1.387 1_554 S
C794 C795 1.387 . S
C794 H798 0.950 . S
C794 C803 1.390 . S
C795 C794 1.387 . S
C795 C797 1.387 . S
H796 C803 0.950 . S
C797 C795 1.387 . S
C797 C799 1.390 . S
C797 H801 0.950 . S
H798 C794 0.950 . S
C799 C797 1.390 . S
C799 C800 1.387 . S
C799 H802 0.950 . S
C800 C799 1.387 . S
C800 C803 1.387 . S
H801 C797 0.950 . S
H802 C799 0.950 . S
C803 C794 1.390 . S
C803 H796 0.950 . S
C803 C800 1.387 . S
C804 C805 1.369 1_556 S
C804 H808 0.962 . S
C804 C813 1.396 . S
C805 C804 1.369 1_554 S
C805 C807 1.387 . S
H806 C813 0.950 . S
C807 C805 1.387 . S
C807 C809 1.390 . S
C807 H811 0.950 . S
H808 C804 0.962 . S
C809 C807 1.390 . S
C809 C810 1.387 . S
C809 H812 0.950 . S
C810 C809 1.387 . S
C810 C813 1.387 1_554 S
H811 C807 0.950 . S
H812 C809 0.950 . S
C813 C804 1.396 . S
C813 H806 0.950 . S
C813 C810 1.387 1_556 S
C814 C815 1.387 . S
C814 H818 0.950 . S
C814 C823 1.390 . S
C815 C814 1.387 . S
C815 C817 1.387 . S
H816 C823 0.950 . S
C817 C815 1.387 . S
C817 C819 1.390 . S
C817 H821 0.950 1_554 S
H818 C814 0.950 . S
C819 C817 1.390 . S
C819 C820 1.387 . S
C819 H822 0.950 1_554 S
C820 C819 1.387 . S
C820 C823 1.387 . S
H821 C817 0.950 1_556 S
H822 C819 0.950 1_556 S
C823 C814 1.390 . S
C823 H816 0.950 . S
C823 C820 1.387 . S
C350 C187 1.519 . S
C345 C60 1.567 . S
C360 C195 1.148 . S
C355 C76 1.387 . S
C365 C81 1.624 . S
C370 C215 1.606 . S
C380 C229 1.539 . S
C375 C48 1.578 1_545 S
C390 C244 1.524 . S
C385 C115 1.520 . S
C400 C258 1.612 . S
C395 C136 1.613 . S
C405 C131 1.448 . S
C410 C272 1.445 . S
C420 C278 1.484 . S
C415 C104 1.515 . S
C425 C126 1.539 . S
C430 C292 1.513 . S
C440 C313 1.455 . S
C435 C103 1.468 . S
C445 C120 1.413 . S
C450 C293 1.201 . S
C460 C314 1.463 . S
C455 C142 1.469 . S
C465 C82 1.505 . S
C470 C321 1.232 . S
C475 C54 1.715 . S
C480 C327 1.694 . S
C485 C65 1.429 . S
C490 C320 1.386 . S
C495 C71 1.305 . S
C500 C328 1.312 . S
C505 C37 1.573 . S
C510 C222 1.537 . S
C515 C158 1.839 . S
C520 C223 1.645 . S
C530 C180 1.390 . S
C525 C169 1.448 1_565 S
C540 C201 1.328 . S
C535 C98 1.319 . S
C545 C49 1.667 . S
C550 C236 1.650 . S
C560 C286 1.479 . S
C555 C125 1.475 . S
C570 C237 1.202 . S
C565 C109 1.386 . S
C580 C265 1.434 . S
C575 C137 1.750 . S
C590 C271 1.520 . S
C585 C159 1.567 . S
C595 C175 1.387 . S
C600 C279 1.148 . S
C605 C92 1.624 . S
C610 C243 1.606 . S
C620 C257 1.538 . S
C615 C147 1.578 . S
C625 C38 1.519 . S
C630 C216 1.524 . S
C640 C230 1.613 . S
C635 C4 1.613 . S
C650 C188 1.444 . S
C645 C21 1.447 . S
C660 C194 1.482 . S
C655 C27 1.516 . S
C665 C16 1.539 . S
C670 C306 1.514 . S
C675 C26 1.468 1_556 S
C680 C299 1.456 . S
C685 C43 1.413 . S
C690 C307 1.202 . S
C695 C10 1.469 . S
C700 C300 1.463 . S
C710 C335 1.232 . S
C705 C93 1.505 . S
C720 C341 1.694 . S
C715 C153 1.715 . S
C730 C334 1.385 . S
C725 C164 1.429 . S
C735 C170 1.305 . S
C740 C342 1.312 . S
C745 C114 1.573 . S
C750 C250 1.539 . S
C760 C251 1.641 . S
C755 C59 1.840 . S
C770 C264 1.392 . S
C765 C70 1.439 . S
C780 C285 1.329 . S
C775 C87 1.319 . S
C785 C148 1.667 . S
C790 C208 1.650 . S
C800 C202 1.479 . S
C795 C15 1.477 . S
C805 C32 1.386 . S
C810 C209 1.208 . S
C820 C181 1.434 . S
C815 C5 1.750 1_565 S
