# Generated by pormake.
# Topology anh, (6,3)-cn, num edge types: 1
# Building blocks:
#     Node 0, Type 0, BuildingBlock: BETFEN_clean_sbu_0, # of connection points: 6
#     Node 1, Type 0, BuildingBlock: BETFEN_clean_sbu_0, # of connection points: 6
#     Node 2, Type 0, BuildingBlock: BETFEN_clean_sbu_0, # of connection points: 6
#     Node 3, Type 1, BuildingBlock: KAKCAD_clean_linker_0, # of connection points: 3
#     Node 4, Type 1, BuildingBlock: KAKCAD_clean_linker_0, # of connection points: 3
#     Node 5, Type 1, BuildingBlock: KAKCAD_clean_linker_0, # of connection points: 3
#     Node 6, Type 1, BuildingBlock: KAKCAD_clean_linker_0, # of connection points: 3
#     Node 7, Type 1, BuildingBlock: KAKCAD_clean_linker_0, # of connection points: 3
#     Node 8, Type 1, BuildingBlock: KAKCAD_clean_linker_0, # of connection points: 3
#     Edge 9, Type (0, 1), BuildingBlock: KIFKEQ_clean_linker_1, # of connection points: 2
#     Edge 10, Type (0, 1), BuildingBlock: KIFKEQ_clean_linker_1, # of connection points: 2
#     Edge 11, Type (0, 1), BuildingBlock: KIFKEQ_clean_linker_1, # of connection points: 2
#     Edge 12, Type (0, 1), BuildingBlock: KIFKEQ_clean_linker_1, # of connection points: 2
#     Edge 13, Type (0, 1), BuildingBlock: KIFKEQ_clean_linker_1, # of connection points: 2
#     Edge 14, Type (0, 1), BuildingBlock: KIFKEQ_clean_linker_1, # of connection points: 2
#     Edge 15, Type (0, 1), BuildingBlock: KIFKEQ_clean_linker_1, # of connection points: 2
#     Edge 16, Type (0, 1), BuildingBlock: KIFKEQ_clean_linker_1, # of connection points: 2
#     Edge 17, Type (0, 1), BuildingBlock: KIFKEQ_clean_linker_1, # of connection points: 2
#     Edge 18, Type (0, 1), BuildingBlock: KIFKEQ_clean_linker_1, # of connection points: 2
#     Edge 19, Type (0, 1), BuildingBlock: KIFKEQ_clean_linker_1, # of connection points: 2
#     Edge 20, Type (0, 1), BuildingBlock: KIFKEQ_clean_linker_1, # of connection points: 2
#     Edge 21, Type (0, 1), BuildingBlock: KIFKEQ_clean_linker_1, # of connection points: 2
#     Edge 22, Type (0, 1), BuildingBlock: KIFKEQ_clean_linker_1, # of connection points: 2
#     Edge 23, Type (0, 1), BuildingBlock: KIFKEQ_clean_linker_1, # of connection points: 2
#     Edge 24, Type (0, 1), BuildingBlock: KIFKEQ_clean_linker_1, # of connection points: 2
#     Edge 25, Type (0, 1), BuildingBlock: KIFKEQ_clean_linker_1, # of connection points: 2
#     Edge 26, Type (0, 1), BuildingBlock: KIFKEQ_clean_linker_1, # of connection points: 2
# Relax obj value: 0.181
# Max RMSD: 0.207
# Mean RMSD: 0.155
data_MOF--net-anh--node1-BETFEN_clean_sbu_0--node2-KAKCAD_clean_linker_0--edge1-KIFKEQ_clean_linker_1
_symmetry_space_group_name_H-M    P1
_symmetry_Int_Tables_number       1
_symmetry_cell_setting            triclinic
loop_
_symmetry_equiv_pos_as_xyz
'x, y, z'
_cell_length_a     36.227817
_cell_length_b     37.353519
_cell_length_c     67.688331
_cell_angle_alpha  90.203619
_cell_angle_beta   92.630267
_cell_angle_gamma 105.92683
loop_
_atom_site_label
_atom_site_type_symbol
_atom_site_fract_x
_atom_site_fract_y
_atom_site_fract_z
_atom_type_partial_charge
Pr0 Pr 0.04329 0.53077 0.15497 0.0
Pr1 Pr 0.0704 0.61947 0.1473 0.0
C2 C 1.01012 0.46086 0.16655 0.0
C3 C 0.97192 0.43636 0.1711 0.0
C4 C 0.94534 0.41887 0.15585 0.0
C5 C 0.91027 0.39409 0.16024 0.0
C6 C 0.90096 0.38616 0.17996 0.0
C7 C 0.92726 0.40404 0.19523 0.0
C8 C 0.96245 0.42875 0.19084 0.0
C9 C 0.05949 0.55239 0.11636 0.0
C10 C 0.97708 0.57891 0.14854 0.0
C11 C 0.10041 0.68596 0.13121 0.0
C12 C 0.13598 0.7158 0.13587 0.0
C13 C 0.13524 0.75313 0.13626 0.0
C14 C 0.16815 0.78124 0.14242 0.0
C15 C 0.20237 0.77244 0.1483 0.0
C16 C 0.20317 0.73503 0.14736 0.0
C17 C 0.17031 0.70703 0.14133 0.0
C18 C 0.07121 0.60598 0.18812 0.0
C19 C 0.13598 0.57144 0.15531 0.0
O20 O 1.02633 0.48812 0.17904 0.0
O21 O 1.0158 0.46995 0.14805 0.0
O22 O 0.04183 0.56773 0.12795 0.0
O23 O 0.06811 0.52398 0.12441 0.0
O24 O 1.00392 0.60879 0.14336 0.0
O25 O 0.98515 0.54799 0.15452 0.0
O26 O 0.10478 0.65482 0.12395 0.0
O27 O 0.07423 0.68077 0.14448 0.0
O28 O 0.06232 0.58251 0.17418 0.0
O29 O 0.08019 0.63927 0.18095 0.0
O30 O 0.10953 0.54207 0.16138 0.0
O31 O 0.12751 0.60111 0.14784 0.0
H32 H 0.95172 0.42393 0.14046 0.0
H33 H 0.89043 0.38105 0.14816 0.0
H34 H 0.92112 0.39815 0.21057 0.0
H35 H 0.9825 0.44146 0.20291 0.0
H36 H 0.10895 0.76044 0.13228 0.0
H37 H 0.16639 0.80969 0.14316 0.0
H38 H 0.22915 0.72728 0.15146 0.0
H39 H 0.17165 0.67842 0.14128 0.0
Pr40 Pr 0.57959 0.07643 0.51985 0.0
Pr41 Pr 0.49395 0.05471 0.52447 0.0
C42 C 0.65207 0.10731 0.50897 0.0
C43 C 0.6784 0.14409 0.50446 0.0
C44 C 0.69523 0.17033 0.51952 0.0
C45 C 0.72126 0.20425 0.51502 0.0
C46 C 0.73099 0.21275 0.49537 0.0
C47 C 0.71393 0.18659 0.48033 0.0
C48 C 0.68808 0.15263 0.48483 0.0
C49 C 0.55751 0.06173 0.55849 0.0
C50 C 0.53502 0.14428 0.52559 0.0
C51 C 0.42088 1.02136 0.53337 0.0
C52 C 0.39351 0.98556 0.52737 0.0
C53 C 0.39908 0.96676 0.51026 0.0
C54 C 0.37328 0.93273 0.50451 0.0
C55 C 0.34152 0.91649 0.51586 0.0
C56 C 0.33631 0.93535 0.53313 0.0
C57 C 0.36209 0.9696 0.53881 0.0
C58 C 0.51511 0.06717 0.48558 0.0
C59 C 0.53959 0.98637 0.5207 0.0
O60 O 0.6232 0.09357 0.49629 0.0
O61 O 0.64314 0.1006 0.52736 0.0
O62 O 0.54353 0.08073 0.54644 0.0
O63 O 0.58487 0.05049 0.55099 0.0
O64 O 0.50585 0.11851 0.53252 0.0
O65 O 0.56376 0.13442 0.51772 0.0
O66 O 0.45055 1.0193 0.54461 0.0
O67 O 0.42995 1.04594 0.51943 0.0
O68 O 0.52974 0.04905 0.49786 0.0
O69 O 0.48794 0.0786 0.49304 0.0
O70 O 0.57073 1.012 0.51566 0.0
O71 O 0.50863 0.99607 0.52572 0.0
H72 H 0.68855 0.16464 0.53482 0.0
H73 H 0.73362 0.22393 0.52694 0.0
H74 H 0.72121 0.19199 0.46508 0.0
H75 H 0.67596 0.13281 0.47294 0.0
H76 H 0.42335 0.97853 0.50128 0.0
H77 H 0.378 0.91946 0.49097 0.0
H78 H 0.31257 0.92349 0.5424 0.0
H79 H 0.35755 0.98356 0.55217 0.0
Pr80 Pr 0.5558 0.55698 0.81996 0.0
Pr81 Pr 0.57789 0.63535 0.83594 0.0
C82 C 0.55283 0.49385 0.80022 0.0
C83 C 0.57237 0.46512 0.80442 0.0
C84 C 0.59498 0.4673 0.82203 0.0
C85 C 0.60849 0.43721 0.82787 0.0
C86 C 0.5998 0.40473 0.81606 0.0
C87 C 0.57948 0.4038 0.79774 0.0
C88 C 0.56568 0.4338 0.792 0.0
C89 C 0.55682 0.56074 0.86104 0.0
C90 C 0.64963 0.60232 0.83009 0.0
C91 C 0.57415 0.69633 0.85562 0.0
C92 C 0.53949 0.70922 0.85719 0.0
C93 C 0.51255 0.70362 0.8411 0.0
C94 C 0.47735 0.71121 0.84297 0.0
C95 C 0.46796 0.72425 0.86105 0.0
C96 C 0.49495 0.72981 0.87721 0.0
C97 C 0.53042 0.72221 0.8753 0.0
C98 C 0.57501 0.62937 0.79468 0.0
C99 C 0.48511 0.58997 0.82794 0.0
O100 O 0.57486 0.52624 0.79525 0.0
O101 O 0.52774 0.49628 0.81309 0.0
O102 O 0.58181 0.58114 0.85052 0.0
O103 O 0.5316 0.53578 0.85049 0.0
O104 O 0.63931 0.6285 0.83965 0.0
O105 O 0.62397 0.57501 0.82039 0.0
O106 O 0.5726 0.66497 0.86447 0.0
O107 O 0.58803 0.69784 0.83802 0.0
O108 O 0.55046 0.61045 0.80583 0.0
O109 O 0.60199 0.6538 0.80467 0.0
O110 O 0.49532 0.56767 0.81547 0.0
O111 O 0.51128 0.61363 0.83924 0.0
H112 H 0.60046 0.49152 0.83174 0.0
H113 H 0.62411 0.43861 0.84201 0.0
H114 H 0.57188 0.37889 0.78849 0.0
H115 H 0.54824 0.43179 0.77839 0.0
H116 H 0.51837 0.69269 0.82708 0.0
H117 H 0.45773 0.70735 0.83009 0.0
H118 H 0.48853 0.73972 0.89135 0.0
H119 H 0.55043 0.72578 0.88802 0.0
C120 C 0.5415 0.10599 0.32764 0.0
C121 C 0.54291 0.07385 0.33799 0.0
C122 C 0.54305 0.10671 0.30706 0.0
C123 C 0.54528 0.07507 0.29646 0.0
C124 C 0.54657 1.04285 0.30679 0.0
C125 C 0.54581 1.04238 0.32743 0.0
C126 C 0.54607 0.07577 0.27463 0.0
C127 C 0.57292 0.10424 0.26538 0.0
C128 C 0.57362 0.10572 0.24465 0.0
C129 C 0.54661 0.07833 0.2332 0.0
C130 C 0.51932 0.04966 0.24228 0.0
C131 C 0.51954 0.04849 0.26305 0.0
C132 C 0.48992 1.02142 0.23021 0.0
C133 C 0.47093 1.03198 0.21358 0.0
C134 C 0.47963 0.98383 0.23567 0.0
C135 C 0.45054 0.95757 0.22501 0.0
C136 C 0.43102 0.96821 0.2086 0.0
C137 C 0.60311 0.13556 0.23516 0.0
C138 C 0.61323 0.17221 0.2428 0.0
C139 C 0.62259 0.12738 0.21899 0.0
C140 C 0.65226 0.15495 0.21104 0.0
C141 C 0.66316 0.19134 0.21908 0.0
C142 C 0.64292 0.19972 0.23489 0.0
C143 C 0.4418 1.00568 0.2029 0.0
H144 H 0.5394 0.13063 0.33549 0.0
H145 H 0.54186 0.13181 0.29939 0.0
H146 H 0.54847 1.01819 0.2989 0.0
H147 H 0.54673 1.01723 0.33512 0.0
H148 H 0.59392 0.12477 0.27442 0.0
H149 H 0.49821 1.02707 0.27028 0.0
H150 H 0.54678 0.07937 0.21721 0.0
H151 H 0.47792 0.06076 0.20907 0.0
H152 H 0.49398 0.97468 0.24827 0.0
H153 H 0.44273 0.92905 0.22996 0.0
H154 H 0.59843 0.17958 0.25507 0.0
H155 H 0.61569 0.09939 0.21284 0.0
H156 H 0.42765 1.01475 0.1902 0.0
H157 H 0.65072 0.22732 0.24158 0.0
H158 H 0.66688 0.14766 0.19868 0.0
C159 C 0.52949 0.60241 0.63459 0.0
C160 C 0.5559 0.58905 0.6462 0.0
C161 C 0.52648 0.59731 0.61406 0.0
C162 C 0.54987 0.57881 0.60456 0.0
C163 C 0.57611 0.56519 0.61615 0.0
C164 C 0.5791 0.57027 0.63673 0.0
C165 C 0.54739 0.57451 0.5826 0.0
C166 C 0.54389 0.60414 0.57072 0.0
C167 C 0.54146 0.60115 0.55001 0.0
C168 C 0.54263 0.56694 0.54094 0.0
C169 C 0.54649 0.53648 0.55281 0.0
C170 C 0.54867 0.54106 0.57355 0.0
C171 C 0.54856 0.49933 0.54469 0.0
C172 C 0.51917 0.47676 0.53215 0.0
C173 C 0.5774 0.48358 0.55224 0.0
C174 C 0.57619 0.44633 0.54817 0.0
C175 C 0.54604 0.42298 0.5363 0.0
C176 C 0.53808 0.6352 0.53908 0.0
C177 C 0.50485 0.6474 0.5408 0.0
C178 C 0.57082 0.6606 0.53191 0.0
C179 C 0.57073 0.69748 0.52734 0.0
C180 C 0.53792 0.7103 0.5299 0.0
C181 C 0.50466 0.68411 0.5362 0.0
C182 C 0.51786 0.43917 0.52806 0.0
H183 H 0.51144 0.61735 0.64133 0.0
H184 H 0.50565 0.60779 0.60561 0.0
H185 H 0.5948 0.5511 0.60931 0.0
H186 H 0.59944 0.55923 0.64522 0.0
H187 H 0.54374 0.63032 0.57766 0.0
H188 H 0.55061 0.51794 0.58279 0.0
H189 H 0.54092 0.56419 0.52497 0.0
H190 H 0.49618 0.48759 0.52624 0.0
H191 H 0.60042 0.49986 0.56205 0.0
H192 H 0.5983 0.43549 0.55511 0.0
H193 H 0.47952 0.62907 0.54691 0.0
H194 H 0.59727 0.65262 0.53096 0.0
H195 H 0.49438 0.42268 0.51862 0.0
H196 H 0.47889 0.69244 0.53871 0.0
H197 H 0.59685 0.71625 0.52228 0.0
C198 C 0.09492 0.6099 0.95967 0.0
C199 C 0.06401 0.58516 0.96864 0.0
C200 C 0.09598 0.61164 0.93906 0.0
C201 C 0.06603 0.58884 0.92699 0.0
C202 C 0.03485 0.5645 0.93596 0.0
C203 C 0.0339 0.56261 0.95655 0.0
C204 C 0.06743 0.59029 0.9051 0.0
C205 C 0.1016 0.59141 0.89587 0.0
C206 C 0.10347 0.59314 0.87515 0.0
C207 C 0.07019 0.5933 0.86355 0.0
C208 C 0.03589 0.59243 0.87271 0.0
C209 C 0.0347 0.5908 0.89337 0.0
C210 C 1.00116 0.59518 0.86127 0.0
C211 C 0.99299 0.62969 0.86005 0.0
C212 C 0.97309 0.56287 0.85475 0.0
C213 C 0.93663 0.56488 0.84791 0.0
C214 C 0.92763 0.59923 0.84772 0.0
C215 C 0.14064 0.5951 0.86613 0.0
C216 C 0.17485 0.61859 0.87469 0.0
C217 C 0.14284 0.57174 0.85013 0.0
C218 C 0.17872 0.57037 0.84365 0.0
C219 C 0.2129 0.59232 0.85309 0.0
C220 C 0.21046 0.61721 0.86827 0.0
C221 C 0.95661 0.63173 0.85329 0.0
H222 H 0.11869 0.62741 0.96857 0.0
H223 H 0.12018 0.63097 0.93258 0.0
H224 H 1.01147 0.54643 0.92705 0.0
H225 H 1.00952 0.54351 0.96303 0.0
H226 H 0.12677 0.59025 0.90487 0.0
H227 H 1.00829 0.59073 0.90032 0.0
H228 H 0.0712 0.59509 0.8476 0.0
H229 H 1.01418 0.65485 0.86527 0.0
H230 H 0.9787 0.5359 0.85595 0.0
H231 H 0.91484 0.53933 0.84388 0.0
H232 H 0.1741 0.63751 0.88674 0.0
H233 H 0.11695 0.55329 0.84328 0.0
H234 H 0.95072 0.65864 0.85308 0.0
H235 H 0.23624 0.63516 0.87551 0.0
H236 H 0.17971 0.55096 0.8319 0.0
C237 C 1.02222 0.55361 0.34354 0.0
C238 C 0.05826 0.56106 0.33509 0.0
C239 C 1.01941 0.55185 0.36407 0.0
C240 C 0.05256 0.55759 0.37665 0.0
C241 C 0.08849 0.56415 0.36819 0.0
C242 C 0.0913 0.56581 0.34767 0.0
C243 C 0.04982 0.55806 0.3985 0.0
C244 C 1.02077 0.53154 0.40773 0.0
C245 C 1.01738 0.53245 0.42835 0.0
C246 C 0.04362 0.56064 0.43977 0.0
C247 C 0.07311 0.58719 0.43076 0.0
C248 C 0.07596 0.5856 0.41017 0.0
C249 C 0.10083 0.61723 0.44254 0.0
C250 C 0.08798 0.63983 0.45571 0.0
C251 C 0.14037 0.62495 0.43969 0.0
C252 C 0.16645 0.65528 0.44932 0.0
C253 C 0.15362 0.67903 0.46187 0.0
C254 C 0.98682 0.50343 0.4378 0.0
C255 C 0.94971 0.4911 0.42873 0.0
C256 C 0.99484 0.48667 0.45546 0.0
C257 C 0.96675 0.4576 0.46353 0.0
C258 C 0.92993 0.44464 0.45416 0.0
C259 C 0.92168 0.46208 0.43678 0.0
C260 C 0.11406 0.67053 0.4652 0.0
H261 H 0.99623 0.5503 0.33432 0.0
H262 H 0.99134 0.54716 0.37013 0.0
H263 H 0.11451 0.56805 0.37746 0.0
H264 H 0.11944 0.57091 0.34166 0.0
H265 H 1.00128 0.50955 0.39883 0.0
H266 H 0.09798 0.60668 0.40314 0.0
H267 H 0.04121 0.56193 0.45564 0.0
H268 H 0.0576 0.63466 0.45806 0.0
H269 H 0.15112 0.60766 0.42981 0.0
H270 H 0.19671 0.66023 0.44677 0.0
H271 H 0.94237 0.5037 0.41526 0.0
H272 H 1.02317 0.49529 0.46277 0.0
H273 H 0.10298 0.6883 0.47458 0.0
H274 H 0.89382 0.45266 0.42904 0.0
H275 H 0.97398 0.44515 0.47707 0.0
C276 C 0.42341 0.98886 0.70062 0.0
C277 C 0.46165 1.00432 0.69538 0.0
C278 C 0.41337 0.98987 0.72033 0.0
C279 C 0.44135 1.00642 0.73515 0.0
C280 C 0.47971 1.02057 0.72998 0.0
C281 C 0.48966 1.01979 0.71039 0.0
C282 C 0.43106 1.01046 0.75589 0.0
C283 C 0.4064 0.98084 0.76567 0.0
C284 C 0.39983 0.98418 0.78588 0.0
C285 C 0.41808 1.01773 0.79607 0.0
C286 C 0.44353 1.0471 0.78667 0.0
C287 C 0.44854 1.04368 0.76641 0.0
C288 C 0.46726 0.08005 0.79822 0.0
C289 C 0.4526 0.09471 0.81431 0.0
C290 C 0.50547 0.09663 0.7934 0.0
C291 C 0.52771 0.12815 0.80365 0.0
C292 C 0.51279 0.14355 0.81939 0.0
C293 C 0.37781 0.95152 0.79702 0.0
C294 C 0.34591 0.92482 0.78823 0.0
C295 C 0.39034 0.94572 0.81642 0.0
C296 C 0.37245 0.91381 0.82651 0.0
C297 C 0.342 0.88621 0.81741 0.0
C298 C 0.32836 0.89227 0.79828 0.0
C299 C 0.47525 0.12579 0.82491 0.0
H300 H 0.40118 0.97629 0.68947 0.0
H301 H 0.38359 0.97867 0.72388 0.0
H302 H 0.50216 1.03281 0.74109 0.0
H303 H 0.51927 1.03244 0.70699 0.0
H304 H 0.3942 0.95462 0.75783 0.0
H305 H 0.4668 0.06687 0.75879 0.0
H306 H 0.41375 1.02041 0.81166 0.0
H307 H 0.42335 0.08278 0.8185 0.0
H308 H 0.51832 0.08549 0.78154 0.0
H309 H 0.55615 0.14111 0.79863 0.0
H310 H 0.33516 0.92856 0.77341 0.0
H311 H 0.41545 0.96476 0.82359 0.0
H312 H 0.46291 0.1363 0.83718 0.0
H313 H 0.30509 0.87128 0.79086 0.0
H314 H 0.38454 0.90957 0.84097 0.0
C315 C 0.57344 0.55165 0.02141 0.0
C316 C 0.55342 0.57225 0.00998 0.0
C317 C 0.57246 0.55181 0.04203 0.0
C318 C 0.55152 0.57266 0.05171 0.0
C319 C 0.53139 0.59316 0.04026 0.0
C320 C 0.53229 0.59291 0.01964 0.0
C321 C 0.55135 0.5737 0.07369 0.0
C322 C 0.58526 0.57654 0.08515 0.0
C323 C 0.58574 0.57829 0.10585 0.0
C324 C 0.55176 0.57765 0.11534 0.0
C325 C 0.51742 0.57564 0.10404 0.0
C326 C 0.51759 0.57286 0.08327 0.0
C327 C 0.4814 0.5776 0.11341 0.0
C328 C 0.46955 0.55907 0.13106 0.0
C329 C 0.45762 0.59726 0.10409 0.0
C330 C 0.42245 0.59726 0.11167 0.0
C331 C 0.41004 0.57824 0.1291 0.0
C332 C 0.62284 0.58211 0.11693 0.0
C333 C 0.63058 0.55134 0.12632 0.0
C334 C 0.65294 0.61458 0.11493 0.0
C335 C 0.69049 0.61574 0.1213 0.0
C336 C 0.69898 0.5842 0.12957 0.0
C337 C 0.66833 0.55236 0.13261 0.0
C338 C 0.4343 0.5594 0.13882 0.0
H339 H 0.58947 0.53496 0.0144 0.0
H340 H 0.58782 0.53527 0.05038 0.0
H341 H 0.51551 0.61002 0.04725 0.0
H342 H 0.51696 0.60946 0.01127 0.0
H343 H 0.61174 0.57793 0.07795 0.0
H344 H 0.49115 0.56971 0.07444 0.0
H345 H 0.55249 0.58004 0.13132 0.0
H346 H 0.48704 0.54358 0.13863 0.0
H347 H 0.46599 0.61257 0.09071 0.0
H348 H 0.40462 0.61161 0.10347 0.0
H349 H 0.60786 0.52579 0.12769 0.0
H350 H 0.64763 0.63854 0.10758 0.0
H351 H 0.42609 0.54482 0.15242 0.0
H352 H 0.67373 0.52749 0.13879 0.0
H353 H 0.71313 0.64101 0.11913 0.0
H354 H 0.16496 0.51206 0.14942 0.0
H355 H 0.19906 0.63017 0.16192 0.0
H356 H 0.23198 0.51356 0.14544 0.0
H357 H 0.26613 0.63161 0.15934 0.0
H358 H 0.37385 0.63395 0.12768 0.0
H359 H 0.30895 0.63092 0.13586 0.0
H360 H 0.29423 0.51936 0.15757 0.0
H361 H 0.35845 0.52124 0.14759 0.0
C362 C 0.18697 0.53817 0.15182 0.0
C363 C 0.17678 0.57104 0.15578 0.0
C364 C 0.22555 0.5391 0.14963 0.0
C365 C 0.25495 0.57285 0.15175 0.0
C366 C 0.24457 0.60527 0.1569 0.0
C367 C 0.20602 0.60445 0.15859 0.0
C368 C 0.35677 0.6085 0.13397 0.0
C369 C 0.37156 0.57762 0.13659 0.0
C370 C 0.31944 0.60699 0.13908 0.0
C371 C 0.29575 0.57484 0.14745 0.0
C372 C 0.31108 0.54442 0.15085 0.0
C373 C 0.34835 0.54572 0.1454 0.0
H374 H 0.79925 0.24701 0.51526 0.0
H375 H 0.72712 0.25904 0.46454 0.0
H376 H 0.84671 0.30443 0.50676 0.0
H377 H 0.775 0.31585 0.45574 0.0
H378 H 0.85226 0.43498 0.45606 0.0
H379 H 0.80391 0.38033 0.46698 0.0
H380 H 0.89274 0.32619 0.48097 0.0
H381 H 0.94106 0.38063 0.46991 0.0
C382 C 0.79339 0.26204 0.50238 0.0
C383 C 0.75939 0.24838 0.49056 0.0
C384 C 0.82078 0.29475 0.49739 0.0
C385 C 0.81472 0.31472 0.48054 0.0
C386 C 0.78043 0.30137 0.46892 0.0
C387 C 0.75316 0.26858 0.47384 0.0
C388 C 0.8615 0.41138 0.46139 0.0
C389 C 0.90062 0.41224 0.46201 0.0
C390 C 0.83376 0.38005 0.46766 0.0
C391 C 0.84441 0.3488 0.47478 0.0
C392 C 0.88357 0.34995 0.47582 0.0
C393 C 0.91132 0.38124 0.46949 0.0
H394 H 0.45697 0.78527 0.87953 0.0
H395 H 0.39658 0.6879 0.84474 0.0
H396 H 0.40367 0.81171 0.8736 0.0
H397 H 0.34279 0.71449 0.83877 0.0
H398 H 0.32546 0.86953 0.85599 0.0
H399 H 0.33758 0.81599 0.8729 0.0
H400 H 0.34724 0.76617 0.81635 0.0
H401 H 0.33511 0.81921 0.79965 0.0
C402 C 0.43163 0.76873 0.87132 0.0
C403 C 0.43152 0.73494 0.86217 0.0
C404 C 0.40076 0.78385 0.86797 0.0
C405 C 0.36918 0.76551 0.85535 0.0
C406 C 0.36701 0.72958 0.84825 0.0
C407 C 0.39793 0.71445 0.85161 0.0
C408 C 0.32833 0.84623 0.8472 0.0
C409 C 0.33077 0.84906 0.82656 0.0
C410 C 0.33536 0.81562 0.85688 0.0
C411 C 0.34488 0.78757 0.84601 0.0
C412 C 0.34036 0.78741 0.82524 0.0
C413 C 0.33334 0.81798 0.81558 0.0
H414 H 0.94894 0.63717 0.13742 0.0
H415 H 0.91235 0.523 0.15638 0.0
H416 H 0.88228 0.63866 0.13413 0.0
H417 H 0.84538 0.52438 0.15271 0.0
H418 H 0.7303 0.55276 0.16066 0.0
H419 H 0.79715 0.55144 0.16619 0.0
H420 H 0.82655 0.61262 0.11249 0.0
H421 H 0.76025 0.61382 0.10694 0.0
C422 C 0.92673 0.61231 0.14088 0.0
C423 C 0.93622 0.5799 0.14708 0.0
C424 C 0.88837 0.61313 0.13888 0.0
C425 C 0.85832 0.58157 0.14301 0.0
C426 C 0.86776 0.54932 0.14957 0.0
C427 C 0.90622 0.54848 0.15156 0.0
C428 C 0.75103 0.56583 0.15002 0.0
C429 C 0.7398 0.58377 0.13347 0.0
C430 C 0.78937 0.56504 0.15318 0.0
C431 C 0.8174 0.58216 0.13987 0.0
C432 C 0.80604 0.59986 0.1233 0.0
C433 C 0.76787 0.60062 0.12014 0.0
H434 H 0.26292 0.89481 0.51834 0.0
H435 H 0.35737 0.85579 0.49896 0.0
H436 H 0.21776 0.8366 0.50651 0.0
H437 H 0.31207 0.7982 0.48671 0.0
H438 H 0.21601 0.72546 0.44503 0.0
H439 H 0.26129 0.7811 0.45926 0.0
H440 H 0.19887 0.76726 0.51277 0.0
H441 H 0.15387 0.71066 0.49878 0.0
C442 C 0.27417 0.87375 0.51178 0.0
C443 C 0.3139 0.88027 0.5095 0.0
C444 C 0.24822 0.8404 0.50496 0.0
C445 C 0.26134 0.81294 0.49555 0.0
C446 C 0.30103 0.8191 0.4936 0.0
C447 C 0.32698 0.85222 0.50057 0.0
C448 C 0.21217 0.73373 0.45997 0.0
C449 C 0.18129 0.71318 0.47077 0.0
C450 C 0.23813 0.76579 0.4681 0.0
C451 C 0.23376 0.7785 0.48717 0.0
C452 C 0.20279 0.75831 0.49797 0.0
C453 C 0.17696 0.72592 0.48991 0.0
H454 H 0.58183 0.37604 0.8523 0.0
H455 H 0.62922 0.35416 0.79761 0.0
H456 H 0.57174 0.31109 0.86142 0.0
H457 H 0.61907 0.28915 0.80676 0.0
H458 H 0.5914 0.17172 0.82574 0.0
H459 H 0.62635 0.23702 0.83175 0.0
H460 H 0.51922 0.26309 0.84022 0.0
H461 H 0.48415 0.19921 0.83299 0.0
C462 C 0.59175 0.35778 0.84266 0.0
C463 C 0.60565 0.36984 0.82407 0.0
C464 C 0.58588 0.32062 0.84788 0.0
C465 C 0.59417 0.29516 0.83468 0.0
C466 C 0.61258 0.30829 0.81725 0.0
C467 C 0.61808 0.34537 0.81192 0.0
C468 C 0.57526 0.19128 0.82907 0.0
C469 C 0.53473 0.18016 0.82829 0.0
C470 C 0.59541 0.22852 0.83276 0.0
C471 C 0.57544 0.25496 0.83635 0.0
C472 C 0.5354 0.24315 0.83773 0.0
C473 C 0.51522 0.20626 0.83358 0.0
H474 H 0.48033 0.92515 0.5295 0.0
H475 H 0.5983 0.95493 0.51291 0.0
H476 H 0.4803 0.85992 0.53111 0.0
H477 H 0.59812 0.88954 0.51411 0.0
H478 H 0.59802 0.77373 0.53785 0.0
H479 H 0.59847 0.83886 0.53509 0.0
H480 H 0.48008 0.80528 0.51316 0.0
H481 H 0.47964 0.74014 0.51589 0.0
C482 C 0.5063 0.91789 0.52606 0.0
C483 C 0.53934 0.94584 0.52108 0.0
C484 C 0.50622 0.88012 0.52687 0.0
C485 C 0.53922 0.86872 0.52276 0.0
C486 C 0.57221 0.89675 0.51768 0.0
C487 C 0.57225 0.93453 0.51684 0.0
C488 C 0.57214 0.78 0.53214 0.0
C489 C 0.53878 0.75091 0.52714 0.0
C490 C 0.57238 0.81774 0.53057 0.0
C491 C 0.53926 0.82807 0.52395 0.0
C492 C 0.50606 0.79899 0.5187 0.0
C493 C 0.50583 0.76126 0.52026 0.0
H494 H 0.68022 0.54494 0.82167 0.0
H495 H 0.71194 0.66058 0.84016 0.0
H496 H 0.74747 0.54472 0.82486 0.0
H497 H 0.77922 0.66093 0.84255 0.0
H498 H 0.88787 0.63756 0.86849 0.0
H499 H 0.82148 0.63855 0.86311 0.0
H500 H 0.8096 0.56555 0.8121 0.0
H501 H 0.87622 0.56383 0.81794 0.0
C502 C 0.70163 0.57047 0.82615 0.0
C503 C 0.69069 0.60271 0.83081 0.0
C504 C 0.74029 0.57043 0.82788 0.0
C505 C 0.76899 0.60274 0.83411 0.0
C506 C 0.75797 0.63525 0.83817 0.0
C507 C 0.71934 0.63515 0.83669 0.0
C508 C 0.87127 0.6221 0.85596 0.0
C509 C 0.88744 0.60086 0.84355 0.0
C510 C 0.83309 0.62271 0.85283 0.0
C511 C 0.80999 0.60234 0.83707 0.0
C512 C 0.82627 0.58122 0.82454 0.0
C513 C 0.86451 0.58034 0.82781 0.0
H514 H 0.25137 0.76773 0.1795 0.0
H515 H 0.23094 0.84374 0.13503 0.0
H516 H 0.30743 0.81535 0.19255 0.0
H517 H 0.28706 0.8917 0.14833 0.0
H518 H 0.36227 0.97752 0.19433 0.0
H519 H 0.30798 0.93087 0.17861 0.0
H520 H 0.37231 0.84929 0.18317 0.0
H521 H 0.42672 0.89595 0.19873 0.0
C522 C 0.25909 0.79446 0.17233 0.0
C523 C 0.23672 0.80178 0.15612 0.0
C524 C 0.29125 0.82179 0.17985 0.0
C525 C 0.30183 0.85724 0.17141 0.0
C526 C 0.27944 0.86474 0.15526 0.0
C527 C 0.24726 0.83728 0.14767 0.0
C528 C 0.3651 0.94981 0.19168 0.0
C529 C 0.39881 0.94044 0.1979 0.0
C530 C 0.33394 0.92306 0.18269 0.0
C531 C 0.33575 0.88632 0.17977 0.0
C532 C 0.36977 0.87719 0.18554 0.0
C533 C 0.40094 0.90393 0.19447 0.0
H534 H 0.58787 0.20464 0.51057 0.0
H535 H 0.48423 0.17697 0.5429 0.0
H536 H 0.58954 0.27022 0.51195 0.0
H537 H 0.48644 0.24284 0.54488 0.0
H538 H 0.48153 0.36198 0.53235 0.0
H539 H 0.47829 0.29614 0.529 0.0
H540 H 0.60223 0.32407 0.53129 0.0
H541 H 0.60537 0.38972 0.53352 0.0
C542 C 0.56544 0.21245 0.51811 0.0
C543 C 0.53591 0.18497 0.52662 0.0
C544 C 0.56653 0.25047 0.51903 0.0
C545 C 0.53823 0.26273 0.52862 0.0
C546 C 0.50859 0.23509 0.53709 0.0
C547 C 0.50743 0.197 0.53608 0.0
C548 C 0.50818 0.3543 0.53181 0.0
C549 C 0.54374 0.38199 0.5333 0.0
C550 C 0.50634 0.3161 0.53018 0.0
C551 C 0.53997 0.3039 0.52995 0.0
C552 C 0.57546 0.33167 0.53116 0.0
C553 C 0.5773 0.36977 0.53274 0.0
H554 H 0.45667 0.62792 0.85495 0.0
H555 H 0.42075 0.54934 0.80608 0.0
H556 H 0.39056 0.62601 0.85978 0.0
H557 H 0.35346 0.54727 0.81113 0.0
H558 H 0.24167 0.58834 0.81637 0.0
H559 H 0.30669 0.58568 0.80912 0.0
H560 H 0.33444 0.5829 0.87175 0.0
H561 H 0.27033 0.58604 0.87887 0.0
C562 C 0.43465 0.6102 0.84514 0.0
C563 C 0.44417 0.58867 0.83012 0.0
C564 C 0.39653 0.60897 0.84802 0.0
C565 C 0.36657 0.58628 0.83595 0.0
C566 C 0.3759 0.56517 0.82063 0.0
C567 C 0.41439 0.56621 0.8178 0.0
C568 C 0.26169 0.58686 0.82852 0.0
C569 C 0.25114 0.58812 0.8482 0.0
C570 C 0.29885 0.58524 0.82438 0.0
C571 C 0.326 0.58468 0.83986 0.0
C572 C 0.31467 0.58431 0.85946 0.0
C573 C 0.27786 0.5861 0.86357 0.0
H574 H 0.85102 0.39095 0.20837 0.0
H575 H 0.8687 0.31843 0.16204 0.0
H576 H 0.7925 0.34401 0.21676 0.0
H577 H 0.80974 0.27196 0.17008 0.0
H578 H 0.73181 0.18218 0.20811 0.0
H579 H 0.7878 0.22965 0.19762 0.0
H580 H 0.72668 0.31322 0.20316 0.0
H581 H 0.67034 0.26563 0.21343 0.0
C582 C 0.84234 0.36504 0.19996 0.0
C583 C 0.86451 0.35837 0.18458 0.0
C584 C 0.80863 0.33832 0.20462 0.0
C585 C 0.79652 0.30427 0.19408 0.0
C586 C 0.8185 0.29778 0.17858 0.0
C587 C 0.85206 0.32456 0.17385 0.0
C588 C 0.73 0.21054 0.20676 0.0
C589 C 0.69652 0.22005 0.21163 0.0
C590 C 0.76216 0.23777 0.20079 0.0
C591 C 0.7617 0.2752 0.19961 0.0
C592 C 0.72809 0.28469 0.2042 0.0
C593 C 0.69584 0.25742 0.21009 0.0
H594 H 0.03657 0.60593 0.09552 0.0
H595 H 0.09123 0.51754 0.08936 0.0
H596 H 0.03842 0.61553 0.05974 0.0
H597 H 0.09342 0.52729 0.05382 0.0
H598 H 0.08252 0.64158 0.99648 0.0
H599 H 0.08359 0.63598 0.0325 0.0
H600 H 0.04511 0.51621 0.02606 0.0
H601 H 0.04492 0.52175 0.99021 0.0
C602 C 0.0493 0.58885 0.08654 0.0
C603 C 0.06343 0.56077 0.09515 0.0
C604 C 0.05048 0.59441 0.0661 0.0
C605 C 0.06566 0.57185 0.05395 0.0
C606 C 0.08088 0.54463 0.06274 0.0
C607 C 0.07983 0.5392 0.08311 0.0
C608 C 0.0745 0.61408 0.00279 0.0
C609 C 0.06368 0.58209 0.99051 0.0
C610 C 0.07479 0.6109 0.0234 0.0
C611 C 0.06463 0.57566 0.03211 0.0
C612 C 0.05358 0.54375 0.0198 0.0
C613 C 0.05305 0.54692 -0.00075 0.0
H614 H 0.49917 0.11649 0.45966 0.0
H615 H 0.54889 1.02409 0.46392 0.0
H616 H 0.50878 0.11969 0.42432 0.0
H617 H 0.55645 1.0255 0.42826 0.0
H618 H 0.59204 0.05547 0.36537 0.0
H619 H 0.5886 0.05589 0.40134 0.0
H620 H 0.48302 0.08869 0.39512 0.0
H621 H 0.48802 0.0902 0.35941 0.0
C622 C 0.51198 0.0967 0.45293 0.0
C623 C 0.52305 0.06991 0.46442 0.0
C624 C 0.5172 0.09826 0.43263 0.0
C625 C 0.53283 0.07246 0.42322 0.0
C626 C 0.5447 1.0461 0.43491 0.0
C627 C 0.54018 1.04509 0.45535 0.0
C628 C 0.56823 0.0628 0.37183 0.0
C629 C 0.54042 0.07302 0.35973 0.0
C630 C 0.56607 0.06288 0.39242 0.0
C631 C 0.53563 0.07253 0.4013 0.0
C632 C 0.50748 0.08209 0.38899 0.0
C633 C 0.51009 0.08269 0.36848 0.0
H634 H 0.62321 0.66926 0.76769 0.0
H635 H 0.52219 0.57675 0.77277 0.0
H636 H 0.61896 0.65981 0.73176 0.0
H637 H 0.51839 0.56667 0.7371 0.0
H638 H 0.49787 0.58382 0.67152 0.0
H639 H 0.50315 0.59482 0.70712 0.0
H640 H 0.62654 0.61687 0.70629 0.0
H641 H 0.62138 0.6075 0.67047 0.0
C642 C 0.60019 0.64688 0.76112 0.0
C643 C 0.5729 0.62392 0.77298 0.0
C644 C 0.59787 0.64127 0.74057 0.0
C645 C 0.56824 0.61254 0.7315 0.0
C646 C 0.54118 0.58946 0.7435 0.0
C647 C 0.54345 0.59512 0.76398 0.0
C648 C 0.52619 0.5914 0.67888 0.0
C649 C 0.5592 0.59484 0.66808 0.0
C650 C 0.52919 0.59728 0.69936 0.0
C651 C 0.56527 0.60665 0.70963 0.0
C652 C 0.59832 0.61007 0.69885 0.0
C653 C 0.59532 0.60422 0.67833 0.0
H654 H 0.57109 1.00761 0.58222 0.0
H655 H 0.5086 0.09067 0.57847 0.0
H656 H 0.54441 0.98839 0.61416 0.0
H657 H 0.48336 0.07298 0.61083 0.0
H658 H 0.52777 0.99557 0.68043 0.0
H659 H 0.54958 1.00798 0.64718 0.0
H660 H 0.44088 1.02744 0.6289 0.0
H661 H 0.42023 1.01786 0.66264 0.0
C662 C 0.55194 1.022 0.58837 0.0
C663 C 0.54209 0.05076 0.578 0.0
C664 C 0.5367 1.01111 0.60671 0.0
C665 C 0.51172 1.02915 0.61521 0.0
C666 C 0.50188 0.05792 0.60467 0.0
C667 C 0.51667 0.06839 0.58621 0.0
C668 C 0.50854 1.0027 0.66936 0.0
C669 C 0.47245 1.0063 0.67436 0.0
C670 C 0.52087 1.00931 0.65014 0.0
C671 C 0.4972 1.0191 0.63527 0.0
C672 C 0.46028 1.02078 0.64003 0.0
C673 C 0.44813 1.01465 0.65935 0.0
H674 H 0.50413 0.51947 0.88512 0.0
H675 H 0.60996 0.60793 0.88599 0.0
H676 H 0.5038 0.52334 0.92106 0.0
H677 H 0.60944 0.61218 0.92208 0.0
H678 H 0.61548 0.57711 0.98748 0.0
H679 H 0.61674 0.57506 0.95146 0.0
H680 H 0.49519 0.56602 0.94691 0.0
H681 H 0.4937 0.56697 0.98289 0.0
C682 C 0.52732 0.53979 0.89302 0.0
C683 C 0.55714 0.56332 0.8828 0.0
C684 C 0.52699 0.54218 0.9136 0.0
C685 C 0.55653 0.56813 0.92442 0.0
C686 C 0.58647 0.59165 0.91417 0.0
C687 C 0.58671 0.58934 0.89353 0.0
C688 C 0.58899 0.57444 0.97878 0.0
C689 C 0.55445 0.57204 0.98805 0.0
C690 C 0.5898 0.5737 0.95815 0.0
C691 C 0.55606 0.57032 0.94633 0.0
C692 C 0.5216 0.56824 0.9556 0.0
C693 C 0.52082 0.56916 0.97622 0.0
H694 H 0.08456 0.65591 0.21854 0.0
H695 H 0.05546 0.53796 0.20584 0.0
H696 H 0.08196 0.64361 0.25382 0.0
H697 H 0.05328 0.52538 0.2413 0.0
H698 H 1.01141 0.51974 0.30531 0.0
H699 H 1.01498 0.52957 0.26972 0.0
H700 H 0.11686 0.62132 0.28006 0.0
H701 H 0.1124 0.61253 0.31555 0.0
C702 C 0.07775 0.62728 0.22332 0.0
C703 C 0.07003 0.59783 0.20945 0.0
C704 C 0.07648 0.62023 0.24356 0.0
C705 C 0.06755 0.5835 0.25042 0.0
C706 C 0.05984 0.55398 0.23651 0.0
C707 C 0.06116 0.56111 0.21621 0.0
C708 C 0.03445 0.54212 0.29998 0.0
C709 C 0.06153 0.56542 0.31332 0.0
C710 C 0.03675 0.54748 0.27957 0.0
C711 C 0.06611 0.57634 0.27203 0.0
C712 C 0.09357 0.59915 0.28537 0.0
C713 C 0.09128 0.59379 0.30573 0.0
loop_
_geom_bond_atom_site_label_1
_geom_bond_atom_site_label_2
_geom_bond_distance
_geom_bond_site_symmetry_2
_ccdc_geom_bond_type
Pr0 C2 2.880 . S
Pr0 O20 2.562 . S
Pr0 O21 2.490 . S
Pr0 O22 2.695 1_655 S
Pr0 O23 2.512 . S
Pr0 O25 2.437 . S
Pr0 O28 2.433 . S
Pr0 O30 2.438 1_655 S
Pr1 C11 2.880 . S
Pr1 O22 2.436 . S
Pr1 O24 2.438 1_455 S
Pr1 O26 2.562 . S
Pr1 O27 2.490 . S
Pr1 O28 2.693 1_455 S
Pr1 O29 2.512 . S
Pr1 O31 2.437 . S
C2 Pr0 2.880 . S
C2 C3 1.491 . S
C2 O20 1.254 . S
C2 O21 1.225 . S
C3 C2 1.491 . S
C3 C4 1.392 . S
C3 C8 1.356 . S
C4 C3 1.392 . S
C4 C5 1.368 . S
C4 H32 0.929 . S
C5 C4 1.368 . S
C5 C6 1.386 . S
C5 H33 0.929 . S
C6 C5 1.386 . S
C6 C7 1.373 . S
C7 C6 1.373 . S
C7 C8 1.409 . S
C7 H34 0.931 . S
C8 C3 1.356 . S
C8 C7 1.409 . S
C8 H35 0.930 . S
C9 O22 1.270 . S
C9 O23 1.248 1_455 S
C10 O24 1.267 . S
C10 O25 1.278 . S
C11 Pr1 2.880 . S
C11 C12 1.491 . S
C11 O26 1.254 . S
C11 O27 1.225 . S
C12 C11 1.491 . S
C12 C13 1.392 . S
C12 C17 1.356 . S
C13 C12 1.392 . S
C13 C14 1.368 . S
C13 H36 0.929 . S
C14 C13 1.368 . S
C14 C15 1.386 . S
C14 H37 0.929 . S
C15 C14 1.386 . S
C15 C16 1.373 . S
C16 C15 1.373 . S
C16 C17 1.409 . S
C16 H38 0.931 . S
C17 C12 1.356 . S
C17 C16 1.409 . S
C17 H39 0.930 . S
C18 O28 1.268 1_455 S
C18 O29 1.248 . S
C19 O30 1.267 . S
C19 O31 1.278 . S
O20 Pr0 2.562 . S
O20 C2 1.254 . S
O21 Pr0 2.490 . S
O21 C2 1.225 . S
O22 Pr0 2.695 1_455 S
O22 Pr1 2.436 . S
O22 C9 1.270 . S
O23 Pr0 2.512 . S
O23 C9 1.248 1_655 S
O24 Pr1 2.438 1_655 S
O24 C10 1.267 . S
O25 Pr0 2.437 . S
O25 C10 1.278 . S
O26 Pr1 2.562 . S
O26 C11 1.254 . S
O27 Pr1 2.490 . S
O27 C11 1.225 . S
O28 Pr0 2.433 . S
O28 Pr1 2.693 1_655 S
O28 C18 1.268 1_655 S
O29 Pr1 2.512 . S
O29 C18 1.248 . S
O30 Pr0 2.438 1_455 S
O30 C19 1.267 . S
O31 Pr1 2.437 . S
O31 C19 1.278 . S
H32 C4 0.929 . S
H33 C5 0.929 . S
H34 C7 0.931 . S
H35 C8 0.930 . S
H36 C13 0.929 . S
H37 C14 0.929 . S
H38 C16 0.931 . S
H39 C17 0.930 . S
Pr40 C42 2.880 . S
Pr40 O60 2.562 . S
Pr40 O61 2.490 . S
Pr40 O62 2.695 . S
Pr40 O63 2.512 . S
Pr40 O65 2.437 . S
Pr40 O68 2.436 . S
Pr40 O70 2.438 1_545 S
Pr41 C51 2.880 . S
Pr41 O62 2.436 1_565 S
Pr41 O64 2.438 1_565 S
Pr41 O66 2.562 . S
Pr41 O67 2.490 . S
Pr41 O68 2.695 1_565 S
Pr41 O69 2.512 . S
Pr41 O71 2.437 . S
C42 Pr40 2.880 . S
C42 C43 1.491 . S
C42 O60 1.254 . S
C42 O61 1.225 . S
C43 C42 1.491 . S
C43 C44 1.392 . S
C43 C48 1.356 . S
C44 C43 1.392 . S
C44 C45 1.368 . S
C44 H72 0.929 . S
C45 C44 1.368 . S
C45 C46 1.386 . S
C45 H73 0.929 . S
C46 C45 1.386 . S
C46 C47 1.373 . S
C47 C46 1.373 . S
C47 C48 1.409 . S
C47 H74 0.931 . S
C48 C43 1.356 . S
C48 C47 1.409 . S
C48 H75 0.930 . S
C49 O62 1.270 . S
C49 O63 1.248 . S
C50 O64 1.267 . S
C50 O65 1.278 . S
C51 Pr41 2.880 . S
C51 C52 1.491 . S
C51 O66 1.254 . S
C51 O67 1.225 . S
C52 C51 1.491 . S
C52 C53 1.392 . S
C52 C57 1.356 . S
C53 C52 1.392 . S
C53 C54 1.368 . S
C53 H76 0.929 . S
C54 C53 1.368 . S
C54 C55 1.386 . S
C54 H77 0.929 . S
C55 C54 1.386 . S
C55 C56 1.373 . S
C56 C55 1.373 . S
C56 C57 1.409 . S
C56 H78 0.931 . S
C57 C52 1.356 . S
C57 C56 1.409 . S
C57 H79 0.930 . S
C58 O68 1.270 . S
C58 O69 1.248 1_545 S
C59 O70 1.267 . S
C59 O71 1.278 . S
O60 Pr40 2.562 . S
O60 C42 1.254 . S
O61 Pr40 2.490 . S
O61 C42 1.225 . S
O62 Pr40 2.695 . S
O62 Pr41 2.436 1_545 S
O62 C49 1.270 . S
O63 Pr40 2.512 . S
O63 C49 1.248 . S
O64 Pr41 2.438 1_545 S
O64 C50 1.267 . S
O65 Pr40 2.437 . S
O65 C50 1.278 . S
O66 Pr41 2.562 . S
O66 C51 1.254 . S
O67 Pr41 2.490 . S
O67 C51 1.225 . S
O68 Pr40 2.436 . S
O68 Pr41 2.695 1_545 S
O68 C58 1.270 . S
O69 Pr41 2.512 . S
O69 C58 1.248 1_565 S
O70 Pr40 2.438 1_565 S
O70 C59 1.267 . S
O71 Pr41 2.437 . S
O71 C59 1.278 . S
H72 C44 0.929 . S
H73 C45 0.929 . S
H74 C47 0.931 . S
H75 C48 0.930 . S
H76 C53 0.929 . S
H77 C54 0.929 . S
H78 C56 0.931 . S
H79 C57 0.930 . S
Pr80 C82 2.880 . S
Pr80 O100 2.562 . S
Pr80 O101 2.490 . S
Pr80 O102 2.695 . S
Pr80 O103 2.512 . S
Pr80 O105 2.437 . S
Pr80 O108 2.436 . S
Pr80 O110 2.438 . S
Pr81 C91 2.880 . S
Pr81 O102 2.436 . S
Pr81 O104 2.438 . S
Pr81 O106 2.562 . S
Pr81 O107 2.490 . S
Pr81 O108 2.695 . S
Pr81 O109 2.512 . S
Pr81 O111 2.437 . S
C82 Pr80 2.880 . S
C82 C83 1.491 . S
C82 O100 1.254 . S
C82 O101 1.225 . S
C83 C82 1.491 . S
C83 C84 1.392 . S
C83 C88 1.356 . S
C84 C83 1.392 . S
C84 C85 1.368 . S
C84 H112 0.929 . S
C85 C84 1.368 . S
C85 C86 1.386 . S
C85 H113 0.929 . S
C86 C85 1.386 . S
C86 C87 1.373 . S
C87 C86 1.373 . S
C87 C88 1.409 . S
C87 H114 0.931 . S
C88 C83 1.356 . S
C88 C87 1.409 . S
C88 H115 0.930 . S
C89 O102 1.270 . S
C89 O103 1.248 . S
C90 O104 1.267 . S
C90 O105 1.278 . S
C91 Pr81 2.880 . S
C91 C92 1.491 . S
C91 O106 1.254 . S
C91 O107 1.225 . S
C92 C91 1.491 . S
C92 C93 1.392 . S
C92 C97 1.356 . S
C93 C92 1.392 . S
C93 C94 1.368 . S
C93 H116 0.929 . S
C94 C93 1.368 . S
C94 C95 1.386 . S
C94 H117 0.929 . S
C95 C94 1.386 . S
C95 C96 1.373 . S
C96 C95 1.373 . S
C96 C97 1.409 . S
C96 H118 0.931 . S
C97 C92 1.356 . S
C97 C96 1.409 . S
C97 H119 0.930 . S
C98 O108 1.270 . S
C98 O109 1.248 . S
C99 O110 1.267 . S
C99 O111 1.278 . S
O100 Pr80 2.562 . S
O100 C82 1.254 . S
O101 Pr80 2.490 . S
O101 C82 1.225 . S
O102 Pr80 2.695 . S
O102 Pr81 2.436 . S
O102 C89 1.270 . S
O103 Pr80 2.512 . S
O103 C89 1.248 . S
O104 Pr81 2.438 . S
O104 C90 1.267 . S
O105 Pr80 2.437 . S
O105 C90 1.278 . S
O106 Pr81 2.562 . S
O106 C91 1.254 . S
O107 Pr81 2.490 . S
O107 C91 1.225 . S
O108 Pr80 2.436 . S
O108 Pr81 2.695 . S
O108 C98 1.270 . S
O109 Pr81 2.512 . S
O109 C98 1.248 . S
O110 Pr80 2.438 . S
O110 C99 1.267 . S
O111 Pr81 2.437 . S
O111 C99 1.278 . S
H112 C84 0.929 . S
H113 C85 0.929 . S
H114 C87 0.931 . S
H115 C88 0.930 . S
H116 C93 0.929 . S
H117 C94 0.929 . S
H118 C96 0.931 . S
H119 C97 0.930 . S
C120 C121 1.386 . S
C120 C122 1.397 . S
C120 H144 0.931 . S
C121 C120 1.386 . S
C121 C125 1.402 . S
C122 C120 1.397 . S
C122 C123 1.384 . S
C122 H145 0.930 . S
C123 C122 1.384 . S
C123 C124 1.377 . S
C123 C126 1.481 . S
C124 C123 1.377 . S
C124 C125 1.389 . S
C124 H146 0.929 1_545 S
C125 C121 1.402 . S
C125 C124 1.389 . S
C125 H147 0.925 1_545 S
C126 C123 1.481 . S
C126 C127 1.387 . S
C126 C131 1.390 . S
C127 C126 1.387 . S
C127 C128 1.401 . S
C127 H148 0.930 . S
C128 C127 1.401 . S
C128 C129 1.376 . S
C128 C137 1.511 . S
C129 C128 1.376 . S
C129 C130 1.392 . S
C129 H150 0.931 . S
C130 C129 1.392 . S
C130 C131 1.361 . S
C130 C132 1.500 1_545 S
C131 C126 1.390 . S
C131 C130 1.361 . S
C131 H149 0.931 1_545 S
C132 C130 1.500 1_565 S
C132 C133 1.371 . S
C132 C134 1.365 . S
C133 C132 1.371 . S
C133 C143 1.386 . S
C133 H151 0.931 1_565 S
C134 C132 1.365 . S
C134 C135 1.409 . S
C134 H152 0.929 . S
C135 C134 1.409 . S
C135 C136 1.380 . S
C135 H153 0.930 . S
C136 C135 1.380 . S
C136 C143 1.357 . S
C137 C128 1.511 . S
C137 C138 1.341 . S
C137 C139 1.371 . S
C138 C137 1.341 . S
C138 C142 1.394 . S
C138 H154 0.930 . S
C139 C137 1.371 . S
C139 C140 1.392 . S
C139 H155 0.931 . S
C140 C139 1.392 . S
C140 C141 1.331 . S
C140 H158 0.932 . S
C141 C140 1.331 . S
C141 C142 1.336 . S
C142 C138 1.394 . S
C142 C141 1.336 . S
C142 H157 0.929 . S
C143 C133 1.386 . S
C143 C136 1.357 . S
C143 H156 0.928 . S
H144 C120 0.931 . S
H145 C122 0.930 . S
H146 C124 0.929 1_565 S
H147 C125 0.925 1_565 S
H148 C127 0.930 . S
H149 C131 0.931 1_565 S
H150 C129 0.931 . S
H151 C133 0.931 1_545 S
H152 C134 0.929 . S
H153 C135 0.930 . S
H154 C138 0.930 . S
H155 C139 0.931 . S
H156 C143 0.928 . S
H157 C142 0.929 . S
H158 C140 0.932 . S
C159 C160 1.386 . S
C159 C161 1.397 . S
C159 H183 0.931 . S
C160 C159 1.386 . S
C160 C164 1.397 . S
C161 C159 1.397 . S
C161 C162 1.384 . S
C161 H184 0.930 . S
C162 C161 1.384 . S
C162 C163 1.377 . S
C162 C165 1.481 . S
C163 C162 1.377 . S
C163 C164 1.389 . S
C163 H185 0.929 . S
C164 C160 1.397 . S
C164 C163 1.389 . S
C164 H186 0.931 . S
C165 C162 1.481 . S
C165 C166 1.387 . S
C165 C170 1.390 . S
C166 C165 1.387 . S
C166 C167 1.401 . S
C166 H187 0.930 . S
C167 C166 1.401 . S
C167 C168 1.376 . S
C167 C176 1.511 . S
C168 C167 1.376 . S
C168 C169 1.392 . S
C168 H189 0.931 . S
C169 C168 1.392 . S
C169 C170 1.361 . S
C169 C171 1.500 . S
C170 C165 1.390 . S
C170 C169 1.361 . S
C170 H188 0.931 . S
C171 C169 1.500 . S
C171 C172 1.371 . S
C171 C173 1.365 . S
C172 C171 1.371 . S
C172 C182 1.386 . S
C172 H190 0.931 . S
C173 C171 1.365 . S
C173 C174 1.409 . S
C173 H191 0.929 . S
C174 C173 1.409 . S
C174 C175 1.380 . S
C174 H192 0.930 . S
C175 C174 1.380 . S
C175 C182 1.357 . S
C176 C167 1.511 . S
C176 C177 1.341 . S
C176 C178 1.371 . S
C177 C176 1.341 . S
C177 C181 1.394 . S
C177 H193 0.930 . S
C178 C176 1.371 . S
C178 C179 1.392 . S
C178 H194 0.931 . S
C179 C178 1.392 . S
C179 C180 1.331 . S
C179 H197 0.932 . S
C180 C179 1.331 . S
C180 C181 1.336 . S
C181 C177 1.394 . S
C181 C180 1.336 . S
C181 H196 0.929 . S
C182 C172 1.386 . S
C182 C175 1.357 . S
C182 H195 0.928 . S
H183 C159 0.931 . S
H184 C161 0.930 . S
H185 C163 0.929 . S
H186 C164 0.931 . S
H187 C166 0.930 . S
H188 C170 0.931 . S
H189 C168 0.931 . S
H190 C172 0.931 . S
H191 C173 0.929 . S
H192 C174 0.930 . S
H193 C177 0.930 . S
H194 C178 0.931 . S
H195 C182 0.928 . S
H196 C181 0.929 . S
H197 C179 0.932 . S
C198 C199 1.386 . S
C198 C200 1.397 . S
C198 H222 0.931 . S
C199 C198 1.386 . S
C199 C203 1.397 1_455 S
C200 C198 1.397 . S
C200 C201 1.384 . S
C200 H223 0.930 . S
C201 C200 1.384 . S
C201 C202 1.377 1_455 S
C201 C204 1.481 . S
C202 C201 1.377 1_655 S
C202 C203 1.389 . S
C202 H224 0.929 . S
C203 C199 1.397 1_655 S
C203 C202 1.389 . S
C203 H225 0.931 . S
C204 C201 1.481 . S
C204 C205 1.387 . S
C204 C209 1.390 1_455 S
C205 C204 1.387 . S
C205 C206 1.401 . S
C205 H226 0.930 . S
C206 C205 1.401 . S
C206 C207 1.376 . S
C206 C215 1.511 . S
C207 C206 1.376 . S
C207 C208 1.392 1_455 S
C207 H228 0.931 . S
C208 C207 1.392 1_655 S
C208 C209 1.361 . S
C208 C210 1.500 . S
C209 C204 1.390 1_655 S
C209 C208 1.361 . S
C209 H227 0.931 . S
C210 C208 1.500 . S
C210 C211 1.371 . S
C210 C212 1.365 . S
C211 C210 1.371 . S
C211 C221 1.386 . S
C211 H229 0.931 . S
C212 C210 1.365 . S
C212 C213 1.409 . S
C212 H230 0.929 . S
C213 C212 1.409 . S
C213 C214 1.380 . S
C213 H231 0.930 . S
C214 C213 1.380 . S
C214 C221 1.357 . S
C215 C206 1.511 . S
C215 C216 1.341 . S
C215 C217 1.371 . S
C216 C215 1.341 . S
C216 C220 1.394 . S
C216 H232 0.930 . S
C217 C215 1.371 . S
C217 C218 1.392 . S
C217 H233 0.931 . S
C218 C217 1.392 . S
C218 C219 1.331 . S
C218 H236 0.932 . S
C219 C218 1.331 . S
C219 C220 1.336 . S
C220 C216 1.394 . S
C220 C219 1.336 . S
C220 H235 0.929 . S
C221 C211 1.386 . S
C221 C214 1.357 . S
C221 H234 0.928 . S
H222 C198 0.931 . S
H223 C200 0.930 . S
H224 C202 0.929 . S
H225 C203 0.931 . S
H226 C205 0.930 . S
H227 C209 0.931 . S
H228 C207 0.931 . S
H229 C211 0.931 . S
H230 C212 0.929 . S
H231 C213 0.930 . S
H232 C216 0.930 . S
H233 C217 0.931 . S
H234 C221 0.928 . S
H235 C220 0.929 . S
H236 C218 0.932 . S
C237 C238 1.386 . S
C237 C239 1.397 . S
C237 H261 0.931 . S
C238 C237 1.386 . S
C238 C242 1.397 1_655 S
C239 C237 1.397 . S
C239 C240 1.384 . S
C239 H262 0.930 . S
C240 C239 1.384 . S
C240 C241 1.377 1_655 S
C240 C243 1.480 . S
C241 C240 1.377 1_455 S
C241 C242 1.389 . S
C241 H263 0.929 . S
C242 C238 1.397 1_455 S
C242 C241 1.389 . S
C242 H264 0.931 . S
C243 C240 1.480 . S
C243 C244 1.396 . S
C243 C248 1.382 1_655 S
C244 C243 1.396 . S
C244 C245 1.401 . S
C244 H265 0.930 . S
C245 C244 1.401 . S
C245 C246 1.376 1_655 S
C245 C254 1.511 . S
C246 C245 1.376 1_455 S
C246 C247 1.392 . S
C246 H267 0.931 . S
C247 C246 1.392 . S
C247 C248 1.361 . S
C247 C249 1.500 . S
C248 C243 1.382 1_455 S
C248 C247 1.361 . S
C248 H266 0.931 . S
C249 C247 1.500 . S
C249 C250 1.371 . S
C249 C251 1.365 . S
C250 C249 1.371 . S
C250 C260 1.386 . S
C250 H268 0.931 . S
C251 C249 1.365 . S
C251 C252 1.409 . S
C251 H269 0.929 . S
C252 C251 1.409 . S
C252 C253 1.380 . S
C252 H270 0.930 . S
C253 C252 1.380 . S
C253 C260 1.357 . S
C254 C245 1.511 . S
C254 C255 1.341 . S
C254 C256 1.371 . S
C255 C254 1.341 . S
C255 C259 1.394 . S
C255 H271 0.930 . S
C256 C254 1.371 . S
C256 C257 1.392 . S
C256 H272 0.931 . S
C257 C256 1.392 . S
C257 C258 1.331 . S
C257 H275 0.932 . S
C258 C257 1.331 . S
C258 C259 1.336 . S
C259 C255 1.394 . S
C259 C258 1.336 . S
C259 H274 0.929 . S
C260 C250 1.386 . S
C260 C253 1.357 . S
C260 H273 0.928 . S
H261 C237 0.931 . S
H262 C239 0.930 . S
H263 C241 0.929 . S
H264 C242 0.931 . S
H265 C244 0.930 . S
H266 C248 0.931 . S
H267 C246 0.931 . S
H268 C250 0.931 . S
H269 C251 0.929 . S
H270 C252 0.930 . S
H271 C255 0.930 . S
H272 C256 0.931 . S
H273 C260 0.928 . S
H274 C259 0.929 . S
H275 C257 0.932 . S
C276 C277 1.386 1_565 S
C276 C278 1.397 . S
C276 H300 0.931 . S
C277 C276 1.386 1_545 S
C277 C281 1.397 . S
C278 C276 1.397 . S
C278 C279 1.384 1_565 S
C278 H301 0.930 . S
C279 C278 1.384 1_545 S
C279 C280 1.377 . S
C279 C282 1.481 . S
C280 C279 1.377 . S
C280 C281 1.389 . S
C280 H302 0.929 . S
C281 C277 1.397 . S
C281 C280 1.389 . S
C281 H303 0.931 . S
C282 C279 1.481 . S
C282 C283 1.387 1_545 S
C282 C287 1.390 . S
C283 C282 1.387 1_565 S
C283 C284 1.401 . S
C283 H304 0.930 . S
C284 C283 1.401 . S
C284 C285 1.376 1_565 S
C284 C293 1.511 . S
C285 C284 1.376 1_545 S
C285 C286 1.392 . S
C285 H306 0.931 . S
C286 C285 1.392 . S
C286 C287 1.361 . S
C286 C288 1.500 . S
C287 C282 1.390 . S
C287 C286 1.361 . S
C287 H305 0.931 . S
C288 C286 1.500 . S
C288 C289 1.371 . S
C288 C290 1.365 . S
C289 C288 1.371 . S
C289 C299 1.386 . S
C289 H307 0.931 . S
C290 C288 1.365 . S
C290 C291 1.409 . S
C290 H308 0.929 . S
C291 C290 1.409 . S
C291 C292 1.380 . S
C291 H309 0.930 . S
C292 C291 1.380 . S
C292 C299 1.357 . S
C293 C284 1.511 . S
C293 C294 1.341 . S
C293 C295 1.371 . S
C294 C293 1.341 . S
C294 C298 1.394 . S
C294 H310 0.930 . S
C295 C293 1.371 . S
C295 C296 1.392 . S
C295 H311 0.931 . S
C296 C295 1.392 . S
C296 C297 1.331 . S
C296 H314 0.932 . S
C297 C296 1.331 . S
C297 C298 1.336 . S
C298 C294 1.394 . S
C298 C297 1.336 . S
C298 H313 0.929 . S
C299 C289 1.386 . S
C299 C292 1.357 . S
C299 H312 0.928 . S
H300 C276 0.931 . S
H301 C278 0.930 . S
H302 C280 0.929 . S
H303 C281 0.931 . S
H304 C283 0.930 . S
H305 C287 0.931 . S
H306 C285 0.931 . S
H307 C289 0.931 . S
H308 C290 0.929 . S
H309 C291 0.930 . S
H310 C294 0.930 . S
H311 C295 0.931 . S
H312 C299 0.928 . S
H313 C298 0.929 . S
H314 C296 0.932 . S
C315 C316 1.386 . S
C315 C317 1.397 . S
C315 H339 0.931 . S
C316 C315 1.386 . S
C316 C320 1.397 . S
C317 C315 1.397 . S
C317 C318 1.384 . S
C317 H340 0.930 . S
C318 C317 1.384 . S
C318 C319 1.377 . S
C318 C321 1.481 . S
C319 C318 1.377 . S
C319 C320 1.389 . S
C319 H341 0.929 . S
C320 C316 1.397 . S
C320 C319 1.389 . S
C320 H342 0.931 . S
C321 C318 1.481 . S
C321 C322 1.387 . S
C321 C326 1.390 . S
C322 C321 1.387 . S
C322 C323 1.401 . S
C322 H343 0.930 . S
C323 C322 1.401 . S
C323 C324 1.376 . S
C323 C332 1.511 . S
C324 C323 1.376 . S
C324 C325 1.392 . S
C324 H345 0.931 . S
C325 C324 1.392 . S
C325 C326 1.361 . S
C325 C327 1.500 . S
C326 C321 1.390 . S
C326 C325 1.361 . S
C326 H344 0.931 . S
C327 C325 1.500 . S
C327 C328 1.371 . S
C327 C329 1.365 . S
C328 C327 1.371 . S
C328 C338 1.386 . S
C328 H346 0.931 . S
C329 C327 1.365 . S
C329 C330 1.409 . S
C329 H347 0.929 . S
C330 C329 1.409 . S
C330 C331 1.380 . S
C330 H348 0.930 . S
C331 C330 1.380 . S
C331 C338 1.357 . S
C332 C323 1.511 . S
C332 C333 1.341 . S
C332 C334 1.371 . S
C333 C332 1.341 . S
C333 C337 1.394 . S
C333 H349 0.930 . S
C334 C332 1.371 . S
C334 C335 1.392 . S
C334 H350 0.931 . S
C335 C334 1.392 . S
C335 C336 1.331 . S
C335 H353 0.932 . S
C336 C335 1.331 . S
C336 C337 1.336 . S
C337 C333 1.394 . S
C337 C336 1.336 . S
C337 H352 0.929 . S
C338 C328 1.386 . S
C338 C331 1.357 . S
C338 H351 0.928 . S
H339 C315 0.931 . S
H340 C317 0.930 . S
H341 C319 0.929 . S
H342 C320 0.931 . S
H343 C322 0.930 . S
H344 C326 0.931 . S
H345 C324 0.931 . S
H346 C328 0.931 . S
H347 C329 0.929 . S
H348 C330 0.930 . S
H349 C333 0.930 . S
H350 C334 0.931 . S
H351 C338 0.928 . S
H352 C337 0.929 . S
H353 C335 0.932 . S
H354 C362 0.950 . S
H355 C367 0.950 . S
H356 C364 0.950 . S
H357 C366 0.950 . S
H358 C368 0.950 . S
H359 C370 0.950 . S
H360 C372 0.950 . S
H361 C373 0.950 . S
C362 H354 0.950 . S
C362 C363 1.386 . S
C362 C364 1.391 . S
C363 C362 1.386 . S
C363 C367 1.393 . S
C364 H356 0.950 . S
C364 C362 1.391 . S
C364 C365 1.400 . S
C365 C364 1.400 . S
C365 C366 1.398 . S
C365 C371 1.491 . S
C366 H357 0.950 . S
C366 C365 1.398 . S
C366 C367 1.391 . S
C367 H355 0.950 . S
C367 C363 1.393 . S
C367 C366 1.391 . S
C368 H358 0.950 . S
C368 C369 1.386 . S
C368 C370 1.391 . S
C369 C368 1.386 . S
C369 C373 1.393 . S
C370 H359 0.950 . S
C370 C368 1.391 . S
C370 C371 1.400 . S
C371 C365 1.491 . S
C371 C370 1.400 . S
C371 C372 1.398 . S
C372 H360 0.950 . S
C372 C371 1.398 . S
C372 C373 1.391 . S
C373 H361 0.950 . S
C373 C369 1.393 . S
C373 C372 1.391 . S
H374 C382 0.950 . S
H375 C387 0.950 . S
H376 C384 0.950 . S
H377 C386 0.950 . S
H378 C388 0.950 . S
H379 C390 0.950 . S
H380 C392 0.950 . S
H381 C393 0.950 . S
C382 H374 0.950 . S
C382 C383 1.386 . S
C382 C384 1.391 . S
C383 C382 1.386 . S
C383 C387 1.393 . S
C384 H376 0.950 . S
C384 C382 1.391 . S
C384 C385 1.400 . S
C385 C384 1.400 . S
C385 C386 1.398 . S
C385 C391 1.491 . S
C386 H377 0.950 . S
C386 C385 1.398 . S
C386 C387 1.391 . S
C387 H375 0.950 . S
C387 C383 1.393 . S
C387 C386 1.391 . S
C388 H378 0.950 . S
C388 C389 1.386 . S
C388 C390 1.391 . S
C389 C388 1.386 . S
C389 C393 1.393 . S
C390 H379 0.950 . S
C390 C388 1.391 . S
C390 C391 1.400 . S
C391 C385 1.491 . S
C391 C390 1.400 . S
C391 C392 1.398 . S
C392 H380 0.950 . S
C392 C391 1.398 . S
C392 C393 1.391 . S
C393 H381 0.950 . S
C393 C389 1.393 . S
C393 C392 1.391 . S
H394 C402 0.950 . S
H395 C407 0.950 . S
H396 C404 0.950 . S
H397 C406 0.950 . S
H398 C408 0.950 . S
H399 C410 0.950 . S
H400 C412 0.950 . S
H401 C413 0.950 . S
C402 H394 0.950 . S
C402 C403 1.386 . S
C402 C404 1.391 . S
C403 C402 1.386 . S
C403 C407 1.393 . S
C404 H396 0.950 . S
C404 C402 1.391 . S
C404 C405 1.400 . S
C405 C404 1.400 . S
C405 C406 1.398 . S
C405 C411 1.491 . S
C406 H397 0.950 . S
C406 C405 1.398 . S
C406 C407 1.391 . S
C407 H395 0.950 . S
C407 C403 1.393 . S
C407 C406 1.391 . S
C408 H398 0.950 . S
C408 C409 1.386 . S
C408 C410 1.391 . S
C409 C408 1.386 . S
C409 C413 1.393 . S
C410 H399 0.950 . S
C410 C408 1.391 . S
C410 C411 1.400 . S
C411 C405 1.491 . S
C411 C410 1.400 . S
C411 C412 1.398 . S
C412 H400 0.950 . S
C412 C411 1.398 . S
C412 C413 1.391 . S
C413 H401 0.950 . S
C413 C409 1.393 . S
C413 C412 1.391 . S
H414 C422 0.950 . S
H415 C427 0.950 . S
H416 C424 0.950 . S
H417 C426 0.950 . S
H418 C428 0.950 . S
H419 C430 0.950 . S
H420 C432 0.950 . S
H421 C433 0.950 . S
C422 H414 0.950 . S
C422 C423 1.386 . S
C422 C424 1.391 . S
C423 C422 1.386 . S
C423 C427 1.393 . S
C424 H416 0.950 . S
C424 C422 1.391 . S
C424 C425 1.400 . S
C425 C424 1.400 . S
C425 C426 1.398 . S
C425 C431 1.491 . S
C426 H417 0.950 . S
C426 C425 1.398 . S
C426 C427 1.391 . S
C427 H415 0.950 . S
C427 C423 1.393 . S
C427 C426 1.391 . S
C428 H418 0.950 . S
C428 C429 1.386 . S
C428 C430 1.391 . S
C429 C428 1.386 . S
C429 C433 1.393 . S
C430 H419 0.950 . S
C430 C428 1.391 . S
C430 C431 1.400 . S
C431 C425 1.491 . S
C431 C430 1.400 . S
C431 C432 1.398 . S
C432 H420 0.950 . S
C432 C431 1.398 . S
C432 C433 1.391 . S
C433 H421 0.950 . S
C433 C429 1.393 . S
C433 C432 1.391 . S
H434 C442 0.950 . S
H435 C447 0.950 . S
H436 C444 0.950 . S
H437 C446 0.950 . S
H438 C448 0.950 . S
H439 C450 0.950 . S
H440 C452 0.950 . S
H441 C453 0.950 . S
C442 H434 0.950 . S
C442 C443 1.386 . S
C442 C444 1.391 . S
C443 C442 1.386 . S
C443 C447 1.393 . S
C444 H436 0.950 . S
C444 C442 1.391 . S
C444 C445 1.400 . S
C445 C444 1.400 . S
C445 C446 1.398 . S
C445 C451 1.491 . S
C446 H437 0.950 . S
C446 C445 1.398 . S
C446 C447 1.391 . S
C447 H435 0.950 . S
C447 C443 1.393 . S
C447 C446 1.391 . S
C448 H438 0.950 . S
C448 C449 1.386 . S
C448 C450 1.391 . S
C449 C448 1.386 . S
C449 C453 1.393 . S
C450 H439 0.950 . S
C450 C448 1.391 . S
C450 C451 1.400 . S
C451 C445 1.491 . S
C451 C450 1.400 . S
C451 C452 1.398 . S
C452 H440 0.950 . S
C452 C451 1.398 . S
C452 C453 1.391 . S
C453 H441 0.950 . S
C453 C449 1.393 . S
C453 C452 1.391 . S
H454 C462 0.950 . S
H455 C467 0.950 . S
H456 C464 0.950 . S
H457 C466 0.950 . S
H458 C468 0.950 . S
H459 C470 0.950 . S
H460 C472 0.950 . S
H461 C473 0.950 . S
C462 H454 0.950 . S
C462 C463 1.386 . S
C462 C464 1.391 . S
C463 C462 1.386 . S
C463 C467 1.393 . S
C464 H456 0.950 . S
C464 C462 1.391 . S
C464 C465 1.400 . S
C465 C464 1.400 . S
C465 C466 1.398 . S
C465 C471 1.491 . S
C466 H457 0.950 . S
C466 C465 1.398 . S
C466 C467 1.391 . S
C467 H455 0.950 . S
C467 C463 1.393 . S
C467 C466 1.391 . S
C468 H458 0.950 . S
C468 C469 1.386 . S
C468 C470 1.391 . S
C469 C468 1.386 . S
C469 C473 1.393 . S
C470 H459 0.950 . S
C470 C468 1.391 . S
C470 C471 1.400 . S
C471 C465 1.491 . S
C471 C470 1.400 . S
C471 C472 1.398 . S
C472 H460 0.950 . S
C472 C471 1.398 . S
C472 C473 1.391 . S
C473 H461 0.950 . S
C473 C469 1.393 . S
C473 C472 1.391 . S
H474 C482 0.950 . S
H475 C487 0.950 . S
H476 C484 0.950 . S
H477 C486 0.950 . S
H478 C488 0.950 . S
H479 C490 0.950 . S
H480 C492 0.950 . S
H481 C493 0.950 . S
C482 H474 0.950 . S
C482 C483 1.386 . S
C482 C484 1.391 . S
C483 C482 1.386 . S
C483 C487 1.393 . S
C484 H476 0.950 . S
C484 C482 1.391 . S
C484 C485 1.400 . S
C485 C484 1.400 . S
C485 C486 1.398 . S
C485 C491 1.491 . S
C486 H477 0.950 . S
C486 C485 1.398 . S
C486 C487 1.391 . S
C487 H475 0.950 . S
C487 C483 1.393 . S
C487 C486 1.391 . S
C488 H478 0.950 . S
C488 C489 1.386 . S
C488 C490 1.391 . S
C489 C488 1.386 . S
C489 C493 1.393 . S
C490 H479 0.950 . S
C490 C488 1.391 . S
C490 C491 1.400 . S
C491 C485 1.491 . S
C491 C490 1.400 . S
C491 C492 1.398 . S
C492 H480 0.950 . S
C492 C491 1.398 . S
C492 C493 1.391 . S
C493 H481 0.950 . S
C493 C489 1.393 . S
C493 C492 1.391 . S
H494 C502 0.950 . S
H495 C507 0.950 . S
H496 C504 0.950 . S
H497 C506 0.950 . S
H498 C508 0.950 . S
H499 C510 0.950 . S
H500 C512 0.950 . S
H501 C513 0.950 . S
C502 H494 0.950 . S
C502 C503 1.386 . S
C502 C504 1.391 . S
C503 C502 1.386 . S
C503 C507 1.393 . S
C504 H496 0.950 . S
C504 C502 1.391 . S
C504 C505 1.400 . S
C505 C504 1.400 . S
C505 C506 1.398 . S
C505 C511 1.491 . S
C506 H497 0.950 . S
C506 C505 1.398 . S
C506 C507 1.391 . S
C507 H495 0.950 . S
C507 C503 1.393 . S
C507 C506 1.391 . S
C508 H498 0.950 . S
C508 C509 1.386 . S
C508 C510 1.391 . S
C509 C508 1.386 . S
C509 C513 1.393 . S
C510 H499 0.950 . S
C510 C508 1.391 . S
C510 C511 1.400 . S
C511 C505 1.491 . S
C511 C510 1.400 . S
C511 C512 1.398 . S
C512 H500 0.950 . S
C512 C511 1.398 . S
C512 C513 1.391 . S
C513 H501 0.950 . S
C513 C509 1.393 . S
C513 C512 1.391 . S
H514 C522 0.950 . S
H515 C527 0.950 . S
H516 C524 0.950 . S
H517 C526 0.950 . S
H518 C528 0.950 . S
H519 C530 0.950 . S
H520 C532 0.950 . S
H521 C533 0.950 . S
C522 H514 0.950 . S
C522 C523 1.386 . S
C522 C524 1.391 . S
C523 C522 1.386 . S
C523 C527 1.393 . S
C524 H516 0.950 . S
C524 C522 1.391 . S
C524 C525 1.400 . S
C525 C524 1.400 . S
C525 C526 1.398 . S
C525 C531 1.491 . S
C526 H517 0.950 . S
C526 C525 1.398 . S
C526 C527 1.391 . S
C527 H515 0.950 . S
C527 C523 1.393 . S
C527 C526 1.391 . S
C528 H518 0.950 . S
C528 C529 1.386 . S
C528 C530 1.391 . S
C529 C528 1.386 . S
C529 C533 1.393 . S
C530 H519 0.950 . S
C530 C528 1.391 . S
C530 C531 1.400 . S
C531 C525 1.491 . S
C531 C530 1.400 . S
C531 C532 1.398 . S
C532 H520 0.950 . S
C532 C531 1.398 . S
C532 C533 1.391 . S
C533 H521 0.950 . S
C533 C529 1.393 . S
C533 C532 1.391 . S
H534 C542 0.950 . S
H535 C547 0.950 . S
H536 C544 0.950 . S
H537 C546 0.950 . S
H538 C548 0.950 . S
H539 C550 0.950 . S
H540 C552 0.950 . S
H541 C553 0.950 . S
C542 H534 0.950 . S
C542 C543 1.386 . S
C542 C544 1.391 . S
C543 C542 1.386 . S
C543 C547 1.393 . S
C544 H536 0.950 . S
C544 C542 1.391 . S
C544 C545 1.400 . S
C545 C544 1.400 . S
C545 C546 1.398 . S
C545 C551 1.491 . S
C546 H537 0.950 . S
C546 C545 1.398 . S
C546 C547 1.391 . S
C547 H535 0.950 . S
C547 C543 1.393 . S
C547 C546 1.391 . S
C548 H538 0.950 . S
C548 C549 1.386 . S
C548 C550 1.391 . S
C549 C548 1.386 . S
C549 C553 1.393 . S
C550 H539 0.950 . S
C550 C548 1.391 . S
C550 C551 1.400 . S
C551 C545 1.491 . S
C551 C550 1.400 . S
C551 C552 1.398 . S
C552 H540 0.950 . S
C552 C551 1.398 . S
C552 C553 1.391 . S
C553 H541 0.950 . S
C553 C549 1.393 . S
C553 C552 1.391 . S
H554 C562 0.950 . S
H555 C567 0.950 . S
H556 C564 0.950 . S
H557 C566 0.950 . S
H558 C568 0.950 . S
H559 C570 0.950 . S
H560 C572 0.950 . S
H561 C573 0.950 . S
C562 H554 0.950 . S
C562 C563 1.386 . S
C562 C564 1.391 . S
C563 C562 1.386 . S
C563 C567 1.393 . S
C564 H556 0.950 . S
C564 C562 1.391 . S
C564 C565 1.400 . S
C565 C564 1.400 . S
C565 C566 1.398 . S
C565 C571 1.491 . S
C566 H557 0.950 . S
C566 C565 1.398 . S
C566 C567 1.391 . S
C567 H555 0.950 . S
C567 C563 1.393 . S
C567 C566 1.391 . S
C568 H558 0.950 . S
C568 C569 1.386 . S
C568 C570 1.391 . S
C569 C568 1.386 . S
C569 C573 1.393 . S
C570 H559 0.950 . S
C570 C568 1.391 . S
C570 C571 1.400 . S
C571 C565 1.491 . S
C571 C570 1.400 . S
C571 C572 1.398 . S
C572 H560 0.950 . S
C572 C571 1.398 . S
C572 C573 1.391 . S
C573 H561 0.950 . S
C573 C569 1.393 . S
C573 C572 1.391 . S
H574 C582 0.950 . S
H575 C587 0.950 . S
H576 C584 0.950 . S
H577 C586 0.950 . S
H578 C588 0.950 . S
H579 C590 0.950 . S
H580 C592 0.950 . S
H581 C593 0.950 . S
C582 H574 0.950 . S
C582 C583 1.386 . S
C582 C584 1.391 . S
C583 C582 1.386 . S
C583 C587 1.393 . S
C584 H576 0.950 . S
C584 C582 1.391 . S
C584 C585 1.400 . S
C585 C584 1.400 . S
C585 C586 1.398 . S
C585 C591 1.491 . S
C586 H577 0.950 . S
C586 C585 1.398 . S
C586 C587 1.391 . S
C587 H575 0.950 . S
C587 C583 1.393 . S
C587 C586 1.391 . S
C588 H578 0.950 . S
C588 C589 1.386 . S
C588 C590 1.391 . S
C589 C588 1.386 . S
C589 C593 1.393 . S
C590 H579 0.950 . S
C590 C588 1.391 . S
C590 C591 1.400 . S
C591 C585 1.491 . S
C591 C590 1.400 . S
C591 C592 1.398 . S
C592 H580 0.950 . S
C592 C591 1.398 . S
C592 C593 1.391 . S
C593 H581 0.950 . S
C593 C589 1.393 . S
C593 C592 1.391 . S
H594 C602 0.950 . S
H595 C607 0.950 . S
H596 C604 0.950 . S
H597 C606 0.950 . S
H598 C608 0.952 . S
H599 C610 0.950 . S
H600 C612 0.950 . S
H601 C613 0.950 1_556 S
C602 H594 0.950 . S
C602 C603 1.386 1_655 S
C602 C604 1.391 . S
C603 C602 1.386 1_455 S
C603 C607 1.393 . S
C604 H596 0.950 . S
C604 C602 1.391 . S
C604 C605 1.400 1_655 S
C605 C604 1.400 1_455 S
C605 C606 1.398 . S
C605 C611 1.491 . S
C606 H597 0.950 . S
C606 C605 1.398 . S
C606 C607 1.391 . S
C607 H595 0.950 . S
C607 C603 1.393 . S
C607 C606 1.391 . S
C608 H598 0.952 . S
C608 C609 1.386 1_554 S
C608 C610 1.391 . S
C609 C608 1.386 1_556 S
C609 C613 1.393 1_456 S
C610 H599 0.950 . S
C610 C608 1.391 . S
C610 C611 1.400 . S
C611 C605 1.491 . S
C611 C610 1.400 . S
C611 C612 1.398 1_455 S
C612 H600 0.950 . S
C612 C611 1.398 1_655 S
C612 C613 1.391 . S
C613 H601 0.950 1_554 S
C613 C609 1.393 1_654 S
C613 C612 1.391 . S
H614 C622 0.950 . S
H615 C627 0.950 . S
H616 C624 0.950 . S
H617 C626 0.950 . S
H618 C628 0.950 . S
H619 C630 0.950 . S
H620 C632 0.950 . S
H621 C633 0.950 . S
C622 H614 0.950 . S
C622 C623 1.386 . S
C622 C624 1.391 . S
C623 C622 1.386 . S
C623 C627 1.393 1_545 S
C624 H616 0.950 . S
C624 C622 1.391 . S
C624 C625 1.400 . S
C625 C624 1.400 . S
C625 C626 1.398 1_545 S
C625 C631 1.491 . S
C626 H617 0.950 . S
C626 C625 1.398 1_565 S
C626 C627 1.391 . S
C627 H615 0.950 . S
C627 C623 1.393 1_565 S
C627 C626 1.391 . S
C628 H618 0.950 . S
C628 C629 1.386 1_565 S
C628 C630 1.391 . S
C629 C628 1.386 1_545 S
C629 C633 1.393 . S
C630 H619 0.950 . S
C630 C628 1.391 . S
C630 C631 1.400 1_565 S
C631 C625 1.491 . S
C631 C630 1.400 1_545 S
C631 C632 1.398 . S
C632 H620 0.950 . S
C632 C631 1.398 . S
C632 C633 1.391 . S
C633 H621 0.950 . S
C633 C629 1.393 . S
C633 C632 1.391 . S
H634 C642 0.950 . S
H635 C647 0.950 . S
H636 C644 0.950 . S
H637 C646 0.950 . S
H638 C648 0.950 . S
H639 C650 0.950 . S
H640 C652 0.950 . S
H641 C653 0.950 . S
C642 H634 0.950 . S
C642 C643 1.386 . S
C642 C644 1.391 . S
C643 C642 1.386 . S
C643 C647 1.393 . S
C644 H636 0.950 . S
C644 C642 1.391 . S
C644 C645 1.400 . S
C645 C644 1.400 . S
C645 C646 1.398 . S
C645 C651 1.491 . S
C646 H637 0.950 . S
C646 C645 1.398 . S
C646 C647 1.391 . S
C647 H635 0.950 . S
C647 C643 1.393 . S
C647 C646 1.391 . S
C648 H638 0.950 . S
C648 C649 1.386 . S
C648 C650 1.391 . S
C649 C648 1.386 . S
C649 C653 1.393 . S
C650 H639 0.950 . S
C650 C648 1.391 . S
C650 C651 1.400 . S
C651 C645 1.491 . S
C651 C650 1.400 . S
C651 C652 1.398 . S
C652 H640 0.950 . S
C652 C651 1.398 . S
C652 C653 1.391 . S
C653 H641 0.950 . S
C653 C649 1.393 . S
C653 C652 1.391 . S
H654 C662 0.950 . S
H655 C667 0.950 . S
H656 C664 0.950 . S
H657 C666 0.950 . S
H658 C668 0.950 . S
H659 C670 0.950 . S
H660 C672 0.950 . S
H661 C673 0.950 . S
C662 H654 0.950 . S
C662 C663 1.386 1_565 S
C662 C664 1.391 . S
C663 C662 1.386 1_545 S
C663 C667 1.393 . S
C664 H656 0.950 . S
C664 C662 1.391 . S
C664 C665 1.400 1_565 S
C665 C664 1.400 1_545 S
C665 C666 1.398 . S
C665 C671 1.491 . S
C666 H657 0.950 . S
C666 C665 1.398 . S
C666 C667 1.391 . S
C667 H655 0.950 . S
C667 C663 1.393 . S
C667 C666 1.391 . S
C668 H658 0.950 . S
C668 C669 1.386 . S
C668 C670 1.391 . S
C669 C668 1.386 . S
C669 C673 1.393 1_545 S
C670 H659 0.950 . S
C670 C668 1.391 . S
C670 C671 1.400 . S
C671 C665 1.491 . S
C671 C670 1.400 . S
C671 C672 1.398 1_545 S
C672 H660 0.950 . S
C672 C671 1.398 1_565 S
C672 C673 1.391 . S
C673 H661 0.950 . S
C673 C669 1.393 1_565 S
C673 C672 1.391 . S
H674 C682 0.950 . S
H675 C687 0.950 . S
H676 C684 0.950 . S
H677 C686 0.950 . S
H678 C688 0.950 1_554 S
H679 C690 0.950 . S
H680 C692 0.950 . S
H681 C693 0.950 1_554 S
C682 H674 0.950 . S
C682 C683 1.386 . S
C682 C684 1.391 . S
C683 C682 1.386 . S
C683 C687 1.393 . S
C684 H676 0.950 . S
C684 C682 1.391 . S
C684 C685 1.400 . S
C685 C684 1.400 . S
C685 C686 1.398 . S
C685 C691 1.491 . S
C686 H677 0.950 . S
C686 C685 1.398 . S
C686 C687 1.391 . S
C687 H675 0.950 . S
C687 C683 1.393 . S
C687 C686 1.391 . S
C688 H678 0.950 1_556 S
C688 C689 1.386 1_556 S
C688 C690 1.391 . S
C689 C688 1.386 1_554 S
C689 C693 1.393 1_554 S
C690 H679 0.950 . S
C690 C688 1.391 . S
C690 C691 1.400 . S
C691 C685 1.491 . S
C691 C690 1.400 . S
C691 C692 1.398 . S
C692 H680 0.950 . S
C692 C691 1.398 . S
C692 C693 1.391 . S
C693 H681 0.950 1_556 S
C693 C689 1.393 1_556 S
C693 C692 1.391 . S
H694 C702 0.950 . S
H695 C707 0.950 . S
H696 C704 0.950 . S
H697 C706 0.950 . S
H698 C708 0.950 . S
H699 C710 0.950 . S
H700 C712 0.950 . S
H701 C713 0.950 . S
C702 H694 0.950 . S
C702 C703 1.386 . S
C702 C704 1.391 . S
C703 C702 1.386 . S
C703 C707 1.393 1_455 S
C704 H696 0.950 . S
C704 C702 1.391 . S
C704 C705 1.400 . S
C705 C704 1.400 . S
C705 C706 1.398 1_455 S
C705 C711 1.491 . S
C706 H697 0.950 . S
C706 C705 1.398 1_655 S
C706 C707 1.391 . S
C707 H695 0.950 . S
C707 C703 1.393 1_655 S
C707 C706 1.391 . S
C708 H698 0.950 . S
C708 C709 1.386 . S
C708 C710 1.391 . S
C709 C708 1.386 . S
C709 C713 1.393 1_655 S
C710 H699 0.950 . S
C710 C708 1.391 . S
C710 C711 1.400 1_655 S
C711 C705 1.491 . S
C711 C710 1.400 1_455 S
C711 C712 1.398 . S
C712 H700 0.950 . S
C712 C711 1.398 . S
C712 C713 1.391 . S
C713 H701 0.950 . S
C713 C709 1.393 1_455 S
C713 C712 1.391 . S
C363 C19 1.938 . S
C369 C331 1.903 . S
C383 C46 1.221 . S
C389 C258 1.238 . S
C403 C95 0.421 . S
C409 C297 0.342 . S
C423 C10 2.020 . S
C429 C336 1.980 . S
C449 C253 1.296 . S
C443 C55 1.292 . S
C469 C292 0.533 . S
C463 C86 0.529 . S
C483 C59 3.116 . S
C489 C180 3.066 . S
C503 C90 2.059 . S
C509 C214 2.019 . S
C523 C15 1.285 . S
C529 C136 1.287 . S
C549 C175 2.968 . S
C543 C50 3.010 . S
C569 C219 1.885 . S
C563 C99 1.920 . S
C583 C6 1.219 . S
C589 C141 1.211 . S
C609 C199 1.378 . S
C603 C9 1.338 . S
C623 C58 1.464 . S
C629 C121 1.507 . S
C643 C98 1.713 . S
C649 C160 1.772 . S
C669 C277 1.094 . S
C663 C49 1.068 . S
C689 C316 1.370 . S
C683 C89 1.315 . S
C703 C18 1.442 . S
C709 C238 1.487 . S
