# Generated by pormake.
# Topology pyr, (3,6)-cn, num edge types: 1
# Building blocks:
#     Node 0, Type 0, BuildingBlock: PAMTOO_clean_linker_0, # of connection points: 3
#     Node 1, Type 0, BuildingBlock: PAMTOO_clean_linker_0, # of connection points: 3
#     Node 2, Type 0, BuildingBlock: PAMTOO_clean_linker_0, # of connection points: 3
#     Node 3, Type 0, BuildingBlock: PAMTOO_clean_linker_0, # of connection points: 3
#     Node 4, Type 0, BuildingBlock: PAMTOO_clean_linker_0, # of connection points: 3
#     Node 5, Type 0, BuildingBlock: PAMTOO_clean_linker_0, # of connection points: 3
#     Node 6, Type 0, BuildingBlock: PAMTOO_clean_linker_0, # of connection points: 3
#     Node 7, Type 0, BuildingBlock: PAMTOO_clean_linker_0, # of connection points: 3
#     Node 8, Type 1, BuildingBlock: BETFEN_clean_sbu_0, # of connection points: 6
#     Node 9, Type 1, BuildingBlock: BETFEN_clean_sbu_0, # of connection points: 6
#     Node 10, Type 1, BuildingBlock: BETFEN_clean_sbu_0, # of connection points: 6
#     Node 11, Type 1, BuildingBlock: BETFEN_clean_sbu_0, # of connection points: 6
#     Edge 12, Type (0, 1), BuildingBlock: KIFKEQ_clean_linker_1, # of connection points: 2
#     Edge 13, Type (0, 1), BuildingBlock: KIFKEQ_clean_linker_1, # of connection points: 2
#     Edge 14, Type (0, 1), BuildingBlock: KIFKEQ_clean_linker_1, # of connection points: 2
#     Edge 15, Type (0, 1), BuildingBlock: KIFKEQ_clean_linker_1, # of connection points: 2
#     Edge 16, Type (0, 1), BuildingBlock: KIFKEQ_clean_linker_1, # of connection points: 2
#     Edge 17, Type (0, 1), BuildingBlock: KIFKEQ_clean_linker_1, # of connection points: 2
#     Edge 18, Type (0, 1), BuildingBlock: KIFKEQ_clean_linker_1, # of connection points: 2
#     Edge 19, Type (0, 1), BuildingBlock: KIFKEQ_clean_linker_1, # of connection points: 2
#     Edge 20, Type (0, 1), BuildingBlock: KIFKEQ_clean_linker_1, # of connection points: 2
#     Edge 21, Type (0, 1), BuildingBlock: KIFKEQ_clean_linker_1, # of connection points: 2
#     Edge 22, Type (0, 1), BuildingBlock: KIFKEQ_clean_linker_1, # of connection points: 2
#     Edge 23, Type (0, 1), BuildingBlock: KIFKEQ_clean_linker_1, # of connection points: 2
#     Edge 24, Type (0, 1), BuildingBlock: KIFKEQ_clean_linker_1, # of connection points: 2
#     Edge 25, Type (0, 1), BuildingBlock: KIFKEQ_clean_linker_1, # of connection points: 2
#     Edge 26, Type (0, 1), BuildingBlock: KIFKEQ_clean_linker_1, # of connection points: 2
#     Edge 27, Type (0, 1), BuildingBlock: KIFKEQ_clean_linker_1, # of connection points: 2
#     Edge 28, Type (0, 1), BuildingBlock: KIFKEQ_clean_linker_1, # of connection points: 2
#     Edge 29, Type (0, 1), BuildingBlock: KIFKEQ_clean_linker_1, # of connection points: 2
#     Edge 30, Type (0, 1), BuildingBlock: KIFKEQ_clean_linker_1, # of connection points: 2
#     Edge 31, Type (0, 1), BuildingBlock: KIFKEQ_clean_linker_1, # of connection points: 2
#     Edge 32, Type (0, 1), BuildingBlock: KIFKEQ_clean_linker_1, # of connection points: 2
#     Edge 33, Type (0, 1), BuildingBlock: KIFKEQ_clean_linker_1, # of connection points: 2
#     Edge 34, Type (0, 1), BuildingBlock: KIFKEQ_clean_linker_1, # of connection points: 2
#     Edge 35, Type (0, 1), BuildingBlock: KIFKEQ_clean_linker_1, # of connection points: 2
# Relax obj value: 0.178
# Max RMSD: 0.291
# Mean RMSD: 0.146
data_MOF--net-pyr--node1-BETFEN_clean_sbu_0--node2-PAMTOO_clean_linker_0--edge1-KIFKEQ_clean_linker_1
_symmetry_space_group_name_H-M    P1
_symmetry_Int_Tables_number       1
_symmetry_cell_setting            triclinic
loop_
_symmetry_equiv_pos_as_xyz
'x, y, z'
_cell_length_a     36.37937
_cell_length_b     41.749213
_cell_length_c     38.088253
_cell_angle_alpha  92.363544
_cell_angle_beta   100.42854
_cell_angle_gamma 114.19629
loop_
_atom_site_label
_atom_site_type_symbol
_atom_site_fract_x
_atom_site_fract_y
_atom_site_fract_z
_atom_type_partial_charge
H0 H 0.37301 0.31577 0.27973 0.0
H1 H 0.4878 0.33178 0.34925 0.0
H2 H 0.4884 0.39028 0.2592 0.0
H3 H 0.58793 0.37365 0.324 0.0
C4 C 0.56217 0.37018 0.30125 0.0
O5 O 0.53425 0.37927 0.31462 0.0
H6 H 0.57579 0.38928 0.28262 0.0
C7 C 0.40648 0.32804 0.28589 0.0
C8 C 0.42783 0.35353 0.26511 0.0
C9 C 0.42775 0.32015 0.31632 0.0
C10 C 0.47094 0.33734 0.32561 0.0
C11 C 0.49265 0.36208 0.30463 0.0
C12 C 0.47121 0.37043 0.27466 0.0
H13 H 0.30807 0.88671 0.7527 0.0
H14 H 0.29067 0.83803 0.6452 0.0
H15 H 0.37562 0.82673 0.73242 0.0
H16 H 0.39551 0.85102 0.65735 0.0
C17 C 0.37345 0.82358 0.64499 0.0
O18 O 0.34245 0.80934 0.66372 0.0
H19 H 0.35946 0.82542 0.61711 0.0
C20 C 0.31486 0.87065 0.73405 0.0
C21 C 0.34387 0.85747 0.74692 0.0
C22 C 0.29575 0.86444 0.69731 0.0
C23 C 0.30476 0.84315 0.67365 0.0
C24 C 0.33341 0.82947 0.68645 0.0
C25 C 0.35309 0.83692 0.72291 0.0
H26 H 0.70351 0.31531 0.9193 0.0
H27 H 0.60166 0.28055 0.82727 0.0
H28 H 0.70868 0.37855 0.83272 0.0
H29 H 0.62364 0.37638 0.81488 0.0
C30 C 0.61264 0.35571 0.79119 0.0
O31 O 0.63598 0.33641 0.79408 0.0
H32 H 0.58013 0.3374 0.7909 0.0
C33 C 0.68873 0.31964 0.89372 0.0
C34 C 0.7101 0.35006 0.87862 0.0
C35 C 0.64966 0.29411 0.8757 0.0
C36 C 0.63188 0.29967 0.84168 0.0
C37 C 0.65308 0.3304 0.82639 0.0
C38 C 0.69236 0.35515 0.84471 0.0
H39 H 0.89981 0.7004 0.41417 0.0
H40 H 0.89062 0.61041 0.34787 0.0
H41 H 0.97772 0.71551 0.33783 0.0
H42 H 0.93221 0.66475 0.26801 0.0
C43 C 0.93279 0.64016 0.27773 0.0
O44 O 0.94993 0.64716 0.31456 0.0
H45 H 0.90019 0.62009 0.27306 0.0
C46 C 0.90955 0.68967 0.39308 0.0
C47 C 0.94035 0.71292 0.37702 0.0
C48 C 0.89126 0.65283 0.38313 0.0
C49 C 0.90409 0.63877 0.35571 0.0
C50 C 0.93549 0.66124 0.33921 0.0
C51 C 0.95355 0.69828 0.35022 0.0
H52 H 0.70642 0.76041 0.7781 0.0
H53 H 0.67349 0.70638 0.8695 0.0
H54 H 0.73908 0.67469 0.80335 0.0
H55 H 0.66702 0.61904 0.82437 0.0
C56 C 0.68255 0.62744 0.85337 0.0
O57 O 0.70702 0.66341 0.86015 0.0
H58 H 0.6581 0.62052 0.86919 0.0
C59 C 0.70521 0.73949 0.7944 0.0
C60 C 0.72429 0.71764 0.78651 0.0
C61 C 0.68728 0.7363 0.82461 0.0
C62 C 0.68598 0.70898 0.84548 0.0
C63 C 0.70421 0.68668 0.83746 0.0
C64 C 0.72374 0.69128 0.80839 0.0
H65 H 0.83007 0.1492 0.35243 0.0
H66 H 0.77024 0.21469 0.37722 0.0
H67 H 0.85569 0.19984 0.46082 0.0
H68 H 0.7902 0.21967 0.49277 0.0
C69 C 0.776 0.21915 0.46422 0.0
O70 O 0.80683 0.23143 0.44507 0.0
H71 H 0.754 0.19111 0.45404 0.0
C72 C 0.82546 0.16615 0.37185 0.0
C73 C 0.84661 0.17243 0.40809 0.0
C74 C 0.79762 0.18101 0.36055 0.0
C75 C 0.79155 0.20297 0.38554 0.0
C76 C 0.81284 0.20997 0.42142 0.0
C77 C 0.84023 0.19478 0.4327 0.0
H78 H 0.42581 0.7488 0.17607 0.0
H79 H 0.4361 0.67461 0.24831 0.0
H80 H 0.52797 0.78213 0.26723 0.0
H81 H 0.56105 0.72621 0.29458 0.0
C82 C 0.52963 0.70487 0.29277 0.0
O83 O 0.50232 0.72023 0.2921 0.0
H84 H 0.5213 0.6866 0.26757 0.0
C85 C 0.44212 0.74261 0.19958 0.0
C86 C 0.47877 0.76955 0.22005 0.0
C87 C 0.42643 0.70801 0.20892 0.0
C88 C 0.44739 0.70092 0.24025 0.0
C89 C 0.48374 0.72752 0.26128 0.0
C90 C 0.49983 0.76168 0.25088 0.0
H91 H 0.14962 0.31155 0.78077 0.0
H92 H 0.23215 0.41992 0.77448 0.0
H93 H 0.22629 0.33633 0.70233 0.0
H94 H 0.30949 0.39437 0.74419 0.0
C95 C 0.30247 0.41545 0.73168 0.0
O96 O 0.26015 0.40402 0.7205 0.0
H97 H 0.31464 0.4386 0.75283 0.0
C98 C 0.17275 0.33074 0.76885 0.0
C99 C 0.18659 0.31878 0.74045 0.0
C100 C 0.18853 0.36751 0.78159 0.0
C101 C 0.21877 0.39183 0.76528 0.0
C102 C 0.23239 0.38036 0.73705 0.0
C103 C 0.2161 0.34428 0.72482 0.0
Pr104 Pr 0.03352 0.99912 0.56991 0.0
Pr105 Pr 0.10359 0.03523 0.54166 0.0
C106 C 0.96896 0.95572 0.59589 0.0
C107 C 0.94851 0.92037 0.60671 0.0
C108 C 0.97063 0.90517 0.62875 0.0
C109 C 0.94955 0.8735 0.64209 0.0
C110 C 0.90611 0.85654 0.63351 0.0
C111 C 0.88437 0.87106 0.60997 0.0
C112 C 0.9054 0.90267 0.59677 0.0
C113 C 0.07286 0.07122 0.60004 0.0
C114 C 0.11718 0.98824 0.60203 0.0
C115 C 0.16907 0.07452 0.51466 0.0
C116 C 0.19682 0.10555 0.50089 0.0
C117 C 0.23826 0.11148 0.50535 0.0
C118 C 0.26466 0.13734 0.48834 0.0
C119 C 0.25009 0.15793 0.46676 0.0
C120 C 0.20905 0.15328 0.46379 0.0
C121 C 0.18239 0.12699 0.48059 0.0
C122 C 0.06316 0.96297 0.51199 0.0
C123 C 1.02064 0.04711 0.50978 0.0
O124 O 0.96734 0.95783 0.56159 0.0
O125 O 1.00404 0.97794 0.61637 0.0
O126 O 0.09165 0.05206 0.5958 0.0
O127 O 0.03348 0.05338 0.58839 0.0
O128 O 0.13622 0.01893 0.59105 0.0
O129 O 0.07663 0.97174 0.59275 0.0
O130 O 0.17068 0.07494 0.54919 0.0
O131 O 0.13265 0.05472 0.49462 0.0
O132 O 0.04519 0.98282 0.51575 0.0
O133 O 0.10249 0.98009 0.52422 0.0
O134 O 1.0011 0.0168 0.52136 0.0
O135 O 0.06127 0.06313 0.51861 0.0
H136 H 1.00401 0.91825 0.63652 0.0
H137 H 0.96717 0.86276 0.65985 0.0
H138 H 0.85094 0.85905 0.60322 0.0
H139 H 0.88781 0.91403 0.57985 0.0
H140 H 0.24985 0.09509 0.52088 0.0
H141 H 0.29627 0.14069 0.49134 0.0
H142 H 0.19713 0.1688 0.44716 0.0
H143 H 0.15039 0.12266 0.4768 0.0
Pr144 Pr 0.52779 0.03646 0.06187 0.0
Pr145 Pr 0.59961 0.03278 0.04189 0.0
C146 C 0.47228 0.04302 0.0966 0.0
C147 C 0.47379 0.07041 0.12323 0.0
C148 C 0.43974 0.07846 0.12146 0.0
C149 C 0.44258 0.10699 0.14421 0.0
C150 C 0.47972 0.12821 0.16893 0.0
C151 C 0.51335 0.11928 0.17119 0.0
C152 C 0.51032 0.09063 0.14871 0.0
C153 C 0.55667 0.08152 1.01086 0.0
C154 C 0.62245 0.0875 0.1113 0.0
C155 C 0.65467 0.02592 1.0072 0.0
C156 C 0.65485 0.99668 0.9841 0.0
C157 C 0.68182 0.98134 0.99659 0.0
C158 C 0.68013 0.95177 0.97663 0.0
C159 C 0.65175 0.9372 0.94356 0.0
C160 C 0.6255 0.95308 0.93053 0.0
C161 C 0.62686 0.98245 0.95069 0.0
C162 C 0.57035 0.98724 0.09245 0.0
C163 C 0.50617 0.98028 0.99261 0.0
O164 O 0.49386 0.0254 0.10748 0.0
O165 O 0.4755 0.05212 0.06454 0.0
O166 O 0.57947 0.07839 0.03856 0.0
O167 O 0.51811 0.06085 1.00874 0.0
O168 O 0.63738 0.08233 0.08382 0.0
O169 O 0.58273 0.07042 0.11085 0.0
O170 O 0.62987 0.04009 0.99406 0.0
O171 O 0.65532 0.02164 0.04105 0.0
O172 O 0.54771 0.9908 0.06492 0.0
O173 O 0.60901 1.0074 0.09437 0.0
O174 O 0.49016 0.98708 1.01872 0.0
O175 O 0.54599 0.99693 0.99371 0.0
H176 H 0.41125 0.06317 0.10195 0.0
H177 H 0.41583 0.11268 0.14206 0.0
H178 H 0.54267 0.13518 0.18938 0.0
H179 H 0.53693 0.08486 0.15061 0.0
H180 H 0.70374 0.99185 1.02216 0.0
H181 H 0.70112 0.94032 0.98702 0.0
H182 H 0.60325 0.94225 0.90517 0.0
H183 H 0.60547 0.99352 0.94037 0.0
Pr184 Pr 0.59492 0.5611 0.56079 0.0
Pr185 Pr 0.55919 0.49041 0.51225 0.0
C186 C 0.60774 0.62464 0.59356 0.0
C187 C 0.58237 0.64223 0.60301 0.0
C188 C 0.60017 0.67231 0.62881 0.0
C189 C 0.577 0.69045 0.63645 0.0
C190 C 0.5355 0.67889 0.61832 0.0
C191 C 0.5176 0.64819 0.59296 0.0
C192 C 0.54077 0.63003 0.58544 0.0
C193 C 0.61565 0.50971 0.59262 0.0
C194 C 0.49926 0.50088 0.56204 0.0
C195 C 0.54481 0.42704 0.47802 0.0
C196 C 0.57019 0.40846 0.47175 0.0
C197 C 0.55255 0.37616 0.44917 0.0
C198 C 0.57594 0.35716 0.44536 0.0
C199 C 0.61732 0.37015 0.46423 0.0
C200 C 0.63511 0.40314 0.48595 0.0
C201 C 0.61177 0.42208 0.48969 0.0
C202 C 0.53834 0.54207 0.48116 0.0
C203 C 0.65606 0.5494 0.51309 0.0
O204 O 0.60556 0.6182 0.5592 0.0
O205 O 0.60809 0.59857 0.61126 0.0
O206 O 0.58102 0.50446 0.57352 0.0
O207 O 0.64108 0.54315 0.59687 0.0
O208 O 0.50616 0.47716 0.54367 0.0
O209 O 0.52527 0.53485 0.56693 0.0
O210 O 0.54232 0.4319 0.51145 0.0
O211 O 0.54982 0.45488 0.46152 0.0
O212 O 0.5731 0.54697 0.49959 0.0
O213 O 0.51267 0.50875 0.4771 0.0
O214 O 0.64907 0.57354 0.53072 0.0
O215 O 0.62954 0.51558 0.50804 0.0
H216 H 0.63219 0.68206 0.64276 0.0
H217 H 0.59167 0.71357 0.65657 0.0
H218 H 0.48597 0.63868 0.57813 0.0
H219 H 0.52642 0.60683 0.56538 0.0
H220 H 0.52046 0.36525 0.43513 0.0
H221 H 0.56121 0.33177 0.42859 0.0
H222 H 0.66706 0.41421 0.50034 0.0
H223 H 0.62595 0.44705 0.50716 0.0
Pr224 Pr 0.06778 0.52894 1.01486 0.0
Pr225 Pr 0.07771 0.47757 0.06549 0.0
C226 C 0.04034 0.56742 0.97142 0.0
C227 C 1.00087 0.56998 0.96096 0.0
C228 C 0.98962 0.5783 0.92661 0.0
C229 C 0.95107 0.57866 0.91537 0.0
C230 C 0.92324 0.57082 0.93842 0.0
C231 C 0.93465 0.56251 0.9729 0.0
C232 C 0.97308 0.56184 0.984 0.0
C233 C 0.14865 0.5502 0.05363 0.0
C234 C 0.04173 0.53143 0.09552 0.0
C235 C 0.10408 0.43867 0.10928 0.0
C236 C 0.13938 0.4296 0.11788 0.0
C237 C 0.15211 0.42446 0.15328 0.0
C238 C 0.18732 0.41842 0.1631 0.0
C239 C 0.2105 0.41735 0.13764 0.0
C240 C 0.19719 0.42174 0.10187 0.0
C241 C 0.16198 0.42809 0.09209 0.0
C242 C 0.9968 0.4577 0.02775 0.0
C243 C 0.10001 0.47283 0.98371 0.0
O244 O 0.04 0.53741 0.95996 0.0
O245 O 0.06074 0.57941 1.00471 0.0
O246 O 0.11668 0.5368 0.06608 0.0
O247 O 0.13978 0.55496 1.02026 0.0
O248 O 0.06188 0.51206 0.10554 0.0
O249 O 0.03497 0.53717 0.0614 0.0
O250 O 0.11202 0.47168 0.11867 0.0
O251 O 0.07877 0.42532 0.0779 0.0
O252 O 1.02853 0.47039 1.01494 0.0
O253 O 1.00564 0.45184 0.06075 0.0
O254 O 0.07977 0.49224 0.97439 0.0
O255 O 0.10854 0.46785 1.01791 0.0
H256 H 1.01053 0.58424 0.90836 0.0
H257 H 0.94321 0.5855 0.8888 0.0
H258 H 0.91363 0.55604 0.99105 0.0
H259 H 0.98091 0.55465 1.01039 0.0
H260 H 0.13511 0.42566 0.17353 0.0
H261 H 0.19645 0.41457 0.19072 0.0
H262 H 0.21458 0.42119 0.08176 0.0
H263 H 0.15282 0.43236 0.06465 0.0
H264 H 0.43482 0.33218 0.38862 0.0
H265 H 0.36727 0.25338 0.29577 0.0
H266 H 0.39193 0.29321 0.42597 0.0
H267 H 0.32478 0.21431 0.33311 0.0
H268 H 0.29335 0.14248 0.42311 0.0
H269 H 0.33801 0.18182 0.38751 0.0
H270 H 0.31239 0.26734 0.42669 0.0
H271 H 0.26719 0.22771 0.46226 0.0
C272 C 0.41114 0.30634 0.37639 0.0
C273 C 0.40428 0.29561 0.33943 0.0
C274 C 0.38645 0.28428 0.39761 0.0
C275 C 0.35506 0.25091 0.3823 0.0
C276 C 0.3489 0.23988 0.34553 0.0
C277 C 0.37308 0.26217 0.32421 0.0
C278 C 0.29743 0.16974 0.42423 0.0
C279 C 0.27703 0.18219 0.44546 0.0
C280 C 0.32275 0.19212 0.40375 0.0
C281 C 0.32862 0.22753 0.40449 0.0
C282 C 0.30853 0.24016 0.42594 0.0
C283 C 0.28256 0.21754 0.44602 0.0
H284 H 0.31168 0.85047 0.80703 0.0
H285 H 0.42692 0.88835 0.77218 0.0
H286 H 0.34906 0.87352 0.86925 0.0
H287 H 0.46444 0.91308 0.83373 0.0
H288 H 0.52796 0.94136 0.94872 0.0
H289 H 0.48725 0.90482 0.89196 0.0
H290 H 0.38461 0.92763 0.906 0.0
H291 H 0.42487 0.96248 0.96385 0.0
C292 C 0.34509 0.8636 0.81286 0.0
C293 C 0.36651 0.86766 0.78496 0.0
C294 C 0.36656 0.87709 0.84842 0.0
C295 C 0.4099 0.89555 0.85675 0.0
C296 C 0.43121 0.89854 0.82873 0.0
C297 C 0.40976 0.88449 0.79331 0.0
C298 C 0.49644 0.93805 0.93986 0.0
C299 C 0.4796 0.95491 0.96052 0.0
C300 C 0.47314 0.91732 0.90714 0.0
C301 C 0.4327 0.91359 0.89385 0.0
C302 C 0.41538 0.9294 0.91538 0.0
C303 C 0.43849 0.94957 0.94854 0.0
H304 H 0.68196 0.39773 0.76727 0.0
H305 H 0.54929 0.35725 0.74109 0.0
H306 H 0.68605 0.43239 0.71653 0.0
H307 H 0.55304 0.39241 0.69135 0.0
H308 H 0.56506 0.43971 0.58883 0.0
H309 H 0.5669 0.39982 0.63334 0.0
H310 H 0.67731 0.48341 0.69868 0.0
H311 H 0.67614 0.52285 0.65327 0.0
C312 C 0.65367 0.39588 0.75029 0.0
C313 C 0.61527 0.3742 0.75769 0.0
C314 C 0.65595 0.41603 0.72145 0.0
C315 C 0.61987 0.41526 0.69951 0.0
C316 C 0.58151 0.39323 0.70693 0.0
C317 C 0.57927 0.37308 0.7356 0.0
C318 C 0.59012 0.44938 0.61242 0.0
C319 C 0.62031 0.48452 0.61759 0.0
C320 C 0.59099 0.42658 0.6382 0.0
C321 C 0.62188 0.43837 0.6701 0.0
C322 C 0.65318 0.47315 0.67444 0.0
C323 C 0.65247 0.49589 0.64844 0.0
H324 H 0.94004 0.5764 0.27721 0.0
H325 H 0.97506 0.67117 0.22572 0.0
H326 H 0.96635 0.55026 0.23448 0.0
H327 H 1.00174 0.64558 0.18336 0.0
H328 H 1.00262 0.57608 0.08693 0.0
H329 H 0.97962 0.60239 0.13197 0.0
H330 H 1.02419 0.54972 0.21283 0.0
H331 H 0.04671 0.5231 0.16764 0.0
C332 C 0.95424 0.59201 0.2573 0.0
C333 C 0.95564 0.62611 0.25536 0.0
C334 C 0.9693 0.57697 0.23255 0.0
C335 C 0.98604 0.5954 0.20473 0.0
C336 C 0.9885 0.62998 0.20364 0.0
C337 C 0.97363 0.64499 0.22842 0.0
C338 C 1.00752 0.56998 0.11427 0.0
C339 C 1.02671 0.54724 0.12324 0.0
C340 C 0.99452 0.5854 0.14041 0.0
C341 C 0.99999 0.57862 0.17662 0.0
C342 C 1.01886 0.55558 0.18545 0.0
C343 C 0.03206 0.54031 0.15934 0.0
H344 H 0.54267 0.30853 0.33185 0.0
H345 H 0.53982 0.34755 0.22885 0.0
H346 H 0.51564 0.24795 0.30174 0.0
H347 H 0.51489 0.28763 0.19858 0.0
H348 H 0.44727 0.17531 0.14892 0.0
H349 H 0.46016 0.23104 0.18237 0.0
H350 H 0.53857 0.21211 0.27076 0.0
H351 H 0.52324 0.15521 0.2384 0.0
C352 C 0.53627 0.30398 0.30273 0.0
C353 C 0.5438 0.33255 0.2826 0.0
C354 C 0.52104 0.2694 0.28544 0.0
C355 C 0.51335 0.26275 0.24764 0.0
C356 C 0.51985 0.29148 0.22763 0.0
C357 C 0.53459 0.32592 0.24492 0.0
C358 C 0.46638 0.18251 0.17587 0.0
C359 C 0.48447 0.16073 0.19074 0.0
C360 C 0.47432 0.21485 0.19489 0.0
C361 C 0.50094 0.22651 0.22914 0.0
C362 C 0.5177 0.20406 0.2446 0.0
C363 C 0.50939 0.17155 0.22574 0.0
H364 H 0.22251 0.83689 0.64647 0.0
H365 H 0.30715 0.93192 0.71775 0.0
H366 H 0.17832 0.86642 0.62524 0.0
H367 H 0.26236 0.96057 0.69802 0.0
H368 H 0.20092 0.01529 0.62365 0.0
H369 H 0.24252 0.98462 0.64631 0.0
H370 H 0.1318 0.88963 0.64334 0.0
H371 H 0.08981 0.92031 0.61959 0.0
C372 C 0.23165 0.86399 0.65766 0.0
C373 C 0.26833 0.8819 0.68396 0.0
C374 C 0.20606 0.88078 0.64585 0.0
C375 C 0.21669 0.91591 0.65995 0.0
C376 C 0.25333 0.93367 0.68624 0.0
C377 C 0.27883 0.91701 0.69792 0.0
C378 C 0.18528 0.98797 0.62812 0.0
C379 C 0.14195 0.97032 0.61982 0.0
C380 C 0.20924 0.97035 0.64128 0.0
C381 C 0.1906 0.93458 0.64668 0.0
C382 C 0.1472 0.91704 0.63907 0.0
C383 C 0.12312 0.93474 0.62583 0.0
H384 H 0.78183 0.37332 0.85487 0.0
H385 H 0.73188 0.38258 0.94721 0.0
H386 H 0.85173 0.40489 0.89141 0.0
H387 H 0.80158 0.41534 0.98365 0.0
H388 H 0.92391 0.41827 0.04609 0.0
H389 H 0.8546 0.39882 1.00924 0.0
H390 H 0.90573 0.45751 0.92544 0.0
H391 H 0.97509 0.47546 0.96181 0.0
C392 C 0.78595 0.38315 0.88274 0.0
C393 C 0.75171 0.37533 0.8984 0.0
C394 C 0.82595 0.40128 0.90374 0.0
C395 C 0.83236 0.41219 0.94071 0.0
C396 C 0.79784 0.40653 0.95555 0.0
C397 C 0.75795 0.38807 0.93468 0.0
C398 C 0.92022 0.42709 1.01987 0.0
C399 C 0.95477 0.44797 1.0066 0.0
C400 C 0.88049 0.41626 0.99881 0.0
C401 C 0.87447 0.42651 0.96422 0.0
C402 C 0.90919 0.44858 0.95162 0.0
C403 C 0.94892 0.45902 0.97252 0.0
H404 H 0.81328 0.59952 0.35502 0.0
H405 H 0.89632 0.65588 0.45567 0.0
H406 H 0.75763 0.57157 0.38726 0.0
H407 H 0.84126 0.62836 0.48764 0.0
H408 H 0.72191 0.61469 0.52336 0.0
H409 H 0.77886 0.63506 0.49236 0.0
H410 H 0.73084 0.53111 0.43241 0.0
H411 H 0.67352 0.51059 0.46354 0.0
C412 C 0.81995 0.60534 0.38405 0.0
C413 C 0.85924 0.63032 0.4026 0.0
C414 C 0.78799 0.58942 0.40259 0.0
C415 C 0.79455 0.59818 0.44012 0.0
C416 C 0.83456 0.62156 0.45873 0.0
C417 C 0.86631 0.63724 0.44034 0.0
C418 C 0.72357 0.59596 0.50387 0.0
C419 C 0.69294 0.56088 0.49623 0.0
C420 C 0.75646 0.60766 0.48607 0.0
C421 C 0.75975 0.5848 0.45974 0.0
C422 C 0.7293 0.5496 0.45225 0.0
C423 C 0.69655 0.53775 0.4704 0.0
H424 H 0.44269 0.42091 0.25101 0.0
H425 H 0.35873 0.31145 0.21427 0.0
H426 H 0.39601 0.43959 0.21226 0.0
H427 H 0.31129 0.33008 0.17668 0.0
H428 H 0.23505 0.37259 0.10393 0.0
H429 H 0.29451 0.35988 0.12652 0.0
H430 H 0.33033 0.43708 0.21994 0.0
H431 H 0.27195 0.45026 0.19698 0.0
C432 C 0.41479 0.40083 0.234 0.0
C433 C 0.40408 0.36469 0.23615 0.0
C434 C 0.3878 0.41154 0.21208 0.0
C435 C 0.34955 0.38635 0.19192 0.0
C436 C 0.34049 0.35021 0.19178 0.0
C437 C 0.3675 0.33951 0.21363 0.0
C438 C 0.25621 0.38728 0.1289 0.0
C439 C 0.24863 0.41208 0.14895 0.0
C440 C 0.29006 0.37988 0.14194 0.0
C441 C 0.31712 0.39738 0.17509 0.0
C442 C 0.31049 0.42339 0.19412 0.0
C443 C 0.27669 0.43063 0.18122 0.0
H444 H 0.64519 0.29035 0.94633 0.0
H445 H 0.60835 0.22447 0.84439 0.0
H446 H 0.62307 0.23783 0.97696 0.0
H447 H 0.58499 0.1715 0.87527 0.0
H448 H 0.51302 0.08851 0.94786 0.0
H449 H 0.53237 0.13867 0.91305 0.0
H450 H 0.64953 0.19078 0.98866 0.0
H451 H 0.63033 0.14048 1.02328 0.0
C452 C 0.63211 0.26461 0.93037 0.0
C453 C 0.62922 0.26172 0.89289 0.0
C454 C 0.61954 0.23449 0.94801 0.0
C455 C 0.60307 0.20053 0.92867 0.0
C456 C 0.59775 0.19737 0.89093 0.0
C457 C 0.61085 0.22768 0.87321 0.0
C458 C 0.54307 0.11057 0.95685 0.0
C459 C 0.57009 0.11067 0.98842 0.0
C460 C 0.55416 0.13921 0.93683 0.0
C461 C 0.59229 0.16883 0.94826 0.0
C462 C 0.61969 0.16852 0.97941 0.0
C463 C 0.60884 0.13966 0.99913 0.0
H464 H 0.89994 0.7526 0.39346 0.0
H465 H 1.02212 0.76241 0.39083 0.0
H466 H 0.92887 0.81205 0.42479 0.0
H467 H 0.05138 0.82344 0.42005 0.0
H468 H 0.09625 0.91528 0.51015 0.0
H469 H 0.06751 0.85733 0.47471 0.0
H470 H 0.95919 0.87225 0.42732 0.0
H471 H 0.98748 0.9296 0.46455 0.0
C472 C 0.93315 0.76764 0.39915 0.0
C473 C 0.95859 0.75204 0.39008 0.0
C474 C 0.94989 0.80229 0.41689 0.0
C475 C 0.99285 0.82316 0.42578 0.0
C476 C 1.01825 0.80827 0.41478 0.0
C477 C 1.0014 0.77327 0.39731 0.0
C478 C 0.06619 0.9061 0.49223 0.0
C479 C 0.04417 0.92715 0.49034 0.0
C480 C 0.04975 0.87281 0.47142 0.0
C481 C 1.01083 0.85947 0.4475 0.0
C482 C 0.98888 0.88082 0.44562 0.0
C483 C 1.00515 0.91399 0.46692 0.0
H484 H 0.44878 0.83402 0.68585 0.0
H485 H 0.34898 0.76104 0.60207 0.0
H486 H 0.48733 0.79829 0.68174 0.0
H487 H 0.38749 0.72528 0.59755 0.0
H488 H 0.45358 0.65322 0.62164 0.0
H489 H 0.41383 0.68682 0.63007 0.0
H490 H 0.52295 0.78447 0.63863 0.0
H491 H 0.56257 0.75103 0.62977 0.0
C492 C 0.43515 0.81026 0.66658 0.0
C493 C 0.39624 0.80051 0.64387 0.0
C494 C 0.45724 0.78988 0.66408 0.0
C495 C 0.4407 0.75905 0.63908 0.0
C496 C 0.40107 0.74871 0.61724 0.0
C497 C 0.37909 0.76922 0.61965 0.0
C498 C 0.4691 0.68186 0.6251 0.0
C499 C 0.5114 0.69931 0.62497 0.0
C500 C 0.44627 0.70113 0.62999 0.0
C501 C 0.46515 0.73838 0.63505 0.0
C502 C 0.50752 0.75583 0.63539 0.0
C503 C 0.5303 0.73659 0.63035 0.0
H504 H 0.70332 0.73322 0.71881 0.0
H505 H 0.80164 0.72101 0.79095 0.0
H506 H 0.74926 0.7586 0.67819 0.0
H507 H 0.84716 0.74507 0.74963 0.0
H508 H 0.92409 0.84849 0.70433 0.0
H509 H 0.88014 0.8054 0.73698 0.0
H510 H 0.79127 0.75322 0.63748 0.0
H511 H 0.83553 0.79666 0.60462 0.0
C512 C 0.73448 0.73521 0.72555 0.0
C513 C 0.74903 0.72566 0.75835 0.0
C514 C 0.76072 0.74939 0.70209 0.0
C515 C 0.8021 0.75429 0.7109 0.0
C516 C 0.81566 0.74216 0.74236 0.0
C517 C 0.78941 0.72801 0.76585 0.0
C518 C 0.89584 0.82721 0.68919 0.0
C519 C 0.88312 0.82626 0.65191 0.0
C520 C 0.87054 0.8024 0.70795 0.0
C521 C 0.83194 0.77603 0.68989 0.0
C522 C 0.82049 0.77359 0.65225 0.0
C523 C 0.84584 0.79845 0.63345 0.0
H524 H 0.71437 0.15479 0.33791 0.0
H525 H 0.8268 0.18782 0.29886 0.0
H526 H 0.67398 0.13708 0.27636 0.0
H527 H 0.7868 0.17208 0.23691 0.0
H528 H 0.70143 0.0968 0.13571 0.0
H529 H 0.74491 0.12305 0.19505 0.0
H530 H 0.65215 0.1536 0.22189 0.0
H531 H 0.60792 0.12556 0.16287 0.0
C532 C 0.73038 0.15883 0.31596 0.0
C533 C 0.77358 0.17244 0.32298 0.0
C534 C 0.7073 0.14897 0.28059 0.0
C535 C 0.72695 0.15308 0.25134 0.0
C536 C 0.77042 0.16778 0.25859 0.0
C537 C 0.79344 0.177 0.29403 0.0
C538 C 0.69066 0.10964 0.15412 0.0
C539 C 0.6511 0.10878 0.14488 0.0
C540 C 0.71569 0.12487 0.18824 0.0
C541 C 0.70205 0.14023 0.21373 0.0
C542 C 0.66332 0.14117 0.2035 0.0
C543 C 0.63798 0.12529 0.16958 0.0
H544 H 0.46276 0.65992 0.31813 0.0
H545 H 0.59523 0.70009 0.33635 0.0
H546 H 0.46229 0.62266 0.36618 0.0
H547 H 0.59496 0.66215 0.38327 0.0
H548 H 0.59001 0.61172 0.48461 0.0
H549 H 0.58581 0.65281 0.44223 0.0
H550 H 0.4716 0.57109 0.37986 0.0
H551 H 0.47514 0.53047 0.42335 0.0
C552 C 0.49183 0.66107 0.33275 0.0
C553 C 0.52916 0.68366 0.32416 0.0
C554 C 0.49157 0.63942 0.36003 0.0
C555 C 0.52862 0.63941 0.37901 0.0
C556 C 0.56588 0.66195 0.37007 0.0
C557 C 0.5661 0.68367 0.34301 0.0
C558 C 0.56366 0.60271 0.46216 0.0
C559 C 0.53298 0.56779 0.45731 0.0
C560 C 0.56143 0.62619 0.43756 0.0
C561 C 0.52867 0.61531 0.40712 0.0
C562 C 0.49715 0.58066 0.40303 0.0
C563 C 0.49921 0.55724 0.42791 0.0
H564 H 0.17647 0.42844 0.78802 0.0
H565 H 0.16662 0.33811 0.84335 0.0
H566 H 0.15703 0.45284 0.83661 0.0
H567 H 0.14506 0.36193 0.8917 0.0
H568 H 0.14475 0.43211 0.99023 0.0
H569 H 0.16501 0.40593 0.94255 0.0
H570 H 0.10304 0.44872 0.86346 0.0
H571 H 0.08398 0.47538 0.91081 0.0
C572 C 0.1702 0.41358 0.81055 0.0
C573 C 0.17372 0.38116 0.81134 0.0
C574 C 0.15832 0.42751 0.83853 0.0
C575 C 0.14908 0.40963 0.86866 0.0
C576 C 0.15222 0.37699 0.86943 0.0
C577 C 0.16416 0.36297 0.84127 0.0
C578 C 0.13555 0.43604 0.96267 0.0
C579 C 0.11282 0.45629 0.95481 0.0
C580 C 0.14697 0.42071 0.93508 0.0
C581 C 0.13612 0.42509 0.89859 0.0
C582 C 0.11303 0.44509 0.89094 0.0
C583 C 0.10174 0.46037 0.91838 0.0
H584 H 0.62248 0.72833 0.85678 0.0
H585 H 0.72481 0.8076 0.82134 0.0
H586 H 0.60789 0.77524 0.8829 0.0
H587 H 0.70897 0.85371 0.84593 0.0
H588 H 0.65109 0.92707 0.87214 0.0
H589 H 0.65281 0.87625 0.83917 0.0
H590 H 0.64957 0.82519 0.9356 0.0
H591 H 0.64782 0.87591 0.96849 0.0
C592 C 0.64156 0.75557 0.85416 0.0
C593 C 0.6748 0.764 0.83682 0.0
C594 C 0.63306 0.78236 0.86898 0.0
C595 C 0.65724 0.81803 0.86629 0.0
C596 C 0.68939 0.82639 0.84786 0.0
C597 C 0.69828 0.79978 0.83356 0.0
C598 C 0.65016 0.90474 0.88608 0.0
C599 C 0.64969 0.90547 0.92289 0.0
C600 C 0.65129 0.87579 0.8673 0.0
C601 C 0.65134 0.84686 0.88489 0.0
C602 C 0.64919 0.847 0.92133 0.0
C603 C 0.64862 0.87613 0.94021 0.0
H604 H 0.83364 0.10427 0.38774 0.0
H605 H 0.92139 0.19999 0.45644 0.0
H606 H 0.87723 0.07455 0.40841 0.0
H607 H 0.96421 0.16968 0.47838 0.0
H608 H 0.04944 0.11352 0.48858 0.0
H609 H 1.00882 0.14411 0.4616 0.0
H610 H 0.89651 0.05182 0.46205 0.0
H611 H 0.93686 0.02114 0.48813 0.0
C612 C 0.86239 0.11911 0.40707 0.0
C613 C 0.87395 0.15461 0.42036 0.0
C614 C 0.8872 0.10188 0.41928 0.0
C615 C 0.92422 0.11961 0.44521 0.0
C616 C 0.93613 0.15528 0.45813 0.0
C617 C 0.9113 0.17255 0.44588 0.0
C618 C 1.01608 0.09963 0.4825 0.0
C619 C 0.99646 0.06485 0.49054 0.0
C620 C 0.99278 0.11728 0.46731 0.0
C621 C 0.94934 0.10051 0.45973 0.0
C622 C 0.92985 0.06545 0.46705 0.0
C623 C 0.95307 0.04787 0.48221 0.0
H624 H 0.36478 0.65244 0.23007 0.0
H625 H 0.40078 0.69894 0.13537 0.0
H626 H 0.30074 0.60867 0.19275 0.0
H627 H 0.33513 0.65794 0.09879 0.0
H628 H 0.22206 0.57027 0.0331 0.0
H629 H 0.29117 0.60241 0.0708 0.0
H630 H 0.23757 0.60346 0.16328 0.0
H631 H 0.16927 0.56913 0.12599 0.0
C632 C 0.35922 0.65339 0.20132 0.0
C633 C 0.38798 0.67978 0.18599 0.0
C634 C 0.32197 0.62854 0.17986 0.0
C635 C 0.31202 0.62985 0.14259 0.0
C636 C 0.34144 0.65556 0.12719 0.0
C637 C 0.37902 0.67979 0.14847 0.0
C638 C 0.22538 0.57707 0.06162 0.0
C639 C 0.19049 0.56754 0.07662 0.0
C640 C 0.26494 0.59577 0.08327 0.0
C641 C 0.27036 0.60618 0.12025 0.0
C642 C 0.23513 0.5956 0.13521 0.0
C643 C 0.19575 0.57614 0.11374 0.0
H644 H 0.33707 0.37993 0.69627 0.0
H645 H 0.3182 0.47527 0.69777 0.0
H646 H 0.3802 0.40037 0.65246 0.0
H647 H 0.36039 0.49562 0.65284 0.0
H648 H 0.48131 0.54004 0.61055 0.0
H649 H 0.43009 0.51869 0.64746 0.0
H650 H 0.38564 0.41252 0.59344 0.0
H651 H 0.43779 0.43375 0.55739 0.0
C652 C 0.34156 0.40504 0.68666 0.0
C653 C 0.32444 0.42609 0.70071 0.0
C654 C 0.36622 0.41681 0.66129 0.0
C655 C 0.37435 0.44994 0.64893 0.0
C656 C 0.3557 0.47031 0.66202 0.0
C657 C 0.3311 0.45853 0.68753 0.0
C658 C 0.4603 0.51219 0.60616 0.0
C659 C 0.46407 0.48869 0.58094 0.0
C660 C 0.43062 0.49987 0.62736 0.0
C661 C 0.40358 0.46364 0.62395 0.0
C662 C 0.4063 0.44043 0.59761 0.0
C663 C 0.4361 0.45272 0.57656 0.0
H664 H 0.73052 0.61289 0.81394 0.0
H665 H 0.69787 0.60302 0.91756 0.0
H666 H 0.78487 0.59388 0.8348 0.0
H667 H 0.75114 0.5825 0.93833 0.0
H668 H 0.88785 0.60293 0.97598 0.0
H669 H 0.82452 0.60981 0.95492 0.0
H670 H 0.80362 0.5479 0.85344 0.0
H671 H 0.86776 0.54193 0.87439 0.0
C672 C 0.73427 0.60554 0.84086 0.0
C673 C 0.70986 0.60898 0.86404 0.0
C674 C 0.76528 0.59453 0.85285 0.0
C675 C 0.77256 0.58675 0.88835 0.0
C676 C 0.74679 0.58875 0.91101 0.0
C677 C 0.71598 0.60006 0.89905 0.0
C678 C 0.86937 0.59039 0.94938 0.0
C679 C 0.88285 0.57218 0.9267 0.0
C680 C 0.83293 0.59416 0.93731 0.0
C681 C 0.80894 0.57951 0.90238 0.0
C682 C 0.8217 0.56008 0.88023 0.0
C683 C 0.85837 0.5566 0.89221 0.0
H684 H 0.55665 0.8107 0.21094 0.0
H685 H 0.43583 0.80889 0.20135 0.0
H686 H 0.57883 0.86497 0.18249 0.0
H687 H 0.45798 0.86343 0.17376 0.0
H688 H 0.49367 0.93226 0.08354 0.0
H689 H 0.4729 0.88201 0.11785 0.0
H690 H 0.59505 0.92657 0.18669 0.0
H691 H 0.61595 0.97612 0.15163 0.0
C692 C 0.53516 0.82239 0.20351 0.0
C693 C 0.49444 0.80539 0.20813 0.0
C694 C 0.54779 0.85352 0.18715 0.0
C695 C 0.52006 0.86852 0.17528 0.0
C696 C 0.47993 0.8523 0.18163 0.0
C697 C 0.46729 0.82114 0.19772 0.0
C698 C 0.51594 0.93137 0.10615 0.0
C699 C 0.55647 0.95803 0.11474 0.0
C700 C 0.50403 0.90265 0.12602 0.0
C701 C 0.5323 0.90001 0.15515 0.0
C702 C 0.5726 0.92726 0.16415 0.0
C703 C 0.58452 0.95584 0.14417 0.0
H704 H 0.10671 0.26577 0.72838 0.0
H705 H 0.2296 0.28368 0.71816 0.0
H706 H 0.0802 0.20562 0.69762 0.0
H707 H 0.2031 0.22494 0.68553 0.0
H708 H 0.15009 0.10724 0.6451 0.0
H709 H 0.17689 0.16422 0.68293 0.0
H710 H 0.0633 0.17335 0.64153 0.0
H711 H 0.03634 0.11601 0.60531 0.0
C712 C 0.12821 0.25692 0.71987 0.0
C713 C 0.17035 0.28019 0.72555 0.0
C714 C 0.11289 0.22239 0.70155 0.0
C715 C 0.13913 0.20993 0.68815 0.0
C716 C 0.18152 0.23284 0.69528 0.0
C717 C 0.1968 0.26708 0.71378 0.0
C718 C 0.13094 0.12149 0.64415 0.0
C719 C 0.091 0.10686 0.62214 0.0
C720 C 0.14634 0.15442 0.66582 0.0
C721 C 0.12244 0.174 0.66584 0.0
C722 C 0.08262 0.15923 0.64334 0.0
C723 C 0.06717 0.12626 0.62209 0.0
H724 H 0.69942 0.20543 0.42346 0.0
H725 H 0.80227 0.28551 0.49946 0.0
H726 H 0.66169 0.24239 0.42217 0.0
H727 H 0.76537 0.32316 0.49753 0.0
H728 H 0.66892 0.36017 0.51982 0.0
H729 H 0.70769 0.32481 0.51811 0.0
H730 H 0.65905 0.29604 0.40346 0.0
H731 H 0.61982 0.3314 0.40527 0.0
C732 C 0.71394 0.23108 0.43976 0.0
C733 C 0.75334 0.24243 0.46214 0.0
C734 C 0.69255 0.2524 0.43882 0.0
C735 C 0.71029 0.28569 0.46 0.0
C736 C 0.75036 0.29739 0.48147 0.0
C737 C 0.77163 0.276 0.48248 0.0
C738 C 0.66685 0.34668 0.49413 0.0
C739 C 0.64141 0.34882 0.46264 0.0
C740 C 0.68916 0.32638 0.49314 0.0
C741 C 0.68676 0.30767 0.46062 0.0
C742 C 0.66129 0.30976 0.42906 0.0
C743 C 0.63883 0.33006 0.43007 0.0
loop_
_geom_bond_atom_site_label_1
_geom_bond_atom_site_label_2
_geom_bond_distance
_geom_bond_site_symmetry_2
_ccdc_geom_bond_type
H0 C7 0.929 . S
H1 C10 0.930 . S
H2 C12 0.929 . S
H3 C4 0.969 . S
C4 H3 0.969 . S
C4 O5 1.550 . S
C4 H6 0.973 . S
O5 C4 1.550 . S
O5 C11 1.412 . S
H6 C4 0.973 . S
C7 H0 0.929 . S
C7 C8 1.400 . S
C7 C9 1.364 . S
C8 C7 1.400 . S
C8 C12 1.377 . S
C9 C7 1.364 . S
C9 C10 1.374 . S
C10 H1 0.930 . S
C10 C9 1.374 . S
C10 C11 1.383 . S
C11 O5 1.412 . S
C11 C10 1.383 . S
C11 C12 1.394 . S
C12 H2 0.929 . S
C12 C8 1.377 . S
C12 C11 1.394 . S
H13 C20 0.929 . S
H14 C23 0.930 . S
H15 C25 0.929 . S
H16 C17 0.969 . S
C17 H16 0.969 . S
C17 O18 1.550 . S
C17 H19 0.973 . S
O18 C17 1.550 . S
O18 C24 1.412 . S
H19 C17 0.973 . S
C20 H13 0.929 . S
C20 C21 1.400 . S
C20 C22 1.364 . S
C21 C20 1.400 . S
C21 C25 1.377 . S
C22 C20 1.364 . S
C22 C23 1.374 . S
C23 H14 0.930 . S
C23 C22 1.374 . S
C23 C24 1.383 . S
C24 O18 1.412 . S
C24 C23 1.383 . S
C24 C25 1.394 . S
C25 H15 0.929 . S
C25 C21 1.377 . S
C25 C24 1.394 . S
H26 C33 0.929 . S
H27 C36 0.930 . S
H28 C38 0.929 . S
H29 C30 0.969 . S
C30 H29 0.969 . S
C30 O31 1.550 . S
C30 H32 0.973 . S
O31 C30 1.550 . S
O31 C37 1.412 . S
H32 C30 0.973 . S
C33 H26 0.929 . S
C33 C34 1.400 . S
C33 C35 1.364 . S
C34 C33 1.400 . S
C34 C38 1.377 . S
C35 C33 1.364 . S
C35 C36 1.374 . S
C36 H27 0.930 . S
C36 C35 1.374 . S
C36 C37 1.383 . S
C37 O31 1.412 . S
C37 C36 1.383 . S
C37 C38 1.394 . S
C38 H28 0.929 . S
C38 C34 1.377 . S
C38 C37 1.394 . S
H39 C46 0.929 . S
H40 C49 0.930 . S
H41 C51 0.929 . S
H42 C43 0.969 . S
C43 H42 0.969 . S
C43 O44 1.550 . S
C43 H45 0.973 . S
O44 C43 1.550 . S
O44 C50 1.412 . S
H45 C43 0.973 . S
C46 H39 0.929 . S
C46 C47 1.400 . S
C46 C48 1.364 . S
C47 C46 1.400 . S
C47 C51 1.377 . S
C48 C46 1.364 . S
C48 C49 1.374 . S
C49 H40 0.930 . S
C49 C48 1.374 . S
C49 C50 1.383 . S
C50 O44 1.412 . S
C50 C49 1.383 . S
C50 C51 1.394 . S
C51 H41 0.929 . S
C51 C47 1.377 . S
C51 C50 1.394 . S
H52 C59 0.929 . S
H53 C62 0.930 . S
H54 C64 0.929 . S
H55 C56 0.969 . S
C56 H55 0.969 . S
C56 O57 1.550 . S
C56 H58 0.973 . S
O57 C56 1.550 . S
O57 C63 1.412 . S
H58 C56 0.973 . S
C59 H52 0.929 . S
C59 C60 1.400 . S
C59 C61 1.364 . S
C60 C59 1.400 . S
C60 C64 1.377 . S
C61 C59 1.364 . S
C61 C62 1.374 . S
C62 H53 0.930 . S
C62 C61 1.374 . S
C62 C63 1.383 . S
C63 O57 1.412 . S
C63 C62 1.383 . S
C63 C64 1.394 . S
C64 H54 0.929 . S
C64 C60 1.377 . S
C64 C63 1.394 . S
H65 C72 0.929 . S
H66 C75 0.930 . S
H67 C77 0.929 . S
H68 C69 0.969 . S
C69 H68 0.969 . S
C69 O70 1.550 . S
C69 H71 0.973 . S
O70 C69 1.550 . S
O70 C76 1.412 . S
H71 C69 0.973 . S
C72 H65 0.929 . S
C72 C73 1.400 . S
C72 C74 1.364 . S
C73 C72 1.400 . S
C73 C77 1.377 . S
C74 C72 1.364 . S
C74 C75 1.374 . S
C75 H66 0.930 . S
C75 C74 1.374 . S
C75 C76 1.383 . S
C76 O70 1.412 . S
C76 C75 1.383 . S
C76 C77 1.394 . S
C77 H67 0.929 . S
C77 C73 1.377 . S
C77 C76 1.394 . S
H78 C85 0.929 . S
H79 C88 0.930 . S
H80 C90 0.929 . S
H81 C82 0.969 . S
C82 H81 0.969 . S
C82 O83 1.550 . S
C82 H84 0.973 . S
O83 C82 1.550 . S
O83 C89 1.412 . S
H84 C82 0.973 . S
C85 H78 0.929 . S
C85 C86 1.400 . S
C85 C87 1.364 . S
C86 C85 1.400 . S
C86 C90 1.377 . S
C87 C85 1.364 . S
C87 C88 1.374 . S
C88 H79 0.930 . S
C88 C87 1.374 . S
C88 C89 1.383 . S
C89 O83 1.412 . S
C89 C88 1.383 . S
C89 C90 1.394 . S
C90 H80 0.929 . S
C90 C86 1.377 . S
C90 C89 1.394 . S
H91 C98 0.929 . S
H92 C101 0.930 . S
H93 C103 0.929 . S
H94 C95 0.969 . S
C95 H94 0.969 . S
C95 O96 1.550 . S
C95 H97 0.973 . S
O96 C95 1.550 . S
O96 C102 1.412 . S
H97 C95 0.973 . S
C98 H91 0.929 . S
C98 C99 1.400 . S
C98 C100 1.364 . S
C99 C98 1.400 . S
C99 C103 1.377 . S
C100 C98 1.364 . S
C100 C101 1.374 . S
C101 H92 0.930 . S
C101 C100 1.374 . S
C101 C102 1.383 . S
C102 O96 1.412 . S
C102 C101 1.383 . S
C102 C103 1.394 . S
C103 H93 0.929 . S
C103 C99 1.377 . S
C103 C102 1.394 . S
Pr104 C106 2.880 1_545 S
Pr104 O124 2.562 1_545 S
Pr104 O125 2.490 1_545 S
Pr104 O126 2.695 1_655 S
Pr104 O127 2.512 1_655 S
Pr104 O129 2.437 1_645 S
Pr104 O132 2.436 1_545 S
Pr104 O134 2.438 . S
Pr105 C115 2.880 . S
Pr105 O126 2.436 . S
Pr105 O128 2.438 1_545 S
Pr105 O130 2.562 . S
Pr105 O131 2.490 . S
Pr105 O132 2.695 1_445 S
Pr105 O133 2.512 1_545 S
Pr105 O135 2.437 . S
C106 Pr104 2.880 1_565 S
C106 C107 1.491 . S
C106 O124 1.254 . S
C106 O125 1.225 . S
C107 C106 1.491 . S
C107 C108 1.392 . S
C107 C112 1.356 . S
C108 C107 1.392 . S
C108 C109 1.368 . S
C108 H136 0.929 . S
C109 C108 1.368 . S
C109 C110 1.386 . S
C109 H137 0.929 . S
C110 C109 1.386 . S
C110 C111 1.373 . S
C111 C110 1.373 . S
C111 C112 1.409 . S
C111 H138 0.931 . S
C112 C107 1.356 . S
C112 C111 1.409 . S
C112 H139 0.930 . S
C113 O126 1.270 . S
C113 O127 1.248 . S
C114 O128 1.267 . S
C114 O129 1.278 . S
C115 Pr105 2.880 . S
C115 C116 1.491 . S
C115 O130 1.254 . S
C115 O131 1.225 . S
C116 C115 1.491 . S
C116 C117 1.392 . S
C116 C121 1.356 . S
C117 C116 1.392 . S
C117 C118 1.368 . S
C117 H140 0.929 . S
C118 C117 1.368 . S
C118 C119 1.386 . S
C118 H141 0.929 . S
C119 C118 1.386 . S
C119 C120 1.373 . S
C120 C119 1.373 . S
C120 C121 1.409 . S
C120 H142 0.931 . S
C121 C116 1.356 . S
C121 C120 1.409 . S
C121 H143 0.930 . S
C122 O132 1.270 . S
C122 O133 1.248 1_655 S
C123 O134 1.267 . S
C123 O135 1.278 1_655 S
O124 Pr104 2.562 1_565 S
O124 C106 1.254 . S
O125 Pr104 2.490 1_565 S
O125 C106 1.225 . S
O126 Pr104 2.695 1_455 S
O126 Pr105 2.436 . S
O126 C113 1.270 . S
O127 Pr104 2.512 1_455 S
O127 C113 1.248 . S
O128 Pr105 2.438 1_565 S
O128 C114 1.267 . S
O129 Pr104 2.437 1_465 S
O129 C114 1.278 . S
O130 Pr105 2.562 . S
O130 C115 1.254 . S
O131 Pr105 2.490 . S
O131 C115 1.225 . S
O132 Pr104 2.436 1_565 S
O132 Pr105 2.695 1_665 S
O132 C122 1.270 . S
O133 Pr105 2.512 1_565 S
O133 C122 1.248 1_455 S
O134 Pr104 2.438 . S
O134 C123 1.267 . S
O135 Pr105 2.437 . S
O135 C123 1.278 1_455 S
H136 C108 0.929 . S
H137 C109 0.929 . S
H138 C111 0.931 . S
H139 C112 0.930 . S
H140 C117 0.929 . S
H141 C118 0.929 . S
H142 C120 0.931 . S
H143 C121 0.930 . S
Pr144 C146 2.880 . S
Pr144 O164 2.562 . S
Pr144 O165 2.490 . S
Pr144 O166 2.695 1_554 S
Pr144 O167 2.512 1_554 S
Pr144 O169 2.437 . S
Pr144 O172 2.436 1_545 S
Pr144 O174 2.438 1_544 S
Pr145 C155 2.880 1_554 S
Pr145 O166 2.436 1_564 S
Pr145 O168 2.438 1_565 S
Pr145 O170 2.562 1_554 S
Pr145 O171 2.490 1_554 S
Pr145 O172 2.695 . S
Pr145 O173 2.512 . S
Pr145 O175 2.437 1_554 S
C146 Pr144 2.880 . S
C146 C147 1.491 . S
C146 O164 1.254 . S
C146 O165 1.225 . S
C147 C146 1.491 . S
C147 C148 1.392 . S
C147 C152 1.356 . S
C148 C147 1.392 . S
C148 C149 1.368 . S
C148 H176 0.929 . S
C149 C148 1.368 . S
C149 C150 1.386 . S
C149 H177 0.929 . S
C150 C149 1.386 . S
C150 C151 1.373 . S
C151 C150 1.373 . S
C151 C152 1.409 . S
C151 H178 0.931 . S
C152 C147 1.356 . S
C152 C151 1.409 . S
C152 H179 0.930 . S
C153 O166 1.270 . S
C153 O167 1.248 . S
C154 O168 1.267 . S
C154 O169 1.278 . S
C155 Pr145 2.880 1_556 S
C155 C156 1.491 . S
C155 O170 1.254 . S
C155 O171 1.225 . S
C156 C155 1.491 . S
C156 C157 1.392 . S
C156 C161 1.356 . S
C157 C156 1.392 . S
C157 C158 1.368 . S
C157 H180 0.929 . S
C158 C157 1.368 . S
C158 C159 1.386 . S
C158 H181 0.929 . S
C159 C158 1.386 . S
C159 C160 1.373 . S
C160 C159 1.373 . S
C160 C161 1.409 . S
C160 H182 0.931 . S
C161 C156 1.356 . S
C161 C160 1.409 . S
C161 H183 0.930 . S
C162 O172 1.270 . S
C162 O173 1.248 . S
C163 O174 1.267 . S
C163 O175 1.278 . S
O164 Pr144 2.562 . S
O164 C146 1.254 . S
O165 Pr144 2.490 . S
O165 C146 1.225 . S
O166 Pr144 2.695 1_556 S
O166 Pr145 2.436 1_546 S
O166 C153 1.270 . S
O167 Pr144 2.512 1_556 S
O167 C153 1.248 . S
O168 Pr145 2.438 1_545 S
O168 C154 1.267 . S
O169 Pr144 2.437 . S
O169 C154 1.278 . S
O170 Pr145 2.562 1_556 S
O170 C155 1.254 . S
O171 Pr145 2.490 1_556 S
O171 C155 1.225 . S
O172 Pr144 2.436 1_565 S
O172 Pr145 2.695 . S
O172 C162 1.270 . S
O173 Pr145 2.512 . S
O173 C162 1.248 . S
O174 Pr144 2.438 1_566 S
O174 C163 1.267 . S
O175 Pr145 2.437 1_556 S
O175 C163 1.278 . S
H176 C148 0.929 . S
H177 C149 0.929 . S
H178 C151 0.931 . S
H179 C152 0.930 . S
H180 C157 0.929 . S
H181 C158 0.929 . S
H182 C160 0.931 . S
H183 C161 0.930 . S
Pr184 C186 2.880 . S
Pr184 O204 2.562 . S
Pr184 O205 2.490 . S
Pr184 O206 2.695 . S
Pr184 O207 2.512 . S
Pr184 O209 2.437 . S
Pr184 O212 2.436 . S
Pr184 O214 2.438 . S
Pr185 C195 2.880 . S
Pr185 O206 2.436 . S
Pr185 O208 2.438 . S
Pr185 O210 2.562 . S
Pr185 O211 2.490 . S
Pr185 O212 2.695 . S
Pr185 O213 2.512 . S
Pr185 O215 2.437 . S
C186 Pr184 2.880 . S
C186 C187 1.491 . S
C186 O204 1.254 . S
C186 O205 1.225 . S
C187 C186 1.491 . S
C187 C188 1.392 . S
C187 C192 1.356 . S
C188 C187 1.392 . S
C188 C189 1.368 . S
C188 H216 0.929 . S
C189 C188 1.368 . S
C189 C190 1.386 . S
C189 H217 0.929 . S
C190 C189 1.386 . S
C190 C191 1.373 . S
C191 C190 1.373 . S
C191 C192 1.409 . S
C191 H218 0.931 . S
C192 C187 1.356 . S
C192 C191 1.409 . S
C192 H219 0.930 . S
C193 O206 1.270 . S
C193 O207 1.248 . S
C194 O208 1.267 . S
C194 O209 1.278 . S
C195 Pr185 2.880 . S
C195 C196 1.491 . S
C195 O210 1.254 . S
C195 O211 1.225 . S
C196 C195 1.491 . S
C196 C197 1.392 . S
C196 C201 1.356 . S
C197 C196 1.392 . S
C197 C198 1.368 . S
C197 H220 0.929 . S
C198 C197 1.368 . S
C198 C199 1.386 . S
C198 H221 0.929 . S
C199 C198 1.386 . S
C199 C200 1.373 . S
C200 C199 1.373 . S
C200 C201 1.409 . S
C200 H222 0.931 . S
C201 C196 1.356 . S
C201 C200 1.409 . S
C201 H223 0.930 . S
C202 O212 1.270 . S
C202 O213 1.248 . S
C203 O214 1.267 . S
C203 O215 1.278 . S
O204 Pr184 2.562 . S
O204 C186 1.254 . S
O205 Pr184 2.490 . S
O205 C186 1.225 . S
O206 Pr184 2.695 . S
O206 Pr185 2.436 . S
O206 C193 1.270 . S
O207 Pr184 2.512 . S
O207 C193 1.248 . S
O208 Pr185 2.438 . S
O208 C194 1.267 . S
O209 Pr184 2.437 . S
O209 C194 1.278 . S
O210 Pr185 2.562 . S
O210 C195 1.254 . S
O211 Pr185 2.490 . S
O211 C195 1.225 . S
O212 Pr184 2.436 . S
O212 Pr185 2.695 . S
O212 C202 1.270 . S
O213 Pr185 2.512 . S
O213 C202 1.248 . S
O214 Pr184 2.438 . S
O214 C203 1.267 . S
O215 Pr185 2.437 . S
O215 C203 1.278 . S
H216 C188 0.929 . S
H217 C189 0.929 . S
H218 C191 0.931 . S
H219 C192 0.930 . S
H220 C197 0.929 . S
H221 C198 0.929 . S
H222 C200 0.931 . S
H223 C201 0.930 . S
Pr224 C226 2.880 1_454 S
Pr224 O244 2.562 1_454 S
Pr224 O245 2.490 1_554 S
Pr224 O246 2.695 . S
Pr224 O247 2.512 . S
Pr224 O249 2.437 1_455 S
Pr224 O252 2.436 1_455 S
Pr224 O254 2.438 1_554 S
Pr225 C235 2.880 . S
Pr225 O246 2.436 . S
Pr225 O248 2.438 1_455 S
Pr225 O250 2.562 . S
Pr225 O251 2.490 . S
Pr225 O252 2.695 1_455 S
Pr225 O253 2.512 1_455 S
Pr225 O255 2.437 . S
C226 Pr224 2.880 1_656 S
C226 C227 1.491 . S
C226 O244 1.254 . S
C226 O245 1.225 1_655 S
C227 C226 1.491 . S
C227 C228 1.392 . S
C227 C232 1.356 . S
C228 C227 1.392 . S
C228 C229 1.368 . S
C228 H256 0.923 1_655 S
C229 C228 1.368 . S
C229 C230 1.386 . S
C229 H257 0.929 . S
C230 C229 1.386 . S
C230 C231 1.373 . S
C231 C230 1.373 . S
C231 C232 1.409 . S
C231 H258 0.931 . S
C232 C227 1.356 . S
C232 C231 1.409 . S
C232 H259 0.930 . S
C233 O246 1.270 . S
C233 O247 1.248 . S
C234 O248 1.267 . S
C234 O249 1.278 . S
C235 Pr225 2.880 . S
C235 C236 1.491 . S
C235 O250 1.254 . S
C235 O251 1.225 . S
C236 C235 1.491 . S
C236 C237 1.392 . S
C236 C241 1.356 . S
C237 C236 1.392 . S
C237 C238 1.368 . S
C237 H260 0.929 . S
C238 C237 1.368 . S
C238 C239 1.386 . S
C238 H261 0.929 . S
C239 C238 1.386 . S
C239 C240 1.373 . S
C240 C239 1.373 . S
C240 C241 1.409 . S
C240 H262 0.931 . S
C241 C236 1.356 . S
C241 C240 1.409 . S
C241 H263 0.930 . S
C242 O252 1.270 . S
C242 O253 1.248 . S
C243 O254 1.267 1_554 S
C243 O255 1.278 . S
O244 Pr224 2.562 1_656 S
O244 C226 1.254 . S
O245 Pr224 2.490 1_556 S
O245 C226 1.225 1_455 S
O246 Pr224 2.695 . S
O246 Pr225 2.436 . S
O246 C233 1.270 . S
O247 Pr224 2.512 . S
O247 C233 1.248 . S
O248 Pr225 2.438 1_655 S
O248 C234 1.267 . S
O249 Pr224 2.437 1_655 S
O249 C234 1.278 . S
O250 Pr225 2.562 . S
O250 C235 1.254 . S
O251 Pr225 2.490 . S
O251 C235 1.225 . S
O252 Pr224 2.436 1_655 S
O252 Pr225 2.695 1_655 S
O252 C242 1.270 . S
O253 Pr225 2.512 1_655 S
O253 C242 1.248 . S
O254 Pr224 2.438 1_556 S
O254 C243 1.267 1_556 S
O255 Pr225 2.437 . S
O255 C243 1.278 . S
H256 C228 0.923 1_455 S
H257 C229 0.929 . S
H258 C231 0.931 . S
H259 C232 0.930 . S
H260 C237 0.929 . S
H261 C238 0.929 . S
H262 C240 0.931 . S
H263 C241 0.930 . S
H264 C272 0.950 . S
H265 C277 0.950 . S
H266 C274 0.950 . S
H267 C276 0.950 . S
H268 C278 0.950 . S
H269 C280 0.950 . S
H270 C282 0.950 . S
H271 C283 0.950 . S
C272 H264 0.950 . S
C272 C273 1.386 . S
C272 C274 1.391 . S
C273 C272 1.386 . S
C273 C277 1.393 . S
C274 H266 0.950 . S
C274 C272 1.391 . S
C274 C275 1.400 . S
C275 C274 1.400 . S
C275 C276 1.398 . S
C275 C281 1.491 . S
C276 H267 0.950 . S
C276 C275 1.398 . S
C276 C277 1.391 . S
C277 H265 0.950 . S
C277 C273 1.393 . S
C277 C276 1.391 . S
C278 H268 0.950 . S
C278 C279 1.386 . S
C278 C280 1.391 . S
C279 C278 1.386 . S
C279 C283 1.393 . S
C280 H269 0.950 . S
C280 C278 1.391 . S
C280 C281 1.400 . S
C281 C275 1.491 . S
C281 C280 1.400 . S
C281 C282 1.398 . S
C282 H270 0.950 . S
C282 C281 1.398 . S
C282 C283 1.391 . S
C283 H271 0.950 . S
C283 C279 1.393 . S
C283 C282 1.391 . S
H284 C292 0.950 . S
H285 C297 0.950 . S
H286 C294 0.950 . S
H287 C296 0.950 . S
H288 C298 0.950 . S
H289 C300 0.950 . S
H290 C302 0.950 . S
H291 C303 0.950 . S
C292 H284 0.950 . S
C292 C293 1.386 . S
C292 C294 1.391 . S
C293 C292 1.386 . S
C293 C297 1.393 . S
C294 H286 0.950 . S
C294 C292 1.391 . S
C294 C295 1.400 . S
C295 C294 1.400 . S
C295 C296 1.398 . S
C295 C301 1.491 . S
C296 H287 0.950 . S
C296 C295 1.398 . S
C296 C297 1.391 . S
C297 H285 0.950 . S
C297 C293 1.393 . S
C297 C296 1.391 . S
C298 H288 0.950 . S
C298 C299 1.386 . S
C298 C300 1.391 . S
C299 C298 1.386 . S
C299 C303 1.393 . S
C300 H289 0.950 . S
C300 C298 1.391 . S
C300 C301 1.400 . S
C301 C295 1.491 . S
C301 C300 1.400 . S
C301 C302 1.398 . S
C302 H290 0.950 . S
C302 C301 1.398 . S
C302 C303 1.391 . S
C303 H291 0.950 . S
C303 C299 1.393 . S
C303 C302 1.391 . S
H304 C312 0.950 . S
H305 C317 0.950 . S
H306 C314 0.950 . S
H307 C316 0.950 . S
H308 C318 0.950 . S
H309 C320 0.950 . S
H310 C322 0.950 . S
H311 C323 0.950 . S
C312 H304 0.950 . S
C312 C313 1.386 . S
C312 C314 1.391 . S
C313 C312 1.386 . S
C313 C317 1.393 . S
C314 H306 0.950 . S
C314 C312 1.391 . S
C314 C315 1.400 . S
C315 C314 1.400 . S
C315 C316 1.398 . S
C315 C321 1.491 . S
C316 H307 0.950 . S
C316 C315 1.398 . S
C316 C317 1.391 . S
C317 H305 0.950 . S
C317 C313 1.393 . S
C317 C316 1.391 . S
C318 H308 0.950 . S
C318 C319 1.386 . S
C318 C320 1.391 . S
C319 C318 1.386 . S
C319 C323 1.393 . S
C320 H309 0.950 . S
C320 C318 1.391 . S
C320 C321 1.400 . S
C321 C315 1.491 . S
C321 C320 1.400 . S
C321 C322 1.398 . S
C322 H310 0.950 . S
C322 C321 1.398 . S
C322 C323 1.391 . S
C323 H311 0.950 . S
C323 C319 1.393 . S
C323 C322 1.391 . S
H324 C332 0.950 . S
H325 C337 0.950 . S
H326 C334 0.950 . S
H327 C336 0.950 . S
H328 C338 0.950 . S
H329 C340 0.950 . S
H330 C342 0.950 . S
H331 C343 0.950 . S
C332 H324 0.950 . S
C332 C333 1.386 . S
C332 C334 1.391 . S
C333 C332 1.386 . S
C333 C337 1.393 . S
C334 H326 0.950 . S
C334 C332 1.391 . S
C334 C335 1.400 . S
C335 C334 1.400 . S
C335 C336 1.398 . S
C335 C341 1.491 . S
C336 H327 0.950 . S
C336 C335 1.398 . S
C336 C337 1.391 . S
C337 H325 0.950 . S
C337 C333 1.393 . S
C337 C336 1.391 . S
C338 H328 0.950 . S
C338 C339 1.386 . S
C338 C340 1.391 . S
C339 C338 1.386 . S
C339 C343 1.393 . S
C340 H329 0.950 . S
C340 C338 1.391 . S
C340 C341 1.400 . S
C341 C335 1.491 . S
C341 C340 1.400 . S
C341 C342 1.398 . S
C342 H330 0.950 . S
C342 C341 1.398 . S
C342 C343 1.391 . S
C343 H331 0.950 . S
C343 C339 1.393 . S
C343 C342 1.391 . S
H344 C352 0.950 . S
H345 C357 0.950 . S
H346 C354 0.950 . S
H347 C356 0.950 . S
H348 C358 0.950 . S
H349 C360 0.950 . S
H350 C362 0.950 . S
H351 C363 0.950 . S
C352 H344 0.950 . S
C352 C353 1.386 . S
C352 C354 1.391 . S
C353 C352 1.386 . S
C353 C357 1.393 . S
C354 H346 0.950 . S
C354 C352 1.391 . S
C354 C355 1.400 . S
C355 C354 1.400 . S
C355 C356 1.398 . S
C355 C361 1.491 . S
C356 H347 0.950 . S
C356 C355 1.398 . S
C356 C357 1.391 . S
C357 H345 0.950 . S
C357 C353 1.393 . S
C357 C356 1.391 . S
C358 H348 0.950 . S
C358 C359 1.386 . S
C358 C360 1.391 . S
C359 C358 1.386 . S
C359 C363 1.393 . S
C360 H349 0.950 . S
C360 C358 1.391 . S
C360 C361 1.400 . S
C361 C355 1.491 . S
C361 C360 1.400 . S
C361 C362 1.398 . S
C362 H350 0.950 . S
C362 C361 1.398 . S
C362 C363 1.391 . S
C363 H351 0.950 . S
C363 C359 1.393 . S
C363 C362 1.391 . S
H364 C372 0.950 . S
H365 C377 0.950 . S
H366 C374 0.950 . S
H367 C376 0.950 . S
H368 C378 0.950 . S
H369 C380 0.950 . S
H370 C382 0.950 . S
H371 C383 0.950 . S
C372 H364 0.950 . S
C372 C373 1.386 . S
C372 C374 1.391 . S
C373 C372 1.386 . S
C373 C377 1.393 . S
C374 H366 0.950 . S
C374 C372 1.391 . S
C374 C375 1.400 . S
C375 C374 1.400 . S
C375 C376 1.398 . S
C375 C381 1.491 . S
C376 H367 0.950 . S
C376 C375 1.398 . S
C376 C377 1.391 . S
C377 H365 0.950 . S
C377 C373 1.393 . S
C377 C376 1.391 . S
C378 H368 0.950 . S
C378 C379 1.386 . S
C378 C380 1.391 . S
C379 C378 1.386 . S
C379 C383 1.393 . S
C380 H369 0.950 . S
C380 C378 1.391 . S
C380 C381 1.400 . S
C381 C375 1.491 . S
C381 C380 1.400 . S
C381 C382 1.398 . S
C382 H370 0.950 . S
C382 C381 1.398 . S
C382 C383 1.391 . S
C383 H371 0.950 . S
C383 C379 1.393 . S
C383 C382 1.391 . S
H384 C392 0.950 . S
H385 C397 0.950 . S
H386 C394 0.950 . S
H387 C396 0.950 . S
H388 C398 0.950 1_554 S
H389 C400 0.950 . S
H390 C402 0.950 . S
H391 C403 0.950 . S
C392 H384 0.950 . S
C392 C393 1.386 . S
C392 C394 1.391 . S
C393 C392 1.386 . S
C393 C397 1.393 . S
C394 H386 0.950 . S
C394 C392 1.391 . S
C394 C395 1.400 . S
C395 C394 1.400 . S
C395 C396 1.398 . S
C395 C401 1.491 . S
C396 H387 0.950 . S
C396 C395 1.398 . S
C396 C397 1.391 . S
C397 H385 0.950 . S
C397 C393 1.393 . S
C397 C396 1.391 . S
C398 H388 0.950 1_556 S
C398 C399 1.386 . S
C398 C400 1.391 . S
C399 C398 1.386 . S
C399 C403 1.393 . S
C400 H389 0.950 . S
C400 C398 1.391 . S
C400 C401 1.400 . S
C401 C395 1.491 . S
C401 C400 1.400 . S
C401 C402 1.398 . S
C402 H390 0.950 . S
C402 C401 1.398 . S
C402 C403 1.391 . S
C403 H391 0.950 . S
C403 C399 1.393 . S
C403 C402 1.391 . S
H404 C412 0.950 . S
H405 C417 0.950 . S
H406 C414 0.950 . S
H407 C416 0.950 . S
H408 C418 0.950 . S
H409 C420 0.950 . S
H410 C422 0.950 . S
H411 C423 0.950 . S
C412 H404 0.950 . S
C412 C413 1.386 . S
C412 C414 1.391 . S
C413 C412 1.386 . S
C413 C417 1.393 . S
C414 H406 0.950 . S
C414 C412 1.391 . S
C414 C415 1.400 . S
C415 C414 1.400 . S
C415 C416 1.398 . S
C415 C421 1.491 . S
C416 H407 0.950 . S
C416 C415 1.398 . S
C416 C417 1.391 . S
C417 H405 0.950 . S
C417 C413 1.393 . S
C417 C416 1.391 . S
C418 H408 0.950 . S
C418 C419 1.386 . S
C418 C420 1.391 . S
C419 C418 1.386 . S
C419 C423 1.393 . S
C420 H409 0.950 . S
C420 C418 1.391 . S
C420 C421 1.400 . S
C421 C415 1.491 . S
C421 C420 1.400 . S
C421 C422 1.398 . S
C422 H410 0.950 . S
C422 C421 1.398 . S
C422 C423 1.391 . S
C423 H411 0.950 . S
C423 C419 1.393 . S
C423 C422 1.391 . S
H424 C432 0.950 . S
H425 C437 0.950 . S
H426 C434 0.950 . S
H427 C436 0.950 . S
H428 C438 0.950 . S
H429 C440 0.950 . S
H430 C442 0.950 . S
H431 C443 0.950 . S
C432 H424 0.950 . S
C432 C433 1.386 . S
C432 C434 1.391 . S
C433 C432 1.386 . S
C433 C437 1.393 . S
C434 H426 0.950 . S
C434 C432 1.391 . S
C434 C435 1.400 . S
C435 C434 1.400 . S
C435 C436 1.398 . S
C435 C441 1.491 . S
C436 H427 0.950 . S
C436 C435 1.398 . S
C436 C437 1.391 . S
C437 H425 0.950 . S
C437 C433 1.393 . S
C437 C436 1.391 . S
C438 H428 0.950 . S
C438 C439 1.386 . S
C438 C440 1.391 . S
C439 C438 1.386 . S
C439 C443 1.393 . S
C440 H429 0.950 . S
C440 C438 1.391 . S
C440 C441 1.400 . S
C441 C435 1.491 . S
C441 C440 1.400 . S
C441 C442 1.398 . S
C442 H430 0.950 . S
C442 C441 1.398 . S
C442 C443 1.391 . S
C443 H431 0.950 . S
C443 C439 1.393 . S
C443 C442 1.391 . S
H444 C452 0.950 . S
H445 C457 0.950 . S
H446 C454 0.950 . S
H447 C456 0.950 . S
H448 C458 0.950 . S
H449 C460 0.950 . S
H450 C462 0.950 . S
H451 C463 0.950 . S
C452 H444 0.950 . S
C452 C453 1.386 . S
C452 C454 1.391 . S
C453 C452 1.386 . S
C453 C457 1.393 . S
C454 H446 0.950 . S
C454 C452 1.391 . S
C454 C455 1.400 . S
C455 C454 1.400 . S
C455 C456 1.398 . S
C455 C461 1.491 . S
C456 H447 0.950 . S
C456 C455 1.398 . S
C456 C457 1.391 . S
C457 H445 0.950 . S
C457 C453 1.393 . S
C457 C456 1.391 . S
C458 H448 0.950 . S
C458 C459 1.386 . S
C458 C460 1.391 . S
C459 C458 1.386 . S
C459 C463 1.393 . S
C460 H449 0.950 . S
C460 C458 1.391 . S
C460 C461 1.400 . S
C461 C455 1.491 . S
C461 C460 1.400 . S
C461 C462 1.398 . S
C462 H450 0.950 . S
C462 C461 1.398 . S
C462 C463 1.391 . S
C463 H451 0.950 . S
C463 C459 1.393 . S
C463 C462 1.391 . S
H464 C472 0.950 . S
H465 C477 0.950 . S
H466 C474 0.950 . S
H467 C476 0.950 . S
H468 C478 0.950 1_455 S
H469 C480 0.950 . S
H470 C482 0.950 . S
H471 C483 0.950 . S
C472 H464 0.950 . S
C472 C473 1.386 . S
C472 C474 1.391 . S
C473 C472 1.386 . S
C473 C477 1.393 . S
C474 H466 0.950 . S
C474 C472 1.391 . S
C474 C475 1.400 . S
C475 C474 1.400 . S
C475 C476 1.398 . S
C475 C481 1.491 . S
C476 H467 0.950 . S
C476 C475 1.398 . S
C476 C477 1.391 . S
C477 H465 0.950 . S
C477 C473 1.393 . S
C477 C476 1.391 . S
C478 H468 0.950 1_655 S
C478 C479 1.386 . S
C478 C480 1.391 . S
C479 C478 1.386 . S
C479 C483 1.393 . S
C480 H469 0.950 . S
C480 C478 1.391 . S
C480 C481 1.400 . S
C481 C475 1.491 . S
C481 C480 1.400 . S
C481 C482 1.398 . S
C482 H470 0.950 . S
C482 C481 1.398 . S
C482 C483 1.391 . S
C483 H471 0.950 . S
C483 C479 1.393 . S
C483 C482 1.391 . S
H484 C492 0.950 . S
H485 C497 0.950 . S
H486 C494 0.950 . S
H487 C496 0.950 . S
H488 C498 0.950 . S
H489 C500 0.950 . S
H490 C502 0.950 . S
H491 C503 0.950 . S
C492 H484 0.950 . S
C492 C493 1.386 . S
C492 C494 1.391 . S
C493 C492 1.386 . S
C493 C497 1.393 . S
C494 H486 0.950 . S
C494 C492 1.391 . S
C494 C495 1.400 . S
C495 C494 1.400 . S
C495 C496 1.398 . S
C495 C501 1.491 . S
C496 H487 0.950 . S
C496 C495 1.398 . S
C496 C497 1.391 . S
C497 H485 0.950 . S
C497 C493 1.393 . S
C497 C496 1.391 . S
C498 H488 0.950 . S
C498 C499 1.386 . S
C498 C500 1.391 . S
C499 C498 1.386 . S
C499 C503 1.393 . S
C500 H489 0.950 . S
C500 C498 1.391 . S
C500 C501 1.400 . S
C501 C495 1.491 . S
C501 C500 1.400 . S
C501 C502 1.398 . S
C502 H490 0.950 . S
C502 C501 1.398 . S
C502 C503 1.391 . S
C503 H491 0.950 . S
C503 C499 1.393 . S
C503 C502 1.391 . S
H504 C512 0.950 . S
H505 C517 0.950 . S
H506 C514 0.950 . S
H507 C516 0.950 . S
H508 C518 0.950 . S
H509 C520 0.950 . S
H510 C522 0.950 . S
H511 C523 0.950 . S
C512 H504 0.950 . S
C512 C513 1.386 . S
C512 C514 1.391 . S
C513 C512 1.386 . S
C513 C517 1.393 . S
C514 H506 0.950 . S
C514 C512 1.391 . S
C514 C515 1.400 . S
C515 C514 1.400 . S
C515 C516 1.398 . S
C515 C521 1.491 . S
C516 H507 0.950 . S
C516 C515 1.398 . S
C516 C517 1.391 . S
C517 H505 0.950 . S
C517 C513 1.393 . S
C517 C516 1.391 . S
C518 H508 0.950 . S
C518 C519 1.386 . S
C518 C520 1.391 . S
C519 C518 1.386 . S
C519 C523 1.393 . S
C520 H509 0.950 . S
C520 C518 1.391 . S
C520 C521 1.400 . S
C521 C515 1.491 . S
C521 C520 1.400 . S
C521 C522 1.398 . S
C522 H510 0.950 . S
C522 C521 1.398 . S
C522 C523 1.391 . S
C523 H511 0.950 . S
C523 C519 1.393 . S
C523 C522 1.391 . S
H524 C532 0.950 . S
H525 C537 0.950 . S
H526 C534 0.950 . S
H527 C536 0.950 . S
H528 C538 0.950 . S
H529 C540 0.950 . S
H530 C542 0.950 . S
H531 C543 0.950 . S
C532 H524 0.950 . S
C532 C533 1.386 . S
C532 C534 1.391 . S
C533 C532 1.386 . S
C533 C537 1.393 . S
C534 H526 0.950 . S
C534 C532 1.391 . S
C534 C535 1.400 . S
C535 C534 1.400 . S
C535 C536 1.398 . S
C535 C541 1.491 . S
C536 H527 0.950 . S
C536 C535 1.398 . S
C536 C537 1.391 . S
C537 H525 0.950 . S
C537 C533 1.393 . S
C537 C536 1.391 . S
C538 H528 0.950 . S
C538 C539 1.386 . S
C538 C540 1.391 . S
C539 C538 1.386 . S
C539 C543 1.393 . S
C540 H529 0.950 . S
C540 C538 1.391 . S
C540 C541 1.400 . S
C541 C535 1.491 . S
C541 C540 1.400 . S
C541 C542 1.398 . S
C542 H530 0.950 . S
C542 C541 1.398 . S
C542 C543 1.391 . S
C543 H531 0.950 . S
C543 C539 1.393 . S
C543 C542 1.391 . S
H544 C552 0.950 . S
H545 C557 0.950 . S
H546 C554 0.950 . S
H547 C556 0.950 . S
H548 C558 0.950 . S
H549 C560 0.950 . S
H550 C562 0.950 . S
H551 C563 0.950 . S
C552 H544 0.950 . S
C552 C553 1.386 . S
C552 C554 1.391 . S
C553 C552 1.386 . S
C553 C557 1.393 . S
C554 H546 0.950 . S
C554 C552 1.391 . S
C554 C555 1.400 . S
C555 C554 1.400 . S
C555 C556 1.398 . S
C555 C561 1.491 . S
C556 H547 0.950 . S
C556 C555 1.398 . S
C556 C557 1.391 . S
C557 H545 0.950 . S
C557 C553 1.393 . S
C557 C556 1.391 . S
C558 H548 0.950 . S
C558 C559 1.386 . S
C558 C560 1.391 . S
C559 C558 1.386 . S
C559 C563 1.393 . S
C560 H549 0.950 . S
C560 C558 1.391 . S
C560 C561 1.400 . S
C561 C555 1.491 . S
C561 C560 1.400 . S
C561 C562 1.398 . S
C562 H550 0.950 . S
C562 C561 1.398 . S
C562 C563 1.391 . S
C563 H551 0.950 . S
C563 C559 1.393 . S
C563 C562 1.391 . S
H564 C572 0.950 . S
H565 C577 0.950 . S
H566 C574 0.950 . S
H567 C576 0.950 . S
H568 C578 0.950 . S
H569 C580 0.950 . S
H570 C582 0.950 . S
H571 C583 0.950 . S
C572 H564 0.950 . S
C572 C573 1.386 . S
C572 C574 1.391 . S
C573 C572 1.386 . S
C573 C577 1.393 . S
C574 H566 0.950 . S
C574 C572 1.391 . S
C574 C575 1.400 . S
C575 C574 1.400 . S
C575 C576 1.398 . S
C575 C581 1.491 . S
C576 H567 0.950 . S
C576 C575 1.398 . S
C576 C577 1.391 . S
C577 H565 0.950 . S
C577 C573 1.393 . S
C577 C576 1.391 . S
C578 H568 0.950 . S
C578 C579 1.386 . S
C578 C580 1.391 . S
C579 C578 1.386 . S
C579 C583 1.393 . S
C580 H569 0.950 . S
C580 C578 1.391 . S
C580 C581 1.400 . S
C581 C575 1.491 . S
C581 C580 1.400 . S
C581 C582 1.398 . S
C582 H570 0.950 . S
C582 C581 1.398 . S
C582 C583 1.391 . S
C583 H571 0.950 . S
C583 C579 1.393 . S
C583 C582 1.391 . S
H584 C592 0.950 . S
H585 C597 0.950 . S
H586 C594 0.950 . S
H587 C596 0.950 . S
H588 C598 0.950 . S
H589 C600 0.950 . S
H590 C602 0.950 . S
H591 C603 0.950 . S
C592 H584 0.950 . S
C592 C593 1.386 . S
C592 C594 1.391 . S
C593 C592 1.386 . S
C593 C597 1.393 . S
C594 H586 0.950 . S
C594 C592 1.391 . S
C594 C595 1.400 . S
C595 C594 1.400 . S
C595 C596 1.398 . S
C595 C601 1.491 . S
C596 H587 0.950 . S
C596 C595 1.398 . S
C596 C597 1.391 . S
C597 H585 0.950 . S
C597 C593 1.393 . S
C597 C596 1.391 . S
C598 H588 0.950 . S
C598 C599 1.386 . S
C598 C600 1.391 . S
C599 C598 1.386 . S
C599 C603 1.393 . S
C600 H589 0.950 . S
C600 C598 1.391 . S
C600 C601 1.400 . S
C601 C595 1.491 . S
C601 C600 1.400 . S
C601 C602 1.398 . S
C602 H590 0.950 . S
C602 C601 1.398 . S
C602 C603 1.391 . S
C603 H591 0.950 . S
C603 C599 1.393 . S
C603 C602 1.391 . S
H604 C612 0.950 . S
H605 C617 0.950 . S
H606 C614 0.950 . S
H607 C616 0.950 . S
H608 C618 0.950 1_455 S
H609 C620 0.950 . S
H610 C622 0.950 . S
H611 C623 0.950 . S
C612 H604 0.950 . S
C612 C613 1.386 . S
C612 C614 1.391 . S
C613 C612 1.386 . S
C613 C617 1.393 . S
C614 H606 0.950 . S
C614 C612 1.391 . S
C614 C615 1.400 . S
C615 C614 1.400 . S
C615 C616 1.398 . S
C615 C621 1.491 . S
C616 H607 0.950 . S
C616 C615 1.398 . S
C616 C617 1.391 . S
C617 H605 0.950 . S
C617 C613 1.393 . S
C617 C616 1.391 . S
C618 H608 0.950 1_655 S
C618 C619 1.386 . S
C618 C620 1.391 . S
C619 C618 1.386 . S
C619 C623 1.393 . S
C620 H609 0.950 . S
C620 C618 1.391 . S
C620 C621 1.400 . S
C621 C615 1.491 . S
C621 C620 1.400 . S
C621 C622 1.398 . S
C622 H610 0.950 . S
C622 C621 1.398 . S
C622 C623 1.391 . S
C623 H611 0.950 . S
C623 C619 1.393 . S
C623 C622 1.391 . S
H624 C632 0.950 . S
H625 C637 0.950 . S
H626 C634 0.950 . S
H627 C636 0.950 . S
H628 C638 0.950 . S
H629 C640 0.950 . S
H630 C642 0.950 . S
H631 C643 0.950 . S
C632 H624 0.950 . S
C632 C633 1.386 . S
C632 C634 1.391 . S
C633 C632 1.386 . S
C633 C637 1.393 . S
C634 H626 0.950 . S
C634 C632 1.391 . S
C634 C635 1.400 . S
C635 C634 1.400 . S
C635 C636 1.398 . S
C635 C641 1.491 . S
C636 H627 0.950 . S
C636 C635 1.398 . S
C636 C637 1.391 . S
C637 H625 0.950 . S
C637 C633 1.393 . S
C637 C636 1.391 . S
C638 H628 0.950 . S
C638 C639 1.386 . S
C638 C640 1.391 . S
C639 C638 1.386 . S
C639 C643 1.393 . S
C640 H629 0.950 . S
C640 C638 1.391 . S
C640 C641 1.400 . S
C641 C635 1.491 . S
C641 C640 1.400 . S
C641 C642 1.398 . S
C642 H630 0.950 . S
C642 C641 1.398 . S
C642 C643 1.391 . S
C643 H631 0.950 . S
C643 C639 1.393 . S
C643 C642 1.391 . S
H644 C652 0.950 . S
H645 C657 0.950 . S
H646 C654 0.950 . S
H647 C656 0.950 . S
H648 C658 0.950 . S
H649 C660 0.950 . S
H650 C662 0.950 . S
H651 C663 0.950 . S
C652 H644 0.950 . S
C652 C653 1.386 . S
C652 C654 1.391 . S
C653 C652 1.386 . S
C653 C657 1.393 . S
C654 H646 0.950 . S
C654 C652 1.391 . S
C654 C655 1.400 . S
C655 C654 1.400 . S
C655 C656 1.398 . S
C655 C661 1.491 . S
C656 H647 0.950 . S
C656 C655 1.398 . S
C656 C657 1.391 . S
C657 H645 0.950 . S
C657 C653 1.393 . S
C657 C656 1.391 . S
C658 H648 0.950 . S
C658 C659 1.386 . S
C658 C660 1.391 . S
C659 C658 1.386 . S
C659 C663 1.393 . S
C660 H649 0.950 . S
C660 C658 1.391 . S
C660 C661 1.400 . S
C661 C655 1.491 . S
C661 C660 1.400 . S
C661 C662 1.398 . S
C662 H650 0.950 . S
C662 C661 1.398 . S
C662 C663 1.391 . S
C663 H651 0.950 . S
C663 C659 1.393 . S
C663 C662 1.391 . S
H664 C672 0.950 . S
H665 C677 0.950 . S
H666 C674 0.950 . S
H667 C676 0.950 . S
H668 C678 0.950 . S
H669 C680 0.950 . S
H670 C682 0.950 . S
H671 C683 0.950 . S
C672 H664 0.950 . S
C672 C673 1.386 . S
C672 C674 1.391 . S
C673 C672 1.386 . S
C673 C677 1.393 . S
C674 H666 0.950 . S
C674 C672 1.391 . S
C674 C675 1.400 . S
C675 C674 1.400 . S
C675 C676 1.398 . S
C675 C681 1.491 . S
C676 H667 0.950 . S
C676 C675 1.398 . S
C676 C677 1.391 . S
C677 H665 0.950 . S
C677 C673 1.393 . S
C677 C676 1.391 . S
C678 H668 0.950 . S
C678 C679 1.386 . S
C678 C680 1.391 . S
C679 C678 1.386 . S
C679 C683 1.393 . S
C680 H669 0.950 . S
C680 C678 1.391 . S
C680 C681 1.400 . S
C681 C675 1.491 . S
C681 C680 1.400 . S
C681 C682 1.398 . S
C682 H670 0.950 . S
C682 C681 1.398 . S
C682 C683 1.391 . S
C683 H671 0.950 . S
C683 C679 1.393 . S
C683 C682 1.391 . S
H684 C692 0.950 . S
H685 C697 0.950 . S
H686 C694 0.950 . S
H687 C696 0.950 . S
H688 C698 0.950 . S
H689 C700 0.950 . S
H690 C702 0.950 . S
H691 C703 0.950 . S
C692 H684 0.950 . S
C692 C693 1.386 . S
C692 C694 1.391 . S
C693 C692 1.386 . S
C693 C697 1.393 . S
C694 H686 0.950 . S
C694 C692 1.391 . S
C694 C695 1.400 . S
C695 C694 1.400 . S
C695 C696 1.398 . S
C695 C701 1.491 . S
C696 H687 0.950 . S
C696 C695 1.398 . S
C696 C697 1.391 . S
C697 H685 0.950 . S
C697 C693 1.393 . S
C697 C696 1.391 . S
C698 H688 0.950 . S
C698 C699 1.386 . S
C698 C700 1.391 . S
C699 C698 1.386 . S
C699 C703 1.393 . S
C700 H689 0.950 . S
C700 C698 1.391 . S
C700 C701 1.400 . S
C701 C695 1.491 . S
C701 C700 1.400 . S
C701 C702 1.398 . S
C702 H690 0.950 . S
C702 C701 1.398 . S
C702 C703 1.391 . S
C703 H691 0.950 . S
C703 C699 1.393 . S
C703 C702 1.391 . S
H704 C712 0.950 . S
H705 C717 0.950 . S
H706 C714 0.950 . S
H707 C716 0.950 . S
H708 C718 0.950 . S
H709 C720 0.950 . S
H710 C722 0.950 . S
H711 C723 0.950 . S
C712 H704 0.950 . S
C712 C713 1.386 . S
C712 C714 1.391 . S
C713 C712 1.386 . S
C713 C717 1.393 . S
C714 H706 0.950 . S
C714 C712 1.391 . S
C714 C715 1.400 . S
C715 C714 1.400 . S
C715 C716 1.398 . S
C715 C721 1.491 . S
C716 H707 0.950 . S
C716 C715 1.398 . S
C716 C717 1.391 . S
C717 H705 0.950 . S
C717 C713 1.393 . S
C717 C716 1.391 . S
C718 H708 0.950 . S
C718 C719 1.386 . S
C718 C720 1.391 . S
C719 C718 1.386 . S
C719 C723 1.393 . S
C720 H709 0.950 . S
C720 C718 1.391 . S
C720 C721 1.400 . S
C721 C715 1.491 . S
C721 C720 1.400 . S
C721 C722 1.398 . S
C722 H710 0.950 . S
C722 C721 1.398 . S
C722 C723 1.391 . S
C723 H711 0.950 . S
C723 C719 1.393 . S
C723 C722 1.391 . S
H724 C732 0.950 . S
H725 C737 0.950 . S
H726 C734 0.950 . S
H727 C736 0.950 . S
H728 C738 0.950 . S
H729 C740 0.950 . S
H730 C742 0.950 . S
H731 C743 0.950 . S
C732 H724 0.950 . S
C732 C733 1.386 . S
C732 C734 1.391 . S
C733 C732 1.386 . S
C733 C737 1.393 . S
C734 H726 0.950 . S
C734 C732 1.391 . S
C734 C735 1.400 . S
C735 C734 1.400 . S
C735 C736 1.398 . S
C735 C741 1.491 . S
C736 H727 0.950 . S
C736 C735 1.398 . S
C736 C737 1.391 . S
C737 H725 0.950 . S
C737 C733 1.393 . S
C737 C736 1.391 . S
C738 H728 0.950 . S
C738 C739 1.386 . S
C738 C740 1.391 . S
C739 C738 1.386 . S
C739 C743 1.393 . S
C740 H729 0.950 . S
C740 C738 1.391 . S
C740 C741 1.400 . S
C741 C735 1.491 . S
C741 C740 1.400 . S
C741 C742 1.398 . S
C742 H730 0.950 . S
C742 C741 1.398 . S
C742 C743 1.391 . S
C743 H731 0.950 . S
C743 C739 1.393 . S
C743 C742 1.391 . S
C273 C9 1.373 . S
C279 C119 1.402 . S
C293 C21 1.404 . S
C299 C163 1.411 . S
C319 C193 2.003 . S
C313 C30 1.965 . S
C333 C43 2.489 . S
C339 C234 2.505 . S
C359 C150 0.705 . S
C353 C4 0.733 . S
C379 C114 2.962 . S
C373 C22 2.929 . S
C399 C242 0.852 1_556 S
C393 C34 0.850 . S
C419 C203 1.953 . S
C413 C48 1.995 . S
C433 C8 1.177 . S
C439 C239 1.198 . S
C459 C153 1.807 . S
C453 C35 1.815 . S
C473 C47 2.175 . S
C479 C122 2.109 . S
C493 C17 2.005 . S
C499 C190 1.990 . S
C519 C110 0.919 . S
C513 C60 0.916 . S
C533 C74 1.494 . S
C539 C154 1.515 . S
C553 C82 1.499 . S
C559 C202 1.660 . S
C573 C100 3.013 . S
C579 C243 2.978 1_556 S
C593 C61 1.091 . S
C599 C159 1.128 . S
C619 C123 2.337 . S
C613 C73 2.312 . S
C639 C233 1.386 . S
C633 C87 1.410 . S
C659 C194 1.995 . S
C653 C95 2.101 . S
C673 C56 0.931 . S
C679 C230 0.925 . S
C699 C162 2.147 . S
C693 C86 2.189 . S
C719 C113 1.986 . S
C713 C99 2.024 . S
C733 C69 1.664 . S
C739 C199 1.814 . S
