# Generated by pormake.
# Topology zzz, (3,6)-cn, num edge types: 1
# Building blocks:
#     Node 0, Type 0, BuildingBlock: CUQRIR_clean_linker_1, # of connection points: 3
#     Node 1, Type 0, BuildingBlock: CUQRIR_clean_linker_1, # of connection points: 3
#     Node 2, Type 0, BuildingBlock: CUQRIR_clean_linker_1, # of connection points: 3
#     Node 3, Type 0, BuildingBlock: CUQRIR_clean_linker_1, # of connection points: 3
#     Node 4, Type 0, BuildingBlock: CUQRIR_clean_linker_1, # of connection points: 3
#     Node 5, Type 0, BuildingBlock: CUQRIR_clean_linker_1, # of connection points: 3
#     Node 6, Type 0, BuildingBlock: CUQRIR_clean_linker_1, # of connection points: 3
#     Node 7, Type 0, BuildingBlock: CUQRIR_clean_linker_1, # of connection points: 3
#     Node 8, Type 1, BuildingBlock: PAMTUU_clean_sbu_0, # of connection points: 6
#     Node 9, Type 1, BuildingBlock: PAMTUU_clean_sbu_0, # of connection points: 6
#     Node 10, Type 1, BuildingBlock: PAMTUU_clean_sbu_0, # of connection points: 6
#     Node 11, Type 1, BuildingBlock: PAMTUU_clean_sbu_0, # of connection points: 6
#     Edge 12, Type (0, 1), BuildingBlock: AJUNOK_clean_linker_0, # of connection points: 2
#     Edge 13, Type (0, 1), BuildingBlock: AJUNOK_clean_linker_0, # of connection points: 2
#     Edge 14, Type (0, 1), BuildingBlock: AJUNOK_clean_linker_0, # of connection points: 2
#     Edge 15, Type (0, 1), BuildingBlock: AJUNOK_clean_linker_0, # of connection points: 2
#     Edge 16, Type (0, 1), BuildingBlock: AJUNOK_clean_linker_0, # of connection points: 2
#     Edge 17, Type (0, 1), BuildingBlock: AJUNOK_clean_linker_0, # of connection points: 2
#     Edge 18, Type (0, 1), BuildingBlock: AJUNOK_clean_linker_0, # of connection points: 2
#     Edge 19, Type (0, 1), BuildingBlock: AJUNOK_clean_linker_0, # of connection points: 2
#     Edge 20, Type (0, 1), BuildingBlock: AJUNOK_clean_linker_0, # of connection points: 2
#     Edge 21, Type (0, 1), BuildingBlock: AJUNOK_clean_linker_0, # of connection points: 2
#     Edge 22, Type (0, 1), BuildingBlock: AJUNOK_clean_linker_0, # of connection points: 2
#     Edge 23, Type (0, 1), BuildingBlock: AJUNOK_clean_linker_0, # of connection points: 2
#     Edge 24, Type (0, 1), BuildingBlock: AJUNOK_clean_linker_0, # of connection points: 2
#     Edge 25, Type (0, 1), BuildingBlock: AJUNOK_clean_linker_0, # of connection points: 2
#     Edge 26, Type (0, 1), BuildingBlock: AJUNOK_clean_linker_0, # of connection points: 2
#     Edge 27, Type (0, 1), BuildingBlock: AJUNOK_clean_linker_0, # of connection points: 2
#     Edge 28, Type (0, 1), BuildingBlock: AJUNOK_clean_linker_0, # of connection points: 2
#     Edge 29, Type (0, 1), BuildingBlock: AJUNOK_clean_linker_0, # of connection points: 2
#     Edge 30, Type (0, 1), BuildingBlock: AJUNOK_clean_linker_0, # of connection points: 2
#     Edge 31, Type (0, 1), BuildingBlock: AJUNOK_clean_linker_0, # of connection points: 2
#     Edge 32, Type (0, 1), BuildingBlock: AJUNOK_clean_linker_0, # of connection points: 2
#     Edge 33, Type (0, 1), BuildingBlock: AJUNOK_clean_linker_0, # of connection points: 2
#     Edge 34, Type (0, 1), BuildingBlock: AJUNOK_clean_linker_0, # of connection points: 2
#     Edge 35, Type (0, 1), BuildingBlock: AJUNOK_clean_linker_0, # of connection points: 2
# Relax obj value: 0.336
# Max RMSD: 0.260
# Mean RMSD: 0.116
data_MOF--net-zzz--node1-PAMTUU_clean_sbu_0--node2-CUQRIR_clean_linker_1--edge1-AJUNOK_clean_linker_0
_symmetry_space_group_name_H-M    P1
_symmetry_Int_Tables_number       1
_symmetry_cell_setting            triclinic
loop_
_symmetry_equiv_pos_as_xyz
'x, y, z'
_cell_length_a     32.201992
_cell_length_b     36.473874
_cell_length_c     10.622224
_cell_angle_alpha  106.03084
_cell_angle_beta   89.687535
_cell_angle_gamma 89.236986
loop_
_atom_site_label
_atom_site_type_symbol
_atom_site_fract_x
_atom_site_fract_y
_atom_site_fract_z
_atom_type_partial_charge
C0 C 0.78963 0.5161 0.48367 0.0
N1 N 0.82469 0.49453 0.4876 0.0
N2 N 0.76555 0.49945 0.37767 0.0
C3 C 0.77744 0.55201 0.58559 0.0
C4 C 0.78695 0.46713 0.31874 0.0
N5 N 0.82209 0.46399 0.38462 0.0
C6 C 0.77568 0.44011 0.18826 0.0
H7 H 0.74472 0.54999 0.61587 0.0
H8 H 0.7794 0.57644 0.54268 0.0
H9 H 0.7976 0.55708 0.67286 0.0
H10 H 0.80296 0.43471 0.12104 0.0
H11 H 0.74979 0.45107 0.13995 0.0
H12 H 0.76656 0.41242 0.20355 0.0
C13 C 1.03782 0.73853 0.55525 0.0
N14 N 1.05312 0.7729 0.55059 0.0
N15 N 1.05051 0.70993 0.44784 0.0
C16 C 1.01123 0.73307 0.66445 0.0
C17 C 0.07325 0.72847 0.37779 0.0
N18 N 0.07512 0.76593 0.44049 0.0
C19 C 0.09276 0.71023 0.24549 0.0
H20 H 1.00278 0.70273 0.64802 0.0
H21 H 0.98266 0.75097 0.67292 0.0
H22 H 1.0282 0.74304 0.75812 0.0
H23 H 0.09306 0.73036 0.18409 0.0
H24 H 0.07608 0.68413 0.19265 0.0
H25 H 0.12546 0.70229 0.25921 0.0
C26 C 0.8395 1.00401 0.53842 0.0
N27 N 0.79753 1.01086 0.5367 0.0
N28 N 0.85719 0.9996 0.41677 0.0
C29 C 0.86338 1.00409 0.65878 0.0
C30 C 0.82396 1.00265 0.34304 0.0
N31 N 0.78925 1.01266 0.41655 0.0
C32 C 0.82611 1.00017 0.19868 0.0
H33 H 0.87154 0.03389 0.71029 0.0
H34 H 0.8925 0.98699 0.63233 0.0
H35 H 0.84414 0.99278 0.72617 0.0
H36 H 0.85551 0.98646 0.1529 0.0
H37 H 0.82324 0.02912 0.18453 0.0
H38 H 0.79985 0.9832 0.14738 0.0
C39 C 0.58077 0.80519 0.24541 0.0
N40 N 0.57807 0.76741 0.23617 0.0
N41 N 0.56808 0.81278 0.13219 0.0
C42 C 0.59546 0.83437 0.36545 0.0
C43 C 0.55831 0.77755 0.05381 0.0
N44 N 0.56307 0.75064 0.11873 0.0
C45 C 0.54821 0.76847 0.91001 0.0
H46 H 0.58024 0.86246 0.37509 0.0
H47 H 0.62953 0.83747 0.35768 0.0
H48 H 0.58898 0.82516 0.45468 0.0
H49 H 0.55667 0.79198 0.86779 0.0
H50 H 0.51459 0.76247 0.89653 0.0
H51 H 0.56517 0.74259 0.85321 0.0
C52 C 0.32703 0.52365 0.31926 0.0
N53 N 0.29323 0.54651 0.31512 0.0
N54 N 0.35341 0.54103 0.41756 0.0
C55 C 0.33469 0.48468 0.22837 0.0
C56 C 0.33436 0.57499 0.47249 0.0
N57 N 0.29815 0.57833 0.41184 0.0
C58 C 0.34783 0.6029 0.5984 0.0
H59 H 0.36535 0.48401 0.17954 0.0
H60 H 0.31025 0.47669 0.153 0.0
H61 H 0.33601 0.46354 0.286 0.0
H62 H 0.3792 0.59633 0.6293 0.0
H63 H 0.32534 0.60252 0.6776 0.0
H64 H 0.34751 0.63218 0.58652 0.0
C65 C 0.07576 0.28938 0.27456 0.0
N66 N 0.06076 0.25498 0.27906 0.0
N67 N 0.06034 0.3182 0.37635 0.0
C68 C 0.10623 0.29461 0.17422 0.0
C69 C 1.0361 0.29985 0.44338 0.0
N70 N 1.03632 0.26198 0.38433 0.0
C71 C 1.01325 0.31899 0.56917 0.0
H72 H 0.13784 0.2874 0.20198 0.0
H73 H 0.10578 0.32457 0.16881 0.0
H74 H 0.09917 0.27497 0.07687 0.0
H75 H 0.98434 0.33256 0.54606 0.0
H76 H 1.0325 0.34168 0.63246 0.0
H77 H 1.00432 0.2985 0.62411 0.0
C78 C 0.28265 0.03005 0.31308 0.0
N79 N 0.31164 1.00436 0.2434 0.0
N80 N 0.25414 1.01263 0.37261 0.0
C81 C 0.2837 0.0722 0.33111 0.0
C82 C 0.26674 0.97563 0.33445 0.0
N83 N 0.30221 0.97085 0.2625 0.0
C84 C 0.24887 0.94477 0.38748 0.0
H85 H 0.30277 0.08547 0.41802 0.0
H86 H 0.25188 0.08472 0.34859 0.0
H87 H 0.29782 0.07854 0.24407 0.0
H88 H 0.216 0.95102 0.41852 0.0
H89 H 0.26709 0.9424 0.47328 0.0
H90 H 0.25135 0.91684 0.31219 0.0
C91 C 0.5176 0.23835 0.57745 0.0
N92 N 0.53115 0.27278 0.5699 0.0
N93 N 0.54362 0.22333 0.65167 0.0
C94 C 0.47768 0.22075 0.51981 0.0
C95 C 0.57382 0.24999 0.68626 0.0
N96 N 0.56613 0.27997 0.63747 0.0
C97 C 0.61267 0.24587 0.7594 0.0
H98 H 0.45557 0.24277 0.5052 0.0
H99 H 0.46318 0.20498 0.58383 0.0
H100 H 0.48446 0.20026 0.42307 0.0
H101 H 0.61959 0.21551 0.75294 0.0
H102 H 0.60895 0.26222 0.86374 0.0
H103 H 0.63935 0.25807 0.71897 0.0
Tb104 Tb 1.02574 0.0209 0.82048 0.0
Tb105 Tb 0.09462 1.00733 1.01591 0.0
C106 C 1.00101 1.00955 0.09869 0.0
C107 C 0.97212 0.06302 0.59393 0.0
C108 C 0.98179 0.12867 0.50974 0.0
C109 C 0.94661 0.12496 0.58287 0.0
C110 C 0.94168 0.09215 0.62434 0.0
C111 C 1.00591 0.06584 0.51281 0.0
C112 C 1.01066 0.09853 0.471 0.0
C113 C 0.97225 0.03395 0.66601 0.0
O114 O 1.0508 0.07829 0.90108 0.0
O115 O 0.07993 0.06871 0.08546 0.0
O116 O 0.13021 0.02996 0.8799 0.0
O117 O 0.08475 0.01834 0.70966 0.0
O118 O 0.11709 0.01704 0.20623 0.0
O119 O 0.15233 0.983 0.04043 0.0
O120 O 0.08623 0.95057 0.87799 0.0
O121 O 1.0218 0.95949 0.80306 0.0
O122 O 0.99379 0.02789 1.00998 0.0
O123 O 1.03686 0.99198 0.09877 0.0
C124 C 0.0672 0.09198 1.01766 0.0
O125 O 1.00027 1.0068 0.6316 0.0
O126 O 0.96996 0.04776 0.79272 0.0
C127 C 0.12244 0.0267 0.75627 0.0
C128 C 0.14894 0.96058 0.22713 0.0
C129 C 0.13889 0.89428 0.30593 0.0
C130 C 0.16768 0.89456 0.2072 0.0
C131 C 0.17298 0.92777 0.16856 0.0
C132 C 0.12194 0.96049 0.33154 0.0
C133 C 0.1172 0.9276 0.37119 0.0
C134 C 0.14746 0.99238 0.16728 0.0
C135 C 1.05224 0.93641 0.81611 0.0
H136 H 0.92418 0.14818 0.61346 0.0
H137 H 0.91548 0.09057 0.68693 0.0
H138 H 1.02997 0.04393 0.4879 0.0
H139 H 1.03802 0.1012 0.41444 0.0
H140 H 0.18432 0.86871 0.15574 0.0
H141 H 0.19413 0.92716 0.08833 0.0
H142 H 0.10239 0.98494 0.37734 0.0
H143 H 0.0945 0.92741 0.44679 0.0
Tb144 Tb 0.54263 0.99386 0.75987 0.0
Tb145 Tb 0.5679 0.04639 0.04409 0.0
C146 C 0.56016 0.95683 0.99051 0.0
C147 C 0.5105 0.91583 0.46896 0.0
C148 C 0.43722 0.88302 0.3622 0.0
C149 C 0.45022 0.87835 0.48319 0.0
C150 C 0.48663 0.89603 0.53895 0.0
C151 C 0.50258 0.91164 0.33706 0.0
C152 C 0.46626 0.89447 0.28268 0.0
C153 C 0.5358 0.94796 0.53573 0.0
O154 O 0.48179 0.99741 0.86153 0.0
O155 O 0.50134 0.03525 0.06298 0.0
O156 O 0.56773 0.08408 0.91704 0.0
O157 O 0.52916 0.05131 0.74349 0.0
O158 O 0.5941 0.05996 0.23095 0.0
O159 O 0.55144 0.09897 0.17656 0.0
O160 O 0.62968 0.04139 0.9464 0.0
O161 O 0.60997 1.00226 0.74843 0.0
O162 O 0.53879 0.95645 0.8858 0.0
O163 O 0.57937 0.98779 0.05694 0.0
C164 C 0.47277 0.01577 0.985 0.0
O165 O 0.516 0.9807 0.57392 0.0
O166 O 0.56107 0.94259 0.62432 0.0
C167 C 0.54552 0.08318 0.81327 0.0
C168 C 0.60837 0.12452 0.30593 0.0
C169 C 0.6913 0.13668 0.3546 0.0
C170 C 0.66388 0.14134 0.46106 0.0
C171 C 0.62244 0.13245 0.43484 0.0
C172 C 0.6333 0.13413 0.21103 0.0
C173 C 0.67541 0.14097 0.23665 0.0
C174 C 0.57802 0.09438 0.26295 0.0
C175 C 0.63902 0.02106 0.82571 0.0
H176 H 0.4284 0.869 0.54548 0.0
H177 H 0.4928 0.89868 0.64122 0.0
H178 H 0.52082 0.9269 0.28263 0.0
H179 H 0.45668 0.89905 0.19087 0.0
H180 H 0.67552 0.14068 0.55602 0.0
H181 H 0.60438 0.12485 0.5093 0.0
H182 H 0.6227 0.12911 0.11117 0.0
H183 H 0.69618 0.13996 0.15523 0.0
Tb184 Tb 0.52804 0.50555 0.99282 0.0
Tb185 Tb 0.59401 0.52459 0.77766 0.0
C186 C 0.49647 0.5127 0.71378 0.0
C187 C 0.48501 0.45319 0.21444 0.0
C188 C 0.49091 0.39101 0.32552 0.0
C189 C 0.45414 0.41311 0.33833 0.0
C190 C 0.45117 0.44368 0.28234 0.0
C191 C 0.52163 0.43107 0.20087 0.0
C192 C 0.52449 0.40021 0.2551 0.0
C193 C 0.48195 0.4855 0.15563 0.0
O194 O 0.54915 0.45121 0.86644 0.0
O195 O 0.60655 0.46387 0.75343 0.0
O196 O 0.6277 0.53354 0.96566 0.0
O197 O 0.58994 0.49565 0.06108 0.0
O198 O 0.61766 0.52294 0.59054 0.0
O199 O 0.64133 0.56244 0.76354 0.0
O200 O 0.55038 0.57088 0.84593 0.0
O201 O 0.5377 0.56745 0.05257 0.0
O202 O 0.4878 0.516 0.83845 0.0
O203 O 0.53526 0.51049 0.66962 0.0
C204 C 0.58239 0.44011 0.7927 0.0
O205 O 0.51082 0.51099 0.18816 0.0
O206 O 0.47529 0.47641 0.03006 0.0
C207 C 0.62363 0.51518 0.05626 0.0
C208 C 0.63392 0.5856 0.57927 0.0
C209 C 0.62238 0.65151 0.48836 0.0
C210 C 0.66247 0.63647 0.49828 0.0
C211 C 0.66805 0.60372 0.54163 0.0
C212 C 0.59408 0.60109 0.57363 0.0
C213 C 0.58826 0.63329 0.52738 0.0
C214 C 0.64027 0.55308 0.63622 0.0
C215 C 0.54322 0.58766 0.96898 0.0
H216 H 0.4275 0.40646 0.39023 0.0
H217 H 0.42239 0.45978 0.29164 0.0
H218 H 0.54803 0.43772 0.14818 0.0
H219 H 0.55325 0.38385 0.24345 0.0
H220 H 0.68979 0.6503 0.47465 0.0
H221 H 0.69921 0.59306 0.54823 0.0
H222 H 0.56754 0.58861 0.60749 0.0
H223 H 0.55691 0.64378 0.52168 0.0
Tb224 Tb 0.06819 0.5552 0.83164 0.0
Tb225 Tb 1.0548 0.48057 0.93471 0.0
C226 C 1.04071 0.56318 0.12237 0.0
C227 C 0.10168 0.64954 0.8081 0.0
C228 C 0.1794 0.67336 0.764 0.0
C229 C 0.17169 0.66415 0.88193 0.0
C230 C 0.13266 0.65003 0.90089 0.0
C231 C 0.10595 0.67312 0.72514 0.0
C232 C 0.14544 0.68626 0.70546 0.0
C233 C 0.0749 0.61627 0.76627 0.0
O234 O 0.13014 0.54531 0.91474 0.0
O235 O 0.11218 0.50341 0.03344 0.0
O236 O 0.10072 0.47297 0.77939 0.0
O237 O 0.06595 0.50438 0.6624 0.0
O238 O 1.046 0.44632 0.06247 0.0
O239 O 0.05984 0.42124 0.85772 0.0
O240 O 0.99754 0.48379 0.82129 0.0
O241 O 1.00117 0.54558 0.81145 0.0
O242 O 0.06379 0.5752 0.04094 0.0
O243 O 1.0278 0.52756 0.09432 0.0
C244 C 0.1393 0.52649 1.00295 0.0
O245 O 0.09423 0.58431 0.70663 0.0
O246 O 1.04812 0.61162 0.85256 0.0
C247 C 0.08749 0.47396 0.66513 0.0
C248 C 1.01572 0.38773 0.96021 0.0
C249 C 0.93951 0.36839 0.03988 0.0
C250 C 0.94221 0.37897 0.92259 0.0
C251 C 0.98059 0.38983 0.8845 0.0
C252 C 1.01405 0.36639 0.05137 0.0
C253 C 0.97552 0.35496 0.08666 0.0
C254 C 1.04943 0.4147 0.96785 0.0
C255 C 0.98067 0.51351 0.79072 0.0
H256 H 0.19742 0.65846 0.9385 0.0
H257 H 0.12927 0.63386 0.97187 0.0
H258 H 0.08079 0.67618 0.6619 0.0
H259 H 0.15037 0.69884 0.62564 0.0
H260 H 0.91447 0.38756 0.88016 0.0
H261 H 0.98151 0.40491 0.80981 0.0
H262 H 1.0413 0.36285 0.10651 0.0
H263 H 0.97352 0.3427 0.16808 0.0
C264 C 0.18453 0.0395 0.45849 0.0
C265 C 0.22516 0.02829 0.48128 0.0
C266 C 0.15157 0.04037 0.54892 0.0
C267 C 0.1581 0.03064 0.66737 0.0
H268 H 0.17791 0.04587 0.36729 0.0
H269 H 0.12056 0.04762 0.52393 0.0
S270 S 0.26124 1.0082 0.78694 0.0
N271 N 0.27131 1.01412 0.64135 0.0
N272 N 0.21072 0.01549 0.80998 0.0
C273 C 0.19969 0.02361 0.69714 0.0
C274 C 0.23283 0.02275 0.60516 0.0
C275 C 0.53137 0.15332 0.60442 0.0
C276 C 0.53877 0.18897 0.69453 0.0
C277 C 0.5321 0.11919 0.6433 0.0
C278 C 0.54029 0.11947 0.77395 0.0
H279 H 0.52723 0.15152 0.50187 0.0
H280 H 0.52811 0.09235 0.56925 0.0
S281 S 0.55054 0.20645 0.05336 0.0
N282 N 0.54589 0.22295 0.92416 0.0
N283 N 0.5488 0.15958 0.9968 0.0
C284 C 0.54426 0.15537 0.86643 0.0
C285 C 0.54297 0.18987 0.82702 0.0
C286 C 0.38801 0.50413 0.55468 0.0
C287 C 0.39076 0.52708 0.46761 0.0
C288 C 0.42244 0.49852 0.6307 0.0
C289 C 0.4613 0.51537 0.6224 0.0
H290 H 0.35839 0.49212 0.56913 0.0
H291 H 0.41829 0.48158 0.69889 0.0
S292 S 0.4835 0.58046 0.41692 0.0
N293 N 0.43481 0.56809 0.38299 0.0
N294 N 0.49922 0.55692 0.52078 0.0
C295 C 0.46444 0.53756 0.533 0.0
C296 C 0.42937 0.5436 0.45735 0.0
C297 C 0.10898 0.37064 0.47113 0.0
C298 C 0.06994 0.35855 0.41805 0.0
C299 C 0.11543 0.40891 0.54329 0.0
C300 C 0.0834 0.4368 0.56237 0.0
H301 H 0.13372 0.34981 0.46502 0.0
H302 H 0.14514 0.41634 0.59008 0.0
S303 S 0.97583 0.4198 0.4404 0.0
N304 N 0.99908 0.37764 0.38982 0.0
N305 N 1.01171 0.44948 0.51657 0.0
C306 C 1.04507 0.42545 0.50255 0.0
C307 C 1.03823 0.38639 0.43291 0.0
C308 C 0.92892 0.97642 0.33833 0.0
C309 C 0.89929 1.00638 0.37665 0.0
C310 C 0.96313 0.97836 0.25495 0.0
C311 C 0.96806 1.00956 0.20117 0.0
H312 H 0.92418 0.95037 0.36619 0.0
H313 H 0.9843 0.95412 0.22565 0.0
S314 S 0.8994 0.0956 0.27403 0.0
N315 N 0.87956 0.06935 0.36254 0.0
N316 N 0.94054 0.07169 0.19892 0.0
C317 C 0.93949 0.04017 0.24339 0.0
C318 C 0.90629 0.03898 0.33296 0.0
C319 C 0.59747 0.87625 0.1336 0.0
C320 C 0.56524 0.84941 0.10141 0.0
C321 C 0.59529 0.91144 0.10187 0.0
C322 C 0.56139 0.9208 0.03262 0.0
H323 H 0.62504 0.86977 0.18153 0.0
H324 H 0.62095 0.93089 0.12823 0.0
S325 S 0.46843 0.861 0.92548 0.0
N326 N 0.49702 0.83643 1.00306 0.0
N327 N 0.49479 0.89998 0.93264 0.0
C328 C 0.52917 0.89408 0.99879 0.0
C329 C 0.53064 0.85913 0.03553 0.0
C330 C 0.72794 0.5355 0.24348 0.0
C331 C 0.72706 0.51155 0.32763 0.0
C332 C 0.69423 0.53762 0.15953 0.0
C333 C 0.65812 0.5155 0.1544 0.0
H334 H 0.75597 0.55093 0.23667 0.0
H335 H 0.69726 0.55573 0.09468 0.0
S336 S 0.64056 0.44853 0.3569 0.0
N337 N 0.68688 0.46598 0.40172 0.0
N338 N 0.62404 0.46973 0.2477 0.0
C339 C 0.6565 0.49268 0.24262 0.0
C340 C 0.69066 0.49076 0.32772 0.0
C341 C 1.00497 0.65416 0.35994 0.0
C342 C 1.04359 0.669 0.40992 0.0
C343 C 1.00157 0.61596 0.28135 0.0
C344 C 1.03643 0.59105 0.25361 0.0
H345 H 0.97836 0.67323 0.36969 0.0
H346 H 0.97272 0.6073 0.23054 0.0
S347 S 0.14352 0.61481 0.3686 0.0
N348 N 0.1168 0.65493 0.42574 0.0
N349 N 0.10929 0.58295 0.29506 0.0
C350 C 0.07372 0.60441 0.31659 0.0
C351 C 0.07772 0.64345 0.38926 0.0
C352 C 0.98689 0.21005 0.35566 0.0
C353 C 1.01744 0.2329 0.43102 0.0
C354 C 0.97406 0.17675 0.38418 0.0
C355 C 0.9916 0.1656 0.48867 0.0
H356 H 0.97436 0.21722 0.2709 0.0
H357 H 0.95168 0.15905 0.32115 0.0
S358 S 0.07171 0.21653 0.7172 0.0
N359 N 0.06416 0.24297 0.61541 0.0
N360 N 1.03972 0.18033 0.67044 0.0
C361 C 1.02109 0.18896 0.56745 0.0
C362 C 1.03406 0.22278 0.53846 0.0
C363 C 0.34087 0.9092 0.20782 0.0
C364 C 0.33397 0.94628 0.28883 0.0
C365 C 0.372 0.88582 0.23882 0.0
C366 C 0.39537 0.89867 0.35409 0.0
H367 H 0.32323 0.89895 0.11888 0.0
H368 H 0.37954 0.85867 0.16924 0.0
S369 S 0.38587 0.99331 0.60002 0.0
N370 N 0.35109 0.99444 0.48791 0.0
N371 N 0.40755 0.95046 0.55128 0.0
C372 C 0.38622 0.93494 0.43937 0.0
C373 C 0.35615 0.95885 0.40501 0.0
C374 C 0.57831 0.33863 0.81173 0.0
C375 C 0.58416 0.31737 0.68093 0.0
C376 C 0.58177 0.37838 0.84866 0.0
C377 C 0.59123 0.39843 0.75632 0.0
H378 H 0.56703 0.32486 0.88318 0.0
H379 H 0.57406 0.39374 0.94878 0.0
S380 S 0.61838 0.35464 0.40737 0.0
N381 N 0.6072 0.31801 0.46394 0.0
N382 N 0.61263 0.39317 0.53247 0.0
C383 C 0.60168 0.37708 0.62838 0.0
C384 C 0.59841 0.33639 0.59096 0.0
C385 C 0.26419 0.64143 0.50257 0.0
C386 C 0.26444 0.60159 0.48074 0.0
C387 C 0.23703 0.665 0.59578 0.0
C388 C 0.21041 0.64932 0.67211 0.0
H389 H 0.286 0.65431 0.45024 0.0
H390 H 0.2373 0.69556 0.60985 0.0
S391 S 0.19898 0.5458 0.64464 0.0
N392 N 0.23569 0.54743 0.53775 0.0
N393 N 0.18462 0.59057 0.71084 0.0
C394 C 0.20998 0.60916 0.64708 0.0
C395 C 0.23699 0.5856 0.55186 0.0
C396 C 0.13183 0.81018 0.44414 0.0
C397 C 0.09394 0.79459 0.39254 0.0
C398 C 0.14774 0.84186 0.4112 0.0
C399 C 0.12578 0.8583 0.32641 0.0
H400 H 0.14826 0.79853 0.51342 0.0
H401 H 0.1763 0.85438 0.45557 0.0
S402 S 1.02587 0.82685 0.16419 0.0
N403 N 1.03559 0.79669 0.25167 0.0
N404 N 0.06531 0.85644 0.18899 0.0
C405 C 0.08851 0.84215 0.27156 0.0
C406 C 0.07255 0.81008 0.30492 0.0
C407 C 0.7748 0.08109 0.46543 0.0
C408 C 0.76446 0.04341 0.39823 0.0
C409 C 0.75386 0.11214 0.44104 0.0
C410 C 0.72256 0.1063 0.34675 0.0
H411 H 0.79919 0.08638 0.53776 0.0
H412 H 0.76065 0.14068 0.50038 0.0
S413 S 0.68637 1.01227 0.14101 0.0
N414 N 0.72277 1.00149 0.23381 0.0
N415 N 0.68374 0.05934 0.18185 0.0
C416 C 0.71357 0.06841 0.27465 0.0
C417 C 0.73431 0.03705 0.30238 0.0
C418 C 0.578 0.68649 0.97296 0.0
C419 C 0.55407 0.71051 0.07354 0.0
C420 C 0.57371 0.64694 0.94069 0.0
C421 C 0.54606 0.62969 1.00979 0.0
H422 H 0.60156 0.69819 0.92286 0.0
H423 H 0.59335 0.62966 0.86321 0.0
S424 S 0.47676 0.68031 0.28343 0.0
N425 N 0.50133 0.71473 0.24143 0.0
N426 N 0.49462 0.63981 0.18439 0.0
C427 C 0.52221 0.65333 0.11166 0.0
C428 C 0.52587 0.69385 0.14244 0.0
C429 C 0.8523 0.3998 0.29003 0.0
C430 C 0.85625 0.43976 0.3249 0.0
C431 C 0.87975 0.37604 0.19901 0.0
C432 C 0.91141 0.39196 0.14085 0.0
H433 H 0.82644 0.38724 0.32777 0.0
H434 H 0.87532 0.34548 0.17057 0.0
S435 S 0.9371 0.49469 0.21184 0.0
N436 N 0.89526 0.49374 0.30098 0.0
N437 N 0.94813 0.44966 0.13636 0.0
C438 C 0.91716 0.43174 0.18247 0.0
C439 C 0.88925 0.45555 0.27327 0.0
C440 C 1.04864 0.20059 0.08166 0.0
C441 C 0.07073 0.21654 0.19762 0.0
C442 C 1.04885 0.16069 1.02145 0.0
C443 C 0.07052 0.13476 0.07597 0.0
H444 H 1.02922 0.21893 0.04132 0.0
H445 H 1.03034 0.15002 0.93453 0.0
S446 S 0.13547 0.16272 0.37506 0.0
N447 N 0.11693 0.20365 0.35948 0.0
N448 N 0.11682 0.12935 0.25072 0.0
C449 C 0.09401 0.1508 0.18944 0.0
C450 C 0.09425 0.19134 0.24881 0.0
C451 C 0.37929 0.03755 0.22979 0.0
C452 C 0.34943 1.01015 0.17241 0.0
C453 C 0.41813 0.03949 0.16745 0.0
C454 C 0.42954 1.01415 0.04412 0.0
H455 H 0.37334 0.05679 0.32593 0.0
H456 H 0.43977 0.0609 0.21822 0.0
S457 S 0.36254 0.9366 0.85289 0.0
N458 N 0.33419 0.95717 0.98408 0.0
N459 N 0.40649 0.96026 0.86943 0.0
C460 C 0.39964 0.98684 0.98567 0.0
C461 C 0.36012 0.98495 0.04905 0.0
C462 C 0.51841 0.29331 0.37092 0.0
C463 C 0.5118 0.29868 0.50559 0.0
C464 C 0.51024 0.32284 0.31229 0.0
C465 C 0.49481 0.35874 0.38632 0.0
H466 H 0.53268 0.26701 0.31285 0.0
H467 H 0.51737 0.31794 0.20912 0.0
S468 S 0.46957 0.38594 0.74174 0.0
N469 N 0.48638 0.34128 0.70961 0.0
N470 N 0.4715 0.39704 0.60118 0.0
C471 C 0.48597 0.36362 0.51997 0.0
C472 C 0.49425 0.33351 0.5791 0.0
C473 C 0.22898 0.51016 0.22583 0.0
C474 C 0.25729 0.53938 0.22741 0.0
C475 C 0.19181 0.50618 0.15209 0.0
C476 C 0.18097 0.53084 0.07414 0.0
H477 H 0.235 0.49088 0.28514 0.0
H478 H 0.17111 0.48352 0.15773 0.0
S479 S 0.24675 0.61045 0.03891 0.0
N480 N 0.27289 0.59248 0.14167 0.0
N481 N 0.20431 0.58483 1.0015 0.0
C482 C 0.20995 0.55951 0.07263 0.0
C483 C 0.24748 0.56381 0.14947 0.0
C484 C 0.07752 0.82812 0.72859 0.0
C485 C 1.04668 0.8113 0.63811 0.0
C486 C 0.07842 0.86806 0.78781 0.0
C487 C 1.04868 0.89343 0.75866 0.0
H488 H 0.10245 0.81038 0.7486 0.0
H489 H 0.10347 0.87919 0.85442 0.0
S490 S 0.96138 0.86355 0.52637 0.0
N491 N 0.98565 0.82308 0.52269 0.0
N492 N 0.98681 0.89743 0.63208 0.0
C493 C 1.01701 0.8766 0.67043 0.0
C494 C 1.0162 0.83593 0.61075 0.0
C495 C 0.73167 0.98389 0.58969 0.0
C496 C 0.76362 1.01054 0.63006 0.0
C497 C 0.69307 0.98715 0.65642 0.0
C498 C 0.68328 0.01761 0.7684 0.0
H499 H 0.73599 0.96088 0.50078 0.0
H500 H 0.6701 0.96573 0.61659 0.0
S501 S 0.75595 0.09586 0.91751 0.0
N502 N 0.78272 0.06889 0.79168 0.0
N503 N 0.71061 0.0751 0.91785 0.0
C504 C 0.71548 0.04414 0.81296 0.0
C505 C 0.75521 0.04072 0.74384 0.0
C506 C 0.5751 0.74298 0.43204 0.0
C507 C 0.59623 0.74611 0.31948 0.0
C508 C 0.58487 0.71339 0.4895 0.0
C509 C 0.61582 0.68545 0.43552 0.0
H510 H 0.54911 0.76199 0.47054 0.0
H511 H 0.56702 0.7117 0.57435 0.0
S512 S 0.6812 0.68285 0.14343 0.0
N513 N 0.65136 0.72117 0.16253 0.0
N514 N 0.66805 0.6643 0.26293 0.0
C515 C 0.63833 0.68963 0.32613 0.0
C516 C 0.62902 0.72028 0.27049 0.0
C517 C 0.87634 0.47323 0.63068 0.0
C518 C 0.8603 0.50204 0.57756 0.0
C519 C 0.91401 0.47747 0.70233 0.0
C520 C 0.93831 0.51064 0.72372 0.0
H521 H 0.8599 0.44664 0.61415 0.0
H522 H 0.92467 0.45399 0.73838 0.0
S523 S 0.91156 0.59407 0.59915 0.0
N524 N 0.87282 0.56457 0.54895 0.0
N525 N 0.94265 0.57287 0.68143 0.0
C526 C 0.92225 0.53985 0.67171 0.0
C527 C 0.88375 0.53552 0.59967 0.0
loop_
_geom_bond_atom_site_label_1
_geom_bond_atom_site_label_2
_geom_bond_distance
_geom_bond_site_symmetry_2
_ccdc_geom_bond_type
C0 N1 1.317 . S
C0 N2 1.348 . S
C0 C3 1.485 . S
N1 C0 1.317 . S
N1 N5 1.370 . S
N2 C0 1.348 . S
N2 C4 1.346 . S
C3 C0 1.485 . S
C3 H7 0.960 . S
C3 H8 0.961 . S
C3 H9 0.960 . S
C4 N2 1.346 . S
C4 N5 1.307 . S
C4 C6 1.486 . S
N5 N1 1.370 . S
N5 C4 1.307 . S
C6 C4 1.486 . S
C6 H10 0.960 . S
C6 H11 0.960 . S
C6 H12 0.959 . S
H7 C3 0.960 . S
H8 C3 0.961 . S
H9 C3 0.960 . S
H10 C6 0.960 . S
H11 C6 0.960 . S
H12 C6 0.959 . S
C13 N14 1.317 . S
C13 N15 1.348 . S
C13 C16 1.485 . S
N14 C13 1.317 . S
N14 N18 1.371 . S
N15 C13 1.348 . S
N15 C17 1.346 1_655 S
C16 C13 1.485 . S
C16 H20 0.960 1_655 S
C16 H21 0.961 . S
C16 H22 0.960 . S
C17 N15 1.346 1_455 S
C17 N18 1.307 1_455 S
C17 C19 1.486 . S
N18 N14 1.371 . S
N18 C17 1.307 1_655 S
C19 C17 1.486 . S
C19 H23 0.960 1_455 S
C19 H24 0.960 . S
C19 H25 0.959 . S
H20 C16 0.960 1_455 S
H21 C16 0.961 . S
H22 C16 0.960 . S
H23 C19 0.960 1_655 S
H24 C19 0.960 . S
H25 C19 0.959 . S
C26 N27 1.317 . S
C26 N28 1.348 . S
C26 C29 1.485 . S
N27 C26 1.317 . S
N27 N31 1.375 . S
N28 C26 1.348 . S
N28 C30 1.345 1_565 S
C29 C26 1.485 . S
C29 H33 0.960 1_565 S
C29 H34 0.961 . S
C29 H35 0.960 . S
C30 N28 1.345 1_545 S
C30 N31 1.304 1_545 S
C30 C32 1.487 . S
N31 N27 1.375 . S
N31 C30 1.304 1_565 S
C32 C30 1.487 . S
C32 H36 0.960 1_545 S
C32 H37 0.960 . S
C32 H38 0.959 . S
H33 C29 0.960 1_545 S
H34 C29 0.961 . S
H35 C29 0.960 . S
H36 C32 0.960 1_565 S
H37 C32 0.960 . S
H38 C32 0.959 . S
C39 N40 1.317 . S
C39 N41 1.348 1_554 S
C39 C42 1.485 . S
N40 C39 1.317 . S
N40 N44 1.370 1_554 S
N41 C39 1.348 1_556 S
N41 C43 1.346 . S
C42 C39 1.485 . S
C42 H46 0.960 . S
C42 H47 0.961 . S
C42 H48 0.960 . S
C43 N41 1.346 . S
C43 N44 1.307 . S
C43 C45 1.486 . S
N44 N40 1.370 1_556 S
N44 C43 1.307 . S
C45 C43 1.486 . S
C45 H49 0.960 . S
C45 H50 0.960 . S
C45 H51 0.959 . S
H46 C42 0.960 . S
H47 C42 0.961 . S
H48 C42 0.960 . S
H49 C45 0.960 . S
H50 C45 0.960 . S
H51 C45 0.959 . S
C52 N53 1.317 . S
C52 N54 1.348 . S
C52 C55 1.485 1_554 S
N53 C52 1.317 . S
N53 N57 1.370 . S
N54 C52 1.348 . S
N54 C56 1.346 . S
C55 C52 1.485 1_556 S
C55 H59 0.960 . S
C55 H60 0.961 . S
C55 H61 0.960 . S
C56 N54 1.346 . S
C56 N57 1.307 . S
C56 C58 1.486 . S
N57 N53 1.370 . S
N57 C56 1.307 . S
C58 C56 1.486 . S
C58 H62 0.960 . S
C58 H63 0.960 . S
C58 H64 0.959 . S
H59 C55 0.960 . S
H60 C55 0.961 . S
H61 C55 0.960 . S
H62 C58 0.960 . S
H63 C58 0.960 . S
H64 C58 0.959 . S
C65 N66 1.317 . S
C65 N67 1.350 . S
C65 C68 1.485 . S
N66 C65 1.317 . S
N66 N70 1.371 . S
N67 C65 1.350 . S
N67 C69 1.346 1_655 S
C68 C65 1.485 . S
C68 H72 0.960 1_655 S
C68 H73 0.961 . S
C68 H74 0.960 1_554 S
C69 N67 1.346 1_455 S
C69 N70 1.307 1_455 S
C69 C71 1.486 . S
N70 N66 1.371 . S
N70 C69 1.307 1_655 S
C71 C69 1.486 . S
C71 H75 0.960 1_455 S
C71 H76 0.960 . S
C71 H77 0.959 . S
H72 C68 0.960 1_455 S
H73 C68 0.961 . S
H74 C68 0.960 1_556 S
H75 C71 0.960 1_655 S
H76 C71 0.960 . S
H77 C71 0.959 . S
C78 N79 1.317 . S
C78 N80 1.348 . S
C78 C81 1.485 1_554 S
N79 C78 1.317 . S
N79 N83 1.369 . S
N80 C78 1.348 . S
N80 C82 1.348 1_565 S
C81 C78 1.485 1_556 S
C81 H85 0.960 1_565 S
C81 H86 0.961 . S
C81 H87 0.960 . S
C82 N80 1.348 1_545 S
C82 N83 1.309 1_545 S
C82 C84 1.483 . S
N83 N79 1.369 . S
N83 C82 1.309 1_565 S
C84 C82 1.483 . S
C84 H88 0.960 1_545 S
C84 H89 0.960 . S
C84 H90 0.959 . S
H85 C81 0.960 1_545 S
H86 C81 0.961 . S
H87 C81 0.960 . S
H88 C84 0.960 1_565 S
H89 C84 0.960 . S
H90 C84 0.959 . S
C91 N92 1.317 . S
C91 N93 1.348 . S
C91 C94 1.485 . S
N92 C91 1.317 . S
N92 N96 1.370 . S
N93 C91 1.348 . S
N93 C95 1.346 . S
C94 C91 1.485 . S
C94 H98 0.960 . S
C94 H99 0.961 . S
C94 H100 0.960 . S
C95 N93 1.346 . S
C95 N96 1.307 . S
C95 C97 1.490 . S
N96 N92 1.370 . S
N96 C95 1.307 . S
C97 C95 1.490 . S
C97 H101 0.958 1_556 S
C97 H102 0.959 1_556 S
C97 H103 0.958 1_556 S
H98 C94 0.960 . S
H99 C94 0.961 . S
H100 C94 0.960 . S
H101 C97 0.958 1_554 S
H102 C97 0.959 1_554 S
H103 C97 0.958 1_554 S
Tb104 C113 2.764 . S
Tb104 O114 2.325 . S
Tb104 O117 2.303 1_655 S
Tb104 O121 2.322 1_545 S
Tb104 O122 2.349 . S
Tb104 O125 2.415 . S
Tb104 O126 2.399 . S
Tb105 O115 2.322 1_565 S
Tb105 O116 2.349 1_554 S
Tb105 O118 2.415 . S
Tb105 O119 2.399 . S
Tb105 O120 2.325 1_554 S
Tb105 O123 2.303 1_454 S
Tb105 C134 2.764 . S
C106 O122 1.261 . S
C106 O123 1.257 1_545 S
C107 C110 1.358 . S
C107 C111 1.332 . S
C107 C113 1.504 . S
C108 C109 1.373 . S
C108 C112 1.308 . S
C109 C108 1.373 . S
C109 C110 1.429 . S
C109 H136 0.932 . S
C110 C107 1.358 . S
C110 C109 1.429 . S
C110 H137 0.930 . S
C111 C107 1.332 . S
C111 C112 1.394 . S
C111 H138 0.950 . S
C112 C108 1.308 . S
C112 C111 1.394 . S
C112 H139 0.929 . S
C113 Tb104 2.764 . S
C113 C107 1.504 . S
C113 O125 1.239 . S
C113 O126 1.263 . S
O114 Tb104 2.325 . S
O114 C124 1.236 1_655 S
O115 Tb105 2.322 1_545 S
O115 C124 1.257 1_554 S
O116 Tb105 2.349 1_556 S
O116 C127 1.261 . S
O117 Tb104 2.303 1_455 S
O117 C127 1.257 1_545 S
O118 Tb105 2.415 . S
O118 C134 1.239 . S
O119 Tb105 2.399 . S
O119 C134 1.263 . S
O120 Tb105 2.325 1_556 S
O120 C135 1.236 1_455 S
O121 Tb104 2.322 1_565 S
O121 C135 1.257 . S
O122 Tb104 2.349 . S
O122 C106 1.261 . S
O123 Tb105 2.303 1_656 S
O123 C106 1.257 1_565 S
C124 O114 1.236 1_455 S
C124 O115 1.257 1_556 S
O125 Tb104 2.415 . S
O125 C113 1.239 . S
O126 Tb104 2.399 . S
O126 C113 1.263 . S
C127 O116 1.261 . S
C127 O117 1.257 1_565 S
C128 C131 1.358 . S
C128 C132 1.332 . S
C128 C134 1.504 . S
C129 C130 1.373 . S
C129 C133 1.308 . S
C130 C129 1.373 . S
C130 C131 1.429 . S
C130 H140 0.932 . S
C131 C128 1.358 . S
C131 C130 1.429 . S
C131 H141 0.930 . S
C132 C128 1.332 . S
C132 C133 1.394 . S
C132 H142 0.957 . S
C133 C129 1.308 . S
C133 C132 1.394 . S
C133 H143 0.929 . S
C134 Tb105 2.764 . S
C134 O118 1.239 . S
C134 O119 1.263 . S
C134 C128 1.504 . S
C135 O120 1.236 1_655 S
C135 O121 1.257 . S
H136 C109 0.932 . S
H137 C110 0.930 . S
H138 C111 0.950 . S
H139 C112 0.929 . S
H140 C130 0.932 . S
H141 C131 0.930 . S
H142 C132 0.957 . S
H143 C133 0.929 . S
Tb144 C153 2.764 . S
Tb144 O154 2.325 . S
Tb144 O157 2.303 1_565 S
Tb144 O161 2.322 . S
Tb144 O162 2.349 . S
Tb144 O165 2.415 1_565 S
Tb144 O166 2.399 . S
Tb145 O155 2.322 . S
Tb145 O156 2.349 . S
Tb145 O158 2.415 1_545 S
Tb145 O159 2.399 . S
Tb145 O160 2.325 1_554 S
Tb145 O163 2.303 1_544 S
Tb145 C174 2.764 . S
C146 O162 1.261 . S
C146 O163 1.257 . S
C147 C150 1.358 . S
C147 C151 1.332 1_565 S
C147 C153 1.504 . S
C148 C149 1.373 . S
C148 C152 1.311 . S
C149 C148 1.373 . S
C149 C150 1.429 . S
C149 H176 0.932 . S
C150 C147 1.358 . S
C150 C149 1.429 . S
C150 H177 0.930 . S
C151 C147 1.332 1_545 S
C151 C152 1.395 1_545 S
C151 H178 0.932 . S
C152 C148 1.311 . S
C152 C151 1.395 1_565 S
C152 H179 0.925 1_565 S
C153 Tb144 2.764 . S
C153 C147 1.504 . S
C153 O165 1.239 1_565 S
C153 O166 1.263 . S
O154 Tb144 2.325 . S
O154 C164 1.236 1_565 S
O155 Tb145 2.322 . S
O155 C164 1.257 1_554 S
O156 Tb145 2.349 . S
O156 C167 1.261 1_554 S
O157 Tb144 2.303 1_545 S
O157 C167 1.257 . S
O158 Tb145 2.415 1_565 S
O158 C174 1.239 1_565 S
O159 Tb145 2.399 . S
O159 C174 1.263 . S
O160 Tb145 2.325 1_556 S
O160 C175 1.236 1_545 S
O161 Tb144 2.322 . S
O161 C175 1.257 . S
O162 Tb144 2.349 . S
O162 C146 1.261 . S
O163 Tb145 2.303 1_566 S
O163 C146 1.257 . S
C164 O154 1.236 1_545 S
C164 O155 1.257 1_556 S
O165 Tb144 2.415 1_545 S
O165 C153 1.239 1_545 S
O166 Tb144 2.399 . S
O166 C153 1.263 . S
C167 O156 1.261 1_556 S
C167 O157 1.257 . S
C168 C171 1.358 . S
C168 C172 1.332 1_545 S
C168 C174 1.504 . S
C169 C170 1.373 . S
C169 C173 1.316 . S
C170 C169 1.373 . S
C170 C171 1.429 . S
C170 H180 0.932 . S
C171 C168 1.358 . S
C171 C170 1.429 . S
C171 H181 0.930 . S
C172 C168 1.332 1_565 S
C172 C173 1.396 1_565 S
C172 H182 0.932 . S
C173 C169 1.316 . S
C173 C172 1.396 1_545 S
C173 H183 0.919 1_545 S
C174 Tb145 2.764 . S
C174 O158 1.239 1_545 S
C174 O159 1.263 . S
C174 C168 1.504 . S
C175 O160 1.236 1_565 S
C175 O161 1.257 . S
H176 C149 0.932 . S
H177 C150 0.930 . S
H178 C151 0.932 . S
H179 C152 0.925 1_545 S
H180 C170 0.932 . S
H181 C171 0.930 . S
H182 C172 0.932 . S
H183 C173 0.919 1_565 S
Tb184 C193 2.764 . S
Tb184 O194 2.325 1_554 S
Tb184 O197 2.303 1_554 S
Tb184 O201 2.322 1_554 S
Tb184 O202 2.349 1_554 S
Tb184 O205 2.415 . S
Tb184 O206 2.399 . S
Tb185 O195 2.322 . S
Tb185 O196 2.349 . S
Tb185 O198 2.415 . S
Tb185 O199 2.399 . S
Tb185 O200 2.325 . S
Tb185 O203 2.303 . S
Tb185 C214 2.764 . S
C186 O202 1.261 . S
C186 O203 1.257 . S
C187 C190 1.358 . S
C187 C191 1.332 . S
C187 C193 1.504 . S
C188 C189 1.373 . S
C188 C192 1.308 . S
C189 C188 1.373 . S
C189 C190 1.429 . S
C189 H216 0.932 . S
C190 C187 1.358 . S
C190 C189 1.429 . S
C190 H217 0.930 . S
C191 C187 1.332 . S
C191 C192 1.394 . S
C191 H218 0.932 . S
C192 C188 1.308 . S
C192 C191 1.394 . S
C192 H219 0.929 . S
C193 Tb184 2.764 . S
C193 C187 1.504 . S
C193 O205 1.239 . S
C193 O206 1.263 . S
O194 Tb184 2.325 1_556 S
O194 C204 1.236 . S
O195 Tb185 2.322 . S
O195 C204 1.257 . S
O196 Tb185 2.349 . S
O196 C207 1.261 . S
O197 Tb184 2.303 1_556 S
O197 C207 1.257 . S
O198 Tb185 2.415 . S
O198 C214 1.239 . S
O199 Tb185 2.399 . S
O199 C214 1.263 . S
O200 Tb185 2.325 . S
O200 C215 1.236 . S
O201 Tb184 2.322 1_556 S
O201 C215 1.257 . S
O202 Tb184 2.349 1_556 S
O202 C186 1.261 . S
O203 Tb185 2.303 . S
O203 C186 1.257 . S
C204 O194 1.236 . S
C204 O195 1.257 . S
O205 Tb184 2.415 . S
O205 C193 1.239 . S
O206 Tb184 2.399 . S
O206 C193 1.263 . S
C207 O196 1.261 . S
C207 O197 1.257 . S
C208 C211 1.358 . S
C208 C212 1.332 . S
C208 C214 1.504 . S
C209 C210 1.373 . S
C209 C213 1.308 . S
C210 C209 1.373 . S
C210 C211 1.429 . S
C210 H220 0.932 . S
C211 C208 1.358 . S
C211 C210 1.429 . S
C211 H221 0.930 . S
C212 C208 1.332 . S
C212 C213 1.394 . S
C212 H222 0.932 . S
C213 C209 1.308 . S
C213 C212 1.394 . S
C213 H223 0.929 . S
C214 Tb185 2.764 . S
C214 O198 1.239 . S
C214 O199 1.263 . S
C214 C208 1.504 . S
C215 O200 1.236 . S
C215 O201 1.257 . S
H216 C189 0.932 . S
H217 C190 0.930 . S
H218 C191 0.932 . S
H219 C192 0.929 . S
H220 C210 0.932 . S
H221 C211 0.930 . S
H222 C212 0.932 . S
H223 C213 0.929 . S
Tb224 C233 2.764 . S
Tb224 O234 2.325 . S
Tb224 O237 2.303 . S
Tb224 O241 2.322 1_455 S
Tb224 O242 2.349 . S
Tb224 O245 2.415 . S
Tb224 O246 2.399 . S
Tb225 O235 2.322 1_654 S
Tb225 O236 2.349 1_554 S
Tb225 O238 2.415 . S
Tb225 O239 2.399 . S
Tb225 O240 2.325 1_554 S
Tb225 O243 2.303 . S
Tb225 C254 2.764 . S
C226 O242 1.261 1_554 S
C226 O243 1.257 1_455 S
C227 C230 1.358 . S
C227 C231 1.332 . S
C227 C233 1.504 . S
C228 C229 1.373 . S
C228 C232 1.308 . S
C229 C228 1.373 . S
C229 C230 1.429 . S
C229 H256 0.932 . S
C230 C227 1.358 . S
C230 C229 1.429 . S
C230 H257 0.930 . S
C231 C227 1.332 . S
C231 C232 1.394 . S
C231 H258 0.932 . S
C232 C228 1.308 . S
C232 C231 1.394 . S
C232 H259 0.929 . S
C233 Tb224 2.764 . S
C233 C227 1.504 . S
C233 O245 1.239 . S
C233 O246 1.263 . S
O234 Tb224 2.325 . S
O234 C244 1.236 . S
O235 Tb225 2.322 1_456 S
O235 C244 1.257 . S
O236 Tb225 2.349 1_556 S
O236 C247 1.261 . S
O237 Tb224 2.303 . S
O237 C247 1.257 1_455 S
O238 Tb225 2.415 . S
O238 C254 1.239 . S
O239 Tb225 2.399 . S
O239 C254 1.263 . S
O240 Tb225 2.325 1_556 S
O240 C255 1.236 . S
O241 Tb224 2.322 1_655 S
O241 C255 1.257 . S
O242 Tb224 2.349 . S
O242 C226 1.261 1_556 S
O243 Tb225 2.303 . S
O243 C226 1.257 1_655 S
C244 O234 1.236 . S
C244 O235 1.257 . S
O245 Tb224 2.415 . S
O245 C233 1.239 . S
O246 Tb224 2.399 . S
O246 C233 1.263 . S
C247 O236 1.261 . S
C247 O237 1.257 1_655 S
C248 C251 1.358 . S
C248 C252 1.332 . S
C248 C254 1.504 . S
C249 C250 1.373 . S
C249 C253 1.308 . S
C250 C249 1.373 . S
C250 C251 1.429 . S
C250 H260 0.932 . S
C251 C248 1.358 . S
C251 C250 1.429 . S
C251 H261 0.930 . S
C252 C248 1.332 . S
C252 C253 1.394 . S
C252 H262 0.932 . S
C253 C249 1.308 . S
C253 C252 1.394 . S
C253 H263 0.929 . S
C254 Tb225 2.764 . S
C254 O238 1.239 . S
C254 O239 1.263 . S
C254 C248 1.504 . S
C255 O240 1.236 . S
C255 O241 1.257 . S
H256 C229 0.932 . S
H257 C230 0.930 . S
H258 C231 0.932 . S
H259 C232 0.929 . S
H260 C250 0.932 . S
H261 C251 0.930 . S
H262 C252 0.932 . S
H263 C253 0.929 . S
C264 C265 1.344 1_565 S
C264 C266 1.419 . S
C264 H268 0.930 . S
C265 C264 1.344 1_545 S
C265 C274 1.446 . S
C266 C264 1.419 . S
C266 C267 1.363 1_565 S
C266 H269 0.929 . S
C267 C266 1.363 1_545 S
C267 C273 1.428 . S
H268 C264 0.930 . S
H269 C266 0.929 . S
S270 N271 1.613 . S
S270 N272 1.610 . S
N271 S270 1.613 . S
N271 C274 1.350 . S
N272 S270 1.610 . S
N272 C273 1.351 . S
C273 C267 1.428 . S
C273 N272 1.351 . S
C273 C274 1.434 . S
C274 C265 1.446 . S
C274 N271 1.350 . S
C274 C273 1.434 . S
C275 C276 1.369 . S
C275 C277 1.419 . S
C275 H279 0.930 . S
C276 C275 1.369 . S
C276 C285 1.429 . S
C277 C275 1.419 . S
C277 C278 1.363 . S
C277 H280 0.929 . S
C278 C277 1.363 . S
C278 C284 1.428 . S
H279 C275 0.930 . S
H280 C277 0.929 . S
S281 N282 1.613 1_554 S
S281 N283 1.610 . S
N282 S281 1.613 1_556 S
N282 C285 1.350 . S
N283 S281 1.610 . S
N283 C284 1.351 1_554 S
C284 C278 1.428 . S
C284 N283 1.351 1_556 S
C284 C285 1.434 . S
C285 C276 1.429 . S
C285 N282 1.350 . S
C285 C284 1.434 . S
C286 C287 1.369 . S
C286 C288 1.419 . S
C286 H290 0.930 . S
C287 C286 1.369 . S
C287 C296 1.429 . S
C288 C286 1.419 . S
C288 C289 1.363 . S
C288 H291 0.929 . S
C289 C288 1.363 . S
C289 C295 1.428 . S
H290 C286 0.930 . S
H291 C288 0.929 . S
S292 N293 1.613 . S
S292 N294 1.610 . S
N293 S292 1.613 . S
N293 C296 1.350 . S
N294 S292 1.610 . S
N294 C295 1.351 . S
C295 C289 1.428 . S
C295 N294 1.351 . S
C295 C296 1.434 . S
C296 C287 1.429 . S
C296 N293 1.350 . S
C296 C295 1.434 . S
C297 C298 1.371 . S
C297 C299 1.419 . S
C297 H301 0.930 . S
C298 C297 1.371 . S
C298 C307 1.427 1_455 S
C299 C297 1.419 . S
C299 C300 1.375 . S
C299 H302 0.929 . S
C300 C299 1.375 . S
C300 C306 1.416 1_455 S
H301 C297 0.930 . S
H302 C299 0.929 . S
S303 N304 1.613 . S
S303 N305 1.610 . S
N304 S303 1.613 . S
N304 C307 1.350 . S
N305 S303 1.610 . S
N305 C306 1.351 . S
C306 C300 1.416 1_655 S
C306 N305 1.351 . S
C306 C307 1.434 . S
C307 C298 1.427 1_655 S
C307 N304 1.350 . S
C307 C306 1.434 . S
C308 C309 1.368 1_565 S
C308 C310 1.419 . S
C308 H312 0.930 . S
C309 C308 1.368 1_545 S
C309 C318 1.431 . S
C310 C308 1.419 . S
C310 C311 1.375 . S
C310 H313 0.929 . S
C311 C310 1.375 . S
C311 C317 1.421 1_565 S
H312 C308 0.930 . S
H313 C310 0.929 . S
S314 N315 1.613 . S
S314 N316 1.610 . S
N315 S314 1.613 . S
N315 C318 1.350 . S
N316 S314 1.610 . S
N316 C317 1.351 . S
C317 C311 1.421 1_545 S
C317 N316 1.351 . S
C317 C318 1.434 . S
C318 C309 1.431 . S
C318 N315 1.350 . S
C318 C317 1.434 . S
C319 C320 1.369 . S
C319 C321 1.419 . S
C319 H323 0.930 . S
C320 C319 1.369 . S
C320 C329 1.429 . S
C321 C319 1.419 . S
C321 C322 1.363 . S
C321 H324 0.929 . S
C322 C321 1.363 . S
C322 C328 1.428 . S
H323 C319 0.930 . S
H324 C321 0.929 . S
S325 N326 1.613 . S
S325 N327 1.610 . S
N326 S325 1.613 . S
N326 C329 1.350 . S
N327 S325 1.610 . S
N327 C328 1.351 . S
C328 C322 1.428 . S
C328 N327 1.351 . S
C328 C329 1.434 . S
C329 C320 1.429 . S
C329 N326 1.350 . S
C329 C328 1.434 . S
C330 C331 1.369 . S
C330 C332 1.419 . S
C330 H334 0.930 . S
C331 C330 1.369 . S
C331 C340 1.429 . S
C332 C330 1.419 . S
C332 C333 1.363 . S
C332 H335 0.929 . S
C333 C332 1.363 . S
C333 C339 1.428 . S
H334 C330 0.930 . S
H335 C332 0.929 . S
S336 N337 1.613 . S
S336 N338 1.610 . S
N337 S336 1.613 . S
N337 C340 1.350 . S
N338 S336 1.610 . S
N338 C339 1.351 . S
C339 C333 1.428 . S
C339 N338 1.351 . S
C339 C340 1.434 . S
C340 C331 1.429 . S
C340 N337 1.350 . S
C340 C339 1.434 . S
C341 C342 1.368 . S
C341 C343 1.419 . S
C341 H345 0.930 . S
C342 C341 1.368 . S
C342 C351 1.430 1_655 S
C343 C341 1.419 . S
C343 C344 1.379 . S
C343 H346 0.929 . S
C344 C343 1.379 . S
C344 C350 1.412 1_655 S
H345 C341 0.930 . S
H346 C343 0.929 . S
S347 N348 1.613 . S
S347 N349 1.610 . S
N348 S347 1.613 . S
N348 C351 1.350 . S
N349 S347 1.610 . S
N349 C350 1.351 . S
C350 C344 1.412 1_455 S
C350 N349 1.351 . S
C350 C351 1.434 . S
C351 C342 1.430 1_455 S
C351 N348 1.350 . S
C351 C350 1.434 . S
C352 C353 1.369 . S
C352 C354 1.419 . S
C352 H356 0.930 . S
C353 C352 1.369 . S
C353 C362 1.429 . S
C354 C352 1.419 . S
C354 C355 1.363 . S
C354 H357 0.929 . S
C355 C354 1.363 . S
C355 C361 1.428 . S
H356 C352 0.930 . S
H357 C354 0.929 . S
S358 N359 1.613 . S
S358 N360 1.610 1_455 S
N359 S358 1.613 . S
N359 C362 1.350 1_455 S
N360 S358 1.610 1_655 S
N360 C361 1.351 . S
C361 C355 1.428 . S
C361 N360 1.351 . S
C361 C362 1.434 . S
C362 C353 1.429 . S
C362 N359 1.350 1_655 S
C362 C361 1.434 . S
C363 C364 1.369 1_565 S
C363 C365 1.419 . S
C363 H367 0.930 . S
C364 C363 1.369 1_545 S
C364 C373 1.429 . S
C365 C363 1.419 . S
C365 C366 1.363 . S
C365 H368 0.929 . S
C366 C365 1.363 . S
C366 C372 1.428 . S
H367 C363 0.930 . S
H368 C365 0.929 . S
S369 N370 1.613 . S
S369 N371 1.610 . S
N370 S369 1.613 . S
N370 C373 1.350 . S
N371 S369 1.610 . S
N371 C372 1.351 1_545 S
C372 C366 1.428 . S
C372 N371 1.351 1_565 S
C372 C373 1.434 1_565 S
C373 C364 1.429 . S
C373 N370 1.350 . S
C373 C372 1.434 1_545 S
C374 C375 1.369 . S
C374 C376 1.419 . S
C374 H378 0.930 1_556 S
C375 C374 1.369 . S
C375 C384 1.429 . S
C376 C374 1.419 . S
C376 C377 1.363 . S
C376 H379 0.929 . S
C377 C376 1.363 . S
C377 C383 1.428 . S
H378 C374 0.930 1_554 S
H379 C376 0.929 . S
S380 N381 1.613 . S
S380 N382 1.610 . S
N381 S380 1.613 . S
N381 C384 1.350 . S
N382 S380 1.610 . S
N382 C383 1.351 . S
C383 C377 1.428 . S
C383 N382 1.351 . S
C383 C384 1.434 . S
C384 C375 1.429 . S
C384 N381 1.350 . S
C384 C383 1.434 . S
C385 C386 1.369 . S
C385 C387 1.419 . S
C385 H389 0.930 . S
C386 C385 1.369 . S
C386 C395 1.429 . S
C387 C385 1.419 . S
C387 C388 1.363 . S
C387 H390 0.929 . S
C388 C387 1.363 . S
C388 C394 1.428 . S
H389 C385 0.930 . S
H390 C387 0.929 . S
S391 N392 1.613 . S
S391 N393 1.610 . S
N392 S391 1.613 . S
N392 C395 1.350 . S
N393 S391 1.610 . S
N393 C394 1.351 . S
C394 C388 1.428 . S
C394 N393 1.351 . S
C394 C395 1.434 . S
C395 C386 1.429 . S
C395 N392 1.350 . S
C395 C394 1.434 . S
C396 C397 1.369 . S
C396 C398 1.419 . S
C396 H400 0.930 . S
C397 C396 1.369 . S
C397 C406 1.429 . S
C398 C396 1.419 . S
C398 C399 1.363 . S
C398 H401 0.929 . S
C399 C398 1.363 . S
C399 C405 1.428 . S
H400 C396 0.930 . S
H401 C398 0.929 . S
S402 N403 1.613 . S
S402 N404 1.610 1_655 S
N403 S402 1.613 . S
N403 C406 1.350 1_655 S
N404 S402 1.610 1_455 S
N404 C405 1.351 . S
C405 C399 1.428 . S
C405 N404 1.351 . S
C405 C406 1.434 . S
C406 C397 1.429 . S
C406 N403 1.350 1_455 S
C406 C405 1.434 . S
C407 C408 1.369 1_545 S
C407 C409 1.419 . S
C407 H411 0.930 . S
C408 C407 1.369 1_565 S
C408 C417 1.429 . S
C409 C407 1.419 . S
C409 C410 1.363 . S
C409 H412 0.929 . S
C410 C409 1.363 . S
C410 C416 1.414 1_545 S
H411 C407 0.930 . S
H412 C409 0.929 . S
S413 N414 1.613 . S
S413 N415 1.610 . S
N414 S413 1.613 . S
N414 C417 1.350 . S
N415 S413 1.610 . S
N415 C416 1.357 . S
C416 C410 1.414 1_565 S
C416 N415 1.357 . S
C416 C417 1.443 . S
C417 C408 1.429 . S
C417 N414 1.350 . S
C417 C416 1.443 . S
C418 C419 1.369 . S
C418 C420 1.419 . S
C418 H422 0.930 . S
C419 C418 1.369 . S
C419 C428 1.429 . S
C420 C418 1.419 . S
C420 C421 1.363 . S
C420 H423 0.929 . S
C421 C420 1.363 . S
C421 C427 1.428 . S
H422 C418 0.930 . S
H423 C420 0.929 . S
S424 N425 1.613 . S
S424 N426 1.610 . S
N425 S424 1.613 . S
N425 C428 1.350 1_554 S
N426 S424 1.610 . S
N426 C427 1.351 1_554 S
C427 C421 1.428 . S
C427 N426 1.351 1_556 S
C427 C428 1.434 . S
C428 C419 1.429 . S
C428 N425 1.350 1_556 S
C428 C427 1.434 . S
C429 C430 1.369 . S
C429 C431 1.419 . S
C429 H433 0.930 . S
C430 C429 1.369 . S
C430 C439 1.429 . S
C431 C429 1.419 . S
C431 C432 1.363 . S
C431 H434 0.929 . S
C432 C431 1.363 . S
C432 C438 1.428 . S
H433 C429 0.930 . S
H434 C431 0.929 . S
S435 N436 1.613 . S
S435 N437 1.610 . S
N436 S435 1.613 . S
N436 C439 1.350 . S
N437 S435 1.610 . S
N437 C438 1.351 . S
C438 C432 1.428 . S
C438 N437 1.351 . S
C438 C439 1.434 . S
C439 C430 1.429 . S
C439 N436 1.350 . S
C439 C438 1.434 . S
C440 C441 1.369 1_656 S
C440 C442 1.419 . S
C440 H444 0.930 . S
C441 C440 1.369 1_454 S
C441 C450 1.429 . S
C442 C440 1.419 . S
C442 C443 1.363 1_656 S
C442 H445 0.929 . S
C443 C442 1.363 1_454 S
C443 C449 1.428 . S
H444 C440 0.930 . S
H445 C442 0.929 . S
S446 N447 1.613 . S
S446 N448 1.610 . S
N447 S446 1.613 . S
N447 C450 1.350 . S
N448 S446 1.610 . S
N448 C449 1.351 . S
C449 C443 1.428 . S
C449 N448 1.351 . S
C449 C450 1.434 . S
C450 C441 1.429 . S
C450 N447 1.350 . S
C450 C449 1.434 . S
C451 C452 1.369 . S
C451 C453 1.419 . S
C451 H455 0.930 . S
C452 C451 1.369 . S
C452 C461 1.428 1_554 S
C453 C451 1.419 . S
C453 C454 1.363 . S
C453 H456 0.929 . S
C454 C453 1.363 . S
C454 C460 1.428 1_554 S
H455 C451 0.930 . S
H456 C453 0.929 . S
S457 N458 1.613 . S
S457 N459 1.610 . S
N458 S457 1.613 . S
N458 C461 1.350 1_565 S
N459 S457 1.610 . S
N459 C460 1.351 1_565 S
C460 C454 1.428 1_556 S
C460 N459 1.351 1_545 S
C460 C461 1.434 . S
C461 C452 1.428 1_556 S
C461 N458 1.350 1_545 S
C461 C460 1.434 . S
C462 C463 1.369 . S
C462 C464 1.419 . S
C462 H466 0.930 . S
C463 C462 1.369 . S
C463 C472 1.429 . S
C464 C462 1.419 . S
C464 C465 1.363 . S
C464 H467 0.929 . S
C465 C464 1.363 . S
C465 C471 1.428 . S
H466 C462 0.930 . S
H467 C464 0.929 . S
S468 N469 1.613 . S
S468 N470 1.610 . S
N469 S468 1.613 . S
N469 C472 1.350 . S
N470 S468 1.610 . S
N470 C471 1.351 . S
C471 C465 1.428 . S
C471 N470 1.351 . S
C471 C472 1.434 . S
C472 C463 1.429 . S
C472 N469 1.350 . S
C472 C471 1.434 . S
C473 C474 1.369 . S
C473 C475 1.419 . S
C473 H477 0.930 . S
C474 C473 1.369 . S
C474 C483 1.429 1_554 S
C475 C473 1.419 . S
C475 C476 1.363 1_554 S
C475 H478 0.929 . S
C476 C475 1.363 1_556 S
C476 C482 1.428 . S
H477 C473 0.930 . S
H478 C475 0.929 . S
S479 N480 1.613 . S
S479 N481 1.610 . S
N480 S479 1.613 . S
N480 C483 1.350 . S
N481 S479 1.610 . S
N481 C482 1.351 . S
C482 C476 1.428 . S
C482 N481 1.351 . S
C482 C483 1.434 . S
C483 C474 1.429 1_556 S
C483 N480 1.350 . S
C483 C482 1.434 . S
C484 C485 1.369 1_455 S
C484 C486 1.419 . S
C484 H488 0.930 . S
C485 C484 1.369 1_655 S
C485 C494 1.429 . S
C486 C484 1.419 . S
C486 C487 1.363 1_455 S
C486 H489 0.929 . S
C487 C486 1.363 1_655 S
C487 C493 1.428 . S
H488 C484 0.930 . S
H489 C486 0.929 . S
S490 N491 1.613 . S
S490 N492 1.610 . S
N491 S490 1.613 . S
N491 C494 1.350 . S
N492 S490 1.610 . S
N492 C493 1.351 . S
C493 C487 1.428 . S
C493 N492 1.351 . S
C493 C494 1.434 . S
C494 C485 1.429 . S
C494 N491 1.350 . S
C494 C493 1.434 . S
C495 C496 1.369 . S
C495 C497 1.419 . S
C495 H499 0.930 . S
C496 C495 1.369 . S
C496 C505 1.429 1_565 S
C497 C495 1.419 . S
C497 C498 1.363 . S
C497 H500 0.929 . S
C498 C497 1.363 . S
C498 C504 1.428 1_565 S
H499 C495 0.930 . S
H500 C497 0.929 . S
S501 N502 1.613 1_554 S
S501 N503 1.610 1_554 S
N502 S501 1.613 1_556 S
N502 C505 1.350 . S
N503 S501 1.610 1_556 S
N503 C504 1.351 . S
C504 C498 1.428 1_545 S
C504 N503 1.351 . S
C504 C505 1.434 . S
C505 C496 1.429 1_545 S
C505 N502 1.350 . S
C505 C504 1.434 . S
C506 C507 1.369 . S
C506 C508 1.419 . S
C506 H510 0.930 . S
C507 C506 1.369 . S
C507 C516 1.429 . S
C508 C506 1.419 . S
C508 C509 1.363 . S
C508 H511 0.929 . S
C509 C508 1.363 . S
C509 C515 1.428 . S
H510 C506 0.930 . S
H511 C508 0.929 . S
S512 N513 1.613 . S
S512 N514 1.610 1_556 S
N513 S512 1.613 . S
N513 C516 1.350 1_556 S
N514 S512 1.610 1_554 S
N514 C515 1.351 . S
C515 C509 1.428 . S
C515 N514 1.351 . S
C515 C516 1.434 . S
C516 C507 1.429 . S
C516 N513 1.350 1_554 S
C516 C515 1.434 . S
C517 C518 1.369 . S
C517 C519 1.419 . S
C517 H521 0.930 . S
C518 C517 1.369 . S
C518 C527 1.429 . S
C519 C517 1.419 . S
C519 C520 1.363 . S
C519 H522 0.929 . S
C520 C519 1.363 . S
C520 C526 1.428 . S
H521 C517 0.930 . S
H522 C519 0.929 . S
S523 N524 1.613 . S
S523 N525 1.610 . S
N524 S523 1.613 . S
N524 C527 1.350 . S
N525 S523 1.610 . S
N525 C526 1.351 . S
C526 C520 1.428 . S
C526 N525 1.351 . S
C526 C527 1.434 . S
C527 C518 1.429 . S
C527 N524 1.350 . S
C527 C526 1.434 . S
C265 N80 2.068 1_545 S
C267 C127 2.236 1_545 S
C278 C167 1.832 . S
C276 N93 1.828 . S
C289 C186 2.245 . S
C287 N54 2.075 . S
C300 C247 1.517 1_455 S
C298 N67 1.424 1_455 S
C311 C106 2.230 1_564 S
C309 N28 2.064 1_545 S
C320 N41 1.840 . S
C322 C146 1.836 . S
C331 N2 2.086 . S
C333 C207 2.247 1_554 S
C342 N15 1.411 . S
C344 C226 1.518 1_655 S
C355 C108 1.146 . S
C353 N70 1.242 . S
C366 C148 0.581 . S
C364 N83 0.563 1_545 S
C377 C204 1.297 . S
C375 N96 1.265 . S
C386 N57 0.679 . S
C388 C228 0.666 . S
C397 N18 1.242 1_455 S
C399 C129 1.154 . S
C410 C169 0.581 . S
C408 N31 0.556 . S
C421 C215 1.298 . S
C419 N44 1.271 . S
C430 N5 0.673 . S
C432 C249 0.671 . S
C441 N66 1.759 1_455 S
C443 C124 1.825 1_554 S
C452 N79 2.474 1_545 S
C454 C164 2.568 1_554 S
C465 C188 1.683 . S
C463 N92 1.810 . S
C476 C244 2.555 . S
C474 N53 2.455 . S
C485 N14 1.746 . S
C487 C135 1.832 . S
C498 C175 2.568 . S
C496 N27 2.467 . S
C509 C209 1.683 . S
C507 N40 1.775 . S
C518 N1 2.461 . S
C520 C255 2.560 . S
