# Generated by pormake.
# Topology nom, (4,4)-cn, num edge types: 1
# Building blocks:
#     Node 0, Type 0, BuildingBlock: GIZVER_clean_linker_0, # of connection points: 4
#     Node 1, Type 0, BuildingBlock: GIZVER_clean_linker_0, # of connection points: 4
#     Node 2, Type 0, BuildingBlock: GIZVER_clean_linker_0, # of connection points: 4
#     Node 3, Type 0, BuildingBlock: GIZVER_clean_linker_0, # of connection points: 4
#     Node 4, Type 0, BuildingBlock: GIZVER_clean_linker_0, # of connection points: 4
#     Node 5, Type 0, BuildingBlock: GIZVER_clean_linker_0, # of connection points: 4
#     Node 6, Type 1, BuildingBlock: UXUYUI_clean_sbu_0, # of connection points: 4
#     Node 7, Type 1, BuildingBlock: UXUYUI_clean_sbu_0, # of connection points: 4
#     Node 8, Type 1, BuildingBlock: UXUYUI_clean_sbu_0, # of connection points: 4
#     Node 9, Type 1, BuildingBlock: UXUYUI_clean_sbu_0, # of connection points: 4
#     Node 10, Type 1, BuildingBlock: UXUYUI_clean_sbu_0, # of connection points: 4
#     Node 11, Type 1, BuildingBlock: UXUYUI_clean_sbu_0, # of connection points: 4
#     Edge 12, Type (0, 1), None
#     Edge 13, Type (0, 1), None
#     Edge 14, Type (0, 1), None
#     Edge 15, Type (0, 1), None
#     Edge 16, Type (0, 1), None
#     Edge 17, Type (0, 1), None
#     Edge 18, Type (0, 1), None
#     Edge 19, Type (0, 1), None
#     Edge 20, Type (0, 1), None
#     Edge 21, Type (0, 1), None
#     Edge 22, Type (0, 1), None
#     Edge 23, Type (0, 1), None
#     Edge 24, Type (0, 1), None
#     Edge 25, Type (0, 1), None
#     Edge 26, Type (0, 1), None
#     Edge 27, Type (0, 1), None
#     Edge 28, Type (0, 1), None
#     Edge 29, Type (0, 1), None
#     Edge 30, Type (0, 1), None
#     Edge 31, Type (0, 1), None
#     Edge 32, Type (0, 1), None
#     Edge 33, Type (0, 1), None
#     Edge 34, Type (0, 1), None
#     Edge 35, Type (0, 1), None
# Relax obj value: 0.036
# Max RMSD: 0.149
# Mean RMSD: 0.106
data_MOF--net-nom--node1-UXUYUI_clean_sbu_0--node2-GIZVER_clean_linker_0--edge1-none
_symmetry_space_group_name_H-M    P1
_symmetry_Int_Tables_number       1
_symmetry_cell_setting            triclinic
loop_
_symmetry_equiv_pos_as_xyz
'x, y, z'
_cell_length_a     31.831064
_cell_length_b     31.846802
_cell_length_c     32.719728
_cell_angle_alpha  89.98863
_cell_angle_beta   90.007293
_cell_angle_gamma 120.00779
loop_
_atom_site_label
_atom_site_type_symbol
_atom_site_fract_x
_atom_site_fract_y
_atom_site_fract_z
_atom_type_partial_charge
H0 H 0.96902 0.56105 0.37629 0.0
H1 H 0.9985 0.55637 0.24838 0.0
H2 H 0.86591 0.44472 0.30093 0.0
H3 H 0.03403 0.63091 0.34389 0.0
H4 H 0.03899 0.63287 0.2897 0.0
H5 H 0.07441 0.59459 0.38571 0.0
H6 H 0.20733 0.61598 0.33347 0.0
H7 H 0.10424 0.62887 0.25778 0.0
C8 C 0.95949 0.54201 0.34732 0.0
C9 C 0.91409 0.49971 0.34292 0.0
C10 C 0.99116 0.5616 0.31359 0.0
C11 C 0.97619 0.53918 0.27501 0.0
C12 C 0.93038 0.49756 0.27025 0.0
C13 C 0.9014 0.4766 0.30483 0.0
C14 C 0.03641 0.61083 0.31698 0.0
C15 C 0.08212 0.60766 0.32056 0.0
C16 C 0.09687 0.59991 0.35913 0.0
C17 C 0.1427 0.60417 0.364 0.0
C18 C 0.17181 0.6123 0.32948 0.0
C19 C 0.15917 0.62265 0.29134 0.0
C20 C 0.11377 0.61952 0.28683 0.0
H21 H 0.43758 0.96184 0.54324 0.0
H22 H 0.47205 0.99134 0.41537 0.0
H23 H 0.45106 0.85882 0.46804 0.0
H24 H 0.43287 0.02686 0.51081 0.0
H25 H 0.43588 0.03177 0.45662 0.0
H26 H 0.50957 0.06732 0.55265 0.0
H27 H 0.62108 0.20015 0.50031 0.0
H28 H 0.50514 0.09696 0.42467 0.0
C29 C 0.44718 0.95232 0.5143 0.0
C30 C 0.44408 0.90694 0.50994 0.0
C31 C 0.45936 0.984 0.48057 0.0
C32 C 0.46688 0.96904 0.44202 0.0
C33 C 0.46271 0.92324 0.43728 0.0
C34 C 0.45464 0.89428 0.47189 0.0
C35 C 0.45536 0.02923 0.48392 0.0
C36 C 0.50424 0.07494 0.48748 0.0
C37 C 0.52671 0.08975 0.52605 0.0
C38 C 0.56827 0.13558 0.53089 0.0
C39 C 0.58925 0.16463 0.49635 0.0
C40 C 0.56627 0.15194 0.4582 0.0
C41 C 0.52402 0.10653 0.45372 0.0
H42 H 0.4376 0.4982 0.5911 0.0
H43 H 0.47207 0.50315 0.71897 0.0
H44 H 0.45108 0.6147 0.66631 0.0
H45 H 0.43288 0.42846 0.62353 0.0
H46 H 0.43589 0.42656 0.67772 0.0
H47 H 0.50958 0.46467 0.5817 0.0
H48 H 0.62108 0.44332 0.63405 0.0
H49 H 0.50514 0.43061 0.70968 0.0
C50 C 0.4472 0.51731 0.62005 0.0
C51 C 0.4441 0.55959 0.62441 0.0
C52 C 0.45938 0.49781 0.65377 0.0
C53 C 0.4669 0.52029 0.69232 0.0
C54 C 0.46273 0.56191 0.69706 0.0
C55 C 0.45466 0.5828 0.66245 0.0
C56 C 0.45537 0.44858 0.65043 0.0
C57 C 0.50425 0.45173 0.64687 0.0
C58 C 0.52673 0.45939 0.6083 0.0
C59 C 0.56828 0.4551 0.60346 0.0
C60 C 0.58926 0.44702 0.63801 0.0
C61 C 0.56627 0.43673 0.67615 0.0
C62 C 0.52402 0.43991 0.68063 0.0
H63 H 0.96903 0.43039 0.75803 0.0
H64 H 0.99852 0.46456 0.88595 0.0
H65 H 0.86589 0.44357 0.83338 0.0
H66 H 0.03408 0.42559 0.79043 0.0
H67 H 0.03904 0.42858 0.84462 0.0
H68 H 0.07443 0.50229 0.74862 0.0
H69 H 0.20731 0.61382 0.80088 0.0
H70 H 0.10426 0.49782 0.87655 0.0
C71 C 0.9595 0.4399 0.78701 0.0
C72 C 0.91408 0.43678 0.7914 0.0
C73 C 0.99117 0.45199 0.82073 0.0
C74 C 0.9762 0.45943 0.85931 0.0
C75 C 0.93038 0.45522 0.86408 0.0
C76 C 0.90139 0.4472 0.82949 0.0
C77 C 0.03645 0.44804 0.81734 0.0
C78 C 0.08214 0.49693 0.81377 0.0
C79 C 0.09688 0.51943 0.7752 0.0
C80 C 0.1427 0.56101 0.77034 0.0
C81 C 0.1718 0.58198 0.80486 0.0
C82 C 0.15917 0.55899 0.84301 0.0
C83 C 0.11378 0.51671 0.8475 0.0
H84 H 0.63547 0.09707 0.04316 0.0
H85 H 0.60134 0.06766 0.91523 0.0
H86 H 0.62205 0.20008 0.96784 0.0
H87 H 0.64046 0.03219 0.01073 0.0
H88 H 0.6374 0.02721 0.95655 0.0
H89 H 0.56381 0.99171 0.05261 0.0
H90 H 0.45228 0.85884 0.00039 0.0
H91 H 0.5681 0.96202 0.92464 0.0
C92 C 0.62593 0.10659 0.01419 0.0
C93 C 0.62898 0.15195 0.0098 0.0
C94 C 0.61388 0.07496 0.98045 0.0
C95 C 0.60642 0.08993 0.94188 0.0
C96 C 0.61054 0.1357 0.93712 0.0
C97 C 0.6185 0.16462 0.97172 0.0
C98 C 0.61794 0.02977 0.98384 0.0
C99 C 0.56908 0.98405 0.98745 0.0
C100 C 0.54664 0.96927 0.02604 0.0
C101 C 0.50509 0.92343 0.03092 0.0
C102 C 0.48409 0.89435 -0.0036 0.0
C103 C 0.50702 0.90703 0.95823 0.0
C104 C 0.54926 0.95245 0.95372 0.0
H105 H 0.63545 0.56079 0.09121 0.0
H106 H 0.60135 0.55608 0.21913 0.0
H107 H 0.62202 0.44435 0.16651 0.0
H108 H 0.64047 0.63067 0.12365 0.0
H109 H 0.63741 0.63258 0.17783 0.0
H110 H 0.56383 0.59452 0.08175 0.0
H111 H 0.4523 0.6159 0.13395 0.0
H112 H 0.5681 0.6285 0.20972 0.0
C113 C 0.62592 0.54173 0.12018 0.0
C114 C 0.62896 0.49941 0.12456 0.0
C115 C 0.61388 0.56132 0.15391 0.0
C116 C 0.60642 0.53888 0.19249 0.0
C117 C 0.61053 0.49723 0.19724 0.0
C118 C 0.61848 0.47626 0.16263 0.0
C119 C 0.61794 0.61057 0.15053 0.0
C120 C 0.56909 0.60745 0.14691 0.0
C121 C 0.54666 0.59981 0.10832 0.0
C122 C 0.50511 0.6041 0.10343 0.0
C123 C 0.48411 0.61219 0.13795 0.0
C124 C 0.50703 0.62243 0.17612 0.0
C125 C 0.54927 0.61924 0.18064 0.0
Li126 Li 0.64189 0.42254 0.43944 0.0
Li127 Li 0.63697 0.35401 0.39905 0.0
Li128 Li 0.71187 0.42893 0.40183 0.0
Li129 Li 0.64328 0.42382 0.36131 0.0
C130 C 0.7142 0.39986 0.47502 0.0
N131 N 0.79434 0.43116 0.52493 0.0
C132 C 0.73253 0.3691 0.48374 0.0
C133 C 0.73613 0.44623 0.49221 0.0
C134 C 0.77319 0.38567 0.50894 0.0
C135 C 0.77669 0.46142 0.5173 0.0
C136 C 0.54274 0.34837 0.40316 0.0
C137 C 0.4621 0.30462 0.37478 0.0
N138 N 0.44468 0.28386 0.41187 0.0
C139 C 0.52405 0.3267 0.44101 0.0
C140 C 0.51157 0.33737 0.36976 0.0
C141 C 0.47436 0.29414 0.44479 0.0
C142 C 0.60852 0.4739 0.49203 0.0
N143 N 0.61897 0.43756 0.48765 0.0
C144 C 0.59528 0.41188 0.55627 0.0
C145 C 0.61259 0.40684 0.51878 0.0
C146 C 0.58517 0.44963 0.56247 0.0
C147 C 0.59133 0.48064 0.5296 0.0
H148 H 0.61362 0.49761 0.46652 0.0
H149 H 0.62046 0.37785 0.51426 0.0
C150 C 0.64484 0.27143 0.40788 0.0
N151 N 0.61114 0.28473 0.40029 0.0
C152 C 0.63056 0.22459 0.42133 0.0
C153 C 0.54696 0.20407 0.41405 0.0
C154 C 0.56295 0.25128 0.40021 0.0
C155 C 0.58106 0.19142 0.42761 0.0
H156 H 0.68295 0.29835 0.40658 0.0
H157 H 0.53661 0.26178 0.39248 0.0
C158 C 0.71733 0.523 0.39726 0.0
N159 N 0.78177 0.62094 0.38789 0.0
C160 C 0.73898 0.54131 0.35932 0.0
C161 C 0.72833 0.55448 0.4304 0.0
C162 C 0.7715 0.59094 0.35521 0.0
C163 C 0.76104 0.60389 0.42505 0.0
C164 C 0.66624 0.35156 0.32602 0.0
C165 C 0.69715 0.33334 0.31748 0.0
C166 C 0.61987 0.32944 0.30878 0.0
C167 C 0.6807 0.2926 0.29243 0.0
C168 C 0.6048 0.2888 0.28385 0.0
N169 N 0.6352 0.27125 0.27641 0.0
C170 C 0.79459 0.42121 0.39331 0.0
C171 C 0.8146 0.50304 0.40069 0.0
C172 C 0.84148 0.43552 0.37991 0.0
N173 N 0.78119 0.45486 0.40072 0.0
C174 C 0.86185 0.51905 0.38689 0.0
C175 C 0.87459 0.48498 0.3735 0.0
H176 H 0.76771 0.38311 0.3947 0.0
H177 H 0.80402 0.52935 0.40828 0.0
C178 C 0.59199 0.45727 0.30874 0.0
N179 N 0.62819 0.44658 0.31304 0.0
C180 C 0.58519 0.4744 0.27116 0.0
C181 C 0.65359 0.46987 0.24431 0.0
C182 C 0.65869 0.45264 0.28181 0.0
C183 C 0.61599 0.48026 0.2382 0.0
H184 H 0.56846 0.45243 0.33433 0.0
H185 H 0.68759 0.44459 0.28627 0.0
O186 O 0.67613 0.38556 0.44859 0.0
O187 O 0.59121 0.38042 0.39873 0.0
O188 O 0.68533 0.47459 0.40202 0.0
O189 O 0.68042 0.38971 0.3523 0.0
H190 H 0.71586 0.33299 0.47102 0.0
H191 H 0.72249 0.47053 0.48563 0.0
H192 H 0.788 0.3624 0.51574 0.0
H193 H 0.7943 0.49737 0.53052 0.0
H194 H 0.43756 0.29569 0.34918 0.0
H195 H 0.54769 0.33425 0.46699 0.0
H196 H 0.52546 0.35388 0.34026 0.0
H197 H 0.45942 0.2769 0.47384 0.0
H198 H 0.5896 0.38604 0.5802 0.0
H199 H 0.58364 0.50995 0.53309 0.0
H200 H 0.65804 0.21608 0.43091 0.0
H201 H 0.50844 0.17967 0.41823 0.0
H202 H 0.73145 0.51741 0.33354 0.0
H203 H 0.71186 0.54088 0.45997 0.0
H204 H 0.78872 0.60559 0.32609 0.0
H205 H 0.76997 0.62867 0.45045 0.0
H206 H 0.73327 0.35016 0.33023 0.0
H207 H 0.59547 0.34301 0.31519 0.0
H208 H 0.70409 0.27787 0.28578 0.0
H209 H 0.56885 0.27104 0.2706 0.0
H210 H 0.85007 0.40806 0.37046 0.0
H211 H 0.88621 0.55755 0.3826 0.0
H212 H 0.55601 0.48231 0.26774 0.0
H213 H 0.67928 0.47532 0.22031 0.0
Li214 Li 0.24862 0.63477 0.60625 0.0
Li215 Li 0.31218 0.62984 0.56567 0.0
Li216 Li 0.31218 0.70481 0.56869 0.0
Li217 Li 0.24862 0.63633 0.52811 0.0
C218 C 0.34391 0.70676 0.64182 0.0
N219 N 0.39328 0.78646 0.69204 0.0
C220 C 0.39296 0.72466 0.65049 0.0
C221 C 0.31977 0.72889 0.65923 0.0
C222 C 0.41732 0.7651 0.67586 0.0
C223 C 0.3454 0.76922 0.68447 0.0
C224 C 0.22348 0.53568 0.56957 0.0
C225 C 0.1869 0.45535 0.54069 0.0
N226 N 0.18978 0.43757 0.57774 0.0
C227 C 0.22599 0.51663 0.60739 0.0
C228 C 0.2037 0.50485 0.53594 0.0
C229 C 0.2088 0.46693 0.61088 0.0
C230 C 0.16396 0.60137 0.65895 0.0
N231 N 0.21077 0.61181 0.65449 0.0
C232 C 0.21286 0.58801 0.72305 0.0
C233 C 0.23515 0.60535 0.68555 0.0
C234 C 0.16499 0.57792 0.72934 0.0
C235 C 0.14009 0.58414 0.69654 0.0
H236 H 0.14531 0.60652 0.6335 0.0
H237 H 0.27201 0.61319 0.68095 0.0
C238 C 0.40275 0.63777 0.57399 0.0
N239 N 0.35567 0.60404 0.56672 0.0
C240 C 0.43544 0.62359 0.58736 0.0
C241 C 0.37228 0.53999 0.58064 0.0
C242 C 0.34093 0.55588 0.56689 0.0
C243 C 0.41916 0.57416 0.59387 0.0
H244 H 0.41393 0.67586 0.57255 0.0
H245 H 0.304 0.52949 0.55945 0.0
C246 C 0.22347 0.71028 0.56479 0.0
N247 N 0.18975 0.77468 0.55664 0.0
C248 C 0.22595 0.73183 0.52698 0.0
C249 C 0.20369 0.72133 0.59843 0.0
C250 C 0.20876 0.76435 0.52349 0.0
C251 C 0.18689 0.75403 0.59369 0.0
C252 C 0.3439 0.65962 0.49253 0.0
C253 C 0.39295 0.69076 0.48385 0.0
C254 C 0.31976 0.61336 0.47512 0.0
C255 C 0.41731 0.67468 0.45848 0.0
C256 C 0.34539 0.59865 0.44987 0.0
N257 N 0.39327 0.62928 0.4423 0.0
C258 C 0.40274 0.78743 0.56036 0.0
C259 C 0.34091 0.80751 0.56746 0.0
C260 C 0.43542 0.83429 0.54699 0.0
N261 N 0.35566 0.77409 0.56763 0.0
C262 C 0.37226 0.85474 0.55371 0.0
C263 C 0.41914 0.86743 0.54048 0.0
H264 H 0.41392 0.76052 0.5618 0.0
H265 H 0.30398 0.79698 0.57489 0.0
C266 C 0.16397 0.58507 0.4754 0.0
N267 N 0.21076 0.62144 0.47986 0.0
C268 C 0.14009 0.57842 0.4378 0.0
C269 C 0.21284 0.64733 0.4113 0.0
C270 C 0.23514 0.65229 0.44881 0.0
C271 C 0.16499 0.60955 0.40501 0.0
H272 H 0.14532 0.56126 0.50085 0.0
H273 H 0.27199 0.68131 0.45341 0.0
O274 O 0.31989 0.66891 0.61526 0.0
O275 O 0.23995 0.58417 0.56542 0.0
O276 O 0.23994 0.67826 0.56894 0.0
O277 O 0.31989 0.67345 0.51909 0.0
H278 H 0.41217 0.70782 0.6376 0.0
H279 H 0.28185 0.71555 0.65273 0.0
H280 H 0.45538 0.77957 0.68262 0.0
H281 H 0.3273 0.78698 0.69787 0.0
H282 H 0.17158 0.43106 0.51491 0.0
H283 H 0.24175 0.54 0.63356 0.0
H284 H 0.20141 0.519 0.50647 0.0
H285 H 0.21074 0.45172 0.63991 0.0
H286 H 0.23306 0.58229 0.74693 0.0
H287 H 0.10309 0.57647 0.7001 0.0
H288 H 0.47151 0.65112 0.5967 0.0
H289 H 0.35819 0.50152 0.58502 0.0
H290 H 0.24171 0.72422 0.5008 0.0
H291 H 0.20142 0.70489 0.6279 0.0
H292 H 0.21069 0.7815 0.49447 0.0
H293 H 0.17158 0.763 0.61948 0.0
H294 H 0.41216 0.7268 0.49674 0.0
H295 H 0.28185 0.58878 0.48163 0.0
H296 H 0.45536 0.69826 0.45171 0.0
H297 H 0.32729 0.56279 0.43648 0.0
H298 H 0.4715 0.84282 0.53765 0.0
H299 H 0.35817 0.87912 0.54932 0.0
H300 H 0.1031 0.54909 0.43423 0.0
H301 H 0.23304 0.67324 0.38743 0.0
Li302 Li 0.71187 0.3053 0.73252 0.0
Li303 Li 0.64329 0.24185 0.77305 0.0
Li304 Li 0.64188 0.24173 0.69491 0.0
Li305 Li 0.63696 0.30534 0.73531 0.0
C306 C 0.71734 0.21671 0.73707 0.0
N307 N 0.78179 0.18319 0.74639 0.0
C308 C 0.73898 0.22 0.775 0.0
C309 C 0.72836 0.19626 0.7039 0.0
C310 C 0.77151 0.20288 0.77909 0.0
C311 C 0.76108 0.17957 0.70923 0.0
C312 C 0.66626 0.33707 0.80834 0.0
C313 C 0.60484 0.33842 0.85052 0.0
N314 N 0.63525 0.38637 0.85794 0.0
C315 C 0.69718 0.38618 0.81687 0.0
C316 C 0.61989 0.31284 0.82559 0.0
C317 C 0.68075 0.4105 0.84192 0.0
C318 C 0.79457 0.39575 0.741 0.0
N319 N 0.78119 0.3487 0.73363 0.0
C320 C 0.86186 0.36518 0.74747 0.0
C321 C 0.8146 0.33393 0.73368 0.0
C322 C 0.87459 0.412 0.76083 0.0
C323 C 0.84146 0.42834 0.7544 0.0
H324 H 0.76768 0.40696 0.7396 0.0
H325 H 0.80404 0.29704 0.72612 0.0
C326 C 0.592 0.15712 0.82562 0.0
N327 N 0.6282 0.204 0.82132 0.0
C328 C 0.58519 0.13319 0.8632 0.0
C329 C 0.65361 0.20609 0.89004 0.0
C330 C 0.65871 0.22843 0.85254 0.0
C331 C 0.616 0.15812 0.89616 0.0
H332 H 0.56845 0.13844 0.80004 0.0
H333 H 0.68762 0.26536 0.84808 0.0
C334 C 0.71415 0.3367 0.65932 0.0
N335 N 0.79424 0.38554 0.60936 0.0
C336 C 0.73244 0.38578 0.65058 0.0
C337 C 0.7361 0.31228 0.64213 0.0
C338 C 0.77307 0.40987 0.62535 0.0
C339 C 0.77663 0.33764 0.617 0.0
C340 C 0.54273 0.21677 0.73122 0.0
C341 C 0.52401 0.21971 0.69337 0.0
C342 C 0.51159 0.19665 0.76464 0.0
C343 C 0.47432 0.2026 0.68962 0.0
C344 C 0.46212 0.17994 0.75964 0.0
N345 N 0.44466 0.18324 0.72255 0.0
C346 C 0.60852 0.15701 0.64233 0.0
C347 C 0.61256 0.22812 0.61558 0.0
C348 C 0.59133 0.13308 0.60475 0.0
N349 N 0.61896 0.2038 0.6467 0.0
C350 C 0.59525 0.20578 0.57809 0.0
C351 C 0.58515 0.15792 0.57189 0.0
H352 H 0.61364 0.1384 0.66783 0.0
H353 H 0.62042 0.26499 0.6201 0.0
C354 C 0.64483 0.39578 0.72649 0.0
N355 N 0.61113 0.34879 0.73407 0.0
C356 C 0.63055 0.42835 0.71303 0.0
C357 C 0.54696 0.3653 0.7203 0.0
C358 C 0.56294 0.33407 0.73414 0.0
C359 C 0.58106 0.41203 0.70675 0.0
H360 H 0.68294 0.40696 0.72779 0.0
H361 H 0.53659 0.29723 0.74187 0.0
O362 O 0.68533 0.23311 0.73233 0.0
O363 O 0.68042 0.31308 0.78205 0.0
O364 O 0.67612 0.31295 0.68577 0.0
O365 O 0.59121 0.23318 0.73563 0.0
H366 H 0.73144 0.23633 0.8008 0.0
H367 H 0.71189 0.19342 0.67434 0.0
H368 H 0.78873 0.20543 0.80821 0.0
H369 H 0.77001 0.16374 0.68381 0.0
H370 H 0.56889 0.32025 0.86378 0.0
H371 H 0.7333 0.40547 0.80411 0.0
H372 H 0.59548 0.27488 0.81918 0.0
H373 H 0.70414 0.4486 0.84857 0.0
H374 H 0.88623 0.35105 0.75178 0.0
H375 H 0.85004 0.46438 0.76383 0.0
H376 H 0.55601 0.09612 0.86662 0.0
H377 H 0.67931 0.22633 0.91404 0.0
H378 H 0.71576 0.40521 0.66331 0.0
H379 H 0.72249 0.27435 0.64871 0.0
H380 H 0.78785 0.44794 0.61853 0.0
H381 H 0.79425 0.31932 0.60378 0.0
H382 H 0.54763 0.23577 0.66737 0.0
H383 H 0.5255 0.19405 0.79414 0.0
H384 H 0.45936 0.20488 0.66056 0.0
H385 H 0.4376 0.16436 0.78525 0.0
H386 H 0.58365 0.09609 0.60126 0.0
H387 H 0.58956 0.22594 0.55417 0.0
H388 H 0.65803 0.46433 0.70346 0.0
H389 H 0.50843 0.35119 0.71611 0.0
Li390 Li 0.43153 0.63654 0.93933 0.0
Li391 Li 0.43635 0.70503 0.89895 0.0
Li392 Li 0.36151 0.6301 0.90174 0.0
Li393 Li 0.43009 0.63528 0.86119 0.0
C394 C 0.3592 0.65907 0.97497 0.0
N395 N 0.27916 0.62763 0.02503 0.0
C396 C 0.34081 0.68975 0.98377 0.0
C397 C 0.33737 0.61269 -0.00785 0.0
C398 C 0.3002 0.67312 0.00904 0.0
C399 C 0.29687 0.59743 0.01733 0.0
C400 C 0.53063 0.71079 0.90303 0.0
C401 C 0.61127 0.75459 0.87466 0.0
N402 N 0.62867 0.77539 0.91174 0.0
C403 C 0.5493 0.7325 0.94087 0.0
C404 C 0.56181 0.72179 0.86964 0.0
C405 C 0.59898 0.76511 0.94464 0.0
C406 C 0.46492 0.58521 -0.00801 0.0
N407 N 0.45448 0.62156 0.98755 0.0
C408 C 0.47818 0.64731 0.05615 0.0
C409 C 0.46088 0.65232 0.01864 0.0
C410 C 0.48826 0.60955 0.06242 0.0
C411 C 0.48209 0.5785 0.02959 0.0
H412 H 0.4598 0.56147 0.96651 0.0
H413 H 0.45302 0.68132 0.01408 0.0
C414 C 0.42842 0.78754 0.90794 0.0
N415 N 0.46214 0.77429 0.90024 0.0
C416 C 0.44269 0.83436 0.92143 0.0
C417 C 0.52629 0.85497 0.91397 0.0
C418 C 0.51031 0.80778 0.90008 0.0
C419 C 0.49219 0.86756 0.92764 0.0
H420 H 0.39032 0.76059 0.90669 0.0
H421 H 0.53666 0.79733 0.89225 0.0
C422 C 0.35611 0.53609 0.89705 0.0
N423 N 0.29168 0.43817 0.88749 0.0
C424 C 0.33438 0.51792 0.85912 0.0
C425 C 0.34519 0.50448 0.9301 0.0
C426 C 0.30187 0.4683 0.85491 0.0
C427 C 0.31248 0.45509 0.92465 0.0
C428 C 0.40715 0.7076 0.82599 0.0
C429 C 0.37632 0.72594 0.81756 0.0
C430 C 0.45353 0.72972 0.80877 0.0
C431 C 0.39285 0.76681 0.79264 0.0
C432 C 0.46868 0.77048 0.78396 0.0
N433 N 0.43836 0.78815 0.77664 0.0
C434 C 0.27872 0.6377 0.89323 0.0
C435 C 0.25881 0.55591 0.90077 0.0
C436 C 0.23179 0.62331 0.87987 0.0
N437 N 0.29217 0.6041 0.90069 0.0
C438 C 0.21152 0.53982 0.88701 0.0
C439 C 0.19871 0.57382 0.87356 0.0
H440 H 0.30557 0.67582 0.89456 0.0
H441 H 0.26943 0.52965 0.90841 0.0
C442 C 0.48137 0.60186 0.80857 0.0
N443 N 0.44518 0.61256 0.81289 0.0
C444 C 0.48814 0.58475 0.77097 0.0
C445 C 0.41975 0.58932 0.74416 0.0
C446 C 0.41468 0.60654 0.78167 0.0
C447 C 0.45733 0.57891 0.73802 0.0
H448 H 0.50491 0.60667 0.83414 0.0
H449 H 0.38579 0.6146 0.78615 0.0
O450 O 0.39722 0.67345 0.94848 0.0
O451 O 0.48217 0.67869 0.8986 0.0
O452 O 0.3881 0.58448 0.90192 0.0
O453 O 0.3929 0.66935 0.85218 0.0
H454 H 0.35739 0.72587 0.97104 0.0
H455 H 0.35105 0.58844 0.98552 0.0
H456 H 0.28535 0.69633 0.01589 0.0
H457 H 0.27935 0.56148 0.03055 0.0
H458 H 0.63582 0.76351 0.84907 0.0
H459 H 0.52565 0.72496 0.96684 0.0
H460 H 0.54794 0.70524 0.84015 0.0
H461 H 0.6139 0.78239 0.97369 0.0
H462 H 0.48386 0.67317 0.08005 0.0
H463 H 0.48976 0.54919 0.03313 0.0
H464 H 0.41521 0.84283 0.93109 0.0
H465 H 0.56482 0.8794 0.91809 0.0
H466 H 0.34184 0.54192 0.83342 0.0
H467 H 0.36171 0.51797 0.95967 0.0
H468 H 0.28459 0.45377 0.82578 0.0
H469 H 0.30361 0.4302 0.94998 0.0
H470 H 0.34019 0.70913 0.8303 0.0
H471 H 0.47787 0.71606 0.8151 0.0
H472 H 0.36954 0.78164 0.78608 0.0
H473 H 0.50464 0.78823 0.77073 0.0
H474 H 0.22315 0.65072 0.87037 0.0
H475 H 0.18718 0.50131 0.8828 0.0
H476 H 0.51731 0.57682 0.76754 0.0
H477 H 0.39403 0.58388 0.72019 0.0
Li478 Li 0.76061 0.42895 0.0657 0.0
Li479 Li 0.82417 0.42399 0.10623 0.0
Li480 Li 0.82417 0.42256 0.0281 0.0
Li481 Li 0.76062 0.35405 0.06862 0.0
C482 C 0.84925 0.5231 0.0699 0.0
N483 N 0.88282 0.62111 0.07866 0.0
C484 C 0.84631 0.54176 0.10777 0.0
C485 C 0.86939 0.55427 0.03651 0.0
C486 C 0.86345 0.59143 0.11157 0.0
C487 C 0.88612 0.60372 0.04155 0.0
C488 C 0.72899 0.35186 0.14174 0.0
C489 C 0.72771 0.28931 0.18417 0.0
N490 N 0.6798 0.2719 0.19175 0.0
C491 C 0.67991 0.33378 0.15043 0.0
C492 C 0.75324 0.32977 0.15903 0.0
C493 C 0.65564 0.29322 0.17569 0.0
C494 C 0.67009 0.42106 0.07419 0.0
N495 N 0.71714 0.45477 0.0668 0.0
C496 C 0.70059 0.51887 0.08062 0.0
C497 C 0.73189 0.50293 0.06684 0.0
C498 C 0.65376 0.48474 0.09399 0.0
C499 C 0.63745 0.43529 0.08757 0.0
H500 H 0.6589 0.38297 0.07282 0.0
H501 H 0.76879 0.52929 0.05928 0.0
C502 C 0.90892 0.45742 0.15881 0.0
N503 N 0.86207 0.44687 0.15446 0.0
C504 C 0.93286 0.47458 0.19638 0.0
C505 C 0.86004 0.4704 0.22312 0.0
C506 C 0.83769 0.45312 0.18563 0.0
C507 C 0.90797 0.48062 0.22928 0.0
H508 H 0.92756 0.45241 0.13328 0.0
H509 H 0.80078 0.44519 0.18112 0.0
C510 C 0.72897 0.39951 -0.00741 0.0
N511 N 0.67975 0.43029 0.94261 0.0
C512 C 0.67989 0.36852 0.98392 0.0
C513 C 0.75321 0.44585 0.97531 0.0
C514 C 0.6556 0.38482 0.95867 0.0
C515 C 0.72766 0.46078 0.95019 0.0
C516 C 0.84927 0.34854 0.06441 0.0
C517 C 0.84631 0.32694 0.02654 0.0
C518 C 0.86942 0.33751 0.0978 0.0
C519 C 0.86345 0.29441 0.02273 0.0
C520 C 0.88616 0.3048 0.09274 0.0
N521 N 0.88285 0.2841 0.05564 0.0
C522 C 0.90891 0.47389 0.97552 0.0
C523 C 0.83768 0.40696 0.94869 0.0
C524 C 0.93285 0.48067 0.93794 0.0
N525 N 0.86206 0.43759 0.97986 0.0
C526 C 0.86004 0.41204 0.9112 0.0
C527 C 0.90796 0.44975 0.90504 0.0
H528 H 0.92755 0.49753 0.00105 0.0
H529 H 0.80078 0.37798 0.9532 0.0
C530 C 0.67011 0.27143 0.06015 0.0
N531 N 0.71717 0.28478 0.06754 0.0
C532 C 0.63747 0.22456 0.04677 0.0
C533 C 0.70063 0.20414 0.05373 0.0
C534 C 0.73192 0.25136 0.0675 0.0
C535 C 0.6538 0.19143 0.04037 0.0
H536 H 0.65891 0.29833 0.06152 0.0
H537 H 0.76882 0.2619 0.07506 0.0
O538 O 0.83282 0.47466 0.06545 0.0
O539 O 0.75292 0.38984 0.11528 0.0
O540 O 0.75291 0.38546 0.01904 0.0
O541 O 0.83284 0.38056 0.06887 0.0
H542 H 0.83024 0.51812 0.13375 0.0
H543 H 0.87198 0.5404 0.00699 0.0
H544 H 0.86117 0.60634 0.14064 0.0
H545 H 0.90171 0.62826 0.01596 0.0
H546 H 0.7459 0.27158 0.19746 0.0
H547 H 0.66061 0.35058 0.13764 0.0
H548 H 0.79118 0.34324 0.1525 0.0
H549 H 0.61757 0.2786 0.18246 0.0
H550 H 0.71471 0.55735 0.08491 0.0
H551 H 0.6014 0.40779 0.09701 0.0
H552 H 0.96991 0.48237 0.19984 0.0
H553 H 0.83984 0.47598 0.24707 0.0
H554 H 0.6606 0.33243 -0.00329 0.0
H555 H 0.79114 0.47032 0.98183 0.0
H556 H 0.61753 0.36137 0.95191 0.0
H557 H 0.74583 0.49669 0.9369 0.0
H558 H 0.83023 0.33451 0.00057 0.0
H559 H 0.87203 0.35397 0.12732 0.0
H560 H 0.86116 0.27722 -0.00634 0.0
H561 H 0.90177 0.29585 0.11833 0.0
H562 H 0.96989 0.50993 0.93448 0.0
H563 H 0.83984 0.38627 0.88725 0.0
H564 H 0.60142 0.21601 0.03734 0.0
H565 H 0.71475 0.17976 0.04944 0.0
Li566 Li 0.43007 0.81724 0.27315 0.0
Li567 Li 0.36149 0.75386 0.2326 0.0
Li568 Li 0.43634 0.75376 0.23539 0.0
Li569 Li 0.43151 0.81742 0.19501 0.0
C570 C 0.40715 0.722 0.30835 0.0
N571 N 0.4384 0.67269 0.35771 0.0
C572 C 0.37634 0.67284 0.31679 0.0
C573 C 0.45354 0.74627 0.32558 0.0
C574 C 0.39289 0.64851 0.34171 0.0
C575 C 0.46871 0.72067 0.35038 0.0
C576 C 0.35607 0.84245 0.23729 0.0
C577 C 0.31242 0.87982 0.2097 0.0
N578 N 0.29162 0.87593 0.24686 0.0
C579 C 0.33434 0.83888 0.27523 0.0
C580 C 0.34514 0.86314 0.20424 0.0
C581 C 0.30182 0.85599 0.27944 0.0
C582 C 0.48135 0.90193 0.32578 0.0
N583 N 0.44516 0.85505 0.32145 0.0
C584 C 0.41973 0.85287 0.39018 0.0
C585 C 0.41466 0.83057 0.35267 0.0
C586 C 0.45731 0.90085 0.39632 0.0
C587 C 0.48812 0.92582 0.36338 0.0
H588 H 0.50489 0.92066 0.30021 0.0
H589 H 0.38577 0.79364 0.34819 0.0
C590 C 0.27872 0.66348 0.24112 0.0
N591 N 0.29216 0.71052 0.23366 0.0
C592 C 0.2318 0.63094 0.25448 0.0
C593 C 0.2115 0.69415 0.24733 0.0
C594 C 0.25878 0.72534 0.23357 0.0
C595 C 0.19871 0.64735 0.26079 0.0
H596 H 0.30558 0.65222 0.23979 0.0
H597 H 0.2694 0.76222 0.22592 0.0
C598 C 0.53061 0.84226 0.23131 0.0
N599 N 0.62865 0.87567 0.22257 0.0
C600 C 0.54926 0.83918 0.19346 0.0
C601 C 0.56181 0.86245 0.26468 0.0
C602 C 0.59894 0.85624 0.18968 0.0
C603 C 0.61127 0.8791 0.25965 0.0
C604 C 0.35918 0.72258 0.15938 0.0
C605 C 0.34079 0.67351 0.15058 0.0
C606 C 0.33735 0.74713 0.14219 0.0
C607 C 0.30018 0.64954 0.12531 0.0
C608 C 0.29684 0.7219 0.11703 0.0
N609 N 0.27913 0.67399 0.10933 0.0
C610 C 0.42842 0.66333 0.22641 0.0
C611 C 0.51031 0.72496 0.23427 0.0
C612 C 0.44269 0.63078 0.21291 0.0
N613 N 0.46213 0.71028 0.23411 0.0
C614 C 0.52629 0.69375 0.22039 0.0
C615 C 0.4922 0.64708 0.20671 0.0
H616 H 0.39031 0.65217 0.22765 0.0
H617 H 0.53666 0.76175 0.24211 0.0
C618 C 0.46489 0.90213 0.14236 0.0
N619 N 0.45445 0.85535 0.14679 0.0
C620 C 0.48207 0.92601 0.10476 0.0
C621 C 0.47815 0.85329 0.07819 0.0
C622 C 0.46085 0.83099 0.1157 0.0
C623 C 0.48823 0.90114 0.07193 0.0
H624 H 0.45978 0.92076 0.16784 0.0
H625 H 0.45298 0.79413 0.12026 0.0
O626 O 0.39289 0.746 0.28216 0.0
O627 O 0.38807 0.82605 0.23243 0.0
O628 O 0.48215 0.82591 0.23575 0.0
O629 O 0.39721 0.74621 0.18586 0.0
H630 H 0.34021 0.65352 0.30405 0.0
H631 H 0.47787 0.78427 0.31924 0.0
H632 H 0.36958 0.61038 0.34827 0.0
H633 H 0.50467 0.73888 0.36361 0.0
H634 H 0.30355 0.89584 0.18438 0.0
H635 H 0.3418 0.82234 0.30092 0.0
H636 H 0.36167 0.86618 0.17468 0.0
H637 H 0.28453 0.85323 0.30856 0.0
H638 H 0.39401 0.83259 0.41415 0.0
H639 H 0.51729 0.9629 0.36681 0.0
H640 H 0.22318 0.59491 0.26399 0.0
H641 H 0.18715 0.70831 0.25153 0.0
H642 H 0.52559 0.82306 0.1675 0.0
H643 H 0.54796 0.86515 0.29417 0.0
H644 H 0.61384 0.85385 0.16063 0.0
H645 H 0.63583 0.89473 0.28522 0.0
H646 H 0.35737 0.65397 0.1633 0.0
H647 H 0.35103 0.78506 0.14883 0.0
H648 H 0.28532 0.61148 0.11846 0.0
H649 H 0.27931 0.74032 0.10381 0.0
H650 H 0.41522 0.59484 0.20325 0.0
H651 H 0.56482 0.70784 0.21627 0.0
H652 H 0.48974 0.963 0.10123 0.0
H653 H 0.48382 0.83311 0.05429 0.0
loop_
_geom_bond_atom_site_label_1
_geom_bond_atom_site_label_2
_geom_bond_distance
_geom_bond_site_symmetry_2
_ccdc_geom_bond_type
H0 C8 0.930 . S
H1 C11 0.930 . S
H2 C13 0.930 . S
H3 C14 0.970 . S
H4 C14 0.970 . S
H5 C16 0.930 . S
H6 C18 0.930 . S
H7 C20 0.930 . S
C8 H0 0.930 . S
C8 C9 1.382 . S
C8 C10 1.426 . S
C9 C8 1.382 . S
C9 C13 1.389 . S
C10 C8 1.426 . S
C10 C11 1.375 . S
C10 C14 1.532 1_655 S
C11 H1 0.930 . S
C11 C10 1.375 . S
C11 C12 1.416 . S
C12 C11 1.416 . S
C12 C13 1.371 . S
C13 H2 0.930 . S
C13 C9 1.389 . S
C13 C12 1.371 . S
C14 H3 0.970 . S
C14 H4 0.970 . S
C14 C10 1.532 1_455 S
C14 C15 1.499 . S
C15 C14 1.499 . S
C15 C16 1.370 . S
C15 C20 1.415 . S
C16 H5 0.930 . S
C16 C15 1.370 . S
C16 C17 1.407 . S
C17 C16 1.407 . S
C17 C18 1.365 . S
C18 H6 0.930 . S
C18 C17 1.365 . S
C18 C19 1.393 . S
C19 C18 1.393 . S
C19 C20 1.387 . S
C20 H7 0.930 . S
C20 C15 1.415 . S
C20 C19 1.387 . S
H21 C29 0.930 . S
H22 C32 0.930 . S
H23 C34 0.930 . S
H24 C35 0.970 . S
H25 C35 0.970 . S
H26 C37 0.930 . S
H27 C39 0.930 . S
H28 C41 0.930 . S
C29 H21 0.930 . S
C29 C30 1.382 . S
C29 C31 1.426 . S
C30 C29 1.382 . S
C30 C34 1.389 . S
C31 C29 1.426 . S
C31 C32 1.375 . S
C31 C35 1.532 1_565 S
C32 H22 0.930 . S
C32 C31 1.375 . S
C32 C33 1.416 . S
C33 C32 1.416 . S
C33 C34 1.371 . S
C34 H23 0.930 . S
C34 C30 1.389 . S
C34 C33 1.371 . S
C35 H24 0.970 . S
C35 H25 0.970 . S
C35 C31 1.532 1_545 S
C35 C36 1.499 . S
C36 C35 1.499 . S
C36 C37 1.370 . S
C36 C41 1.415 . S
C37 H26 0.930 . S
C37 C36 1.370 . S
C37 C38 1.407 . S
C38 C37 1.407 . S
C38 C39 1.365 . S
C39 H27 0.930 . S
C39 C38 1.365 . S
C39 C40 1.393 . S
C40 C39 1.393 . S
C40 C41 1.387 . S
C41 H28 0.930 . S
C41 C36 1.415 . S
C41 C40 1.387 . S
H42 C50 0.930 . S
H43 C53 0.930 . S
H44 C55 0.930 . S
H45 C56 0.970 . S
H46 C56 0.970 . S
H47 C58 0.930 . S
H48 C60 0.930 . S
H49 C62 0.930 . S
C50 H42 0.930 . S
C50 C51 1.382 . S
C50 C52 1.426 . S
C51 C50 1.382 . S
C51 C55 1.389 . S
C52 C50 1.426 . S
C52 C53 1.375 . S
C52 C56 1.532 . S
C53 H43 0.930 . S
C53 C52 1.375 . S
C53 C54 1.416 . S
C54 C53 1.416 . S
C54 C55 1.371 . S
C55 H44 0.930 . S
C55 C51 1.389 . S
C55 C54 1.371 . S
C56 H45 0.970 . S
C56 H46 0.970 . S
C56 C52 1.532 . S
C56 C57 1.499 . S
C57 C56 1.499 . S
C57 C58 1.370 . S
C57 C62 1.415 . S
C58 H47 0.930 . S
C58 C57 1.370 . S
C58 C59 1.407 . S
C59 C58 1.407 . S
C59 C60 1.365 . S
C60 H48 0.930 . S
C60 C59 1.365 . S
C60 C61 1.393 . S
C61 C60 1.393 . S
C61 C62 1.387 . S
C62 H49 0.930 . S
C62 C57 1.415 . S
C62 C61 1.387 . S
H63 C71 0.930 . S
H64 C74 0.930 . S
H65 C76 0.930 . S
H66 C77 0.970 . S
H67 C77 0.970 . S
H68 C79 0.930 . S
H69 C81 0.930 . S
H70 C83 0.930 . S
C71 H63 0.930 . S
C71 C72 1.382 . S
C71 C73 1.426 . S
C72 C71 1.382 . S
C72 C76 1.389 . S
C73 C71 1.426 . S
C73 C74 1.375 . S
C73 C77 1.532 1_655 S
C74 H64 0.930 . S
C74 C73 1.375 . S
C74 C75 1.416 . S
C75 C74 1.416 . S
C75 C76 1.371 . S
C76 H65 0.930 . S
C76 C72 1.389 . S
C76 C75 1.371 . S
C77 H66 0.970 . S
C77 H67 0.970 . S
C77 C73 1.532 1_455 S
C77 C78 1.499 . S
C78 C77 1.499 . S
C78 C79 1.370 . S
C78 C83 1.415 . S
C79 H68 0.930 . S
C79 C78 1.370 . S
C79 C80 1.407 . S
C80 C79 1.407 . S
C80 C81 1.365 . S
C81 H69 0.930 . S
C81 C80 1.365 . S
C81 C82 1.393 . S
C82 C81 1.393 . S
C82 C83 1.387 . S
C83 H70 0.930 . S
C83 C78 1.415 . S
C83 C82 1.387 . S
H84 C92 0.930 . S
H85 C95 0.930 . S
H86 C97 0.930 . S
H87 C98 0.970 1_554 S
H88 C98 0.970 . S
H89 C100 0.930 . S
H90 C102 0.930 . S
H91 C104 0.930 . S
C92 H84 0.930 . S
C92 C93 1.382 . S
C92 C94 1.426 1_554 S
C93 C92 1.382 . S
C93 C97 1.389 1_554 S
C94 C92 1.426 1_556 S
C94 C95 1.375 . S
C94 C98 1.532 . S
C95 H85 0.930 . S
C95 C94 1.375 . S
C95 C96 1.416 . S
C96 C95 1.416 . S
C96 C97 1.371 . S
C97 H86 0.930 . S
C97 C93 1.389 1_556 S
C97 C96 1.371 . S
C98 H87 0.970 1_556 S
C98 H88 0.970 . S
C98 C94 1.532 . S
C98 C99 1.499 1_546 S
C99 C98 1.499 1_564 S
C99 C100 1.370 . S
C99 C104 1.415 1_554 S
C100 H89 0.930 . S
C100 C99 1.370 . S
C100 C101 1.407 . S
C101 C100 1.407 . S
C101 C102 1.365 . S
C102 H90 0.930 . S
C102 C101 1.365 . S
C102 C103 1.393 1_554 S
C103 C102 1.393 1_556 S
C103 C104 1.387 . S
C104 H91 0.930 . S
C104 C99 1.415 1_556 S
C104 C103 1.387 . S
H105 C113 0.930 . S
H106 C116 0.930 . S
H107 C118 0.930 . S
H108 C119 0.970 . S
H109 C119 0.970 . S
H110 C121 0.930 . S
H111 C123 0.930 . S
H112 C125 0.930 . S
C113 H105 0.930 . S
C113 C114 1.382 . S
C113 C115 1.426 . S
C114 C113 1.382 . S
C114 C118 1.389 . S
C115 C113 1.426 . S
C115 C116 1.375 . S
C115 C119 1.532 . S
C116 H106 0.930 . S
C116 C115 1.375 . S
C116 C117 1.416 . S
C117 C116 1.416 . S
C117 C118 1.371 . S
C118 H107 0.930 . S
C118 C114 1.389 . S
C118 C117 1.371 . S
C119 H108 0.970 . S
C119 H109 0.970 . S
C119 C115 1.532 . S
C119 C120 1.499 . S
C120 C119 1.499 . S
C120 C121 1.370 . S
C120 C125 1.415 . S
C121 H110 0.930 . S
C121 C120 1.370 . S
C121 C122 1.407 . S
C122 C121 1.407 . S
C122 C123 1.365 . S
C123 H111 0.930 . S
C123 C122 1.365 . S
C123 C124 1.393 . S
C124 C123 1.393 . S
C124 C125 1.387 . S
C125 H112 0.930 . S
C125 C120 1.415 . S
C125 C124 1.387 . S
Li126 N143 1.990 . S
Li126 O186 1.956 . S
Li126 O187 1.970 . S
Li126 O188 1.961 . S
Li127 N151 1.990 . S
Li127 O186 1.970 . S
Li127 O187 1.956 . S
Li127 O189 1.961 . S
Li128 N173 1.990 . S
Li128 O186 1.961 . S
Li128 O188 1.956 . S
Li128 O189 1.970 . S
Li129 N179 1.990 . S
Li129 O187 1.961 . S
Li129 O188 1.970 . S
Li129 O189 1.956 . S
C130 C132 1.348 . S
C130 C133 1.356 . S
C130 O186 1.325 . S
N131 C134 1.314 . S
N131 C135 1.279 . S
C132 C130 1.348 . S
C132 C134 1.353 . S
C132 H190 0.929 . S
C133 C130 1.356 . S
C133 C135 1.358 . S
C133 H191 0.930 . S
C134 N131 1.314 . S
C134 C132 1.353 . S
C134 H192 0.930 . S
C135 N131 1.279 . S
C135 C133 1.358 . S
C135 H193 0.930 . S
C136 C139 1.348 . S
C136 C140 1.356 . S
C136 O187 1.325 . S
C137 N138 1.279 . S
C137 C140 1.358 . S
C137 H194 0.930 . S
N138 C137 1.279 . S
N138 C141 1.314 . S
C139 C136 1.348 . S
C139 C141 1.353 . S
C139 H195 0.929 . S
C140 C136 1.356 . S
C140 C137 1.358 . S
C140 H196 0.930 . S
C141 N138 1.314 . S
C141 C139 1.353 . S
C141 H197 0.930 . S
C142 N143 1.314 . S
C142 C147 1.353 . S
C142 H148 0.930 . S
N143 Li126 1.990 . S
N143 C142 1.314 . S
N143 C145 1.279 . S
C144 C145 1.358 . S
C144 C146 1.356 . S
C144 H198 0.930 . S
C145 N143 1.279 . S
C145 C144 1.358 . S
C145 H149 0.930 . S
C146 C144 1.356 . S
C146 C147 1.348 . S
C147 C142 1.353 . S
C147 C146 1.348 . S
C147 H199 0.929 . S
H148 C142 0.930 . S
H149 C145 0.930 . S
C150 N151 1.314 . S
C150 C152 1.353 . S
C150 H156 0.930 . S
N151 Li127 1.990 . S
N151 C150 1.314 . S
N151 C154 1.279 . S
C152 C150 1.353 . S
C152 C155 1.348 . S
C152 H200 0.929 . S
C153 C154 1.358 . S
C153 C155 1.356 . S
C153 H201 0.930 . S
C154 N151 1.279 . S
C154 C153 1.358 . S
C154 H157 0.930 . S
C155 C152 1.348 . S
C155 C153 1.356 . S
H156 C150 0.930 . S
H157 C154 0.930 . S
C158 C160 1.348 . S
C158 C161 1.356 . S
C158 O188 1.325 . S
N159 C162 1.314 . S
N159 C163 1.279 . S
C160 C158 1.348 . S
C160 C162 1.353 . S
C160 H202 0.929 . S
C161 C158 1.356 . S
C161 C163 1.358 . S
C161 H203 0.930 . S
C162 N159 1.314 . S
C162 C160 1.353 . S
C162 H204 0.930 . S
C163 N159 1.279 . S
C163 C161 1.358 . S
C163 H205 0.930 . S
C164 C165 1.348 . S
C164 C166 1.356 . S
C164 O189 1.325 . S
C165 C164 1.348 . S
C165 C167 1.353 . S
C165 H206 0.929 . S
C166 C164 1.356 . S
C166 C168 1.358 . S
C166 H207 0.930 . S
C167 C165 1.353 . S
C167 N169 1.314 . S
C167 H208 0.930 . S
C168 C166 1.358 . S
C168 N169 1.279 . S
C168 H209 0.930 . S
N169 C167 1.314 . S
N169 C168 1.279 . S
C170 C172 1.353 . S
C170 N173 1.314 . S
C170 H176 0.930 . S
C171 N173 1.279 . S
C171 C174 1.358 . S
C171 H177 0.930 . S
C172 C170 1.353 . S
C172 C175 1.348 . S
C172 H210 0.929 . S
N173 Li128 1.990 . S
N173 C170 1.314 . S
N173 C171 1.279 . S
C174 C171 1.358 . S
C174 C175 1.356 . S
C174 H211 0.930 . S
C175 C172 1.348 . S
C175 C174 1.356 . S
H176 C170 0.930 . S
H177 C171 0.930 . S
C178 N179 1.314 . S
C178 C180 1.353 . S
C178 H184 0.930 . S
N179 Li129 1.990 . S
N179 C178 1.314 . S
N179 C182 1.279 . S
C180 C178 1.353 . S
C180 C183 1.348 . S
C180 H212 0.929 . S
C181 C182 1.358 . S
C181 C183 1.356 . S
C181 H213 0.930 . S
C182 N179 1.279 . S
C182 C181 1.358 . S
C182 H185 0.930 . S
C183 C180 1.348 . S
C183 C181 1.356 . S
H184 C178 0.930 . S
H185 C182 0.930 . S
O186 Li126 1.956 . S
O186 Li127 1.970 . S
O186 Li128 1.961 . S
O186 C130 1.325 . S
O187 Li126 1.970 . S
O187 Li127 1.956 . S
O187 Li129 1.961 . S
O187 C136 1.325 . S
O188 Li126 1.961 . S
O188 Li128 1.956 . S
O188 Li129 1.970 . S
O188 C158 1.325 . S
O189 Li127 1.961 . S
O189 Li128 1.970 . S
O189 Li129 1.956 . S
O189 C164 1.325 . S
H190 C132 0.929 . S
H191 C133 0.930 . S
H192 C134 0.930 . S
H193 C135 0.930 . S
H194 C137 0.930 . S
H195 C139 0.929 . S
H196 C140 0.930 . S
H197 C141 0.930 . S
H198 C144 0.930 . S
H199 C147 0.929 . S
H200 C152 0.929 . S
H201 C153 0.930 . S
H202 C160 0.929 . S
H203 C161 0.930 . S
H204 C162 0.930 . S
H205 C163 0.930 . S
H206 C165 0.929 . S
H207 C166 0.930 . S
H208 C167 0.930 . S
H209 C168 0.930 . S
H210 C172 0.929 . S
H211 C174 0.930 . S
H212 C180 0.929 . S
H213 C181 0.930 . S
Li214 N231 1.990 . S
Li214 O274 1.956 . S
Li214 O275 1.970 . S
Li214 O276 1.961 . S
Li215 N239 1.990 . S
Li215 O274 1.970 . S
Li215 O275 1.956 . S
Li215 O277 1.961 . S
Li216 N261 1.990 . S
Li216 O274 1.961 . S
Li216 O276 1.956 . S
Li216 O277 1.970 . S
Li217 N267 1.990 . S
Li217 O275 1.961 . S
Li217 O276 1.970 . S
Li217 O277 1.956 . S
C218 C220 1.348 . S
C218 C221 1.356 . S
C218 O274 1.325 . S
N219 C222 1.314 . S
N219 C223 1.279 . S
C220 C218 1.348 . S
C220 C222 1.353 . S
C220 H278 0.929 . S
C221 C218 1.356 . S
C221 C223 1.358 . S
C221 H279 0.930 . S
C222 N219 1.314 . S
C222 C220 1.353 . S
C222 H280 0.930 . S
C223 N219 1.279 . S
C223 C221 1.358 . S
C223 H281 0.930 . S
C224 C227 1.348 . S
C224 C228 1.356 . S
C224 O275 1.325 . S
C225 N226 1.279 . S
C225 C228 1.358 . S
C225 H282 0.930 . S
N226 C225 1.279 . S
N226 C229 1.314 . S
C227 C224 1.348 . S
C227 C229 1.353 . S
C227 H283 0.929 . S
C228 C224 1.356 . S
C228 C225 1.358 . S
C228 H284 0.930 . S
C229 N226 1.314 . S
C229 C227 1.353 . S
C229 H285 0.930 . S
C230 N231 1.314 . S
C230 C235 1.353 . S
C230 H236 0.930 . S
N231 Li214 1.990 . S
N231 C230 1.314 . S
N231 C233 1.279 . S
C232 C233 1.358 . S
C232 C234 1.356 . S
C232 H286 0.930 . S
C233 N231 1.279 . S
C233 C232 1.358 . S
C233 H237 0.930 . S
C234 C232 1.356 . S
C234 C235 1.348 . S
C235 C230 1.353 . S
C235 C234 1.348 . S
C235 H287 0.929 . S
H236 C230 0.930 . S
H237 C233 0.930 . S
C238 N239 1.314 . S
C238 C240 1.353 . S
C238 H244 0.930 . S
N239 Li215 1.990 . S
N239 C238 1.314 . S
N239 C242 1.279 . S
C240 C238 1.353 . S
C240 C243 1.348 . S
C240 H288 0.929 . S
C241 C242 1.358 . S
C241 C243 1.356 . S
C241 H289 0.930 . S
C242 N239 1.279 . S
C242 C241 1.358 . S
C242 H245 0.930 . S
C243 C240 1.348 . S
C243 C241 1.356 . S
H244 C238 0.930 . S
H245 C242 0.930 . S
C246 C248 1.348 . S
C246 C249 1.356 . S
C246 O276 1.325 . S
N247 C250 1.314 . S
N247 C251 1.279 . S
C248 C246 1.348 . S
C248 C250 1.353 . S
C248 H290 0.929 . S
C249 C246 1.356 . S
C249 C251 1.358 . S
C249 H291 0.930 . S
C250 N247 1.314 . S
C250 C248 1.353 . S
C250 H292 0.930 . S
C251 N247 1.279 . S
C251 C249 1.358 . S
C251 H293 0.930 . S
C252 C253 1.348 . S
C252 C254 1.356 . S
C252 O277 1.325 . S
C253 C252 1.348 . S
C253 C255 1.353 . S
C253 H294 0.929 . S
C254 C252 1.356 . S
C254 C256 1.358 . S
C254 H295 0.930 . S
C255 C253 1.353 . S
C255 N257 1.314 . S
C255 H296 0.930 . S
C256 C254 1.358 . S
C256 N257 1.279 . S
C256 H297 0.930 . S
N257 C255 1.314 . S
N257 C256 1.279 . S
C258 C260 1.353 . S
C258 N261 1.314 . S
C258 H264 0.930 . S
C259 N261 1.279 . S
C259 C262 1.358 . S
C259 H265 0.930 . S
C260 C258 1.353 . S
C260 C263 1.348 . S
C260 H298 0.929 . S
N261 Li216 1.990 . S
N261 C258 1.314 . S
N261 C259 1.279 . S
C262 C259 1.358 . S
C262 C263 1.356 . S
C262 H299 0.930 . S
C263 C260 1.348 . S
C263 C262 1.356 . S
H264 C258 0.930 . S
H265 C259 0.930 . S
C266 N267 1.314 . S
C266 C268 1.353 . S
C266 H272 0.930 . S
N267 Li217 1.990 . S
N267 C266 1.314 . S
N267 C270 1.279 . S
C268 C266 1.353 . S
C268 C271 1.348 . S
C268 H300 0.929 . S
C269 C270 1.358 . S
C269 C271 1.356 . S
C269 H301 0.930 . S
C270 N267 1.279 . S
C270 C269 1.358 . S
C270 H273 0.930 . S
C271 C268 1.348 . S
C271 C269 1.356 . S
H272 C266 0.930 . S
H273 C270 0.930 . S
O274 Li214 1.956 . S
O274 Li215 1.970 . S
O274 Li216 1.961 . S
O274 C218 1.325 . S
O275 Li214 1.970 . S
O275 Li215 1.956 . S
O275 Li217 1.961 . S
O275 C224 1.325 . S
O276 Li214 1.961 . S
O276 Li216 1.956 . S
O276 Li217 1.970 . S
O276 C246 1.325 . S
O277 Li215 1.961 . S
O277 Li216 1.970 . S
O277 Li217 1.956 . S
O277 C252 1.325 . S
H278 C220 0.929 . S
H279 C221 0.930 . S
H280 C222 0.930 . S
H281 C223 0.930 . S
H282 C225 0.930 . S
H283 C227 0.929 . S
H284 C228 0.930 . S
H285 C229 0.930 . S
H286 C232 0.930 . S
H287 C235 0.929 . S
H288 C240 0.929 . S
H289 C241 0.930 . S
H290 C248 0.929 . S
H291 C249 0.930 . S
H292 C250 0.930 . S
H293 C251 0.930 . S
H294 C253 0.929 . S
H295 C254 0.930 . S
H296 C255 0.930 . S
H297 C256 0.930 . S
H298 C260 0.929 . S
H299 C262 0.930 . S
H300 C268 0.929 . S
H301 C269 0.930 . S
Li302 N319 1.990 . S
Li302 O362 1.956 . S
Li302 O363 1.970 . S
Li302 O364 1.961 . S
Li303 N327 1.990 . S
Li303 O362 1.970 . S
Li303 O363 1.956 . S
Li303 O365 1.961 . S
Li304 N349 1.990 . S
Li304 O362 1.961 . S
Li304 O364 1.956 . S
Li304 O365 1.970 . S
Li305 N355 1.990 . S
Li305 O363 1.961 . S
Li305 O364 1.970 . S
Li305 O365 1.956 . S
C306 C308 1.348 . S
C306 C309 1.356 . S
C306 O362 1.325 . S
N307 C310 1.314 . S
N307 C311 1.279 . S
C308 C306 1.348 . S
C308 C310 1.353 . S
C308 H366 0.929 . S
C309 C306 1.356 . S
C309 C311 1.358 . S
C309 H367 0.930 . S
C310 N307 1.314 . S
C310 C308 1.353 . S
C310 H368 0.930 . S
C311 N307 1.279 . S
C311 C309 1.358 . S
C311 H369 0.930 . S
C312 C315 1.348 . S
C312 C316 1.356 . S
C312 O363 1.325 . S
C313 N314 1.279 . S
C313 C316 1.358 . S
C313 H370 0.930 . S
N314 C313 1.279 . S
N314 C317 1.314 . S
C315 C312 1.348 . S
C315 C317 1.353 . S
C315 H371 0.929 . S
C316 C312 1.356 . S
C316 C313 1.358 . S
C316 H372 0.930 . S
C317 N314 1.314 . S
C317 C315 1.353 . S
C317 H373 0.930 . S
C318 N319 1.314 . S
C318 C323 1.353 . S
C318 H324 0.930 . S
N319 Li302 1.990 . S
N319 C318 1.314 . S
N319 C321 1.279 . S
C320 C321 1.358 . S
C320 C322 1.356 . S
C320 H374 0.930 . S
C321 N319 1.279 . S
C321 C320 1.358 . S
C321 H325 0.930 . S
C322 C320 1.356 . S
C322 C323 1.348 . S
C323 C318 1.353 . S
C323 C322 1.348 . S
C323 H375 0.929 . S
H324 C318 0.930 . S
H325 C321 0.930 . S
C326 N327 1.314 . S
C326 C328 1.353 . S
C326 H332 0.930 . S
N327 Li303 1.990 . S
N327 C326 1.314 . S
N327 C330 1.279 . S
C328 C326 1.353 . S
C328 C331 1.348 . S
C328 H376 0.929 . S
C329 C330 1.358 . S
C329 C331 1.356 . S
C329 H377 0.930 . S
C330 N327 1.279 . S
C330 C329 1.358 . S
C330 H333 0.930 . S
C331 C328 1.348 . S
C331 C329 1.356 . S
H332 C326 0.930 . S
H333 C330 0.930 . S
C334 C336 1.348 . S
C334 C337 1.356 . S
C334 O364 1.325 . S
N335 C338 1.314 . S
N335 C339 1.279 . S
C336 C334 1.348 . S
C336 C338 1.353 . S
C336 H378 0.929 . S
C337 C334 1.356 . S
C337 C339 1.358 . S
C337 H379 0.930 . S
C338 N335 1.314 . S
C338 C336 1.353 . S
C338 H380 0.930 . S
C339 N335 1.279 . S
C339 C337 1.358 . S
C339 H381 0.930 . S
C340 C341 1.348 . S
C340 C342 1.356 . S
C340 O365 1.325 . S
C341 C340 1.348 . S
C341 C343 1.353 . S
C341 H382 0.929 . S
C342 C340 1.356 . S
C342 C344 1.358 . S
C342 H383 0.930 . S
C343 C341 1.353 . S
C343 N345 1.314 . S
C343 H384 0.930 . S
C344 C342 1.358 . S
C344 N345 1.279 . S
C344 H385 0.930 . S
N345 C343 1.314 . S
N345 C344 1.279 . S
C346 C348 1.353 . S
C346 N349 1.314 . S
C346 H352 0.930 . S
C347 N349 1.279 . S
C347 C350 1.358 . S
C347 H353 0.930 . S
C348 C346 1.353 . S
C348 C351 1.348 . S
C348 H386 0.929 . S
N349 Li304 1.990 . S
N349 C346 1.314 . S
N349 C347 1.279 . S
C350 C347 1.358 . S
C350 C351 1.356 . S
C350 H387 0.930 . S
C351 C348 1.348 . S
C351 C350 1.356 . S
H352 C346 0.930 . S
H353 C347 0.930 . S
C354 N355 1.314 . S
C354 C356 1.353 . S
C354 H360 0.930 . S
N355 Li305 1.990 . S
N355 C354 1.314 . S
N355 C358 1.279 . S
C356 C354 1.353 . S
C356 C359 1.348 . S
C356 H388 0.929 . S
C357 C358 1.358 . S
C357 C359 1.356 . S
C357 H389 0.930 . S
C358 N355 1.279 . S
C358 C357 1.358 . S
C358 H361 0.930 . S
C359 C356 1.348 . S
C359 C357 1.356 . S
H360 C354 0.930 . S
H361 C358 0.930 . S
O362 Li302 1.956 . S
O362 Li303 1.970 . S
O362 Li304 1.961 . S
O362 C306 1.325 . S
O363 Li302 1.970 . S
O363 Li303 1.956 . S
O363 Li305 1.961 . S
O363 C312 1.325 . S
O364 Li302 1.961 . S
O364 Li304 1.956 . S
O364 Li305 1.970 . S
O364 C334 1.325 . S
O365 Li303 1.961 . S
O365 Li304 1.970 . S
O365 Li305 1.956 . S
O365 C340 1.325 . S
H366 C308 0.929 . S
H367 C309 0.930 . S
H368 C310 0.930 . S
H369 C311 0.930 . S
H370 C313 0.930 . S
H371 C315 0.929 . S
H372 C316 0.930 . S
H373 C317 0.930 . S
H374 C320 0.930 . S
H375 C323 0.929 . S
H376 C328 0.929 . S
H377 C329 0.930 . S
H378 C336 0.929 . S
H379 C337 0.930 . S
H380 C338 0.930 . S
H381 C339 0.930 . S
H382 C341 0.929 . S
H383 C342 0.930 . S
H384 C343 0.930 . S
H385 C344 0.930 . S
H386 C348 0.929 . S
H387 C350 0.930 . S
H388 C356 0.929 . S
H389 C357 0.930 . S
Li390 N407 1.990 1_556 S
Li390 O450 1.956 . S
Li390 O451 1.970 . S
Li390 O452 1.961 . S
Li391 N415 1.990 . S
Li391 O450 1.970 . S
Li391 O451 1.956 . S
Li391 O453 1.961 . S
Li392 N437 1.990 . S
Li392 O450 1.961 . S
Li392 O452 1.956 . S
Li392 O453 1.970 . S
Li393 N443 1.990 . S
Li393 O451 1.961 . S
Li393 O452 1.970 . S
Li393 O453 1.956 . S
C394 C396 1.348 1_556 S
C394 C397 1.356 1_556 S
C394 O450 1.325 . S
N395 C398 1.314 . S
N395 C399 1.279 . S
C396 C394 1.348 1_554 S
C396 C398 1.353 . S
C396 H454 0.929 . S
C397 C394 1.356 1_554 S
C397 C399 1.358 . S
C397 H455 0.930 1_554 S
C398 N395 1.314 . S
C398 C396 1.353 . S
C398 H456 0.930 . S
C399 N395 1.279 . S
C399 C397 1.358 . S
C399 H457 0.930 . S
C400 C403 1.348 . S
C400 C404 1.356 . S
C400 O451 1.325 . S
C401 N402 1.279 . S
C401 C404 1.358 . S
C401 H458 0.930 . S
N402 C401 1.279 . S
N402 C405 1.314 . S
C403 C400 1.348 . S
C403 C405 1.353 . S
C403 H459 0.929 . S
C404 C400 1.356 . S
C404 C401 1.358 . S
C404 H460 0.930 . S
C405 N402 1.314 . S
C405 C403 1.353 . S
C405 H461 0.930 . S
C406 N407 1.314 . S
C406 C411 1.353 . S
C406 H412 0.930 1_554 S
N407 Li390 1.990 1_554 S
N407 C406 1.314 . S
N407 C409 1.279 . S
C408 C409 1.358 . S
C408 C410 1.356 . S
C408 H462 0.930 . S
C409 N407 1.279 . S
C409 C408 1.358 . S
C409 H413 0.930 . S
C410 C408 1.356 . S
C410 C411 1.348 . S
C411 C406 1.353 . S
C411 C410 1.348 . S
C411 H463 0.929 . S
H412 C406 0.930 1_556 S
H413 C409 0.930 . S
C414 N415 1.314 . S
C414 C416 1.353 . S
C414 H420 0.930 . S
N415 Li391 1.990 . S
N415 C414 1.314 . S
N415 C418 1.279 . S
C416 C414 1.353 . S
C416 C419 1.348 . S
C416 H464 0.929 . S
C417 C418 1.358 . S
C417 C419 1.356 . S
C417 H465 0.930 . S
C418 N415 1.279 . S
C418 C417 1.358 . S
C418 H421 0.930 . S
C419 C416 1.348 . S
C419 C417 1.356 . S
H420 C414 0.930 . S
H421 C418 0.930 . S
C422 C424 1.348 . S
C422 C425 1.356 . S
C422 O452 1.325 . S
N423 C426 1.314 . S
N423 C427 1.279 . S
C424 C422 1.348 . S
C424 C426 1.353 . S
C424 H466 0.929 . S
C425 C422 1.356 . S
C425 C427 1.358 . S
C425 H467 0.930 . S
C426 N423 1.314 . S
C426 C424 1.353 . S
C426 H468 0.930 . S
C427 N423 1.279 . S
C427 C425 1.358 . S
C427 H469 0.930 . S
C428 C429 1.348 . S
C428 C430 1.356 . S
C428 O453 1.325 . S
C429 C428 1.348 . S
C429 C431 1.353 . S
C429 H470 0.929 . S
C430 C428 1.356 . S
C430 C432 1.358 . S
C430 H471 0.930 . S
C431 C429 1.353 . S
C431 N433 1.314 . S
C431 H472 0.930 . S
C432 C430 1.358 . S
C432 N433 1.279 . S
C432 H473 0.930 . S
N433 C431 1.314 . S
N433 C432 1.279 . S
C434 C436 1.353 . S
C434 N437 1.314 . S
C434 H440 0.930 . S
C435 N437 1.279 . S
C435 C438 1.358 . S
C435 H441 0.930 . S
C436 C434 1.353 . S
C436 C439 1.348 . S
C436 H474 0.929 . S
N437 Li392 1.990 . S
N437 C434 1.314 . S
N437 C435 1.279 . S
C438 C435 1.358 . S
C438 C439 1.356 . S
C438 H475 0.930 . S
C439 C436 1.348 . S
C439 C438 1.356 . S
H440 C434 0.930 . S
H441 C435 0.930 . S
C442 N443 1.314 . S
C442 C444 1.353 . S
C442 H448 0.930 . S
N443 Li393 1.990 . S
N443 C442 1.314 . S
N443 C446 1.279 . S
C444 C442 1.353 . S
C444 C447 1.348 . S
C444 H476 0.929 . S
C445 C446 1.358 . S
C445 C447 1.356 . S
C445 H477 0.930 . S
C446 N443 1.279 . S
C446 C445 1.358 . S
C446 H449 0.930 . S
C447 C444 1.348 . S
C447 C445 1.356 . S
H448 C442 0.930 . S
H449 C446 0.930 . S
O450 Li390 1.956 . S
O450 Li391 1.970 . S
O450 Li392 1.961 . S
O450 C394 1.325 . S
O451 Li390 1.970 . S
O451 Li391 1.956 . S
O451 Li393 1.961 . S
O451 C400 1.325 . S
O452 Li390 1.961 . S
O452 Li392 1.956 . S
O452 Li393 1.970 . S
O452 C422 1.325 . S
O453 Li391 1.961 . S
O453 Li392 1.970 . S
O453 Li393 1.956 . S
O453 C428 1.325 . S
H454 C396 0.929 . S
H455 C397 0.930 1_556 S
H456 C398 0.930 . S
H457 C399 0.930 . S
H458 C401 0.930 . S
H459 C403 0.929 . S
H460 C404 0.930 . S
H461 C405 0.930 . S
H462 C408 0.930 . S
H463 C411 0.929 . S
H464 C416 0.929 . S
H465 C417 0.930 . S
H466 C424 0.929 . S
H467 C425 0.930 . S
H468 C426 0.930 . S
H469 C427 0.930 . S
H470 C429 0.929 . S
H471 C430 0.930 . S
H472 C431 0.930 . S
H473 C432 0.930 . S
H474 C436 0.929 . S
H475 C438 0.930 . S
H476 C444 0.929 . S
H477 C445 0.930 . S
Li478 N495 1.990 . S
Li478 O538 1.956 . S
Li478 O539 1.970 . S
Li478 O540 1.961 . S
Li479 N503 1.990 . S
Li479 O538 1.970 . S
Li479 O539 1.956 . S
Li479 O541 1.961 . S
Li480 N525 1.990 1_554 S
Li480 O538 1.961 . S
Li480 O540 1.956 . S
Li480 O541 1.970 . S
Li481 N531 1.990 . S
Li481 O539 1.961 . S
Li481 O540 1.970 . S
Li481 O541 1.956 . S
C482 C484 1.348 . S
C482 C485 1.356 . S
C482 O538 1.325 . S
N483 C486 1.314 . S
N483 C487 1.279 . S
C484 C482 1.348 . S
C484 C486 1.353 . S
C484 H542 0.929 . S
C485 C482 1.356 . S
C485 C487 1.358 . S
C485 H543 0.930 . S
C486 N483 1.314 . S
C486 C484 1.353 . S
C486 H544 0.930 . S
C487 N483 1.279 . S
C487 C485 1.358 . S
C487 H545 0.930 . S
C488 C491 1.348 . S
C488 C492 1.356 . S
C488 O539 1.325 . S
C489 N490 1.279 . S
C489 C492 1.358 . S
C489 H546 0.930 . S
N490 C489 1.279 . S
N490 C493 1.314 . S
C491 C488 1.348 . S
C491 C493 1.353 . S
C491 H547 0.929 . S
C492 C488 1.356 . S
C492 C489 1.358 . S
C492 H548 0.930 . S
C493 N490 1.314 . S
C493 C491 1.353 . S
C493 H549 0.930 . S
C494 N495 1.314 . S
C494 C499 1.353 . S
C494 H500 0.930 . S
N495 Li478 1.990 . S
N495 C494 1.314 . S
N495 C497 1.279 . S
C496 C497 1.358 . S
C496 C498 1.356 . S
C496 H550 0.930 . S
C497 N495 1.279 . S
C497 C496 1.358 . S
C497 H501 0.930 . S
C498 C496 1.356 . S
C498 C499 1.348 . S
C499 C494 1.353 . S
C499 C498 1.348 . S
C499 H551 0.929 . S
H500 C494 0.930 . S
H501 C497 0.930 . S
C502 N503 1.314 . S
C502 C504 1.353 . S
C502 H508 0.930 . S
N503 Li479 1.990 . S
N503 C502 1.314 . S
N503 C506 1.279 . S
C504 C502 1.353 . S
C504 C507 1.348 . S
C504 H552 0.929 . S
C505 C506 1.358 . S
C505 C507 1.356 . S
C505 H553 0.930 . S
C506 N503 1.279 . S
C506 C505 1.358 . S
C506 H509 0.930 . S
C507 C504 1.348 . S
C507 C505 1.356 . S
H508 C502 0.930 . S
H509 C506 0.930 . S
C510 C512 1.335 1_554 S
C510 C513 1.345 1_554 S
C510 O540 1.346 . S
N511 C514 1.314 . S
N511 C515 1.279 . S
C512 C510 1.335 1_556 S
C512 C514 1.353 . S
C512 H554 0.929 . S
C513 C510 1.345 1_556 S
C513 C515 1.358 . S
C513 H555 0.930 . S
C514 N511 1.314 . S
C514 C512 1.353 . S
C514 H556 0.930 . S
C515 N511 1.279 . S
C515 C513 1.358 . S
C515 H557 0.930 . S
C516 C517 1.348 . S
C516 C518 1.356 . S
C516 O541 1.325 . S
C517 C516 1.348 . S
C517 C519 1.353 . S
C517 H558 0.929 . S
C518 C516 1.356 . S
C518 C520 1.358 . S
C518 H559 0.930 . S
C519 C517 1.353 . S
C519 N521 1.314 . S
C519 H560 0.928 1_554 S
C520 C518 1.358 . S
C520 N521 1.279 . S
C520 H561 0.930 . S
N521 C519 1.314 . S
N521 C520 1.279 . S
C522 C524 1.353 . S
C522 N525 1.314 . S
C522 H528 0.930 1_556 S
C523 N525 1.279 . S
C523 C526 1.358 . S
C523 H529 0.930 . S
C524 C522 1.353 . S
C524 C527 1.348 . S
C524 H562 0.929 . S
N525 Li480 1.990 1_556 S
N525 C522 1.314 . S
N525 C523 1.279 . S
C526 C523 1.358 . S
C526 C527 1.356 . S
C526 H563 0.930 . S
C527 C524 1.348 . S
C527 C526 1.356 . S
H528 C522 0.930 1_554 S
H529 C523 0.930 . S
C530 N531 1.314 . S
C530 C532 1.353 . S
C530 H536 0.930 . S
N531 Li481 1.990 . S
N531 C530 1.314 . S
N531 C534 1.279 . S
C532 C530 1.353 . S
C532 C535 1.348 . S
C532 H564 0.929 . S
C533 C534 1.358 . S
C533 C535 1.356 . S
C533 H565 0.930 . S
C534 N531 1.279 . S
C534 C533 1.358 . S
C534 H537 0.930 . S
C535 C532 1.348 . S
C535 C533 1.356 . S
H536 C530 0.930 . S
H537 C534 0.930 . S
O538 Li478 1.956 . S
O538 Li479 1.970 . S
O538 Li480 1.961 . S
O538 C482 1.325 . S
O539 Li478 1.970 . S
O539 Li479 1.956 . S
O539 Li481 1.961 . S
O539 C488 1.325 . S
O540 Li478 1.961 . S
O540 Li480 1.956 . S
O540 Li481 1.970 . S
O540 C510 1.346 . S
O541 Li479 1.961 . S
O541 Li480 1.970 . S
O541 Li481 1.956 . S
O541 C516 1.325 . S
H542 C484 0.929 . S
H543 C485 0.930 . S
H544 C486 0.930 . S
H545 C487 0.930 . S
H546 C489 0.930 . S
H547 C491 0.929 . S
H548 C492 0.930 . S
H549 C493 0.930 . S
H550 C496 0.930 . S
H551 C499 0.929 . S
H552 C504 0.929 . S
H553 C505 0.930 . S
H554 C512 0.929 . S
H555 C513 0.930 . S
H556 C514 0.930 . S
H557 C515 0.930 . S
H558 C517 0.929 . S
H559 C518 0.930 . S
H560 C519 0.928 1_556 S
H561 C520 0.930 . S
H562 C524 0.929 . S
H563 C526 0.930 . S
H564 C532 0.929 . S
H565 C533 0.930 . S
Li566 N583 1.990 . S
Li566 O626 1.956 . S
Li566 O627 1.970 . S
Li566 O628 1.961 . S
Li567 N591 1.990 . S
Li567 O626 1.970 . S
Li567 O627 1.956 . S
Li567 O629 1.961 . S
Li568 N613 1.990 . S
Li568 O626 1.961 . S
Li568 O628 1.956 . S
Li568 O629 1.970 . S
Li569 N619 1.990 . S
Li569 O627 1.961 . S
Li569 O628 1.970 . S
Li569 O629 1.956 . S
C570 C572 1.348 . S
C570 C573 1.356 . S
C570 O626 1.325 . S
N571 C574 1.314 . S
N571 C575 1.279 . S
C572 C570 1.348 . S
C572 C574 1.353 . S
C572 H630 0.929 . S
C573 C570 1.356 . S
C573 C575 1.358 . S
C573 H631 0.930 . S
C574 N571 1.314 . S
C574 C572 1.353 . S
C574 H632 0.930 . S
C575 N571 1.279 . S
C575 C573 1.358 . S
C575 H633 0.930 . S
C576 C579 1.348 . S
C576 C580 1.356 . S
C576 O627 1.325 . S
C577 N578 1.279 . S
C577 C580 1.358 . S
C577 H634 0.930 . S
N578 C577 1.279 . S
N578 C581 1.314 . S
C579 C576 1.348 . S
C579 C581 1.353 . S
C579 H635 0.929 . S
C580 C576 1.356 . S
C580 C577 1.358 . S
C580 H636 0.930 . S
C581 N578 1.314 . S
C581 C579 1.353 . S
C581 H637 0.930 . S
C582 N583 1.314 . S
C582 C587 1.353 . S
C582 H588 0.930 . S
N583 Li566 1.990 . S
N583 C582 1.314 . S
N583 C585 1.279 . S
C584 C585 1.358 . S
C584 C586 1.356 . S
C584 H638 0.930 . S
C585 N583 1.279 . S
C585 C584 1.358 . S
C585 H589 0.930 . S
C586 C584 1.356 . S
C586 C587 1.348 . S
C587 C582 1.353 . S
C587 C586 1.348 . S
C587 H639 0.929 . S
H588 C582 0.930 . S
H589 C585 0.930 . S
C590 N591 1.314 . S
C590 C592 1.353 . S
C590 H596 0.930 . S
N591 Li567 1.990 . S
N591 C590 1.314 . S
N591 C594 1.279 . S
C592 C590 1.353 . S
C592 C595 1.348 . S
C592 H640 0.929 . S
C593 C594 1.358 . S
C593 C595 1.356 . S
C593 H641 0.930 . S
C594 N591 1.279 . S
C594 C593 1.358 . S
C594 H597 0.930 . S
C595 C592 1.348 . S
C595 C593 1.356 . S
H596 C590 0.930 . S
H597 C594 0.930 . S
C598 C600 1.348 . S
C598 C601 1.356 . S
C598 O628 1.325 . S
N599 C602 1.314 . S
N599 C603 1.279 . S
C600 C598 1.348 . S
C600 C602 1.353 . S
C600 H642 0.929 . S
C601 C598 1.356 . S
C601 C603 1.358 . S
C601 H643 0.930 . S
C602 N599 1.314 . S
C602 C600 1.353 . S
C602 H644 0.930 . S
C603 N599 1.279 . S
C603 C601 1.358 . S
C603 H645 0.930 . S
C604 C605 1.348 . S
C604 C606 1.356 . S
C604 O629 1.325 . S
C605 C604 1.348 . S
C605 C607 1.353 . S
C605 H646 0.929 . S
C606 C604 1.356 . S
C606 C608 1.358 . S
C606 H647 0.930 . S
C607 C605 1.353 . S
C607 N609 1.314 . S
C607 H648 0.930 . S
C608 C606 1.358 . S
C608 N609 1.279 . S
C608 H649 0.930 . S
N609 C607 1.314 . S
N609 C608 1.279 . S
C610 C612 1.353 . S
C610 N613 1.314 . S
C610 H616 0.930 . S
C611 N613 1.279 . S
C611 C614 1.358 . S
C611 H617 0.930 . S
C612 C610 1.353 . S
C612 C615 1.348 . S
C612 H650 0.929 . S
N613 Li568 1.990 . S
N613 C610 1.314 . S
N613 C611 1.279 . S
C614 C611 1.358 . S
C614 C615 1.356 . S
C614 H651 0.930 . S
C615 C612 1.348 . S
C615 C614 1.356 . S
H616 C610 0.930 . S
H617 C611 0.930 . S
C618 N619 1.314 . S
C618 C620 1.353 . S
C618 H624 0.930 . S
N619 Li569 1.990 . S
N619 C618 1.314 . S
N619 C622 1.279 . S
C620 C618 1.353 . S
C620 C623 1.348 . S
C620 H652 0.929 . S
C621 C622 1.358 . S
C621 C623 1.356 . S
C621 H653 0.930 . S
C622 N619 1.279 . S
C622 C621 1.358 . S
C622 H625 0.930 . S
C623 C620 1.348 . S
C623 C621 1.356 . S
H624 C618 0.930 . S
H625 C622 0.930 . S
O626 Li566 1.956 . S
O626 Li567 1.970 . S
O626 Li568 1.961 . S
O626 C570 1.325 . S
O627 Li566 1.970 . S
O627 Li567 1.956 . S
O627 Li569 1.961 . S
O627 C576 1.325 . S
O628 Li566 1.961 . S
O628 Li568 1.956 . S
O628 Li569 1.970 . S
O628 C598 1.325 . S
O629 Li567 1.961 . S
O629 Li568 1.970 . S
O629 Li569 1.956 . S
O629 C604 1.325 . S
H630 C572 0.929 . S
H631 C573 0.930 . S
H632 C574 0.930 . S
H633 C575 0.930 . S
H634 C577 0.930 . S
H635 C579 0.929 . S
H636 C580 0.930 . S
H637 C581 0.930 . S
H638 C584 0.930 . S
H639 C587 0.929 . S
H640 C592 0.929 . S
H641 C593 0.930 . S
H642 C600 0.929 . S
H643 C601 0.930 . S
H644 C602 0.930 . S
H645 C603 0.930 . S
H646 C605 0.929 . S
H647 C606 0.930 . S
H648 C607 0.930 . S
H649 C608 0.930 . S
H650 C612 0.929 . S
H651 C614 0.930 . S
H652 C620 0.929 . S
H653 C621 0.930 . S
C595 C19 2.027 . S
C40 C155 2.022 . S
C51 C243 2.010 . S
C72 C322 2.005 . S
C419 C103 2.025 . S
C114 C498 1.999 . S
C30 C263 2.011 . S
C61 C359 2.022 . S
C82 C439 2.025 . S
C535 C93 2.000 . S
C615 C124 2.026 . S
C175 C9 2.005 . S
C17 C271 1.660 . S
C38 C351 1.657 . S
C447 C54 1.661 . S
C75 C527 1.673 . S
C623 C101 1.649 . S
C183 C117 1.657 . S
C586 C33 1.662 . S
C59 C146 1.656 . S
C234 C80 1.661 . S
C96 C331 1.657 . S
C122 C410 1.648 . S
C12 C507 1.673 . S
