# Generated by pormake.
# Topology zzz, (3,6)-cn, num edge types: 1
# Building blocks:
#     Node 0, Type 0, BuildingBlock: VETTIZ_charged_linker_0, # of connection points: 3
#     Node 1, Type 0, BuildingBlock: VETTIZ_charged_linker_0, # of connection points: 3
#     Node 2, Type 0, BuildingBlock: VETTIZ_charged_linker_0, # of connection points: 3
#     Node 3, Type 0, BuildingBlock: VETTIZ_charged_linker_0, # of connection points: 3
#     Node 4, Type 0, BuildingBlock: VETTIZ_charged_linker_0, # of connection points: 3
#     Node 5, Type 0, BuildingBlock: VETTIZ_charged_linker_0, # of connection points: 3
#     Node 6, Type 0, BuildingBlock: VETTIZ_charged_linker_0, # of connection points: 3
#     Node 7, Type 0, BuildingBlock: VETTIZ_charged_linker_0, # of connection points: 3
#     Node 8, Type 1, BuildingBlock: BETDEL_clean_sbu_0, # of connection points: 6
#     Node 9, Type 1, BuildingBlock: BETDEL_clean_sbu_0, # of connection points: 6
#     Node 10, Type 1, BuildingBlock: BETDEL_clean_sbu_0, # of connection points: 6
#     Node 11, Type 1, BuildingBlock: BETDEL_clean_sbu_0, # of connection points: 6
#     Edge 12, Type (0, 1), BuildingBlock: KIFKEQ_clean_linker_1, # of connection points: 2
#     Edge 13, Type (0, 1), BuildingBlock: KIFKEQ_clean_linker_1, # of connection points: 2
#     Edge 14, Type (0, 1), BuildingBlock: KIFKEQ_clean_linker_1, # of connection points: 2
#     Edge 15, Type (0, 1), BuildingBlock: KIFKEQ_clean_linker_1, # of connection points: 2
#     Edge 16, Type (0, 1), BuildingBlock: KIFKEQ_clean_linker_1, # of connection points: 2
#     Edge 17, Type (0, 1), BuildingBlock: KIFKEQ_clean_linker_1, # of connection points: 2
#     Edge 18, Type (0, 1), BuildingBlock: KIFKEQ_clean_linker_1, # of connection points: 2
#     Edge 19, Type (0, 1), BuildingBlock: KIFKEQ_clean_linker_1, # of connection points: 2
#     Edge 20, Type (0, 1), BuildingBlock: KIFKEQ_clean_linker_1, # of connection points: 2
#     Edge 21, Type (0, 1), BuildingBlock: KIFKEQ_clean_linker_1, # of connection points: 2
#     Edge 22, Type (0, 1), BuildingBlock: KIFKEQ_clean_linker_1, # of connection points: 2
#     Edge 23, Type (0, 1), BuildingBlock: KIFKEQ_clean_linker_1, # of connection points: 2
#     Edge 24, Type (0, 1), BuildingBlock: KIFKEQ_clean_linker_1, # of connection points: 2
#     Edge 25, Type (0, 1), BuildingBlock: KIFKEQ_clean_linker_1, # of connection points: 2
#     Edge 26, Type (0, 1), BuildingBlock: KIFKEQ_clean_linker_1, # of connection points: 2
#     Edge 27, Type (0, 1), BuildingBlock: KIFKEQ_clean_linker_1, # of connection points: 2
#     Edge 28, Type (0, 1), BuildingBlock: KIFKEQ_clean_linker_1, # of connection points: 2
#     Edge 29, Type (0, 1), BuildingBlock: KIFKEQ_clean_linker_1, # of connection points: 2
#     Edge 30, Type (0, 1), BuildingBlock: KIFKEQ_clean_linker_1, # of connection points: 2
#     Edge 31, Type (0, 1), BuildingBlock: KIFKEQ_clean_linker_1, # of connection points: 2
#     Edge 32, Type (0, 1), BuildingBlock: KIFKEQ_clean_linker_1, # of connection points: 2
#     Edge 33, Type (0, 1), BuildingBlock: KIFKEQ_clean_linker_1, # of connection points: 2
#     Edge 34, Type (0, 1), BuildingBlock: KIFKEQ_clean_linker_1, # of connection points: 2
#     Edge 35, Type (0, 1), BuildingBlock: KIFKEQ_clean_linker_1, # of connection points: 2
# Relax obj value: 0.341
# Max RMSD: 0.231
# Mean RMSD: 0.212
data_MOF--net-zzz--node1-BETDEL_clean_sbu_0--node2-VETTIZ_charged_linker_0--edge1-KIFKEQ_clean_linker_1
_symmetry_space_group_name_H-M    P1
_symmetry_Int_Tables_number       1
_symmetry_cell_setting            triclinic
loop_
_symmetry_equiv_pos_as_xyz
'x, y, z'
_cell_length_a     56.332729
_cell_length_b     56.105781
_cell_length_c     20.004747
_cell_angle_alpha  90.794945
_cell_angle_beta   89.485209
_cell_angle_gamma 95.609435
loop_
_atom_site_label
_atom_site_type_symbol
_atom_site_fract_x
_atom_site_fract_y
_atom_site_fract_z
_atom_type_partial_charge
C0 C 0.80976 0.5035 0.20232 0.0
C1 C 0.82607 0.49209 0.24176 0.0
C2 C 0.82722 0.46724 0.23364 0.0
C3 C 0.80087 0.46651 0.13966 0.0
C4 C 0.79659 0.48986 0.15253 0.0
C5 C 0.77629 0.49666 0.10906 0.0
H6 H 0.70306 0.46276 0.84306 0.0
C7 C 0.78775 0.45772 0.08028 0.0
C8 C 0.77205 0.47456 0.06293 0.0
H9 H 0.69825 0.52475 0.97057 0.0
H10 H 0.73291 0.51469 0.03331 0.0
H11 H 0.75486 0.47153 0.82001 0.0
H12 H 0.71496 0.42403 0.95295 0.0
H13 H 0.73703 0.4084 0.91282 0.0
H14 H 0.71559 0.4219 0.86321 0.0
H15 H 0.7478 0.44079 0.79734 0.0
H16 H 0.77533 0.45099 0.83895 0.0
C17 C 0.78466 0.51945 0.06992 0.0
C18 C 0.75461 0.49964 0.15504 0.0
C19 C 0.82823 0.40107 0.93073 0.0
C20 C 0.82447 0.39426 0.86347 0.0
C21 C 0.8018 0.39622 0.83575 0.0
C22 C 0.78449 0.40763 0.87155 0.0
C23 C 0.79003 0.41741 0.93523 0.0
C24 C 0.81105 0.41289 0.96521 0.0
C25 C 0.81409 0.42452 0.03313 0.0
C26 C 0.79242 0.43892 0.0356 0.0
C27 C 0.77867 0.43486 0.97792 0.0
C28 C 0.83792 0.44089 0.03399 0.0
C29 C 0.81299 0.40447 0.08616 0.0
C30 C 0.70913 0.47396 0.8853 0.0
C31 C 0.69754 0.49414 0.90303 0.0
C32 C 0.70671 0.50888 0.95653 0.0
C33 C 0.72657 0.50286 0.99335 0.0
C34 C 0.73743 0.482 0.9761 0.0
C35 C 0.72885 0.46834 0.92172 0.0
C36 C 0.74339 0.44799 0.90588 0.0
C37 C 0.76069 0.45004 0.96359 0.0
C38 C 0.75746 0.47009 1.00496 0.0
C39 C 0.75595 0.45288 0.8371 0.0
C40 C 0.72694 0.42423 0.9084 0.0
H41 H 0.81543 0.43553 0.18016 0.0
H42 H 0.80744 0.52226 0.21011 0.0
H43 H 0.75224 0.48488 0.1918 0.0
H44 H 0.73771 0.49885 0.12744 0.0
H45 H 0.75708 0.51685 0.18344 0.0
H46 H 0.80174 0.51722 0.04334 0.0
H47 H 0.78758 0.53518 0.10423 0.0
H48 H 0.77165 0.52349 0.03176 0.0
H49 H 0.84519 0.3995 0.95428 0.0
H50 H 0.79797 0.39031 0.78488 0.0
H51 H 0.76793 0.40946 0.84708 0.0
H52 H 0.83851 0.45397 0.9926 0.0
H53 H 0.85343 0.43024 0.02836 0.0
H54 H 0.84073 0.45114 0.08106 0.0
H55 H 0.8122 0.3862 0.0634 0.0
H56 H 0.79687 0.40464 0.11851 0.0
H57 H 0.82909 0.40617 0.11818 0.0
H58 H 0.83887 0.45782 0.26444 0.0
C59 C 0.81432 0.45439 0.18374 0.0
C60 C 0.93913 0.79201 0.85627 0.0
C61 C 0.93389 0.81587 0.86628 0.0
C62 C 0.91753 0.82093 0.91719 0.0
C63 C 0.92035 0.78185 0.96203 0.0
C64 C 0.93174 0.77503 0.90481 0.0
C65 C 0.93791 0.74961 0.9091 0.0
H66 H 0.98317 0.66601 0.06615 0.0
C67 C 0.92365 0.76446 0.01418 0.0
C68 C 0.93099 0.74413 0.98211 0.0
H69 H 0.93516 0.65497 0.89755 0.0
H70 H 0.91939 0.69298 0.92387 0.0
H71 H 0.99785 0.72764 0.0554 0.0
H72 H 0.93775 0.69049 0.16169 0.0
H73 H 0.95545 0.71187 0.21113 0.0
H74 H 0.9679 0.68535 0.18168 0.0
H75 H 1.00257 0.70679 0.12045 0.0
H76 H 0.99531 0.73653 0.14056 0.0
C77 C 0.96488 0.74843 0.89646 0.0
C78 C 0.92291 0.73425 0.85734 0.0
C79 C 0.94595 0.80405 0.23574 0.0
C80 C 0.96207 0.79987 0.28609 0.0
C81 C 0.97312 0.77827 0.28332 0.0
C82 C 0.96796 0.76131 0.23093 0.0
C83 C 0.95217 0.76635 0.17984 0.0
C84 C 0.94186 0.78773 0.18287 0.0
C85 C 0.92796 0.79228 0.12177 0.0
C86 C 0.93065 0.76952 0.08155 0.0
C87 C 0.9446 0.754 0.11589 0.0
C88 C 0.93983 0.81541 0.08793 0.0
C89 C 0.90169 0.79402 0.14246 0.0
C90 C 0.96991 0.6721 0.03329 0.0
C91 C 0.96123 0.65781 0.97777 0.0
C92 C 0.9428 0.66573 0.93882 0.0
C93 C 0.93452 0.68799 0.95103 0.0
C94 C 0.94541 0.70284 1.00036 0.0
C95 C 0.96093 0.6945 0.04498 0.0
C96 C 0.96498 0.71203 0.1038 0.0
C97 C 0.94933 0.73182 0.08456 0.0
C98 C 0.93988 0.72643 0.02116 0.0
C99 C 0.99164 0.72128 0.10561 0.0
C100 C 0.95614 0.69932 0.1684 0.0
H101 H 0.89883 0.80824 1.0051 0.0
H102 H 0.95057 0.78738 0.81532 0.0
H103 H 0.92191 0.74397 0.80953 0.0
H104 H 0.9044 0.72965 0.87593 0.0
H105 H 0.93117 0.71767 0.84411 0.0
H106 H 0.9756 0.76043 0.93195 0.0
H107 H 0.96994 0.75381 0.84465 0.0
H108 H 0.96983 0.72993 0.90281 0.0
H109 H 0.93773 0.82071 0.23468 0.0
H110 H 0.98578 0.77458 0.32132 0.0
H111 H 0.97683 0.74524 0.23104 0.0
H112 H 0.95196 0.82668 0.12161 0.0
H113 H 0.92645 0.82743 0.07251 0.0
H114 H 0.95103 0.81113 0.04423 0.0
H115 H 0.89551 0.7796 0.17802 0.0
H116 H 0.88953 0.79176 0.0993 0.0
H117 H 0.89954 0.81154 0.16719 0.0
H118 H 0.91237 0.83887 0.9248 0.0
C119 C 0.91034 0.80365 0.96481 0.0
C120 C 0.82437 0.01097 0.96787 0.0
C121 C 0.83917 0.02122 0.91595 0.0
C122 C 0.83312 0.04218 0.88557 0.0
C123 C 0.79803 0.04253 0.9558 0.0
C124 C 0.80391 0.02226 0.9878 0.0
C125 C 0.78609 0.01528 0.04359 0.0
H126 H 0.68588 0.0445 0.21438 0.0
C127 C 0.77622 0.05037 0.98649 0.0
C128 C 0.76916 0.03502 0.03982 0.0
H129 H 0.72327 0.98244 0.2504 0.0
H130 H 0.75205 0.99489 0.16188 0.0
H131 H 0.73203 0.08289 0.19238 0.0
H132 H 0.68236 0.03855 0.07568 0.0
H133 H 0.69239 0.06053 0.01822 0.0
H134 H 0.67744 0.06893 0.09391 0.0
H135 H 0.70146 0.08794 0.17909 0.0
H136 H 0.72501 0.10038 0.12432 0.0
C137 C 0.79942 0.01602 0.11061 0.0
C138 C 0.77329 0.99041 0.02667 0.0
C139 C 0.73068 0.10999 0.86558 0.0
C140 C 0.70793 0.11755 0.8785 0.0
C141 C 0.69875 0.11585 0.94431 0.0
C142 C 0.71021 0.10373 0.99315 0.0
C143 C 0.73078 0.09276 0.97589 0.0
C144 C 0.74161 0.0973 0.91471 0.0
C145 C 0.76376 0.08451 0.90628 0.0
C146 C 0.76251 0.06925 0.96905 0.0
C147 C 0.74307 0.07412 0.00894 0.0
C148 C 0.78561 0.1037 0.90647 0.0
C149 C 0.76127 0.06894 0.84158 0.0
C150 C 0.70054 0.03373 0.20493 0.0
C151 C 0.70249 0.01279 0.24081 0.0
C152 C 0.72136 0.99882 0.22386 0.0
C153 C 0.73804 1.00608 0.17256 0.0
C154 C 0.73557 0.02728 0.1371 0.0
C155 C 0.7168 0.04042 0.15404 0.0
C156 C 0.71493 0.06128 0.1097 0.0
C157 C 0.73601 0.05922 0.06359 0.0
C158 C 0.74854 0.03944 0.07919 0.0
C159 C 0.71834 0.08443 0.1533 0.0
C160 C 0.69059 0.05736 0.07259 0.0
H161 H 0.80932 0.06861 0.8793 0.0
H162 H 0.82879 0.99495 0.99257 0.0
H163 H 0.76703 0.98975 0.97403 0.0
H164 H 0.75735 0.98602 0.05817 0.0
H165 H 0.78552 0.97622 0.03267 0.0
H166 H 0.81074 0.03329 0.1166 0.0
H167 H 0.81117 1.00126 0.11293 0.0
H168 H 0.78712 0.01456 0.15389 0.0
H169 H 0.73871 0.11192 0.81635 0.0
H170 H 0.68147 0.12167 0.95683 0.0
H171 H 0.70157 0.10189 0.04094 0.0
H172 H 0.78097 0.12149 0.92482 0.0
H173 H 0.7933 0.10636 0.85548 0.0
H174 H 0.79978 0.09895 0.94064 0.0
H175 H 0.74321 0.05898 0.83905 0.0
H176 H 0.77398 0.05523 0.83838 0.0
H177 H 0.76382 0.08022 0.79642 0.0
H178 H 0.84414 0.05032 0.84571 0.0
C179 C 0.81284 0.05284 0.9052 0.0
C180 C 0.56329 0.73362 0.27781 0.0
C181 C 0.57584 0.71592 0.30853 0.0
C182 C 0.60025 0.71501 0.29292 0.0
C183 C 0.59668 0.74221 0.20333 0.0
C184 C 0.57484 0.74754 0.22641 0.0
C185 C 0.56719 0.76885 0.1884 0.0
H186 H 0.58446 0.83311 0.8976 0.0
C187 C 0.60151 0.7534 0.13922 0.0
C188 C 0.58557 0.7708 0.13085 0.0
H189 H 0.54182 0.85206 0.06699 0.0
H190 H 0.55144 0.81616 0.12472 0.0
H191 H 0.6302 0.81513 0.97198 0.0
H192 H 0.56522 0.7836 0.89073 0.0
H193 H 0.58024 0.75805 0.90426 0.0
H194 H 0.59244 0.78077 0.84696 0.0
H195 H 0.62143 0.81281 0.8857 0.0
H196 H 0.6356 0.78922 0.9244 0.0
C197 C 0.57021 0.79084 0.23589 0.0
C198 C 0.54149 0.76334 0.16309 0.0
C199 C 0.62352 0.6955 0.9621 0.0
C200 C 0.62113 0.69607 0.89233 0.0
C201 C 0.62193 0.71855 0.86117 0.0
C202 C 0.62169 0.73963 0.89971 0.0
C203 C 0.61987 0.73803 0.96962 0.0
C204 C 0.62227 0.71646 0.99989 0.0
C205 C 0.61866 0.71756 0.07433 0.0
C206 C 0.61243 0.74337 0.08301 0.0
C207 C 0.61213 0.75476 0.02121 0.0
C208 C 0.64215 0.71264 0.10888 0.0
C209 C 0.59752 0.69904 0.09384 0.0
C210 C 0.57773 0.83003 0.94796 0.0
C211 C 0.56309 0.84592 0.97854 0.0
C212 C 0.55355 0.84037 0.04275 0.0
C213 C 0.55944 0.81982 0.07667 0.0
C214 C 0.57495 0.8047 0.04604 0.0
C215 C 0.58333 0.80975 0.98203 0.0
C216 C 0.59776 0.79083 0.95396 0.0
C217 C 0.59951 0.7753 0.01479 0.0
C218 C 0.58578 0.78311 0.0687 0.0
C219 C 0.6226 0.80255 0.93245 0.0
C220 C 0.58336 0.77761 0.89601 0.0
H221 H 0.62947 0.72781 0.22929 0.0
H222 H 0.54507 0.73591 0.29205 0.0
H223 H 0.53985 0.74647 0.13293 0.0
H224 H 0.53613 0.77778 0.13116 0.0
H225 H 0.52869 0.76121 0.20566 0.0
H226 H 0.5874 0.79148 0.26311 0.0
H227 H 0.55558 0.79005 0.27367 0.0
H228 H 0.57072 0.80793 0.20938 0.0
H229 H 0.62341 0.67865 0.98772 0.0
H230 H 0.6211 0.71968 0.80726 0.0
H231 H 0.6216 0.75621 0.87384 0.0
H232 H 0.65344 0.70211 0.07619 0.0
H233 H 0.63869 0.70165 0.15421 0.0
H234 H 0.65299 0.7296 0.12253 0.0
H235 H 0.58107 0.70258 0.06688 0.0
H236 H 0.5935 0.69918 0.14786 0.0
H237 H 0.6015 0.68047 0.08187 0.0
H238 H 0.61068 0.70258 0.31773 0.0
C239 C 0.61086 0.72853 0.24076 0.0
C240 C 0.32807 0.5287 0.18679 0.0
C241 C 0.34491 0.54218 0.22819 0.0
C242 C 0.34326 0.56696 0.23671 0.0
C243 C 0.30708 0.56399 0.17294 0.0
C244 C 0.30953 0.54034 0.15788 0.0
C245 C 0.29135 0.5309 0.10563 0.0
H246 H 0.19691 0.55682 0.91216 0.0
C247 C 0.28649 0.57142 0.13812 0.0
C248 C 0.2777 0.55289 0.09454 0.0
H249 H 0.22691 0.48909 0.91737 0.0
H250 H 0.25656 0.50571 0.99856 0.0
H251 H 0.18918 0.56326 0.03777 0.0
H252 H 0.2455 0.59367 0.92256 0.0
H253 H 0.23759 0.61582 0.98012 0.0
H254 H 0.21491 0.60018 0.92836 0.0
H255 H 0.19251 0.59477 0.03359 0.0
H256 H 0.20401 0.57942 0.10363 0.0
C257 C 0.27525 0.50993 0.13597 0.0
C258 C 0.30482 0.52382 0.04208 0.0
C259 C 0.23422 0.62636 0.25248 0.0
C260 C 0.21124 0.63156 0.23364 0.0
C261 C 0.20642 0.63347 0.16495 0.0
C262 C 0.22207 0.62525 0.11713 0.0
C263 C 0.2418 0.61418 0.13886 0.0
C264 C 0.24915 0.61712 0.20416 0.0
C265 C 0.27179 0.60561 0.21613 0.0
C266 C 0.27375 0.59159 0.15016 0.0
C267 C 0.25526 0.59587 0.10699 0.0
C268 C 0.26861 0.58879 0.27688 0.0
C269 C 0.29221 0.62584 0.22682 0.0
C270 C 0.21018 0.54563 0.92955 0.0
C271 C 0.20993 0.52188 0.90733 0.0
C272 C 0.22689 0.5076 0.93345 0.0
C273 C 0.24405 0.51727 0.98038 0.0
C274 C 0.24377 0.54123 1.00259 0.0
C275 C 0.22659 0.55467 0.97763 0.0
C276 C 0.22634 0.5786 0.01123 0.0
C277 C 0.24733 0.57829 0.05813 0.0
C278 C 0.25778 0.55643 0.05309 0.0
C279 C 0.20192 0.57923 0.0485 0.0
C280 C 0.2312 0.59822 0.95788 0.0
H281 H 0.32517 0.59702 0.21077 0.0
H282 H 0.32964 0.50994 0.17623 0.0
H283 H 0.31893 0.53826 0.02855 0.0
H284 H 0.29307 0.52107 0.99832 0.0
H285 H 0.31352 0.50716 0.05013 0.0
H286 H 0.26876 0.51498 0.18641 0.0
H287 H 0.28525 0.49395 0.14132 0.0
H288 H 0.25925 0.50482 0.10574 0.0
H289 H 0.239 0.62639 0.30476 0.0
H290 H 0.18941 0.63849 0.14814 0.0
H291 H 0.21738 0.62595 0.06546 0.0
H292 H 0.253 0.57528 0.26981 0.0
H293 H 0.26594 0.59906 0.32374 0.0
H294 H 0.28458 0.57915 0.2845 0.0
H295 H 0.28541 0.64271 0.24527 0.0
H296 H 0.30217 0.63004 0.17954 0.0
H297 H 0.30478 0.62124 0.26588 0.0
H298 H 0.35639 0.57795 0.26579 0.0
C299 C 0.32478 0.57794 0.20786 0.0
C300 C 0.1001 0.21576 0.26188 0.0
C301 C 0.10436 0.19196 0.24644 0.0
C302 C 0.11901 0.18752 0.19093 0.0
C303 C 0.11561 0.22754 0.15351 0.0
C304 C 0.10619 0.2335 0.21446 0.0
C305 C 0.10004 0.259 0.21584 0.0
H306 H 0.05088 0.34574 0.0802 0.0
C307 C 0.11061 0.24576 0.10521 0.0
C308 C 0.10427 0.26553 0.14215 0.0
H309 H 0.10352 0.35378 0.23809 0.0
H310 H 0.11743 0.3156 0.20476 0.0
H311 H 0.09159 0.3211 0.97134 0.0
H312 H 0.0352 0.28394 0.09161 0.0
H313 H 0.0347 0.27502 0.00621 0.0
H314 H 0.0284 0.30487 0.02887 0.0
H315 H 0.06097 0.32696 0.96151 0.0
H316 H 0.07168 0.30053 0.92545 0.0
C317 C 0.11701 0.2735 0.26484 0.0
C318 C 0.07368 0.26011 0.23681 0.0
C319 C 0.08189 0.20999 0.88388 0.0
C320 C 0.06307 0.21417 0.84208 0.0
C321 C 0.05144 0.23513 0.85232 0.0
C322 C 0.05868 0.25159 0.90429 0.0
C323 C 0.07693 0.2464 0.948 0.0
C324 C 0.08774 0.2255 0.93776 0.0
C325 C 0.10343 0.21996 0.99433 0.0
C326 C 0.10159 0.24179 0.03925 0.0
C327 C 0.08636 0.25766 0.01153 0.0
C328 C 0.12909 0.21904 0.96732 0.0
C329 C 0.0928 0.19601 0.02648 0.0
C330 C 0.06466 0.33885 0.10964 0.0
C331 C 0.07536 0.35247 0.16385 0.0
C332 C 0.09436 0.34352 0.19812 0.0
C333 C 0.10167 0.32114 0.18199 0.0
C334 C 0.08917 0.30705 0.13379 0.0
C335 C 0.07259 0.31623 0.09405 0.0
C336 C 0.06636 0.29934 0.0349 0.0
C337 C 0.08246 0.27924 0.04735 0.0
C338 C 0.09387 0.28369 0.1086 0.0
C339 C 0.07291 0.31264 0.96945 0.0
C340 C 0.03969 0.29028 0.04017 0.0
H341 H 0.13528 0.20161 0.10097 0.0
H342 H 0.09004 0.2198 0.30627 0.0
H343 H 0.06163 0.24862 0.2033 0.0
H344 H 0.06865 0.27871 0.2345 0.0
H345 H 0.07054 0.25407 0.28905 0.0
H346 H 0.11993 0.26293 0.31017 0.0
H347 H 0.10928 0.28975 0.28363 0.0
H348 H 0.13468 0.27854 0.24117 0.0
H349 H 0.09054 0.19363 0.87842 0.0
H350 H 0.0366 0.23852 0.82097 0.0
H351 H 0.04929 0.26723 0.9102 0.0
H352 H 0.13425 0.23448 0.93418 0.0
H353 H 0.13063 0.20228 0.93801 0.0
H354 H 0.14234 0.22012 0.00795 0.0
H355 H 0.07963 0.18538 0.99425 0.0
H356 H 0.08303 0.19921 0.07373 0.0
H357 H 0.10669 0.18377 0.03562 0.0
H358 H 0.12345 0.16958 0.17914 0.0
C359 C 0.12511 0.20562 0.14466 0.0
C360 C 0.31421 0.00849 0.91896 0.0
C361 C 0.33352 0.99792 0.88821 0.0
C362 C 0.33877 0.97526 0.90921 0.0
C363 C 0.30787 0.9746 0.99376 0.0
C364 C 0.30118 0.99609 0.97115 0.0
C365 C 0.27914 1.00289 0.00887 0.0
H366 H 0.19724 0.97213 0.25971 0.0
C367 C 0.29257 0.96665 0.05076 0.0
C368 C 0.27491 0.98255 0.05952 0.0
H369 H 0.19678 0.03299 0.1308 0.0
H370 H 0.23311 0.02201 0.0747 0.0
H371 H 0.21291 0.93284 0.15306 0.0
H372 H 0.24849 0.98194 0.29329 0.0
H373 H 0.26772 0.95936 0.28525 0.0
H374 H 0.23783 0.95218 0.31721 0.0
H375 H 0.21066 0.93058 0.24242 0.0
H376 H 0.23375 0.91738 0.1962 0.0
C377 C 0.25846 1.00274 0.95887 0.0
C378 C 0.28513 0.02739 0.04366 0.0
C379 C 0.32267 0.90662 0.2067 0.0
C380 C 0.31558 0.89982 0.27178 0.0
C381 C 0.29224 0.90329 0.29326 0.0
C382 C 0.27746 0.91599 0.2538 0.0
C383 C 0.28626 0.92561 0.19282 0.0
C384 C 0.30801 0.91983 0.16876 0.0
C385 C 0.31494 0.93209 0.10421 0.0
C386 C 0.29476 0.94801 0.09685 0.0
C387 C 0.27805 0.94404 0.14854 0.0
C388 C 0.31468 0.91257 0.04825 0.0
C389 C 0.33947 0.94687 0.1142 0.0
C390 C 0.20467 0.98291 0.2186 0.0
C391 C 0.19388 1.00303 0.19863 0.0
C392 C 0.20468 0.01717 0.14659 0.0
C393 C 0.22562 0.01071 0.11393 0.0
C394 C 0.23601 0.99012 0.1343 0.0
C395 C 0.22551 0.97699 0.1868 0.0
C396 C 0.23949 0.95706 0.20736 0.0
C397 C 0.2593 0.95898 0.15575 0.0
C398 C 0.25758 0.97838 0.11232 0.0
C399 C 0.22344 0.93312 0.19992 0.0
C400 C 0.24881 0.96269 0.27945 0.0
H401 H 0.33141 0.94662 0.97492 0.0
H402 H 0.3094 0.02567 0.9026 0.0
H403 H 0.30205 0.02753 0.072 0.0
H404 H 0.27125 0.03161 0.07996 0.0
H405 H 0.28738 0.04194 0.00636 0.0
H406 H 0.25714 0.98601 0.92805 0.0
H407 H 0.26136 0.01818 0.92456 0.0
H408 H 0.24102 1.00336 0.98388 0.0
H409 H 0.34043 0.90421 0.18843 0.0
H410 H 0.28609 0.89771 0.34259 0.0
H411 H 0.26031 0.91896 0.27411 0.0
H412 H 0.3053 0.89516 0.06409 0.0
H413 H 0.33306 0.90906 0.03319 0.0
H414 H 0.30489 0.91754 1.00342 0.0
H415 H 0.33988 0.95666 0.163 0.0
H416 H 0.34371 0.9607 0.07632 0.0
H417 H 0.35419 0.93506 0.11371 0.0
H418 H 0.35332 0.96671 0.88627 0.0
C419 C 0.32605 0.96359 0.96105 0.0
C420 C 0.46267 0.28438 0.84924 0.0
C421 C 0.45083 0.30334 0.82249 0.0
C422 C 0.42726 0.30609 0.84378 0.0
C423 C 0.43097 0.27764 0.93033 0.0
C424 C 0.45159 0.2709 0.90218 0.0
C425 C 0.45857 0.24855 0.9365 0.0
H426 H 0.44912 0.1849 0.22858 0.0
C427 C 0.42676 0.26579 0.99389 0.0
C428 C 0.44156 0.24713 0.99725 0.0
H429 H 0.48478 0.16392 0.04849 0.0
H430 H 0.47247 0.199 0.99155 0.0
H431 H 0.4675 0.23288 0.23195 0.0
H432 H 0.40098 0.20132 0.1638 0.0
H433 H 0.39604 0.22763 0.2096 0.0
H434 H 0.41149 0.20486 0.2483 0.0
H435 H 0.44155 0.23656 0.28047 0.0
H436 H 0.45295 0.25882 0.22074 0.0
C437 C 0.48495 0.25211 0.95715 0.0
C438 C 0.45304 0.22719 0.88779 0.0
C439 C 0.41225 0.32233 0.18242 0.0
C440 C 0.41673 0.32006 0.25071 0.0
C441 C 0.41483 0.2971 0.27882 0.0
C442 C 0.41186 0.27668 0.23752 0.0
C443 C 0.4123 0.27946 0.16783 0.0
C444 C 0.41084 0.30186 0.14127 0.0
C445 C 0.41289 0.30173 0.06625 0.0
C446 C 0.41744 0.27558 0.05297 0.0
C447 C 0.4182 0.26313 0.11299 0.0
C448 C 0.43449 0.31947 0.04538 0.0
C449 C 0.38918 0.30852 0.03676 0.0
C450 C 0.45409 0.18759 0.17656 0.0
C451 C 0.46786 0.17162 0.14307 0.0
C452 C 0.47394 0.17586 0.07526 0.0
C453 C 0.46671 0.19608 0.04224 0.0
C454 C 0.45297 0.21194 0.07713 0.0
C455 C 0.44695 0.20736 0.14322 0.0
C456 C 0.43341 0.2263 0.17474 0.0
C457 C 0.43003 0.24191 0.115 0.0
C458 C 0.44195 0.23391 0.0578 0.0
C459 C 0.44947 0.23934 0.22981 0.0
C460 C 0.40919 0.21449 0.20099 0.0
H461 H 0.39908 0.29493 0.91262 0.0
H462 H 0.48007 0.28074 0.83068 0.0
H463 H 0.43554 0.22819 0.86313 0.0
H464 H 0.45157 0.2098 0.91307 0.0
H465 H 0.46693 0.22717 0.848 0.0
H466 H 0.48834 0.26848 0.98892 0.0
H467 H 0.49678 0.2541 0.91243 0.0
H468 H 0.49011 0.2368 0.98598 0.0
H469 H 0.4133 0.33992 0.16039 0.0
H470 H 0.41773 0.29502 0.33179 0.0
H471 H 0.41117 0.25958 0.2609 0.0
H472 H 0.45113 0.31466 0.06908 0.0
H473 H 0.43173 0.33813 0.06015 0.0
H474 H 0.43744 0.31986 0.99085 0.0
H475 H 0.37922 0.31913 0.07287 0.0
H476 H 0.37723 0.29231 0.02272 0.0
H477 H 0.39231 0.32014 0.99255 0.0
H478 H 0.41727 0.31958 0.82213 0.0
C479 C 0.41711 0.29289 0.89719 0.0
Dy480 Dy 0.02746 0.99541 0.62717 0.0
C481 C 1.00556 0.0458 0.39786 0.0
C482 C 0.0294 0.96583 0.7337 0.0
Dy483 Dy 1.00658 0.01689 0.50595 0.0
O484 O 0.04376 0.96654 0.68246 0.0
O485 O 0.01533 0.98267 0.7285 0.0
O486 O 0.06464 0.00955 0.59556 0.0
O487 O 0.03863 0.99929 0.52322 0.0
C488 C 0.05968 0.00882 0.53192 0.0
C489 C 0.97417 1.00368 0.60096 0.0
O490 O 1.00115 0.97897 0.46956 0.0
O491 O 1.00951 0.9631 0.57224 0.0
O492 O 0.99185 0.04656 0.45027 0.0
O493 O 0.01842 0.02797 0.40294 0.0
O494 O 0.96921 1.00352 0.53735 0.0
O495 O 0.99531 0.01295 0.60977 0.0
O496 O 0.03081 0.03321 0.66517 0.0
O497 O 0.02514 0.04899 0.56073 0.0
C498 C 1.00241 0.96043 0.50925 0.0
C499 C 0.03062 0.05177 0.62498 0.0
Dy500 Dy 0.50003 0.98815 0.52354 0.0
C501 C 0.56701 0.06012 0.63972 0.0
C502 C 0.46304 0.95687 0.4806 0.0
Dy503 Dy 0.53099 0.02817 0.59423 0.0
O504 O 0.48139 0.96441 0.44408 0.0
O505 O 0.46475 0.96679 0.53938 0.0
O506 O 0.53191 0.96912 0.49365 0.0
O507 O 0.53558 1.00644 0.50475 0.0
C508 C 0.54692 0.98826 0.49579 0.0
C509 C 0.48395 0.02699 0.62326 0.0
O510 O 0.52277 0.047 0.50113 0.0
O511 O 0.49146 0.02033 0.46417 0.0
O512 O 0.54905 0.05128 0.67584 0.0
O513 O 0.56541 0.05119 0.57974 0.0
O514 O 0.49829 0.04659 0.62169 0.0
O515 O 0.49592 0.00931 0.6144 0.0
O516 O 0.50911 0.96893 0.61556 0.0
O517 O 0.54031 0.99598 0.65177 0.0
C518 C 0.50485 0.04113 0.45989 0.0
C519 C 0.52726 0.97497 0.65601 0.0
Dy520 Dy 0.51173 0.52006 0.63192 0.0
C521 C 0.52015 0.46633 0.39086 0.0
C522 C 0.52356 0.54728 0.74264 0.0
Dy523 Dy 0.52513 0.49682 0.49825 0.0
O524 O 0.50542 0.54996 0.70443 0.0
O525 O 0.53355 0.52856 0.72296 0.0
O526 O 0.47233 0.51263 0.61081 0.0
O527 O 0.49723 0.51825 0.53216 0.0
C528 C 0.47559 0.51213 0.54592 0.0
C529 C 0.56087 0.50559 0.58525 0.0
O530 O 0.53097 0.53477 0.46425 0.0
O531 O 0.52973 0.55084 0.5719 0.0
O532 O 0.53672 0.46652 0.43565 0.0
O533 O 0.50763 0.48419 0.40221 0.0
O534 O 0.56422 0.50641 0.52064 0.0
O535 O 0.53941 0.49845 0.59796 0.0
O536 O 0.50378 0.48215 0.6639 0.0
O537 O 0.50512 0.46649 0.55593 0.0
C538 C 0.53342 0.55333 0.50645 0.0
C539 C 0.50091 0.46385 0.62107 0.0
Dy540 Dy 1.00589 0.48804 0.60092 0.0
C541 C 0.0653 0.55106 0.44094 0.0
C542 C 0.97365 0.45468 0.65759 0.0
Dy543 Dy 0.03194 0.52758 0.52154 0.0
O544 O 0.97818 0.45676 0.59433 0.0
O545 O 0.98677 0.47106 0.69099 0.0
O546 O 0.03011 0.46321 0.55347 0.0
O547 O 0.01849 0.49072 0.49619 0.0
C548 C 0.03107 0.47328 0.49551 0.0
C549 C 0.0178 0.54815 0.63572 0.0
O550 O 0.997 0.52528 0.46814 0.0
O551 O 0.97598 0.50606 0.55506 0.0
O552 O 0.04357 0.55675 0.44813 0.0
O553 O 0.06815 0.53205 0.47494 0.0
O554 O 0.029 0.55965 0.58743 0.0
O555 O 0.01398 0.52622 0.61977 0.0
O556 O 0.03871 0.49303 0.66374 0.0
O557 O 0.06092 0.51203 0.57893 0.0
C558 C 0.97655 0.5176 0.49752 0.0
C559 C 0.05951 0.50152 0.63794 0.0
H560 H 0.15234 0.97447 0.20862 0.0
H561 H 0.18586 0.04326 0.2723 0.0
H562 H 0.11892 0.97901 0.28441 0.0
H563 H 0.15216 0.04805 0.34872 0.0
H564 H 0.10645 0.02715 0.54179 0.0
H565 H 0.13715 0.02939 0.45408 0.0
H566 H 0.08467 1.00052 0.31099 0.0
H567 H 0.05421 0.9979 0.39887 0.0
C568 C 0.1522 0.9909 0.2377 0.0
C569 C 0.17163 0.00858 0.23411 0.0
C570 C 0.13301 0.99354 0.28125 0.0
C571 C 0.13277 0.01386 0.32323 0.0
C572 C 0.15181 0.03206 0.31769 0.0
C573 C 0.17098 0.0295 0.27332 0.0
C574 C 0.10145 0.0215 0.49144 0.0
C575 C 0.07789 0.01222 0.4775 0.0
C576 C 0.11903 0.02295 0.44094 0.0
C577 C 0.11352 0.01503 0.37522 0.0
C578 C 0.08971 1.00651 0.36103 0.0
C579 C 0.07216 1.00515 0.41142 0.0
H580 H 0.46421 0.12343 0.11052 0.0
H581 H 0.48977 0.17427 0.26344 0.0
H582 H 0.47379 0.09038 0.1821 0.0
H583 H 0.49879 0.14175 0.33481 0.0
H584 H 0.53262 0.08196 0.42776 0.0
H585 H 0.52564 0.11156 0.34516 0.0
H586 H 0.45998 0.07039 0.28836 0.0
H587 H 0.46727 0.04007 0.3711 0.0
C588 C 0.47218 0.12753 0.15891 0.0
C589 C 0.47624 0.15144 0.18134 0.0
C590 C 0.47739 0.10863 0.20025 0.0
C591 C 0.48704 0.11332 0.26445 0.0
C592 C 0.49167 0.13734 0.28558 0.0
C593 C 0.48637 0.15605 0.24472 0.0
C594 C 0.51664 0.07903 0.39785 0.0
C595 C 0.50035 0.05863 0.40702 0.0
C596 C 0.51262 0.09615 0.35032 0.0
C597 C 0.49209 0.09362 0.31041 0.0
C598 C 0.47606 0.07289 0.31793 0.0
C599 C 0.48015 0.05557 0.36571 0.0
H600 H 0.34227 0.5037 0.31265 0.0
H601 H 0.39211 0.55757 0.22376 0.0
H602 H 0.37384 0.49224 0.38617 0.0
H603 H 0.42318 0.547 0.2977 0.0
H604 H 0.42699 0.50498 0.56566 0.0
H605 H 0.39569 0.50784 0.48273 0.0
H606 H 0.44961 0.51985 0.32859 0.0
H607 H 0.48051 0.51854 0.41176 0.0
C608 C 0.3601 0.51268 0.30776 0.0
C609 C 0.3647 0.53153 0.26244 0.0
C610 C 0.37813 0.50641 0.35059 0.0
C611 C 0.40118 0.51879 0.3487 0.0
C612 C 0.4059 0.53675 0.30058 0.0
C613 C 0.38799 0.54295 0.25812 0.0
C614 C 0.43207 0.50807 0.51392 0.0
C615 C 0.45628 0.51147 0.49541 0.0
C616 C 0.41411 0.50951 0.46611 0.0
C617 C 0.41996 0.51427 0.39855 0.0
C618 C 0.44425 0.51663 0.38004 0.0
C619 C 0.46209 0.51552 0.42779 0.0
H620 H 0.10272 0.39425 0.19076 0.0
H621 H 0.02976 0.36262 0.19485 0.0
H622 H 0.09183 0.4272 0.26193 0.0
H623 H 0.01872 0.3962 0.265 0.0
H624 H 1.01081 0.47179 0.37077 0.0
H625 H 0.02015 0.44586 0.27553 0.0
H626 H 0.07704 0.42012 0.38871 0.0
H627 H 0.06725 0.44522 0.48394 0.0
C628 C 0.08418 0.39473 0.20515 0.0
C629 C 0.06716 0.3756 0.18799 0.0
C630 C 0.07798 0.4136 0.246 0.0
C631 C 0.05452 0.41408 0.26977 0.0
C632 C 0.03695 0.39628 0.24725 0.0
C633 C 0.04323 0.37713 0.20681 0.0
C634 C 0.02553 0.46084 0.37466 0.0
C635 C 0.03842 0.46054 0.43455 0.0
C636 C 0.03074 0.44592 0.32046 0.0
C637 C 0.04935 0.43104 0.3247 0.0
C638 C 0.06274 0.43154 0.38378 0.0
C639 C 0.05715 0.44589 0.43828 0.0
H640 H 0.88471 0.04105 0.92762 0.0
H641 H 0.84255 0.98032 0.84159 0.0
H642 H 0.91846 0.03282 0.85724 0.0
H643 H 0.87664 0.9714 0.7716 0.0
H644 H 0.92656 0.98953 0.58837 0.0
H645 H 0.89563 0.98872 0.67462 0.0
H646 H 0.94925 0.00985 0.82275 0.0
H647 H 0.97996 0.01163 0.73565 0.0
C648 C 0.88307 0.02524 0.89563 0.0
C649 C 0.86109 0.01116 0.89077 0.0
C650 C 0.90244 0.02051 0.85484 0.0
C651 C 0.90039 1.00157 0.80762 0.0
C652 C 0.87885 0.98641 0.80633 0.0
C653 C 0.85941 0.99119 0.84735 0.0
C654 C 0.93175 0.9938 0.63948 0.0
C655 C 0.95575 1.00077 0.65493 0.0
C656 C 0.914 0.99312 0.68931 0.0
C657 C 0.91973 0.99931 0.75621 0.0
C658 C 0.94396 1.00532 0.7719 0.0
C659 C 0.96168 1.00614 0.72194 0.0
H660 H 0.59441 0.87704 0.91023 0.0
H661 H 0.51983 0.86402 0.96257 0.0
H662 H 0.58559 0.90944 0.83749 0.0
H663 H 0.51097 0.89697 0.89066 0.0
H664 H 0.50184 0.93236 0.68621 0.0
H665 H 0.51016 0.90364 0.77059 0.0
H666 H 0.57257 0.94941 0.83109 0.0
H667 H 0.56441 0.97822 0.74558 0.0
C668 C 0.57612 0.8813 0.90678 0.0
C669 C 0.55779 0.86775 0.94176 0.0
C670 C 0.57109 0.90006 0.86543 0.0
C671 C 0.54754 0.90578 0.85761 0.0
C672 C 0.52928 0.89285 0.89471 0.0
C673 C 0.53437 0.87413 0.93653 0.0
C674 C 0.51736 0.93643 0.7174 0.0
C675 C 0.53253 0.95766 0.70854 0.0
C676 C 0.522 0.91998 0.76644 0.0
C677 C 0.54199 0.92417 0.80806 0.0
C678 C 0.5571 0.94548 0.79962 0.0
C679 C 0.55239 0.96205 0.75063 0.0
H680 H 0.68804 0.53557 0.84028 0.0
H681 H 0.65841 0.46321 0.87865 0.0
H682 H 0.65433 0.54094 0.76631 0.0
H683 H 0.6251 0.46838 0.8053 0.0
H684 H 0.55796 0.48939 0.71304 0.0
H685 H 0.58962 0.48987 0.79538 0.0
H686 H 0.63945 0.52483 0.65417 0.0
H687 H 0.6074 0.52473 0.57175 0.0
C688 C 0.67413 0.521 0.83381 0.0
C689 C 0.67585 0.49898 0.86526 0.0
C690 C 0.65498 0.52395 0.79096 0.0
C691 C 0.63699 0.50507 0.77964 0.0
C692 C 0.63842 0.4834 0.81321 0.0
C693 C 0.65759 0.48038 0.85512 0.0
C694 C 0.57557 0.49753 0.69979 0.0
C695 C 0.58015 0.50708 0.63585 0.0
C696 C 0.5938 0.49764 0.74691 0.0
C697 C 0.61717 0.50728 0.73146 0.0
C698 C 0.62163 0.51745 0.66803 0.0
C699 C 0.60334 0.51723 0.6206 0.0
H700 H 0.93793 0.6145 0.94129 0.0
H701 H 1.00841 0.65148 0.96005 0.0
H702 H 0.95374 0.58417 0.86992 0.0
H703 H 0.02453 0.62057 0.89074 0.0
H704 H 0.03196 0.59345 0.6738 0.0
H705 H 0.02085 0.6152 0.77248 0.0
H706 H 0.97836 0.552 0.84238 0.0
H707 H 0.98953 0.52998 0.74124 0.0
C708 C 0.95699 0.61567 0.93206 0.0
C709 C 0.97185 0.63569 0.95523 0.0
C710 C 0.9661 0.59817 0.89129 0.0
C711 C 0.99034 0.60019 0.87288 0.0
C712 C 1.00563 0.61876 0.90238 0.0
C713 C 0.99648 0.63634 0.94303 0.0
C714 C 0.0204 0.58401 0.71033 0.0
C715 C 1.01148 0.56001 0.69935 0.0
C716 C 0.01423 0.59648 0.76768 0.0
C717 C 0.99884 0.58541 0.81618 0.0
C718 C 0.99022 0.56114 0.80604 0.0
C719 C 0.9966 0.5485 0.74827 0.0
H720 H 0.05675 0.18973 0.26974 0.0
H721 H 0.11713 0.14829 0.2859 0.0
H722 H 0.02989 0.15465 0.29637 0.0
H723 H 0.09014 0.11305 0.31417 0.0
H724 H 0.99326 0.09107 0.41678 0.0
H725 H 0.01695 0.12746 0.38239 0.0
H726 H 0.06097 0.08534 0.25908 0.0
H727 H 0.03772 0.04884 0.29565 0.0
C728 C 0.06437 0.17328 0.28116 0.0
C729 C 0.08912 0.17182 0.27629 0.0
C730 C 0.0489 0.15309 0.29585 0.0
C731 C 0.0578 0.13095 0.30634 0.0
C732 C 0.08265 0.12971 0.30451 0.0
C733 C 0.09816 0.14993 0.28928 0.0
C734 C 1.00748 0.08965 0.38055 0.0
C735 C 0.0138 0.06717 0.35924 0.0
C736 C 0.02119 0.11052 0.36115 0.0
C737 C 0.04128 0.10924 0.31946 0.0
C738 C 0.04608 0.08685 0.29298 0.0
C739 C 0.03249 0.06599 0.31284 0.0
H740 H 0.35339 0.8726 0.25474 0.0
H741 H 0.32079 0.91789 0.39815 0.0
H742 H 0.39083 0.87873 0.31612 0.0
H743 H 0.35774 0.9239 0.45879 0.0
H744 H 0.45377 0.93908 0.35504 0.0
H745 H 0.41759 0.91546 0.31743 0.0
H746 H 0.39086 0.91262 0.52076 0.0
H747 H 0.42674 0.93693 0.55768 0.0
C748 C 0.35395 0.88315 0.30057 0.0
C749 C 0.33427 0.89524 0.32054 0.0
C750 C 0.37541 0.88676 0.33548 0.0
C751 C 0.37747 0.90236 0.39118 0.0
C752 C 0.35687 0.91176 0.41613 0.0
C753 C 0.33549 0.9082 0.38125 0.0
C754 C 0.44028 0.93308 0.39165 0.0
C755 C 0.44275 0.94015 0.45887 0.0
C756 C 0.41966 0.91929 0.37038 0.0
C757 C 0.40123 0.91222 0.41611 0.0
C758 C 0.40455 0.91804 0.48417 0.0
C759 C 0.42506 0.93197 0.50527 0.0
H760 H 0.46091 0.32046 0.30006 0.0
H761 H 0.40414 0.36554 0.27176 0.0
H762 H 0.48824 0.35526 0.32601 0.0
H763 H 0.43106 0.40069 0.30285 0.0
H764 H 0.48771 0.46193 0.2904 0.0
H765 H 0.46243 0.42568 0.25993 0.0
H766 H 0.50132 0.38533 0.39753 0.0
H767 H 0.52749 0.42099 0.42304 0.0
C768 C 0.45403 0.33784 0.30255 0.0
C769 C 0.43037 0.34035 0.28492 0.0
C770 C 0.46977 0.35791 0.31708 0.0
C771 C 0.46209 0.38101 0.31581 0.0
C772 C 0.43789 0.38331 0.30237 0.0
C773 C 0.42226 0.36319 0.28608 0.0
C774 C 0.49133 0.44503 0.31181 0.0
C775 C 0.50965 0.44417 0.35841 0.0
C776 C 0.47651 0.42434 0.29575 0.0
C777 C 0.47933 0.40253 0.32742 0.0
C778 C 0.49859 0.40158 0.37135 0.0
C779 C 0.51378 0.4221 0.38588 0.0
H780 H 0.20624 0.59794 0.33001 0.0
H781 H 0.16954 0.65399 0.24266 0.0
H782 H 0.17038 0.58269 0.38572 0.0
H783 H 0.13289 0.63865 0.30094 0.0
H784 H 0.06825 0.57973 0.33019 0.0
H785 H 0.10372 0.60479 0.29102 0.0
H786 H 0.14182 0.58602 0.4666 0.0
H787 H 0.10739 0.55978 0.50162 0.0
C788 C 0.19078 0.60781 0.32497 0.0
C789 C 0.19097 0.62733 0.28157 0.0
C790 C 0.16992 0.59887 0.35712 0.0
C791 C 0.14852 0.60929 0.34778 0.0
C792 C 0.14895 0.62989 0.30825 0.0
C793 C 0.16999 0.63882 0.27536 0.0
C794 C 0.08436 0.58103 0.35973 0.0
C795 C 0.08551 0.56736 0.4175 0.0
C796 C 0.10455 0.59559 0.33803 0.0
C797 C 0.12587 0.59714 0.37503 0.0
C798 C 0.12611 0.58467 0.43545 0.0
C799 C 0.10636 0.56962 0.45565 0.0
H800 H 0.98206 0.81921 0.85016 0.0
H801 H 0.92076 0.85823 0.8183 0.0
H802 H 1.00845 0.85507 0.82665 0.0
H803 H 0.94729 0.8942 0.79448 0.0
H804 H 0.99619 0.95977 0.83254 0.0
H805 H 0.97404 0.92185 0.86228 0.0
H806 H 0.02215 0.88383 0.74078 0.0
H807 H 0.04462 0.92174 0.71234 0.0
C808 C 0.97419 0.83524 0.83596 0.0
C809 C 0.94926 0.83588 0.83609 0.0
C810 C 0.98937 0.85587 0.82321 0.0
C811 C 0.97995 0.87757 0.81037 0.0
C812 C 0.95506 0.87787 0.80629 0.0
C813 C 0.93986 0.85724 0.8191 0.0
C814 C 1.00255 0.94324 0.81427 0.0
C815 C 0.02197 0.94366 0.76976 0.0
C816 C 0.98962 0.92157 0.83025 0.0
C817 C 0.9959 0.89997 0.802 0.0
C818 C 0.01678 0.90021 0.76292 0.0
C819 C 0.02978 0.92192 0.7471 0.0
H820 H 0.67204 0.14775 0.87368 0.0
H821 H 0.70561 0.09468 0.757 0.0
H822 H 0.63677 0.1412 0.80316 0.0
H823 H 0.67109 0.08891 0.68637 0.0
H824 H 0.5733 0.07989 0.76426 0.0
H825 H 0.60881 0.10357 0.80635 0.0
H826 H 0.64112 0.10199 0.6098 0.0
H827 H 0.60567 0.07804 0.56803 0.0
C828 C 0.67229 0.13532 0.83185 0.0
C829 C 0.69143 0.1212 0.82264 0.0
C830 C 0.6521 0.13161 0.79148 0.0
C831 C 0.65095 0.11411 0.74041 0.0
C832 C 0.67138 0.10254 0.72534 0.0
C833 C 0.69138 0.106 0.76605 0.0
C834 C 0.58783 0.08498 0.72992 0.0
C835 C 0.58699 0.07685 0.66335 0.0
C836 C 0.60806 0.09879 0.75371 0.0
C837 C 0.62778 0.10461 0.7113 0.0
C838 C 0.62626 0.09765 0.64364 0.0
C839 C 0.60602 0.0839 0.61987 0.0
H840 H 0.58737 0.69047 0.79448 0.0
H841 H 0.63373 0.65045 0.91088 0.0
H842 H 0.5645 0.65352 0.76124 0.0
H843 H 0.60934 0.61373 0.88356 0.0
H844 H 0.56914 0.54864 0.78485 0.0
H845 H 0.59548 0.58407 0.8112 0.0
H846 H 0.53544 0.62667 0.80834 0.0
H847 H 0.50936 0.59114 0.7764 0.0
C848 C 0.59306 0.67379 0.812 0.0
C849 C 0.61219 0.67359 0.8566 0.0
C850 C 0.57944 0.65254 0.79442 0.0
C851 C 0.58432 0.63061 0.82192 0.0
C852 C 0.60476 0.63018 0.86165 0.0
C853 C 0.61874 0.65136 0.8778 0.0
C854 C 0.56145 0.5655 0.79122 0.0
C855 C 0.53719 0.56718 0.77826 0.0
C856 C 0.57664 0.58594 0.80628 0.0
C857 C 0.56783 0.60851 0.81055 0.0
C858 C 0.54311 0.60979 0.80302 0.0
C859 C 0.52798 0.58936 0.78626 0.0
H860 H 0.83271 0.40932 0.73524 0.0
H861 H 0.86462 0.37197 0.89396 0.0
H862 H 0.8712 0.4162 0.68078 0.0
H863 H 0.90365 0.38022 0.84037 0.0
H864 H 0.94334 0.42341 0.58783 0.0
H865 H 0.9081 0.39933 0.62996 0.0
H866 H 0.92554 0.42354 0.83099 0.0
H867 H 0.96083 0.44787 0.7887 0.0
C868 C 0.84765 0.40167 0.75742 0.0
C869 C 0.84553 0.39064 0.82023 0.0
C870 C 0.86987 0.40583 0.72618 0.0
C871 C 0.89044 0.39925 0.7573 0.0
C872 C 0.88806 0.38588 0.81613 0.0
C873 C 0.86571 0.38125 0.84676 0.0
C874 C 0.9399 0.42325 0.6412 0.0
C875 C 0.95458 0.43772 0.68508 0.0
C876 C 0.91978 0.40942 0.66517 0.0
C877 C 0.91413 0.4096 0.73357 0.0
C878 C 0.92967 0.42286 0.77805 0.0
C879 C 0.94972 0.43693 0.75391 0.0
H880 H 0.02186 0.18486 0.85104 0.0
H881 H 0.08595 0.19789 0.73258 0.0
H882 H 0.0131 0.14585 0.79501 0.0
H883 H 0.07711 0.15912 0.67564 0.0
H884 H 0.04191 0.09331 0.55608 0.0
H885 H 0.04728 0.1343 0.60054 0.0
H886 H 0.03442 0.10766 0.80023 0.0
H887 H 0.02929 0.06663 0.75607 0.0
C888 C 0.03354 0.17977 0.81109 0.0
C889 C 0.05433 0.19457 0.79519 0.0
C890 C 0.02876 0.1573 0.77979 0.0
C891 C 0.04454 0.14927 0.73133 0.0
C892 C 0.06453 0.1648 0.71244 0.0
C893 C 0.06951 0.18707 0.74459 0.0
C894 C 0.04035 0.09615 0.60955 0.0
C895 C 0.03528 0.07659 0.65252 0.0
C896 C 0.04342 0.11967 0.63496 0.0
C897 C 0.04106 0.12429 0.70384 0.0
C898 C 0.03602 0.10475 0.7468 0.0
C899 C 0.03335 0.08119 0.72155 0.0
H900 H 0.33897 0.98263 0.76031 0.0
H901 H 0.36564 0.03758 0.90045 0.0
H902 H 0.37382 0.99204 0.68852 0.0
H903 H 0.40078 0.04709 0.82871 0.0
H904 H 0.45814 0.06374 0.66357 0.0
H905 H 0.4189 0.06094 0.71874 0.0
H906 H 0.4155 0.98381 0.70635 0.0
H907 H 0.45466 0.98666 0.65274 0.0
C908 C 0.35185 0.99742 0.77435 0.0
C909 C 0.34942 0.00953 0.83569 0.0
C910 C 0.37205 1.00257 0.73377 0.0
C911 C 0.39042 0.02 0.75337 0.0
C912 C 0.387 0.03359 0.8119 0.0
C913 C 0.36674 0.02833 0.85279 0.0
C914 C 0.44889 0.0462 0.67219 0.0
C915 C 0.45947 0.02541 0.65297 0.0
C916 C 0.42643 0.0446 0.70402 0.0
C917 C 0.41385 0.02216 0.71661 0.0
C918 C 0.42436 1.00142 0.69636 0.0
C919 C 0.44688 1.00303 0.66543 0.0
H920 H 0.43556 0.31983 0.70383 0.0
H921 H 0.49247 0.33088 0.84696 0.0
H922 H 0.44902 0.35795 0.65172 0.0
H923 H 0.50615 0.36904 0.79464 0.0
H924 H 0.48917 0.4226 0.54825 0.0
H925 H 0.48053 0.3819 0.58929 0.0
H926 H 0.48933 0.4082 0.79227 0.0
H927 H 0.49812 0.44892 0.75139 0.0
C928 C 0.45145 0.33007 0.72272 0.0
C929 C 0.46301 0.32228 0.77933 0.0
C930 C 0.45914 0.35198 0.69302 0.0
C931 C 0.47845 0.36682 0.71962 0.0
C932 C 0.49097 0.35827 0.77356 0.0
C933 C 0.48341 0.3362 0.80284 0.0
C934 C 0.48918 0.41979 0.60172 0.0
C935 C 0.49424 0.4392 0.64648 0.0
C936 C 0.48422 0.39638 0.62523 0.0
C937 C 0.4844 0.39166 0.6941 0.0
C938 C 0.48942 0.41107 0.73884 0.0
C939 C 0.49418 0.43451 0.71539 0.0
H940 H 0.19999 0.54096 0.78831 0.0
H941 H 0.17623 0.48327 0.92038 0.0
H942 H 0.16417 0.53265 0.72205 0.0
H943 H 0.1402 0.47429 0.85263 0.0
H944 H 0.06566 0.49137 0.77095 0.0
H945 H 0.10334 0.49196 0.83136 0.0
H946 H 0.14218 0.50667 0.64694 0.0
H947 H 0.10482 0.50687 0.58759 0.0
C948 C 0.18734 0.52598 0.80194 0.0
C949 C 0.19099 0.51271 0.85937 0.0
C950 C 0.16673 0.52114 0.76382 0.0
C951 C 0.14904 0.50282 0.78185 0.0
C952 C 0.15324 0.48872 0.83761 0.0
C953 C 0.17405 0.49358 0.87586 0.0
C954 C 0.08227 0.49451 0.74332 0.0
C955 C 0.08213 0.4994 0.67455 0.0
C956 C 0.10393 0.49471 0.77788 0.0
C957 C 0.12597 0.49964 0.74437 0.0
C958 C 0.12568 0.50337 0.67497 0.0
C959 C 0.10414 0.50339 0.64074 0.0
H960 H 1.0065 0.81764 0.33154 0.0
H961 H 0.93165 0.82722 0.35245 0.0
H962 H 0.01652 0.85567 0.39204 0.0
H963 H 0.94175 0.86543 0.40992 0.0
H964 H 0.97438 0.946 0.40189 0.0
H965 H 0.96491 0.90519 0.35837 0.0
H966 H 1.00816 0.87804 0.51125 0.0
H967 H 0.01718 0.91875 0.55612 0.0
C968 C 0.99219 0.82747 0.35047 0.0
C969 C 0.96828 0.81948 0.33625 0.0
C970 C 0.99794 0.84935 0.38456 0.0
C971 C 0.97991 0.86373 0.40432 0.0
C972 C 0.95602 0.85495 0.39412 0.0
C973 C 0.95028 0.83301 0.36133 0.0
C974 C 0.98182 0.93136 0.42639 0.0
C975 C 0.99645 0.93568 0.48262 0.0
C976 C 0.97634 0.90798 0.40162 0.0
C977 C 0.98579 0.88844 0.43152 0.0
C978 C 1.00068 0.89275 0.48715 0.0
C979 C 1.00572 0.91606 0.51293 0.0
H980 H 0.68446 0.04184 0.33486 0.0
H981 H 0.67767 0.96859 0.26381 0.0
H982 H 0.64838 0.03427 0.40038 0.0
H983 H 0.64209 0.96023 0.33399 0.0
H984 H 0.56269 0.96217 0.39119 0.0
H985 H 0.60208 0.96577 0.33875 0.0
H986 H 0.62659 0.0189 0.48799 0.0
H987 H 0.58674 0.016 0.53726 0.0
C988 C 0.6755 0.02385 0.33451 0.0
C989 C 0.68384 1.00596 0.29291 0.0
C990 C 0.65474 0.01936 0.373 0.0
C991 C 0.64171 0.99662 0.3726 0.0
C992 C 0.65107 0.97818 0.33467 0.0
C993 C 0.67181 0.98281 0.29518 0.0
C994 C 0.57658 0.97459 0.41266 0.0
C995 C 0.57148 0.98925 0.46742 0.0
C996 C 0.59936 0.97654 0.38293 0.0
C997 C 0.6179 0.99287 0.40808 0.0
C998 C 0.61286 1.00668 0.46518 0.0
C999 C 0.58993 1.00507 0.49383 0.0
H1000 H 0.58922 0.70088 0.4307 0.0
H1001 H 0.53684 0.68542 0.27629 0.0
H1002 H 0.57765 0.66202 0.48049 0.0
H1003 H 0.52482 0.64652 0.32672 0.0
H1004 H 0.54174 0.59514 0.57855 0.0
H1005 H 0.54787 0.63588 0.53734 0.0
H1006 H 0.54309 0.60887 0.33421 0.0
H1007 H 0.53648 0.56796 0.37552 0.0
C1008 C 0.57462 0.68947 0.40878 0.0
C1009 C 0.56389 0.69627 0.34971 0.0
C1010 C 0.56801 0.6671 0.43718 0.0
C1011 C 0.55055 0.65085 0.40707 0.0
C1012 C 0.53866 0.65836 0.35055 0.0
C1013 C 0.5452 0.68085 0.32234 0.0
C1014 C 0.54205 0.59778 0.525 0.0
C1015 C 0.5387 0.5781 0.48041 0.0
C1016 C 0.5456 0.62125 0.50135 0.0
C1017 C 0.54586 0.62581 0.43237 0.0
C1018 C 0.54259 0.60613 0.3877 0.0
C1019 C 0.5391 0.5826 0.41139 0.0
H1020 H 0.83271 0.48219 0.37247 0.0
H1021 H 0.85937 0.52982 0.21596 0.0
H1022 H 0.86838 0.49309 0.43712 0.0
H1023 H 0.89501 0.5419 0.28218 0.0
H1024 H 0.93234 0.51712 0.5552 0.0
H1025 H 0.89412 0.51837 0.50037 0.0
H1026 H 0.93021 0.52504 0.30889 0.0
H1027 H 0.96851 0.52506 0.36463 0.0
C1028 C 0.84585 0.49582 0.35318 0.0
C1029 C 0.84324 0.50507 0.28901 0.0
C1030 C 0.86646 0.50216 0.39038 0.0
C1031 C 0.88507 0.51817 0.36484 0.0
C1032 C 0.88144 0.52908 0.30305 0.0
C1033 C 0.86076 0.52256 0.26551 0.0
C1034 C 0.93213 0.51918 0.50145 0.0
C1035 C 0.95352 0.52077 0.46431 0.0
C1036 C 0.91012 0.51976 0.46975 0.0
C1037 C 0.90874 0.52144 0.39967 0.0
C1038 C 0.93031 0.52402 0.36287 0.0
C1039 C 0.95239 0.52387 0.39483 0.0
loop_
_geom_bond_atom_site_label_1
_geom_bond_atom_site_label_2
_geom_bond_distance
_geom_bond_site_symmetry_2
_ccdc_geom_bond_type
C0 C1 1.391 . S
C0 C4 1.391 . S
C0 H42 0.948 . S
C1 C0 1.391 . S
C1 C2 1.391 . S
C2 C1 1.391 . S
C2 H58 0.947 . S
C2 C59 1.392 . S
C3 C4 1.391 . S
C3 C7 1.397 . S
C3 C59 1.419 . S
C4 C0 1.391 . S
C4 C3 1.391 . S
C4 C5 1.399 . S
C5 C4 1.399 . S
C5 C8 1.396 . S
C5 C17 1.453 . S
C5 C18 1.684 . S
H6 C30 0.948 . S
C7 C3 1.397 . S
C7 C8 1.394 . S
C7 C26 1.723 . S
C8 C5 1.396 . S
C8 C7 1.394 . S
C8 C38 1.723 . S
H9 C32 0.947 . S
H10 C33 0.948 . S
H11 C39 0.982 . S
H12 C40 0.979 . S
H13 C40 0.980 . S
H14 C40 0.983 . S
H15 C39 0.979 . S
H16 C39 0.977 . S
C17 C5 1.453 . S
C17 H46 0.982 . S
C17 H47 0.979 . S
C17 H48 0.977 . S
C18 C5 1.684 . S
C18 H43 0.979 . S
C18 H44 0.980 . S
C18 H45 0.983 . S
C19 C20 1.391 . S
C19 C24 1.391 . S
C19 H49 0.948 . S
C20 C19 1.391 . S
C20 C21 1.391 . S
C21 C20 1.391 . S
C21 C22 1.392 . S
C21 H50 0.947 . S
C22 C21 1.392 . S
C22 C23 1.419 . S
C22 H51 0.948 . S
C23 C22 1.419 . S
C23 C24 1.391 . S
C23 C27 1.397 . S
C24 C19 1.391 . S
C24 C23 1.391 . S
C24 C25 1.399 . S
C25 C24 1.399 . S
C25 C26 1.396 1_556 S
C25 C28 1.453 1_556 S
C25 C29 1.684 1_556 S
C26 C7 1.723 . S
C26 C25 1.396 1_554 S
C26 C27 1.394 1_554 S
C27 C23 1.397 . S
C27 C26 1.394 1_556 S
C27 C37 1.723 . S
C28 C25 1.453 1_554 S
C28 H52 0.982 . S
C28 H53 0.979 . S
C28 H54 0.977 . S
C29 C25 1.684 1_554 S
C29 H55 0.979 . S
C29 H56 0.980 . S
C29 H57 0.983 . S
C30 H6 0.948 . S
C30 C31 1.391 . S
C30 C35 1.391 . S
C31 C30 1.391 . S
C31 C32 1.391 1_556 S
C32 H9 0.947 . S
C32 C31 1.391 1_554 S
C32 C33 1.392 . S
C33 H10 0.948 . S
C33 C32 1.392 . S
C33 C34 1.419 . S
C34 C33 1.419 . S
C34 C35 1.391 1_554 S
C34 C38 1.397 . S
C35 C30 1.391 . S
C35 C34 1.391 1_556 S
C35 C36 1.399 . S
C36 C35 1.399 . S
C36 C37 1.396 . S
C36 C39 1.453 . S
C36 C40 1.684 . S
C37 C27 1.723 . S
C37 C36 1.396 . S
C37 C38 1.394 1_556 S
C38 C8 1.723 . S
C38 C34 1.397 . S
C38 C37 1.394 1_554 S
C39 H11 0.982 . S
C39 H15 0.979 . S
C39 H16 0.977 . S
C39 C36 1.453 . S
C40 H12 0.979 . S
C40 H13 0.980 . S
C40 H14 0.983 . S
C40 C36 1.684 . S
H41 C59 0.948 . S
H42 C0 0.948 . S
H43 C18 0.979 . S
H44 C18 0.980 . S
H45 C18 0.983 . S
H46 C17 0.982 . S
H47 C17 0.979 . S
H48 C17 0.977 . S
H49 C19 0.948 . S
H50 C21 0.947 . S
H51 C22 0.948 . S
H52 C28 0.982 . S
H53 C28 0.979 . S
H54 C28 0.977 . S
H55 C29 0.979 . S
H56 C29 0.980 . S
H57 C29 0.983 . S
H58 C2 0.947 . S
C59 C2 1.392 . S
C59 C3 1.419 . S
C59 H41 0.948 . S
C60 C61 1.391 . S
C60 C64 1.391 . S
C60 H102 0.948 . S
C61 C60 1.391 . S
C61 C62 1.391 . S
C62 C61 1.391 . S
C62 H118 0.947 . S
C62 C119 1.392 . S
C63 C64 1.391 . S
C63 C67 1.397 . S
C63 C119 1.419 . S
C64 C60 1.391 . S
C64 C63 1.391 . S
C64 C65 1.399 . S
C65 C64 1.399 . S
C65 C68 1.396 . S
C65 C77 1.453 . S
C65 C78 1.684 . S
H66 C90 0.948 1_554 S
C67 C63 1.397 . S
C67 C68 1.394 . S
C67 C86 1.723 1_556 S
C68 C65 1.396 . S
C68 C67 1.394 . S
C68 C98 1.723 . S
H69 C92 0.947 . S
H70 C93 0.948 . S
H71 C99 0.982 . S
H72 C100 0.979 . S
H73 C100 0.980 . S
H74 C100 0.983 . S
H75 C99 0.979 . S
H76 C99 0.977 . S
C77 C65 1.453 . S
C77 H106 0.982 . S
C77 H107 0.979 . S
C77 H108 0.977 . S
C78 C65 1.684 . S
C78 H103 0.979 . S
C78 H104 0.980 . S
C78 H105 0.983 . S
C79 C80 1.391 . S
C79 C84 1.391 . S
C79 H109 0.948 . S
C80 C79 1.391 . S
C80 C81 1.391 . S
C81 C80 1.391 . S
C81 C82 1.392 . S
C81 H110 0.947 . S
C82 C81 1.392 . S
C82 C83 1.419 . S
C82 H111 0.948 . S
C83 C82 1.419 . S
C83 C84 1.391 . S
C83 C87 1.397 . S
C84 C79 1.391 . S
C84 C83 1.391 . S
C84 C85 1.399 . S
C85 C84 1.399 . S
C85 C86 1.396 . S
C85 C88 1.453 . S
C85 C89 1.684 . S
C86 C67 1.723 1_554 S
C86 C85 1.396 . S
C86 C87 1.394 . S
C87 C83 1.397 . S
C87 C86 1.394 . S
C87 C97 1.723 . S
C88 C85 1.453 . S
C88 H112 0.982 . S
C88 H113 0.979 . S
C88 H114 0.977 . S
C89 C85 1.684 . S
C89 H115 0.979 . S
C89 H116 0.980 . S
C89 H117 0.983 . S
C90 H66 0.948 1_556 S
C90 C91 1.391 . S
C90 C95 1.391 1_556 S
C91 C90 1.391 . S
C91 C92 1.391 . S
C92 H69 0.947 . S
C92 C91 1.391 . S
C92 C93 1.392 . S
C93 H70 0.948 . S
C93 C92 1.392 . S
C93 C94 1.419 . S
C94 C93 1.419 . S
C94 C95 1.391 1_556 S
C94 C98 1.397 . S
C95 C90 1.391 1_554 S
C95 C94 1.391 1_554 S
C95 C96 1.399 . S
C96 C95 1.399 . S
C96 C97 1.396 . S
C96 C99 1.453 . S
C96 C100 1.684 . S
C97 C87 1.723 . S
C97 C96 1.396 . S
C97 C98 1.394 1_554 S
C98 C68 1.723 . S
C98 C94 1.397 . S
C98 C97 1.394 1_556 S
C99 H71 0.982 . S
C99 H75 0.979 . S
C99 H76 0.977 . S
C99 C96 1.453 . S
C100 H72 0.979 . S
C100 H73 0.980 . S
C100 H74 0.983 . S
C100 C96 1.684 . S
H101 C119 0.948 . S
H102 C60 0.948 . S
H103 C78 0.979 . S
H104 C78 0.980 . S
H105 C78 0.983 . S
H106 C77 0.982 . S
H107 C77 0.979 . S
H108 C77 0.977 . S
H109 C79 0.948 . S
H110 C81 0.947 . S
H111 C82 0.948 . S
H112 C88 0.982 . S
H113 C88 0.979 . S
H114 C88 0.977 . S
H115 C89 0.979 . S
H116 C89 0.980 . S
H117 C89 0.983 . S
H118 C62 0.947 . S
C119 C62 1.392 . S
C119 C63 1.419 . S
C119 H101 0.948 . S
C120 C121 1.391 1_554 S
C120 C124 1.391 . S
C120 H162 0.948 . S
C121 C120 1.391 1_556 S
C121 C122 1.391 . S
C122 C121 1.391 . S
C122 H178 0.947 . S
C122 C179 1.392 . S
C123 C124 1.391 1_556 S
C123 C127 1.397 1_566 S
C123 C179 1.419 . S
C124 C120 1.391 . S
C124 C123 1.391 1_554 S
C124 C125 1.399 . S
C125 C124 1.399 . S
C125 C128 1.396 1_565 S
C125 C137 1.453 1_565 S
C125 C138 1.684 . S
H126 C150 0.948 . S
C127 C123 1.397 1_544 S
C127 C128 1.394 . S
C127 C146 1.722 1_554 S
C128 C125 1.396 1_545 S
C128 C127 1.394 . S
C128 C158 1.723 . S
H129 C152 0.947 . S
H130 C153 0.948 . S
H131 C159 0.982 . S
H132 C160 0.979 . S
H133 C160 0.980 . S
H134 C160 0.983 . S
H135 C159 0.979 . S
H136 C159 0.977 . S
C137 C125 1.453 1_545 S
C137 H166 0.982 . S
C137 H167 0.979 . S
C137 H168 0.977 . S
C138 C125 1.684 . S
C138 H163 0.979 . S
C138 H164 0.980 . S
C138 H165 0.983 . S
C139 C140 1.391 . S
C139 C144 1.391 . S
C139 H169 0.948 . S
C140 C139 1.391 . S
C140 C141 1.391 . S
C141 C140 1.391 . S
C141 C142 1.392 . S
C141 H170 0.947 . S
C142 C141 1.392 . S
C142 C143 1.419 . S
C142 H171 0.948 1_556 S
C143 C142 1.419 . S
C143 C144 1.391 . S
C143 C147 1.397 1_565 S
C144 C139 1.391 . S
C144 C143 1.391 . S
C144 C145 1.399 . S
C145 C144 1.399 . S
C145 C146 1.396 1_565 S
C145 C148 1.453 1_565 S
C145 C149 1.684 . S
C146 C127 1.722 1_556 S
C146 C145 1.396 1_545 S
C146 C147 1.394 . S
C147 C143 1.397 1_545 S
C147 C146 1.394 . S
C147 C157 1.723 1_556 S
C148 C145 1.453 1_545 S
C148 H172 0.982 . S
C148 H173 0.979 . S
C148 H174 0.977 . S
C149 C145 1.684 . S
C149 H175 0.979 . S
C149 H176 0.980 . S
C149 H177 0.983 . S
C150 H126 0.948 . S
C150 C151 1.391 . S
C150 C155 1.391 . S
C151 C150 1.391 . S
C151 C152 1.391 . S
C152 H129 0.947 . S
C152 C151 1.391 . S
C152 C153 1.392 . S
C153 H130 0.948 . S
C153 C152 1.392 . S
C153 C154 1.419 . S
C154 C153 1.419 . S
C154 C155 1.391 . S
C154 C158 1.397 1_565 S
C155 C150 1.391 . S
C155 C154 1.391 . S
C155 C156 1.399 . S
C156 C155 1.399 . S
C156 C157 1.396 1_565 S
C156 C159 1.453 1_565 S
C156 C160 1.684 . S
C157 C147 1.723 1_554 S
C157 C156 1.396 1_545 S
C157 C158 1.394 . S
C158 C128 1.723 . S
C158 C154 1.397 1_545 S
C158 C157 1.394 . S
C159 H131 0.982 . S
C159 H135 0.979 . S
C159 H136 0.977 . S
C159 C156 1.453 1_545 S
C160 H132 0.979 . S
C160 H133 0.980 . S
C160 H134 0.983 . S
C160 C156 1.684 . S
H161 C179 0.948 . S
H162 C120 0.948 . S
H163 C138 0.979 . S
H164 C138 0.980 . S
H165 C138 0.983 . S
H166 C137 0.982 . S
H167 C137 0.979 . S
H168 C137 0.977 . S
H169 C139 0.948 . S
H170 C141 0.947 . S
H171 C142 0.948 1_554 S
H172 C148 0.982 . S
H173 C148 0.979 . S
H174 C148 0.977 . S
H175 C149 0.979 . S
H176 C149 0.980 . S
H177 C149 0.983 . S
H178 C122 0.947 . S
C179 C122 1.392 . S
C179 C123 1.419 . S
C179 H161 0.948 . S
C180 C181 1.391 . S
C180 C184 1.391 . S
C180 H222 0.948 . S
C181 C180 1.391 . S
C181 C182 1.391 . S
C182 C181 1.391 . S
C182 H238 0.947 . S
C182 C239 1.392 . S
C183 C184 1.391 . S
C183 C187 1.397 . S
C183 C239 1.419 . S
C184 C180 1.391 . S
C184 C183 1.391 . S
C184 C185 1.399 . S
C185 C184 1.399 . S
C185 C188 1.396 . S
C185 C197 1.453 . S
C185 C198 1.684 . S
H186 C210 0.948 . S
C187 C183 1.397 . S
C187 C188 1.394 . S
C187 C206 1.723 . S
C188 C185 1.396 . S
C188 C187 1.394 . S
C188 C218 1.723 . S
H189 C212 0.947 . S
H190 C213 0.948 . S
H191 C219 0.982 . S
H192 C220 0.979 . S
H193 C220 0.980 . S
H194 C220 0.983 . S
H195 C219 0.979 . S
H196 C219 0.977 . S
C197 C185 1.453 . S
C197 H226 0.982 . S
C197 H227 0.979 . S
C197 H228 0.977 . S
C198 C185 1.684 . S
C198 H223 0.979 . S
C198 H224 0.980 . S
C198 H225 0.983 . S
C199 C200 1.391 . S
C199 C204 1.391 . S
C199 H229 0.948 . S
C200 C199 1.391 . S
C200 C201 1.391 . S
C201 C200 1.391 . S
C201 C202 1.392 . S
C201 H230 0.947 . S
C202 C201 1.392 . S
C202 C203 1.419 . S
C202 H231 0.948 . S
C203 C202 1.419 . S
C203 C204 1.391 . S
C203 C207 1.397 1_556 S
C204 C199 1.391 . S
C204 C203 1.391 . S
C204 C205 1.399 1_556 S
C205 C204 1.399 1_554 S
C205 C206 1.396 . S
C205 C208 1.453 . S
C205 C209 1.684 . S
C206 C187 1.723 . S
C206 C205 1.396 . S
C206 C207 1.394 . S
C207 C203 1.397 1_554 S
C207 C206 1.394 . S
C207 C217 1.723 1_554 S
C208 C205 1.453 . S
C208 H232 0.982 . S
C208 H233 0.979 . S
C208 H234 0.977 . S
C209 C205 1.684 . S
C209 H235 0.979 . S
C209 H236 0.980 . S
C209 H237 0.983 . S
C210 H186 0.948 . S
C210 C211 1.391 1_556 S
C210 C215 1.391 . S
C211 C210 1.391 1_554 S
C211 C212 1.391 . S
C212 H189 0.947 . S
C212 C211 1.391 . S
C212 C213 1.392 . S
C213 H190 0.948 . S
C213 C212 1.392 . S
C213 C214 1.419 . S
C214 C213 1.419 . S
C214 C215 1.391 1_554 S
C214 C218 1.397 . S
C215 C210 1.391 . S
C215 C214 1.391 1_556 S
C215 C216 1.399 . S
C216 C215 1.399 . S
C216 C217 1.396 . S
C216 C219 1.453 . S
C216 C220 1.684 . S
C217 C207 1.723 1_556 S
C217 C216 1.396 . S
C217 C218 1.394 1_556 S
C218 C188 1.723 . S
C218 C214 1.397 . S
C218 C217 1.394 1_554 S
C219 H191 0.982 . S
C219 H195 0.979 . S
C219 H196 0.977 . S
C219 C216 1.453 . S
C220 H192 0.979 . S
C220 H193 0.980 . S
C220 H194 0.983 . S
C220 C216 1.684 . S
H221 C239 0.948 . S
H222 C180 0.948 . S
H223 C198 0.979 . S
H224 C198 0.980 . S
H225 C198 0.983 . S
H226 C197 0.982 . S
H227 C197 0.979 . S
H228 C197 0.977 . S
H229 C199 0.948 . S
H230 C201 0.947 . S
H231 C202 0.948 . S
H232 C208 0.982 . S
H233 C208 0.979 . S
H234 C208 0.977 . S
H235 C209 0.979 . S
H236 C209 0.980 . S
H237 C209 0.983 . S
H238 C182 0.947 . S
C239 C182 1.392 . S
C239 C183 1.419 . S
C239 H221 0.948 . S
C240 C241 1.391 . S
C240 C244 1.391 . S
C240 H282 0.948 . S
C241 C240 1.391 . S
C241 C242 1.391 . S
C242 C241 1.391 . S
C242 H298 0.947 . S
C242 C299 1.392 . S
C243 C244 1.391 . S
C243 C247 1.397 . S
C243 C299 1.419 . S
C244 C240 1.391 . S
C244 C243 1.391 . S
C244 C245 1.399 . S
C245 C244 1.399 . S
C245 C248 1.396 . S
C245 C257 1.453 1_554 S
C245 C258 1.684 1_554 S
H246 C270 0.948 . S
C247 C243 1.397 . S
C247 C248 1.394 . S
C247 C266 1.723 . S
C248 C245 1.396 . S
C248 C247 1.394 . S
C248 C278 1.723 . S
H249 C272 0.947 . S
H250 C273 0.948 . S
H251 C279 0.982 . S
H252 C280 0.979 . S
H253 C280 0.980 . S
H254 C280 0.983 1_556 S
H255 C279 0.979 1_556 S
H256 C279 0.977 . S
C257 C245 1.453 1_556 S
C257 H286 0.982 1_556 S
C257 H287 0.979 . S
C257 H288 0.977 . S
C258 C245 1.684 1_556 S
C258 H283 0.979 . S
C258 H284 0.980 . S
C258 H285 0.983 . S
C259 C260 1.391 . S
C259 C264 1.391 . S
C259 H289 0.948 . S
C260 C259 1.391 . S
C260 C261 1.391 . S
C261 C260 1.391 . S
C261 C262 1.392 . S
C261 H290 0.947 . S
C262 C261 1.392 . S
C262 C263 1.419 . S
C262 H291 0.948 . S
C263 C262 1.419 . S
C263 C264 1.391 . S
C263 C267 1.397 . S
C264 C259 1.391 . S
C264 C263 1.391 . S
C264 C265 1.399 . S
C265 C264 1.399 . S
C265 C266 1.396 . S
C265 C268 1.453 . S
C265 C269 1.684 . S
C266 C247 1.723 . S
C266 C265 1.396 . S
C266 C267 1.394 . S
C267 C263 1.397 . S
C267 C266 1.394 . S
C267 C277 1.723 . S
C268 C265 1.453 . S
C268 H292 0.982 . S
C268 H293 0.979 . S
C268 H294 0.977 . S
C269 C265 1.684 . S
C269 H295 0.979 . S
C269 H296 0.980 . S
C269 H297 0.983 . S
C270 H246 0.948 . S
C270 C271 1.391 . S
C270 C275 1.391 . S
C271 C270 1.391 . S
C271 C272 1.391 . S
C272 H249 0.947 . S
C272 C271 1.391 . S
C272 C273 1.392 . S
C273 H250 0.948 . S
C273 C272 1.392 . S
C273 C274 1.419 . S
C274 C273 1.419 . S
C274 C275 1.391 . S
C274 C278 1.397 1_556 S
C275 C270 1.391 . S
C275 C274 1.391 . S
C275 C276 1.399 1_556 S
C276 C275 1.399 1_554 S
C276 C277 1.396 . S
C276 C279 1.453 . S
C276 C280 1.684 . S
C277 C267 1.723 . S
C277 C276 1.396 . S
C277 C278 1.394 . S
C278 C248 1.723 . S
C278 C274 1.397 1_554 S
C278 C277 1.394 . S
C279 H251 0.982 . S
C279 H255 0.979 1_554 S
C279 H256 0.977 . S
C279 C276 1.453 . S
C280 H252 0.979 . S
C280 H253 0.980 . S
C280 H254 0.983 1_554 S
C280 C276 1.684 . S
H281 C299 0.948 . S
H282 C240 0.948 . S
H283 C258 0.979 . S
H284 C258 0.980 . S
H285 C258 0.983 . S
H286 C257 0.982 1_554 S
H287 C257 0.979 . S
H288 C257 0.977 . S
H289 C259 0.948 . S
H290 C261 0.947 . S
H291 C262 0.948 . S
H292 C268 0.982 . S
H293 C268 0.979 . S
H294 C268 0.977 . S
H295 C269 0.979 . S
H296 C269 0.980 . S
H297 C269 0.983 . S
H298 C242 0.947 . S
C299 C242 1.392 . S
C299 C243 1.419 . S
C299 H281 0.948 . S
C300 C301 1.391 . S
C300 C304 1.391 . S
C300 H342 0.948 . S
C301 C300 1.391 . S
C301 C302 1.391 . S
C302 C301 1.391 . S
C302 H358 0.947 . S
C302 C359 1.392 . S
C303 C304 1.391 . S
C303 C307 1.397 . S
C303 C359 1.419 . S
C304 C300 1.391 . S
C304 C303 1.391 . S
C304 C305 1.399 . S
C305 C304 1.399 . S
C305 C308 1.396 . S
C305 C317 1.453 . S
C305 C318 1.684 . S
H306 C330 0.948 . S
C307 C303 1.397 . S
C307 C308 1.394 . S
C307 C326 1.723 . S
C308 C305 1.396 . S
C308 C307 1.394 . S
C308 C338 1.723 . S
H309 C332 0.947 . S
H310 C333 0.948 . S
H311 C339 0.982 . S
H312 C340 0.979 1_554 S
H313 C340 0.980 . S
H314 C340 0.983 . S
H315 C339 0.979 1_556 S
H316 C339 0.977 1_556 S
C317 C305 1.453 . S
C317 H346 0.982 . S
C317 H347 0.979 . S
C317 H348 0.977 . S
C318 C305 1.684 . S
C318 H343 0.979 . S
C318 H344 0.980 . S
C318 H345 0.983 . S
C319 C320 1.391 . S
C319 C324 1.391 . S
C319 H349 0.948 . S
C320 C319 1.391 . S
C320 C321 1.391 . S
C321 C320 1.391 . S
C321 C322 1.392 . S
C321 H350 0.947 . S
C322 C321 1.392 . S
C322 C323 1.419 . S
C322 H351 0.948 . S
C323 C322 1.419 . S
C323 C324 1.391 . S
C323 C327 1.397 1_556 S
C324 C319 1.391 . S
C324 C323 1.391 . S
C324 C325 1.399 1_556 S
C325 C324 1.399 1_554 S
C325 C326 1.396 . S
C325 C328 1.453 . S
C325 C329 1.684 . S
C326 C307 1.723 . S
C326 C325 1.396 . S
C326 C327 1.394 . S
C327 C323 1.397 1_554 S
C327 C326 1.394 . S
C327 C337 1.723 . S
C328 C325 1.453 . S
C328 H352 0.982 . S
C328 H353 0.979 1_554 S
C328 H354 0.977 . S
C329 C325 1.684 . S
C329 H355 0.979 . S
C329 H356 0.980 . S
C329 H357 0.983 1_554 S
C330 H306 0.948 . S
C330 C331 1.391 . S
C330 C335 1.391 . S
C331 C330 1.391 . S
C331 C332 1.391 . S
C332 H309 0.947 . S
C332 C331 1.391 . S
C332 C333 1.392 . S
C333 H310 0.948 . S
C333 C332 1.392 . S
C333 C334 1.419 . S
C334 C333 1.419 . S
C334 C335 1.391 . S
C334 C338 1.397 . S
C335 C330 1.391 . S
C335 C334 1.391 . S
C335 C336 1.399 . S
C336 C335 1.399 . S
C336 C337 1.396 . S
C336 C339 1.453 . S
C336 C340 1.684 1_554 S
C337 C327 1.723 . S
C337 C336 1.396 . S
C337 C338 1.394 . S
C338 C308 1.723 . S
C338 C334 1.397 . S
C338 C337 1.394 . S
C339 H311 0.982 . S
C339 H315 0.979 1_554 S
C339 H316 0.977 1_554 S
C339 C336 1.453 . S
C340 H312 0.979 1_556 S
C340 H313 0.980 . S
C340 H314 0.983 . S
C340 C336 1.684 1_556 S
H341 C359 0.948 . S
H342 C300 0.948 . S
H343 C318 0.979 . S
H344 C318 0.980 . S
H345 C318 0.983 . S
H346 C317 0.982 . S
H347 C317 0.979 . S
H348 C317 0.977 . S
H349 C319 0.948 . S
H350 C321 0.947 . S
H351 C322 0.948 . S
H352 C328 0.982 . S
H353 C328 0.979 1_556 S
H354 C328 0.977 . S
H355 C329 0.979 . S
H356 C329 0.980 . S
H357 C329 0.983 1_556 S
H358 C302 0.947 . S
C359 C302 1.392 . S
C359 C303 1.419 . S
C359 H341 0.948 . S
C360 C361 1.391 . S
C360 C364 1.391 . S
C360 H402 0.948 . S
C361 C360 1.391 . S
C361 C362 1.391 . S
C362 C361 1.391 . S
C362 H418 0.947 . S
C362 C419 1.392 . S
C363 C364 1.391 . S
C363 C367 1.397 1_546 S
C363 C419 1.419 . S
C364 C360 1.391 . S
C364 C363 1.391 . S
C364 C365 1.399 . S
C365 C364 1.399 . S
C365 C368 1.396 1_546 S
C365 C377 1.453 1_545 S
C365 C378 1.684 . S
H366 C390 0.948 . S
C367 C363 1.397 1_564 S
C367 C368 1.394 . S
C367 C386 1.723 . S
C368 C365 1.396 1_564 S
C368 C367 1.394 . S
C368 C398 1.723 . S
H369 C392 0.947 . S
H370 C393 0.950 1_556 S
H371 C399 0.982 . S
H372 C400 0.979 . S
H373 C400 0.980 . S
H374 C400 0.983 . S
H375 C399 0.979 . S
H376 C399 0.977 . S
C377 C365 1.453 1_565 S
C377 H406 0.982 . S
C377 H407 0.979 . S
C377 H408 0.977 . S
C378 C365 1.684 . S
C378 H403 0.979 . S
C378 H404 0.980 . S
C378 H405 0.983 . S
C379 C380 1.391 . S
C379 C384 1.391 . S
C379 H409 0.948 . S
C380 C379 1.391 . S
C380 C381 1.391 . S
C381 C380 1.391 . S
C381 C382 1.392 . S
C381 H410 0.947 . S
C382 C381 1.392 . S
C382 C383 1.419 . S
C382 H411 0.948 . S
C383 C382 1.419 . S
C383 C384 1.391 . S
C383 C387 1.397 1_545 S
C384 C379 1.391 . S
C384 C383 1.391 . S
C384 C385 1.399 . S
C385 C384 1.399 . S
C385 C386 1.396 1_545 S
C385 C388 1.453 1_545 S
C385 C389 1.684 . S
C386 C367 1.723 . S
C386 C385 1.396 1_565 S
C386 C387 1.394 . S
C387 C383 1.397 1_565 S
C387 C386 1.394 . S
C387 C397 1.723 . S
C388 C385 1.453 1_565 S
C388 H412 0.982 . S
C388 H413 0.979 . S
C388 H414 0.977 . S
C389 C385 1.684 . S
C389 H415 0.979 . S
C389 H416 0.980 . S
C389 H417 0.983 . S
C390 H366 0.948 . S
C390 C391 1.391 . S
C390 C395 1.391 . S
C391 C390 1.391 . S
C391 C392 1.391 . S
C392 H369 0.947 . S
C392 C391 1.391 . S
C392 C393 1.392 . S
C393 H370 0.950 1_554 S
C393 C392 1.392 . S
C393 C394 1.419 . S
C394 C393 1.419 . S
C394 C395 1.391 . S
C394 C398 1.397 1_545 S
C395 C390 1.391 . S
C395 C394 1.391 . S
C395 C396 1.399 . S
C396 C395 1.399 . S
C396 C397 1.396 1_545 S
C396 C399 1.453 1_545 S
C396 C400 1.684 . S
C397 C387 1.723 . S
C397 C396 1.396 1_565 S
C397 C398 1.394 . S
C398 C368 1.723 . S
C398 C394 1.397 1_565 S
C398 C397 1.394 . S
C399 H371 0.982 . S
C399 H375 0.979 . S
C399 H376 0.977 . S
C399 C396 1.453 1_565 S
C400 H372 0.979 . S
C400 H373 0.980 . S
C400 H374 0.983 . S
C400 C396 1.684 . S
H401 C419 0.948 . S
H402 C360 0.948 . S
H403 C378 0.979 . S
H404 C378 0.980 . S
H405 C378 0.983 . S
H406 C377 0.982 . S
H407 C377 0.979 . S
H408 C377 0.977 . S
H409 C379 0.948 . S
H410 C381 0.947 . S
H411 C382 0.948 . S
H412 C388 0.982 . S
H413 C388 0.979 . S
H414 C388 0.977 . S
H415 C389 0.979 . S
H416 C389 0.980 . S
H417 C389 0.983 . S
H418 C362 0.947 . S
C419 C362 1.392 . S
C419 C363 1.419 . S
C419 H401 0.948 . S
C420 C421 1.391 . S
C420 C424 1.391 . S
C420 H462 0.948 . S
C421 C420 1.391 . S
C421 C422 1.391 . S
C422 C421 1.391 . S
C422 H478 0.947 . S
C422 C479 1.392 . S
C423 C424 1.391 . S
C423 C427 1.397 . S
C423 C479 1.419 . S
C424 C420 1.391 . S
C424 C423 1.391 . S
C424 C425 1.399 . S
C425 C424 1.399 . S
C425 C428 1.396 . S
C425 C437 1.453 . S
C425 C438 1.684 . S
H426 C450 0.948 . S
C427 C423 1.397 . S
C427 C428 1.394 . S
C427 C446 1.723 1_556 S
C428 C425 1.396 . S
C428 C427 1.394 . S
C428 C458 1.723 1_556 S
H429 C452 0.947 . S
H430 C453 0.948 1_556 S
H431 C459 0.982 . S
H432 C460 0.979 . S
H433 C460 0.980 . S
H434 C460 0.983 . S
H435 C459 0.979 . S
H436 C459 0.977 . S
C437 C425 1.453 . S
C437 H466 0.982 . S
C437 H467 0.979 . S
C437 H468 0.977 . S
C438 C425 1.684 . S
C438 H463 0.979 . S
C438 H464 0.980 . S
C438 H465 0.983 . S
C439 C440 1.391 . S
C439 C444 1.391 . S
C439 H469 0.948 . S
C440 C439 1.391 . S
C440 C441 1.391 . S
C441 C440 1.391 . S
C441 C442 1.392 . S
C441 H470 0.947 . S
C442 C441 1.392 . S
C442 C443 1.419 . S
C442 H471 0.948 . S
C443 C442 1.419 . S
C443 C444 1.391 . S
C443 C447 1.397 . S
C444 C439 1.391 . S
C444 C443 1.391 . S
C444 C445 1.399 . S
C445 C444 1.399 . S
C445 C446 1.396 . S
C445 C448 1.453 . S
C445 C449 1.684 . S
C446 C427 1.723 1_554 S
C446 C445 1.396 . S
C446 C447 1.394 . S
C447 C443 1.397 . S
C447 C446 1.394 . S
C447 C457 1.723 . S
C448 C445 1.453 . S
C448 H472 0.982 . S
C448 H473 0.979 . S
C448 H474 0.977 . S
C449 C445 1.684 . S
C449 H475 0.979 . S
C449 H476 0.980 1_554 S
C449 H477 0.983 . S
C450 H426 0.948 . S
C450 C451 1.391 . S
C450 C455 1.391 . S
C451 C450 1.391 . S
C451 C452 1.391 . S
C452 H429 0.947 . S
C452 C451 1.391 . S
C452 C453 1.392 . S
C453 H430 0.948 1_554 S
C453 C452 1.392 . S
C453 C454 1.419 . S
C454 C453 1.419 . S
C454 C455 1.391 . S
C454 C458 1.397 . S
C455 C450 1.391 . S
C455 C454 1.391 . S
C455 C456 1.399 . S
C456 C455 1.399 . S
C456 C457 1.396 . S
C456 C459 1.453 . S
C456 C460 1.684 . S
C457 C447 1.723 . S
C457 C456 1.396 . S
C457 C458 1.394 . S
C458 C428 1.723 1_554 S
C458 C454 1.397 . S
C458 C457 1.394 . S
C459 H431 0.982 . S
C459 H435 0.979 . S
C459 H436 0.977 . S
C459 C456 1.453 . S
C460 H432 0.979 . S
C460 H433 0.980 . S
C460 H434 0.983 . S
C460 C456 1.684 . S
H461 C479 0.948 . S
H462 C420 0.948 . S
H463 C438 0.979 . S
H464 C438 0.980 . S
H465 C438 0.983 . S
H466 C437 0.982 . S
H467 C437 0.979 . S
H468 C437 0.977 . S
H469 C439 0.948 . S
H470 C441 0.947 . S
H471 C442 0.948 . S
H472 C448 0.982 . S
H473 C448 0.979 . S
H474 C448 0.977 . S
H475 C449 0.979 . S
H476 C449 0.980 1_556 S
H477 C449 0.983 . S
H478 C422 0.947 . S
C479 C422 1.392 . S
C479 C423 1.419 . S
C479 H461 0.948 . S
Dy480 O484 2.398 . S
Dy480 O485 2.491 1_455 S
Dy480 O486 2.403 . S
Dy480 O487 2.664 1_565 S
Dy480 O491 2.326 . S
Dy480 O495 2.310 1_455 S
Dy480 O496 2.351 1_565 S
C481 O492 1.185 1_455 S
C481 O493 1.355 . S
C482 O484 1.185 . S
C482 O485 1.355 1_455 S
Dy483 O487 2.310 1_655 S
Dy483 O490 2.351 1_545 S
Dy483 O492 2.398 . S
Dy483 O493 2.491 1_655 S
Dy483 O494 2.403 . S
Dy483 O495 2.664 1_545 S
Dy483 O497 2.326 1_655 S
O484 Dy480 2.398 . S
O484 C482 1.185 . S
O485 Dy480 2.491 1_655 S
O485 C482 1.355 1_655 S
O486 Dy480 2.403 . S
O486 C488 1.254 . S
O487 Dy480 2.664 1_545 S
O487 Dy483 2.310 1_455 S
O487 C488 1.268 1_545 S
C488 O486 1.254 . S
C488 O487 1.268 1_565 S
C489 O494 1.254 . S
C489 O495 1.268 1_545 S
O490 Dy483 2.351 1_565 S
O490 C498 1.249 . S
O491 Dy480 2.326 . S
O491 C498 1.267 1_455 S
O492 C481 1.185 1_655 S
O492 Dy483 2.398 . S
O493 C481 1.355 . S
O493 Dy483 2.491 1_455 S
O494 Dy483 2.403 . S
O494 C489 1.254 . S
O495 Dy480 2.310 1_655 S
O495 Dy483 2.664 1_565 S
O495 C489 1.268 1_565 S
O496 Dy480 2.351 1_545 S
O496 C499 1.249 . S
O497 Dy483 2.326 1_455 S
O497 C499 1.267 . S
C498 O490 1.249 . S
C498 O491 1.267 1_655 S
C499 O496 1.249 . S
C499 O497 1.267 . S
Dy500 O504 2.398 . S
Dy500 O505 2.491 . S
Dy500 O506 2.403 . S
Dy500 O507 2.664 . S
Dy500 O511 2.326 1_565 S
Dy500 O515 2.310 1_565 S
Dy500 O516 2.351 . S
C501 O512 1.185 . S
C501 O513 1.355 . S
C502 O504 1.185 . S
C502 O505 1.355 . S
Dy503 O507 2.310 1_545 S
Dy503 O510 2.351 . S
Dy503 O512 2.398 . S
Dy503 O513 2.491 . S
Dy503 O514 2.403 . S
Dy503 O515 2.664 . S
Dy503 O517 2.326 1_545 S
O504 Dy500 2.398 . S
O504 C502 1.185 . S
O505 Dy500 2.491 . S
O505 C502 1.355 . S
O506 Dy500 2.403 . S
O506 C508 1.254 . S
O507 Dy500 2.664 . S
O507 Dy503 2.310 1_565 S
O507 C508 1.268 . S
C508 O506 1.254 . S
C508 O507 1.268 . S
C509 O514 1.254 . S
C509 O515 1.268 . S
O510 Dy503 2.351 . S
O510 C518 1.249 . S
O511 Dy500 2.326 1_545 S
O511 C518 1.267 . S
O512 C501 1.185 . S
O512 Dy503 2.398 . S
O513 C501 1.355 . S
O513 Dy503 2.491 . S
O514 Dy503 2.403 . S
O514 C509 1.254 . S
O515 Dy500 2.310 1_545 S
O515 Dy503 2.664 . S
O515 C509 1.268 . S
O516 Dy500 2.351 . S
O516 C519 1.249 . S
O517 Dy503 2.326 1_565 S
O517 C519 1.267 . S
C518 O510 1.249 . S
C518 O511 1.267 . S
C519 O516 1.249 . S
C519 O517 1.267 . S
Dy520 O524 2.398 . S
Dy520 O525 2.491 . S
Dy520 O526 2.403 . S
Dy520 O527 2.664 . S
Dy520 O531 2.326 . S
Dy520 O535 2.310 . S
Dy520 O536 2.351 . S
C521 O532 1.185 . S
C521 O533 1.355 . S
C522 O524 1.185 . S
C522 O525 1.355 . S
Dy523 O527 2.310 . S
Dy523 O530 2.351 . S
Dy523 O532 2.398 . S
Dy523 O533 2.491 . S
Dy523 O534 2.403 . S
Dy523 O535 2.664 . S
Dy523 O537 2.326 . S
O524 Dy520 2.398 . S
O524 C522 1.185 . S
O525 Dy520 2.491 . S
O525 C522 1.355 . S
O526 Dy520 2.403 . S
O526 C528 1.254 . S
O527 Dy520 2.664 . S
O527 Dy523 2.310 . S
O527 C528 1.268 . S
C528 O526 1.254 . S
C528 O527 1.268 . S
C529 O534 1.254 . S
C529 O535 1.268 . S
O530 Dy523 2.351 . S
O530 C538 1.249 . S
O531 Dy520 2.326 . S
O531 C538 1.267 . S
O532 C521 1.185 . S
O532 Dy523 2.398 . S
O533 C521 1.355 . S
O533 Dy523 2.491 . S
O534 Dy523 2.403 . S
O534 C529 1.254 . S
O535 Dy520 2.310 . S
O535 Dy523 2.664 . S
O535 C529 1.268 . S
O536 Dy520 2.351 . S
O536 C539 1.249 . S
O537 Dy523 2.326 . S
O537 C539 1.267 . S
C538 O530 1.249 . S
C538 O531 1.267 . S
C539 O536 1.249 . S
C539 O537 1.267 . S
Dy540 O544 2.398 . S
Dy540 O545 2.491 . S
Dy540 O546 2.403 1_655 S
Dy540 O547 2.664 1_655 S
Dy540 O551 2.326 . S
Dy540 O555 2.310 . S
Dy540 O556 2.351 1_655 S
C541 O552 1.185 . S
C541 O553 1.355 . S
C542 O544 1.185 . S
C542 O545 1.355 . S
Dy543 O547 2.310 . S
Dy543 O550 2.351 1_455 S
Dy543 O552 2.398 . S
Dy543 O553 2.491 . S
Dy543 O554 2.403 . S
Dy543 O555 2.664 1_455 S
Dy543 O557 2.326 . S
O544 Dy540 2.398 . S
O544 C542 1.185 . S
O545 Dy540 2.491 . S
O545 C542 1.355 . S
O546 Dy540 2.403 1_455 S
O546 C548 1.254 . S
O547 Dy540 2.664 1_455 S
O547 Dy543 2.310 . S
O547 C548 1.268 . S
C548 O546 1.254 . S
C548 O547 1.268 . S
C549 O554 1.254 1_655 S
C549 O555 1.268 . S
O550 Dy543 2.351 1_655 S
O550 C558 1.249 . S
O551 Dy540 2.326 . S
O551 C558 1.267 . S
O552 C541 1.185 . S
O552 Dy543 2.398 . S
O553 C541 1.355 . S
O553 Dy543 2.491 . S
O554 Dy543 2.403 . S
O554 C549 1.254 1_455 S
O555 Dy540 2.310 . S
O555 Dy543 2.664 1_655 S
O555 C549 1.268 . S
O556 Dy540 2.351 1_455 S
O556 C559 1.249 . S
O557 Dy543 2.326 . S
O557 C559 1.267 . S
C558 O550 1.249 . S
C558 O551 1.267 . S
C559 O556 1.249 . S
C559 O557 1.267 . S
H560 C568 0.950 . S
H561 C573 0.950 . S
H562 C570 0.950 . S
H563 C572 0.950 . S
H564 C574 0.950 . S
H565 C576 0.950 . S
H566 C578 0.950 . S
H567 C579 0.950 . S
C568 H560 0.950 . S
C568 C569 1.386 . S
C568 C570 1.391 . S
C569 C568 1.386 . S
C569 C573 1.393 1_565 S
C570 H562 0.950 . S
C570 C568 1.391 . S
C570 C571 1.400 . S
C571 C570 1.400 . S
C571 C572 1.398 1_565 S
C571 C577 1.491 . S
C572 H563 0.950 . S
C572 C571 1.398 1_545 S
C572 C573 1.391 . S
C573 H561 0.950 . S
C573 C569 1.393 1_545 S
C573 C572 1.391 . S
C574 H564 0.950 . S
C574 C575 1.386 1_545 S
C574 C576 1.391 . S
C575 C574 1.386 1_565 S
C575 C579 1.393 . S
C576 H565 0.950 . S
C576 C574 1.391 . S
C576 C577 1.400 1_545 S
C577 C571 1.491 . S
C577 C576 1.400 1_565 S
C577 C578 1.398 . S
C578 H566 0.950 . S
C578 C577 1.398 . S
C578 C579 1.391 . S
C579 H567 0.950 . S
C579 C575 1.393 . S
C579 C578 1.391 . S
H580 C588 0.950 . S
H581 C593 0.950 . S
H582 C590 0.950 . S
H583 C592 0.950 . S
H584 C594 0.950 . S
H585 C596 0.950 . S
H586 C598 0.950 . S
H587 C599 0.950 . S
C588 H580 0.950 . S
C588 C589 1.386 . S
C588 C590 1.391 . S
C589 C588 1.386 . S
C589 C593 1.393 . S
C590 H582 0.950 . S
C590 C588 1.391 . S
C590 C591 1.400 . S
C591 C590 1.400 . S
C591 C592 1.398 . S
C591 C597 1.491 . S
C592 H583 0.950 . S
C592 C591 1.398 . S
C592 C593 1.391 . S
C593 H581 0.950 . S
C593 C589 1.393 . S
C593 C592 1.391 . S
C594 H584 0.950 . S
C594 C595 1.386 . S
C594 C596 1.391 . S
C595 C594 1.386 . S
C595 C599 1.393 . S
C596 H585 0.950 . S
C596 C594 1.391 . S
C596 C597 1.400 . S
C597 C591 1.491 . S
C597 C596 1.400 . S
C597 C598 1.398 . S
C598 H586 0.950 . S
C598 C597 1.398 . S
C598 C599 1.391 . S
C599 H587 0.950 . S
C599 C595 1.393 . S
C599 C598 1.391 . S
H600 C608 0.950 . S
H601 C613 0.950 . S
H602 C610 0.950 . S
H603 C612 0.950 . S
H604 C614 0.950 . S
H605 C616 0.950 . S
H606 C618 0.950 . S
H607 C619 0.950 . S
C608 H600 0.950 . S
C608 C609 1.386 . S
C608 C610 1.391 . S
C609 C608 1.386 . S
C609 C613 1.393 . S
C610 H602 0.950 . S
C610 C608 1.391 . S
C610 C611 1.400 . S
C611 C610 1.400 . S
C611 C612 1.398 . S
C611 C617 1.491 . S
C612 H603 0.950 . S
C612 C611 1.398 . S
C612 C613 1.391 . S
C613 H601 0.950 . S
C613 C609 1.393 . S
C613 C612 1.391 . S
C614 H604 0.950 . S
C614 C615 1.386 . S
C614 C616 1.391 . S
C615 C614 1.386 . S
C615 C619 1.393 . S
C616 H605 0.950 . S
C616 C614 1.391 . S
C616 C617 1.400 . S
C617 C611 1.491 . S
C617 C616 1.400 . S
C617 C618 1.398 . S
C618 H606 0.950 . S
C618 C617 1.398 . S
C618 C619 1.391 . S
C619 H607 0.950 . S
C619 C615 1.393 . S
C619 C618 1.391 . S
H620 C628 0.950 . S
H621 C633 0.950 . S
H622 C630 0.950 . S
H623 C632 0.950 . S
H624 C634 0.950 . S
H625 C636 0.950 . S
H626 C638 0.950 . S
H627 C639 0.950 . S
C628 H620 0.950 . S
C628 C629 1.386 . S
C628 C630 1.391 . S
C629 C628 1.386 . S
C629 C633 1.393 . S
C630 H622 0.950 . S
C630 C628 1.391 . S
C630 C631 1.400 . S
C631 C630 1.400 . S
C631 C632 1.398 . S
C631 C637 1.491 . S
C632 H623 0.950 . S
C632 C631 1.398 . S
C632 C633 1.391 . S
C633 H621 0.950 . S
C633 C629 1.393 . S
C633 C632 1.391 . S
C634 H624 0.950 . S
C634 C635 1.386 . S
C634 C636 1.391 . S
C635 C634 1.386 . S
C635 C639 1.393 . S
C636 H625 0.950 . S
C636 C634 1.391 . S
C636 C637 1.400 . S
C637 C631 1.491 . S
C637 C636 1.400 . S
C637 C638 1.398 . S
C638 H626 0.950 . S
C638 C637 1.398 . S
C638 C639 1.391 . S
C639 H627 0.950 . S
C639 C635 1.393 . S
C639 C638 1.391 . S
H640 C648 0.950 . S
H641 C653 0.950 . S
H642 C650 0.950 . S
H643 C652 0.950 . S
H644 C654 0.950 . S
H645 C656 0.950 . S
H646 C658 0.950 . S
H647 C659 0.950 . S
C648 H640 0.950 . S
C648 C649 1.388 1_545 S
C648 C650 1.391 . S
C649 C648 1.388 1_565 S
C649 C653 1.391 . S
C650 H642 0.950 . S
C650 C648 1.391 . S
C650 C651 1.400 . S
C651 C650 1.400 . S
C651 C652 1.398 1_545 S
C651 C657 1.491 . S
C652 H643 0.950 . S
C652 C651 1.398 1_565 S
C652 C653 1.391 . S
C653 H641 0.950 . S
C653 C649 1.391 . S
C653 C652 1.391 . S
C654 H644 0.950 . S
C654 C655 1.386 1_565 S
C654 C656 1.391 . S
C655 C654 1.386 1_545 S
C655 C659 1.393 . S
C656 H645 0.950 . S
C656 C654 1.391 . S
C656 C657 1.400 1_565 S
C657 C651 1.491 . S
C657 C656 1.400 1_545 S
C657 C658 1.398 . S
C658 H646 0.950 . S
C658 C657 1.398 . S
C658 C659 1.391 . S
C659 H647 0.950 . S
C659 C655 1.393 . S
C659 C658 1.391 . S
H660 C668 0.950 . S
H661 C673 0.950 . S
H662 C670 0.950 . S
H663 C672 0.950 . S
H664 C674 0.950 . S
H665 C676 0.950 . S
H666 C678 0.950 . S
H667 C679 0.950 . S
C668 H660 0.950 . S
C668 C669 1.386 . S
C668 C670 1.391 . S
C669 C668 1.386 . S
C669 C673 1.393 . S
C670 H662 0.950 . S
C670 C668 1.391 . S
C670 C671 1.400 . S
C671 C670 1.400 . S
C671 C672 1.398 . S
C671 C677 1.491 . S
C672 H663 0.950 . S
C672 C671 1.398 . S
C672 C673 1.391 . S
C673 H661 0.950 . S
C673 C669 1.393 . S
C673 C672 1.391 . S
C674 H664 0.950 . S
C674 C675 1.386 . S
C674 C676 1.391 . S
C675 C674 1.386 . S
C675 C679 1.393 . S
C676 H665 0.950 . S
C676 C674 1.391 . S
C676 C677 1.400 . S
C677 C671 1.491 . S
C677 C676 1.400 . S
C677 C678 1.398 . S
C678 H666 0.950 . S
C678 C677 1.398 . S
C678 C679 1.391 . S
C679 H667 0.950 . S
C679 C675 1.393 . S
C679 C678 1.391 . S
H680 C688 0.950 . S
H681 C693 0.950 . S
H682 C690 0.950 . S
H683 C692 0.950 . S
H684 C694 0.950 . S
H685 C696 0.950 . S
H686 C698 0.950 . S
H687 C699 0.950 . S
C688 H680 0.950 . S
C688 C689 1.386 . S
C688 C690 1.391 . S
C689 C688 1.386 . S
C689 C693 1.393 . S
C690 H682 0.950 . S
C690 C688 1.391 . S
C690 C691 1.400 . S
C691 C690 1.400 . S
C691 C692 1.398 . S
C691 C697 1.491 . S
C692 H683 0.950 . S
C692 C691 1.398 . S
C692 C693 1.391 . S
C693 H681 0.950 . S
C693 C689 1.393 . S
C693 C692 1.391 . S
C694 H684 0.950 . S
C694 C695 1.386 . S
C694 C696 1.391 . S
C695 C694 1.386 . S
C695 C699 1.393 . S
C696 H685 0.950 . S
C696 C694 1.391 . S
C696 C697 1.400 . S
C697 C691 1.491 . S
C697 C696 1.400 . S
C697 C698 1.398 . S
C698 H686 0.950 . S
C698 C697 1.398 . S
C698 C699 1.391 . S
C699 H687 0.950 . S
C699 C695 1.393 . S
C699 C698 1.391 . S
H700 C708 0.950 . S
H701 C713 0.950 . S
H702 C710 0.950 . S
H703 C712 0.950 . S
H704 C714 0.962 . S
H705 C716 0.950 . S
H706 C718 0.950 . S
H707 C719 0.950 . S
C708 H700 0.950 . S
C708 C709 1.386 . S
C708 C710 1.391 . S
C709 C708 1.386 . S
C709 C713 1.393 . S
C710 H702 0.950 . S
C710 C708 1.391 . S
C710 C711 1.400 . S
C711 C710 1.400 . S
C711 C712 1.398 . S
C711 C717 1.491 . S
C712 H703 0.950 . S
C712 C711 1.398 . S
C712 C713 1.391 . S
C713 H701 0.950 . S
C713 C709 1.393 . S
C713 C712 1.391 . S
C714 H704 0.962 . S
C714 C715 1.386 . S
C714 C716 1.391 . S
C715 C714 1.386 . S
C715 C719 1.393 . S
C716 H705 0.950 . S
C716 C714 1.391 . S
C716 C717 1.400 . S
C717 C711 1.491 . S
C717 C716 1.400 . S
C717 C718 1.398 . S
C718 H706 0.950 . S
C718 C717 1.398 . S
C718 C719 1.391 . S
C719 H707 0.950 . S
C719 C715 1.393 . S
C719 C718 1.391 . S
H720 C728 0.950 . S
H721 C733 0.950 . S
H722 C730 0.950 . S
H723 C732 0.950 . S
H724 C734 0.950 . S
H725 C736 0.950 . S
H726 C738 0.950 . S
H727 C739 0.950 1_655 S
C728 H720 0.950 . S
C728 C729 1.386 . S
C728 C730 1.391 . S
C729 C728 1.386 . S
C729 C733 1.393 . S
C730 H722 0.950 . S
C730 C728 1.391 . S
C730 C731 1.400 . S
C731 C730 1.400 . S
C731 C732 1.398 . S
C731 C737 1.491 . S
C732 H723 0.950 . S
C732 C731 1.398 . S
C732 C733 1.391 . S
C733 H721 0.950 . S
C733 C729 1.393 . S
C733 C732 1.391 . S
C734 H724 0.950 . S
C734 C735 1.386 . S
C734 C736 1.391 . S
C735 C734 1.386 . S
C735 C739 1.393 . S
C736 H725 0.950 . S
C736 C734 1.391 . S
C736 C737 1.400 . S
C737 C731 1.491 . S
C737 C736 1.400 . S
C737 C738 1.398 . S
C738 H726 0.950 . S
C738 C737 1.398 . S
C738 C739 1.391 . S
C739 H727 0.950 1_455 S
C739 C735 1.393 . S
C739 C738 1.391 . S
H740 C748 0.950 . S
H741 C753 0.950 . S
H742 C750 0.950 . S
H743 C752 0.950 . S
H744 C754 0.950 . S
H745 C756 0.950 . S
H746 C758 0.950 . S
H747 C759 0.950 . S
C748 H740 0.950 . S
C748 C749 1.386 1_565 S
C748 C750 1.391 . S
C749 C748 1.386 1_545 S
C749 C753 1.393 . S
C750 H742 0.950 . S
C750 C748 1.391 . S
C750 C751 1.400 . S
C751 C750 1.400 . S
C751 C752 1.398 1_565 S
C751 C757 1.491 . S
C752 H743 0.950 . S
C752 C751 1.398 1_545 S
C752 C753 1.391 . S
C753 H741 0.950 . S
C753 C749 1.393 . S
C753 C752 1.391 . S
C754 H744 0.950 . S
C754 C755 1.386 1_545 S
C754 C756 1.391 . S
C755 C754 1.386 1_565 S
C755 C759 1.393 . S
C756 H745 0.950 . S
C756 C754 1.391 . S
C756 C757 1.400 1_545 S
C757 C751 1.491 . S
C757 C756 1.400 1_565 S
C757 C758 1.398 . S
C758 H746 0.950 . S
C758 C757 1.398 . S
C758 C759 1.391 . S
C759 H747 0.950 . S
C759 C755 1.393 . S
C759 C758 1.391 . S
H760 C768 0.950 . S
H761 C773 0.950 . S
H762 C770 0.950 . S
H763 C772 0.950 . S
H764 C774 0.950 . S
H765 C776 0.950 . S
H766 C778 0.950 . S
H767 C779 0.950 . S
C768 H760 0.950 . S
C768 C769 1.386 . S
C768 C770 1.391 . S
C769 C768 1.386 . S
C769 C773 1.393 . S
C770 H762 0.950 . S
C770 C768 1.391 . S
C770 C771 1.400 . S
C771 C770 1.400 . S
C771 C772 1.398 . S
C771 C777 1.491 . S
C772 H763 0.950 . S
C772 C771 1.398 . S
C772 C773 1.391 . S
C773 H761 0.950 . S
C773 C769 1.393 . S
C773 C772 1.391 . S
C774 H764 0.950 . S
C774 C775 1.386 . S
C774 C776 1.391 . S
C775 C774 1.386 . S
C775 C779 1.393 . S
C776 H765 0.950 . S
C776 C774 1.391 . S
C776 C777 1.400 . S
C777 C771 1.491 . S
C777 C776 1.400 . S
C777 C778 1.398 . S
C778 H766 0.950 . S
C778 C777 1.398 . S
C778 C779 1.391 . S
C779 H767 0.950 . S
C779 C775 1.393 . S
C779 C778 1.391 . S
H780 C788 0.950 . S
H781 C793 0.950 . S
H782 C790 0.950 . S
H783 C792 0.950 . S
H784 C794 0.950 . S
H785 C796 0.950 . S
H786 C798 0.950 . S
H787 C799 0.950 . S
C788 H780 0.950 . S
C788 C789 1.386 . S
C788 C790 1.391 . S
C789 C788 1.386 . S
C789 C793 1.393 . S
C790 H782 0.950 . S
C790 C788 1.391 . S
C790 C791 1.400 . S
C791 C790 1.400 . S
C791 C792 1.398 . S
C791 C797 1.491 . S
C792 H783 0.950 . S
C792 C791 1.398 . S
C792 C793 1.391 . S
C793 H781 0.950 . S
C793 C789 1.393 . S
C793 C792 1.391 . S
C794 H784 0.950 . S
C794 C795 1.386 . S
C794 C796 1.391 . S
C795 C794 1.386 . S
C795 C799 1.393 . S
C796 H785 0.950 . S
C796 C794 1.391 . S
C796 C797 1.400 . S
C797 C791 1.491 . S
C797 C796 1.400 . S
C797 C798 1.398 . S
C798 H786 0.950 . S
C798 C797 1.398 . S
C798 C799 1.391 . S
C799 H787 0.950 . S
C799 C795 1.393 . S
C799 C798 1.391 . S
H800 C808 0.950 . S
H801 C813 0.950 . S
H802 C810 0.950 . S
H803 C812 0.950 . S
H804 C814 0.950 . S
H805 C816 0.950 . S
H806 C818 0.950 . S
H807 C819 0.950 . S
C808 H800 0.950 . S
C808 C809 1.386 . S
C808 C810 1.391 . S
C809 C808 1.386 . S
C809 C813 1.393 . S
C810 H802 0.950 . S
C810 C808 1.391 . S
C810 C811 1.400 . S
C811 C810 1.400 . S
C811 C812 1.398 . S
C811 C817 1.491 . S
C812 H803 0.950 . S
C812 C811 1.398 . S
C812 C813 1.391 . S
C813 H801 0.950 . S
C813 C809 1.393 . S
C813 C812 1.391 . S
C814 H804 0.950 . S
C814 C815 1.407 . S
C814 C816 1.391 . S
C815 C814 1.407 . S
C815 C819 1.385 1_655 S
C816 H805 0.950 . S
C816 C814 1.391 . S
C816 C817 1.400 . S
C817 C811 1.491 . S
C817 C816 1.400 . S
C817 C818 1.398 . S
C818 H806 0.950 . S
C818 C817 1.398 . S
C818 C819 1.391 1_655 S
C819 H807 0.950 . S
C819 C815 1.385 1_455 S
C819 C818 1.391 1_455 S
H820 C828 0.950 . S
H821 C833 0.950 . S
H822 C830 0.950 . S
H823 C832 0.950 . S
H824 C834 0.950 . S
H825 C836 0.950 . S
H826 C838 0.950 . S
H827 C839 0.950 . S
C828 H820 0.950 . S
C828 C829 1.386 1_545 S
C828 C830 1.391 . S
C829 C828 1.386 1_565 S
C829 C833 1.393 . S
C830 H822 0.950 . S
C830 C828 1.391 . S
C830 C831 1.400 . S
C831 C830 1.400 . S
C831 C832 1.398 1_545 S
C831 C837 1.491 . S
C832 H823 0.950 . S
C832 C831 1.398 1_565 S
C832 C833 1.391 . S
C833 H821 0.950 . S
C833 C829 1.393 . S
C833 C832 1.391 . S
C834 H824 0.950 . S
C834 C835 1.386 1_565 S
C834 C836 1.391 . S
C835 C834 1.386 1_545 S
C835 C839 1.393 . S
C836 H825 0.950 . S
C836 C834 1.391 . S
C836 C837 1.400 1_565 S
C837 C831 1.491 . S
C837 C836 1.400 1_545 S
C837 C838 1.398 . S
C838 H826 0.950 . S
C838 C837 1.398 . S
C838 C839 1.391 . S
C839 H827 0.950 . S
C839 C835 1.393 . S
C839 C838 1.391 . S
H840 C848 0.950 . S
H841 C853 0.950 . S
H842 C850 0.950 . S
H843 C852 0.950 . S
H844 C854 0.950 . S
H845 C856 0.950 . S
H846 C858 0.950 . S
H847 C859 0.950 . S
C848 H840 0.950 . S
C848 C849 1.386 . S
C848 C850 1.391 . S
C849 C848 1.386 . S
C849 C853 1.393 . S
C850 H842 0.950 . S
C850 C848 1.391 . S
C850 C851 1.400 . S
C851 C850 1.400 . S
C851 C852 1.398 . S
C851 C857 1.491 . S
C852 H843 0.950 . S
C852 C851 1.398 . S
C852 C853 1.391 . S
C853 H841 0.950 . S
C853 C849 1.393 . S
C853 C852 1.391 . S
C854 H844 0.950 . S
C854 C855 1.386 . S
C854 C856 1.391 . S
C855 C854 1.386 . S
C855 C859 1.393 . S
C856 H845 0.950 . S
C856 C854 1.391 . S
C856 C857 1.400 . S
C857 C851 1.491 . S
C857 C856 1.400 . S
C857 C858 1.398 . S
C858 H846 0.950 . S
C858 C857 1.398 . S
C858 C859 1.391 . S
C859 H847 0.950 . S
C859 C855 1.393 . S
C859 C858 1.391 . S
H860 C868 0.950 . S
H861 C873 0.950 . S
H862 C870 0.950 . S
H863 C872 0.950 . S
H864 C874 0.950 . S
H865 C876 0.950 . S
H866 C878 0.950 . S
H867 C879 0.950 . S
C868 H860 0.950 . S
C868 C869 1.386 . S
C868 C870 1.391 . S
C869 C868 1.386 . S
C869 C873 1.393 . S
C870 H862 0.950 . S
C870 C868 1.391 . S
C870 C871 1.400 . S
C871 C870 1.400 . S
C871 C872 1.398 . S
C871 C877 1.491 . S
C872 H863 0.950 . S
C872 C871 1.398 . S
C872 C873 1.391 . S
C873 H861 0.950 . S
C873 C869 1.393 . S
C873 C872 1.391 . S
C874 H864 0.950 . S
C874 C875 1.386 . S
C874 C876 1.391 . S
C875 C874 1.386 . S
C875 C879 1.393 . S
C876 H865 0.950 . S
C876 C874 1.391 . S
C876 C877 1.400 . S
C877 C871 1.491 . S
C877 C876 1.400 . S
C877 C878 1.398 . S
C878 H866 0.950 . S
C878 C877 1.398 . S
C878 C879 1.391 . S
C879 H867 0.950 . S
C879 C875 1.393 . S
C879 C878 1.391 . S
H880 C888 0.950 . S
H881 C893 0.950 . S
H882 C890 0.950 . S
H883 C892 0.950 . S
H884 C894 0.950 . S
H885 C896 0.950 . S
H886 C898 0.950 . S
H887 C899 0.950 . S
C888 H880 0.950 . S
C888 C889 1.386 . S
C888 C890 1.391 . S
C889 C888 1.386 . S
C889 C893 1.393 . S
C890 H882 0.950 . S
C890 C888 1.391 . S
C890 C891 1.400 . S
C891 C890 1.400 . S
C891 C892 1.398 . S
C891 C897 1.491 . S
C892 H883 0.950 . S
C892 C891 1.398 . S
C892 C893 1.391 . S
C893 H881 0.950 . S
C893 C889 1.393 . S
C893 C892 1.391 . S
C894 H884 0.950 . S
C894 C895 1.386 . S
C894 C896 1.391 . S
C895 C894 1.386 . S
C895 C899 1.393 . S
C896 H885 0.950 . S
C896 C894 1.391 . S
C896 C897 1.400 . S
C897 C891 1.491 . S
C897 C896 1.400 . S
C897 C898 1.398 . S
C898 H886 0.950 . S
C898 C897 1.398 . S
C898 C899 1.391 . S
C899 H887 0.950 . S
C899 C895 1.393 . S
C899 C898 1.391 . S
H900 C908 0.950 . S
H901 C913 0.950 . S
H902 C910 0.950 . S
H903 C912 0.950 . S
H904 C914 0.950 . S
H905 C916 0.950 . S
H906 C918 0.950 . S
H907 C919 0.950 . S
C908 H900 0.950 . S
C908 C909 1.380 1_565 S
C908 C910 1.391 . S
C909 C908 1.380 1_545 S
C909 C913 1.398 . S
C910 H902 0.950 . S
C910 C908 1.391 . S
C910 C911 1.400 1_565 S
C911 C910 1.400 1_545 S
C911 C912 1.398 . S
C911 C917 1.491 . S
C912 H903 0.950 . S
C912 C911 1.398 . S
C912 C913 1.391 . S
C913 H901 0.950 . S
C913 C909 1.398 . S
C913 C912 1.391 . S
C914 H904 0.950 . S
C914 C915 1.386 . S
C914 C916 1.391 . S
C915 C914 1.386 . S
C915 C919 1.393 1_545 S
C916 H905 0.950 . S
C916 C914 1.391 . S
C916 C917 1.400 . S
C917 C911 1.491 . S
C917 C916 1.400 . S
C917 C918 1.398 1_545 S
C918 H906 0.950 . S
C918 C917 1.398 1_565 S
C918 C919 1.391 . S
C919 H907 0.950 . S
C919 C915 1.393 1_565 S
C919 C918 1.391 . S
H920 C928 0.950 . S
H921 C933 0.950 . S
H922 C930 0.950 . S
H923 C932 0.950 . S
H924 C934 0.950 . S
H925 C936 0.950 . S
H926 C938 0.950 . S
H927 C939 0.950 . S
C928 H920 0.950 . S
C928 C929 1.386 . S
C928 C930 1.391 . S
C929 C928 1.386 . S
C929 C933 1.393 . S
C930 H922 0.950 . S
C930 C928 1.391 . S
C930 C931 1.400 . S
C931 C930 1.400 . S
C931 C932 1.398 . S
C931 C937 1.491 . S
C932 H923 0.950 . S
C932 C931 1.398 . S
C932 C933 1.391 . S
C933 H921 0.950 . S
C933 C929 1.393 . S
C933 C932 1.391 . S
C934 H924 0.950 . S
C934 C935 1.386 . S
C934 C936 1.391 . S
C935 C934 1.386 . S
C935 C939 1.393 . S
C936 H925 0.950 . S
C936 C934 1.391 . S
C936 C937 1.400 . S
C937 C931 1.491 . S
C937 C936 1.400 . S
C937 C938 1.398 . S
C938 H926 0.950 . S
C938 C937 1.398 . S
C938 C939 1.391 . S
C939 H927 0.950 . S
C939 C935 1.393 . S
C939 C938 1.391 . S
H940 C948 0.950 . S
H941 C953 0.950 . S
H942 C950 0.950 . S
H943 C952 0.950 . S
H944 C954 0.950 . S
H945 C956 0.950 . S
H946 C958 0.950 . S
H947 C959 0.950 . S
C948 H940 0.950 . S
C948 C949 1.386 . S
C948 C950 1.391 . S
C949 C948 1.386 . S
C949 C953 1.393 . S
C950 H942 0.950 . S
C950 C948 1.391 . S
C950 C951 1.400 . S
C951 C950 1.400 . S
C951 C952 1.398 . S
C951 C957 1.491 . S
C952 H943 0.950 . S
C952 C951 1.398 . S
C952 C953 1.391 . S
C953 H941 0.950 . S
C953 C949 1.393 . S
C953 C952 1.391 . S
C954 H944 0.950 . S
C954 C955 1.386 . S
C954 C956 1.391 . S
C955 C954 1.386 . S
C955 C959 1.393 . S
C956 H945 0.950 . S
C956 C954 1.391 . S
C956 C957 1.400 . S
C957 C951 1.491 . S
C957 C956 1.400 . S
C957 C958 1.398 . S
C958 H946 0.950 . S
C958 C957 1.398 . S
C958 C959 1.391 . S
C959 H947 0.950 . S
C959 C955 1.393 . S
C959 C958 1.391 . S
H960 C968 0.950 . S
H961 C973 0.950 . S
H962 C970 0.950 . S
H963 C972 0.950 . S
H964 C974 0.950 . S
H965 C976 0.950 . S
H966 C978 0.950 . S
H967 C979 0.974 . S
C968 H960 0.950 . S
C968 C969 1.386 . S
C968 C970 1.391 . S
C969 C968 1.386 . S
C969 C973 1.393 . S
C970 H962 0.950 . S
C970 C968 1.391 . S
C970 C971 1.400 . S
C971 C970 1.400 . S
C971 C972 1.398 . S
C971 C977 1.491 . S
C972 H963 0.950 . S
C972 C971 1.398 . S
C972 C973 1.391 . S
C973 H961 0.950 . S
C973 C969 1.393 . S
C973 C972 1.391 . S
C974 H964 0.950 . S
C974 C975 1.386 . S
C974 C976 1.391 . S
C975 C974 1.386 . S
C975 C979 1.393 . S
C976 H965 0.950 . S
C976 C974 1.391 . S
C976 C977 1.400 . S
C977 C971 1.491 . S
C977 C976 1.400 . S
C977 C978 1.398 . S
C978 H966 0.950 . S
C978 C977 1.398 . S
C978 C979 1.391 . S
C979 H967 0.974 . S
C979 C975 1.393 . S
C979 C978 1.391 . S
H980 C988 0.950 . S
H981 C993 0.950 . S
H982 C990 0.950 . S
H983 C992 0.950 . S
H984 C994 0.950 . S
H985 C996 0.950 . S
H986 C998 0.950 . S
H987 C999 0.950 . S
C988 H980 0.950 . S
C988 C989 1.385 . S
C988 C990 1.391 . S
C989 C988 1.385 . S
C989 C993 1.393 1_545 S
C990 H982 0.950 . S
C990 C988 1.391 . S
C990 C991 1.400 1_545 S
C991 C990 1.400 1_565 S
C991 C992 1.398 . S
C991 C997 1.491 . S
C992 H983 0.950 . S
C992 C991 1.398 . S
C992 C993 1.391 . S
C993 H981 0.950 . S
C993 C989 1.393 1_565 S
C993 C992 1.391 . S
C994 H984 0.950 . S
C994 C995 1.386 . S
C994 C996 1.391 . S
C995 C994 1.386 . S
C995 C999 1.393 1_565 S
C996 H985 0.950 . S
C996 C994 1.391 . S
C996 C997 1.400 . S
C997 C991 1.491 . S
C997 C996 1.400 . S
C997 C998 1.398 1_565 S
C998 H986 0.950 . S
C998 C997 1.398 1_545 S
C998 C999 1.391 . S
C999 H987 0.950 . S
C999 C995 1.393 1_545 S
C999 C998 1.391 . S
H1000 C1008 0.950 . S
H1001 C1013 0.950 . S
H1002 C1010 0.950 . S
H1003 C1012 0.950 . S
H1004 C1014 0.950 . S
H1005 C1016 0.950 . S
H1006 C1018 0.950 . S
H1007 C1019 0.950 . S
C1008 H1000 0.950 . S
C1008 C1009 1.386 . S
C1008 C1010 1.391 . S
C1009 C1008 1.386 . S
C1009 C1013 1.393 . S
C1010 H1002 0.950 . S
C1010 C1008 1.391 . S
C1010 C1011 1.400 . S
C1011 C1010 1.400 . S
C1011 C1012 1.398 . S
C1011 C1017 1.491 . S
C1012 H1003 0.950 . S
C1012 C1011 1.398 . S
C1012 C1013 1.391 . S
C1013 H1001 0.950 . S
C1013 C1009 1.393 . S
C1013 C1012 1.391 . S
C1014 H1004 0.950 . S
C1014 C1015 1.386 . S
C1014 C1016 1.391 . S
C1015 C1014 1.386 . S
C1015 C1019 1.393 . S
C1016 H1005 0.950 . S
C1016 C1014 1.391 . S
C1016 C1017 1.400 . S
C1017 C1011 1.491 . S
C1017 C1016 1.400 . S
C1017 C1018 1.398 . S
C1018 H1006 0.950 . S
C1018 C1017 1.398 . S
C1018 C1019 1.391 . S
C1019 H1007 0.950 . S
C1019 C1015 1.393 . S
C1019 C1018 1.391 . S
H1020 C1028 0.950 . S
H1021 C1033 0.950 . S
H1022 C1030 0.950 . S
H1023 C1032 0.950 . S
H1024 C1034 0.950 . S
H1025 C1036 0.950 . S
H1026 C1038 0.950 . S
H1027 C1039 0.950 . S
C1028 H1020 0.950 . S
C1028 C1029 1.386 . S
C1028 C1030 1.391 . S
C1029 C1028 1.386 . S
C1029 C1033 1.393 . S
C1030 H1022 0.950 . S
C1030 C1028 1.391 . S
C1030 C1031 1.400 . S
C1031 C1030 1.400 . S
C1031 C1032 1.398 . S
C1031 C1037 1.491 . S
C1032 H1023 0.950 . S
C1032 C1031 1.398 . S
C1032 C1033 1.391 . S
C1033 H1021 0.950 . S
C1033 C1029 1.393 . S
C1033 C1032 1.391 . S
C1034 H1024 0.950 . S
C1034 C1035 1.386 . S
C1034 C1036 1.391 . S
C1035 C1034 1.386 . S
C1035 C1039 1.393 . S
C1036 H1025 0.950 . S
C1036 C1034 1.391 . S
C1036 C1037 1.400 . S
C1037 C1031 1.491 . S
C1037 C1036 1.400 . S
C1037 C1038 1.398 . S
C1038 H1026 0.950 . S
C1038 C1037 1.398 . S
C1038 C1039 1.391 . S
C1039 H1027 0.950 . S
C1039 C1035 1.393 . S
C1039 C1038 1.391 . S
C569 C391 1.760 1_565 S
C575 C488 1.785 . S
C595 C518 2.404 . S
C589 C451 2.396 . S
C615 C528 1.875 . S
C609 C241 1.716 . S
C635 C548 1.761 . S
C629 C331 1.516 . S
C655 C489 1.782 . S
C649 C121 1.606 . S
C669 C211 2.308 1_556 S
C675 C519 2.397 . S
C689 C31 1.876 . S
C695 C529 1.875 . S
C709 C91 1.560 . S
C715 C549 1.760 . S
C735 C481 0.805 . S
C729 C301 0.775 . S
C755 C502 0.254 . S
C749 C380 0.158 . S
C775 C521 1.088 . S
C769 C440 1.071 . S
C789 C260 0.618 . S
C795 C541 0.531 . S
C809 C61 0.808 . S
C815 C482 0.793 1_655 S
C835 C501 0.320 . S
C829 C140 0.602 . S
C855 C522 1.074 . S
C849 C200 1.017 . S
C869 C20 0.523 . S
C875 C542 0.545 . S
C889 C320 2.339 . S
C895 C499 2.481 . S
C909 C361 1.631 . S
C915 C509 2.004 . S
C935 C539 2.677 . S
C929 C421 2.276 . S
C955 C559 2.545 . S
C949 C271 2.488 . S
C969 C80 2.392 . S
C975 C498 2.485 . S
C995 C508 1.999 . S
C989 C151 1.884 1_545 S
C1015 C538 2.674 . S
C1009 C181 2.212 . S
C1029 C1 2.201 . S
C1035 C558 2.542 . S
