# Generated by pormake.
# Topology dag, (6,3)-cn, num edge types: 1
# Building blocks:
#     Node 0, Type 0, BuildingBlock: IZENUY_clean_sbu_0, # of connection points: 6
#     Node 1, Type 0, BuildingBlock: IZENUY_clean_sbu_0, # of connection points: 6
#     Node 2, Type 0, BuildingBlock: IZENUY_clean_sbu_0, # of connection points: 6
#     Node 3, Type 0, BuildingBlock: IZENUY_clean_sbu_0, # of connection points: 6
#     Node 4, Type 1, BuildingBlock: BETDAH_clean_linker_0, # of connection points: 3
#     Node 5, Type 1, BuildingBlock: BETDAH_clean_linker_0, # of connection points: 3
#     Node 6, Type 1, BuildingBlock: BETDAH_clean_linker_0, # of connection points: 3
#     Node 7, Type 1, BuildingBlock: BETDAH_clean_linker_0, # of connection points: 3
#     Node 8, Type 1, BuildingBlock: BETDAH_clean_linker_0, # of connection points: 3
#     Node 9, Type 1, BuildingBlock: BETDAH_clean_linker_0, # of connection points: 3
#     Node 10, Type 1, BuildingBlock: BETDAH_clean_linker_0, # of connection points: 3
#     Node 11, Type 1, BuildingBlock: BETDAH_clean_linker_0, # of connection points: 3
#     Edge 12, Type (0, 1), BuildingBlock: AJUNOK_clean_linker_0, # of connection points: 2
#     Edge 13, Type (0, 1), BuildingBlock: AJUNOK_clean_linker_0, # of connection points: 2
#     Edge 14, Type (0, 1), BuildingBlock: AJUNOK_clean_linker_0, # of connection points: 2
#     Edge 15, Type (0, 1), BuildingBlock: AJUNOK_clean_linker_0, # of connection points: 2
#     Edge 16, Type (0, 1), BuildingBlock: AJUNOK_clean_linker_0, # of connection points: 2
#     Edge 17, Type (0, 1), BuildingBlock: AJUNOK_clean_linker_0, # of connection points: 2
#     Edge 18, Type (0, 1), BuildingBlock: AJUNOK_clean_linker_0, # of connection points: 2
#     Edge 19, Type (0, 1), BuildingBlock: AJUNOK_clean_linker_0, # of connection points: 2
#     Edge 20, Type (0, 1), BuildingBlock: AJUNOK_clean_linker_0, # of connection points: 2
#     Edge 21, Type (0, 1), BuildingBlock: AJUNOK_clean_linker_0, # of connection points: 2
#     Edge 22, Type (0, 1), BuildingBlock: AJUNOK_clean_linker_0, # of connection points: 2
#     Edge 23, Type (0, 1), BuildingBlock: AJUNOK_clean_linker_0, # of connection points: 2
#     Edge 24, Type (0, 1), BuildingBlock: AJUNOK_clean_linker_0, # of connection points: 2
#     Edge 25, Type (0, 1), BuildingBlock: AJUNOK_clean_linker_0, # of connection points: 2
#     Edge 26, Type (0, 1), BuildingBlock: AJUNOK_clean_linker_0, # of connection points: 2
#     Edge 27, Type (0, 1), BuildingBlock: AJUNOK_clean_linker_0, # of connection points: 2
#     Edge 28, Type (0, 1), BuildingBlock: AJUNOK_clean_linker_0, # of connection points: 2
#     Edge 29, Type (0, 1), BuildingBlock: AJUNOK_clean_linker_0, # of connection points: 2
#     Edge 30, Type (0, 1), BuildingBlock: AJUNOK_clean_linker_0, # of connection points: 2
#     Edge 31, Type (0, 1), BuildingBlock: AJUNOK_clean_linker_0, # of connection points: 2
#     Edge 32, Type (0, 1), BuildingBlock: AJUNOK_clean_linker_0, # of connection points: 2
#     Edge 33, Type (0, 1), BuildingBlock: AJUNOK_clean_linker_0, # of connection points: 2
#     Edge 34, Type (0, 1), BuildingBlock: AJUNOK_clean_linker_0, # of connection points: 2
#     Edge 35, Type (0, 1), BuildingBlock: AJUNOK_clean_linker_0, # of connection points: 2
# Relax obj value: 0.092
# Max RMSD: 0.108
# Mean RMSD: 0.094
data_MOF--net-dag--node1-IZENUY_clean_sbu_0--node2-BETDAH_clean_linker_0--edge1-AJUNOK_clean_linker_0
_symmetry_space_group_name_H-M    P1
_symmetry_Int_Tables_number       1
_symmetry_cell_setting            triclinic
loop_
_symmetry_equiv_pos_as_xyz
'x, y, z'
_cell_length_a     28.481865
_cell_length_b     30.381378
_cell_length_c     26.310069
_cell_angle_alpha  93.737785
_cell_angle_beta   90.415545
_cell_angle_gamma 89.920753
loop_
_atom_site_label
_atom_site_type_symbol
_atom_site_fract_x
_atom_site_fract_y
_atom_site_fract_z
_atom_type_partial_charge
Fe0 Fe 0.1895 0.85143 0.06378 0.0
Fe1 Fe 0.0889 0.87481 0.03475 0.0
O2 O 0.13156 0.83475 0.04703 0.0
Fe3 Fe 0.11565 0.77813 0.04257 0.0
O4 O 0.1565 0.76251 0.09303 0.0
O5 O 0.18612 0.82558 0.12359 0.0
O6 O 0.17147 0.9031 0.09895 0.0
C7 C 0.13219 0.91577 0.11705 0.0
C8 C 0.20218 0.77447 0.99745 0.0
O9 O 0.09427 0.9 0.09871 0.0
C10 C 0.06753 0.81327 0.95903 0.0
O11 O 0.19734 0.87944 0.00499 0.0
O12 O 0.12991 0.91419 0.0107 0.0
O13 O 0.15893 0.76563 0.99329 0.0
O14 O 0.21713 0.80255 0.03162 0.0
C15 C 0.03819 0.81446 0.08911 0.0
O16 O 0.08188 0.85193 0.9701 0.0
O17 O 0.07177 0.78383 0.99096 0.0
C18 C 0.17052 0.91001 0.99236 0.0
O19 O 0.03915 0.84346 0.05695 0.0
O20 O 0.07135 0.78717 0.09214 0.0
C21 C 0.17654 0.78568 0.12871 0.0
Fe22 Fe 0.70351 0.64157 0.47423 0.0
Fe23 Fe 0.61878 0.70433 0.49007 0.0
O24 O 0.64205 0.65012 0.48137 0.0
Fe25 Fe 0.60411 0.60424 0.48025 0.0
O26 O 0.64645 0.56782 0.50948 0.0
O27 O 0.70685 0.61033 0.5309 0.0
O28 O 0.72069 0.69063 0.51514 0.0
C29 C 0.69805 0.71223 0.5498 0.0
C30 C 0.6638 0.57549 0.40502 0.0
O31 O 0.65397 0.71534 0.54703 0.0
C32 C 0.55158 0.66661 0.42699 0.0
O33 O 0.70397 0.67218 0.41727 0.0
O34 O 0.66288 0.72864 0.44952 0.0
O35 O 0.6222 0.58624 0.41627 0.0
O36 O 0.69774 0.59048 0.43244 0.0
C37 C 0.56563 0.65604 0.55802 0.0
O38 O 0.58101 0.69742 0.43402 0.0
O39 O 0.55456 0.63214 0.45131 0.0
C40 C 0.68935 0.71128 0.41511 0.0
O41 O 0.57058 0.68932 0.53198 0.0
O42 O 0.58381 0.61941 0.54417 0.0
C43 C 0.68214 0.57672 0.5371 0.0
Fe44 Fe 0.89913 0.22118 0.00469 0.0
Fe45 Fe 0.92073 0.12269 0.00724 0.0
O46 O 0.8797 0.16544 0.99998 0.0
Fe47 Fe 0.81953 0.15262 0.98898 0.0
O48 O 0.81916 0.1802 0.92965 0.0
O49 O 0.85508 0.24038 0.95977 0.0
O50 O 0.93878 0.21166 0.95084 0.0
C51 C 0.97 0.18207 0.94925 0.0
C52 C 0.81768 0.22681 0.05988 0.0
O53 O 0.96953 0.15159 0.97964 0.0
C54 C 0.84186 0.09282 0.05906 0.0
O55 O 0.94664 0.21243 0.05109 0.0
O56 O 0.93518 0.1444 0.07127 0.0
O57 O 0.79783 0.20209 0.02547 0.0
O58 O 0.86129 0.23387 0.05873 0.0
C59 C 0.86762 0.08487 0.92946 0.0
O60 O 0.8801 0.08576 0.03617 0.0
O61 O 0.81492 0.1237 0.0475 0.0
C62 C 0.95005 0.18286 0.08268 0.0
O63 O 0.90799 0.09795 0.94388 0.0
O64 O 0.83111 0.10073 0.9511 0.0
C65 C 0.8302 0.22005 0.92573 0.0
Fe66 Fe 0.40019 0.39904 0.56239 0.0
Fe67 Fe 0.29942 0.36495 0.56991 0.0
O68 O 0.36043 0.35464 0.56162 0.0
Fe69 Fe 0.38226 0.30017 0.55203 0.0
O70 O 0.43873 0.31209 0.5854 0.0
O71 O 0.43031 0.38004 0.61776 0.0
O72 O 0.36586 0.43561 0.60551 0.0
C73 C 0.33521 0.42776 0.63805 0.0
C74 C 0.43721 0.34042 0.48534 0.0
O75 O 0.30846 0.39482 0.63165 0.0
C76 C 0.29771 0.29796 0.49431 0.0
O77 O 0.37208 0.4198 0.50713 0.0
O78 O 0.29987 0.41653 0.53619 0.0
O79 O 0.40689 0.31093 0.49037 0.0
O80 O 0.44254 0.37139 0.51921 0.0
C81 C 0.31746 0.2898 0.62651 0.0
O82 O 0.2855 0.33661 0.50883 0.0
O83 O 0.32993 0.27842 0.51752 0.0
C84 C 0.32925 0.43016 0.50466 0.0
O85 O 0.289 0.31502 0.60489 0.0
O86 O 0.35948 0.28599 0.61229 0.0
C87 C 0.4509 0.34318 0.61746 0.0
H88 H 0.055 0.09588 0.2088 0.0
H89 H 0.20236 0.09281 0.24239 0.0
H90 H 0.12726 0.21562 0.25791 0.0
C91 C 0.08641 0.11265 0.22329 0.0
C92 C 0.08575 0.15857 0.23274 0.0
C93 C 0.12854 0.08903 0.22361 0.0
C94 C 0.16928 0.11048 0.24229 0.0
C95 C 0.16822 0.15554 0.25813 0.0
C96 C 0.12672 0.18003 0.25161 0.0
N97 N 0.21109 0.17662 0.27239 0.0
C98 C 0.21734 0.20315 0.317 0.0
H99 H 0.40129 0.58286 0.66761 0.0
H100 H 0.44317 0.69343 0.76723 0.0
H101 H 0.33354 0.60683 0.81265 0.0
C102 C 0.39638 0.60332 0.70256 0.0
C103 C 0.36378 0.59072 0.73861 0.0
C104 C 0.42509 0.64014 0.71265 0.0
C105 C 0.42043 0.66526 0.75882 0.0
C106 C 0.38638 0.65455 0.79422 0.0
C107 C 0.35815 0.61677 0.78437 0.0
N108 N 0.38405 0.68086 0.84064 0.0
C109 C 0.34346 0.68931 0.86861 0.0
H110 H 0.89297 0.92472 0.14251 0.0
H111 H 0.82683 0.81376 0.20567 0.0
H112 H 0.74775 0.93246 0.18586 0.0
C113 C 0.86239 0.9103 0.15928 0.0
C114 C 0.82026 0.93433 0.16279 0.0
C115 C 0.86514 0.867 0.17467 0.0
C116 C 0.82518 0.84747 0.19462 0.0
C117 C 0.78277 0.8714 0.1988 0.0
C118 C 0.78052 0.91439 0.18243 0.0
N119 N 0.7411 0.8528 0.21724 0.0
C120 C 0.73997 0.82171 0.25365 0.0
H121 H 0.61922 0.43077 0.64957 0.0
H122 H 0.6717 0.31409 0.71493 0.0
H123 H 0.76765 0.41394 0.6705 0.0
C124 C 0.64843 0.41213 0.66394 0.0
C125 C 0.69419 0.42798 0.65889 0.0
C126 C 0.63982 0.37117 0.68368 0.0
C127 C 0.67787 0.34613 0.70044 0.0
C128 C 0.72413 0.36191 0.69606 0.0
C129 C 0.73198 0.40237 0.67457 0.0
N130 N 0.76371 0.33653 0.70926 0.0
C131 C 0.76634 0.3118 0.75186 0.0
H132 H 0.58185 0.4173 0.35924 0.0
H133 H 0.70867 0.37482 0.28251 0.0
H134 H 0.60945 0.27923 0.3302 0.0
C135 C 0.60326 0.39113 0.34139 0.0
C136 C 0.58982 0.34726 0.34528 0.0
C137 C 0.64624 0.40143 0.31929 0.0
C138 C 0.67491 0.36721 0.29848 0.0
C139 C 0.66084 0.32296 0.30124 0.0
C140 C 0.61892 0.3133 0.32567 0.0
N141 N 0.68993 0.28735 0.28401 0.0
C142 C 0.71519 0.28639 0.23908 0.0
H143 H 0.12008 0.07979 0.91315 0.0
H144 H 0.1803 0.1817 0.82825 0.0
H145 H 0.26241 0.06749 0.86137 0.0
C146 C 0.14943 0.09249 0.89249 0.0
C147 C 0.19151 0.06857 0.88921 0.0
C148 C 0.1451 0.13308 0.87034 0.0
C149 C 0.18334 0.14995 0.84447 0.0
C150 C 0.22573 0.12593 0.84094 0.0
C151 C 0.22949 0.08546 0.86337 0.0
N152 N 0.26608 0.14196 0.81708 0.0
C153 C 0.26601 0.17451 0.78246 0.0
H154 H 0.38676 0.58795 0.40411 0.0
H155 H 0.32643 0.70457 0.34608 0.0
H156 H 0.23707 0.59937 0.39058 0.0
C157 C 0.35612 0.6061 0.39235 0.0
C158 C 0.31148 0.58794 0.39774 0.0
C159 C 0.362 0.64789 0.37375 0.0
C160 C 0.32227 0.67207 0.3601 0.0
C161 C 0.27701 0.65424 0.36594 0.0
C162 C 0.2719 0.61273 0.38575 0.0
N163 N 0.23587 0.67773 0.35383 0.0
C164 C 0.23136 0.70123 0.31053 0.0
H165 H 0.94019 0.90908 0.85395 0.0
H166 H 0.88222 0.78475 0.79734 0.0
H167 H 0.80115 0.90333 0.78911 0.0
C168 C 0.91256 0.89069 0.83352 0.0
C169 C 0.87086 0.91241 0.82138 0.0
C170 C 0.91731 0.84481 0.82484 0.0
C171 C 0.87998 0.82039 0.8021 0.0
C172 C 0.83835 0.84169 0.78863 0.0
C173 C 0.83405 0.88755 0.798 0.0
N174 N 0.79765 0.81647 0.77629 0.0
C175 C 0.78687 0.79923 0.72742 0.0
C176 C 0.15307 0.96658 0.19286 0.0
C177 C 0.13002 0.95885 0.1457 0.0
C178 C 0.1528 0.00883 0.2183 0.0
C179 C 0.13039 0.04454 0.19659 0.0
H180 H 0.17098 0.93983 0.21023 0.0
H181 H 0.16987 0.01351 0.25517 0.0
S182 S 0.07181 0.04198 0.0696 0.0
N183 N 0.08732 0.99039 0.07664 0.0
N184 N 0.08979 0.06994 0.12198 0.0
C185 C 0.10929 0.03721 0.14813 0.0
C186 C 0.10829 0.99429 0.12334 0.0
C187 C 0.48428 0.66783 0.59024 0.0
C188 C 0.53153 0.65753 0.59985 0.0
C189 C 0.44998 0.66353 0.62765 0.0
C190 C 0.46216 0.64984 0.67604 0.0
H191 H 0.4735 0.67728 0.55289 0.0
H192 H 0.41359 0.66992 0.61835 0.0
S193 S 0.58147 0.6221 0.72095 0.0
N194 N 0.58904 0.63513 0.66156 0.0
N195 N 0.52472 0.62785 0.73224 0.0
C196 C 0.50952 0.64128 0.68669 0.0
C197 C 0.54422 0.64491 0.64841 0.0
C198 C 0.86045 0.04811 0.13155 0.0
C199 C 0.82767 0.05998 0.09471 0.0
C200 C 0.85573 0.00895 0.15618 0.0
C201 C 0.81851 0.97958 0.14413 0.0
H202 H 0.89159 0.06799 0.13916 0.0
H203 H 0.88289 1.00045 0.1829 0.0
S204 S 0.72142 0.9973 0.05272 0.0
N205 N 0.75489 0.04144 0.04997 0.0
N206 N 0.7464 0.96682 0.09512 0.0
C207 C 0.78375 0.99251 0.10968 0.0
C208 C 0.7883 0.03295 0.08513 0.0
C209 C 0.50794 0.37431 0.68297 0.0
C210 C 0.49658 0.34103 0.64509 0.0
C211 C 0.55427 0.38073 0.70011 0.0
C212 C 0.59105 0.35407 0.68018 0.0
H213 H 0.48146 0.39762 0.69693 0.0
H214 H 0.56198 0.409 0.72607 0.0
S215 S 0.57936 0.258 0.5868 0.0
N216 N 0.52535 0.27721 0.59353 0.0
N217 N 0.61249 0.29 0.62539 0.0
C218 C 0.57963 0.31796 0.64637 0.0
C219 C 0.53233 0.31123 0.62891 0.0
C220 C 0.7006 0.5017 0.3861 0.0
C221 C 0.67054 0.53532 0.3708 0.0
C222 C 0.69657 0.45835 0.36451 0.0
C223 C 0.66284 0.44752 0.3265 0.0
H224 H 0.7242 0.50786 0.41816 0.0
H225 H 0.71678 0.43254 0.381 0.0
S226 S 0.58548 0.5255 0.2635 0.0
N227 N 0.61276 0.55642 0.30851 0.0
N228 N 0.60559 0.47489 0.26777 0.0
C229 C 0.6369 0.48175 0.30664 0.0
C230 C 0.64067 0.52573 0.32881 0.0
C231 C 0.05319 0.20229 0.93887 0.0
C232 C 0.01161 0.18454 0.91696 0.0
C233 C 0.09727 0.18932 0.9195 0.0
C234 C 0.10087 0.15799 0.87798 0.0
H235 H 0.0518 0.22283 0.97408 0.0
H236 H 0.12858 0.20056 0.94005 0.0
S237 S 0.00248 0.10607 0.80368 0.0
N238 N 0.97668 0.13784 0.84862 0.0
N239 N 0.05954 0.11318 0.81245 0.0
C240 C 0.05958 0.14311 0.85314 0.0
C241 C 0.01483 0.15649 0.87263 0.0
C242 C 0.28548 0.49938 0.48844 0.0
C243 C 0.31632 0.46546 0.47121 0.0
C244 C 0.28122 0.53809 0.46232 0.0
C245 C 0.30745 0.54378 0.41812 0.0
H246 H 0.26714 0.49741 0.52415 0.0
H247 H 0.25978 0.56481 0.47866 0.0
S248 S 0.38574 0.46109 0.35232 0.0
N249 N 0.3683 0.43748 0.40372 0.0
N250 N 0.35968 0.50975 0.35427 0.0
C251 C 0.33497 0.50839 0.39817 0.0
C252 C 0.33958 0.46933 0.42483 0.0
C253 C 0.0408 0.83285 0.87329 0.0
C254 C 0.03432 0.80755 0.9156 0.0
C255 C 0.00367 0.84048 0.8398 0.0
C256 C 0.95861 0.82339 0.84767 0.0
H257 H 0.07375 0.84982 0.86839 0.0
H258 H 0.00917 0.8631 0.81022 0.0
S259 S 0.92522 0.74956 0.94823 0.0
N260 N 0.98125 0.7605 0.95952 0.0
N261 N 0.9111 0.77564 0.89714 0.0
C262 C 0.95298 0.79422 0.88656 0.0
C263 C 0.99101 0.78609 0.92046 0.0
C264 C 0.9016 0.03098 0.86332 0.0
C265 C 0.86362 0.04448 0.8945 0.0
C266 C 0.90197 0.98955 0.83644 0.0
C267 C 0.86471 0.95949 0.84025 0.0
H268 H 0.93217 0.05187 0.8612 0.0
H269 H 0.93277 0.98014 0.81436 0.0
S270 S 0.75567 0.97948 0.91479 0.0
N271 N 0.78615 0.0254 0.92486 0.0
N272 N 0.78781 0.94704 0.8762 0.0
C273 C 0.82543 0.97342 0.86924 0.0
C274 C 0.82469 0.01594 0.89596 0.0
C275 C 0.52106 0.33157 0.46402 0.0
C276 C 0.47425 0.33389 0.44714 0.0
C277 C 0.55827 0.33309 0.42986 0.0
C278 C 0.54983 0.33768 0.37788 0.0
H279 H 0.52897 0.33024 0.50425 0.0
H280 H 0.59392 0.33288 0.44452 0.0
S281 S 0.43376 0.34377 0.31441 0.0
N282 N 0.42126 0.33904 0.37508 0.0
N283 N 0.4917 0.34315 0.31061 0.0
C284 C 0.50326 0.33861 0.36015 0.0
C285 C 0.46523 0.33632 0.39494 0.0
C286 C 0.18632 0.98968 0.99381 0.0
C287 C 0.18877 0.94811 0.9671 0.0
C288 C 0.18962 0.02856 0.96848 0.0
C289 C 0.19593 0.02724 0.91556 0.0
H290 H 0.17904 0.99211 0.03426 0.0
H291 H 0.18522 0.05987 0.9901 0.0
S292 S 0.2082 0.92688 0.8288 0.0
N293 N 0.20048 0.90776 0.88556 0.0
N294 N 0.2078 0.98126 0.83761 0.0
C295 C 0.20161 0.986 0.88881 0.0
C296 C 0.1978 0.94622 0.91472 0.0
C297 C 0.4731 0.70218 0.42275 0.0
C298 C 0.50709 0.67383 0.3998 0.0
C299 C 0.42534 0.69785 0.40922 0.0
C300 C 0.4105 0.66525 0.37217 0.0
H301 H 0.48272 0.72459 0.45485 0.0
H302 H 0.39961 0.71686 0.43146 0.0
S303 S 0.48657 0.58849 0.29522 0.0
N304 N 0.52332 0.61611 0.33428 0.0
N305 N 0.43395 0.60893 0.30792 0.0
C306 C 0.44484 0.64041 0.34518 0.0
C307 C 0.4931 0.6443 0.3594 0.0
C308 C 0.30048 0.5 0.66412 0.0
C309 C 0.32622 0.46297 0.67772 0.0
C310 C 0.30793 0.54159 0.68932 0.0
C311 C 0.34112 0.54722 0.72901 0.0
H312 H 0.27849 0.49783 0.63026 0.0
H313 H 0.2914 0.57015 0.6742 0.0
S314 S 0.41305 0.45958 0.78263 0.0
N315 N 0.38247 0.43364 0.73625 0.0
N316 N 0.39603 0.51167 0.7842 0.0
C317 C 0.36323 0.50961 0.74635 0.0
C318 C 0.35593 0.46741 0.72044 0.0
C319 C 0.95454 0.79626 0.1031 0.0
C320 C 0.99702 0.8142 0.12246 0.0
C321 C 0.91129 0.80977 0.12436 0.0
C322 C 0.90936 0.8422 0.16499 0.0
H323 H 0.9545 0.77461 0.06872 0.0
H324 H 0.87918 0.79795 0.10587 0.0
S325 S 0.01099 0.89606 0.23199 0.0
N326 N 0.03476 0.86275 0.18714 0.0
N327 N 0.95364 0.88881 0.22651 0.0
C328 C 0.95177 0.85769 0.18704 0.0
C329 C 0.99563 0.84353 0.16584 0.0
C330 C 0.6701 0.54326 0.61906 0.0
C331 C 0.69592 0.54477 0.57406 0.0
C332 C 0.67292 0.50676 0.64879 0.0
C333 C 0.70107 0.47004 0.63399 0.0
H334 H 0.64546 0.56928 0.6297 0.0
H335 H 0.65072 0.50612 0.68201 0.0
S336 S 0.77765 0.45942 0.52037 0.0
N337 N 0.75285 0.5084 0.51758 0.0
N338 N 0.7574 0.43885 0.57253 0.0
C339 C 0.72925 0.47239 0.59052 0.0
C340 C 0.72668 0.50995 0.5606 0.0
C341 C 0.02376 0.20984 0.1265 0.0
C342 C 0.97928 0.19012 0.12909 0.0
C343 C 0.05706 0.20583 0.16563 0.0
C344 C 0.04668 0.18224 0.20855 0.0
H345 H 0.0345 0.22457 0.09202 0.0
H346 H 0.09266 0.21665 0.1593 0.0
S347 S 0.93109 0.13499 0.23881 0.0
N348 N 0.92362 0.15381 0.1818 0.0
N349 N 0.98576 0.14716 0.25574 0.0
C350 C 1.00013 0.1682 0.21457 0.0
C351 C 0.96662 0.17156 0.17449 0.0
C352 C 0.1924 0.71855 0.17687 0.0
C353 C 0.19214 0.76486 0.17558 0.0
C354 C 0.20653 0.69805 0.22073 0.0
C355 C 0.22079 0.72309 0.26477 0.0
H356 H 0.18153 0.69784 0.14381 0.0
H357 H 0.20563 0.66236 0.22039 0.0
S358 S 0.22617 0.84476 0.28261 0.0
N359 N 0.20745 0.83498 0.2234 0.0
N360 N 0.2338 0.79589 0.30552 0.0
C361 C 0.22106 0.7691 0.26437 0.0
C362 C 0.2068 0.79015 0.2198 0.0
C363 C 0.69823 0.76582 0.62641 0.0
C364 C 0.72323 0.73616 0.5931 0.0
C365 C 0.71992 0.78722 0.66914 0.0
C366 C 0.76733 0.77984 0.68031 0.0
H367 H 0.66133 0.77227 0.61994 0.0
H368 H 0.69907 0.80904 0.69423 0.0
S369 S 0.84923 0.70651 0.60623 0.0
N370 N 0.79898 0.70142 0.57461 0.0
N371 N 0.83923 0.74183 0.65541 0.0
C372 C 0.79319 0.75112 0.64745 0.0
C373 C 0.77126 0.72927 0.60365 0.0
C374 C 0.81229 0.26999 0.14429 0.0
C375 C 0.78951 0.24705 0.10271 0.0
C376 C 0.78748 0.28474 0.18805 0.0
C377 C 0.73913 0.27734 0.1915 0.0
H378 H 0.84989 0.27523 0.14396 0.0
H379 H 0.80654 0.30063 0.21999 0.0
S380 S 0.66182 0.22211 0.0934 0.0
N381 N 0.71456 0.22008 0.06769 0.0
N382 N 0.66857 0.24794 0.15016 0.0
C383 C 0.71544 0.25626 0.14998 0.0
C384 C 0.7405 0.24112 0.10545 0.0
C385 C 0.32884 0.22365 0.6763 0.0
C386 C 0.30132 0.2607 0.66599 0.0
C387 C 0.3163 0.19579 0.71406 0.0
C388 C 0.27594 0.20384 0.74313 0.0
H389 H 0.36054 0.21589 0.65503 0.0
H390 H 0.33869 0.16783 0.72078 0.0
S391 S 0.19159 0.29559 0.73252 0.0
N392 N 0.2313 0.30358 0.68853 0.0
N393 N 0.20803 0.25065 0.76011 0.0
C394 C 0.24767 0.24022 0.73358 0.0
C395 C 0.26028 0.26877 0.69473 0.0
C396 C 0.69883 0.78477 0.37864 0.0
C397 C 0.70561 0.73869 0.37387 0.0
C398 C 0.71164 0.81157 0.3397 0.0
C399 C 0.73159 0.79339 0.29456 0.0
H400 H 0.68308 0.80039 0.41256 0.0
H401 H 0.70498 0.84673 0.34459 0.0
S402 S 0.75749 0.67558 0.26218 0.0
N403 N 0.73452 0.67643 0.31973 0.0
N404 N 0.75827 0.72738 0.24658 0.0
C405 C 0.73939 0.74783 0.28912 0.0
C406 C 0.72651 0.72033 0.32885 0.0
C407 C 0.78986 0.22136 0.84017 0.0
C408 C 0.81139 0.2444 0.88249 0.0
C409 C 0.77367 0.24355 0.79811 0.0
C410 C 0.77802 0.28948 0.79719 0.0
H411 H 0.78638 0.18582 0.83896 0.0
H412 H 0.75858 0.22455 0.76574 0.0
S413 S 0.82913 0.36586 0.898 0.0
N414 N 0.83428 0.31664 0.9206 0.0
N415 N 0.80373 0.3576 0.8416 0.0
C416 C 0.79823 0.31307 0.83924 0.0
C417 C 0.81494 0.29071 0.8819 0.0
C418 C 0.27633 0.22804 0.44347 0.0
C419 C 0.2732 0.27435 0.45042 0.0
C420 C 0.25622 0.20503 0.40076 0.0
C421 C 0.2324 0.22742 0.36337 0.0
H422 H 0.295 0.20934 0.4709 0.0
H423 H 0.26042 0.16953 0.39634 0.0
S424 S 0.21392 0.34796 0.36244 0.0
N425 N 0.24362 0.34155 0.41563 0.0
N426 N 0.20626 0.29786 0.33531 0.0
C427 C 0.22816 0.27337 0.36983 0.0
C428 C 0.2484 0.29696 0.41344 0.0
C429 C 0.28494 0.75174 0.97786 0.0
C430 C 0.2369 0.74973 0.96455 0.0
C431 C 0.31905 0.73051 0.94699 0.0
C432 C 0.30657 0.70651 0.90166 0.0
H433 H 0.29656 0.77022 0.01224 0.0
H434 H 0.35565 0.73372 0.95823 0.0
S435 S 0.18666 0.69006 0.84891 0.0
N436 N 0.17899 0.72075 0.90241 0.0
N437 N 0.24377 0.68113 0.84446 0.0
C438 C 0.25906 0.7034 0.88788 0.0
C439 C 0.22403 0.7249 0.91939 0.0
loop_
_geom_bond_atom_site_label_1
_geom_bond_atom_site_label_2
_geom_bond_distance
_geom_bond_site_symmetry_2
_ccdc_geom_bond_type
Fe0 O2 1.918 . S
Fe0 O5 1.997 . S
Fe0 O6 2.002 . S
Fe0 O11 1.976 . S
Fe0 O14 1.996 . S
Fe1 O2 1.918 . S
Fe1 O9 1.997 . S
Fe1 O12 1.996 1_554 S
Fe1 O16 1.976 1_554 S
Fe1 O19 2.002 . S
O2 Fe0 1.918 . S
O2 Fe1 1.918 . S
O2 Fe3 1.918 . S
Fe3 O2 1.918 . S
Fe3 O4 2.002 . S
Fe3 O13 1.976 1_554 S
Fe3 O17 1.996 1_554 S
Fe3 O20 1.997 . S
O4 Fe3 2.002 . S
O4 C21 1.295 . S
O5 Fe0 1.997 . S
O5 C21 1.235 . S
O6 Fe0 2.002 . S
O6 C7 1.295 . S
C7 O6 1.295 . S
C7 O9 1.235 . S
C8 O13 1.287 . S
C8 O14 1.255 1_556 S
O9 Fe1 1.997 . S
O9 C7 1.235 . S
C10 O16 1.287 . S
C10 O17 1.255 . S
O11 Fe0 1.976 . S
O11 C18 1.287 1_554 S
O12 Fe1 1.996 1_556 S
O12 C18 1.255 . S
O13 Fe3 1.976 1_556 S
O13 C8 1.287 . S
O14 Fe0 1.996 . S
O14 C8 1.255 1_554 S
C15 O19 1.295 . S
C15 O20 1.235 . S
O16 Fe1 1.976 1_556 S
O16 C10 1.287 . S
O17 Fe3 1.996 1_556 S
O17 C10 1.255 . S
C18 O11 1.287 1_556 S
C18 O12 1.255 . S
O19 Fe1 2.002 . S
O19 C15 1.295 . S
O20 Fe3 1.997 . S
O20 C15 1.235 . S
C21 O4 1.295 . S
C21 O5 1.235 . S
Fe22 O24 1.918 . S
Fe22 O27 1.997 . S
Fe22 O28 2.002 . S
Fe22 O33 1.976 . S
Fe22 O36 1.996 . S
Fe23 O24 1.918 . S
Fe23 O31 1.997 . S
Fe23 O34 1.996 . S
Fe23 O38 1.976 . S
Fe23 O41 2.002 . S
O24 Fe22 1.918 . S
O24 Fe23 1.918 . S
O24 Fe25 1.918 . S
Fe25 O24 1.918 . S
Fe25 O26 2.002 . S
Fe25 O35 1.976 . S
Fe25 O39 1.996 . S
Fe25 O42 1.997 . S
O26 Fe25 2.002 . S
O26 C43 1.295 . S
O27 Fe22 1.997 . S
O27 C43 1.235 . S
O28 Fe22 2.002 . S
O28 C29 1.295 . S
C29 O28 1.295 . S
C29 O31 1.235 . S
C30 O35 1.287 . S
C30 O36 1.255 . S
O31 Fe23 1.997 . S
O31 C29 1.235 . S
C32 O38 1.287 . S
C32 O39 1.255 . S
O33 Fe22 1.976 . S
O33 C40 1.287 . S
O34 Fe23 1.996 . S
O34 C40 1.255 . S
O35 Fe25 1.976 . S
O35 C30 1.287 . S
O36 Fe22 1.996 . S
O36 C30 1.255 . S
C37 O41 1.295 . S
C37 O42 1.235 . S
O38 Fe23 1.976 . S
O38 C32 1.287 . S
O39 Fe25 1.996 . S
O39 C32 1.255 . S
C40 O33 1.287 . S
C40 O34 1.255 . S
O41 Fe23 2.002 . S
O41 C37 1.295 . S
O42 Fe25 1.997 . S
O42 C37 1.235 . S
C43 O26 1.295 . S
C43 O27 1.235 . S
Fe44 O46 1.918 . S
Fe44 O49 1.997 1_554 S
Fe44 O50 2.002 1_554 S
Fe44 O55 1.976 . S
Fe44 O58 1.996 . S
Fe45 O46 1.918 . S
Fe45 O53 1.997 1_554 S
Fe45 O56 1.996 . S
Fe45 O60 1.976 . S
Fe45 O63 2.002 1_554 S
O46 Fe44 1.918 . S
O46 Fe45 1.918 . S
O46 Fe47 1.918 1_554 S
Fe47 O46 1.918 1_556 S
Fe47 O48 2.002 . S
Fe47 O57 1.976 1_556 S
Fe47 O61 1.996 1_556 S
Fe47 O64 1.997 . S
O48 Fe47 2.002 . S
O48 C65 1.295 . S
O49 Fe44 1.997 1_556 S
O49 C65 1.235 . S
O50 Fe44 2.002 1_556 S
O50 C51 1.295 . S
C51 O50 1.295 . S
C51 O53 1.235 . S
C52 O57 1.287 . S
C52 O58 1.255 . S
O53 Fe45 1.997 1_556 S
O53 C51 1.235 . S
C54 O60 1.287 . S
C54 O61 1.255 . S
O55 Fe44 1.976 . S
O55 C62 1.287 . S
O56 Fe45 1.996 . S
O56 C62 1.255 . S
O57 Fe47 1.976 1_554 S
O57 C52 1.287 . S
O58 Fe44 1.996 . S
O58 C52 1.255 . S
C59 O63 1.295 . S
C59 O64 1.235 . S
O60 Fe45 1.976 . S
O60 C54 1.287 . S
O61 Fe47 1.996 1_554 S
O61 C54 1.255 . S
C62 O55 1.287 . S
C62 O56 1.255 . S
O63 Fe45 2.002 1_556 S
O63 C59 1.295 . S
O64 Fe47 1.997 . S
O64 C59 1.235 . S
C65 O48 1.295 . S
C65 O49 1.235 . S
Fe66 O68 1.918 . S
Fe66 O71 1.997 . S
Fe66 O72 2.002 . S
Fe66 O77 1.976 . S
Fe66 O80 1.996 . S
Fe67 O68 1.918 . S
Fe67 O75 1.997 . S
Fe67 O78 1.996 . S
Fe67 O82 1.976 . S
Fe67 O85 2.002 . S
O68 Fe66 1.918 . S
O68 Fe67 1.918 . S
O68 Fe69 1.918 . S
Fe69 O68 1.918 . S
Fe69 O70 2.002 . S
Fe69 O79 1.976 . S
Fe69 O83 1.996 . S
Fe69 O86 1.997 . S
O70 Fe69 2.002 . S
O70 C87 1.295 . S
O71 Fe66 1.997 . S
O71 C87 1.235 . S
O72 Fe66 2.002 . S
O72 C73 1.295 . S
C73 O72 1.295 . S
C73 O75 1.235 . S
C74 O79 1.287 . S
C74 O80 1.255 . S
O75 Fe67 1.997 . S
O75 C73 1.235 . S
C76 O82 1.287 . S
C76 O83 1.255 . S
O77 Fe66 1.976 . S
O77 C84 1.287 . S
O78 Fe67 1.996 . S
O78 C84 1.255 . S
O79 Fe69 1.976 . S
O79 C74 1.287 . S
O80 Fe66 1.996 . S
O80 C74 1.255 . S
C81 O85 1.295 . S
C81 O86 1.235 . S
O82 Fe67 1.976 . S
O82 C76 1.287 . S
O83 Fe69 1.996 . S
O83 C76 1.255 . S
C84 O77 1.287 . S
C84 O78 1.255 . S
O85 Fe67 2.002 . S
O85 C81 1.295 . S
O86 Fe69 1.997 . S
O86 C81 1.235 . S
C87 O70 1.295 . S
C87 O71 1.235 . S
H88 C91 0.929 . S
H89 C94 0.929 . S
H90 C96 0.930 . S
C91 H88 0.929 . S
C91 C92 1.398 . S
C91 C93 1.396 . S
C92 C91 1.398 . S
C92 C96 1.407 . S
C93 C91 1.396 . S
C93 C94 1.394 . S
C94 H89 0.929 . S
C94 C93 1.394 . S
C94 C95 1.382 . S
C95 C94 1.382 . S
C95 C96 1.392 . S
C95 N97 1.420 . S
C96 H90 0.930 . S
C96 C92 1.407 . S
C96 C95 1.392 . S
N97 C95 1.420 . S
N97 C98 1.244 . S
C98 N97 1.244 . S
H99 C102 0.929 . S
H100 C105 0.929 . S
H101 C107 0.930 . S
C102 H99 0.929 . S
C102 C103 1.398 . S
C102 C104 1.396 . S
C103 C102 1.398 . S
C103 C107 1.407 . S
C104 C102 1.396 . S
C104 C105 1.394 . S
C105 H100 0.929 . S
C105 C104 1.394 . S
C105 C106 1.382 . S
C106 C105 1.382 . S
C106 C107 1.392 . S
C106 N108 1.420 . S
C107 H101 0.930 . S
C107 C103 1.407 . S
C107 C106 1.392 . S
N108 C106 1.420 . S
N108 C109 1.244 . S
C109 N108 1.244 . S
H110 C113 0.929 . S
H111 C116 0.929 . S
H112 C118 0.930 . S
C113 H110 0.929 . S
C113 C114 1.398 . S
C113 C115 1.396 . S
C114 C113 1.398 . S
C114 C118 1.407 . S
C115 C113 1.396 . S
C115 C116 1.394 . S
C116 H111 0.929 . S
C116 C115 1.394 . S
C116 C117 1.382 . S
C117 C116 1.382 . S
C117 C118 1.392 . S
C117 N119 1.420 . S
C118 H112 0.930 . S
C118 C114 1.407 . S
C118 C117 1.392 . S
N119 C117 1.420 . S
N119 C120 1.244 . S
C120 N119 1.244 . S
H121 C124 0.929 . S
H122 C127 0.929 . S
H123 C129 0.930 . S
C124 H121 0.929 . S
C124 C125 1.398 . S
C124 C126 1.396 . S
C125 C124 1.398 . S
C125 C129 1.407 . S
C126 C124 1.396 . S
C126 C127 1.394 . S
C127 H122 0.929 . S
C127 C126 1.394 . S
C127 C128 1.382 . S
C128 C127 1.382 . S
C128 C129 1.392 . S
C128 N130 1.420 . S
C129 H123 0.930 . S
C129 C125 1.407 . S
C129 C128 1.392 . S
N130 C128 1.420 . S
N130 C131 1.244 . S
C131 N130 1.244 . S
H132 C135 0.929 . S
H133 C138 0.929 . S
H134 C140 0.930 . S
C135 H132 0.929 . S
C135 C136 1.398 . S
C135 C137 1.396 . S
C136 C135 1.398 . S
C136 C140 1.407 . S
C137 C135 1.396 . S
C137 C138 1.394 . S
C138 H133 0.929 . S
C138 C137 1.394 . S
C138 C139 1.382 . S
C139 C138 1.382 . S
C139 C140 1.392 . S
C139 N141 1.420 . S
C140 H134 0.930 . S
C140 C136 1.407 . S
C140 C139 1.392 . S
N141 C139 1.420 . S
N141 C142 1.244 . S
C142 N141 1.244 . S
H143 C146 0.929 . S
H144 C149 0.929 . S
H145 C151 0.930 . S
C146 H143 0.929 . S
C146 C147 1.398 . S
C146 C148 1.396 . S
C147 C146 1.398 . S
C147 C151 1.407 . S
C148 C146 1.396 . S
C148 C149 1.394 . S
C149 H144 0.929 . S
C149 C148 1.394 . S
C149 C150 1.382 . S
C150 C149 1.382 . S
C150 C151 1.392 . S
C150 N152 1.420 . S
C151 H145 0.930 . S
C151 C147 1.407 . S
C151 C150 1.392 . S
N152 C150 1.420 . S
N152 C153 1.244 . S
C153 N152 1.244 . S
H154 C157 0.929 . S
H155 C160 0.929 . S
H156 C162 0.930 . S
C157 H154 0.929 . S
C157 C158 1.398 . S
C157 C159 1.396 . S
C158 C157 1.398 . S
C158 C162 1.407 . S
C159 C157 1.396 . S
C159 C160 1.394 . S
C160 H155 0.929 . S
C160 C159 1.394 . S
C160 C161 1.382 . S
C161 C160 1.382 . S
C161 C162 1.392 . S
C161 N163 1.420 . S
C162 H156 0.930 . S
C162 C158 1.407 . S
C162 C161 1.392 . S
N163 C161 1.420 . S
N163 C164 1.244 . S
C164 N163 1.244 . S
H165 C168 0.929 . S
H166 C171 0.929 . S
H167 C173 0.930 . S
C168 H165 0.929 . S
C168 C169 1.398 . S
C168 C170 1.396 . S
C169 C168 1.398 . S
C169 C173 1.407 . S
C170 C168 1.396 . S
C170 C171 1.394 . S
C171 H166 0.929 . S
C171 C170 1.394 . S
C171 C172 1.382 . S
C172 C171 1.382 . S
C172 C173 1.392 . S
C172 N174 1.420 . S
C173 H167 0.930 . S
C173 C169 1.407 . S
C173 C172 1.392 . S
N174 C172 1.420 . S
N174 C175 1.244 . S
C175 N174 1.244 . S
C176 C177 1.369 . S
C176 C178 1.419 1_565 S
C176 H180 0.930 . S
C177 C176 1.369 . S
C177 C186 1.429 1_565 S
C178 C176 1.419 1_545 S
C178 C179 1.363 . S
C178 H181 0.929 . S
C179 C178 1.363 . S
C179 C185 1.428 . S
H180 C176 0.930 . S
H181 C178 0.929 . S
S182 N183 1.613 . S
S182 N184 1.610 . S
N183 S182 1.613 . S
N183 C186 1.350 . S
N184 S182 1.610 . S
N184 C185 1.351 . S
C185 C179 1.428 . S
C185 N184 1.351 . S
C185 C186 1.434 . S
C186 C177 1.429 1_545 S
C186 N183 1.350 . S
C186 C185 1.434 . S
C187 C188 1.369 . S
C187 C189 1.419 . S
C187 H191 0.930 . S
C188 C187 1.369 . S
C188 C197 1.429 . S
C189 C187 1.419 . S
C189 C190 1.363 . S
C189 H192 0.929 . S
C190 C189 1.363 . S
C190 C196 1.428 . S
H191 C187 0.930 . S
H192 C189 0.929 . S
S193 N194 1.613 . S
S193 N195 1.610 . S
N194 S193 1.613 . S
N194 C197 1.350 . S
N195 S193 1.610 . S
N195 C196 1.351 . S
C196 C190 1.428 . S
C196 N195 1.351 . S
C196 C197 1.434 . S
C197 C188 1.429 . S
C197 N194 1.350 . S
C197 C196 1.434 . S
C198 C199 1.369 1_565 S
C198 C200 1.419 . S
C198 H202 0.930 . S
C199 C198 1.369 1_545 S
C199 C208 1.429 . S
C200 C198 1.419 . S
C200 C201 1.363 . S
C200 H203 0.929 . S
C201 C200 1.363 . S
C201 C207 1.428 . S
H202 C198 0.930 . S
H203 C200 0.929 . S
S204 N205 1.613 . S
S204 N206 1.610 1_545 S
N205 S204 1.613 . S
N205 C208 1.350 . S
N206 S204 1.610 1_565 S
N206 C207 1.351 . S
C207 C201 1.428 . S
C207 N206 1.351 . S
C207 C208 1.434 1_565 S
C208 C199 1.429 . S
C208 N205 1.350 . S
C208 C207 1.434 1_545 S
C209 C210 1.369 . S
C209 C211 1.419 . S
C209 H213 0.930 . S
C210 C209 1.369 . S
C210 C219 1.429 . S
C211 C209 1.419 . S
C211 C212 1.363 . S
C211 H214 0.929 . S
C212 C211 1.363 . S
C212 C218 1.428 . S
H213 C209 0.930 . S
H214 C211 0.929 . S
S215 N216 1.613 . S
S215 N217 1.610 . S
N216 S215 1.613 . S
N216 C219 1.350 . S
N217 S215 1.610 . S
N217 C218 1.351 . S
C218 C212 1.428 . S
C218 N217 1.351 . S
C218 C219 1.434 . S
C219 C210 1.429 . S
C219 N216 1.350 . S
C219 C218 1.434 . S
C220 C221 1.369 . S
C220 C222 1.419 . S
C220 H224 0.930 . S
C221 C220 1.369 . S
C221 C230 1.429 . S
C222 C220 1.419 . S
C222 C223 1.363 . S
C222 H225 0.929 . S
C223 C222 1.363 . S
C223 C229 1.428 . S
H224 C220 0.930 . S
H225 C222 0.929 . S
S226 N227 1.613 . S
S226 N228 1.610 . S
N227 S226 1.613 . S
N227 C230 1.350 . S
N228 S226 1.610 . S
N228 C229 1.351 . S
C229 C223 1.428 . S
C229 N228 1.351 . S
C229 C230 1.434 . S
C230 C221 1.429 . S
C230 N227 1.350 . S
C230 C229 1.434 . S
C231 C232 1.369 . S
C231 C233 1.419 . S
C231 H235 0.930 . S
C232 C231 1.369 . S
C232 C241 1.429 . S
C233 C231 1.419 . S
C233 C234 1.363 . S
C233 H236 0.929 . S
C234 C233 1.363 . S
C234 C240 1.428 . S
H235 C231 0.930 . S
H236 C233 0.929 . S
S237 N238 1.613 . S
S237 N239 1.610 . S
N238 S237 1.613 . S
N238 C241 1.350 . S
N239 S237 1.610 . S
N239 C240 1.351 . S
C240 C234 1.428 . S
C240 N239 1.351 . S
C240 C241 1.434 . S
C241 C232 1.429 . S
C241 N238 1.350 . S
C241 C240 1.434 . S
C242 C243 1.369 . S
C242 C244 1.419 . S
C242 H246 0.930 . S
C243 C242 1.369 . S
C243 C252 1.429 . S
C244 C242 1.419 . S
C244 C245 1.363 . S
C244 H247 0.929 . S
C245 C244 1.363 . S
C245 C251 1.428 . S
H246 C242 0.930 . S
H247 C244 0.929 . S
S248 N249 1.613 . S
S248 N250 1.610 . S
N249 S248 1.613 . S
N249 C252 1.350 . S
N250 S248 1.610 . S
N250 C251 1.351 . S
C251 C245 1.428 . S
C251 N250 1.351 . S
C251 C252 1.434 . S
C252 C243 1.429 . S
C252 N249 1.350 . S
C252 C251 1.434 . S
C253 C254 1.369 . S
C253 C255 1.432 . S
C253 H257 0.930 . S
C254 C253 1.369 . S
C254 C263 1.429 . S
C255 C253 1.432 . S
C255 C256 1.349 1_455 S
C255 H258 0.930 . S
C256 C255 1.349 1_655 S
C256 C262 1.428 . S
H257 C253 0.930 . S
H258 C255 0.930 . S
S259 N260 1.602 1_655 S
S259 N261 1.610 . S
N260 S259 1.602 1_455 S
N260 C263 1.351 . S
N261 S259 1.610 . S
N261 C262 1.351 . S
C262 C256 1.428 . S
C262 N261 1.351 . S
C262 C263 1.434 1_655 S
C263 C254 1.429 . S
C263 N260 1.351 . S
C263 C262 1.434 1_455 S
C264 C265 1.369 . S
C264 C266 1.419 1_545 S
C264 H268 0.930 . S
C265 C264 1.369 . S
C265 C274 1.429 1_545 S
C266 C264 1.419 1_565 S
C266 C267 1.363 . S
C266 H269 0.929 . S
C267 C266 1.363 . S
C267 C273 1.428 . S
H268 C264 0.930 . S
H269 C266 0.929 . S
S270 N271 1.613 . S
S270 N272 1.610 . S
N271 S270 1.613 . S
N271 C274 1.350 . S
N272 S270 1.610 . S
N272 C273 1.351 . S
C273 C267 1.428 . S
C273 N272 1.351 . S
C273 C274 1.434 . S
C274 C265 1.429 1_565 S
C274 N271 1.350 . S
C274 C273 1.434 . S
C275 C276 1.369 . S
C275 C277 1.419 . S
C275 H279 0.930 . S
C276 C275 1.369 . S
C276 C285 1.429 . S
C277 C275 1.419 . S
C277 C278 1.363 . S
C277 H280 0.929 . S
C278 C277 1.363 . S
C278 C284 1.428 . S
H279 C275 0.930 . S
H280 C277 0.929 . S
S281 N282 1.613 . S
S281 N283 1.610 . S
N282 S281 1.613 . S
N282 C285 1.350 . S
N283 S281 1.610 . S
N283 C284 1.351 . S
C284 C278 1.428 . S
C284 N283 1.351 . S
C284 C285 1.434 . S
C285 C276 1.429 . S
C285 N282 1.350 . S
C285 C284 1.434 . S
C286 C287 1.369 1_545 S
C286 C288 1.419 . S
C286 H290 0.930 . S
C287 C286 1.369 1_565 S
C287 C296 1.429 . S
C288 C286 1.419 . S
C288 C289 1.363 . S
C288 H291 0.929 . S
C289 C288 1.363 . S
C289 C295 1.428 . S
H290 C286 0.930 . S
H291 C288 0.929 . S
S292 N293 1.613 . S
S292 N294 1.610 1_565 S
N293 S292 1.613 . S
N293 C296 1.350 . S
N294 S292 1.610 1_545 S
N294 C295 1.351 . S
C295 C289 1.428 . S
C295 N294 1.351 . S
C295 C296 1.434 1_545 S
C296 C287 1.429 . S
C296 N293 1.350 . S
C296 C295 1.434 1_565 S
C297 C298 1.369 . S
C297 C299 1.419 . S
C297 H301 0.930 . S
C298 C297 1.369 . S
C298 C307 1.429 . S
C299 C297 1.419 . S
C299 C300 1.363 . S
C299 H302 0.929 . S
C300 C299 1.363 . S
C300 C306 1.428 . S
H301 C297 0.930 . S
H302 C299 0.929 . S
S303 N304 1.613 . S
S303 N305 1.610 . S
N304 S303 1.613 . S
N304 C307 1.350 . S
N305 S303 1.610 . S
N305 C306 1.351 . S
C306 C300 1.428 . S
C306 N305 1.351 . S
C306 C307 1.434 . S
C307 C298 1.429 . S
C307 N304 1.350 . S
C307 C306 1.434 . S
C308 C309 1.369 . S
C308 C310 1.419 . S
C308 H312 0.930 . S
C309 C308 1.369 . S
C309 C318 1.429 . S
C310 C308 1.419 . S
C310 C311 1.363 . S
C310 H313 0.929 . S
C311 C310 1.363 . S
C311 C317 1.428 . S
H312 C308 0.930 . S
H313 C310 0.929 . S
S314 N315 1.613 . S
S314 N316 1.610 . S
N315 S314 1.613 . S
N315 C318 1.350 . S
N316 S314 1.610 . S
N316 C317 1.351 . S
C317 C311 1.428 . S
C317 N316 1.351 . S
C317 C318 1.434 . S
C318 C309 1.429 . S
C318 N315 1.350 . S
C318 C317 1.434 . S
C319 C320 1.369 . S
C319 C321 1.419 . S
C319 H323 0.930 . S
C320 C319 1.369 . S
C320 C329 1.429 . S
C321 C319 1.419 . S
C321 C322 1.363 . S
C321 H324 0.929 . S
C322 C321 1.363 . S
C322 C328 1.428 . S
H323 C319 0.930 . S
H324 C321 0.929 . S
S325 N326 1.613 . S
S325 N327 1.610 . S
N326 S325 1.613 . S
N326 C329 1.350 . S
N327 S325 1.610 . S
N327 C328 1.351 . S
C328 C322 1.428 . S
C328 N327 1.351 . S
C328 C329 1.434 . S
C329 C320 1.429 . S
C329 N326 1.350 . S
C329 C328 1.434 . S
C330 C331 1.369 . S
C330 C332 1.419 . S
C330 H334 0.930 . S
C331 C330 1.369 . S
C331 C340 1.429 . S
C332 C330 1.419 . S
C332 C333 1.363 . S
C332 H335 0.929 . S
C333 C332 1.363 . S
C333 C339 1.428 . S
H334 C330 0.930 . S
H335 C332 0.929 . S
S336 N337 1.613 . S
S336 N338 1.610 . S
N337 S336 1.613 . S
N337 C340 1.350 . S
N338 S336 1.610 . S
N338 C339 1.351 . S
C339 C333 1.428 . S
C339 N338 1.351 . S
C339 C340 1.434 . S
C340 C331 1.429 . S
C340 N337 1.350 . S
C340 C339 1.434 . S
C341 C342 1.370 1_455 S
C341 C343 1.418 . S
C341 H345 0.930 . S
C342 C341 1.370 1_655 S
C342 C351 1.429 . S
C343 C341 1.418 . S
C343 C344 1.363 . S
C343 H346 0.929 . S
C344 C343 1.363 . S
C344 C350 1.428 1_455 S
H345 C341 0.930 . S
H346 C343 0.929 . S
S347 N348 1.613 . S
S347 N349 1.610 . S
N348 S347 1.613 . S
N348 C351 1.350 . S
N349 S347 1.610 . S
N349 C350 1.351 . S
C350 C344 1.428 1_655 S
C350 N349 1.351 . S
C350 C351 1.434 . S
C351 C342 1.429 . S
C351 N348 1.350 . S
C351 C350 1.434 . S
C352 C353 1.369 . S
C352 C354 1.419 . S
C352 H356 0.930 . S
C353 C352 1.369 . S
C353 C362 1.429 . S
C354 C352 1.419 . S
C354 C355 1.363 . S
C354 H357 0.929 . S
C355 C354 1.363 . S
C355 C361 1.428 . S
H356 C352 0.930 . S
H357 C354 0.929 . S
S358 N359 1.613 . S
S358 N360 1.610 . S
N359 S358 1.613 . S
N359 C362 1.350 . S
N360 S358 1.610 . S
N360 C361 1.351 . S
C361 C355 1.428 . S
C361 N360 1.351 . S
C361 C362 1.434 . S
C362 C353 1.429 . S
C362 N359 1.350 . S
C362 C361 1.434 . S
C363 C364 1.369 . S
C363 C365 1.419 . S
C363 H367 0.930 . S
C364 C363 1.369 . S
C364 C373 1.429 . S
C365 C363 1.419 . S
C365 C366 1.363 . S
C365 H368 0.929 . S
C366 C365 1.363 . S
C366 C372 1.428 . S
H367 C363 0.930 . S
H368 C365 0.929 . S
S369 N370 1.613 . S
S369 N371 1.610 . S
N370 S369 1.613 . S
N370 C373 1.350 . S
N371 S369 1.610 . S
N371 C372 1.351 . S
C372 C366 1.428 . S
C372 N371 1.351 . S
C372 C373 1.434 . S
C373 C364 1.429 . S
C373 N370 1.350 . S
C373 C372 1.434 . S
C374 C375 1.369 . S
C374 C376 1.419 . S
C374 H378 0.930 . S
C375 C374 1.369 . S
C375 C384 1.429 . S
C376 C374 1.419 . S
C376 C377 1.363 . S
C376 H379 0.929 . S
C377 C376 1.363 . S
C377 C383 1.428 . S
H378 C374 0.930 . S
H379 C376 0.929 . S
S380 N381 1.613 . S
S380 N382 1.610 . S
N381 S380 1.613 . S
N381 C384 1.350 . S
N382 S380 1.610 . S
N382 C383 1.351 . S
C383 C377 1.428 . S
C383 N382 1.351 . S
C383 C384 1.434 . S
C384 C375 1.429 . S
C384 N381 1.350 . S
C384 C383 1.434 . S
C385 C386 1.369 . S
C385 C387 1.419 . S
C385 H389 0.930 . S
C386 C385 1.369 . S
C386 C395 1.429 . S
C387 C385 1.419 . S
C387 C388 1.363 . S
C387 H390 0.929 . S
C388 C387 1.363 . S
C388 C394 1.428 . S
H389 C385 0.930 . S
H390 C387 0.929 . S
S391 N392 1.613 . S
S391 N393 1.610 . S
N392 S391 1.613 . S
N392 C395 1.350 . S
N393 S391 1.610 . S
N393 C394 1.351 . S
C394 C388 1.428 . S
C394 N393 1.351 . S
C394 C395 1.434 . S
C395 C386 1.429 . S
C395 N392 1.350 . S
C395 C394 1.434 . S
C396 C397 1.369 . S
C396 C398 1.419 . S
C396 H400 0.930 . S
C397 C396 1.369 . S
C397 C406 1.429 . S
C398 C396 1.419 . S
C398 C399 1.363 . S
C398 H401 0.929 . S
C399 C398 1.363 . S
C399 C405 1.428 . S
H400 C396 0.930 . S
H401 C398 0.929 . S
S402 N403 1.613 . S
S402 N404 1.610 . S
N403 S402 1.613 . S
N403 C406 1.350 . S
N404 S402 1.610 . S
N404 C405 1.351 . S
C405 C399 1.428 . S
C405 N404 1.351 . S
C405 C406 1.434 . S
C406 C397 1.429 . S
C406 N403 1.350 . S
C406 C405 1.434 . S
C407 C408 1.369 . S
C407 C409 1.419 . S
C407 H411 0.930 . S
C408 C407 1.369 . S
C408 C417 1.429 . S
C409 C407 1.419 . S
C409 C410 1.363 . S
C409 H412 0.929 . S
C410 C409 1.363 . S
C410 C416 1.428 . S
H411 C407 0.930 . S
H412 C409 0.929 . S
S413 N414 1.613 . S
S413 N415 1.610 . S
N414 S413 1.613 . S
N414 C417 1.350 . S
N415 S413 1.610 . S
N415 C416 1.351 . S
C416 C410 1.428 . S
C416 N415 1.351 . S
C416 C417 1.434 . S
C417 C408 1.429 . S
C417 N414 1.350 . S
C417 C416 1.434 . S
C418 C419 1.369 . S
C418 C420 1.419 . S
C418 H422 0.930 . S
C419 C418 1.369 . S
C419 C428 1.429 . S
C420 C418 1.419 . S
C420 C421 1.363 . S
C420 H423 0.929 . S
C421 C420 1.363 . S
C421 C427 1.428 . S
H422 C418 0.930 . S
H423 C420 0.929 . S
S424 N425 1.613 . S
S424 N426 1.610 . S
N425 S424 1.613 . S
N425 C428 1.350 . S
N426 S424 1.610 . S
N426 C427 1.351 . S
C427 C421 1.428 . S
C427 N426 1.351 . S
C427 C428 1.434 . S
C428 C419 1.429 . S
C428 N425 1.350 . S
C428 C427 1.434 . S
C429 C430 1.369 . S
C429 C431 1.419 . S
C429 H433 0.930 1_556 S
C430 C429 1.369 . S
C430 C439 1.429 . S
C431 C429 1.419 . S
C431 C432 1.363 . S
C431 H434 0.929 . S
C432 C431 1.363 . S
C432 C438 1.428 . S
H433 C429 0.930 1_554 S
H434 C431 0.929 . S
S435 N436 1.613 . S
S435 N437 1.610 . S
N436 S435 1.613 . S
N436 C439 1.350 . S
N437 S435 1.610 . S
N437 C438 1.351 . S
C438 C432 1.428 . S
C438 N437 1.351 . S
C438 C439 1.434 . S
C439 C430 1.429 . S
C439 N436 1.350 . S
C439 C438 1.434 . S
C177 C7 1.507 . S
C179 C93 1.430 . S
C188 C37 1.479 . S
C190 C104 1.377 . S
C199 C54 1.415 . S
C201 C114 1.343 . S
C212 C126 1.424 . S
C210 C87 1.435 . S
C223 C137 1.409 . S
C221 C30 1.484 . S
C232 C51 1.448 1_455 S
C234 C148 1.427 . S
C243 C84 1.448 . S
C245 C158 1.365 . S
C254 C10 1.453 . S
C256 C170 1.356 . S
C265 C59 1.387 . S
C267 C169 1.358 . S
C278 C136 1.236 . S
C276 C74 1.288 . S
C289 C147 1.358 . S
C287 C18 1.415 . S
C298 C32 1.451 . S
C300 C159 1.412 . S
C311 C103 1.354 . S
C309 C73 1.387 . S
C320 C15 1.452 1_655 S
C322 C115 1.428 . S
C333 C125 1.380 . S
C331 C43 1.423 . S
C344 C92 1.242 . S
C342 C62 1.288 . S
C355 C164 1.482 . S
C353 C21 1.517 . S
C366 C175 1.475 . S
C364 C29 1.466 . S
C375 C52 1.409 . S
C377 C142 1.396 . S
C388 C153 1.434 . S
C386 C81 1.472 . S
C399 C120 1.458 . S
C397 C40 1.490 . S
C408 C65 1.472 . S
C410 C131 1.435 . S
C421 C98 1.404 . S
C419 C76 1.415 . S
C432 C109 1.473 . S
C430 C8 1.484 . S
