# Generated by pormake.
# Topology anh, (6,3)-cn, num edge types: 1
# Building blocks:
#     Node 0, Type 0, BuildingBlock: PAMTUU_clean_sbu_0, # of connection points: 6
#     Node 1, Type 0, BuildingBlock: PAMTUU_clean_sbu_0, # of connection points: 6
#     Node 2, Type 0, BuildingBlock: PAMTUU_clean_sbu_0, # of connection points: 6
#     Node 3, Type 1, BuildingBlock: BELTOD_clean_linker_0, # of connection points: 3
#     Node 4, Type 1, BuildingBlock: BELTOD_clean_linker_0, # of connection points: 3
#     Node 5, Type 1, BuildingBlock: BELTOD_clean_linker_0, # of connection points: 3
#     Node 6, Type 1, BuildingBlock: BELTOD_clean_linker_0, # of connection points: 3
#     Node 7, Type 1, BuildingBlock: BELTOD_clean_linker_0, # of connection points: 3
#     Node 8, Type 1, BuildingBlock: BELTOD_clean_linker_0, # of connection points: 3
#     Edge 9, Type (0, 1), BuildingBlock: XIVTED_clean_linker_0, # of connection points: 2
#     Edge 10, Type (0, 1), BuildingBlock: XIVTED_clean_linker_0, # of connection points: 2
#     Edge 11, Type (0, 1), BuildingBlock: XIVTED_clean_linker_0, # of connection points: 2
#     Edge 12, Type (0, 1), BuildingBlock: XIVTED_clean_linker_0, # of connection points: 2
#     Edge 13, Type (0, 1), BuildingBlock: XIVTED_clean_linker_0, # of connection points: 2
#     Edge 14, Type (0, 1), BuildingBlock: XIVTED_clean_linker_0, # of connection points: 2
#     Edge 15, Type (0, 1), BuildingBlock: XIVTED_clean_linker_0, # of connection points: 2
#     Edge 16, Type (0, 1), BuildingBlock: XIVTED_clean_linker_0, # of connection points: 2
#     Edge 17, Type (0, 1), BuildingBlock: XIVTED_clean_linker_0, # of connection points: 2
#     Edge 18, Type (0, 1), BuildingBlock: XIVTED_clean_linker_0, # of connection points: 2
#     Edge 19, Type (0, 1), BuildingBlock: XIVTED_clean_linker_0, # of connection points: 2
#     Edge 20, Type (0, 1), BuildingBlock: XIVTED_clean_linker_0, # of connection points: 2
#     Edge 21, Type (0, 1), BuildingBlock: XIVTED_clean_linker_0, # of connection points: 2
#     Edge 22, Type (0, 1), BuildingBlock: XIVTED_clean_linker_0, # of connection points: 2
#     Edge 23, Type (0, 1), BuildingBlock: XIVTED_clean_linker_0, # of connection points: 2
#     Edge 24, Type (0, 1), BuildingBlock: XIVTED_clean_linker_0, # of connection points: 2
#     Edge 25, Type (0, 1), BuildingBlock: XIVTED_clean_linker_0, # of connection points: 2
#     Edge 26, Type (0, 1), BuildingBlock: XIVTED_clean_linker_0, # of connection points: 2
# Relax obj value: 0.245
# Max RMSD: 0.183
# Mean RMSD: 0.148
data_MOF--net-anh--node1-PAMTUU_clean_sbu_0--node2-BELTOD_clean_linker_0--edge1-XIVTED_clean_linker_0
_symmetry_space_group_name_H-M    P1
_symmetry_Int_Tables_number       1
_symmetry_cell_setting            triclinic
loop_
_symmetry_equiv_pos_as_xyz
'x, y, z'
_cell_length_a     34.341857
_cell_length_b     34.397116
_cell_length_c     60.996007
_cell_angle_alpha  91.926518
_cell_angle_beta   91.732421
_cell_angle_gamma 120.08171
loop_
_atom_site_label
_atom_site_type_symbol
_atom_site_fract_x
_atom_site_fract_y
_atom_site_fract_z
_atom_type_partial_charge
Tb0 Tb 0.10644 0.65812 0.15906 0.0
Tb1 Tb 0.16027 0.60343 0.15331 0.0
C2 C 0.12453 0.63072 0.11318 0.0
C3 C 1.01349 0.67153 0.17439 0.0
C4 C 0.92463 0.60767 0.18373 0.0
C5 C 0.93288 0.63719 0.16674 0.0
C6 C 0.97698 0.66888 0.16215 0.0
C7 C 1.00518 0.64533 0.19276 0.0
C8 C 0.96113 0.61391 0.19747 0.0
C9 C 1.05823 0.69291 0.16509 0.0
O10 O 1.05286 0.58736 0.15367 0.0
O11 O 0.09268 0.55211 0.16198 0.0
O12 O 0.17456 0.63086 0.18673 0.0
O13 O 0.10822 0.62983 0.19027 0.0
O14 O 0.20378 0.59031 0.13506 0.0
O15 O 0.17208 0.55259 0.16333 0.0
O16 O 0.21328 0.67439 0.15189 0.0
O17 O 0.17699 0.71132 0.16438 0.0
O18 O 0.12736 0.66445 0.12526 0.0
O19 O 0.12402 0.59683 0.12252 0.0
C20 C 1.05405 0.55095 0.15862 0.0
O21 O 0.09219 0.70078 0.1784 0.0
O22 O 1.05926 0.67435 0.14627 0.0
C23 C 0.14324 0.62911 0.19898 0.0
C24 C 0.24398 0.56304 0.15586 0.0
C25 C 0.31771 0.55114 0.16607 0.0
C26 C 0.28516 0.54226 0.18152 0.0
C27 C 0.24858 0.54813 0.17647 0.0
C28 C 0.27814 0.57485 0.14106 0.0
C29 C 0.31478 0.56917 0.14615 0.0
C30 C 0.20144 0.5606 0.14854 0.0
C31 C 0.21399 0.71152 0.15895 0.0
H32 H 0.90569 0.6332 0.1557 0.0
H33 H 0.9826 0.68848 0.14782 0.0
H34 H 1.03266 0.64649 0.20252 0.0
H35 H 0.95588 0.59236 0.21094 0.0
H36 H 0.2868 0.52863 0.19705 0.0
H37 H 0.22283 0.53876 0.18828 0.0
H38 H 0.27531 0.58607 0.12501 0.0
H39 H 0.33897 0.57575 0.13377 0.0
Tb40 Tb 0.56336 0.09851 0.49128 0.0
Tb41 Tb 0.67196 0.15841 0.49835 0.0
C42 C 0.62504 0.13005 0.45145 0.0
C43 C 0.45568 1.00067 0.49629 0.0
C44 C 0.41605 0.91003 0.50661 0.0
C45 C 0.39136 0.92496 0.49414 0.0
C46 C 0.41122 0.97007 0.4889 0.0
C47 C 0.47948 0.9862 0.50964 0.0
C48 C 0.4599 0.9413 0.51472 0.0
C49 C 0.47961 1.04632 0.48846 0.0
O50 O 0.58547 1.04855 0.48828 0.0
O51 O 0.65794 0.08972 0.50332 0.0
O52 O 0.6422 0.16178 0.52858 0.0
O53 O 0.58292 0.09113 0.52432 0.0
O54 O 0.73512 0.20696 0.48818 0.0
O55 O 0.72889 0.17594 0.51908 0.0
O56 O 0.65111 0.20805 0.49248 0.0
O57 O 0.57581 0.16703 0.49909 0.0
O58 O 0.58865 0.12657 0.45981 0.0
O59 O 0.65777 0.13252 0.46424 0.0
C60 C 0.62254 1.05081 0.49657 0.0
O61 O 0.50013 0.07841 0.50381 0.0
O62 O 0.50564 1.05122 0.47238 0.0
C63 C 0.6121 0.12517 0.53715 0.0
C64 C 0.7788 0.25328 0.51855 0.0
C65 C 0.82456 0.34309 0.53543 0.0
C66 C 0.77726 0.31854 0.53392 0.0
C67 C 0.75454 0.27385 0.52563 0.0
C68 C 0.82576 0.27658 0.52132 0.0
C69 C 0.84853 0.32114 0.52979 0.0
C70 C 0.75502 0.20876 0.50706 0.0
C71 C 0.61267 0.20598 0.49657 0.0
H72 H 0.35764 0.90135 0.48746 0.0
H73 H 0.39255 0.98062 0.47844 0.0
H74 H 0.51393 1.00928 0.51546 0.0
H75 H 0.47955 0.93077 0.52445 0.0
H76 H 0.75797 0.33455 0.53811 0.0
H77 H 0.71809 0.25598 0.52385 0.0
H78 H 0.84488 0.26104 0.51602 0.0
H79 H 0.88503 0.33935 0.53038 0.0
Tb80 Tb 0.57905 0.52287 0.82075 0.0
Tb81 Tb 0.62954 0.62733 0.83832 0.0
C82 C 0.61074 0.59822 0.78812 0.0
C83 C 0.56554 0.41316 0.81511 0.0
C84 C 0.60947 0.36436 0.82331 0.0
C85 C 0.56825 0.34429 0.81076 0.0
C86 C 0.54647 0.36872 0.80659 0.0
C87 C 0.60588 0.43259 0.82818 0.0
C88 C 0.62771 0.40852 0.83219 0.0
C89 C 0.54539 0.44081 0.81 0.0
O90 O 0.65128 0.54622 0.81789 0.0
O91 O 0.68444 0.61275 0.83909 0.0
O92 O 0.59759 0.58516 0.8658 0.0
O93 O 0.60813 0.52888 0.8533 0.0
O94 O 0.64801 0.69449 0.8338 0.0
O95 O 0.66502 0.67522 0.86434 0.0
O96 O 0.56037 0.61048 0.83055 0.0
O97 O 0.52411 0.53362 0.83142 0.0
O98 O 0.5763 0.56029 0.79355 0.0
O99 O 0.64151 0.62572 0.80319 0.0
C100 C 0.68692 0.58019 0.82845 0.0
O101 O 0.53376 0.45569 0.8271 0.0
O102 O 0.56805 0.47271 0.79674 0.0
C103 C 0.60213 0.55035 0.86959 0.0
C104 C 0.63828 0.72593 0.86609 0.0
C105 C 0.58564 0.76308 0.8795 0.0
C106 C 0.56779 0.71629 0.87887 0.0
C107 C 0.59395 0.69786 0.87221 0.0
C108 C 0.65743 0.7726 0.86844 0.0
C109 C 0.63141 0.7911 0.87521 0.0
C110 C 0.66161 0.70639 0.85438 0.0
C111 C 0.52323 0.5716 0.83184 0.0
H112 H 0.55372 0.31034 0.80357 0.0
H113 H 0.51539 0.35329 0.79645 0.0
H114 H 0.62102 0.46678 0.83501 0.0
H115 H 0.65913 0.42462 0.84209 0.0
H116 H 0.53281 0.69387 0.88213 0.0
H117 H 0.57864 0.66159 0.87051 0.0
H118 H 0.6915 0.79466 0.86369 0.0
H119 H 0.64613 0.82727 0.87518 0.0
P120 P 0.65633 0.12055 0.21078 0.0
H121 H 0.62145 0.0626 0.17003 0.0
H122 H 0.54745 0.99826 0.15846 0.0
H123 H 0.49064 1.02643 0.2148 0.0
H124 H 0.56369 0.09038 0.22594 0.0
H125 H 0.71471 0.14334 0.17347 0.0
H126 H 0.77703 0.21399 0.16193 0.0
H127 H 0.74445 0.28784 0.20928 0.0
H128 H 0.68245 0.21718 0.2209 0.0
H129 H 0.68946 0.09075 0.24791 0.0
H130 H 0.62097 0.16602 0.23955 0.0
O131 O 0.68234 0.09097 0.20715 0.0
H132 H 0.6851 0.09598 0.28742 0.0
H133 H 0.6176 0.17246 0.27945 0.0
C134 C 0.59907 0.08226 0.19891 0.0
C135 C 0.59285 1.05578 0.17959 0.0
C136 C 0.55035 1.01829 0.17315 0.0
C137 C 0.51251 1.00616 0.18578 0.0
C138 C 0.5184 1.03436 0.20442 0.0
C139 C 0.56087 0.07159 0.21089 0.0
C140 C 0.69341 0.17404 0.19832 0.0
C141 C 0.72021 0.17464 0.18118 0.0
C142 C 0.75641 0.21533 0.17469 0.0
C143 C 0.76671 0.25704 0.18488 0.0
C144 C 0.73788 0.25664 0.20099 0.0
C145 C 0.70197 0.21577 0.20769 0.0
C146 C 0.65581 0.12823 0.24047 0.0
C147 C 0.67396 0.10903 0.25448 0.0
C148 C 0.67167 0.11224 0.27728 0.0
C149 C 0.6511 0.13476 0.2868 0.0
C150 C 0.63336 0.15449 0.27276 0.0
C151 C 0.63578 0.15132 0.24988 0.0
P152 P 0.65427 0.64839 0.5495 0.0
H153 H 0.67883 0.61584 0.50984 0.0
H154 H 0.66739 0.542 0.4981 0.0
H155 H 0.57457 0.48206 0.54937 0.0
H156 H 0.58537 0.5557 0.56059 0.0
H157 H 0.6608 0.72705 0.57242 0.0
H158 H 0.65134 0.78907 0.5616 0.0
H159 H 0.60565 0.72625 0.49637 0.0
H160 H 0.61495 0.66279 0.5076 0.0
H161 H 0.71278 0.64886 0.58582 0.0
H162 H 0.58035 0.6329 0.57774 0.0
O163 O 0.70969 0.67547 0.54631 0.0
H164 H 0.70486 0.64246 0.6254 0.0
H165 H 0.57229 0.62704 0.61745 0.0
C166 C 0.63314 0.59212 0.5362 0.0
C167 C 0.65491 0.58669 0.51817 0.0
C168 C 0.64888 0.54417 0.51169 0.0
C169 C 0.62073 0.50541 0.523 0.0
C170 C 0.59651 0.51054 0.54009 0.0
C171 C 0.60263 0.55313 0.54656 0.0
C172 C 0.63717 0.68881 0.54116 0.0
C173 C 0.64743 0.72546 0.55591 0.0
C174 C 0.64272 0.76176 0.54954 0.0
C175 C 0.62805 0.76345 0.52799 0.0
C176 C 0.61671 0.72625 0.51318 0.0
C177 C 0.6218 0.68966 0.51961 0.0
C178 C 0.64745 0.64211 0.57881 0.0
C179 C 0.68204 0.64425 0.59257 0.0
C180 C 0.67756 0.64082 0.61528 0.0
C181 C 0.63811 0.63467 0.62476 0.0
C182 C 0.60306 0.63152 0.61079 0.0
C183 C 0.60767 0.63509 0.58806 0.0
P184 P 0.13278 0.62855 0.87208 0.0
H185 H 0.20042 0.66279 0.83892 0.0
H186 H 0.26041 0.64795 0.8297 0.0
H187 H 0.20564 0.53503 0.87118 0.0
H188 H 0.14444 0.54943 0.87979 0.0
H189 H 0.1015 0.66872 0.83927 0.0
H190 H 1.02701 0.65618 0.82855 0.0
H191 H 0.96606 0.536 0.86498 0.0
H192 H 1.04136 0.54863 0.87551 0.0
H193 H 0.18993 0.62121 0.90698 0.0
H194 H 1.06837 0.62887 0.90264 0.0
O195 O 0.16207 0.68428 0.87022 0.0
H196 H 0.18682 0.61991 0.94681 0.0
H197 H 1.06518 0.62763 0.94249 0.0
C198 C 0.16814 0.60796 0.86049 0.0
C199 C 0.20056 0.63419 0.84573 0.0
C200 C 0.23549 0.62596 0.84067 0.0
C201 C 0.23926 0.59111 0.85021 0.0
C202 C 0.20443 0.5624 0.86356 0.0
C203 C 0.16915 0.57057 0.86851 0.0
C204 C 1.07751 0.61005 0.85852 0.0
C205 C 1.07226 0.63902 0.8446 0.0
C206 C 1.02934 0.63206 0.83865 0.0
C207 C 0.99012 0.59571 0.84634 0.0
C208 C 0.99525 0.56449 0.85876 0.0
C209 C 1.03846 0.57155 0.86474 0.0
C210 C 0.12776 0.62212 0.90144 0.0
C211 C 0.16157 0.62086 0.9144 0.0
C212 C 0.16004 0.62061 0.93731 0.0
C213 C 0.12541 0.62308 0.94786 0.0
C214 C 0.09223 0.62552 0.93491 0.0
C215 C 0.09361 0.62539 0.912 0.0
P216 P 0.12996 0.5027 0.42637 0.0
H217 H 0.16328 0.49358 0.46902 0.0
H218 H 0.22853 0.54773 0.49266 0.0
H219 H 0.28129 0.63303 0.43816 0.0
H220 H 0.21585 0.58053 0.41511 0.0
H221 H 1.03302 0.45584 0.43118 0.0
H222 H 0.98493 0.47258 0.45367 0.0
H223 H 0.10076 0.59845 0.47748 0.0
H224 H 0.14855 0.58256 0.45426 0.0
H225 H 0.18356 0.50413 0.38992 0.0
H226 H 1.07585 0.53161 0.40067 0.0
O227 O 0.11046 0.44754 0.42699 0.0
H228 H 0.18748 0.52773 0.35238 0.0
H229 H 1.07734 0.55219 0.363 0.0
C230 C 0.18488 0.53262 0.44021 0.0
C231 C 0.18993 0.523 0.46193 0.0
C232 C 0.22705 0.55392 0.47544 0.0
C233 C 0.25992 0.59433 0.46718 0.0
C234 C 0.25687 0.60171 0.44484 0.0
C235 C 0.21929 0.57145 0.43155 0.0
C236 C 0.09446 0.5171 0.44163 0.0
C237 C 1.04797 0.48728 0.441 0.0
C238 C 1.02052 0.4972 0.45361 0.0
C239 C 1.0393 0.53693 0.46721 0.0
C240 C 1.08561 0.56773 0.46708 0.0
C241 C 0.1129 0.55825 0.45403 0.0
C242 C 0.13022 0.51706 0.39827 0.0
C243 C 0.16048 0.51484 0.38412 0.0
C244 C 0.16235 0.52799 0.36258 0.0
C245 C 0.13297 0.54236 0.3546 0.0
C246 C 0.1014 0.54265 0.36867 0.0
C247 C 0.10023 0.53038 0.3903 0.0
P248 P 0.70513 1.04857 0.76146 0.0
H249 H 0.73278 0.07597 0.80758 0.0
H250 H 0.74605 0.14336 0.82906 0.0
H251 H 0.74828 0.20706 0.76889 0.0
H252 H 0.73475 0.14016 0.7477 0.0
H253 H 0.65643 0.95143 0.76556 0.0
H254 H 0.59337 0.90238 0.78731 0.0
H255 H 0.57928 1.0156 0.80859 0.0
H256 H 0.6419 0.06438 0.78638 0.0
H257 H 0.75479 0.06876 0.72154 0.0
H258 H 0.62357 1.04091 0.74042 0.0
O259 O 0.74037 1.02845 0.76201 0.0
H260 H 0.73732 0.08206 0.68426 0.0
H261 H 0.606 1.05411 0.70337 0.0
C262 C 0.73155 0.10264 0.77611 0.0
C263 C 0.73782 0.10513 0.79905 0.0
C264 C 0.74532 0.14354 0.8113 0.0
C265 C 0.74752 0.18011 0.80065 0.0
C266 C 0.7469 0.17947 0.77758 0.0
C267 C 0.73874 0.14088 0.76539 0.0
C268 C 0.65495 1.0117 0.77511 0.0
C269 C 0.63935 0.96554 0.77464 0.0
C270 C 0.60289 0.93749 0.78685 0.0
C271 C 0.58151 0.95528 0.79974 0.0
C272 C 0.59533 1.00111 0.79894 0.0
C273 C 0.63143 1.02901 0.78646 0.0
C274 C 0.69012 1.05282 0.73356 0.0
C275 C 0.72199 0.06475 0.71756 0.0
C276 C 0.71214 0.07276 0.69637 0.0
C277 C 0.67025 0.06899 0.69094 0.0
C278 C 0.63826 1.05658 0.70701 0.0
C279 C 0.64829 1.04895 0.7282 0.0
P280 P 0.52698 0.32359 0.0761 0.0
H281 H 0.53519 0.28984 0.1177 0.0
H282 H 0.60011 0.31626 0.14383 0.0
H283 H 0.68872 0.39236 0.09362 0.0
H284 H 0.62378 0.36717 0.06773 0.0
H285 H 0.43568 0.30564 0.08402 0.0
H286 H 0.40783 0.34397 0.108 0.0
H287 H 0.54444 0.43802 0.13206 0.0
H288 H 0.57195 0.40042 0.10794 0.0
H289 H 0.51204 0.29378 0.02945 0.0
H290 H 0.57344 0.41978 0.06797 0.0
O291 O 0.48802 0.26966 0.07067 0.0
H292 H 0.5277 0.33452 0.99575 0.0
H293 H 0.58923 0.46063 0.03442 0.0
C294 C 0.57468 0.32693 0.09089 0.0
C295 C 0.56874 0.31067 0.11203 0.0
C296 C 0.60569 0.32585 0.12697 0.0
C297 C 0.64907 0.35637 0.12066 0.0
C298 C 0.65547 0.36852 0.09874 0.0
C299 C 0.61836 0.35416 0.08395 0.0
C300 C 0.50572 0.34979 0.0944 0.0
C301 C 0.45948 0.33422 0.09463 0.0
C302 C 0.44366 0.35597 0.10842 0.0
C303 C 0.47401 0.39385 0.12198 0.0
C304 C 0.52029 0.40909 0.12174 0.0
C305 C 0.53598 0.38737 0.10801 0.0
C306 C 0.54095 0.35364 0.05123 0.0
C307 C 0.52897 0.33018 0.03068 0.0
C308 C 0.5381 0.35355 0.01142 0.0
C309 C 0.55942 0.40085 0.01242 0.0
C310 C 0.57205 0.42422 0.0331 0.0
C311 C 0.56314 0.40082 0.05231 0.0
H312 H 0.40711 0.59369 0.15686 0.0
H313 H 0.40066 0.36029 0.14733 0.0
H314 H 0.30096 0.47051 0.18078 0.0
H315 H 0.51053 0.48499 0.12679 0.0
H316 H 0.37013 0.40265 0.16573 0.0
H317 H 0.45274 0.55792 0.15253 0.0
C318 C 0.39384 0.55943 0.16164 0.0
C319 C 0.34994 0.53478 0.16881 0.0
C320 C 0.40129 0.42083 0.15748 0.0
C321 C 0.40145 0.49343 0.16361 0.0
C322 C 0.4185 0.39662 0.14685 0.0
C323 C 0.45777 0.41912 0.13527 0.0
C324 C 0.42322 0.46782 0.15626 0.0
C325 C 0.48013 0.46628 0.13554 0.0
C326 C 0.41983 0.539 0.15917 0.0
C327 C 0.3346 0.49077 0.17514 0.0
N328 N 0.46218 0.48901 0.14558 0.0
N329 N 0.35998 0.4712 0.17198 0.0
H330 H 0.9023 0.39842 0.56052 0.0
H331 H 0.95805 0.53265 0.46076 0.0
H332 H 0.80335 0.40125 0.51642 0.0
H333 H 1.0566 0.55037 0.51144 0.0
H334 H 0.90152 0.5103 0.48817 0.0
H335 H 0.95611 0.47557 0.55225 0.0
C336 C 0.89143 0.41588 0.54968 0.0
C337 C 0.84914 0.3928 0.53833 0.0
C338 C 0.93582 0.52052 0.49356 0.0
C339 C 0.91074 0.48029 0.52818 0.0
C340 C 0.96808 0.53337 0.47785 0.0
C341 C 1.01139 0.54168 0.48381 0.0
C342 C 0.94672 0.5141 0.51506 0.0
C343 C 1.02312 0.5431 0.50615 0.0
C344 C 0.92216 0.46002 0.54492 0.0
C345 C 0.83615 0.41734 0.52505 0.0
N346 N 0.99052 0.52779 0.52091 0.0
N347 N 0.86739 0.45929 0.51971 0.0
H348 H 0.50291 0.72904 0.85811 0.0
H349 H 0.58346 0.97862 0.84312 0.0
H350 H 0.59953 0.84144 0.90059 0.0
H351 H 0.51067 0.8685 0.79482 0.0
H352 H 0.55473 0.92568 0.87213 0.0
H353 H 0.47158 0.77444 0.84549 0.0
C354 C 0.5164 0.76267 0.86556 0.0
C355 C 0.55544 0.7823 0.87964 0.0
C356 C 0.54361 0.91323 0.85524 0.0
C357 C 0.52055 0.83475 0.86463 0.0
C358 C 0.55986 0.94352 0.83862 0.0
C359 C 0.55086 0.92753 0.81652 0.0
C360 C 0.51894 0.86684 0.84957 0.0
C361 C 0.51976 0.88185 0.81169 0.0
C362 C 0.49856 0.78874 0.85818 0.0
C363 C 0.57074 0.82574 0.88892 0.0
N364 N 0.5059 0.85283 0.82808 0.0
N365 N 0.55425 0.85113 0.88069 0.0
H366 H 0.90708 0.52251 0.19141 0.0
H367 H 0.73189 0.3631 0.12436 0.0
H368 H 0.8401 0.59737 0.17704 0.0
H369 H 0.64992 0.4106 0.15396 0.0
H370 H 0.79671 0.41856 0.14791 0.0
H371 H 0.8359 0.45261 0.18338 0.0
C372 C 0.87733 0.52443 0.18705 0.0
C373 C 0.87994 0.5661 0.18434 0.0
C374 C 0.76417 0.4158 0.14979 0.0
C375 C 0.79911 0.48609 0.17431 0.0
C376 C 0.72742 0.38439 0.1363 0.0
C377 C 0.6858 0.38235 0.13745 0.0
C378 C 0.75928 0.44601 0.16397 0.0
C379 C 0.68154 0.41102 0.15286 0.0
C380 C 0.83694 0.48442 0.18214 0.0
C381 C 0.83998 0.56608 0.17869 0.0
N382 N 0.71819 0.44255 0.16516 0.0
N383 N 0.80126 0.52662 0.17352 0.0
H384 H 0.33199 0.84702 0.51843 0.0
H385 H 0.35075 0.64979 0.46424 0.0
H386 H 0.45921 0.86264 0.50005 0.0
H387 H 0.23941 0.62763 0.50317 0.0
H388 H 0.39521 0.7256 0.48162 0.0
H389 H 0.30011 0.76538 0.517 0.0
C390 C 0.35331 0.83321 0.51441 0.0
C391 C 0.39803 0.86143 0.50909 0.0
C392 C 0.36152 0.70374 0.48687 0.0
C393 C 0.36194 0.76837 0.50723 0.0
C394 C 0.33629 0.66046 0.477 0.0
C395 C 0.29136 0.63281 0.48215 0.0
C396 C 0.34111 0.71963 0.5015 0.0
C397 C 0.27401 0.64802 0.49875 0.0
C398 C 0.33528 0.7867 0.51374 0.0
C399 C 0.4245 0.84201 0.50425 0.0
N400 N 0.29853 0.69091 0.50745 0.0
N401 N 0.40581 0.7966 0.50302 0.0
H402 H 0.57766 0.27775 0.83483 0.0
H403 H 0.79131 0.27161 0.79696 0.0
H404 H 0.69899 0.39692 0.81815 0.0
H405 H 0.68545 0.16444 0.83086 0.0
H406 H 0.76303 0.32127 0.80854 0.0
H407 H 0.61955 0.23756 0.8366 0.0
C408 C 0.61319 0.29544 0.83168 0.0
C409 C 0.63483 0.34045 0.82612 0.0
C410 C 0.74668 0.28722 0.81393 0.0
C411 C 0.68296 0.29497 0.82808 0.0
C412 C 0.76292 0.25898 0.80737 0.0
C413 C 0.74035 0.21379 0.81274 0.0
C414 C 0.70715 0.26976 0.82555 0.0
C415 C 0.70389 0.19908 0.82636 0.0
C416 C 0.63721 0.2727 0.83288 0.0
C417 C 0.68107 0.36216 0.82251 0.0
N418 N 0.68778 0.2267 0.83188 0.0
N419 N 0.70347 0.33902 0.82323 0.0
H420 H 0.69165 1.04127 0.51465 0.0
H421 H 0.56389 0.76989 0.5016 0.0
H422 H 0.55642 0.96184 0.48573 0.0
H423 H 0.68961 0.85257 0.53896 0.0
H424 H 0.56203 0.83851 0.49291 0.0
H425 H 0.6928 0.97209 0.52097 0.0
C426 C 0.66217 1.00937 0.50946 0.0
C427 C 0.62394 1.00803 0.49952 0.0
C428 C 0.59003 0.84158 0.50299 0.0
C429 C 0.62506 0.92737 0.50688 0.0
C430 C 0.59126 0.80231 0.50787 0.0
C431 C 0.62676 0.80489 0.52127 0.0
C432 C 0.62487 0.88418 0.51126 0.0
C433 C 0.66105 0.84829 0.52893 0.0
C434 C 0.66283 0.96959 0.51317 0.0
C435 C 0.58684 0.96503 0.49335 0.0
N436 N 0.65923 0.88574 0.52384 0.0
N437 N 0.58835 0.92669 0.4971 0.0
H438 H 0.70478 0.51181 0.81776 0.0
H439 H 0.97111 0.66441 0.84781 0.0
H440 H 0.7707 0.65092 0.84158 0.0
H441 H 0.90538 0.52022 0.83688 0.0
H442 H 0.89839 0.66011 0.84237 0.0
H443 H 0.77754 0.51426 0.82152 0.0
C444 C 0.73447 0.54298 0.8236 0.0
C445 C 0.73123 0.58125 0.82932 0.0
C446 C 0.89969 0.62931 0.84109 0.0
C447 C 0.81507 0.58425 0.83366 0.0
C448 C 0.9415 0.63175 0.84403 0.0
C449 C 0.94496 0.59266 0.84266 0.0
C450 C 0.86032 0.58744 0.83657 0.0
C451 C 0.90468 0.55131 0.83821 0.0
C452 C 0.77606 0.54426 0.82585 0.0
C453 C 0.77114 0.62048 0.83697 0.0
N454 N 0.86424 0.54982 0.83525 0.0
N455 N 0.81105 0.62093 0.83884 0.0
H456 H 0.29968 0.72762 0.15083 0.0
H457 H 0.42578 0.99055 0.19055 0.0
H458 H 0.23033 0.79578 0.17317 0.0
H459 H 0.49624 0.92326 0.16856 0.0
H460 H 0.35429 0.92013 0.18352 0.0
H461 H 0.37145 0.79876 0.15628 0.0
C462 C 0.29932 0.75744 0.1568 0.0
C463 C 0.25833 0.75517 0.1615 0.0
C464 C 0.38535 0.92071 0.18015 0.0
C465 C 0.34129 0.83753 0.16789 0.0
C466 C 0.42649 0.9611 0.18428 0.0
C467 C 0.46783 0.96351 0.18027 0.0
C468 C 0.38484 0.88173 0.17193 0.0
C469 C 0.46567 0.92378 0.17172 0.0
C470 C 0.34053 0.79822 0.15994 0.0
C471 C 0.26067 0.79541 0.16927 0.0
N472 N 0.42521 0.88482 0.16796 0.0
N473 N 0.30113 0.83455 0.17222 0.0
H474 H 0.54126 0.21884 0.50629 0.0
H475 H 0.68863 0.49007 0.50976 0.0
H476 H 0.68252 0.29323 0.49358 0.0
H477 H 0.54845 0.41779 0.52476 0.0
H478 H 0.68575 0.41834 0.50258 0.0
H479 H 0.54218 0.29038 0.51205 0.0
C480 C 0.57246 0.25005 0.50458 0.0
C481 C 0.61182 0.2494 0.49932 0.0
C482 C 0.65551 0.41804 0.50738 0.0
C483 C 0.61312 0.3323 0.50605 0.0
C484 C 0.65697 0.45929 0.51134 0.0
C485 C 0.61867 0.46082 0.51785 0.0
C486 C 0.61541 0.37716 0.50985 0.0
C487 C 0.57913 0.419 0.52003 0.0
C488 C 0.57296 0.29108 0.50793 0.0
C489 C 0.65116 0.29146 0.49749 0.0
N490 N 0.57856 0.37926 0.51604 0.0
N491 N 0.65076 0.33078 0.50083 0.0
H492 H 0.43591 0.49954 0.83438 0.0
H493 H 0.3273 0.65887 0.84744 0.0
H494 H 0.51101 0.64455 0.83497 0.0
H495 H 0.2469 0.51408 0.8466 0.0
H496 H 0.39419 0.65283 0.84268 0.0
H497 H 0.36643 0.50273 0.83875 0.0
C498 C 0.43795 0.53201 0.83537 0.0
C499 C 0.4798 0.57178 0.83419 0.0
C500 C 0.36199 0.62223 0.84345 0.0
C501 C 0.39999 0.57567 0.8393 0.0
C502 C 0.32336 0.62562 0.84601 0.0
C503 C 0.28063 0.58693 0.8472 0.0
C504 C 0.35867 0.57976 0.84206 0.0
C505 C 0.2788 0.54499 0.84588 0.0
C506 C 0.39816 0.53379 0.83789 0.0
C507 C 0.4799 0.61282 0.83567 0.0
N508 N 0.31703 0.54254 0.84334 0.0
N509 N 0.44097 0.6136 0.83813 0.0
H510 H 0.96597 0.5334 0.15384 0.0
H511 H 0.85169 0.27085 0.17825 0.0
H512 H 1.04228 0.4684 0.16922 0.0
H513 H 0.77836 0.3423 0.17974 0.0
H514 H 0.92013 0.34094 0.17087 0.0
H515 H 0.89619 0.46213 0.15856 0.0
C516 C 0.96827 0.50435 0.15827 0.0
C517 C 1.01064 0.50745 0.16112 0.0
C518 C 0.8891 0.34138 0.17274 0.0
C519 C 0.93001 0.42541 0.1672 0.0
C520 C 0.8497 0.30111 0.17682 0.0
C521 C 0.80864 0.30012 0.17964 0.0
C522 C 0.88796 0.38151 0.17113 0.0
C523 C 0.80899 0.34108 0.1779 0.0
C524 C 0.92821 0.46365 0.16118 0.0
C525 C 1.01079 0.46813 0.16684 0.0
N526 N 0.84773 0.37978 0.17369 0.0
N527 N 0.97142 0.42913 0.1697 0.0
H528 H 0.11803 0.6906 0.08631 0.0
H529 H 0.1416 0.57181 0.97606 0.0
H530 H 0.12811 0.57037 0.08433 0.0
H531 H 0.10729 0.67648 0.97538 0.0
H532 H 0.14088 0.57419 0.0161 0.0
H533 H 0.11749 0.68911 0.04598 0.0
C534 C 0.12004 0.6639 0.07745 0.0
C535 C 0.12306 0.63056 0.0888 0.0
C536 C 0.1334 0.59662 0.00723 0.0
C537 C 0.12277 0.62882 0.04272 0.0
C538 C 0.13407 0.59543 0.98434 0.0
C539 C 0.12449 0.62396 0.97229 0.0
C540 C 0.12342 0.62682 0.01831 0.0
C541 C 0.1144 0.65352 0.98396 0.0
C542 C 0.11968 0.66303 0.05444 0.0
C543 C 0.1256 0.59677 0.0764 0.0
N544 N 0.1143 0.65431 0.00631 0.0
N545 N 0.12555 0.5969 0.05414 0.0
H546 H 0.69614 0.13919 0.42816 0.0
H547 H 0.58011 0.12736 0.30994 0.0
H548 H 0.5642 0.12462 0.41929 0.0
H549 H 0.71357 0.14597 0.31949 0.0
H550 H 0.57392 0.12741 0.3498 0.0
H551 H 0.70295 0.14193 0.38842 0.0
C552 C 0.66853 0.13654 0.4179 0.0
C553 C 0.62949 0.13163 0.42722 0.0
C554 C 0.6046 0.13157 0.34318 0.0
C555 C 0.63717 0.13481 0.38142 0.0
C556 C 0.60831 0.13187 0.32037 0.0
C557 C 0.64741 0.13656 0.31117 0.0
C558 C 0.64022 0.13601 0.35705 0.0
C559 C 0.68247 0.14154 0.32568 0.0
C560 C 0.6725 0.13816 0.39514 0.0
C561 C 0.59495 0.12844 0.41294 0.0
N562 N 0.67801 0.14107 0.34778 0.0
N563 N 0.59958 0.13005 0.39082 0.0
H564 H 0.68343 0.66471 0.76775 0.0
H565 H 0.5633 0.57833 0.64683 0.0
H566 H 0.54819 0.55353 0.75422 0.0
H567 H 0.70227 0.68292 0.65825 0.0
H568 H 0.55642 0.57251 0.68644 0.0
H569 H 0.69028 0.67568 0.72813 0.0
C570 C 0.65509 0.64285 0.75653 0.0
C571 C 0.61523 0.60804 0.76442 0.0
C572 C 0.58846 0.59682 0.68033 0.0
C573 C 0.62288 0.6203 0.71904 0.0
C574 C 0.59234 0.60036 0.65764 0.0
C575 C 0.63345 0.63116 0.64904 0.0
C576 C 0.6259 0.62434 0.69475 0.0
C577 C 0.67005 0.65825 0.66403 0.0
C578 C 0.65908 0.64901 0.73389 0.0
C579 C 0.5797 0.58068 0.74901 0.0
N580 N 0.66542 0.65423 0.6861 0.0
N581 N 0.58441 0.58735 0.72719 0.0
H582 H 0.55563 1.05393 0.56078 0.0
H583 H 0.72499 0.13998 0.66686 0.0
H584 H 0.67756 0.18368 0.56743 0.0
H585 H 0.59281 1.02148 0.66483 0.0
H586 H 0.70812 0.15629 0.63025 0.0
H587 H 0.56769 1.04174 0.59902 0.0
C588 C 0.58465 0.08008 0.57035 0.0
C589 C 0.61578 0.11977 0.56087 0.0
C590 C 0.68271 0.12681 0.63783 0.0
C591 C 0.63005 0.10578 0.6045 0.0
C592 C 0.69248 0.11729 0.65863 0.0
C593 C 0.66034 0.07919 0.66879 0.0
C594 C 0.6406 0.09781 0.62703 0.0
C595 C 0.61844 1.05134 0.65759 0.0
C596 C 0.59155 0.07305 0.59216 0.0
C597 C 0.65274 0.15251 0.57404 0.0
N598 N 0.60986 0.06106 0.63724 0.0
N599 N 0.65907 0.14459 0.59513 0.0
H600 H 0.57674 0.57507 0.90786 0.0
H601 H 0.59158 0.38544 0.97466 0.0
H602 H 0.6215 0.48658 0.88189 0.0
H603 H 0.54844 0.47283 0.00364 0.0
H604 H 0.6047 0.42483 0.94083 0.0
H605 H 0.56868 0.54129 0.94361 0.0
C606 C 0.58514 0.54887 0.9097 0.0
C607 C 0.59948 0.53345 0.89181 0.0
C608 C 0.59243 0.43558 0.95456 0.0
C609 C 0.59029 0.49475 0.93242 0.0
C610 C 0.58468 0.41285 0.97386 0.0
C611 C 0.56861 0.42562 0.99197 0.0
C612 C 0.5839 0.47139 0.95319 0.0
C613 C 0.56113 0.46204 0.99011 0.0
C614 C 0.58045 0.52956 0.93005 0.0
C615 C 0.60992 0.49939 0.8951 0.0
N616 N 0.56861 0.48354 0.97102 0.0
N617 N 0.60497 0.48122 0.91489 0.0
H618 H 0.1932 0.59777 0.21904 0.0
H619 H 0.11855 0.60905 0.33968 0.0
H620 H 0.0966 0.64 0.23207 0.0
H621 H 0.15307 0.51004 0.31733 0.0
H622 H 0.12171 0.6321 0.30203 0.0
H623 H 0.19173 0.57821 0.2572 0.0
C624 C 0.17203 0.60342 0.22999 0.0
C625 C 0.1449 0.62051 0.22239 0.0
C626 C 0.12854 0.60534 0.30549 0.0
C627 C 0.14325 0.59823 0.26602 0.0
C628 C 0.12648 0.59186 0.32693 0.0
C629 C 0.13536 0.55727 0.33182 0.0
C630 C 0.14044 0.58477 0.28887 0.0
C631 C 0.1467 0.53731 0.31457 0.0
C632 C 0.17101 0.59193 0.2517 0.0
C633 C 0.11789 0.62676 0.23728 0.0
N634 N 0.14912 0.5515 0.2939 0.0
N635 N 0.11785 0.61574 0.25848 0.0
loop_
_geom_bond_atom_site_label_1
_geom_bond_atom_site_label_2
_geom_bond_distance
_geom_bond_site_symmetry_2
_ccdc_geom_bond_type
Tb0 C9 2.764 1_455 S
Tb0 O10 2.325 1_455 S
Tb0 O13 2.303 . S
Tb0 O17 2.322 . S
Tb0 O18 2.349 . S
Tb0 O21 2.415 1_455 S
Tb0 O22 2.399 1_455 S
Tb1 O11 2.348 . S
Tb1 O12 2.349 . S
Tb1 O14 2.415 . S
Tb1 O15 2.399 . S
Tb1 O16 2.325 . S
Tb1 O19 2.303 . S
Tb1 C30 2.764 . S
C2 O18 1.261 . S
C2 O19 1.257 . S
C3 C6 1.358 . S
C3 C7 1.332 . S
C3 C9 1.504 . S
C4 C5 1.373 . S
C4 C8 1.308 . S
C5 C4 1.373 . S
C5 C6 1.429 . S
C5 H32 0.932 . S
C6 C3 1.358 . S
C6 C5 1.429 . S
C6 H33 0.930 . S
C7 C3 1.332 . S
C7 C8 1.394 . S
C7 H34 0.932 . S
C8 C4 1.308 . S
C8 C7 1.394 . S
C8 H35 0.929 . S
C9 Tb0 2.764 1_655 S
C9 C3 1.504 . S
C9 O21 1.239 . S
C9 O22 1.263 . S
O10 Tb0 2.325 1_655 S
O10 C20 1.236 . S
O11 Tb1 2.348 . S
O11 C20 1.227 1_455 S
O12 Tb1 2.349 . S
O12 C23 1.261 . S
O13 Tb0 2.303 . S
O13 C23 1.257 . S
O14 Tb1 2.415 . S
O14 C30 1.239 . S
O15 Tb1 2.399 . S
O15 C30 1.263 . S
O16 Tb1 2.325 . S
O16 C31 1.236 . S
O17 Tb0 2.322 . S
O17 C31 1.257 . S
O18 Tb0 2.349 . S
O18 C2 1.261 . S
O19 Tb1 2.303 . S
O19 C2 1.257 . S
C20 O10 1.236 . S
C20 O11 1.227 1_655 S
O21 Tb0 2.415 1_655 S
O21 C9 1.239 . S
O22 Tb0 2.399 1_655 S
O22 C9 1.263 . S
C23 O12 1.261 . S
C23 O13 1.257 . S
C24 C27 1.358 . S
C24 C28 1.332 . S
C24 C30 1.504 . S
C25 C26 1.373 . S
C25 C29 1.308 . S
C26 C25 1.373 . S
C26 C27 1.429 . S
C26 H36 0.932 . S
C27 C24 1.358 . S
C27 C26 1.429 . S
C27 H37 0.930 . S
C28 C24 1.332 . S
C28 C29 1.394 . S
C28 H38 0.932 . S
C29 C25 1.308 . S
C29 C28 1.394 . S
C29 H39 0.929 . S
C30 Tb1 2.764 . S
C30 O14 1.239 . S
C30 O15 1.263 . S
C30 C24 1.504 . S
C31 O16 1.236 . S
C31 O17 1.257 . S
H32 C5 0.932 . S
H33 C6 0.930 . S
H34 C7 0.932 . S
H35 C8 0.929 . S
H36 C26 0.932 . S
H37 C27 0.930 . S
H38 C28 0.932 . S
H39 C29 0.929 . S
Tb40 C49 2.764 . S
Tb40 O50 2.325 . S
Tb40 O53 2.303 1_565 S
Tb40 O57 2.322 1_565 S
Tb40 O58 2.349 1_565 S
Tb40 O61 2.415 . S
Tb40 O62 2.399 . S
Tb41 O51 2.322 1_545 S
Tb41 O52 2.349 . S
Tb41 O54 2.415 . S
Tb41 O55 2.399 . S
Tb41 O56 2.325 . S
Tb41 O59 2.303 . S
Tb41 C70 2.764 . S
C42 O58 1.261 . S
C42 O59 1.257 . S
C43 C46 1.358 . S
C43 C47 1.332 . S
C43 C49 1.504 . S
C44 C45 1.373 . S
C44 C48 1.308 . S
C45 C44 1.373 . S
C45 C46 1.429 . S
C45 H72 0.932 . S
C46 C43 1.358 . S
C46 C45 1.429 . S
C46 H73 0.930 . S
C47 C43 1.332 . S
C47 C48 1.394 . S
C47 H74 0.932 . S
C48 C44 1.308 . S
C48 C47 1.394 . S
C48 H75 0.929 . S
C49 Tb40 2.764 . S
C49 C43 1.504 . S
C49 O61 1.239 . S
C49 O62 1.263 . S
O50 Tb40 2.325 . S
O50 C60 1.236 . S
O51 Tb41 2.322 1_565 S
O51 C60 1.257 . S
O52 Tb41 2.349 . S
O52 C63 1.261 . S
O53 Tb40 2.303 1_545 S
O53 C63 1.257 . S
O54 Tb41 2.415 . S
O54 C70 1.239 . S
O55 Tb41 2.399 . S
O55 C70 1.263 . S
O56 Tb41 2.325 . S
O56 C71 1.236 . S
O57 Tb40 2.322 1_545 S
O57 C71 1.257 . S
O58 Tb40 2.349 1_545 S
O58 C42 1.261 . S
O59 Tb41 2.303 . S
O59 C42 1.257 . S
C60 O50 1.236 . S
C60 O51 1.257 . S
O61 Tb40 2.415 . S
O61 C49 1.239 . S
O62 Tb40 2.399 . S
O62 C49 1.263 . S
C63 O52 1.261 . S
C63 O53 1.257 . S
C64 C67 1.358 . S
C64 C68 1.332 . S
C64 C70 1.504 . S
C65 C66 1.373 . S
C65 C69 1.308 . S
C66 C65 1.373 . S
C66 C67 1.429 . S
C66 H76 0.932 . S
C67 C64 1.358 . S
C67 C66 1.429 . S
C67 H77 0.930 . S
C68 C64 1.332 . S
C68 C69 1.394 . S
C68 H78 0.932 . S
C69 C65 1.308 . S
C69 C68 1.394 . S
C69 H79 0.929 . S
C70 Tb41 2.764 . S
C70 O54 1.239 . S
C70 O55 1.263 . S
C70 C64 1.504 . S
C71 O56 1.236 . S
C71 O57 1.257 . S
H72 C45 0.932 . S
H73 C46 0.930 . S
H74 C47 0.932 . S
H75 C48 0.929 . S
H76 C66 0.932 . S
H77 C67 0.930 . S
H78 C68 0.932 . S
H79 C69 0.929 . S
Tb80 C89 2.764 . S
Tb80 O90 2.325 . S
Tb80 O93 2.303 . S
Tb80 O97 2.322 . S
Tb80 O98 2.349 . S
Tb80 O101 2.415 . S
Tb80 O102 2.399 . S
Tb81 O91 2.322 . S
Tb81 O92 2.349 . S
Tb81 O94 2.415 . S
Tb81 O95 2.399 . S
Tb81 O96 2.325 . S
Tb81 O99 2.303 . S
Tb81 C110 2.764 . S
C82 O98 1.261 . S
C82 O99 1.257 . S
C83 C86 1.358 . S
C83 C87 1.332 . S
C83 C89 1.504 . S
C84 C85 1.373 . S
C84 C88 1.308 . S
C85 C84 1.373 . S
C85 C86 1.429 . S
C85 H112 0.932 . S
C86 C83 1.358 . S
C86 C85 1.429 . S
C86 H113 0.930 . S
C87 C83 1.332 . S
C87 C88 1.394 . S
C87 H114 0.932 . S
C88 C84 1.308 . S
C88 C87 1.394 . S
C88 H115 0.929 . S
C89 Tb80 2.764 . S
C89 C83 1.504 . S
C89 O101 1.239 . S
C89 O102 1.263 . S
O90 Tb80 2.325 . S
O90 C100 1.236 . S
O91 Tb81 2.322 . S
O91 C100 1.257 . S
O92 Tb81 2.349 . S
O92 C103 1.261 . S
O93 Tb80 2.303 . S
O93 C103 1.257 . S
O94 Tb81 2.415 . S
O94 C110 1.239 . S
O95 Tb81 2.399 . S
O95 C110 1.263 . S
O96 Tb81 2.325 . S
O96 C111 1.236 . S
O97 Tb80 2.322 . S
O97 C111 1.257 . S
O98 Tb80 2.349 . S
O98 C82 1.261 . S
O99 Tb81 2.303 . S
O99 C82 1.257 . S
C100 O90 1.236 . S
C100 O91 1.257 . S
O101 Tb80 2.415 . S
O101 C89 1.239 . S
O102 Tb80 2.399 . S
O102 C89 1.263 . S
C103 O92 1.261 . S
C103 O93 1.257 . S
C104 C107 1.358 . S
C104 C108 1.332 . S
C104 C110 1.504 . S
C105 C106 1.373 . S
C105 C109 1.308 . S
C106 C105 1.373 . S
C106 C107 1.429 . S
C106 H116 0.932 . S
C107 C104 1.358 . S
C107 C106 1.429 . S
C107 H117 0.930 . S
C108 C104 1.332 . S
C108 C109 1.394 . S
C108 H118 0.932 . S
C109 C105 1.308 . S
C109 C108 1.394 . S
C109 H119 0.929 . S
C110 Tb81 2.764 . S
C110 O94 1.239 . S
C110 O95 1.263 . S
C110 C104 1.504 . S
C111 O96 1.236 . S
C111 O97 1.257 . S
H112 C85 0.932 . S
H113 C86 0.930 . S
H114 C87 0.932 . S
H115 C88 0.929 . S
H116 C106 0.932 . S
H117 C107 0.930 . S
H118 C108 0.932 . S
H119 C109 0.929 . S
P120 O131 1.490 1_545 S
P120 C134 1.812 1_545 S
P120 C140 1.803 . S
P120 C146 1.819 . S
H121 C135 0.941 . S
H122 C136 0.939 . S
H123 C138 0.940 . S
H124 C139 0.940 . S
H125 C141 0.939 . S
H126 C142 0.942 . S
H127 C144 0.940 . S
H128 C145 0.939 . S
H129 C147 0.941 . S
H130 C151 0.939 . S
O131 P120 1.490 1_565 S
H132 C148 0.939 . S
H133 C150 0.940 . S
C134 P120 1.812 1_565 S
C134 C135 1.389 . S
C134 C139 1.391 . S
C135 H121 0.941 . S
C135 C134 1.389 . S
C135 C136 1.397 . S
C136 H122 0.939 . S
C136 C135 1.397 . S
C136 C137 1.378 . S
C137 C136 1.378 . S
C137 C138 1.378 . S
C138 H123 0.940 . S
C138 C137 1.378 . S
C138 C139 1.396 . S
C139 H124 0.940 . S
C139 C134 1.391 . S
C139 C138 1.396 . S
C140 P120 1.803 . S
C140 C141 1.378 . S
C140 C145 1.400 . S
C141 H125 0.939 . S
C141 C140 1.378 . S
C141 C142 1.361 . S
C142 H126 0.942 . S
C142 C141 1.361 . S
C142 C143 1.369 . S
C143 C142 1.369 . S
C143 C144 1.404 . S
C144 H127 0.940 . S
C144 C143 1.404 . S
C144 C145 1.389 . S
C145 H128 0.939 . S
C145 C140 1.400 . S
C145 C144 1.389 . S
C146 P120 1.819 . S
C146 C147 1.391 1_545 S
C146 C151 1.391 . S
C147 H129 0.941 . S
C147 C146 1.391 1_565 S
C147 C148 1.396 . S
C148 H132 0.939 . S
C148 C147 1.396 . S
C148 C149 1.397 1_565 S
C149 C148 1.397 1_545 S
C149 C150 1.385 . S
C150 H133 0.940 . S
C150 C149 1.385 . S
C150 C151 1.388 . S
C151 H130 0.939 . S
C151 C146 1.391 . S
C151 C150 1.388 . S
P152 O163 1.490 . S
P152 C166 1.812 . S
P152 C172 1.803 . S
P152 C178 1.819 . S
H153 C167 0.941 . S
H154 C168 0.939 . S
H155 C170 0.940 . S
H156 C171 0.940 . S
H157 C173 0.939 . S
H158 C174 0.942 . S
H159 C176 0.940 . S
H160 C177 0.939 . S
H161 C179 0.941 . S
H162 C183 0.939 . S
O163 P152 1.490 . S
H164 C180 0.939 . S
H165 C182 0.940 . S
C166 P152 1.812 . S
C166 C167 1.389 . S
C166 C171 1.391 . S
C167 H153 0.941 . S
C167 C166 1.389 . S
C167 C168 1.397 . S
C168 H154 0.939 . S
C168 C167 1.397 . S
C168 C169 1.378 . S
C169 C168 1.378 . S
C169 C170 1.378 . S
C170 H155 0.940 . S
C170 C169 1.378 . S
C170 C171 1.396 . S
C171 H156 0.940 . S
C171 C166 1.391 . S
C171 C170 1.396 . S
C172 P152 1.803 . S
C172 C173 1.378 . S
C172 C177 1.400 . S
C173 H157 0.939 . S
C173 C172 1.378 . S
C173 C174 1.361 . S
C174 H158 0.942 . S
C174 C173 1.361 . S
C174 C175 1.369 . S
C175 C174 1.369 . S
C175 C176 1.404 . S
C176 H159 0.940 . S
C176 C175 1.404 . S
C176 C177 1.389 . S
C177 H160 0.939 . S
C177 C172 1.400 . S
C177 C176 1.389 . S
C178 P152 1.819 . S
C178 C179 1.391 . S
C178 C183 1.391 . S
C179 H161 0.941 . S
C179 C178 1.391 . S
C179 C180 1.396 . S
C180 H164 0.939 . S
C180 C179 1.396 . S
C180 C181 1.397 . S
C181 C180 1.397 . S
C181 C182 1.385 . S
C182 H165 0.940 . S
C182 C181 1.385 . S
C182 C183 1.388 . S
C183 H162 0.939 . S
C183 C178 1.391 . S
C183 C182 1.388 . S
P184 O195 1.490 . S
P184 C198 1.812 . S
P184 C204 1.803 . S
P184 C210 1.819 . S
H185 C199 0.941 . S
H186 C200 0.939 . S
H187 C202 0.940 . S
H188 C203 0.940 . S
H189 C205 0.939 . S
H190 C206 0.942 . S
H191 C208 0.940 . S
H192 C209 0.939 . S
H193 C211 0.941 . S
H194 C215 0.939 . S
O195 P184 1.490 . S
H196 C212 0.939 . S
H197 C214 0.940 . S
C198 P184 1.812 . S
C198 C199 1.389 . S
C198 C203 1.391 . S
C199 H185 0.941 . S
C199 C198 1.389 . S
C199 C200 1.397 . S
C200 H186 0.939 . S
C200 C199 1.397 . S
C200 C201 1.378 . S
C201 C200 1.378 . S
C201 C202 1.378 . S
C202 H187 0.940 . S
C202 C201 1.378 . S
C202 C203 1.396 . S
C203 H188 0.940 . S
C203 C198 1.391 . S
C203 C202 1.396 . S
C204 P184 1.803 . S
C204 C205 1.378 . S
C204 C209 1.400 . S
C205 H189 0.939 . S
C205 C204 1.378 . S
C205 C206 1.361 1_455 S
C206 H190 0.942 . S
C206 C205 1.361 1_655 S
C206 C207 1.369 . S
C207 C206 1.369 . S
C207 C208 1.404 . S
C208 H191 0.940 . S
C208 C207 1.404 . S
C208 C209 1.389 1_655 S
C209 H192 0.939 . S
C209 C204 1.400 . S
C209 C208 1.389 1_455 S
C210 P184 1.819 . S
C210 C211 1.391 . S
C210 C215 1.391 . S
C211 H193 0.941 . S
C211 C210 1.391 . S
C211 C212 1.396 . S
C212 H196 0.939 . S
C212 C211 1.396 . S
C212 C213 1.397 . S
C213 C212 1.397 . S
C213 C214 1.385 . S
C214 H197 0.940 . S
C214 C213 1.385 . S
C214 C215 1.388 . S
C215 H194 0.939 . S
C215 C210 1.391 . S
C215 C214 1.388 . S
P216 O227 1.490 . S
P216 C230 1.812 . S
P216 C236 1.803 1_455 S
P216 C242 1.819 . S
H217 C231 0.941 . S
H218 C232 0.939 . S
H219 C234 0.940 . S
H220 C235 0.940 . S
H221 C237 0.939 . S
H222 C238 0.942 . S
H223 C240 0.940 . S
H224 C241 0.939 . S
H225 C243 0.941 . S
H226 C247 0.939 . S
O227 P216 1.490 . S
H228 C244 0.939 . S
H229 C246 0.940 . S
C230 P216 1.812 . S
C230 C231 1.389 . S
C230 C235 1.391 . S
C231 H217 0.941 . S
C231 C230 1.389 . S
C231 C232 1.397 . S
C232 H218 0.939 . S
C232 C231 1.397 . S
C232 C233 1.378 . S
C233 C232 1.378 . S
C233 C234 1.378 . S
C234 H219 0.940 . S
C234 C233 1.378 . S
C234 C235 1.396 . S
C235 H220 0.940 . S
C235 C230 1.391 . S
C235 C234 1.396 . S
C236 P216 1.803 1_655 S
C236 C237 1.378 . S
C236 C241 1.400 . S
C237 H221 0.939 . S
C237 C236 1.378 . S
C237 C238 1.361 . S
C238 H222 0.942 . S
C238 C237 1.361 . S
C238 C239 1.369 . S
C239 C238 1.369 . S
C239 C240 1.404 . S
C240 H223 0.940 . S
C240 C239 1.404 . S
C240 C241 1.389 . S
C241 H224 0.939 . S
C241 C236 1.400 . S
C241 C240 1.389 . S
C242 P216 1.819 . S
C242 C243 1.391 . S
C242 C247 1.391 1_455 S
C243 H225 0.941 . S
C243 C242 1.391 . S
C243 C244 1.396 . S
C244 H228 0.939 . S
C244 C243 1.396 . S
C244 C245 1.397 . S
C245 C244 1.397 . S
C245 C246 1.385 1_455 S
C246 H229 0.940 . S
C246 C245 1.385 1_655 S
C246 C247 1.388 . S
C247 H226 0.939 . S
C247 C242 1.391 1_655 S
C247 C246 1.388 . S
P248 O259 1.490 . S
P248 C262 1.812 . S
P248 C268 1.803 1_545 S
P248 C274 1.819 . S
H249 C263 0.941 . S
H250 C264 0.939 . S
H251 C266 0.940 . S
H252 C267 0.940 . S
H253 C269 0.939 . S
H254 C270 0.942 . S
H255 C272 0.940 . S
H256 C273 0.939 . S
H257 C275 0.941 . S
H258 C279 0.939 . S
O259 P248 1.490 . S
H260 C276 0.939 . S
H261 C278 0.940 . S
C262 P248 1.812 . S
C262 C263 1.389 . S
C262 C267 1.391 . S
C263 H249 0.941 . S
C263 C262 1.389 . S
C263 C264 1.397 . S
C264 H250 0.939 . S
C264 C263 1.397 . S
C264 C265 1.378 . S
C265 C264 1.378 . S
C265 C266 1.378 . S
C266 H251 0.940 . S
C266 C265 1.378 . S
C266 C267 1.396 . S
C267 H252 0.940 . S
C267 C262 1.391 . S
C267 C266 1.396 . S
C268 P248 1.803 1_565 S
C268 C269 1.378 . S
C268 C273 1.400 . S
C269 H253 0.939 . S
C269 C268 1.378 . S
C269 C270 1.361 . S
C270 H254 0.942 . S
C270 C269 1.361 . S
C270 C271 1.369 . S
C271 C270 1.369 . S
C271 C272 1.404 . S
C272 H255 0.940 . S
C272 C271 1.404 . S
C272 C273 1.389 . S
C273 H256 0.939 . S
C273 C268 1.400 . S
C273 C272 1.389 . S
C274 P248 1.819 . S
C274 C275 1.391 . S
C274 C279 1.391 1_545 S
C275 H257 0.941 . S
C275 C274 1.391 . S
C275 C276 1.396 . S
C276 H260 0.939 . S
C276 C275 1.396 . S
C276 C277 1.391 1_545 S
C277 C276 1.391 1_565 S
C277 C278 1.391 . S
C278 H261 0.940 . S
C278 C277 1.391 . S
C278 C279 1.388 . S
C279 H258 0.939 . S
C279 C274 1.391 1_565 S
C279 C278 1.388 . S
P280 O291 1.490 . S
P280 C294 1.812 . S
P280 C300 1.803 . S
P280 C306 1.819 . S
H281 C295 0.941 . S
H282 C296 0.939 . S
H283 C298 0.940 . S
H284 C299 0.940 . S
H285 C301 0.939 . S
H286 C302 0.942 . S
H287 C304 0.940 . S
H288 C305 0.939 . S
H289 C307 0.941 . S
H290 C311 0.939 . S
O291 P280 1.490 . S
H292 C308 0.939 . S
H293 C310 0.940 . S
C294 P280 1.812 . S
C294 C295 1.389 . S
C294 C299 1.391 . S
C295 H281 0.941 . S
C295 C294 1.389 . S
C295 C296 1.397 . S
C296 H282 0.939 . S
C296 C295 1.397 . S
C296 C297 1.378 . S
C297 C296 1.378 . S
C297 C298 1.378 . S
C298 H283 0.940 . S
C298 C297 1.378 . S
C298 C299 1.396 . S
C299 H284 0.940 . S
C299 C294 1.391 . S
C299 C298 1.396 . S
C300 P280 1.803 . S
C300 C301 1.378 . S
C300 C305 1.400 . S
C301 H285 0.939 . S
C301 C300 1.378 . S
C301 C302 1.361 . S
C302 H286 0.942 . S
C302 C301 1.361 . S
C302 C303 1.369 . S
C303 C302 1.369 . S
C303 C304 1.404 . S
C304 H287 0.940 . S
C304 C303 1.404 . S
C304 C305 1.389 . S
C305 H288 0.939 . S
C305 C300 1.400 . S
C305 C304 1.389 . S
C306 P280 1.819 . S
C306 C307 1.391 . S
C306 C311 1.391 . S
C307 H289 0.941 . S
C307 C306 1.391 . S
C307 C308 1.396 . S
C308 H292 0.939 . S
C308 C307 1.396 . S
C308 C309 1.397 . S
C309 C308 1.397 . S
C309 C310 1.385 . S
C310 H293 0.940 . S
C310 C309 1.385 . S
C310 C311 1.388 . S
C311 H290 0.939 . S
C311 C306 1.391 . S
C311 C310 1.388 . S
H312 C318 0.930 . S
H313 C322 0.930 . S
H314 C327 0.929 . S
H315 C325 0.929 . S
H316 C320 0.929 . S
H317 C326 0.929 . S
C318 H312 0.930 . S
C318 C319 1.367 . S
C318 C326 1.378 . S
C319 C318 1.367 . S
C319 C327 1.433 . S
C320 H316 0.929 . S
C320 C322 1.378 . S
C320 C324 1.350 . S
C321 C324 1.463 . S
C321 C326 1.350 . S
C321 N329 1.427 . S
C322 H313 0.930 . S
C322 C320 1.378 . S
C322 C323 1.367 . S
C323 C322 1.367 . S
C323 C325 1.433 . S
C324 C320 1.350 . S
C324 C321 1.463 . S
C324 N328 1.427 . S
C325 H315 0.929 . S
C325 C323 1.433 . S
C325 N328 1.384 . S
C326 H317 0.929 . S
C326 C318 1.378 . S
C326 C321 1.350 . S
C327 H314 0.929 . S
C327 C319 1.433 . S
C327 N329 1.384 . S
N328 C324 1.427 . S
N328 C325 1.384 . S
N329 C321 1.427 . S
N329 C327 1.384 . S
H330 C336 0.930 . S
H331 C340 0.930 . S
H332 C345 0.929 . S
H333 C343 0.929 . S
H334 C338 0.929 . S
H335 C344 0.929 . S
C336 H330 0.930 . S
C336 C337 1.367 . S
C336 C344 1.378 . S
C337 C336 1.367 . S
C337 C345 1.433 . S
C338 H334 0.929 . S
C338 C340 1.378 . S
C338 C342 1.350 . S
C339 C342 1.463 . S
C339 C344 1.350 . S
C339 N347 1.427 . S
C340 H331 0.930 . S
C340 C338 1.378 . S
C340 C341 1.367 . S
C341 C340 1.367 . S
C341 C343 1.433 . S
C342 C338 1.350 . S
C342 C339 1.463 . S
C342 N346 1.427 . S
C343 H333 0.929 . S
C343 C341 1.433 . S
C343 N346 1.384 . S
C344 H335 0.929 . S
C344 C336 1.378 . S
C344 C339 1.350 . S
C345 H332 0.929 . S
C345 C337 1.433 . S
C345 N347 1.384 . S
N346 C342 1.427 . S
N346 C343 1.384 . S
N347 C339 1.427 . S
N347 C345 1.384 . S
H348 C354 0.930 . S
H349 C358 0.930 . S
H350 C363 0.929 . S
H351 C361 0.929 . S
H352 C356 0.929 . S
H353 C362 0.929 . S
C354 H348 0.930 . S
C354 C355 1.367 . S
C354 C362 1.378 . S
C355 C354 1.367 . S
C355 C363 1.433 . S
C356 H352 0.929 . S
C356 C358 1.378 . S
C356 C360 1.350 . S
C357 C360 1.463 . S
C357 C362 1.350 . S
C357 N365 1.427 . S
C358 H349 0.930 . S
C358 C356 1.378 . S
C358 C359 1.367 . S
C359 C358 1.367 . S
C359 C361 1.433 . S
C360 C356 1.350 . S
C360 C357 1.463 . S
C360 N364 1.427 . S
C361 H351 0.929 . S
C361 C359 1.433 . S
C361 N364 1.384 . S
C362 H353 0.929 . S
C362 C354 1.378 . S
C362 C357 1.350 . S
C363 H350 0.929 . S
C363 C355 1.433 . S
C363 N365 1.384 . S
N364 C360 1.427 . S
N364 C361 1.384 . S
N365 C357 1.427 . S
N365 C363 1.384 . S
H366 C372 0.930 . S
H367 C376 0.930 . S
H368 C381 0.929 . S
H369 C379 0.929 . S
H370 C374 0.929 . S
H371 C380 0.929 . S
C372 H366 0.930 . S
C372 C373 1.367 . S
C372 C380 1.378 . S
C373 C372 1.367 . S
C373 C381 1.433 . S
C374 H370 0.929 . S
C374 C376 1.378 . S
C374 C378 1.350 . S
C375 C378 1.463 . S
C375 C380 1.350 . S
C375 N383 1.427 . S
C376 H367 0.930 . S
C376 C374 1.378 . S
C376 C377 1.367 . S
C377 C376 1.367 . S
C377 C379 1.433 . S
C378 C374 1.350 . S
C378 C375 1.463 . S
C378 N382 1.427 . S
C379 H369 0.929 . S
C379 C377 1.433 . S
C379 N382 1.384 . S
C380 H371 0.929 . S
C380 C372 1.378 . S
C380 C375 1.350 . S
C381 H368 0.929 . S
C381 C373 1.433 . S
C381 N383 1.384 . S
N382 C378 1.427 . S
N382 C379 1.384 . S
N383 C375 1.427 . S
N383 C381 1.384 . S
H384 C390 0.930 . S
H385 C394 0.930 . S
H386 C399 0.929 . S
H387 C397 0.929 . S
H388 C392 0.929 . S
H389 C398 0.929 . S
C390 H384 0.930 . S
C390 C391 1.367 . S
C390 C398 1.378 . S
C391 C390 1.367 . S
C391 C399 1.433 . S
C392 H388 0.929 . S
C392 C394 1.378 . S
C392 C396 1.350 . S
C393 C396 1.463 . S
C393 C398 1.350 . S
C393 N401 1.427 . S
C394 H385 0.930 . S
C394 C392 1.378 . S
C394 C395 1.367 . S
C395 C394 1.367 . S
C395 C397 1.433 . S
C396 C392 1.350 . S
C396 C393 1.463 . S
C396 N400 1.427 . S
C397 H387 0.929 . S
C397 C395 1.433 . S
C397 N400 1.384 . S
C398 H389 0.929 . S
C398 C390 1.378 . S
C398 C393 1.350 . S
C399 H386 0.929 . S
C399 C391 1.433 . S
C399 N401 1.384 . S
N400 C396 1.427 . S
N400 C397 1.384 . S
N401 C393 1.427 . S
N401 C399 1.384 . S
H402 C408 0.930 . S
H403 C412 0.930 . S
H404 C417 0.929 . S
H405 C415 0.929 . S
H406 C410 0.929 . S
H407 C416 0.929 . S
C408 H402 0.930 . S
C408 C409 1.367 . S
C408 C416 1.378 . S
C409 C408 1.367 . S
C409 C417 1.433 . S
C410 H406 0.929 . S
C410 C412 1.378 . S
C410 C414 1.350 . S
C411 C414 1.463 . S
C411 C416 1.350 . S
C411 N419 1.427 . S
C412 H403 0.930 . S
C412 C410 1.378 . S
C412 C413 1.367 . S
C413 C412 1.367 . S
C413 C415 1.433 . S
C414 C410 1.350 . S
C414 C411 1.463 . S
C414 N418 1.427 . S
C415 H405 0.929 . S
C415 C413 1.433 . S
C415 N418 1.384 . S
C416 H407 0.929 . S
C416 C408 1.378 . S
C416 C411 1.350 . S
C417 H404 0.929 . S
C417 C409 1.433 . S
C417 N419 1.384 . S
N418 C414 1.427 . S
N418 C415 1.384 . S
N419 C411 1.427 . S
N419 C417 1.384 . S
H420 C426 0.930 . S
H421 C430 0.930 . S
H422 C435 0.929 . S
H423 C433 0.929 . S
H424 C428 0.929 . S
H425 C434 0.929 . S
C426 H420 0.930 . S
C426 C427 1.367 . S
C426 C434 1.378 . S
C427 C426 1.367 . S
C427 C435 1.433 . S
C428 H424 0.929 . S
C428 C430 1.378 . S
C428 C432 1.350 . S
C429 C432 1.463 . S
C429 C434 1.350 . S
C429 N437 1.427 . S
C430 H421 0.930 . S
C430 C428 1.378 . S
C430 C431 1.367 . S
C431 C430 1.367 . S
C431 C433 1.433 . S
C432 C428 1.350 . S
C432 C429 1.463 . S
C432 N436 1.427 . S
C433 H423 0.929 . S
C433 C431 1.433 . S
C433 N436 1.384 . S
C434 H425 0.929 . S
C434 C426 1.378 . S
C434 C429 1.350 . S
C435 H422 0.929 . S
C435 C427 1.433 . S
C435 N437 1.384 . S
N436 C432 1.427 . S
N436 C433 1.384 . S
N437 C429 1.427 . S
N437 C435 1.384 . S
H438 C444 0.930 . S
H439 C448 0.930 . S
H440 C453 0.929 . S
H441 C451 0.929 . S
H442 C446 0.929 . S
H443 C452 0.929 . S
C444 H438 0.930 . S
C444 C445 1.367 . S
C444 C452 1.378 . S
C445 C444 1.367 . S
C445 C453 1.433 . S
C446 H442 0.929 . S
C446 C448 1.378 . S
C446 C450 1.350 . S
C447 C450 1.463 . S
C447 C452 1.350 . S
C447 N455 1.427 . S
C448 H439 0.930 . S
C448 C446 1.378 . S
C448 C449 1.367 . S
C449 C448 1.367 . S
C449 C451 1.433 . S
C450 C446 1.350 . S
C450 C447 1.463 . S
C450 N454 1.427 . S
C451 H441 0.929 . S
C451 C449 1.433 . S
C451 N454 1.384 . S
C452 H443 0.929 . S
C452 C444 1.378 . S
C452 C447 1.350 . S
C453 H440 0.929 . S
C453 C445 1.433 . S
C453 N455 1.384 . S
N454 C450 1.427 . S
N454 C451 1.384 . S
N455 C447 1.427 . S
N455 C453 1.384 . S
H456 C462 0.930 . S
H457 C466 0.930 . S
H458 C471 0.929 . S
H459 C469 0.929 . S
H460 C464 0.929 . S
H461 C470 0.929 . S
C462 H456 0.930 . S
C462 C463 1.367 . S
C462 C470 1.378 . S
C463 C462 1.367 . S
C463 C471 1.433 . S
C464 H460 0.929 . S
C464 C466 1.378 . S
C464 C468 1.350 . S
C465 C468 1.463 . S
C465 C470 1.350 . S
C465 N473 1.427 . S
C466 H457 0.930 . S
C466 C464 1.378 . S
C466 C467 1.367 . S
C467 C466 1.367 . S
C467 C469 1.433 . S
C468 C464 1.350 . S
C468 C465 1.463 . S
C468 N472 1.427 . S
C469 H459 0.929 . S
C469 C467 1.433 . S
C469 N472 1.384 . S
C470 H461 0.929 . S
C470 C462 1.378 . S
C470 C465 1.350 . S
C471 H458 0.929 . S
C471 C463 1.433 . S
C471 N473 1.384 . S
N472 C468 1.427 . S
N472 C469 1.384 . S
N473 C465 1.427 . S
N473 C471 1.384 . S
H474 C480 0.930 . S
H475 C484 0.930 . S
H476 C489 0.929 . S
H477 C487 0.929 . S
H478 C482 0.929 . S
H479 C488 0.929 . S
C480 H474 0.930 . S
C480 C481 1.367 . S
C480 C488 1.378 . S
C481 C480 1.367 . S
C481 C489 1.433 . S
C482 H478 0.929 . S
C482 C484 1.378 . S
C482 C486 1.350 . S
C483 C486 1.463 . S
C483 C488 1.350 . S
C483 N491 1.427 . S
C484 H475 0.930 . S
C484 C482 1.378 . S
C484 C485 1.367 . S
C485 C484 1.367 . S
C485 C487 1.433 . S
C486 C482 1.350 . S
C486 C483 1.463 . S
C486 N490 1.427 . S
C487 H477 0.929 . S
C487 C485 1.433 . S
C487 N490 1.384 . S
C488 H479 0.929 . S
C488 C480 1.378 . S
C488 C483 1.350 . S
C489 H476 0.929 . S
C489 C481 1.433 . S
C489 N491 1.384 . S
N490 C486 1.427 . S
N490 C487 1.384 . S
N491 C483 1.427 . S
N491 C489 1.384 . S
H492 C498 0.930 . S
H493 C502 0.930 . S
H494 C507 0.929 . S
H495 C505 0.929 . S
H496 C500 0.929 . S
H497 C506 0.929 . S
C498 H492 0.930 . S
C498 C499 1.367 . S
C498 C506 1.378 . S
C499 C498 1.367 . S
C499 C507 1.433 . S
C500 H496 0.929 . S
C500 C502 1.378 . S
C500 C504 1.350 . S
C501 C504 1.463 . S
C501 C506 1.350 . S
C501 N509 1.427 . S
C502 H493 0.930 . S
C502 C500 1.378 . S
C502 C503 1.367 . S
C503 C502 1.367 . S
C503 C505 1.433 . S
C504 C500 1.350 . S
C504 C501 1.463 . S
C504 N508 1.427 . S
C505 H495 0.929 . S
C505 C503 1.433 . S
C505 N508 1.384 . S
C506 H497 0.929 . S
C506 C498 1.378 . S
C506 C501 1.350 . S
C507 H494 0.929 . S
C507 C499 1.433 . S
C507 N509 1.384 . S
N508 C504 1.427 . S
N508 C505 1.384 . S
N509 C501 1.427 . S
N509 C507 1.384 . S
H510 C516 0.930 . S
H511 C520 0.930 . S
H512 C525 0.929 . S
H513 C523 0.929 . S
H514 C518 0.929 . S
H515 C524 0.929 . S
C516 H510 0.930 . S
C516 C517 1.367 . S
C516 C524 1.378 . S
C517 C516 1.367 . S
C517 C525 1.433 . S
C518 H514 0.929 . S
C518 C520 1.378 . S
C518 C522 1.350 . S
C519 C522 1.463 . S
C519 C524 1.350 . S
C519 N527 1.427 . S
C520 H511 0.930 . S
C520 C518 1.378 . S
C520 C521 1.367 . S
C521 C520 1.367 . S
C521 C523 1.433 . S
C522 C518 1.350 . S
C522 C519 1.463 . S
C522 N526 1.427 . S
C523 H513 0.929 . S
C523 C521 1.433 . S
C523 N526 1.384 . S
C524 H515 0.929 . S
C524 C516 1.378 . S
C524 C519 1.350 . S
C525 H512 0.929 . S
C525 C517 1.433 . S
C525 N527 1.384 . S
N526 C522 1.427 . S
N526 C523 1.384 . S
N527 C519 1.427 . S
N527 C525 1.384 . S
H528 C534 0.930 1_655 S
H529 C538 0.930 1_556 S
H530 C543 0.929 . S
H531 C541 0.929 1_655 S
H532 C536 0.929 . S
H533 C542 0.929 1_655 S
C534 H528 0.930 1_455 S
C534 C535 1.367 . S
C534 C542 1.378 . S
C535 C534 1.367 . S
C535 C543 1.433 . S
C536 H532 0.929 . S
C536 C538 1.378 . S
C536 C540 1.350 . S
C537 C540 1.463 . S
C537 C542 1.350 . S
C537 N545 1.427 . S
C538 H529 0.930 1_554 S
C538 C536 1.378 . S
C538 C539 1.367 1_554 S
C539 C538 1.367 1_556 S
C539 C541 1.433 . S
C540 C536 1.350 . S
C540 C537 1.463 . S
C540 N544 1.427 . S
C541 H531 0.929 1_455 S
C541 C539 1.433 . S
C541 N544 1.384 1_556 S
C542 H533 0.929 1_455 S
C542 C534 1.378 . S
C542 C537 1.350 . S
C543 H530 0.929 . S
C543 C535 1.433 . S
C543 N545 1.384 . S
N544 C540 1.427 . S
N544 C541 1.384 1_554 S
N545 C537 1.427 . S
N545 C543 1.384 . S
H546 C552 0.930 1_565 S
H547 C556 0.930 . S
H548 C561 0.929 . S
H549 C559 0.929 1_565 S
H550 C554 0.929 . S
H551 C560 0.929 1_565 S
C552 H546 0.930 1_545 S
C552 C553 1.367 . S
C552 C560 1.378 . S
C553 C552 1.367 . S
C553 C561 1.433 . S
C554 H550 0.929 . S
C554 C556 1.378 . S
C554 C558 1.350 . S
C555 C558 1.463 . S
C555 C560 1.350 . S
C555 N563 1.427 . S
C556 H547 0.930 . S
C556 C554 1.378 . S
C556 C557 1.367 . S
C557 C556 1.367 . S
C557 C559 1.433 . S
C558 C554 1.350 . S
C558 C555 1.463 . S
C558 N562 1.427 . S
C559 H549 0.929 1_545 S
C559 C557 1.433 . S
C559 N562 1.384 . S
C560 H551 0.929 1_545 S
C560 C552 1.378 . S
C560 C555 1.350 . S
C561 H548 0.929 . S
C561 C553 1.433 . S
C561 N563 1.384 . S
N562 C558 1.427 . S
N562 C559 1.384 . S
N563 C555 1.427 . S
N563 C561 1.384 . S
H564 C570 0.930 . S
H565 C574 0.930 . S
H566 C579 0.929 . S
H567 C577 0.929 . S
H568 C572 0.929 . S
H569 C578 0.929 . S
C570 H564 0.930 . S
C570 C571 1.367 . S
C570 C578 1.378 . S
C571 C570 1.367 . S
C571 C579 1.433 . S
C572 H568 0.929 . S
C572 C574 1.378 . S
C572 C576 1.350 . S
C573 C576 1.463 . S
C573 C578 1.350 . S
C573 N581 1.427 . S
C574 H565 0.930 . S
C574 C572 1.378 . S
C574 C575 1.367 . S
C575 C574 1.367 . S
C575 C577 1.433 . S
C576 C572 1.350 . S
C576 C573 1.463 . S
C576 N580 1.427 . S
C577 H567 0.929 . S
C577 C575 1.433 . S
C577 N580 1.384 . S
C578 H569 0.929 . S
C578 C570 1.378 . S
C578 C573 1.350 . S
C579 H566 0.929 . S
C579 C571 1.433 . S
C579 N581 1.384 . S
N580 C576 1.427 . S
N580 C577 1.384 . S
N581 C573 1.427 . S
N581 C579 1.384 . S
H582 C588 0.930 . S
H583 C592 0.930 . S
H584 C597 0.929 . S
H585 C595 0.929 . S
H586 C590 0.929 . S
H587 C596 0.929 . S
C588 H582 0.930 . S
C588 C589 1.367 1_565 S
C588 C596 1.378 . S
C589 C588 1.367 1_545 S
C589 C597 1.433 . S
C590 H586 0.929 . S
C590 C592 1.378 . S
C590 C594 1.350 . S
C591 C594 1.463 . S
C591 C596 1.350 1_545 S
C591 N599 1.427 . S
C592 H583 0.930 . S
C592 C590 1.378 . S
C592 C593 1.367 1_545 S
C593 C592 1.367 1_565 S
C593 C595 1.433 . S
C594 C590 1.350 . S
C594 C591 1.463 . S
C594 N598 1.427 1_545 S
C595 H585 0.929 . S
C595 C593 1.433 . S
C595 N598 1.384 . S
C596 H587 0.929 . S
C596 C588 1.378 . S
C596 C591 1.350 1_565 S
C597 H584 0.929 . S
C597 C589 1.433 . S
C597 N599 1.384 . S
N598 C594 1.427 1_565 S
N598 C595 1.384 . S
N599 C591 1.427 . S
N599 C597 1.384 . S
H600 C606 0.930 . S
H601 C610 0.930 . S
H602 C615 0.929 . S
H603 C613 0.929 1_554 S
H604 C608 0.929 . S
H605 C614 0.929 . S
C606 H600 0.930 . S
C606 C607 1.367 . S
C606 C614 1.378 . S
C607 C606 1.367 . S
C607 C615 1.433 . S
C608 H604 0.929 . S
C608 C610 1.378 . S
C608 C612 1.350 . S
C609 C612 1.463 . S
C609 C614 1.350 . S
C609 N617 1.427 . S
C610 H601 0.930 . S
C610 C608 1.378 . S
C610 C611 1.367 1_556 S
C611 C610 1.367 1_554 S
C611 C613 1.433 1_554 S
C612 C608 1.350 . S
C612 C609 1.463 . S
C612 N616 1.427 . S
C613 H603 0.929 1_556 S
C613 C611 1.433 1_556 S
C613 N616 1.384 . S
C614 H605 0.929 . S
C614 C606 1.378 . S
C614 C609 1.350 . S
C615 H602 0.929 . S
C615 C607 1.433 . S
C615 N617 1.384 . S
N616 C612 1.427 . S
N616 C613 1.384 . S
N617 C609 1.427 . S
N617 C615 1.384 . S
H618 C624 0.930 . S
H619 C628 0.938 . S
H620 C633 0.929 . S
H621 C631 0.929 . S
H622 C626 0.929 . S
H623 C632 0.929 . S
C624 H618 0.930 . S
C624 C625 1.367 . S
C624 C632 1.378 . S
C625 C624 1.367 . S
C625 C633 1.433 . S
C626 H622 0.929 . S
C626 C628 1.378 . S
C626 C630 1.350 . S
C627 C630 1.463 . S
C627 C632 1.350 . S
C627 N635 1.427 . S
C628 H619 0.938 . S
C628 C626 1.378 . S
C628 C629 1.367 . S
C629 C628 1.367 . S
C629 C631 1.433 . S
C630 C626 1.350 . S
C630 C627 1.463 . S
C630 N634 1.427 . S
C631 H621 0.929 . S
C631 C629 1.433 . S
C631 N634 1.384 . S
C632 H623 0.929 . S
C632 C624 1.378 . S
C632 C627 1.350 . S
C633 H620 0.929 . S
C633 C625 1.433 . S
C633 N635 1.384 . S
N634 C630 1.427 . S
N634 C631 1.384 . S
N635 C627 1.427 . S
N635 C633 1.384 . S
C319 C25 0.421 . S
C323 C303 0.346 . S
C337 C65 0.408 . S
C341 C239 0.414 . S
C355 C105 0.435 . S
C359 C271 0.454 . S
C373 C4 0.467 . S
C377 C297 0.337 . S
C395 C233 0.405 . S
C391 C44 0.404 . S
C413 C265 0.477 . S
C409 C84 0.446 . S
C427 C60 2.914 . S
C431 C175 2.849 . S
C445 C100 3.045 . S
C449 C207 2.969 . S
C463 C31 3.055 . S
C467 C137 2.992 . S
C485 C169 2.991 . S
C481 C71 3.050 . S
C503 C201 2.890 . S
C499 C111 2.919 . S
C517 C20 2.918 . S
C521 C143 2.847 . S
C539 C213 1.774 . S
C535 C2 1.738 . S
C553 C42 1.752 . S
C557 C149 1.763 . S
C571 C82 1.749 . S
C575 C181 1.769 . S
C593 C277 1.020 . S
C589 C63 1.055 . S
C611 C309 1.095 . S
C607 C103 1.084 . S
C625 C23 1.038 . S
C629 C245 1.036 . S
