# Generated by pormake.
# Topology ptr, (4,4)-cn, num edge types: 1
# Building blocks:
#     Node 0, Type 0, BuildingBlock: UXUYUI_clean_sbu_0, # of connection points: 4
#     Node 1, Type 0, BuildingBlock: UXUYUI_clean_sbu_0, # of connection points: 4
#     Node 2, Type 0, BuildingBlock: UXUYUI_clean_sbu_0, # of connection points: 4
#     Node 3, Type 0, BuildingBlock: UXUYUI_clean_sbu_0, # of connection points: 4
#     Node 4, Type 0, BuildingBlock: UXUYUI_clean_sbu_0, # of connection points: 4
#     Node 5, Type 0, BuildingBlock: UXUYUI_clean_sbu_0, # of connection points: 4
#     Node 6, Type 0, BuildingBlock: UXUYUI_clean_sbu_0, # of connection points: 4
#     Node 7, Type 0, BuildingBlock: UXUYUI_clean_sbu_0, # of connection points: 4
#     Node 8, Type 0, BuildingBlock: UXUYUI_clean_sbu_0, # of connection points: 4
#     Node 9, Type 0, BuildingBlock: UXUYUI_clean_sbu_0, # of connection points: 4
#     Node 10, Type 0, BuildingBlock: UXUYUI_clean_sbu_0, # of connection points: 4
#     Node 11, Type 0, BuildingBlock: UXUYUI_clean_sbu_0, # of connection points: 4
#     Node 12, Type 0, BuildingBlock: UXUYUI_clean_sbu_0, # of connection points: 4
#     Node 13, Type 0, BuildingBlock: UXUYUI_clean_sbu_0, # of connection points: 4
#     Node 14, Type 0, BuildingBlock: UXUYUI_clean_sbu_0, # of connection points: 4
#     Node 15, Type 0, BuildingBlock: UXUYUI_clean_sbu_0, # of connection points: 4
#     Node 16, Type 0, BuildingBlock: UXUYUI_clean_sbu_0, # of connection points: 4
#     Node 17, Type 0, BuildingBlock: UXUYUI_clean_sbu_0, # of connection points: 4
#     Node 18, Type 1, BuildingBlock: NAWXER_clean_linker_0, # of connection points: 4
#     Node 19, Type 1, BuildingBlock: NAWXER_clean_linker_0, # of connection points: 4
#     Node 20, Type 1, BuildingBlock: NAWXER_clean_linker_0, # of connection points: 4
#     Node 21, Type 1, BuildingBlock: NAWXER_clean_linker_0, # of connection points: 4
#     Node 22, Type 1, BuildingBlock: NAWXER_clean_linker_0, # of connection points: 4
#     Node 23, Type 1, BuildingBlock: NAWXER_clean_linker_0, # of connection points: 4
#     Node 24, Type 1, BuildingBlock: NAWXER_clean_linker_0, # of connection points: 4
#     Node 25, Type 1, BuildingBlock: NAWXER_clean_linker_0, # of connection points: 4
#     Node 26, Type 1, BuildingBlock: NAWXER_clean_linker_0, # of connection points: 4
#     Node 27, Type 1, BuildingBlock: NAWXER_clean_linker_0, # of connection points: 4
#     Node 28, Type 1, BuildingBlock: NAWXER_clean_linker_0, # of connection points: 4
#     Node 29, Type 1, BuildingBlock: NAWXER_clean_linker_0, # of connection points: 4
#     Node 30, Type 1, BuildingBlock: NAWXER_clean_linker_0, # of connection points: 4
#     Node 31, Type 1, BuildingBlock: NAWXER_clean_linker_0, # of connection points: 4
#     Node 32, Type 1, BuildingBlock: NAWXER_clean_linker_0, # of connection points: 4
#     Node 33, Type 1, BuildingBlock: NAWXER_clean_linker_0, # of connection points: 4
#     Node 34, Type 1, BuildingBlock: NAWXER_clean_linker_0, # of connection points: 4
#     Node 35, Type 1, BuildingBlock: NAWXER_clean_linker_0, # of connection points: 4
#     Edge 36, Type (0, 1), None
#     Edge 37, Type (0, 1), None
#     Edge 38, Type (0, 1), None
#     Edge 39, Type (0, 1), None
#     Edge 40, Type (0, 1), None
#     Edge 41, Type (0, 1), None
#     Edge 42, Type (0, 1), None
#     Edge 43, Type (0, 1), None
#     Edge 44, Type (0, 1), None
#     Edge 45, Type (0, 1), None
#     Edge 46, Type (0, 1), None
#     Edge 47, Type (0, 1), None
#     Edge 48, Type (0, 1), None
#     Edge 49, Type (0, 1), None
#     Edge 50, Type (0, 1), None
#     Edge 51, Type (0, 1), None
#     Edge 52, Type (0, 1), None
#     Edge 53, Type (0, 1), None
#     Edge 54, Type (0, 1), None
#     Edge 55, Type (0, 1), None
#     Edge 56, Type (0, 1), None
#     Edge 57, Type (0, 1), None
#     Edge 58, Type (0, 1), None
#     Edge 59, Type (0, 1), None
#     Edge 60, Type (0, 1), None
#     Edge 61, Type (0, 1), None
#     Edge 62, Type (0, 1), None
#     Edge 63, Type (0, 1), None
#     Edge 64, Type (0, 1), None
#     Edge 65, Type (0, 1), None
#     Edge 66, Type (0, 1), None
#     Edge 67, Type (0, 1), None
#     Edge 68, Type (0, 1), None
#     Edge 69, Type (0, 1), None
#     Edge 70, Type (0, 1), None
#     Edge 71, Type (0, 1), None
#     Edge 72, Type (0, 1), None
#     Edge 73, Type (0, 1), None
#     Edge 74, Type (0, 1), None
#     Edge 75, Type (0, 1), None
#     Edge 76, Type (0, 1), None
#     Edge 77, Type (0, 1), None
#     Edge 78, Type (0, 1), None
#     Edge 79, Type (0, 1), None
#     Edge 80, Type (0, 1), None
#     Edge 81, Type (0, 1), None
#     Edge 82, Type (0, 1), None
#     Edge 83, Type (0, 1), None
#     Edge 84, Type (0, 1), None
#     Edge 85, Type (0, 1), None
#     Edge 86, Type (0, 1), None
#     Edge 87, Type (0, 1), None
#     Edge 88, Type (0, 1), None
#     Edge 89, Type (0, 1), None
#     Edge 90, Type (0, 1), None
#     Edge 91, Type (0, 1), None
#     Edge 92, Type (0, 1), None
#     Edge 93, Type (0, 1), None
#     Edge 94, Type (0, 1), None
#     Edge 95, Type (0, 1), None
#     Edge 96, Type (0, 1), None
#     Edge 97, Type (0, 1), None
#     Edge 98, Type (0, 1), None
#     Edge 99, Type (0, 1), None
#     Edge 100, Type (0, 1), None
#     Edge 101, Type (0, 1), None
#     Edge 102, Type (0, 1), None
#     Edge 103, Type (0, 1), None
#     Edge 104, Type (0, 1), None
#     Edge 105, Type (0, 1), None
#     Edge 106, Type (0, 1), None
#     Edge 107, Type (0, 1), None
# Relax obj value: 0.097
# Max RMSD: 0.293
# Mean RMSD: 0.120
data_MOF--net-ptr--node1-UXUYUI_clean_sbu_0--node2-NAWXER_clean_linker_0--edge1-none
_symmetry_space_group_name_H-M    P1
_symmetry_Int_Tables_number       1
_symmetry_cell_setting            triclinic
loop_
_symmetry_equiv_pos_as_xyz
'x, y, z'
_cell_length_a     64.944727
_cell_length_b     64.950864
_cell_length_c     45.716294
_cell_angle_alpha  90.124555
_cell_angle_beta   89.860064
_cell_angle_gamma 120.18617
loop_
_atom_site_label
_atom_site_type_symbol
_atom_site_fract_x
_atom_site_fract_y
_atom_site_fract_z
_atom_type_partial_charge
Li0 Li 0.98583 0.32852 0.99627 0.0
Li1 Li 0.02478 0.3479 0.01804 0.0
Li2 Li 0.9958 0.36116 0.03163 0.0
Li3 Li 0.01574 0.37106 0.98333 0.0
C4 C 0.97489 0.31078 0.0526 0.0
N5 N 0.93736 0.27259 0.0806 0.0
C6 C 0.97596 0.29026 0.05868 0.0
C7 C 0.9549 0.31202 0.06133 0.0
C8 C 0.95676 0.27109 0.07268 0.0
C9 C 0.93607 0.2925 0.0753 0.0
C10 C 0.03342 0.33648 0.96429 0.0
C11 C 0.07096 0.34887 0.94025 0.0
N12 N 0.06674 0.32616 0.94178 0.0
C13 C 0.02927 0.3132 0.96517 0.0
C14 C 0.05427 0.35441 0.95136 0.0
C15 C 0.04641 0.30836 0.95387 0.0
C16 C 0.9466 0.30059 0.96001 0.0
N17 N 0.96183 0.29956 0.97951 0.0
C18 C 0.94528 0.25792 0.97045 0.0
C19 C 0.96155 0.27884 0.98485 0.0
C20 C 0.92914 0.25845 0.95055 0.0
C21 C 0.9298 0.28007 0.94552 0.0
H22 H 0.94787 0.31745 0.95513 0.0
H23 H 0.97436 0.27865 0.99969 0.0
C24 C 0.06799 0.36019 0.04715 0.0
N25 N 0.04828 0.34207 0.03447 0.0
C26 C 0.08355 0.35556 0.06298 0.0
C27 C 0.05838 0.31368 0.05223 0.0
C28 C 0.04341 0.31917 0.03641 0.0
C29 C 0.07855 0.33196 0.06627 0.0
H30 H 0.07124 0.37817 0.04596 0.0
H31 H 0.02741 0.30504 0.0266 0.0
C32 C 0.96136 0.35854 0.9913 0.0
N33 N 0.92108 0.36276 0.98901 0.0
C34 C 0.96239 0.3786 0.97857 0.0
C35 C 0.93967 0.34042 0.00231 0.0
C36 C 0.9419 0.38048 0.97779 0.0
C37 C 0.91956 0.34293 0.00108 0.0
C38 C 0.04952 0.40318 0.02237 0.0
C39 C 0.04954 0.42113 0.03932 0.0
C40 C 0.06928 0.40846 0.00495 0.0
C41 C 0.0692 0.44418 0.03818 0.0
C42 C 0.0886 0.43172 0.00441 0.0
N43 N 0.08816 0.44896 0.02087 0.0
C44 C 0.98594 0.37036 0.08989 0.0
C45 C 0.98473 0.39465 0.05208 0.0
C46 C 0.98341 0.3845 0.11114 0.0
N47 N 0.98676 0.37583 0.06103 0.0
C48 C 0.98225 0.40921 0.07244 0.0
C49 C 0.98218 0.40459 0.10243 0.0
H50 H 0.98833 0.35571 0.09646 0.0
H51 H 0.98654 0.39927 0.02919 0.0
C52 C 0.02487 0.38921 0.92507 0.0
N53 N 0.02509 0.39467 0.95386 0.0
C54 C 0.02652 0.40524 0.90349 0.0
C55 C 0.02952 0.43239 0.94172 0.0
C56 C 0.02782 0.41594 0.96243 0.0
C57 C 0.02804 0.42679 0.91185 0.0
H58 H 0.02202 0.37188 0.91889 0.0
H59 H 0.02696 0.41947 0.98535 0.0
O60 O 0.99356 0.32975 0.03891 0.0
O61 O 0.01687 0.34157 0.97532 0.0
O62 O 0.98131 0.35642 0.99218 0.0
O63 O 0.03024 0.38058 0.02288 0.0
H64 H 0.99138 0.28903 0.05255 0.0
H65 H 0.95394 0.32791 0.05754 0.0
H66 H 0.95731 0.25505 0.07728 0.0
H67 H 0.92046 0.29322 0.08202 0.0
H68 H 0.08723 0.36261 0.93031 0.0
H69 H 0.01307 0.29903 0.97465 0.0
H70 H 0.05745 0.37238 0.94964 0.0
H71 H 0.04352 0.29045 0.95467 0.0
H72 H 0.94531 0.24155 0.97478 0.0
H73 H 0.91791 0.28123 0.92988 0.0
H74 H 0.09907 0.37028 0.07301 0.0
H75 H 0.05362 0.29521 0.05444 0.0
H76 H 0.97886 0.39266 0.96952 0.0
H77 H 0.93824 0.32435 0.01118 0.0
H78 H 0.94253 0.39601 0.96821 0.0
H79 H 0.90269 0.32903 0.00957 0.0
H80 H 0.03457 0.41735 0.05323 0.0
H81 H 0.06974 0.39472 0.99215 0.0
H82 H 0.06941 0.45825 0.0511 0.0
H83 H 0.10398 0.43605 0.99095 0.0
H84 H 0.98369 0.38052 0.13408 0.0
H85 H 0.98124 0.42446 0.06481 0.0
H86 H 0.0251 0.40021 0.88066 0.0
H87 H 0.03086 0.44889 0.94906 0.0
Li88 Li 0.67119 0.65323 0.99698 0.0
Li89 Li 0.65423 0.67345 0.02004 0.0
Li90 Li 0.64232 0.63161 0.03556 0.0
Li91 Li 0.62999 0.64077 0.98702 0.0
C92 C 0.6949 0.66368 0.04785 0.0
N93 N 0.73783 0.66839 0.06513 0.0
C94 C 0.71637 0.68378 0.03971 0.0
C95 C 0.6953 0.646 0.06482 0.0
C96 C 0.73788 0.68582 0.04864 0.0
C97 C 0.71717 0.64871 0.07334 0.0
C98 C 0.66364 0.69366 0.96903 0.0
C99 C 0.65142 0.72079 0.95123 0.0
N100 N 0.67427 0.73905 0.95354 0.0
C101 C 0.68704 0.71264 0.97092 0.0
C102 C 0.64571 0.69769 0.95885 0.0
C103 C 0.69204 0.73548 0.9631 0.0
C104 C 0.70437 0.6688 0.95143 0.0
N105 N 0.69902 0.65699 0.97735 0.0
C106 C 0.73298 0.65206 0.97307 0.0
C107 C 0.71252 0.6481 0.98796 0.0
C108 C 0.73933 0.66484 0.94663 0.0
C109 C 0.72448 0.67294 0.93566 0.0
H110 H 0.69292 0.67493 0.94282 0.0
H111 H 0.70756 0.63809 0.0081 0.0
C112 C 0.64123 0.70533 0.04531 0.0
N113 N 0.65985 0.70291 0.03622 0.0
C114 C 0.64533 0.72586 0.06012 0.0
C115 C 0.68767 0.74125 0.05544 0.0
C116 C 0.68274 0.72039 0.04085 0.0
C117 C 0.66881 0.74401 0.0657 0.0
H118 H 0.62321 0.69107 0.04185 0.0
H119 H 0.69721 0.71795 0.03382 0.0
C120 C 0.65251 0.60796 0.98222 0.0
N121 N 0.67255 0.58479 0.95364 0.0
C122 C 0.65388 0.60842 0.9517 0.0
C123 C 0.66114 0.5956 0.99823 0.0
C124 C 0.66415 0.59664 0.93765 0.0
C125 C 0.67124 0.58401 0.98335 0.0
C126 C 0.59836 0.63935 0.02795 0.0
C127 C 0.58238 0.62024 0.04535 0.0
C128 C 0.59 0.65137 0.01076 0.0
C129 C 0.55824 0.61332 0.045 0.0
C130 C 0.56573 0.64391 0.01099 0.0
N131 N 0.55048 0.62518 0.02794 0.0
C132 C 0.63209 0.61597 0.09445 0.0
C133 C 0.61522 0.58606 0.0578 0.0
C134 C 0.61825 0.5995 0.11601 0.0
N135 N 0.6299 0.60903 0.06599 0.0
C136 C 0.6009 0.56915 0.07849 0.0
C137 C 0.60183 0.57601 0.10781 0.0
H138 H 0.64354 0.63452 0.10012 0.0
H139 H 0.61348 0.58126 0.0349 0.0
C140 C 0.61061 0.63343 0.93008 0.0
N141 N 0.60552 0.62638 0.95846 0.0
C142 C 0.59419 0.62054 0.90807 0.0
C143 C 0.56729 0.59406 0.94507 0.0
C144 C 0.58442 0.60706 0.96622 0.0
C145 C 0.57231 0.6005 0.91555 0.0
H146 H 0.62784 0.6484 0.92443 0.0
H147 H 0.58126 0.6011 0.98867 0.0
O148 O 0.6736 0.66143 0.03967 0.0
O149 O 0.65836 0.67123 0.97697 0.0
O150 O 0.64305 0.61984 0.99638 0.0
O151 O 0.62204 0.64619 0.02776 0.0
H152 H 0.71651 0.6974 0.02607 0.0
H153 H 0.67892 0.63026 0.07121 0.0
H154 H 0.75462 0.70118 0.0423 0.0
H155 H 0.71773 0.63513 0.08641 0.0
H156 H 0.6377 0.72419 0.94343 0.0
H157 H 0.70116 0.70979 0.97866 0.0
H158 H 0.62759 0.68314 0.95674 0.0
H159 H 0.71004 0.75037 0.9647 0.0
H160 H 0.74386 0.64548 0.98245 0.0
H161 H 0.72821 0.68222 0.91496 0.0
H162 H 0.63027 0.72738 0.06745 0.0
H163 H 0.70603 0.75467 0.05959 0.0
H164 H 0.64735 0.61801 0.93905 0.0
H165 H 0.66031 0.59522 0.02189 0.0
H166 H 0.66549 0.59696 0.91405 0.0
H167 H 0.67814 0.57448 0.99544 0.0
H168 H 0.58848 0.61082 0.05899 0.0
H169 H 0.60211 0.66624 0.9973 0.0
H170 H 0.54567 0.59852 0.05829 0.0
H171 H 0.55902 0.65299 0.99768 0.0
H172 H 0.61918 0.6054 0.13839 0.0
H173 H 0.58838 0.55116 0.07146 0.0
H174 H 0.5987 0.6258 0.88542 0.0
H175 H 0.55082 0.57836 0.95152 0.0
Li176 Li 0.36106 0.9913 0.98919 0.0
Li177 Li 0.37077 0.01171 0.03718 0.0
Li178 Li 0.32859 0.98202 0.0233 0.0
Li179 Li 0.34792 0.0208 0.00105 0.0
C180 C 0.36193 0.95964 0.02857 0.0
N181 N 0.37413 0.92455 0.02724 0.0
C182 C 0.38177 0.9626 0.04407 0.0
C183 C 0.34812 0.93868 0.01272 0.0
C184 C 0.3877 0.94469 0.04304 0.0
C185 C 0.35462 0.9212 0.01223 0.0
C186 C 0.40211 0.04654 0.99548 0.0
C187 C 0.42689 0.08872 0.00428 0.0
N188 N 0.44543 0.08833 0.99093 0.0
C189 C 0.42133 0.04663 0.9815 0.0
C190 C 0.40484 0.06781 0.00668 0.0
C191 C 0.44311 0.0679 0.97957 0.0
C192 C 0.36839 0.9795 0.93138 0.0
N193 N 0.37532 0.98182 0.95983 0.0
C194 C 0.40914 0.97857 0.94677 0.0
C195 C 0.39506 0.98109 0.96781 0.0
C196 C 0.40316 0.97728 0.91706 0.0
C197 C 0.38209 0.97704 0.90945 0.0
H198 H 0.35294 0.98079 0.92557 0.0
H199 H 0.40074 0.98395 0.99035 0.0
C200 C 0.38635 0.01739 0.09578 0.0
N201 N 0.39393 0.02165 0.06753 0.0
C202 C 0.40227 0.02053 0.11823 0.0
C203 C 0.43358 0.03314 0.08216 0.0
C204 C 0.41707 0.0296 0.06045 0.0
C205 C 0.42614 0.02806 0.11143 0.0
H206 H 0.36773 0.01059 0.10072 0.0
H207 H 0.42248 0.03186 0.03782 0.0
C208 C 0.3086 0.97236 0.97033 0.0
N209 N 0.26467 0.93759 0.9499 0.0
C210 C 0.28949 0.97654 0.96958 0.0
C211 C 0.30548 0.95068 0.96015 0.0
C212 C 0.26739 0.95868 0.95934 0.0
C213 C 0.28311 0.93328 0.95004 0.0
C214 C 0.34051 0.03172 0.05759 0.0
C215 C 0.31872 0.03038 0.06337 0.0
C216 C 0.36161 0.05162 0.06703 0.0
C217 C 0.31845 0.04925 0.07771 0.0
C218 C 0.36061 0.07012 0.08134 0.0
N219 N 0.33923 0.06859 0.0863 0.0
C220 C 0.29728 0.93824 0.05119 0.0
C221 C 0.28073 0.96261 0.04059 0.0
C222 C 0.27654 0.92196 0.06583 0.0
N223 N 0.29904 0.95817 0.03914 0.0
C224 C 0.2597 0.94689 0.05518 0.0
C225 C 0.25754 0.92641 0.06849 0.0
H226 H 0.31221 0.9353 0.05023 0.0
H227 H 0.2827 0.97872 0.03112 0.0
C228 C 0.35841 0.05912 0.96345 0.0
N229 N 0.34249 0.04417 0.98358 0.0
C230 C 0.35405 0.07512 0.94823 0.0
C231 C 0.31651 0.05943 0.97382 0.0
C232 C 0.3218 0.04399 0.98893 0.0
C233 C 0.33278 0.07522 0.95318 0.0
H234 H 0.3742 0.05819 0.95857 0.0
H235 H 0.30904 0.03136 0.00425 0.0
O236 O 0.356 0.9771 0.02911 0.0
O237 O 0.38065 0.02581 0.99758 0.0
O238 O 0.33032 0.98955 0.98054 0.0
O239 O 0.34108 0.01329 0.0437 0.0
H240 H 0.39256 0.97856 0.05669 0.0
H241 H 0.33249 0.93591 0.00104 0.0
H242 H 0.40308 0.94682 0.05481 0.0
H243 H 0.34412 0.90493 0.99996 0.0
H244 H 0.42922 0.10529 0.01287 0.0
H245 H 0.41953 0.03046 0.97236 0.0
H246 H 0.39 0.06831 0.01659 0.0
H247 H 0.45816 0.06817 0.96898 0.0
H248 H 0.4251 0.97858 0.95362 0.0
H249 H 0.377 0.97631 0.88676 0.0
H250 H 0.39582 0.01646 0.14054 0.0
H251 H 0.45166 0.03844 0.07585 0.0
H252 H 0.29164 0.9933 0.97707 0.0
H253 H 0.32021 0.94737 0.95985 0.0
H254 H 0.25239 0.9616 0.95891 0.0
H255 H 0.28043 0.91637 0.94222 0.0
H256 H 0.30216 0.01499 0.05674 0.0
H257 H 0.3786 0.05278 0.0635 0.0
H258 H 0.30171 0.0485 0.08208 0.0
H259 H 0.37684 0.08567 0.08859 0.0
H260 H 0.27556 0.90624 0.07533 0.0
H261 H 0.24568 0.95123 0.05694 0.0
H262 H 0.36681 0.08674 0.93205 0.0
H263 H 0.29988 0.05898 0.97812 0.0
Li264 Li 0.02218 0.67545 0.01547 0.0
Li265 Li 0.99525 0.63557 0.03136 0.0
Li266 Li 0.00809 0.64105 0.9807 0.0
Li267 Li 0.98175 0.65482 0.99909 0.0
C268 C 0.05023 0.65307 0.00901 0.0
N269 N 0.0956 0.66343 0.99361 0.0
C270 C 0.06165 0.64334 0.02488 0.0
C271 C 0.0618 0.66796 0.98518 0.0
C272 C 0.08461 0.64883 0.01679 0.0
C273 C 0.08476 0.673 0.97779 0.0
C274 C -0.00058 0.67139 0.06796 0.0
C275 C 0.99499 0.68825 0.11297 0.0
N276 N 0.0133 0.68659 0.12479 0.0
C277 C 0.01821 0.66986 0.08058 0.0
C278 C 0.98773 0.68069 0.08427 0.0
C279 C 0.02495 0.67764 0.10932 0.0
C280 C 0.04118 0.72267 0.03298 0.0
N281 N 0.04706 0.70548 0.02925 0.0
C282 C 0.08348 0.72874 0.05526 0.0
C283 C 0.06788 0.70826 0.03976 0.0
C284 C 0.07744 0.74636 0.06052 0.0
C285 C 0.05623 0.74342 0.04853 0.0
H286 H 0.02412 0.71962 0.02534 0.0
H287 H 0.07192 0.69415 0.03769 0.0
C288 C 0.99628 0.59772 0.05552 0.0
N289 N 0.98862 0.61314 0.06204 0.0
C290 C 0.99459 0.58118 0.07606 0.0
C291 C 0.97689 0.59645 0.10998 0.0
C292 C 0.97854 0.61252 0.08841 0.0
C293 C 0.98541 0.58076 0.10408 0.0
H294 H 0.004 0.59849 0.03429 0.0
H295 H 0.97232 0.62482 0.093 0.0
C296 C 0.00436 0.68294 0.95357 0.0
N297 N 0.98834 0.70271 0.91238 0.0
C298 C 0.98852 0.66867 0.93175 0.0
C299 C 0.01226 0.70731 0.95425 0.0
C300 C 0.98055 0.67898 0.91119 0.0
C301 C 0.00392 0.71696 0.93326 0.0
C302 C 0.95728 0.60146 0.00694 0.0
C303 C 0.95551 0.57963 1.00022 0.0
C304 C 0.9409 0.60222 0.02614 0.0
C305 C 0.93739 0.55885 0.01303 0.0
C306 C 0.92304 0.58105 0.03849 0.0
N307 N 0.92168 0.55999 0.03175 0.0
C308 C 0.016 0.60641 0.95893 0.0
C309 C 0.01732 0.63218 0.9214 0.0
C310 C 0.01778 0.59151 0.93846 0.0
N311 N 0.01518 0.62591 0.9501 0.0
C312 C 0.01905 0.61764 0.90003 0.0
C313 C 0.01856 0.59661 0.9085 0.0
H314 H 0.01447 0.60203 0.98192 0.0
H315 H 0.01692 0.64798 0.915 0.0
C316 C 0.95814 0.68076 0.98871 0.0
N317 N 0.95638 0.65907 0.98629 0.0
C318 C 0.9421 0.68539 0.97391 0.0
C319 C 0.92204 0.64485 0.95592 0.0
C320 C 0.93857 0.6411 0.97077 0.0
C321 C 0.92403 0.66739 0.95683 0.0
H322 H 0.97275 0.69481 0.00085 0.0
H323 H 0.93798 0.62424 0.96858 0.0
O324 O 0.02761 0.64752 0.01648 0.0
O325 O 0.99268 0.66438 0.03963 0.0
O326 O 0.01184 0.67306 0.97439 0.0
O327 O 0.97529 0.62209 0.99535 0.0
H328 H 0.05284 0.63168 0.04327 0.0
H329 H 0.05322 0.67556 0.97255 0.0
H330 H 0.0937 0.64147 0.02891 0.0
H331 H 0.09395 0.68452 0.95945 0.0
H332 H 0.9861 0.69549 0.12583 0.0
H333 H 0.02754 0.66276 0.0684 0.0
H334 H 0.97324 0.6821 0.07478 0.0
H335 H 0.03947 0.67657 0.11932 0.0
H336 H 0.09977 0.73038 0.06384 0.0
H337 H 0.0507 0.75638 0.05242 0.0
H338 H 0.00063 0.56897 0.06999 0.0
H339 H 0.96968 0.59682 0.13122 0.0
H340 H 0.98197 0.64971 0.93115 0.0
H341 H 0.02462 0.71864 0.97086 0.0
H342 H 0.96806 0.66809 0.89442 0.0
H343 H 0.00979 0.73577 0.93361 0.0
H344 H 0.96807 0.57875 0.98542 0.0
H345 H 0.94217 0.61903 0.0317 0.0
H346 H 0.93585 0.54183 0.00814 0.0
H347 H 0.91031 0.58137 0.05352 0.0
H348 H 0.01796 0.5758 0.94601 0.0
H349 H 0.0197 0.62225 0.87715 0.0
H350 H 0.94409 0.70295 0.97529 0.0
H351 H 0.90856 0.63061 0.9427 0.0
Li352 Li 0.32682 0.34695 0.02185 0.0
Li353 Li 0.36751 0.35982 0.03377 0.0
Li354 Li 0.35745 0.36918 0.98643 0.0
Li355 Li 0.34654 0.32878 0.99779 0.0
C356 C 0.35237 0.39088 0.05054 0.0
N357 N 0.35048 0.41258 0.10173 0.0
C358 C 0.34334 0.37751 0.07613 0.0
C359 C 0.36046 0.41528 0.05101 0.0
C360 C 0.34252 0.3888 0.10177 0.0
C361 C 0.35935 0.42593 0.0771 0.0
C362 C 0.34598 0.31351 0.05442 0.0
C363 C 0.37448 0.30074 0.06313 0.0
N364 N 0.35942 0.28472 0.08312 0.0
C365 C 0.33081 0.29694 0.07506 0.0
C366 C 0.36803 0.31547 0.04841 0.0
C367 C 0.33792 0.28255 0.08933 0.0
C368 C 0.28229 0.31759 0.04693 0.0
N369 N 0.2972 0.34034 0.03809 0.0
C370 C 0.27153 0.35303 0.05849 0.0
C371 C 0.29199 0.35789 0.0429 0.0
C372 C 0.2562 0.32984 0.06876 0.0
C373 C 0.26147 0.31186 0.06225 0.0
H374 H 0.28697 0.30404 0.0428 0.0
H375 H 0.30409 0.37582 0.0355 0.0
C376 C 0.41138 0.39322 0.05456 0.0
N377 N 0.39104 0.37356 0.06334 0.0
C378 C 0.42827 0.40784 0.07506 0.0
C379 C 0.40339 0.38125 0.11334 0.0
C380 C 0.38694 0.367 0.09197 0.0
C381 C 0.42402 0.40238 0.10498 0.0
H382 H 0.41388 0.39818 0.0317 0.0
H383 H 0.37034 0.35152 0.0984 0.0
C384 C 0.3112 0.34556 0.96526 0.0
N385 N 0.2807 0.35677 0.93662 0.0
C386 C 0.29437 0.32941 0.94559 0.0
C387 C 0.31255 0.36744 0.97035 0.0
C388 C 0.2791 0.3354 0.93132 0.0
C389 C 0.29697 0.37277 0.95567 0.0
C390 C 0.39189 0.35834 0.97048 0.0
C391 C 0.38019 0.34796 0.94426 0.0
C392 C 0.41677 0.37086 0.97131 0.0
C393 C 0.3936 0.35025 0.91928 0.0
C394 C 0.42955 0.37275 0.94585 0.0
N395 N 0.4178 0.3625 0.92058 0.0
C396 C 0.38721 0.41505 0.96519 0.0
C397 C 0.36502 0.38709 0.92803 0.0
C398 C 0.40059 0.4323 0.94426 0.0
N399 N 0.37016 0.39287 0.95675 0.0
C400 C 0.37826 0.40368 0.90635 0.0
C401 C 0.39663 0.42645 0.91443 0.0
H402 H 0.39118 0.41894 0.98818 0.0
H403 H 0.35152 0.36923 0.92194 0.0
C404 C 0.31831 0.28287 0.97622 0.0
N405 N 0.34131 0.29956 0.9818 0.0
C406 C 0.31292 0.26171 0.96201 0.0
C407 C 0.35503 0.27527 0.95982 0.0
C408 C 0.35955 0.29594 0.97462 0.0
C409 C 0.33143 0.25784 0.95297 0.0
H410 H 0.30417 0.28622 0.98242 0.0
H411 H 0.37769 0.30941 0.97957 0.0
O412 O 0.35364 0.38035 0.02515 0.0
O413 O 0.33914 0.32769 0.04041 0.0
O414 O 0.32622 0.33981 0.97927 0.0
O415 O 0.37917 0.35679 0.9951 0.0
H416 H 0.33703 0.35861 0.07625 0.0
H417 H 0.36754 0.42589 0.03139 0.0
H418 H 0.33558 0.37866 0.12171 0.0
H419 H 0.36555 0.44481 0.07777 0.0
H420 H 0.39147 0.30207 0.05869 0.0
H421 H 0.31372 0.29526 0.08001 0.0
H422 H 0.3801 0.32823 0.03266 0.0
H423 H 0.32635 0.26965 0.10536 0.0
H424 H 0.26788 0.36729 0.06282 0.0
H425 H 0.25012 0.2938 0.06993 0.0
H426 H 0.44412 0.42375 0.06762 0.0
H427 H 0.39938 0.3765 0.13618 0.0
H428 H 0.29313 0.3124 0.94139 0.0
H429 H 0.32549 0.38024 0.98538 0.0
H430 H 0.26599 0.32306 0.91604 0.0
H431 H 0.29781 0.38963 0.9594 0.0
H432 H 0.36094 0.33837 0.94316 0.0
H433 H 0.4261 0.37905 0.99141 0.0
H434 H 0.38477 0.34235 0.89884 0.0
H435 H 0.44882 0.3824 0.94617 0.0
H436 H 0.4148 0.44957 0.95134 0.0
H437 H 0.37468 0.39857 0.88354 0.0
H438 H 0.29442 0.24865 0.95802 0.0
H439 H 0.36999 0.2734 0.95309 0.0
Li440 Li 0.65216 0.97928 0.01839 0.0
Li441 Li 0.63777 0.00568 0.03655 0.0
Li442 Li 0.63196 0.99183 0.98657 0.0
Li443 Li 0.67184 0.01962 0.00091 0.0
C444 C 0.5975 0.95552 0.01295 0.0
N445 N 0.55372 0.92206 0.99078 0.0
C446 C 0.57699 0.95597 0.02111 0.0
C447 C 0.59576 0.93796 0.99371 0.0
C448 C 0.55501 0.93892 0.00961 0.0
C449 C 0.57345 0.92123 0.98269 0.0
C450 C 0.6804 0.00354 0.06385 0.0
C451 C 0.71528 0.007 0.08715 0.0
N452 N 0.70109 0.99001 0.10678 0.0
C453 C 0.66617 0.98625 0.08441 0.0
C454 C 0.70516 0.01411 0.0653 0.0
C455 C 0.67696 0.97959 0.10587 0.0
C456 C 0.6803 0.95844 0.03078 0.0
N457 N 0.65772 0.95465 0.03101 0.0
C458 C 0.64407 0.91915 0.05898 0.0
C459 C 0.6396 0.9352 0.04409 0.0
C460 C 0.6675 0.9234 0.06092 0.0
C461 C 0.68566 0.94302 0.04584 0.0
H462 H 0.69441 0.97428 0.0205 0.0
H463 H 0.62187 0.93278 0.04425 0.0
C464 C 0.606 0.01854 0.0592 0.0
N465 N 0.62324 0.01371 0.06739 0.0
C466 C 0.59281 0.02255 0.08025 0.0
C467 C 0.61546 0.01675 0.11791 0.0
C468 C 0.62851 0.01325 0.09607 0.0
C469 C 0.59718 0.02121 0.11002 0.0
H470 H 0.60205 0.01862 0.03625 0.0
H471 H 0.64247 0.00969 0.1021 0.0
C472 C 0.66765 0.99606 0.94915 0.0
N473 N 0.68224 0.00897 0.89193 0.0
C474 C 0.66514 0.01402 0.93574 0.0
C475 C 0.67763 0.98473 0.93345 0.0
C476 C 0.67261 0.02027 0.90681 0.0
C477 C 0.68487 0.99148 0.90454 0.0
C478 C 0.64968 0.04738 0.00717 0.0
C479 C 0.63945 0.05859 0.99185 0.0
C480 C 0.66568 0.05948 0.02989 0.0
C481 C 0.64551 0.08182 0.99941 0.0
C482 C 0.67127 0.08268 0.03677 0.0
N483 N 0.66116 0.09328 0.02152 0.0
C484 C 0.594 0.99245 0.96211 0.0
C485 C 0.60842 0.97373 0.93019 0.0
C486 C 0.57757 0.9906 0.94133 0.0
N487 N 0.60921 0.98441 0.95615 0.0
C488 C 0.59249 0.97194 0.90837 0.0
C489 C 0.57711 0.98094 0.91362 0.0
H490 H 0.59493 0.00068 0.98304 0.0
H491 H 0.62057 0.96725 0.92607 0.0
C492 C 0.72004 0.04051 0.98597 0.0
N493 N 0.70151 0.04468 0.98645 0.0
C494 C 0.74114 0.05611 0.97136 0.0
C495 C 0.72375 0.08009 0.95819 0.0
C496 C 0.70301 0.06402 0.97294 0.0
C497 C 0.74307 0.07609 0.95694 0.0
H498 H 0.71805 0.02452 0.99594 0.0
H499 H 0.68778 0.06644 0.97219 0.0
O500 O 0.61925 0.97239 0.02336 0.0
O501 O 0.67015 0.00988 0.04219 0.0
O502 O 0.66094 0.98983 0.97767 0.0
O503 O 0.64362 0.02454 1.00012 0.0
H504 H 0.57806 0.96945 0.03599 0.0
H505 H 0.61153 0.93747 0.9871 0.0
H506 H 0.53898 0.93912 0.0156 0.0
H507 H 0.57184 0.90763 0.96763 0.0
H508 H 0.73443 0.01497 0.08847 0.0
H509 H 0.64694 0.97764 0.08334 0.0
H510 H 0.71645 0.02764 0.04972 0.0
H511 H 0.66614 0.96602 0.12169 0.0
H512 H 0.62938 0.90398 0.06961 0.0
H513 H 0.704 0.94718 0.04691 0.0
H514 H 0.57869 0.0257 0.07331 0.0
H515 H 0.61943 0.01575 0.14069 0.0
H516 H 0.65751 0.02306 0.94746 0.0
H517 H 0.67981 0.97088 0.94355 0.0
H518 H 0.67077 0.03413 0.89619 0.0
H519 H 0.69262 0.98285 0.89213 0.0
H520 H 0.62697 0.04941 0.97429 0.0
H521 H 0.67374 0.05112 0.04208 0.0
H522 H 0.63775 0.09072 0.98771 0.0
H523 H 0.68364 0.09227 0.05426 0.0
H524 H 0.56556 0.997 0.94692 0.0
H525 H 0.59279 0.96434 0.88739 0.0
H526 H 0.75562 0.05238 0.97097 0.0
H527 H 0.72424 0.09493 0.94679 0.0
Li528 Li 0.64847 0.66255 0.33088 0.0
Li529 Li 0.68572 0.68209 0.35421 0.0
Li530 Li 0.65746 0.69504 0.36466 0.0
Li531 Li 0.67918 0.70449 0.31603 0.0
C532 C 0.63713 0.64184 0.38171 0.0
N533 N 0.60174 0.59652 0.39694 0.0
C534 C 0.64114 0.62267 0.37937 0.0
C535 C 0.61527 0.63802 0.39221 0.0
C536 C 0.62298 0.59987 0.38706 0.0
C537 C 0.59756 0.61496 0.39969 0.0
C538 C 0.69911 0.67219 0.30305 0.0
C539 C 0.73678 0.68749 0.27806 0.0
N540 N 0.73733 0.66752 0.28551 0.0
C541 C 0.70006 0.6518 0.31043 0.0
C542 C 0.71762 0.69019 0.28673 0.0
C543 C 0.71954 0.64979 0.30138 0.0
C544 C 0.60317 0.63103 0.30572 0.0
N545 N 0.62422 0.63329 0.31441 0.0
C546 C 0.61304 0.59484 0.29507 0.0
C547 C 0.62932 0.61569 0.30947 0.0
C548 C 0.59137 0.59219 0.2853 0.0
C549 C 0.58638 0.6105 0.29109 0.0
H550 H 0.59963 0.64536 0.30942 0.0
H551 H 0.64623 0.618 0.31621 0.0
C552 C 0.7021 0.66567 0.39988 0.0
N553 N 0.70918 0.67748 0.37399 0.0
C554 C 0.71745 0.66092 0.41592 0.0
C555 C 0.74759 0.68126 0.37891 0.0
C556 C 0.73167 0.6858 0.3637 0.0
C557 C 0.74046 0.66845 0.40532 0.0
H558 H 0.68449 0.66001 0.40828 0.0
H559 H 0.73728 0.69585 0.3436 0.0
C560 C 0.62761 0.69731 0.32412 0.0
N561 N 0.59432 0.71193 0.32492 0.0
C562 C 0.63113 0.71675 0.30723 0.0
C563 C 0.60705 0.68519 0.3412 0.0
C564 C 0.61412 0.72389 0.30798 0.0
C565 C 0.59047 0.69289 0.34138 0.0
C566 C 0.71335 0.72717 0.36891 0.0
C567 C 0.71474 0.72682 0.39938 0.0
C568 C 0.7342 0.73897 0.35228 0.0
C569 C 0.7371 0.73814 0.41276 0.0
C570 C 0.75621 0.75012 0.3665 0.0
N571 N 0.75719 0.74945 0.39618 0.0
C572 C 0.64616 0.70189 0.42216 0.0
C573 C 0.64581 0.72856 0.38709 0.0
C574 C 0.64293 0.71447 0.44486 0.0
N575 N 0.64771 0.70923 0.39399 0.0
C576 C 0.642 0.74128 0.40897 0.0
C577 C 0.641 0.73454 0.4383 0.0
H578 H 0.64848 0.68691 0.42711 0.0
H579 H 0.64826 0.73474 0.36476 0.0
C580 C 0.68519 0.7206 0.25725 0.0
N581 N 0.68977 0.72738 0.28577 0.0
C582 C 0.68818 0.73721 0.23578 0.0
C583 C 0.70115 0.76739 0.27348 0.0
C584 C 0.69822 0.75034 0.2941 0.0
C585 C 0.69542 0.7607 0.24408 0.0
H586 H 0.67796 0.70207 0.25145 0.0
H587 H 0.70117 0.75503 0.31703 0.0
O588 O 0.65459 0.66423 0.37389 0.0
O589 O 0.68006 0.67442 0.31135 0.0
O590 O 0.64423 0.69024 0.32392 0.0
O591 O 0.69169 0.71571 0.35538 0.0
H592 H 0.65802 0.62535 0.37138 0.0
H593 H 0.61203 0.65272 0.39466 0.0
H594 H 0.62576 0.58485 0.38512 0.0
H595 H 0.58051 0.61173 0.40774 0.0
H596 H 0.75123 0.70131 0.26548 0.0
H597 H 0.68623 0.63791 0.32357 0.0
H598 H 0.71731 0.70616 0.28094 0.0
H599 H 0.72058 0.63419 0.30713 0.0
H600 H 0.61775 0.58133 0.29073 0.0
H601 H 0.56979 0.60909 0.28413 0.0
H602 H 0.71139 0.65164 0.43658 0.0
H603 H 0.76514 0.68743 0.36982 0.0
H604 H 0.6468 0.72625 0.29368 0.0
H605 H 0.60398 0.67007 0.35427 0.0
H606 H 0.61666 0.73894 0.29509 0.0
H607 H 0.57453 0.68373 0.35462 0.0
H608 H 0.69873 0.71766 0.41251 0.0
H609 H 0.73337 0.73927 0.32865 0.0
H610 H 0.73848 0.73789 0.43632 0.0
H611 H 0.77252 0.75922 0.35392 0.0
H612 H 0.64246 0.70893 0.4673 0.0
H613 H 0.64112 0.75698 0.40318 0.0
H614 H 0.68335 0.73141 0.21334 0.0
H615 H 0.70677 0.78536 0.28062 0.0
Li616 Li 0.29526 0.97519 0.32111 0.0
Li617 Li 0.30507 0.96522 0.36937 0.0
Li618 Li 0.31886 0.00749 0.35542 0.0
Li619 Li 0.33765 0.98738 0.33374 0.0
C620 C 0.26328 0.97669 0.36004 0.0
N621 N 0.21719 0.96844 0.35818 0.0
C622 C 0.24548 0.9587 0.37715 0.0
C623 C 0.25767 0.99067 0.34228 0.0
C624 C 0.22228 0.95475 0.37583 0.0
C625 C 0.23426 0.98618 0.34156 0.0
C626 C 0.30717 0.93291 0.32872 0.0
C627 C 0.32282 0.90676 0.33766 0.0
N628 N 0.30284 0.88837 0.32574 0.0
C629 C 0.28697 0.91381 0.31614 0.0
C630 C 0.32538 0.92942 0.33922 0.0
C631 C 0.28504 0.89141 0.31502 0.0
C632 C 0.27676 0.96725 0.26303 0.0
N633 N 0.27156 0.96127 0.2917 0.0
C634 C 0.23353 0.92837 0.27923 0.0
C635 C 0.2503 0.94253 0.30007 0.0
C636 C 0.23881 0.93326 0.24938 0.0
C637 C 0.26041 0.95345 0.2413 0.0
H638 H 0.29406 0.9819 0.25696 0.0
H639 H 0.24695 0.93759 0.32287 0.0
C640 C 0.29573 0.94696 0.42789 0.0
N641 N 0.29039 0.94176 0.39908 0.0
C642 C 0.28153 0.93056 0.44938 0.0
C643 C 0.2571 0.9038 0.41099 0.0
C644 C 0.27171 0.92058 0.39039 0.0
C645 C 0.26153 0.90896 0.44092 0.0
H646 H 0.31029 0.96423 0.43422 0.0
H647 H 0.2672 0.91732 0.3675 0.0
C648 C 0.33086 0.02755 0.30216 0.0
N649 N 0.34274 0.07193 0.28072 0.0
C650 C 0.35448 0.0462 0.303 0.0
C651 C 0.31338 0.03134 0.28984 0.0
C652 C 0.3601 0.06854 0.29223 0.0
C653 C 0.31971 0.05393 0.27926 0.0
C654 C 0.35533 0.99421 0.39031 0.0
C655 C 0.37598 0.01565 0.39704 0.0
C656 C 0.35354 0.97269 0.39873 0.0
C657 C 0.39471 0.01518 0.41138 0.0
C658 C 0.37263 0.97294 0.41306 0.0
N659 N 0.39268 0.99401 0.419 0.0
C660 C 0.30699 0.03925 0.38291 0.0
C661 C 0.34813 0.05498 0.37364 0.0
C662 C 0.31175 0.05983 0.39807 0.0
N663 N 0.32511 0.03713 0.3713 0.0
C664 C 0.35373 0.07584 0.38877 0.0
C665 C 0.33543 0.07827 0.40172 0.0
H666 H 0.28891 0.02468 0.38134 0.0
H667 H 0.36222 0.05269 0.36459 0.0
C668 C 0.36493 0.9759 0.29661 0.0
N669 N 0.36635 0.99195 0.31682 0.0
C670 C 0.38528 0.97958 0.28176 0.0
C671 C 0.40808 0.0167 0.30796 0.0
C672 C 0.38733 0.0121 0.32268 0.0
C673 C 0.40712 0.0003 0.2872 0.0
H674 H 0.34788 0.96055 0.29141 0.0
H675 H 0.38784 0.02495 0.33812 0.0
O676 O 0.28603 0.98056 0.36072 0.0
O677 O 0.30935 0.95501 0.32991 0.0
O678 O 0.325 0.00557 0.31275 0.0
O679 O 0.33677 0.99436 0.37631 0.0
H680 H 0.2495 0.94792 0.39135 0.0
H681 H 0.27127 0.00489 0.3293 0.0
H682 H 0.20832 0.94083 0.38887 0.0
H683 H 0.22969 0.99682 0.32783 0.0
H684 H 0.33678 0.90384 0.34576 0.0
H685 H 0.27284 0.91618 0.30749 0.0
H686 H 0.34155 0.94411 0.34797 0.0
H687 H 0.2694 0.87645 0.30556 0.0
H688 H 0.21699 0.91308 0.28638 0.0
H689 H 0.26521 0.95765 0.21849 0.0
H690 H 0.28536 0.93526 0.47226 0.0
H691 H 0.24191 0.8873 0.40358 0.0
H692 H 0.36829 0.04351 0.31208 0.0
H693 H 0.29515 0.01696 0.28821 0.0
H694 H 0.37827 0.08319 0.29301 0.0
H695 H 0.30632 0.05713 0.26979 0.0
H696 H 0.37762 0.03251 0.39115 0.0
H697 H 0.33753 0.95595 0.39444 0.0
H698 H 0.41085 0.03165 0.41649 0.0
H699 H 0.37148 0.95639 0.41955 0.0
H700 H 0.29704 0.06107 0.4073 0.0
H701 H 0.37225 0.08945 0.39129 0.0
H702 H 0.38381 0.96675 0.2655 0.0
H703 H 0.42465 0.03292 0.31263 0.0
Li704 Li 0.02497 0.32399 0.32065 0.0
Li705 Li 0.03447 0.34393 0.36881 0.0
Li706 Li 0.99265 0.31439 0.35476 0.0
Li707 Li 0.01181 0.35348 0.33298 0.0
C708 C 0.02472 0.29128 0.35832 0.0
N709 N 0.03489 0.25488 0.3538 0.0
C710 C 0.04271 0.29163 0.37542 0.0
C711 C 0.01178 0.27232 0.3391 0.0
C712 C 0.04761 0.27308 0.37278 0.0
C713 C 0.01722 0.25412 0.33707 0.0
C714 C 0.06492 0.37966 0.3255 0.0
C715 C 0.08682 0.42262 0.32763 0.0
N716 N 0.10624 0.4227 0.31628 0.0
C717 C 0.08501 0.38022 0.31348 0.0
C718 C 0.06575 0.40107 0.33233 0.0
C719 C 0.10576 0.40213 0.30915 0.0
C720 C 0.03301 0.31176 0.26298 0.0
N721 N 0.03975 0.31487 0.29154 0.0
C722 C 0.07414 0.31216 0.27996 0.0
C723 C 0.05966 0.31477 0.3003 0.0
C724 C 0.06843 0.31015 0.25009 0.0
C725 C 0.04718 0.30925 0.24169 0.0
H726 H 0.01729 0.31235 0.25658 0.0
H727 H 0.06502 0.318 0.32298 0.0
C728 C 0.05293 0.35243 0.42717 0.0
N729 N 0.05816 0.3534 0.39819 0.0
C730 C 0.06965 0.35476 0.44816 0.0
C731 C 0.0968 0.35964 0.40896 0.0
C732 C 0.0797 0.35731 0.38886 0.0
C733 C 0.09162 0.35766 0.439 0.0
H734 H 0.03539 0.34862 0.43394 0.0
H735 H 0.08304 0.35711 0.36576 0.0
C736 C 0.97102 0.30866 0.30378 0.0
N737 N 0.9239 0.28098 0.28742 0.0
C738 C 0.95566 0.31783 0.30557 0.0
C739 C 0.96252 0.28555 0.29333 0.0
C740 C 0.93187 0.30352 0.29728 0.0
C741 C 0.93861 0.2718 0.28526 0.0
C742 C 0.0061 0.36376 0.39197 0.0
C743 C 0.98544 0.36194 0.40402 0.0
C744 C 0.02812 0.38412 0.39735 0.0
C745 C 0.98712 0.38072 0.42081 0.0
C746 C 0.02907 0.40252 0.41426 0.0
N747 N 0.00872 0.40047 0.42551 0.0
C748 C 0.96046 0.26927 0.37938 0.0
C749 C 0.94565 0.2958 0.37446 0.0
C750 C 0.93972 0.25279 0.39386 0.0
N751 N 0.9631 0.29037 0.37028 0.0
C752 C 0.92462 0.27986 0.38886 0.0
C753 C 0.92164 0.25819 0.39924 0.0
H754 H 0.9747 0.26549 0.37622 0.0
H755 H 0.94837 0.31285 0.36737 0.0
C756 C 0.01035 0.37815 0.28534 0.0
N757 N 0.007 0.37698 0.31475 0.0
C758 C 0.00642 0.39371 0.26851 0.0
C759 C 0.99583 0.40684 0.31263 0.0
C760 C -0.00013 0.39089 0.32862 0.0
C761 C 0.99903 0.40833 0.28211 0.0
H762 H 0.0158 0.36667 0.27492 0.0
H763 H 0.99717 0.38963 0.35196 0.0
O764 O 0.01995 0.30949 0.36028 0.0
O765 O 0.04433 0.35833 0.32949 0.0
O766 O 0.99429 0.3223 0.31212 0.0
O767 O 0.00472 0.34546 0.37557 0.0
H768 H 0.05279 0.30606 0.39059 0.0
H769 H 0.99779 0.27177 0.32577 0.0
H770 H 0.06153 0.27316 0.38582 0.0
H771 H 0.00742 0.23939 0.32218 0.0
H772 H 0.0877 0.43929 0.33291 0.0
H773 H 0.08467 0.36392 0.30768 0.0
H774 H 0.05029 0.40114 0.34091 0.0
H775 H 0.12146 0.40277 0.30005 0.0
H776 H 0.09014 0.31256 0.28749 0.0
H777 H 0.04222 0.30788 0.21886 0.0
H778 H 0.06492 0.3529 0.47112 0.0
H779 H 0.11359 0.36199 0.40103 0.0
H780 H 0.96195 0.33569 0.31362 0.0
H781 H 0.97427 0.27832 0.29141 0.0
H782 H 0.91973 0.31031 0.29876 0.0
H783 H 0.93175 0.25384 0.27724 0.0
H784 H 0.96826 0.34623 0.40037 0.0
H785 H 0.04434 0.38568 0.38877 0.0
H786 H 0.97126 0.37959 0.43013 0.0
H787 H 0.046 0.4184 0.4185 0.0
H788 H 0.93804 0.23616 0.40116 0.0
H789 H 0.91128 0.28488 0.39283 0.0
H790 H 0.00875 0.39395 0.24503 0.0
H791 H 0.99044 0.41797 0.32407 0.0
Li792 Li 0.68556 0.00515 0.35229 0.0
Li793 Li 0.65942 0.96418 0.37034 0.0
Li794 Li 0.67368 0.97239 0.32056 0.0
Li795 Li 0.6454 0.98378 0.33445 0.0
C796 C 0.70968 0.97439 0.34771 0.0
N797 N 0.74312 0.96368 0.32676 0.0
C798 C 0.70902 0.95348 0.35652 0.0
C799 C 0.72744 0.98996 0.32846 0.0
C800 C 0.72607 0.94836 0.34562 0.0
C801 C 0.74415 0.98419 0.31805 0.0
C802 C 0.66056 0.00864 0.39748 0.0
C803 C 0.65563 0.03916 0.421 0.0
N804 N 0.6728 0.04268 0.44065 0.0
C805 C 0.67802 0.01242 0.41807 0.0
C806 C 0.64917 0.02201 0.39903 0.0
C807 C 0.68403 0.02978 0.43965 0.0
C808 C 0.70575 0.05415 0.36507 0.0
N809 N 0.70987 0.03559 0.36483 0.0
C810 C 0.74577 0.05809 0.39188 0.0
C811 C 0.72966 0.03735 0.37723 0.0
C812 C 0.74121 0.07702 0.39436 0.0
C813 C 0.72121 0.07512 0.37996 0.0
H814 H 0.68966 0.05207 0.35527 0.0
H815 H 0.73236 0.02224 0.37701 0.0
C816 C 0.6465 0.91962 0.39322 0.0
N817 N 0.65142 0.94179 0.40129 0.0
C818 C 0.6426 0.90258 0.41436 0.0
C819 C 0.64867 0.93138 0.45187 0.0
C820 C 0.65208 0.94778 0.42994 0.0
C821 C 0.64413 0.90854 0.44412 0.0
H822 H 0.6463 0.9154 0.37029 0.0
H823 H 0.65575 0.96538 0.43586 0.0
C824 C 0.66922 0.00346 0.28292 0.0
N825 N 0.65674 0.00484 0.2255 0.0
C826 C 0.65155 0.98278 0.26932 0.0
C827 C 0.68049 0.02483 0.2673 0.0
C828 C 0.64551 0.98385 0.24029 0.0
C829 C 0.67395 0.02517 0.23829 0.0
C830 C 0.61805 0.93375 0.34043 0.0
C831 C 0.60707 0.91234 0.32484 0.0
C832 C 0.60569 0.9374 0.36305 0.0
C833 C 0.5838 0.89492 0.33203 0.0
C834 C 0.58245 0.91954 0.36958 0.0
N835 N 0.57208 0.89885 0.35406 0.0
C836 C 0.67391 0.9342 0.29592 0.0
C837 C 0.69264 0.96771 0.26455 0.0
C838 C 0.67622 0.91994 0.27501 0.0
N839 N 0.68172 0.95747 0.29026 0.0
C840 C 0.69485 0.95388 0.24258 0.0
C841 C 0.68606 0.92947 0.24747 0.0
H842 H 0.6655 0.92664 0.31668 0.0
H843 H 0.69895 0.98637 0.2607 0.0
C844 C 0.62428 0.01058 0.31962 0.0
N845 N 0.62031 0.98794 0.31979 0.0
C846 C 0.6087 0.01591 0.30495 0.0
C847 C 0.58517 0.97449 0.29104 0.0
C848 C 0.60121 0.96998 0.30589 0.0
C849 C 0.58896 0.99776 0.29013 0.0
H850 H 0.6401 0.02468 0.32991 0.0
H851 H 0.59897 0.95239 0.30494 0.0
O852 O 0.69284 0.97948 0.35759 0.0
O853 O 0.65479 0.99209 0.37576 0.0
O854 O 0.67527 0.00311 0.31151 0.0
O855 O 0.6409 0.9508 0.33368 0.0
H856 H 0.69542 0.94128 0.37145 0.0
H857 H 0.72809 0.00617 0.32136 0.0
H858 H 0.72572 0.93218 0.35212 0.0
H859 H 0.7579 0.99598 0.30298 0.0
H860 H 0.647 0.04968 0.42241 0.0
H861 H 0.68724 0.00244 0.41695 0.0
H862 H 0.63546 0.01916 0.38347 0.0
H863 H 0.6977 0.03309 0.45549 0.0
H864 H 0.76125 0.05894 0.40196 0.0
H865 H 0.71684 0.08913 0.38145 0.0
H866 H 0.63942 0.88524 0.40751 0.0
H867 H 0.64982 0.93655 0.47462 0.0
H868 H 0.64258 0.96606 0.28096 0.0
H869 H 0.69412 0.04101 0.27755 0.0
H870 H 0.63188 0.96799 0.22952 0.0
H871 H 0.68254 0.04159 0.22595 0.0
H872 H 0.61645 0.90924 0.30733 0.0
H873 H 0.61387 0.9538 0.37544 0.0
H874 H 0.57507 0.87827 0.32012 0.0
H875 H 0.57266 0.92212 0.38699 0.0
H876 H 0.66998 0.90149 0.28032 0.0
H877 H 0.70258 0.96204 0.22176 0.0
H878 H 0.61225 0.03408 0.30485 0.0
H879 H 0.57052 0.96007 0.27933 0.0
Li880 Li 0.03136 0.69196 0.3665 0.0
Li881 Li 0.99199 0.67956 0.35177 0.0
Li882 Li 0.01133 0.65794 0.33475 0.0
Li883 Li 0.02449 0.69852 0.31675 0.0
C884 C 0.99522 0.6594 0.40369 0.0
N885 N 0.97902 0.65614 0.4604 0.0
C886 C 0.99814 0.67969 0.41814 0.0
C887 C 0.98401 0.63745 0.41806 0.0
C888 C 0.98984 0.67768 0.44681 0.0
C889 C 0.97596 0.63617 0.44674 0.0
C890 C 0.01283 0.72865 0.34405 0.0
C891 C 0.98952 0.73977 0.31395 0.0
N892 N -5e-05 0.76146 0.32721 0.0
C893 C 0.02336 0.75107 0.35732 0.0
C894 C 0.9958 0.72294 0.32212 0.0
C895 C 0.01659 0.7674 0.34853 0.0
C896 C 0.06924 0.73109 0.39098 0.0
N897 N 0.05404 0.70778 0.39696 0.0
C898 C 0.07047 0.71242 0.44493 0.0
C899 C 0.05472 0.69805 0.42302 0.0
C900 C 0.0858 0.73687 0.43969 0.0
C901 C 0.08547 0.74592 0.41188 0.0
H902 H 0.06843 0.73826 0.36998 0.0
H903 H 0.04262 0.67935 0.42714 0.0
C904 C 0.94306 0.65298 0.3643 0.0
N905 N 0.96256 0.67511 0.36629 0.0
C906 C 0.92216 0.6476 0.37929 0.0
C907 C 0.9417 0.68807 0.39738 0.0
C908 C 0.96219 0.6926 0.38227 0.0
C909 C 0.92145 0.66524 0.39639 0.0
H910 H 0.94409 0.63926 0.35204 0.0
H911 H 0.97814 0.70972 0.38467 0.0
C912 C 0.06504 0.68829 0.34153 0.0
N913 N 0.10714 0.69571 0.36583 0.0
C914 C 0.08673 0.70787 0.33297 0.0
C915 C 0.06477 0.67238 0.36229 0.0
C916 C 0.10782 0.71133 0.34555 0.0
C917 C 0.08624 0.67647 0.37436 0.0
C918 C 0.98982 0.66063 0.28315 0.0
C919 C 0.00863 0.66014 0.26882 0.0
C920 C 0.96793 0.6518 0.26898 0.0
C921 C 0.0052 0.65084 0.24052 0.0
C922 C 0.96523 0.6427 0.24064 0.0
N923 N 0.98376 0.6424 0.22713 0.0
C924 C 0.98316 0.61021 0.31755 0.0
C925 C 0.02475 0.62601 0.312 0.0
C926 C 0.97841 0.58979 0.30186 0.0
N927 N 0.00601 0.62794 0.32173 0.0
C928 C 0.02083 0.60589 0.29642 0.0
C929 C 0.99741 0.58777 0.29037 0.0
H930 H 0.96863 0.61257 0.32489 0.0
H931 H 0.04271 0.64063 0.31486 0.0
C932 C 0.05957 0.74039 0.29451 0.0
N933 N 0.03904 0.72096 0.28572 0.0
C934 C 0.07421 0.75764 0.2744 0.0
C935 C 0.04576 0.73535 0.23644 0.0
C936 C 0.03146 0.71852 0.25751 0.0
C937 C 0.06781 0.75488 0.24471 0.0
H938 H 0.06485 0.74215 0.31719 0.0
H939 H 0.01469 0.70335 0.25107 0.0
O940 O 0.00267 0.66072 0.37536 0.0
O941 O 0.01956 0.71267 0.35233 0.0
O942 O 0.04411 0.68489 0.33009 0.0
O943 O 0.99238 0.6689 0.31124 0.0
H944 H 0.0067 0.69683 0.40738 0.0
H945 H 0.98148 0.62155 0.4071 0.0
H946 H 0.99198 0.69324 0.45823 0.0
H947 H 0.96725 0.61929 0.45812 0.0
H948 H 0.97637 0.73558 0.29704 0.0
H949 H 0.03663 0.75578 0.37424 0.0
H950 H 0.98749 0.70574 0.3115 0.0
H951 H 0.02457 0.78481 0.35864 0.0
H952 H 0.07006 0.70461 0.46597 0.0
H953 H 0.09746 0.76439 0.40632 0.0
H954 H 0.90687 0.6298 0.37788 0.0
H955 H 0.94208 0.70203 0.41079 0.0
H956 H 0.0873 0.72028 0.31681 0.0
H957 H 0.04809 0.65722 0.36929 0.0
H958 H 0.12474 0.72646 0.33921 0.0
H959 H 0.08628 0.6644 0.3906 0.0
H960 H 0.02573 0.66692 0.27934 0.0
H961 H 0.95315 0.6519 0.27986 0.0
H962 H 0.0196 0.65035 0.2292 0.0
H963 H 0.94838 0.63581 0.22942 0.0
H964 H 0.96009 0.5764 0.29745 0.0
H965 H 0.03602 0.60492 0.28836 0.0
H966 H 0.09065 0.77279 0.28201 0.0
H967 H 0.04003 0.73262 0.21383 0.0
Li968 Li 0.30941 0.3417 0.36773 0.0
Li969 Li 0.32172 0.31359 0.35549 0.0
Li970 Li 0.34016 0.35152 0.33193 0.0
Li971 Li 0.29983 0.32238 0.3202 0.0
C972 C 0.35562 0.36627 0.38845 0.0
N973 N 0.38478 0.4087 0.41704 0.0
C974 C 0.37294 0.36799 0.40796 0.0
C975 C 0.35309 0.38613 0.38352 0.0
C976 C 0.38752 0.3896 0.4222 0.0
C977 C 0.36802 0.40741 0.39817 0.0
C978 C 0.27753 0.29548 0.38395 0.0
C979 C 0.24178 0.26818 0.41005 0.0
N980 N 0.25485 0.27195 0.43475 0.0
C981 C 0.29061 0.29911 0.40961 0.0
C982 C 0.25292 0.27992 0.38414 0.0
C983 C 0.27882 0.28704 0.43505 0.0
C984 C 0.27661 0.35303 0.38823 0.0
N985 N 0.29566 0.3515 0.39734 0.0
C986 C 0.28721 0.35547 0.44731 0.0
C987 C 0.30158 0.35323 0.42614 0.0
C988 C 0.26662 0.35576 0.43856 0.0
C989 C 0.26187 0.35532 0.40853 0.0
H990 H 0.27221 0.35126 0.3652 0.0
H991 H 0.31661 0.35151 0.4328 0.0
C992 C 0.35046 0.29787 0.38029 0.0
N993 N 0.3278 0.29024 0.37138 0.0
C994 C 0.35586 0.28251 0.39531 0.0
C995 C 0.31457 0.25155 0.39104 0.0
C996 C 0.31003 0.26744 0.3758 0.0
C997 C 0.33765 0.25919 0.4014 0.0
H998 H 0.36419 0.31615 0.37646 0.0
H999 H 0.29217 0.2618 0.36837 0.0
C1000 C 0.31275 0.36819 0.30415 0.0
N1001 N 0.31227 0.39108 0.2535 0.0
C1002 C 0.32241 0.36507 0.27829 0.0
C1003 C 0.30281 0.38291 0.30423 0.0
C1004 C 0.32202 0.37681 0.25293 0.0
C1005 C 0.30275 0.39434 0.2784 0.0
C1006 C 0.32259 0.29914 0.29884 0.0
C1007 C 0.33845 0.29801 0.2791 0.0
C1008 C 0.30043 0.27884 0.30395 0.0
C1009 C 0.33191 0.27654 0.26483 0.0
C1010 C 0.29456 0.2577 0.28926 0.0
N1011 N 0.31029 0.257 0.27017 0.0
C1012 C 0.38497 0.36885 0.3069 0.0
C1013 C 0.37358 0.39815 0.3115 0.0
C1014 C 0.4057 0.38485 0.29202 0.0
N1015 N 0.36929 0.37563 0.31584 0.0
C1016 C 0.39393 0.41463 0.29639 0.0
C1017 C 0.41009 0.4079 0.28609 0.0
H1018 H 0.38102 0.35078 0.31067 0.0
H1019 H 0.36086 0.4031 0.31898 0.0
C1020 C 0.25527 0.31007 0.3003 0.0
N1021 N 0.276 0.31199 0.29091 0.0
C1022 C 0.2381 0.30762 0.28021 0.0
C1023 C 0.26344 0.30806 0.24107 0.0
C1024 C 0.28019 0.31046 0.26203 0.0
C1025 C 0.24242 0.30741 0.25011 0.0
H1026 H 0.25266 0.31172 0.32338 0.0
H1027 H 0.29708 0.31254 0.25515 0.0
O1028 O 0.3413 0.34516 0.37443 0.0
O1029 O 0.28855 0.30734 0.3588 0.0
O1030 O 0.3125 0.35657 0.32921 0.0
O1031 O 0.3289 0.32011 0.3129 0.0
H1032 H 0.37509 0.35277 0.41207 0.0
H1033 H 0.33975 0.38519 0.36866 0.0
H1034 H 0.40101 0.39118 0.43736 0.0
H1035 H 0.36626 0.42291 0.39455 0.0
H1036 H 0.22273 0.25609 0.41052 0.0
H1037 H 0.30965 0.31117 0.40994 0.0
H1038 H 0.24254 0.27699 0.36448 0.0
H1039 H 0.28872 0.28969 0.45506 0.0
H1040 H 0.2914 0.3556 0.47025 0.0
H1041 H 0.24641 0.35589 0.40082 0.0
H1042 H 0.37385 0.28907 0.4031 0.0
H1043 H 0.30013 0.23359 0.39503 0.0
H1044 H 0.33005 0.35363 0.27773 0.0
H1045 H 0.29517 0.38542 0.32405 0.0
H1046 H 0.32942 0.37454 0.23277 0.0
H1047 H 0.2951 0.40578 0.27814 0.0
H1048 H 0.35565 0.31358 0.27485 0.0
H1049 H 0.28783 0.2793 0.319 0.0
H1050 H 0.34403 0.27542 0.2495 0.0
H1051 H 0.27749 0.24186 0.29303 0.0
H1052 H 0.41769 0.37898 0.28427 0.0
H1053 H 0.39689 0.43237 0.29251 0.0
H1054 H 0.22197 0.30679 0.28812 0.0
H1055 H 0.26751 0.30812 0.21807 0.0
Li1056 Li 0.3121 0.99355 0.66627 0.0
Li1057 Li 0.35063 0.01111 0.68905 0.0
Li1058 Li 0.32163 0.02522 0.70162 0.0
Li1059 Li 0.34233 0.03489 0.65344 0.0
C1060 C 0.30444 0.97041 0.71581 0.0
N1061 N 0.27456 0.92278 0.72826 0.0
C1062 C 0.31268 0.95434 0.7131 0.0
C1063 C 0.28111 0.96235 0.72516 0.0
C1064 C 0.29727 0.9303 0.71942 0.0
C1065 C 0.26625 0.93817 0.73126 0.0
C1066 C 0.36288 0.00874 0.63035 0.0
C1067 C 0.40345 0.03444 0.61463 0.0
N1068 N 0.40219 0.01635 0.59821 0.0
C1069 C 0.36192 0.99046 0.61316 0.0
C1070 C 0.38375 0.03095 0.63097 0.0
C1071 C 0.38201 0.99464 0.59713 0.0
C1072 C 0.26618 0.96108 0.64283 0.0
N1073 N 0.28798 0.96443 0.64979 0.0
C1074 C 0.27811 0.92684 0.62875 0.0
C1075 C 0.29412 0.94779 0.64324 0.0
C1076 C 0.25567 0.92317 0.62062 0.0
C1077 C 0.24965 0.94045 0.62822 0.0
H1078 H 0.26176 0.97461 0.6479 0.0
H1079 H 0.31172 0.95107 0.6487 0.0
C1080 C 0.37613 0.00965 0.73616 0.0
N1081 N 0.3736 0.00536 0.70693 0.0
C1082 C 0.39173 0.00529 0.75228 0.0
C1083 C 0.40199 0.99222 0.70786 0.0
C1084 C 0.386 0.99665 0.69263 0.0
C1085 C 0.40501 0.9965 0.73815 0.0
H1086 H 0.36576 0.01626 0.74698 0.0
H1087 H 0.38344 0.99296 0.66951 0.0
C1088 C 0.28938 0.02544 0.66069 0.0
N1089 N 0.252 0.03429 0.65923 0.0
C1090 C 0.28976 0.04208 0.64103 0.0
C1091 C 0.27 0.01332 0.67962 0.0
C1092 C 0.27069 0.0463 0.64062 0.0
C1093 C 0.25127 0.01803 0.67854 0.0
C1094 C 0.37588 0.06474 0.70106 0.0
C1095 C 0.3735 0.08361 0.71175 0.0
C1096 C 0.3985 0.06711 0.69962 0.0
C1097 C 0.3938 0.1047 0.72032 0.0
C1098 C 0.41836 0.08848 0.70843 0.0
N1099 N 0.41562 0.10668 0.71848 0.0
C1100 C 0.31364 0.0341 0.76003 0.0
C1101 C 0.30721 0.05657 0.72416 0.0
C1102 C 0.31024 0.04682 0.78244 0.0
N1103 N 0.31232 0.03936 0.73157 0.0
C1104 C 0.30327 0.06937 0.74577 0.0
C1105 C 0.30521 0.06487 0.77534 0.0
H1106 H 0.31822 0.02067 0.76529 0.0
H1107 H 0.30732 0.06121 0.70147 0.0
C1108 C 0.35289 0.05377 0.59541 0.0
N1109 N 0.35296 0.05884 0.62432 0.0
C1110 C 0.35608 0.07067 0.57424 0.0
C1111 C 0.36007 0.09772 0.61315 0.0
C1112 C 0.35688 0.08041 0.63344 0.0
C1113 C 0.35894 0.09267 0.58312 0.0
H1114 H 0.34909 0.03621 0.58876 0.0
H1115 H 0.35603 0.08365 0.65644 0.0
O1116 O 0.31911 0.9939 0.70914 0.0
O1117 O 0.34335 0.00484 0.64619 0.0
O1118 O 0.30816 0.02149 0.66177 0.0
O1119 O 0.35612 0.04377 0.6931 0.0
H1120 H 0.33069 0.96031 0.70585 0.0
H1121 H 0.27456 0.97462 0.72767 0.0
H1122 H 0.30334 0.91762 0.71722 0.0
H1123 H 0.24811 0.93164 0.7384 0.0
H1124 H 0.41971 0.05154 0.61494 0.0
H1125 H 0.34586 0.97319 0.61229 0.0
H1126 H 0.38466 0.0454 0.64367 0.0
H1127 H 0.38155 0.98062 0.58383 0.0
H1128 H 0.28356 0.91409 0.62302 0.0
H1129 H 0.23244 0.93819 0.62261 0.0
H1130 H 0.39307 0.00843 0.77565 0.0
H1131 H 0.412 0.9857 0.69596 0.0
H1132 H 0.30462 0.05163 0.62623 0.0
H1133 H 0.26953 0.00052 0.69508 0.0
H1134 H 0.27074 0.05913 0.62553 0.0
H1135 H 0.23619 0.00881 0.6931 0.0
H1136 H 0.35619 0.0821 0.71324 0.0
H1137 H 0.40075 0.05261 0.69195 0.0
H1138 H 0.39219 0.11948 0.72846 0.0
H1139 H 0.43595 0.09055 0.70735 0.0
H1140 H 0.31198 0.04292 0.80503 0.0
H1141 H 0.29999 0.08352 0.7394 0.0
H1142 H 0.35486 0.06606 0.55128 0.0
H1143 H 0.36237 0.11453 0.62087 0.0
Li1144 Li 0.00536 0.31628 0.66397 0.0
Li1145 Li 0.98732 0.33691 0.68664 0.0
Li1146 Li 0.97357 0.29386 0.69907 0.0
Li1147 Li 0.96391 0.30455 0.651 0.0
C1148 C 0.02808 0.33218 0.71418 0.0
N1149 N 0.07548 0.35075 0.72842 0.0
C1150 C 0.04394 0.35667 0.712 0.0
C1151 C 0.03623 0.31717 0.72394 0.0
C1152 C 0.06787 0.3657 0.71921 0.0
C1153 C 0.06029 0.32689 0.73094 0.0
C1154 C 0.99033 0.35151 0.62772 0.0
C1155 C 0.96514 0.36643 0.61082 0.0
N1156 N 0.9836 0.38327 0.59481 0.0
C1157 C 0.00901 0.36885 0.61094 0.0
C1158 C 0.96819 0.35018 0.62754 0.0
C1159 C 0.00527 0.38479 0.59451 0.0
C1160 C 0.03783 0.30368 0.63886 0.0
N1161 N 0.0346 0.32189 0.64748 0.0
C1162 C 0.07233 0.35049 0.62744 0.0
C1163 C 0.05134 0.34496 0.64221 0.0
C1164 C 0.07593 0.33204 0.61767 0.0
C1165 C 0.0585 0.30837 0.6239 0.0
H1166 H 0.02413 0.28549 0.6428 0.0
H1167 H 0.04807 0.35907 0.64879 0.0
C1168 C 0.98939 0.36418 0.73385 0.0
N1169 N 0.99284 0.36565 0.70444 0.0
C1170 C 0.9937 0.38422 0.74991 0.0
C1171 C 0.00488 0.40699 0.70507 0.0
C1172 C 0.00057 0.38652 0.6899 0.0
C1173 C 0.0015 0.40603 0.73554 0.0
H1174 H 0.98353 0.34739 0.74484 0.0
H1175 H 0.00359 0.38746 0.66663 0.0
C1176 C 0.97348 0.26125 0.65923 0.0
N1177 N 0.96438 0.21488 0.65999 0.0
C1178 C 0.95586 0.24406 0.64116 0.0
C1179 C 0.98651 0.25487 0.67763 0.0
C1180 C 0.95152 0.22071 0.64188 0.0
C1181 C 0.98164 0.23133 0.67771 0.0
C1182 C 0.93366 0.30807 0.69784 0.0
C1183 C 0.91467 0.28677 0.70843 0.0
C1184 C 0.93125 0.32824 0.69581 0.0
C1185 C 0.89343 0.28586 0.71628 0.0
C1186 C 0.90973 0.32662 0.7039 0.0
N1187 N 0.89141 0.30564 0.71386 0.0
C1188 C 0.96522 0.27737 0.75754 0.0
C1189 C 0.94203 0.24813 0.72212 0.0
C1190 C 0.95256 0.26152 0.78021 0.0
N1191 N 0.95956 0.27051 0.72919 0.0
C1192 C 0.92923 0.23164 0.74401 0.0
C1193 C 0.93411 0.23841 0.77349 0.0
H1194 H 0.97892 0.29543 0.76253 0.0
H1195 H 0.9371 0.24338 0.69953 0.0
C1196 C 0.94566 0.29645 0.5928 0.0
N1197 N 0.94022 0.29123 0.62159 0.0
C1198 C 0.92891 0.28302 0.57129 0.0
C1199 C 0.90129 0.25969 0.60964 0.0
C1200 C 0.91846 0.27355 0.63028 0.0
C1201 C 0.90669 0.26389 0.57972 0.0
H1202 H 0.96336 0.31022 0.5865 0.0
H1203 H 0.91491 0.26927 0.6532 0.0
O1204 O 0.00469 0.32297 0.70677 0.0
O1205 O 0.99379 0.33582 0.64391 0.0
O1206 O 0.97764 0.28409 0.65916 0.0
O1207 O 0.95477 0.30939 0.69058 0.0
H1208 H 0.03791 0.36853 0.70449 0.0
H1209 H 0.0241 0.29823 0.72613 0.0
H1210 H 0.08039 0.38459 0.71742 0.0
H1211 H 0.06687 0.31548 0.73841 0.0
H1212 H 0.94809 0.3656 0.61051 0.0
H1213 H 0.02624 0.37003 0.61068 0.0
H1214 H 0.95344 0.33663 0.63994 0.0
H1215 H 0.01959 0.39836 0.58151 0.0
H1216 H 0.08515 0.36895 0.62275 0.0
H1217 H 0.06069 0.29363 0.61694 0.0
H1218 H 0.99129 0.38268 0.77341 0.0
H1219 H 0.0106 0.4233 0.69298 0.0
H1220 H 0.94563 0.2487 0.62674 0.0
H1221 H 0.00014 0.26794 0.69178 0.0
H1222 H 0.93792 0.20722 0.62804 0.0
H1223 H 0.99155 0.22613 0.6919 0.0
H1224 H 0.91622 0.27103 0.71039 0.0
H1225 H 0.94585 0.34503 0.68824 0.0
H1226 H 0.87856 0.26944 0.72434 0.0
H1227 H 0.90763 0.34208 0.70236 0.0
H1228 H 0.95679 0.2674 0.80271 0.0
H1229 H 0.91479 0.21418 0.73791 0.0
H1230 H 0.93378 0.28661 0.54842 0.0
H1231 H 0.8843 0.24516 0.61699 0.0
Li1232 Li 0.68058 0.68326 0.66591 0.0
Li1233 Li 0.66199 0.64682 0.68964 0.0
Li1234 Li 0.70333 0.67578 0.70233 0.0
Li1235 Li 0.69176 0.65359 0.65264 0.0
C1236 C 0.67051 0.69548 0.71795 0.0
N1237 N 0.66175 0.73077 0.73688 0.0
C1238 C 0.64851 0.69367 0.71239 0.0
C1239 C 0.68796 0.71505 0.73345 0.0
C1240 C 0.64446 0.71177 0.72203 0.0
C1241 C 0.6832 0.73275 0.74277 0.0
C1242 C 0.63915 0.6352 0.63804 0.0
C1243 C 0.61323 0.59817 0.61342 0.0
N1244 N 0.59427 0.6009 0.61986 0.0
C1245 C 0.61948 0.63779 0.64416 0.0
C1246 C 0.63609 0.61536 0.62236 0.0
C1247 C 0.59691 0.62018 0.63489 0.0
C1248 C 0.66362 0.70024 0.62166 0.0
N1249 N 0.6757 0.70697 0.6474 0.0
C1250 C 0.67991 0.74562 0.64346 0.0
C1251 C 0.68415 0.72931 0.65824 0.0
C1252 C 0.66722 0.73902 0.61695 0.0
C1253 C 0.65919 0.716 0.60603 0.0
H1254 H 0.65764 0.68265 0.61298 0.0
H1255 H 0.6943 0.73461 0.67825 0.0
C1256 C 0.62781 0.63056 0.73396 0.0
N1257 N 0.63304 0.62353 0.70833 0.0
C1258 C 0.60734 0.61512 0.7496 0.0
C1259 C 0.59793 0.58522 0.71241 0.0
C1260 C 0.61874 0.60121 0.69759 0.0
C1261 C 0.59195 0.59213 0.7388 0.0
H1262 H 0.63971 0.64812 0.74254 0.0
H1263 H 0.62348 0.59569 0.67764 0.0
C1264 C 0.72522 0.71058 0.65054 0.0
N1265 N 0.74757 0.7559 0.62713 0.0
C1266 C 0.72504 0.71373 0.62033 0.0
C1267 C 0.73687 0.73043 0.66885 0.0
C1268 C 0.73639 0.73681 0.60893 0.0
C1269 C 0.74807 0.75321 0.65658 0.0
C1270 C 0.67832 0.61871 0.70443 0.0
C1271 C 0.67494 0.61568 0.73466 0.0
C1272 C 0.66966 0.59878 0.6862 0.0
C1273 C 0.66273 0.59265 0.74616 0.0
C1274 C 0.65759 0.57604 0.69856 0.0
N1275 N 0.65437 0.57347 0.72803 0.0
C1276 C 0.71986 0.68186 0.76023 0.0
C1277 C 0.74986 0.69475 0.72377 0.0
C1278 C 0.73634 0.68525 0.78198 0.0
N1279 N 0.7268 0.68617 0.73178 0.0
C1280 C 0.76697 0.69855 0.74482 0.0
C1281 C 0.76013 0.69314 0.77426 0.0
H1282 H 0.70131 0.67479 0.76584 0.0
H1283 H 0.75472 0.69755 0.70087 0.0
C1284 C 0.70137 0.64747 0.59438 0.0
N1285 N 0.70414 0.6429 0.62264 0.0
C1286 C 0.7142 0.64413 0.57217 0.0
C1287 C 0.73148 0.63029 0.60848 0.0
C1288 C 0.71843 0.63405 0.63001 0.0
C1289 C 0.72998 0.63603 0.57924 0.0
H1290 H 0.69006 0.65477 0.58931 0.0
H1291 H 0.72061 0.63106 0.65277 0.0
O1292 O 0.67474 0.67788 0.70892 0.0
O1293 O 0.6614 0.6523 0.64673 0.0
O1294 O 0.71369 0.68818 0.66221 0.0
O1295 O 0.68968 0.64107 0.69267 0.0
H1296 H 0.63476 0.6785 0.70067 0.0
H1297 H 0.70504 0.71664 0.73803 0.0
H1298 H 0.62758 0.71069 0.71773 0.0
H1299 H 0.69657 0.74807 0.75464 0.0
H1300 H 0.61055 0.58264 0.60142 0.0
H1301 H 0.62164 0.65318 0.65603 0.0
H1302 H 0.65118 0.61317 0.61735 0.0
H1303 H 0.58149 0.62186 0.63962 0.0
H1304 H 0.68638 0.76312 0.65285 0.0
H1305 H 0.6499 0.71027 0.58534 0.0
H1306 H 0.60386 0.62107 0.7702 0.0
H1307 H 0.58659 0.56772 0.70313 0.0
H1308 H 0.71597 0.69854 0.60591 0.0
H1309 H 0.73701 0.72827 0.6923 0.0
H1310 H 0.73626 0.73954 0.58561 0.0
H1311 H 0.75704 0.76875 0.67048 0.0
H1312 H 0.68143 0.63094 0.74902 0.0
H1313 H 0.67199 0.60085 0.66273 0.0
H1314 H 0.65983 0.59002 0.7695 0.0
H1315 H 0.65067 0.56044 0.68472 0.0
H1316 H 0.7304 0.68105 0.80447 0.0
H1317 H 0.78503 0.70435 0.73788 0.0
H1318 H 0.71243 0.6486 0.54986 0.0
H1319 H 0.74366 0.62432 0.6149 0.0
Li1320 Li 0.34995 0.33728 0.69245 0.0
Li1321 Li 0.31979 0.29558 0.70322 0.0
Li1322 Li 0.3395 0.30675 0.65488 0.0
Li1323 Li 0.31103 0.31851 0.6683 0.0
C1324 C 0.37339 0.30797 0.70064 0.0
N1325 N 0.4135 0.3058 0.71539 0.0
C1326 C 0.37519 0.29979 0.72824 0.0
C1327 C 0.39194 0.3149 0.68048 0.0
C1328 C 0.39563 0.29887 0.7353 0.0
C1329 C 0.41208 0.31371 0.68837 0.0
C1330 C 0.29724 0.31911 0.72555 0.0
C1331 C 0.25578 0.29163 0.73572 0.0
N1332 N 0.25548 0.3077 0.75459 0.0
C1333 C 0.29653 0.33535 0.74502 0.0
C1334 C 0.27672 0.29706 0.72083 0.0
C1335 C 0.27524 0.32925 0.75951 0.0
C1336 C 0.37117 0.38527 0.70806 0.0
N1337 N 0.37376 0.36583 0.71013 0.0
C1338 C 0.40816 0.38713 0.74025 0.0
C1339 C 0.3918 0.36638 0.72577 0.0
C1340 C 0.4058 0.40745 0.73883 0.0
C1341 C 0.38707 0.40641 0.72235 0.0
H1342 H 0.35651 0.38421 0.69563 0.0
H1343 H 0.39331 0.35066 0.72754 0.0
C1344 C 0.30247 0.24932 0.72461 0.0
N1345 N 0.30988 0.27211 0.73279 0.0
C1346 C 0.29918 0.23232 0.74559 0.0
C1347 C 0.31065 0.26251 0.78303 0.0
C1348 C 0.3135 0.27886 0.76134 0.0
C1349 C 0.3039 0.23902 0.77515 0.0
H1350 H 0.30025 0.24464 0.70165 0.0
H1351 H 0.31979 0.29725 0.76708 0.0
C1352 C 0.36051 0.35295 0.63151 0.0
N1353 N 0.39621 0.38164 0.59279 0.0
C1354 C 0.35485 0.35957 0.60499 0.0
C1355 C 0.38432 0.36112 0.63849 0.0
C1356 C 0.37315 0.37402 0.58565 0.0
C1357 C 0.40211 0.37556 0.61859 0.0
C1358 C 0.29306 0.27496 0.63858 0.0
C1359 C 0.29752 0.28858 0.61322 0.0
C1360 C 0.27656 0.25057 0.63783 0.0
C1361 C 0.28536 0.27754 0.58751 0.0
C1362 C 0.26477 0.24018 0.61168 0.0
N1363 N 0.26937 0.25377 0.58728 0.0
C1364 C 0.35018 0.27395 0.63352 0.0
C1365 C 0.35262 0.30043 0.59627 0.0
C1366 C 0.35309 0.25972 0.61308 0.0
N1367 N 0.34964 0.29363 0.62483 0.0
C1368 C 0.35546 0.28656 0.57493 0.0
C1369 C 0.355 0.26552 0.58324 0.0
H1370 H 0.34729 0.26874 0.65629 0.0
H1371 H 0.35147 0.31578 0.58977 0.0
C1372 C 0.29554 0.34754 0.64357 0.0
N1373 N 0.28778 0.32486 0.65254 0.0
C1374 C 0.2804 0.35295 0.62801 0.0
C1375 C 0.24941 0.31164 0.63184 0.0
C1376 C 0.26505 0.30709 0.64767 0.0
C1377 C 0.25721 0.33474 0.62139 0.0
H1378 H 0.31378 0.36124 0.64763 0.0
H1379 H 0.25933 0.28921 0.6551 0.0
O1380 O 0.35342 0.30887 0.69337 0.0
O1381 O 0.31796 0.32497 0.71116 0.0
O1382 O 0.34274 0.33879 0.65058 0.0
O1383 O 0.30492 0.28527 0.66398 0.0
H1384 H 0.36104 0.29434 0.74412 0.0
H1385 H 0.39076 0.32094 0.65886 0.0
H1386 H 0.39728 0.29265 0.75662 0.0
H1387 H 0.42655 0.31901 0.67297 0.0
H1388 H 0.23977 0.27464 0.73227 0.0
H1389 H 0.31228 0.35251 0.74886 0.0
H1390 H 0.27689 0.28424 0.70586 0.0
H1391 H 0.27443 0.34164 0.77464 0.0
H1392 H 0.42213 0.38707 0.75307 0.0
H1393 H 0.38475 0.42174 0.72052 0.0
H1394 H 0.29426 0.2145 0.73856 0.0
H1395 H 0.31435 0.26832 0.8056 0.0
H1396 H 0.33648 0.35347 0.59934 0.0
H1397 H 0.38905 0.35648 0.65906 0.0
H1398 H 0.36902 0.37918 0.56498 0.0
H1399 H 0.42062 0.38197 0.62368 0.0
H1400 H 0.31023 0.30746 0.61335 0.0
H1401 H 0.27293 0.23977 0.65726 0.0
H1402 H 0.28865 0.28787 0.56775 0.0
H1403 H 0.25195 0.22132 0.61079 0.0
H1404 H 0.35304 0.24387 0.6205 0.0
H1405 H 0.35667 0.29152 0.55213 0.0
H1406 H 0.28708 0.37094 0.62018 0.0
H1407 H 0.23154 0.2972 0.62742 0.0
Li1408 Li 0.65907 0.01292 0.68514 0.0
Li1409 Li 0.70002 0.02785 0.70324 0.0
Li1410 Li 0.6919 0.03351 0.65326 0.0
Li1411 Li 0.68019 0.99377 0.66761 0.0
C1412 C 0.6901 0.06786 0.68003 0.0
N1413 N 0.70093 0.11191 0.65859 0.0
C1414 C 0.711 0.08829 0.68879 0.0
C1415 C 0.6746 0.06982 0.66058 0.0
C1416 C 0.71618 0.11041 0.67765 0.0
C1417 C 0.68043 0.09226 0.64993 0.0
C1418 C 0.65542 0.98512 0.73081 0.0
C1419 C 0.62426 0.95031 0.75488 0.0
N1420 N 0.62137 0.96459 0.77426 0.0
C1421 C 0.65228 -0.00056 0.75112 0.0
C1422 C 0.6414 0.96035 0.73277 0.0
C1423 C 0.63491 0.98873 0.77286 0.0
C1424 C 0.6099 0.98448 0.69832 0.0
N1425 N 0.62871 0.00712 0.69775 0.0
C1426 C 0.60678 0.02124 0.72469 0.0
C1427 C 0.62733 0.02547 0.70993 0.0
C1428 C 0.5876 0.99781 0.72752 0.0
C1429 C 0.58908 0.97935 0.71334 0.0
H1430 H 0.61165 0.97019 0.6887 0.0
H1431 H 0.64263 0.04325 0.70946 0.0
C1432 C 0.74474 0.05982 0.7257 0.0
N1433 N 0.72262 0.04252 0.73402 0.0
C1434 C 0.76208 0.07291 0.74663 0.0
C1435 C 0.73364 0.0501 0.78447 0.0
C1436 C 0.71693 0.03715 0.76273 0.0
C1437 C 0.75647 0.06838 0.77645 0.0
H1438 H 0.74873 0.06386 0.70273 0.0
H1439 H 0.69937 0.02314 0.76886 0.0
C1440 C 0.66064 0.99752 0.61591 0.0
N1441 N 0.65921 0.98304 0.55868 0.0
C1442 C 0.68131 0.00049 0.60238 0.0
C1443 C 0.63926 0.98713 0.60033 0.0
C1444 C 0.68021 0.99307 0.57344 0.0
C1445 C 0.6389 0.97995 0.57141 0.0
C1446 C 0.7303 0.01669 0.67367 0.0
C1447 C 0.75188 0.02737 0.65841 0.0
C1448 C 0.72649 0.00063 0.69623 0.0
C1449 C 0.76931 0.02173 0.66587 0.0
C1450 C 0.74437 0.99546 0.70303 0.0
N1451 N 0.76522 0.00602 0.68784 0.0
C1452 C 0.73027 0.07194 0.62866 0.0
C1453 C 0.69697 0.0569 0.59698 0.0
C1454 C 0.74467 0.08857 0.60785 0.0
N1455 N 0.70703 0.05634 0.62282 0.0
C1456 C 0.71094 0.07301 0.57512 0.0
C1457 C 0.73532 0.08882 0.58023 0.0
H1458 H 0.73771 0.07119 0.64951 0.0
H1459 H 0.67833 0.04444 0.59297 0.0
C1460 C 0.65364 0.94525 0.65339 0.0
N1461 N 0.67612 0.96434 0.65321 0.0
C1462 C 0.6486 0.92421 0.63901 0.0
C1463 C 0.68998 0.94283 0.62471 0.0
C1464 C 0.69419 0.96347 0.63924 0.0
C1465 C 0.66689 0.92293 0.62415 0.0
H1466 H 0.63943 0.94671 0.66372 0.0
H1467 H 0.71163 0.97912 0.63797 0.0
O1468 O 0.68497 0.04599 0.69013 0.0
O1469 O 0.67193 0.99528 0.70891 0.0
O1470 O 0.66101 0.00421 0.64442 0.0
O1471 O 0.71326 0.02233 0.66672 0.0
H1472 H 0.72315 0.08707 0.70387 0.0
H1473 H 0.65841 0.05412 0.65351 0.0
H1474 H 0.73235 0.12637 0.68411 0.0
H1475 H 0.6687 0.09403 0.63471 0.0
H1476 H 0.61323 0.93116 0.7566 0.0
H1477 H 0.66276 0.01866 0.74967 0.0
H1478 H 0.64372 0.949 0.7174 0.0
H1479 H 0.6321 -0.00039 0.78849 0.0
H1480 H 0.60626 0.03614 0.73458 0.0
H1481 H 0.57489 0.96101 0.71509 0.0
H1482 H 0.77942 0.08705 0.73959 0.0
H1483 H 0.72874 0.04602 0.80727 0.0
H1484 H 0.69804 0.00847 0.61399 0.0
H1485 H 0.62308 0.9846 0.61053 0.0
H1486 H 0.69607 0.99527 0.56272 0.0
H1487 H 0.62246 0.97189 0.5591 0.0
H1488 H 0.75511 0.0399 0.64097 0.0
H1489 H 0.70996 0.99222 0.70837 0.0
H1490 H 0.78609 0.02985 0.65422 0.0
H1491 H 0.74167 0.98306 0.7204 0.0
H1492 H 0.76308 0.10091 0.61334 0.0
H1493 H 0.70291 0.07252 0.55422 0.0
H1494 H 0.63055 0.90927 0.63915 0.0
H1495 H 0.70448 0.94284 0.61294 0.0
Li1496 Li 0.97028 0.67199 0.69937 0.0
Li1497 Li 0.98187 0.6434 0.68603 0.0
Li1498 Li 0.00141 0.68214 0.66384 0.0
Li1499 Li 0.96086 0.65383 0.65113 0.0
C1500 C 0.01648 0.69493 0.72081 0.0
N1501 N 0.04644 0.73613 0.75119 0.0
C1502 C 0.03329 0.69539 0.74024 0.0
C1503 C 0.01488 0.71542 0.71688 0.0
C1504 C 0.04828 0.71639 0.75538 0.0
C1505 C 0.03019 0.73607 0.73242 0.0
C1506 C 0.93752 0.62552 0.71409 0.0
C1507 C 0.90141 0.59837 0.73968 0.0
N1508 N 0.91435 0.60094 0.76416 0.0
C1509 C 0.95047 0.62788 0.7395 0.0
C1510 C 0.9128 0.61064 0.71415 0.0
C1511 C 0.93843 0.61531 0.76459 0.0
C1512 C 0.94093 0.68791 0.72267 0.0
N1513 N 0.95777 0.68233 0.73012 0.0
C1514 C 0.95139 0.68584 0.78097 0.0
C1515 C 0.96357 0.68174 0.75857 0.0
C1516 C 0.93339 0.69093 0.77392 0.0
C1517 C 0.92858 0.6925 0.74433 0.0
H1518 H 0.93647 0.68789 0.69988 0.0
H1519 H 0.97699 0.67717 0.76392 0.0
C1520 C 0.01025 0.62657 0.70905 0.0
N1521 N 0.98752 0.61935 0.70083 0.0
C1522 C 0.0156 0.61082 0.7232 0.0
C1523 C 0.97411 0.5803 0.71948 0.0
C1524 C 0.96961 0.59657 0.70509 0.0
C1525 C 0.99729 0.5875 0.72914 0.0
H1526 H 0.0241 0.64481 0.70535 0.0
H1527 H 0.9517 0.59125 0.6982 0.0
C1528 C 0.97512 0.7004 0.6367 0.0
N1529 N 0.97643 0.72511 0.58693 0.0
C1530 C 0.98557 0.6981 0.61104 0.0
C1531 C 0.96536 0.71528 0.63703 0.0
C1532 C 0.98606 0.71074 0.58612 0.0
C1533 C 0.9662 0.72762 0.61164 0.0
C1534 C 0.98333 0.63049 0.62882 0.0
C1535 C -0.00089 0.62988 0.60848 0.0
C1536 C 0.96119 0.61006 0.63355 0.0
C1537 C 0.9925 0.60879 0.59323 0.0
C1538 C 0.95525 0.58932 0.61788 0.0
N1539 N 0.9709 0.58912 0.59822 0.0
C1540 C 0.04659 0.69927 0.63943 0.0
C1541 C 0.03615 0.72912 0.64586 0.0
C1542 C 0.06773 0.71544 0.62537 0.0
N1543 N 0.03117 0.70625 0.64885 0.0
C1544 C 0.05695 0.74581 0.63167 0.0
C1545 C 0.07284 0.73891 0.6208 0.0
H1546 H 0.0421 0.68093 0.64213 0.0
H1547 H 0.02363 0.73424 0.65366 0.0
C1548 C 0.9154 0.6386 0.62865 0.0
N1549 N 0.93771 0.64385 0.62077 0.0
C1550 C 0.89847 0.63466 0.6073 0.0
C1551 C 0.92767 0.64124 0.57008 0.0
C1552 C 0.94393 0.64466 0.59217 0.0
C1553 C 0.90474 0.63657 0.5776 0.0
H1554 H 0.9111 0.63845 0.65155 0.0
H1555 H 0.96183 0.64898 0.58647 0.0
O1556 O 0.00174 0.67442 0.7059 0.0
O1557 O 0.94881 0.63782 0.68927 0.0
O1558 O 0.97416 0.68804 0.66137 0.0
O1559 O 0.98968 0.65109 0.64381 0.0
H1560 H 0.03471 0.67965 0.74358 0.0
H1561 H 0.00194 0.71544 0.70208 0.0
H1562 H 0.06137 0.717 0.77048 0.0
H1563 H 0.02915 0.75205 0.72957 0.0
H1564 H 0.88227 0.5868 0.74004 0.0
H1565 H 0.96961 0.63931 0.73992 0.0
H1566 H 0.90251 0.60863 0.69466 0.0
H1567 H 0.94824 0.617 0.7844 0.0
H1568 H 0.95563 0.68455 0.80355 0.0
H1569 H 0.9146 0.69606 0.73803 0.0
H1570 H 0.03367 0.61708 0.73047 0.0
H1571 H 0.95957 0.56238 0.72339 0.0
H1572 H 0.99319 0.68665 0.61031 0.0
H1573 H 0.95721 0.71725 0.6567 0.0
H1574 H 0.99406 0.70909 0.56613 0.0
H1575 H 0.95869 0.73919 0.61159 0.0
H1576 H 0.01628 0.64556 0.60451 0.0
H1577 H 0.94866 0.61015 0.64906 0.0
H1578 H 0.00455 0.60807 0.57743 0.0
H1579 H 0.93819 0.57339 0.62134 0.0
H1580 H 0.07945 0.70941 0.61714 0.0
H1581 H 0.06042 0.76384 0.62885 0.0
H1582 H 0.88106 0.63139 0.61396 0.0
H1583 H 0.93311 0.64277 0.5474 0.0
C1584 C 0.23818 0.33959 0.11107 0.0
C1585 C 0.23544 0.32469 0.0873 0.0
C1586 C 0.21872 0.33484 0.12873 0.0
C1587 C 0.19618 0.31513 0.12289 0.0
C1588 C 0.21289 0.30487 0.08157 0.0
C1589 C 0.19334 0.3003 0.09904 0.0
C1590 C 0.17528 0.31127 0.14008 0.0
C1591 C 0.219 0.29455 0.20303 0.0
C1592 C 0.22594 0.30854 0.22858 0.0
C1593 C 0.2027 0.29531 0.18363 0.0
C1594 C 0.19337 0.31033 0.18934 0.0
C1595 C 0.2169 0.32384 0.23381 0.0
C1596 C 0.20077 0.32464 0.21451 0.0
C1597 C 0.17457 0.3102 0.17091 0.0
C1598 C 0.07822 0.29575 0.20352 0.0
C1599 C 0.08568 0.31087 0.22811 0.0
C1600 C 0.09506 0.29592 0.18408 0.0
C1601 C 0.11953 0.31135 0.18888 0.0
C1602 C 0.11015 0.32671 0.23219 0.0
C1603 C 0.12683 0.32681 0.21296 0.0
C1604 C 0.13803 0.31066 0.17063 0.0
C1605 C 0.10298 0.33905 0.1116 0.0
C1606 C 0.09363 0.32641 0.08537 0.0
C1607 C 0.11729 0.33408 0.12953 0.0
C1608 C 0.12212 0.31595 0.12205 0.0
C1609 C 0.09869 0.30841 0.07775 0.0
C1610 C 0.11288 0.30332 0.09587 0.0
C1611 C 0.13875 0.31182 0.13976 0.0
H1612 H 0.25541 0.35488 0.11608 0.0
H1613 H 0.2212 0.34685 0.14661 0.0
H1614 H 0.21031 0.2932 0.06326 0.0
H1615 H 0.17599 0.28522 0.09395 0.0
H1616 H 0.22562 0.28253 0.1985 0.0
H1617 H 0.19688 0.28368 0.16472 0.0
H1618 H 0.22231 0.33526 0.25292 0.0
H1619 H 0.19392 0.33642 0.2194 0.0
H1620 H 0.05949 0.28332 0.19985 0.0
H1621 H 0.08903 0.28358 0.16586 0.0
H1622 H 0.11649 0.33904 0.25043 0.0
H1623 H 0.14558 0.33897 0.21703 0.0
H1624 H 0.09926 0.35284 0.11837 0.0
H1625 H 0.12496 0.34482 0.14894 0.0
H1626 H 0.09208 0.29856 0.05752 0.0
H1627 H 0.11679 0.2896 0.08931 0.0
N1628 N 0.15728 0.31188 0.1257 0.0
N1629 N 0.15597 0.30994 0.18483 0.0
C1630 C 0.66082 0.89938 0.10654 0.0
C1631 C 0.67306 0.90825 0.07995 0.0
C1632 C 0.6656 0.8849 0.12437 0.0
C1633 C 0.68328 0.87949 0.11657 0.0
C1634 C 0.69059 0.90261 0.07197 0.0
C1635 C 0.69558 0.88832 0.09008 0.0
C1636 C 0.68726 0.86273 0.13427 0.0
C1637 C 0.70523 0.92145 0.20396 0.0
C1638 C 0.68626 0.91358 0.22408 0.0
C1639 C 0.70576 0.9056 0.1835 0.0
C1640 C 0.68747 0.8817 0.18315 0.0
C1641 C 0.66745 0.88985 0.22236 0.0
C1642 C 0.66827 0.87404 0.2025 0.0
C1643 C 0.68895 0.86374 0.16505 0.0
C1644 C 0.70588 0.7826 0.19606 0.0
C1645 C 0.69414 0.77737 0.2232 0.0
C1646 C 0.70463 0.7988 0.17694 0.0
C1647 C 0.691 0.8094 0.18437 0.0
C1648 C 0.68068 0.78804 0.2306 0.0
C1649 C 0.67907 0.80378 0.21141 0.0
C1650 C 0.69004 0.82757 0.16564 0.0
C1651 C 0.66025 0.76256 0.10862 0.0
C1652 C 0.67366 0.76517 0.0833 0.0
C1653 C 0.66507 0.78235 0.12562 0.0
C1654 C 0.68358 0.80511 0.1178 0.0
C1655 C 0.69199 0.78803 0.0753 0.0
C1656 C 0.69677 0.80785 0.0923 0.0
C1657 C 0.68789 0.82623 0.13483 0.0
H1658 H 0.64743 0.90357 0.11368 0.0
H1659 H 0.6549 0.87742 0.14383 0.0
H1660 H 0.70014 0.90883 0.05148 0.0
H1661 H 0.70893 0.88397 0.08324 0.0
H1662 H 0.72006 0.93955 0.20469 0.0
H1663 H 0.72084 0.9117 0.16883 0.0
H1664 H 0.65212 0.88329 0.23667 0.0
H1665 H 0.65395 0.85565 0.2024 0.0
H1666 H 0.71645 0.77462 0.18999 0.0
H1667 H 0.71468 0.80334 0.15673 0.0
H1668 H 0.67119 0.78404 0.25124 0.0
H1669 H 0.66846 0.81165 0.21782 0.0
H1670 H 0.64615 0.74516 0.11549 0.0
H1671 H 0.65417 0.77989 0.14472 0.0
H1672 H 0.70243 0.79062 0.05571 0.0
H1673 H 0.71082 0.82534 0.0856 0.0
N1674 N 0.68691 0.84402 0.12035 0.0
N1675 N 0.69034 0.84624 0.17937 0.0
C1676 C 0.10237 0.76336 0.10546 0.0
C1677 C 0.09243 0.76684 0.07997 0.0
C1678 C 0.11669 0.78247 0.12375 0.0
C1679 C 0.12103 0.80544 0.1173 0.0
C1680 C 0.09687 0.78987 0.07344 0.0
C1681 C 0.11118 0.80902 0.09186 0.0
C1682 C 0.13759 0.826 0.13545 0.0
C1683 C 0.07707 0.78012 0.19916 0.0
C1684 C 0.08479 0.77181 0.22277 0.0
C1685 C 0.09368 0.79726 0.1799 0.0
C1686 C 0.11817 0.8062 0.18398 0.0
C1687 C 0.10928 0.78025 0.22593 0.0
C1688 C 0.12573 0.79735 0.20696 0.0
C1689 C 0.13647 0.826 0.16628 0.0
C1690 C 0.21639 0.92328 0.2016 0.0
C1691 C 0.22281 0.91592 0.22721 0.0
C1692 C 0.20046 0.90635 0.18163 0.0
C1693 C 0.19109 0.8819 0.18686 0.0
C1694 C 0.2137 0.89149 0.23197 0.0
C1695 C 0.19799 0.87472 0.21211 0.0
C1696 C 0.17284 0.8633 0.16769 0.0
C1697 C 0.23846 0.9003 0.11221 0.0
C1698 C 0.23611 0.91037 0.08612 0.0
C1699 C 0.21846 0.88523 0.12887 0.0
C1700 C 0.19568 0.88028 0.12022 0.0
C1701 C 0.21324 0.90513 0.07726 0.0
C1702 C 0.19321 0.89014 0.0941 0.0
C1703 C 0.1743 0.86313 0.13686 0.0
H1704 H 0.09909 0.74582 0.11135 0.0
H1705 H 0.12477 0.77932 0.14262 0.0
H1706 H 0.08967 0.79317 0.05382 0.0
H1707 H 0.11468 0.82668 0.08617 0.0
H1708 H 0.05833 0.77401 0.19618 0.0
H1709 H 0.08748 0.80405 0.16248 0.0
H1710 H 0.11584 0.77377 0.24331 0.0
H1711 H 0.14453 0.80387 0.2104 0.0
H1712 H 0.22313 0.94201 0.19746 0.0
H1713 H 0.19506 0.91234 0.16258 0.0
H1714 H 0.21873 0.88528 0.25115 0.0
H1715 H 0.19112 0.856 0.2166 0.0
H1716 H 0.25578 0.90412 0.1199 0.0
H1717 H 0.22083 0.87713 0.14828 0.0
H1718 H 0.21074 0.91227 0.05706 0.0
H1719 H 0.17576 0.88615 0.08666 0.0
N1720 N 0.15644 0.84463 0.12194 0.0
N1721 N 0.15407 0.84466 0.18102 0.0
C1722 C 0.3223 0.09136 0.81904 0.0
C1723 C 0.30401 0.08042 0.79825 0.0
C1724 C 0.32299 0.10849 0.83819 0.0
C1725 C 0.30501 0.11455 0.83752 0.0
C1726 C 0.28592 0.08626 0.79774 0.0
C1727 C 0.28641 0.10313 0.81721 0.0
C1728 C 0.30688 0.13459 0.85526 0.0
C1729 C 0.3055 0.08258 0.92187 0.0
C1730 C 0.32746 0.09136 0.93626 0.0
C1731 C 0.30096 0.09776 0.90493 0.0
C1732 C 0.31826 0.12196 0.90237 0.0
C1733 C 0.34461 0.11562 0.93385 0.0
C1734 C 0.33994 0.13083 0.91731 0.0
C1735 C 0.31385 0.13844 0.88493 0.0
C1736 C 0.30702 0.22567 0.9162 0.0
C1737 C 0.32627 0.23616 0.93591 0.0
C1738 C 0.30257 0.20568 0.89975 0.0
C1739 C 0.31778 0.19622 0.90181 0.0
C1740 C 0.34081 0.22596 0.93881 0.0
C1741 C 0.33668 0.20634 0.92188 0.0
C1742 C 0.31374 0.17516 0.88448 0.0
C1743 C 0.32282 0.2295 0.81668 0.0
C1744 C 0.30369 0.22212 0.79713 0.0
C1745 C 0.32379 0.21321 0.83573 0.0
C1746 C 0.30534 0.18931 0.83613 0.0
C1747 C 0.2853 0.1982 0.79746 0.0
C1748 C 0.28614 0.18196 0.81675 0.0
C1749 C 0.30695 0.17147 0.85466 0.0
H1750 H 0.33677 0.0876 0.81944 0.0
H1751 H 0.33818 0.11772 0.85256 0.0
H1752 H 0.27165 0.07811 0.78188 0.0
H1753 H 0.27251 0.10767 0.81594 0.0
H1754 H 0.29204 0.0639 0.92331 0.0
H1755 H 0.28397 0.09067 0.89393 0.0
H1756 H 0.36159 0.12283 0.94493 0.0
H1757 H 0.35343 0.14949 0.91579 0.0
H1758 H 0.29547 0.23302 0.91308 0.0
H1759 H 0.28724 0.19769 0.88542 0.0
H1760 H 0.35539 0.23299 0.95427 0.0
H1761 H 0.34844 0.19915 0.92439 0.0
H1762 H 0.33754 0.24769 0.81645 0.0
H1763 H 0.33926 0.2192 0.8496 0.0
H1764 H 0.27035 0.19201 0.78263 0.0
H1765 H 0.27187 0.16356 0.81636 0.0
N1766 N 0.3036 0.15123 0.84142 0.0
N1767 N 0.31702 0.15852 0.89824 0.0
C1768 C 0.91963 0.2228 0.91974 0.0
C1769 C 0.91196 0.23675 0.93454 0.0
C1770 C 0.90346 0.2029 0.90355 0.0
C1771 C 0.87941 0.19662 0.90216 0.0
C1772 C 0.88784 0.23024 0.93337 0.0
C1773 C 0.87166 0.21019 0.91757 0.0
C1774 C 0.86196 0.17568 0.88533 0.0
C1775 C 0.9085 0.23003 0.81791 0.0
C1776 C 0.91856 0.22202 0.79672 0.0
C1777 C 0.89148 0.21402 0.83756 0.0
C1778 C 0.88464 0.18975 0.83698 0.0
C1779 C 0.91191 0.19782 0.79628 0.0
C1780 C 0.89513 0.18186 0.81622 0.0
C1781 C 0.86477 0.17208 0.85545 0.0
C1782 C 0.76741 0.09446 0.82076 0.0
C1783 C 0.77398 0.08366 0.79887 0.0
C1784 C 0.78448 0.11096 0.83997 0.0
C1785 C 0.80834 0.11644 0.83825 0.0
C1786 C 0.79777 0.08901 0.7972 0.0
C1787 C 0.81475 0.1052 0.81673 0.0
C1788 C 0.82719 0.13579 0.8562 0.0
C1789 C 0.77558 0.08295 0.92146 0.0
C1790 C 0.7646 0.09219 0.9396 0.0
C1791 C 0.79513 0.09814 0.90405 0.0
C1792 C 0.80389 0.1228 0.90428 0.0
C1793 C 0.77384 0.11693 0.9403 0.0
C1794 C 0.79332 0.13206 0.92293 0.0
C1795 C 0.8246 0.13936 0.88622 0.0
H1796 H 0.93818 0.22755 0.92024 0.0
H1797 H 0.9097 0.19242 0.89216 0.0
H1798 H 0.88149 0.24061 0.94479 0.0
H1799 H 0.85312 0.2055 0.91694 0.0
H1800 H 0.91287 0.24847 0.81831 0.0
H1801 H 0.88297 0.22054 0.85232 0.0
H1802 H 0.91937 0.19116 0.78014 0.0
H1803 H 0.88997 0.16321 0.81502 0.0
H1804 H 0.74929 0.09102 0.82212 0.0
H1805 H 0.77911 0.12009 0.85535 0.0
H1806 H 0.80329 0.08093 0.78049 0.0
H1807 H 0.83306 0.10932 0.81464 0.0
H1808 H 0.76879 0.06396 0.92028 0.0
H1809 H 0.80336 0.09062 0.89043 0.0
H1810 H 0.76602 0.12464 0.95436 0.0
H1811 H 0.79997 0.15106 0.92379 0.0
N1812 N 0.84202 0.15925 0.89944 0.0
N1813 N 0.84729 0.15221 0.84217 0.0
C1814 C 0.77511 0.69154 0.91593 0.0
C1815 C 0.76123 0.66971 0.93053 0.0
C1816 C 0.7955 0.69602 0.90043 0.0
C1817 C 0.80243 0.67878 0.89928 0.0
C1818 C 0.76847 0.65263 0.92956 0.0
C1819 C 0.78899 0.65722 0.91429 0.0
C1820 C 0.82389 0.68317 0.88295 0.0
C1821 C 0.77 0.67423 0.81536 0.0
C1822 C 0.77715 0.69355 0.79618 0.0
C1823 C 0.78637 0.67335 0.83426 0.0
C1824 C 0.81017 0.69201 0.83489 0.0
C1825 C 0.80097 0.7122 0.79673 0.0
C1826 C 0.81733 0.71141 0.81588 0.0
C1827 C 0.82801 0.69041 0.8534 0.0
C1828 C 0.90779 0.67483 0.81851 0.0
C1829 C 0.91829 0.69264 0.79706 0.0
C1830 C 0.89109 0.6746 0.83806 0.0
C1831 C 0.88505 0.69256 0.83707 0.0
C1832 C 0.91257 0.7108 0.79634 0.0
C1833 C 0.89615 0.71077 0.81618 0.0
C1834 C 0.86501 0.69081 0.8547 0.0
C1835 C 0.91697 0.69298 0.92193 0.0
C1836 C 0.90791 0.67219 0.93895 0.0
C1837 C 0.90184 0.69682 0.90391 0.0
C1838 C 0.87744 0.67988 0.90258 0.0
C1839 C 0.88344 0.65549 0.93789 0.0
C1840 C 0.86835 0.65938 0.92003 0.0
C1841 C 0.86086 0.68371 0.8844 0.0
H1842 H 0.77039 0.70533 0.91674 0.0
H1843 H 0.80594 0.71299 0.88951 0.0
H1844 H 0.75809 0.63552 0.94019 0.0
H1845 H 0.79412 0.64372 0.91371 0.0
H1846 H 0.75194 0.65929 0.81492 0.0
H1847 H 0.78054 0.65767 0.84771 0.0
H1848 H 0.80699 0.7273 0.78217 0.0
H1849 H 0.83565 0.72586 0.81568 0.0
H1850 H 0.9115 0.66033 0.81916 0.0
H1851 H 0.88213 0.65971 0.85294 0.0
H1852 H 0.92043 0.72474 0.78002 0.0
H1853 H 0.8916 0.72466 0.81467 0.0
H1854 H 0.9358 0.70606 0.92215 0.0
H1855 H 0.90916 0.71304 0.89117 0.0
H1856 H 0.87593 0.63943 0.95098 0.0
H1857 H 0.84953 0.6462 0.91962 0.0
N1858 N 0.84041 0.68005 0.89721 0.0
N1859 N 0.84845 0.69403 0.84052 0.0
C1860 C 0.7481 0.64103 0.4363 0.0
C1861 C 0.75685 0.663 0.42181 0.0
C1862 C 0.76345 0.63599 0.45207 0.0
C1863 C 0.78783 0.65281 0.45364 0.0
C1864 C 0.78136 0.67968 0.42326 0.0
C1865 C 0.7967 0.67454 0.43882 0.0
C1866 C 0.80442 0.64775 0.46987 0.0
C1867 C 0.75887 0.65544 0.53814 0.0
C1868 C 0.7465 0.63584 0.5569 0.0
C1869 C 0.77618 0.65658 0.51899 0.0
C1870 C 0.78114 0.63789 0.51769 0.0
C1871 C 0.75145 0.61712 0.55561 0.0
C1872 C 0.76864 0.61817 0.53621 0.0
C1873 C 0.80079 0.63982 0.49916 0.0
C1874 C 0.89576 0.65398 0.53405 0.0
C1875 C 0.88806 0.63567 0.55487 0.0
C1876 C 0.87953 0.65485 0.51481 0.0
C1877 C 0.85534 0.63704 0.5154 0.0
C1878 C 0.86396 0.61775 0.55533 0.0
C1879 C 0.8478 0.61841 0.53575 0.0
C1880 C 0.83734 0.63926 0.49784 0.0
C1881 C 0.88825 0.63876 0.4306 0.0
C1882 C 0.90017 0.65985 0.4141 0.0
C1883 C 0.86898 0.63444 0.44849 0.0
C1884 C 0.86142 0.65122 0.45028 0.0
C1885 C 0.89221 0.67633 0.41551 0.0
C1886 C 0.87298 0.672 0.4333 0.0
C1887 C 0.84076 0.64699 0.46838 0.0
H1888 H 0.72943 0.62755 0.43515 0.0
H1889 H 0.75632 0.61887 0.46277 0.0
H1890 H 0.78869 0.69688 0.41273 0.0
H1891 H 0.8155 0.68774 0.43969 0.0
H1892 H 0.75593 0.67043 0.53915 0.0
H1893 H 0.78623 0.67249 0.50594 0.0
H1894 H 0.74221 0.60181 0.56984 0.0
H1895 H 0.77238 0.60369 0.5359 0.0
H1896 H 0.91414 0.66831 0.53365 0.0
H1897 H 0.88579 0.67006 0.50042 0.0
H1898 H 0.85756 0.60347 0.57119 0.0
H1899 H 0.82921 0.60464 0.53699 0.0
H1900 H 0.8941 0.62582 0.43008 0.0
H1901 H 0.85996 0.618 0.46082 0.0
H1902 H 0.90082 0.69258 0.40278 0.0
H1903 H 0.86726 0.68505 0.43402 0.0
N1904 N 0.82423 0.65104 0.45574 0.0
N1905 N 0.81735 0.63581 0.5119 0.0
C1906 C 0.32715 0.23069 0.44299 0.0
C1907 C 0.34246 0.2433 0.41969 0.0
C1908 C 0.33171 0.21593 0.46059 0.0
C1909 C 0.35168 0.21351 0.45523 0.0
C1910 C 0.36245 0.24086 0.41434 0.0
C1911 C 0.36686 0.22584 0.43179 0.0
C1912 C 0.35561 0.19672 0.47266 0.0
C1913 C 0.36996 0.25647 0.5367 0.0
C1914 C 0.35468 0.2486 0.56113 0.0
C1915 C 0.37022 0.23996 0.5171 0.0
C1916 C 0.35504 0.21541 0.52161 0.0
C1917 C 0.33903 0.22407 0.56486 0.0
C1918 C 0.33933 0.2077 0.54546 0.0
C1919 C 0.35642 0.19728 0.50347 0.0
C1920 C 0.37201 0.11588 0.53594 0.0
C1921 C 0.35825 0.10937 0.56167 0.0
C1922 C 0.37156 0.13238 0.51657 0.0
C1923 C 0.35698 0.14218 0.52245 0.0
C1924 C 0.34352 0.119 0.56718 0.0
C1925 C 0.34293 0.13522 0.54786 0.0
C1926 C 0.35706 0.16086 0.50381 0.0
C1927 C 0.32818 0.0965 0.44608 0.0
C1928 C 0.34102 0.09931 0.42014 0.0
C1929 C 0.33322 0.11614 0.46346 0.0
C1930 C 0.35156 0.13899 0.45567 0.0
C1931 C 0.35922 0.12225 0.41219 0.0
C1932 C 0.36434 0.14192 0.42973 0.0
C1933 C 0.3558 0.16003 0.47294 0.0
H1934 H 0.31172 0.2324 0.44773 0.0
H1935 H 0.31942 0.2061 0.47813 0.0
H1936 H 0.37443 0.25026 0.39638 0.0
H1937 H 0.38215 0.22389 0.42707 0.0
H1938 H 0.38223 0.27528 0.53331 0.0
H1939 H 0.38277 0.24631 0.49909 0.0
H1940 H 0.32659 0.21744 0.583 0.0
H1941 H 0.32736 0.18887 0.54929 0.0
H1942 H 0.38356 0.10874 0.53125 0.0
H1943 H 0.38297 0.13783 0.49745 0.0
H1944 H 0.33233 0.11395 0.5865 0.0
H1945 H 0.33147 0.14242 0.55289 0.0
H1946 H 0.31424 0.07907 0.45307 0.0
H1947 H 0.32245 0.11346 0.48275 0.0
H1948 H 0.36922 0.12508 0.39214 0.0
H1949 H 0.37822 0.15947 0.42297 0.0
N1950 N 0.35541 0.17816 0.45855 0.0
N1951 N 0.35722 0.17941 0.51769 0.0
C1952 C 0.76568 0.09455 0.43957 0.0
C1953 C 0.75641 0.09783 0.41334 0.0
C1954 C 0.78029 0.11389 0.45734 0.0
C1955 C 0.7854 0.13695 0.44992 0.0
C1956 C 0.76174 0.12098 0.40572 0.0
C1957 C 0.77617 0.14036 0.42381 0.0
C1958 C 0.8023 0.15771 0.46765 0.0
C1959 C 0.74359 0.11613 0.53685 0.0
C1960 C 0.75135 0.10506 0.55701 0.0
C1961 C 0.75957 0.13268 0.51659 0.0
C1962 C 0.7835 0.1385 0.51648 0.0
C1963 C 0.77511 0.1102 0.55552 0.0
C1964 C 0.79105 0.12699 0.53586 0.0
C1965 C 0.80158 0.15804 0.49848 0.0
C1966 C 0.88384 0.25448 0.53237 0.0
C1967 C 0.89006 0.2468 0.55787 0.0
C1968 C 0.86731 0.2378 0.51268 0.0
C1969 C 0.85718 0.21326 0.51803 0.0
C1970 C 0.88015 0.22229 0.5628 0.0
C1971 C 0.8639 0.20576 0.54317 0.0
C1972 C 0.83831 0.19492 0.49921 0.0
C1973 C 0.90287 0.23067 0.44178 0.0
C1974 C 0.90039 0.24189 0.41688 0.0
C1975 C 0.88306 0.21554 0.45868 0.0
C1976 C 0.86038 0.21159 0.45132 0.0
C1977 C 0.8776 0.23767 0.40931 0.0
C1978 C 0.85775 0.22251 0.42629 0.0
C1979 C 0.83922 0.19463 0.46833 0.0
H1980 H 0.76172 0.07699 0.44644 0.0
H1981 H 0.78809 0.11075 0.47648 0.0
H1982 H 0.75518 0.12422 0.38551 0.0
H1983 H 0.78031 0.15806 0.41727 0.0
H1984 H 0.72546 0.11268 0.53739 0.0
H1985 H 0.75353 0.14159 0.50188 0.0
H1986 H 0.78161 0.10148 0.56986 0.0
H1987 H 0.80945 0.13119 0.53594 0.0
H1988 H 0.89123 0.2733 0.52813 0.0
H1989 H 0.86204 0.24406 0.49378 0.0
H1990 H 0.88498 0.21586 0.58195 0.0
H1991 H 0.85645 0.18697 0.54777 0.0
H1992 H 0.92018 0.2337 0.4484 0.0
H1993 H 0.88546 0.20669 0.47731 0.0
H1994 H 0.87506 0.24581 0.39004 0.0
H1995 H 0.84032 0.21932 0.4199 0.0
N1996 N 0.82105 0.17615 0.45375 0.0
N1997 N 0.81954 0.17657 0.5129 0.0
C1998 C 0.96665 0.55298 0.14718 0.0
C1999 C 0.98538 0.5643 0.12679 0.0
C2000 C 0.96613 0.53615 0.16683 0.0
C2001 C 0.98419 0.5303 0.16614 0.0
C2002 C 0.00398 0.55913 0.12743 0.0
C2003 C 0.00318 0.54208 0.14653 0.0
C2004 C 0.98272 0.51057 0.18368 0.0
C2005 C 0.00727 0.57207 0.24565 0.0
C2006 C 0.99297 0.56778 0.2706 0.0
C2007 C 0.00354 0.55343 0.22712 0.0
C2008 C 0.98509 0.53011 0.23273 0.0
C2009 C 0.97452 0.54441 0.27627 0.0
C2010 C 0.97073 0.52573 0.25759 0.0
C2011 C 0.98238 0.51004 0.21454 0.0
C2012 C 0.00978 0.43742 0.24087 0.0
C2013 C 0.9947 0.42497 0.26446 0.0
C2014 C 0.00569 0.45291 0.22405 0.0
C2015 C 0.98635 0.45617 0.23031 0.0
C2016 C 0.97551 0.42853 0.27092 0.0
C2017 C 0.97149 0.44413 0.25411 0.0
C2018 C 0.98273 0.47343 0.21339 0.0
C2019 C 0.96817 0.41428 0.14918 0.0
C2020 C 0.98278 0.42185 0.12418 0.0
C2021 C 0.96827 0.43101 0.16869 0.0
C2022 C 0.98331 0.45554 0.1637 0.0
C2023 C 0.99799 0.44635 0.11956 0.0
C2024 C 0.99819 0.46297 0.13902 0.0
C2025 C 0.98271 0.47385 0.1825 0.0
H2026 H 0.95198 0.55642 0.14728 0.0
H2027 H 0.9512 0.52705 0.1817 0.0
H2028 H 0.01912 0.56801 0.11284 0.0
H2029 H 0.01737 0.53791 0.14583 0.0
H2030 H 0.02145 0.58989 0.24039 0.0
H2031 H 0.01555 0.55725 0.20885 0.0
H2032 H 0.96335 0.54047 0.29546 0.0
H2033 H 0.9567 0.50779 0.26267 0.0
H2034 H 0.02504 0.43555 0.23569 0.0
H2035 H 0.01792 0.46266 0.20644 0.0
H2036 H 0.96344 0.41907 0.28877 0.0
H2037 H 0.95666 0.44666 0.25954 0.0
H2038 H 0.95618 0.39549 0.15316 0.0
H2039 H 0.95618 0.42479 0.18716 0.0
H2040 H 0.0098 0.45273 0.1008 0.0
H2041 H 0.00998 0.48175 0.13468 0.0
N2042 N 0.98284 0.49249 0.16897 0.0
N2043 N 0.98231 0.49141 0.22821 0.0
C2044 C 0.44733 0.41231 0.15213 0.0
C2045 C 0.44021 0.4197 0.1271 0.0
C2046 C 0.46358 0.42918 0.17188 0.0
C2047 C 0.47271 0.45363 0.16698 0.0
C2048 C 0.44892 0.44414 0.12287 0.0
C2049 C 0.46505 0.46086 0.14246 0.0
C2050 C 0.49172 0.47216 0.1854 0.0
C2051 C 0.42797 0.43683 0.24483 0.0
C2052 C 0.43087 0.42449 0.26818 0.0
C2053 C 0.44742 0.45222 0.22756 0.0
C2054 C 0.47011 0.45556 0.23336 0.0
C2055 C 0.45362 0.42787 0.27397 0.0
C2056 C 0.47314 0.44352 0.25688 0.0
C2057 C 0.4909 0.47282 0.21619 0.0
C2058 C 0.56361 0.57352 0.24294 0.0
C2059 C 0.57464 0.57097 0.26798 0.0
C2060 C 0.54846 0.55371 0.22604 0.0
C2061 C 0.54423 0.53097 0.23366 0.0
C2062 C 0.57002 0.5481 0.27587 0.0
C2063 C 0.5548 0.52826 0.25896 0.0
C2064 C 0.52763 0.50986 0.21633 0.0
C2065 C 0.58994 0.55406 0.15573 0.0
C2066 C 0.58364 0.55951 0.12868 0.0
C2067 C 0.57226 0.53779 0.17468 0.0
C2068 C 0.54803 0.52735 0.16716 0.0
C2069 C 0.55949 0.54909 0.12126 0.0
C2070 C 0.54192 0.53326 0.14029 0.0
C2071 C 0.52874 0.50888 0.18552 0.0
H2072 H 0.44094 0.3936 0.15591 0.0
H2073 H 0.46956 0.42318 0.19037 0.0
H2074 H 0.44334 0.4504 0.10424 0.0
H2075 H 0.47176 0.4796 0.13827 0.0
H2076 H 0.4106 0.43441 0.23977 0.0
H2077 H 0.44479 0.46177 0.20991 0.0
H2078 H 0.45634 0.4187 0.29198 0.0
H2079 H 0.4906 0.44615 0.26192 0.0
H2080 H 0.56693 0.5909 0.23615 0.0
H2081 H 0.53995 0.55615 0.20707 0.0
H2082 H 0.57802 0.54554 0.29526 0.0
H2083 H 0.55141 0.5108 0.26552 0.0
H2084 H 0.6085 0.56186 0.16178 0.0
H2085 H 0.57758 0.53302 0.19479 0.0
H2086 H 0.5542 0.55329 0.10068 0.0
H2087 H 0.52343 0.5255 0.13385 0.0
N2088 N 0.51065 0.49012 0.17144 0.0
N2089 N 0.5089 0.49163 0.2305 0.0
C2090 C 0.44263 0.02689 0.25642 0.0
C2091 C 0.42861 0.00497 0.27064 0.0
C2092 C 0.4624 0.03087 0.23982 0.0
C2093 C 0.4685 0.01304 0.23745 0.0
C2094 C 0.43489 0.98727 0.2684 0.0
C2095 C 0.45483 0.99138 0.2522 0.0
C2096 C 0.48944 0.0169 0.22036 0.0
C2097 C 0.4351 0.00934 0.1537 0.0
C2098 C 0.44271 0.02845 0.13406 0.0
C2099 C 0.45126 0.00814 0.17271 0.0
C2100 C 0.47531 0.02625 0.17291 0.0
C2101 C 0.46671 0.04671 0.13453 0.0
C2102 C 0.48285 0.04558 0.15371 0.0
C2103 C 0.49308 0.02393 0.19074 0.0
C2104 C 0.57077 0.00516 0.15394 0.0
C2105 C 0.58167 0.02294 0.13254 0.0
C2106 C 0.55415 0.00529 0.1733 0.0
C2107 C 0.54866 0.02365 0.17226 0.0
C2108 C 0.57624 0.04129 0.13146 0.0
C2109 C 0.55993 0.04167 0.15118 0.0
C2110 C 0.52932 0.02279 0.19057 0.0
C2111 C 0.58211 0.02352 0.25514 0.0
C2112 C 0.57288 0.00305 0.27282 0.0
C2113 C 0.56693 0.02791 0.23797 0.0
C2114 C 0.5423 0.01176 0.23797 0.0
C2115 C 0.54817 0.98724 0.27321 0.0
C2116 C 0.53305 0.99162 0.25606 0.0
C2117 C 0.52574 0.01607 0.2204 0.0
H2118 H 0.43805 0.04076 0.25775 0.0
H2119 H 0.47296 0.04784 0.22894 0.0
H2120 H 0.42444 0.9703 0.27934 0.0
H2121 H 0.45939 0.97748 0.25079 0.0
H2122 H 0.41688 0.9947 0.15339 0.0
H2123 H 0.44509 0.99252 0.18637 0.0
H2124 H 0.47309 0.06168 0.1197 0.0
H2125 H 0.50135 0.05962 0.15322 0.0
H2126 H 0.57426 0.99052 0.15481 0.0
H2127 H 0.54498 0.99051 0.18829 0.0
H2128 H 0.58438 0.05519 0.11511 0.0
H2129 H 0.55578 0.05583 0.14959 0.0
H2130 H 0.6011 0.03596 0.25421 0.0
H2131 H 0.57444 0.0439 0.22477 0.0
H2132 H 0.54047 0.97152 0.28691 0.0
H2133 H 0.51407 0.97908 0.25672 0.0
N2134 N 0.50585 0.01323 0.23396 0.0
N2135 N 0.51292 0.02667 0.17707 0.0
C2136 C 0.57069 0.00559 0.77277 0.0
C2137 C 0.56701 0.99264 0.74672 0.0
C2138 C 0.55159 0.00121 0.79081 0.0
C2139 C 0.52836 0.98322 0.78384 0.0
C2140 C 0.54368 0.97481 0.7395 0.0
C2141 C 0.52454 0.97022 0.75785 0.0
C2142 C 0.50789 0.97956 0.80204 0.0
C2143 C 0.54956 0.96218 0.87032 0.0
C2144 C 0.56105 0.98106 0.89048 0.0
C2145 C 0.53306 0.96185 0.8503 0.0
C2146 C 0.52772 0.98026 0.85041 0.0
C2147 C 0.55644 2e-05 0.88917 0.0
C2148 C 0.5397 -0.00059 0.86974 0.0
C2149 C 0.50807 0.97891 0.8329 0.0
C2150 C 0.41213 0.9634 0.86961 0.0
C2151 C 0.42003 0.97825 0.89441 0.0
C2152 C 0.42861 0.96381 0.84939 0.0
C2153 C 0.45315 0.97928 0.85359 0.0
C2154 C 0.44454 0.99411 0.89796 0.0
C2155 C 0.46088 0.99452 0.8779 0.0
C2156 C 0.47128 0.97868 0.83452 0.0
C2157 C 0.43537 0.00726 0.77788 0.0
C2158 C 0.42188 0.99193 0.75497 0.0
C2159 C 0.45109 0.00298 0.79389 0.0
C2160 C 0.45367 0.98328 0.78739 0.0
C2161 C 0.42472 0.97231 0.74833 0.0
C2162 C 0.44065 0.96816 0.76425 0.0
C2163 C 0.47101 0.97939 0.80369 0.0
H2164 H 0.58838 0.01922 0.77935 0.0
H2165 H 0.55505 0.0124 0.80984 0.0
H2166 H 0.54013 0.96469 0.71944 0.0
H2167 H 0.50671 0.9566 0.75166 0.0
H2168 H 0.55259 0.94725 0.87073 0.0
H2169 H 0.52377 0.94681 0.83565 0.0
H2170 H 0.5655 0.01528 0.90353 0.0
H2171 H 0.53587 0.01384 0.86999 0.0
H2172 H 0.39334 0.95097 0.86637 0.0
H2173 H 0.42223 0.95157 0.83108 0.0
H2174 H 0.45117 0.0062 0.91643 0.0
H2175 H 0.47969 0.00668 0.88154 0.0
H2176 H 0.43413 0.02286 0.78317 0.0
H2177 H 0.46154 0.01532 0.8111 0.0
H2178 H 0.41446 0.95999 0.73104 0.0
H2179 H 0.44261 0.95301 0.75871 0.0
N2180 N 0.48922 0.97961 0.78858 0.0
N2181 N 0.48983 0.97853 0.8478 0.0
C2182 C 0.98709 0.55848 0.77012 0.0
C2183 C 0.00213 0.57125 0.74669 0.0
C2184 C 0.99198 0.54378 0.78741 0.0
C2185 C 0.012 0.54154 0.78159 0.0
C2186 C 0.02207 0.56884 0.74073 0.0
C2187 C 0.02681 0.55388 0.75787 0.0
C2188 C 0.01671 0.52539 0.79932 0.0
C2189 C 0.03208 0.58657 0.86151 0.0
C2190 C 0.0175 0.57922 0.88659 0.0
C2191 C 0.0319 0.56964 0.84225 0.0
C2192 C 0.01699 0.5452 0.84774 0.0
C2193 C 0.00206 0.55477 0.89129 0.0
C2194 C 0.00192 0.53799 0.87221 0.0
C2195 C 0.01822 0.52675 0.83011 0.0
C2196 C 0.03868 0.4488 0.86378 0.0
C2197 C 0.02567 0.44237 0.89008 0.0
C2198 C 0.03676 0.46431 0.84415 0.0
C2199 C 0.02144 0.47322 0.85034 0.0
C2200 C 0.01016 0.45105 0.8959 0.0
C2201 C 0.00813 0.46631 0.87633 0.0
C2202 C 0.0202 0.49107 0.83142 0.0
C2203 C 0.99126 0.42555 0.77599 0.0
C2204 C 0.006 0.42756 0.75227 0.0
C2205 C 0.99547 0.44565 0.79187 0.0
C2206 C 0.0145 0.4682 0.78441 0.0
C2207 C 0.02495 0.45027 0.74471 0.0
C2208 C 0.02901 0.47044 0.76049 0.0
C2209 C 0.01832 0.48948 0.80064 0.0
H2210 H 0.97171 0.56015 0.77536 0.0
H2211 H 0.98 0.53399 0.80522 0.0
H2212 H 0.03386 0.57835 0.72266 0.0
H2213 H 0.04216 0.55211 0.7528 0.0
H2214 H 0.04421 0.6053 0.85738 0.0
H2215 H 0.04398 0.57562 0.82376 0.0
H2216 H 0.99018 0.54853 0.90998 0.0
H2217 H 0.9902 0.51924 0.87682 0.0
H2218 H 0.05083 0.44242 0.85883 0.0
H2219 H 0.04769 0.4698 0.82462 0.0
H2220 H -0.00049 0.44601 0.91569 0.0
H2221 H 0.99616 0.47286 0.88163 0.0
H2222 H 0.97617 0.40849 0.78202 0.0
H2223 H 0.98363 0.44364 0.80976 0.0
H2224 H 0.03683 0.45247 0.7268 0.0
H2225 H 0.04364 0.48775 0.75426 0.0
N2226 N 0.01687 0.50682 0.7857 0.0
N2227 N 0.01997 0.50959 0.84482 0.0
C2228 C 0.55672 0.58375 0.77028 0.0
C2229 C 0.57009 0.5754 0.75533 0.0
C2230 C 0.53662 0.56815 0.78658 0.0
C2231 C 0.52952 0.54391 0.78823 0.0
C2232 C 0.56261 0.551 0.7567 0.0
C2233 C 0.54242 0.5354 0.77278 0.0
C2234 C 0.50844 0.52713 0.80546 0.0
C2235 C 0.56341 0.57464 0.87155 0.0
C2236 C 0.55566 0.5849 0.89274 0.0
C2237 C 0.54713 0.55741 0.85234 0.0
C2238 C 0.5229 0.55074 0.85325 0.0
C2239 C 0.53151 0.5783 0.89376 0.0
C2240 C 0.51531 0.56147 0.87409 0.0
C2241 C 0.50492 0.53079 0.83513 0.0
C2242 C 0.42389 0.43566 0.87161 0.0
C2243 C 0.41304 0.4433 0.89217 0.0
C2244 C 0.44134 0.45195 0.85261 0.0
C2245 C 0.4478 0.47612 0.85316 0.0
C2246 C 0.41948 0.46743 0.89281 0.0
C2247 C 0.43665 0.48366 0.87345 0.0
C2248 C 0.46781 0.49402 0.83507 0.0
C2249 C 0.41419 0.44216 0.77109 0.0
C2250 C 0.42257 0.42936 0.755 0.0
C2251 C 0.42996 0.46217 0.7874 0.0
C2252 C 0.45434 0.4696 0.78804 0.0
C2253 C 0.44707 0.43725 0.75509 0.0
C2254 C 0.4628 0.45725 0.77131 0.0
C2255 C 0.47137 0.4905 0.80537 0.0
H2256 H 0.56164 0.60233 0.76922 0.0
H2257 H 0.52659 0.57499 0.7978 0.0
H2258 H 0.5726 0.54397 0.74583 0.0
H2259 H 0.53715 0.51672 0.77368 0.0
H2260 H 0.58186 0.57903 0.87086 0.0
H2261 H 0.55344 0.54866 0.83768 0.0
H2262 H 0.52513 0.58585 0.91012 0.0
H2263 H 0.4967 0.55641 0.87561 0.0
H2264 H 0.41969 0.41727 0.87116 0.0
H2265 H 0.45035 0.44572 0.83826 0.0
H2266 H 0.41144 0.47378 0.90855 0.0
H2267 H 0.44155 0.50223 0.87466 0.0
H2268 H 0.39539 0.43644 0.77153 0.0
H2269 H 0.42311 0.47176 0.7996 0.0
H2270 H 0.4541 0.42798 0.74256 0.0
H2271 H 0.48159 0.46286 0.77119 0.0
N2272 N 0.49159 0.50711 0.79187 0.0
N2273 N 0.48467 0.51411 0.84862 0.0
C2274 C 0.65792 0.7592 0.48333 0.0
C2275 C 0.6401 0.74973 0.46184 0.0
C2276 C 0.65895 0.77596 0.50339 0.0
C2277 C 0.64167 0.78296 0.50301 0.0
C2278 C 0.62279 0.75661 0.46142 0.0
C2279 C 0.62351 0.77298 0.48189 0.0
C2280 C 0.64383 0.80259 0.52192 0.0
C2281 C 0.64112 0.74813 0.58531 0.0
C2282 C 0.66269 0.75608 0.60048 0.0
C2283 C 0.63711 0.76409 0.5693 0.0
C2284 C 0.65458 0.78829 0.56819 0.0
C2285 C 0.67999 0.78042 0.59951 0.0
C2286 C 0.67587 0.79637 0.58374 0.0
C2287 C 0.65066 0.80551 0.55166 0.0
C2288 C 0.64144 0.88976 0.58934 0.0
C2289 C 0.6619 0.90148 0.60698 0.0
C2290 C 0.63754 0.8704 0.57191 0.0
C2291 C 0.65414 0.86257 0.57159 0.0
C2292 C 0.6781 0.89313 0.60722 0.0
C2293 C 0.67419 0.87382 0.58981 0.0
C2294 C 0.65054 0.84221 0.55328 0.0
C2295 C 0.66034 0.89866 0.48812 0.0
C2296 C 0.64255 0.89147 0.46668 0.0
C2297 C 0.66052 0.882 0.50725 0.0
C2298 C 0.64252 0.85792 0.50588 0.0
C2299 C 0.62443 0.86748 0.46549 0.0
C2300 C 0.6244 0.85089 0.48493 0.0
C2301 C 0.64396 0.8395 0.52344 0.0
H2302 H 0.67179 0.75457 0.48364 0.0
H2303 H 0.67388 0.78413 0.5183 0.0
H2304 H 0.60896 0.74964 0.44492 0.0
H2305 H 0.61016 0.77829 0.48078 0.0
H2306 H 0.62718 0.72961 0.58606 0.0
H2307 H 0.62033 0.75758 0.55797 0.0
H2308 H 0.69693 0.78715 0.61052 0.0
H2309 H 0.68953 0.81502 0.58324 0.0
H2310 H 0.6287 0.89586 0.58853 0.0
H2311 H 0.62159 0.86161 0.55865 0.0
H2312 H 0.69383 0.90153 0.62089 0.0
H2313 H 0.68708 0.86788 0.59026 0.0
H2314 H 0.67478 0.91696 0.48911 0.0
H2315 H 0.67532 0.88785 0.52223 0.0
H2316 H 0.61051 0.86148 0.44917 0.0
H2317 H 0.61048 0.8324 0.48314 0.0
N2318 N 0.6407 0.8197 0.50914 0.0
N2319 N 0.65378 0.82519 0.56606 0.0
C2320 C 0.11308 0.7459 0.48318 0.0
C2321 C 0.10172 0.75322 0.4629 0.0
C2322 C 0.12943 0.76216 0.50334 0.0
C2323 C 0.13477 0.78595 0.50328 0.0
C2324 C 0.10633 0.77682 0.46421 0.0
C2325 C 0.12292 0.79305 0.48385 0.0
C2326 C 0.15432 0.80423 0.52108 0.0
C2327 C 0.09146 0.76924 0.58113 0.0
C2328 C 0.0939 0.75572 0.60335 0.0
C2329 C 0.11103 0.78479 0.56417 0.0
C2330 C 0.13344 0.78713 0.56908 0.0
C2331 C 0.11637 0.75812 0.60833 0.0
C2332 C 0.13606 0.77394 0.59151 0.0
C2333 C 0.15424 0.80441 0.55187 0.0
C2334 C 0.22702 0.90461 0.57915 0.0
C2335 C 0.23911 0.90204 0.60306 0.0
C2336 C 0.21163 0.88492 0.56228 0.0
C2337 C 0.20816 0.86227 0.56877 0.0
C2338 C 0.23544 0.8793 0.60972 0.0
C2339 C 0.21991 0.85954 0.59286 0.0
C2340 C 0.19107 0.84131 0.5516 0.0
C2341 C 0.25131 0.88581 0.48812 0.0
C2342 C 0.24406 0.89266 0.46277 0.0
C2343 C 0.2343 0.86935 0.50759 0.0
C2344 C 0.20985 0.85986 0.5022 0.0
C2345 C 0.21964 0.88348 0.45785 0.0
C2346 C 0.20277 0.86725 0.47727 0.0
C2347 C 0.19123 0.84089 0.52069 0.0
H2348 H 0.11007 0.72793 0.48276 0.0
H2349 H 0.13862 0.75645 0.51808 0.0
H2350 H 0.09738 0.78296 0.44971 0.0
H2351 H 0.12676 0.81134 0.48363 0.0
H2352 H 0.07433 0.76761 0.57664 0.0
H2353 H 0.10872 0.79525 0.54746 0.0
H2354 H 0.11875 0.74803 0.62547 0.0
H2355 H 0.1533 0.77577 0.59587 0.0
H2356 H 0.22962 0.92191 0.5733 0.0
H2357 H 0.20223 0.88737 0.54431 0.0
H2358 H 0.24432 0.87675 0.62821 0.0
H2359 H 0.21715 0.84214 0.59851 0.0
H2360 H 0.27003 0.89258 0.49235 0.0
H2361 H 0.24025 0.86355 0.5263 0.0
H2362 H 0.21352 0.88879 0.43883 0.0
H2363 H 0.18406 0.86029 0.47262 0.0
N2364 N 0.17275 0.8224 0.50675 0.0
N2365 N 0.17267 0.82292 0.56606 0.0
C2366 C 0.25624 0.3688 0.48571 0.0
C2367 C 0.24907 0.3546 0.46032 0.0
C2368 C 0.23919 0.36819 0.50515 0.0
C2369 C 0.21476 0.35314 0.4996 0.0
C2370 C 0.22465 0.33917 0.45539 0.0
C2371 C 0.20774 0.33855 0.47469 0.0
C2372 C 0.19611 0.35365 0.51775 0.0
C2373 C 0.22968 0.32452 0.57874 0.0
C2374 C 0.24162 0.33957 0.60251 0.0
C2375 C 0.21512 0.32908 0.5607 0.0
C2376 C 0.21218 0.34873 0.56615 0.0
C2377 C 0.23877 0.35931 0.60785 0.0
C2378 C 0.22392 0.36368 0.59 0.0
C2379 C 0.1953 0.35245 0.54858 0.0
C2380 C 0.09477 0.32372 0.57485 0.0
C2381 C 0.09716 0.33737 0.59986 0.0
C2382 C 0.11461 0.32879 0.5578 0.0
C2383 C 0.13722 0.34776 0.56526 0.0
C2384 C 0.11985 0.35624 0.60743 0.0
C2385 C 0.13975 0.36125 0.5904 0.0
C2386 C 0.15841 0.35225 0.54818 0.0
C2387 C 0.11454 0.36945 0.4864 0.0
C2388 C 0.10823 0.3564 0.46013 0.0
C2389 C 0.13094 0.36855 0.50549 0.0
C2390 C 0.14088 0.3542 0.49884 0.0
C2391 C 0.11805 0.34194 0.45376 0.0
C2392 C 0.13418 0.3409 0.47283 0.0
C2393 C 0.15944 0.35388 0.51736 0.0
H2394 H 0.27495 0.3809 0.49002 0.0
H2395 H 0.24508 0.37999 0.52389 0.0
H2396 H 0.21854 0.32758 0.43643 0.0
H2397 H 0.18903 0.32673 0.46997 0.0
H2398 H 0.23172 0.30929 0.57402 0.0
H2399 H 0.20577 0.31698 0.54282 0.0
H2400 H 0.24767 0.37109 0.62613 0.0
H2401 H 0.22158 0.37872 0.5948 0.0
H2402 H 0.0775 0.30921 0.5683 0.0
H2403 H 0.11231 0.31767 0.53899 0.0
H2404 H 0.12227 0.3669 0.62676 0.0
H2405 H 0.15711 0.37568 0.59681 0.0
H2406 H 0.10731 0.38082 0.49174 0.0
H2407 H 0.13624 0.37949 0.52501 0.0
H2408 H 0.11319 0.33133 0.43396 0.0
H2409 H 0.14152 0.32967 0.46715 0.0
N2410 N 0.1782 0.35441 0.5035 0.0
N2411 N 0.17652 0.35186 0.56261 0.0
loop_
_geom_bond_atom_site_label_1
_geom_bond_atom_site_label_2
_geom_bond_distance
_geom_bond_site_symmetry_2
_ccdc_geom_bond_type
Li0 N17 1.982 1_554 S
Li0 O60 1.992 . S
Li0 O61 1.951 1_654 S
Li0 O62 1.958 1_554 S
Li1 N25 1.990 . S
Li1 O60 1.970 1_455 S
Li1 O61 1.956 1_554 S
Li1 O63 1.961 . S
Li2 N47 1.990 . S
Li2 O60 1.961 . S
Li2 O62 1.956 1_554 S
Li2 O63 1.970 1_655 S
Li3 N53 1.990 . S
Li3 O61 1.961 . S
Li3 O62 1.970 1_455 S
Li3 O63 1.956 1_556 S
C4 C6 1.348 . S
C4 C7 1.356 . S
C4 O60 1.325 . S
N5 C8 1.314 . S
N5 C9 1.279 . S
C6 C4 1.348 . S
C6 C8 1.353 . S
C6 H64 0.929 1_655 S
C7 C4 1.356 . S
C7 C9 1.358 . S
C7 H65 0.930 . S
C8 N5 1.314 . S
C8 C6 1.353 . S
C8 H66 0.966 . S
C9 N5 1.279 . S
C9 C7 1.358 . S
C9 H67 0.930 . S
C10 C13 1.348 . S
C10 C14 1.356 . S
C10 O61 1.325 . S
C11 N12 1.279 . S
C11 C14 1.358 . S
C11 H68 0.930 . S
N12 C11 1.279 . S
N12 C15 1.314 . S
C13 C10 1.348 . S
C13 C15 1.353 . S
C13 H69 0.929 1_455 S
C14 C10 1.356 . S
C14 C11 1.358 . S
C14 H70 0.930 . S
C15 N12 1.314 . S
C15 C13 1.353 . S
C15 H71 0.930 . S
C16 N17 1.314 . S
C16 C21 1.353 . S
C16 H22 0.930 . S
N17 Li0 1.982 1_556 S
N17 C16 1.314 . S
N17 C19 1.279 1_556 S
C18 C19 1.358 1_556 S
C18 C20 1.356 . S
C18 H72 0.930 1_556 S
C19 N17 1.279 1_554 S
C19 C18 1.358 1_554 S
C19 H23 0.930 . S
C20 C18 1.356 . S
C20 C21 1.348 . S
C21 C16 1.353 . S
C21 C20 1.348 . S
C21 H73 0.929 . S
H22 C16 0.930 . S
H23 C19 0.930 . S
C24 N25 1.314 . S
C24 C26 1.353 . S
C24 H30 0.930 . S
N25 Li1 1.990 . S
N25 C24 1.314 . S
N25 C28 1.279 . S
C26 C24 1.353 . S
C26 C29 1.348 . S
C26 H74 0.929 . S
C27 C28 1.358 . S
C27 C29 1.356 . S
C27 H75 0.930 . S
C28 N25 1.279 . S
C28 C27 1.358 . S
C28 H31 0.930 1_554 S
C29 C26 1.348 . S
C29 C27 1.356 . S
H30 C24 0.930 . S
H31 C28 0.930 1_556 S
C32 C34 1.348 . S
C32 C35 1.356 1_556 S
C32 O62 1.325 . S
N33 C36 1.314 . S
N33 C37 1.279 . S
C34 C32 1.348 . S
C34 C36 1.353 . S
C34 H76 0.929 . S
C35 C32 1.356 1_554 S
C35 C37 1.358 1_554 S
C35 H77 0.930 . S
C36 N33 1.314 . S
C36 C34 1.353 . S
C36 H78 0.930 . S
C37 N33 1.279 . S
C37 C35 1.358 1_556 S
C37 H79 0.925 1_556 S
C38 C39 1.348 . S
C38 C40 1.356 . S
C38 O63 1.325 . S
C39 C38 1.348 . S
C39 C41 1.353 . S
C39 H80 0.929 . S
C40 C38 1.356 . S
C40 C42 1.358 . S
C40 H81 0.930 . S
C41 C39 1.353 . S
C41 N43 1.314 . S
C41 H82 0.930 . S
C42 C40 1.358 . S
C42 N43 1.279 . S
C42 H83 0.930 . S
N43 C41 1.314 . S
N43 C42 1.279 . S
C44 C46 1.353 . S
C44 N47 1.314 . S
C44 H50 0.930 . S
C45 N47 1.279 . S
C45 C48 1.358 . S
C45 H51 0.930 . S
C46 C44 1.353 . S
C46 C49 1.348 . S
C46 H84 0.929 . S
N47 Li2 1.990 . S
N47 C44 1.314 . S
N47 C45 1.279 . S
C48 C45 1.358 . S
C48 C49 1.356 . S
C48 H85 0.930 . S
C49 C46 1.348 . S
C49 C48 1.356 . S
H50 C44 0.930 . S
H51 C45 0.930 . S
C52 N53 1.314 . S
C52 C54 1.353 . S
C52 H58 0.930 . S
N53 Li3 1.990 . S
N53 C52 1.314 . S
N53 C56 1.279 . S
C54 C52 1.353 . S
C54 C57 1.348 . S
C54 H86 0.929 . S
C55 C56 1.358 . S
C55 C57 1.356 . S
C55 H87 0.930 . S
C56 N53 1.279 . S
C56 C55 1.358 . S
C56 H59 0.930 . S
C57 C54 1.348 . S
C57 C55 1.356 . S
H58 C52 0.930 . S
H59 C56 0.930 . S
O60 Li0 1.992 . S
O60 Li1 1.970 1_655 S
O60 Li2 1.961 . S
O60 C4 1.325 . S
O61 Li0 1.951 1_456 S
O61 Li1 1.956 1_556 S
O61 Li3 1.961 . S
O61 C10 1.325 . S
O62 Li0 1.958 1_556 S
O62 Li2 1.956 1_556 S
O62 Li3 1.970 1_655 S
O62 C32 1.325 . S
O63 Li1 1.961 . S
O63 Li2 1.970 1_455 S
O63 Li3 1.956 1_554 S
O63 C38 1.325 . S
H64 C6 0.929 1_455 S
H65 C7 0.930 . S
H66 C8 0.966 . S
H67 C9 0.930 . S
H68 C11 0.930 . S
H69 C13 0.929 1_655 S
H70 C14 0.930 . S
H71 C15 0.930 . S
H72 C18 0.930 1_554 S
H73 C21 0.929 . S
H74 C26 0.929 . S
H75 C27 0.930 . S
H76 C34 0.929 . S
H77 C35 0.930 . S
H78 C36 0.930 . S
H79 C37 0.925 1_554 S
H80 C39 0.929 . S
H81 C40 0.930 . S
H82 C41 0.930 . S
H83 C42 0.930 . S
H84 C46 0.929 . S
H85 C48 0.930 . S
H86 C54 0.929 . S
H87 C55 0.930 . S
Li88 N105 1.990 . S
Li88 O148 1.956 1_556 S
Li88 O149 1.970 . S
Li88 O150 1.961 . S
Li89 N113 1.990 . S
Li89 O148 1.970 . S
Li89 O149 1.956 1_554 S
Li89 O151 1.961 . S
Li90 N135 1.990 . S
Li90 O148 1.961 . S
Li90 O150 1.956 1_554 S
Li90 O151 1.970 . S
Li91 N141 1.990 . S
Li91 O149 1.961 . S
Li91 O150 1.970 . S
Li91 O151 1.956 1_556 S
C92 C94 1.348 . S
C92 C95 1.356 . S
C92 O148 1.325 . S
N93 C96 1.314 . S
N93 C97 1.279 . S
C94 C92 1.348 . S
C94 C96 1.353 . S
C94 H152 0.929 . S
C95 C92 1.356 . S
C95 C97 1.358 . S
C95 H153 0.930 . S
C96 N93 1.314 . S
C96 C94 1.353 . S
C96 H154 0.930 . S
C97 N93 1.279 . S
C97 C95 1.358 . S
C97 H155 0.930 . S
C98 C101 1.348 . S
C98 C102 1.356 . S
C98 O149 1.325 . S
C99 N100 1.279 . S
C99 C102 1.358 . S
C99 H156 0.930 . S
N100 C99 1.279 . S
N100 C103 1.314 . S
C101 C98 1.348 . S
C101 C103 1.353 . S
C101 H157 0.929 . S
C102 C98 1.356 . S
C102 C99 1.358 . S
C102 H158 0.930 . S
C103 N100 1.314 . S
C103 C101 1.353 . S
C103 H159 0.930 . S
C104 N105 1.314 . S
C104 C109 1.353 . S
C104 H110 0.930 . S
N105 Li88 1.990 . S
N105 C104 1.314 . S
N105 C107 1.279 . S
C106 C107 1.358 . S
C106 C108 1.356 . S
C106 H160 0.930 . S
C107 N105 1.279 . S
C107 C106 1.358 . S
C107 H111 0.930 1_556 S
C108 C106 1.356 . S
C108 C109 1.348 . S
C109 C104 1.353 . S
C109 C108 1.348 . S
C109 H161 0.929 . S
H110 C104 0.930 . S
H111 C107 0.930 1_554 S
C112 N113 1.314 . S
C112 C114 1.353 . S
C112 H118 0.930 . S
N113 Li89 1.990 . S
N113 C112 1.314 . S
N113 C116 1.279 . S
C114 C112 1.353 . S
C114 C117 1.348 . S
C114 H162 0.929 . S
C115 C116 1.358 . S
C115 C117 1.356 . S
C115 H163 0.930 . S
C116 N113 1.279 . S
C116 C115 1.358 . S
C116 H119 0.930 . S
C117 C114 1.348 . S
C117 C115 1.356 . S
H118 C112 0.930 . S
H119 C116 0.930 . S
C120 C122 1.348 . S
C120 C123 1.356 . S
C120 O150 1.325 . S
N121 C124 1.314 . S
N121 C125 1.279 . S
C122 C120 1.348 . S
C122 C124 1.353 . S
C122 H164 0.929 . S
C123 C120 1.356 . S
C123 C125 1.358 . S
C123 H165 0.930 1_556 S
C124 N121 1.314 . S
C124 C122 1.353 . S
C124 H166 0.930 . S
C125 N121 1.279 . S
C125 C123 1.358 . S
C125 H167 0.930 . S
C126 C127 1.348 . S
C126 C128 1.356 . S
C126 O151 1.325 . S
C127 C126 1.348 . S
C127 C129 1.353 . S
C127 H168 0.929 . S
C128 C126 1.356 . S
C128 C130 1.358 . S
C128 H169 0.930 . S
C129 C127 1.353 . S
C129 N131 1.314 . S
C129 H170 0.930 . S
C130 C128 1.358 . S
C130 N131 1.279 . S
C130 H171 0.930 . S
N131 C129 1.314 . S
N131 C130 1.279 . S
C132 C134 1.353 . S
C132 N135 1.314 . S
C132 H138 0.930 . S
C133 N135 1.279 . S
C133 C136 1.358 . S
C133 H139 0.930 . S
C134 C132 1.353 . S
C134 C137 1.348 . S
C134 H172 0.929 . S
N135 Li90 1.990 . S
N135 C132 1.314 . S
N135 C133 1.279 . S
C136 C133 1.358 . S
C136 C137 1.356 . S
C136 H173 0.930 . S
C137 C134 1.348 . S
C137 C136 1.356 . S
H138 C132 0.930 . S
H139 C133 0.930 . S
C140 N141 1.314 . S
C140 C142 1.353 . S
C140 H146 0.930 . S
N141 Li91 1.990 . S
N141 C140 1.314 . S
N141 C144 1.279 . S
C142 C140 1.353 . S
C142 C145 1.348 . S
C142 H174 0.929 . S
C143 C144 1.358 . S
C143 C145 1.356 . S
C143 H175 0.930 . S
C144 N141 1.279 . S
C144 C143 1.358 . S
C144 H147 0.930 . S
C145 C142 1.348 . S
C145 C143 1.356 . S
H146 C140 0.930 . S
H147 C144 0.930 . S
O148 Li88 1.956 1_554 S
O148 Li89 1.970 . S
O148 Li90 1.961 . S
O148 C92 1.325 . S
O149 Li88 1.970 . S
O149 Li89 1.956 1_556 S
O149 Li91 1.961 . S
O149 C98 1.325 . S
O150 Li88 1.961 . S
O150 Li90 1.956 1_556 S
O150 Li91 1.970 . S
O150 C120 1.325 . S
O151 Li89 1.961 . S
O151 Li90 1.970 . S
O151 Li91 1.956 1_554 S
O151 C126 1.325 . S
H152 C94 0.929 . S
H153 C95 0.930 . S
H154 C96 0.930 . S
H155 C97 0.930 . S
H156 C99 0.930 . S
H157 C101 0.929 . S
H158 C102 0.930 . S
H159 C103 0.930 . S
H160 C106 0.930 . S
H161 C109 0.929 . S
H162 C114 0.929 . S
H163 C115 0.930 . S
H164 C122 0.929 . S
H165 C123 0.930 1_554 S
H166 C124 0.930 . S
H167 C125 0.930 . S
H168 C127 0.929 . S
H169 C128 0.930 . S
H170 C129 0.930 . S
H171 C130 0.930 . S
H172 C134 0.929 . S
H173 C136 0.930 . S
H174 C142 0.929 . S
H175 C143 0.930 . S
Li176 N193 1.990 . S
Li176 O236 1.956 1_556 S
Li176 O237 1.970 1_565 S
Li176 O238 1.961 . S
Li177 N201 1.990 . S
Li177 O236 1.970 1_545 S
Li177 O237 1.956 1_554 S
Li177 O239 1.961 . S
Li178 N223 1.990 . S
Li178 O236 1.961 . S
Li178 O238 1.956 1_554 S
Li178 O239 1.970 1_565 S
Li179 N229 1.990 1_554 S
Li179 O237 1.961 1_554 S
Li179 O238 1.970 1_544 S
Li179 O239 1.956 . S
C180 C182 1.348 . S
C180 C183 1.356 . S
C180 O236 1.325 . S
N181 C184 1.314 . S
N181 C185 1.279 . S
C182 C180 1.348 . S
C182 C184 1.353 . S
C182 H240 0.929 . S
C183 C180 1.356 . S
C183 C185 1.358 . S
C183 H241 0.930 . S
C184 N181 1.314 . S
C184 C182 1.353 . S
C184 H242 0.930 . S
C185 N181 1.279 . S
C185 C183 1.358 . S
C185 H243 0.930 . S
C186 C189 1.348 . S
C186 C190 1.356 1_556 S
C186 O237 1.325 . S
C187 N188 1.279 . S
C187 C190 1.358 1_556 S
C187 H244 0.924 1_556 S
N188 C187 1.279 . S
N188 C191 1.314 . S
C189 C186 1.348 . S
C189 C191 1.353 . S
C189 H245 0.929 . S
C190 C186 1.356 1_554 S
C190 C187 1.358 1_554 S
C190 H246 0.930 . S
C191 N188 1.314 . S
C191 C189 1.353 . S
C191 H247 0.930 . S
C192 N193 1.314 . S
C192 C197 1.353 . S
C192 H198 0.930 . S
N193 Li176 1.990 . S
N193 C192 1.314 . S
N193 C195 1.279 . S
C194 C195 1.358 . S
C194 C196 1.356 . S
C194 H248 0.930 . S
C195 N193 1.279 . S
C195 C194 1.358 . S
C195 H199 0.930 . S
C196 C194 1.356 . S
C196 C197 1.348 . S
C197 C192 1.353 . S
C197 C196 1.348 . S
C197 H249 0.929 . S
H198 C192 0.930 . S
H199 C195 0.930 . S
C200 N201 1.314 . S
C200 C202 1.353 . S
C200 H206 0.930 . S
N201 Li177 1.990 . S
N201 C200 1.314 . S
N201 C204 1.279 . S
C202 C200 1.353 . S
C202 C205 1.348 . S
C202 H250 0.929 . S
C203 C204 1.358 . S
C203 C205 1.356 . S
C203 H251 0.930 . S
C204 N201 1.279 . S
C204 C203 1.358 . S
C204 H207 0.930 . S
C205 C202 1.348 . S
C205 C203 1.356 . S
H206 C200 0.930 . S
H207 C204 0.930 . S
C208 C210 1.348 . S
C208 C211 1.356 . S
C208 O238 1.325 . S
N209 C212 1.314 . S
N209 C213 1.279 . S
C210 C208 1.348 . S
C210 C212 1.353 . S
C210 H252 0.929 1_565 S
C211 C208 1.356 . S
C211 C213 1.358 . S
C211 H253 0.930 . S
C212 N209 1.314 . S
C212 C210 1.353 . S
C212 H254 0.966 . S
C213 N209 1.279 . S
C213 C211 1.358 . S
C213 H255 0.930 . S
C214 C215 1.348 . S
C214 C216 1.356 . S
C214 O239 1.325 . S
C215 C214 1.348 . S
C215 C217 1.353 . S
C215 H256 0.929 1_545 S
C216 C214 1.356 . S
C216 C218 1.358 . S
C216 H257 0.930 . S
C217 C215 1.353 . S
C217 N219 1.314 . S
C217 H258 0.930 . S
C218 C216 1.358 . S
C218 N219 1.279 . S
C218 H259 0.930 . S
N219 C217 1.314 . S
N219 C218 1.279 . S
C220 C222 1.353 . S
C220 N223 1.314 . S
C220 H226 0.930 . S
C221 N223 1.279 . S
C221 C224 1.358 . S
C221 H227 0.930 1_554 S
C222 C220 1.353 . S
C222 C225 1.348 . S
C222 H260 0.929 . S
N223 Li178 1.990 . S
N223 C220 1.314 . S
N223 C221 1.279 . S
C224 C221 1.358 . S
C224 C225 1.356 . S
C224 H261 0.930 . S
C225 C222 1.348 . S
C225 C224 1.356 . S
H226 C220 0.930 . S
H227 C221 0.930 1_556 S
C228 N229 1.314 . S
C228 C230 1.353 . S
C228 H234 0.930 . S
N229 Li179 1.990 1_556 S
N229 C228 1.314 . S
N229 C232 1.279 1_556 S
C230 C228 1.353 . S
C230 C233 1.348 . S
C230 H262 0.929 . S
C231 C232 1.358 1_556 S
C231 C233 1.356 . S
C231 H263 0.930 1_556 S
C232 N229 1.279 1_554 S
C232 C231 1.358 1_554 S
C232 H235 0.930 . S
C233 C230 1.348 . S
C233 C231 1.356 . S
H234 C228 0.930 . S
H235 C232 0.930 . S
O236 Li176 1.956 1_554 S
O236 Li177 1.970 1_565 S
O236 Li178 1.961 . S
O236 C180 1.325 . S
O237 Li176 1.970 1_545 S
O237 Li177 1.956 1_556 S
O237 Li179 1.961 1_556 S
O237 C186 1.325 . S
O238 Li176 1.961 . S
O238 Li178 1.956 1_556 S
O238 Li179 1.970 1_566 S
O238 C208 1.325 . S
O239 Li177 1.961 . S
O239 Li178 1.970 1_545 S
O239 Li179 1.956 . S
O239 C214 1.325 . S
H240 C182 0.929 . S
H241 C183 0.930 . S
H242 C184 0.930 . S
H243 C185 0.930 . S
H244 C187 0.924 1_554 S
H245 C189 0.929 . S
H246 C190 0.930 . S
H247 C191 0.930 . S
H248 C194 0.930 . S
H249 C197 0.929 . S
H250 C202 0.929 . S
H251 C203 0.930 . S
H252 C210 0.929 1_545 S
H253 C211 0.930 . S
H254 C212 0.966 . S
H255 C213 0.930 . S
H256 C215 0.929 1_565 S
H257 C216 0.930 . S
H258 C217 0.930 . S
H259 C218 0.930 . S
H260 C222 0.929 . S
H261 C224 0.930 . S
H262 C230 0.929 . S
H263 C231 0.930 1_554 S
Li264 N281 1.990 . S
Li264 O324 1.956 . S
Li264 O325 1.970 1_455 S
Li264 O326 1.961 1_554 S
Li265 N289 1.990 . S
Li265 O324 1.970 1_655 S
Li265 O325 1.956 . S
Li265 O327 1.961 1_554 S
Li266 N311 1.990 . S
Li266 O324 1.961 1_556 S
Li266 O326 1.956 . S
Li266 O327 1.970 1_455 S
Li267 N317 1.995 . S
Li267 O325 1.943 1_556 S
Li267 O326 1.979 1_655 S
Li267 O327 1.957 . S
C268 C270 1.348 . S
C268 C271 1.356 . S
C268 O324 1.325 . S
N269 C272 1.314 . S
N269 C273 1.279 . S
C270 C268 1.348 . S
C270 C272 1.353 . S
C270 H328 0.929 . S
C271 C268 1.356 . S
C271 C273 1.358 . S
C271 H329 0.930 1_554 S
C272 N269 1.314 . S
C272 C270 1.353 . S
C272 H330 0.930 . S
C273 N269 1.279 . S
C273 C271 1.358 . S
C273 H331 0.930 . S
C274 C277 1.341 1_655 S
C274 C278 1.356 . S
C274 O325 1.325 . S
C275 N276 1.279 . S
C275 C278 1.358 . S
C275 H332 0.930 . S
N276 C275 1.279 . S
N276 C279 1.314 . S
C277 C274 1.341 1_455 S
C277 C279 1.342 1_455 S
C277 H333 0.948 . S
C278 C274 1.356 . S
C278 C275 1.358 . S
C278 H334 0.930 . S
C279 N276 1.314 . S
C279 C277 1.342 1_655 S
C279 H335 0.930 1_655 S
C280 N281 1.314 . S
C280 C285 1.353 . S
C280 H286 0.930 . S
N281 Li264 1.990 . S
N281 C280 1.314 . S
N281 C283 1.279 . S
C282 C283 1.358 . S
C282 C284 1.356 . S
C282 H336 0.930 . S
C283 N281 1.279 . S
C283 C282 1.358 . S
C283 H287 0.930 . S
C284 C282 1.356 . S
C284 C285 1.348 . S
C285 C280 1.353 . S
C285 C284 1.348 . S
C285 H337 0.929 . S
H286 C280 0.930 . S
H287 C283 0.930 . S
C288 N289 1.314 . S
C288 C290 1.353 . S
C288 H294 0.930 . S
N289 Li265 1.990 . S
N289 C288 1.314 . S
N289 C292 1.279 . S
C290 C288 1.353 . S
C290 C293 1.348 . S
C290 H338 0.929 . S
C291 C292 1.358 . S
C291 C293 1.356 . S
C291 H339 0.930 . S
C292 N289 1.279 . S
C292 C291 1.358 . S
C292 H295 0.930 . S
C293 C290 1.348 . S
C293 C291 1.356 . S
H294 C288 0.930 . S
H295 C292 0.930 . S
C296 C298 1.324 1_455 S
C296 C299 1.356 . S
C296 O326 1.325 . S
N297 C300 1.314 . S
N297 C301 1.279 . S
C298 C296 1.324 1_655 S
C298 C300 1.353 1_655 S
C298 H340 0.953 . S
C299 C296 1.356 . S
C299 C301 1.358 . S
C299 H341 0.930 . S
C300 N297 1.314 . S
C300 C298 1.353 1_455 S
C300 H342 0.930 1_455 S
C301 N297 1.279 . S
C301 C299 1.358 . S
C301 H343 0.930 . S
C302 C303 1.348 . S
C302 C304 1.356 1_556 S
C302 O327 1.325 . S
C303 C302 1.348 . S
C303 C305 1.353 . S
C303 H344 0.929 . S
C304 C302 1.356 1_554 S
C304 C306 1.358 1_554 S
C304 H345 0.930 . S
C305 C303 1.353 . S
C305 N307 1.314 . S
C305 H346 0.930 . S
C306 C304 1.358 1_556 S
C306 N307 1.279 . S
C306 H347 0.930 1_556 S
N307 C305 1.314 . S
N307 C306 1.279 . S
C308 C310 1.353 . S
C308 N311 1.314 . S
C308 H314 0.930 . S
C309 N311 1.279 . S
C309 C312 1.358 . S
C309 H315 0.930 . S
C310 C308 1.353 . S
C310 C313 1.348 . S
C310 H348 0.929 . S
N311 Li266 1.990 . S
N311 C308 1.314 . S
N311 C309 1.279 . S
C312 C309 1.358 . S
C312 C313 1.356 . S
C312 H349 0.930 . S
C313 C310 1.348 . S
C313 C312 1.356 . S
H314 C308 0.930 . S
H315 C309 0.930 . S
C316 N317 1.314 . S
C316 C318 1.353 . S
C316 H322 0.930 1_556 S
N317 Li267 1.995 . S
N317 C316 1.314 . S
N317 C320 1.279 . S
C318 C316 1.353 . S
C318 C321 1.348 . S
C318 H350 0.929 . S
C319 C320 1.358 . S
C319 C321 1.356 . S
C319 H351 0.930 . S
C320 N317 1.279 . S
C320 C319 1.358 . S
C320 H323 0.930 . S
C321 C318 1.348 . S
C321 C319 1.356 . S
H322 C316 0.930 1_554 S
H323 C320 0.930 . S
O324 Li264 1.956 . S
O324 Li265 1.970 1_455 S
O324 Li266 1.961 1_554 S
O324 C268 1.325 . S
O325 Li264 1.970 1_655 S
O325 Li265 1.956 . S
O325 Li267 1.943 1_554 S
O325 C274 1.325 . S
O326 Li264 1.961 1_556 S
O326 Li266 1.956 . S
O326 Li267 1.979 1_455 S
O326 C296 1.325 . S
O327 Li265 1.961 1_556 S
O327 Li266 1.970 1_655 S
O327 Li267 1.957 . S
O327 C302 1.325 . S
H328 C270 0.929 . S
H329 C271 0.930 1_556 S
H330 C272 0.930 . S
H331 C273 0.930 . S
H332 C275 0.930 . S
H333 C277 0.948 . S
H334 C278 0.930 . S
H335 C279 0.930 1_455 S
H336 C282 0.930 . S
H337 C285 0.929 . S
H338 C290 0.929 . S
H339 C291 0.930 . S
H340 C298 0.953 . S
H341 C299 0.930 . S
H342 C300 0.930 1_655 S
H343 C301 0.930 . S
H344 C303 0.929 . S
H345 C304 0.930 . S
H346 C305 0.930 . S
H347 C306 0.930 1_554 S
H348 C310 0.929 . S
H349 C312 0.930 . S
H350 C318 0.929 . S
H351 C319 0.930 . S
Li352 N369 1.990 . S
Li352 O412 1.956 . S
Li352 O413 1.970 . S
Li352 O414 1.961 1_554 S
Li353 N377 1.990 . S
Li353 O412 1.970 . S
Li353 O413 1.956 . S
Li353 O415 1.961 1_554 S
Li354 N399 1.990 . S
Li354 O412 1.961 1_556 S
Li354 O414 1.956 . S
Li354 O415 1.970 . S
Li355 N405 1.990 . S
Li355 O413 1.961 1_556 S
Li355 O414 1.970 . S
Li355 O415 1.956 . S
C356 C358 1.348 . S
C356 C359 1.356 . S
C356 O412 1.325 . S
N357 C360 1.314 . S
N357 C361 1.279 . S
C358 C356 1.348 . S
C358 C360 1.353 . S
C358 H416 0.929 . S
C359 C356 1.356 . S
C359 C361 1.358 . S
C359 H417 0.930 . S
C360 N357 1.314 . S
C360 C358 1.353 . S
C360 H418 0.930 . S
C361 N357 1.279 . S
C361 C359 1.358 . S
C361 H419 0.930 . S
C362 C365 1.348 . S
C362 C366 1.356 . S
C362 O413 1.325 . S
C363 N364 1.279 . S
C363 C366 1.358 . S
C363 H420 0.930 . S
N364 C363 1.279 . S
N364 C367 1.314 . S
C365 C362 1.348 . S
C365 C367 1.353 . S
C365 H421 0.929 . S
C366 C362 1.356 . S
C366 C363 1.358 . S
C366 H422 0.930 . S
C367 N364 1.314 . S
C367 C365 1.353 . S
C367 H423 0.930 . S
C368 N369 1.314 . S
C368 C373 1.353 . S
C368 H374 0.930 . S
N369 Li352 1.990 . S
N369 C368 1.314 . S
N369 C371 1.279 . S
C370 C371 1.358 . S
C370 C372 1.356 . S
C370 H424 0.930 . S
C371 N369 1.279 . S
C371 C370 1.358 . S
C371 H375 0.930 . S
C372 C370 1.356 . S
C372 C373 1.348 . S
C373 C368 1.353 . S
C373 C372 1.348 . S
C373 H425 0.929 . S
H374 C368 0.930 . S
H375 C371 0.930 . S
C376 N377 1.314 . S
C376 C378 1.353 . S
C376 H382 0.930 . S
N377 Li353 1.990 . S
N377 C376 1.314 . S
N377 C380 1.279 . S
C378 C376 1.353 . S
C378 C381 1.348 . S
C378 H426 0.929 . S
C379 C380 1.358 . S
C379 C381 1.356 . S
C379 H427 0.930 . S
C380 N377 1.279 . S
C380 C379 1.358 . S
C380 H383 0.930 . S
C381 C378 1.348 . S
C381 C379 1.356 . S
H382 C376 0.930 . S
H383 C380 0.930 . S
C384 C386 1.348 . S
C384 C387 1.356 . S
C384 O414 1.325 . S
N385 C388 1.314 . S
N385 C389 1.279 . S
C386 C384 1.348 . S
C386 C388 1.353 . S
C386 H428 0.929 . S
C387 C384 1.356 . S
C387 C389 1.358 . S
C387 H429 0.930 . S
C388 N385 1.314 . S
C388 C386 1.353 . S
C388 H430 0.930 . S
C389 N385 1.279 . S
C389 C387 1.358 . S
C389 H431 0.930 . S
C390 C391 1.348 . S
C390 C392 1.356 . S
C390 O415 1.325 . S
C391 C390 1.348 . S
C391 C393 1.353 . S
C391 H432 0.929 . S
C392 C390 1.356 . S
C392 C394 1.358 . S
C392 H433 0.930 1_556 S
C393 C391 1.353 . S
C393 N395 1.314 . S
C393 H434 0.930 . S
C394 C392 1.358 . S
C394 N395 1.279 . S
C394 H435 0.930 . S
N395 C393 1.314 . S
N395 C394 1.279 . S
C396 C398 1.353 . S
C396 N399 1.314 . S
C396 H402 0.930 . S
C397 N399 1.279 . S
C397 C400 1.358 . S
C397 H403 0.930 . S
C398 C396 1.353 . S
C398 C401 1.348 . S
C398 H436 0.929 . S
N399 Li354 1.990 . S
N399 C396 1.314 . S
N399 C397 1.279 . S
C400 C397 1.358 . S
C400 C401 1.356 . S
C400 H437 0.930 . S
C401 C398 1.348 . S
C401 C400 1.356 . S
H402 C396 0.930 . S
H403 C397 0.930 . S
C404 N405 1.314 . S
C404 C406 1.353 . S
C404 H410 0.922 1_556 S
N405 Li355 1.990 . S
N405 C404 1.314 . S
N405 C408 1.279 . S
C406 C404 1.353 . S
C406 C409 1.348 . S
C406 H438 0.929 . S
C407 C408 1.358 . S
C407 C409 1.356 . S
C407 H439 0.930 . S
C408 N405 1.279 . S
C408 C407 1.358 . S
C408 H411 0.930 . S
C409 C406 1.348 . S
C409 C407 1.356 . S
H410 C404 0.922 1_554 S
H411 C408 0.930 . S
O412 Li352 1.956 . S
O412 Li353 1.970 . S
O412 Li354 1.961 1_554 S
O412 C356 1.325 . S
O413 Li352 1.970 . S
O413 Li353 1.956 . S
O413 Li355 1.961 1_554 S
O413 C362 1.325 . S
O414 Li352 1.961 1_556 S
O414 Li354 1.956 . S
O414 Li355 1.970 . S
O414 C384 1.325 . S
O415 Li353 1.961 1_556 S
O415 Li354 1.970 . S
O415 Li355 1.956 . S
O415 C390 1.325 . S
H416 C358 0.929 . S
H417 C359 0.930 . S
H418 C360 0.930 . S
H419 C361 0.930 . S
H420 C363 0.930 . S
H421 C365 0.929 . S
H422 C366 0.930 . S
H423 C367 0.930 . S
H424 C370 0.930 . S
H425 C373 0.929 . S
H426 C378 0.929 . S
H427 C379 0.930 . S
H428 C386 0.929 . S
H429 C387 0.930 . S
H430 C388 0.930 . S
H431 C389 0.930 . S
H432 C391 0.929 . S
H433 C392 0.930 1_554 S
H434 C393 0.930 . S
H435 C394 0.930 . S
H436 C398 0.929 . S
H437 C400 0.930 . S
H438 C406 0.929 . S
H439 C407 0.930 . S
Li440 N457 1.990 . S
Li440 O500 1.956 . S
Li440 O501 1.970 1_565 S
Li440 O502 1.961 1_554 S
Li441 N465 1.990 . S
Li441 O500 1.970 1_545 S
Li441 O501 1.956 . S
Li441 O503 1.937 1_554 S
Li442 N487 1.990 . S
Li442 O500 1.961 1_556 S
Li442 O502 1.956 . S
Li442 O503 1.981 1_565 S
Li443 N493 1.987 1_554 S
Li443 O501 1.974 . S
Li443 O502 1.964 1_544 S
Li443 O503 1.955 1_554 S
C444 C446 1.348 . S
C444 C447 1.356 . S
C444 O500 1.325 . S
N445 C448 1.314 . S
N445 C449 1.279 . S
C446 C444 1.348 . S
C446 C448 1.353 . S
C446 H504 0.929 . S
C447 C444 1.356 . S
C447 C449 1.358 . S
C447 H505 0.930 1_554 S
C448 N445 1.314 . S
C448 C446 1.353 . S
C448 H506 0.930 . S
C449 N445 1.279 . S
C449 C447 1.358 . S
C449 H507 0.930 . S
C450 C453 1.324 1_545 S
C450 C454 1.356 . S
C450 O501 1.325 . S
C451 N452 1.279 . S
C451 C454 1.358 . S
C451 H508 0.930 . S
N452 C451 1.279 . S
N452 C455 1.314 . S
C453 C450 1.324 1_565 S
C453 C455 1.353 1_565 S
C453 H509 0.953 . S
C454 C450 1.356 . S
C454 C451 1.358 . S
C454 H510 0.930 . S
C455 N452 1.314 . S
C455 C453 1.353 1_545 S
C455 H511 0.930 1_545 S
C456 N457 1.314 . S
C456 C461 1.353 . S
C456 H462 0.930 . S
N457 Li440 1.990 . S
N457 C456 1.314 . S
N457 C459 1.279 . S
C458 C459 1.358 . S
C458 C460 1.356 . S
C458 H512 0.930 . S
C459 N457 1.279 . S
C459 C458 1.358 . S
C459 H463 0.930 . S
C460 C458 1.356 . S
C460 C461 1.348 . S
C461 C456 1.353 . S
C461 C460 1.348 . S
C461 H513 0.929 . S
H462 C456 0.930 . S
H463 C459 0.930 . S
C464 N465 1.314 . S
C464 C466 1.353 . S
C464 H470 0.930 . S
N465 Li441 1.990 . S
N465 C464 1.314 . S
N465 C468 1.279 . S
C466 C464 1.353 . S
C466 C469 1.348 . S
C466 H514 0.929 . S
C467 C468 1.358 . S
C467 C469 1.356 . S
C467 H515 0.930 . S
C468 N465 1.279 . S
C468 C467 1.358 . S
C468 H471 0.930 . S
C469 C466 1.348 . S
C469 C467 1.356 . S
H470 C464 0.930 . S
H471 C468 0.930 . S
C472 C474 1.341 1_565 S
C472 C475 1.356 . S
C472 O502 1.325 . S
N473 C476 1.314 . S
N473 C477 1.279 . S
C474 C472 1.341 1_545 S
C474 C476 1.342 1_545 S
C474 H516 0.947 . S
C475 C472 1.356 . S
C475 C477 1.358 . S
C475 H517 0.930 . S
C476 N473 1.314 . S
C476 C474 1.342 1_565 S
C476 H518 0.930 1_565 S
C477 N473 1.279 . S
C477 C475 1.358 . S
C477 H519 0.930 . S
C478 C479 1.348 . S
C478 C480 1.356 1_556 S
C478 O503 1.332 . S
C479 C478 1.348 . S
C479 C481 1.353 . S
C479 H520 0.929 . S
C480 C478 1.356 1_554 S
C480 C482 1.356 1_554 S
C480 H521 0.930 . S
C481 C479 1.353 . S
C481 N483 1.314 . S
C481 H522 0.930 . S
C482 C480 1.356 1_556 S
C482 N483 1.287 . S
C482 H523 0.925 1_556 S
N483 C481 1.314 . S
N483 C482 1.287 . S
C484 C486 1.353 . S
C484 N487 1.314 . S
C484 H490 0.930 . S
C485 N487 1.279 . S
C485 C488 1.358 . S
C485 H491 0.930 . S
C486 C484 1.353 . S
C486 C489 1.348 . S
C486 H524 0.929 . S
N487 Li442 1.990 . S
N487 C484 1.314 . S
N487 C485 1.279 . S
C488 C485 1.358 . S
C488 C489 1.356 . S
C488 H525 0.930 . S
C489 C486 1.348 . S
C489 C488 1.356 . S
H490 C484 0.930 . S
H491 C485 0.930 . S
C492 N493 1.314 . S
C492 C494 1.353 . S
C492 H498 0.930 1_556 S
N493 Li443 1.987 1_556 S
N493 C492 1.314 . S
N493 C496 1.279 . S
C494 C492 1.353 . S
C494 C497 1.348 . S
C494 H526 0.929 . S
C495 C496 1.358 . S
C495 C497 1.356 . S
C495 H527 0.930 . S
C496 N493 1.279 . S
C496 C495 1.358 . S
C496 H499 0.930 . S
C497 C494 1.348 . S
C497 C495 1.356 . S
H498 C492 0.930 1_554 S
H499 C496 0.930 . S
O500 Li440 1.956 . S
O500 Li441 1.970 1_565 S
O500 Li442 1.961 1_554 S
O500 C444 1.325 . S
O501 Li440 1.970 1_545 S
O501 Li441 1.956 . S
O501 Li443 1.974 . S
O501 C450 1.325 . S
O502 Li440 1.961 1_556 S
O502 Li442 1.956 . S
O502 Li443 1.964 1_566 S
O502 C472 1.325 . S
O503 Li441 1.937 1_556 S
O503 Li442 1.981 1_545 S
O503 Li443 1.955 1_556 S
O503 C478 1.332 . S
H504 C446 0.929 . S
H505 C447 0.930 1_556 S
H506 C448 0.930 . S
H507 C449 0.930 . S
H508 C451 0.930 . S
H509 C453 0.953 . S
H510 C454 0.930 . S
H511 C455 0.930 1_565 S
H512 C458 0.930 . S
H513 C461 0.929 . S
H514 C466 0.929 . S
H515 C467 0.930 . S
H516 C474 0.947 . S
H517 C475 0.930 . S
H518 C476 0.930 1_545 S
H519 C477 0.930 . S
H520 C479 0.929 . S
H521 C480 0.930 . S
H522 C481 0.930 . S
H523 C482 0.925 1_554 S
H524 C486 0.929 . S
H525 C488 0.930 . S
H526 C494 0.929 . S
H527 C495 0.930 . S
Li528 N545 1.990 . S
Li528 O588 1.956 . S
Li528 O589 1.970 . S
Li528 O590 1.961 . S
Li529 N553 1.990 . S
Li529 O588 1.970 . S
Li529 O589 1.956 . S
Li529 O591 1.961 . S
Li530 N575 1.990 . S
Li530 O588 1.961 . S
Li530 O590 1.956 . S
Li530 O591 1.970 . S
Li531 N581 1.990 . S
Li531 O589 1.961 . S
Li531 O590 1.970 . S
Li531 O591 1.956 . S
C532 C534 1.348 . S
C532 C535 1.356 . S
C532 O588 1.325 . S
N533 C536 1.314 . S
N533 C537 1.279 . S
C534 C532 1.348 . S
C534 C536 1.353 . S
C534 H592 0.929 . S
C535 C532 1.356 . S
C535 C537 1.358 . S
C535 H593 0.930 . S
C536 N533 1.314 . S
C536 C534 1.353 . S
C536 H594 0.930 . S
C537 N533 1.279 . S
C537 C535 1.358 . S
C537 H595 0.930 . S
C538 C541 1.348 . S
C538 C542 1.356 . S
C538 O589 1.325 . S
C539 N540 1.279 . S
C539 C542 1.358 . S
C539 H596 0.930 . S
N540 C539 1.279 . S
N540 C543 1.314 . S
C541 C538 1.348 . S
C541 C543 1.353 . S
C541 H597 0.929 . S
C542 C538 1.356 . S
C542 C539 1.358 . S
C542 H598 0.930 . S
C543 N540 1.314 . S
C543 C541 1.353 . S
C543 H599 0.930 . S
C544 N545 1.314 . S
C544 C549 1.353 . S
C544 H550 0.930 . S
N545 Li528 1.990 . S
N545 C544 1.314 . S
N545 C547 1.279 . S
C546 C547 1.358 . S
C546 C548 1.356 . S
C546 H600 0.930 . S
C547 N545 1.279 . S
C547 C546 1.358 . S
C547 H551 0.930 . S
C548 C546 1.356 . S
C548 C549 1.348 . S
C549 C544 1.353 . S
C549 C548 1.348 . S
C549 H601 0.929 . S
H550 C544 0.930 . S
H551 C547 0.930 . S
C552 N553 1.314 . S
C552 C554 1.353 . S
C552 H558 0.930 . S
N553 Li529 1.990 . S
N553 C552 1.314 . S
N553 C556 1.279 . S
C554 C552 1.353 . S
C554 C557 1.348 . S
C554 H602 0.929 . S
C555 C556 1.358 . S
C555 C557 1.356 . S
C555 H603 0.930 . S
C556 N553 1.279 . S
C556 C555 1.358 . S
C556 H559 0.930 . S
C557 C554 1.348 . S
C557 C555 1.356 . S
H558 C552 0.930 . S
H559 C556 0.930 . S
C560 C562 1.348 . S
C560 C563 1.356 . S
C560 O590 1.325 . S
N561 C564 1.314 . S
N561 C565 1.279 . S
C562 C560 1.348 . S
C562 C564 1.353 . S
C562 H604 0.929 . S
C563 C560 1.356 . S
C563 C565 1.358 . S
C563 H605 0.930 . S
C564 N561 1.314 . S
C564 C562 1.353 . S
C564 H606 0.930 . S
C565 N561 1.279 . S
C565 C563 1.358 . S
C565 H607 0.930 . S
C566 C567 1.348 . S
C566 C568 1.356 . S
C566 O591 1.325 . S
C567 C566 1.348 . S
C567 C569 1.353 . S
C567 H608 0.929 . S
C568 C566 1.356 . S
C568 C570 1.358 . S
C568 H609 0.930 . S
C569 C567 1.353 . S
C569 N571 1.314 . S
C569 H610 0.930 . S
C570 C568 1.358 . S
C570 N571 1.279 . S
C570 H611 0.930 . S
N571 C569 1.314 . S
N571 C570 1.279 . S
C572 C574 1.353 . S
C572 N575 1.314 . S
C572 H578 0.930 . S
C573 N575 1.279 . S
C573 C576 1.358 . S
C573 H579 0.930 . S
C574 C572 1.353 . S
C574 C577 1.348 . S
C574 H612 0.929 . S
N575 Li530 1.990 . S
N575 C572 1.314 . S
N575 C573 1.279 . S
C576 C573 1.358 . S
C576 C577 1.356 . S
C576 H613 0.930 . S
C577 C574 1.348 . S
C577 C576 1.356 . S
H578 C572 0.930 . S
H579 C573 0.930 . S
C580 N581 1.314 . S
C580 C582 1.353 . S
C580 H586 0.930 . S
N581 Li531 1.990 . S
N581 C580 1.314 . S
N581 C584 1.279 . S
C582 C580 1.353 . S
C582 C585 1.348 . S
C582 H614 0.929 . S
C583 C584 1.358 . S
C583 C585 1.356 . S
C583 H615 0.930 . S
C584 N581 1.279 . S
C584 C583 1.358 . S
C584 H587 0.930 . S
C585 C582 1.348 . S
C585 C583 1.356 . S
H586 C580 0.930 . S
H587 C584 0.930 . S
O588 Li528 1.956 . S
O588 Li529 1.970 . S
O588 Li530 1.961 . S
O588 C532 1.325 . S
O589 Li528 1.970 . S
O589 Li529 1.956 . S
O589 Li531 1.961 . S
O589 C538 1.325 . S
O590 Li528 1.961 . S
O590 Li530 1.956 . S
O590 Li531 1.970 . S
O590 C560 1.325 . S
O591 Li529 1.961 . S
O591 Li530 1.970 . S
O591 Li531 1.956 . S
O591 C566 1.325 . S
H592 C534 0.929 . S
H593 C535 0.930 . S
H594 C536 0.930 . S
H595 C537 0.930 . S
H596 C539 0.930 . S
H597 C541 0.929 . S
H598 C542 0.930 . S
H599 C543 0.930 . S
H600 C546 0.930 . S
H601 C549 0.929 . S
H602 C554 0.929 . S
H603 C555 0.930 . S
H604 C562 0.929 . S
H605 C563 0.930 . S
H606 C564 0.930 . S
H607 C565 0.930 . S
H608 C567 0.929 . S
H609 C568 0.930 . S
H610 C569 0.930 . S
H611 C570 0.930 . S
H612 C574 0.929 . S
H613 C576 0.930 . S
H614 C582 0.929 . S
H615 C583 0.930 . S
Li616 N633 1.990 . S
Li616 O676 1.956 . S
Li616 O677 1.970 . S
Li616 O678 1.961 1_565 S
Li617 N641 1.990 . S
Li617 O676 1.970 . S
Li617 O677 1.956 . S
Li617 O679 1.961 . S
Li618 N663 1.990 . S
Li618 O676 1.961 1_545 S
Li618 O678 1.956 . S
Li618 O679 1.970 1_545 S
Li619 N669 1.990 . S
Li619 O677 1.961 . S
Li619 O678 1.970 1_565 S
Li619 O679 1.956 . S
C620 C622 1.348 . S
C620 C623 1.356 . S
C620 O676 1.325 . S
N621 C624 1.314 . S
N621 C625 1.279 . S
C622 C620 1.348 . S
C622 C624 1.353 . S
C622 H680 0.929 . S
C623 C620 1.356 . S
C623 C625 1.358 . S
C623 H681 0.930 1_565 S
C624 N621 1.314 . S
C624 C622 1.353 . S
C624 H682 0.930 . S
C625 N621 1.279 . S
C625 C623 1.358 . S
C625 H683 0.930 1_565 S
C626 C629 1.348 . S
C626 C630 1.356 . S
C626 O677 1.325 . S
C627 N628 1.279 . S
C627 C630 1.358 . S
C627 H684 0.930 . S
N628 C627 1.279 . S
N628 C631 1.314 . S
C629 C626 1.348 . S
C629 C631 1.353 . S
C629 H685 0.929 . S
C630 C626 1.356 . S
C630 C627 1.358 . S
C630 H686 0.930 . S
C631 N628 1.314 . S
C631 C629 1.353 . S
C631 H687 0.930 . S
C632 N633 1.314 . S
C632 C637 1.353 . S
C632 H638 0.930 . S
N633 Li616 1.990 . S
N633 C632 1.314 . S
N633 C635 1.279 . S
C634 C635 1.358 . S
C634 C636 1.356 . S
C634 H688 0.930 . S
C635 N633 1.279 . S
C635 C634 1.358 . S
C635 H639 0.930 . S
C636 C634 1.356 . S
C636 C637 1.348 . S
C637 C632 1.353 . S
C637 C636 1.348 . S
C637 H689 0.929 . S
H638 C632 0.930 . S
H639 C635 0.930 . S
C640 N641 1.314 . S
C640 C642 1.353 . S
C640 H646 0.930 . S
N641 Li617 1.990 . S
N641 C640 1.314 . S
N641 C644 1.279 . S
C642 C640 1.353 . S
C642 C645 1.348 . S
C642 H690 0.929 . S
C643 C644 1.358 . S
C643 C645 1.356 . S
C643 H691 0.930 . S
C644 N641 1.279 . S
C644 C643 1.358 . S
C644 H647 0.930 . S
C645 C642 1.348 . S
C645 C643 1.356 . S
H646 C640 0.930 . S
H647 C644 0.930 . S
C648 C650 1.348 . S
C648 C651 1.356 . S
C648 O678 1.325 . S
N649 C652 1.314 . S
N649 C653 1.279 . S
C650 C648 1.348 . S
C650 C652 1.353 . S
C650 H692 0.929 . S
C651 C648 1.356 . S
C651 C653 1.358 . S
C651 H693 0.930 . S
C652 N649 1.314 . S
C652 C650 1.353 . S
C652 H694 0.930 . S
C653 N649 1.279 . S
C653 C651 1.358 . S
C653 H695 0.930 . S
C654 C655 1.318 1_565 S
C654 C656 1.390 . S
C654 O679 1.322 . S
C655 C654 1.318 1_545 S
C655 C657 1.353 . S
C655 H696 0.929 . S
C656 C654 1.390 . S
C656 C658 1.358 . S
C656 H697 0.930 . S
C657 C655 1.353 . S
C657 N659 1.314 . S
C657 H698 0.930 . S
C658 C656 1.358 . S
C658 N659 1.279 1_565 S
C658 H699 0.930 . S
N659 C657 1.314 . S
N659 C658 1.279 1_545 S
C660 C662 1.353 . S
C660 N663 1.314 . S
C660 H666 0.930 . S
C661 N663 1.279 . S
C661 C664 1.358 . S
C661 H667 0.930 . S
C662 C660 1.353 . S
C662 C665 1.348 . S
C662 H700 0.929 . S
N663 Li618 1.990 . S
N663 C660 1.314 . S
N663 C661 1.279 . S
C664 C661 1.358 . S
C664 C665 1.356 . S
C664 H701 0.930 . S
C665 C662 1.348 . S
C665 C664 1.356 . S
H666 C660 0.930 . S
H667 C661 0.930 . S
C668 N669 1.314 . S
C668 C670 1.353 . S
C668 H674 0.930 . S
N669 Li619 1.990 . S
N669 C668 1.314 . S
N669 C672 1.279 . S
C670 C668 1.353 . S
C670 C673 1.348 . S
C670 H702 0.929 . S
C671 C672 1.358 . S
C671 C673 1.357 . S
C671 H703 0.929 1_565 S
C672 N669 1.279 . S
C672 C671 1.358 . S
C672 H675 0.930 1_565 S
C673 C670 1.348 . S
C673 C671 1.357 . S
H674 C668 0.930 . S
H675 C672 0.930 1_545 S
O676 Li616 1.956 . S
O676 Li617 1.970 . S
O676 Li618 1.961 1_565 S
O676 C620 1.325 . S
O677 Li616 1.970 . S
O677 Li617 1.956 . S
O677 Li619 1.961 . S
O677 C626 1.325 . S
O678 Li616 1.961 1_545 S
O678 Li618 1.956 . S
O678 Li619 1.970 1_545 S
O678 C648 1.325 . S
O679 Li617 1.961 . S
O679 Li618 1.970 1_565 S
O679 Li619 1.956 . S
O679 C654 1.322 . S
H680 C622 0.929 . S
H681 C623 0.930 1_545 S
H682 C624 0.930 . S
H683 C625 0.930 1_545 S
H684 C627 0.930 . S
H685 C629 0.929 . S
H686 C630 0.930 . S
H687 C631 0.930 . S
H688 C634 0.930 . S
H689 C637 0.929 . S
H690 C642 0.929 . S
H691 C643 0.930 . S
H692 C650 0.929 . S
H693 C651 0.930 . S
H694 C652 0.930 . S
H695 C653 0.930 . S
H696 C655 0.929 . S
H697 C656 0.930 . S
H698 C657 0.930 . S
H699 C658 0.930 . S
H700 C662 0.929 . S
H701 C664 0.930 . S
H702 C670 0.929 . S
H703 C671 0.929 1_545 S
Li704 N721 1.990 . S
Li704 O764 1.956 . S
Li704 O765 1.970 . S
Li704 O766 1.922 1_455 S
Li705 N729 1.990 . S
Li705 O764 1.970 . S
Li705 O765 1.956 . S
Li705 O767 1.961 . S
Li706 N751 1.990 . S
Li706 O764 1.961 1_655 S
Li706 O766 1.957 . S
Li706 O767 1.970 1_655 S
Li707 N757 1.990 . S
Li707 O765 1.961 . S
Li707 O766 1.968 1_455 S
Li707 O767 1.956 . S
C708 C710 1.348 . S
C708 C711 1.356 . S
C708 O764 1.325 . S
N709 C712 1.314 . S
N709 C713 1.279 . S
C710 C708 1.348 . S
C710 C712 1.353 . S
C710 H768 0.929 . S
C711 C708 1.356 . S
C711 C713 1.358 . S
C711 H769 0.930 1_455 S
C712 N709 1.314 . S
C712 C710 1.353 . S
C712 H770 0.930 . S
C713 N709 1.279 . S
C713 C711 1.358 . S
C713 H771 0.930 1_455 S
C714 C717 1.348 . S
C714 C718 1.356 . S
C714 O765 1.325 . S
C715 N716 1.279 . S
C715 C718 1.358 . S
C715 H772 0.930 . S
N716 C715 1.279 . S
N716 C719 1.314 . S
C717 C714 1.348 . S
C717 C719 1.353 . S
C717 H773 0.929 . S
C718 C714 1.356 . S
C718 C715 1.358 . S
C718 H774 0.930 . S
C719 N716 1.314 . S
C719 C717 1.353 . S
C719 H775 0.930 . S
C720 N721 1.314 . S
C720 C725 1.353 . S
C720 H726 0.930 . S
N721 Li704 1.990 . S
N721 C720 1.314 . S
N721 C723 1.279 . S
C722 C723 1.358 . S
C722 C724 1.356 . S
C722 H776 0.930 . S
C723 N721 1.279 . S
C723 C722 1.358 . S
C723 H727 0.930 . S
C724 C722 1.356 . S
C724 C725 1.348 . S
C725 C720 1.353 . S
C725 C724 1.348 . S
C725 H777 0.929 . S
H726 C720 0.930 . S
H727 C723 0.930 . S
C728 N729 1.314 . S
C728 C730 1.353 . S
C728 H734 0.930 . S
N729 Li705 1.990 . S
N729 C728 1.314 . S
N729 C732 1.279 . S
C730 C728 1.353 . S
C730 C733 1.348 . S
C730 H778 0.929 . S
C731 C732 1.358 . S
C731 C733 1.356 . S
C731 H779 0.930 . S
C732 N729 1.279 . S
C732 C731 1.358 . S
C732 H735 0.930 . S
C733 C730 1.348 . S
C733 C731 1.356 . S
H734 C728 0.930 . S
H735 C732 0.930 . S
C736 C738 1.348 . S
C736 C739 1.356 . S
C736 O766 1.348 . S
N737 C740 1.314 . S
N737 C741 1.279 . S
C738 C736 1.348 . S
C738 C740 1.353 . S
C738 H780 0.929 . S
C739 C736 1.356 . S
C739 C741 1.358 . S
C739 H781 0.930 . S
C740 N737 1.314 . S
C740 C738 1.353 . S
C740 H782 0.930 . S
C741 N737 1.279 . S
C741 C739 1.358 . S
C741 H783 0.930 . S
C742 C743 1.348 1_455 S
C742 C744 1.356 . S
C742 O767 1.325 . S
C743 C742 1.348 1_655 S
C743 C745 1.353 . S
C743 H784 0.929 . S
C744 C742 1.356 . S
C744 C746 1.358 . S
C744 H785 0.930 . S
C745 C743 1.353 . S
C745 N747 1.314 . S
C745 H786 0.930 . S
C746 C744 1.358 . S
C746 N747 1.279 1_455 S
C746 H787 0.930 . S
N747 C745 1.314 . S
N747 C746 1.279 1_655 S
C748 C750 1.353 . S
C748 N751 1.314 . S
C748 H754 0.930 . S
C749 N751 1.279 . S
C749 C752 1.358 . S
C749 H755 0.930 . S
C750 C748 1.353 . S
C750 C753 1.348 . S
C750 H788 0.929 . S
N751 Li706 1.990 . S
N751 C748 1.314 . S
N751 C749 1.279 . S
C752 C749 1.358 . S
C752 C753 1.356 . S
C752 H789 0.930 . S
C753 C750 1.348 . S
C753 C752 1.356 . S
H754 C748 0.930 . S
H755 C749 0.930 . S
C756 N757 1.314 . S
C756 C758 1.353 . S
C756 H762 0.930 . S
N757 Li707 1.990 . S
N757 C756 1.314 . S
N757 C760 1.279 . S
C758 C756 1.353 . S
C758 C761 1.348 . S
C758 H790 0.929 . S
C759 C760 1.358 . S
C759 C761 1.356 . S
C759 H791 0.930 1_455 S
C760 N757 1.279 . S
C760 C759 1.358 . S
C760 H763 0.930 1_455 S
C761 C758 1.348 . S
C761 C759 1.356 . S
H762 C756 0.930 . S
H763 C760 0.930 1_655 S
O764 Li704 1.956 . S
O764 Li705 1.970 . S
O764 Li706 1.961 1_455 S
O764 C708 1.325 . S
O765 Li704 1.970 . S
O765 Li705 1.956 . S
O765 Li707 1.961 . S
O765 C714 1.325 . S
O766 Li704 1.922 1_655 S
O766 Li706 1.957 . S
O766 Li707 1.968 1_655 S
O766 C736 1.348 . S
O767 Li705 1.961 . S
O767 Li706 1.970 1_455 S
O767 Li707 1.956 . S
O767 C742 1.325 . S
H768 C710 0.929 . S
H769 C711 0.930 1_655 S
H770 C712 0.930 . S
H771 C713 0.930 1_655 S
H772 C715 0.930 . S
H773 C717 0.929 . S
H774 C718 0.930 . S
H775 C719 0.930 . S
H776 C722 0.930 . S
H777 C725 0.929 . S
H778 C730 0.929 . S
H779 C731 0.930 . S
H780 C738 0.929 . S
H781 C739 0.930 . S
H782 C740 0.930 . S
H783 C741 0.930 . S
H784 C743 0.929 . S
H785 C744 0.930 . S
H786 C745 0.930 . S
H787 C746 0.930 . S
H788 C750 0.929 . S
H789 C752 0.930 . S
H790 C758 0.929 . S
H791 C759 0.930 1_655 S
Li792 N809 1.990 . S
Li792 O852 1.956 1_545 S
Li792 O853 1.970 1_545 S
Li792 O854 1.961 . S
Li793 N817 1.990 . S
Li793 O852 1.970 . S
Li793 O853 1.956 . S
Li793 O855 1.961 . S
Li794 N839 1.990 . S
Li794 O852 1.961 . S
Li794 O854 1.956 1_565 S
Li794 O855 1.970 . S
Li795 N845 1.990 . S
Li795 O853 1.961 . S
Li795 O854 1.970 1_565 S
Li795 O855 1.956 . S
C796 C798 1.348 . S
C796 C799 1.356 . S
C796 O852 1.325 . S
N797 C800 1.314 . S
N797 C801 1.279 . S
C798 C796 1.348 . S
C798 C800 1.353 . S
C798 H856 0.929 . S
C799 C796 1.356 . S
C799 C801 1.358 . S
C799 H857 0.930 . S
C800 N797 1.314 . S
C800 C798 1.353 . S
C800 H858 0.930 . S
C801 N797 1.279 . S
C801 C799 1.358 . S
C801 H859 0.930 . S
C802 C805 1.348 1_565 S
C802 C806 1.356 . S
C802 O853 1.325 . S
C803 N804 1.279 1_565 S
C803 C806 1.358 . S
C803 H860 0.930 . S
N804 C803 1.279 1_545 S
N804 C807 1.314 . S
C805 C802 1.348 1_545 S
C805 C807 1.353 . S
C805 H861 0.929 . S
C806 C802 1.356 . S
C806 C803 1.358 . S
C806 H862 0.930 . S
C807 N804 1.314 . S
C807 C805 1.353 . S
C807 H863 0.930 . S
C808 N809 1.314 . S
C808 C813 1.353 . S
C808 H814 0.930 . S
N809 Li792 1.990 . S
N809 C808 1.314 . S
N809 C811 1.279 . S
C810 C811 1.358 . S
C810 C812 1.356 . S
C810 H864 0.930 . S
C811 N809 1.279 . S
C811 C810 1.358 . S
C811 H815 0.930 . S
C812 C810 1.356 . S
C812 C813 1.348 . S
C813 C808 1.353 . S
C813 C812 1.348 . S
C813 H865 0.929 . S
H814 C808 0.930 . S
H815 C811 0.930 . S
C816 N817 1.314 . S
C816 C818 1.353 . S
C816 H822 0.930 . S
N817 Li793 1.990 . S
N817 C816 1.314 . S
N817 C820 1.279 . S
C818 C816 1.353 . S
C818 C821 1.348 . S
C818 H866 0.929 . S
C819 C820 1.358 . S
C819 C821 1.356 . S
C819 H867 0.930 . S
C820 N817 1.279 . S
C820 C819 1.358 . S
C820 H823 0.930 . S
C821 C818 1.348 . S
C821 C819 1.356 . S
H822 C816 0.930 . S
H823 C820 0.930 . S
C824 C826 1.348 . S
C824 C827 1.356 . S
C824 O854 1.325 . S
N825 C828 1.314 . S
N825 C829 1.279 . S
C826 C824 1.348 . S
C826 C828 1.353 . S
C826 H868 0.929 . S
C827 C824 1.356 . S
C827 C829 1.358 . S
C827 H869 0.930 . S
C828 N825 1.314 . S
C828 C826 1.353 . S
C828 H870 0.930 . S
C829 N825 1.279 . S
C829 C827 1.358 . S
C829 H871 0.930 . S
C830 C831 1.348 . S
C830 C832 1.356 . S
C830 O855 1.325 . S
C831 C830 1.348 . S
C831 C833 1.353 . S
C831 H872 0.929 . S
C832 C830 1.356 . S
C832 C834 1.358 . S
C832 H873 0.930 . S
C833 C831 1.353 . S
C833 N835 1.314 . S
C833 H874 0.930 . S
C834 C832 1.358 . S
C834 N835 1.279 . S
C834 H875 0.930 . S
N835 C833 1.314 . S
N835 C834 1.279 . S
C836 C838 1.353 . S
C836 N839 1.314 . S
C836 H842 0.930 . S
C837 N839 1.279 . S
C837 C840 1.358 . S
C837 H843 0.930 . S
C838 C836 1.353 . S
C838 C841 1.348 . S
C838 H876 0.929 . S
N839 Li794 1.990 . S
N839 C836 1.314 . S
N839 C837 1.279 . S
C840 C837 1.358 . S
C840 C841 1.356 . S
C840 H877 0.930 . S
C841 C838 1.348 . S
C841 C840 1.356 . S
H842 C836 0.930 . S
H843 C837 0.930 . S
C844 N845 1.314 1_545 S
C844 C846 1.353 . S
C844 H850 0.930 . S
N845 Li795 1.990 . S
N845 C844 1.314 1_565 S
N845 C848 1.279 . S
C846 C844 1.353 . S
C846 C849 1.348 1_545 S
C846 H878 0.929 . S
C847 C848 1.358 . S
C847 C849 1.356 . S
C847 H879 0.930 . S
C848 N845 1.279 . S
C848 C847 1.358 . S
C848 H851 0.930 . S
C849 C846 1.348 1_565 S
C849 C847 1.356 . S
H850 C844 0.930 . S
H851 C848 0.930 . S
O852 Li792 1.956 1_565 S
O852 Li793 1.970 . S
O852 Li794 1.961 . S
O852 C796 1.325 . S
O853 Li792 1.970 1_565 S
O853 Li793 1.956 . S
O853 Li795 1.961 . S
O853 C802 1.325 . S
O854 Li792 1.961 . S
O854 Li794 1.956 1_545 S
O854 Li795 1.970 1_545 S
O854 C824 1.325 . S
O855 Li793 1.961 . S
O855 Li794 1.970 . S
O855 Li795 1.956 . S
O855 C830 1.325 . S
H856 C798 0.929 . S
H857 C799 0.930 . S
H858 C800 0.930 . S
H859 C801 0.930 . S
H860 C803 0.930 . S
H861 C805 0.929 . S
H862 C806 0.930 . S
H863 C807 0.930 . S
H864 C810 0.930 . S
H865 C813 0.929 . S
H866 C818 0.929 . S
H867 C819 0.930 . S
H868 C826 0.929 . S
H869 C827 0.930 . S
H870 C828 0.930 . S
H871 C829 0.930 . S
H872 C831 0.929 . S
H873 C832 0.930 . S
H874 C833 0.930 . S
H875 C834 0.930 . S
H876 C838 0.929 . S
H877 C840 0.930 . S
H878 C846 0.929 . S
H879 C847 0.930 . S
Li880 N897 1.990 . S
Li880 O940 1.956 . S
Li880 O941 1.970 . S
Li880 O942 1.961 . S
Li881 N905 1.990 . S
Li881 O940 1.970 1_655 S
Li881 O941 1.956 1_655 S
Li881 O943 1.961 . S
Li882 N927 1.990 . S
Li882 O940 1.961 . S
Li882 O942 1.956 . S
Li882 O943 1.970 1_455 S
Li883 N933 1.990 . S
Li883 O941 1.961 . S
Li883 O942 1.970 . S
Li883 O943 1.956 1_455 S
C884 C886 1.348 1_455 S
C884 C887 1.356 . S
C884 O940 1.325 . S
N885 C888 1.314 . S
N885 C889 1.279 1_655 S
C886 C884 1.348 1_655 S
C886 C888 1.353 . S
C886 H944 0.929 . S
C887 C884 1.356 . S
C887 C889 1.358 . S
C887 H945 0.930 . S
C888 N885 1.314 . S
C888 C886 1.353 . S
C888 H946 0.930 . S
C889 N885 1.279 1_455 S
C889 C887 1.358 . S
C889 H947 0.930 . S
C890 C893 1.348 . S
C890 C894 1.356 . S
C890 O941 1.325 . S
C891 N892 1.279 . S
C891 C894 1.358 . S
C891 H948 0.930 . S
N892 C891 1.279 . S
N892 C895 1.314 . S
C893 C890 1.348 . S
C893 C895 1.353 . S
C893 H949 0.929 . S
C894 C890 1.356 . S
C894 C891 1.358 . S
C894 H950 0.930 . S
C895 N892 1.314 . S
C895 C893 1.353 . S
C895 H951 0.930 . S
C896 N897 1.314 . S
C896 C901 1.353 . S
C896 H902 0.930 . S
N897 Li880 1.990 . S
N897 C896 1.314 . S
N897 C899 1.279 . S
C898 C899 1.358 . S
C898 C900 1.356 . S
C898 H952 0.930 . S
C899 N897 1.279 . S
C899 C898 1.358 . S
C899 H903 0.930 . S
C900 C898 1.356 . S
C900 C901 1.348 . S
C901 C896 1.353 . S
C901 C900 1.348 . S
C901 H953 0.929 . S
H902 C896 0.930 . S
H903 C899 0.930 . S
C904 N905 1.314 . S
C904 C906 1.353 . S
C904 H910 0.930 . S
N905 Li881 1.990 . S
N905 C904 1.314 . S
N905 C908 1.279 . S
C906 C904 1.353 . S
C906 C909 1.348 . S
C906 H954 0.929 . S
C907 C908 1.358 . S
C907 C909 1.356 . S
C907 H955 0.930 . S
C908 N905 1.279 . S
C908 C907 1.358 . S
C908 H911 0.930 . S
C909 C906 1.348 . S
C909 C907 1.356 . S
H910 C904 0.930 . S
H911 C908 0.930 . S
C912 C914 1.348 . S
C912 C915 1.356 . S
C912 O942 1.325 . S
N913 C916 1.314 . S
N913 C917 1.279 . S
C914 C912 1.348 . S
C914 C916 1.353 . S
C914 H956 0.929 . S
C915 C912 1.356 . S
C915 C917 1.358 . S
C915 H957 0.930 . S
C916 N913 1.314 . S
C916 C914 1.353 . S
C916 H958 0.930 . S
C917 N913 1.279 . S
C917 C915 1.358 . S
C917 H959 0.930 . S
C918 C919 1.348 . S
C918 C920 1.356 . S
C918 O943 1.325 . S
C919 C918 1.348 . S
C919 C921 1.353 . S
C919 H960 0.929 . S
C920 C918 1.356 . S
C920 C922 1.358 . S
C920 H961 0.930 . S
C921 C919 1.353 . S
C921 N923 1.314 . S
C921 H962 0.930 . S
C922 C920 1.358 . S
C922 N923 1.279 . S
C922 H963 0.930 . S
N923 C921 1.314 . S
N923 C922 1.279 . S
C924 C926 1.353 . S
C924 N927 1.314 1_655 S
C924 H930 0.930 . S
C925 N927 1.279 . S
C925 C928 1.358 . S
C925 H931 0.930 . S
C926 C924 1.353 . S
C926 C929 1.348 1_655 S
C926 H964 0.929 . S
N927 Li882 1.990 . S
N927 C924 1.314 1_455 S
N927 C925 1.279 . S
C928 C925 1.358 . S
C928 C929 1.356 . S
C928 H965 0.930 . S
C929 C926 1.348 1_455 S
C929 C928 1.356 . S
H930 C924 0.930 . S
H931 C925 0.930 . S
C932 N933 1.314 . S
C932 C934 1.353 . S
C932 H938 0.930 . S
N933 Li883 1.990 . S
N933 C932 1.314 . S
N933 C936 1.279 . S
C934 C932 1.353 . S
C934 C937 1.348 . S
C934 H966 0.929 . S
C935 C936 1.358 . S
C935 C937 1.356 . S
C935 H967 0.930 . S
C936 N933 1.279 . S
C936 C935 1.358 . S
C936 H939 0.930 . S
C937 C934 1.348 . S
C937 C935 1.356 . S
H938 C932 0.930 . S
H939 C936 0.930 . S
O940 Li880 1.956 . S
O940 Li881 1.970 1_455 S
O940 Li882 1.961 . S
O940 C884 1.325 . S
O941 Li880 1.970 . S
O941 Li881 1.956 1_455 S
O941 Li883 1.961 . S
O941 C890 1.325 . S
O942 Li880 1.961 . S
O942 Li882 1.956 . S
O942 Li883 1.970 . S
O942 C912 1.325 . S
O943 Li881 1.961 . S
O943 Li882 1.970 1_655 S
O943 Li883 1.956 1_655 S
O943 C918 1.325 . S
H944 C886 0.929 . S
H945 C887 0.930 . S
H946 C888 0.930 . S
H947 C889 0.930 . S
H948 C891 0.930 . S
H949 C893 0.929 . S
H950 C894 0.930 . S
H951 C895 0.930 . S
H952 C898 0.930 . S
H953 C901 0.929 . S
H954 C906 0.929 . S
H955 C907 0.930 . S
H956 C914 0.929 . S
H957 C915 0.930 . S
H958 C916 0.930 . S
H959 C917 0.930 . S
H960 C919 0.929 . S
H961 C920 0.930 . S
H962 C921 0.930 . S
H963 C922 0.930 . S
H964 C926 0.929 . S
H965 C928 0.930 . S
H966 C934 0.929 . S
H967 C935 0.930 . S
Li968 N985 1.990 . S
Li968 O1028 1.956 . S
Li968 O1029 1.970 . S
Li968 O1030 1.961 . S
Li969 N993 1.990 . S
Li969 O1028 1.970 . S
Li969 O1029 1.956 . S
Li969 O1031 1.961 . S
Li970 N1015 1.990 . S
Li970 O1028 1.961 . S
Li970 O1030 1.956 . S
Li970 O1031 1.970 . S
Li971 N1021 1.990 . S
Li971 O1029 1.961 . S
Li971 O1030 1.970 . S
Li971 O1031 1.956 . S
C972 C974 1.348 . S
C972 C975 1.356 . S
C972 O1028 1.325 . S
N973 C976 1.314 . S
N973 C977 1.279 . S
C974 C972 1.348 . S
C974 C976 1.353 . S
C974 H1032 0.929 . S
C975 C972 1.356 . S
C975 C977 1.358 . S
C975 H1033 0.930 . S
C976 N973 1.314 . S
C976 C974 1.353 . S
C976 H1034 0.930 . S
C977 N973 1.279 . S
C977 C975 1.358 . S
C977 H1035 0.930 . S
C978 C981 1.348 . S
C978 C982 1.356 . S
C978 O1029 1.325 . S
C979 N980 1.279 . S
C979 C982 1.358 . S
C979 H1036 0.930 . S
N980 C979 1.279 . S
N980 C983 1.314 . S
C981 C978 1.348 . S
C981 C983 1.353 . S
C981 H1037 0.929 . S
C982 C978 1.356 . S
C982 C979 1.358 . S
C982 H1038 0.930 . S
C983 N980 1.314 . S
C983 C981 1.353 . S
C983 H1039 0.930 . S
C984 N985 1.314 . S
C984 C989 1.353 . S
C984 H990 0.930 . S
N985 Li968 1.990 . S
N985 C984 1.314 . S
N985 C987 1.279 . S
C986 C987 1.358 . S
C986 C988 1.356 . S
C986 H1040 0.930 . S
C987 N985 1.279 . S
C987 C986 1.358 . S
C987 H991 0.930 . S
C988 C986 1.356 . S
C988 C989 1.348 . S
C989 C984 1.353 . S
C989 C988 1.348 . S
C989 H1041 0.929 . S
H990 C984 0.930 . S
H991 C987 0.930 . S
C992 N993 1.314 . S
C992 C994 1.353 . S
C992 H998 0.930 . S
N993 Li969 1.990 . S
N993 C992 1.314 . S
N993 C996 1.279 . S
C994 C992 1.353 . S
C994 C997 1.348 . S
C994 H1042 0.929 . S
C995 C996 1.358 . S
C995 C997 1.356 . S
C995 H1043 0.930 . S
C996 N993 1.279 . S
C996 C995 1.358 . S
C996 H999 0.930 . S
C997 C994 1.348 . S
C997 C995 1.356 . S
H998 C992 0.930 . S
H999 C996 0.930 . S
C1000 C1002 1.348 . S
C1000 C1003 1.356 . S
C1000 O1030 1.325 . S
N1001 C1004 1.314 . S
N1001 C1005 1.279 . S
C1002 C1000 1.348 . S
C1002 C1004 1.353 . S
C1002 H1044 0.929 . S
C1003 C1000 1.356 . S
C1003 C1005 1.358 . S
C1003 H1045 0.930 . S
C1004 N1001 1.314 . S
C1004 C1002 1.353 . S
C1004 H1046 0.930 . S
C1005 N1001 1.279 . S
C1005 C1003 1.358 . S
C1005 H1047 0.930 . S
C1006 C1007 1.348 . S
C1006 C1008 1.356 . S
C1006 O1031 1.325 . S
C1007 C1006 1.348 . S
C1007 C1009 1.353 . S
C1007 H1048 0.929 . S
C1008 C1006 1.356 . S
C1008 C1010 1.358 . S
C1008 H1049 0.930 . S
C1009 C1007 1.353 . S
C1009 N1011 1.314 . S
C1009 H1050 0.930 . S
C1010 C1008 1.358 . S
C1010 N1011 1.279 . S
C1010 H1051 0.930 . S
N1011 C1009 1.314 . S
N1011 C1010 1.279 . S
C1012 C1014 1.353 . S
C1012 N1015 1.314 . S
C1012 H1018 0.930 . S
C1013 N1015 1.279 . S
C1013 C1016 1.358 . S
C1013 H1019 0.930 . S
C1014 C1012 1.353 . S
C1014 C1017 1.348 . S
C1014 H1052 0.929 . S
N1015 Li970 1.990 . S
N1015 C1012 1.314 . S
N1015 C1013 1.279 . S
C1016 C1013 1.358 . S
C1016 C1017 1.356 . S
C1016 H1053 0.930 . S
C1017 C1014 1.348 . S
C1017 C1016 1.356 . S
H1018 C1012 0.930 . S
H1019 C1013 0.930 . S
C1020 N1021 1.314 . S
C1020 C1022 1.353 . S
C1020 H1026 0.930 . S
N1021 Li971 1.990 . S
N1021 C1020 1.314 . S
N1021 C1024 1.279 . S
C1022 C1020 1.353 . S
C1022 C1025 1.348 . S
C1022 H1054 0.929 . S
C1023 C1024 1.358 . S
C1023 C1025 1.356 . S
C1023 H1055 0.930 . S
C1024 N1021 1.279 . S
C1024 C1023 1.358 . S
C1024 H1027 0.930 . S
C1025 C1022 1.348 . S
C1025 C1023 1.356 . S
H1026 C1020 0.930 . S
H1027 C1024 0.930 . S
O1028 Li968 1.956 . S
O1028 Li969 1.970 . S
O1028 Li970 1.961 . S
O1028 C972 1.325 . S
O1029 Li968 1.970 . S
O1029 Li969 1.956 . S
O1029 Li971 1.961 . S
O1029 C978 1.325 . S
O1030 Li968 1.961 . S
O1030 Li970 1.956 . S
O1030 Li971 1.970 . S
O1030 C1000 1.325 . S
O1031 Li969 1.961 . S
O1031 Li970 1.970 . S
O1031 Li971 1.956 . S
O1031 C1006 1.325 . S
H1032 C974 0.929 . S
H1033 C975 0.930 . S
H1034 C976 0.930 . S
H1035 C977 0.930 . S
H1036 C979 0.930 . S
H1037 C981 0.929 . S
H1038 C982 0.930 . S
H1039 C983 0.930 . S
H1040 C986 0.930 . S
H1041 C989 0.929 . S
H1042 C994 0.929 . S
H1043 C995 0.930 . S
H1044 C1002 0.929 . S
H1045 C1003 0.930 . S
H1046 C1004 0.930 . S
H1047 C1005 0.930 . S
H1048 C1007 0.929 . S
H1049 C1008 0.930 . S
H1050 C1009 0.930 . S
H1051 C1010 0.930 . S
H1052 C1014 0.929 . S
H1053 C1016 0.930 . S
H1054 C1022 0.929 . S
H1055 C1023 0.930 . S
Li1056 N1073 1.990 . S
Li1056 O1116 1.957 . S
Li1056 O1117 1.970 1_565 S
Li1056 O1118 1.961 1_565 S
Li1057 N1081 1.990 . S
Li1057 O1116 1.968 1_545 S
Li1057 O1117 1.956 . S
Li1057 O1119 1.961 . S
Li1058 N1103 1.990 . S
Li1058 O1116 1.923 1_545 S
Li1058 O1118 1.956 . S
Li1058 O1119 1.970 . S
Li1059 N1109 1.990 . S
Li1059 O1117 1.961 . S
Li1059 O1118 1.970 . S
Li1059 O1119 1.956 . S
C1060 C1062 1.348 . S
C1060 C1063 1.356 . S
C1060 O1116 1.348 . S
N1061 C1064 1.314 . S
N1061 C1065 1.279 . S
C1062 C1060 1.348 . S
C1062 C1064 1.353 . S
C1062 H1120 0.929 . S
C1063 C1060 1.356 . S
C1063 C1065 1.358 . S
C1063 H1121 0.930 . S
C1064 N1061 1.314 . S
C1064 C1062 1.353 . S
C1064 H1122 0.930 . S
C1065 N1061 1.279 . S
C1065 C1063 1.358 . S
C1065 H1123 0.930 . S
C1066 C1069 1.348 1_545 S
C1066 C1070 1.356 . S
C1066 O1117 1.325 . S
C1067 N1068 1.279 1_545 S
C1067 C1070 1.358 . S
C1067 H1124 0.930 . S
N1068 C1067 1.279 1_565 S
N1068 C1071 1.314 . S
C1069 C1066 1.348 1_565 S
C1069 C1071 1.353 . S
C1069 H1125 0.929 . S
C1070 C1066 1.356 . S
C1070 C1067 1.358 . S
C1070 H1126 0.930 . S
C1071 N1068 1.314 . S
C1071 C1069 1.353 . S
C1071 H1127 0.930 . S
C1072 N1073 1.314 . S
C1072 C1077 1.353 . S
C1072 H1078 0.930 . S
N1073 Li1056 1.990 . S
N1073 C1072 1.314 . S
N1073 C1075 1.279 . S
C1074 C1075 1.358 . S
C1074 C1076 1.356 . S
C1074 H1128 0.930 . S
C1075 N1073 1.279 . S
C1075 C1074 1.358 . S
C1075 H1079 0.930 . S
C1076 C1074 1.356 . S
C1076 C1077 1.348 . S
C1077 C1072 1.353 . S
C1077 C1076 1.348 . S
C1077 H1129 0.929 . S
H1078 C1072 0.930 . S
H1079 C1075 0.930 . S
C1080 N1081 1.314 . S
C1080 C1082 1.353 . S
C1080 H1086 0.930 . S
N1081 Li1057 1.990 . S
N1081 C1080 1.314 . S
N1081 C1084 1.279 . S
C1082 C1080 1.353 . S
C1082 C1085 1.348 . S
C1082 H1130 0.929 . S
C1083 C1084 1.358 . S
C1083 C1085 1.356 . S
C1083 H1131 0.930 1_545 S
C1084 N1081 1.279 . S
C1084 C1083 1.358 . S
C1084 H1087 0.930 1_545 S
C1085 C1082 1.348 . S
C1085 C1083 1.356 . S
H1086 C1080 0.930 . S
H1087 C1084 0.930 1_565 S
C1088 C1090 1.348 . S
C1088 C1091 1.356 . S
C1088 O1118 1.325 . S
N1089 C1092 1.314 . S
N1089 C1093 1.279 . S
C1090 C1088 1.348 . S
C1090 C1092 1.353 . S
C1090 H1132 0.929 . S
C1091 C1088 1.356 . S
C1091 C1093 1.358 . S
C1091 H1133 0.930 1_545 S
C1092 N1089 1.314 . S
C1092 C1090 1.353 . S
C1092 H1134 0.930 . S
C1093 N1089 1.279 . S
C1093 C1091 1.358 . S
C1093 H1135 0.930 1_545 S
C1094 C1095 1.348 . S
C1094 C1096 1.356 . S
C1094 O1119 1.325 . S
C1095 C1094 1.348 . S
C1095 C1097 1.353 . S
C1095 H1136 0.929 . S
C1096 C1094 1.356 . S
C1096 C1098 1.358 . S
C1096 H1137 0.930 . S
C1097 C1095 1.353 . S
C1097 N1099 1.314 . S
C1097 H1138 0.930 . S
C1098 C1096 1.358 . S
C1098 N1099 1.279 . S
C1098 H1139 0.930 . S
N1099 C1097 1.314 . S
N1099 C1098 1.279 . S
C1100 C1102 1.353 . S
C1100 N1103 1.314 . S
C1100 H1106 0.930 . S
C1101 N1103 1.279 . S
C1101 C1104 1.358 . S
C1101 H1107 0.930 . S
C1102 C1100 1.353 . S
C1102 C1105 1.348 . S
C1102 H1140 0.929 . S
N1103 Li1058 1.990 . S
N1103 C1100 1.314 . S
N1103 C1101 1.279 . S
C1104 C1101 1.358 . S
C1104 C1105 1.356 . S
C1104 H1141 0.930 . S
C1105 C1102 1.348 . S
C1105 C1104 1.356 . S
H1106 C1100 0.930 . S
H1107 C1101 0.930 . S
C1108 N1109 1.314 . S
C1108 C1110 1.353 . S
C1108 H1114 0.930 . S
N1109 Li1059 1.990 . S
N1109 C1108 1.314 . S
N1109 C1112 1.279 . S
C1110 C1108 1.353 . S
C1110 C1113 1.348 . S
C1110 H1142 0.929 . S
C1111 C1112 1.358 . S
C1111 C1113 1.356 . S
C1111 H1143 0.930 . S
C1112 N1109 1.279 . S
C1112 C1111 1.358 . S
C1112 H1115 0.930 . S
C1113 C1110 1.348 . S
C1113 C1111 1.356 . S
H1114 C1108 0.930 . S
H1115 C1112 0.930 . S
O1116 Li1056 1.957 . S
O1116 Li1057 1.968 1_565 S
O1116 Li1058 1.923 1_565 S
O1116 C1060 1.348 . S
O1117 Li1056 1.970 1_545 S
O1117 Li1057 1.956 . S
O1117 Li1059 1.961 . S
O1117 C1066 1.325 . S
O1118 Li1056 1.961 1_545 S
O1118 Li1058 1.956 . S
O1118 Li1059 1.970 . S
O1118 C1088 1.325 . S
O1119 Li1057 1.961 . S
O1119 Li1058 1.970 . S
O1119 Li1059 1.956 . S
O1119 C1094 1.325 . S
H1120 C1062 0.929 . S
H1121 C1063 0.930 . S
H1122 C1064 0.930 . S
H1123 C1065 0.930 . S
H1124 C1067 0.930 . S
H1125 C1069 0.929 . S
H1126 C1070 0.930 . S
H1127 C1071 0.930 . S
H1128 C1074 0.930 . S
H1129 C1077 0.929 . S
H1130 C1082 0.929 . S
H1131 C1083 0.930 1_565 S
H1132 C1090 0.929 . S
H1133 C1091 0.930 1_565 S
H1134 C1092 0.930 . S
H1135 C1093 0.930 1_565 S
H1136 C1095 0.929 . S
H1137 C1096 0.930 . S
H1138 C1097 0.930 . S
H1139 C1098 0.930 . S
H1140 C1102 0.929 . S
H1141 C1104 0.930 . S
H1142 C1110 0.929 . S
H1143 C1111 0.930 . S
Li1144 N1161 1.990 . S
Li1144 O1204 1.956 . S
Li1144 O1205 1.970 1_455 S
Li1144 O1206 1.961 1_455 S
Li1145 N1169 1.990 . S
Li1145 O1204 1.970 1_655 S
Li1145 O1205 1.956 . S
Li1145 O1207 1.961 . S
Li1146 N1191 1.990 . S
Li1146 O1204 1.961 1_655 S
Li1146 O1206 1.956 . S
Li1146 O1207 1.970 . S
Li1147 N1197 1.990 . S
Li1147 O1205 1.961 . S
Li1147 O1206 1.970 . S
Li1147 O1207 1.956 . S
C1148 C1150 1.348 . S
C1148 C1151 1.356 . S
C1148 O1204 1.325 . S
N1149 C1152 1.314 . S
N1149 C1153 1.279 . S
C1150 C1148 1.348 . S
C1150 C1152 1.353 . S
C1150 H1208 0.929 . S
C1151 C1148 1.356 . S
C1151 C1153 1.358 . S
C1151 H1209 0.930 . S
C1152 N1149 1.314 . S
C1152 C1150 1.353 . S
C1152 H1210 0.930 . S
C1153 N1149 1.279 . S
C1153 C1151 1.358 . S
C1153 H1211 0.930 . S
C1154 C1157 1.318 1_655 S
C1154 C1158 1.390 . S
C1154 O1205 1.322 . S
C1155 N1156 1.279 1_655 S
C1155 C1158 1.358 . S
C1155 H1212 0.930 . S
N1156 C1155 1.279 1_455 S
N1156 C1159 1.314 . S
C1157 C1154 1.318 1_455 S
C1157 C1159 1.353 . S
C1157 H1213 0.929 . S
C1158 C1154 1.390 . S
C1158 C1155 1.358 . S
C1158 H1214 0.930 . S
C1159 N1156 1.314 . S
C1159 C1157 1.353 . S
C1159 H1215 0.930 . S
C1160 N1161 1.314 . S
C1160 C1165 1.353 . S
C1160 H1166 0.930 . S
N1161 Li1144 1.990 . S
N1161 C1160 1.314 . S
N1161 C1163 1.279 . S
C1162 C1163 1.358 . S
C1162 C1164 1.356 . S
C1162 H1216 0.930 . S
C1163 N1161 1.279 . S
C1163 C1162 1.358 . S
C1163 H1167 0.930 . S
C1164 C1162 1.356 . S
C1164 C1165 1.348 . S
C1165 C1160 1.353 . S
C1165 C1164 1.348 . S
C1165 H1217 0.929 . S
H1166 C1160 0.930 . S
H1167 C1163 0.930 . S
C1168 N1169 1.314 . S
C1168 C1170 1.353 . S
C1168 H1174 0.930 . S
N1169 Li1145 1.990 . S
N1169 C1168 1.314 . S
N1169 C1172 1.279 . S
C1170 C1168 1.353 . S
C1170 C1173 1.348 . S
C1170 H1218 0.929 . S
C1171 C1172 1.358 . S
C1171 C1173 1.357 . S
C1171 H1219 0.929 1_655 S
C1172 N1169 1.279 . S
C1172 C1171 1.358 . S
C1172 H1175 0.930 1_655 S
C1173 C1170 1.348 . S
C1173 C1171 1.357 . S
H1174 C1168 0.930 . S
H1175 C1172 0.930 1_455 S
C1176 C1178 1.348 . S
C1176 C1179 1.356 . S
C1176 O1206 1.325 . S
N1177 C1180 1.314 . S
N1177 C1181 1.279 . S
C1178 C1176 1.348 . S
C1178 C1180 1.353 . S
C1178 H1220 0.929 . S
C1179 C1176 1.356 . S
C1179 C1181 1.358 . S
C1179 H1221 0.930 1_655 S
C1180 N1177 1.314 . S
C1180 C1178 1.353 . S
C1180 H1222 0.930 . S
C1181 N1177 1.279 . S
C1181 C1179 1.358 . S
C1181 H1223 0.930 1_655 S
C1182 C1183 1.348 . S
C1182 C1184 1.356 . S
C1182 O1207 1.325 . S
C1183 C1182 1.348 . S
C1183 C1185 1.353 . S
C1183 H1224 0.929 . S
C1184 C1182 1.356 . S
C1184 C1186 1.358 . S
C1184 H1225 0.930 . S
C1185 C1183 1.353 . S
C1185 N1187 1.314 . S
C1185 H1226 0.930 . S
C1186 C1184 1.358 . S
C1186 N1187 1.279 . S
C1186 H1227 0.930 . S
N1187 C1185 1.314 . S
N1187 C1186 1.279 . S
C1188 C1190 1.353 . S
C1188 N1191 1.314 . S
C1188 H1194 0.930 . S
C1189 N1191 1.279 . S
C1189 C1192 1.358 . S
C1189 H1195 0.930 . S
C1190 C1188 1.353 . S
C1190 C1193 1.348 . S
C1190 H1228 0.929 . S
N1191 Li1146 1.990 . S
N1191 C1188 1.314 . S
N1191 C1189 1.279 . S
C1192 C1189 1.358 . S
C1192 C1193 1.356 . S
C1192 H1229 0.930 . S
C1193 C1190 1.348 . S
C1193 C1192 1.356 . S
H1194 C1188 0.930 . S
H1195 C1189 0.930 . S
C1196 N1197 1.314 . S
C1196 C1198 1.353 . S
C1196 H1202 0.930 . S
N1197 Li1147 1.990 . S
N1197 C1196 1.314 . S
N1197 C1200 1.279 . S
C1198 C1196 1.353 . S
C1198 C1201 1.348 . S
C1198 H1230 0.929 . S
C1199 C1200 1.358 . S
C1199 C1201 1.356 . S
C1199 H1231 0.930 . S
C1200 N1197 1.279 . S
C1200 C1199 1.358 . S
C1200 H1203 0.930 . S
C1201 C1198 1.348 . S
C1201 C1199 1.356 . S
H1202 C1196 0.930 . S
H1203 C1200 0.930 . S
O1204 Li1144 1.956 . S
O1204 Li1145 1.970 1_455 S
O1204 Li1146 1.961 1_455 S
O1204 C1148 1.325 . S
O1205 Li1144 1.970 1_655 S
O1205 Li1145 1.956 . S
O1205 Li1147 1.961 . S
O1205 C1154 1.322 . S
O1206 Li1144 1.961 1_655 S
O1206 Li1146 1.956 . S
O1206 Li1147 1.970 . S
O1206 C1176 1.325 . S
O1207 Li1145 1.961 . S
O1207 Li1146 1.970 . S
O1207 Li1147 1.956 . S
O1207 C1182 1.325 . S
H1208 C1150 0.929 . S
H1209 C1151 0.930 . S
H1210 C1152 0.930 . S
H1211 C1153 0.930 . S
H1212 C1155 0.930 . S
H1213 C1157 0.929 . S
H1214 C1158 0.930 . S
H1215 C1159 0.930 . S
H1216 C1162 0.930 . S
H1217 C1165 0.929 . S
H1218 C1170 0.929 . S
H1219 C1171 0.929 1_455 S
H1220 C1178 0.929 . S
H1221 C1179 0.930 1_455 S
H1222 C1180 0.930 . S
H1223 C1181 0.930 1_455 S
H1224 C1183 0.929 . S
H1225 C1184 0.930 . S
H1226 C1185 0.930 . S
H1227 C1186 0.930 . S
H1228 C1190 0.929 . S
H1229 C1192 0.930 . S
H1230 C1198 0.929 . S
H1231 C1199 0.930 . S
Li1232 N1249 1.990 . S
Li1232 O1292 1.956 . S
Li1232 O1293 1.970 . S
Li1232 O1294 1.961 . S
Li1233 N1257 1.990 . S
Li1233 O1292 1.970 . S
Li1233 O1293 1.956 . S
Li1233 O1295 1.961 . S
Li1234 N1279 1.990 . S
Li1234 O1292 1.961 . S
Li1234 O1294 1.956 . S
Li1234 O1295 1.970 . S
Li1235 N1285 1.990 . S
Li1235 O1293 1.961 . S
Li1235 O1294 1.970 . S
Li1235 O1295 1.956 . S
C1236 C1238 1.348 . S
C1236 C1239 1.356 . S
C1236 O1292 1.325 . S
N1237 C1240 1.314 . S
N1237 C1241 1.279 . S
C1238 C1236 1.348 . S
C1238 C1240 1.353 . S
C1238 H1296 0.929 . S
C1239 C1236 1.356 . S
C1239 C1241 1.358 . S
C1239 H1297 0.930 . S
C1240 N1237 1.314 . S
C1240 C1238 1.353 . S
C1240 H1298 0.930 . S
C1241 N1237 1.279 . S
C1241 C1239 1.358 . S
C1241 H1299 0.930 . S
C1242 C1245 1.348 . S
C1242 C1246 1.356 . S
C1242 O1293 1.325 . S
C1243 N1244 1.279 . S
C1243 C1246 1.358 . S
C1243 H1300 0.930 . S
N1244 C1243 1.279 . S
N1244 C1247 1.314 . S
C1245 C1242 1.348 . S
C1245 C1247 1.353 . S
C1245 H1301 0.929 . S
C1246 C1242 1.356 . S
C1246 C1243 1.358 . S
C1246 H1302 0.930 . S
C1247 N1244 1.314 . S
C1247 C1245 1.353 . S
C1247 H1303 0.930 . S
C1248 N1249 1.314 . S
C1248 C1253 1.353 . S
C1248 H1254 0.930 . S
N1249 Li1232 1.990 . S
N1249 C1248 1.314 . S
N1249 C1251 1.279 . S
C1250 C1251 1.358 . S
C1250 C1252 1.356 . S
C1250 H1304 0.930 . S
C1251 N1249 1.279 . S
C1251 C1250 1.358 . S
C1251 H1255 0.930 . S
C1252 C1250 1.356 . S
C1252 C1253 1.348 . S
C1253 C1248 1.353 . S
C1253 C1252 1.348 . S
C1253 H1305 0.929 . S
H1254 C1248 0.930 . S
H1255 C1251 0.930 . S
C1256 N1257 1.314 . S
C1256 C1258 1.353 . S
C1256 H1262 0.930 . S
N1257 Li1233 1.990 . S
N1257 C1256 1.314 . S
N1257 C1260 1.279 . S
C1258 C1256 1.353 . S
C1258 C1261 1.348 . S
C1258 H1306 0.929 . S
C1259 C1260 1.358 . S
C1259 C1261 1.356 . S
C1259 H1307 0.930 . S
C1260 N1257 1.279 . S
C1260 C1259 1.358 . S
C1260 H1263 0.930 . S
C1261 C1258 1.348 . S
C1261 C1259 1.356 . S
H1262 C1256 0.930 . S
H1263 C1260 0.930 . S
C1264 C1266 1.348 . S
C1264 C1267 1.356 . S
C1264 O1294 1.325 . S
N1265 C1268 1.314 . S
N1265 C1269 1.279 . S
C1266 C1264 1.348 . S
C1266 C1268 1.353 . S
C1266 H1308 0.929 . S
C1267 C1264 1.356 . S
C1267 C1269 1.358 . S
C1267 H1309 0.930 . S
C1268 N1265 1.314 . S
C1268 C1266 1.353 . S
C1268 H1310 0.930 . S
C1269 N1265 1.279 . S
C1269 C1267 1.358 . S
C1269 H1311 0.930 . S
C1270 C1271 1.348 . S
C1270 C1272 1.356 . S
C1270 O1295 1.325 . S
C1271 C1270 1.348 . S
C1271 C1273 1.353 . S
C1271 H1312 0.929 . S
C1272 C1270 1.356 . S
C1272 C1274 1.358 . S
C1272 H1313 0.930 . S
C1273 C1271 1.353 . S
C1273 N1275 1.314 . S
C1273 H1314 0.930 . S
C1274 C1272 1.358 . S
C1274 N1275 1.279 . S
C1274 H1315 0.930 . S
N1275 C1273 1.314 . S
N1275 C1274 1.279 . S
C1276 C1278 1.353 . S
C1276 N1279 1.314 . S
C1276 H1282 0.930 . S
C1277 N1279 1.279 . S
C1277 C1280 1.358 . S
C1277 H1283 0.930 . S
C1278 C1276 1.353 . S
C1278 C1281 1.348 . S
C1278 H1316 0.929 . S
N1279 Li1234 1.990 . S
N1279 C1276 1.314 . S
N1279 C1277 1.279 . S
C1280 C1277 1.358 . S
C1280 C1281 1.356 . S
C1280 H1317 0.930 . S
C1281 C1278 1.348 . S
C1281 C1280 1.356 . S
H1282 C1276 0.930 . S
H1283 C1277 0.930 . S
C1284 N1285 1.314 . S
C1284 C1286 1.353 . S
C1284 H1290 0.930 . S
N1285 Li1235 1.990 . S
N1285 C1284 1.314 . S
N1285 C1288 1.279 . S
C1286 C1284 1.353 . S
C1286 C1289 1.348 . S
C1286 H1318 0.929 . S
C1287 C1288 1.358 . S
C1287 C1289 1.356 . S
C1287 H1319 0.930 . S
C1288 N1285 1.279 . S
C1288 C1287 1.358 . S
C1288 H1291 0.930 . S
C1289 C1286 1.348 . S
C1289 C1287 1.356 . S
H1290 C1284 0.930 . S
H1291 C1288 0.930 . S
O1292 Li1232 1.956 . S
O1292 Li1233 1.970 . S
O1292 Li1234 1.961 . S
O1292 C1236 1.325 . S
O1293 Li1232 1.970 . S
O1293 Li1233 1.956 . S
O1293 Li1235 1.961 . S
O1293 C1242 1.325 . S
O1294 Li1232 1.961 . S
O1294 Li1234 1.956 . S
O1294 Li1235 1.970 . S
O1294 C1264 1.325 . S
O1295 Li1233 1.961 . S
O1295 Li1234 1.970 . S
O1295 Li1235 1.956 . S
O1295 C1270 1.325 . S
H1296 C1238 0.929 . S
H1297 C1239 0.930 . S
H1298 C1240 0.930 . S
H1299 C1241 0.930 . S
H1300 C1243 0.930 . S
H1301 C1245 0.929 . S
H1302 C1246 0.930 . S
H1303 C1247 0.930 . S
H1304 C1250 0.930 . S
H1305 C1253 0.929 . S
H1306 C1258 0.929 . S
H1307 C1259 0.930 . S
H1308 C1266 0.929 . S
H1309 C1267 0.930 . S
H1310 C1268 0.930 . S
H1311 C1269 0.930 . S
H1312 C1271 0.929 . S
H1313 C1272 0.930 . S
H1314 C1273 0.930 . S
H1315 C1274 0.930 . S
H1316 C1278 0.929 . S
H1317 C1280 0.930 . S
H1318 C1286 0.929 . S
H1319 C1287 0.930 . S
Li1320 N1337 1.990 . S
Li1320 O1380 1.956 . S
Li1320 O1381 1.970 . S
Li1320 O1382 1.961 . S
Li1321 N1345 1.990 . S
Li1321 O1380 1.970 . S
Li1321 O1381 1.956 . S
Li1321 O1383 1.961 . S
Li1322 N1367 1.990 . S
Li1322 O1380 1.961 . S
Li1322 O1382 1.956 . S
Li1322 O1383 1.970 . S
Li1323 N1373 1.990 . S
Li1323 O1381 1.961 . S
Li1323 O1382 1.970 . S
Li1323 O1383 1.956 . S
C1324 C1326 1.348 . S
C1324 C1327 1.356 . S
C1324 O1380 1.325 . S
N1325 C1328 1.314 . S
N1325 C1329 1.279 . S
C1326 C1324 1.348 . S
C1326 C1328 1.353 . S
C1326 H1384 0.929 . S
C1327 C1324 1.356 . S
C1327 C1329 1.358 . S
C1327 H1385 0.930 . S
C1328 N1325 1.314 . S
C1328 C1326 1.353 . S
C1328 H1386 0.930 . S
C1329 N1325 1.279 . S
C1329 C1327 1.358 . S
C1329 H1387 0.930 . S
C1330 C1333 1.348 . S
C1330 C1334 1.356 . S
C1330 O1381 1.325 . S
C1331 N1332 1.279 . S
C1331 C1334 1.358 . S
C1331 H1388 0.930 . S
N1332 C1331 1.279 . S
N1332 C1335 1.314 . S
C1333 C1330 1.348 . S
C1333 C1335 1.353 . S
C1333 H1389 0.929 . S
C1334 C1330 1.356 . S
C1334 C1331 1.358 . S
C1334 H1390 0.930 . S
C1335 N1332 1.314 . S
C1335 C1333 1.353 . S
C1335 H1391 0.930 . S
C1336 N1337 1.314 . S
C1336 C1341 1.353 . S
C1336 H1342 0.930 . S
N1337 Li1320 1.990 . S
N1337 C1336 1.314 . S
N1337 C1339 1.279 . S
C1338 C1339 1.358 . S
C1338 C1340 1.356 . S
C1338 H1392 0.930 . S
C1339 N1337 1.279 . S
C1339 C1338 1.358 . S
C1339 H1343 0.930 . S
C1340 C1338 1.356 . S
C1340 C1341 1.348 . S
C1341 C1336 1.353 . S
C1341 C1340 1.348 . S
C1341 H1393 0.929 . S
H1342 C1336 0.930 . S
H1343 C1339 0.930 . S
C1344 N1345 1.314 . S
C1344 C1346 1.353 . S
C1344 H1350 0.930 . S
N1345 Li1321 1.990 . S
N1345 C1344 1.314 . S
N1345 C1348 1.279 . S
C1346 C1344 1.353 . S
C1346 C1349 1.348 . S
C1346 H1394 0.929 . S
C1347 C1348 1.358 . S
C1347 C1349 1.356 . S
C1347 H1395 0.930 . S
C1348 N1345 1.279 . S
C1348 C1347 1.358 . S
C1348 H1351 0.930 . S
C1349 C1346 1.348 . S
C1349 C1347 1.356 . S
H1350 C1344 0.930 . S
H1351 C1348 0.930 . S
C1352 C1354 1.348 . S
C1352 C1355 1.356 . S
C1352 O1382 1.325 . S
N1353 C1356 1.314 . S
N1353 C1357 1.279 . S
C1354 C1352 1.348 . S
C1354 C1356 1.353 . S
C1354 H1396 0.929 . S
C1355 C1352 1.356 . S
C1355 C1357 1.358 . S
C1355 H1397 0.930 . S
C1356 N1353 1.314 . S
C1356 C1354 1.353 . S
C1356 H1398 0.930 . S
C1357 N1353 1.279 . S
C1357 C1355 1.358 . S
C1357 H1399 0.930 . S
C1358 C1359 1.348 . S
C1358 C1360 1.356 . S
C1358 O1383 1.325 . S
C1359 C1358 1.348 . S
C1359 C1361 1.353 . S
C1359 H1400 0.929 . S
C1360 C1358 1.356 . S
C1360 C1362 1.358 . S
C1360 H1401 0.930 . S
C1361 C1359 1.353 . S
C1361 N1363 1.314 . S
C1361 H1402 0.930 . S
C1362 C1360 1.358 . S
C1362 N1363 1.279 . S
C1362 H1403 0.930 . S
N1363 C1361 1.314 . S
N1363 C1362 1.279 . S
C1364 C1366 1.353 . S
C1364 N1367 1.314 . S
C1364 H1370 0.930 . S
C1365 N1367 1.279 . S
C1365 C1368 1.358 . S
C1365 H1371 0.930 . S
C1366 C1364 1.353 . S
C1366 C1369 1.348 . S
C1366 H1404 0.929 . S
N1367 Li1322 1.990 . S
N1367 C1364 1.314 . S
N1367 C1365 1.279 . S
C1368 C1365 1.358 . S
C1368 C1369 1.356 . S
C1368 H1405 0.930 . S
C1369 C1366 1.348 . S
C1369 C1368 1.356 . S
H1370 C1364 0.930 . S
H1371 C1365 0.930 . S
C1372 N1373 1.314 . S
C1372 C1374 1.353 . S
C1372 H1378 0.930 . S
N1373 Li1323 1.990 . S
N1373 C1372 1.314 . S
N1373 C1376 1.279 . S
C1374 C1372 1.353 . S
C1374 C1377 1.348 . S
C1374 H1406 0.929 . S
C1375 C1376 1.358 . S
C1375 C1377 1.356 . S
C1375 H1407 0.930 . S
C1376 N1373 1.279 . S
C1376 C1375 1.358 . S
C1376 H1379 0.930 . S
C1377 C1374 1.348 . S
C1377 C1375 1.356 . S
H1378 C1372 0.930 . S
H1379 C1376 0.930 . S
O1380 Li1320 1.956 . S
O1380 Li1321 1.970 . S
O1380 Li1322 1.961 . S
O1380 C1324 1.325 . S
O1381 Li1320 1.970 . S
O1381 Li1321 1.956 . S
O1381 Li1323 1.961 . S
O1381 C1330 1.325 . S
O1382 Li1320 1.961 . S
O1382 Li1322 1.956 . S
O1382 Li1323 1.970 . S
O1382 C1352 1.325 . S
O1383 Li1321 1.961 . S
O1383 Li1322 1.970 . S
O1383 Li1323 1.956 . S
O1383 C1358 1.325 . S
H1384 C1326 0.929 . S
H1385 C1327 0.930 . S
H1386 C1328 0.930 . S
H1387 C1329 0.930 . S
H1388 C1331 0.930 . S
H1389 C1333 0.929 . S
H1390 C1334 0.930 . S
H1391 C1335 0.930 . S
H1392 C1338 0.930 . S
H1393 C1341 0.929 . S
H1394 C1346 0.929 . S
H1395 C1347 0.930 . S
H1396 C1354 0.929 . S
H1397 C1355 0.930 . S
H1398 C1356 0.930 . S
H1399 C1357 0.930 . S
H1400 C1359 0.929 . S
H1401 C1360 0.930 . S
H1402 C1361 0.930 . S
H1403 C1362 0.930 . S
H1404 C1366 0.929 . S
H1405 C1368 0.930 . S
H1406 C1374 0.929 . S
H1407 C1375 0.930 . S
Li1408 N1425 1.990 . S
Li1408 O1468 1.956 . S
Li1408 O1469 1.970 1_545 S
Li1408 O1470 1.961 . S
Li1409 N1433 1.990 . S
Li1409 O1468 1.970 . S
Li1409 O1469 1.956 1_545 S
Li1409 O1471 1.961 . S
Li1410 N1455 1.990 . S
Li1410 O1468 1.961 . S
Li1410 O1470 1.956 . S
Li1410 O1471 1.970 . S
Li1411 N1461 1.990 . S
Li1411 O1469 1.961 . S
Li1411 O1470 1.970 1_565 S
Li1411 O1471 1.956 1_565 S
C1412 C1414 1.348 . S
C1412 C1415 1.356 . S
C1412 O1468 1.325 . S
N1413 C1416 1.314 . S
N1413 C1417 1.279 . S
C1414 C1412 1.348 . S
C1414 C1416 1.353 . S
C1414 H1472 0.929 . S
C1415 C1412 1.356 . S
C1415 C1417 1.358 . S
C1415 H1473 0.930 . S
C1416 N1413 1.314 . S
C1416 C1414 1.353 . S
C1416 H1474 0.930 . S
C1417 N1413 1.279 . S
C1417 C1415 1.358 . S
C1417 H1475 0.930 . S
C1418 C1421 1.348 . S
C1418 C1422 1.356 . S
C1418 O1469 1.325 . S
C1419 N1420 1.279 . S
C1419 C1422 1.358 . S
C1419 H1476 0.930 . S
N1420 C1419 1.279 . S
N1420 C1423 1.314 . S
C1421 C1418 1.348 . S
C1421 C1423 1.353 . S
C1421 H1477 0.929 . S
C1422 C1418 1.356 . S
C1422 C1419 1.358 . S
C1422 H1478 0.930 . S
C1423 N1420 1.314 . S
C1423 C1421 1.353 . S
C1423 H1479 0.930 . S
C1424 N1425 1.314 1_565 S
C1424 C1429 1.353 . S
C1424 H1430 0.930 . S
N1425 Li1408 1.990 . S
N1425 C1424 1.314 1_545 S
N1425 C1427 1.279 . S
C1426 C1427 1.358 . S
C1426 C1428 1.356 . S
C1426 H1480 0.930 . S
C1427 N1425 1.279 . S
C1427 C1426 1.358 . S
C1427 H1431 0.930 . S
C1428 C1426 1.356 . S
C1428 C1429 1.348 1_545 S
C1429 C1424 1.353 . S
C1429 C1428 1.348 1_565 S
C1429 H1481 0.929 . S
H1430 C1424 0.930 . S
H1431 C1427 0.930 . S
C1432 N1433 1.314 . S
C1432 C1434 1.353 . S
C1432 H1438 0.930 . S
N1433 Li1409 1.990 . S
N1433 C1432 1.314 . S
N1433 C1436 1.279 . S
C1434 C1432 1.353 . S
C1434 C1437 1.348 . S
C1434 H1482 0.929 . S
C1435 C1436 1.358 . S
C1435 C1437 1.356 . S
C1435 H1483 0.930 . S
C1436 N1433 1.279 . S
C1436 C1435 1.358 . S
C1436 H1439 0.930 . S
C1437 C1434 1.348 . S
C1437 C1435 1.356 . S
H1438 C1432 0.930 . S
H1439 C1436 0.930 . S
C1440 C1442 1.348 1_545 S
C1440 C1443 1.356 . S
C1440 O1470 1.325 . S
N1441 C1444 1.314 . S
N1441 C1445 1.279 1_565 S
C1442 C1440 1.348 1_565 S
C1442 C1444 1.353 . S
C1442 H1484 0.929 . S
C1443 C1440 1.356 . S
C1443 C1445 1.358 . S
C1443 H1485 0.930 . S
C1444 N1441 1.314 . S
C1444 C1442 1.353 . S
C1444 H1486 0.930 . S
C1445 N1441 1.279 1_545 S
C1445 C1443 1.358 . S
C1445 H1487 0.930 . S
C1446 C1447 1.348 . S
C1446 C1448 1.356 . S
C1446 O1471 1.325 . S
C1447 C1446 1.348 . S
C1447 C1449 1.353 . S
C1447 H1488 0.929 . S
C1448 C1446 1.356 . S
C1448 C1450 1.358 . S
C1448 H1489 0.930 . S
C1449 C1447 1.353 . S
C1449 N1451 1.314 . S
C1449 H1490 0.930 . S
C1450 C1448 1.358 . S
C1450 N1451 1.279 . S
C1450 H1491 0.930 . S
N1451 C1449 1.314 . S
N1451 C1450 1.279 . S
C1452 C1454 1.353 . S
C1452 N1455 1.314 . S
C1452 H1458 0.930 . S
C1453 N1455 1.279 . S
C1453 C1456 1.358 . S
C1453 H1459 0.930 . S
C1454 C1452 1.353 . S
C1454 C1457 1.348 . S
C1454 H1492 0.929 . S
N1455 Li1410 1.990 . S
N1455 C1452 1.314 . S
N1455 C1453 1.279 . S
C1456 C1453 1.358 . S
C1456 C1457 1.356 . S
C1456 H1493 0.930 . S
C1457 C1454 1.348 . S
C1457 C1456 1.356 . S
H1458 C1452 0.930 . S
H1459 C1453 0.930 . S
C1460 N1461 1.314 . S
C1460 C1462 1.353 . S
C1460 H1466 0.930 . S
N1461 Li1411 1.990 . S
N1461 C1460 1.314 . S
N1461 C1464 1.279 . S
C1462 C1460 1.353 . S
C1462 C1465 1.348 . S
C1462 H1494 0.929 . S
C1463 C1464 1.358 . S
C1463 C1465 1.356 . S
C1463 H1495 0.930 . S
C1464 N1461 1.279 . S
C1464 C1463 1.358 . S
C1464 H1467 0.930 . S
C1465 C1462 1.348 . S
C1465 C1463 1.356 . S
H1466 C1460 0.930 . S
H1467 C1464 0.930 . S
O1468 Li1408 1.956 . S
O1468 Li1409 1.970 . S
O1468 Li1410 1.961 . S
O1468 C1412 1.325 . S
O1469 Li1408 1.970 1_565 S
O1469 Li1409 1.956 1_565 S
O1469 Li1411 1.961 . S
O1469 C1418 1.325 . S
O1470 Li1408 1.961 . S
O1470 Li1410 1.956 . S
O1470 Li1411 1.970 1_545 S
O1470 C1440 1.325 . S
O1471 Li1409 1.961 . S
O1471 Li1410 1.970 . S
O1471 Li1411 1.956 1_545 S
O1471 C1446 1.325 . S
H1472 C1414 0.929 . S
H1473 C1415 0.930 . S
H1474 C1416 0.930 . S
H1475 C1417 0.930 . S
H1476 C1419 0.930 . S
H1477 C1421 0.929 . S
H1478 C1422 0.930 . S
H1479 C1423 0.930 . S
H1480 C1426 0.930 . S
H1481 C1429 0.929 . S
H1482 C1434 0.929 . S
H1483 C1435 0.930 . S
H1484 C1442 0.929 . S
H1485 C1443 0.930 . S
H1486 C1444 0.930 . S
H1487 C1445 0.930 . S
H1488 C1447 0.929 . S
H1489 C1448 0.930 . S
H1490 C1449 0.930 . S
H1491 C1450 0.930 . S
H1492 C1454 0.929 . S
H1493 C1456 0.930 . S
H1494 C1462 0.929 . S
H1495 C1463 0.930 . S
Li1496 N1513 1.990 . S
Li1496 O1556 1.956 1_655 S
Li1496 O1557 1.970 . S
Li1496 O1558 1.961 . S
Li1497 N1521 1.990 . S
Li1497 O1556 1.970 1_655 S
Li1497 O1557 1.956 . S
Li1497 O1559 1.961 . S
Li1498 N1543 1.990 . S
Li1498 O1556 1.961 . S
Li1498 O1558 1.956 1_455 S
Li1498 O1559 1.970 1_455 S
Li1499 N1549 1.990 . S
Li1499 O1557 1.961 . S
Li1499 O1558 1.970 . S
Li1499 O1559 1.956 . S
C1500 C1502 1.348 . S
C1500 C1503 1.356 . S
C1500 O1556 1.325 . S
N1501 C1504 1.314 . S
N1501 C1505 1.279 . S
C1502 C1500 1.348 . S
C1502 C1504 1.353 . S
C1502 H1560 0.929 . S
C1503 C1500 1.356 . S
C1503 C1505 1.358 . S
C1503 H1561 0.930 . S
C1504 N1501 1.314 . S
C1504 C1502 1.353 . S
C1504 H1562 0.930 . S
C1505 N1501 1.279 . S
C1505 C1503 1.358 . S
C1505 H1563 0.930 . S
C1506 C1509 1.348 . S
C1506 C1510 1.356 . S
C1506 O1557 1.325 . S
C1507 N1508 1.279 . S
C1507 C1510 1.358 . S
C1507 H1564 0.930 . S
N1508 C1507 1.279 . S
N1508 C1511 1.314 . S
C1509 C1506 1.348 . S
C1509 C1511 1.353 . S
C1509 H1565 0.929 . S
C1510 C1506 1.356 . S
C1510 C1507 1.358 . S
C1510 H1566 0.930 . S
C1511 N1508 1.314 . S
C1511 C1509 1.353 . S
C1511 H1567 0.930 . S
C1512 N1513 1.314 . S
C1512 C1517 1.353 . S
C1512 H1518 0.930 . S
N1513 Li1496 1.990 . S
N1513 C1512 1.314 . S
N1513 C1515 1.279 . S
C1514 C1515 1.358 . S
C1514 C1516 1.356 . S
C1514 H1568 0.930 . S
C1515 N1513 1.279 . S
C1515 C1514 1.358 . S
C1515 H1519 0.930 . S
C1516 C1514 1.356 . S
C1516 C1517 1.348 . S
C1517 C1512 1.353 . S
C1517 C1516 1.348 . S
C1517 H1569 0.929 . S
H1518 C1512 0.930 . S
H1519 C1515 0.930 . S
C1520 N1521 1.314 1_455 S
C1520 C1522 1.353 . S
C1520 H1526 0.930 . S
N1521 Li1497 1.990 . S
N1521 C1520 1.314 1_655 S
N1521 C1524 1.279 . S
C1522 C1520 1.353 . S
C1522 C1525 1.348 1_455 S
C1522 H1570 0.929 . S
C1523 C1524 1.358 . S
C1523 C1525 1.356 . S
C1523 H1571 0.930 . S
C1524 N1521 1.279 . S
C1524 C1523 1.358 . S
C1524 H1527 0.930 . S
C1525 C1522 1.348 1_655 S
C1525 C1523 1.356 . S
H1526 C1520 0.930 . S
H1527 C1524 0.930 . S
C1528 C1530 1.348 . S
C1528 C1531 1.356 . S
C1528 O1558 1.325 . S
N1529 C1532 1.314 . S
N1529 C1533 1.279 . S
C1530 C1528 1.348 . S
C1530 C1532 1.353 . S
C1530 H1572 0.929 . S
C1531 C1528 1.356 . S
C1531 C1533 1.358 . S
C1531 H1573 0.930 . S
C1532 N1529 1.314 . S
C1532 C1530 1.353 . S
C1532 H1574 0.930 . S
C1533 N1529 1.279 . S
C1533 C1531 1.358 . S
C1533 H1575 0.930 . S
C1534 C1535 1.348 1_655 S
C1534 C1536 1.356 . S
C1534 O1559 1.325 . S
C1535 C1534 1.348 1_455 S
C1535 C1537 1.353 . S
C1535 H1576 0.929 . S
C1536 C1534 1.356 . S
C1536 C1538 1.358 . S
C1536 H1577 0.930 . S
C1537 C1535 1.353 . S
C1537 N1539 1.314 . S
C1537 H1578 0.930 . S
C1538 C1536 1.358 . S
C1538 N1539 1.279 1_655 S
C1538 H1579 0.930 . S
N1539 C1537 1.314 . S
N1539 C1538 1.279 1_455 S
C1540 C1542 1.353 . S
C1540 N1543 1.314 . S
C1540 H1546 0.930 . S
C1541 N1543 1.279 . S
C1541 C1544 1.358 . S
C1541 H1547 0.930 . S
C1542 C1540 1.353 . S
C1542 C1545 1.348 . S
C1542 H1580 0.929 . S
N1543 Li1498 1.990 . S
N1543 C1540 1.314 . S
N1543 C1541 1.279 . S
C1544 C1541 1.358 . S
C1544 C1545 1.356 . S
C1544 H1581 0.930 . S
C1545 C1542 1.348 . S
C1545 C1544 1.356 . S
H1546 C1540 0.930 . S
H1547 C1541 0.930 . S
C1548 N1549 1.314 . S
C1548 C1550 1.353 . S
C1548 H1554 0.930 . S
N1549 Li1499 1.990 . S
N1549 C1548 1.314 . S
N1549 C1552 1.279 . S
C1550 C1548 1.353 . S
C1550 C1553 1.348 . S
C1550 H1582 0.929 . S
C1551 C1552 1.358 . S
C1551 C1553 1.356 . S
C1551 H1583 0.930 . S
C1552 N1549 1.279 . S
C1552 C1551 1.358 . S
C1552 H1555 0.930 . S
C1553 C1550 1.348 . S
C1553 C1551 1.356 . S
H1554 C1548 0.930 . S
H1555 C1552 0.930 . S
O1556 Li1496 1.956 1_455 S
O1556 Li1497 1.970 1_455 S
O1556 Li1498 1.961 . S
O1556 C1500 1.325 . S
O1557 Li1496 1.970 . S
O1557 Li1497 1.956 . S
O1557 Li1499 1.961 . S
O1557 C1506 1.325 . S
O1558 Li1496 1.961 . S
O1558 Li1498 1.956 1_655 S
O1558 Li1499 1.970 . S
O1558 C1528 1.325 . S
O1559 Li1497 1.961 . S
O1559 Li1498 1.970 1_655 S
O1559 Li1499 1.956 . S
O1559 C1534 1.325 . S
H1560 C1502 0.929 . S
H1561 C1503 0.930 . S
H1562 C1504 0.930 . S
H1563 C1505 0.930 . S
H1564 C1507 0.930 . S
H1565 C1509 0.929 . S
H1566 C1510 0.930 . S
H1567 C1511 0.930 . S
H1568 C1514 0.930 . S
H1569 C1517 0.929 . S
H1570 C1522 0.929 . S
H1571 C1523 0.930 . S
H1572 C1530 0.929 . S
H1573 C1531 0.930 . S
H1574 C1532 0.930 . S
H1575 C1533 0.930 . S
H1576 C1535 0.929 . S
H1577 C1536 0.930 . S
H1578 C1537 0.930 . S
H1579 C1538 0.930 . S
H1580 C1542 0.929 . S
H1581 C1544 0.930 . S
H1582 C1550 0.929 . S
H1583 C1551 0.930 . S
C1584 C1585 1.384 . S
C1584 C1586 1.384 . S
C1584 H1612 0.931 . S
C1585 C1584 1.384 . S
C1585 C1588 1.382 . S
C1586 C1584 1.384 . S
C1586 C1587 1.381 . S
C1586 H1613 0.930 . S
C1587 C1586 1.381 . S
C1587 C1589 1.381 . S
C1587 C1590 1.487 . S
C1588 C1585 1.382 . S
C1588 C1589 1.387 . S
C1588 H1614 0.930 . S
C1589 C1587 1.381 . S
C1589 C1588 1.387 . S
C1589 H1615 0.931 . S
C1590 C1587 1.487 . S
C1590 C1597 1.399 . S
C1590 N1628 1.343 . S
C1591 C1592 1.384 . S
C1591 C1593 1.384 . S
C1591 H1616 0.931 . S
C1592 C1591 1.384 . S
C1592 C1595 1.382 . S
C1593 C1591 1.384 . S
C1593 C1594 1.381 . S
C1593 H1617 0.930 . S
C1594 C1593 1.381 . S
C1594 C1596 1.381 . S
C1594 C1597 1.487 . S
C1595 C1592 1.382 . S
C1595 C1596 1.387 . S
C1595 H1618 0.930 . S
C1596 C1594 1.381 . S
C1596 C1595 1.387 . S
C1596 H1619 0.931 . S
C1597 C1590 1.399 . S
C1597 C1594 1.487 . S
C1597 N1629 1.343 . S
C1598 C1599 1.384 . S
C1598 C1600 1.384 . S
C1598 H1620 0.931 . S
C1599 C1598 1.384 . S
C1599 C1602 1.382 . S
C1600 C1598 1.384 . S
C1600 C1601 1.381 . S
C1600 H1621 0.930 . S
C1601 C1600 1.381 . S
C1601 C1603 1.381 . S
C1601 C1604 1.487 . S
C1602 C1599 1.382 . S
C1602 C1603 1.387 . S
C1602 H1622 0.930 . S
C1603 C1601 1.381 . S
C1603 C1602 1.387 . S
C1603 H1623 0.931 . S
C1604 C1601 1.487 . S
C1604 C1611 1.399 . S
C1604 N1629 1.343 . S
C1605 C1606 1.384 . S
C1605 C1607 1.384 . S
C1605 H1624 0.931 . S
C1606 C1605 1.384 . S
C1606 C1609 1.382 . S
C1607 C1605 1.384 . S
C1607 C1608 1.381 . S
C1607 H1625 0.930 . S
C1608 C1607 1.381 . S
C1608 C1610 1.381 . S
C1608 C1611 1.487 . S
C1609 C1606 1.382 . S
C1609 C1610 1.387 . S
C1609 H1626 0.930 . S
C1610 C1608 1.381 . S
C1610 C1609 1.387 . S
C1610 H1627 0.931 . S
C1611 C1604 1.399 . S
C1611 C1608 1.487 . S
C1611 N1628 1.343 . S
H1612 C1584 0.931 . S
H1613 C1586 0.930 . S
H1614 C1588 0.930 . S
H1615 C1589 0.931 . S
H1616 C1591 0.931 . S
H1617 C1593 0.930 . S
H1618 C1595 0.930 . S
H1619 C1596 0.931 . S
H1620 C1598 0.931 . S
H1621 C1600 0.930 . S
H1622 C1602 0.930 . S
H1623 C1603 0.931 . S
H1624 C1605 0.931 . S
H1625 C1607 0.930 . S
H1626 C1609 0.930 . S
H1627 C1610 0.931 . S
N1628 C1590 1.343 . S
N1628 C1611 1.343 . S
N1629 C1597 1.343 . S
N1629 C1604 1.343 . S
C1630 C1631 1.384 . S
C1630 C1632 1.384 . S
C1630 H1658 0.931 . S
C1631 C1630 1.384 . S
C1631 C1634 1.382 . S
C1632 C1630 1.384 . S
C1632 C1633 1.381 . S
C1632 H1659 0.930 . S
C1633 C1632 1.381 . S
C1633 C1635 1.381 . S
C1633 C1636 1.487 . S
C1634 C1631 1.382 . S
C1634 C1635 1.387 . S
C1634 H1660 0.930 . S
C1635 C1633 1.381 . S
C1635 C1634 1.387 . S
C1635 H1661 0.931 . S
C1636 C1633 1.487 . S
C1636 C1643 1.399 . S
C1636 N1674 1.343 . S
C1637 C1638 1.384 . S
C1637 C1639 1.384 . S
C1637 H1662 0.931 . S
C1638 C1637 1.384 . S
C1638 C1641 1.382 . S
C1639 C1637 1.384 . S
C1639 C1640 1.381 . S
C1639 H1663 0.930 . S
C1640 C1639 1.381 . S
C1640 C1642 1.381 . S
C1640 C1643 1.487 . S
C1641 C1638 1.382 . S
C1641 C1642 1.387 . S
C1641 H1664 0.930 . S
C1642 C1640 1.381 . S
C1642 C1641 1.387 . S
C1642 H1665 0.931 . S
C1643 C1636 1.399 . S
C1643 C1640 1.487 . S
C1643 N1675 1.343 . S
C1644 C1645 1.384 . S
C1644 C1646 1.384 . S
C1644 H1666 0.931 . S
C1645 C1644 1.384 . S
C1645 C1648 1.382 . S
C1646 C1644 1.384 . S
C1646 C1647 1.381 . S
C1646 H1667 0.930 . S
C1647 C1646 1.381 . S
C1647 C1649 1.381 . S
C1647 C1650 1.487 . S
C1648 C1645 1.382 . S
C1648 C1649 1.387 . S
C1648 H1668 0.930 . S
C1649 C1647 1.381 . S
C1649 C1648 1.387 . S
C1649 H1669 0.931 . S
C1650 C1647 1.487 . S
C1650 C1657 1.399 . S
C1650 N1675 1.343 . S
C1651 C1652 1.384 . S
C1651 C1653 1.384 . S
C1651 H1670 0.931 . S
C1652 C1651 1.384 . S
C1652 C1655 1.382 . S
C1653 C1651 1.384 . S
C1653 C1654 1.381 . S
C1653 H1671 0.930 . S
C1654 C1653 1.381 . S
C1654 C1656 1.381 . S
C1654 C1657 1.487 . S
C1655 C1652 1.382 . S
C1655 C1656 1.387 . S
C1655 H1672 0.930 . S
C1656 C1654 1.381 . S
C1656 C1655 1.387 . S
C1656 H1673 0.931 . S
C1657 C1650 1.399 . S
C1657 C1654 1.487 . S
C1657 N1674 1.343 . S
H1658 C1630 0.931 . S
H1659 C1632 0.930 . S
H1660 C1634 0.930 . S
H1661 C1635 0.931 . S
H1662 C1637 0.931 . S
H1663 C1639 0.930 . S
H1664 C1641 0.930 . S
H1665 C1642 0.931 . S
H1666 C1644 0.931 . S
H1667 C1646 0.930 . S
H1668 C1648 0.930 . S
H1669 C1649 0.931 . S
H1670 C1651 0.931 . S
H1671 C1653 0.930 . S
H1672 C1655 0.930 . S
H1673 C1656 0.931 . S
N1674 C1636 1.343 . S
N1674 C1657 1.343 . S
N1675 C1643 1.343 . S
N1675 C1650 1.343 . S
C1676 C1677 1.384 . S
C1676 C1678 1.384 . S
C1676 H1704 0.931 . S
C1677 C1676 1.384 . S
C1677 C1680 1.382 . S
C1678 C1676 1.384 . S
C1678 C1679 1.381 . S
C1678 H1705 0.930 . S
C1679 C1678 1.381 . S
C1679 C1681 1.381 . S
C1679 C1682 1.487 . S
C1680 C1677 1.382 . S
C1680 C1681 1.387 . S
C1680 H1706 0.930 . S
C1681 C1679 1.381 . S
C1681 C1680 1.387 . S
C1681 H1707 0.931 . S
C1682 C1679 1.487 . S
C1682 C1689 1.399 . S
C1682 N1720 1.343 . S
C1683 C1684 1.384 . S
C1683 C1685 1.384 . S
C1683 H1708 0.931 . S
C1684 C1683 1.384 . S
C1684 C1687 1.382 . S
C1685 C1683 1.384 . S
C1685 C1686 1.381 . S
C1685 H1709 0.930 . S
C1686 C1685 1.381 . S
C1686 C1688 1.381 . S
C1686 C1689 1.487 . S
C1687 C1684 1.382 . S
C1687 C1688 1.387 . S
C1687 H1710 0.930 . S
C1688 C1686 1.381 . S
C1688 C1687 1.387 . S
C1688 H1711 0.931 . S
C1689 C1682 1.399 . S
C1689 C1686 1.487 . S
C1689 N1721 1.343 . S
C1690 C1691 1.384 . S
C1690 C1692 1.384 . S
C1690 H1712 0.931 . S
C1691 C1690 1.384 . S
C1691 C1694 1.382 . S
C1692 C1690 1.384 . S
C1692 C1693 1.381 . S
C1692 H1713 0.930 . S
C1693 C1692 1.381 . S
C1693 C1695 1.381 . S
C1693 C1696 1.487 . S
C1694 C1691 1.382 . S
C1694 C1695 1.387 . S
C1694 H1714 0.930 . S
C1695 C1693 1.381 . S
C1695 C1694 1.387 . S
C1695 H1715 0.931 . S
C1696 C1693 1.487 . S
C1696 C1703 1.399 . S
C1696 N1721 1.343 . S
C1697 C1698 1.384 . S
C1697 C1699 1.384 . S
C1697 H1716 0.931 . S
C1698 C1697 1.384 . S
C1698 C1701 1.382 . S
C1699 C1697 1.384 . S
C1699 C1700 1.381 . S
C1699 H1717 0.930 . S
C1700 C1699 1.381 . S
C1700 C1702 1.381 . S
C1700 C1703 1.487 . S
C1701 C1698 1.382 . S
C1701 C1702 1.387 . S
C1701 H1718 0.930 . S
C1702 C1700 1.381 . S
C1702 C1701 1.387 . S
C1702 H1719 0.931 . S
C1703 C1696 1.399 . S
C1703 C1700 1.487 . S
C1703 N1720 1.343 . S
H1704 C1676 0.931 . S
H1705 C1678 0.930 . S
H1706 C1680 0.930 . S
H1707 C1681 0.931 . S
H1708 C1683 0.931 . S
H1709 C1685 0.930 . S
H1710 C1687 0.930 . S
H1711 C1688 0.931 . S
H1712 C1690 0.931 . S
H1713 C1692 0.930 . S
H1714 C1694 0.930 . S
H1715 C1695 0.931 . S
H1716 C1697 0.931 . S
H1717 C1699 0.930 . S
H1718 C1701 0.930 . S
H1719 C1702 0.931 . S
N1720 C1682 1.343 . S
N1720 C1703 1.343 . S
N1721 C1689 1.343 . S
N1721 C1696 1.343 . S
C1722 C1723 1.384 . S
C1722 C1724 1.384 . S
C1722 H1750 0.931 . S
C1723 C1722 1.384 . S
C1723 C1726 1.382 . S
C1724 C1722 1.384 . S
C1724 C1725 1.381 . S
C1724 H1751 0.930 . S
C1725 C1724 1.381 . S
C1725 C1727 1.381 . S
C1725 C1728 1.487 . S
C1726 C1723 1.382 . S
C1726 C1727 1.387 . S
C1726 H1752 0.930 . S
C1727 C1725 1.381 . S
C1727 C1726 1.387 . S
C1727 H1753 0.931 . S
C1728 C1725 1.487 . S
C1728 C1735 1.399 . S
C1728 N1766 1.343 . S
C1729 C1730 1.384 . S
C1729 C1731 1.384 . S
C1729 H1754 0.931 . S
C1730 C1729 1.384 . S
C1730 C1733 1.382 . S
C1731 C1729 1.384 . S
C1731 C1732 1.381 . S
C1731 H1755 0.930 . S
C1732 C1731 1.381 . S
C1732 C1734 1.381 . S
C1732 C1735 1.487 . S
C1733 C1730 1.382 . S
C1733 C1734 1.387 . S
C1733 H1756 0.930 . S
C1734 C1732 1.381 . S
C1734 C1733 1.387 . S
C1734 H1757 0.931 . S
C1735 C1728 1.399 . S
C1735 C1732 1.487 . S
C1735 N1767 1.343 . S
C1736 C1737 1.384 . S
C1736 C1738 1.384 . S
C1736 H1758 0.931 . S
C1737 C1736 1.384 . S
C1737 C1740 1.382 . S
C1738 C1736 1.384 . S
C1738 C1739 1.381 . S
C1738 H1759 0.930 . S
C1739 C1738 1.381 . S
C1739 C1741 1.381 . S
C1739 C1742 1.487 . S
C1740 C1737 1.382 . S
C1740 C1741 1.387 . S
C1740 H1760 0.930 . S
C1741 C1739 1.381 . S
C1741 C1740 1.387 . S
C1741 H1761 0.931 . S
C1742 C1739 1.487 . S
C1742 C1749 1.399 . S
C1742 N1767 1.343 . S
C1743 C1744 1.384 . S
C1743 C1745 1.384 . S
C1743 H1762 0.931 . S
C1744 C1743 1.384 . S
C1744 C1747 1.382 . S
C1745 C1743 1.384 . S
C1745 C1746 1.381 . S
C1745 H1763 0.930 . S
C1746 C1745 1.381 . S
C1746 C1748 1.381 . S
C1746 C1749 1.487 . S
C1747 C1744 1.382 . S
C1747 C1748 1.387 . S
C1747 H1764 0.930 . S
C1748 C1746 1.381 . S
C1748 C1747 1.387 . S
C1748 H1765 0.931 . S
C1749 C1742 1.399 . S
C1749 C1746 1.487 . S
C1749 N1766 1.343 . S
H1750 C1722 0.931 . S
H1751 C1724 0.930 . S
H1752 C1726 0.930 . S
H1753 C1727 0.931 . S
H1754 C1729 0.931 . S
H1755 C1731 0.930 . S
H1756 C1733 0.930 . S
H1757 C1734 0.931 . S
H1758 C1736 0.931 . S
H1759 C1738 0.930 . S
H1760 C1740 0.930 . S
H1761 C1741 0.931 . S
H1762 C1743 0.931 . S
H1763 C1745 0.930 . S
H1764 C1747 0.930 . S
H1765 C1748 0.931 . S
N1766 C1728 1.343 . S
N1766 C1749 1.343 . S
N1767 C1735 1.343 . S
N1767 C1742 1.343 . S
C1768 C1769 1.384 . S
C1768 C1770 1.384 . S
C1768 H1796 0.931 . S
C1769 C1768 1.384 . S
C1769 C1772 1.382 . S
C1770 C1768 1.384 . S
C1770 C1771 1.381 . S
C1770 H1797 0.930 . S
C1771 C1770 1.381 . S
C1771 C1773 1.381 . S
C1771 C1774 1.487 . S
C1772 C1769 1.382 . S
C1772 C1773 1.387 . S
C1772 H1798 0.930 . S
C1773 C1771 1.381 . S
C1773 C1772 1.387 . S
C1773 H1799 0.931 . S
C1774 C1771 1.487 . S
C1774 C1781 1.399 . S
C1774 N1812 1.343 . S
C1775 C1776 1.384 . S
C1775 C1777 1.384 . S
C1775 H1800 0.931 . S
C1776 C1775 1.384 . S
C1776 C1779 1.382 . S
C1777 C1775 1.384 . S
C1777 C1778 1.381 . S
C1777 H1801 0.930 . S
C1778 C1777 1.381 . S
C1778 C1780 1.381 . S
C1778 C1781 1.487 . S
C1779 C1776 1.382 . S
C1779 C1780 1.387 . S
C1779 H1802 0.930 . S
C1780 C1778 1.381 . S
C1780 C1779 1.387 . S
C1780 H1803 0.931 . S
C1781 C1774 1.399 . S
C1781 C1778 1.487 . S
C1781 N1813 1.343 . S
C1782 C1783 1.384 . S
C1782 C1784 1.384 . S
C1782 H1804 0.931 . S
C1783 C1782 1.384 . S
C1783 C1786 1.382 . S
C1784 C1782 1.384 . S
C1784 C1785 1.381 . S
C1784 H1805 0.930 . S
C1785 C1784 1.381 . S
C1785 C1787 1.381 . S
C1785 C1788 1.487 . S
C1786 C1783 1.382 . S
C1786 C1787 1.387 . S
C1786 H1806 0.930 . S
C1787 C1785 1.381 . S
C1787 C1786 1.387 . S
C1787 H1807 0.931 . S
C1788 C1785 1.487 . S
C1788 C1795 1.399 . S
C1788 N1813 1.343 . S
C1789 C1790 1.384 . S
C1789 C1791 1.384 . S
C1789 H1808 0.931 . S
C1790 C1789 1.384 . S
C1790 C1793 1.382 . S
C1791 C1789 1.384 . S
C1791 C1792 1.381 . S
C1791 H1809 0.930 . S
C1792 C1791 1.381 . S
C1792 C1794 1.381 . S
C1792 C1795 1.487 . S
C1793 C1790 1.382 . S
C1793 C1794 1.387 . S
C1793 H1810 0.930 . S
C1794 C1792 1.381 . S
C1794 C1793 1.387 . S
C1794 H1811 0.931 . S
C1795 C1788 1.399 . S
C1795 C1792 1.487 . S
C1795 N1812 1.343 . S
H1796 C1768 0.931 . S
H1797 C1770 0.930 . S
H1798 C1772 0.930 . S
H1799 C1773 0.931 . S
H1800 C1775 0.931 . S
H1801 C1777 0.930 . S
H1802 C1779 0.930 . S
H1803 C1780 0.931 . S
H1804 C1782 0.931 . S
H1805 C1784 0.930 . S
H1806 C1786 0.930 . S
H1807 C1787 0.931 . S
H1808 C1789 0.931 . S
H1809 C1791 0.930 . S
H1810 C1793 0.930 . S
H1811 C1794 0.931 . S
N1812 C1774 1.343 . S
N1812 C1795 1.343 . S
N1813 C1781 1.343 . S
N1813 C1788 1.343 . S
C1814 C1815 1.384 . S
C1814 C1816 1.384 . S
C1814 H1842 0.931 . S
C1815 C1814 1.384 . S
C1815 C1818 1.382 . S
C1816 C1814 1.384 . S
C1816 C1817 1.381 . S
C1816 H1843 0.930 . S
C1817 C1816 1.381 . S
C1817 C1819 1.381 . S
C1817 C1820 1.487 . S
C1818 C1815 1.382 . S
C1818 C1819 1.387 . S
C1818 H1844 0.930 . S
C1819 C1817 1.381 . S
C1819 C1818 1.387 . S
C1819 H1845 0.931 . S
C1820 C1817 1.487 . S
C1820 C1827 1.399 . S
C1820 N1858 1.343 . S
C1821 C1822 1.384 . S
C1821 C1823 1.384 . S
C1821 H1846 0.931 . S
C1822 C1821 1.384 . S
C1822 C1825 1.382 . S
C1823 C1821 1.384 . S
C1823 C1824 1.381 . S
C1823 H1847 0.930 . S
C1824 C1823 1.381 . S
C1824 C1826 1.381 . S
C1824 C1827 1.487 . S
C1825 C1822 1.382 . S
C1825 C1826 1.387 . S
C1825 H1848 0.930 . S
C1826 C1824 1.381 . S
C1826 C1825 1.387 . S
C1826 H1849 0.931 . S
C1827 C1820 1.399 . S
C1827 C1824 1.487 . S
C1827 N1859 1.343 . S
C1828 C1829 1.384 . S
C1828 C1830 1.384 . S
C1828 H1850 0.931 . S
C1829 C1828 1.384 . S
C1829 C1832 1.382 . S
C1830 C1828 1.384 . S
C1830 C1831 1.381 . S
C1830 H1851 0.930 . S
C1831 C1830 1.381 . S
C1831 C1833 1.381 . S
C1831 C1834 1.487 . S
C1832 C1829 1.382 . S
C1832 C1833 1.387 . S
C1832 H1852 0.930 . S
C1833 C1831 1.381 . S
C1833 C1832 1.387 . S
C1833 H1853 0.931 . S
C1834 C1831 1.487 . S
C1834 C1841 1.399 . S
C1834 N1859 1.343 . S
C1835 C1836 1.384 . S
C1835 C1837 1.384 . S
C1835 H1854 0.931 . S
C1836 C1835 1.384 . S
C1836 C1839 1.382 . S
C1837 C1835 1.384 . S
C1837 C1838 1.381 . S
C1837 H1855 0.930 . S
C1838 C1837 1.381 . S
C1838 C1840 1.381 . S
C1838 C1841 1.487 . S
C1839 C1836 1.382 . S
C1839 C1840 1.387 . S
C1839 H1856 0.930 . S
C1840 C1838 1.381 . S
C1840 C1839 1.387 . S
C1840 H1857 0.931 . S
C1841 C1834 1.399 . S
C1841 C1838 1.487 . S
C1841 N1858 1.343 . S
H1842 C1814 0.931 . S
H1843 C1816 0.930 . S
H1844 C1818 0.930 . S
H1845 C1819 0.931 . S
H1846 C1821 0.931 . S
H1847 C1823 0.930 . S
H1848 C1825 0.930 . S
H1849 C1826 0.931 . S
H1850 C1828 0.931 . S
H1851 C1830 0.930 . S
H1852 C1832 0.930 . S
H1853 C1833 0.931 . S
H1854 C1835 0.931 . S
H1855 C1837 0.930 . S
H1856 C1839 0.930 . S
H1857 C1840 0.931 . S
N1858 C1820 1.343 . S
N1858 C1841 1.343 . S
N1859 C1827 1.343 . S
N1859 C1834 1.343 . S
C1860 C1861 1.384 . S
C1860 C1862 1.384 . S
C1860 H1888 0.931 . S
C1861 C1860 1.384 . S
C1861 C1864 1.382 . S
C1862 C1860 1.384 . S
C1862 C1863 1.381 . S
C1862 H1889 0.930 . S
C1863 C1862 1.381 . S
C1863 C1865 1.381 . S
C1863 C1866 1.487 . S
C1864 C1861 1.382 . S
C1864 C1865 1.387 . S
C1864 H1890 0.930 . S
C1865 C1863 1.381 . S
C1865 C1864 1.387 . S
C1865 H1891 0.931 . S
C1866 C1863 1.487 . S
C1866 C1873 1.399 . S
C1866 N1904 1.343 . S
C1867 C1868 1.384 . S
C1867 C1869 1.384 . S
C1867 H1892 0.931 . S
C1868 C1867 1.384 . S
C1868 C1871 1.382 . S
C1869 C1867 1.384 . S
C1869 C1870 1.381 . S
C1869 H1893 0.930 . S
C1870 C1869 1.381 . S
C1870 C1872 1.381 . S
C1870 C1873 1.487 . S
C1871 C1868 1.382 . S
C1871 C1872 1.387 . S
C1871 H1894 0.930 . S
C1872 C1870 1.381 . S
C1872 C1871 1.387 . S
C1872 H1895 0.931 . S
C1873 C1866 1.399 . S
C1873 C1870 1.487 . S
C1873 N1905 1.343 . S
C1874 C1875 1.384 . S
C1874 C1876 1.384 . S
C1874 H1896 0.931 . S
C1875 C1874 1.384 . S
C1875 C1878 1.382 . S
C1876 C1874 1.384 . S
C1876 C1877 1.381 . S
C1876 H1897 0.930 . S
C1877 C1876 1.381 . S
C1877 C1879 1.381 . S
C1877 C1880 1.487 . S
C1878 C1875 1.382 . S
C1878 C1879 1.387 . S
C1878 H1898 0.930 . S
C1879 C1877 1.381 . S
C1879 C1878 1.387 . S
C1879 H1899 0.931 . S
C1880 C1877 1.487 . S
C1880 C1887 1.399 . S
C1880 N1905 1.343 . S
C1881 C1882 1.384 . S
C1881 C1883 1.384 . S
C1881 H1900 0.931 . S
C1882 C1881 1.384 . S
C1882 C1885 1.382 . S
C1883 C1881 1.384 . S
C1883 C1884 1.381 . S
C1883 H1901 0.930 . S
C1884 C1883 1.381 . S
C1884 C1886 1.381 . S
C1884 C1887 1.487 . S
C1885 C1882 1.382 . S
C1885 C1886 1.387 . S
C1885 H1902 0.930 . S
C1886 C1884 1.381 . S
C1886 C1885 1.387 . S
C1886 H1903 0.931 . S
C1887 C1880 1.399 . S
C1887 C1884 1.487 . S
C1887 N1904 1.343 . S
H1888 C1860 0.931 . S
H1889 C1862 0.930 . S
H1890 C1864 0.930 . S
H1891 C1865 0.931 . S
H1892 C1867 0.931 . S
H1893 C1869 0.930 . S
H1894 C1871 0.930 . S
H1895 C1872 0.931 . S
H1896 C1874 0.931 . S
H1897 C1876 0.930 . S
H1898 C1878 0.930 . S
H1899 C1879 0.931 . S
H1900 C1881 0.931 . S
H1901 C1883 0.930 . S
H1902 C1885 0.930 . S
H1903 C1886 0.931 . S
N1904 C1866 1.343 . S
N1904 C1887 1.343 . S
N1905 C1873 1.343 . S
N1905 C1880 1.343 . S
C1906 C1907 1.384 . S
C1906 C1908 1.384 . S
C1906 H1934 0.931 . S
C1907 C1906 1.384 . S
C1907 C1910 1.382 . S
C1908 C1906 1.384 . S
C1908 C1909 1.381 . S
C1908 H1935 0.930 . S
C1909 C1908 1.381 . S
C1909 C1911 1.381 . S
C1909 C1912 1.487 . S
C1910 C1907 1.382 . S
C1910 C1911 1.387 . S
C1910 H1936 0.930 . S
C1911 C1909 1.381 . S
C1911 C1910 1.387 . S
C1911 H1937 0.931 . S
C1912 C1909 1.487 . S
C1912 C1919 1.399 . S
C1912 N1950 1.343 . S
C1913 C1914 1.384 . S
C1913 C1915 1.384 . S
C1913 H1938 0.931 . S
C1914 C1913 1.384 . S
C1914 C1917 1.382 . S
C1915 C1913 1.384 . S
C1915 C1916 1.381 . S
C1915 H1939 0.930 . S
C1916 C1915 1.381 . S
C1916 C1918 1.381 . S
C1916 C1919 1.487 . S
C1917 C1914 1.382 . S
C1917 C1918 1.387 . S
C1917 H1940 0.930 . S
C1918 C1916 1.381 . S
C1918 C1917 1.387 . S
C1918 H1941 0.931 . S
C1919 C1912 1.399 . S
C1919 C1916 1.487 . S
C1919 N1951 1.343 . S
C1920 C1921 1.384 . S
C1920 C1922 1.384 . S
C1920 H1942 0.931 . S
C1921 C1920 1.384 . S
C1921 C1924 1.382 . S
C1922 C1920 1.384 . S
C1922 C1923 1.381 . S
C1922 H1943 0.930 . S
C1923 C1922 1.381 . S
C1923 C1925 1.381 . S
C1923 C1926 1.487 . S
C1924 C1921 1.382 . S
C1924 C1925 1.387 . S
C1924 H1944 0.930 . S
C1925 C1923 1.381 . S
C1925 C1924 1.387 . S
C1925 H1945 0.931 . S
C1926 C1923 1.487 . S
C1926 C1933 1.399 . S
C1926 N1951 1.343 . S
C1927 C1928 1.384 . S
C1927 C1929 1.384 . S
C1927 H1946 0.931 . S
C1928 C1927 1.384 . S
C1928 C1931 1.382 . S
C1929 C1927 1.384 . S
C1929 C1930 1.381 . S
C1929 H1947 0.930 . S
C1930 C1929 1.381 . S
C1930 C1932 1.381 . S
C1930 C1933 1.487 . S
C1931 C1928 1.382 . S
C1931 C1932 1.387 . S
C1931 H1948 0.930 . S
C1932 C1930 1.381 . S
C1932 C1931 1.387 . S
C1932 H1949 0.931 . S
C1933 C1926 1.399 . S
C1933 C1930 1.487 . S
C1933 N1950 1.343 . S
H1934 C1906 0.931 . S
H1935 C1908 0.930 . S
H1936 C1910 0.930 . S
H1937 C1911 0.931 . S
H1938 C1913 0.931 . S
H1939 C1915 0.930 . S
H1940 C1917 0.930 . S
H1941 C1918 0.931 . S
H1942 C1920 0.931 . S
H1943 C1922 0.930 . S
H1944 C1924 0.930 . S
H1945 C1925 0.931 . S
H1946 C1927 0.931 . S
H1947 C1929 0.930 . S
H1948 C1931 0.930 . S
H1949 C1932 0.931 . S
N1950 C1912 1.343 . S
N1950 C1933 1.343 . S
N1951 C1919 1.343 . S
N1951 C1926 1.343 . S
C1952 C1953 1.384 . S
C1952 C1954 1.384 . S
C1952 H1980 0.931 . S
C1953 C1952 1.384 . S
C1953 C1956 1.382 . S
C1954 C1952 1.384 . S
C1954 C1955 1.381 . S
C1954 H1981 0.930 . S
C1955 C1954 1.381 . S
C1955 C1957 1.381 . S
C1955 C1958 1.487 . S
C1956 C1953 1.382 . S
C1956 C1957 1.387 . S
C1956 H1982 0.930 . S
C1957 C1955 1.381 . S
C1957 C1956 1.387 . S
C1957 H1983 0.931 . S
C1958 C1955 1.487 . S
C1958 C1965 1.399 . S
C1958 N1996 1.343 . S
C1959 C1960 1.384 . S
C1959 C1961 1.384 . S
C1959 H1984 0.931 . S
C1960 C1959 1.384 . S
C1960 C1963 1.382 . S
C1961 C1959 1.384 . S
C1961 C1962 1.381 . S
C1961 H1985 0.930 . S
C1962 C1961 1.381 . S
C1962 C1964 1.381 . S
C1962 C1965 1.487 . S
C1963 C1960 1.382 . S
C1963 C1964 1.387 . S
C1963 H1986 0.930 . S
C1964 C1962 1.381 . S
C1964 C1963 1.387 . S
C1964 H1987 0.931 . S
C1965 C1958 1.399 . S
C1965 C1962 1.487 . S
C1965 N1997 1.343 . S
C1966 C1967 1.384 . S
C1966 C1968 1.384 . S
C1966 H1988 0.931 . S
C1967 C1966 1.384 . S
C1967 C1970 1.382 . S
C1968 C1966 1.384 . S
C1968 C1969 1.381 . S
C1968 H1989 0.930 . S
C1969 C1968 1.381 . S
C1969 C1971 1.381 . S
C1969 C1972 1.487 . S
C1970 C1967 1.382 . S
C1970 C1971 1.387 . S
C1970 H1990 0.930 . S
C1971 C1969 1.381 . S
C1971 C1970 1.387 . S
C1971 H1991 0.931 . S
C1972 C1969 1.487 . S
C1972 C1979 1.399 . S
C1972 N1997 1.343 . S
C1973 C1974 1.384 . S
C1973 C1975 1.384 . S
C1973 H1992 0.931 . S
C1974 C1973 1.384 . S
C1974 C1977 1.382 . S
C1975 C1973 1.384 . S
C1975 C1976 1.381 . S
C1975 H1993 0.930 . S
C1976 C1975 1.381 . S
C1976 C1978 1.381 . S
C1976 C1979 1.487 . S
C1977 C1974 1.382 . S
C1977 C1978 1.387 . S
C1977 H1994 0.930 . S
C1978 C1976 1.381 . S
C1978 C1977 1.387 . S
C1978 H1995 0.931 . S
C1979 C1972 1.399 . S
C1979 C1976 1.487 . S
C1979 N1996 1.343 . S
H1980 C1952 0.931 . S
H1981 C1954 0.930 . S
H1982 C1956 0.930 . S
H1983 C1957 0.931 . S
H1984 C1959 0.931 . S
H1985 C1961 0.930 . S
H1986 C1963 0.930 . S
H1987 C1964 0.931 . S
H1988 C1966 0.931 . S
H1989 C1968 0.930 . S
H1990 C1970 0.930 . S
H1991 C1971 0.931 . S
H1992 C1973 0.931 . S
H1993 C1975 0.930 . S
H1994 C1977 0.930 . S
H1995 C1978 0.931 . S
N1996 C1958 1.343 . S
N1996 C1979 1.343 . S
N1997 C1965 1.343 . S
N1997 C1972 1.343 . S
C1998 C1999 1.384 . S
C1998 C2000 1.384 . S
C1998 H2026 0.931 . S
C1999 C1998 1.384 . S
C1999 C2002 1.382 1_655 S
C2000 C1998 1.384 . S
C2000 C2001 1.406 . S
C2000 H2027 0.930 . S
C2001 C2000 1.406 . S
C2001 C2003 1.368 1_655 S
C2001 C2004 1.472 1_655 S
C2002 C1999 1.382 1_455 S
C2002 C2003 1.387 . S
C2002 H2028 0.930 . S
C2003 C2001 1.368 1_455 S
C2003 C2002 1.387 . S
C2003 H2029 0.931 . S
C2004 C2001 1.472 1_455 S
C2004 C2011 1.399 1_455 S
C2004 N2042 1.347 . S
C2005 C2006 1.384 . S
C2005 C2007 1.384 . S
C2005 H2030 0.931 . S
C2006 C2005 1.384 . S
C2006 C2009 1.382 1_455 S
C2007 C2005 1.384 . S
C2007 C2008 1.385 . S
C2007 H2031 0.930 . S
C2008 C2007 1.385 . S
C2008 C2010 1.372 1_455 S
C2008 C2011 1.496 1_455 S
C2009 C2006 1.382 1_655 S
C2009 C2010 1.387 . S
C2009 H2032 0.930 . S
C2010 C2008 1.372 1_655 S
C2010 C2009 1.387 . S
C2010 H2033 0.931 . S
C2011 C2004 1.399 1_655 S
C2011 C2008 1.496 1_655 S
C2011 N2043 1.362 . S
C2012 C2013 1.384 . S
C2012 C2014 1.384 . S
C2012 H2034 0.931 . S
C2013 C2012 1.384 . S
C2013 C2016 1.382 1_455 S
C2014 C2012 1.384 . S
C2014 C2015 1.419 . S
C2014 H2035 0.930 . S
C2015 C2014 1.419 . S
C2015 C2017 1.362 1_455 S
C2015 C2018 1.472 1_455 S
C2016 C2013 1.382 1_655 S
C2016 C2017 1.387 . S
C2016 H2036 0.930 . S
C2017 C2015 1.362 1_655 S
C2017 C2016 1.387 . S
C2017 H2037 0.931 . S
C2018 C2015 1.472 1_655 S
C2018 C2025 1.399 1_655 S
C2018 N2043 1.318 . S
C2019 C2020 1.384 . S
C2019 C2021 1.384 . S
C2019 H2038 0.931 . S
C2020 C2019 1.384 . S
C2020 C2023 1.382 1_655 S
C2021 C2019 1.384 . S
C2021 C2022 1.382 . S
C2021 H2039 0.930 . S
C2022 C2021 1.382 . S
C2022 C2024 1.380 1_655 S
C2022 C2025 1.496 1_655 S
C2023 C2020 1.382 1_455 S
C2023 C2024 1.387 . S
C2023 H2040 0.930 . S
C2024 C2022 1.380 1_455 S
C2024 C2023 1.387 . S
C2024 H2041 0.931 . S
C2025 C2018 1.399 1_455 S
C2025 C2022 1.496 1_455 S
C2025 N2042 1.335 . S
H2026 C1998 0.931 . S
H2027 C2000 0.930 . S
H2028 C2002 0.930 . S
H2029 C2003 0.931 . S
H2030 C2005 0.931 . S
H2031 C2007 0.930 . S
H2032 C2009 0.930 . S
H2033 C2010 0.931 . S
H2034 C2012 0.931 . S
H2035 C2014 0.930 . S
H2036 C2016 0.930 . S
H2037 C2017 0.931 . S
H2038 C2019 0.931 . S
H2039 C2021 0.930 . S
H2040 C2023 0.930 . S
H2041 C2024 0.931 . S
N2042 C2004 1.347 . S
N2042 C2025 1.335 . S
N2043 C2011 1.362 . S
N2043 C2018 1.318 . S
C2044 C2045 1.384 . S
C2044 C2046 1.384 . S
C2044 H2072 0.931 . S
C2045 C2044 1.384 . S
C2045 C2048 1.382 . S
C2046 C2044 1.384 . S
C2046 C2047 1.381 . S
C2046 H2073 0.930 . S
C2047 C2046 1.381 . S
C2047 C2049 1.381 . S
C2047 C2050 1.487 . S
C2048 C2045 1.382 . S
C2048 C2049 1.387 . S
C2048 H2074 0.930 . S
C2049 C2047 1.381 . S
C2049 C2048 1.387 . S
C2049 H2075 0.931 . S
C2050 C2047 1.487 . S
C2050 C2057 1.399 . S
C2050 N2088 1.343 . S
C2051 C2052 1.384 . S
C2051 C2053 1.384 . S
C2051 H2076 0.931 . S
C2052 C2051 1.384 . S
C2052 C2055 1.382 . S
C2053 C2051 1.384 . S
C2053 C2054 1.381 . S
C2053 H2077 0.930 . S
C2054 C2053 1.381 . S
C2054 C2056 1.381 . S
C2054 C2057 1.487 . S
C2055 C2052 1.382 . S
C2055 C2056 1.387 . S
C2055 H2078 0.930 . S
C2056 C2054 1.381 . S
C2056 C2055 1.387 . S
C2056 H2079 0.931 . S
C2057 C2050 1.399 . S
C2057 C2054 1.487 . S
C2057 N2089 1.343 . S
C2058 C2059 1.384 . S
C2058 C2060 1.384 . S
C2058 H2080 0.931 . S
C2059 C2058 1.384 . S
C2059 C2062 1.382 . S
C2060 C2058 1.384 . S
C2060 C2061 1.381 . S
C2060 H2081 0.930 . S
C2061 C2060 1.381 . S
C2061 C2063 1.381 . S
C2061 C2064 1.487 . S
C2062 C2059 1.382 . S
C2062 C2063 1.387 . S
C2062 H2082 0.930 . S
C2063 C2061 1.381 . S
C2063 C2062 1.387 . S
C2063 H2083 0.931 . S
C2064 C2061 1.487 . S
C2064 C2071 1.399 . S
C2064 N2089 1.343 . S
C2065 C2066 1.384 . S
C2065 C2067 1.384 . S
C2065 H2084 0.931 . S
C2066 C2065 1.384 . S
C2066 C2069 1.382 . S
C2067 C2065 1.384 . S
C2067 C2068 1.381 . S
C2067 H2085 0.930 . S
C2068 C2067 1.381 . S
C2068 C2070 1.381 . S
C2068 C2071 1.487 . S
C2069 C2066 1.382 . S
C2069 C2070 1.387 . S
C2069 H2086 0.930 . S
C2070 C2068 1.381 . S
C2070 C2069 1.387 . S
C2070 H2087 0.931 . S
C2071 C2064 1.399 . S
C2071 C2068 1.487 . S
C2071 N2088 1.343 . S
H2072 C2044 0.931 . S
H2073 C2046 0.930 . S
H2074 C2048 0.930 . S
H2075 C2049 0.931 . S
H2076 C2051 0.931 . S
H2077 C2053 0.930 . S
H2078 C2055 0.930 . S
H2079 C2056 0.931 . S
H2080 C2058 0.931 . S
H2081 C2060 0.930 . S
H2082 C2062 0.930 . S
H2083 C2063 0.931 . S
H2084 C2065 0.931 . S
H2085 C2067 0.930 . S
H2086 C2069 0.930 . S
H2087 C2070 0.931 . S
N2088 C2050 1.343 . S
N2088 C2071 1.343 . S
N2089 C2057 1.343 . S
N2089 C2064 1.343 . S
C2090 C2091 1.384 1_545 S
C2090 C2092 1.384 . S
C2090 H2118 0.931 . S
C2091 C2090 1.384 1_565 S
C2091 C2094 1.382 . S
C2092 C2090 1.384 . S
C2092 C2093 1.381 1_545 S
C2092 H2119 0.930 . S
C2093 C2092 1.381 1_565 S
C2093 C2095 1.381 . S
C2093 C2096 1.487 . S
C2094 C2091 1.382 . S
C2094 C2095 1.387 . S
C2094 H2120 0.930 . S
C2095 C2093 1.381 . S
C2095 C2094 1.387 . S
C2095 H2121 0.931 . S
C2096 C2093 1.487 . S
C2096 C2103 1.399 1_565 S
C2096 N2134 1.343 . S
C2097 C2098 1.384 1_565 S
C2097 C2099 1.384 . S
C2097 H2122 0.931 . S
C2098 C2097 1.384 1_545 S
C2098 C2101 1.382 . S
C2099 C2097 1.384 . S
C2099 C2100 1.381 1_565 S
C2099 H2123 0.930 . S
C2100 C2099 1.381 1_545 S
C2100 C2102 1.381 . S
C2100 C2103 1.487 . S
C2101 C2098 1.382 . S
C2101 C2102 1.387 . S
C2101 H2124 0.930 . S
C2102 C2100 1.381 . S
C2102 C2101 1.387 . S
C2102 H2125 0.931 . S
C2103 C2096 1.399 1_545 S
C2103 C2100 1.487 . S
C2103 N2135 1.343 . S
C2104 C2105 1.384 1_565 S
C2104 C2106 1.384 . S
C2104 H2126 0.931 . S
C2105 C2104 1.384 1_545 S
C2105 C2108 1.382 . S
C2106 C2104 1.384 . S
C2106 C2107 1.381 1_565 S
C2106 H2127 0.930 . S
C2107 C2106 1.381 1_545 S
C2107 C2109 1.381 . S
C2107 C2110 1.487 . S
C2108 C2105 1.382 . S
C2108 C2109 1.387 . S
C2108 H2128 0.930 . S
C2109 C2107 1.381 . S
C2109 C2108 1.387 . S
C2109 H2129 0.931 . S
C2110 C2107 1.487 . S
C2110 C2117 1.399 1_545 S
C2110 N2135 1.343 . S
C2111 C2112 1.384 1_545 S
C2111 C2113 1.384 . S
C2111 H2130 0.931 . S
C2112 C2111 1.384 1_565 S
C2112 C2115 1.382 . S
C2113 C2111 1.384 . S
C2113 C2114 1.381 1_545 S
C2113 H2131 0.930 . S
C2114 C2113 1.381 1_565 S
C2114 C2116 1.381 . S
C2114 C2117 1.487 . S
C2115 C2112 1.382 . S
C2115 C2116 1.387 . S
C2115 H2132 0.930 . S
C2116 C2114 1.381 . S
C2116 C2115 1.387 . S
C2116 H2133 0.931 . S
C2117 C2110 1.399 1_565 S
C2117 C2114 1.487 . S
C2117 N2134 1.343 . S
H2118 C2090 0.931 . S
H2119 C2092 0.930 . S
H2120 C2094 0.930 . S
H2121 C2095 0.931 . S
H2122 C2097 0.931 . S
H2123 C2099 0.930 . S
H2124 C2101 0.930 . S
H2125 C2102 0.931 . S
H2126 C2104 0.931 . S
H2127 C2106 0.930 . S
H2128 C2108 0.930 . S
H2129 C2109 0.931 . S
H2130 C2111 0.931 . S
H2131 C2113 0.930 . S
H2132 C2115 0.930 . S
H2133 C2116 0.931 . S
N2134 C2096 1.343 . S
N2134 C2117 1.343 . S
N2135 C2103 1.343 . S
N2135 C2110 1.343 . S
C2136 C2137 1.384 . S
C2136 C2138 1.384 . S
C2136 H2164 0.931 . S
C2137 C2136 1.384 . S
C2137 C2140 1.382 1_545 S
C2138 C2136 1.384 . S
C2138 C2139 1.385 . S
C2138 H2165 0.930 . S
C2139 C2138 1.385 . S
C2139 C2141 1.372 1_545 S
C2139 C2142 1.496 1_545 S
C2140 C2137 1.382 1_565 S
C2140 C2141 1.387 . S
C2140 H2166 0.930 . S
C2141 C2139 1.372 1_565 S
C2141 C2140 1.387 . S
C2141 H2167 0.931 . S
C2142 C2139 1.496 1_565 S
C2142 C2149 1.399 1_565 S
C2142 N2180 1.362 . S
C2143 C2144 1.384 . S
C2143 C2145 1.384 . S
C2143 H2168 0.931 . S
C2144 C2143 1.384 . S
C2144 C2147 1.382 1_565 S
C2145 C2143 1.384 . S
C2145 C2146 1.406 . S
C2145 H2169 0.930 . S
C2146 C2145 1.406 . S
C2146 C2148 1.368 1_565 S
C2146 C2149 1.472 1_565 S
C2147 C2144 1.382 1_545 S
C2147 C2148 1.387 . S
C2147 H2170 0.930 . S
C2148 C2146 1.368 1_545 S
C2148 C2147 1.387 . S
C2148 H2171 0.931 . S
C2149 C2142 1.399 1_545 S
C2149 C2146 1.472 1_545 S
C2149 N2181 1.347 . S
C2150 C2151 1.384 . S
C2150 C2152 1.384 . S
C2150 H2172 0.931 . S
C2151 C2150 1.384 . S
C2151 C2154 1.382 1_565 S
C2152 C2150 1.384 . S
C2152 C2153 1.382 . S
C2152 H2173 0.930 . S
C2153 C2152 1.382 . S
C2153 C2155 1.380 1_565 S
C2153 C2156 1.496 1_565 S
C2154 C2151 1.382 1_545 S
C2154 C2155 1.387 . S
C2154 H2174 0.930 . S
C2155 C2153 1.380 1_545 S
C2155 C2154 1.387 . S
C2155 H2175 0.931 . S
C2156 C2153 1.496 1_545 S
C2156 C2163 1.399 1_545 S
C2156 N2181 1.335 . S
C2157 C2158 1.384 . S
C2157 C2159 1.384 . S
C2157 H2176 0.931 . S
C2158 C2157 1.384 . S
C2158 C2161 1.382 1_545 S
C2159 C2157 1.384 . S
C2159 C2160 1.419 . S
C2159 H2177 0.930 . S
C2160 C2159 1.419 . S
C2160 C2162 1.362 1_545 S
C2160 C2163 1.472 1_545 S
C2161 C2158 1.382 1_565 S
C2161 C2162 1.387 . S
C2161 H2178 0.930 . S
C2162 C2160 1.362 1_565 S
C2162 C2161 1.387 . S
C2162 H2179 0.931 . S
C2163 C2156 1.399 1_565 S
C2163 C2160 1.472 1_565 S
C2163 N2180 1.318 . S
H2164 C2136 0.931 . S
H2165 C2138 0.930 . S
H2166 C2140 0.930 . S
H2167 C2141 0.931 . S
H2168 C2143 0.931 . S
H2169 C2145 0.930 . S
H2170 C2147 0.930 . S
H2171 C2148 0.931 . S
H2172 C2150 0.931 . S
H2173 C2152 0.930 . S
H2174 C2154 0.930 . S
H2175 C2155 0.931 . S
H2176 C2157 0.931 . S
H2177 C2159 0.930 . S
H2178 C2161 0.930 . S
H2179 C2162 0.931 . S
N2180 C2142 1.362 . S
N2180 C2163 1.318 . S
N2181 C2149 1.347 . S
N2181 C2156 1.335 . S
C2182 C2183 1.384 . S
C2182 C2184 1.384 . S
C2182 H2210 0.931 . S
C2183 C2182 1.384 . S
C2183 C2186 1.382 1_655 S
C2184 C2182 1.384 . S
C2184 C2185 1.424 . S
C2184 H2211 0.930 . S
C2185 C2184 1.424 . S
C2185 C2187 1.360 1_655 S
C2185 C2188 1.465 . S
C2186 C2183 1.382 1_455 S
C2186 C2187 1.387 . S
C2186 H2212 0.930 . S
C2187 C2185 1.360 1_455 S
C2187 C2186 1.387 . S
C2187 H2213 0.931 . S
C2188 C2185 1.465 . S
C2188 C2195 1.399 . S
C2188 N2226 1.325 1_655 S
C2189 C2190 1.384 . S
C2189 C2191 1.384 . S
C2189 H2214 0.931 . S
C2190 C2189 1.384 . S
C2190 C2193 1.382 1_455 S
C2191 C2189 1.384 . S
C2191 C2192 1.383 . S
C2191 H2215 0.930 . S
C2192 C2191 1.383 . S
C2192 C2194 1.377 1_455 S
C2192 C2195 1.498 1_455 S
C2193 C2190 1.382 1_655 S
C2193 C2194 1.387 . S
C2193 H2216 0.930 . S
C2194 C2192 1.377 1_655 S
C2194 C2193 1.387 . S
C2194 H2217 0.931 . S
C2195 C2188 1.399 . S
C2195 C2192 1.498 1_655 S
C2195 N2227 1.336 . S
C2196 C2197 1.384 . S
C2196 C2198 1.384 . S
C2196 H2218 0.931 . S
C2197 C2196 1.384 . S
C2197 C2200 1.382 1_455 S
C2198 C2196 1.384 . S
C2198 C2199 1.412 . S
C2198 H2219 0.930 . S
C2199 C2198 1.412 . S
C2199 C2201 1.366 1_455 S
C2199 C2202 1.470 1_455 S
C2200 C2197 1.382 1_655 S
C2200 C2201 1.387 . S
C2200 H2220 0.930 . S
C2201 C2199 1.366 1_655 S
C2201 C2200 1.387 . S
C2201 H2221 0.931 . S
C2202 C2199 1.470 1_655 S
C2202 C2209 1.399 1_655 S
C2202 N2227 1.346 . S
C2203 C2204 1.384 . S
C2203 C2205 1.384 . S
C2203 H2222 0.931 . S
C2204 C2203 1.384 . S
C2204 C2207 1.382 1_655 S
C2205 C2203 1.384 . S
C2205 C2206 1.386 . S
C2205 H2223 0.930 . S
C2206 C2205 1.386 . S
C2206 C2208 1.370 1_655 S
C2206 C2209 1.498 1_655 S
C2207 C2204 1.382 1_455 S
C2207 C2208 1.387 . S
C2207 H2224 0.930 . S
C2208 C2206 1.370 1_455 S
C2208 C2207 1.387 . S
C2208 H2225 0.931 . S
C2209 C2202 1.399 1_455 S
C2209 C2206 1.498 1_455 S
C2209 N2226 1.360 . S
H2210 C2182 0.931 . S
H2211 C2184 0.930 . S
H2212 C2186 0.930 . S
H2213 C2187 0.931 . S
H2214 C2189 0.931 . S
H2215 C2191 0.930 . S
H2216 C2193 0.930 . S
H2217 C2194 0.931 . S
H2218 C2196 0.931 . S
H2219 C2198 0.930 . S
H2220 C2200 0.930 . S
H2221 C2201 0.931 . S
H2222 C2203 0.931 . S
H2223 C2205 0.930 . S
H2224 C2207 0.930 . S
H2225 C2208 0.931 . S
N2226 C2188 1.325 1_455 S
N2226 C2209 1.360 . S
N2227 C2195 1.336 . S
N2227 C2202 1.346 . S
C2228 C2229 1.384 . S
C2228 C2230 1.384 . S
C2228 H2256 0.931 . S
C2229 C2228 1.384 . S
C2229 C2232 1.382 . S
C2230 C2228 1.384 . S
C2230 C2231 1.381 . S
C2230 H2257 0.930 . S
C2231 C2230 1.381 . S
C2231 C2233 1.381 . S
C2231 C2234 1.487 . S
C2232 C2229 1.382 . S
C2232 C2233 1.387 . S
C2232 H2258 0.930 . S
C2233 C2231 1.381 . S
C2233 C2232 1.387 . S
C2233 H2259 0.931 . S
C2234 C2231 1.487 . S
C2234 C2241 1.399 . S
C2234 N2272 1.343 . S
C2235 C2236 1.384 . S
C2235 C2237 1.384 . S
C2235 H2260 0.931 . S
C2236 C2235 1.384 . S
C2236 C2239 1.382 . S
C2237 C2235 1.384 . S
C2237 C2238 1.381 . S
C2237 H2261 0.930 . S
C2238 C2237 1.381 . S
C2238 C2240 1.381 . S
C2238 C2241 1.487 . S
C2239 C2236 1.382 . S
C2239 C2240 1.387 . S
C2239 H2262 0.930 . S
C2240 C2238 1.381 . S
C2240 C2239 1.387 . S
C2240 H2263 0.931 . S
C2241 C2234 1.399 . S
C2241 C2238 1.487 . S
C2241 N2273 1.343 . S
C2242 C2243 1.384 . S
C2242 C2244 1.384 . S
C2242 H2264 0.931 . S
C2243 C2242 1.384 . S
C2243 C2246 1.382 . S
C2244 C2242 1.384 . S
C2244 C2245 1.381 . S
C2244 H2265 0.930 . S
C2245 C2244 1.381 . S
C2245 C2247 1.381 . S
C2245 C2248 1.487 . S
C2246 C2243 1.382 . S
C2246 C2247 1.387 . S
C2246 H2266 0.930 . S
C2247 C2245 1.381 . S
C2247 C2246 1.387 . S
C2247 H2267 0.931 . S
C2248 C2245 1.487 . S
C2248 C2255 1.399 . S
C2248 N2273 1.343 . S
C2249 C2250 1.384 . S
C2249 C2251 1.384 . S
C2249 H2268 0.931 . S
C2250 C2249 1.384 . S
C2250 C2253 1.382 . S
C2251 C2249 1.384 . S
C2251 C2252 1.381 . S
C2251 H2269 0.930 . S
C2252 C2251 1.381 . S
C2252 C2254 1.381 . S
C2252 C2255 1.487 . S
C2253 C2250 1.382 . S
C2253 C2254 1.387 . S
C2253 H2270 0.930 . S
C2254 C2252 1.381 . S
C2254 C2253 1.387 . S
C2254 H2271 0.931 . S
C2255 C2248 1.399 . S
C2255 C2252 1.487 . S
C2255 N2272 1.343 . S
H2256 C2228 0.931 . S
H2257 C2230 0.930 . S
H2258 C2232 0.930 . S
H2259 C2233 0.931 . S
H2260 C2235 0.931 . S
H2261 C2237 0.930 . S
H2262 C2239 0.930 . S
H2263 C2240 0.931 . S
H2264 C2242 0.931 . S
H2265 C2244 0.930 . S
H2266 C2246 0.930 . S
H2267 C2247 0.931 . S
H2268 C2249 0.931 . S
H2269 C2251 0.930 . S
H2270 C2253 0.930 . S
H2271 C2254 0.931 . S
N2272 C2234 1.343 . S
N2272 C2255 1.343 . S
N2273 C2241 1.343 . S
N2273 C2248 1.343 . S
C2274 C2275 1.384 . S
C2274 C2276 1.384 . S
C2274 H2302 0.931 . S
C2275 C2274 1.384 . S
C2275 C2278 1.382 . S
C2276 C2274 1.384 . S
C2276 C2277 1.381 . S
C2276 H2303 0.930 . S
C2277 C2276 1.381 . S
C2277 C2279 1.381 . S
C2277 C2280 1.487 . S
C2278 C2275 1.382 . S
C2278 C2279 1.387 . S
C2278 H2304 0.930 . S
C2279 C2277 1.381 . S
C2279 C2278 1.387 . S
C2279 H2305 0.931 . S
C2280 C2277 1.487 . S
C2280 C2287 1.399 . S
C2280 N2318 1.343 . S
C2281 C2282 1.384 . S
C2281 C2283 1.384 . S
C2281 H2306 0.931 . S
C2282 C2281 1.384 . S
C2282 C2285 1.382 . S
C2283 C2281 1.384 . S
C2283 C2284 1.381 . S
C2283 H2307 0.930 . S
C2284 C2283 1.381 . S
C2284 C2286 1.381 . S
C2284 C2287 1.487 . S
C2285 C2282 1.382 . S
C2285 C2286 1.387 . S
C2285 H2308 0.930 . S
C2286 C2284 1.381 . S
C2286 C2285 1.387 . S
C2286 H2309 0.931 . S
C2287 C2280 1.399 . S
C2287 C2284 1.487 . S
C2287 N2319 1.343 . S
C2288 C2289 1.384 . S
C2288 C2290 1.384 . S
C2288 H2310 0.931 . S
C2289 C2288 1.384 . S
C2289 C2292 1.382 . S
C2290 C2288 1.384 . S
C2290 C2291 1.381 . S
C2290 H2311 0.930 . S
C2291 C2290 1.381 . S
C2291 C2293 1.381 . S
C2291 C2294 1.487 . S
C2292 C2289 1.382 . S
C2292 C2293 1.387 . S
C2292 H2312 0.930 . S
C2293 C2291 1.381 . S
C2293 C2292 1.387 . S
C2293 H2313 0.931 . S
C2294 C2291 1.487 . S
C2294 C2301 1.399 . S
C2294 N2319 1.343 . S
C2295 C2296 1.384 . S
C2295 C2297 1.384 . S
C2295 H2314 0.931 . S
C2296 C2295 1.384 . S
C2296 C2299 1.382 . S
C2297 C2295 1.384 . S
C2297 C2298 1.381 . S
C2297 H2315 0.930 . S
C2298 C2297 1.381 . S
C2298 C2300 1.381 . S
C2298 C2301 1.487 . S
C2299 C2296 1.382 . S
C2299 C2300 1.387 . S
C2299 H2316 0.930 . S
C2300 C2298 1.381 . S
C2300 C2299 1.387 . S
C2300 H2317 0.931 . S
C2301 C2294 1.399 . S
C2301 C2298 1.487 . S
C2301 N2318 1.343 . S
H2302 C2274 0.931 . S
H2303 C2276 0.930 . S
H2304 C2278 0.930 . S
H2305 C2279 0.931 . S
H2306 C2281 0.931 . S
H2307 C2283 0.930 . S
H2308 C2285 0.930 . S
H2309 C2286 0.931 . S
H2310 C2288 0.931 . S
H2311 C2290 0.930 . S
H2312 C2292 0.930 . S
H2313 C2293 0.931 . S
H2314 C2295 0.931 . S
H2315 C2297 0.930 . S
H2316 C2299 0.930 . S
H2317 C2300 0.931 . S
N2318 C2280 1.343 . S
N2318 C2301 1.343 . S
N2319 C2287 1.343 . S
N2319 C2294 1.343 . S
C2320 C2321 1.384 . S
C2320 C2322 1.384 . S
C2320 H2348 0.931 . S
C2321 C2320 1.384 . S
C2321 C2324 1.382 . S
C2322 C2320 1.384 . S
C2322 C2323 1.381 . S
C2322 H2349 0.930 . S
C2323 C2322 1.381 . S
C2323 C2325 1.381 . S
C2323 C2326 1.487 . S
C2324 C2321 1.382 . S
C2324 C2325 1.387 . S
C2324 H2350 0.930 . S
C2325 C2323 1.381 . S
C2325 C2324 1.387 . S
C2325 H2351 0.931 . S
C2326 C2323 1.487 . S
C2326 C2333 1.399 . S
C2326 N2364 1.343 . S
C2327 C2328 1.384 . S
C2327 C2329 1.384 . S
C2327 H2352 0.931 . S
C2328 C2327 1.384 . S
C2328 C2331 1.382 . S
C2329 C2327 1.384 . S
C2329 C2330 1.381 . S
C2329 H2353 0.930 . S
C2330 C2329 1.381 . S
C2330 C2332 1.381 . S
C2330 C2333 1.487 . S
C2331 C2328 1.382 . S
C2331 C2332 1.387 . S
C2331 H2354 0.930 . S
C2332 C2330 1.381 . S
C2332 C2331 1.387 . S
C2332 H2355 0.931 . S
C2333 C2326 1.399 . S
C2333 C2330 1.487 . S
C2333 N2365 1.343 . S
C2334 C2335 1.384 . S
C2334 C2336 1.384 . S
C2334 H2356 0.931 . S
C2335 C2334 1.384 . S
C2335 C2338 1.382 . S
C2336 C2334 1.384 . S
C2336 C2337 1.381 . S
C2336 H2357 0.930 . S
C2337 C2336 1.381 . S
C2337 C2339 1.381 . S
C2337 C2340 1.487 . S
C2338 C2335 1.382 . S
C2338 C2339 1.387 . S
C2338 H2358 0.930 . S
C2339 C2337 1.381 . S
C2339 C2338 1.387 . S
C2339 H2359 0.931 . S
C2340 C2337 1.487 . S
C2340 C2347 1.399 . S
C2340 N2365 1.343 . S
C2341 C2342 1.384 . S
C2341 C2343 1.384 . S
C2341 H2360 0.931 . S
C2342 C2341 1.384 . S
C2342 C2345 1.382 . S
C2343 C2341 1.384 . S
C2343 C2344 1.381 . S
C2343 H2361 0.930 . S
C2344 C2343 1.381 . S
C2344 C2346 1.381 . S
C2344 C2347 1.487 . S
C2345 C2342 1.382 . S
C2345 C2346 1.387 . S
C2345 H2362 0.930 . S
C2346 C2344 1.381 . S
C2346 C2345 1.387 . S
C2346 H2363 0.931 . S
C2347 C2340 1.399 . S
C2347 C2344 1.487 . S
C2347 N2364 1.343 . S
H2348 C2320 0.931 . S
H2349 C2322 0.930 . S
H2350 C2324 0.930 . S
H2351 C2325 0.931 . S
H2352 C2327 0.931 . S
H2353 C2329 0.930 . S
H2354 C2331 0.930 . S
H2355 C2332 0.931 . S
H2356 C2334 0.931 . S
H2357 C2336 0.930 . S
H2358 C2338 0.930 . S
H2359 C2339 0.931 . S
H2360 C2341 0.931 . S
H2361 C2343 0.930 . S
H2362 C2345 0.930 . S
H2363 C2346 0.931 . S
N2364 C2326 1.343 . S
N2364 C2347 1.343 . S
N2365 C2333 1.343 . S
N2365 C2340 1.343 . S
C2366 C2367 1.384 . S
C2366 C2368 1.384 . S
C2366 H2394 0.931 . S
C2367 C2366 1.384 . S
C2367 C2370 1.382 . S
C2368 C2366 1.384 . S
C2368 C2369 1.381 . S
C2368 H2395 0.930 . S
C2369 C2368 1.381 . S
C2369 C2371 1.381 . S
C2369 C2372 1.487 . S
C2370 C2367 1.382 . S
C2370 C2371 1.387 . S
C2370 H2396 0.930 . S
C2371 C2369 1.381 . S
C2371 C2370 1.387 . S
C2371 H2397 0.931 . S
C2372 C2369 1.487 . S
C2372 C2379 1.399 . S
C2372 N2410 1.343 . S
C2373 C2374 1.384 . S
C2373 C2375 1.384 . S
C2373 H2398 0.931 . S
C2374 C2373 1.384 . S
C2374 C2377 1.382 . S
C2375 C2373 1.384 . S
C2375 C2376 1.381 . S
C2375 H2399 0.930 . S
C2376 C2375 1.381 . S
C2376 C2378 1.381 . S
C2376 C2379 1.487 . S
C2377 C2374 1.382 . S
C2377 C2378 1.387 . S
C2377 H2400 0.930 . S
C2378 C2376 1.381 . S
C2378 C2377 1.387 . S
C2378 H2401 0.931 . S
C2379 C2372 1.399 . S
C2379 C2376 1.487 . S
C2379 N2411 1.343 . S
C2380 C2381 1.384 . S
C2380 C2382 1.384 . S
C2380 H2402 0.931 . S
C2381 C2380 1.384 . S
C2381 C2384 1.382 . S
C2382 C2380 1.384 . S
C2382 C2383 1.381 . S
C2382 H2403 0.930 . S
C2383 C2382 1.381 . S
C2383 C2385 1.381 . S
C2383 C2386 1.487 . S
C2384 C2381 1.382 . S
C2384 C2385 1.387 . S
C2384 H2404 0.930 . S
C2385 C2383 1.381 . S
C2385 C2384 1.387 . S
C2385 H2405 0.931 . S
C2386 C2383 1.487 . S
C2386 C2393 1.399 . S
C2386 N2411 1.343 . S
C2387 C2388 1.384 . S
C2387 C2389 1.384 . S
C2387 H2406 0.931 . S
C2388 C2387 1.384 . S
C2388 C2391 1.382 . S
C2389 C2387 1.384 . S
C2389 C2390 1.381 . S
C2389 H2407 0.930 . S
C2390 C2389 1.381 . S
C2390 C2392 1.381 . S
C2390 C2393 1.487 . S
C2391 C2388 1.382 . S
C2391 C2392 1.387 . S
C2391 H2408 0.930 . S
C2392 C2390 1.381 . S
C2392 C2391 1.387 . S
C2392 H2409 0.931 . S
C2393 C2386 1.399 . S
C2393 C2390 1.487 . S
C2393 N2410 1.343 . S
H2394 C2366 0.931 . S
H2395 C2368 0.930 . S
H2396 C2370 0.930 . S
H2397 C2371 0.931 . S
H2398 C2373 0.931 . S
H2399 C2375 0.930 . S
H2400 C2377 0.930 . S
H2401 C2378 0.931 . S
H2402 C2380 0.931 . S
H2403 C2382 0.930 . S
H2404 C2384 0.930 . S
H2405 C2385 0.931 . S
H2406 C2387 0.931 . S
H2407 C2389 0.930 . S
H2408 C2391 0.930 . S
H2409 C2392 0.931 . S
N2410 C2372 1.343 . S
N2410 C2393 1.343 . S
N2411 C2379 1.343 . S
N2411 C2386 1.343 . S
C49 C2020 2.359 . S
C137 C2066 1.816 . S
C2098 C205 2.380 . S
C196 C2151 2.360 . S
C57 C2197 2.426 . S
C145 C2236 1.821 . S
C313 C2190 2.413 . S
C2243 C401 1.824 . S
C2144 C489 2.379 . S
C469 C2105 2.367 . S
C1999 C293 2.379 . S
C381 C2045 1.818 . S
C577 C2275 1.888 . S
C645 C2342 1.818 . S
C2388 C733 1.775 . S
C724 C1599 1.769 . S
C585 C1645 1.857 . S
C636 C1691 1.849 . S
C841 C1638 1.768 . S
C937 C1684 1.854 . S
C1592 C1025 1.863 . S
C2367 C988 1.885 . S
C2296 C821 1.793 . S
C2321 C900 1.823 . S
C1105 C1723 1.778 . S
C1193 C1776 1.864 . S
C1281 C1822 1.868 . S
C1289 C1868 1.889 . S
C1921 C1113 1.775 . S
C1967 C1201 1.818 . S
C1914 C1369 1.884 . S
C1960 C1457 1.823 . S
C1553 C1875 1.793 . S
C1829 C1516 1.778 . S
C1349 C1744 1.873 . S
C1783 C1437 1.869 . S
C1606 C29 2.727 . S
C117 C1652 2.427 . S
C1698 C225 2.800 . S
C1730 C233 2.668 . S
C1769 C20 2.739 . S
C1815 C108 2.363 . S
C321 C1836 2.652 . S
C409 C1737 2.363 . S
C497 C1790 2.776 . S
C460 C1631 2.712 . S
C1677 C284 2.837 . S
C372 C1585 2.427 . S
C1861 C557 2.289 . S
C665 C1928 2.242 . S
C753 C1974 2.275 . S
C2013 C761 1.190 . S
C548 C2059 2.300 . S
C673 C2091 1.157 . S
C849 C2112 1.154 . S
C929 C2006 1.192 . S
C2052 C1017 2.307 . S
C997 C1907 2.365 . S
C812 C1953 2.270 . S
C1882 C909 2.192 . S
C2158 C1085 1.190 . S
C1173 C2204 1.172 . S
C1261 C2229 2.237 . S
C2282 C1252 2.289 . S
C2335 C1076 2.274 . S
C1164 C2381 2.243 . S
C1377 C2374 2.365 . S
C1465 C2289 2.192 . S
C2328 C1545 2.270 . S
C2183 C1525 1.173 . S
C2250 C1340 2.244 . S
C1428 C2137 1.192 . S
