# Generated by pormake.
# Topology rtl, (3,6)-cn, num edge types: 1
# Building blocks:
#     Node 0, Type 0, BuildingBlock: BETDIP_clean_linker_0, # of connection points: 3
#     Node 1, Type 0, BuildingBlock: BETDIP_clean_linker_0, # of connection points: 3
#     Node 2, Type 0, BuildingBlock: BETDIP_clean_linker_0, # of connection points: 3
#     Node 3, Type 0, BuildingBlock: BETDIP_clean_linker_0, # of connection points: 3
#     Node 4, Type 1, BuildingBlock: KUMBOL_clean_sbu_1, # of connection points: 6
#     Node 5, Type 1, BuildingBlock: KUMBOL_clean_sbu_1, # of connection points: 6
#     Edge 6, Type (0, 1), BuildingBlock: EZIPEK_clean_linker_0, # of connection points: 2
#     Edge 7, Type (0, 1), BuildingBlock: EZIPEK_clean_linker_0, # of connection points: 2
#     Edge 8, Type (0, 1), BuildingBlock: EZIPEK_clean_linker_0, # of connection points: 2
#     Edge 9, Type (0, 1), BuildingBlock: EZIPEK_clean_linker_0, # of connection points: 2
#     Edge 10, Type (0, 1), BuildingBlock: EZIPEK_clean_linker_0, # of connection points: 2
#     Edge 11, Type (0, 1), BuildingBlock: EZIPEK_clean_linker_0, # of connection points: 2
#     Edge 12, Type (0, 1), BuildingBlock: EZIPEK_clean_linker_0, # of connection points: 2
#     Edge 13, Type (0, 1), BuildingBlock: EZIPEK_clean_linker_0, # of connection points: 2
#     Edge 14, Type (0, 1), BuildingBlock: EZIPEK_clean_linker_0, # of connection points: 2
#     Edge 15, Type (0, 1), BuildingBlock: EZIPEK_clean_linker_0, # of connection points: 2
#     Edge 16, Type (0, 1), BuildingBlock: EZIPEK_clean_linker_0, # of connection points: 2
#     Edge 17, Type (0, 1), BuildingBlock: EZIPEK_clean_linker_0, # of connection points: 2
# Relax obj value: 0.054
# Max RMSD: 0.240
# Mean RMSD: 0.172
data_MOF--net-rtl--node1-KUMBOL_clean_sbu_1--node2-BETDIP_clean_linker_0--edge1-EZIPEK_clean_linker_0
_symmetry_space_group_name_H-M    P1
_symmetry_Int_Tables_number       1
_symmetry_cell_setting            triclinic
loop_
_symmetry_equiv_pos_as_xyz
'x, y, z'
_cell_length_a     26.259694
_cell_length_b     26.634966
_cell_length_c     20.522477
_cell_angle_alpha  74.170898
_cell_angle_beta   99.809079
_cell_angle_gamma 91.797361
loop_
_atom_site_label
_atom_site_type_symbol
_atom_site_fract_x
_atom_site_fract_y
_atom_site_fract_z
_atom_type_partial_charge
H0 H 0.22226 0.84833 0.89029 0.0
H1 H 0.26234 0.81894 0.11022 0.0
H2 H 0.12492 0.90706 1.0029 0.0
H3 H 0.29628 0.74579 0.10154 0.0
C4 C 0.31274 0.75651 0.05467 0.0
C5 C 0.21427 0.85288 0.93851 0.0
C6 C 0.16994 0.88083 0.93922 0.0
C7 C 0.24703 0.82876 1.0 0.0
C8 C 0.23667 0.83545 0.06234 0.0
C9 C 0.19276 0.86366 0.06349 0.0
C10 C 0.15923 0.88582 1.00197 0.0
N11 N 0.28892 0.79689 0.99766 0.0
H12 H 0.70211 0.73889 0.79615 0.0
H13 H 0.71428 0.72681 0.59376 0.0
H14 H 0.61922 0.62051 0.7164 0.0
H15 H 0.72599 0.81601 0.57755 0.0
C16 C 0.75387 0.8161 0.62316 0.0
C17 C 0.69175 0.72022 0.75508 0.0
C18 C 0.65811 0.67751 0.76338 0.0
C19 C 0.712 0.73886 0.69373 0.0
C20 C 0.69834 0.71402 0.64077 0.0
C21 C 0.66491 0.67139 0.649 0.0
C22 C 0.64511 0.65341 0.7102 0.0
N23 N 0.74742 0.78102 0.68739 0.0
H24 H 0.80128 0.25039 0.98198 0.0
H25 H 0.81035 0.20637 0.20202 0.0
H26 H 0.91077 0.13261 0.11022 0.0
H27 H 0.78413 0.29092 0.18099 0.0
C28 C 0.75672 0.29786 0.13337 0.0
C29 C 0.81811 0.22658 0.03249 0.0
C30 C 0.85797 0.19056 0.03917 0.0
C31 C 0.80171 0.23388 0.09095 0.0
C32 C 0.82347 0.20257 0.15638 0.0
C33 C 0.86243 0.16577 0.16317 0.0
C34 C 0.87972 0.16017 0.10465 0.0
N35 N 0.76349 0.27293 0.08221 0.0
H36 H 0.30988 0.3102 0.35683 0.0
H37 H 0.28577 0.32019 0.55578 0.0
H38 H 0.38463 0.429 0.44369 0.0
H39 H 0.21128 0.28205 0.53 0.0
C40 C 0.2196 0.25534 0.50149 0.0
C41 C 0.31717 0.32878 0.3983 0.0
C42 C 0.35097 0.37135 0.39385 0.0
C43 C 0.2925 0.31037 0.45592 0.0
C44 C 0.30279 0.33447 0.50985 0.0
C45 C 0.33513 0.37781 0.50489 0.0
C46 C 0.35936 0.39569 0.44724 0.0
N47 N 0.2584 0.26729 0.45882 0.0
C48 C 0.91478 0.15877 0.44534 0.0
C49 C 0.82442 0.13533 0.42709 0.0
C50 C 0.87504 0.12496 0.46462 0.0
C51 C 0.81498 0.17797 0.36834 0.0
C52 C 0.90514 0.20222 0.38718 0.0
C53 C 0.85522 0.21123 0.3484 0.0
N54 N 0.96309 0.14883 0.483 0.0
C55 C 1.00261 0.1823 0.46801 0.0
C56 C 0.94601 0.23543 0.3697 0.0
C57 C 0.99484 0.22564 0.4106 0.0
Gd58 Gd 0.04469 0.9604 0.52448 0.0
Gd59 Gd 0.97226 0.07392 0.57638 0.0
N60 N 0.88538 0.08306 0.5209 0.0
C61 C 0.78447 0.10309 0.45037 0.0
C62 C 0.84564 0.05452 0.54698 0.0
C63 C 0.79501 0.06314 0.51124 0.0
H64 H 0.85223 0.02564 0.5961 0.0
H65 H 0.76399 0.03947 0.53133 0.0
H66 H 0.16515 0.01159 0.5494 0.0
H67 H 0.04017 0.17521 0.50008 0.0
H68 H 0.24515 0.99135 0.63293 0.0
H69 H 0.74513 0.10978 0.42297 0.0
H70 H 0.77649 0.18597 0.33847 0.0
H71 H 0.97623 0.85084 0.54883 0.0
H72 H 0.94014 0.26901 0.32516 0.0
H73 H 0.02646 0.25152 0.39803 0.0
H74 H 0.22068 0.81822 0.76985 0.0
H75 H 0.84719 0.24424 0.30334 0.0
H76 H 0.0633 0.73273 0.71066 0.0
H77 H 0.98399 0.76104 0.62505 0.0
N78 N 0.05016 0.87331 0.59137 0.0
C79 C 0.09428 0.85842 0.6375 0.0
C80 C 0.01088 0.83904 0.58631 0.0
C81 C 0.06014 0.77219 0.6773 0.0
C82 C 0.01526 0.78805 0.62915 0.0
C83 C 0.10037 0.80745 0.68196 0.0
H84 H 0.1512 0.75462 0.76491 0.0
N85 N 0.12634 0.94325 0.5963 0.0
C86 C 0.1332 0.89461 0.64071 0.0
C87 C 0.21946 0.9163 0.6866 0.0
C88 C 0.17964 0.88016 0.68775 0.0
C89 C 0.16707 0.97643 0.59065 0.0
C90 C 0.21353 0.96422 0.6368 0.0
O91 O 0.98562 0.07882 0.46964 0.0
O92 O 0.9734 0.99882 0.45166 0.0
O93 O 0.08741 0.97551 0.4393 0.0
O94 O 0.04383 0.9049 0.46379 0.0
O95 O 0.93528 0.9939 0.59852 0.0
O96 O 0.96018 0.94583 0.52963 0.0
O97 O 0.03703 0.94499 0.63624 0.0
O98 O 0.03727 0.02621 0.65311 0.0
O99 O 0.93868 0.07826 0.66519 0.0
O100 O 0.97319 0.14604 0.60566 0.0
O101 O 0.07805 0.04238 0.50644 0.0
O102 O 0.05873 0.08089 0.58764 0.0
C103 C 0.96339 0.04902 0.43256 0.0
C104 C 0.92967 0.9542 0.57073 0.0
C105 C 0.1173 0.90198 0.41269 0.0
C106 C 0.16096 0.87425 0.33218 0.0
C107 C 0.19238 0.84414 0.4549 0.0
C108 C 0.15305 0.87252 0.46752 0.0
C109 C 0.19632 0.84484 0.3876 0.0
C110 C 0.12149 0.90294 0.34494 0.0
C111 C 0.0752 0.93146 0.42518 0.0
C112 C 0.18546 0.82977 0.73301 0.0
C113 C 0.146 0.79347 0.72997 0.0
H114 H 0.25569 0.90675 0.7219 0.0
C115 C 0.04117 0.97521 0.67777 0.0
C116 C 0.08889 0.07508 0.54487 0.0
C117 C 0.97538 0.14062 0.72242 0.0
C118 C 0.96544 0.16133 0.82826 0.0
C119 C 0.05027 0.16346 0.79544 0.0
C120 C 0.02864 0.14984 0.73573 0.0
C121 C 0.01896 0.16894 0.84171 0.0
C122 C 0.9438 0.1471 0.76842 0.0
C123 C 0.95183 0.12663 0.65944 0.0
H124 H 0.21979 0.8214 0.49742 0.0
H125 H 0.15046 0.87129 0.51992 0.0
H126 H 0.22691 0.8225 0.37864 0.0
H127 H 0.09399 0.92559 0.30227 0.0
H128 H 0.09142 0.16983 0.80583 0.0
H129 H 0.05363 0.14576 0.70049 0.0
H130 H 0.03631 0.17978 0.88766 0.0
H131 H 0.90247 0.14141 0.75762 0.0
C132 C 0.68488 0.51088 0.17413 0.0
C133 C 0.72374 0.58764 0.10878 0.0
C134 C 0.68 0.56113 0.13156 0.0
C135 C 0.77175 0.56134 0.12582 0.0
C136 C 0.7336 0.4855 0.1954 0.0
C137 C 0.77667 0.51029 0.16906 0.0
N138 N 0.64272 0.48859 0.19943 0.0
C139 C 0.6476 0.44379 0.2521 0.0
C140 C 0.73793 0.43711 0.24487 0.0
C141 C 0.69497 0.41678 0.27456 0.0
Gd142 Gd 0.4661 0.48108 1.0064 0.0
Gd143 Gd 0.56338 0.53351 0.15365 0.0
N144 N 0.63301 0.58522 0.11605 0.0
C145 C 0.71816 0.64022 0.07142 0.0
C146 C 0.62854 0.63775 0.08556 0.0
C147 C 0.67057 0.66568 0.06108 0.0
H148 H 0.59202 0.65781 0.07851 0.0
H149 H 0.66628 0.70682 0.03456 0.0
H150 H 0.53881 0.39202 0.96864 0.0
H151 H 0.61424 0.42794 0.27476 0.0
H152 H 0.55377 0.29682 1.00572 0.0
H153 H 0.75073 0.66194 0.05268 0.0
H154 H 0.80564 0.58073 0.10782 0.0
H155 H 0.3422 0.49848 0.01047 0.0
H156 H 0.77463 0.41623 0.26245 0.0
H157 H 0.69826 0.38026 0.31447 0.0
H158 H 0.41744 0.23125 0.13361 0.0
H159 H 0.8143 0.49113 0.18392 0.0
H160 H 0.28425 0.35407 0.12274 0.0
H161 H 0.27162 0.44849 0.06432 0.0
N162 N 0.39465 0.43416 0.044 0.0
C163 C 0.4007 0.38191 0.0702 0.0
C164 C 0.34798 0.45766 0.03754 0.0
C165 C 0.31532 0.37609 0.10023 0.0
C166 C 0.30802 0.42935 0.06726 0.0
C167 C 0.36154 0.35133 0.09998 0.0
H168 H 0.3397 0.27283 0.14962 0.0
N169 N 0.47852 0.38983 0.02702 0.0
C170 C 0.44429 0.35883 0.06137 0.0
C171 C 0.49145 0.28172 0.06414 0.0
C172 C 0.45012 0.30402 0.08188 0.0
C173 C 0.51517 0.36788 1.00278 0.0
C174 C 0.5233 0.31377 0.02279 0.0
O175 O 0.55132 0.58104 0.04156 0.0
O176 O 0.54041 0.51996 0.98021 0.0
O177 O 0.4313 0.45919 0.91326 0.0
O178 O 0.43646 0.5411 0.91367 0.0
O179 O 0.49494 0.58809 0.10018 0.0
O180 O 0.43539 0.55387 0.02476 0.0
O181 O 0.44172 0.48053 0.10804 0.0
O182 O 0.51676 0.46066 0.18585 0.0
O183 O 0.52125 0.54683 0.22976 0.0
O184 O 0.60152 0.56663 0.23495 0.0
O185 O 0.55093 0.45789 0.02981 0.0
O186 O 0.57155 0.45148 0.1439 0.0
C187 C 0.55647 0.56558 0.98744 0.0
C188 C 0.45033 0.58931 0.0582 0.0
C189 C 0.39778 0.52424 0.80574 0.0
C190 C 0.36851 0.50487 0.69595 0.0
C191 C 0.36542 0.59394 0.70392 0.0
C192 C 0.38588 0.5773 0.77379 0.0
C193 C 0.35702 0.55803 0.66501 0.0
C194 C 0.38838 0.48797 0.7666 0.0
C195 C 0.42259 0.50768 0.87853 0.0
C196 C 0.4132 0.27336 0.11637 0.0
C197 C 0.36891 0.29702 0.12546 0.0
H198 H 0.49743 0.23979 0.07898 0.0
C199 C 0.46616 0.45966 0.17077 0.0
C200 C 0.58105 0.43943 0.08914 0.0
C201 C 0.57026 0.54019 0.3396 0.0
C202 C 0.5973 0.55151 0.45427 0.0
C203 C 0.5706 0.46646 0.44005 0.0
C204 C 0.56156 0.48713 0.3687 0.0
C205 C 0.58841 0.49843 0.48276 0.0
C206 C 0.58823 0.57222 0.38258 0.0
C207 C 0.56128 0.56285 0.26475 0.0
H208 H 0.35654 0.63489 0.67971 0.0
H209 H 0.39286 0.60611 0.80261 0.0
H210 H 0.34167 0.57166 0.61064 0.0
H211 H 0.39757 0.44695 0.79032 0.0
H212 H 0.56375 0.42557 0.46231 0.0
H213 H 0.54779 0.46179 0.33635 0.0
H214 H 0.59514 0.48191 0.53798 0.0
H215 H 0.59509 0.61322 0.36041 0.0
C216 C 0.19169 0.17336 0.58111 0.0
C217 C 0.19236 0.20448 0.5129 0.0
C218 C 0.1447 0.13692 0.46869 0.0
C219 C 0.13357 0.11188 0.53531 0.0
N220 N 0.15539 0.09995 0.65753 0.0
N221 N 0.16188 0.21929 0.39122 0.0
C222 C 0.1599 0.12832 0.59241 0.0
C223 C 0.16704 0.18713 0.4565 0.0
N224 N 0.22292 0.18587 0.63477 0.0
N225 N 0.13741 0.11215 0.41785 0.0
H226 H 0.17594 0.25718 0.37982 0.0
H227 H 0.13876 0.2102 0.34949 0.0
H228 H 0.12953 0.07265 0.42661 0.0
H229 H 0.14803 0.12833 0.3699 0.0
H230 H 0.22797 0.16262 0.68522 0.0
H231 H 0.2473 0.2179 0.62823 0.0
H232 H 0.16662 0.11319 0.70101 0.0
H233 H 0.13994 0.06259 0.66793 0.0
C234 C 0.39906 0.72673 0.03959 0.0
C235 C 0.34644 0.71659 0.04453 0.0
C236 C 0.3609 0.62397 0.05719 0.0
C237 C 0.41361 0.63372 0.04937 0.0
N238 N 0.47871 0.69753 0.01621 0.0
N239 N 0.27416 0.65936 0.03895 0.0
C240 C 0.43151 0.6861 0.03558 0.0
C241 C 0.32643 0.66643 0.04695 0.0
N242 N 0.41851 0.77466 0.04109 0.0
N243 N 0.34414 0.57423 0.07949 0.0
H244 H 0.24773 0.68969 0.03152 0.0
H245 H 0.2569 0.62486 0.03257 0.0
H246 H 0.36808 0.54174 0.09156 0.0
H247 H 0.30799 0.56529 0.09372 0.0
H248 H 0.45785 0.78266 0.04627 0.0
H249 H 0.39546 0.80567 0.04176 0.0
H250 H 0.49149 0.73546 0.99868 0.0
H251 H 0.50316 0.66947 0.01096 0.0
C252 C 0.82 0.87993 0.65827 0.0
C253 C 0.80102 0.84856 0.61402 0.0
C254 C 0.86175 0.88979 0.5375 0.0
C255 C 0.8857 0.91691 0.58598 0.0
N256 N 0.89447 0.92218 0.70421 0.0
N257 N 0.81471 0.81322 0.52199 0.0
C258 C 0.86691 0.90749 0.64983 0.0
C259 C 0.82536 0.85023 0.55708 0.0
N260 N 0.79252 0.88548 0.70676 0.0
N261 N 0.87061 0.90295 0.47124 0.0
H262 H 0.78924 0.78276 0.53544 0.0
H263 H 0.83562 0.8094 0.48468 0.0
H264 H 0.89406 0.93297 0.45059 0.0
H265 H 0.84933 0.88767 0.43353 0.0
H266 H 0.80222 0.91232 0.73538 0.0
H267 H 0.75712 0.86769 0.71317 0.0
H268 H 0.88413 0.91153 0.75293 0.0
H269 H 0.93076 0.93886 0.7042 0.0
C270 C 0.70293 0.37605 0.06151 0.0
C271 C 0.71206 0.33407 0.12179 0.0
C272 C 0.63265 0.35704 0.15568 0.0
C273 C 0.62364 0.40037 0.09595 0.0
N274 N 0.64238 0.43717 0.97982 0.0
N275 N 0.69068 0.28894 0.23219 0.0
C276 C 0.65629 0.40596 0.04519 0.0
C277 C 0.67851 0.32599 0.17068 0.0
N278 N 0.74086 0.39024 0.0221 0.0
N279 N 0.59462 0.34208 0.1944 0.0
H280 H 0.72195 0.26302 0.24375 0.0
H281 H 0.67211 0.28626 0.27394 0.0
H282 H 0.55856 0.36009 0.18037 0.0
H283 H 0.59592 0.30811 0.23448 0.0
H284 H 0.73948 0.42481 0.98283 0.0
H285 H 0.77656 0.37093 0.03364 0.0
H286 H 0.66145 0.43603 0.93967 0.0
H287 H 0.60962 0.46072 0.9622 0.0
C288 C 0.20162 0.91113 0.15521 0.0
C289 C 0.18131 0.86869 0.13006 0.0
C290 C 0.14088 0.8349 0.23265 0.0
C291 C 0.16545 0.87434 0.26078 0.0
N292 N 0.22213 0.94791 0.25249 0.0
N293 N 0.13494 0.78792 0.14553 0.0
C294 C 0.19643 0.9121 0.22286 0.0
C295 C 0.1516 0.83005 0.16887 0.0
N296 N 0.22517 0.95085 0.11383 0.0
N297 N 0.10662 0.80263 0.26657 0.0
H298 H 0.14046 0.78395 0.09801 0.0
H299 H 0.11845 0.75527 0.1747 0.0
H300 H 0.09868 0.8044 0.31401 0.0
H301 H 0.08314 0.77674 0.24576 0.0
H302 H 0.23596 0.98562 0.12582 0.0
H303 H 0.23069 0.95076 0.06471 0.0
H304 H 0.25006 0.9726 0.23125 0.0
H305 H 0.21781 0.95095 0.30087 0.0
C306 C 0.66352 0.62069 0.88424 0.0
C307 C 0.63497 0.65705 0.8269 0.0
C308 C 0.55688 0.63966 0.88068 0.0
C309 C 0.58417 0.59922 0.93426 0.0
N310 N 0.66185 0.54759 0.98438 0.0
N311 N 0.55506 0.70223 0.76891 0.0
C312 C 0.6372 0.5891 0.93562 0.0
C313 C 0.58186 0.66727 0.82513 0.0
N314 N 0.71588 0.61624 0.88939 0.0
N315 N 0.50689 0.65118 0.88269 0.0
H316 H 0.57291 0.72535 0.72962 0.0
H317 H 0.51512 0.70731 0.75953 0.0
H318 H 0.4866 0.62971 0.92025 0.0
H319 H 0.48609 0.68342 0.84964 0.0
H320 H 0.73991 0.59504 0.93342 0.0
H321 H 0.73618 0.63731 0.85155 0.0
H322 H 0.6985 0.53402 0.98402 0.0
H323 H 0.64412 0.52419 0.02341 0.0
C324 C 0.86176 0.09233 0.27047 0.0
C325 C 0.88773 0.13474 0.23201 0.0
C326 C 0.96592 0.11226 0.31816 0.0
C327 C 0.93821 0.07434 0.36102 0.0
N328 N 0.85706 0.03387 0.38253 0.0
N329 N 0.96131 0.19137 0.22516 0.0
C330 C 0.88542 0.06545 0.33824 0.0
C331 C 0.93893 0.14654 0.25757 0.0
N332 N 0.81489 0.07735 0.24197 0.0
N333 N 0.01844 0.11418 0.33406 0.0
H334 H 0.94255 0.21793 0.18085 0.0
H335 H 0.99643 0.20466 0.24597 0.0
H336 H 0.03954 0.08727 0.3758 0.0
H337 H 0.04123 0.13813 0.30175 0.0
H338 H 0.79665 0.04339 0.26475 0.0
H339 H 0.79615 0.0966 0.19277 0.0
H340 H 0.81727 0.02961 0.37096 0.0
H341 H 0.87241 0.01633 0.43368 0.0
C342 C 0.39303 0.40795 0.5973 0.0
C343 C 0.34288 0.40591 0.55927 0.0
C344 C 0.30868 0.45871 0.62331 0.0
C345 C 0.3598 0.46736 0.6533 0.0
N346 N 0.45181 0.45626 0.66107 0.0
N347 N 0.25411 0.43687 0.52786 0.0
C348 C 0.40241 0.44337 0.63858 0.0
C349 C 0.30083 0.43305 0.5703 0.0
N350 N 0.43143 0.37531 0.59501 0.0
N351 N 0.26758 0.47435 0.64626 0.0
H352 H 0.24692 0.42012 0.4869 0.0
H353 H 0.22395 0.46087 0.52918 0.0
H354 H 0.27195 0.49267 0.68575 0.0
H355 H 0.22957 0.46447 0.63099 0.0
H356 H 0.46735 0.37157 0.62676 0.0
H357 H 0.42565 0.34818 0.56626 0.0
H358 H 0.48401 0.44439 0.64531 0.0
H359 H 0.46048 0.48256 0.69068 0.0
C360 C 0.5988 0.65246 0.5555 0.0
C361 C 0.64972 0.64496 0.59356 0.0
C362 C 0.66849 0.58273 0.53159 0.0
C363 C 0.61584 0.58549 0.49989 0.0
N364 N 0.52909 0.61839 0.48674 0.0
N365 N 0.73178 0.59906 0.62406 0.0
C366 C 0.5805 0.61936 0.5129 0.0
C367 C 0.68442 0.60928 0.58299 0.0
N368 N 0.56831 0.69193 0.55924 0.0
N369 N 0.70341 0.5555 0.51154 0.0
H370 H 0.74509 0.61811 0.66172 0.0
H371 H 0.75639 0.56908 0.62436 0.0
H372 H 0.693 0.53533 0.47437 0.0
H373 H 0.74319 0.55649 0.5273 0.0
H374 H 0.53281 0.70292 0.52757 0.0
H375 H 0.58056 0.71693 0.5899 0.0
H376 H 0.50057 0.63761 0.50078 0.0
H377 H 0.51423 0.59507 0.45479 0.0
C378 C 0.90735 0.22698 0.94178 0.0
C379 C 0.87924 0.18549 0.97844 0.0
C380 C 0.90685 0.12761 0.91587 0.0
C381 C 0.93224 0.17001 0.87635 0.0
N382 N 0.94461 0.26295 0.83909 0.0
N383 N 0.84178 0.10046 0.98866 0.0
C384 C 0.92858 0.22068 0.88528 0.0
C385 C 0.87561 0.13708 0.96159 0.0
N386 N 0.91646 0.27128 0.96309 0.0
N387 N 0.9146 0.07792 0.91253 0.0
H388 H 0.81778 0.10654 0.02153 0.0
H389 H 0.83388 0.06646 0.97325 0.0
H390 H 0.93791 0.06909 0.88068 0.0
H391 H 0.90157 0.045 0.94573 0.0
H392 H 0.94154 0.30012 0.94272 0.0
H393 H 0.90293 0.27722 1.00533 0.0
H394 H 0.9382 0.3013 0.83935 0.0
H395 H 0.95951 0.25992 0.79629 0.0
C396 C 0.3679 0.44429 0.29275 0.0
C397 C 0.37747 0.39197 0.33314 0.0
C398 C 0.43956 0.38199 0.2606 0.0
C399 C 0.43536 0.43623 0.22659 0.0
N400 N 0.4032 0.52097 0.22309 0.0
N401 N 0.43018 0.3137 0.36316 0.0
C402 C 0.40149 0.46795 0.24602 0.0
C403 C 0.41545 0.36145 0.31919 0.0
N404 N 0.32596 0.47121 0.29783 0.0
N405 N 0.46476 0.34955 0.2353 0.0
H406 H 0.41422 0.2975 0.40729 0.0
H407 H 0.46157 0.29239 0.35919 0.0
H408 H 0.47981 0.36324 0.1903 0.0
H409 H 0.465 0.30902 0.25378 0.0
H410 H 0.31446 0.50773 0.26477 0.0
H411 H 0.29966 0.45475 0.33019 0.0
H412 H 0.38349 0.54598 0.24175 0.0
H413 H 0.42775 0.53993 0.18975 0.0
C414 C 0.10052 0.87222 0.84147 0.0
C415 C 0.1337 0.90443 0.87441 0.0
C416 C 0.09027 0.98206 0.79319 0.0
C417 C 0.06421 0.95094 0.75218 0.0
N418 N 0.02682 0.86665 0.7546 0.0
N419 N 0.16477 0.99035 0.87625 0.0
C420 C 0.06441 0.89576 0.78104 0.0
C421 C 0.12987 0.95942 0.84873 0.0
N422 N 0.10402 0.81916 0.86761 0.0
N423 N 0.07322 0.03155 0.78474 0.0
H424 H 0.19476 0.97542 0.91687 0.0
H425 H 0.16676 0.03042 0.85425 0.0
H426 H 0.03751 0.04508 0.75544 0.0
H427 H 0.08889 0.05469 0.81649 0.0
H428 H 0.08596 0.79286 0.84222 0.0
H429 H 0.12717 0.80078 0.91413 0.0
H430 H 0.02145 0.82715 0.77608 0.0
H431 H 0.99695 0.88302 0.7148 0.0
loop_
_geom_bond_atom_site_label_1
_geom_bond_atom_site_label_2
_geom_bond_distance
_geom_bond_site_symmetry_2
_ccdc_geom_bond_type
H0 C5 0.930 . S
H1 C8 0.930 . S
H2 C10 0.930 . S
H3 C4 1.016 . S
C4 H3 1.016 . S
C4 N11 1.286 . S
C5 H0 0.930 . S
C5 C6 1.397 . S
C5 C7 1.361 1_556 S
C6 C5 1.397 . S
C6 C10 1.390 1_556 S
C7 C5 1.361 1_554 S
C7 C8 1.393 . S
C7 N11 1.413 . S
C8 H1 0.930 . S
C8 C7 1.393 . S
C8 C9 1.399 . S
C9 C8 1.399 . S
C9 C10 1.381 . S
C10 H2 0.930 . S
C10 C6 1.390 1_554 S
C10 C9 1.381 . S
N11 C4 1.286 . S
N11 C7 1.413 . S
H12 C17 0.930 . S
H13 C20 0.930 . S
H14 C22 0.930 . S
H15 C16 1.016 . S
C16 H15 1.016 . S
C16 N23 1.286 . S
C17 H12 0.930 . S
C17 C18 1.397 . S
C17 C19 1.361 . S
C18 C17 1.397 . S
C18 C22 1.390 . S
C19 C17 1.361 . S
C19 C20 1.393 . S
C19 N23 1.413 . S
C20 H13 0.930 . S
C20 C19 1.393 . S
C20 C21 1.399 . S
C21 C20 1.399 . S
C21 C22 1.381 . S
C22 H14 0.930 . S
C22 C18 1.390 . S
C22 C21 1.381 . S
N23 C16 1.286 . S
N23 C19 1.413 . S
H24 C29 0.930 1_556 S
H25 C32 0.930 . S
H26 C34 0.930 . S
H27 C28 1.016 . S
C28 H27 1.016 . S
C28 N35 1.286 . S
C29 H24 0.930 1_554 S
C29 C30 1.397 . S
C29 C31 1.361 . S
C30 C29 1.397 . S
C30 C34 1.390 . S
C31 C29 1.361 . S
C31 C32 1.393 . S
C31 N35 1.413 . S
C32 H25 0.930 . S
C32 C31 1.393 . S
C32 C33 1.399 . S
C33 C32 1.399 . S
C33 C34 1.381 . S
C34 H26 0.930 . S
C34 C30 1.390 . S
C34 C33 1.381 . S
N35 C28 1.286 . S
N35 C31 1.413 . S
H36 C41 0.930 . S
H37 C44 0.930 . S
H38 C46 0.930 . S
H39 C40 1.016 . S
C40 H39 1.016 . S
C40 N47 1.286 . S
C41 H36 0.930 . S
C41 C42 1.397 . S
C41 C43 1.361 . S
C42 C41 1.397 . S
C42 C46 1.390 . S
C43 C41 1.361 . S
C43 C44 1.393 . S
C43 N47 1.413 . S
C44 H37 0.930 . S
C44 C43 1.393 . S
C44 C45 1.399 . S
C45 C44 1.399 . S
C45 C46 1.381 . S
C46 H38 0.930 . S
C46 C42 1.390 . S
C46 C45 1.381 . S
N47 C40 1.286 . S
N47 C43 1.413 . S
C48 C50 1.422 . S
C48 C52 1.415 . S
C48 N54 1.369 . S
C49 C50 1.421 . S
C49 C51 1.417 . S
C49 C61 1.422 . S
C50 C48 1.422 . S
C50 C49 1.421 . S
C50 N60 1.359 . S
C51 C49 1.417 . S
C51 C53 1.329 . S
C51 H70 0.930 . S
C52 C48 1.415 . S
C52 C53 1.437 . S
C52 C56 1.413 . S
C53 C51 1.329 . S
C53 C52 1.437 . S
C53 H75 0.929 . S
N54 C48 1.369 . S
N54 C55 1.338 1_655 S
N54 Gd59 2.622 . S
C55 N54 1.338 1_455 S
C55 C57 1.378 . S
C55 H67 0.929 . S
C56 C52 1.413 . S
C56 C57 1.348 1_655 S
C56 H72 0.931 . S
C57 C55 1.378 . S
C57 C56 1.348 1_455 S
C57 H73 0.930 . S
Gd58 N78 2.622 . S
Gd58 N85 2.570 . S
Gd58 O92 2.353 1_465 S
Gd58 O93 2.468 . S
Gd58 O94 2.427 . S
Gd58 O96 2.388 1_455 S
Gd58 O97 2.386 . S
Gd58 O101 2.307 1_565 S
Gd58 C111 2.805 . S
Gd59 N54 2.622 . S
Gd59 N60 2.570 . S
Gd59 O91 2.386 . S
Gd59 O95 2.307 1_545 S
Gd59 O98 2.353 1_655 S
Gd59 O99 2.468 . S
Gd59 O100 2.427 . S
Gd59 O102 2.388 1_655 S
Gd59 C123 2.805 . S
N60 C50 1.359 . S
N60 Gd59 2.570 . S
N60 C62 1.343 . S
C61 C49 1.422 . S
C61 C63 1.321 . S
C61 H69 0.931 . S
C62 N60 1.343 . S
C62 C63 1.390 . S
C62 H64 0.931 . S
C63 C61 1.321 . S
C63 C62 1.390 . S
C63 H65 0.930 . S
H64 C62 0.931 . S
H65 C63 0.930 . S
H66 C89 0.931 . S
H67 C55 0.929 . S
H68 C90 0.930 . S
H69 C61 0.931 . S
H70 C51 0.930 . S
H71 C80 0.929 1_655 S
H72 C56 0.931 . S
H73 C57 0.930 . S
H74 C112 0.930 . S
H75 C53 0.929 . S
H76 C81 0.931 . S
H77 C82 0.930 1_655 S
N78 Gd58 2.622 . S
N78 C79 1.369 . S
N78 C80 1.338 . S
C79 N78 1.369 . S
C79 C83 1.415 . S
C79 C86 1.422 . S
C80 H71 0.929 1_455 S
C80 N78 1.338 . S
C80 C82 1.378 . S
C81 H76 0.931 . S
C81 C82 1.348 . S
C81 C83 1.413 . S
C82 H77 0.930 1_455 S
C82 C80 1.378 . S
C82 C81 1.348 . S
C83 C79 1.415 . S
C83 C81 1.413 . S
C83 C113 1.437 . S
H84 C113 0.929 . S
N85 Gd58 2.570 . S
N85 C86 1.359 . S
N85 C89 1.343 . S
C86 C79 1.422 . S
C86 N85 1.359 . S
C86 C88 1.421 . S
C87 C88 1.422 . S
C87 C90 1.321 . S
C87 H114 0.931 . S
C88 C86 1.421 . S
C88 C87 1.422 . S
C88 C112 1.417 . S
C89 H66 0.931 . S
C89 N85 1.343 . S
C89 C90 1.390 . S
C90 H68 0.930 . S
C90 C87 1.321 . S
C90 C89 1.390 . S
O91 Gd59 2.386 . S
O91 C103 1.265 . S
O92 Gd58 2.353 1_645 S
O92 C103 1.242 . S
O93 Gd58 2.468 . S
O93 C111 1.263 . S
O94 Gd58 2.427 . S
O94 C111 1.252 . S
O95 Gd59 2.307 1_565 S
O95 C104 1.261 . S
O96 Gd58 2.388 1_655 S
O96 C104 1.252 . S
O97 Gd58 2.386 . S
O97 C115 1.265 . S
O98 Gd59 2.353 1_455 S
O98 C115 1.242 1_545 S
O99 Gd59 2.468 . S
O99 C123 1.263 . S
O100 Gd59 2.427 . S
O100 C123 1.252 . S
O101 Gd58 2.307 1_545 S
O101 C116 1.261 . S
O102 Gd59 2.388 1_455 S
O102 C116 1.252 . S
C103 O91 1.265 . S
C103 O92 1.242 . S
C104 O95 1.261 . S
C104 O96 1.252 . S
C105 C108 1.394 . S
C105 C110 1.370 . S
C105 C111 1.500 . S
C106 C109 1.383 . S
C106 C110 1.395 . S
C107 C108 1.396 . S
C107 C109 1.365 . S
C107 H124 0.929 . S
C108 C105 1.394 . S
C108 C107 1.396 . S
C108 H125 0.930 . S
C109 C106 1.383 . S
C109 C107 1.365 . S
C109 H126 0.931 . S
C110 C105 1.370 . S
C110 C106 1.395 . S
C110 H127 0.930 . S
C111 Gd58 2.805 . S
C111 O93 1.263 . S
C111 O94 1.252 . S
C111 C105 1.500 . S
C112 H74 0.930 . S
C112 C88 1.417 . S
C112 C113 1.329 . S
C113 C83 1.437 . S
C113 H84 0.929 . S
C113 C112 1.329 . S
H114 C87 0.931 . S
C115 O97 1.265 . S
C115 O98 1.242 1_565 S
C116 O101 1.261 . S
C116 O102 1.252 . S
C117 C120 1.394 . S
C117 C122 1.370 . S
C117 C123 1.500 . S
C118 C121 1.383 . S
C118 C122 1.395 . S
C119 C120 1.396 . S
C119 C121 1.365 . S
C119 H128 0.929 . S
C120 C117 1.394 . S
C120 C119 1.396 . S
C120 H129 0.930 . S
C121 C118 1.383 . S
C121 C119 1.365 . S
C121 H130 0.931 . S
C122 C117 1.370 . S
C122 C118 1.395 . S
C122 H131 0.930 . S
C123 Gd59 2.805 . S
C123 O99 1.263 . S
C123 O100 1.252 . S
C123 C117 1.500 . S
H124 C107 0.929 . S
H125 C108 0.930 . S
H126 C109 0.931 . S
H127 C110 0.930 . S
H128 C119 0.929 . S
H129 C120 0.930 . S
H130 C121 0.931 . S
H131 C122 0.930 . S
C132 C134 1.422 . S
C132 C136 1.415 . S
C132 N138 1.369 . S
C133 C134 1.421 . S
C133 C135 1.417 . S
C133 C145 1.422 . S
C134 C132 1.422 . S
C134 C133 1.421 . S
C134 N144 1.359 . S
C135 C133 1.417 . S
C135 C137 1.329 . S
C135 H154 0.930 . S
C136 C132 1.415 . S
C136 C137 1.437 . S
C136 C140 1.413 . S
C137 C135 1.329 . S
C137 C136 1.437 . S
C137 H159 0.929 . S
N138 C132 1.369 . S
N138 C139 1.338 . S
N138 Gd143 2.622 . S
C139 N138 1.338 . S
C139 C141 1.378 . S
C139 H151 0.929 . S
C140 C136 1.413 . S
C140 C141 1.348 . S
C140 H156 0.931 . S
C141 C139 1.378 . S
C141 C140 1.348 . S
C141 H157 0.930 . S
Gd142 N162 2.622 . S
Gd142 N169 2.570 . S
Gd142 O176 2.353 1_554 S
Gd142 O177 2.468 1_554 S
Gd142 O178 2.427 1_554 S
Gd142 O180 2.388 . S
Gd142 O181 2.386 . S
Gd142 O185 2.307 . S
Gd142 C195 2.805 1_554 S
Gd143 N138 2.622 . S
Gd143 N144 2.570 . S
Gd143 O175 2.386 . S
Gd143 O179 2.307 . S
Gd143 O182 2.353 . S
Gd143 O183 2.468 . S
Gd143 O184 2.427 . S
Gd143 O186 2.388 . S
Gd143 C207 2.805 . S
N144 C134 1.359 . S
N144 Gd143 2.570 . S
N144 C146 1.343 . S
C145 C133 1.422 . S
C145 C147 1.321 . S
C145 H153 0.931 . S
C146 N144 1.343 . S
C146 C147 1.390 . S
C146 H148 0.931 . S
C147 C145 1.321 . S
C147 C146 1.390 . S
C147 H149 0.930 . S
H148 C146 0.931 . S
H149 C147 0.930 . S
H150 C173 0.931 . S
H151 C139 0.929 . S
H152 C174 0.930 . S
H153 C145 0.931 . S
H154 C135 0.930 . S
H155 C164 0.929 . S
H156 C140 0.931 . S
H157 C141 0.930 . S
H158 C196 0.930 . S
H159 C137 0.929 . S
H160 C165 0.931 . S
H161 C166 0.930 . S
N162 Gd142 2.622 . S
N162 C163 1.369 . S
N162 C164 1.338 1_554 S
C163 N162 1.369 . S
C163 C167 1.415 . S
C163 C170 1.422 . S
C164 H155 0.929 . S
C164 N162 1.338 1_556 S
C164 C166 1.378 . S
C165 H160 0.931 . S
C165 C166 1.348 1_554 S
C165 C167 1.413 . S
C166 H161 0.930 . S
C166 C164 1.378 . S
C166 C165 1.348 1_556 S
C167 C163 1.415 . S
C167 C165 1.413 . S
C167 C197 1.437 . S
H168 C197 0.929 . S
N169 Gd142 2.570 . S
N169 C170 1.359 . S
N169 C173 1.343 . S
C170 C163 1.422 . S
C170 N169 1.359 . S
C170 C172 1.421 . S
C171 C172 1.422 . S
C171 C174 1.321 . S
C171 H198 0.931 . S
C172 C170 1.421 . S
C172 C171 1.422 . S
C172 C196 1.417 . S
C173 H150 0.931 . S
C173 N169 1.343 . S
C173 C174 1.390 . S
C174 H152 0.930 . S
C174 C171 1.321 . S
C174 C173 1.390 . S
O175 Gd143 2.386 . S
O175 C187 1.265 1_554 S
O176 Gd142 2.353 1_556 S
O176 C187 1.242 . S
O177 Gd142 2.468 1_556 S
O177 C195 1.263 . S
O178 Gd142 2.427 1_556 S
O178 C195 1.252 . S
O179 Gd143 2.307 . S
O179 C188 1.261 . S
O180 Gd142 2.388 . S
O180 C188 1.252 . S
O181 Gd142 2.386 . S
O181 C199 1.265 . S
O182 Gd143 2.353 . S
O182 C199 1.242 . S
O183 Gd143 2.468 . S
O183 C207 1.263 . S
O184 Gd143 2.427 . S
O184 C207 1.252 . S
O185 Gd142 2.307 . S
O185 C200 1.261 . S
O186 Gd143 2.388 . S
O186 C200 1.252 . S
C187 O175 1.265 1_556 S
C187 O176 1.242 . S
C188 O179 1.261 . S
C188 O180 1.252 . S
C189 C192 1.394 . S
C189 C194 1.370 . S
C189 C195 1.500 . S
C190 C193 1.383 . S
C190 C194 1.395 . S
C191 C192 1.396 . S
C191 C193 1.365 . S
C191 H208 0.929 . S
C192 C189 1.394 . S
C192 C191 1.396 . S
C192 H209 0.930 . S
C193 C190 1.383 . S
C193 C191 1.365 . S
C193 H210 0.931 . S
C194 C189 1.370 . S
C194 C190 1.395 . S
C194 H211 0.930 . S
C195 Gd142 2.805 1_556 S
C195 O177 1.263 . S
C195 O178 1.252 . S
C195 C189 1.500 . S
C196 H158 0.930 . S
C196 C172 1.417 . S
C196 C197 1.329 . S
C197 C167 1.437 . S
C197 H168 0.929 . S
C197 C196 1.329 . S
H198 C171 0.931 . S
C199 O181 1.265 . S
C199 O182 1.242 . S
C200 O185 1.261 . S
C200 O186 1.252 . S
C201 C204 1.394 . S
C201 C206 1.370 . S
C201 C207 1.500 . S
C202 C205 1.383 . S
C202 C206 1.395 . S
C203 C204 1.396 . S
C203 C205 1.365 . S
C203 H212 0.929 . S
C204 C201 1.394 . S
C204 C203 1.396 . S
C204 H213 0.930 . S
C205 C202 1.383 . S
C205 C203 1.365 . S
C205 H214 0.931 . S
C206 C201 1.370 . S
C206 C202 1.395 . S
C206 H215 0.930 . S
C207 Gd143 2.805 . S
C207 O183 1.263 . S
C207 O184 1.252 . S
C207 C201 1.500 . S
H208 C191 0.929 . S
H209 C192 0.930 . S
H210 C193 0.931 . S
H211 C194 0.930 . S
H212 C203 0.929 . S
H213 C204 0.930 . S
H214 C205 0.931 . S
H215 C206 0.930 . S
C216 C217 1.363 . S
C216 C222 1.379 . S
C216 N224 1.356 . S
C217 C216 1.363 . S
C217 C223 1.363 . S
C218 C219 1.363 . S
C218 C223 1.379 . S
C218 N225 1.356 . S
C219 C218 1.363 . S
C219 C222 1.363 . S
N220 C222 1.356 . S
N220 H232 0.984 . S
N220 H233 0.985 . S
N221 C223 1.356 . S
N221 H226 0.984 . S
N221 H227 0.985 . S
C222 C216 1.379 . S
C222 C219 1.363 . S
C222 N220 1.356 . S
C223 C217 1.363 . S
C223 C218 1.379 . S
C223 N221 1.356 . S
N224 C216 1.356 . S
N224 H230 0.984 . S
N224 H231 0.984 . S
N225 C218 1.356 . S
N225 H228 0.984 . S
N225 H229 0.985 . S
H226 N221 0.984 . S
H227 N221 0.985 . S
H228 N225 0.984 . S
H229 N225 0.985 . S
H230 N224 0.984 . S
H231 N224 0.984 . S
H232 N220 0.984 . S
H233 N220 0.985 . S
C234 C235 1.363 . S
C234 C240 1.379 . S
C234 N242 1.356 . S
C235 C234 1.363 . S
C235 C241 1.363 . S
C236 C237 1.363 . S
C236 C241 1.379 . S
C236 N243 1.356 . S
C237 C236 1.363 . S
C237 C240 1.363 . S
N238 C240 1.356 . S
N238 H250 0.984 . S
N238 H251 0.985 . S
N239 C241 1.356 . S
N239 H244 0.984 . S
N239 H245 0.985 1_554 S
C240 C234 1.379 . S
C240 C237 1.363 . S
C240 N238 1.356 . S
C241 C235 1.363 . S
C241 C236 1.379 . S
C241 N239 1.356 . S
N242 C234 1.356 . S
N242 H248 0.984 . S
N242 H249 0.984 . S
N243 C236 1.356 . S
N243 H246 0.984 . S
N243 H247 0.985 1_554 S
H244 N239 0.984 . S
H245 N239 0.985 1_556 S
H246 N243 0.984 . S
H247 N243 0.985 1_556 S
H248 N242 0.984 . S
H249 N242 0.984 . S
H250 N238 0.984 . S
H251 N238 0.985 . S
C252 C253 1.363 . S
C252 C258 1.379 . S
C252 N260 1.356 . S
C253 C252 1.363 . S
C253 C259 1.363 . S
C254 C255 1.363 . S
C254 C259 1.379 . S
C254 N261 1.356 . S
C255 C254 1.363 . S
C255 C258 1.363 . S
N256 C258 1.356 . S
N256 H268 0.984 . S
N256 H269 0.985 . S
N257 C259 1.356 . S
N257 H262 0.984 . S
N257 H263 0.985 . S
C258 C252 1.379 . S
C258 C255 1.363 . S
C258 N256 1.356 . S
C259 C253 1.363 . S
C259 C254 1.379 . S
C259 N257 1.356 . S
N260 C252 1.356 . S
N260 H266 0.984 . S
N260 H267 0.984 . S
N261 C254 1.356 . S
N261 H264 0.984 . S
N261 H265 0.985 . S
H262 N257 0.984 . S
H263 N257 0.985 . S
H264 N261 0.984 . S
H265 N261 0.985 . S
H266 N260 0.984 . S
H267 N260 0.984 . S
H268 N256 0.984 . S
H269 N256 0.985 . S
C270 C271 1.363 . S
C270 C276 1.379 . S
C270 N278 1.356 1_554 S
C271 C270 1.363 . S
C271 C277 1.363 . S
C272 C273 1.363 . S
C272 C277 1.379 . S
C272 N279 1.356 . S
C273 C272 1.363 . S
C273 C276 1.363 . S
N274 C276 1.356 1_556 S
N274 H286 0.984 . S
N274 H287 0.985 . S
N275 C277 1.356 . S
N275 H280 0.984 . S
N275 H281 0.985 . S
C276 C270 1.379 . S
C276 C273 1.363 . S
C276 N274 1.356 1_554 S
C277 C271 1.363 . S
C277 C272 1.379 . S
C277 N275 1.356 . S
N278 C270 1.356 1_556 S
N278 H284 0.984 . S
N278 H285 0.984 1_556 S
N279 C272 1.356 . S
N279 H282 0.984 . S
N279 H283 0.985 . S
H280 N275 0.984 . S
H281 N275 0.985 . S
H282 N279 0.984 . S
H283 N279 0.985 . S
H284 N278 0.984 . S
H285 N278 0.984 1_554 S
H286 N274 0.984 . S
H287 N274 0.985 . S
C288 C289 1.363 . S
C288 C294 1.379 . S
C288 N296 1.356 . S
C289 C288 1.363 . S
C289 C295 1.363 . S
C290 C291 1.363 . S
C290 C295 1.379 . S
C290 N297 1.356 . S
C291 C290 1.363 . S
C291 C294 1.363 . S
N292 C294 1.356 . S
N292 H304 0.984 1_565 S
N292 H305 0.985 1_565 S
N293 C295 1.356 . S
N293 H298 0.984 . S
N293 H299 0.985 . S
C294 C288 1.379 . S
C294 C291 1.363 . S
C294 N292 1.356 . S
C295 C289 1.363 . S
C295 C290 1.379 . S
C295 N293 1.356 . S
N296 C288 1.356 . S
N296 H302 0.984 . S
N296 H303 0.984 . S
N297 C290 1.356 . S
N297 H300 0.984 . S
N297 H301 0.985 . S
H298 N293 0.984 . S
H299 N293 0.985 . S
H300 N297 0.984 . S
H301 N297 0.985 . S
H302 N296 0.984 . S
H303 N296 0.984 . S
H304 N292 0.984 1_545 S
H305 N292 0.985 1_545 S
C306 C307 1.363 . S
C306 C312 1.379 . S
C306 N314 1.356 . S
C307 C306 1.363 . S
C307 C313 1.363 . S
C308 C309 1.363 . S
C308 C313 1.379 . S
C308 N315 1.356 . S
C309 C308 1.363 . S
C309 C312 1.363 . S
N310 C312 1.356 . S
N310 H322 0.981 1_556 S
N310 H323 0.981 1_556 S
N311 C313 1.356 . S
N311 H316 0.984 . S
N311 H317 0.985 . S
C312 C306 1.379 . S
C312 C309 1.363 . S
C312 N310 1.356 . S
C313 C307 1.363 . S
C313 C308 1.379 . S
C313 N311 1.356 . S
N314 C306 1.356 . S
N314 H320 0.984 . S
N314 H321 0.984 . S
N315 C308 1.356 . S
N315 H318 0.984 . S
N315 H319 0.985 . S
H316 N311 0.984 . S
H317 N311 0.985 . S
H318 N315 0.984 . S
H319 N315 0.985 . S
H320 N314 0.984 . S
H321 N314 0.984 . S
H322 N310 0.981 1_554 S
H323 N310 0.981 1_554 S
C324 C325 1.363 . S
C324 C330 1.379 . S
C324 N332 1.356 . S
C325 C324 1.363 . S
C325 C331 1.363 . S
C326 C327 1.363 . S
C326 C331 1.379 . S
C326 N333 1.356 . S
C327 C326 1.363 . S
C327 C330 1.363 . S
N328 C330 1.356 1_565 S
N328 H340 0.984 . S
N328 H341 0.985 . S
N329 C331 1.356 . S
N329 H334 0.984 . S
N329 H335 0.985 . S
C330 C324 1.379 . S
C330 C327 1.363 . S
C330 N328 1.356 1_545 S
C331 C325 1.363 . S
C331 C326 1.379 . S
C331 N329 1.356 . S
N332 C324 1.356 . S
N332 H338 0.984 . S
N332 H339 0.984 . S
N333 C326 1.356 . S
N333 H336 0.984 . S
N333 H337 0.985 . S
H334 N329 0.984 . S
H335 N329 0.985 . S
H336 N333 0.984 . S
H337 N333 0.985 . S
H338 N332 0.984 . S
H339 N332 0.984 . S
H340 N328 0.984 . S
H341 N328 0.985 . S
C342 C343 1.363 . S
C342 C348 1.379 . S
C342 N350 1.356 . S
C343 C342 1.363 . S
C343 C349 1.363 . S
C344 C345 1.363 . S
C344 C349 1.379 . S
C344 N351 1.356 . S
C345 C344 1.363 . S
C345 C348 1.363 . S
N346 C348 1.356 . S
N346 H358 0.984 . S
N346 H359 0.985 . S
N347 C349 1.356 . S
N347 H352 0.984 . S
N347 H353 0.985 . S
C348 C342 1.379 . S
C348 C345 1.363 . S
C348 N346 1.356 . S
C349 C343 1.363 . S
C349 C344 1.379 . S
C349 N347 1.356 . S
N350 C342 1.356 . S
N350 H356 0.984 . S
N350 H357 0.984 . S
N351 C344 1.356 . S
N351 H354 0.984 . S
N351 H355 0.985 . S
H352 N347 0.984 . S
H353 N347 0.985 . S
H354 N351 0.984 . S
H355 N351 0.985 . S
H356 N350 0.984 . S
H357 N350 0.984 . S
H358 N346 0.984 . S
H359 N346 0.985 . S
C360 C361 1.363 . S
C360 C366 1.379 . S
C360 N368 1.356 . S
C361 C360 1.363 . S
C361 C367 1.363 . S
C362 C363 1.363 . S
C362 C367 1.379 . S
C362 N369 1.356 . S
C363 C362 1.363 . S
C363 C366 1.363 . S
N364 C366 1.356 . S
N364 H376 0.984 . S
N364 H377 0.985 . S
N365 C367 1.356 . S
N365 H370 0.984 . S
N365 H371 0.985 . S
C366 C360 1.379 . S
C366 C363 1.363 . S
C366 N364 1.356 . S
C367 C361 1.363 . S
C367 C362 1.379 . S
C367 N365 1.356 . S
N368 C360 1.356 . S
N368 H374 0.984 . S
N368 H375 0.984 . S
N369 C362 1.356 . S
N369 H372 0.984 . S
N369 H373 0.985 . S
H370 N365 0.984 . S
H371 N365 0.985 . S
H372 N369 0.984 . S
H373 N369 0.985 . S
H374 N368 0.984 . S
H375 N368 0.984 . S
H376 N364 0.984 . S
H377 N364 0.985 . S
C378 C379 1.363 . S
C378 C384 1.379 . S
C378 N386 1.356 . S
C379 C378 1.363 . S
C379 C385 1.363 1_556 S
C380 C381 1.363 . S
C380 C385 1.379 1_556 S
C380 N387 1.356 . S
C381 C380 1.363 . S
C381 C384 1.363 . S
N382 C384 1.356 . S
N382 H394 0.984 . S
N382 H395 0.985 . S
N383 C385 1.356 . S
N383 H388 0.984 . S
N383 H389 0.985 . S
C384 C378 1.379 . S
C384 C381 1.363 . S
C384 N382 1.356 . S
C385 C379 1.363 1_554 S
C385 C380 1.379 1_554 S
C385 N383 1.356 . S
N386 C378 1.356 . S
N386 H392 0.984 . S
N386 H393 0.984 . S
N387 C380 1.356 . S
N387 H390 0.984 . S
N387 H391 0.985 1_546 S
H388 N383 0.984 . S
H389 N383 0.985 . S
H390 N387 0.984 . S
H391 N387 0.985 1_564 S
H392 N386 0.984 . S
H393 N386 0.984 . S
H394 N382 0.984 . S
H395 N382 0.985 . S
C396 C397 1.363 . S
C396 C402 1.379 . S
C396 N404 1.356 . S
C397 C396 1.363 . S
C397 C403 1.363 . S
C398 C399 1.363 . S
C398 C403 1.379 . S
C398 N405 1.356 . S
C399 C398 1.363 . S
C399 C402 1.363 . S
N400 C402 1.356 . S
N400 H412 0.984 . S
N400 H413 0.985 . S
N401 C403 1.356 . S
N401 H406 0.984 . S
N401 H407 0.985 . S
C402 C396 1.379 . S
C402 C399 1.363 . S
C402 N400 1.356 . S
C403 C397 1.363 . S
C403 C398 1.379 . S
C403 N401 1.356 . S
N404 C396 1.356 . S
N404 H410 0.984 . S
N404 H411 0.984 . S
N405 C398 1.356 . S
N405 H408 0.984 . S
N405 H409 0.985 . S
H406 N401 0.984 . S
H407 N401 0.985 . S
H408 N405 0.984 . S
H409 N405 0.985 . S
H410 N404 0.984 . S
H411 N404 0.984 . S
H412 N400 0.984 . S
H413 N400 0.985 . S
C414 C415 1.363 . S
C414 C420 1.379 . S
C414 N422 1.356 . S
C415 C414 1.363 . S
C415 C421 1.363 . S
C416 C417 1.363 . S
C416 C421 1.379 . S
C416 N423 1.356 1_565 S
C417 C416 1.363 . S
C417 C420 1.363 . S
N418 C420 1.356 . S
N418 H430 0.984 . S
N418 H431 0.985 . S
N419 C421 1.356 . S
N419 H424 0.984 . S
N419 H425 0.985 1_565 S
C420 C414 1.379 . S
C420 C417 1.363 . S
C420 N418 1.356 . S
C421 C415 1.363 . S
C421 C416 1.379 . S
C421 N419 1.356 . S
N422 C414 1.356 . S
N422 H428 0.984 . S
N422 H429 0.984 . S
N423 C416 1.356 1_545 S
N423 H426 0.984 . S
N423 H427 0.985 . S
H424 N419 0.984 . S
H425 N419 0.985 1_545 S
H426 N423 0.984 . S
H427 N423 0.985 . S
H428 N422 0.984 . S
H429 N422 0.984 . S
H430 N418 0.984 . S
H431 N418 0.985 . S
C219 C116 1.633 . S
C217 C40 1.636 . S
C235 C4 1.642 . S
C237 C188 1.634 . S
C253 C16 1.630 . S
C255 C104 1.652 . S
C271 C28 1.600 . S
C273 C200 1.608 . S
C291 C106 1.405 . S
C289 C9 1.589 . S
C309 C187 1.688 . S
C307 C18 1.684 . S
C325 C33 1.624 . S
C327 C103 1.649 . S
C343 C45 1.591 . S
C345 C190 1.423 . S
C363 C202 1.394 . S
C361 C21 1.563 . S
C381 C118 1.359 . S
C379 C30 1.550 1_556 S
C399 C199 1.627 . S
C397 C42 1.613 . S
C415 C6 1.572 . S
C417 C115 1.599 . S
