# Generated by pormake.
# Topology pth, (4,4)-cn, num edge types: 1
# Building blocks:
#     Node 0, Type 0, BuildingBlock: GALJAG_clean_sbu_0, # of connection points: 4
#     Node 1, Type 0, BuildingBlock: GALJAG_clean_sbu_0, # of connection points: 4
#     Node 2, Type 0, BuildingBlock: GALJAG_clean_sbu_0, # of connection points: 4
#     Node 3, Type 1, BuildingBlock: MIFKUJ_clean_linker_1, # of connection points: 4
#     Node 4, Type 1, BuildingBlock: MIFKUJ_clean_linker_1, # of connection points: 4
#     Node 5, Type 1, BuildingBlock: MIFKUJ_clean_linker_1, # of connection points: 4
#     Edge 6, Type (0, 1), BuildingBlock: ZUJKAS_clean_linker_0, # of connection points: 2
#     Edge 7, Type (0, 1), BuildingBlock: ZUJKAS_clean_linker_0, # of connection points: 2
#     Edge 8, Type (0, 1), BuildingBlock: ZUJKAS_clean_linker_0, # of connection points: 2
#     Edge 9, Type (0, 1), BuildingBlock: ZUJKAS_clean_linker_0, # of connection points: 2
#     Edge 10, Type (0, 1), BuildingBlock: ZUJKAS_clean_linker_0, # of connection points: 2
#     Edge 11, Type (0, 1), BuildingBlock: ZUJKAS_clean_linker_0, # of connection points: 2
#     Edge 12, Type (0, 1), BuildingBlock: ZUJKAS_clean_linker_0, # of connection points: 2
#     Edge 13, Type (0, 1), BuildingBlock: ZUJKAS_clean_linker_0, # of connection points: 2
#     Edge 14, Type (0, 1), BuildingBlock: ZUJKAS_clean_linker_0, # of connection points: 2
#     Edge 15, Type (0, 1), BuildingBlock: ZUJKAS_clean_linker_0, # of connection points: 2
#     Edge 16, Type (0, 1), BuildingBlock: ZUJKAS_clean_linker_0, # of connection points: 2
#     Edge 17, Type (0, 1), BuildingBlock: ZUJKAS_clean_linker_0, # of connection points: 2
# Relax obj value: 0.002
# Max RMSD: 0.043
# Mean RMSD: 0.028
data_MOF--net-pth--node1-GALJAG_clean_sbu_0--node2-MIFKUJ_clean_linker_1--edge1-ZUJKAS_clean_linker_0
_symmetry_space_group_name_H-M    P1
_symmetry_Int_Tables_number       1
_symmetry_cell_setting            triclinic
loop_
_symmetry_equiv_pos_as_xyz
'x, y, z'
_cell_length_a     37.49967
_cell_length_b     37.507508
_cell_length_c     77.442253
_cell_angle_alpha  90.159434
_cell_angle_beta   90.130967
_cell_angle_gamma 119.99892
loop_
_atom_site_label
_atom_site_type_symbol
_atom_site_fract_x
_atom_site_fract_y
_atom_site_fract_z
_atom_type_partial_charge
In0 In 0.00208 0.00277 0.03914 0.0
O1 O 0.97203 0.03924 0.04863 0.0
O2 O 0.02508 0.04699 0.06199 0.0
C3 C 0.94112 0.94995 0.01783 0.0
C4 C 0.06257 0.05841 0.01884 0.0
C5 C 0.00881 0.94822 0.05959 0.0
O6 O 0.93421 0.96483 0.03119 0.0
O7 O 0.97858 0.96189 0.01522 0.0
O8 O 0.03266 0.96555 0.04704 0.0
O9 O 0.98186 0.9585 0.06179 0.0
C10 C 0.99759 0.05688 0.06075 0.0
O11 O 0.06828 0.03576 0.0292 0.0
O12 O 0.02646 0.05274 0.01871 0.0
In13 In 0.00063 0.00365 0.37239 0.0
O14 O 0.03306 0.06888 0.36147 0.0
O15 O 0.97471 0.02562 0.35095 0.0
C16 C 0.06021 0.0101 0.39406 0.0
C17 C 0.94238 0.00031 0.39376 0.0
C18 C 0.99353 0.94305 0.35119 0.0
O19 O 0.06765 0.03426 0.38155 0.0
O20 O 0.02286 0.98301 0.39568 0.0
O21 O 0.96692 0.93713 0.36248 0.0
O22 O 0.02337 0.97939 0.35058 0.0
C23 C 0.00477 0.06194 0.3508 0.0
O24 O 0.93609 0.97069 0.38398 0.0
O25 O 0.97804 0.03135 0.39281 0.0
In26 In 0.99944 0.99727 0.70593 0.0
O27 O 0.97051 0.93292 0.71768 0.0
O28 O 0.95178 0.97396 0.72743 0.0
C29 C 0.05155 0.99261 0.68327 0.0
C30 C 0.94594 0.00329 0.68436 0.0
C31 C 0.05376 0.05449 0.72806 0.0
O32 O 0.02677 0.96235 0.6923 0.0
O33 O 0.04969 0.02496 0.68555 0.0
O34 O 0.0273 0.05934 0.71991 0.0
O35 O 0.05246 0.02074 0.72517 0.0
C36 C 0.94801 0.93865 0.7281 0.0
O37 O 0.97115 0.03301 0.69365 0.0
O38 O 0.94803 0.97095 0.68587 0.0
H39 H 0.06153 0.47843 0.17358 0.0
H40 H 0.06107 0.42327 0.15646 0.0
H41 H 0.94647 0.33504 0.18027 0.0
H42 H 0.9469 0.39027 0.19723 0.0
H43 H 0.01094 0.5076 0.17407 0.0
H44 H 0.0591 0.44899 0.21603 0.0
H45 H 0.0601 0.39475 0.23312 0.0
H46 H 0.94207 0.36364 0.25488 0.0
H47 H 0.94089 0.41746 0.23748 0.0
H48 H 0.93638 0.52624 0.23555 0.0
H49 H 0.93313 0.57962 0.25257 0.0
H50 H 0.05257 0.67009 0.23325 0.0
H51 H 0.05603 0.61641 0.21658 0.0
H52 H 0.99226 0.4996 0.23763 0.0
H53 H 0.94626 0.56024 0.19381 0.0
H54 H 0.94931 0.61587 0.17636 0.0
H55 H 0.07132 0.6475 0.15925 0.0
H56 H 0.06747 0.59109 0.1764 0.0
C57 C 0.0045 0.43846 0.18684 0.0
C58 C 0.0363 0.44721 0.1751 0.0
C59 C 0.03595 0.4157 0.1653 0.0
C60 C 0.00377 0.37482 0.16705 0.0
C61 C 0.972 0.36612 0.17883 0.0
C62 C 0.97224 0.39767 0.18854 0.0
C63 C 0.00435 0.47212 0.19691 0.0
C64 C 0.00747 0.50609 0.188 0.0
C65 C 0.99929 0.47001 0.21505 0.0
C66 C -0.00025 0.43701 0.22538 0.0
C67 C 0.0333 0.43026 0.22438 0.0
C68 C 0.03399 0.39951 0.23425 0.0
C69 C 0.00115 0.37493 0.24533 0.0
C70 C 0.9676 0.38177 0.24631 0.0
C71 C 0.96702 0.41268 0.23649 0.0
C72 C 0.99629 0.56742 0.22472 0.0
C73 C 0.96184 0.55759 0.23499 0.0
C74 C 0.95989 0.58816 0.2446 0.0
C75 C 0.99256 0.62908 0.24421 0.0
C76 C 0.02707 0.6388 0.23392 0.0
C77 C 0.02893 0.60824 0.22428 0.0
C78 C 0.99844 0.53475 0.21475 0.0
C79 C 0.99575 0.50101 0.2237 0.0
C80 C 0.00458 0.5374 0.19669 0.0
C81 C 0.00672 0.57171 0.18645 0.0
C82 C 0.97373 0.57935 0.18636 0.0
C83 C 0.97562 0.61129 0.17643 0.0
C84 C 0.0106 0.63626 0.16639 0.0
C85 C 0.04366 0.62853 0.1666 0.0
C86 C 0.04162 0.59643 0.17645 0.0
H87 H 0.58705 0.06383 0.50702 0.0
H88 H 0.64088 0.06228 0.48979 0.0
H89 H 0.61329 0.94734 0.51369 0.0
H90 H 0.55887 0.94858 0.53056 0.0
H91 H 0.50552 0.0111 0.50728 0.0
H92 H 0.61516 0.06265 0.5483 0.0
H93 H 0.67122 0.06423 0.56509 0.0
H94 H 0.58463 0.94914 0.58906 0.0
H95 H 0.52886 0.94721 0.57186 0.0
H96 H 0.41904 0.94421 0.57141 0.0
H97 H 0.3626 0.9413 0.58818 0.0
H98 H 0.38222 0.05316 0.56371 0.0
H99 H 0.44006 0.05708 0.54775 0.0
H100 H 0.49869 0.99868 0.57111 0.0
H101 H 0.38928 0.94727 0.52804 0.0
H102 H 0.3351 0.94852 0.51089 0.0
H103 H 0.42363 0.06906 0.49177 0.0
H104 H 0.47771 0.06698 0.50861 0.0
C105 C 0.56918 0.0065 0.52016 0.0
C106 C 0.59264 0.03832 0.50853 0.0
C107 C 0.62357 0.03754 0.4988 0.0
C108 C 0.63138 0.00472 0.50041 0.0
C109 C 0.60778 0.97286 0.51206 0.0
C110 C 0.57694 0.97372 0.52182 0.0
C111 C 0.53582 0.00695 0.53022 0.0
C112 C 0.50431 0.00893 0.52126 0.0
C113 C 0.53394 0.00355 0.54843 0.0
C114 C 0.56789 0.00459 0.5587 0.0
C115 C 0.60833 0.03758 0.55706 0.0
C116 C 0.64027 0.03864 0.56678 0.0
C117 C 0.63238 0.00678 0.57839 0.0
C118 C 0.5918 0.97387 0.58006 0.0
C119 C 0.55985 0.97288 0.57036 0.0
C120 C 0.43351 0.00058 0.55816 0.0
C121 C 0.41129 0.96822 0.56974 0.0
C122 C 0.37872 0.96637 0.57918 0.0
C123 C 0.3676 0.99686 0.57723 0.0
C124 C 0.39011 0.02937 0.56568 0.0
C125 C 0.42292 0.03138 0.55636 0.0
C126 C 0.46807 0.00229 0.54816 0.0
C127 C 0.49987 0.00078 0.55714 0.0
C128 C 0.4704 0.00646 0.52997 0.0
C129 C 0.43743 0.00712 0.51965 0.0
C130 C 0.3969 0.97396 0.52017 0.0
C131 C 0.36595 0.97485 0.51042 0.0
C132 C 0.37494 0.00894 0.49995 0.0
C133 C 0.41568 0.04205 0.49946 0.0
C134 C 0.44663 0.04102 0.50914 0.0
H135 H 0.47593 0.4099 0.84238 0.0
H136 H 0.42031 0.35421 0.82579 0.0
H137 H 0.33519 0.39065 0.84529 0.0
H138 H 0.3907 0.44529 0.8622 0.0
H139 H 0.5068 0.49371 0.84082 0.0
H140 H 0.44759 0.38778 0.8828 0.0
H141 H 0.39401 0.33303 0.90023 0.0
H142 H 0.36272 0.42022 0.92179 0.0
H143 H 0.41581 0.4747 0.90401 0.0
H144 H 0.52418 0.58835 0.90179 0.0
H145 H 0.57718 0.64586 0.91856 0.0
H146 H 0.6678 0.61507 0.90083 0.0
H147 H 0.61474 0.55821 0.88383 0.0
H148 H 0.4978 0.50552 0.90431 0.0
H149 H 0.55749 0.61119 0.86067 0.0
H150 H 0.61404 0.66491 0.84393 0.0
H151 H 0.64733 0.57608 0.82628 0.0
H152 H 0.59099 0.52257 0.84324 0.0
C153 C 0.43735 0.43148 0.8536 0.0
C154 C 0.44523 0.40574 0.84307 0.0
C155 C 0.4134 0.37406 0.83354 0.0
C156 C 0.37315 0.36784 0.83418 0.0
C157 C 0.36554 0.39394 0.84471 0.0
C158 C 0.39729 0.42536 0.85434 0.0
C159 C 0.47106 0.46529 0.86362 0.0
C160 C 0.50512 0.49599 0.85473 0.0
C161 C 0.4686 0.46855 0.88173 0.0
C162 C 0.43542 0.43523 0.892 0.0
C163 C 0.42886 0.39499 0.89113 0.0
C164 C 0.39852 0.36383 0.90122 0.0
C165 C 0.37419 0.37234 0.91239 0.0
C166 C 0.38067 0.41263 0.91316 0.0
C167 C 0.41115 0.44383 0.90311 0.0
C168 C 0.5656 0.56925 0.89148 0.0
C169 C 0.55551 0.59411 0.90152 0.0
C170 C 0.58582 0.62684 0.91115 0.0
C171 C 0.6268 0.63512 0.91106 0.0
C172 C 0.63674 0.61005 0.90098 0.0
C173 C 0.60643 0.57743 0.89129 0.0
C174 C 0.5332 0.5342 0.88149 0.0
C175 C 0.49943 0.50322 0.8904 0.0
C176 C 0.53614 0.5305 0.86344 0.0
C177 C 0.57028 0.563 0.85327 0.0
C178 C 0.57713 0.60337 0.85327 0.0
C179 C 0.60924 0.63394 0.84362 0.0
C180 C 0.63511 0.62468 0.83382 0.0
C181 C 0.62817 0.58421 0.83386 0.0
C182 C 0.59586 0.55358 0.84342 0.0
H183 H 0.04514 0.09313 0.08919 0.0
H184 H 0.04422 0.14501 0.10807 0.0
H185 H 0.94717 0.1426 0.07716 0.0
H186 H 0.94725 0.08991 0.05845 0.0
H187 H 0.06019 0.22161 0.09983 0.0
H188 H 0.90164 0.13089 0.12552 0.0
H189 H 0.92658 0.10745 0.11405 0.0
H190 H 0.90362 0.13235 0.10236 0.0
C191 C 0.02335 0.10339 0.0865 0.0
C192 C 0.99614 0.08737 0.07239 0.0
C193 C 0.02289 0.13305 0.09729 0.0
C194 C 0.99524 0.14726 0.09417 0.0
C195 C 0.96809 0.13138 0.08005 0.0
H196 H 0.02025 0.37623 0.13263 0.0
H197 H 0.0186 0.32103 0.11514 0.0
C198 C 0.96834 0.10148 0.06931 0.0
C199 C 0.99618 0.17997 0.10529 0.0
H200 H 0.93699 0.20297 0.13131 0.0
C201 C 0.0333 0.21748 0.10678 0.0
C202 C 0.96121 0.17432 0.11451 0.0
C203 C 0.92111 0.13394 0.1142 0.0
C204 C 0.03628 0.24975 0.11704 0.0
C205 C 0.00091 0.24466 0.12574 0.0
C206 C 0.96395 0.20692 0.12448 0.0
C207 C 0.00171 0.27804 0.1363 0.0
C208 C 0.07746 0.28871 0.11869 0.0
C209 C 0.99171 0.27181 0.1539 0.0
C210 C 0.9924 0.30322 0.1639 0.0
C211 C 0.00306 0.34143 0.15647 0.0
C212 C 0.01268 0.34741 0.13879 0.0
C213 C 0.01177 0.31593 0.12879 0.0
H214 H 0.10326 0.28344 0.11532 0.0
H215 H 0.07841 0.31215 0.1097 0.0
H216 H 0.08247 0.30139 0.13201 0.0
H217 H 0.98374 0.24275 0.15993 0.0
H218 H 0.98512 0.2978 0.17751 0.0
H219 H 0.94783 0.06228 0.41409 0.0
H220 H 0.89445 0.06105 0.43262 0.0
H221 H 0.81136 0.93506 0.41775 0.0
H222 H 0.86467 0.93597 0.39919 0.0
H223 H 0.81354 0.04302 0.42161 0.0
H224 H 0.8087 0.93435 0.47151 0.0
H225 H 0.85158 0.96109 0.45697 0.0
H226 H 0.80462 0.91749 0.44947 0.0
C227 C 0.91828 0.03422 0.41484 0.0
C228 C 0.91042 0.99917 0.40523 0.0
C229 C 0.88785 0.03361 0.42541 0.0
C230 C 0.84921 0.99785 0.42668 0.0
C231 C 0.84125 0.96275 0.41713 0.0
H232 H 0.62676 0.93857 0.48334 0.0
H233 H 0.67947 0.93694 0.46531 0.0
C234 C 0.87163 0.96339 0.40649 0.0
C235 C 0.81684 0.99785 0.43756 0.0
H236 H 0.75885 0.9552 0.47359 0.0
C237 C 0.80161 0.02393 0.433 0.0
C238 C 0.8013 0.97272 0.45233 0.0
C239 C 0.8175 0.945 0.45801 0.0
C240 C 0.77081 0.02525 0.44276 0.0
C241 C 0.75558 0.00049 0.45768 0.0
C242 C 0.77066 0.9742 0.46217 0.0
C243 C 0.72406 0.00152 0.46883 0.0
C244 C 0.75426 0.0525 0.43679 0.0
C245 C 0.73196 0.03821 0.47702 0.0
C246 C 0.70195 0.03923 0.48732 0.0
C247 C 0.66361 0.00346 0.48977 0.0
C248 C 0.65611 0.96655 0.48182 0.0
C249 C 0.6861 0.9656 0.47147 0.0
H250 H 0.76071 0.06039 0.4229 0.0
H251 H 0.72051 0.03744 0.43886 0.0
H252 H 0.7693 0.08165 0.44431 0.0
H253 H 0.76144 0.06604 0.47549 0.0
H254 H 0.7089 0.06794 0.49351 0.0
H255 H 0.93195 0.85933 0.73088 0.0
H256 H 0.88078 0.80504 0.74941 0.0
H257 H 0.8462 0.89037 0.77 0.0
H258 H 0.89739 0.94482 0.75163 0.0
H259 H 0.85718 0.84095 0.79531 0.0
H260 H 0.75461 0.74829 0.74115 0.0
H261 H 0.80758 0.76141 0.73932 0.0
H262 H 0.79447 0.80134 0.73866 0.0
C263 C 0.91353 0.86653 0.7394 0.0
C264 C 0.9185 0.90624 0.73975 0.0
C265 C 0.88423 0.83548 0.7499 0.0
C266 C 0.85942 0.84364 0.76088 0.0
C267 C 0.86499 0.88348 0.76156 0.0
H268 H 0.63183 0.68136 0.81284 0.0
H269 H 0.68753 0.7346 0.79554 0.0
C270 C 0.89419 0.9145 0.75104 0.0
C271 C 0.82727 0.81062 0.77157 0.0
H272 H 0.73591 0.7201 0.76914 0.0
C273 C 0.83073 0.81444 0.78962 0.0
C274 C 0.79263 0.77636 0.76406 0.0
C275 C 0.78671 0.77155 0.74474 0.0
C276 C 0.80046 0.78467 0.80038 0.0
C277 C 0.76609 0.75024 0.79285 0.0
C278 C 0.76252 0.74649 0.77482 0.0
C279 C 0.73285 0.71831 0.80349 0.0
C280 C 0.80491 0.79056 0.8197 0.0
C281 C 0.73999 0.69147 0.81357 0.0
C282 C 0.70825 0.66101 0.82343 0.0
C283 C 0.66891 0.65704 0.82341 0.0
C284 C 0.66194 0.68402 0.81327 0.0
C285 C 0.6936 0.71425 0.80333 0.0
H286 H 0.8295 0.82208 0.82335 0.0
H287 H 0.77543 0.78471 0.82551 0.0
H288 H 0.81277 0.76815 0.8253 0.0
H289 H 0.77005 0.69397 0.81372 0.0
H290 H 0.71457 0.64082 0.83121 0.0
H291 H 0.96716 0.91499 0.0894 0.0
H292 H 0.97081 0.86404 0.10778 0.0
H293 H 0.05921 0.8609 0.07318 0.0
H294 H 0.05658 0.91284 0.05497 0.0
H295 H 0.95103 0.7864 0.09993 0.0
H296 H 0.11559 0.87536 0.11921 0.0
H297 H 0.08946 0.89896 0.10884 0.0
H298 H 0.10784 0.87108 0.09625 0.0
C299 C 0.98764 0.90369 0.08578 0.0
C300 C 0.01173 0.91799 0.0708 0.0
C301 C 0.98967 0.87456 0.09629 0.0
C302 C 0.01573 0.8591 0.09201 0.0
C303 C 0.03966 0.87315 0.07698 0.0
H304 H 0.04267 0.65939 0.13387 0.0
H305 H 0.04472 0.71406 0.11601 0.0
C306 C 0.03793 0.90261 0.06653 0.0
C307 C 0.01639 0.82701 0.10293 0.0
H308 H 0.07942 0.80431 0.12662 0.0
C309 C 0.97908 0.79044 0.10583 0.0
C310 C 0.05304 0.83233 0.11063 0.0
C311 C 0.09368 0.8717 0.10873 0.0
C312 C 0.97749 0.75891 0.11608 0.0
C313 C 0.01411 0.76416 0.12364 0.0
C314 C 0.05146 0.80051 0.12072 0.0
C315 C 0.01403 0.73215 0.13473 0.0
C316 C 0.9368 0.71994 0.11862 0.0
C317 C 0.99657 0.72476 0.15124 0.0
C318 C 0.99578 0.69392 0.16159 0.0
C319 C 0.01233 0.6698 0.15557 0.0
C320 C 0.03017 0.67769 0.13903 0.0
C321 C 0.03118 0.70874 0.12875 0.0
H322 H 0.91266 0.71794 0.10967 0.0
H323 H 0.94029 0.6925 0.11665 0.0
H324 H 0.92621 0.71903 0.13207 0.0
H325 H 0.98359 0.74292 0.15611 0.0
H326 H 0.98248 0.68921 0.17436 0.0
H327 H 0.04995 0.96775 0.4239 0.0
H328 H 0.1035 0.97028 0.44281 0.0
H329 H 0.197 0.05899 0.40907 0.0
H330 H 0.14355 0.05751 0.39038 0.0
H331 H 0.1607 0.94966 0.43557 0.0
H332 H 0.23822 0.11381 0.45531 0.0
H333 H 0.18884 0.08868 0.44455 0.0
H334 H 0.2355 0.10702 0.43232 0.0
C335 C 0.08194 0.9881 0.4206 0.0
C336 C 0.09262 0.01259 0.40571 0.0
C337 C 0.11249 0.98949 0.43141 0.0
C338 C 0.15428 0.0153 0.42752 0.0
C339 C 0.165 0.03967 0.41259 0.0
H340 H 0.38073 0.03859 0.46713 0.0
H341 H 0.32675 0.04042 0.45004 0.0
C342 C 0.13444 0.03859 0.40186 0.0
C343 C 0.18647 0.01514 0.43864 0.0
H344 H 0.27328 0.07715 0.46207 0.0
C345 C 0.18511 0.9775 0.44147 0.0
C346 C 0.21829 0.05149 0.44636 0.0
C347 C 0.22015 0.09246 0.44464 0.0
C348 C 0.21511 0.97536 0.45155 0.0
C349 C 0.2472 0.01176 0.45898 0.0
C350 C 0.2486 0.04936 0.45625 0.0
C351 C 0.27981 0.0113 0.46954 0.0
C352 C 0.21285 0.93438 0.45398 0.0
C353 C 0.2712 0.99467 0.48621 0.0
C354 C 0.30207 0.99402 0.49612 0.0
C355 C 0.34209 0.00989 0.48949 0.0
C356 C 0.35049 0.02666 0.47275 0.0
C357 C 0.31966 0.02754 0.46292 0.0
H358 H 0.18939 0.91011 0.44543 0.0
H359 H 0.24327 0.93721 0.45137 0.0
H360 H 0.20474 0.92443 0.46758 0.0
H361 H 0.24062 0.98236 0.49156 0.0
H362 H 0.29467 0.98152 0.50904 0.0
H363 H 0.0579 0.1257 0.73923 0.0
H364 H 0.1104 0.17872 0.75801 0.0
H365 H 0.17247 0.10831 0.76149 0.0
H366 H 0.11951 0.05473 0.74319 0.0
H367 H 0.1681 0.1381 0.79247 0.0
H368 H 0.22579 0.26309 0.74396 0.0
H369 H 0.17177 0.24056 0.74822 0.0
H370 H 0.19097 0.20994 0.73842 0.0
C371 C 0.08274 0.12156 0.74402 0.0
C372 C 0.08474 0.0862 0.73968 0.0
C373 C 0.11286 0.15198 0.75465 0.0
C374 C 0.14582 0.14787 0.76088 0.0
C375 C 0.14743 0.11223 0.75678 0.0
H376 H 0.37735 0.34254 0.80136 0.0
H377 H 0.32198 0.28807 0.78432 0.0
C378 C 0.11716 0.08166 0.7463 0.0
C379 C 0.17862 0.18043 0.77177 0.0
H380 H 0.25213 0.28224 0.77244 0.0
C381 C 0.18653 0.16963 0.78809 0.0
C382 C 0.20303 0.2214 0.76592 0.0
C383 C 0.19781 0.23444 0.74811 0.0
C384 C 0.21806 0.19866 0.79877 0.0
C385 C 0.24161 0.23993 0.79315 0.0
C386 C 0.23381 0.25069 0.77679 0.0
C387 C 0.27521 0.27227 0.80381 0.0
C388 C 0.22649 0.18453 0.81574 0.0
C389 C 0.26733 0.28167 0.82042 0.0
C390 C 0.29912 0.31231 0.83035 0.0
C391 C 0.33938 0.33468 0.82376 0.0
C392 C 0.34698 0.32547 0.80701 0.0
C393 C 0.31525 0.29459 0.79716 0.0
H394 H 0.21427 0.15075 0.81581 0.0
H395 H 0.26001 0.20034 0.81858 0.0
H396 H 0.21112 0.19181 0.82628 0.0
H397 H 0.23651 0.26551 0.82568 0.0
H398 H 0.29214 0.31826 0.84323 0.0
H399 H 0.93555 0.06952 0.67863 0.0
H400 H 0.88317 0.07188 0.66039 0.0
H401 H 0.83569 0.94481 0.64606 0.0
H402 H 0.88762 0.9421 0.66427 0.0
H403 H 0.86723 0.05394 0.62399 0.0
H404 H 0.73423 0.94864 0.66469 0.0
H405 H 0.78672 0.97353 0.67245 0.0
H406 H 0.76749 0.92909 0.65863 0.0
C407 C 0.91396 0.04212 0.67157 0.0
C408 C 0.9155 0.00555 0.67295 0.0
C409 C 0.88413 0.04353 0.66117 0.0
C410 C 0.85526 0.00834 0.65211 0.0
C411 C 0.85727 0.97208 0.6532 0.0
H412 H 0.64645 0.94332 0.58525 0.0
H413 H 0.7017 0.94522 0.60282 0.0
C414 C 0.88708 0.97066 0.66354 0.0
C415 C 0.82295 0.00938 0.64147 0.0
H416 H 0.71878 0.96634 0.63743 0.0
C417 C 0.83476 0.03503 0.62695 0.0
C418 C 0.78069 0.98458 0.6454 0.0
C419 C 0.76638 0.95763 0.66122 0.0
C420 C 0.80527 0.03575 0.61596 0.0
C421 C 0.76296 0.01073 0.61984 0.0
C422 C 0.75123 0.98537 0.63446 0.0
C423 C 0.73023 0.01015 0.60888 0.0
C424 C 0.81962 0.06239 0.60006 0.0
C425 C 0.72776 0.04595 0.6066 0.0
C426 C 0.69619 0.04495 0.59659 0.0
C427 C 0.66628 0.008 0.58881 0.0
C428 C 0.66876 0.97215 0.59121 0.0
C429 C 0.7004 0.97322 0.60117 0.0
H430 H 0.85168 0.0711 0.59658 0.0
H431 H 0.79919 0.04643 0.58886 0.0
H432 H 0.81882 0.09113 0.60257 0.0
H433 H 0.74988 0.07455 0.61277 0.0
H434 H 0.69473 0.07292 0.59524 0.0
H435 H 0.94983 0.92121 0.98672 0.0
H436 H 0.89549 0.87031 0.96802 0.0
H437 H 0.80379 0.85923 0.00453 0.0
H438 H 0.85801 0.91104 0.02309 0.0
H439 H 0.84101 0.79105 0.97504 0.0
H440 H 0.75685 0.87378 0.9599 0.0
H441 H 0.8073 0.89899 0.96976 0.0
H442 H 0.76224 0.86856 0.98263 0.0
C443 C 0.91805 0.90822 0.99069 0.0
C444 C 0.90811 0.92019 0.00633 0.0
C445 C 0.88705 0.87913 0.97999 0.0
C446 C 0.84554 0.8614 0.98474 0.0
C447 C 0.83553 0.87325 0.00039 0.0
H448 H 0.61924 0.65889 0.94372 0.0
H449 H 0.6724 0.71449 0.96127 0.0
C450 C 0.86654 0.90265 0.01103 0.0
C451 C 0.81304 0.82908 0.97369 0.0
H452 H 0.72417 0.80306 0.95168 0.0
C453 C 0.81562 0.79382 0.96984 0.0
C454 C 0.7799 0.83273 0.96693 0.0
C455 C 0.77652 0.87072 0.96986 0.0
C456 C 0.78569 0.76188 0.95963 0.0
C457 C 0.75247 0.76543 0.95301 0.0
C458 C 0.74973 0.80054 0.95684 0.0
C459 C 0.7202 0.7328 0.94211 0.0
C460 C 0.78936 0.72423 0.95619 0.0
C461 C 0.72948 0.72522 0.92545 0.0
C462 C 0.69911 0.69379 0.9153 0.0
C463 C 0.65889 0.66931 0.92166 0.0
C464 C 0.6497 0.67744 0.93832 0.0
C465 C 0.68005 0.70903 0.94841 0.0
H466 H 0.81235 0.72284 0.96482 0.0
H467 H 0.75915 0.69576 0.95791 0.0
H468 H 0.79914 0.72483 0.94263 0.0
H469 H 0.76023 0.74369 0.92029 0.0
H470 H 0.70708 0.68888 0.90242 0.0
H471 H 0.9347 0.86146 0.35129 0.0
H472 H 0.93142 0.80671 0.33279 0.0
H473 H 0.04234 0.89534 0.30698 0.0
H474 H 0.04576 0.95018 0.32532 0.0
H475 H 0.97687 0.83959 0.2845 0.0
H476 H 0.01085 0.75981 0.33698 0.0
H477 H 0.96913 0.76936 0.34098 0.0
H478 H 0.0207 0.81192 0.33918 0.0
C479 C 0.95833 0.86926 0.34165 0.0
C480 C 0.99059 0.91004 0.33979 0.0
C481 C 0.9565 0.83796 0.33116 0.0
C482 C 0.98691 0.84699 0.31868 0.0
C483 C 0.01867 0.88778 0.31658 0.0
H484 H 0.05411 0.68898 0.26385 0.0
H485 H 0.05138 0.74182 0.28147 0.0
C486 C 0.0206 0.91903 0.32709 0.0
C487 C 0.98594 0.81399 0.30782 0.0
H488 H 0.99595 0.72846 0.30939 0.0
C489 C 0.98089 0.81518 0.28991 0.0
C490 C 0.99166 0.78255 0.31496 0.0
C491 C 0.99873 0.78079 0.33406 0.0
C492 C 0.98126 0.78555 0.27892 0.0
C493 C 0.9865 0.75383 0.28608 0.0
C494 C 0.99167 0.75272 0.30399 0.0
C495 C 0.98794 0.72215 0.27516 0.0
C496 C 0.977 0.78889 0.2597 0.0
C497 C 0.95308 0.69351 0.26588 0.0
C498 C 0.95457 0.66336 0.25576 0.0
C499 C 0.99098 0.66135 0.25478 0.0
C500 C 0.02581 0.69009 0.26415 0.0
C501 C 0.02422 0.7201 0.2743 0.0
H502 H 0.98178 0.81958 0.25601 0.0
H503 H 0.99941 0.78326 0.25258 0.0
H504 H 0.94557 0.76521 0.25554 0.0
H505 H 0.92464 0.69431 0.26656 0.0
H506 H 0.92732 0.64181 0.24861 0.0
H507 H 0.05602 0.9249 0.67351 0.0
H508 H 0.10699 0.92272 0.6545 0.0
H509 H 0.16602 0.05424 0.64768 0.0
H510 H 0.11449 0.05644 0.66624 0.0
H511 H 0.15866 0.01487 0.61745 0.0
H512 H 0.22443 0.95827 0.66743 0.0
H513 H 0.17009 0.92539 0.6642 0.0
H514 H 0.18948 0.97659 0.67263 0.0
C515 C 0.07985 0.95332 0.66793 0.0
C516 C 0.08144 0.99087 0.67142 0.0
C517 C 0.1091 0.95208 0.65717 0.0
C518 C 0.14082 0.98845 0.64996 0.0
C519 C 0.14194 0.02584 0.65318 0.0
H520 H 0.36289 0.06084 0.59209 0.0
H521 H 0.3061 0.05755 0.6088 0.0
C522 C 0.11251 0.02705 0.66379 0.0
C523 C 0.17281 0.98772 0.63897 0.0
H524 H 0.24845 0.9622 0.6388 0.0
C525 C 0.17832 0.00342 0.62213 0.0
C526 C 0.19854 0.97285 0.64513 0.0
C527 C 0.1957 0.95769 0.66338 0.0
C528 C 0.20872 0.00446 0.61127 0.0
C529 C 0.23424 0.98951 0.61743 0.0
C530 C 0.22856 0.97343 0.63415 0.0
C531 C 0.26786 0.99141 0.60684 0.0
C532 C 0.21334 0.02132 0.59324 0.0
C533 C 0.26509 0.95522 0.60032 0.0
C534 C 0.29725 0.95698 0.59057 0.0
C535 C 0.333 0.99497 0.58735 0.0
C536 C 0.33558 0.03115 0.59402 0.0
C537 C 0.30327 0.02936 0.60365 0.0
H538 H 0.18677 0.02497 0.58941 0.0
H539 H 0.24172 0.05193 0.5926 0.0
H540 H 0.2165 0.00079 0.58377 0.0
H541 H 0.23792 0.92565 0.6027 0.0
H542 H 0.29391 0.92858 0.58544 0.0
H543 H 0.0576 0.11284 0.99718 0.0
H544 H 0.11221 0.16518 0.97926 0.0
H545 H 0.19656 0.12724 0.99785 0.0
H546 H 0.14196 0.07457 0.01583 0.0
H547 H 0.191 0.23063 0.99123 0.0
H548 H 0.20498 0.12584 0.94423 0.0
H549 H 0.16039 0.10927 0.95782 0.0
H550 H 0.20729 0.11513 0.9667 0.0
C551 C 0.08772 0.11549 0.9974 0.0
C552 C 0.09551 0.08955 0.00786 0.0
C553 C 0.11885 0.14542 0.98718 0.0
C554 C 0.1582 0.14972 0.98712 0.0
C555 C 0.16617 0.12393 0.99754 0.0
H556 H 0.38141 0.31448 0.93106 0.0
H557 H 0.32964 0.26091 0.94958 0.0
C558 C 0.13504 0.09403 0.00784 0.0
C559 C 0.19108 0.18201 0.97644 0.0
H560 H 0.25224 0.19695 0.9415 0.0
C561 C 0.20443 0.22335 0.98034 0.0
C562 C 0.20856 0.17226 0.96233 0.0
C563 C 0.19449 0.12825 0.95737 0.0
C564 C 0.2351 0.25538 0.97055 0.0
C565 C 0.2521 0.24566 0.95623 0.0
C566 C 0.23905 0.20428 0.95245 0.0
C567 C 0.28323 0.27799 0.94492 0.0
C568 C 0.24949 0.2993 0.97582 0.0
C569 C 0.27405 0.30491 0.93596 0.0
C570 C 0.30355 0.33553 0.92539 0.0
C571 C 0.34262 0.33948 0.92343 0.0
C572 C 0.35146 0.31198 0.93219 0.0
C573 C 0.32201 0.28149 0.94282 0.0
H574 H 0.24226 0.30149 0.98956 0.0
H575 H 0.28318 0.31914 0.97392 0.0
H576 H 0.23354 0.31152 0.96777 0.0
H577 H 0.24395 0.30206 0.93705 0.0
H578 H 0.2956 0.3558 0.91857 0.0
H579 H 0.94493 0.05498 0.32869 0.0
H580 H 0.94611 0.10858 0.31034 0.0
H581 H 0.06818 0.19483 0.32877 0.0
H582 H 0.06732 0.14134 0.34717 0.0
H583 H 0.95837 0.18718 0.32222 0.0
H584 H 0.07699 0.20275 0.2751 0.0
H585 H 0.04962 0.15812 0.28871 0.0
H586 H 0.0906 0.20521 0.29753 0.0
C587 C 0.97215 0.08528 0.32876 0.0
C588 C 0.00609 0.09398 0.33933 0.0
C589 C 0.97273 0.11584 0.31829 0.0
C590 C 0.00737 0.15546 0.31809 0.0
C591 C 0.0414 0.16423 0.32857 0.0
H592 H 0.06591 0.38042 0.26384 0.0
H593 H 0.06711 0.32725 0.28168 0.0
C594 C 0.04078 0.13372 0.33911 0.0
C595 C 0.00719 0.18796 0.30738 0.0
H596 H 0.05327 0.25031 0.27278 0.0
C597 C 0.979 0.20096 0.31137 0.0
C598 C 0.03434 0.2059 0.29333 0.0
C599 C 0.06446 0.19219 0.28825 0.0
C600 C 0.97755 0.23191 0.3018 0.0
C601 C 0.00437 0.24957 0.28759 0.0
C602 C 0.0327 0.23666 0.28365 0.0
C603 C 0.00351 0.28151 0.27666 0.0
C604 C 0.94795 0.24603 0.30723 0.0
C605 C 0.96754 0.27319 0.26771 0.0
C606 C 0.96675 0.30352 0.25755 0.0
C607 C 0.00209 0.34256 0.25597 0.0
C608 C 0.03829 0.35053 0.2647 0.0
C609 C 0.03899 0.32026 0.27493 0.0
H610 H 0.93833 0.23807 0.32089 0.0
H611 H 0.96185 0.27982 0.30566 0.0
H612 H 0.91989 0.23056 0.29903 0.0
H613 H 0.94013 0.24315 0.2685 0.0
H614 H 0.93863 0.29624 0.25074 0.0
loop_
_geom_bond_atom_site_label_1
_geom_bond_atom_site_label_2
_geom_bond_distance
_geom_bond_site_symmetry_2
_ccdc_geom_bond_type
In0 O1 2.294 1_455 S
In0 O2 2.326 . S
In0 O6 2.266 1_445 S
In0 O7 2.326 1_445 S
In0 O8 2.266 1_545 S
In0 O9 2.326 1_445 S
In0 O11 2.294 . S
In0 O12 2.326 . S
O1 In0 2.294 1_655 S
O1 C10 1.240 1_655 S
O2 In0 2.326 . S
O2 C10 1.252 . S
C3 O6 1.252 . S
C3 O7 1.260 . S
C4 O11 1.240 . S
C4 O12 1.252 . S
C5 O8 1.246 1_655 S
C5 O9 1.270 . S
O6 In0 2.266 1_665 S
O6 C3 1.252 . S
O7 In0 2.326 1_665 S
O7 C3 1.260 . S
O8 In0 2.266 1_565 S
O8 C5 1.246 1_455 S
O9 In0 2.326 1_665 S
O9 C5 1.270 . S
C10 O1 1.240 1_455 S
C10 O2 1.252 . S
O11 In0 2.294 . S
O11 C4 1.240 . S
O12 In0 2.326 . S
O12 C4 1.252 . S
In13 O14 2.292 . S
In13 O15 2.307 1_455 S
In13 O19 2.290 . S
In13 O20 2.342 1_545 S
In13 O21 2.269 1_445 S
In13 O22 2.345 1_545 S
In13 O24 2.270 1_445 S
In13 O25 2.309 1_455 S
O14 In13 2.292 . S
O14 C23 1.240 1_455 S
O15 In13 2.307 1_655 S
O15 C23 1.252 . S
C16 O19 1.234 1_565 S
C16 O20 1.268 . S
C17 O24 1.240 1_545 S
C17 O25 1.252 . S
C18 O21 1.252 1_455 S
C18 O22 1.260 . S
O19 In13 2.290 . S
O19 C16 1.234 1_545 S
O20 In13 2.342 1_565 S
O20 C16 1.268 . S
O21 In13 2.269 1_665 S
O21 C18 1.252 1_655 S
O22 In13 2.345 1_565 S
O22 C18 1.260 . S
C23 O14 1.240 1_655 S
C23 O15 1.252 . S
O24 In13 2.270 1_665 S
O24 C17 1.240 1_565 S
O25 In13 2.309 1_655 S
O25 C17 1.252 . S
In26 O27 2.280 1_445 S
In26 O28 2.328 1_445 S
In26 O32 2.252 1_545 S
In26 O33 2.328 . S
In26 O34 2.280 . S
In26 O35 2.323 . S
In26 O37 2.308 1_455 S
In26 O38 2.324 1_445 S
O27 In26 2.280 1_665 S
O27 C36 1.240 . S
O28 In26 2.328 1_665 S
O28 C36 1.252 . S
C29 O32 1.252 1_545 S
C29 O33 1.260 . S
C30 O37 1.240 1_565 S
C30 O38 1.252 . S
C31 O34 1.252 . S
C31 O35 1.260 . S
O32 In26 2.252 1_565 S
O32 C29 1.252 1_565 S
O33 In26 2.328 . S
O33 C29 1.260 . S
O34 In26 2.280 . S
O34 C31 1.252 . S
O35 In26 2.323 . S
O35 C31 1.260 . S
C36 O27 1.240 . S
C36 O28 1.252 . S
O37 In26 2.308 1_655 S
O37 C30 1.240 1_545 S
O38 In26 2.324 1_665 S
O38 C30 1.252 . S
H39 C58 0.949 . S
H40 C59 0.950 . S
H41 C61 0.950 . S
H42 C62 0.950 . S
H43 C64 0.950 . S
H44 C67 0.950 . S
H45 C68 0.950 . S
H46 C70 0.951 . S
H47 C71 0.949 . S
H48 C73 0.949 . S
H49 C74 0.950 . S
H50 C76 0.950 . S
H51 C77 0.950 . S
H52 C79 0.950 . S
H53 C82 0.950 . S
H54 C83 0.950 . S
H55 C85 0.951 . S
H56 C86 0.949 . S
C57 C58 1.376 . S
C57 C62 1.386 1_455 S
C57 C63 1.483 . S
C58 H39 0.949 . S
C58 C57 1.376 . S
C58 C59 1.397 . S
C59 H40 0.950 . S
C59 C58 1.397 . S
C59 C60 1.391 . S
C60 C59 1.391 . S
C60 C61 1.405 1_455 S
C61 H41 0.950 . S
C61 C60 1.405 1_655 S
C61 C62 1.367 . S
C62 H42 0.950 . S
C62 C57 1.386 1_655 S
C62 C61 1.367 . S
C63 C57 1.483 . S
C63 C64 1.382 . S
C63 C65 1.403 1_455 S
C64 H43 0.950 . S
C64 C63 1.382 . S
C64 C80 1.411 . S
C65 C63 1.403 1_655 S
C65 C66 1.489 . S
C65 C79 1.411 . S
C66 C65 1.489 . S
C66 C67 1.383 1_655 S
C66 C71 1.382 . S
C67 H44 0.950 . S
C67 C66 1.383 1_455 S
C67 C68 1.395 . S
C68 H45 0.950 . S
C68 C67 1.395 . S
C68 C69 1.288 1_455 S
C69 C68 1.288 1_655 S
C69 C70 1.392 . S
C70 H46 0.951 . S
C70 C69 1.392 . S
C70 C71 1.392 . S
C71 H47 0.949 . S
C71 C66 1.382 . S
C71 C70 1.392 . S
C72 C73 1.376 . S
C72 C77 1.386 1_655 S
C72 C78 1.494 . S
C73 H48 0.949 . S
C73 C72 1.376 . S
C73 C74 1.397 . S
C74 H49 0.950 . S
C74 C73 1.397 . S
C74 C75 1.384 1_655 S
C75 C74 1.384 1_455 S
C75 C76 1.419 . S
C76 H50 0.950 . S
C76 C75 1.419 . S
C76 C77 1.367 . S
C77 H51 0.950 . S
C77 C72 1.386 1_455 S
C77 C76 1.367 . S
C78 C72 1.494 . S
C78 C79 1.373 . S
C78 C80 1.399 1_655 S
C79 H52 0.950 . S
C79 C65 1.411 . S
C79 C78 1.373 . S
C80 C64 1.411 . S
C80 C78 1.399 1_455 S
C80 C81 1.489 . S
C81 C80 1.489 . S
C81 C82 1.383 1_455 S
C81 C86 1.382 . S
C82 H53 0.950 . S
C82 C81 1.383 1_655 S
C82 C83 1.395 . S
C83 H54 0.950 . S
C83 C82 1.395 . S
C83 C84 1.288 1_655 S
C84 C83 1.288 1_455 S
C84 C85 1.392 . S
C85 H55 0.951 . S
C85 C84 1.392 . S
C85 C86 1.392 . S
C86 H56 0.949 . S
C86 C81 1.382 . S
C86 C85 1.392 . S
H87 C106 0.949 . S
H88 C107 0.950 . S
H89 C109 0.950 . S
H90 C110 0.950 . S
H91 C112 0.950 . S
H92 C115 0.950 . S
H93 C116 0.950 . S
H94 C118 0.951 . S
H95 C119 0.949 . S
H96 C121 0.949 . S
H97 C122 0.950 . S
H98 C124 0.950 . S
H99 C125 0.950 . S
H100 C127 0.950 . S
H101 C130 0.950 . S
H102 C131 0.950 . S
H103 C133 0.951 . S
H104 C134 0.949 . S
C105 C106 1.376 . S
C105 C110 1.386 1_545 S
C105 C111 1.483 . S
C106 H87 0.949 . S
C106 C105 1.376 . S
C106 C107 1.397 . S
C107 H88 0.950 . S
C107 C106 1.397 . S
C107 C108 1.391 . S
C108 C107 1.391 . S
C108 C109 1.405 1_545 S
C109 H89 0.950 . S
C109 C108 1.405 1_565 S
C109 C110 1.367 . S
C110 H90 0.950 . S
C110 C105 1.386 1_565 S
C110 C109 1.367 . S
C111 C105 1.483 . S
C111 C112 1.382 . S
C111 C113 1.403 1_545 S
C112 H91 0.950 . S
C112 C111 1.382 . S
C112 C128 1.411 . S
C113 C111 1.403 1_565 S
C113 C114 1.489 . S
C113 C127 1.411 . S
C114 C113 1.489 . S
C114 C115 1.383 1_565 S
C114 C119 1.382 . S
C115 H92 0.950 . S
C115 C114 1.383 1_545 S
C115 C116 1.395 . S
C116 H93 0.950 . S
C116 C115 1.395 . S
C116 C117 1.288 1_545 S
C117 C116 1.288 1_565 S
C117 C118 1.392 . S
C118 H94 0.951 . S
C118 C117 1.392 . S
C118 C119 1.392 . S
C119 H95 0.949 . S
C119 C114 1.382 . S
C119 C118 1.392 . S
C120 C121 1.376 . S
C120 C125 1.386 1_565 S
C120 C126 1.470 . S
C121 H96 0.949 . S
C121 C120 1.376 . S
C121 C122 1.397 . S
C122 H97 0.950 . S
C122 C121 1.397 . S
C122 C123 1.380 1_565 S
C123 C122 1.380 1_545 S
C123 C124 1.412 . S
C124 H98 0.950 . S
C124 C123 1.412 . S
C124 C125 1.367 . S
C125 H99 0.950 . S
C125 C120 1.386 1_545 S
C125 C124 1.367 . S
C126 C120 1.470 . S
C126 C127 1.398 . S
C126 C128 1.399 1_565 S
C127 H100 0.950 . S
C127 C113 1.411 . S
C127 C126 1.398 . S
C128 C112 1.411 . S
C128 C126 1.399 1_545 S
C128 C129 1.489 . S
C129 C128 1.489 . S
C129 C130 1.383 1_545 S
C129 C134 1.382 . S
C130 H101 0.950 . S
C130 C129 1.383 1_565 S
C130 C131 1.395 . S
C131 H102 0.950 . S
C131 C130 1.395 . S
C131 C132 1.288 1_565 S
C132 C131 1.288 1_545 S
C132 C133 1.392 . S
C133 H103 0.951 . S
C133 C132 1.392 . S
C133 C134 1.392 . S
C134 H104 0.949 . S
C134 C129 1.382 . S
C134 C133 1.392 . S
H135 C154 0.949 . S
H136 C155 0.950 . S
H137 C157 0.950 . S
H138 C158 0.950 . S
H139 C160 0.950 . S
H140 C163 0.950 . S
H141 C164 0.950 . S
H142 C166 0.951 . S
H143 C167 0.949 . S
H144 C169 0.949 . S
H145 C170 0.950 . S
H146 C172 0.950 . S
H147 C173 0.950 . S
H148 C175 0.950 . S
H149 C178 0.950 . S
H150 C179 0.950 . S
H151 C181 0.951 . S
H152 C182 0.949 . S
C153 C154 1.376 . S
C153 C158 1.386 . S
C153 C159 1.483 . S
C154 H135 0.949 . S
C154 C153 1.376 . S
C154 C155 1.397 . S
C155 H136 0.950 . S
C155 C154 1.397 . S
C155 C156 1.391 . S
C156 C155 1.391 . S
C156 C157 1.405 . S
C157 H137 0.950 . S
C157 C156 1.405 . S
C157 C158 1.367 . S
C158 H138 0.950 . S
C158 C153 1.386 . S
C158 C157 1.367 . S
C159 C153 1.483 . S
C159 C160 1.382 . S
C159 C161 1.403 . S
C160 H139 0.950 . S
C160 C159 1.382 . S
C160 C176 1.411 . S
C161 C159 1.403 . S
C161 C162 1.489 . S
C161 C175 1.411 . S
C162 C161 1.489 . S
C162 C163 1.383 . S
C162 C167 1.382 . S
C163 H140 0.950 . S
C163 C162 1.383 . S
C163 C164 1.395 . S
C164 H141 0.950 . S
C164 C163 1.395 . S
C164 C165 1.288 . S
C165 C164 1.288 . S
C165 C166 1.392 . S
C166 H142 0.951 . S
C166 C165 1.392 . S
C166 C167 1.392 . S
C167 H143 0.949 . S
C167 C162 1.382 . S
C167 C166 1.392 . S
C168 C169 1.376 . S
C168 C173 1.386 . S
C168 C174 1.483 . S
C169 H144 0.949 . S
C169 C168 1.376 . S
C169 C170 1.397 . S
C170 H145 0.950 . S
C170 C169 1.397 . S
C170 C171 1.391 . S
C171 C170 1.391 . S
C171 C172 1.405 . S
C172 H146 0.950 . S
C172 C171 1.405 . S
C172 C173 1.367 . S
C173 H147 0.950 . S
C173 C168 1.386 . S
C173 C172 1.367 . S
C174 C168 1.483 . S
C174 C175 1.382 . S
C174 C176 1.403 . S
C175 H148 0.950 . S
C175 C161 1.411 . S
C175 C174 1.382 . S
C176 C160 1.411 . S
C176 C174 1.403 . S
C176 C177 1.489 . S
C177 C176 1.489 . S
C177 C178 1.383 . S
C177 C182 1.382 . S
C178 H149 0.950 . S
C178 C177 1.383 . S
C178 C179 1.395 . S
C179 H150 0.950 . S
C179 C178 1.395 . S
C179 C180 1.288 . S
C180 C179 1.288 . S
C180 C181 1.392 . S
C181 H151 0.951 . S
C181 C180 1.392 . S
C181 C182 1.392 . S
C182 H152 0.949 . S
C182 C177 1.382 . S
C182 C181 1.392 . S
H183 C191 0.929 . S
H184 C193 0.930 . S
H185 C195 0.930 . S
H186 C198 0.929 . S
H187 C201 0.930 . S
H188 C203 0.960 . S
H189 C203 0.960 . S
H190 C203 0.960 . S
C191 H183 0.929 . S
C191 C192 1.377 . S
C191 C193 1.384 . S
C192 C191 1.377 . S
C192 C198 1.390 . S
C193 H184 0.930 . S
C193 C191 1.384 . S
C193 C194 1.372 . S
C194 C193 1.372 . S
C194 C195 1.400 . S
C194 C199 1.490 . S
C195 H185 0.930 . S
C195 C194 1.400 . S
C195 C198 1.386 . S
H196 C212 0.930 . S
H197 C213 0.931 . S
C198 H186 0.929 . S
C198 C192 1.390 . S
C198 C195 1.386 . S
C199 C194 1.490 . S
C199 C201 1.395 . S
C199 C202 1.403 1_455 S
H200 C206 0.930 . S
C201 H187 0.930 . S
C201 C199 1.395 . S
C201 C204 1.403 . S
C202 C199 1.403 1_655 S
C202 C203 1.524 . S
C202 C206 1.400 . S
C203 H188 0.960 . S
C203 H189 0.960 . S
C203 H190 0.960 . S
C203 C202 1.524 . S
C204 C201 1.403 . S
C204 C205 1.392 . S
C204 C208 1.495 . S
C205 C204 1.392 . S
C205 C206 1.385 1_455 S
C205 C207 1.478 . S
C206 H200 0.930 . S
C206 C202 1.400 . S
C206 C205 1.385 1_655 S
C207 C205 1.478 . S
C207 C209 1.381 . S
C207 C213 1.383 . S
C208 C204 1.495 . S
C208 H214 0.959 . S
C208 H215 0.961 . S
C208 H216 0.960 . S
C209 C207 1.381 . S
C209 C210 1.404 . S
C209 H217 0.923 . S
C210 C209 1.404 . S
C210 C211 1.376 . S
C210 H218 0.926 1_455 S
C211 C210 1.376 . S
C211 C212 1.377 . S
C212 H196 0.930 . S
C212 C211 1.377 . S
C212 C213 1.379 . S
C213 H197 0.931 . S
C213 C207 1.383 . S
C213 C212 1.379 . S
H214 C208 0.959 . S
H215 C208 0.961 . S
H216 C208 0.960 . S
H217 C209 0.923 . S
H218 C210 0.926 1_655 S
H219 C227 0.929 . S
H220 C229 0.930 . S
H221 C231 0.930 . S
H222 C234 0.929 . S
H223 C237 0.930 . S
H224 C239 0.960 . S
H225 C239 0.960 1_545 S
H226 C239 0.960 . S
C227 H219 0.929 . S
C227 C228 1.377 . S
C227 C229 1.384 . S
C228 C227 1.377 . S
C228 C234 1.390 1_545 S
C229 H220 0.930 . S
C229 C227 1.384 . S
C229 C230 1.372 . S
C230 C229 1.372 . S
C230 C231 1.400 1_545 S
C230 C235 1.490 . S
C231 H221 0.930 . S
C231 C230 1.400 1_565 S
C231 C234 1.386 . S
H232 C248 0.930 . S
H233 C249 0.931 . S
C234 H222 0.929 . S
C234 C228 1.390 1_565 S
C234 C231 1.386 . S
C235 C230 1.490 . S
C235 C237 1.395 . S
C235 C238 1.403 1_545 S
H236 C242 0.930 . S
C237 H223 0.930 . S
C237 C235 1.395 . S
C237 C240 1.403 . S
C238 C235 1.403 1_565 S
C238 C239 1.524 . S
C238 C242 1.400 . S
C239 H224 0.960 . S
C239 H225 0.960 1_565 S
C239 H226 0.960 . S
C239 C238 1.524 . S
C240 C237 1.403 . S
C240 C241 1.392 . S
C240 C244 1.495 . S
C241 C240 1.392 . S
C241 C242 1.385 1_545 S
C241 C243 1.478 . S
C242 H236 0.930 . S
C242 C238 1.400 . S
C242 C241 1.385 1_565 S
C243 C241 1.478 . S
C243 C245 1.381 . S
C243 C249 1.383 1_545 S
C244 C240 1.495 . S
C244 H250 0.959 . S
C244 H251 0.961 . S
C244 H252 0.960 . S
C245 C243 1.381 . S
C245 C246 1.394 . S
C245 H253 0.930 . S
C246 C245 1.394 . S
C246 C247 1.383 . S
C246 H254 0.929 . S
C247 C246 1.383 . S
C247 C248 1.377 1_545 S
C248 H232 0.930 . S
C248 C247 1.377 1_565 S
C248 C249 1.379 . S
C249 H233 0.931 . S
C249 C243 1.383 1_565 S
C249 C248 1.379 . S
H250 C244 0.959 . S
H251 C244 0.961 . S
H252 C244 0.960 . S
H253 C245 0.930 . S
H254 C246 0.929 . S
H255 C263 0.929 . S
H256 C265 0.930 . S
H257 C267 0.930 . S
H258 C270 0.929 . S
H259 C273 0.930 . S
H260 C275 0.960 . S
H261 C275 0.960 . S
H262 C275 0.960 . S
C263 H255 0.929 . S
C263 C264 1.377 . S
C263 C265 1.384 . S
C264 C263 1.377 . S
C264 C270 1.390 . S
C265 H256 0.930 . S
C265 C263 1.384 . S
C265 C266 1.372 . S
C266 C265 1.372 . S
C266 C267 1.400 . S
C266 C271 1.490 . S
C267 H257 0.930 . S
C267 C266 1.400 . S
C267 C270 1.386 . S
H268 C284 0.930 . S
H269 C285 0.931 . S
C270 H258 0.929 . S
C270 C264 1.390 . S
C270 C267 1.386 . S
C271 C266 1.490 . S
C271 C273 1.395 . S
C271 C274 1.403 . S
H272 C278 0.930 . S
C273 H259 0.930 . S
C273 C271 1.395 . S
C273 C276 1.403 . S
C274 C271 1.403 . S
C274 C275 1.524 . S
C274 C278 1.400 . S
C275 H260 0.960 . S
C275 H261 0.960 . S
C275 H262 0.960 . S
C275 C274 1.524 . S
C276 C273 1.403 . S
C276 C277 1.392 . S
C276 C280 1.495 . S
C277 C276 1.392 . S
C277 C278 1.385 . S
C277 C279 1.478 . S
C278 H272 0.930 . S
C278 C274 1.400 . S
C278 C277 1.385 . S
C279 C277 1.478 . S
C279 C281 1.381 . S
C279 C285 1.383 . S
C280 C276 1.495 . S
C280 H286 0.959 . S
C280 H287 0.961 . S
C280 H288 0.960 . S
C281 C279 1.381 . S
C281 C282 1.394 . S
C281 H289 0.930 . S
C282 C281 1.394 . S
C282 C283 1.383 . S
C282 H290 0.929 . S
C283 C282 1.383 . S
C283 C284 1.377 . S
C284 H268 0.930 . S
C284 C283 1.377 . S
C284 C285 1.379 . S
C285 H269 0.931 . S
C285 C279 1.383 . S
C285 C284 1.379 . S
H286 C280 0.959 . S
H287 C280 0.961 . S
H288 C280 0.960 . S
H289 C281 0.930 . S
H290 C282 0.929 . S
H291 C299 0.929 . S
H292 C301 0.930 . S
H293 C303 0.930 . S
H294 C306 0.929 . S
H295 C309 0.930 . S
H296 C311 0.960 . S
H297 C311 0.960 . S
H298 C311 0.960 . S
C299 H291 0.929 . S
C299 C300 1.378 1_655 S
C299 C301 1.384 . S
C300 C299 1.378 1_455 S
C300 C306 1.389 . S
C301 H292 0.930 . S
C301 C299 1.384 . S
C301 C302 1.384 . S
C302 C301 1.384 . S
C302 C303 1.394 1_655 S
C302 C307 1.485 . S
C303 H293 0.930 . S
C303 C302 1.394 1_455 S
C303 C306 1.386 . S
H304 C320 0.930 . S
H305 C321 0.931 . S
C306 H294 0.929 . S
C306 C300 1.389 . S
C306 C303 1.386 . S
C307 C302 1.485 . S
C307 C309 1.395 . S
C307 C310 1.403 1_655 S
H308 C314 0.930 . S
C309 H295 0.930 . S
C309 C307 1.395 . S
C309 C312 1.403 . S
C310 C307 1.403 1_455 S
C310 C311 1.524 . S
C310 C314 1.400 . S
C311 H296 0.960 . S
C311 H297 0.960 . S
C311 H298 0.960 . S
C311 C310 1.524 . S
C312 C309 1.403 . S
C312 C313 1.392 . S
C312 C316 1.495 . S
C313 C312 1.392 . S
C313 C314 1.385 1_655 S
C313 C315 1.478 . S
C314 H308 0.930 . S
C314 C310 1.400 . S
C314 C313 1.385 1_455 S
C315 C313 1.478 . S
C315 C317 1.381 . S
C315 C321 1.383 1_655 S
C316 C312 1.495 . S
C316 H322 0.959 . S
C316 H323 0.961 . S
C316 H324 0.960 . S
C317 C315 1.381 . S
C317 C318 1.394 . S
C317 H325 0.930 . S
C318 C317 1.394 . S
C318 C319 1.397 . S
C318 H326 0.929 . S
C319 C318 1.397 . S
C319 C320 1.371 1_655 S
C320 H304 0.930 . S
C320 C319 1.371 1_455 S
C320 C321 1.379 . S
C321 H305 0.931 . S
C321 C315 1.383 1_455 S
C321 C320 1.379 . S
H322 C316 0.959 . S
H323 C316 0.961 . S
H324 C316 0.960 . S
H325 C317 0.930 . S
H326 C318 0.929 . S
H327 C335 0.929 . S
H328 C337 0.930 . S
H329 C339 0.930 . S
H330 C342 0.929 . S
H331 C345 0.930 . S
H332 C347 0.960 . S
H333 C347 0.960 . S
H334 C347 0.960 . S
C335 H327 0.929 . S
C335 C336 1.377 . S
C335 C337 1.384 . S
C336 C335 1.377 . S
C336 C342 1.389 1_565 S
C337 H328 0.930 . S
C337 C335 1.384 . S
C337 C338 1.372 . S
C338 C337 1.372 . S
C338 C339 1.399 1_565 S
C338 C343 1.490 . S
C339 H329 0.930 . S
C339 C338 1.399 1_545 S
C339 C342 1.386 . S
H340 C356 0.930 . S
H341 C357 0.931 . S
C342 H330 0.929 . S
C342 C336 1.389 1_545 S
C342 C339 1.386 . S
C343 C338 1.490 . S
C343 C345 1.395 . S
C343 C346 1.403 1_565 S
H344 C350 0.930 . S
C345 H331 0.930 . S
C345 C343 1.395 . S
C345 C348 1.403 . S
C346 C343 1.403 1_545 S
C346 C347 1.524 . S
C346 C350 1.400 . S
C347 H332 0.960 . S
C347 H333 0.960 . S
C347 H334 0.960 . S
C347 C346 1.524 . S
C348 C345 1.403 . S
C348 C349 1.392 . S
C348 C352 1.495 . S
C349 C348 1.392 . S
C349 C350 1.385 1_565 S
C349 C351 1.478 . S
C350 H344 0.930 . S
C350 C346 1.400 . S
C350 C349 1.385 1_545 S
C351 C349 1.478 . S
C351 C353 1.381 . S
C351 C357 1.383 1_565 S
C352 C348 1.495 . S
C352 H358 0.959 . S
C352 H359 0.961 . S
C352 H360 0.960 . S
C353 C351 1.381 . S
C353 C354 1.394 . S
C353 H361 0.930 . S
C354 C353 1.394 . S
C354 C355 1.378 . S
C354 H362 0.929 . S
C355 C354 1.378 . S
C355 C356 1.373 1_565 S
C356 H340 0.930 . S
C356 C355 1.373 1_545 S
C356 C357 1.379 . S
C357 H341 0.931 . S
C357 C351 1.383 1_545 S
C357 C356 1.379 . S
H358 C352 0.959 . S
H359 C352 0.961 . S
H360 C352 0.960 . S
H361 C353 0.930 . S
H362 C354 0.929 . S
H363 C371 0.929 . S
H364 C373 0.930 . S
H365 C375 0.930 . S
H366 C378 0.929 . S
H367 C381 0.930 . S
H368 C383 0.960 . S
H369 C383 0.960 . S
H370 C383 0.960 . S
C371 H363 0.929 . S
C371 C372 1.377 . S
C371 C373 1.384 . S
C372 C371 1.377 . S
C372 C378 1.390 . S
C373 H364 0.930 . S
C373 C371 1.384 . S
C373 C374 1.372 . S
C374 C373 1.372 . S
C374 C375 1.400 . S
C374 C379 1.490 . S
C375 H365 0.930 . S
C375 C374 1.400 . S
C375 C378 1.386 . S
H376 C392 0.930 . S
H377 C393 0.931 . S
C378 H366 0.929 . S
C378 C372 1.390 . S
C378 C375 1.386 . S
C379 C374 1.490 . S
C379 C381 1.395 . S
C379 C382 1.403 . S
H380 C386 0.930 . S
C381 H367 0.930 . S
C381 C379 1.395 . S
C381 C384 1.403 . S
C382 C379 1.403 . S
C382 C383 1.524 . S
C382 C386 1.400 . S
C383 H368 0.960 . S
C383 H369 0.960 . S
C383 H370 0.960 . S
C383 C382 1.524 . S
C384 C381 1.403 . S
C384 C385 1.392 . S
C384 C388 1.495 . S
C385 C384 1.392 . S
C385 C386 1.385 . S
C385 C387 1.478 . S
C386 H380 0.930 . S
C386 C382 1.400 . S
C386 C385 1.385 . S
C387 C385 1.478 . S
C387 C389 1.381 . S
C387 C393 1.383 . S
C388 C384 1.495 . S
C388 H394 0.959 . S
C388 H395 0.961 . S
C388 H396 0.960 . S
C389 C387 1.381 . S
C389 C390 1.394 . S
C389 H397 0.930 . S
C390 C389 1.394 . S
C390 C391 1.383 . S
C390 H398 0.929 . S
C391 C390 1.383 . S
C391 C392 1.377 . S
C392 H376 0.930 . S
C392 C391 1.377 . S
C392 C393 1.379 . S
C393 H377 0.931 . S
C393 C387 1.383 . S
C393 C392 1.379 . S
H394 C388 0.959 . S
H395 C388 0.961 . S
H396 C388 0.960 . S
H397 C389 0.930 . S
H398 C390 0.929 . S
H399 C407 0.929 . S
H400 C409 0.930 . S
H401 C411 0.930 . S
H402 C414 0.929 . S
H403 C417 0.930 . S
H404 C419 0.960 . S
H405 C419 0.960 . S
H406 C419 0.960 . S
C407 H399 0.929 . S
C407 C408 1.377 1_545 S
C407 C409 1.384 . S
C408 C407 1.377 1_565 S
C408 C414 1.390 . S
C409 H400 0.930 . S
C409 C407 1.384 . S
C409 C410 1.382 . S
C410 C409 1.382 . S
C410 C411 1.380 1_545 S
C410 C415 1.499 . S
C411 H401 0.930 . S
C411 C410 1.380 1_565 S
C411 C414 1.386 . S
H412 C428 0.930 . S
H413 C429 0.931 . S
C414 H402 0.929 . S
C414 C408 1.390 . S
C414 C411 1.386 . S
C415 C410 1.499 . S
C415 C417 1.395 . S
C415 C418 1.403 1_545 S
H416 C422 0.930 . S
C417 H403 0.930 . S
C417 C415 1.395 . S
C417 C420 1.403 . S
C418 C415 1.403 1_565 S
C418 C419 1.524 . S
C418 C422 1.400 . S
C419 H404 0.960 . S
C419 H405 0.960 . S
C419 H406 0.960 . S
C419 C418 1.524 . S
C420 C417 1.403 . S
C420 C421 1.392 . S
C420 C424 1.495 . S
C421 C420 1.392 . S
C421 C422 1.385 1_545 S
C421 C423 1.478 . S
C422 H416 0.930 . S
C422 C418 1.400 . S
C422 C421 1.385 1_565 S
C423 C421 1.478 . S
C423 C425 1.381 . S
C423 C429 1.383 1_545 S
C424 C420 1.495 . S
C424 H430 0.959 . S
C424 H431 0.961 . S
C424 H432 0.960 . S
C425 C423 1.381 . S
C425 C426 1.394 . S
C425 H433 0.930 . S
C426 C425 1.394 . S
C426 C427 1.383 . S
C426 H434 0.929 . S
C427 C426 1.383 . S
C427 C428 1.377 1_545 S
C428 H412 0.930 . S
C428 C427 1.377 1_565 S
C428 C429 1.379 . S
C429 H413 0.931 . S
C429 C423 1.383 1_565 S
C429 C428 1.379 . S
H430 C424 0.959 . S
H431 C424 0.961 . S
H432 C424 0.960 . S
H433 C425 0.930 . S
H434 C426 0.929 . S
H435 C443 0.929 . S
H436 C445 0.930 . S
H437 C447 0.930 . S
H438 C450 0.929 . S
H439 C453 0.930 . S
H440 C455 0.960 . S
H441 C455 0.960 . S
H442 C455 0.960 . S
C443 H435 0.929 . S
C443 C444 1.377 1_556 S
C443 C445 1.384 . S
C444 C443 1.377 1_554 S
C444 C450 1.390 . S
C445 H436 0.930 . S
C445 C443 1.384 . S
C445 C446 1.372 . S
C446 C445 1.372 . S
C446 C447 1.400 1_556 S
C446 C451 1.490 . S
C447 H437 0.930 . S
C447 C446 1.400 1_554 S
C447 C450 1.386 . S
H448 C464 0.930 . S
H449 C465 0.931 . S
C450 H438 0.929 . S
C450 C444 1.390 . S
C450 C447 1.386 . S
C451 C446 1.490 . S
C451 C453 1.395 . S
C451 C454 1.403 . S
H452 C458 0.930 . S
C453 H439 0.930 . S
C453 C451 1.395 . S
C453 C456 1.403 . S
C454 C451 1.403 . S
C454 C455 1.524 . S
C454 C458 1.400 . S
C455 H440 0.960 . S
C455 H441 0.960 . S
C455 H442 0.960 . S
C455 C454 1.524 . S
C456 C453 1.403 . S
C456 C457 1.392 . S
C456 C460 1.495 . S
C457 C456 1.392 . S
C457 C458 1.385 . S
C457 C459 1.478 . S
C458 H452 0.930 . S
C458 C454 1.400 . S
C458 C457 1.385 . S
C459 C457 1.478 . S
C459 C461 1.381 . S
C459 C465 1.383 . S
C460 C456 1.495 . S
C460 H466 0.959 . S
C460 H467 0.961 . S
C460 H468 0.960 . S
C461 C459 1.381 . S
C461 C462 1.394 . S
C461 H469 0.930 . S
C462 C461 1.394 . S
C462 C463 1.383 . S
C462 H470 0.929 . S
C463 C462 1.383 . S
C463 C464 1.377 . S
C464 H448 0.930 . S
C464 C463 1.377 . S
C464 C465 1.379 . S
C465 H449 0.931 . S
C465 C459 1.383 . S
C465 C464 1.379 . S
H466 C460 0.959 . S
H467 C460 0.961 . S
H468 C460 0.960 . S
H469 C461 0.930 . S
H470 C462 0.929 . S
H471 C479 0.929 . S
H472 C481 0.930 . S
H473 C483 0.930 . S
H474 C486 0.929 . S
H475 C489 0.930 . S
H476 C491 0.960 . S
H477 C491 0.960 . S
H478 C491 0.960 1_455 S
C479 H471 0.929 . S
C479 C480 1.377 1_655 S
C479 C481 1.384 . S
C480 C479 1.377 1_455 S
C480 C486 1.390 . S
C481 H472 0.930 . S
C481 C479 1.384 . S
C481 C482 1.372 1_655 S
C482 C481 1.372 1_455 S
C482 C483 1.400 . S
C482 C487 1.490 . S
C483 H473 0.930 . S
C483 C482 1.400 . S
C483 C486 1.386 . S
H484 C500 0.930 . S
H485 C501 0.931 . S
C486 H474 0.929 . S
C486 C480 1.390 . S
C486 C483 1.386 . S
C487 C482 1.490 . S
C487 C489 1.395 . S
C487 C490 1.403 1_455 S
H488 C494 0.930 . S
C489 H475 0.930 . S
C489 C487 1.395 . S
C489 C492 1.403 . S
C490 C487 1.403 1_655 S
C490 C491 1.524 . S
C490 C494 1.400 . S
C491 H476 0.960 . S
C491 H477 0.960 . S
C491 H478 0.960 1_655 S
C491 C490 1.524 . S
C492 C489 1.403 . S
C492 C493 1.392 . S
C492 C496 1.495 . S
C493 C492 1.392 . S
C493 C494 1.385 1_455 S
C493 C495 1.478 . S
C494 H488 0.930 . S
C494 C490 1.400 . S
C494 C493 1.385 1_655 S
C495 C493 1.478 . S
C495 C497 1.381 1_455 S
C495 C501 1.383 . S
C496 C492 1.495 . S
C496 H502 0.959 . S
C496 H503 0.961 . S
C496 H504 0.960 1_455 S
C497 C495 1.381 1_655 S
C497 C498 1.394 . S
C497 H505 0.930 . S
C498 C497 1.394 . S
C498 C499 1.383 1_655 S
C498 H506 0.929 . S
C499 C498 1.383 1_455 S
C499 C500 1.377 . S
C500 H484 0.930 . S
C500 C499 1.377 . S
C500 C501 1.379 . S
C501 H485 0.931 . S
C501 C495 1.383 . S
C501 C500 1.379 . S
H502 C496 0.959 . S
H503 C496 0.961 . S
H504 C496 0.960 1_655 S
H505 C497 0.930 . S
H506 C498 0.929 . S
H507 C515 0.929 . S
H508 C517 0.930 . S
H509 C519 0.930 . S
H510 C522 0.929 . S
H511 C525 0.930 . S
H512 C527 0.960 . S
H513 C527 0.960 . S
H514 C527 0.960 . S
C515 H507 0.929 . S
C515 C516 1.377 1_565 S
C515 C517 1.384 . S
C516 C515 1.377 1_545 S
C516 C522 1.390 . S
C517 H508 0.930 . S
C517 C515 1.384 . S
C517 C518 1.372 1_565 S
C518 C517 1.372 1_545 S
C518 C519 1.400 . S
C518 C523 1.490 . S
C519 H509 0.930 . S
C519 C518 1.400 . S
C519 C522 1.386 . S
H520 C536 0.930 . S
H521 C537 0.931 . S
C522 H510 0.929 . S
C522 C516 1.390 . S
C522 C519 1.386 . S
C523 C518 1.490 . S
C523 C525 1.395 . S
C523 C526 1.403 1_545 S
H524 C530 0.930 . S
C525 H511 0.930 . S
C525 C523 1.395 . S
C525 C528 1.403 . S
C526 C523 1.403 1_565 S
C526 C527 1.524 . S
C526 C530 1.400 . S
C527 H512 0.960 . S
C527 H513 0.960 . S
C527 H514 0.960 . S
C527 C526 1.524 . S
C528 C525 1.403 . S
C528 C529 1.392 . S
C528 C532 1.495 . S
C529 C528 1.392 . S
C529 C530 1.385 1_545 S
C529 C531 1.478 . S
C530 H524 0.930 . S
C530 C526 1.400 . S
C530 C529 1.385 1_565 S
C531 C529 1.478 . S
C531 C533 1.381 1_545 S
C531 C537 1.383 . S
C532 C528 1.495 . S
C532 H538 0.959 . S
C532 H539 0.961 . S
C532 H540 0.960 . S
C533 C531 1.381 1_565 S
C533 C534 1.394 . S
C533 H541 0.930 . S
C534 C533 1.394 . S
C534 C535 1.383 1_565 S
C534 H542 0.929 . S
C535 C534 1.383 1_545 S
C535 C536 1.377 . S
C536 H520 0.930 . S
C536 C535 1.377 . S
C536 C537 1.379 . S
C537 H521 0.931 . S
C537 C531 1.383 . S
C537 C536 1.379 . S
H538 C532 0.959 . S
H539 C532 0.961 . S
H540 C532 0.960 . S
H541 C533 0.930 . S
H542 C534 0.929 . S
H543 C551 0.929 . S
H544 C553 0.930 . S
H545 C555 0.930 1_554 S
H546 C558 0.929 . S
H547 C561 0.930 . S
H548 C563 0.960 . S
H549 C563 0.960 . S
H550 C563 0.960 . S
C551 H543 0.929 . S
C551 C552 1.377 1_556 S
C551 C553 1.384 . S
C552 C551 1.377 1_554 S
C552 C558 1.390 . S
C553 H544 0.930 . S
C553 C551 1.384 . S
C553 C554 1.372 . S
C554 C553 1.372 . S
C554 C555 1.400 . S
C554 C559 1.490 . S
C555 H545 0.930 1_556 S
C555 C554 1.400 . S
C555 C558 1.386 1_556 S
H556 C572 0.930 . S
H557 C573 0.931 . S
C558 H546 0.929 . S
C558 C552 1.390 . S
C558 C555 1.386 1_554 S
C559 C554 1.490 . S
C559 C561 1.395 . S
C559 C562 1.403 . S
H560 C566 0.930 . S
C561 H547 0.930 . S
C561 C559 1.395 . S
C561 C564 1.403 . S
C562 C559 1.403 . S
C562 C563 1.524 . S
C562 C566 1.400 . S
C563 H548 0.960 . S
C563 H549 0.960 . S
C563 H550 0.960 . S
C563 C562 1.524 . S
C564 C561 1.403 . S
C564 C565 1.392 . S
C564 C568 1.495 . S
C565 C564 1.392 . S
C565 C566 1.385 . S
C565 C567 1.478 . S
C566 H560 0.930 . S
C566 C562 1.400 . S
C566 C565 1.385 . S
C567 C565 1.478 . S
C567 C569 1.381 . S
C567 C573 1.383 . S
C568 C564 1.495 . S
C568 H574 0.959 . S
C568 H575 0.961 . S
C568 H576 0.960 . S
C569 C567 1.381 . S
C569 C570 1.394 . S
C569 H577 0.930 . S
C570 C569 1.394 . S
C570 C571 1.383 . S
C570 H578 0.929 . S
C571 C570 1.383 . S
C571 C572 1.377 . S
C572 H556 0.930 . S
C572 C571 1.377 . S
C572 C573 1.379 . S
C573 H557 0.931 . S
C573 C567 1.383 . S
C573 C572 1.379 . S
H574 C568 0.959 . S
H575 C568 0.961 . S
H576 C568 0.960 . S
H577 C569 0.930 . S
H578 C570 0.929 . S
H579 C587 0.929 . S
H580 C589 0.930 . S
H581 C591 0.930 . S
H582 C594 0.929 . S
H583 C597 0.930 . S
H584 C599 0.960 . S
H585 C599 0.960 . S
H586 C599 0.960 . S
C587 H579 0.929 . S
C587 C588 1.377 . S
C587 C589 1.384 . S
C588 C587 1.377 . S
C588 C594 1.390 1_655 S
C589 H580 0.930 . S
C589 C587 1.384 . S
C589 C590 1.372 . S
C590 C589 1.372 . S
C590 C591 1.400 1_655 S
C590 C595 1.490 . S
C591 H581 0.930 . S
C591 C590 1.400 1_455 S
C591 C594 1.386 . S
H592 C608 0.930 . S
H593 C609 0.931 . S
C594 H582 0.929 . S
C594 C588 1.390 1_455 S
C594 C591 1.386 . S
C595 C590 1.490 . S
C595 C597 1.395 . S
C595 C598 1.403 1_655 S
H596 C602 0.930 . S
C597 H583 0.930 . S
C597 C595 1.395 . S
C597 C600 1.403 . S
C598 C595 1.403 1_455 S
C598 C599 1.524 . S
C598 C602 1.400 . S
C599 H584 0.960 . S
C599 H585 0.960 . S
C599 H586 0.960 . S
C599 C598 1.524 . S
C600 C597 1.403 . S
C600 C601 1.392 . S
C600 C604 1.495 . S
C601 C600 1.392 . S
C601 C602 1.385 1_655 S
C601 C603 1.478 . S
C602 H596 0.930 . S
C602 C598 1.400 . S
C602 C601 1.385 1_455 S
C603 C601 1.478 . S
C603 C605 1.381 . S
C603 C609 1.383 1_655 S
C604 C600 1.495 . S
C604 H610 0.959 . S
C604 H611 0.961 . S
C604 H612 0.960 . S
C605 C603 1.381 . S
C605 C606 1.394 . S
C605 H613 0.930 . S
C606 C605 1.394 . S
C606 C607 1.382 . S
C606 H614 0.929 . S
C607 C606 1.382 . S
C607 C608 1.378 1_655 S
C608 H592 0.930 . S
C608 C607 1.378 1_455 S
C608 C609 1.379 . S
C609 H593 0.931 . S
C609 C603 1.383 1_455 S
C609 C608 1.379 . S
H610 C604 0.959 . S
H611 C604 0.961 . S
H612 C604 0.960 . S
H613 C605 0.930 . S
H614 C606 0.929 . S
C211 C60 1.534 . S
C192 C10 1.542 . S
C228 C17 1.543 . S
C247 C108 1.540 . S
C264 C36 1.543 . S
C283 C180 1.542 . S
C300 C5 1.540 1_455 S
C319 C84 1.534 1_655 S
C355 C132 1.552 1_565 S
C336 C16 1.554 . S
C372 C31 1.543 . S
C391 C156 1.534 . S
C427 C117 1.538 1_545 S
C408 C30 1.542 . S
C444 C3 1.543 . S
C463 C171 1.540 . S
C499 C75 1.530 . S
C480 C18 1.544 . S
C535 C123 1.543 . S
C516 C29 1.544 . S
C571 C165 1.526 . S
C552 C4 1.544 . S
C588 C23 1.543 . S
C607 C69 1.527 . S
