# Generated by pormake.
# Topology eea, (3,6)-cn, num edge types: 1
# Building blocks:
#     Node 0, Type 0, BuildingBlock: BETDAH_clean_linker_0, # of connection points: 3
#     Node 1, Type 0, BuildingBlock: BETDAH_clean_linker_0, # of connection points: 3
#     Node 2, Type 0, BuildingBlock: BETDAH_clean_linker_0, # of connection points: 3
#     Node 3, Type 0, BuildingBlock: BETDAH_clean_linker_0, # of connection points: 3
#     Node 4, Type 0, BuildingBlock: BETDAH_clean_linker_0, # of connection points: 3
#     Node 5, Type 0, BuildingBlock: BETDAH_clean_linker_0, # of connection points: 3
#     Node 6, Type 0, BuildingBlock: BETDAH_clean_linker_0, # of connection points: 3
#     Node 7, Type 0, BuildingBlock: BETDAH_clean_linker_0, # of connection points: 3
#     Node 8, Type 0, BuildingBlock: BETDAH_clean_linker_0, # of connection points: 3
#     Node 9, Type 0, BuildingBlock: BETDAH_clean_linker_0, # of connection points: 3
#     Node 10, Type 0, BuildingBlock: BETDAH_clean_linker_0, # of connection points: 3
#     Node 11, Type 0, BuildingBlock: BETDAH_clean_linker_0, # of connection points: 3
#     Node 12, Type 0, BuildingBlock: BETDAH_clean_linker_0, # of connection points: 3
#     Node 13, Type 0, BuildingBlock: BETDAH_clean_linker_0, # of connection points: 3
#     Node 14, Type 0, BuildingBlock: BETDAH_clean_linker_0, # of connection points: 3
#     Node 15, Type 0, BuildingBlock: BETDAH_clean_linker_0, # of connection points: 3
#     Node 16, Type 0, BuildingBlock: BETDAH_clean_linker_0, # of connection points: 3
#     Node 17, Type 0, BuildingBlock: BETDAH_clean_linker_0, # of connection points: 3
#     Node 18, Type 1, BuildingBlock: LEVNOQ01_clean_sbu_1, # of connection points: 6
#     Node 19, Type 1, BuildingBlock: LEVNOQ01_clean_sbu_1, # of connection points: 6
#     Node 20, Type 1, BuildingBlock: LEVNOQ01_clean_sbu_1, # of connection points: 6
#     Node 21, Type 1, BuildingBlock: LEVNOQ01_clean_sbu_1, # of connection points: 6
#     Node 22, Type 1, BuildingBlock: LEVNOQ01_clean_sbu_1, # of connection points: 6
#     Node 23, Type 1, BuildingBlock: LEVNOQ01_clean_sbu_1, # of connection points: 6
#     Node 24, Type 1, BuildingBlock: LEVNOQ01_clean_sbu_1, # of connection points: 6
#     Node 25, Type 1, BuildingBlock: LEVNOQ01_clean_sbu_1, # of connection points: 6
#     Node 26, Type 1, BuildingBlock: LEVNOQ01_clean_sbu_1, # of connection points: 6
#     Edge 27, Type (0, 1), BuildingBlock: UVAHIK_clean_linker_0, # of connection points: 2
#     Edge 28, Type (0, 1), BuildingBlock: UVAHIK_clean_linker_0, # of connection points: 2
#     Edge 29, Type (0, 1), BuildingBlock: UVAHIK_clean_linker_0, # of connection points: 2
#     Edge 30, Type (0, 1), BuildingBlock: UVAHIK_clean_linker_0, # of connection points: 2
#     Edge 31, Type (0, 1), BuildingBlock: UVAHIK_clean_linker_0, # of connection points: 2
#     Edge 32, Type (0, 1), BuildingBlock: UVAHIK_clean_linker_0, # of connection points: 2
#     Edge 33, Type (0, 1), BuildingBlock: UVAHIK_clean_linker_0, # of connection points: 2
#     Edge 34, Type (0, 1), BuildingBlock: UVAHIK_clean_linker_0, # of connection points: 2
#     Edge 35, Type (0, 1), BuildingBlock: UVAHIK_clean_linker_0, # of connection points: 2
#     Edge 36, Type (0, 1), BuildingBlock: UVAHIK_clean_linker_0, # of connection points: 2
#     Edge 37, Type (0, 1), BuildingBlock: UVAHIK_clean_linker_0, # of connection points: 2
#     Edge 38, Type (0, 1), BuildingBlock: UVAHIK_clean_linker_0, # of connection points: 2
#     Edge 39, Type (0, 1), BuildingBlock: UVAHIK_clean_linker_0, # of connection points: 2
#     Edge 40, Type (0, 1), BuildingBlock: UVAHIK_clean_linker_0, # of connection points: 2
#     Edge 41, Type (0, 1), BuildingBlock: UVAHIK_clean_linker_0, # of connection points: 2
#     Edge 42, Type (0, 1), BuildingBlock: UVAHIK_clean_linker_0, # of connection points: 2
#     Edge 43, Type (0, 1), BuildingBlock: UVAHIK_clean_linker_0, # of connection points: 2
#     Edge 44, Type (0, 1), BuildingBlock: UVAHIK_clean_linker_0, # of connection points: 2
#     Edge 45, Type (0, 1), BuildingBlock: UVAHIK_clean_linker_0, # of connection points: 2
#     Edge 46, Type (0, 1), BuildingBlock: UVAHIK_clean_linker_0, # of connection points: 2
#     Edge 47, Type (0, 1), BuildingBlock: UVAHIK_clean_linker_0, # of connection points: 2
#     Edge 48, Type (0, 1), BuildingBlock: UVAHIK_clean_linker_0, # of connection points: 2
#     Edge 49, Type (0, 1), BuildingBlock: UVAHIK_clean_linker_0, # of connection points: 2
#     Edge 50, Type (0, 1), BuildingBlock: UVAHIK_clean_linker_0, # of connection points: 2
#     Edge 51, Type (0, 1), BuildingBlock: UVAHIK_clean_linker_0, # of connection points: 2
#     Edge 52, Type (0, 1), BuildingBlock: UVAHIK_clean_linker_0, # of connection points: 2
#     Edge 53, Type (0, 1), BuildingBlock: UVAHIK_clean_linker_0, # of connection points: 2
#     Edge 54, Type (0, 1), BuildingBlock: UVAHIK_clean_linker_0, # of connection points: 2
#     Edge 55, Type (0, 1), BuildingBlock: UVAHIK_clean_linker_0, # of connection points: 2
#     Edge 56, Type (0, 1), BuildingBlock: UVAHIK_clean_linker_0, # of connection points: 2
#     Edge 57, Type (0, 1), BuildingBlock: UVAHIK_clean_linker_0, # of connection points: 2
#     Edge 58, Type (0, 1), BuildingBlock: UVAHIK_clean_linker_0, # of connection points: 2
#     Edge 59, Type (0, 1), BuildingBlock: UVAHIK_clean_linker_0, # of connection points: 2
#     Edge 60, Type (0, 1), BuildingBlock: UVAHIK_clean_linker_0, # of connection points: 2
#     Edge 61, Type (0, 1), BuildingBlock: UVAHIK_clean_linker_0, # of connection points: 2
#     Edge 62, Type (0, 1), BuildingBlock: UVAHIK_clean_linker_0, # of connection points: 2
#     Edge 63, Type (0, 1), BuildingBlock: UVAHIK_clean_linker_0, # of connection points: 2
#     Edge 64, Type (0, 1), BuildingBlock: UVAHIK_clean_linker_0, # of connection points: 2
#     Edge 65, Type (0, 1), BuildingBlock: UVAHIK_clean_linker_0, # of connection points: 2
#     Edge 66, Type (0, 1), BuildingBlock: UVAHIK_clean_linker_0, # of connection points: 2
#     Edge 67, Type (0, 1), BuildingBlock: UVAHIK_clean_linker_0, # of connection points: 2
#     Edge 68, Type (0, 1), BuildingBlock: UVAHIK_clean_linker_0, # of connection points: 2
#     Edge 69, Type (0, 1), BuildingBlock: UVAHIK_clean_linker_0, # of connection points: 2
#     Edge 70, Type (0, 1), BuildingBlock: UVAHIK_clean_linker_0, # of connection points: 2
#     Edge 71, Type (0, 1), BuildingBlock: UVAHIK_clean_linker_0, # of connection points: 2
#     Edge 72, Type (0, 1), BuildingBlock: UVAHIK_clean_linker_0, # of connection points: 2
#     Edge 73, Type (0, 1), BuildingBlock: UVAHIK_clean_linker_0, # of connection points: 2
#     Edge 74, Type (0, 1), BuildingBlock: UVAHIK_clean_linker_0, # of connection points: 2
#     Edge 75, Type (0, 1), BuildingBlock: UVAHIK_clean_linker_0, # of connection points: 2
#     Edge 76, Type (0, 1), BuildingBlock: UVAHIK_clean_linker_0, # of connection points: 2
#     Edge 77, Type (0, 1), BuildingBlock: UVAHIK_clean_linker_0, # of connection points: 2
#     Edge 78, Type (0, 1), BuildingBlock: UVAHIK_clean_linker_0, # of connection points: 2
#     Edge 79, Type (0, 1), BuildingBlock: UVAHIK_clean_linker_0, # of connection points: 2
#     Edge 80, Type (0, 1), BuildingBlock: UVAHIK_clean_linker_0, # of connection points: 2
# Relax obj value: 0.081
# Max RMSD: 0.116
# Mean RMSD: 0.101
data_MOF--net-eea--node1-LEVNOQ01_clean_sbu_1--node2-BETDAH_clean_linker_0--edge1-UVAHIK_clean_linker_0
_symmetry_space_group_name_H-M    P1
_symmetry_Int_Tables_number       1
_symmetry_cell_setting            triclinic
loop_
_symmetry_equiv_pos_as_xyz
'x, y, z'
_cell_length_a     75.99213
_cell_length_b     75.578775
_cell_length_c     58.618192
_cell_angle_alpha  90.161275
_cell_angle_beta   90.118938
_cell_angle_gamma 119.82972
loop_
_atom_site_label
_atom_site_type_symbol
_atom_site_fract_x
_atom_site_fract_y
_atom_site_fract_z
_atom_type_partial_charge
H0 H 0.23348 0.08935 0.39562 0.0
H1 H 0.25119 0.1521 0.3832 0.0
H2 H 0.22593 0.10786 0.32879 0.0
C3 C 0.2347 0.10116 0.38416 0.0
C4 C 0.22825 0.09618 0.36153 0.0
C5 C 0.24334 0.1213 0.39197 0.0
C6 C 0.24462 0.13648 0.37725 0.0
C7 C 0.23835 0.13158 0.35439 0.0
C8 C 0.23064 0.11155 0.34645 0.0
N9 N 0.23982 0.14668 0.33914 0.0
C10 C 0.22989 0.15748 0.34366 0.0
H11 H 0.89588 0.13757 0.39237 0.0
H12 H 0.83533 0.09063 0.37513 0.0
H13 H 0.88129 0.1154 0.32332 0.0
C14 C 0.88501 0.12732 0.37989 0.0
C15 C 0.89109 0.12788 0.35717 0.0
C16 C 0.86488 0.1142 0.38647 0.0
C17 C 0.85086 0.10104 0.37018 0.0
C18 C 0.85686 0.10141 0.34743 0.0
C19 C 0.87677 0.11524 0.34088 0.0
N20 N 0.84321 0.08773 0.33095 0.0
C21 C 0.83082 0.06717 0.33569 0.0
H22 H 0.84373 0.75291 0.39651 0.0
H23 H 0.89163 0.73945 0.38376 0.0
H24 H 0.86686 0.75774 0.32859 0.0
C25 C 0.85445 0.75221 0.38488 0.0
C26 C 0.85396 0.75654 0.36172 0.0
C27 C 0.86778 0.74584 0.39299 0.0
C28 C 0.88133 0.74445 0.37774 0.0
C29 C 0.88108 0.74898 0.35449 0.0
C30 C 0.86709 0.7545 0.34656 0.0
N31 N 0.89403 0.74721 0.33844 0.0
C32 C 0.91469 0.75526 0.34202 0.0
H33 H 0.08763 0.23707 0.61506 0.0
H34 H 0.14709 0.24829 0.63376 0.0
H35 H 0.09987 0.22727 0.68415 0.0
C36 C 0.09795 0.23696 0.6278 0.0
C37 C 0.09116 0.23106 0.65023 0.0
C38 C 0.11808 0.2434 0.62173 0.0
C39 C 0.13154 0.24347 0.6383 0.0
C40 C 0.12484 0.23749 0.66083 0.0
C41 C 0.10488 0.23184 0.66677 0.0
N42 N 0.13786 0.23724 0.678 0.0
C43 C 0.15102 0.22975 0.67435 0.0
H44 H 0.7451 0.84683 0.61255 0.0
H45 H 0.73306 0.89353 0.63629 0.0
H46 H 0.75831 0.8677 0.6823 0.0
C47 C 0.74561 0.85681 0.62619 0.0
C48 C 0.75296 0.85573 0.64783 0.0
C49 C 0.73836 0.87028 0.62205 0.0
C50 C 0.73865 0.88307 0.63952 0.0
C51 C 0.74585 0.88207 0.6613 0.0
C52 C 0.75258 0.86815 0.6655 0.0
N53 N 0.74682 0.89521 0.67911 0.0
C54 C 0.75409 0.9158 0.67529 0.0
H55 H 0.13734 0.89244 0.61094 0.0
H56 H 0.09226 0.83011 0.62458 0.0
H57 H 0.11216 0.87526 0.67808 0.0
C58 C 0.12669 0.88092 0.62253 0.0
C59 C 0.12559 0.88628 0.64507 0.0
C60 C 0.11499 0.8607 0.61506 0.0
C61 C 0.10122 0.84584 0.63011 0.0
C62 C 0.10013 0.85119 0.65289 0.0
C63 C 0.11262 0.87131 0.66039 0.0
N64 N 0.08784 0.83622 0.66894 0.0
C65 C 0.06684 0.8262 0.66765 0.0
H66 H 0.90028 0.42346 0.72962 0.0
H67 H 0.91537 0.48564 0.71814 0.0
H68 H 0.88985 0.44138 0.66376 0.0
C69 C 0.90075 0.4351 0.71843 0.0
C70 C 0.89368 0.42998 0.69601 0.0
C71 C 0.90893 0.45515 0.72641 0.0
C72 C 0.90915 0.4701 0.71207 0.0
C73 C 0.90229 0.46509 0.68939 0.0
C74 C 0.89501 0.44516 0.68127 0.0
N75 N 0.90302 0.48003 0.67438 0.0
C76 C 0.89263 0.49036 0.67914 0.0
H77 H 0.56122 0.4718 0.7259 0.0
H78 H 0.50193 0.42253 0.7084 0.0
H79 H 0.5486 0.448 0.65734 0.0
C80 C 0.55083 0.46108 0.71336 0.0
C81 C 0.55744 0.46134 0.69098 0.0
C82 C 0.5308 0.44731 0.7196 0.0
C83 C 0.51742 0.43324 0.70356 0.0
C84 C 0.52387 0.43356 0.68103 0.0
C85 C 0.54368 0.44794 0.6747 0.0
N86 N 0.51075 0.41948 0.66448 0.0
C87 C 0.49811 0.39903 0.66955 0.0
H88 H 0.5109 0.08619 0.73072 0.0
H89 H 0.55776 0.07141 0.71725 0.0
H90 H 0.53332 0.09064 0.66252 0.0
C91 C 0.52133 0.08514 0.71892 0.0
C92 C 0.52084 0.08964 0.69583 0.0
C93 C 0.53433 0.0783 0.7268 0.0
C94 C 0.54762 0.07666 0.71138 0.0
C95 C 0.54739 0.08138 0.68818 0.0
C96 C 0.5336 0.08726 0.68043 0.0
N97 N 0.56042 0.07975 0.67213 0.0
C98 C 0.58113 0.08821 0.67578 0.0
H99 H 0.75523 0.57348 0.94948 0.0
H100 H 0.81273 0.57874 0.96672 0.0
H101 H 0.76599 0.55985 0.01752 0.0
C102 C 0.76514 0.5722 0.9619 0.0
C103 C 0.75824 0.56599 0.9842 0.0
C104 C 0.78474 0.57685 0.95548 0.0
C105 C 0.79753 0.57506 0.97155 0.0
C106 C 0.79063 0.56875 0.99396 0.0
C107 C 0.77113 0.56445 0.00018 0.0
N108 N 0.80308 0.56712 0.01088 0.0
C109 C 0.81621 0.55976 0.0065 0.0
H110 H 0.41517 0.18147 0.94685 0.0
H111 H 0.39773 0.22537 0.96692 0.0
H112 H 0.42101 0.20062 0.01693 0.0
C113 C 0.41363 0.19081 0.95992 0.0
C114 C 0.41923 0.18972 0.98243 0.0
C115 C 0.40555 0.20332 0.95421 0.0
C116 C 0.4036 0.21533 0.97122 0.0
C117 C 0.40931 0.21444 0.99383 0.0
C118 C 0.41651 0.20117 -0.0005 0.0
N119 N 0.40874 0.22744 0.01086 0.0
C120 C 0.41723 0.24822 0.00703 0.0
H121 H 0.80367 0.22853 0.94722 0.0
H122 H 0.75731 0.16602 0.95786 0.0
H123 H 0.77968 0.20843 0.01418 0.0
C124 C 0.79306 0.21645 0.95827 0.0
C125 C 0.79257 0.22084 0.98135 0.0
C126 C 0.7805 0.19682 0.9494 0.0
C127 C 0.76724 0.18129 0.96429 0.0
C128 C 0.76704 0.18553 0.98771 0.0
C129 C 0.78 0.2052 -0.0038 0.0
N130 N 0.7542 0.17014 0.00312 0.0
C131 C 0.73325 0.15952 0.00057 0.0
H132 H 0.56552 0.75437 0.06214 0.0
H133 H 0.58356 0.81752 0.05187 0.0
H134 H 0.55914 0.77479 -0.00403 0.0
C135 C 0.56697 0.76654 0.05112 0.0
C136 C 0.56094 0.76223 0.02832 0.0
C137 C 0.57556 0.78647 0.05967 0.0
C138 C 0.577 0.80205 0.04545 0.0
C139 C 0.57105 0.79778 0.02242 0.0
C140 C 0.56347 0.77797 0.01379 0.0
N141 N 0.57303 0.81335 0.00759 0.0
C142 C 0.5628 0.8239 0.01189 0.0
H143 H 0.22851 0.80569 0.05858 0.0
H144 H 0.16913 0.75639 0.04143 0.0
H145 H 0.21572 0.7814 0.99026 0.0
C146 C 0.21808 0.79488 0.04614 0.0
C147 C 0.22465 0.79492 0.0238 0.0
C148 C 0.19805 0.78121 0.05247 0.0
C149 C 0.18462 0.76702 0.03655 0.0
C150 C 0.19102 0.76719 0.01402 0.0
C151 C 0.21084 0.78145 0.00761 0.0
N152 N 0.17781 0.75314 -0.00249 0.0
C153 C 0.16512 0.73272 0.00259 0.0
H154 H 0.17805 0.42022 0.06464 0.0
H155 H 0.2247 0.40515 0.05102 0.0
H156 H 0.19918 0.42282 -0.00392 0.0
C157 C 0.18835 0.41903 0.05277 0.0
C158 C 0.1873 0.42276 0.02953 0.0
C159 C 0.20158 0.41245 0.06065 0.0
C160 C 0.21454 0.41038 0.04514 0.0
C161 C 0.21378 0.41438 0.02183 0.0
C162 C 0.19986 0.42007 0.01412 0.0
N163 N 0.22604 0.41179 0.00553 0.0
C164 C 0.24663 0.41906 0.00865 0.0
H165 H 0.42037 0.90428 0.28241 0.0
H166 H 0.47963 0.91411 0.29981 0.0
H167 H 0.43351 0.89484 0.35127 0.0
C168 C 0.43076 0.904 0.29492 0.0
C169 C 0.42434 0.89855 0.31753 0.0
C170 C 0.45068 0.90981 0.2884 0.0
C171 C 0.46425 0.90972 0.30469 0.0
C172 C 0.45792 0.9042 0.3274 0.0
C173 C 0.43821 0.89911 0.33375 0.0
N174 N 0.4711 0.90397 0.34438 0.0
C175 C 0.48425 0.8965 0.34061 0.0
H176 H 0.08479 0.51845 0.28035 0.0
H177 H 0.06509 0.56057 0.30026 0.0
H178 H 0.0887 0.53655 0.35071 0.0
C179 C 0.08303 0.52764 0.29342 0.0
C180 C 0.08812 0.52632 0.31611 0.0
C181 C 0.07436 0.5396 0.2877 0.0
C182 C 0.07167 0.55117 0.30462 0.0
C183 C 0.07719 0.55032 0.32731 0.0
C184 C 0.0848 0.53743 0.33311 0.0
N185 N 0.07558 0.56268 0.34437 0.0
C186 C 0.0838 0.58345 0.34089 0.0
H187 H 0.47021 0.55742 0.27556 0.0
H188 H 0.42331 0.49727 0.29438 0.0
H189 H 0.44683 0.54607 0.34388 0.0
C190 C 0.45977 0.54709 0.28821 0.0
C191 C 0.45971 0.55431 0.31018 0.0
C192 C 0.44697 0.52658 0.28247 0.0
C193 C 0.43328 0.51317 0.29871 0.0
C194 C 0.43326 0.52031 0.32096 0.0
C195 C 0.44683 0.5407 0.32671 0.0
N196 N 0.42041 0.50715 0.33816 0.0
C197 C 0.39964 0.49472 0.33514 0.0
O198 O 0.46903 0.97557 0.94829 0.0
Mg199 Mg 0.49096 0.98289 0.97369 0.0
O200 O 0.47258 0.00219 0.96655 0.0
Mg201 Mg 0.47294 -0.00728 0.00571 0.0
O202 O 0.48166 0.96674 0.0029 0.0
O203 O 0.49885 0.96116 0.97517 0.0
O204 O 0.47363 0.98505 0.04451 0.0
O205 O 0.43989 0.96555 0.00069 0.0
Mg206 Mg 0.44217 -0.00248 0.034 0.0
O207 O 0.46363 0.01757 0.01164 0.0
O208 O 0.45399 -0.00692 0.06459 0.0
O209 O 0.41791 0.97213 0.01788 0.0
O210 O 0.44217 0.02408 0.03151 0.0
C211 C 0.51989 0.02416 0.99363 0.0
C212 C 0.46866 -0.00799 0.94797 0.0
C213 C 0.48955 0.95634 0.99447 0.0
C214 C 0.46657 0.98678 0.06361 0.0
C215 C 0.42169 0.96075 0.00541 0.0
C216 C 0.45666 0.02968 0.01694 0.0
O217 O 0.51634 0.01287 0.9762 0.0
O218 O 0.50654 0.01896 0.00923 0.0
O219 O 0.00472 0.48068 0.94938 0.0
Mg220 Mg 0.00095 0.49861 0.97457 0.0
O221 O 0.97742 0.46257 0.96894 0.0
Mg222 Mg -0.01047 0.47293 0.00674 0.0
O223 O 0.0175 0.50708 0.00379 0.0
O224 O 0.0246 0.52707 0.9728 0.0
O225 O -0.00042 0.48298 0.0455 0.0
O226 O 0.01401 0.46361 0.00018 0.0
Mg227 Mg 0.98258 0.44361 0.03692 0.0
O228 O 0.96257 0.43881 0.01079 0.0
O229 O 0.97876 0.45679 0.06609 0.0
O230 O 0.0113 0.44626 0.03124 0.0
O231 O 0.96065 0.41449 0.03468 0.0
C232 C 0.96213 0.49299 -0.00497 0.0
C233 C -0.0132 0.46607 0.95009 0.0
C234 C 0.02875 0.52426 0.99333 0.0
C235 C -0.00812 0.47539 0.06486 0.0
C236 C 0.0205 0.45457 0.01303 0.0
C237 C 0.95325 0.4201 0.01826 0.0
O238 O 0.9732 0.49907 0.97736 0.0
O239 O 0.96587 0.48359 0.01069 0.0
O240 O 0.51302 0.50062 0.05874 0.0
Mg241 Mg 0.49065 0.4838 0.03406 0.0
O242 O 0.50593 0.52063 0.03927 0.0
Mg243 Mg 0.50627 0.50914 0.00111 0.0
O244 O 0.49919 0.47478 0.00544 0.0
O245 O 0.48371 0.45446 0.03554 0.0
O246 O 0.50498 0.49763 0.96272 0.0
O247 O 0.54032 0.51769 0.00711 0.0
Mg248 Mg 0.5296 0.53871 0.9714 0.0
O249 O 0.51268 0.54339 -0.00474 0.0
O250 O 0.51618 0.52456 0.94101 0.0
O251 O 0.55706 0.54111 0.98128 0.0
O252 O 0.53349 0.56661 0.96961 0.0
C253 C 0.45949 0.49217 0.013 0.0
C254 C 0.51133 0.51633 0.0581 0.0
C255 C 0.49195 0.45729 0.01571 0.0
C256 C 0.50772 0.50552 0.9429 0.0
C257 C 0.55697 0.53018 -0.00245 0.0
C258 C 0.52075 0.56152 0.98612 0.0
O259 O 0.46392 0.48652 0.03146 0.0
O260 O 0.47243 0.49942 -0.00304 0.0
O261 O 0.13278 0.30916 0.28185 0.0
Mg262 Mg 0.1552 0.31531 0.30649 0.0
O263 O 0.13989 0.33697 0.29996 0.0
Mg264 Mg 0.1393 0.32577 0.33845 0.0
O265 O 0.14701 0.29901 0.33559 0.0
O266 O 0.16197 0.29273 0.30596 0.0
O267 O 0.14041 0.3148 0.37715 0.0
O268 O 0.10634 0.30037 0.33155 0.0
Mg269 Mg 0.12123 0.33095 0.36878 0.0
O270 O 0.12993 0.35174 0.34265 0.0
O271 O 0.14082 0.3394 0.39696 0.0
O272 O 0.09741 0.2998 0.36697 0.0
O273 O 0.10691 0.347 0.36952 0.0
C274 C 0.18608 0.35579 0.32677 0.0
C275 C 0.13451 0.32658 0.2815 0.0
C276 C 0.154 0.28825 0.32599 0.0
C277 C 0.14336 0.32419 0.39619 0.0
C278 C 0.09371 0.29162 0.34744 0.0
C279 C 0.11747 0.35677 0.35204 0.0
O280 O 0.18165 0.34467 0.30904 0.0
O281 O 0.17308 0.35097 0.34271 0.0
O282 O 0.67133 0.81617 0.28312 0.0
Mg283 Mg 0.66596 0.8332 0.30802 0.0
O284 O 0.64468 0.79649 0.30304 0.0
Mg285 Mg 0.65589 0.80708 0.34099 0.0
O286 O 0.68253 0.84167 0.33734 0.0
O287 O 0.68828 0.86243 0.30733 0.0
O288 O 0.66474 0.81691 0.37969 0.0
O289 O 0.68181 0.79939 0.33547 0.0
Mg290 Mg 0.64987 0.77458 0.3712 0.0
O291 O 0.63023 0.77268 0.34592 0.0
O292 O 0.64935 0.78934 0.40077 0.0
O293 O 0.67744 0.7765 0.36148 0.0
O294 O 0.62567 0.74662 0.36854 0.0
C295 C 0.62589 0.82412 0.32844 0.0
C296 C 0.65395 0.80068 0.28405 0.0
C297 C 0.69301 0.85931 0.32745 0.0
C298 C 0.65938 0.80848 0.39923 0.0
C299 C 0.6875 0.78803 0.34523 0.0
C300 C 0.61938 0.75377 0.35249 0.0
O301 O 0.63671 0.83057 0.31063 0.0
O302 O 0.63092 0.8161 0.34449 0.0
O303 O 0.18418 0.83785 0.39062 0.0
Mg304 Mg 0.16126 0.81924 0.36697 0.0
O305 O 0.17378 0.85531 0.37134 0.0
Mg306 Mg 0.17453 0.84382 0.33365 0.0
O307 O 0.16833 0.80975 0.33779 0.0
O308 O 0.15614 0.79055 0.36938 0.0
O309 O 0.17343 0.83211 0.29514 0.0
O310 O 0.2084 0.85307 0.33963 0.0
Mg311 Mg 0.19533 0.87126 0.30257 0.0
O312 O 0.18127 0.87795 0.32833 0.0
O313 O 0.17772 0.85766 0.27401 0.0
O314 O 0.22168 0.86881 0.30751 0.0
O315 O 0.2026 0.90053 0.30255 0.0
C316 C 0.12802 0.82551 0.34704 0.0
C317 C 0.18043 0.85228 0.39001 0.0
C318 C 0.16261 0.79279 0.3487 0.0
C319 C 0.1726 0.83914 0.27561 0.0
C320 C 0.22334 0.86129 0.32605 0.0
C321 C 0.19028 0.89614 0.31939 0.0
O322 O 0.13359 0.82018 0.36495 0.0
O323 O 0.14032 0.83337 0.33043 0.0
O324 O 0.81753 0.64933 0.61232 0.0
Mg325 Mg 0.83556 0.65059 0.63963 0.0
O326 O 0.80622 0.66621 0.63281 0.0
Mg327 Mg 0.80726 0.65813 0.67214 0.0
O328 O 0.81787 0.63481 0.66617 0.0
O329 O 0.8368 0.62483 0.64697 0.0
O330 O 0.80924 0.65033 0.71081 0.0
O331 O 0.77459 0.62964 0.66708 0.0
Mg332 Mg 0.77659 0.66033 0.70058 0.0
O333 O 0.7971 0.68261 0.67931 0.0
O334 O 0.78825 0.65614 0.73118 0.0
O335 O 0.7522 0.63535 0.68458 0.0
O336 O 0.77418 0.68545 0.70108 0.0
C337 C 0.85697 0.69107 0.66543 0.0
C338 C 0.809 0.66001 0.61347 0.0
C339 C 0.82382 0.62165 0.66284 0.0
C340 C 0.8018 0.65115 0.73002 0.0
C341 C 0.75626 0.62434 0.67188 0.0
C342 C 0.78872 0.69308 0.68643 0.0
O343 O 0.85846 0.67978 0.65039 0.0
O344 O 0.84031 0.68577 0.67581 0.0
O345 O 0.33614 0.14543 0.61549 0.0
Mg346 Mg 0.3324 0.16446 0.63913 0.0
O347 O 0.30891 0.12803 0.63544 0.0
Mg348 Mg 0.32204 0.13968 0.67261 0.0
O349 O 0.34946 0.17365 0.66796 0.0
O350 O 0.35578 0.1932 0.63674 0.0
O351 O 0.33476 0.15257 0.71026 0.0
O352 O 0.34596 0.12976 0.66613 0.0
Mg353 Mg 0.31549 0.11585 0.70413 0.0
O354 O 0.29477 0.1052 0.67808 0.0
O355 O 0.30956 0.1306 0.73069 0.0
O356 O 0.34514 0.11941 0.70115 0.0
O357 O 0.29548 0.08621 0.70728 0.0
C358 C 0.2935 0.15821 0.66051 0.0
C359 C 0.31817 0.13093 0.61657 0.0
C360 C 0.36038 0.19073 0.65721 0.0
C361 C 0.32542 0.14765 0.72926 0.0
C362 C 0.35353 0.12403 0.68179 0.0
C363 C 0.2869 0.08799 0.68915 0.0
O364 O 0.30384 0.16347 0.64225 0.0
O365 O 0.29848 0.15041 0.67683 0.0
O366 O 0.85025 0.1684 0.72234 0.0
Mg367 Mg 0.82766 0.15162 0.69792 0.0
O368 O 0.83888 0.18662 0.70683 0.0
Mg369 Mg 0.8407 0.17686 0.66803 0.0
O370 O 0.83505 0.14244 0.66911 0.0
O371 O 0.82217 0.12287 0.70032 0.0
O372 O 0.84106 0.16599 0.62949 0.0
O373 O 0.8745 0.18674 0.67441 0.0
Mg374 Mg 0.8587 0.20305 0.63735 0.0
O375 O 0.84687 0.2112 0.66427 0.0
O376 O 0.83981 0.18936 0.60911 0.0
O377 O 0.88512 0.20016 0.64066 0.0
O378 O 0.86689 0.23256 0.63679 0.0
C379 C 0.79376 0.15693 0.67966 0.0
C380 C 0.84555 0.18207 0.72451 0.0
C381 C 0.829 0.12532 0.67981 0.0
C382 C 0.838 0.17193 0.61029 0.0
C383 C 0.88831 0.19398 0.6594 0.0
C384 C 0.85578 0.22911 0.65462 0.0
O385 O 0.79932 0.15112 0.69717 0.0
O386 O 0.80644 0.16609 0.6637 0.0
C387 C 0.26158 0.80883 0.03074 0.0
C388 C 0.24606 0.80875 0.01769 0.0
C389 C 0.28188 0.82236 0.0257 0.0
C390 C 0.31597 0.85956 0.98184 0.0
H391 H 0.35161 0.8834 0.03408 0.0
C392 C 0.38763 0.93951 0.98793 0.0
C393 C 0.40476 0.94079 -0.0014 0.0
C394 C 0.36983 0.9207 0.98576 0.0
C395 C 0.34193 0.87661 0.0193 0.0
H396 H 0.23936 0.82238 0.98899 0.0
H397 H 0.27482 0.84677 0.98072 0.0
H398 H 0.31705 0.85604 0.03984 0.0
H399 H 0.41726 0.92366 0.0146 0.0
H400 H 0.38572 0.89073 0.01171 0.0
H401 H 0.3408 0.88148 0.96164 0.0
C402 C 0.27147 0.836 0.99443 0.0
C403 C 0.32209 0.86085 0.02254 0.0
C404 C 0.25113 0.82216 -0.00078 0.0
C405 C 0.40425 0.92292 0.00605 0.0
C406 C 0.38626 0.90417 0.00449 0.0
C407 C 0.33576 0.87566 0.97867 0.0
C408 C 0.28713 0.83644 0.00777 0.0
C409 C 0.30873 0.85223 0.0039 0.0
C410 C 0.36877 0.90304 0.99489 0.0
C411 C 0.34881 0.88441 -0.00257 0.0
H412 H 0.25799 0.79838 0.04487 0.0
H413 H 0.29344 0.82182 0.03601 0.0
H414 H 0.3063 0.85307 0.96702 0.0
H415 H 0.38774 0.95319 0.98219 0.0
H416 H 0.35649 0.92021 0.97845 0.0
C417 C 0.17029 0.44368 0.03346 0.0
C418 C 0.17253 0.4288 0.0215 0.0
C419 C 0.15544 0.44841 0.02703 0.0
C420 C 0.10601 0.426 -0.00163 0.0
H421 H 0.11476 0.48092 0.00444 0.0
C422 C 0.04109 0.44472 0.98849 0.0
C423 C 0.03947 0.45485 0.00776 0.0
C424 C 0.05855 0.44319 0.98522 0.0
C425 C 0.11214 0.46553 0.00254 0.0
H426 H 0.16126 0.40748 0.99315 0.0
H427 H 0.13529 0.41587 0.98175 0.0
H428 H 0.14351 0.47507 0.00761 0.0
H429 H 0.05468 0.47203 0.03813 0.0
H430 H 0.0854 0.46995 0.03213 0.0
H431 H 0.07453 0.41644 0.99389 0.0
C432 C 0.14499 0.42379 -0.00382 0.0
C433 C 0.12856 0.46216 0.00444 0.0
C434 C 0.15995 0.41912 0.00258 0.0
C435 C 0.05572 0.46416 0.02316 0.0
C436 C 0.07328 0.46305 0.01964 0.0
C437 C 0.0896 0.4294 -0.00368 0.0
C438 C 0.14244 0.43835 0.00849 0.0
C439 C 0.12559 0.44228 0.00308 0.0
C440 C 0.07472 0.45221 0.00091 0.0
C441 C 0.09244 0.44912 -0.00094 0.0
H442 H 0.17989 0.45149 0.048 0.0
H443 H 0.15371 0.45949 0.03708 0.0
H444 H 0.10317 0.41047 -0.00254 0.0
H445 H 0.02859 0.43734 0.97652 0.0
H446 H 0.05931 0.43474 0.97065 0.0
C447 C 0.53378 0.72591 0.02739 0.0
C448 C 0.55286 0.74122 0.02003 0.0
C449 C 0.52757 0.70542 0.02328 0.0
C450 C 0.53934 0.67107 0.98954 0.0
H451 H 0.51219 0.63341 0.03925 0.0
C452 C 0.51009 0.58646 0.97703 0.0
C453 C 0.51571 0.57696 0.99372 0.0
C454 C 0.51158 0.60527 0.98136 0.0
C455 C 0.5198 0.64377 0.02527 0.0
H456 H 0.58037 0.7476 0.0025 0.0
H457 H 0.56975 0.71174 -0.00451 0.0
H458 H 0.52147 0.66921 0.04332 0.0
H459 H 0.52621 0.57886 0.02845 0.0
H460 H 0.52883 0.61206 0.03624 0.0
H461 H 0.53832 0.64588 0.97179 0.0
C462 C 0.55932 0.71542 0.00396 0.0
C463 C 0.52492 0.66422 0.02747 0.0
C464 C 0.56542 0.73593 0.00788 0.0
C465 C 0.5214 0.58578 0.0155 0.0
C466 C 0.52304 0.60481 0.01984 0.0
C467 C 0.53424 0.65069 0.98737 0.0
C468 C 0.54049 0.69991 0.01206 0.0
C469 C 0.5347 0.6781 0.00959 0.0
C470 C 0.51901 0.61513 0.00241 0.0
C471 C 0.52429 0.63676 0.00512 0.0
H472 H 0.52399 0.7298 0.03697 0.0
H473 H 0.51282 0.69389 0.02932 0.0
H474 H 0.54679 0.68128 0.97542 0.0
H475 H 0.50585 0.57997 0.96003 0.0
H476 H 0.50791 0.6126 0.96777 0.0
C477 C 0.80302 0.25741 0.97773 0.0
C478 C 0.80499 0.24216 0.98908 0.0
C479 C 0.81704 0.2779 0.98143 0.0
C480 C 0.85745 0.31464 0.01893 0.0
H481 H 0.8795 0.34471 0.96275 0.0
C482 C 0.91606 0.39974 0.02064 0.0
C483 C 0.93384 0.40471 0.00866 0.0
C484 C 0.89845 0.38113 0.0167 0.0
C485 C 0.87343 0.33652 0.97855 0.0
H486 H 0.82227 0.23614 0.01416 0.0
H487 H 0.84703 0.27232 0.02082 0.0
H488 H 0.85225 0.3092 0.96111 0.0
H489 H 0.9473 0.39493 0.98263 0.0
H490 H 0.91632 0.36241 0.97528 0.0
H491 H 0.87891 0.34189 0.03634 0.0
C492 C 0.83457 0.26834 0.00908 0.0
C493 C 0.85778 0.31628 0.97764 0.0
C494 C 0.82044 0.24771 0.00536 0.0
C495 C 0.93352 0.39153 0.9916 0.0
C496 C 0.91587 0.37292 0.98755 0.0
C497 C 0.87297 0.33498 0.01984 0.0
C498 C 0.83334 0.28356 -0.00346 0.0
C499 C 0.84967 0.30513 -0.00219 0.0
C500 C 0.89844 0.3672 0.00077 0.0
C501 C 0.88115 0.34608 -0.00035 0.0
H502 H 0.79108 0.25341 0.96524 0.0
H503 H 0.81551 0.28933 0.97191 0.0
H504 H 0.85148 0.3064 0.0347 0.0
H505 H 0.9162 0.40959 0.0342 0.0
H506 H 0.88513 0.37718 0.02691 0.0
C507 C 0.73132 0.57555 0.9863 0.0
C508 C 0.7376 0.56132 0.99067 0.0
C509 C 0.71142 0.57074 0.99069 0.0
C510 C 0.6638 0.53489 0.02022 0.0
H511 H 0.64069 0.55329 0.97323 0.0
C512 C 0.57839 0.5152 0.0105 0.0
C513 C 0.5765 0.53222 0.00469 0.0
C514 C 0.59771 0.51714 0.01237 0.0
C515 C 0.64695 0.54812 0.98656 0.0
H516 H 0.7284 0.53119 0.00373 0.0
H517 H 0.69319 0.52245 0.01091 0.0
H518 H 0.67512 0.55972 0.96916 0.0
H519 H 0.59299 0.5648 -0.00139 0.0
H520 H 0.62638 0.5682 0.00226 0.0
H521 H 0.63513 0.5231 0.0374 0.0
C522 C 0.70375 0.53745 0.00443 0.0
C523 C 0.66672 0.55188 0.98429 0.0
C524 C 0.72383 0.5424 0.00027 0.0
C525 C 0.59403 0.55138 0.00273 0.0
C526 C 0.61314 0.55332 0.00477 0.0
C527 C 0.64378 0.53098 0.02243 0.0
C528 C 0.69724 0.55144 -0.00079 0.0
C529 C 0.67561 0.54583 0.00134 0.0
C530 C 0.61519 0.53612 0.00856 0.0
C531 C 0.63544 0.53808 0.00585 0.0
H532 H 0.74179 0.59036 0.97926 0.0
H533 H 0.70706 0.58208 0.98708 0.0
H534 H 0.67021 0.52994 0.03359 0.0
H535 H 0.56504 0.50026 0.01204 0.0
H536 H 0.59895 0.50366 0.01536 0.0
C537 C 0.44489 0.17924 0.97446 0.0
C538 C 0.42845 0.17697 0.98753 0.0
C539 C 0.45238 0.16588 0.97722 0.0
C540 C 0.45213 0.12688 0.01532 0.0
H541 H 0.46256 0.10621 0.95929 0.0
C542 C 0.4766 0.06706 0.01947 0.0
C543 C 0.46424 0.04965 0.00641 0.0
C544 C 0.47713 0.08543 0.01488 0.0
C545 C 0.45982 0.11191 0.97507 0.0
H546 H 0.40734 0.15956 0.01426 0.0
H547 H 0.42024 0.13582 0.01894 0.0
H548 H 0.45273 0.13237 0.95754 0.0
H549 H 0.44384 0.03778 0.97752 0.0
H550 H 0.44481 0.06989 0.96926 0.0
H551 H 0.45835 0.10581 0.0328 0.0
C552 C 0.42752 0.1481 0.00675 0.0
C553 C 0.45432 0.127 0.97411 0.0
C554 C 0.42011 0.16163 0.0041 0.0
C555 C 0.45389 0.05123 0.98742 0.0
C556 C 0.45434 0.06958 0.98283 0.0
C557 C 0.45767 0.11184 0.01628 0.0
C558 C 0.44349 0.14986 0.99299 0.0
C559 C 0.45024 0.13452 0.99421 0.0
C560 C 0.46508 0.08654 -0.00268 0.0
C561 C 0.46141 0.10406 -0.00384 0.0
H562 H 0.45173 0.19117 0.96179 0.0
H563 H 0.46498 0.16792 0.96674 0.0
H564 H 0.44922 0.13245 0.0311 0.0
H565 H 0.48436 0.06599 0.03448 0.0
H566 H 0.48583 0.09836 0.02606 0.0
C567 C 0.70061 0.14778 0.01988 0.0
C568 C 0.71139 0.14868 0.00014 0.0
C569 C 0.6794 0.13644 0.02 0.0
C570 C 0.63719 0.09347 0.9895 0.0
H571 H 0.60308 0.1102 0.02134 0.0
C572 C 0.55213 0.05032 0.97605 0.0
C573 C 0.54014 0.04265 -0.0043 0.0
C574 C 0.5724 0.06545 0.97771 0.0
C575 C 0.61248 0.10533 0.01255 0.0
H576 H 0.70899 0.13931 0.96488 0.0
H577 H 0.67187 0.11966 0.96481 0.0
H578 H 0.64008 0.13262 0.02144 0.0
H579 H 0.5396 0.04606 0.03238 0.0
H580 H 0.57548 0.07281 0.03529 0.0
H581 H 0.60977 0.06639 0.98039 0.0
C582 C 0.67965 0.12732 0.98038 0.0
C583 C 0.63363 0.11811 0.01259 0.0
C584 C 0.70085 0.13863 0.98032 0.0
C585 C 0.54851 0.0516 0.01697 0.0
C586 C 0.56899 0.06688 0.01863 0.0
C587 C 0.61619 0.08086 0.98933 0.0
C588 C 0.66866 0.1258 0.00034 0.0
C589 C 0.6462 0.11239 0.00082 0.0
C590 C 0.58127 0.07335 -0.00096 0.0
C591 C 0.60359 0.08673 0.00059 0.0
H592 H 0.70861 0.15554 0.03534 0.0
H593 H 0.67148 0.1355 0.03569 0.0
H594 H 0.64637 0.08826 0.98084 0.0
H595 H 0.54606 0.04409 0.95934 0.0
H596 H 0.58139 0.07049 0.96229 0.0
C597 C 0.82534 0.53438 0.01881 0.0
C598 C 0.8289 0.55069 0.00459 0.0
C599 C 0.83796 0.52585 0.01781 0.0
C600 C 0.87472 0.52134 0.98089 0.0
H601 H 0.89528 0.5118 0.03743 0.0
C602 C 0.94447 0.51151 0.98214 0.0
C603 C 0.94529 0.49744 -0.00289 0.0
C604 C 0.92876 0.51591 0.98341 0.0
C605 C 0.88941 0.51402 0.0215 0.0
H606 H 0.84798 0.57098 0.97813 0.0
H607 H 0.87025 0.55614 0.97629 0.0
H608 H 0.87052 0.52344 0.0386 0.0
H609 H 0.9302 0.477 0.02533 0.0
H610 H 0.9023 0.48449 0.02736 0.0
H611 H 0.89357 0.51203 0.96374 0.0
C612 C 0.85763 0.54975 0.98807 0.0
C613 C 0.87527 0.52075 0.02216 0.0
C614 C 0.84502 0.55831 0.98915 0.0
C615 C 0.93 0.48793 0.01358 0.0
C616 C 0.91408 0.49226 0.01477 0.0
C617 C 0.88873 0.51451 0.98022 0.0
C618 C 0.8543 0.5335 0.0025 0.0
C619 C 0.8681 0.52488 0.00186 0.0
C620 C 0.91324 0.50624 -0.00044 0.0
C621 C 0.89663 0.51123 0.0005 0.0
H622 H 0.81288 0.52832 0.03081 0.0
H623 H 0.83488 0.51323 0.02895 0.0
H624 H 0.86914 0.52396 0.96496 0.0
H625 H 0.95612 0.51935 0.96943 0.0
H626 H 0.92895 0.52715 0.97185 0.0
C627 C 0.42002 0.27921 0.98957 0.0
C628 C 0.42803 0.26992 0.00355 0.0
C629 C 0.43066 0.30039 0.9866 0.0
C630 C 0.46842 0.34693 0.01598 0.0
H631 H 0.47006 0.3736 0.95896 0.0
C632 C 0.5047 0.43298 0.01479 0.0
C633 C 0.49253 0.44005 0.00502 0.0
C634 C 0.50114 0.4134 0.00979 0.0
C635 C 0.46973 0.36636 0.97499 0.0
H636 H 0.45334 0.27477 0.0248 0.0
H637 H 0.47205 0.31175 0.01964 0.0
H638 H 0.45471 0.33642 0.96004 0.0
H639 H 0.46799 0.43308 0.98146 0.0
H640 H 0.46134 0.39858 0.97298 0.0
H641 H 0.48267 0.37648 0.03122 0.0
C642 C 0.45752 0.30292 0.01118 0.0
C643 C 0.4609 0.34508 0.97562 0.0
C644 C 0.44688 0.2818 0.01413 0.0
C645 C 0.47774 0.42795 0.98887 0.0
C646 C 0.47396 0.4082 0.98407 0.0
C647 C 0.47716 0.36808 0.01537 0.0
C648 C 0.44943 0.31251 -0.00238 0.0
C649 C 0.45995 0.33513 -0.00378 0.0
C650 C 0.48497 0.40036 -0.00462 0.0
C651 C 0.47775 0.37809 0.99495 0.0
H652 H 0.40549 0.27014 0.98118 0.0
H653 H 0.42392 0.30732 0.97623 0.0
H654 H 0.46761 0.33976 0.03222 0.0
H655 H 0.51609 0.4421 0.02743 0.0
H656 H 0.51023 0.40802 0.01836 0.0
C657 C 0.13618 0.70269 0.02011 0.0
C658 C 0.15357 0.71112 0.00648 0.0
C659 C 0.1248 0.68152 0.02305 0.0
C660 C 0.11414 0.63428 0.99373 0.0
H661 H 0.0893 0.60786 0.05078 0.0
C662 C 0.0655 0.54845 -0.00493 0.0
C663 C 0.04624 0.54126 0.00456 0.0
C664 C 0.08118 0.56804 0.00021 0.0
C665 C 0.09614 0.61504 0.03474 0.0
H666 H 0.17331 0.7048 0.98575 0.0
H667 H 0.15359 0.66787 0.99087 0.0
H668 H 0.11144 0.64499 0.04971 0.0
H669 H 0.02835 0.54799 0.02791 0.0
H670 H 0.05567 0.58258 0.03662 0.0
H671 H 0.09856 0.60476 0.97848 0.0
C672 C 0.14849 0.67735 -0.00089 0.0
C673 C 0.10875 0.63627 0.03412 0.0
C674 C 0.1598 0.69843 -0.00378 0.0
C675 C 0.04325 0.55321 0.02071 0.0
C676 C 0.05889 0.57301 0.02562 0.0
C677 C 0.10158 0.6132 0.99433 0.0
C678 C 0.1307 0.66862 0.01229 0.0
C679 C 0.11782 0.6461 0.01355 0.0
C680 C 0.0777 0.58099 0.01445 0.0
C681 C 0.09236 0.60327 0.0148 0.0
H682 H 0.13126 0.71239 0.02819 0.0
H683 H 0.11108 0.67523 0.03312 0.0
H684 H 0.12051 0.64139 0.97751 0.0
H685 H 0.06802 0.53944 0.98245 0.0
H686 H 0.09564 0.57352 0.99179 0.0
C687 C 0.27758 0.42562 0.98869 0.0
C688 C 0.2683 0.42744 0.00845 0.0
C689 C 0.29866 0.43457 0.98765 0.0
C690 C 0.3462 0.47379 0.01574 0.0
H691 H 0.36947 0.44463 0.98528 0.0
C692 C 0.42807 0.48966 0.02933 0.0
C693 C 0.43896 0.4894 0.01013 0.0
C694 C 0.40788 0.48491 0.02724 0.0
C695 C 0.3632 0.4531 0.99352 0.0
H696 H 0.27323 0.43988 0.04262 0.0
H697 H 0.31022 0.4552 0.04119 0.0
H698 H 0.33278 0.42992 0.98614 0.0
H699 H 0.43759 0.48472 0.97353 0.0
H700 H 0.40194 0.47581 0.96994 0.0
H701 H 0.37678 0.49658 0.02387 0.0
C702 C 0.30136 0.44717 0.02629 0.0
C703 C 0.34215 0.44468 0.99404 0.0
C704 C 0.28022 0.43825 0.02726 0.0
C705 C 0.42953 0.48504 0.98861 0.0
C706 C 0.40915 0.47986 0.98657 0.0
C707 C 0.36726 0.4821 0.01543 0.0
C708 C 0.31087 0.44548 0.00643 0.0
C709 C 0.33334 0.45482 0.00532 0.0
C710 C 0.39806 0.47944 0.00595 0.0
C711 C 0.37594 0.47174 0.00448 0.0
H712 H 0.26854 0.41747 0.97392 0.0
H713 H 0.3054 0.4332 0.97195 0.0
H714 H 0.34 0.48224 0.02416 0.0
H715 H 0.43505 0.49314 0.0461 0.0
H716 H 0.39968 0.48461 0.04246 0.0
C717 C 0.55685 0.84994 0.02991 0.0
C718 C 0.55067 0.83343 0.01494 0.0
C719 C 0.54523 0.85952 0.03207 0.0
C720 C 0.50887 0.86783 -0.00076 0.0
H721 H 0.50353 0.8915 0.0558 0.0
C722 C 0.47461 0.91909 -0.00338 0.0
C723 C 0.48747 0.93834 0.00611 0.0
C724 C 0.47676 0.90243 0.00269 0.0
C725 C 0.50482 0.88488 0.03992 0.0
H726 H 0.52763 0.81335 0.991 0.0
H727 H 0.50713 0.8299 0.9948 0.0
H728 H 0.51866 0.86947 0.05624 0.0
H729 H 0.51159 0.95537 0.03036 0.0
H730 H 0.51568 0.9263 0.04087 0.0
H731 H 0.49578 0.88365 0.98274 0.0
C732 C 0.52097 0.8357 0.0047 0.0
C733 C 0.51355 0.87236 0.04014 0.0
C734 C 0.53262 0.8262 0.00255 0.0
C735 C 0.50137 0.9405 0.02313 0.0
C736 C 0.50366 0.92385 0.0291 0.0
C737 C 0.50014 0.88024 -0.00097 0.0
C738 C 0.52729 0.85266 0.01925 0.0
C739 C 0.51606 0.86406 0.01971 0.0
C740 C 0.4921 0.90493 0.018 0.0
C741 C 0.49838 0.88925 0.01927 0.0
H742 H 0.5708 0.85563 0.03962 0.0
H743 H 0.55066 0.8727 0.04318 0.0
H744 H 0.51088 0.86201 0.98313 0.0
H745 H 0.46388 0.91724 0.98333 0.0
H746 H 0.46739 0.88796 0.99417 0.0
C747 C 0.91782 0.15486 0.33226 0.0
C748 C 0.91255 0.1415 0.35088 0.0
C749 C 0.93818 0.16927 0.32821 0.0
C750 C -0.0154 0.19807 0.36106 0.0
H751 H 0.01277 0.21374 0.30315 0.0
C752 C 0.06819 0.25701 0.36014 0.0
C753 C 0.0749 0.27222 0.34349 0.0
C754 C 0.04935 0.23941 0.35797 0.0
C755 C 0.00504 0.20962 0.31941 0.0
H756 H 0.92433 0.1315 0.37863 0.0
H757 H 0.95974 0.15647 0.37154 0.0
H758 H 0.97747 0.18574 0.30453 0.0
H759 H 0.0679 0.28076 0.31094 0.0
H760 H 0.03422 0.25031 0.30764 0.0
H761 H 0.01145 0.22202 0.37603 0.0
C762 C 0.94821 0.15619 0.36039 0.0
C763 C -0.01512 0.1936 0.32017 0.0
C764 C 0.92797 0.14193 0.36447 0.0
C765 C 0.06291 0.26917 0.32402 0.0
C766 C 0.04372 0.25171 0.3221 0.0
C767 C 0.0045 0.21405 0.36028 0.0
C768 C 0.95349 0.17044 0.34271 0.0
C769 C 0.97462 0.18753 0.34111 0.0
C770 C 0.03648 0.23693 0.33945 0.0
C771 C 0.01513 0.21988 0.33956 0.0
H772 H 0.90616 0.15479 0.32153 0.0
H773 H 0.94185 0.18013 0.31451 0.0
H774 H 0.9769 0.19411 0.37735 0.0
H775 H 0.07741 0.25889 0.37507 0.0
H776 H 0.04461 0.22801 0.37123 0.0
C777 C 0.83684 0.7773 0.36599 0.0
C778 C 0.83941 0.76283 0.35359 0.0
C779 C 0.82221 0.7823 0.35944 0.0
C780 C 0.77367 0.76111 0.32913 0.0
H781 H 0.7825 0.81589 0.33731 0.0
C782 C 0.70857 0.77935 0.32006 0.0
C783 C 0.70688 0.78949 0.33927 0.0
C784 C 0.72622 0.77822 0.31662 0.0
C785 C 0.77984 0.80054 0.33483 0.0
H786 H 0.82896 0.74252 0.32431 0.0
H787 H 0.80337 0.7514 0.31269 0.0
H788 H 0.81104 0.80976 0.34071 0.0
H789 H 0.72205 0.80688 0.36953 0.0
H790 H 0.75301 0.80529 0.36343 0.0
H791 H 0.74234 0.75183 0.32394 0.0
C792 C 0.81264 0.75878 0.32757 0.0
C793 C 0.79615 0.79701 0.33685 0.0
C794 C 0.82739 0.75383 0.3341 0.0
C795 C 0.72323 0.79917 0.35448 0.0
C796 C 0.74092 0.7983 0.35092 0.0
C797 C 0.75736 0.76467 0.32702 0.0
C798 C 0.80977 0.77294 0.34031 0.0
C799 C 0.79313 0.77716 0.33472 0.0
C800 C 0.74244 0.78743 0.33225 0.0
C801 C 0.76019 0.78432 0.33053 0.0
H802 H 0.84602 0.7846 0.38097 0.0
H803 H 0.82022 0.79304 0.36983 0.0
H804 H 0.77079 0.74561 0.32761 0.0
H805 H 0.69595 0.77162 0.30829 0.0
H806 H 0.72703 0.76979 0.30208 0.0
C807 C 0.23042 0.06941 0.33891 0.0
C808 C 0.21964 0.07487 0.35401 0.0
C809 C 0.22405 0.04886 0.33491 0.0
C810 C 0.19372 -0.00172 0.36186 0.0
H811 H 0.201 0.97892 0.30334 0.0
C812 C 0.19305 0.92173 0.34821 0.0
C813 C 0.18591 0.91199 0.32709 0.0
C814 C 0.19383 0.94035 0.35259 0.0
C815 C 0.19856 0.98395 0.31974 0.0
H816 H 0.19344 0.06361 0.37597 0.0
H817 H 0.18171 0.02762 0.36828 0.0
H818 H 0.20842 0.01395 0.30719 0.0
H819 H 0.17275 0.91287 0.29468 0.0
H820 H 0.1732 0.94474 0.3026 0.0
H821 H 0.1836 0.96808 0.37428 0.0
C822 C 0.19539 0.03908 0.36003 0.0
C823 C 0.20311 0.00417 0.32201 0.0
C824 C 0.20192 0.05961 0.36423 0.0
C825 C 0.17822 0.92017 0.31113 0.0
C826 C 0.17874 0.93854 0.31557 0.0
C827 C 0.18906 0.97798 0.35955 0.0
C828 C 0.20667 0.03344 0.3458 0.0
C829 C 0.20088 0.01164 0.34312 0.0
C830 C 0.18742 0.94933 0.33588 0.0
C831 C 0.19147 0.9706 0.33846 0.0
H832 H 0.24431 0.08103 0.33115 0.0
H833 H 0.23326 0.0451 0.32407 0.0
H834 H 0.19213 0.0036 0.37848 0.0
H835 H 0.19936 0.91576 0.36057 0.0
H836 H 0.20067 0.94832 0.36838 0.0
C837 C 0.47301 0.59097 0.30125 0.0
C838 C 0.47321 0.57614 0.31543 0.0
C839 C 0.48697 0.61158 0.30458 0.0
C840 C 0.52384 0.64867 0.346 0.0
H841 H 0.54807 0.68084 0.29166 0.0
C842 C 0.58215 0.73333 0.35396 0.0
C843 C 0.60005 0.73956 0.34165 0.0
C844 C 0.56469 0.71495 0.34864 0.0
C845 C 0.54145 0.67208 0.30699 0.0
H846 H 0.48774 0.57106 0.34448 0.0
H847 H 0.51257 0.60721 0.35014 0.0
H848 H 0.52198 0.64511 0.28794 0.0
H849 H 0.61379 0.73224 0.31362 0.0
H850 H 0.58327 0.70008 0.30412 0.0
H851 H 0.5439 0.67537 0.36506 0.0
C852 C 0.50139 0.60296 0.33667 0.0
C853 C 0.52635 0.65164 0.30488 0.0
C854 C 0.48723 0.58229 0.33346 0.0
C855 C 0.59993 0.72795 0.32291 0.0
C856 C 0.58248 0.70947 0.31762 0.0
C857 C 0.53895 0.66909 0.3481 0.0
C858 C 0.50161 0.61782 0.32202 0.0
C859 C 0.51739 0.63967 0.32436 0.0
C860 C 0.56496 0.70234 0.33112 0.0
C861 C 0.54797 0.68103 0.32863 0.0
H862 H 0.46216 0.58655 0.28739 0.0
H863 H 0.48639 0.62263 0.29334 0.0
H864 H 0.51719 0.63995 0.36135 0.0
H865 H 0.5821 0.74191 0.36879 0.0
H866 H 0.55133 0.71008 0.35908 0.0
C867 C 0.38704 0.87894 0.30948 0.0
C868 C 0.40308 0.89201 0.32394 0.0
C869 C 0.36706 0.87325 0.31489 0.0
C870 C 0.3369 0.89009 0.34796 0.0
H871 H 0.29292 0.83693 0.32983 0.0
C872 C 0.25134 0.86663 0.3529 0.0
C873 C 0.24238 0.86142 0.33113 0.0
C874 C 0.27032 0.86827 0.35675 0.0
C875 C 0.30506 0.85176 0.33519 0.0
H876 H 0.41066 0.90914 0.35565 0.0
H877 H 0.37559 0.89891 0.36532 0.0
H878 H 0.32784 0.84375 0.3283 0.0
H879 H 0.24547 0.85283 0.29673 0.0
H880 H 0.27813 0.85491 0.30366 0.0
H881 H 0.31394 0.89809 0.35445 0.0
C882 C 0.37855 0.89323 0.34966 0.0
C883 C 0.32505 0.85574 0.33417 0.0
C884 C 0.39861 0.89895 0.34422 0.0
C885 C 0.25217 0.85702 0.31361 0.0
C886 C 0.27076 0.85807 0.31761 0.0
C887 C 0.31683 0.88601 0.34923 0.0
C888 C 0.36254 0.8804 0.33497 0.0
C889 C 0.34127 0.87519 0.33972 0.0
C890 C 0.28018 0.86404 0.33907 0.0
C891 C 0.30082 0.86703 0.34211 0.0
H892 H 0.38994 0.87312 0.29388 0.0
H893 H 0.35519 0.86362 0.30297 0.0
H894 H 0.349 0.90528 0.35223 0.0
H895 H 0.24403 0.87014 0.36663 0.0
H896 H 0.27735 0.87294 0.37342 0.0
C897 C 0.08512 0.4967 0.33793 0.0
C898 C 0.09552 0.51216 0.32186 0.0
C899 C 0.08963 0.48102 0.34032 0.0
C900 C 0.12644 0.46437 0.33035 0.0
H901 H 0.07888 0.41121 0.32086 0.0
C902 C 0.13039 0.38952 0.33008 0.0
C903 C 0.11545 0.37407 0.34363 0.0
C904 C 0.12893 0.40679 0.32453 0.0
C905 C 0.0923 0.42591 0.32367 0.0
H906 H 0.11973 0.52437 0.29698 0.0
H907 H 0.12796 0.49706 0.30158 0.0
H908 H 0.0756 0.44165 0.31996 0.0
H909 H 0.08676 0.36402 0.36088 0.0
H910 H 0.08436 0.39381 0.35151 0.0
H911 H 0.14303 0.44852 0.33492 0.0
C912 C 0.1162 0.49698 0.31206 0.0
C913 C 0.09039 0.4433 0.3232 0.0
C914 C 0.11147 0.5125 0.3094 0.0
C915 C 0.09865 0.37574 0.35059 0.0
C916 C 0.09716 0.39279 0.34502 0.0
C917 C 0.12833 0.44687 0.33114 0.0
C918 C 0.10482 0.48075 0.32693 0.0
C919 C 0.10735 0.46262 0.32693 0.0
C920 C 0.11239 0.40868 0.33223 0.0
C921 C 0.11117 0.42742 0.32825 0.0
H922 H 0.07271 0.49609 0.34764 0.0
H923 H 0.08079 0.4687 0.35205 0.0
H924 H 0.13974 0.47917 0.33314 0.0
H925 H 0.14347 0.38859 0.32444 0.0
H926 H 0.1408 0.41874 0.31445 0.0
C927 C 0.36779 0.47115 0.3152 0.0
C928 C 0.37784 0.48252 0.33462 0.0
C929 C 0.34665 0.45895 0.31515 0.0
C930 C 0.2998 0.4498 0.34528 0.0
H931 H 0.27752 0.3967 0.31641 0.0
C932 C 0.21484 0.38351 0.34972 0.0
C933 C 0.20683 0.37359 0.32876 0.0
C934 C 0.23539 0.39856 0.3515 0.0
C935 C 0.2835 0.41154 0.32442 0.0
H936 H 0.37423 0.49066 0.36899 0.0
H937 H 0.33725 0.46911 0.36914 0.0
H938 H 0.31403 0.41933 0.3172 0.0
H939 H 0.21371 0.37284 0.29293 0.0
H940 H 0.24914 0.39877 0.29611 0.0
H941 H 0.26895 0.44161 0.35268 0.0
C942 C 0.34549 0.46969 0.35385 0.0
C943 C 0.30443 0.42457 0.32478 0.0
C944 C 0.36662 0.48189 0.35385 0.0
C945 C 0.21942 0.37985 0.30945 0.0
C946 C 0.23977 0.39471 0.31124 0.0
C947 C 0.27873 0.43663 0.34503 0.0
C948 C 0.33525 0.45788 0.33457 0.0
C949 C 0.31287 0.44398 0.3349 0.0
C950 C 0.24815 0.40378 0.33236 0.0
C951 C 0.2704 0.4175 0.33426 0.0
H952 H 0.37626 0.4716 0.30015 0.0
H953 H 0.33924 0.45035 0.29986 0.0
H954 H 0.30579 0.46469 0.35314 0.0
H955 H 0.2055 0.3791 0.36487 0.0
H956 H 0.2415 0.4054 0.36798 0.0
C957 C 0.50283 0.88169 0.35939 0.0
C958 C 0.49716 0.8876 0.33931 0.0
C959 C 0.51521 0.87288 0.35844 0.0
C960 C 0.55255 0.86954 0.32134 0.0
H961 H 0.54381 0.82476 0.3608 0.0
C962 C 0.59977 0.83043 0.31057 0.0
C963 C 0.608 0.82692 0.33039 0.0
C964 C 0.58458 0.8356 0.31201 0.0
C965 C 0.54653 0.83737 0.34981 0.0
H966 H 0.49935 0.88879 0.30254 0.0
H967 H 0.52101 0.87328 0.30069 0.0
H968 H 0.52048 0.83827 0.36232 0.0
H969 H 0.60596 0.825 0.36725 0.0
H970 H 0.57943 0.8344 0.36983 0.0
H971 H 0.5786 0.86886 0.30895 0.0
C972 C 0.51618 0.87566 0.31723 0.0
C973 C 0.53318 0.84511 0.35067 0.0
C974 C 0.50377 0.88446 0.31822 0.0
C975 C 0.59992 0.82765 0.35169 0.0
C976 C 0.58472 0.833 0.35315 0.0
C977 C 0.56583 0.86183 0.32048 0.0
C978 C 0.52214 0.86985 0.33735 0.0
C979 C 0.53602 0.86127 0.33638 0.0
C980 C 0.5773 0.83759 0.33331 0.0
C981 C 0.56296 0.8456 0.33461 0.0
H982 H 0.49776 0.88397 0.37583 0.0
H983 H 0.51968 0.86882 0.37426 0.0
H984 H 0.55548 0.88228 0.31047 0.0
H985 H 0.60539 0.82961 0.29385 0.0
H986 H 0.57882 0.83847 0.29637 0.0
C987 C 0.08668 0.61447 0.32347 0.0
C988 C 0.09465 0.60512 0.33741 0.0
C989 C 0.09755 0.6356 0.32023 0.0
C990 C 0.13602 0.68201 0.34893 0.0
H991 H 0.1384 0.70854 0.29155 0.0
C992 C 0.17454 0.76786 0.34738 0.0
C993 C 0.16276 0.77544 0.33774 0.0
C994 C 0.17052 0.74819 0.34215 0.0
C995 C 0.13786 0.70133 0.30767 0.0
H996 H 0.1201 0.60974 0.35826 0.0
H997 H 0.1392 0.64664 0.35265 0.0
H998 H 0.12209 0.67126 0.29307 0.0
H999 H 0.13859 0.76938 0.31397 0.0
H1000 H 0.13098 0.73459 0.30525 0.0
H1001 H 0.15099 0.71165 0.36386 0.0
C1002 C 0.12453 0.6379 0.34446 0.0
C1003 C 0.12849 0.68001 0.30855 0.0
C1004 C 0.11366 0.61685 0.34767 0.0
C1005 C 0.14799 0.76381 0.32135 0.0
C1006 C 0.14367 0.7439 0.3164 0.0
C1007 C 0.14529 0.70317 0.34808 0.0
C1008 C 0.1165 0.64757 0.33093 0.0
C1009 C 0.12733 0.67015 0.32928 0.0
C1010 C 0.15419 0.73553 0.32772 0.0
C1011 C 0.14622 0.71314 0.32751 0.0
H1012 H 0.07203 0.60548 0.31528 0.0
H1013 H 0.09089 0.64263 0.3099 0.0
H1014 H 0.13502 0.6749 0.36526 0.0
H1015 H 0.18598 0.77667 0.36012 0.0
H1016 H 0.17928 0.7424 0.35066 0.0
C1017 C 0.80207 0.03695 0.35314 0.0
C1018 C 0.8195 0.04553 0.33958 0.0
C1019 C 0.79092 0.01579 0.3562 0.0
C1020 C 0.78111 0.96836 0.32767 0.0
H1021 H 0.75463 0.94271 0.3844 0.0
C1022 C 0.72996 0.88254 0.32986 0.0
C1023 C 0.71061 0.87624 0.33864 0.0
C1024 C 0.74606 0.90196 0.33489 0.0
C1025 C 0.76195 0.94967 0.36846 0.0
H1026 H 0.83955 0.03945 0.31912 0.0
H1027 H 0.82025 0.00251 0.3245 0.0
H1028 H 0.7773 0.97971 0.38313 0.0
H1029 H 0.69289 0.88443 0.3605 0.0
H1030 H 0.72097 0.91862 0.36915 0.0
H1031 H 0.76546 0.93868 0.31273 0.0
C1032 C 0.81492 0.01188 0.33256 0.0
C1033 C 0.77487 0.97084 0.36771 0.0
C1034 C 0.826 0.03297 0.32952 0.0
C1035 C 0.70785 0.88894 0.3539 0.0
C1036 C 0.72393 0.90851 0.35878 0.0
C1037 C 0.76826 0.9473 0.32842 0.0
C1038 C 0.79709 0.003 0.34569 0.0
C1039 C 0.7844 0.98044 0.34721 0.0
C1040 C 0.74295 0.91559 0.34838 0.0
C1041 C 0.75833 0.93768 0.34873 0.0
H1042 H 0.79693 0.04654 0.36107 0.0
H1043 H 0.77716 0.00943 0.36621 0.0
H1044 H 0.78786 0.97526 0.3115 0.0
H1045 H 0.7323 0.87297 0.31787 0.0
H1046 H 0.76063 0.90678 0.32701 0.0
C1047 C 0.94643 0.76431 0.36272 0.0
C1048 C 0.93645 0.76432 0.34265 0.0
C1049 C 0.9675 0.77263 0.36284 0.0
C1050 C 0.01451 0.80662 0.33062 0.0
H1051 H 0.03566 0.77675 0.36353 0.0
C1052 C 0.09829 0.82315 0.32507 0.0
C1053 C 0.10697 0.82184 0.34577 0.0
C1054 C 0.07776 0.81777 0.32407 0.0
C1055 C 0.03003 0.78541 0.35444 0.0
H1056 H 0.94013 0.77309 0.30714 0.0
H1057 H 0.97696 0.78742 0.30714 0.0
H1058 H -0.00062 0.76425 0.36334 0.0
H1059 H 0.10122 0.81516 0.38188 0.0
H1060 H 0.06582 0.80603 0.38012 0.0
H1061 H 0.04539 0.82769 0.32157 0.0
C1062 C 0.96874 0.78129 0.32288 0.0
C1063 C 0.00921 0.77826 0.35439 0.0
C1064 C 0.94768 0.77298 0.3228 0.0
C1065 C 0.09498 0.81599 0.36555 0.0
C1066 C 0.07462 0.81068 0.36455 0.0
C1067 C 0.03543 0.81377 0.33063 0.0
C1068 C 0.9789 0.78104 0.34284 0.0
C1069 C 0.00117 0.78883 0.34266 0.0
C1070 C 0.06562 0.81101 0.34375 0.0
C1071 C 0.04342 0.80333 0.34276 0.0
H1072 H 0.93794 0.75777 0.37823 0.0
H1073 H 0.97488 0.77247 0.37861 0.0
H1074 H 0.00883 0.81522 0.32152 0.0
H1075 H 0.10715 0.82769 0.30955 0.0
H1076 H 0.07122 0.81819 0.30778 0.0
C1077 C 0.19896 0.15896 0.33634 0.0
C1078 C 0.21785 0.16706 0.34714 0.0
C1079 C 0.18737 0.16849 0.33878 0.0
C1080 C 0.18176 0.207 0.37258 0.0
H1081 H 0.16122 0.21528 0.31542 0.0
C1082 C 0.16703 0.27338 0.35445 0.0
C1083 C 0.15286 0.27059 0.3375 0.0
C1084 C 0.16997 0.25717 0.36062 0.0
C1085 C 0.16633 0.21272 0.33169 0.0
H1086 H 0.23952 0.19081 0.36939 0.0
H1087 H 0.2194 0.2079 0.37345 0.0
H1088 H 0.17647 0.19382 0.31623 0.0
H1089 H 0.12933 0.24879 0.31518 0.0
H1090 H 0.13374 0.22018 0.3266 0.0
H1091 H 0.17217 0.22663 0.38781 0.0
C1092 C 0.21334 0.19405 0.36337 0.0
C1093 C 0.17518 0.20042 0.33212 0.0
C1094 C 0.22492 0.18445 0.36091 0.0
C1095 C 0.14034 0.25113 0.32833 0.0
C1096 C 0.14302 0.23487 0.33473 0.0
C1097 C 0.17284 0.21934 0.37216 0.0
C1098 C 0.19457 0.18633 0.35203 0.0
C1099 C 0.18334 0.19772 0.35245 0.0
C1100 C 0.15867 0.238 0.34992 0.0
C1101 C 0.16536 0.22263 0.35159 0.0
H1102 H 0.19327 0.14541 0.32576 0.0
H1103 H 0.17289 0.16204 0.33006 0.0
H1104 H 0.18771 0.20497 0.38856 0.0
H1105 H 0.17696 0.28842 0.36149 0.0
H1106 H 0.18221 0.26015 0.37229 0.0
C1107 C 0.59435 0.47514 0.69801 0.0
C1108 C 0.57889 0.47519 0.68497 0.0
C1109 C 0.61468 0.48854 0.69297 0.0
C1110 C 0.64899 0.52519 0.6489 0.0
H1111 H 0.68509 0.54847 0.70088 0.0
C1112 C 0.72279 0.60352 0.65315 0.0
C1113 C 0.73944 0.60447 0.66466 0.0
C1114 C 0.70462 0.58504 0.65123 0.0
C1115 C 0.67529 0.54183 0.68616 0.0
H1116 H 0.57235 0.48901 0.65633 0.0
H1117 H 0.60789 0.5132 0.64805 0.0
H1118 H 0.6502 0.522 0.70691 0.0
H1119 H 0.7507 0.587 0.68238 0.0
H1120 H 0.71855 0.55462 0.67973 0.0
H1121 H 0.67409 0.54632 0.62844 0.0
C1122 C 0.60444 0.5024 0.66175 0.0
C1123 C 0.65524 0.52659 0.68957 0.0
C1124 C 0.58407 0.48868 0.66656 0.0
C1125 C 0.73809 0.5865 0.67312 0.0
C1126 C 0.71973 0.56808 0.67174 0.0
C1127 C 0.66902 0.54077 0.64555 0.0
C1128 C 0.62004 0.50265 0.67505 0.0
C1129 C 0.64173 0.51813 0.67103 0.0
C1130 C 0.70267 0.56736 0.66141 0.0
C1131 C 0.68228 0.54929 0.66419 0.0
H1132 H 0.59069 0.46463 0.71209 0.0
H1133 H 0.62617 0.48785 0.70324 0.0
H1134 H 0.63919 0.51884 0.63416 0.0
H1135 H 0.72351 0.6173 0.64672 0.0
H1136 H 0.69164 0.5849 0.64335 0.0
C1137 C 0.493 0.08689 0.67019 0.0
C1138 C 0.50673 0.09665 0.68823 0.0
C1139 C 0.47771 0.09164 0.66555 0.0
C1140 C 0.44795 0.10901 0.69696 0.0
H1141 H 0.42969 0.11775 0.63845 0.0
C1142 C 0.38793 0.13265 0.69454 0.0
C1143 C 0.3725 0.12369 0.67816 0.0
C1144 C 0.40534 0.13103 0.69266 0.0
C1145 C 0.4345 0.11514 0.65488 0.0
H1146 H 0.51643 0.1201 0.71424 0.0
H1147 H 0.48998 0.12848 0.7061 0.0
H1148 H 0.4586 0.11173 0.64022 0.0
H1149 H 0.36325 0.1067 0.64644 0.0
H1150 H 0.39341 0.10281 0.64369 0.0
H1151 H 0.42386 0.11169 0.71178 0.0
C1152 C 0.49067 0.11689 0.69585 0.0
C1153 C 0.45105 0.11175 0.65587 0.0
C1154 C 0.5058 0.11212 0.70051 0.0
C1155 C 0.37503 0.1137 0.6593 0.0
C1156 C 0.39232 0.11158 0.6577 0.0
C1157 C 0.43143 0.11216 0.69598 0.0
C1158 C 0.47604 0.10622 0.6789 0.0
C1159 C 0.45813 0.10903 0.67702 0.0
C1160 C 0.40744 0.11979 0.67474 0.0
C1161 C 0.42469 0.11568 0.67503 0.0
H1162 H 0.49341 0.07486 0.66052 0.0
H1163 H 0.46659 0.08317 0.65242 0.0
H1164 H 0.4527 0.10638 0.71345 0.0
H1165 H 0.38644 0.14079 0.70899 0.0
H1166 H 0.41698 0.13823 0.70564 0.0
C1167 C 0.86798 0.39324 0.69915 0.0
C1168 C 0.88529 0.40868 0.68846 0.0
C1169 C 0.86181 0.37277 0.69505 0.0
C1170 C 0.8695 0.33801 0.65673 0.0
H1171 H 0.85191 0.30256 0.70959 0.0
C1172 C 0.84436 0.25373 0.64666 0.0
C1173 C 0.85231 0.24558 0.66236 0.0
C1174 C 0.84532 0.27232 0.651 0.0
C1175 C 0.85685 0.31227 0.69469 0.0
H1176 H 0.90956 0.4152 0.66484 0.0
H1177 H 0.8991 0.37936 0.65787 0.0
H1178 H 0.86003 0.33797 0.71357 0.0
H1179 H 0.86676 0.24976 0.69529 0.0
H1180 H 0.86881 0.28271 0.70294 0.0
H1181 H 0.86719 0.31266 0.63805 0.0
C1182 C 0.88995 0.38293 0.66904 0.0
C1183 C 0.86127 0.33252 0.69689 0.0
C1184 C 0.89597 0.40344 0.67297 0.0
C1185 C 0.86025 0.25569 0.68314 0.0
C1186 C 0.86146 0.27454 0.68742 0.0
C1187 C 0.86516 0.31784 0.65456 0.0
C1188 C 0.87304 0.36736 0.68044 0.0
C1189 C 0.86769 0.34565 0.67793 0.0
C1190 C 0.85467 0.28339 0.67096 0.0
C1191 C 0.85876 0.3047 0.6735 0.0
H1192 H 0.85958 0.39706 0.7112 0.0
H1193 H 0.84847 0.36119 0.7037 0.0
H1194 H 0.87426 0.34761 0.64174 0.0
H1195 H 0.83824 0.24615 0.63048 0.0
H1196 H 0.83946 0.27841 0.63825 0.0
C1197 C 0.15713 0.91199 0.66443 0.0
C1198 C 0.13933 0.90734 0.65256 0.0
C1199 C 0.17191 0.93228 0.66828 0.0
C1200 C 0.18947 0.98446 0.6464 0.0
H1201 H 0.2215 0.0001 0.70193 0.0
C1202 C 0.26373 0.06255 0.66005 0.0
C1203 C 0.26741 0.07037 0.68237 0.0
C1204 C 0.24669 0.04344 0.6554 0.0
C1205 C 0.21255 -0.0039 0.68641 0.0
H1206 H 0.12251 0.91974 0.63578 0.0
H1207 H 0.14792 0.95536 0.6434 0.0
H1208 H 0.19414 0.96531 0.69727 0.0
H1209 H 0.25567 0.06558 0.71678 0.0
H1210 H 0.22571 0.03299 0.70856 0.0
H1211 H 0.20773 0.01559 0.63589 0.0
C1212 C 0.1508 0.94346 0.64926 0.0
C1213 C 0.19701 0.97601 0.6836 0.0
C1214 C 0.13614 0.92314 0.64517 0.0
C1215 C 0.25322 0.05969 0.69948 0.0
C1216 C 0.23617 0.04094 0.69481 0.0
C1217 C 0.205 0.00468 0.64929 0.0
C1218 C 0.16905 0.9483 0.66047 0.0
C1219 C 0.18527 0.96989 0.66357 0.0
C1220 C 0.23312 0.03215 0.67299 0.0
C1221 C 0.21665 0.01075 0.6694 0.0
H1222 H 0.15998 0.89993 0.66982 0.0
H1223 H 0.18589 0.93539 0.67663 0.0
H1224 H 0.18095 0.9802 0.63057 0.0
H1225 H 0.27459 0.07055 0.64664 0.0
H1226 H 0.24476 0.03709 0.63839 0.0
C1227 C 0.05422 0.2106 0.64108 0.0
C1228 C 0.06967 0.22394 0.65598 0.0
C1229 C 0.03415 0.20544 0.6449 0.0
C1230 C -0.00292 0.20398 0.68586 0.0
H1231 H 0.97333 0.21294 0.63161 0.0
C1232 C 0.91867 0.20128 0.68334 0.0
C1233 C 0.90761 0.19422 0.6629 0.0
C1234 C 0.93809 0.2035 0.68513 0.0
C1235 C 0.97951 0.20999 0.64686 0.0
H1236 H 0.07605 0.2414 0.68735 0.0
H1237 H 0.04064 0.23229 0.69404 0.0
H1238 H 0.00768 0.2189 0.63036 0.0
H1239 H 0.90706 0.18219 0.62921 0.0
H1240 H 0.94019 0.18495 0.63266 0.0
H1241 H 0.96855 0.19478 0.70224 0.0
C1242 C 0.04422 0.22586 0.67943 0.0
C1243 C -0.00072 0.21352 0.64614 0.0
C1244 C 0.06443 0.23108 0.67558 0.0
C1245 C 0.91554 0.18813 0.64494 0.0
C1246 C 0.93458 0.18983 0.64691 0.0
C1247 C 0.97703 0.20021 0.68653 0.0
C1248 C 0.02902 0.21347 0.66373 0.0
C1249 C 0.0082 0.21029 0.66547 0.0
C1250 C 0.94648 0.19831 0.66663 0.0
C1251 C 0.96792 0.20287 0.66686 0.0
H1252 H 0.05773 0.20446 0.62615 0.0
H1253 H 0.02265 0.19553 0.63276 0.0
H1254 H 0.00369 0.20147 0.70103 0.0
H1255 H 0.91272 0.20599 0.69744 0.0
H1256 H 0.94682 0.21005 0.70057 0.0
C1257 C 0.75631 0.82995 0.67164 0.0
C1258 C 0.76099 0.84164 0.65167 0.0
C1259 C 0.76284 0.81575 0.67441 0.0
C1260 C 0.7988 0.80004 0.65193 0.0
H1261 H 0.76022 0.74799 0.67828 0.0
C1262 C 0.79378 0.71827 0.65609 0.0
C1263 C 0.79565 0.71403 0.67898 0.0
C1264 C 0.79365 0.73625 0.65052 0.0
C1265 C 0.77106 0.76246 0.67079 0.0
H1266 H 0.77706 0.84833 0.61947 0.0
H1267 H 0.7879 0.8232 0.624 0.0
H1268 H 0.75101 0.77447 0.67412 0.0
H1269 H 0.80053 0.72558 0.71362 0.0
H1270 H 0.80058 0.75697 0.70382 0.0
H1271 H 0.81872 0.78758 0.64856 0.0
C1272 C 0.77933 0.82506 0.63761 0.0
C1273 C 0.76592 0.7777 0.66865 0.0
C1274 C 0.77288 0.83929 0.63489 0.0
C1275 C 0.79926 0.72869 0.69583 0.0
C1276 C 0.79922 0.74656 0.69028 0.0
C1277 C 0.80389 0.78466 0.65398 0.0
C1278 C 0.77414 0.8129 0.65724 0.0
C1279 C 0.77978 0.79675 0.6594 0.0
C1280 C 0.79553 0.75002 0.6678 0.0
C1281 C 0.79006 0.76586 0.66356 0.0
H1282 H 0.74714 0.83135 0.68486 0.0
H1283 H 0.75887 0.80688 0.68994 0.0
H1284 H 0.80989 0.81461 0.64492 0.0
H1285 H 0.79059 0.70696 0.64294 0.0
H1286 H 0.79056 0.73864 0.63309 0.0
C1287 C 0.035 0.81055 0.68925 0.0
C1288 C 0.04504 0.81603 0.66825 0.0
C1289 C 0.01381 0.80014 0.69002 0.0
C1290 C 0.96952 0.76726 0.65392 0.0
H1291 H 0.93886 0.77523 0.70176 0.0
C1292 C 0.88408 0.72356 0.65026 0.0
C1293 C 0.87492 0.71118 0.66929 0.0
C1294 C 0.9038 0.73991 0.65169 0.0
C1295 C 0.94729 0.77289 0.68836 0.0
H1296 H 0.04142 0.81577 0.63166 0.0
H1297 H 0.00431 0.79781 0.63281 0.0
H1298 H 0.97588 0.79707 0.70047 0.0
H1299 H 0.87829 0.70693 0.70518 0.0
H1300 H 0.91326 0.73573 0.70773 0.0
H1301 H 0.94112 0.74319 0.64178 0.0
C1302 C 0.01263 0.80113 0.64874 0.0
C1303 C 0.96845 0.7853 0.68762 0.0
C1304 C 0.03382 0.81148 0.64801 0.0
C1305 C 0.88509 0.71643 0.69037 0.0
C1306 C 0.90504 0.73284 0.69178 0.0
C1307 C 0.9485 0.75508 0.65453 0.0
C1308 C 0.00234 0.79507 0.66975 0.0
C1309 C 0.97981 0.78258 0.67037 0.0
C1310 C 0.91486 0.74404 0.67212 0.0
C1311 C 0.93714 0.75774 0.6717 0.0
H1312 H 0.04354 0.81406 0.70505 0.0
H1313 H 0.00644 0.79554 0.70645 0.0
H1314 H 0.97774 0.76432 0.64077 0.0
H1315 H 0.87643 0.71977 0.63386 0.0
H1316 H 0.91089 0.74853 0.6364 0.0
C1317 C 0.1677 0.21266 0.69245 0.0
C1318 C 0.16392 0.22085 0.67288 0.0
C1319 C 0.18029 0.20409 0.69135 0.0
C1320 C 0.22137 0.20552 0.65659 0.0
H1321 H 0.21001 0.15683 0.69021 0.0
C1322 C 0.26913 0.16732 0.64302 0.0
C1323 C 0.27613 0.16188 0.66253 0.0
C1324 C 0.25406 0.17263 0.64469 0.0
C1325 C 0.21344 0.17053 0.6809 0.0
H1326 H 0.1696 0.22629 0.63677 0.0
H1327 H 0.1916 0.21119 0.63461 0.0
H1328 H 0.18615 0.1697 0.69191 0.0
H1329 H 0.27199 0.15677 0.69898 0.0
H1330 H 0.24557 0.16631 0.70194 0.0
H1331 H 0.24859 0.20646 0.64561 0.0
C1332 C 0.18516 0.2116 0.65093 0.0
C1333 C 0.1998 0.17791 0.68186 0.0
C1334 C 0.17255 0.22017 0.65208 0.0
C1335 C 0.26699 0.16098 0.68366 0.0
C1336 C 0.25183 0.16637 0.68534 0.0
C1337 C 0.23492 0.19815 0.65561 0.0
C1338 C 0.18932 0.20361 0.6706 0.0
C1339 C 0.20358 0.19547 0.66961 0.0
C1340 C 0.24558 0.17274 0.66591 0.0
C1341 C 0.23109 0.18051 0.66761 0.0
H1342 H 0.16105 0.21303 0.70866 0.0
H1343 H 0.18332 0.19828 0.70685 0.0
H1344 H 0.22502 0.21934 0.6474 0.0
H1345 H 0.27555 0.16782 0.62639 0.0
H1346 H 0.24923 0.17697 0.62932 0.0
C1347 C 0.75526 0.94597 0.65757 0.0
C1348 C 0.76389 0.93745 0.6718 0.0
C1349 C 0.76514 0.96711 0.65433 0.0
C1350 C 0.802 0.01467 0.68282 0.0
H1351 H 0.80438 0.04005 0.6246 0.0
C1352 C 0.84101 0.1005 0.6787 0.0
C1353 C 0.82921 0.10799 0.6689 0.0
C1354 C 0.83671 0.08063 0.6741 0.0
C1355 C 0.80382 0.03315 0.64095 0.0
H1356 H 0.78947 0.9436 0.6933 0.0
H1357 H 0.80685 0.98048 0.68765 0.0
H1358 H 0.78864 0.00283 0.62696 0.0
H1359 H 0.8047 0.10152 0.64549 0.0
H1360 H 0.79674 0.06646 0.63771 0.0
H1361 H 0.81655 0.0446 0.69707 0.0
C1362 C 0.79241 0.97109 0.67923 0.0
C1363 C 0.79476 0.01188 0.64232 0.0
C1364 C 0.78253 0.95004 0.68244 0.0
C1365 C 0.81416 0.09604 0.65292 0.0
C1366 C 0.80961 0.07598 0.64855 0.0
C1367 C 0.811 0.0358 0.68147 0.0
C1368 C 0.78375 0.97991 0.66532 0.0
C1369 C 0.79371 0.00244 0.66332 0.0
C1370 C 0.82013 0.06774 0.66011 0.0
C1371 C 0.81201 0.04534 0.66056 0.0
H1372 H 0.74087 0.93633 0.64912 0.0
H1373 H 0.758 0.97346 0.64369 0.0
H1374 H 0.80105 0.00789 0.69935 0.0
H1375 H 0.85261 0.10951 0.6912 0.0
H1376 H 0.84543 0.0749 0.68281 0.0
C1377 C 0.46889 0.36885 0.68652 0.0
C1378 C 0.48661 0.37742 0.67341 0.0
C1379 C 0.45749 0.34767 0.68927 0.0
C1380 C 0.44751 0.30078 0.65971 0.0
H1381 H 0.42071 0.27365 0.71572 0.0
C1382 C 0.39718 0.215 0.65889 0.0
C1383 C 0.37788 0.20795 0.66817 0.0
C1384 C 0.41302 0.23441 0.66444 0.0
C1385 C 0.42809 0.28103 0.69996 0.0
H1386 H 0.50692 0.37128 0.65354 0.0
H1387 H 0.48716 0.33431 0.65833 0.0
H1388 H 0.44326 0.31073 0.71555 0.0
H1389 H 0.35999 0.21474 0.69145 0.0
H1390 H 0.38753 0.24906 0.70075 0.0
H1391 H 0.43202 0.27156 0.64379 0.0
C1392 C 0.48183 0.34373 0.66629 0.0
C1393 C 0.44095 0.30223 0.69986 0.0
C1394 C 0.49316 0.36482 0.66358 0.0
C1395 C 0.37491 0.21989 0.68437 0.0
C1396 C 0.3907 0.23952 0.68965 0.0
C1397 C 0.43468 0.27973 0.65978 0.0
C1398 C 0.46369 0.33486 0.67885 0.0
C1399 C 0.4507 0.31232 0.67966 0.0
C1400 C 0.40965 0.24735 0.67885 0.0
C1401 C 0.4247 0.26955 0.67984 0.0
H1402 H 0.46371 0.37848 0.69427 0.0
H1403 H 0.4435 0.34128 0.69887 0.0
H1404 H 0.45442 0.30811 0.64375 0.0
H1405 H 0.39969 0.20597 0.6463 0.0
H1406 H 0.42758 0.23974 0.65632 0.0
C1407 C 0.61234 0.09069 0.69183 0.0
C1408 C 0.60294 0.09792 0.67696 0.0
C1409 C 0.63349 0.09966 0.69206 0.0
C1410 C 0.67862 0.12924 0.6564 0.0
H1411 H 0.70731 0.13797 0.71375 0.0
C1412 C 0.76619 0.16197 0.66205 0.0
C1413 C 0.77245 0.15244 0.67814 0.0
C1414 C 0.74595 0.15766 0.6615 0.0
C1415 C 0.69953 0.1355 0.69755 0.0
H1416 H 0.60771 0.12003 0.65085 0.0
H1417 H 0.64478 0.13585 0.65124 0.0
H1418 H 0.67106 0.12588 0.71391 0.0
H1419 H 0.76225 0.13051 0.70577 0.0
H1420 H 0.72733 0.12274 0.70444 0.0
H1421 H 0.70707 0.13835 0.64004 0.0
C1422 C 0.63594 0.12322 0.6626 0.0
C1423 C 0.67874 0.12858 0.69767 0.0
C1424 C 0.6148 0.11428 0.66246 0.0
C1425 C 0.75806 0.13836 0.69335 0.0
C1426 C 0.73798 0.13399 0.6927 0.0
C1427 C 0.69947 0.13606 0.65627 0.0
C1428 C 0.64553 0.11596 0.67734 0.0
C1429 C 0.66795 0.12496 0.67711 0.0
C1430 C 0.73165 0.14371 0.67699 0.0
C1431 C 0.71008 0.1388 0.67686 0.0
H1432 H 0.60335 0.07797 0.70303 0.0
H1433 H 0.64039 0.09354 0.70339 0.0
H1434 H 0.67071 0.12653 0.64026 0.0
H1435 H 0.77693 0.17291 0.65013 0.0
H1436 H 0.74158 0.16547 0.64922 0.0
C1437 C 0.86229 0.49247 0.66988 0.0
C1438 C 0.8803 0.49969 0.68238 0.0
C1439 C 0.85037 0.50165 0.67233 0.0
C1440 C 0.84137 0.53631 0.70937 0.0
H1441 H 0.8232 0.54861 0.65288 0.0
C1442 C 0.8291 0.60425 0.6952 0.0
C1443 C 0.81694 0.6034 0.67678 0.0
C1444 C 0.83003 0.58689 0.70144 0.0
C1445 C 0.82758 0.54484 0.66895 0.0
H1446 H 0.90014 0.52172 0.70738 0.0
H1447 H 0.87943 0.53816 0.71153 0.0
H1448 H 0.83945 0.52804 0.65196 0.0
H1449 H 0.7942 0.58359 0.65242 0.0
H1450 H 0.79509 0.55302 0.66387 0.0
H1451 H 0.83017 0.55396 0.7262 0.0
C1452 C 0.87428 0.52521 0.70011 0.0
C1453 C 0.83705 0.53309 0.66838 0.0
C1454 C 0.88621 0.51598 0.69763 0.0
C1455 C 0.80356 0.58449 0.66685 0.0
C1456 C 0.80434 0.56709 0.67317 0.0
C1457 C 0.83184 0.5481 0.70996 0.0
C1458 C 0.8563 0.51826 0.68732 0.0
C1459 C 0.84446 0.52904 0.6885 0.0
C1460 C 0.81879 0.56852 0.68924 0.0
C1461 C 0.82523 0.55288 0.68967 0.0
H1462 H 0.85752 0.47982 0.65807 0.0
H1463 H 0.83653 0.49579 0.6624 0.0
H1464 H 0.84664 0.53317 0.72522 0.0
H1465 H 0.83974 0.6188 0.70285 0.0
H1466 H 0.84128 0.58858 0.71394 0.0
C1467 C 0.47307 0.93611 0.25997 0.0
C1468 C 0.45697 0.91647 0.26461 0.0
C1469 C 0.47673 0.94358 0.2376 0.0
C1470 C 0.44969 0.93395 0.18192 0.0
H1471 H 0.50291 0.97283 0.15887 0.0
C1472 C 0.46274 0.95827 0.08787 0.0
C1473 C 0.47106 0.97931 0.0847 0.0
C1474 C 0.46326 0.95061 0.10939 0.0
C1475 C 0.48799 0.96198 0.16516 0.0
H1476 H 0.43289 0.88878 0.24956 0.0
H1477 H 0.43977 0.90128 0.21053 0.0
H1478 H 0.49966 0.95885 0.19728 0.0
H1479 H 0.48707 0.00896 0.10092 0.0
H1480 H 0.48888 -0.0044 0.13851 0.0
H1481 H 0.43812 0.93681 0.14963 0.0
C1482 C 0.44915 0.91133 0.22408 0.0
C1483 C 0.48607 0.95404 0.18719 0.0
C1484 C 0.44532 0.90404 0.24641 0.0
C1485 C 0.48081 -0.00731 0.10301 0.0
C1486 C 0.48181 0.98506 0.12443 0.0
C1487 C 0.45166 0.9416 0.15985 0.0
C1488 C 0.46448 0.93144 0.2194 0.0
C1489 C 0.46686 0.93986 0.19586 0.0
C1490 C 0.47248 0.96391 0.12796 0.0
C1491 C 0.4708 0.95565 0.15125 0.0
H1492 H 0.48213 0.94606 0.27378 0.0
H1493 H 0.48856 0.95917 0.23478 0.0
H1494 H 0.43458 0.92362 0.18812 0.0
H1495 H 0.45482 0.9477 0.07403 0.0
H1496 H 0.45596 0.93425 0.1117 0.0
C1497 C 0.04553 0.52892 0.26074 0.0
C1498 C 0.06652 0.53831 0.2644 0.0
C1499 C 0.03769 0.52451 0.23859 0.0
C1500 C 0.04884 0.5373 0.17849 0.0
H1501 H 0.00884 0.48056 0.1678 0.0
C1502 C 0.02009 0.50277 0.08808 0.0
C1503 C -0.00014 0.48697 0.08629 0.0
C1504 C 0.02846 0.51097 0.10949 0.0
C1505 C 0.01971 0.49654 0.17052 0.0
H1506 H 0.09588 0.55112 0.24822 0.0
H1507 H 0.08216 0.54405 0.2092 0.0
H1508 H 0.02283 0.49172 0.2059 0.0
H1509 H 0.97211 0.46843 0.10505 0.0
H1510 H -0.01366 0.48321 0.14204 0.0
H1511 H 0.04548 0.54223 0.14316 0.0
C1512 C 0.07182 0.54 0.22344 0.0
C1513 C 0.02778 0.50288 0.19234 0.0
C1514 C 0.07964 0.54404 0.24564 0.0
C1515 C -0.01218 0.48045 0.10597 0.0
C1516 C -0.00394 0.48879 0.12721 0.0
C1517 C 0.04056 0.53101 0.15664 0.0
C1518 C 0.05075 0.52975 0.21978 0.0
C1519 C 0.04232 0.52331 0.19655 0.0
C1520 C 0.01664 0.50364 0.12938 0.0
C1521 C 0.02578 0.51057 0.15243 0.0
H1522 H 0.03517 0.52413 0.27504 0.0
H1523 H 0.02139 0.51664 0.23615 0.0
H1524 H 0.06007 0.55315 0.18139 0.0
H1525 H 0.02974 0.50797 0.07317 0.0
H1526 H 0.04439 0.52234 0.11054 0.0
C1527 C 0.43775 0.51998 0.24126 0.0
C1528 C 0.4494 0.51975 0.25972 0.0
C1529 C 0.4439 0.51955 0.21884 0.0
C1530 C 0.49125 0.53439 0.18743 0.0
H1531 H 0.4556 0.5071 0.13611 0.0
C1532 C 0.51858 0.52318 0.09965 0.0
C1533 C 0.50867 0.52444 0.07999 0.0
C1534 C 0.51219 0.5253 0.1213 0.0
C1535 C 0.4657 0.51507 0.15024 0.0
H1536 H 0.47589 0.51795 0.2696 0.0
H1537 H 0.48634 0.51655 0.23058 0.0
H1538 H 0.44139 0.50259 0.17443 0.0
H1539 H 0.48498 0.53001 0.06754 0.0
H1540 H 0.47374 0.53365 0.10548 0.0
H1541 H 0.51558 0.54656 0.16332 0.0
C1542 C 0.47267 0.51738 0.23323 0.0
C1543 C 0.45757 0.51241 0.1722 0.0
C1544 C 0.46653 0.51782 0.25555 0.0
C1545 C 0.49309 0.52923 0.08237 0.0
C1546 C 0.48646 0.53101 0.10408 0.0
C1547 C 0.49937 0.53695 0.16553 0.0
C1548 C 0.4619 0.51907 0.2146 0.0
C1549 C 0.47029 0.52186 0.19111 0.0
C1550 C 0.49553 0.52842 0.12377 0.0
C1551 C 0.48672 0.5272 0.14671 0.0
H1552 H 0.42472 0.5219 0.24418 0.0
H1553 H 0.43527 0.52092 0.20492 0.0
H1554 H 0.50144 0.54234 0.20151 0.0
H1555 H 0.53052 0.51935 0.0983 0.0
H1556 H 0.51945 0.52316 0.13613 0.0
C1557 C 0.93434 0.45648 0.75384 0.0
C1558 C 0.91826 0.46005 0.74929 0.0
C1559 C 0.94093 0.45701 0.77613 0.0
C1560 C 0.93816 0.47229 0.83555 0.0
H1561 H 0.95067 0.42953 0.84943 0.0
C1562 C 0.95592 0.45655 0.92679 0.0
C1563 C 0.97539 0.45879 0.92852 0.0
C1564 C 0.94699 0.4548 0.90543 0.0
C1565 C 0.94719 0.4415 0.84576 0.0
H1566 H 0.89703 0.46799 0.76404 0.0
H1567 H 0.90841 0.46874 0.80346 0.0
H1568 H 0.93956 0.43197 0.81111 0.0
H1569 H 0.0002 0.45963 0.90956 0.0
H1570 H -0.0159 0.4555 0.87217 0.0
H1571 H 0.94561 0.48154 0.87052 0.0
C1572 C 0.91607 0.4657 0.78974 0.0
C1573 C 0.941 0.44305 0.8238 0.0
C1574 C 0.90957 0.46533 0.76725 0.0
C1575 C -0.01487 0.45776 0.90866 0.0
C1576 C 0.97597 0.45549 0.88734 0.0
C1577 C 0.94412 0.47055 0.85765 0.0
C1578 C 0.93138 0.46085 0.79446 0.0
C1579 C 0.93683 0.45873 0.81828 0.0
C1580 C 0.95716 0.45473 0.88551 0.0
C1581 C 0.94899 0.45533 0.86281 0.0
H1582 H 0.94129 0.45246 0.74014 0.0
H1583 H 0.95316 0.45384 0.77905 0.0
H1584 H 0.93518 0.48459 0.83186 0.0
H1585 H 0.9482 0.45762 0.94181 0.0
H1586 H 0.93244 0.45413 0.90441 0.0
C1587 C 0.52355 0.43612 0.76023 0.0
C1588 C 0.52383 0.44872 0.74256 0.0
C1589 C 0.51927 0.43933 0.7826 0.0
C1590 C 0.52191 0.48068 0.8184 0.0
H1591 H 0.48895 0.43789 0.86124 0.0
C1592 C 0.49894 0.50083 0.90183 0.0
C1593 C 0.50302 0.49328 0.9218 0.0
C1594 C 0.49898 0.49249 0.88066 0.0
C1595 C 0.49831 0.44994 0.84947 0.0
H1596 H 0.51932 0.47394 0.73376 0.0
H1597 H 0.51138 0.47934 0.77261 0.0
H1598 H 0.49389 0.42889 0.8224 0.0
H1599 H 0.50882 0.47008 0.93555 0.0
H1600 H 0.50902 0.4554 0.8981 0.0
H1601 H 0.52635 0.50173 0.84514 0.0
C1602 C 0.51479 0.46724 0.76948 0.0
C1603 C 0.50115 0.44482 0.82729 0.0
C1604 C 0.51914 0.46407 0.74725 0.0
C1605 C 0.50557 0.47612 0.92038 0.0
C1606 C 0.50574 0.46779 0.89899 0.0
C1607 C 0.51903 0.48575 0.84038 0.0
C1608 C 0.51528 0.45524 0.78753 0.0
C1609 C 0.51272 0.4602 0.81141 0.0
C1610 C 0.50327 0.4765 0.8789 0.0
C1611 C 0.50692 0.4705 0.85604 0.0
H1612 H 0.52731 0.42429 0.75685 0.0
H1613 H 0.51989 0.42993 0.79613 0.0
H1614 H 0.53143 0.49289 0.80685 0.0
H1615 H 0.49666 0.51388 0.90246 0.0
H1616 H 0.49651 0.49917 0.86552 0.0
C1617 C 0.52681 0.05134 0.75588 0.0
C1618 C 0.5325 0.07161 0.75084 0.0
C1619 C 0.52065 0.04374 0.77795 0.0
C1620 C 0.5002 0.05479 0.83048 0.0
H1621 H 0.50687 0.01108 0.85549 0.0
C1622 C 0.47937 0.02293 0.92341 0.0
C1623 C 0.47024 0.00162 0.92547 0.0
C1624 C 0.48592 0.03225 0.90206 0.0
C1625 C 0.50476 0.0232 0.84863 0.0
H1626 H 0.53757 0.10025 0.76502 0.0
H1627 H 0.52781 0.08738 0.80375 0.0
H1628 H 0.52282 0.02642 0.81935 0.0
H1629 H 0.45908 0.97334 0.90645 0.0
H1630 H 0.47044 -0.01043 0.86946 0.0
H1631 H 0.48246 0.05171 0.86023 0.0
C1632 C 0.52732 0.07704 0.79062 0.0
C1633 C 0.51389 0.03198 0.82786 0.0
C1634 C 0.53319 0.08452 0.76852 0.0
C1635 C 0.46625 -0.0102 0.90553 0.0
C1636 C 0.4729 -0.00092 0.88434 0.0
C1637 C 0.4913 0.04616 0.85144 0.0
C1638 C 0.52029 0.05637 0.7955 0.0
C1639 C 0.51158 0.04777 0.81834 0.0
C1640 C 0.48352 0.02041 0.8825 0.0
C1641 C 0.49327 0.03009 0.86057 0.0
H1642 H 0.52586 0.04101 0.74246 0.0
H1643 H 0.51517 0.02771 0.78088 0.0
H1644 H 0.49771 0.06663 0.82357 0.0
H1645 H 0.48274 0.03249 0.93842 0.0
H1646 H 0.49398 0.04875 0.90109 0.0
C1647 C 0.11383 0.23786 0.57961 0.0
C1648 C 0.12468 0.25043 0.5981 0.0
C1649 C 0.11799 0.2453 0.55733 0.0
C1650 C 0.15529 0.28888 0.52168 0.0
H1651 H 0.10905 0.26986 0.48092 0.0
C1652 C 0.15467 0.32827 0.43685 0.0
C1653 C 0.14569 0.31552 0.41781 0.0
C1654 C 0.15403 0.31998 0.45834 0.0
C1655 C 0.12214 0.27514 0.49203 0.0
H1656 H 0.14856 0.28052 0.6079 0.0
H1657 H 0.15554 0.29385 0.56902 0.0
H1658 H 0.10416 0.25645 0.51948 0.0
H1659 H 0.12933 0.2841 0.40623 0.0
H1660 H 0.12786 0.26956 0.44397 0.0
H1661 H 0.17301 0.30829 0.49424 0.0
C1662 C 0.14416 0.27804 0.57155 0.0
C1663 C 0.11939 0.26739 0.51416 0.0
C1664 C 0.14019 0.27045 0.59386 0.0
C1665 C 0.1366 0.2943 0.42054 0.0
C1666 C 0.13558 0.28599 0.44215 0.0
C1667 C 0.15796 0.29687 0.49962 0.0
C1668 C 0.13285 0.26566 0.55297 0.0
C1669 C 0.13594 0.27403 0.52931 0.0
C1670 C 0.14403 0.29874 0.46131 0.0
C1671 C 0.14143 0.28998 0.48453 0.0
H1672 H 0.10181 0.22234 0.58248 0.0
H1673 H 0.10931 0.23508 0.54354 0.0
H1674 H 0.16846 0.29423 0.53265 0.0
H1675 H 0.16168 0.34468 0.43525 0.0
H1676 H 0.16056 0.33016 0.47282 0.0
C1677 C 0.74257 0.87989 0.58104 0.0
C1678 C 0.72974 0.86999 0.59951 0.0
C1679 C 0.73472 0.87649 0.55885 0.0
C1680 C 0.69392 0.83609 0.52597 0.0
H1681 H 0.70665 0.87691 0.47922 0.0
C1682 C 0.65415 0.81275 0.44009 0.0
C1683 C 0.66614 0.82045 0.42051 0.0
C1684 C 0.66175 0.82138 0.46139 0.0
C1685 C 0.70312 0.86535 0.49206 0.0
H1686 H 0.69889 0.84933 0.60986 0.0
H1687 H 0.68505 0.8433 0.57105 0.0
H1688 H 0.72036 0.88753 0.51791 0.0
H1689 H 0.69506 0.8439 0.40752 0.0
H1690 H 0.70867 0.8589 0.44511 0.0
H1691 H 0.6772 0.81386 0.50037 0.0
C1692 C 0.70111 0.85372 0.57362 0.0
C1693 C 0.71091 0.87143 0.51416 0.0
C1694 C 0.70892 0.85727 0.59577 0.0
C1695 C 0.68548 0.83779 0.42239 0.0
C1696 C 0.69325 0.84632 0.44389 0.0
C1697 C 0.6863 0.83003 0.50397 0.0
C1698 C 0.71401 0.86288 0.55491 0.0
C1699 C 0.70612 0.85683 0.53137 0.0
C1700 C 0.68167 0.83772 0.46369 0.0
C1701 C 0.69053 0.84457 0.48682 0.0
H1702 H 0.75874 0.88954 0.5837 0.0
H1703 H 0.74501 0.88362 0.54472 0.0
H1704 H 0.69045 0.82447 0.53873 0.0
H1705 H 0.63908 0.79952 0.43905 0.0
H1706 H 0.6522 0.81477 0.4762 0.0
C1707 C 0.10517 0.85025 0.5743 0.0
C1708 C 0.11918 0.85549 0.59221 0.0
C1709 C 0.11117 0.84989 0.55177 0.0
C1710 C 0.15827 0.873 0.51755 0.0
H1711 H 0.12465 0.83489 0.47055 0.0
C1712 C 0.18766 0.86077 0.43135 0.0
C1713 C 0.17637 0.85939 0.41177 0.0
C1714 C 0.18087 0.86252 0.45293 0.0
C1715 C 0.13408 0.84578 0.4835 0.0
H1716 H 0.14978 0.86307 0.60118 0.0
H1717 H 0.16007 0.86178 0.5622 0.0
H1718 H 0.11152 0.83122 0.50939 0.0
H1719 H 0.14946 0.85937 0.3993 0.0
H1720 H 0.13742 0.86202 0.43712 0.0
H1721 H 0.18103 0.88711 0.4918 0.0
C1722 C 0.1447 0.85855 0.56521 0.0
C1723 C 0.12658 0.84368 0.50571 0.0
C1724 C 0.13876 0.85903 0.58755 0.0
C1725 C 0.15867 0.86077 0.41407 0.0
C1726 C 0.15162 0.86201 0.43569 0.0
C1727 C 0.16582 0.87493 0.49547 0.0
C1728 C 0.13125 0.85477 0.54694 0.0
C1729 C 0.1387 0.85713 0.52307 0.0
C1730 C 0.16242 0.86241 0.45532 0.0
C1731 C 0.15387 0.86127 0.47829 0.0
H1732 H 0.09004 0.84764 0.57759 0.0
H1733 H 0.10042 0.84688 0.5381 0.0
H1734 H 0.16782 0.88399 0.53034 0.0
H1735 H 0.20122 0.85952 0.43003 0.0
H1736 H 0.18944 0.86276 0.46784 0.0
C1737 C 0.57777 0.79907 0.0999 0.0
C1738 C 0.58437 0.79067 0.08285 0.0
C1739 C 0.58412 0.79987 0.12256 0.0
C1740 C 0.60407 0.7742 0.15979 0.0
H1741 H 0.61726 0.81884 0.20178 0.0
C1742 C 0.65106 0.79073 0.24303 0.0
C1743 C 0.64225 0.79353 0.2627 0.0
C1744 C 0.64177 0.7884 0.22176 0.0
C1745 C 0.61339 0.8062 0.19022 0.0
H1746 H 0.60383 0.77805 0.07545 0.0
H1747 H 0.61533 0.77997 0.11452 0.0
H1748 H 0.60627 0.82037 0.16284 0.0
H1749 H 0.61684 0.79597 0.27578 0.0
H1750 H 0.60097 0.79252 0.23844 0.0
H1751 H 0.61201 0.76048 0.18691 0.0
C1752 C 0.60472 0.78523 0.11084 0.0
C1753 C 0.60708 0.80704 0.168 0.0
C1754 C 0.5983 0.7843 0.08843 0.0
C1755 C 0.62371 0.79336 0.2609 0.0
C1756 C 0.61476 0.79165 0.23958 0.0
C1757 C 0.61066 0.77352 0.18182 0.0
C1758 C 0.59721 0.79236 0.12833 0.0
C1759 C 0.60266 0.79118 0.15242 0.0
C1760 C 0.62391 0.7895 0.21983 0.0
C1761 C 0.61556 0.78959 0.19711 0.0
H1762 H 0.56701 0.80407 0.09591 0.0
H1763 H 0.57812 0.80553 0.13564 0.0
H1764 H 0.60023 0.76144 0.14845 0.0
H1765 H 0.66549 0.79112 0.24401 0.0
H1766 H 0.64908 0.78679 0.20667 0.0
C1767 C 0.18816 0.79935 0.08032 0.0
C1768 C 0.19114 0.78291 0.07538 0.0
C1769 C 0.18386 0.80262 0.10253 0.0
C1770 C 0.16776 0.77922 0.15976 0.0
H1771 H 0.19517 0.83594 0.17876 0.0
C1772 C 0.17196 0.81037 0.25308 0.0
C1773 C 0.169 0.8273 0.25429 0.0
C1774 C 0.17265 0.80217 0.23179 0.0
C1775 C 0.18732 0.82003 0.17367 0.0
H1776 H 0.19164 0.75667 0.0892 0.0
H1777 H 0.18447 0.76255 0.12847 0.0
H1778 H 0.20051 0.82715 0.14053 0.0
H1779 H 0.16264 0.84768 0.23441 0.0
H1780 H 0.1638 0.83343 0.19768 0.0
H1781 H 0.15483 0.77232 0.1934 0.0
C1782 C 0.18508 0.77273 0.11515 0.0
C1783 C 0.1903 0.81498 0.15172 0.0
C1784 C 0.18921 0.76937 0.09277 0.0
C1785 C 0.16524 0.83483 0.23406 0.0
C1786 C 0.16598 0.82674 0.21299 0.0
C1787 C 0.16489 0.78431 0.18194 0.0
C1788 C 0.18279 0.78967 0.12035 0.0
C1789 C 0.18024 0.79457 0.14428 0.0
C1790 C 0.17043 0.81085 0.21156 0.0
C1791 C 0.17434 0.80482 0.18889 0.0
H1792 H 0.18956 0.80992 0.06704 0.0
H1793 H 0.1817 0.81552 0.1058 0.0
H1794 H 0.15979 0.76336 0.15456 0.0
H1795 H 0.17492 0.80427 0.26839 0.0
H1796 H 0.17604 0.78985 0.2311 0.0
C1797 C 0.20108 0.41903 0.10236 0.0
C1798 C 0.19994 0.40593 0.08469 0.0
C1799 C 0.19532 0.41167 0.12453 0.0
C1800 C 0.18095 0.3663 0.16166 0.0
H1801 H 0.15058 0.38714 0.19422 0.0
C1802 C 0.13237 0.32466 0.23902 0.0
C1803 C 0.13677 0.33646 0.25904 0.0
C1804 C 0.13933 0.33396 0.21789 0.0
C1805 C 0.15912 0.38128 0.18537 0.0
H1806 H 0.19261 0.37511 0.07631 0.0
H1807 H 0.18204 0.36201 0.11479 0.0
H1808 H 0.16606 0.40198 0.15764 0.0
H1809 H 0.15039 0.36737 0.27222 0.0
H1810 H 0.16216 0.38366 0.23501 0.0
H1811 H 0.17333 0.34514 0.18913 0.0
C1812 C 0.18783 0.3781 0.11185 0.0
C1813 C 0.16817 0.38986 0.16446 0.0
C1814 C 0.19391 0.38557 0.08976 0.0
C1815 C 0.14671 0.35783 0.25714 0.0
C1816 C 0.15354 0.36716 0.23586 0.0
C1817 C 0.17166 0.35755 0.18236 0.0
C1818 C 0.18791 0.39092 0.12942 0.0
C1819 C 0.17916 0.38244 0.15226 0.0
C1820 C 0.15065 0.35528 0.21622 0.0
C1821 C 0.16056 0.36487 0.19436 0.0
H1822 H 0.2057 0.43481 0.09882 0.0
H1823 H 0.19615 0.42215 0.13767 0.0
H1824 H 0.18958 0.36041 0.15309 0.0
H1825 H 0.12458 0.30816 0.2398 0.0
H1826 H 0.13651 0.32444 0.20294 0.0
C1827 C 0.78155 0.57066 0.91355 0.0
C1828 C 0.79149 0.5838 0.93194 0.0
C1829 C 0.7858 0.57783 0.89117 0.0
C1830 C 0.82161 0.62253 0.85551 0.0
H1831 H 0.77611 0.59922 0.81336 0.0
C1832 C 0.81364 0.65792 0.7703 0.0
C1833 C 0.80758 0.64493 0.7512 0.0
C1834 C 0.81506 0.65071 0.79179 0.0
C1835 C 0.789 0.60569 0.82489 0.0
H1836 H 0.81367 0.61461 0.94165 0.0
H1837 H 0.82068 0.6275 0.90259 0.0
H1838 H 0.77147 0.58641 0.85215 0.0
H1839 H 0.79863 0.61449 0.73922 0.0
H1840 H 0.80036 0.60159 0.77711 0.0
H1841 H 0.83865 0.64271 0.82819 0.0
C1842 C 0.81008 0.61147 0.90521 0.0
C1843 C 0.78643 0.59829 0.84715 0.0
C1844 C 0.80608 0.60415 0.92763 0.0
C1845 C 0.80367 0.62484 0.75368 0.0
C1846 C 0.80451 0.61746 0.77531 0.0
C1847 C 0.82404 0.63023 0.83331 0.0
C1848 C 0.79974 0.59848 0.88664 0.0
C1849 C 0.80272 0.60647 0.8628 0.0
C1850 C 0.80981 0.63023 0.79459 0.0
C1851 C 0.80778 0.62176 0.81779 0.0
H1852 H 0.77017 0.55491 0.91656 0.0
H1853 H 0.7779 0.56715 0.87744 0.0
H1854 H 0.8346 0.62911 0.86685 0.0
H1855 H 0.8165 0.67341 0.76874 0.0
H1856 H 0.81903 0.66079 0.80642 0.0
C1857 C 0.41131 0.20493 0.91212 0.0
C1858 C 0.39872 0.20315 0.93053 0.0
C1859 C 0.40399 0.20207 0.88976 0.0
C1860 C 0.35691 0.17402 0.85809 0.0
H1861 H 0.38669 0.20886 0.80735 0.0
C1862 C 0.32186 0.15724 0.76882 0.0
C1863 C 0.33447 0.15934 0.75037 0.0
C1864 C 0.33011 0.16509 0.79022 0.0
C1865 C 0.37828 0.19885 0.82128 0.0
H1866 H 0.36889 0.19758 0.94009 0.0
H1867 H 0.35598 0.19242 0.90088 0.0
H1868 H 0.4005 0.21809 0.84602 0.0
H1869 H 0.36565 0.17189 0.73952 0.0
H1870 H 0.38019 0.1852 0.77717 0.0
H1871 H 0.3351 0.15433 0.8336 0.0
C1872 C 0.37151 0.19606 0.9038 0.0
C1873 C 0.38616 0.20421 0.84341 0.0
C1874 C 0.37892 0.19918 0.92616 0.0
C1875 C 0.3556 0.17028 0.75343 0.0
C1876 C 0.3639 0.17787 0.77503 0.0
C1877 C 0.34917 0.16854 0.83601 0.0
C1878 C 0.38388 0.19713 0.88544 0.0
C1879 C 0.37547 0.19189 0.86202 0.0
C1880 C 0.3512 0.1749 0.79382 0.0
C1881 C 0.35965 0.18095 0.8173 0.0
H1882 H 0.42667 0.20803 0.91509 0.0
H1883 H 0.4138 0.20287 0.87594 0.0
H1884 H 0.34859 0.16401 0.87208 0.0
H1885 H 0.3055 0.14897 0.76685 0.0
H1886 H 0.31988 0.16302 0.80409 0.0
C1887 C 0.78299 0.17581 0.91737 0.0
C1888 C 0.7822 0.19313 0.92475 0.0
C1889 C 0.78826 0.17442 0.89479 0.0
C1890 C 0.81952 0.20653 0.8492 0.0
H1891 H 0.78796 0.16113 0.80829 0.0
C1892 C 0.84126 0.20397 0.75412 0.0
C1893 C 0.83977 0.18541 0.74748 0.0
C1894 C 0.83395 0.20575 0.77552 0.0
C1895 C 0.79701 0.17386 0.81959 0.0
H1896 H 0.78452 0.22161 0.91364 0.0
H1897 H 0.79446 0.21946 0.87472 0.0
H1898 H 0.77499 0.16138 0.8464 0.0
H1899 H 0.82899 0.15406 0.75763 0.0
H1900 H 0.8162 0.1571 0.79434 0.0
H1901 H 0.84181 0.21878 0.82268 0.0
C1902 C 0.7912 0.20713 0.88642 0.0
C1903 C 0.78958 0.17395 0.84134 0.0
C1904 C 0.78554 0.20833 0.90872 0.0
C1905 C 0.83078 0.16873 0.76244 0.0
C1906 C 0.82316 0.17036 0.78339 0.0
C1907 C 0.82706 0.20635 0.8275 0.0
C1908 C 0.79305 0.19042 0.8794 0.0
C1909 C 0.8008 0.19024 0.85634 0.0
C1910 C 0.82451 0.18879 0.79018 0.0
C1911 C 0.81596 0.18993 0.81254 0.0
H1912 H 0.7806 0.16389 0.92927 0.0
H1913 H 0.78954 0.16133 0.88964 0.0
H1914 H 0.82849 0.21919 0.86061 0.0
H1915 H 0.84796 0.21698 0.74279 0.0
H1916 H 0.83518 0.22017 0.78035 0.0
C1917 C 0.24366 0.13185 0.43259 0.0
C1918 C 0.25228 0.12608 0.41502 0.0
C1919 C 0.24979 0.13222 0.45524 0.0
C1920 C 0.27274 0.10834 0.49033 0.0
H1921 H 0.27897 0.14798 0.53636 0.0
C1922 C 0.31608 0.12183 0.5754 0.0
C1923 C 0.30662 0.12359 0.59512 0.0
C1924 C 0.30711 0.11982 0.55402 0.0
C1925 C 0.27701 0.13668 0.52368 0.0
H1926 H 0.27485 0.11763 0.40667 0.0
H1927 H 0.28606 0.11893 0.44586 0.0
H1928 H 0.26917 0.15128 0.49743 0.0
H1929 H 0.28013 0.12404 0.60813 0.0
H1930 H 0.26468 0.12096 0.57061 0.0
H1931 H 0.28129 0.0942 0.51637 0.0
C1932 C 0.27416 0.12253 0.44252 0.0
C1933 C 0.27142 0.13856 0.50144 0.0
C1934 C 0.26795 0.12201 0.42007 0.0
C1935 C 0.28758 0.12234 0.59322 0.0
C1936 C 0.27886 0.12085 0.57179 0.0
C1937 C 0.27855 0.10662 0.51242 0.0
C1938 C 0.26463 0.12685 0.46047 0.0
C1939 C 0.26955 0.12457 0.48443 0.0
C1940 C 0.2888 0.12005 0.552 0.0
C1941 C 0.28093 0.12087 0.5292 0.0
H1942 H 0.23146 0.13493 0.42895 0.0
H1943 H 0.2422 0.13567 0.46869 0.0
H1944 H 0.27086 0.09695 0.47781 0.0
H1945 H 0.33085 0.12299 0.57643 0.0
H1946 H 0.31506 0.11928 0.53895 0.0
C1947 C 0.84208 0.11811 0.41424 0.0
C1948 C 0.85859 0.11508 0.41016 0.0
C1949 C 0.83768 0.12154 0.43642 0.0
C1950 C 0.84431 0.11499 0.49705 0.0
H1951 H 0.84215 0.16477 0.50524 0.0
C1952 C 0.84543 0.14885 0.58649 0.0
C1953 C 0.83588 0.16057 0.58896 0.0
C1954 C 0.84644 0.14117 0.56504 0.0
C1955 C 0.84222 0.15056 0.50333 0.0
H1956 H 0.88288 0.11231 0.42602 0.0
H1957 H 0.87488 0.11785 0.46495 0.0
H1958 H 0.8465 0.15467 0.46724 0.0
H1959 H 0.81875 0.17232 0.57143 0.0
H1960 H 0.8194 0.158 0.53448 0.0
H1961 H 0.83964 0.11058 0.53306 0.0
C1962 C 0.86547 0.11772 0.45097 0.0
C1963 C 0.84485 0.14486 0.48149 0.0
C1964 C 0.87008 0.11465 0.42875 0.0
C1965 C 0.82634 0.16345 0.56996 0.0
C1966 C 0.82696 0.15543 0.54869 0.0
C1967 C 0.8413 0.12049 0.51893 0.0
C1968 C 0.8495 0.12164 0.45495 0.0
C1969 C 0.84598 0.12708 0.47813 0.0
C1970 C 0.8376 0.14476 0.54571 0.0
C1971 C 0.84026 0.1384 0.5224 0.0
H1972 H 0.8331 0.11869 0.40018 0.0
H1973 H 0.82523 0.12443 0.43907 0.0
H1974 H 0.84509 0.10116 0.49487 0.0
H1975 H 0.85311 0.14659 0.60083 0.0
H1976 H 0.85494 0.13323 0.5635 0.0
C1977 C 0.86567 0.75167 0.43463 0.0
C1978 C 0.86587 0.73913 0.41703 0.0
C1979 C 0.85962 0.74398 0.45663 0.0
C1980 C 0.84771 0.69944 0.49392 0.0
H1981 H 0.81372 0.71658 0.52532 0.0
C1982 C 0.80263 0.65628 0.57186 0.0
C1983 C 0.80657 0.66826 0.59162 0.0
C1984 C 0.8077 0.66532 0.5504 0.0
C1985 C 0.82325 0.71174 0.51678 0.0
H1986 H 0.86068 0.709 0.40872 0.0
H1987 H 0.84976 0.69534 0.44697 0.0
H1988 H 0.82899 0.73195 0.48877 0.0
H1989 H 0.81697 0.69885 0.60426 0.0
H1990 H 0.82549 0.71474 0.56644 0.0
H1991 H 0.84153 0.67888 0.52169 0.0
C1992 C 0.85462 0.71126 0.44404 0.0
C1993 C 0.83216 0.72063 0.49591 0.0
C1994 C 0.86093 0.71906 0.42208 0.0
C1995 C 0.81355 0.68922 0.5893 0.0
C1996 C 0.81862 0.69833 0.56767 0.0
C1997 C 0.83862 0.69041 0.51459 0.0
C1998 C 0.85333 0.72346 0.46147 0.0
C1999 C 0.84449 0.71456 0.48415 0.0
C2000 C 0.81676 0.68656 0.5482 0.0
C2001 C 0.82619 0.69635 0.52619 0.0
H2002 H 0.86948 0.76725 0.43114 0.0
H2003 H 0.85939 0.75402 0.4697 0.0
H2004 H 0.85739 0.69463 0.48569 0.0
H2005 H 0.79722 0.64007 0.57316 0.0
H2006 H 0.80565 0.65582 0.53563 0.0
loop_
_geom_bond_atom_site_label_1
_geom_bond_atom_site_label_2
_geom_bond_distance
_geom_bond_site_symmetry_2
_ccdc_geom_bond_type
H0 C3 0.929 . S
H1 C6 0.929 . S
H2 C8 0.930 . S
C3 H0 0.929 . S
C3 C4 1.398 . S
C3 C5 1.396 . S
C4 C3 1.398 . S
C4 C8 1.407 . S
C5 C3 1.396 . S
C5 C6 1.394 . S
C6 H1 0.929 . S
C6 C5 1.394 . S
C6 C7 1.382 . S
C7 C6 1.382 . S
C7 C8 1.392 . S
C7 N9 1.420 . S
C8 H2 0.930 . S
C8 C4 1.407 . S
C8 C7 1.392 . S
N9 C7 1.420 . S
N9 C10 1.244 . S
C10 N9 1.244 . S
H11 C14 0.929 . S
H12 C17 0.929 . S
H13 C19 0.930 . S
C14 H11 0.929 . S
C14 C15 1.398 . S
C14 C16 1.396 . S
C15 C14 1.398 . S
C15 C19 1.407 . S
C16 C14 1.396 . S
C16 C17 1.394 . S
C17 H12 0.929 . S
C17 C16 1.394 . S
C17 C18 1.382 . S
C18 C17 1.382 . S
C18 C19 1.392 . S
C18 N20 1.420 . S
C19 H13 0.930 . S
C19 C15 1.407 . S
C19 C18 1.392 . S
N20 C18 1.420 . S
N20 C21 1.244 . S
C21 N20 1.244 . S
H22 C25 0.929 . S
H23 C28 0.929 . S
H24 C30 0.930 . S
C25 H22 0.929 . S
C25 C26 1.398 . S
C25 C27 1.396 . S
C26 C25 1.398 . S
C26 C30 1.407 . S
C27 C25 1.396 . S
C27 C28 1.394 . S
C28 H23 0.929 . S
C28 C27 1.394 . S
C28 C29 1.382 . S
C29 C28 1.382 . S
C29 C30 1.392 . S
C29 N31 1.420 . S
C30 H24 0.930 . S
C30 C26 1.407 . S
C30 C29 1.392 . S
N31 C29 1.420 . S
N31 C32 1.244 . S
C32 N31 1.244 . S
H33 C36 0.929 . S
H34 C39 0.929 . S
H35 C41 0.930 . S
C36 H33 0.929 . S
C36 C37 1.398 . S
C36 C38 1.396 . S
C37 C36 1.398 . S
C37 C41 1.407 . S
C38 C36 1.396 . S
C38 C39 1.394 . S
C39 H34 0.929 . S
C39 C38 1.394 . S
C39 C40 1.382 . S
C40 C39 1.382 . S
C40 C41 1.392 . S
C40 N42 1.420 . S
C41 H35 0.930 . S
C41 C37 1.407 . S
C41 C40 1.392 . S
N42 C40 1.420 . S
N42 C43 1.244 . S
C43 N42 1.244 . S
H44 C47 0.929 . S
H45 C50 0.929 . S
H46 C52 0.930 . S
C47 H44 0.929 . S
C47 C48 1.398 . S
C47 C49 1.396 . S
C48 C47 1.398 . S
C48 C52 1.407 . S
C49 C47 1.396 . S
C49 C50 1.394 . S
C50 H45 0.929 . S
C50 C49 1.394 . S
C50 C51 1.382 . S
C51 C50 1.382 . S
C51 C52 1.392 . S
C51 N53 1.420 . S
C52 H46 0.930 . S
C52 C48 1.407 . S
C52 C51 1.392 . S
N53 C51 1.420 . S
N53 C54 1.244 . S
C54 N53 1.244 . S
H55 C58 0.929 . S
H56 C61 0.929 . S
H57 C63 0.930 . S
C58 H55 0.929 . S
C58 C59 1.398 . S
C58 C60 1.396 . S
C59 C58 1.398 . S
C59 C63 1.407 . S
C60 C58 1.396 . S
C60 C61 1.394 . S
C61 H56 0.929 . S
C61 C60 1.394 . S
C61 C62 1.382 . S
C62 C61 1.382 . S
C62 C63 1.392 . S
C62 N64 1.420 . S
C63 H57 0.930 . S
C63 C59 1.407 . S
C63 C62 1.392 . S
N64 C62 1.420 . S
N64 C65 1.244 . S
C65 N64 1.244 . S
H66 C69 0.929 . S
H67 C72 0.929 . S
H68 C74 0.930 . S
C69 H66 0.929 . S
C69 C70 1.398 . S
C69 C71 1.396 . S
C70 C69 1.398 . S
C70 C74 1.407 . S
C71 C69 1.396 . S
C71 C72 1.394 . S
C72 H67 0.929 . S
C72 C71 1.394 . S
C72 C73 1.382 . S
C73 C72 1.382 . S
C73 C74 1.392 . S
C73 N75 1.420 . S
C74 H68 0.930 . S
C74 C70 1.407 . S
C74 C73 1.392 . S
N75 C73 1.420 . S
N75 C76 1.244 . S
C76 N75 1.244 . S
H77 C80 0.929 . S
H78 C83 0.929 . S
H79 C85 0.930 . S
C80 H77 0.929 . S
C80 C81 1.398 . S
C80 C82 1.396 . S
C81 C80 1.398 . S
C81 C85 1.407 . S
C82 C80 1.396 . S
C82 C83 1.394 . S
C83 H78 0.929 . S
C83 C82 1.394 . S
C83 C84 1.382 . S
C84 C83 1.382 . S
C84 C85 1.392 . S
C84 N86 1.420 . S
C85 H79 0.930 . S
C85 C81 1.407 . S
C85 C84 1.392 . S
N86 C84 1.420 . S
N86 C87 1.244 . S
C87 N86 1.244 . S
H88 C91 0.929 . S
H89 C94 0.929 . S
H90 C96 0.930 . S
C91 H88 0.929 . S
C91 C92 1.398 . S
C91 C93 1.396 . S
C92 C91 1.398 . S
C92 C96 1.407 . S
C93 C91 1.396 . S
C93 C94 1.394 . S
C94 H89 0.929 . S
C94 C93 1.394 . S
C94 C95 1.382 . S
C95 C94 1.382 . S
C95 C96 1.392 . S
C95 N97 1.420 . S
C96 H90 0.930 . S
C96 C92 1.407 . S
C96 C95 1.392 . S
N97 C95 1.420 . S
N97 C98 1.244 . S
C98 N97 1.244 . S
H99 C102 0.929 . S
H100 C105 0.929 . S
H101 C107 0.930 . S
C102 H99 0.929 . S
C102 C103 1.398 . S
C102 C104 1.396 . S
C103 C102 1.398 . S
C103 C107 1.407 1_556 S
C104 C102 1.396 . S
C104 C105 1.394 . S
C105 H100 0.929 . S
C105 C104 1.394 . S
C105 C106 1.382 . S
C106 C105 1.382 . S
C106 C107 1.392 1_556 S
C106 N108 1.420 1_556 S
C107 H101 0.930 . S
C107 C103 1.407 1_554 S
C107 C106 1.392 1_554 S
N108 C106 1.420 1_554 S
N108 C109 1.244 1_554 S
C109 N108 1.244 1_556 S
H110 C113 0.929 . S
H111 C116 0.929 . S
H112 C118 0.930 . S
C113 H110 0.929 . S
C113 C114 1.398 . S
C113 C115 1.396 . S
C114 C113 1.398 . S
C114 C118 1.407 1_556 S
C115 C113 1.396 . S
C115 C116 1.394 . S
C116 H111 0.929 . S
C116 C115 1.394 . S
C116 C117 1.382 . S
C117 C116 1.382 . S
C117 C118 1.392 1_556 S
C117 N119 1.420 1_556 S
C118 H112 0.930 . S
C118 C114 1.407 1_554 S
C118 C117 1.392 1_554 S
N119 C117 1.420 1_554 S
N119 C120 1.244 . S
C120 N119 1.244 . S
H121 C124 0.929 . S
H122 C127 0.929 . S
H123 C129 0.929 . S
C124 H121 0.929 . S
C124 C125 1.398 . S
C124 C126 1.396 . S
C125 C124 1.398 . S
C125 C129 1.408 1_556 S
C126 C124 1.396 . S
C126 C127 1.394 . S
C127 H122 0.929 . S
C127 C126 1.394 . S
C127 C128 1.382 . S
C128 C127 1.382 . S
C128 C129 1.392 1_556 S
C128 N130 1.420 1_556 S
C129 H123 0.929 . S
C129 C125 1.408 1_554 S
C129 C128 1.392 1_554 S
N130 C128 1.420 1_554 S
N130 C131 1.244 1_554 S
C131 N130 1.244 1_556 S
H132 C135 0.929 . S
H133 C138 0.929 . S
H134 C140 0.951 . S
C135 H132 0.929 . S
C135 C136 1.398 . S
C135 C137 1.396 . S
C136 C135 1.398 . S
C136 C140 1.407 . S
C137 C135 1.396 . S
C137 C138 1.394 . S
C138 H133 0.929 . S
C138 C137 1.394 . S
C138 C139 1.382 . S
C139 C138 1.382 . S
C139 C140 1.392 . S
C139 N141 1.420 . S
C140 H134 0.951 . S
C140 C136 1.407 . S
C140 C139 1.392 . S
N141 C139 1.420 . S
N141 C142 1.244 . S
C142 N141 1.244 . S
H143 C146 0.929 . S
H144 C149 0.929 . S
H145 C151 0.930 1_556 S
C146 H143 0.929 . S
C146 C147 1.398 . S
C146 C148 1.396 . S
C147 C146 1.398 . S
C147 C151 1.407 . S
C148 C146 1.396 . S
C148 C149 1.394 . S
C149 H144 0.929 . S
C149 C148 1.394 . S
C149 C150 1.382 . S
C150 C149 1.382 . S
C150 C151 1.392 . S
C150 N152 1.420 . S
C151 H145 0.930 1_554 S
C151 C147 1.407 . S
C151 C150 1.392 . S
N152 C150 1.420 . S
N152 C153 1.244 . S
C153 N152 1.244 . S
H154 C157 0.929 . S
H155 C160 0.929 . S
H156 C162 0.930 . S
C157 H154 0.929 . S
C157 C158 1.398 . S
C157 C159 1.396 . S
C158 C157 1.398 . S
C158 C162 1.407 . S
C159 C157 1.396 . S
C159 C160 1.394 . S
C160 H155 0.929 . S
C160 C159 1.394 . S
C160 C161 1.382 . S
C161 C160 1.382 . S
C161 C162 1.392 . S
C161 N163 1.420 . S
C162 H156 0.930 . S
C162 C158 1.407 . S
C162 C161 1.392 . S
N163 C161 1.420 . S
N163 C164 1.244 . S
C164 N163 1.244 . S
H165 C168 0.929 . S
H166 C171 0.929 . S
H167 C173 0.930 . S
C168 H165 0.929 . S
C168 C169 1.398 . S
C168 C170 1.396 . S
C169 C168 1.398 . S
C169 C173 1.407 . S
C170 C168 1.396 . S
C170 C171 1.394 . S
C171 H166 0.929 . S
C171 C170 1.394 . S
C171 C172 1.382 . S
C172 C171 1.382 . S
C172 C173 1.392 . S
C172 N174 1.420 . S
C173 H167 0.930 . S
C173 C169 1.407 . S
C173 C172 1.392 . S
N174 C172 1.420 . S
N174 C175 1.244 . S
C175 N174 1.244 . S
H176 C179 0.929 . S
H177 C182 0.929 . S
H178 C184 0.930 . S
C179 H176 0.929 . S
C179 C180 1.398 . S
C179 C181 1.396 . S
C180 C179 1.398 . S
C180 C184 1.407 . S
C181 C179 1.396 . S
C181 C182 1.394 . S
C182 H177 0.929 . S
C182 C181 1.394 . S
C182 C183 1.382 . S
C183 C182 1.382 . S
C183 C184 1.392 . S
C183 N185 1.420 . S
C184 H178 0.930 . S
C184 C180 1.407 . S
C184 C183 1.392 . S
N185 C183 1.420 . S
N185 C186 1.244 . S
C186 N185 1.244 . S
H187 C190 0.929 . S
H188 C193 0.929 . S
H189 C195 0.930 . S
C190 H187 0.929 . S
C190 C191 1.398 . S
C190 C192 1.396 . S
C191 C190 1.398 . S
C191 C195 1.407 . S
C192 C190 1.396 . S
C192 C193 1.394 . S
C193 H188 0.929 . S
C193 C192 1.394 . S
C193 C194 1.382 . S
C194 C193 1.382 . S
C194 C195 1.392 . S
C194 N196 1.420 . S
C195 H189 0.930 . S
C195 C191 1.407 . S
C195 C194 1.392 . S
N196 C194 1.420 . S
N196 C197 1.244 . S
C197 N196 1.244 . S
O198 Mg199 1.990 . S
O198 C212 1.253 . S
Mg199 O198 1.990 . S
Mg199 O202 2.180 1_546 S
Mg199 O203 2.117 1_545 S
Mg199 O217 2.030 . S
O200 Mg201 2.072 1_556 S
O200 C212 1.260 . S
Mg201 O200 2.072 1_554 S
Mg201 O202 2.099 1_545 S
Mg201 O204 2.079 . S
Mg201 O205 2.072 1_545 S
Mg201 O207 2.099 . S
Mg201 O218 2.079 . S
O202 Mg199 2.180 1_564 S
O202 Mg201 2.099 1_565 S
O202 C213 1.274 1_554 S
O203 Mg199 2.117 1_565 S
O203 C213 1.265 . S
O204 Mg201 2.079 . S
O204 C214 1.264 1_545 S
O205 Mg201 2.072 1_565 S
O205 C215 1.260 . S
Mg206 O207 2.180 . S
Mg206 O208 2.030 1_545 S
Mg206 O209 1.990 1_545 S
Mg206 O210 2.117 . S
O207 Mg201 2.099 . S
O207 Mg206 2.180 . S
O207 C216 1.279 . S
O208 Mg206 2.030 1_565 S
O208 C214 1.248 . S
O209 Mg206 1.990 1_565 S
O209 C215 1.253 . S
O210 Mg206 2.117 . S
O210 C216 1.250 . S
C211 O217 1.248 1_554 S
C211 O218 1.264 . S
C212 O198 1.253 . S
C212 O200 1.260 . S
C213 O202 1.274 1_556 S
C213 O203 1.265 . S
C214 O204 1.264 1_565 S
C214 O208 1.248 . S
C215 O205 1.260 . S
C215 O209 1.253 . S
C216 O207 1.279 . S
C216 O210 1.250 . S
O217 Mg199 2.030 . S
O217 C211 1.248 1_556 S
O218 Mg201 2.079 . S
O218 C211 1.264 . S
O219 Mg220 1.990 . S
O219 C233 1.253 1_455 S
Mg220 O219 1.990 . S
Mg220 O223 2.180 1_556 S
Mg220 O224 2.117 . S
Mg220 O238 2.030 1_455 S
O221 Mg222 2.072 1_656 S
O221 C233 1.260 . S
Mg222 O221 2.072 1_454 S
Mg222 O223 2.099 . S
Mg222 O225 2.079 . S
Mg222 O226 2.072 . S
Mg222 O228 2.099 1_455 S
Mg222 O239 2.079 1_455 S
O223 Mg220 2.180 1_554 S
O223 Mg222 2.099 . S
O223 C234 1.279 . S
O224 Mg220 2.117 . S
O224 C234 1.250 1_556 S
O225 Mg222 2.079 . S
O225 C235 1.264 . S
O226 Mg222 2.072 . S
O226 C236 1.260 . S
Mg227 O228 2.180 1_455 S
Mg227 O229 2.030 . S
Mg227 O230 1.990 . S
Mg227 O231 2.117 1_455 S
O228 Mg222 2.099 1_655 S
O228 Mg227 2.180 1_655 S
O228 C237 1.279 . S
O229 Mg227 2.030 . S
O229 C235 1.248 . S
O230 Mg227 1.990 . S
O230 C236 1.253 . S
O231 Mg227 2.117 1_655 S
O231 C237 1.250 . S
C232 O238 1.248 1_554 S
C232 O239 1.264 . S
C233 O219 1.253 1_655 S
C233 O221 1.260 . S
C234 O223 1.279 . S
C234 O224 1.250 1_554 S
C235 O225 1.264 . S
C235 O229 1.248 . S
C236 O226 1.260 . S
C236 O230 1.253 . S
C237 O228 1.279 . S
C237 O231 1.250 . S
O238 Mg220 2.030 1_655 S
O238 C232 1.248 1_556 S
O239 Mg222 2.079 1_655 S
O239 C232 1.264 . S
O240 Mg241 1.990 . S
O240 C254 1.253 . S
Mg241 O240 1.990 . S
Mg241 O244 2.180 . S
Mg241 O245 2.117 . S
Mg241 O259 2.030 . S
O242 Mg243 2.072 . S
O242 C254 1.260 . S
Mg243 O242 2.072 . S
Mg243 O244 2.099 . S
Mg243 O246 2.079 1_554 S
Mg243 O247 2.072 . S
Mg243 O249 2.099 1_554 S
Mg243 O260 2.081 . S
O244 Mg241 2.180 . S
O244 Mg243 2.099 . S
O244 C255 1.279 . S
O245 Mg241 2.117 . S
O245 C255 1.250 . S
O246 Mg243 2.079 1_556 S
O246 C256 1.264 . S
O247 Mg243 2.072 . S
O247 C257 1.260 . S
Mg248 O249 2.180 . S
Mg248 O250 2.030 . S
Mg248 O251 1.990 . S
Mg248 O252 2.151 . S
O249 Mg243 2.099 1_556 S
O249 Mg248 2.180 . S
O249 C258 1.279 1_556 S
O250 Mg248 2.030 . S
O250 C256 1.248 . S
O251 Mg248 1.990 . S
O251 C257 1.253 1_556 S
O252 Mg248 2.151 . S
O252 C258 1.238 1_556 S
C253 O259 1.248 . S
C253 O260 1.275 . S
C254 O240 1.253 . S
C254 O242 1.260 . S
C255 O244 1.279 . S
C255 O245 1.250 . S
C256 O246 1.264 . S
C256 O250 1.248 . S
C257 O247 1.260 . S
C257 O251 1.253 1_554 S
C258 O249 1.279 1_554 S
C258 O252 1.238 1_554 S
O259 Mg241 2.030 . S
O259 C253 1.248 . S
O260 Mg243 2.081 . S
O260 C253 1.275 . S
O261 Mg262 1.990 . S
O261 C275 1.253 . S
Mg262 O261 1.990 . S
Mg262 O265 2.180 . S
Mg262 O266 2.117 . S
Mg262 O280 2.030 . S
O263 Mg264 2.072 . S
O263 C275 1.260 . S
Mg264 O263 2.072 . S
Mg264 O265 2.099 . S
Mg264 O267 2.079 . S
Mg264 O268 2.072 . S
Mg264 O270 2.099 . S
Mg264 O281 2.079 . S
O265 Mg262 2.180 . S
O265 Mg264 2.099 . S
O265 C276 1.279 . S
O266 Mg262 2.117 . S
O266 C276 1.250 . S
O267 Mg264 2.079 . S
O267 C277 1.264 . S
O268 Mg264 2.072 . S
O268 C278 1.260 . S
Mg269 O270 2.180 . S
Mg269 O271 2.030 . S
Mg269 O272 1.990 . S
Mg269 O273 2.117 . S
O270 Mg264 2.099 . S
O270 Mg269 2.180 . S
O270 C279 1.279 . S
O271 Mg269 2.030 . S
O271 C277 1.248 . S
O272 Mg269 1.990 . S
O272 C278 1.253 . S
O273 Mg269 2.117 . S
O273 C279 1.250 . S
C274 O280 1.248 . S
C274 O281 1.264 . S
C275 O261 1.253 . S
C275 O263 1.260 . S
C276 O265 1.279 . S
C276 O266 1.250 . S
C277 O267 1.264 . S
C277 O271 1.248 . S
C278 O268 1.260 . S
C278 O272 1.253 . S
C279 O270 1.279 . S
C279 O273 1.250 . S
O280 Mg262 2.030 . S
O280 C274 1.248 . S
O281 Mg264 2.079 . S
O281 C274 1.264 . S
O282 Mg283 1.990 . S
O282 C296 1.253 . S
Mg283 O282 1.990 . S
Mg283 O286 2.180 . S
Mg283 O287 2.117 . S
Mg283 O301 2.030 . S
O284 Mg285 2.072 . S
O284 C296 1.260 . S
Mg285 O284 2.072 . S
Mg285 O286 2.099 . S
Mg285 O288 2.079 . S
Mg285 O289 2.072 . S
Mg285 O291 2.099 . S
Mg285 O302 2.079 . S
O286 Mg283 2.180 . S
O286 Mg285 2.099 . S
O286 C297 1.279 . S
O287 Mg283 2.117 . S
O287 C297 1.250 . S
O288 Mg285 2.079 . S
O288 C298 1.264 . S
O289 Mg285 2.072 . S
O289 C299 1.260 . S
Mg290 O291 2.180 . S
Mg290 O292 2.030 . S
Mg290 O293 1.990 . S
Mg290 O294 2.117 . S
O291 Mg285 2.099 . S
O291 Mg290 2.180 . S
O291 C300 1.279 . S
O292 Mg290 2.030 . S
O292 C298 1.248 . S
O293 Mg290 1.990 . S
O293 C299 1.253 . S
O294 Mg290 2.117 . S
O294 C300 1.250 . S
C295 O301 1.248 . S
C295 O302 1.264 . S
C296 O282 1.253 . S
C296 O284 1.260 . S
C297 O286 1.279 . S
C297 O287 1.250 . S
C298 O288 1.264 . S
C298 O292 1.248 . S
C299 O289 1.260 . S
C299 O293 1.253 . S
C300 O291 1.279 . S
C300 O294 1.250 . S
O301 Mg283 2.030 . S
O301 C295 1.248 . S
O302 Mg285 2.079 . S
O302 C295 1.264 . S
O303 Mg304 1.990 . S
O303 C317 1.253 . S
Mg304 O303 1.990 . S
Mg304 O307 2.180 . S
Mg304 O308 2.117 . S
Mg304 O322 2.030 . S
O305 Mg306 2.072 . S
O305 C317 1.260 . S
Mg306 O305 2.072 . S
Mg306 O307 2.099 . S
Mg306 O309 2.079 . S
Mg306 O310 2.072 . S
Mg306 O312 2.099 . S
Mg306 O323 2.079 . S
O307 Mg304 2.180 . S
O307 Mg306 2.099 . S
O307 C318 1.279 . S
O308 Mg304 2.117 . S
O308 C318 1.250 . S
O309 Mg306 2.079 . S
O309 C319 1.264 . S
O310 Mg306 2.072 . S
O310 C320 1.260 . S
Mg311 O312 2.180 . S
Mg311 O313 2.030 . S
Mg311 O314 1.990 . S
Mg311 O315 2.117 . S
O312 Mg306 2.099 . S
O312 Mg311 2.180 . S
O312 C321 1.279 . S
O313 Mg311 2.030 . S
O313 C319 1.248 . S
O314 Mg311 1.990 . S
O314 C320 1.253 . S
O315 Mg311 2.117 . S
O315 C321 1.250 . S
C316 O322 1.248 . S
C316 O323 1.264 . S
C317 O303 1.253 . S
C317 O305 1.260 . S
C318 O307 1.279 . S
C318 O308 1.250 . S
C319 O309 1.264 . S
C319 O313 1.248 . S
C320 O310 1.260 . S
C320 O314 1.253 . S
C321 O312 1.279 . S
C321 O315 1.250 . S
O322 Mg304 2.030 . S
O322 C316 1.248 . S
O323 Mg306 2.079 . S
O323 C316 1.264 . S
O324 Mg325 1.990 . S
O324 C338 1.253 . S
Mg325 O324 1.990 . S
Mg325 O328 2.180 . S
Mg325 O329 2.117 . S
Mg325 O343 2.030 . S
O326 Mg327 2.072 . S
O326 C338 1.260 . S
Mg327 O326 2.072 . S
Mg327 O328 2.099 . S
Mg327 O330 2.079 . S
Mg327 O331 2.072 . S
Mg327 O333 2.099 . S
Mg327 O344 2.079 . S
O328 Mg325 2.180 . S
O328 Mg327 2.099 . S
O328 C339 1.279 . S
O329 Mg325 2.117 . S
O329 C339 1.250 . S
O330 Mg327 2.079 . S
O330 C340 1.264 . S
O331 Mg327 2.072 . S
O331 C341 1.260 . S
Mg332 O333 2.180 . S
Mg332 O334 2.030 . S
Mg332 O335 1.990 . S
Mg332 O336 2.117 . S
O333 Mg327 2.099 . S
O333 Mg332 2.180 . S
O333 C342 1.279 . S
O334 Mg332 2.030 . S
O334 C340 1.248 . S
O335 Mg332 1.990 . S
O335 C341 1.253 . S
O336 Mg332 2.117 . S
O336 C342 1.250 . S
C337 O343 1.248 . S
C337 O344 1.264 . S
C338 O324 1.253 . S
C338 O326 1.260 . S
C339 O328 1.279 . S
C339 O329 1.250 . S
C340 O330 1.264 . S
C340 O334 1.248 . S
C341 O331 1.260 . S
C341 O335 1.253 . S
C342 O333 1.279 . S
C342 O336 1.250 . S
O343 Mg325 2.030 . S
O343 C337 1.248 . S
O344 Mg327 2.079 . S
O344 C337 1.264 . S
O345 Mg346 1.990 . S
O345 C359 1.253 . S
Mg346 O345 1.990 . S
Mg346 O349 2.180 . S
Mg346 O350 2.117 . S
Mg346 O364 2.030 . S
O347 Mg348 2.072 . S
O347 C359 1.260 . S
Mg348 O347 2.072 . S
Mg348 O349 2.099 . S
Mg348 O351 2.079 . S
Mg348 O352 2.072 . S
Mg348 O354 2.099 . S
Mg348 O365 2.079 . S
O349 Mg346 2.180 . S
O349 Mg348 2.099 . S
O349 C360 1.279 . S
O350 Mg346 2.117 . S
O350 C360 1.250 . S
O351 Mg348 2.079 . S
O351 C361 1.264 . S
O352 Mg348 2.072 . S
O352 C362 1.260 . S
Mg353 O354 2.180 . S
Mg353 O355 2.030 . S
Mg353 O356 1.990 . S
Mg353 O357 2.117 . S
O354 Mg348 2.099 . S
O354 Mg353 2.180 . S
O354 C363 1.279 . S
O355 Mg353 2.030 . S
O355 C361 1.248 . S
O356 Mg353 1.990 . S
O356 C362 1.253 . S
O357 Mg353 2.117 . S
O357 C363 1.250 . S
C358 O364 1.248 . S
C358 O365 1.264 . S
C359 O345 1.253 . S
C359 O347 1.260 . S
C360 O349 1.279 . S
C360 O350 1.250 . S
C361 O351 1.264 . S
C361 O355 1.248 . S
C362 O352 1.260 . S
C362 O356 1.253 . S
C363 O354 1.279 . S
C363 O357 1.250 . S
O364 Mg346 2.030 . S
O364 C358 1.248 . S
O365 Mg348 2.079 . S
O365 C358 1.264 . S
O366 Mg367 1.990 . S
O366 C380 1.253 . S
Mg367 O366 1.990 . S
Mg367 O370 2.180 . S
Mg367 O371 2.117 . S
Mg367 O385 2.030 . S
O368 Mg369 2.072 . S
O368 C380 1.260 . S
Mg369 O368 2.072 . S
Mg369 O370 2.099 . S
Mg369 O372 2.079 . S
Mg369 O373 2.072 . S
Mg369 O375 2.099 . S
Mg369 O386 2.079 . S
O370 Mg367 2.180 . S
O370 Mg369 2.099 . S
O370 C381 1.279 . S
O371 Mg367 2.117 . S
O371 C381 1.250 . S
O372 Mg369 2.079 . S
O372 C382 1.264 . S
O373 Mg369 2.072 . S
O373 C383 1.260 . S
Mg374 O375 2.180 . S
Mg374 O376 2.030 . S
Mg374 O377 1.990 . S
Mg374 O378 2.117 . S
O375 Mg369 2.099 . S
O375 Mg374 2.180 . S
O375 C384 1.279 . S
O376 Mg374 2.030 . S
O376 C382 1.248 . S
O377 Mg374 1.990 . S
O377 C383 1.253 . S
O378 Mg374 2.117 . S
O378 C384 1.250 . S
C379 O385 1.248 . S
C379 O386 1.264 . S
C380 O366 1.253 . S
C380 O368 1.260 . S
C381 O370 1.279 . S
C381 O371 1.250 . S
C382 O372 1.264 . S
C382 O376 1.248 . S
C383 O373 1.260 . S
C383 O377 1.253 . S
C384 O375 1.279 . S
C384 O378 1.250 . S
O385 Mg367 2.030 . S
O385 C379 1.248 . S
O386 Mg369 2.079 . S
O386 C379 1.264 . S
C387 C388 1.349 . S
C387 C389 1.327 . S
C387 H412 0.950 . S
C388 C387 1.349 . S
C388 C404 1.349 . S
C389 C387 1.327 . S
C389 C408 1.429 . S
C389 H413 0.950 . S
C390 C407 1.574 . S
C390 C409 1.368 1_556 S
C390 H414 0.949 . S
H391 C395 0.949 . S
C392 C393 1.349 1_556 S
C392 C394 1.327 . S
C392 H415 0.950 . S
C393 C392 1.349 1_554 S
C393 C405 1.349 . S
C394 C392 1.327 . S
C394 C410 1.429 1_556 S
C394 H416 0.950 . S
C395 H391 0.949 . S
C395 C403 1.574 . S
C395 C411 1.368 . S
H396 C404 0.950 1_556 S
H397 C402 0.950 1_556 S
H398 C403 0.949 . S
H399 C405 0.950 . S
H400 C406 0.950 . S
H401 C407 0.949 . S
C402 H397 0.950 1_554 S
C402 C404 1.327 . S
C402 C408 1.429 . S
C403 C395 1.574 . S
C403 H398 0.949 . S
C403 C409 1.368 . S
C404 C388 1.349 . S
C404 H396 0.950 1_554 S
C404 C402 1.327 . S
C405 C393 1.349 . S
C405 H399 0.950 . S
C405 C406 1.327 . S
C406 H400 0.950 . S
C406 C405 1.327 . S
C406 C410 1.429 . S
C407 C390 1.574 . S
C407 H401 0.949 . S
C407 C411 1.368 1_556 S
C408 C389 1.429 . S
C408 C402 1.429 . S
C408 C409 1.523 . S
C409 C390 1.368 1_554 S
C409 C403 1.368 . S
C409 C408 1.523 . S
C410 C394 1.429 1_554 S
C410 C406 1.429 . S
C410 C411 1.523 . S
C411 C395 1.368 . S
C411 C407 1.368 1_554 S
C411 C410 1.523 . S
H412 C387 0.950 . S
H413 C389 0.950 . S
H414 C390 0.949 . S
H415 C392 0.950 . S
H416 C394 0.950 . S
C417 C418 1.349 . S
C417 C419 1.327 . S
C417 H442 0.950 . S
C418 C417 1.349 . S
C418 C434 1.349 . S
C419 C417 1.327 . S
C419 C438 1.429 . S
C419 H443 0.950 . S
C420 C437 1.574 . S
C420 C439 1.368 . S
C420 H444 0.949 . S
H421 C425 0.949 . S
C422 C423 1.349 . S
C422 C424 1.327 . S
C422 H445 0.950 . S
C423 C422 1.349 . S
C423 C435 1.349 . S
C424 C422 1.327 . S
C424 C440 1.429 . S
C424 H446 0.950 . S
C425 H421 0.949 . S
C425 C433 1.574 . S
C425 C441 1.368 . S
H426 C434 0.950 . S
H427 C432 0.950 . S
H428 C433 0.949 . S
H429 C435 0.950 . S
H430 C436 0.950 . S
H431 C437 0.949 . S
C432 H427 0.950 . S
C432 C434 1.327 . S
C432 C438 1.429 . S
C433 C425 1.574 . S
C433 H428 0.949 . S
C433 C439 1.368 . S
C434 C418 1.349 . S
C434 H426 0.950 . S
C434 C432 1.327 . S
C435 C423 1.349 . S
C435 H429 0.950 . S
C435 C436 1.327 . S
C436 H430 0.950 . S
C436 C435 1.327 . S
C436 C440 1.429 . S
C437 C420 1.574 . S
C437 H431 0.949 . S
C437 C441 1.368 . S
C438 C419 1.429 . S
C438 C432 1.429 . S
C438 C439 1.523 . S
C439 C420 1.368 . S
C439 C433 1.368 . S
C439 C438 1.523 . S
C440 C424 1.429 . S
C440 C436 1.429 . S
C440 C441 1.523 . S
C441 C425 1.368 . S
C441 C437 1.368 . S
C441 C440 1.523 . S
H442 C417 0.950 . S
H443 C419 0.950 . S
H444 C420 0.949 . S
H445 C422 0.950 . S
H446 C424 0.950 . S
C447 C448 1.349 . S
C447 C449 1.327 . S
C447 H472 0.950 . S
C448 C447 1.349 . S
C448 C464 1.349 . S
C449 C447 1.327 . S
C449 C468 1.429 . S
C449 H473 0.950 . S
C450 C467 1.574 . S
C450 C469 1.368 . S
C450 H474 0.949 1_554 S
H451 C455 0.949 . S
C452 C453 1.349 1_556 S
C452 C454 1.327 . S
C452 H475 0.950 . S
C453 C452 1.349 1_554 S
C453 C465 1.349 . S
C454 C452 1.327 . S
C454 C470 1.429 1_556 S
C454 H476 0.950 . S
C455 H451 0.949 . S
C455 C463 1.574 . S
C455 C471 1.368 . S
H456 C464 0.950 1_556 S
H457 C462 0.950 1_556 S
H458 C463 0.949 . S
H459 C465 0.950 . S
H460 C466 0.950 . S
H461 C467 0.939 1_556 S
C462 H457 0.950 1_554 S
C462 C464 1.327 . S
C462 C468 1.429 . S
C463 C455 1.574 . S
C463 H458 0.949 . S
C463 C469 1.368 . S
C464 C448 1.349 . S
C464 H456 0.950 1_554 S
C464 C462 1.327 . S
C465 C453 1.349 . S
C465 H459 0.950 . S
C465 C466 1.327 . S
C466 H460 0.950 . S
C466 C465 1.327 . S
C466 C470 1.429 . S
C467 C450 1.574 . S
C467 H461 0.939 1_554 S
C467 C471 1.379 . S
C468 C449 1.429 . S
C468 C462 1.429 . S
C468 C469 1.523 . S
C469 C450 1.368 . S
C469 C463 1.368 . S
C469 C468 1.523 . S
C470 C454 1.429 1_554 S
C470 C466 1.429 . S
C470 C471 1.523 . S
C471 C455 1.368 . S
C471 C467 1.379 . S
C471 C470 1.523 . S
H472 C447 0.950 . S
H473 C449 0.950 . S
H474 C450 0.949 1_556 S
H475 C452 0.950 . S
H476 C454 0.950 . S
C477 C478 1.349 . S
C477 C479 1.327 . S
C477 H502 0.950 . S
C478 C477 1.349 . S
C478 C494 1.349 1_556 S
C479 C477 1.327 . S
C479 C498 1.429 . S
C479 H503 0.950 . S
C480 C497 1.574 . S
C480 C499 1.368 1_554 S
C480 H504 0.949 . S
H481 C485 0.949 . S
C482 C483 1.349 . S
C482 C484 1.327 . S
C482 H505 0.950 . S
C483 C482 1.349 . S
C483 C495 1.349 1_554 S
C484 C482 1.327 . S
C484 C500 1.429 . S
C484 H506 0.950 . S
C485 H481 0.949 . S
C485 C493 1.574 . S
C485 C501 1.341 1_556 S
H486 C494 0.950 . S
H487 C492 0.950 . S
H488 C493 0.949 . S
H489 C495 0.950 . S
H490 C496 0.950 . S
H491 C497 0.949 . S
C492 H487 0.950 . S
C492 C494 1.327 . S
C492 C498 1.429 1_554 S
C493 C485 1.574 . S
C493 H488 0.949 . S
C493 C499 1.368 . S
C494 C478 1.349 1_554 S
C494 H486 0.950 . S
C494 C492 1.327 . S
C495 C483 1.349 1_556 S
C495 H489 0.950 . S
C495 C496 1.327 . S
C496 H490 0.950 . S
C496 C495 1.327 . S
C496 C500 1.429 1_556 S
C497 C480 1.574 . S
C497 H491 0.949 . S
C497 C501 1.395 . S
C498 C479 1.429 . S
C498 C492 1.429 1_556 S
C498 C499 1.523 . S
C499 C480 1.368 1_556 S
C499 C493 1.368 . S
C499 C498 1.523 . S
C500 C484 1.429 . S
C500 C496 1.429 1_554 S
C500 C501 1.525 . S
C501 C485 1.341 1_554 S
C501 C497 1.395 . S
C501 C500 1.525 . S
H502 C477 0.950 . S
H503 C479 0.950 . S
H504 C480 0.949 . S
H505 C482 0.950 . S
H506 C484 0.950 . S
C507 C508 1.349 . S
C507 C509 1.327 . S
C507 H532 0.950 . S
C508 C507 1.349 . S
C508 C524 1.349 1_556 S
C509 C507 1.327 . S
C509 C528 1.429 . S
C509 H533 0.950 . S
C510 C527 1.574 . S
C510 C529 1.368 1_554 S
C510 H534 0.949 . S
H511 C515 0.949 . S
C512 C513 1.349 . S
C512 C514 1.327 . S
C512 H535 0.950 . S
C513 C512 1.349 . S
C513 C525 1.349 1_554 S
C514 C512 1.327 . S
C514 C530 1.429 . S
C514 H536 0.950 . S
C515 H511 0.949 . S
C515 C523 1.574 . S
C515 C531 1.349 1_556 S
H516 C524 0.950 . S
H517 C522 0.950 . S
H518 C523 0.949 . S
H519 C525 0.950 . S
H520 C526 0.950 . S
H521 C527 0.949 . S
C522 H517 0.950 . S
C522 C524 1.327 . S
C522 C528 1.429 1_554 S
C523 C515 1.574 . S
C523 H518 0.949 . S
C523 C529 1.368 . S
C524 C508 1.349 1_554 S
C524 H516 0.950 . S
C524 C522 1.327 . S
C525 C513 1.349 1_556 S
C525 H519 0.950 . S
C525 C526 1.327 . S
C526 H520 0.950 . S
C526 C525 1.327 . S
C526 C530 1.429 1_556 S
C527 C510 1.574 . S
C527 H521 0.949 . S
C527 C531 1.387 . S
C528 C509 1.429 . S
C528 C522 1.429 1_556 S
C528 C529 1.523 . S
C529 C510 1.368 1_556 S
C529 C523 1.368 . S
C529 C528 1.523 . S
C530 C514 1.429 . S
C530 C526 1.429 1_554 S
C530 C531 1.527 . S
C531 C515 1.349 1_554 S
C531 C527 1.387 . S
C531 C530 1.527 . S
H532 C507 0.950 . S
H533 C509 0.950 . S
H534 C510 0.949 . S
H535 C512 0.950 . S
H536 C514 0.950 . S
C537 C538 1.377 . S
C537 C539 1.327 . S
C537 H562 0.950 . S
C538 C537 1.377 . S
C538 C554 1.319 1_556 S
C539 C537 1.327 . S
C539 C558 1.388 1_556 S
C539 H563 0.950 . S
C540 C557 1.574 . S
C540 C559 1.368 . S
C540 H564 0.949 . S
H541 C545 0.949 . S
C542 C543 1.349 . S
C542 C544 1.327 . S
C542 H565 0.950 . S
C543 C542 1.349 . S
C543 C555 1.349 1_554 S
C544 C542 1.327 . S
C544 C560 1.429 . S
C544 H566 0.950 . S
C545 H541 0.949 . S
C545 C553 1.574 . S
C545 C561 1.368 1_556 S
H546 C554 0.950 . S
H547 C552 0.950 . S
H548 C553 0.949 . S
H549 C555 0.950 . S
H550 C556 0.950 . S
H551 C557 0.949 . S
C552 H547 0.950 . S
C552 C554 1.327 . S
C552 C558 1.467 . S
C553 C545 1.574 . S
C553 H548 0.949 . S
C553 C559 1.368 1_556 S
C554 C538 1.319 1_554 S
C554 H546 0.950 . S
C554 C552 1.327 . S
C555 C543 1.349 1_556 S
C555 H549 0.950 . S
C555 C556 1.327 . S
C556 H550 0.950 . S
C556 C555 1.327 . S
C556 C560 1.429 1_556 S
C557 C540 1.574 . S
C557 H551 0.949 . S
C557 C561 1.368 . S
C558 C539 1.388 1_554 S
C558 C552 1.467 . S
C558 C559 1.526 . S
C559 C540 1.368 . S
C559 C553 1.368 1_554 S
C559 C558 1.526 . S
C560 C544 1.429 . S
C560 C556 1.429 1_554 S
C560 C561 1.523 . S
C561 C545 1.368 1_554 S
C561 C557 1.368 . S
C561 C560 1.523 . S
H562 C537 0.950 . S
H563 C539 0.950 . S
H564 C540 0.949 . S
H565 C542 0.950 . S
H566 C544 0.950 . S
C567 C568 1.377 . S
C567 C569 1.327 . S
C567 H592 0.950 . S
C568 C567 1.377 . S
C568 C584 1.324 1_554 S
C569 C567 1.327 . S
C569 C588 1.429 . S
C569 H593 0.950 . S
C570 C587 1.574 . S
C570 C589 1.368 1_556 S
C570 H594 0.949 . S
H571 C575 0.949 . S
C572 C573 1.349 1_556 S
C572 C574 1.327 . S
C572 H595 0.950 . S
C573 C572 1.349 1_554 S
C573 C585 1.349 . S
C574 C572 1.327 . S
C574 C590 1.429 1_556 S
C574 H596 0.950 . S
C575 H571 0.949 . S
C575 C583 1.574 . S
C575 C591 1.368 . S
H576 C584 0.950 . S
H577 C582 0.950 . S
H578 C583 0.949 . S
H579 C585 0.950 . S
H580 C586 0.950 . S
H581 C587 0.949 . S
C582 H577 0.950 . S
C582 C584 1.327 . S
C582 C588 1.429 1_556 S
C583 C575 1.574 . S
C583 H578 0.949 . S
C583 C589 1.368 . S
C584 C568 1.324 1_556 S
C584 H576 0.950 . S
C584 C582 1.327 . S
C585 C573 1.349 . S
C585 H579 0.950 . S
C585 C586 1.327 . S
C586 H580 0.950 . S
C586 C585 1.327 . S
C586 C590 1.429 . S
C587 C570 1.574 . S
C587 H581 0.949 . S
C587 C591 1.368 1_556 S
C588 C569 1.429 . S
C588 C582 1.429 1_554 S
C588 C589 1.523 . S
C589 C570 1.368 1_554 S
C589 C583 1.368 . S
C589 C588 1.523 . S
C590 C574 1.429 1_554 S
C590 C586 1.429 . S
C590 C591 1.523 . S
C591 C575 1.368 . S
C591 C587 1.368 1_554 S
C591 C590 1.523 . S
H592 C567 0.950 . S
H593 C569 0.950 . S
H594 C570 0.949 . S
H595 C572 0.950 . S
H596 C574 0.950 . S
C597 C598 1.349 . S
C597 C599 1.327 . S
C597 H622 0.950 . S
C598 C597 1.349 . S
C598 C614 1.349 1_554 S
C599 C597 1.327 . S
C599 C618 1.429 . S
C599 H623 0.950 . S
C600 C617 1.574 . S
C600 C619 1.368 1_556 S
C600 H624 0.949 . S
H601 C605 0.949 . S
C602 C603 1.349 1_556 S
C602 C604 1.327 . S
C602 H625 0.950 . S
C603 C602 1.349 1_554 S
C603 C615 1.349 . S
C604 C602 1.327 . S
C604 C620 1.429 1_556 S
C604 H626 0.950 . S
C605 H601 0.949 . S
C605 C613 1.574 . S
C605 C621 1.368 . S
H606 C614 0.950 . S
H607 C612 0.950 . S
H608 C613 0.949 . S
H609 C615 0.950 . S
H610 C616 0.950 . S
H611 C617 0.949 . S
C612 H607 0.950 . S
C612 C614 1.327 . S
C612 C618 1.429 1_556 S
C613 C605 1.574 . S
C613 H608 0.949 . S
C613 C619 1.368 . S
C614 C598 1.349 1_556 S
C614 H606 0.950 . S
C614 C612 1.327 . S
C615 C603 1.349 . S
C615 H609 0.950 . S
C615 C616 1.327 . S
C616 H610 0.950 . S
C616 C615 1.327 . S
C616 C620 1.429 . S
C617 C600 1.574 . S
C617 H611 0.949 . S
C617 C621 1.368 1_556 S
C618 C599 1.429 . S
C618 C612 1.429 1_554 S
C618 C619 1.523 . S
C619 C600 1.368 1_554 S
C619 C613 1.368 . S
C619 C618 1.523 . S
C620 C604 1.429 1_554 S
C620 C616 1.429 . S
C620 C621 1.523 . S
C621 C605 1.368 . S
C621 C617 1.368 1_554 S
C621 C620 1.523 . S
H622 C597 0.950 . S
H623 C599 0.950 . S
H624 C600 0.949 . S
H625 C602 0.950 . S
H626 C604 0.950 . S
C627 C628 1.349 1_556 S
C627 C629 1.327 . S
C627 H652 0.950 . S
C628 C627 1.349 1_554 S
C628 C644 1.349 . S
C629 C627 1.327 . S
C629 C648 1.429 1_556 S
C629 H653 0.950 . S
C630 C647 1.574 . S
C630 C649 1.368 . S
C630 H654 0.949 . S
H631 C635 0.949 . S
C632 C633 1.349 . S
C632 C634 1.327 . S
C632 H655 0.950 . S
C633 C632 1.349 . S
C633 C645 1.349 1_554 S
C634 C632 1.327 . S
C634 C650 1.429 . S
C634 H656 0.950 . S
C635 H631 0.949 . S
C635 C643 1.574 . S
C635 C651 1.368 1_556 S
H636 C644 0.950 . S
H637 C642 0.950 . S
H638 C643 0.949 . S
H639 C645 0.950 . S
H640 C646 0.950 . S
H641 C647 0.949 . S
C642 H637 0.950 . S
C642 C644 1.327 . S
C642 C648 1.429 . S
C643 C635 1.574 . S
C643 H638 0.949 . S
C643 C649 1.368 1_556 S
C644 C628 1.349 . S
C644 H636 0.950 . S
C644 C642 1.327 . S
C645 C633 1.349 1_556 S
C645 H639 0.950 . S
C645 C646 1.327 . S
C646 H640 0.950 . S
C646 C645 1.327 . S
C646 C650 1.429 1_556 S
C647 C630 1.574 . S
C647 H641 0.949 . S
C647 C651 1.368 . S
C648 C629 1.429 1_554 S
C648 C642 1.429 . S
C648 C649 1.523 . S
C649 C630 1.368 . S
C649 C643 1.368 1_554 S
C649 C648 1.523 . S
C650 C634 1.429 . S
C650 C646 1.429 1_554 S
C650 C651 1.523 . S
C651 C635 1.368 1_554 S
C651 C647 1.368 . S
C651 C650 1.523 . S
H652 C627 0.950 . S
H653 C629 0.950 . S
H654 C630 0.949 . S
H655 C632 0.950 . S
H656 C634 0.950 . S
C657 C658 1.349 . S
C657 C659 1.327 . S
C657 H682 0.950 . S
C658 C657 1.349 . S
C658 C674 1.349 1_554 S
C659 C657 1.327 . S
C659 C678 1.429 . S
C659 H683 0.950 . S
C660 C677 1.574 . S
C660 C679 1.368 1_556 S
C660 H684 0.949 . S
H661 C665 0.949 . S
C662 C663 1.349 1_556 S
C662 C664 1.327 . S
C662 H685 0.950 . S
C663 C662 1.349 1_554 S
C663 C675 1.349 . S
C664 C662 1.327 . S
C664 C680 1.429 1_556 S
C664 H686 0.950 . S
C665 H661 0.949 . S
C665 C673 1.574 . S
C665 C681 1.368 . S
H666 C674 0.950 . S
H667 C672 0.950 . S
H668 C673 0.949 . S
H669 C675 0.950 . S
H670 C676 0.950 . S
H671 C677 0.949 . S
C672 H667 0.950 . S
C672 C674 1.327 . S
C672 C678 1.429 1_556 S
C673 C665 1.574 . S
C673 H668 0.949 . S
C673 C679 1.368 . S
C674 C658 1.349 1_556 S
C674 H666 0.950 . S
C674 C672 1.327 . S
C675 C663 1.349 . S
C675 H669 0.950 . S
C675 C676 1.327 . S
C676 H670 0.950 . S
C676 C675 1.327 . S
C676 C680 1.429 . S
C677 C660 1.574 . S
C677 H671 0.949 . S
C677 C681 1.368 1_556 S
C678 C659 1.429 . S
C678 C672 1.429 1_554 S
C678 C679 1.523 . S
C679 C660 1.368 1_554 S
C679 C673 1.368 . S
C679 C678 1.523 . S
C680 C664 1.429 1_554 S
C680 C676 1.429 . S
C680 C681 1.523 . S
C681 C665 1.368 . S
C681 C677 1.368 1_554 S
C681 C680 1.523 . S
H682 C657 0.950 . S
H683 C659 0.950 . S
H684 C660 0.949 . S
H685 C662 0.950 . S
H686 C664 0.950 . S
C687 C688 1.349 . S
C687 C689 1.327 . S
C687 H712 0.950 1_554 S
C688 C687 1.349 . S
C688 C704 1.349 . S
C689 C687 1.327 . S
C689 C708 1.429 . S
C689 H713 0.950 1_554 S
C690 C707 1.574 . S
C690 C709 1.368 . S
C690 H714 0.949 . S
H691 C695 0.949 . S
C692 C693 1.349 . S
C692 C694 1.327 . S
C692 H715 0.950 . S
C693 C692 1.349 . S
C693 C705 1.349 1_554 S
C694 C692 1.327 . S
C694 C710 1.429 . S
C694 H716 0.950 . S
C695 H691 0.949 . S
C695 C703 1.574 . S
C695 C711 1.368 1_556 S
H696 C704 0.950 . S
H697 C702 0.950 . S
H698 C703 0.949 . S
H699 C705 0.950 . S
H700 C706 0.950 . S
H701 C707 0.949 . S
C702 H697 0.950 . S
C702 C704 1.327 . S
C702 C708 1.429 . S
C703 C695 1.574 . S
C703 H698 0.949 . S
C703 C709 1.368 1_556 S
C704 C688 1.349 . S
C704 H696 0.950 . S
C704 C702 1.327 . S
C705 C693 1.349 1_556 S
C705 H699 0.950 . S
C705 C706 1.327 . S
C706 H700 0.950 . S
C706 C705 1.327 . S
C706 C710 1.429 1_556 S
C707 C690 1.574 . S
C707 H701 0.949 . S
C707 C711 1.368 . S
C708 C689 1.429 . S
C708 C702 1.429 . S
C708 C709 1.523 . S
C709 C690 1.368 . S
C709 C703 1.368 1_554 S
C709 C708 1.523 . S
C710 C694 1.429 . S
C710 C706 1.429 1_554 S
C710 C711 1.523 . S
C711 C695 1.368 1_554 S
C711 C707 1.368 . S
C711 C710 1.523 . S
H712 C687 0.950 1_556 S
H713 C689 0.950 1_556 S
H714 C690 0.949 . S
H715 C692 0.950 . S
H716 C694 0.950 . S
C717 C718 1.349 . S
C717 C719 1.327 . S
C717 H742 0.950 . S
C718 C717 1.349 . S
C718 C734 1.349 1_554 S
C719 C717 1.327 . S
C719 C738 1.429 . S
C719 H743 0.950 . S
C720 C737 1.574 . S
C720 C739 1.368 1_556 S
C720 H744 0.949 . S
H721 C725 0.949 . S
C722 C723 1.349 1_556 S
C722 C724 1.327 . S
C722 H745 0.950 . S
C723 C722 1.349 1_554 S
C723 C735 1.349 . S
C724 C722 1.327 . S
C724 C740 1.429 1_556 S
C724 H746 0.950 . S
C725 H721 0.949 . S
C725 C733 1.574 . S
C725 C741 1.368 . S
H726 C734 0.950 . S
H727 C732 0.950 . S
H728 C733 0.949 . S
H729 C735 0.950 . S
H730 C736 0.950 . S
H731 C737 0.949 . S
C732 H727 0.950 . S
C732 C734 1.327 . S
C732 C738 1.429 1_556 S
C733 C725 1.574 . S
C733 H728 0.949 . S
C733 C739 1.368 . S
C734 C718 1.349 1_556 S
C734 H726 0.950 . S
C734 C732 1.327 . S
C735 C723 1.349 . S
C735 H729 0.950 . S
C735 C736 1.327 . S
C736 H730 0.950 . S
C736 C735 1.327 . S
C736 C740 1.429 . S
C737 C720 1.574 . S
C737 H731 0.949 . S
C737 C741 1.368 1_556 S
C738 C719 1.429 . S
C738 C732 1.429 1_554 S
C738 C739 1.523 . S
C739 C720 1.368 1_554 S
C739 C733 1.368 . S
C739 C738 1.523 . S
C740 C724 1.429 1_554 S
C740 C736 1.429 . S
C740 C741 1.523 . S
C741 C725 1.368 . S
C741 C737 1.368 1_554 S
C741 C740 1.523 . S
H742 C717 0.950 . S
H743 C719 0.950 . S
H744 C720 0.949 . S
H745 C722 0.950 . S
H746 C724 0.950 . S
C747 C748 1.349 . S
C747 C749 1.327 . S
C747 H772 0.950 . S
C748 C747 1.349 . S
C748 C764 1.349 . S
C749 C747 1.327 . S
C749 C768 1.429 . S
C749 H773 0.950 . S
C750 C767 1.574 . S
C750 C769 1.368 1_455 S
C750 H774 0.949 1_455 S
H751 C755 0.949 . S
C752 C753 1.349 . S
C752 C754 1.327 . S
C752 H775 0.950 . S
C753 C752 1.349 . S
C753 C765 1.349 . S
C754 C752 1.327 . S
C754 C770 1.429 . S
C754 H776 0.950 . S
C755 H751 0.949 . S
C755 C763 1.574 1_455 S
C755 C771 1.368 . S
H756 C764 0.950 . S
H757 C762 0.950 . S
H758 C763 0.949 . S
H759 C765 0.950 . S
H760 C766 0.950 . S
H761 C767 0.949 . S
C762 H757 0.950 . S
C762 C764 1.327 . S
C762 C768 1.429 . S
C763 C755 1.574 1_655 S
C763 H758 0.949 . S
C763 C769 1.368 . S
C764 C748 1.349 . S
C764 H756 0.950 . S
C764 C762 1.327 . S
C765 C753 1.349 . S
C765 H759 0.950 . S
C765 C766 1.327 . S
C766 H760 0.950 . S
C766 C765 1.327 . S
C766 C770 1.429 . S
C767 C750 1.574 . S
C767 H761 0.949 . S
C767 C771 1.368 . S
C768 C749 1.429 . S
C768 C762 1.429 . S
C768 C769 1.523 . S
C769 C750 1.368 1_655 S
C769 C763 1.368 . S
C769 C768 1.523 . S
C770 C754 1.429 . S
C770 C766 1.429 . S
C770 C771 1.523 . S
C771 C755 1.368 . S
C771 C767 1.368 . S
C771 C770 1.523 . S
H772 C747 0.950 . S
H773 C749 0.950 . S
H774 C750 0.949 1_655 S
H775 C752 0.950 . S
H776 C754 0.950 . S
C777 C778 1.349 . S
C777 C779 1.327 . S
C777 H802 0.950 . S
C778 C777 1.349 . S
C778 C794 1.349 . S
C779 C777 1.327 . S
C779 C798 1.429 . S
C779 H803 0.950 . S
C780 C797 1.574 . S
C780 C799 1.368 . S
C780 H804 0.949 . S
H781 C785 0.949 . S
C782 C783 1.349 . S
C782 C784 1.327 . S
C782 H805 0.950 . S
C783 C782 1.349 . S
C783 C795 1.349 . S
C784 C782 1.327 . S
C784 C800 1.429 . S
C784 H806 0.950 . S
C785 H781 0.949 . S
C785 C793 1.574 . S
C785 C801 1.368 . S
H786 C794 0.950 . S
H787 C792 0.950 . S
H788 C793 0.949 . S
H789 C795 0.950 . S
H790 C796 0.950 . S
H791 C797 0.949 . S
C792 H787 0.950 . S
C792 C794 1.327 . S
C792 C798 1.429 . S
C793 C785 1.574 . S
C793 H788 0.949 . S
C793 C799 1.368 . S
C794 C778 1.349 . S
C794 H786 0.950 . S
C794 C792 1.327 . S
C795 C783 1.349 . S
C795 H789 0.950 . S
C795 C796 1.327 . S
C796 H790 0.950 . S
C796 C795 1.327 . S
C796 C800 1.429 . S
C797 C780 1.574 . S
C797 H791 0.949 . S
C797 C801 1.368 . S
C798 C779 1.429 . S
C798 C792 1.429 . S
C798 C799 1.523 . S
C799 C780 1.368 . S
C799 C793 1.368 . S
C799 C798 1.523 . S
C800 C784 1.429 . S
C800 C796 1.429 . S
C800 C801 1.523 . S
C801 C785 1.368 . S
C801 C797 1.368 . S
C801 C800 1.523 . S
H802 C777 0.950 . S
H803 C779 0.950 . S
H804 C780 0.949 . S
H805 C782 0.950 . S
H806 C784 0.950 . S
C807 C808 1.349 . S
C807 C809 1.327 . S
C807 H832 0.950 . S
C808 C807 1.349 . S
C808 C824 1.349 . S
C809 C807 1.327 . S
C809 C828 1.429 . S
C809 H833 0.950 . S
C810 C827 1.574 1_545 S
C810 C829 1.368 . S
C810 H834 0.949 . S
H811 C815 0.949 . S
C812 C813 1.349 . S
C812 C814 1.327 . S
C812 H835 0.950 . S
C813 C812 1.349 . S
C813 C825 1.349 . S
C814 C812 1.327 . S
C814 C830 1.429 . S
C814 H836 0.950 . S
C815 H811 0.949 . S
C815 C823 1.574 1_565 S
C815 C831 1.368 . S
H816 C824 0.950 . S
H817 C822 0.950 . S
H818 C823 0.949 . S
H819 C825 0.950 . S
H820 C826 0.950 . S
H821 C827 0.949 . S
C822 H817 0.950 . S
C822 C824 1.327 . S
C822 C828 1.429 . S
C823 C815 1.574 1_545 S
C823 H818 0.949 . S
C823 C829 1.368 . S
C824 C808 1.349 . S
C824 H816 0.950 . S
C824 C822 1.327 . S
C825 C813 1.349 . S
C825 H819 0.950 . S
C825 C826 1.327 . S
C826 H820 0.950 . S
C826 C825 1.327 . S
C826 C830 1.429 . S
C827 C810 1.574 1_565 S
C827 H821 0.949 . S
C827 C831 1.368 . S
C828 C809 1.429 . S
C828 C822 1.429 . S
C828 C829 1.523 . S
C829 C810 1.368 . S
C829 C823 1.368 . S
C829 C828 1.523 . S
C830 C814 1.429 . S
C830 C826 1.429 . S
C830 C831 1.523 . S
C831 C815 1.368 . S
C831 C827 1.368 . S
C831 C830 1.523 . S
H832 C807 0.950 . S
H833 C809 0.950 . S
H834 C810 0.949 . S
H835 C812 0.950 . S
H836 C814 0.950 . S
C837 C838 1.349 . S
C837 C839 1.327 . S
C837 H862 0.950 . S
C838 C837 1.349 . S
C838 C854 1.349 . S
C839 C837 1.327 . S
C839 C858 1.429 . S
C839 H863 0.950 . S
C840 C857 1.574 . S
C840 C859 1.368 . S
C840 H864 0.949 . S
H841 C845 0.949 . S
C842 C843 1.349 . S
C842 C844 1.327 . S
C842 H865 0.950 . S
C843 C842 1.349 . S
C843 C855 1.349 . S
C844 C842 1.327 . S
C844 C860 1.429 . S
C844 H866 0.950 . S
C845 H841 0.949 . S
C845 C853 1.574 . S
C845 C861 1.368 . S
H846 C854 0.950 . S
H847 C852 0.950 . S
H848 C853 0.949 . S
H849 C855 0.950 . S
H850 C856 0.950 . S
H851 C857 0.949 . S
C852 H847 0.950 . S
C852 C854 1.327 . S
C852 C858 1.429 . S
C853 C845 1.574 . S
C853 H848 0.949 . S
C853 C859 1.368 . S
C854 C838 1.349 . S
C854 H846 0.950 . S
C854 C852 1.327 . S
C855 C843 1.349 . S
C855 H849 0.950 . S
C855 C856 1.327 . S
C856 H850 0.950 . S
C856 C855 1.327 . S
C856 C860 1.429 . S
C857 C840 1.574 . S
C857 H851 0.949 . S
C857 C861 1.368 . S
C858 C839 1.429 . S
C858 C852 1.429 . S
C858 C859 1.523 . S
C859 C840 1.368 . S
C859 C853 1.368 . S
C859 C858 1.523 . S
C860 C844 1.429 . S
C860 C856 1.429 . S
C860 C861 1.523 . S
C861 C845 1.368 . S
C861 C857 1.368 . S
C861 C860 1.523 . S
H862 C837 0.950 . S
H863 C839 0.950 . S
H864 C840 0.949 . S
H865 C842 0.950 . S
H866 C844 0.950 . S
C867 C868 1.349 . S
C867 C869 1.327 . S
C867 H892 0.950 . S
C868 C867 1.349 . S
C868 C884 1.349 . S
C869 C867 1.327 . S
C869 C888 1.429 . S
C869 H893 0.950 . S
C870 C887 1.574 . S
C870 C889 1.368 . S
C870 H894 0.949 . S
H871 C875 0.949 . S
C872 C873 1.349 . S
C872 C874 1.327 . S
C872 H895 0.950 . S
C873 C872 1.349 . S
C873 C885 1.349 . S
C874 C872 1.327 . S
C874 C890 1.429 . S
C874 H896 0.950 . S
C875 H871 0.949 . S
C875 C883 1.574 . S
C875 C891 1.368 . S
H876 C884 0.950 . S
H877 C882 0.950 . S
H878 C883 0.949 . S
H879 C885 0.950 . S
H880 C886 0.950 . S
H881 C887 0.949 . S
C882 H877 0.950 . S
C882 C884 1.327 . S
C882 C888 1.429 . S
C883 C875 1.574 . S
C883 H878 0.949 . S
C883 C889 1.368 . S
C884 C868 1.349 . S
C884 H876 0.950 . S
C884 C882 1.327 . S
C885 C873 1.349 . S
C885 H879 0.950 . S
C885 C886 1.327 . S
C886 H880 0.950 . S
C886 C885 1.327 . S
C886 C890 1.429 . S
C887 C870 1.574 . S
C887 H881 0.949 . S
C887 C891 1.368 . S
C888 C869 1.429 . S
C888 C882 1.429 . S
C888 C889 1.523 . S
C889 C870 1.368 . S
C889 C883 1.368 . S
C889 C888 1.523 . S
C890 C874 1.429 . S
C890 C886 1.429 . S
C890 C891 1.523 . S
C891 C875 1.368 . S
C891 C887 1.368 . S
C891 C890 1.523 . S
H892 C867 0.950 . S
H893 C869 0.950 . S
H894 C870 0.949 . S
H895 C872 0.950 . S
H896 C874 0.950 . S
C897 C898 1.349 . S
C897 C899 1.327 . S
C897 H922 0.950 . S
C898 C897 1.349 . S
C898 C914 1.349 . S
C899 C897 1.327 . S
C899 C918 1.429 . S
C899 H923 0.950 . S
C900 C917 1.574 . S
C900 C919 1.368 . S
C900 H924 0.949 . S
H901 C905 0.949 . S
C902 C903 1.349 . S
C902 C904 1.327 . S
C902 H925 0.950 . S
C903 C902 1.349 . S
C903 C915 1.349 . S
C904 C902 1.327 . S
C904 C920 1.429 . S
C904 H926 0.950 . S
C905 H901 0.949 . S
C905 C913 1.574 . S
C905 C921 1.368 . S
H906 C914 0.950 . S
H907 C912 0.950 . S
H908 C913 0.949 . S
H909 C915 0.950 . S
H910 C916 0.950 . S
H911 C917 0.949 . S
C912 H907 0.950 . S
C912 C914 1.327 . S
C912 C918 1.429 . S
C913 C905 1.574 . S
C913 H908 0.949 . S
C913 C919 1.368 . S
C914 C898 1.349 . S
C914 H906 0.950 . S
C914 C912 1.327 . S
C915 C903 1.349 . S
C915 H909 0.950 . S
C915 C916 1.327 . S
C916 H910 0.950 . S
C916 C915 1.327 . S
C916 C920 1.429 . S
C917 C900 1.574 . S
C917 H911 0.949 . S
C917 C921 1.368 . S
C918 C899 1.429 . S
C918 C912 1.429 . S
C918 C919 1.523 . S
C919 C900 1.368 . S
C919 C913 1.368 . S
C919 C918 1.523 . S
C920 C904 1.429 . S
C920 C916 1.429 . S
C920 C921 1.523 . S
C921 C905 1.368 . S
C921 C917 1.368 . S
C921 C920 1.523 . S
H922 C897 0.950 . S
H923 C899 0.950 . S
H924 C900 0.949 . S
H925 C902 0.950 . S
H926 C904 0.950 . S
C927 C928 1.349 . S
C927 C929 1.327 . S
C927 H952 0.950 . S
C928 C927 1.349 . S
C928 C944 1.349 . S
C929 C927 1.327 . S
C929 C948 1.429 . S
C929 H953 0.950 . S
C930 C947 1.574 . S
C930 C949 1.368 . S
C930 H954 0.949 . S
H931 C935 0.949 . S
C932 C933 1.349 . S
C932 C934 1.327 . S
C932 H955 0.950 . S
C933 C932 1.349 . S
C933 C945 1.349 . S
C934 C932 1.327 . S
C934 C950 1.429 . S
C934 H956 0.950 . S
C935 H931 0.949 . S
C935 C943 1.574 . S
C935 C951 1.368 . S
H936 C944 0.950 . S
H937 C942 0.950 . S
H938 C943 0.949 . S
H939 C945 0.950 . S
H940 C946 0.950 . S
H941 C947 0.949 . S
C942 H937 0.950 . S
C942 C944 1.327 . S
C942 C948 1.429 . S
C943 C935 1.574 . S
C943 H938 0.949 . S
C943 C949 1.368 . S
C944 C928 1.349 . S
C944 H936 0.950 . S
C944 C942 1.327 . S
C945 C933 1.349 . S
C945 H939 0.950 . S
C945 C946 1.327 . S
C946 H940 0.950 . S
C946 C945 1.327 . S
C946 C950 1.429 . S
C947 C930 1.574 . S
C947 H941 0.949 . S
C947 C951 1.368 . S
C948 C929 1.429 . S
C948 C942 1.429 . S
C948 C949 1.523 . S
C949 C930 1.368 . S
C949 C943 1.368 . S
C949 C948 1.523 . S
C950 C934 1.429 . S
C950 C946 1.429 . S
C950 C951 1.523 . S
C951 C935 1.368 . S
C951 C947 1.368 . S
C951 C950 1.523 . S
H952 C927 0.950 . S
H953 C929 0.950 . S
H954 C930 0.949 . S
H955 C932 0.950 . S
H956 C934 0.950 . S
C957 C958 1.349 . S
C957 C959 1.327 . S
C957 H982 0.950 . S
C958 C957 1.349 . S
C958 C974 1.349 . S
C959 C957 1.327 . S
C959 C978 1.429 . S
C959 H983 0.950 . S
C960 C977 1.574 . S
C960 C979 1.368 . S
C960 H984 0.949 . S
H961 C965 0.949 . S
C962 C963 1.349 . S
C962 C964 1.327 . S
C962 H985 0.950 . S
C963 C962 1.349 . S
C963 C975 1.349 . S
C964 C962 1.327 . S
C964 C980 1.429 . S
C964 H986 0.950 . S
C965 H961 0.949 . S
C965 C973 1.574 . S
C965 C981 1.368 . S
H966 C974 0.950 . S
H967 C972 0.950 . S
H968 C973 0.949 . S
H969 C975 0.950 . S
H970 C976 0.950 . S
H971 C977 0.949 . S
C972 H967 0.950 . S
C972 C974 1.327 . S
C972 C978 1.429 . S
C973 C965 1.574 . S
C973 H968 0.949 . S
C973 C979 1.368 . S
C974 C958 1.349 . S
C974 H966 0.950 . S
C974 C972 1.327 . S
C975 C963 1.349 . S
C975 H969 0.950 . S
C975 C976 1.327 . S
C976 H970 0.950 . S
C976 C975 1.327 . S
C976 C980 1.429 . S
C977 C960 1.574 . S
C977 H971 0.949 . S
C977 C981 1.368 . S
C978 C959 1.429 . S
C978 C972 1.429 . S
C978 C979 1.523 . S
C979 C960 1.368 . S
C979 C973 1.368 . S
C979 C978 1.523 . S
C980 C964 1.429 . S
C980 C976 1.429 . S
C980 C981 1.523 . S
C981 C965 1.368 . S
C981 C977 1.368 . S
C981 C980 1.523 . S
H982 C957 0.950 . S
H983 C959 0.950 . S
H984 C960 0.949 . S
H985 C962 0.950 . S
H986 C964 0.950 . S
C987 C988 1.349 . S
C987 C989 1.327 . S
C987 H1012 0.950 . S
C988 C987 1.349 . S
C988 C1004 1.349 . S
C989 C987 1.327 . S
C989 C1008 1.429 . S
C989 H1013 0.950 . S
C990 C1007 1.574 . S
C990 C1009 1.368 . S
C990 H1014 0.949 . S
H991 C995 0.949 . S
C992 C993 1.349 . S
C992 C994 1.327 . S
C992 H1015 0.950 . S
C993 C992 1.349 . S
C993 C1005 1.349 . S
C994 C992 1.327 . S
C994 C1010 1.429 . S
C994 H1016 0.950 . S
C995 H991 0.949 . S
C995 C1003 1.574 . S
C995 C1011 1.368 . S
H996 C1004 0.950 . S
H997 C1002 0.950 . S
H998 C1003 0.949 . S
H999 C1005 0.950 . S
H1000 C1006 0.950 . S
H1001 C1007 0.949 . S
C1002 H997 0.950 . S
C1002 C1004 1.327 . S
C1002 C1008 1.429 . S
C1003 C995 1.574 . S
C1003 H998 0.949 . S
C1003 C1009 1.368 . S
C1004 C988 1.349 . S
C1004 H996 0.950 . S
C1004 C1002 1.327 . S
C1005 C993 1.349 . S
C1005 H999 0.950 . S
C1005 C1006 1.327 . S
C1006 H1000 0.950 . S
C1006 C1005 1.327 . S
C1006 C1010 1.429 . S
C1007 C990 1.574 . S
C1007 H1001 0.949 . S
C1007 C1011 1.368 . S
C1008 C989 1.429 . S
C1008 C1002 1.429 . S
C1008 C1009 1.523 . S
C1009 C990 1.368 . S
C1009 C1003 1.368 . S
C1009 C1008 1.523 . S
C1010 C994 1.429 . S
C1010 C1006 1.429 . S
C1010 C1011 1.523 . S
C1011 C995 1.368 . S
C1011 C1007 1.368 . S
C1011 C1010 1.523 . S
H1012 C987 0.950 . S
H1013 C989 0.950 . S
H1014 C990 0.949 . S
H1015 C992 0.950 . S
H1016 C994 0.950 . S
C1017 C1018 1.349 . S
C1017 C1019 1.327 . S
C1017 H1042 0.950 . S
C1018 C1017 1.349 . S
C1018 C1034 1.349 . S
C1019 C1017 1.327 . S
C1019 C1038 1.429 . S
C1019 H1043 0.950 . S
C1020 C1037 1.574 . S
C1020 C1039 1.368 . S
C1020 H1044 0.949 . S
H1021 C1025 0.949 . S
C1022 C1023 1.349 . S
C1022 C1024 1.327 . S
C1022 H1045 0.950 . S
C1023 C1022 1.349 . S
C1023 C1035 1.349 . S
C1024 C1022 1.327 . S
C1024 C1040 1.429 . S
C1024 H1046 0.950 . S
C1025 H1021 0.949 . S
C1025 C1033 1.574 . S
C1025 C1041 1.368 . S
H1026 C1034 0.950 . S
H1027 C1032 0.950 . S
H1028 C1033 0.949 . S
H1029 C1035 0.950 . S
H1030 C1036 0.950 . S
H1031 C1037 0.949 . S
C1032 H1027 0.950 . S
C1032 C1034 1.327 . S
C1032 C1038 1.429 . S
C1033 C1025 1.574 . S
C1033 H1028 0.949 . S
C1033 C1039 1.368 . S
C1034 C1018 1.349 . S
C1034 H1026 0.950 . S
C1034 C1032 1.327 . S
C1035 C1023 1.349 . S
C1035 H1029 0.950 . S
C1035 C1036 1.327 . S
C1036 H1030 0.950 . S
C1036 C1035 1.327 . S
C1036 C1040 1.429 . S
C1037 C1020 1.574 . S
C1037 H1031 0.949 . S
C1037 C1041 1.368 . S
C1038 C1019 1.429 . S
C1038 C1032 1.429 . S
C1038 C1039 1.523 1_545 S
C1039 C1020 1.368 . S
C1039 C1033 1.368 . S
C1039 C1038 1.523 1_565 S
C1040 C1024 1.429 . S
C1040 C1036 1.429 . S
C1040 C1041 1.523 . S
C1041 C1025 1.368 . S
C1041 C1037 1.368 . S
C1041 C1040 1.523 . S
H1042 C1017 0.950 . S
H1043 C1019 0.950 . S
H1044 C1020 0.949 . S
H1045 C1022 0.950 . S
H1046 C1024 0.950 . S
C1047 C1048 1.349 . S
C1047 C1049 1.327 . S
C1047 H1072 0.950 . S
C1048 C1047 1.349 . S
C1048 C1064 1.349 . S
C1049 C1047 1.327 . S
C1049 C1068 1.429 . S
C1049 H1073 0.950 . S
C1050 C1067 1.574 . S
C1050 C1069 1.368 . S
C1050 H1074 0.949 . S
H1051 C1055 0.949 . S
C1052 C1053 1.349 . S
C1052 C1054 1.327 . S
C1052 H1075 0.950 . S
C1053 C1052 1.349 . S
C1053 C1065 1.349 . S
C1054 C1052 1.327 . S
C1054 C1070 1.429 . S
C1054 H1076 0.950 . S
C1055 H1051 0.949 . S
C1055 C1063 1.574 . S
C1055 C1071 1.368 . S
H1056 C1064 0.950 . S
H1057 C1062 0.950 . S
H1058 C1063 0.949 . S
H1059 C1065 0.950 . S
H1060 C1066 0.950 . S
H1061 C1067 0.949 . S
C1062 H1057 0.950 . S
C1062 C1064 1.327 . S
C1062 C1068 1.429 . S
C1063 C1055 1.574 . S
C1063 H1058 0.949 . S
C1063 C1069 1.368 . S
C1064 C1048 1.349 . S
C1064 H1056 0.950 . S
C1064 C1062 1.327 . S
C1065 C1053 1.349 . S
C1065 H1059 0.950 . S
C1065 C1066 1.327 . S
C1066 H1060 0.950 . S
C1066 C1065 1.327 . S
C1066 C1070 1.429 . S
C1067 C1050 1.574 . S
C1067 H1061 0.949 . S
C1067 C1071 1.368 . S
C1068 C1049 1.429 . S
C1068 C1062 1.429 . S
C1068 C1069 1.523 1_655 S
C1069 C1050 1.368 . S
C1069 C1063 1.368 . S
C1069 C1068 1.523 1_455 S
C1070 C1054 1.429 . S
C1070 C1066 1.429 . S
C1070 C1071 1.523 . S
C1071 C1055 1.368 . S
C1071 C1067 1.368 . S
C1071 C1070 1.523 . S
H1072 C1047 0.950 . S
H1073 C1049 0.950 . S
H1074 C1050 0.949 . S
H1075 C1052 0.950 . S
H1076 C1054 0.950 . S
C1077 C1078 1.349 . S
C1077 C1079 1.327 . S
C1077 H1102 0.950 . S
C1078 C1077 1.349 . S
C1078 C1094 1.349 . S
C1079 C1077 1.327 . S
C1079 C1098 1.429 . S
C1079 H1103 0.950 . S
C1080 C1097 1.574 . S
C1080 C1099 1.368 . S
C1080 H1104 0.949 . S
H1081 C1085 0.949 . S
C1082 C1083 1.349 . S
C1082 C1084 1.327 . S
C1082 H1105 0.950 . S
C1083 C1082 1.349 . S
C1083 C1095 1.349 . S
C1084 C1082 1.327 . S
C1084 C1100 1.429 . S
C1084 H1106 0.950 . S
C1085 H1081 0.949 . S
C1085 C1093 1.574 . S
C1085 C1101 1.368 . S
H1086 C1094 0.950 . S
H1087 C1092 0.950 . S
H1088 C1093 0.949 . S
H1089 C1095 0.950 . S
H1090 C1096 0.950 . S
H1091 C1097 0.949 . S
C1092 H1087 0.950 . S
C1092 C1094 1.327 . S
C1092 C1098 1.429 . S
C1093 C1085 1.574 . S
C1093 H1088 0.949 . S
C1093 C1099 1.368 . S
C1094 C1078 1.349 . S
C1094 H1086 0.950 . S
C1094 C1092 1.327 . S
C1095 C1083 1.349 . S
C1095 H1089 0.950 . S
C1095 C1096 1.327 . S
C1096 H1090 0.950 . S
C1096 C1095 1.327 . S
C1096 C1100 1.429 . S
C1097 C1080 1.574 . S
C1097 H1091 0.949 . S
C1097 C1101 1.368 . S
C1098 C1079 1.429 . S
C1098 C1092 1.429 . S
C1098 C1099 1.523 . S
C1099 C1080 1.368 . S
C1099 C1093 1.368 . S
C1099 C1098 1.523 . S
C1100 C1084 1.429 . S
C1100 C1096 1.429 . S
C1100 C1101 1.523 . S
C1101 C1085 1.368 . S
C1101 C1097 1.368 . S
C1101 C1100 1.523 . S
H1102 C1077 0.950 . S
H1103 C1079 0.950 . S
H1104 C1080 0.949 . S
H1105 C1082 0.950 . S
H1106 C1084 0.950 . S
C1107 C1108 1.349 . S
C1107 C1109 1.327 . S
C1107 H1132 0.950 . S
C1108 C1107 1.349 . S
C1108 C1124 1.349 . S
C1109 C1107 1.327 . S
C1109 C1128 1.429 . S
C1109 H1133 0.950 . S
C1110 C1127 1.574 . S
C1110 C1129 1.368 . S
C1110 H1134 0.949 . S
H1111 C1115 0.949 . S
C1112 C1113 1.349 . S
C1112 C1114 1.327 . S
C1112 H1135 0.950 . S
C1113 C1112 1.349 . S
C1113 C1125 1.349 . S
C1114 C1112 1.327 . S
C1114 C1130 1.429 . S
C1114 H1136 0.950 . S
C1115 H1111 0.949 . S
C1115 C1123 1.574 . S
C1115 C1131 1.368 . S
H1116 C1124 0.950 . S
H1117 C1122 0.950 . S
H1118 C1123 0.949 . S
H1119 C1125 0.950 . S
H1120 C1126 0.950 . S
H1121 C1127 0.949 . S
C1122 H1117 0.950 . S
C1122 C1124 1.327 . S
C1122 C1128 1.429 . S
C1123 C1115 1.574 . S
C1123 H1118 0.949 . S
C1123 C1129 1.368 . S
C1124 C1108 1.349 . S
C1124 H1116 0.950 . S
C1124 C1122 1.327 . S
C1125 C1113 1.349 . S
C1125 H1119 0.950 . S
C1125 C1126 1.327 . S
C1126 H1120 0.950 . S
C1126 C1125 1.327 . S
C1126 C1130 1.429 . S
C1127 C1110 1.574 . S
C1127 H1121 0.949 . S
C1127 C1131 1.368 . S
C1128 C1109 1.429 . S
C1128 C1122 1.429 . S
C1128 C1129 1.523 . S
C1129 C1110 1.368 . S
C1129 C1123 1.368 . S
C1129 C1128 1.523 . S
C1130 C1114 1.429 . S
C1130 C1126 1.429 . S
C1130 C1131 1.523 . S
C1131 C1115 1.368 . S
C1131 C1127 1.368 . S
C1131 C1130 1.523 . S
H1132 C1107 0.950 . S
H1133 C1109 0.950 . S
H1134 C1110 0.949 . S
H1135 C1112 0.950 . S
H1136 C1114 0.950 . S
C1137 C1138 1.349 . S
C1137 C1139 1.327 . S
C1137 H1162 0.950 . S
C1138 C1137 1.349 . S
C1138 C1154 1.349 . S
C1139 C1137 1.327 . S
C1139 C1158 1.429 . S
C1139 H1163 0.950 . S
C1140 C1157 1.574 . S
C1140 C1159 1.368 . S
C1140 H1164 0.949 . S
H1141 C1145 0.949 . S
C1142 C1143 1.349 . S
C1142 C1144 1.327 . S
C1142 H1165 0.950 . S
C1143 C1142 1.349 . S
C1143 C1155 1.349 . S
C1144 C1142 1.327 . S
C1144 C1160 1.429 . S
C1144 H1166 0.950 . S
C1145 H1141 0.949 . S
C1145 C1153 1.574 . S
C1145 C1161 1.368 . S
H1146 C1154 0.950 . S
H1147 C1152 0.950 . S
H1148 C1153 0.949 . S
H1149 C1155 0.950 . S
H1150 C1156 0.950 . S
H1151 C1157 0.949 . S
C1152 H1147 0.950 . S
C1152 C1154 1.327 . S
C1152 C1158 1.429 . S
C1153 C1145 1.574 . S
C1153 H1148 0.949 . S
C1153 C1159 1.368 . S
C1154 C1138 1.349 . S
C1154 H1146 0.950 . S
C1154 C1152 1.327 . S
C1155 C1143 1.349 . S
C1155 H1149 0.950 . S
C1155 C1156 1.327 . S
C1156 H1150 0.950 . S
C1156 C1155 1.327 . S
C1156 C1160 1.429 . S
C1157 C1140 1.574 . S
C1157 H1151 0.949 . S
C1157 C1161 1.368 . S
C1158 C1139 1.429 . S
C1158 C1152 1.429 . S
C1158 C1159 1.523 . S
C1159 C1140 1.368 . S
C1159 C1153 1.368 . S
C1159 C1158 1.523 . S
C1160 C1144 1.429 . S
C1160 C1156 1.429 . S
C1160 C1161 1.523 . S
C1161 C1145 1.368 . S
C1161 C1157 1.368 . S
C1161 C1160 1.523 . S
H1162 C1137 0.950 . S
H1163 C1139 0.950 . S
H1164 C1140 0.949 . S
H1165 C1142 0.950 . S
H1166 C1144 0.950 . S
C1167 C1168 1.349 . S
C1167 C1169 1.327 . S
C1167 H1192 0.950 . S
C1168 C1167 1.349 . S
C1168 C1184 1.349 . S
C1169 C1167 1.327 . S
C1169 C1188 1.429 . S
C1169 H1193 0.950 . S
C1170 C1187 1.574 . S
C1170 C1189 1.368 . S
C1170 H1194 0.949 . S
H1171 C1175 0.949 . S
C1172 C1173 1.349 . S
C1172 C1174 1.327 . S
C1172 H1195 0.950 . S
C1173 C1172 1.349 . S
C1173 C1185 1.349 . S
C1174 C1172 1.327 . S
C1174 C1190 1.429 . S
C1174 H1196 0.950 . S
C1175 H1171 0.949 . S
C1175 C1183 1.574 . S
C1175 C1191 1.368 . S
H1176 C1184 0.950 . S
H1177 C1182 0.950 . S
H1178 C1183 0.949 . S
H1179 C1185 0.950 . S
H1180 C1186 0.950 . S
H1181 C1187 0.949 . S
C1182 H1177 0.950 . S
C1182 C1184 1.327 . S
C1182 C1188 1.429 . S
C1183 C1175 1.574 . S
C1183 H1178 0.949 . S
C1183 C1189 1.368 . S
C1184 C1168 1.349 . S
C1184 H1176 0.950 . S
C1184 C1182 1.327 . S
C1185 C1173 1.349 . S
C1185 H1179 0.950 . S
C1185 C1186 1.327 . S
C1186 H1180 0.950 . S
C1186 C1185 1.327 . S
C1186 C1190 1.429 . S
C1187 C1170 1.574 . S
C1187 H1181 0.949 . S
C1187 C1191 1.368 . S
C1188 C1169 1.429 . S
C1188 C1182 1.429 . S
C1188 C1189 1.523 . S
C1189 C1170 1.368 . S
C1189 C1183 1.368 . S
C1189 C1188 1.523 . S
C1190 C1174 1.429 . S
C1190 C1186 1.429 . S
C1190 C1191 1.523 . S
C1191 C1175 1.368 . S
C1191 C1187 1.368 . S
C1191 C1190 1.523 . S
H1192 C1167 0.950 . S
H1193 C1169 0.950 . S
H1194 C1170 0.949 . S
H1195 C1172 0.950 . S
H1196 C1174 0.950 . S
C1197 C1198 1.349 . S
C1197 C1199 1.327 . S
C1197 H1222 0.950 . S
C1198 C1197 1.349 . S
C1198 C1214 1.349 . S
C1199 C1197 1.327 . S
C1199 C1218 1.429 . S
C1199 H1223 0.950 . S
C1200 C1217 1.574 1_565 S
C1200 C1219 1.368 . S
C1200 H1224 0.949 . S
H1201 C1205 0.949 . S
C1202 C1203 1.349 . S
C1202 C1204 1.327 . S
C1202 H1225 0.950 . S
C1203 C1202 1.349 . S
C1203 C1215 1.349 . S
C1204 C1202 1.327 . S
C1204 C1220 1.429 . S
C1204 H1226 0.950 . S
C1205 H1201 0.949 . S
C1205 C1213 1.574 1_545 S
C1205 C1221 1.368 . S
H1206 C1214 0.950 . S
H1207 C1212 0.950 . S
H1208 C1213 0.949 . S
H1209 C1215 0.950 . S
H1210 C1216 0.950 . S
H1211 C1217 0.949 . S
C1212 H1207 0.950 . S
C1212 C1214 1.327 . S
C1212 C1218 1.429 . S
C1213 C1205 1.574 1_565 S
C1213 H1208 0.949 . S
C1213 C1219 1.368 . S
C1214 C1198 1.349 . S
C1214 H1206 0.950 . S
C1214 C1212 1.327 . S
C1215 C1203 1.349 . S
C1215 H1209 0.950 . S
C1215 C1216 1.327 . S
C1216 H1210 0.950 . S
C1216 C1215 1.327 . S
C1216 C1220 1.429 . S
C1217 C1200 1.574 1_545 S
C1217 H1211 0.949 . S
C1217 C1221 1.368 . S
C1218 C1199 1.429 . S
C1218 C1212 1.429 . S
C1218 C1219 1.523 . S
C1219 C1200 1.368 . S
C1219 C1213 1.368 . S
C1219 C1218 1.523 . S
C1220 C1204 1.429 . S
C1220 C1216 1.429 . S
C1220 C1221 1.523 . S
C1221 C1205 1.368 . S
C1221 C1217 1.368 . S
C1221 C1220 1.523 . S
H1222 C1197 0.950 . S
H1223 C1199 0.950 . S
H1224 C1200 0.949 . S
H1225 C1202 0.950 . S
H1226 C1204 0.950 . S
C1227 C1228 1.349 . S
C1227 C1229 1.327 . S
C1227 H1252 0.950 . S
C1228 C1227 1.349 . S
C1228 C1244 1.349 . S
C1229 C1227 1.327 . S
C1229 C1248 1.429 . S
C1229 H1253 0.950 . S
C1230 C1247 1.574 1_455 S
C1230 C1249 1.368 . S
C1230 H1254 0.949 . S
H1231 C1235 0.949 . S
C1232 C1233 1.349 . S
C1232 C1234 1.327 . S
C1232 H1255 0.950 . S
C1233 C1232 1.349 . S
C1233 C1245 1.349 . S
C1234 C1232 1.327 . S
C1234 C1250 1.429 . S
C1234 H1256 0.950 . S
C1235 H1231 0.949 . S
C1235 C1243 1.574 1_655 S
C1235 C1251 1.368 . S
H1236 C1244 0.950 . S
H1237 C1242 0.950 . S
H1238 C1243 0.949 . S
H1239 C1245 0.950 . S
H1240 C1246 0.950 . S
H1241 C1247 0.949 . S
C1242 H1237 0.950 . S
C1242 C1244 1.327 . S
C1242 C1248 1.429 . S
C1243 C1235 1.574 1_455 S
C1243 H1238 0.949 . S
C1243 C1249 1.368 . S
C1244 C1228 1.349 . S
C1244 H1236 0.950 . S
C1244 C1242 1.327 . S
C1245 C1233 1.349 . S
C1245 H1239 0.950 . S
C1245 C1246 1.327 . S
C1246 H1240 0.950 . S
C1246 C1245 1.327 . S
C1246 C1250 1.429 . S
C1247 C1230 1.574 1_655 S
C1247 H1241 0.949 . S
C1247 C1251 1.368 . S
C1248 C1229 1.429 . S
C1248 C1242 1.429 . S
C1248 C1249 1.523 . S
C1249 C1230 1.368 . S
C1249 C1243 1.368 . S
C1249 C1248 1.523 . S
C1250 C1234 1.429 . S
C1250 C1246 1.429 . S
C1250 C1251 1.523 . S
C1251 C1235 1.368 . S
C1251 C1247 1.368 . S
C1251 C1250 1.523 . S
H1252 C1227 0.950 . S
H1253 C1229 0.950 . S
H1254 C1230 0.949 . S
H1255 C1232 0.950 . S
H1256 C1234 0.950 . S
C1257 C1258 1.349 . S
C1257 C1259 1.327 . S
C1257 H1282 0.950 . S
C1258 C1257 1.349 . S
C1258 C1274 1.349 . S
C1259 C1257 1.327 . S
C1259 C1278 1.429 . S
C1259 H1283 0.950 . S
C1260 C1277 1.574 . S
C1260 C1279 1.368 . S
C1260 H1284 0.949 . S
H1261 C1265 0.949 . S
C1262 C1263 1.349 . S
C1262 C1264 1.327 . S
C1262 H1285 0.950 . S
C1263 C1262 1.349 . S
C1263 C1275 1.349 . S
C1264 C1262 1.327 . S
C1264 C1280 1.429 . S
C1264 H1286 0.950 . S
C1265 H1261 0.949 . S
C1265 C1273 1.574 . S
C1265 C1281 1.368 . S
H1266 C1274 0.950 . S
H1267 C1272 0.950 . S
H1268 C1273 0.949 . S
H1269 C1275 0.950 . S
H1270 C1276 0.950 . S
H1271 C1277 0.949 . S
C1272 H1267 0.950 . S
C1272 C1274 1.327 . S
C1272 C1278 1.429 . S
C1273 C1265 1.574 . S
C1273 H1268 0.949 . S
C1273 C1279 1.368 . S
C1274 C1258 1.349 . S
C1274 H1266 0.950 . S
C1274 C1272 1.327 . S
C1275 C1263 1.349 . S
C1275 H1269 0.950 . S
C1275 C1276 1.327 . S
C1276 H1270 0.950 . S
C1276 C1275 1.327 . S
C1276 C1280 1.429 . S
C1277 C1260 1.574 . S
C1277 H1271 0.949 . S
C1277 C1281 1.368 . S
C1278 C1259 1.429 . S
C1278 C1272 1.429 . S
C1278 C1279 1.523 . S
C1279 C1260 1.368 . S
C1279 C1273 1.368 . S
C1279 C1278 1.523 . S
C1280 C1264 1.429 . S
C1280 C1276 1.429 . S
C1280 C1281 1.523 . S
C1281 C1265 1.368 . S
C1281 C1277 1.368 . S
C1281 C1280 1.523 . S
H1282 C1257 0.950 . S
H1283 C1259 0.950 . S
H1284 C1260 0.949 . S
H1285 C1262 0.950 . S
H1286 C1264 0.950 . S
C1287 C1288 1.349 . S
C1287 C1289 1.327 . S
C1287 H1312 0.950 . S
C1288 C1287 1.349 . S
C1288 C1304 1.349 . S
C1289 C1287 1.327 . S
C1289 C1308 1.429 . S
C1289 H1313 0.950 . S
C1290 C1307 1.574 . S
C1290 C1309 1.368 . S
C1290 H1314 0.949 . S
H1291 C1295 0.949 . S
C1292 C1293 1.349 . S
C1292 C1294 1.327 . S
C1292 H1315 0.950 . S
C1293 C1292 1.349 . S
C1293 C1305 1.349 . S
C1294 C1292 1.327 . S
C1294 C1310 1.429 . S
C1294 H1316 0.950 . S
C1295 H1291 0.949 . S
C1295 C1303 1.574 . S
C1295 C1311 1.368 . S
H1296 C1304 0.950 . S
H1297 C1302 0.950 . S
H1298 C1303 0.949 . S
H1299 C1305 0.950 . S
H1300 C1306 0.950 . S
H1301 C1307 0.949 . S
C1302 H1297 0.950 . S
C1302 C1304 1.327 . S
C1302 C1308 1.429 . S
C1303 C1295 1.574 . S
C1303 H1298 0.949 . S
C1303 C1309 1.368 . S
C1304 C1288 1.349 . S
C1304 H1296 0.950 . S
C1304 C1302 1.327 . S
C1305 C1293 1.349 . S
C1305 H1299 0.950 . S
C1305 C1306 1.327 . S
C1306 H1300 0.950 . S
C1306 C1305 1.327 . S
C1306 C1310 1.429 . S
C1307 C1290 1.574 . S
C1307 H1301 0.949 . S
C1307 C1311 1.368 . S
C1308 C1289 1.429 . S
C1308 C1302 1.429 . S
C1308 C1309 1.523 1_455 S
C1309 C1290 1.368 . S
C1309 C1303 1.368 . S
C1309 C1308 1.523 1_655 S
C1310 C1294 1.429 . S
C1310 C1306 1.429 . S
C1310 C1311 1.523 . S
C1311 C1295 1.368 . S
C1311 C1307 1.368 . S
C1311 C1310 1.523 . S
H1312 C1287 0.950 . S
H1313 C1289 0.950 . S
H1314 C1290 0.949 . S
H1315 C1292 0.950 . S
H1316 C1294 0.950 . S
C1317 C1318 1.349 . S
C1317 C1319 1.327 . S
C1317 H1342 0.950 . S
C1318 C1317 1.349 . S
C1318 C1334 1.349 . S
C1319 C1317 1.327 . S
C1319 C1338 1.429 . S
C1319 H1343 0.950 . S
C1320 C1337 1.574 . S
C1320 C1339 1.368 . S
C1320 H1344 0.949 . S
H1321 C1325 0.949 . S
C1322 C1323 1.349 . S
C1322 C1324 1.327 . S
C1322 H1345 0.950 . S
C1323 C1322 1.349 . S
C1323 C1335 1.349 . S
C1324 C1322 1.327 . S
C1324 C1340 1.429 . S
C1324 H1346 0.950 . S
C1325 H1321 0.949 . S
C1325 C1333 1.574 . S
C1325 C1341 1.368 . S
H1326 C1334 0.950 . S
H1327 C1332 0.950 . S
H1328 C1333 0.949 . S
H1329 C1335 0.950 . S
H1330 C1336 0.950 . S
H1331 C1337 0.949 . S
C1332 H1327 0.950 . S
C1332 C1334 1.327 . S
C1332 C1338 1.429 . S
C1333 C1325 1.574 . S
C1333 H1328 0.949 . S
C1333 C1339 1.368 . S
C1334 C1318 1.349 . S
C1334 H1326 0.950 . S
C1334 C1332 1.327 . S
C1335 C1323 1.349 . S
C1335 H1329 0.950 . S
C1335 C1336 1.327 . S
C1336 H1330 0.950 . S
C1336 C1335 1.327 . S
C1336 C1340 1.429 . S
C1337 C1320 1.574 . S
C1337 H1331 0.949 . S
C1337 C1341 1.368 . S
C1338 C1319 1.429 . S
C1338 C1332 1.429 . S
C1338 C1339 1.523 . S
C1339 C1320 1.368 . S
C1339 C1333 1.368 . S
C1339 C1338 1.523 . S
C1340 C1324 1.429 . S
C1340 C1336 1.429 . S
C1340 C1341 1.523 . S
C1341 C1325 1.368 . S
C1341 C1337 1.368 . S
C1341 C1340 1.523 . S
H1342 C1317 0.950 . S
H1343 C1319 0.950 . S
H1344 C1320 0.949 . S
H1345 C1322 0.950 . S
H1346 C1324 0.950 . S
C1347 C1348 1.349 . S
C1347 C1349 1.327 . S
C1347 H1372 0.950 . S
C1348 C1347 1.349 . S
C1348 C1364 1.349 . S
C1349 C1347 1.327 . S
C1349 C1368 1.450 . S
C1349 H1373 0.950 . S
C1350 C1367 1.574 . S
C1350 C1369 1.368 . S
C1350 H1374 0.949 . S
H1351 C1355 0.949 . S
C1352 C1353 1.349 . S
C1352 C1354 1.327 . S
C1352 H1375 0.950 . S
C1353 C1352 1.349 . S
C1353 C1365 1.349 . S
C1354 C1352 1.327 . S
C1354 C1370 1.429 . S
C1354 H1376 0.950 . S
C1355 H1351 0.949 . S
C1355 C1363 1.574 . S
C1355 C1371 1.368 . S
H1356 C1364 0.950 . S
H1357 C1362 0.950 . S
H1358 C1363 0.949 . S
H1359 C1365 0.950 . S
H1360 C1366 0.950 . S
H1361 C1367 0.949 . S
C1362 H1357 0.950 . S
C1362 C1364 1.327 . S
C1362 C1368 1.473 . S
C1363 C1355 1.574 . S
C1363 H1358 0.949 . S
C1363 C1369 1.368 . S
C1364 C1348 1.349 . S
C1364 H1356 0.950 . S
C1364 C1362 1.327 . S
C1365 C1353 1.349 . S
C1365 H1359 0.950 . S
C1365 C1366 1.327 . S
C1366 H1360 0.950 . S
C1366 C1365 1.327 . S
C1366 C1370 1.429 . S
C1367 C1350 1.574 . S
C1367 H1361 0.949 . S
C1367 C1371 1.368 . S
C1368 C1349 1.450 . S
C1368 C1362 1.473 . S
C1368 C1369 1.464 1_565 S
C1369 C1350 1.368 . S
C1369 C1363 1.368 . S
C1369 C1368 1.464 1_545 S
C1370 C1354 1.429 . S
C1370 C1366 1.429 . S
C1370 C1371 1.523 . S
C1371 C1355 1.368 . S
C1371 C1367 1.368 . S
C1371 C1370 1.523 . S
H1372 C1347 0.950 . S
H1373 C1349 0.950 . S
H1374 C1350 0.949 . S
H1375 C1352 0.950 . S
H1376 C1354 0.950 . S
C1377 C1378 1.349 . S
C1377 C1379 1.327 . S
C1377 H1402 0.950 . S
C1378 C1377 1.349 . S
C1378 C1394 1.349 . S
C1379 C1377 1.327 . S
C1379 C1398 1.429 . S
C1379 H1403 0.950 . S
C1380 C1397 1.574 . S
C1380 C1399 1.368 . S
C1380 H1404 0.949 . S
H1381 C1385 0.949 . S
C1382 C1383 1.349 . S
C1382 C1384 1.327 . S
C1382 H1405 0.950 . S
C1383 C1382 1.349 . S
C1383 C1395 1.349 . S
C1384 C1382 1.327 . S
C1384 C1400 1.429 . S
C1384 H1406 0.950 . S
C1385 H1381 0.949 . S
C1385 C1393 1.574 . S
C1385 C1401 1.368 . S
H1386 C1394 0.950 . S
H1387 C1392 0.950 . S
H1388 C1393 0.949 . S
H1389 C1395 0.950 . S
H1390 C1396 0.950 . S
H1391 C1397 0.949 . S
C1392 H1387 0.950 . S
C1392 C1394 1.327 . S
C1392 C1398 1.429 . S
C1393 C1385 1.574 . S
C1393 H1388 0.949 . S
C1393 C1399 1.368 . S
C1394 C1378 1.349 . S
C1394 H1386 0.950 . S
C1394 C1392 1.327 . S
C1395 C1383 1.349 . S
C1395 H1389 0.950 . S
C1395 C1396 1.327 . S
C1396 H1390 0.950 . S
C1396 C1395 1.327 . S
C1396 C1400 1.429 . S
C1397 C1380 1.574 . S
C1397 H1391 0.949 . S
C1397 C1401 1.368 . S
C1398 C1379 1.429 . S
C1398 C1392 1.429 . S
C1398 C1399 1.523 . S
C1399 C1380 1.368 . S
C1399 C1393 1.368 . S
C1399 C1398 1.523 . S
C1400 C1384 1.429 . S
C1400 C1396 1.429 . S
C1400 C1401 1.523 . S
C1401 C1385 1.368 . S
C1401 C1397 1.368 . S
C1401 C1400 1.523 . S
H1402 C1377 0.950 . S
H1403 C1379 0.950 . S
H1404 C1380 0.949 . S
H1405 C1382 0.950 . S
H1406 C1384 0.950 . S
C1407 C1408 1.349 . S
C1407 C1409 1.327 . S
C1407 H1432 0.950 . S
C1408 C1407 1.349 . S
C1408 C1424 1.349 . S
C1409 C1407 1.327 . S
C1409 C1428 1.429 . S
C1409 H1433 0.950 . S
C1410 C1427 1.574 . S
C1410 C1429 1.368 . S
C1410 H1434 0.949 . S
H1411 C1415 0.949 . S
C1412 C1413 1.349 . S
C1412 C1414 1.327 . S
C1412 H1435 0.950 . S
C1413 C1412 1.349 . S
C1413 C1425 1.349 . S
C1414 C1412 1.327 . S
C1414 C1430 1.429 . S
C1414 H1436 0.950 . S
C1415 H1411 0.949 . S
C1415 C1423 1.574 . S
C1415 C1431 1.368 . S
H1416 C1424 0.950 . S
H1417 C1422 0.950 . S
H1418 C1423 0.949 . S
H1419 C1425 0.950 . S
H1420 C1426 0.950 . S
H1421 C1427 0.949 . S
C1422 H1417 0.950 . S
C1422 C1424 1.327 . S
C1422 C1428 1.429 . S
C1423 C1415 1.574 . S
C1423 H1418 0.949 . S
C1423 C1429 1.368 . S
C1424 C1408 1.349 . S
C1424 H1416 0.950 . S
C1424 C1422 1.327 . S
C1425 C1413 1.349 . S
C1425 H1419 0.950 . S
C1425 C1426 1.327 . S
C1426 H1420 0.950 . S
C1426 C1425 1.327 . S
C1426 C1430 1.429 . S
C1427 C1410 1.574 . S
C1427 H1421 0.949 . S
C1427 C1431 1.368 . S
C1428 C1409 1.429 . S
C1428 C1422 1.429 . S
C1428 C1429 1.523 . S
C1429 C1410 1.368 . S
C1429 C1423 1.368 . S
C1429 C1428 1.523 . S
C1430 C1414 1.429 . S
C1430 C1426 1.429 . S
C1430 C1431 1.523 . S
C1431 C1415 1.368 . S
C1431 C1427 1.368 . S
C1431 C1430 1.523 . S
H1432 C1407 0.950 . S
H1433 C1409 0.950 . S
H1434 C1410 0.949 . S
H1435 C1412 0.950 . S
H1436 C1414 0.950 . S
C1437 C1438 1.349 . S
C1437 C1439 1.327 . S
C1437 H1462 0.950 . S
C1438 C1437 1.349 . S
C1438 C1454 1.349 . S
C1439 C1437 1.327 . S
C1439 C1458 1.429 . S
C1439 H1463 0.950 . S
C1440 C1457 1.574 . S
C1440 C1459 1.368 . S
C1440 H1464 0.949 . S
H1441 C1445 0.949 . S
C1442 C1443 1.349 . S
C1442 C1444 1.327 . S
C1442 H1465 0.950 . S
C1443 C1442 1.349 . S
C1443 C1455 1.349 . S
C1444 C1442 1.327 . S
C1444 C1460 1.429 . S
C1444 H1466 0.950 . S
C1445 H1441 0.949 . S
C1445 C1453 1.574 . S
C1445 C1461 1.368 . S
H1446 C1454 0.950 . S
H1447 C1452 0.950 . S
H1448 C1453 0.949 . S
H1449 C1455 0.950 . S
H1450 C1456 0.950 . S
H1451 C1457 0.949 . S
C1452 H1447 0.950 . S
C1452 C1454 1.327 . S
C1452 C1458 1.429 . S
C1453 C1445 1.574 . S
C1453 H1448 0.949 . S
C1453 C1459 1.368 . S
C1454 C1438 1.349 . S
C1454 H1446 0.950 . S
C1454 C1452 1.327 . S
C1455 C1443 1.349 . S
C1455 H1449 0.950 . S
C1455 C1456 1.327 . S
C1456 H1450 0.950 . S
C1456 C1455 1.327 . S
C1456 C1460 1.429 . S
C1457 C1440 1.574 . S
C1457 H1451 0.949 . S
C1457 C1461 1.368 . S
C1458 C1439 1.429 . S
C1458 C1452 1.429 . S
C1458 C1459 1.523 . S
C1459 C1440 1.368 . S
C1459 C1453 1.368 . S
C1459 C1458 1.523 . S
C1460 C1444 1.429 . S
C1460 C1456 1.429 . S
C1460 C1461 1.523 . S
C1461 C1445 1.368 . S
C1461 C1457 1.368 . S
C1461 C1460 1.523 . S
H1462 C1437 0.950 . S
H1463 C1439 0.950 . S
H1464 C1440 0.949 . S
H1465 C1442 0.950 . S
H1466 C1444 0.950 . S
C1467 C1468 1.349 . S
C1467 C1469 1.327 . S
C1467 H1492 0.950 . S
C1468 C1467 1.349 . S
C1468 C1484 1.349 . S
C1469 C1467 1.327 . S
C1469 C1488 1.429 . S
C1469 H1493 0.950 . S
C1470 C1487 1.574 . S
C1470 C1489 1.368 . S
C1470 H1494 0.949 . S
H1471 C1475 0.949 . S
C1472 C1473 1.349 . S
C1472 C1474 1.327 . S
C1472 H1495 0.950 . S
C1473 C1472 1.349 . S
C1473 C1485 1.343 1_565 S
C1474 C1472 1.327 . S
C1474 C1490 1.429 . S
C1474 H1496 0.950 . S
C1475 H1471 0.949 . S
C1475 C1483 1.574 . S
C1475 C1491 1.368 . S
H1476 C1484 0.950 . S
H1477 C1482 0.950 . S
H1478 C1483 0.949 . S
H1479 C1485 0.973 . S
H1480 C1486 0.950 1_545 S
H1481 C1487 0.949 . S
C1482 H1477 0.950 . S
C1482 C1484 1.327 . S
C1482 C1488 1.429 . S
C1483 C1475 1.574 . S
C1483 H1478 0.949 . S
C1483 C1489 1.368 . S
C1484 C1468 1.349 . S
C1484 H1476 0.950 . S
C1484 C1482 1.327 . S
C1485 C1473 1.343 1_545 S
C1485 H1479 0.973 . S
C1485 C1486 1.313 1_545 S
C1486 H1480 0.950 1_565 S
C1486 C1485 1.313 1_565 S
C1486 C1490 1.429 . S
C1487 C1470 1.574 . S
C1487 H1481 0.949 . S
C1487 C1491 1.368 . S
C1488 C1469 1.429 . S
C1488 C1482 1.429 . S
C1488 C1489 1.523 . S
C1489 C1470 1.368 . S
C1489 C1483 1.368 . S
C1489 C1488 1.523 . S
C1490 C1474 1.429 . S
C1490 C1486 1.429 . S
C1490 C1491 1.523 . S
C1491 C1475 1.368 . S
C1491 C1487 1.368 . S
C1491 C1490 1.523 . S
H1492 C1467 0.950 . S
H1493 C1469 0.950 . S
H1494 C1470 0.949 . S
H1495 C1472 0.950 . S
H1496 C1474 0.950 . S
C1497 C1498 1.349 . S
C1497 C1499 1.327 . S
C1497 H1522 0.950 . S
C1498 C1497 1.349 . S
C1498 C1514 1.349 . S
C1499 C1497 1.327 . S
C1499 C1518 1.429 . S
C1499 H1523 0.950 . S
C1500 C1517 1.574 . S
C1500 C1519 1.368 . S
C1500 H1524 0.949 . S
H1501 C1505 0.949 . S
C1502 C1503 1.349 . S
C1502 C1504 1.327 . S
C1502 H1525 0.950 . S
C1503 C1502 1.349 . S
C1503 C1515 1.349 . S
C1504 C1502 1.327 . S
C1504 C1520 1.429 . S
C1504 H1526 0.950 . S
C1505 H1501 0.949 . S
C1505 C1513 1.574 . S
C1505 C1521 1.368 . S
H1506 C1514 0.950 . S
H1507 C1512 0.950 . S
H1508 C1513 0.949 . S
H1509 C1515 0.950 1_655 S
H1510 C1516 0.950 . S
H1511 C1517 0.949 . S
C1512 H1507 0.950 . S
C1512 C1514 1.327 . S
C1512 C1518 1.429 . S
C1513 C1505 1.574 . S
C1513 H1508 0.949 . S
C1513 C1519 1.368 . S
C1514 C1498 1.349 . S
C1514 H1506 0.950 . S
C1514 C1512 1.327 . S
C1515 C1503 1.349 . S
C1515 H1509 0.950 1_455 S
C1515 C1516 1.327 . S
C1516 H1510 0.950 . S
C1516 C1515 1.327 . S
C1516 C1520 1.429 . S
C1517 C1500 1.574 . S
C1517 H1511 0.949 . S
C1517 C1521 1.368 . S
C1518 C1499 1.429 . S
C1518 C1512 1.429 . S
C1518 C1519 1.523 . S
C1519 C1500 1.368 . S
C1519 C1513 1.368 . S
C1519 C1518 1.523 . S
C1520 C1504 1.429 . S
C1520 C1516 1.429 . S
C1520 C1521 1.523 . S
C1521 C1505 1.368 . S
C1521 C1517 1.368 . S
C1521 C1520 1.523 . S
H1522 C1497 0.950 . S
H1523 C1499 0.950 . S
H1524 C1500 0.949 . S
H1525 C1502 0.950 . S
H1526 C1504 0.950 . S
C1527 C1528 1.349 . S
C1527 C1529 1.327 . S
C1527 H1552 0.950 . S
C1528 C1527 1.349 . S
C1528 C1544 1.349 . S
C1529 C1527 1.327 . S
C1529 C1548 1.429 . S
C1529 H1553 0.950 . S
C1530 C1547 1.574 . S
C1530 C1549 1.368 . S
C1530 H1554 0.949 . S
H1531 C1535 0.949 . S
C1532 C1533 1.349 . S
C1532 C1534 1.327 . S
C1532 H1555 0.950 . S
C1533 C1532 1.349 . S
C1533 C1545 1.349 . S
C1534 C1532 1.327 . S
C1534 C1550 1.429 . S
C1534 H1556 0.950 . S
C1535 H1531 0.949 . S
C1535 C1543 1.574 . S
C1535 C1551 1.368 . S
H1536 C1544 0.950 . S
H1537 C1542 0.950 . S
H1538 C1543 0.949 . S
H1539 C1545 0.950 . S
H1540 C1546 0.950 . S
H1541 C1547 0.949 . S
C1542 H1537 0.950 . S
C1542 C1544 1.327 . S
C1542 C1548 1.429 . S
C1543 C1535 1.574 . S
C1543 H1538 0.949 . S
C1543 C1549 1.368 . S
C1544 C1528 1.349 . S
C1544 H1536 0.950 . S
C1544 C1542 1.327 . S
C1545 C1533 1.349 . S
C1545 H1539 0.950 . S
C1545 C1546 1.327 . S
C1546 H1540 0.950 . S
C1546 C1545 1.327 . S
C1546 C1550 1.429 . S
C1547 C1530 1.574 . S
C1547 H1541 0.949 . S
C1547 C1551 1.368 . S
C1548 C1529 1.429 . S
C1548 C1542 1.429 . S
C1548 C1549 1.523 . S
C1549 C1530 1.368 . S
C1549 C1543 1.368 . S
C1549 C1548 1.523 . S
C1550 C1534 1.429 . S
C1550 C1546 1.429 . S
C1550 C1551 1.523 . S
C1551 C1535 1.368 . S
C1551 C1547 1.368 . S
C1551 C1550 1.523 . S
H1552 C1527 0.950 . S
H1553 C1529 0.950 . S
H1554 C1530 0.949 . S
H1555 C1532 0.950 . S
H1556 C1534 0.950 . S
C1557 C1558 1.349 . S
C1557 C1559 1.327 . S
C1557 H1582 0.950 . S
C1558 C1557 1.349 . S
C1558 C1574 1.349 . S
C1559 C1557 1.327 . S
C1559 C1578 1.429 . S
C1559 H1583 0.950 . S
C1560 C1577 1.574 . S
C1560 C1579 1.368 . S
C1560 H1584 0.949 . S
H1561 C1565 0.949 . S
C1562 C1563 1.349 . S
C1562 C1564 1.327 . S
C1562 H1585 0.950 . S
C1563 C1562 1.349 . S
C1563 C1575 1.349 . S
C1564 C1562 1.327 . S
C1564 C1580 1.429 . S
C1564 H1586 0.950 . S
C1565 H1561 0.949 . S
C1565 C1573 1.574 . S
C1565 C1581 1.368 . S
H1566 C1574 0.950 . S
H1567 C1572 0.950 . S
H1568 C1573 0.949 . S
H1569 C1575 0.950 . S
H1570 C1576 0.950 . S
H1571 C1577 0.949 . S
C1572 H1567 0.950 . S
C1572 C1574 1.327 . S
C1572 C1578 1.429 . S
C1573 C1565 1.574 . S
C1573 H1568 0.949 . S
C1573 C1579 1.368 . S
C1574 C1558 1.349 . S
C1574 H1566 0.950 . S
C1574 C1572 1.327 . S
C1575 C1563 1.349 . S
C1575 H1569 0.950 . S
C1575 C1576 1.327 . S
C1576 H1570 0.950 . S
C1576 C1575 1.327 . S
C1576 C1580 1.429 . S
C1577 C1560 1.574 . S
C1577 H1571 0.949 . S
C1577 C1581 1.368 . S
C1578 C1559 1.429 . S
C1578 C1572 1.429 . S
C1578 C1579 1.523 . S
C1579 C1560 1.368 . S
C1579 C1573 1.368 . S
C1579 C1578 1.523 . S
C1580 C1564 1.429 . S
C1580 C1576 1.429 . S
C1580 C1581 1.523 . S
C1581 C1565 1.368 . S
C1581 C1577 1.368 . S
C1581 C1580 1.523 . S
H1582 C1557 0.950 . S
H1583 C1559 0.950 . S
H1584 C1560 0.949 . S
H1585 C1562 0.950 . S
H1586 C1564 0.950 . S
C1587 C1588 1.349 . S
C1587 C1589 1.327 . S
C1587 H1612 0.950 . S
C1588 C1587 1.349 . S
C1588 C1604 1.349 . S
C1589 C1587 1.327 . S
C1589 C1608 1.429 . S
C1589 H1613 0.950 . S
C1590 C1607 1.574 . S
C1590 C1609 1.368 . S
C1590 H1614 0.949 . S
H1591 C1595 0.949 . S
C1592 C1593 1.349 . S
C1592 C1594 1.327 . S
C1592 H1615 0.950 . S
C1593 C1592 1.349 . S
C1593 C1605 1.349 . S
C1594 C1592 1.327 . S
C1594 C1610 1.429 . S
C1594 H1616 0.950 . S
C1595 H1591 0.949 . S
C1595 C1603 1.574 . S
C1595 C1611 1.368 . S
H1596 C1604 0.950 . S
H1597 C1602 0.950 . S
H1598 C1603 0.949 . S
H1599 C1605 0.950 . S
H1600 C1606 0.950 . S
H1601 C1607 0.949 . S
C1602 H1597 0.950 . S
C1602 C1604 1.327 . S
C1602 C1608 1.429 . S
C1603 C1595 1.574 . S
C1603 H1598 0.949 . S
C1603 C1609 1.368 . S
C1604 C1588 1.349 . S
C1604 H1596 0.950 . S
C1604 C1602 1.327 . S
C1605 C1593 1.349 . S
C1605 H1599 0.950 . S
C1605 C1606 1.327 . S
C1606 H1600 0.950 . S
C1606 C1605 1.327 . S
C1606 C1610 1.429 . S
C1607 C1590 1.574 . S
C1607 H1601 0.949 . S
C1607 C1611 1.368 . S
C1608 C1589 1.429 . S
C1608 C1602 1.429 . S
C1608 C1609 1.523 . S
C1609 C1590 1.368 . S
C1609 C1603 1.368 . S
C1609 C1608 1.523 . S
C1610 C1594 1.429 . S
C1610 C1606 1.429 . S
C1610 C1611 1.523 . S
C1611 C1595 1.368 . S
C1611 C1607 1.368 . S
C1611 C1610 1.523 . S
H1612 C1587 0.950 . S
H1613 C1589 0.950 . S
H1614 C1590 0.949 . S
H1615 C1592 0.950 . S
H1616 C1594 0.950 . S
C1617 C1618 1.349 . S
C1617 C1619 1.327 . S
C1617 H1642 0.950 . S
C1618 C1617 1.349 . S
C1618 C1634 1.349 . S
C1619 C1617 1.327 . S
C1619 C1638 1.429 . S
C1619 H1643 0.950 . S
C1620 C1637 1.574 . S
C1620 C1639 1.368 . S
C1620 H1644 0.949 . S
H1621 C1625 0.949 . S
C1622 C1623 1.349 . S
C1622 C1624 1.327 . S
C1622 H1645 0.950 . S
C1623 C1622 1.349 . S
C1623 C1635 1.349 . S
C1624 C1622 1.327 . S
C1624 C1640 1.429 . S
C1624 H1646 0.950 . S
C1625 H1621 0.949 . S
C1625 C1633 1.574 . S
C1625 C1641 1.368 . S
H1626 C1634 0.950 . S
H1627 C1632 0.950 . S
H1628 C1633 0.949 . S
H1629 C1635 0.948 . S
H1630 C1636 0.950 . S
H1631 C1637 0.949 . S
C1632 H1627 0.950 . S
C1632 C1634 1.327 . S
C1632 C1638 1.429 . S
C1633 C1625 1.574 . S
C1633 H1628 0.949 . S
C1633 C1639 1.368 . S
C1634 C1618 1.349 . S
C1634 H1626 0.950 . S
C1634 C1632 1.327 . S
C1635 C1623 1.349 . S
C1635 H1629 0.948 . S
C1635 C1636 1.327 . S
C1636 H1630 0.950 . S
C1636 C1635 1.327 . S
C1636 C1640 1.429 . S
C1637 C1620 1.574 . S
C1637 H1631 0.949 . S
C1637 C1641 1.368 . S
C1638 C1619 1.429 . S
C1638 C1632 1.429 . S
C1638 C1639 1.523 . S
C1639 C1620 1.368 . S
C1639 C1633 1.368 . S
C1639 C1638 1.523 . S
C1640 C1624 1.429 . S
C1640 C1636 1.429 . S
C1640 C1641 1.523 . S
C1641 C1625 1.368 . S
C1641 C1637 1.368 . S
C1641 C1640 1.523 . S
H1642 C1617 0.950 . S
H1643 C1619 0.950 . S
H1644 C1620 0.949 . S
H1645 C1622 0.950 . S
H1646 C1624 0.950 . S
C1647 C1648 1.349 . S
C1647 C1649 1.327 . S
C1647 H1672 0.950 . S
C1648 C1647 1.349 . S
C1648 C1664 1.349 . S
C1649 C1647 1.327 . S
C1649 C1668 1.429 . S
C1649 H1673 0.950 . S
C1650 C1667 1.574 . S
C1650 C1669 1.368 . S
C1650 H1674 0.949 . S
H1651 C1655 0.949 . S
C1652 C1653 1.349 . S
C1652 C1654 1.327 . S
C1652 H1675 0.950 . S
C1653 C1652 1.349 . S
C1653 C1665 1.349 . S
C1654 C1652 1.327 . S
C1654 C1670 1.429 . S
C1654 H1676 0.950 . S
C1655 H1651 0.949 . S
C1655 C1663 1.574 . S
C1655 C1671 1.368 . S
H1656 C1664 0.950 . S
H1657 C1662 0.950 . S
H1658 C1663 0.949 . S
H1659 C1665 0.950 . S
H1660 C1666 0.950 . S
H1661 C1667 0.949 . S
C1662 H1657 0.950 . S
C1662 C1664 1.327 . S
C1662 C1668 1.429 . S
C1663 C1655 1.574 . S
C1663 H1658 0.949 . S
C1663 C1669 1.368 . S
C1664 C1648 1.349 . S
C1664 H1656 0.950 . S
C1664 C1662 1.327 . S
C1665 C1653 1.349 . S
C1665 H1659 0.950 . S
C1665 C1666 1.327 . S
C1666 H1660 0.950 . S
C1666 C1665 1.327 . S
C1666 C1670 1.429 . S
C1667 C1650 1.574 . S
C1667 H1661 0.949 . S
C1667 C1671 1.368 . S
C1668 C1649 1.429 . S
C1668 C1662 1.429 . S
C1668 C1669 1.523 . S
C1669 C1650 1.368 . S
C1669 C1663 1.368 . S
C1669 C1668 1.523 . S
C1670 C1654 1.429 . S
C1670 C1666 1.429 . S
C1670 C1671 1.523 . S
C1671 C1655 1.368 . S
C1671 C1667 1.368 . S
C1671 C1670 1.523 . S
H1672 C1647 0.950 . S
H1673 C1649 0.950 . S
H1674 C1650 0.949 . S
H1675 C1652 0.950 . S
H1676 C1654 0.950 . S
C1677 C1678 1.349 . S
C1677 C1679 1.327 . S
C1677 H1702 0.950 . S
C1678 C1677 1.349 . S
C1678 C1694 1.349 . S
C1679 C1677 1.327 . S
C1679 C1698 1.429 . S
C1679 H1703 0.950 . S
C1680 C1697 1.574 . S
C1680 C1699 1.368 . S
C1680 H1704 0.949 . S
H1681 C1685 0.949 . S
C1682 C1683 1.349 . S
C1682 C1684 1.327 . S
C1682 H1705 0.950 . S
C1683 C1682 1.349 . S
C1683 C1695 1.349 . S
C1684 C1682 1.327 . S
C1684 C1700 1.429 . S
C1684 H1706 0.950 . S
C1685 H1681 0.949 . S
C1685 C1693 1.574 . S
C1685 C1701 1.368 . S
H1686 C1694 0.950 . S
H1687 C1692 0.950 . S
H1688 C1693 0.949 . S
H1689 C1695 0.950 . S
H1690 C1696 0.950 . S
H1691 C1697 0.949 . S
C1692 H1687 0.950 . S
C1692 C1694 1.327 . S
C1692 C1698 1.429 . S
C1693 C1685 1.574 . S
C1693 H1688 0.949 . S
C1693 C1699 1.368 . S
C1694 C1678 1.349 . S
C1694 H1686 0.950 . S
C1694 C1692 1.327 . S
C1695 C1683 1.349 . S
C1695 H1689 0.950 . S
C1695 C1696 1.327 . S
C1696 H1690 0.950 . S
C1696 C1695 1.327 . S
C1696 C1700 1.429 . S
C1697 C1680 1.574 . S
C1697 H1691 0.949 . S
C1697 C1701 1.368 . S
C1698 C1679 1.429 . S
C1698 C1692 1.429 . S
C1698 C1699 1.523 . S
C1699 C1680 1.368 . S
C1699 C1693 1.368 . S
C1699 C1698 1.523 . S
C1700 C1684 1.429 . S
C1700 C1696 1.429 . S
C1700 C1701 1.523 . S
C1701 C1685 1.368 . S
C1701 C1697 1.368 . S
C1701 C1700 1.523 . S
H1702 C1677 0.950 . S
H1703 C1679 0.950 . S
H1704 C1680 0.949 . S
H1705 C1682 0.950 . S
H1706 C1684 0.950 . S
C1707 C1708 1.349 . S
C1707 C1709 1.327 . S
C1707 H1732 0.950 . S
C1708 C1707 1.349 . S
C1708 C1724 1.349 . S
C1709 C1707 1.327 . S
C1709 C1728 1.429 . S
C1709 H1733 0.950 . S
C1710 C1727 1.574 . S
C1710 C1729 1.368 . S
C1710 H1734 0.949 . S
H1711 C1715 0.949 . S
C1712 C1713 1.349 . S
C1712 C1714 1.327 . S
C1712 H1735 0.950 . S
C1713 C1712 1.349 . S
C1713 C1725 1.349 . S
C1714 C1712 1.327 . S
C1714 C1730 1.429 . S
C1714 H1736 0.950 . S
C1715 H1711 0.949 . S
C1715 C1723 1.574 . S
C1715 C1731 1.368 . S
H1716 C1724 0.950 . S
H1717 C1722 0.950 . S
H1718 C1723 0.949 . S
H1719 C1725 0.950 . S
H1720 C1726 0.950 . S
H1721 C1727 0.949 . S
C1722 H1717 0.950 . S
C1722 C1724 1.327 . S
C1722 C1728 1.429 . S
C1723 C1715 1.574 . S
C1723 H1718 0.949 . S
C1723 C1729 1.368 . S
C1724 C1708 1.349 . S
C1724 H1716 0.950 . S
C1724 C1722 1.327 . S
C1725 C1713 1.349 . S
C1725 H1719 0.950 . S
C1725 C1726 1.327 . S
C1726 H1720 0.950 . S
C1726 C1725 1.327 . S
C1726 C1730 1.429 . S
C1727 C1710 1.574 . S
C1727 H1721 0.949 . S
C1727 C1731 1.368 . S
C1728 C1709 1.429 . S
C1728 C1722 1.429 . S
C1728 C1729 1.523 . S
C1729 C1710 1.368 . S
C1729 C1723 1.368 . S
C1729 C1728 1.523 . S
C1730 C1714 1.429 . S
C1730 C1726 1.429 . S
C1730 C1731 1.523 . S
C1731 C1715 1.368 . S
C1731 C1727 1.368 . S
C1731 C1730 1.523 . S
H1732 C1707 0.950 . S
H1733 C1709 0.950 . S
H1734 C1710 0.949 . S
H1735 C1712 0.950 . S
H1736 C1714 0.950 . S
C1737 C1738 1.349 . S
C1737 C1739 1.327 . S
C1737 H1762 0.950 . S
C1738 C1737 1.349 . S
C1738 C1754 1.349 . S
C1739 C1737 1.327 . S
C1739 C1758 1.429 . S
C1739 H1763 0.950 . S
C1740 C1757 1.574 . S
C1740 C1759 1.368 . S
C1740 H1764 0.949 . S
H1741 C1745 0.949 . S
C1742 C1743 1.349 . S
C1742 C1744 1.327 . S
C1742 H1765 0.950 . S
C1743 C1742 1.349 . S
C1743 C1755 1.349 . S
C1744 C1742 1.327 . S
C1744 C1760 1.429 . S
C1744 H1766 0.950 . S
C1745 H1741 0.949 . S
C1745 C1753 1.574 . S
C1745 C1761 1.368 . S
H1746 C1754 0.950 . S
H1747 C1752 0.950 . S
H1748 C1753 0.949 . S
H1749 C1755 0.950 . S
H1750 C1756 0.950 . S
H1751 C1757 0.949 . S
C1752 H1747 0.950 . S
C1752 C1754 1.327 . S
C1752 C1758 1.429 . S
C1753 C1745 1.574 . S
C1753 H1748 0.949 . S
C1753 C1759 1.368 . S
C1754 C1738 1.349 . S
C1754 H1746 0.950 . S
C1754 C1752 1.327 . S
C1755 C1743 1.349 . S
C1755 H1749 0.950 . S
C1755 C1756 1.327 . S
C1756 H1750 0.950 . S
C1756 C1755 1.327 . S
C1756 C1760 1.429 . S
C1757 C1740 1.574 . S
C1757 H1751 0.949 . S
C1757 C1761 1.368 . S
C1758 C1739 1.429 . S
C1758 C1752 1.429 . S
C1758 C1759 1.523 . S
C1759 C1740 1.368 . S
C1759 C1753 1.368 . S
C1759 C1758 1.523 . S
C1760 C1744 1.429 . S
C1760 C1756 1.429 . S
C1760 C1761 1.523 . S
C1761 C1745 1.368 . S
C1761 C1757 1.368 . S
C1761 C1760 1.523 . S
H1762 C1737 0.950 . S
H1763 C1739 0.950 . S
H1764 C1740 0.949 . S
H1765 C1742 0.950 . S
H1766 C1744 0.950 . S
C1767 C1768 1.349 . S
C1767 C1769 1.327 . S
C1767 H1792 0.950 . S
C1768 C1767 1.349 . S
C1768 C1784 1.349 . S
C1769 C1767 1.327 . S
C1769 C1788 1.429 . S
C1769 H1793 0.950 . S
C1770 C1787 1.574 . S
C1770 C1789 1.368 . S
C1770 H1794 0.949 . S
H1771 C1775 0.949 . S
C1772 C1773 1.349 . S
C1772 C1774 1.327 . S
C1772 H1795 0.950 . S
C1773 C1772 1.349 . S
C1773 C1785 1.349 . S
C1774 C1772 1.327 . S
C1774 C1790 1.429 . S
C1774 H1796 0.950 . S
C1775 H1771 0.949 . S
C1775 C1783 1.574 . S
C1775 C1791 1.368 . S
H1776 C1784 0.950 . S
H1777 C1782 0.950 . S
H1778 C1783 0.949 . S
H1779 C1785 0.950 . S
H1780 C1786 0.950 . S
H1781 C1787 0.949 . S
C1782 H1777 0.950 . S
C1782 C1784 1.327 . S
C1782 C1788 1.429 . S
C1783 C1775 1.574 . S
C1783 H1778 0.949 . S
C1783 C1789 1.368 . S
C1784 C1768 1.349 . S
C1784 H1776 0.950 . S
C1784 C1782 1.327 . S
C1785 C1773 1.349 . S
C1785 H1779 0.950 . S
C1785 C1786 1.327 . S
C1786 H1780 0.950 . S
C1786 C1785 1.327 . S
C1786 C1790 1.429 . S
C1787 C1770 1.574 . S
C1787 H1781 0.949 . S
C1787 C1791 1.368 . S
C1788 C1769 1.429 . S
C1788 C1782 1.429 . S
C1788 C1789 1.523 . S
C1789 C1770 1.368 . S
C1789 C1783 1.368 . S
C1789 C1788 1.523 . S
C1790 C1774 1.429 . S
C1790 C1786 1.429 . S
C1790 C1791 1.523 . S
C1791 C1775 1.368 . S
C1791 C1787 1.368 . S
C1791 C1790 1.523 . S
H1792 C1767 0.950 . S
H1793 C1769 0.950 . S
H1794 C1770 0.949 . S
H1795 C1772 0.950 . S
H1796 C1774 0.950 . S
C1797 C1798 1.349 . S
C1797 C1799 1.327 . S
C1797 H1822 0.950 . S
C1798 C1797 1.349 . S
C1798 C1814 1.349 . S
C1799 C1797 1.327 . S
C1799 C1818 1.429 . S
C1799 H1823 0.950 . S
C1800 C1817 1.574 . S
C1800 C1819 1.368 . S
C1800 H1824 0.949 . S
H1801 C1805 0.949 . S
C1802 C1803 1.349 . S
C1802 C1804 1.327 . S
C1802 H1825 0.950 . S
C1803 C1802 1.349 . S
C1803 C1815 1.349 . S
C1804 C1802 1.327 . S
C1804 C1820 1.429 . S
C1804 H1826 0.950 . S
C1805 H1801 0.949 . S
C1805 C1813 1.574 . S
C1805 C1821 1.368 . S
H1806 C1814 0.950 . S
H1807 C1812 0.950 . S
H1808 C1813 0.949 . S
H1809 C1815 0.950 . S
H1810 C1816 0.950 . S
H1811 C1817 0.949 . S
C1812 H1807 0.950 . S
C1812 C1814 1.327 . S
C1812 C1818 1.429 . S
C1813 C1805 1.574 . S
C1813 H1808 0.949 . S
C1813 C1819 1.368 . S
C1814 C1798 1.349 . S
C1814 H1806 0.950 . S
C1814 C1812 1.327 . S
C1815 C1803 1.349 . S
C1815 H1809 0.950 . S
C1815 C1816 1.327 . S
C1816 H1810 0.950 . S
C1816 C1815 1.327 . S
C1816 C1820 1.429 . S
C1817 C1800 1.574 . S
C1817 H1811 0.949 . S
C1817 C1821 1.368 . S
C1818 C1799 1.429 . S
C1818 C1812 1.429 . S
C1818 C1819 1.523 . S
C1819 C1800 1.368 . S
C1819 C1813 1.368 . S
C1819 C1818 1.523 . S
C1820 C1804 1.429 . S
C1820 C1816 1.429 . S
C1820 C1821 1.523 . S
C1821 C1805 1.368 . S
C1821 C1817 1.368 . S
C1821 C1820 1.523 . S
H1822 C1797 0.950 . S
H1823 C1799 0.950 . S
H1824 C1800 0.949 . S
H1825 C1802 0.950 . S
H1826 C1804 0.950 . S
C1827 C1828 1.349 . S
C1827 C1829 1.327 . S
C1827 H1852 0.950 . S
C1828 C1827 1.349 . S
C1828 C1844 1.349 . S
C1829 C1827 1.327 . S
C1829 C1848 1.429 . S
C1829 H1853 0.950 . S
C1830 C1847 1.574 . S
C1830 C1849 1.368 . S
C1830 H1854 0.949 . S
H1831 C1835 0.949 . S
C1832 C1833 1.349 . S
C1832 C1834 1.327 . S
C1832 H1855 0.950 . S
C1833 C1832 1.349 . S
C1833 C1845 1.349 . S
C1834 C1832 1.327 . S
C1834 C1850 1.429 . S
C1834 H1856 0.950 . S
C1835 H1831 0.949 . S
C1835 C1843 1.574 . S
C1835 C1851 1.368 . S
H1836 C1844 0.950 . S
H1837 C1842 0.950 . S
H1838 C1843 0.949 . S
H1839 C1845 0.950 . S
H1840 C1846 0.950 . S
H1841 C1847 0.949 . S
C1842 H1837 0.950 . S
C1842 C1844 1.327 . S
C1842 C1848 1.429 . S
C1843 C1835 1.574 . S
C1843 H1838 0.949 . S
C1843 C1849 1.368 . S
C1844 C1828 1.349 . S
C1844 H1836 0.950 . S
C1844 C1842 1.327 . S
C1845 C1833 1.349 . S
C1845 H1839 0.950 . S
C1845 C1846 1.327 . S
C1846 H1840 0.950 . S
C1846 C1845 1.327 . S
C1846 C1850 1.429 . S
C1847 C1830 1.574 . S
C1847 H1841 0.949 . S
C1847 C1851 1.368 . S
C1848 C1829 1.429 . S
C1848 C1842 1.429 . S
C1848 C1849 1.523 . S
C1849 C1830 1.368 . S
C1849 C1843 1.368 . S
C1849 C1848 1.523 . S
C1850 C1834 1.429 . S
C1850 C1846 1.429 . S
C1850 C1851 1.523 . S
C1851 C1835 1.368 . S
C1851 C1847 1.368 . S
C1851 C1850 1.523 . S
H1852 C1827 0.950 . S
H1853 C1829 0.950 . S
H1854 C1830 0.949 . S
H1855 C1832 0.950 . S
H1856 C1834 0.950 . S
C1857 C1858 1.349 . S
C1857 C1859 1.327 . S
C1857 H1882 0.950 . S
C1858 C1857 1.349 . S
C1858 C1874 1.349 . S
C1859 C1857 1.327 . S
C1859 C1878 1.429 . S
C1859 H1883 0.950 . S
C1860 C1877 1.574 . S
C1860 C1879 1.368 . S
C1860 H1884 0.949 . S
H1861 C1865 0.949 . S
C1862 C1863 1.349 . S
C1862 C1864 1.327 . S
C1862 H1885 0.950 . S
C1863 C1862 1.349 . S
C1863 C1875 1.349 . S
C1864 C1862 1.327 . S
C1864 C1880 1.429 . S
C1864 H1886 0.950 . S
C1865 H1861 0.949 . S
C1865 C1873 1.574 . S
C1865 C1881 1.368 . S
H1866 C1874 0.950 . S
H1867 C1872 0.950 . S
H1868 C1873 0.949 . S
H1869 C1875 0.950 . S
H1870 C1876 0.950 . S
H1871 C1877 0.949 . S
C1872 H1867 0.950 . S
C1872 C1874 1.327 . S
C1872 C1878 1.429 . S
C1873 C1865 1.574 . S
C1873 H1868 0.949 . S
C1873 C1879 1.368 . S
C1874 C1858 1.349 . S
C1874 H1866 0.950 . S
C1874 C1872 1.327 . S
C1875 C1863 1.349 . S
C1875 H1869 0.950 . S
C1875 C1876 1.327 . S
C1876 H1870 0.950 . S
C1876 C1875 1.327 . S
C1876 C1880 1.429 . S
C1877 C1860 1.574 . S
C1877 H1871 0.949 . S
C1877 C1881 1.368 . S
C1878 C1859 1.429 . S
C1878 C1872 1.429 . S
C1878 C1879 1.523 . S
C1879 C1860 1.368 . S
C1879 C1873 1.368 . S
C1879 C1878 1.523 . S
C1880 C1864 1.429 . S
C1880 C1876 1.429 . S
C1880 C1881 1.523 . S
C1881 C1865 1.368 . S
C1881 C1877 1.368 . S
C1881 C1880 1.523 . S
H1882 C1857 0.950 . S
H1883 C1859 0.950 . S
H1884 C1860 0.949 . S
H1885 C1862 0.950 . S
H1886 C1864 0.950 . S
C1887 C1888 1.349 . S
C1887 C1889 1.327 . S
C1887 H1912 0.950 . S
C1888 C1887 1.349 . S
C1888 C1904 1.349 . S
C1889 C1887 1.327 . S
C1889 C1908 1.429 . S
C1889 H1913 0.950 . S
C1890 C1907 1.574 . S
C1890 C1909 1.368 . S
C1890 H1914 0.949 . S
H1891 C1895 0.949 . S
C1892 C1893 1.349 . S
C1892 C1894 1.327 . S
C1892 H1915 0.950 . S
C1893 C1892 1.349 . S
C1893 C1905 1.349 . S
C1894 C1892 1.327 . S
C1894 C1910 1.429 . S
C1894 H1916 0.950 . S
C1895 H1891 0.949 . S
C1895 C1903 1.574 . S
C1895 C1911 1.368 . S
H1896 C1904 0.950 . S
H1897 C1902 0.950 . S
H1898 C1903 0.949 . S
H1899 C1905 0.950 . S
H1900 C1906 0.950 . S
H1901 C1907 0.949 . S
C1902 H1897 0.950 . S
C1902 C1904 1.327 . S
C1902 C1908 1.429 . S
C1903 C1895 1.574 . S
C1903 H1898 0.949 . S
C1903 C1909 1.368 . S
C1904 C1888 1.349 . S
C1904 H1896 0.950 . S
C1904 C1902 1.327 . S
C1905 C1893 1.349 . S
C1905 H1899 0.950 . S
C1905 C1906 1.327 . S
C1906 H1900 0.950 . S
C1906 C1905 1.327 . S
C1906 C1910 1.429 . S
C1907 C1890 1.574 . S
C1907 H1901 0.949 . S
C1907 C1911 1.368 . S
C1908 C1889 1.429 . S
C1908 C1902 1.429 . S
C1908 C1909 1.523 . S
C1909 C1890 1.368 . S
C1909 C1903 1.368 . S
C1909 C1908 1.523 . S
C1910 C1894 1.429 . S
C1910 C1906 1.429 . S
C1910 C1911 1.523 . S
C1911 C1895 1.368 . S
C1911 C1907 1.368 . S
C1911 C1910 1.523 . S
H1912 C1887 0.950 . S
H1913 C1889 0.950 . S
H1914 C1890 0.949 . S
H1915 C1892 0.950 . S
H1916 C1894 0.950 . S
C1917 C1918 1.349 . S
C1917 C1919 1.327 . S
C1917 H1942 0.950 . S
C1918 C1917 1.349 . S
C1918 C1934 1.349 . S
C1919 C1917 1.327 . S
C1919 C1938 1.429 . S
C1919 H1943 0.950 . S
C1920 C1937 1.574 . S
C1920 C1939 1.368 . S
C1920 H1944 0.949 . S
H1921 C1925 0.949 . S
C1922 C1923 1.349 . S
C1922 C1924 1.327 . S
C1922 H1945 0.950 . S
C1923 C1922 1.349 . S
C1923 C1935 1.349 . S
C1924 C1922 1.327 . S
C1924 C1940 1.429 . S
C1924 H1946 0.950 . S
C1925 H1921 0.949 . S
C1925 C1933 1.574 . S
C1925 C1941 1.368 . S
H1926 C1934 0.950 . S
H1927 C1932 0.950 . S
H1928 C1933 0.949 . S
H1929 C1935 0.950 . S
H1930 C1936 0.950 . S
H1931 C1937 0.949 . S
C1932 H1927 0.950 . S
C1932 C1934 1.327 . S
C1932 C1938 1.429 . S
C1933 C1925 1.574 . S
C1933 H1928 0.949 . S
C1933 C1939 1.368 . S
C1934 C1918 1.349 . S
C1934 H1926 0.950 . S
C1934 C1932 1.327 . S
C1935 C1923 1.349 . S
C1935 H1929 0.950 . S
C1935 C1936 1.327 . S
C1936 H1930 0.950 . S
C1936 C1935 1.327 . S
C1936 C1940 1.429 . S
C1937 C1920 1.574 . S
C1937 H1931 0.949 . S
C1937 C1941 1.368 . S
C1938 C1919 1.429 . S
C1938 C1932 1.429 . S
C1938 C1939 1.523 . S
C1939 C1920 1.368 . S
C1939 C1933 1.368 . S
C1939 C1938 1.523 . S
C1940 C1924 1.429 . S
C1940 C1936 1.429 . S
C1940 C1941 1.523 . S
C1941 C1925 1.368 . S
C1941 C1937 1.368 . S
C1941 C1940 1.523 . S
H1942 C1917 0.950 . S
H1943 C1919 0.950 . S
H1944 C1920 0.949 . S
H1945 C1922 0.950 . S
H1946 C1924 0.950 . S
C1947 C1948 1.349 . S
C1947 C1949 1.327 . S
C1947 H1972 0.950 . S
C1948 C1947 1.349 . S
C1948 C1964 1.349 . S
C1949 C1947 1.327 . S
C1949 C1968 1.429 . S
C1949 H1973 0.950 . S
C1950 C1967 1.574 . S
C1950 C1969 1.368 . S
C1950 H1974 0.949 . S
H1951 C1955 0.949 . S
C1952 C1953 1.349 . S
C1952 C1954 1.327 . S
C1952 H1975 0.950 . S
C1953 C1952 1.349 . S
C1953 C1965 1.349 . S
C1954 C1952 1.327 . S
C1954 C1970 1.429 . S
C1954 H1976 0.950 . S
C1955 H1951 0.949 . S
C1955 C1963 1.574 . S
C1955 C1971 1.368 . S
H1956 C1964 0.950 . S
H1957 C1962 0.950 . S
H1958 C1963 0.949 . S
H1959 C1965 0.950 . S
H1960 C1966 0.950 . S
H1961 C1967 0.949 . S
C1962 H1957 0.950 . S
C1962 C1964 1.327 . S
C1962 C1968 1.429 . S
C1963 C1955 1.574 . S
C1963 H1958 0.949 . S
C1963 C1969 1.368 . S
C1964 C1948 1.349 . S
C1964 H1956 0.950 . S
C1964 C1962 1.327 . S
C1965 C1953 1.349 . S
C1965 H1959 0.950 . S
C1965 C1966 1.327 . S
C1966 H1960 0.950 . S
C1966 C1965 1.327 . S
C1966 C1970 1.429 . S
C1967 C1950 1.574 . S
C1967 H1961 0.949 . S
C1967 C1971 1.368 . S
C1968 C1949 1.429 . S
C1968 C1962 1.429 . S
C1968 C1969 1.523 . S
C1969 C1950 1.368 . S
C1969 C1963 1.368 . S
C1969 C1968 1.523 . S
C1970 C1954 1.429 . S
C1970 C1966 1.429 . S
C1970 C1971 1.523 . S
C1971 C1955 1.368 . S
C1971 C1967 1.368 . S
C1971 C1970 1.523 . S
H1972 C1947 0.950 . S
H1973 C1949 0.950 . S
H1974 C1950 0.949 . S
H1975 C1952 0.950 . S
H1976 C1954 0.950 . S
C1977 C1978 1.349 . S
C1977 C1979 1.327 . S
C1977 H2002 0.950 . S
C1978 C1977 1.349 . S
C1978 C1994 1.349 . S
C1979 C1977 1.327 . S
C1979 C1998 1.429 . S
C1979 H2003 0.950 . S
C1980 C1997 1.574 . S
C1980 C1999 1.368 . S
C1980 H2004 0.949 . S
H1981 C1985 0.949 . S
C1982 C1983 1.349 . S
C1982 C1984 1.327 . S
C1982 H2005 0.950 . S
C1983 C1982 1.349 . S
C1983 C1995 1.349 . S
C1984 C1982 1.327 . S
C1984 C2000 1.429 . S
C1984 H2006 0.950 . S
C1985 H1981 0.949 . S
C1985 C1993 1.574 . S
C1985 C2001 1.368 . S
H1986 C1994 0.950 . S
H1987 C1992 0.950 . S
H1988 C1993 0.949 . S
H1989 C1995 0.950 . S
H1990 C1996 0.950 . S
H1991 C1997 0.949 . S
C1992 H1987 0.950 . S
C1992 C1994 1.327 . S
C1992 C1998 1.429 . S
C1993 C1985 1.574 . S
C1993 H1988 0.949 . S
C1993 C1999 1.368 . S
C1994 C1978 1.349 . S
C1994 H1986 0.950 . S
C1994 C1992 1.327 . S
C1995 C1983 1.349 . S
C1995 H1989 0.950 . S
C1995 C1996 1.327 . S
C1996 H1990 0.950 . S
C1996 C1995 1.327 . S
C1996 C2000 1.429 . S
C1997 C1980 1.574 . S
C1997 H1991 0.949 . S
C1997 C2001 1.368 . S
C1998 C1979 1.429 . S
C1998 C1992 1.429 . S
C1998 C1999 1.523 . S
C1999 C1980 1.368 . S
C1999 C1993 1.368 . S
C1999 C1998 1.523 . S
C2000 C1984 1.429 . S
C2000 C1996 1.429 . S
C2000 C2001 1.523 . S
C2001 C1985 1.368 . S
C2001 C1997 1.368 . S
C2001 C2000 1.523 . S
H2002 C1977 0.950 . S
H2003 C1979 0.950 . S
H2004 C1980 0.949 . S
H2005 C1982 0.950 . S
H2006 C1984 0.950 . S
C388 C147 1.405 . S
C393 C215 1.374 . S
C418 C158 1.389 . S
C423 C236 1.354 . S
C448 C136 1.341 . S
C453 C258 1.200 . S
C478 C125 1.331 . S
C483 C237 1.185 . S
C513 C257 1.358 . S
C508 C103 1.394 . S
C538 C114 1.357 . S
C543 C216 1.201 . S
C573 C211 1.369 . S
C568 C131 1.402 1_554 S
C603 C232 1.369 . S
C598 C109 1.401 1_554 S
C628 C120 1.465 . S
C633 C255 1.262 . S
C658 C153 1.433 . S
C663 C234 1.242 . S
C688 C164 1.381 . S
C693 C253 1.343 . S
C723 C213 1.244 1_554 S
C718 C142 1.447 . S
C753 C278 1.374 . S
C748 C15 1.405 . S
C778 C26 1.389 . S
C783 C299 1.354 . S
C808 C4 1.340 . S
C813 C321 1.200 . S
C838 C191 1.330 . S
C843 C300 1.185 . S
C868 C169 1.394 . S
C873 C320 1.358 . S
C898 C180 1.347 . S
C903 C279 1.200 . S
C928 C197 1.414 . S
C933 C274 1.370 . S
C958 C175 1.401 . S
C963 C295 1.369 . S
C993 C318 1.262 . S
C988 C186 1.465 . S
C1018 C21 1.433 . S
C1023 C297 1.242 . S
C1053 C316 1.342 . S
C1048 C32 1.380 . S
C1078 C10 1.448 . S
C1083 C276 1.251 . S
C1113 C341 1.374 . S
C1108 C81 1.405 . S
C1138 C92 1.389 . S
C1143 C362 1.354 . S
C1173 C384 1.201 . S
C1168 C70 1.341 . S
C1203 C363 1.186 . S
C1198 C59 1.331 . S
C1233 C383 1.357 . S
C1228 C37 1.394 . S
C1258 C48 1.348 . S
C1263 C342 1.201 . S
C1288 C65 1.413 . S
C1293 C337 1.369 . S
C1318 C43 1.401 . S
C1323 C358 1.370 . S
C1353 C381 1.261 . S
C1348 C54 1.465 . S
C1378 C87 1.433 . S
C1383 C360 1.242 . S
C1408 C98 1.381 . S
C1413 C379 1.343 . S
C1438 C76 1.447 . S
C1443 C339 1.251 . S
C1468 C170 1.475 . S
C1473 C214 1.460 . S
C1503 C235 1.518 . S
C1498 C181 1.533 . S
C1528 C192 1.554 . S
C1533 C254 1.495 . S
C1558 C71 1.637 . S
C1563 C233 1.576 . S
C1588 C82 1.560 . S
C1593 C256 1.541 . S
C1623 C212 1.520 . S
C1618 C93 1.577 . S
C1648 C38 1.476 . S
C1653 C277 1.460 . S
C1678 C49 1.533 . S
C1683 C298 1.518 . S
C1708 C60 1.554 . S
C1713 C317 1.495 . S
C1738 C137 1.637 . S
C1743 C296 1.576 . S
C1773 C319 1.541 . S
C1768 C148 1.560 . S
C1798 C159 1.577 . S
C1803 C275 1.520 . S
C1828 C104 1.476 . S
C1833 C340 1.460 . S
C1858 C115 1.533 . S
C1863 C361 1.518 . S
C1893 C380 1.495 . S
C1888 C126 1.554 . S
C1918 C5 1.637 . S
C1923 C359 1.576 . S
C1948 C16 1.559 . S
C1953 C382 1.541 . S
C1978 C27 1.577 . S
C1983 C338 1.520 . S
