# Generated by pormake.
# Topology ssc, (4,4)-cn, num edge types: 1
# Building blocks:
#     Node 0, Type 0, BuildingBlock: CEKHIL_clean_sbu_0, # of connection points: 4
#     Node 1, Type 0, BuildingBlock: CEKHIL_clean_sbu_0, # of connection points: 4
#     Node 2, Type 0, BuildingBlock: CEKHIL_clean_sbu_0, # of connection points: 4
#     Node 3, Type 0, BuildingBlock: CEKHIL_clean_sbu_0, # of connection points: 4
#     Node 4, Type 0, BuildingBlock: CEKHIL_clean_sbu_0, # of connection points: 4
#     Node 5, Type 0, BuildingBlock: CEKHIL_clean_sbu_0, # of connection points: 4
#     Node 6, Type 0, BuildingBlock: CEKHIL_clean_sbu_0, # of connection points: 4
#     Node 7, Type 0, BuildingBlock: CEKHIL_clean_sbu_0, # of connection points: 4
#     Node 8, Type 0, BuildingBlock: CEKHIL_clean_sbu_0, # of connection points: 4
#     Node 9, Type 0, BuildingBlock: CEKHIL_clean_sbu_0, # of connection points: 4
#     Node 10, Type 0, BuildingBlock: CEKHIL_clean_sbu_0, # of connection points: 4
#     Node 11, Type 0, BuildingBlock: CEKHIL_clean_sbu_0, # of connection points: 4
#     Node 12, Type 1, BuildingBlock: GIZVER_clean_linker_0, # of connection points: 4
#     Node 13, Type 1, BuildingBlock: GIZVER_clean_linker_0, # of connection points: 4
#     Node 14, Type 1, BuildingBlock: GIZVER_clean_linker_0, # of connection points: 4
#     Node 15, Type 1, BuildingBlock: GIZVER_clean_linker_0, # of connection points: 4
#     Node 16, Type 1, BuildingBlock: GIZVER_clean_linker_0, # of connection points: 4
#     Node 17, Type 1, BuildingBlock: GIZVER_clean_linker_0, # of connection points: 4
#     Node 18, Type 1, BuildingBlock: GIZVER_clean_linker_0, # of connection points: 4
#     Node 19, Type 1, BuildingBlock: GIZVER_clean_linker_0, # of connection points: 4
#     Node 20, Type 1, BuildingBlock: GIZVER_clean_linker_0, # of connection points: 4
#     Node 21, Type 1, BuildingBlock: GIZVER_clean_linker_0, # of connection points: 4
#     Node 22, Type 1, BuildingBlock: GIZVER_clean_linker_0, # of connection points: 4
#     Node 23, Type 1, BuildingBlock: GIZVER_clean_linker_0, # of connection points: 4
#     Edge 24, Type (0, 1), BuildingBlock: KIFKEQ_clean_linker_1, # of connection points: 2
#     Edge 25, Type (0, 1), BuildingBlock: KIFKEQ_clean_linker_1, # of connection points: 2
#     Edge 26, Type (0, 1), BuildingBlock: KIFKEQ_clean_linker_1, # of connection points: 2
#     Edge 27, Type (0, 1), BuildingBlock: KIFKEQ_clean_linker_1, # of connection points: 2
#     Edge 28, Type (0, 1), BuildingBlock: KIFKEQ_clean_linker_1, # of connection points: 2
#     Edge 29, Type (0, 1), BuildingBlock: KIFKEQ_clean_linker_1, # of connection points: 2
#     Edge 30, Type (0, 1), BuildingBlock: KIFKEQ_clean_linker_1, # of connection points: 2
#     Edge 31, Type (0, 1), BuildingBlock: KIFKEQ_clean_linker_1, # of connection points: 2
#     Edge 32, Type (0, 1), BuildingBlock: KIFKEQ_clean_linker_1, # of connection points: 2
#     Edge 33, Type (0, 1), BuildingBlock: KIFKEQ_clean_linker_1, # of connection points: 2
#     Edge 34, Type (0, 1), BuildingBlock: KIFKEQ_clean_linker_1, # of connection points: 2
#     Edge 35, Type (0, 1), BuildingBlock: KIFKEQ_clean_linker_1, # of connection points: 2
#     Edge 36, Type (0, 1), BuildingBlock: KIFKEQ_clean_linker_1, # of connection points: 2
#     Edge 37, Type (0, 1), BuildingBlock: KIFKEQ_clean_linker_1, # of connection points: 2
#     Edge 38, Type (0, 1), BuildingBlock: KIFKEQ_clean_linker_1, # of connection points: 2
#     Edge 39, Type (0, 1), BuildingBlock: KIFKEQ_clean_linker_1, # of connection points: 2
#     Edge 40, Type (0, 1), BuildingBlock: KIFKEQ_clean_linker_1, # of connection points: 2
#     Edge 41, Type (0, 1), BuildingBlock: KIFKEQ_clean_linker_1, # of connection points: 2
#     Edge 42, Type (0, 1), BuildingBlock: KIFKEQ_clean_linker_1, # of connection points: 2
#     Edge 43, Type (0, 1), BuildingBlock: KIFKEQ_clean_linker_1, # of connection points: 2
#     Edge 44, Type (0, 1), BuildingBlock: KIFKEQ_clean_linker_1, # of connection points: 2
#     Edge 45, Type (0, 1), BuildingBlock: KIFKEQ_clean_linker_1, # of connection points: 2
#     Edge 46, Type (0, 1), BuildingBlock: KIFKEQ_clean_linker_1, # of connection points: 2
#     Edge 47, Type (0, 1), BuildingBlock: KIFKEQ_clean_linker_1, # of connection points: 2
#     Edge 48, Type (0, 1), BuildingBlock: KIFKEQ_clean_linker_1, # of connection points: 2
#     Edge 49, Type (0, 1), BuildingBlock: KIFKEQ_clean_linker_1, # of connection points: 2
#     Edge 50, Type (0, 1), BuildingBlock: KIFKEQ_clean_linker_1, # of connection points: 2
#     Edge 51, Type (0, 1), BuildingBlock: KIFKEQ_clean_linker_1, # of connection points: 2
#     Edge 52, Type (0, 1), BuildingBlock: KIFKEQ_clean_linker_1, # of connection points: 2
#     Edge 53, Type (0, 1), BuildingBlock: KIFKEQ_clean_linker_1, # of connection points: 2
#     Edge 54, Type (0, 1), BuildingBlock: KIFKEQ_clean_linker_1, # of connection points: 2
#     Edge 55, Type (0, 1), BuildingBlock: KIFKEQ_clean_linker_1, # of connection points: 2
#     Edge 56, Type (0, 1), BuildingBlock: KIFKEQ_clean_linker_1, # of connection points: 2
#     Edge 57, Type (0, 1), BuildingBlock: KIFKEQ_clean_linker_1, # of connection points: 2
#     Edge 58, Type (0, 1), BuildingBlock: KIFKEQ_clean_linker_1, # of connection points: 2
#     Edge 59, Type (0, 1), BuildingBlock: KIFKEQ_clean_linker_1, # of connection points: 2
#     Edge 60, Type (0, 1), BuildingBlock: KIFKEQ_clean_linker_1, # of connection points: 2
#     Edge 61, Type (0, 1), BuildingBlock: KIFKEQ_clean_linker_1, # of connection points: 2
#     Edge 62, Type (0, 1), BuildingBlock: KIFKEQ_clean_linker_1, # of connection points: 2
#     Edge 63, Type (0, 1), BuildingBlock: KIFKEQ_clean_linker_1, # of connection points: 2
#     Edge 64, Type (0, 1), BuildingBlock: KIFKEQ_clean_linker_1, # of connection points: 2
#     Edge 65, Type (0, 1), BuildingBlock: KIFKEQ_clean_linker_1, # of connection points: 2
#     Edge 66, Type (0, 1), BuildingBlock: KIFKEQ_clean_linker_1, # of connection points: 2
#     Edge 67, Type (0, 1), BuildingBlock: KIFKEQ_clean_linker_1, # of connection points: 2
#     Edge 68, Type (0, 1), BuildingBlock: KIFKEQ_clean_linker_1, # of connection points: 2
#     Edge 69, Type (0, 1), BuildingBlock: KIFKEQ_clean_linker_1, # of connection points: 2
#     Edge 70, Type (0, 1), BuildingBlock: KIFKEQ_clean_linker_1, # of connection points: 2
#     Edge 71, Type (0, 1), BuildingBlock: KIFKEQ_clean_linker_1, # of connection points: 2
# Relax obj value: 0.117
# Max RMSD: 0.302
# Mean RMSD: 0.276
data_MOF--net-ssc--node1-CEKHIL_clean_sbu_0--node2-GIZVER_clean_linker_0--edge1-KIFKEQ_clean_linker_1
_symmetry_space_group_name_H-M    P1
_symmetry_Int_Tables_number       1
_symmetry_cell_setting            triclinic
loop_
_symmetry_equiv_pos_as_xyz
'x, y, z'
_cell_length_a     31.517213
_cell_length_b     31.601768
_cell_length_c     31.477839
_cell_angle_alpha  91.35962
_cell_angle_beta   89.959369
_cell_angle_gamma 93.436561
loop_
_atom_site_label
_atom_site_type_symbol
_atom_site_fract_x
_atom_site_fract_y
_atom_site_fract_z
_atom_type_partial_charge
Co0 Co 0.04539 0.28617 0.10922 0.0
O1 O 0.08709 0.29549 0.06541 0.0
O2 O 0.02668 0.3279 0.07057 0.0
C3 C 0.08993 0.28926 0.16516 0.0
O4 O 0.99555 0.28622 0.15048 0.0
Co5 Co 0.04521 0.20449 0.16209 0.0
O6 O 9e-05 0.23177 0.1948 0.0
C7 C 0.0156 0.19831 0.07393 0.0
C8 C 0.06181 0.32232 0.05007 0.0
C9 C 0.98267 0.26486 0.1828 0.0
O10 O 0.01701 0.23907 0.07317 0.0
O11 O 0.02837 0.17782 0.1056 0.0
O12 O 0.07787 0.32385 0.14852 0.0
O13 O 0.07888 0.2545 0.14446 0.0
Co14 Co 0.02715 0.75032 0.42474 0.0
O15 O 0.07257 0.73111 0.45893 0.0
O16 O 0.0104 0.69603 0.44859 0.0
C17 C 0.06781 0.76974 0.36895 0.0
O18 O 0.97373 0.7572 0.3895 0.0
Co19 Co 0.02416 0.84372 0.39508 0.0
O20 O 0.97748 0.82042 0.35786 0.0
C21 C 0.00429 0.82256 0.484 0.0
C22 C 0.04824 0.69714 0.46509 0.0
C23 C 0.95964 0.78368 0.36323 0.0
O24 O 0.0042 0.78241 0.47548 0.0
O25 O 0.01428 0.8513 0.45725 0.0
O26 O 0.05541 0.73012 0.37348 0.0
O27 O 0.05833 0.79523 0.39957 0.0
Co28 Co 0.50345 0.72482 0.6028 0.0
O29 O 0.5455 0.73998 0.56064 0.0
O30 O 0.48511 0.77142 0.57003 0.0
C31 C 0.54914 0.72097 0.6574 0.0
O32 O 0.45371 0.7206 0.64415 0.0
Co33 Co 0.50169 0.6381 0.64655 0.0
O34 O 0.45788 0.66245 0.68335 0.0
C35 C 0.46918 0.64187 0.55942 0.0
C36 C 0.52098 0.76956 0.54988 0.0
C37 C 0.44071 0.69668 0.6746 0.0
O38 O 0.474 0.68261 0.56185 0.0
O39 O 0.48087 0.61786 0.58887 0.0
O40 O 0.5366 0.7573 0.64559 0.0
O41 O 0.53709 0.68858 0.63349 0.0
Co42 Co 0.52976 0.28999 0.92951 0.0
O43 O 0.55968 0.27786 0.98085 0.0
O44 O 0.49865 0.2457 0.95965 0.0
C45 C 0.58585 0.29097 0.88509 0.0
O46 O 0.4902 0.29107 0.87848 0.0
Co47 Co 0.54845 0.3728 0.87982 0.0
O48 O 0.51034 0.34489 0.83609 0.0
C49 C 0.50301 0.3763 0.96134 0.0
C50 C 0.52913 0.24925 0.98748 0.0
C51 C 0.48719 0.31153 0.84388 0.0
O52 O 0.499 0.33542 0.96122 0.0
O53 O 0.52451 0.39711 0.93341 0.0
O54 O 0.56705 0.25506 0.89587 0.0
O55 O 0.57302 0.32423 0.90465 0.0
Co56 Co 0.10665 0.98436 0.23186 0.0
O57 O 0.15664 0.95585 0.21518 0.0
O58 O 0.13545 0.9661 0.28161 0.0
C59 C 0.0623 0.95173 0.18386 0.0
O60 O 0.05735 0.01047 0.26258 0.0
Co61 Co 0.06004 0.04326 0.17313 0.0
O62 O 0.01326 0.03673 0.21533 0.0
C63 C 0.14326 0.07184 0.20939 0.0
C64 C 0.1632 0.95128 0.25557 0.0
C65 C 0.02179 0.02558 0.25281 0.0
O66 O 0.14144 0.03949 0.2334 0.0
O67 O 0.11509 0.07854 0.18143 0.0
O68 O 0.07082 0.93337 0.21917 0.0
O69 O 0.0829 0.98761 0.17739 0.0
Co70 Co 0.22995 0.91853 0.58059 0.0
O71 O 0.21917 0.95533 0.62846 0.0
O72 O 0.18365 0.95338 0.56763 0.0
C73 C 0.23483 0.85873 0.61725 0.0
O74 O 0.2292 0.88366 0.5254 0.0
Co75 Co 0.31476 0.87419 0.57131 0.0
O76 O 0.28647 0.84455 0.52172 0.0
C77 C 0.31359 0.96556 0.55705 0.0
C78 C 0.18869 0.96928 0.60587 0.0
C79 C 0.25109 0.85539 0.50715 0.0
O80 O 0.27261 0.96239 0.55733 0.0
O81 O 0.33633 0.93483 0.56619 0.0
O82 O 0.19782 0.87179 0.60746 0.0
O83 O 0.26707 0.88417 0.60844 0.0
Co84 Co 0.43946 0.07248 0.7473 0.0
O85 O 0.38958 0.10134 0.73268 0.0
O86 O 0.41242 0.0937 0.79832 0.0
C87 C 0.48139 0.10289 0.69726 0.0
O88 O 0.4904 0.0468 0.77525 0.0
Co89 Co 0.48243 0.01166 0.68377 0.0
O90 O 0.52982 0.01596 0.72522 0.0
C91 C 0.40102 0.98473 0.7241 0.0
C92 C 0.38456 0.1086 0.77309 0.0
C93 C 0.52432 0.0289 0.76336 0.0
O94 O 0.40419 0.01734 0.74949 0.0
O95 O 0.42742 0.97818 0.69406 0.0
O96 O 0.47528 0.12278 0.73323 0.0
O97 O 0.46015 0.06705 0.69185 0.0
Co98 Co 0.26468 0.10263 0.04789 0.0
O99 O 0.27091 0.05631 0.08569 0.0
O100 O 0.31123 0.06996 0.02929 0.0
C101 C 0.25759 0.15403 0.09739 0.0
O102 O 0.27033 0.1479 0.00273 0.0
Co103 Co 0.18161 0.15059 0.04436 0.0
O104 O 0.21611 0.19069 0.00885 0.0
C105 C 0.18206 0.06272 0.0121 0.0
C106 C 0.30242 0.04614 0.06157 0.0
C107 C 0.25176 0.18154 0.99302 0.0
O108 O 0.22302 0.06546 0.01295 0.0
O109 O 0.15941 0.09209 0.02656 0.0
O110 O 0.29518 0.14206 0.08738 0.0
O111 O 0.226 0.13164 0.08076 0.0
Co112 Co 0.76443 0.39836 0.05918 0.0
O113 O 0.75544 0.44988 0.0913 0.0
O114 O 0.72316 0.43012 0.03086 0.0
C115 C 0.7615 0.35331 0.11349 0.0
O116 O 0.76195 0.34822 0.01766 0.0
Co117 Co 0.842 0.34384 0.07088 0.0
O118 O 0.80434 0.29956 0.04157 0.0
C119 C 0.85322 0.4273 0.03116 0.0
C120 C 0.7281 0.45767 0.06193 0.0
C121 C 0.77385 0.31011 0.01825 0.0
O122 O 0.81256 0.42862 0.02791 0.0
O123 O 0.87118 0.39753 0.04976 0.0
O124 O 0.72664 0.36565 0.09688 0.0
O125 O 0.79636 0.37162 0.09967 0.0
Co126 Co 0.90613 0.56515 0.25868 0.0
O127 O 0.8591 0.59082 0.23295 0.0
O128 O 0.8703 0.58853 0.30228 0.0
C129 C 0.95684 0.59295 0.21546 0.0
O130 O 0.95197 0.54391 0.29692 0.0
Co131 Co 0.95867 0.50105 0.20785 0.0
O132 O 0.99956 0.51255 0.25549 0.0
C133 C 0.87136 0.47687 0.23396 0.0
C134 C 0.84681 0.60025 0.27122 0.0
C135 C 0.98844 0.52844 0.29115 0.0
O136 O 0.87191 0.50918 0.25963 0.0
O137 O 0.90102 0.47011 0.20733 0.0
O138 O 0.94365 0.6152 0.24763 0.0
O139 O 0.93643 0.55688 0.20842 0.0
Co140 Co 0.7652 0.5994 0.53366 0.0
O141 O 0.77463 0.5515 0.56829 0.0
O142 O 0.80979 0.56711 0.50916 0.0
C143 C 0.76335 0.64771 0.58697 0.0
O144 O 0.76644 0.64691 0.4906 0.0
Co145 Co 0.68349 0.64958 0.54157 0.0
O146 O 0.72013 0.69374 0.51337 0.0
C147 C 0.67912 0.56438 0.50136 0.0
C148 C 0.80394 0.54219 0.54118 0.0
C149 C 0.75174 0.68407 0.49061 0.0
O150 O 0.71996 0.56404 0.50151 0.0
O151 O 0.65839 0.59439 0.51751 0.0
O152 O 0.79965 0.63669 0.57196 0.0
O153 O 0.73009 0.62675 0.57196 0.0
Co154 Co 0.624 0.50488 0.772 0.0
O155 O 0.66827 0.47331 0.74699 0.0
O156 O 0.65527 0.4783 0.81603 0.0
C157 C 0.57166 0.48273 0.72648 0.0
O158 O 0.58067 0.53287 0.80927 0.0
Co159 Co 0.58345 0.57488 0.72011 0.0
O160 O 0.54655 0.57976 0.77103 0.0
C161 C 0.66982 0.5894 0.75318 0.0
C162 C 0.67844 0.46371 0.78541 0.0
C163 C 0.55245 0.56022 0.80534 0.0
O164 O 0.66397 0.55687 0.7767 0.0
O165 O 0.64384 0.5988 0.72417 0.0
O166 O 0.5812 0.45922 0.75809 0.0
O167 O 0.59673 0.51589 0.72102 0.0
H168 H 0.11883 0.30671 0.81504 0.0
H169 H 0.03491 0.25096 0.71831 0.0
H170 H 0.11421 0.17282 0.789 0.0
H171 H 0.06553 0.34981 0.78543 0.0
H172 H 0.08271 0.33957 0.73286 0.0
H173 H 0.98769 0.32233 0.80544 0.0
H174 H 0.89896 0.34204 0.70561 0.0
H175 H 0.03225 0.34352 0.67751 0.0
C176 C 0.10382 0.27887 0.79933 0.0
C177 C 0.11924 0.23895 0.80698 0.0
C178 C 0.07192 0.28351 0.76868 0.0
C179 C 0.05649 0.24758 0.74462 0.0
C180 C 0.07088 0.20742 0.7529 0.0
C181 C 0.10082 0.20334 0.78517 0.0
C182 C 0.06019 0.32774 0.75771 0.0
C183 C 0.01489 0.33 0.74267 0.0
C184 C 0.98116 0.32651 0.77205 0.0
C185 C 0.93922 0.33005 0.7584 0.0
C186 C 0.93121 0.33682 0.71544 0.0
C187 C 0.96438 0.34239 0.68615 0.0
C188 C 0.00632 0.33854 0.69982 0.0
H189 H 0.13596 0.74359 0.74977 0.0
H190 H 0.05456 0.76482 0.85807 0.0
H191 H 0.13625 0.86615 0.81135 0.0
H192 H 0.07103 0.69467 0.76228 0.0
H193 H 0.09988 0.68314 0.8083 0.0
H194 H 0.99507 0.72157 0.77173 0.0
H195 H 0.92684 0.66853 0.87793 0.0
H196 H 0.06199 0.66018 0.8702 0.0
C197 C 0.12306 0.76462 0.77355 0.0
C198 C 0.13902 0.80688 0.77688 0.0
C199 C 0.09104 0.74922 0.80144 0.0
C200 C 0.07698 0.77633 0.83431 0.0
C201 C 0.0925 0.81875 0.83706 0.0
C202 C 0.12269 0.83385 0.80777 0.0
C203 C 0.07481 0.70329 0.7966 0.0
C204 C 0.03333 0.69325 0.81918 0.0
C205 C 0.99499 0.70603 0.80206 0.0
C206 C 0.95653 0.69784 0.82368 0.0
C207 C 0.95683 0.6772 0.86253 0.0
C208 C 0.99444 0.66289 0.87914 0.0
C209 C 0.03281 0.67137 0.85759 0.0
H210 H 0.4931 0.6764 0.15261 0.0
H211 H 0.52738 0.72374 0.27859 0.0
H212 H 0.62403 0.68915 0.19079 0.0
H213 H 0.43797 0.69 0.20218 0.0
H214 H 0.45209 0.69159 0.2574 0.0
H215 H 0.4657 0.76455 0.1631 0.0
H216 H 0.41459 0.86871 0.23097 0.0
H217 H 0.42121 0.74911 0.29169 0.0
C218 C 0.51718 0.68647 0.17589 0.0
C219 C 0.56021 0.68201 0.16638 0.0
C220 C 0.50517 0.70265 0.21599 0.0
C221 C 0.53648 0.71323 0.24703 0.0
C222 C 0.57942 0.70926 0.23738 0.0
C223 C 0.59088 0.69457 0.19697 0.0
C224 C 0.45891 0.70675 0.2264 0.0
C225 C 0.44862 0.75277 0.22867 0.0
C226 C 0.4542 0.7781 0.19258 0.0
C227 C 0.44298 0.82032 0.19402 0.0
C228 C 0.42612 0.83704 0.23143 0.0
C229 C 0.41684 0.81139 0.26634 0.0
C230 C 0.42909 0.76941 0.2652 0.0
H231 H 0.59092 0.25052 0.24344 0.0
H232 H 0.52085 0.27071 0.35933 0.0
H233 H 0.6004 0.37148 0.30854 0.0
H234 H 0.5336 0.19886 0.26162 0.0
H235 H 0.55511 0.19126 0.31272 0.0
H236 H 0.45814 0.22288 0.25523 0.0
H237 H 0.37417 0.18378 0.35653 0.0
H238 H 0.5091 0.18152 0.37313 0.0
C239 C 0.57997 0.27164 0.26823 0.0
C240 C 0.59788 0.3133 0.27171 0.0
C241 C 0.54991 0.25646 0.2983 0.0
C242 C 0.54029 0.28282 0.33345 0.0
C243 C 0.55782 0.32449 0.33641 0.0
C244 C 0.58489 0.34 0.30455 0.0
C245 C 0.53298 0.2107 0.29518 0.0
C246 C 0.4885 0.204 0.31265 0.0
C247 C 0.45327 0.21239 0.2875 0.0
C248 C 0.4118 0.20554 0.30333 0.0
C249 C 0.40608 0.19145 0.345 0.0
C250 C 0.44081 0.18235 0.37028 0.0
C251 C 0.48205 0.18883 0.35396 0.0
H252 H 0.6143 -0.00027 0.19208 0.0
H253 H 0.73893 0.03581 0.24246 0.0
H254 H 0.65179 0.13084 0.21601 0.0
H255 H 0.66245 0.94591 0.20243 0.0
H256 H 0.71742 0.96391 0.20026 0.0
H257 H 0.63191 0.96751 0.28569 0.0
H258 H 0.70567 0.90123 0.37414 0.0
H259 H 0.75304 0.92146 0.24821 0.0
C260 C 0.63711 0.02386 0.20461 0.0
C261 C 0.62769 0.06671 0.20355 0.0
C262 C 0.67674 0.01231 0.22001 0.0
C263 C 0.70745 0.04419 0.23322 0.0
C264 C 0.69793 0.08696 0.2328 0.0
C265 C 0.65778 0.09759 0.21909 0.0
C266 C 0.6876 0.96635 0.21886 0.0
C267 C 0.69352 0.94978 0.26298 0.0
C268 C 0.66106 0.95295 0.29362 0.0
C269 C 0.66581 0.93626 0.33411 0.0
C270 C 0.7029 0.91617 0.34363 0.0
C271 C 0.73406 0.9102 0.31285 0.0
C272 C 0.72945 0.92706 0.27244 0.0
H273 H 0.24005 0.27143 0.60684 0.0
H274 H 0.2709 0.39612 0.55898 0.0
H275 H 0.36949 0.32166 0.60444 0.0
H276 H 0.185 0.30704 0.57268 0.0
H277 H 0.19252 0.35923 0.59538 0.0
H278 H 0.21271 0.29882 0.49237 0.0
H279 H 0.17814 0.40175 0.41554 0.0
H280 H 0.1741 0.41527 0.5514 0.0
C281 C 0.26361 0.29554 0.59682 0.0
C282 C 0.30661 0.29146 0.60666 0.0
C283 C 0.25061 0.33236 0.57737 0.0
C284 C 0.28095 0.36598 0.56978 0.0
C285 C 0.32404 0.36153 0.57845 0.0
C286 C 0.33664 0.32344 0.59468 0.0
C287 C 0.20389 0.33773 0.5699 0.0
C288 C 0.19606 0.35565 0.52679 0.0
C289 C 0.20308 0.33103 0.48981 0.0
C290 C 0.19737 0.34798 0.44964 0.0
C291 C 0.1845 0.3894 0.44665 0.0
C292 C 0.1755 0.41358 0.48298 0.0
C293 C 0.18138 0.39674 0.52319 0.0
H294 H 0.86627 0.00806 0.72976 0.0
H295 H 0.7453 0.94689 0.76249 0.0
H296 H 0.85107 0.87238 0.73376 0.0
H297 H 0.80375 0.04766 0.7294 0.0
H298 H 0.75252 0.02019 0.73369 0.0
H299 H 0.84793 0.03853 0.80755 0.0
H300 H 0.77544 0.10132 0.9023 0.0
H301 H 0.71565 0.05901 0.78526 0.0
C302 C 0.84727 0.9794 0.7369 0.0
C303 C 0.86476 0.93974 0.73168 0.0
C304 C 0.80434 0.98218 0.74848 0.0
C305 C 0.77889 0.94501 0.75579 0.0
C306 C 0.79618 0.90533 0.75158 0.0
C307 C 0.83916 0.90324 0.74068 0.0
C308 C 0.78456 0.02442 0.74859 0.0
C309 C 0.78102 0.04255 0.79304 0.0
C310 C 0.81748 0.04817 0.81904 0.0
C311 C 0.81538 0.06936 0.85844 0.0
C312 C 0.7765 0.08344 0.87246 0.0
C313 C 0.7406 0.0803 0.84614 0.0
C314 C 0.74281 0.05972 0.80642 0.0
H315 H 0.27519 0.83386 0.0973 0.0
H316 H 0.24653 0.70924 0.0417 0.0
H317 H 0.15189 0.77111 0.11288 0.0
H318 H 0.31982 0.80827 0.0376 0.0
H319 H 0.33101 0.7673 0.07266 0.0
H320 H 0.28551 0.78731 0.96455 0.0
H321 H 0.33287 0.67409 0.90938 0.0
H322 H 0.35108 0.70168 0.04248 0.0
C323 C 0.2523 0.80801 0.08896 0.0
C324 C 0.21159 0.80715 0.10697 0.0
C325 C 0.26465 0.77394 0.06301 0.0
C326 C 0.23643 0.73769 0.05759 0.0
C327 C 0.19539 0.73743 0.07466 0.0
C328 C 0.18265 0.77301 0.09723 0.0
C329 C 0.30968 0.77531 0.04628 0.0
C330 C 0.31541 0.7464 0.00824 0.0
C331 C 0.30024 0.75748 0.96822 0.0
C332 C 0.30576 0.73088 0.9327 0.0
C333 C 0.32608 0.69305 0.9375 0.0
C334 C 0.34333 0.68265 0.97665 0.0
C335 C 0.3373 0.70915 0.01222 0.0
H336 H 0.72594 0.74236 0.10652 0.0
H337 H 0.78003 0.82762 0.01307 0.0
H338 H 0.86062 0.76948 0.10104 0.0
H339 H 0.68192 0.76076 0.0461 0.0
H340 H 0.69065 0.81464 0.06197 0.0
H341 H 0.70205 0.73779 0.97 0.0
H342 H 0.68691 0.83318 0.87709 0.0
H343 H 0.69165 0.86845 0.00954 0.0
C344 C 0.75347 0.75659 0.09041 0.0
C345 C 0.7942 0.75164 0.10693 0.0
C346 C 0.74791 0.78226 0.05498 0.0
C347 C 0.78377 0.80465 0.03758 0.0
C348 C 0.8246 0.79909 0.05349 0.0
C349 C 0.82943 0.77124 0.08681 0.0
C350 C 0.70307 0.78962 0.04074 0.0
C351 C 0.69963 0.80205 0.99483 0.0
C352 C 0.69995 0.77082 0.96219 0.0
C353 C 0.69589 0.7821 0.91962 0.0
C354 C 0.69218 0.82477 0.90983 0.0
C355 C 0.68999 0.85595 0.94195 0.0
C356 C 0.69399 0.84455 0.98451 0.0
H357 H 0.30521 0.5592 0.17803 0.0
H358 H 0.20317 0.47575 0.22535 0.0
H359 H 0.31754 0.42468 0.17799 0.0
H360 H 0.23777 0.5873 0.19623 0.0
H361 H 0.19274 0.55192 0.20792 0.0
H362 H 0.28221 0.53603 0.28001 0.0
H363 H 0.23814 0.6178 0.37853 0.0
H364 H 0.18278 0.62034 0.25422 0.0
C365 C 0.29256 0.5277 0.18586 0.0
C366 C 0.31655 0.49261 0.17681 0.0
C367 C 0.25202 0.52196 0.20464 0.0
C368 C 0.235 0.48063 0.2126 0.0
C369 C 0.25909 0.44566 0.2036 0.0
C370 C 0.2999 0.45206 0.18673 0.0
C371 C 0.22676 0.55986 0.21571 0.0
C372 C 0.22956 0.57375 0.2622 0.0
C373 C 0.25972 0.55863 0.29055 0.0
C374 C 0.26212 0.57381 0.33277 0.0
C375 C 0.2344 0.60418 0.34668 0.0
C376 C 0.20639 0.62173 0.31846 0.0
C377 C 0.20371 0.6061 0.2764 0.0
H378 H 0.81046 0.29573 0.61271 0.0
H379 H 0.75323 0.2168 0.5116 0.0
H380 H 0.67557 0.26974 0.60829 0.0
H381 H 0.85102 0.28399 0.54536 0.0
H382 H 0.84628 0.23003 0.55911 0.0
H383 H 0.8207 0.30495 0.47207 0.0
H384 H 0.83824 0.21179 0.37354 0.0
H385 H 0.84577 0.17673 0.50414 0.0
C386 C 0.7825 0.28233 0.59606 0.0
C387 C 0.7422 0.28654 0.61405 0.0
C388 C 0.78688 0.25921 0.55752 0.0
C389 C 0.75046 0.23803 0.53883 0.0
C390 C 0.71019 0.24278 0.55656 0.0
C391 C 0.7064 0.26834 0.59305 0.0
C392 C 0.8311 0.25411 0.53998 0.0
C393 C 0.83202 0.24188 0.49329 0.0
C394 C 0.82555 0.27244 0.46243 0.0
C395 C 0.82642 0.26107 0.41914 0.0
C396 C 0.83435 0.21934 0.40705 0.0
C397 C 0.84186 0.18863 0.43708 0.0
C398 C 0.84006 0.20004 0.48043 0.0
H399 H 0.2017 0.45002 0.64971 0.0
H400 H 0.28369 0.53304 0.72911 0.0
H401 H 0.18207 0.58306 0.65904 0.0
H402 H 0.25685 0.41994 0.68894 0.0
H403 H 0.30181 0.45646 0.69949 0.0
H404 H 0.19841 0.45921 0.75997 0.0
H405 H 0.25169 0.41116 0.87253 0.0
H406 H 0.32451 0.41281 0.75709 0.0
C407 C 0.20987 0.48104 0.66385 0.0
C408 C 0.1873 0.51582 0.65204 0.0
C409 C 0.2437 0.48676 0.69325 0.0
C410 C 0.25616 0.52795 0.70859 0.0
C411 C 0.23336 0.56253 0.69675 0.0
C412 C 0.19842 0.5559 0.66968 0.0
C413 C 0.26768 0.44934 0.7069 0.0
C414 C 0.26366 0.44104 0.75398 0.0
C415 C 0.22556 0.44764 0.77618 0.0
C416 C 0.22207 0.43832 0.81935 0.0
C417 C 0.25607 0.42106 0.83996 0.0
C418 C 0.29282 0.41079 0.81779 0.0
C419 C 0.29664 0.42137 0.77479 0.0
H420 H 0.04069 0.40156 0.02723 0.0
H421 H 0.10741 0.29309 0.98416 0.0
H422 H 0.06556 0.4403 0.96402 0.0
H423 H 0.1307 0.33088 0.92089 0.0
H424 H 0.14972 0.39095 0.80073 0.0
H425 H 0.09617 0.36832 0.85333 0.0
H426 H 0.1508 0.46034 0.94379 0.0
H427 H 0.20453 0.48287 0.89155 0.0
C428 C 0.0599 0.38581 0.00386 0.0
C429 C 0.07261 0.3446 0.01059 0.0
C430 C 0.07395 0.40787 0.96784 0.0
C431 C 0.09958 0.38832 0.93756 0.0
C432 C 0.11043 0.34641 0.94349 0.0
C433 C 0.09748 0.32495 0.97985 0.0
C434 C 0.14875 0.408 0.83097 0.0
C435 C 0.1812 0.43852 0.84231 0.0
C436 C 0.11839 0.3948 0.86102 0.0
C437 C 0.11994 0.4122 0.90246 0.0
C438 C 0.14885 0.44663 0.91192 0.0
C439 C 0.17951 0.45956 0.88206 0.0
H440 H 0.90332 0.8341 0.3272 0.0
H441 H 0.93403 0.70325 0.33611 0.0
H442 H 0.85205 0.81449 0.27163 0.0
H443 H 0.88257 0.68352 0.28004 0.0
H444 H 0.85054 0.6949 0.13307 0.0
H445 H 0.88211 0.69535 0.20382 0.0
H446 H 0.7868 0.77762 0.24945 0.0
H447 H 0.75538 0.77721 0.17909 0.0
C448 C 0.89841 0.80094 0.31787 0.0
C449 C 0.92303 0.7703 0.33569 0.0
C450 C 0.86868 0.78956 0.28619 0.0
C451 C 0.86301 0.74727 0.27131 0.0
C452 C 0.886 0.71625 0.29082 0.0
C453 C 0.91542 0.72757 0.32304 0.0
C454 C 0.83512 0.71133 0.15884 0.0
C455 C 0.80076 0.73635 0.15047 0.0
C456 C 0.85337 0.71187 0.19938 0.0
C457 C 0.83737 0.73726 0.23227 0.0
C458 C 0.80004 0.75812 0.22486 0.0
C459 C 0.78163 0.75737 0.18452 0.0
H460 H 0.45541 0.6777 0.48292 0.0
H461 H 0.4318 0.56146 0.55106 0.0
H462 H 0.41151 0.64853 0.42443 0.0
H463 H 0.3876 0.53236 0.49227 0.0
H464 H 0.25834 0.54662 0.4143 0.0
H465 H 0.31587 0.55375 0.46642 0.0
H466 H 0.40413 0.5912 0.36725 0.0
H467 H 0.34646 0.58399 0.31517 0.0
C468 C 0.44136 0.6457 0.48518 0.0
C469 C 0.44678 0.62212 0.52188 0.0
C470 C 0.41651 0.62881 0.45145 0.0
C471 C 0.39613 0.58812 0.45377 0.0
C472 C 0.40284 0.56384 0.48971 0.0
C473 C 0.42822 0.58053 0.52329 0.0
C474 C 0.29039 0.55472 0.40349 0.0
C475 C 0.29802 0.56485 0.36084 0.0
C476 C 0.32334 0.55882 0.43326 0.0
C477 C 0.36437 0.57363 0.42096 0.0
C478 C 0.3727 0.58016 0.37764 0.0
C479 C 0.33983 0.57557 0.34777 0.0
H480 H 0.62248 0.2267 0.84154 0.0
H481 H 0.61671 0.36291 0.84711 0.0
H482 H 0.6697 0.23266 0.78015 0.0
H483 H 0.66217 0.36858 0.78516 0.0
H484 H 0.694 0.35002 0.64179 0.0
H485 H 0.66033 0.35363 0.71128 0.0
H486 H 0.7395 0.2566 0.75539 0.0
H487 H 0.77277 0.25292 0.68537 0.0
C488 C 0.63159 0.2579 0.82986 0.0
C489 C 0.616 0.29431 0.84923 0.0
C490 C 0.65894 0.26141 0.79491 0.0
C491 C 0.67068 0.30136 0.77819 0.0
C492 C 0.65479 0.33757 0.79766 0.0
C493 C 0.62833 0.3342 0.83309 0.0
C494 C 0.70558 0.33102 0.66703 0.0
C495 C 0.73608 0.30139 0.65837 0.0
C496 C 0.686 0.33269 0.7068 0.0
C497 C 0.6967 0.30484 0.73879 0.0
C498 C 0.73005 0.27799 0.73123 0.0
C499 C 0.7498 0.27651 0.69145 0.0
H500 H 0.00416 0.62284 0.48608 0.0
H501 H 0.12831 0.68839 0.49434 0.0
H502 H 0.03167 0.56241 0.52277 0.0
H503 H 0.15562 0.62813 0.52962 0.0
H504 H 0.10152 0.52115 0.65486 0.0
H505 H 0.06184 0.55617 0.60046 0.0
H506 H 0.16873 0.54965 0.51541 0.0
H507 H 0.20743 0.51293 0.56903 0.0
C508 C 0.03728 0.62428 0.49547 0.0
C509 C 0.06405 0.6605 0.48746 0.0
C510 C 0.05298 0.58964 0.51619 0.0
C511 C 0.09588 0.59034 0.52841 0.0
C512 C 0.12263 0.62626 0.5197 0.0
C513 C 0.10686 0.66101 0.4998 0.0
C514 C 0.11518 0.52442 0.62342 0.0
C515 C 0.15739 0.51432 0.61597 0.0
C516 C 0.0927 0.5449 0.59242 0.0
C517 C 0.11258 0.55622 0.55402 0.0
C518 C 0.15274 0.5413 0.54476 0.0
C519 C 0.17472 0.51986 0.57528 0.0
H520 H 0.60517 0.78176 0.68845 0.0
H521 H 0.55565 0.65383 0.71048 0.0
H522 H 0.64965 0.77978 0.75128 0.0
H523 H 0.59947 0.65253 0.77525 0.0
H524 H 0.74159 0.77079 0.84716 0.0
H525 H 0.7117 0.74095 0.78043 0.0
H526 H 0.5989 0.69551 0.84665 0.0
H527 H 0.62927 0.72393 0.91359 0.0
C528 C 0.60398 0.75309 0.70673 0.0
C529 C 0.57707 0.71795 0.69464 0.0
C530 C 0.6298 0.75176 0.74249 0.0
C531 C 0.62866 0.71557 0.76765 0.0
C532 C 0.6015 0.68038 0.75583 0.0
C533 C 0.57646 0.68122 0.71902 0.0
C534 C 0.71142 0.75246 0.84773 0.0
C535 C 0.6874 0.75005 0.88525 0.0
C536 C 0.69418 0.7359 0.80958 0.0
C537 C 0.65252 0.7175 0.80829 0.0
C538 C 0.63102 0.70978 0.84669 0.0
C539 C 0.64847 0.72594 0.88506 0.0
H540 H 0.46665 0.34638 0.0345 0.0
H541 H 0.49189 0.4617 0.9652 0.0
H542 H 0.43132 0.38637 0.08974 0.0
H543 H 0.45639 0.5017 0.02074 0.0
H544 H 0.32731 0.52506 0.09807 0.0
H545 H 0.38058 0.5037 0.04665 0.0
H546 H 0.44658 0.44242 0.14607 0.0
H547 H 0.39317 0.46367 0.19727 0.0
C548 C 0.46483 0.38026 0.03109 0.0
C549 C 0.48193 0.40071 0.99527 0.0
C550 C 0.44502 0.4033 0.06301 0.0
C551 C 0.44153 0.44729 0.05979 0.0
C552 C 0.45872 0.46788 0.02411 0.0
C553 C 0.47899 0.44488 0.99233 0.0
C554 C 0.3544 0.50892 0.10925 0.0
C555 C 0.35604 0.49561 0.15143 0.0
C556 C 0.38475 0.49638 0.07978 0.0
C557 C 0.41701 0.47036 0.09221 0.0
C558 C 0.42147 0.46163 0.13547 0.0
C559 C 0.39126 0.47421 0.16485 0.0
H560 H 0.92216 0.21459 0.22015 0.0
H561 H 0.96164 0.34622 0.2026 0.0
H562 H 0.86895 0.2352 0.271 0.0
H563 H 0.90796 0.36719 0.25481 0.0
H564 H 0.88317 0.32811 0.40857 0.0
H565 H 0.91007 0.34642 0.33835 0.0
H566 H 0.80143 0.27827 0.28097 0.0
H567 H 0.7735 0.26175 0.35106 0.0
C568 C 0.91882 0.24806 0.22663 0.0
C569 C 0.94623 0.27877 0.20784 0.0
C570 C 0.88804 0.25996 0.25545 0.0
C571 C 0.88409 0.30287 0.26656 0.0
C572 C 0.91013 0.33396 0.24636 0.0
C573 C 0.9407 0.32196 0.21664 0.0
C574 C 0.86326 0.32013 0.38114 0.0
C575 C 0.82695 0.2925 0.38502 0.0
C576 C 0.87882 0.33041 0.34077 0.0
C577 C 0.85821 0.3128 0.30433 0.0
C578 C 0.81771 0.29235 0.30859 0.0
C579 C 0.80176 0.28288 0.34883 0.0
H580 H 0.04058 0.06285 0.32926 0.0
H581 H 0.93573 0.01003 0.25345 0.0
H582 H 0.99152 0.0893 0.38125 0.0
H583 H 0.88588 0.03249 0.30748 0.0
H584 H 0.81395 0.14016 0.36828 0.0
H585 H 0.85449 0.09023 0.32917 0.0
H586 H 0.94362 0.08908 0.43378 0.0
H587 H 0.90534 0.1434 0.47056 0.0
C588 C 0.00682 0.05575 0.32456 0.0
C589 C 0.99179 0.0351 0.28717 0.0
C590 C 0.97837 0.07053 0.35472 0.0
C591 C 0.93404 0.06385 0.3489 0.0
C592 C 0.91944 0.03991 0.31278 0.0
C593 C 0.94796 0.02656 0.28183 0.0
C594 C 0.84209 0.12902 0.38311 0.0
C595 C 0.85738 0.14732 0.42171 0.0
C596 C 0.86535 0.09962 0.36076 0.0
C597 C 0.90385 0.08638 0.37716 0.0
C598 C 0.91551 0.09997 0.41881 0.0
C599 C 0.89289 0.13056 0.44058 0.0
H600 H 0.30865 0.82076 0.63247 0.0
H601 H 0.17234 0.80239 0.64423 0.0
H602 H 0.31693 0.75236 0.66454 0.0
H603 H 0.18041 0.73363 0.67521 0.0
H604 H 0.30148 0.60397 0.66184 0.0
H605 H 0.30647 0.67959 0.64848 0.0
H606 H 0.20238 0.69723 0.73547 0.0
H607 H 0.19638 0.62095 0.7469 0.0
C608 C 0.28047 0.80219 0.6422 0.0
C609 C 0.23986 0.81705 0.63618 0.0
C610 C 0.28524 0.76297 0.66065 0.0
C611 C 0.24949 0.73769 0.67342 0.0
C612 C 0.20882 0.75262 0.66698 0.0
C613 C 0.20409 0.79184 0.64862 0.0
C614 C 0.28113 0.62441 0.67964 0.0
C615 C 0.24858 0.60687 0.70534 0.0
C616 C 0.28362 0.6678 0.67171 0.0
C617 C 0.25389 0.6944 0.68987 0.0
C618 C 0.22483 0.67742 0.71984 0.0
C619 C 0.22199 0.63394 0.72726 0.0
H620 H 0.60074 0.99477 0.7491 0.0
H621 H 0.52179 0.0406 0.85048 0.0
H622 H 0.64772 0.96687 0.80048 0.0
H623 H 0.57029 0.01391 0.90265 0.0
H624 H 0.61678 0.89101 0.9645 0.0
H625 H 0.58284 0.94621 0.92694 0.0
H626 H 0.69792 0.97115 0.85438 0.0
H627 H 0.73059 0.91372 0.89049 0.0
C628 C 0.59382 -0.00025 0.7825 0.0
C629 C 0.55674 0.01907 0.79548 0.0
C630 C 0.6213 0.9841 0.81226 0.0
C631 C 0.61277 0.98748 0.85607 0.0
C632 C 0.57746 0.00981 0.86921 0.0
C633 C 0.5497 0.02535 0.83926 0.0
C634 C 0.63524 0.90941 0.94162 0.0
C635 C 0.6761 0.89803 0.93014 0.0
C636 C 0.61582 0.94122 0.91995 0.0
C637 C 0.63712 0.96265 0.88664 0.0
C638 C 0.67994 0.95445 0.8788 0.0
C639 C 0.69899 0.92199 0.89986 0.0
H640 H 0.18296 0.19132 0.11191 0.0
H641 H 0.31801 0.20722 0.13569 0.0
H642 H 0.17307 0.25926 0.14736 0.0
H643 H 0.30783 0.2744 0.17267 0.0
H644 H 0.19777 0.40899 0.15274 0.0
H645 H 0.19144 0.33374 0.13314 0.0
H646 H 0.2764 0.30745 0.23563 0.0
H647 H 0.28382 0.38315 0.25396 0.0
C648 C 0.21046 0.20906 0.12524 0.0
C649 C 0.25131 0.19388 0.1212 0.0
C650 C 0.20467 0.24789 0.14581 0.0
C651 C 0.23941 0.27188 0.16364 0.0
C652 C 0.28018 0.25624 0.1602 0.0
C653 C 0.28611 0.21787 0.13877 0.0
C654 C 0.21338 0.3868 0.17228 0.0
C655 C 0.24117 0.40159 0.20484 0.0
C656 C 0.21014 0.34373 0.16085 0.0
C657 C 0.23432 0.31485 0.18221 0.0
C658 C 0.25819 0.32915 0.21799 0.0
C659 C 0.26184 0.37227 0.22901 0.0
H660 H 0.03027 0.86999 0.17958 0.0
H661 H 0.02464 0.99019 0.1179 0.0
H662 H 0.97806 0.83821 0.12951 0.0
H663 H 0.97139 0.95831 0.068 0.0
H664 H 0.82901 0.88491 0.06139 0.0
H665 H 0.89358 0.92701 0.08158 0.0
H666 H 0.96848 0.82103 0.049 0.0
H667 H 0.90384 0.77905 0.02849 0.0
C668 C 0.01805 0.88955 0.15514 0.0
C669 C 0.03134 0.93257 0.15277 0.0
C670 C 0.98851 0.87125 0.12615 0.0
C671 C 0.97112 0.89571 0.09451 0.0
C672 C 0.98458 0.93873 0.09187 0.0
C673 C 0.01487 0.95691 0.12048 0.0
C674 C 0.85946 0.87152 0.05596 0.0
C675 C 0.86148 0.82857 0.04404 0.0
C676 C 0.89646 0.89553 0.0679 0.0
C677 C 0.93576 0.87676 0.06798 0.0
C678 C 0.9384 0.83593 0.04992 0.0
C679 C 0.9015 0.81209 0.03772 0.0
H680 H 0.16776 0.83373 0.48879 0.0
H681 H 0.29503 0.82508 0.43981 0.0
H682 H 0.14053 0.78501 0.43204 0.0
H683 H 0.26786 0.77734 0.38301 0.0
H684 H 0.15603 0.6374 0.38701 0.0
H685 H 0.15522 0.7059 0.42439 0.0
H686 H 0.21848 0.76613 0.31849 0.0
H687 H 0.21971 0.69767 0.28104 0.0
C688 C 0.18968 0.82242 0.46517 0.0
C689 C 0.23358 0.83263 0.46894 0.0
C690 C 0.17406 0.7946 0.43277 0.0
C691 C 0.20198 0.77746 0.40308 0.0
C692 C 0.24542 0.79044 0.40505 0.0
C693 C 0.2611 0.81741 0.43786 0.0
C694 C 0.16779 0.66565 0.37086 0.0
C695 C 0.18854 0.66225 0.3315 0.0
C696 C 0.16744 0.70487 0.3923 0.0
C697 C 0.18819 0.74101 0.37483 0.0
C698 C 0.20362 0.73844 0.33307 0.0
C699 C 0.20358 0.69938 0.31138 0.0
H700 H 0.51179 0.06076 0.62809 0.0
H701 H 0.51528 0.18378 0.6913 0.0
H702 H 0.56069 0.089 0.57377 0.0
H703 H 0.56353 0.21197 0.63686 0.0
H704 H 0.70426 0.15712 0.55848 0.0
H705 H 0.63974 0.11758 0.58098 0.0
H706 H 0.56695 0.22568 0.55591 0.0
H707 H 0.63163 0.26512 0.53313 0.0
C708 C 0.52271 0.0939 0.63015 0.0
C709 C 0.51015 0.12007 0.66412 0.0
C710 C 0.55044 0.10999 0.59896 0.0
C711 C 0.56529 0.15273 0.60076 0.0
C712 C 0.5518 0.17908 0.63417 0.0
C713 C 0.5247 0.16286 0.66567 0.0
C714 C 0.67408 0.17139 0.55493 0.0
C715 C 0.67288 0.21438 0.545 0.0
C716 C 0.63712 0.14888 0.56827 0.0
C717 C 0.59878 0.16923 0.57152 0.0
C718 C 0.5964 0.20967 0.55447 0.0
C719 C 0.63326 0.23202 0.54087 0.0
H720 H 0.33616 0.18895 0.96932 0.0
H721 H 0.21503 0.24284 0.94922 0.0
H722 H 0.37074 0.24361 0.92414 0.0
H723 H 0.24956 0.29666 0.9049 0.0
H724 H 0.32711 0.41612 0.89783 0.0
H725 H 0.33504 0.35367 0.94044 0.0
H726 H 0.33068 0.27467 0.82708 0.0
H727 H 0.32035 0.33707 0.78432 0.0
C728 C 0.3169 0.21207 0.95505 0.0
C729 C 0.27283 0.21174 0.96315 0.0
C730 C 0.33676 0.24323 0.9294 0.0
C731 C 0.31269 0.27423 0.91164 0.0
C732 C 0.2687 0.27311 0.9187 0.0
C733 C 0.24899 0.24232 0.94412 0.0
C734 C 0.33009 0.38578 0.88168 0.0
C735 C 0.32105 0.38101 0.838 0.0
C736 C 0.33486 0.35005 0.90611 0.0
C737 C 0.33184 0.3095 0.88689 0.0
C738 C 0.332 0.30575 0.84243 0.0
C739 C 0.32643 0.34147 0.81798 0.0
H740 H 0.3831 0.03156 0.03563 0.0
H741 H 0.2775 0.97752 0.1079 0.0
H742 H 0.42532 0.97186 0.0542 0.0
H743 H 0.31918 0.91767 0.12547 0.0
H744 H 0.48342 0.89581 0.17414 0.0
H745 H 0.45237 0.94879 0.13011 0.0
H746 H 0.35586 0.85509 0.08723 0.0
H747 H 0.38753 0.80187 0.13023 0.0
C748 C 0.36877 0.00665 0.05495 0.0
C749 C 0.32715 0.00919 0.07056 0.0
C750 C 0.39288 0.9726 0.06547 0.0
C751 C 0.37532 0.94006 0.09081 0.0
C752 C 0.33326 0.94204 0.10529 0.0
C753 C 0.30955 0.97645 0.0956 0.0
C754 C 0.45723 0.88599 0.15316 0.0
C755 C 0.43799 0.84483 0.15523 0.0
C756 C 0.43922 0.91633 0.12828 0.0
C757 C 0.40138 0.90596 0.10583 0.0
C758 C 0.38497 0.86367 0.10433 0.0
C759 C 0.40341 0.83317 0.12851 0.0
H760 H 0.82831 0.50294 0.0029 0.0
H761 H 0.93999 0.43243 0.02183 0.0
H762 H 0.87286 0.56204 0.97675 0.0
H763 H 0.98469 0.49216 0.99582 0.0
H764 H 0.95549 0.67388 0.95556 0.0
H765 H 0.92774 0.6169 0.00079 0.0
H766 H 0.9954 0.52667 0.92573 0.0
H767 H 0.0234 0.58373 0.88092 0.0
C768 C 0.86236 0.5 0.00154 0.0
C769 C 0.88047 0.46278 0.01421 0.0
C770 C 0.88798 0.53418 0.98713 0.0
C771 C 0.93235 0.53195 0.98484 0.0
C772 C 0.95061 0.49478 0.9974 0.0
C773 C 0.92495 0.46059 0.01218 0.0
C774 C 0.96573 0.64211 0.94991 0.0
C775 C 0.99105 0.63298 0.91452 0.0
C776 C 0.94958 0.60948 0.97546 0.0
C777 C 0.95846 0.56725 0.96596 0.0
C778 C 0.98792 0.55891 0.93374 0.0
C779 C 0.00415 0.59162 0.90819 0.0
H780 H 0.79819 0.63406 0.21134 0.0
H781 H 0.80765 0.61927 0.34707 0.0
H782 H 0.73525 0.67373 0.22149 0.0
H783 H 0.74234 0.65762 0.35684 0.0
H784 H 0.59039 0.65702 0.30291 0.0
H785 H 0.66094 0.63787 0.32493 0.0
H786 H 0.71674 0.74727 0.26186 0.0
H787 H 0.64653 0.76675 0.2407 0.0
C788 C 0.78702 0.63951 0.24344 0.0
C789 C 0.80823 0.62392 0.27842 0.0
C790 C 0.75109 0.66251 0.24925 0.0
C791 C 0.73482 0.66976 0.29011 0.0
C792 C 0.75517 0.65338 0.32522 0.0
C793 C 0.79214 0.63122 0.31951 0.0
C794 C 0.6175 0.67868 0.29662 0.0
C795 C 0.6133 0.71304 0.26973 0.0
C796 C 0.65795 0.6675 0.30888 0.0
C797 C 0.69423 0.69064 0.2942 0.0
C798 C 0.68933 0.72886 0.27341 0.0
C799 C 0.64903 0.74027 0.26163 0.0
H800 H 0.67911 0.48442 0.5295 0.0
H801 H 0.62282 0.5614 0.4362 0.0
H802 H 0.6361 0.42251 0.50366 0.0
H803 H 0.58268 0.49924 0.4071 0.0
H804 H 0.50904 0.39026 0.35723 0.0
H805 H 0.52996 0.44721 0.40812 0.0
H806 H 0.63357 0.37425 0.45014 0.0
H807 H 0.60979 0.31681 0.40239 0.0
C808 C 0.65788 0.48767 0.50286 0.0
C809 C 0.65454 0.52709 0.48417 0.0
C810 C 0.63322 0.45225 0.48789 0.0
C811 C 0.60583 0.45525 0.45282 0.0
C812 C 0.6024 0.49534 0.43468 0.0
C813 C 0.62598 0.53099 0.45071 0.0
C814 C 0.53464 0.38581 0.37933 0.0
C815 C 0.55773 0.34937 0.37638 0.0
C816 C 0.54747 0.41878 0.40775 0.0
C817 C 0.58466 0.41643 0.43231 0.0
C818 C 0.60478 0.37778 0.43223 0.0
C819 C 0.59108 0.34446 0.40486 0.0
H820 H 0.23619 0.93889 0.21252 0.0
H821 H 0.17495 0.91691 0.33358 0.0
H822 H 0.29839 0.90414 0.2373 0.0
H823 H 0.23716 0.88047 0.35771 0.0
H824 H 0.34245 0.76945 0.28721 0.0
H825 H 0.27767 0.80558 0.30007 0.0
H826 H 0.35082 0.92332 0.3225 0.0
H827 H 0.41632 0.88721 0.31027 0.0
C828 C 0.23606 0.92676 0.24443 0.0
C829 C 0.2008 0.93063 0.27111 0.0
C830 C 0.27167 0.90714 0.25864 0.0
C831 C 0.27245 0.89039 0.29952 0.0
C832 C 0.23725 0.89378 0.32631 0.0
C833 C 0.20185 0.91445 0.31241 0.0
C834 C 0.34512 0.80232 0.29797 0.0
C835 C 0.38438 0.82581 0.29662 0.0
C836 C 0.30779 0.82302 0.30517 0.0
C837 C 0.30943 0.86707 0.31168 0.0
C838 C 0.34896 0.88922 0.31754 0.0
C839 C 0.38638 0.86849 0.31071 0.0
H840 H 0.18114 0.99439 0.6885 0.0
H841 H 0.1326 0.01576 0.56298 0.0
H842 H 0.13663 0.04805 0.71794 0.0
H843 H 0.08784 0.07004 0.5927 0.0
H844 H 0.0867 0.20572 0.6681 0.0
H845 H 0.10485 0.14282 0.62716 0.0
H846 H 0.06028 0.06371 0.72992 0.0
H847 H 0.0424 0.12677 0.77091 0.0
C848 C 0.16073 0.0104 0.66722 0.0
C849 C 0.16057 0.0011 0.62341 0.0
C850 C 0.1348 0.0408 0.68416 0.0
C851 C 0.10834 0.06291 0.65767 0.0
C852 C 0.10779 0.05335 0.61384 0.0
C853 C 0.13342 0.02239 0.5969 0.0
C854 C 0.07861 0.17476 0.68094 0.0
C855 C 0.06359 0.17102 0.7228 0.0
C856 C 0.08929 0.1387 0.65761 0.0
C857 C 0.08503 0.09851 0.67589 0.0
C858 C 0.0647 0.09443 0.71546 0.0
C859 C 0.05401 0.13041 0.73871 0.0
H860 H 0.81481 0.46338 0.17005 0.0
H861 H 0.84288 0.42546 0.29716 0.0
H862 H 0.74845 0.41912 0.17086 0.0
H863 H 0.77746 0.37968 0.29753 0.0
H864 H 0.67371 0.27998 0.27987 0.0
H865 H 0.74254 0.31635 0.26625 0.0
H866 H 0.6802 0.41631 0.20471 0.0
H867 H 0.61125 0.37967 0.21854 0.0
C868 C 0.80699 0.44478 0.19778 0.0
C869 C 0.83358 0.44748 0.23353 0.0
C870 C 0.76917 0.41943 0.19822 0.0
C871 C 0.75804 0.39514 0.23379 0.0
C872 C 0.78547 0.39724 0.26921 0.0
C873 C 0.8227 0.42359 0.26924 0.0
C874 C 0.67498 0.30872 0.2617 0.0
C875 C 0.63743 0.32673 0.24955 0.0
C876 C 0.71431 0.33008 0.25484 0.0
C877 C 0.71694 0.36957 0.23514 0.0
C878 C 0.67943 0.38581 0.21974 0.0
C879 C 0.63995 0.36471 0.22722 0.0
H880 H 0.71979 0.62727 0.69324 0.0
H881 H 0.70671 0.61325 0.82864 0.0
H882 H 0.78784 0.66698 0.70439 0.0
H883 H 0.77395 0.65426 0.83988 0.0
H884 H 0.88835 0.73634 0.8571 0.0
H885 H 0.8144 0.72114 0.83563 0.0
H886 H 0.85691 0.65199 0.72494 0.0
H887 H 0.93033 0.66823 0.74592 0.0
C888 C 0.73101 0.63383 0.72537 0.0
C889 C 0.70838 0.61715 0.76008 0.0
C890 C 0.7698 0.65675 0.73172 0.0
C891 C 0.78603 0.66471 0.77285 0.0
C892 C 0.76214 0.64954 0.80772 0.0
C893 C 0.72389 0.62562 0.80134 0.0
C894 C 0.8817 0.71943 0.82728 0.0
C895 C 0.91488 0.70294 0.80341 0.0
C896 C 0.83944 0.71021 0.81529 0.0
C897 C 0.82972 0.68412 0.77939 0.0
C898 C 0.86312 0.67207 0.75286 0.0
C899 C 0.90537 0.68154 0.76473 0.0
H900 H 0.6016 0.78887 0.52406 0.0
H901 H 0.47213 0.82213 0.50485 0.0
H902 H 0.6263 0.84229 0.47387 0.0
H903 H 0.49721 0.87542 0.45319 0.0
H904 H 0.58666 0.899 0.32097 0.0
H905 H 0.54234 0.86594 0.37645 0.0
H906 H 0.62309 0.92811 0.47248 0.0
H907 H 0.66699 0.96148 0.4172 0.0
C908 C 0.57838 0.80749 0.50895 0.0
C909 C 0.53494 0.80126 0.51827 0.0
C910 C 0.59257 0.83836 0.48055 0.0
C911 C 0.56364 0.86327 0.46024 0.0
C912 C 0.52005 0.85678 0.46884 0.0
C913 C 0.50582 0.82634 0.49819 0.0
C914 C 0.5934 0.90753 0.35392 0.0
C915 C 0.63043 0.93235 0.36494 0.0
C916 C 0.56821 0.88841 0.38564 0.0
C917 C 0.57996 0.89394 0.42853 0.0
C918 C 0.6137 0.92314 0.43955 0.0
C919 C 0.63862 0.9424 0.40798 0.0
H920 H 0.45409 0.23003 0.83027 0.0
H921 H 0.44934 0.35748 0.78424 0.0
H922 H 0.40458 0.20429 0.77379 0.0
H923 H 0.399 0.33173 0.7293 0.0
H924 H 0.271 0.28181 0.68426 0.0
H925 H 0.31336 0.27282 0.74736 0.0
H926 H 0.41637 0.23136 0.67049 0.0
H927 H 0.37413 0.24032 0.60644 0.0
C928 C 0.44208 0.25253 0.80852 0.0
C929 C 0.45565 0.29579 0.81159 0.0
C930 C 0.41381 0.23771 0.77638 0.0
C931 C 0.39801 0.26613 0.74773 0.0
C932 C 0.41098 0.30932 0.75121 0.0
C933 C 0.43973 0.32398 0.78259 0.0
C934 C 0.30144 0.26789 0.68066 0.0
C935 C 0.31972 0.26286 0.6403 0.0
C936 C 0.32581 0.26321 0.717 0.0
C937 C 0.36805 0.25226 0.71357 0.0
C938 C 0.3837 0.23982 0.6738 0.0
C939 C 0.35941 0.2447 0.63722 0.0
H940 H 0.01019 0.22466 0.99251 0.0
H941 H 0.97844 0.11765 0.07183 0.0
H942 H 0.97177 0.18903 0.93354 0.0
H943 H 0.93837 0.08262 0.01327 0.0
H944 H 0.87578 0.02253 0.89522 0.0
H945 H 0.93392 0.04989 0.94241 0.0
H946 H 0.89775 0.17773 0.92194 0.0
H947 H 0.8414 0.15053 0.87472 0.0
C948 C 0.99511 0.19341 0.99728 0.0
C949 C 0.99659 0.17432 0.03703 0.0
C950 C 0.97305 0.17297 0.9635 0.0
C951 C 0.95124 0.1333 0.96887 0.0
C952 C 0.95498 0.11302 0.00789 0.0
C953 C 0.97767 0.13325 0.04159 0.0
C954 C 0.88122 0.05644 0.90031 0.0
C955 C 0.85417 0.08451 0.88184 0.0
C956 C 0.91413 0.07212 0.92746 0.0
C957 C 0.9205 0.11604 0.93607 0.0
C958 C 0.89445 0.14386 0.91564 0.0
C959 C 0.86183 0.12829 0.88884 0.0
H960 H 0.10521 0.72344 0.30683 0.0
H961 H 0.07917 0.85174 0.34437 0.0
H962 H 0.14629 0.75062 0.24626 0.0
H963 H 0.11784 0.87826 0.28227 0.0
H964 H 0.25607 0.80985 0.18001 0.0
H965 H 0.2204 0.80938 0.2486 0.0
H966 H 0.10931 0.85723 0.19146 0.0
H967 H 0.14452 0.85665 0.12216 0.0
C968 C 0.10794 0.75731 0.30195 0.0
C969 C 0.08971 0.7855 0.33066 0.0
C970 C 0.13154 0.77284 0.26755 0.0
C971 C 0.13629 0.81665 0.26077 0.0
C972 C 0.11589 0.84462 0.28786 0.0
C973 C 0.09349 0.82927 0.3231 0.0
C974 C 0.22514 0.82296 0.18243 0.0
C975 C 0.20257 0.83228 0.14569 0.0
C976 C 0.20454 0.822 0.22161 0.0
C977 C 0.16193 0.83208 0.22462 0.0
C978 C 0.14213 0.84904 0.18956 0.0
C979 C 0.1625 0.84929 0.15009 0.0
H980 H 0.57421 0.26184 0.06087 0.0
H981 H 0.48694 0.17179 0.99577 0.0
H982 H 0.58143 0.21185 0.11798 0.0
H983 H 0.49501 0.12122 0.05273 0.0
H984 H 0.57361 0.12792 0.22629 0.0
H985 H 0.53688 0.17109 0.17635 0.0
H986 H 0.56403 0.08306 0.07444 0.0
H987 H 0.6018 0.04055 0.12401 0.0
C988 C 0.55618 0.23156 0.05906 0.0
C989 C 0.53019 0.22063 0.02385 0.0
C990 C 0.56001 0.20309 0.09189 0.0
C991 C 0.53854 0.16278 0.08983 0.0
C992 C 0.51171 0.15216 0.05512 0.0
C993 C 0.50714 0.18108 0.02264 0.0
C994 C 0.57027 0.1169 0.19353 0.0
C995 C 0.59138 0.08135 0.17887 0.0
C996 C 0.54944 0.14172 0.16497 0.0
C997 C 0.54851 0.13084 0.12147 0.0
C998 C 0.56436 0.09217 0.10784 0.0
C999 C 0.58577 0.06761 0.13634 0.0
H1000 H 0.12302 0.35852 0.20886 0.0
H1001 H 0.1099 0.22193 0.21308 0.0
H1002 H 0.16139 0.36099 0.27581 0.0
H1003 H 0.14833 0.22439 0.28109 0.0
H1004 H 0.14816 0.27711 0.42839 0.0
H1005 H 0.13015 0.25384 0.35559 0.0
H1006 H 0.22981 0.33984 0.30834 0.0
H1007 H 0.24739 0.36325 0.3809 0.0
C1008 C 0.12856 0.32893 0.22403 0.0
C1009 C 0.11359 0.29001 0.20569 0.0
C1010 C 0.15099 0.3303 0.2622 0.0
C1011 C 0.1584 0.2928 0.28341 0.0
C1012 C 0.14334 0.25373 0.26522 0.0
C1013 C 0.12136 0.25234 0.22647 0.0
C1014 C 0.16761 0.2893 0.4025 0.0
C1015 C 0.19887 0.32216 0.41 0.0
C1016 C 0.1572 0.27615 0.36081 0.0
C1017 C 0.17796 0.29582 0.3263 0.0
C1018 C 0.21285 0.32468 0.33429 0.0
C1019 C 0.22318 0.33781 0.37581 0.0
H1020 H 0.93944 0.8719 0.49694 0.0
H1021 H 0.037 0.80968 0.56309 0.0
H1022 H 0.91935 0.90716 0.56238 0.0
H1023 H 0.01832 0.84682 0.62947 0.0
H1024 H 0.92421 0.87988 0.74129 0.0
H1025 H 0.96568 0.85197 0.68309 0.0
H1026 H 0.94184 0.96197 0.6098 0.0
H1027 H 0.89657 0.98731 0.66566 0.0
C1028 C 0.95643 0.86574 0.52588 0.0
C1029 C 0.98929 0.83787 0.52536 0.0
C1030 C 0.94561 0.88663 0.56331 0.0
C1031 C 0.96807 0.881 0.60119 0.0
C1032 C 0.00047 0.85208 0.6009 0.0
C1033 C 0.01094 0.83053 0.56316 0.0
C1034 C 0.92832 0.89847 0.71295 0.0
C1035 C 0.90481 0.93451 0.70728 0.0
C1036 C 0.95252 0.88257 0.67962 0.0
C1037 C 0.955 0.9035 0.64075 0.0
C1038 C 0.93852 0.94381 0.63849 0.0
C1039 C 0.91316 0.95893 0.67115 0.0
H1040 H 0.4157 0.7771 0.69162 0.0
H1041 H 0.38583 0.64548 0.71924 0.0
H1042 H 0.36429 0.7981 0.74532 0.0
H1043 H 0.33531 0.66601 0.77252 0.0
H1044 H 0.25419 0.69448 0.8709 0.0
H1045 H 0.27198 0.69579 0.79561 0.0
H1046 H 0.36653 0.79796 0.82108 0.0
H1047 H 0.34735 0.7975 0.89575 0.0
C1048 C 0.39751 0.75267 0.7085 0.0
C1049 C 0.40526 0.70966 0.70178 0.0
C1050 C 0.3681 0.76469 0.73927 0.0
C1051 C 0.34551 0.73388 0.76338 0.0
C1052 C 0.35141 0.6908 0.75433 0.0
C1053 C 0.38096 0.6789 0.72408 0.0
C1054 C 0.27683 0.71892 0.85979 0.0
C1055 C 0.29999 0.74538 0.88899 0.0
C1056 C 0.28749 0.71936 0.81674 0.0
C1057 C 0.32201 0.74564 0.80256 0.0
C1058 C 0.3401 0.77691 0.83076 0.0
C1059 C 0.32899 0.77685 0.87374 0.0
H1060 H 0.51701 0.50698 0.86491 0.0
H1061 H 0.53055 0.63834 0.82973 0.0
H1062 H 0.47001 0.52629 0.92402 0.0
H1063 H 0.48537 0.65759 0.88905 0.0
H1064 H 0.42502 0.69295 0.0036 0.0
H1065 H 0.48325 0.65415 0.97413 0.0
H1066 H 0.39298 0.56176 0.91708 0.0
H1067 H 0.33456 0.60072 0.94641 0.0
C1068 C 0.51056 0.53996 0.87037 0.0
C1069 C 0.52687 0.57122 0.8427 0.0
C1070 C 0.48396 0.55092 0.90412 0.0
C1071 C 0.47476 0.59342 0.91138 0.0
C1072 C 0.49263 0.62469 0.88464 0.0
C1073 C 0.51803 0.61365 0.85041 0.0
C1074 C 0.41758 0.66305 0.98689 0.0
C1075 C 0.37534 0.65022 0.97653 0.0
C1076 C 0.45095 0.64102 0.9698 0.0
C1077 C 0.44241 0.60563 0.94264 0.0
C1078 C 0.40033 0.58902 0.93788 0.0
C1079 C 0.36691 0.61131 0.95464 0.0
H1080 H 0.69323 0.30702 0.14472 0.0
H1081 H 0.83063 0.31656 0.14561 0.0
H1082 H 0.69385 0.24382 0.18772 0.0
H1083 H 0.83086 0.25219 0.18744 0.0
H1084 H 0.69852 0.15472 0.28776 0.0
H1085 H 0.72562 0.22547 0.26771 0.0
H1086 H 0.79582 0.17076 0.1647 0.0
H1087 H 0.76855 0.09998 0.18456 0.0
C1088 C 0.72352 0.29587 0.15437 0.0
C1089 C 0.76182 0.31678 0.14183 0.0
C1090 C 0.72388 0.25989 0.17918 0.0
C1091 C 0.7625 0.24396 0.19173 0.0
C1092 C 0.80084 0.26467 0.17916 0.0
C1093 C 0.80053 0.30121 0.15496 0.0
C1094 C 0.72191 0.15764 0.26259 0.0
C1095 C 0.73086 0.1221 0.23717 0.0
C1096 C 0.73694 0.19813 0.2508 0.0
C1097 C 0.7616 0.20331 0.21397 0.0
C1098 C 0.77662 0.16741 0.19313 0.0
C1099 C 0.76132 0.12685 0.20476 0.0
H1100 H 0.07229 0.51231 0.28808 0.0
H1101 H 0.9732 0.54422 0.37611 0.0
H1102 H 0.12015 0.50393 0.3467 0.0
H1103 H 0.02193 0.53647 0.43556 0.0
H1104 H 0.095 0.42937 0.50574 0.0
H1105 H 0.05026 0.47495 0.4665 0.0
H1106 H 0.16169 0.53182 0.40517 0.0
H1107 H 0.20599 0.48458 0.44326 0.0
C1108 C 0.06083 0.51813 0.32002 0.0
C1109 C 0.01854 0.52796 0.32734 0.0
C1110 C 0.08864 0.51402 0.35385 0.0
C1111 C 0.07503 0.51954 0.39612 0.0
C1112 C 0.03338 0.53171 0.40346 0.0
C1113 C 0.00545 0.53607 0.36938 0.0
C1114 C 0.11004 0.45314 0.48552 0.0
C1115 C 0.15368 0.45301 0.47677 0.0
C1116 C 0.08439 0.47931 0.46282 0.0
C1117 C 0.10223 0.50577 0.43129 0.0
C1118 C 0.1468 0.51063 0.42809 0.0
C1119 C 0.1723 0.48401 0.45026 0.0
H1120 H 0.82741 0.70078 0.61911 0.0
H1121 H 0.69085 0.67727 0.621 0.0
H1122 H 0.82129 0.75939 0.67034 0.0
H1123 H 0.68503 0.73653 0.67164 0.0
H1124 H 0.80723 0.83 0.7892 0.0
H1125 H 0.7914 0.7622 0.75231 0.0
H1126 H 0.70872 0.82215 0.66614 0.0
H1127 H 0.72627 0.89054 0.70151 0.0
C1128 C 0.79617 0.70813 0.63041 0.0
C1129 C 0.75971 0.6841 0.61658 0.0
C1130 C 0.79268 0.74142 0.65986 0.0
C1131 C 0.75269 0.75152 0.67559 0.0
C1132 C 0.71611 0.72866 0.66058 0.0
C1133 C 0.71958 0.69499 0.63148 0.0
C1134 C 0.78396 0.82832 0.7638 0.0
C1135 C 0.76906 0.86561 0.74729 0.0
C1136 C 0.77535 0.78966 0.74244 0.0
C1137 C 0.74998 0.78757 0.70579 0.0
C1138 C 0.72872 0.82328 0.69417 0.0
C1139 C 0.73834 0.86233 0.71481 0.0
H1140 H 0.50111 0.43234 0.74501 0.0
H1141 H 0.55601 0.51334 0.64817 0.0
H1142 H 0.43795 0.41759 0.70063 0.0
H1143 H 0.49313 0.4974 0.60326 0.0
H1144 H 0.40167 0.37317 0.54056 0.0
H1145 H 0.46208 0.41398 0.57331 0.0
H1146 H 0.37733 0.46989 0.6633 0.0
H1147 H 0.3168 0.43036 0.62933 0.0
C1148 C 0.49964 0.44699 0.71431 0.0
C1149 C 0.53343 0.47385 0.69995 0.0
C1150 C 0.46343 0.43888 0.68915 0.0
C1151 C 0.46074 0.45685 0.64889 0.0
C1152 C 0.49449 0.4836 0.63438 0.0
C1153 C 0.53034 0.49251 0.65999 0.0
C1154 C 0.39574 0.39624 0.56554 0.0
C1155 C 0.35476 0.39856 0.58274 0.0
C1156 C 0.43027 0.41923 0.58453 0.0
C1157 C 0.42416 0.44426 0.6212 0.0
C1158 C 0.38266 0.4505 0.63517 0.0
C1159 C 0.34808 0.42829 0.61553 0.0
H1160 H 0.77411 0.22452 0.02536 0.0
H1161 H 0.72093 0.32149 0.9507 0.0
H1162 H 0.73872 0.17018 0.9802 0.0
H1163 H 0.68521 0.26657 0.90517 0.0
H1164 H 0.7261 0.1537 0.8088 0.0
H1165 H 0.71575 0.21587 0.85323 0.0
H1166 H 0.67023 0.13553 0.95466 0.0
H1167 H 0.6827 0.07309 0.91041 0.0
C1168 C 0.75456 0.23425 -0.00053 0.0
C1169 C 0.75094 0.27731 0.99124 0.0
C1170 C 0.7335 0.20304 0.974 0.0
C1171 C 0.70846 0.21402 0.93941 0.0
C1172 C 0.70387 0.25713 0.93178 0.0
C1173 C 0.72461 0.28851 0.95769 0.0
C1174 C 0.71089 0.14932 0.83941 0.0
C1175 C 0.70676 0.10884 0.85696 0.0
C1176 C 0.70524 0.18513 0.86515 0.0
C1177 C 0.69402 0.18042 0.90806 0.0
C1178 C 0.68025 0.13992 0.92205 0.0
C1179 C 0.68663 0.10412 0.89649 0.0
H1180 H 0.97628 0.56704 0.13512 0.0
H1181 H 0.02284 0.64791 0.23959 0.0
H1182 H 0.03866 0.58962 0.09282 0.0
H1183 H 0.08568 0.66938 0.19779 0.0
H1184 H 0.20836 0.67453 0.12829 0.0
H1185 H 0.15147 0.62995 0.1604 0.0
H1186 H 0.06331 0.67004 0.06678 0.0
H1187 H 0.12006 0.71568 0.03554 0.0
C1188 C 6e-05 0.58931 0.14912 0.0
C1189 C 0.99472 0.60605 0.19045 0.0
C1190 C 0.03566 0.60203 0.125 0.0
C1191 C 0.06702 0.63071 0.14233 0.0
C1192 C 0.06214 0.64669 0.18401 0.0
C1193 C 0.02607 0.6348 0.20772 0.0
C1194 C 0.1774 0.6719 0.11316 0.0
C1195 C 0.16849 0.69807 0.07926 0.0
C1196 C 0.14478 0.64693 0.13188 0.0
C1197 C 0.10309 0.64717 0.11629 0.0
C1198 C 0.0953 0.6693 0.07919 0.0
C1199 C 0.12777 0.695 0.06103 0.0
H1200 H 0.75126 0.76912 0.50231 0.0
H1201 H 0.79504 0.67345 0.41534 0.0
H1202 H 0.77081 0.82362 0.45193 0.0
H1203 H 0.81396 0.7287 0.36364 0.0
H1204 H 0.73447 0.82953 0.2835 0.0
H1205 H 0.75972 0.7718 0.32493 0.0
H1206 H 0.82727 0.86263 0.40835 0.0
H1207 H 0.80104 0.92047 0.36737 0.0
C1208 C 0.76571 0.7598 0.47255 0.0
C1209 C 0.77045 0.71688 0.46223 0.0
C1210 C 0.77755 0.79118 0.44384 0.0
C1211 C 0.79391 0.78047 0.40374 0.0
C1212 C 0.80139 0.7378 0.39435 0.0
C1213 C 0.79035 0.70626 0.42375 0.0
C1214 C 0.75697 0.83704 0.309 0.0
C1215 C 0.76583 0.8793 0.32235 0.0
C1216 C 0.77126 0.80396 0.33289 0.0
C1217 C 0.79474 0.81277 0.37025 0.0
C1218 C 0.80887 0.85498 0.37984 0.0
C1219 C 0.79427 0.88808 0.35617 0.0
H1220 H 0.7836 0.47277 0.58758 0.0
H1221 H 0.88374 0.52981 0.51029 0.0
H1222 H 0.82922 0.41669 0.60616 0.0
H1223 H 0.9301 0.47346 0.52946 0.0
H1224 H 0.90454 0.31189 0.6288 0.0
H1225 H 0.86841 0.35525 0.57865 0.0
H1226 H 0.96324 0.45765 0.60089 0.0
H1227 H 0.99925 0.41435 0.65111 0.0
C1228 C 0.81523 0.47291 0.57405 0.0
C1229 C 0.83024 0.50577 0.5478 0.0
C1230 C 0.84129 0.44052 0.58432 0.0
C1231 C 0.88325 0.44053 0.56909 0.0
C1232 C 0.89788 0.47263 0.54156 0.0
C1233 C 0.87137 0.50476 0.53059 0.0
C1234 C 0.91874 0.34294 0.62143 0.0
C1235 C 0.95423 0.36008 0.64439 0.0
C1236 C 0.89792 0.36783 0.59295 0.0
C1237 C 0.91239 0.41015 0.58675 0.0
C1238 C 0.95127 0.42516 0.60509 0.0
C1239 C 0.97207 0.40026 0.63377 0.0
H1240 H 0.27856 0.03309 0.52045 0.0
H1241 H 0.39891 0.98796 0.55978 0.0
H1242 H 0.31579 0.0925 0.48609 0.0
H1243 H 0.43613 0.04812 0.52622 0.0
H1244 H 0.47539 0.11058 0.39675 0.0
H1245 H 0.44856 0.06443 0.45267 0.0
H1246 H 0.35998 0.15741 0.49085 0.0
H1247 H 0.38658 0.20334 0.43417 0.0
C1248 C 0.31291 0.03631 0.52261 0.0
C1249 C 0.3357 0.00524 0.54218 0.0
C1250 C 0.33433 0.07065 0.50315 0.0
C1251 C 0.37905 0.07489 0.50302 0.0
C1252 C 0.40172 0.04536 0.52506 0.0
C1253 C 0.38032 0.0109 0.54437 0.0
C1254 C 0.45126 0.12182 0.41803 0.0
C1255 C 0.43269 0.16028 0.4108 0.0
C1256 C 0.43578 0.09532 0.45016 0.0
C1257 C 0.40152 0.10688 0.47579 0.0
C1258 C 0.3857 0.14715 0.47101 0.0
C1259 C 0.40107 0.17355 0.43877 0.0
H1260 H 0.3577 0.12071 0.85568 0.0
H1261 H 0.33118 0.15283 0.7261 0.0
H1262 H 0.29778 0.1615 0.88 0.0
H1263 H 0.27252 0.19346 0.75042 0.0
H1264 H 0.19171 0.28767 0.79388 0.0
H1265 H 0.26208 0.26163 0.79654 0.0
H1266 H 0.21425 0.15293 0.86588 0.0
H1267 H 0.14278 0.17903 0.86321 0.0
C1268 C 0.33947 0.13677 0.83252 0.0
C1269 C 0.34914 0.13346 0.78893 0.0
C1270 C 0.30545 0.16029 0.84651 0.0
C1271 C 0.28143 0.18176 0.81725 0.0
C1272 C 0.29138 0.17847 0.77386 0.0
C1273 C 0.32464 0.15459 0.75986 0.0
C1274 C 0.19628 0.25947 0.81184 0.0
C1275 C 0.16137 0.23472 0.82717 0.0
C1276 C 0.23686 0.24428 0.81297 0.0
C1277 C 0.2435 0.20459 0.83015 0.0
C1278 C 0.20998 0.18339 0.85193 0.0
C1279 C 0.16909 0.19842 0.8505 0.0
H1280 H 0.09777 0.0497 0.99121 0.0
H1281 H 0.21608 0.98713 0.99282 0.0
H1282 H 0.06203 0.98584 0.9596 0.0
H1283 H 0.18038 0.92371 0.96113 0.0
H1284 H 0.11176 0.80759 0.91969 0.0
H1285 H 0.12455 0.86511 0.97236 0.0
H1286 H 0.06908 0.95191 0.8874 0.0
H1287 H 0.0563 0.89439 0.83514 0.0
C1288 C 0.11611 0.0223 0.98512 0.0
C1289 C 0.15997 0.02373 0.99399 0.0
C1290 C 0.09555 0.98573 0.96717 0.0
C1291 C 0.1183 0.94972 0.95821 0.0
C1292 C 0.16178 0.9507 0.96839 0.0
C1293 C 0.18242 0.98731 0.98595 0.0
C1294 C 0.10029 0.83847 0.91337 0.0
C1295 C 0.08327 0.84685 0.8735 0.0
C1296 C 0.10811 0.87148 0.94319 0.0
C1297 C 0.09871 0.91312 0.93351 0.0
C1298 C 0.07666 0.92018 0.89579 0.0
C1299 C 0.06916 0.88727 0.86591 0.0
H1300 H 0.71617 0.44742 0.86179 0.0
H1301 H 0.72381 0.42161 0.72665 0.0
H1302 H 0.77843 0.40538 0.87289 0.0
H1303 H 0.7841 0.37879 0.738 0.0
H1304 H 0.93051 0.39306 0.81715 0.0
H1305 H 0.86188 0.41986 0.83731 0.0
H1306 H 0.79792 0.30678 0.78349 0.0
H1307 H 0.86629 0.28015 0.76295 0.0
C1308 C 0.73078 0.43248 0.83462 0.0
C1309 C 0.71516 0.43788 0.79332 0.0
C1310 C 0.76613 0.40837 0.84105 0.0
C1311 C 0.78544 0.38843 0.80638 0.0
C1312 C 0.76931 0.3933 0.76536 0.0
C1313 C 0.73498 0.41814 0.75884 0.0
C1314 C 0.90193 0.37276 0.81211 0.0
C1315 C 0.9035 0.33475 0.78821 0.0
C1316 C 0.86264 0.38821 0.82343 0.0
C1317 C 0.82477 0.36566 0.811 0.0
C1318 C 0.82674 0.32482 0.79288 0.0
C1319 C 0.86586 0.30942 0.78155 0.0
H1320 H 0.74396 0.52999 0.10958 0.0
H1321 H 0.65419 0.46982 0.02011 0.0
H1322 H 0.69874 0.58975 0.11771 0.0
H1323 H 0.60842 0.5294 0.02903 0.0
H1324 H 0.62614 0.70206 0.11266 0.0
H1325 H 0.6667 0.65003 0.07415 0.0
H1326 H 0.56742 0.55338 0.09767 0.0
H1327 H 0.52739 0.60503 0.13714 0.0
C1328 C 0.7148 0.52978 0.09133 0.0
C1329 C 0.70248 0.49524 0.06441 0.0
C1330 C 0.68912 0.56413 0.09564 0.0
C1331 C 0.65027 0.56425 0.07368 0.0
C1332 C 0.63833 0.53012 0.04607 0.0
C1333 C 0.66449 0.49611 0.04107 0.0
C1334 C 0.61219 0.67009 0.10806 0.0
C1335 C 0.57413 0.6573 0.12878 0.0
C1336 C 0.63551 0.64033 0.08624 0.0
C1337 C 0.62061 0.59759 0.08399 0.0
C1338 C 0.57966 0.58615 0.09915 0.0
C1339 C 0.55656 0.61584 0.12152 0.0
H1340 H 0.32397 0.00023 0.75807 0.0
H1341 H 0.39386 0.90117 0.69872 0.0
H1342 H 0.26087 0.95199 0.76069 0.0
H1343 H 0.33062 0.8526 0.70217 0.0
H1344 H 0.14481 0.87484 0.72593 0.0
H1345 H 0.21035 0.9155 0.70786 0.0
H1346 H 0.28381 0.81746 0.75891 0.0
H1347 H 0.21799 0.77676 0.77711 0.0
C1348 C 0.32594 0.96805 0.74588 0.0
C1349 C 0.36382 0.95448 0.72819 0.0
C1350 C 0.28968 0.94059 0.74689 0.0
C1351 C 0.29068 0.89879 0.73081 0.0
C1352 C 0.32885 0.88477 0.71422 0.0
C1353 C 0.365 0.91254 0.7124 0.0
C1354 C 0.17501 0.86135 0.73179 0.0
C1355 C 0.17657 0.82291 0.75295 0.0
C1356 C 0.21243 0.88477 0.72199 0.0
C1357 C 0.25201 0.87002 0.733 0.0
C1358 C 0.25367 0.82956 0.75029 0.0
C1359 C 0.2161 0.80615 0.76036 0.0
H1360 H 0.22344 0.048 0.20991 0.0
H1361 H 0.14988 0.15868 0.21568 0.0
H1362 H 0.28837 0.09218 0.22042 0.0
H1363 H 0.21549 0.20373 0.22769 0.0
H1364 H 0.33476 0.23856 0.31931 0.0
H1365 H 0.26766 0.21418 0.28578 0.0
H1366 H 0.33647 0.14601 0.19007 0.0
H1367 H 0.4033 0.16943 0.22421 0.0
C1368 C 0.2214 0.08206 0.21303 0.0
C1369 C 0.1819 0.10013 0.21225 0.0
C1370 C 0.25861 0.10749 0.21859 0.0
C1371 C 0.2572 0.15163 0.22436 0.0
C1372 C 0.21756 0.16987 0.22302 0.0
C1373 C 0.18016 0.1443 0.21616 0.0
C1374 C 0.33552 0.21954 0.29025 0.0
C1375 C 0.37414 0.20494 0.27503 0.0
C1376 C 0.29708 0.20566 0.27095 0.0
C1377 C 0.2968 0.17693 0.23619 0.0
C1378 C 0.33574 0.16714 0.21764 0.0
C1379 C 0.3741 0.18105 0.23686 0.0
loop_
_geom_bond_atom_site_label_1
_geom_bond_atom_site_label_2
_geom_bond_distance
_geom_bond_site_symmetry_2
_ccdc_geom_bond_type
Co0 O1 2.216 . S
Co0 O2 2.091 . S
Co0 O4 2.004 1_455 S
Co0 O10 2.021 1_455 S
Co0 O12 2.137 . S
Co0 O13 2.244 . S
O1 Co0 2.216 . S
O1 C8 1.247 . S
O2 Co0 2.091 . S
O2 C8 1.261 . S
C3 O12 1.247 . S
C3 O13 1.272 . S
O4 Co0 2.004 1_655 S
O4 C9 1.259 . S
Co5 O6 2.061 1_455 S
Co5 O11 2.052 1_455 S
Co5 O13 2.135 . S
O6 Co5 2.061 1_655 S
O6 C9 1.235 . S
C7 O10 1.238 . S
C7 O11 1.241 . S
C8 O1 1.247 . S
C8 O2 1.261 . S
C9 O4 1.259 . S
C9 O6 1.235 . S
O10 Co0 2.021 1_655 S
O10 C7 1.238 . S
O11 Co5 2.052 1_655 S
O11 C7 1.241 . S
O12 Co0 2.137 . S
O12 C3 1.247 . S
O13 Co0 2.244 . S
O13 C3 1.272 . S
O13 Co5 2.135 . S
Co14 O15 2.216 . S
Co14 O16 2.091 1_455 S
Co14 O18 2.004 1_455 S
Co14 O24 2.021 1_455 S
Co14 O26 2.137 . S
Co14 O27 2.244 . S
O15 Co14 2.216 . S
O15 C22 1.247 . S
O16 Co14 2.091 1_655 S
O16 C22 1.261 1_655 S
C17 O26 1.247 . S
C17 O27 1.272 . S
O18 Co14 2.004 1_655 S
O18 C23 1.259 . S
Co19 O20 2.061 1_455 S
Co19 O25 2.052 1_455 S
Co19 O27 2.135 . S
O20 Co19 2.061 1_655 S
O20 C23 1.235 . S
C21 O24 1.238 . S
C21 O25 1.241 . S
C22 O15 1.247 . S
C22 O16 1.261 1_455 S
C23 O18 1.259 . S
C23 O20 1.235 . S
O24 Co14 2.021 1_655 S
O24 C21 1.238 . S
O25 Co19 2.052 1_655 S
O25 C21 1.241 . S
O26 Co14 2.137 . S
O26 C17 1.247 . S
O27 Co14 2.244 . S
O27 C17 1.272 . S
O27 Co19 2.135 . S
Co28 O29 2.216 . S
Co28 O30 2.091 . S
Co28 O32 2.004 . S
Co28 O38 2.021 . S
Co28 O40 2.137 . S
Co28 O41 2.244 . S
O29 Co28 2.216 . S
O29 C36 1.247 . S
O30 Co28 2.091 . S
O30 C36 1.261 . S
C31 O40 1.247 . S
C31 O41 1.272 . S
O32 Co28 2.004 . S
O32 C37 1.259 . S
Co33 O34 2.061 . S
Co33 O39 2.052 . S
Co33 O41 2.135 . S
O34 Co33 2.061 . S
O34 C37 1.235 . S
C35 O38 1.238 . S
C35 O39 1.241 . S
C36 O29 1.247 . S
C36 O30 1.261 . S
C37 O32 1.259 . S
C37 O34 1.235 . S
O38 Co28 2.021 . S
O38 C35 1.238 . S
O39 Co33 2.052 . S
O39 C35 1.241 . S
O40 Co28 2.137 . S
O40 C31 1.247 . S
O41 Co28 2.244 . S
O41 C31 1.272 . S
O41 Co33 2.135 . S
Co42 O43 2.216 . S
Co42 O44 2.091 . S
Co42 O46 2.004 . S
Co42 O52 2.021 . S
Co42 O54 2.137 . S
Co42 O55 2.244 . S
O43 Co42 2.216 . S
O43 C50 1.247 . S
O44 Co42 2.091 . S
O44 C50 1.261 . S
C45 O54 1.247 . S
C45 O55 1.272 . S
O46 Co42 2.004 . S
O46 C51 1.259 . S
Co47 O48 2.061 . S
Co47 O53 2.052 . S
Co47 O55 2.135 . S
O48 Co47 2.061 . S
O48 C51 1.235 . S
C49 O52 1.238 . S
C49 O53 1.241 . S
C50 O43 1.247 . S
C50 O44 1.261 . S
C51 O46 1.259 . S
C51 O48 1.235 . S
O52 Co42 2.021 . S
O52 C49 1.238 . S
O53 Co47 2.052 . S
O53 C49 1.241 . S
O54 Co42 2.137 . S
O54 C45 1.247 . S
O55 Co42 2.244 . S
O55 C45 1.272 . S
O55 Co47 2.135 . S
Co56 O57 2.216 . S
Co56 O58 2.091 . S
Co56 O60 2.004 1_565 S
Co56 O66 2.021 1_565 S
Co56 O68 2.137 . S
Co56 O69 2.244 1_565 S
O57 Co56 2.216 . S
O57 C64 1.247 . S
O58 Co56 2.091 . S
O58 C64 1.261 . S
C59 O68 1.247 . S
C59 O69 1.272 1_565 S
O60 Co56 2.004 1_545 S
O60 C65 1.259 . S
Co61 O62 2.061 . S
Co61 O67 2.052 . S
Co61 O69 2.135 . S
O62 Co61 2.061 . S
O62 C65 1.235 . S
C63 O66 1.238 . S
C63 O67 1.241 . S
C64 O57 1.247 . S
C64 O58 1.261 . S
C65 O60 1.259 . S
C65 O62 1.235 . S
O66 Co56 2.021 1_545 S
O66 C63 1.238 . S
O67 Co61 2.052 . S
O67 C63 1.241 . S
O68 Co56 2.137 . S
O68 C59 1.247 . S
O69 Co56 2.244 1_545 S
O69 C59 1.272 1_545 S
O69 Co61 2.135 . S
Co70 O71 2.216 . S
Co70 O72 2.091 . S
Co70 O74 2.004 . S
Co70 O80 2.021 . S
Co70 O82 2.137 . S
Co70 O83 2.244 . S
O71 Co70 2.216 . S
O71 C78 1.247 . S
O72 Co70 2.091 . S
O72 C78 1.261 . S
C73 O82 1.247 . S
C73 O83 1.272 . S
O74 Co70 2.004 . S
O74 C79 1.259 . S
Co75 O76 2.061 . S
Co75 O81 2.052 . S
Co75 O83 2.135 . S
O76 Co75 2.061 . S
O76 C79 1.235 . S
C77 O80 1.238 . S
C77 O81 1.241 . S
C78 O71 1.247 . S
C78 O72 1.261 . S
C79 O74 1.259 . S
C79 O76 1.235 . S
O80 Co70 2.021 . S
O80 C77 1.238 . S
O81 Co75 2.052 . S
O81 C77 1.241 . S
O82 Co70 2.137 . S
O82 C73 1.247 . S
O83 Co70 2.244 . S
O83 C73 1.272 . S
O83 Co75 2.135 . S
Co84 O85 2.216 . S
Co84 O86 2.091 . S
Co84 O88 2.004 . S
Co84 O94 2.021 . S
Co84 O96 2.137 . S
Co84 O97 2.244 . S
O85 Co84 2.216 . S
O85 C92 1.247 . S
O86 Co84 2.091 . S
O86 C92 1.261 . S
C87 O96 1.247 . S
C87 O97 1.272 . S
O88 Co84 2.004 . S
O88 C93 1.259 . S
Co89 O90 2.061 . S
Co89 O95 2.052 . S
Co89 O97 2.135 1_565 S
O90 Co89 2.061 . S
O90 C93 1.235 1_565 S
C91 O94 1.238 1_565 S
C91 O95 1.241 . S
C92 O85 1.247 . S
C92 O86 1.261 . S
C93 O88 1.259 . S
C93 O90 1.235 1_545 S
O94 Co84 2.021 . S
O94 C91 1.238 1_545 S
O95 Co89 2.052 . S
O95 C91 1.241 . S
O96 Co84 2.137 . S
O96 C87 1.247 . S
O97 Co84 2.244 . S
O97 C87 1.272 . S
O97 Co89 2.135 1_545 S
Co98 O99 2.216 . S
Co98 O100 2.091 1_554 S
Co98 O102 2.004 1_554 S
Co98 O108 2.021 1_554 S
Co98 O110 2.137 . S
Co98 O111 2.244 . S
O99 Co98 2.216 . S
O99 C106 1.247 . S
O100 Co98 2.091 1_556 S
O100 C106 1.261 1_556 S
C101 O110 1.247 . S
C101 O111 1.272 . S
O102 Co98 2.004 1_556 S
O102 C107 1.259 . S
Co103 O104 2.061 1_554 S
Co103 O109 2.052 1_554 S
Co103 O111 2.135 . S
O104 Co103 2.061 1_556 S
O104 C107 1.235 . S
C105 O108 1.238 . S
C105 O109 1.241 . S
C106 O99 1.247 . S
C106 O100 1.261 1_554 S
C107 O102 1.259 . S
C107 O104 1.235 . S
O108 Co98 2.021 1_556 S
O108 C105 1.238 . S
O109 Co103 2.052 1_556 S
O109 C105 1.241 . S
O110 Co98 2.137 . S
O110 C101 1.247 . S
O111 Co98 2.244 . S
O111 C101 1.272 . S
O111 Co103 2.135 . S
Co112 O113 2.216 . S
Co112 O114 2.091 . S
Co112 O116 2.004 1_554 S
Co112 O122 2.021 1_554 S
Co112 O124 2.137 . S
Co112 O125 2.244 . S
O113 Co112 2.216 . S
O113 C120 1.247 . S
O114 Co112 2.091 . S
O114 C120 1.261 . S
C115 O124 1.247 . S
C115 O125 1.272 . S
O116 Co112 2.004 1_556 S
O116 C121 1.259 . S
Co117 O118 2.061 1_554 S
Co117 O123 2.052 . S
Co117 O125 2.135 . S
O118 Co117 2.061 1_556 S
O118 C121 1.235 . S
C119 O122 1.238 . S
C119 O123 1.241 1_556 S
C120 O113 1.247 . S
C120 O114 1.261 . S
C121 O116 1.259 . S
C121 O118 1.235 . S
O122 Co112 2.021 1_556 S
O122 C119 1.238 . S
O123 Co117 2.052 . S
O123 C119 1.241 1_554 S
O124 Co112 2.137 . S
O124 C115 1.247 . S
O125 Co112 2.244 . S
O125 C115 1.272 . S
O125 Co117 2.135 . S
Co126 O127 2.216 . S
Co126 O128 2.091 . S
Co126 O130 2.004 . S
Co126 O136 2.021 . S
Co126 O138 2.137 . S
Co126 O139 2.244 . S
O127 Co126 2.216 . S
O127 C134 1.247 . S
O128 Co126 2.091 . S
O128 C134 1.261 . S
C129 O138 1.247 . S
C129 O139 1.272 . S
O130 Co126 2.004 . S
O130 C135 1.259 . S
Co131 O132 2.061 . S
Co131 O137 2.052 . S
Co131 O139 2.135 . S
O132 Co131 2.061 . S
O132 C135 1.235 . S
C133 O136 1.238 . S
C133 O137 1.241 . S
C134 O127 1.247 . S
C134 O128 1.261 . S
C135 O130 1.259 . S
C135 O132 1.235 . S
O136 Co126 2.021 . S
O136 C133 1.238 . S
O137 Co131 2.052 . S
O137 C133 1.241 . S
O138 Co126 2.137 . S
O138 C129 1.247 . S
O139 Co126 2.244 . S
O139 C129 1.272 . S
O139 Co131 2.135 . S
Co140 O141 2.216 . S
Co140 O142 2.091 . S
Co140 O144 2.004 . S
Co140 O150 2.021 . S
Co140 O152 2.137 . S
Co140 O153 2.244 . S
O141 Co140 2.216 . S
O141 C148 1.247 . S
O142 Co140 2.091 . S
O142 C148 1.261 . S
C143 O152 1.247 . S
C143 O153 1.272 . S
O144 Co140 2.004 . S
O144 C149 1.259 . S
Co145 O146 2.061 . S
Co145 O151 2.052 . S
Co145 O153 2.135 . S
O146 Co145 2.061 . S
O146 C149 1.235 . S
C147 O150 1.238 . S
C147 O151 1.241 . S
C148 O141 1.247 . S
C148 O142 1.261 . S
C149 O144 1.259 . S
C149 O146 1.235 . S
O150 Co140 2.021 . S
O150 C147 1.238 . S
O151 Co145 2.052 . S
O151 C147 1.241 . S
O152 Co140 2.137 . S
O152 C143 1.247 . S
O153 Co140 2.244 . S
O153 C143 1.272 . S
O153 Co145 2.135 . S
Co154 O155 2.216 . S
Co154 O156 2.091 . S
Co154 O158 2.004 . S
Co154 O164 2.021 . S
Co154 O166 2.137 . S
Co154 O167 2.244 . S
O155 Co154 2.216 . S
O155 C162 1.247 . S
O156 Co154 2.091 . S
O156 C162 1.261 . S
C157 O166 1.247 . S
C157 O167 1.272 . S
O158 Co154 2.004 . S
O158 C163 1.259 . S
Co159 O160 2.061 . S
Co159 O165 2.052 . S
Co159 O167 2.135 . S
O160 Co159 2.061 . S
O160 C163 1.235 . S
C161 O164 1.238 . S
C161 O165 1.241 . S
C162 O155 1.247 . S
C162 O156 1.261 . S
C163 O158 1.259 . S
C163 O160 1.235 . S
O164 Co154 2.021 . S
O164 C161 1.238 . S
O165 Co159 2.052 . S
O165 C161 1.241 . S
O166 Co154 2.137 . S
O166 C157 1.247 . S
O167 Co154 2.244 . S
O167 C157 1.272 . S
O167 Co159 2.135 . S
H168 C176 0.930 . S
H169 C179 0.930 . S
H170 C181 0.930 . S
H171 C182 0.970 . S
H172 C182 0.970 . S
H173 C184 0.931 . S
H174 C186 0.930 . S
H175 C188 0.930 1_455 S
C176 H168 0.930 . S
C176 C177 1.382 . S
C176 C178 1.426 . S
C177 C176 1.382 . S
C177 C181 1.389 . S
C178 C176 1.426 . S
C178 C179 1.375 . S
C178 C182 1.532 . S
C179 H169 0.930 . S
C179 C178 1.375 . S
C179 C180 1.416 . S
C180 C179 1.416 . S
C180 C181 1.371 . S
C181 H170 0.930 . S
C181 C177 1.389 . S
C181 C180 1.371 . S
C182 H171 0.970 . S
C182 H172 0.970 . S
C182 C178 1.532 . S
C182 C183 1.499 . S
C183 C182 1.499 . S
C183 C184 1.370 1_455 S
C183 C188 1.415 1_455 S
C184 H173 0.931 . S
C184 C183 1.370 1_655 S
C184 C185 1.407 . S
C185 C184 1.407 . S
C185 C186 1.365 . S
C186 H174 0.930 . S
C186 C185 1.365 . S
C186 C187 1.393 . S
C187 C186 1.393 . S
C187 C188 1.387 . S
C188 H175 0.930 1_655 S
C188 C183 1.415 1_655 S
C188 C187 1.387 . S
H189 C197 0.930 . S
H190 C200 0.930 . S
H191 C202 0.930 . S
H192 C203 0.970 . S
H193 C203 0.970 . S
H194 C205 0.930 1_455 S
H195 C207 0.930 . S
H196 C209 0.930 1_455 S
C197 H189 0.930 . S
C197 C198 1.382 . S
C197 C199 1.426 . S
C198 C197 1.382 . S
C198 C202 1.389 . S
C199 C197 1.426 . S
C199 C200 1.375 . S
C199 C203 1.532 . S
C200 H190 0.930 . S
C200 C199 1.375 . S
C200 C201 1.416 . S
C201 C200 1.416 . S
C201 C202 1.371 . S
C202 H191 0.930 . S
C202 C198 1.389 . S
C202 C201 1.371 . S
C203 H192 0.970 . S
C203 H193 0.970 . S
C203 C199 1.532 . S
C203 C204 1.499 . S
C204 C203 1.499 . S
C204 C205 1.370 1_455 S
C204 C209 1.415 1_455 S
C205 H194 0.930 1_655 S
C205 C204 1.370 1_655 S
C205 C206 1.407 . S
C206 C205 1.407 . S
C206 C207 1.365 . S
C207 H195 0.930 . S
C207 C206 1.365 . S
C207 C208 1.393 . S
C208 C207 1.393 . S
C208 C209 1.387 . S
C209 H196 0.930 1_655 S
C209 C204 1.415 1_655 S
C209 C208 1.387 . S
H210 C218 0.930 . S
H211 C221 0.930 . S
H212 C223 0.930 . S
H213 C224 0.970 . S
H214 C224 0.970 . S
H215 C226 0.930 . S
H216 C228 0.930 . S
H217 C230 0.930 . S
C218 H210 0.930 . S
C218 C219 1.382 . S
C218 C220 1.426 . S
C219 C218 1.382 . S
C219 C223 1.389 . S
C220 C218 1.426 . S
C220 C221 1.375 . S
C220 C224 1.532 . S
C221 H211 0.930 . S
C221 C220 1.375 . S
C221 C222 1.416 . S
C222 C221 1.416 . S
C222 C223 1.371 . S
C223 H212 0.930 . S
C223 C219 1.389 . S
C223 C222 1.371 . S
C224 H213 0.970 . S
C224 H214 0.970 . S
C224 C220 1.532 . S
C224 C225 1.499 . S
C225 C224 1.499 . S
C225 C226 1.370 . S
C225 C230 1.415 . S
C226 H215 0.930 . S
C226 C225 1.370 . S
C226 C227 1.407 . S
C227 C226 1.407 . S
C227 C228 1.365 . S
C228 H216 0.930 . S
C228 C227 1.365 . S
C228 C229 1.393 . S
C229 C228 1.393 . S
C229 C230 1.387 . S
C230 H217 0.930 . S
C230 C225 1.415 . S
C230 C229 1.387 . S
H231 C239 0.930 . S
H232 C242 0.930 . S
H233 C244 0.930 . S
H234 C245 0.970 . S
H235 C245 0.970 . S
H236 C247 0.930 . S
H237 C249 0.930 . S
H238 C251 0.930 . S
C239 H231 0.930 . S
C239 C240 1.382 . S
C239 C241 1.426 . S
C240 C239 1.382 . S
C240 C244 1.389 . S
C241 C239 1.426 . S
C241 C242 1.375 . S
C241 C245 1.532 . S
C242 H232 0.930 . S
C242 C241 1.375 . S
C242 C243 1.416 . S
C243 C242 1.416 . S
C243 C244 1.371 . S
C244 H233 0.930 . S
C244 C240 1.389 . S
C244 C243 1.371 . S
C245 H234 0.970 . S
C245 H235 0.970 . S
C245 C241 1.532 . S
C245 C246 1.499 . S
C246 C245 1.499 . S
C246 C247 1.370 . S
C246 C251 1.415 . S
C247 H236 0.930 . S
C247 C246 1.370 . S
C247 C248 1.407 . S
C248 C247 1.407 . S
C248 C249 1.365 . S
C249 H237 0.930 . S
C249 C248 1.365 . S
C249 C250 1.393 . S
C250 C249 1.393 . S
C250 C251 1.387 . S
C251 H238 0.930 . S
C251 C246 1.415 . S
C251 C250 1.387 . S
H252 C260 0.930 . S
H253 C263 0.930 . S
H254 C265 0.930 . S
H255 C266 0.970 . S
H256 C266 0.970 . S
H257 C268 0.930 . S
H258 C270 0.930 . S
H259 C272 0.930 . S
C260 H252 0.930 . S
C260 C261 1.382 . S
C260 C262 1.426 . S
C261 C260 1.382 . S
C261 C265 1.389 . S
C262 C260 1.426 . S
C262 C263 1.375 . S
C262 C266 1.532 1_545 S
C263 H253 0.930 . S
C263 C262 1.375 . S
C263 C264 1.416 . S
C264 C263 1.416 . S
C264 C265 1.371 . S
C265 H254 0.930 . S
C265 C261 1.389 . S
C265 C264 1.371 . S
C266 H255 0.970 . S
C266 H256 0.970 . S
C266 C262 1.532 1_565 S
C266 C267 1.499 . S
C267 C266 1.499 . S
C267 C268 1.370 . S
C267 C272 1.415 . S
C268 H257 0.930 . S
C268 C267 1.370 . S
C268 C269 1.407 . S
C269 C268 1.407 . S
C269 C270 1.365 . S
C270 H258 0.930 . S
C270 C269 1.365 . S
C270 C271 1.393 . S
C271 C270 1.393 . S
C271 C272 1.387 . S
C272 H259 0.930 . S
C272 C267 1.415 . S
C272 C271 1.387 . S
H273 C281 0.930 . S
H274 C284 0.930 . S
H275 C286 0.930 . S
H276 C287 0.970 . S
H277 C287 0.970 . S
H278 C289 0.930 . S
H279 C291 0.930 . S
H280 C293 0.930 . S
C281 H273 0.930 . S
C281 C282 1.382 . S
C281 C283 1.426 . S
C282 C281 1.382 . S
C282 C286 1.389 . S
C283 C281 1.426 . S
C283 C284 1.375 . S
C283 C287 1.532 . S
C284 H274 0.930 . S
C284 C283 1.375 . S
C284 C285 1.416 . S
C285 C284 1.416 . S
C285 C286 1.371 . S
C286 H275 0.930 . S
C286 C282 1.389 . S
C286 C285 1.371 . S
C287 H276 0.970 . S
C287 H277 0.970 . S
C287 C283 1.532 . S
C287 C288 1.499 . S
C288 C287 1.499 . S
C288 C289 1.370 . S
C288 C293 1.415 . S
C289 H278 0.930 . S
C289 C288 1.370 . S
C289 C290 1.407 . S
C290 C289 1.407 . S
C290 C291 1.365 . S
C291 H279 0.930 . S
C291 C290 1.365 . S
C291 C292 1.393 . S
C292 C291 1.393 . S
C292 C293 1.387 . S
C293 H280 0.930 . S
C293 C288 1.415 . S
C293 C292 1.387 . S
H294 C302 0.930 . S
H295 C305 0.930 . S
H296 C307 0.930 . S
H297 C308 0.970 . S
H298 C308 0.970 . S
H299 C310 0.930 . S
H300 C312 0.930 . S
H301 C314 0.930 . S
C302 H294 0.930 . S
C302 C303 1.382 . S
C302 C304 1.426 1_565 S
C303 C302 1.382 . S
C303 C307 1.389 . S
C304 C302 1.426 1_545 S
C304 C305 1.375 1_545 S
C304 C308 1.532 . S
C305 H295 0.930 . S
C305 C304 1.375 1_565 S
C305 C306 1.416 . S
C306 C305 1.416 . S
C306 C307 1.371 . S
C307 H296 0.930 . S
C307 C303 1.389 . S
C307 C306 1.371 . S
C308 H297 0.970 . S
C308 H298 0.970 . S
C308 C304 1.532 . S
C308 C309 1.499 . S
C309 C308 1.499 . S
C309 C310 1.370 . S
C309 C314 1.415 . S
C310 H299 0.930 . S
C310 C309 1.370 . S
C310 C311 1.407 . S
C311 C310 1.407 . S
C311 C312 1.365 . S
C312 H300 0.930 . S
C312 C311 1.365 . S
C312 C313 1.393 . S
C313 C312 1.393 . S
C313 C314 1.387 . S
C314 H301 0.930 . S
C314 C309 1.415 . S
C314 C313 1.387 . S
H315 C323 0.930 . S
H316 C326 0.930 . S
H317 C328 0.930 . S
H318 C329 0.970 . S
H319 C329 0.970 . S
H320 C331 0.930 . S
H321 C333 0.930 . S
H322 C335 0.930 . S
C323 H315 0.930 . S
C323 C324 1.382 . S
C323 C325 1.426 . S
C324 C323 1.382 . S
C324 C328 1.389 . S
C325 C323 1.426 . S
C325 C326 1.375 . S
C325 C329 1.532 . S
C326 H316 0.930 . S
C326 C325 1.375 . S
C326 C327 1.416 . S
C327 C326 1.416 . S
C327 C328 1.371 . S
C328 H317 0.930 . S
C328 C324 1.389 . S
C328 C327 1.371 . S
C329 H318 0.970 . S
C329 H319 0.970 . S
C329 C325 1.532 . S
C329 C330 1.499 . S
C330 C329 1.499 . S
C330 C331 1.370 . S
C330 C335 1.415 . S
C331 H320 0.930 . S
C331 C330 1.370 . S
C331 C332 1.407 1_554 S
C332 C331 1.407 1_556 S
C332 C333 1.365 . S
C333 H321 0.930 . S
C333 C332 1.365 . S
C333 C334 1.393 . S
C334 C333 1.393 . S
C334 C335 1.387 1_556 S
C335 H322 0.930 . S
C335 C330 1.415 . S
C335 C334 1.387 1_554 S
H336 C344 0.930 . S
H337 C347 0.930 . S
H338 C349 0.930 . S
H339 C350 0.970 . S
H340 C350 0.970 . S
H341 C352 0.930 1_554 S
H342 C354 0.930 . S
H343 C356 0.930 . S
C344 H336 0.930 . S
C344 C345 1.382 . S
C344 C346 1.426 . S
C345 C344 1.382 . S
C345 C349 1.389 . S
C346 C344 1.426 . S
C346 C347 1.375 . S
C346 C350 1.532 . S
C347 H337 0.930 . S
C347 C346 1.375 . S
C347 C348 1.416 . S
C348 C347 1.416 . S
C348 C349 1.371 . S
C349 H338 0.930 . S
C349 C345 1.389 . S
C349 C348 1.371 . S
C350 H339 0.970 . S
C350 H340 0.970 . S
C350 C346 1.532 . S
C350 C351 1.499 . S
C351 C350 1.499 . S
C351 C352 1.370 1_554 S
C351 C356 1.415 . S
C352 H341 0.930 1_556 S
C352 C351 1.370 1_556 S
C352 C353 1.407 . S
C353 C352 1.407 . S
C353 C354 1.365 . S
C354 H342 0.930 . S
C354 C353 1.365 . S
C354 C355 1.393 . S
C355 C354 1.393 . S
C355 C356 1.387 1_556 S
C356 H343 0.930 . S
C356 C351 1.415 . S
C356 C355 1.387 1_554 S
H357 C365 0.930 . S
H358 C368 0.930 . S
H359 C370 0.930 . S
H360 C371 0.970 . S
H361 C371 0.970 . S
H362 C373 0.930 . S
H363 C375 0.930 . S
H364 C377 0.930 . S
C365 H357 0.930 . S
C365 C366 1.382 . S
C365 C367 1.426 . S
C366 C365 1.382 . S
C366 C370 1.389 . S
C367 C365 1.426 . S
C367 C368 1.375 . S
C367 C371 1.532 . S
C368 H358 0.930 . S
C368 C367 1.375 . S
C368 C369 1.416 . S
C369 C368 1.416 . S
C369 C370 1.371 . S
C370 H359 0.930 . S
C370 C366 1.389 . S
C370 C369 1.371 . S
C371 H360 0.970 . S
C371 H361 0.970 . S
C371 C367 1.532 . S
C371 C372 1.499 . S
C372 C371 1.499 . S
C372 C373 1.370 . S
C372 C377 1.415 . S
C373 H362 0.930 . S
C373 C372 1.370 . S
C373 C374 1.407 . S
C374 C373 1.407 . S
C374 C375 1.365 . S
C375 H363 0.930 . S
C375 C374 1.365 . S
C375 C376 1.393 . S
C376 C375 1.393 . S
C376 C377 1.387 . S
C377 H364 0.930 . S
C377 C372 1.415 . S
C377 C376 1.387 . S
H378 C386 0.930 . S
H379 C389 0.930 . S
H380 C391 0.930 . S
H381 C392 0.970 . S
H382 C392 0.970 . S
H383 C394 0.930 . S
H384 C396 0.930 . S
H385 C398 0.930 . S
C386 H378 0.930 . S
C386 C387 1.382 . S
C386 C388 1.426 . S
C387 C386 1.382 . S
C387 C391 1.389 . S
C388 C386 1.426 . S
C388 C389 1.375 . S
C388 C392 1.532 . S
C389 H379 0.930 . S
C389 C388 1.375 . S
C389 C390 1.416 . S
C390 C389 1.416 . S
C390 C391 1.371 . S
C391 H380 0.930 . S
C391 C387 1.389 . S
C391 C390 1.371 . S
C392 H381 0.970 . S
C392 H382 0.970 . S
C392 C388 1.532 . S
C392 C393 1.499 . S
C393 C392 1.499 . S
C393 C394 1.370 . S
C393 C398 1.415 . S
C394 H383 0.930 . S
C394 C393 1.370 . S
C394 C395 1.407 . S
C395 C394 1.407 . S
C395 C396 1.365 . S
C396 H384 0.930 . S
C396 C395 1.365 . S
C396 C397 1.393 . S
C397 C396 1.393 . S
C397 C398 1.387 . S
C398 H385 0.930 . S
C398 C393 1.415 . S
C398 C397 1.387 . S
H399 C407 0.930 . S
H400 C410 0.930 . S
H401 C412 0.930 . S
H402 C413 0.970 . S
H403 C413 0.970 . S
H404 C415 0.930 . S
H405 C417 0.930 . S
H406 C419 0.930 . S
C407 H399 0.930 . S
C407 C408 1.382 . S
C407 C409 1.426 . S
C408 C407 1.382 . S
C408 C412 1.389 . S
C409 C407 1.426 . S
C409 C410 1.375 . S
C409 C413 1.532 . S
C410 H400 0.930 . S
C410 C409 1.375 . S
C410 C411 1.416 . S
C411 C410 1.416 . S
C411 C412 1.371 . S
C412 H401 0.930 . S
C412 C408 1.389 . S
C412 C411 1.371 . S
C413 H402 0.970 . S
C413 H403 0.970 . S
C413 C409 1.532 . S
C413 C414 1.499 . S
C414 C413 1.499 . S
C414 C415 1.370 . S
C414 C419 1.415 . S
C415 H404 0.930 . S
C415 C414 1.370 . S
C415 C416 1.407 . S
C416 C415 1.407 . S
C416 C417 1.365 . S
C417 H405 0.930 . S
C417 C416 1.365 . S
C417 C418 1.393 . S
C418 C417 1.393 . S
C418 C419 1.387 . S
C419 H406 0.930 . S
C419 C414 1.415 . S
C419 C418 1.387 . S
H420 C428 0.950 . S
H421 C433 0.950 . S
H422 C430 0.950 1_556 S
H423 C432 0.950 . S
H424 C434 0.950 . S
H425 C436 0.950 . S
H426 C438 0.950 . S
H427 C439 0.950 . S
C428 H420 0.950 . S
C428 C429 1.386 . S
C428 C430 1.391 . S
C429 C428 1.386 . S
C429 C433 1.393 . S
C430 H422 0.950 1_554 S
C430 C428 1.391 . S
C430 C431 1.400 1_554 S
C431 C430 1.400 1_556 S
C431 C432 1.398 . S
C431 C437 1.491 . S
C432 H423 0.950 . S
C432 C431 1.398 . S
C432 C433 1.391 1_556 S
C433 H421 0.950 . S
C433 C429 1.393 . S
C433 C432 1.391 1_554 S
C434 H424 0.950 . S
C434 C435 1.386 . S
C434 C436 1.391 . S
C435 C434 1.386 . S
C435 C439 1.393 . S
C436 H425 0.950 . S
C436 C434 1.391 . S
C436 C437 1.400 . S
C437 C431 1.491 . S
C437 C436 1.400 . S
C437 C438 1.398 . S
C438 H426 0.950 . S
C438 C437 1.398 . S
C438 C439 1.391 . S
C439 H427 0.950 . S
C439 C435 1.393 . S
C439 C438 1.391 . S
H440 C448 0.950 . S
H441 C453 0.950 . S
H442 C450 0.950 . S
H443 C452 0.950 . S
H444 C454 0.950 . S
H445 C456 0.950 . S
H446 C458 0.950 . S
H447 C459 0.950 . S
C448 H440 0.950 . S
C448 C449 1.386 . S
C448 C450 1.391 . S
C449 C448 1.386 . S
C449 C453 1.393 . S
C450 H442 0.950 . S
C450 C448 1.391 . S
C450 C451 1.400 . S
C451 C450 1.400 . S
C451 C452 1.398 . S
C451 C457 1.491 . S
C452 H443 0.950 . S
C452 C451 1.398 . S
C452 C453 1.391 . S
C453 H441 0.950 . S
C453 C449 1.393 . S
C453 C452 1.391 . S
C454 H444 0.950 . S
C454 C455 1.386 . S
C454 C456 1.391 . S
C455 C454 1.386 . S
C455 C459 1.393 . S
C456 H445 0.950 . S
C456 C454 1.391 . S
C456 C457 1.400 . S
C457 C451 1.491 . S
C457 C456 1.400 . S
C457 C458 1.398 . S
C458 H446 0.950 . S
C458 C457 1.398 . S
C458 C459 1.391 . S
C459 H447 0.950 . S
C459 C455 1.393 . S
C459 C458 1.391 . S
H460 C468 0.950 . S
H461 C473 0.950 . S
H462 C470 0.950 . S
H463 C472 0.950 . S
H464 C474 0.950 . S
H465 C476 0.950 . S
H466 C478 0.950 . S
H467 C479 0.950 . S
C468 H460 0.950 . S
C468 C469 1.386 . S
C468 C470 1.391 . S
C469 C468 1.386 . S
C469 C473 1.393 . S
C470 H462 0.950 . S
C470 C468 1.391 . S
C470 C471 1.400 . S
C471 C470 1.400 . S
C471 C472 1.398 . S
C471 C477 1.491 . S
C472 H463 0.950 . S
C472 C471 1.398 . S
C472 C473 1.391 . S
C473 H461 0.950 . S
C473 C469 1.393 . S
C473 C472 1.391 . S
C474 H464 0.950 . S
C474 C475 1.386 . S
C474 C476 1.391 . S
C475 C474 1.386 . S
C475 C479 1.393 . S
C476 H465 0.950 . S
C476 C474 1.391 . S
C476 C477 1.400 . S
C477 C471 1.491 . S
C477 C476 1.400 . S
C477 C478 1.398 . S
C478 H466 0.950 . S
C478 C477 1.398 . S
C478 C479 1.391 . S
C479 H467 0.950 . S
C479 C475 1.393 . S
C479 C478 1.391 . S
H480 C488 0.950 . S
H481 C493 0.950 . S
H482 C490 0.950 . S
H483 C492 0.950 . S
H484 C494 0.950 . S
H485 C496 0.950 . S
H486 C498 0.950 . S
H487 C499 0.950 . S
C488 H480 0.950 . S
C488 C489 1.386 . S
C488 C490 1.391 . S
C489 C488 1.386 . S
C489 C493 1.393 . S
C490 H482 0.950 . S
C490 C488 1.391 . S
C490 C491 1.400 . S
C491 C490 1.400 . S
C491 C492 1.398 . S
C491 C497 1.491 . S
C492 H483 0.950 . S
C492 C491 1.398 . S
C492 C493 1.391 . S
C493 H481 0.950 . S
C493 C489 1.393 . S
C493 C492 1.391 . S
C494 H484 0.950 . S
C494 C495 1.386 . S
C494 C496 1.391 . S
C495 C494 1.386 . S
C495 C499 1.393 . S
C496 H485 0.950 . S
C496 C494 1.391 . S
C496 C497 1.400 . S
C497 C491 1.491 . S
C497 C496 1.400 . S
C497 C498 1.398 . S
C498 H486 0.950 . S
C498 C497 1.398 . S
C498 C499 1.391 . S
C499 H487 0.950 . S
C499 C495 1.393 . S
C499 C498 1.391 . S
H500 C508 0.950 . S
H501 C513 0.950 . S
H502 C510 0.950 . S
H503 C512 0.950 . S
H504 C514 0.950 . S
H505 C516 0.950 . S
H506 C518 0.950 . S
H507 C519 0.950 . S
C508 H500 0.950 . S
C508 C509 1.386 . S
C508 C510 1.391 . S
C509 C508 1.386 . S
C509 C513 1.393 . S
C510 H502 0.950 . S
C510 C508 1.391 . S
C510 C511 1.400 . S
C511 C510 1.400 . S
C511 C512 1.398 . S
C511 C517 1.491 . S
C512 H503 0.950 . S
C512 C511 1.398 . S
C512 C513 1.391 . S
C513 H501 0.950 . S
C513 C509 1.393 . S
C513 C512 1.391 . S
C514 H504 0.950 . S
C514 C515 1.386 . S
C514 C516 1.391 . S
C515 C514 1.386 . S
C515 C519 1.393 . S
C516 H505 0.950 . S
C516 C514 1.391 . S
C516 C517 1.400 . S
C517 C511 1.491 . S
C517 C516 1.400 . S
C517 C518 1.398 . S
C518 H506 0.950 . S
C518 C517 1.398 . S
C518 C519 1.391 . S
C519 H507 0.950 . S
C519 C515 1.393 . S
C519 C518 1.391 . S
H520 C528 0.950 . S
H521 C533 0.950 . S
H522 C530 0.950 . S
H523 C532 0.950 . S
H524 C534 0.950 . S
H525 C536 0.950 . S
H526 C538 0.950 . S
H527 C539 0.950 . S
C528 H520 0.950 . S
C528 C529 1.386 . S
C528 C530 1.391 . S
C529 C528 1.386 . S
C529 C533 1.393 . S
C530 H522 0.950 . S
C530 C528 1.391 . S
C530 C531 1.400 . S
C531 C530 1.400 . S
C531 C532 1.398 . S
C531 C537 1.491 . S
C532 H523 0.950 . S
C532 C531 1.398 . S
C532 C533 1.391 . S
C533 H521 0.950 . S
C533 C529 1.393 . S
C533 C532 1.391 . S
C534 H524 0.950 . S
C534 C535 1.386 . S
C534 C536 1.391 . S
C535 C534 1.386 . S
C535 C539 1.393 . S
C536 H525 0.950 . S
C536 C534 1.391 . S
C536 C537 1.400 . S
C537 C531 1.491 . S
C537 C536 1.400 . S
C537 C538 1.398 . S
C538 H526 0.950 . S
C538 C537 1.398 . S
C538 C539 1.391 . S
C539 H527 0.950 . S
C539 C535 1.393 . S
C539 C538 1.391 . S
H540 C548 0.950 . S
H541 C553 0.950 1_556 S
H542 C550 0.950 . S
H543 C552 0.950 . S
H544 C554 0.950 . S
H545 C556 0.950 . S
H546 C558 0.950 . S
H547 C559 0.950 . S
C548 H540 0.950 . S
C548 C549 1.386 1_554 S
C548 C550 1.391 . S
C549 C548 1.386 1_556 S
C549 C553 1.393 1_556 S
C550 H542 0.950 . S
C550 C548 1.391 . S
C550 C551 1.400 . S
C551 C550 1.400 . S
C551 C552 1.398 . S
C551 C557 1.491 . S
C552 H543 0.950 . S
C552 C551 1.398 . S
C552 C553 1.391 . S
C553 H541 0.950 1_554 S
C553 C549 1.393 1_554 S
C553 C552 1.391 . S
C554 H544 0.950 . S
C554 C555 1.386 . S
C554 C556 1.391 . S
C555 C554 1.386 . S
C555 C559 1.393 . S
C556 H545 0.950 . S
C556 C554 1.391 . S
C556 C557 1.400 . S
C557 C551 1.491 . S
C557 C556 1.400 . S
C557 C558 1.398 . S
C558 H546 0.950 . S
C558 C557 1.398 . S
C558 C559 1.391 . S
C559 H547 0.950 . S
C559 C555 1.393 . S
C559 C558 1.391 . S
H560 C568 0.950 . S
H561 C573 0.950 . S
H562 C570 0.950 . S
H563 C572 0.950 . S
H564 C574 0.950 . S
H565 C576 0.950 . S
H566 C578 0.950 . S
H567 C579 0.950 . S
C568 H560 0.950 . S
C568 C569 1.386 . S
C568 C570 1.391 . S
C569 C568 1.386 . S
C569 C573 1.393 . S
C570 H562 0.950 . S
C570 C568 1.391 . S
C570 C571 1.400 . S
C571 C570 1.400 . S
C571 C572 1.398 . S
C571 C577 1.491 . S
C572 H563 0.950 . S
C572 C571 1.398 . S
C572 C573 1.391 . S
C573 H561 0.950 . S
C573 C569 1.393 . S
C573 C572 1.391 . S
C574 H564 0.950 . S
C574 C575 1.386 . S
C574 C576 1.391 . S
C575 C574 1.386 . S
C575 C579 1.393 . S
C576 H565 0.950 . S
C576 C574 1.391 . S
C576 C577 1.400 . S
C577 C571 1.491 . S
C577 C576 1.400 . S
C577 C578 1.398 . S
C578 H566 0.950 . S
C578 C577 1.398 . S
C578 C579 1.391 . S
C579 H567 0.950 . S
C579 C575 1.393 . S
C579 C578 1.391 . S
H580 C588 0.950 . S
H581 C593 0.950 . S
H582 C590 0.950 . S
H583 C592 0.950 . S
H584 C594 0.950 . S
H585 C596 0.950 . S
H586 C598 0.950 . S
H587 C599 0.950 . S
C588 H580 0.950 . S
C588 C589 1.386 . S
C588 C590 1.391 . S
C589 C588 1.386 . S
C589 C593 1.393 . S
C590 H582 0.950 . S
C590 C588 1.391 . S
C590 C591 1.400 1_455 S
C591 C590 1.400 1_655 S
C591 C592 1.398 . S
C591 C597 1.491 . S
C592 H583 0.950 . S
C592 C591 1.398 . S
C592 C593 1.391 1_655 S
C593 H581 0.950 . S
C593 C589 1.393 . S
C593 C592 1.391 1_455 S
C594 H584 0.950 . S
C594 C595 1.386 . S
C594 C596 1.391 . S
C595 C594 1.386 . S
C595 C599 1.393 . S
C596 H585 0.950 . S
C596 C594 1.391 . S
C596 C597 1.400 . S
C597 C591 1.491 . S
C597 C596 1.400 . S
C597 C598 1.398 . S
C598 H586 0.950 . S
C598 C597 1.398 . S
C598 C599 1.391 . S
C599 H587 0.950 . S
C599 C595 1.393 . S
C599 C598 1.391 . S
H600 C608 0.950 . S
H601 C613 0.950 . S
H602 C610 0.950 . S
H603 C612 0.950 . S
H604 C614 0.950 . S
H605 C616 0.950 . S
H606 C618 0.950 . S
H607 C619 0.950 . S
C608 H600 0.950 . S
C608 C609 1.386 . S
C608 C610 1.391 . S
C609 C608 1.386 . S
C609 C613 1.393 . S
C610 H602 0.950 . S
C610 C608 1.391 . S
C610 C611 1.400 . S
C611 C610 1.400 . S
C611 C612 1.398 . S
C611 C617 1.491 . S
C612 H603 0.950 . S
C612 C611 1.398 . S
C612 C613 1.391 . S
C613 H601 0.950 . S
C613 C609 1.393 . S
C613 C612 1.391 . S
C614 H604 0.950 . S
C614 C615 1.386 . S
C614 C616 1.391 . S
C615 C614 1.386 . S
C615 C619 1.393 . S
C616 H605 0.950 . S
C616 C614 1.391 . S
C616 C617 1.400 . S
C617 C611 1.491 . S
C617 C616 1.400 . S
C617 C618 1.398 . S
C618 H606 0.950 . S
C618 C617 1.398 . S
C618 C619 1.391 . S
C619 H607 0.950 . S
C619 C615 1.393 . S
C619 C618 1.391 . S
H620 C628 0.950 . S
H621 C633 0.950 . S
H622 C630 0.950 . S
H623 C632 0.950 . S
H624 C634 0.950 . S
H625 C636 0.950 . S
H626 C638 0.950 . S
H627 C639 0.950 . S
C628 H620 0.950 . S
C628 C629 1.386 1_545 S
C628 C630 1.391 . S
C629 C628 1.386 1_565 S
C629 C633 1.393 . S
C630 H622 0.950 . S
C630 C628 1.391 . S
C630 C631 1.400 1_545 S
C631 C630 1.400 1_565 S
C631 C632 1.398 . S
C631 C637 1.491 . S
C632 H623 0.950 . S
C632 C631 1.398 . S
C632 C633 1.391 . S
C633 H621 0.950 . S
C633 C629 1.393 . S
C633 C632 1.391 . S
C634 H624 0.950 . S
C634 C635 1.386 . S
C634 C636 1.391 . S
C635 C634 1.386 . S
C635 C639 1.393 . S
C636 H625 0.950 . S
C636 C634 1.391 . S
C636 C637 1.400 . S
C637 C631 1.491 . S
C637 C636 1.400 . S
C637 C638 1.398 . S
C638 H626 0.950 . S
C638 C637 1.398 . S
C638 C639 1.391 . S
C639 H627 0.950 . S
C639 C635 1.393 . S
C639 C638 1.391 . S
H640 C648 0.950 . S
H641 C653 0.950 . S
H642 C650 0.950 . S
H643 C652 0.950 . S
H644 C654 0.950 . S
H645 C656 0.950 . S
H646 C658 0.950 . S
H647 C659 0.950 . S
C648 H640 0.950 . S
C648 C649 1.386 . S
C648 C650 1.391 . S
C649 C648 1.386 . S
C649 C653 1.393 . S
C650 H642 0.950 . S
C650 C648 1.391 . S
C650 C651 1.400 . S
C651 C650 1.400 . S
C651 C652 1.398 . S
C651 C657 1.491 . S
C652 H643 0.950 . S
C652 C651 1.398 . S
C652 C653 1.391 . S
C653 H641 0.950 . S
C653 C649 1.393 . S
C653 C652 1.391 . S
C654 H644 0.950 . S
C654 C655 1.386 . S
C654 C656 1.391 . S
C655 C654 1.386 . S
C655 C659 1.393 . S
C656 H645 0.950 . S
C656 C654 1.391 . S
C656 C657 1.400 . S
C657 C651 1.491 . S
C657 C656 1.400 . S
C657 C658 1.398 . S
C658 H646 0.950 . S
C658 C657 1.398 . S
C658 C659 1.391 . S
C659 H647 0.950 . S
C659 C655 1.393 . S
C659 C658 1.391 . S
H660 C668 0.950 . S
H661 C673 0.950 . S
H662 C670 0.950 . S
H663 C672 0.950 . S
H664 C674 0.950 . S
H665 C676 0.950 . S
H666 C678 0.950 . S
H667 C679 0.950 . S
C668 H660 0.950 . S
C668 C669 1.386 . S
C668 C670 1.391 . S
C669 C668 1.386 . S
C669 C673 1.393 . S
C670 H662 0.950 . S
C670 C668 1.391 . S
C670 C671 1.400 1_455 S
C671 C670 1.400 1_655 S
C671 C672 1.398 . S
C671 C677 1.491 . S
C672 H663 0.950 . S
C672 C671 1.398 . S
C672 C673 1.391 1_655 S
C673 H661 0.950 . S
C673 C669 1.393 . S
C673 C672 1.391 1_455 S
C674 H664 0.950 . S
C674 C675 1.386 . S
C674 C676 1.391 . S
C675 C674 1.386 . S
C675 C679 1.393 . S
C676 H665 0.950 . S
C676 C674 1.391 . S
C676 C677 1.400 . S
C677 C671 1.491 . S
C677 C676 1.400 . S
C677 C678 1.398 . S
C678 H666 0.950 . S
C678 C677 1.398 . S
C678 C679 1.391 . S
C679 H667 0.950 . S
C679 C675 1.393 . S
C679 C678 1.391 . S
H680 C688 0.950 . S
H681 C693 0.950 . S
H682 C690 0.950 . S
H683 C692 0.950 . S
H684 C694 0.950 . S
H685 C696 0.950 . S
H686 C698 0.950 . S
H687 C699 0.950 . S
C688 H680 0.950 . S
C688 C689 1.386 . S
C688 C690 1.391 . S
C689 C688 1.386 . S
C689 C693 1.393 . S
C690 H682 0.950 . S
C690 C688 1.391 . S
C690 C691 1.400 . S
C691 C690 1.400 . S
C691 C692 1.398 . S
C691 C697 1.491 . S
C692 H683 0.950 . S
C692 C691 1.398 . S
C692 C693 1.391 . S
C693 H681 0.950 . S
C693 C689 1.393 . S
C693 C692 1.391 . S
C694 H684 0.950 . S
C694 C695 1.386 . S
C694 C696 1.391 . S
C695 C694 1.386 . S
C695 C699 1.393 . S
C696 H685 0.950 . S
C696 C694 1.391 . S
C696 C697 1.400 . S
C697 C691 1.491 . S
C697 C696 1.400 . S
C697 C698 1.398 . S
C698 H686 0.950 . S
C698 C697 1.398 . S
C698 C699 1.391 . S
C699 H687 0.950 . S
C699 C695 1.393 . S
C699 C698 1.391 . S
H700 C708 0.950 . S
H701 C713 0.950 . S
H702 C710 0.950 . S
H703 C712 0.950 . S
H704 C714 0.950 . S
H705 C716 0.950 . S
H706 C718 0.950 . S
H707 C719 0.950 . S
C708 H700 0.950 . S
C708 C709 1.386 . S
C708 C710 1.391 . S
C709 C708 1.386 . S
C709 C713 1.393 . S
C710 H702 0.950 . S
C710 C708 1.391 . S
C710 C711 1.400 . S
C711 C710 1.400 . S
C711 C712 1.398 . S
C711 C717 1.491 . S
C712 H703 0.950 . S
C712 C711 1.398 . S
C712 C713 1.391 . S
C713 H701 0.950 . S
C713 C709 1.393 . S
C713 C712 1.391 . S
C714 H704 0.950 . S
C714 C715 1.386 . S
C714 C716 1.391 . S
C715 C714 1.386 . S
C715 C719 1.393 . S
C716 H705 0.950 . S
C716 C714 1.391 . S
C716 C717 1.400 . S
C717 C711 1.491 . S
C717 C716 1.400 . S
C717 C718 1.398 . S
C718 H706 0.950 . S
C718 C717 1.398 . S
C718 C719 1.391 . S
C719 H707 0.950 . S
C719 C715 1.393 . S
C719 C718 1.391 . S
H720 C728 0.950 . S
H721 C733 0.950 . S
H722 C730 0.950 . S
H723 C732 0.950 . S
H724 C734 0.950 . S
H725 C736 0.950 . S
H726 C738 0.950 . S
H727 C739 0.950 . S
C728 H720 0.950 . S
C728 C729 1.386 . S
C728 C730 1.391 . S
C729 C728 1.386 . S
C729 C733 1.393 . S
C730 H722 0.950 . S
C730 C728 1.391 . S
C730 C731 1.400 . S
C731 C730 1.400 . S
C731 C732 1.398 . S
C731 C737 1.491 . S
C732 H723 0.950 . S
C732 C731 1.398 . S
C732 C733 1.391 . S
C733 H721 0.950 . S
C733 C729 1.393 . S
C733 C732 1.391 . S
C734 H724 0.950 . S
C734 C735 1.386 . S
C734 C736 1.391 . S
C735 C734 1.386 . S
C735 C739 1.393 . S
C736 H725 0.950 . S
C736 C734 1.391 . S
C736 C737 1.400 . S
C737 C731 1.491 . S
C737 C736 1.400 . S
C737 C738 1.398 . S
C738 H726 0.950 . S
C738 C737 1.398 . S
C738 C739 1.391 . S
C739 H727 0.950 . S
C739 C735 1.393 . S
C739 C738 1.391 . S
H740 C748 0.966 . S
H741 C753 0.950 . S
H742 C750 0.950 . S
H743 C752 0.950 . S
H744 C754 0.950 . S
H745 C756 0.950 . S
H746 C758 0.950 . S
H747 C759 0.950 . S
C748 H740 0.966 . S
C748 C749 1.386 . S
C748 C750 1.391 1_545 S
C749 C748 1.386 . S
C749 C753 1.393 . S
C750 H742 0.950 . S
C750 C748 1.391 1_565 S
C750 C751 1.400 . S
C751 C750 1.400 . S
C751 C752 1.398 1_565 S
C751 C757 1.491 . S
C752 H743 0.950 . S
C752 C751 1.398 1_545 S
C752 C753 1.391 . S
C753 H741 0.950 . S
C753 C749 1.393 . S
C753 C752 1.391 . S
C754 H744 0.950 . S
C754 C755 1.386 . S
C754 C756 1.391 . S
C755 C754 1.386 . S
C755 C759 1.393 . S
C756 H745 0.950 . S
C756 C754 1.391 . S
C756 C757 1.400 . S
C757 C751 1.491 . S
C757 C756 1.400 . S
C757 C758 1.398 . S
C758 H746 0.950 . S
C758 C757 1.398 . S
C758 C759 1.391 . S
C759 H747 0.950 . S
C759 C755 1.393 . S
C759 C758 1.391 . S
H760 C768 0.950 . S
H761 C773 0.945 1_554 S
H762 C770 0.950 . S
H763 C772 0.941 1_554 S
H764 C774 0.950 . S
H765 C776 0.950 . S
H766 C778 0.950 . S
H767 C779 0.950 . S
C768 H760 0.950 . S
C768 C769 1.386 . S
C768 C770 1.391 . S
C769 C768 1.386 . S
C769 C773 1.395 . S
C770 H762 0.950 . S
C770 C768 1.391 . S
C770 C771 1.400 . S
C771 C770 1.400 . S
C771 C772 1.398 . S
C771 C777 1.491 . S
C772 H763 0.941 1_556 S
C772 C771 1.398 . S
C772 C773 1.393 . S
C773 H761 0.945 1_556 S
C773 C769 1.395 . S
C773 C772 1.393 . S
C774 H764 0.950 . S
C774 C775 1.386 . S
C774 C776 1.391 . S
C775 C774 1.386 . S
C775 C779 1.393 . S
C776 H765 0.950 . S
C776 C774 1.391 . S
C776 C777 1.400 . S
C777 C771 1.491 . S
C777 C776 1.400 . S
C777 C778 1.398 . S
C778 H766 0.950 . S
C778 C777 1.398 . S
C778 C779 1.391 . S
C779 H767 0.950 . S
C779 C775 1.393 . S
C779 C778 1.391 . S
H780 C788 0.950 . S
H781 C793 0.950 . S
H782 C790 0.950 . S
H783 C792 0.950 . S
H784 C794 0.950 . S
H785 C796 0.950 . S
H786 C798 0.950 . S
H787 C799 0.950 . S
C788 H780 0.950 . S
C788 C789 1.386 . S
C788 C790 1.391 . S
C789 C788 1.386 . S
C789 C793 1.393 . S
C790 H782 0.950 . S
C790 C788 1.391 . S
C790 C791 1.400 . S
C791 C790 1.400 . S
C791 C792 1.398 . S
C791 C797 1.491 . S
C792 H783 0.950 . S
C792 C791 1.398 . S
C792 C793 1.391 . S
C793 H781 0.950 . S
C793 C789 1.393 . S
C793 C792 1.391 . S
C794 H784 0.950 . S
C794 C795 1.386 . S
C794 C796 1.391 . S
C795 C794 1.386 . S
C795 C799 1.393 . S
C796 H785 0.950 . S
C796 C794 1.391 . S
C796 C797 1.400 . S
C797 C791 1.491 . S
C797 C796 1.400 . S
C797 C798 1.398 . S
C798 H786 0.950 . S
C798 C797 1.398 . S
C798 C799 1.391 . S
C799 H787 0.950 . S
C799 C795 1.393 . S
C799 C798 1.391 . S
H800 C808 0.950 . S
H801 C813 0.950 . S
H802 C810 0.950 . S
H803 C812 0.950 . S
H804 C814 0.950 . S
H805 C816 0.950 . S
H806 C818 0.950 . S
H807 C819 0.950 . S
C808 H800 0.950 . S
C808 C809 1.386 . S
C808 C810 1.391 . S
C809 C808 1.386 . S
C809 C813 1.393 . S
C810 H802 0.950 . S
C810 C808 1.391 . S
C810 C811 1.400 . S
C811 C810 1.400 . S
C811 C812 1.398 . S
C811 C817 1.491 . S
C812 H803 0.950 . S
C812 C811 1.398 . S
C812 C813 1.391 . S
C813 H801 0.950 . S
C813 C809 1.393 . S
C813 C812 1.391 . S
C814 H804 0.950 . S
C814 C815 1.386 . S
C814 C816 1.391 . S
C815 C814 1.386 . S
C815 C819 1.393 . S
C816 H805 0.950 . S
C816 C814 1.391 . S
C816 C817 1.400 . S
C817 C811 1.491 . S
C817 C816 1.400 . S
C817 C818 1.398 . S
C818 H806 0.950 . S
C818 C817 1.398 . S
C818 C819 1.391 . S
C819 H807 0.950 . S
C819 C815 1.393 . S
C819 C818 1.391 . S
H820 C828 0.950 . S
H821 C833 0.950 . S
H822 C830 0.950 . S
H823 C832 0.950 . S
H824 C834 0.950 . S
H825 C836 0.950 . S
H826 C838 0.950 . S
H827 C839 0.950 . S
C828 H820 0.950 . S
C828 C829 1.386 . S
C828 C830 1.391 . S
C829 C828 1.386 . S
C829 C833 1.393 . S
C830 H822 0.950 . S
C830 C828 1.391 . S
C830 C831 1.400 . S
C831 C830 1.400 . S
C831 C832 1.398 . S
C831 C837 1.491 . S
C832 H823 0.950 . S
C832 C831 1.398 . S
C832 C833 1.391 . S
C833 H821 0.950 . S
C833 C829 1.393 . S
C833 C832 1.391 . S
C834 H824 0.950 . S
C834 C835 1.386 . S
C834 C836 1.391 . S
C835 C834 1.386 . S
C835 C839 1.393 . S
C836 H825 0.950 . S
C836 C834 1.391 . S
C836 C837 1.400 . S
C837 C831 1.491 . S
C837 C836 1.400 . S
C837 C838 1.398 . S
C838 H826 0.950 . S
C838 C837 1.398 . S
C838 C839 1.391 . S
C839 H827 0.950 . S
C839 C835 1.393 . S
C839 C838 1.391 . S
H840 C848 0.950 . S
H841 C853 0.950 . S
H842 C850 0.950 . S
H843 C852 0.950 . S
H844 C854 0.950 . S
H845 C856 0.950 . S
H846 C858 0.950 . S
H847 C859 0.950 . S
C848 H840 0.950 . S
C848 C849 1.386 . S
C848 C850 1.391 1_565 S
C849 C848 1.386 . S
C849 C853 1.393 1_565 S
C850 H842 0.950 . S
C850 C848 1.391 1_545 S
C850 C851 1.400 . S
C851 C850 1.400 . S
C851 C852 1.398 . S
C851 C857 1.491 . S
C852 H843 0.950 . S
C852 C851 1.398 . S
C852 C853 1.391 . S
C853 H841 0.950 . S
C853 C849 1.393 1_545 S
C853 C852 1.391 . S
C854 H844 0.950 . S
C854 C855 1.386 . S
C854 C856 1.391 . S
C855 C854 1.386 . S
C855 C859 1.393 . S
C856 H845 0.950 . S
C856 C854 1.391 . S
C856 C857 1.400 . S
C857 C851 1.491 . S
C857 C856 1.400 . S
C857 C858 1.398 . S
C858 H846 0.950 . S
C858 C857 1.398 . S
C858 C859 1.391 . S
C859 H847 0.950 . S
C859 C855 1.393 . S
C859 C858 1.391 . S
H860 C868 0.950 . S
H861 C873 0.950 . S
H862 C870 0.950 . S
H863 C872 0.950 . S
H864 C874 0.950 . S
H865 C876 0.950 . S
H866 C878 0.950 . S
H867 C879 0.950 . S
C868 H860 0.950 . S
C868 C869 1.386 . S
C868 C870 1.391 . S
C869 C868 1.386 . S
C869 C873 1.393 . S
C870 H862 0.950 . S
C870 C868 1.391 . S
C870 C871 1.400 . S
C871 C870 1.400 . S
C871 C872 1.398 . S
C871 C877 1.491 . S
C872 H863 0.950 . S
C872 C871 1.398 . S
C872 C873 1.391 . S
C873 H861 0.950 . S
C873 C869 1.393 . S
C873 C872 1.391 . S
C874 H864 0.950 . S
C874 C875 1.386 . S
C874 C876 1.391 . S
C875 C874 1.386 . S
C875 C879 1.393 . S
C876 H865 0.950 . S
C876 C874 1.391 . S
C876 C877 1.400 . S
C877 C871 1.491 . S
C877 C876 1.400 . S
C877 C878 1.398 . S
C878 H866 0.950 . S
C878 C877 1.398 . S
C878 C879 1.391 . S
C879 H867 0.950 . S
C879 C875 1.393 . S
C879 C878 1.391 . S
H880 C888 0.950 . S
H881 C893 0.950 . S
H882 C890 0.950 . S
H883 C892 0.950 . S
H884 C894 0.950 . S
H885 C896 0.950 . S
H886 C898 0.950 . S
H887 C899 0.950 . S
C888 H880 0.950 . S
C888 C889 1.386 . S
C888 C890 1.391 . S
C889 C888 1.386 . S
C889 C893 1.393 . S
C890 H882 0.950 . S
C890 C888 1.391 . S
C890 C891 1.400 . S
C891 C890 1.400 . S
C891 C892 1.398 . S
C891 C897 1.491 . S
C892 H883 0.950 . S
C892 C891 1.398 . S
C892 C893 1.391 . S
C893 H881 0.950 . S
C893 C889 1.393 . S
C893 C892 1.391 . S
C894 H884 0.950 . S
C894 C895 1.386 . S
C894 C896 1.391 . S
C895 C894 1.386 . S
C895 C899 1.393 . S
C896 H885 0.950 . S
C896 C894 1.391 . S
C896 C897 1.400 . S
C897 C891 1.491 . S
C897 C896 1.400 . S
C897 C898 1.398 . S
C898 H886 0.950 . S
C898 C897 1.398 . S
C898 C899 1.391 . S
C899 H887 0.950 . S
C899 C895 1.393 . S
C899 C898 1.391 . S
H900 C908 0.950 . S
H901 C913 0.950 . S
H902 C910 0.950 . S
H903 C912 0.950 . S
H904 C914 0.950 . S
H905 C916 0.950 . S
H906 C918 0.950 . S
H907 C919 0.950 1_545 S
C908 H900 0.950 . S
C908 C909 1.386 . S
C908 C910 1.391 . S
C909 C908 1.386 . S
C909 C913 1.393 . S
C910 H902 0.950 . S
C910 C908 1.391 . S
C910 C911 1.400 . S
C911 C910 1.400 . S
C911 C912 1.398 . S
C911 C917 1.491 . S
C912 H903 0.950 . S
C912 C911 1.398 . S
C912 C913 1.391 . S
C913 H901 0.950 . S
C913 C909 1.393 . S
C913 C912 1.391 . S
C914 H904 0.950 . S
C914 C915 1.386 . S
C914 C916 1.391 . S
C915 C914 1.386 . S
C915 C919 1.393 . S
C916 H905 0.950 . S
C916 C914 1.391 . S
C916 C917 1.400 . S
C917 C911 1.491 . S
C917 C916 1.400 . S
C917 C918 1.398 . S
C918 H906 0.950 . S
C918 C917 1.398 . S
C918 C919 1.391 . S
C919 H907 0.950 1_565 S
C919 C915 1.393 . S
C919 C918 1.391 . S
H920 C928 0.950 . S
H921 C933 0.950 . S
H922 C930 0.950 . S
H923 C932 0.950 . S
H924 C934 0.950 . S
H925 C936 0.950 . S
H926 C938 0.950 . S
H927 C939 0.950 . S
C928 H920 0.950 . S
C928 C929 1.386 . S
C928 C930 1.391 . S
C929 C928 1.386 . S
C929 C933 1.393 . S
C930 H922 0.950 . S
C930 C928 1.391 . S
C930 C931 1.400 . S
C931 C930 1.400 . S
C931 C932 1.398 . S
C931 C937 1.491 . S
C932 H923 0.950 . S
C932 C931 1.398 . S
C932 C933 1.391 . S
C933 H921 0.950 . S
C933 C929 1.393 . S
C933 C932 1.391 . S
C934 H924 0.950 . S
C934 C935 1.386 . S
C934 C936 1.391 . S
C935 C934 1.386 . S
C935 C939 1.393 . S
C936 H925 0.950 . S
C936 C934 1.391 . S
C936 C937 1.400 . S
C937 C931 1.491 . S
C937 C936 1.400 . S
C937 C938 1.398 . S
C938 H926 0.950 . S
C938 C937 1.398 . S
C938 C939 1.391 . S
C939 H927 0.950 . S
C939 C935 1.393 . S
C939 C938 1.391 . S
H940 C948 0.950 1_455 S
H941 C953 0.950 . S
H942 C950 0.950 . S
H943 C952 0.950 . S
H944 C954 0.950 . S
H945 C956 0.950 . S
H946 C958 0.950 . S
H947 C959 0.950 . S
C948 H940 0.950 1_655 S
C948 C949 1.386 . S
C948 C950 1.391 1_554 S
C949 C948 1.386 . S
C949 C953 1.393 . S
C950 H942 0.950 . S
C950 C948 1.391 1_556 S
C950 C951 1.400 . S
C951 C950 1.400 . S
C951 C952 1.398 1_556 S
C951 C957 1.491 . S
C952 H943 0.950 . S
C952 C951 1.398 1_554 S
C952 C953 1.391 . S
C953 H941 0.950 . S
C953 C949 1.393 . S
C953 C952 1.391 . S
C954 H944 0.950 . S
C954 C955 1.386 . S
C954 C956 1.391 . S
C955 C954 1.386 . S
C955 C959 1.393 . S
C956 H945 0.950 . S
C956 C954 1.391 . S
C956 C957 1.400 . S
C957 C951 1.491 . S
C957 C956 1.400 . S
C957 C958 1.398 . S
C958 H946 0.950 . S
C958 C957 1.398 . S
C958 C959 1.391 . S
C959 H947 0.950 . S
C959 C955 1.393 . S
C959 C958 1.391 . S
H960 C968 0.950 . S
H961 C973 0.950 . S
H962 C970 0.950 . S
H963 C972 0.950 . S
H964 C974 0.950 . S
H965 C976 0.950 . S
H966 C978 0.950 . S
H967 C979 0.950 . S
C968 H960 0.950 . S
C968 C969 1.386 . S
C968 C970 1.391 . S
C969 C968 1.386 . S
C969 C973 1.393 . S
C970 H962 0.950 . S
C970 C968 1.391 . S
C970 C971 1.400 . S
C971 C970 1.400 . S
C971 C972 1.398 . S
C971 C977 1.491 . S
C972 H963 0.950 . S
C972 C971 1.398 . S
C972 C973 1.391 . S
C973 H961 0.950 . S
C973 C969 1.393 . S
C973 C972 1.391 . S
C974 H964 0.950 . S
C974 C975 1.386 . S
C974 C976 1.391 . S
C975 C974 1.386 . S
C975 C979 1.393 . S
C976 H965 0.950 . S
C976 C974 1.391 . S
C976 C977 1.400 . S
C977 C971 1.491 . S
C977 C976 1.400 . S
C977 C978 1.398 . S
C978 H966 0.950 . S
C978 C977 1.398 . S
C978 C979 1.391 . S
C979 H967 0.950 . S
C979 C975 1.393 . S
C979 C978 1.391 . S
H980 C988 0.950 . S
H981 C993 0.950 . S
H982 C990 0.950 . S
H983 C992 0.950 . S
H984 C994 0.950 . S
H985 C996 0.950 . S
H986 C998 0.950 . S
H987 C999 0.950 . S
C988 H980 0.950 . S
C988 C989 1.386 . S
C988 C990 1.391 1_556 S
C989 C988 1.386 . S
C989 C993 1.393 1_556 S
C990 H982 0.950 . S
C990 C988 1.391 1_554 S
C990 C991 1.400 . S
C991 C990 1.400 . S
C991 C992 1.398 . S
C991 C997 1.491 . S
C992 H983 0.950 . S
C992 C991 1.398 . S
C992 C993 1.391 . S
C993 H981 0.950 . S
C993 C989 1.393 1_554 S
C993 C992 1.391 . S
C994 H984 0.950 . S
C994 C995 1.386 . S
C994 C996 1.391 . S
C995 C994 1.386 . S
C995 C999 1.393 . S
C996 H985 0.950 . S
C996 C994 1.391 . S
C996 C997 1.400 . S
C997 C991 1.491 . S
C997 C996 1.400 . S
C997 C998 1.398 . S
C998 H986 0.950 . S
C998 C997 1.398 . S
C998 C999 1.391 . S
C999 H987 0.950 . S
C999 C995 1.393 . S
C999 C998 1.391 . S
H1000 C1008 0.950 . S
H1001 C1013 0.950 . S
H1002 C1010 0.950 . S
H1003 C1012 0.950 . S
H1004 C1014 0.950 . S
H1005 C1016 0.950 . S
H1006 C1018 0.950 . S
H1007 C1019 0.950 . S
C1008 H1000 0.950 . S
C1008 C1009 1.386 . S
C1008 C1010 1.391 . S
C1009 C1008 1.386 . S
C1009 C1013 1.393 . S
C1010 H1002 0.950 . S
C1010 C1008 1.391 . S
C1010 C1011 1.400 . S
C1011 C1010 1.400 . S
C1011 C1012 1.398 . S
C1011 C1017 1.491 . S
C1012 H1003 0.950 . S
C1012 C1011 1.398 . S
C1012 C1013 1.391 . S
C1013 H1001 0.950 . S
C1013 C1009 1.393 . S
C1013 C1012 1.391 . S
C1014 H1004 0.950 . S
C1014 C1015 1.386 . S
C1014 C1016 1.391 . S
C1015 C1014 1.386 . S
C1015 C1019 1.393 . S
C1016 H1005 0.950 . S
C1016 C1014 1.391 . S
C1016 C1017 1.400 . S
C1017 C1011 1.491 . S
C1017 C1016 1.400 . S
C1017 C1018 1.398 . S
C1018 H1006 0.950 . S
C1018 C1017 1.398 . S
C1018 C1019 1.391 . S
C1019 H1007 0.950 . S
C1019 C1015 1.393 . S
C1019 C1018 1.391 . S
H1020 C1028 0.950 . S
H1021 C1033 0.950 1_455 S
H1022 C1030 0.950 . S
H1023 C1032 0.950 . S
H1024 C1034 0.950 . S
H1025 C1036 0.950 . S
H1026 C1038 0.950 . S
H1027 C1039 0.950 . S
C1028 H1020 0.950 . S
C1028 C1029 1.386 . S
C1028 C1030 1.391 . S
C1029 C1028 1.386 . S
C1029 C1033 1.393 . S
C1030 H1022 0.950 . S
C1030 C1028 1.391 . S
C1030 C1031 1.400 . S
C1031 C1030 1.400 . S
C1031 C1032 1.398 . S
C1031 C1037 1.491 . S
C1032 H1023 0.950 . S
C1032 C1031 1.398 . S
C1032 C1033 1.391 . S
C1033 H1021 0.950 1_655 S
C1033 C1029 1.393 . S
C1033 C1032 1.391 . S
C1034 H1024 0.950 . S
C1034 C1035 1.386 . S
C1034 C1036 1.391 . S
C1035 C1034 1.386 . S
C1035 C1039 1.393 . S
C1036 H1025 0.950 . S
C1036 C1034 1.391 . S
C1036 C1037 1.400 . S
C1037 C1031 1.491 . S
C1037 C1036 1.400 . S
C1037 C1038 1.398 . S
C1038 H1026 0.950 . S
C1038 C1037 1.398 . S
C1038 C1039 1.391 . S
C1039 H1027 0.950 . S
C1039 C1035 1.393 . S
C1039 C1038 1.391 . S
H1040 C1048 0.950 . S
H1041 C1053 0.950 . S
H1042 C1050 0.950 . S
H1043 C1052 0.950 . S
H1044 C1054 0.950 . S
H1045 C1056 0.950 . S
H1046 C1058 0.950 . S
H1047 C1059 0.950 . S
C1048 H1040 0.950 . S
C1048 C1049 1.386 . S
C1048 C1050 1.391 . S
C1049 C1048 1.386 . S
C1049 C1053 1.393 . S
C1050 H1042 0.950 . S
C1050 C1048 1.391 . S
C1050 C1051 1.400 . S
C1051 C1050 1.400 . S
C1051 C1052 1.398 . S
C1051 C1057 1.491 . S
C1052 H1043 0.950 . S
C1052 C1051 1.398 . S
C1052 C1053 1.391 . S
C1053 H1041 0.950 . S
C1053 C1049 1.393 . S
C1053 C1052 1.391 . S
C1054 H1044 0.950 . S
C1054 C1055 1.386 . S
C1054 C1056 1.391 . S
C1055 C1054 1.386 . S
C1055 C1059 1.393 . S
C1056 H1045 0.950 . S
C1056 C1054 1.391 . S
C1056 C1057 1.400 . S
C1057 C1051 1.491 . S
C1057 C1056 1.400 . S
C1057 C1058 1.398 . S
C1058 H1046 0.950 . S
C1058 C1057 1.398 . S
C1058 C1059 1.391 . S
C1059 H1047 0.950 . S
C1059 C1055 1.393 . S
C1059 C1058 1.391 . S
H1060 C1068 0.950 . S
H1061 C1073 0.950 . S
H1062 C1070 0.950 . S
H1063 C1072 0.950 . S
H1064 C1074 0.950 . S
H1065 C1076 0.950 . S
H1066 C1078 0.950 . S
H1067 C1079 0.950 . S
C1068 H1060 0.950 . S
C1068 C1069 1.386 . S
C1068 C1070 1.391 . S
C1069 C1068 1.386 . S
C1069 C1073 1.393 . S
C1070 H1062 0.950 . S
C1070 C1068 1.391 . S
C1070 C1071 1.400 . S
C1071 C1070 1.400 . S
C1071 C1072 1.398 . S
C1071 C1077 1.491 . S
C1072 H1063 0.950 . S
C1072 C1071 1.398 . S
C1072 C1073 1.391 . S
C1073 H1061 0.950 . S
C1073 C1069 1.393 . S
C1073 C1072 1.391 . S
C1074 H1064 0.950 . S
C1074 C1075 1.386 . S
C1074 C1076 1.391 . S
C1075 C1074 1.386 . S
C1075 C1079 1.393 . S
C1076 H1065 0.950 . S
C1076 C1074 1.391 . S
C1076 C1077 1.400 . S
C1077 C1071 1.491 . S
C1077 C1076 1.400 . S
C1077 C1078 1.398 . S
C1078 H1066 0.950 . S
C1078 C1077 1.398 . S
C1078 C1079 1.391 . S
C1079 H1067 0.950 . S
C1079 C1075 1.393 . S
C1079 C1078 1.391 . S
H1080 C1088 0.950 . S
H1081 C1093 0.950 . S
H1082 C1090 0.950 . S
H1083 C1092 0.950 . S
H1084 C1094 0.950 . S
H1085 C1096 0.950 . S
H1086 C1098 0.950 . S
H1087 C1099 0.950 . S
C1088 H1080 0.950 . S
C1088 C1089 1.386 . S
C1088 C1090 1.391 . S
C1089 C1088 1.386 . S
C1089 C1093 1.393 . S
C1090 H1082 0.950 . S
C1090 C1088 1.391 . S
C1090 C1091 1.400 . S
C1091 C1090 1.400 . S
C1091 C1092 1.398 . S
C1091 C1097 1.491 . S
C1092 H1083 0.950 . S
C1092 C1091 1.398 . S
C1092 C1093 1.391 . S
C1093 H1081 0.950 . S
C1093 C1089 1.393 . S
C1093 C1092 1.391 . S
C1094 H1084 0.950 . S
C1094 C1095 1.386 . S
C1094 C1096 1.391 . S
C1095 C1094 1.386 . S
C1095 C1099 1.393 . S
C1096 H1085 0.950 . S
C1096 C1094 1.391 . S
C1096 C1097 1.400 . S
C1097 C1091 1.491 . S
C1097 C1096 1.400 . S
C1097 C1098 1.398 . S
C1098 H1086 0.950 . S
C1098 C1097 1.398 . S
C1098 C1099 1.391 . S
C1099 H1087 0.950 . S
C1099 C1095 1.393 . S
C1099 C1098 1.391 . S
H1100 C1108 0.950 . S
H1101 C1113 0.950 . S
H1102 C1110 0.950 . S
H1103 C1112 0.950 . S
H1104 C1114 0.950 . S
H1105 C1116 0.950 . S
H1106 C1118 0.950 . S
H1107 C1119 0.950 . S
C1108 H1100 0.950 . S
C1108 C1109 1.386 1_455 S
C1108 C1110 1.391 . S
C1109 C1108 1.386 1_655 S
C1109 C1113 1.393 . S
C1110 H1102 0.950 . S
C1110 C1108 1.391 . S
C1110 C1111 1.400 . S
C1111 C1110 1.400 . S
C1111 C1112 1.398 . S
C1111 C1117 1.491 . S
C1112 H1103 0.950 . S
C1112 C1111 1.398 . S
C1112 C1113 1.391 1_455 S
C1113 H1101 0.950 . S
C1113 C1109 1.393 . S
C1113 C1112 1.391 1_655 S
C1114 H1104 0.950 . S
C1114 C1115 1.386 . S
C1114 C1116 1.391 . S
C1115 C1114 1.386 . S
C1115 C1119 1.393 . S
C1116 H1105 0.950 . S
C1116 C1114 1.391 . S
C1116 C1117 1.400 . S
C1117 C1111 1.491 . S
C1117 C1116 1.400 . S
C1117 C1118 1.398 . S
C1118 H1106 0.950 . S
C1118 C1117 1.398 . S
C1118 C1119 1.391 . S
C1119 H1107 0.950 . S
C1119 C1115 1.393 . S
C1119 C1118 1.391 . S
H1120 C1128 0.950 . S
H1121 C1133 0.950 . S
H1122 C1130 0.950 . S
H1123 C1132 0.950 . S
H1124 C1134 0.950 . S
H1125 C1136 0.950 . S
H1126 C1138 0.950 . S
H1127 C1139 0.950 . S
C1128 H1120 0.950 . S
C1128 C1129 1.386 . S
C1128 C1130 1.391 . S
C1129 C1128 1.386 . S
C1129 C1133 1.393 . S
C1130 H1122 0.950 . S
C1130 C1128 1.391 . S
C1130 C1131 1.400 . S
C1131 C1130 1.400 . S
C1131 C1132 1.398 . S
C1131 C1137 1.491 . S
C1132 H1123 0.950 . S
C1132 C1131 1.398 . S
C1132 C1133 1.391 . S
C1133 H1121 0.950 . S
C1133 C1129 1.393 . S
C1133 C1132 1.391 . S
C1134 H1124 0.950 . S
C1134 C1135 1.386 . S
C1134 C1136 1.391 . S
C1135 C1134 1.386 . S
C1135 C1139 1.393 . S
C1136 H1125 0.950 . S
C1136 C1134 1.391 . S
C1136 C1137 1.400 . S
C1137 C1131 1.491 . S
C1137 C1136 1.400 . S
C1137 C1138 1.398 . S
C1138 H1126 0.950 . S
C1138 C1137 1.398 . S
C1138 C1139 1.391 . S
C1139 H1127 0.950 . S
C1139 C1135 1.393 . S
C1139 C1138 1.391 . S
H1140 C1148 0.950 . S
H1141 C1153 0.950 . S
H1142 C1150 0.950 . S
H1143 C1152 0.950 . S
H1144 C1154 0.950 . S
H1145 C1156 0.950 . S
H1146 C1158 0.950 . S
H1147 C1159 0.950 . S
C1148 H1140 0.950 . S
C1148 C1149 1.386 . S
C1148 C1150 1.391 . S
C1149 C1148 1.386 . S
C1149 C1153 1.393 . S
C1150 H1142 0.950 . S
C1150 C1148 1.391 . S
C1150 C1151 1.400 . S
C1151 C1150 1.400 . S
C1151 C1152 1.398 . S
C1151 C1157 1.491 . S
C1152 H1143 0.950 . S
C1152 C1151 1.398 . S
C1152 C1153 1.391 . S
C1153 H1141 0.950 . S
C1153 C1149 1.393 . S
C1153 C1152 1.391 . S
C1154 H1144 0.950 . S
C1154 C1155 1.386 . S
C1154 C1156 1.391 . S
C1155 C1154 1.386 . S
C1155 C1159 1.393 . S
C1156 H1145 0.950 . S
C1156 C1154 1.391 . S
C1156 C1157 1.400 . S
C1157 C1151 1.491 . S
C1157 C1156 1.400 . S
C1157 C1158 1.398 . S
C1158 H1146 0.950 . S
C1158 C1157 1.398 . S
C1158 C1159 1.391 . S
C1159 H1147 0.950 . S
C1159 C1155 1.393 . S
C1159 C1158 1.391 . S
H1160 C1168 0.950 . S
H1161 C1173 0.950 . S
H1162 C1170 0.950 . S
H1163 C1172 0.950 . S
H1164 C1174 0.950 . S
H1165 C1176 0.950 . S
H1166 C1178 0.950 . S
H1167 C1179 0.950 . S
C1168 H1160 0.950 . S
C1168 C1169 1.386 . S
C1168 C1170 1.391 . S
C1169 C1168 1.386 . S
C1169 C1173 1.393 . S
C1170 H1162 0.950 . S
C1170 C1168 1.391 . S
C1170 C1171 1.400 . S
C1171 C1170 1.400 . S
C1171 C1172 1.398 . S
C1171 C1177 1.491 . S
C1172 H1163 0.950 . S
C1172 C1171 1.398 . S
C1172 C1173 1.391 . S
C1173 H1161 0.950 . S
C1173 C1169 1.393 . S
C1173 C1172 1.391 . S
C1174 H1164 0.950 . S
C1174 C1175 1.386 . S
C1174 C1176 1.391 . S
C1175 C1174 1.386 . S
C1175 C1179 1.393 . S
C1176 H1165 0.950 . S
C1176 C1174 1.391 . S
C1176 C1177 1.400 . S
C1177 C1171 1.491 . S
C1177 C1176 1.400 . S
C1177 C1178 1.398 . S
C1178 H1166 0.950 . S
C1178 C1177 1.398 . S
C1178 C1179 1.391 . S
C1179 H1167 0.950 . S
C1179 C1175 1.393 . S
C1179 C1178 1.391 . S
H1180 C1188 0.950 . S
H1181 C1193 0.950 . S
H1182 C1190 0.950 . S
H1183 C1192 0.950 . S
H1184 C1194 0.950 . S
H1185 C1196 0.950 . S
H1186 C1198 0.950 . S
H1187 C1199 0.950 . S
C1188 H1180 0.950 . S
C1188 C1189 1.386 . S
C1188 C1190 1.391 1_655 S
C1189 C1188 1.386 . S
C1189 C1193 1.393 . S
C1190 H1182 0.950 . S
C1190 C1188 1.391 1_455 S
C1190 C1191 1.400 . S
C1191 C1190 1.400 . S
C1191 C1192 1.398 . S
C1191 C1197 1.491 . S
C1192 H1183 0.950 . S
C1192 C1191 1.398 . S
C1192 C1193 1.391 1_455 S
C1193 H1181 0.950 . S
C1193 C1189 1.393 . S
C1193 C1192 1.391 1_655 S
C1194 H1184 0.950 . S
C1194 C1195 1.386 . S
C1194 C1196 1.391 . S
C1195 C1194 1.386 . S
C1195 C1199 1.393 . S
C1196 H1185 0.950 . S
C1196 C1194 1.391 . S
C1196 C1197 1.400 . S
C1197 C1191 1.491 . S
C1197 C1196 1.400 . S
C1197 C1198 1.398 . S
C1198 H1186 0.950 . S
C1198 C1197 1.398 . S
C1198 C1199 1.391 . S
C1199 H1187 0.950 . S
C1199 C1195 1.393 . S
C1199 C1198 1.391 . S
H1200 C1208 0.950 . S
H1201 C1213 0.950 . S
H1202 C1210 0.950 . S
H1203 C1212 0.950 . S
H1204 C1214 0.950 . S
H1205 C1216 0.950 . S
H1206 C1218 0.950 . S
H1207 C1219 0.950 . S
C1208 H1200 0.950 . S
C1208 C1209 1.386 . S
C1208 C1210 1.391 . S
C1209 C1208 1.386 . S
C1209 C1213 1.393 . S
C1210 H1202 0.950 . S
C1210 C1208 1.391 . S
C1210 C1211 1.400 . S
C1211 C1210 1.400 . S
C1211 C1212 1.398 . S
C1211 C1217 1.491 . S
C1212 H1203 0.950 . S
C1212 C1211 1.398 . S
C1212 C1213 1.391 . S
C1213 H1201 0.950 . S
C1213 C1209 1.393 . S
C1213 C1212 1.391 . S
C1214 H1204 0.950 . S
C1214 C1215 1.386 . S
C1214 C1216 1.391 . S
C1215 C1214 1.386 . S
C1215 C1219 1.393 . S
C1216 H1205 0.950 . S
C1216 C1214 1.391 . S
C1216 C1217 1.400 . S
C1217 C1211 1.491 . S
C1217 C1216 1.400 . S
C1217 C1218 1.398 . S
C1218 H1206 0.950 . S
C1218 C1217 1.398 . S
C1218 C1219 1.391 . S
C1219 H1207 0.950 . S
C1219 C1215 1.393 . S
C1219 C1218 1.391 . S
H1220 C1228 0.950 . S
H1221 C1233 0.950 . S
H1222 C1230 0.950 . S
H1223 C1232 0.950 . S
H1224 C1234 0.950 . S
H1225 C1236 0.950 . S
H1226 C1238 0.950 . S
H1227 C1239 0.950 . S
C1228 H1220 0.950 . S
C1228 C1229 1.386 . S
C1228 C1230 1.391 . S
C1229 C1228 1.386 . S
C1229 C1233 1.393 . S
C1230 H1222 0.950 . S
C1230 C1228 1.391 . S
C1230 C1231 1.400 . S
C1231 C1230 1.400 . S
C1231 C1232 1.398 . S
C1231 C1237 1.491 . S
C1232 H1223 0.950 . S
C1232 C1231 1.398 . S
C1232 C1233 1.391 . S
C1233 H1221 0.950 . S
C1233 C1229 1.393 . S
C1233 C1232 1.391 . S
C1234 H1224 0.950 . S
C1234 C1235 1.386 . S
C1234 C1236 1.391 . S
C1235 C1234 1.386 . S
C1235 C1239 1.393 . S
C1236 H1225 0.950 . S
C1236 C1234 1.391 . S
C1236 C1237 1.400 . S
C1237 C1231 1.491 . S
C1237 C1236 1.400 . S
C1237 C1238 1.398 . S
C1238 H1226 0.950 . S
C1238 C1237 1.398 . S
C1238 C1239 1.391 . S
C1239 H1227 0.950 . S
C1239 C1235 1.393 . S
C1239 C1238 1.391 . S
H1240 C1248 0.950 1_565 S
H1241 C1253 0.950 . S
H1242 C1250 0.950 . S
H1243 C1252 0.950 . S
H1244 C1254 0.950 . S
H1245 C1256 0.950 . S
H1246 C1258 0.950 . S
H1247 C1259 0.950 . S
C1248 H1240 0.950 1_545 S
C1248 C1249 1.386 1_545 S
C1248 C1250 1.391 . S
C1249 C1248 1.386 1_565 S
C1249 C1253 1.393 . S
C1250 H1242 0.950 . S
C1250 C1248 1.391 . S
C1250 C1251 1.400 . S
C1251 C1250 1.400 . S
C1251 C1252 1.398 . S
C1251 C1257 1.491 . S
C1252 H1243 0.950 . S
C1252 C1251 1.398 . S
C1252 C1253 1.391 1_545 S
C1253 H1241 0.950 . S
C1253 C1249 1.393 . S
C1253 C1252 1.391 1_565 S
C1254 H1244 0.950 . S
C1254 C1255 1.386 . S
C1254 C1256 1.391 . S
C1255 C1254 1.386 . S
C1255 C1259 1.393 . S
C1256 H1245 0.950 . S
C1256 C1254 1.391 . S
C1256 C1257 1.400 . S
C1257 C1251 1.491 . S
C1257 C1256 1.400 . S
C1257 C1258 1.398 . S
C1258 H1246 0.950 . S
C1258 C1257 1.398 . S
C1258 C1259 1.391 . S
C1259 H1247 0.950 . S
C1259 C1255 1.393 . S
C1259 C1258 1.391 . S
H1260 C1268 0.950 . S
H1261 C1273 0.950 . S
H1262 C1270 0.950 . S
H1263 C1272 0.950 . S
H1264 C1274 0.950 . S
H1265 C1276 0.950 . S
H1266 C1278 0.950 . S
H1267 C1279 0.950 . S
C1268 H1260 0.950 . S
C1268 C1269 1.386 . S
C1268 C1270 1.391 . S
C1269 C1268 1.386 . S
C1269 C1273 1.393 . S
C1270 H1262 0.950 . S
C1270 C1268 1.391 . S
C1270 C1271 1.400 . S
C1271 C1270 1.400 . S
C1271 C1272 1.398 . S
C1271 C1277 1.491 . S
C1272 H1263 0.950 . S
C1272 C1271 1.398 . S
C1272 C1273 1.391 . S
C1273 H1261 0.950 . S
C1273 C1269 1.393 . S
C1273 C1272 1.391 . S
C1274 H1264 0.950 . S
C1274 C1275 1.386 . S
C1274 C1276 1.391 . S
C1275 C1274 1.386 . S
C1275 C1279 1.393 . S
C1276 H1265 0.950 . S
C1276 C1274 1.391 . S
C1276 C1277 1.400 . S
C1277 C1271 1.491 . S
C1277 C1276 1.400 . S
C1277 C1278 1.398 . S
C1278 H1266 0.950 . S
C1278 C1277 1.398 . S
C1278 C1279 1.391 . S
C1279 H1267 0.950 . S
C1279 C1275 1.393 . S
C1279 C1278 1.391 . S
H1280 C1288 0.950 . S
H1281 C1293 0.950 . S
H1282 C1290 0.948 1_565 S
H1283 C1292 0.950 . S
H1284 C1294 0.950 . S
H1285 C1296 0.950 . S
H1286 C1298 0.950 . S
H1287 C1299 0.950 . S
C1288 H1280 0.950 . S
C1288 C1289 1.386 . S
C1288 C1290 1.391 . S
C1289 C1288 1.386 . S
C1289 C1293 1.393 . S
C1290 H1282 0.948 1_545 S
C1290 C1288 1.391 . S
C1290 C1291 1.400 1_545 S
C1291 C1290 1.400 1_565 S
C1291 C1292 1.398 . S
C1291 C1297 1.491 . S
C1292 H1283 0.950 . S
C1292 C1291 1.398 . S
C1292 C1293 1.391 1_565 S
C1293 H1281 0.950 . S
C1293 C1289 1.393 . S
C1293 C1292 1.391 1_545 S
C1294 H1284 0.950 . S
C1294 C1295 1.386 . S
C1294 C1296 1.391 . S
C1295 C1294 1.386 . S
C1295 C1299 1.393 . S
C1296 H1285 0.950 . S
C1296 C1294 1.391 . S
C1296 C1297 1.400 . S
C1297 C1291 1.491 . S
C1297 C1296 1.400 . S
C1297 C1298 1.398 . S
C1298 H1286 0.950 . S
C1298 C1297 1.398 . S
C1298 C1299 1.391 . S
C1299 H1287 0.950 . S
C1299 C1295 1.393 . S
C1299 C1298 1.391 . S
H1300 C1308 0.950 . S
H1301 C1313 0.950 . S
H1302 C1310 0.950 . S
H1303 C1312 0.950 . S
H1304 C1314 0.950 . S
H1305 C1316 0.950 . S
H1306 C1318 0.950 . S
H1307 C1319 0.950 . S
C1308 H1300 0.950 . S
C1308 C1309 1.386 . S
C1308 C1310 1.391 . S
C1309 C1308 1.386 . S
C1309 C1313 1.393 . S
C1310 H1302 0.950 . S
C1310 C1308 1.391 . S
C1310 C1311 1.400 . S
C1311 C1310 1.400 . S
C1311 C1312 1.398 . S
C1311 C1317 1.491 . S
C1312 H1303 0.950 . S
C1312 C1311 1.398 . S
C1312 C1313 1.391 . S
C1313 H1301 0.950 . S
C1313 C1309 1.393 . S
C1313 C1312 1.391 . S
C1314 H1304 0.950 . S
C1314 C1315 1.386 . S
C1314 C1316 1.391 . S
C1315 C1314 1.386 . S
C1315 C1319 1.393 . S
C1316 H1305 0.950 . S
C1316 C1314 1.391 . S
C1316 C1317 1.400 . S
C1317 C1311 1.491 . S
C1317 C1316 1.400 . S
C1317 C1318 1.398 . S
C1318 H1306 0.950 . S
C1318 C1317 1.398 . S
C1318 C1319 1.391 . S
C1319 H1307 0.950 . S
C1319 C1315 1.393 . S
C1319 C1318 1.391 . S
H1320 C1328 0.950 . S
H1321 C1333 0.934 1_556 S
H1322 C1330 0.950 . S
H1323 C1332 0.950 . S
H1324 C1334 0.950 . S
H1325 C1336 0.950 . S
H1326 C1338 0.950 . S
H1327 C1339 0.950 . S
C1328 H1320 0.950 . S
C1328 C1329 1.386 . S
C1328 C1330 1.391 . S
C1329 C1328 1.386 . S
C1329 C1333 1.393 . S
C1330 H1322 0.950 . S
C1330 C1328 1.391 . S
C1330 C1331 1.400 . S
C1331 C1330 1.400 . S
C1331 C1332 1.398 . S
C1331 C1337 1.491 . S
C1332 H1323 0.950 . S
C1332 C1331 1.398 . S
C1332 C1333 1.391 . S
C1333 H1321 0.934 1_554 S
C1333 C1329 1.393 . S
C1333 C1332 1.391 . S
C1334 H1324 0.950 . S
C1334 C1335 1.386 . S
C1334 C1336 1.391 . S
C1335 C1334 1.386 . S
C1335 C1339 1.393 . S
C1336 H1325 0.950 . S
C1336 C1334 1.391 . S
C1336 C1337 1.400 . S
C1337 C1331 1.491 . S
C1337 C1336 1.400 . S
C1337 C1338 1.398 . S
C1338 H1326 0.950 . S
C1338 C1337 1.398 . S
C1338 C1339 1.391 . S
C1339 H1327 0.950 . S
C1339 C1335 1.393 . S
C1339 C1338 1.391 . S
H1340 C1348 0.950 . S
H1341 C1353 0.950 . S
H1342 C1350 0.950 . S
H1343 C1352 0.950 . S
H1344 C1354 0.950 . S
H1345 C1356 0.950 . S
H1346 C1358 0.950 . S
H1347 C1359 0.950 . S
C1348 H1340 0.950 . S
C1348 C1349 1.386 . S
C1348 C1350 1.391 . S
C1349 C1348 1.386 . S
C1349 C1353 1.393 . S
C1350 H1342 0.950 . S
C1350 C1348 1.391 . S
C1350 C1351 1.400 . S
C1351 C1350 1.400 . S
C1351 C1352 1.398 . S
C1351 C1357 1.491 . S
C1352 H1343 0.950 . S
C1352 C1351 1.398 . S
C1352 C1353 1.391 . S
C1353 H1341 0.950 . S
C1353 C1349 1.393 . S
C1353 C1352 1.391 . S
C1354 H1344 0.950 . S
C1354 C1355 1.386 . S
C1354 C1356 1.391 . S
C1355 C1354 1.386 . S
C1355 C1359 1.393 . S
C1356 H1345 0.950 . S
C1356 C1354 1.391 . S
C1356 C1357 1.400 . S
C1357 C1351 1.491 . S
C1357 C1356 1.400 . S
C1357 C1358 1.398 . S
C1358 H1346 0.950 . S
C1358 C1357 1.398 . S
C1358 C1359 1.391 . S
C1359 H1347 0.950 . S
C1359 C1355 1.393 . S
C1359 C1358 1.391 . S
H1360 C1368 0.950 . S
H1361 C1373 0.950 . S
H1362 C1370 0.950 . S
H1363 C1372 0.950 . S
H1364 C1374 0.950 . S
H1365 C1376 0.950 . S
H1366 C1378 0.950 . S
H1367 C1379 0.950 . S
C1368 H1360 0.950 . S
C1368 C1369 1.386 . S
C1368 C1370 1.391 . S
C1369 C1368 1.386 . S
C1369 C1373 1.393 . S
C1370 H1362 0.950 . S
C1370 C1368 1.391 . S
C1370 C1371 1.400 . S
C1371 C1370 1.400 . S
C1371 C1372 1.398 . S
C1371 C1377 1.491 . S
C1372 H1363 0.950 . S
C1372 C1371 1.398 . S
C1372 C1373 1.391 . S
C1373 H1361 0.950 . S
C1373 C1369 1.393 . S
C1373 C1372 1.391 . S
C1374 H1364 0.950 . S
C1374 C1375 1.386 . S
C1374 C1376 1.391 . S
C1375 C1374 1.386 . S
C1375 C1379 1.393 . S
C1376 H1365 0.950 . S
C1376 C1374 1.391 . S
C1376 C1377 1.400 . S
C1377 C1371 1.491 . S
C1377 C1376 1.400 . S
C1377 C1378 1.398 . S
C1378 H1366 0.950 . S
C1378 C1377 1.398 . S
C1378 C1379 1.391 . S
C1379 H1367 0.950 . S
C1379 C1375 1.393 . S
C1379 C1378 1.391 . S
C435 C416 1.262 . S
C429 C8 1.323 . S
C449 C23 1.174 . S
C455 C345 1.012 . S
C469 C35 1.352 . S
C475 C374 1.251 . S
C495 C387 0.951 . S
C489 C45 1.170 . S
C509 C22 1.336 . S
C515 C408 1.212 . S
C535 C353 1.001 . S
C529 C31 1.129 . S
C555 C366 1.151 . S
C549 C49 1.357 . S
C575 C395 1.090 . S
C569 C9 1.141 . S
C589 C65 1.275 . S
C595 C397 1.248 . S
C615 C411 1.043 . S
C609 C73 1.197 . S
C635 C355 1.273 . S
C629 C93 1.330 1_565 S
C655 C369 0.994 . S
C649 C101 1.157 . S
C669 C59 1.277 . S
C675 C348 1.235 . S
C689 C79 1.173 . S
C695 C376 1.046 . S
C709 C87 1.283 . S
C715 C390 1.224 . S
C735 C418 1.127 . S
C729 C107 1.249 . S
C755 C227 1.317 . S
C749 C106 1.399 . S
C775 C208 1.180 . S
C769 C119 1.304 . S
C795 C222 1.124 . S
C789 C134 1.202 . S
C815 C243 1.173 . S
C809 C147 1.286 . S
C829 C64 1.196 . S
C835 C229 1.002 . S
C849 C78 1.337 . S
C855 C180 1.287 . S
C869 C133 1.223 . S
C875 C240 0.940 . S
C889 C161 1.196 . S
C895 C206 1.007 . S
C915 C269 1.267 . S
C909 C36 1.313 . S
C935 C282 1.007 . S
C929 C51 1.203 . S
C949 C7 1.346 . S
C955 C311 1.246 . S
C969 C17 1.174 . S
C975 C324 0.932 . S
C995 C261 1.176 . S
C989 C50 1.323 . S
C1015 C290 1.050 . S
C1009 C3 1.116 . S
C1029 C21 1.361 . S
C1035 C303 1.181 . S
C1055 C332 1.057 . S
C1049 C37 1.168 . S
C1069 C163 1.315 . S
C1075 C334 1.246 . S
C1089 C115 1.175 . S
C1095 C264 1.003 . S
C1115 C292 1.274 . S
C1109 C135 1.337 . S
C1129 C143 1.114 . S
C1135 C306 0.959 . S
C1155 C285 1.228 . S
C1149 C157 1.291 . S
C1169 C121 1.169 . S
C1175 C313 1.026 . S
C1195 C327 1.221 . S
C1189 C129 1.300 . S
C1215 C271 1.092 . S
C1209 C149 1.245 . S
C1235 C187 1.276 . S
C1229 C148 1.379 . S
C1255 C250 1.187 . S
C1249 C77 1.336 . S
C1269 C92 1.234 . S
C1275 C177 1.010 . S
C1295 C201 1.234 . S
C1289 C105 1.316 . S
C1315 C185 1.073 . S
C1309 C162 1.198 . S
C1329 C120 1.337 . S
C1335 C219 1.191 . S
C1349 C91 1.194 . S
C1355 C198 0.934 . S
C1369 C63 1.160 . S
C1375 C248 0.997 . S
