# Generated by pormake.
# Topology ctn, (3,4)-cn, num edge types: 1
# Building blocks:
#     Node 0, Type 0, BuildingBlock: VETTIZ_charged_linker_0, # of connection points: 3
#     Node 1, Type 0, BuildingBlock: VETTIZ_charged_linker_0, # of connection points: 3
#     Node 2, Type 0, BuildingBlock: VETTIZ_charged_linker_0, # of connection points: 3
#     Node 3, Type 0, BuildingBlock: VETTIZ_charged_linker_0, # of connection points: 3
#     Node 4, Type 0, BuildingBlock: VETTIZ_charged_linker_0, # of connection points: 3
#     Node 5, Type 0, BuildingBlock: VETTIZ_charged_linker_0, # of connection points: 3
#     Node 6, Type 0, BuildingBlock: VETTIZ_charged_linker_0, # of connection points: 3
#     Node 7, Type 0, BuildingBlock: VETTIZ_charged_linker_0, # of connection points: 3
#     Node 8, Type 0, BuildingBlock: VETTIZ_charged_linker_0, # of connection points: 3
#     Node 9, Type 0, BuildingBlock: VETTIZ_charged_linker_0, # of connection points: 3
#     Node 10, Type 0, BuildingBlock: VETTIZ_charged_linker_0, # of connection points: 3
#     Node 11, Type 0, BuildingBlock: VETTIZ_charged_linker_0, # of connection points: 3
#     Node 12, Type 0, BuildingBlock: VETTIZ_charged_linker_0, # of connection points: 3
#     Node 13, Type 0, BuildingBlock: VETTIZ_charged_linker_0, # of connection points: 3
#     Node 14, Type 0, BuildingBlock: VETTIZ_charged_linker_0, # of connection points: 3
#     Node 15, Type 0, BuildingBlock: VETTIZ_charged_linker_0, # of connection points: 3
#     Node 16, Type 1, BuildingBlock: TATPOV_clean_sbu_0, # of connection points: 4
#     Node 17, Type 1, BuildingBlock: TATPOV_clean_sbu_0, # of connection points: 4
#     Node 18, Type 1, BuildingBlock: TATPOV_clean_sbu_0, # of connection points: 4
#     Node 19, Type 1, BuildingBlock: TATPOV_clean_sbu_0, # of connection points: 4
#     Node 20, Type 1, BuildingBlock: TATPOV_clean_sbu_0, # of connection points: 4
#     Node 21, Type 1, BuildingBlock: TATPOV_clean_sbu_0, # of connection points: 4
#     Node 22, Type 1, BuildingBlock: TATPOV_clean_sbu_0, # of connection points: 4
#     Node 23, Type 1, BuildingBlock: TATPOV_clean_sbu_0, # of connection points: 4
#     Node 24, Type 1, BuildingBlock: TATPOV_clean_sbu_0, # of connection points: 4
#     Node 25, Type 1, BuildingBlock: TATPOV_clean_sbu_0, # of connection points: 4
#     Node 26, Type 1, BuildingBlock: TATPOV_clean_sbu_0, # of connection points: 4
#     Node 27, Type 1, BuildingBlock: TATPOV_clean_sbu_0, # of connection points: 4
#     Edge 28, Type (0, 1), BuildingBlock: KIFKEQ_clean_linker_1, # of connection points: 2
#     Edge 29, Type (0, 1), BuildingBlock: KIFKEQ_clean_linker_1, # of connection points: 2
#     Edge 30, Type (0, 1), BuildingBlock: KIFKEQ_clean_linker_1, # of connection points: 2
#     Edge 31, Type (0, 1), BuildingBlock: KIFKEQ_clean_linker_1, # of connection points: 2
#     Edge 32, Type (0, 1), BuildingBlock: KIFKEQ_clean_linker_1, # of connection points: 2
#     Edge 33, Type (0, 1), BuildingBlock: KIFKEQ_clean_linker_1, # of connection points: 2
#     Edge 34, Type (0, 1), BuildingBlock: KIFKEQ_clean_linker_1, # of connection points: 2
#     Edge 35, Type (0, 1), BuildingBlock: KIFKEQ_clean_linker_1, # of connection points: 2
#     Edge 36, Type (0, 1), BuildingBlock: KIFKEQ_clean_linker_1, # of connection points: 2
#     Edge 37, Type (0, 1), BuildingBlock: KIFKEQ_clean_linker_1, # of connection points: 2
#     Edge 38, Type (0, 1), BuildingBlock: KIFKEQ_clean_linker_1, # of connection points: 2
#     Edge 39, Type (0, 1), BuildingBlock: KIFKEQ_clean_linker_1, # of connection points: 2
#     Edge 40, Type (0, 1), BuildingBlock: KIFKEQ_clean_linker_1, # of connection points: 2
#     Edge 41, Type (0, 1), BuildingBlock: KIFKEQ_clean_linker_1, # of connection points: 2
#     Edge 42, Type (0, 1), BuildingBlock: KIFKEQ_clean_linker_1, # of connection points: 2
#     Edge 43, Type (0, 1), BuildingBlock: KIFKEQ_clean_linker_1, # of connection points: 2
#     Edge 44, Type (0, 1), BuildingBlock: KIFKEQ_clean_linker_1, # of connection points: 2
#     Edge 45, Type (0, 1), BuildingBlock: KIFKEQ_clean_linker_1, # of connection points: 2
#     Edge 46, Type (0, 1), BuildingBlock: KIFKEQ_clean_linker_1, # of connection points: 2
#     Edge 47, Type (0, 1), BuildingBlock: KIFKEQ_clean_linker_1, # of connection points: 2
#     Edge 48, Type (0, 1), BuildingBlock: KIFKEQ_clean_linker_1, # of connection points: 2
#     Edge 49, Type (0, 1), BuildingBlock: KIFKEQ_clean_linker_1, # of connection points: 2
#     Edge 50, Type (0, 1), BuildingBlock: KIFKEQ_clean_linker_1, # of connection points: 2
#     Edge 51, Type (0, 1), BuildingBlock: KIFKEQ_clean_linker_1, # of connection points: 2
#     Edge 52, Type (0, 1), BuildingBlock: KIFKEQ_clean_linker_1, # of connection points: 2
#     Edge 53, Type (0, 1), BuildingBlock: KIFKEQ_clean_linker_1, # of connection points: 2
#     Edge 54, Type (0, 1), BuildingBlock: KIFKEQ_clean_linker_1, # of connection points: 2
#     Edge 55, Type (0, 1), BuildingBlock: KIFKEQ_clean_linker_1, # of connection points: 2
#     Edge 56, Type (0, 1), BuildingBlock: KIFKEQ_clean_linker_1, # of connection points: 2
#     Edge 57, Type (0, 1), BuildingBlock: KIFKEQ_clean_linker_1, # of connection points: 2
#     Edge 58, Type (0, 1), BuildingBlock: KIFKEQ_clean_linker_1, # of connection points: 2
#     Edge 59, Type (0, 1), BuildingBlock: KIFKEQ_clean_linker_1, # of connection points: 2
#     Edge 60, Type (0, 1), BuildingBlock: KIFKEQ_clean_linker_1, # of connection points: 2
#     Edge 61, Type (0, 1), BuildingBlock: KIFKEQ_clean_linker_1, # of connection points: 2
#     Edge 62, Type (0, 1), BuildingBlock: KIFKEQ_clean_linker_1, # of connection points: 2
#     Edge 63, Type (0, 1), BuildingBlock: KIFKEQ_clean_linker_1, # of connection points: 2
#     Edge 64, Type (0, 1), BuildingBlock: KIFKEQ_clean_linker_1, # of connection points: 2
#     Edge 65, Type (0, 1), BuildingBlock: KIFKEQ_clean_linker_1, # of connection points: 2
#     Edge 66, Type (0, 1), BuildingBlock: KIFKEQ_clean_linker_1, # of connection points: 2
#     Edge 67, Type (0, 1), BuildingBlock: KIFKEQ_clean_linker_1, # of connection points: 2
#     Edge 68, Type (0, 1), BuildingBlock: KIFKEQ_clean_linker_1, # of connection points: 2
#     Edge 69, Type (0, 1), BuildingBlock: KIFKEQ_clean_linker_1, # of connection points: 2
#     Edge 70, Type (0, 1), BuildingBlock: KIFKEQ_clean_linker_1, # of connection points: 2
#     Edge 71, Type (0, 1), BuildingBlock: KIFKEQ_clean_linker_1, # of connection points: 2
#     Edge 72, Type (0, 1), BuildingBlock: KIFKEQ_clean_linker_1, # of connection points: 2
#     Edge 73, Type (0, 1), BuildingBlock: KIFKEQ_clean_linker_1, # of connection points: 2
#     Edge 74, Type (0, 1), BuildingBlock: KIFKEQ_clean_linker_1, # of connection points: 2
#     Edge 75, Type (0, 1), BuildingBlock: KIFKEQ_clean_linker_1, # of connection points: 2
# Relax obj value: 0.003
# Max RMSD: 0.048
# Mean RMSD: 0.021
data_MOF--net-ctn--node1-TATPOV_clean_sbu_0--node2-VETTIZ_charged_linker_0--edge1-KIFKEQ_clean_linker_1
_symmetry_space_group_name_H-M    P1
_symmetry_Int_Tables_number       1
_symmetry_cell_setting            triclinic
loop_
_symmetry_equiv_pos_as_xyz
'x, y, z'
_cell_length_a     67.884348
_cell_length_b     67.863792
_cell_length_c     67.868361
_cell_angle_alpha  90.987119
_cell_angle_beta   90.964527
_cell_angle_gamma 90.989669
loop_
_atom_site_label
_atom_site_type_symbol
_atom_site_fract_x
_atom_site_fract_y
_atom_site_fract_z
_atom_type_partial_charge
C0 C 0.0342 0.08298 0.98276 0.0
C1 C 0.02004 0.09792 0.98351 0.0
C2 C 0.00635 0.09776 0.99894 0.0
C3 C 0.0208 0.0682 0.01216 0.0
C4 C 0.03431 0.06839 0.99715 0.0
C5 C 0.04838 0.05153 0.99847 0.0
H6 H 0.07886 0.96964 0.04514 0.0
C7 C 0.0248 0.05093 0.02458 0.0
C8 C 0.04097 0.0411 0.01662 0.0
H9 H 0.10407 0.99697 0.99403 0.0
H10 H 0.07931 0.02197 0.99492 0.0
H11 H 0.07196 0.01061 0.06928 0.0
H12 H 0.03417 0.97394 0.03198 0.0
H13 H 0.01969 0.98255 0.05139 0.0
H14 H 0.04057 0.96727 0.05672 0.0
H15 H 0.06307 0.98677 0.07645 0.0
H16 H 0.04897 0.00865 0.08067 0.0
C17 C 0.06946 0.06024 0.00175 0.0
C18 C 0.04572 0.03854 0.97959 0.0
C19 C 0.9821 0.03705 0.08398 0.0
C20 C 0.98192 0.02191 0.09795 0.0
C21 C 0.99588 0.00681 0.0963 0.0
C22 C 0.00981 0.00688 0.08127 0.0
C23 C 0.00987 0.02215 0.06757 0.0
C24 C 0.99608 0.03683 0.06897 0.0
C25 C 0.99811 0.05164 0.05282 0.0
C26 C 0.01546 0.04351 0.04161 0.0
C27 C 0.02235 0.02627 0.05037 0.0
C28 C 0.00305 0.07202 0.06248 0.0
C29 C 0.97886 0.05095 0.04021 0.0
C30 C 0.07918 0.9811 0.03423 0.0
C31 C 0.09353 0.98121 0.01947 0.0
C32 C 0.09309 0.99629 0.0054 0.0
C33 C 0.07875 0.01092 0.00603 0.0
C34 C 0.0646 0.01062 0.02091 0.0
C35 C 0.06498 0.99587 0.03468 0.0
C36 C 0.04883 0.9979 0.04947 0.0
C37 C 0.03877 0.01638 0.04238 0.0
C38 C 0.04805 0.02376 0.02563 0.0
C39 C 0.05855 0.00102 0.07013 0.0
C40 C 0.03509 0.97946 0.04751 0.0
H41 H 0.99586 0.08384 0.02454 0.0
H42 H 0.04484 0.08247 0.97106 0.0
H43 H 0.02992 0.03749 0.97499 0.0
H44 H 0.05021 0.02316 0.98169 0.0
H45 H 0.05405 0.04483 0.96716 0.0
H46 H 0.06921 0.07394 0.01099 0.0
H47 H 0.0763 0.06404 0.98752 0.0
H48 H 0.07928 0.0503 0.00988 0.0
H49 H 0.97176 0.04899 0.08481 0.0
H50 H 0.99592 0.99472 0.10651 0.0
H51 H 0.01998 0.99496 0.0809 0.0
H52 H 0.01303 0.07046 0.07551 0.0
H53 H 0.9895 0.07935 0.06757 0.0
H54 H 0.01104 0.08201 0.05259 0.0
H55 H 0.97273 0.03565 0.03901 0.0
H56 H 0.98112 0.05539 0.02483 0.0
H57 H 0.96741 0.06035 0.04686 0.0
H58 H 0.9955 0.10921 0.00016 0.0
C59 C 0.00665 0.08304 0.0132 0.0
C60 C 0.22666 0.6525 0.24016 0.0
C61 C 0.20892 0.65 0.22934 0.0
C62 C 0.20415 0.66383 0.21481 0.0
C63 C 0.23489 0.68169 0.22159 0.0
C64 C 0.23934 0.66832 0.23606 0.0
C65 C 0.25882 0.67283 0.24614 0.0
H66 H 0.34323 0.72723 0.25181 0.0
C67 C 0.2515 0.69605 0.2207 0.0
C68 C 0.26555 0.69091 0.23508 0.0
H69 H 0.32507 0.67973 0.28936 0.0
H70 H 0.29421 0.6763 0.27119 0.0
H71 H 0.30295 0.74872 0.25311 0.0
H72 H 0.3257 0.70829 0.20995 0.0
H73 H 0.31486 0.72789 0.19734 0.0
H74 H 0.3354 0.73285 0.21395 0.0
H75 H 0.3206 0.7564 0.23529 0.0
H76 H 0.29442 0.75666 0.23009 0.0
C77 C 0.25506 0.67761 0.26817 0.0
C78 C 0.27246 0.6551 0.24253 0.0
C79 C 0.2509 0.74998 0.16939 0.0
C80 C 0.26479 0.76461 0.16439 0.0
C81 C 0.28247 0.76648 0.17555 0.0
C82 C 0.28647 0.75377 0.19109 0.0
C83 C 0.27271 0.73892 0.19561 0.0
C84 C 0.25519 0.7373 0.18496 0.0
C85 C 0.24246 0.72043 0.19178 0.0
C86 C 0.25519 0.71233 0.20829 0.0
C87 C 0.27293 0.72318 0.2104 0.0
C88 C 0.22301 0.72897 0.19956 0.0
C89 C 0.23972 0.70548 0.17439 0.0
C90 C 0.33267 0.71593 0.25588 0.0
C91 C 0.3366 0.70352 0.2718 0.0
C92 C 0.32232 0.68936 0.27708 0.0
C93 C 0.30445 0.68742 0.26651 0.0
C94 C 0.30068 0.69993 0.25061 0.0
C95 C 0.31458 0.71404 0.24569 0.0
C96 C 0.30754 0.72681 0.22918 0.0
C97 C 0.28723 0.71785 0.22481 0.0
C98 C 0.28343 0.70195 0.23723 0.0
C99 C 0.3064 0.74832 0.23713 0.0
C100 C 0.32159 0.72403 0.21164 0.0
H101 H 0.21265 0.68955 0.19954 0.0
H102 H 0.2306 0.64238 0.25169 0.0
H103 H 0.27086 0.64954 0.22706 0.0
H104 H 0.28824 0.65886 0.24453 0.0
H105 H 0.2687 0.64274 0.2524 0.0
H106 H 0.2402 0.68393 0.27024 0.0
H107 H 0.25591 0.66416 0.27722 0.0
H108 H 0.26538 0.68898 0.27436 0.0
H109 H 0.23727 0.74804 0.161 0.0
H110 H 0.29329 0.7778 0.1722 0.0
H111 H 0.30025 0.75591 0.19886 0.0
H112 H 0.22582 0.74325 0.20752 0.0
H113 H 0.21245 0.73169 0.18727 0.0
H114 H 0.21583 0.71942 0.21042 0.0
H115 H 0.25339 0.70457 0.16561 0.0
H116 H 0.23687 0.69027 0.17924 0.0
H117 H 0.22759 0.70989 0.16429 0.0
H118 H 0.19063 0.6622 0.20619 0.0
C119 C 0.21702 0.67964 0.21089 0.0
C120 C 0.98684 0.38812 0.01152 0.0
C121 C 0.97442 0.3828 0.99544 0.0
C122 C 0.95702 0.39343 0.99226 0.0
C123 C 0.96489 0.41457 0.02057 0.0
C124 C 0.98174 0.40389 0.02392 0.0
C125 C 0.99308 0.41118 0.04191 0.0
H126 H 0.00031 0.47373 0.12057 0.0
C127 C 0.96399 0.43016 0.03602 0.0
C128 C 0.98039 0.42813 0.04867 0.0
H129 H 0.0399 0.42711 0.10432 0.0
H130 H 0.02007 0.41963 0.07527 0.0
H131 H 0.96063 0.4509 0.11035 0.0
H132 H 0.99594 0.49058 0.07633 0.0
H133 H 0.97124 0.49608 0.07126 0.0
H134 H 0.98086 0.49901 0.09611 0.0
H135 H 0.96186 0.47697 0.11529 0.0
H136 H 0.94435 0.4663 0.09772 0.0
C137 C 0.99348 0.39432 0.05702 0.0
C138 C 0.01369 0.41843 0.03535 0.0
C139 C 0.9095 0.48063 0.03386 0.0
C140 C 0.90499 0.49693 0.04601 0.0
C141 C 0.9167 0.5008 0.06305 0.0
C142 C 0.93276 0.48894 0.0677 0.0
C143 C 0.93725 0.47296 0.05521 0.0
C144 C 0.92557 0.46889 0.03874 0.0
C145 C 0.93242 0.45114 0.02732 0.0
C146 C 0.95043 0.44553 0.0394 0.0
C147 C 0.95319 0.45839 0.05568 0.0
C148 C 0.91595 0.43504 0.02772 0.0
C149 C 0.93795 0.4578 0.00638 0.0
C150 C 0.0049 0.46209 0.11063 0.0
C151 C 0.02167 0.45093 0.11489 0.0
C152 C 0.02689 0.43574 0.10161 0.0
C153 C 0.01537 0.43144 0.08469 0.0
C154 C 0.99841 0.44244 0.08091 0.0
C155 C 0.99359 0.45764 0.09365 0.0
C156 C 0.97522 0.46794 0.08717 0.0
C157 C 0.96958 0.45615 0.06866 0.0
C158 C 0.98318 0.4412 0.06509 0.0
C159 C 0.95964 0.46562 0.10344 0.0
C160 C 0.98091 0.48958 0.08257 0.0
H161 H 0.9389 0.41691 0.00135 0.0
H162 H 0.00019 0.38008 0.01448 0.0
H163 H 0.01273 0.4256 0.02075 0.0
H164 H 0.02028 0.4298 0.04538 0.0
H165 H 0.024 0.40596 0.034 0.0
H166 H 0.9794 0.38566 0.05647 0.0
H167 H 0.00559 0.38398 0.05393 0.0
H168 H 0.9949 0.39971 0.07243 0.0
H169 H 0.90099 0.47729 0.02054 0.0
H170 H 0.9134 0.513 0.07287 0.0
H171 H 0.9411 0.49273 0.08082 0.0
H172 H 0.90731 0.43614 0.04148 0.0
H173 H 0.90548 0.43643 0.01509 0.0
H174 H 0.92182 0.41994 0.02775 0.0
H175 H 0.94604 0.47221 0.00709 0.0
H176 H 0.9479 0.44757 0.99884 0.0
H177 H 0.92457 0.45963 0.99699 0.0
H178 H 0.94731 0.38972 0.97986 0.0
C179 C 0.95222 0.40929 0.00468 0.0
C180 C 0.67012 0.7694 0.26118 0.0
C181 C 0.65602 0.75403 0.25887 0.0
C182 C 0.65874 0.73962 0.24396 0.0
C183 C 0.68853 0.75651 0.23355 0.0
C184 C 0.68605 0.77041 0.24837 0.0
C185 C 0.70174 0.78634 0.24837 0.0
H186 H 0.78142 0.82799 0.20577 0.0
C187 C 0.70621 0.76232 0.22237 0.0
C188 C 0.71396 0.77983 0.23098 0.0
H189 H 0.75102 0.84772 0.25776 0.0
H190 H 0.72874 0.81976 0.25503 0.0
H191 H 0.74199 0.81388 0.18013 0.0
H192 H 0.78264 0.7836 0.21776 0.0
H193 H 0.77577 0.76684 0.19882 0.0
H194 H 0.78853 0.78948 0.19286 0.0
H195 H 0.76717 0.80958 0.17387 0.0
H196 H 0.74801 0.79153 0.16834 0.0
C197 C 0.69156 0.80624 0.24463 0.0
C198 C 0.71352 0.78554 0.26809 0.0
C199 C 0.72787 0.72055 0.16382 0.0
C200 C 0.74375 0.72224 0.15083 0.0
C201 C 0.75687 0.7385 0.15303 0.0
C202 C 0.75431 0.75277 0.16787 0.0
C203 C 0.73847 0.75084 0.18078 0.0
C204 C 0.72559 0.73492 0.17868 0.0
C205 C 0.70974 0.73521 0.19395 0.0
C206 C 0.71537 0.75383 0.20564 0.0
C207 C 0.73214 0.76298 0.19775 0.0
C208 C 0.68958 0.73704 0.18316 0.0
C209 C 0.71169 0.71651 0.20655 0.0
C210 C 0.76983 0.82631 0.21642 0.0
C211 C 0.76792 0.84008 0.23197 0.0
C212 C 0.75288 0.83722 0.24576 0.0
C213 C 0.73989 0.82101 0.24409 0.0
C214 C 0.74192 0.80737 0.22849 0.0
C215 C 0.75681 0.81003 0.21509 0.0
C216 C 0.75718 0.79354 0.19998 0.0
C217 C 0.73985 0.7808 0.20634 0.0
C218 C 0.73089 0.78907 0.22295 0.0
C219 C 0.75353 0.80246 0.17942 0.0
C220 C 0.77706 0.7828 0.20225 0.0
H221 H 0.67597 0.72948 0.22016 0.0
H222 H 0.66873 0.78058 0.27262 0.0
H223 H 0.71435 0.77016 0.27344 0.0
H224 H 0.72905 0.79039 0.2667 0.0
H225 H 0.70649 0.79453 0.27976 0.0
H226 H 0.67916 0.8043 0.2338 0.0
H227 H 0.68546 0.81244 0.25845 0.0
H228 H 0.70141 0.81737 0.2381 0.0
H229 H 0.71763 0.70816 0.16264 0.0
H230 H 0.76906 0.7403 0.14307 0.0
H231 H 0.76479 0.76478 0.16869 0.0
H232 H 0.69091 0.74657 0.17005 0.0
H233 H 0.68386 0.72239 0.17796 0.0
H234 H 0.67837 0.74416 0.19233 0.0
H235 H 0.72746 0.713 0.20916 0.0
H236 H 0.70549 0.71828 0.22139 0.0
H237 H 0.70452 0.70354 0.19904 0.0
H238 H 0.64805 0.72774 0.24164 0.0
C239 C 0.67489 0.74076 0.23134 0.0
C240 C 0.05238 0.92146 0.48986 0.0
C241 C 0.03674 0.90761 0.48784 0.0
C242 C 0.0257 0.90687 0.47 0.0
C243 C 0.04428 0.9347 0.45775 0.0
C244 C 0.05596 0.9347 0.47462 0.0
C245 C 0.07198 0.9503 0.47427 0.0
H246 H 0.11341 0.02878 0.42955 0.0
C247 C 0.05092 0.95118 0.44542 0.0
C248 C 0.06733 0.96022 0.45487 0.0
H249 H 0.13421 0.99888 0.48154 0.0
H250 H 0.10662 0.97618 0.47903 0.0
H251 H 0.06754 0.02718 0.4401 0.0
H252 H 0.10296 0.9891 0.4043 0.0
H253 H 0.0806 0.99292 0.39156 0.0
H254 H 0.09678 0.01365 0.39725 0.0
H255 H 0.07562 0.03411 0.41612 0.0
H256 H 0.05316 0.02002 0.4194 0.0
C257 C 0.06929 0.96445 0.49213 0.0
C258 C 0.09217 0.93991 0.47398 0.0
C259 C 0.00968 0.96992 0.38577 0.0
C260 C 0.01035 0.986 0.37297 0.0
C261 C 0.02649 0.99935 0.37452 0.0
C262 C 0.04124 0.99713 0.38902 0.0
C263 C 0.03984 0.98145 0.40224 0.0
C264 C 0.02435 0.96806 0.40032 0.0
C265 C 0.02476 0.95271 0.41603 0.0
C266 C 0.04296 0.95922 0.42788 0.0
C267 C 0.05177 0.97602 0.41973 0.0
C268 C 0.00567 0.9546 0.4281 0.0
C269 C 0.02739 0.93226 0.40596 0.0
C270 C 0.11214 0.01727 0.44034 0.0
C271 C 0.12609 0.01576 0.45582 0.0
C272 C 0.12358 0.00068 0.46967 0.0
C273 C 0.10764 0.98733 0.46807 0.0
C274 C 0.094 0.98893 0.45242 0.0
C275 C 0.09639 0.00369 0.43885 0.0
C276 C 0.08062 0.00288 0.42298 0.0
C277 C 0.06869 0.9849 0.42901 0.0
C278 C 0.07648 0.97695 0.44639 0.0
C279 C 0.0686 0.02204 0.42451 0.0
C280 C 0.09062 0.9996 0.40288 0.0
H281 H 0.0202 0.91914 0.44202 0.0
H282 H 0.06132 0.92243 0.50321 0.0
H283 H 0.09081 0.92476 0.4675 0.0
H284 H 0.10297 0.94752 0.46459 0.0
H285 H 0.0985 0.93862 0.48908 0.0
H286 H 0.05348 0.96808 0.49379 0.0
H287 H 0.07441 0.9576 0.50602 0.0
H288 H 0.07709 0.97871 0.4906 0.0
H289 H 0.99772 0.95915 0.38482 0.0
H290 H 0.02736 0.01196 0.36498 0.0
H291 H 0.05294 0.00797 0.38966 0.0
H292 H 0.00219 0.97038 0.43075 0.0
H293 H 0.9929 0.94759 0.4201 0.0
H294 H 0.00679 0.9482 0.44287 0.0
H295 H 0.03572 0.93354 0.39205 0.0
H296 H 0.03618 0.92219 0.4151 0.0
H297 H 0.01292 0.92514 0.40223 0.0
H298 H 0.01404 0.89595 0.46763 0.0
C299 C 0.02935 0.92031 0.45503 0.0
C300 C 0.26397 0.67345 0.76214 0.0
C301 C 0.26441 0.6631 0.74399 0.0
C302 C 0.25069 0.66797 0.72907 0.0
C303 C 0.23628 0.69253 0.75061 0.0
C304 C 0.24996 0.68806 0.76507 0.0
C305 C 0.24765 0.70036 0.78351 0.0
H306 H 0.20022 0.77251 0.83278 0.0
C307 C 0.22349 0.7081 0.7586 0.0
C308 C 0.23017 0.71283 0.77783 0.0
H309 H 0.24995 0.73854 0.85252 0.0
H310 H 0.24941 0.72027 0.82187 0.0
H311 H 0.17608 0.73509 0.81377 0.0
H312 H 0.21457 0.77861 0.78859 0.0
H313 H 0.19436 0.77496 0.77232 0.0
H314 H 0.19032 0.78422 0.79695 0.0
H315 H 0.1685 0.75991 0.80974 0.0
H316 H 0.16587 0.74105 0.79076 0.0
C317 C 0.24277 0.68636 0.80064 0.0
C318 C 0.26672 0.71298 0.78674 0.0
C319 C 0.16558 0.73213 0.71765 0.0
C320 C 0.15089 0.74605 0.72128 0.0
C321 C 0.15138 0.75668 0.73934 0.0
C322 C 0.16608 0.75339 0.75358 0.0
C323 C 0.18051 0.73928 0.74982 0.0
C324 C 0.18016 0.729 0.73206 0.0
C325 C 0.1967 0.7146 0.73063 0.0
C326 C 0.20685 0.71773 0.75057 0.0
C327 C 0.1973 0.73221 0.76175 0.0
C328 C 0.18754 0.69361 0.72827 0.0
C329 C 0.21011 0.72084 0.71348 0.0
C330 C 0.21088 0.76102 0.83056 0.0
C331 C 0.22531 0.7572 0.84508 0.0
C332 C 0.23895 0.74214 0.84147 0.0
C333 C 0.23856 0.73144 0.82365 0.0
C334 C 0.22436 0.7357 0.80915 0.0
C335 C 0.2107 0.75014 0.81277 0.0
C336 C 0.19656 0.75241 0.79567 0.0
C337 C 0.20422 0.73721 0.78111 0.0
C338 C 0.22051 0.72749 0.78911 0.0
C339 C 0.17558 0.747 0.80272 0.0
C340 C 0.19885 0.77366 0.78794 0.0
H341 H 0.22659 0.6855 0.72037 0.0
H342 H 0.27402 0.66999 0.7741 0.0
H343 H 0.27297 0.71747 0.77241 0.0
H344 H 0.2642 0.72699 0.79475 0.0
H345 H 0.27818 0.70462 0.79473 0.0
H346 H 0.23335 0.6737 0.79533 0.0
H347 H 0.25639 0.68027 0.80726 0.0
H348 H 0.23417 0.6935 0.81235 0.0
H349 H 0.16579 0.72389 0.70385 0.0
H350 H 0.14013 0.7673 0.74265 0.0
H351 H 0.16555 0.76187 0.76704 0.0
H352 H 0.17446 0.69192 0.73779 0.0
H353 H 0.18264 0.6906 0.71279 0.0
H354 H 0.19763 0.68192 0.73287 0.0
H355 H 0.21049 0.73714 0.71195 0.0
H356 H 0.22567 0.71686 0.7159 0.0
H357 H 0.20474 0.71432 0.69922 0.0
H358 H 0.25081 0.66049 0.71484 0.0
C359 C 0.23666 0.68258 0.73228 0.0
C360 C 0.88643 0.51667 0.4968 0.0
C361 C 0.88061 0.50108 0.48395 0.0
C362 C 0.89101 0.49812 0.46637 0.0
C363 C 0.9132 0.52535 0.47509 0.0
C364 C 0.90261 0.52867 0.49201 0.0
C365 C 0.91056 0.5461 0.50382 0.0
H366 H 0.97595 0.62226 0.5128 0.0
C367 C 0.9296 0.53994 0.47483 0.0
C368 C 0.92804 0.55227 0.49152 0.0
H369 H 0.92743 0.60786 0.55086 0.0
H370 H 0.91985 0.57882 0.53116 0.0
H371 H 0.95456 0.61094 0.47111 0.0
H372 H 0.99176 0.57859 0.51049 0.0
H373 H 0.99663 0.56963 0.48669 0.0
H374 H 0.0019 0.5952 0.49292 0.0
H375 H 0.98007 0.61692 0.47609 0.0
H376 H 0.97289 0.59909 0.45733 0.0
C377 C 0.89444 0.56201 0.50425 0.0
C378 C 0.91712 0.53885 0.52439 0.0
C379 C 0.98106 0.53527 0.42161 0.0
C380 C 0.99923 0.54506 0.41876 0.0
C381 C 0.0046 0.56101 0.43151 0.0
C382 C 0.99235 0.56675 0.44696 0.0
C383 C 0.9746 0.55635 0.44993 0.0
C384 C 0.96924 0.5409 0.43735 0.0
C385 C 0.95045 0.53077 0.44336 0.0
C386 C 0.94552 0.54257 0.46175 0.0
C387 C 0.95957 0.55768 0.46539 0.0
C388 C 0.93486 0.5333 0.4267 0.0
C389 C 0.95519 0.50905 0.44803 0.0
C390 C 0.96384 0.61275 0.51707 0.0
C391 C 0.9521 0.61765 0.53329 0.0
C392 C 0.93644 0.60478 0.53819 0.0
C393 C 0.93207 0.58785 0.52675 0.0
C394 C 0.9435 0.58357 0.51022 0.0
C395 C 0.95932 0.59571 0.50583 0.0
C396 C 0.97018 0.58848 0.48803 0.0
C397 C 0.95766 0.57057 0.48193 0.0
C398 C 0.94206 0.56778 0.49498 0.0
C399 C 0.96957 0.60467 0.47225 0.0
C400 C 0.99126 0.58276 0.4947 0.0
H401 H 0.91468 0.50695 0.44841 0.0
H402 H 0.87853 0.51949 0.51026 0.0
H403 H 0.92399 0.52412 0.52318 0.0
H404 H 0.92851 0.54847 0.53154 0.0
H405 H 0.90436 0.53748 0.53434 0.0
H406 H 0.88555 0.56169 0.49032 0.0
H407 H 0.88416 0.5596 0.51657 0.0
H408 H 0.90056 0.57718 0.50534 0.0
H409 H 0.97618 0.5232 0.412 0.0
H410 H 0.01856 0.56872 0.42996 0.0
H411 H 0.99735 0.57885 0.45622 0.0
H412 H 0.93687 0.5477 0.41934 0.0
H413 H 0.93597 0.52151 0.41523 0.0
H414 H 0.91963 0.53351 0.4322 0.0
H415 H 0.96988 0.50803 0.45544 0.0
H416 H 0.9448 0.50228 0.45836 0.0
H417 H 0.95547 0.49986 0.43434 0.0
H418 H 0.88688 0.48612 0.4563 0.0
C419 C 0.90725 0.51014 0.46189 0.0
C420 C 0.82493 0.77029 0.87555 0.0
C421 C 0.80994 0.77061 0.88966 0.0
C422 C 0.79734 0.78694 0.8903 0.0
C423 C 0.81363 0.80117 0.86224 0.0
C424 C 0.82658 0.78569 0.86217 0.0
C425 C 0.84162 0.78749 0.84624 0.0
H426 H 0.87287 0.83355 0.76467 0.0
C427 C 0.81858 0.81407 0.84563 0.0
C428 C 0.83514 0.80625 0.83635 0.0
H429 H 0.89954 0.7841 0.79367 0.0
H430 H 0.87504 0.78562 0.81903 0.0
H431 H 0.86653 0.85915 0.80471 0.0
H432 H 0.8295 0.82011 0.76932 0.0
H433 H 0.81438 0.83925 0.77725 0.0
H434 H 0.83524 0.84481 0.76206 0.0
H435 H 0.85665 0.86583 0.78111 0.0
H436 H 0.84319 0.86988 0.80348 0.0
C437 C 0.86229 0.78992 0.85614 0.0
C438 C 0.83933 0.76927 0.83227 0.0
C439 C 0.77308 0.86992 0.8272 0.0
C440 C 0.77259 0.88261 0.81104 0.0
C441 C 0.78808 0.88226 0.79751 0.0
C442 C 0.80359 0.86912 0.79972 0.0
C443 C 0.80352 0.85596 0.81549 0.0
C444 C 0.78856 0.85663 0.82904 0.0
C445 C 0.79057 0.84099 0.84438 0.0
C446 C 0.80914 0.83079 0.83773 0.0
C447 C 0.8166 0.83964 0.8208 0.0
C448 C 0.7935 0.85129 0.86479 0.0
C449 C 0.77216 0.8272 0.84268 0.0
C450 C 0.87378 0.82325 0.77665 0.0
C451 C 0.88827 0.80868 0.77706 0.0
C452 C 0.88843 0.79532 0.79278 0.0
C453 C 0.87424 0.7963 0.80758 0.0
C454 C 0.85969 0.81077 0.8067 0.0
C455 C 0.85985 0.8241 0.79156 0.0
C456 C 0.84346 0.83861 0.79298 0.0
C457 C 0.83346 0.8319 0.81156 0.0
C458 C 0.84284 0.81544 0.81942 0.0
C459 C 0.85278 0.85953 0.79557 0.0
C460 C 0.82992 0.83578 0.77445 0.0
H461 H 0.78891 0.81403 0.87783 0.0
H462 H 0.83486 0.75803 0.87446 0.0
H463 H 0.82348 0.76586 0.82916 0.0
H464 H 0.84598 0.77149 0.81775 0.0
H465 H 0.84594 0.75607 0.839 0.0
H466 H 0.8614 0.79738 0.87083 0.0
H467 H 0.86922 0.77541 0.85838 0.0
H468 H 0.87233 0.79944 0.84768 0.0
H469 H 0.76121 0.86972 0.83766 0.0
H470 H 0.78802 0.892 0.78503 0.0
H471 H 0.8148 0.86942 0.78878 0.0
H472 H 0.80172 0.86553 0.86349 0.0
H473 H 0.77912 0.85451 0.87162 0.0
H474 H 0.8025 0.84261 0.87509 0.0
H475 H 0.76804 0.8243 0.82694 0.0
H476 H 0.77451 0.81253 0.84893 0.0
H477 H 0.75932 0.83395 0.84994 0.0
H478 H 0.786 0.78795 0.90128 0.0
C479 C 0.7991 0.80217 0.8767 0.0
C480 C 0.32547 0.27778 0.3644 0.0
C481 C 0.31063 0.27741 0.37857 0.0
C482 C 0.29824 0.29373 0.38054 0.0
C483 C 0.31413 0.30935 0.35293 0.0
C484 C 0.32701 0.29384 0.35185 0.0
C485 C 0.34156 0.29613 0.33555 0.0
H486 H 0.36857 0.34201 0.25258 0.0
C487 C 0.31858 0.32277 0.33657 0.0
C488 C 0.3348 0.31521 0.3265 0.0
H489 H 0.39641 0.29264 0.28042 0.0
H490 H 0.37423 0.29529 0.30779 0.0
H491 H 0.36474 0.36825 0.29291 0.0
H492 H 0.325 0.32905 0.26068 0.0
H493 H 0.31111 0.34914 0.26863 0.0
H494 H 0.33132 0.35322 0.25222 0.0
H495 H 0.35308 0.37498 0.27014 0.0
H496 H 0.34139 0.37896 0.29354 0.0
C497 C 0.36252 0.29824 0.34489 0.0
C498 C 0.33877 0.27833 0.32111 0.0
C499 C 0.272 0.37846 0.32081 0.0
C500 C 0.27068 0.39133 0.30485 0.0
C501 C 0.28563 0.39138 0.29072 0.0
C502 C 0.30141 0.37843 0.29214 0.0
C503 C 0.3021 0.36502 0.30769 0.0
C504 C 0.2877 0.36536 0.32184 0.0
C505 C 0.29037 0.34945 0.33679 0.0
C506 C 0.30877 0.33956 0.32929 0.0
C507 C 0.3155 0.34872 0.3122 0.0
C508 C 0.29394 0.35938 0.35728 0.0
C509 C 0.27203 0.33553 0.33546 0.0
C510 C 0.3699 0.33181 0.26462 0.0
C511 C 0.38409 0.31697 0.26429 0.0
C512 C 0.38562 0.30422 0.28039 0.0
C513 C 0.37264 0.3057 0.29619 0.0
C514 C 0.35796 0.32007 0.29589 0.0
C515 C 0.35713 0.33315 0.28054 0.0
C516 C 0.34089 0.34775 0.2829 0.0
C517 C 0.33197 0.34115 0.30211 0.0
C518 C 0.34181 0.32473 0.30946 0.0
C519 C 0.35035 0.36865 0.28484 0.0
C520 C 0.3263 0.34487 0.2652 0.0
H521 H 0.28976 0.32152 0.36966 0.0
H522 H 0.33545 0.26558 0.36286 0.0
H523 H 0.32283 0.27516 0.31826 0.0
H524 H 0.34512 0.28085 0.30651 0.0
H525 H 0.34538 0.26487 0.3273 0.0
H526 H 0.36208 0.30456 0.36011 0.0
H527 H 0.36978 0.28373 0.34576 0.0
H528 H 0.37207 0.30858 0.33679 0.0
H529 H 0.26054 0.37793 0.33171 0.0
H530 H 0.28491 0.40127 0.27836 0.0
H531 H 0.31217 0.37902 0.28077 0.0
H532 H 0.30247 0.37343 0.35599 0.0
H533 H 0.27979 0.36285 0.36443 0.0
H534 H 0.3029 0.35031 0.36727 0.0
H535 H 0.26712 0.3332 0.31985 0.0
H536 H 0.27481 0.32064 0.34095 0.0
H537 H 0.25951 0.34185 0.34364 0.0
H538 H 0.28675 0.29376 0.39143 0.0
C539 C 0.29992 0.30972 0.36779 0.0
C540 C 0.48586 0.88576 0.51246 0.0
C541 C 0.47386 0.882 0.49563 0.0
C542 C 0.45909 0.8956 0.49084 0.0
C543 C 0.46844 0.9161 0.51913 0.0
C544 C 0.48293 0.90286 0.5239 0.0
C545 C 0.49463 0.90934 0.54199 0.0
H546 H 0.5092 0.97511 0.61724 0.0
C547 C 0.46946 0.9325 0.53373 0.0
C548 C 0.48483 0.92869 0.54714 0.0
H549 H 0.54145 0.92193 0.60505 0.0
H550 H 0.52165 0.91581 0.57574 0.0
H551 H 0.46597 0.9578 0.60554 0.0
H552 H 0.50951 0.99004 0.57313 0.0
H553 H 0.48647 0.99814 0.56481 0.0
H554 H 0.49373 0.00208 0.59033 0.0
H555 H 0.47267 0.98308 0.61081 0.0
H556 H 0.45401 0.97656 0.5926 0.0
C557 C 0.49146 0.89372 0.55805 0.0
C558 C 0.51639 0.91248 0.53606 0.0
C559 C 0.4218 0.98911 0.52806 0.0
C560 C 0.41991 0.0071 0.53848 0.0
C561 C 0.43254 0.01105 0.55487 0.0
C562 C 0.44684 0.9975 0.56058 0.0
C563 C 0.44873 0.97981 0.54975 0.0
C564 C 0.43635 0.97591 0.53376 0.0
C565 C 0.44103 0.95683 0.5234 0.0
C566 C 0.45824 0.94986 0.53586 0.0
C567 C 0.46257 0.96329 0.55136 0.0
C568 C 0.42284 0.94284 0.5248 0.0
C569 C 0.44719 0.96151 0.50205 0.0
C570 C 0.51221 0.96227 0.60815 0.0
C571 C 0.52685 0.94891 0.61367 0.0
C572 C 0.53004 0.93229 0.60142 0.0
C573 C 0.51857 0.92878 0.58432 0.0
C574 C 0.50373 0.94205 0.57928 0.0
C575 C 0.50094 0.9586 0.59098 0.0
C576 C 0.48475 0.97129 0.58313 0.0
C577 C 0.47801 0.9594 0.56503 0.0
C578 C 0.48913 0.94225 0.56288 0.0
C579 C 0.46846 0.97244 0.59879 0.0
C580 C 0.49391 0.99152 0.57765 0.0
H581 H 0.44485 0.92223 0.49793 0.0
H582 H 0.49727 0.87564 0.5167 0.0
H583 H 0.51736 0.91804 0.52077 0.0
H584 H 0.52423 0.92376 0.54528 0.0
H585 H 0.52459 0.89847 0.53664 0.0
H586 H 0.47593 0.88819 0.55779 0.0
H587 H 0.5011 0.88086 0.55567 0.0
H588 H 0.494 0.89962 0.57315 0.0
H589 H 0.41225 0.98533 0.51558 0.0
H590 H 0.43172 0.02484 0.56304 0.0
H591 H 0.45605 0.00145 0.57308 0.0
H592 H 0.41604 0.94421 0.53956 0.0
H593 H 0.41143 0.94644 0.51358 0.0
H594 H 0.42653 0.92713 0.52319 0.0
H595 H 0.45432 0.97636 0.50129 0.0
H596 H 0.45836 0.95133 0.49633 0.0
H597 H 0.43423 0.9613 0.49183 0.0
H598 H 0.44989 0.89344 0.47776 0.0
C599 C 0.45628 0.91251 0.50249 0.0
C600 C 0.17144 0.26383 0.75743 0.0
C601 C 0.16016 0.24621 0.75723 0.0
C602 C 0.16422 0.23158 0.74288 0.0
C603 C 0.1902 0.25222 0.72951 0.0
C604 C 0.18633 0.26643 0.74365 0.0
C605 C 0.19972 0.28421 0.74229 0.0
H606 H 0.27566 0.33113 0.69853 0.0
C607 C 0.20662 0.25968 0.71741 0.0
C608 C 0.21231 0.27837 0.72496 0.0
H609 H 0.24139 0.35105 0.74797 0.0
H610 H 0.22163 0.32132 0.74601 0.0
H611 H 0.23781 0.31385 0.67274 0.0
H612 H 0.27969 0.28721 0.71191 0.0
H613 H 0.27514 0.27026 0.69248 0.0
H614 H 0.2859 0.29409 0.68734 0.0
H615 H 0.26306 0.31022 0.66638 0.0
H616 H 0.24448 0.29129 0.66192 0.0
C617 C 0.18689 0.30229 0.73768 0.0
C618 C 0.21198 0.28609 0.76175 0.0
C619 C 0.23096 0.2191 0.65913 0.0
C620 C 0.24625 0.22214 0.6457 0.0
C621 C 0.25797 0.23945 0.64747 0.0
C622 C 0.25449 0.25356 0.66223 0.0
C623 C 0.23915 0.25037 0.67551 0.0
C624 C 0.22778 0.2333 0.67395 0.0
C625 C 0.21255 0.23221 0.68981 0.0
C626 C 0.21643 0.2516 0.70085 0.0
C627 C 0.23198 0.2622 0.69232 0.0
C628 C 0.19191 0.23147 0.67976 0.0
C629 C 0.21705 0.21421 0.70278 0.0
C630 C 0.26379 0.32914 0.70882 0.0
C631 C 0.26025 0.34343 0.72355 0.0
C632 C 0.24471 0.34015 0.73672 0.0
C633 C 0.23315 0.32288 0.73551 0.0
C634 C 0.23707 0.30859 0.72095 0.0
C635 C 0.25208 0.31188 0.70783 0.0
C636 C 0.25403 0.295 0.69335 0.0
C637 C 0.23782 0.28104 0.70006 0.0
C638 C 0.22796 0.28909 0.71623 0.0
C639 C 0.24979 0.30286 0.67243 0.0
C640 C 0.27477 0.28616 0.69619 0.0
H641 H 0.18146 0.22283 0.71851 0.0
H642 H 0.1686 0.2756 0.76791 0.0
H643 H 0.21536 0.27131 0.76766 0.0
H644 H 0.22653 0.29326 0.75982 0.0
H645 H 0.20384 0.29429 0.77324 0.0
H646 H 0.17419 0.29801 0.72784 0.0
H647 H 0.18087 0.30885 0.75137 0.0
H648 H 0.1949 0.31384 0.72962 0.0
H649 H 0.22188 0.20582 0.65829 0.0
H650 H 0.26971 0.2422 0.6372 0.0
H651 H 0.26389 0.26643 0.6627 0.0
H652 H 0.19127 0.24194 0.66733 0.0
H653 H 0.18839 0.21648 0.67371 0.0
H654 H 0.18005 0.23593 0.68972 0.0
H655 H 0.23319 0.21171 0.70386 0.0
H656 H 0.21241 0.21628 0.71819 0.0
H657 H 0.20999 0.20055 0.69652 0.0
H658 H 0.15599 0.21777 0.74242 0.0
C659 C 0.17913 0.2345 0.72904 0.0
C660 C 0.73528 0.15182 0.74495 0.0
C661 C 0.71718 0.14746 0.73529 0.0
C662 C 0.71109 0.15949 0.71964 0.0
C663 C 0.74077 0.17971 0.72363 0.0
C664 C 0.74673 0.16794 0.73896 0.0
C665 C 0.7662 0.17463 0.74786 0.0
H666 H 0.84351 0.23903 0.74937 0.0
C667 C 0.75599 0.19532 0.72122 0.0
C668 C 0.77089 0.19245 0.73545 0.0
H669 H 0.83412 0.18886 0.78674 0.0
H670 H 0.8033 0.18135 0.76981 0.0
H671 H 0.79939 0.25454 0.75068 0.0
H672 H 0.82897 0.21723 0.7091 0.0
H673 H 0.81456 0.23363 0.69555 0.0
H674 H 0.83407 0.24321 0.71151 0.0
H675 H 0.8169 0.26412 0.73363 0.0
H676 H 0.79112 0.2611 0.72708 0.0
C677 C 0.76291 0.18044 0.76973 0.0
C678 C 0.78119 0.15794 0.74473 0.0
C679 C 0.7487 0.24532 0.66661 0.0
C680 C 0.76042 0.26147 0.66084 0.0
C681 C 0.77759 0.26642 0.67197 0.0
C682 C 0.78323 0.25527 0.68825 0.0
C683 C 0.77162 0.23893 0.69356 0.0
C684 C 0.75452 0.23436 0.68299 0.0
C685 C 0.74383 0.21671 0.69106 0.0
C686 C 0.75756 0.2112 0.70792 0.0
C687 C 0.77386 0.22422 0.70924 0.0
C688 C 0.72353 0.22348 0.6985 0.0
C689 C 0.74269 0.20048 0.67474 0.0
C690 C 0.83473 0.22653 0.75404 0.0
C691 C 0.8413 0.21455 0.76948 0.0
C692 C 0.82954 0.19821 0.77479 0.0
C693 C 0.81157 0.19394 0.765 0.0
C694 C 0.80522 0.20608 0.74964 0.0
C695 C 0.81677 0.22203 0.74438 0.0
C696 C 0.80783 0.23316 0.72756 0.0
C697 C 0.78894 0.22132 0.72364 0.0
C698 C 0.78749 0.20549 0.73663 0.0
C699 C 0.80366 0.25441 0.73492 0.0
C700 C 0.82204 0.23196 0.70996 0.0
H701 H 0.71727 0.18412 0.70181 0.0
H702 H 0.74059 0.14277 0.75684 0.0
H703 H 0.77832 0.15002 0.73045 0.0
H704 H 0.79655 0.16344 0.74384 0.0
H705 H 0.78024 0.14692 0.75661 0.0
H706 H 0.74844 0.18766 0.77152 0.0
H707 H 0.76302 0.16727 0.77922 0.0
H708 H 0.77388 0.19134 0.77555 0.0
H709 H 0.7353 0.24127 0.65853 0.0
H710 H 0.787 0.27863 0.66774 0.0
H711 H 0.79658 0.25968 0.69591 0.0
H712 H 0.7244 0.23891 0.70433 0.0
H713 H 0.71226 0.22292 0.68644 0.0
H714 H 0.71819 0.21474 0.71098 0.0
H715 H 0.75672 0.19995 0.66651 0.0
H716 H 0.74061 0.18553 0.68058 0.0
H717 H 0.73063 0.20335 0.66395 0.0
H718 H 0.69712 0.15668 0.71208 0.0
C719 C 0.72277 0.17554 0.71377 0.0
C720 C 0.5309 0.5803 0.48005 0.0
C721 C 0.51534 0.59375 0.48047 0.0
C722 C 0.5011 0.592 0.49527 0.0
C723 C 0.51774 0.56367 0.50857 0.0
C724 C 0.53174 0.5654 0.49412 0.0
C725 C 0.54693 0.54953 0.4954 0.0
H726 H 0.58133 0.46819 0.54033 0.0
C727 C 0.52265 0.54643 0.52068 0.0
C728 C 0.53973 0.53803 0.51298 0.0
H729 H 0.60522 0.4978 0.48985 0.0
H730 H 0.5796 0.5219 0.4916 0.0
H731 H 0.57211 0.50756 0.56527 0.0
H732 H 0.53618 0.47058 0.52648 0.0
H733 H 0.52151 0.4773 0.54647 0.0
H734 H 0.54338 0.46315 0.55076 0.0
H735 H 0.56362 0.48345 0.57202 0.0
H736 H 0.54893 0.50498 0.57613 0.0
C737 C 0.56727 0.55957 0.49959 0.0
C738 C 0.54573 0.53703 0.47607 0.0
C739 C 0.47962 0.52814 0.57861 0.0
C740 C 0.48035 0.51287 0.59241 0.0
C741 C 0.49557 0.49902 0.591 0.0
C742 C 0.50979 0.50039 0.57631 0.0
C743 C 0.50888 0.51575 0.56272 0.0
C744 C 0.49394 0.52927 0.56397 0.0
C745 C 0.49521 0.54449 0.54813 0.0
C746 C 0.51344 0.53794 0.53727 0.0
C747 C 0.52139 0.52111 0.5459 0.0
C748 C 0.49835 0.56497 0.55824 0.0
C749 C 0.47636 0.54256 0.53499 0.0
C750 C 0.58097 0.47976 0.52953 0.0
C751 C 0.59541 0.48102 0.51493 0.0
C752 C 0.59449 0.49657 0.50141 0.0
C753 C 0.57949 0.51051 0.50237 0.0
C754 C 0.56515 0.50899 0.51699 0.0
C755 C 0.56608 0.49381 0.53028 0.0
C756 C 0.54964 0.49453 0.54486 0.0
C757 C 0.53863 0.51256 0.53808 0.0
C758 C 0.54777 0.52098 0.52174 0.0
C759 C 0.5589 0.49766 0.56574 0.0
C760 C 0.537 0.47539 0.54223 0.0
H761 H 0.49094 0.57663 0.52016 0.0
H762 H 0.54195 0.58107 0.46875 0.0
H763 H 0.53023 0.53555 0.47056 0.0
H764 H 0.55059 0.52174 0.47802 0.0
H765 H 0.55451 0.54396 0.4643 0.0
H766 H 0.56585 0.57245 0.50981 0.0
H767 H 0.5739 0.56497 0.4858 0.0
H768 H 0.57779 0.54981 0.50704 0.0
H769 H 0.46829 0.53916 0.5793 0.0
H770 H 0.49638 0.48691 0.60114 0.0
H771 H 0.52092 0.48937 0.57609 0.0
H772 H 0.50838 0.56395 0.5713 0.0
H773 H 0.48417 0.57097 0.56338 0.0
H774 H 0.5055 0.57583 0.54864 0.0
H775 H 0.47113 0.52695 0.53376 0.0
H776 H 0.4788 0.54699 0.51963 0.0
H777 H 0.46419 0.55132 0.5412 0.0
H778 H 0.4891 0.60229 0.4961 0.0
C779 C 0.50224 0.57712 0.5093 0.0
C780 C 0.55154 0.40791 0.98694 0.0
C781 C 0.537 0.39304 0.98422 0.0
C782 C 0.52392 0.39403 0.96789 0.0
C783 C 0.53941 0.42457 0.95786 0.0
C784 C 0.55246 0.42348 0.97364 0.0
C785 C 0.56676 0.44069 0.97454 0.0
H786 H 0.59752 0.52784 0.93773 0.0
C787 C 0.54376 0.44296 0.94731 0.0
C788 C 0.55977 0.45249 0.957 0.0
H789 H 0.62381 0.49498 0.98524 0.0
H790 H 0.59839 0.47001 0.9815 0.0
H791 H 0.55193 0.51991 0.94907 0.0
H792 H 0.59114 0.49066 0.90933 0.0
H793 H 0.56805 0.49173 0.89739 0.0
H794 H 0.58099 0.51431 0.90424 0.0
H795 H 0.55929 0.5305 0.92623 0.0
H796 H 0.53835 0.51386 0.92748 0.0
C797 C 0.56388 0.45195 0.99429 0.0
C798 C 0.58781 0.43274 0.97166 0.0
C799 C 0.5009 0.46168 0.88871 0.0
C800 C 0.50017 0.47851 0.8769 0.0
C801 C 0.5144 0.49368 0.88018 0.0
C802 C 0.52881 0.49225 0.89512 0.0
C803 C 0.52903 0.47552 0.90704 0.0
C804 C 0.51525 0.46057 0.90368 0.0
C805 C 0.51723 0.44421 0.9182 0.0
C806 C 0.53456 0.45174 0.93078 0.0
C807 C 0.54144 0.47004 0.92414 0.0
C808 C 0.49794 0.44294 0.9301 0.0
C809 C 0.52223 0.4251 0.90665 0.0
C810 C 0.5979 0.51527 0.94732 0.0
C811 C 0.61279 0.51355 0.96186 0.0
C812 C 0.6124 0.49698 0.97415 0.0
C813 C 0.59772 0.48231 0.97181 0.0
C814 C 0.58326 0.48407 0.95693 0.0
C815 C 0.58351 0.50034 0.94499 0.0
C816 C 0.56747 0.49936 0.92944 0.0
C817 C 0.55765 0.47972 0.93391 0.0
C818 C 0.56684 0.47092 0.95016 0.0
C819 C 0.55351 0.51684 0.93302 0.0
C820 C 0.57725 0.49913 0.90896 0.0
H821 H 0.51458 0.40958 0.94274 0.0
H822 H 0.56196 0.4075 0.99918 0.0
H823 H 0.58755 0.41915 0.96224 0.0
H824 H 0.5975 0.44317 0.96385 0.0
H825 H 0.59483 0.42903 0.98599 0.0
H826 H 0.54793 0.45301 0.99764 0.0
H827 H 0.57115 0.44427 0.00669 0.0
H828 H 0.56943 0.46732 0.99411 0.0
H829 H 0.49038 0.44962 0.88653 0.0
H830 H 0.51408 0.50695 0.87156 0.0
H831 H 0.53903 0.5044 0.897 0.0
H832 H 0.49125 0.4577 0.93187 0.0
H833 H 0.48684 0.43309 0.92257 0.0
H834 H 0.50034 0.43791 0.94533 0.0
H835 H 0.53236 0.42837 0.89437 0.0
H836 H 0.53007 0.41431 0.91575 0.0
H837 H 0.50871 0.41796 0.90016 0.0
H838 H 0.51237 0.38299 0.96556 0.0
C839 C 0.52509 0.40963 0.95472 0.0
C840 C 0.76132 0.17549 0.26803 0.0
C841 C 0.76038 0.16229 0.25178 0.0
C842 C 0.74656 0.16569 0.2365 0.0
C843 C 0.73441 0.19426 0.25425 0.0
C844 C 0.74822 0.19118 0.26901 0.0
C845 C 0.74663 0.20576 0.28583 0.0
H846 H 0.70268 0.28539 0.32617 0.0
C847 C 0.7226 0.21147 0.26015 0.0
C848 C 0.72976 0.21829 0.27863 0.0
H849 H 0.74834 0.24989 0.35177 0.0
H850 H 0.74831 0.22905 0.32252 0.0
H851 H 0.67695 0.24875 0.31062 0.0
H852 H 0.71902 0.28585 0.28155 0.0
H853 H 0.69922 0.28152 0.26493 0.0
H854 H 0.69497 0.29408 0.28809 0.0
H855 H 0.67137 0.27336 0.30337 0.0
H856 H 0.66754 0.25252 0.28681 0.0
C857 C 0.74128 0.19429 0.30466 0.0
C858 C 0.76622 0.21773 0.28749 0.0
C859 C 0.66508 0.23305 0.21699 0.0
C860 C 0.65142 0.24834 0.21888 0.0
C861 C 0.65368 0.26187 0.23481 0.0
C862 C 0.66876 0.25987 0.24892 0.0
C863 C 0.68183 0.24415 0.2472 0.0
C864 C 0.68012 0.23127 0.23125 0.0
C865 C 0.69563 0.21567 0.23173 0.0
C866 C 0.70654 0.22103 0.25086 0.0
C867 C 0.6983 0.23766 0.2599 0.0
C868 C 0.68513 0.19527 0.2327 0.0
C869 C 0.70886 0.2183 0.21355 0.0
C870 C 0.71272 0.27318 0.32533 0.0
C871 C 0.72559 0.26924 0.34115 0.0
C872 C 0.73825 0.25308 0.33974 0.0
C873 C 0.73823 0.24105 0.32274 0.0
C874 C 0.7252 0.24503 0.30705 0.0
C875 C 0.7126 0.26077 0.30859 0.0
C876 C 0.69896 0.26203 0.29098 0.0
C877 C 0.70563 0.24465 0.27851 0.0
C878 C 0.72113 0.23488 0.28791 0.0
C879 C 0.67754 0.25917 0.29816 0.0
C880 C 0.70304 0.28193 0.28082 0.0
H881 H 0.72328 0.18318 0.22566 0.0
H882 H 0.77187 0.17355 0.27995 0.0
H883 H 0.77145 0.22178 0.27262 0.0
H884 H 0.76482 0.23182 0.29565 0.0
H885 H 0.77793 0.209 0.2947 0.0
H886 H 0.73294 0.18042 0.30094 0.0
H887 H 0.75471 0.19023 0.31312 0.0
H888 H 0.7314 0.20259 0.31444 0.0
H889 H 0.6638 0.22236 0.20499 0.0
H890 H 0.64372 0.27408 0.2364 0.0
H891 H 0.66952 0.27057 0.26073 0.0
H892 H 0.6722 0.19597 0.24254 0.0
H893 H 0.67972 0.19026 0.21788 0.0
H894 H 0.69455 0.18379 0.23896 0.0
H895 H 0.71053 0.23414 0.20984 0.0
H896 H 0.72407 0.21328 0.21611 0.0
H897 H 0.70244 0.21045 0.20039 0.0
H898 H 0.74526 0.15569 0.22392 0.0
C899 C 0.73364 0.1816 0.23762 0.0
C900 C 0.37577 0.01242 0.97344 0.0
C901 C 0.37101 0.99778 0.95909 0.0
C902 C 0.38223 0.99693 0.94177 0.0
C903 C 0.40396 0.02299 0.95449 0.0
C904 C 0.39217 0.02487 0.97079 0.0
C905 C 0.39953 0.04096 0.98474 0.0
H906 H 0.47006 0.10893 0.0102 0.0
C907 C 0.42092 0.03677 0.95708 0.0
C908 C 0.41831 0.04751 0.97467 0.0
H909 H 0.41394 0.09866 0.03767 0.0
H910 H 0.40631 0.07233 0.01421 0.0
H911 H 0.45349 0.10639 0.9661 0.0
H912 H 0.48032 0.06285 0.00279 0.0
H913 H 0.48887 0.0588 0.97883 0.0
H914 H 0.49454 0.08192 0.99142 0.0
H915 H 0.47913 0.10724 0.9731 0.0
H916 H 0.47042 0.09338 0.95172 0.0
C917 C 0.38399 0.05745 0.98523 0.0
C918 C 0.40392 0.03173 0.00502 0.0
C919 C 0.4782 0.03266 0.91011 0.0
C920 C 0.49724 0.04123 0.91031 0.0
C921 C 0.50214 0.05558 0.92496 0.0
C922 C 0.48855 0.06085 0.9394 0.0
C923 C 0.46986 0.05159 0.93936 0.0
C924 C 0.46494 0.03781 0.92481 0.0
C925 C 0.44486 0.02869 0.92761 0.0
C926 C 0.4385 0.03928 0.94626 0.0
C927 C 0.45315 0.05274 0.95302 0.0
C928 C 0.43164 0.03379 0.90964 0.0
C929 C 0.44751 0.0063 0.93073 0.0
C930 C 0.45628 0.10077 0.0113 0.0
C931 C 0.44259 0.10575 0.02579 0.0
C932 C 0.42464 0.09508 0.02656 0.0
C933 C 0.42022 0.07987 0.0129 0.0
C934 C 0.43382 0.07537 0.99818 0.0
C935 C 0.45151 0.08573 0.99756 0.0
C936 C 0.46378 0.07943 0.98038 0.0
C937 C 0.4503 0.06399 0.97053 0.0
C938 C 0.43291 0.06149 0.98119 0.0
C939 C 0.46708 0.09749 0.96709 0.0
C940 C 0.48298 0.07038 0.98862 0.0
H941 H 0.40679 0.0077 0.92612 0.0
H942 H 0.36747 0.01365 0.98688 0.0
H943 H 0.41189 0.01765 0.00313 0.0
H944 H 0.41347 0.04117 0.01467 0.0
H945 H 0.39006 0.02847 0.0129 0.0
H946 H 0.37468 0.0573 0.97157 0.0
H947 H 0.37397 0.05574 0.99788 0.0
H948 H 0.39082 0.07239 0.98587 0.0
H949 H 0.47373 0.02183 0.89894 0.0
H950 H 0.51672 0.06231 0.9257 0.0
H951 H 0.49328 0.07165 0.95028 0.0
H952 H 0.43578 0.04844 0.90369 0.0
H953 H 0.43305 0.02271 0.89753 0.0
H954 H 0.41594 0.03507 0.91346 0.0
H955 H 0.4608 0.0036 0.94005 0.0
H956 H 0.43524 0.99929 0.93858 0.0
H957 H 0.44939 0.99839 0.91644 0.0
H958 H 0.37857 0.9863 0.93015 0.0
C959 C 0.39863 0.00941 0.93942 0.0
Zn960 Zn 0.27324 0.8452 0.00372 0.0
Zn961 Zn 0.24028 0.86494 0.00413 0.0
O962 O 0.24167 0.852 0.03202 0.0
O963 O 0.27072 0.83798 0.03184 0.0
O964 O 0.21574 0.88179 0.00453 0.0
O965 O 0.28928 0.869 0.99729 0.0
O966 O 0.2621 0.8861 0.99863 0.0
C967 C 0.25513 0.84232 0.04073 0.0
C968 C 0.24574 0.83109 0.97405 0.0
O969 O 0.23542 0.84526 0.98058 0.0
O970 O 0.26228 0.8276 0.98202 0.0
C971 C 0.20161 0.87996 0.0165 0.0
O972 O 0.20211 0.86585 0.02949 0.0
C973 C 0.28067 0.88533 0.99614 0.0
Zn974 Zn 0.09861 0.45889 0.28742 0.0
Zn975 Zn 0.11501 0.49368 0.27784 0.0
O976 O 0.09735 0.50117 0.30113 0.0
O977 O 0.0864 0.47226 0.31096 0.0
O978 O 0.12882 0.51925 0.27127 0.0
O979 O 0.12539 0.4468 0.28993 0.0
O980 O 0.13859 0.47604 0.28457 0.0
C981 C 0.08747 0.49083 0.3131 0.0
C982 C 0.08799 0.47111 0.24822 0.0
O983 O 0.09976 0.48549 0.25239 0.0
O984 O 0.08452 0.45812 0.26094 0.0
C985 C 0.12225 0.53199 0.25943 0.0
O986 O 0.10503 0.52891 0.25069 0.0
C987 C 0.14048 0.45786 0.28848 0.0
Zn988 Zn 0.77861 0.60197 0.95963 0.0
Zn989 Zn 0.76971 0.6187 0.9946 0.0
O990 O 0.79204 0.59951 0.00185 0.0
O991 O 0.79838 0.58506 0.97341 0.0
O992 O 0.76285 0.63285 0.0201 0.0
O993 O 0.78688 0.62837 0.94907 0.0
O994 O 0.77786 0.64199 0.9771 0.0
C995 C 0.80156 0.58692 0.99179 0.0
C996 C 0.73842 0.59467 0.97077 0.0
O997 O 0.74372 0.60448 0.98621 0.0
O998 O 0.75049 0.59204 0.95697 0.0
C999 C 0.76937 0.62864 0.03718 0.0
O1000 O 0.78127 0.61372 0.03917 0.0
C1001 C 0.78459 0.6436 0.95977 0.0
Zn1002 Zn 0.84934 0.00329 0.28 0.0
Zn1003 Zn 0.86753 0.00485 0.24614 0.0
O1004 O 0.8498 0.0299 0.24598 0.0
O1005 O 0.83372 0.02701 0.27372 0.0
O1006 O 0.88313 0.00579 0.22076 0.0
O1007 O 0.87462 0.006 0.2955 0.0
O1008 O 0.8901 0.00507 0.2673 0.0
C1009 C 0.83692 0.03617 0.25799 0.0
C1010 C 0.84108 0.96899 0.25613 0.0
O1011 O 0.8519 0.97807 0.24387 0.0
O1012 O 0.83811 0.97662 0.27294 0.0
C1013 C 0.88527 0.02097 0.21018 0.0
O1014 O 0.87638 0.03729 0.21519 0.0
C1015 C 0.89055 0.00589 0.2861 0.0
Zn1016 Zn 0.29155 0.10816 0.45329 0.0
Zn1017 Zn 0.28073 0.12536 0.48744 0.0
O1018 O 0.30495 0.10883 0.4954 0.0
O1019 O 0.31468 0.09616 0.46714 0.0
O1020 O 0.27262 0.1392 0.51269 0.0
O1021 O 0.29521 0.1347 0.44118 0.0
O1022 O 0.28653 0.14882 0.4691 0.0
C1023 C 0.31694 0.09843 0.48559 0.0
C1024 C 0.25241 0.09672 0.4651 0.0
O1025 O 0.25623 0.10858 0.47948 0.0
O1026 O 0.26514 0.09384 0.45197 0.0
C1027 C 0.27729 0.13353 0.52989 0.0
O1028 O 0.28784 0.11762 0.53189 0.0
C1029 C 0.29217 0.15014 0.45133 0.0
Zn1030 Zn 0.34502 0.50429 0.77384 0.0
Zn1031 Zn 0.3664 0.50365 0.7416 0.0
O1032 O 0.352 0.53055 0.74048 0.0
O1033 O 0.33624 0.53165 0.76858 0.0
O1034 O 0.38443 0.50472 0.71809 0.0
O1035 O 0.3686 0.50057 0.7913 0.0
O1036 O 0.38665 0.50068 0.76469 0.0
C1037 C 0.34105 0.53963 0.75263 0.0
C1038 C 0.3341 0.47218 0.74716 0.0
O1039 O 0.34826 0.47893 0.73696 0.0
O1040 O 0.32964 0.48076 0.76316 0.0
C1041 C 0.37951 0.50046 0.70034 0.0
O1042 O 0.36134 0.49455 0.69627 0.0
C1043 C 0.38529 0.49961 0.78338 0.0
Zn1044 Zn 0.77808 0.348 0.50053 0.0
Zn1045 Zn 0.74518 0.36804 0.50522 0.0
O1046 O 0.74558 0.3499 0.52962 0.0
O1047 O 0.77102 0.33115 0.52358 0.0
O1048 O 0.72127 0.38517 0.50903 0.0
O1049 O 0.79496 0.37237 0.50469 0.0
O1050 O 0.76756 0.38921 0.50464 0.0
C1051 C 0.75657 0.33556 0.53427 0.0
C1052 C 0.75158 0.34368 0.46734 0.0
O1053 O 0.74009 0.35336 0.47844 0.0
O1054 O 0.76903 0.34026 0.47301 0.0
C1055 C 0.70386 0.38086 0.50296 0.0
O1056 O 0.70046 0.36387 0.49384 0.0
C1057 C 0.78634 0.38875 0.50509 0.0
Zn1058 Zn 0.60363 0.95489 0.78638 0.0
Zn1059 Zn 0.62091 0.98927 0.77682 0.0
O1060 O 0.60285 0.99714 0.79979 0.0
O1061 O 0.59131 0.96848 0.80962 0.0
O1062 O 0.63491 0.01452 0.76894 0.0
O1063 O 0.63012 0.94243 0.78932 0.0
O1064 O 0.64415 0.97137 0.7843 0.0
C1065 C 0.5926 0.98704 0.81166 0.0
C1066 C 0.5936 0.96672 0.74718 0.0
O1067 O 0.60572 0.9808 0.75137 0.0
O1068 O 0.58962 0.95393 0.75996 0.0
C1069 C 0.63564 0.03036 0.77925 0.0
O1070 O 0.62665 0.03099 0.79623 0.0
C1071 C 0.6455 0.95313 0.78827 0.0
Zn1072 Zn 0.00442 0.27731 0.84505 0.0
Zn1073 Zn 0.00513 0.24452 0.86654 0.0
O1074 O 0.03132 0.2437 0.85079 0.0
O1075 O 0.03107 0.27146 0.83441 0.0
O1076 O 0.00583 0.22058 0.88428 0.0
O1077 O 0.00266 0.29439 0.86932 0.0
O1078 O 0.00288 0.26752 0.88704 0.0
C1079 C 0.03951 0.25567 0.83901 0.0
C1080 C 0.97187 0.25048 0.83598 0.0
O1081 O 0.97987 0.24014 0.84935 0.0
O1082 O 0.97967 0.26681 0.83131 0.0
C1083 C 0.01716 0.20596 0.88212 0.0
O1084 O 0.02923 0.20558 0.8672 0.0
C1085 C 0.00214 0.28625 0.88594 0.0
Zn1086 Zn 0.49218 0.77387 0.34521 0.0
Zn1087 Zn 0.50024 0.74243 0.36676 0.0
O1088 O 0.52474 0.74472 0.34886 0.0
O1089 O 0.51738 0.77008 0.33051 0.0
O1090 O 0.50595 0.71902 0.38425 0.0
O1091 O 0.49135 0.79118 0.36931 0.0
O1092 O 0.4974 0.76528 0.3874 0.0
C1093 C 0.52908 0.75648 0.33504 0.0
C1094 C 0.4625 0.74398 0.34048 0.0
O1095 O 0.47401 0.73459 0.3519 0.0
O1096 O 0.46684 0.76138 0.33552 0.0
C1097 C 0.49997 0.7015 0.38024 0.0
O1098 O 0.49004 0.69797 0.36373 0.0
C1099 C 0.4938 0.78362 0.38606 0.0
Zn1100 Zn 0.95891 0.79187 0.60767 0.0
Zn1101 Zn 0.99418 0.7825 0.62322 0.0
O1102 O 0.00093 0.80501 0.60416 0.0
O1103 O 0.97182 0.81402 0.59303 0.0
O1104 O 0.02007 0.77737 0.63697 0.0
O1105 O 0.94799 0.79731 0.63458 0.0
O1106 O 0.97683 0.78924 0.64702 0.0
C1107 C 0.99038 0.81622 0.5936 0.0
C1108 C 0.97116 0.75179 0.59856 0.0
O1109 O 0.98628 0.75651 0.60911 0.0
O1110 O 0.95772 0.76422 0.59569 0.0
C1111 C 0.03343 0.76595 0.63095 0.0
O1112 O 0.03089 0.75632 0.61412 0.0
C1113 C 0.95918 0.79481 0.64939 0.0
Zn1114 Zn 0.4578 0.27474 0.10029 0.0
Zn1115 Zn 0.49229 0.2673 0.1176 0.0
O1116 O 0.49999 0.28745 0.09643 0.0
O1117 O 0.472 0.29074 0.08005 0.0
O1118 O 0.51766 0.26162 0.13235 0.0
O1119 O 0.44793 0.28781 0.1249 0.0
O1120 O 0.47487 0.27799 0.14003 0.0
C1121 C 0.49024 0.29466 0.08212 0.0
C1122 C 0.46727 0.23383 0.09857 0.0
O1123 O 0.48361 0.24014 0.106 0.0
O1124 O 0.45325 0.24556 0.09574 0.0
C1125 C 0.53495 0.26473 0.12602 0.0
O1126 O 0.5372 0.27199 0.10836 0.0
C1127 C 0.45812 0.28619 0.14055 0.0
H1128 H 0.19506 0.77001 0.86839 0.0
H1129 H 0.25849 0.77131 0.864 0.0
H1130 H 0.19782 0.78784 0.90009 0.0
H1131 H 0.26119 0.78875 0.89551 0.0
H1132 H 0.26153 0.79691 0.96092 0.0
H1133 H 0.25484 0.77947 0.92999 0.0
H1134 H 0.20939 0.82083 0.91566 0.0
H1135 H 0.21601 0.83846 0.94706 0.0
C1136 C 0.20955 0.77423 0.87407 0.0
C1137 C 0.22658 0.76895 0.8638 0.0
C1138 C 0.21111 0.78441 0.89222 0.0
C1139 C 0.22972 0.7894 0.90043 0.0
C1140 C 0.24665 0.78468 0.88981 0.0
C1141 C 0.2451 0.77464 0.87175 0.0
C1142 C 0.24997 0.80228 0.95132 0.0
C1143 C 0.23949 0.81927 0.95637 0.0
C1144 C 0.24621 0.79229 0.93352 0.0
C1145 C 0.23187 0.799 0.92021 0.0
C1146 C 0.22056 0.81535 0.92564 0.0
C1147 C 0.22436 0.82543 0.94359 0.0
H1148 H 0.00504 0.50704 0.40626 0.0
H1149 H 0.02466 0.56692 0.39612 0.0
H1150 H 0.02659 0.4953 0.38087 0.0
H1151 H 0.04775 0.55487 0.37181 0.0
H1152 H 0.07171 0.52769 0.31433 0.0
H1153 H 0.05083 0.54152 0.33988 0.0
H1154 H 0.05921 0.48929 0.37452 0.0
H1155 H 0.07891 0.47517 0.34849 0.0
C1156 C 0.01392 0.51778 0.39862 0.0
C1157 C 0.01287 0.53801 0.40324 0.0
C1158 C 0.02669 0.51095 0.38425 0.0
C1159 C 0.0392 0.52406 0.37435 0.0
C1160 C 0.03825 0.54431 0.37897 0.0
C1161 C 0.02517 0.55121 0.39316 0.0
C1162 C 0.06912 0.51929 0.3275 0.0
C1163 C 0.0767 0.50028 0.32935 0.0
C1164 C 0.05723 0.52723 0.34221 0.0
C1165 C 0.053 0.51644 0.35923 0.0
C1166 C 0.06152 0.49782 0.36139 0.0
C1167 C 0.07299 0.48975 0.34654 0.0
H1168 H 0.83801 0.74729 0.90677 0.0
H1169 H 0.77496 0.7551 0.90269 0.0
H1170 H 0.83269 0.71738 0.92554 0.0
H1171 H 0.76988 0.72572 0.92221 0.0
H1172 H 0.77114 0.67958 0.97191 0.0
H1173 H 0.77796 0.71168 0.95716 0.0
H1174 H 0.81612 0.68385 0.91517 0.0
H1175 H 0.80914 0.65186 0.92959 0.0
C1176 C 0.82304 0.74276 0.90991 0.0
C1177 C 0.80692 0.7536 0.90297 0.0
C1178 C 0.82004 0.72569 0.92078 0.0
C1179 C 0.80089 0.71927 0.92527 0.0
C1180 C 0.78481 0.73049 0.91913 0.0
C1181 C 0.78777 0.74739 0.90799 0.0
C1182 C 0.7811 0.68037 0.95963 0.0
C1183 C 0.78954 0.66321 0.95184 0.0
C1184 C 0.78493 0.69869 0.95118 0.0
C1185 C 0.79759 0.70019 0.93508 0.0
C1186 C 0.80645 0.68312 0.92768 0.0
C1187 C 0.80234 0.66481 0.93587 0.0
H1188 H 0.01147 0.99951 0.3349 0.0
H1189 H 0.97115 0.98066 0.37973 0.0
H1190 H 0.98348 0.00631 0.31298 0.0
H1191 H 0.94353 0.98642 0.35767 0.0
H1192 H 0.89687 0.01711 0.32431 0.0
H1193 H 0.9266 0.01369 0.34421 0.0
H1194 H 0.95674 0.99021 0.29362 0.0
H1195 H 0.92689 0.99427 0.2734 0.0
C1196 C 0.99668 0.99676 0.34006 0.0
C1197 C 0.9936 0.98949 0.35909 0.0
C1198 C 0.98066 0.00047 0.32743 0.0
C1199 C 0.96124 0.99707 0.3336 0.0
C1200 C 0.95825 0.98958 0.35253 0.0
C1201 C 0.97416 0.98595 0.3651 0.0
C1202 C 0.90987 0.01138 0.31734 0.0
C1203 C 0.90945 0.00573 0.29732 0.0
C1204 C 0.92691 0.0093 0.3288 0.0
C1205 C 0.94396 0.00128 0.32063 0.0
C1206 C 0.94388 0.99647 0.30036 0.0
C1207 C 0.92678 0.99875 0.28879 0.0
H1208 H 0.21942 0.20409 0.62054 0.0
H1209 H 0.28162 0.20734 0.63481 0.0
H1210 H 0.226 0.18141 0.59305 0.0
H1211 H 0.28821 0.18484 0.60733 0.0
H1212 H 0.29015 0.12947 0.56798 0.0
H1213 H 0.28179 0.14961 0.5967 0.0
H1214 H 0.24315 0.18413 0.56039 0.0
H1215 H 0.25148 0.16404 0.53161 0.0
C1216 C 0.23446 0.19979 0.61791 0.0
C1217 C 0.25002 0.20752 0.62976 0.0
C1218 C 0.23824 0.18696 0.60211 0.0
C1219 C 0.25763 0.18139 0.59802 0.0
C1220 C 0.27311 0.18874 0.61019 0.0
C1221 C 0.26936 0.20174 0.62582 0.0
C1222 C 0.27978 0.14128 0.56612 0.0
C1223 C 0.27154 0.1452 0.54748 0.0
C1224 C 0.27507 0.15286 0.58257 0.0
C1225 C 0.26185 0.16846 0.58078 0.0
C1226 C 0.25326 0.1721 0.56224 0.0
C1227 C 0.25813 0.16066 0.54575 0.0
H1228 H 0.48622 0.50259 0.63093 0.0
H1229 H 0.44061 0.51965 0.5898 0.0
H1230 H 0.46183 0.49918 0.65655 0.0
H1231 H 0.41632 0.51719 0.61574 0.0
H1232 H 0.37486 0.49044 0.6612 0.0
H1233 H 0.39906 0.49341 0.6352 0.0
H1234 H 0.4413 0.51836 0.67738 0.0
H1235 H 0.41734 0.51489 0.70341 0.0
C1236 C 0.47098 0.50561 0.62732 0.0
C1237 C 0.46542 0.51133 0.60822 0.0
C1238 C 0.457 0.5039 0.64212 0.0
C1239 C 0.43706 0.50794 0.63828 0.0
C1240 C 0.43149 0.51374 0.6192 0.0
C1241 C 0.44548 0.5154 0.60437 0.0
C1242 C 0.38932 0.49654 0.66493 0.0
C1243 C 0.39415 0.50237 0.68443 0.0
C1244 C 0.40318 0.49837 0.64998 0.0
C1245 C 0.42219 0.50612 0.65414 0.0
C1246 C 0.42694 0.51203 0.67365 0.0
C1247 C 0.41313 0.51014 0.68859 0.0
H1248 H 0.7482 0.24644 0.62499 0.0
H1249 H 0.76171 0.30145 0.65564 0.0
H1250 H 0.7435 0.26416 0.59433 0.0
H1251 H 0.75735 0.31914 0.62484 0.0
H1252 H 0.73557 0.34623 0.56699 0.0
H1253 H 0.733 0.32823 0.59794 0.0
H1254 H 0.76764 0.28141 0.57324 0.0
H1255 H 0.77021 0.29919 0.54261 0.0
C1256 C 0.74984 0.26235 0.62526 0.0
C1257 C 0.75548 0.27252 0.64273 0.0
C1258 C 0.74729 0.27248 0.60766 0.0
C1259 C 0.75019 0.29303 0.60714 0.0
C1260 C 0.75489 0.30333 0.62479 0.0
C1261 C 0.75759 0.29317 0.64238 0.0
C1262 C 0.74239 0.33197 0.56813 0.0
C1263 C 0.75318 0.32419 0.55239 0.0
C1264 C 0.74101 0.32174 0.58586 0.0
C1265 C 0.75011 0.3034 0.58802 0.0
C1266 C 0.76027 0.29537 0.572 0.0
C1267 C 0.76186 0.30566 0.55447 0.0
H1268 H 0.53818 0.92083 0.63977 0.0
H1269 H 0.54103 0.98364 0.63036 0.0
H1270 H 0.55544 0.92555 0.67116 0.0
H1271 H 0.55732 0.98847 0.66242 0.0
H1272 H 0.56351 0.94189 0.73557 0.0
H1273 H 0.54826 0.93817 0.70312 0.0
H1274 H 0.58735 0.98333 0.68109 0.0
H1275 H 0.60232 0.9875 0.71395 0.0
C1276 C 0.5426 0.93566 0.64431 0.0
C1277 C 0.53816 0.95185 0.6325 0.0
C1278 C 0.55226 0.9384 0.66249 0.0
C1279 C 0.55757 0.95742 0.66946 0.0
C1280 C 0.55354 0.97361 0.65748 0.0
C1281 C 0.54397 0.97085 0.63919 0.0
C1282 C 0.56889 0.95106 0.72385 0.0
C1283 C 0.5842 0.96495 0.72736 0.0
C1284 C 0.56021 0.94882 0.70516 0.0
C1285 C 0.56671 0.96028 0.6894 0.0
C1286 C 0.58189 0.97436 0.69293 0.0
C1287 C 0.59052 0.9767 0.71174 0.0
H1288 H 0.86975 0.18883 0.78128 0.0
H1289 H 0.85575 0.25067 0.78156 0.0
H1290 H 0.90136 0.19666 0.79759 0.0
H1291 H 0.88719 0.25848 0.79788 0.0
H1292 H 0.95292 0.26806 0.80543 0.0
H1293 H 0.92166 0.25868 0.78984 0.0
H1294 H 0.91658 0.20905 0.82855 0.0
H1295 H 0.94832 0.21826 0.84404 0.0
C1296 C 0.87333 0.20407 0.78501 0.0
C1297 C 0.86029 0.21914 0.77998 0.0
C1298 C 0.89144 0.20855 0.79437 0.0
C1299 C 0.8969 0.22821 0.79891 0.0
C1300 C 0.88366 0.24322 0.79422 0.0
C1301 C 0.86561 0.23875 0.78486 0.0
C1302 C 0.94523 0.2551 0.81065 0.0
C1303 C 0.95314 0.24398 0.82609 0.0
C1304 C 0.92719 0.24979 0.80176 0.0
C1305 C 0.91647 0.23325 0.80808 0.0
C1306 C 0.92452 0.22183 0.82326 0.0
C1307 C 0.94267 0.22715 0.83218 0.0
H1308 H 0.44585 0.85892 0.47645 0.0
H1309 H 0.5089 0.86518 0.48524 0.0
H1310 H 0.45098 0.83328 0.45158 0.0
H1311 H 0.51385 0.83886 0.46083 0.0
H1312 H 0.50836 0.77825 0.42373 0.0
H1313 H 0.50385 0.79998 0.4527 0.0
H1314 H 0.46858 0.83858 0.41727 0.0
H1315 H 0.47333 0.81743 0.38854 0.0
C1316 C 0.46079 0.85476 0.47323 0.0
C1317 C 0.47696 0.86445 0.48261 0.0
C1318 C 0.46369 0.83995 0.4591 0.0
C1319 C 0.4828 0.83423 0.45425 0.0
C1320 C 0.49896 0.84294 0.46444 0.0
C1321 C 0.49609 0.858 0.47843 0.0
C1322 C 0.49966 0.79138 0.42221 0.0
C1323 C 0.49127 0.79618 0.40385 0.0
C1324 C 0.49713 0.80378 0.43872 0.0
C1325 C 0.48576 0.82082 0.43717 0.0
C1326 C 0.47725 0.82543 0.41889 0.0
C1327 C 0.4801 0.81336 0.40241 0.0
H1328 H 0.15957 0.25831 0.79601 0.0
H1329 H 0.12392 0.22801 0.75119 0.0
H1330 H 0.1316 0.25807 0.81807 0.0
H1331 H 0.09624 0.22711 0.77374 0.0
H1332 H 0.05447 0.21994 0.82759 0.0
H1333 H 0.08508 0.21445 0.80943 0.0
H1334 H 0.09848 0.27683 0.81293 0.0
H1335 H 0.06798 0.28233 0.83045 0.0
C1336 C 0.14586 0.25146 0.79087 0.0
C1337 C 0.14396 0.24353 0.77161 0.0
C1338 C 0.12992 0.25117 0.80361 0.0
C1339 C 0.11178 0.24264 0.79756 0.0
C1340 C 0.11014 0.23362 0.77882 0.0
C1341 C 0.12604 0.23414 0.76592 0.0
C1342 C 0.06415 0.23237 0.82469 0.0
C1343 C 0.05887 0.25156 0.83035 0.0
C1344 C 0.08154 0.22925 0.81424 0.0
C1345 C 0.09411 0.24523 0.80984 0.0
C1346 C 0.08916 0.26424 0.81627 0.0
C1347 C 0.07166 0.26739 0.82623 0.0
H1348 H 0.48229 0.605 0.46038 0.0
H1349 H 0.54464 0.61778 0.46647 0.0
H1350 H 0.4793 0.63087 0.43605 0.0
H1351 H 0.54171 0.64352 0.44181 0.0
H1352 H 0.5222 0.70276 0.41441 0.0
H1353 H 0.52648 0.67654 0.43828 0.0
H1354 H 0.48962 0.63761 0.402 0.0
H1355 H 0.48525 0.66376 0.37821 0.0
C1356 C 0.49536 0.61337 0.45655 0.0
C1357 C 0.51369 0.60937 0.46541 0.0
C1358 C 0.49368 0.62807 0.44246 0.0
C1359 C 0.51028 0.63924 0.43696 0.0
C1360 C 0.52863 0.63527 0.44583 0.0
C1361 C 0.53034 0.62042 0.45982 0.0
C1362 C 0.51507 0.68858 0.41148 0.0
C1363 C 0.50333 0.6854 0.3944 0.0
C1364 C 0.51761 0.67353 0.42512 0.0
C1365 C 0.50833 0.65501 0.42208 0.0
C1366 C 0.49677 0.65178 0.4049 0.0
C1367 C 0.49436 0.66676 0.3912 0.0
H1368 H 0.9061 0.83862 0.75694 0.0
H1369 H 0.90258 0.77504 0.75979 0.0
H1370 H 0.92544 0.83592 0.7271 0.0
H1371 H 0.92267 0.77251 0.73037 0.0
H1372 H 0.97235 0.77902 0.68396 0.0
H1373 H 0.95784 0.78273 0.71667 0.0
H1374 H 0.91425 0.82154 0.69253 0.0
H1375 H 0.9284 0.81761 0.65993 0.0
C1376 C 0.90955 0.82407 0.75133 0.0
C1377 C 0.90246 0.80704 0.76064 0.0
C1378 C 0.92073 0.82257 0.73432 0.0
C1379 C 0.9254 0.80402 0.72642 0.0
C1380 C 0.91937 0.78699 0.73629 0.0
C1381 C 0.90791 0.78847 0.75317 0.0
C1382 C 0.95978 0.78847 0.68572 0.0
C1383 C 0.95146 0.79798 0.6694 0.0
C1384 C 0.95146 0.79051 0.70437 0.0
C1385 C 0.935 0.80246 0.70706 0.0
C1386 C 0.92706 0.81238 0.69087 0.0
C1387 C 0.93509 0.81004 0.6722 0.0
H1388 H 0.99976 0.89598 0.49854 0.0
H1389 H 0.06113 0.88991 0.51503 0.0
H1390 H 0.99037 0.87464 0.525 0.0
H1391 H 0.05152 0.86962 0.54273 0.0
H1392 H 0.02639 0.81541 0.57601 0.0
H1393 H 0.03877 0.83809 0.55128 0.0
H1394 H 0.98746 0.87414 0.55907 0.0
H1395 H 0.97476 0.85095 0.58279 0.0
C1396 C 0.01132 0.89008 0.50779 0.0
C1397 C 0.03125 0.89461 0.50443 0.0
C1398 C 0.00587 0.87809 0.52331 0.0
C1399 C 0.02014 0.87054 0.53627 0.0
C1400 C 0.04012 0.87506 0.53301 0.0
C1401 C 0.04561 0.88692 0.51724 0.0
C1402 C 0.01795 0.82834 0.57255 0.0
C1403 C 0.9995 0.83131 0.58108 0.0
C1404 C 0.02504 0.84138 0.55842 0.0
C1405 C 0.01394 0.85779 0.55282 0.0
C1406 C 0.99612 0.86134 0.56245 0.0
C1407 C 0.98889 0.84815 0.57621 0.0
H1408 H 0.13505 0.78104 0.71014 0.0
H1409 H 0.1304 0.71823 0.69914 0.0
H1410 H 0.10757 0.78611 0.68731 0.0
H1411 H 0.10291 0.72331 0.67629 0.0
H1412 H 0.06453 0.74173 0.62369 0.0
H1413 H 0.09392 0.73728 0.64433 0.0
H1414 H 0.07223 0.77962 0.68661 0.0
H1415 H 0.04315 0.78432 0.66595 0.0
C1416 C 0.12812 0.76831 0.70289 0.0
C1417 C 0.13484 0.74922 0.70656 0.0
C1418 C 0.11238 0.77121 0.6898 0.0
C1419 C 0.10297 0.7551 0.68005 0.0
C1420 C 0.10998 0.73605 0.68336 0.0
C1421 C 0.12574 0.73314 0.69647 0.0
C1422 C 0.06609 0.75015 0.63735 0.0
C1423 C 0.05148 0.76338 0.64316 0.0
C1424 C 0.08288 0.74752 0.64922 0.0
C1425 C 0.08544 0.75813 0.6671 0.0
C1426 C 0.07088 0.77144 0.67279 0.0
C1427 C 0.05412 0.77403 0.66098 0.0
H1428 H 0.9874 0.63594 0.54352 0.0
H1429 H 0.92439 0.64234 0.54813 0.0
H1430 H 0.9925 0.66814 0.55952 0.0
H1431 H 0.92952 0.67379 0.56511 0.0
H1432 H 0.94338 0.73887 0.5717 0.0
H1433 H 0.93951 0.70628 0.55678 0.0
H1434 H 0.98998 0.68653 0.59019 0.0
H1435 H 0.99426 0.71955 0.60477 0.0
C1436 C 0.97464 0.64413 0.54804 0.0
C1437 C 0.95547 0.63654 0.54442 0.0
C1438 C 0.97758 0.66249 0.55744 0.0
C1439 C 0.96142 0.67364 0.56348 0.0
C1440 C 0.94231 0.66578 0.56035 0.0
C1441 C 0.93937 0.64754 0.55086 0.0
C1442 C 0.95368 0.72761 0.57592 0.0
C1443 C 0.96909 0.73182 0.58951 0.0
C1444 C 0.95137 0.70884 0.56743 0.0
C1445 C 0.9643 0.69369 0.57242 0.0
C1446 C 0.97985 0.6979 0.5859 0.0
C1447 C 0.98224 0.7168 0.59433 0.0
H1448 H 0.77888 0.8662 0.20361 0.0
H1449 H 0.78753 0.85303 0.26509 0.0
H1450 H 0.79817 0.89683 0.20831 0.0
H1451 H 0.80713 0.88317 0.26973 0.0
H1452 H 0.81468 0.94883 0.27802 0.0
H1453 H 0.79902 0.91722 0.27098 0.0
H1454 H 0.83029 0.91281 0.2162 0.0
H1455 H 0.84586 0.94519 0.22311 0.0
C1456 C 0.78522 0.86969 0.21803 0.0
C1457 C 0.78146 0.85743 0.23407 0.0
C1458 C 0.79631 0.88719 0.22071 0.0
C1459 C 0.80392 0.89265 0.23948 0.0
C1460 C 0.80104 0.87972 0.2552 0.0
C1461 C 0.78986 0.86241 0.25256 0.0
C1462 C 0.81835 0.94121 0.26446 0.0
C1463 C 0.83167 0.94957 0.25119 0.0
C1464 C 0.80943 0.92292 0.26049 0.0
C1465 C 0.8136 0.91227 0.24318 0.0
C1466 C 0.82673 0.92066 0.22967 0.0
C1467 C 0.83569 0.93915 0.23365 0.0
H1468 H 0.77034 0.1391 0.28277 0.0
H1469 H 0.77854 0.14472 0.22008 0.0
H1470 H 0.78958 0.10939 0.28253 0.0
H1471 H 0.79709 0.11409 0.21971 0.0
H1472 H 0.8458 0.06719 0.2336 0.0
H1473 H 0.82798 0.09829 0.23093 0.0
H1474 H 0.78423 0.07623 0.27087 0.0
H1475 H 0.80206 0.04583 0.2739 0.0
C1476 C 0.77637 0.13412 0.26892 0.0
C1477 C 0.77284 0.1444 0.25144 0.0
C1478 C 0.78719 0.11684 0.26873 0.0
C1479 C 0.79465 0.10915 0.25104 0.0
C1480 C 0.79158 0.11962 0.23359 0.0
C1481 C 0.78076 0.13705 0.23378 0.0
C1482 C 0.83229 0.06902 0.24164 0.0
C1483 C 0.82552 0.05419 0.2542 0.0
C1484 C 0.82207 0.08679 0.2401 0.0
C1485 C 0.8049 0.08992 0.25104 0.0
C1486 C 0.79771 0.07461 0.26273 0.0
C1487 C 0.80791 0.05708 0.26437 0.0
H1488 H 0.33537 0.00184 0.97769 0.0
H1489 H 0.37201 0.95864 0.94936 0.0
H1490 H 0.3124 0.97554 0.98694 0.0
H1491 H 0.34868 0.93282 0.95757 0.0
H1492 H 0.32051 0.88917 0.99733 0.0
H1493 H 0.34064 0.91712 0.98793 0.0
H1494 H 0.28825 0.94998 0.97468 0.0
H1495 H 0.2678 0.92179 0.98464 0.0
C1496 C 0.33845 0.98682 0.97325 0.0
C1497 C 0.35566 0.98241 0.96286 0.0
C1498 C 0.32517 0.97179 0.97838 0.0
C1499 C 0.32885 0.95206 0.97323 0.0
C1500 C 0.34559 0.94782 0.96212 0.0
C1501 C 0.35885 0.96273 0.95712 0.0
C1502 C 0.31318 0.90233 0.99246 0.0
C1503 C 0.29251 0.90315 0.99153 0.0
C1504 C 0.32477 0.91835 0.98695 0.0
C1505 C 0.31607 0.93566 0.98017 0.0
C1506 C 0.29539 0.93683 0.97983 0.0
C1507 C 0.28369 0.9207 0.98549 0.0
H1508 H 0.24771 0.3933 0.27185 0.0
H1509 H 0.25345 0.41604 0.33152 0.0
H1510 H 0.21675 0.41077 0.26771 0.0
H1511 H 0.22249 0.43385 0.32721 0.0
H1512 H 0.17523 0.47697 0.29854 0.0
H1513 H 0.20787 0.4623 0.30251 0.0
H1514 H 0.18289 0.40507 0.2872 0.0
H1515 H 0.15036 0.41946 0.28368 0.0
C1516 C 0.2425 0.40233 0.28395 0.0
C1517 C 0.25292 0.40337 0.302 0.0
C1518 C 0.22479 0.41221 0.2816 0.0
C1519 C 0.21733 0.42358 0.29715 0.0
C1520 C 0.22806 0.42523 0.31499 0.0
C1521 C 0.24564 0.41501 0.31748 0.0
C1522 C 0.17675 0.46127 0.29605 0.0
C1523 C 0.16026 0.44935 0.29084 0.0
C1524 C 0.19535 0.45291 0.29839 0.0
C1525 C 0.19778 0.43263 0.29507 0.0
C1526 C 0.18136 0.42078 0.28971 0.0
C1527 C 0.16276 0.42902 0.2878 0.0
H1528 H 0.148 0.03023 0.42559 0.0
H1529 H 0.14388 0.03199 0.48908 0.0
H1530 H 0.17725 0.05133 0.42775 0.0
H1531 H 0.17391 0.05211 0.49129 0.0
H1532 H 0.21969 0.10193 0.48773 0.0
H1533 H 0.1883 0.08387 0.48524 0.0
H1534 H 0.21083 0.0486 0.4373 0.0
H1535 H 0.24178 0.06699 0.43935 0.0
C1536 C 0.15323 0.03521 0.44003 0.0
C1537 C 0.14355 0.02932 0.45717 0.0
C1538 C 0.17022 0.0471 0.44128 0.0
C1539 C 0.1781 0.05328 0.45971 0.0
C1540 C 0.1682 0.04776 0.47684 0.0
C1541 C 0.15111 0.03598 0.47558 0.0
C1542 C 0.21788 0.09037 0.47662 0.0
C1543 C 0.23324 0.08595 0.46371 0.0
C1544 C 0.19992 0.07994 0.47525 0.0
C1545 C 0.19697 0.0648 0.46102 0.0
C1546 C 0.21238 0.06041 0.44817 0.0
C1547 C 0.23023 0.0709 0.44944 0.0
H1548 H 0.71025 0.13526 0.77286 0.0
H1549 H 0.69579 0.12122 0.71193 0.0
H1550 H 0.69057 0.10706 0.78312 0.0
H1551 H 0.67528 0.09356 0.72225 0.0
H1552 H 0.65874 0.03301 0.74669 0.0
H1553 H 0.67811 0.06133 0.73605 0.0
H1554 H 0.65707 0.09562 0.78539 0.0
H1555 H 0.63813 0.06714 0.79632 0.0
C1556 C 0.70287 0.12616 0.76163 0.0
C1557 C 0.70469 0.1305 0.74155 0.0
C1558 C 0.69135 0.11012 0.76754 0.0
C1559 C 0.68128 0.09802 0.75353 0.0
C1560 C 0.683 0.10242 0.73344 0.0
C1561 C 0.69457 0.11844 0.72753 0.0
C1562 C 0.65821 0.0466 0.75525 0.0
C1563 C 0.64693 0.04777 0.7724 0.0
C1564 C 0.66924 0.0629 0.74908 0.0
C1565 C 0.6692 0.08079 0.75986 0.0
C1566 C 0.65772 0.082 0.77689 0.0
C1567 C 0.64675 0.06568 0.78311 0.0
H1568 H 0.40869 0.01539 0.50062 0.0
H1569 H 0.39808 0.03256 0.56112 0.0
H1570 H 0.38437 0.03843 0.48953 0.0
H1571 H 0.37482 0.05705 0.54982 0.0
H1572 H 0.31767 0.08238 0.52234 0.0
H1573 H 0.34309 0.06127 0.53612 0.0
H1574 H 0.37888 0.07153 0.48503 0.0
H1575 H 0.35301 0.09144 0.47093 0.0
C1576 C 0.4012 0.02409 0.51163 0.0
C1577 C 0.40533 0.02188 0.53183 0.0
C1578 C 0.38746 0.03769 0.5052 0.0
C1579 C 0.37768 0.04988 0.51873 0.0
C1580 C 0.3819 0.04784 0.53895 0.0
C1581 C 0.39548 0.03395 0.54543 0.0
C1582 C 0.33111 0.08023 0.51424 0.0
C1583 C 0.33331 0.08828 0.49548 0.0
C1584 C 0.34572 0.06818 0.52214 0.0
C1585 C 0.36296 0.0643 0.51154 0.0
C1586 C 0.36557 0.07354 0.49334 0.0
C1587 C 0.35082 0.08514 0.48531 0.0
H1588 H 0.63451 0.48734 0.50719 0.0
H1589 H 0.59238 0.44105 0.51992 0.0
H1590 H 0.66036 0.46302 0.50448 0.0
H1591 H 0.61841 0.41681 0.51797 0.0
H1592 H 0.66529 0.37696 0.49076 0.0
H1593 H 0.6392 0.401 0.49393 0.0
H1594 H 0.67979 0.44116 0.52443 0.0
H1595 H 0.70597 0.4173 0.52092 0.0
C1596 C 0.63074 0.47197 0.5094 0.0
C1597 C 0.61132 0.46618 0.51372 0.0
C1598 C 0.64564 0.45804 0.50809 0.0
C1599 C 0.64151 0.43792 0.51104 0.0
C1600 C 0.62209 0.43213 0.51541 0.0
C1601 C 0.6072 0.44608 0.51676 0.0
C1602 C 0.66865 0.39089 0.49819 0.0
C1603 C 0.68777 0.39519 0.50553 0.0
C1604 C 0.65364 0.40465 0.5001 0.0
C1605 C 0.65737 0.42307 0.5094 0.0
C1606 C 0.67645 0.42726 0.51692 0.0
C1607 C 0.69145 0.41351 0.51501 0.0
H1608 H 0.73214 0.30891 0.34363 0.0
H1609 H 0.72013 0.258 0.379 0.0
H1610 H 0.7358 0.3294 0.37371 0.0
H1611 H 0.72324 0.27858 0.40901 0.0
H1612 H 0.71513 0.32871 0.45661 0.0
H1613 H 0.70594 0.31198 0.42523 0.0
H1614 H 0.7638 0.32486 0.40292 0.0
H1615 H 0.77318 0.34088 0.43429 0.0
C1616 C 0.72993 0.30223 0.35783 0.0
C1617 C 0.72597 0.28192 0.3591 0.0
C1618 C 0.73201 0.31391 0.37496 0.0
C1619 C 0.72968 0.30553 0.39358 0.0
C1620 C 0.72489 0.28539 0.39479 0.0
C1621 C 0.72326 0.27363 0.3777 0.0
C1622 C 0.72573 0.32819 0.44486 0.0
C1623 C 0.74488 0.33598 0.44784 0.0
C1624 C 0.72051 0.3186 0.42702 0.0
C1625 C 0.73419 0.31722 0.41175 0.0
C1626 C 0.75297 0.32587 0.41443 0.0
C1627 C 0.75834 0.33494 0.43238 0.0
H1628 H 0.52619 0.06301 0.89215 0.0
H1629 H 0.5024 0.00373 0.89624 0.0
H1630 H 0.55127 0.05108 0.86974 0.0
H1631 H 0.5263 0.99221 0.87291 0.0
H1632 H 0.58112 0.97113 0.84609 0.0
H1633 H 0.55981 0.98537 0.87071 0.0
H1634 H 0.55639 0.03878 0.83707 0.0
H1635 H 0.57868 0.02472 0.81284 0.0
C1636 C 0.52624 0.04747 0.88826 0.0
C1637 C 0.51219 0.03437 0.89603 0.0
C1638 C 0.54049 0.04067 0.87521 0.0
C1639 C 0.54095 0.02063 0.86957 0.0
C1640 C 0.52673 0.00765 0.87719 0.0
C1641 C 0.5127 0.01437 0.89034 0.0
C1642 C 0.57599 0.986 0.84406 0.0
C1643 C 0.58138 0.99674 0.82745 0.0
C1644 C 0.56362 0.99413 0.8581 0.0
C1645 C 0.55596 0.01308 0.8557 0.0
C1646 C 0.56205 0.02418 0.83947 0.0
C1647 C 0.57476 0.01612 0.82554 0.0
H1648 H 0.30666 0.27439 0.41859 0.0
H1649 H 0.30679 0.23997 0.36456 0.0
H1650 H 0.30252 0.24413 0.43742 0.0
H1651 H 0.30187 0.20999 0.383 0.0
H1652 H 0.31502 0.15825 0.42002 0.0
H1653 H 0.31968 0.18945 0.40378 0.0
H1654 H 0.28076 0.21727 0.44523 0.0
H1655 H 0.27683 0.18589 0.46216 0.0
C1656 C 0.30562 0.26035 0.41078 0.0
C1657 C 0.30734 0.25943 0.3902 0.0
C1658 C 0.30316 0.24303 0.42151 0.0
C1659 C 0.30214 0.22453 0.41178 0.0
C1660 C 0.30321 0.22385 0.39109 0.0
C1661 C 0.30594 0.24104 0.38048 0.0
C1662 C 0.30747 0.17102 0.42574 0.0
C1663 C 0.2954 0.16956 0.44225 0.0
C1664 C 0.31004 0.18893 0.41633 0.0
C1665 C 0.3003 0.20587 0.42292 0.0
C1666 C 0.28857 0.20457 0.43979 0.0
C1667 C 0.28624 0.18659 0.44945 0.0
H1668 H 0.50211 0.49493 0.84014 0.0
H1669 H 0.46151 0.46723 0.87998 0.0
H1670 H 0.47496 0.50037 0.81692 0.0
H1671 H 0.4348 0.47159 0.8564 0.0
H1672 H 0.38767 0.50347 0.82327 0.0
H1673 H 0.41588 0.49831 0.84477 0.0
H1674 H 0.45127 0.48434 0.79424 0.0
H1675 H 0.42289 0.49013 0.77245 0.0
C1676 C 0.48745 0.48991 0.84392 0.0
C1677 C 0.48403 0.48072 0.86201 0.0
C1678 C 0.47193 0.49281 0.83048 0.0
C1679 C 0.45265 0.48657 0.83484 0.0
C1680 C 0.44938 0.47692 0.85269 0.0
C1681 C 0.46481 0.47414 0.86613 0.0
C1682 C 0.40145 0.49932 0.81666 0.0
C1683 C 0.40297 0.49707 0.79612 0.0
C1684 C 0.41763 0.49623 0.82905 0.0
C1685 C 0.4358 0.49061 0.82129 0.0
C1686 C 0.43751 0.48874 0.80069 0.0
C1687 C 0.42125 0.49199 0.78822 0.0
H1688 H 0.71596 0.70507 0.126 0.0
H1689 H 0.77828 0.70548 0.1399 0.0
H1690 H 0.72117 0.6812 0.09927 0.0
H1691 H 0.78355 0.68203 0.11296 0.0
H1692 H 0.78354 0.62606 0.07502 0.0
H1693 H 0.77646 0.6475 0.10314 0.0
H1694 H 0.73695 0.68095 0.06668 0.0
H1695 H 0.74385 0.65942 0.03858 0.0
C1696 C 0.73074 0.69996 0.12343 0.0
C1697 C 0.74672 0.70722 0.13501 0.0
C1698 C 0.73375 0.68644 0.10802 0.0
C1699 C 0.75278 0.67975 0.10396 0.0
C1700 C 0.76869 0.68674 0.1158 0.0
C1701 C 0.7657 0.70034 0.1311 0.0
C1702 C 0.77325 0.6379 0.07301 0.0
C1703 C 0.76433 0.64106 0.0545 0.0
C1704 C 0.76927 0.65025 0.08911 0.0
C1705 C 0.7562 0.66598 0.08713 0.0
C1706 C 0.74694 0.66886 0.06875 0.0
C1707 C 0.751 0.65658 0.05261 0.0
H1708 H 0.94303 0.03271 0.09652 0.0
H1709 H 0.98763 0.01083 0.13632 0.0
H1710 H 0.91927 0.0323 0.12311 0.0
H1711 H 0.96374 0.01002 0.16267 0.0
H1712 H 0.9103 0.99174 0.19896 0.0
H1713 H 0.93315 0.99183 0.17157 0.0
H1714 H 0.9133 0.04947 0.15517 0.0
H1715 H 0.89038 0.04939 0.1825 0.0
C1716 C 0.94785 0.02794 0.11093 0.0
C1717 C 0.96731 0.02176 0.11418 0.0
C1718 C 0.93418 0.02765 0.12616 0.0
C1719 C 0.93958 0.02104 0.14498 0.0
C1720 C 0.95901 0.01488 0.14825 0.0
C1721 C 0.97271 0.01532 0.13309 0.0
C1722 C 0.91071 0.00439 0.18946 0.0
C1723 C 0.89851 0.02058 0.19298 0.0
C1724 C 0.92391 0.00449 0.17383 0.0
C1725 C 0.92511 0.02069 0.16123 0.0
C1726 C 0.91263 0.0367 0.1645 0.0
C1727 C 0.89956 0.03669 0.18024 0.0
H1728 H 0.23106 0.78381 0.15326 0.0
H1729 H 0.29107 0.77382 0.13611 0.0
H1730 H 0.22654 0.80542 0.12497 0.0
H1731 H 0.28658 0.7949 0.10798 0.0
H1732 H 0.28266 0.84562 0.06958 0.0
H1733 H 0.28321 0.82884 0.10093 0.0
H1734 H 0.22445 0.80567 0.08882 0.0
H1735 H 0.22369 0.82345 0.05758 0.0
C1736 C 0.24323 0.78615 0.1434 0.0
C1737 C 0.26152 0.77734 0.14707 0.0
C1738 C 0.24065 0.79851 0.12722 0.0
C1739 C 0.25629 0.80222 0.11437 0.0
C1740 C 0.27437 0.79294 0.11787 0.0
C1741 C 0.27696 0.78077 0.134 0.0
C1742 C 0.26967 0.83735 0.07388 0.0
C1743 C 0.25319 0.83569 0.06119 0.0
C1744 C 0.27004 0.82754 0.09173 0.0
C1745 C 0.25411 0.8154 0.09716 0.0
C1746 C 0.23699 0.81487 0.08509 0.0
C1747 C 0.23651 0.82505 0.06723 0.0
H1748 H 0.03753 0.42351 0.13925 0.0
H1749 H 0.03151 0.48639 0.1329 0.0
H1750 H 0.05465 0.42905 0.17064 0.0
H1751 H 0.04785 0.49188 0.16489 0.0
H1752 H 0.06059 0.44363 0.23579 0.0
H1753 H 0.0456 0.43946 0.20327 0.0
H1754 H 0.07922 0.48952 0.18286 0.0
H1755 H 0.09402 0.49403 0.21578 0.0
C1756 C 0.04001 0.43854 0.14445 0.0
C1757 C 0.03309 0.4545 0.13354 0.0
C1758 C 0.04959 0.4417 0.16261 0.0
C1759 C 0.05242 0.4609 0.1704 0.0
C1760 C 0.04599 0.47692 0.15928 0.0
C1761 C 0.03643 0.47375 0.14105 0.0
C1762 C 0.06482 0.4538 0.22443 0.0
C1763 C 0.07859 0.46913 0.2284 0.0
C1764 C 0.05631 0.45131 0.2057 0.0
C1765 C 0.06137 0.46401 0.19038 0.0
C1766 C 0.07493 0.47954 0.19438 0.0
C1767 C 0.08345 0.48209 0.21321 0.0
H1768 H 0.34082 0.70976 0.31136 0.0
H1769 H 0.37415 0.70298 0.25815 0.0
H1770 H 0.37145 0.71682 0.3301 0.0
H1771 H 0.40483 0.7095 0.27704 0.0
H1772 H 0.45496 0.70593 0.32775 0.0
H1773 H 0.42421 0.69307 0.31204 0.0
H1774 H 0.39716 0.74942 0.32147 0.0
H1775 H 0.42782 0.76243 0.33637 0.0
C1776 C 0.35474 0.70938 0.30379 0.0
C1777 C 0.3552 0.70592 0.28334 0.0
C1778 C 0.37218 0.71339 0.31448 0.0
C1779 C 0.39038 0.7135 0.30497 0.0
C1780 C 0.39094 0.70924 0.28468 0.0
C1781 C 0.37345 0.70568 0.2739 0.0
C1782 C 0.44233 0.71541 0.32664 0.0
C1783 C 0.4437 0.73516 0.33316 0.0
C1784 C 0.42486 0.70811 0.31764 0.0
C1785 C 0.40844 0.72031 0.31566 0.0
C1786 C 0.40962 0.73975 0.32296 0.0
C1787 C 0.42714 0.74716 0.3314 0.0
H1788 H 0.01011 0.37676 0.97871 0.0
H1789 H 0.95094 0.35261 0.98084 0.0
H1790 H 0.01848 0.35174 0.95403 0.0
H1791 H 0.95932 0.32758 0.95608 0.0
H1792 H 0.98781 0.27591 0.92202 0.0
H1793 H 0.98223 0.29787 0.95044 0.0
H1794 H 0.00657 0.34677 0.91846 0.0
H1795 H 0.01193 0.32509 0.89019 0.0
C1796 C 0.99899 0.36592 0.97411 0.0
C1797 C 0.97984 0.36669 0.9816 0.0
C1798 C 0.00374 0.35169 0.95992 0.0
C1799 C 0.98953 0.33776 0.95313 0.0
C1800 C 0.9706 0.33805 0.96117 0.0
C1801 C 0.96576 0.35246 0.97517 0.0
C1802 C 0.99215 0.29131 0.92119 0.0
C1803 C 0.00023 0.2988 0.90385 0.0
C1804 C 0.98887 0.30386 0.93738 0.0
C1805 C 0.99399 0.324 0.93664 0.0
C1806 C 0.00265 0.33129 0.91953 0.0
C1807 C 0.0056 0.31887 0.9033 0.0
H1808 H 0.63424 0.78534 0.27103 0.0
H1809 H 0.63698 0.72193 0.27468 0.0
H1810 H 0.60452 0.78506 0.29039 0.0
H1811 H 0.60649 0.72159 0.29337 0.0
H1812 H 0.56047 0.73224 0.34254 0.0
H1813 H 0.59171 0.73105 0.32498 0.0
H1814 H 0.57075 0.7753 0.28512 0.0
H1815 H 0.54006 0.77682 0.3027 0.0
C1816 C 0.62861 0.77132 0.27608 0.0
C1817 C 0.63808 0.75366 0.27126 0.0
C1818 C 0.61136 0.77113 0.28698 0.0
C1819 C 0.60295 0.75328 0.29327 0.0
C1820 C 0.6126 0.73561 0.28883 0.0
C1821 C 0.62996 0.73579 0.27792 0.0
C1822 C 0.56257 0.74167 0.33 0.0
C1823 C 0.5478 0.75475 0.32417 0.0
C1824 C 0.58043 0.74094 0.3199 0.0
C1825 C 0.58385 0.75326 0.30378 0.0
C1826 C 0.56885 0.76594 0.29774 0.0
C1827 C 0.55114 0.76672 0.3078 0.0
H1828 H 0.98762 0.11438 0.96609 0.0
H1829 H 0.05126 0.11701 0.96649 0.0
H1830 H 0.98673 0.14021 0.94159 0.0
H1831 H 0.05034 0.14272 0.94185 0.0
H1832 H 0.041 0.17385 0.88309 0.0
H1833 H 0.0415 0.14764 0.90721 0.0
H1834 H 0.99417 0.1754 0.93839 0.0
H1835 H 0.99346 0.2015 0.91412 0.0
C1836 C 0.00143 0.12056 0.96109 0.0
C1837 C 0.01952 0.11358 0.96835 0.0
C1838 C 0.00091 0.13537 0.947 0.0
C1839 C 0.01846 0.14356 0.93973 0.0
C1840 C 0.03654 0.13654 0.9469 0.0
C1841 C 0.03707 0.12177 0.96104 0.0
C1842 C 0.03064 0.17436 0.89505 0.0
C1843 C 0.01719 0.18981 0.89664 0.0
C1844 C 0.03103 0.15938 0.90897 0.0
C1845 C 0.01791 0.15942 0.92479 0.0
C1846 C 0.00434 0.17479 0.92628 0.0
C1847 C 0.004 0.18982 0.91241 0.0
H1848 H 0.37172 0.31565 0.22606 0.0
H1849 H 0.42393 0.31123 0.26277 0.0
H1850 H 0.39109 0.30956 0.19692 0.0
H1851 H 0.44369 0.30577 0.23341 0.0
H1852 H 0.46693 0.27357 0.17775 0.0
H1853 H 0.45011 0.28214 0.20817 0.0
H1854 H 0.41452 0.3236 0.17629 0.0
H1855 H 0.43063 0.3143 0.14591 0.0
C1856 C 0.38746 0.31372 0.22783 0.0
C1857 C 0.39634 0.31403 0.24665 0.0
C1858 C 0.39863 0.3103 0.2111 0.0
C1859 C 0.41906 0.30735 0.21271 0.0
C1860 C 0.42798 0.30777 0.2316 0.0
C1861 C 0.41671 0.31097 0.24841 0.0
C1862 C 0.45564 0.28465 0.17735 0.0
C1863 C 0.4499 0.29308 0.15943 0.0
C1864 C 0.44603 0.28964 0.1948 0.0
C1865 C 0.4307 0.30336 0.19469 0.0
C1866 C 0.42582 0.31255 0.17688 0.0
C1867 C 0.43516 0.30733 0.15946 0.0
H1868 H 0.52868 0.35399 0.97675 0.0
H1869 H 0.53987 0.39584 0.02452 0.0
H1870 H 0.52017 0.3288 0.0005 0.0
H1871 H 0.53166 0.37046 0.04827 0.0
H1872 H 0.52604 0.31413 0.08561 0.0
H1873 H 0.5408 0.33669 0.06187 0.0
H1874 H 0.49087 0.3267 0.02249 0.0
H1875 H 0.4762 0.30444 0.04595 0.0
C1876 C 0.52948 0.35778 0.99232 0.0
C1877 C 0.53464 0.37702 0.99872 0.0
C1878 C 0.52468 0.34333 0.0059 0.0
C1879 C 0.52506 0.34774 0.02621 0.0
C1880 C 0.53138 0.36661 0.03271 0.0
C1881 C 0.53608 0.38113 0.01909 0.0
C1882 C 0.51833 0.31668 0.07181 0.0
C1883 C 0.49991 0.30759 0.0677 0.0
C1884 C 0.52674 0.32961 0.05829 0.0
C1885 C 0.51702 0.33335 0.04031 0.0
C1886 C 0.49884 0.3239 0.03609 0.0
C1887 C 0.49036 0.31126 0.04964 0.0
H1888 H 0.6511 0.24244 0.17868 0.0
H1889 H 0.61342 0.25776 0.22708 0.0
H1890 H 0.62316 0.24495 0.15577 0.0
H1891 H 0.58586 0.26119 0.20419 0.0
H1892 H 0.53556 0.24702 0.16187 0.0
H1893 H 0.56383 0.2419 0.18357 0.0
H1894 H 0.60196 0.26921 0.1412 0.0
H1895 H 0.57369 0.27384 0.1192 0.0
C1896 C 0.63688 0.24633 0.18444 0.0
C1897 C 0.63455 0.24996 0.20473 0.0
C1898 C 0.6209 0.24798 0.17128 0.0
C1899 C 0.60223 0.25327 0.17811 0.0
C1900 C 0.59994 0.25683 0.1984 0.0
C1901 C 0.61585 0.25515 0.21153 0.0
C1902 C 0.54998 0.25186 0.15711 0.0
C1903 C 0.55233 0.26093 0.13883 0.0
C1904 C 0.5662 0.24902 0.16962 0.0
C1905 C 0.58518 0.25529 0.16423 0.0
C1906 C 0.5876 0.26402 0.14575 0.0
C1907 C 0.57136 0.26678 0.13318 0.0
H1908 H 0.47554 0.11411 0.04841 0.0
H1909 H 0.41828 0.13623 0.03277 0.0
H1910 H 0.48198 0.1433 0.06935 0.0
H1911 H 0.42488 0.16571 0.05269 0.0
H1912 H 0.43361 0.21175 0.09859 0.0
H1913 H 0.42803 0.17906 0.08414 0.0
H1914 H 0.48936 0.17707 0.06795 0.0
H1915 H 0.49506 0.20933 0.08365 0.0
C1916 C 0.46437 0.12527 0.04948 0.0
C1917 C 0.44637 0.12292 0.03912 0.0
C1918 C 0.46806 0.14204 0.06137 0.0
C1919 C 0.45395 0.15695 0.06285 0.0
C1920 C 0.43593 0.15441 0.05244 0.0
C1921 C 0.43214 0.13754 0.04088 0.0
C1922 C 0.44594 0.20413 0.09222 0.0
C1923 C 0.46472 0.21308 0.09207 0.0
C1924 C 0.44274 0.18545 0.08375 0.0
C1925 C 0.45812 0.17549 0.07441 0.0
C1926 C 0.47715 0.18414 0.0751 0.0
C1927 C 0.48045 0.20268 0.08403 0.0
H1928 H 0.27399 0.36738 0.69428 0.0
H1929 H 0.27496 0.36049 0.75744 0.0
H1930 H 0.29248 0.3986 0.69829 0.0
H1931 H 0.29323 0.39147 0.7614 0.0
H1932 H 0.30112 0.4572 0.76386 0.0
H1933 H 0.28437 0.42605 0.75672 0.0
H1934 H 0.32516 0.41393 0.71009 0.0
H1935 H 0.34209 0.44563 0.71714 0.0
C1936 C 0.27834 0.3724 0.70897 0.0
C1937 C 0.27272 0.36162 0.72557 0.0
C1938 C 0.28892 0.39025 0.71126 0.0
C1939 C 0.29402 0.39764 0.73017 0.0
C1940 C 0.28909 0.38642 0.74665 0.0
C1941 C 0.27859 0.36867 0.74438 0.0
C1942 C 0.30657 0.44803 0.752 0.0
C1943 C 0.32313 0.45386 0.74122 0.0
C1944 C 0.29698 0.43007 0.74798 0.0
C1945 C 0.30365 0.41735 0.73309 0.0
C1946 C 0.31971 0.42343 0.72169 0.0
C1947 C 0.3294 0.44155 0.72574 0.0
H1948 H 0.30279 0.66137 0.75713 0.0
H1949 H 0.25817 0.62777 0.7243 0.0
H1950 H 0.32424 0.63291 0.75647 0.0
H1951 H 0.28 0.5996 0.72313 0.0
H1952 H 0.33078 0.55534 0.71691 0.0
H1953 H 0.31451 0.58699 0.7115 0.0
H1954 H 0.31855 0.60001 0.77394 0.0
H1955 H 0.33429 0.56857 0.77934 0.0
C1956 C 0.2976 0.64802 0.74961 0.0
C1957 C 0.27857 0.6468 0.74108 0.0
C1958 C 0.30997 0.63179 0.74911 0.0
C1959 C 0.30373 0.61406 0.73983 0.0
C1960 C 0.28526 0.61317 0.73021 0.0
C1961 C 0.27276 0.62934 0.7309 0.0
C1962 C 0.32844 0.56517 0.72936 0.0
C1963 C 0.33367 0.55951 0.74854 0.0
C1964 C 0.31908 0.58317 0.72629 0.0
C1965 C 0.31533 0.59593 0.74231 0.0
C1966 C 0.32144 0.59058 0.76131 0.0
C1967 C 0.33034 0.57253 0.7644 0.0
H1968 H 0.87484 0.48318 0.51909 0.0
H1969 H 0.84995 0.4878 0.46042 0.0
H1970 H 0.85012 0.45788 0.52663 0.0
H1971 H 0.82527 0.46245 0.46794 0.0
H1972 H 0.775 0.42547 0.49365 0.0
H1973 H 0.79607 0.4549 0.49041 0.0
H1974 H 0.84569 0.42289 0.51313 0.0
H1975 H 0.82484 0.39357 0.51622 0.0
C1976 C 0.86386 0.47903 0.50794 0.0
C1977 C 0.86436 0.48735 0.48914 0.0
C1978 C 0.84982 0.46449 0.51221 0.0
C1979 C 0.83584 0.45818 0.49785 0.0
C1980 C 0.83577 0.46714 0.47934 0.0
C1981 C 0.84998 0.4815 0.47498 0.0
C1982 C 0.79034 0.42483 0.4982 0.0
C1983 C 0.79829 0.40718 0.50508 0.0
C1984 C 0.80239 0.44162 0.49626 0.0
C1985 C 0.8225 0.44115 0.50151 0.0
C1986 C 0.83021 0.42374 0.50914 0.0
C1987 C 0.81828 0.40692 0.51079 0.0
H1988 H 0.75473 0.90788 0.83676 0.0
H1989 H 0.7512 0.88491 0.77705 0.0
H1990 H 0.72467 0.92672 0.8308 0.0
H1991 H 0.72115 0.90344 0.77125 0.0
H1992 H 0.65447 0.91454 0.78356 0.0
H1993 H 0.68627 0.89912 0.78871 0.0
H1994 H 0.71228 0.95553 0.80545 0.0
H1995 H 0.68036 0.97125 0.79986 0.0
C1996 C 0.74759 0.90699 0.82237 0.0
C1997 C 0.75524 0.895 0.80735 0.0
C1998 C 0.73054 0.91782 0.81894 0.0
C1999 C 0.7207 0.91646 0.80058 0.0
C2000 C 0.72851 0.90469 0.78552 0.0
C2001 C 0.7457 0.89418 0.78882 0.0
C2002 C 0.66695 0.92371 0.7883 0.0
C2003 C 0.66494 0.94411 0.79131 0.0
C2004 C 0.68513 0.91488 0.79116 0.0
C2005 C 0.70163 0.92618 0.79744 0.0
C2006 C 0.6997 0.94655 0.80064 0.0
C2007 C 0.68152 0.95551 0.79737 0.0
H2008 H 0.63095 0.53301 0.93193 0.0
H2009 H 0.63225 0.52749 0.99532 0.0
H2010 H 0.65916 0.55537 0.93411 0.0
H2011 H 0.66148 0.54878 0.99732 0.0
H2012 H 0.70744 0.59827 0.99611 0.0
H2013 H 0.67546 0.58116 0.99391 0.0
H2014 H 0.69318 0.55208 0.94004 0.0
H2015 H 0.72454 0.56956 0.94185 0.0
C2016 C 0.63709 0.53669 0.94639 0.0
C2017 C 0.6293 0.52829 0.96344 0.0
C2018 C 0.65352 0.54932 0.9476 0.0
C2019 C 0.66283 0.55368 0.96586 0.0
C2020 C 0.65466 0.54585 0.98301 0.0
C2021 C 0.63805 0.53337 0.98182 0.0
C2022 C 0.70438 0.58838 0.98371 0.0
C2023 C 0.71856 0.5853 0.96916 0.0
C2024 C 0.6861 0.57847 0.9825 0.0
C2025 C 0.68168 0.56524 0.96678 0.0
C2026 C 0.69583 0.56244 0.95215 0.0
C2027 C 0.71395 0.5724 0.95327 0.0
H2028 H 0.1686 0.64928 0.23181 0.0
H2029 H 0.21933 0.61186 0.23515 0.0
H2030 H 0.14716 0.6211 0.23901 0.0
H2031 H 0.198 0.58377 0.2422 0.0
H2032 H 0.15768 0.5432 0.27608 0.0
H2033 H 0.17794 0.57193 0.26864 0.0
H2034 H 0.13467 0.58972 0.22537 0.0
H2035 H 0.1141 0.5611 0.23313 0.0
C2036 C 0.17515 0.63501 0.23389 0.0
C2037 C 0.19568 0.63284 0.23306 0.0
C2038 C 0.16287 0.61886 0.23801 0.0
C2039 C 0.17087 0.6002 0.24134 0.0
C2040 C 0.19137 0.59801 0.24014 0.0
C2041 C 0.20361 0.61412 0.23608 0.0
C2042 C 0.15242 0.55324 0.265 0.0
C2043 C 0.13427 0.5498 0.25516 0.0
C2044 C 0.16412 0.56967 0.26065 0.0
C2045 C 0.15802 0.58306 0.24629 0.0
C2046 C 0.13973 0.57979 0.23662 0.0
C2047 C 0.12798 0.56333 0.24101 0.0
H2048 H 0.86881 0.48656 0.03012 0.0
H2049 H 0.90386 0.53724 0.04959 0.0
H2050 H 0.84301 0.50836 0.01867 0.0
H2051 H 0.87778 0.55896 0.03852 0.0
H2052 H 0.81781 0.59009 0.02918 0.0
H2053 H 0.84189 0.56817 0.04434 0.0
H2054 H 0.84178 0.53248 0.99105 0.0
H2055 H 0.81799 0.55413 0.97597 0.0
C2056 C 0.87103 0.50233 0.032 0.0
C2057 C 0.88854 0.51012 0.0406 0.0
C2058 C 0.8562 0.5148 0.02552 0.0
C2059 C 0.85845 0.53536 0.02761 0.0
C2060 C 0.87557 0.54317 0.0369 0.0
C2061 C 0.8905 0.53069 0.04325 0.0
C2062 C 0.82292 0.57753 0.02076 0.0
C2063 C 0.81602 0.5739 0.00136 0.0
C2064 C 0.83672 0.56505 0.0294 0.0
C2065 C 0.84359 0.54856 0.0189 0.0
C2066 C 0.83655 0.5449 0.9996 0.0
C2067 C 0.82302 0.55744 0.99092 0.0
H2068 H 0.10854 0.96251 0.98697 0.0
H2069 H 0.1136 0.96505 0.05051 0.0
H2070 H 0.13415 0.93777 0.98592 0.0
H2071 H 0.13909 0.94023 0.04944 0.0
H2072 H 0.17024 0.88152 0.04129 0.0
H2073 H 0.14381 0.9054 0.0417 0.0
H2074 H 0.1695 0.93471 0.99207 0.0
H2075 H 0.19579 0.91067 0.99145 0.0
C2076 C 0.11519 0.95791 0.00072 0.0
C2077 C 0.10897 0.96584 0.01882 0.0
C2078 C 0.12988 0.94369 0.00011 0.0
C2079 C 0.1387 0.93698 0.01759 0.0
C2080 C 0.13241 0.94482 0.0357 0.0
C2081 C 0.11776 0.95907 0.03631 0.0
C2082 C 0.17023 0.893 0.0304 0.0
C2083 C 0.18518 0.89415 0.01635 0.0
C2084 C 0.15513 0.90678 0.03072 0.0
C2085 C 0.15454 0.92203 0.01696 0.0
C2086 C 0.16936 0.92304 0.00275 0.0
C2087 C 0.1845 0.90929 0.00246 0.0
loop_
_geom_bond_atom_site_label_1
_geom_bond_atom_site_label_2
_geom_bond_distance
_geom_bond_site_symmetry_2
_ccdc_geom_bond_type
C0 C1 1.391 . S
C0 C4 1.391 1_556 S
C0 H42 0.948 . S
C1 C0 1.391 . S
C1 C2 1.391 1_556 S
C2 C1 1.391 1_554 S
C2 H58 0.947 . S
C2 C59 1.392 . S
C3 C4 1.391 . S
C3 C7 1.397 . S
C3 C59 1.419 . S
C4 C0 1.391 1_554 S
C4 C3 1.391 . S
C4 C5 1.399 . S
C5 C4 1.399 . S
C5 C8 1.396 . S
C5 C17 1.453 . S
C5 C18 1.684 1_554 S
H6 C30 0.948 . S
C7 C3 1.397 . S
C7 C8 1.394 . S
C7 C26 1.723 . S
C8 C5 1.396 . S
C8 C7 1.394 . S
C8 C38 1.723 . S
H9 C32 0.947 . S
H10 C33 0.948 . S
H11 C39 0.982 . S
H12 C40 0.979 . S
H13 C40 0.980 . S
H14 C40 0.983 . S
H15 C39 0.979 1_565 S
H16 C39 0.977 . S
C17 C5 1.453 . S
C17 H46 0.982 . S
C17 H47 0.979 1_554 S
C17 H48 0.977 . S
C18 C5 1.684 1_556 S
C18 H43 0.979 . S
C18 H44 0.980 . S
C18 H45 0.983 . S
C19 C20 1.391 . S
C19 C24 1.391 1_655 S
C19 H49 0.948 . S
C20 C19 1.391 . S
C20 C21 1.391 1_655 S
C21 C20 1.391 1_455 S
C21 C22 1.392 . S
C21 H50 0.947 . S
C22 C21 1.392 . S
C22 C23 1.419 . S
C22 H51 0.948 . S
C23 C22 1.419 . S
C23 C24 1.391 . S
C23 C27 1.397 . S
C24 C19 1.391 1_455 S
C24 C23 1.391 . S
C24 C25 1.399 . S
C25 C24 1.399 . S
C25 C26 1.396 . S
C25 C28 1.453 . S
C25 C29 1.684 1_455 S
C26 C7 1.723 . S
C26 C25 1.396 . S
C26 C27 1.394 . S
C27 C23 1.397 . S
C27 C26 1.394 . S
C27 C37 1.723 . S
C28 C25 1.453 . S
C28 H52 0.982 . S
C28 H53 0.979 1_455 S
C28 H54 0.977 . S
C29 C25 1.684 1_655 S
C29 H55 0.979 . S
C29 H56 0.980 . S
C29 H57 0.983 . S
C30 H6 0.948 . S
C30 C31 1.391 . S
C30 C35 1.391 1_565 S
C31 C30 1.391 . S
C31 C32 1.391 1_565 S
C32 H9 0.947 . S
C32 C31 1.391 1_545 S
C32 C33 1.392 . S
C33 H10 0.948 . S
C33 C32 1.392 . S
C33 C34 1.419 . S
C34 C33 1.419 . S
C34 C35 1.391 . S
C34 C38 1.397 . S
C35 C30 1.391 1_545 S
C35 C34 1.391 . S
C35 C36 1.399 . S
C36 C35 1.399 . S
C36 C37 1.396 . S
C36 C39 1.453 . S
C36 C40 1.684 1_545 S
C37 C27 1.723 . S
C37 C36 1.396 . S
C37 C38 1.394 . S
C38 C8 1.723 . S
C38 C34 1.397 . S
C38 C37 1.394 . S
C39 H11 0.982 . S
C39 H15 0.979 1_545 S
C39 H16 0.977 . S
C39 C36 1.453 . S
C40 H12 0.979 . S
C40 H13 0.980 . S
C40 H14 0.983 . S
C40 C36 1.684 1_565 S
H41 C59 0.948 . S
H42 C0 0.948 . S
H43 C18 0.979 . S
H44 C18 0.980 . S
H45 C18 0.983 . S
H46 C17 0.982 . S
H47 C17 0.979 1_556 S
H48 C17 0.977 . S
H49 C19 0.948 . S
H50 C21 0.947 . S
H51 C22 0.948 . S
H52 C28 0.982 . S
H53 C28 0.979 1_655 S
H54 C28 0.977 . S
H55 C29 0.979 . S
H56 C29 0.980 . S
H57 C29 0.983 . S
H58 C2 0.947 . S
C59 C2 1.392 . S
C59 C3 1.419 . S
C59 H41 0.948 . S
C60 C61 1.391 . S
C60 C64 1.391 . S
C60 H102 0.948 . S
C61 C60 1.391 . S
C61 C62 1.391 . S
C62 C61 1.391 . S
C62 H118 0.947 . S
C62 C119 1.392 . S
C63 C64 1.391 . S
C63 C67 1.397 . S
C63 C119 1.419 . S
C64 C60 1.391 . S
C64 C63 1.391 . S
C64 C65 1.399 . S
C65 C64 1.399 . S
C65 C68 1.396 . S
C65 C77 1.453 . S
C65 C78 1.684 . S
H66 C90 0.948 . S
C67 C63 1.397 . S
C67 C68 1.394 . S
C67 C86 1.723 . S
C68 C65 1.396 . S
C68 C67 1.394 . S
C68 C98 1.723 . S
H69 C92 0.947 . S
H70 C93 0.948 . S
H71 C99 0.982 . S
H72 C100 0.979 . S
H73 C100 0.980 . S
H74 C100 0.983 . S
H75 C99 0.979 . S
H76 C99 0.977 . S
C77 C65 1.453 . S
C77 H106 0.982 . S
C77 H107 0.979 . S
C77 H108 0.977 . S
C78 C65 1.684 . S
C78 H103 0.979 . S
C78 H104 0.980 . S
C78 H105 0.983 . S
C79 C80 1.391 . S
C79 C84 1.391 . S
C79 H109 0.948 . S
C80 C79 1.391 . S
C80 C81 1.391 . S
C81 C80 1.391 . S
C81 C82 1.392 . S
C81 H110 0.947 . S
C82 C81 1.392 . S
C82 C83 1.419 . S
C82 H111 0.948 . S
C83 C82 1.419 . S
C83 C84 1.391 . S
C83 C87 1.397 . S
C84 C79 1.391 . S
C84 C83 1.391 . S
C84 C85 1.399 . S
C85 C84 1.399 . S
C85 C86 1.396 . S
C85 C88 1.453 . S
C85 C89 1.684 . S
C86 C67 1.723 . S
C86 C85 1.396 . S
C86 C87 1.394 . S
C87 C83 1.397 . S
C87 C86 1.394 . S
C87 C97 1.723 . S
C88 C85 1.453 . S
C88 H112 0.982 . S
C88 H113 0.979 . S
C88 H114 0.977 . S
C89 C85 1.684 . S
C89 H115 0.979 . S
C89 H116 0.980 . S
C89 H117 0.983 . S
C90 H66 0.948 . S
C90 C91 1.391 . S
C90 C95 1.391 . S
C91 C90 1.391 . S
C91 C92 1.391 . S
C92 H69 0.947 . S
C92 C91 1.391 . S
C92 C93 1.392 . S
C93 H70 0.948 . S
C93 C92 1.392 . S
C93 C94 1.419 . S
C94 C93 1.419 . S
C94 C95 1.391 . S
C94 C98 1.397 . S
C95 C90 1.391 . S
C95 C94 1.391 . S
C95 C96 1.399 . S
C96 C95 1.399 . S
C96 C97 1.396 . S
C96 C99 1.453 . S
C96 C100 1.684 . S
C97 C87 1.723 . S
C97 C96 1.396 . S
C97 C98 1.394 . S
C98 C68 1.723 . S
C98 C94 1.397 . S
C98 C97 1.394 . S
C99 H71 0.982 . S
C99 H75 0.979 . S
C99 H76 0.977 . S
C99 C96 1.453 . S
C100 H72 0.979 . S
C100 H73 0.980 . S
C100 H74 0.983 . S
C100 C96 1.684 . S
H101 C119 0.948 . S
H102 C60 0.948 . S
H103 C78 0.979 . S
H104 C78 0.980 . S
H105 C78 0.983 . S
H106 C77 0.982 . S
H107 C77 0.979 . S
H108 C77 0.977 . S
H109 C79 0.948 . S
H110 C81 0.947 . S
H111 C82 0.948 . S
H112 C88 0.982 . S
H113 C88 0.979 . S
H114 C88 0.977 . S
H115 C89 0.979 . S
H116 C89 0.980 . S
H117 C89 0.983 . S
H118 C62 0.947 . S
C119 C62 1.392 . S
C119 C63 1.419 . S
C119 H101 0.948 . S
C120 C121 1.362 1_554 S
C120 C124 1.391 . S
C120 H162 0.948 . S
C121 C120 1.362 1_556 S
C121 C122 1.400 . S
C122 C121 1.400 . S
C122 H178 0.947 . S
C122 C179 1.392 1_556 S
C123 C124 1.391 . S
C123 C127 1.397 . S
C123 C179 1.419 . S
C124 C120 1.391 . S
C124 C123 1.391 . S
C124 C125 1.399 . S
C125 C124 1.399 . S
C125 C128 1.396 . S
C125 C137 1.453 . S
C125 C138 1.684 1_655 S
H126 C150 0.948 . S
C127 C123 1.397 . S
C127 C128 1.394 . S
C127 C146 1.723 . S
C128 C125 1.396 . S
C128 C127 1.394 . S
C128 C158 1.723 . S
H129 C152 0.947 . S
H130 C153 0.932 1_455 S
H131 C159 0.982 . S
H132 C160 0.979 . S
H133 C160 0.980 . S
H134 C160 0.983 . S
H135 C159 0.979 . S
H136 C159 0.977 . S
C137 C125 1.453 . S
C137 H166 0.982 . S
C137 H167 0.979 . S
C137 H168 0.977 . S
C138 C125 1.684 1_455 S
C138 H163 0.979 . S
C138 H164 0.980 . S
C138 H165 0.983 . S
C139 C140 1.391 . S
C139 C144 1.391 . S
C139 H169 0.948 . S
C140 C139 1.391 . S
C140 C141 1.391 . S
C141 C140 1.391 . S
C141 C142 1.392 . S
C141 H170 0.947 . S
C142 C141 1.392 . S
C142 C143 1.419 . S
C142 H171 0.948 . S
C143 C142 1.419 . S
C143 C144 1.391 . S
C143 C147 1.397 . S
C144 C139 1.391 . S
C144 C143 1.391 . S
C144 C145 1.399 . S
C145 C144 1.399 . S
C145 C146 1.396 . S
C145 C148 1.453 . S
C145 C149 1.684 . S
C146 C127 1.723 . S
C146 C145 1.396 . S
C146 C147 1.394 . S
C147 C143 1.397 . S
C147 C146 1.394 . S
C147 C157 1.723 . S
C148 C145 1.453 . S
C148 H172 0.982 . S
C148 H173 0.979 . S
C148 H174 0.977 . S
C149 C145 1.684 . S
C149 H175 0.979 1_554 S
C149 H176 0.980 1_554 S
C149 H177 0.983 1_554 S
C150 H126 0.948 . S
C150 C151 1.391 1_655 S
C150 C155 1.391 . S
C151 C150 1.391 1_455 S
C151 C152 1.391 . S
C152 H129 0.947 . S
C152 C151 1.391 . S
C152 C153 1.392 1_455 S
C153 H130 0.932 1_655 S
C153 C152 1.392 1_655 S
C153 C154 1.419 . S
C154 C153 1.419 . S
C154 C155 1.391 . S
C154 C158 1.397 . S
C155 C150 1.391 . S
C155 C154 1.391 . S
C155 C156 1.399 . S
C156 C155 1.399 . S
C156 C157 1.396 . S
C156 C159 1.453 . S
C156 C160 1.684 . S
C157 C147 1.723 . S
C157 C156 1.396 . S
C157 C158 1.394 . S
C158 C128 1.723 . S
C158 C154 1.397 . S
C158 C157 1.394 . S
C159 H131 0.982 . S
C159 H135 0.979 . S
C159 H136 0.977 . S
C159 C156 1.453 . S
C160 H132 0.979 . S
C160 H133 0.980 . S
C160 H134 0.983 . S
C160 C156 1.684 . S
H161 C179 0.948 . S
H162 C120 0.948 . S
H163 C138 0.979 . S
H164 C138 0.980 . S
H165 C138 0.983 . S
H166 C137 0.982 . S
H167 C137 0.979 . S
H168 C137 0.977 . S
H169 C139 0.948 . S
H170 C141 0.947 . S
H171 C142 0.948 . S
H172 C148 0.982 . S
H173 C148 0.979 . S
H174 C148 0.977 . S
H175 C149 0.979 1_556 S
H176 C149 0.980 1_556 S
H177 C149 0.983 1_556 S
H178 C122 0.947 . S
C179 C122 1.392 1_554 S
C179 C123 1.419 . S
C179 H161 0.948 . S
C180 C181 1.391 . S
C180 C184 1.391 . S
C180 H222 0.948 . S
C181 C180 1.391 . S
C181 C182 1.391 . S
C182 C181 1.391 . S
C182 H238 0.947 . S
C182 C239 1.392 . S
C183 C184 1.391 . S
C183 C187 1.397 . S
C183 C239 1.419 . S
C184 C180 1.391 . S
C184 C183 1.391 . S
C184 C185 1.399 . S
C185 C184 1.399 . S
C185 C188 1.396 . S
C185 C197 1.453 . S
C185 C198 1.684 . S
H186 C210 0.948 . S
C187 C183 1.397 . S
C187 C188 1.394 . S
C187 C206 1.723 . S
C188 C185 1.396 . S
C188 C187 1.394 . S
C188 C218 1.723 . S
H189 C212 0.947 . S
H190 C213 0.948 . S
H191 C219 0.982 . S
H192 C220 0.979 . S
H193 C220 0.980 . S
H194 C220 0.983 . S
H195 C219 0.979 . S
H196 C219 0.977 . S
C197 C185 1.453 . S
C197 H226 0.982 . S
C197 H227 0.979 . S
C197 H228 0.977 . S
C198 C185 1.684 . S
C198 H223 0.979 . S
C198 H224 0.980 . S
C198 H225 0.983 . S
C199 C200 1.391 . S
C199 C204 1.391 . S
C199 H229 0.948 . S
C200 C199 1.391 . S
C200 C201 1.391 . S
C201 C200 1.391 . S
C201 C202 1.392 . S
C201 H230 0.947 . S
C202 C201 1.392 . S
C202 C203 1.419 . S
C202 H231 0.948 . S
C203 C202 1.419 . S
C203 C204 1.391 . S
C203 C207 1.397 . S
C204 C199 1.391 . S
C204 C203 1.391 . S
C204 C205 1.399 . S
C205 C204 1.399 . S
C205 C206 1.396 . S
C205 C208 1.453 . S
C205 C209 1.684 . S
C206 C187 1.723 . S
C206 C205 1.396 . S
C206 C207 1.394 . S
C207 C203 1.397 . S
C207 C206 1.394 . S
C207 C217 1.723 . S
C208 C205 1.453 . S
C208 H232 0.982 . S
C208 H233 0.979 . S
C208 H234 0.977 . S
C209 C205 1.684 . S
C209 H235 0.979 . S
C209 H236 0.980 . S
C209 H237 0.983 . S
C210 H186 0.948 . S
C210 C211 1.391 . S
C210 C215 1.391 . S
C211 C210 1.391 . S
C211 C212 1.391 . S
C212 H189 0.947 . S
C212 C211 1.391 . S
C212 C213 1.392 . S
C213 H190 0.948 . S
C213 C212 1.392 . S
C213 C214 1.419 . S
C214 C213 1.419 . S
C214 C215 1.391 . S
C214 C218 1.397 . S
C215 C210 1.391 . S
C215 C214 1.391 . S
C215 C216 1.399 . S
C216 C215 1.399 . S
C216 C217 1.396 . S
C216 C219 1.453 . S
C216 C220 1.684 . S
C217 C207 1.723 . S
C217 C216 1.396 . S
C217 C218 1.394 . S
C218 C188 1.723 . S
C218 C214 1.397 . S
C218 C217 1.394 . S
C219 H191 0.982 . S
C219 H195 0.979 . S
C219 H196 0.977 . S
C219 C216 1.453 . S
C220 H192 0.979 . S
C220 H193 0.980 . S
C220 H194 0.983 . S
C220 C216 1.684 . S
H221 C239 0.948 . S
H222 C180 0.948 . S
H223 C198 0.979 . S
H224 C198 0.980 . S
H225 C198 0.983 . S
H226 C197 0.982 . S
H227 C197 0.979 . S
H228 C197 0.977 . S
H229 C199 0.948 . S
H230 C201 0.947 . S
H231 C202 0.948 . S
H232 C208 0.982 . S
H233 C208 0.979 . S
H234 C208 0.977 . S
H235 C209 0.979 . S
H236 C209 0.980 . S
H237 C209 0.983 . S
H238 C182 0.947 . S
C239 C182 1.392 . S
C239 C183 1.419 . S
C239 H221 0.948 . S
C240 C241 1.391 . S
C240 C244 1.391 . S
C240 H282 0.948 . S
C241 C240 1.391 . S
C241 C242 1.391 . S
C242 C241 1.391 . S
C242 H298 0.947 . S
C242 C299 1.392 . S
C243 C244 1.391 . S
C243 C247 1.397 . S
C243 C299 1.419 . S
C244 C240 1.391 . S
C244 C243 1.391 . S
C244 C245 1.399 . S
C245 C244 1.399 . S
C245 C248 1.396 . S
C245 C257 1.453 . S
C245 C258 1.684 . S
H246 C270 0.938 1_545 S
C247 C243 1.397 . S
C247 C248 1.394 . S
C247 C266 1.723 . S
C248 C245 1.396 . S
C248 C247 1.394 . S
C248 C278 1.723 . S
H249 C272 0.947 . S
H250 C273 0.948 . S
H251 C279 0.982 . S
H252 C280 0.979 . S
H253 C280 0.980 . S
H254 C280 0.948 1_545 S
H255 C279 0.979 . S
H256 C279 0.977 1_565 S
C257 C245 1.453 . S
C257 H286 0.982 . S
C257 H287 0.979 . S
C257 H288 0.977 . S
C258 C245 1.684 . S
C258 H283 0.979 . S
C258 H284 0.980 . S
C258 H285 0.983 . S
C259 C260 1.391 . S
C259 C264 1.391 . S
C259 H289 0.948 1_455 S
C260 C259 1.391 . S
C260 C261 1.391 . S
C261 C260 1.391 . S
C261 C262 1.392 . S
C261 H290 0.947 . S
C262 C261 1.392 . S
C262 C263 1.419 . S
C262 H291 0.948 . S
C263 C262 1.419 . S
C263 C264 1.391 . S
C263 C267 1.397 . S
C264 C259 1.391 . S
C264 C263 1.391 . S
C264 C265 1.399 . S
C265 C264 1.399 . S
C265 C266 1.396 . S
C265 C268 1.453 . S
C265 C269 1.684 . S
C266 C247 1.723 . S
C266 C265 1.396 . S
C266 C267 1.394 . S
C267 C263 1.397 . S
C267 C266 1.394 . S
C267 C277 1.723 . S
C268 C265 1.453 . S
C268 H292 0.971 1_455 S
C268 H293 0.979 1_455 S
C268 H294 0.977 . S
C269 C265 1.684 . S
C269 H295 0.979 . S
C269 H296 0.980 . S
C269 H297 0.983 . S
C270 H246 0.938 1_565 S
C270 C271 1.392 . S
C270 C275 1.400 . S
C271 C270 1.392 . S
C271 C272 1.391 . S
C272 H249 0.947 . S
C272 C271 1.391 . S
C272 C273 1.392 . S
C273 H250 0.948 . S
C273 C272 1.392 . S
C273 C274 1.419 . S
C274 C273 1.419 . S
C274 C275 1.391 . S
C274 C278 1.397 . S
C275 C270 1.400 . S
C275 C274 1.391 . S
C275 C276 1.399 . S
C276 C275 1.399 . S
C276 C277 1.396 . S
C276 C279 1.453 1_565 S
C276 C280 1.684 . S
C277 C267 1.723 . S
C277 C276 1.396 . S
C277 C278 1.394 . S
C278 C248 1.723 . S
C278 C274 1.397 . S
C278 C277 1.394 . S
C279 H251 0.982 . S
C279 H255 0.979 . S
C279 H256 0.977 1_545 S
C279 C276 1.453 1_545 S
C280 H252 0.979 . S
C280 H253 0.980 . S
C280 H254 0.948 1_565 S
C280 C276 1.684 . S
H281 C299 0.948 . S
H282 C240 0.948 . S
H283 C258 0.979 . S
H284 C258 0.980 . S
H285 C258 0.983 . S
H286 C257 0.982 . S
H287 C257 0.979 . S
H288 C257 0.977 . S
H289 C259 0.948 1_655 S
H290 C261 0.947 . S
H291 C262 0.948 . S
H292 C268 0.971 1_655 S
H293 C268 0.979 1_655 S
H294 C268 0.977 . S
H295 C269 0.979 . S
H296 C269 0.980 . S
H297 C269 0.983 . S
H298 C242 0.947 . S
C299 C242 1.392 . S
C299 C243 1.419 . S
C299 H281 0.948 . S
C300 C301 1.391 . S
C300 C304 1.391 . S
C300 H342 0.948 . S
C301 C300 1.391 . S
C301 C302 1.391 . S
C302 C301 1.391 . S
C302 H358 0.947 . S
C302 C359 1.392 . S
C303 C304 1.391 . S
C303 C307 1.397 . S
C303 C359 1.419 . S
C304 C300 1.391 . S
C304 C303 1.391 . S
C304 C305 1.399 . S
C305 C304 1.399 . S
C305 C308 1.396 . S
C305 C317 1.453 . S
C305 C318 1.684 . S
H306 C330 0.948 . S
C307 C303 1.397 . S
C307 C308 1.394 . S
C307 C326 1.723 . S
C308 C305 1.396 . S
C308 C307 1.394 . S
C308 C338 1.723 . S
H309 C332 0.947 . S
H310 C333 0.948 . S
H311 C339 0.982 . S
H312 C340 0.979 . S
H313 C340 0.980 . S
H314 C340 0.983 . S
H315 C339 0.979 . S
H316 C339 0.977 . S
C317 C305 1.453 . S
C317 H346 0.982 . S
C317 H347 0.979 . S
C317 H348 0.977 . S
C318 C305 1.684 . S
C318 H343 0.979 . S
C318 H344 0.980 . S
C318 H345 0.983 . S
C319 C320 1.391 . S
C319 C324 1.391 . S
C319 H349 0.948 . S
C320 C319 1.391 . S
C320 C321 1.391 . S
C321 C320 1.391 . S
C321 C322 1.392 . S
C321 H350 0.947 . S
C322 C321 1.392 . S
C322 C323 1.419 . S
C322 H351 0.948 . S
C323 C322 1.419 . S
C323 C324 1.391 . S
C323 C327 1.397 . S
C324 C319 1.391 . S
C324 C323 1.391 . S
C324 C325 1.399 . S
C325 C324 1.399 . S
C325 C326 1.396 . S
C325 C328 1.453 . S
C325 C329 1.684 . S
C326 C307 1.723 . S
C326 C325 1.396 . S
C326 C327 1.394 . S
C327 C323 1.397 . S
C327 C326 1.394 . S
C327 C337 1.723 . S
C328 C325 1.453 . S
C328 H352 0.982 . S
C328 H353 0.979 . S
C328 H354 0.977 . S
C329 C325 1.684 . S
C329 H355 0.979 . S
C329 H356 0.980 . S
C329 H357 0.983 . S
C330 H306 0.948 . S
C330 C331 1.391 . S
C330 C335 1.391 . S
C331 C330 1.391 . S
C331 C332 1.391 . S
C332 H309 0.947 . S
C332 C331 1.391 . S
C332 C333 1.392 . S
C333 H310 0.948 . S
C333 C332 1.392 . S
C333 C334 1.419 . S
C334 C333 1.419 . S
C334 C335 1.391 . S
C334 C338 1.397 . S
C335 C330 1.391 . S
C335 C334 1.391 . S
C335 C336 1.399 . S
C336 C335 1.399 . S
C336 C337 1.396 . S
C336 C339 1.453 . S
C336 C340 1.684 . S
C337 C327 1.723 . S
C337 C336 1.396 . S
C337 C338 1.394 . S
C338 C308 1.723 . S
C338 C334 1.397 . S
C338 C337 1.394 . S
C339 H311 0.982 . S
C339 H315 0.979 . S
C339 H316 0.977 . S
C339 C336 1.453 . S
C340 H312 0.979 . S
C340 H313 0.980 . S
C340 H314 0.983 . S
C340 C336 1.684 . S
H341 C359 0.948 . S
H342 C300 0.948 . S
H343 C318 0.979 . S
H344 C318 0.980 . S
H345 C318 0.983 . S
H346 C317 0.982 . S
H347 C317 0.979 . S
H348 C317 0.977 . S
H349 C319 0.948 . S
H350 C321 0.947 . S
H351 C322 0.948 . S
H352 C328 0.982 . S
H353 C328 0.979 . S
H354 C328 0.977 . S
H355 C329 0.979 . S
H356 C329 0.980 . S
H357 C329 0.983 . S
H358 C302 0.947 . S
C359 C302 1.392 . S
C359 C303 1.419 . S
C359 H341 0.948 . S
C360 C361 1.391 . S
C360 C364 1.391 . S
C360 H402 0.948 . S
C361 C360 1.391 . S
C361 C362 1.391 . S
C362 C361 1.391 . S
C362 H418 0.947 . S
C362 C419 1.392 . S
C363 C364 1.391 . S
C363 C367 1.397 . S
C363 C419 1.419 . S
C364 C360 1.391 . S
C364 C363 1.391 . S
C364 C365 1.399 . S
C365 C364 1.399 . S
C365 C368 1.396 . S
C365 C377 1.453 . S
C365 C378 1.684 . S
H366 C390 0.948 . S
C367 C363 1.397 . S
C367 C368 1.394 . S
C367 C386 1.723 . S
C368 C365 1.396 . S
C368 C367 1.394 . S
C368 C398 1.723 . S
H369 C392 0.947 . S
H370 C393 0.948 . S
H371 C399 0.982 . S
H372 C400 0.979 . S
H373 C400 0.980 . S
H374 C400 0.983 . S
H375 C399 0.979 . S
H376 C399 0.977 . S
C377 C365 1.453 . S
C377 H406 0.982 . S
C377 H407 0.979 . S
C377 H408 0.977 . S
C378 C365 1.684 . S
C378 H403 0.979 . S
C378 H404 0.980 . S
C378 H405 0.983 . S
C379 C380 1.391 1_655 S
C379 C384 1.391 . S
C379 H409 0.948 . S
C380 C379 1.391 1_455 S
C380 C381 1.391 . S
C381 C380 1.391 . S
C381 C382 1.392 . S
C381 H410 0.947 . S
C382 C381 1.392 . S
C382 C383 1.419 1_455 S
C382 H411 0.948 . S
C383 C382 1.419 1_655 S
C383 C384 1.391 . S
C383 C387 1.397 . S
C384 C379 1.391 . S
C384 C383 1.391 . S
C384 C385 1.399 . S
C385 C384 1.399 . S
C385 C386 1.396 . S
C385 C388 1.453 . S
C385 C389 1.684 . S
C386 C367 1.723 . S
C386 C385 1.396 . S
C386 C387 1.394 . S
C387 C383 1.397 . S
C387 C386 1.394 . S
C387 C397 1.723 . S
C388 C385 1.453 . S
C388 H412 0.982 . S
C388 H413 0.979 . S
C388 H414 0.977 . S
C389 C385 1.684 . S
C389 H415 0.979 . S
C389 H416 0.980 . S
C389 H417 0.983 . S
C390 H366 0.948 . S
C390 C391 1.391 . S
C390 C395 1.391 . S
C391 C390 1.391 . S
C391 C392 1.391 . S
C392 H369 0.947 . S
C392 C391 1.391 . S
C392 C393 1.392 . S
C393 H370 0.948 . S
C393 C392 1.392 . S
C393 C394 1.419 . S
C394 C393 1.419 . S
C394 C395 1.391 . S
C394 C398 1.397 . S
C395 C390 1.391 . S
C395 C394 1.391 . S
C395 C396 1.399 . S
C396 C395 1.399 . S
C396 C397 1.396 . S
C396 C399 1.453 . S
C396 C400 1.684 1_655 S
C397 C387 1.723 . S
C397 C396 1.396 . S
C397 C398 1.394 . S
C398 C368 1.723 . S
C398 C394 1.397 . S
C398 C397 1.394 . S
C399 H371 0.982 . S
C399 H375 0.979 . S
C399 H376 0.977 . S
C399 C396 1.453 . S
C400 H372 0.979 . S
C400 H373 0.980 . S
C400 H374 0.983 . S
C400 C396 1.684 1_455 S
H401 C419 0.948 . S
H402 C360 0.948 . S
H403 C378 0.979 . S
H404 C378 0.980 . S
H405 C378 0.983 . S
H406 C377 0.982 . S
H407 C377 0.979 . S
H408 C377 0.977 . S
H409 C379 0.948 . S
H410 C381 0.947 . S
H411 C382 0.948 . S
H412 C388 0.982 . S
H413 C388 0.979 . S
H414 C388 0.977 . S
H415 C389 0.979 . S
H416 C389 0.980 . S
H417 C389 0.983 . S
H418 C362 0.947 . S
C419 C362 1.392 . S
C419 C363 1.419 . S
C419 H401 0.948 . S
C420 C421 1.391 . S
C420 C424 1.391 . S
C420 H462 0.948 . S
C421 C420 1.391 . S
C421 C422 1.391 . S
C422 C421 1.391 . S
C422 H478 0.947 . S
C422 C479 1.392 . S
C423 C424 1.391 . S
C423 C427 1.397 . S
C423 C479 1.419 . S
C424 C420 1.391 . S
C424 C423 1.391 . S
C424 C425 1.399 . S
C425 C424 1.399 . S
C425 C428 1.396 . S
C425 C437 1.453 . S
C425 C438 1.684 . S
H426 C450 0.948 . S
C427 C423 1.397 . S
C427 C428 1.394 . S
C427 C446 1.723 . S
C428 C425 1.396 . S
C428 C427 1.394 . S
C428 C458 1.723 . S
H429 C452 0.947 . S
H430 C453 0.948 . S
H431 C459 0.982 . S
H432 C460 0.979 . S
H433 C460 0.980 . S
H434 C460 0.983 . S
H435 C459 0.979 . S
H436 C459 0.977 . S
C437 C425 1.453 . S
C437 H466 0.982 . S
C437 H467 0.979 . S
C437 H468 0.977 . S
C438 C425 1.684 . S
C438 H463 0.979 . S
C438 H464 0.980 . S
C438 H465 0.983 . S
C439 C440 1.391 . S
C439 C444 1.391 . S
C439 H469 0.948 . S
C440 C439 1.391 . S
C440 C441 1.391 . S
C441 C440 1.391 . S
C441 C442 1.392 . S
C441 H470 0.947 . S
C442 C441 1.392 . S
C442 C443 1.419 . S
C442 H471 0.948 . S
C443 C442 1.419 . S
C443 C444 1.391 . S
C443 C447 1.397 . S
C444 C439 1.391 . S
C444 C443 1.391 . S
C444 C445 1.399 . S
C445 C444 1.399 . S
C445 C446 1.396 . S
C445 C448 1.453 . S
C445 C449 1.684 . S
C446 C427 1.723 . S
C446 C445 1.396 . S
C446 C447 1.394 . S
C447 C443 1.397 . S
C447 C446 1.394 . S
C447 C457 1.723 . S
C448 C445 1.453 . S
C448 H472 0.982 . S
C448 H473 0.979 . S
C448 H474 0.977 . S
C449 C445 1.684 . S
C449 H475 0.979 . S
C449 H476 0.980 . S
C449 H477 0.983 . S
C450 H426 0.948 . S
C450 C451 1.391 . S
C450 C455 1.391 . S
C451 C450 1.391 . S
C451 C452 1.391 . S
C452 H429 0.947 . S
C452 C451 1.391 . S
C452 C453 1.392 . S
C453 H430 0.948 . S
C453 C452 1.392 . S
C453 C454 1.419 . S
C454 C453 1.419 . S
C454 C455 1.391 . S
C454 C458 1.397 . S
C455 C450 1.391 . S
C455 C454 1.391 . S
C455 C456 1.399 . S
C456 C455 1.399 . S
C456 C457 1.396 . S
C456 C459 1.453 . S
C456 C460 1.684 . S
C457 C447 1.723 . S
C457 C456 1.396 . S
C457 C458 1.394 . S
C458 C428 1.723 . S
C458 C454 1.397 . S
C458 C457 1.394 . S
C459 H431 0.982 . S
C459 H435 0.979 . S
C459 H436 0.977 . S
C459 C456 1.453 . S
C460 H432 0.979 . S
C460 H433 0.980 . S
C460 H434 0.983 . S
C460 C456 1.684 . S
H461 C479 0.948 . S
H462 C420 0.948 . S
H463 C438 0.979 . S
H464 C438 0.980 . S
H465 C438 0.983 . S
H466 C437 0.982 . S
H467 C437 0.979 . S
H468 C437 0.977 . S
H469 C439 0.948 . S
H470 C441 0.947 . S
H471 C442 0.948 . S
H472 C448 0.982 . S
H473 C448 0.979 . S
H474 C448 0.977 . S
H475 C449 0.979 . S
H476 C449 0.980 . S
H477 C449 0.983 . S
H478 C422 0.947 . S
C479 C422 1.392 . S
C479 C423 1.419 . S
C479 H461 0.948 . S
C480 C481 1.391 . S
C480 C484 1.391 . S
C480 H522 0.948 . S
C481 C480 1.391 . S
C481 C482 1.391 . S
C482 C481 1.391 . S
C482 H538 0.947 . S
C482 C539 1.392 . S
C483 C484 1.391 . S
C483 C487 1.397 . S
C483 C539 1.419 . S
C484 C480 1.391 . S
C484 C483 1.391 . S
C484 C485 1.399 . S
C485 C484 1.399 . S
C485 C488 1.396 . S
C485 C497 1.453 . S
C485 C498 1.684 . S
H486 C510 0.948 . S
C487 C483 1.397 . S
C487 C488 1.394 . S
C487 C506 1.723 . S
C488 C485 1.396 . S
C488 C487 1.394 . S
C488 C518 1.723 . S
H489 C512 0.947 . S
H490 C513 0.948 . S
H491 C519 0.982 . S
H492 C520 0.979 . S
H493 C520 0.980 . S
H494 C520 0.983 . S
H495 C519 0.979 . S
H496 C519 0.977 . S
C497 C485 1.453 . S
C497 H526 0.982 . S
C497 H527 0.979 . S
C497 H528 0.977 . S
C498 C485 1.684 . S
C498 H523 0.979 . S
C498 H524 0.980 . S
C498 H525 0.983 . S
C499 C500 1.391 . S
C499 C504 1.391 . S
C499 H529 0.948 . S
C500 C499 1.391 . S
C500 C501 1.391 . S
C501 C500 1.391 . S
C501 C502 1.392 . S
C501 H530 0.947 . S
C502 C501 1.392 . S
C502 C503 1.419 . S
C502 H531 0.948 . S
C503 C502 1.419 . S
C503 C504 1.391 . S
C503 C507 1.397 . S
C504 C499 1.391 . S
C504 C503 1.391 . S
C504 C505 1.399 . S
C505 C504 1.399 . S
C505 C506 1.396 . S
C505 C508 1.453 . S
C505 C509 1.684 . S
C506 C487 1.723 . S
C506 C505 1.396 . S
C506 C507 1.394 . S
C507 C503 1.397 . S
C507 C506 1.394 . S
C507 C517 1.723 . S
C508 C505 1.453 . S
C508 H532 0.982 . S
C508 H533 0.979 . S
C508 H534 0.977 . S
C509 C505 1.684 . S
C509 H535 0.979 . S
C509 H536 0.980 . S
C509 H537 0.983 . S
C510 H486 0.948 . S
C510 C511 1.391 . S
C510 C515 1.391 . S
C511 C510 1.391 . S
C511 C512 1.391 . S
C512 H489 0.947 . S
C512 C511 1.391 . S
C512 C513 1.392 . S
C513 H490 0.948 . S
C513 C512 1.392 . S
C513 C514 1.419 . S
C514 C513 1.419 . S
C514 C515 1.391 . S
C514 C518 1.397 . S
C515 C510 1.391 . S
C515 C514 1.391 . S
C515 C516 1.399 . S
C516 C515 1.399 . S
C516 C517 1.396 . S
C516 C519 1.453 . S
C516 C520 1.684 . S
C517 C507 1.723 . S
C517 C516 1.396 . S
C517 C518 1.394 . S
C518 C488 1.723 . S
C518 C514 1.397 . S
C518 C517 1.394 . S
C519 H491 0.982 . S
C519 H495 0.979 . S
C519 H496 0.977 . S
C519 C516 1.453 . S
C520 H492 0.979 . S
C520 H493 0.980 . S
C520 H494 0.983 . S
C520 C516 1.684 . S
H521 C539 0.948 . S
H522 C480 0.948 . S
H523 C498 0.979 . S
H524 C498 0.980 . S
H525 C498 0.983 . S
H526 C497 0.982 . S
H527 C497 0.979 . S
H528 C497 0.977 . S
H529 C499 0.948 . S
H530 C501 0.947 . S
H531 C502 0.948 . S
H532 C508 0.982 . S
H533 C508 0.979 . S
H534 C508 0.977 . S
H535 C509 0.979 . S
H536 C509 0.980 . S
H537 C509 0.983 . S
H538 C482 0.947 . S
C539 C482 1.392 . S
C539 C483 1.419 . S
C539 H521 0.948 . S
C540 C541 1.391 . S
C540 C544 1.391 . S
C540 H582 0.948 . S
C541 C540 1.391 . S
C541 C542 1.391 . S
C542 C541 1.391 . S
C542 H598 0.947 . S
C542 C599 1.392 . S
C543 C544 1.391 . S
C543 C547 1.397 . S
C543 C599 1.419 . S
C544 C540 1.391 . S
C544 C543 1.391 . S
C544 C545 1.399 . S
C545 C544 1.399 . S
C545 C548 1.396 . S
C545 C557 1.453 . S
C545 C558 1.684 . S
H546 C570 0.948 . S
C547 C543 1.397 . S
C547 C548 1.394 . S
C547 C566 1.723 . S
C548 C545 1.396 . S
C548 C547 1.394 . S
C548 C578 1.723 . S
H549 C572 0.947 . S
H550 C573 0.948 . S
H551 C579 0.982 . S
H552 C580 0.979 . S
H553 C580 0.980 . S
H554 C580 0.983 . S
H555 C579 0.979 . S
H556 C579 0.977 . S
C557 C545 1.453 . S
C557 H586 0.982 . S
C557 H587 0.979 . S
C557 H588 0.977 . S
C558 C545 1.684 . S
C558 H583 0.979 . S
C558 H584 0.980 . S
C558 H585 0.983 . S
C559 C560 1.391 1_565 S
C559 C564 1.391 . S
C559 H589 0.948 . S
C560 C559 1.391 1_545 S
C560 C561 1.391 . S
C561 C560 1.391 . S
C561 C562 1.392 . S
C561 H590 0.947 . S
C562 C561 1.392 . S
C562 C563 1.419 1_545 S
C562 H591 0.948 . S
C563 C562 1.419 1_565 S
C563 C564 1.391 . S
C563 C567 1.397 . S
C564 C559 1.391 . S
C564 C563 1.391 . S
C564 C565 1.399 . S
C565 C564 1.399 . S
C565 C566 1.396 . S
C565 C568 1.453 . S
C565 C569 1.684 . S
C566 C547 1.723 . S
C566 C565 1.396 . S
C566 C567 1.394 . S
C567 C563 1.397 . S
C567 C566 1.394 . S
C567 C577 1.723 . S
C568 C565 1.453 . S
C568 H592 0.982 . S
C568 H593 0.979 . S
C568 H594 0.977 . S
C569 C565 1.684 . S
C569 H595 0.979 . S
C569 H596 0.980 . S
C569 H597 0.983 . S
C570 H546 0.948 . S
C570 C571 1.391 . S
C570 C575 1.391 . S
C571 C570 1.391 . S
C571 C572 1.391 . S
C572 H549 0.947 . S
C572 C571 1.391 . S
C572 C573 1.392 . S
C573 H550 0.948 . S
C573 C572 1.392 . S
C573 C574 1.419 . S
C574 C573 1.419 . S
C574 C575 1.391 . S
C574 C578 1.397 . S
C575 C570 1.391 . S
C575 C574 1.391 . S
C575 C576 1.399 . S
C576 C575 1.399 . S
C576 C577 1.396 . S
C576 C579 1.453 . S
C576 C580 1.684 1_565 S
C577 C567 1.723 . S
C577 C576 1.396 . S
C577 C578 1.394 . S
C578 C548 1.723 . S
C578 C574 1.397 . S
C578 C577 1.394 . S
C579 H551 0.982 . S
C579 H555 0.979 . S
C579 H556 0.977 . S
C579 C576 1.453 . S
C580 H552 0.979 . S
C580 H553 0.980 . S
C580 H554 0.983 . S
C580 C576 1.684 1_545 S
H581 C599 0.948 . S
H582 C540 0.948 . S
H583 C558 0.979 . S
H584 C558 0.980 . S
H585 C558 0.983 . S
H586 C557 0.982 . S
H587 C557 0.979 . S
H588 C557 0.977 . S
H589 C559 0.948 . S
H590 C561 0.947 . S
H591 C562 0.948 . S
H592 C568 0.982 . S
H593 C568 0.979 . S
H594 C568 0.977 . S
H595 C569 0.979 . S
H596 C569 0.980 . S
H597 C569 0.983 . S
H598 C542 0.947 . S
C599 C542 1.392 . S
C599 C543 1.419 . S
C599 H581 0.948 . S
C600 C601 1.391 . S
C600 C604 1.391 . S
C600 H642 0.948 . S
C601 C600 1.391 . S
C601 C602 1.391 . S
C602 C601 1.391 . S
C602 H658 0.947 . S
C602 C659 1.392 . S
C603 C604 1.391 . S
C603 C607 1.397 . S
C603 C659 1.419 . S
C604 C600 1.391 . S
C604 C603 1.391 . S
C604 C605 1.399 . S
C605 C604 1.399 . S
C605 C608 1.396 . S
C605 C617 1.453 . S
C605 C618 1.684 . S
H606 C630 0.948 . S
C607 C603 1.397 . S
C607 C608 1.394 . S
C607 C626 1.723 . S
C608 C605 1.396 . S
C608 C607 1.394 . S
C608 C638 1.723 . S
H609 C632 0.947 . S
H610 C633 0.948 . S
H611 C639 0.982 . S
H612 C640 0.979 . S
H613 C640 0.980 . S
H614 C640 0.983 . S
H615 C639 0.979 . S
H616 C639 0.977 . S
C617 C605 1.453 . S
C617 H646 0.982 . S
C617 H647 0.979 . S
C617 H648 0.977 . S
C618 C605 1.684 . S
C618 H643 0.979 . S
C618 H644 0.980 . S
C618 H645 0.983 . S
C619 C620 1.391 . S
C619 C624 1.391 . S
C619 H649 0.948 . S
C620 C619 1.391 . S
C620 C621 1.391 . S
C621 C620 1.391 . S
C621 C622 1.392 . S
C621 H650 0.947 . S
C622 C621 1.392 . S
C622 C623 1.419 . S
C622 H651 0.948 . S
C623 C622 1.419 . S
C623 C624 1.391 . S
C623 C627 1.397 . S
C624 C619 1.391 . S
C624 C623 1.391 . S
C624 C625 1.399 . S
C625 C624 1.399 . S
C625 C626 1.396 . S
C625 C628 1.453 . S
C625 C629 1.684 . S
C626 C607 1.723 . S
C626 C625 1.396 . S
C626 C627 1.394 . S
C627 C623 1.397 . S
C627 C626 1.394 . S
C627 C637 1.723 . S
C628 C625 1.453 . S
C628 H652 0.982 . S
C628 H653 0.979 . S
C628 H654 0.977 . S
C629 C625 1.684 . S
C629 H655 0.979 . S
C629 H656 0.980 . S
C629 H657 0.983 . S
C630 H606 0.948 . S
C630 C631 1.391 . S
C630 C635 1.391 . S
C631 C630 1.391 . S
C631 C632 1.391 . S
C632 H609 0.947 . S
C632 C631 1.391 . S
C632 C633 1.392 . S
C633 H610 0.948 . S
C633 C632 1.392 . S
C633 C634 1.419 . S
C634 C633 1.419 . S
C634 C635 1.391 . S
C634 C638 1.397 . S
C635 C630 1.391 . S
C635 C634 1.391 . S
C635 C636 1.399 . S
C636 C635 1.399 . S
C636 C637 1.396 . S
C636 C639 1.453 . S
C636 C640 1.684 . S
C637 C627 1.723 . S
C637 C636 1.396 . S
C637 C638 1.394 . S
C638 C608 1.723 . S
C638 C634 1.397 . S
C638 C637 1.394 . S
C639 H611 0.982 . S
C639 H615 0.979 . S
C639 H616 0.977 . S
C639 C636 1.453 . S
C640 H612 0.979 . S
C640 H613 0.980 . S
C640 H614 0.983 . S
C640 C636 1.684 . S
H641 C659 0.948 . S
H642 C600 0.948 . S
H643 C618 0.979 . S
H644 C618 0.980 . S
H645 C618 0.983 . S
H646 C617 0.982 . S
H647 C617 0.979 . S
H648 C617 0.977 . S
H649 C619 0.948 . S
H650 C621 0.947 . S
H651 C622 0.948 . S
H652 C628 0.982 . S
H653 C628 0.979 . S
H654 C628 0.977 . S
H655 C629 0.979 . S
H656 C629 0.980 . S
H657 C629 0.983 . S
H658 C602 0.947 . S
C659 C602 1.392 . S
C659 C603 1.419 . S
C659 H641 0.948 . S
C660 C661 1.391 . S
C660 C664 1.391 . S
C660 H702 0.948 . S
C661 C660 1.391 . S
C661 C662 1.391 . S
C662 C661 1.391 . S
C662 H718 0.947 . S
C662 C719 1.392 . S
C663 C664 1.391 . S
C663 C667 1.397 . S
C663 C719 1.419 . S
C664 C660 1.391 . S
C664 C663 1.391 . S
C664 C665 1.399 . S
C665 C664 1.399 . S
C665 C668 1.396 . S
C665 C677 1.453 . S
C665 C678 1.684 . S
H666 C690 0.948 . S
C667 C663 1.397 . S
C667 C668 1.394 . S
C667 C686 1.723 . S
C668 C665 1.396 . S
C668 C667 1.394 . S
C668 C698 1.723 . S
H669 C692 0.947 . S
H670 C693 0.948 . S
H671 C699 0.982 . S
H672 C700 0.979 . S
H673 C700 0.980 . S
H674 C700 0.983 . S
H675 C699 0.979 . S
H676 C699 0.977 . S
C677 C665 1.453 . S
C677 H706 0.982 . S
C677 H707 0.979 . S
C677 H708 0.977 . S
C678 C665 1.684 . S
C678 H703 0.979 . S
C678 H704 0.980 . S
C678 H705 0.983 . S
C679 C680 1.391 . S
C679 C684 1.391 . S
C679 H709 0.948 . S
C680 C679 1.391 . S
C680 C681 1.391 . S
C681 C680 1.391 . S
C681 C682 1.392 . S
C681 H710 0.947 . S
C682 C681 1.392 . S
C682 C683 1.419 . S
C682 H711 0.948 . S
C683 C682 1.419 . S
C683 C684 1.391 . S
C683 C687 1.397 . S
C684 C679 1.391 . S
C684 C683 1.391 . S
C684 C685 1.399 . S
C685 C684 1.399 . S
C685 C686 1.396 . S
C685 C688 1.453 . S
C685 C689 1.684 . S
C686 C667 1.723 . S
C686 C685 1.396 . S
C686 C687 1.394 . S
C687 C683 1.397 . S
C687 C686 1.394 . S
C687 C697 1.723 . S
C688 C685 1.453 . S
C688 H712 0.982 . S
C688 H713 0.979 . S
C688 H714 0.977 . S
C689 C685 1.684 . S
C689 H715 0.979 . S
C689 H716 0.980 . S
C689 H717 0.983 . S
C690 H666 0.948 . S
C690 C691 1.391 . S
C690 C695 1.391 . S
C691 C690 1.391 . S
C691 C692 1.391 . S
C692 H669 0.947 . S
C692 C691 1.391 . S
C692 C693 1.392 . S
C693 H670 0.948 . S
C693 C692 1.392 . S
C693 C694 1.419 . S
C694 C693 1.419 . S
C694 C695 1.391 . S
C694 C698 1.397 . S
C695 C690 1.391 . S
C695 C694 1.391 . S
C695 C696 1.399 . S
C696 C695 1.399 . S
C696 C697 1.396 . S
C696 C699 1.453 . S
C696 C700 1.684 . S
C697 C687 1.723 . S
C697 C696 1.396 . S
C697 C698 1.394 . S
C698 C668 1.723 . S
C698 C694 1.397 . S
C698 C697 1.394 . S
C699 H671 0.982 . S
C699 H675 0.979 . S
C699 H676 0.977 . S
C699 C696 1.453 . S
C700 H672 0.979 . S
C700 H673 0.980 . S
C700 H674 0.983 . S
C700 C696 1.684 . S
H701 C719 0.948 . S
H702 C660 0.948 . S
H703 C678 0.979 . S
H704 C678 0.980 . S
H705 C678 0.983 . S
H706 C677 0.982 . S
H707 C677 0.979 . S
H708 C677 0.977 . S
H709 C679 0.948 . S
H710 C681 0.947 . S
H711 C682 0.948 . S
H712 C688 0.982 . S
H713 C688 0.979 . S
H714 C688 0.977 . S
H715 C689 0.979 . S
H716 C689 0.980 . S
H717 C689 0.983 . S
H718 C662 0.947 . S
C719 C662 1.392 . S
C719 C663 1.419 . S
C719 H701 0.948 . S
C720 C721 1.391 . S
C720 C724 1.391 . S
C720 H762 0.948 . S
C721 C720 1.391 . S
C721 C722 1.391 . S
C722 C721 1.391 . S
C722 H778 0.947 . S
C722 C779 1.392 . S
C723 C724 1.391 . S
C723 C727 1.397 . S
C723 C779 1.419 . S
C724 C720 1.391 . S
C724 C723 1.391 . S
C724 C725 1.399 . S
C725 C724 1.399 . S
C725 C728 1.396 . S
C725 C737 1.453 . S
C725 C738 1.684 . S
H726 C750 0.948 . S
C727 C723 1.397 . S
C727 C728 1.394 . S
C727 C746 1.723 . S
C728 C725 1.396 . S
C728 C727 1.394 . S
C728 C758 1.723 . S
H729 C752 0.947 . S
H730 C753 0.948 . S
H731 C759 0.982 . S
H732 C760 0.979 . S
H733 C760 0.980 . S
H734 C760 0.983 . S
H735 C759 0.979 . S
H736 C759 0.977 . S
C737 C725 1.453 . S
C737 H766 0.982 . S
C737 H767 0.979 . S
C737 H768 0.977 . S
C738 C725 1.684 . S
C738 H763 0.979 . S
C738 H764 0.980 . S
C738 H765 0.983 . S
C739 C740 1.391 . S
C739 C744 1.391 . S
C739 H769 0.948 . S
C740 C739 1.391 . S
C740 C741 1.391 . S
C741 C740 1.391 . S
C741 C742 1.392 . S
C741 H770 0.947 . S
C742 C741 1.392 . S
C742 C743 1.419 . S
C742 H771 0.948 . S
C743 C742 1.419 . S
C743 C744 1.391 . S
C743 C747 1.397 . S
C744 C739 1.391 . S
C744 C743 1.391 . S
C744 C745 1.399 . S
C745 C744 1.399 . S
C745 C746 1.396 . S
C745 C748 1.453 . S
C745 C749 1.684 . S
C746 C727 1.723 . S
C746 C745 1.396 . S
C746 C747 1.394 . S
C747 C743 1.397 . S
C747 C746 1.394 . S
C747 C757 1.723 . S
C748 C745 1.453 . S
C748 H772 0.982 . S
C748 H773 0.979 . S
C748 H774 0.977 . S
C749 C745 1.684 . S
C749 H775 0.979 . S
C749 H776 0.980 . S
C749 H777 0.983 . S
C750 H726 0.948 . S
C750 C751 1.391 . S
C750 C755 1.391 . S
C751 C750 1.391 . S
C751 C752 1.391 . S
C752 H729 0.947 . S
C752 C751 1.391 . S
C752 C753 1.392 . S
C753 H730 0.948 . S
C753 C752 1.392 . S
C753 C754 1.419 . S
C754 C753 1.419 . S
C754 C755 1.391 . S
C754 C758 1.397 . S
C755 C750 1.391 . S
C755 C754 1.391 . S
C755 C756 1.399 . S
C756 C755 1.399 . S
C756 C757 1.396 . S
C756 C759 1.453 . S
C756 C760 1.684 . S
C757 C747 1.723 . S
C757 C756 1.396 . S
C757 C758 1.394 . S
C758 C728 1.723 . S
C758 C754 1.397 . S
C758 C757 1.394 . S
C759 H731 0.982 . S
C759 H735 0.979 . S
C759 H736 0.977 . S
C759 C756 1.453 . S
C760 H732 0.979 . S
C760 H733 0.980 . S
C760 H734 0.983 . S
C760 C756 1.684 . S
H761 C779 0.948 . S
H762 C720 0.948 . S
H763 C738 0.979 . S
H764 C738 0.980 . S
H765 C738 0.983 . S
H766 C737 0.982 . S
H767 C737 0.979 . S
H768 C737 0.977 . S
H769 C739 0.948 . S
H770 C741 0.947 . S
H771 C742 0.948 . S
H772 C748 0.982 . S
H773 C748 0.979 . S
H774 C748 0.977 . S
H775 C749 0.979 . S
H776 C749 0.980 . S
H777 C749 0.983 . S
H778 C722 0.947 . S
C779 C722 1.392 . S
C779 C723 1.419 . S
C779 H761 0.948 . S
C780 C781 1.391 . S
C780 C784 1.391 1_554 S
C780 H822 0.948 . S
C781 C780 1.391 . S
C781 C782 1.391 1_554 S
C782 C781 1.391 1_556 S
C782 H838 0.947 . S
C782 C839 1.392 . S
C783 C784 1.391 . S
C783 C787 1.397 . S
C783 C839 1.419 . S
C784 C780 1.391 1_556 S
C784 C783 1.391 . S
C784 C785 1.399 . S
C785 C784 1.399 . S
C785 C788 1.396 . S
C785 C797 1.453 1_556 S
C785 C798 1.684 . S
H786 C810 0.948 . S
C787 C783 1.397 . S
C787 C788 1.394 . S
C787 C806 1.723 . S
C788 C785 1.396 . S
C788 C787 1.394 . S
C788 C818 1.723 . S
H789 C812 0.947 . S
H790 C813 0.948 . S
H791 C819 0.982 . S
H792 C820 0.979 . S
H793 C820 0.980 . S
H794 C820 0.983 . S
H795 C819 0.979 . S
H796 C819 0.977 . S
C797 C785 1.453 1_554 S
C797 H826 0.982 . S
C797 H827 0.979 . S
C797 H828 0.977 . S
C798 C785 1.684 . S
C798 H823 0.979 . S
C798 H824 0.980 . S
C798 H825 0.983 1_556 S
C799 C800 1.391 . S
C799 C804 1.391 . S
C799 H829 0.948 . S
C800 C799 1.391 . S
C800 C801 1.391 . S
C801 C800 1.391 . S
C801 C802 1.392 . S
C801 H830 0.947 . S
C802 C801 1.392 . S
C802 C803 1.419 . S
C802 H831 0.948 . S
C803 C802 1.419 . S
C803 C804 1.391 . S
C803 C807 1.397 . S
C804 C799 1.391 . S
C804 C803 1.391 . S
C804 C805 1.399 . S
C805 C804 1.399 . S
C805 C806 1.396 . S
C805 C808 1.453 . S
C805 C809 1.684 . S
C806 C787 1.723 . S
C806 C805 1.396 . S
C806 C807 1.394 . S
C807 C803 1.397 . S
C807 C806 1.394 . S
C807 C817 1.723 . S
C808 C805 1.453 . S
C808 H832 0.982 . S
C808 H833 0.979 . S
C808 H834 0.977 . S
C809 C805 1.684 . S
C809 H835 0.979 . S
C809 H836 0.980 . S
C809 H837 0.983 . S
C810 H786 0.948 . S
C810 C811 1.391 . S
C810 C815 1.391 . S
C811 C810 1.391 . S
C811 C812 1.391 . S
C812 H789 0.947 . S
C812 C811 1.391 . S
C812 C813 1.392 . S
C813 H790 0.948 . S
C813 C812 1.392 . S
C813 C814 1.419 . S
C814 C813 1.419 . S
C814 C815 1.391 . S
C814 C818 1.397 . S
C815 C810 1.391 . S
C815 C814 1.391 . S
C815 C816 1.399 . S
C816 C815 1.399 . S
C816 C817 1.396 . S
C816 C819 1.453 . S
C816 C820 1.684 . S
C817 C807 1.723 . S
C817 C816 1.396 . S
C817 C818 1.394 . S
C818 C788 1.723 . S
C818 C814 1.397 . S
C818 C817 1.394 . S
C819 H791 0.982 . S
C819 H795 0.979 . S
C819 H796 0.977 . S
C819 C816 1.453 . S
C820 H792 0.979 . S
C820 H793 0.980 . S
C820 H794 0.983 . S
C820 C816 1.684 . S
H821 C839 0.948 . S
H822 C780 0.948 . S
H823 C798 0.979 . S
H824 C798 0.980 . S
H825 C798 0.983 1_554 S
H826 C797 0.982 . S
H827 C797 0.979 . S
H828 C797 0.977 . S
H829 C799 0.948 . S
H830 C801 0.947 . S
H831 C802 0.948 . S
H832 C808 0.982 . S
H833 C808 0.979 . S
H834 C808 0.977 . S
H835 C809 0.979 . S
H836 C809 0.980 . S
H837 C809 0.983 . S
H838 C782 0.947 . S
C839 C782 1.392 . S
C839 C783 1.419 . S
C839 H821 0.948 . S
C840 C841 1.391 . S
C840 C844 1.391 . S
C840 H882 0.948 . S
C841 C840 1.391 . S
C841 C842 1.391 . S
C842 C841 1.391 . S
C842 H898 0.947 . S
C842 C899 1.392 . S
C843 C844 1.391 . S
C843 C847 1.397 . S
C843 C899 1.419 . S
C844 C840 1.391 . S
C844 C843 1.391 . S
C844 C845 1.399 . S
C845 C844 1.399 . S
C845 C848 1.396 . S
C845 C857 1.453 . S
C845 C858 1.684 . S
H846 C870 0.948 . S
C847 C843 1.397 . S
C847 C848 1.394 . S
C847 C866 1.723 . S
C848 C845 1.396 . S
C848 C847 1.394 . S
C848 C878 1.723 . S
H849 C872 0.947 . S
H850 C873 0.948 . S
H851 C879 0.982 . S
H852 C880 0.979 . S
H853 C880 0.980 . S
H854 C880 0.983 . S
H855 C879 0.979 . S
H856 C879 0.977 . S
C857 C845 1.453 . S
C857 H886 0.982 . S
C857 H887 0.979 . S
C857 H888 0.977 . S
C858 C845 1.684 . S
C858 H883 0.979 . S
C858 H884 0.980 . S
C858 H885 0.983 . S
C859 C860 1.391 . S
C859 C864 1.391 . S
C859 H889 0.948 . S
C860 C859 1.391 . S
C860 C861 1.391 . S
C861 C860 1.391 . S
C861 C862 1.392 . S
C861 H890 0.947 . S
C862 C861 1.392 . S
C862 C863 1.419 . S
C862 H891 0.948 . S
C863 C862 1.419 . S
C863 C864 1.391 . S
C863 C867 1.397 . S
C864 C859 1.391 . S
C864 C863 1.391 . S
C864 C865 1.399 . S
C865 C864 1.399 . S
C865 C866 1.396 . S
C865 C868 1.453 . S
C865 C869 1.684 . S
C866 C847 1.723 . S
C866 C865 1.396 . S
C866 C867 1.394 . S
C867 C863 1.397 . S
C867 C866 1.394 . S
C867 C877 1.723 . S
C868 C865 1.453 . S
C868 H892 0.982 . S
C868 H893 0.979 . S
C868 H894 0.977 . S
C869 C865 1.684 . S
C869 H895 0.979 . S
C869 H896 0.980 . S
C869 H897 0.983 . S
C870 H846 0.948 . S
C870 C871 1.391 . S
C870 C875 1.391 . S
C871 C870 1.391 . S
C871 C872 1.391 . S
C872 H849 0.947 . S
C872 C871 1.391 . S
C872 C873 1.392 . S
C873 H850 0.948 . S
C873 C872 1.392 . S
C873 C874 1.419 . S
C874 C873 1.419 . S
C874 C875 1.391 . S
C874 C878 1.397 . S
C875 C870 1.391 . S
C875 C874 1.391 . S
C875 C876 1.399 . S
C876 C875 1.399 . S
C876 C877 1.396 . S
C876 C879 1.453 . S
C876 C880 1.684 . S
C877 C867 1.723 . S
C877 C876 1.396 . S
C877 C878 1.394 . S
C878 C848 1.723 . S
C878 C874 1.397 . S
C878 C877 1.394 . S
C879 H851 0.982 . S
C879 H855 0.979 . S
C879 H856 0.977 . S
C879 C876 1.453 . S
C880 H852 0.979 . S
C880 H853 0.980 . S
C880 H854 0.983 . S
C880 C876 1.684 . S
H881 C899 0.948 . S
H882 C840 0.948 . S
H883 C858 0.979 . S
H884 C858 0.980 . S
H885 C858 0.983 . S
H886 C857 0.982 . S
H887 C857 0.979 . S
H888 C857 0.977 . S
H889 C859 0.948 . S
H890 C861 0.947 . S
H891 C862 0.948 . S
H892 C868 0.982 . S
H893 C868 0.979 . S
H894 C868 0.977 . S
H895 C869 0.979 . S
H896 C869 0.980 . S
H897 C869 0.983 . S
H898 C842 0.947 . S
C899 C842 1.392 . S
C899 C843 1.419 . S
C899 H881 0.948 . S
C900 C901 1.362 1_545 S
C900 C904 1.391 . S
C900 H942 0.948 . S
C901 C900 1.362 1_565 S
C901 C902 1.400 . S
C902 C901 1.400 . S
C902 H958 0.947 . S
C902 C959 1.392 1_565 S
C903 C904 1.391 . S
C903 C907 1.397 . S
C903 C959 1.419 . S
C904 C900 1.391 . S
C904 C903 1.391 . S
C904 C905 1.399 . S
C905 C904 1.399 . S
C905 C908 1.396 . S
C905 C917 1.453 . S
C905 C918 1.684 1_556 S
H906 C930 0.948 . S
C907 C903 1.397 . S
C907 C908 1.394 . S
C907 C926 1.723 . S
C908 C905 1.396 . S
C908 C907 1.394 . S
C908 C938 1.723 . S
H909 C932 0.947 . S
H910 C933 0.932 1_554 S
H911 C939 0.982 . S
H912 C940 0.979 . S
H913 C940 0.980 . S
H914 C940 0.983 . S
H915 C939 0.979 . S
H916 C939 0.977 . S
C917 C905 1.453 . S
C917 H946 0.982 . S
C917 H947 0.979 . S
C917 H948 0.977 . S
C918 C905 1.684 1_554 S
C918 H943 0.979 . S
C918 H944 0.980 . S
C918 H945 0.983 . S
C919 C920 1.391 . S
C919 C924 1.391 . S
C919 H949 0.948 . S
C920 C919 1.391 . S
C920 C921 1.391 . S
C921 C920 1.391 . S
C921 C922 1.392 . S
C921 H950 0.947 . S
C922 C921 1.392 . S
C922 C923 1.419 . S
C922 H951 0.948 . S
C923 C922 1.419 . S
C923 C924 1.391 . S
C923 C927 1.397 . S
C924 C919 1.391 . S
C924 C923 1.391 . S
C924 C925 1.399 . S
C925 C924 1.399 . S
C925 C926 1.396 . S
C925 C928 1.453 . S
C925 C929 1.684 . S
C926 C907 1.723 . S
C926 C925 1.396 . S
C926 C927 1.394 . S
C927 C923 1.397 . S
C927 C926 1.394 . S
C927 C937 1.723 . S
C928 C925 1.453 . S
C928 H952 0.982 . S
C928 H953 0.979 . S
C928 H954 0.977 . S
C929 C925 1.684 . S
C929 H955 0.979 1_545 S
C929 H956 0.980 1_545 S
C929 H957 0.983 1_545 S
C930 H906 0.948 . S
C930 C931 1.391 1_556 S
C930 C935 1.391 . S
C931 C930 1.391 1_554 S
C931 C932 1.391 . S
C932 H909 0.947 . S
C932 C931 1.391 . S
C932 C933 1.392 1_554 S
C933 H910 0.932 1_556 S
C933 C932 1.392 1_556 S
C933 C934 1.419 . S
C934 C933 1.419 . S
C934 C935 1.391 . S
C934 C938 1.397 . S
C935 C930 1.391 . S
C935 C934 1.391 . S
C935 C936 1.399 . S
C936 C935 1.399 . S
C936 C937 1.396 . S
C936 C939 1.453 . S
C936 C940 1.684 . S
C937 C927 1.723 . S
C937 C936 1.396 . S
C937 C938 1.394 . S
C938 C908 1.723 . S
C938 C934 1.397 . S
C938 C937 1.394 . S
C939 H911 0.982 . S
C939 H915 0.979 . S
C939 H916 0.977 . S
C939 C936 1.453 . S
C940 H912 0.979 . S
C940 H913 0.980 . S
C940 H914 0.983 . S
C940 C936 1.684 . S
H941 C959 0.948 . S
H942 C900 0.948 . S
H943 C918 0.979 . S
H944 C918 0.980 . S
H945 C918 0.983 . S
H946 C917 0.982 . S
H947 C917 0.979 . S
H948 C917 0.977 . S
H949 C919 0.948 . S
H950 C921 0.947 . S
H951 C922 0.948 . S
H952 C928 0.982 . S
H953 C928 0.979 . S
H954 C928 0.977 . S
H955 C929 0.979 1_565 S
H956 C929 0.980 1_565 S
H957 C929 0.983 1_565 S
H958 C902 0.947 . S
C959 C902 1.392 1_545 S
C959 C903 1.419 . S
C959 H941 0.948 . S
Zn960 O963 2.031 . S
Zn960 O965 2.050 1_554 S
Zn960 O970 2.068 1_554 S
Zn961 O962 1.962 . S
Zn961 O964 1.986 . S
Zn961 O966 1.996 . S
Zn961 O969 1.943 1_554 S
O962 Zn961 1.962 . S
O962 C967 1.254 . S
O963 Zn960 2.031 . S
O963 C967 1.269 . S
O964 Zn961 1.986 . S
O964 C971 1.262 . S
O965 Zn960 2.050 1_556 S
O965 C973 1.260 . S
O966 Zn961 1.996 . S
O966 C973 1.257 1_554 S
C967 O962 1.254 . S
C967 O963 1.269 . S
C968 O969 1.249 . S
C968 O970 1.270 . S
O969 Zn961 1.943 1_556 S
O969 C968 1.249 . S
O970 Zn960 2.068 1_556 S
O970 C968 1.270 . S
C971 O964 1.262 . S
C971 O972 1.232 . S
O972 C971 1.232 . S
C973 O965 1.260 . S
C973 O966 1.257 1_556 S
Zn974 O977 2.031 . S
Zn974 O979 2.049 . S
Zn974 O984 2.067 . S
Zn975 O976 1.962 . S
Zn975 O978 1.986 . S
Zn975 O980 1.996 . S
Zn975 O983 1.943 . S
O976 Zn975 1.962 . S
O976 C981 1.254 . S
O977 Zn974 2.031 . S
O977 C981 1.269 . S
O978 Zn975 1.986 . S
O978 C985 1.262 . S
O979 Zn974 2.049 . S
O979 C987 1.260 . S
O980 Zn975 1.996 . S
O980 C987 1.257 . S
C981 O976 1.254 . S
C981 O977 1.269 . S
C982 O983 1.249 . S
C982 O984 1.270 . S
O983 Zn975 1.943 . S
O983 C982 1.249 . S
O984 Zn974 2.067 . S
O984 C982 1.270 . S
C985 O978 1.262 . S
C985 O986 1.232 . S
O986 C985 1.232 . S
C987 O979 1.260 . S
C987 O980 1.257 . S
Zn988 O991 2.031 . S
Zn988 O993 2.049 . S
Zn988 O998 2.067 . S
Zn989 O990 1.962 . S
Zn989 O992 1.986 . S
Zn989 O994 1.996 1_554 S
Zn989 O997 1.943 . S
O990 Zn989 1.962 . S
O990 C995 1.254 . S
O991 Zn988 2.031 . S
O991 C995 1.269 1_556 S
O992 Zn989 1.986 . S
O992 C999 1.262 . S
O993 Zn988 2.049 . S
O993 C1001 1.260 . S
O994 Zn989 1.996 1_556 S
O994 C1001 1.257 . S
C995 O990 1.254 . S
C995 O991 1.269 1_554 S
C996 O997 1.249 1_556 S
C996 O998 1.270 . S
O997 Zn989 1.943 . S
O997 C996 1.249 1_554 S
O998 Zn988 2.067 . S
O998 C996 1.270 . S
C999 O992 1.262 . S
C999 O1000 1.232 . S
O1000 C999 1.232 . S
C1001 O993 1.260 . S
C1001 O994 1.257 . S
Zn1002 O1005 2.031 . S
Zn1002 O1007 2.050 1_545 S
Zn1002 O1012 2.068 1_545 S
Zn1003 O1004 1.962 . S
Zn1003 O1006 1.986 . S
Zn1003 O1008 1.996 . S
Zn1003 O1011 1.943 1_545 S
O1004 Zn1003 1.962 . S
O1004 C1009 1.254 . S
O1005 Zn1002 2.031 . S
O1005 C1009 1.269 . S
O1006 Zn1003 1.986 . S
O1006 C1013 1.262 . S
O1007 Zn1002 2.050 1_565 S
O1007 C1015 1.260 . S
O1008 Zn1003 1.996 . S
O1008 C1015 1.257 1_545 S
C1009 O1004 1.254 . S
C1009 O1005 1.269 . S
C1010 O1011 1.249 . S
C1010 O1012 1.270 . S
O1011 Zn1003 1.943 1_565 S
O1011 C1010 1.249 . S
O1012 Zn1002 2.068 1_565 S
O1012 C1010 1.270 . S
C1013 O1006 1.262 . S
C1013 O1014 1.232 . S
O1014 C1013 1.232 . S
C1015 O1007 1.260 . S
C1015 O1008 1.257 1_565 S
Zn1016 O1019 2.031 . S
Zn1016 O1021 2.049 . S
Zn1016 O1026 2.067 . S
Zn1017 O1018 1.962 . S
Zn1017 O1020 1.986 . S
Zn1017 O1022 1.996 . S
Zn1017 O1025 1.943 . S
O1018 Zn1017 1.962 . S
O1018 C1023 1.254 . S
O1019 Zn1016 2.031 . S
O1019 C1023 1.269 . S
O1020 Zn1017 1.986 . S
O1020 C1027 1.262 . S
O1021 Zn1016 2.049 . S
O1021 C1029 1.260 . S
O1022 Zn1017 1.996 . S
O1022 C1029 1.257 . S
C1023 O1018 1.254 . S
C1023 O1019 1.269 . S
C1024 O1025 1.249 . S
C1024 O1026 1.270 . S
O1025 Zn1017 1.943 . S
O1025 C1024 1.249 . S
O1026 Zn1016 2.067 . S
O1026 C1024 1.270 . S
C1027 O1020 1.262 . S
C1027 O1028 1.232 . S
O1028 C1027 1.232 . S
C1029 O1021 1.260 . S
C1029 O1022 1.257 . S
Zn1030 O1033 2.031 . S
Zn1030 O1035 2.049 . S
Zn1030 O1040 2.067 . S
Zn1031 O1032 1.962 . S
Zn1031 O1034 1.986 . S
Zn1031 O1036 1.996 . S
Zn1031 O1039 1.943 . S
O1032 Zn1031 1.962 . S
O1032 C1037 1.254 . S
O1033 Zn1030 2.031 . S
O1033 C1037 1.269 . S
O1034 Zn1031 1.986 . S
O1034 C1041 1.262 . S
O1035 Zn1030 2.049 . S
O1035 C1043 1.260 . S
O1036 Zn1031 1.996 . S
O1036 C1043 1.257 . S
C1037 O1032 1.254 . S
C1037 O1033 1.269 . S
C1038 O1039 1.249 . S
C1038 O1040 1.270 . S
O1039 Zn1031 1.943 . S
O1039 C1038 1.249 . S
O1040 Zn1030 2.067 . S
O1040 C1038 1.270 . S
C1041 O1034 1.262 . S
C1041 O1042 1.232 . S
O1042 C1041 1.232 . S
C1043 O1035 1.260 . S
C1043 O1036 1.257 . S
Zn1044 O1047 2.031 . S
Zn1044 O1049 2.049 . S
Zn1044 O1054 2.067 . S
Zn1045 O1046 1.962 . S
Zn1045 O1048 1.986 . S
Zn1045 O1050 1.996 . S
Zn1045 O1053 1.943 . S
O1046 Zn1045 1.962 . S
O1046 C1051 1.254 . S
O1047 Zn1044 2.031 . S
O1047 C1051 1.269 . S
O1048 Zn1045 1.986 . S
O1048 C1055 1.262 . S
O1049 Zn1044 2.049 . S
O1049 C1057 1.260 . S
O1050 Zn1045 1.996 . S
O1050 C1057 1.257 . S
C1051 O1046 1.254 . S
C1051 O1047 1.269 . S
C1052 O1053 1.249 . S
C1052 O1054 1.270 . S
O1053 Zn1045 1.943 . S
O1053 C1052 1.249 . S
O1054 Zn1044 2.067 . S
O1054 C1052 1.270 . S
C1055 O1048 1.262 . S
C1055 O1056 1.232 . S
O1056 C1055 1.232 . S
C1057 O1049 1.260 . S
C1057 O1050 1.257 . S
Zn1058 O1061 2.031 . S
Zn1058 O1063 2.049 . S
Zn1058 O1068 2.067 . S
Zn1059 O1060 1.962 . S
Zn1059 O1062 1.986 . S
Zn1059 O1064 1.996 1_545 S
Zn1059 O1067 1.943 . S
O1060 Zn1059 1.962 . S
O1060 C1065 1.254 . S
O1061 Zn1058 2.031 . S
O1061 C1065 1.269 1_565 S
O1062 Zn1059 1.986 . S
O1062 C1069 1.262 . S
O1063 Zn1058 2.049 . S
O1063 C1071 1.260 . S
O1064 Zn1059 1.996 1_565 S
O1064 C1071 1.257 . S
C1065 O1060 1.254 . S
C1065 O1061 1.269 1_545 S
C1066 O1067 1.249 1_565 S
C1066 O1068 1.270 . S
O1067 Zn1059 1.943 . S
O1067 C1066 1.249 1_545 S
O1068 Zn1058 2.067 . S
O1068 C1066 1.270 . S
C1069 O1062 1.262 . S
C1069 O1070 1.232 . S
O1070 C1069 1.232 . S
C1071 O1063 1.260 . S
C1071 O1064 1.257 . S
Zn1072 O1075 2.031 . S
Zn1072 O1077 2.050 1_455 S
Zn1072 O1082 2.068 1_455 S
Zn1073 O1074 1.962 . S
Zn1073 O1076 1.986 . S
Zn1073 O1078 1.996 . S
Zn1073 O1081 1.943 1_455 S
O1074 Zn1073 1.962 . S
O1074 C1079 1.254 . S
O1075 Zn1072 2.031 . S
O1075 C1079 1.269 . S
O1076 Zn1073 1.986 . S
O1076 C1083 1.262 . S
O1077 Zn1072 2.050 1_655 S
O1077 C1085 1.260 . S
O1078 Zn1073 1.996 . S
O1078 C1085 1.257 1_455 S
C1079 O1074 1.254 . S
C1079 O1075 1.269 . S
C1080 O1081 1.249 . S
C1080 O1082 1.270 . S
O1081 Zn1073 1.943 1_655 S
O1081 C1080 1.249 . S
O1082 Zn1072 2.068 1_655 S
O1082 C1080 1.270 . S
C1083 O1076 1.262 . S
C1083 O1084 1.232 . S
O1084 C1083 1.232 . S
C1085 O1077 1.260 . S
C1085 O1078 1.257 1_655 S
Zn1086 O1089 2.031 . S
Zn1086 O1091 2.049 . S
Zn1086 O1096 2.067 . S
Zn1087 O1088 1.962 . S
Zn1087 O1090 1.986 . S
Zn1087 O1092 1.996 . S
Zn1087 O1095 1.943 . S
O1088 Zn1087 1.962 . S
O1088 C1093 1.254 . S
O1089 Zn1086 2.031 . S
O1089 C1093 1.269 . S
O1090 Zn1087 1.986 . S
O1090 C1097 1.262 . S
O1091 Zn1086 2.049 . S
O1091 C1099 1.260 . S
O1092 Zn1087 1.996 . S
O1092 C1099 1.257 . S
C1093 O1088 1.254 . S
C1093 O1089 1.269 . S
C1094 O1095 1.249 . S
C1094 O1096 1.270 . S
O1095 Zn1087 1.943 . S
O1095 C1094 1.249 . S
O1096 Zn1086 2.067 . S
O1096 C1094 1.270 . S
C1097 O1090 1.262 . S
C1097 O1098 1.232 . S
O1098 C1097 1.232 . S
C1099 O1091 1.260 . S
C1099 O1092 1.257 . S
Zn1100 O1103 2.031 . S
Zn1100 O1105 2.049 . S
Zn1100 O1110 2.067 . S
Zn1101 O1102 1.962 . S
Zn1101 O1104 1.986 . S
Zn1101 O1106 1.996 1_455 S
Zn1101 O1109 1.943 . S
O1102 Zn1101 1.962 . S
O1102 C1107 1.254 . S
O1103 Zn1100 2.031 . S
O1103 C1107 1.269 1_655 S
O1104 Zn1101 1.986 . S
O1104 C1111 1.262 . S
O1105 Zn1100 2.049 . S
O1105 C1113 1.260 . S
O1106 Zn1101 1.996 1_655 S
O1106 C1113 1.257 . S
C1107 O1102 1.254 . S
C1107 O1103 1.269 1_455 S
C1108 O1109 1.249 1_655 S
C1108 O1110 1.270 . S
O1109 Zn1101 1.943 . S
O1109 C1108 1.249 1_455 S
O1110 Zn1100 2.067 . S
O1110 C1108 1.270 . S
C1111 O1104 1.262 . S
C1111 O1112 1.232 . S
O1112 C1111 1.232 . S
C1113 O1105 1.260 . S
C1113 O1106 1.257 . S
Zn1114 O1117 2.031 . S
Zn1114 O1119 2.049 . S
Zn1114 O1124 2.067 . S
Zn1115 O1116 1.962 . S
Zn1115 O1118 1.986 . S
Zn1115 O1120 1.996 . S
Zn1115 O1123 1.943 . S
O1116 Zn1115 1.962 . S
O1116 C1121 1.254 . S
O1117 Zn1114 2.031 . S
O1117 C1121 1.269 . S
O1118 Zn1115 1.986 . S
O1118 C1125 1.262 . S
O1119 Zn1114 2.049 . S
O1119 C1127 1.260 . S
O1120 Zn1115 1.996 . S
O1120 C1127 1.257 . S
C1121 O1116 1.254 . S
C1121 O1117 1.269 . S
C1122 O1123 1.249 . S
C1122 O1124 1.270 . S
O1123 Zn1115 1.943 . S
O1123 C1122 1.249 . S
O1124 Zn1114 2.067 . S
O1124 C1122 1.270 . S
C1125 O1118 1.262 . S
C1125 O1126 1.232 . S
O1126 C1125 1.232 . S
C1127 O1119 1.260 . S
C1127 O1120 1.257 . S
H1128 C1136 0.950 . S
H1129 C1141 0.950 . S
H1130 C1138 0.950 . S
H1131 C1140 0.950 . S
H1132 C1142 0.950 . S
H1133 C1144 0.950 . S
H1134 C1146 0.950 . S
H1135 C1147 0.950 . S
C1136 H1128 0.950 . S
C1136 C1137 1.386 . S
C1136 C1138 1.391 . S
C1137 C1136 1.386 . S
C1137 C1141 1.393 . S
C1138 H1130 0.950 . S
C1138 C1136 1.391 . S
C1138 C1139 1.400 . S
C1139 C1138 1.400 . S
C1139 C1140 1.398 . S
C1139 C1145 1.491 . S
C1140 H1131 0.950 . S
C1140 C1139 1.398 . S
C1140 C1141 1.391 . S
C1141 H1129 0.950 . S
C1141 C1137 1.393 . S
C1141 C1140 1.391 . S
C1142 H1132 0.950 . S
C1142 C1143 1.386 . S
C1142 C1144 1.391 . S
C1143 C1142 1.386 . S
C1143 C1147 1.393 . S
C1144 H1133 0.950 . S
C1144 C1142 1.391 . S
C1144 C1145 1.400 . S
C1145 C1139 1.491 . S
C1145 C1144 1.400 . S
C1145 C1146 1.398 . S
C1146 H1134 0.950 . S
C1146 C1145 1.398 . S
C1146 C1147 1.391 . S
C1147 H1135 0.950 . S
C1147 C1143 1.393 . S
C1147 C1146 1.391 . S
H1148 C1156 0.950 . S
H1149 C1161 0.950 . S
H1150 C1158 0.950 . S
H1151 C1160 0.950 . S
H1152 C1162 0.950 . S
H1153 C1164 0.950 . S
H1154 C1166 0.950 . S
H1155 C1167 0.950 . S
C1156 H1148 0.950 . S
C1156 C1157 1.386 . S
C1156 C1158 1.391 . S
C1157 C1156 1.386 . S
C1157 C1161 1.393 . S
C1158 H1150 0.950 . S
C1158 C1156 1.391 . S
C1158 C1159 1.400 . S
C1159 C1158 1.400 . S
C1159 C1160 1.398 . S
C1159 C1165 1.491 . S
C1160 H1151 0.950 . S
C1160 C1159 1.398 . S
C1160 C1161 1.391 . S
C1161 H1149 0.950 . S
C1161 C1157 1.393 . S
C1161 C1160 1.391 . S
C1162 H1152 0.950 . S
C1162 C1163 1.386 . S
C1162 C1164 1.391 . S
C1163 C1162 1.386 . S
C1163 C1167 1.393 . S
C1164 H1153 0.950 . S
C1164 C1162 1.391 . S
C1164 C1165 1.400 . S
C1165 C1159 1.491 . S
C1165 C1164 1.400 . S
C1165 C1166 1.398 . S
C1166 H1154 0.950 . S
C1166 C1165 1.398 . S
C1166 C1167 1.391 . S
C1167 H1155 0.950 . S
C1167 C1163 1.393 . S
C1167 C1166 1.391 . S
H1168 C1176 0.950 . S
H1169 C1181 0.950 . S
H1170 C1178 0.950 . S
H1171 C1180 0.950 . S
H1172 C1182 0.950 . S
H1173 C1184 0.950 . S
H1174 C1186 0.950 . S
H1175 C1187 0.950 . S
C1176 H1168 0.950 . S
C1176 C1177 1.386 . S
C1176 C1178 1.391 . S
C1177 C1176 1.386 . S
C1177 C1181 1.393 . S
C1178 H1170 0.950 . S
C1178 C1176 1.391 . S
C1178 C1179 1.400 . S
C1179 C1178 1.400 . S
C1179 C1180 1.398 . S
C1179 C1185 1.491 . S
C1180 H1171 0.950 . S
C1180 C1179 1.398 . S
C1180 C1181 1.391 . S
C1181 H1169 0.950 . S
C1181 C1177 1.393 . S
C1181 C1180 1.391 . S
C1182 H1172 0.950 . S
C1182 C1183 1.386 . S
C1182 C1184 1.391 . S
C1183 C1182 1.386 . S
C1183 C1187 1.393 . S
C1184 H1173 0.950 . S
C1184 C1182 1.391 . S
C1184 C1185 1.400 . S
C1185 C1179 1.491 . S
C1185 C1184 1.400 . S
C1185 C1186 1.398 . S
C1186 H1174 0.950 . S
C1186 C1185 1.398 . S
C1186 C1187 1.391 . S
C1187 H1175 0.950 . S
C1187 C1183 1.393 . S
C1187 C1186 1.391 . S
H1188 C1196 0.950 . S
H1189 C1201 0.950 . S
H1190 C1198 0.950 . S
H1191 C1200 0.950 1_545 S
H1192 C1202 0.950 . S
H1193 C1204 0.950 1_545 S
H1194 C1206 0.950 . S
H1195 C1207 0.950 . S
C1196 H1188 0.950 . S
C1196 C1197 1.386 . S
C1196 C1198 1.391 . S
C1197 C1196 1.386 . S
C1197 C1201 1.393 . S
C1198 H1190 0.950 . S
C1198 C1196 1.391 . S
C1198 C1199 1.400 . S
C1199 C1198 1.400 . S
C1199 C1200 1.398 . S
C1199 C1205 1.491 . S
C1200 H1191 0.950 1_565 S
C1200 C1199 1.398 . S
C1200 C1201 1.391 . S
C1201 H1189 0.950 . S
C1201 C1197 1.393 . S
C1201 C1200 1.391 . S
C1202 H1192 0.950 . S
C1202 C1203 1.386 1_545 S
C1202 C1204 1.391 1_545 S
C1203 C1202 1.386 1_565 S
C1203 C1207 1.393 . S
C1204 H1193 0.950 1_565 S
C1204 C1202 1.391 1_565 S
C1204 C1205 1.400 . S
C1205 C1199 1.491 . S
C1205 C1204 1.400 . S
C1205 C1206 1.398 . S
C1206 H1194 0.950 . S
C1206 C1205 1.398 . S
C1206 C1207 1.391 . S
C1207 H1195 0.950 . S
C1207 C1203 1.393 . S
C1207 C1206 1.391 . S
H1208 C1216 0.950 . S
H1209 C1221 0.950 . S
H1210 C1218 0.950 . S
H1211 C1220 0.950 . S
H1212 C1222 0.950 . S
H1213 C1224 0.950 . S
H1214 C1226 0.950 . S
H1215 C1227 0.950 . S
C1216 H1208 0.950 . S
C1216 C1217 1.386 . S
C1216 C1218 1.391 . S
C1217 C1216 1.386 . S
C1217 C1221 1.393 . S
C1218 H1210 0.950 . S
C1218 C1216 1.391 . S
C1218 C1219 1.400 . S
C1219 C1218 1.400 . S
C1219 C1220 1.398 . S
C1219 C1225 1.491 . S
C1220 H1211 0.950 . S
C1220 C1219 1.398 . S
C1220 C1221 1.391 . S
C1221 H1209 0.950 . S
C1221 C1217 1.393 . S
C1221 C1220 1.391 . S
C1222 H1212 0.950 . S
C1222 C1223 1.386 . S
C1222 C1224 1.391 . S
C1223 C1222 1.386 . S
C1223 C1227 1.393 . S
C1224 H1213 0.950 . S
C1224 C1222 1.391 . S
C1224 C1225 1.400 . S
C1225 C1219 1.491 . S
C1225 C1224 1.400 . S
C1225 C1226 1.398 . S
C1226 H1214 0.950 . S
C1226 C1225 1.398 . S
C1226 C1227 1.391 . S
C1227 H1215 0.950 . S
C1227 C1223 1.393 . S
C1227 C1226 1.391 . S
H1228 C1236 0.950 . S
H1229 C1241 0.950 . S
H1230 C1238 0.950 . S
H1231 C1240 0.950 . S
H1232 C1242 0.950 . S
H1233 C1244 0.950 . S
H1234 C1246 0.950 . S
H1235 C1247 0.950 . S
C1236 H1228 0.950 . S
C1236 C1237 1.386 . S
C1236 C1238 1.391 . S
C1237 C1236 1.386 . S
C1237 C1241 1.393 . S
C1238 H1230 0.950 . S
C1238 C1236 1.391 . S
C1238 C1239 1.400 . S
C1239 C1238 1.400 . S
C1239 C1240 1.398 . S
C1239 C1245 1.491 . S
C1240 H1231 0.950 . S
C1240 C1239 1.398 . S
C1240 C1241 1.391 . S
C1241 H1229 0.950 . S
C1241 C1237 1.393 . S
C1241 C1240 1.391 . S
C1242 H1232 0.950 . S
C1242 C1243 1.386 . S
C1242 C1244 1.391 . S
C1243 C1242 1.386 . S
C1243 C1247 1.393 . S
C1244 H1233 0.950 . S
C1244 C1242 1.391 . S
C1244 C1245 1.400 . S
C1245 C1239 1.491 . S
C1245 C1244 1.400 . S
C1245 C1246 1.398 . S
C1246 H1234 0.950 . S
C1246 C1245 1.398 . S
C1246 C1247 1.391 . S
C1247 H1235 0.950 . S
C1247 C1243 1.393 . S
C1247 C1246 1.391 . S
H1248 C1256 0.950 . S
H1249 C1261 0.950 . S
H1250 C1258 0.950 . S
H1251 C1260 0.950 . S
H1252 C1262 0.950 . S
H1253 C1264 0.950 . S
H1254 C1266 0.950 . S
H1255 C1267 0.950 . S
C1256 H1248 0.950 . S
C1256 C1257 1.386 . S
C1256 C1258 1.391 . S
C1257 C1256 1.386 . S
C1257 C1261 1.393 . S
C1258 H1250 0.950 . S
C1258 C1256 1.391 . S
C1258 C1259 1.400 . S
C1259 C1258 1.400 . S
C1259 C1260 1.398 . S
C1259 C1265 1.491 . S
C1260 H1251 0.950 . S
C1260 C1259 1.398 . S
C1260 C1261 1.391 . S
C1261 H1249 0.950 . S
C1261 C1257 1.393 . S
C1261 C1260 1.391 . S
C1262 H1252 0.950 . S
C1262 C1263 1.386 . S
C1262 C1264 1.391 . S
C1263 C1262 1.386 . S
C1263 C1267 1.393 . S
C1264 H1253 0.950 . S
C1264 C1262 1.391 . S
C1264 C1265 1.400 . S
C1265 C1259 1.491 . S
C1265 C1264 1.400 . S
C1265 C1266 1.398 . S
C1266 H1254 0.950 . S
C1266 C1265 1.398 . S
C1266 C1267 1.391 . S
C1267 H1255 0.950 . S
C1267 C1263 1.393 . S
C1267 C1266 1.391 . S
H1268 C1276 0.950 . S
H1269 C1281 0.950 1_545 S
H1270 C1278 0.950 . S
H1271 C1280 0.950 1_545 S
H1272 C1282 0.950 . S
H1273 C1284 0.950 . S
H1274 C1286 0.950 . S
H1275 C1287 0.950 . S
C1276 H1268 0.950 . S
C1276 C1277 1.386 . S
C1276 C1278 1.391 . S
C1277 C1276 1.386 . S
C1277 C1281 1.393 . S
C1278 H1270 0.950 . S
C1278 C1276 1.391 . S
C1278 C1279 1.400 . S
C1279 C1278 1.400 . S
C1279 C1280 1.398 . S
C1279 C1285 1.491 . S
C1280 H1271 0.950 1_565 S
C1280 C1279 1.398 . S
C1280 C1281 1.391 . S
C1281 H1269 0.950 1_565 S
C1281 C1277 1.393 . S
C1281 C1280 1.391 . S
C1282 H1272 0.950 . S
C1282 C1283 1.386 1_545 S
C1282 C1284 1.391 . S
C1283 C1282 1.386 1_565 S
C1283 C1287 1.393 . S
C1284 H1273 0.950 . S
C1284 C1282 1.391 . S
C1284 C1285 1.400 1_545 S
C1285 C1279 1.491 . S
C1285 C1284 1.400 1_565 S
C1285 C1286 1.398 . S
C1286 H1274 0.950 . S
C1286 C1285 1.398 . S
C1286 C1287 1.391 . S
C1287 H1275 0.950 . S
C1287 C1283 1.393 . S
C1287 C1286 1.391 . S
H1288 C1296 0.950 . S
H1289 C1301 0.950 . S
H1290 C1298 0.950 . S
H1291 C1300 0.950 . S
H1292 C1302 0.950 . S
H1293 C1304 0.950 . S
H1294 C1306 0.950 . S
H1295 C1307 0.950 . S
C1296 H1288 0.950 . S
C1296 C1297 1.386 . S
C1296 C1298 1.391 . S
C1297 C1296 1.386 . S
C1297 C1301 1.393 . S
C1298 H1290 0.950 . S
C1298 C1296 1.391 . S
C1298 C1299 1.400 . S
C1299 C1298 1.400 . S
C1299 C1300 1.398 . S
C1299 C1305 1.491 . S
C1300 H1291 0.950 . S
C1300 C1299 1.398 . S
C1300 C1301 1.391 . S
C1301 H1289 0.950 . S
C1301 C1297 1.393 . S
C1301 C1300 1.391 . S
C1302 H1292 0.950 . S
C1302 C1303 1.386 . S
C1302 C1304 1.391 . S
C1303 C1302 1.386 . S
C1303 C1307 1.393 . S
C1304 H1293 0.950 . S
C1304 C1302 1.391 . S
C1304 C1305 1.400 . S
C1305 C1299 1.491 . S
C1305 C1304 1.400 . S
C1305 C1306 1.398 . S
C1306 H1294 0.950 . S
C1306 C1305 1.398 . S
C1306 C1307 1.391 . S
C1307 H1295 0.950 . S
C1307 C1303 1.393 . S
C1307 C1306 1.391 . S
H1308 C1316 0.950 . S
H1309 C1321 0.950 . S
H1310 C1318 0.950 . S
H1311 C1320 0.950 . S
H1312 C1322 0.950 . S
H1313 C1324 0.950 . S
H1314 C1326 0.950 . S
H1315 C1327 0.950 . S
C1316 H1308 0.950 . S
C1316 C1317 1.386 . S
C1316 C1318 1.391 . S
C1317 C1316 1.386 . S
C1317 C1321 1.393 . S
C1318 H1310 0.950 . S
C1318 C1316 1.391 . S
C1318 C1319 1.400 . S
C1319 C1318 1.400 . S
C1319 C1320 1.398 . S
C1319 C1325 1.491 . S
C1320 H1311 0.950 . S
C1320 C1319 1.398 . S
C1320 C1321 1.391 . S
C1321 H1309 0.950 . S
C1321 C1317 1.393 . S
C1321 C1320 1.391 . S
C1322 H1312 0.950 . S
C1322 C1323 1.386 . S
C1322 C1324 1.391 . S
C1323 C1322 1.386 . S
C1323 C1327 1.393 . S
C1324 H1313 0.950 . S
C1324 C1322 1.391 . S
C1324 C1325 1.400 . S
C1325 C1319 1.491 . S
C1325 C1324 1.400 . S
C1325 C1326 1.398 . S
C1326 H1314 0.950 . S
C1326 C1325 1.398 . S
C1326 C1327 1.391 . S
C1327 H1315 0.950 . S
C1327 C1323 1.393 . S
C1327 C1326 1.391 . S
H1328 C1336 0.950 . S
H1329 C1341 0.950 . S
H1330 C1338 0.950 . S
H1331 C1340 0.950 . S
H1332 C1342 0.950 . S
H1333 C1344 0.950 . S
H1334 C1346 0.950 . S
H1335 C1347 0.950 . S
C1336 H1328 0.950 . S
C1336 C1337 1.386 . S
C1336 C1338 1.391 . S
C1337 C1336 1.386 . S
C1337 C1341 1.393 . S
C1338 H1330 0.950 . S
C1338 C1336 1.391 . S
C1338 C1339 1.400 . S
C1339 C1338 1.400 . S
C1339 C1340 1.398 . S
C1339 C1345 1.491 . S
C1340 H1331 0.950 . S
C1340 C1339 1.398 . S
C1340 C1341 1.391 . S
C1341 H1329 0.950 . S
C1341 C1337 1.393 . S
C1341 C1340 1.391 . S
C1342 H1332 0.950 . S
C1342 C1343 1.386 . S
C1342 C1344 1.391 . S
C1343 C1342 1.386 . S
C1343 C1347 1.393 . S
C1344 H1333 0.950 . S
C1344 C1342 1.391 . S
C1344 C1345 1.400 . S
C1345 C1339 1.491 . S
C1345 C1344 1.400 . S
C1345 C1346 1.398 . S
C1346 H1334 0.950 . S
C1346 C1345 1.398 . S
C1346 C1347 1.391 . S
C1347 H1335 0.950 . S
C1347 C1343 1.393 . S
C1347 C1346 1.391 . S
H1348 C1356 0.950 . S
H1349 C1361 0.950 . S
H1350 C1358 0.950 . S
H1351 C1360 0.950 . S
H1352 C1362 0.950 . S
H1353 C1364 0.950 . S
H1354 C1366 0.950 . S
H1355 C1367 0.950 . S
C1356 H1348 0.950 . S
C1356 C1357 1.386 . S
C1356 C1358 1.391 . S
C1357 C1356 1.386 . S
C1357 C1361 1.393 . S
C1358 H1350 0.950 . S
C1358 C1356 1.391 . S
C1358 C1359 1.400 . S
C1359 C1358 1.400 . S
C1359 C1360 1.398 . S
C1359 C1365 1.491 . S
C1360 H1351 0.950 . S
C1360 C1359 1.398 . S
C1360 C1361 1.391 . S
C1361 H1349 0.950 . S
C1361 C1357 1.393 . S
C1361 C1360 1.391 . S
C1362 H1352 0.950 . S
C1362 C1363 1.386 . S
C1362 C1364 1.391 . S
C1363 C1362 1.386 . S
C1363 C1367 1.393 . S
C1364 H1353 0.950 . S
C1364 C1362 1.391 . S
C1364 C1365 1.400 . S
C1365 C1359 1.491 . S
C1365 C1364 1.400 . S
C1365 C1366 1.398 . S
C1366 H1354 0.950 . S
C1366 C1365 1.398 . S
C1366 C1367 1.391 . S
C1367 H1355 0.950 . S
C1367 C1363 1.393 . S
C1367 C1366 1.391 . S
H1368 C1376 0.950 . S
H1369 C1381 0.950 . S
H1370 C1378 0.950 . S
H1371 C1380 0.950 . S
H1372 C1382 0.950 . S
H1373 C1384 0.950 . S
H1374 C1386 0.950 . S
H1375 C1387 0.950 . S
C1376 H1368 0.950 . S
C1376 C1377 1.386 . S
C1376 C1378 1.391 . S
C1377 C1376 1.386 . S
C1377 C1381 1.393 . S
C1378 H1370 0.950 . S
C1378 C1376 1.391 . S
C1378 C1379 1.400 . S
C1379 C1378 1.400 . S
C1379 C1380 1.398 . S
C1379 C1385 1.491 . S
C1380 H1371 0.950 . S
C1380 C1379 1.398 . S
C1380 C1381 1.391 . S
C1381 H1369 0.950 . S
C1381 C1377 1.393 . S
C1381 C1380 1.391 . S
C1382 H1372 0.950 . S
C1382 C1383 1.386 . S
C1382 C1384 1.391 . S
C1383 C1382 1.386 . S
C1383 C1387 1.393 . S
C1384 H1373 0.950 . S
C1384 C1382 1.391 . S
C1384 C1385 1.400 . S
C1385 C1379 1.491 . S
C1385 C1384 1.400 . S
C1385 C1386 1.398 . S
C1386 H1374 0.950 . S
C1386 C1385 1.398 . S
C1386 C1387 1.391 . S
C1387 H1375 0.950 . S
C1387 C1383 1.393 . S
C1387 C1386 1.391 . S
H1388 C1396 0.950 . S
H1389 C1401 0.950 . S
H1390 C1398 0.950 . S
H1391 C1400 0.950 . S
H1392 C1402 0.950 . S
H1393 C1404 0.950 . S
H1394 C1406 0.940 1_655 S
H1395 C1407 0.950 1_655 S
C1396 H1388 0.950 . S
C1396 C1397 1.386 . S
C1396 C1398 1.391 . S
C1397 C1396 1.386 . S
C1397 C1401 1.393 . S
C1398 H1390 0.950 . S
C1398 C1396 1.391 . S
C1398 C1399 1.400 . S
C1399 C1398 1.400 . S
C1399 C1400 1.398 . S
C1399 C1405 1.491 . S
C1400 H1391 0.950 . S
C1400 C1399 1.398 . S
C1400 C1401 1.391 . S
C1401 H1389 0.950 . S
C1401 C1397 1.393 . S
C1401 C1400 1.391 . S
C1402 H1392 0.950 . S
C1402 C1403 1.386 . S
C1402 C1404 1.391 . S
C1403 C1402 1.386 . S
C1403 C1407 1.393 . S
C1404 H1393 0.950 . S
C1404 C1402 1.391 . S
C1404 C1405 1.400 . S
C1405 C1399 1.491 . S
C1405 C1404 1.400 . S
C1405 C1406 1.398 . S
C1406 H1394 0.940 1_455 S
C1406 C1405 1.398 . S
C1406 C1407 1.391 . S
C1407 H1395 0.950 1_455 S
C1407 C1403 1.393 . S
C1407 C1406 1.391 . S
H1408 C1416 0.950 . S
H1409 C1421 0.950 . S
H1410 C1418 0.950 . S
H1411 C1420 0.950 . S
H1412 C1422 0.950 . S
H1413 C1424 0.950 . S
H1414 C1426 0.950 . S
H1415 C1427 0.950 . S
C1416 H1408 0.950 . S
C1416 C1417 1.386 . S
C1416 C1418 1.391 . S
C1417 C1416 1.386 . S
C1417 C1421 1.393 . S
C1418 H1410 0.950 . S
C1418 C1416 1.391 . S
C1418 C1419 1.400 . S
C1419 C1418 1.400 . S
C1419 C1420 1.398 . S
C1419 C1425 1.491 . S
C1420 H1411 0.950 . S
C1420 C1419 1.398 . S
C1420 C1421 1.391 . S
C1421 H1409 0.950 . S
C1421 C1417 1.393 . S
C1421 C1420 1.391 . S
C1422 H1412 0.950 . S
C1422 C1423 1.386 . S
C1422 C1424 1.391 . S
C1423 C1422 1.386 . S
C1423 C1427 1.393 . S
C1424 H1413 0.950 . S
C1424 C1422 1.391 . S
C1424 C1425 1.400 . S
C1425 C1419 1.491 . S
C1425 C1424 1.400 . S
C1425 C1426 1.398 . S
C1426 H1414 0.950 . S
C1426 C1425 1.398 . S
C1426 C1427 1.391 . S
C1427 H1415 0.950 . S
C1427 C1423 1.393 . S
C1427 C1426 1.391 . S
H1428 C1436 0.950 . S
H1429 C1441 0.950 . S
H1430 C1438 0.950 . S
H1431 C1440 0.950 . S
H1432 C1442 0.950 . S
H1433 C1444 0.950 . S
H1434 C1446 0.950 . S
H1435 C1447 0.950 . S
C1436 H1428 0.950 . S
C1436 C1437 1.386 . S
C1436 C1438 1.391 . S
C1437 C1436 1.386 . S
C1437 C1441 1.393 . S
C1438 H1430 0.950 . S
C1438 C1436 1.391 . S
C1438 C1439 1.400 . S
C1439 C1438 1.400 . S
C1439 C1440 1.398 . S
C1439 C1445 1.491 . S
C1440 H1431 0.950 . S
C1440 C1439 1.398 . S
C1440 C1441 1.391 . S
C1441 H1429 0.950 . S
C1441 C1437 1.393 . S
C1441 C1440 1.391 . S
C1442 H1432 0.950 . S
C1442 C1443 1.386 . S
C1442 C1444 1.391 . S
C1443 C1442 1.386 . S
C1443 C1447 1.393 . S
C1444 H1433 0.950 . S
C1444 C1442 1.391 . S
C1444 C1445 1.400 . S
C1445 C1439 1.491 . S
C1445 C1444 1.400 . S
C1445 C1446 1.398 . S
C1446 H1434 0.950 . S
C1446 C1445 1.398 . S
C1446 C1447 1.391 . S
C1447 H1435 0.950 . S
C1447 C1443 1.393 . S
C1447 C1446 1.391 . S
H1448 C1456 0.950 . S
H1449 C1461 0.950 . S
H1450 C1458 0.950 . S
H1451 C1460 0.950 . S
H1452 C1462 0.950 . S
H1453 C1464 0.950 . S
H1454 C1466 0.950 . S
H1455 C1467 0.950 . S
C1456 H1448 0.950 . S
C1456 C1457 1.386 . S
C1456 C1458 1.391 . S
C1457 C1456 1.386 . S
C1457 C1461 1.393 . S
C1458 H1450 0.950 . S
C1458 C1456 1.391 . S
C1458 C1459 1.400 . S
C1459 C1458 1.400 . S
C1459 C1460 1.398 . S
C1459 C1465 1.491 . S
C1460 H1451 0.950 . S
C1460 C1459 1.398 . S
C1460 C1461 1.391 . S
C1461 H1449 0.950 . S
C1461 C1457 1.393 . S
C1461 C1460 1.391 . S
C1462 H1452 0.950 . S
C1462 C1463 1.386 . S
C1462 C1464 1.391 . S
C1463 C1462 1.386 . S
C1463 C1467 1.393 . S
C1464 H1453 0.950 . S
C1464 C1462 1.391 . S
C1464 C1465 1.400 . S
C1465 C1459 1.491 . S
C1465 C1464 1.400 . S
C1465 C1466 1.398 . S
C1466 H1454 0.950 . S
C1466 C1465 1.398 . S
C1466 C1467 1.391 . S
C1467 H1455 0.950 . S
C1467 C1463 1.393 . S
C1467 C1466 1.391 . S
H1468 C1476 0.950 . S
H1469 C1481 0.950 . S
H1470 C1478 0.950 . S
H1471 C1480 0.950 . S
H1472 C1482 0.950 . S
H1473 C1484 0.950 . S
H1474 C1486 0.950 . S
H1475 C1487 0.950 . S
C1476 H1468 0.950 . S
C1476 C1477 1.386 . S
C1476 C1478 1.391 . S
C1477 C1476 1.386 . S
C1477 C1481 1.393 . S
C1478 H1470 0.950 . S
C1478 C1476 1.391 . S
C1478 C1479 1.400 . S
C1479 C1478 1.400 . S
C1479 C1480 1.398 . S
C1479 C1485 1.491 . S
C1480 H1471 0.950 . S
C1480 C1479 1.398 . S
C1480 C1481 1.391 . S
C1481 H1469 0.950 . S
C1481 C1477 1.393 . S
C1481 C1480 1.391 . S
C1482 H1472 0.950 . S
C1482 C1483 1.386 . S
C1482 C1484 1.391 . S
C1483 C1482 1.386 . S
C1483 C1487 1.393 . S
C1484 H1473 0.950 . S
C1484 C1482 1.391 . S
C1484 C1485 1.400 . S
C1485 C1479 1.491 . S
C1485 C1484 1.400 . S
C1485 C1486 1.398 . S
C1486 H1474 0.950 . S
C1486 C1485 1.398 . S
C1486 C1487 1.391 . S
C1487 H1475 0.950 . S
C1487 C1483 1.393 . S
C1487 C1486 1.391 . S
H1488 C1496 0.951 1_545 S
H1489 C1501 0.950 . S
H1490 C1498 0.950 . S
H1491 C1500 0.950 . S
H1492 C1502 0.950 1_554 S
H1493 C1504 0.950 . S
H1494 C1506 0.950 . S
H1495 C1507 0.950 . S
C1496 H1488 0.951 1_565 S
C1496 C1497 1.386 . S
C1496 C1498 1.391 . S
C1497 C1496 1.386 . S
C1497 C1501 1.393 . S
C1498 H1490 0.950 . S
C1498 C1496 1.391 . S
C1498 C1499 1.400 . S
C1499 C1498 1.400 . S
C1499 C1500 1.398 . S
C1499 C1505 1.491 . S
C1500 H1491 0.950 . S
C1500 C1499 1.398 . S
C1500 C1501 1.391 . S
C1501 H1489 0.950 . S
C1501 C1497 1.393 . S
C1501 C1500 1.391 . S
C1502 H1492 0.950 1_556 S
C1502 C1503 1.386 . S
C1502 C1504 1.391 . S
C1503 C1502 1.386 . S
C1503 C1507 1.393 . S
C1504 H1493 0.950 . S
C1504 C1502 1.391 . S
C1504 C1505 1.400 . S
C1505 C1499 1.491 . S
C1505 C1504 1.400 . S
C1505 C1506 1.398 . S
C1506 H1494 0.950 . S
C1506 C1505 1.398 . S
C1506 C1507 1.391 . S
C1507 H1495 0.950 . S
C1507 C1503 1.393 . S
C1507 C1506 1.391 . S
H1508 C1516 0.950 . S
H1509 C1521 0.950 . S
H1510 C1518 0.950 . S
H1511 C1520 0.950 . S
H1512 C1522 0.950 . S
H1513 C1524 0.950 . S
H1514 C1526 0.950 . S
H1515 C1527 0.950 . S
C1516 H1508 0.950 . S
C1516 C1517 1.386 . S
C1516 C1518 1.391 . S
C1517 C1516 1.386 . S
C1517 C1521 1.393 . S
C1518 H1510 0.950 . S
C1518 C1516 1.391 . S
C1518 C1519 1.400 . S
C1519 C1518 1.400 . S
C1519 C1520 1.398 . S
C1519 C1525 1.491 . S
C1520 H1511 0.950 . S
C1520 C1519 1.398 . S
C1520 C1521 1.391 . S
C1521 H1509 0.950 . S
C1521 C1517 1.393 . S
C1521 C1520 1.391 . S
C1522 H1512 0.950 . S
C1522 C1523 1.386 . S
C1522 C1524 1.391 . S
C1523 C1522 1.386 . S
C1523 C1527 1.393 . S
C1524 H1513 0.950 . S
C1524 C1522 1.391 . S
C1524 C1525 1.400 . S
C1525 C1519 1.491 . S
C1525 C1524 1.400 . S
C1525 C1526 1.398 . S
C1526 H1514 0.950 . S
C1526 C1525 1.398 . S
C1526 C1527 1.391 . S
C1527 H1515 0.950 . S
C1527 C1523 1.393 . S
C1527 C1526 1.391 . S
H1528 C1536 0.950 . S
H1529 C1541 0.950 . S
H1530 C1538 0.950 . S
H1531 C1540 0.950 . S
H1532 C1542 0.950 . S
H1533 C1544 0.950 . S
H1534 C1546 0.950 . S
H1535 C1547 0.950 . S
C1536 H1528 0.950 . S
C1536 C1537 1.386 . S
C1536 C1538 1.391 . S
C1537 C1536 1.386 . S
C1537 C1541 1.393 . S
C1538 H1530 0.950 . S
C1538 C1536 1.391 . S
C1538 C1539 1.400 . S
C1539 C1538 1.400 . S
C1539 C1540 1.398 . S
C1539 C1545 1.491 . S
C1540 H1531 0.950 . S
C1540 C1539 1.398 . S
C1540 C1541 1.391 . S
C1541 H1529 0.950 . S
C1541 C1537 1.393 . S
C1541 C1540 1.391 . S
C1542 H1532 0.950 . S
C1542 C1543 1.386 . S
C1542 C1544 1.391 . S
C1543 C1542 1.386 . S
C1543 C1547 1.393 . S
C1544 H1533 0.950 . S
C1544 C1542 1.391 . S
C1544 C1545 1.400 . S
C1545 C1539 1.491 . S
C1545 C1544 1.400 . S
C1545 C1546 1.398 . S
C1546 H1534 0.950 . S
C1546 C1545 1.398 . S
C1546 C1547 1.391 . S
C1547 H1535 0.950 . S
C1547 C1543 1.393 . S
C1547 C1546 1.391 . S
H1548 C1556 0.950 . S
H1549 C1561 0.950 . S
H1550 C1558 0.950 . S
H1551 C1560 0.950 . S
H1552 C1562 0.950 . S
H1553 C1564 0.950 . S
H1554 C1566 0.950 . S
H1555 C1567 0.950 . S
C1556 H1548 0.950 . S
C1556 C1557 1.386 . S
C1556 C1558 1.391 . S
C1557 C1556 1.386 . S
C1557 C1561 1.393 . S
C1558 H1550 0.950 . S
C1558 C1556 1.391 . S
C1558 C1559 1.400 . S
C1559 C1558 1.400 . S
C1559 C1560 1.398 . S
C1559 C1565 1.491 . S
C1560 H1551 0.950 . S
C1560 C1559 1.398 . S
C1560 C1561 1.391 . S
C1561 H1549 0.950 . S
C1561 C1557 1.393 . S
C1561 C1560 1.391 . S
C1562 H1552 0.950 . S
C1562 C1563 1.386 . S
C1562 C1564 1.391 . S
C1563 C1562 1.386 . S
C1563 C1567 1.393 . S
C1564 H1553 0.950 . S
C1564 C1562 1.391 . S
C1564 C1565 1.400 . S
C1565 C1559 1.491 . S
C1565 C1564 1.400 . S
C1565 C1566 1.398 . S
C1566 H1554 0.950 . S
C1566 C1565 1.398 . S
C1566 C1567 1.391 . S
C1567 H1555 0.950 . S
C1567 C1563 1.393 . S
C1567 C1566 1.391 . S
H1568 C1576 0.950 . S
H1569 C1581 0.950 . S
H1570 C1578 0.950 . S
H1571 C1580 0.950 . S
H1572 C1582 0.950 . S
H1573 C1584 0.950 . S
H1574 C1586 0.950 . S
H1575 C1587 0.950 . S
C1576 H1568 0.950 . S
C1576 C1577 1.386 . S
C1576 C1578 1.391 . S
C1577 C1576 1.386 . S
C1577 C1581 1.393 . S
C1578 H1570 0.950 . S
C1578 C1576 1.391 . S
C1578 C1579 1.400 . S
C1579 C1578 1.400 . S
C1579 C1580 1.398 . S
C1579 C1585 1.491 . S
C1580 H1571 0.950 . S
C1580 C1579 1.398 . S
C1580 C1581 1.391 . S
C1581 H1569 0.950 . S
C1581 C1577 1.393 . S
C1581 C1580 1.391 . S
C1582 H1572 0.950 . S
C1582 C1583 1.386 . S
C1582 C1584 1.391 . S
C1583 C1582 1.386 . S
C1583 C1587 1.393 . S
C1584 H1573 0.950 . S
C1584 C1582 1.391 . S
C1584 C1585 1.400 . S
C1585 C1579 1.491 . S
C1585 C1584 1.400 . S
C1585 C1586 1.398 . S
C1586 H1574 0.950 . S
C1586 C1585 1.398 . S
C1586 C1587 1.391 . S
C1587 H1575 0.950 . S
C1587 C1583 1.393 . S
C1587 C1586 1.391 . S
H1588 C1596 0.950 . S
H1589 C1601 0.950 . S
H1590 C1598 0.950 . S
H1591 C1600 0.950 . S
H1592 C1602 0.950 . S
H1593 C1604 0.950 . S
H1594 C1606 0.950 . S
H1595 C1607 0.950 . S
C1596 H1588 0.950 . S
C1596 C1597 1.386 . S
C1596 C1598 1.391 . S
C1597 C1596 1.386 . S
C1597 C1601 1.393 . S
C1598 H1590 0.950 . S
C1598 C1596 1.391 . S
C1598 C1599 1.400 . S
C1599 C1598 1.400 . S
C1599 C1600 1.398 . S
C1599 C1605 1.491 . S
C1600 H1591 0.950 . S
C1600 C1599 1.398 . S
C1600 C1601 1.391 . S
C1601 H1589 0.950 . S
C1601 C1597 1.393 . S
C1601 C1600 1.391 . S
C1602 H1592 0.950 . S
C1602 C1603 1.386 . S
C1602 C1604 1.391 . S
C1603 C1602 1.386 . S
C1603 C1607 1.393 . S
C1604 H1593 0.950 . S
C1604 C1602 1.391 . S
C1604 C1605 1.400 . S
C1605 C1599 1.491 . S
C1605 C1604 1.400 . S
C1605 C1606 1.398 . S
C1606 H1594 0.950 . S
C1606 C1605 1.398 . S
C1606 C1607 1.391 . S
C1607 H1595 0.950 . S
C1607 C1603 1.393 . S
C1607 C1606 1.391 . S
H1608 C1616 0.950 . S
H1609 C1621 0.950 . S
H1610 C1618 0.950 . S
H1611 C1620 0.950 . S
H1612 C1622 0.950 . S
H1613 C1624 0.950 . S
H1614 C1626 0.950 . S
H1615 C1627 0.950 . S
C1616 H1608 0.950 . S
C1616 C1617 1.386 . S
C1616 C1618 1.391 . S
C1617 C1616 1.386 . S
C1617 C1621 1.393 . S
C1618 H1610 0.950 . S
C1618 C1616 1.391 . S
C1618 C1619 1.400 . S
C1619 C1618 1.400 . S
C1619 C1620 1.398 . S
C1619 C1625 1.491 . S
C1620 H1611 0.950 . S
C1620 C1619 1.398 . S
C1620 C1621 1.391 . S
C1621 H1609 0.950 . S
C1621 C1617 1.393 . S
C1621 C1620 1.391 . S
C1622 H1612 0.950 . S
C1622 C1623 1.386 . S
C1622 C1624 1.391 . S
C1623 C1622 1.386 . S
C1623 C1627 1.393 . S
C1624 H1613 0.950 . S
C1624 C1622 1.391 . S
C1624 C1625 1.400 . S
C1625 C1619 1.491 . S
C1625 C1624 1.400 . S
C1625 C1626 1.398 . S
C1626 H1614 0.950 . S
C1626 C1625 1.398 . S
C1626 C1627 1.391 . S
C1627 H1615 0.950 . S
C1627 C1623 1.393 . S
C1627 C1626 1.391 . S
H1628 C1636 0.950 . S
H1629 C1641 0.950 . S
H1630 C1638 0.950 . S
H1631 C1640 0.950 . S
H1632 C1642 0.950 1_565 S
H1633 C1644 0.950 1_565 S
H1634 C1646 0.950 . S
H1635 C1647 0.950 . S
C1636 H1628 0.950 . S
C1636 C1637 1.386 . S
C1636 C1638 1.391 . S
C1637 C1636 1.386 . S
C1637 C1641 1.393 . S
C1638 H1630 0.950 . S
C1638 C1636 1.391 . S
C1638 C1639 1.400 . S
C1639 C1638 1.400 . S
C1639 C1640 1.398 . S
C1639 C1645 1.491 . S
C1640 H1631 0.950 . S
C1640 C1639 1.398 . S
C1640 C1641 1.391 . S
C1641 H1629 0.950 . S
C1641 C1637 1.393 . S
C1641 C1640 1.391 . S
C1642 H1632 0.950 1_545 S
C1642 C1643 1.386 . S
C1642 C1644 1.391 . S
C1643 C1642 1.386 . S
C1643 C1647 1.393 . S
C1644 H1633 0.950 1_545 S
C1644 C1642 1.391 . S
C1644 C1645 1.400 . S
C1645 C1639 1.491 . S
C1645 C1644 1.400 . S
C1645 C1646 1.398 . S
C1646 H1634 0.950 . S
C1646 C1645 1.398 . S
C1646 C1647 1.391 . S
C1647 H1635 0.950 . S
C1647 C1643 1.393 . S
C1647 C1646 1.391 . S
H1648 C1656 0.950 . S
H1649 C1661 0.950 . S
H1650 C1658 0.950 . S
H1651 C1660 0.950 . S
H1652 C1662 0.950 . S
H1653 C1664 0.950 . S
H1654 C1666 0.950 . S
H1655 C1667 0.950 . S
C1656 H1648 0.950 . S
C1656 C1657 1.386 . S
C1656 C1658 1.391 . S
C1657 C1656 1.386 . S
C1657 C1661 1.393 . S
C1658 H1650 0.950 . S
C1658 C1656 1.391 . S
C1658 C1659 1.400 . S
C1659 C1658 1.400 . S
C1659 C1660 1.398 . S
C1659 C1665 1.491 . S
C1660 H1651 0.950 . S
C1660 C1659 1.398 . S
C1660 C1661 1.391 . S
C1661 H1649 0.950 . S
C1661 C1657 1.393 . S
C1661 C1660 1.391 . S
C1662 H1652 0.950 . S
C1662 C1663 1.386 . S
C1662 C1664 1.391 . S
C1663 C1662 1.386 . S
C1663 C1667 1.393 . S
C1664 H1653 0.950 . S
C1664 C1662 1.391 . S
C1664 C1665 1.400 . S
C1665 C1659 1.491 . S
C1665 C1664 1.400 . S
C1665 C1666 1.398 . S
C1666 H1654 0.950 . S
C1666 C1665 1.398 . S
C1666 C1667 1.391 . S
C1667 H1655 0.950 . S
C1667 C1663 1.393 . S
C1667 C1666 1.391 . S
H1668 C1676 0.950 . S
H1669 C1681 0.950 . S
H1670 C1678 0.950 . S
H1671 C1680 0.950 . S
H1672 C1682 0.950 . S
H1673 C1684 0.950 . S
H1674 C1686 0.950 . S
H1675 C1687 0.950 . S
C1676 H1668 0.950 . S
C1676 C1677 1.386 . S
C1676 C1678 1.391 . S
C1677 C1676 1.386 . S
C1677 C1681 1.393 . S
C1678 H1670 0.950 . S
C1678 C1676 1.391 . S
C1678 C1679 1.400 . S
C1679 C1678 1.400 . S
C1679 C1680 1.398 . S
C1679 C1685 1.491 . S
C1680 H1671 0.950 . S
C1680 C1679 1.398 . S
C1680 C1681 1.391 . S
C1681 H1669 0.950 . S
C1681 C1677 1.393 . S
C1681 C1680 1.391 . S
C1682 H1672 0.950 . S
C1682 C1683 1.386 . S
C1682 C1684 1.391 . S
C1683 C1682 1.386 . S
C1683 C1687 1.393 . S
C1684 H1673 0.950 . S
C1684 C1682 1.391 . S
C1684 C1685 1.400 . S
C1685 C1679 1.491 . S
C1685 C1684 1.400 . S
C1685 C1686 1.398 . S
C1686 H1674 0.950 . S
C1686 C1685 1.398 . S
C1686 C1687 1.391 . S
C1687 H1675 0.950 . S
C1687 C1683 1.393 . S
C1687 C1686 1.391 . S
H1688 C1696 0.950 . S
H1689 C1701 0.950 . S
H1690 C1698 0.950 . S
H1691 C1700 0.950 . S
H1692 C1702 0.950 . S
H1693 C1704 0.950 . S
H1694 C1706 0.950 . S
H1695 C1707 0.950 . S
C1696 H1688 0.950 . S
C1696 C1697 1.386 . S
C1696 C1698 1.391 . S
C1697 C1696 1.386 . S
C1697 C1701 1.393 . S
C1698 H1690 0.950 . S
C1698 C1696 1.391 . S
C1698 C1699 1.400 . S
C1699 C1698 1.400 . S
C1699 C1700 1.398 . S
C1699 C1705 1.491 . S
C1700 H1691 0.950 . S
C1700 C1699 1.398 . S
C1700 C1701 1.391 . S
C1701 H1689 0.950 . S
C1701 C1697 1.393 . S
C1701 C1700 1.391 . S
C1702 H1692 0.950 . S
C1702 C1703 1.386 . S
C1702 C1704 1.391 . S
C1703 C1702 1.386 . S
C1703 C1707 1.393 . S
C1704 H1693 0.950 . S
C1704 C1702 1.391 . S
C1704 C1705 1.400 . S
C1705 C1699 1.491 . S
C1705 C1704 1.400 . S
C1705 C1706 1.398 . S
C1706 H1694 0.950 . S
C1706 C1705 1.398 . S
C1706 C1707 1.391 . S
C1707 H1695 0.950 . S
C1707 C1703 1.393 . S
C1707 C1706 1.391 . S
H1708 C1716 0.950 . S
H1709 C1721 0.950 1_455 S
H1710 C1718 0.950 . S
H1711 C1720 0.950 . S
H1712 C1722 0.950 . S
H1713 C1724 0.950 . S
H1714 C1726 0.950 . S
H1715 C1727 0.950 . S
C1716 H1708 0.950 . S
C1716 C1717 1.386 . S
C1716 C1718 1.391 . S
C1717 C1716 1.386 . S
C1717 C1721 1.393 . S
C1718 H1710 0.950 . S
C1718 C1716 1.391 . S
C1718 C1719 1.400 . S
C1719 C1718 1.400 . S
C1719 C1720 1.398 . S
C1719 C1725 1.491 . S
C1720 H1711 0.950 . S
C1720 C1719 1.398 . S
C1720 C1721 1.391 . S
C1721 H1709 0.950 1_655 S
C1721 C1717 1.393 . S
C1721 C1720 1.391 . S
C1722 H1712 0.950 . S
C1722 C1723 1.386 . S
C1722 C1724 1.391 . S
C1723 C1722 1.386 . S
C1723 C1727 1.393 . S
C1724 H1713 0.950 . S
C1724 C1722 1.391 . S
C1724 C1725 1.400 . S
C1725 C1719 1.491 . S
C1725 C1724 1.400 . S
C1725 C1726 1.398 . S
C1726 H1714 0.950 . S
C1726 C1725 1.398 . S
C1726 C1727 1.391 . S
C1727 H1715 0.950 . S
C1727 C1723 1.393 . S
C1727 C1726 1.391 . S
H1728 C1736 0.950 . S
H1729 C1741 0.950 . S
H1730 C1738 0.950 . S
H1731 C1740 0.950 . S
H1732 C1742 0.950 . S
H1733 C1744 0.950 . S
H1734 C1746 0.950 . S
H1735 C1747 0.950 . S
C1736 H1728 0.950 . S
C1736 C1737 1.386 . S
C1736 C1738 1.391 . S
C1737 C1736 1.386 . S
C1737 C1741 1.393 . S
C1738 H1730 0.950 . S
C1738 C1736 1.391 . S
C1738 C1739 1.400 . S
C1739 C1738 1.400 . S
C1739 C1740 1.398 . S
C1739 C1745 1.491 . S
C1740 H1731 0.950 . S
C1740 C1739 1.398 . S
C1740 C1741 1.391 . S
C1741 H1729 0.950 . S
C1741 C1737 1.393 . S
C1741 C1740 1.391 . S
C1742 H1732 0.950 . S
C1742 C1743 1.386 . S
C1742 C1744 1.391 . S
C1743 C1742 1.386 . S
C1743 C1747 1.393 . S
C1744 H1733 0.950 . S
C1744 C1742 1.391 . S
C1744 C1745 1.400 . S
C1745 C1739 1.491 . S
C1745 C1744 1.400 . S
C1745 C1746 1.398 . S
C1746 H1734 0.950 . S
C1746 C1745 1.398 . S
C1746 C1747 1.391 . S
C1747 H1735 0.950 . S
C1747 C1743 1.393 . S
C1747 C1746 1.391 . S
H1748 C1756 0.950 . S
H1749 C1761 0.950 . S
H1750 C1758 0.950 . S
H1751 C1760 0.950 . S
H1752 C1762 0.950 . S
H1753 C1764 0.950 . S
H1754 C1766 0.950 . S
H1755 C1767 0.950 . S
C1756 H1748 0.950 . S
C1756 C1757 1.386 . S
C1756 C1758 1.391 . S
C1757 C1756 1.386 . S
C1757 C1761 1.393 . S
C1758 H1750 0.950 . S
C1758 C1756 1.391 . S
C1758 C1759 1.400 . S
C1759 C1758 1.400 . S
C1759 C1760 1.398 . S
C1759 C1765 1.491 . S
C1760 H1751 0.950 . S
C1760 C1759 1.398 . S
C1760 C1761 1.391 . S
C1761 H1749 0.950 . S
C1761 C1757 1.393 . S
C1761 C1760 1.391 . S
C1762 H1752 0.950 . S
C1762 C1763 1.386 . S
C1762 C1764 1.391 . S
C1763 C1762 1.386 . S
C1763 C1767 1.393 . S
C1764 H1753 0.950 . S
C1764 C1762 1.391 . S
C1764 C1765 1.400 . S
C1765 C1759 1.491 . S
C1765 C1764 1.400 . S
C1765 C1766 1.398 . S
C1766 H1754 0.950 . S
C1766 C1765 1.398 . S
C1766 C1767 1.391 . S
C1767 H1755 0.950 . S
C1767 C1763 1.393 . S
C1767 C1766 1.391 . S
H1768 C1776 0.950 . S
H1769 C1781 0.950 . S
H1770 C1778 0.950 . S
H1771 C1780 0.950 . S
H1772 C1782 0.950 . S
H1773 C1784 0.950 . S
H1774 C1786 0.950 . S
H1775 C1787 0.950 . S
C1776 H1768 0.950 . S
C1776 C1777 1.386 . S
C1776 C1778 1.391 . S
C1777 C1776 1.386 . S
C1777 C1781 1.393 . S
C1778 H1770 0.950 . S
C1778 C1776 1.391 . S
C1778 C1779 1.400 . S
C1779 C1778 1.400 . S
C1779 C1780 1.398 . S
C1779 C1785 1.491 . S
C1780 H1771 0.950 . S
C1780 C1779 1.398 . S
C1780 C1781 1.391 . S
C1781 H1769 0.950 . S
C1781 C1777 1.393 . S
C1781 C1780 1.391 . S
C1782 H1772 0.950 . S
C1782 C1783 1.386 . S
C1782 C1784 1.391 . S
C1783 C1782 1.386 . S
C1783 C1787 1.393 . S
C1784 H1773 0.950 . S
C1784 C1782 1.391 . S
C1784 C1785 1.400 . S
C1785 C1779 1.491 . S
C1785 C1784 1.400 . S
C1785 C1786 1.398 . S
C1786 H1774 0.950 . S
C1786 C1785 1.398 . S
C1786 C1787 1.391 . S
C1787 H1775 0.950 . S
C1787 C1783 1.393 . S
C1787 C1786 1.391 . S
H1788 C1796 0.950 . S
H1789 C1801 0.950 . S
H1790 C1798 0.950 . S
H1791 C1800 0.950 . S
H1792 C1802 0.950 . S
H1793 C1804 0.950 . S
H1794 C1806 0.950 1_455 S
H1795 C1807 0.921 1_455 S
C1796 H1788 0.950 . S
C1796 C1797 1.386 . S
C1796 C1798 1.391 . S
C1797 C1796 1.386 . S
C1797 C1801 1.393 . S
C1798 H1790 0.950 . S
C1798 C1796 1.391 . S
C1798 C1799 1.400 . S
C1799 C1798 1.400 . S
C1799 C1800 1.398 . S
C1799 C1805 1.491 . S
C1800 H1791 0.950 . S
C1800 C1799 1.398 . S
C1800 C1801 1.391 . S
C1801 H1789 0.950 . S
C1801 C1797 1.393 . S
C1801 C1800 1.391 . S
C1802 H1792 0.950 . S
C1802 C1803 1.386 . S
C1802 C1804 1.391 . S
C1803 C1802 1.386 . S
C1803 C1807 1.412 . S
C1804 H1793 0.950 . S
C1804 C1802 1.391 . S
C1804 C1805 1.400 . S
C1805 C1799 1.491 . S
C1805 C1804 1.400 . S
C1805 C1806 1.398 . S
C1806 H1794 0.950 1_655 S
C1806 C1805 1.398 . S
C1806 C1807 1.401 . S
C1807 H1795 0.921 1_655 S
C1807 C1803 1.412 . S
C1807 C1806 1.401 . S
H1808 C1816 0.950 . S
H1809 C1821 0.950 . S
H1810 C1818 0.950 . S
H1811 C1820 0.950 . S
H1812 C1822 0.950 . S
H1813 C1824 0.950 . S
H1814 C1826 0.950 . S
H1815 C1827 0.950 . S
C1816 H1808 0.950 . S
C1816 C1817 1.386 . S
C1816 C1818 1.391 . S
C1817 C1816 1.386 . S
C1817 C1821 1.393 . S
C1818 H1810 0.950 . S
C1818 C1816 1.391 . S
C1818 C1819 1.400 . S
C1819 C1818 1.400 . S
C1819 C1820 1.398 . S
C1819 C1825 1.491 . S
C1820 H1811 0.950 . S
C1820 C1819 1.398 . S
C1820 C1821 1.391 . S
C1821 H1809 0.950 . S
C1821 C1817 1.393 . S
C1821 C1820 1.391 . S
C1822 H1812 0.950 . S
C1822 C1823 1.386 . S
C1822 C1824 1.391 . S
C1823 C1822 1.386 . S
C1823 C1827 1.393 . S
C1824 H1813 0.950 . S
C1824 C1822 1.391 . S
C1824 C1825 1.400 . S
C1825 C1819 1.491 . S
C1825 C1824 1.400 . S
C1825 C1826 1.398 . S
C1826 H1814 0.950 . S
C1826 C1825 1.398 . S
C1826 C1827 1.391 . S
C1827 H1815 0.950 . S
C1827 C1823 1.393 . S
C1827 C1826 1.391 . S
H1828 C1836 0.950 1_655 S
H1829 C1841 0.950 . S
H1830 C1838 0.950 1_655 S
H1831 C1840 0.950 . S
H1832 C1842 0.950 . S
H1833 C1844 0.950 . S
H1834 C1846 0.929 1_655 S
H1835 C1847 0.950 . S
C1836 H1828 0.950 1_455 S
C1836 C1837 1.386 . S
C1836 C1838 1.391 . S
C1837 C1836 1.386 . S
C1837 C1841 1.393 . S
C1838 H1830 0.950 1_455 S
C1838 C1836 1.391 . S
C1838 C1839 1.400 . S
C1839 C1838 1.400 . S
C1839 C1840 1.398 . S
C1839 C1845 1.491 . S
C1840 H1831 0.950 . S
C1840 C1839 1.398 . S
C1840 C1841 1.391 . S
C1841 H1829 0.950 . S
C1841 C1837 1.393 . S
C1841 C1840 1.391 . S
C1842 H1832 0.950 . S
C1842 C1843 1.386 . S
C1842 C1844 1.391 . S
C1843 C1842 1.386 . S
C1843 C1847 1.393 1_455 S
C1844 H1833 0.950 . S
C1844 C1842 1.391 . S
C1844 C1845 1.400 . S
C1845 C1839 1.491 . S
C1845 C1844 1.400 . S
C1845 C1846 1.423 . S
C1846 H1834 0.929 1_455 S
C1846 C1845 1.423 . S
C1846 C1847 1.387 1_455 S
C1847 H1835 0.950 . S
C1847 C1843 1.393 1_655 S
C1847 C1846 1.387 1_655 S
H1848 C1856 0.950 . S
H1849 C1861 0.950 . S
H1850 C1858 0.950 . S
H1851 C1860 0.950 . S
H1852 C1862 0.950 . S
H1853 C1864 0.950 . S
H1854 C1866 0.950 . S
H1855 C1867 0.950 . S
C1856 H1848 0.950 . S
C1856 C1857 1.386 . S
C1856 C1858 1.391 . S
C1857 C1856 1.386 . S
C1857 C1861 1.393 . S
C1858 H1850 0.950 . S
C1858 C1856 1.391 . S
C1858 C1859 1.400 . S
C1859 C1858 1.400 . S
C1859 C1860 1.398 . S
C1859 C1865 1.491 . S
C1860 H1851 0.950 . S
C1860 C1859 1.398 . S
C1860 C1861 1.391 . S
C1861 H1849 0.950 . S
C1861 C1857 1.393 . S
C1861 C1860 1.391 . S
C1862 H1852 0.950 . S
C1862 C1863 1.386 . S
C1862 C1864 1.391 . S
C1863 C1862 1.386 . S
C1863 C1867 1.393 . S
C1864 H1853 0.950 . S
C1864 C1862 1.391 . S
C1864 C1865 1.400 . S
C1865 C1859 1.491 . S
C1865 C1864 1.400 . S
C1865 C1866 1.398 . S
C1866 H1854 0.950 . S
C1866 C1865 1.398 . S
C1866 C1867 1.391 . S
C1867 H1855 0.950 . S
C1867 C1863 1.393 . S
C1867 C1866 1.391 . S
H1868 C1876 0.967 . S
H1869 C1881 0.950 . S
H1870 C1878 0.950 . S
H1871 C1880 0.950 . S
H1872 C1882 0.950 . S
H1873 C1884 0.950 . S
H1874 C1886 0.950 . S
H1875 C1887 0.950 . S
C1876 H1868 0.967 . S
C1876 C1877 1.386 . S
C1876 C1878 1.391 . S
C1877 C1876 1.386 . S
C1877 C1881 1.393 . S
C1878 H1870 0.950 . S
C1878 C1876 1.391 . S
C1878 C1879 1.400 . S
C1879 C1878 1.400 . S
C1879 C1880 1.398 . S
C1879 C1885 1.491 . S
C1880 H1871 0.950 . S
C1880 C1879 1.398 . S
C1880 C1881 1.391 . S
C1881 H1869 0.950 . S
C1881 C1877 1.393 . S
C1881 C1880 1.391 . S
C1882 H1872 0.950 . S
C1882 C1883 1.386 . S
C1882 C1884 1.391 . S
C1883 C1882 1.386 . S
C1883 C1887 1.393 . S
C1884 H1873 0.950 . S
C1884 C1882 1.391 . S
C1884 C1885 1.400 . S
C1885 C1879 1.491 . S
C1885 C1884 1.400 . S
C1885 C1886 1.398 . S
C1886 H1874 0.950 . S
C1886 C1885 1.398 . S
C1886 C1887 1.391 . S
C1887 H1875 0.950 . S
C1887 C1883 1.393 . S
C1887 C1886 1.391 . S
H1888 C1896 0.950 . S
H1889 C1901 0.950 . S
H1890 C1898 0.950 . S
H1891 C1900 0.950 . S
H1892 C1902 0.950 . S
H1893 C1904 0.950 . S
H1894 C1906 0.950 . S
H1895 C1907 0.950 . S
C1896 H1888 0.950 . S
C1896 C1897 1.386 . S
C1896 C1898 1.391 . S
C1897 C1896 1.386 . S
C1897 C1901 1.393 . S
C1898 H1890 0.950 . S
C1898 C1896 1.391 . S
C1898 C1899 1.400 . S
C1899 C1898 1.400 . S
C1899 C1900 1.398 . S
C1899 C1905 1.491 . S
C1900 H1891 0.950 . S
C1900 C1899 1.398 . S
C1900 C1901 1.391 . S
C1901 H1889 0.950 . S
C1901 C1897 1.393 . S
C1901 C1900 1.391 . S
C1902 H1892 0.950 . S
C1902 C1903 1.386 . S
C1902 C1904 1.391 . S
C1903 C1902 1.386 . S
C1903 C1907 1.393 . S
C1904 H1893 0.950 . S
C1904 C1902 1.391 . S
C1904 C1905 1.400 . S
C1905 C1899 1.491 . S
C1905 C1904 1.400 . S
C1905 C1906 1.398 . S
C1906 H1894 0.950 . S
C1906 C1905 1.398 . S
C1906 C1907 1.391 . S
C1907 H1895 0.950 . S
C1907 C1903 1.393 . S
C1907 C1906 1.391 . S
H1908 C1916 0.950 . S
H1909 C1921 0.950 . S
H1910 C1918 0.950 . S
H1911 C1920 0.950 . S
H1912 C1922 0.950 . S
H1913 C1924 0.950 . S
H1914 C1926 0.950 . S
H1915 C1927 0.950 . S
C1916 H1908 0.950 . S
C1916 C1917 1.386 . S
C1916 C1918 1.391 . S
C1917 C1916 1.386 . S
C1917 C1921 1.393 . S
C1918 H1910 0.950 . S
C1918 C1916 1.391 . S
C1918 C1919 1.400 . S
C1919 C1918 1.400 . S
C1919 C1920 1.398 . S
C1919 C1925 1.491 . S
C1920 H1911 0.950 . S
C1920 C1919 1.398 . S
C1920 C1921 1.391 . S
C1921 H1909 0.950 . S
C1921 C1917 1.393 . S
C1921 C1920 1.391 . S
C1922 H1912 0.950 . S
C1922 C1923 1.386 . S
C1922 C1924 1.391 . S
C1923 C1922 1.386 . S
C1923 C1927 1.393 . S
C1924 H1913 0.950 . S
C1924 C1922 1.391 . S
C1924 C1925 1.400 . S
C1925 C1919 1.491 . S
C1925 C1924 1.400 . S
C1925 C1926 1.398 . S
C1926 H1914 0.950 . S
C1926 C1925 1.398 . S
C1926 C1927 1.391 . S
C1927 H1915 0.950 . S
C1927 C1923 1.393 . S
C1927 C1926 1.391 . S
H1928 C1936 0.950 . S
H1929 C1941 0.950 . S
H1930 C1938 0.950 . S
H1931 C1940 0.950 . S
H1932 C1942 0.950 . S
H1933 C1944 0.950 . S
H1934 C1946 0.950 . S
H1935 C1947 0.950 . S
C1936 H1928 0.950 . S
C1936 C1937 1.386 . S
C1936 C1938 1.391 . S
C1937 C1936 1.386 . S
C1937 C1941 1.393 . S
C1938 H1930 0.950 . S
C1938 C1936 1.391 . S
C1938 C1939 1.400 . S
C1939 C1938 1.400 . S
C1939 C1940 1.398 . S
C1939 C1945 1.491 . S
C1940 H1931 0.950 . S
C1940 C1939 1.398 . S
C1940 C1941 1.391 . S
C1941 H1929 0.950 . S
C1941 C1937 1.393 . S
C1941 C1940 1.391 . S
C1942 H1932 0.950 . S
C1942 C1943 1.386 . S
C1942 C1944 1.391 . S
C1943 C1942 1.386 . S
C1943 C1947 1.393 . S
C1944 H1933 0.950 . S
C1944 C1942 1.391 . S
C1944 C1945 1.400 . S
C1945 C1939 1.491 . S
C1945 C1944 1.400 . S
C1945 C1946 1.398 . S
C1946 H1934 0.950 . S
C1946 C1945 1.398 . S
C1946 C1947 1.391 . S
C1947 H1935 0.950 . S
C1947 C1943 1.393 . S
C1947 C1946 1.391 . S
H1948 C1956 0.950 . S
H1949 C1961 0.950 . S
H1950 C1958 0.950 . S
H1951 C1960 0.950 . S
H1952 C1962 0.950 . S
H1953 C1964 0.950 . S
H1954 C1966 0.950 . S
H1955 C1967 0.950 . S
C1956 H1948 0.950 . S
C1956 C1957 1.386 . S
C1956 C1958 1.391 . S
C1957 C1956 1.386 . S
C1957 C1961 1.393 . S
C1958 H1950 0.950 . S
C1958 C1956 1.391 . S
C1958 C1959 1.400 . S
C1959 C1958 1.400 . S
C1959 C1960 1.398 . S
C1959 C1965 1.491 . S
C1960 H1951 0.950 . S
C1960 C1959 1.398 . S
C1960 C1961 1.391 . S
C1961 H1949 0.950 . S
C1961 C1957 1.393 . S
C1961 C1960 1.391 . S
C1962 H1952 0.950 . S
C1962 C1963 1.386 . S
C1962 C1964 1.391 . S
C1963 C1962 1.386 . S
C1963 C1967 1.393 . S
C1964 H1953 0.950 . S
C1964 C1962 1.391 . S
C1964 C1965 1.400 . S
C1965 C1959 1.491 . S
C1965 C1964 1.400 . S
C1965 C1966 1.398 . S
C1966 H1954 0.950 . S
C1966 C1965 1.398 . S
C1966 C1967 1.391 . S
C1967 H1955 0.950 . S
C1967 C1963 1.393 . S
C1967 C1966 1.391 . S
H1968 C1976 0.950 . S
H1969 C1981 0.950 . S
H1970 C1978 0.950 . S
H1971 C1980 0.950 . S
H1972 C1982 0.950 . S
H1973 C1984 0.950 . S
H1974 C1986 0.950 . S
H1975 C1987 0.950 . S
C1976 H1968 0.950 . S
C1976 C1977 1.386 . S
C1976 C1978 1.391 . S
C1977 C1976 1.386 . S
C1977 C1981 1.393 . S
C1978 H1970 0.950 . S
C1978 C1976 1.391 . S
C1978 C1979 1.400 . S
C1979 C1978 1.400 . S
C1979 C1980 1.398 . S
C1979 C1985 1.491 . S
C1980 H1971 0.950 . S
C1980 C1979 1.398 . S
C1980 C1981 1.391 . S
C1981 H1969 0.950 . S
C1981 C1977 1.393 . S
C1981 C1980 1.391 . S
C1982 H1972 0.950 . S
C1982 C1983 1.386 . S
C1982 C1984 1.391 . S
C1983 C1982 1.386 . S
C1983 C1987 1.393 . S
C1984 H1973 0.950 . S
C1984 C1982 1.391 . S
C1984 C1985 1.400 . S
C1985 C1979 1.491 . S
C1985 C1984 1.400 . S
C1985 C1986 1.398 . S
C1986 H1974 0.950 . S
C1986 C1985 1.398 . S
C1986 C1987 1.391 . S
C1987 H1975 0.950 . S
C1987 C1983 1.393 . S
C1987 C1986 1.391 . S
H1988 C1996 0.950 . S
H1989 C2001 0.950 . S
H1990 C1998 0.950 . S
H1991 C2000 0.950 . S
H1992 C2002 0.950 . S
H1993 C2004 0.950 . S
H1994 C2006 0.950 . S
H1995 C2007 0.950 . S
C1996 H1988 0.950 . S
C1996 C1997 1.386 . S
C1996 C1998 1.391 . S
C1997 C1996 1.386 . S
C1997 C2001 1.393 . S
C1998 H1990 0.950 . S
C1998 C1996 1.391 . S
C1998 C1999 1.400 . S
C1999 C1998 1.400 . S
C1999 C2000 1.398 . S
C1999 C2005 1.491 . S
C2000 H1991 0.950 . S
C2000 C1999 1.398 . S
C2000 C2001 1.391 . S
C2001 H1989 0.950 . S
C2001 C1997 1.393 . S
C2001 C2000 1.391 . S
C2002 H1992 0.950 . S
C2002 C2003 1.386 . S
C2002 C2004 1.391 . S
C2003 C2002 1.386 . S
C2003 C2007 1.393 . S
C2004 H1993 0.950 . S
C2004 C2002 1.391 . S
C2004 C2005 1.400 . S
C2005 C1999 1.491 . S
C2005 C2004 1.400 . S
C2005 C2006 1.398 . S
C2006 H1994 0.950 . S
C2006 C2005 1.398 . S
C2006 C2007 1.391 . S
C2007 H1995 0.950 . S
C2007 C2003 1.393 . S
C2007 C2006 1.391 . S
H2008 C2016 0.950 . S
H2009 C2021 0.950 . S
H2010 C2018 0.950 . S
H2011 C2020 0.950 . S
H2012 C2022 0.950 . S
H2013 C2024 0.950 1_554 S
H2014 C2026 0.950 . S
H2015 C2027 0.950 . S
C2016 H2008 0.950 . S
C2016 C2017 1.386 . S
C2016 C2018 1.391 . S
C2017 C2016 1.386 . S
C2017 C2021 1.393 . S
C2018 H2010 0.950 . S
C2018 C2016 1.391 . S
C2018 C2019 1.400 . S
C2019 C2018 1.400 . S
C2019 C2020 1.398 . S
C2019 C2025 1.491 . S
C2020 H2011 0.950 . S
C2020 C2019 1.398 . S
C2020 C2021 1.391 . S
C2021 H2009 0.950 . S
C2021 C2017 1.393 . S
C2021 C2020 1.391 . S
C2022 H2012 0.950 . S
C2022 C2023 1.386 1_554 S
C2022 C2024 1.391 1_554 S
C2023 C2022 1.386 1_556 S
C2023 C2027 1.393 . S
C2024 H2013 0.950 1_556 S
C2024 C2022 1.391 1_556 S
C2024 C2025 1.400 . S
C2025 C2019 1.491 . S
C2025 C2024 1.400 . S
C2025 C2026 1.398 . S
C2026 H2014 0.950 . S
C2026 C2025 1.398 . S
C2026 C2027 1.391 . S
C2027 H2015 0.950 . S
C2027 C2023 1.393 . S
C2027 C2026 1.391 . S
H2028 C2036 0.950 . S
H2029 C2041 0.950 . S
H2030 C2038 0.950 . S
H2031 C2040 0.950 . S
H2032 C2042 0.950 . S
H2033 C2044 0.950 . S
H2034 C2046 0.950 . S
H2035 C2047 0.950 . S
C2036 H2028 0.950 . S
C2036 C2037 1.386 . S
C2036 C2038 1.391 . S
C2037 C2036 1.386 . S
C2037 C2041 1.393 . S
C2038 H2030 0.950 . S
C2038 C2036 1.391 . S
C2038 C2039 1.400 . S
C2039 C2038 1.400 . S
C2039 C2040 1.398 . S
C2039 C2045 1.491 . S
C2040 H2031 0.950 . S
C2040 C2039 1.398 . S
C2040 C2041 1.391 . S
C2041 H2029 0.950 . S
C2041 C2037 1.393 . S
C2041 C2040 1.391 . S
C2042 H2032 0.950 . S
C2042 C2043 1.386 . S
C2042 C2044 1.391 . S
C2043 C2042 1.386 . S
C2043 C2047 1.393 . S
C2044 H2033 0.950 . S
C2044 C2042 1.391 . S
C2044 C2045 1.400 . S
C2045 C2039 1.491 . S
C2045 C2044 1.400 . S
C2045 C2046 1.398 . S
C2046 H2034 0.950 . S
C2046 C2045 1.398 . S
C2046 C2047 1.391 . S
C2047 H2035 0.950 . S
C2047 C2043 1.393 . S
C2047 C2046 1.391 . S
H2048 C2056 0.950 . S
H2049 C2061 0.950 . S
H2050 C2058 0.950 . S
H2051 C2060 0.950 . S
H2052 C2062 0.950 . S
H2053 C2064 0.950 . S
H2054 C2066 0.950 . S
H2055 C2067 0.950 . S
C2056 H2048 0.950 . S
C2056 C2057 1.386 . S
C2056 C2058 1.391 . S
C2057 C2056 1.386 . S
C2057 C2061 1.393 . S
C2058 H2050 0.950 . S
C2058 C2056 1.391 . S
C2058 C2059 1.400 . S
C2059 C2058 1.400 . S
C2059 C2060 1.398 . S
C2059 C2065 1.491 . S
C2060 H2051 0.950 . S
C2060 C2059 1.398 . S
C2060 C2061 1.391 . S
C2061 H2049 0.950 . S
C2061 C2057 1.393 . S
C2061 C2060 1.391 . S
C2062 H2052 0.950 . S
C2062 C2063 1.386 . S
C2062 C2064 1.391 . S
C2063 C2062 1.386 . S
C2063 C2067 1.393 . S
C2064 H2053 0.950 . S
C2064 C2062 1.391 . S
C2064 C2065 1.400 . S
C2065 C2059 1.491 . S
C2065 C2064 1.400 . S
C2065 C2066 1.398 . S
C2066 H2054 0.950 . S
C2066 C2065 1.398 . S
C2066 C2067 1.391 . S
C2067 H2055 0.950 . S
C2067 C2063 1.393 . S
C2067 C2066 1.391 . S
H2068 C2076 0.950 1_556 S
H2069 C2081 0.950 . S
H2070 C2078 0.950 1_556 S
H2071 C2080 0.950 . S
H2072 C2082 0.950 . S
H2073 C2084 0.950 . S
H2074 C2086 0.971 . S
H2075 C2087 0.950 . S
C2076 H2068 0.950 1_554 S
C2076 C2077 1.386 . S
C2076 C2078 1.391 . S
C2077 C2076 1.386 . S
C2077 C2081 1.393 . S
C2078 H2070 0.950 1_554 S
C2078 C2076 1.391 . S
C2078 C2079 1.400 . S
C2079 C2078 1.400 . S
C2079 C2080 1.398 . S
C2079 C2085 1.491 . S
C2080 H2071 0.950 . S
C2080 C2079 1.398 . S
C2080 C2081 1.391 . S
C2081 H2069 0.950 . S
C2081 C2077 1.393 . S
C2081 C2080 1.391 . S
C2082 H2072 0.950 . S
C2082 C2083 1.386 . S
C2082 C2084 1.391 . S
C2083 C2082 1.386 . S
C2083 C2087 1.393 1_554 S
C2084 H2073 0.950 . S
C2084 C2082 1.391 . S
C2084 C2085 1.400 . S
C2085 C2079 1.491 . S
C2085 C2084 1.400 . S
C2085 C2086 1.375 1_554 S
C2086 H2074 0.971 . S
C2086 C2085 1.375 1_556 S
C2086 C2087 1.394 . S
C2087 H2075 0.950 . S
C2087 C2083 1.393 1_556 S
C2087 C2086 1.394 . S
C1143 C968 1.487 . S
C1137 C331 1.497 . S
C1163 C981 1.483 . S
C1157 C380 1.467 . S
C1177 C421 1.637 . S
C1183 C1001 1.524 . S
C1203 C1015 1.387 . S
C1197 C260 1.431 1_655 S
C1223 C1027 1.514 . S
C1217 C620 1.482 . S
C1243 C1041 1.426 . S
C1237 C740 1.415 . S
C1257 C680 1.481 . S
C1263 C1051 1.477 . S
C1283 C1066 1.505 . S
C1277 C571 1.499 . S
C1297 C691 1.495 . S
C1303 C1080 1.487 . S
C1323 C1099 1.385 . S
C1317 C541 1.409 . S
C1337 C601 1.470 . S
C1343 C1079 1.486 . S
C1363 C1097 1.420 . S
C1357 C721 1.402 . S
C1377 C451 1.639 . S
C1383 C1113 1.525 . S
C1397 C241 1.461 . S
C1403 C1107 1.483 . S
C1417 C320 1.492 . S
C1423 C1111 1.517 . S
C1437 C391 1.513 . S
C1443 C1108 1.501 . S
C1457 C211 1.497 . S
C1463 C1010 1.487 . S
C1477 C841 1.456 . S
C1483 C1009 1.478 . S
C1503 C973 1.381 . S
C1497 C901 1.428 . S
C1523 C987 1.557 . S
C1517 C500 1.649 . S
C1537 C271 1.538 1_545 S
C1543 C1024 1.518 . S
C1563 C1069 1.514 . S
C1557 C661 1.493 . S
C1583 C1023 1.483 . S
C1577 C560 1.467 . S
C1603 C1055 1.426 . S
C1597 C751 1.415 . S
C1623 C1052 1.482 . S
C1617 C871 1.503 . S
C1637 C920 1.447 . S
C1643 C1065 1.479 . S
C1657 C481 1.641 . S
C1663 C1029 1.548 . S
C1683 C1043 1.379 . S
C1677 C800 1.432 . S
C1697 C200 1.485 . S
C1703 C999 1.513 . S
C1723 C1013 1.420 . S
C1717 C20 1.400 . S
C1743 C967 1.479 . S
C1737 C80 1.476 . S
C1763 C982 1.507 . S
C1757 C151 1.498 . S
C1777 C91 1.485 . S
C1783 C1094 1.482 . S
C1797 C121 1.443 . S
C1803 C1085 1.359 . S
C1817 C181 1.454 . S
C1823 C1093 1.477 . S
C1837 C1 1.411 . S
C1843 C1083 1.422 . S
C1863 C1127 1.534 . S
C1857 C511 1.644 . S
C1883 C1121 1.476 . S
C1877 C781 1.473 . S
C1903 C1125 1.513 . S
C1897 C860 1.500 . S
C1917 C931 1.515 . S
C1923 C1122 1.515 . S
C1937 C631 1.500 . S
C1943 C1038 1.484 . S
C1963 C1037 1.486 . S
C1957 C301 1.470 . S
C1983 C1057 1.358 . S
C1977 C361 1.426 . S
C2003 C1071 1.525 . S
C1997 C440 1.636 . S
C2017 C811 1.538 . S
C2023 C996 1.518 . S
C2043 C985 1.511 . S
C2037 C61 1.495 . S
C2057 C140 1.451 . S
C2063 C995 1.476 . S
C2083 C971 1.421 . S
C2077 C31 1.406 . S
