# Generated by pormake.
# Topology ptr, (4,4)-cn, num edge types: 1
# Building blocks:
#     Node 0, Type 0, BuildingBlock: AZAVOO_clean_sbu_0, # of connection points: 4
#     Node 1, Type 0, BuildingBlock: AZAVOO_clean_sbu_0, # of connection points: 4
#     Node 2, Type 0, BuildingBlock: AZAVOO_clean_sbu_0, # of connection points: 4
#     Node 3, Type 0, BuildingBlock: AZAVOO_clean_sbu_0, # of connection points: 4
#     Node 4, Type 0, BuildingBlock: AZAVOO_clean_sbu_0, # of connection points: 4
#     Node 5, Type 0, BuildingBlock: AZAVOO_clean_sbu_0, # of connection points: 4
#     Node 6, Type 0, BuildingBlock: AZAVOO_clean_sbu_0, # of connection points: 4
#     Node 7, Type 0, BuildingBlock: AZAVOO_clean_sbu_0, # of connection points: 4
#     Node 8, Type 0, BuildingBlock: AZAVOO_clean_sbu_0, # of connection points: 4
#     Node 9, Type 0, BuildingBlock: AZAVOO_clean_sbu_0, # of connection points: 4
#     Node 10, Type 0, BuildingBlock: AZAVOO_clean_sbu_0, # of connection points: 4
#     Node 11, Type 0, BuildingBlock: AZAVOO_clean_sbu_0, # of connection points: 4
#     Node 12, Type 0, BuildingBlock: AZAVOO_clean_sbu_0, # of connection points: 4
#     Node 13, Type 0, BuildingBlock: AZAVOO_clean_sbu_0, # of connection points: 4
#     Node 14, Type 0, BuildingBlock: AZAVOO_clean_sbu_0, # of connection points: 4
#     Node 15, Type 0, BuildingBlock: AZAVOO_clean_sbu_0, # of connection points: 4
#     Node 16, Type 0, BuildingBlock: AZAVOO_clean_sbu_0, # of connection points: 4
#     Node 17, Type 0, BuildingBlock: AZAVOO_clean_sbu_0, # of connection points: 4
#     Node 18, Type 1, BuildingBlock: MIFKUJ_clean_linker_1, # of connection points: 4
#     Node 19, Type 1, BuildingBlock: MIFKUJ_clean_linker_1, # of connection points: 4
#     Node 20, Type 1, BuildingBlock: MIFKUJ_clean_linker_1, # of connection points: 4
#     Node 21, Type 1, BuildingBlock: MIFKUJ_clean_linker_1, # of connection points: 4
#     Node 22, Type 1, BuildingBlock: MIFKUJ_clean_linker_1, # of connection points: 4
#     Node 23, Type 1, BuildingBlock: MIFKUJ_clean_linker_1, # of connection points: 4
#     Node 24, Type 1, BuildingBlock: MIFKUJ_clean_linker_1, # of connection points: 4
#     Node 25, Type 1, BuildingBlock: MIFKUJ_clean_linker_1, # of connection points: 4
#     Node 26, Type 1, BuildingBlock: MIFKUJ_clean_linker_1, # of connection points: 4
#     Node 27, Type 1, BuildingBlock: MIFKUJ_clean_linker_1, # of connection points: 4
#     Node 28, Type 1, BuildingBlock: MIFKUJ_clean_linker_1, # of connection points: 4
#     Node 29, Type 1, BuildingBlock: MIFKUJ_clean_linker_1, # of connection points: 4
#     Node 30, Type 1, BuildingBlock: MIFKUJ_clean_linker_1, # of connection points: 4
#     Node 31, Type 1, BuildingBlock: MIFKUJ_clean_linker_1, # of connection points: 4
#     Node 32, Type 1, BuildingBlock: MIFKUJ_clean_linker_1, # of connection points: 4
#     Node 33, Type 1, BuildingBlock: MIFKUJ_clean_linker_1, # of connection points: 4
#     Node 34, Type 1, BuildingBlock: MIFKUJ_clean_linker_1, # of connection points: 4
#     Node 35, Type 1, BuildingBlock: MIFKUJ_clean_linker_1, # of connection points: 4
#     Edge 36, Type (0, 1), BuildingBlock: AJUNOK_clean_linker_0, # of connection points: 2
#     Edge 37, Type (0, 1), BuildingBlock: AJUNOK_clean_linker_0, # of connection points: 2
#     Edge 38, Type (0, 1), BuildingBlock: AJUNOK_clean_linker_0, # of connection points: 2
#     Edge 39, Type (0, 1), BuildingBlock: AJUNOK_clean_linker_0, # of connection points: 2
#     Edge 40, Type (0, 1), BuildingBlock: AJUNOK_clean_linker_0, # of connection points: 2
#     Edge 41, Type (0, 1), BuildingBlock: AJUNOK_clean_linker_0, # of connection points: 2
#     Edge 42, Type (0, 1), BuildingBlock: AJUNOK_clean_linker_0, # of connection points: 2
#     Edge 43, Type (0, 1), BuildingBlock: AJUNOK_clean_linker_0, # of connection points: 2
#     Edge 44, Type (0, 1), BuildingBlock: AJUNOK_clean_linker_0, # of connection points: 2
#     Edge 45, Type (0, 1), BuildingBlock: AJUNOK_clean_linker_0, # of connection points: 2
#     Edge 46, Type (0, 1), BuildingBlock: AJUNOK_clean_linker_0, # of connection points: 2
#     Edge 47, Type (0, 1), BuildingBlock: AJUNOK_clean_linker_0, # of connection points: 2
#     Edge 48, Type (0, 1), BuildingBlock: AJUNOK_clean_linker_0, # of connection points: 2
#     Edge 49, Type (0, 1), BuildingBlock: AJUNOK_clean_linker_0, # of connection points: 2
#     Edge 50, Type (0, 1), BuildingBlock: AJUNOK_clean_linker_0, # of connection points: 2
#     Edge 51, Type (0, 1), BuildingBlock: AJUNOK_clean_linker_0, # of connection points: 2
#     Edge 52, Type (0, 1), BuildingBlock: AJUNOK_clean_linker_0, # of connection points: 2
#     Edge 53, Type (0, 1), BuildingBlock: AJUNOK_clean_linker_0, # of connection points: 2
#     Edge 54, Type (0, 1), BuildingBlock: AJUNOK_clean_linker_0, # of connection points: 2
#     Edge 55, Type (0, 1), BuildingBlock: AJUNOK_clean_linker_0, # of connection points: 2
#     Edge 56, Type (0, 1), BuildingBlock: AJUNOK_clean_linker_0, # of connection points: 2
#     Edge 57, Type (0, 1), BuildingBlock: AJUNOK_clean_linker_0, # of connection points: 2
#     Edge 58, Type (0, 1), BuildingBlock: AJUNOK_clean_linker_0, # of connection points: 2
#     Edge 59, Type (0, 1), BuildingBlock: AJUNOK_clean_linker_0, # of connection points: 2
#     Edge 60, Type (0, 1), BuildingBlock: AJUNOK_clean_linker_0, # of connection points: 2
#     Edge 61, Type (0, 1), BuildingBlock: AJUNOK_clean_linker_0, # of connection points: 2
#     Edge 62, Type (0, 1), BuildingBlock: AJUNOK_clean_linker_0, # of connection points: 2
#     Edge 63, Type (0, 1), BuildingBlock: AJUNOK_clean_linker_0, # of connection points: 2
#     Edge 64, Type (0, 1), BuildingBlock: AJUNOK_clean_linker_0, # of connection points: 2
#     Edge 65, Type (0, 1), BuildingBlock: AJUNOK_clean_linker_0, # of connection points: 2
#     Edge 66, Type (0, 1), BuildingBlock: AJUNOK_clean_linker_0, # of connection points: 2
#     Edge 67, Type (0, 1), BuildingBlock: AJUNOK_clean_linker_0, # of connection points: 2
#     Edge 68, Type (0, 1), BuildingBlock: AJUNOK_clean_linker_0, # of connection points: 2
#     Edge 69, Type (0, 1), BuildingBlock: AJUNOK_clean_linker_0, # of connection points: 2
#     Edge 70, Type (0, 1), BuildingBlock: AJUNOK_clean_linker_0, # of connection points: 2
#     Edge 71, Type (0, 1), BuildingBlock: AJUNOK_clean_linker_0, # of connection points: 2
#     Edge 72, Type (0, 1), BuildingBlock: AJUNOK_clean_linker_0, # of connection points: 2
#     Edge 73, Type (0, 1), BuildingBlock: AJUNOK_clean_linker_0, # of connection points: 2
#     Edge 74, Type (0, 1), BuildingBlock: AJUNOK_clean_linker_0, # of connection points: 2
#     Edge 75, Type (0, 1), BuildingBlock: AJUNOK_clean_linker_0, # of connection points: 2
#     Edge 76, Type (0, 1), BuildingBlock: AJUNOK_clean_linker_0, # of connection points: 2
#     Edge 77, Type (0, 1), BuildingBlock: AJUNOK_clean_linker_0, # of connection points: 2
#     Edge 78, Type (0, 1), BuildingBlock: AJUNOK_clean_linker_0, # of connection points: 2
#     Edge 79, Type (0, 1), BuildingBlock: AJUNOK_clean_linker_0, # of connection points: 2
#     Edge 80, Type (0, 1), BuildingBlock: AJUNOK_clean_linker_0, # of connection points: 2
#     Edge 81, Type (0, 1), BuildingBlock: AJUNOK_clean_linker_0, # of connection points: 2
#     Edge 82, Type (0, 1), BuildingBlock: AJUNOK_clean_linker_0, # of connection points: 2
#     Edge 83, Type (0, 1), BuildingBlock: AJUNOK_clean_linker_0, # of connection points: 2
#     Edge 84, Type (0, 1), BuildingBlock: AJUNOK_clean_linker_0, # of connection points: 2
#     Edge 85, Type (0, 1), BuildingBlock: AJUNOK_clean_linker_0, # of connection points: 2
#     Edge 86, Type (0, 1), BuildingBlock: AJUNOK_clean_linker_0, # of connection points: 2
#     Edge 87, Type (0, 1), BuildingBlock: AJUNOK_clean_linker_0, # of connection points: 2
#     Edge 88, Type (0, 1), BuildingBlock: AJUNOK_clean_linker_0, # of connection points: 2
#     Edge 89, Type (0, 1), BuildingBlock: AJUNOK_clean_linker_0, # of connection points: 2
#     Edge 90, Type (0, 1), BuildingBlock: AJUNOK_clean_linker_0, # of connection points: 2
#     Edge 91, Type (0, 1), BuildingBlock: AJUNOK_clean_linker_0, # of connection points: 2
#     Edge 92, Type (0, 1), BuildingBlock: AJUNOK_clean_linker_0, # of connection points: 2
#     Edge 93, Type (0, 1), BuildingBlock: AJUNOK_clean_linker_0, # of connection points: 2
#     Edge 94, Type (0, 1), BuildingBlock: AJUNOK_clean_linker_0, # of connection points: 2
#     Edge 95, Type (0, 1), BuildingBlock: AJUNOK_clean_linker_0, # of connection points: 2
#     Edge 96, Type (0, 1), BuildingBlock: AJUNOK_clean_linker_0, # of connection points: 2
#     Edge 97, Type (0, 1), BuildingBlock: AJUNOK_clean_linker_0, # of connection points: 2
#     Edge 98, Type (0, 1), BuildingBlock: AJUNOK_clean_linker_0, # of connection points: 2
#     Edge 99, Type (0, 1), BuildingBlock: AJUNOK_clean_linker_0, # of connection points: 2
#     Edge 100, Type (0, 1), BuildingBlock: AJUNOK_clean_linker_0, # of connection points: 2
#     Edge 101, Type (0, 1), BuildingBlock: AJUNOK_clean_linker_0, # of connection points: 2
#     Edge 102, Type (0, 1), BuildingBlock: AJUNOK_clean_linker_0, # of connection points: 2
#     Edge 103, Type (0, 1), BuildingBlock: AJUNOK_clean_linker_0, # of connection points: 2
#     Edge 104, Type (0, 1), BuildingBlock: AJUNOK_clean_linker_0, # of connection points: 2
#     Edge 105, Type (0, 1), BuildingBlock: AJUNOK_clean_linker_0, # of connection points: 2
#     Edge 106, Type (0, 1), BuildingBlock: AJUNOK_clean_linker_0, # of connection points: 2
#     Edge 107, Type (0, 1), BuildingBlock: AJUNOK_clean_linker_0, # of connection points: 2
# Relax obj value: 0.079
# Max RMSD: 0.280
# Mean RMSD: 0.122
data_MOF--net-ptr--node1-AZAVOO_clean_sbu_0--node2-MIFKUJ_clean_linker_1--edge1-AJUNOK_clean_linker_0
_symmetry_space_group_name_H-M    P1
_symmetry_Int_Tables_number       1
_symmetry_cell_setting            triclinic
loop_
_symmetry_equiv_pos_as_xyz
'x, y, z'
_cell_length_a     71.1541
_cell_length_b     69.984499
_cell_length_c     46.309834
_cell_angle_alpha  91.390053
_cell_angle_beta   91.154322
_cell_angle_gamma 120.02685
loop_
_atom_site_label
_atom_site_type_symbol
_atom_site_fract_x
_atom_site_fract_y
_atom_site_fract_z
_atom_type_partial_charge
Mg0 Mg 0.02121 0.34886 0.99377 0.0
O1 O 0.00246 0.3603 0.02348 0.0
O2 O 0.98161 0.36678 0.99328 0.0
Mg3 Mg 0.98609 0.35973 0.94614 0.0
C4 C 0.98861 0.36661 0.01883 0.0
C5 C 0.04553 0.32921 0.02258 0.0
O6 O 0.04801 0.32844 0.99461 0.0
O7 O 0.99099 0.31444 0.98511 0.0
O8 O 0.97258 0.32283 0.95294 0.0
O9 O 0.04673 0.38465 0.98952 0.0
O10 O 0.01831 0.36622 0.95965 0.0
C11 C 0.97503 0.30874 0.96707 0.0
C12 C 0.03517 0.38463 0.96757 0.0
O13 O 0.03372 0.33692 0.03144 0.0
Mg14 Mg 0.66032 0.64964 0.04248 0.0
O15 O 0.63239 0.64035 0.00897 0.0
O16 O 0.60395 0.63685 0.03283 0.0
Mg17 Mg 0.61291 0.64264 0.0812 0.0
C18 C 0.61277 0.63628 0.00933 0.0
C19 C 0.70346 0.67534 0.00842 0.0
O20 O 0.70969 0.6879 0.03221 0.0
O21 O 0.66639 0.68492 0.04867 0.0
O22 O 0.6378 0.67889 0.0744 0.0
O23 O 0.64889 0.61381 0.04859 0.0
O24 O 0.63764 0.63319 0.07377 0.0
C25 C 0.65565 0.69198 0.06272 0.0
C26 C 0.63617 0.61445 0.06769 0.0
O27 O 0.68421 0.65904 0.00615 0.0
Mg28 Mg 0.34434 0.98513 0.98842 0.0
O29 O 0.36939 0.00065 0.02617 0.0
O30 O 0.39981 0.0286 0.00964 0.0
Mg31 Mg 0.39546 0.02833 0.9604 0.0
C32 C 0.38873 0.01677 0.0302 0.0
C33 C 0.29927 0.9675 0.01658 0.0
O34 O 0.29548 0.97489 0.99266 0.0
O35 O 0.33977 0.01514 0.98561 0.0
O36 O 0.37014 0.03922 0.96441 0.0
O37 O 0.35548 0.96085 0.97922 0.0
O38 O 0.36911 0.99365 0.96002 0.0
C39 C 0.35138 0.03359 0.97383 0.0
C40 C 0.36959 0.97572 0.96301 0.0
O41 O 0.3177 0.96908 0.0208 0.0
Mg42 Mg 0.98555 0.65596 0.03411 0.0
O43 O 0.00152 0.64388 1.00028 0.0
O44 O 0.02465 0.63745 0.0258 0.0
Mg45 Mg 0.02394 0.64456 0.0739 0.0
C46 C 0.0156 0.63758 1.00176 0.0
C47 C 0.95416 0.65511 0.98462 0.0
O48 O 0.94559 0.63387 0.98856 0.0
O49 O 0.01657 0.69009 0.04062 0.0
O50 O 0.03784 0.68138 0.06661 0.0
O51 O 0.95965 0.62058 0.04054 0.0
O52 O 0.9909 0.63806 0.0653 0.0
C53 C 0.03431 0.69563 0.05479 0.0
C54 C 0.97305 0.62 0.0593 0.0
O55 O 0.97142 0.66853 0.99907 0.0
Mg56 Mg 0.34313 0.34964 0.97991 0.0
O57 O 0.3723 0.36095 0.01215 0.0
O58 O 0.40086 0.36802 0.98593 0.0
Mg59 Mg 0.39037 0.3609 0.93797 0.0
C60 C 0.3925 0.36743 0.01027 0.0
C61 C 0.29955 0.32567 0.00832 0.0
O62 O 0.29492 0.32049 0.98062 0.0
O63 O 0.33962 0.31553 0.97239 0.0
O64 O 0.36788 0.32391 0.94479 0.0
O65 O 0.35252 0.38514 0.97481 0.0
O66 O 0.36366 0.36691 0.94715 0.0
C67 C 0.3508 0.30973 0.95707 0.0
C68 C 0.36439 0.38518 0.95396 0.0
O69 O 0.31937 0.33771 0.01646 0.0
Mg70 Mg 0.6572 0.01003 0.04254 0.0
O71 O 0.63309 0.99629 0.0037 0.0
O72 O 0.60131 0.96968 0.01858 0.0
Mg73 Mg 0.60474 0.9672 0.06745 0.0
C74 C 0.61328 0.98154 0.99861 0.0
C75 C 0.70396 0.03917 0.02167 0.0
O76 O 0.70718 0.04281 0.04978 0.0
O77 O 0.66045 0.97932 0.04367 0.0
O78 O 0.62894 0.95488 0.06208 0.0
O79 O 0.64723 0.0351 0.05248 0.0
O80 O 0.63173 0.00173 0.07007 0.0
C81 C 0.64779 0.96027 0.05326 0.0
C82 C 0.63227 0.02029 0.06787 0.0
O83 O 0.68484 0.02612 0.01165 0.0
Mg84 Mg 0.68053 0.67714 0.32787 0.0
O85 O 0.66494 0.69016 0.3608 0.0
O86 O 0.64221 0.69691 0.33498 0.0
Mg87 Mg 0.64248 0.68834 0.28723 0.0
C88 C 0.65125 0.69692 0.35909 0.0
C89 C 0.711 0.66402 0.35691 0.0
O90 O 0.71731 0.6682 0.33018 0.0
O91 O 0.64945 0.64296 0.32251 0.0
O92 O 0.62867 0.65171 0.2956 0.0
O93 O 0.70629 0.71225 0.32012 0.0
O94 O 0.67541 0.69407 0.2949 0.0
C95 C 0.63187 0.63739 0.30792 0.0
C96 C 0.69328 0.71226 0.30017 0.0
O97 O 0.69487 0.66596 0.36423 0.0
Mg98 Mg 0.32222 0.98386 0.38277 0.0
O99 O 0.29583 0.97454 0.34696 0.0
O100 O 0.26554 0.96802 0.36852 0.0
Mg101 Mg 0.27192 0.97199 0.41768 0.0
C102 C 0.27582 0.96916 0.34572 0.0
C103 C 0.3664 0.99845 0.35653 0.0
O104 O 0.36904 0.99355 0.38296 0.0
O105 O 0.32611 0.01811 0.39124 0.0
O106 O 0.2965 0.00897 0.41639 0.0
O107 O 0.31236 0.94811 0.38682 0.0
O108 O 0.29843 0.96504 0.4117 0.0
C109 C 0.31462 0.02345 0.40666 0.0
C110 C 0.29846 0.9471 0.4052 0.0
O111 O 0.34829 0.99667 0.34913 0.0
Mg112 Mg 0.01078 0.3198 0.31777 0.0
O113 O 0.03818 0.33668 0.35261 0.0
O114 O 0.0686 0.35979 0.331 0.0
Mg115 Mg 0.06109 0.35744 0.28236 0.0
C116 C 0.05841 0.35098 0.35373 0.0
C117 C 0.96839 0.30753 0.34979 0.0
O118 O 0.96474 0.31499 0.32583 0.0
O119 O 0.00875 0.35118 0.313 0.0
O120 O 0.03871 0.37164 0.28864 0.0
O121 O 0.01968 0.29341 0.30944 0.0
O122 O 0.03278 0.32449 0.28651 0.0
C123 C 0.02113 0.36861 0.29958 0.0
C124 C 0.03256 0.30631 0.29038 0.0
O125 O 0.98609 0.30737 0.35304 0.0
Mg126 Mg 0.65519 0.98821 0.37367 0.0
O127 O 0.67036 0.97656 0.33857 0.0
O128 O 0.69636 0.97267 0.36094 0.0
Mg129 Mg 0.69705 0.98002 0.40942 0.0
C130 C 0.68558 0.97185 0.33809 0.0
C131 C 0.63557 0.01447 0.34402 0.0
O132 O 0.64379 0.02644 0.36811 0.0
O133 O 0.68532 0.02304 0.37701 0.0
O134 O 0.70851 0.01632 0.4017 0.0
O135 O 0.63085 0.95292 0.38224 0.0
O136 O 0.66313 0.97183 0.40433 0.0
C137 C 0.70369 0.02976 0.3901 0.0
C138 C 0.64535 0.95336 0.4 0.0
O139 O 0.6382 0.99798 0.33939 0.0
Mg140 Mg 0.0038 0.68399 0.31379 0.0
O141 O 0.02981 0.69451 0.35039 0.0
O142 O 0.05977 0.69729 0.33174 0.0
Mg143 Mg 0.05358 0.69058 0.28292 0.0
C144 C 0.04933 0.69844 0.35313 0.0
C145 C 0.95995 0.65686 0.34581 0.0
O146 O 0.95568 0.64317 0.32351 0.0
O147 O 0.99821 0.64891 0.31005 0.0
O148 O 0.02848 0.65418 0.28921 0.0
O149 O 0.01554 0.7194 0.30588 0.0
O150 O 0.02797 0.6998 0.28401 0.0
C151 C 0.0098 0.64155 0.29916 0.0
C152 C 0.02904 0.7186 0.28823 0.0
O153 O 0.97814 0.6747 0.34767 0.0
Mg154 Mg 0.33022 0.35481 0.37725 0.0
O155 O 0.30222 0.33766 0.34349 0.0
O156 O 0.27221 0.31418 0.36556 0.0
Mg157 Mg 0.28087 0.31665 0.41395 0.0
C158 C 0.28207 0.32314 0.3427 0.0
C159 C 0.37082 0.3655 0.34112 0.0
O160 O 0.37467 0.35641 0.36325 0.0
O161 O 0.33264 0.32369 0.38104 0.0
O162 O 0.30284 0.3021 0.4053 0.0
O163 O 0.32105 0.38078 0.38627 0.0
O164 O 0.30896 0.34993 0.40976 0.0
C165 C 0.32032 0.30573 0.39344 0.0
C166 C 0.309 0.36806 0.4061 0.0
O167 O 0.35386 0.36722 0.34068 0.0
Mg168 Mg 0.34672 0.00979 0.65178 0.0
O169 O 0.3299 0.01981 0.68612 0.0
O170 O 0.30481 0.0245 0.66281 0.0
Mg171 Mg 0.30589 0.01837 0.61406 0.0
C172 C 0.31492 0.02483 0.68611 0.0
C173 C 0.37501 0.99235 0.67638 0.0
O174 O 0.37632 0.99121 0.6482 0.0
O175 O 0.31737 0.97467 0.6453 0.0
O176 O 0.29527 0.98179 0.61832 0.0
O177 O 0.37031 0.04582 0.64621 0.0
O178 O 0.33968 0.02645 0.6205 0.0
C179 C 0.30002 0.96825 0.6298 0.0
C180 C 0.35665 0.04521 0.62678 0.0
O181 O 0.36284 -0.00075 0.68636 0.0
Mg182 Mg 0.98879 0.3126 0.70917 0.0
O183 O 0.96079 0.30326 0.6756 0.0
O184 O 0.93226 0.29867 0.70022 0.0
Mg185 Mg 0.94098 0.30351 0.74865 0.0
C186 C 0.941 0.29865 0.67643 0.0
C187 C 0.03258 0.33903 0.67746 0.0
O188 O 0.0383 0.3501 0.70245 0.0
O189 O 0.99391 0.34744 0.71688 0.0
O190 O 0.96531 0.34012 0.74335 0.0
O191 O 0.97823 0.2768 0.71403 0.0
O192 O 0.96625 0.29515 0.74004 0.0
C193 C 0.98299 0.35381 0.73182 0.0
C194 C 0.96531 0.27674 0.73333 0.0
O195 O 0.01314 0.32337 0.67334 0.0
Mg196 Mg 0.67017 0.64222 0.65143 0.0
O197 O 0.70059 0.66028 0.68149 0.0
O198 O 0.72923 0.67818 0.65406 0.0
Mg199 Mg 0.71731 0.6719 0.60657 0.0
C200 C 0.72101 0.6727 0.67883 0.0
C201 C 0.63194 0.63703 0.68809 0.0
O202 O 0.62777 0.64385 0.6639 0.0
O203 O 0.67086 0.67459 0.64314 0.0
O204 O 0.69888 0.69045 0.61401 0.0
O205 O 0.67578 0.61339 0.6468 0.0
O206 O 0.68817 0.64135 0.61758 0.0
C207 C 0.68324 0.69036 0.62717 0.0
C208 C 0.68709 0.62326 0.62477 0.0
O209 O 0.64882 0.63523 0.69009 0.0
Mg210 Mg 0.31776 0.32291 0.70893 0.0
O211 O 0.33341 0.31137 0.67457 0.0
O212 O 0.35775 0.30541 0.69776 0.0
Mg213 Mg 0.35791 0.31287 0.74616 0.0
C214 C 0.34774 0.30543 0.67457 0.0
C215 C 0.28606 0.3194 0.65836 0.0
O216 O 0.27983 0.29848 0.66153 0.0
O217 O 0.34822 0.3575 0.71402 0.0
O218 O 0.3705 0.34945 0.73865 0.0
O219 O 0.2934 0.2872 0.71588 0.0
O220 O 0.32452 0.30623 0.74057 0.0
C221 C 0.36637 0.36348 0.72735 0.0
C222 C 0.30716 0.28765 0.73496 0.0
O223 O 0.30214 0.33386 0.67385 0.0
Mg224 Mg 0.68364 0.02282 0.65094 0.0
O225 O 0.71075 0.03333 0.68629 0.0
O226 O 0.74026 0.0385 0.66376 0.0
Mg227 Mg 0.73289 0.03286 0.6149 0.0
C228 C 0.73073 0.0385 0.68683 0.0
C229 C 0.63817 8e-05 0.67659 0.0
O230 O 0.63343 0.99583 0.64876 0.0
O231 O 0.67972 0.98846 0.64489 0.0
O232 O 0.70889 0.99599 0.61976 0.0
O233 O 0.69318 0.05824 0.64484 0.0
O234 O 0.70687 0.04057 0.62096 0.0
C235 C 0.69103 0.98216 0.6308 0.0
C236 C 0.7069 0.05867 0.62657 0.0
O237 O 0.65802 0.01092 0.68502 0.0
Mg238 Mg 0.99483 0.68273 0.71087 0.0
O239 O 0.96585 0.6668 0.67833 0.0
O240 O 0.93578 0.64695 0.70253 0.0
Mg241 Mg 0.9454 0.65032 0.75075 0.0
C242 C 0.94532 0.65414 0.67885 0.0
C243 C 0.03419 0.68954 0.67421 0.0
O244 O 0.03757 0.68037 0.69664 0.0
O245 O 0.99362 0.64975 0.71625 0.0
O246 O 0.96437 0.63234 0.74301 0.0
O247 O 0.98935 0.71148 0.7183 0.0
O248 O 0.97525 0.68153 0.74395 0.0
C249 C 0.98061 0.63315 0.73061 0.0
C250 C 0.97709 0.70033 0.739 0.0
O251 O 0.01775 0.69215 0.67358 0.0
H252 H 0.14989 0.32664 0.21821 0.0
H253 H 0.12091 0.32547 0.2471 0.0
H254 H 0.07434 0.26424 0.20299 0.0
H255 H 0.10343 0.26543 0.17375 0.0
H256 H 0.16525 0.29908 0.21397 0.0
H257 H 0.13535 0.33 0.15364 0.0
H258 H 0.10906 0.33568 0.1261 0.0
H259 H 0.09144 0.2769 0.07351 0.0
H260 H 0.1181 0.27145 0.10102 0.0
H261 H 0.1804 0.26822 0.10815 0.0
H262 H 0.20943 0.27219 0.0769 0.0
H263 H 0.25038 0.33907 0.11077 0.0
H264 H 0.22155 0.3347 0.14264 0.0
H265 H 0.16203 0.298 0.10683 0.0
H266 H 0.19383 0.26979 0.18742 0.0
H267 H 0.22075 0.2737 0.22478 0.0
H268 H 0.23885 0.342 0.24011 0.0
H269 H 0.21212 0.338 0.20288 0.0
C270 C 0.12873 0.29621 0.19375 0.0
C271 C 0.13349 0.31284 0.21492 0.0
C272 C 0.11704 0.31214 0.23142 0.0
C273 C 0.09565 0.29464 0.2273 0.0
C274 C 0.09086 0.27769 0.20664 0.0
C275 C 0.10734 0.27851 0.18984 0.0
C276 C 0.14632 0.29737 0.17613 0.0
C277 C 0.16451 0.29883 0.19051 0.0
C278 C 0.14552 0.29759 0.1456 0.0
C279 C 0.12854 0.30012 0.12968 0.0
C280 C 0.12553 0.31806 0.13656 0.0
C281 C 0.11039 0.32124 0.12087 0.0
C282 C 0.09788 0.30655 0.09788 0.0
C283 C 0.10081 0.2885 0.09113 0.0
C284 C 0.11603 0.28536 0.10681 0.0
C285 C 0.19888 0.30114 0.12768 0.0
C286 C 0.19574 0.28363 0.10902 0.0
C287 C 0.21226 0.28599 0.09106 0.0
C288 C 0.23205 0.30609 0.09102 0.0
C289 C 0.23536 0.32337 0.1104 0.0
C290 C 0.21891 0.32091 0.12858 0.0
C291 C 0.18076 0.29926 0.14481 0.0
C292 C 0.16246 0.29774 0.13024 0.0
C293 C 0.18193 0.30031 0.17528 0.0
C294 C 0.20115 0.30365 0.19239 0.0
C295 C 0.20408 0.28574 0.19827 0.0
C296 C 0.21926 0.28794 0.21975 0.0
C297 C 0.23164 0.30808 0.23557 0.0
C298 C 0.2296 0.32633 0.22821 0.0
C299 C 0.21438 0.32408 0.20695 0.0
H300 H 0.72511 0.91893 0.18945 0.0
H301 H 0.72197 0.94628 0.22028 0.0
H302 H 0.66743 0.89348 0.26142 0.0
H303 H 0.67061 0.86635 0.23083 0.0
H304 H 0.70512 0.85985 0.23017 0.0
H305 H 0.72076 0.89692 0.11524 0.0
H306 H 0.70883 0.9166 0.08322 0.0
H307 H 0.6525 0.89704 0.1346 0.0
H308 H 0.66395 0.87683 0.16568 0.0
H309 H 0.67072 0.79661 0.17114 0.0
H310 H 0.66181 0.76313 0.14305 0.0
H311 H 0.71412 0.80117 0.08635 0.0
H312 H 0.72372 0.83481 0.1156 0.0
H313 H 0.69846 0.85278 0.12316 0.0
H314 H 0.67706 0.81698 0.23431 0.0
H315 H 0.67685 0.78723 0.26136 0.0
H316 H 0.73382 0.79683 0.21793 0.0
H317 H 0.7339 0.82655 0.1904 0.0
C318 C 0.69819 0.89061 0.208 0.0
C319 C 0.71235 0.9133 0.2049 0.0
C320 C 0.71059 0.92887 0.22253 0.0
C321 C 0.6945 0.92194 0.24327 0.0
C322 C 0.67988 0.89927 0.2455 0.0
C323 C 0.68179 0.88377 0.2282 0.0
C324 C 0.70082 0.87376 0.19131 0.0
C325 C 0.70381 0.8584 0.20674 0.0
C326 C 0.69938 0.872 0.16074 0.0
C327 C 0.69344 0.88572 0.14314 0.0
C328 C 0.70589 0.89699 0.11962 0.0
C329 C 0.69907 0.90816 0.10135 0.0
C330 C 0.67954 0.90797 0.10612 0.0
C331 C 0.66734 0.897 0.12996 0.0
C332 C 0.67411 0.88582 0.14812 0.0
C333 C 0.69826 0.8182 0.14598 0.0
C334 C 0.68074 0.79775 0.15322 0.0
C335 C 0.67542 0.77865 0.13683 0.0
C336 C 0.68725 0.77953 0.11247 0.0
C337 C 0.70491 0.79995 0.10523 0.0
C338 C 0.71033 0.81915 0.12184 0.0
C339 C 0.70234 0.83865 0.16201 0.0
C340 C 0.70072 0.85479 0.14651 0.0
C341 C 0.70434 0.84074 0.19256 0.0
C342 C 0.70546 0.82394 0.21029 0.0
C343 C 0.68971 0.81294 0.23087 0.0
C344 C 0.68956 0.79597 0.24624 0.0
C345 C 0.70539 0.78999 0.24172 0.0
C346 C 0.7216 0.8014 0.22186 0.0
C347 C 0.72157 0.81822 0.20611 0.0
H348 H 0.0978 0.82881 0.17406 0.0
H349 H 0.06993 0.79887 0.20189 0.0
H350 H 0.12015 0.79459 0.25011 0.0
H351 H 0.14787 0.82449 0.22259 0.0
H352 H 0.15724 0.86744 0.21649 0.0
H353 H 0.11834 0.83887 0.1007 0.0
H354 H 0.09266 0.80496 0.07307 0.0
H355 H 0.10609 0.76658 0.13301 0.0
H356 H 0.13234 0.80041 0.15958 0.0
H357 H 0.20364 0.867 0.11925 0.0
H358 H 0.23378 0.89071 0.08914 0.0
H359 H 0.22523 0.94598 0.11218 0.0
H360 H 0.19471 0.922 0.14213 0.0
H361 H 0.16199 0.85629 0.11134 0.0
H362 H 0.21721 0.88885 0.19012 0.0
H363 H 0.24328 0.91431 0.22723 0.0
H364 H 0.20049 0.93993 0.24512 0.0
H365 H 0.17416 0.91383 0.20869 0.0
C366 C 0.12484 0.8288 0.1963 0.0
C367 C 0.10276 0.82153 0.1908 0.0
C368 C 0.08693 0.80458 0.20672 0.0
C369 C 0.09304 0.79462 0.22809 0.0
C370 C 0.11513 0.80209 0.23373 0.0
C371 C 0.1309 0.81916 0.21813 0.0
C372 C 0.14185 0.84596 0.17893 0.0
C373 C 0.15814 0.86521 0.19338 0.0
C374 C 0.14302 0.84278 0.14886 0.0
C375 C 0.12697 0.82219 0.13258 0.0
C376 C 0.1157 0.82312 0.10787 0.0
C377 C 0.10091 0.80373 0.09223 0.0
C378 C 0.09716 0.78304 0.10101 0.0
C379 C 0.10864 0.78224 0.12561 0.0
C380 C 0.12347 0.80157 0.14107 0.0
C381 C 0.19692 0.89273 0.13284 0.0
C382 C 0.2083 0.88424 0.11794 0.0
C383 C 0.22555 0.8978 0.10087 0.0
C384 C 0.23167 0.92009 0.09819 0.0
C385 C 0.22061 0.92876 0.11363 0.0
C386 C 0.20335 0.91516 0.13089 0.0
C387 C 0.17767 0.87764 0.14907 0.0
C388 C 0.16081 0.85886 0.13428 0.0
C389 C 0.17616 0.88101 0.17894 0.0
C390 C 0.1938 0.89952 0.19657 0.0
C391 C 0.21376 0.90042 0.20144 0.0
C392 C 0.2287 0.91507 0.22262 0.0
C393 C 0.22401 0.92923 0.23914 0.0
C394 C 0.20453 0.92915 0.23294 0.0
C395 C 0.18952 0.91434 0.21202 0.0
H396 H 0.26585 0.15779 0.80798 0.0
H397 H 0.26627 0.18844 0.78288 0.0
H398 H 0.33505 0.22889 0.80347 0.0
H399 H 0.33421 0.19852 0.82958 0.0
H400 H 0.29623 0.1391 0.79742 0.0
H401 H 0.27926 0.1807 0.87038 0.0
H402 H 0.28997 0.21581 0.89628 0.0
H403 H 0.34739 0.2171 0.93105 0.0
H404 H 0.33732 0.18281 0.90397 0.0
H405 H 0.33465 0.11433 0.85684 0.0
H406 H 0.34433 0.09227 0.887 0.0
H407 H 0.29095 0.07853 0.94187 0.0
H408 H 0.28055 0.0997 0.91058 0.0
H409 H 0.30583 0.14279 0.90413 0.0
H410 H 0.33033 0.13028 0.79533 0.0
H411 H 0.33299 0.10326 0.76375 0.0
H412 H 0.27525 0.05074 0.79967 0.0
H413 H 0.27283 0.07796 0.83191 0.0
C414 C 0.29997 0.17601 0.82072 0.0
C415 C 0.28099 0.17328 0.80694 0.0
C416 C 0.28131 0.19073 0.7924 0.0
C417 C 0.30074 0.21106 0.79091 0.0
C418 C 0.31978 0.21353 0.80442 0.0
C419 C 0.31937 0.1962 0.81924 0.0
C420 C 0.29955 0.15778 0.83672 0.0
C421 C 0.29796 0.13967 0.82081 0.0
C422 C 0.30267 0.15908 0.86713 0.0
C423 C 0.30763 0.17922 0.88482 0.0
C424 C 0.29416 0.18855 0.88354 0.0
C425 C 0.30012 0.20844 0.89875 0.0
C426 C 0.31947 0.21915 0.91586 0.0
C427 C 0.33244 0.2093 0.91796 0.0
C428 C 0.32661 0.18961 0.90259 0.0
C429 C 0.30653 0.10824 0.88097 0.0
C430 C 0.32452 0.10594 0.8747 0.0
C431 C 0.33029 0.09366 0.89231 0.0
C432 C 0.31842 0.08371 0.91684 0.0
C433 C 0.3002 0.08571 0.92289 0.0
C434 C 0.2943 0.09785 0.90507 0.0
C435 C 0.30235 0.1239 0.86494 0.0
C436 C 0.30327 0.14173 0.88083 0.0
C437 C 0.29999 0.12302 0.83442 0.0
C438 C 0.30138 0.10614 0.81596 0.0
C439 C 0.31828 0.11295 0.79657 0.0
C440 C 0.31989 0.09751 0.7787 0.0
C441 C 0.30444 0.07495 0.77953 0.0
C442 C 0.28741 0.06806 0.79881 0.0
C443 C 0.28603 0.08354 0.81716 0.0
H444 H 0.82758 0.08584 0.8313 0.0
H445 H 0.80198 0.06166 0.79284 0.0
H446 H 0.76369 0.09326 0.80482 0.0
H447 H 0.78899 0.11686 0.84406 0.0
H448 H 0.84743 0.13361 0.82107 0.0
H449 H 0.80501 0.07964 0.893 0.0
H450 H 0.77469 0.05771 0.92442 0.0
H451 H 0.7741 0.11674 0.95197 0.0
H452 H 0.80392 0.13849 0.92036 0.0
H453 H 0.85762 0.18574 0.92713 0.0
H454 H 0.88612 0.22016 0.95067 0.0
H455 H 0.93501 0.2107 0.91013 0.0
H456 H 0.90665 0.17561 0.88776 0.0
H457 H 0.84317 0.14545 0.92607 0.0
H458 H 0.8722 0.19731 0.85503 0.0
H459 H 0.89707 0.22535 0.82298 0.0
H460 H 0.91533 0.17944 0.78805 0.0
H461 H 0.89074 0.15142 0.8209 0.0
C462 C 0.81016 0.1031 0.84053 0.0
C463 C 0.8133 0.08707 0.82624 0.0
C464 C 0.7988 0.07345 0.80406 0.0
C465 C 0.78115 0.07598 0.79528 0.0
C466 C 0.77715 0.09095 0.81105 0.0
C467 C 0.79156 0.10441 0.83352 0.0
C468 C 0.82818 0.12092 0.8585 0.0
C469 C 0.84675 0.13592 0.84421 0.0
C470 C 0.82657 0.12475 0.8882 0.0
C471 C 0.80681 0.11074 0.9044 0.0
C472 C 0.79805 0.08778 0.90532 0.0
C473 C 0.78085 0.07529 0.92333 0.0
C474 C 0.77243 0.08569 0.94085 0.0
C475 C 0.78063 0.10846 0.93902 0.0
C476 C 0.79761 0.12085 0.92095 0.0
C477 C 0.87986 0.17811 0.90518 0.0
C478 C 0.87445 0.19065 0.92387 0.0
C479 C 0.89071 0.21032 0.93735 0.0
C480 C 0.91264 0.21791 0.9322 0.0
C481 C 0.91816 0.20506 0.91445 0.0
C482 C 0.90194 0.18516 0.90144 0.0
C483 C 0.86245 0.15833 0.88864 0.0
C484 C 0.84407 0.14298 0.90304 0.0
C485 C 0.86343 0.15498 0.85853 0.0
C486 C 0.87979 0.17235 0.84058 0.0
C487 C 0.88181 0.19335 0.84086 0.0
C488 C 0.8958 0.20926 0.82229 0.0
C489 C 0.9078 0.20437 0.80275 0.0
C490 C 0.90619 0.18354 0.80288 0.0
C491 C 0.89216 0.16758 0.82155 0.0
H492 H 0.78493 0.66843 0.83624 0.0
H493 H 0.75859 0.66317 0.79771 0.0
H494 H 0.79839 0.73138 0.77593 0.0
H495 H 0.82496 0.73645 0.81417 0.0
H496 H 0.84609 0.71402 0.80996 0.0
H497 H 0.79524 0.66147 0.90367 0.0
H498 H 0.76491 0.65616 0.93323 0.0
H499 H 0.77759 0.72149 0.91384 0.0
H500 H 0.8079 0.72675 0.88414 0.0
H501 H 0.87954 0.71582 0.92713 0.0
H502 H 0.90435 0.7063 0.95188 0.0
H503 H 0.8966 0.66208 0.88014 0.0
H504 H 0.87126 0.67105 0.85594 0.0
H505 H 0.83748 0.6908 0.91142 0.0
H506 H 0.90388 0.73367 0.86167 0.0
H507 H 0.93522 0.73759 0.83553 0.0
H508 H 0.89215 0.69458 0.76636 0.0
H509 H 0.86089 0.69006 0.79273 0.0
C510 C 0.80696 0.70283 0.82808 0.0
C511 C 0.78767 0.68245 0.82381 0.0
C512 C 0.77266 0.67944 0.80167 0.0
C513 C 0.7767 0.69673 0.78337 0.0
C514 C 0.79514 0.7176 0.78921 0.0
C515 C 0.81021 0.72058 0.81122 0.0
C516 C 0.82516 0.70427 0.8461 0.0
C517 C 0.84433 0.70922 0.83229 0.0
C518 C 0.82293 0.69819 0.87524 0.0
C519 C 0.80377 0.69447 0.89164 0.0
C520 C 0.79138 0.67458 0.90558 0.0
C521 C 0.77401 0.67151 0.92227 0.0
C522 C 0.76889 0.68838 0.92558 0.0
C523 C 0.78122 0.70824 0.91151 0.0
C524 C 0.79842 0.7112 0.8945 0.0
C525 C 0.87369 0.69437 0.8895 0.0
C526 C 0.88323 0.70413 0.91669 0.0
C527 C 0.8976 0.69886 0.93067 0.0
C528 C 0.90269 0.68368 0.91776 0.0
C529 C 0.89306 0.67388 0.89059 0.0
C530 C 0.87867 0.67911 0.87666 0.0
C531 C 0.8581 0.69966 0.87482 0.0
C532 C 0.83944 0.69598 0.88926 0.0
C533 C 0.86079 0.70695 0.84612 0.0
C534 C 0.88 0.71124 0.82942 0.0
C535 C 0.90119 0.72514 0.84085 0.0
C536 C 0.91905 0.72753 0.82586 0.0
C537 C 0.91596 0.71638 0.79903 0.0
C538 C 0.89489 0.70351 0.78689 0.0
C539 C 0.87705 0.70088 0.802 0.0
H540 H 0.80493 0.64227 0.56522 0.0
H541 H 0.77387 0.63586 0.59347 0.0
H542 H 0.73036 0.58851 0.52799 0.0
H543 H 0.76162 0.59443 0.49993 0.0
H544 H 0.82058 0.61841 0.55018 0.0
H545 H 0.79136 0.6569 0.49791 0.0
H546 H 0.7664 0.66404 0.46913 0.0
H547 H 0.75959 0.61495 0.40496 0.0
H548 H 0.78475 0.6081 0.43359 0.0
H549 H 0.86033 0.60569 0.47773 0.0
H550 H 0.88994 0.61117 0.44652 0.0
H551 H 0.89677 0.67311 0.42056 0.0
H552 H 0.86752 0.66782 0.45213 0.0
H553 H 0.82664 0.63697 0.44697 0.0
H554 H 0.84104 0.59523 0.54582 0.0
H555 H 0.86827 0.60006 0.58284 0.0
H556 H 0.90849 0.6679 0.5597 0.0
H557 H 0.8814 0.66286 0.52239 0.0
C558 C 0.78563 0.619 0.53029 0.0
C559 C 0.78875 0.63021 0.5571 0.0
C560 C 0.77103 0.62643 0.57335 0.0
C561 C 0.74983 0.61144 0.56306 0.0
C562 C 0.74663 0.60001 0.53641 0.0
C563 C 0.76442 0.60359 0.52027 0.0
C564 C 0.80474 0.62332 0.51336 0.0
C565 C 0.82184 0.62233 0.52752 0.0
C566 C 0.80655 0.62892 0.48398 0.0
C567 C 0.78986 0.63187 0.468 0.0
C568 C 0.78417 0.64738 0.47791 0.0
C569 C 0.76982 0.65138 0.46149 0.0
C570 C 0.7609 0.63996 0.43483 0.0
C571 C 0.76627 0.6241 0.42533 0.0
C572 C 0.78062 0.62015 0.44168 0.0
C573 C 0.86172 0.63635 0.46726 0.0
C574 C 0.86845 0.62062 0.46569 0.0
C575 C 0.88518 0.62364 0.44766 0.0
C576 C 0.89541 0.64242 0.4309 0.0
C577 C 0.88915 0.65849 0.43327 0.0
C578 C 0.8724 0.65544 0.45118 0.0
C579 C 0.84254 0.63219 0.48393 0.0
C580 C 0.8253 0.6329 0.46957 0.0
C581 C 0.84088 0.6271 0.51344 0.0
C582 C 0.85922 0.62864 0.53123 0.0
C583 C 0.85601 0.61096 0.54817 0.0
C584 C 0.87151 0.61377 0.56941 0.0
C585 C 0.8905 0.63436 0.57423 0.0
C586 C 0.89423 0.65172 0.55619 0.0
C587 C 0.87874 0.64886 0.53483 0.0
H588 H 0.39199 0.25497 0.52915 0.0
H589 H 0.38816 0.28137 0.56121 0.0
H590 H 0.3302 0.22757 0.59488 0.0
H591 H 0.33421 0.20136 0.56338 0.0
H592 H 0.36867 0.19338 0.56282 0.0
H593 H 0.38743 0.23568 0.45161 0.0
H594 H 0.37741 0.25758 0.42099 0.0
H595 H 0.32113 0.23938 0.472 0.0
H596 H 0.33055 0.2168 0.50147 0.0
H597 H 0.33088 0.15037 0.45589 0.0
H598 H 0.32107 0.11516 0.4311 0.0
H599 H 0.37969 0.11914 0.46564 0.0
H600 H 0.38987 0.15478 0.49018 0.0
H601 H 0.36262 0.19148 0.45579 0.0
H602 H 0.3323 0.13458 0.5279 0.0
H603 H 0.33049 0.10389 0.5543 0.0
H604 H 0.3984 0.1444 0.57995 0.0
H605 H 0.39976 0.17533 0.55448 0.0
C606 C 0.36342 0.22621 0.54398 0.0
C607 C 0.37841 0.24894 0.54333 0.0
C608 C 0.37621 0.26395 0.56156 0.0
C609 C 0.35874 0.25647 0.58019 0.0
C610 C 0.3436 0.23378 0.58038 0.0
C611 C 0.346 0.2188 0.56261 0.0
C612 C 0.36577 0.20986 0.5257 0.0
C613 C 0.36777 0.19324 0.53939 0.0
C614 C 0.36437 0.20946 0.49514 0.0
C615 C 0.35993 0.2249 0.47912 0.0
C616 C 0.37301 0.23657 0.45626 0.0
C617 C 0.36728 0.24899 0.43878 0.0
C618 C 0.34826 0.24976 0.44376 0.0
C619 C 0.33556 0.23858 0.46717 0.0
C620 C 0.3412 0.22608 0.48446 0.0
C621 C 0.36102 0.15513 0.47514 0.0
C622 C 0.34198 0.14405 0.45754 0.0
C623 C 0.33638 0.124 0.44334 0.0
C624 C 0.34979 0.11477 0.44634 0.0
C625 C 0.36933 0.12624 0.46278 0.0
C626 C 0.37499 0.1464 0.47699 0.0
C627 C 0.36512 0.1749 0.49289 0.0
C628 C 0.36449 0.19222 0.47917 0.0
C629 C 0.36709 0.17562 0.5234 0.0
C630 C 0.36617 0.15713 0.53928 0.0
C631 C 0.34674 0.13683 0.53938 0.0
C632 C 0.34577 0.11932 0.55439 0.0
C633 C 0.36425 0.12175 0.56948 0.0
C634 C 0.38374 0.14215 0.56921 0.0
C635 C 0.38461 0.15976 0.55447 0.0
H636 H 0.77717 0.18458 0.53977 0.0
H637 H 0.75314 0.15538 0.57161 0.0
H638 H 0.77519 0.11268 0.53616 0.0
H639 H 0.79963 0.14201 0.50522 0.0
H640 H 0.82065 0.20416 0.54196 0.0
H641 H 0.76391 0.1607 0.47063 0.0
H642 H 0.73867 0.12554 0.4456 0.0
H643 H 0.79277 0.12325 0.40858 0.0
H644 H 0.81794 0.15745 0.43515 0.0
H645 H 0.86962 0.20651 0.44609 0.0
H646 H 0.90105 0.23113 0.41857 0.0
H647 H 0.89347 0.28636 0.44534 0.0
H648 H 0.86159 0.26147 0.4726 0.0
H649 H 0.82872 0.19686 0.4369 0.0
H650 H 0.88084 0.22467 0.51767 0.0
H651 H 0.9064 0.24774 0.55686 0.0
H652 H 0.86527 0.27503 0.57642 0.0
H653 H 0.83938 0.25132 0.53785 0.0
C654 C 0.79003 0.16541 0.5199 0.0
C655 C 0.77668 0.16886 0.53873 0.0
C656 C 0.76297 0.1522 0.55685 0.0
C657 C 0.7626 0.13194 0.55664 0.0
C658 C 0.7755 0.12832 0.53718 0.0
C659 C 0.78922 0.14495 0.51917 0.0
C660 C 0.80641 0.18381 0.50317 0.0
C661 C 0.82205 0.20283 0.51879 0.0
C662 C 0.80861 0.18165 0.47308 0.0
C663 C 0.79293 0.16166 0.45529 0.0
C664 C 0.77036 0.15265 0.45713 0.0
C665 C 0.75589 0.1327 0.44237 0.0
C666 C 0.7637 0.12162 0.42496 0.0
C667 C 0.78624 0.13129 0.42196 0.0
C668 C 0.80066 0.15098 0.43703 0.0
C669 C 0.86321 0.23214 0.46127 0.0
C670 C 0.87474 0.22393 0.44613 0.0
C671 C 0.89276 0.23802 0.43059 0.0
C672 C 0.89956 0.26059 0.4297 0.0
C673 C 0.88837 0.26896 0.44542 0.0
C674 C 0.87031 0.25482 0.46114 0.0
C675 C 0.84328 0.2166 0.47601 0.0
C676 C 0.82689 0.19835 0.45991 0.0
C677 C 0.84071 0.21899 0.50578 0.0
C678 C 0.8582 0.23627 0.52493 0.0
C679 C 0.87761 0.23604 0.52993 0.0
C680 C 0.8922 0.24922 0.55235 0.0
C681 C 0.8876 0.26284 0.57012 0.0
C682 C 0.86896 0.26426 0.56359 0.0
C683 C 0.85426 0.2509 0.54141 0.0
H684 H 0.93198 0.49012 0.13489 0.0
H685 H 0.93182 0.51869 0.10526 0.0
H686 H 0.9967 0.56534 0.13811 0.0
H687 H 0.99731 0.53655 0.16568 0.0
H688 H 0.95975 0.47307 0.13238 0.0
H689 H 0.94033 0.50757 0.2193 0.0
H690 H 0.94728 0.53991 0.24963 0.0
H691 H 0.01632 0.56421 0.24691 0.0
H692 H 0.00904 0.53117 0.21897 0.0
H693 H 0.00911 0.47788 0.23437 0.0
H694 H 0.01919 0.45606 0.2642 0.0
H695 H 0.96228 0.39636 0.23142 0.0
H696 H 0.95138 0.41849 0.2029 0.0
H697 H 0.9777 0.48437 0.23765 0.0
H698 H 0.00343 0.45678 0.15958 0.0
H699 H 0.00631 0.4312 0.12535 0.0
H700 H 0.9372 0.39891 0.10646 0.0
H701 H 0.93467 0.42524 0.13966 0.0
C702 C 0.96441 0.51135 0.15322 0.0
C703 C 0.9461 0.50655 0.13572 0.0
C704 C 0.94596 0.52294 0.11902 0.0
C705 C 0.96414 0.54439 0.11963 0.0
C706 C 0.98243 0.549 0.13709 0.0
C707 C 0.98266 0.53263 0.15334 0.0
C708 C 0.96517 0.49402 0.1702 0.0
C709 C 0.96317 0.4752 0.15554 0.0
C710 C 0.97034 0.49714 0.20019 0.0
C711 C 0.9742 0.51712 0.21692 0.0
C712 C 0.9569 0.51986 0.22555 0.0
C713 C 0.96093 0.53833 0.24286 0.0
C714 C 0.98235 0.55448 0.25143 0.0
C715 C -0.00043 0.55173 0.24202 0.0
C716 C 0.9955 0.53304 0.22553 0.0
C717 C 0.97951 0.44985 0.21624 0.0
C718 C 0.99861 0.4601 0.2338 0.0
C719 C 0.00441 0.44762 0.25081 0.0
C720 C 0.99142 0.42453 0.25041 0.0
C721 C 0.97234 0.41418 0.23271 0.0
C722 C 0.96634 0.42677 0.21593 0.0
C723 C 0.97314 0.46375 0.19976 0.0
C724 C 0.97373 0.48176 0.21461 0.0
C725 C 0.96766 0.4603 0.16978 0.0
C726 C 0.96884 0.44298 0.15204 0.0
C727 C 0.98887 0.44402 0.14828 0.0
C728 C 0.99048 0.42934 0.12876 0.0
C729 C 0.97207 0.41326 0.11268 0.0
C730 C 0.95182 0.41151 0.11778 0.0
C731 C 0.95029 0.42642 0.13694 0.0
H732 H 0.49694 0.42181 0.14628 0.0
H733 H 0.47132 0.39733 0.108 0.0
H734 H 0.4286 0.42281 0.12705 0.0
H735 H 0.45393 0.44665 0.16598 0.0
H736 H 0.51558 0.46855 0.14392 0.0
H737 H 0.47307 0.41032 0.21166 0.0
H738 H 0.44179 0.38533 0.23978 0.0
H739 H 0.43297 0.43997 0.26557 0.0
H740 H 0.46376 0.46464 0.23714 0.0
H741 H 0.51618 0.51369 0.25139 0.0
H742 H 0.54107 0.54659 0.28052 0.0
H743 H 0.59556 0.54356 0.24619 0.0
H744 H 0.57049 0.50963 0.21855 0.0
H745 H 0.50462 0.47404 0.24844 0.0
H746 H 0.53739 0.53055 0.18287 0.0
H747 H 0.5639 0.56041 0.15438 0.0
H748 H 0.58481 0.51679 0.11878 0.0
H749 H 0.55873 0.48704 0.14832 0.0
C750 C 0.47734 0.43603 0.159 0.0
C751 C 0.48184 0.42178 0.14257 0.0
C752 C 0.46728 0.40796 0.12053 0.0
C753 C 0.44815 0.4085 0.11403 0.0
C754 C 0.44316 0.42197 0.13152 0.0
C755 C 0.45762 0.43561 0.15379 0.0
C756 C 0.49433 0.45321 0.1789 0.0
C757 C 0.51348 0.4695 0.16696 0.0
C758 C 0.49099 0.45514 0.20852 0.0
C759 C 0.47077 0.43933 0.22246 0.0
C760 C 0.46412 0.41678 0.22295 0.0
C761 C 0.44642 0.40259 0.23918 0.0
C762 C 0.43518 0.41082 0.25509 0.0
C763 C 0.4413 0.43319 0.25345 0.0
C764 C 0.45895 0.44731 0.23736 0.0
C765 C 0.54136 0.50917 0.23238 0.0
C766 C 0.53346 0.51972 0.25058 0.0
C767 C 0.54773 0.53868 0.26713 0.0
C768 C 0.57033 0.54774 0.26577 0.0
C769 C 0.57826 0.53682 0.24823 0.0
C770 C 0.56392 0.51761 0.23197 0.0
C771 C 0.52589 0.48975 0.21348 0.0
C772 C 0.50705 0.47299 0.22553 0.0
C773 C 0.52892 0.4881 0.18354 0.0
C774 C 0.54625 0.50662 0.16801 0.0
C775 C 0.54796 0.52749 0.16942 0.0
C776 C 0.56289 0.54445 0.1528 0.0
C777 C 0.57611 0.54076 0.134 0.0
C778 C 0.57478 0.52004 0.13307 0.0
C779 C 0.55988 0.50306 0.14985 0.0
H780 H 0.55015 0.06377 0.15544 0.0
H781 H 0.57613 0.06221 0.12303 0.0
H782 H 0.56403 0.00114 0.15998 0.0
H783 H 0.53719 0.00207 0.19099 0.0
H784 H 0.50863 0.03656 0.156 0.0
H785 H 0.56704 0.05975 0.2272 0.0
H786 H 0.59561 0.05717 0.25429 0.0
H787 H 0.54753 0.99407 0.28518 0.0
H788 H 0.51909 0.99647 0.25766 0.0
H789 H 0.46388 0.99276 0.25619 0.0
H790 H 0.43405 0.98684 0.28683 0.0
H791 H 0.43951 0.04794 0.25969 0.0
H792 H 0.46968 0.054 0.22904 0.0
H793 H 0.50436 0.02423 0.26108 0.0
H794 H 0.44576 0.00132 0.1905 0.0
H795 H 0.41839 -0.00023 0.15641 0.0
H796 H 0.46745 0.05962 0.11902 0.0
H797 H 0.49397 0.06241 0.15505 0.0
C798 C 0.54195 0.03322 0.17601 0.0
C799 C 0.55321 0.05013 0.15667 0.0
C800 C 0.56819 0.04932 0.13834 0.0
C801 C 0.57226 0.03165 0.13915 0.0
C802 C 0.56118 0.01493 0.15879 0.0
C803 C 0.54605 0.0156 0.17684 0.0
C804 C 0.52463 0.03303 0.19358 0.0
C805 C 0.5079 0.0345 0.17917 0.0
C806 C 0.52347 0.0295 0.22358 0.0
C807 C 0.54089 0.02828 0.24032 0.0
C808 C 0.56265 0.04532 0.23972 0.0
C809 C 0.57894 0.04392 0.25536 0.0
C810 C 0.57375 0.02547 0.27197 0.0
C811 C 0.55199 0.00843 0.27247 0.0
C812 C 0.53573 0.00987 0.25694 0.0
C813 C 0.46904 0.02382 0.24029 0.0
C814 C 0.45865 0.00488 0.25671 0.0
C815 C 0.44162 0.0015 0.27419 0.0
C816 C 0.43451 0.01692 0.27559 0.0
C817 C 0.44454 0.03567 0.2587 0.0
C818 C 0.46175 0.03914 0.24124 0.0
C819 C 0.48811 0.02773 0.22345 0.0
C820 C 0.50522 0.02688 0.23804 0.0
C821 C 0.48957 0.03188 0.19353 0.0
C822 C 0.472 0.03217 0.17577 0.0
C823 C 0.45041 0.0147 0.17591 0.0
C824 C 0.4348 0.01362 0.15599 0.0
C825 C 0.44055 0.02964 0.13492 0.0
C826 C 0.46206 0.04737 0.13538 0.0
C827 C 0.47744 0.04878 0.15579 0.0
H828 H 0.48196 0.0108 0.86336 0.0
H829 H 0.45429 0.00918 0.89531 0.0
H830 H 0.41746 0.93819 0.88171 0.0
H831 H 0.44465 0.94022 0.8483 0.0
H832 H 0.50143 0.97906 0.87467 0.0
H833 H 0.47092 0.00728 0.80639 0.0
H834 H 0.44338 0.00933 0.7763 0.0
H835 H 0.42445 0.94534 0.737 0.0
H836 H 0.45234 0.94355 0.76688 0.0
H837 H 0.51498 0.94654 0.76506 0.0
H838 H 0.54474 0.95009 0.73558 0.0
H839 H 0.58815 0.01297 0.77896 0.0
H840 H 0.55853 0.00924 0.80847 0.0
H841 H 0.4975 0.97345 0.76749 0.0
H842 H 0.52932 0.94636 0.84069 0.0
H843 H 0.55588 0.94631 0.87552 0.0
H844 H 0.5727 0.01178 0.9067 0.0
H845 H 0.54612 0.01167 0.87225 0.0
C846 C 0.46513 0.97566 0.85341 0.0
C847 C 0.46775 0.99496 0.86703 0.0
C848 C 0.45212 0.99393 0.88565 0.0
C849 C 0.43397 0.97346 0.89168 0.0
C850 C 0.43127 0.95418 0.87754 0.0
C851 C 0.44671 0.9553 0.85845 0.0
C852 C 0.4827 0.97648 0.83626 0.0
C853 C 0.50071 0.97803 0.8512 0.0
C854 C 0.48141 0.97482 0.80578 0.0
C855 C 0.4636 0.97519 0.78902 0.0
C856 C 0.46061 0.99352 0.79164 0.0
C857 C 0.44488 0.99469 0.77441 0.0
C858 C 0.4319 0.97761 0.75405 0.0
C859 C 0.43451 0.95897 0.75205 0.0
C860 C 0.45034 0.95786 0.7692 0.0
C861 C 0.53461 0.97747 0.78924 0.0
C862 C 0.53098 0.96096 0.76841 0.0
C863 C 0.54796 0.96301 0.7516 0.0
C864 C 0.56883 0.98165 0.75527 0.0
C865 C 0.57241 0.99812 0.77621 0.0
C866 C 0.55547 0.99603 0.79304 0.0
C867 C 0.51641 0.97598 0.80595 0.0
C868 C 0.49818 0.97425 0.79094 0.0
C869 C 0.51762 0.97786 0.83646 0.0
C870 C 0.53585 0.97905 0.85391 0.0
C871 C 0.53912 0.96087 0.85459 0.0
C872 C 0.55419 0.96083 0.87447 0.0
C873 C 0.5664 0.97911 0.89357 0.0
C874 C 0.56376 0.99764 0.89189 0.0
C875 C 0.54853 0.99755 0.87236 0.0
H876 H 0.06618 0.57678 0.88255 0.0
H877 H 0.06345 0.60421 0.91319 0.0
H878 H 0.99409 0.57008 0.89542 0.0
H879 H 0.99718 0.54337 0.86372 0.0
H880 H 0.04266 0.53017 0.89332 0.0
H881 H 0.04914 0.58075 0.82023 0.0
H882 H 0.03698 0.60228 0.79287 0.0
H883 H 0.9814 0.54188 0.75903 0.0
H884 H 0.99253 0.52052 0.78824 0.0
H885 H 0.00296 0.46093 0.84298 0.0
H886 H 0.99309 0.42632 0.8167 0.0
H887 H 0.03848 0.46261 0.75116 0.0
H888 H 0.04899 0.49727 0.77822 0.0
H889 H 0.02319 0.51351 0.78876 0.0
H890 H 0.01971 0.4915 0.90927 0.0
H891 H 0.02318 0.46439 0.93775 0.0
H892 H 0.06607 0.46176 0.8753 0.0
H893 H 0.0634 0.48967 0.84731 0.0
C894 C 0.03191 0.55811 0.87082 0.0
C895 C 0.05048 0.57551 0.88482 0.0
C896 C 0.04885 0.59113 0.90236 0.0
C897 C 0.02855 0.58944 0.90674 0.0
C898 C 0.01005 0.57228 0.89201 0.0
C899 C 0.01175 0.55685 0.87409 0.0
C900 C 0.03332 0.54031 0.85469 0.0
C901 C 0.03851 0.52653 0.87041 0.0
C902 C 0.02793 0.53568 0.82479 0.0
C903 C 0.02148 0.549 0.80698 0.0
C904 C 0.03413 0.57214 0.80736 0.0
C905 C 0.02737 0.58442 0.7913 0.0
C906 C 0.00803 0.57377 0.77418 0.0
C907 C 0.99603 0.55059 0.77266 0.0
C908 C 0.00254 0.53836 0.78914 0.0
C909 C 0.027 0.4817 0.81286 0.0
C910 C 0.01121 0.46145 0.82335 0.0
C911 C 0.00538 0.4417 0.80811 0.0
C912 C 0.01503 0.44177 0.78187 0.0
C913 C 0.03102 0.46201 0.77152 0.0
C914 C 0.03694 0.48181 0.78688 0.0
C915 C 0.03155 0.50276 0.82757 0.0
C916 C 0.02761 0.51725 0.8116 0.0
C917 C 0.03733 0.50755 0.85745 0.0
C918 C 0.04107 0.49251 0.87586 0.0
C919 C 0.03031 0.48556 0.90197 0.0
C920 C 0.03229 0.47007 0.91828 0.0
C921 C 0.04493 0.46111 0.90869 0.0
C922 C 0.05622 0.46848 0.88307 0.0
C923 C 0.05456 0.48428 0.86701 0.0
H924 H 0.43872 0.51466 0.87462 0.0
H925 H 0.41174 0.4837 0.90178 0.0
H926 H 0.44164 0.44534 0.87725 0.0
H927 H 0.46782 0.47588 0.84933 0.0
H928 H 0.48585 0.53589 0.88252 0.0
H929 H 0.429 0.49368 0.81049 0.0
H930 H 0.40341 0.45886 0.78507 0.0
H931 H 0.45707 0.45519 0.74898 0.0
H932 H 0.48258 0.48913 0.77592 0.0
H933 H 0.53479 0.53868 0.78661 0.0
H934 H 0.56635 0.56344 0.75938 0.0
H935 H 0.55839 0.61849 0.7859 0.0
H936 H 0.52643 0.59346 0.81298 0.0
H937 H 0.49364 0.52909 0.77719 0.0
H938 H 0.54621 0.5564 0.85605 0.0
H939 H 0.5736 0.58069 0.89257 0.0
H940 H 0.53299 0.60781 0.91623 0.0
H941 H 0.50526 0.58282 0.8802 0.0
C942 C 0.45502 0.49738 0.85974 0.0
C943 C 0.43934 0.49951 0.87511 0.0
C944 C 0.4241 0.48192 0.89081 0.0
C945 C 0.42467 0.46213 0.89185 0.0
C946 C 0.44062 0.46026 0.87663 0.0
C947 C 0.4556 0.47768 0.8607 0.0
C948 C 0.47149 0.51594 0.84349 0.0
C949 C 0.48725 0.53474 0.85932 0.0
C950 C 0.47361 0.51387 0.81339 0.0
C951 C 0.4578 0.49394 0.79562 0.0
C952 C 0.43528 0.48538 0.79717 0.0
C953 C 0.42063 0.46564 0.78216 0.0
C954 C 0.42819 0.4543 0.76481 0.0
C955 C 0.45072 0.46345 0.76227 0.0
C956 C 0.46533 0.48297 0.77755 0.0
C957 C 0.52822 0.56422 0.80165 0.0
C958 C 0.53986 0.55609 0.78666 0.0
C959 C 0.55796 0.57025 0.77132 0.0
C960 C 0.56469 0.59281 0.77047 0.0
C961 C 0.55336 0.6011 0.78602 0.0
C962 C 0.53524 0.58688 0.80157 0.0
C963 C 0.50833 0.54863 0.81641 0.0
C964 C 0.49187 0.53052 0.80023 0.0
C965 C 0.50595 0.55085 0.84631 0.0
C966 C 0.52378 0.56794 0.86528 0.0
C967 C 0.54345 0.56797 0.8686 0.0
C968 C 0.55917 0.58199 0.8894 0.0
C969 C 0.55559 0.59637 0.90716 0.0
C970 C 0.5362 0.59688 0.90296 0.0
C971 C 0.52038 0.58269 0.88234 0.0
H972 H 0.60471 0.82445 0.47595 0.0
H973 H 0.60577 0.85341 0.44626 0.0
H974 H 0.66895 0.89991 0.48437 0.0
H975 H 0.66847 0.87062 0.51231 0.0
H976 H 0.63056 0.80714 0.47555 0.0
H977 H 0.61699 0.85156 0.54723 0.0
H978 H 0.62805 0.88714 0.57215 0.0
H979 H 0.68587 0.88894 0.60631 0.0
H980 H 0.67553 0.85431 0.58017 0.0
H981 H 0.67545 0.80687 0.57965 0.0
H982 H 0.68507 0.78289 0.6054 0.0
H983 H 0.62841 0.72559 0.5672 0.0
H984 H 0.61786 0.74973 0.54295 0.0
H985 H 0.64519 0.81493 0.5815 0.0
H986 H 0.67098 0.78669 0.50463 0.0
H987 H 0.67322 0.76072 0.47051 0.0
H988 H 0.60547 0.73365 0.44582 0.0
H989 H 0.60361 0.76026 0.47925 0.0
C990 C 0.63628 0.84544 0.49689 0.0
C991 C 0.61876 0.8409 0.47791 0.0
C992 C 0.61929 0.85754 0.46118 0.0
C993 C 0.63728 0.87909 0.46332 0.0
C994 C 0.65485 0.8835 0.48219 0.0
C995 C 0.65447 0.86682 0.4985 0.0
C996 C 0.63604 0.82761 0.51391 0.0
C997 C 0.63336 0.80866 0.49883 0.0
C998 C 0.64048 0.82996 0.54419 0.0
C999 C 0.64554 0.85032 0.56145 0.0
C1000 C 0.63202 0.8596 0.56014 0.0
C1001 C 0.6382 0.87978 0.57473 0.0
C1002 C 0.65781 0.8908 0.5913 0.0
C1003 C 0.67076 0.88094 0.59359 0.0
C1004 C 0.66475 0.86102 0.57877 0.0
C1005 C 0.64609 0.78014 0.55891 0.0
C1006 C 0.66485 0.78914 0.57708 0.0
C1007 C 0.67049 0.77544 0.59158 0.0
C1008 C 0.65775 0.75241 0.58777 0.0
C1009 C 0.63855 0.74332 0.57042 0.0
C1010 C 0.63269 0.75709 0.55625 0.0
C1011 C 0.6409 0.79516 0.54295 0.0
C1012 C 0.64208 0.81329 0.55828 0.0
C1013 C 0.63643 0.79276 0.51275 0.0
C1014 C 0.63709 0.77534 0.49457 0.0
C1015 C 0.65652 0.77488 0.49223 0.0
C1016 C 0.65772 0.75989 0.47286 0.0
C1017 C 0.63946 0.74492 0.45557 0.0
C1018 C 0.61986 0.74501 0.45869 0.0
C1019 C 0.61874 0.76016 0.47782 0.0
H1020 H 0.15941 0.759 0.47053 0.0
H1021 H 0.13111 0.73643 0.43436 0.0
H1022 H 0.08467 0.74516 0.48332 0.0
H1023 H 0.11362 0.76991 0.51756 0.0
H1024 H 0.17535 0.7999 0.47892 0.0
H1025 H 0.13858 0.73903 0.54668 0.0
H1026 H 0.10748 0.71298 0.5744 0.0
H1027 H 0.10165 0.76731 0.60996 0.0
H1028 H 0.13237 0.79309 0.58225 0.0
H1029 H 0.18667 0.84331 0.59058 0.0
H1030 H 0.2149 0.87762 0.61467 0.0
H1031 H 0.26414 0.87055 0.57099 0.0
H1032 H 0.236 0.83572 0.54766 0.0
H1033 H 0.17368 0.80198 0.58582 0.0
H1034 H 0.20375 0.86124 0.52245 0.0
H1035 H 0.23039 0.89145 0.49454 0.0
H1036 H 0.24332 0.84564 0.44698 0.0
H1037 H 0.21757 0.81562 0.47626 0.0
C1038 C 0.13883 0.76625 0.49701 0.0
C1039 C 0.14313 0.75608 0.47356 0.0
C1040 C 0.1268 0.74293 0.45294 0.0
C1041 C 0.10558 0.73924 0.45548 0.0
C1042 C 0.10095 0.74823 0.48001 0.0
C1043 C 0.11747 0.76198 0.50017 0.0
C1044 C 0.15719 0.78316 0.51588 0.0
C1045 C 0.17521 0.79992 0.50235 0.0
C1046 C 0.15662 0.78409 0.54643 0.0
C1047 C 0.13776 0.76797 0.56246 0.0
C1048 C 0.1305 0.74525 0.56036 0.0
C1049 C 0.11286 0.73044 0.57625 0.0
C1050 C 0.10227 0.73821 0.5943 0.0
C1051 C 0.10946 0.7609 0.59606 0.0
C1052 C 0.12708 0.77563 0.58041 0.0
C1053 C 0.20915 0.83711 0.56681 0.0
C1054 C 0.20356 0.8487 0.58684 0.0
C1055 C 0.21965 0.86828 0.60065 0.0
C1056 C 0.24156 0.87662 0.59453 0.0
C1057 C 0.2473 0.86434 0.57599 0.0
C1058 C 0.23123 0.84459 0.56252 0.0
C1059 C 0.19186 0.81839 0.5488 0.0
C1060 C 0.17409 0.80147 0.56241 0.0
C1061 C 0.19224 0.81772 0.51821 0.0
C1062 C 0.20897 0.83621 0.50189 0.0
C1063 C 0.21268 0.85775 0.50652 0.0
C1064 C 0.22772 0.87496 0.4903 0.0
C1065 C 0.23905 0.87094 0.46868 0.0
C1066 C 0.23522 0.84935 0.46391 0.0
C1067 C 0.22036 0.83216 0.48043 0.0
H1068 H 0.11734 0.33643 0.50954 0.0
H1069 H 0.0912 0.3337 0.47238 0.0
H1070 H 0.13305 0.40247 0.45457 0.0
H1071 H 0.15945 0.40494 0.49139 0.0
H1072 H 0.17886 0.38066 0.48447 0.0
H1073 H 0.12729 0.32716 0.57676 0.0
H1074 H 0.09641 0.32149 0.60533 0.0
H1075 H 0.11043 0.38765 0.58844 0.0
H1076 H 0.14138 0.39333 0.55988 0.0
H1077 H 0.21065 0.37868 0.6015 0.0
H1078 H 0.23453 0.3679 0.62603 0.0
H1079 H 0.22857 0.32658 0.55161 0.0
H1080 H 0.20372 0.33634 0.5279 0.0
H1081 H 0.16961 0.3555 0.58501 0.0
H1082 H 0.23644 0.39713 0.5348 0.0
H1083 H 0.26698 0.40038 0.50724 0.0
H1084 H 0.22237 0.35959 0.4379 0.0
H1085 H 0.19187 0.3556 0.4657 0.0
C1086 C 0.14032 0.37092 0.50334 0.0
C1087 C 0.12055 0.35113 0.49836 0.0
C1088 C 0.10557 0.3496 0.4771 0.0
C1089 C 0.11004 0.36789 0.46054 0.0
C1090 C 0.12923 0.38807 0.46686 0.0
C1091 C 0.14427 0.38954 0.48797 0.0
C1092 C 0.1581 0.37099 0.52074 0.0
C1093 C 0.17699 0.3754 0.50659 0.0
C1094 C 0.15565 0.36427 0.54958 0.0
C1095 C 0.13657 0.36062 0.5661 0.0
C1096 C 0.12367 0.34041 0.5791 0.0
C1097 C 0.10596 0.33713 0.5952 0.0
C1098 C 0.10098 0.35408 0.5988 0.0
C1099 C 0.11393 0.37433 0.58587 0.0
C1100 C 0.13151 0.37753 0.5695 0.0
C1101 C 0.20544 0.35848 0.56272 0.0
C1102 C 0.21439 0.36721 0.59051 0.0
C1103 C 0.2282 0.36118 0.60442 0.0
C1104 C 0.23331 0.34622 0.5909 0.0
C1105 C 0.22461 0.33777 0.5629 0.0
C1106 C 0.21062 0.34361 0.54913 0.0
C1107 C 0.19019 0.3644 0.54834 0.0
C1108 C 0.17175 0.36111 0.56306 0.0
C1109 C 0.193 0.37209 0.5198 0.0
C1110 C 0.21182 0.3758 0.50256 0.0
C1111 C 0.23323 0.38889 0.51368 0.0
C1112 C 0.25063 0.3909 0.4979 0.0
C1113 C 0.24686 0.38026 0.47055 0.0
C1114 C 0.2256 0.36812 0.45883 0.0
C1115 C 0.20822 0.36581 0.47476 0.0
C1116 C 0.99111 0.37839 0.07143 0.0
C1117 C 0.98214 0.37624 0.04328 0.0
C1118 C 0.98732 0.3898 0.09392 0.0
C1119 C 0.97436 0.39951 0.08931 0.0
H1120 H 0.00164 0.37173 0.07605 0.0
H1121 H 0.99487 0.39128 0.11504 0.0
S1122 S 0.94668 0.3985 0.01996 0.0
N1123 N 0.95898 0.38439 0.01255 0.0
N1124 N 0.9525 0.40617 0.05444 0.0
C1125 C 0.96486 0.39705 0.06152 0.0
C1126 C 0.96858 0.38536 0.03867 0.0
C1127 C 0.62737 0.582 0.09738 0.0
C1128 C 0.6203 0.59439 0.08188 0.0
C1129 C 0.6129 0.56431 0.1138 0.0
C1130 C 0.59091 0.55845 0.11503 0.0
H1131 H 0.64433 0.58651 0.09768 0.0
H1132 H 0.61909 0.55563 0.12629 0.0
S1133 S 0.5638 0.58344 0.07408 0.0
N1134 N 0.58961 0.59807 0.066 0.0
N1135 N 0.56234 0.56478 0.09648 0.0
C1136 C 0.5835 0.57002 0.09829 0.0
C1137 C 0.59823 0.58803 0.08179 0.0
C1138 C 0.39923 0.00224 0.07224 0.0
C1139 C 0.39964 0.02022 0.05884 0.0
C1140 C 0.41184 0.00536 0.09745 0.0
C1141 C 0.42502 0.02654 0.1106 0.0
H1142 H 0.38998 0.98578 0.06233 0.0
H1143 H 0.41198 0.99112 0.10584 0.0
S1144 S 0.42862 0.07846 0.08623 0.0
N1145 N 0.41254 0.05953 0.06155 0.0
N1146 N 0.43522 0.06537 0.11 0.0
C1147 C 0.42432 0.04445 0.09831 0.0
C1148 C 0.41191 0.0413 0.07218 0.0
C1149 C 0.37963 0.95932 0.92251 0.0
C1150 C 0.38578 0.97255 0.94802 0.0
C1151 C 0.39531 0.95922 0.90479 0.0
C1152 C 0.41764 0.97231 0.91214 0.0
H1153 H 0.36267 0.94981 0.91552 0.0
H1154 H 0.38993 0.94953 0.88462 0.0
S1155 S 0.44154 0.00774 0.97893 0.0
N1156 N 0.41513 0.9978 0.98103 0.0
N1157 N 0.44477 0.99708 0.94849 0.0
C1158 C 0.42381 0.98472 0.93853 0.0
C1159 C 0.40781 0.98499 0.95629 0.0
C1160 C 0.03424 0.40364 0.92337 0.0
C1161 C 0.03981 0.405 0.95297 0.0
C1162 C 0.0368 0.42213 0.90903 0.0
C1163 C 0.0446 0.44258 0.92391 0.0
H1164 H 0.02762 0.38805 0.9112 0.0
H1165 H 0.03194 0.42024 0.88633 0.0
S1166 S 0.06167 0.45502 1.00144 0.0
N1167 N 0.05397 0.4286 0.99656 0.0
N1168 N 0.05826 0.46334 0.96967 0.0
C1169 C 0.05048 0.4443 0.95342 0.0
C1170 C 0.04827 0.42552 0.96793 0.0
C1171 C 0.5762 0.61793 0.98399 0.0
C1172 C 0.59896 0.62852 0.98225 0.0
C1173 C 0.56246 0.6083 0.95947 0.0
C1174 C 0.57081 0.6089 0.93203 0.0
H1175 H 0.56877 0.6163 0.00466 0.0
H1176 H 0.54508 0.59954 0.9623 0.0
S1177 S 0.62916 0.63681 0.91487 0.0
N1178 N 0.62927 0.64048 0.95025 0.0
N1179 N 0.60333 0.62266 0.90405 0.0
C1180 C 0.59353 0.62026 0.92965 0.0
C1181 C 0.6076 0.63001 0.95473 0.0
C1182 C 0.03442 0.61933 0.97878 0.0
C1183 C 0.02026 0.62785 0.97571 0.0
C1184 C 0.03737 0.60761 0.95615 0.0
C1185 C 0.02647 0.60392 0.92915 0.0
H1186 H 0.04289 0.62103 0.99922 0.0
H1187 H 0.04772 0.60066 0.96032 0.0
S1188 S 0.98951 0.62477 0.90828 0.0
N1189 N 0.99637 0.63306 0.94251 0.0
N1190 N 0.00236 0.61137 0.89968 0.0
C1191 C 0.01301 0.61315 0.92517 0.0
C1192 C 0.00987 0.62507 0.94842 0.0
C1193 C 0.38445 0.40323 0.91028 0.0
C1194 C 0.37896 0.40536 0.9387 0.0
C1195 C 0.39879 0.42172 0.89521 0.0
C1196 C 0.4085 0.44311 0.90807 0.0
H1197 H 0.37757 0.3871 0.89947 0.0
H1198 H 0.40234 0.41919 0.87328 0.0
S1199 S 0.40008 0.45755 0.98251 0.0
N1200 N 0.38431 0.43045 0.97929 0.0
N1201 N 0.41191 0.46531 0.95126 0.0
C1202 C 0.40306 0.44553 0.93648 0.0
C1203 C 0.38816 0.42663 0.95174 0.0
C1204 C 0.58196 0.9619 0.96273 0.0
C1205 C 0.60314 0.97949 0.9694 0.0
C1206 C 0.57069 0.9612 0.93719 0.0
C1207 C 0.58007 0.97812 0.91741 0.0
H1208 H 0.57366 0.94891 0.97782 0.0
H1209 H 0.55407 0.94791 0.93365 0.0
S1210 S 0.63585 0.0264 0.92241 0.0
N1211 N 0.63375 0.0132 0.95233 0.0
N1212 N 0.6123 0.0118 0.90454 0.0
C1213 C 0.60159 0.99511 0.92285 0.0
C1214 C 0.6132 0.99579 0.94874 0.0
C1215 C 0.59543 0.00698 0.08686 0.0
C1216 C 0.61659 0.02447 0.08311 0.0
C1217 C 0.58107 0.0097 0.10433 0.0
C1218 C 0.58737 0.02998 0.11895 0.0
H1219 H 0.58991 0.99098 0.07642 0.0
H1220 H 0.56495 0.99568 0.10668 0.0
S1221 S 0.64098 0.08113 0.11582 0.0
N1222 N 0.64303 0.063 0.09459 0.0
N1223 N 0.61615 0.06804 0.12806 0.0
C1224 C 0.60829 0.04785 0.11468 0.0
C1225 C 0.62287 0.04511 0.09658 0.0
C1226 C 0.98579 0.59402 0.0723 0.0
C1227 C 0.96911 0.59919 0.0718 0.0
C1228 C 0.98358 0.57574 0.08676 0.0
C1229 C 0.96471 0.56205 0.10172 0.0
H1230 H 0.00077 0.60427 0.06159 0.0
H1231 H 0.99698 0.57253 0.08663 0.0
S1232 S 0.91604 0.56835 0.10622 0.0
N1233 N 0.93274 0.58886 0.08625 0.0
N1234 N 0.92873 0.55476 0.11444 0.0
C1235 C 0.94756 0.56664 0.10056 0.0
C1236 C 0.94974 0.58516 0.08537 0.0
C1237 C 0.39816 0.37451 0.06424 0.0
C1238 C 0.40703 0.37622 0.03681 0.0
C1239 C 0.4115 0.38445 0.08919 0.0
C1240 C 0.43428 0.39648 0.08782 0.0
H1241 H 0.38072 0.36576 0.06648 0.0
H1242 H 0.4039 0.3829 0.1097 0.0
S1243 S 0.4659 0.40629 0.02155 0.0
N1244 N 0.44034 0.39091 0.01011 0.0
N1245 N 0.46516 0.4098 0.05677 0.0
C1246 C 0.44341 0.39804 0.06069 0.0
C1247 C 0.42988 0.38787 0.03531 0.0
C1248 C 0.63526 0.71826 0.38146 0.0
C1249 C 0.647 0.70711 0.38503 0.0
C1250 C 0.63255 0.72989 0.40448 0.0
C1251 C 0.64132 0.73086 0.43232 0.0
H1252 H 0.62855 0.71866 0.36043 0.0
H1253 H 0.62407 0.73881 0.40011 0.0
S1254 S 0.67151 0.70271 0.45437 0.0
N1255 N 0.66632 0.69665 0.41938 0.0
N1256 N 0.66083 0.71822 0.46281 0.0
C1257 C 0.65242 0.71915 0.43662 0.0
C1258 C 0.65531 0.70733 0.41302 0.0
C1259 C 0.26183 0.92179 0.42357 0.0
C1260 C 0.28302 0.92628 0.41845 0.0
C1261 C 0.24763 0.90358 0.43922 0.0
C1262 C 0.25411 0.88921 0.45055 0.0
H1263 H 0.25614 0.93244 0.41552 0.0
H1264 H 0.23146 0.90083 0.44267 0.0
S1265 S 0.30798 0.89369 0.44286 0.0
N1266 N 0.30975 0.91472 0.42519 0.0
N1267 N 0.28319 0.88063 0.45525 0.0
C1268 C 0.27511 0.89319 0.44492 0.0
C1269 C 0.28953 0.91168 0.42868 0.0
C1270 C 0.09374 0.36882 0.3823 0.0
C1271 C 0.07087 0.35663 0.38189 0.0
C1272 C 0.10613 0.37297 0.40796 0.0
C1273 C 0.09624 0.3652 0.43445 0.0
H1274 H 0.10229 0.37473 0.36247 0.0
H1275 H 0.12366 0.38167 0.40681 0.0
S1276 S 0.037 0.33459 0.44611 0.0
N1277 N 0.03881 0.33821 0.41095 0.0
N1278 N 0.06225 0.34628 0.45923 0.0
C1279 C 0.07342 0.35375 0.43469 0.0
C1280 C 0.06072 0.34944 0.40846 0.0
C1281 C 0.05831 0.31494 0.25086 0.0
C1282 C 0.04747 0.30151 0.27403 0.0
C1283 C 0.0735 0.31216 0.23558 0.0
C1284 C 0.07822 0.29563 0.24252 0.0
H1285 H 0.05524 0.32793 0.24445 0.0
H1286 H 0.0818 0.32318 0.21831 0.0
S1287 S 0.05379 0.25518 0.29982 0.0
N1288 N 0.04206 0.2704 0.30237 0.0
N1289 N 0.07064 0.26503 0.27298 0.0
C1290 C 0.06711 0.28151 0.26481 0.0
C1291 C 0.05167 0.28446 0.28071 0.0
C1292 C 0.6832 0.73094 0.26268 0.0
C1293 C 0.6977 0.73252 0.28506 0.0
C1294 C 0.68602 0.74963 0.2487 0.0
C1295 C 0.70369 0.77061 0.25606 0.0
H1296 H 0.66944 0.71515 0.2558 0.0
H1297 H 0.67426 0.74767 0.23195 0.0
S1298 S 0.74704 0.78405 0.31173 0.0
N1299 N 0.7309 0.75706 0.31322 0.0
N1300 N 0.73635 0.79217 0.28619 0.0
C1301 C 0.71874 0.77254 0.27763 0.0
C1302 C 0.71573 0.7535 0.29228 0.0
C1303 C 0.24052 0.95063 0.31702 0.0
C1304 C 0.26339 0.96167 0.31745 0.0
C1305 C 0.22809 0.94093 0.29147 0.0
C1306 C 0.23791 0.94191 0.26505 0.0
H1307 H 0.23197 0.94865 0.33681 0.0
H1308 H 0.21057 0.9318 0.29273 0.0
S1309 S 0.29717 0.97125 0.25331 0.0
N1310 N 0.29539 0.97461 0.28837 0.0
N1311 N 0.27191 0.95661 0.24027 0.0
C1312 C 0.26075 0.95379 0.26476 0.0
C1313 C 0.27348 0.96364 0.2909 0.0
C1314 C 0.67185 0.9498 0.29129 0.0
C1315 C 0.68932 0.96265 0.311 0.0
C1316 C 0.67393 0.93747 0.26848 0.0
C1317 C 0.69365 0.93788 0.26421 0.0
H1318 H 0.6561 0.94821 0.29446 0.0
H1319 H 0.65979 0.92694 0.25467 0.0
S1320 S 0.74492 0.97072 0.30775 0.0
N1321 N 0.72749 0.9764 0.32325 0.0
N1322 N 0.73137 0.95339 0.28027 0.0
C1323 C 0.7116 0.95172 0.28261 0.0
C1324 C 0.70943 0.96405 0.30604 0.0
C1325 C 0.06079 0.73719 0.25641 0.0
C1326 C 0.04537 0.7385 0.27367 0.0
C1327 C 0.07617 0.75547 0.2419 0.0
C1328 C 0.0765 0.77567 0.24363 0.0
H1329 H 0.06101 0.72191 0.25383 0.0
H1330 H 0.08774 0.7537 0.22889 0.0
S1331 S 0.03991 0.78819 0.28551 0.0
N1332 N 0.0316 0.76204 0.29161 0.0
N1333 N 0.06042 0.79628 0.26373 0.0
C1334 C 0.0612 0.77734 0.26051 0.0
C1335 C 0.04567 0.75879 0.27569 0.0
C1336 C 0.27857 0.33127 0.29103 0.0
C1337 C 0.26961 0.31748 0.31457 0.0
C1338 C 0.26651 0.3276 0.2651 0.0
C1339 C 0.24512 0.30984 0.26149 0.0
H1340 H 0.29479 0.34549 0.29288 0.0
H1341 H 0.27382 0.33905 0.24795 0.0
S1342 S 0.21443 0.26803 0.31547 0.0
N1343 N 0.23824 0.28459 0.33178 0.0
N1344 N 0.21566 0.27787 0.28309 0.0
C1345 C 0.23623 0.29542 0.28431 0.0
C1346 C 0.24843 0.29921 0.31082 0.0
C1347 C 0.2847 0.38418 0.4115 0.0
C1348 C 0.29489 0.37325 0.42348 0.0
C1349 C 0.26952 0.38704 0.42715 0.0
C1350 C 0.2646 0.3796 0.45545 0.0
H1351 H 0.2878 0.3897 0.38956 0.0
H1352 H 0.2613 0.39474 0.41693 0.0
S1353 S 0.2879 0.35137 0.49713 0.0
N1354 N 0.29968 0.35587 0.46571 0.0
N1355 N 0.2715 0.36164 0.49511 0.0
C1356 C 0.27531 0.36949 0.468 0.0
C1357 C 0.29039 0.36621 0.452 0.0
C1358 C 0.65949 0.92917 0.41656 0.0
C1359 C 0.64216 0.9333 0.41403 0.0
C1360 C 0.65753 0.91129 0.43187 0.0
C1361 C 0.63821 0.89696 0.44555 0.0
H1362 H 0.67471 0.93977 0.40657 0.0
H1363 H 0.67134 0.90876 0.43312 0.0
S1364 S 0.58804 0.90086 0.44537 0.0
N1365 N 0.60493 0.92156 0.42581 0.0
N1366 N 0.60134 0.88827 0.45548 0.0
C1367 C 0.62057 0.90071 0.44269 0.0
C1368 C 0.62252 0.91879 0.42671 0.0
C1369 C 0.07468 0.6992 0.39186 0.0
C1370 C 0.06115 0.70692 0.38131 0.0
C1371 C 0.08809 0.70896 0.41674 0.0
C1372 C 0.08897 0.72726 0.43157 0.0
H1373 H 0.07513 0.6857 0.38054 0.0
H1374 H 0.09824 0.70241 0.42399 0.0
S1375 S 0.05703 0.75413 0.41155 0.0
N1376 N 0.04907 0.73356 0.3874 0.0
N1377 N 0.07511 0.75284 0.43307 0.0
C1378 C 0.07518 0.73489 0.4213 0.0
C1379 C 0.06111 0.72453 0.39641 0.0
C1380 C 0.2917 0.03511 0.71536 0.0
C1381 C 0.31098 0.03418 0.71305 0.0
C1382 C 0.28911 0.04719 0.73805 0.0
C1383 C 0.3058 0.05906 0.75906 0.0
H1384 H 0.2788 0.02709 0.69891 0.0
H1385 H 0.27442 0.04822 0.73826 0.0
S1386 S 0.35857 0.06061 0.76477 0.0
N1387 N 0.34636 0.04497 0.73543 0.0
N1388 N 0.34146 0.06786 0.77765 0.0
C1389 C 0.32464 0.0574 0.75795 0.0
C1390 C 0.32722 0.04488 0.73511 0.0
C1391 C 0.95766 0.24461 0.76299 0.0
C1392 C 0.94993 0.2564 0.74735 0.0
C1393 C 0.94376 0.2272 0.78021 0.0
C1394 C 0.92175 0.22107 0.78215 0.0
H1395 H 0.97472 0.24954 0.76298 0.0
H1396 H 0.95046 0.2191 0.79297 0.0
S1397 S 0.89297 0.2442 0.74099 0.0
N1398 N 0.91853 0.25898 0.73187 0.0
N1399 N 0.89236 0.22625 0.76399 0.0
C1400 C 0.91363 0.23186 0.76509 0.0
C1401 C 0.92776 0.24956 0.74774 0.0
C1402 C 0.72672 0.67486 0.73288 0.0
C1403 C 0.7356 0.6803 0.7053 0.0
C1404 C 0.74005 0.68068 0.75807 0.0
C1405 C 0.76281 0.69231 0.75678 0.0
H1406 H 0.70929 0.66573 0.73513 0.0
H1407 H 0.73246 0.67587 0.77872 0.0
S1408 S 0.79449 0.71042 0.69029 0.0
N1409 N 0.7689 0.69821 0.67854 0.0
N1410 N 0.79375 0.70883 0.72577 0.0
C1411 C 0.77196 0.69814 0.7295 0.0
C1412 C 0.75843 0.69223 0.70383 0.0
C1413 C 0.70187 0.61827 0.57924 0.0
C1414 C 0.70012 0.61569 0.60925 0.0
C1415 C 0.71702 0.61524 0.56409 0.0
C1416 C 0.73123 0.60994 0.57857 0.0
H1417 H 0.692 0.62353 0.56754 0.0
H1418 H 0.71853 0.61843 0.54123 0.0
S1419 S 0.73213 0.59976 0.65665 0.0
N1420 N 0.71273 0.60603 0.65263 0.0
N1421 N 0.74167 0.60068 0.62415 0.0
C1422 C 0.72895 0.60623 0.60834 0.0
C1423 C 0.71322 0.60898 0.62371 0.0
C1424 C 0.35051 0.0632 0.58487 0.0
C1425 C 0.3596 0.06524 0.6128 0.0
C1426 C 0.3524 0.08158 0.571 0.0
C1427 C 0.36316 0.10274 0.58466 0.0
H1428 H 0.34198 0.04724 0.57346 0.0
H1429 H 0.3454 0.07917 0.54929 0.0
S1430 S 0.38855 0.11663 0.6587 0.0
N1431 N 0.37932 0.08987 0.65404 0.0
N1432 N 0.38225 0.12445 0.62839 0.0
C1433 C 0.37221 0.10499 0.61276 0.0
C1434 C 0.37056 0.08624 0.62673 0.0
C1435 C 0.93668 0.29383 0.62218 0.0
C1436 C 0.92718 0.29124 0.64929 0.0
C1437 C 0.92385 0.2852 0.59656 0.0
C1438 C 0.90102 0.27367 0.597 0.0
H1439 H 0.95418 0.30228 0.62072 0.0
H1440 H 0.93187 0.28735 0.57627 0.0
S1441 S 0.86793 0.26159 0.66217 0.0
N1442 N 0.89329 0.27602 0.67475 0.0
N1443 N 0.86943 0.25961 0.62683 0.0
C1444 C 0.8913 0.27117 0.62385 0.0
C1445 C 0.9043 0.27999 0.64989 0.0
C1446 C 0.371 0.29573 0.64477 0.0
C1447 C 0.35148 0.29607 0.64759 0.0
C1448 C 0.37374 0.28398 0.62182 0.0
C1449 C 0.35693 0.27185 0.60106 0.0
H1450 H 0.38406 0.30403 0.66096 0.0
H1451 H 0.38868 0.28344 0.62119 0.0
S1452 S 0.30337 0.26871 0.59689 0.0
N1453 N 0.31564 0.28442 0.62616 0.0
N1454 N 0.32076 0.26211 0.58335 0.0
C1455 C 0.33775 0.27285 0.60275 0.0
C1456 C 0.33504 0.28506 0.62588 0.0
C1457 C 0.71348 0.09034 0.59658 0.0
C1458 C 0.72179 0.07899 0.61203 0.0
C1459 C 0.72688 0.10788 0.5792 0.0
C1460 C 0.74903 0.11463 0.57689 0.0
H1461 H 0.69633 0.08502 0.59694 0.0
H1462 H 0.71971 0.11567 0.56671 0.0
S1463 S 0.77927 0.09275 0.61737 0.0
N1464 N 0.75387 0.07741 0.62685 0.0
N1465 N 0.77914 0.11041 0.59446 0.0
C1466 C 0.75772 0.10421 0.59365 0.0
C1467 C 0.74407 0.08635 0.61117 0.0
C1468 C 0.9091 0.6366 0.65232 0.0
C1469 C 0.93194 0.64825 0.6514 0.0
C1470 C 0.89597 0.63178 0.6272 0.0
C1471 C 0.90503 0.63834 0.59999 0.0
H1472 H 0.90118 0.63149 0.6727 0.0
H1473 H 0.87852 0.62336 0.62927 0.0
S1474 S 0.96374 0.6676 0.58496 0.0
N1475 N 0.96301 0.66519 0.62036 0.0
N1476 N 0.93816 0.6559 0.57321 0.0
C1477 C 0.92777 0.64947 0.59849 0.0
C1478 C 0.94124 0.65442 0.62412 0.0
C1479 C 0.95387 0.7178 0.74166 0.0
C1480 C 0.96417 0.70764 0.75543 0.0
C1481 C 0.93883 0.72154 0.75627 0.0
C1482 C 0.93414 0.71573 0.78521 0.0
H1483 H 0.95656 0.72177 0.71911 0.0
H1484 H 0.93034 0.72839 0.74467 0.0
S1485 S 0.95818 0.69037 0.83141 0.0
N1486 N 0.96964 0.69304 0.79997 0.0
N1487 N 0.94169 0.7004 0.82742 0.0
C1488 C 0.94521 0.70665 0.79956 0.0
C1489 C 0.96016 0.70252 0.78464 0.0
C1490 C 0.31415 0.26963 0.77616 0.0
C1491 C 0.30415 0.26754 0.74886 0.0
C1492 C 0.31261 0.25125 0.78966 0.0
C1493 C 0.30125 0.23002 0.77625 0.0
H1494 H 0.32325 0.28564 0.78731 0.0
H1495 H 0.3204 0.25374 0.81085 0.0
S1496 S 0.27304 0.21585 0.70396 0.0
N1497 N 0.28272 0.24269 0.70859 0.0
N1498 N 0.28035 0.20811 0.73354 0.0
C1499 C 0.29114 0.22767 0.74888 0.0
C1500 C 0.29247 0.24643 0.73528 0.0
C1501 C 0.73347 0.04522 0.7409 0.0
C1502 C 0.74372 0.04643 0.7147 0.0
C1503 C 0.74555 0.0543 0.767 0.0
C1504 C 0.76838 0.06486 0.76802 0.0
H1505 H 0.71595 0.03753 0.74126 0.0
H1506 H 0.73697 0.05322 0.7865 0.0
S1507 S 0.80336 0.07313 0.7057 0.0
N1508 N 0.77835 0.05931 0.69173 0.0
N1509 N 0.80083 0.0765 0.7405 0.0
C1510 C 0.77884 0.06599 0.74213 0.0
C1511 C 0.7666 0.05674 0.7156 0.0
C1512 C 0.07161 0.31564 0.03132 0.0
C1513 C 0.0575 0.32236 0.04273 0.0
C1514 C 0.08412 0.31013 0.04928 0.0
C1515 C 0.08313 0.31104 0.07953 0.0
H1516 H 0.07338 0.31497 0.00821 0.0
H1517 H 0.09513 0.30569 0.03932 0.0
S1518 S 0.0476 0.32578 0.12061 0.0
N1519 N 0.04252 0.32848 0.08645 0.0
N1520 N 0.06589 0.31784 0.12021 0.0
C1521 C 0.06869 0.31713 0.09134 0.0
C1522 C 0.05591 0.32281 0.07299 0.0
C1523 C 0.65067 0.72397 0.07466 0.0
C1524 C 0.66487 0.71594 0.06899 0.0
C1525 C 0.65831 0.74509 0.08712 0.0
C1526 C 0.68045 0.75901 0.09465 0.0
H1527 H 0.63332 0.71345 0.07065 0.0
H1528 H 0.64662 0.75022 0.09198 0.0
S1529 S 0.72467 0.74668 0.08198 0.0
N1530 N 0.70242 0.72425 0.06966 0.0
N1531 N 0.71676 0.76395 0.0936 0.0
C1532 C 0.69507 0.75182 0.08736 0.0
C1533 C 0.68728 0.73027 0.07439 0.0
C1534 C 0.28535 0.94559 0.06087 0.0
C1535 C 0.28217 0.95672 0.03802 0.0
C1536 C 0.26914 0.93429 0.08065 0.0
C1537 C 0.2492 0.93384 0.07858 0.0
H1538 H 0.30032 0.94518 0.06325 0.0
H1539 H 0.27216 0.92562 0.09757 0.0
S1540 S 0.23282 0.96089 0.0236 0.0
N1541 N 0.25762 0.96711 0.01513 0.0
N1542 N 0.22717 0.94573 0.05237 0.0
C1543 C 0.24594 0.94532 0.05638 0.0
C1544 C 0.2624 0.95676 0.03607 0.0
C1545 C 0.35568 0.06949 0.95889 0.0
C1546 C 0.34179 0.04742 0.96601 0.0
C1547 C 0.34775 0.08143 0.94431 0.0
C1548 C 0.32562 0.07179 0.93618 0.0
H1549 H 0.37303 0.07728 0.96329 0.0
H1550 H 0.3592 0.09811 0.93841 0.0
S1551 S 0.28201 0.01538 0.95241 0.0
N1552 N 0.30441 0.01712 0.96622 0.0
N1553 N 0.28959 0.03954 0.93839 0.0
C1554 C 0.31127 0.05033 0.94497 0.0
C1555 C 0.31934 0.03816 0.96003 0.0
C1556 C 0.95424 0.27861 0.93013 0.0
C1557 C 0.95998 0.28512 0.95947 0.0
C1558 C 0.93944 0.25666 0.92163 0.0
C1559 C 0.92945 0.24047 0.94217 0.0
H1560 H 0.96128 0.29062 0.91352 0.0
H1561 H 0.93535 0.25243 0.89881 0.0
S1562 S 0.93878 0.24875 0.02163 0.0
N1563 N 0.95484 0.27347 0.00908 0.0
N1564 N 0.92628 0.23216 0.99306 0.0
C1565 C 0.93503 0.24661 0.97157 0.0
C1566 C 0.95054 0.26896 0.98024 0.0
C1567 C 0.74038 0.69761 0.98816 0.0
C1568 C 0.71924 0.67915 0.98557 0.0
C1569 C 0.75614 0.70083 0.96814 0.0
C1570 C 0.75143 0.68562 0.94492 0.0
H1571 H 0.74498 0.70953 0.00607 0.0
H1572 H 0.77233 0.71497 0.97137 0.0
S1573 S 0.69832 0.63565 0.92665 0.0
N1574 N 0.69418 0.6462 0.9565 0.0
N1575 N 0.72398 0.65229 0.91921 0.0
C1576 C 0.73028 0.6675 0.94147 0.0
C1577 C 0.71414 0.66428 0.96167 0.0
C1578 C 0.92259 0.64774 0.95178 0.0
C1579 C 0.94246 0.66313 0.96583 0.0
C1580 C 0.91016 0.65456 0.93585 0.0
C1581 C 0.91699 0.67707 0.93329 0.0
H1582 H 0.91626 0.63017 0.95352 0.0
H1583 H 0.89474 0.64203 0.92612 0.0
S1584 S 0.9686 0.7242 0.96346 0.0
N1585 N 0.96899 0.70213 0.97448 0.0
N1586 N 0.94562 0.71483 0.94436 0.0
C1587 C 0.93712 0.69269 0.94638 0.0
C1588 C 0.94985 0.68576 0.96261 0.0
C1589 C 0.35646 0.27992 0.93577 0.0
C1590 C 0.34291 0.28591 0.95049 0.0
C1591 C 0.34883 0.25824 0.92543 0.0
C1592 C 0.32731 0.24151 0.92934 0.0
H1593 H 0.37301 0.2922 0.93136 0.0
H1594 H 0.35973 0.25477 0.91334 0.0
S1595 S 0.28569 0.24766 0.96887 0.0
N1596 N 0.30716 0.27275 0.97015 0.0
N1597 N 0.29296 0.23186 0.95091 0.0
C1598 C 0.31378 0.24692 0.94506 0.0
C1599 C 0.32157 0.2691 0.95569 0.0
C1600 C 0.71898 0.04411 0.97215 0.0
C1601 C 0.72209 0.05056 1.00176 0.0
C1602 C 0.73553 0.05513 0.95262 0.0
C1603 C 0.75567 0.07314 0.96193 0.0
H1604 H 0.70357 0.03054 0.96389 0.0
H1605 H 0.73237 0.04989 0.92997 0.0
S1606 S 0.77274 0.09598 0.03701 0.0
N1607 N 0.74745 0.07569 0.03941 0.0
N1608 N 0.77836 0.09638 0.00255 0.0
C1609 C 0.75921 0.0795 0.99142 0.0
C1610 C 0.74249 0.0682 0.01138 0.0
C1611 C 0.67866 0.95469 0.06761 0.0
C1612 C 0.6565 0.9455 0.0597 0.0
C1613 C 0.68632 0.94206 0.08116 0.0
C1614 C 0.67212 0.91982 0.08708 0.0
H1615 H 0.68989 0.97213 0.06533 0.0
H1616 H 0.70318 0.95016 0.08867 0.0
S1617 S 0.61376 0.88679 0.06483 0.0
N1618 N 0.62122 0.912 0.05471 0.0
N1619 N 0.63574 0.88821 0.07967 0.0
C1620 C 0.65041 0.90994 0.07678 0.0
C1621 C 0.64258 0.92279 0.06318 0.0
C1622 C 0.0724 0.72517 0.06713 0.0
C1623 C 0.05068 0.71928 0.06082 0.0
C1624 C 0.0875 0.74616 0.07875 0.0
C1625 C 0.08154 0.76217 0.08478 0.0
H1626 H 0.07763 0.71316 0.06408 0.0
H1627 H 0.10387 0.74965 0.0839 0.0
S1628 S 0.02705 0.75564 0.07063 0.0
N1629 N 0.02429 0.73167 0.0598 0.0
N1630 N 0.05262 0.77108 0.08214 0.0
C1631 C 0.06018 0.75696 0.07714 0.0
C1632 C 0.04478 0.73554 0.06504 0.0
C1633 C 0.28707 0.32421 0.05897 0.0
C1634 C 0.28193 0.31909 0.02922 0.0
C1635 C 0.27085 0.31954 0.07888 0.0
C1636 C 0.24884 0.30953 0.06987 0.0
H1637 H 0.3038 0.33218 0.06697 0.0
H1638 H 0.27561 0.32394 0.10151 0.0
S1639 S 0.22661 0.29292 0.9945 0.0
N1640 N 0.253 0.30317 0.99187 0.0
N1641 N 0.22274 0.29488 0.0292 0.0
C1642 C 0.24341 0.30405 0.04029 0.0
C1643 C 0.25989 0.3087 0.02001 0.0
C1644 C 0.74036 0.65524 0.36785 0.0
C1645 C 0.72292 0.65751 0.37763 0.0
C1646 C 0.75229 0.64944 0.38645 0.0
C1647 C 0.74742 0.64565 0.41576 0.0
H1648 H 0.74501 0.65806 0.34555 0.0
H1649 H 0.76573 0.64824 0.37782 0.0
S1650 S 0.70302 0.64867 0.4524 0.0
N1651 N 0.70116 0.65508 0.41877 0.0
N1652 N 0.72359 0.644 0.45368 0.0
C1653 C 0.72998 0.64771 0.42595 0.0
C1654 C 0.71772 0.65362 0.40692 0.0
C1655 C 0.33843 0.06429 0.39996 0.0
C1656 C 0.32347 0.04684 0.41649 0.0
C1657 C 0.34722 0.08644 0.40968 0.0
C1658 C 0.34149 0.0917 0.43634 0.0
H1659 H 0.34321 0.06082 0.37931 0.0
H1660 H 0.35841 0.0995 0.39628 0.0
S1661 S 0.30479 0.05257 0.48897 0.0
N1662 N 0.30445 0.03671 0.46176 0.0
N1663 N 0.3211 0.07819 0.47967 0.0
C1664 C 0.32702 0.07456 0.45327 0.0
C1665 C 0.31797 0.05215 0.44344 0.0
C1666 C 0.95386 0.28568 0.39401 0.0
C1667 C 0.95148 0.29769 0.37166 0.0
C1668 C 0.9373 0.27442 0.41336 0.0
C1669 C 0.91781 0.27489 0.41134 0.0
H1670 H 0.96835 0.28437 0.39612 0.0
H1671 H 0.93959 0.26487 0.42971 0.0
S1672 S 0.9039 0.3051 0.3582 0.0
N1673 N 0.92845 0.3104 0.3498 0.0
N1674 N 0.89731 0.28905 0.38616 0.0
C1675 C 0.91551 0.28755 0.38994 0.0
C1676 C 0.93234 0.29897 0.37009 0.0
C1677 C 0.02792 0.40345 0.27741 0.0
C1678 C 0.01383 0.38447 0.29231 0.0
C1679 C 0.0206 0.41652 0.26472 0.0
C1680 C 0.9989 0.41139 0.26661 0.0
H1681 H 0.04463 0.4078 0.27426 0.0
H1682 H 0.03187 0.43024 0.25226 0.0
S1683 S 0.95616 0.3658 0.30715 0.0
N1684 N 0.97758 0.36266 0.31093 0.0
N1685 N 0.96395 0.3877 0.28743 0.0
C1686 C 0.98492 0.39341 0.28306 0.0
C1687 C 0.99238 0.37993 0.29598 0.0
C1688 C 0.59538 0.60836 0.28819 0.0
C1689 C 0.61538 0.61368 0.30188 0.0
C1690 C 0.58079 0.58694 0.27754 0.0
C1691 C 0.58537 0.56969 0.28018 0.0
H1692 H 0.59118 0.62103 0.28463 0.0
H1693 H 0.56616 0.58413 0.26603 0.0
S1694 S 0.63406 0.5739 0.31739 0.0
N1695 N 0.63814 0.5993 0.31962 0.0
N1696 N 0.61036 0.55881 0.30002 0.0
C1697 C 0.60471 0.57438 0.29519 0.0
C1698 C 0.61972 0.59635 0.30606 0.0
C1699 C 0.40319 0.00513 0.34433 0.0
C1700 C 0.38387 0.0046 0.33553 0.0
C1701 C 0.41954 0.00951 0.32488 0.0
C1702 C 0.41736 0.01369 0.29584 0.0
H1703 H 0.40567 0.0018 0.36637 0.0
H1704 H 0.43401 0.0095 0.33262 0.0
S1705 S 0.37036 0.01473 0.2616 0.0
N1706 N 0.36375 0.00909 0.29559 0.0
N1707 N 0.39466 0.01735 0.25909 0.0
C1708 C 0.39843 0.01373 0.28675 0.0
C1709 C 0.38164 0.00915 0.30655 0.0
C1710 C 0.60731 0.00201 0.30378 0.0
C1711 C 0.62138 0.01859 0.32416 0.0
C1712 C 0.59225 0.00455 0.28668 0.0
C1713 C 0.59083 0.02386 0.28898 0.0
H1714 H 0.60744 0.98664 0.30153 0.0
H1715 H 0.58149 0.99118 0.27169 0.0
S1716 S 0.62464 0.07272 0.33777 0.0
N1717 N 0.63346 0.05545 0.3447 0.0
N1718 N 0.60515 0.06011 0.31255 0.0
C1719 C 0.60523 0.04085 0.30856 0.0
C1720 C 0.62047 0.03823 0.32615 0.0
C1721 C 0.98202 0.60697 0.27366 0.0
C1722 C 0.00011 0.6177 0.29295 0.0
C1723 C 0.97566 0.58599 0.26141 0.0
C1724 C 0.98698 0.57487 0.26839 0.0
H1725 H 0.97371 0.61549 0.26639 0.0
H1726 H 0.96261 0.57908 0.24508 0.0
S1727 S 0.03287 0.59453 0.3224 0.0
N1728 N 0.02777 0.61507 0.32102 0.0
N1729 N 0.01502 0.57498 0.29969 0.0
C1730 C 0.00393 0.58477 0.28972 0.0
C1731 C 0.01071 0.60636 0.30156 0.0
C1732 C 0.38281 0.38601 0.29542 0.0
C1733 C 0.38661 0.37494 0.3178 0.0
C1734 C 0.39821 0.39677 0.27448 0.0
C1735 C 0.41796 0.39676 0.27493 0.0
H1736 H 0.36805 0.38692 0.29441 0.0
H1737 H 0.39483 0.40558 0.25815 0.0
S1738 S 0.43556 0.36932 0.32777 0.0
N1739 N 0.41134 0.36378 0.33816 0.0
N1740 N 0.44032 0.38424 0.2989 0.0
C1741 C 0.42168 0.38509 0.29643 0.0
C1742 C 0.40602 0.37414 0.31785 0.0
C1743 C 0.35007 0.29827 0.40669 0.0
C1744 C 0.32806 0.29012 0.39894 0.0
C1745 C 0.35681 0.28472 0.41974 0.0
C1746 C 0.34177 0.26259 0.42522 0.0
H1747 H 0.36186 0.31561 0.40475 0.0
H1748 H 0.3736 0.292 0.42725 0.0
S1749 S 0.28331 0.23223 0.40294 0.0
N1750 N 0.29196 0.25785 0.39357 0.0
N1751 N 0.30473 0.23222 0.41736 0.0
C1752 C 0.32017 0.25376 0.41494 0.0
C1753 C 0.31329 0.26757 0.40195 0.0
C1754 C 0.74007 0.06048 0.40748 0.0
C1755 C 0.71943 0.05381 0.39477 0.0
C1756 C 0.75434 0.08246 0.41626 0.0
C1757 C 0.74878 0.09892 0.41262 0.0
H1758 H 0.74511 0.04851 0.41165 0.0
H1759 H 0.76957 0.08638 0.42705 0.0
S1760 S 0.69787 0.09098 0.3775 0.0
N1761 N 0.69484 0.06598 0.37697 0.0
N1762 N 0.722 0.10752 0.3931 0.0
C1763 C 0.72868 0.09283 0.39868 0.0
C1764 C 0.714 0.07028 0.38973 0.0
C1765 C 0.94749 0.66842 0.38966 0.0
C1766 C 0.94358 0.65217 0.36806 0.0
C1767 C 0.93201 0.66498 0.41018 0.0
C1768 C 0.91208 0.64508 0.41014 0.0
H1769 H 0.96252 0.68413 0.39053 0.0
H1770 H 0.93563 0.67805 0.42615 0.0
S1771 S 0.89371 0.59708 0.35874 0.0
N1772 N 0.91819 0.61519 0.34834 0.0
N1773 N 0.88913 0.60887 0.38693 0.0
C1774 C 0.90803 0.62853 0.38908 0.0
C1775 C 0.92374 0.63205 0.36804 0.0
C1776 C 0.38871 0.99033 0.72611 0.0
C1777 C 0.38859 0.98711 0.69593 0.0
C1778 C 0.40243 0.98685 0.74479 0.0
C1779 C 0.4165 0.97988 0.73409 0.0
H1780 H 0.37839 0.99595 0.73543 0.0
H1781 H 0.40211 0.98976 0.76781 0.0
S1782 S 0.42258 0.96901 0.65701 0.0
N1783 N 0.40375 0.9762 0.65637 0.0
N1784 N 0.42961 0.97004 0.69142 0.0
C1785 C 0.41634 0.97629 0.70407 0.0
C1786 C 0.4024 0.97981 0.68503 0.0
C1787 C 0.97749 0.38478 0.74817 0.0
C1788 C 0.9918 0.37761 0.73918 0.0
C1789 C 0.98522 0.40585 0.76083 0.0
C1790 C 0.0076 0.42067 0.76514 0.0
H1791 H 0.96007 0.37371 0.74639 0.0
H1792 H 0.97352 0.41038 0.76804 0.0
S1793 S 0.05203 0.41071 0.7437 0.0
N1794 N 0.02956 0.3876 0.73381 0.0
N1795 N 0.04409 0.42725 0.75798 0.0
C1796 C 0.02217 0.41425 0.75485 0.0
C1797 C 0.01427 0.39272 0.74176 0.0
C1798 C 0.61867 0.61749 0.73421 0.0
C1799 C 0.61587 0.62873 0.71118 0.0
C1800 C 0.60243 0.6068 0.75415 0.0
C1801 C 0.58286 0.60711 0.75205 0.0
H1802 H 0.63315 0.61615 0.73628 0.0
H1803 H 0.60494 0.59765 0.77088 0.0
S1804 S 0.56809 0.63577 0.69757 0.0
N1805 N 0.59251 0.64085 0.68885 0.0
N1806 N 0.56197 0.62057 0.72634 0.0
C1807 C 0.58027 0.61924 0.73017 0.0
C1808 C 0.59677 0.63009 0.70973 0.0
C1809 C 0.65708 0.70446 0.62544 0.0
C1810 C 0.67805 0.70792 0.62086 0.0
C1811 C 0.65072 0.71918 0.61527 0.0
C1812 C 0.66516 0.73795 0.60041 0.0
H1813 H 0.64515 0.68983 0.63588 0.0
H1814 H 0.63428 0.71564 0.61864 0.0
S1815 S 0.72232 0.7554 0.58444 0.0
N1816 N 0.71369 0.73243 0.60205 0.0
N1817 N 0.70152 0.75963 0.58238 0.0
C1818 C 0.68641 0.74207 0.59667 0.0
C1819 C 0.69291 0.72719 0.60706 0.0
C1820 C 0.2777 0.9282 0.64172 0.0
C1821 C 0.28628 0.94465 0.62115 0.0
C1822 C 0.26336 0.90597 0.63313 0.0
C1823 C 0.25781 0.89957 0.60372 0.0
H1824 H 0.28153 0.93264 0.66452 0.0
H1825 H 0.25645 0.89375 0.6495 0.0
S1826 S 0.27693 0.93617 0.54156 0.0
N1827 N 0.28871 0.95289 0.57019 0.0
N1828 N 0.26237 0.91123 0.55418 0.0
C1829 C 0.26684 0.91579 0.58304 0.0
C1830 C 0.28096 0.93831 0.59173 0.0
C1831 C 0.07018 0.36192 0.65953 0.0
C1832 C 0.04913 0.34349 0.65554 0.0
C1833 C 0.08668 0.3656 0.64056 0.0
C1834 C 0.08283 0.35088 0.61704 0.0
H1835 H 0.07411 0.37346 0.67775 0.0
H1836 H 0.10276 0.37971 0.64485 0.0
S1837 S 0.03039 0.30112 0.59538 0.0
N1838 N 0.02515 0.31104 0.62493 0.0
N1839 N 0.0563 0.31802 0.58955 0.0
C1840 C 0.06179 0.33279 0.61219 0.0
C1841 C 0.0449 0.32911 0.63132 0.0
C1842 C 0.27929 0.34832 0.63728 0.0
C1843 C 0.27324 0.3259 0.63921 0.0
C1844 C 0.26654 0.35476 0.62128 0.0
C1845 C 0.24722 0.33908 0.60643 0.0
H1846 H 0.29383 0.36105 0.64862 0.0
H1847 H 0.27181 0.37219 0.62065 0.0
S1848 S 0.22404 0.27829 0.60415 0.0
N1849 N 0.24663 0.288 0.6242 0.0
N1850 N 0.22261 0.30012 0.59472 0.0
C1851 C 0.24114 0.31666 0.60772 0.0
C1852 C 0.25414 0.31008 0.62394 0.0
C1853 C 0.69563 0.9517 0.60937 0.0
C1854 C 0.68254 0.95822 0.62425 0.0
C1855 C 0.68753 0.92987 0.59942 0.0
C1856 C 0.66599 0.91345 0.60394 0.0
H1857 H 0.7122 0.96367 0.60457 0.0
H1858 H 0.69813 0.926 0.58723 0.0
S1859 S 0.62538 0.92101 0.64394 0.0
N1860 N 0.64711 0.94591 0.64455 0.0
N1861 N 0.63206 0.90469 0.62608 0.0
C1862 C 0.65287 0.9194 0.6197 0.0
C1863 C 0.66112 0.94176 0.62989 0.0
C1864 C 0.04826 0.71218 0.63056 0.0
C1865 C 0.05059 0.69926 0.65164 0.0
C1866 C 0.06468 0.72394 0.61125 0.0
C1867 C 0.08399 0.72308 0.61201 0.0
H1868 H 0.03398 0.71394 0.62955 0.0
H1869 H 0.0625 0.73428 0.59607 0.0
S1870 S 0.09757 0.69031 0.66105 0.0
N1871 N 0.07328 0.68514 0.67062 0.0
N1872 N 0.10415 0.70739 0.63422 0.0
C1873 C 0.08614 0.70938 0.63185 0.0
C1874 C 0.06945 0.69744 0.65169 0.0
C1875 C 0.00726 0.61966 0.73293 0.0
C1876 C 0.98603 0.6157 0.7368 0.0
C1877 C 0.01405 0.60556 0.7441 0.0
C1878 C -0.00015 0.58691 0.7594 0.0
H1879 H 0.0191 0.63435 0.7225 0.0
H1880 H 0.03072 0.60963 0.74143 0.0
S1881 S 0.94198 0.56788 0.77299 0.0
N1882 N 0.95026 0.59049 0.75469 0.0
N1883 N 0.96326 0.56452 0.77641 0.0
C1884 C 0.97827 0.58207 0.76202 0.0
C1885 C 0.9713 0.59631 0.75051 0.0
C1886 C 0.40296 0.39314 0.74592 0.0
C1887 C 0.38266 0.38732 0.73273 0.0
C1888 C 0.41767 0.41486 0.75531 0.0
C1889 C 0.41291 0.43191 0.75186 0.0
H1890 H 0.40737 0.38069 0.74998 0.0
H1891 H 0.43259 0.41812 0.76642 0.0
S1892 S 0.36331 0.42634 0.71565 0.0
N1893 N 0.35934 0.40097 0.71468 0.0
N1894 N 0.38734 0.44201 0.73196 0.0
C1895 C 0.3932 0.42668 0.73745 0.0
C1896 C 0.37807 0.40441 0.72787 0.0
C1897 C 0.59918 0.98621 0.68698 0.0
C1898 C 0.6206 0.99388 0.69739 0.0
C1899 C 0.58246 0.98174 0.70589 0.0
C1900 C 0.58647 0.98469 0.73598 0.0
H1901 H 0.5953 0.98416 0.66398 0.0
H1902 H 0.56641 0.97659 0.6968 0.0
S1903 S 0.63907 0.002 0.77461 0.0
N1904 N 0.64452 0.00266 0.74004 0.0
N1905 N 0.61297 0.99397 0.77551 0.0
C1906 C 0.60759 0.99152 0.74679 0.0
C1907 C 0.62467 0.99615 0.72753 0.0
loop_
_geom_bond_atom_site_label_1
_geom_bond_atom_site_label_2
_geom_bond_distance
_geom_bond_site_symmetry_2
_ccdc_geom_bond_type
Mg0 O1 2.028 1_556 S
Mg0 O7 1.986 1_455 S
Mg0 O9 2.114 . S
Mg0 O10 2.251 1_455 S
Mg0 O13 2.010 1_556 S
O1 Mg0 2.028 1_554 S
O1 C4 1.250 1_455 S
O2 Mg3 2.028 1_554 S
O2 C4 1.248 . S
Mg3 O2 2.028 1_556 S
Mg3 O8 2.032 . S
Mg3 O10 2.079 . S
C4 O1 1.250 1_655 S
C4 O2 1.248 . S
C5 O6 1.264 . S
C5 O13 1.249 . S
O6 C5 1.264 . S
O7 Mg0 1.986 1_655 S
O7 C11 1.246 . S
O8 Mg3 2.032 . S
O8 C11 1.259 . S
O9 Mg0 2.114 . S
O9 C12 1.252 . S
O10 Mg0 2.251 1_655 S
O10 Mg3 2.079 . S
O10 C12 1.273 1_655 S
C11 O7 1.246 . S
C11 O8 1.259 . S
C12 O9 1.252 . S
C12 O10 1.273 1_455 S
O13 Mg0 2.010 1_554 S
O13 C5 1.249 . S
Mg14 O15 2.028 1_554 S
Mg14 O21 1.986 . S
Mg14 O23 2.114 . S
Mg14 O24 2.251 . S
Mg14 O27 2.010 . S
O15 Mg14 2.028 1_556 S
O15 C18 1.250 . S
O16 Mg17 2.028 1_556 S
O16 C18 1.248 . S
Mg17 O16 2.028 1_554 S
Mg17 O22 2.032 . S
Mg17 O24 2.079 . S
C18 O15 1.250 . S
C18 O16 1.248 . S
C19 O20 1.264 1_556 S
C19 O27 1.249 1_556 S
O20 C19 1.264 1_554 S
O21 Mg14 1.986 . S
O21 C25 1.246 . S
O22 Mg17 2.032 . S
O22 C25 1.259 . S
O23 Mg14 2.114 . S
O23 C26 1.252 . S
O24 Mg14 2.251 . S
O24 Mg17 2.079 . S
O24 C26 1.273 . S
C25 O21 1.246 . S
C25 O22 1.259 . S
C26 O23 1.252 . S
C26 O24 1.273 . S
O27 Mg14 2.010 . S
O27 C19 1.249 1_554 S
Mg28 O29 2.033 1_566 S
Mg28 O35 1.986 1_565 S
Mg28 O37 2.114 . S
Mg28 O38 2.251 1_565 S
Mg28 O41 2.010 1_556 S
O29 Mg28 2.033 1_544 S
O29 C32 1.260 . S
O30 Mg31 2.028 1_554 S
O30 C32 1.248 . S
Mg31 O30 2.028 1_556 S
Mg31 O36 2.032 . S
Mg31 O38 2.079 . S
C32 O29 1.260 . S
C32 O30 1.248 . S
C33 O34 1.264 . S
C33 O41 1.249 . S
O34 C33 1.264 . S
O35 Mg28 1.986 1_545 S
O35 C39 1.246 . S
O36 Mg31 2.032 . S
O36 C39 1.259 . S
O37 Mg28 2.114 . S
O37 C40 1.252 . S
O38 Mg28 2.251 1_545 S
O38 Mg31 2.079 . S
O38 C40 1.273 1_545 S
C39 O35 1.246 . S
C39 O36 1.259 . S
C40 O37 1.252 . S
C40 O38 1.273 1_565 S
O41 Mg28 2.010 1_554 S
O41 C33 1.249 . S
Mg42 O43 2.028 1_654 S
Mg42 O49 1.986 1_655 S
Mg42 O51 2.114 . S
Mg42 O52 2.251 1_655 S
Mg42 O55 2.010 . S
O43 Mg42 2.028 1_456 S
O43 C46 1.251 . S
O44 Mg45 2.028 1_556 S
O44 C46 1.248 . S
Mg45 O44 2.028 1_554 S
Mg45 O50 2.032 . S
Mg45 O52 2.079 . S
C46 O43 1.251 . S
C46 O44 1.248 . S
C47 O48 1.286 . S
C47 O55 1.264 . S
O48 C47 1.286 . S
O49 Mg42 1.986 1_455 S
O49 C53 1.246 . S
O50 Mg45 2.032 . S
O50 C53 1.259 . S
O51 Mg42 2.114 . S
O51 C54 1.252 . S
O52 Mg42 2.251 1_455 S
O52 Mg45 2.079 . S
O52 C54 1.273 1_455 S
C53 O49 1.246 . S
C53 O50 1.259 . S
C54 O51 1.252 . S
C54 O52 1.273 1_655 S
O55 Mg42 2.010 . S
O55 C47 1.264 . S
Mg56 O57 2.028 1_556 S
Mg56 O63 1.986 . S
Mg56 O65 2.114 . S
Mg56 O66 2.251 . S
Mg56 O69 2.010 1_556 S
O57 Mg56 2.028 1_554 S
O57 C60 1.250 . S
O58 Mg59 2.028 1_554 S
O58 C60 1.248 . S
Mg59 O58 2.028 1_556 S
Mg59 O64 2.032 . S
Mg59 O66 2.079 . S
C60 O57 1.250 . S
C60 O58 1.248 . S
C61 O62 1.264 . S
C61 O69 1.249 . S
O62 C61 1.264 . S
O63 Mg56 1.986 . S
O63 C67 1.246 . S
O64 Mg59 2.032 . S
O64 C67 1.259 . S
O65 Mg56 2.114 . S
O65 C68 1.252 . S
O66 Mg56 2.251 . S
O66 Mg59 2.079 . S
O66 C68 1.273 . S
C67 O63 1.246 . S
C67 O64 1.259 . S
C68 O65 1.252 . S
C68 O66 1.273 . S
O69 Mg56 2.010 1_554 S
O69 C61 1.249 . S
Mg70 O71 2.028 1_554 S
Mg70 O77 1.986 1_545 S
Mg70 O79 2.114 . S
Mg70 O80 2.251 1_545 S
Mg70 O83 2.010 . S
O71 Mg70 2.028 1_556 S
O71 C74 1.250 1_545 S
O72 Mg73 2.028 1_556 S
O72 C74 1.248 . S
Mg73 O72 2.028 1_554 S
Mg73 O78 2.032 . S
Mg73 O80 2.079 . S
C74 O71 1.250 1_565 S
C74 O72 1.248 . S
C75 O76 1.264 . S
C75 O83 1.249 . S
O76 C75 1.264 . S
O77 Mg70 1.986 1_565 S
O77 C81 1.246 . S
O78 Mg73 2.032 . S
O78 C81 1.259 . S
O79 Mg70 2.114 . S
O79 C82 1.252 . S
O80 Mg70 2.251 1_565 S
O80 Mg73 2.079 . S
O80 C82 1.273 1_565 S
C81 O77 1.246 . S
C81 O78 1.259 . S
C82 O79 1.252 . S
C82 O80 1.273 1_545 S
O83 Mg70 2.010 . S
O83 C75 1.249 . S
Mg84 O85 2.028 . S
Mg84 O91 1.986 . S
Mg84 O93 2.114 . S
Mg84 O94 2.251 . S
Mg84 O97 2.010 . S
O85 Mg84 2.028 . S
O85 C88 1.250 . S
O86 Mg87 2.028 . S
O86 C88 1.248 . S
Mg87 O86 2.028 . S
Mg87 O92 2.032 . S
Mg87 O94 2.079 . S
C88 O85 1.250 . S
C88 O86 1.248 . S
C89 O90 1.264 . S
C89 O97 1.249 . S
O90 C89 1.264 . S
O91 Mg84 1.986 . S
O91 C95 1.246 . S
O92 Mg87 2.032 . S
O92 C95 1.259 . S
O93 Mg84 2.114 . S
O93 C96 1.252 . S
O94 Mg84 2.251 . S
O94 Mg87 2.079 . S
O94 C96 1.273 . S
C95 O91 1.246 . S
C95 O92 1.259 . S
C96 O93 1.252 . S
C96 O94 1.273 . S
O97 Mg84 2.010 . S
O97 C89 1.249 . S
Mg98 O99 2.028 . S
Mg98 O105 1.986 1_565 S
Mg98 O107 2.114 . S
Mg98 O108 2.251 . S
Mg98 O111 2.010 . S
O99 Mg98 2.028 . S
O99 C102 1.250 . S
O100 Mg101 2.028 . S
O100 C102 1.248 . S
Mg101 O100 2.028 . S
Mg101 O106 2.032 1_565 S
Mg101 O108 2.079 . S
C102 O99 1.250 . S
C102 O100 1.248 . S
C103 O104 1.264 . S
C103 O111 1.249 . S
O104 C103 1.264 . S
O105 Mg98 1.986 1_545 S
O105 C109 1.246 . S
O106 Mg101 2.032 1_545 S
O106 C109 1.259 . S
O107 Mg98 2.114 . S
O107 C110 1.252 . S
O108 Mg98 2.251 . S
O108 Mg101 2.079 . S
O108 C110 1.273 . S
C109 O105 1.246 . S
C109 O106 1.259 . S
C110 O107 1.252 . S
C110 O108 1.273 . S
O111 Mg98 2.010 . S
O111 C103 1.249 . S
Mg112 O113 2.028 . S
Mg112 O119 1.986 . S
Mg112 O121 2.114 . S
Mg112 O122 2.251 . S
Mg112 O125 2.010 1_455 S
O113 Mg112 2.028 . S
O113 C116 1.250 . S
O114 Mg115 2.028 . S
O114 C116 1.248 . S
Mg115 O114 2.028 . S
Mg115 O120 2.032 . S
Mg115 O122 2.079 . S
C116 O113 1.250 . S
C116 O114 1.248 . S
C117 O118 1.264 . S
C117 O125 1.249 . S
O118 C117 1.264 . S
O119 Mg112 1.986 . S
O119 C123 1.246 . S
O120 Mg115 2.032 . S
O120 C123 1.259 . S
O121 Mg112 2.114 . S
O121 C124 1.252 . S
O122 Mg112 2.251 . S
O122 Mg115 2.079 . S
O122 C124 1.273 . S
C123 O119 1.246 . S
C123 O120 1.259 . S
C124 O121 1.252 . S
C124 O122 1.273 . S
O125 Mg112 2.010 1_655 S
O125 C117 1.249 . S
Mg126 O127 2.028 . S
Mg126 O133 1.986 1_565 S
Mg126 O135 2.114 . S
Mg126 O136 2.251 . S
Mg126 O139 2.010 . S
O127 Mg126 2.028 . S
O127 C130 1.250 . S
O128 Mg129 2.028 . S
O128 C130 1.248 . S
Mg129 O128 2.028 . S
Mg129 O134 2.032 1_565 S
Mg129 O136 2.079 . S
C130 O127 1.250 . S
C130 O128 1.248 . S
C131 O132 1.264 . S
C131 O139 1.249 . S
O132 C131 1.264 . S
O133 Mg126 1.986 1_545 S
O133 C137 1.246 . S
O134 Mg129 2.032 1_545 S
O134 C137 1.259 . S
O135 Mg126 2.114 . S
O135 C138 1.252 . S
O136 Mg126 2.251 . S
O136 Mg129 2.079 . S
O136 C138 1.273 . S
C137 O133 1.246 . S
C137 O134 1.259 . S
C138 O135 1.252 . S
C138 O136 1.273 . S
O139 Mg126 2.010 . S
O139 C131 1.249 . S
Mg140 O141 2.028 . S
Mg140 O147 1.986 . S
Mg140 O149 2.114 . S
Mg140 O150 2.251 . S
Mg140 O153 2.010 1_455 S
O141 Mg140 2.028 . S
O141 C144 1.250 . S
O142 Mg143 2.028 . S
O142 C144 1.248 . S
Mg143 O142 2.028 . S
Mg143 O148 2.032 . S
Mg143 O150 2.079 . S
C144 O141 1.250 . S
C144 O142 1.248 . S
C145 O146 1.264 . S
C145 O153 1.249 . S
O146 C145 1.264 . S
O147 Mg140 1.986 . S
O147 C151 1.246 . S
O148 Mg143 2.032 . S
O148 C151 1.259 . S
O149 Mg140 2.114 . S
O149 C152 1.252 . S
O150 Mg140 2.251 . S
O150 Mg143 2.079 . S
O150 C152 1.273 . S
C151 O147 1.246 . S
C151 O148 1.259 . S
C152 O149 1.252 . S
C152 O150 1.273 . S
O153 Mg140 2.010 1_655 S
O153 C145 1.249 . S
Mg154 O155 2.028 . S
Mg154 O161 1.986 . S
Mg154 O163 2.114 . S
Mg154 O164 2.251 . S
Mg154 O167 2.010 . S
O155 Mg154 2.028 . S
O155 C158 1.250 . S
O156 Mg157 2.028 . S
O156 C158 1.248 . S
Mg157 O156 2.028 . S
Mg157 O162 2.032 . S
Mg157 O164 2.079 . S
C158 O155 1.250 . S
C158 O156 1.248 . S
C159 O160 1.264 . S
C159 O167 1.249 . S
O160 C159 1.264 . S
O161 Mg154 1.986 . S
O161 C165 1.246 . S
O162 Mg157 2.032 . S
O162 C165 1.259 . S
O163 Mg154 2.114 . S
O163 C166 1.252 . S
O164 Mg154 2.251 . S
O164 Mg157 2.079 . S
O164 C166 1.273 . S
C165 O161 1.246 . S
C165 O162 1.259 . S
C166 O163 1.252 . S
C166 O164 1.273 . S
O167 Mg154 2.010 . S
O167 C159 1.249 . S
Mg168 O169 2.028 . S
Mg168 O175 1.986 1_545 S
Mg168 O177 2.114 . S
Mg168 O178 2.251 . S
Mg168 O181 2.010 . S
O169 Mg168 2.028 . S
O169 C172 1.250 . S
O170 Mg171 2.028 . S
O170 C172 1.248 . S
Mg171 O170 2.028 . S
Mg171 O176 2.032 1_545 S
Mg171 O178 2.079 . S
C172 O169 1.250 . S
C172 O170 1.248 . S
C173 O174 1.264 . S
C173 O181 1.249 . S
O174 C173 1.264 . S
O175 Mg168 1.986 1_565 S
O175 C179 1.246 . S
O176 Mg171 2.032 1_565 S
O176 C179 1.259 . S
O177 Mg168 2.114 . S
O177 C180 1.252 . S
O178 Mg168 2.251 . S
O178 Mg171 2.079 . S
O178 C180 1.273 . S
C179 O175 1.246 . S
C179 O176 1.259 . S
C180 O177 1.252 . S
C180 O178 1.273 . S
O181 Mg168 2.010 . S
O181 C173 1.249 . S
Mg182 O183 2.028 . S
Mg182 O189 1.986 . S
Mg182 O191 2.114 . S
Mg182 O192 2.251 . S
Mg182 O195 2.010 1_655 S
O183 Mg182 2.028 . S
O183 C186 1.250 . S
O184 Mg185 2.028 . S
O184 C186 1.248 . S
Mg185 O184 2.028 . S
Mg185 O190 2.032 . S
Mg185 O192 2.079 . S
C186 O183 1.250 . S
C186 O184 1.248 . S
C187 O188 1.264 . S
C187 O195 1.249 . S
O188 C187 1.264 . S
O189 Mg182 1.986 . S
O189 C193 1.246 . S
O190 Mg185 2.032 . S
O190 C193 1.259 . S
O191 Mg182 2.114 . S
O191 C194 1.252 . S
O192 Mg182 2.251 . S
O192 Mg185 2.079 . S
O192 C194 1.273 . S
C193 O189 1.246 . S
C193 O190 1.259 . S
C194 O191 1.252 . S
C194 O192 1.273 . S
O195 Mg182 2.010 1_455 S
O195 C187 1.249 . S
Mg196 O197 2.028 . S
Mg196 O203 1.986 . S
Mg196 O205 2.114 . S
Mg196 O206 2.251 . S
Mg196 O209 2.010 . S
O197 Mg196 2.028 . S
O197 C200 1.250 . S
O198 Mg199 2.028 . S
O198 C200 1.248 . S
Mg199 O198 2.028 . S
Mg199 O204 2.032 . S
Mg199 O206 2.079 . S
C200 O197 1.250 . S
C200 O198 1.248 . S
C201 O202 1.264 . S
C201 O209 1.249 . S
O202 C201 1.264 . S
O203 Mg196 1.986 . S
O203 C207 1.246 . S
O204 Mg199 2.032 . S
O204 C207 1.259 . S
O205 Mg196 2.114 . S
O205 C208 1.252 . S
O206 Mg196 2.251 . S
O206 Mg199 2.079 . S
O206 C208 1.273 . S
C207 O203 1.246 . S
C207 O204 1.259 . S
C208 O205 1.252 . S
C208 O206 1.273 . S
O209 Mg196 2.010 . S
O209 C201 1.249 . S
Mg210 O211 2.028 . S
Mg210 O217 1.986 . S
Mg210 O219 2.114 . S
Mg210 O220 2.251 . S
Mg210 O223 2.010 . S
O211 Mg210 2.028 . S
O211 C214 1.250 . S
O212 Mg213 2.028 . S
O212 C214 1.248 . S
Mg213 O212 2.028 . S
Mg213 O218 2.032 . S
Mg213 O220 2.079 . S
C214 O211 1.250 . S
C214 O212 1.248 . S
C215 O216 1.264 . S
C215 O223 1.249 . S
O216 C215 1.264 . S
O217 Mg210 1.986 . S
O217 C221 1.246 . S
O218 Mg213 2.032 . S
O218 C221 1.259 . S
O219 Mg210 2.114 . S
O219 C222 1.252 . S
O220 Mg210 2.251 . S
O220 Mg213 2.079 . S
O220 C222 1.273 . S
C221 O217 1.246 . S
C221 O218 1.259 . S
C222 O219 1.252 . S
C222 O220 1.273 . S
O223 Mg210 2.010 . S
O223 C215 1.249 . S
Mg224 O225 2.028 . S
Mg224 O231 1.986 1_545 S
Mg224 O233 2.114 . S
Mg224 O234 2.251 . S
Mg224 O237 2.010 . S
O225 Mg224 2.028 . S
O225 C228 1.250 . S
O226 Mg227 2.028 . S
O226 C228 1.248 . S
Mg227 O226 2.028 . S
Mg227 O232 2.032 1_545 S
Mg227 O234 2.079 . S
C228 O225 1.250 . S
C228 O226 1.248 . S
C229 O230 1.264 . S
C229 O237 1.249 . S
O230 C229 1.264 . S
O231 Mg224 1.986 1_565 S
O231 C235 1.246 . S
O232 Mg227 2.032 1_565 S
O232 C235 1.259 . S
O233 Mg224 2.114 . S
O233 C236 1.252 . S
O234 Mg224 2.251 . S
O234 Mg227 2.079 . S
O234 C236 1.273 . S
C235 O231 1.246 . S
C235 O232 1.259 . S
C236 O233 1.252 . S
C236 O234 1.273 . S
O237 Mg224 2.010 . S
O237 C229 1.249 . S
Mg238 O239 2.028 . S
Mg238 O245 1.986 . S
Mg238 O247 2.114 . S
Mg238 O248 2.251 . S
Mg238 O251 2.010 1_655 S
O239 Mg238 2.028 . S
O239 C242 1.250 . S
O240 Mg241 2.028 . S
O240 C242 1.248 . S
Mg241 O240 2.028 . S
Mg241 O246 2.032 . S
Mg241 O248 2.079 . S
C242 O239 1.250 . S
C242 O240 1.248 . S
C243 O244 1.264 . S
C243 O251 1.249 . S
O244 C243 1.264 . S
O245 Mg238 1.986 . S
O245 C249 1.246 . S
O246 Mg241 2.032 . S
O246 C249 1.259 . S
O247 Mg238 2.114 . S
O247 C250 1.252 . S
O248 Mg238 2.251 . S
O248 Mg241 2.079 . S
O248 C250 1.273 . S
C249 O245 1.246 . S
C249 O246 1.259 . S
C250 O247 1.252 . S
C250 O248 1.273 . S
O251 Mg238 2.010 1_455 S
O251 C243 1.249 . S
H252 C271 0.949 . S
H253 C272 0.950 . S
H254 C274 0.950 . S
H255 C275 0.950 . S
H256 C277 0.950 . S
H257 C280 0.950 . S
H258 C281 0.950 . S
H259 C283 0.951 . S
H260 C284 0.949 . S
H261 C286 0.949 . S
H262 C287 0.950 . S
H263 C289 0.950 . S
H264 C290 0.950 . S
H265 C292 0.950 . S
H266 C295 0.950 . S
H267 C296 0.950 . S
H268 C298 0.951 . S
H269 C299 0.949 . S
C270 C271 1.376 . S
C270 C275 1.386 . S
C270 C276 1.483 . S
C271 H252 0.949 . S
C271 C270 1.376 . S
C271 C272 1.397 . S
C272 H253 0.950 . S
C272 C271 1.397 . S
C272 C273 1.391 . S
C273 C272 1.391 . S
C273 C274 1.405 . S
C274 H254 0.950 . S
C274 C273 1.405 . S
C274 C275 1.367 . S
C275 H255 0.950 . S
C275 C270 1.386 . S
C275 C274 1.367 . S
C276 C270 1.483 . S
C276 C277 1.382 . S
C276 C278 1.403 . S
C277 H256 0.950 . S
C277 C276 1.382 . S
C277 C293 1.411 . S
C278 C276 1.403 . S
C278 C279 1.489 . S
C278 C292 1.411 . S
C279 C278 1.489 . S
C279 C280 1.383 . S
C279 C284 1.382 . S
C280 H257 0.950 . S
C280 C279 1.383 . S
C280 C281 1.395 . S
C281 H258 0.950 . S
C281 C280 1.395 . S
C281 C282 1.288 . S
C282 C281 1.288 . S
C282 C283 1.392 . S
C283 H259 0.951 . S
C283 C282 1.392 . S
C283 C284 1.392 . S
C284 H260 0.949 . S
C284 C279 1.382 . S
C284 C283 1.392 . S
C285 C286 1.376 . S
C285 C290 1.386 . S
C285 C291 1.483 . S
C286 H261 0.949 . S
C286 C285 1.376 . S
C286 C287 1.397 . S
C287 H262 0.950 . S
C287 C286 1.397 . S
C287 C288 1.391 . S
C288 C287 1.391 . S
C288 C289 1.405 . S
C289 H263 0.950 . S
C289 C288 1.405 . S
C289 C290 1.367 . S
C290 H264 0.950 . S
C290 C285 1.386 . S
C290 C289 1.367 . S
C291 C285 1.483 . S
C291 C292 1.382 . S
C291 C293 1.403 . S
C292 H265 0.950 . S
C292 C278 1.411 . S
C292 C291 1.382 . S
C293 C277 1.411 . S
C293 C291 1.403 . S
C293 C294 1.489 . S
C294 C293 1.489 . S
C294 C295 1.383 . S
C294 C299 1.382 . S
C295 H266 0.950 . S
C295 C294 1.383 . S
C295 C296 1.395 . S
C296 H267 0.950 . S
C296 C295 1.395 . S
C296 C297 1.288 . S
C297 C296 1.288 . S
C297 C298 1.392 . S
C298 H268 0.951 . S
C298 C297 1.392 . S
C298 C299 1.392 . S
C299 H269 0.949 . S
C299 C294 1.382 . S
C299 C298 1.392 . S
H300 C319 0.949 . S
H301 C320 0.950 . S
H302 C322 0.950 . S
H303 C323 0.950 . S
H304 C325 0.950 . S
H305 C328 0.950 . S
H306 C329 0.950 . S
H307 C331 0.951 . S
H308 C332 0.949 . S
H309 C334 0.949 . S
H310 C335 0.950 . S
H311 C337 0.950 . S
H312 C338 0.950 . S
H313 C340 0.950 . S
H314 C343 0.950 . S
H315 C344 0.950 . S
H316 C346 0.951 . S
H317 C347 0.949 . S
C318 C319 1.376 . S
C318 C323 1.386 . S
C318 C324 1.483 . S
C319 H300 0.949 . S
C319 C318 1.376 . S
C319 C320 1.397 . S
C320 H301 0.950 . S
C320 C319 1.397 . S
C320 C321 1.391 . S
C321 C320 1.391 . S
C321 C322 1.405 . S
C322 H302 0.950 . S
C322 C321 1.405 . S
C322 C323 1.367 . S
C323 H303 0.950 . S
C323 C318 1.386 . S
C323 C322 1.367 . S
C324 C318 1.483 . S
C324 C325 1.382 . S
C324 C326 1.403 . S
C325 H304 0.950 . S
C325 C324 1.382 . S
C325 C341 1.411 . S
C326 C324 1.403 . S
C326 C327 1.489 . S
C326 C340 1.411 . S
C327 C326 1.489 . S
C327 C328 1.383 . S
C327 C332 1.382 . S
C328 H305 0.950 . S
C328 C327 1.383 . S
C328 C329 1.395 . S
C329 H306 0.950 . S
C329 C328 1.395 . S
C329 C330 1.288 . S
C330 C329 1.288 . S
C330 C331 1.392 . S
C331 H307 0.951 . S
C331 C330 1.392 . S
C331 C332 1.392 . S
C332 H308 0.949 . S
C332 C327 1.382 . S
C332 C331 1.392 . S
C333 C334 1.376 . S
C333 C338 1.386 . S
C333 C339 1.483 . S
C334 H309 0.949 . S
C334 C333 1.376 . S
C334 C335 1.397 . S
C335 H310 0.950 . S
C335 C334 1.397 . S
C335 C336 1.391 . S
C336 C335 1.391 . S
C336 C337 1.405 . S
C337 H311 0.950 . S
C337 C336 1.405 . S
C337 C338 1.367 . S
C338 H312 0.950 . S
C338 C333 1.386 . S
C338 C337 1.367 . S
C339 C333 1.483 . S
C339 C340 1.382 . S
C339 C341 1.403 . S
C340 H313 0.950 . S
C340 C326 1.411 . S
C340 C339 1.382 . S
C341 C325 1.411 . S
C341 C339 1.403 . S
C341 C342 1.489 . S
C342 C341 1.489 . S
C342 C343 1.383 . S
C342 C347 1.382 . S
C343 H314 0.950 . S
C343 C342 1.383 . S
C343 C344 1.395 . S
C344 H315 0.950 . S
C344 C343 1.395 . S
C344 C345 1.288 . S
C345 C344 1.288 . S
C345 C346 1.392 . S
C346 H316 0.951 . S
C346 C345 1.392 . S
C346 C347 1.392 . S
C347 H317 0.949 . S
C347 C342 1.382 . S
C347 C346 1.392 . S
H348 C367 0.949 . S
H349 C368 0.950 . S
H350 C370 0.950 . S
H351 C371 0.950 . S
H352 C373 0.950 . S
H353 C376 0.950 . S
H354 C377 0.950 . S
H355 C379 0.951 . S
H356 C380 0.949 . S
H357 C382 0.949 . S
H358 C383 0.950 . S
H359 C385 0.950 . S
H360 C386 0.950 . S
H361 C388 0.950 . S
H362 C391 0.950 . S
H363 C392 0.950 . S
H364 C394 0.951 . S
H365 C395 0.949 . S
C366 C367 1.376 . S
C366 C371 1.386 . S
C366 C372 1.483 . S
C367 H348 0.949 . S
C367 C366 1.376 . S
C367 C368 1.397 . S
C368 H349 0.950 . S
C368 C367 1.397 . S
C368 C369 1.391 . S
C369 C368 1.391 . S
C369 C370 1.405 . S
C370 H350 0.950 . S
C370 C369 1.405 . S
C370 C371 1.367 . S
C371 H351 0.950 . S
C371 C366 1.386 . S
C371 C370 1.367 . S
C372 C366 1.483 . S
C372 C373 1.382 . S
C372 C374 1.403 . S
C373 H352 0.950 . S
C373 C372 1.382 . S
C373 C389 1.411 . S
C374 C372 1.403 . S
C374 C375 1.489 . S
C374 C388 1.411 . S
C375 C374 1.489 . S
C375 C376 1.383 . S
C375 C380 1.382 . S
C376 H353 0.950 . S
C376 C375 1.383 . S
C376 C377 1.395 . S
C377 H354 0.950 . S
C377 C376 1.395 . S
C377 C378 1.288 . S
C378 C377 1.288 . S
C378 C379 1.392 . S
C379 H355 0.951 . S
C379 C378 1.392 . S
C379 C380 1.392 . S
C380 H356 0.949 . S
C380 C375 1.382 . S
C380 C379 1.392 . S
C381 C382 1.376 . S
C381 C386 1.386 . S
C381 C387 1.483 . S
C382 H357 0.949 . S
C382 C381 1.376 . S
C382 C383 1.397 . S
C383 H358 0.950 . S
C383 C382 1.397 . S
C383 C384 1.391 . S
C384 C383 1.391 . S
C384 C385 1.405 . S
C385 H359 0.950 . S
C385 C384 1.405 . S
C385 C386 1.367 . S
C386 H360 0.950 . S
C386 C381 1.386 . S
C386 C385 1.367 . S
C387 C381 1.483 . S
C387 C388 1.382 . S
C387 C389 1.403 . S
C388 H361 0.950 . S
C388 C374 1.411 . S
C388 C387 1.382 . S
C389 C373 1.411 . S
C389 C387 1.403 . S
C389 C390 1.489 . S
C390 C389 1.489 . S
C390 C391 1.383 . S
C390 C395 1.382 . S
C391 H362 0.950 . S
C391 C390 1.383 . S
C391 C392 1.395 . S
C392 H363 0.950 . S
C392 C391 1.395 . S
C392 C393 1.288 . S
C393 C392 1.288 . S
C393 C394 1.392 . S
C394 H364 0.951 . S
C394 C393 1.392 . S
C394 C395 1.392 . S
C395 H365 0.949 . S
C395 C390 1.382 . S
C395 C394 1.392 . S
H396 C415 0.949 . S
H397 C416 0.950 . S
H398 C418 0.950 . S
H399 C419 0.950 . S
H400 C421 0.950 . S
H401 C424 0.950 . S
H402 C425 0.950 . S
H403 C427 0.951 . S
H404 C428 0.949 . S
H405 C430 0.949 . S
H406 C431 0.950 . S
H407 C433 0.950 . S
H408 C434 0.950 . S
H409 C436 0.950 . S
H410 C439 0.950 . S
H411 C440 0.950 . S
H412 C442 0.951 . S
H413 C443 0.949 . S
C414 C415 1.376 . S
C414 C419 1.386 . S
C414 C420 1.483 . S
C415 H396 0.949 . S
C415 C414 1.376 . S
C415 C416 1.397 . S
C416 H397 0.950 . S
C416 C415 1.397 . S
C416 C417 1.391 . S
C417 C416 1.391 . S
C417 C418 1.405 . S
C418 H398 0.950 . S
C418 C417 1.405 . S
C418 C419 1.367 . S
C419 H399 0.950 . S
C419 C414 1.386 . S
C419 C418 1.367 . S
C420 C414 1.483 . S
C420 C421 1.382 . S
C420 C422 1.403 . S
C421 H400 0.950 . S
C421 C420 1.382 . S
C421 C437 1.411 . S
C422 C420 1.403 . S
C422 C423 1.489 . S
C422 C436 1.411 . S
C423 C422 1.489 . S
C423 C424 1.383 . S
C423 C428 1.382 . S
C424 H401 0.950 . S
C424 C423 1.383 . S
C424 C425 1.395 . S
C425 H402 0.950 . S
C425 C424 1.395 . S
C425 C426 1.288 . S
C426 C425 1.288 . S
C426 C427 1.392 . S
C427 H403 0.951 . S
C427 C426 1.392 . S
C427 C428 1.392 . S
C428 H404 0.949 . S
C428 C423 1.382 . S
C428 C427 1.392 . S
C429 C430 1.376 . S
C429 C434 1.386 . S
C429 C435 1.483 . S
C430 H405 0.949 . S
C430 C429 1.376 . S
C430 C431 1.397 . S
C431 H406 0.950 . S
C431 C430 1.397 . S
C431 C432 1.391 . S
C432 C431 1.391 . S
C432 C433 1.405 . S
C433 H407 0.950 . S
C433 C432 1.405 . S
C433 C434 1.367 . S
C434 H408 0.950 . S
C434 C429 1.386 . S
C434 C433 1.367 . S
C435 C429 1.483 . S
C435 C436 1.382 . S
C435 C437 1.403 . S
C436 H409 0.950 . S
C436 C422 1.411 . S
C436 C435 1.382 . S
C437 C421 1.411 . S
C437 C435 1.403 . S
C437 C438 1.489 . S
C438 C437 1.489 . S
C438 C439 1.383 . S
C438 C443 1.382 . S
C439 H410 0.950 . S
C439 C438 1.383 . S
C439 C440 1.395 . S
C440 H411 0.950 . S
C440 C439 1.395 . S
C440 C441 1.288 . S
C441 C440 1.288 . S
C441 C442 1.392 . S
C442 H412 0.951 . S
C442 C441 1.392 . S
C442 C443 1.392 . S
C443 H413 0.949 . S
C443 C438 1.382 . S
C443 C442 1.392 . S
H444 C463 0.949 . S
H445 C464 0.950 . S
H446 C466 0.950 . S
H447 C467 0.950 . S
H448 C469 0.950 . S
H449 C472 0.950 . S
H450 C473 0.950 . S
H451 C475 0.951 . S
H452 C476 0.949 . S
H453 C478 0.949 . S
H454 C479 0.950 . S
H455 C481 0.950 . S
H456 C482 0.950 . S
H457 C484 0.950 . S
H458 C487 0.950 . S
H459 C488 0.950 . S
H460 C490 0.951 . S
H461 C491 0.949 . S
C462 C463 1.376 . S
C462 C467 1.386 . S
C462 C468 1.483 . S
C463 H444 0.949 . S
C463 C462 1.376 . S
C463 C464 1.397 . S
C464 H445 0.950 . S
C464 C463 1.397 . S
C464 C465 1.391 . S
C465 C464 1.391 . S
C465 C466 1.405 . S
C466 H446 0.950 . S
C466 C465 1.405 . S
C466 C467 1.367 . S
C467 H447 0.950 . S
C467 C462 1.386 . S
C467 C466 1.367 . S
C468 C462 1.483 . S
C468 C469 1.382 . S
C468 C470 1.403 . S
C469 H448 0.950 . S
C469 C468 1.382 . S
C469 C485 1.411 . S
C470 C468 1.403 . S
C470 C471 1.489 . S
C470 C484 1.411 . S
C471 C470 1.489 . S
C471 C472 1.383 . S
C471 C476 1.382 . S
C472 H449 0.950 . S
C472 C471 1.383 . S
C472 C473 1.395 . S
C473 H450 0.950 . S
C473 C472 1.395 . S
C473 C474 1.288 . S
C474 C473 1.288 . S
C474 C475 1.392 . S
C475 H451 0.951 . S
C475 C474 1.392 . S
C475 C476 1.392 . S
C476 H452 0.949 . S
C476 C471 1.382 . S
C476 C475 1.392 . S
C477 C478 1.376 . S
C477 C482 1.386 . S
C477 C483 1.483 . S
C478 H453 0.949 . S
C478 C477 1.376 . S
C478 C479 1.397 . S
C479 H454 0.950 . S
C479 C478 1.397 . S
C479 C480 1.391 . S
C480 C479 1.391 . S
C480 C481 1.405 . S
C481 H455 0.950 . S
C481 C480 1.405 . S
C481 C482 1.367 . S
C482 H456 0.950 . S
C482 C477 1.386 . S
C482 C481 1.367 . S
C483 C477 1.483 . S
C483 C484 1.382 . S
C483 C485 1.403 . S
C484 H457 0.950 . S
C484 C470 1.411 . S
C484 C483 1.382 . S
C485 C469 1.411 . S
C485 C483 1.403 . S
C485 C486 1.489 . S
C486 C485 1.489 . S
C486 C487 1.383 . S
C486 C491 1.382 . S
C487 H458 0.950 . S
C487 C486 1.383 . S
C487 C488 1.395 . S
C488 H459 0.950 . S
C488 C487 1.395 . S
C488 C489 1.288 . S
C489 C488 1.288 . S
C489 C490 1.392 . S
C490 H460 0.951 . S
C490 C489 1.392 . S
C490 C491 1.392 . S
C491 H461 0.949 . S
C491 C486 1.382 . S
C491 C490 1.392 . S
H492 C511 0.949 . S
H493 C512 0.950 . S
H494 C514 0.950 . S
H495 C515 0.950 . S
H496 C517 0.950 . S
H497 C520 0.950 . S
H498 C521 0.950 . S
H499 C523 0.951 . S
H500 C524 0.949 . S
H501 C526 0.949 . S
H502 C527 0.950 . S
H503 C529 0.950 . S
H504 C530 0.950 . S
H505 C532 0.950 . S
H506 C535 0.950 . S
H507 C536 0.950 . S
H508 C538 0.951 . S
H509 C539 0.949 . S
C510 C511 1.376 . S
C510 C515 1.386 . S
C510 C516 1.483 . S
C511 H492 0.949 . S
C511 C510 1.376 . S
C511 C512 1.397 . S
C512 H493 0.950 . S
C512 C511 1.397 . S
C512 C513 1.391 . S
C513 C512 1.391 . S
C513 C514 1.405 . S
C514 H494 0.950 . S
C514 C513 1.405 . S
C514 C515 1.367 . S
C515 H495 0.950 . S
C515 C510 1.386 . S
C515 C514 1.367 . S
C516 C510 1.483 . S
C516 C517 1.382 . S
C516 C518 1.403 . S
C517 H496 0.950 . S
C517 C516 1.382 . S
C517 C533 1.411 . S
C518 C516 1.403 . S
C518 C519 1.489 . S
C518 C532 1.411 . S
C519 C518 1.489 . S
C519 C520 1.383 . S
C519 C524 1.382 . S
C520 H497 0.950 . S
C520 C519 1.383 . S
C520 C521 1.395 . S
C521 H498 0.950 . S
C521 C520 1.395 . S
C521 C522 1.288 . S
C522 C521 1.288 . S
C522 C523 1.392 . S
C523 H499 0.951 . S
C523 C522 1.392 . S
C523 C524 1.392 . S
C524 H500 0.949 . S
C524 C519 1.382 . S
C524 C523 1.392 . S
C525 C526 1.376 . S
C525 C530 1.386 . S
C525 C531 1.483 . S
C526 H501 0.949 . S
C526 C525 1.376 . S
C526 C527 1.397 . S
C527 H502 0.950 . S
C527 C526 1.397 . S
C527 C528 1.391 . S
C528 C527 1.391 . S
C528 C529 1.405 . S
C529 H503 0.950 . S
C529 C528 1.405 . S
C529 C530 1.367 . S
C530 H504 0.950 . S
C530 C525 1.386 . S
C530 C529 1.367 . S
C531 C525 1.483 . S
C531 C532 1.382 . S
C531 C533 1.403 . S
C532 H505 0.950 . S
C532 C518 1.411 . S
C532 C531 1.382 . S
C533 C517 1.411 . S
C533 C531 1.403 . S
C533 C534 1.489 . S
C534 C533 1.489 . S
C534 C535 1.383 . S
C534 C539 1.382 . S
C535 H506 0.950 . S
C535 C534 1.383 . S
C535 C536 1.395 . S
C536 H507 0.950 . S
C536 C535 1.395 . S
C536 C537 1.288 . S
C537 C536 1.288 . S
C537 C538 1.392 . S
C538 H508 0.951 . S
C538 C537 1.392 . S
C538 C539 1.392 . S
C539 H509 0.949 . S
C539 C534 1.382 . S
C539 C538 1.392 . S
H540 C559 0.949 . S
H541 C560 0.950 . S
H542 C562 0.950 . S
H543 C563 0.950 . S
H544 C565 0.950 . S
H545 C568 0.950 . S
H546 C569 0.950 . S
H547 C571 0.951 . S
H548 C572 0.949 . S
H549 C574 0.949 . S
H550 C575 0.950 . S
H551 C577 0.950 . S
H552 C578 0.950 . S
H553 C580 0.950 . S
H554 C583 0.950 . S
H555 C584 0.950 . S
H556 C586 0.951 . S
H557 C587 0.949 . S
C558 C559 1.376 . S
C558 C563 1.386 . S
C558 C564 1.483 . S
C559 H540 0.949 . S
C559 C558 1.376 . S
C559 C560 1.397 . S
C560 H541 0.950 . S
C560 C559 1.397 . S
C560 C561 1.391 . S
C561 C560 1.391 . S
C561 C562 1.405 . S
C562 H542 0.950 . S
C562 C561 1.405 . S
C562 C563 1.367 . S
C563 H543 0.950 . S
C563 C558 1.386 . S
C563 C562 1.367 . S
C564 C558 1.483 . S
C564 C565 1.382 . S
C564 C566 1.403 . S
C565 H544 0.950 . S
C565 C564 1.382 . S
C565 C581 1.411 . S
C566 C564 1.403 . S
C566 C567 1.489 . S
C566 C580 1.411 . S
C567 C566 1.489 . S
C567 C568 1.383 . S
C567 C572 1.382 . S
C568 H545 0.950 . S
C568 C567 1.383 . S
C568 C569 1.395 . S
C569 H546 0.950 . S
C569 C568 1.395 . S
C569 C570 1.288 . S
C570 C569 1.288 . S
C570 C571 1.392 . S
C571 H547 0.951 . S
C571 C570 1.392 . S
C571 C572 1.392 . S
C572 H548 0.949 . S
C572 C567 1.382 . S
C572 C571 1.392 . S
C573 C574 1.376 . S
C573 C578 1.386 . S
C573 C579 1.483 . S
C574 H549 0.949 . S
C574 C573 1.376 . S
C574 C575 1.397 . S
C575 H550 0.950 . S
C575 C574 1.397 . S
C575 C576 1.391 . S
C576 C575 1.391 . S
C576 C577 1.405 . S
C577 H551 0.950 . S
C577 C576 1.405 . S
C577 C578 1.367 . S
C578 H552 0.950 . S
C578 C573 1.386 . S
C578 C577 1.367 . S
C579 C573 1.483 . S
C579 C580 1.382 . S
C579 C581 1.403 . S
C580 H553 0.950 . S
C580 C566 1.411 . S
C580 C579 1.382 . S
C581 C565 1.411 . S
C581 C579 1.403 . S
C581 C582 1.489 . S
C582 C581 1.489 . S
C582 C583 1.383 . S
C582 C587 1.382 . S
C583 H554 0.950 . S
C583 C582 1.383 . S
C583 C584 1.395 . S
C584 H555 0.950 . S
C584 C583 1.395 . S
C584 C585 1.288 . S
C585 C584 1.288 . S
C585 C586 1.392 . S
C586 H556 0.951 . S
C586 C585 1.392 . S
C586 C587 1.392 . S
C587 H557 0.949 . S
C587 C582 1.382 . S
C587 C586 1.392 . S
H588 C607 0.949 . S
H589 C608 0.950 . S
H590 C610 0.950 . S
H591 C611 0.950 . S
H592 C613 0.950 . S
H593 C616 0.950 . S
H594 C617 0.950 . S
H595 C619 0.951 . S
H596 C620 0.949 . S
H597 C622 0.949 . S
H598 C623 0.950 . S
H599 C625 0.950 . S
H600 C626 0.950 . S
H601 C628 0.950 . S
H602 C631 0.950 . S
H603 C632 0.950 . S
H604 C634 0.951 . S
H605 C635 0.949 . S
C606 C607 1.376 . S
C606 C611 1.386 . S
C606 C612 1.483 . S
C607 H588 0.949 . S
C607 C606 1.376 . S
C607 C608 1.397 . S
C608 H589 0.950 . S
C608 C607 1.397 . S
C608 C609 1.391 . S
C609 C608 1.391 . S
C609 C610 1.405 . S
C610 H590 0.950 . S
C610 C609 1.405 . S
C610 C611 1.367 . S
C611 H591 0.950 . S
C611 C606 1.386 . S
C611 C610 1.367 . S
C612 C606 1.483 . S
C612 C613 1.382 . S
C612 C614 1.403 . S
C613 H592 0.950 . S
C613 C612 1.382 . S
C613 C629 1.411 . S
C614 C612 1.403 . S
C614 C615 1.489 . S
C614 C628 1.411 . S
C615 C614 1.489 . S
C615 C616 1.383 . S
C615 C620 1.382 . S
C616 H593 0.950 . S
C616 C615 1.383 . S
C616 C617 1.395 . S
C617 H594 0.950 . S
C617 C616 1.395 . S
C617 C618 1.288 . S
C618 C617 1.288 . S
C618 C619 1.392 . S
C619 H595 0.951 . S
C619 C618 1.392 . S
C619 C620 1.392 . S
C620 H596 0.949 . S
C620 C615 1.382 . S
C620 C619 1.392 . S
C621 C622 1.376 . S
C621 C626 1.386 . S
C621 C627 1.483 . S
C622 H597 0.949 . S
C622 C621 1.376 . S
C622 C623 1.397 . S
C623 H598 0.950 . S
C623 C622 1.397 . S
C623 C624 1.391 . S
C624 C623 1.391 . S
C624 C625 1.405 . S
C625 H599 0.950 . S
C625 C624 1.405 . S
C625 C626 1.367 . S
C626 H600 0.950 . S
C626 C621 1.386 . S
C626 C625 1.367 . S
C627 C621 1.483 . S
C627 C628 1.382 . S
C627 C629 1.403 . S
C628 H601 0.950 . S
C628 C614 1.411 . S
C628 C627 1.382 . S
C629 C613 1.411 . S
C629 C627 1.403 . S
C629 C630 1.489 . S
C630 C629 1.489 . S
C630 C631 1.383 . S
C630 C635 1.382 . S
C631 H602 0.950 . S
C631 C630 1.383 . S
C631 C632 1.395 . S
C632 H603 0.950 . S
C632 C631 1.395 . S
C632 C633 1.288 . S
C633 C632 1.288 . S
C633 C634 1.392 . S
C634 H604 0.951 . S
C634 C633 1.392 . S
C634 C635 1.392 . S
C635 H605 0.949 . S
C635 C630 1.382 . S
C635 C634 1.392 . S
H636 C655 0.949 . S
H637 C656 0.950 . S
H638 C658 0.950 . S
H639 C659 0.950 . S
H640 C661 0.950 . S
H641 C664 0.950 . S
H642 C665 0.950 . S
H643 C667 0.951 . S
H644 C668 0.949 . S
H645 C670 0.949 . S
H646 C671 0.950 . S
H647 C673 0.950 . S
H648 C674 0.950 . S
H649 C676 0.950 . S
H650 C679 0.950 . S
H651 C680 0.950 . S
H652 C682 0.951 . S
H653 C683 0.949 . S
C654 C655 1.376 . S
C654 C659 1.386 . S
C654 C660 1.483 . S
C655 H636 0.949 . S
C655 C654 1.376 . S
C655 C656 1.397 . S
C656 H637 0.950 . S
C656 C655 1.397 . S
C656 C657 1.391 . S
C657 C656 1.391 . S
C657 C658 1.405 . S
C658 H638 0.950 . S
C658 C657 1.405 . S
C658 C659 1.367 . S
C659 H639 0.950 . S
C659 C654 1.386 . S
C659 C658 1.367 . S
C660 C654 1.483 . S
C660 C661 1.382 . S
C660 C662 1.403 . S
C661 H640 0.950 . S
C661 C660 1.382 . S
C661 C677 1.411 . S
C662 C660 1.403 . S
C662 C663 1.489 . S
C662 C676 1.411 . S
C663 C662 1.489 . S
C663 C664 1.383 . S
C663 C668 1.382 . S
C664 H641 0.950 . S
C664 C663 1.383 . S
C664 C665 1.395 . S
C665 H642 0.950 . S
C665 C664 1.395 . S
C665 C666 1.288 . S
C666 C665 1.288 . S
C666 C667 1.392 . S
C667 H643 0.951 . S
C667 C666 1.392 . S
C667 C668 1.392 . S
C668 H644 0.949 . S
C668 C663 1.382 . S
C668 C667 1.392 . S
C669 C670 1.376 . S
C669 C674 1.386 . S
C669 C675 1.483 . S
C670 H645 0.949 . S
C670 C669 1.376 . S
C670 C671 1.397 . S
C671 H646 0.950 . S
C671 C670 1.397 . S
C671 C672 1.391 . S
C672 C671 1.391 . S
C672 C673 1.405 . S
C673 H647 0.950 . S
C673 C672 1.405 . S
C673 C674 1.367 . S
C674 H648 0.950 . S
C674 C669 1.386 . S
C674 C673 1.367 . S
C675 C669 1.483 . S
C675 C676 1.382 . S
C675 C677 1.403 . S
C676 H649 0.950 . S
C676 C662 1.411 . S
C676 C675 1.382 . S
C677 C661 1.411 . S
C677 C675 1.403 . S
C677 C678 1.489 . S
C678 C677 1.489 . S
C678 C679 1.383 . S
C678 C683 1.382 . S
C679 H650 0.950 . S
C679 C678 1.383 . S
C679 C680 1.395 . S
C680 H651 0.950 . S
C680 C679 1.395 . S
C680 C681 1.288 . S
C681 C680 1.288 . S
C681 C682 1.392 . S
C682 H652 0.951 . S
C682 C681 1.392 . S
C682 C683 1.392 . S
C683 H653 0.949 . S
C683 C678 1.382 . S
C683 C682 1.392 . S
H684 C703 0.949 . S
H685 C704 0.950 . S
H686 C706 0.950 . S
H687 C707 0.950 . S
H688 C709 0.950 . S
H689 C712 0.950 . S
H690 C713 0.950 . S
H691 C715 0.951 . S
H692 C716 0.949 . S
H693 C718 0.949 . S
H694 C719 0.950 . S
H695 C721 0.950 . S
H696 C722 0.950 . S
H697 C724 0.950 . S
H698 C727 0.950 . S
H699 C728 0.950 . S
H700 C730 0.951 . S
H701 C731 0.949 . S
C702 C703 1.376 . S
C702 C707 1.386 1_655 S
C702 C708 1.483 . S
C703 H684 0.949 . S
C703 C702 1.376 . S
C703 C704 1.397 . S
C704 H685 0.950 . S
C704 C703 1.397 . S
C704 C705 1.391 . S
C705 C704 1.391 . S
C705 C706 1.405 1_655 S
C706 H686 0.950 . S
C706 C705 1.405 1_455 S
C706 C707 1.367 . S
C707 H687 0.950 . S
C707 C702 1.386 1_455 S
C707 C706 1.367 . S
C708 C702 1.483 . S
C708 C709 1.382 . S
C708 C710 1.403 1_655 S
C709 H688 0.950 . S
C709 C708 1.382 . S
C709 C725 1.411 . S
C710 C708 1.403 1_455 S
C710 C711 1.489 . S
C710 C724 1.411 . S
C711 C710 1.489 . S
C711 C712 1.383 1_455 S
C711 C716 1.382 . S
C712 H689 0.950 . S
C712 C711 1.383 1_655 S
C712 C713 1.395 . S
C713 H690 0.950 . S
C713 C712 1.395 . S
C713 C714 1.288 1_655 S
C714 C713 1.288 1_455 S
C714 C715 1.392 . S
C715 H691 0.951 . S
C715 C714 1.392 . S
C715 C716 1.392 . S
C716 H692 0.949 . S
C716 C711 1.382 . S
C716 C715 1.392 . S
C717 C718 1.376 . S
C717 C722 1.386 1_455 S
C717 C723 1.483 . S
C718 H693 0.949 . S
C718 C717 1.376 . S
C718 C719 1.397 . S
C719 H694 0.950 . S
C719 C718 1.397 . S
C719 C720 1.391 . S
C720 C719 1.391 . S
C720 C721 1.405 1_455 S
C721 H695 0.950 . S
C721 C720 1.405 1_655 S
C721 C722 1.367 . S
C722 H696 0.950 . S
C722 C717 1.386 1_655 S
C722 C721 1.367 . S
C723 C717 1.483 . S
C723 C724 1.382 . S
C723 C725 1.403 1_455 S
C724 H697 0.950 . S
C724 C710 1.411 . S
C724 C723 1.382 . S
C725 C709 1.411 . S
C725 C723 1.403 1_655 S
C725 C726 1.489 . S
C726 C725 1.489 . S
C726 C727 1.383 1_655 S
C726 C731 1.382 . S
C727 H698 0.950 . S
C727 C726 1.383 1_455 S
C727 C728 1.395 . S
C728 H699 0.950 . S
C728 C727 1.395 . S
C728 C729 1.288 1_455 S
C729 C728 1.288 1_655 S
C729 C730 1.392 . S
C730 H700 0.951 . S
C730 C729 1.392 . S
C730 C731 1.392 . S
C731 H701 0.949 . S
C731 C726 1.382 . S
C731 C730 1.392 . S
H732 C751 0.949 . S
H733 C752 0.950 . S
H734 C754 0.950 . S
H735 C755 0.950 . S
H736 C757 0.950 . S
H737 C760 0.950 . S
H738 C761 0.950 . S
H739 C763 0.951 . S
H740 C764 0.949 . S
H741 C766 0.949 . S
H742 C767 0.950 . S
H743 C769 0.950 . S
H744 C770 0.950 . S
H745 C772 0.950 . S
H746 C775 0.950 . S
H747 C776 0.950 . S
H748 C778 0.951 . S
H749 C779 0.949 . S
C750 C751 1.376 . S
C750 C755 1.386 . S
C750 C756 1.483 . S
C751 H732 0.949 . S
C751 C750 1.376 . S
C751 C752 1.397 . S
C752 H733 0.950 . S
C752 C751 1.397 . S
C752 C753 1.391 . S
C753 C752 1.391 . S
C753 C754 1.405 . S
C754 H734 0.950 . S
C754 C753 1.405 . S
C754 C755 1.367 . S
C755 H735 0.950 . S
C755 C750 1.386 . S
C755 C754 1.367 . S
C756 C750 1.483 . S
C756 C757 1.382 . S
C756 C758 1.403 . S
C757 H736 0.950 . S
C757 C756 1.382 . S
C757 C773 1.411 . S
C758 C756 1.403 . S
C758 C759 1.489 . S
C758 C772 1.411 . S
C759 C758 1.489 . S
C759 C760 1.383 . S
C759 C764 1.382 . S
C760 H737 0.950 . S
C760 C759 1.383 . S
C760 C761 1.395 . S
C761 H738 0.950 . S
C761 C760 1.395 . S
C761 C762 1.288 . S
C762 C761 1.288 . S
C762 C763 1.392 . S
C763 H739 0.951 . S
C763 C762 1.392 . S
C763 C764 1.392 . S
C764 H740 0.949 . S
C764 C759 1.382 . S
C764 C763 1.392 . S
C765 C766 1.376 . S
C765 C770 1.386 . S
C765 C771 1.483 . S
C766 H741 0.949 . S
C766 C765 1.376 . S
C766 C767 1.397 . S
C767 H742 0.950 . S
C767 C766 1.397 . S
C767 C768 1.391 . S
C768 C767 1.391 . S
C768 C769 1.405 . S
C769 H743 0.950 . S
C769 C768 1.405 . S
C769 C770 1.367 . S
C770 H744 0.950 . S
C770 C765 1.386 . S
C770 C769 1.367 . S
C771 C765 1.483 . S
C771 C772 1.382 . S
C771 C773 1.403 . S
C772 H745 0.950 . S
C772 C758 1.411 . S
C772 C771 1.382 . S
C773 C757 1.411 . S
C773 C771 1.403 . S
C773 C774 1.489 . S
C774 C773 1.489 . S
C774 C775 1.383 . S
C774 C779 1.382 . S
C775 H746 0.950 . S
C775 C774 1.383 . S
C775 C776 1.395 . S
C776 H747 0.950 . S
C776 C775 1.395 . S
C776 C777 1.288 . S
C777 C776 1.288 . S
C777 C778 1.392 . S
C778 H748 0.951 . S
C778 C777 1.392 . S
C778 C779 1.392 . S
C779 H749 0.949 . S
C779 C774 1.382 . S
C779 C778 1.392 . S
H780 C799 0.949 . S
H781 C800 0.950 . S
H782 C802 0.950 . S
H783 C803 0.950 . S
H784 C805 0.950 . S
H785 C808 0.950 . S
H786 C809 0.950 . S
H787 C811 0.951 . S
H788 C812 0.949 . S
H789 C814 0.949 . S
H790 C815 0.950 . S
H791 C817 0.950 . S
H792 C818 0.950 . S
H793 C820 0.950 . S
H794 C823 0.950 . S
H795 C824 0.950 . S
H796 C826 0.951 . S
H797 C827 0.949 . S
C798 C799 1.376 . S
C798 C803 1.386 1_545 S
C798 C804 1.483 . S
C799 H780 0.949 . S
C799 C798 1.376 . S
C799 C800 1.397 . S
C800 H781 0.950 . S
C800 C799 1.397 . S
C800 C801 1.391 . S
C801 C800 1.391 . S
C801 C802 1.405 1_545 S
C802 H782 0.950 . S
C802 C801 1.405 1_565 S
C802 C803 1.367 . S
C803 H783 0.950 . S
C803 C798 1.386 1_565 S
C803 C802 1.367 . S
C804 C798 1.483 . S
C804 C805 1.382 . S
C804 C806 1.403 1_545 S
C805 H784 0.950 . S
C805 C804 1.382 . S
C805 C821 1.411 . S
C806 C804 1.403 1_565 S
C806 C807 1.489 . S
C806 C820 1.411 . S
C807 C806 1.489 . S
C807 C808 1.383 1_565 S
C807 C812 1.382 . S
C808 H785 0.950 . S
C808 C807 1.383 1_545 S
C808 C809 1.395 . S
C809 H786 0.950 . S
C809 C808 1.395 . S
C809 C810 1.288 1_545 S
C810 C809 1.288 1_565 S
C810 C811 1.392 . S
C811 H787 0.951 . S
C811 C810 1.392 . S
C811 C812 1.392 . S
C812 H788 0.949 . S
C812 C807 1.382 . S
C812 C811 1.392 . S
C813 C814 1.376 . S
C813 C818 1.386 1_565 S
C813 C819 1.483 . S
C814 H789 0.949 . S
C814 C813 1.376 . S
C814 C815 1.397 . S
C815 H790 0.950 . S
C815 C814 1.397 . S
C815 C816 1.391 . S
C816 C815 1.391 . S
C816 C817 1.405 1_565 S
C817 H791 0.950 . S
C817 C816 1.405 1_545 S
C817 C818 1.367 . S
C818 H792 0.950 . S
C818 C813 1.386 1_545 S
C818 C817 1.367 . S
C819 C813 1.483 . S
C819 C820 1.382 . S
C819 C821 1.403 1_565 S
C820 H793 0.950 . S
C820 C806 1.411 . S
C820 C819 1.382 . S
C821 C805 1.411 . S
C821 C819 1.403 1_545 S
C821 C822 1.489 . S
C822 C821 1.489 . S
C822 C823 1.383 1_545 S
C822 C827 1.382 . S
C823 H794 0.950 . S
C823 C822 1.383 1_565 S
C823 C824 1.395 . S
C824 H795 0.950 . S
C824 C823 1.395 . S
C824 C825 1.288 1_565 S
C825 C824 1.288 1_545 S
C825 C826 1.392 . S
C826 H796 0.951 . S
C826 C825 1.392 . S
C826 C827 1.392 . S
C827 H797 0.949 . S
C827 C822 1.382 . S
C827 C826 1.392 . S
H828 C847 0.949 . S
H829 C848 0.950 . S
H830 C850 0.950 . S
H831 C851 0.950 . S
H832 C853 0.950 . S
H833 C856 0.950 . S
H834 C857 0.950 . S
H835 C859 0.951 . S
H836 C860 0.949 . S
H837 C862 0.949 . S
H838 C863 0.950 . S
H839 C865 0.950 . S
H840 C866 0.950 . S
H841 C868 0.950 . S
H842 C871 0.950 . S
H843 C872 0.950 . S
H844 C874 0.951 . S
H845 C875 0.949 . S
C846 C847 1.374 . S
C846 C851 1.387 1_545 S
C846 C852 1.506 . S
C847 H828 0.949 . S
C847 C846 1.374 . S
C847 C848 1.397 . S
C848 H829 0.950 . S
C848 C847 1.397 . S
C848 C849 1.391 1_545 S
C849 C848 1.391 1_565 S
C849 C850 1.405 . S
C850 H830 0.950 . S
C850 C849 1.405 . S
C850 C851 1.367 . S
C851 H831 0.950 . S
C851 C846 1.387 1_565 S
C851 C850 1.367 . S
C852 C846 1.506 . S
C852 C853 1.360 . S
C852 C854 1.401 1_545 S
C853 H832 0.950 . S
C853 C852 1.360 . S
C853 C869 1.411 . S
C854 C852 1.401 1_565 S
C854 C855 1.484 . S
C854 C868 1.437 . S
C855 C854 1.484 . S
C855 C856 1.342 1_565 S
C855 C860 1.404 . S
C856 H833 0.950 . S
C856 C855 1.342 1_545 S
C856 C857 1.395 . S
C857 H834 0.950 . S
C857 C856 1.395 . S
C857 C858 1.288 . S
C858 C857 1.288 . S
C858 C859 1.392 1_545 S
C859 H835 0.951 . S
C859 C858 1.392 1_565 S
C859 C860 1.392 . S
C860 H836 0.949 . S
C860 C855 1.404 . S
C860 C859 1.392 . S
C861 C862 1.374 1_545 S
C861 C866 1.387 . S
C861 C867 1.500 1_545 S
C862 H837 0.949 . S
C862 C861 1.374 1_565 S
C862 C863 1.397 . S
C863 H838 0.950 . S
C863 C862 1.397 . S
C863 C864 1.391 1_565 S
C864 C863 1.391 1_545 S
C864 C865 1.405 . S
C865 H839 0.950 . S
C865 C864 1.405 . S
C865 C866 1.367 . S
C866 H840 0.950 . S
C866 C861 1.387 . S
C866 C865 1.367 . S
C867 C861 1.500 1_565 S
C867 C868 1.365 . S
C867 C869 1.401 1_565 S
C868 H841 0.950 . S
C868 C854 1.437 . S
C868 C867 1.365 . S
C869 C853 1.411 . S
C869 C867 1.401 1_545 S
C869 C870 1.514 . S
C870 C869 1.514 . S
C870 C871 1.329 1_545 S
C870 C875 1.411 . S
C871 H842 0.950 . S
C871 C870 1.329 1_565 S
C871 C872 1.395 . S
C872 H843 0.950 . S
C872 C871 1.395 . S
C872 C873 1.288 . S
C873 C872 1.288 . S
C873 C874 1.392 1_565 S
C874 H844 0.951 . S
C874 C873 1.392 1_545 S
C874 C875 1.392 . S
C875 H845 0.949 . S
C875 C870 1.411 . S
C875 C874 1.392 . S
H876 C895 0.949 . S
H877 C896 0.950 . S
H878 C898 0.950 . S
H879 C899 0.950 . S
H880 C901 0.950 . S
H881 C904 0.950 . S
H882 C905 0.950 . S
H883 C907 0.951 . S
H884 C908 0.949 . S
H885 C910 0.949 . S
H886 C911 0.950 . S
H887 C913 0.950 . S
H888 C914 0.950 . S
H889 C916 0.950 . S
H890 C919 0.950 . S
H891 C920 0.950 . S
H892 C922 0.951 . S
H893 C923 0.949 . S
C894 C895 1.376 . S
C894 C899 1.386 1_455 S
C894 C900 1.483 . S
C895 H876 0.949 . S
C895 C894 1.376 . S
C895 C896 1.397 . S
C896 H877 0.950 . S
C896 C895 1.397 . S
C896 C897 1.391 . S
C897 C896 1.391 . S
C897 C898 1.405 1_455 S
C898 H878 0.950 . S
C898 C897 1.405 1_655 S
C898 C899 1.367 . S
C899 H879 0.950 . S
C899 C894 1.386 1_655 S
C899 C898 1.367 . S
C900 C894 1.483 . S
C900 C901 1.382 . S
C900 C902 1.403 1_455 S
C901 H880 0.950 . S
C901 C900 1.382 . S
C901 C917 1.411 . S
C902 C900 1.403 1_655 S
C902 C903 1.489 . S
C902 C916 1.411 . S
C903 C902 1.489 . S
C903 C904 1.383 1_655 S
C903 C908 1.382 . S
C904 H881 0.950 . S
C904 C903 1.383 1_455 S
C904 C905 1.395 . S
C905 H882 0.950 . S
C905 C904 1.395 . S
C905 C906 1.288 1_455 S
C906 C905 1.288 1_655 S
C906 C907 1.392 . S
C907 H883 0.951 . S
C907 C906 1.392 . S
C907 C908 1.392 . S
C908 H884 0.949 . S
C908 C903 1.382 . S
C908 C907 1.392 . S
C909 C910 1.376 . S
C909 C914 1.386 1_655 S
C909 C915 1.483 . S
C910 H885 0.949 . S
C910 C909 1.376 . S
C910 C911 1.397 . S
C911 H886 0.950 . S
C911 C910 1.397 . S
C911 C912 1.391 . S
C912 C911 1.391 . S
C912 C913 1.405 1_655 S
C913 H887 0.950 . S
C913 C912 1.405 1_455 S
C913 C914 1.367 . S
C914 H888 0.950 . S
C914 C909 1.386 1_455 S
C914 C913 1.367 . S
C915 C909 1.483 . S
C915 C916 1.382 . S
C915 C917 1.403 1_655 S
C916 H889 0.950 . S
C916 C902 1.411 . S
C916 C915 1.382 . S
C917 C901 1.411 . S
C917 C915 1.403 1_455 S
C917 C918 1.489 . S
C918 C917 1.489 . S
C918 C919 1.383 1_455 S
C918 C923 1.382 . S
C919 H890 0.950 . S
C919 C918 1.383 1_655 S
C919 C920 1.395 . S
C920 H891 0.950 . S
C920 C919 1.395 . S
C920 C921 1.288 1_655 S
C921 C920 1.288 1_455 S
C921 C922 1.392 . S
C922 H892 0.951 . S
C922 C921 1.392 . S
C922 C923 1.392 . S
C923 H893 0.949 . S
C923 C918 1.382 . S
C923 C922 1.392 . S
H924 C943 0.949 . S
H925 C944 0.950 . S
H926 C946 0.950 . S
H927 C947 0.950 . S
H928 C949 0.950 . S
H929 C952 0.950 . S
H930 C953 0.950 . S
H931 C955 0.951 . S
H932 C956 0.949 . S
H933 C958 0.949 . S
H934 C959 0.950 . S
H935 C961 0.950 . S
H936 C962 0.950 . S
H937 C964 0.950 . S
H938 C967 0.950 . S
H939 C968 0.950 . S
H940 C970 0.951 . S
H941 C971 0.949 . S
C942 C943 1.376 . S
C942 C947 1.386 . S
C942 C948 1.483 . S
C943 H924 0.949 . S
C943 C942 1.376 . S
C943 C944 1.397 . S
C944 H925 0.950 . S
C944 C943 1.397 . S
C944 C945 1.391 . S
C945 C944 1.391 . S
C945 C946 1.405 . S
C946 H926 0.950 . S
C946 C945 1.405 . S
C946 C947 1.367 . S
C947 H927 0.950 . S
C947 C942 1.386 . S
C947 C946 1.367 . S
C948 C942 1.483 . S
C948 C949 1.382 . S
C948 C950 1.403 . S
C949 H928 0.950 . S
C949 C948 1.382 . S
C949 C965 1.411 . S
C950 C948 1.403 . S
C950 C951 1.489 . S
C950 C964 1.411 . S
C951 C950 1.489 . S
C951 C952 1.383 . S
C951 C956 1.382 . S
C952 H929 0.950 . S
C952 C951 1.383 . S
C952 C953 1.395 . S
C953 H930 0.950 . S
C953 C952 1.395 . S
C953 C954 1.288 . S
C954 C953 1.288 . S
C954 C955 1.392 . S
C955 H931 0.951 . S
C955 C954 1.392 . S
C955 C956 1.392 . S
C956 H932 0.949 . S
C956 C951 1.382 . S
C956 C955 1.392 . S
C957 C958 1.376 . S
C957 C962 1.386 . S
C957 C963 1.483 . S
C958 H933 0.949 . S
C958 C957 1.376 . S
C958 C959 1.397 . S
C959 H934 0.950 . S
C959 C958 1.397 . S
C959 C960 1.391 . S
C960 C959 1.391 . S
C960 C961 1.405 . S
C961 H935 0.950 . S
C961 C960 1.405 . S
C961 C962 1.367 . S
C962 H936 0.950 . S
C962 C957 1.386 . S
C962 C961 1.367 . S
C963 C957 1.483 . S
C963 C964 1.382 . S
C963 C965 1.403 . S
C964 H937 0.950 . S
C964 C950 1.411 . S
C964 C963 1.382 . S
C965 C949 1.411 . S
C965 C963 1.403 . S
C965 C966 1.489 . S
C966 C965 1.489 . S
C966 C967 1.383 . S
C966 C971 1.382 . S
C967 H938 0.950 . S
C967 C966 1.383 . S
C967 C968 1.395 . S
C968 H939 0.950 . S
C968 C967 1.395 . S
C968 C969 1.288 . S
C969 C968 1.288 . S
C969 C970 1.392 . S
C970 H940 0.951 . S
C970 C969 1.392 . S
C970 C971 1.392 . S
C971 H941 0.949 . S
C971 C966 1.382 . S
C971 C970 1.392 . S
H972 C991 0.949 . S
H973 C992 0.950 . S
H974 C994 0.950 . S
H975 C995 0.950 . S
H976 C997 0.950 . S
H977 C1000 0.950 . S
H978 C1001 0.950 . S
H979 C1003 0.951 . S
H980 C1004 0.949 . S
H981 C1006 0.949 . S
H982 C1007 0.950 . S
H983 C1009 0.950 . S
H984 C1010 0.950 . S
H985 C1012 0.950 . S
H986 C1015 0.950 . S
H987 C1016 0.950 . S
H988 C1018 0.951 . S
H989 C1019 0.949 . S
C990 C991 1.376 . S
C990 C995 1.386 . S
C990 C996 1.483 . S
C991 H972 0.949 . S
C991 C990 1.376 . S
C991 C992 1.397 . S
C992 H973 0.950 . S
C992 C991 1.397 . S
C992 C993 1.391 . S
C993 C992 1.391 . S
C993 C994 1.405 . S
C994 H974 0.950 . S
C994 C993 1.405 . S
C994 C995 1.367 . S
C995 H975 0.950 . S
C995 C990 1.386 . S
C995 C994 1.367 . S
C996 C990 1.483 . S
C996 C997 1.382 . S
C996 C998 1.403 . S
C997 H976 0.950 . S
C997 C996 1.382 . S
C997 C1013 1.411 . S
C998 C996 1.403 . S
C998 C999 1.489 . S
C998 C1012 1.411 . S
C999 C998 1.489 . S
C999 C1000 1.383 . S
C999 C1004 1.382 . S
C1000 H977 0.950 . S
C1000 C999 1.383 . S
C1000 C1001 1.395 . S
C1001 H978 0.950 . S
C1001 C1000 1.395 . S
C1001 C1002 1.288 . S
C1002 C1001 1.288 . S
C1002 C1003 1.392 . S
C1003 H979 0.951 . S
C1003 C1002 1.392 . S
C1003 C1004 1.392 . S
C1004 H980 0.949 . S
C1004 C999 1.382 . S
C1004 C1003 1.392 . S
C1005 C1006 1.376 . S
C1005 C1010 1.386 . S
C1005 C1011 1.483 . S
C1006 H981 0.949 . S
C1006 C1005 1.376 . S
C1006 C1007 1.397 . S
C1007 H982 0.950 . S
C1007 C1006 1.397 . S
C1007 C1008 1.391 . S
C1008 C1007 1.391 . S
C1008 C1009 1.405 . S
C1009 H983 0.950 . S
C1009 C1008 1.405 . S
C1009 C1010 1.367 . S
C1010 H984 0.950 . S
C1010 C1005 1.386 . S
C1010 C1009 1.367 . S
C1011 C1005 1.483 . S
C1011 C1012 1.382 . S
C1011 C1013 1.403 . S
C1012 H985 0.950 . S
C1012 C998 1.411 . S
C1012 C1011 1.382 . S
C1013 C997 1.411 . S
C1013 C1011 1.403 . S
C1013 C1014 1.489 . S
C1014 C1013 1.489 . S
C1014 C1015 1.383 . S
C1014 C1019 1.382 . S
C1015 H986 0.950 . S
C1015 C1014 1.383 . S
C1015 C1016 1.395 . S
C1016 H987 0.950 . S
C1016 C1015 1.395 . S
C1016 C1017 1.288 . S
C1017 C1016 1.288 . S
C1017 C1018 1.392 . S
C1018 H988 0.951 . S
C1018 C1017 1.392 . S
C1018 C1019 1.392 . S
C1019 H989 0.949 . S
C1019 C1014 1.382 . S
C1019 C1018 1.392 . S
H1020 C1039 0.949 . S
H1021 C1040 0.950 . S
H1022 C1042 0.950 . S
H1023 C1043 0.950 . S
H1024 C1045 0.950 . S
H1025 C1048 0.950 . S
H1026 C1049 0.950 . S
H1027 C1051 0.951 . S
H1028 C1052 0.949 . S
H1029 C1054 0.949 . S
H1030 C1055 0.950 . S
H1031 C1057 0.950 . S
H1032 C1058 0.950 . S
H1033 C1060 0.950 . S
H1034 C1063 0.950 . S
H1035 C1064 0.950 . S
H1036 C1066 0.951 . S
H1037 C1067 0.949 . S
C1038 C1039 1.376 . S
C1038 C1043 1.386 . S
C1038 C1044 1.483 . S
C1039 H1020 0.949 . S
C1039 C1038 1.376 . S
C1039 C1040 1.397 . S
C1040 H1021 0.950 . S
C1040 C1039 1.397 . S
C1040 C1041 1.391 . S
C1041 C1040 1.391 . S
C1041 C1042 1.405 . S
C1042 H1022 0.950 . S
C1042 C1041 1.405 . S
C1042 C1043 1.367 . S
C1043 H1023 0.950 . S
C1043 C1038 1.386 . S
C1043 C1042 1.367 . S
C1044 C1038 1.483 . S
C1044 C1045 1.382 . S
C1044 C1046 1.403 . S
C1045 H1024 0.950 . S
C1045 C1044 1.382 . S
C1045 C1061 1.411 . S
C1046 C1044 1.403 . S
C1046 C1047 1.489 . S
C1046 C1060 1.411 . S
C1047 C1046 1.489 . S
C1047 C1048 1.383 . S
C1047 C1052 1.382 . S
C1048 H1025 0.950 . S
C1048 C1047 1.383 . S
C1048 C1049 1.395 . S
C1049 H1026 0.950 . S
C1049 C1048 1.395 . S
C1049 C1050 1.288 . S
C1050 C1049 1.288 . S
C1050 C1051 1.392 . S
C1051 H1027 0.951 . S
C1051 C1050 1.392 . S
C1051 C1052 1.392 . S
C1052 H1028 0.949 . S
C1052 C1047 1.382 . S
C1052 C1051 1.392 . S
C1053 C1054 1.376 . S
C1053 C1058 1.386 . S
C1053 C1059 1.483 . S
C1054 H1029 0.949 . S
C1054 C1053 1.376 . S
C1054 C1055 1.397 . S
C1055 H1030 0.950 . S
C1055 C1054 1.397 . S
C1055 C1056 1.391 . S
C1056 C1055 1.391 . S
C1056 C1057 1.405 . S
C1057 H1031 0.950 . S
C1057 C1056 1.405 . S
C1057 C1058 1.367 . S
C1058 H1032 0.950 . S
C1058 C1053 1.386 . S
C1058 C1057 1.367 . S
C1059 C1053 1.483 . S
C1059 C1060 1.382 . S
C1059 C1061 1.403 . S
C1060 H1033 0.950 . S
C1060 C1046 1.411 . S
C1060 C1059 1.382 . S
C1061 C1045 1.411 . S
C1061 C1059 1.403 . S
C1061 C1062 1.489 . S
C1062 C1061 1.489 . S
C1062 C1063 1.383 . S
C1062 C1067 1.382 . S
C1063 H1034 0.950 . S
C1063 C1062 1.383 . S
C1063 C1064 1.395 . S
C1064 H1035 0.950 . S
C1064 C1063 1.395 . S
C1064 C1065 1.288 . S
C1065 C1064 1.288 . S
C1065 C1066 1.392 . S
C1066 H1036 0.951 . S
C1066 C1065 1.392 . S
C1066 C1067 1.392 . S
C1067 H1037 0.949 . S
C1067 C1062 1.382 . S
C1067 C1066 1.392 . S
H1068 C1087 0.949 . S
H1069 C1088 0.950 . S
H1070 C1090 0.950 . S
H1071 C1091 0.950 . S
H1072 C1093 0.950 . S
H1073 C1096 0.950 . S
H1074 C1097 0.950 . S
H1075 C1099 0.951 . S
H1076 C1100 0.949 . S
H1077 C1102 0.949 . S
H1078 C1103 0.950 . S
H1079 C1105 0.950 . S
H1080 C1106 0.950 . S
H1081 C1108 0.950 . S
H1082 C1111 0.950 . S
H1083 C1112 0.950 . S
H1084 C1114 0.951 . S
H1085 C1115 0.949 . S
C1086 C1087 1.376 . S
C1086 C1091 1.386 . S
C1086 C1092 1.483 . S
C1087 H1068 0.949 . S
C1087 C1086 1.376 . S
C1087 C1088 1.397 . S
C1088 H1069 0.950 . S
C1088 C1087 1.397 . S
C1088 C1089 1.391 . S
C1089 C1088 1.391 . S
C1089 C1090 1.405 . S
C1090 H1070 0.950 . S
C1090 C1089 1.405 . S
C1090 C1091 1.367 . S
C1091 H1071 0.950 . S
C1091 C1086 1.386 . S
C1091 C1090 1.367 . S
C1092 C1086 1.483 . S
C1092 C1093 1.382 . S
C1092 C1094 1.403 . S
C1093 H1072 0.950 . S
C1093 C1092 1.382 . S
C1093 C1109 1.411 . S
C1094 C1092 1.403 . S
C1094 C1095 1.489 . S
C1094 C1108 1.411 . S
C1095 C1094 1.489 . S
C1095 C1096 1.383 . S
C1095 C1100 1.382 . S
C1096 H1073 0.950 . S
C1096 C1095 1.383 . S
C1096 C1097 1.395 . S
C1097 H1074 0.950 . S
C1097 C1096 1.395 . S
C1097 C1098 1.288 . S
C1098 C1097 1.288 . S
C1098 C1099 1.392 . S
C1099 H1075 0.951 . S
C1099 C1098 1.392 . S
C1099 C1100 1.392 . S
C1100 H1076 0.949 . S
C1100 C1095 1.382 . S
C1100 C1099 1.392 . S
C1101 C1102 1.376 . S
C1101 C1106 1.386 . S
C1101 C1107 1.483 . S
C1102 H1077 0.949 . S
C1102 C1101 1.376 . S
C1102 C1103 1.397 . S
C1103 H1078 0.950 . S
C1103 C1102 1.397 . S
C1103 C1104 1.391 . S
C1104 C1103 1.391 . S
C1104 C1105 1.405 . S
C1105 H1079 0.950 . S
C1105 C1104 1.405 . S
C1105 C1106 1.367 . S
C1106 H1080 0.950 . S
C1106 C1101 1.386 . S
C1106 C1105 1.367 . S
C1107 C1101 1.483 . S
C1107 C1108 1.382 . S
C1107 C1109 1.403 . S
C1108 H1081 0.950 . S
C1108 C1094 1.411 . S
C1108 C1107 1.382 . S
C1109 C1093 1.411 . S
C1109 C1107 1.403 . S
C1109 C1110 1.489 . S
C1110 C1109 1.489 . S
C1110 C1111 1.383 . S
C1110 C1115 1.382 . S
C1111 H1082 0.950 . S
C1111 C1110 1.383 . S
C1111 C1112 1.395 . S
C1112 H1083 0.950 . S
C1112 C1111 1.395 . S
C1112 C1113 1.288 . S
C1113 C1112 1.288 . S
C1113 C1114 1.392 . S
C1114 H1084 0.951 . S
C1114 C1113 1.392 . S
C1114 C1115 1.392 . S
C1115 H1085 0.949 . S
C1115 C1110 1.382 . S
C1115 C1114 1.392 . S
C1116 C1117 1.369 1_455 S
C1116 C1118 1.419 . S
C1116 H1120 0.930 . S
C1117 C1116 1.369 1_655 S
C1117 C1126 1.429 . S
C1118 C1116 1.419 . S
C1118 C1119 1.363 1_455 S
C1118 H1121 0.929 . S
C1119 C1118 1.363 1_655 S
C1119 C1125 1.428 . S
H1120 C1116 0.930 . S
H1121 C1118 0.929 . S
S1122 N1123 1.613 . S
S1122 N1124 1.610 . S
N1123 S1122 1.613 . S
N1123 C1126 1.350 . S
N1124 S1122 1.610 . S
N1124 C1125 1.351 . S
C1125 C1119 1.428 . S
C1125 N1124 1.351 . S
C1125 C1126 1.434 . S
C1126 C1117 1.429 . S
C1126 N1123 1.350 . S
C1126 C1125 1.434 . S
C1127 C1128 1.369 . S
C1127 C1129 1.419 . S
C1127 H1131 0.930 . S
C1128 C1127 1.369 . S
C1128 C1137 1.429 . S
C1129 C1127 1.419 . S
C1129 C1130 1.363 . S
C1129 H1132 0.929 . S
C1130 C1129 1.363 . S
C1130 C1136 1.428 . S
H1131 C1127 0.930 . S
H1132 C1129 0.929 . S
S1133 N1134 1.613 . S
S1133 N1135 1.610 . S
N1134 S1133 1.613 . S
N1134 C1137 1.350 . S
N1135 S1133 1.610 . S
N1135 C1136 1.351 . S
C1136 C1130 1.428 . S
C1136 N1135 1.351 . S
C1136 C1137 1.434 . S
C1137 C1128 1.429 . S
C1137 N1134 1.350 . S
C1137 C1136 1.434 . S
C1138 C1139 1.369 1_565 S
C1138 C1140 1.419 . S
C1138 H1142 0.930 . S
C1139 C1138 1.369 1_545 S
C1139 C1148 1.429 . S
C1140 C1138 1.419 . S
C1140 C1141 1.363 1_565 S
C1140 H1143 0.929 . S
C1141 C1140 1.363 1_545 S
C1141 C1147 1.428 . S
H1142 C1138 0.930 . S
H1143 C1140 0.929 . S
S1144 N1145 1.613 . S
S1144 N1146 1.610 . S
N1145 S1144 1.613 . S
N1145 C1148 1.350 . S
N1146 S1144 1.610 . S
N1146 C1147 1.351 . S
C1147 C1141 1.428 . S
C1147 N1146 1.351 . S
C1147 C1148 1.434 . S
C1148 C1139 1.429 . S
C1148 N1145 1.350 . S
C1148 C1147 1.434 . S
C1149 C1150 1.369 . S
C1149 C1151 1.419 . S
C1149 H1153 0.930 . S
C1150 C1149 1.369 . S
C1150 C1159 1.429 1_565 S
C1151 C1149 1.419 . S
C1151 C1152 1.363 . S
C1151 H1154 0.929 . S
C1152 C1151 1.363 . S
C1152 C1158 1.428 1_565 S
H1153 C1149 0.930 . S
H1154 C1151 0.929 . S
S1155 N1156 1.613 . S
S1155 N1157 1.610 . S
N1156 S1155 1.613 . S
N1156 C1159 1.350 . S
N1157 S1155 1.610 . S
N1157 C1158 1.351 . S
C1158 C1152 1.428 1_545 S
C1158 N1157 1.351 . S
C1158 C1159 1.434 . S
C1159 C1150 1.429 1_545 S
C1159 N1156 1.350 . S
C1159 C1158 1.434 . S
C1160 C1161 1.369 . S
C1160 C1162 1.419 . S
C1160 H1164 0.930 . S
C1161 C1160 1.369 . S
C1161 C1170 1.429 1_455 S
C1162 C1160 1.419 . S
C1162 C1163 1.363 . S
C1162 H1165 0.929 . S
C1163 C1162 1.363 . S
C1163 C1169 1.428 1_455 S
H1164 C1160 0.930 . S
H1165 C1162 0.929 . S
S1166 N1167 1.613 . S
S1166 N1168 1.610 . S
N1167 S1166 1.613 . S
N1167 C1170 1.350 . S
N1168 S1166 1.610 . S
N1168 C1169 1.351 . S
C1169 C1163 1.428 1_655 S
C1169 N1168 1.351 . S
C1169 C1170 1.434 . S
C1170 C1161 1.429 1_655 S
C1170 N1167 1.350 . S
C1170 C1169 1.434 . S
C1171 C1172 1.369 . S
C1171 C1173 1.419 . S
C1171 H1175 0.930 . S
C1172 C1171 1.369 . S
C1172 C1181 1.429 . S
C1173 C1171 1.419 . S
C1173 C1174 1.363 . S
C1173 H1176 0.929 . S
C1174 C1173 1.363 . S
C1174 C1180 1.428 . S
H1175 C1171 0.930 . S
H1176 C1173 0.929 . S
S1177 N1178 1.613 . S
S1177 N1179 1.610 . S
N1178 S1177 1.613 . S
N1178 C1181 1.350 . S
N1179 S1177 1.610 . S
N1179 C1180 1.351 . S
C1180 C1174 1.428 . S
C1180 N1179 1.351 . S
C1180 C1181 1.434 . S
C1181 C1172 1.429 . S
C1181 N1178 1.350 . S
C1181 C1180 1.434 . S
C1182 C1183 1.369 . S
C1182 C1184 1.419 . S
C1182 H1186 0.930 . S
C1183 C1182 1.369 . S
C1183 C1192 1.429 . S
C1184 C1182 1.419 . S
C1184 C1185 1.363 . S
C1184 H1187 0.929 . S
C1185 C1184 1.363 . S
C1185 C1191 1.417 1_455 S
H1186 C1182 0.930 . S
H1187 C1184 0.929 . S
S1188 N1189 1.613 . S
S1188 N1190 1.610 . S
N1189 S1188 1.613 . S
N1189 C1192 1.350 1_655 S
N1190 S1188 1.610 . S
N1190 C1191 1.359 . S
C1191 C1185 1.417 1_655 S
C1191 N1190 1.359 . S
C1191 C1192 1.439 1_655 S
C1192 C1183 1.429 . S
C1192 N1189 1.350 1_455 S
C1192 C1191 1.439 1_455 S
C1193 C1194 1.369 . S
C1193 C1195 1.419 . S
C1193 H1197 0.930 . S
C1194 C1193 1.369 . S
C1194 C1203 1.429 . S
C1195 C1193 1.419 . S
C1195 C1196 1.363 . S
C1195 H1198 0.929 . S
C1196 C1195 1.363 . S
C1196 C1202 1.428 . S
H1197 C1193 0.930 . S
H1198 C1195 0.929 . S
S1199 N1200 1.613 . S
S1199 N1201 1.610 . S
N1200 S1199 1.613 . S
N1200 C1203 1.350 . S
N1201 S1199 1.610 . S
N1201 C1202 1.351 . S
C1202 C1196 1.428 . S
C1202 N1201 1.351 . S
C1202 C1203 1.434 . S
C1203 C1194 1.429 . S
C1203 N1200 1.350 . S
C1203 C1202 1.434 . S
C1204 C1205 1.369 . S
C1204 C1206 1.419 . S
C1204 H1208 0.930 . S
C1205 C1204 1.369 . S
C1205 C1214 1.429 . S
C1206 C1204 1.419 . S
C1206 C1207 1.363 . S
C1206 H1209 0.929 . S
C1207 C1206 1.363 . S
C1207 C1213 1.428 . S
H1208 C1204 0.930 . S
H1209 C1206 0.929 . S
S1210 N1211 1.613 1_545 S
S1210 N1212 1.610 . S
N1211 S1210 1.613 1_565 S
N1211 C1214 1.350 . S
N1212 S1210 1.610 . S
N1212 C1213 1.351 1_545 S
C1213 C1207 1.428 . S
C1213 N1212 1.351 1_565 S
C1213 C1214 1.434 . S
C1214 C1205 1.429 . S
C1214 N1211 1.350 . S
C1214 C1213 1.434 . S
C1215 C1216 1.369 1_565 S
C1215 C1217 1.419 . S
C1215 H1219 0.930 . S
C1216 C1215 1.369 1_545 S
C1216 C1225 1.429 . S
C1217 C1215 1.419 . S
C1217 C1218 1.363 1_565 S
C1217 H1220 0.929 . S
C1218 C1217 1.363 1_545 S
C1218 C1224 1.428 . S
H1219 C1215 0.930 . S
H1220 C1217 0.929 . S
S1221 N1222 1.613 . S
S1221 N1223 1.610 . S
N1222 S1221 1.613 . S
N1222 C1225 1.350 . S
N1223 S1221 1.610 . S
N1223 C1224 1.351 . S
C1224 C1218 1.428 . S
C1224 N1223 1.351 . S
C1224 C1225 1.434 . S
C1225 C1216 1.429 . S
C1225 N1222 1.350 . S
C1225 C1224 1.434 . S
C1226 C1227 1.369 1_455 S
C1226 C1228 1.419 . S
C1226 H1230 0.930 . S
C1227 C1226 1.369 1_655 S
C1227 C1236 1.429 . S
C1228 C1226 1.419 . S
C1228 C1229 1.363 1_455 S
C1228 H1231 0.929 . S
C1229 C1228 1.363 1_655 S
C1229 C1235 1.428 . S
H1230 C1226 0.930 . S
H1231 C1228 0.929 . S
S1232 N1233 1.613 . S
S1232 N1234 1.610 . S
N1233 S1232 1.613 . S
N1233 C1236 1.350 . S
N1234 S1232 1.610 . S
N1234 C1235 1.351 . S
C1235 C1229 1.428 . S
C1235 N1234 1.351 . S
C1235 C1236 1.434 . S
C1236 C1227 1.429 . S
C1236 N1233 1.350 . S
C1236 C1235 1.434 . S
C1237 C1238 1.369 . S
C1237 C1239 1.419 . S
C1237 H1241 0.930 . S
C1238 C1237 1.369 . S
C1238 C1247 1.429 . S
C1239 C1237 1.419 . S
C1239 C1240 1.363 . S
C1239 H1242 0.929 . S
C1240 C1239 1.363 . S
C1240 C1246 1.428 . S
H1241 C1237 0.930 . S
H1242 C1239 0.929 . S
S1243 N1244 1.613 . S
S1243 N1245 1.610 . S
N1244 S1243 1.613 . S
N1244 C1247 1.350 . S
N1245 S1243 1.610 . S
N1245 C1246 1.351 . S
C1246 C1240 1.428 . S
C1246 N1245 1.351 . S
C1246 C1247 1.434 . S
C1247 C1238 1.429 . S
C1247 N1244 1.350 . S
C1247 C1246 1.434 . S
C1248 C1249 1.369 . S
C1248 C1250 1.419 . S
C1248 H1252 0.930 . S
C1249 C1248 1.369 . S
C1249 C1258 1.429 . S
C1250 C1248 1.419 . S
C1250 C1251 1.363 . S
C1250 H1253 0.929 . S
C1251 C1250 1.363 . S
C1251 C1257 1.428 . S
H1252 C1248 0.930 . S
H1253 C1250 0.929 . S
S1254 N1255 1.613 . S
S1254 N1256 1.610 . S
N1255 S1254 1.613 . S
N1255 C1258 1.350 . S
N1256 S1254 1.610 . S
N1256 C1257 1.351 . S
C1257 C1251 1.428 . S
C1257 N1256 1.351 . S
C1257 C1258 1.434 . S
C1258 C1249 1.429 . S
C1258 N1255 1.350 . S
C1258 C1257 1.434 . S
C1259 C1260 1.369 . S
C1259 C1261 1.419 . S
C1259 H1263 0.930 . S
C1260 C1259 1.369 . S
C1260 C1269 1.429 . S
C1261 C1259 1.419 . S
C1261 C1262 1.363 . S
C1261 H1264 0.929 . S
C1262 C1261 1.363 . S
C1262 C1268 1.428 . S
H1263 C1259 0.930 . S
H1264 C1261 0.929 . S
S1265 N1266 1.613 . S
S1265 N1267 1.610 . S
N1266 S1265 1.613 . S
N1266 C1269 1.350 . S
N1267 S1265 1.610 . S
N1267 C1268 1.351 . S
C1268 C1262 1.428 . S
C1268 N1267 1.351 . S
C1268 C1269 1.434 . S
C1269 C1260 1.429 . S
C1269 N1266 1.350 . S
C1269 C1268 1.434 . S
C1270 C1271 1.369 . S
C1270 C1272 1.419 . S
C1270 H1274 0.930 . S
C1271 C1270 1.369 . S
C1271 C1280 1.429 . S
C1272 C1270 1.419 . S
C1272 C1273 1.363 . S
C1272 H1275 0.929 . S
C1273 C1272 1.363 . S
C1273 C1279 1.428 . S
H1274 C1270 0.930 . S
H1275 C1272 0.929 . S
S1276 N1277 1.613 . S
S1276 N1278 1.610 . S
N1277 S1276 1.613 . S
N1277 C1280 1.350 . S
N1278 S1276 1.610 . S
N1278 C1279 1.351 . S
C1279 C1273 1.428 . S
C1279 N1278 1.351 . S
C1279 C1280 1.434 . S
C1280 C1271 1.429 . S
C1280 N1277 1.350 . S
C1280 C1279 1.434 . S
C1281 C1282 1.369 . S
C1281 C1283 1.419 . S
C1281 H1285 0.930 . S
C1282 C1281 1.369 . S
C1282 C1291 1.429 . S
C1283 C1281 1.419 . S
C1283 C1284 1.363 . S
C1283 H1286 0.929 . S
C1284 C1283 1.363 . S
C1284 C1290 1.428 . S
H1285 C1281 0.930 . S
H1286 C1283 0.929 . S
S1287 N1288 1.613 . S
S1287 N1289 1.610 . S
N1288 S1287 1.613 . S
N1288 C1291 1.350 . S
N1289 S1287 1.610 . S
N1289 C1290 1.351 . S
C1290 C1284 1.428 . S
C1290 N1289 1.351 . S
C1290 C1291 1.434 . S
C1291 C1282 1.429 . S
C1291 N1288 1.350 . S
C1291 C1290 1.434 . S
C1292 C1293 1.369 . S
C1292 C1294 1.419 . S
C1292 H1296 0.930 . S
C1293 C1292 1.369 . S
C1293 C1302 1.429 . S
C1294 C1292 1.419 . S
C1294 C1295 1.363 . S
C1294 H1297 0.929 . S
C1295 C1294 1.363 . S
C1295 C1301 1.428 . S
H1296 C1292 0.930 . S
H1297 C1294 0.929 . S
S1298 N1299 1.613 . S
S1298 N1300 1.610 . S
N1299 S1298 1.613 . S
N1299 C1302 1.350 . S
N1300 S1298 1.610 . S
N1300 C1301 1.351 . S
C1301 C1295 1.428 . S
C1301 N1300 1.351 . S
C1301 C1302 1.434 . S
C1302 C1293 1.429 . S
C1302 N1299 1.350 . S
C1302 C1301 1.434 . S
C1303 C1304 1.369 . S
C1303 C1305 1.419 . S
C1303 H1307 0.930 . S
C1304 C1303 1.369 . S
C1304 C1313 1.429 . S
C1305 C1303 1.419 . S
C1305 C1306 1.363 . S
C1305 H1308 0.929 . S
C1306 C1305 1.363 . S
C1306 C1312 1.428 . S
H1307 C1303 0.930 . S
H1308 C1305 0.929 . S
S1309 N1310 1.613 . S
S1309 N1311 1.610 . S
N1310 S1309 1.613 . S
N1310 C1313 1.350 . S
N1311 S1309 1.610 . S
N1311 C1312 1.351 . S
C1312 C1306 1.428 . S
C1312 N1311 1.351 . S
C1312 C1313 1.434 . S
C1313 C1304 1.429 . S
C1313 N1310 1.350 . S
C1313 C1312 1.434 . S
C1314 C1315 1.369 . S
C1314 C1316 1.419 . S
C1314 H1318 0.930 . S
C1315 C1314 1.369 . S
C1315 C1324 1.429 . S
C1316 C1314 1.419 . S
C1316 C1317 1.363 . S
C1316 H1319 0.929 . S
C1317 C1316 1.363 . S
C1317 C1323 1.428 . S
H1318 C1314 0.930 . S
H1319 C1316 0.929 . S
S1320 N1321 1.613 . S
S1320 N1322 1.610 . S
N1321 S1320 1.613 . S
N1321 C1324 1.350 . S
N1322 S1320 1.610 . S
N1322 C1323 1.351 . S
C1323 C1317 1.428 . S
C1323 N1322 1.351 . S
C1323 C1324 1.434 . S
C1324 C1315 1.429 . S
C1324 N1321 1.350 . S
C1324 C1323 1.434 . S
C1325 C1326 1.369 . S
C1325 C1327 1.419 . S
C1325 H1329 0.930 . S
C1326 C1325 1.369 . S
C1326 C1335 1.429 . S
C1327 C1325 1.419 . S
C1327 C1328 1.363 . S
C1327 H1330 0.929 . S
C1328 C1327 1.363 . S
C1328 C1334 1.428 . S
H1329 C1325 0.930 . S
H1330 C1327 0.929 . S
S1331 N1332 1.613 . S
S1331 N1333 1.610 . S
N1332 S1331 1.613 . S
N1332 C1335 1.350 . S
N1333 S1331 1.610 . S
N1333 C1334 1.351 . S
C1334 C1328 1.428 . S
C1334 N1333 1.351 . S
C1334 C1335 1.434 . S
C1335 C1326 1.429 . S
C1335 N1332 1.350 . S
C1335 C1334 1.434 . S
C1336 C1337 1.369 . S
C1336 C1338 1.419 . S
C1336 H1340 0.930 . S
C1337 C1336 1.369 . S
C1337 C1346 1.429 . S
C1338 C1336 1.419 . S
C1338 C1339 1.363 . S
C1338 H1341 0.929 . S
C1339 C1338 1.363 . S
C1339 C1345 1.428 . S
H1340 C1336 0.930 . S
H1341 C1338 0.929 . S
S1342 N1343 1.613 . S
S1342 N1344 1.610 . S
N1343 S1342 1.613 . S
N1343 C1346 1.350 . S
N1344 S1342 1.610 . S
N1344 C1345 1.351 . S
C1345 C1339 1.428 . S
C1345 N1344 1.351 . S
C1345 C1346 1.434 . S
C1346 C1337 1.429 . S
C1346 N1343 1.350 . S
C1346 C1345 1.434 . S
C1347 C1348 1.369 . S
C1347 C1349 1.419 . S
C1347 H1351 0.930 . S
C1348 C1347 1.369 . S
C1348 C1357 1.429 . S
C1349 C1347 1.419 . S
C1349 C1350 1.363 . S
C1349 H1352 0.929 . S
C1350 C1349 1.363 . S
C1350 C1356 1.428 . S
H1351 C1347 0.930 . S
H1352 C1349 0.929 . S
S1353 N1354 1.613 . S
S1353 N1355 1.610 . S
N1354 S1353 1.613 . S
N1354 C1357 1.350 . S
N1355 S1353 1.610 . S
N1355 C1356 1.351 . S
C1356 C1350 1.428 . S
C1356 N1355 1.351 . S
C1356 C1357 1.434 . S
C1357 C1348 1.429 . S
C1357 N1354 1.350 . S
C1357 C1356 1.434 . S
C1358 C1359 1.369 . S
C1358 C1360 1.419 . S
C1358 H1362 0.930 . S
C1359 C1358 1.369 . S
C1359 C1368 1.429 . S
C1360 C1358 1.419 . S
C1360 C1361 1.363 . S
C1360 H1363 0.929 . S
C1361 C1360 1.363 . S
C1361 C1367 1.428 . S
H1362 C1358 0.930 . S
H1363 C1360 0.929 . S
S1364 N1365 1.613 . S
S1364 N1366 1.610 . S
N1365 S1364 1.613 . S
N1365 C1368 1.350 . S
N1366 S1364 1.610 . S
N1366 C1367 1.351 . S
C1367 C1361 1.428 . S
C1367 N1366 1.351 . S
C1367 C1368 1.434 . S
C1368 C1359 1.429 . S
C1368 N1365 1.350 . S
C1368 C1367 1.434 . S
C1369 C1370 1.369 . S
C1369 C1371 1.419 . S
C1369 H1373 0.930 . S
C1370 C1369 1.369 . S
C1370 C1379 1.429 . S
C1371 C1369 1.419 . S
C1371 C1372 1.363 . S
C1371 H1374 0.929 . S
C1372 C1371 1.363 . S
C1372 C1378 1.428 . S
H1373 C1369 0.930 . S
H1374 C1371 0.929 . S
S1375 N1376 1.613 . S
S1375 N1377 1.610 . S
N1376 S1375 1.613 . S
N1376 C1379 1.350 . S
N1377 S1375 1.610 . S
N1377 C1378 1.351 . S
C1378 C1372 1.428 . S
C1378 N1377 1.351 . S
C1378 C1379 1.434 . S
C1379 C1370 1.429 . S
C1379 N1376 1.350 . S
C1379 C1378 1.434 . S
C1380 C1381 1.369 . S
C1380 C1382 1.419 . S
C1380 H1384 0.930 . S
C1381 C1380 1.369 . S
C1381 C1390 1.429 . S
C1382 C1380 1.419 . S
C1382 C1383 1.363 . S
C1382 H1385 0.929 . S
C1383 C1382 1.363 . S
C1383 C1389 1.428 . S
H1384 C1380 0.930 . S
H1385 C1382 0.929 . S
S1386 N1387 1.613 . S
S1386 N1388 1.610 . S
N1387 S1386 1.613 . S
N1387 C1390 1.350 . S
N1388 S1386 1.610 . S
N1388 C1389 1.351 . S
C1389 C1383 1.428 . S
C1389 N1388 1.351 . S
C1389 C1390 1.434 . S
C1390 C1381 1.429 . S
C1390 N1387 1.350 . S
C1390 C1389 1.434 . S
C1391 C1392 1.369 . S
C1391 C1393 1.419 . S
C1391 H1395 0.930 . S
C1392 C1391 1.369 . S
C1392 C1401 1.429 . S
C1393 C1391 1.419 . S
C1393 C1394 1.363 . S
C1393 H1396 0.929 . S
C1394 C1393 1.363 . S
C1394 C1400 1.428 . S
H1395 C1391 0.930 . S
H1396 C1393 0.929 . S
S1397 N1398 1.613 . S
S1397 N1399 1.610 . S
N1398 S1397 1.613 . S
N1398 C1401 1.350 . S
N1399 S1397 1.610 . S
N1399 C1400 1.351 . S
C1400 C1394 1.428 . S
C1400 N1399 1.351 . S
C1400 C1401 1.434 . S
C1401 C1392 1.429 . S
C1401 N1398 1.350 . S
C1401 C1400 1.434 . S
C1402 C1403 1.369 . S
C1402 C1404 1.419 . S
C1402 H1406 0.930 . S
C1403 C1402 1.369 . S
C1403 C1412 1.429 . S
C1404 C1402 1.419 . S
C1404 C1405 1.363 . S
C1404 H1407 0.929 . S
C1405 C1404 1.363 . S
C1405 C1411 1.428 . S
H1406 C1402 0.930 . S
H1407 C1404 0.929 . S
S1408 N1409 1.613 . S
S1408 N1410 1.610 . S
N1409 S1408 1.613 . S
N1409 C1412 1.350 . S
N1410 S1408 1.610 . S
N1410 C1411 1.351 . S
C1411 C1405 1.428 . S
C1411 N1410 1.351 . S
C1411 C1412 1.434 . S
C1412 C1403 1.429 . S
C1412 N1409 1.350 . S
C1412 C1411 1.434 . S
C1413 C1414 1.369 . S
C1413 C1415 1.419 . S
C1413 H1417 0.930 . S
C1414 C1413 1.369 . S
C1414 C1423 1.429 . S
C1415 C1413 1.419 . S
C1415 C1416 1.363 . S
C1415 H1418 0.929 . S
C1416 C1415 1.363 . S
C1416 C1422 1.428 . S
H1417 C1413 0.930 . S
H1418 C1415 0.929 . S
S1419 N1420 1.613 . S
S1419 N1421 1.610 . S
N1420 S1419 1.613 . S
N1420 C1423 1.350 . S
N1421 S1419 1.610 . S
N1421 C1422 1.351 . S
C1422 C1416 1.428 . S
C1422 N1421 1.351 . S
C1422 C1423 1.434 . S
C1423 C1414 1.429 . S
C1423 N1420 1.350 . S
C1423 C1422 1.434 . S
C1424 C1425 1.369 . S
C1424 C1426 1.419 . S
C1424 H1428 0.930 . S
C1425 C1424 1.369 . S
C1425 C1434 1.429 . S
C1426 C1424 1.419 . S
C1426 C1427 1.363 . S
C1426 H1429 0.929 . S
C1427 C1426 1.363 . S
C1427 C1433 1.428 . S
H1428 C1424 0.930 . S
H1429 C1426 0.929 . S
S1430 N1431 1.613 . S
S1430 N1432 1.610 . S
N1431 S1430 1.613 . S
N1431 C1434 1.350 . S
N1432 S1430 1.610 . S
N1432 C1433 1.351 . S
C1433 C1427 1.428 . S
C1433 N1432 1.351 . S
C1433 C1434 1.434 . S
C1434 C1425 1.429 . S
C1434 N1431 1.350 . S
C1434 C1433 1.434 . S
C1435 C1436 1.369 . S
C1435 C1437 1.419 . S
C1435 H1439 0.930 . S
C1436 C1435 1.369 . S
C1436 C1445 1.429 . S
C1437 C1435 1.419 . S
C1437 C1438 1.363 . S
C1437 H1440 0.929 . S
C1438 C1437 1.363 . S
C1438 C1444 1.428 . S
H1439 C1435 0.930 . S
H1440 C1437 0.929 . S
S1441 N1442 1.613 . S
S1441 N1443 1.610 . S
N1442 S1441 1.613 . S
N1442 C1445 1.350 . S
N1443 S1441 1.610 . S
N1443 C1444 1.351 . S
C1444 C1438 1.428 . S
C1444 N1443 1.351 . S
C1444 C1445 1.434 . S
C1445 C1436 1.429 . S
C1445 N1442 1.350 . S
C1445 C1444 1.434 . S
C1446 C1447 1.369 . S
C1446 C1448 1.419 . S
C1446 H1450 0.930 . S
C1447 C1446 1.369 . S
C1447 C1456 1.429 . S
C1448 C1446 1.419 . S
C1448 C1449 1.363 . S
C1448 H1451 0.929 . S
C1449 C1448 1.363 . S
C1449 C1455 1.428 . S
H1450 C1446 0.930 . S
H1451 C1448 0.929 . S
S1452 N1453 1.613 . S
S1452 N1454 1.610 . S
N1453 S1452 1.613 . S
N1453 C1456 1.350 . S
N1454 S1452 1.610 . S
N1454 C1455 1.351 . S
C1455 C1449 1.428 . S
C1455 N1454 1.351 . S
C1455 C1456 1.434 . S
C1456 C1447 1.429 . S
C1456 N1453 1.350 . S
C1456 C1455 1.434 . S
C1457 C1458 1.369 . S
C1457 C1459 1.419 . S
C1457 H1461 0.930 . S
C1458 C1457 1.369 . S
C1458 C1467 1.429 . S
C1459 C1457 1.419 . S
C1459 C1460 1.363 . S
C1459 H1462 0.929 . S
C1460 C1459 1.363 . S
C1460 C1466 1.428 . S
H1461 C1457 0.930 . S
H1462 C1459 0.929 . S
S1463 N1464 1.613 . S
S1463 N1465 1.610 . S
N1464 S1463 1.613 . S
N1464 C1467 1.350 . S
N1465 S1463 1.610 . S
N1465 C1466 1.351 . S
C1466 C1460 1.428 . S
C1466 N1465 1.351 . S
C1466 C1467 1.434 . S
C1467 C1458 1.429 . S
C1467 N1464 1.350 . S
C1467 C1466 1.434 . S
C1468 C1469 1.369 . S
C1468 C1470 1.419 . S
C1468 H1472 0.930 . S
C1469 C1468 1.369 . S
C1469 C1478 1.429 . S
C1470 C1468 1.419 . S
C1470 C1471 1.363 . S
C1470 H1473 0.929 . S
C1471 C1470 1.363 . S
C1471 C1477 1.428 . S
H1472 C1468 0.930 . S
H1473 C1470 0.929 . S
S1474 N1475 1.613 . S
S1474 N1476 1.610 . S
N1475 S1474 1.613 . S
N1475 C1478 1.350 . S
N1476 S1474 1.610 . S
N1476 C1477 1.351 . S
C1477 C1471 1.428 . S
C1477 N1476 1.351 . S
C1477 C1478 1.434 . S
C1478 C1469 1.429 . S
C1478 N1475 1.350 . S
C1478 C1477 1.434 . S
C1479 C1480 1.369 . S
C1479 C1481 1.419 . S
C1479 H1483 0.930 . S
C1480 C1479 1.369 . S
C1480 C1489 1.429 . S
C1481 C1479 1.419 . S
C1481 C1482 1.363 . S
C1481 H1484 0.929 . S
C1482 C1481 1.363 . S
C1482 C1488 1.428 . S
H1483 C1479 0.930 . S
H1484 C1481 0.929 . S
S1485 N1486 1.613 . S
S1485 N1487 1.610 . S
N1486 S1485 1.613 . S
N1486 C1489 1.350 . S
N1487 S1485 1.610 . S
N1487 C1488 1.351 . S
C1488 C1482 1.428 . S
C1488 N1487 1.351 . S
C1488 C1489 1.434 . S
C1489 C1480 1.429 . S
C1489 N1486 1.350 . S
C1489 C1488 1.434 . S
C1490 C1491 1.369 . S
C1490 C1492 1.419 . S
C1490 H1494 0.930 . S
C1491 C1490 1.369 . S
C1491 C1500 1.429 . S
C1492 C1490 1.419 . S
C1492 C1493 1.363 . S
C1492 H1495 0.929 . S
C1493 C1492 1.363 . S
C1493 C1499 1.428 . S
H1494 C1490 0.930 . S
H1495 C1492 0.929 . S
S1496 N1497 1.613 . S
S1496 N1498 1.610 . S
N1497 S1496 1.613 . S
N1497 C1500 1.350 . S
N1498 S1496 1.610 . S
N1498 C1499 1.351 . S
C1499 C1493 1.428 . S
C1499 N1498 1.351 . S
C1499 C1500 1.434 . S
C1500 C1491 1.429 . S
C1500 N1497 1.350 . S
C1500 C1499 1.434 . S
C1501 C1502 1.369 . S
C1501 C1503 1.419 . S
C1501 H1505 0.930 . S
C1502 C1501 1.369 . S
C1502 C1511 1.429 . S
C1503 C1501 1.419 . S
C1503 C1504 1.363 . S
C1503 H1506 0.929 . S
C1504 C1503 1.363 . S
C1504 C1510 1.428 . S
H1505 C1501 0.930 . S
H1506 C1503 0.929 . S
S1507 N1508 1.613 . S
S1507 N1509 1.610 . S
N1508 S1507 1.613 . S
N1508 C1511 1.350 . S
N1509 S1507 1.610 . S
N1509 C1510 1.351 . S
C1510 C1504 1.428 . S
C1510 N1509 1.351 . S
C1510 C1511 1.434 . S
C1511 C1502 1.429 . S
C1511 N1508 1.350 . S
C1511 C1510 1.434 . S
C1512 C1513 1.369 . S
C1512 C1514 1.419 . S
C1512 H1516 0.930 . S
C1513 C1512 1.369 . S
C1513 C1522 1.429 . S
C1514 C1512 1.419 . S
C1514 C1515 1.363 . S
C1514 H1517 0.929 . S
C1515 C1514 1.363 . S
C1515 C1521 1.428 . S
H1516 C1512 0.930 . S
H1517 C1514 0.929 . S
S1518 N1519 1.613 . S
S1518 N1520 1.610 . S
N1519 S1518 1.613 . S
N1519 C1522 1.350 . S
N1520 S1518 1.610 . S
N1520 C1521 1.351 . S
C1521 C1515 1.428 . S
C1521 N1520 1.351 . S
C1521 C1522 1.434 . S
C1522 C1513 1.429 . S
C1522 N1519 1.350 . S
C1522 C1521 1.434 . S
C1523 C1524 1.369 . S
C1523 C1525 1.419 . S
C1523 H1527 0.930 . S
C1524 C1523 1.369 . S
C1524 C1533 1.429 . S
C1525 C1523 1.419 . S
C1525 C1526 1.363 . S
C1525 H1528 0.929 . S
C1526 C1525 1.363 . S
C1526 C1532 1.428 . S
H1527 C1523 0.930 . S
H1528 C1525 0.929 . S
S1529 N1530 1.613 . S
S1529 N1531 1.610 . S
N1530 S1529 1.613 . S
N1530 C1533 1.350 . S
N1531 S1529 1.610 . S
N1531 C1532 1.351 . S
C1532 C1526 1.428 . S
C1532 N1531 1.351 . S
C1532 C1533 1.434 . S
C1533 C1524 1.429 . S
C1533 N1530 1.350 . S
C1533 C1532 1.434 . S
C1534 C1535 1.369 . S
C1534 C1536 1.419 . S
C1534 H1538 0.930 . S
C1535 C1534 1.369 . S
C1535 C1544 1.429 . S
C1536 C1534 1.419 . S
C1536 C1537 1.363 . S
C1536 H1539 0.929 . S
C1537 C1536 1.363 . S
C1537 C1543 1.428 . S
H1538 C1534 0.930 . S
H1539 C1536 0.929 . S
S1540 N1541 1.613 1_556 S
S1540 N1542 1.610 1_556 S
N1541 S1540 1.613 1_554 S
N1541 C1544 1.350 . S
N1542 S1540 1.610 1_554 S
N1542 C1543 1.351 . S
C1543 C1537 1.428 . S
C1543 N1542 1.351 . S
C1543 C1544 1.434 . S
C1544 C1535 1.429 . S
C1544 N1541 1.350 . S
C1544 C1543 1.434 . S
C1545 C1546 1.369 . S
C1545 C1547 1.419 . S
C1545 H1549 0.930 1_556 S
C1546 C1545 1.369 . S
C1546 C1555 1.429 . S
C1547 C1545 1.419 . S
C1547 C1548 1.363 . S
C1547 H1550 0.929 . S
C1548 C1547 1.363 . S
C1548 C1554 1.428 . S
H1549 C1545 0.930 1_554 S
H1550 C1547 0.929 . S
S1551 N1552 1.613 . S
S1551 N1553 1.610 . S
N1552 S1551 1.613 . S
N1552 C1555 1.350 . S
N1553 S1551 1.610 . S
N1553 C1554 1.351 . S
C1554 C1548 1.428 . S
C1554 N1553 1.351 . S
C1554 C1555 1.434 . S
C1555 C1546 1.429 . S
C1555 N1552 1.350 . S
C1555 C1554 1.434 . S
C1556 C1557 1.369 . S
C1556 C1558 1.419 . S
C1556 H1560 0.930 . S
C1557 C1556 1.369 . S
C1557 C1566 1.429 . S
C1558 C1556 1.419 . S
C1558 C1559 1.363 . S
C1558 H1561 0.929 . S
C1559 C1558 1.363 . S
C1559 C1565 1.428 . S
H1560 C1556 0.930 . S
H1561 C1558 0.929 . S
S1562 N1563 1.613 . S
S1562 N1564 1.610 . S
N1563 S1562 1.613 . S
N1563 C1566 1.350 1_554 S
N1564 S1562 1.610 . S
N1564 C1565 1.351 1_554 S
C1565 C1559 1.428 . S
C1565 N1564 1.351 1_556 S
C1565 C1566 1.434 . S
C1566 C1557 1.429 . S
C1566 N1563 1.350 1_556 S
C1566 C1565 1.434 . S
C1567 C1568 1.369 . S
C1567 C1569 1.419 . S
C1567 H1571 0.930 1_556 S
C1568 C1567 1.369 . S
C1568 C1577 1.429 . S
C1569 C1567 1.419 . S
C1569 C1570 1.363 . S
C1569 H1572 0.929 . S
C1570 C1569 1.363 . S
C1570 C1576 1.428 . S
H1571 C1567 0.930 1_554 S
H1572 C1569 0.929 . S
S1573 N1574 1.613 . S
S1573 N1575 1.610 . S
N1574 S1573 1.613 . S
N1574 C1577 1.350 . S
N1575 S1573 1.610 . S
N1575 C1576 1.351 . S
C1576 C1570 1.428 . S
C1576 N1575 1.351 . S
C1576 C1577 1.434 . S
C1577 C1568 1.429 . S
C1577 N1574 1.350 . S
C1577 C1576 1.434 . S
C1578 C1579 1.369 . S
C1578 C1580 1.419 . S
C1578 H1582 0.930 . S
C1579 C1578 1.369 . S
C1579 C1588 1.429 . S
C1580 C1578 1.419 . S
C1580 C1581 1.363 . S
C1580 H1583 0.929 . S
C1581 C1580 1.363 . S
C1581 C1587 1.428 . S
H1582 C1578 0.930 . S
H1583 C1580 0.929 . S
S1584 N1585 1.613 . S
S1584 N1586 1.610 1_554 S
N1585 S1584 1.613 . S
N1585 C1588 1.350 1_554 S
N1586 S1584 1.610 1_556 S
N1586 C1587 1.351 . S
C1587 C1581 1.428 . S
C1587 N1586 1.351 . S
C1587 C1588 1.434 . S
C1588 C1579 1.429 . S
C1588 N1585 1.350 1_556 S
C1588 C1587 1.434 . S
C1589 C1590 1.369 . S
C1589 C1591 1.419 . S
C1589 H1593 0.930 . S
C1590 C1589 1.369 . S
C1590 C1599 1.429 . S
C1591 C1589 1.419 . S
C1591 C1592 1.363 . S
C1591 H1594 0.929 . S
C1592 C1591 1.363 . S
C1592 C1598 1.428 . S
H1593 C1589 0.930 . S
H1594 C1591 0.929 . S
S1595 N1596 1.613 . S
S1595 N1597 1.610 . S
N1596 S1595 1.613 . S
N1596 C1599 1.350 1_554 S
N1597 S1595 1.610 . S
N1597 C1598 1.351 1_554 S
C1598 C1592 1.428 . S
C1598 N1597 1.351 1_556 S
C1598 C1599 1.434 . S
C1599 C1590 1.429 . S
C1599 N1596 1.350 1_556 S
C1599 C1598 1.434 . S
C1600 C1601 1.369 . S
C1600 C1602 1.419 . S
C1600 H1604 0.930 . S
C1601 C1600 1.369 . S
C1601 C1610 1.429 . S
C1602 C1600 1.419 . S
C1602 C1603 1.363 . S
C1602 H1605 0.929 . S
C1603 C1602 1.363 . S
C1603 C1609 1.428 . S
H1604 C1600 0.930 . S
H1605 C1602 0.929 . S
S1606 N1607 1.613 . S
S1606 N1608 1.610 . S
N1607 S1606 1.613 . S
N1607 C1610 1.350 1_554 S
N1608 S1606 1.610 . S
N1608 C1609 1.351 1_554 S
C1609 C1603 1.428 . S
C1609 N1608 1.351 1_556 S
C1609 C1610 1.434 . S
C1610 C1601 1.429 . S
C1610 N1607 1.350 1_556 S
C1610 C1609 1.434 . S
C1611 C1612 1.369 . S
C1611 C1613 1.419 . S
C1611 H1615 0.930 . S
C1612 C1611 1.369 . S
C1612 C1621 1.429 . S
C1613 C1611 1.419 . S
C1613 C1614 1.363 . S
C1613 H1616 0.929 . S
C1614 C1613 1.363 . S
C1614 C1620 1.428 . S
H1615 C1611 0.930 . S
H1616 C1613 0.929 . S
S1617 N1618 1.613 . S
S1617 N1619 1.610 . S
N1618 S1617 1.613 . S
N1618 C1621 1.350 . S
N1619 S1617 1.610 . S
N1619 C1620 1.351 . S
C1620 C1614 1.428 . S
C1620 N1619 1.351 . S
C1620 C1621 1.434 . S
C1621 C1612 1.429 . S
C1621 N1618 1.350 . S
C1621 C1620 1.434 . S
C1622 C1623 1.369 . S
C1622 C1624 1.419 . S
C1622 H1626 0.930 . S
C1623 C1622 1.369 . S
C1623 C1632 1.429 . S
C1624 C1622 1.419 . S
C1624 C1625 1.363 . S
C1624 H1627 0.929 . S
C1625 C1624 1.363 . S
C1625 C1631 1.428 . S
H1626 C1622 0.930 . S
H1627 C1624 0.929 . S
S1628 N1629 1.613 . S
S1628 N1630 1.610 . S
N1629 S1628 1.613 . S
N1629 C1632 1.350 . S
N1630 S1628 1.610 . S
N1630 C1631 1.351 . S
C1631 C1625 1.428 . S
C1631 N1630 1.351 . S
C1631 C1632 1.434 . S
C1632 C1623 1.429 . S
C1632 N1629 1.350 . S
C1632 C1631 1.434 . S
C1633 C1634 1.369 . S
C1633 C1635 1.419 . S
C1633 H1637 0.930 . S
C1634 C1633 1.369 . S
C1634 C1643 1.429 . S
C1635 C1633 1.419 . S
C1635 C1636 1.363 . S
C1635 H1638 0.929 . S
C1636 C1635 1.363 . S
C1636 C1642 1.428 . S
H1637 C1633 0.930 . S
H1638 C1635 0.929 . S
S1639 N1640 1.613 . S
S1639 N1641 1.610 1_556 S
N1640 S1639 1.613 . S
N1640 C1643 1.351 1_556 S
N1641 S1639 1.610 1_554 S
N1641 C1642 1.351 . S
C1642 C1636 1.428 . S
C1642 N1641 1.351 . S
C1642 C1643 1.434 . S
C1643 C1634 1.429 . S
C1643 N1640 1.351 1_554 S
C1643 C1642 1.434 . S
C1644 C1645 1.369 . S
C1644 C1646 1.419 . S
C1644 H1648 0.930 . S
C1645 C1644 1.369 . S
C1645 C1654 1.429 . S
C1646 C1644 1.419 . S
C1646 C1647 1.363 . S
C1646 H1649 0.929 . S
C1647 C1646 1.363 . S
C1647 C1653 1.428 . S
H1648 C1644 0.930 . S
H1649 C1646 0.929 . S
S1650 N1651 1.613 . S
S1650 N1652 1.610 . S
N1651 S1650 1.613 . S
N1651 C1654 1.350 . S
N1652 S1650 1.610 . S
N1652 C1653 1.351 . S
C1653 C1647 1.428 . S
C1653 N1652 1.351 . S
C1653 C1654 1.434 . S
C1654 C1645 1.429 . S
C1654 N1651 1.350 . S
C1654 C1653 1.434 . S
C1655 C1656 1.369 . S
C1655 C1657 1.419 . S
C1655 H1659 0.930 . S
C1656 C1655 1.369 . S
C1656 C1665 1.429 . S
C1657 C1655 1.419 . S
C1657 C1658 1.363 . S
C1657 H1660 0.929 . S
C1658 C1657 1.363 . S
C1658 C1664 1.428 . S
H1659 C1655 0.930 . S
H1660 C1657 0.929 . S
S1661 N1662 1.613 . S
S1661 N1663 1.610 . S
N1662 S1661 1.613 . S
N1662 C1665 1.350 . S
N1663 S1661 1.610 . S
N1663 C1664 1.351 . S
C1664 C1658 1.428 . S
C1664 N1663 1.351 . S
C1664 C1665 1.434 . S
C1665 C1656 1.429 . S
C1665 N1662 1.350 . S
C1665 C1664 1.434 . S
C1666 C1667 1.369 . S
C1666 C1668 1.419 . S
C1666 H1670 0.930 . S
C1667 C1666 1.369 . S
C1667 C1676 1.429 . S
C1668 C1666 1.419 . S
C1668 C1669 1.363 . S
C1668 H1671 0.929 . S
C1669 C1668 1.363 . S
C1669 C1675 1.428 . S
H1670 C1666 0.930 . S
H1671 C1668 0.929 . S
S1672 N1673 1.613 . S
S1672 N1674 1.610 . S
N1673 S1672 1.613 . S
N1673 C1676 1.350 . S
N1674 S1672 1.610 . S
N1674 C1675 1.351 . S
C1675 C1669 1.428 . S
C1675 N1674 1.351 . S
C1675 C1676 1.434 . S
C1676 C1667 1.429 . S
C1676 N1673 1.350 . S
C1676 C1675 1.434 . S
C1677 C1678 1.369 . S
C1677 C1679 1.419 . S
C1677 H1681 0.930 . S
C1678 C1677 1.369 . S
C1678 C1687 1.429 1_455 S
C1679 C1677 1.419 . S
C1679 C1680 1.363 . S
C1679 H1682 0.929 . S
C1680 C1679 1.363 . S
C1680 C1686 1.428 1_455 S
H1681 C1677 0.930 . S
H1682 C1679 0.929 . S
S1683 N1684 1.613 . S
S1683 N1685 1.610 . S
N1684 S1683 1.613 . S
N1684 C1687 1.350 . S
N1685 S1683 1.610 . S
N1685 C1686 1.351 . S
C1686 C1680 1.428 1_655 S
C1686 N1685 1.351 . S
C1686 C1687 1.434 . S
C1687 C1678 1.429 1_655 S
C1687 N1684 1.350 . S
C1687 C1686 1.434 . S
C1688 C1689 1.369 . S
C1688 C1690 1.419 . S
C1688 H1692 0.930 . S
C1689 C1688 1.369 . S
C1689 C1698 1.429 . S
C1690 C1688 1.419 . S
C1690 C1691 1.363 . S
C1690 H1693 0.929 . S
C1691 C1690 1.363 . S
C1691 C1697 1.428 . S
H1692 C1688 0.930 . S
H1693 C1690 0.929 . S
S1694 N1695 1.613 . S
S1694 N1696 1.610 . S
N1695 S1694 1.613 . S
N1695 C1698 1.350 . S
N1696 S1694 1.610 . S
N1696 C1697 1.351 . S
C1697 C1691 1.428 . S
C1697 N1696 1.351 . S
C1697 C1698 1.434 . S
C1698 C1689 1.429 . S
C1698 N1695 1.350 . S
C1698 C1697 1.434 . S
C1699 C1700 1.369 . S
C1699 C1701 1.419 . S
C1699 H1703 0.930 . S
C1700 C1699 1.369 . S
C1700 C1709 1.429 . S
C1701 C1699 1.419 . S
C1701 C1702 1.363 . S
C1701 H1704 0.929 . S
C1702 C1701 1.363 . S
C1702 C1708 1.428 . S
H1703 C1699 0.930 . S
H1704 C1701 0.929 . S
S1705 N1706 1.613 . S
S1705 N1707 1.610 . S
N1706 S1705 1.613 . S
N1706 C1709 1.350 . S
N1707 S1705 1.610 . S
N1707 C1708 1.351 . S
C1708 C1702 1.428 . S
C1708 N1707 1.351 . S
C1708 C1709 1.434 . S
C1709 C1700 1.429 . S
C1709 N1706 1.350 . S
C1709 C1708 1.434 . S
C1710 C1711 1.369 . S
C1710 C1712 1.419 . S
C1710 H1714 0.930 . S
C1711 C1710 1.369 . S
C1711 C1720 1.469 . S
C1712 C1710 1.419 . S
C1712 C1713 1.363 . S
C1712 H1715 0.929 . S
C1713 C1712 1.363 . S
C1713 C1719 1.428 1_565 S
H1714 C1710 0.930 . S
H1715 C1712 0.929 . S
S1716 N1717 1.613 . S
S1716 N1718 1.610 . S
N1717 S1716 1.613 . S
N1717 C1720 1.336 1_545 S
N1718 S1716 1.610 . S
N1718 C1719 1.351 . S
C1719 C1713 1.428 1_545 S
C1719 N1718 1.351 . S
C1719 C1720 1.406 1_545 S
C1720 C1711 1.469 . S
C1720 N1717 1.336 1_565 S
C1720 C1719 1.406 1_565 S
C1721 C1722 1.369 . S
C1721 C1723 1.419 1_455 S
C1721 H1725 0.930 1_455 S
C1722 C1721 1.369 . S
C1722 C1731 1.429 . S
C1723 C1721 1.419 1_655 S
C1723 C1724 1.363 1_655 S
C1723 H1726 0.929 . S
C1724 C1723 1.363 1_455 S
C1724 C1730 1.428 . S
H1725 C1721 0.930 1_655 S
H1726 C1723 0.929 . S
S1727 N1728 1.613 . S
S1727 N1729 1.610 . S
N1728 S1727 1.613 . S
N1728 C1731 1.350 . S
N1729 S1727 1.610 . S
N1729 C1730 1.351 . S
C1730 C1724 1.428 . S
C1730 N1729 1.351 . S
C1730 C1731 1.434 . S
C1731 C1722 1.429 . S
C1731 N1728 1.350 . S
C1731 C1730 1.434 . S
C1732 C1733 1.369 . S
C1732 C1734 1.419 . S
C1732 H1736 0.930 . S
C1733 C1732 1.369 . S
C1733 C1742 1.429 . S
C1734 C1732 1.419 . S
C1734 C1735 1.363 . S
C1734 H1737 0.929 . S
C1735 C1734 1.363 . S
C1735 C1741 1.428 . S
H1736 C1732 0.930 . S
H1737 C1734 0.929 . S
S1738 N1739 1.613 . S
S1738 N1740 1.610 . S
N1739 S1738 1.613 . S
N1739 C1742 1.350 . S
N1740 S1738 1.610 . S
N1740 C1741 1.351 . S
C1741 C1735 1.428 . S
C1741 N1740 1.351 . S
C1741 C1742 1.434 . S
C1742 C1733 1.429 . S
C1742 N1739 1.350 . S
C1742 C1741 1.434 . S
C1743 C1744 1.369 . S
C1743 C1745 1.419 . S
C1743 H1747 0.930 . S
C1744 C1743 1.369 . S
C1744 C1753 1.429 . S
C1745 C1743 1.419 . S
C1745 C1746 1.363 . S
C1745 H1748 0.929 . S
C1746 C1745 1.363 . S
C1746 C1752 1.428 . S
H1747 C1743 0.930 . S
H1748 C1745 0.929 . S
S1749 N1750 1.613 . S
S1749 N1751 1.610 . S
N1750 S1749 1.613 . S
N1750 C1753 1.350 . S
N1751 S1749 1.610 . S
N1751 C1752 1.351 . S
C1752 C1746 1.428 . S
C1752 N1751 1.351 . S
C1752 C1753 1.434 . S
C1753 C1744 1.429 . S
C1753 N1750 1.350 . S
C1753 C1752 1.434 . S
C1754 C1755 1.369 . S
C1754 C1756 1.419 . S
C1754 H1758 0.930 . S
C1755 C1754 1.369 . S
C1755 C1764 1.429 . S
C1756 C1754 1.419 . S
C1756 C1757 1.363 . S
C1756 H1759 0.929 . S
C1757 C1756 1.363 . S
C1757 C1763 1.428 . S
H1758 C1754 0.930 . S
H1759 C1756 0.929 . S
S1760 N1761 1.613 . S
S1760 N1762 1.610 . S
N1761 S1760 1.613 . S
N1761 C1764 1.350 . S
N1762 S1760 1.610 . S
N1762 C1763 1.351 . S
C1763 C1757 1.428 . S
C1763 N1762 1.351 . S
C1763 C1764 1.434 . S
C1764 C1755 1.429 . S
C1764 N1761 1.350 . S
C1764 C1763 1.434 . S
C1765 C1766 1.369 . S
C1765 C1767 1.419 . S
C1765 H1769 0.930 . S
C1766 C1765 1.369 . S
C1766 C1775 1.429 . S
C1767 C1765 1.419 . S
C1767 C1768 1.363 . S
C1767 H1770 0.929 . S
C1768 C1767 1.363 . S
C1768 C1774 1.428 . S
H1769 C1765 0.930 . S
H1770 C1767 0.929 . S
S1771 N1772 1.613 . S
S1771 N1773 1.610 . S
N1772 S1771 1.613 . S
N1772 C1775 1.350 . S
N1773 S1771 1.610 . S
N1773 C1774 1.351 . S
C1774 C1768 1.428 . S
C1774 N1773 1.351 . S
C1774 C1775 1.434 . S
C1775 C1766 1.429 . S
C1775 N1772 1.350 . S
C1775 C1774 1.434 . S
C1776 C1777 1.369 . S
C1776 C1778 1.419 . S
C1776 H1780 0.930 . S
C1777 C1776 1.369 . S
C1777 C1786 1.429 . S
C1778 C1776 1.419 . S
C1778 C1779 1.363 . S
C1778 H1781 0.929 . S
C1779 C1778 1.363 . S
C1779 C1785 1.428 1_545 S
H1780 C1776 0.930 . S
H1781 C1778 0.929 . S
S1782 N1783 1.613 . S
S1782 N1784 1.610 . S
N1783 S1782 1.613 . S
N1783 C1786 1.350 1_565 S
N1784 S1782 1.610 . S
N1784 C1785 1.351 . S
C1785 C1779 1.428 1_565 S
C1785 N1784 1.351 . S
C1785 C1786 1.434 1_565 S
C1786 C1777 1.429 . S
C1786 N1783 1.350 1_545 S
C1786 C1785 1.434 1_545 S
C1787 C1788 1.369 . S
C1787 C1789 1.419 . S
C1787 H1791 0.930 . S
C1788 C1787 1.369 . S
C1788 C1797 1.429 1_655 S
C1789 C1787 1.419 . S
C1789 C1790 1.363 . S
C1789 H1792 0.929 . S
C1790 C1789 1.363 . S
C1790 C1796 1.428 1_655 S
H1791 C1787 0.930 . S
H1792 C1789 0.929 . S
S1793 N1794 1.613 . S
S1793 N1795 1.610 . S
N1794 S1793 1.613 . S
N1794 C1797 1.350 . S
N1795 S1793 1.610 . S
N1795 C1796 1.351 . S
C1796 C1790 1.428 1_455 S
C1796 N1795 1.351 . S
C1796 C1797 1.434 . S
C1797 C1788 1.429 1_455 S
C1797 N1794 1.350 . S
C1797 C1796 1.434 . S
C1798 C1799 1.369 . S
C1798 C1800 1.419 . S
C1798 H1802 0.930 . S
C1799 C1798 1.369 . S
C1799 C1808 1.429 . S
C1800 C1798 1.419 . S
C1800 C1801 1.363 . S
C1800 H1803 0.929 . S
C1801 C1800 1.363 . S
C1801 C1807 1.428 . S
H1802 C1798 0.930 . S
H1803 C1800 0.929 . S
S1804 N1805 1.613 . S
S1804 N1806 1.610 . S
N1805 S1804 1.613 . S
N1805 C1808 1.350 . S
N1806 S1804 1.610 . S
N1806 C1807 1.351 . S
C1807 C1801 1.428 . S
C1807 N1806 1.351 . S
C1807 C1808 1.434 . S
C1808 C1799 1.429 . S
C1808 N1805 1.350 . S
C1808 C1807 1.434 . S
C1809 C1810 1.369 . S
C1809 C1811 1.419 . S
C1809 H1813 0.930 . S
C1810 C1809 1.369 . S
C1810 C1819 1.429 . S
C1811 C1809 1.419 . S
C1811 C1812 1.363 . S
C1811 H1814 0.929 . S
C1812 C1811 1.363 . S
C1812 C1818 1.428 . S
H1813 C1809 0.930 . S
H1814 C1811 0.929 . S
S1815 N1816 1.613 . S
S1815 N1817 1.610 . S
N1816 S1815 1.613 . S
N1816 C1819 1.350 . S
N1817 S1815 1.610 . S
N1817 C1818 1.351 . S
C1818 C1812 1.428 . S
C1818 N1817 1.351 . S
C1818 C1819 1.434 . S
C1819 C1810 1.429 . S
C1819 N1816 1.350 . S
C1819 C1818 1.434 . S
C1820 C1821 1.369 . S
C1820 C1822 1.419 . S
C1820 H1824 0.930 . S
C1821 C1820 1.369 . S
C1821 C1830 1.429 . S
C1822 C1820 1.419 . S
C1822 C1823 1.363 . S
C1822 H1825 0.929 . S
C1823 C1822 1.363 . S
C1823 C1829 1.428 . S
H1824 C1820 0.930 . S
H1825 C1822 0.929 . S
S1826 N1827 1.613 . S
S1826 N1828 1.610 . S
N1827 S1826 1.613 . S
N1827 C1830 1.350 . S
N1828 S1826 1.610 . S
N1828 C1829 1.351 . S
C1829 C1823 1.428 . S
C1829 N1828 1.351 . S
C1829 C1830 1.434 . S
C1830 C1821 1.429 . S
C1830 N1827 1.350 . S
C1830 C1829 1.434 . S
C1831 C1832 1.369 . S
C1831 C1833 1.419 . S
C1831 H1835 0.930 . S
C1832 C1831 1.369 . S
C1832 C1841 1.429 . S
C1833 C1831 1.419 . S
C1833 C1834 1.363 . S
C1833 H1836 0.929 . S
C1834 C1833 1.363 . S
C1834 C1840 1.428 . S
H1835 C1831 0.930 . S
H1836 C1833 0.929 . S
S1837 N1838 1.613 . S
S1837 N1839 1.610 . S
N1838 S1837 1.613 . S
N1838 C1841 1.350 . S
N1839 S1837 1.610 . S
N1839 C1840 1.351 . S
C1840 C1834 1.428 . S
C1840 N1839 1.351 . S
C1840 C1841 1.434 . S
C1841 C1832 1.429 . S
C1841 N1838 1.350 . S
C1841 C1840 1.434 . S
C1842 C1843 1.369 . S
C1842 C1844 1.419 . S
C1842 H1846 0.930 . S
C1843 C1842 1.369 . S
C1843 C1852 1.429 . S
C1844 C1842 1.419 . S
C1844 C1845 1.363 . S
C1844 H1847 0.929 . S
C1845 C1844 1.363 . S
C1845 C1851 1.428 . S
H1846 C1842 0.930 . S
H1847 C1844 0.929 . S
S1848 N1849 1.613 . S
S1848 N1850 1.610 . S
N1849 S1848 1.613 . S
N1849 C1852 1.350 . S
N1850 S1848 1.610 . S
N1850 C1851 1.351 . S
C1851 C1845 1.428 . S
C1851 N1850 1.351 . S
C1851 C1852 1.434 . S
C1852 C1843 1.429 . S
C1852 N1849 1.350 . S
C1852 C1851 1.434 . S
C1853 C1854 1.369 . S
C1853 C1855 1.419 . S
C1853 H1857 0.930 . S
C1854 C1853 1.369 . S
C1854 C1863 1.429 . S
C1855 C1853 1.419 . S
C1855 C1856 1.363 . S
C1855 H1858 0.929 . S
C1856 C1855 1.363 . S
C1856 C1862 1.428 . S
H1857 C1853 0.930 . S
H1858 C1855 0.929 . S
S1859 N1860 1.613 . S
S1859 N1861 1.610 . S
N1860 S1859 1.613 . S
N1860 C1863 1.350 . S
N1861 S1859 1.610 . S
N1861 C1862 1.351 . S
C1862 C1856 1.428 . S
C1862 N1861 1.351 . S
C1862 C1863 1.434 . S
C1863 C1854 1.429 . S
C1863 N1860 1.350 . S
C1863 C1862 1.434 . S
C1864 C1865 1.369 . S
C1864 C1866 1.419 . S
C1864 H1868 0.930 . S
C1865 C1864 1.369 . S
C1865 C1874 1.429 . S
C1866 C1864 1.419 . S
C1866 C1867 1.363 . S
C1866 H1869 0.929 . S
C1867 C1866 1.363 . S
C1867 C1873 1.428 . S
H1868 C1864 0.930 . S
H1869 C1866 0.929 . S
S1870 N1871 1.613 . S
S1870 N1872 1.610 . S
N1871 S1870 1.613 . S
N1871 C1874 1.350 . S
N1872 S1870 1.610 . S
N1872 C1873 1.351 . S
C1873 C1867 1.428 . S
C1873 N1872 1.351 . S
C1873 C1874 1.434 . S
C1874 C1865 1.429 . S
C1874 N1871 1.350 . S
C1874 C1873 1.434 . S
C1875 C1876 1.369 1_455 S
C1875 C1877 1.419 . S
C1875 H1879 0.930 . S
C1876 C1875 1.369 1_655 S
C1876 C1885 1.429 . S
C1877 C1875 1.419 . S
C1877 C1878 1.363 1_455 S
C1877 H1880 0.929 . S
C1878 C1877 1.363 1_655 S
C1878 C1884 1.428 . S
H1879 C1875 0.930 . S
H1880 C1877 0.929 . S
S1881 N1882 1.613 . S
S1881 N1883 1.610 . S
N1882 S1881 1.613 . S
N1882 C1885 1.350 . S
N1883 S1881 1.610 . S
N1883 C1884 1.351 . S
C1884 C1878 1.428 . S
C1884 N1883 1.351 . S
C1884 C1885 1.434 . S
C1885 C1876 1.429 . S
C1885 N1882 1.350 . S
C1885 C1884 1.434 . S
C1886 C1887 1.369 . S
C1886 C1888 1.419 . S
C1886 H1890 0.930 . S
C1887 C1886 1.369 . S
C1887 C1896 1.429 . S
C1888 C1886 1.419 . S
C1888 C1889 1.363 . S
C1888 H1891 0.929 . S
C1889 C1888 1.363 . S
C1889 C1895 1.428 . S
H1890 C1886 0.930 . S
H1891 C1888 0.929 . S
S1892 N1893 1.613 . S
S1892 N1894 1.610 . S
N1893 S1892 1.613 . S
N1893 C1896 1.350 . S
N1894 S1892 1.610 . S
N1894 C1895 1.351 . S
C1895 C1889 1.428 . S
C1895 N1894 1.351 . S
C1895 C1896 1.434 . S
C1896 C1887 1.429 . S
C1896 N1893 1.350 . S
C1896 C1895 1.434 . S
C1897 C1898 1.369 . S
C1897 C1899 1.419 . S
C1897 H1901 0.930 . S
C1898 C1897 1.369 . S
C1898 C1907 1.429 . S
C1899 C1897 1.419 . S
C1899 C1900 1.363 . S
C1899 H1902 0.929 . S
C1900 C1899 1.363 . S
C1900 C1906 1.428 . S
H1901 C1897 0.930 . S
H1902 C1899 0.929 . S
S1903 N1904 1.617 . S
S1903 N1905 1.627 . S
N1904 S1903 1.617 . S
N1904 C1907 1.350 . S
N1905 S1903 1.627 . S
N1905 C1906 1.359 . S
C1906 C1900 1.428 . S
C1906 N1905 1.359 . S
C1906 C1907 1.434 . S
C1907 C1898 1.429 . S
C1907 N1904 1.350 . S
C1907 C1906 1.434 . S
C1117 C4 1.488 . S
C1119 C729 1.524 . S
C1128 C26 1.564 . S
C1130 C777 1.565 . S
C1141 C825 1.484 . S
C1139 C32 1.452 . S
C1150 C40 1.452 . S
C1152 C849 1.488 . S
C1161 C12 1.497 . S
C1163 C921 1.517 . S
C1172 C18 1.509 . S
C1174 C969 1.548 . S
C1183 C46 1.492 . S
C1185 C897 1.528 . S
C1196 C945 1.563 . S
C1194 C68 1.564 . S
C1207 C873 1.497 . S
C1205 C74 1.457 . S
C1216 C82 1.455 . S
C1218 C801 1.479 . S
C1229 C705 1.530 . S
C1227 C54 1.513 . S
C1238 C60 1.501 . S
C1240 C753 1.548 . S
C1249 C88 1.609 . S
C1251 C1017 1.649 . S
C1260 C110 1.625 . S
C1262 C1065 1.617 . S
C1273 C1089 1.598 . S
C1271 C116 1.573 . S
C1282 C124 1.514 . S
C1284 C273 1.505 . S
C1293 C96 1.564 . S
C1295 C345 1.563 . S
C1304 C102 1.551 . S
C1306 C393 1.582 . S
C1315 C130 1.552 . S
C1317 C321 1.592 . S
C1326 C152 1.621 . S
C1328 C369 1.611 . S
C1339 C297 1.567 . S
C1337 C158 1.559 . S
C1350 C1113 1.530 . S
C1348 C166 1.562 . S
C1361 C993 1.555 . S
C1359 C138 1.559 . S
C1372 C1041 1.608 . S
C1370 C144 1.575 . S
C1381 C172 1.563 . S
C1383 C441 1.600 . S
C1392 C194 1.617 . S
C1394 C489 1.609 . S
C1403 C200 1.569 . S
C1405 C513 1.596 . S
C1414 C208 1.558 . S
C1416 C561 1.546 . S
C1427 C633 1.558 . S
C1425 C180 1.561 . S
C1438 C681 1.599 . S
C1436 C186 1.562 . S
C1449 C609 1.654 . S
C1447 C214 1.616 . S
C1460 C657 1.614 . S
C1458 C236 1.627 . S
C1469 C242 1.552 . S
C1471 C585 1.555 . S
C1482 C537 1.477 . S
C1480 C250 1.506 . S
C1491 C222 1.571 . S
C1493 C417 1.570 . S
C1504 C465 1.588 . S
C1502 C228 1.553 . S
C1515 C282 1.581 . S
C1513 C5 1.333 . S
C1524 C25 1.534 . S
C1526 C336 1.467 . S
C1537 C384 1.564 . S
C1535 C33 1.350 . S
C1548 C432 1.474 . S
C1546 C39 1.500 . S
C1559 C480 1.512 . S
C1557 C11 1.569 . S
C1570 C522 1.502 . S
C1568 C19 1.251 . S
C1579 C47 1.293 1_556 S
C1581 C528 1.584 . S
C1590 C67 1.535 . S
C1592 C426 1.451 . S
C1601 C75 1.353 1_556 S
C1603 C474 1.536 . S
C1612 C81 1.512 . S
C1614 C330 1.451 . S
C1625 C378 1.485 . S
C1623 C53 1.559 . S
C1634 C61 1.230 . S
C1636 C288 1.483 . S
C1647 C570 1.541 . S
C1645 C89 1.271 . S
C1656 C109 1.581 . S
C1658 C624 1.518 . S
C1667 C117 1.301 . S
C1669 C672 1.541 . S
C1680 C720 1.313 . S
C1678 C123 1.309 . S
C1689 C95 1.496 . S
C1691 C768 1.449 . S
C1700 C103 1.151 . S
C1702 C816 1.318 . S
C1711 C131 1.127 . S
C1713 C810 1.320 . S
C1722 C151 1.341 . S
C1724 C714 1.327 . S
C1735 C762 1.455 . S
C1733 C159 1.250 . S
C1744 C165 1.488 . S
C1746 C618 1.420 . S
C1755 C137 1.568 . S
C1757 C666 1.495 . S
C1768 C576 1.530 . S
C1766 C145 1.280 . S
C1779 C858 1.352 . S
C1777 C173 1.135 . S
C1788 C193 1.317 . S
C1790 C912 1.316 . S
C1799 C201 1.247 . S
C1801 C960 1.476 . S
C1812 C1008 1.431 . S
C1810 C207 1.482 . S
C1823 C1056 1.517 . S
C1821 C179 1.578 . S
C1832 C187 1.293 . S
C1834 C1098 1.547 . S
C1843 C215 1.281 . S
C1845 C1104 1.535 . S
C1854 C235 1.582 . S
C1856 C1002 1.506 . S
C1867 C1050 1.508 . S
C1865 C243 1.297 . S
C1878 C906 1.287 . S
C1876 C249 1.277 . S
C1889 C954 1.437 . S
C1887 C221 1.501 . S
C1898 C229 1.152 . S
C1900 C864 1.332 . S
