# Generated by pormake.
# Topology anh, (6,3)-cn, num edge types: 1
# Building blocks:
#     Node 0, Type 0, BuildingBlock: BETDAH_clean_sbu_0, # of connection points: 6
#     Node 1, Type 0, BuildingBlock: BETDAH_clean_sbu_0, # of connection points: 6
#     Node 2, Type 0, BuildingBlock: BETDAH_clean_sbu_0, # of connection points: 6
#     Node 3, Type 1, BuildingBlock: BELTOD_clean_linker_0, # of connection points: 3
#     Node 4, Type 1, BuildingBlock: BELTOD_clean_linker_0, # of connection points: 3
#     Node 5, Type 1, BuildingBlock: BELTOD_clean_linker_0, # of connection points: 3
#     Node 6, Type 1, BuildingBlock: BELTOD_clean_linker_0, # of connection points: 3
#     Node 7, Type 1, BuildingBlock: BELTOD_clean_linker_0, # of connection points: 3
#     Node 8, Type 1, BuildingBlock: BELTOD_clean_linker_0, # of connection points: 3
#     Edge 9, Type (0, 1), BuildingBlock: MIFKUJ_clean_linker_0, # of connection points: 2
#     Edge 10, Type (0, 1), BuildingBlock: MIFKUJ_clean_linker_0, # of connection points: 2
#     Edge 11, Type (0, 1), BuildingBlock: MIFKUJ_clean_linker_0, # of connection points: 2
#     Edge 12, Type (0, 1), BuildingBlock: MIFKUJ_clean_linker_0, # of connection points: 2
#     Edge 13, Type (0, 1), BuildingBlock: MIFKUJ_clean_linker_0, # of connection points: 2
#     Edge 14, Type (0, 1), BuildingBlock: MIFKUJ_clean_linker_0, # of connection points: 2
#     Edge 15, Type (0, 1), BuildingBlock: MIFKUJ_clean_linker_0, # of connection points: 2
#     Edge 16, Type (0, 1), BuildingBlock: MIFKUJ_clean_linker_0, # of connection points: 2
#     Edge 17, Type (0, 1), BuildingBlock: MIFKUJ_clean_linker_0, # of connection points: 2
#     Edge 18, Type (0, 1), BuildingBlock: MIFKUJ_clean_linker_0, # of connection points: 2
#     Edge 19, Type (0, 1), BuildingBlock: MIFKUJ_clean_linker_0, # of connection points: 2
#     Edge 20, Type (0, 1), BuildingBlock: MIFKUJ_clean_linker_0, # of connection points: 2
#     Edge 21, Type (0, 1), BuildingBlock: MIFKUJ_clean_linker_0, # of connection points: 2
#     Edge 22, Type (0, 1), BuildingBlock: MIFKUJ_clean_linker_0, # of connection points: 2
#     Edge 23, Type (0, 1), BuildingBlock: MIFKUJ_clean_linker_0, # of connection points: 2
#     Edge 24, Type (0, 1), BuildingBlock: MIFKUJ_clean_linker_0, # of connection points: 2
#     Edge 25, Type (0, 1), BuildingBlock: MIFKUJ_clean_linker_0, # of connection points: 2
#     Edge 26, Type (0, 1), BuildingBlock: MIFKUJ_clean_linker_0, # of connection points: 2
# Relax obj value: 0.157
# Max RMSD: 0.197
# Mean RMSD: 0.142
data_MOF--net-anh--node1-BETDAH_clean_sbu_0--node2-BELTOD_clean_linker_0--edge1-MIFKUJ_clean_linker_0
_symmetry_space_group_name_H-M    P1
_symmetry_Int_Tables_number       1
_symmetry_cell_setting            triclinic
loop_
_symmetry_equiv_pos_as_xyz
'x, y, z'
_cell_length_a     44.446204
_cell_length_b     50.001783
_cell_length_c     76.475554
_cell_angle_alpha  92.752084
_cell_angle_beta   89.668078
_cell_angle_gamma 127.09987
loop_
_atom_site_label
_atom_site_type_symbol
_atom_site_fract_x
_atom_site_fract_y
_atom_site_fract_z
_atom_type_partial_charge
Ho0 Ho 0.087 0.52361 0.14782 0.0
Ho1 Ho 0.04611 0.55097 0.16186 0.0
C2 C 0.13376 0.60447 0.15809 0.0
C3 C 0.1324 0.51643 0.13114 0.0
C4 C 0.17274 0.53318 0.13441 0.0
C5 C 0.19445 0.53207 0.12149 0.0
C6 C 0.23197 0.54538 0.12529 0.0
C7 C 0.24797 0.55963 0.1421 0.0
C8 C 0.22671 0.56223 0.15473 0.0
C9 C 0.18943 0.54935 0.15085 0.0
C10 C 0.08024 0.52303 0.18285 0.0
C11 C 0.99925 0.47028 0.15203 0.0
C12 C 1.00133 0.55751 0.1796 0.0
C13 C 0.96008 0.5341 0.18091 0.0
C14 C 0.94352 0.5281 0.19732 0.0
C15 C 0.90468 0.50344 0.19882 0.0
C16 C 0.88184 0.4844 0.18391 0.0
C17 C 0.89865 0.49064 0.1675 0.0
C18 C 0.93737 0.51506 0.16603 0.0
C19 C 0.05345 0.55133 0.12676 0.0
O20 O 0.13202 0.58025 0.14904 0.0
O21 O 0.1044 0.59841 0.16653 0.0
O22 O 0.1103 0.49664 0.14329 0.0
O23 O 0.12375 0.53566 0.12601 0.0
O24 O 0.0801 0.50064 0.17354 0.0
O25 O 0.08731 0.54597 0.17338 0.0
O26 O 1.00126 0.49454 0.16114 0.0
O27 O 1.02819 0.47632 0.14313 0.0
O28 O 1.01416 0.57057 0.16442 0.0
O29 O 1.01945 0.5472 0.1863 0.0
O30 O 0.05492 0.57456 0.13603 0.0
O31 O 0.04569 0.52829 0.13634 0.0
H32 H 0.18205 0.51991 0.10871 0.0
H33 H 0.24774 0.54271 0.11543 0.0
H34 H 0.2385 0.57309 0.16776 0.0
H35 H 0.17313 0.55083 0.16092 0.0
H36 H 0.96073 0.54207 0.20899 0.0
H37 H 0.89262 0.499 0.21167 0.0
H38 H 0.88187 0.47688 0.15571 0.0
H39 H 0.94956 0.5187 0.15325 0.0
Ho40 Ho 0.57427 0.01756 0.48433 0.0
Ho41 Ho 0.52724 0.04121 0.47665 0.0
C42 C 0.48372 0.96314 0.47684 0.0
C43 C 0.59931 0.9873 0.49727 0.0
C44 C 0.58505 0.95214 0.49945 0.0
C45 C 0.5751 0.93886 0.51609 0.0
C46 C 0.56431 0.90664 0.51857 0.0
C47 C 0.56358 0.88707 0.5045 0.0
C48 C 0.57246 0.89996 0.48776 0.0
C49 C 0.58308 0.93211 0.48525 0.0
C50 C 0.57003 0.02691 0.45032 0.0
C51 C 0.61938 0.09578 0.48139 0.0
C52 C 0.49953 0.07119 0.46661 0.0
C53 C 0.50443 0.10242 0.47245 0.0
C54 C 0.53192 0.13319 0.46514 0.0
C55 C 0.53686 0.16263 0.47097 0.0
C56 C 0.51444 0.16198 0.48426 0.0
C57 C 0.48657 0.13114 0.49136 0.0
C58 C 0.48151 0.10172 0.48548 0.0
C59 C 0.53524 0.03448 0.51086 0.0
O60 O 0.5138 0.97069 0.48555 0.0
O61 O 0.48448 0.98647 0.46894 0.0
O62 O 0.60575 0.99759 0.48133 0.0
O63 O 0.58377 0.99828 0.5067 0.0
O64 O 0.59961 0.03275 0.45791 0.0
O65 O 0.54304 0.01402 0.46072 0.0
O66 O 0.58741 0.08845 0.47493 0.0
O67 O 0.62062 0.07273 0.48836 0.0
O68 O 0.48278 0.0469 0.47741 0.0
O69 O 0.52818 0.07458 0.45916 0.0
O70 O 0.50466 0.02758 0.50396 0.0
O71 O 0.5603 0.04644 0.49965 0.0
H72 H 0.57652 0.95373 0.5273 0.0
H73 H 0.55803 0.8976 0.53167 0.0
H74 H 0.57173 0.88535 0.47661 0.0
H75 H 0.59045 0.94144 0.47223 0.0
H76 H 0.54987 0.13461 0.45499 0.0
H77 H 0.55873 0.18602 0.4653 0.0
H78 H 0.46838 0.12965 0.50138 0.0
H79 H 0.45967 0.07843 0.49124 0.0
Ho80 Ho 0.57566 0.54862 0.84999 0.0
Ho81 Ho 0.52275 0.47293 0.85365 0.0
C82 C 0.48372 0.51026 0.85293 0.0
C83 C 0.61028 0.60859 0.83921 0.0
C84 C 0.60324 0.63307 0.83554 0.0
C85 C 0.56945 0.62332 0.82745 0.0
C86 C 0.56471 0.64757 0.82327 0.0
C87 C 0.59365 0.68194 0.82712 0.0
C88 C 0.62701 0.69134 0.83559 0.0
C89 C 0.63176 0.66717 0.83969 0.0
C90 C 0.56337 0.52839 0.88296 0.0
C91 C 0.61557 0.51229 0.85287 0.0
C92 C 0.49029 0.41224 0.86275 0.0
C93 C 0.49561 0.38601 0.85878 0.0
C94 C 0.51613 0.38126 0.87046 0.0
C95 C 0.52169 0.3569 0.86656 0.0
C96 C 0.50661 0.33656 0.85094 0.0
C97 C 0.4857 0.34108 0.83939 0.0
C98 C 0.48016 0.36538 0.84327 0.0
C99 C 0.53494 0.49234 0.82049 0.0
O100 O 0.51679 0.53648 0.84734 0.0
O101 O 0.48052 0.4839 0.85856 0.0
O102 O 0.61027 0.60244 0.85564 0.0
O103 O 0.59368 0.58159 0.82871 0.0
O104 O 0.59571 0.5544 0.87801 0.0
O105 O 0.53932 0.51609 0.87063 0.0
O106 O 0.5814 0.48481 0.85638 0.0
O107 O 0.62009 0.53979 0.8483 0.0
O108 O 0.47795 0.41981 0.84983 0.0
O109 O 0.51679 0.43882 0.8723 0.0
O110 O 0.50323 0.46605 0.82561 0.0
O111 O 0.55923 0.50526 0.8328 0.0
H112 H 0.54701 0.59708 0.82411 0.0
H113 H 0.53879 0.63945 0.81663 0.0
H114 H 0.64956 0.71746 0.8391 0.0
H115 H 0.65797 0.67518 0.84599 0.0
H116 H 0.52801 0.39645 0.88262 0.0
H117 H 0.53751 0.35379 0.87586 0.0
H118 H 0.4741 0.32621 0.82713 0.0
H119 H 0.46398 0.36813 0.834 0.0
P120 P 0.60425 0.02738 0.20554 0.0
H121 H 0.5828 0.96378 0.18916 0.0
H122 H 0.5225 0.91276 0.17873 0.0
H123 H 0.47057 0.96259 0.18654 0.0
H124 H 0.53153 0.01391 0.19727 0.0
H125 H 0.65636 0.05316 0.1768 0.0
H126 H 0.69879 0.10898 0.16553 0.0
H127 H 0.64935 0.14389 0.19933 0.0
H128 H 0.60576 0.0874 0.20991 0.0
H129 H 0.5404 0.98291 0.22821 0.0
H130 H 0.64811 0.08094 0.23285 0.0
O131 O 0.63411 0.01768 0.20672 0.0
H132 H 0.5304 0.98726 0.2592 0.0
H133 H 0.63778 0.08587 0.26385 0.0
C134 C 0.56173 0.99273 0.19404 0.0
C135 C 0.55874 0.96412 0.18831 0.0
C136 C 0.52407 0.93481 0.18227 0.0
C137 C 0.49149 0.93337 0.1819 0.0
C138 C 0.49498 0.96267 0.18687 0.0
C139 C 0.52986 0.99214 0.19282 0.0
C140 C 0.6286 0.06632 0.19455 0.0
C141 C 0.65414 0.07266 0.18154 0.0
C142 C 0.67874 0.10479 0.17524 0.0
C143 C 0.67843 0.13139 0.18188 0.0
C144 C 0.65066 0.1242 0.19395 0.0
C145 C 0.62576 0.09186 0.20011 0.0
C146 C 0.59444 0.03216 0.22796 0.0
C147 C 0.56146 0.00586 0.23572 0.0
C148 C 0.55573 0.00835 0.25353 0.0
C149 C 0.58314 0.03702 0.26404 0.0
C150 C 0.61615 0.06335 0.25619 0.0
C151 C 0.62188 0.06075 0.23839 0.0
P152 P 0.62504 0.57082 0.57903 0.0
H153 H 0.64089 0.55117 0.54595 0.0
H154 H 0.61927 0.49691 0.5324 0.0
H155 H 0.54104 0.44684 0.57415 0.0
H156 H 0.56359 0.50141 0.58784 0.0
H157 H 0.66517 0.64124 0.57195 0.0
H158 H 0.64559 0.67279 0.55962 0.0
H159 H 0.53149 0.58175 0.55301 0.0
H160 H 0.55154 0.55 0.56529 0.0
H161 H 0.66341 0.56704 0.60841 0.0
H162 H 0.56634 0.56541 0.60048 0.0
O163 O 0.67165 0.59327 0.57687 0.0
H164 H 0.6522 0.56198 0.63979 0.0
H165 H 0.55522 0.56083 0.63192 0.0
C166 C 0.60432 0.53035 0.56802 0.0
C167 C 0.61882 0.52848 0.55209 0.0
C168 C 0.60623 0.49735 0.5443 0.0
C169 C 0.57861 0.46738 0.55225 0.0
C170 C 0.56287 0.46939 0.56785 0.0
C171 C 0.57558 0.50061 0.57565 0.0
C172 C 0.60995 0.59318 0.56925 0.0
C173 C 0.63603 0.6279 0.56766 0.0
C174 C 0.62481 0.64594 0.56058 0.0
C175 C 0.58707 0.62971 0.5552 0.0
C176 C 0.56076 0.59491 0.55705 0.0
C177 C 0.57219 0.57675 0.56396 0.0
C178 C 0.61619 0.56728 0.60215 0.0
C179 C 0.63989 0.56595 0.61345 0.0
C180 C 0.63355 0.56321 0.63142 0.0
C181 C 0.60306 0.56139 0.63841 0.0
C182 C 0.5789 0.56211 0.62696 0.0
C183 C 0.58537 0.56495 0.60897 0.0
P184 P 0.07191 0.54268 0.87784 0.0
H185 H 0.11714 0.55311 0.84662 0.0
H186 H 0.16537 0.5449 0.84105 0.0
H187 H 0.133 0.48805 0.88731 0.0
H188 H 0.08409 0.49522 0.89228 0.0
H189 H 0.04998 0.58661 0.87437 0.0
H190 H 0.99146 0.57864 0.86961 0.0
H191 H 0.93337 0.47198 0.86066 0.0
H192 H 0.9934 0.48041 0.86603 0.0
H193 H 0.12831 0.57918 0.90629 0.0
H194 H 1.00914 0.49822 0.9012 0.0
O195 O 0.10453 0.58353 0.87497 0.0
H196 H 0.12497 0.57666 0.93812 0.0
H197 H 1.00562 0.49545 0.93304 0.0
C198 C 0.096 0.52465 0.86982 0.0
C199 C 0.1193 0.53771 0.85522 0.0
C200 C 0.14785 0.53361 0.85227 0.0
C201 C 0.15454 0.51635 0.86388 0.0
C202 C 0.12942 0.50143 0.87787 0.0
C203 C 0.10082 0.50544 0.88074 0.0
C204 C 1.02734 0.5344 0.87 0.0
C205 C 1.02515 0.56141 0.87087 0.0
C206 C 0.99094 0.55674 0.86812 0.0
C207 C 0.95666 0.52462 0.86443 0.0
C208 C 0.95867 0.49726 0.86348 0.0
C209 C 0.99337 0.50206 0.86628 0.0
C210 C 0.06881 0.53953 0.90134 0.0
C211 C 0.10137 0.56091 0.91201 0.0
C212 C 0.09949 0.55924 0.93023 0.0
C213 C 0.06496 0.53601 0.93816 0.0
C214 C 0.03252 0.51403 0.92738 0.0
C215 C 0.0345 0.51561 0.90913 0.0
P216 P 0.08247 0.5022 0.42951 0.0
H217 H 0.15949 0.5402 0.44384 0.0
H218 H 0.2058 0.59878 0.45378 0.0
H219 H 0.12234 0.61593 0.4473 0.0
H220 H 0.07544 0.55658 0.43769 0.0
H221 H 0.05709 0.48084 0.46487 0.0
H222 H 0.9959 0.43479 0.47595 0.0
H223 H 0.94468 0.41643 0.42468 0.0
H224 H 1.0054 0.46176 0.41371 0.0
H225 H 0.10683 0.48313 0.39883 0.0
H226 H 0.05325 0.53078 0.40903 0.0
O227 O 0.10172 0.48247 0.43218 0.0
H228 H 0.1037 0.48843 0.36753 0.0
H229 H 0.04961 0.53585 0.3776 0.0
C230 C 0.1138 0.5438 0.44005 0.0
C231 C 0.15067 0.55619 0.44493 0.0
C232 C 0.17729 0.58984 0.45062 0.0
C233 C 0.16784 0.61209 0.45127 0.0
C234 C 0.13057 0.59946 0.4468 0.0
C235 C 0.1037 0.56553 0.44135 0.0
C236 C 0.03598 0.47535 0.43853 0.0
C237 C 0.03244 0.46755 0.45616 0.0
C238 C 0.99753 0.44098 0.46243 0.0
C239 C 0.9654 0.42184 0.45118 0.0
C240 C 0.96869 0.43089 0.43376 0.0
C241 C 1.00364 0.45711 0.42747 0.0
C242 C 0.0803 0.50658 0.40633 0.0
C243 C 0.09432 0.49472 0.39437 0.0
C244 C 0.09232 0.4976 0.37641 0.0
C245 C 0.07623 0.51243 0.37002 0.0
C246 C 0.06256 0.52464 0.38208 0.0
C247 C 0.0646 0.52174 0.40007 0.0
P248 P 0.61927 0.05223 0.75495 0.0
H249 H 0.63377 0.0802 0.79081 0.0
H250 H 0.61374 0.10997 0.80717 0.0
H251 H 0.5415 0.09153 0.76326 0.0
H252 H 0.5606 0.06086 0.74732 0.0
H253 H 0.64803 0.01528 0.74498 0.0
H254 H 0.63795 0.96529 0.75555 0.0
H255 H 0.56019 0.95659 0.79338 0.0
H256 H 0.56956 0.0062 0.78223 0.0
H257 H 0.63933 0.09916 0.72812 0.0
H258 H 0.56801 0.99162 0.73169 0.0
O259 O 0.66597 0.0815 0.75626 0.0
H260 H 0.62364 0.09188 0.6968 0.0
H261 H 0.5525 0.98418 0.70031 0.0
C262 C 0.59901 0.06861 0.76781 0.0
C263 C 0.61309 0.08207 0.78486 0.0
C264 C 0.60186 0.09935 0.79412 0.0
C265 C 0.57641 0.10364 0.78645 0.0
C266 C 0.56094 0.08859 0.76965 0.0
C267 C 0.57208 0.07116 0.76044 0.0
C268 C 0.60988 0.01462 0.76293 0.0
C269 C 0.62874 0.00255 0.75553 0.0
C270 C 0.62311 0.97406 0.76168 0.0
C271 C 0.59863 0.9571 0.7755 0.0
C272 C 0.5791 0.96892 0.78267 0.0
C273 C 0.58464 0.99745 0.7764 0.0
C274 C 0.60539 0.04599 0.73215 0.0
C275 C 0.62023 0.07399 0.72215 0.0
C276 C 0.61108 0.06979 0.7043 0.0
C277 C 0.58699 0.03744 0.6961 0.0
C278 C 0.57151 0.00938 0.70625 0.0
C279 C 0.58037 0.01364 0.72418 0.0
P280 P 0.42905 0.34394 0.10603 0.0
H281 H 0.4227 0.30129 0.13285 0.0
H282 H 0.46902 0.29683 0.1467 0.0
H283 H 0.55501 0.37228 0.11352 0.0
H284 H 0.50876 0.37594 0.09959 0.0
H285 H 0.36856 0.34868 0.11515 0.0
H286 H 0.36875 0.39296 0.13029 0.0
H287 H 0.48823 0.44976 0.1416 0.0
H288 H 0.48778 0.40498 0.12677 0.0
H289 H 0.41056 0.31025 0.07111 0.0
H290 H 0.47837 0.41208 0.09334 0.0
O291 O 0.38624 0.30701 0.10489 0.0
H292 H 0.43046 0.33141 0.04176 0.0
H293 H 0.49787 0.43318 0.06428 0.0
C294 C 0.46213 0.33842 0.11497 0.0
C295 C 0.45141 0.31633 0.12836 0.0
C296 C 0.4779 0.31395 0.13633 0.0
C297 C 0.51559 0.33388 0.13107 0.0
C298 C 0.52602 0.35586 0.11756 0.0
C299 C 0.49956 0.35813 0.10961 0.0
C300 C 0.42802 0.37337 0.11999 0.0
C301 C 0.39457 0.37016 0.12133 0.0
C302 C 0.3947 0.39545 0.13 0.0
C303 C 0.42851 0.42468 0.13715 0.0
C304 C 0.46182 0.42742 0.13624 0.0
C305 C 0.4615 0.40179 0.12784 0.0
C306 C 0.44232 0.35952 0.08441 0.0
C307 C 0.42938 0.3371 0.06968 0.0
C308 C 0.44076 0.34921 0.05294 0.0
C309 C 0.46575 0.38396 0.05073 0.0
C310 C 0.47892 0.40627 0.06556 0.0
C311 C 0.46738 0.39417 0.08223 0.0
H312 H 0.31621 0.60006 0.12649 0.0
H313 H 0.37087 0.60004 0.13085 0.0
H314 H 0.3137 0.53203 0.17243 0.0
H315 H 0.26047 0.53366 0.16875 0.0
H316 H 0.38536 0.56611 0.17846 0.0
H317 H 0.30142 0.50476 0.12737 0.0
H318 H 0.27035 0.50031 0.09959 0.0
H319 H 0.37858 0.56879 0.07701 0.0
H320 H 0.41026 0.57397 0.10478 0.0
H321 H 0.38243 0.42446 0.16095 0.0
H322 H 0.37552 0.469 0.16702 0.0
H323 H 0.46822 0.5336 0.13349 0.0
H324 H 0.47551 0.48921 0.12754 0.0
H325 H 0.39909 0.51884 0.12314 0.0
H326 H 0.47859 0.56101 0.17405 0.0
H327 H 0.50333 0.55844 0.20217 0.0
H328 H 0.39669 0.5177 0.2256 0.0
H329 H 0.37106 0.51953 0.19756 0.0
C330 C 0.31611 0.58612 0.13694 0.0
C331 C 0.28412 0.56649 0.14713 0.0
C332 C 0.34719 0.58601 0.13941 0.0
C333 C 0.3459 0.56516 0.15159 0.0
C334 C 0.31542 0.54821 0.16289 0.0
C335 C 0.28488 0.54903 0.16074 0.0
C336 C 0.37221 0.55614 0.15075 0.0
C337 C 0.38862 0.55596 0.16636 0.0
C338 C 0.37712 0.54344 0.1349 0.0
C339 C 0.35816 0.54009 0.11817 0.0
C340 C 0.31855 0.51897 0.11649 0.0
C341 C 0.30085 0.51633 0.10076 0.0
C342 C 0.32248 0.53433 0.08656 0.0
C343 C 0.36187 0.55494 0.08804 0.0
C344 C 0.37971 0.55776 0.10377 0.0
C345 C 0.40201 0.44853 0.15531 0.0
C346 C 0.42934 0.45342 0.14372 0.0
C347 C 0.39827 0.47403 0.15888 0.0
C348 C 0.4215 0.50463 0.15075 0.0
C349 C 0.45029 0.51027 0.14 0.0
C350 C 0.45443 0.48495 0.13664 0.0
C351 C 0.41089 0.52756 0.15095 0.0
C352 C 0.39723 0.53018 0.13516 0.0
C353 C 0.40762 0.54149 0.1667 0.0
C354 C 0.42285 0.54031 0.18364 0.0
C355 C 0.46029 0.55126 0.18515 0.0
C356 C 0.4745 0.54998 0.20109 0.0
C357 C 0.45159 0.53789 0.21566 0.0
C358 C 0.41442 0.52709 0.21431 0.0
C359 C 0.40006 0.5283 0.1984 0.0
H360 H 0.46265 0.53692 0.22799 0.0
H361 H 0.30873 0.53226 0.07438 0.0
H362 H 0.69166 0.12072 0.49137 0.0
H363 H 0.74968 0.1774 0.48811 0.0
H364 H 0.68508 0.20661 0.46596 0.0
H365 H 0.62711 0.15002 0.46893 0.0
H366 H 0.74486 0.22725 0.44677 0.0
H367 H 0.72366 0.23287 0.50807 0.0
H368 H 0.7122 0.21443 0.53831 0.0
H369 H 0.817 0.2276 0.53971 0.0
H370 H 0.82885 0.2457 0.50939 0.0
H371 H 0.89314 0.40093 0.44525 0.0
H372 H 0.83408 0.34747 0.45238 0.0
H373 H 0.89711 0.31862 0.4768 0.0
H374 H 0.95617 0.37232 0.47003 0.0
H375 H 0.83762 0.2981 0.49528 0.0
H376 H 0.8582 0.29033 0.4341 0.0
H377 H 0.86997 0.30764 0.40364 0.0
H378 H 0.76669 0.29704 0.40171 0.0
H379 H 0.75456 0.28011 0.43225 0.0
C380 C 0.68972 0.13925 0.48593 0.0
C381 C 0.65459 0.13068 0.48042 0.0
C382 C 0.72297 0.17175 0.48412 0.0
C383 C 0.72184 0.19648 0.4769 0.0
C384 C 0.68678 0.18804 0.47155 0.0
C385 C 0.65357 0.15559 0.47332 0.0
C386 C 0.75722 0.23078 0.47433 0.0
C387 C 0.76483 0.24293 0.45745 0.0
C388 C 0.78391 0.25099 0.48812 0.0
C389 C 0.77697 0.24035 0.5064 0.0
C390 C 0.74413 0.2316 0.51478 0.0
C391 C 0.73759 0.22125 0.53195 0.0
C392 C 0.76381 0.21977 0.54091 0.0
C393 C 0.79669 0.22873 0.53275 0.0
C394 C 0.80335 0.23907 0.51558 0.0
C395 C 0.89439 0.38327 0.45225 0.0
C396 C 0.9294 0.39086 0.45701 0.0
C397 C 0.86058 0.35263 0.45627 0.0
C398 C 0.86098 0.32855 0.46483 0.0
C399 C 0.89591 0.33663 0.47017 0.0
C400 C 0.92972 0.36744 0.46633 0.0
C401 C 0.8252 0.29462 0.46771 0.0
C402 C 0.81755 0.28249 0.48462 0.0
C403 C 0.79852 0.27427 0.45391 0.0
C404 C 0.80567 0.28429 0.43552 0.0
C405 C 0.83813 0.29192 0.42722 0.0
C406 C 0.84485 0.30163 0.40993 0.0
C407 C 0.81914 0.30352 0.40076 0.0
C408 C 0.78661 0.29561 0.40884 0.0
C409 C 0.77978 0.28594 0.42613 0.0
H410 H 0.82439 0.31104 0.38738 0.0
H411 H 0.75869 0.21174 0.5542 0.0
H412 H 0.64737 0.74262 0.81382 0.0
H413 H 0.64228 0.78694 0.80708 0.0
H414 H 0.52577 0.72499 0.82178 0.0
H415 H 0.53081 0.6805 0.82896 0.0
H416 H 0.53792 0.75758 0.79076 0.0
H417 H 0.58803 0.78633 0.84949 0.0
H418 H 0.63123 0.79672 0.87352 0.0
H419 H 0.72544 0.87739 0.84639 0.0
H420 H 0.68287 0.86716 0.82206 0.0
H421 H 0.53398 0.89828 0.78621 0.0
H422 H 0.52754 0.84974 0.79699 0.0
H423 H 0.64676 0.90046 0.79075 0.0
H424 H 0.6537 0.94939 0.78081 0.0
H425 H 0.62611 0.8707 0.8204 0.0
H426 H 0.57804 0.83843 0.76051 0.0
H427 H 0.53605 0.82773 0.73579 0.0
H428 H 0.43932 0.75387 0.76445 0.0
H429 H 0.48075 0.76447 0.78945 0.0
C430 C 0.62071 0.73845 0.81581 0.0
C431 C 0.58964 0.70812 0.82217 0.0
C432 C 0.61782 0.76379 0.81187 0.0
C433 C 0.58381 0.75945 0.81418 0.0
C434 C 0.55232 0.72887 0.81997 0.0
C435 C 0.55522 0.70345 0.82401 0.0
C436 C 0.58169 0.78721 0.81064 0.0
C437 C 0.55668 0.78218 0.79745 0.0
C438 C 0.60657 0.8194 0.81922 0.0
C439 C 0.63226 0.8258 0.83389 0.0
C440 C 0.61799 0.80613 0.84858 0.0
C441 C 0.64236 0.81201 0.86227 0.0
C442 C 0.68106 0.83765 0.86146 0.0
C443 C 0.69546 0.85752 0.84699 0.0
C444 C 0.67121 0.85171 0.83326 0.0
C445 C 0.55889 0.89924 0.78734 0.0
C446 C 0.59431 0.92767 0.78247 0.0
C447 C 0.5551 0.87132 0.79334 0.0
C448 C 0.58658 0.87121 0.79445 0.0
C449 C 0.62201 0.89983 0.78995 0.0
C450 C 0.62586 0.92771 0.78407 0.0
C451 C 0.58305 0.84142 0.80015 0.0
C452 C 0.60698 0.84604 0.81382 0.0
C453 C 0.55733 0.80894 0.79194 0.0
C454 C 0.53244 0.80253 0.77692 0.0
C455 C 0.54779 0.8201 0.76159 0.0
C456 C 0.52411 0.81402 0.74752 0.0
C457 C 0.48504 0.79021 0.74857 0.0
C458 C 0.46958 0.77236 0.76367 0.0
C459 C 0.49315 0.77838 0.77779 0.0
H460 H 0.46674 0.78553 0.73766 0.0
H461 H 0.69989 0.84217 0.87207 0.0
H462 H 0.834 0.48933 0.2039 0.0
H463 H 0.76513 0.4519 0.20243 0.0
H464 H 0.76693 0.38588 0.16475 0.0
H465 H 0.83578 0.42263 0.16654 0.0
H466 H 0.72929 0.44353 0.17243 0.0
H467 H 0.68267 0.3071 0.16463 0.0
H468 H 0.69923 0.27254 0.17663 0.0
H469 H 0.744 0.33659 0.22363 0.0
H470 H 0.72721 0.37132 0.21203 0.0
H471 H 0.57369 0.33635 0.11681 0.0
H472 H 0.62952 0.34981 0.13235 0.0
H473 H 0.57974 0.34469 0.18178 0.0
H474 H 0.5242 0.33238 0.16638 0.0
H475 H 0.63596 0.31964 0.17389 0.0
H476 H 0.62302 0.4124 0.17909 0.0
H477 H 0.60495 0.44464 0.16528 0.0
H478 H 0.68125 0.46764 0.12372 0.0
H479 H 0.69928 0.43507 0.13719 0.0
C480 C 0.81978 0.46631 0.19573 0.0
C481 C 0.84037 0.45921 0.18514 0.0
C482 C 0.78041 0.445 0.19487 0.0
C483 C 0.76093 0.41615 0.18349 0.0
C484 C 0.78134 0.40785 0.17375 0.0
C485 C 0.82072 0.42917 0.17457 0.0
C486 C 0.72017 0.39797 0.17964 0.0
C487 C 0.70885 0.41653 0.17319 0.0
C488 C 0.69355 0.36264 0.18026 0.0
C489 C 0.70381 0.34193 0.18739 0.0
C490 C 0.69587 0.31374 0.17756 0.0
C491 C 0.70535 0.29412 0.18429 0.0
C492 C 0.72267 0.30234 0.20089 0.0
C493 C 0.73055 0.33023 0.21078 0.0
C494 C 0.72117 0.34996 0.20411 0.0
C495 C 0.57426 0.33745 0.13099 0.0
C496 C 0.54489 0.334 0.14036 0.0
C497 C 0.60593 0.34468 0.13983 0.0
C498 C 0.60854 0.3482 0.15815 0.0
C499 C 0.57788 0.34168 0.16762 0.0
C500 C 0.54623 0.33471 0.15877 0.0
C501 C 0.6458 0.36542 0.16689 0.0
C502 C 0.65646 0.34673 0.17382 0.0
C503 C 0.67207 0.40068 0.16681 0.0
C504 C 0.66228 0.4212 0.15907 0.0
C505 C 0.63579 0.42423 0.16697 0.0
C506 C 0.62556 0.44254 0.15921 0.0
C507 C 0.64189 0.45813 0.14361 0.0
C508 C 0.6686 0.45554 0.13579 0.0
C509 C 0.67885 0.4372 0.14349 0.0
H510 H 0.6339 0.47226 0.13761 0.0
H511 H 0.73009 0.28717 0.20604 0.0
H512 H 0.46483 0.91274 0.49781 0.0
H513 H 0.40964 0.8539 0.49508 0.0
H514 H 0.37074 0.8738 0.44948 0.0
H515 H 0.42522 0.93317 0.45263 0.0
H516 H 0.31323 0.83299 0.46883 0.0
H517 H 0.41818 0.83571 0.44766 0.0
H518 H 0.48179 0.85018 0.45058 0.0
H519 H 0.44778 0.79025 0.49532 0.0
H520 H 0.38407 0.7757 0.49279 0.0
H521 H 0.18252 0.66534 0.43404 0.0
H522 H 0.23462 0.72488 0.43958 0.0
H523 H 0.27258 0.70099 0.48385 0.0
H524 H 0.22104 0.64127 0.47802 0.0
H525 H 0.33058 0.74377 0.46625 0.0
H526 H 0.22694 0.73968 0.48795 0.0
H527 H 0.16384 0.72658 0.48718 0.0
H528 H 0.19519 0.78949 0.44393 0.0
H529 H 0.25835 0.80263 0.44428 0.0
C530 C 0.44449 0.90463 0.48721 0.0
C531 C 0.44956 0.92762 0.47536 0.0
C532 C 0.41298 0.87086 0.4856 0.0
C533 C 0.3863 0.85905 0.47182 0.0
C534 C 0.39093 0.88215 0.46018 0.0
C535 C 0.42213 0.91611 0.46198 0.0
C536 C 0.35375 0.82267 0.46945 0.0
C537 C 0.31709 0.81351 0.46802 0.0
C538 C 0.35851 0.79703 0.46898 0.0
C539 C 0.39642 0.8048 0.4701 0.0
C540 C 0.42428 0.82566 0.45814 0.0
C541 C 0.46036 0.83389 0.45973 0.0
C542 C 0.46883 0.82119 0.47315 0.0
C543 C 0.44117 0.80007 0.48494 0.0
C544 C 0.40506 0.79178 0.48341 0.0
C545 C 0.20163 0.67284 0.44512 0.0
C546 C 0.19753 0.64858 0.45564 0.0
C547 C 0.23148 0.70696 0.4483 0.0
C548 C 0.2575 0.71772 0.46229 0.0
C549 C 0.25307 0.69349 0.47295 0.0
C550 C 0.22352 0.65933 0.46964 0.0
C551 C 0.28995 0.75402 0.46546 0.0
C552 C 0.32663 0.76318 0.46705 0.0
C553 C 0.28519 0.77965 0.46627 0.0
C554 C 0.24726 0.77188 0.46604 0.0
C555 C 0.22029 0.75053 0.47819 0.0
C556 C 0.18453 0.74313 0.47785 0.0
C557 C 0.17548 0.75713 0.46549 0.0
C558 C 0.20222 0.77863 0.45348 0.0
C559 C 0.23802 0.78609 0.45376 0.0
H560 H 0.14778 0.75137 0.46524 0.0
H561 H 0.49678 0.82764 0.47438 0.0
H562 H 0.57148 0.34234 0.85573 0.0
H563 H 0.58267 0.30137 0.84705 0.0
H564 H 0.46809 0.23268 0.82681 0.0
H565 H 0.45625 0.27296 0.83605 0.0
H566 H 0.48826 0.19978 0.84377 0.0
H567 H 0.54158 0.28113 0.79959 0.0
H568 H 0.58217 0.33808 0.78861 0.0
H569 H 0.68043 0.35182 0.80945 0.0
H570 H 0.64035 0.29509 0.82076 0.0
H571 H 0.5087 0.0942 0.78747 0.0
H572 H 0.49666 0.13259 0.80024 0.0
H573 H 0.61261 0.20061 0.81875 0.0
H574 H 0.62527 0.16315 0.8054 0.0
H575 H 0.59245 0.23397 0.80357 0.0
H576 H 0.53921 0.15156 0.84684 0.0
H577 H 0.49845 0.09464 0.85782 0.0
H578 H 0.40008 0.08267 0.83874 0.0
H579 H 0.44029 0.13937 0.82742 0.0
C580 C 0.54847 0.31832 0.84968 0.0
C581 C 0.51303 0.31107 0.84647 0.0
C582 C 0.55502 0.29503 0.84457 0.0
C583 C 0.52639 0.26414 0.83602 0.0
C584 C 0.49067 0.25641 0.8333 0.0
C585 C 0.48406 0.27962 0.83844 0.0
C586 C 0.53388 0.24023 0.82947 0.0
C587 C 0.5108 0.20714 0.83484 0.0
C588 C 0.56376 0.24999 0.81809 0.0
C589 C 0.58793 0.284 0.81117 0.0
C590 C 0.57182 0.29639 0.80193 0.0
C591 C 0.59474 0.32861 0.79564 0.0
C592 C 0.63385 0.34859 0.79837 0.0
C593 C 0.65013 0.33634 0.80736 0.0
C594 C 0.62733 0.30414 0.8137 0.0
C595 C 0.53167 0.11734 0.79424 0.0
C596 C 0.56796 0.12549 0.79541 0.0
C597 C 0.52464 0.13913 0.8017 0.0
C598 C 0.55364 0.16939 0.81062 0.0
C599 C 0.58974 0.17738 0.81199 0.0
C600 C 0.59683 0.1557 0.80449 0.0
C601 C 0.54687 0.19343 0.81788 0.0
C602 C 0.57004 0.22659 0.81258 0.0
C603 C 0.51706 0.18368 0.82931 0.0
C604 C 0.4928 0.1496 0.83614 0.0
C605 C 0.5089 0.13669 0.84486 0.0
C606 C 0.48589 0.10448 0.85117 0.0
C607 C 0.4467 0.08502 0.84894 0.0
C608 C 0.43044 0.09776 0.84044 0.0
C609 C 0.45333 0.12995 0.83409 0.0
H610 H 0.42894 0.06009 0.85384 0.0
H611 H 0.65154 0.37354 0.79349 0.0
H612 H 0.50925 0.83635 0.52453 0.0
H613 H 0.50195 0.7854 0.5315 0.0
H614 H 0.59505 0.81385 0.49856 0.0
H615 H 0.6022 0.86442 0.49145 0.0
H616 H 0.54171 0.74815 0.49477 0.0
H617 H 0.60607 0.83 0.54362 0.0
H618 H 0.61286 0.86881 0.56724 0.0
H619 H 0.51257 0.78692 0.59067 0.0
H620 H 0.50492 0.74768 0.56704 0.0
H621 H 0.62259 0.67642 0.53056 0.0
H622 H 0.60712 0.71253 0.52043 0.0
H623 H 0.5104 0.66425 0.5534 0.0
H624 H 0.52599 0.62806 0.56371 0.0
H625 H 0.55446 0.73324 0.55729 0.0
H626 H 0.49647 0.65013 0.51013 0.0
H627 H 0.49205 0.61227 0.48664 0.0
H628 H 0.58244 0.69714 0.46009 0.0
H629 H 0.58781 0.73552 0.48356 0.0
C630 C 0.52801 0.83161 0.51872 0.0
C631 C 0.55647 0.85455 0.50753 0.0
C632 C 0.5238 0.80248 0.5227 0.0
C633 C 0.54833 0.796 0.51577 0.0
C634 C 0.57574 0.81822 0.50406 0.0
C635 C 0.57977 0.84714 0.49998 0.0
C636 C 0.5471 0.76723 0.52134 0.0
C637 C 0.54466 0.74498 0.50844 0.0
C638 C 0.54997 0.76249 0.5392 0.0
C639 C 0.55467 0.786 0.55346 0.0
C640 C 0.58532 0.82032 0.55374 0.0
C641 C 0.58934 0.84239 0.56714 0.0
C642 C 0.56309 0.83036 0.58042 0.0
C643 C 0.53283 0.79621 0.58036 0.0
C644 C 0.52864 0.77405 0.56697 0.0
C645 C 0.59788 0.67334 0.53557 0.0
C646 C 0.57556 0.64947 0.54797 0.0
C647 C 0.58891 0.69383 0.52968 0.0
C648 C 0.55744 0.69095 0.53606 0.0
C649 C 0.53472 0.6668 0.54825 0.0
C650 C 0.54351 0.64603 0.55405 0.0
C651 C 0.5499 0.71464 0.5307 0.0
C652 C 0.5508 0.736 0.54364 0.0
C653 C 0.54589 0.71869 0.51288 0.0
C654 C 0.54271 0.69571 0.49869 0.0
C655 C 0.51561 0.66073 0.49936 0.0
C656 C 0.5129 0.63917 0.48603 0.0
C657 C 0.53699 0.65229 0.4719 0.0
C658 C 0.56381 0.68701 0.47105 0.0
C659 C 0.56666 0.70868 0.48435 0.0
H660 H 0.53484 0.63555 0.46159 0.0
H661 H 0.56626 0.84748 0.59078 0.0
H662 H 0.69026 0.56302 0.84594 0.0
H663 H 0.7452 0.56302 0.84762 0.0
H664 H 0.67442 0.46119 0.86365 0.0
H665 H 0.61931 0.46127 0.86227 0.0
H666 H 0.73798 0.49339 0.88205 0.0
H667 H 0.71231 0.48459 0.82044 0.0
H668 H 0.70094 0.50086 0.79272 0.0
H669 H 0.80998 0.59669 0.7982 0.0
H670 H 0.8218 0.58116 0.82607 0.0
H671 H 0.88264 0.47065 0.87212 0.0
H672 H 0.82464 0.46584 0.86956 0.0
H673 H 0.88783 0.56478 0.8498 0.0
H674 H 0.94515 0.5689 0.85127 0.0
H675 H 0.82601 0.53141 0.83296 0.0
H676 H 0.85115 0.54145 0.89496 0.0
H677 H 0.86258 0.52591 0.92293 0.0
H678 H 0.75513 0.42875 0.91702 0.0
H679 H 0.74327 0.44357 0.8889 0.0
C680 C 0.68611 0.54047 0.84979 0.0
C681 C 0.64967 0.51207 0.85384 0.0
C682 C 0.71788 0.54043 0.85066 0.0
C683 C 0.71469 0.5119 0.8555 0.0
C684 C 0.67837 0.48366 0.85981 0.0
C685 C 0.64653 0.48368 0.85894 0.0
C686 C 0.74896 0.51164 0.85612 0.0
C687 C 0.75682 0.50129 0.87116 0.0
C688 C 0.77472 0.52249 0.84222 0.0
C689 C 0.76778 0.53182 0.82542 0.0
C690 C 0.73376 0.50921 0.81579 0.0
C691 C 0.72725 0.51829 0.80004 0.0
C692 C 0.75468 0.54982 0.79373 0.0
C693 C 0.78873 0.5723 0.80312 0.0
C694 C 0.79537 0.56336 0.81888 0.0
C695 C 0.8844 0.49135 0.86701 0.0
C696 C 0.91967 0.52042 0.86217 0.0
C697 C 0.85086 0.48876 0.86579 0.0
C698 C 0.85106 0.51526 0.85986 0.0
C699 C 0.88603 0.54383 0.85458 0.0
C700 C 0.91939 0.54633 0.85566 0.0
C701 C 0.81542 0.51353 0.859 0.0
C702 C 0.80723 0.52348 0.84388 0.0
C703 C 0.78947 0.50243 0.87286 0.0
C704 C 0.79652 0.49349 0.88975 0.0
C705 C 0.83009 0.51669 0.89958 0.0
C706 C 0.83662 0.50803 0.91546 0.0
C707 C 0.80965 0.47633 0.92172 0.0
C708 C 0.77603 0.45326 0.91214 0.0
C709 C 0.76937 0.46179 0.89623 0.0
H710 H 0.81476 0.46966 0.93402 0.0
H711 H 0.74958 0.5568 0.78154 0.0
H712 H 0.19662 0.62894 0.13873 0.0
H713 H 0.25672 0.68512 0.14104 0.0
H714 H 0.21399 0.7136 0.18285 0.0
H715 H 0.15331 0.65777 0.18021 0.0
H716 H 0.25226 0.76271 0.16143 0.0
H717 H 0.27539 0.69225 0.19004 0.0
H718 H 0.27496 0.6428 0.19121 0.0
H719 H 0.34987 0.67654 0.1481 0.0
H720 H 0.35037 0.726 0.14652 0.0
H721 H 0.42456 0.90721 0.19806 0.0
H722 H 0.36412 0.85213 0.19239 0.0
H723 H 0.41263 0.83002 0.15048 0.0
H724 H 0.4733 0.88521 0.15608 0.0
H725 H 0.37213 0.77762 0.17042 0.0
H726 H 0.35103 0.84829 0.14207 0.0
H727 H 0.34968 0.8965 0.13937 0.0
H728 H 0.27033 0.86174 0.18067 0.0
H729 H 0.2716 0.81354 0.18379 0.0
C730 C 0.19994 0.64715 0.14841 0.0
C731 C 0.17012 0.63877 0.15933 0.0
C732 C 0.23446 0.67928 0.14977 0.0
C733 C 0.24025 0.70355 0.16233 0.0
C734 C 0.21032 0.69536 0.17308 0.0
C735 C 0.17561 0.66336 0.17158 0.0
C736 C 0.27743 0.73742 0.16435 0.0
C737 C 0.2784 0.76594 0.16364 0.0
C738 C 0.31179 0.74175 0.16668 0.0
C739 C 0.31269 0.71271 0.16807 0.0
C740 C 0.29171 0.68909 0.18078 0.0
C741 C 0.29143 0.66105 0.18151 0.0
C742 C 0.31231 0.6565 0.16971 0.0
C743 C 0.3337 0.6801 0.15723 0.0
C744 C 0.33403 0.70817 0.15642 0.0
C745 C 0.42226 0.89094 0.18741 0.0
C746 C 0.45386 0.90081 0.17748 0.0
C747 C 0.38764 0.85931 0.18422 0.0
C748 C 0.38361 0.83689 0.17091 0.0
C749 C 0.41499 0.84677 0.16086 0.0
C750 C 0.44969 0.87837 0.16408 0.0
C751 C 0.34688 0.80294 0.16775 0.0
C752 C 0.34601 0.7744 0.16822 0.0
C753 C 0.31258 0.79855 0.16512 0.0
C754 C 0.31169 0.82747 0.16327 0.0
C755 C 0.33352 0.85107 0.15067 0.0
C756 C 0.33273 0.87837 0.14905 0.0
C757 C 0.31001 0.88223 0.15987 0.0
C758 C 0.28795 0.85874 0.17231 0.0
C759 C 0.28867 0.83141 0.174 0.0
H760 H 0.30943 0.90338 0.1586 0.0
H761 H 0.31198 0.63472 0.17026 0.0
H762 H 0.52615 0.2124 0.46515 0.0
H763 H 0.53499 0.26359 0.47606 0.0
H764 H 0.52463 0.23371 0.52908 0.0
H765 H 0.51546 0.1824 0.51824 0.0
H766 H 0.48547 0.25683 0.52461 0.0
H767 H 0.61115 0.29517 0.51196 0.0
H768 H 0.66151 0.30275 0.49376 0.0
H769 H 0.64572 0.35644 0.45741 0.0
H770 H 0.59489 0.34877 0.47528 0.0
H771 H 0.56494 0.41476 0.56991 0.0
H772 H 0.55108 0.3623 0.55765 0.0
H773 H 0.55527 0.39314 0.50544 0.0
H774 H 0.56859 0.44556 0.51759 0.0
H775 H 0.59625 0.36959 0.50872 0.0
H776 H 0.47154 0.33255 0.5226 0.0
H777 H 0.42218 0.32523 0.54149 0.0
H778 H 0.43756 0.26944 0.57645 0.0
H779 H 0.48741 0.27683 0.55789 0.0
C780 C 0.52605 0.21687 0.47914 0.0
C781 C 0.52015 0.19333 0.49082 0.0
C782 C 0.53109 0.24615 0.48537 0.0
C783 C 0.53088 0.25276 0.50343 0.0
C784 C 0.5248 0.22919 0.5151 0.0
C785 C 0.51952 0.19982 0.50887 0.0
C786 C 0.53681 0.2841 0.5102 0.0
C787 C 0.50995 0.28149 0.5213 0.0
C788 C 0.5683 0.31632 0.5056 0.0
C789 C 0.59895 0.32109 0.49486 0.0
C790 C 0.61822 0.30837 0.50001 0.0
C791 C 0.64688 0.31272 0.48977 0.0
C792 C 0.65674 0.32999 0.47441 0.0
C793 C 0.63802 0.34303 0.46929 0.0
C794 C 0.6093 0.3387 0.47948 0.0
C795 C 0.5622 0.41018 0.55582 0.0
C796 C 0.56782 0.43447 0.54476 0.0
C797 C 0.55441 0.38017 0.54883 0.0
C798 C 0.55191 0.37365 0.53062 0.0
C799 C 0.55718 0.39766 0.51953 0.0
C800 C 0.56489 0.42767 0.52651 0.0
C801 C 0.545 0.34229 0.52317 0.0
C802 C 0.57171 0.3449 0.51197 0.0
C803 C 0.51352 0.31009 0.52777 0.0
C804 C 0.48346 0.30551 0.53893 0.0
C805 C 0.46461 0.31895 0.53439 0.0
C806 C 0.43651 0.31475 0.54502 0.0
C807 C 0.42681 0.29695 0.56018 0.0
C808 C 0.44513 0.28325 0.56471 0.0
C809 C 0.47329 0.28741 0.55413 0.0
H810 H 0.40504 0.29373 0.5684 0.0
H811 H 0.67893 0.33334 0.46649 0.0
H812 H 0.41313 0.46396 0.86627 0.0
H813 H 0.35901 0.46518 0.86784 0.0
H814 H 0.42225 0.55918 0.84268 0.0
H815 H 0.47697 0.55847 0.8415 0.0
H816 H 0.38358 0.56333 0.8665 0.0
H817 H 0.34631 0.47778 0.82161 0.0
H818 H 0.33419 0.42588 0.80862 0.0
H819 H 0.25264 0.36864 0.8477 0.0
H820 H 0.26462 0.42027 0.86106 0.0
H821 H 0.22496 0.56282 0.84966 0.0
H822 H 0.27878 0.56157 0.84704 0.0
H823 H 0.21692 0.46723 0.87179 0.0
H824 H 0.16209 0.46734 0.87361 0.0
H825 H 0.25517 0.46358 0.84779 0.0
H826 H 0.29299 0.54948 0.8928 0.0
H827 H 0.30542 0.60153 0.90575 0.0
H828 H 0.38613 0.65828 0.8663 0.0
H829 H 0.37383 0.60649 0.85299 0.0
C830 C 0.41572 0.48494 0.86098 0.0
C831 C 0.44997 0.51101 0.85365 0.0
C832 C 0.38429 0.48553 0.86179 0.0
C833 C 0.38544 0.51197 0.8551 0.0
C834 C 0.41983 0.53826 0.84795 0.0
C835 C 0.45139 0.53778 0.84721 0.0
C836 C 0.35124 0.51238 0.85572 0.0
C837 C 0.35568 0.54155 0.86214 0.0
C838 C 0.31403 0.48403 0.85048 0.0
C839 C 0.30663 0.45294 0.84243 0.0
C840 C 0.32597 0.45415 0.8275 0.0
C841 C 0.3191 0.42478 0.82006 0.0
C842 C 0.29273 0.394 0.82736 0.0
C843 C 0.27309 0.39251 0.84207 0.0
C844 C 0.27988 0.42181 0.84958 0.0
C845 C 0.22218 0.54139 0.85437 0.0
C846 C 0.18818 0.51521 0.86192 0.0
C847 C 0.25371 0.541 0.85311 0.0
C848 C 0.25309 0.51465 0.85953 0.0
C849 C 0.21902 0.48817 0.86677 0.0
C850 C 0.18738 0.48845 0.86797 0.0
C851 C 0.28746 0.5145 0.85863 0.0
C852 C 0.28306 0.48537 0.85215 0.0
C853 C 0.32471 0.5429 0.8638 0.0
C854 C 0.3322 0.57406 0.8718 0.0
C855 C 0.3132 0.57303 0.88682 0.0
C856 C 0.32025 0.60249 0.89424 0.0
C857 C 0.34647 0.63318 0.88683 0.0
C858 C 0.36578 0.63449 0.87201 0.0
C859 C 0.35881 0.60509 0.86453 0.0
H860 H 0.35189 0.65596 0.89259 0.0
H861 H 0.28746 0.37129 0.82158 0.0
H862 H 0.92796 0.45136 0.15624 0.0
H863 H 0.86971 0.39467 0.15868 0.0
H864 H 0.9321 0.35439 0.15178 0.0
H865 H 0.99005 0.41105 0.14829 0.0
H866 H 0.86878 0.31402 0.13579 0.0
H867 H 0.90297 0.36871 0.19388 0.0
H868 H 0.91877 0.41347 0.21587 0.0
H869 H 0.81098 0.39214 0.20634 0.0
H870 H 0.79505 0.348 0.18383 0.0
H871 H 0.75331 0.16102 0.177 0.0
H872 H 0.803 0.21847 0.16971 0.0
H873 H 0.72288 0.24029 0.16936 0.0
H874 H 0.6724 0.18231 0.17641 0.0
H875 H 0.7894 0.29024 0.18732 0.0
H876 H 0.75352 0.23119 0.13131 0.0
H877 H 0.73848 0.1861 0.10978 0.0
H878 H 0.85064 0.21513 0.11631 0.0
H879 H 0.8662 0.2601 0.13808 0.0
C880 C 0.92916 0.43037 0.15509 0.0
C881 C 0.96362 0.43568 0.15217 0.0
C882 C 0.89584 0.39791 0.15664 0.0
C883 C 0.8964 0.37006 0.15592 0.0
C884 C 0.93072 0.37532 0.15247 0.0
C885 C 0.96391 0.40774 0.15047 0.0
C886 C 0.86163 0.33556 0.15903 0.0
C887 C 0.85178 0.30889 0.14719 0.0
C888 C 0.8384 0.32868 0.17358 0.0
C889 C 0.84786 0.35511 0.18715 0.0
C890 C 0.88273 0.3737 0.1964 0.0
C891 C 0.89175 0.39903 0.20891 0.0
C892 C 0.86592 0.4057 0.21245 0.0
C893 C 0.83096 0.38696 0.20354 0.0
C894 C 0.82194 0.36183 0.19089 0.0
C895 C 0.74588 0.17771 0.17508 0.0
C896 C 0.70851 0.16665 0.1771 0.0
C897 C 0.77451 0.21074 0.171 0.0
C898 C 0.76667 0.2337 0.16881 0.0
C899 C 0.7296 0.22304 0.17102 0.0
C900 C 0.70078 0.18985 0.17506 0.0
C901 C 0.7975 0.2688 0.16437 0.0
C902 C 0.80641 0.29553 0.1759 0.0
C903 C 0.82009 0.27574 0.14963 0.0
C904 C 0.81093 0.24887 0.13643 0.0
C905 C 0.7749 0.22781 0.12825 0.0
C906 C 0.7663 0.2023 0.11599 0.0
C907 C 0.79357 0.19771 0.1117 0.0
C908 C 0.82954 0.21869 0.11965 0.0
C909 C 0.83828 0.24423 0.13194 0.0
H910 H 0.78684 0.17794 0.10221 0.0
H911 H 0.87296 0.42534 0.22212 0.0
H912 H 0.06739 0.59811 0.10426 0.0
H913 H 0.06924 0.59482 0.07222 0.0
H914 H 0.04723 0.49833 0.0738 0.0
H915 H 0.04504 0.5014 0.1058 0.0
H916 H 0.11364 0.59042 0.05005 0.0
H917 H 0.99129 0.44911 0.03812 0.0
H918 H 0.93271 0.40452 0.05212 0.0
H919 H 0.92363 0.47843 0.07656 0.0
H920 H 0.98182 0.52337 0.06251 0.0
H921 H 0.11433 0.54047 0.9617 0.0
H922 H 0.11221 0.54211 0.99368 0.0
H923 H 1.00881 0.53191 0.99062 0.0
H924 H 1.01065 0.53005 0.95864 0.0
H925 H 1.0043 0.49406 0.01514 0.0
H926 H 0.09473 0.60871 0.0001 0.0
H927 H 0.15143 0.65547 0.98599 0.0
H928 H 0.22074 0.63934 0.01537 0.0
H929 H 0.16436 0.59217 0.02948 0.0
C930 C 0.06299 0.57624 0.09775 0.0
C931 C 0.05579 0.54991 0.10748 0.0
C932 C 0.06418 0.57443 0.07947 0.0
C933 C 0.05798 0.54617 0.07058 0.0
C934 C 0.05155 0.52015 0.08034 0.0
C935 C 0.0504 0.52197 0.09862 0.0
C936 C 0.0578 0.54379 0.0511 0.0
C937 C 0.08977 0.56931 0.04243 0.0
C938 C 1.02647 0.51649 0.0411 0.0
C939 C 0.99113 0.48961 0.0494 0.0
C940 C 0.9767 0.45582 0.04643 0.0
C941 C 0.94358 0.43049 0.05438 0.0
C942 C 0.92454 0.43865 0.06527 0.0
C943 C 0.93848 0.47215 0.06818 0.0
C944 C 0.97156 0.49756 0.06024 0.0
C945 C 0.09118 0.53866 0.96784 0.0
C946 C 0.06277 0.53533 0.9576 0.0
C947 C 0.08999 0.53959 0.98613 0.0
C948 C 0.06063 0.53762 0.9946 0.0
C949 C 1.03174 0.53345 0.98441 0.0
C950 C 0.03279 0.53233 0.96611 0.0
C951 C 0.06032 0.54053 0.01407 0.0
C952 C 1.02827 0.51509 0.02276 0.0
C953 C 0.09134 0.56819 0.02407 0.0
C954 C 0.12529 0.59673 0.01572 0.0
C955 C 0.12204 0.615 0.00346 0.0
C956 C 0.15412 0.64159 0.99548 0.0
C957 C 0.18965 0.65032 -0.00025 0.0
C958 C 0.19319 0.63253 0.01206 0.0
C959 C 0.16119 0.60589 0.02006 0.0
H960 H 0.21446 0.67091 0.99355 0.0
H961 H 0.89893 0.41901 0.07143 0.0
H962 H 0.50769 0.00803 0.43092 0.0
H963 H 0.50395 0.01234 0.39923 0.0
H964 H 0.62269 0.05817 0.39581 0.0
H965 H 0.62657 0.05419 0.42728 0.0
H966 H 0.60347 0.08996 0.3766 0.0
H967 H 0.55581 0.97503 0.38492 0.0
H968 H 0.51265 0.91939 0.39715 0.0
H969 H 0.41783 0.90711 0.37289 0.0
H970 H 0.46044 0.96292 0.36071 0.0
H971 H 0.63656 0.06144 0.2903 0.0
H972 H 0.62833 0.06258 0.32179 0.0
H973 H 0.51029 0.01657 0.31303 0.0
H974 H 0.51839 0.01572 0.28134 0.0
H975 H 0.52079 0.98641 0.33827 0.0
H976 H 0.56975 0.09828 0.3265 0.0
H977 H 0.6131 0.15382 0.31423 0.0
H978 H 0.70517 0.17231 0.3449 0.0
H979 H 0.66249 0.11666 0.35716 0.0
C980 C 0.53295 0.01915 0.42337 0.0
C981 C 0.56735 0.03054 0.43148 0.0
C982 C 0.53079 0.02154 0.4053 0.0
C983 C 0.563 0.03533 0.39514 0.0
C984 C 0.5975 0.04748 0.40338 0.0
C985 C 0.59964 0.04504 0.42135 0.0
C986 C 0.56108 0.03633 0.37583 0.0
C987 C 0.58551 0.06732 0.3682 0.0
C988 C 0.5368 0.00691 0.3649 0.0
C989 C 0.51124 0.97328 0.37209 0.0
C990 C 0.52573 0.96056 0.38231 0.0
C991 C 0.50138 0.92899 0.38921 0.0
C992 C 0.46251 0.90977 0.38585 0.0
C993 C 0.44793 0.92205 0.37551 0.0
C994 C 0.47217 0.95364 0.3686 0.0
C995 C 0.60896 0.05211 0.295 0.0
C996 C 0.57819 0.03869 0.28324 0.0
C997 C 0.60428 0.05269 0.31305 0.0
C998 C 0.56878 0.04002 0.31978 0.0
C999 C 0.53794 0.02652 0.30812 0.0
C1000 C 0.54261 0.02597 0.29002 0.0
C1001 C 0.56399 0.03996 0.33902 0.0
C1002 C 0.5383 0.00917 0.34663 0.0
C1003 C 0.58711 0.06958 0.34995 0.0
C1004 C 0.61292 0.10316 0.34266 0.0
C1005 C 0.59929 0.11408 0.33053 0.0
C1006 C 0.62374 0.1456 0.32359 0.0
C1007 C 0.66188 0.16655 0.32876 0.0
C1008 C 0.67562 0.15605 0.3409 0.0
C1009 C 0.6513 0.12453 0.34787 0.0
H1010 H 0.68076 0.19095 0.32337 0.0
H1011 H 0.4437 0.88534 0.39121 0.0
H1012 H 0.60269 0.54073 0.8065 0.0
H1013 H 0.61478 0.55576 0.77584 0.0
H1014 H 0.49642 0.48121 0.76272 0.0
H1015 H 0.48428 0.4661 0.79326 0.0
H1016 H 0.54005 0.47697 0.74 0.0
H1017 H 0.53462 0.56365 0.76516 0.0
H1018 H 0.55213 0.60945 0.78674 0.0
H1019 H 0.66701 0.66687 0.77052 0.0
H1020 H 0.65025 0.62118 0.74896 0.0
H1021 H 0.5355 0.52061 0.6545 0.0
H1022 H 0.52469 0.51279 0.68583 0.0
H1023 H 0.64409 0.58596 0.69693 0.0
H1024 H 0.65505 0.59456 0.6656 0.0
H1025 H 0.60136 0.59229 0.72084 0.0
H1026 H 0.60641 0.505 0.69595 0.0
H1027 H 0.58883 0.45829 0.67501 0.0
H1028 H 0.47409 0.40147 0.6914 0.0
H1029 H 0.49089 0.44807 0.71227 0.0
C1030 C 0.57926 0.5278 0.79708 0.0
C1031 C 0.54254 0.50234 0.80222 0.0
C1032 C 0.58617 0.53642 0.7796 0.0
C1033 C 0.55643 0.51975 0.76702 0.0
C1034 C 0.51976 0.49437 0.7722 0.0
C1035 C 0.51287 0.4858 0.78964 0.0
C1036 C 0.56352 0.52795 0.74835 0.0
C1037 C 0.55297 0.50209 0.7358 0.0
C1038 C 0.58122 0.56091 0.74293 0.0
C1039 C 0.59124 0.58884 0.75555 0.0
C1040 C 0.56367 0.58596 0.76626 0.0
C1041 C 0.57345 0.61191 0.77849 0.0
C1042 C 0.6107 0.64101 0.78006 0.0
C1043 C 0.63818 0.64429 0.76932 0.0
C1044 C 0.62854 0.61839 0.75706 0.0
C1045 C 0.55941 0.53545 0.6636 0.0
C1046 C 0.59618 0.55802 0.65752 0.0
C1047 C 0.55321 0.5308 0.68151 0.0
C1048 C 0.58365 0.54851 0.6937 0.0
C1049 C 0.62022 0.57197 0.68775 0.0
C1050 C 0.62646 0.57659 0.66983 0.0
C1051 C 0.57747 0.54116 0.71251 0.0
C1052 C 0.58834 0.56718 0.72507 0.0
C1053 C 0.55998 0.50829 0.71801 0.0
C1054 C 0.54984 0.48015 0.70554 0.0
C1055 C 0.57737 0.48265 0.69499 0.0
C1056 C 0.56756 0.45618 0.68315 0.0
C1057 C 0.53035 0.42697 0.68185 0.0
C1058 C 0.50289 0.42413 0.69241 0.0
C1059 C 0.51255 0.45055 0.70425 0.0
H1060 H 0.5228 0.4065 0.67267 0.0
H1061 H 0.61824 0.66103 0.78958 0.0
H1062 H 0.60115 0.05691 0.52757 0.0
H1063 H 0.61107 0.05366 0.55864 0.0
H1064 H 0.4926 0.00344 0.56714 0.0
H1065 H 0.48252 0.0064 0.53605 0.0
H1066 H 0.60117 0.08093 0.58681 0.0
H1067 H 0.46422 0.94707 0.59871 0.0
H1068 H 0.42246 0.89216 0.5824 0.0
H1069 H 0.51339 0.91724 0.54917 0.0
H1070 H 0.55582 0.97203 0.56542 0.0
H1071 H 0.56786 0.06979 0.67666 0.0
H1072 H 0.55919 0.06577 0.64485 0.0
H1073 H 0.5804 0.99214 0.6404 0.0
H1074 H 0.58837 0.99563 0.6723 0.0
H1075 H 0.52634 0.97509 0.61797 0.0
H1076 H 0.64956 0.07466 0.63216 0.0
H1077 H 0.69791 0.12907 0.64759 0.0
H1078 H 0.64629 0.17146 0.62709 0.0
H1079 H 0.59728 0.11712 0.61174 0.0
C1080 C 0.57721 0.045 0.53607 0.0
C1081 C 0.54107 0.03189 0.52947 0.0
C1082 C 0.58293 0.04325 0.5538 0.0
C1083 C 0.55255 0.02813 0.56517 0.0
C1084 C 0.51636 0.01483 0.55855 0.0
C1085 C 0.51066 0.01669 0.54083 0.0
C1086 C 0.55884 0.02731 0.58411 0.0
C1087 C 0.58484 0.05779 0.59362 0.0
C1088 C 0.53834 0.997 0.59289 0.0
C1089 C 0.51309 0.96382 0.58321 0.0
C1090 C 0.47535 0.94081 0.58798 0.0
C1091 C 0.45155 0.90971 0.57873 0.0
C1092 C 0.46523 0.90127 0.56472 0.0
C1093 C 0.50278 0.92386 0.55997 0.0
C1094 C 0.5267 0.95496 0.56919 0.0
C1095 C 0.57056 0.05269 0.66889 0.0
C1096 C 0.57908 0.03322 0.67694 0.0
C1097 C 0.56566 0.05042 0.65072 0.0
C1098 C 0.56986 0.02912 0.64019 0.0
C1099 C 0.57709 0.00879 0.64824 0.0
C1100 C 0.58161 0.01079 0.66646 0.0
C1101 C 0.5678 0.02889 0.62078 0.0
C1102 C 0.54268 0.99822 0.61117 0.0
C1103 C 0.59005 0.05894 0.61178 0.0
C1104 C 0.61956 0.09173 0.62092 0.0
C1105 C 0.64837 0.09551 0.63105 0.0
C1106 C 0.67591 0.12635 0.63976 0.0
C1107 C 0.67513 0.15368 0.63835 0.0
C1108 C 0.64684 0.15025 0.62819 0.0
C1109 C 0.61919 0.11945 0.61946 0.0
H1110 H 0.69648 0.17754 0.64511 0.0
H1111 H 0.44674 0.8772 0.55757 0.0
H1112 H 0.61289 0.54847 0.91054 0.0
H1113 H 0.59849 0.52401 0.93928 0.0
H1114 H 0.48142 0.45224 0.92299 0.0
H1115 H 0.49552 0.47669 0.89449 0.0
H1116 H 0.48876 0.47988 0.95532 0.0
H1117 H 0.53818 0.42907 0.92413 0.0
H1118 H 0.58538 0.42928 0.9069 0.0
H1119 H 0.66673 0.4837 0.94936 0.0
H1120 H 0.62016 0.4843 0.96675 0.0
H1121 H 0.42186 0.36327 0.02089 0.0
H1122 H 0.44097 0.38771 0.99226 0.0
H1123 H 0.5555 0.45929 0.01207 0.0
H1124 H 0.53673 0.43457 0.04065 0.0
H1125 H 0.55169 0.43347 0.9785 0.0
H1126 H 0.50106 0.48341 0.00967 0.0
H1127 H 0.45343 0.48324 0.02647 0.0
H1128 H 0.3735 0.42968 0.98343 0.0
H1129 H 0.42051 0.42909 0.96646 0.0
C1130 C 0.58413 0.52754 0.91317 0.0
C1131 C 0.55532 0.51442 0.90035 0.0
C1132 C 0.57596 0.51351 0.92951 0.0
C1133 C 0.53892 0.48616 0.9332 0.0
C1134 C 0.51015 0.47334 0.92043 0.0
C1135 C 0.51829 0.48728 0.90414 0.0
C1136 C 0.52978 0.47084 0.95038 0.0
C1137 C 0.50223 0.4694 0.96029 0.0
C1138 C 0.54792 0.4578 0.957 0.0
C1139 C 0.5758 0.45703 0.94668 0.0
C1140 C 0.56621 0.4413 0.92975 0.0
C1141 C 0.59284 0.44124 0.91996 0.0
C1142 C 0.62906 0.45657 0.92702 0.0
C1143 C 0.63868 0.47188 0.9439 0.0
C1144 C 0.61217 0.47207 0.95374 0.0
C1145 C 0.45121 0.38387 0.01907 0.0
C1146 C 0.47774 0.39717 0.03304 0.0
C1147 C 0.46204 0.39795 0.00276 0.0
C1148 C 0.49956 0.42556 0.00014 0.0
C1149 C 0.52639 0.43808 0.01385 0.0
C1150 C 0.51556 0.42411 0.03019 0.0
C1151 C 0.5104 0.44223 0.98331 0.0
C1152 C 0.5383 0.444 0.97351 0.0
C1153 C 0.49247 0.45548 0.97671 0.0
C1154 C 0.4642 0.45592 0.98687 0.0
C1155 C 0.47323 0.47135 0.00384 0.0
C1156 C 0.44636 0.47144 0.01338 0.0
C1157 C 0.41043 0.45639 0.00604 0.0
C1158 C 0.40133 0.44129 0.98911 0.0
C1159 C 0.42808 0.44109 0.97952 0.0
H1160 H 0.38967 0.45649 0.01344 0.0
H1161 H 0.64965 0.45652 0.91941 0.0
H1162 H 0.09018 0.57277 0.2048 0.0
H1163 H 0.08584 0.57312 0.23681 0.0
H1164 H 0.0589 0.47446 0.23603 0.0
H1165 H 0.06275 0.47385 0.20412 0.0
H1166 H 1.01418 0.47945 0.25803 0.0
H1167 H 0.14742 0.54407 0.24661 0.0
H1168 H 0.20666 0.58999 0.23363 0.0
H1169 H 0.19957 0.66271 0.26132 0.0
H1170 H 0.13997 0.61716 0.27428 0.0
H1171 H 0.05704 0.46493 0.34389 0.0
H1172 H 0.05465 0.46932 0.31237 0.0
H1173 H 0.08565 0.56904 0.32107 0.0
H1174 H 0.08936 0.56526 0.35271 0.0
H1175 H 0.12549 0.56727 0.29527 0.0
H1176 H 0.99536 0.50293 0.30893 0.0
H1177 H 0.93571 0.45717 0.32167 0.0
H1178 H 0.93598 0.38429 0.28976 0.0
H1179 H 0.99595 0.42958 0.27701 0.0
C1180 C 0.08317 0.55113 0.21149 0.0
C1181 C 0.07697 0.52334 0.20204 0.0
C1182 C 0.08081 0.5514 0.22975 0.0
C1183 C 0.07237 0.52392 0.23882 0.0
C1184 C 0.06544 0.49591 0.22931 0.0
C1185 C 0.06783 0.49566 0.2111 0.0
C1186 C 0.07152 0.52441 0.25823 0.0
C1187 C 0.03859 0.49849 0.26619 0.0
C1188 C 0.103 0.54983 0.26887 0.0
C1189 C 0.13904 0.57722 0.26126 0.0
C1190 C 0.15836 0.56985 0.24983 0.0
C1191 C 0.19202 0.5958 0.2425 0.0
C1192 C 0.20681 0.62924 0.24661 0.0
C1193 C 0.18804 0.63679 0.25812 0.0
C1194 C 0.15434 0.61093 0.26547 0.0
C1195 C 0.06359 0.4879 0.33912 0.0
C1196 C 0.0735 0.51478 0.35084 0.0
C1197 C 0.06179 0.49023 0.32109 0.0
C1198 C 0.06951 0.51935 0.31434 0.0
C1199 C 0.0794 0.54626 0.32598 0.0
C1200 C 0.08123 0.54396 0.34406 0.0
C1201 C 0.06834 0.5219 0.29511 0.0
C1202 C 0.10088 0.54841 0.28717 0.0
C1203 C 0.03644 0.49703 0.28448 0.0
C1204 C 1.00034 0.46968 0.29212 0.0
C1205 C 0.98287 0.47713 0.30473 0.0
C1206 C 0.94897 0.45128 0.31194 0.0
C1207 C 0.93211 0.41784 0.30656 0.0
C1208 C 0.94909 0.4102 0.29393 0.0
C1209 C 0.98302 0.43596 0.2867 0.0
H1210 H 0.90586 0.39786 0.31215 0.0
H1211 H 0.23285 0.6493 0.24091 0.0
loop_
_geom_bond_atom_site_label_1
_geom_bond_atom_site_label_2
_geom_bond_distance
_geom_bond_site_symmetry_2
_ccdc_geom_bond_type
Ho0 C3 2.811 . S
Ho0 O20 2.322 . S
Ho0 O22 2.378 . S
Ho0 O23 2.524 . S
Ho0 O24 2.381 . S
Ho0 O25 2.669 . S
Ho0 O27 2.346 1_455 S
Ho0 O31 2.305 . S
Ho1 C12 2.811 1_455 S
Ho1 O21 2.346 . S
Ho1 O25 2.305 . S
Ho1 O26 2.322 1_455 S
Ho1 O28 2.378 1_455 S
Ho1 O29 2.524 1_455 S
Ho1 O30 2.381 . S
Ho1 O31 2.669 . S
C2 O20 1.259 . S
C2 O21 1.268 . S
C3 Ho0 2.811 . S
C3 C4 1.488 . S
C3 O22 1.215 . S
C3 O23 1.289 . S
C4 C3 1.488 . S
C4 C5 1.348 . S
C4 C9 1.413 . S
C5 C4 1.348 . S
C5 C6 1.442 . S
C5 H32 0.930 . S
C6 C5 1.442 . S
C6 C7 1.381 . S
C6 H33 0.931 . S
C7 C6 1.381 . S
C7 C8 1.321 . S
C8 C7 1.321 . S
C8 C9 1.403 . S
C8 H34 0.934 . S
C9 C4 1.413 . S
C9 C8 1.403 . S
C9 H35 0.930 . S
C10 O24 1.275 . S
C10 O25 1.256 . S
C11 O26 1.259 . S
C11 O27 1.268 . S
C12 Ho1 2.811 1_655 S
C12 C13 1.488 . S
C12 O28 1.215 . S
C12 O29 1.289 . S
C13 C12 1.488 . S
C13 C14 1.348 . S
C13 C18 1.413 . S
C14 C13 1.348 . S
C14 C15 1.442 . S
C14 H36 0.930 . S
C15 C14 1.442 . S
C15 C16 1.381 . S
C15 H37 0.931 . S
C16 C15 1.381 . S
C16 C17 1.321 . S
C17 C16 1.321 . S
C17 C18 1.403 . S
C17 H38 0.934 . S
C18 C13 1.413 . S
C18 C17 1.403 . S
C18 H39 0.930 . S
C19 O30 1.275 . S
C19 O31 1.256 . S
O20 Ho0 2.322 . S
O20 C2 1.259 . S
O21 Ho1 2.346 . S
O21 C2 1.268 . S
O22 Ho0 2.378 . S
O22 C3 1.215 . S
O23 Ho0 2.524 . S
O23 C3 1.289 . S
O24 Ho0 2.381 . S
O24 C10 1.275 . S
O25 Ho0 2.669 . S
O25 Ho1 2.305 . S
O25 C10 1.256 . S
O26 Ho1 2.322 1_655 S
O26 C11 1.259 . S
O27 Ho0 2.346 1_655 S
O27 C11 1.268 . S
O28 Ho1 2.378 1_655 S
O28 C12 1.215 . S
O29 Ho1 2.524 1_655 S
O29 C12 1.289 . S
O30 Ho1 2.381 . S
O30 C19 1.275 . S
O31 Ho0 2.305 . S
O31 Ho1 2.669 . S
O31 C19 1.256 . S
H32 C5 0.930 . S
H33 C6 0.931 . S
H34 C8 0.934 . S
H35 C9 0.930 . S
H36 C14 0.930 . S
H37 C15 0.931 . S
H38 C17 0.934 . S
H39 C18 0.930 . S
Ho40 C43 2.811 . S
Ho40 O60 2.322 . S
Ho40 O62 2.378 . S
Ho40 O63 2.524 . S
Ho40 O64 2.381 . S
Ho40 O65 2.669 1_565 S
Ho40 O67 2.346 1_565 S
Ho40 O71 2.305 1_565 S
Ho41 C52 2.811 . S
Ho41 O61 2.346 1_545 S
Ho41 O65 2.305 . S
Ho41 O66 2.322 . S
Ho41 O68 2.378 . S
Ho41 O69 2.524 . S
Ho41 O70 2.381 . S
Ho41 O71 2.669 . S
C42 O60 1.259 . S
C42 O61 1.268 . S
C43 Ho40 2.811 . S
C43 C44 1.488 . S
C43 O62 1.215 . S
C43 O63 1.289 . S
C44 C43 1.488 . S
C44 C45 1.348 . S
C44 C49 1.413 . S
C45 C44 1.348 . S
C45 C46 1.442 . S
C45 H72 0.930 . S
C46 C45 1.442 . S
C46 C47 1.381 . S
C46 H73 0.931 . S
C47 C46 1.381 . S
C47 C48 1.321 . S
C48 C47 1.321 . S
C48 C49 1.403 . S
C48 H74 0.934 . S
C49 C44 1.413 . S
C49 C48 1.403 . S
C49 H75 0.930 . S
C50 O64 1.275 1_545 S
C50 O65 1.256 . S
C51 O66 1.259 . S
C51 O67 1.268 . S
C52 Ho41 2.811 . S
C52 C53 1.488 . S
C52 O68 1.215 . S
C52 O69 1.289 . S
C53 C52 1.488 . S
C53 C54 1.348 . S
C53 C58 1.413 . S
C54 C53 1.348 . S
C54 C55 1.442 . S
C54 H76 0.930 . S
C55 C54 1.442 . S
C55 C56 1.381 . S
C55 H77 0.931 . S
C56 C55 1.381 . S
C56 C57 1.321 . S
C57 C56 1.321 . S
C57 C58 1.403 . S
C57 H78 0.934 . S
C58 C53 1.413 . S
C58 C57 1.403 . S
C58 H79 0.930 . S
C59 O70 1.275 . S
C59 O71 1.256 . S
O60 Ho40 2.322 . S
O60 C42 1.259 . S
O61 Ho41 2.346 1_565 S
O61 C42 1.268 . S
O62 Ho40 2.378 . S
O62 C43 1.215 . S
O63 Ho40 2.524 . S
O63 C43 1.289 . S
O64 Ho40 2.381 . S
O64 C50 1.275 1_565 S
O65 Ho40 2.669 1_545 S
O65 Ho41 2.305 . S
O65 C50 1.256 . S
O66 Ho41 2.322 . S
O66 C51 1.259 . S
O67 Ho40 2.346 1_545 S
O67 C51 1.268 . S
O68 Ho41 2.378 . S
O68 C52 1.215 . S
O69 Ho41 2.524 . S
O69 C52 1.289 . S
O70 Ho41 2.381 . S
O70 C59 1.275 . S
O71 Ho40 2.305 1_545 S
O71 Ho41 2.669 . S
O71 C59 1.256 . S
H72 C45 0.930 . S
H73 C46 0.931 . S
H74 C48 0.934 . S
H75 C49 0.930 . S
H76 C54 0.930 . S
H77 C55 0.931 . S
H78 C57 0.934 . S
H79 C58 0.930 . S
Ho80 C83 2.811 . S
Ho80 O100 2.322 . S
Ho80 O102 2.378 . S
Ho80 O103 2.524 . S
Ho80 O104 2.381 . S
Ho80 O105 2.669 . S
Ho80 O107 2.346 . S
Ho80 O111 2.305 . S
Ho81 C92 2.811 . S
Ho81 O101 2.346 . S
Ho81 O105 2.305 . S
Ho81 O106 2.322 . S
Ho81 O108 2.378 . S
Ho81 O109 2.524 . S
Ho81 O110 2.381 . S
Ho81 O111 2.669 . S
C82 O100 1.259 . S
C82 O101 1.268 . S
C83 Ho80 2.811 . S
C83 C84 1.488 . S
C83 O102 1.215 . S
C83 O103 1.289 . S
C84 C83 1.488 . S
C84 C85 1.348 . S
C84 C89 1.413 . S
C85 C84 1.348 . S
C85 C86 1.442 . S
C85 H112 0.930 . S
C86 C85 1.442 . S
C86 C87 1.381 . S
C86 H113 0.931 . S
C87 C86 1.381 . S
C87 C88 1.321 . S
C88 C87 1.321 . S
C88 C89 1.403 . S
C88 H114 0.934 . S
C89 C84 1.413 . S
C89 C88 1.403 . S
C89 H115 0.930 . S
C90 O104 1.275 . S
C90 O105 1.256 . S
C91 O106 1.259 . S
C91 O107 1.268 . S
C92 Ho81 2.811 . S
C92 C93 1.488 . S
C92 O108 1.215 . S
C92 O109 1.289 . S
C93 C92 1.488 . S
C93 C94 1.348 . S
C93 C98 1.413 . S
C94 C93 1.348 . S
C94 C95 1.442 . S
C94 H116 0.930 . S
C95 C94 1.442 . S
C95 C96 1.381 . S
C95 H117 0.931 . S
C96 C95 1.381 . S
C96 C97 1.321 . S
C97 C96 1.321 . S
C97 C98 1.403 . S
C97 H118 0.934 . S
C98 C93 1.413 . S
C98 C97 1.403 . S
C98 H119 0.930 . S
C99 O110 1.275 . S
C99 O111 1.256 . S
O100 Ho80 2.322 . S
O100 C82 1.259 . S
O101 Ho81 2.346 . S
O101 C82 1.268 . S
O102 Ho80 2.378 . S
O102 C83 1.215 . S
O103 Ho80 2.524 . S
O103 C83 1.289 . S
O104 Ho80 2.381 . S
O104 C90 1.275 . S
O105 Ho80 2.669 . S
O105 Ho81 2.305 . S
O105 C90 1.256 . S
O106 Ho81 2.322 . S
O106 C91 1.259 . S
O107 Ho80 2.346 . S
O107 C91 1.268 . S
O108 Ho81 2.378 . S
O108 C92 1.215 . S
O109 Ho81 2.524 . S
O109 C92 1.289 . S
O110 Ho81 2.381 . S
O110 C99 1.275 . S
O111 Ho80 2.305 . S
O111 Ho81 2.669 . S
O111 C99 1.256 . S
H112 C85 0.930 . S
H113 C86 0.931 . S
H114 C88 0.934 . S
H115 C89 0.930 . S
H116 C94 0.930 . S
H117 C95 0.931 . S
H118 C97 0.934 . S
H119 C98 0.930 . S
P120 O131 1.490 1_545 S
P120 C134 1.812 1_545 S
P120 C140 1.803 . S
P120 C146 1.819 . S
H121 C135 0.941 . S
H122 C136 0.939 . S
H123 C138 0.940 . S
H124 C139 0.940 . S
H125 C141 0.939 . S
H126 C142 0.942 . S
H127 C144 0.940 . S
H128 C145 0.939 . S
H129 C147 0.941 . S
H130 C151 0.939 . S
O131 P120 1.490 1_565 S
H132 C148 0.939 . S
H133 C150 0.940 . S
C134 P120 1.812 1_565 S
C134 C135 1.389 . S
C134 C139 1.391 . S
C135 H121 0.941 . S
C135 C134 1.389 . S
C135 C136 1.397 . S
C136 H122 0.939 . S
C136 C135 1.397 . S
C136 C137 1.378 . S
C137 C136 1.378 . S
C137 C138 1.378 . S
C138 H123 0.940 . S
C138 C137 1.378 . S
C138 C139 1.396 . S
C139 H124 0.940 . S
C139 C134 1.391 . S
C139 C138 1.396 . S
C140 P120 1.803 . S
C140 C141 1.378 . S
C140 C145 1.400 . S
C141 H125 0.939 . S
C141 C140 1.378 . S
C141 C142 1.361 . S
C142 H126 0.942 . S
C142 C141 1.361 . S
C142 C143 1.369 . S
C143 C142 1.369 . S
C143 C144 1.404 . S
C144 H127 0.940 . S
C144 C143 1.404 . S
C144 C145 1.389 . S
C145 H128 0.939 . S
C145 C140 1.400 . S
C145 C144 1.389 . S
C146 P120 1.819 . S
C146 C147 1.391 1_545 S
C146 C151 1.391 . S
C147 H129 0.941 . S
C147 C146 1.391 1_565 S
C147 C148 1.396 . S
C148 H132 0.939 . S
C148 C147 1.396 . S
C148 C149 1.397 1_565 S
C149 C148 1.397 1_545 S
C149 C150 1.385 . S
C150 H133 0.940 . S
C150 C149 1.385 . S
C150 C151 1.388 . S
C151 H130 0.939 . S
C151 C146 1.391 . S
C151 C150 1.388 . S
P152 O163 1.490 . S
P152 C166 1.812 . S
P152 C172 1.803 . S
P152 C178 1.819 . S
H153 C167 0.941 . S
H154 C168 0.939 . S
H155 C170 0.940 . S
H156 C171 0.940 . S
H157 C173 0.939 . S
H158 C174 0.942 . S
H159 C176 0.940 . S
H160 C177 0.939 . S
H161 C179 0.941 . S
H162 C183 0.939 . S
O163 P152 1.490 . S
H164 C180 0.939 . S
H165 C182 0.940 . S
C166 P152 1.812 . S
C166 C167 1.389 . S
C166 C171 1.391 . S
C167 H153 0.941 . S
C167 C166 1.389 . S
C167 C168 1.397 . S
C168 H154 0.939 . S
C168 C167 1.397 . S
C168 C169 1.378 . S
C169 C168 1.378 . S
C169 C170 1.378 . S
C170 H155 0.940 . S
C170 C169 1.378 . S
C170 C171 1.396 . S
C171 H156 0.940 . S
C171 C166 1.391 . S
C171 C170 1.396 . S
C172 P152 1.803 . S
C172 C173 1.378 . S
C172 C177 1.400 . S
C173 H157 0.939 . S
C173 C172 1.378 . S
C173 C174 1.361 . S
C174 H158 0.942 . S
C174 C173 1.361 . S
C174 C175 1.369 . S
C175 C174 1.369 . S
C175 C176 1.404 . S
C176 H159 0.940 . S
C176 C175 1.404 . S
C176 C177 1.389 . S
C177 H160 0.939 . S
C177 C172 1.400 . S
C177 C176 1.389 . S
C178 P152 1.819 . S
C178 C179 1.391 . S
C178 C183 1.391 . S
C179 H161 0.941 . S
C179 C178 1.391 . S
C179 C180 1.396 . S
C180 H164 0.939 . S
C180 C179 1.396 . S
C180 C181 1.397 . S
C181 C180 1.397 . S
C181 C182 1.385 . S
C182 H165 0.940 . S
C182 C181 1.385 . S
C182 C183 1.388 . S
C183 H162 0.939 . S
C183 C178 1.391 . S
C183 C182 1.388 . S
P184 O195 1.490 . S
P184 C198 1.812 . S
P184 C204 1.803 . S
P184 C210 1.819 . S
H185 C199 0.941 . S
H186 C200 0.939 . S
H187 C202 0.940 . S
H188 C203 0.940 . S
H189 C205 0.939 . S
H190 C206 0.942 . S
H191 C208 0.940 . S
H192 C209 0.939 . S
H193 C211 0.941 . S
H194 C215 0.939 . S
O195 P184 1.490 . S
H196 C212 0.939 . S
H197 C214 0.940 1_655 S
C198 P184 1.812 . S
C198 C199 1.389 . S
C198 C203 1.391 . S
C199 H185 0.941 . S
C199 C198 1.389 . S
C199 C200 1.397 . S
C200 H186 0.939 . S
C200 C199 1.397 . S
C200 C201 1.378 . S
C201 C200 1.378 . S
C201 C202 1.378 . S
C202 H187 0.940 . S
C202 C201 1.378 . S
C202 C203 1.396 . S
C203 H188 0.940 . S
C203 C198 1.391 . S
C203 C202 1.396 . S
C204 P184 1.803 . S
C204 C205 1.378 . S
C204 C209 1.400 . S
C205 H189 0.939 . S
C205 C204 1.378 . S
C205 C206 1.361 1_455 S
C206 H190 0.942 . S
C206 C205 1.361 1_655 S
C206 C207 1.369 . S
C207 C206 1.369 . S
C207 C208 1.404 . S
C208 H191 0.940 . S
C208 C207 1.404 . S
C208 C209 1.389 1_655 S
C209 H192 0.939 . S
C209 C204 1.400 . S
C209 C208 1.389 1_455 S
C210 P184 1.819 . S
C210 C211 1.391 . S
C210 C215 1.391 . S
C211 H193 0.941 . S
C211 C210 1.391 . S
C211 C212 1.396 . S
C212 H196 0.939 . S
C212 C211 1.396 . S
C212 C213 1.397 . S
C213 C212 1.397 . S
C213 C214 1.385 . S
C214 H197 0.940 1_455 S
C214 C213 1.385 . S
C214 C215 1.388 . S
C215 H194 0.939 . S
C215 C210 1.391 . S
C215 C214 1.388 . S
P216 O227 1.490 . S
P216 C230 1.812 . S
P216 C236 1.803 1_455 S
P216 C242 1.819 . S
H217 C231 0.941 . S
H218 C232 0.939 . S
H219 C234 0.940 . S
H220 C235 0.940 . S
H221 C237 0.939 . S
H222 C238 0.942 . S
H223 C240 0.940 . S
H224 C241 0.939 . S
H225 C243 0.941 . S
H226 C247 0.939 . S
O227 P216 1.490 . S
H228 C244 0.939 . S
H229 C246 0.940 . S
C230 P216 1.812 . S
C230 C231 1.389 . S
C230 C235 1.391 . S
C231 H217 0.941 . S
C231 C230 1.389 . S
C231 C232 1.397 . S
C232 H218 0.939 . S
C232 C231 1.397 . S
C232 C233 1.378 . S
C233 C232 1.378 . S
C233 C234 1.378 . S
C234 H219 0.940 . S
C234 C233 1.378 . S
C234 C235 1.396 . S
C235 H220 0.940 . S
C235 C230 1.391 . S
C235 C234 1.396 . S
C236 P216 1.803 1_655 S
C236 C237 1.378 . S
C236 C241 1.400 . S
C237 H221 0.939 . S
C237 C236 1.378 . S
C237 C238 1.361 . S
C238 H222 0.942 . S
C238 C237 1.361 . S
C238 C239 1.369 . S
C239 C238 1.369 . S
C239 C240 1.404 . S
C240 H223 0.940 . S
C240 C239 1.404 . S
C240 C241 1.389 . S
C241 H224 0.939 . S
C241 C236 1.400 . S
C241 C240 1.389 . S
C242 P216 1.819 . S
C242 C243 1.391 . S
C242 C247 1.391 1_455 S
C243 H225 0.941 . S
C243 C242 1.391 . S
C243 C244 1.396 . S
C244 H228 0.939 . S
C244 C243 1.396 . S
C244 C245 1.397 . S
C245 C244 1.397 . S
C245 C246 1.385 1_455 S
C246 H229 0.940 . S
C246 C245 1.385 1_655 S
C246 C247 1.388 . S
C247 H226 0.939 . S
C247 C242 1.391 1_655 S
C247 C246 1.388 . S
P248 O259 1.490 . S
P248 C262 1.812 . S
P248 C268 1.803 1_545 S
P248 C274 1.819 . S
H249 C263 0.941 . S
H250 C264 0.939 . S
H251 C266 0.940 . S
H252 C267 0.940 . S
H253 C269 0.939 . S
H254 C270 0.942 . S
H255 C272 0.940 . S
H256 C273 0.939 . S
H257 C275 0.941 . S
H258 C279 0.939 . S
O259 P248 1.490 . S
H260 C276 0.939 . S
H261 C278 0.940 . S
C262 P248 1.812 . S
C262 C263 1.389 . S
C262 C267 1.391 . S
C263 H249 0.941 . S
C263 C262 1.389 . S
C263 C264 1.397 . S
C264 H250 0.939 . S
C264 C263 1.397 . S
C264 C265 1.378 . S
C265 C264 1.378 . S
C265 C266 1.378 . S
C266 H251 0.940 . S
C266 C265 1.378 . S
C266 C267 1.396 . S
C267 H252 0.940 . S
C267 C262 1.391 . S
C267 C266 1.396 . S
C268 P248 1.803 1_565 S
C268 C269 1.378 . S
C268 C273 1.400 . S
C269 H253 0.939 . S
C269 C268 1.378 . S
C269 C270 1.361 . S
C270 H254 0.942 . S
C270 C269 1.361 . S
C270 C271 1.369 . S
C271 C270 1.369 . S
C271 C272 1.404 . S
C272 H255 0.940 . S
C272 C271 1.404 . S
C272 C273 1.389 . S
C273 H256 0.939 . S
C273 C268 1.400 . S
C273 C272 1.389 . S
C274 P248 1.819 . S
C274 C275 1.391 . S
C274 C279 1.391 1_545 S
C275 H257 0.941 . S
C275 C274 1.391 . S
C275 C276 1.396 . S
C276 H260 0.939 . S
C276 C275 1.396 . S
C276 C277 1.397 . S
C277 C276 1.397 . S
C277 C278 1.385 1_545 S
C278 H261 0.940 . S
C278 C277 1.385 1_565 S
C278 C279 1.388 . S
C279 H258 0.939 . S
C279 C274 1.391 1_565 S
C279 C278 1.388 . S
P280 O291 1.490 . S
P280 C294 1.812 . S
P280 C300 1.803 . S
P280 C306 1.819 . S
H281 C295 0.941 . S
H282 C296 0.939 . S
H283 C298 0.940 . S
H284 C299 0.940 . S
H285 C301 0.939 . S
H286 C302 0.942 . S
H287 C304 0.940 . S
H288 C305 0.939 . S
H289 C307 0.941 . S
H290 C311 0.939 . S
O291 P280 1.490 . S
H292 C308 0.939 . S
H293 C310 0.940 . S
C294 P280 1.812 . S
C294 C295 1.389 . S
C294 C299 1.391 . S
C295 H281 0.941 . S
C295 C294 1.389 . S
C295 C296 1.397 . S
C296 H282 0.939 . S
C296 C295 1.397 . S
C296 C297 1.378 . S
C297 C296 1.378 . S
C297 C298 1.378 . S
C298 H283 0.940 . S
C298 C297 1.378 . S
C298 C299 1.396 . S
C299 H284 0.940 . S
C299 C294 1.391 . S
C299 C298 1.396 . S
C300 P280 1.803 . S
C300 C301 1.378 . S
C300 C305 1.400 . S
C301 H285 0.939 . S
C301 C300 1.378 . S
C301 C302 1.361 . S
C302 H286 0.942 . S
C302 C301 1.361 . S
C302 C303 1.369 . S
C303 C302 1.369 . S
C303 C304 1.404 . S
C304 H287 0.940 . S
C304 C303 1.404 . S
C304 C305 1.389 . S
C305 H288 0.939 . S
C305 C300 1.400 . S
C305 C304 1.389 . S
C306 P280 1.819 . S
C306 C307 1.391 . S
C306 C311 1.391 . S
C307 H289 0.941 . S
C307 C306 1.391 . S
C307 C308 1.396 . S
C308 H292 0.939 . S
C308 C307 1.396 . S
C308 C309 1.397 . S
C309 C308 1.397 . S
C309 C310 1.385 . S
C310 H293 0.940 . S
C310 C309 1.385 . S
C310 C311 1.388 . S
C311 H290 0.939 . S
C311 C306 1.391 . S
C311 C310 1.388 . S
H312 C330 0.951 . S
H313 C332 0.951 . S
H314 C334 0.950 . S
H315 C335 0.950 . S
H316 C337 0.950 . S
H317 C340 0.950 . S
H318 C341 0.950 . S
H319 C343 0.950 . S
H320 C344 0.950 . S
H321 C345 0.951 . S
H322 C347 0.951 . S
H323 C349 0.950 . S
H324 C350 0.950 . S
H325 C352 0.950 . S
H326 C355 0.950 . S
H327 C356 0.950 . S
H328 C358 0.950 . S
H329 C359 0.950 . S
C330 H312 0.951 . S
C330 C331 1.366 . S
C330 C332 1.388 . S
C331 C330 1.366 . S
C331 C335 1.385 . S
C332 H313 0.951 . S
C332 C330 1.388 . S
C332 C333 1.366 . S
C333 C332 1.366 . S
C333 C334 1.414 . S
C333 C336 1.499 . S
C334 H314 0.950 . S
C334 C333 1.414 . S
C334 C335 1.374 . S
C335 H315 0.950 . S
C335 C331 1.385 . S
C335 C334 1.374 . S
C336 C333 1.499 . S
C336 C337 1.373 . S
C336 C338 1.389 . S
C337 H316 0.950 . S
C337 C336 1.373 . S
C337 C353 1.377 . S
C338 C336 1.389 . S
C338 C339 1.524 . S
C338 C352 1.377 . S
C339 C338 1.524 . S
C339 C340 1.397 . S
C339 C344 1.363 . S
C340 H317 0.950 . S
C340 C339 1.397 . S
C340 C341 1.334 . S
C341 H318 0.950 . S
C341 C340 1.334 . S
C341 C342 1.287 . S
C342 C341 1.287 . S
C342 C343 1.524 . S
C342 H361 0.913 . S
C343 H319 0.950 . S
C343 C342 1.524 . S
C343 C344 1.415 . S
C344 H320 0.950 . S
C344 C339 1.363 . S
C344 C343 1.415 . S
C345 H321 0.951 . S
C345 C346 1.366 . S
C345 C347 1.388 . S
C346 C345 1.366 . S
C346 C350 1.385 . S
C347 H322 0.951 . S
C347 C345 1.388 . S
C347 C348 1.366 . S
C348 C347 1.366 . S
C348 C349 1.414 . S
C348 C351 1.499 . S
C349 H323 0.950 . S
C349 C348 1.414 . S
C349 C350 1.374 . S
C350 H324 0.950 . S
C350 C346 1.385 . S
C350 C349 1.374 . S
C351 C348 1.499 . S
C351 C352 1.373 . S
C351 C353 1.389 . S
C352 H325 0.950 . S
C352 C338 1.377 . S
C352 C351 1.373 . S
C353 C337 1.377 . S
C353 C351 1.389 . S
C353 C354 1.524 . S
C354 C353 1.524 . S
C354 C355 1.397 . S
C354 C359 1.363 . S
C355 H326 0.950 . S
C355 C354 1.397 . S
C355 C356 1.334 . S
C356 H327 0.950 . S
C356 C355 1.334 . S
C356 C357 1.287 . S
C357 C356 1.287 . S
C357 C358 1.524 . S
C357 H360 0.999 . S
C358 H328 0.950 . S
C358 C357 1.524 . S
C358 C359 1.415 . S
C359 H329 0.950 . S
C359 C354 1.363 . S
C359 C358 1.415 . S
H360 C357 0.999 . S
H361 C342 0.913 . S
H362 C380 0.951 . S
H363 C382 0.951 . S
H364 C384 0.950 . S
H365 C385 0.950 . S
H366 C387 0.950 . S
H367 C390 0.950 . S
H368 C391 0.950 . S
H369 C393 0.950 . S
H370 C394 0.950 . S
H371 C395 0.951 . S
H372 C397 0.951 . S
H373 C399 0.950 . S
H374 C400 0.950 . S
H375 C402 0.950 . S
H376 C405 0.950 . S
H377 C406 0.950 . S
H378 C408 0.950 . S
H379 C409 0.950 . S
C380 H362 0.951 . S
C380 C381 1.366 . S
C380 C382 1.388 . S
C381 C380 1.366 . S
C381 C385 1.385 . S
C382 H363 0.951 . S
C382 C380 1.388 . S
C382 C383 1.366 . S
C383 C382 1.366 . S
C383 C384 1.414 . S
C383 C386 1.499 . S
C384 H364 0.950 . S
C384 C383 1.414 . S
C384 C385 1.374 . S
C385 H365 0.950 . S
C385 C381 1.385 . S
C385 C384 1.374 . S
C386 C383 1.499 . S
C386 C387 1.373 . S
C386 C388 1.389 . S
C387 H366 0.950 . S
C387 C386 1.373 . S
C387 C403 1.377 . S
C388 C386 1.389 . S
C388 C389 1.524 . S
C388 C402 1.377 . S
C389 C388 1.524 . S
C389 C390 1.397 . S
C389 C394 1.363 . S
C390 H367 0.950 . S
C390 C389 1.397 . S
C390 C391 1.334 . S
C391 H368 0.950 . S
C391 C390 1.334 . S
C391 C392 1.287 . S
C392 C391 1.287 . S
C392 C393 1.524 . S
C392 H411 0.913 . S
C393 H369 0.950 . S
C393 C392 1.524 . S
C393 C394 1.415 . S
C394 H370 0.950 . S
C394 C389 1.363 . S
C394 C393 1.415 . S
C395 H371 0.951 . S
C395 C396 1.366 . S
C395 C397 1.388 . S
C396 C395 1.366 . S
C396 C400 1.385 . S
C397 H372 0.951 . S
C397 C395 1.388 . S
C397 C398 1.366 . S
C398 C397 1.366 . S
C398 C399 1.414 . S
C398 C401 1.499 . S
C399 H373 0.950 . S
C399 C398 1.414 . S
C399 C400 1.374 . S
C400 H374 0.950 . S
C400 C396 1.385 . S
C400 C399 1.374 . S
C401 C398 1.499 . S
C401 C402 1.373 . S
C401 C403 1.389 . S
C402 H375 0.950 . S
C402 C388 1.377 . S
C402 C401 1.373 . S
C403 C387 1.377 . S
C403 C401 1.389 . S
C403 C404 1.524 . S
C404 C403 1.524 . S
C404 C405 1.397 . S
C404 C409 1.363 . S
C405 H376 0.950 . S
C405 C404 1.397 . S
C405 C406 1.334 . S
C406 H377 0.950 . S
C406 C405 1.334 . S
C406 C407 1.287 . S
C407 C406 1.287 . S
C407 C408 1.524 . S
C407 H410 0.999 . S
C408 H378 0.950 . S
C408 C407 1.524 . S
C408 C409 1.415 . S
C409 H379 0.950 . S
C409 C404 1.363 . S
C409 C408 1.415 . S
H410 C407 0.999 . S
H411 C392 0.913 . S
H412 C430 0.951 . S
H413 C432 0.951 . S
H414 C434 0.950 . S
H415 C435 0.950 . S
H416 C437 0.950 . S
H417 C440 0.950 . S
H418 C441 0.950 . S
H419 C443 0.950 . S
H420 C444 0.950 . S
H421 C445 0.951 . S
H422 C447 0.951 . S
H423 C449 0.950 . S
H424 C450 0.950 . S
H425 C452 0.950 . S
H426 C455 0.950 . S
H427 C456 0.950 . S
H428 C458 0.950 . S
H429 C459 0.950 . S
C430 H412 0.951 . S
C430 C431 1.366 . S
C430 C432 1.388 . S
C431 C430 1.366 . S
C431 C435 1.385 . S
C432 H413 0.951 . S
C432 C430 1.388 . S
C432 C433 1.366 . S
C433 C432 1.366 . S
C433 C434 1.414 . S
C433 C436 1.499 . S
C434 H414 0.950 . S
C434 C433 1.414 . S
C434 C435 1.374 . S
C435 H415 0.950 . S
C435 C431 1.385 . S
C435 C434 1.374 . S
C436 C433 1.499 . S
C436 C437 1.373 . S
C436 C438 1.389 . S
C437 H416 0.950 . S
C437 C436 1.373 . S
C437 C453 1.377 . S
C438 C436 1.389 . S
C438 C439 1.524 . S
C438 C452 1.377 . S
C439 C438 1.524 . S
C439 C440 1.397 . S
C439 C444 1.363 . S
C440 H417 0.950 . S
C440 C439 1.397 . S
C440 C441 1.334 . S
C441 H418 0.950 . S
C441 C440 1.334 . S
C441 C442 1.287 . S
C442 C441 1.287 . S
C442 C443 1.524 . S
C442 H461 0.913 . S
C443 H419 0.950 . S
C443 C442 1.524 . S
C443 C444 1.415 . S
C444 H420 0.950 . S
C444 C439 1.363 . S
C444 C443 1.415 . S
C445 H421 0.951 . S
C445 C446 1.366 . S
C445 C447 1.388 . S
C446 C445 1.366 . S
C446 C450 1.385 . S
C447 H422 0.951 . S
C447 C445 1.388 . S
C447 C448 1.366 . S
C448 C447 1.366 . S
C448 C449 1.414 . S
C448 C451 1.499 . S
C449 H423 0.950 . S
C449 C448 1.414 . S
C449 C450 1.374 . S
C450 H424 0.950 . S
C450 C446 1.385 . S
C450 C449 1.374 . S
C451 C448 1.499 . S
C451 C452 1.373 . S
C451 C453 1.389 . S
C452 H425 0.950 . S
C452 C438 1.377 . S
C452 C451 1.373 . S
C453 C437 1.377 . S
C453 C451 1.389 . S
C453 C454 1.524 . S
C454 C453 1.524 . S
C454 C455 1.397 . S
C454 C459 1.363 . S
C455 H426 0.950 . S
C455 C454 1.397 . S
C455 C456 1.334 . S
C456 H427 0.950 . S
C456 C455 1.334 . S
C456 C457 1.287 . S
C457 C456 1.287 . S
C457 C458 1.524 . S
C457 H460 0.999 . S
C458 H428 0.950 . S
C458 C457 1.524 . S
C458 C459 1.415 . S
C459 H429 0.950 . S
C459 C454 1.363 . S
C459 C458 1.415 . S
H460 C457 0.999 . S
H461 C442 0.913 . S
H462 C480 0.951 . S
H463 C482 0.951 . S
H464 C484 0.950 . S
H465 C485 0.950 . S
H466 C487 0.950 . S
H467 C490 0.950 . S
H468 C491 0.950 . S
H469 C493 0.950 . S
H470 C494 0.950 . S
H471 C495 0.951 . S
H472 C497 0.951 . S
H473 C499 0.950 . S
H474 C500 0.950 . S
H475 C502 0.950 . S
H476 C505 0.950 . S
H477 C506 0.950 . S
H478 C508 0.950 . S
H479 C509 0.950 . S
C480 H462 0.951 . S
C480 C481 1.366 . S
C480 C482 1.388 . S
C481 C480 1.366 . S
C481 C485 1.385 . S
C482 H463 0.951 . S
C482 C480 1.388 . S
C482 C483 1.366 . S
C483 C482 1.366 . S
C483 C484 1.414 . S
C483 C486 1.499 . S
C484 H464 0.950 . S
C484 C483 1.414 . S
C484 C485 1.374 . S
C485 H465 0.950 . S
C485 C481 1.385 . S
C485 C484 1.374 . S
C486 C483 1.499 . S
C486 C487 1.373 . S
C486 C488 1.389 . S
C487 H466 0.950 . S
C487 C486 1.373 . S
C487 C503 1.377 . S
C488 C486 1.389 . S
C488 C489 1.524 . S
C488 C502 1.377 . S
C489 C488 1.524 . S
C489 C490 1.397 . S
C489 C494 1.363 . S
C490 H467 0.950 . S
C490 C489 1.397 . S
C490 C491 1.334 . S
C491 H468 0.950 . S
C491 C490 1.334 . S
C491 C492 1.287 . S
C492 C491 1.287 . S
C492 C493 1.524 . S
C492 H511 0.913 . S
C493 H469 0.950 . S
C493 C492 1.524 . S
C493 C494 1.415 . S
C494 H470 0.950 . S
C494 C489 1.363 . S
C494 C493 1.415 . S
C495 H471 0.951 . S
C495 C496 1.366 . S
C495 C497 1.388 . S
C496 C495 1.366 . S
C496 C500 1.385 . S
C497 H472 0.951 . S
C497 C495 1.388 . S
C497 C498 1.366 . S
C498 C497 1.366 . S
C498 C499 1.414 . S
C498 C501 1.499 . S
C499 H473 0.950 . S
C499 C498 1.414 . S
C499 C500 1.374 . S
C500 H474 0.950 . S
C500 C496 1.385 . S
C500 C499 1.374 . S
C501 C498 1.499 . S
C501 C502 1.373 . S
C501 C503 1.389 . S
C502 H475 0.950 . S
C502 C488 1.377 . S
C502 C501 1.373 . S
C503 C487 1.377 . S
C503 C501 1.389 . S
C503 C504 1.524 . S
C504 C503 1.524 . S
C504 C505 1.397 . S
C504 C509 1.363 . S
C505 H476 0.950 . S
C505 C504 1.397 . S
C505 C506 1.334 . S
C506 H477 0.950 . S
C506 C505 1.334 . S
C506 C507 1.287 . S
C507 C506 1.287 . S
C507 C508 1.524 . S
C507 H510 0.999 . S
C508 H478 0.950 . S
C508 C507 1.524 . S
C508 C509 1.415 . S
C509 H479 0.950 . S
C509 C504 1.363 . S
C509 C508 1.415 . S
H510 C507 0.999 . S
H511 C492 0.913 . S
H512 C530 0.951 . S
H513 C532 0.951 . S
H514 C534 0.950 . S
H515 C535 0.950 . S
H516 C537 0.950 . S
H517 C540 0.950 . S
H518 C541 0.950 . S
H519 C543 0.950 . S
H520 C544 0.950 . S
H521 C545 0.951 . S
H522 C547 0.951 . S
H523 C549 0.950 . S
H524 C550 0.950 . S
H525 C552 0.950 . S
H526 C555 0.950 . S
H527 C556 0.950 . S
H528 C558 0.950 . S
H529 C559 0.950 . S
C530 H512 0.951 . S
C530 C531 1.366 . S
C530 C532 1.388 . S
C531 C530 1.366 . S
C531 C535 1.385 . S
C532 H513 0.951 . S
C532 C530 1.388 . S
C532 C533 1.366 . S
C533 C532 1.366 . S
C533 C534 1.414 . S
C533 C536 1.499 . S
C534 H514 0.950 . S
C534 C533 1.414 . S
C534 C535 1.374 . S
C535 H515 0.950 . S
C535 C531 1.385 . S
C535 C534 1.374 . S
C536 C533 1.499 . S
C536 C537 1.373 . S
C536 C538 1.389 . S
C537 H516 0.950 . S
C537 C536 1.373 . S
C537 C553 1.377 . S
C538 C536 1.389 . S
C538 C539 1.524 . S
C538 C552 1.377 . S
C539 C538 1.524 . S
C539 C540 1.397 . S
C539 C544 1.363 . S
C540 H517 0.950 . S
C540 C539 1.397 . S
C540 C541 1.334 . S
C541 H518 0.950 . S
C541 C540 1.334 . S
C541 C542 1.287 . S
C542 C541 1.287 . S
C542 C543 1.524 . S
C542 H561 0.913 . S
C543 H519 0.950 . S
C543 C542 1.524 . S
C543 C544 1.415 . S
C544 H520 0.950 . S
C544 C539 1.363 . S
C544 C543 1.415 . S
C545 H521 0.951 . S
C545 C546 1.366 . S
C545 C547 1.388 . S
C546 C545 1.366 . S
C546 C550 1.385 . S
C547 H522 0.951 . S
C547 C545 1.388 . S
C547 C548 1.366 . S
C548 C547 1.366 . S
C548 C549 1.414 . S
C548 C551 1.499 . S
C549 H523 0.950 . S
C549 C548 1.414 . S
C549 C550 1.374 . S
C550 H524 0.950 . S
C550 C546 1.385 . S
C550 C549 1.374 . S
C551 C548 1.499 . S
C551 C552 1.373 . S
C551 C553 1.389 . S
C552 H525 0.950 . S
C552 C538 1.377 . S
C552 C551 1.373 . S
C553 C537 1.377 . S
C553 C551 1.389 . S
C553 C554 1.524 . S
C554 C553 1.524 . S
C554 C555 1.397 . S
C554 C559 1.363 . S
C555 H526 0.950 . S
C555 C554 1.397 . S
C555 C556 1.334 . S
C556 H527 0.950 . S
C556 C555 1.334 . S
C556 C557 1.287 . S
C557 C556 1.287 . S
C557 C558 1.524 . S
C557 H560 0.999 . S
C558 H528 0.950 . S
C558 C557 1.524 . S
C558 C559 1.415 . S
C559 H529 0.950 . S
C559 C554 1.363 . S
C559 C558 1.415 . S
H560 C557 0.999 . S
H561 C542 0.913 . S
H562 C580 0.951 . S
H563 C582 0.951 . S
H564 C584 0.950 . S
H565 C585 0.950 . S
H566 C587 0.950 . S
H567 C590 0.950 . S
H568 C591 0.950 . S
H569 C593 0.950 . S
H570 C594 0.950 . S
H571 C595 0.951 . S
H572 C597 0.951 . S
H573 C599 0.950 . S
H574 C600 0.950 . S
H575 C602 0.950 . S
H576 C605 0.950 . S
H577 C606 0.950 . S
H578 C608 0.950 . S
H579 C609 0.950 . S
C580 H562 0.951 . S
C580 C581 1.366 . S
C580 C582 1.388 . S
C581 C580 1.366 . S
C581 C585 1.385 . S
C582 H563 0.951 . S
C582 C580 1.388 . S
C582 C583 1.366 . S
C583 C582 1.366 . S
C583 C584 1.414 . S
C583 C586 1.499 . S
C584 H564 0.950 . S
C584 C583 1.414 . S
C584 C585 1.374 . S
C585 H565 0.950 . S
C585 C581 1.385 . S
C585 C584 1.374 . S
C586 C583 1.499 . S
C586 C587 1.373 . S
C586 C588 1.389 . S
C587 H566 0.950 . S
C587 C586 1.373 . S
C587 C603 1.377 . S
C588 C586 1.389 . S
C588 C589 1.524 . S
C588 C602 1.377 . S
C589 C588 1.524 . S
C589 C590 1.397 . S
C589 C594 1.363 . S
C590 H567 0.950 . S
C590 C589 1.397 . S
C590 C591 1.334 . S
C591 H568 0.950 . S
C591 C590 1.334 . S
C591 C592 1.287 . S
C592 C591 1.287 . S
C592 C593 1.524 . S
C592 H611 0.913 . S
C593 H569 0.950 . S
C593 C592 1.524 . S
C593 C594 1.415 . S
C594 H570 0.950 . S
C594 C589 1.363 . S
C594 C593 1.415 . S
C595 H571 0.951 . S
C595 C596 1.366 . S
C595 C597 1.388 . S
C596 C595 1.366 . S
C596 C600 1.385 . S
C597 H572 0.951 . S
C597 C595 1.388 . S
C597 C598 1.366 . S
C598 C597 1.366 . S
C598 C599 1.414 . S
C598 C601 1.499 . S
C599 H573 0.950 . S
C599 C598 1.414 . S
C599 C600 1.374 . S
C600 H574 0.950 . S
C600 C596 1.385 . S
C600 C599 1.374 . S
C601 C598 1.499 . S
C601 C602 1.373 . S
C601 C603 1.389 . S
C602 H575 0.950 . S
C602 C588 1.377 . S
C602 C601 1.373 . S
C603 C587 1.377 . S
C603 C601 1.389 . S
C603 C604 1.524 . S
C604 C603 1.524 . S
C604 C605 1.397 . S
C604 C609 1.363 . S
C605 H576 0.950 . S
C605 C604 1.397 . S
C605 C606 1.334 . S
C606 H577 0.950 . S
C606 C605 1.334 . S
C606 C607 1.287 . S
C607 C606 1.287 . S
C607 C608 1.524 . S
C607 H610 0.999 . S
C608 H578 0.950 . S
C608 C607 1.524 . S
C608 C609 1.415 . S
C609 H579 0.950 . S
C609 C604 1.363 . S
C609 C608 1.415 . S
H610 C607 0.999 . S
H611 C592 0.913 . S
H612 C630 0.951 . S
H613 C632 0.951 . S
H614 C634 0.950 . S
H615 C635 0.950 . S
H616 C637 0.950 . S
H617 C640 0.950 . S
H618 C641 0.950 . S
H619 C643 0.950 . S
H620 C644 0.950 . S
H621 C645 0.951 . S
H622 C647 0.951 . S
H623 C649 0.950 . S
H624 C650 0.950 . S
H625 C652 0.950 . S
H626 C655 0.950 . S
H627 C656 0.950 . S
H628 C658 0.950 . S
H629 C659 0.950 . S
C630 H612 0.951 . S
C630 C631 1.366 . S
C630 C632 1.388 . S
C631 C630 1.366 . S
C631 C635 1.385 . S
C632 H613 0.951 . S
C632 C630 1.388 . S
C632 C633 1.366 . S
C633 C632 1.366 . S
C633 C634 1.414 . S
C633 C636 1.499 . S
C634 H614 0.950 . S
C634 C633 1.414 . S
C634 C635 1.374 . S
C635 H615 0.950 . S
C635 C631 1.385 . S
C635 C634 1.374 . S
C636 C633 1.499 . S
C636 C637 1.373 . S
C636 C638 1.389 . S
C637 H616 0.950 . S
C637 C636 1.373 . S
C637 C653 1.377 . S
C638 C636 1.389 . S
C638 C639 1.524 . S
C638 C652 1.377 . S
C639 C638 1.524 . S
C639 C640 1.397 . S
C639 C644 1.363 . S
C640 H617 0.950 . S
C640 C639 1.397 . S
C640 C641 1.334 . S
C641 H618 0.950 . S
C641 C640 1.334 . S
C641 C642 1.287 . S
C642 C641 1.287 . S
C642 C643 1.524 . S
C642 H661 0.913 . S
C643 H619 0.950 . S
C643 C642 1.524 . S
C643 C644 1.415 . S
C644 H620 0.950 . S
C644 C639 1.363 . S
C644 C643 1.415 . S
C645 H621 0.951 . S
C645 C646 1.366 . S
C645 C647 1.388 . S
C646 C645 1.366 . S
C646 C650 1.385 . S
C647 H622 0.951 . S
C647 C645 1.388 . S
C647 C648 1.366 . S
C648 C647 1.366 . S
C648 C649 1.414 . S
C648 C651 1.499 . S
C649 H623 0.950 . S
C649 C648 1.414 . S
C649 C650 1.374 . S
C650 H624 0.950 . S
C650 C646 1.385 . S
C650 C649 1.374 . S
C651 C648 1.499 . S
C651 C652 1.373 . S
C651 C653 1.389 . S
C652 H625 0.950 . S
C652 C638 1.377 . S
C652 C651 1.373 . S
C653 C637 1.377 . S
C653 C651 1.389 . S
C653 C654 1.524 . S
C654 C653 1.524 . S
C654 C655 1.397 . S
C654 C659 1.363 . S
C655 H626 0.950 . S
C655 C654 1.397 . S
C655 C656 1.334 . S
C656 H627 0.950 . S
C656 C655 1.334 . S
C656 C657 1.287 . S
C657 C656 1.287 . S
C657 C658 1.524 . S
C657 H660 0.999 . S
C658 H628 0.950 . S
C658 C657 1.524 . S
C658 C659 1.415 . S
C659 H629 0.950 . S
C659 C654 1.363 . S
C659 C658 1.415 . S
H660 C657 0.999 . S
H661 C642 0.913 . S
H662 C680 0.951 . S
H663 C682 0.951 . S
H664 C684 0.950 . S
H665 C685 0.950 . S
H666 C687 0.950 . S
H667 C690 0.950 . S
H668 C691 0.950 . S
H669 C693 0.950 . S
H670 C694 0.950 . S
H671 C695 0.951 . S
H672 C697 0.951 . S
H673 C699 0.950 . S
H674 C700 0.950 . S
H675 C702 0.950 . S
H676 C705 0.950 . S
H677 C706 0.950 . S
H678 C708 0.950 . S
H679 C709 0.950 . S
C680 H662 0.951 . S
C680 C681 1.366 . S
C680 C682 1.388 . S
C681 C680 1.366 . S
C681 C685 1.385 . S
C682 H663 0.951 . S
C682 C680 1.388 . S
C682 C683 1.366 . S
C683 C682 1.366 . S
C683 C684 1.414 . S
C683 C686 1.499 . S
C684 H664 0.950 . S
C684 C683 1.414 . S
C684 C685 1.374 . S
C685 H665 0.950 . S
C685 C681 1.385 . S
C685 C684 1.374 . S
C686 C683 1.499 . S
C686 C687 1.373 . S
C686 C688 1.389 . S
C687 H666 0.950 . S
C687 C686 1.373 . S
C687 C703 1.377 . S
C688 C686 1.389 . S
C688 C689 1.524 . S
C688 C702 1.377 . S
C689 C688 1.524 . S
C689 C690 1.397 . S
C689 C694 1.363 . S
C690 H667 0.950 . S
C690 C689 1.397 . S
C690 C691 1.334 . S
C691 H668 0.950 . S
C691 C690 1.334 . S
C691 C692 1.287 . S
C692 C691 1.287 . S
C692 C693 1.524 . S
C692 H711 0.913 . S
C693 H669 0.950 . S
C693 C692 1.524 . S
C693 C694 1.415 . S
C694 H670 0.950 . S
C694 C689 1.363 . S
C694 C693 1.415 . S
C695 H671 0.951 . S
C695 C696 1.366 . S
C695 C697 1.388 . S
C696 C695 1.366 . S
C696 C700 1.385 . S
C697 H672 0.951 . S
C697 C695 1.388 . S
C697 C698 1.366 . S
C698 C697 1.366 . S
C698 C699 1.414 . S
C698 C701 1.499 . S
C699 H673 0.950 . S
C699 C698 1.414 . S
C699 C700 1.374 . S
C700 H674 0.950 . S
C700 C696 1.385 . S
C700 C699 1.374 . S
C701 C698 1.499 . S
C701 C702 1.373 . S
C701 C703 1.389 . S
C702 H675 0.950 . S
C702 C688 1.377 . S
C702 C701 1.373 . S
C703 C687 1.377 . S
C703 C701 1.389 . S
C703 C704 1.524 . S
C704 C703 1.524 . S
C704 C705 1.397 . S
C704 C709 1.363 . S
C705 H676 0.950 . S
C705 C704 1.397 . S
C705 C706 1.334 . S
C706 H677 0.950 . S
C706 C705 1.334 . S
C706 C707 1.287 . S
C707 C706 1.287 . S
C707 C708 1.524 . S
C707 H710 0.999 . S
C708 H678 0.950 . S
C708 C707 1.524 . S
C708 C709 1.415 . S
C709 H679 0.950 . S
C709 C704 1.363 . S
C709 C708 1.415 . S
H710 C707 0.999 . S
H711 C692 0.913 . S
H712 C730 0.951 . S
H713 C732 0.951 . S
H714 C734 0.950 . S
H715 C735 0.950 . S
H716 C737 0.950 . S
H717 C740 0.950 . S
H718 C741 0.950 . S
H719 C743 0.950 . S
H720 C744 0.950 . S
H721 C745 0.951 . S
H722 C747 0.951 . S
H723 C749 0.950 . S
H724 C750 0.950 . S
H725 C752 0.950 . S
H726 C755 0.950 . S
H727 C756 0.950 . S
H728 C758 0.950 . S
H729 C759 0.950 . S
C730 H712 0.951 . S
C730 C731 1.366 . S
C730 C732 1.388 . S
C731 C730 1.366 . S
C731 C735 1.385 . S
C732 H713 0.951 . S
C732 C730 1.388 . S
C732 C733 1.366 . S
C733 C732 1.366 . S
C733 C734 1.414 . S
C733 C736 1.499 . S
C734 H714 0.950 . S
C734 C733 1.414 . S
C734 C735 1.374 . S
C735 H715 0.950 . S
C735 C731 1.385 . S
C735 C734 1.374 . S
C736 C733 1.499 . S
C736 C737 1.373 . S
C736 C738 1.389 . S
C737 H716 0.950 . S
C737 C736 1.373 . S
C737 C753 1.377 . S
C738 C736 1.389 . S
C738 C739 1.524 . S
C738 C752 1.377 . S
C739 C738 1.524 . S
C739 C740 1.397 . S
C739 C744 1.363 . S
C740 H717 0.950 . S
C740 C739 1.397 . S
C740 C741 1.334 . S
C741 H718 0.950 . S
C741 C740 1.334 . S
C741 C742 1.287 . S
C742 C741 1.287 . S
C742 C743 1.524 . S
C742 H761 0.913 . S
C743 H719 0.950 . S
C743 C742 1.524 . S
C743 C744 1.415 . S
C744 H720 0.950 . S
C744 C739 1.363 . S
C744 C743 1.415 . S
C745 H721 0.951 . S
C745 C746 1.366 . S
C745 C747 1.388 . S
C746 C745 1.366 . S
C746 C750 1.385 . S
C747 H722 0.951 . S
C747 C745 1.388 . S
C747 C748 1.366 . S
C748 C747 1.366 . S
C748 C749 1.414 . S
C748 C751 1.499 . S
C749 H723 0.950 . S
C749 C748 1.414 . S
C749 C750 1.374 . S
C750 H724 0.950 . S
C750 C746 1.385 . S
C750 C749 1.374 . S
C751 C748 1.499 . S
C751 C752 1.373 . S
C751 C753 1.389 . S
C752 H725 0.950 . S
C752 C738 1.377 . S
C752 C751 1.373 . S
C753 C737 1.377 . S
C753 C751 1.389 . S
C753 C754 1.524 . S
C754 C753 1.524 . S
C754 C755 1.397 . S
C754 C759 1.363 . S
C755 H726 0.950 . S
C755 C754 1.397 . S
C755 C756 1.334 . S
C756 H727 0.950 . S
C756 C755 1.334 . S
C756 C757 1.287 . S
C757 C756 1.287 . S
C757 C758 1.524 . S
C757 H760 0.999 . S
C758 H728 0.950 . S
C758 C757 1.524 . S
C758 C759 1.415 . S
C759 H729 0.950 . S
C759 C754 1.363 . S
C759 C758 1.415 . S
H760 C757 0.999 . S
H761 C742 0.913 . S
H762 C780 0.951 . S
H763 C782 0.951 . S
H764 C784 0.950 . S
H765 C785 0.950 . S
H766 C787 0.950 . S
H767 C790 0.950 . S
H768 C791 0.950 . S
H769 C793 0.950 . S
H770 C794 0.950 . S
H771 C795 0.951 . S
H772 C797 0.951 . S
H773 C799 0.950 . S
H774 C800 0.950 . S
H775 C802 0.950 . S
H776 C805 0.950 . S
H777 C806 0.950 . S
H778 C808 0.950 . S
H779 C809 0.950 . S
C780 H762 0.951 . S
C780 C781 1.366 . S
C780 C782 1.388 . S
C781 C780 1.366 . S
C781 C785 1.385 . S
C782 H763 0.951 . S
C782 C780 1.388 . S
C782 C783 1.366 . S
C783 C782 1.366 . S
C783 C784 1.414 . S
C783 C786 1.499 . S
C784 H764 0.950 . S
C784 C783 1.414 . S
C784 C785 1.374 . S
C785 H765 0.950 . S
C785 C781 1.385 . S
C785 C784 1.374 . S
C786 C783 1.499 . S
C786 C787 1.373 . S
C786 C788 1.389 . S
C787 H766 0.950 . S
C787 C786 1.373 . S
C787 C803 1.377 . S
C788 C786 1.389 . S
C788 C789 1.524 . S
C788 C802 1.377 . S
C789 C788 1.524 . S
C789 C790 1.397 . S
C789 C794 1.363 . S
C790 H767 0.950 . S
C790 C789 1.397 . S
C790 C791 1.334 . S
C791 H768 0.950 . S
C791 C790 1.334 . S
C791 C792 1.287 . S
C792 C791 1.287 . S
C792 C793 1.524 . S
C792 H811 0.913 . S
C793 H769 0.950 . S
C793 C792 1.524 . S
C793 C794 1.415 . S
C794 H770 0.950 . S
C794 C789 1.363 . S
C794 C793 1.415 . S
C795 H771 0.951 . S
C795 C796 1.366 . S
C795 C797 1.388 . S
C796 C795 1.366 . S
C796 C800 1.385 . S
C797 H772 0.951 . S
C797 C795 1.388 . S
C797 C798 1.366 . S
C798 C797 1.366 . S
C798 C799 1.414 . S
C798 C801 1.499 . S
C799 H773 0.950 . S
C799 C798 1.414 . S
C799 C800 1.374 . S
C800 H774 0.950 . S
C800 C796 1.385 . S
C800 C799 1.374 . S
C801 C798 1.499 . S
C801 C802 1.373 . S
C801 C803 1.389 . S
C802 H775 0.950 . S
C802 C788 1.377 . S
C802 C801 1.373 . S
C803 C787 1.377 . S
C803 C801 1.389 . S
C803 C804 1.524 . S
C804 C803 1.524 . S
C804 C805 1.397 . S
C804 C809 1.363 . S
C805 H776 0.950 . S
C805 C804 1.397 . S
C805 C806 1.334 . S
C806 H777 0.950 . S
C806 C805 1.334 . S
C806 C807 1.287 . S
C807 C806 1.287 . S
C807 C808 1.524 . S
C807 H810 0.999 . S
C808 H778 0.950 . S
C808 C807 1.524 . S
C808 C809 1.415 . S
C809 H779 0.950 . S
C809 C804 1.363 . S
C809 C808 1.415 . S
H810 C807 0.999 . S
H811 C792 0.913 . S
H812 C830 0.951 . S
H813 C832 0.951 . S
H814 C834 0.950 . S
H815 C835 0.950 . S
H816 C837 0.950 . S
H817 C840 0.950 . S
H818 C841 0.950 . S
H819 C843 0.950 . S
H820 C844 0.950 . S
H821 C845 0.951 . S
H822 C847 0.951 . S
H823 C849 0.950 . S
H824 C850 0.950 . S
H825 C852 0.950 . S
H826 C855 0.950 . S
H827 C856 0.950 . S
H828 C858 0.950 . S
H829 C859 0.950 . S
C830 H812 0.951 . S
C830 C831 1.366 . S
C830 C832 1.388 . S
C831 C830 1.366 . S
C831 C835 1.385 . S
C832 H813 0.951 . S
C832 C830 1.388 . S
C832 C833 1.366 . S
C833 C832 1.366 . S
C833 C834 1.414 . S
C833 C836 1.499 . S
C834 H814 0.950 . S
C834 C833 1.414 . S
C834 C835 1.374 . S
C835 H815 0.950 . S
C835 C831 1.385 . S
C835 C834 1.374 . S
C836 C833 1.499 . S
C836 C837 1.373 . S
C836 C838 1.389 . S
C837 H816 0.950 . S
C837 C836 1.373 . S
C837 C853 1.377 . S
C838 C836 1.389 . S
C838 C839 1.524 . S
C838 C852 1.377 . S
C839 C838 1.524 . S
C839 C840 1.397 . S
C839 C844 1.363 . S
C840 H817 0.950 . S
C840 C839 1.397 . S
C840 C841 1.334 . S
C841 H818 0.950 . S
C841 C840 1.334 . S
C841 C842 1.287 . S
C842 C841 1.287 . S
C842 C843 1.524 . S
C842 H861 0.913 . S
C843 H819 0.950 . S
C843 C842 1.524 . S
C843 C844 1.415 . S
C844 H820 0.950 . S
C844 C839 1.363 . S
C844 C843 1.415 . S
C845 H821 0.951 . S
C845 C846 1.366 . S
C845 C847 1.388 . S
C846 C845 1.366 . S
C846 C850 1.385 . S
C847 H822 0.951 . S
C847 C845 1.388 . S
C847 C848 1.366 . S
C848 C847 1.366 . S
C848 C849 1.414 . S
C848 C851 1.499 . S
C849 H823 0.950 . S
C849 C848 1.414 . S
C849 C850 1.374 . S
C850 H824 0.950 . S
C850 C846 1.385 . S
C850 C849 1.374 . S
C851 C848 1.499 . S
C851 C852 1.373 . S
C851 C853 1.389 . S
C852 H825 0.950 . S
C852 C838 1.377 . S
C852 C851 1.373 . S
C853 C837 1.377 . S
C853 C851 1.389 . S
C853 C854 1.524 . S
C854 C853 1.524 . S
C854 C855 1.397 . S
C854 C859 1.363 . S
C855 H826 0.950 . S
C855 C854 1.397 . S
C855 C856 1.334 . S
C856 H827 0.950 . S
C856 C855 1.334 . S
C856 C857 1.287 . S
C857 C856 1.287 . S
C857 C858 1.524 . S
C857 H860 0.999 . S
C858 H828 0.950 . S
C858 C857 1.524 . S
C858 C859 1.415 . S
C859 H829 0.950 . S
C859 C854 1.363 . S
C859 C858 1.415 . S
H860 C857 0.999 . S
H861 C842 0.913 . S
H862 C880 0.951 . S
H863 C882 0.951 . S
H864 C884 0.950 . S
H865 C885 0.950 . S
H866 C887 0.950 . S
H867 C890 0.950 . S
H868 C891 0.950 . S
H869 C893 0.950 . S
H870 C894 0.950 . S
H871 C895 0.951 . S
H872 C897 0.951 . S
H873 C899 0.950 . S
H874 C900 0.950 . S
H875 C902 0.950 . S
H876 C905 0.950 . S
H877 C906 0.950 . S
H878 C908 0.950 . S
H879 C909 0.950 . S
C880 H862 0.951 . S
C880 C881 1.366 . S
C880 C882 1.388 . S
C881 C880 1.366 . S
C881 C885 1.385 . S
C882 H863 0.951 . S
C882 C880 1.388 . S
C882 C883 1.366 . S
C883 C882 1.366 . S
C883 C884 1.414 . S
C883 C886 1.499 . S
C884 H864 0.950 . S
C884 C883 1.414 . S
C884 C885 1.374 . S
C885 H865 0.950 . S
C885 C881 1.385 . S
C885 C884 1.374 . S
C886 C883 1.499 . S
C886 C887 1.373 . S
C886 C888 1.389 . S
C887 H866 0.950 . S
C887 C886 1.373 . S
C887 C903 1.377 . S
C888 C886 1.389 . S
C888 C889 1.524 . S
C888 C902 1.377 . S
C889 C888 1.524 . S
C889 C890 1.397 . S
C889 C894 1.363 . S
C890 H867 0.950 . S
C890 C889 1.397 . S
C890 C891 1.334 . S
C891 H868 0.950 . S
C891 C890 1.334 . S
C891 C892 1.287 . S
C892 C891 1.287 . S
C892 C893 1.524 . S
C892 H911 0.913 . S
C893 H869 0.950 . S
C893 C892 1.524 . S
C893 C894 1.415 . S
C894 H870 0.950 . S
C894 C889 1.363 . S
C894 C893 1.415 . S
C895 H871 0.951 . S
C895 C896 1.366 . S
C895 C897 1.388 . S
C896 C895 1.366 . S
C896 C900 1.385 . S
C897 H872 0.951 . S
C897 C895 1.388 . S
C897 C898 1.366 . S
C898 C897 1.366 . S
C898 C899 1.414 . S
C898 C901 1.499 . S
C899 H873 0.950 . S
C899 C898 1.414 . S
C899 C900 1.374 . S
C900 H874 0.950 . S
C900 C896 1.385 . S
C900 C899 1.374 . S
C901 C898 1.499 . S
C901 C902 1.373 . S
C901 C903 1.389 . S
C902 H875 0.950 . S
C902 C888 1.377 . S
C902 C901 1.373 . S
C903 C887 1.377 . S
C903 C901 1.389 . S
C903 C904 1.524 . S
C904 C903 1.524 . S
C904 C905 1.397 . S
C904 C909 1.363 . S
C905 H876 0.950 . S
C905 C904 1.397 . S
C905 C906 1.334 . S
C906 H877 0.950 . S
C906 C905 1.334 . S
C906 C907 1.287 . S
C907 C906 1.287 . S
C907 C908 1.524 . S
C907 H910 0.999 . S
C908 H878 0.950 . S
C908 C907 1.524 . S
C908 C909 1.415 . S
C909 H879 0.950 . S
C909 C904 1.363 . S
C909 C908 1.415 . S
H910 C907 0.999 . S
H911 C892 0.913 . S
H912 C930 0.951 . S
H913 C932 0.951 . S
H914 C934 0.950 . S
H915 C935 0.950 . S
H916 C937 0.950 . S
H917 C940 0.950 . S
H918 C941 0.950 . S
H919 C943 0.950 . S
H920 C944 0.950 . S
H921 C945 0.951 . S
H922 C947 0.940 1_554 S
H923 C949 0.919 1_554 S
H924 C950 0.950 . S
H925 C952 0.950 1_655 S
H926 C955 0.950 . S
H927 C956 0.950 . S
H928 C958 0.950 . S
H929 C959 0.950 . S
C930 H912 0.951 . S
C930 C931 1.366 . S
C930 C932 1.388 . S
C931 C930 1.366 . S
C931 C935 1.385 . S
C932 H913 0.951 . S
C932 C930 1.388 . S
C932 C933 1.366 . S
C933 C932 1.366 . S
C933 C934 1.414 . S
C933 C936 1.499 . S
C934 H914 0.950 . S
C934 C933 1.414 . S
C934 C935 1.374 . S
C935 H915 0.950 . S
C935 C931 1.385 . S
C935 C934 1.374 . S
C936 C933 1.499 . S
C936 C937 1.373 . S
C936 C938 1.389 . S
C937 H916 0.950 . S
C937 C936 1.373 . S
C937 C953 1.377 . S
C938 C936 1.389 . S
C938 C939 1.524 1_455 S
C938 C952 1.377 . S
C939 C938 1.524 1_655 S
C939 C940 1.397 . S
C939 C944 1.363 . S
C940 H917 0.950 . S
C940 C939 1.397 . S
C940 C941 1.334 . S
C941 H918 0.950 . S
C941 C940 1.334 . S
C941 C942 1.287 . S
C942 C941 1.287 . S
C942 C943 1.524 . S
C942 H961 0.913 . S
C943 H919 0.950 . S
C943 C942 1.524 . S
C943 C944 1.415 . S
C944 H920 0.950 . S
C944 C939 1.363 . S
C944 C943 1.415 . S
C945 H921 0.951 . S
C945 C946 1.366 . S
C945 C947 1.388 . S
C946 C945 1.366 . S
C946 C950 1.385 . S
C947 H922 0.940 1_556 S
C947 C945 1.388 . S
C947 C948 1.366 1_556 S
C948 C947 1.366 1_554 S
C948 C949 1.414 1_554 S
C948 C951 1.499 . S
C949 H923 0.919 1_556 S
C949 C948 1.414 1_556 S
C949 C950 1.374 . S
C950 H924 0.950 . S
C950 C946 1.385 . S
C950 C949 1.374 . S
C951 C948 1.499 . S
C951 C952 1.373 . S
C951 C953 1.389 . S
C952 H925 0.950 1_455 S
C952 C938 1.377 . S
C952 C951 1.373 . S
C953 C937 1.377 . S
C953 C951 1.389 . S
C953 C954 1.524 . S
C954 C953 1.524 . S
C954 C955 1.397 . S
C954 C959 1.363 . S
C955 H926 0.950 . S
C955 C954 1.397 . S
C955 C956 1.334 . S
C956 H927 0.950 . S
C956 C955 1.334 . S
C956 C957 1.287 . S
C957 C956 1.287 . S
C957 C958 1.524 . S
C957 H960 0.999 . S
C958 H928 0.950 . S
C958 C957 1.524 . S
C958 C959 1.415 . S
C959 H929 0.950 . S
C959 C954 1.363 . S
C959 C958 1.415 . S
H960 C957 0.999 . S
H961 C942 0.913 . S
H962 C980 0.951 . S
H963 C982 0.951 . S
H964 C984 0.950 . S
H965 C985 0.950 . S
H966 C987 0.950 . S
H967 C990 0.950 . S
H968 C991 0.950 . S
H969 C993 0.950 . S
H970 C994 0.950 . S
H971 C995 0.951 . S
H972 C997 0.951 . S
H973 C999 0.950 . S
H974 C1000 0.950 . S
H975 C1002 0.950 . S
H976 C1005 0.950 . S
H977 C1006 0.950 . S
H978 C1008 0.950 . S
H979 C1009 0.950 . S
C980 H962 0.951 . S
C980 C981 1.366 1_565 S
C980 C982 1.388 . S
C981 C980 1.366 1_545 S
C981 C985 1.385 . S
C982 H963 0.951 . S
C982 C980 1.388 . S
C982 C983 1.366 1_565 S
C983 C982 1.366 1_545 S
C983 C984 1.414 . S
C983 C986 1.499 . S
C984 H964 0.950 . S
C984 C983 1.414 . S
C984 C985 1.374 . S
C985 H965 0.950 . S
C985 C981 1.385 . S
C985 C984 1.374 . S
C986 C983 1.499 . S
C986 C987 1.373 . S
C986 C988 1.389 1_545 S
C987 H966 0.950 . S
C987 C986 1.373 . S
C987 C1003 1.377 . S
C988 C986 1.389 1_565 S
C988 C989 1.524 . S
C988 C1002 1.377 . S
C989 C988 1.524 . S
C989 C990 1.397 . S
C989 C994 1.363 . S
C990 H967 0.950 . S
C990 C989 1.397 . S
C990 C991 1.334 . S
C991 H968 0.950 . S
C991 C990 1.334 . S
C991 C992 1.287 . S
C992 C991 1.287 . S
C992 C993 1.524 . S
C992 H1011 0.913 . S
C993 H969 0.950 . S
C993 C992 1.524 . S
C993 C994 1.415 . S
C994 H970 0.950 . S
C994 C989 1.363 . S
C994 C993 1.415 . S
C995 H971 0.951 . S
C995 C996 1.366 . S
C995 C997 1.388 . S
C996 C995 1.366 . S
C996 C1000 1.385 1_545 S
C997 H972 0.951 . S
C997 C995 1.388 . S
C997 C998 1.366 . S
C998 C997 1.366 . S
C998 C999 1.414 1_545 S
C998 C1001 1.499 . S
C999 H973 0.950 . S
C999 C998 1.414 1_565 S
C999 C1000 1.374 . S
C1000 H974 0.950 . S
C1000 C996 1.385 1_565 S
C1000 C999 1.374 . S
C1001 C998 1.499 . S
C1001 C1002 1.373 1_545 S
C1001 C1003 1.389 . S
C1002 H975 0.950 . S
C1002 C988 1.377 . S
C1002 C1001 1.373 1_565 S
C1003 C987 1.377 . S
C1003 C1001 1.389 . S
C1003 C1004 1.524 . S
C1004 C1003 1.524 . S
C1004 C1005 1.397 . S
C1004 C1009 1.363 . S
C1005 H976 0.950 . S
C1005 C1004 1.397 . S
C1005 C1006 1.334 . S
C1006 H977 0.950 . S
C1006 C1005 1.334 . S
C1006 C1007 1.287 . S
C1007 C1006 1.287 . S
C1007 C1008 1.524 . S
C1007 H1010 0.999 . S
C1008 H978 0.950 . S
C1008 C1007 1.524 . S
C1008 C1009 1.415 . S
C1009 H979 0.950 . S
C1009 C1004 1.363 . S
C1009 C1008 1.415 . S
H1010 C1007 0.999 . S
H1011 C992 0.913 . S
H1012 C1030 0.951 . S
H1013 C1032 0.951 . S
H1014 C1034 0.950 . S
H1015 C1035 0.950 . S
H1016 C1037 0.950 . S
H1017 C1040 0.950 . S
H1018 C1041 0.950 . S
H1019 C1043 0.950 . S
H1020 C1044 0.950 . S
H1021 C1045 0.951 . S
H1022 C1047 0.951 . S
H1023 C1049 0.950 . S
H1024 C1050 0.950 . S
H1025 C1052 0.950 . S
H1026 C1055 0.950 . S
H1027 C1056 0.950 . S
H1028 C1058 0.950 . S
H1029 C1059 0.950 . S
C1030 H1012 0.951 . S
C1030 C1031 1.366 . S
C1030 C1032 1.388 . S
C1031 C1030 1.366 . S
C1031 C1035 1.385 . S
C1032 H1013 0.951 . S
C1032 C1030 1.388 . S
C1032 C1033 1.366 . S
C1033 C1032 1.366 . S
C1033 C1034 1.414 . S
C1033 C1036 1.499 . S
C1034 H1014 0.950 . S
C1034 C1033 1.414 . S
C1034 C1035 1.374 . S
C1035 H1015 0.950 . S
C1035 C1031 1.385 . S
C1035 C1034 1.374 . S
C1036 C1033 1.499 . S
C1036 C1037 1.373 . S
C1036 C1038 1.389 . S
C1037 H1016 0.950 . S
C1037 C1036 1.373 . S
C1037 C1053 1.377 . S
C1038 C1036 1.389 . S
C1038 C1039 1.524 . S
C1038 C1052 1.377 . S
C1039 C1038 1.524 . S
C1039 C1040 1.397 . S
C1039 C1044 1.363 . S
C1040 H1017 0.950 . S
C1040 C1039 1.397 . S
C1040 C1041 1.334 . S
C1041 H1018 0.950 . S
C1041 C1040 1.334 . S
C1041 C1042 1.287 . S
C1042 C1041 1.287 . S
C1042 C1043 1.524 . S
C1042 H1061 0.913 . S
C1043 H1019 0.950 . S
C1043 C1042 1.524 . S
C1043 C1044 1.415 . S
C1044 H1020 0.950 . S
C1044 C1039 1.363 . S
C1044 C1043 1.415 . S
C1045 H1021 0.951 . S
C1045 C1046 1.366 . S
C1045 C1047 1.388 . S
C1046 C1045 1.366 . S
C1046 C1050 1.385 . S
C1047 H1022 0.951 . S
C1047 C1045 1.388 . S
C1047 C1048 1.366 . S
C1048 C1047 1.366 . S
C1048 C1049 1.414 . S
C1048 C1051 1.499 . S
C1049 H1023 0.950 . S
C1049 C1048 1.414 . S
C1049 C1050 1.374 . S
C1050 H1024 0.950 . S
C1050 C1046 1.385 . S
C1050 C1049 1.374 . S
C1051 C1048 1.499 . S
C1051 C1052 1.373 . S
C1051 C1053 1.389 . S
C1052 H1025 0.950 . S
C1052 C1038 1.377 . S
C1052 C1051 1.373 . S
C1053 C1037 1.377 . S
C1053 C1051 1.389 . S
C1053 C1054 1.524 . S
C1054 C1053 1.524 . S
C1054 C1055 1.397 . S
C1054 C1059 1.363 . S
C1055 H1026 0.950 . S
C1055 C1054 1.397 . S
C1055 C1056 1.334 . S
C1056 H1027 0.950 . S
C1056 C1055 1.334 . S
C1056 C1057 1.287 . S
C1057 C1056 1.287 . S
C1057 C1058 1.524 . S
C1057 H1060 0.999 . S
C1058 H1028 0.950 . S
C1058 C1057 1.524 . S
C1058 C1059 1.415 . S
C1059 H1029 0.950 . S
C1059 C1054 1.363 . S
C1059 C1058 1.415 . S
H1060 C1057 0.999 . S
H1061 C1042 0.913 . S
H1062 C1080 0.951 . S
H1063 C1082 0.951 . S
H1064 C1084 0.950 . S
H1065 C1085 0.950 . S
H1066 C1087 0.950 . S
H1067 C1090 0.950 . S
H1068 C1091 0.950 . S
H1069 C1093 0.950 . S
H1070 C1094 0.950 . S
H1071 C1095 0.951 . S
H1072 C1097 0.951 . S
H1073 C1099 0.950 . S
H1074 C1100 0.950 . S
H1075 C1102 0.950 . S
H1076 C1105 0.950 . S
H1077 C1106 0.950 . S
H1078 C1108 0.950 . S
H1079 C1109 0.950 . S
C1080 H1062 0.951 . S
C1080 C1081 1.366 1_565 S
C1080 C1082 1.388 . S
C1081 C1080 1.366 1_545 S
C1081 C1085 1.385 . S
C1082 H1063 0.951 . S
C1082 C1080 1.388 . S
C1082 C1083 1.366 1_565 S
C1083 C1082 1.366 1_545 S
C1083 C1084 1.414 . S
C1083 C1086 1.499 . S
C1084 H1064 0.950 . S
C1084 C1083 1.414 . S
C1084 C1085 1.374 . S
C1085 H1065 0.950 . S
C1085 C1081 1.385 . S
C1085 C1084 1.374 . S
C1086 C1083 1.499 . S
C1086 C1087 1.373 . S
C1086 C1088 1.389 1_545 S
C1087 H1066 0.950 . S
C1087 C1086 1.373 . S
C1087 C1103 1.377 . S
C1088 C1086 1.389 1_565 S
C1088 C1089 1.524 . S
C1088 C1102 1.377 . S
C1089 C1088 1.524 . S
C1089 C1090 1.397 . S
C1089 C1094 1.363 . S
C1090 H1067 0.950 . S
C1090 C1089 1.397 . S
C1090 C1091 1.334 . S
C1091 H1068 0.950 . S
C1091 C1090 1.334 . S
C1091 C1092 1.287 . S
C1092 C1091 1.287 . S
C1092 C1093 1.524 . S
C1092 H1111 0.913 . S
C1093 H1069 0.950 . S
C1093 C1092 1.524 . S
C1093 C1094 1.415 . S
C1094 H1070 0.950 . S
C1094 C1089 1.363 . S
C1094 C1093 1.415 . S
C1095 H1071 0.951 . S
C1095 C1096 1.366 . S
C1095 C1097 1.388 . S
C1096 C1095 1.366 . S
C1096 C1100 1.385 1_545 S
C1097 H1072 0.951 . S
C1097 C1095 1.388 . S
C1097 C1098 1.366 . S
C1098 C1097 1.366 . S
C1098 C1099 1.414 1_545 S
C1098 C1101 1.499 . S
C1099 H1073 0.950 . S
C1099 C1098 1.414 1_565 S
C1099 C1100 1.374 . S
C1100 H1074 0.950 . S
C1100 C1096 1.385 1_565 S
C1100 C1099 1.374 . S
C1101 C1098 1.499 . S
C1101 C1102 1.373 1_545 S
C1101 C1103 1.389 . S
C1102 H1075 0.950 . S
C1102 C1088 1.377 . S
C1102 C1101 1.373 1_565 S
C1103 C1087 1.377 . S
C1103 C1101 1.389 . S
C1103 C1104 1.524 . S
C1104 C1103 1.524 . S
C1104 C1105 1.397 . S
C1104 C1109 1.363 . S
C1105 H1076 0.950 . S
C1105 C1104 1.397 . S
C1105 C1106 1.334 . S
C1106 H1077 0.950 . S
C1106 C1105 1.334 . S
C1106 C1107 1.287 . S
C1107 C1106 1.287 . S
C1107 C1108 1.524 . S
C1107 H1110 0.999 . S
C1108 H1078 0.950 . S
C1108 C1107 1.524 . S
C1108 C1109 1.415 . S
C1109 H1079 0.950 . S
C1109 C1104 1.363 . S
C1109 C1108 1.415 . S
H1110 C1107 0.999 . S
H1111 C1092 0.913 . S
H1112 C1130 0.951 . S
H1113 C1132 0.951 . S
H1114 C1134 0.950 . S
H1115 C1135 0.950 . S
H1116 C1137 0.950 . S
H1117 C1140 0.950 . S
H1118 C1141 0.950 . S
H1119 C1143 0.950 . S
H1120 C1144 0.950 . S
H1121 C1145 0.951 . S
H1122 C1147 0.951 1_556 S
H1123 C1149 0.950 . S
H1124 C1150 0.950 . S
H1125 C1152 0.950 . S
H1126 C1155 0.950 . S
H1127 C1156 0.970 . S
H1128 C1158 0.950 . S
H1129 C1159 0.950 . S
C1130 H1112 0.951 . S
C1130 C1131 1.366 . S
C1130 C1132 1.388 . S
C1131 C1130 1.366 . S
C1131 C1135 1.385 . S
C1132 H1113 0.951 . S
C1132 C1130 1.388 . S
C1132 C1133 1.366 . S
C1133 C1132 1.366 . S
C1133 C1134 1.414 . S
C1133 C1136 1.499 . S
C1134 H1114 0.950 . S
C1134 C1133 1.414 . S
C1134 C1135 1.374 . S
C1135 H1115 0.950 . S
C1135 C1131 1.385 . S
C1135 C1134 1.374 . S
C1136 C1133 1.499 . S
C1136 C1137 1.373 . S
C1136 C1138 1.389 . S
C1137 H1116 0.950 . S
C1137 C1136 1.373 . S
C1137 C1153 1.377 . S
C1138 C1136 1.389 . S
C1138 C1139 1.524 . S
C1138 C1152 1.377 . S
C1139 C1138 1.524 . S
C1139 C1140 1.397 . S
C1139 C1144 1.363 . S
C1140 H1117 0.950 . S
C1140 C1139 1.397 . S
C1140 C1141 1.334 . S
C1141 H1118 0.950 . S
C1141 C1140 1.334 . S
C1141 C1142 1.287 . S
C1142 C1141 1.287 . S
C1142 C1143 1.524 . S
C1142 H1161 0.913 . S
C1143 H1119 0.950 . S
C1143 C1142 1.524 . S
C1143 C1144 1.415 . S
C1144 H1120 0.950 . S
C1144 C1139 1.363 . S
C1144 C1143 1.415 . S
C1145 H1121 0.951 . S
C1145 C1146 1.366 . S
C1145 C1147 1.388 . S
C1146 C1145 1.366 . S
C1146 C1150 1.385 . S
C1147 H1122 0.951 1_554 S
C1147 C1145 1.388 . S
C1147 C1148 1.366 1_554 S
C1148 C1147 1.366 1_556 S
C1148 C1149 1.414 1_556 S
C1148 C1151 1.499 . S
C1149 H1123 0.950 . S
C1149 C1148 1.414 1_554 S
C1149 C1150 1.374 . S
C1150 H1124 0.950 . S
C1150 C1146 1.385 . S
C1150 C1149 1.374 . S
C1151 C1148 1.499 . S
C1151 C1152 1.373 . S
C1151 C1153 1.389 . S
C1152 H1125 0.950 . S
C1152 C1138 1.377 . S
C1152 C1151 1.373 . S
C1153 C1137 1.377 . S
C1153 C1151 1.389 . S
C1153 C1154 1.524 . S
C1154 C1153 1.524 . S
C1154 C1155 1.397 . S
C1154 C1159 1.363 . S
C1155 H1126 0.950 . S
C1155 C1154 1.397 . S
C1155 C1156 1.334 . S
C1156 H1127 0.970 . S
C1156 C1155 1.334 . S
C1156 C1157 1.287 . S
C1157 C1156 1.287 . S
C1157 C1158 1.524 . S
C1157 H1160 0.999 . S
C1158 H1128 0.950 . S
C1158 C1157 1.524 . S
C1158 C1159 1.415 . S
C1159 H1129 0.950 . S
C1159 C1154 1.363 . S
C1159 C1158 1.415 . S
H1160 C1157 0.999 . S
H1161 C1142 0.913 . S
H1162 C1180 0.951 . S
H1163 C1182 0.951 . S
H1164 C1184 0.950 . S
H1165 C1185 0.950 . S
H1166 C1187 0.950 . S
H1167 C1190 0.950 . S
H1168 C1191 0.950 . S
H1169 C1193 0.950 . S
H1170 C1194 0.950 . S
H1171 C1195 0.957 1_655 S
H1172 C1197 0.938 . S
H1173 C1199 0.950 . S
H1174 C1200 0.950 . S
H1175 C1202 0.950 . S
H1176 C1205 0.950 . S
H1177 C1206 0.950 . S
H1178 C1208 0.950 . S
H1179 C1209 0.950 . S
C1180 H1162 0.951 . S
C1180 C1181 1.366 . S
C1180 C1182 1.388 . S
C1181 C1180 1.366 . S
C1181 C1185 1.385 . S
C1182 H1163 0.951 . S
C1182 C1180 1.388 . S
C1182 C1183 1.366 . S
C1183 C1182 1.366 . S
C1183 C1184 1.414 . S
C1183 C1186 1.499 . S
C1184 H1164 0.950 . S
C1184 C1183 1.414 . S
C1184 C1185 1.374 . S
C1185 H1165 0.950 . S
C1185 C1181 1.385 . S
C1185 C1184 1.374 . S
C1186 C1183 1.499 . S
C1186 C1187 1.373 1_455 S
C1186 C1188 1.389 . S
C1187 H1166 0.950 . S
C1187 C1186 1.373 1_655 S
C1187 C1203 1.377 . S
C1188 C1186 1.389 . S
C1188 C1189 1.524 . S
C1188 C1202 1.377 . S
C1189 C1188 1.524 . S
C1189 C1190 1.397 . S
C1189 C1194 1.363 . S
C1190 H1167 0.950 . S
C1190 C1189 1.397 . S
C1190 C1191 1.334 . S
C1191 H1168 0.950 . S
C1191 C1190 1.334 . S
C1191 C1192 1.287 . S
C1192 C1191 1.287 . S
C1192 C1193 1.524 . S
C1192 H1211 0.913 . S
C1193 H1169 0.950 . S
C1193 C1192 1.524 . S
C1193 C1194 1.415 . S
C1194 H1170 0.950 . S
C1194 C1189 1.363 . S
C1194 C1193 1.415 . S
C1195 H1171 0.957 1_455 S
C1195 C1196 1.359 . S
C1195 C1197 1.388 . S
C1196 C1195 1.359 . S
C1196 C1200 1.385 . S
C1197 H1172 0.938 . S
C1197 C1195 1.388 . S
C1197 C1198 1.366 . S
C1198 C1197 1.366 . S
C1198 C1199 1.414 . S
C1198 C1201 1.499 . S
C1199 H1173 0.950 . S
C1199 C1198 1.414 . S
C1199 C1200 1.374 . S
C1200 H1174 0.950 . S
C1200 C1196 1.385 . S
C1200 C1199 1.374 . S
C1201 C1198 1.499 . S
C1201 C1202 1.373 . S
C1201 C1203 1.389 1_455 S
C1202 H1175 0.950 . S
C1202 C1188 1.377 . S
C1202 C1201 1.373 . S
C1203 C1187 1.377 . S
C1203 C1201 1.389 1_655 S
C1203 C1204 1.524 . S
C1204 C1203 1.524 . S
C1204 C1205 1.397 . S
C1204 C1209 1.363 . S
C1205 H1176 0.950 . S
C1205 C1204 1.397 . S
C1205 C1206 1.334 . S
C1206 H1177 0.950 . S
C1206 C1205 1.334 . S
C1206 C1207 1.287 . S
C1207 C1206 1.287 . S
C1207 C1208 1.524 . S
C1207 H1210 0.999 . S
C1208 H1178 0.950 . S
C1208 C1207 1.524 . S
C1208 C1209 1.415 . S
C1209 H1179 0.950 . S
C1209 C1204 1.363 . S
C1209 C1208 1.415 . S
H1210 C1207 0.999 . S
H1211 C1192 0.913 . S
C331 C7 0.439 . S
C346 C303 0.396 . S
C381 C51 1.843 . S
C396 C239 1.792 . S
C431 C87 1.160 . S
C446 C271 1.140 . S
C481 C16 0.361 . S
C496 C297 0.325 . S
C546 C233 1.871 . S
C531 C42 1.906 . S
C596 C265 1.229 . S
C581 C96 1.241 . S
C631 C47 1.160 . S
C646 C175 1.152 . S
C681 C91 3.011 . S
C696 C207 2.947 . S
C731 C2 1.934 . S
C746 C137 1.902 . S
C796 C169 1.217 . S
C781 C56 1.222 . S
C846 C201 2.902 . S
C831 C82 2.922 . S
C881 C11 1.834 . S
C896 C143 1.792 . S
C946 C213 1.726 . S
C931 C19 1.703 . S
C981 C50 1.351 . S
C996 C149 1.358 . S
C1031 C99 1.465 . S
C1046 C181 1.481 . S
C1096 C277 1.456 . S
C1081 C59 1.455 . S
C1146 C309 1.115 . S
C1131 C90 1.110 . S
C1181 C10 1.346 . S
C1196 C245 1.348 . S
