# Generated by pormake.
# Topology ptr, (4,4)-cn, num edge types: 1
# Building blocks:
#     Node 0, Type 0, BuildingBlock: NAHDIM_clean_sbu_0, # of connection points: 4
#     Node 1, Type 0, BuildingBlock: NAHDIM_clean_sbu_0, # of connection points: 4
#     Node 2, Type 0, BuildingBlock: NAHDIM_clean_sbu_0, # of connection points: 4
#     Node 3, Type 0, BuildingBlock: NAHDIM_clean_sbu_0, # of connection points: 4
#     Node 4, Type 0, BuildingBlock: NAHDIM_clean_sbu_0, # of connection points: 4
#     Node 5, Type 0, BuildingBlock: NAHDIM_clean_sbu_0, # of connection points: 4
#     Node 6, Type 0, BuildingBlock: NAHDIM_clean_sbu_0, # of connection points: 4
#     Node 7, Type 0, BuildingBlock: NAHDIM_clean_sbu_0, # of connection points: 4
#     Node 8, Type 0, BuildingBlock: NAHDIM_clean_sbu_0, # of connection points: 4
#     Node 9, Type 0, BuildingBlock: NAHDIM_clean_sbu_0, # of connection points: 4
#     Node 10, Type 0, BuildingBlock: NAHDIM_clean_sbu_0, # of connection points: 4
#     Node 11, Type 0, BuildingBlock: NAHDIM_clean_sbu_0, # of connection points: 4
#     Node 12, Type 0, BuildingBlock: NAHDIM_clean_sbu_0, # of connection points: 4
#     Node 13, Type 0, BuildingBlock: NAHDIM_clean_sbu_0, # of connection points: 4
#     Node 14, Type 0, BuildingBlock: NAHDIM_clean_sbu_0, # of connection points: 4
#     Node 15, Type 0, BuildingBlock: NAHDIM_clean_sbu_0, # of connection points: 4
#     Node 16, Type 0, BuildingBlock: NAHDIM_clean_sbu_0, # of connection points: 4
#     Node 17, Type 0, BuildingBlock: NAHDIM_clean_sbu_0, # of connection points: 4
#     Node 18, Type 1, BuildingBlock: MIFKUJ_clean_linker_1, # of connection points: 4
#     Node 19, Type 1, BuildingBlock: MIFKUJ_clean_linker_1, # of connection points: 4
#     Node 20, Type 1, BuildingBlock: MIFKUJ_clean_linker_1, # of connection points: 4
#     Node 21, Type 1, BuildingBlock: MIFKUJ_clean_linker_1, # of connection points: 4
#     Node 22, Type 1, BuildingBlock: MIFKUJ_clean_linker_1, # of connection points: 4
#     Node 23, Type 1, BuildingBlock: MIFKUJ_clean_linker_1, # of connection points: 4
#     Node 24, Type 1, BuildingBlock: MIFKUJ_clean_linker_1, # of connection points: 4
#     Node 25, Type 1, BuildingBlock: MIFKUJ_clean_linker_1, # of connection points: 4
#     Node 26, Type 1, BuildingBlock: MIFKUJ_clean_linker_1, # of connection points: 4
#     Node 27, Type 1, BuildingBlock: MIFKUJ_clean_linker_1, # of connection points: 4
#     Node 28, Type 1, BuildingBlock: MIFKUJ_clean_linker_1, # of connection points: 4
#     Node 29, Type 1, BuildingBlock: MIFKUJ_clean_linker_1, # of connection points: 4
#     Node 30, Type 1, BuildingBlock: MIFKUJ_clean_linker_1, # of connection points: 4
#     Node 31, Type 1, BuildingBlock: MIFKUJ_clean_linker_1, # of connection points: 4
#     Node 32, Type 1, BuildingBlock: MIFKUJ_clean_linker_1, # of connection points: 4
#     Node 33, Type 1, BuildingBlock: MIFKUJ_clean_linker_1, # of connection points: 4
#     Node 34, Type 1, BuildingBlock: MIFKUJ_clean_linker_1, # of connection points: 4
#     Node 35, Type 1, BuildingBlock: MIFKUJ_clean_linker_1, # of connection points: 4
#     Edge 36, Type (0, 1), BuildingBlock: XIVTED_clean_linker_0, # of connection points: 2
#     Edge 37, Type (0, 1), BuildingBlock: XIVTED_clean_linker_0, # of connection points: 2
#     Edge 38, Type (0, 1), BuildingBlock: XIVTED_clean_linker_0, # of connection points: 2
#     Edge 39, Type (0, 1), BuildingBlock: XIVTED_clean_linker_0, # of connection points: 2
#     Edge 40, Type (0, 1), BuildingBlock: XIVTED_clean_linker_0, # of connection points: 2
#     Edge 41, Type (0, 1), BuildingBlock: XIVTED_clean_linker_0, # of connection points: 2
#     Edge 42, Type (0, 1), BuildingBlock: XIVTED_clean_linker_0, # of connection points: 2
#     Edge 43, Type (0, 1), BuildingBlock: XIVTED_clean_linker_0, # of connection points: 2
#     Edge 44, Type (0, 1), BuildingBlock: XIVTED_clean_linker_0, # of connection points: 2
#     Edge 45, Type (0, 1), BuildingBlock: XIVTED_clean_linker_0, # of connection points: 2
#     Edge 46, Type (0, 1), BuildingBlock: XIVTED_clean_linker_0, # of connection points: 2
#     Edge 47, Type (0, 1), BuildingBlock: XIVTED_clean_linker_0, # of connection points: 2
#     Edge 48, Type (0, 1), BuildingBlock: XIVTED_clean_linker_0, # of connection points: 2
#     Edge 49, Type (0, 1), BuildingBlock: XIVTED_clean_linker_0, # of connection points: 2
#     Edge 50, Type (0, 1), BuildingBlock: XIVTED_clean_linker_0, # of connection points: 2
#     Edge 51, Type (0, 1), BuildingBlock: XIVTED_clean_linker_0, # of connection points: 2
#     Edge 52, Type (0, 1), BuildingBlock: XIVTED_clean_linker_0, # of connection points: 2
#     Edge 53, Type (0, 1), BuildingBlock: XIVTED_clean_linker_0, # of connection points: 2
#     Edge 54, Type (0, 1), BuildingBlock: XIVTED_clean_linker_0, # of connection points: 2
#     Edge 55, Type (0, 1), BuildingBlock: XIVTED_clean_linker_0, # of connection points: 2
#     Edge 56, Type (0, 1), BuildingBlock: XIVTED_clean_linker_0, # of connection points: 2
#     Edge 57, Type (0, 1), BuildingBlock: XIVTED_clean_linker_0, # of connection points: 2
#     Edge 58, Type (0, 1), BuildingBlock: XIVTED_clean_linker_0, # of connection points: 2
#     Edge 59, Type (0, 1), BuildingBlock: XIVTED_clean_linker_0, # of connection points: 2
#     Edge 60, Type (0, 1), BuildingBlock: XIVTED_clean_linker_0, # of connection points: 2
#     Edge 61, Type (0, 1), BuildingBlock: XIVTED_clean_linker_0, # of connection points: 2
#     Edge 62, Type (0, 1), BuildingBlock: XIVTED_clean_linker_0, # of connection points: 2
#     Edge 63, Type (0, 1), BuildingBlock: XIVTED_clean_linker_0, # of connection points: 2
#     Edge 64, Type (0, 1), BuildingBlock: XIVTED_clean_linker_0, # of connection points: 2
#     Edge 65, Type (0, 1), BuildingBlock: XIVTED_clean_linker_0, # of connection points: 2
#     Edge 66, Type (0, 1), BuildingBlock: XIVTED_clean_linker_0, # of connection points: 2
#     Edge 67, Type (0, 1), BuildingBlock: XIVTED_clean_linker_0, # of connection points: 2
#     Edge 68, Type (0, 1), BuildingBlock: XIVTED_clean_linker_0, # of connection points: 2
#     Edge 69, Type (0, 1), BuildingBlock: XIVTED_clean_linker_0, # of connection points: 2
#     Edge 70, Type (0, 1), BuildingBlock: XIVTED_clean_linker_0, # of connection points: 2
#     Edge 71, Type (0, 1), BuildingBlock: XIVTED_clean_linker_0, # of connection points: 2
#     Edge 72, Type (0, 1), BuildingBlock: XIVTED_clean_linker_0, # of connection points: 2
#     Edge 73, Type (0, 1), BuildingBlock: XIVTED_clean_linker_0, # of connection points: 2
#     Edge 74, Type (0, 1), BuildingBlock: XIVTED_clean_linker_0, # of connection points: 2
#     Edge 75, Type (0, 1), BuildingBlock: XIVTED_clean_linker_0, # of connection points: 2
#     Edge 76, Type (0, 1), BuildingBlock: XIVTED_clean_linker_0, # of connection points: 2
#     Edge 77, Type (0, 1), BuildingBlock: XIVTED_clean_linker_0, # of connection points: 2
#     Edge 78, Type (0, 1), BuildingBlock: XIVTED_clean_linker_0, # of connection points: 2
#     Edge 79, Type (0, 1), BuildingBlock: XIVTED_clean_linker_0, # of connection points: 2
#     Edge 80, Type (0, 1), BuildingBlock: XIVTED_clean_linker_0, # of connection points: 2
#     Edge 81, Type (0, 1), BuildingBlock: XIVTED_clean_linker_0, # of connection points: 2
#     Edge 82, Type (0, 1), BuildingBlock: XIVTED_clean_linker_0, # of connection points: 2
#     Edge 83, Type (0, 1), BuildingBlock: XIVTED_clean_linker_0, # of connection points: 2
#     Edge 84, Type (0, 1), BuildingBlock: XIVTED_clean_linker_0, # of connection points: 2
#     Edge 85, Type (0, 1), BuildingBlock: XIVTED_clean_linker_0, # of connection points: 2
#     Edge 86, Type (0, 1), BuildingBlock: XIVTED_clean_linker_0, # of connection points: 2
#     Edge 87, Type (0, 1), BuildingBlock: XIVTED_clean_linker_0, # of connection points: 2
#     Edge 88, Type (0, 1), BuildingBlock: XIVTED_clean_linker_0, # of connection points: 2
#     Edge 89, Type (0, 1), BuildingBlock: XIVTED_clean_linker_0, # of connection points: 2
#     Edge 90, Type (0, 1), BuildingBlock: XIVTED_clean_linker_0, # of connection points: 2
#     Edge 91, Type (0, 1), BuildingBlock: XIVTED_clean_linker_0, # of connection points: 2
#     Edge 92, Type (0, 1), BuildingBlock: XIVTED_clean_linker_0, # of connection points: 2
#     Edge 93, Type (0, 1), BuildingBlock: XIVTED_clean_linker_0, # of connection points: 2
#     Edge 94, Type (0, 1), BuildingBlock: XIVTED_clean_linker_0, # of connection points: 2
#     Edge 95, Type (0, 1), BuildingBlock: XIVTED_clean_linker_0, # of connection points: 2
#     Edge 96, Type (0, 1), BuildingBlock: XIVTED_clean_linker_0, # of connection points: 2
#     Edge 97, Type (0, 1), BuildingBlock: XIVTED_clean_linker_0, # of connection points: 2
#     Edge 98, Type (0, 1), BuildingBlock: XIVTED_clean_linker_0, # of connection points: 2
#     Edge 99, Type (0, 1), BuildingBlock: XIVTED_clean_linker_0, # of connection points: 2
#     Edge 100, Type (0, 1), BuildingBlock: XIVTED_clean_linker_0, # of connection points: 2
#     Edge 101, Type (0, 1), BuildingBlock: XIVTED_clean_linker_0, # of connection points: 2
#     Edge 102, Type (0, 1), BuildingBlock: XIVTED_clean_linker_0, # of connection points: 2
#     Edge 103, Type (0, 1), BuildingBlock: XIVTED_clean_linker_0, # of connection points: 2
#     Edge 104, Type (0, 1), BuildingBlock: XIVTED_clean_linker_0, # of connection points: 2
#     Edge 105, Type (0, 1), BuildingBlock: XIVTED_clean_linker_0, # of connection points: 2
#     Edge 106, Type (0, 1), BuildingBlock: XIVTED_clean_linker_0, # of connection points: 2
#     Edge 107, Type (0, 1), BuildingBlock: XIVTED_clean_linker_0, # of connection points: 2
# Relax obj value: 0.073
# Max RMSD: 0.246
# Mean RMSD: 0.109
data_MOF--net-ptr--node1-NAHDIM_clean_sbu_0--node2-MIFKUJ_clean_linker_1--edge1-XIVTED_clean_linker_0
_symmetry_space_group_name_H-M    P1
_symmetry_Int_Tables_number       1
_symmetry_cell_setting            triclinic
loop_
_symmetry_equiv_pos_as_xyz
'x, y, z'
_cell_length_a     91.64729
_cell_length_b     89.895088
_cell_length_c     60.711035
_cell_angle_alpha  91.758965
_cell_angle_beta   89.134544
_cell_angle_gamma 121.8201
loop_
_atom_site_label
_atom_site_type_symbol
_atom_site_fract_x
_atom_site_fract_y
_atom_site_fract_z
_atom_type_partial_charge
C0 C 0.03075 0.35093 0.04203 0.0
O1 O 0.01675 0.34757 0.05256 0.0
O2 O 0.99594 0.33226 0.99851 0.0
Zn3 Zn 0.0132 0.35674 0.00913 0.0
O4 O 0.00335 0.3653 0.03268 0.0
C5 C 0.00946 0.369 0.96833 0.0
O6 O 0.99451 0.35428 0.96959 0.0
O7 O 0.03282 0.35589 0.02223 0.0
C8 C 0.99163 0.36853 0.02938 0.0
O9 O 0.98484 0.36573 0.00965 0.0
C10 C 0.98337 0.32074 0.00957 0.0
O11 O 0.98078 0.32465 0.0297 0.0
O12 O 0.0205 0.37302 0.98344 0.0
C13 C 0.68441 0.65582 0.98441 0.0
O14 O 0.67399 0.65955 0.97488 0.0
O15 O 0.66041 0.66367 0.02855 0.0
Zn16 Zn 0.65675 0.64149 0.01426 0.0
O17 O 0.63952 0.63311 0.98961 0.0
C18 C 0.65086 0.62645 0.0573 0.0
O19 O 0.66073 0.64292 0.06373 0.0
O20 O 0.6796 0.64718 0.00202 0.0
C21 C 0.62402 0.62851 0.99325 0.0
O22 O 0.61928 0.62955 0.01349 0.0
C23 C 0.65901 0.675 0.01837 0.0
O24 O 0.65401 0.67191 0.99769 0.0
O25 O 0.64788 0.6227 0.03685 0.0
C26 C 0.33949 0.0283 0.98882 0.0
O27 O 0.33264 0.01219 0.98094 0.0
O28 O 0.32592 0.99426 0.02583 0.0
Zn29 Zn 0.35015 0.0129 0.01771 0.0
O30 O 0.35982 0.005 0.99315 0.0
C31 C 0.36214 0.00828 0.05847 0.0
O32 O 0.34791 0.99292 0.05605 0.0
O33 O 0.3487 0.03278 0.0061 0.0
C34 C 0.36556 0.995 0.99556 0.0
O35 O 0.36465 0.98847 0.01495 0.0
C36 C 0.31873 0.9779 0.02204 0.0
O37 O 0.32725 0.97177 0.01171 0.0
O38 O 0.36584 0.01987 0.04425 0.0
C39 C 0.96738 0.64949 0.9729 0.0
O40 O 0.97872 0.64814 0.96095 0.0
O41 O 0.00449 0.66551 0.01836 0.0
Zn42 Zn 0.98392 0.64265 0.00731 0.0
O43 O 0.9907 0.63039 0.98498 0.0
C44 C 0.97683 0.63085 0.0526 0.0
O45 O 0.98723 0.64751 0.05778 0.0
O46 O 0.96676 0.64719 0.99354 0.0
C47 C 0.00495 0.6368 0.97491 0.0
O48 O 0.01715 0.65317 0.97889 0.0
C49 C 0.00641 0.68018 0.01395 0.0
O50 O 0.99521 0.68055 0.00112 0.0
O51 O 0.97323 0.62615 0.03246 0.0
C52 C 0.31332 0.34391 0.03793 0.0
O53 O 0.32377 0.33932 0.04525 0.0
O54 O 0.3352 0.33566 0.99238 0.0
Zn55 Zn 0.33937 0.35809 0.00633 0.0
O56 O 0.3574 0.36632 0.02987 0.0
C57 C 0.34313 0.37363 0.96369 0.0
O58 O 0.33212 0.35744 0.95705 0.0
O59 O 0.31733 0.35282 0.02059 0.0
C60 C 0.37336 0.37515 0.02557 0.0
O61 O 0.37838 0.37904 0.00505 0.0
C62 C 0.34573 0.33463 0.97956 0.0
O63 O 0.36034 0.34893 0.9748 0.0
O64 O 0.34746 0.37683 0.98387 0.0
C65 C 0.65684 0.97612 0.03447 0.0
O66 O 0.66259 0.9917 0.04355 0.0
O67 O 0.66707 0.00986 0.99629 0.0
Zn68 Zn 0.64392 0.99017 0.00583 0.0
O69 O 0.63447 0.99833 0.03029 0.0
C70 C 0.63189 0.98534 0.9606 0.0
O71 O 0.64834 0.99502 0.95603 0.0
O72 O 0.64756 0.97169 0.01728 0.0
C73 C 0.62527 0.00463 0.02609 0.0
O74 O 0.62228 0.0062 0.00546 0.0
C75 C 0.6704 0.02473 0.99022 0.0
O76 O 0.65814 0.02817 0.99027 0.0
O77 O 0.6272 0.98104 0.98039 0.0
C78 C 0.68508 0.67333 0.36872 0.0
O79 O 0.66865 0.66409 0.37348 0.0
O80 O 0.65373 0.66624 0.33118 0.0
Zn81 Zn 0.67218 0.68959 0.34385 0.0
O82 O 0.6631 0.69788 0.36868 0.0
C83 C 0.67103 0.70493 0.30407 0.0
O84 O 0.65538 0.69108 0.30422 0.0
O85 O 0.69049 0.68612 0.35587 0.0
C86 C 0.65178 0.70171 0.36566 0.0
O87 O 0.64547 0.69993 0.34581 0.0
C88 C 0.63915 0.65601 0.33974 0.0
O89 O 0.63505 0.66051 0.35852 0.0
O90 O 0.68128 0.70728 0.31959 0.0
C91 C 0.34784 0.98698 0.34241 0.0
O92 O 0.34896 0.99748 0.35872 0.0
O93 O 0.3185 0.99846 0.35743 0.0
Zn94 Zn 0.31181 0.97468 0.3453 0.0
O95 O 0.29561 0.96745 0.31958 0.0
C96 C 0.29209 0.95966 0.38416 0.0
O97 O 0.29061 0.97337 0.38305 0.0
O98 O 0.33317 0.97576 0.33449 0.0
C99 C 0.2812 0.96632 0.32064 0.0
O100 O 0.27645 0.97031 0.33929 0.0
C101 C 0.322 0.01141 0.34576 0.0
O102 O 0.32062 0.00939 0.32421 0.0
O103 O 0.30076 0.95725 0.36952 0.0
C104 C 0.01154 0.36236 0.31856 0.0
O105 O 0.00419 0.34593 0.31176 0.0
O106 O 0.00289 0.33135 0.36174 0.0
Zn107 Zn 0.02517 0.34958 0.34829 0.0
O108 O 0.03262 0.33941 0.3239 0.0
C109 C 0.0425 0.36186 0.39134 0.0
O110 O 0.02717 0.35629 0.39953 0.0
O111 O 0.02164 0.3676 0.33501 0.0
C112 C 0.0244 0.32401 0.31542 0.0
O113 O 0.00905 0.31253 0.32283 0.0
C114 C 0.00105 0.31885 0.37312 0.0
O115 O 0.01432 0.31732 0.37645 0.0
O116 O 0.04423 0.36054 0.37069 0.0
C117 C 0.64366 0.9871 0.31043 0.0
O118 O 0.65875 0.99287 0.30131 0.0
O119 O 0.67633 -0.00054 0.35556 0.0
Zn120 Zn 0.65833 0.97628 0.34223 0.0
O121 O 0.66828 0.96783 0.31891 0.0
C122 C 0.64876 0.96216 0.38607 0.0
O123 O 0.65596 0.97869 0.39228 0.0
O124 O 0.64023 0.97919 0.32854 0.0
C125 C 0.65769 0.95329 0.30945 0.0
O126 O 0.64147 0.94512 0.31537 0.0
C127 C 0.68994 0.01054 0.34566 0.0
O128 O 0.69298 0.00677 0.3257 0.0
O129 O 0.64804 0.95818 0.36568 0.0
C130 C 0.97556 0.67692 0.35099 0.0
O131 O 0.97541 0.67158 0.33056 0.0
O132 O 0.00951 0.66821 0.33567 0.0
Zn133 Zn 0.01222 0.69011 0.34942 0.0
O134 O 0.0291 0.69866 0.37442 0.0
C135 C 0.03613 0.71219 0.31879 0.0
O136 O 0.04342 0.70426 0.32683 0.0
O137 O 0.98968 0.68529 0.36146 0.0
C138 C 0.03183 0.71223 0.38521 0.0
O139 O 0.02356 0.71984 0.37957 0.0
C140 C -0.00111 0.65294 0.34241 0.0
O141 O 0.98924 0.65102 0.35961 0.0
O142 O 0.02157 0.70843 0.32626 0.0
C143 C 0.32336 0.31308 0.37023 0.0
O144 O 0.33042 0.32926 0.3779 0.0
O145 O 0.32993 0.34327 0.32641 0.0
Zn146 Zn 0.3083 0.32552 0.34169 0.0
O147 O 0.30247 0.337 0.36636 0.0
C148 C 0.28899 0.30924 0.30088 0.0
O149 O 0.3037 0.31241 0.29272 0.0
O150 O 0.31277 0.30797 0.35435 0.0
C151 C 0.29585 0.34596 0.36216 0.0
O152 O 0.29329 0.348 0.34153 0.0
C153 C 0.33098 0.35358 0.31177 0.0
O154 O 0.31708 0.35316 0.30567 0.0
O155 O 0.28829 0.31358 0.3208 0.0
C156 C 0.36061 0.02373 0.70873 0.0
O157 O 0.34802 0.02307 0.72018 0.0
O158 O 0.32588 0.00499 0.66021 0.0
Zn159 Zn 0.34299 0.02845 0.6737 0.0
O160 O 0.33153 0.03533 0.69679 0.0
C161 C 0.35151 0.04296 0.63002 0.0
O162 O 0.34396 0.02644 0.62361 0.0
O163 O 0.36147 0.02631 0.68814 0.0
C164 C 0.32086 0.03984 0.69272 0.0
O165 O 0.31661 0.03997 0.67219 0.0
C166 C 0.31608 0.99221 0.67233 0.0
O167 O 0.31686 0.99468 0.69383 0.0
O168 O 0.3529 0.04685 0.65051 0.0
C169 C 0.02155 0.32 0.67278 0.0
O170 O 0.02229 0.32622 0.69287 0.0
O171 O 0.98897 0.32727 0.69269 0.0
Zn172 Zn 0.98505 0.30527 0.67771 0.0
O173 O 0.96758 0.29769 0.65364 0.0
C174 C 0.98066 0.2898 0.72003 0.0
O175 O 0.99118 0.30619 0.72634 0.0
O176 O 0.00703 0.31033 0.66356 0.0
C177 C 0.95225 0.29375 0.65708 0.0
O178 O 0.94738 0.29468 0.67727 0.0
C179 C 0.99059 0.33986 0.68172 0.0
O180 O 0.98925 0.33825 0.66014 0.0
O181 O 0.97658 0.28619 0.69979 0.0
C182 C 0.67497 0.69009 0.64978 0.0
O183 O 0.67105 0.67552 0.6391 0.0
O184 O 0.66516 0.65673 0.69434 0.0
Zn185 Zn 0.68678 0.67546 0.67998 0.0
O186 O 0.69442 0.66615 0.65465 0.0
C187 C 0.70678 0.67473 0.7137 0.0
O188 O 0.69615 0.65799 0.70917 0.0
O189 O 0.68235 0.69346 0.66842 0.0
C190 C 0.69154 0.65075 0.65198 0.0
O191 O 0.68255 0.63891 0.66673 0.0
C192 C 0.65202 0.64442 0.68441 0.0
O193 O 0.65204 0.64305 0.66281 0.0
O194 O 0.70545 0.68588 0.70296 0.0
C195 C 0.30759 0.32061 0.63923 0.0
O196 O 0.31968 0.32107 0.62679 0.0
O197 O 0.34368 0.33328 0.68484 0.0
Zn198 Zn 0.32345 0.31112 0.67179 0.0
O199 O 0.3309 0.30032 0.6482 0.0
C200 C 0.31337 0.29747 0.71586 0.0
O201 O 0.32154 0.31409 0.72198 0.0
O202 O 0.30644 0.31634 0.65924 0.0
C203 C 0.34578 0.30728 0.63973 0.0
O204 O 0.35786 0.32314 0.64619 0.0
C205 C 0.34737 0.34839 0.6792 0.0
O206 O 0.33825 0.34974 0.66383 0.0
O207 O 0.31225 0.29334 0.69548 0.0
C208 C 0.64921 0.01138 0.69119 0.0
O209 O 0.65368 -0.00023 0.69283 0.0
O210 O 0.67642 0.00578 0.65715 0.0
Zn211 Zn 0.68114 0.02898 0.66893 0.0
O212 O 0.69873 0.0381 0.69314 0.0
C213 C 0.68602 0.04248 0.62472 0.0
O214 O 0.67516 0.02603 0.61897 0.0
O215 O 0.65916 0.02554 0.68133 0.0
C216 C 0.70314 0.053 0.70159 0.0
O217 O 0.69603 0.06131 0.69419 0.0
C218 C 0.68722 0.00349 0.64673 0.0
O219 O 0.70274 0.01697 0.64321 0.0
O220 O 0.69005 0.04658 0.64489 0.0
C221 C 0.98428 0.63475 0.68024 0.0
O222 O 0.99353 0.64275 0.66286 0.0
O223 O 0.9961 0.67555 0.66232 0.0
Zn224 Zn 0.97279 0.65841 0.67436 0.0
O225 O 0.96649 0.67036 0.69776 0.0
C226 C 0.95872 0.65803 0.63232 0.0
O227 O 0.97373 0.67262 0.63057 0.0
O228 O 0.97384 0.63886 0.68789 0.0
C229 C 0.96415 0.68259 0.69281 0.0
O230 O 0.96606 0.68743 0.67224 0.0
C231 C 0.00912 0.68515 0.67444 0.0
O232 O 0.00742 0.68437 0.69597 0.0
O233 O 0.95528 0.64927 0.64974 0.0
H234 H 0.13283 0.30794 0.20797 0.0
H235 H 0.11294 0.31278 0.22935 0.0
H236 H 0.0716 0.27727 0.18552 0.0
H237 H 0.0917 0.27226 0.16407 0.0
H238 H 0.13471 0.28002 0.1985 0.0
H239 H 0.12811 0.32162 0.16062 0.0
H240 H 0.11267 0.33312 0.14234 0.0
H241 H 0.09528 0.29204 0.09225 0.0
H242 H 0.1107 0.28048 0.11081 0.0
H243 H 0.15817 0.27692 0.10912 0.0
H244 H 0.18491 0.2852 0.08955 0.0
H245 H 0.21401 0.32191 0.14249 0.0
H246 H 0.18735 0.3139 0.1617 0.0
H247 H 0.14591 0.29767 0.12052 0.0
H248 H 0.16562 0.26518 0.16105 0.0
H249 H 0.18719 0.26359 0.18266 0.0
H250 H 0.18615 0.29866 0.23199 0.0
H251 H 0.16518 0.30064 0.21032 0.0
C252 C 0.11376 0.28978 0.18441 0.0
C253 C 0.11945 0.301 0.20308 0.0
C254 C 0.10811 0.30389 0.21515 0.0
C255 C 0.09079 0.29555 0.20892 0.0
C256 C 0.0849 0.28384 0.19065 0.0
C257 C 0.09635 0.28103 0.17839 0.0
C258 C 0.1265 0.28821 0.17088 0.0
C259 C 0.13714 0.28375 0.18139 0.0
C260 C 0.12957 0.29304 0.14857 0.0
C261 C 0.1202 0.29995 0.13735 0.0
C262 C 0.12079 0.31495 0.14587 0.0
C263 C 0.11201 0.32153 0.13537 0.0
C264 C 0.10268 0.31341 0.11594 0.0
C265 C 0.10245 0.29863 0.10712 0.0
C266 C 0.11116 0.29197 0.11775 0.0
C267 C 0.17078 0.29451 0.13708 0.0
C268 C 0.17032 0.28669 0.11652 0.0
C269 C 0.18557 0.29146 0.10535 0.0
C270 C 0.20151 0.30411 0.1146 0.0
C271 C 0.20192 0.31191 0.13517 0.0
C272 C 0.1867 0.30729 0.14619 0.0
C273 C 0.15464 0.29017 0.14843 0.0
C274 C 0.14321 0.29333 0.1374 0.0
C275 C 0.1515 0.28517 0.17073 0.0
C276 C 0.16375 0.28305 0.18402 0.0
C277 C 0.17006 0.27253 0.17651 0.0
C278 C 0.18235 0.27161 0.18884 0.0
C279 C 0.18822 0.2809 0.20906 0.0
C280 C 0.18164 0.29111 0.21667 0.0
C281 C 0.16961 0.29223 0.20427 0.0
H282 H 0.72516 0.88697 0.18545 0.0
H283 H 0.71789 0.9038 0.21087 0.0
H284 H 0.67007 0.88418 0.17602 0.0
H285 H 0.67703 0.86685 0.1515 0.0
H286 H 0.7069 0.85144 0.1809 0.0
H287 H 0.72348 0.89963 0.13129 0.0
H288 H 0.71718 0.91975 0.11364 0.0
H289 H 0.67216 0.87561 0.08319 0.0
H290 H 0.67869 0.85571 0.10052 0.0
H291 H 0.68014 0.81769 0.09792 0.0
H292 H 0.6746 0.79156 0.07732 0.0
H293 H 0.71954 0.79606 0.10644 0.0
H294 H 0.72515 0.82247 0.12706 0.0
H295 H 0.70405 0.85016 0.09934 0.0
H296 H 0.68078 0.80309 0.14803 0.0
H297 H 0.67659 0.77935 0.17074 0.0
H298 H 0.72264 0.81558 0.20738 0.0
H299 H 0.72745 0.83906 0.18336 0.0
C300 C 0.70176 0.87584 0.16639 0.0
C301 C 0.7132 0.88646 0.18321 0.0
C302 C 0.70907 0.89615 0.19762 0.0
C303 C 0.69336 0.89527 0.19552 0.0
C304 C 0.68217 0.88497 0.17829 0.0
C305 C 0.68625 0.87524 0.16403 0.0
C306 C 0.70519 0.86416 0.15251 0.0
C307 C 0.70686 0.85146 0.16303 0.0
C308 C 0.70434 0.86378 0.12924 0.0
C309 C 0.70153 0.87618 0.11726 0.0
C310 C 0.71235 0.89434 0.12065 0.0
C311 C 0.70867 0.9058 0.11065 0.0
C312 C 0.69412 0.89929 0.09707 0.0
C313 C 0.68361 0.88111 0.09326 0.0
C314 C 0.68731 0.86969 0.1032 0.0
C315 C 0.70303 0.82202 0.11411 0.0
C316 C 0.68901 0.81327 0.0996 0.0
C317 C 0.68585 0.79832 0.08781 0.0
C318 C 0.69662 0.79175 0.09027 0.0
C319 C 0.71091 0.80073 0.10441 0.0
C320 C 0.71415 0.81581 0.11614 0.0
C321 C 0.70528 0.83708 0.12775 0.0
C322 C 0.7048 0.85048 0.11718 0.0
C323 C 0.70636 0.83758 0.15105 0.0
C324 C 0.70463 0.82284 0.16366 0.0
C325 C 0.69031 0.80584 0.16045 0.0
C326 C 0.68775 0.7923 0.17378 0.0
C327 C 0.69916 0.79553 0.19113 0.0
C328 C 0.71369 0.81251 0.19405 0.0
C329 C 0.7164 0.826 0.18043 0.0
H330 H 0.10802 0.83912 0.18346 0.0
H331 H 0.08936 0.8167 0.20966 0.0
H332 H 0.10434 0.78202 0.1813 0.0
H333 H 0.12346 0.80464 0.156 0.0
H334 H 0.14196 0.85467 0.18275 0.0
H335 H 0.09737 0.82178 0.12822 0.0
H336 H 0.07629 0.79511 0.10794 0.0
H337 H 0.11693 0.78756 0.08534 0.0
H338 H 0.13784 0.81398 0.10591 0.0
H339 H 0.1784 0.85441 0.10529 0.0
H340 H 0.20449 0.87352 0.08497 0.0
H341 H 0.20395 0.91866 0.11062 0.0
H342 H 0.17704 0.89928 0.12969 0.0
H343 H 0.14781 0.84693 0.10258 0.0
H344 H 0.18982 0.8716 0.16075 0.0
H345 H 0.21169 0.89262 0.1865 0.0
H346 H 0.17912 0.91255 0.20426 0.0
H347 H 0.15711 0.8911 0.17882 0.0
C348 C 0.11703 0.82353 0.1676 0.0
C349 C 0.10707 0.82658 0.18271 0.0
C350 C 0.09634 0.81372 0.19759 0.0
C351 C 0.09547 0.79762 0.19768 0.0
C352 C 0.1049 0.79436 0.18188 0.0
C353 C 0.11566 0.80722 0.16715 0.0
C354 C 0.1303 0.83792 0.15408 0.0
C355 C 0.14298 0.85321 0.16508 0.0
C356 C 0.13199 0.83574 0.1312 0.0
C357 C 0.11916 0.81984 0.11861 0.0
C358 C 0.1017 0.81434 0.11894 0.0
C359 C 0.08971 0.79918 0.10724 0.0
C360 C 0.09497 0.78924 0.09509 0.0
C361 C 0.11246 0.79483 0.09475 0.0
C362 C 0.12444 0.81001 0.10632 0.0
C363 C 0.17577 0.87537 0.11919 0.0
C364 C 0.18377 0.86842 0.10635 0.0
C365 C 0.19886 0.87941 0.09495 0.0
C366 C 0.20649 0.89769 0.09629 0.0
C367 C 0.19838 0.90465 0.10901 0.0
C368 C 0.1831 0.89359 0.1202 0.0
C369 C 0.15981 0.86337 0.13141 0.0
C370 C 0.14656 0.84863 0.12014 0.0
C371 C 0.15789 0.86575 0.15419 0.0
C372 C 0.1719 0.87989 0.16779 0.0
C373 C 0.18754 0.88072 0.1699 0.0
C374 C 0.20006 0.89281 0.18461 0.0
C375 C 0.19717 0.90428 0.19754 0.0
C376 C 0.18167 0.90374 0.19484 0.0
C377 C 0.16912 0.89158 0.18021 0.0
H378 H 0.26745 0.16233 0.83524 0.0
H379 H 0.2662 0.18418 0.81351 0.0
H380 H 0.3193 0.22194 0.82958 0.0
H381 H 0.32047 0.20011 0.85105 0.0
H382 H 0.28821 0.1491 0.82915 0.0
H383 H 0.27935 0.18187 0.88733 0.0
H384 H 0.28674 0.2097 0.90538 0.0
H385 H 0.33769 0.22056 0.91883 0.0
H386 H 0.33039 0.193 0.90022 0.0
H387 H 0.33008 0.15084 0.89979 0.0
H388 H 0.33663 0.13146 0.91867 0.0
H389 H 0.28593 0.08744 0.9028 0.0
H390 H 0.27952 0.10693 0.88373 0.0
H391 H 0.30723 0.15949 0.90716 0.0
H392 H 0.32071 0.13288 0.84905 0.0
H393 H 0.32065 0.11141 0.82353 0.0
H394 H 0.2681 0.09266 0.80583 0.0
H395 H 0.26821 0.11424 0.83162 0.0
C396 C 0.29396 0.17967 0.84503 0.0
C397 C 0.27877 0.17535 0.83413 0.0
C398 C 0.27809 0.18783 0.82172 0.0
C399 C 0.29262 0.20482 0.81998 0.0
C400 C 0.30779 0.20909 0.83098 0.0
C401 C 0.30848 0.19661 0.84324 0.0
C402 C 0.29495 0.16634 0.8576 0.0
C403 C 0.2919 0.15109 0.84639 0.0
C404 C 0.30051 0.16937 0.87979 0.0
C405 C 0.30437 0.18545 0.89228 0.0
C406 C 0.29209 0.19025 0.89421 0.0
C407 C 0.2963 0.20609 0.90465 0.0
C408 C 0.31284 0.21736 0.9134 0.0
C409 C 0.32493 0.21228 0.91196 0.0
C410 C 0.32072 0.19645 0.90154 0.0
C411 C 0.30434 0.13032 0.89026 0.0
C412 C 0.32034 0.13703 0.90048 0.0
C413 C 0.32405 0.12594 0.91133 0.0
C414 C 0.3118 0.10791 0.91225 0.0
C415 C 0.29573 0.10123 0.90211 0.0
C416 C 0.29203 0.11235 0.89125 0.0
C417 C 0.30062 0.14224 0.87866 0.0
C418 C 0.30309 0.1572 0.89009 0.0
C419 C 0.29506 0.1392 0.85645 0.0
C420 C 0.29438 0.12501 0.8425 0.0
C421 C 0.30902 0.12386 0.84012 0.0
C422 C 0.30897 0.11157 0.82548 0.0
C423 C 0.29435 0.1003 0.81269 0.0
C424 C 0.2796 0.10127 0.81533 0.0
C425 C 0.27963 0.11353 0.8301 0.0
H426 H 0.83195 0.11512 0.83435 0.0
H427 H 0.80876 0.0988 0.80751 0.0
H428 H 0.78139 0.12154 0.83682 0.0
H429 H 0.80486 0.13834 0.86283 0.0
H430 H 0.85236 0.14986 0.83847 0.0
H431 H 0.81339 0.10426 0.88692 0.0
H432 H 0.78569 0.08514 0.90461 0.0
H433 H 0.7874 0.13053 0.9337 0.0
H434 H 0.81478 0.14956 0.91543 0.0
H435 H 0.85862 0.18725 0.91864 0.0
H436 H 0.88042 0.21165 0.94104 0.0
H437 H 0.91804 0.19932 0.91921 0.0
H438 H 0.89602 0.17469 0.8968 0.0
H439 H 0.84488 0.15361 0.91909 0.0
H440 H 0.87849 0.19881 0.86809 0.0
H441 H 0.9025 0.21999 0.84576 0.0
H442 H 0.90936 0.17874 0.81991 0.0
H443 H 0.88529 0.15757 0.84241 0.0
C444 C 0.82007 0.1278 0.85077 0.0
C445 C 0.82088 0.11647 0.83505 0.0
C446 C 0.80756 0.10706 0.81983 0.0
C447 C 0.79324 0.10891 0.81997 0.0
C448 C 0.79233 0.11999 0.83606 0.0
C449 C 0.80565 0.12942 0.85116 0.0
C450 C 0.8348 0.13899 0.86567 0.0
C451 C 0.85087 0.15037 0.8562 0.0
C452 C 0.8327 0.14003 0.88868 0.0
C453 C 0.81611 0.12833 0.89977 0.0
C454 C 0.80774 0.11007 0.89701 0.0
C455 C 0.79199 0.09917 0.90727 0.0
C456 C 0.78435 0.10633 0.92053 0.0
C457 C 0.79283 0.12462 0.92336 0.0
C458 C 0.80857 0.1355 0.91312 0.0
C459 C 0.87569 0.17919 0.90594 0.0
C460 C 0.8715 0.18963 0.91887 0.0
C461 C 0.88398 0.20356 0.93173 0.0
C462 C 0.90094 0.20738 0.93193 0.0
C463 C 0.90511 0.19678 0.91921 0.0
C464 C 0.89255 0.18273 0.90641 0.0
C465 C 0.8623 0.16485 0.8918 0.0
C466 C 0.84652 0.15281 0.90144 0.0
C467 C 0.86456 0.16351 0.86886 0.0
C468 C 0.88022 0.17664 0.8571 0.0
C469 C 0.88543 0.19439 0.85804 0.0
C470 C 0.89917 0.20649 0.84525 0.0
C471 C 0.90783 0.20103 0.83106 0.0
C472 C 0.90284 0.18331 0.83053 0.0
C473 C 0.88914 0.17122 0.84341 0.0
H474 H 0.8129 0.69136 0.86095 0.0
H475 H 0.788 0.68604 0.84042 0.0
H476 H 0.819 0.73595 0.80926 0.0
H477 H 0.84374 0.74176 0.83121 0.0
H478 H 0.85865 0.72371 0.82742 0.0
H479 H 0.82782 0.68839 0.90736 0.0
H480 H 0.80195 0.6806 0.92822 0.0
H481 H 0.80657 0.72901 0.90991 0.0
H482 H 0.8325 0.73669 0.88884 0.0
H483 H 0.8943 0.72977 0.90985 0.0
H484 H 0.91138 0.71908 0.92584 0.0
H485 H 0.89204 0.67762 0.87604 0.0
H486 H 0.87501 0.68828 0.86026 0.0
H487 H 0.8598 0.7121 0.90647 0.0
H488 H 0.90739 0.73653 0.85521 0.0
H489 H 0.92702 0.73474 0.82882 0.0
H490 H 0.88402 0.70025 0.78663 0.0
H491 H 0.86447 0.70144 0.81318 0.0
C492 C 0.83018 0.71712 0.84796 0.0
C493 C 0.81425 0.70148 0.85035 0.0
C494 C 0.80004 0.6983 0.83824 0.0
C495 C 0.80153 0.71044 0.82291 0.0
C496 C 0.81734 0.72637 0.82105 0.0
C497 C 0.83154 0.72967 0.83347 0.0
C498 C 0.8457 0.71924 0.85856 0.0
C499 C 0.85909 0.72147 0.84479 0.0
C500 C 0.84624 0.71635 0.88125 0.0
C501 C 0.83203 0.71306 0.89639 0.0
C502 C 0.82351 0.69753 0.90824 0.0
C503 C 0.8087 0.69309 0.92019 0.0
C504 C 0.80212 0.70412 0.92058 0.0
C505 C 0.81116 0.7201 0.90961 0.0
C506 C 0.82601 0.72454 0.89765 0.0
C507 C 0.88362 0.71001 0.88366 0.0
C508 C 0.89389 0.71847 0.90229 0.0
C509 C 0.90355 0.7123 0.91146 0.0
C510 C 0.90306 0.69752 0.90216 0.0
C511 C 0.89291 0.6892 0.88335 0.0
C512 C 0.88319 0.69531 0.87429 0.0
C513 C 0.87224 0.71556 0.87502 0.0
C514 C 0.85973 0.71494 0.88925 0.0
C515 C 0.87212 0.71918 0.85251 0.0
C516 C 0.8844 0.71908 0.83627 0.0
C517 C 0.90218 0.72851 0.84034 0.0
C518 C 0.91338 0.72754 0.82526 0.0
C519 C 0.90701 0.71745 0.80567 0.0
C520 C 0.8893 0.70833 0.80145 0.0
C521 C 0.87812 0.70905 0.81663 0.0
H522 H 0.80121 0.65171 0.52605 0.0
H523 H 0.78076 0.6547 0.54902 0.0
H524 H 0.73882 0.60797 0.51806 0.0
H525 H 0.75948 0.60502 0.49494 0.0
H526 H 0.80747 0.62535 0.5237 0.0
H527 H 0.79332 0.65664 0.47633 0.0
H528 H 0.77465 0.66365 0.45685 0.0
H529 H 0.75167 0.61398 0.42125 0.0
H530 H 0.77038 0.60696 0.44106 0.0
H531 H 0.82374 0.60763 0.43731 0.0
H532 H 0.84947 0.61472 0.41589 0.0
H533 H 0.8786 0.66341 0.4533 0.0
H534 H 0.85307 0.65615 0.47461 0.0
H535 H 0.8082 0.62839 0.44218 0.0
H536 H 0.83346 0.60462 0.49165 0.0
H537 H 0.85792 0.60772 0.51219 0.0
H538 H 0.86556 0.65489 0.54422 0.0
H539 H 0.8412 0.65168 0.52394 0.0
C540 C 0.78184 0.62813 0.50886 0.0
C541 C 0.78761 0.64209 0.52421 0.0
C542 C 0.77592 0.64386 0.53718 0.0
C543 C 0.75822 0.63161 0.53522 0.0
C544 C 0.75242 0.61755 0.51992 0.0
C545 C 0.76416 0.61589 0.5067 0.0
C546 C 0.79452 0.62659 0.49519 0.0
C547 C 0.80751 0.62578 0.50585 0.0
C548 C 0.79465 0.62734 0.47198 0.0
C549 C 0.78304 0.63119 0.4603 0.0
C550 C 0.78417 0.64721 0.46444 0.0
C551 C 0.77363 0.65127 0.45316 0.0
C552 C 0.76175 0.63938 0.4375 0.0
C553 C 0.76063 0.62332 0.43336 0.0
C554 C 0.77131 0.61931 0.44457 0.0
C555 C 0.83663 0.63119 0.45782 0.0
C556 C 0.83573 0.61977 0.44089 0.0
C557 C 0.85039 0.62388 0.42862 0.0
C558 C 0.86612 0.63955 0.43305 0.0
C559 C 0.86682 0.65105 0.44981 0.0
C560 C 0.85222 0.64693 0.46201 0.0
C561 C 0.82123 0.62725 0.47072 0.0
C562 C 0.8077 0.62706 0.45993 0.0
C563 C 0.82105 0.62646 0.49395 0.0
C564 C 0.83554 0.6279 0.50635 0.0
C565 C 0.84042 0.61558 0.50314 0.0
C566 C 0.85431 0.61733 0.51488 0.0
C567 C 0.86363 0.63159 0.52966 0.0
C568 C 0.8587 0.64388 0.53276 0.0
C569 C 0.84472 0.64199 0.52133 0.0
H570 H 0.39629 0.22444 0.51477 0.0
H571 H 0.39241 0.24368 0.54043 0.0
H572 H 0.34141 0.223 0.51434 0.0
H573 H 0.3451 0.20341 0.48955 0.0
H574 H 0.37745 0.18857 0.51292 0.0
H575 H 0.38997 0.23468 0.46213 0.0
H576 H 0.38332 0.25486 0.44543 0.0
H577 H 0.33499 0.21079 0.42183 0.0
H578 H 0.34187 0.19079 0.43819 0.0
H579 H 0.34373 0.1517 0.43301 0.0
H580 H 0.33809 0.12601 0.4111 0.0
H581 H 0.38556 0.13257 0.43412 0.0
H582 H 0.39141 0.15864 0.45577 0.0
H583 H 0.36668 0.18426 0.43249 0.0
H584 H 0.34885 0.1392 0.48471 0.0
H585 H 0.34823 0.11676 0.50707 0.0
H586 H 0.3991 0.15459 0.53149 0.0
H587 H 0.39963 0.17702 0.50902 0.0
C588 C 0.37108 0.21266 0.50006 0.0
C589 C 0.38432 0.22415 0.51457 0.0
C590 C 0.38213 0.23521 0.52909 0.0
C591 C 0.36658 0.23485 0.52946 0.0
C592 C 0.35346 0.22346 0.51469 0.0
C593 C 0.35563 0.2124 0.50029 0.0
C594 C 0.37287 0.20018 0.48548 0.0
C595 C 0.37558 0.18788 0.49522 0.0
C596 C 0.36981 0.19894 0.46255 0.0
C597 C 0.3664 0.21125 0.45144 0.0
C598 C 0.37799 0.22941 0.45326 0.0
C599 C 0.37413 0.24091 0.4438 0.0
C600 C 0.3586 0.23444 0.43234 0.0
C601 C 0.34718 0.21622 0.43023 0.0
C602 C 0.35108 0.20476 0.43962 0.0
C603 C 0.36795 0.15706 0.44618 0.0
C604 C 0.35308 0.14779 0.43313 0.0
C605 C 0.34986 0.13312 0.42058 0.0
C606 C 0.36139 0.12732 0.42091 0.0
C607 C 0.37639 0.13669 0.43374 0.0
C608 C 0.37972 0.15154 0.44613 0.0
C609 C 0.37077 0.17228 0.45999 0.0
C610 C 0.36906 0.18518 0.45008 0.0
C611 C 0.37416 0.1737 0.4829 0.0
C612 C 0.37438 0.15974 0.49499 0.0
C613 C 0.36002 0.14257 0.49451 0.0
C614 C 0.35969 0.12975 0.5073 0.0
C615 C 0.37362 0.13389 0.52105 0.0
C616 C 0.3881 0.15103 0.52124 0.0
C617 C 0.38845 0.16384 0.50836 0.0
H618 H 0.77903 0.17679 0.50353 0.0
H619 H 0.75487 0.15448 0.52488 0.0
H620 H 0.76857 0.11677 0.50527 0.0
H621 H 0.79263 0.13908 0.48404 0.0
H622 H 0.81265 0.18864 0.5112 0.0
H623 H 0.77298 0.15949 0.4502 0.0
H624 H 0.75286 0.13318 0.42861 0.0
H625 H 0.79375 0.12407 0.4132 0.0
H626 H 0.81372 0.15023 0.43486 0.0
H627 H 0.85689 0.19138 0.44145 0.0
H628 H 0.88502 0.21202 0.42591 0.0
H629 H 0.87949 0.25511 0.44725 0.0
H630 H 0.85112 0.23434 0.4622 0.0
H631 H 0.82556 0.1836 0.43266 0.0
H632 H 0.86266 0.2049 0.49382 0.0
H633 H 0.88383 0.22478 0.52097 0.0
H634 H 0.85085 0.24391 0.53995 0.0
H635 H 0.82963 0.22393 0.51253 0.0
C636 C 0.78752 0.15956 0.49203 0.0
C637 C 0.77667 0.16365 0.50364 0.0
C638 C 0.76293 0.15091 0.51587 0.0
C639 C 0.75982 0.13386 0.51677 0.0
C640 C 0.77044 0.12969 0.50462 0.0
C641 C 0.78421 0.14244 0.49248 0.0
C642 C 0.80311 0.17349 0.48094 0.0
C643 C 0.81528 0.18781 0.49386 0.0
C644 C 0.80686 0.17191 0.4586 0.0
C645 C 0.79482 0.15673 0.44432 0.0
C646 C 0.7776 0.15182 0.44216 0.0
C647 C 0.76612 0.13679 0.42984 0.0
C648 C 0.77173 0.12654 0.41927 0.0
C649 C 0.78909 0.13181 0.42092 0.0
C650 C 0.80052 0.14675 0.43333 0.0
C651 C 0.85194 0.21133 0.45305 0.0
C652 C 0.86167 0.20527 0.4426 0.0
C653 C 0.87782 0.21708 0.43394 0.0
C654 C 0.88452 0.2352 0.43546 0.0
C655 C 0.87463 0.24123 0.44567 0.0
C656 C 0.85847 0.22939 0.45435 0.0
C657 C 0.8351 0.19871 0.46297 0.0
C658 C 0.82273 0.18469 0.44985 0.0
C659 C 0.8314 0.20017 0.48535 0.0
C660 C 0.84467 0.21313 0.50089 0.0
C661 C 0.86012 0.21364 0.50347 0.0
C662 C 0.87223 0.22502 0.51902 0.0
C663 C 0.86905 0.23599 0.53254 0.0
C664 C 0.8536 0.23553 0.52987 0.0
C665 C 0.84151 0.22418 0.51419 0.0
H666 H 0.94169 0.4983 0.16912 0.0
H667 H 0.93844 0.51978 0.14948 0.0
H668 H 0.99039 0.56002 0.16741 0.0
H669 H 0.99347 0.53856 0.18704 0.0
H670 H 0.96465 0.4881 0.16091 0.0
H671 H 0.95128 0.51431 0.22289 0.0
H672 H 0.95503 0.53894 0.24595 0.0
H673 H 0.00766 0.55478 0.2585 0.0
H674 H 0.00393 0.53036 0.23515 0.0
H675 H 0.00688 0.48824 0.23006 0.0
H676 H 0.01333 0.46847 0.24819 0.0
H677 H 0.9628 0.42472 0.23094 0.0
H678 H 0.95657 0.44457 0.21254 0.0
H679 H 0.98271 0.49561 0.23914 0.0
H680 H -0.00125 0.47321 0.17817 0.0
H681 H -0.00089 0.45176 0.15298 0.0
H682 H 0.94585 0.43089 0.13679 0.0
H683 H 0.94563 0.45256 0.16203 0.0
C684 C 0.96775 0.51687 0.17972 0.0
C685 C 0.95232 0.51179 0.16891 0.0
C686 C 0.9505 0.52406 0.15767 0.0
C687 C 0.96414 0.54164 0.15694 0.0
C688 C 0.97951 0.54669 0.168 0.0
C689 C 0.98132 0.53442 0.1792 0.0
C690 C 0.97001 0.50373 0.19075 0.0
C691 C 0.96821 0.4895 0.17815 0.0
C692 C 0.97532 0.50595 0.21299 0.0
C693 C 0.97737 0.52061 0.22721 0.0
C694 C 0.96363 0.52314 0.23056 0.0
C695 C 0.96574 0.53711 0.24386 0.0
C696 C 0.98165 0.54879 0.25398 0.0
C697 C 0.99532 0.54611 0.25071 0.0
C698 C 0.99317 0.53211 0.23752 0.0
C699 C 0.98128 0.46785 0.21988 0.0
C700 C 0.99721 0.47438 0.2302 0.0
C701 C 0.00084 0.46307 0.24062 0.0
C702 C 0.98856 0.44502 0.24106 0.0
C703 C 0.97263 0.43851 0.23063 0.0
C704 C 0.96902 0.44984 0.22015 0.0
C705 C 0.9774 0.48001 0.2093 0.0
C706 C 0.97887 0.49402 0.22198 0.0
C707 C 0.97215 0.47778 0.18703 0.0
C708 C 0.9721 0.46434 0.17219 0.0
C709 C 0.98707 0.46386 0.16944 0.0
C710 C 0.98725 0.45155 0.15505 0.0
C711 C 0.97248 0.43953 0.14295 0.0
C712 C 0.95748 0.44006 0.14572 0.0
C713 C 0.95732 0.45239 0.16017 0.0
H714 H 0.49965 0.4464 0.16554 0.0
H715 H 0.47827 0.4263 0.13833 0.0
H716 H 0.44547 0.44564 0.15732 0.0
H717 H 0.46687 0.46578 0.1841 0.0
H718 H 0.51701 0.4813 0.16673 0.0
H719 H 0.47834 0.43661 0.21678 0.0
H720 H 0.45006 0.41623 0.23235 0.0
H721 H 0.44454 0.45976 0.25125 0.0
H722 H 0.47265 0.48001 0.23528 0.0
H723 H 0.51694 0.5213 0.24163 0.0
H724 H 0.53713 0.54693 0.26391 0.0
H725 H 0.57663 0.53529 0.25088 0.0
H726 H 0.55631 0.5096 0.22852 0.0
H727 H 0.50407 0.48751 0.24489 0.0
H728 H 0.53872 0.53143 0.19338 0.0
H729 H 0.56361 0.55306 0.17266 0.0
H730 H 0.5751 0.51356 0.15387 0.0
H731 H 0.55013 0.49194 0.17476 0.0
C732 C 0.48475 0.45738 0.1771 0.0
C733 C 0.48779 0.44619 0.16392 0.0
C734 C 0.4756 0.43476 0.14838 0.0
C735 C 0.46017 0.43433 0.14582 0.0
C736 C 0.45709 0.44542 0.15922 0.0
C737 C 0.46931 0.45692 0.17457 0.0
C738 C 0.49811 0.47039 0.1925 0.0
C739 C 0.51436 0.48239 0.18399 0.0
C740 C 0.49441 0.47217 0.21479 0.0
C741 C 0.47755 0.45981 0.2248 0.0
C742 C 0.471 0.44174 0.22423 0.0
C743 C 0.4549 0.43013 0.23325 0.0
C744 C 0.44507 0.43641 0.24296 0.0
C745 C 0.45172 0.45452 0.24363 0.0
C746 C 0.46784 0.46611 0.23471 0.0
C747 C 0.53516 0.51362 0.23328 0.0
C748 C 0.5299 0.52416 0.24376 0.0
C749 C 0.54144 0.53878 0.25654 0.0
C750 C 0.55848 0.54314 0.25913 0.0
C751 C 0.56365 0.53239 0.24894 0.0
C752 C 0.55206 0.51771 0.23619 0.0
C753 C 0.52293 0.49857 0.21903 0.0
C754 C 0.5069 0.48618 0.22778 0.0
C755 C 0.52672 0.49665 0.19682 0.0
C756 C 0.54267 0.5101 0.18583 0.0
C757 C 0.54681 0.52751 0.18523 0.0
C758 C 0.56106 0.53987 0.17337 0.0
C759 C 0.57134 0.53503 0.16163 0.0
C760 C 0.56734 0.51765 0.16258 0.0
C761 C 0.55312 0.50531 0.17455 0.0
H762 H 0.54274 0.04733 0.16337 0.0
H763 H 0.56337 0.04774 0.13689 0.0
H764 H 0.54805 0.9953 0.15487 0.0
H765 H 0.52747 0.99495 0.18116 0.0
H766 H 0.50822 0.02566 0.16383 0.0
H767 H 0.55489 0.03885 0.21348 0.0
H768 H 0.57606 0.03396 0.23033 0.0
H769 H 0.53521 0.9828 0.25032 0.0
H770 H 0.51417 0.98783 0.23363 0.0
H771 H 0.47263 0.98769 0.24021 0.0
H772 H 0.4485 0.98222 0.26371 0.0
H773 H 0.45814 0.03348 0.2496 0.0
H774 H 0.48252 0.03901 0.22634 0.0
H775 H 0.50605 0.01161 0.24262 0.0
H776 H 0.45988 0.99566 0.19471 0.0
H777 H 0.43671 0.99572 0.17597 0.0
H778 H 0.47343 0.04561 0.14791 0.0
H779 H 0.49641 0.04614 0.1684 0.0
C780 C 0.53373 0.02121 0.17444 0.0
C781 C 0.54391 0.03597 0.16165 0.0
C782 C 0.55564 0.03617 0.14651 0.0
C783 C 0.55738 0.02158 0.14386 0.0
C784 C 0.54725 0.00686 0.15681 0.0
C785 C 0.53547 0.00664 0.17185 0.0
C786 C 0.52073 0.02068 0.18977 0.0
C787 C 0.50796 0.02303 0.1812 0.0
C788 C 0.52001 0.0165 0.21218 0.0
C789 C 0.53297 0.01369 0.22225 0.0
C790 C 0.55053 0.02656 0.2214 0.0
C791 C 0.5626 0.02372 0.23098 0.0
C792 C 0.5573 0.008 0.24169 0.0
C793 C 0.53969 0.99516 0.2425 0.0
C794 C 0.52766 0.998 0.23292 0.0
C795 C 0.47929 0.01371 0.23145 0.0
C796 C 0.46963 0.99781 0.24233 0.0
C797 C 0.45578 0.99464 0.25559 0.0
C798 C 0.4514 0.00739 0.25838 0.0
C799 C 0.46131 0.02347 0.24786 0.0
C800 C 0.47514 0.0266 0.23447 0.0
C801 C 0.49351 0.01657 0.21671 0.0
C802 C 0.5065 0.01464 0.22537 0.0
C803 C 0.49414 0.02068 0.19424 0.0
C804 C 0.47991 0.02106 0.18338 0.0
C805 C 0.46291 0.00688 0.18509 0.0
C806 C 0.44966 0.00679 0.17395 0.0
C807 C 0.45313 0.0206 0.16018 0.0
C808 C 0.47017 0.03486 0.15858 0.0
C809 C 0.48339 0.0351 0.17012 0.0
H810 H 0.48272 0.00988 0.86945 0.0
H811 H 0.46146 0.01035 0.89391 0.0
H812 H 0.42139 0.96231 0.86298 0.0
H813 H 0.44273 0.96205 0.83821 0.0
H814 H 0.49078 0.98367 0.86446 0.0
H815 H 0.47103 0.01352 0.82337 0.0
H816 H 0.45104 0.01933 0.80521 0.0
H817 H 0.43479 0.97419 0.76196 0.0
H818 H 0.45474 0.96828 0.78044 0.0
H819 H 0.5013 0.96475 0.7766 0.0
H820 H 0.52518 0.96881 0.75324 0.0
H821 H 0.55975 0.01671 0.78952 0.0
H822 H 0.53589 0.0127 0.8125 0.0
H823 H 0.48922 0.98834 0.78336 0.0
H824 H 0.5096 0.95854 0.82886 0.0
H825 H 0.53243 0.95664 0.84671 0.0
H826 H 0.55029 0.00657 0.87973 0.0
H827 H 0.5273 0.00826 0.86219 0.0
C828 C 0.46425 0.98596 0.85205 0.0
C829 C 0.46936 -0.00054 0.86794 0.0
C830 C 0.45722 -0.00023 0.88177 0.0
C831 C 0.43983 0.98638 0.88023 0.0
C832 C 0.43475 0.97274 0.86449 0.0
C833 C 0.44687 0.97261 0.85035 0.0
C834 C 0.47721 0.98589 0.83731 0.0
C835 C 0.49041 0.9847 0.84673 0.0
C836 C 0.47668 0.98711 0.81419 0.0
C837 C 0.46413 0.99025 0.80356 0.0
C838 C 0.46293 0.00466 0.81028 0.0
C839 C 0.45155 0.00801 0.79983 0.0
C840 C 0.44131 0.99717 0.78223 0.0
C841 C 0.44262 0.98284 0.77538 0.0
C842 C 0.45394 0.97941 0.78596 0.0
C843 C 0.51691 0.98833 0.79636 0.0
C844 C 0.51404 0.97611 0.77943 0.0
C845 C 0.52767 0.97841 0.76621 0.0
C846 C 0.5443 0.99309 0.76957 0.0
C847 C 0.54704 0.00538 0.78639 0.0
C848 C 0.53347 0.00302 0.79966 0.0
C849 C 0.50265 0.98602 0.81053 0.0
C850 C 0.48926 0.98685 0.80102 0.0
C851 C 0.50312 0.98474 0.83358 0.0
C852 C 0.51681 0.98353 0.84429 0.0
C853 C 0.51844 0.96904 0.83998 0.0
C854 C 0.53141 0.96795 0.85016 0.0
C855 C 0.5431 0.9815 0.86447 0.0
C856 C 0.54152 0.99605 0.8686 0.0
C857 C 0.52836 0.99697 0.85874 0.0
H858 H 0.04738 0.54794 0.84825 0.0
H859 H 0.04556 0.5689 0.87307 0.0
H860 H 0.99431 0.54997 0.84921 0.0
H861 H 0.99598 0.5287 0.82512 0.0
H862 H 0.02668 0.51218 0.84931 0.0
H863 H 0.04025 0.55667 0.79424 0.0
H864 H 0.03444 0.57634 0.77432 0.0
H865 H 0.98473 0.53228 0.75501 0.0
H866 H 0.99056 0.51274 0.775 0.0
H867 H 0.99433 0.47289 0.76911 0.0
H868 H 0.99076 0.44765 0.74796 0.0
H869 H 0.03885 0.45754 0.77379 0.0
H870 H 0.04253 0.48303 0.79474 0.0
H871 H 0.01603 0.5059 0.76874 0.0
H872 H -0.00104 0.46156 0.81974 0.0
H873 H -0.00184 0.43901 0.84169 0.0
H874 H 0.04568 0.47805 0.87343 0.0
H875 H 0.04708 0.50036 0.85001 0.0
C876 C 0.02189 0.53688 0.83469 0.0
C877 C 0.03581 0.54842 0.8483 0.0
C878 C 0.0348 0.56046 0.86234 0.0
C879 C 0.01978 0.56107 0.86314 0.0
C880 C 0.00599 0.5497 0.84918 0.0
C881 C 0.007 0.53767 0.83519 0.0
C882 C 0.02246 0.52326 0.821 0.0
C883 C 0.02482 0.51102 0.83159 0.0
C884 C 0.0191 0.52126 0.79812 0.0
C885 C 0.01582 0.53328 0.7861 0.0
C886 C 0.0281 0.55129 0.78575 0.0
C887 C 0.02481 0.56247 0.7743 0.0
C888 C 0.00912 0.55581 0.76318 0.0
C889 C 0.99685 0.53778 0.76363 0.0
C890 C 0.00021 0.52661 0.77488 0.0
C891 C 0.01864 0.4798 0.78365 0.0
C892 C 0.00423 0.46978 0.77003 0.0
C893 C 0.0022 0.45536 0.75793 0.0
C894 C 0.01451 0.45063 0.75926 0.0
C895 C 0.02906 0.46079 0.77266 0.0
C896 C 0.03117 0.47533 0.78463 0.0
C897 C 0.02031 0.49473 0.79699 0.0
C898 C 0.01834 0.50721 0.78638 0.0
C899 C 0.02333 0.4965 0.82003 0.0
C900 C 0.02325 0.48265 0.83288 0.0
C901 C 0.00947 0.46522 0.83097 0.0
C902 C 0.00888 0.45234 0.84388 0.0
C903 C 0.02178 0.45666 0.85955 0.0
C904 C 0.03563 0.47414 0.86135 0.0
C905 C 0.03637 0.48697 0.84812 0.0
H906 H 0.44694 0.50828 0.84828 0.0
H907 H 0.42163 0.48724 0.8692 0.0
H908 H 0.43164 0.44657 0.8511 0.0
H909 H 0.4569 0.46762 0.83043 0.0
H910 H 0.48031 0.51851 0.85509 0.0
H911 H 0.43908 0.4895 0.79455 0.0
H912 H 0.41794 0.46351 0.7732 0.0
H913 H 0.4561 0.44991 0.76065 0.0
H914 H 0.47701 0.47566 0.7823 0.0
H915 H 0.52106 0.51819 0.78103 0.0
H916 H 0.54703 0.53808 0.76054 0.0
H917 H 0.54327 0.58189 0.78358 0.0
H918 H 0.51714 0.56192 0.80384 0.0
H919 H 0.49 0.51008 0.77632 0.0
H920 H 0.52991 0.53374 0.83451 0.0
H921 H 0.55209 0.55428 0.86026 0.0
H922 H 0.51987 0.57403 0.88062 0.0
H923 H 0.49764 0.55333 0.85478 0.0
C924 C 0.45367 0.48947 0.83757 0.0
C925 C 0.4436 0.4948 0.84874 0.0
C926 C 0.42917 0.48279 0.86069 0.0
C927 C 0.42459 0.46523 0.86168 0.0
C928 C 0.43463 0.45991 0.85029 0.0
C929 C 0.44909 0.47194 0.83848 0.0
C930 C 0.46942 0.5024 0.82577 0.0
C931 C 0.48232 0.51692 0.83773 0.0
C932 C 0.47235 0.49981 0.80344 0.0
C933 C 0.45956 0.48443 0.7901 0.0
C934 C 0.44284 0.48087 0.78723 0.0
C935 C 0.43083 0.46611 0.77493 0.0
C936 C 0.43537 0.45466 0.76533 0.0
C937 C 0.45217 0.45836 0.76809 0.0
C938 C 0.46416 0.47314 0.78028 0.0
C939 C 0.51718 0.53856 0.79406 0.0
C940 C 0.5258 0.53208 0.78165 0.0
C941 C 0.54061 0.54344 0.76992 0.0
C942 C 0.54713 0.56151 0.77043 0.0
C943 C 0.53863 0.56803 0.78309 0.0
C944 C 0.52372 0.55664 0.7947 0.0
C945 C 0.50099 0.52628 0.80561 0.0
C946 C 0.48797 0.51189 0.7936 0.0
C947 C 0.49823 0.52866 0.82811 0.0
C948 C 0.51218 0.54212 0.84253 0.0
C949 C 0.52775 0.54273 0.84419 0.0
C950 C 0.54043 0.5545 0.85893 0.0
C951 C 0.53776 0.56582 0.87249 0.0
C952 C 0.52225 0.56536 0.87058 0.0
C953 C 0.50957 0.55359 0.85577 0.0
H954 H 0.603 0.82801 0.50742 0.0
H955 H 0.60222 0.8498 0.48498 0.0
H956 H 0.65554 0.88701 0.5006 0.0
H957 H 0.65627 0.86521 0.52274 0.0
H958 H 0.62343 0.81425 0.50171 0.0
H959 H 0.61613 0.84931 0.55889 0.0
H960 H 0.62512 0.8779 0.57595 0.0
H961 H 0.67483 0.88579 0.5902 0.0
H962 H 0.66599 0.85753 0.57247 0.0
H963 H 0.66371 0.8152 0.57417 0.0
H964 H 0.66967 0.7952 0.59258 0.0
H965 H 0.61919 0.75179 0.57458 0.0
H966 H 0.61328 0.7719 0.55616 0.0
H967 H 0.6417 0.82471 0.58004 0.0
H968 H 0.65557 0.7982 0.52268 0.0
H969 H 0.65582 0.77656 0.49782 0.0
H970 H 0.6032 0.75709 0.47962 0.0
H971 H 0.60308 0.77896 0.5046 0.0
C972 C 0.6296 0.84508 0.51702 0.0
C973 C 0.61448 0.8409 0.50606 0.0
C974 C 0.61406 0.85333 0.49324 0.0
C975 C 0.62878 0.87015 0.49117 0.0
C976 C 0.64389 0.87429 0.50224 0.0
C977 C 0.64433 0.86184 0.51489 0.0
C978 C 0.63027 0.83172 0.52995 0.0
C979 C 0.62695 0.81628 0.51902 0.0
C980 C 0.63575 0.83484 0.55219 0.0
C981 C 0.64044 0.85137 0.56423 0.0
C982 C 0.62895 0.85721 0.56572 0.0
C983 C 0.63406 0.87349 0.57561 0.0
C984 C 0.65074 0.88416 0.58428 0.0
C985 C 0.66201 0.87801 0.58335 0.0
C986 C 0.65691 0.86178 0.57344 0.0
C987 C 0.63809 0.79503 0.56366 0.0
C988 C 0.65385 0.8014 0.57439 0.0
C989 C 0.65723 0.78996 0.58494 0.0
C990 C 0.64491 0.77192 0.585 0.0
C991 C 0.62902 0.7656 0.57455 0.0
C992 C 0.62562 0.77707 0.56405 0.0
C993 C 0.63491 0.80722 0.55177 0.0
C994 C 0.63769 0.8224 0.56291 0.0
C995 C 0.62973 0.80425 0.52942 0.0
C996 C 0.62923 0.79005 0.51571 0.0
C997 C 0.64395 0.78903 0.51372 0.0
C998 C 0.64407 0.77661 0.49949 0.0
C999 C 0.62951 0.76505 0.48676 0.0
C1000 C 0.61467 0.76591 0.48905 0.0
C1001 C 0.61455 0.77834 0.50336 0.0
H1002 H 0.16352 0.78011 0.50938 0.0
H1003 H 0.13872 0.76244 0.48533 0.0
H1004 H 0.10929 0.77828 0.5248 0.0
H1005 H 0.13434 0.79653 0.54809 0.0
H1006 H 0.17993 0.81495 0.51393 0.0
H1007 H 0.15008 0.76667 0.56346 0.0
H1008 H 0.12453 0.74544 0.58383 0.0
H1009 H 0.12534 0.78788 0.62037 0.0
H1010 H 0.15066 0.80898 0.59988 0.0
H1011 H 0.19104 0.84904 0.59808 0.0
H1012 H 0.21329 0.87523 0.61752 0.0
H1013 H 0.25231 0.87114 0.58207 0.0
H1014 H 0.22989 0.84464 0.56275 0.0
H1015 H 0.18167 0.81655 0.59557 0.0
H1016 H 0.20425 0.86354 0.54579 0.0
H1017 H 0.22389 0.88712 0.52183 0.0
H1018 H 0.23227 0.85078 0.48385 0.0
H1019 H 0.21341 0.82751 0.50878 0.0
C1020 C 0.15076 0.78952 0.53065 0.0
C1021 C 0.15165 0.7796 0.51297 0.0
C1022 C 0.13742 0.76941 0.49933 0.0
C1023 C 0.12202 0.76899 0.50309 0.0
C1024 C 0.12101 0.77849 0.52127 0.0
C1025 C 0.13527 0.78875 0.5348 0.0
C1026 C 0.16644 0.802 0.54339 0.0
C1027 C 0.18053 0.81503 0.53178 0.0
C1028 C 0.1669 0.80247 0.5667 0.0
C1029 C 0.1522 0.78942 0.57999 0.0
C1030 C 0.14475 0.77138 0.57587 0.0
C1031 C 0.13018 0.75928 0.58751 0.0
C1032 C 0.12294 0.76502 0.60365 0.0
C1033 C 0.13076 0.78306 0.60823 0.0
C1034 C 0.14522 0.79513 0.5965 0.0
C1035 C 0.20877 0.84492 0.57884 0.0
C1036 C 0.20438 0.85358 0.59473 0.0
C1037 C 0.21711 0.86855 0.60586 0.0
C1038 C 0.23453 0.87524 0.60128 0.0
C1039 C 0.23897 0.86637 0.58573 0.0
C1040 C 0.22619 0.85124 0.57471 0.0
C1041 C 0.19498 0.82977 0.5661 0.0
C1042 C 0.1813 0.81619 0.5777 0.0
C1043 C 0.1946 0.82915 0.54278 0.0
C1044 C 0.20756 0.8438 0.52931 0.0
C1045 C 0.21069 0.86076 0.53269 0.0
C1046 C 0.22174 0.87419 0.51873 0.0
C1047 C 0.2296 0.87086 0.50077 0.0
C1048 C 0.22666 0.85391 0.49767 0.0
C1049 C 0.21576 0.84053 0.5118 0.0
H1050 H 0.16226 0.36294 0.48754 0.0
H1051 H 0.14044 0.36367 0.46604 0.0
H1052 H 0.14029 0.40045 0.51337 0.0
H1053 H 0.16256 0.40001 0.53476 0.0
H1054 H 0.19328 0.38538 0.497 0.0
H1055 H 0.14299 0.34986 0.53941 0.0
H1056 H 0.11705 0.34093 0.56085 0.0
H1057 H 0.14632 0.38476 0.60619 0.0
H1058 H 0.17235 0.39331 0.58486 0.0
H1059 H 0.23703 0.39644 0.55053 0.0
H1060 H 0.256 0.38853 0.56758 0.0
H1061 H 0.21168 0.34002 0.58872 0.0
H1062 H 0.19286 0.34787 0.57155 0.0
H1063 H 0.18619 0.37223 0.57655 0.0
H1064 H 0.2281 0.4056 0.49904 0.0
H1065 H 0.24812 0.40343 0.47394 0.0
H1066 H 0.22835 0.35052 0.49455 0.0
H1067 H 0.20843 0.35277 0.51947 0.0
C1068 C 0.1641 0.38142 0.51279 0.0
C1069 C 0.15771 0.37134 0.49322 0.0
C1070 C 0.14522 0.37175 0.48093 0.0
C1071 C 0.13874 0.38219 0.48797 0.0
C1072 C 0.145 0.39221 0.50765 0.0
C1073 C 0.15769 0.39194 0.51987 0.0
C1074 C 0.17738 0.3807 0.52563 0.0
C1075 C 0.19184 0.38273 0.51447 0.0
C1076 C 0.17538 0.37686 0.54829 0.0
C1077 C 0.15952 0.37234 0.56045 0.0
C1078 C 0.14375 0.35766 0.55381 0.0
C1079 C 0.12892 0.35261 0.56608 0.0
C1080 C 0.12957 0.36214 0.58526 0.0
C1081 C 0.1454 0.37698 0.5917 0.0
C1082 C 0.16026 0.38197 0.57947 0.0
C1083 C 0.21352 0.37269 0.55963 0.0
C1084 C 0.23142 0.38413 0.55889 0.0
C1085 C 0.24223 0.37959 0.56859 0.0
C1086 C 0.23532 0.36363 0.57942 0.0
C1087 C 0.21739 0.35249 0.58073 0.0
C1088 C 0.20662 0.35697 0.57092 0.0
C1089 C 0.20189 0.37657 0.54781 0.0
C1090 C 0.18789 0.37535 0.55921 0.0
C1091 C 0.20382 0.38019 0.52507 0.0
C1092 C 0.21693 0.37944 0.51131 0.0
C1093 C 0.22824 0.39362 0.49829 0.0
C1094 C 0.23962 0.39234 0.48392 0.0
C1095 C 0.23984 0.37682 0.48229 0.0
C1096 C 0.22872 0.36277 0.4957 0.0
C1097 C 0.21731 0.36403 0.50996 0.0
H1098 H 0.00212 0.37469 0.07243 0.0
H1099 H 0.95822 0.42962 0.10161 0.0
H1100 H 0.97006 0.38094 0.02699 0.0
H1101 H 0.98798 0.42077 0.14792 0.0
H1102 H 0.96085 0.41033 0.0748 0.0
H1103 H 0.99566 0.39011 0.10093 0.0
C1104 C 0.99363 0.37921 0.06847 0.0
C1105 C 0.98672 0.37663 0.04722 0.0
C1106 C 0.96672 0.41252 0.09088 0.0
C1107 C 0.97933 0.3944 0.07981 0.0
C1108 C 0.96513 0.42346 0.10625 0.0
C1109 C 0.97299 0.42693 0.12702 0.0
C1110 C 0.97626 0.40501 0.09626 0.0
C1111 C 0.98198 0.41874 0.13198 0.0
C1112 C 0.98994 0.38802 0.08477 0.0
C1113 C 0.97572 0.38269 0.04311 0.0
N1114 N 0.98344 0.40825 0.11668 0.0
N1115 N 0.97247 0.39141 0.0592 0.0
H1116 H 0.65095 0.63031 0.10225 0.0
H1117 H 0.57949 0.52944 0.1199 0.0
H1118 H 0.63006 0.59107 0.04975 0.0
H1119 H 0.59514 0.56973 0.17062 0.0
H1120 H 0.60106 0.55114 0.09535 0.0
H1121 H 0.63364 0.6076 0.1287 0.0
C1122 C 0.64286 0.6169 0.09629 0.0
C1123 C 0.64184 0.61262 0.07371 0.0
C1124 C 0.59987 0.55522 0.1119 0.0
C1125 C 0.62195 0.58657 0.10391 0.0
C1126 C 0.58764 0.5428 0.126 0.0
C1127 C 0.58544 0.54779 0.14733 0.0
C1128 C 0.61002 0.57278 0.11915 0.0
C1129 C 0.59622 0.56536 0.1542 0.0
C1130 C 0.63294 0.60394 0.11141 0.0
C1131 C 0.63116 0.595 0.06697 0.0
N1132 N 0.60798 0.57724 0.14012 0.0
N1133 N 0.62156 0.58265 0.08199 0.0
H1134 H 0.35992 0.98419 0.08666 0.0
H1135 H 0.44891 0.04757 0.14823 0.0
H1136 H 0.39258 0.03852 0.06988 0.0
H1137 H 0.42544 0.99149 0.14104 0.0
H1138 H 0.42628 0.04543 0.12485 0.0
H1139 H 0.38147 0.98781 0.1129 0.0
C1140 C 0.37156 0.99695 0.08862 0.0
C1141 C 0.37451 0.01105 0.07589 0.0
C1142 C 0.42612 0.03364 0.12856 0.0
C1143 C 0.39926 0.01524 0.106 0.0
C1144 C 0.43907 0.03482 0.1418 0.0
C1145 C 0.43916 0.01968 0.14676 0.0
C1146 C 0.41305 0.0172 0.12048 0.0
C1147 C 0.42582 0.00351 0.1382 0.0
C1148 C 0.38389 -0.00103 0.10356 0.0
C1149 C 0.38984 0.02728 0.07926 0.0
N1150 N 0.41333 0.00272 0.12557 0.0
N1151 N 0.40171 0.02894 0.09399 0.0
H1152 H 0.37461 0.97043 0.99201 0.0
H1153 H 0.43475 0.0133 0.88841 0.0
H1154 H 0.37685 0.01272 0.95713 0.0
H1155 H 0.41634 0.96019 0.90634 0.0
H1156 H 0.41496 0.01424 0.91516 0.0
H1157 H 0.39117 0.96712 0.9623 0.0
C1158 C 0.37849 0.97894 0.97806 0.0
C1159 C 0.37442 0.99192 0.97709 0.0
C1160 C 0.41514 0.00233 0.91311 0.0
C1161 C 0.39347 0.98833 0.94327 0.0
C1162 C 0.42646 0.00182 0.89796 0.0
C1163 C 0.42715 0.98666 0.89528 0.0
C1164 C 0.40467 0.98767 0.92596 0.0
C1165 C 0.4161 0.97209 0.9079 0.0
C1166 C 0.38788 0.97701 0.9611 0.0
C1167 C 0.37971 0.00254 0.95857 0.0
N1168 N 0.40542 0.97301 0.92291 0.0
N1169 N 0.38912 0.00064 0.94252 0.0
H1170 H 0.03938 0.3997 0.95819 0.0
H1171 H 0.99256 0.42948 0.87765 0.0
H1172 H 0.98625 0.36657 0.93868 0.0
H1173 H 0.04761 0.45306 0.87628 0.0
H1174 H 0.99022 0.40764 0.90247 0.0
H1175 H 0.043 0.42079 0.93055 0.0
C1176 C 0.02853 0.39681 0.94803 0.0
C1177 C 0.01247 0.38138 0.95081 0.0
C1178 C 0.00281 0.41753 0.89663 0.0
C1179 C 0.01648 0.40545 0.9195 0.0
C1180 C 0.00418 0.42999 0.88229 0.0
C1181 C 0.02032 0.44315 0.87459 0.0
C1182 C 0.01769 0.41829 0.90372 0.0
C1183 C 0.03491 0.44333 0.88193 0.0
C1184 C 0.03061 0.40881 0.93227 0.0
C1185 C -0.00114 0.37828 0.93717 0.0
N1186 N 0.03326 0.43114 0.89618 0.0
N1187 N 0.00113 0.39027 0.92228 0.0
H1188 H 0.58947 0.61558 0.9955 0.0
H1189 H 0.57286 0.58501 0.8683 0.0
H1190 H 0.62967 0.6249 0.94954 0.0
H1191 H 0.53235 0.5728 0.91509 0.0
H1192 H 0.59403 0.6019 0.89714 0.0
H1193 H 0.56855 0.60216 0.96553 0.0
C1194 C 0.59392 0.6149 0.97909 0.0
C1195 C 0.61134 0.62127 0.97507 0.0
C1196 C 0.58051 0.59561 0.90108 0.0
C1197 C 0.58745 0.60588 0.94068 0.0
C1198 C 0.56841 0.58591 0.88463 0.0
C1199 C 0.55078 0.57737 0.8893 0.0
C1200 C 0.57497 0.59677 0.92241 0.0
C1201 C 0.54579 0.57928 0.91067 0.0
C1202 C 0.58196 0.60721 0.96198 0.0
C1203 C 0.61636 0.62007 0.95345 0.0
N1204 N 0.55781 0.58867 0.92645 0.0
N1205 N 0.60447 0.61245 0.9371 0.0
H1206 H 0.98191 0.60284 0.96266 0.0
H1207 H 0.04385 0.59528 0.87474 0.0
H1208 H 0.03344 0.64564 0.94959 0.0
H1209 H 0.99194 0.55363 0.88847 0.0
H1210 H 0.04068 0.61406 0.90202 0.0
H1211 H 0.98573 0.58479 0.93543 0.0
C1212 C 0.99407 0.60847 0.95407 0.0
C1213 C 0.00739 0.62581 0.95846 0.0
C1214 C 0.02999 0.60082 0.899 0.0
C1215 C 0.01185 0.6051 0.92706 0.0
C1216 C 0.03181 0.59008 0.8835 0.0
C1217 C 0.01811 0.57287 0.87923 0.0
C1218 C 0.01439 0.59428 0.91035 0.0
C1219 C 0.00275 0.56688 0.89092 0.0
C1220 C 0.99623 0.59812 0.93847 0.0
C1221 C 0.02283 0.63234 0.94675 0.0
N1222 N 0.00133 0.57754 0.90593 0.0
N1223 N 0.02465 0.62197 0.93156 0.0
H1224 H 0.34207 0.37055 0.91858 0.0
H1225 H 0.41617 0.47084 0.90323 0.0
H1226 H 0.36474 0.40871 0.97209 0.0
H1227 H 0.39998 0.431 0.8518 0.0
H1228 H 0.39381 0.44925 0.92716 0.0
H1229 H 0.35967 0.39356 0.89255 0.0
C1230 C 0.35058 0.3838 0.92484 0.0
C1231 C 0.35207 0.38768 0.94757 0.0
C1232 C 0.39505 0.44526 0.91058 0.0
C1233 C 0.37226 0.41403 0.91789 0.0
C1234 C 0.40774 0.45761 0.89685 0.0
C1235 C 0.41002 0.45267 0.87554 0.0
C1236 C 0.38454 0.42784 0.90295 0.0
C1237 C 0.39884 0.43528 0.86825 0.0
C1238 C 0.36067 0.39691 0.90997 0.0
C1239 C 0.36329 0.40509 0.95473 0.0
N1240 N 0.38664 0.42347 0.88197 0.0
N1241 N 0.37303 0.41759 0.93996 0.0
H1242 H 0.59719 0.9619 0.96191 0.0
H1243 H 0.57738 0.00606 0.86599 0.0
H1244 H 0.63712 0.00103 0.92096 0.0
H1245 H 0.53968 0.95452 0.88823 0.0
H1246 H 0.59945 0.00498 0.88686 0.0
H1247 H 0.5757 0.95911 0.93585 0.0
C1248 C 0.60144 0.96975 0.94731 0.0
C1249 C 0.61896 0.9818 0.94366 0.0
C1250 C 0.58639 0.99382 0.88698 0.0
C1251 C 0.59448 0.97887 0.91404 0.0
C1252 C 0.57381 0.99448 0.87519 0.0
C1253 C 0.55674 0.98039 0.87554 0.0
C1254 C 0.58177 0.9791 0.89953 0.0
C1255 C 0.55275 0.96562 0.88754 0.0
C1256 C 0.58919 0.96812 0.93243 0.0
C1257 C 0.62376 0.99159 0.92444 0.0
N1258 N 0.56514 0.96544 0.89933 0.0
N1259 N 0.61157 0.9901 0.9105 0.0
H1260 H 0.62648 0.00043 0.07042 0.0
H1261 H 0.56252 0.03316 0.1016 0.0
H1262 H 0.60556 0.01909 0.02295 0.0
H1263 H 0.57899 0.00932 0.14776 0.0
H1264 H 0.58068 0.031 0.07343 0.0
H1265 H 0.61151 0.00637 0.09972 0.0
C1266 C 0.61883 0.00587 0.06616 0.0
C1267 C 0.61718 0.00916 0.04416 0.0
C1268 C 0.58039 0.02632 0.08975 0.0
C1269 C 0.6 0.01596 0.07764 0.0
C1270 C 0.57012 0.02766 0.10589 0.0
C1271 C 0.56918 0.02134 0.12705 0.0
C1272 C 0.58985 0.01864 0.09478 0.0
C1273 C 0.57914 0.01412 0.13157 0.0
C1274 C 0.61026 0.00923 0.0829 0.0
C1275 C 0.60712 0.01626 0.03965 0.0
N1276 N 0.58901 0.01292 0.11556 0.0
N1277 N 0.59887 0.01936 0.05623 0.0
H1278 H 0.95579 0.59529 0.04735 0.0
H1279 H 0.97596 0.57615 0.16724 0.0
H1280 H 0.98534 0.63574 0.09647 0.0
H1281 H 0.94941 0.53646 0.11625 0.0
H1282 H 0.97627 0.59773 0.14338 0.0
H1283 H 0.94983 0.5732 0.0743 0.0
C1284 C 0.96088 0.59954 0.06388 0.0
C1285 C 0.97127 0.61742 0.06957 0.0
C1286 C 0.97023 0.58426 0.1375 0.0
C1287 C 0.96458 0.59213 0.1005 0.0
C1288 C 0.97012 0.57195 0.15107 0.0
C1289 C 0.9628 0.55448 0.14367 0.0
C1290 C 0.96301 0.5791 0.11631 0.0
C1291 C 0.95511 0.54973 0.12273 0.0
C1292 C 0.95749 0.5869 0.07926 0.0
C1293 C 0.97739 0.62212 0.0913 0.0
N1294 N 0.95555 0.56199 0.10973 0.0
N1295 N 0.97409 0.60955 0.10591 0.0
H1296 H 0.36722 0.37155 0.06992 0.0
H1297 H 0.46665 0.42932 0.10296 0.0
H1298 H 0.40845 0.39359 0.02242 0.0
H1299 H 0.42517 0.41399 0.14919 0.0
H1300 H 0.4456 0.41288 0.07377 0.0
H1301 H 0.3884 0.38381 0.09959 0.0
C1302 C 0.38073 0.37889 0.06571 0.0
C1303 C 0.38607 0.38168 0.04364 0.0
C1304 C 0.44111 0.41302 0.09034 0.0
C1305 C 0.41039 0.39574 0.07756 0.0
C1306 C 0.45311 0.42228 0.10703 0.0
C1307 C 0.44763 0.4231 0.12849 0.0
C1308 C 0.4235 0.40445 0.09517 0.0
C1309 C 0.42993 0.4139 0.13279 0.0
C1310 C 0.39282 0.3859 0.08268 0.0
C1311 C 0.40376 0.39123 0.0392 0.0
N1312 N 0.4185 0.40502 0.11626 0.0
N1313 N 0.41529 0.39798 0.05602 0.0
H1314 H 0.62943 0.71318 0.36447 0.0
H1315 H 0.64446 0.74566 0.49095 0.0
H1316 H 0.66167 0.70637 0.40895 0.0
H1317 H 0.61654 0.75708 0.44475 0.0
H1318 H 0.64819 0.72833 0.46218 0.0
H1319 H 0.62187 0.72639 0.39476 0.0
C1320 C 0.63485 0.71437 0.38063 0.0
C1321 C 0.64631 0.70878 0.38412 0.0
C1322 C 0.64114 0.73452 0.45838 0.0
C1323 C 0.63772 0.72391 0.41889 0.0
C1324 C 0.63905 0.74446 0.47478 0.0
C1325 C 0.63029 0.75297 0.47022 0.0
C1326 C 0.63444 0.73307 0.43722 0.0
C1327 C 0.62327 0.75067 0.44908 0.0
C1328 C 0.63053 0.72193 0.39792 0.0
C1329 C 0.65287 0.7106 0.40545 0.0
N1330 N 0.62561 0.74105 0.43334 0.0
N1331 N 0.64855 0.71808 0.42199 0.0
H1332 H 0.26932 0.95874 0.41443 0.0
H1333 H 0.25891 0.87746 0.47886 0.0
H1334 H 0.29541 0.93211 0.3948 0.0
H1335 H 0.22391 0.89579 0.48557 0.0
H1336 H 0.2747 0.89936 0.45087 0.0
H1337 H 0.25495 0.93781 0.44366 0.0
C1338 C 0.27207 0.94851 0.41629 0.0
C1339 C 0.28355 0.94714 0.40209 0.0
C1340 C 0.26359 0.89859 0.45856 0.0
C1341 C 0.26715 0.92314 0.43562 0.0
C1342 C 0.25452 0.88605 0.47448 0.0
C1343 C 0.24001 0.88472 0.48464 0.0
C1344 C 0.2582 0.90996 0.45284 0.0
C1345 C 0.23515 0.89646 0.47853 0.0
C1346 C 0.26382 0.93654 0.43297 0.0
C1347 C 0.2866 0.9336 0.40531 0.0
N1348 N 0.24421 0.90856 0.46305 0.0
N1349 N 0.27845 0.92212 0.42178 0.0
H1350 H 0.07589 0.37498 0.37939 0.0
H1351 H 0.10892 0.37961 0.5022 0.0
H1352 H 0.04339 0.36296 0.43665 0.0
H1353 H 0.13829 0.38521 0.44347 0.0
H1354 H 0.08601 0.37739 0.47921 0.0
H1355 H 0.10005 0.3827 0.40338 0.0
C1356 C 0.07384 0.37407 0.39705 0.0
C1357 C 0.05751 0.36813 0.406 0.0
C1358 C 0.09753 0.37923 0.4714 0.0
C1359 C 0.08523 0.37691 0.43365 0.0
C1360 C 0.11062 0.38059 0.4845 0.0
C1361 C 0.12542 0.38241 0.47468 0.0
C1362 C 0.09934 0.37982 0.44835 0.0
C1363 C 0.12696 0.38351 0.45168 0.0
C1364 C 0.08767 0.37848 0.41076 0.0
C1365 C 0.05572 0.36738 0.42902 0.0
N1366 N 0.11406 0.38212 0.43932 0.0
N1367 N 0.06939 0.37158 0.44207 0.0
H1368 H 0.01304 0.2915 0.29636 0.0
H1369 H 0.09693 0.32769 0.22106 0.0
H1370 H 0.05404 0.34576 0.29353 0.0
H1371 H 0.05849 0.27268 0.22503 0.0
H1372 H 0.07942 0.33446 0.24478 0.0
H1373 H 0.02766 0.2842 0.26776 0.0
C1374 C 0.02504 0.30188 0.28966 0.0
C1375 C 0.0324 0.31925 0.29749 0.0
C1376 C 0.07471 0.32089 0.24044 0.0
C1377 C 0.0491 0.31102 0.26483 0.0
C1378 C 0.08473 0.31703 0.22692 0.0
C1379 C 0.07924 0.2996 0.22137 0.0
C1380 C 0.05906 0.30721 0.24865 0.0
C1381 C 0.06317 0.2863 0.22901 0.0
C1382 C 0.03337 0.2977 0.27336 0.0
C1383 C 0.04794 0.33217 0.28818 0.0
N1384 N 0.05369 0.29037 0.24249 0.0
N1385 N 0.05576 0.32778 0.27245 0.0
H1386 H 0.70307 0.73361 0.29556 0.0
H1387 H 0.66769 0.7702 0.20659 0.0
H1388 H 0.65048 0.70591 0.27297 0.0
H1389 H 0.72172 0.78906 0.21219 0.0
H1390 H 0.66139 0.74779 0.23295 0.0
H1391 H 0.71048 0.7554 0.2672 0.0
C1392 C 0.69311 0.73208 0.28463 0.0
C1393 C 0.67612 0.71794 0.28668 0.0
C1394 C 0.67463 0.75675 0.22832 0.0
C1395 C 0.68446 0.7428 0.25446 0.0
C1396 C 0.67826 0.76952 0.21309 0.0
C1397 C 0.69529 0.78153 0.20689 0.0
C1398 C 0.68809 0.75602 0.23778 0.0
C1399 C 0.70841 0.78023 0.21659 0.0
C1400 C 0.69735 0.74447 0.26844 0.0
C1401 C 0.66374 0.71657 0.27204 0.0
N1402 N 0.70455 0.76775 0.23162 0.0
N1403 N 0.66814 0.72889 0.25668 0.0
H1404 H 0.28807 0.95967 0.27869 0.0
H1405 H 0.19068 0.91238 0.23905 0.0
H1406 H 0.24765 0.9574 0.31876 0.0
H1407 H 0.23247 0.92252 0.19551 0.0
H1408 H 0.21142 0.92958 0.26805 0.0
H1409 H 0.26804 0.94664 0.2478 0.0
C1410 C 0.275 0.95652 0.28097 0.0
C1411 C 0.2695 0.95953 0.30141 0.0
C1412 C 0.21607 0.92817 0.2521 0.0
C1413 C 0.24646 0.94452 0.26609 0.0
C1414 C 0.20422 0.91843 0.23543 0.0
C1415 C 0.20979 0.9159 0.21475 0.0
C1416 C 0.23365 0.93536 0.24819 0.0
C1417 C 0.22754 0.92383 0.21128 0.0
C1418 C 0.26357 0.94911 0.2633 0.0
C1419 C 0.25244 0.95527 0.30334 0.0
N1420 N 0.23882 0.93308 0.22787 0.0
N1421 N 0.2415 0.94785 0.28596 0.0
H1422 H 0.69014 0.96666 0.29257 0.0
H1423 H 0.66166 0.88266 0.21382 0.0
H1424 H 0.63829 0.92204 0.28725 0.0
H1425 H 0.71319 0.9281 0.21492 0.0
H1426 H 0.65313 0.89715 0.24089 0.0
H1427 H 0.69913 0.95297 0.26445 0.0
C1428 C 0.68065 0.95401 0.28549 0.0
C1429 C 0.66344 0.94546 0.2923 0.0
C1430 C 0.6663 0.90402 0.2352 0.0
C1431 C 0.67363 0.92976 0.2602 0.0
C1432 C 0.67117 0.89578 0.21959 0.0
C1433 C 0.68816 0.90422 0.21192 0.0
C1434 C 0.6785 0.92084 0.24337 0.0
C1435 C 0.69999 0.92105 0.22048 0.0
C1436 C 0.68579 0.94622 0.26944 0.0
C1437 C 0.65169 0.92911 0.28254 0.0
N1438 N 0.69493 0.92882 0.23575 0.0
N1439 N 0.65701 0.9218 0.26704 0.0
H1440 H 0.0672 0.72282 0.30004 0.0
H1441 H 0.06376 0.7875 0.21537 0.0
H1442 H 0.02464 0.7306 0.29717 0.0
H1443 H 0.10565 0.77885 0.22028 0.0
H1444 H 0.04896 0.76686 0.2451 0.0
H1445 H 0.08121 0.74343 0.27058 0.0
C1446 C 0.06078 0.72888 0.29323 0.0
C1447 C 0.0447 0.72495 0.3011 0.0
C1448 C 0.06137 0.76946 0.23958 0.0
C1449 C 0.06074 0.74867 0.26717 0.0
C1450 C 0.06984 0.78127 0.22267 0.0
C1451 C 0.08592 0.78482 0.21518 0.0
C1452 C 0.06909 0.76122 0.2491 0.0
C1453 C 0.09314 0.77628 0.22516 0.0
C1454 C 0.06881 0.74068 0.27635 0.0
C1455 C 0.03704 0.73326 0.2916 0.0
N1456 N 0.0847 0.76493 0.24156 0.0
N1457 N 0.04514 0.74474 0.27509 0.0
H1458 H 0.28644 0.30299 0.25606 0.0
H1459 H 0.18832 0.27645 0.25326 0.0
H1460 H 0.25624 0.29827 0.31368 0.0
H1461 H 0.2186 0.28497 0.19458 0.0
H1462 H 0.21209 0.28026 0.27541 0.0
H1463 H 0.26089 0.29259 0.2331 0.0
C1464 C 0.27442 0.29962 0.26391 0.0
C1465 C 0.27352 0.30167 0.28681 0.0
C1466 C 0.21354 0.28115 0.25768 0.0
C1467 C 0.2443 0.28977 0.26069 0.0
C1468 C 0.19996 0.27898 0.24504 0.0
C1469 C 0.2016 0.28062 0.22211 0.0
C1470 C 0.22896 0.28513 0.24736 0.0
C1471 C 0.21684 0.28361 0.21224 0.0
C1472 C 0.25986 0.2937 0.25079 0.0
C1473 C 0.2576 0.29707 0.29609 0.0
N1474 N 0.23004 0.28599 0.22496 0.0
N1475 N 0.24368 0.29144 0.283 0.0
H1476 H 0.28177 0.36612 0.35894 0.0
H1477 H 0.25867 0.36142 0.48709 0.0
H1478 H 0.29647 0.34169 0.4066 0.0
H1479 H 0.24567 0.38734 0.43954 0.0
H1480 H 0.2743 0.35578 0.45839 0.0
H1481 H 0.27027 0.37579 0.38876 0.0
C1482 C 0.28268 0.36287 0.3757 0.0
C1483 C 0.28998 0.35296 0.38025 0.0
C1484 C 0.26815 0.36283 0.45427 0.0
C1485 C 0.27676 0.36394 0.41451 0.0
C1486 C 0.25917 0.366 0.47063 0.0
C1487 C 0.25076 0.37478 0.46568 0.0
C1488 C 0.26864 0.36839 0.43275 0.0
C1489 C 0.25207 0.38065 0.44416 0.0
C1490 C 0.27611 0.36841 0.39273 0.0
C1491 C 0.29088 0.34923 0.40231 0.0
N1492 N 0.2607 0.37723 0.42847 0.0
N1493 N 0.28423 0.35462 0.4186 0.0
H1494 H 0.65249 0.96633 0.43095 0.0
H1495 H 0.61491 0.86464 0.44991 0.0
H1496 H 0.63196 0.92667 0.37892 0.0
H1497 H 0.6427 0.90524 0.4995 0.0
H1498 H 0.61713 0.88668 0.42515 0.0
H1499 H 0.64517 0.94358 0.45761 0.0
C1500 C 0.6463 0.95283 0.42514 0.0
C1501 C 0.64298 0.94842 0.40263 0.0
C1502 C 0.62264 0.89075 0.4415 0.0
C1503 C 0.6346 0.92234 0.43305 0.0
C1504 C 0.62127 0.87816 0.4557 0.0
C1505 C 0.62874 0.88314 0.47674 0.0
C1506 C 0.63151 0.90845 0.4484 0.0
C1507 C 0.637 0.90088 0.48328 0.0
C1508 C 0.64216 0.93986 0.44037 0.0
C1509 C 0.63489 0.93069 0.39609 0.0
N1510 N 0.63823 0.91291 0.46912 0.0
N1511 N 0.63106 0.91832 0.41121 0.0
H1512 H 0.05115 0.69986 0.40138 0.0
H1513 H 0.10117 0.7798 0.48803 0.0
H1514 H 0.04101 0.74139 0.41087 0.0
H1515 H 0.10994 0.73714 0.48168 0.0
H1516 H 0.07841 0.76525 0.46063 0.0
H1517 H 0.07224 0.7128 0.43125 0.0
C1518 C 0.05332 0.71167 0.40977 0.0
C1519 C 0.04434 0.71959 0.40356 0.0
C1520 C 0.08523 0.759 0.46528 0.0
C1521 C 0.06845 0.73446 0.43774 0.0
C1522 C 0.09817 0.76725 0.4811 0.0
C1523 C 0.1075 0.75968 0.48725 0.0
C1524 C 0.08158 0.74308 0.45538 0.0
C1525 C 0.10324 0.74357 0.47727 0.0
C1526 C 0.06536 0.71904 0.42684 0.0
C1527 C 0.04765 0.73485 0.41505 0.0
N1528 N 0.09063 0.73583 0.46178 0.0
N1529 N 0.05947 0.7418 0.43151 0.0
H1530 H 0.32609 0.03968 0.73688 0.0
H1531 H 0.28192 0.0936 0.77042 0.0
H1532 H 0.30067 0.05393 0.69027 0.0
H1533 H 0.30846 0.08012 0.8162 0.0
H1534 H 0.28579 0.07638 0.74161 0.0
H1535 H 0.31707 0.05182 0.7667 0.0
C1536 C 0.31852 0.04528 0.7329 0.0
C1537 C 0.31428 0.04595 0.71099 0.0
C1538 C 0.29064 0.07707 0.75801 0.0
C1539 C 0.30394 0.05996 0.74516 0.0
C1540 C 0.28832 0.08679 0.77451 0.0
C1541 C 0.295 0.08841 0.79573 0.0
C1542 C 0.2997 0.06891 0.76273 0.0
C1543 C 0.30337 0.07948 0.79999 0.0
C1544 C 0.31336 0.05221 0.74998 0.0
C1545 C 0.30432 0.05323 0.7069 0.0
N1546 N 0.30558 0.07021 0.78361 0.0
N1547 N 0.2996 0.06008 0.72381 0.0
H1548 H 0.95895 0.25452 0.71266 0.0
H1549 H 0.93366 0.23509 0.83957 0.0
H1550 H 0.98329 0.2935 0.76501 0.0
H1551 H 0.91206 0.19557 0.78747 0.0
H1552 H 0.95344 0.25626 0.81294 0.0
H1553 H 0.94326 0.23229 0.74018 0.0
C1554 C 0.96111 0.25839 0.72995 0.0
C1555 C 0.97234 0.27594 0.73652 0.0
C1556 C 0.94449 0.24291 0.80737 0.0
C1557 C 0.95431 0.25054 0.76816 0.0
C1558 C 0.93315 0.23084 0.82255 0.0
C1559 C 0.92112 0.21356 0.81571 0.0
C1560 C 0.9437 0.2377 0.78515 0.0
C1561 C 0.9212 0.20871 0.79353 0.0
C1562 C 0.95214 0.24567 0.74568 0.0
C1563 C 0.97469 0.28015 0.75917 0.0
N1564 N 0.93219 0.22075 0.77901 0.0
N1565 N 0.96563 0.26757 0.77417 0.0
H1566 H 0.7138 0.65385 0.73704 0.0
H1567 H 0.79075 0.73169 0.80742 0.0
H1568 H 0.73035 0.7081 0.72905 0.0
H1569 H 0.77946 0.67858 0.80333 0.0
H1570 H 0.76736 0.72344 0.78126 0.0
H1571 H 0.73626 0.66278 0.76433 0.0
C1572 C 0.72214 0.66767 0.74105 0.0
C1573 C 0.72022 0.68025 0.73065 0.0
C1574 C 0.77001 0.71362 0.78622 0.0
C1575 C 0.7461 0.69061 0.76203 0.0
C1576 C 0.78338 0.71832 0.80108 0.0
C1577 C 0.78704 0.70579 0.80777 0.0
C1578 C 0.76023 0.69627 0.77806 0.0
C1579 C 0.77693 0.68862 0.79913 0.0
C1580 C 0.73502 0.67277 0.75664 0.0
C1581 C 0.73143 0.69797 0.73661 0.0
N1582 N 0.76404 0.6844 0.78479 0.0
N1583 N 0.74393 0.70265 0.75192 0.0
H1584 H 0.68914 0.61961 0.64115 0.0
H1585 H 0.75737 0.6611 0.54356 0.0
H1586 H 0.71115 0.67248 0.61911 0.0
H1587 H 0.73159 0.60652 0.55955 0.0
H1588 H 0.7393 0.66494 0.57013 0.0
H1589 H 0.70334 0.6139 0.61046 0.0
C1590 C 0.69686 0.62998 0.62981 0.0
C1591 C 0.69908 0.6466 0.63283 0.0
C1592 C 0.73746 0.65207 0.56775 0.0
C1593 C 0.71536 0.64017 0.59777 0.0
C1594 C 0.74781 0.6499 0.55262 0.0
C1595 C 0.74605 0.63351 0.54953 0.0
C1596 C 0.72534 0.63778 0.58009 0.0
C1597 C 0.73331 0.61936 0.56144 0.0
C1598 C 0.70494 0.6267 0.61228 0.0
C1599 C 0.70916 0.65951 0.61756 0.0
N1600 N 0.72354 0.62186 0.5764 0.0
N1601 N 0.717 0.65605 0.60081 0.0
H1602 H 0.36803 0.07842 0.63752 0.0
H1603 H 0.36101 0.09903 0.51222 0.0
H1604 H 0.34772 0.03906 0.58514 0.0
H1605 H 0.38365 0.13853 0.56423 0.0
H1606 H 0.35737 0.07705 0.53821 0.0
H1607 H 0.37533 0.10084 0.61046 0.0
C1608 C 0.3652 0.07449 0.62031 0.0
C1609 C 0.35714 0.0568 0.61362 0.0
C1610 C 0.36326 0.09055 0.54389 0.0
C1611 C 0.3654 0.08243 0.58251 0.0
C1612 C 0.36527 0.10309 0.52909 0.0
C1613 C 0.37258 0.12064 0.53608 0.0
C1614 C 0.3685 0.09557 0.56591 0.0
C1615 C 0.3781 0.1252 0.55805 0.0
C1616 C 0.36937 0.08731 0.60485 0.0
C1617 C 0.35385 0.05252 0.59107 0.0
N1618 N 0.37583 0.11273 0.5722 0.0
N1619 N 0.35789 0.06523 0.57635 0.0
H1620 H 0.91771 0.28123 0.65854 0.0
H1621 H 0.90413 0.25574 0.52976 0.0
H1622 H 0.95872 0.29184 0.61333 0.0
H1623 H 0.86237 0.24158 0.57517 0.0
H1624 H 0.9245 0.2717 0.55966 0.0
H1625 H 0.89742 0.26929 0.6277 0.0
C1626 C 0.92247 0.28115 0.64213 0.0
C1627 C 0.93992 0.28742 0.63855 0.0
C1628 C 0.91089 0.2652 0.56308 0.0
C1629 C 0.9168 0.27378 0.60322 0.0
C1630 C 0.89925 0.25604 0.54603 0.0
C1631 C 0.88152 0.24717 0.55002 0.0
C1632 C 0.90478 0.26548 0.58436 0.0
C1633 C 0.87593 0.2483 0.57132 0.0
C1634 C 0.91088 0.27432 0.62454 0.0
C1635 C 0.94537 0.28704 0.61692 0.0
N1636 N 0.88752 0.25716 0.58774 0.0
N1637 N 0.93385 0.28026 0.60012 0.0
H1638 H 0.37602 0.31756 0.61781 0.0
H1639 H 0.33752 0.22535 0.55322 0.0
H1640 H 0.32371 0.27413 0.62365 0.0
H1641 H 0.38909 0.26905 0.54296 0.0
H1642 H 0.33264 0.24326 0.57949 0.0
H1643 H 0.38148 0.30024 0.59077 0.0
C1644 C 0.36569 0.30442 0.6134 0.0
C1645 C 0.34939 0.29729 0.62305 0.0
C1646 C 0.34503 0.24899 0.57149 0.0
C1647 C 0.35556 0.27743 0.59223 0.0
C1648 C 0.3478 0.23878 0.55636 0.0
C1649 C 0.3637 0.24574 0.5457 0.0
C1650 C 0.35826 0.26633 0.57616 0.0
C1651 C 0.37667 0.26311 0.55089 0.0
C1652 C 0.36882 0.29454 0.59798 0.0
C1653 C 0.33648 0.28019 0.6167 0.0
N1654 N 0.37365 0.27284 0.56574 0.0
N1655 N 0.33986 0.27087 0.60175 0.0
H1656 H 0.68476 0.03785 0.57976 0.0
H1657 H 0.75224 0.13933 0.55883 0.0
H1658 H 0.70656 0.07792 0.63124 0.0
H1659 H 0.73716 0.0987 0.5087 0.0
H1660 H 0.73215 0.11739 0.58431 0.0
H1661 H 0.70067 0.06035 0.55243 0.0
C1662 C 0.69277 0.05139 0.58531 0.0
C1663 C 0.69444 0.05599 0.60784 0.0
C1664 C 0.73313 0.11327 0.5677 0.0
C1665 C 0.71264 0.08176 0.57668 0.0
C1666 C 0.74451 0.12582 0.55306 0.0
C1667 C 0.74645 0.12084 0.53161 0.0
C1668 C 0.72359 0.09557 0.56088 0.0
C1669 C 0.73625 0.10308 0.52519 0.0
C1670 C 0.70187 0.06421 0.5697 0.0
C1671 C 0.70498 0.07374 0.61407 0.0
N1672 N 0.72531 0.09107 0.5398 0.0
N1673 N 0.71372 0.08595 0.59859 0.0
H1674 H 0.96108 0.67584 0.5955 0.0
H1675 H 0.86531 0.60734 0.55393 0.0
H1676 H 0.92658 0.62818 0.6294 0.0
H1677 H 0.8955 0.66095 0.53365 0.0
H1678 H 0.88931 0.61242 0.57721 0.0
H1679 H 0.93876 0.66812 0.56824 0.0
C1680 C 0.94885 0.66367 0.59715 0.0
C1681 C 0.94564 0.65272 0.61491 0.0
C1682 C 0.89069 0.62301 0.56752 0.0
C1683 C 0.92001 0.6438 0.58366 0.0
C1684 C 0.87708 0.62009 0.55418 0.0
C1685 C 0.87844 0.6338 0.54205 0.0
C1686 C 0.90578 0.63969 0.56848 0.0
C1687 C 0.89389 0.65011 0.54299 0.0
C1688 C 0.93609 0.6593 0.58158 0.0
C1689 C 0.92955 0.63708 0.61608 0.0
N1690 N 0.90694 0.65261 0.55602 0.0
N1691 N 0.91729 0.63311 0.6007 0.0
H1692 H 0.95243 0.70455 0.68664 0.0
H1693 H 0.93144 0.70966 0.81416 0.0
H1694 H 0.9627 0.67875 0.73754 0.0
H1695 H 0.90847 0.72123 0.76113 0.0
H1696 H 0.94788 0.70359 0.787 0.0
H1697 H 0.94104 0.7159 0.7146 0.0
C1698 C 0.95242 0.70138 0.70371 0.0
C1699 C 0.95836 0.69054 0.70974 0.0
C1700 C 0.93936 0.70761 0.78135 0.0
C1701 C 0.94541 0.70354 0.74179 0.0
C1702 C 0.93009 0.71119 0.79682 0.0
C1703 C 0.91853 0.71581 0.7898 0.0
C1704 C 0.93714 0.70886 0.75877 0.0
C1705 C 0.91712 0.71749 0.76716 0.0
C1706 C 0.94588 0.70784 0.71965 0.0
C1707 C 0.95809 0.68692 0.73213 0.0
N1708 N 0.92627 0.71396 0.75244 0.0
N1709 N 0.95165 0.69337 0.74735 0.0
H1710 H 0.31751 0.30162 0.76072 0.0
H1711 H 0.2785 0.1996 0.77889 0.0
H1712 H 0.29511 0.26192 0.70886 0.0
H1713 H 0.30627 0.23982 0.82891 0.0
H1714 H 0.28061 0.2218 0.75457 0.0
H1715 H 0.30972 0.27872 0.78732 0.0
C1716 C 0.3108 0.28808 0.75494 0.0
C1717 C 0.30713 0.2837 0.73248 0.0
C1718 C 0.28612 0.22576 0.77093 0.0
C1719 C 0.29823 0.25744 0.76283 0.0
C1720 C 0.28482 0.21307 0.78489 0.0
C1721 C 0.29235 0.21788 0.8059 0.0
C1722 C 0.29501 0.24342 0.77803 0.0
C1723 C 0.30054 0.23557 0.81269 0.0
C1724 C 0.30639 0.27501 0.77014 0.0
C1725 C 0.29835 0.26593 0.72598 0.0
N1726 N 0.30175 0.24771 0.79875 0.0
N1727 N 0.29431 0.25347 0.74105 0.0
H1728 H 0.71594 0.08501 0.72198 0.0
H1729 H 0.77885 0.07546 0.80242 0.0
H1730 H 0.72005 0.03931 0.72161 0.0
H1731 H 0.77684 0.1222 0.79819 0.0
H1732 H 0.75682 0.06151 0.77367 0.0
H1733 H 0.73758 0.09829 0.75094 0.0
C1734 C 0.72138 0.07774 0.728 0.0
C1735 C 0.71617 0.06102 0.71932 0.0
C1736 C 0.76119 0.0748 0.77909 0.0
C1737 C 0.74105 0.07619 0.75259 0.0
C1738 C 0.77382 0.0828 0.79543 0.0
C1739 C 0.77967 0.10001 0.80283 0.0
C1740 C 0.75438 0.08409 0.77006 0.0
C1741 C 0.77253 0.10882 0.79333 0.0
C1742 C 0.73377 0.08535 0.74456 0.0
C1743 C 0.7237 0.05224 0.72781 0.0
N1744 N 0.7603 0.10077 0.77748 0.0
N1745 N 0.73577 0.05994 0.74399 0.0
H1746 H 0.05727 0.34922 0.02304 0.0
H1747 H 0.08256 0.32404 0.13558 0.0
H1748 H 0.03219 0.34485 0.08538 0.0
H1749 H 0.1008 0.31823 0.07188 0.0
H1750 H 0.06649 0.33499 0.11774 0.0
H1751 H 0.07589 0.34124 0.04103 0.0
C1752 C 0.05579 0.34675 0.04053 0.0
C1753 C 0.0431 0.3476 0.05272 0.0
C1754 C 0.07403 0.33136 0.10764 0.0
C1755 C 0.06427 0.33847 0.07331 0.0
C1756 C 0.08328 0.32519 0.11783 0.0
C1757 C 0.09302 0.3202 0.10518 0.0
C1758 C 0.07455 0.33263 0.08461 0.0
C1759 C 0.09329 0.32175 0.08221 0.0
C1760 C 0.06635 0.34212 0.05075 0.0
C1761 C 0.04171 0.34423 0.07531 0.0
N1762 N 0.08419 0.32784 0.07264 0.0
N1763 N 0.05213 0.33978 0.08485 0.0
H1764 H 0.67083 0.68588 0.06051 0.0
H1765 H 0.68576 0.7813 0.04767 0.0
H1766 H 0.65941 0.70301 0.00106 0.0
H1767 H 0.69759 0.76429 0.10684 0.0
H1768 H 0.67653 0.75288 0.03007 0.0
H1769 H 0.68081 0.71458 0.07768 0.0
C1770 C 0.67035 0.69565 0.05108 0.0
C1771 C 0.66427 0.69203 0.02929 0.0
C1772 C 0.68121 0.75537 0.04687 0.0
C1773 C 0.67579 0.72498 0.04885 0.0
C1774 C 0.68645 0.77159 0.05694 0.0
C1775 C 0.69239 0.77514 0.07879 0.0
C1776 C 0.68186 0.74258 0.05875 0.0
C1777 C 0.69325 0.76217 0.08991 0.0
C1778 C 0.67611 0.71206 0.06089 0.0
C1779 C 0.66398 0.70521 0.01789 0.0
N1780 N 0.68796 0.74643 0.0798 0.0
N1781 N 0.66968 0.72111 0.0278 0.0
H1782 H 0.2951 0.98576 0.03636 0.0
H1783 H 0.23386 0.89345 0.09011 0.0
H1784 H 0.30314 0.94271 0.02841 0.0
H1785 H 0.21672 0.92863 0.07579 0.0
H1786 H 0.26042 0.91238 0.07032 0.0
H1787 H 0.26733 0.96604 0.05354 0.0
C1788 C 0.29098 0.97213 0.03814 0.0
C1789 C 0.30145 0.96585 0.03101 0.0
C1790 C 0.2508 0.9159 0.07143 0.0
C1791 C 0.26984 0.94333 0.05085 0.0
C1792 C 0.23556 0.90505 0.08266 0.0
C1793 C 0.22289 0.90934 0.08458 0.0
C1794 C 0.25357 0.93131 0.06229 0.0
C1795 C 0.22615 0.92487 0.07505 0.0
C1796 C 0.27513 0.9609 0.04789 0.0
C1797 C 0.29546 0.94808 0.03363 0.0
N1798 N 0.2412 0.93532 0.06439 0.0
N1799 N 0.2801 0.93746 0.04354 0.0
H1800 H 0.3498 0.0621 0.0015 0.0
H1801 H 0.30379 0.07503 0.89902 0.0
H1802 H 0.32136 0.02249 0.95103 0.0
H1803 H 0.32919 0.11393 0.95119 0.0
H1804 H 0.31073 0.05589 0.91769 0.0
H1805 H 0.34324 0.08175 0.98296 0.0
C1806 C 0.34222 0.05756 0.98652 0.0
C1807 C 0.3361 0.04062 0.97782 0.0
C1808 C 0.31479 0.0686 0.92509 0.0
C1809 C 0.32855 0.06297 0.95659 0.0
C1810 C 0.31073 0.0795 0.91449 0.0
C1811 C 0.31587 0.09611 0.92356 0.0
C1812 C 0.32409 0.07431 0.94494 0.0
C1813 C 0.32513 0.10132 0.94346 0.0
C1814 C 0.33846 0.06875 0.97597 0.0
C1815 C 0.32633 0.03541 0.95838 0.0
N1816 N 0.32893 0.09046 0.95349 0.0
N1817 N 0.32287 0.04653 0.94845 0.0
H1818 H 0.95388 0.29328 0.02688 0.0
H1819 H 0.93367 0.23168 0.91917 0.0
H1820 H 0.98646 0.30814 0.96939 0.0
H1821 H 0.8985 0.2184 0.97367 0.0
H1822 H 0.95455 0.25845 0.93918 0.0
H1823 H 0.9346 0.26462 0.00924 0.0
C1824 C 0.95701 0.29051 0.0106 0.0
C1825 C 0.97175 0.30317 -0.00045 0.0
C1826 C 0.9423 0.24964 0.94683 0.0
C1827 C 0.94981 0.27043 0.97932 0.0
C1828 C 0.93043 0.23428 0.93548 0.0
C1829 C 0.91428 0.22285 0.94471 0.0
C1830 C 0.93802 0.2536 0.96759 0.0
C1831 C 0.9107 0.227 0.9658 0.0
C1832 C 0.94601 0.27415 0.00054 0.0
C1833 C 0.9752 0.29884 0.9785 0.0
N1834 N 0.92244 0.24208 0.97649 0.0
N1835 N 0.96429 0.28287 0.96907 0.0
H1836 H 0.71029 0.65265 0.00116 0.0
H1837 H 0.77619 0.70753 0.90509 0.0
H1838 H 0.69825 0.67465 0.94726 0.0
H1839 H 0.78945 0.68714 0.95961 0.0
H1840 H 0.74777 0.6961 0.92098 0.0
H1841 H 0.73937 0.66515 0.98646 0.0
C1842 C 0.71373 0.66004 0.9862 0.0
C1843 C 0.70181 0.66259 0.97542 0.0
C1844 C 0.7569 0.69418 0.92955 0.0
C1845 C 0.73505 0.677 0.9586 0.0
C1846 C 0.77322 0.70086 0.92058 0.0
C1847 C 0.78526 0.69832 0.93104 0.0
C1848 C 0.75252 0.68482 0.94913 0.0
C1849 C 0.78051 0.68922 0.95085 0.0
C1850 C 0.73035 0.66722 0.97786 0.0
C1851 C 0.70699 0.67233 0.95614 0.0
N1852 N 0.76449 0.68276 0.95923 0.0
N1853 N 0.72321 0.67917 0.94837 0.0
H1854 H 0.94579 0.65806 0.99336 0.0
H1855 H 0.92181 0.68549 0.88157 0.0
H1856 H 0.96492 0.65442 0.92926 0.0
H1857 H 0.90596 0.69321 0.94602 0.0
H1858 H 0.93665 0.67285 0.89869 0.0
H1859 H 0.92986 0.66953 0.97621 0.0
C1860 C 0.94655 0.65955 0.97567 0.0
C1861 C 0.95674 0.65531 0.96273 0.0
C1862 C 0.92995 0.67733 0.9091 0.0
C1863 C 0.93862 0.66852 0.94303 0.0
C1864 C 0.92143 0.68449 0.89933 0.0
C1865 C 0.91265 0.69042 0.91239 0.0
C1866 C 0.92965 0.67601 0.93212 0.0
C1867 C 0.91276 0.689 0.93535 0.0
C1868 C 0.9375 0.66617 0.9659 0.0
C1869 C 0.95727 0.65756 0.9399 0.0
N1870 N 0.92109 0.68191 0.94448 0.0
N1871 N 0.94837 0.66404 0.93079 0.0
H1872 H 0.36498 0.32733 0.95146 0.0
H1873 H 0.29375 0.22489 0.94147 0.0
H1874 H 0.31635 0.30283 0.98557 0.0
H1875 H 0.34275 0.24896 0.90839 0.0
H1876 H 0.30179 0.25345 0.95764 0.0
H1877 H 0.35713 0.29876 0.93547 0.0
C1878 C 0.35266 0.31596 0.9556 0.0
C1879 C 0.34131 0.31748 0.96986 0.0
C1880 C 0.3108 0.25249 0.94687 0.0
C1881 C 0.33223 0.28476 0.95163 0.0
C1882 C 0.30617 0.2362 0.93755 0.0
C1883 C 0.3176 0.23454 0.92358 0.0
C1884 C 0.32696 0.26725 0.94214 0.0
C1885 C 0.33363 0.2496 0.9193 0.0
C1886 C 0.34819 0.29964 0.94647 0.0
C1887 C 0.32552 0.30229 0.97465 0.0
N1888 N 0.33782 0.26533 0.92851 0.0
N1889 N 0.32145 0.28658 0.96554 0.0
H1890 H 0.69847 0.0216 0.98835 0.0
H1891 H 0.7571 0.11088 0.92473 0.0
H1892 H 0.68159 0.05663 0.97217 0.0
H1893 H 0.77351 0.07554 0.94123 0.0
H1894 H 0.72969 0.09172 0.94295 0.0
H1895 H 0.72636 0.04178 0.97217 0.0
C1896 C 0.70064 0.03358 0.98147 0.0
C1897 C 0.68763 0.0374 0.98154 0.0
C1898 C 0.73929 0.08817 0.94261 0.0
C1899 C 0.7196 0.06057 0.96287 0.0
C1900 C 0.75498 0.09914 0.9323 0.0
C1901 C 0.76762 0.0948 0.93144 0.0
C1902 C 0.73622 0.07274 0.95215 0.0
C1903 C 0.76405 0.07929 0.94123 0.0
C1904 C 0.71659 0.0451 0.9722 0.0
C1905 C 0.69123 0.05315 0.97244 0.0
N1906 N 0.74869 0.06883 0.95118 0.0
N1907 N 0.70687 0.06414 0.96339 0.0
H1908 H 0.65085 0.94485 0.01706 0.0
H1909 H 0.69638 0.92835 0.11661 0.0
H1910 H 0.6744 0.98077 0.07257 0.0
H1911 H 0.68101 0.89745 0.05598 0.0
H1912 H 0.6874 0.94708 0.10136 0.0
H1913 H 0.66031 0.92633 0.03199 0.0
C1914 C 0.65794 0.94881 0.03242 0.0
C1915 C 0.66185 0.96439 0.04358 0.0
C1916 C 0.68604 0.93623 0.09136 0.0
C1917 C 0.67274 0.9433 0.0607 0.0
C1918 C 0.6913 0.9256 0.1 0.0
C1919 C 0.68947 0.91128 0.08757 0.0
C1920 C 0.67881 0.9325 0.07017 0.0
C1921 C 0.68244 0.90818 0.06629 0.0
C1922 C 0.6634 0.93827 0.04088 0.0
C1923 C 0.67113 0.9689 0.06338 0.0
N1924 N 0.67732 0.91866 0.0583 0.0
N1925 N 0.67624 0.95839 0.07132 0.0
H1926 H 0.0125 0.71323 0.01041 0.0
H1927 H 0.09276 0.75765 0.09289 0.0
H1928 H 0.03187 0.68448 0.04157 0.0
H1929 H 0.06839 0.78411 0.06921 0.0
H1930 H 0.07194 0.73125 0.07209 0.0
H1931 H 0.03439 0.73988 0.02955 0.0
C1932 C 0.02141 0.71252 0.02119 0.0
C1933 C 0.0203 0.69656 0.02445 0.0
C1934 C 0.07115 0.74282 0.07145 0.0
C1935 C 0.0454 0.72708 0.0465 0.0
C1936 C 0.08307 0.75791 0.08322 0.0
C1937 C 0.0823 0.77309 0.08277 0.0
C1938 C 0.0584 0.74293 0.05901 0.0
C1939 C 0.06934 0.77264 0.07021 0.0
C1940 C 0.03389 0.72776 0.03218 0.0
C1941 C 0.03223 0.69648 0.03861 0.0
N1942 N 0.05793 0.75781 0.05879 0.0
N1943 N 0.04426 0.71151 0.04914 0.0
H1944 H 0.30334 0.32908 0.07821 0.0
H1945 H 0.20877 0.31219 0.07114 0.0
H1946 H 0.28605 0.34578 0.0238 0.0
H1947 H 0.23104 0.3083 0.13115 0.0
H1948 H 0.23604 0.32195 0.05219 0.0
H1949 H 0.27599 0.31907 0.0967 0.0
C1950 C 0.29379 0.33066 0.07015 0.0
C1951 C 0.29698 0.33829 0.04944 0.0
C1952 C 0.23494 0.31897 0.0695 0.0
C1953 C 0.26559 0.32674 0.07047 0.0
C1954 C 0.21937 0.31328 0.08026 0.0
C1955 C 0.2177 0.30946 0.10273 0.0
C1956 C 0.24885 0.32067 0.08126 0.0
C1957 C 0.23187 0.31128 0.11386 0.0
C1958 C 0.27819 0.32497 0.08075 0.0
C1959 C 0.28415 0.34003 0.0398 0.0
N1960 N 0.24684 0.31671 0.10299 0.0
N1961 N 0.26896 0.33422 0.05037 0.0
H1962 H 0.72032 0.69143 0.36669 0.0
H1963 H 0.72724 0.61842 0.42973 0.0
H1964 H 0.67657 0.64409 0.39134 0.0
H1965 H 0.77072 0.67034 0.41862 0.0
H1966 H 0.70869 0.62642 0.4118 0.0
H1967 H 0.73927 0.68284 0.38216 0.0
C1968 C 0.7147 0.67924 0.37532 0.0
C1969 C 0.69685 0.6685 0.37781 0.0
C1970 C 0.7223 0.63605 0.41325 0.0
C1971 C 0.71839 0.65856 0.39537 0.0
C1972 C 0.73289 0.63145 0.42333 0.0
C1973 C 0.75051 0.64376 0.42574 0.0
C1974 C 0.7294 0.65305 0.40536 0.0
C1975 C 0.75715 0.66053 0.41735 0.0
C1976 C 0.72552 0.67436 0.38416 0.0
C1977 C 0.69026 0.65283 0.38913 0.0
N1978 N 0.74659 0.66469 0.40753 0.0
N1979 N 0.70103 0.64833 0.39745 0.0
H1980 H 0.3311 0.02088 0.38886 0.0
H1981 H 0.34955 0.11758 0.37856 0.0
H1982 H 0.32757 0.04145 0.32716 0.0
H1983 H 0.36364 0.10009 0.43531 0.0
H1984 H 0.3406 0.08962 0.35959 0.0
H1985 H 0.34195 0.04956 0.40645 0.0
C1986 C 0.33257 0.03143 0.37899 0.0
C1987 C 0.32837 0.02874 0.35649 0.0
C1988 C 0.34577 0.09195 0.37613 0.0
C1989 C 0.34083 0.06168 0.3766 0.0
C1990 C 0.35082 0.10786 0.38697 0.0
C1991 C 0.35729 0.1111 0.40855 0.0
C1992 C 0.34703 0.07912 0.38704 0.0
C1993 C 0.35884 0.09817 0.41862 0.0
C1994 C 0.33885 0.04783 0.38905 0.0
C1995 C 0.33064 0.04293 0.34455 0.0
N1996 N 0.35361 0.08269 0.40784 0.0
N1997 N 0.33664 0.05879 0.35478 0.0
H1998 H 0.99196 0.29019 0.39792 0.0
H1999 H 0.89434 0.26455 0.41193 0.0
H2000 H 0.9714 0.31894 0.36981 0.0
H2001 H 0.91392 0.23439 0.43837 0.0
H2002 H 0.92277 0.28497 0.39705 0.0
H2003 H 0.96364 0.26978 0.41337 0.0
C2004 C 0.98151 0.29221 0.39499 0.0
C2005 C 0.98406 0.3063 0.38255 0.0
C2006 C 0.92086 0.27388 0.4061 0.0
C2007 C 0.95167 0.28303 0.40018 0.0
C2008 C 0.90465 0.26228 0.41471 0.0
C2009 C 0.90175 0.24773 0.42641 0.0
C2010 C 0.93431 0.27098 0.40923 0.0
C2011 C 0.91553 0.24531 0.42922 0.0
C2012 C 0.96535 0.28056 0.40381 0.0
C2013 C 0.97004 0.30828 0.37928 0.0
N2014 N 0.93122 0.25682 0.42071 0.0
N2015 N 0.95448 0.29679 0.38804 0.0
H2016 H 0.9924 0.35567 0.28136 0.0
H2017 H 0.00535 0.45085 0.28039 0.0
H2018 H 0.02298 0.39665 0.32944 0.0
H2019 H 0.98023 0.41191 0.22816 0.0
H2020 H 0.01127 0.43096 0.29917 0.0
H2021 H 0.98696 0.37579 0.26239 0.0
C2022 C -0.00203 0.3689 0.28795 0.0
C2023 C 0.00816 0.37448 0.30703 0.0
C2024 C 0.00449 0.42678 0.28359 0.0
C2025 C 0.00195 0.39761 0.28537 0.0
C2026 C 0.00118 0.43817 0.27278 0.0
C2027 C 0.99229 0.43306 0.25262 0.0
C2028 C -0.00118 0.41012 0.27425 0.0
C2029 C 0.98692 0.41633 0.24379 0.0
C2030 C 0.99487 0.3804 0.27708 0.0
C2031 C 0.01505 0.39179 0.31478 0.0
N2032 N 0.99026 0.40546 0.25466 0.0
N2033 N 0.0118 0.40274 0.30393 0.0
H2034 H 0.60677 0.63069 0.35278 0.0
H2035 H 0.59185 0.56724 0.24871 0.0
H2036 H 0.64424 0.64259 0.30147 0.0
H2037 H 0.55333 0.55565 0.29837 0.0
H2038 H 0.6117 0.5943 0.26894 0.0
H2039 H 0.5873 0.60266 0.33394 0.0
C2040 C 0.61091 0.62742 0.33757 0.0
C2041 C 0.62715 0.63902 0.32867 0.0
C2042 C 0.59892 0.58582 0.27547 0.0
C2043 C 0.60498 0.60699 0.30709 0.0
C2044 C 0.58762 0.5703 0.264 0.0
C2045 C 0.5709 0.55918 0.27184 0.0
C2046 C 0.59348 0.59028 0.29496 0.0
C2047 C 0.56603 0.56396 0.29158 0.0
C2048 C 0.59979 0.61141 0.32684 0.0
C2049 C 0.63184 0.63408 0.30893 0.0
N2050 N 0.57726 0.57917 0.30244 0.0
N2051 N 0.62081 0.61846 0.29882 0.0
H2052 H 0.38123 0.01292 0.35057 0.0
H2053 H 0.41959 0.97746 0.25832 0.0
H2054 H 0.35019 0.96613 0.31056 0.0
H2055 H 0.44884 0.02893 0.28905 0.0
H2056 H 0.39468 0.97165 0.28034 0.0
H2057 H 0.40681 0.01747 0.33126 0.0
C2058 C 0.3798 0.00352 0.33785 0.0
C2059 C 0.36353 0.98917 0.33208 0.0
C2060 C 0.40655 0.98421 0.2823 0.0
C2061 C 0.39274 0.99433 0.30991 0.0
C2062 C 0.4208 0.98749 0.26983 0.0
C2063 C 0.43629 0.00371 0.27186 0.0
C2064 C 0.40782 0.99719 0.29701 0.0
C2065 C 0.43707 0.01633 0.28681 0.0
C2066 C 0.39441 0.00617 0.32678 0.0
C2067 C 0.36246 0.97743 0.31546 0.0
N2068 N 0.42303 0.0128 0.29885 0.0
N2069 N 0.37686 0.9803 0.30493 0.0
H2070 H 0.6468 0.00312 0.27153 0.0
H2071 H 0.55481 0.99301 0.28128 0.0
H2072 H 0.61169 0.9779 0.32543 0.0
H2073 H 0.5888 0.01609 0.22583 0.0
H2074 H 0.57564 0.98763 0.29785 0.0
H2075 H 0.62589 0.00829 0.25471 0.0
C2076 C 0.63469 -0.00135 0.27983 0.0
C2077 C 0.631 0.99007 0.29993 0.0
C2078 C 0.57856 0.99387 0.28206 0.0
C2079 C 0.607 0.99598 0.28077 0.0
C2080 C 0.56662 0.99687 0.27253 0.0
C2081 C 0.57003 0.00497 0.25209 0.0
C2082 C 0.59406 -0.00098 0.27111 0.0
C2083 C 0.58571 0.00998 0.24172 0.0
C2084 C 0.62275 0.00161 0.2702 0.0
C2085 C 0.61509 0.98457 0.30992 0.0
N2086 N 0.59713 0.0069 0.25133 0.0
N2087 N 0.60369 0.98764 0.30024 0.0
H2088 H 0.0189 0.65246 0.30893 0.0
H2089 H 0.96 0.54922 0.28529 0.0
H2090 H 0.97438 0.61829 0.34799 0.0
H2091 H 0.00883 0.58262 0.25381 0.0
H2092 H 0.96435 0.57442 0.30758 0.0
H2093 H 0.01488 0.62702 0.2879 0.0
C2094 C 0.0083 0.63959 0.31314 0.0
C2095 C 0.99694 0.6375 0.33023 0.0
C2096 C 0.97413 0.57621 0.29585 0.0
C2097 C 0.99221 0.60829 0.3061 0.0
C2098 C 0.9716 0.56187 0.28303 0.0
C2099 C 0.98408 0.56385 0.2677 0.0
C2100 C 0.98918 0.59266 0.29316 0.0
C2101 C -0.00103 0.58048 0.26561 0.0
C2102 C 0.00602 0.62506 0.30112 0.0
C2103 C 0.98345 0.6205 0.33496 0.0
N2104 N 0.00108 0.59425 0.27814 0.0
N2105 N 0.98141 0.60654 0.32288 0.0
H2106 H 0.36146 0.35569 0.31828 0.0
H2107 H 0.41541 0.43657 0.23903 0.0
H2108 H 0.33878 0.3791 0.28195 0.0
H2109 H 0.43588 0.40834 0.26877 0.0
H2110 H 0.38749 0.41646 0.25563 0.0
H2111 H 0.38907 0.37567 0.30129 0.0
C2112 C 0.36228 0.36505 0.30673 0.0
C2113 C 0.34776 0.36572 0.30154 0.0
C2114 C 0.39808 0.41464 0.25848 0.0
C2115 C 0.37943 0.38869 0.282 0.0
C2116 C 0.41403 0.42617 0.24911 0.0
C2117 C 0.42799 0.42413 0.25255 0.0
C2118 C 0.39609 0.40105 0.27149 0.0
C2119 C 0.42543 0.41029 0.2655 0.0
C2120 C 0.37806 0.37644 0.29699 0.0
C2121 C 0.34962 0.37811 0.28642 0.0
N2122 N 0.40981 0.39932 0.27456 0.0
N2123 N 0.36519 0.38915 0.27721 0.0
H2124 H 0.31417 0.28022 0.35522 0.0
H2125 H 0.36408 0.26531 0.45053 0.0
H2126 H 0.34367 0.31901 0.40605 0.0
H2127 H 0.34263 0.23119 0.39303 0.0
H2128 H 0.35564 0.28457 0.43545 0.0
H2129 H 0.32302 0.26123 0.37012 0.0
C2130 C 0.32247 0.28473 0.36955 0.0
C2131 C 0.3282 0.30124 0.3794 0.0
C2132 C 0.35283 0.27289 0.42611 0.0
C2133 C 0.33839 0.27957 0.39652 0.0
C2134 C 0.35774 0.26194 0.43464 0.0
C2135 C 0.35406 0.24658 0.42304 0.0
C2136 C 0.34408 0.26843 0.40588 0.0
C2137 C 0.34552 0.24274 0.40271 0.0
C2138 C 0.32756 0.2739 0.37801 0.0
C2139 C 0.33897 0.3064 0.39791 0.0
N2140 N 0.34078 0.25356 0.39482 0.0
N2141 N 0.34369 0.2956 0.40589 0.0
H2142 H 0.68635 0.02299 0.38572 0.0
H2143 H 0.77615 0.11414 0.37949 0.0
H2144 H 0.72069 0.03727 0.33008 0.0
H2145 H 0.7394 0.10123 0.43197 0.0
H2146 H 0.75624 0.08601 0.36117 0.0
H2147 H 0.70592 0.0515 0.40305 0.0
C2148 C 0.69803 0.03211 0.37714 0.0
C2149 C 0.70189 0.02771 0.3564 0.0
C2150 C 0.7525 0.08937 0.37664 0.0
C2151 C 0.72439 0.06047 0.3762 0.0
C2152 C 0.76388 0.10539 0.38714 0.0
C2153 C 0.75943 0.11002 0.4073 0.0
C2154 C 0.73659 0.07785 0.38644 0.0
C2155 C 0.74328 0.09828 0.41634 0.0
C2156 C 0.70919 0.04843 0.38704 0.0
C2157 C 0.7172 0.0401 0.34608 0.0
N2158 N 0.73249 0.08271 0.4059 0.0
N2159 N 0.72791 0.05591 0.3561 0.0
H2160 H 0.9716 0.68426 0.39381 0.0
H2161 H 0.86921 0.63512 0.38852 0.0
H2162 H 0.94261 0.6582 0.33466 0.0
H2163 H 0.8989 0.65439 0.44857 0.0
H2164 H 0.89569 0.64418 0.36792 0.0
H2165 H 0.94487 0.67477 0.41341 0.0
C2166 C 0.9596 0.67659 0.38488 0.0
C2167 C 0.95936 0.67199 0.36254 0.0
C2168 C 0.89637 0.64638 0.38561 0.0
C2169 C 0.92858 0.66096 0.38502 0.0
C2170 C 0.88125 0.64111 0.3974 0.0
C2171 C 0.88184 0.64411 0.4203 0.0
C2172 C 0.91215 0.65472 0.39682 0.0
C2173 C 0.89784 0.65212 0.43089 0.0
C2174 C 0.94431 0.67111 0.39614 0.0
C2175 C 0.9434 0.66203 0.35189 0.0
N2176 N 0.91233 0.65719 0.41907 0.0
N2177 N 0.92862 0.65683 0.36323 0.0
H2178 H 0.36396 0.02093 0.75274 0.0
H2179 H 0.43598 0.99674 0.73785 0.0
H2180 H 0.38545 0.0193 0.68958 0.0
H2181 H 0.41975 0.00637 0.80096 0.0
H2182 H 0.41666 0.00361 0.71967 0.0
H2183 H 0.38367 0.01458 0.77053 0.0
C2184 C 0.37286 0.01929 0.7426 0.0
C2185 C 0.37304 0.02063 0.71962 0.0
C2186 C 0.41735 0.00424 0.73749 0.0
C2187 C 0.39561 0.01324 0.73993 0.0
C2188 C 0.42827 0.0002 0.74787 0.0
C2189 C 0.42946 0.00099 0.77095 0.0
C2190 C 0.40746 0.00898 0.75029 0.0
C2191 C 0.41936 0.00577 0.78313 0.0
C2192 C 0.38413 0.01566 0.75279 0.0
C2193 C 0.38489 0.0184 0.70735 0.0
N2194 N 0.40876 0.00954 0.77266 0.0
N2195 N 0.39566 0.01474 0.71765 0.0
H2196 H -0.00201 0.34884 0.72536 0.0
H2197 H 0.0039 0.44039 0.71657 0.0
H2198 H 0.99188 0.36825 0.66418 0.0
H2199 H 0.01899 0.42494 0.77435 0.0
H2200 H -0.00171 0.41354 0.6974 0.0
H2201 H 0.00447 0.37611 0.74396 0.0
C2202 C -0.00202 0.35883 0.71583 0.0
C2203 C 0.99437 0.35626 0.69316 0.0
C2204 C 0.0029 0.41606 0.71424 0.0
C2205 C 0.00179 0.38753 0.7144 0.0
C2206 C 0.00603 0.43134 0.72521 0.0
C2207 C 0.01189 0.43487 0.74708 0.0
C2208 C 0.00551 0.40415 0.72529 0.0
C2209 C 0.01464 0.4228 0.75742 0.0
C2210 C 0.00175 0.37443 0.72646 0.0
C2211 C 0.9946 0.36969 0.68166 0.0
N2212 N 0.01133 0.40793 0.74647 0.0
N2213 N -0.0018 0.38473 0.69243 0.0
H2214 H 0.64673 0.64573 0.72866 0.0
H2215 H 0.55465 0.55695 0.72793 0.0
H2216 H 0.62257 0.61488 0.66949 0.0
H2217 H 0.57477 0.59327 0.78354 0.0
H2218 H 0.58032 0.57685 0.70687 0.0
H2219 H 0.62132 0.62546 0.74962 0.0
C2220 C 0.63609 0.63467 0.72006 0.0
C2221 C 0.63677 0.63202 0.69725 0.0
C2222 C 0.57911 0.58047 0.72367 0.0
C2223 C 0.60761 0.60873 0.72123 0.0
C2224 C 0.56452 0.56908 0.73573 0.0
C2225 C 0.56261 0.57348 0.75751 0.0
C2226 C 0.59194 0.59631 0.73351 0.0
C2227 C 0.57567 0.58946 0.76672 0.0
C2228 C 0.62156 0.62312 0.73205 0.0
C2229 C 0.62258 0.61746 0.68702 0.0
N2230 N 0.58981 0.60028 0.75469 0.0
N2231 N 0.60858 0.60633 0.6991 0.0
H2232 H 0.65855 0.68604 0.61089 0.0
H2233 H 0.66118 0.77626 0.62436 0.0
H2234 H 0.68101 0.72144 0.6671 0.0
H2235 H 0.63772 0.73988 0.56928 0.0
H2236 H 0.66853 0.75643 0.64043 0.0
H2237 H 0.65083 0.7057 0.59553 0.0
C2238 C 0.66188 0.69797 0.62001 0.0
C2239 C 0.67046 0.7021 0.64032 0.0
C2240 C 0.66174 0.75276 0.62486 0.0
C2241 C 0.66161 0.72471 0.62279 0.0
C2242 C 0.6576 0.76411 0.61563 0.0
C2243 C 0.64884 0.75973 0.59543 0.0
C2244 C 0.65713 0.73694 0.61377 0.0
C2245 C 0.6443 0.7437 0.585 0.0
C2246 C 0.65744 0.70919 0.61123 0.0
C2247 C 0.67442 0.71774 0.65139 0.0
N2248 N 0.64854 0.73292 0.59426 0.0
N2249 N 0.66997 0.72849 0.64246 0.0
H2250 H 0.29221 0.96239 0.69308 0.0
H2251 H 0.26259 0.90301 0.58233 0.0
H2252 H 0.31342 0.982 0.62889 0.0
H2253 H 0.23668 0.88538 0.64471 0.0
H2254 H 0.28315 0.93126 0.59985 0.0
H2255 H 0.27324 0.93341 0.67623 0.0
C2256 C 0.29288 0.96061 0.67544 0.0
C2257 C 0.30438 0.97466 0.66237 0.0
C2258 C 0.27301 0.92119 0.60973 0.0
C2259 C 0.28277 0.9415 0.643 0.0
C2260 C 0.26137 0.90502 0.59978 0.0
C2261 C 0.24788 0.89187 0.61208 0.0
C2262 C 0.2712 0.9242 0.63217 0.0
C2263 C 0.24676 0.89525 0.63457 0.0
C2264 C 0.28204 0.94406 0.66584 0.0
C2265 C 0.3047 0.97157 0.63961 0.0
N2266 N 0.25824 0.9111 0.64388 0.0
N2267 N 0.29406 0.95532 0.63065 0.0
H2268 H 0.02444 0.31331 0.62925 0.0
H2269 H 0.12675 0.36245 0.63039 0.0
H2270 H 0.05486 0.33897 0.68758 0.0
H2271 H 0.09651 0.34839 0.57088 0.0
H2272 H 0.10059 0.352 0.6521 0.0
H2273 H 0.05077 0.32359 0.60818 0.0
C2274 C 0.03666 0.32103 0.63768 0.0
C2275 C 0.03744 0.32532 0.66023 0.0
C2276 C 0.09972 0.35125 0.63429 0.0
C2277 C 0.06767 0.33718 0.63611 0.0
C2278 C 0.11466 0.35732 0.62186 0.0
C2279 C 0.11387 0.35631 0.59872 0.0
C2280 C 0.08385 0.34399 0.62354 0.0
C2281 C 0.09775 0.34919 0.58864 0.0
C2282 C 0.0517 0.32696 0.62559 0.0
C2283 C 0.05366 0.33539 0.67023 0.0
N2284 N 0.08339 0.34326 0.60111 0.0
N2285 N 0.06815 0.34097 0.65809 0.0
H2286 H 0.28114 0.32108 0.6602 0.0
H2287 H 0.26392 0.36632 0.56066 0.0
H2288 H 0.30894 0.33374 0.59869 0.0
H2289 H 0.23239 0.34844 0.61901 0.0
H2290 H 0.2816 0.35594 0.57527 0.0
H2291 H 0.26384 0.33206 0.64606 0.0
C2292 C 0.28357 0.32611 0.64369 0.0
C2293 C 0.29651 0.32648 0.63061 0.0
C2294 C 0.27083 0.35431 0.5849 0.0
C2295 C 0.27682 0.33918 0.61438 0.0
C2296 C 0.26083 0.36036 0.57665 0.0
C2297 C 0.24666 0.35823 0.58864 0.0
C2298 C 0.2667 0.34611 0.60534 0.0
C2299 C 0.24309 0.35017 0.60912 0.0
C2300 C 0.27369 0.33239 0.63564 0.0
C2301 C 0.29909 0.33316 0.60935 0.0
N2302 N 0.25303 0.3444 0.61682 0.0
N2303 N 0.28937 0.33929 0.60193 0.0
H2304 H 0.65639 0.97302 0.65215 0.0
H2305 H 0.68185 0.91454 0.57905 0.0
H2306 H 0.70613 0.9936 0.62185 0.0
H2307 H 0.63278 0.89403 0.61116 0.0
H2308 H 0.69113 0.94352 0.59481 0.0
H2309 H 0.64766 0.94398 0.63741 0.0
C2310 C 0.66551 0.97144 0.64241 0.0
C2311 C 0.68203 0.98579 0.6382 0.0
C2312 C 0.67834 0.93268 0.59844 0.0
C2313 C 0.67206 0.95249 0.62121 0.0
C2314 C 0.67307 0.9161 0.58956 0.0
C2315 C 0.65652 0.90181 0.59384 0.0
C2316 C 0.66699 0.93502 0.61171 0.0
C2317 C 0.64558 0.90469 0.60722 0.0
C2318 C 0.6605 0.95482 0.63399 0.0
C2319 C 0.69327 0.98291 0.62551 0.0
N2320 N 0.65101 0.92096 0.61568 0.0
N2321 N 0.68807 0.96658 0.61742 0.0
H2322 H 0.01728 0.68714 0.63076 0.0
H2323 H 0.11511 0.76442 0.64752 0.0
H2324 H 0.03956 0.70908 0.69469 0.0
H2325 H 0.094 0.73703 0.58546 0.0
H2326 H 0.08758 0.74462 0.66523 0.0
H2327 H 0.04529 0.7058 0.61394 0.0
C2328 C 0.02807 0.69591 0.64128 0.0
C2329 C 0.02606 0.69657 0.66419 0.0
C2330 C 0.08902 0.74288 0.64777 0.0
C2331 C 0.05824 0.71801 0.64497 0.0
C2332 C 0.10469 0.7542 0.63765 0.0
C2333 C 0.10682 0.75237 0.61498 0.0
C2334 C 0.07534 0.72973 0.63509 0.0
C2335 C 0.09298 0.7388 0.60302 0.0
C2336 C 0.04409 0.70653 0.63166 0.0
C2337 C 0.04052 0.70815 0.67697 0.0
N2338 N 0.0778 0.72807 0.61319 0.0
N2339 N 0.05601 0.71847 0.66718 0.0
H2340 H 0.96532 0.61329 0.71387 0.0
H2341 H 0.03035 0.58141 0.73477 0.0
H2342 H 0.00967 0.62783 0.67312 0.0
H2343 H 0.9798 0.55682 0.76364 0.0
H2344 H 0.02399 0.60027 0.71406 0.0
H2345 H 0.97119 0.59386 0.73405 0.0
C2346 C 0.97624 0.61234 0.70911 0.0
C2347 C 0.98703 0.6222 0.69179 0.0
C2348 C 0.01428 0.59072 0.7249 0.0
C2349 C 0.9939 0.60016 0.71493 0.0
C2350 C 0.01795 0.58007 0.73683 0.0
C2351 C 0.00558 0.56756 0.75091 0.0
C2352 C -0.00183 0.58897 0.72725 0.0
C2353 C 0.98964 0.5662 0.75279 0.0
C2354 C 0.97958 0.60124 0.72062 0.0
C2355 C 0.00099 0.62044 0.68632 0.0
N2356 N 0.98641 0.57683 0.74115 0.0
N2357 N 0.00409 0.60972 0.69794 0.0
H2358 H 0.35681 0.38238 0.67338 0.0
H2359 H 0.42942 0.4215 0.76679 0.0
H2360 H 0.36908 0.35061 0.71151 0.0
H2361 H 0.41242 0.45189 0.73459 0.0
H2362 H 0.40866 0.3957 0.74507 0.0
H2363 H 0.3785 0.40832 0.69392 0.0
C2364 C 0.36412 0.38085 0.68601 0.0
C2365 C 0.36108 0.36427 0.69077 0.0
C2366 C 0.40946 0.40801 0.74275 0.0
C2367 C 0.38592 0.39396 0.7144 0.0
C2368 C 0.42136 0.42275 0.75507 0.0
C2369 C 0.42265 0.43887 0.75247 0.0
C2370 C 0.39881 0.40939 0.72764 0.0
C2371 C 0.41172 0.43969 0.73728 0.0
C2372 C 0.37647 0.39568 0.69777 0.0
C2373 C 0.37096 0.36312 0.70731 0.0
N2374 N 0.40029 0.42516 0.72539 0.0
N2375 N 0.38292 0.37777 0.71855 0.0
H2376 H 0.62386 0.98138 0.70992 0.0
H2377 H 0.56955 0.02315 0.75074 0.0
H2378 H 0.6376 0.03389 0.69503 0.0
H2379 H 0.55226 0.96862 0.7574 0.0
H2380 H 0.59454 0.02737 0.73019 0.0
H2381 H 0.59754 0.97645 0.7273 0.0
C2382 C 0.62133 0.99187 0.71026 0.0
C2383 C 0.63299 0.0081 0.7011 0.0
C2384 C 0.58524 0.01445 0.73603 0.0
C2385 C 0.60287 0.00254 0.72102 0.0
C2386 C 0.57102 0.01206 0.74784 0.0
C2387 C 0.55888 0.99553 0.75588 0.0
C2388 C 0.58741 0.00024 0.73237 0.0
C2389 C 0.56126 0.98155 0.75137 0.0
C2390 C 0.60626 0.98902 0.72015 0.0
C2391 C 0.62898 0.02118 0.70193 0.0
N2392 N 0.57532 0.98425 0.74005 0.0
N2393 N 0.6143 0.01814 0.71183 0.0
loop_
_geom_bond_atom_site_label_1
_geom_bond_atom_site_label_2
_geom_bond_distance
_geom_bond_site_symmetry_2
_ccdc_geom_bond_type
C0 O1 1.160 . S
C0 O7 1.185 . S
O1 C0 1.160 . S
O2 Zn3 1.899 1_656 S
O2 C10 1.295 . S
Zn3 O2 1.899 1_454 S
Zn3 O4 2.032 . S
Zn3 O7 2.086 . S
Zn3 O12 1.977 1_554 S
O4 Zn3 2.032 . S
O4 C8 1.278 1_455 S
C5 O6 1.203 1_455 S
C5 O12 1.267 . S
O6 C5 1.203 1_655 S
O7 C0 1.185 . S
O7 Zn3 2.086 . S
C8 O4 1.278 1_655 S
C8 O9 1.211 . S
O9 C8 1.211 . S
C10 O2 1.295 . S
C10 O11 1.252 1_556 S
O11 C10 1.252 1_554 S
O12 Zn3 1.977 1_556 S
O12 C5 1.267 . S
C13 O14 1.160 . S
C13 O20 1.185 1_556 S
O14 C13 1.160 . S
O15 Zn16 1.899 . S
O15 C23 1.284 . S
Zn16 O15 1.899 . S
Zn16 O17 2.032 1_554 S
Zn16 O20 2.086 . S
Zn16 O25 1.977 . S
O17 Zn16 2.032 1_556 S
O17 C21 1.278 . S
C18 O19 1.203 . S
C18 O25 1.267 . S
O19 C18 1.203 . S
O20 C13 1.185 1_554 S
O20 Zn16 2.086 . S
C21 O17 1.278 . S
C21 O22 1.211 . S
O22 C21 1.211 . S
C23 O15 1.284 . S
C23 O24 1.273 . S
O24 C23 1.273 . S
O25 Zn16 1.977 . S
O25 C18 1.267 . S
C26 O27 1.160 . S
C26 O33 1.185 1_556 S
O27 C26 1.160 . S
O28 Zn29 1.899 1_565 S
O28 C36 1.284 . S
Zn29 O28 1.899 1_545 S
Zn29 O30 2.032 1_554 S
Zn29 O33 2.086 . S
Zn29 O38 1.977 . S
O30 Zn29 2.032 1_556 S
O30 C34 1.287 . S
C31 O32 1.203 1_545 S
C31 O38 1.267 . S
O32 C31 1.203 1_565 S
O33 C26 1.185 1_554 S
O33 Zn29 2.086 . S
C34 O30 1.287 . S
C34 O35 1.205 1_545 S
O35 C34 1.205 1_565 S
C36 O28 1.284 . S
C36 O37 1.273 . S
O37 C36 1.273 . S
O38 Zn29 1.977 . S
O38 C31 1.267 . S
C39 O40 1.160 . S
C39 O46 1.185 1_556 S
O40 C39 1.160 . S
O41 Zn42 1.899 1_455 S
O41 C49 1.284 . S
Zn42 O41 1.899 1_655 S
Zn42 O43 2.033 1_654 S
Zn42 O46 2.086 . S
Zn42 O51 1.977 . S
O43 Zn42 2.033 1_456 S
O43 C47 1.274 . S
C44 O45 1.203 1_655 S
C44 O51 1.267 . S
O45 C44 1.203 1_455 S
O46 C39 1.185 1_554 S
O46 Zn42 2.086 . S
C47 O43 1.274 . S
C47 O48 1.211 . S
O48 C47 1.211 . S
C49 O41 1.284 . S
C49 O50 1.273 . S
O50 C49 1.273 . S
O51 Zn42 1.977 . S
O51 C44 1.267 . S
C52 O53 1.160 . S
C52 O59 1.185 . S
O53 C52 1.160 . S
O54 Zn55 1.899 1_556 S
O54 C62 1.284 . S
Zn55 O54 1.899 1_554 S
Zn55 O56 2.032 . S
Zn55 O59 2.086 . S
Zn55 O64 1.977 1_554 S
O56 Zn55 2.032 . S
O56 C60 1.278 . S
C57 O58 1.203 . S
C57 O64 1.267 . S
O58 C57 1.203 . S
O59 C52 1.185 . S
O59 Zn55 2.086 . S
C60 O56 1.278 . S
C60 O61 1.211 . S
O61 C60 1.211 . S
C62 O54 1.284 . S
C62 O63 1.273 1_556 S
O63 C62 1.273 1_554 S
O64 Zn55 1.977 1_556 S
O64 C57 1.267 . S
C65 O66 1.160 . S
C65 O72 1.185 . S
O66 C65 1.160 . S
O67 Zn68 1.899 1_546 S
O67 C75 1.284 . S
Zn68 O67 1.899 1_564 S
Zn68 O69 2.021 1_565 S
Zn68 O72 2.086 . S
Zn68 O77 1.977 1_554 S
O69 Zn68 2.021 1_545 S
O69 C73 1.307 . S
C70 O71 1.203 1_565 S
C70 O77 1.267 . S
O71 C70 1.203 1_545 S
O72 C65 1.185 . S
O72 Zn68 2.086 . S
C73 O69 1.307 . S
C73 O74 1.211 . S
O74 C73 1.211 . S
C75 O67 1.284 . S
C75 O76 1.273 1_556 S
O76 C75 1.273 1_554 S
O77 Zn68 1.977 1_556 S
O77 C70 1.267 . S
C78 O79 1.160 . S
C78 O85 1.185 . S
O79 C78 1.160 . S
O80 Zn81 1.899 . S
O80 C88 1.284 . S
Zn81 O80 1.899 . S
Zn81 O82 2.032 . S
Zn81 O85 2.086 . S
Zn81 O90 1.977 . S
O82 Zn81 2.032 . S
O82 C86 1.278 . S
C83 O84 1.203 . S
C83 O90 1.267 . S
O84 C83 1.203 . S
O85 C78 1.185 . S
O85 Zn81 2.086 . S
C86 O82 1.278 . S
C86 O87 1.211 . S
O87 C86 1.211 . S
C88 O80 1.284 . S
C88 O89 1.273 . S
O89 C88 1.273 . S
O90 Zn81 1.977 . S
O90 C83 1.267 . S
C91 O92 1.160 1_565 S
C91 O98 1.185 . S
O92 C91 1.160 1_545 S
O93 Zn94 1.899 1_545 S
O93 C101 1.284 . S
Zn94 O93 1.899 1_565 S
Zn94 O95 2.032 . S
Zn94 O98 2.086 . S
Zn94 O103 1.977 . S
O95 Zn94 2.032 . S
O95 C99 1.278 . S
C96 O97 1.203 . S
C96 O103 1.267 . S
O97 C96 1.203 . S
O98 C91 1.185 . S
O98 Zn94 2.086 . S
C99 O95 1.278 . S
C99 O100 1.211 . S
O100 C99 1.211 . S
C101 O93 1.284 . S
C101 O102 1.273 . S
O102 C101 1.273 . S
O103 Zn94 1.977 . S
O103 C96 1.267 . S
C104 O105 1.160 . S
C104 O111 1.185 . S
O105 C104 1.160 . S
O106 Zn107 1.899 . S
O106 C114 1.284 1_455 S
Zn107 O106 1.899 . S
Zn107 O108 2.032 . S
Zn107 O111 2.086 . S
Zn107 O116 1.977 . S
O108 Zn107 2.032 . S
O108 C112 1.278 . S
C109 O110 1.203 . S
C109 O116 1.267 . S
O110 C109 1.203 . S
O111 C104 1.185 . S
O111 Zn107 2.086 . S
C112 O108 1.278 . S
C112 O113 1.211 . S
O113 C112 1.211 . S
C114 O106 1.284 1_655 S
C114 O115 1.273 1_655 S
O115 C114 1.273 1_455 S
O116 Zn107 1.977 . S
O116 C109 1.267 . S
C117 O118 1.160 1_565 S
C117 O124 1.185 . S
O118 C117 1.160 1_545 S
O119 Zn120 1.899 1_545 S
O119 C127 1.284 . S
Zn120 O119 1.899 1_565 S
Zn120 O121 2.032 . S
Zn120 O124 2.086 . S
Zn120 O129 1.977 . S
O121 Zn120 2.032 . S
O121 C125 1.278 . S
C122 O123 1.203 . S
C122 O129 1.267 . S
O123 C122 1.203 . S
O124 C117 1.185 . S
O124 Zn120 2.086 . S
C125 O121 1.278 . S
C125 O126 1.211 . S
O126 C125 1.211 . S
C127 O119 1.284 . S
C127 O128 1.273 . S
O128 C127 1.273 . S
O129 Zn120 1.977 . S
O129 C122 1.267 . S
C130 O131 1.160 . S
C130 O137 1.185 . S
O131 C130 1.160 . S
O132 Zn133 1.899 . S
O132 C140 1.284 . S
Zn133 O132 1.899 . S
Zn133 O134 2.032 . S
Zn133 O137 2.086 1_455 S
Zn133 O142 1.977 . S
O134 Zn133 2.032 . S
O134 C138 1.278 . S
C135 O136 1.203 . S
C135 O142 1.267 . S
O136 C135 1.203 . S
O137 C130 1.185 . S
O137 Zn133 2.086 1_655 S
C138 O134 1.278 . S
C138 O139 1.211 . S
O139 C138 1.211 . S
C140 O132 1.284 . S
C140 O141 1.273 . S
O141 C140 1.273 . S
O142 Zn133 1.977 . S
O142 C135 1.267 . S
C143 O144 1.160 . S
C143 O150 1.185 . S
O144 C143 1.160 . S
O145 Zn146 1.899 . S
O145 C153 1.284 . S
Zn146 O145 1.899 . S
Zn146 O147 2.032 . S
Zn146 O150 2.086 . S
Zn146 O155 1.977 . S
O147 Zn146 2.032 . S
O147 C151 1.278 . S
C148 O149 1.203 . S
C148 O155 1.267 . S
O149 C148 1.203 . S
O150 C143 1.185 . S
O150 Zn146 2.086 . S
C151 O147 1.278 . S
C151 O152 1.211 . S
O152 C151 1.211 . S
C153 O145 1.284 . S
C153 O154 1.273 . S
O154 C153 1.273 . S
O155 Zn146 1.977 . S
O155 C148 1.267 . S
C156 O157 1.160 . S
C156 O163 1.185 . S
O157 C156 1.160 . S
O158 Zn159 1.903 1_565 S
O158 C166 1.285 . S
Zn159 O158 1.903 1_545 S
Zn159 O160 2.032 . S
Zn159 O163 2.086 . S
Zn159 O168 1.977 . S
O160 Zn159 2.032 . S
O160 C164 1.278 . S
C161 O162 1.203 . S
C161 O168 1.267 . S
O162 C161 1.203 . S
O163 C156 1.185 . S
O163 Zn159 2.086 . S
C164 O160 1.278 . S
C164 O165 1.211 . S
O165 C164 1.211 . S
C166 O158 1.285 . S
C166 O167 1.251 1_565 S
O167 C166 1.251 1_545 S
O168 Zn159 1.977 . S
O168 C161 1.267 . S
C169 O170 1.160 . S
C169 O176 1.185 . S
O170 C169 1.160 . S
O171 Zn172 1.899 . S
O171 C179 1.284 . S
Zn172 O171 1.899 . S
Zn172 O173 2.032 . S
Zn172 O176 2.086 1_655 S
Zn172 O181 1.977 . S
O173 Zn172 2.032 . S
O173 C177 1.278 . S
C174 O175 1.203 . S
C174 O181 1.267 . S
O175 C174 1.203 . S
O176 C169 1.185 . S
O176 Zn172 2.086 1_455 S
C177 O173 1.278 . S
C177 O178 1.211 . S
O178 C177 1.211 . S
C179 O171 1.284 . S
C179 O180 1.273 . S
O180 C179 1.273 . S
O181 Zn172 1.977 . S
O181 C174 1.267 . S
C182 O183 1.160 . S
C182 O189 1.185 . S
O183 C182 1.160 . S
O184 Zn185 1.899 . S
O184 C192 1.284 . S
Zn185 O184 1.899 . S
Zn185 O186 2.032 . S
Zn185 O189 2.086 . S
Zn185 O194 1.977 . S
O186 Zn185 2.032 . S
O186 C190 1.278 . S
C187 O188 1.203 . S
C187 O194 1.267 . S
O188 C187 1.203 . S
O189 C182 1.185 . S
O189 Zn185 2.086 . S
C190 O186 1.278 . S
C190 O191 1.211 . S
O191 C190 1.211 . S
C192 O184 1.284 . S
C192 O193 1.273 . S
O193 C192 1.273 . S
O194 Zn185 1.977 . S
O194 C187 1.267 . S
C195 O196 1.160 . S
C195 O202 1.185 . S
O196 C195 1.160 . S
O197 Zn198 1.899 . S
O197 C205 1.284 . S
Zn198 O197 1.899 . S
Zn198 O199 2.032 . S
Zn198 O202 2.086 . S
Zn198 O207 1.977 . S
O199 Zn198 2.032 . S
O199 C203 1.278 . S
C200 O201 1.203 . S
C200 O207 1.267 . S
O201 C200 1.203 . S
O202 C195 1.185 . S
O202 Zn198 2.086 . S
C203 O199 1.278 . S
C203 O204 1.211 . S
O204 C203 1.211 . S
C205 O197 1.284 . S
C205 O206 1.273 . S
O206 C205 1.273 . S
O207 Zn198 1.977 . S
O207 C200 1.267 . S
C208 O209 1.160 . S
C208 O215 1.185 . S
O209 C208 1.160 . S
O210 Zn211 1.899 1_565 S
O210 C218 1.285 . S
Zn211 O210 1.899 1_545 S
Zn211 O212 2.032 . S
Zn211 O215 2.086 . S
Zn211 O220 1.977 . S
O212 Zn211 2.032 . S
O212 C216 1.278 . S
C213 O214 1.203 . S
C213 O220 1.267 . S
O214 C213 1.203 . S
O215 C208 1.185 . S
O215 Zn211 2.086 . S
C216 O212 1.278 . S
C216 O217 1.211 . S
O217 C216 1.211 . S
C218 O210 1.285 . S
C218 O219 1.274 1_565 S
O219 C218 1.274 1_545 S
O220 Zn211 1.977 . S
O220 C213 1.267 . S
C221 O222 1.160 . S
C221 O228 1.185 . S
O222 C221 1.160 . S
O223 Zn224 1.899 . S
O223 C231 1.284 1_655 S
Zn224 O223 1.899 . S
Zn224 O225 2.032 . S
Zn224 O228 2.086 . S
Zn224 O233 1.977 . S
O225 Zn224 2.032 . S
O225 C229 1.278 . S
C226 O227 1.203 . S
C226 O233 1.267 . S
O227 C226 1.203 . S
O228 C221 1.185 . S
O228 Zn224 2.086 . S
C229 O225 1.278 . S
C229 O230 1.211 . S
O230 C229 1.211 . S
C231 O223 1.284 1_455 S
C231 O232 1.231 1_455 S
O232 C231 1.231 1_655 S
O233 Zn224 1.977 . S
O233 C226 1.267 . S
H234 C253 0.949 . S
H235 C254 0.950 . S
H236 C256 0.950 . S
H237 C257 0.950 . S
H238 C259 0.950 . S
H239 C262 0.950 . S
H240 C263 0.950 . S
H241 C265 0.951 . S
H242 C266 0.949 . S
H243 C268 0.949 . S
H244 C269 0.950 . S
H245 C271 0.950 . S
H246 C272 0.950 . S
H247 C274 0.950 . S
H248 C277 0.950 . S
H249 C278 0.950 . S
H250 C280 0.951 . S
H251 C281 0.949 . S
C252 C253 1.376 . S
C252 C257 1.386 . S
C252 C258 1.483 . S
C253 H234 0.949 . S
C253 C252 1.376 . S
C253 C254 1.397 . S
C254 H235 0.950 . S
C254 C253 1.397 . S
C254 C255 1.391 . S
C255 C254 1.391 . S
C255 C256 1.405 . S
C256 H236 0.950 . S
C256 C255 1.405 . S
C256 C257 1.367 . S
C257 H237 0.950 . S
C257 C252 1.386 . S
C257 C256 1.367 . S
C258 C252 1.483 . S
C258 C259 1.382 . S
C258 C260 1.403 . S
C259 H238 0.950 . S
C259 C258 1.382 . S
C259 C275 1.411 . S
C260 C258 1.403 . S
C260 C261 1.489 . S
C260 C274 1.411 . S
C261 C260 1.489 . S
C261 C262 1.383 . S
C261 C266 1.382 . S
C262 H239 0.950 . S
C262 C261 1.383 . S
C262 C263 1.395 . S
C263 H240 0.950 . S
C263 C262 1.395 . S
C263 C264 1.288 . S
C264 C263 1.288 . S
C264 C265 1.392 . S
C265 H241 0.951 . S
C265 C264 1.392 . S
C265 C266 1.392 . S
C266 H242 0.949 . S
C266 C261 1.382 . S
C266 C265 1.392 . S
C267 C268 1.376 . S
C267 C272 1.386 . S
C267 C273 1.483 . S
C268 H243 0.949 . S
C268 C267 1.376 . S
C268 C269 1.397 . S
C269 H244 0.950 . S
C269 C268 1.397 . S
C269 C270 1.391 . S
C270 C269 1.391 . S
C270 C271 1.405 . S
C271 H245 0.950 . S
C271 C270 1.405 . S
C271 C272 1.367 . S
C272 H246 0.950 . S
C272 C267 1.386 . S
C272 C271 1.367 . S
C273 C267 1.483 . S
C273 C274 1.382 . S
C273 C275 1.403 . S
C274 H247 0.950 . S
C274 C260 1.411 . S
C274 C273 1.382 . S
C275 C259 1.411 . S
C275 C273 1.403 . S
C275 C276 1.489 . S
C276 C275 1.489 . S
C276 C277 1.383 . S
C276 C281 1.382 . S
C277 H248 0.950 . S
C277 C276 1.383 . S
C277 C278 1.395 . S
C278 H249 0.950 . S
C278 C277 1.395 . S
C278 C279 1.288 . S
C279 C278 1.288 . S
C279 C280 1.392 . S
C280 H250 0.951 . S
C280 C279 1.392 . S
C280 C281 1.392 . S
C281 H251 0.949 . S
C281 C276 1.382 . S
C281 C280 1.392 . S
H282 C301 0.949 . S
H283 C302 0.950 . S
H284 C304 0.950 . S
H285 C305 0.950 . S
H286 C307 0.950 . S
H287 C310 0.950 . S
H288 C311 0.950 . S
H289 C313 0.951 . S
H290 C314 0.949 . S
H291 C316 0.949 . S
H292 C317 0.950 . S
H293 C319 0.950 . S
H294 C320 0.950 . S
H295 C322 0.950 . S
H296 C325 0.950 . S
H297 C326 0.950 . S
H298 C328 0.951 . S
H299 C329 0.949 . S
C300 C301 1.376 . S
C300 C305 1.386 . S
C300 C306 1.483 . S
C301 H282 0.949 . S
C301 C300 1.376 . S
C301 C302 1.397 . S
C302 H283 0.950 . S
C302 C301 1.397 . S
C302 C303 1.391 . S
C303 C302 1.391 . S
C303 C304 1.405 . S
C304 H284 0.950 . S
C304 C303 1.405 . S
C304 C305 1.367 . S
C305 H285 0.950 . S
C305 C300 1.386 . S
C305 C304 1.367 . S
C306 C300 1.483 . S
C306 C307 1.382 . S
C306 C308 1.403 . S
C307 H286 0.950 . S
C307 C306 1.382 . S
C307 C323 1.411 . S
C308 C306 1.403 . S
C308 C309 1.489 . S
C308 C322 1.411 . S
C309 C308 1.489 . S
C309 C310 1.383 . S
C309 C314 1.382 . S
C310 H287 0.950 . S
C310 C309 1.383 . S
C310 C311 1.395 . S
C311 H288 0.950 . S
C311 C310 1.395 . S
C311 C312 1.288 . S
C312 C311 1.288 . S
C312 C313 1.392 . S
C313 H289 0.951 . S
C313 C312 1.392 . S
C313 C314 1.392 . S
C314 H290 0.949 . S
C314 C309 1.382 . S
C314 C313 1.392 . S
C315 C316 1.376 . S
C315 C320 1.386 . S
C315 C321 1.483 . S
C316 H291 0.949 . S
C316 C315 1.376 . S
C316 C317 1.397 . S
C317 H292 0.950 . S
C317 C316 1.397 . S
C317 C318 1.391 . S
C318 C317 1.391 . S
C318 C319 1.405 . S
C319 H293 0.950 . S
C319 C318 1.405 . S
C319 C320 1.367 . S
C320 H294 0.950 . S
C320 C315 1.386 . S
C320 C319 1.367 . S
C321 C315 1.483 . S
C321 C322 1.382 . S
C321 C323 1.403 . S
C322 H295 0.950 . S
C322 C308 1.411 . S
C322 C321 1.382 . S
C323 C307 1.411 . S
C323 C321 1.403 . S
C323 C324 1.489 . S
C324 C323 1.489 . S
C324 C325 1.383 . S
C324 C329 1.382 . S
C325 H296 0.950 . S
C325 C324 1.383 . S
C325 C326 1.395 . S
C326 H297 0.950 . S
C326 C325 1.395 . S
C326 C327 1.288 . S
C327 C326 1.288 . S
C327 C328 1.392 . S
C328 H298 0.951 . S
C328 C327 1.392 . S
C328 C329 1.392 . S
C329 H299 0.949 . S
C329 C324 1.382 . S
C329 C328 1.392 . S
H330 C349 0.949 . S
H331 C350 0.950 . S
H332 C352 0.950 . S
H333 C353 0.950 . S
H334 C355 0.950 . S
H335 C358 0.950 . S
H336 C359 0.950 . S
H337 C361 0.951 . S
H338 C362 0.949 . S
H339 C364 0.949 . S
H340 C365 0.950 . S
H341 C367 0.950 . S
H342 C368 0.950 . S
H343 C370 0.950 . S
H344 C373 0.950 . S
H345 C374 0.950 . S
H346 C376 0.951 . S
H347 C377 0.949 . S
C348 C349 1.376 . S
C348 C353 1.386 . S
C348 C354 1.483 . S
C349 H330 0.949 . S
C349 C348 1.376 . S
C349 C350 1.397 . S
C350 H331 0.950 . S
C350 C349 1.397 . S
C350 C351 1.391 . S
C351 C350 1.391 . S
C351 C352 1.405 . S
C352 H332 0.950 . S
C352 C351 1.405 . S
C352 C353 1.367 . S
C353 H333 0.950 . S
C353 C348 1.386 . S
C353 C352 1.367 . S
C354 C348 1.483 . S
C354 C355 1.382 . S
C354 C356 1.403 . S
C355 H334 0.950 . S
C355 C354 1.382 . S
C355 C371 1.411 . S
C356 C354 1.403 . S
C356 C357 1.489 . S
C356 C370 1.411 . S
C357 C356 1.489 . S
C357 C358 1.383 . S
C357 C362 1.382 . S
C358 H335 0.950 . S
C358 C357 1.383 . S
C358 C359 1.395 . S
C359 H336 0.950 . S
C359 C358 1.395 . S
C359 C360 1.288 . S
C360 C359 1.288 . S
C360 C361 1.392 . S
C361 H337 0.951 . S
C361 C360 1.392 . S
C361 C362 1.392 . S
C362 H338 0.949 . S
C362 C357 1.382 . S
C362 C361 1.392 . S
C363 C364 1.376 . S
C363 C368 1.386 . S
C363 C369 1.483 . S
C364 H339 0.949 . S
C364 C363 1.376 . S
C364 C365 1.397 . S
C365 H340 0.950 . S
C365 C364 1.397 . S
C365 C366 1.391 . S
C366 C365 1.391 . S
C366 C367 1.405 . S
C367 H341 0.950 . S
C367 C366 1.405 . S
C367 C368 1.367 . S
C368 H342 0.950 . S
C368 C363 1.386 . S
C368 C367 1.367 . S
C369 C363 1.483 . S
C369 C370 1.382 . S
C369 C371 1.403 . S
C370 H343 0.950 . S
C370 C356 1.411 . S
C370 C369 1.382 . S
C371 C355 1.411 . S
C371 C369 1.403 . S
C371 C372 1.489 . S
C372 C371 1.489 . S
C372 C373 1.383 . S
C372 C377 1.382 . S
C373 H344 0.950 . S
C373 C372 1.383 . S
C373 C374 1.395 . S
C374 H345 0.950 . S
C374 C373 1.395 . S
C374 C375 1.288 . S
C375 C374 1.288 . S
C375 C376 1.392 . S
C376 H346 0.951 . S
C376 C375 1.392 . S
C376 C377 1.392 . S
C377 H347 0.949 . S
C377 C372 1.382 . S
C377 C376 1.392 . S
H378 C397 0.949 . S
H379 C398 0.950 . S
H380 C400 0.950 . S
H381 C401 0.950 . S
H382 C403 0.950 . S
H383 C406 0.950 . S
H384 C407 0.950 . S
H385 C409 0.951 . S
H386 C410 0.949 . S
H387 C412 0.949 . S
H388 C413 0.950 . S
H389 C415 0.950 . S
H390 C416 0.950 . S
H391 C418 0.950 . S
H392 C421 0.950 . S
H393 C422 0.950 . S
H394 C424 0.951 . S
H395 C425 0.949 . S
C396 C397 1.376 . S
C396 C401 1.386 . S
C396 C402 1.483 . S
C397 H378 0.949 . S
C397 C396 1.376 . S
C397 C398 1.397 . S
C398 H379 0.950 . S
C398 C397 1.397 . S
C398 C399 1.391 . S
C399 C398 1.391 . S
C399 C400 1.405 . S
C400 H380 0.950 . S
C400 C399 1.405 . S
C400 C401 1.367 . S
C401 H381 0.950 . S
C401 C396 1.386 . S
C401 C400 1.367 . S
C402 C396 1.483 . S
C402 C403 1.382 . S
C402 C404 1.403 . S
C403 H382 0.950 . S
C403 C402 1.382 . S
C403 C419 1.411 . S
C404 C402 1.403 . S
C404 C405 1.489 . S
C404 C418 1.411 . S
C405 C404 1.489 . S
C405 C406 1.383 . S
C405 C410 1.382 . S
C406 H383 0.950 . S
C406 C405 1.383 . S
C406 C407 1.395 . S
C407 H384 0.950 . S
C407 C406 1.395 . S
C407 C408 1.288 . S
C408 C407 1.288 . S
C408 C409 1.392 . S
C409 H385 0.951 . S
C409 C408 1.392 . S
C409 C410 1.392 . S
C410 H386 0.949 . S
C410 C405 1.382 . S
C410 C409 1.392 . S
C411 C412 1.376 . S
C411 C416 1.386 . S
C411 C417 1.483 . S
C412 H387 0.949 . S
C412 C411 1.376 . S
C412 C413 1.397 . S
C413 H388 0.950 . S
C413 C412 1.397 . S
C413 C414 1.391 . S
C414 C413 1.391 . S
C414 C415 1.405 . S
C415 H389 0.950 . S
C415 C414 1.405 . S
C415 C416 1.367 . S
C416 H390 0.950 . S
C416 C411 1.386 . S
C416 C415 1.367 . S
C417 C411 1.483 . S
C417 C418 1.382 . S
C417 C419 1.403 . S
C418 H391 0.950 . S
C418 C404 1.411 . S
C418 C417 1.382 . S
C419 C403 1.411 . S
C419 C417 1.403 . S
C419 C420 1.489 . S
C420 C419 1.489 . S
C420 C421 1.383 . S
C420 C425 1.382 . S
C421 H392 0.950 . S
C421 C420 1.383 . S
C421 C422 1.395 . S
C422 H393 0.950 . S
C422 C421 1.395 . S
C422 C423 1.288 . S
C423 C422 1.288 . S
C423 C424 1.392 . S
C424 H394 0.951 . S
C424 C423 1.392 . S
C424 C425 1.392 . S
C425 H395 0.949 . S
C425 C420 1.382 . S
C425 C424 1.392 . S
H426 C445 0.949 . S
H427 C446 0.950 . S
H428 C448 0.950 . S
H429 C449 0.950 . S
H430 C451 0.950 . S
H431 C454 0.950 . S
H432 C455 0.950 . S
H433 C457 0.951 . S
H434 C458 0.949 . S
H435 C460 0.949 . S
H436 C461 0.950 . S
H437 C463 0.950 . S
H438 C464 0.950 . S
H439 C466 0.950 . S
H440 C469 0.950 . S
H441 C470 0.950 . S
H442 C472 0.951 . S
H443 C473 0.949 . S
C444 C445 1.376 . S
C444 C449 1.386 . S
C444 C450 1.483 . S
C445 H426 0.949 . S
C445 C444 1.376 . S
C445 C446 1.397 . S
C446 H427 0.950 . S
C446 C445 1.397 . S
C446 C447 1.391 . S
C447 C446 1.391 . S
C447 C448 1.405 . S
C448 H428 0.950 . S
C448 C447 1.405 . S
C448 C449 1.367 . S
C449 H429 0.950 . S
C449 C444 1.386 . S
C449 C448 1.367 . S
C450 C444 1.483 . S
C450 C451 1.382 . S
C450 C452 1.403 . S
C451 H430 0.950 . S
C451 C450 1.382 . S
C451 C467 1.411 . S
C452 C450 1.403 . S
C452 C453 1.489 . S
C452 C466 1.411 . S
C453 C452 1.489 . S
C453 C454 1.383 . S
C453 C458 1.382 . S
C454 H431 0.950 . S
C454 C453 1.383 . S
C454 C455 1.395 . S
C455 H432 0.950 . S
C455 C454 1.395 . S
C455 C456 1.288 . S
C456 C455 1.288 . S
C456 C457 1.392 . S
C457 H433 0.951 . S
C457 C456 1.392 . S
C457 C458 1.392 . S
C458 H434 0.949 . S
C458 C453 1.382 . S
C458 C457 1.392 . S
C459 C460 1.376 . S
C459 C464 1.386 . S
C459 C465 1.483 . S
C460 H435 0.949 . S
C460 C459 1.376 . S
C460 C461 1.397 . S
C461 H436 0.950 . S
C461 C460 1.397 . S
C461 C462 1.391 . S
C462 C461 1.391 . S
C462 C463 1.405 . S
C463 H437 0.950 . S
C463 C462 1.405 . S
C463 C464 1.367 . S
C464 H438 0.950 . S
C464 C459 1.386 . S
C464 C463 1.367 . S
C465 C459 1.483 . S
C465 C466 1.382 . S
C465 C467 1.403 . S
C466 H439 0.950 . S
C466 C452 1.411 . S
C466 C465 1.382 . S
C467 C451 1.411 . S
C467 C465 1.403 . S
C467 C468 1.489 . S
C468 C467 1.489 . S
C468 C469 1.383 . S
C468 C473 1.382 . S
C469 H440 0.950 . S
C469 C468 1.383 . S
C469 C470 1.395 . S
C470 H441 0.950 . S
C470 C469 1.395 . S
C470 C471 1.288 . S
C471 C470 1.288 . S
C471 C472 1.392 . S
C472 H442 0.951 . S
C472 C471 1.392 . S
C472 C473 1.392 . S
C473 H443 0.949 . S
C473 C468 1.382 . S
C473 C472 1.392 . S
H474 C493 0.949 . S
H475 C494 0.950 . S
H476 C496 0.950 . S
H477 C497 0.950 . S
H478 C499 0.950 . S
H479 C502 0.950 . S
H480 C503 0.950 . S
H481 C505 0.951 . S
H482 C506 0.949 . S
H483 C508 0.949 . S
H484 C509 0.950 . S
H485 C511 0.950 . S
H486 C512 0.950 . S
H487 C514 0.950 . S
H488 C517 0.950 . S
H489 C518 0.950 . S
H490 C520 0.951 . S
H491 C521 0.949 . S
C492 C493 1.376 . S
C492 C497 1.386 . S
C492 C498 1.483 . S
C493 H474 0.949 . S
C493 C492 1.376 . S
C493 C494 1.397 . S
C494 H475 0.950 . S
C494 C493 1.397 . S
C494 C495 1.391 . S
C495 C494 1.391 . S
C495 C496 1.405 . S
C496 H476 0.950 . S
C496 C495 1.405 . S
C496 C497 1.367 . S
C497 H477 0.950 . S
C497 C492 1.386 . S
C497 C496 1.367 . S
C498 C492 1.483 . S
C498 C499 1.382 . S
C498 C500 1.403 . S
C499 H478 0.950 . S
C499 C498 1.382 . S
C499 C515 1.411 . S
C500 C498 1.403 . S
C500 C501 1.489 . S
C500 C514 1.411 . S
C501 C500 1.489 . S
C501 C502 1.383 . S
C501 C506 1.382 . S
C502 H479 0.950 . S
C502 C501 1.383 . S
C502 C503 1.395 . S
C503 H480 0.950 . S
C503 C502 1.395 . S
C503 C504 1.288 . S
C504 C503 1.288 . S
C504 C505 1.392 . S
C505 H481 0.951 . S
C505 C504 1.392 . S
C505 C506 1.392 . S
C506 H482 0.949 . S
C506 C501 1.382 . S
C506 C505 1.392 . S
C507 C508 1.376 . S
C507 C512 1.386 . S
C507 C513 1.483 . S
C508 H483 0.949 . S
C508 C507 1.376 . S
C508 C509 1.397 . S
C509 H484 0.950 . S
C509 C508 1.397 . S
C509 C510 1.391 . S
C510 C509 1.391 . S
C510 C511 1.405 . S
C511 H485 0.950 . S
C511 C510 1.405 . S
C511 C512 1.367 . S
C512 H486 0.950 . S
C512 C507 1.386 . S
C512 C511 1.367 . S
C513 C507 1.483 . S
C513 C514 1.382 . S
C513 C515 1.403 . S
C514 H487 0.950 . S
C514 C500 1.411 . S
C514 C513 1.382 . S
C515 C499 1.411 . S
C515 C513 1.403 . S
C515 C516 1.489 . S
C516 C515 1.489 . S
C516 C517 1.383 . S
C516 C521 1.382 . S
C517 H488 0.950 . S
C517 C516 1.383 . S
C517 C518 1.395 . S
C518 H489 0.950 . S
C518 C517 1.395 . S
C518 C519 1.288 . S
C519 C518 1.288 . S
C519 C520 1.392 . S
C520 H490 0.951 . S
C520 C519 1.392 . S
C520 C521 1.392 . S
C521 H491 0.949 . S
C521 C516 1.382 . S
C521 C520 1.392 . S
H522 C541 0.949 . S
H523 C542 0.950 . S
H524 C544 0.950 . S
H525 C545 0.950 . S
H526 C547 0.950 . S
H527 C550 0.950 . S
H528 C551 0.950 . S
H529 C553 0.951 . S
H530 C554 0.949 . S
H531 C556 0.949 . S
H532 C557 0.950 . S
H533 C559 0.950 . S
H534 C560 0.950 . S
H535 C562 0.950 . S
H536 C565 0.950 . S
H537 C566 0.950 . S
H538 C568 0.951 . S
H539 C569 0.949 . S
C540 C541 1.376 . S
C540 C545 1.386 . S
C540 C546 1.483 . S
C541 H522 0.949 . S
C541 C540 1.376 . S
C541 C542 1.397 . S
C542 H523 0.950 . S
C542 C541 1.397 . S
C542 C543 1.391 . S
C543 C542 1.391 . S
C543 C544 1.405 . S
C544 H524 0.950 . S
C544 C543 1.405 . S
C544 C545 1.367 . S
C545 H525 0.950 . S
C545 C540 1.386 . S
C545 C544 1.367 . S
C546 C540 1.483 . S
C546 C547 1.382 . S
C546 C548 1.403 . S
C547 H526 0.950 . S
C547 C546 1.382 . S
C547 C563 1.411 . S
C548 C546 1.403 . S
C548 C549 1.489 . S
C548 C562 1.411 . S
C549 C548 1.489 . S
C549 C550 1.383 . S
C549 C554 1.382 . S
C550 H527 0.950 . S
C550 C549 1.383 . S
C550 C551 1.395 . S
C551 H528 0.950 . S
C551 C550 1.395 . S
C551 C552 1.288 . S
C552 C551 1.288 . S
C552 C553 1.392 . S
C553 H529 0.951 . S
C553 C552 1.392 . S
C553 C554 1.392 . S
C554 H530 0.949 . S
C554 C549 1.382 . S
C554 C553 1.392 . S
C555 C556 1.376 . S
C555 C560 1.386 . S
C555 C561 1.483 . S
C556 H531 0.949 . S
C556 C555 1.376 . S
C556 C557 1.397 . S
C557 H532 0.950 . S
C557 C556 1.397 . S
C557 C558 1.391 . S
C558 C557 1.391 . S
C558 C559 1.405 . S
C559 H533 0.950 . S
C559 C558 1.405 . S
C559 C560 1.367 . S
C560 H534 0.950 . S
C560 C555 1.386 . S
C560 C559 1.367 . S
C561 C555 1.483 . S
C561 C562 1.382 . S
C561 C563 1.403 . S
C562 H535 0.950 . S
C562 C548 1.411 . S
C562 C561 1.382 . S
C563 C547 1.411 . S
C563 C561 1.403 . S
C563 C564 1.489 . S
C564 C563 1.489 . S
C564 C565 1.383 . S
C564 C569 1.382 . S
C565 H536 0.950 . S
C565 C564 1.383 . S
C565 C566 1.395 . S
C566 H537 0.950 . S
C566 C565 1.395 . S
C566 C567 1.288 . S
C567 C566 1.288 . S
C567 C568 1.392 . S
C568 H538 0.951 . S
C568 C567 1.392 . S
C568 C569 1.392 . S
C569 H539 0.949 . S
C569 C564 1.382 . S
C569 C568 1.392 . S
H570 C589 0.949 . S
H571 C590 0.950 . S
H572 C592 0.950 . S
H573 C593 0.950 . S
H574 C595 0.950 . S
H575 C598 0.950 . S
H576 C599 0.950 . S
H577 C601 0.951 . S
H578 C602 0.949 . S
H579 C604 0.949 . S
H580 C605 0.950 . S
H581 C607 0.950 . S
H582 C608 0.950 . S
H583 C610 0.950 . S
H584 C613 0.950 . S
H585 C614 0.950 . S
H586 C616 0.951 . S
H587 C617 0.949 . S
C588 C589 1.376 . S
C588 C593 1.386 . S
C588 C594 1.483 . S
C589 H570 0.949 . S
C589 C588 1.376 . S
C589 C590 1.397 . S
C590 H571 0.950 . S
C590 C589 1.397 . S
C590 C591 1.391 . S
C591 C590 1.391 . S
C591 C592 1.405 . S
C592 H572 0.950 . S
C592 C591 1.405 . S
C592 C593 1.367 . S
C593 H573 0.950 . S
C593 C588 1.386 . S
C593 C592 1.367 . S
C594 C588 1.483 . S
C594 C595 1.382 . S
C594 C596 1.403 . S
C595 H574 0.950 . S
C595 C594 1.382 . S
C595 C611 1.411 . S
C596 C594 1.403 . S
C596 C597 1.489 . S
C596 C610 1.411 . S
C597 C596 1.489 . S
C597 C598 1.383 . S
C597 C602 1.382 . S
C598 H575 0.950 . S
C598 C597 1.383 . S
C598 C599 1.395 . S
C599 H576 0.950 . S
C599 C598 1.395 . S
C599 C600 1.288 . S
C600 C599 1.288 . S
C600 C601 1.392 . S
C601 H577 0.951 . S
C601 C600 1.392 . S
C601 C602 1.392 . S
C602 H578 0.949 . S
C602 C597 1.382 . S
C602 C601 1.392 . S
C603 C604 1.376 . S
C603 C608 1.386 . S
C603 C609 1.483 . S
C604 H579 0.949 . S
C604 C603 1.376 . S
C604 C605 1.397 . S
C605 H580 0.950 . S
C605 C604 1.397 . S
C605 C606 1.391 . S
C606 C605 1.391 . S
C606 C607 1.405 . S
C607 H581 0.950 . S
C607 C606 1.405 . S
C607 C608 1.367 . S
C608 H582 0.950 . S
C608 C603 1.386 . S
C608 C607 1.367 . S
C609 C603 1.483 . S
C609 C610 1.382 . S
C609 C611 1.403 . S
C610 H583 0.950 . S
C610 C596 1.411 . S
C610 C609 1.382 . S
C611 C595 1.411 . S
C611 C609 1.403 . S
C611 C612 1.489 . S
C612 C611 1.489 . S
C612 C613 1.383 . S
C612 C617 1.382 . S
C613 H584 0.950 . S
C613 C612 1.383 . S
C613 C614 1.395 . S
C614 H585 0.950 . S
C614 C613 1.395 . S
C614 C615 1.288 . S
C615 C614 1.288 . S
C615 C616 1.392 . S
C616 H586 0.951 . S
C616 C615 1.392 . S
C616 C617 1.392 . S
C617 H587 0.949 . S
C617 C612 1.382 . S
C617 C616 1.392 . S
H618 C637 0.949 . S
H619 C638 0.950 . S
H620 C640 0.950 . S
H621 C641 0.950 . S
H622 C643 0.950 . S
H623 C646 0.950 . S
H624 C647 0.950 . S
H625 C649 0.951 . S
H626 C650 0.949 . S
H627 C652 0.949 . S
H628 C653 0.950 . S
H629 C655 0.950 . S
H630 C656 0.950 . S
H631 C658 0.950 . S
H632 C661 0.950 . S
H633 C662 0.950 . S
H634 C664 0.951 . S
H635 C665 0.949 . S
C636 C637 1.376 . S
C636 C641 1.386 . S
C636 C642 1.483 . S
C637 H618 0.949 . S
C637 C636 1.376 . S
C637 C638 1.397 . S
C638 H619 0.950 . S
C638 C637 1.397 . S
C638 C639 1.391 . S
C639 C638 1.391 . S
C639 C640 1.405 . S
C640 H620 0.950 . S
C640 C639 1.405 . S
C640 C641 1.367 . S
C641 H621 0.950 . S
C641 C636 1.386 . S
C641 C640 1.367 . S
C642 C636 1.483 . S
C642 C643 1.382 . S
C642 C644 1.403 . S
C643 H622 0.950 . S
C643 C642 1.382 . S
C643 C659 1.411 . S
C644 C642 1.403 . S
C644 C645 1.489 . S
C644 C658 1.411 . S
C645 C644 1.489 . S
C645 C646 1.383 . S
C645 C650 1.382 . S
C646 H623 0.950 . S
C646 C645 1.383 . S
C646 C647 1.395 . S
C647 H624 0.950 . S
C647 C646 1.395 . S
C647 C648 1.288 . S
C648 C647 1.288 . S
C648 C649 1.392 . S
C649 H625 0.951 . S
C649 C648 1.392 . S
C649 C650 1.392 . S
C650 H626 0.949 . S
C650 C645 1.382 . S
C650 C649 1.392 . S
C651 C652 1.376 . S
C651 C656 1.386 . S
C651 C657 1.483 . S
C652 H627 0.949 . S
C652 C651 1.376 . S
C652 C653 1.397 . S
C653 H628 0.950 . S
C653 C652 1.397 . S
C653 C654 1.391 . S
C654 C653 1.391 . S
C654 C655 1.405 . S
C655 H629 0.950 . S
C655 C654 1.405 . S
C655 C656 1.367 . S
C656 H630 0.950 . S
C656 C651 1.386 . S
C656 C655 1.367 . S
C657 C651 1.483 . S
C657 C658 1.382 . S
C657 C659 1.403 . S
C658 H631 0.950 . S
C658 C644 1.411 . S
C658 C657 1.382 . S
C659 C643 1.411 . S
C659 C657 1.403 . S
C659 C660 1.489 . S
C660 C659 1.489 . S
C660 C661 1.383 . S
C660 C665 1.382 . S
C661 H632 0.950 . S
C661 C660 1.383 . S
C661 C662 1.395 . S
C662 H633 0.950 . S
C662 C661 1.395 . S
C662 C663 1.288 . S
C663 C662 1.288 . S
C663 C664 1.392 . S
C664 H634 0.951 . S
C664 C663 1.392 . S
C664 C665 1.392 . S
C665 H635 0.949 . S
C665 C660 1.382 . S
C665 C664 1.392 . S
H666 C685 0.949 . S
H667 C686 0.950 . S
H668 C688 0.950 . S
H669 C689 0.950 . S
H670 C691 0.950 . S
H671 C694 0.950 . S
H672 C695 0.950 . S
H673 C697 0.951 . S
H674 C698 0.949 . S
H675 C700 0.949 . S
H676 C701 0.950 . S
H677 C703 0.950 . S
H678 C704 0.950 . S
H679 C706 0.950 . S
H680 C709 0.950 . S
H681 C710 0.950 . S
H682 C712 0.951 . S
H683 C713 0.949 . S
C684 C685 1.376 . S
C684 C689 1.386 1_655 S
C684 C690 1.483 . S
C685 H666 0.949 . S
C685 C684 1.376 . S
C685 C686 1.397 . S
C686 H667 0.950 . S
C686 C685 1.397 . S
C686 C687 1.391 . S
C687 C686 1.391 . S
C687 C688 1.405 1_655 S
C688 H668 0.950 . S
C688 C687 1.405 1_455 S
C688 C689 1.367 . S
C689 H669 0.950 . S
C689 C684 1.386 1_455 S
C689 C688 1.367 . S
C690 C684 1.483 . S
C690 C691 1.382 . S
C690 C692 1.403 1_655 S
C691 H670 0.950 . S
C691 C690 1.382 . S
C691 C707 1.411 . S
C692 C690 1.403 1_455 S
C692 C693 1.489 . S
C692 C706 1.411 . S
C693 C692 1.489 . S
C693 C694 1.383 1_455 S
C693 C698 1.382 . S
C694 H671 0.950 . S
C694 C693 1.383 1_655 S
C694 C695 1.395 . S
C695 H672 0.950 . S
C695 C694 1.395 . S
C695 C696 1.288 1_655 S
C696 C695 1.288 1_455 S
C696 C697 1.392 . S
C697 H673 0.951 . S
C697 C696 1.392 . S
C697 C698 1.392 . S
C698 H674 0.949 . S
C698 C693 1.382 . S
C698 C697 1.392 . S
C699 C700 1.376 . S
C699 C704 1.386 1_455 S
C699 C705 1.483 . S
C700 H675 0.949 . S
C700 C699 1.376 . S
C700 C701 1.397 . S
C701 H676 0.950 . S
C701 C700 1.397 . S
C701 C702 1.391 . S
C702 C701 1.391 . S
C702 C703 1.405 1_455 S
C703 H677 0.950 . S
C703 C702 1.405 1_655 S
C703 C704 1.367 . S
C704 H678 0.950 . S
C704 C699 1.386 1_655 S
C704 C703 1.367 . S
C705 C699 1.483 . S
C705 C706 1.382 . S
C705 C707 1.403 1_455 S
C706 H679 0.950 . S
C706 C692 1.411 . S
C706 C705 1.382 . S
C707 C691 1.411 . S
C707 C705 1.403 1_655 S
C707 C708 1.489 . S
C708 C707 1.489 . S
C708 C709 1.383 1_655 S
C708 C713 1.382 . S
C709 H680 0.950 . S
C709 C708 1.383 1_455 S
C709 C710 1.395 . S
C710 H681 0.950 . S
C710 C709 1.395 . S
C710 C711 1.288 1_455 S
C711 C710 1.288 1_655 S
C711 C712 1.392 . S
C712 H682 0.951 . S
C712 C711 1.392 . S
C712 C713 1.392 . S
C713 H683 0.949 . S
C713 C708 1.382 . S
C713 C712 1.392 . S
H714 C733 0.949 . S
H715 C734 0.950 . S
H716 C736 0.950 . S
H717 C737 0.950 . S
H718 C739 0.950 . S
H719 C742 0.950 . S
H720 C743 0.950 . S
H721 C745 0.951 . S
H722 C746 0.949 . S
H723 C748 0.949 . S
H724 C749 0.950 . S
H725 C751 0.950 . S
H726 C752 0.950 . S
H727 C754 0.950 . S
H728 C757 0.950 . S
H729 C758 0.950 . S
H730 C760 0.951 . S
H731 C761 0.949 . S
C732 C733 1.376 . S
C732 C737 1.386 . S
C732 C738 1.483 . S
C733 H714 0.949 . S
C733 C732 1.376 . S
C733 C734 1.397 . S
C734 H715 0.950 . S
C734 C733 1.397 . S
C734 C735 1.391 . S
C735 C734 1.391 . S
C735 C736 1.405 . S
C736 H716 0.950 . S
C736 C735 1.405 . S
C736 C737 1.367 . S
C737 H717 0.950 . S
C737 C732 1.386 . S
C737 C736 1.367 . S
C738 C732 1.483 . S
C738 C739 1.382 . S
C738 C740 1.403 . S
C739 H718 0.950 . S
C739 C738 1.382 . S
C739 C755 1.411 . S
C740 C738 1.403 . S
C740 C741 1.489 . S
C740 C754 1.411 . S
C741 C740 1.489 . S
C741 C742 1.383 . S
C741 C746 1.382 . S
C742 H719 0.950 . S
C742 C741 1.383 . S
C742 C743 1.395 . S
C743 H720 0.950 . S
C743 C742 1.395 . S
C743 C744 1.288 . S
C744 C743 1.288 . S
C744 C745 1.392 . S
C745 H721 0.951 . S
C745 C744 1.392 . S
C745 C746 1.392 . S
C746 H722 0.949 . S
C746 C741 1.382 . S
C746 C745 1.392 . S
C747 C748 1.376 . S
C747 C752 1.386 . S
C747 C753 1.483 . S
C748 H723 0.949 . S
C748 C747 1.376 . S
C748 C749 1.397 . S
C749 H724 0.950 . S
C749 C748 1.397 . S
C749 C750 1.391 . S
C750 C749 1.391 . S
C750 C751 1.405 . S
C751 H725 0.950 . S
C751 C750 1.405 . S
C751 C752 1.367 . S
C752 H726 0.950 . S
C752 C747 1.386 . S
C752 C751 1.367 . S
C753 C747 1.483 . S
C753 C754 1.382 . S
C753 C755 1.403 . S
C754 H727 0.950 . S
C754 C740 1.411 . S
C754 C753 1.382 . S
C755 C739 1.411 . S
C755 C753 1.403 . S
C755 C756 1.489 . S
C756 C755 1.489 . S
C756 C757 1.383 . S
C756 C761 1.382 . S
C757 H728 0.950 . S
C757 C756 1.383 . S
C757 C758 1.395 . S
C758 H729 0.950 . S
C758 C757 1.395 . S
C758 C759 1.288 . S
C759 C758 1.288 . S
C759 C760 1.392 . S
C760 H730 0.951 . S
C760 C759 1.392 . S
C760 C761 1.392 . S
C761 H731 0.949 . S
C761 C756 1.382 . S
C761 C760 1.392 . S
H762 C781 0.949 . S
H763 C782 0.950 . S
H764 C784 0.950 . S
H765 C785 0.950 . S
H766 C787 0.950 . S
H767 C790 0.950 . S
H768 C791 0.950 . S
H769 C793 0.951 . S
H770 C794 0.949 . S
H771 C796 0.949 . S
H772 C797 0.950 . S
H773 C799 0.950 . S
H774 C800 0.950 . S
H775 C802 0.950 . S
H776 C805 0.950 . S
H777 C806 0.950 . S
H778 C808 0.951 . S
H779 C809 0.949 . S
C780 C781 1.376 . S
C780 C785 1.386 1_545 S
C780 C786 1.483 . S
C781 H762 0.949 . S
C781 C780 1.376 . S
C781 C782 1.397 . S
C782 H763 0.950 . S
C782 C781 1.397 . S
C782 C783 1.391 . S
C783 C782 1.391 . S
C783 C784 1.405 1_545 S
C784 H764 0.950 . S
C784 C783 1.405 1_565 S
C784 C785 1.367 . S
C785 H765 0.950 . S
C785 C780 1.386 1_565 S
C785 C784 1.367 . S
C786 C780 1.483 . S
C786 C787 1.382 . S
C786 C788 1.403 1_545 S
C787 H766 0.950 . S
C787 C786 1.382 . S
C787 C803 1.411 . S
C788 C786 1.403 1_565 S
C788 C789 1.489 . S
C788 C802 1.411 . S
C789 C788 1.489 . S
C789 C790 1.383 1_565 S
C789 C794 1.382 . S
C790 H767 0.950 . S
C790 C789 1.383 1_545 S
C790 C791 1.395 . S
C791 H768 0.950 . S
C791 C790 1.395 . S
C791 C792 1.288 1_545 S
C792 C791 1.288 1_565 S
C792 C793 1.392 . S
C793 H769 0.951 . S
C793 C792 1.392 . S
C793 C794 1.392 . S
C794 H770 0.949 . S
C794 C789 1.382 . S
C794 C793 1.392 . S
C795 C796 1.376 . S
C795 C800 1.386 1_565 S
C795 C801 1.483 . S
C796 H771 0.949 . S
C796 C795 1.376 . S
C796 C797 1.397 . S
C797 H772 0.950 . S
C797 C796 1.397 . S
C797 C798 1.391 . S
C798 C797 1.391 . S
C798 C799 1.405 1_565 S
C799 H773 0.950 . S
C799 C798 1.405 1_545 S
C799 C800 1.367 . S
C800 H774 0.950 . S
C800 C795 1.386 1_545 S
C800 C799 1.367 . S
C801 C795 1.483 . S
C801 C802 1.382 . S
C801 C803 1.403 1_565 S
C802 H775 0.950 . S
C802 C788 1.411 . S
C802 C801 1.382 . S
C803 C787 1.411 . S
C803 C801 1.403 1_545 S
C803 C804 1.489 . S
C804 C803 1.489 . S
C804 C805 1.383 1_545 S
C804 C809 1.382 . S
C805 H776 0.950 . S
C805 C804 1.383 1_565 S
C805 C806 1.395 . S
C806 H777 0.950 . S
C806 C805 1.395 . S
C806 C807 1.288 1_565 S
C807 C806 1.288 1_545 S
C807 C808 1.392 . S
C808 H778 0.951 . S
C808 C807 1.392 . S
C808 C809 1.392 . S
C809 H779 0.949 . S
C809 C804 1.382 . S
C809 C808 1.392 . S
H810 C829 0.949 . S
H811 C830 0.950 . S
H812 C832 0.950 . S
H813 C833 0.950 . S
H814 C835 0.950 . S
H815 C838 0.950 . S
H816 C839 0.950 . S
H817 C841 0.951 . S
H818 C842 0.949 . S
H819 C844 0.949 . S
H820 C845 0.950 . S
H821 C847 0.950 . S
H822 C848 0.950 . S
H823 C850 0.950 . S
H824 C853 0.950 . S
H825 C854 0.950 . S
H826 C856 0.951 . S
H827 C857 0.949 . S
C828 C829 1.402 . S
C828 C833 1.375 1_545 S
C828 C834 1.500 . S
C829 H810 0.949 . S
C829 C828 1.402 . S
C829 C830 1.397 . S
C830 H811 0.950 . S
C830 C829 1.397 . S
C830 C831 1.391 1_545 S
C831 C830 1.391 1_565 S
C831 C832 1.405 . S
C832 H812 0.950 . S
C832 C831 1.405 . S
C832 C833 1.367 . S
C833 H813 0.950 . S
C833 C828 1.375 1_565 S
C833 C832 1.367 . S
C834 C828 1.500 . S
C834 C835 1.350 . S
C834 C836 1.402 1_545 S
C835 H814 0.950 . S
C835 C834 1.350 . S
C835 C851 1.438 . S
C836 C834 1.402 1_565 S
C836 C837 1.476 . S
C836 C850 1.428 . S
C837 C836 1.476 . S
C837 C838 1.378 1_565 S
C837 C842 1.384 . S
C838 H815 0.950 . S
C838 C837 1.378 1_545 S
C838 C839 1.395 . S
C839 H816 0.950 . S
C839 C838 1.395 . S
C839 C840 1.288 . S
C840 C839 1.288 . S
C840 C841 1.392 1_545 S
C841 H817 0.951 . S
C841 C840 1.392 1_565 S
C841 C842 1.392 . S
C842 H818 0.949 . S
C842 C837 1.384 . S
C842 C841 1.392 . S
C843 C844 1.390 . S
C843 C848 1.380 1_565 S
C843 C849 1.500 . S
C844 H819 0.949 . S
C844 C843 1.390 . S
C844 C845 1.397 . S
C845 H820 0.950 . S
C845 C844 1.397 . S
C845 C846 1.391 1_565 S
C846 C845 1.391 1_545 S
C846 C847 1.405 . S
C847 H821 0.950 . S
C847 C846 1.405 . S
C847 C848 1.367 . S
C848 H822 0.950 . S
C848 C843 1.380 1_545 S
C848 C847 1.367 . S
C849 C843 1.500 . S
C849 C850 1.357 . S
C849 C851 1.402 1_565 S
C850 H823 0.950 . S
C850 C836 1.428 . S
C850 C849 1.357 . S
C851 C835 1.438 . S
C851 C849 1.402 1_545 S
C851 C852 1.476 . S
C852 C851 1.476 . S
C852 C853 1.361 1_545 S
C852 C857 1.393 . S
C853 H824 0.950 . S
C853 C852 1.361 1_565 S
C853 C854 1.395 . S
C854 H825 0.950 . S
C854 C853 1.395 . S
C854 C855 1.288 . S
C855 C854 1.288 . S
C855 C856 1.392 1_565 S
C856 H826 0.951 . S
C856 C855 1.392 1_545 S
C856 C857 1.392 . S
C857 H827 0.949 . S
C857 C852 1.393 . S
C857 C856 1.392 . S
H858 C877 0.949 . S
H859 C878 0.950 . S
H860 C880 0.950 . S
H861 C881 0.950 . S
H862 C883 0.950 . S
H863 C886 0.950 . S
H864 C887 0.950 . S
H865 C889 0.951 . S
H866 C890 0.949 . S
H867 C892 0.949 . S
H868 C893 0.950 . S
H869 C895 0.950 . S
H870 C896 0.950 . S
H871 C898 0.950 . S
H872 C901 0.950 . S
H873 C902 0.950 . S
H874 C904 0.951 . S
H875 C905 0.949 . S
C876 C877 1.376 . S
C876 C881 1.386 1_455 S
C876 C882 1.483 . S
C877 H858 0.949 . S
C877 C876 1.376 . S
C877 C878 1.397 . S
C878 H859 0.950 . S
C878 C877 1.397 . S
C878 C879 1.391 . S
C879 C878 1.391 . S
C879 C880 1.405 1_455 S
C880 H860 0.950 . S
C880 C879 1.405 1_655 S
C880 C881 1.367 . S
C881 H861 0.950 . S
C881 C876 1.386 1_655 S
C881 C880 1.367 . S
C882 C876 1.483 . S
C882 C883 1.382 . S
C882 C884 1.403 1_455 S
C883 H862 0.950 . S
C883 C882 1.382 . S
C883 C899 1.411 . S
C884 C882 1.403 1_655 S
C884 C885 1.489 . S
C884 C898 1.411 . S
C885 C884 1.489 . S
C885 C886 1.383 1_655 S
C885 C890 1.382 . S
C886 H863 0.950 . S
C886 C885 1.383 1_455 S
C886 C887 1.395 . S
C887 H864 0.950 . S
C887 C886 1.395 . S
C887 C888 1.288 1_455 S
C888 C887 1.288 1_655 S
C888 C889 1.392 . S
C889 H865 0.951 . S
C889 C888 1.392 . S
C889 C890 1.392 . S
C890 H866 0.949 . S
C890 C885 1.382 . S
C890 C889 1.392 . S
C891 C892 1.376 . S
C891 C896 1.386 1_655 S
C891 C897 1.483 . S
C892 H867 0.949 . S
C892 C891 1.376 . S
C892 C893 1.397 . S
C893 H868 0.950 . S
C893 C892 1.397 . S
C893 C894 1.391 . S
C894 C893 1.391 . S
C894 C895 1.405 1_655 S
C895 H869 0.950 . S
C895 C894 1.405 1_455 S
C895 C896 1.367 . S
C896 H870 0.950 . S
C896 C891 1.386 1_455 S
C896 C895 1.367 . S
C897 C891 1.483 . S
C897 C898 1.382 . S
C897 C899 1.403 1_655 S
C898 H871 0.950 . S
C898 C884 1.411 . S
C898 C897 1.382 . S
C899 C883 1.411 . S
C899 C897 1.403 1_455 S
C899 C900 1.489 . S
C900 C899 1.489 . S
C900 C901 1.383 1_455 S
C900 C905 1.382 . S
C901 H872 0.950 . S
C901 C900 1.383 1_655 S
C901 C902 1.395 . S
C902 H873 0.950 . S
C902 C901 1.395 . S
C902 C903 1.288 1_655 S
C903 C902 1.288 1_455 S
C903 C904 1.392 . S
C904 H874 0.951 . S
C904 C903 1.392 . S
C904 C905 1.392 . S
C905 H875 0.949 . S
C905 C900 1.382 . S
C905 C904 1.392 . S
H906 C925 0.949 . S
H907 C926 0.950 . S
H908 C928 0.950 . S
H909 C929 0.950 . S
H910 C931 0.950 . S
H911 C934 0.950 . S
H912 C935 0.950 . S
H913 C937 0.951 . S
H914 C938 0.949 . S
H915 C940 0.949 . S
H916 C941 0.950 . S
H917 C943 0.950 . S
H918 C944 0.950 . S
H919 C946 0.950 . S
H920 C949 0.950 . S
H921 C950 0.950 . S
H922 C952 0.951 . S
H923 C953 0.949 . S
C924 C925 1.376 . S
C924 C929 1.386 . S
C924 C930 1.483 . S
C925 H906 0.949 . S
C925 C924 1.376 . S
C925 C926 1.397 . S
C926 H907 0.950 . S
C926 C925 1.397 . S
C926 C927 1.391 . S
C927 C926 1.391 . S
C927 C928 1.405 . S
C928 H908 0.950 . S
C928 C927 1.405 . S
C928 C929 1.367 . S
C929 H909 0.950 . S
C929 C924 1.386 . S
C929 C928 1.367 . S
C930 C924 1.483 . S
C930 C931 1.382 . S
C930 C932 1.403 . S
C931 H910 0.950 . S
C931 C930 1.382 . S
C931 C947 1.411 . S
C932 C930 1.403 . S
C932 C933 1.489 . S
C932 C946 1.411 . S
C933 C932 1.489 . S
C933 C934 1.383 . S
C933 C938 1.382 . S
C934 H911 0.950 . S
C934 C933 1.383 . S
C934 C935 1.395 . S
C935 H912 0.950 . S
C935 C934 1.395 . S
C935 C936 1.288 . S
C936 C935 1.288 . S
C936 C937 1.392 . S
C937 H913 0.951 . S
C937 C936 1.392 . S
C937 C938 1.392 . S
C938 H914 0.949 . S
C938 C933 1.382 . S
C938 C937 1.392 . S
C939 C940 1.376 . S
C939 C944 1.386 . S
C939 C945 1.483 . S
C940 H915 0.949 . S
C940 C939 1.376 . S
C940 C941 1.397 . S
C941 H916 0.950 . S
C941 C940 1.397 . S
C941 C942 1.391 . S
C942 C941 1.391 . S
C942 C943 1.405 . S
C943 H917 0.950 . S
C943 C942 1.405 . S
C943 C944 1.367 . S
C944 H918 0.950 . S
C944 C939 1.386 . S
C944 C943 1.367 . S
C945 C939 1.483 . S
C945 C946 1.382 . S
C945 C947 1.403 . S
C946 H919 0.950 . S
C946 C932 1.411 . S
C946 C945 1.382 . S
C947 C931 1.411 . S
C947 C945 1.403 . S
C947 C948 1.489 . S
C948 C947 1.489 . S
C948 C949 1.383 . S
C948 C953 1.382 . S
C949 H920 0.950 . S
C949 C948 1.383 . S
C949 C950 1.395 . S
C950 H921 0.950 . S
C950 C949 1.395 . S
C950 C951 1.288 . S
C951 C950 1.288 . S
C951 C952 1.392 . S
C952 H922 0.951 . S
C952 C951 1.392 . S
C952 C953 1.392 . S
C953 H923 0.949 . S
C953 C948 1.382 . S
C953 C952 1.392 . S
H954 C973 0.949 . S
H955 C974 0.950 . S
H956 C976 0.950 . S
H957 C977 0.950 . S
H958 C979 0.950 . S
H959 C982 0.950 . S
H960 C983 0.950 . S
H961 C985 0.951 . S
H962 C986 0.949 . S
H963 C988 0.949 . S
H964 C989 0.950 . S
H965 C991 0.950 . S
H966 C992 0.950 . S
H967 C994 0.950 . S
H968 C997 0.950 . S
H969 C998 0.950 . S
H970 C1000 0.951 . S
H971 C1001 0.949 . S
C972 C973 1.376 . S
C972 C977 1.386 . S
C972 C978 1.483 . S
C973 H954 0.949 . S
C973 C972 1.376 . S
C973 C974 1.397 . S
C974 H955 0.950 . S
C974 C973 1.397 . S
C974 C975 1.391 . S
C975 C974 1.391 . S
C975 C976 1.405 . S
C976 H956 0.950 . S
C976 C975 1.405 . S
C976 C977 1.367 . S
C977 H957 0.950 . S
C977 C972 1.386 . S
C977 C976 1.367 . S
C978 C972 1.483 . S
C978 C979 1.382 . S
C978 C980 1.403 . S
C979 H958 0.950 . S
C979 C978 1.382 . S
C979 C995 1.411 . S
C980 C978 1.403 . S
C980 C981 1.489 . S
C980 C994 1.411 . S
C981 C980 1.489 . S
C981 C982 1.383 . S
C981 C986 1.382 . S
C982 H959 0.950 . S
C982 C981 1.383 . S
C982 C983 1.395 . S
C983 H960 0.950 . S
C983 C982 1.395 . S
C983 C984 1.288 . S
C984 C983 1.288 . S
C984 C985 1.392 . S
C985 H961 0.951 . S
C985 C984 1.392 . S
C985 C986 1.392 . S
C986 H962 0.949 . S
C986 C981 1.382 . S
C986 C985 1.392 . S
C987 C988 1.376 . S
C987 C992 1.386 . S
C987 C993 1.483 . S
C988 H963 0.949 . S
C988 C987 1.376 . S
C988 C989 1.397 . S
C989 H964 0.950 . S
C989 C988 1.397 . S
C989 C990 1.391 . S
C990 C989 1.391 . S
C990 C991 1.405 . S
C991 H965 0.950 . S
C991 C990 1.405 . S
C991 C992 1.367 . S
C992 H966 0.950 . S
C992 C987 1.386 . S
C992 C991 1.367 . S
C993 C987 1.483 . S
C993 C994 1.382 . S
C993 C995 1.403 . S
C994 H967 0.950 . S
C994 C980 1.411 . S
C994 C993 1.382 . S
C995 C979 1.411 . S
C995 C993 1.403 . S
C995 C996 1.489 . S
C996 C995 1.489 . S
C996 C997 1.383 . S
C996 C1001 1.382 . S
C997 H968 0.950 . S
C997 C996 1.383 . S
C997 C998 1.395 . S
C998 H969 0.950 . S
C998 C997 1.395 . S
C998 C999 1.288 . S
C999 C998 1.288 . S
C999 C1000 1.392 . S
C1000 H970 0.951 . S
C1000 C999 1.392 . S
C1000 C1001 1.392 . S
C1001 H971 0.949 . S
C1001 C996 1.382 . S
C1001 C1000 1.392 . S
H1002 C1021 0.949 . S
H1003 C1022 0.950 . S
H1004 C1024 0.950 . S
H1005 C1025 0.950 . S
H1006 C1027 0.950 . S
H1007 C1030 0.950 . S
H1008 C1031 0.950 . S
H1009 C1033 0.951 . S
H1010 C1034 0.949 . S
H1011 C1036 0.949 . S
H1012 C1037 0.950 . S
H1013 C1039 0.950 . S
H1014 C1040 0.950 . S
H1015 C1042 0.950 . S
H1016 C1045 0.950 . S
H1017 C1046 0.950 . S
H1018 C1048 0.951 . S
H1019 C1049 0.949 . S
C1020 C1021 1.376 . S
C1020 C1025 1.386 . S
C1020 C1026 1.483 . S
C1021 H1002 0.949 . S
C1021 C1020 1.376 . S
C1021 C1022 1.397 . S
C1022 H1003 0.950 . S
C1022 C1021 1.397 . S
C1022 C1023 1.391 . S
C1023 C1022 1.391 . S
C1023 C1024 1.405 . S
C1024 H1004 0.950 . S
C1024 C1023 1.405 . S
C1024 C1025 1.367 . S
C1025 H1005 0.950 . S
C1025 C1020 1.386 . S
C1025 C1024 1.367 . S
C1026 C1020 1.483 . S
C1026 C1027 1.382 . S
C1026 C1028 1.403 . S
C1027 H1006 0.950 . S
C1027 C1026 1.382 . S
C1027 C1043 1.411 . S
C1028 C1026 1.403 . S
C1028 C1029 1.489 . S
C1028 C1042 1.411 . S
C1029 C1028 1.489 . S
C1029 C1030 1.383 . S
C1029 C1034 1.382 . S
C1030 H1007 0.950 . S
C1030 C1029 1.383 . S
C1030 C1031 1.395 . S
C1031 H1008 0.950 . S
C1031 C1030 1.395 . S
C1031 C1032 1.288 . S
C1032 C1031 1.288 . S
C1032 C1033 1.392 . S
C1033 H1009 0.951 . S
C1033 C1032 1.392 . S
C1033 C1034 1.392 . S
C1034 H1010 0.949 . S
C1034 C1029 1.382 . S
C1034 C1033 1.392 . S
C1035 C1036 1.376 . S
C1035 C1040 1.386 . S
C1035 C1041 1.483 . S
C1036 H1011 0.949 . S
C1036 C1035 1.376 . S
C1036 C1037 1.397 . S
C1037 H1012 0.950 . S
C1037 C1036 1.397 . S
C1037 C1038 1.391 . S
C1038 C1037 1.391 . S
C1038 C1039 1.405 . S
C1039 H1013 0.950 . S
C1039 C1038 1.405 . S
C1039 C1040 1.367 . S
C1040 H1014 0.950 . S
C1040 C1035 1.386 . S
C1040 C1039 1.367 . S
C1041 C1035 1.483 . S
C1041 C1042 1.382 . S
C1041 C1043 1.403 . S
C1042 H1015 0.950 . S
C1042 C1028 1.411 . S
C1042 C1041 1.382 . S
C1043 C1027 1.411 . S
C1043 C1041 1.403 . S
C1043 C1044 1.489 . S
C1044 C1043 1.489 . S
C1044 C1045 1.383 . S
C1044 C1049 1.382 . S
C1045 H1016 0.950 . S
C1045 C1044 1.383 . S
C1045 C1046 1.395 . S
C1046 H1017 0.950 . S
C1046 C1045 1.395 . S
C1046 C1047 1.288 . S
C1047 C1046 1.288 . S
C1047 C1048 1.392 . S
C1048 H1018 0.951 . S
C1048 C1047 1.392 . S
C1048 C1049 1.392 . S
C1049 H1019 0.949 . S
C1049 C1044 1.382 . S
C1049 C1048 1.392 . S
H1050 C1069 0.949 . S
H1051 C1070 0.950 . S
H1052 C1072 0.950 . S
H1053 C1073 0.950 . S
H1054 C1075 0.950 . S
H1055 C1078 0.950 . S
H1056 C1079 0.950 . S
H1057 C1081 0.951 . S
H1058 C1082 0.949 . S
H1059 C1084 0.949 . S
H1060 C1085 0.950 . S
H1061 C1087 0.950 . S
H1062 C1088 0.950 . S
H1063 C1090 0.950 . S
H1064 C1093 0.950 . S
H1065 C1094 0.950 . S
H1066 C1096 0.951 . S
H1067 C1097 0.949 . S
C1068 C1069 1.376 . S
C1068 C1073 1.386 . S
C1068 C1074 1.483 . S
C1069 H1050 0.949 . S
C1069 C1068 1.376 . S
C1069 C1070 1.397 . S
C1070 H1051 0.950 . S
C1070 C1069 1.397 . S
C1070 C1071 1.391 . S
C1071 C1070 1.391 . S
C1071 C1072 1.405 . S
C1072 H1052 0.950 . S
C1072 C1071 1.405 . S
C1072 C1073 1.367 . S
C1073 H1053 0.950 . S
C1073 C1068 1.386 . S
C1073 C1072 1.367 . S
C1074 C1068 1.483 . S
C1074 C1075 1.382 . S
C1074 C1076 1.403 . S
C1075 H1054 0.950 . S
C1075 C1074 1.382 . S
C1075 C1091 1.411 . S
C1076 C1074 1.403 . S
C1076 C1077 1.489 . S
C1076 C1090 1.411 . S
C1077 C1076 1.489 . S
C1077 C1078 1.383 . S
C1077 C1082 1.382 . S
C1078 H1055 0.950 . S
C1078 C1077 1.383 . S
C1078 C1079 1.395 . S
C1079 H1056 0.950 . S
C1079 C1078 1.395 . S
C1079 C1080 1.288 . S
C1080 C1079 1.288 . S
C1080 C1081 1.392 . S
C1081 H1057 0.951 . S
C1081 C1080 1.392 . S
C1081 C1082 1.392 . S
C1082 H1058 0.949 . S
C1082 C1077 1.382 . S
C1082 C1081 1.392 . S
C1083 C1084 1.376 . S
C1083 C1088 1.386 . S
C1083 C1089 1.483 . S
C1084 H1059 0.949 . S
C1084 C1083 1.376 . S
C1084 C1085 1.397 . S
C1085 H1060 0.950 . S
C1085 C1084 1.397 . S
C1085 C1086 1.391 . S
C1086 C1085 1.391 . S
C1086 C1087 1.405 . S
C1087 H1061 0.950 . S
C1087 C1086 1.405 . S
C1087 C1088 1.367 . S
C1088 H1062 0.950 . S
C1088 C1083 1.386 . S
C1088 C1087 1.367 . S
C1089 C1083 1.483 . S
C1089 C1090 1.382 . S
C1089 C1091 1.403 . S
C1090 H1063 0.950 . S
C1090 C1076 1.411 . S
C1090 C1089 1.382 . S
C1091 C1075 1.411 . S
C1091 C1089 1.403 . S
C1091 C1092 1.489 . S
C1092 C1091 1.489 . S
C1092 C1093 1.383 . S
C1092 C1097 1.382 . S
C1093 H1064 0.950 . S
C1093 C1092 1.383 . S
C1093 C1094 1.395 . S
C1094 H1065 0.950 . S
C1094 C1093 1.395 . S
C1094 C1095 1.288 . S
C1095 C1094 1.288 . S
C1095 C1096 1.392 . S
C1096 H1066 0.951 . S
C1096 C1095 1.392 . S
C1096 C1097 1.392 . S
C1097 H1067 0.949 . S
C1097 C1092 1.382 . S
C1097 C1096 1.392 . S
H1098 C1104 0.930 . S
H1099 C1108 0.930 . S
H1100 C1113 0.929 . S
H1101 C1111 0.929 . S
H1102 C1106 0.929 . S
H1103 C1112 0.929 . S
C1104 H1098 0.930 . S
C1104 C1105 1.367 1_455 S
C1104 C1112 1.378 . S
C1105 C1104 1.367 1_655 S
C1105 C1113 1.433 . S
C1106 H1102 0.929 . S
C1106 C1108 1.378 . S
C1106 C1110 1.350 . S
C1107 C1110 1.463 . S
C1107 C1112 1.350 1_655 S
C1107 N1115 1.427 . S
C1108 H1099 0.930 . S
C1108 C1106 1.378 . S
C1108 C1109 1.367 . S
C1109 C1108 1.367 . S
C1109 C1111 1.433 1_655 S
C1110 C1106 1.350 . S
C1110 C1107 1.463 . S
C1110 N1114 1.427 1_655 S
C1111 H1101 0.929 . S
C1111 C1109 1.433 1_455 S
C1111 N1114 1.384 . S
C1112 H1103 0.929 . S
C1112 C1104 1.378 . S
C1112 C1107 1.350 1_455 S
C1113 H1100 0.929 . S
C1113 C1105 1.433 . S
C1113 N1115 1.384 . S
N1114 C1110 1.427 1_455 S
N1114 C1111 1.384 . S
N1115 C1107 1.427 . S
N1115 C1113 1.384 . S
H1116 C1122 0.930 . S
H1117 C1126 0.930 . S
H1118 C1131 0.929 . S
H1119 C1129 0.929 . S
H1120 C1124 0.929 . S
H1121 C1130 0.929 . S
C1122 H1116 0.930 . S
C1122 C1123 1.367 . S
C1122 C1130 1.378 . S
C1123 C1122 1.367 . S
C1123 C1131 1.433 . S
C1124 H1120 0.929 . S
C1124 C1126 1.378 . S
C1124 C1128 1.350 . S
C1125 C1128 1.463 . S
C1125 C1130 1.350 . S
C1125 N1133 1.427 . S
C1126 H1117 0.930 . S
C1126 C1124 1.378 . S
C1126 C1127 1.367 . S
C1127 C1126 1.367 . S
C1127 C1129 1.433 . S
C1128 C1124 1.350 . S
C1128 C1125 1.463 . S
C1128 N1132 1.427 . S
C1129 H1119 0.929 . S
C1129 C1127 1.433 . S
C1129 N1132 1.384 . S
C1130 H1121 0.929 . S
C1130 C1122 1.378 . S
C1130 C1125 1.350 . S
C1131 H1118 0.929 . S
C1131 C1123 1.433 . S
C1131 N1133 1.384 . S
N1132 C1128 1.427 . S
N1132 C1129 1.384 . S
N1133 C1125 1.427 . S
N1133 C1131 1.384 . S
H1134 C1140 0.943 . S
H1135 C1144 0.930 . S
H1136 C1149 0.929 . S
H1137 C1147 0.929 . S
H1138 C1142 0.929 . S
H1139 C1148 0.929 . S
C1140 H1134 0.943 . S
C1140 C1141 1.340 1_565 S
C1140 C1148 1.392 . S
C1141 C1140 1.340 1_545 S
C1141 C1149 1.433 . S
C1142 H1138 0.929 . S
C1142 C1144 1.378 . S
C1142 C1146 1.350 . S
C1143 C1146 1.463 . S
C1143 C1148 1.350 1_545 S
C1143 N1151 1.427 . S
C1144 H1135 0.930 . S
C1144 C1142 1.378 . S
C1144 C1145 1.367 . S
C1145 C1144 1.367 . S
C1145 C1147 1.433 1_545 S
C1146 C1142 1.350 . S
C1146 C1143 1.463 . S
C1146 N1150 1.427 1_545 S
C1147 H1137 0.929 . S
C1147 C1145 1.433 1_565 S
C1147 N1150 1.384 . S
C1148 H1139 0.929 . S
C1148 C1140 1.392 . S
C1148 C1143 1.350 1_565 S
C1149 H1136 0.929 . S
C1149 C1141 1.433 . S
C1149 N1151 1.384 . S
N1150 C1146 1.427 1_565 S
N1150 C1147 1.384 . S
N1151 C1143 1.427 . S
N1151 C1149 1.384 . S
H1152 C1158 0.930 . S
H1153 C1162 0.930 . S
H1154 C1167 0.929 . S
H1155 C1165 0.929 . S
H1156 C1160 0.929 . S
H1157 C1166 0.929 . S
C1158 H1152 0.930 . S
C1158 C1159 1.367 . S
C1158 C1166 1.378 . S
C1159 C1158 1.367 . S
C1159 C1167 1.433 1_565 S
C1160 H1156 0.929 . S
C1160 C1162 1.378 . S
C1160 C1164 1.350 1_545 S
C1161 C1164 1.463 . S
C1161 C1166 1.350 . S
C1161 N1169 1.427 1_565 S
C1162 H1153 0.930 . S
C1162 C1160 1.378 . S
C1162 C1163 1.367 1_545 S
C1163 C1162 1.367 1_565 S
C1163 C1165 1.433 . S
C1164 C1160 1.350 1_565 S
C1164 C1161 1.463 . S
C1164 N1168 1.427 . S
C1165 H1155 0.929 . S
C1165 C1163 1.433 . S
C1165 N1168 1.384 . S
C1166 H1157 0.929 . S
C1166 C1158 1.378 . S
C1166 C1161 1.350 . S
C1167 H1154 0.929 . S
C1167 C1159 1.433 1_545 S
C1167 N1169 1.384 . S
N1168 C1164 1.427 . S
N1168 C1165 1.384 . S
N1169 C1161 1.427 1_545 S
N1169 C1167 1.384 . S
H1170 C1176 0.930 . S
H1171 C1180 0.930 . S
H1172 C1185 0.929 . S
H1173 C1183 0.929 . S
H1174 C1178 0.929 . S
H1175 C1184 0.929 . S
C1176 H1170 0.930 . S
C1176 C1177 1.367 . S
C1176 C1184 1.378 . S
C1177 C1176 1.367 . S
C1177 C1185 1.433 1_455 S
C1178 H1174 0.929 . S
C1178 C1180 1.378 . S
C1178 C1182 1.350 1_655 S
C1179 C1182 1.463 . S
C1179 C1184 1.350 . S
C1179 N1187 1.427 1_455 S
C1180 H1171 0.930 . S
C1180 C1178 1.378 . S
C1180 C1181 1.367 1_655 S
C1181 C1180 1.367 1_455 S
C1181 C1183 1.433 . S
C1182 C1178 1.350 1_455 S
C1182 C1179 1.463 . S
C1182 N1186 1.427 . S
C1183 H1173 0.929 . S
C1183 C1181 1.433 . S
C1183 N1186 1.384 . S
C1184 H1175 0.929 . S
C1184 C1176 1.378 . S
C1184 C1179 1.350 . S
C1185 H1172 0.929 . S
C1185 C1177 1.433 1_655 S
C1185 N1187 1.384 . S
N1186 C1182 1.427 . S
N1186 C1183 1.384 . S
N1187 C1179 1.427 1_655 S
N1187 C1185 1.384 . S
H1188 C1194 0.930 . S
H1189 C1198 0.930 . S
H1190 C1203 0.929 . S
H1191 C1201 0.929 . S
H1192 C1196 0.929 . S
H1193 C1202 0.929 . S
C1194 H1188 0.930 . S
C1194 C1195 1.367 . S
C1194 C1202 1.378 . S
C1195 C1194 1.367 . S
C1195 C1203 1.433 . S
C1196 H1192 0.929 . S
C1196 C1198 1.378 . S
C1196 C1200 1.350 . S
C1197 C1200 1.463 . S
C1197 C1202 1.350 . S
C1197 N1205 1.427 . S
C1198 H1189 0.930 . S
C1198 C1196 1.378 . S
C1198 C1199 1.367 . S
C1199 C1198 1.367 . S
C1199 C1201 1.433 . S
C1200 C1196 1.350 . S
C1200 C1197 1.463 . S
C1200 N1204 1.427 . S
C1201 H1191 0.929 . S
C1201 C1199 1.433 . S
C1201 N1204 1.384 . S
C1202 H1193 0.929 . S
C1202 C1194 1.378 . S
C1202 C1197 1.350 . S
C1203 H1190 0.929 . S
C1203 C1195 1.433 . S
C1203 N1205 1.384 . S
N1204 C1200 1.427 . S
N1204 C1201 1.384 . S
N1205 C1197 1.427 . S
N1205 C1203 1.384 . S
H1206 C1212 0.930 . S
H1207 C1216 0.930 . S
H1208 C1221 0.929 . S
H1209 C1219 0.929 . S
H1210 C1214 0.929 . S
H1211 C1220 0.929 . S
C1212 H1206 0.930 . S
C1212 C1213 1.367 1_655 S
C1212 C1220 1.378 . S
C1213 C1212 1.367 1_455 S
C1213 C1221 1.433 . S
C1214 H1210 0.929 . S
C1214 C1216 1.378 . S
C1214 C1218 1.350 . S
C1215 C1218 1.463 . S
C1215 C1220 1.350 1_455 S
C1215 N1223 1.427 . S
C1216 H1207 0.930 . S
C1216 C1214 1.378 . S
C1216 C1217 1.367 . S
C1217 C1216 1.367 . S
C1217 C1219 1.433 1_455 S
C1218 C1214 1.350 . S
C1218 C1215 1.463 . S
C1218 N1222 1.427 1_455 S
C1219 H1209 0.929 . S
C1219 C1217 1.433 1_655 S
C1219 N1222 1.384 . S
C1220 H1211 0.929 . S
C1220 C1212 1.378 . S
C1220 C1215 1.350 1_655 S
C1221 H1208 0.929 . S
C1221 C1213 1.433 . S
C1221 N1223 1.384 . S
N1222 C1218 1.427 1_655 S
N1222 C1219 1.384 . S
N1223 C1215 1.427 . S
N1223 C1221 1.384 . S
H1224 C1230 0.930 . S
H1225 C1234 0.930 . S
H1226 C1239 0.929 . S
H1227 C1237 0.929 . S
H1228 C1232 0.929 . S
H1229 C1238 0.929 . S
C1230 H1224 0.930 . S
C1230 C1231 1.367 . S
C1230 C1238 1.378 . S
C1231 C1230 1.367 . S
C1231 C1239 1.433 . S
C1232 H1228 0.929 . S
C1232 C1234 1.378 . S
C1232 C1236 1.350 . S
C1233 C1236 1.463 . S
C1233 C1238 1.350 . S
C1233 N1241 1.427 . S
C1234 H1225 0.930 . S
C1234 C1232 1.378 . S
C1234 C1235 1.367 . S
C1235 C1234 1.367 . S
C1235 C1237 1.433 . S
C1236 C1232 1.350 . S
C1236 C1233 1.463 . S
C1236 N1240 1.427 . S
C1237 H1227 0.929 . S
C1237 C1235 1.433 . S
C1237 N1240 1.384 . S
C1238 H1229 0.929 . S
C1238 C1230 1.378 . S
C1238 C1233 1.350 . S
C1239 H1226 0.929 . S
C1239 C1231 1.433 . S
C1239 N1241 1.384 . S
N1240 C1236 1.427 . S
N1240 C1237 1.384 . S
N1241 C1233 1.427 . S
N1241 C1239 1.384 . S
H1242 C1248 0.930 . S
H1243 C1252 0.930 . S
H1244 C1257 0.929 . S
H1245 C1255 0.929 . S
H1246 C1250 0.929 . S
H1247 C1256 0.929 . S
C1248 H1242 0.930 . S
C1248 C1249 1.367 . S
C1248 C1256 1.378 . S
C1249 C1248 1.367 . S
C1249 C1257 1.433 1_565 S
C1250 H1246 0.929 . S
C1250 C1252 1.378 . S
C1250 C1254 1.350 1_545 S
C1251 C1254 1.463 . S
C1251 C1256 1.350 . S
C1251 N1259 1.427 1_565 S
C1252 H1243 0.930 . S
C1252 C1250 1.378 . S
C1252 C1253 1.367 1_545 S
C1253 C1252 1.367 1_565 S
C1253 C1255 1.433 . S
C1254 C1250 1.350 1_565 S
C1254 C1251 1.463 . S
C1254 N1258 1.427 . S
C1255 H1245 0.929 . S
C1255 C1253 1.433 . S
C1255 N1258 1.384 . S
C1256 H1247 0.929 . S
C1256 C1248 1.378 . S
C1256 C1251 1.350 . S
C1257 H1244 0.929 . S
C1257 C1249 1.433 1_545 S
C1257 N1259 1.384 . S
N1258 C1254 1.427 . S
N1258 C1255 1.384 . S
N1259 C1251 1.427 1_545 S
N1259 C1257 1.384 . S
H1260 C1266 0.930 . S
H1261 C1270 0.930 . S
H1262 C1275 0.929 . S
H1263 C1273 0.929 . S
H1264 C1268 0.929 . S
H1265 C1274 0.929 . S
C1266 H1260 0.930 . S
C1266 C1267 1.367 1_565 S
C1266 C1274 1.378 . S
C1267 C1266 1.367 1_545 S
C1267 C1275 1.433 . S
C1268 H1264 0.929 . S
C1268 C1270 1.378 . S
C1268 C1272 1.350 . S
C1269 C1272 1.463 . S
C1269 C1274 1.350 1_545 S
C1269 N1277 1.427 . S
C1270 H1261 0.930 . S
C1270 C1268 1.378 . S
C1270 C1271 1.367 . S
C1271 C1270 1.367 . S
C1271 C1273 1.433 1_545 S
C1272 C1268 1.350 . S
C1272 C1269 1.463 . S
C1272 N1276 1.427 1_545 S
C1273 H1263 0.929 . S
C1273 C1271 1.433 1_565 S
C1273 N1276 1.384 . S
C1274 H1265 0.929 . S
C1274 C1266 1.378 . S
C1274 C1269 1.350 1_565 S
C1275 H1262 0.929 . S
C1275 C1267 1.433 . S
C1275 N1277 1.384 . S
N1276 C1272 1.427 1_565 S
N1276 C1273 1.384 . S
N1277 C1269 1.427 . S
N1277 C1275 1.384 . S
H1278 C1284 0.930 . S
H1279 C1288 0.930 . S
H1280 C1293 0.929 . S
H1281 C1291 0.929 . S
H1282 C1286 0.929 . S
H1283 C1292 0.929 . S
C1284 H1278 0.930 . S
C1284 C1285 1.367 . S
C1284 C1292 1.378 . S
C1285 C1284 1.367 . S
C1285 C1293 1.433 1_655 S
C1286 H1282 0.929 . S
C1286 C1288 1.378 . S
C1286 C1290 1.350 1_455 S
C1287 C1290 1.463 . S
C1287 C1292 1.350 . S
C1287 N1295 1.427 1_655 S
C1288 H1279 0.930 . S
C1288 C1286 1.378 . S
C1288 C1289 1.367 1_455 S
C1289 C1288 1.367 1_655 S
C1289 C1291 1.433 . S
C1290 C1286 1.350 1_655 S
C1290 C1287 1.463 . S
C1290 N1294 1.427 . S
C1291 H1281 0.929 . S
C1291 C1289 1.433 . S
C1291 N1294 1.384 . S
C1292 H1283 0.929 . S
C1292 C1284 1.378 . S
C1292 C1287 1.350 . S
C1293 H1280 0.929 . S
C1293 C1285 1.433 1_455 S
C1293 N1295 1.384 . S
N1294 C1290 1.427 . S
N1294 C1291 1.384 . S
N1295 C1287 1.427 1_455 S
N1295 C1293 1.384 . S
H1296 C1302 0.930 . S
H1297 C1306 0.930 . S
H1298 C1311 0.929 . S
H1299 C1309 0.929 . S
H1300 C1304 0.929 . S
H1301 C1310 0.929 . S
C1302 H1296 0.930 . S
C1302 C1303 1.367 . S
C1302 C1310 1.378 . S
C1303 C1302 1.367 . S
C1303 C1311 1.433 . S
C1304 H1300 0.929 . S
C1304 C1306 1.378 . S
C1304 C1308 1.350 . S
C1305 C1308 1.463 . S
C1305 C1310 1.350 . S
C1305 N1313 1.427 . S
C1306 H1297 0.930 . S
C1306 C1304 1.378 . S
C1306 C1307 1.367 . S
C1307 C1306 1.367 . S
C1307 C1309 1.433 . S
C1308 C1304 1.350 . S
C1308 C1305 1.463 . S
C1308 N1312 1.427 . S
C1309 H1299 0.929 . S
C1309 C1307 1.433 . S
C1309 N1312 1.384 . S
C1310 H1301 0.929 . S
C1310 C1302 1.378 . S
C1310 C1305 1.350 . S
C1311 H1298 0.929 . S
C1311 C1303 1.433 . S
C1311 N1313 1.384 . S
N1312 C1308 1.427 . S
N1312 C1309 1.384 . S
N1313 C1305 1.427 . S
N1313 C1311 1.384 . S
H1314 C1320 0.930 . S
H1315 C1324 0.930 . S
H1316 C1329 0.929 . S
H1317 C1327 0.929 . S
H1318 C1322 0.929 . S
H1319 C1328 0.929 . S
C1320 H1314 0.930 . S
C1320 C1321 1.367 . S
C1320 C1328 1.378 . S
C1321 C1320 1.367 . S
C1321 C1329 1.433 . S
C1322 H1318 0.929 . S
C1322 C1324 1.378 . S
C1322 C1326 1.350 . S
C1323 C1326 1.463 . S
C1323 C1328 1.350 . S
C1323 N1331 1.427 . S
C1324 H1315 0.930 . S
C1324 C1322 1.378 . S
C1324 C1325 1.367 . S
C1325 C1324 1.367 . S
C1325 C1327 1.433 . S
C1326 C1322 1.350 . S
C1326 C1323 1.463 . S
C1326 N1330 1.427 . S
C1327 H1317 0.929 . S
C1327 C1325 1.433 . S
C1327 N1330 1.384 . S
C1328 H1319 0.929 . S
C1328 C1320 1.378 . S
C1328 C1323 1.350 . S
C1329 H1316 0.929 . S
C1329 C1321 1.433 . S
C1329 N1331 1.384 . S
N1330 C1326 1.427 . S
N1330 C1327 1.384 . S
N1331 C1323 1.427 . S
N1331 C1329 1.384 . S
H1332 C1338 0.930 . S
H1333 C1342 0.930 . S
H1334 C1347 0.929 . S
H1335 C1345 0.929 . S
H1336 C1340 0.929 . S
H1337 C1346 0.929 . S
C1338 H1332 0.930 . S
C1338 C1339 1.367 . S
C1338 C1346 1.378 . S
C1339 C1338 1.367 . S
C1339 C1347 1.433 . S
C1340 H1336 0.929 . S
C1340 C1342 1.378 . S
C1340 C1344 1.350 . S
C1341 C1344 1.463 . S
C1341 C1346 1.350 . S
C1341 N1349 1.427 . S
C1342 H1333 0.930 . S
C1342 C1340 1.378 . S
C1342 C1343 1.367 . S
C1343 C1342 1.367 . S
C1343 C1345 1.433 . S
C1344 C1340 1.350 . S
C1344 C1341 1.463 . S
C1344 N1348 1.427 . S
C1345 H1335 0.929 . S
C1345 C1343 1.433 . S
C1345 N1348 1.384 . S
C1346 H1337 0.929 . S
C1346 C1338 1.378 . S
C1346 C1341 1.350 . S
C1347 H1334 0.929 . S
C1347 C1339 1.433 . S
C1347 N1349 1.384 . S
N1348 C1344 1.427 . S
N1348 C1345 1.384 . S
N1349 C1341 1.427 . S
N1349 C1347 1.384 . S
H1350 C1356 0.930 . S
H1351 C1360 0.930 . S
H1352 C1365 0.929 . S
H1353 C1363 0.929 . S
H1354 C1358 0.929 . S
H1355 C1364 0.929 . S
C1356 H1350 0.930 . S
C1356 C1357 1.367 . S
C1356 C1364 1.378 . S
C1357 C1356 1.367 . S
C1357 C1365 1.433 . S
C1358 H1354 0.929 . S
C1358 C1360 1.378 . S
C1358 C1362 1.350 . S
C1359 C1362 1.463 . S
C1359 C1364 1.350 . S
C1359 N1367 1.427 . S
C1360 H1351 0.930 . S
C1360 C1358 1.378 . S
C1360 C1361 1.367 . S
C1361 C1360 1.367 . S
C1361 C1363 1.433 . S
C1362 C1358 1.350 . S
C1362 C1359 1.463 . S
C1362 N1366 1.427 . S
C1363 H1353 0.929 . S
C1363 C1361 1.433 . S
C1363 N1366 1.384 . S
C1364 H1355 0.929 . S
C1364 C1356 1.378 . S
C1364 C1359 1.350 . S
C1365 H1352 0.929 . S
C1365 C1357 1.433 . S
C1365 N1367 1.384 . S
N1366 C1362 1.427 . S
N1366 C1363 1.384 . S
N1367 C1359 1.427 . S
N1367 C1365 1.384 . S
H1368 C1374 0.930 . S
H1369 C1378 0.930 . S
H1370 C1383 0.929 . S
H1371 C1381 0.929 . S
H1372 C1376 0.929 . S
H1373 C1382 0.929 . S
C1374 H1368 0.930 . S
C1374 C1375 1.367 . S
C1374 C1382 1.378 . S
C1375 C1374 1.367 . S
C1375 C1383 1.433 . S
C1376 H1372 0.929 . S
C1376 C1378 1.378 . S
C1376 C1380 1.350 . S
C1377 C1380 1.463 . S
C1377 C1382 1.350 . S
C1377 N1385 1.427 . S
C1378 H1369 0.930 . S
C1378 C1376 1.378 . S
C1378 C1379 1.367 . S
C1379 C1378 1.367 . S
C1379 C1381 1.433 . S
C1380 C1376 1.350 . S
C1380 C1377 1.463 . S
C1380 N1384 1.427 . S
C1381 H1371 0.929 . S
C1381 C1379 1.433 . S
C1381 N1384 1.384 . S
C1382 H1373 0.929 . S
C1382 C1374 1.378 . S
C1382 C1377 1.350 . S
C1383 H1370 0.929 . S
C1383 C1375 1.433 . S
C1383 N1385 1.384 . S
N1384 C1380 1.427 . S
N1384 C1381 1.384 . S
N1385 C1377 1.427 . S
N1385 C1383 1.384 . S
H1386 C1392 0.930 . S
H1387 C1396 0.930 . S
H1388 C1401 0.929 . S
H1389 C1399 0.929 . S
H1390 C1394 0.929 . S
H1391 C1400 0.929 . S
C1392 H1386 0.930 . S
C1392 C1393 1.367 . S
C1392 C1400 1.378 . S
C1393 C1392 1.367 . S
C1393 C1401 1.433 . S
C1394 H1390 0.929 . S
C1394 C1396 1.378 . S
C1394 C1398 1.350 . S
C1395 C1398 1.463 . S
C1395 C1400 1.350 . S
C1395 N1403 1.427 . S
C1396 H1387 0.930 . S
C1396 C1394 1.378 . S
C1396 C1397 1.367 . S
C1397 C1396 1.367 . S
C1397 C1399 1.433 . S
C1398 C1394 1.350 . S
C1398 C1395 1.463 . S
C1398 N1402 1.427 . S
C1399 H1389 0.929 . S
C1399 C1397 1.433 . S
C1399 N1402 1.384 . S
C1400 H1391 0.929 . S
C1400 C1392 1.378 . S
C1400 C1395 1.350 . S
C1401 H1388 0.929 . S
C1401 C1393 1.433 . S
C1401 N1403 1.384 . S
N1402 C1398 1.427 . S
N1402 C1399 1.384 . S
N1403 C1395 1.427 . S
N1403 C1401 1.384 . S
H1404 C1410 0.930 . S
H1405 C1414 0.930 . S
H1406 C1419 0.929 . S
H1407 C1417 0.929 . S
H1408 C1412 0.929 . S
H1409 C1418 0.929 . S
C1410 H1404 0.930 . S
C1410 C1411 1.367 . S
C1410 C1418 1.378 . S
C1411 C1410 1.367 . S
C1411 C1419 1.433 . S
C1412 H1408 0.929 . S
C1412 C1414 1.378 . S
C1412 C1416 1.350 . S
C1413 C1416 1.463 . S
C1413 C1418 1.350 . S
C1413 N1421 1.427 . S
C1414 H1405 0.930 . S
C1414 C1412 1.378 . S
C1414 C1415 1.367 . S
C1415 C1414 1.367 . S
C1415 C1417 1.433 . S
C1416 C1412 1.350 . S
C1416 C1413 1.463 . S
C1416 N1420 1.427 . S
C1417 H1407 0.929 . S
C1417 C1415 1.433 . S
C1417 N1420 1.384 . S
C1418 H1409 0.929 . S
C1418 C1410 1.378 . S
C1418 C1413 1.350 . S
C1419 H1406 0.929 . S
C1419 C1411 1.433 . S
C1419 N1421 1.384 . S
N1420 C1416 1.427 . S
N1420 C1417 1.384 . S
N1421 C1413 1.427 . S
N1421 C1419 1.384 . S
H1422 C1428 0.930 . S
H1423 C1432 0.930 . S
H1424 C1437 0.929 . S
H1425 C1435 0.929 . S
H1426 C1430 0.929 . S
H1427 C1436 0.929 . S
C1428 H1422 0.930 . S
C1428 C1429 1.367 . S
C1428 C1436 1.378 . S
C1429 C1428 1.367 . S
C1429 C1437 1.433 . S
C1430 H1426 0.929 . S
C1430 C1432 1.378 . S
C1430 C1434 1.350 . S
C1431 C1434 1.463 . S
C1431 C1436 1.350 . S
C1431 N1439 1.427 . S
C1432 H1423 0.930 . S
C1432 C1430 1.378 . S
C1432 C1433 1.367 . S
C1433 C1432 1.367 . S
C1433 C1435 1.433 . S
C1434 C1430 1.350 . S
C1434 C1431 1.463 . S
C1434 N1438 1.427 . S
C1435 H1425 0.929 . S
C1435 C1433 1.433 . S
C1435 N1438 1.384 . S
C1436 H1427 0.929 . S
C1436 C1428 1.378 . S
C1436 C1431 1.350 . S
C1437 H1424 0.929 . S
C1437 C1429 1.433 . S
C1437 N1439 1.384 . S
N1438 C1434 1.427 . S
N1438 C1435 1.384 . S
N1439 C1431 1.427 . S
N1439 C1437 1.384 . S
H1440 C1446 0.930 . S
H1441 C1450 0.930 . S
H1442 C1455 0.929 . S
H1443 C1453 0.929 . S
H1444 C1448 0.929 . S
H1445 C1454 0.929 . S
C1446 H1440 0.930 . S
C1446 C1447 1.367 . S
C1446 C1454 1.378 . S
C1447 C1446 1.367 . S
C1447 C1455 1.433 . S
C1448 H1444 0.929 . S
C1448 C1450 1.378 . S
C1448 C1452 1.350 . S
C1449 C1452 1.463 . S
C1449 C1454 1.350 . S
C1449 N1457 1.427 . S
C1450 H1441 0.930 . S
C1450 C1448 1.378 . S
C1450 C1451 1.367 . S
C1451 C1450 1.367 . S
C1451 C1453 1.433 . S
C1452 C1448 1.350 . S
C1452 C1449 1.463 . S
C1452 N1456 1.427 . S
C1453 H1443 0.929 . S
C1453 C1451 1.433 . S
C1453 N1456 1.384 . S
C1454 H1445 0.929 . S
C1454 C1446 1.378 . S
C1454 C1449 1.350 . S
C1455 H1442 0.929 . S
C1455 C1447 1.433 . S
C1455 N1457 1.384 . S
N1456 C1452 1.427 . S
N1456 C1453 1.384 . S
N1457 C1449 1.427 . S
N1457 C1455 1.384 . S
H1458 C1464 0.930 . S
H1459 C1468 0.930 . S
H1460 C1473 0.929 . S
H1461 C1471 0.929 . S
H1462 C1466 0.929 . S
H1463 C1472 0.929 . S
C1464 H1458 0.930 . S
C1464 C1465 1.367 . S
C1464 C1472 1.378 . S
C1465 C1464 1.367 . S
C1465 C1473 1.433 . S
C1466 H1462 0.929 . S
C1466 C1468 1.378 . S
C1466 C1470 1.350 . S
C1467 C1470 1.463 . S
C1467 C1472 1.350 . S
C1467 N1475 1.427 . S
C1468 H1459 0.930 . S
C1468 C1466 1.378 . S
C1468 C1469 1.367 . S
C1469 C1468 1.367 . S
C1469 C1471 1.433 . S
C1470 C1466 1.350 . S
C1470 C1467 1.463 . S
C1470 N1474 1.427 . S
C1471 H1461 0.929 . S
C1471 C1469 1.433 . S
C1471 N1474 1.384 . S
C1472 H1463 0.929 . S
C1472 C1464 1.378 . S
C1472 C1467 1.350 . S
C1473 H1460 0.929 . S
C1473 C1465 1.433 . S
C1473 N1475 1.384 . S
N1474 C1470 1.427 . S
N1474 C1471 1.384 . S
N1475 C1467 1.427 . S
N1475 C1473 1.384 . S
H1476 C1482 0.930 . S
H1477 C1486 0.930 . S
H1478 C1491 0.929 . S
H1479 C1489 0.929 . S
H1480 C1484 0.929 . S
H1481 C1490 0.929 . S
C1482 H1476 0.930 . S
C1482 C1483 1.367 . S
C1482 C1490 1.378 . S
C1483 C1482 1.367 . S
C1483 C1491 1.433 . S
C1484 H1480 0.929 . S
C1484 C1486 1.378 . S
C1484 C1488 1.350 . S
C1485 C1488 1.463 . S
C1485 C1490 1.350 . S
C1485 N1493 1.427 . S
C1486 H1477 0.930 . S
C1486 C1484 1.378 . S
C1486 C1487 1.367 . S
C1487 C1486 1.367 . S
C1487 C1489 1.433 . S
C1488 C1484 1.350 . S
C1488 C1485 1.463 . S
C1488 N1492 1.427 . S
C1489 H1479 0.929 . S
C1489 C1487 1.433 . S
C1489 N1492 1.384 . S
C1490 H1481 0.929 . S
C1490 C1482 1.378 . S
C1490 C1485 1.350 . S
C1491 H1478 0.929 . S
C1491 C1483 1.433 . S
C1491 N1493 1.384 . S
N1492 C1488 1.427 . S
N1492 C1489 1.384 . S
N1493 C1485 1.427 . S
N1493 C1491 1.384 . S
H1494 C1500 0.930 . S
H1495 C1504 0.930 . S
H1496 C1509 0.929 . S
H1497 C1507 0.929 . S
H1498 C1502 0.929 . S
H1499 C1508 0.929 . S
C1500 H1494 0.930 . S
C1500 C1501 1.367 . S
C1500 C1508 1.378 . S
C1501 C1500 1.367 . S
C1501 C1509 1.433 . S
C1502 H1498 0.929 . S
C1502 C1504 1.378 . S
C1502 C1506 1.350 . S
C1503 C1506 1.463 . S
C1503 C1508 1.350 . S
C1503 N1511 1.427 . S
C1504 H1495 0.930 . S
C1504 C1502 1.378 . S
C1504 C1505 1.367 . S
C1505 C1504 1.367 . S
C1505 C1507 1.433 . S
C1506 C1502 1.350 . S
C1506 C1503 1.463 . S
C1506 N1510 1.427 . S
C1507 H1497 0.929 . S
C1507 C1505 1.433 . S
C1507 N1510 1.384 . S
C1508 H1499 0.929 . S
C1508 C1500 1.378 . S
C1508 C1503 1.350 . S
C1509 H1496 0.929 . S
C1509 C1501 1.433 . S
C1509 N1511 1.384 . S
N1510 C1506 1.427 . S
N1510 C1507 1.384 . S
N1511 C1503 1.427 . S
N1511 C1509 1.384 . S
H1512 C1518 0.930 . S
H1513 C1522 0.930 . S
H1514 C1527 0.929 . S
H1515 C1525 0.929 . S
H1516 C1520 0.929 . S
H1517 C1526 0.929 . S
C1518 H1512 0.930 . S
C1518 C1519 1.367 . S
C1518 C1526 1.378 . S
C1519 C1518 1.367 . S
C1519 C1527 1.433 . S
C1520 H1516 0.929 . S
C1520 C1522 1.378 . S
C1520 C1524 1.350 . S
C1521 C1524 1.463 . S
C1521 C1526 1.350 . S
C1521 N1529 1.427 . S
C1522 H1513 0.930 . S
C1522 C1520 1.378 . S
C1522 C1523 1.367 . S
C1523 C1522 1.367 . S
C1523 C1525 1.433 . S
C1524 C1520 1.350 . S
C1524 C1521 1.463 . S
C1524 N1528 1.427 . S
C1525 H1515 0.929 . S
C1525 C1523 1.433 . S
C1525 N1528 1.384 . S
C1526 H1517 0.929 . S
C1526 C1518 1.378 . S
C1526 C1521 1.350 . S
C1527 H1514 0.929 . S
C1527 C1519 1.433 . S
C1527 N1529 1.384 . S
N1528 C1524 1.427 . S
N1528 C1525 1.384 . S
N1529 C1521 1.427 . S
N1529 C1527 1.384 . S
H1530 C1536 0.930 . S
H1531 C1540 0.930 . S
H1532 C1545 0.929 . S
H1533 C1543 0.929 . S
H1534 C1538 0.929 . S
H1535 C1544 0.929 . S
C1536 H1530 0.930 . S
C1536 C1537 1.367 . S
C1536 C1544 1.378 . S
C1537 C1536 1.367 . S
C1537 C1545 1.433 . S
C1538 H1534 0.929 . S
C1538 C1540 1.378 . S
C1538 C1542 1.350 . S
C1539 C1542 1.463 . S
C1539 C1544 1.350 . S
C1539 N1547 1.427 . S
C1540 H1531 0.930 . S
C1540 C1538 1.378 . S
C1540 C1541 1.367 . S
C1541 C1540 1.367 . S
C1541 C1543 1.433 . S
C1542 C1538 1.350 . S
C1542 C1539 1.463 . S
C1542 N1546 1.427 . S
C1543 H1533 0.929 . S
C1543 C1541 1.433 . S
C1543 N1546 1.384 . S
C1544 H1535 0.929 . S
C1544 C1536 1.378 . S
C1544 C1539 1.350 . S
C1545 H1532 0.929 . S
C1545 C1537 1.433 . S
C1545 N1547 1.384 . S
N1546 C1542 1.427 . S
N1546 C1543 1.384 . S
N1547 C1539 1.427 . S
N1547 C1545 1.384 . S
H1548 C1554 0.930 . S
H1549 C1558 0.930 . S
H1550 C1563 0.929 . S
H1551 C1561 0.929 . S
H1552 C1556 0.929 . S
H1553 C1562 0.929 . S
C1554 H1548 0.930 . S
C1554 C1555 1.367 . S
C1554 C1562 1.378 . S
C1555 C1554 1.367 . S
C1555 C1563 1.433 . S
C1556 H1552 0.929 . S
C1556 C1558 1.378 . S
C1556 C1560 1.350 . S
C1557 C1560 1.463 . S
C1557 C1562 1.350 . S
C1557 N1565 1.427 . S
C1558 H1549 0.930 . S
C1558 C1556 1.378 . S
C1558 C1559 1.367 . S
C1559 C1558 1.367 . S
C1559 C1561 1.433 . S
C1560 C1556 1.350 . S
C1560 C1557 1.463 . S
C1560 N1564 1.427 . S
C1561 H1551 0.929 . S
C1561 C1559 1.433 . S
C1561 N1564 1.384 . S
C1562 H1553 0.929 . S
C1562 C1554 1.378 . S
C1562 C1557 1.350 . S
C1563 H1550 0.929 . S
C1563 C1555 1.433 . S
C1563 N1565 1.384 . S
N1564 C1560 1.427 . S
N1564 C1561 1.384 . S
N1565 C1557 1.427 . S
N1565 C1563 1.384 . S
H1566 C1572 0.930 . S
H1567 C1576 0.930 . S
H1568 C1581 0.929 . S
H1569 C1579 0.929 . S
H1570 C1574 0.929 . S
H1571 C1580 0.929 . S
C1572 H1566 0.930 . S
C1572 C1573 1.367 . S
C1572 C1580 1.378 . S
C1573 C1572 1.367 . S
C1573 C1581 1.433 . S
C1574 H1570 0.929 . S
C1574 C1576 1.378 . S
C1574 C1578 1.350 . S
C1575 C1578 1.463 . S
C1575 C1580 1.350 . S
C1575 N1583 1.427 . S
C1576 H1567 0.930 . S
C1576 C1574 1.378 . S
C1576 C1577 1.367 . S
C1577 C1576 1.367 . S
C1577 C1579 1.433 . S
C1578 C1574 1.350 . S
C1578 C1575 1.463 . S
C1578 N1582 1.427 . S
C1579 H1569 0.929 . S
C1579 C1577 1.433 . S
C1579 N1582 1.384 . S
C1580 H1571 0.929 . S
C1580 C1572 1.378 . S
C1580 C1575 1.350 . S
C1581 H1568 0.929 . S
C1581 C1573 1.433 . S
C1581 N1583 1.384 . S
N1582 C1578 1.427 . S
N1582 C1579 1.384 . S
N1583 C1575 1.427 . S
N1583 C1581 1.384 . S
H1584 C1590 0.930 . S
H1585 C1594 0.930 . S
H1586 C1599 0.929 . S
H1587 C1597 0.929 . S
H1588 C1592 0.929 . S
H1589 C1598 0.929 . S
C1590 H1584 0.930 . S
C1590 C1591 1.367 . S
C1590 C1598 1.378 . S
C1591 C1590 1.367 . S
C1591 C1599 1.433 . S
C1592 H1588 0.929 . S
C1592 C1594 1.378 . S
C1592 C1596 1.350 . S
C1593 C1596 1.463 . S
C1593 C1598 1.350 . S
C1593 N1601 1.427 . S
C1594 H1585 0.930 . S
C1594 C1592 1.378 . S
C1594 C1595 1.367 . S
C1595 C1594 1.367 . S
C1595 C1597 1.433 . S
C1596 C1592 1.350 . S
C1596 C1593 1.463 . S
C1596 N1600 1.427 . S
C1597 H1587 0.929 . S
C1597 C1595 1.433 . S
C1597 N1600 1.384 . S
C1598 H1589 0.929 . S
C1598 C1590 1.378 . S
C1598 C1593 1.350 . S
C1599 H1586 0.929 . S
C1599 C1591 1.433 . S
C1599 N1601 1.384 . S
N1600 C1596 1.427 . S
N1600 C1597 1.384 . S
N1601 C1593 1.427 . S
N1601 C1599 1.384 . S
H1602 C1608 0.930 . S
H1603 C1612 0.930 . S
H1604 C1617 0.929 . S
H1605 C1615 0.929 . S
H1606 C1610 0.929 . S
H1607 C1616 0.929 . S
C1608 H1602 0.930 . S
C1608 C1609 1.367 . S
C1608 C1616 1.378 . S
C1609 C1608 1.367 . S
C1609 C1617 1.433 . S
C1610 H1606 0.929 . S
C1610 C1612 1.378 . S
C1610 C1614 1.350 . S
C1611 C1614 1.463 . S
C1611 C1616 1.350 . S
C1611 N1619 1.427 . S
C1612 H1603 0.930 . S
C1612 C1610 1.378 . S
C1612 C1613 1.367 . S
C1613 C1612 1.367 . S
C1613 C1615 1.433 . S
C1614 C1610 1.350 . S
C1614 C1611 1.463 . S
C1614 N1618 1.427 . S
C1615 H1605 0.929 . S
C1615 C1613 1.433 . S
C1615 N1618 1.384 . S
C1616 H1607 0.929 . S
C1616 C1608 1.378 . S
C1616 C1611 1.350 . S
C1617 H1604 0.929 . S
C1617 C1609 1.433 . S
C1617 N1619 1.384 . S
N1618 C1614 1.427 . S
N1618 C1615 1.384 . S
N1619 C1611 1.427 . S
N1619 C1617 1.384 . S
H1620 C1626 0.930 . S
H1621 C1630 0.930 . S
H1622 C1635 0.929 . S
H1623 C1633 0.929 . S
H1624 C1628 0.929 . S
H1625 C1634 0.929 . S
C1626 H1620 0.930 . S
C1626 C1627 1.367 . S
C1626 C1634 1.378 . S
C1627 C1626 1.367 . S
C1627 C1635 1.433 . S
C1628 H1624 0.929 . S
C1628 C1630 1.378 . S
C1628 C1632 1.350 . S
C1629 C1632 1.463 . S
C1629 C1634 1.350 . S
C1629 N1637 1.427 . S
C1630 H1621 0.930 . S
C1630 C1628 1.378 . S
C1630 C1631 1.367 . S
C1631 C1630 1.367 . S
C1631 C1633 1.433 . S
C1632 C1628 1.350 . S
C1632 C1629 1.463 . S
C1632 N1636 1.427 . S
C1633 H1623 0.929 . S
C1633 C1631 1.433 . S
C1633 N1636 1.384 . S
C1634 H1625 0.929 . S
C1634 C1626 1.378 . S
C1634 C1629 1.350 . S
C1635 H1622 0.929 . S
C1635 C1627 1.433 . S
C1635 N1637 1.384 . S
N1636 C1632 1.427 . S
N1636 C1633 1.384 . S
N1637 C1629 1.427 . S
N1637 C1635 1.384 . S
H1638 C1644 0.930 . S
H1639 C1648 0.930 . S
H1640 C1653 0.929 . S
H1641 C1651 0.929 . S
H1642 C1646 0.929 . S
H1643 C1652 0.929 . S
C1644 H1638 0.930 . S
C1644 C1645 1.367 . S
C1644 C1652 1.378 . S
C1645 C1644 1.367 . S
C1645 C1653 1.433 . S
C1646 H1642 0.929 . S
C1646 C1648 1.378 . S
C1646 C1650 1.350 . S
C1647 C1650 1.463 . S
C1647 C1652 1.350 . S
C1647 N1655 1.427 . S
C1648 H1639 0.930 . S
C1648 C1646 1.378 . S
C1648 C1649 1.367 . S
C1649 C1648 1.367 . S
C1649 C1651 1.433 . S
C1650 C1646 1.350 . S
C1650 C1647 1.463 . S
C1650 N1654 1.427 . S
C1651 H1641 0.929 . S
C1651 C1649 1.433 . S
C1651 N1654 1.384 . S
C1652 H1643 0.929 . S
C1652 C1644 1.378 . S
C1652 C1647 1.350 . S
C1653 H1640 0.929 . S
C1653 C1645 1.433 . S
C1653 N1655 1.384 . S
N1654 C1650 1.427 . S
N1654 C1651 1.384 . S
N1655 C1647 1.427 . S
N1655 C1653 1.384 . S
H1656 C1662 0.930 . S
H1657 C1666 0.930 . S
H1658 C1671 0.929 . S
H1659 C1669 0.929 . S
H1660 C1664 0.929 . S
H1661 C1670 0.929 . S
C1662 H1656 0.930 . S
C1662 C1663 1.367 . S
C1662 C1670 1.378 . S
C1663 C1662 1.367 . S
C1663 C1671 1.433 . S
C1664 H1660 0.929 . S
C1664 C1666 1.378 . S
C1664 C1668 1.350 . S
C1665 C1668 1.463 . S
C1665 C1670 1.350 . S
C1665 N1673 1.427 . S
C1666 H1657 0.930 . S
C1666 C1664 1.378 . S
C1666 C1667 1.367 . S
C1667 C1666 1.367 . S
C1667 C1669 1.433 . S
C1668 C1664 1.350 . S
C1668 C1665 1.463 . S
C1668 N1672 1.427 . S
C1669 H1659 0.929 . S
C1669 C1667 1.433 . S
C1669 N1672 1.384 . S
C1670 H1661 0.929 . S
C1670 C1662 1.378 . S
C1670 C1665 1.350 . S
C1671 H1658 0.929 . S
C1671 C1663 1.433 . S
C1671 N1673 1.384 . S
N1672 C1668 1.427 . S
N1672 C1669 1.384 . S
N1673 C1665 1.427 . S
N1673 C1671 1.384 . S
H1674 C1680 0.930 . S
H1675 C1684 0.930 . S
H1676 C1689 0.929 . S
H1677 C1687 0.929 . S
H1678 C1682 0.929 . S
H1679 C1688 0.929 . S
C1680 H1674 0.930 . S
C1680 C1681 1.367 . S
C1680 C1688 1.378 . S
C1681 C1680 1.367 . S
C1681 C1689 1.433 . S
C1682 H1678 0.929 . S
C1682 C1684 1.378 . S
C1682 C1686 1.350 . S
C1683 C1686 1.463 . S
C1683 C1688 1.350 . S
C1683 N1691 1.427 . S
C1684 H1675 0.930 . S
C1684 C1682 1.378 . S
C1684 C1685 1.367 . S
C1685 C1684 1.367 . S
C1685 C1687 1.433 . S
C1686 C1682 1.350 . S
C1686 C1683 1.463 . S
C1686 N1690 1.427 . S
C1687 H1677 0.929 . S
C1687 C1685 1.433 . S
C1687 N1690 1.384 . S
C1688 H1679 0.929 . S
C1688 C1680 1.378 . S
C1688 C1683 1.350 . S
C1689 H1676 0.929 . S
C1689 C1681 1.433 . S
C1689 N1691 1.384 . S
N1690 C1686 1.427 . S
N1690 C1687 1.384 . S
N1691 C1683 1.427 . S
N1691 C1689 1.384 . S
H1692 C1698 0.930 . S
H1693 C1702 0.930 . S
H1694 C1707 0.929 . S
H1695 C1705 0.929 . S
H1696 C1700 0.929 . S
H1697 C1706 0.929 . S
C1698 H1692 0.930 . S
C1698 C1699 1.367 . S
C1698 C1706 1.378 . S
C1699 C1698 1.367 . S
C1699 C1707 1.433 . S
C1700 H1696 0.929 . S
C1700 C1702 1.378 . S
C1700 C1704 1.350 . S
C1701 C1704 1.463 . S
C1701 C1706 1.350 . S
C1701 N1709 1.427 . S
C1702 H1693 0.930 . S
C1702 C1700 1.378 . S
C1702 C1703 1.367 . S
C1703 C1702 1.367 . S
C1703 C1705 1.433 . S
C1704 C1700 1.350 . S
C1704 C1701 1.463 . S
C1704 N1708 1.427 . S
C1705 H1695 0.929 . S
C1705 C1703 1.433 . S
C1705 N1708 1.384 . S
C1706 H1697 0.929 . S
C1706 C1698 1.378 . S
C1706 C1701 1.350 . S
C1707 H1694 0.929 . S
C1707 C1699 1.433 . S
C1707 N1709 1.384 . S
N1708 C1704 1.427 . S
N1708 C1705 1.384 . S
N1709 C1701 1.427 . S
N1709 C1707 1.384 . S
H1710 C1716 0.930 . S
H1711 C1720 0.930 . S
H1712 C1725 0.929 . S
H1713 C1723 0.929 . S
H1714 C1718 0.929 . S
H1715 C1724 0.929 . S
C1716 H1710 0.930 . S
C1716 C1717 1.367 . S
C1716 C1724 1.378 . S
C1717 C1716 1.367 . S
C1717 C1725 1.433 . S
C1718 H1714 0.929 . S
C1718 C1720 1.378 . S
C1718 C1722 1.350 . S
C1719 C1722 1.463 . S
C1719 C1724 1.350 . S
C1719 N1727 1.427 . S
C1720 H1711 0.930 . S
C1720 C1718 1.378 . S
C1720 C1721 1.367 . S
C1721 C1720 1.367 . S
C1721 C1723 1.433 . S
C1722 C1718 1.350 . S
C1722 C1719 1.463 . S
C1722 N1726 1.427 . S
C1723 H1713 0.929 . S
C1723 C1721 1.433 . S
C1723 N1726 1.384 . S
C1724 H1715 0.929 . S
C1724 C1716 1.378 . S
C1724 C1719 1.350 . S
C1725 H1712 0.929 . S
C1725 C1717 1.433 . S
C1725 N1727 1.384 . S
N1726 C1722 1.427 . S
N1726 C1723 1.384 . S
N1727 C1719 1.427 . S
N1727 C1725 1.384 . S
H1728 C1734 0.930 . S
H1729 C1738 0.930 . S
H1730 C1743 0.929 . S
H1731 C1741 0.929 . S
H1732 C1736 0.929 . S
H1733 C1742 0.929 . S
C1734 H1728 0.930 . S
C1734 C1735 1.367 . S
C1734 C1742 1.378 . S
C1735 C1734 1.367 . S
C1735 C1743 1.433 . S
C1736 H1732 0.929 . S
C1736 C1738 1.378 . S
C1736 C1740 1.350 . S
C1737 C1740 1.463 . S
C1737 C1742 1.350 . S
C1737 N1745 1.427 . S
C1738 H1729 0.930 . S
C1738 C1736 1.378 . S
C1738 C1739 1.367 . S
C1739 C1738 1.367 . S
C1739 C1741 1.433 . S
C1740 C1736 1.350 . S
C1740 C1737 1.463 . S
C1740 N1744 1.427 . S
C1741 H1731 0.929 . S
C1741 C1739 1.433 . S
C1741 N1744 1.384 . S
C1742 H1733 0.929 . S
C1742 C1734 1.378 . S
C1742 C1737 1.350 . S
C1743 H1730 0.929 . S
C1743 C1735 1.433 . S
C1743 N1745 1.384 . S
N1744 C1740 1.427 . S
N1744 C1741 1.384 . S
N1745 C1737 1.427 . S
N1745 C1743 1.384 . S
H1746 C1752 0.930 . S
H1747 C1756 0.930 . S
H1748 C1761 0.929 . S
H1749 C1759 0.929 . S
H1750 C1754 0.929 . S
H1751 C1760 0.929 . S
C1752 H1746 0.930 . S
C1752 C1753 1.367 . S
C1752 C1760 1.378 . S
C1753 C1752 1.367 . S
C1753 C1761 1.433 . S
C1754 H1750 0.929 . S
C1754 C1756 1.378 . S
C1754 C1758 1.350 . S
C1755 C1758 1.463 . S
C1755 C1760 1.350 . S
C1755 N1763 1.427 . S
C1756 H1747 0.930 . S
C1756 C1754 1.378 . S
C1756 C1757 1.367 . S
C1757 C1756 1.367 . S
C1757 C1759 1.433 . S
C1758 C1754 1.350 . S
C1758 C1755 1.463 . S
C1758 N1762 1.427 . S
C1759 H1749 0.929 . S
C1759 C1757 1.433 . S
C1759 N1762 1.384 . S
C1760 H1751 0.929 . S
C1760 C1752 1.378 . S
C1760 C1755 1.350 . S
C1761 H1748 0.929 . S
C1761 C1753 1.433 . S
C1761 N1763 1.384 . S
N1762 C1758 1.427 . S
N1762 C1759 1.384 . S
N1763 C1755 1.427 . S
N1763 C1761 1.384 . S
H1764 C1770 0.930 . S
H1765 C1774 0.930 . S
H1766 C1779 0.929 . S
H1767 C1777 0.929 . S
H1768 C1772 0.929 . S
H1769 C1778 0.929 . S
C1770 H1764 0.930 . S
C1770 C1771 1.367 . S
C1770 C1778 1.378 . S
C1771 C1770 1.367 . S
C1771 C1779 1.433 . S
C1772 H1768 0.929 . S
C1772 C1774 1.378 . S
C1772 C1776 1.350 . S
C1773 C1776 1.463 . S
C1773 C1778 1.350 . S
C1773 N1781 1.427 . S
C1774 H1765 0.930 . S
C1774 C1772 1.378 . S
C1774 C1775 1.367 . S
C1775 C1774 1.367 . S
C1775 C1777 1.433 . S
C1776 C1772 1.350 . S
C1776 C1773 1.463 . S
C1776 N1780 1.427 . S
C1777 H1767 0.929 . S
C1777 C1775 1.433 . S
C1777 N1780 1.384 . S
C1778 H1769 0.929 . S
C1778 C1770 1.378 . S
C1778 C1773 1.350 . S
C1779 H1766 0.929 . S
C1779 C1771 1.433 . S
C1779 N1781 1.384 . S
N1780 C1776 1.427 . S
N1780 C1777 1.384 . S
N1781 C1773 1.427 . S
N1781 C1779 1.384 . S
H1782 C1788 0.930 . S
H1783 C1792 0.930 . S
H1784 C1797 0.929 . S
H1785 C1795 0.929 . S
H1786 C1790 0.929 . S
H1787 C1796 0.929 . S
C1788 H1782 0.930 . S
C1788 C1789 1.367 . S
C1788 C1796 1.378 . S
C1789 C1788 1.367 . S
C1789 C1797 1.433 . S
C1790 H1786 0.929 . S
C1790 C1792 1.378 . S
C1790 C1794 1.350 . S
C1791 C1794 1.463 . S
C1791 C1796 1.350 . S
C1791 N1799 1.427 . S
C1792 H1783 0.930 . S
C1792 C1790 1.378 . S
C1792 C1793 1.367 . S
C1793 C1792 1.367 . S
C1793 C1795 1.433 . S
C1794 C1790 1.350 . S
C1794 C1791 1.463 . S
C1794 N1798 1.427 . S
C1795 H1785 0.929 . S
C1795 C1793 1.433 . S
C1795 N1798 1.384 . S
C1796 H1787 0.929 . S
C1796 C1788 1.378 . S
C1796 C1791 1.350 . S
C1797 H1784 0.929 . S
C1797 C1789 1.433 . S
C1797 N1799 1.384 . S
N1798 C1794 1.427 . S
N1798 C1795 1.384 . S
N1799 C1791 1.427 . S
N1799 C1797 1.384 . S
H1800 C1806 0.939 . S
H1801 C1810 0.930 . S
H1802 C1815 0.929 . S
H1803 C1813 0.929 . S
H1804 C1808 0.929 . S
H1805 C1814 0.929 . S
C1806 H1800 0.939 . S
C1806 C1807 1.362 1_554 S
C1806 C1814 1.374 1_554 S
C1807 C1806 1.362 1_556 S
C1807 C1815 1.433 . S
C1808 H1804 0.929 . S
C1808 C1810 1.378 . S
C1808 C1812 1.350 . S
C1809 C1812 1.463 . S
C1809 C1814 1.350 . S
C1809 N1817 1.427 . S
C1810 H1801 0.930 . S
C1810 C1808 1.378 . S
C1810 C1811 1.367 . S
C1811 C1810 1.367 . S
C1811 C1813 1.433 . S
C1812 C1808 1.350 . S
C1812 C1809 1.463 . S
C1812 N1816 1.427 . S
C1813 H1803 0.929 . S
C1813 C1811 1.433 . S
C1813 N1816 1.384 . S
C1814 H1805 0.929 . S
C1814 C1806 1.374 1_556 S
C1814 C1809 1.350 . S
C1815 H1802 0.929 . S
C1815 C1807 1.433 . S
C1815 N1817 1.384 . S
N1816 C1812 1.427 . S
N1816 C1813 1.384 . S
N1817 C1809 1.427 . S
N1817 C1815 1.384 . S
H1818 C1824 0.930 1_554 S
H1819 C1828 0.930 . S
H1820 C1833 0.929 . S
H1821 C1831 0.929 . S
H1822 C1826 0.929 . S
H1823 C1832 0.929 . S
C1824 H1818 0.930 1_556 S
C1824 C1825 1.367 . S
C1824 C1832 1.378 . S
C1825 C1824 1.367 . S
C1825 C1833 1.433 . S
C1826 H1822 0.929 . S
C1826 C1828 1.378 . S
C1826 C1830 1.350 . S
C1827 C1830 1.463 . S
C1827 C1832 1.350 . S
C1827 N1835 1.427 . S
C1828 H1819 0.930 . S
C1828 C1826 1.378 . S
C1828 C1829 1.367 . S
C1829 C1828 1.367 . S
C1829 C1831 1.433 . S
C1830 C1826 1.350 . S
C1830 C1827 1.463 . S
C1830 N1834 1.427 . S
C1831 H1821 0.929 . S
C1831 C1829 1.433 . S
C1831 N1834 1.384 . S
C1832 H1823 0.929 . S
C1832 C1824 1.378 . S
C1832 C1827 1.350 . S
C1833 H1820 0.929 . S
C1833 C1825 1.433 . S
C1833 N1835 1.384 . S
N1834 C1830 1.427 . S
N1834 C1831 1.384 . S
N1835 C1827 1.427 . S
N1835 C1833 1.384 . S
H1836 C1842 0.930 1_554 S
H1837 C1846 0.930 . S
H1838 C1851 0.929 . S
H1839 C1849 0.929 . S
H1840 C1844 0.929 . S
H1841 C1850 0.929 . S
C1842 H1836 0.930 1_556 S
C1842 C1843 1.367 . S
C1842 C1850 1.378 . S
C1843 C1842 1.367 . S
C1843 C1851 1.433 . S
C1844 H1840 0.929 . S
C1844 C1846 1.378 . S
C1844 C1848 1.350 . S
C1845 C1848 1.463 . S
C1845 C1850 1.350 . S
C1845 N1853 1.427 . S
C1846 H1837 0.930 . S
C1846 C1844 1.378 . S
C1846 C1847 1.367 . S
C1847 C1846 1.367 . S
C1847 C1849 1.433 . S
C1848 C1844 1.350 . S
C1848 C1845 1.463 . S
C1848 N1852 1.427 . S
C1849 H1839 0.929 . S
C1849 C1847 1.433 . S
C1849 N1852 1.384 . S
C1850 H1841 0.929 . S
C1850 C1842 1.378 . S
C1850 C1845 1.350 . S
C1851 H1838 0.929 . S
C1851 C1843 1.433 . S
C1851 N1853 1.384 . S
N1852 C1848 1.427 . S
N1852 C1849 1.384 . S
N1853 C1845 1.427 . S
N1853 C1851 1.384 . S
H1854 C1860 0.930 1_554 S
H1855 C1864 0.930 . S
H1856 C1869 0.929 . S
H1857 C1867 0.929 . S
H1858 C1862 0.929 . S
H1859 C1868 0.929 . S
C1860 H1854 0.930 1_556 S
C1860 C1861 1.367 . S
C1860 C1868 1.378 . S
C1861 C1860 1.367 . S
C1861 C1869 1.433 . S
C1862 H1858 0.929 . S
C1862 C1864 1.378 . S
C1862 C1866 1.350 . S
C1863 C1866 1.463 . S
C1863 C1868 1.350 . S
C1863 N1871 1.427 . S
C1864 H1855 0.930 . S
C1864 C1862 1.378 . S
C1864 C1865 1.367 . S
C1865 C1864 1.367 . S
C1865 C1867 1.433 . S
C1866 C1862 1.350 . S
C1866 C1863 1.463 . S
C1866 N1870 1.427 . S
C1867 H1857 0.929 . S
C1867 C1865 1.433 . S
C1867 N1870 1.384 . S
C1868 H1859 0.929 . S
C1868 C1860 1.378 . S
C1868 C1863 1.350 . S
C1869 H1856 0.929 . S
C1869 C1861 1.433 . S
C1869 N1871 1.384 . S
N1870 C1866 1.427 . S
N1870 C1867 1.384 . S
N1871 C1863 1.427 . S
N1871 C1869 1.384 . S
H1872 C1878 0.930 . S
H1873 C1882 0.930 . S
H1874 C1887 0.929 . S
H1875 C1885 0.929 . S
H1876 C1880 0.929 . S
H1877 C1886 0.929 . S
C1878 H1872 0.930 . S
C1878 C1879 1.367 . S
C1878 C1886 1.378 . S
C1879 C1878 1.367 . S
C1879 C1887 1.433 . S
C1880 H1876 0.929 . S
C1880 C1882 1.378 . S
C1880 C1884 1.350 . S
C1881 C1884 1.463 . S
C1881 C1886 1.350 . S
C1881 N1889 1.427 . S
C1882 H1873 0.930 . S
C1882 C1880 1.378 . S
C1882 C1883 1.367 . S
C1883 C1882 1.367 . S
C1883 C1885 1.433 . S
C1884 C1880 1.350 . S
C1884 C1881 1.463 . S
C1884 N1888 1.427 . S
C1885 H1875 0.929 . S
C1885 C1883 1.433 . S
C1885 N1888 1.384 . S
C1886 H1877 0.929 . S
C1886 C1878 1.378 . S
C1886 C1881 1.350 . S
C1887 H1874 0.929 . S
C1887 C1879 1.433 . S
C1887 N1889 1.384 . S
N1888 C1884 1.427 . S
N1888 C1885 1.384 . S
N1889 C1881 1.427 . S
N1889 C1887 1.384 . S
H1890 C1896 0.930 . S
H1891 C1900 0.930 . S
H1892 C1905 0.929 . S
H1893 C1903 0.929 . S
H1894 C1898 0.929 . S
H1895 C1904 0.929 . S
C1896 H1890 0.930 . S
C1896 C1897 1.367 . S
C1896 C1904 1.378 . S
C1897 C1896 1.367 . S
C1897 C1905 1.433 . S
C1898 H1894 0.929 . S
C1898 C1900 1.378 . S
C1898 C1902 1.350 . S
C1899 C1902 1.463 . S
C1899 C1904 1.350 . S
C1899 N1907 1.427 . S
C1900 H1891 0.930 . S
C1900 C1898 1.378 . S
C1900 C1901 1.367 . S
C1901 C1900 1.367 . S
C1901 C1903 1.433 . S
C1902 C1898 1.350 . S
C1902 C1899 1.463 . S
C1902 N1906 1.427 . S
C1903 H1893 0.929 . S
C1903 C1901 1.433 . S
C1903 N1906 1.384 . S
C1904 H1895 0.929 . S
C1904 C1896 1.378 . S
C1904 C1899 1.350 . S
C1905 H1892 0.929 . S
C1905 C1897 1.433 . S
C1905 N1907 1.384 . S
N1906 C1902 1.427 . S
N1906 C1903 1.384 . S
N1907 C1899 1.427 . S
N1907 C1905 1.384 . S
H1908 C1914 0.930 . S
H1909 C1918 0.930 . S
H1910 C1923 0.929 . S
H1911 C1921 0.929 . S
H1912 C1916 0.929 . S
H1913 C1922 0.929 . S
C1914 H1908 0.930 . S
C1914 C1915 1.367 . S
C1914 C1922 1.378 . S
C1915 C1914 1.367 . S
C1915 C1923 1.433 . S
C1916 H1912 0.929 . S
C1916 C1918 1.378 . S
C1916 C1920 1.350 . S
C1917 C1920 1.463 . S
C1917 C1922 1.350 . S
C1917 N1925 1.427 . S
C1918 H1909 0.930 . S
C1918 C1916 1.378 . S
C1918 C1919 1.367 . S
C1919 C1918 1.367 . S
C1919 C1921 1.433 . S
C1920 C1916 1.350 . S
C1920 C1917 1.463 . S
C1920 N1924 1.427 . S
C1921 H1911 0.929 . S
C1921 C1919 1.433 . S
C1921 N1924 1.384 . S
C1922 H1913 0.929 . S
C1922 C1914 1.378 . S
C1922 C1917 1.350 . S
C1923 H1910 0.929 . S
C1923 C1915 1.433 . S
C1923 N1925 1.384 . S
N1924 C1920 1.427 . S
N1924 C1921 1.384 . S
N1925 C1917 1.427 . S
N1925 C1923 1.384 . S
H1926 C1932 0.930 . S
H1927 C1936 0.930 . S
H1928 C1941 0.929 . S
H1929 C1939 0.929 . S
H1930 C1934 0.929 . S
H1931 C1940 0.929 . S
C1932 H1926 0.930 . S
C1932 C1933 1.367 . S
C1932 C1940 1.378 . S
C1933 C1932 1.367 . S
C1933 C1941 1.433 . S
C1934 H1930 0.929 . S
C1934 C1936 1.378 . S
C1934 C1938 1.350 . S
C1935 C1938 1.463 . S
C1935 C1940 1.350 . S
C1935 N1943 1.427 . S
C1936 H1927 0.930 . S
C1936 C1934 1.378 . S
C1936 C1937 1.367 . S
C1937 C1936 1.367 . S
C1937 C1939 1.433 . S
C1938 C1934 1.350 . S
C1938 C1935 1.463 . S
C1938 N1942 1.427 . S
C1939 H1929 0.929 . S
C1939 C1937 1.433 . S
C1939 N1942 1.384 . S
C1940 H1931 0.929 . S
C1940 C1932 1.378 . S
C1940 C1935 1.350 . S
C1941 H1928 0.929 . S
C1941 C1933 1.433 . S
C1941 N1943 1.384 . S
N1942 C1938 1.427 . S
N1942 C1939 1.384 . S
N1943 C1935 1.427 . S
N1943 C1941 1.384 . S
H1944 C1950 0.930 . S
H1945 C1954 0.930 . S
H1946 C1959 0.929 . S
H1947 C1957 0.929 . S
H1948 C1952 0.929 . S
H1949 C1958 0.929 . S
C1950 H1944 0.930 . S
C1950 C1951 1.367 . S
C1950 C1958 1.378 . S
C1951 C1950 1.367 . S
C1951 C1959 1.433 . S
C1952 H1948 0.929 . S
C1952 C1954 1.378 . S
C1952 C1956 1.350 . S
C1953 C1956 1.463 . S
C1953 C1958 1.350 . S
C1953 N1961 1.427 . S
C1954 H1945 0.930 . S
C1954 C1952 1.378 . S
C1954 C1955 1.367 . S
C1955 C1954 1.367 . S
C1955 C1957 1.433 . S
C1956 C1952 1.350 . S
C1956 C1953 1.463 . S
C1956 N1960 1.427 . S
C1957 H1947 0.929 . S
C1957 C1955 1.433 . S
C1957 N1960 1.384 . S
C1958 H1949 0.929 . S
C1958 C1950 1.378 . S
C1958 C1953 1.350 . S
C1959 H1946 0.929 . S
C1959 C1951 1.433 . S
C1959 N1961 1.384 . S
N1960 C1956 1.427 . S
N1960 C1957 1.384 . S
N1961 C1953 1.427 . S
N1961 C1959 1.384 . S
H1962 C1968 0.930 . S
H1963 C1972 0.930 . S
H1964 C1977 0.929 . S
H1965 C1975 0.929 . S
H1966 C1970 0.929 . S
H1967 C1976 0.929 . S
C1968 H1962 0.930 . S
C1968 C1969 1.367 . S
C1968 C1976 1.378 . S
C1969 C1968 1.367 . S
C1969 C1977 1.433 . S
C1970 H1966 0.929 . S
C1970 C1972 1.378 . S
C1970 C1974 1.350 . S
C1971 C1974 1.463 . S
C1971 C1976 1.350 . S
C1971 N1979 1.427 . S
C1972 H1963 0.930 . S
C1972 C1970 1.378 . S
C1972 C1973 1.367 . S
C1973 C1972 1.367 . S
C1973 C1975 1.433 . S
C1974 C1970 1.350 . S
C1974 C1971 1.463 . S
C1974 N1978 1.427 . S
C1975 H1965 0.929 . S
C1975 C1973 1.433 . S
C1975 N1978 1.384 . S
C1976 H1967 0.929 . S
C1976 C1968 1.378 . S
C1976 C1971 1.350 . S
C1977 H1964 0.929 . S
C1977 C1969 1.433 . S
C1977 N1979 1.384 . S
N1978 C1974 1.427 . S
N1978 C1975 1.384 . S
N1979 C1971 1.427 . S
N1979 C1977 1.384 . S
H1980 C1986 0.930 . S
H1981 C1990 0.930 . S
H1982 C1995 0.929 . S
H1983 C1993 0.929 . S
H1984 C1988 0.929 . S
H1985 C1994 0.929 . S
C1986 H1980 0.930 . S
C1986 C1987 1.367 . S
C1986 C1994 1.378 . S
C1987 C1986 1.367 . S
C1987 C1995 1.433 . S
C1988 H1984 0.929 . S
C1988 C1990 1.378 . S
C1988 C1992 1.350 . S
C1989 C1992 1.463 . S
C1989 C1994 1.350 . S
C1989 N1997 1.427 . S
C1990 H1981 0.930 . S
C1990 C1988 1.378 . S
C1990 C1991 1.367 . S
C1991 C1990 1.367 . S
C1991 C1993 1.433 . S
C1992 C1988 1.350 . S
C1992 C1989 1.463 . S
C1992 N1996 1.427 . S
C1993 H1983 0.929 . S
C1993 C1991 1.433 . S
C1993 N1996 1.384 . S
C1994 H1985 0.929 . S
C1994 C1986 1.378 . S
C1994 C1989 1.350 . S
C1995 H1982 0.929 . S
C1995 C1987 1.433 . S
C1995 N1997 1.384 . S
N1996 C1992 1.427 . S
N1996 C1993 1.384 . S
N1997 C1989 1.427 . S
N1997 C1995 1.384 . S
H1998 C2004 0.930 . S
H1999 C2008 0.930 . S
H2000 C2013 0.929 . S
H2001 C2011 0.929 . S
H2002 C2006 0.929 . S
H2003 C2012 0.929 . S
C2004 H1998 0.930 . S
C2004 C2005 1.367 . S
C2004 C2012 1.378 . S
C2005 C2004 1.367 . S
C2005 C2013 1.433 . S
C2006 H2002 0.929 . S
C2006 C2008 1.378 . S
C2006 C2010 1.350 . S
C2007 C2010 1.463 . S
C2007 C2012 1.350 . S
C2007 N2015 1.427 . S
C2008 H1999 0.930 . S
C2008 C2006 1.378 . S
C2008 C2009 1.367 . S
C2009 C2008 1.367 . S
C2009 C2011 1.433 . S
C2010 C2006 1.350 . S
C2010 C2007 1.463 . S
C2010 N2014 1.427 . S
C2011 H2001 0.929 . S
C2011 C2009 1.433 . S
C2011 N2014 1.384 . S
C2012 H2003 0.929 . S
C2012 C2004 1.378 . S
C2012 C2007 1.350 . S
C2013 H2000 0.929 . S
C2013 C2005 1.433 . S
C2013 N2015 1.384 . S
N2014 C2010 1.427 . S
N2014 C2011 1.384 . S
N2015 C2007 1.427 . S
N2015 C2013 1.384 . S
H2016 C2022 0.930 . S
H2017 C2026 0.930 . S
H2018 C2031 0.929 . S
H2019 C2029 0.931 1_655 S
H2020 C2024 0.929 . S
H2021 C2030 0.929 . S
C2022 H2016 0.930 . S
C2022 C2023 1.367 . S
C2022 C2030 1.378 . S
C2023 C2022 1.367 . S
C2023 C2031 1.433 . S
C2024 H2020 0.929 . S
C2024 C2026 1.378 . S
C2024 C2028 1.350 . S
C2025 C2028 1.463 . S
C2025 C2030 1.350 . S
C2025 N2033 1.427 . S
C2026 H2017 0.930 . S
C2026 C2024 1.378 . S
C2026 C2027 1.367 . S
C2027 C2026 1.367 . S
C2027 C2029 1.434 . S
C2028 C2024 1.350 . S
C2028 C2025 1.463 . S
C2028 N2032 1.427 . S
C2029 H2019 0.931 1_455 S
C2029 C2027 1.434 . S
C2029 N2032 1.380 . S
C2030 H2021 0.929 . S
C2030 C2022 1.378 . S
C2030 C2025 1.350 . S
C2031 H2018 0.929 . S
C2031 C2023 1.433 . S
C2031 N2033 1.384 . S
N2032 C2028 1.427 . S
N2032 C2029 1.380 . S
N2033 C2025 1.427 . S
N2033 C2031 1.384 . S
H2034 C2040 0.930 . S
H2035 C2044 0.930 . S
H2036 C2049 0.929 . S
H2037 C2047 0.929 . S
H2038 C2042 0.929 . S
H2039 C2048 0.929 . S
C2040 H2034 0.930 . S
C2040 C2041 1.367 . S
C2040 C2048 1.378 . S
C2041 C2040 1.367 . S
C2041 C2049 1.433 . S
C2042 H2038 0.929 . S
C2042 C2044 1.378 . S
C2042 C2046 1.350 . S
C2043 C2046 1.463 . S
C2043 C2048 1.350 . S
C2043 N2051 1.427 . S
C2044 H2035 0.930 . S
C2044 C2042 1.378 . S
C2044 C2045 1.367 . S
C2045 C2044 1.367 . S
C2045 C2047 1.433 . S
C2046 C2042 1.350 . S
C2046 C2043 1.463 . S
C2046 N2050 1.427 . S
C2047 H2037 0.929 . S
C2047 C2045 1.433 . S
C2047 N2050 1.384 . S
C2048 H2039 0.929 . S
C2048 C2040 1.378 . S
C2048 C2043 1.350 . S
C2049 H2036 0.929 . S
C2049 C2041 1.433 . S
C2049 N2051 1.384 . S
N2050 C2046 1.427 . S
N2050 C2047 1.384 . S
N2051 C2043 1.427 . S
N2051 C2049 1.384 . S
H2052 C2058 0.930 . S
H2053 C2062 0.930 . S
H2054 C2067 0.929 . S
H2055 C2065 0.929 . S
H2056 C2060 0.929 . S
H2057 C2066 0.929 . S
C2058 H2052 0.930 . S
C2058 C2059 1.367 1_545 S
C2058 C2066 1.378 . S
C2059 C2058 1.367 1_565 S
C2059 C2067 1.433 . S
C2060 H2056 0.929 . S
C2060 C2062 1.378 . S
C2060 C2064 1.350 . S
C2061 C2064 1.463 . S
C2061 C2066 1.350 1_565 S
C2061 N2069 1.427 . S
C2062 H2053 0.930 . S
C2062 C2060 1.378 . S
C2062 C2063 1.367 . S
C2063 C2062 1.367 . S
C2063 C2065 1.433 1_565 S
C2064 C2060 1.350 . S
C2064 C2061 1.463 . S
C2064 N2068 1.427 1_565 S
C2065 H2055 0.929 . S
C2065 C2063 1.433 1_545 S
C2065 N2068 1.384 . S
C2066 H2057 0.929 . S
C2066 C2058 1.378 . S
C2066 C2061 1.350 1_545 S
C2067 H2054 0.929 . S
C2067 C2059 1.433 . S
C2067 N2069 1.384 . S
N2068 C2064 1.427 1_545 S
N2068 C2065 1.384 . S
N2069 C2061 1.427 . S
N2069 C2067 1.384 . S
H2070 C2076 0.930 . S
H2071 C2080 0.930 . S
H2072 C2085 0.929 . S
H2073 C2083 0.929 1_545 S
H2074 C2078 0.929 . S
H2075 C2084 0.929 . S
C2076 H2070 0.930 . S
C2076 C2077 1.367 . S
C2076 C2084 1.378 . S
C2077 C2076 1.367 . S
C2077 C2085 1.433 . S
C2078 H2074 0.929 . S
C2078 C2080 1.378 . S
C2078 C2082 1.350 . S
C2079 C2082 1.463 . S
C2079 C2084 1.350 . S
C2079 N2087 1.427 . S
C2080 H2071 0.930 . S
C2080 C2078 1.378 . S
C2080 C2081 1.367 . S
C2081 C2080 1.367 . S
C2081 C2083 1.433 . S
C2082 C2078 1.350 . S
C2082 C2079 1.463 . S
C2082 N2086 1.427 . S
C2083 H2073 0.929 1_565 S
C2083 C2081 1.433 . S
C2083 N2086 1.384 . S
C2084 H2075 0.929 . S
C2084 C2076 1.378 . S
C2084 C2079 1.350 . S
C2085 H2072 0.929 . S
C2085 C2077 1.433 . S
C2085 N2087 1.384 . S
N2086 C2082 1.427 . S
N2086 C2083 1.384 . S
N2087 C2079 1.427 . S
N2087 C2085 1.384 . S
H2088 C2094 0.930 . S
H2089 C2098 0.930 . S
H2090 C2103 0.932 . S
H2091 C2101 0.929 . S
H2092 C2096 0.929 . S
H2093 C2102 0.929 . S
C2094 H2088 0.930 . S
C2094 C2095 1.367 . S
C2094 C2102 1.378 . S
C2095 C2094 1.367 . S
C2095 C2103 1.433 1_455 S
C2096 H2092 0.929 . S
C2096 C2098 1.378 . S
C2096 C2100 1.350 1_655 S
C2097 C2100 1.463 . S
C2097 C2102 1.350 . S
C2097 N2105 1.427 1_455 S
C2098 H2089 0.930 . S
C2098 C2096 1.378 . S
C2098 C2099 1.367 1_655 S
C2099 C2098 1.367 1_455 S
C2099 C2101 1.433 . S
C2100 C2096 1.350 1_455 S
C2100 C2097 1.463 . S
C2100 N2104 1.427 . S
C2101 H2091 0.929 . S
C2101 C2099 1.433 . S
C2101 N2104 1.384 . S
C2102 H2093 0.929 . S
C2102 C2094 1.378 . S
C2102 C2097 1.350 . S
C2103 H2090 0.932 . S
C2103 C2095 1.433 1_655 S
C2103 N2105 1.382 . S
N2104 C2100 1.427 . S
N2104 C2101 1.384 . S
N2105 C2097 1.427 1_655 S
N2105 C2103 1.382 . S
H2106 C2112 0.930 . S
H2107 C2116 0.930 . S
H2108 C2121 0.929 . S
H2109 C2119 0.929 . S
H2110 C2114 0.929 . S
H2111 C2120 0.929 . S
C2112 H2106 0.930 . S
C2112 C2113 1.367 . S
C2112 C2120 1.378 . S
C2113 C2112 1.367 . S
C2113 C2121 1.433 . S
C2114 H2110 0.929 . S
C2114 C2116 1.378 . S
C2114 C2118 1.350 . S
C2115 C2118 1.463 . S
C2115 C2120 1.350 . S
C2115 N2123 1.427 . S
C2116 H2107 0.930 . S
C2116 C2114 1.378 . S
C2116 C2117 1.367 . S
C2117 C2116 1.367 . S
C2117 C2119 1.433 . S
C2118 C2114 1.350 . S
C2118 C2115 1.463 . S
C2118 N2122 1.427 . S
C2119 H2109 0.929 . S
C2119 C2117 1.433 . S
C2119 N2122 1.384 . S
C2120 H2111 0.929 . S
C2120 C2112 1.378 . S
C2120 C2115 1.350 . S
C2121 H2108 0.929 . S
C2121 C2113 1.433 . S
C2121 N2123 1.384 . S
N2122 C2118 1.427 . S
N2122 C2119 1.384 . S
N2123 C2115 1.427 . S
N2123 C2121 1.384 . S
H2124 C2130 0.930 . S
H2125 C2134 0.930 . S
H2126 C2139 0.929 . S
H2127 C2137 0.929 . S
H2128 C2132 0.929 . S
H2129 C2138 0.929 . S
C2130 H2124 0.930 . S
C2130 C2131 1.367 . S
C2130 C2138 1.378 . S
C2131 C2130 1.367 . S
C2131 C2139 1.433 . S
C2132 H2128 0.929 . S
C2132 C2134 1.378 . S
C2132 C2136 1.350 . S
C2133 C2136 1.463 . S
C2133 C2138 1.350 . S
C2133 N2141 1.427 . S
C2134 H2125 0.930 . S
C2134 C2132 1.378 . S
C2134 C2135 1.367 . S
C2135 C2134 1.367 . S
C2135 C2137 1.433 . S
C2136 C2132 1.350 . S
C2136 C2133 1.463 . S
C2136 N2140 1.427 . S
C2137 H2127 0.929 . S
C2137 C2135 1.433 . S
C2137 N2140 1.384 . S
C2138 H2129 0.929 . S
C2138 C2130 1.378 . S
C2138 C2133 1.350 . S
C2139 H2126 0.929 . S
C2139 C2131 1.433 . S
C2139 N2141 1.384 . S
N2140 C2136 1.427 . S
N2140 C2137 1.384 . S
N2141 C2133 1.427 . S
N2141 C2139 1.384 . S
H2142 C2148 0.930 . S
H2143 C2152 0.930 . S
H2144 C2157 0.929 . S
H2145 C2155 0.929 . S
H2146 C2150 0.929 . S
H2147 C2156 0.929 . S
C2148 H2142 0.930 . S
C2148 C2149 1.367 . S
C2148 C2156 1.378 . S
C2149 C2148 1.367 . S
C2149 C2157 1.433 . S
C2150 H2146 0.929 . S
C2150 C2152 1.378 . S
C2150 C2154 1.350 . S
C2151 C2154 1.463 . S
C2151 C2156 1.350 . S
C2151 N2159 1.427 . S
C2152 H2143 0.930 . S
C2152 C2150 1.378 . S
C2152 C2153 1.367 . S
C2153 C2152 1.367 . S
C2153 C2155 1.433 . S
C2154 C2150 1.350 . S
C2154 C2151 1.463 . S
C2154 N2158 1.427 . S
C2155 H2145 0.929 . S
C2155 C2153 1.433 . S
C2155 N2158 1.384 . S
C2156 H2147 0.929 . S
C2156 C2148 1.378 . S
C2156 C2151 1.350 . S
C2157 H2144 0.929 . S
C2157 C2149 1.433 . S
C2157 N2159 1.384 . S
N2158 C2154 1.427 . S
N2158 C2155 1.384 . S
N2159 C2151 1.427 . S
N2159 C2157 1.384 . S
H2160 C2166 0.930 . S
H2161 C2170 0.930 . S
H2162 C2175 0.929 . S
H2163 C2173 0.929 . S
H2164 C2168 0.929 . S
H2165 C2174 0.929 . S
C2166 H2160 0.930 . S
C2166 C2167 1.367 . S
C2166 C2174 1.378 . S
C2167 C2166 1.367 . S
C2167 C2175 1.433 . S
C2168 H2164 0.929 . S
C2168 C2170 1.378 . S
C2168 C2172 1.350 . S
C2169 C2172 1.463 . S
C2169 C2174 1.350 . S
C2169 N2177 1.427 . S
C2170 H2161 0.930 . S
C2170 C2168 1.378 . S
C2170 C2171 1.367 . S
C2171 C2170 1.367 . S
C2171 C2173 1.433 . S
C2172 C2168 1.350 . S
C2172 C2169 1.463 . S
C2172 N2176 1.427 . S
C2173 H2163 0.929 . S
C2173 C2171 1.433 . S
C2173 N2176 1.384 . S
C2174 H2165 0.929 . S
C2174 C2166 1.378 . S
C2174 C2169 1.350 . S
C2175 H2162 0.929 . S
C2175 C2167 1.433 . S
C2175 N2177 1.384 . S
N2176 C2172 1.427 . S
N2176 C2173 1.384 . S
N2177 C2169 1.427 . S
N2177 C2175 1.384 . S
H2178 C2184 0.930 . S
H2179 C2188 0.939 . S
H2180 C2193 0.929 . S
H2181 C2191 0.929 . S
H2182 C2186 0.929 1_565 S
H2183 C2192 0.929 . S
C2184 H2178 0.930 . S
C2184 C2185 1.367 . S
C2184 C2192 1.378 . S
C2185 C2184 1.367 . S
C2185 C2193 1.433 . S
C2186 H2182 0.929 1_545 S
C2186 C2188 1.371 1_545 S
C2186 C2190 1.350 . S
C2187 C2190 1.463 . S
C2187 C2192 1.350 . S
C2187 N2195 1.427 . S
C2188 H2179 0.939 . S
C2188 C2186 1.371 1_565 S
C2188 C2189 1.365 1_565 S
C2189 C2188 1.365 1_545 S
C2189 C2191 1.433 . S
C2190 C2186 1.350 . S
C2190 C2187 1.463 . S
C2190 N2194 1.427 . S
C2191 H2181 0.929 . S
C2191 C2189 1.433 . S
C2191 N2194 1.384 . S
C2192 H2183 0.929 . S
C2192 C2184 1.378 . S
C2192 C2187 1.350 . S
C2193 H2180 0.929 . S
C2193 C2185 1.433 . S
C2193 N2195 1.384 . S
N2194 C2190 1.427 . S
N2194 C2191 1.384 . S
N2195 C2187 1.427 . S
N2195 C2193 1.384 . S
H2196 C2202 0.930 . S
H2197 C2206 0.953 1_455 S
H2198 C2211 0.929 . S
H2199 C2209 0.929 . S
H2200 C2204 0.929 . S
H2201 C2210 0.929 . S
C2202 H2196 0.930 . S
C2202 C2203 1.367 . S
C2202 C2210 1.378 . S
C2203 C2202 1.367 . S
C2203 C2211 1.433 . S
C2204 H2200 0.929 . S
C2204 C2206 1.378 . S
C2204 C2208 1.350 . S
C2205 C2208 1.463 . S
C2205 C2210 1.350 . S
C2205 N2213 1.427 . S
C2206 H2197 0.953 1_655 S
C2206 C2204 1.378 . S
C2206 C2207 1.367 . S
C2207 C2206 1.367 . S
C2207 C2209 1.433 . S
C2208 C2204 1.350 . S
C2208 C2205 1.463 . S
C2208 N2212 1.427 . S
C2209 H2199 0.929 . S
C2209 C2207 1.433 . S
C2209 N2212 1.384 . S
C2210 H2201 0.929 . S
C2210 C2202 1.378 . S
C2210 C2205 1.350 . S
C2211 H2198 0.929 . S
C2211 C2203 1.433 . S
C2211 N2213 1.384 . S
N2212 C2208 1.427 . S
N2212 C2209 1.384 . S
N2213 C2205 1.427 . S
N2213 C2211 1.384 . S
H2214 C2220 0.930 . S
H2215 C2224 0.930 . S
H2216 C2229 0.929 . S
H2217 C2227 0.929 . S
H2218 C2222 0.929 . S
H2219 C2228 0.929 . S
C2220 H2214 0.930 . S
C2220 C2221 1.367 . S
C2220 C2228 1.378 . S
C2221 C2220 1.367 . S
C2221 C2229 1.433 . S
C2222 H2218 0.929 . S
C2222 C2224 1.378 . S
C2222 C2226 1.350 . S
C2223 C2226 1.463 . S
C2223 C2228 1.350 . S
C2223 N2231 1.427 . S
C2224 H2215 0.930 . S
C2224 C2222 1.378 . S
C2224 C2225 1.367 . S
C2225 C2224 1.367 . S
C2225 C2227 1.433 . S
C2226 C2222 1.350 . S
C2226 C2223 1.463 . S
C2226 N2230 1.427 . S
C2227 H2217 0.929 . S
C2227 C2225 1.433 . S
C2227 N2230 1.384 . S
C2228 H2219 0.929 . S
C2228 C2220 1.378 . S
C2228 C2223 1.350 . S
C2229 H2216 0.929 . S
C2229 C2221 1.433 . S
C2229 N2231 1.384 . S
N2230 C2226 1.427 . S
N2230 C2227 1.384 . S
N2231 C2223 1.427 . S
N2231 C2229 1.384 . S
H2232 C2238 0.930 . S
H2233 C2242 0.930 . S
H2234 C2247 0.929 . S
H2235 C2245 0.929 . S
H2236 C2240 0.929 . S
H2237 C2246 0.929 . S
C2238 H2232 0.930 . S
C2238 C2239 1.367 . S
C2238 C2246 1.378 . S
C2239 C2238 1.367 . S
C2239 C2247 1.433 . S
C2240 H2236 0.929 . S
C2240 C2242 1.378 . S
C2240 C2244 1.350 . S
C2241 C2244 1.463 . S
C2241 C2246 1.350 . S
C2241 N2249 1.427 . S
C2242 H2233 0.930 . S
C2242 C2240 1.378 . S
C2242 C2243 1.367 . S
C2243 C2242 1.367 . S
C2243 C2245 1.433 . S
C2244 C2240 1.350 . S
C2244 C2241 1.463 . S
C2244 N2248 1.427 . S
C2245 H2235 0.929 . S
C2245 C2243 1.433 . S
C2245 N2248 1.384 . S
C2246 H2237 0.929 . S
C2246 C2238 1.378 . S
C2246 C2241 1.350 . S
C2247 H2234 0.929 . S
C2247 C2239 1.433 . S
C2247 N2249 1.384 . S
N2248 C2244 1.427 . S
N2248 C2245 1.384 . S
N2249 C2241 1.427 . S
N2249 C2247 1.384 . S
H2250 C2256 0.930 . S
H2251 C2260 0.930 . S
H2252 C2265 0.929 . S
H2253 C2263 0.929 . S
H2254 C2258 0.929 . S
H2255 C2264 0.929 . S
C2256 H2250 0.930 . S
C2256 C2257 1.367 . S
C2256 C2264 1.378 . S
C2257 C2256 1.367 . S
C2257 C2265 1.433 . S
C2258 H2254 0.929 . S
C2258 C2260 1.378 . S
C2258 C2262 1.350 . S
C2259 C2262 1.463 . S
C2259 C2264 1.350 . S
C2259 N2267 1.427 . S
C2260 H2251 0.930 . S
C2260 C2258 1.378 . S
C2260 C2261 1.367 . S
C2261 C2260 1.367 . S
C2261 C2263 1.433 . S
C2262 C2258 1.350 . S
C2262 C2259 1.463 . S
C2262 N2266 1.427 . S
C2263 H2253 0.929 . S
C2263 C2261 1.433 . S
C2263 N2266 1.384 . S
C2264 H2255 0.929 . S
C2264 C2256 1.378 . S
C2264 C2259 1.350 . S
C2265 H2252 0.929 . S
C2265 C2257 1.433 . S
C2265 N2267 1.384 . S
N2266 C2262 1.427 . S
N2266 C2263 1.384 . S
N2267 C2259 1.427 . S
N2267 C2265 1.384 . S
H2268 C2274 0.930 . S
H2269 C2278 0.930 . S
H2270 C2283 0.929 . S
H2271 C2281 0.929 . S
H2272 C2276 0.929 . S
H2273 C2282 0.929 . S
C2274 H2268 0.930 . S
C2274 C2275 1.367 . S
C2274 C2282 1.378 . S
C2275 C2274 1.367 . S
C2275 C2283 1.433 . S
C2276 H2272 0.929 . S
C2276 C2278 1.378 . S
C2276 C2280 1.350 . S
C2277 C2280 1.463 . S
C2277 C2282 1.350 . S
C2277 N2285 1.427 . S
C2278 H2269 0.930 . S
C2278 C2276 1.378 . S
C2278 C2279 1.367 . S
C2279 C2278 1.367 . S
C2279 C2281 1.433 . S
C2280 C2276 1.350 . S
C2280 C2277 1.463 . S
C2280 N2284 1.427 . S
C2281 H2271 0.929 . S
C2281 C2279 1.433 . S
C2281 N2284 1.384 . S
C2282 H2273 0.929 . S
C2282 C2274 1.378 . S
C2282 C2277 1.350 . S
C2283 H2270 0.929 . S
C2283 C2275 1.433 . S
C2283 N2285 1.384 . S
N2284 C2280 1.427 . S
N2284 C2281 1.384 . S
N2285 C2277 1.427 . S
N2285 C2283 1.384 . S
H2286 C2292 0.930 . S
H2287 C2296 0.930 . S
H2288 C2301 0.929 . S
H2289 C2299 0.929 . S
H2290 C2294 0.929 . S
H2291 C2300 0.929 . S
C2292 H2286 0.930 . S
C2292 C2293 1.367 . S
C2292 C2300 1.378 . S
C2293 C2292 1.367 . S
C2293 C2301 1.433 . S
C2294 H2290 0.929 . S
C2294 C2296 1.378 . S
C2294 C2298 1.350 . S
C2295 C2298 1.463 . S
C2295 C2300 1.350 . S
C2295 N2303 1.427 . S
C2296 H2287 0.930 . S
C2296 C2294 1.378 . S
C2296 C2297 1.367 . S
C2297 C2296 1.367 . S
C2297 C2299 1.433 . S
C2298 C2294 1.350 . S
C2298 C2295 1.463 . S
C2298 N2302 1.427 . S
C2299 H2289 0.929 . S
C2299 C2297 1.433 . S
C2299 N2302 1.384 . S
C2300 H2291 0.929 . S
C2300 C2292 1.378 . S
C2300 C2295 1.350 . S
C2301 H2288 0.929 . S
C2301 C2293 1.433 . S
C2301 N2303 1.384 . S
N2302 C2298 1.427 . S
N2302 C2299 1.384 . S
N2303 C2295 1.427 . S
N2303 C2301 1.384 . S
H2304 C2310 0.930 . S
H2305 C2314 0.930 . S
H2306 C2319 0.929 . S
H2307 C2317 0.929 . S
H2308 C2312 0.929 . S
H2309 C2318 0.929 . S
C2310 H2304 0.930 . S
C2310 C2311 1.367 . S
C2310 C2318 1.378 . S
C2311 C2310 1.367 . S
C2311 C2319 1.433 . S
C2312 H2308 0.929 . S
C2312 C2314 1.378 . S
C2312 C2316 1.350 . S
C2313 C2316 1.463 . S
C2313 C2318 1.350 . S
C2313 N2321 1.427 . S
C2314 H2305 0.930 . S
C2314 C2312 1.378 . S
C2314 C2315 1.367 . S
C2315 C2314 1.367 . S
C2315 C2317 1.433 . S
C2316 C2312 1.350 . S
C2316 C2313 1.463 . S
C2316 N2320 1.427 . S
C2317 H2307 0.929 . S
C2317 C2315 1.433 . S
C2317 N2320 1.384 . S
C2318 H2309 0.929 . S
C2318 C2310 1.378 . S
C2318 C2313 1.350 . S
C2319 H2306 0.929 . S
C2319 C2311 1.433 . S
C2319 N2321 1.384 . S
N2320 C2316 1.427 . S
N2320 C2317 1.384 . S
N2321 C2313 1.427 . S
N2321 C2319 1.384 . S
H2322 C2328 0.930 . S
H2323 C2332 0.930 . S
H2324 C2337 0.929 . S
H2325 C2335 0.929 . S
H2326 C2330 0.929 . S
H2327 C2336 0.929 . S
C2328 H2322 0.930 . S
C2328 C2329 1.367 . S
C2328 C2336 1.378 . S
C2329 C2328 1.367 . S
C2329 C2337 1.433 . S
C2330 H2326 0.929 . S
C2330 C2332 1.378 . S
C2330 C2334 1.350 . S
C2331 C2334 1.463 . S
C2331 C2336 1.350 . S
C2331 N2339 1.427 . S
C2332 H2323 0.930 . S
C2332 C2330 1.378 . S
C2332 C2333 1.367 . S
C2333 C2332 1.367 . S
C2333 C2335 1.433 . S
C2334 C2330 1.350 . S
C2334 C2331 1.463 . S
C2334 N2338 1.427 . S
C2335 H2325 0.929 . S
C2335 C2333 1.433 . S
C2335 N2338 1.384 . S
C2336 H2327 0.929 . S
C2336 C2328 1.378 . S
C2336 C2331 1.350 . S
C2337 H2324 0.929 . S
C2337 C2329 1.433 . S
C2337 N2339 1.384 . S
N2338 C2334 1.427 . S
N2338 C2335 1.384 . S
N2339 C2331 1.427 . S
N2339 C2337 1.384 . S
H2340 C2346 0.930 . S
H2341 C2350 0.930 . S
H2342 C2355 0.929 1_455 S
H2343 C2353 0.929 . S
H2344 C2348 0.929 . S
H2345 C2354 0.929 . S
C2346 H2340 0.930 . S
C2346 C2347 1.367 . S
C2346 C2354 1.378 . S
C2347 C2346 1.367 . S
C2347 C2355 1.433 . S
C2348 H2344 0.929 . S
C2348 C2350 1.378 . S
C2348 C2352 1.350 1_455 S
C2349 C2352 1.463 . S
C2349 C2354 1.350 . S
C2349 N2357 1.427 . S
C2350 H2341 0.930 . S
C2350 C2348 1.378 . S
C2350 C2351 1.367 1_455 S
C2351 C2350 1.367 1_655 S
C2351 C2353 1.433 . S
C2352 C2348 1.350 1_655 S
C2352 C2349 1.463 . S
C2352 N2356 1.427 . S
C2353 H2343 0.929 . S
C2353 C2351 1.433 . S
C2353 N2356 1.384 . S
C2354 H2345 0.929 . S
C2354 C2346 1.378 . S
C2354 C2349 1.350 . S
C2355 H2342 0.929 1_655 S
C2355 C2347 1.433 . S
C2355 N2357 1.384 . S
N2356 C2352 1.427 . S
N2356 C2353 1.384 . S
N2357 C2349 1.427 . S
N2357 C2355 1.384 . S
H2358 C2364 0.930 . S
H2359 C2368 0.930 . S
H2360 C2373 0.929 . S
H2361 C2371 0.929 . S
H2362 C2366 0.929 . S
H2363 C2372 0.929 . S
C2364 H2358 0.930 . S
C2364 C2365 1.367 . S
C2364 C2372 1.378 . S
C2365 C2364 1.367 . S
C2365 C2373 1.433 . S
C2366 H2362 0.929 . S
C2366 C2368 1.378 . S
C2366 C2370 1.350 . S
C2367 C2370 1.463 . S
C2367 C2372 1.350 . S
C2367 N2375 1.427 . S
C2368 H2359 0.930 . S
C2368 C2366 1.378 . S
C2368 C2369 1.367 . S
C2369 C2368 1.367 . S
C2369 C2371 1.433 . S
C2370 C2366 1.350 . S
C2370 C2367 1.463 . S
C2370 N2374 1.427 . S
C2371 H2361 0.929 . S
C2371 C2369 1.433 . S
C2371 N2374 1.384 . S
C2372 H2363 0.929 . S
C2372 C2364 1.378 . S
C2372 C2367 1.350 . S
C2373 H2360 0.929 . S
C2373 C2365 1.433 . S
C2373 N2375 1.384 . S
N2374 C2370 1.427 . S
N2374 C2371 1.384 . S
N2375 C2367 1.427 . S
N2375 C2373 1.384 . S
H2376 C2382 1.001 . S
H2377 C2386 0.930 . S
H2378 C2391 0.929 . S
H2379 C2389 0.929 . S
H2380 C2384 0.929 . S
H2381 C2390 0.929 . S
C2382 H2376 1.001 . S
C2382 C2383 1.321 1_565 S
C2382 C2390 1.355 . S
C2383 C2382 1.321 1_545 S
C2383 C2391 1.433 . S
C2384 H2380 0.929 . S
C2384 C2386 1.378 . S
C2384 C2388 1.350 . S
C2385 C2388 1.463 . S
C2385 C2390 1.350 1_545 S
C2385 N2393 1.427 . S
C2386 H2377 0.930 . S
C2386 C2384 1.378 . S
C2386 C2387 1.367 . S
C2387 C2386 1.367 . S
C2387 C2389 1.433 1_545 S
C2388 C2384 1.350 . S
C2388 C2385 1.463 . S
C2388 N2392 1.427 1_545 S
C2389 H2379 0.929 . S
C2389 C2387 1.433 1_565 S
C2389 N2392 1.384 . S
C2390 H2381 0.929 . S
C2390 C2382 1.355 . S
C2390 C2385 1.350 1_565 S
C2391 H2378 0.929 . S
C2391 C2383 1.433 . S
C2391 N2393 1.384 . S
N2392 C2388 1.427 1_565 S
N2392 C2389 1.384 . S
N2393 C2385 1.427 . S
N2393 C2391 1.384 . S
C1105 C8 1.432 . S
C1109 C711 1.481 . S
C1123 C18 1.489 . S
C1127 C759 1.532 . S
C1145 C807 1.512 . S
C1141 C31 1.434 . S
C1159 C34 1.438 1_565 S
C1163 C831 1.511 . S
C1177 C5 1.450 . S
C1181 C903 1.513 . S
C1195 C21 1.497 . S
C1199 C951 1.555 . S
C1213 C47 1.415 . S
C1217 C879 1.488 . S
C1235 C927 1.539 . S
C1231 C57 1.490 . S
C1253 C855 1.526 . S
C1249 C70 1.474 . S
C1267 C73 1.418 . S
C1271 C783 1.487 . S
C1289 C687 1.531 . S
C1285 C44 1.466 . S
C1303 C60 1.506 . S
C1307 C735 1.554 . S
C1321 C86 1.565 . S
C1325 C999 1.621 . S
C1339 C96 1.546 . S
C1343 C1047 1.574 . S
C1361 C1071 1.621 . S
C1357 C109 1.607 . S
C1375 C112 1.593 . S
C1379 C255 1.616 . S
C1393 C83 1.601 . S
C1397 C327 1.628 . S
C1411 C99 1.566 . S
C1415 C375 1.594 . S
C1429 C125 1.515 . S
C1433 C303 1.552 . S
C1447 C135 1.541 . S
C1451 C351 1.587 . S
C1469 C279 1.603 . S
C1465 C148 1.596 . S
C1487 C1095 1.652 . S
C1483 C151 1.642 . S
C1505 C975 1.607 . S
C1501 C122 1.586 . S
C1523 C1023 1.623 . S
C1519 C138 1.591 . S
C1537 C164 1.516 . S
C1541 C423 1.555 . S
C1555 C174 1.535 . S
C1559 C471 1.571 . S
C1573 C187 1.592 . S
C1577 C495 1.623 . S
C1591 C190 1.650 . S
C1595 C543 1.672 . S
C1613 C615 1.623 . S
C1609 C161 1.603 . S
C1631 C663 1.628 . S
C1627 C177 1.581 . S
C1649 C591 1.632 . S
C1645 C203 1.587 . S
C1667 C639 1.593 . S
C1663 C213 1.562 . S
C1681 C226 1.594 . S
C1685 C567 1.589 . S
C1703 C519 1.586 . S
C1699 C229 1.571 . S
C1717 C200 1.594 . S
C1721 C399 1.630 . S
C1739 C447 1.610 . S
C1735 C216 1.563 . S
C1757 C264 1.487 . S
C1753 C0 1.421 . S
C1771 C23 1.418 . S
C1775 C318 1.387 . S
C1793 C366 1.459 . S
C1789 C36 1.492 . S
C1811 C414 1.490 . S
C1807 C26 1.448 . S
C1829 C462 1.431 . S
C1825 C10 1.484 . S
C1847 C504 1.440 . S
C1843 C13 1.378 . S
C1861 C39 1.426 . S
C1865 C510 1.488 . S
C1879 C62 1.410 . S
C1883 C408 1.376 . S
C1897 C75 1.457 . S
C1901 C456 1.410 . S
C1915 C65 1.476 . S
C1919 C312 1.508 . S
C1937 C360 1.412 . S
C1933 C49 1.464 . S
C1951 C52 1.389 . S
C1955 C270 1.436 . S
C1973 C552 1.458 . S
C1969 C78 1.406 . S
C1987 C101 1.513 . S
C1991 C606 1.479 . S
C2005 C114 1.525 . S
C2009 C654 1.503 . S
C2027 C702 1.312 . S
C2023 C104 1.284 . S
C2041 C88 1.415 . S
C2045 C750 1.392 . S
C2059 C91 1.206 . S
C2063 C798 1.226 . S
C2077 C117 1.245 . S
C2081 C792 1.257 . S
C2095 C140 1.263 . S
C2099 C696 1.267 . S
C2117 C744 1.399 . S
C2113 C153 1.431 . S
C2131 C143 1.421 . S
C2135 C600 1.441 . S
C2149 C127 1.520 . S
C2153 C648 1.479 . S
C2171 C558 1.515 . S
C2167 C130 1.480 . S
C2189 C840 1.282 . S
C2185 C156 1.258 . S
C2203 C179 1.256 . S
C2207 C894 1.260 . S
C2221 C192 1.431 . S
C2225 C942 1.408 . S
C2243 C990 1.441 . S
C2239 C182 1.407 . S
C2261 C1038 1.488 . S
C2257 C166 1.519 . S
C2275 C169 1.480 . S
C2279 C1080 1.528 . S
C2293 C195 1.420 . S
C2297 C1086 1.460 . S
C2311 C218 1.507 . S
C2315 C984 1.460 . S
C2333 C1032 1.471 . S
C2329 C231 1.501 . S
C2351 C888 1.291 . S
C2347 C221 1.273 . S
C2369 C936 1.384 . S
C2365 C205 1.424 . S
C2383 C208 1.223 . S
C2387 C846 1.252 . S
