# Generated by pormake.
# Topology ssa, (4,4)-cn, num edge types: 1
# Building blocks:
#     Node 0, Type 0, BuildingBlock: KOZSID_clean_sbu_0, # of connection points: 4
#     Node 1, Type 0, BuildingBlock: KOZSID_clean_sbu_0, # of connection points: 4
#     Node 2, Type 0, BuildingBlock: KOZSID_clean_sbu_0, # of connection points: 4
#     Node 3, Type 0, BuildingBlock: KOZSID_clean_sbu_0, # of connection points: 4
#     Node 4, Type 0, BuildingBlock: KOZSID_clean_sbu_0, # of connection points: 4
#     Node 5, Type 0, BuildingBlock: KOZSID_clean_sbu_0, # of connection points: 4
#     Node 6, Type 1, BuildingBlock: GIZVER_clean_linker_0, # of connection points: 4
#     Node 7, Type 1, BuildingBlock: GIZVER_clean_linker_0, # of connection points: 4
#     Node 8, Type 1, BuildingBlock: GIZVER_clean_linker_0, # of connection points: 4
#     Node 9, Type 1, BuildingBlock: GIZVER_clean_linker_0, # of connection points: 4
#     Node 10, Type 1, BuildingBlock: GIZVER_clean_linker_0, # of connection points: 4
#     Node 11, Type 1, BuildingBlock: GIZVER_clean_linker_0, # of connection points: 4
#     Edge 12, Type (0, 1), BuildingBlock: KIFKEQ_clean_linker_1, # of connection points: 2
#     Edge 13, Type (0, 1), BuildingBlock: KIFKEQ_clean_linker_1, # of connection points: 2
#     Edge 14, Type (0, 1), BuildingBlock: KIFKEQ_clean_linker_1, # of connection points: 2
#     Edge 15, Type (0, 1), BuildingBlock: KIFKEQ_clean_linker_1, # of connection points: 2
#     Edge 16, Type (0, 1), BuildingBlock: KIFKEQ_clean_linker_1, # of connection points: 2
#     Edge 17, Type (0, 1), BuildingBlock: KIFKEQ_clean_linker_1, # of connection points: 2
#     Edge 18, Type (0, 1), BuildingBlock: KIFKEQ_clean_linker_1, # of connection points: 2
#     Edge 19, Type (0, 1), BuildingBlock: KIFKEQ_clean_linker_1, # of connection points: 2
#     Edge 20, Type (0, 1), BuildingBlock: KIFKEQ_clean_linker_1, # of connection points: 2
#     Edge 21, Type (0, 1), BuildingBlock: KIFKEQ_clean_linker_1, # of connection points: 2
#     Edge 22, Type (0, 1), BuildingBlock: KIFKEQ_clean_linker_1, # of connection points: 2
#     Edge 23, Type (0, 1), BuildingBlock: KIFKEQ_clean_linker_1, # of connection points: 2
#     Edge 24, Type (0, 1), BuildingBlock: KIFKEQ_clean_linker_1, # of connection points: 2
#     Edge 25, Type (0, 1), BuildingBlock: KIFKEQ_clean_linker_1, # of connection points: 2
#     Edge 26, Type (0, 1), BuildingBlock: KIFKEQ_clean_linker_1, # of connection points: 2
#     Edge 27, Type (0, 1), BuildingBlock: KIFKEQ_clean_linker_1, # of connection points: 2
#     Edge 28, Type (0, 1), BuildingBlock: KIFKEQ_clean_linker_1, # of connection points: 2
#     Edge 29, Type (0, 1), BuildingBlock: KIFKEQ_clean_linker_1, # of connection points: 2
#     Edge 30, Type (0, 1), BuildingBlock: KIFKEQ_clean_linker_1, # of connection points: 2
#     Edge 31, Type (0, 1), BuildingBlock: KIFKEQ_clean_linker_1, # of connection points: 2
#     Edge 32, Type (0, 1), BuildingBlock: KIFKEQ_clean_linker_1, # of connection points: 2
#     Edge 33, Type (0, 1), BuildingBlock: KIFKEQ_clean_linker_1, # of connection points: 2
#     Edge 34, Type (0, 1), BuildingBlock: KIFKEQ_clean_linker_1, # of connection points: 2
#     Edge 35, Type (0, 1), BuildingBlock: KIFKEQ_clean_linker_1, # of connection points: 2
# Relax obj value: 0.004
# Max RMSD: 0.034
# Mean RMSD: 0.019
data_MOF--net-ssa--node1-KOZSID_clean_sbu_0--node2-GIZVER_clean_linker_0--edge1-KIFKEQ_clean_linker_1
_symmetry_space_group_name_H-M    P1
_symmetry_Int_Tables_number       1
_symmetry_cell_setting            triclinic
loop_
_symmetry_equiv_pos_as_xyz
'x, y, z'
_cell_length_a     59.992319
_cell_length_b     61.425854
_cell_length_c     32.851203
_cell_angle_alpha  86.742053
_cell_angle_beta   89.944015
_cell_angle_gamma 122.32193
loop_
_atom_site_label
_atom_site_type_symbol
_atom_site_fract_x
_atom_site_fract_y
_atom_site_fract_z
_atom_type_partial_charge
C0 C 0.95913 0.50991 0.0235 0.0
C1 C 0.94052 0.50427 0.05417 0.0
C2 C 0.94529 0.4923 0.08611 0.0
C3 C 0.96637 0.4912 0.07316 0.0
N4 N 0.97573 0.50223 0.03513 0.0
Co5 Co 0.00471 0.503 0.0031 0.0
N6 N 0.00943 0.4824 0.04804 0.0
C7 C 0.99557 0.47293 0.08404 0.0
C8 C 0.00412 0.46061 0.10949 0.0
C9 C 0.02503 0.46276 0.08888 0.0
C10 C 0.028 0.4763 0.05188 0.0
N11 N 0.03363 0.50375 0.97102 0.0
C12 C 0.04999 0.49577 0.98245 0.0
C13 C 0.0683 0.50093 0.95161 0.0
C14 C 0.06371 0.51312 0.91975 0.0
C15 C 0.04293 0.51466 0.93292 0.0
N16 N 1.00004 0.52363 0.95821 0.0
C17 C 0.01414 0.53343 0.92244 0.0
C18 C 0.0058 0.54605 0.89726 0.0
C19 C 0.98474 0.54369 0.91775 0.0
C20 C 0.98139 0.52959 0.9543 0.0
N21 N 0.0316 0.5354 0.02763 0.0
C22 C 0.07246 0.57938 0.0632 0.0
C23 C 0.07163 0.57798 0.02096 0.0
C24 C 0.05128 0.55592 0.00397 0.0
C25 C 0.05206 0.55884 0.08728 0.0
C26 C 0.03184 0.53737 0.069 0.0
N27 N 0.97782 0.47063 0.97855 0.0
C28 C 0.95689 0.44761 0.91879 0.0
C29 C 0.93667 0.42692 0.94288 0.0
C30 C 0.93789 0.42799 0.98518 0.0
C31 C 0.95839 0.44992 0.00225 0.0
C32 C 0.97726 0.46894 0.9371 0.0
H33 H 0.95776 0.44986 0.03461 0.0
H34 H 0.99209 0.48399 0.91702 0.0
H35 H 0.05224 0.55578 0.97169 0.0
H36 H 0.01685 0.52245 0.08906 0.0
C37 C 0.97604 0.47773 0.09429 0.0
C38 C 0.95908 0.52076 0.98284 0.0
C39 C 0.04991 0.4846 0.0228 0.0
C40 C 0.0335 0.52841 0.91195 0.0
H41 H 0.92455 0.5076 0.05314 0.0
H42 H 0.93396 0.48428 0.11464 0.0
H43 H 0.99669 0.452 0.14003 0.0
H44 H 0.03725 0.4559 0.10035 0.0
H45 H 0.08384 0.49697 0.95259 0.0
H46 H 0.0749 0.52089 0.89106 0.0
H47 H 0.01343 0.55496 0.86692 0.0
H48 H 0.97261 0.55073 0.90652 0.0
H49 H 0.08706 0.59347 0.00113 0.0
H50 H 0.05168 0.55934 0.12018 0.0
H51 H 0.95698 0.44737 0.88584 0.0
H52 H 0.92262 0.41233 0.00502 0.0
C53 C 0.54967 0.0298 0.55852 0.0
C54 C 0.55587 0.02783 0.5987 0.0
C55 C 0.53373 0.00724 0.61757 0.0
C56 C 0.51537 0.99789 0.58796 0.0
N57 N 0.52459 0.0109 0.55105 0.0
Co58 Co 0.50406 0.00513 0.50031 0.0
N59 N 0.47084 0.97617 0.52883 0.0
C60 C 0.468 0.96667 0.56796 0.0
C61 C 0.4433 0.94563 0.5781 0.0
C62 C 0.42966 0.94105 0.54312 0.0
C63 C 0.44692 0.95968 0.51365 0.0
N64 N 0.48333 1.00003 0.44999 0.0
C65 C 0.45795 0.98178 0.44281 0.0
C66 C 0.45131 0.98493 0.40343 0.0
C67 C 0.47346 0.00566 0.38477 0.0
C68 C 0.49225 0.014 0.41376 0.0
N69 N 0.53747 0.03348 0.4714 0.0
C70 C 0.54074 0.04171 0.43151 0.0
C71 C 0.56583 0.06189 0.42078 0.0
C72 C 0.5793 0.06712 0.45603 0.0
C73 C 0.56155 0.04977 0.48631 0.0
N74 N 0.51218 0.97935 0.48372 0.0
C75 C 0.51748 0.93912 0.45889 0.0
C76 C 0.51803 0.9571 0.43034 0.0
C77 C 0.51578 0.97711 0.44331 0.0
C78 C 0.51549 0.94222 0.50019 0.0
C79 C 0.51271 0.96225 0.51187 0.0
N80 N 0.49581 0.0308 0.5168 0.0
C81 C 0.49672 0.07039 0.50248 0.0
C82 C 0.48642 0.06857 0.54155 0.0
C83 C 0.48052 0.04728 0.56778 0.0
C84 C 0.48533 0.02881 0.55492 0.0
C85 C 0.50113 0.05142 0.49079 0.0
H86 H 0.48076 0.01328 0.57658 0.0
H87 H 0.50909 0.05403 0.46066 0.0
H88 H 0.51649 0.99021 0.41995 0.0
H89 H 0.51043 0.9631 0.54377 0.0
C90 C 0.48913 0.97747 0.59406 0.0
C91 C 0.56785 0.05069 0.52921 0.0
C92 C 0.44014 0.96007 0.47119 0.0
C93 C 0.5191 0.03254 0.40642 0.0
H94 H 0.57434 0.04036 0.61305 0.0
H95 H 0.53112 1.00031 0.64932 0.0
H96 H 0.43625 0.93456 0.60718 0.0
H97 H 0.40949 0.92543 0.5394 0.0
H98 H 0.43264 0.9729 0.38927 0.0
H99 H 0.47591 0.01301 0.35327 0.0
H100 H 0.57309 0.07241 0.39131 0.0
H101 H 0.5996 0.08253 0.45943 0.0
H102 H 0.52006 0.95565 0.39798 0.0
H103 H 0.51511 0.92872 0.52332 0.0
H104 H 0.50132 0.08635 0.48085 0.0
H105 H 0.47281 0.04513 0.59857 0.0
C106 C 0.55684 0.52955 0.95332 0.0
C107 C 0.56873 0.54345 0.91656 0.0
C108 C 0.5499 0.54503 0.89577 0.0
C109 C 0.52774 0.53217 0.92102 0.0
N110 N 0.53144 0.52296 0.95707 0.0
Co111 Co 0.50442 0.50231 0.00222 0.0
N112 N 0.47587 0.50179 0.9697 0.0
C113 C 0.47815 0.51203 0.9312 0.0
C114 C 0.45526 0.50931 0.91755 0.0
C115 C 0.43742 0.4971 0.94955 0.0
C116 C 0.45059 0.4932 0.98099 0.0
N117 N 0.47734 0.48173 0.04744 0.0
C118 C 0.45198 0.47536 0.05142 0.0
C119 C 0.44056 0.46241 0.089 0.0
C120 C 0.45941 0.4608 0.10959 0.0
C121 C 0.48123 0.47291 0.08373 0.0
N122 N 0.53304 0.50277 0.03463 0.0
C123 C 0.53063 0.49221 0.07292 0.0
C124 C 0.55322 0.49411 0.08612 0.0
C125 C 0.57101 0.50611 0.05406 0.0
C126 C 0.5582 0.51096 0.02309 0.0
N127 N 0.51215 0.53473 0.02565 0.0
C128 C 0.52033 0.57956 0.05972 0.0
C129 C 0.5195 0.55972 0.08412 0.0
C130 C 0.5155 0.53775 0.06664 0.0
C131 C 0.51733 0.57668 0.01783 0.0
C132 C 0.51334 0.55435 0.0016 0.0
N133 N 0.4968 0.46996 0.97874 0.0
C134 C 0.49284 0.42855 0.98616 0.0
C135 C 0.49182 0.42666 0.94395 0.0
C136 C 0.49215 0.44628 0.91969 0.0
C137 C 0.49456 0.46748 0.93753 0.0
C138 C 0.49524 0.45015 0.00278 0.0
H139 H 0.49507 0.48185 0.9172 0.0
H140 H 0.49638 0.45064 0.03507 0.0
H141 H 0.51481 0.5233 0.08704 0.0
H142 H 0.51105 0.55335 0.96954 0.0
C143 C 0.50265 0.52626 0.9102 0.0
C144 C 0.5699 0.52145 0.98222 0.0
C145 C 0.43884 0.48308 0.02189 0.0
C146 C 0.50623 0.47846 0.09412 0.0
H147 H 0.58867 0.55085 0.90538 0.0
H148 H 0.55182 0.55356 0.8652 0.0
H149 H 0.45222 0.51636 0.88847 0.0
H150 H 0.41728 0.49244 0.95031 0.0
H151 H 0.421 0.4556 0.10115 0.0
H152 H 0.45776 0.45282 0.14049 0.0
H153 H 0.55604 0.48657 0.1149 0.0
H154 H 0.59082 0.50992 0.05318 0.0
H155 H 0.52135 0.56079 0.11685 0.0
H156 H 0.51817 0.59163 0.99749 0.0
H157 H 0.49261 0.41384 0.0063 0.0
H158 H 0.4907 0.44541 0.88689 0.0
C159 C 0.95926 0.45132 0.4831 0.0
C160 C 0.94276 0.43778 0.45214 0.0
C161 C 0.94873 0.45536 0.42002 0.0
C162 C 0.96852 0.47849 0.43312 0.0
N163 N 0.97574 0.47671 0.47155 0.0
Co164 Co 0.0036 0.50557 0.50271 0.0
N165 N 0.01001 0.53187 0.45755 0.0
C166 C 0.9966 0.52763 0.42279 0.0
C167 C 0.00556 0.54946 0.39752 0.0
C168 C 0.02609 0.56876 0.41709 0.0
C169 C 0.02849 0.55751 0.45331 0.0
N170 N 0.03233 0.53429 0.53307 0.0
C171 C 0.04945 0.55943 0.52071 0.0
C172 C 0.06762 0.57261 0.55013 0.0
C173 C 0.06209 0.55503 0.58204 0.0
C174 C 0.04099 0.53225 0.57024 0.0
N175 N 0.99635 0.47942 0.54867 0.0
C176 C 0.00824 0.48395 0.58491 0.0
C177 C 0.99805 0.46244 0.61131 0.0
C178 C 0.9781 0.44305 0.59106 0.0
C179 C 0.97737 0.45393 0.55325 0.0
N180 N 0.03063 0.50057 0.4778 0.0
C181 C 0.07132 0.49718 0.44214 0.0
C182 C 0.06714 0.49439 0.4844 0.0
C183 C 0.04693 0.4963 0.50149 0.0
C184 C 0.05439 0.50096 0.41799 0.0
C185 C 0.0342 0.50232 0.43625 0.0
N186 N 0.97662 0.51066 0.52759 0.0
C187 C 0.95955 0.52088 0.58524 0.0
C188 C 0.93796 0.51714 0.56335 0.0
C189 C 0.93602 0.51011 0.52325 0.0
C190 C 0.95551 0.5072 0.506 0.0
C191 C 0.97838 0.51741 0.56705 0.0
H192 H 0.95298 0.50207 0.47517 0.0
H193 H 0.99407 0.52013 0.58567 0.0
H194 H 0.04517 0.49464 0.53394 0.0
H195 H 0.02192 0.50508 0.41607 0.0
C196 C 0.97819 0.50254 0.41238 0.0
C197 C 0.95744 0.43956 0.52367 0.0
C198 C 0.0499 0.57144 0.48098 0.0
C199 C 0.02897 0.50863 0.59315 0.0
H200 H 0.92745 0.41746 0.45323 0.0
H201 H 0.93898 0.45189 0.39124 0.0
H202 H 0.9988 0.55095 0.36756 0.0
H203 H 0.03849 0.58866 0.40533 0.0
H204 H 0.08347 0.59275 0.54834 0.0
H205 H 0.07248 0.55836 0.61018 0.0
H206 H 0.00413 0.46109 0.64188 0.0
H207 H 0.96523 0.42325 0.60303 0.0
H208 H 0.07984 0.49144 0.50426 0.0
H209 H 0.05664 0.50276 0.38502 0.0
H210 H 0.96167 0.52599 0.61666 0.0
H211 H 0.91969 0.50717 0.50505 0.0
C212 C 0.46088 0.97993 0.06753 0.0
C213 C 0.45529 0.98197 0.10771 0.0
C214 C 0.47759 0.00257 0.12162 0.0
C215 C 0.49558 0.01184 0.08955 0.0
N216 N 0.48604 0.99863 0.05565 0.0
Co217 Co 0.50624 0.00442 0.00313 0.0
N218 N 0.53986 0.03268 0.02549 0.0
C219 C 0.54344 0.04098 0.0636 0.0
C220 C 0.56865 0.06091 0.06985 0.0
C221 C 0.58189 0.06601 0.03331 0.0
C222 C 0.56384 0.04892 0.00675 0.0
N223 N 0.5264 0.01035 0.95049 0.0
C224 C 0.55149 0.02916 0.93854 0.0
C225 C 0.55699 0.02737 0.89818 0.0
C226 C 0.53469 0.00682 0.8842 0.0
C227 C 0.51679 0.99735 0.91641 0.0
N228 N 0.47267 0.97603 0.98085 0.0
C229 C 0.46918 0.96746 0.94293 0.0
C230 C 0.44401 0.94745 0.93672 0.0
C231 C 0.4307 0.94254 0.97313 0.0
C232 C 0.44868 0.95981 0.99958 0.0
N233 N 0.49809 0.03045 0.98281 0.0
C234 C 0.49252 0.0707 0.95032 0.0
C235 C 0.48744 0.05032 0.92699 0.0
C236 C 0.49011 0.03049 0.94376 0.0
C237 C 0.49912 0.06995 0.99088 0.0
C238 C 0.50183 0.0498 0.00638 0.0
N239 N 0.51454 0.97848 0.02339 0.0
C240 C 0.51734 0.94123 0.01323 0.0
C241 C 0.52423 0.94038 0.05368 0.0
C242 C 0.52644 0.95918 0.07844 0.0
C243 C 0.52174 0.97791 0.06279 0.0
C244 C 0.51257 0.96022 0.99889 0.0
H245 H 0.52372 0.99149 0.08344 0.0
H246 H 0.50711 0.95958 0.96796 0.0
H247 H 0.48616 0.01572 0.9242 0.0
H248 H 0.50759 0.05067 0.03717 0.0
C249 C 0.52228 0.03101 0.09181 0.0
C250 C 0.44237 0.95901 0.04275 0.0
C251 C 0.57002 0.04996 0.96347 0.0
C252 C 0.49022 0.97779 0.91444 0.0
H253 H 0.43737 0.96944 0.1259 0.0
H254 H 0.4807 0.00922 0.15213 0.0
H255 H 0.57626 0.07109 0.09729 0.0
H256 H 0.60233 0.08109 0.02656 0.0
H257 H 0.57487 0.04001 0.87996 0.0
H258 H 0.53154 1.00027 0.85362 0.0
H259 H 0.43643 0.93721 0.90932 0.0
H260 H 0.41024 0.92749 0.97983 0.0
H261 H 0.48165 0.04978 0.89565 0.0
H262 H 0.50315 0.0853 0.01015 0.0
H263 H 0.51566 0.92735 0.99254 0.0
H264 H 0.53119 0.95922 0.11024 0.0
C265 C 0.5153 0.55598 0.5211 0.0
C266 C 0.51034 0.56848 0.55028 0.0
C267 C 0.4973 0.55076 0.58232 0.0
C268 C 0.49504 0.52857 0.57082 0.0
N269 N 0.50638 0.53117 0.53377 0.0
Co270 Co 0.50556 0.50326 0.5036 0.0
N271 N 0.48492 0.47676 0.54951 0.0
C272 C 0.47672 0.48057 0.58527 0.0
C273 C 0.46424 0.45901 0.61173 0.0
C274 C 0.46512 0.44047 0.59214 0.0
C275 C 0.4782 0.4519 0.55478 0.0
N276 N 0.50382 0.47512 0.47278 0.0
C277 C 0.49479 0.45022 0.48516 0.0
C278 C 0.49811 0.43739 0.45462 0.0
C279 C 0.50999 0.4549 0.42196 0.0
C280 C 0.51328 0.47735 0.43435 0.0
N281 N 0.52717 0.52996 0.45842 0.0
C282 C 0.53659 0.52638 0.4237 0.0
C283 C 0.55047 0.5483 0.3982 0.0
C284 C 0.54955 0.56691 0.41753 0.0
C285 C 0.53505 0.55518 0.4538 0.0
N286 N 0.53865 0.51011 0.52885 0.0
C287 C 0.58465 0.51789 0.56559 0.0
C288 C 0.57986 0.51176 0.52497 0.0
C289 C 0.55705 0.50819 0.50725 0.0
C290 C 0.56617 0.52031 0.58741 0.0
C291 C 0.54344 0.51624 0.56869 0.0
N292 N 0.47248 0.49654 0.47826 0.0
C293 C 0.44935 0.49682 0.41812 0.0
C294 C 0.42804 0.49278 0.44198 0.0
C295 C 0.42878 0.48954 0.48423 0.0
C296 C 0.45109 0.49163 0.50163 0.0
C297 C 0.47101 0.49829 0.43667 0.0
H298 H 0.45073 0.4897 0.53406 0.0
H299 H 0.48651 0.5013 0.41666 0.0
H300 H 0.55467 0.50371 0.4761 0.0
H301 H 0.52989 0.51786 0.58724 0.0
C302 C 0.48174 0.50483 0.5935 0.0
C303 C 0.52727 0.56808 0.48104 0.0
C304 C 0.48517 0.43882 0.5265 0.0
C305 C 0.52892 0.50158 0.41348 0.0
H306 H 0.51514 0.5882 0.54812 0.0
H307 H 0.48976 0.55353 0.6102 0.0
H308 H 0.4561 0.45718 0.64207 0.0
H309 H 0.45764 0.42093 0.60436 0.0
H310 H 0.49351 0.41776 0.45627 0.0
H311 H 0.51689 0.45203 0.39351 0.0
H312 H 0.55904 0.5502 0.36819 0.0
H313 H 0.55769 0.58662 0.40558 0.0
H314 H 0.59376 0.50993 0.50675 0.0
H315 H 0.5689 0.52474 0.61916 0.0
H316 H 0.44935 0.49889 0.38514 0.0
H317 H 0.41261 0.48627 0.50388 0.0
H318 H 0.2281 0.50421 0.14688 0.0
H319 H 0.23556 0.50863 0.27702 0.0
H320 H 0.15916 0.47405 0.22554 0.0
H321 H 0.27028 0.53396 0.17519 0.0
H322 H 0.27291 0.5384 0.22838 0.0
H323 H 0.28593 0.50965 0.14616 0.0
H324 H 0.32178 0.47936 0.22393 0.0
H325 H 0.2765 0.50673 0.27698 0.0
C326 C 0.21904 0.49939 0.1773 0.0
C327 C 0.1915 0.48731 0.18216 0.0
C328 C 0.23509 0.50667 0.21151 0.0
C329 C 0.22328 0.5018 0.25077 0.0
C330 C 0.19581 0.48962 0.256 0.0
C331 C 0.18015 0.48197 0.22168 0.0
C332 C 0.26481 0.52337 0.20579 0.0
C333 C 0.27796 0.50818 0.21094 0.0
C334 C 0.28844 0.5035 0.17647 0.0
C335 C 0.30428 0.49316 0.1813 0.0
C336 C 0.30855 0.48628 0.22046 0.0
C337 C 0.29861 0.491 0.25517 0.0
C338 C 0.28322 0.50192 0.2503 0.0
H339 H 0.72308 0.22474 0.66086 0.0
H340 H 0.72118 0.22763 0.7915 0.0
H341 H 0.68198 0.15453 0.7383 0.0
H342 H 0.73375 0.2643 0.69102 0.0
H343 H 0.73035 0.26493 0.74472 0.0
H344 H 0.77546 0.27491 0.65935 0.0
H345 H 0.84416 0.3155 0.73122 0.0
H346 H 0.76709 0.27489 0.78965 0.0
C347 C 0.71777 0.21492 0.69105 0.0
C348 C 0.70232 0.18776 0.69524 0.0
C349 C 0.72514 0.2295 0.72573 0.0
C350 C 0.71692 0.21664 0.76477 0.0
C351 C 0.70176 0.18961 0.76917 0.0
C352 C 0.69501 0.17538 0.73455 0.0
C353 C 0.73839 0.25848 0.72094 0.0
C354 C 0.76797 0.27231 0.72432 0.0
C355 C 0.7843 0.27999 0.68883 0.0
C356 C 0.8119 0.29555 0.69104 0.0
C357 C 0.823 0.30237 0.72939 0.0
C358 C 0.8071 0.29508 0.76502 0.0
C359 C 0.77953 0.27989 0.7624 0.0
H360 H 0.50425 0.72471 0.21056 0.0
H361 H 0.50732 0.72192 0.34171 0.0
H362 H 0.54071 0.68858 0.27133 0.0
H363 H 0.47438 0.73082 0.25315 0.0
H364 H 0.47616 0.7302 0.3073 0.0
H365 H 0.50698 0.77008 0.20974 0.0
H366 H 0.5402 0.84136 0.26786 0.0
H367 H 0.50351 0.76957 0.34088 0.0
C368 C 0.51099 0.72005 0.23837 0.0
C369 C 0.52425 0.70696 0.23651 0.0
C370 C 0.50531 0.72603 0.27625 0.0
C371 C 0.51269 0.7184 0.3124 0.0
C372 C 0.52571 0.70503 0.31087 0.0
C373 C 0.53195 0.70006 0.27274 0.0
C374 C 0.48843 0.73741 0.27844 0.0
C375 C 0.50483 0.76658 0.27573 0.0
C376 C 0.51237 0.7804 0.23734 0.0
C377 C 0.52547 0.80744 0.23448 0.0
C378 C 0.53148 0.82063 0.27023 0.0
C379 C 0.52333 0.80719 0.30869 0.0
C380 C 0.51038 0.78013 0.31133 0.0
H381 H 0.75999 0.55298 0.72679 0.0
H382 H 0.75451 0.55107 0.85803 0.0
H383 H 0.68419 0.516 0.78912 0.0
H384 H 0.79852 0.58318 0.76738 0.0
H385 H 0.79654 0.57977 0.82177 0.0
H386 H 0.80194 0.55156 0.72706 0.0
H387 H 0.83835 0.51544 0.78842 0.0
H388 H 0.80819 0.55197 0.85786 0.0
C389 C 0.74819 0.54644 0.75501 0.0
C390 C 0.72054 0.53294 0.75362 0.0
C391 C 0.76064 0.55239 0.79274 0.0
C392 C 0.74511 0.54538 0.82905 0.0
C393 C 0.71749 0.53197 0.82779 0.0
C394 C 0.70545 0.52527 0.79018 0.0
C395 C 0.79041 0.56868 0.79394 0.0
C396 C 0.80244 0.55247 0.7928 0.0
C397 C 0.80724 0.54556 0.75512 0.0
C398 C 0.81995 0.53194 0.75344 0.0
C399 C 0.82738 0.52484 0.78978 0.0
C400 C 0.82349 0.53217 0.82742 0.0
C401 C 0.81079 0.54583 0.82891 0.0
H402 H 0.2881 0.78098 0.21162 0.0
H403 H 0.28505 0.78475 0.34194 0.0
H404 H 0.32621 0.85447 0.26347 0.0
H405 H 0.27848 0.74396 0.25931 0.0
H406 H 0.27492 0.74502 0.31286 0.0
H407 H 0.24186 0.73354 0.21391 0.0
H408 H 0.16461 0.69356 0.27166 0.0
H409 H 0.23307 0.73449 0.34389 0.0
C410 C 0.29202 0.79215 0.23805 0.0
C411 C 0.30699 0.81917 0.2332 0.0
C412 C 0.28352 0.77953 0.27724 0.0
C413 C 0.29051 0.79435 0.3116 0.0
C414 C 0.3058 0.8215 0.30695 0.0
C415 C 0.31328 0.83363 0.26749 0.0
C416 C 0.27035 0.75058 0.28266 0.0
C417 C 0.24078 0.73666 0.27906 0.0
C418 C 0.22934 0.72879 0.24098 0.0
C419 C 0.20179 0.7136 0.23818 0.0
C420 C 0.18577 0.70666 0.27359 0.0
C421 C 0.19674 0.71375 0.31195 0.0
C422 C 0.22434 0.72925 0.31437 0.0
H423 H 0.45192 0.25355 0.79976 0.0
H424 H 0.44919 0.25647 0.66844 0.0
H425 H 0.48994 0.32666 0.73033 0.0
H426 H 0.41955 0.2152 0.76379 0.0
H427 H 0.41965 0.21619 0.70937 0.0
H428 H 0.45234 0.20985 0.80186 0.0
H429 H 0.48833 0.1767 0.73777 0.0
H430 H 0.44809 0.20695 0.67096 0.0
C431 C 0.4578 0.26456 0.77052 0.0
C432 C 0.47256 0.29165 0.7692 0.0
C433 C 0.44989 0.25167 0.73416 0.0
C434 C 0.45626 0.2662 0.69643 0.0
C435 C 0.47101 0.2933 0.69499 0.0
C436 C 0.47957 0.30576 0.73134 0.0
C437 C 0.43272 0.22255 0.73588 0.0
C438 C 0.44919 0.21066 0.73619 0.0
C439 C 0.4576 0.20532 0.77339 0.0
C440 C 0.4721 0.19341 0.77393 0.0
C441 C 0.4783 0.18708 0.7371 0.0
C442 C 0.46956 0.19159 0.69993 0.0
C443 C 0.45518 0.20364 0.69953 0.0
H444 H 0.05773 0.44468 0.02539 0.0
H445 H 0.09465 0.52455 0.05124 0.0
H446 H 0.09502 0.44387 0.05418 0.0
H447 H 0.13166 0.52389 0.08089 0.0
H448 H 0.20145 0.52203 0.11792 0.0
H449 H 0.16953 0.52068 0.07041 0.0
H450 H 0.11063 0.44437 0.12164 0.0
H451 H 0.1428 0.44542 0.16792 0.0
C452 C 0.07407 0.46211 0.03686 0.0
C453 C 0.07354 0.48466 0.03634 0.0
C454 C 0.09533 0.46167 0.05351 0.0
C455 C 0.11639 0.4838 0.06999 0.0
C456 C 0.11608 0.50661 0.06793 0.0
C457 C 0.09486 0.50701 0.05125 0.0
C458 C 0.18198 0.5046 0.11796 0.0
C459 C 0.17459 0.4839 0.14691 0.0
C460 C 0.16354 0.50397 0.09114 0.0
C461 C 0.13731 0.48263 0.09266 0.0
C462 C 0.13061 0.4611 0.11938 0.0
C463 C 0.14903 0.46173 0.14612 0.0
H464 H 0.56914 0.09063 0.5623 0.0
H465 H 0.61863 0.06254 0.53057 0.0
H466 H 0.60625 0.12695 0.59397 0.0
H467 H 0.65622 0.09917 0.56168 0.0
H468 H 0.6975 0.14227 0.67889 0.0
H469 H 0.6679 0.1115 0.63116 0.0
H470 H 0.64925 0.1667 0.58343 0.0
H471 H 0.67825 0.19716 0.63217 0.0
C472 C 0.58823 0.09265 0.56152 0.0
C473 C 0.59126 0.07405 0.54415 0.0
C474 C 0.60953 0.11349 0.57935 0.0
C475 C 0.6343 0.11606 0.58031 0.0
C476 C 0.6374 0.09768 0.56172 0.0
C477 C 0.61603 0.07684 0.54378 0.0
C478 C 0.6875 0.14802 0.65759 0.0
C479 C 0.69001 0.17204 0.65963 0.0
C480 C 0.67062 0.13044 0.63004 0.0
C481 C 0.65585 0.13646 0.60385 0.0
C482 C 0.65998 0.16128 0.60369 0.0
C483 C 0.67689 0.17889 0.63125 0.0
H484 H 0.55265 0.60601 0.12117 0.0
H485 H 0.4959 0.60571 0.03997 0.0
H486 H 0.55554 0.64137 0.15542 0.0
H487 H 0.49981 0.64214 0.07301 0.0
H488 H 0.48489 0.6765 0.18661 0.0
H489 H 0.48613 0.64918 0.1368 0.0
H490 H 0.57014 0.68582 0.15136 0.0
H491 H 0.56851 0.71245 0.20224 0.0
C492 C 0.54095 0.61365 0.11036 0.0
C493 C 0.52383 0.60278 0.07808 0.0
C494 C 0.54293 0.63428 0.12961 0.0
C495 C 0.52796 0.64476 0.11697 0.0
C496 C 0.51146 0.63444 0.08379 0.0
C497 C 0.50942 0.6137 0.06458 0.0
C498 C 0.50374 0.6793 0.17803 0.0
C499 C 0.52657 0.69645 0.19835 0.0
C500 C 0.50449 0.66359 0.14953 0.0
C501 C 0.52815 0.66488 0.14063 0.0
C502 C 0.55144 0.68381 0.15828 0.0
C503 C 0.55062 0.6993 0.18704 0.0
H504 H 0.88428 0.48475 0.56214 0.0
H505 H 0.94554 0.55638 0.60826 0.0
H506 H 0.85082 0.48817 0.59885 0.0
H507 H 0.91228 0.5597 0.64511 0.0
H508 H 0.84851 0.56842 0.69194 0.0
H509 H 0.87416 0.56534 0.6372 0.0
H510 H 0.83977 0.48461 0.67352 0.0
H511 H 0.81404 0.48771 0.72792 0.0
C512 C 0.89054 0.50141 0.5796 0.0
C513 C 0.91751 0.52021 0.58263 0.0
C514 C 0.87142 0.5033 0.60071 0.0
C515 C 0.8789 0.52422 0.62479 0.0
C516 C 0.90583 0.54352 0.62641 0.0
C517 C 0.92491 0.54148 0.60572 0.0
C518 C 0.84571 0.54982 0.68718 0.0
C519 C 0.82942 0.52832 0.71423 0.0
C520 C 0.8606 0.54811 0.65618 0.0
C521 C 0.85927 0.52483 0.65147 0.0
C522 C 0.84117 0.50279 0.67624 0.0
C523 C 0.82648 0.50455 0.70744 0.0
H524 H 0.39936 0.95512 0.0796 0.0
H525 H 0.43167 0.91002 0.04823 0.0
H526 H 0.36318 0.91772 0.11818 0.0
H527 H 0.39426 0.87174 0.08334 0.0
H528 H 0.35035 0.82318 0.2012 0.0
H529 H 0.38041 0.85473 0.14849 0.0
H530 H 0.3248 0.87798 0.1245 0.0
H531 H 0.29572 0.84739 0.17988 0.0
C532 C 0.39838 0.93696 0.08057 0.0
C533 C 0.4186 0.93553 0.0622 0.0
C534 C 0.37739 0.91532 0.10211 0.0
C535 C 0.37572 0.89148 0.10461 0.0
C536 C 0.39514 0.8898 0.08342 0.0
C537 C 0.41649 0.91165 0.0629 0.0
C538 C 0.34433 0.83457 0.18371 0.0
C539 C 0.32077 0.83284 0.19412 0.0
C540 C 0.36154 0.85273 0.1533 0.0
C541 C 0.35538 0.86936 0.13213 0.0
C542 C 0.33067 0.8661 0.1407 0.0
C543 C 0.31373 0.84829 0.17189 0.0
H544 H 0.45287 0.3887 0.50672 0.0
H545 H 0.51766 0.4373 0.58186 0.0
H546 H 0.45137 0.35052 0.5371 0.0
H547 H 0.51563 0.39948 0.61373 0.0
H548 H 0.51717 0.33207 0.65835 0.0
H549 H 0.52255 0.36559 0.60821 0.0
H550 H 0.43773 0.32537 0.59988 0.0
H551 H 0.43273 0.29139 0.64847 0.0
C552 C 0.46698 0.39112 0.52942 0.0
C553 C 0.48551 0.41577 0.54188 0.0
C554 C 0.46602 0.36932 0.5471 0.0
C555 C 0.4834 0.37178 0.57793 0.0
C556 C 0.5023 0.39671 0.58952 0.0
C557 C 0.50336 0.41842 0.57162 0.0
C558 C 0.49982 0.33003 0.64451 0.0
C559 C 0.47456 0.30922 0.6571 0.0
C560 C 0.50281 0.34938 0.61624 0.0
C561 C 0.48056 0.34861 0.60063 0.0
C562 C 0.45537 0.32664 0.61092 0.0
C563 C 0.45243 0.30708 0.63875 0.0
H564 H 0.55109 0.92346 0.48087 0.0
H565 H 0.48481 0.90456 0.40602 0.0
H566 H 0.55311 0.88792 0.45411 0.0
H567 H 0.4865 0.86903 0.37989 0.0
H568 H 0.48245 0.79616 0.35989 0.0
H569 H 0.48072 0.82567 0.4048 0.0
H570 H 0.56394 0.88077 0.38069 0.0
H571 H 0.56563 0.85127 0.33556 0.0
C572 C 0.53678 0.91147 0.45915 0.0
C573 C 0.51791 0.91677 0.44522 0.0
C574 C 0.53795 0.89124 0.44385 0.0
C575 C 0.51985 0.87563 0.41517 0.0
C576 C 0.50048 0.8805 0.40237 0.0
C577 C 0.49965 0.90096 0.417 0.0
C578 C 0.50057 0.81413 0.36543 0.0
C579 C 0.52417 0.82147 0.3442 0.0
C580 C 0.49952 0.83112 0.39078 0.0
C581 C 0.52212 0.85561 0.3958 0.0
C582 C 0.54624 0.86199 0.3775 0.0
C583 C 0.54722 0.84514 0.35168 0.0
H584 H 0.62115 0.55085 0.00509 0.0
H585 H 0.57049 0.49111 0.92633 0.0
H586 H 0.65938 0.55106 0.97814 0.0
H587 H 0.60846 0.49198 0.89776 0.0
H588 H 0.67552 0.48692 0.86133 0.0
H589 H 0.64114 0.48237 0.90749 0.0
H590 H 0.68618 0.565 0.91777 0.0
H591 H 0.72093 0.5691 0.87324 0.0
C592 C 0.61829 0.53763 0.98222 0.0
C593 C 0.59303 0.52082 0.96789 0.0
C594 C 0.64013 0.53785 0.96653 0.0
C595 C 0.63713 0.52148 0.9358 0.0
C596 C 0.6116 0.50445 0.92202 0.0
C597 C 0.58983 0.50409 0.93799 0.0
C598 C 0.67839 0.5039 0.87481 0.0
C599 C 0.70081 0.52833 0.86392 0.0
C600 C 0.65856 0.50141 0.90076 0.0
C601 C 0.66049 0.52338 0.91565 0.0
C602 C 0.68397 0.54759 0.90721 0.0
C603 C 0.70399 0.55 0.88173 0.0
H604 H 0.09532 0.57791 0.45188 0.0
H605 H 0.05824 0.61978 0.47632 0.0
H606 H 0.13369 0.61728 0.42069 0.0
H607 H 0.09694 0.65968 0.4459 0.0
H608 H 0.14864 0.70709 0.32801 0.0
H609 H 0.11497 0.6756 0.37748 0.0
H610 H 0.17141 0.65976 0.42948 0.0
H611 H 0.20476 0.69049 0.37874 0.0
C612 C 0.09576 0.5958 0.45116 0.0
C613 C 0.07403 0.59604 0.46603 0.0
C614 C 0.11777 0.61841 0.43367 0.0
C615 C 0.11847 0.64174 0.4308 0.0
C616 C 0.09695 0.64203 0.44727 0.0
C617 C 0.07489 0.61933 0.46475 0.0
C618 C 0.154 0.69731 0.35064 0.0
C619 C 0.17922 0.70097 0.34901 0.0
C620 C 0.13473 0.67934 0.37922 0.0
C621 C 0.14031 0.66472 0.40696 0.0
C622 C 0.1663 0.67028 0.40792 0.0
C623 C 0.18556 0.6882 0.37921 0.0
H624 H 0.5147 0.09677 0.87733 0.0
H625 H 0.46937 0.09501 0.98102 0.0
H626 H 0.51222 0.13168 0.84389 0.0
H627 H 0.46713 0.13055 0.94752 0.0
H628 H 0.51982 0.20295 0.79727 0.0
H629 H 0.52733 0.17725 0.8482 0.0
H630 H 0.4449 0.1355 0.88624 0.0
H631 H 0.43759 0.16163 0.83563 0.0
C632 C 0.50429 0.10398 0.89305 0.0
C633 C 0.492 0.09299 0.93158 0.0
C634 C 0.50317 0.12425 0.87415 0.0
C635 C 0.48964 0.13405 0.89318 0.0
C636 C 0.47768 0.12339 0.93211 0.0
C637 C 0.47904 0.10316 0.9513 0.0
C638 C 0.50356 0.18893 0.8176 0.0
C639 C 0.47811 0.1841 0.8124 0.0
C640 C 0.50778 0.17405 0.84648 0.0
C641 C 0.48658 0.15392 0.87055 0.0
C642 C 0.46165 0.15087 0.8682 0.0
C643 C 0.45745 0.16589 0.83933 0.0
H644 H 0.43044 0.52821 0.38569 0.0
H645 H 0.37511 0.45699 0.45469 0.0
H646 H 0.39409 0.52695 0.35025 0.0
H647 H 0.33849 0.45562 0.41893 0.0
H648 H 0.32515 0.52869 0.30774 0.0
H649 H 0.35358 0.52912 0.36146 0.0
H650 H 0.32526 0.44929 0.34462 0.0
H651 H 0.2969 0.44894 0.29093 0.0
C652 C 0.41043 0.51236 0.39342 0.0
C653 C 0.40559 0.49259 0.42265 0.0
C654 C 0.38959 0.51178 0.37349 0.0
C655 C 0.3634 0.49125 0.38196 0.0
C656 C 0.35847 0.47168 0.41182 0.0
C657 C 0.37937 0.47249 0.4323 0.0
C658 C 0.32421 0.51096 0.31673 0.0
C659 C 0.30887 0.48879 0.29521 0.0
C660 C 0.3407 0.51129 0.34711 0.0
C661 C 0.34192 0.48935 0.35681 0.0
C662 C 0.32469 0.46646 0.33795 0.0
C663 C 0.30844 0.46623 0.30726 0.0
H664 H 0.91589 0.3753 0.96047 0.0
H665 H 0.90677 0.42871 0.88226 0.0
H666 H 0.88009 0.33903 0.92602 0.0
H667 H 0.87108 0.39267 0.84813 0.0
H668 H 0.79611 0.32375 0.81139 0.0
H669 H 0.82451 0.35335 0.86185 0.0
H670 H 0.87619 0.32482 0.85289 0.0
H671 H 0.84782 0.29532 0.80236 0.0
C672 C 0.90602 0.37922 0.93625 0.0
C673 C 0.91419 0.40478 0.92376 0.0
C674 C 0.88562 0.35853 0.91654 0.0
C675 C 0.8727 0.36303 0.88457 0.0
C676 C 0.88041 0.38857 0.87302 0.0
C677 C 0.90103 0.40921 0.89221 0.0
C678 C 0.813 0.32315 0.82136 0.0
C679 C 0.81982 0.30729 0.80302 0.0
C680 C 0.8294 0.34028 0.84986 0.0
C681 C 0.85272 0.3416 0.86089 0.0
C682 C 0.8583 0.32416 0.84511 0.0
C683 C 0.84209 0.30729 0.81622 0.0
H684 H 0.93969 0.54987 0.006 0.0
H685 H 0.92568 0.49081 0.92624 0.0
H686 H 0.90212 0.55055 0.97818 0.0
H687 H 0.88902 0.49203 0.89704 0.0
H688 H 0.81632 0.48711 0.86054 0.0
H689 H 0.84566 0.4824 0.90647 0.0
H690 H 0.89122 0.56497 0.91726 0.0
H691 H 0.86107 0.56927 0.87274 0.0
C692 C 0.92832 0.53687 0.98277 0.0
C693 C 0.93527 0.52014 0.96837 0.0
C694 C 0.90697 0.53736 0.96657 0.0
C695 C 0.89235 0.52128 0.93537 0.0
C696 C 0.89929 0.50428 0.9216 0.0
C697 C 0.92045 0.5037 0.93799 0.0
C698 C 0.83209 0.50407 0.87398 0.0
C699 C 0.83645 0.52853 0.86323 0.0
C700 C 0.84915 0.50148 0.89983 0.0
C701 C 0.87127 0.52337 0.91491 0.0
C702 C 0.87438 0.54762 0.90654 0.0
C703 C 0.85706 0.55014 0.88107 0.0
H704 H 0.43907 0.92026 0.43802 0.0
H705 H 0.3895 0.94847 0.46859 0.0
H706 H 0.40197 0.88369 0.40673 0.0
H707 H 0.35192 0.9116 0.43789 0.0
H708 H 0.31014 0.86694 0.32207 0.0
H709 H 0.33987 0.89837 0.36891 0.0
H710 H 0.3591 0.84395 0.41846 0.0
H711 H 0.32998 0.81283 0.37059 0.0
C712 C 0.41999 0.91826 0.4385 0.0
C713 C 0.4169 0.93694 0.45544 0.0
C714 C 0.39869 0.89727 0.42094 0.0
C715 C 0.37388 0.89462 0.41991 0.0
C716 C 0.37077 0.91315 0.43792 0.0
C717 C 0.39214 0.93415 0.45557 0.0
C718 C 0.32028 0.8615 0.34362 0.0
C719 C 0.31792 0.83751 0.34231 0.0
C720 C 0.33724 0.87947 0.37064 0.0
C721 C 0.35223 0.87385 0.39701 0.0
C722 C 0.34821 0.84906 0.398 0.0
C723 C 0.33122 0.83106 0.37096 0.0
H724 H 0.51856 0.42892 0.87506 0.0
H725 H 0.46369 0.37512 0.96999 0.0
H726 H 0.51558 0.3935 0.84103 0.0
H727 H 0.46158 0.33947 0.93669 0.0
H728 H 0.43673 0.28541 0.82699 0.0
H729 H 0.44321 0.31655 0.87601 0.0
H730 H 0.52665 0.36159 0.8437 0.0
H731 H 0.51982 0.33082 0.79374 0.0
C732 C 0.50593 0.40949 0.88881 0.0
C733 C 0.49109 0.40486 0.92497 0.0
C734 C 0.50456 0.38914 0.86963 0.0
C735 C 0.48844 0.36354 0.88618 0.0
C736 C 0.47406 0.35892 0.92296 0.0
C737 C 0.47543 0.37937 0.94221 0.0
C738 C 0.45657 0.30151 0.83148 0.0
C739 C 0.47776 0.30586 0.80651 0.0
C740 C 0.46031 0.31942 0.85951 0.0
C741 C 0.48538 0.34192 0.86319 0.0
C742 C 0.50697 0.34486 0.84086 0.0
C743 C 0.50316 0.32712 0.8126 0.0
H744 H 0.08502 0.46156 0.45701 0.0
H745 H 0.10725 0.53144 0.3842 0.0
H746 H 0.11955 0.45917 0.42135 0.0
H747 H 0.14154 0.52909 0.34871 0.0
H748 H 0.21109 0.52922 0.305 0.0
H749 H 0.18421 0.53128 0.35873 0.0
H750 H 0.12466 0.45077 0.34823 0.0
H751 H 0.15167 0.44869 0.29473 0.0
C752 C 0.09754 0.47657 0.43381 0.0
C753 C 0.09337 0.49657 0.42306 0.0
C754 C 0.1172 0.47516 0.41338 0.0
C755 C 0.13331 0.49399 0.38239 0.0
C756 C 0.12971 0.51448 0.37283 0.0
C757 C 0.10988 0.51568 0.39279 0.0
C758 C 0.19275 0.51173 0.3153 0.0
C759 C 0.18337 0.48883 0.29557 0.0
C760 C 0.17723 0.51298 0.34572 0.0
C761 C 0.15217 0.4913 0.3572 0.0
C762 C 0.14391 0.46778 0.34012 0.0
C763 C 0.15932 0.46659 0.30945 0.0
H764 H 0.58 0.09868 0.95814 0.0
H765 H 0.6132 0.05444 0.92622 0.0
H766 H 0.61665 0.13703 0.92179 0.0
H767 H 0.64864 0.0919 0.8866 0.0
H768 H 0.65789 0.18426 0.80169 0.0
H769 H 0.62897 0.15296 0.85562 0.0
H770 H 0.68656 0.13218 0.87887 0.0
H771 H 0.71454 0.16254 0.82241 0.0
C772 C 0.59525 0.09728 0.94319 0.0
C773 C 0.59358 0.0736 0.94399 0.0
C774 C 0.61614 0.11915 0.92196 0.0
C775 C 0.63552 0.11767 0.90024 0.0
C776 C 0.6344 0.09411 0.90303 0.0
C777 C 0.61387 0.07244 0.92521 0.0
C778 C 0.66457 0.17344 0.81922 0.0
C779 C 0.68838 0.17581 0.80838 0.0
C780 C 0.64804 0.15546 0.85034 0.0
C781 C 0.65514 0.13964 0.87176 0.0
C782 C 0.68002 0.14347 0.86256 0.0
C783 C 0.69631 0.16113 0.83072 0.0
H784 H 0.48723 0.56954 0.44646 0.0
H785 H 0.56803 0.61841 0.48005 0.0
H786 H 0.48826 0.607 0.41465 0.0
H787 H 0.56921 0.65635 0.44906 0.0
H788 H 0.56893 0.7033 0.33126 0.0
H789 H 0.56983 0.67262 0.38041 0.0
H790 H 0.49095 0.64696 0.42389 0.0
H791 H 0.48973 0.67701 0.37347 0.0
C792 C 0.50505 0.58851 0.44756 0.0
C793 C 0.52758 0.59133 0.46531 0.0
C794 C 0.50564 0.61001 0.42972 0.0
C795 C 0.52882 0.63479 0.42935 0.0
C796 C 0.55113 0.63757 0.44848 0.0
C797 C 0.5505 0.61598 0.4663 0.0
C798 C 0.55203 0.69152 0.352 0.0
C799 C 0.52913 0.69232 0.34808 0.0
C800 C 0.55257 0.674 0.38038 0.0
C801 C 0.53025 0.65693 0.40561 0.0
C802 C 0.50827 0.65944 0.40428 0.0
C803 C 0.50771 0.67695 0.37579 0.0
H804 H 0.51935 0.121 0.52766 0.0
H805 H 0.44497 0.06255 0.58699 0.0
H806 H 0.51477 0.15462 0.55496 0.0
H807 H 0.44082 0.09607 0.61535 0.0
H808 H 0.43142 0.15953 0.64928 0.0
H809 H 0.4346 0.13199 0.60166 0.0
H810 H 0.51793 0.16941 0.62304 0.0
H811 H 0.51474 0.19712 0.66976 0.0
C812 C 0.50183 0.11532 0.54604 0.0
C813 C 0.48262 0.08907 0.55541 0.0
C814 C 0.49932 0.13459 0.56193 0.0
C815 C 0.47747 0.12807 0.58744 0.0
C816 C 0.45775 0.10183 0.59543 0.0
C817 C 0.46031 0.08258 0.57965 0.0
C818 C 0.45057 0.16249 0.64252 0.0
C819 C 0.47281 0.18034 0.66332 0.0
C820 C 0.45234 0.1465 0.61571 0.0
C821 C 0.47642 0.14819 0.60907 0.0
C822 C 0.49909 0.16762 0.62724 0.0
C823 C 0.49729 0.18348 0.65411 0.0
H824 H 0.43867 0.52676 0.02825 0.0
H825 H 0.38848 0.44389 0.04495 0.0
H826 H 0.40353 0.53093 0.05631 0.0
H827 H 0.35369 0.4478 0.07554 0.0
H828 H 0.29066 0.46044 0.11947 0.0
H829 H 0.32126 0.45897 0.07153 0.0
H830 H 0.38655 0.52624 0.12258 0.0
H831 H 0.35598 0.52794 0.16869 0.0
C832 C 0.41997 0.50944 0.03786 0.0
C833 C 0.41635 0.48504 0.03544 0.0
C834 C 0.39989 0.51176 0.0542 0.0
C835 C 0.37586 0.48973 0.06904 0.0
C836 C 0.3718 0.46521 0.06431 0.0
C837 C 0.39179 0.46291 0.04731 0.0
C838 C 0.31149 0.47525 0.11927 0.0
C839 C 0.32111 0.49441 0.14731 0.0
C840 C 0.32906 0.47429 0.09227 0.0
C841 C 0.35648 0.49243 0.09316 0.0
C842 C 0.36566 0.51222 0.12023 0.0
C843 C 0.34818 0.51319 0.14688 0.0
H844 H 0.95001 0.39162 0.52716 0.0
H845 H 0.91119 0.43193 0.55106 0.0
H846 H 0.91156 0.3512 0.55672 0.0
H847 H 0.87309 0.39207 0.58156 0.0
H848 H 0.80317 0.31848 0.62452 0.0
H849 H 0.83603 0.34941 0.57347 0.0
H850 H 0.89355 0.33484 0.62464 0.0
H851 H 0.86033 0.30305 0.67429 0.0
C852 C 0.93299 0.3916 0.53831 0.0
C853 C 0.93329 0.41459 0.53714 0.0
C854 C 0.91109 0.3686 0.55536 0.0
C855 C 0.88919 0.36832 0.57164 0.0
C856 C 0.88931 0.39136 0.56873 0.0
C857 C 0.91115 0.41425 0.55161 0.0
C858 C 0.8225 0.32109 0.62382 0.0
C859 C 0.82926 0.30858 0.65386 0.0
C860 C 0.84149 0.33914 0.59491 0.0
C861 C 0.86764 0.34513 0.59554 0.0
C862 C 0.87365 0.33078 0.62312 0.0
C863 C 0.85464 0.31264 0.65185 0.0
H864 H 0.49771 0.88926 0.03627 0.0
H865 H 0.55999 0.94455 0.10959 0.0
H866 H 0.50169 0.85496 0.0688 0.0
H867 H 0.56251 0.91018 0.14427 0.0
H868 H 0.57071 0.8487 0.19916 0.0
H869 H 0.57371 0.87941 0.14544 0.0
H870 H 0.48937 0.83107 0.13148 0.0
H871 H 0.48695 0.79996 0.18335 0.0
C872 C 0.51245 0.89421 0.059 0.0
C873 C 0.52827 0.91973 0.07063 0.0
C874 C 0.5145 0.87441 0.0781 0.0
C875 C 0.53221 0.87956 0.10964 0.0
C876 C 0.54883 0.9053 0.11988 0.0
C877 C 0.54702 0.92508 0.10045 0.0
C878 C 0.55307 0.84431 0.18334 0.0
C879 C 0.52863 0.82203 0.19523 0.0
C880 C 0.55465 0.86204 0.15299 0.0
C881 C 0.53168 0.85817 0.13465 0.0
C882 C 0.50756 0.83478 0.14446 0.0
C883 C 0.5061 0.81683 0.17426 0.0
H884 H 0.60481 0.48721 0.56222 0.0
H885 H 0.61813 0.5561 0.61395 0.0
H886 H 0.64221 0.49115 0.59884 0.0
H887 H 0.65527 0.55992 0.65075 0.0
H888 H 0.73039 0.57059 0.6952 0.0
H889 H 0.70064 0.56781 0.64189 0.0
H890 H 0.64916 0.48602 0.67318 0.0
H891 H 0.67892 0.48887 0.72625 0.0
C892 C 0.61597 0.50339 0.58095 0.0
C893 C 0.60846 0.52127 0.58543 0.0
C894 C 0.63728 0.50557 0.60203 0.0
C895 C 0.65173 0.52588 0.62759 0.0
C896 C 0.64476 0.54425 0.63089 0.0
C897 C 0.6233 0.5419 0.61021 0.0
C898 C 0.71322 0.55188 0.68959 0.0
C899 C 0.7069 0.52994 0.71479 0.0
C900 C 0.69604 0.55034 0.65945 0.0
C901 C 0.67239 0.52677 0.65372 0.0
C902 C 0.66726 0.50443 0.67669 0.0
C903 C 0.68427 0.50604 0.70707 0.0
H904 H 0.10179 0.57829 0.1254 0.0
H905 H 0.09339 0.63084 0.04373 0.0
H906 H 0.13743 0.61479 0.1588 0.0
H907 H 0.12913 0.66757 0.07744 0.0
H908 H 0.16138 0.71321 0.19949 0.0
H909 H 0.13296 0.68297 0.14981 0.0
H910 H 0.18422 0.65379 0.14419 0.0
H911 H 0.21268 0.68413 0.19377 0.0
C912 C 0.10766 0.59769 0.11456 0.0
C913 C 0.09474 0.60176 0.08221 0.0
C914 C 0.12825 0.61859 0.13334 0.0
C915 C 0.13617 0.64404 0.12054 0.0
C916 C 0.12344 0.64816 0.08786 0.0
C917 C 0.10308 0.6272 0.06858 0.0
C918 C 0.16702 0.70094 0.18649 0.0
C919 C 0.18918 0.70097 0.20041 0.0
C920 C 0.15077 0.68364 0.1581 0.0
C921 C 0.15621 0.66581 0.14357 0.0
C922 C 0.17944 0.66716 0.15524 0.0
C923 C 0.19588 0.68471 0.18322 0.0
loop_
_geom_bond_atom_site_label_1
_geom_bond_atom_site_label_2
_geom_bond_distance
_geom_bond_site_symmetry_2
_ccdc_geom_bond_type
C0 C1 1.443 1_556 S
C0 N4 1.376 1_556 S
C0 C38 1.389 . S
C1 C0 1.443 1_554 S
C1 C2 1.340 . S
C1 H41 0.951 . S
C2 C1 1.340 . S
C2 C3 1.439 . S
C2 H42 0.950 . S
C3 C2 1.439 . S
C3 N4 1.374 . S
C3 C37 1.395 . S
N4 C0 1.376 1_554 S
N4 C3 1.374 . S
N4 Co5 2.008 1_655 S
Co5 N4 2.008 1_455 S
Co5 N6 1.995 . S
Co5 N11 2.008 1_554 S
Co5 N16 1.995 1_554 S
Co5 N21 2.282 . S
Co5 N27 2.282 1_454 S
N6 Co5 1.995 . S
N6 C7 1.376 1_455 S
N6 C10 1.383 . S
C7 N6 1.376 1_655 S
C7 C8 1.446 . S
C7 C37 1.391 . S
C8 C7 1.446 . S
C8 C9 1.339 1_655 S
C8 H43 0.949 . S
C9 C8 1.339 1_455 S
C9 C10 1.439 . S
C9 H44 0.950 . S
C10 N6 1.383 . S
C10 C9 1.439 . S
C10 C39 1.392 . S
N11 Co5 2.008 1_556 S
N11 C12 1.376 1_556 S
N11 C15 1.374 . S
C12 N11 1.376 1_554 S
C12 C13 1.443 1_554 S
C12 C39 1.389 . S
C13 C12 1.443 1_556 S
C13 C14 1.340 . S
C13 H45 0.951 . S
C14 C13 1.340 . S
C14 C15 1.439 . S
C14 H46 0.950 . S
C15 N11 1.374 . S
C15 C14 1.439 . S
C15 C40 1.395 . S
N16 Co5 1.995 1_556 S
N16 C17 1.376 . S
N16 C20 1.383 1_455 S
C17 N16 1.376 . S
C17 C18 1.446 . S
C17 C40 1.391 . S
C18 C17 1.446 . S
C18 C19 1.339 1_455 S
C18 H47 0.949 . S
C19 C18 1.339 1_655 S
C19 C20 1.439 . S
C19 H48 0.950 . S
C20 N16 1.383 1_655 S
C20 C19 1.439 . S
C20 C38 1.392 . S
N21 Co5 2.282 . S
N21 C24 1.332 . S
N21 C26 1.332 . S
C22 C23 1.386 . S
C22 C25 1.388 . S
C23 C22 1.386 . S
C23 C24 1.382 . S
C23 H49 0.950 . S
C24 N21 1.332 . S
C24 C23 1.382 . S
C24 H35 0.952 1_554 S
C25 C22 1.388 . S
C25 C26 1.382 . S
C25 H50 0.950 . S
C26 N21 1.332 . S
C26 C25 1.382 . S
C26 H36 0.948 . S
N27 Co5 2.282 1_656 S
N27 C31 1.332 . S
N27 C32 1.332 . S
C28 C29 1.388 . S
C28 C32 1.382 . S
C28 H51 0.950 . S
C29 C28 1.388 . S
C29 C30 1.386 . S
C30 C29 1.386 . S
C30 C31 1.382 . S
C30 H52 0.950 . S
C31 N27 1.332 . S
C31 C30 1.382 . S
C31 H33 0.952 1_556 S
C32 N27 1.332 . S
C32 C28 1.382 . S
C32 H34 0.948 . S
H33 C31 0.952 1_554 S
H34 C32 0.948 . S
H35 C24 0.952 1_556 S
H36 C26 0.948 . S
C37 C3 1.395 . S
C37 C7 1.391 . S
C38 C0 1.389 . S
C38 C20 1.392 . S
C39 C10 1.392 . S
C39 C12 1.389 . S
C40 C15 1.395 . S
C40 C17 1.391 . S
H41 C1 0.951 . S
H42 C2 0.950 . S
H43 C8 0.949 . S
H44 C9 0.950 . S
H45 C13 0.951 . S
H46 C14 0.950 . S
H47 C18 0.949 . S
H48 C19 0.950 . S
H49 C23 0.950 . S
H50 C25 0.950 . S
H51 C28 0.950 . S
H52 C30 0.950 . S
C53 C54 1.443 . S
C53 N57 1.376 . S
C53 C91 1.389 . S
C54 C53 1.443 . S
C54 C55 1.340 1_545 S
C54 H94 0.951 . S
C55 C54 1.340 1_565 S
C55 C56 1.439 . S
C55 H95 0.950 . S
C56 C55 1.439 . S
C56 N57 1.374 1_565 S
C56 C90 1.395 . S
N57 C53 1.376 . S
N57 C56 1.374 1_545 S
N57 Co58 2.008 . S
Co58 N57 2.008 . S
Co58 N59 1.995 1_545 S
Co58 N64 2.008 . S
Co58 N69 1.995 . S
Co58 N74 2.282 1_545 S
Co58 N80 2.282 . S
N59 Co58 1.995 1_565 S
N59 C60 1.376 . S
N59 C63 1.383 . S
C60 N59 1.376 . S
C60 C61 1.446 . S
C60 C90 1.391 . S
C61 C60 1.446 . S
C61 C62 1.339 . S
C61 H96 0.949 . S
C62 C61 1.339 . S
C62 C63 1.439 . S
C62 H97 0.950 . S
C63 N59 1.383 . S
C63 C62 1.439 . S
C63 C92 1.392 . S
N64 Co58 2.008 . S
N64 C65 1.376 1_545 S
N64 C68 1.374 . S
C65 N64 1.376 1_565 S
C65 C66 1.443 . S
C65 C92 1.389 . S
C66 C65 1.443 . S
C66 C67 1.340 1_565 S
C66 H98 0.951 . S
C67 C66 1.340 1_545 S
C67 C68 1.439 . S
C67 H99 0.950 . S
C68 N64 1.374 . S
C68 C67 1.439 . S
C68 C93 1.395 . S
N69 Co58 1.995 . S
N69 C70 1.376 . S
N69 C73 1.383 . S
C70 N69 1.376 . S
C70 C71 1.446 . S
C70 C93 1.391 . S
C71 C70 1.446 . S
C71 C72 1.339 . S
C71 H100 0.949 . S
C72 C71 1.339 . S
C72 C73 1.439 . S
C72 H101 0.950 . S
C73 N69 1.383 . S
C73 C72 1.439 . S
C73 C91 1.392 . S
N74 Co58 2.282 1_565 S
N74 C77 1.332 . S
N74 C79 1.332 . S
C75 C76 1.386 . S
C75 C78 1.388 . S
C76 C75 1.386 . S
C76 C77 1.382 . S
C76 H102 0.950 . S
C77 N74 1.332 . S
C77 C76 1.382 . S
C77 H88 0.952 1_565 S
C78 C75 1.388 . S
C78 C79 1.382 . S
C78 H103 0.950 . S
C79 N74 1.332 . S
C79 C78 1.382 . S
C79 H89 0.948 . S
N80 Co58 2.282 . S
N80 C84 1.332 . S
N80 C85 1.332 . S
C81 C82 1.388 . S
C81 C85 1.382 . S
C81 H104 0.950 . S
C82 C81 1.388 . S
C82 C83 1.386 . S
C83 C82 1.386 . S
C83 C84 1.382 . S
C83 H105 0.950 . S
C84 N80 1.332 . S
C84 C83 1.382 . S
C84 H86 0.952 . S
C85 N80 1.332 . S
C85 C81 1.382 . S
C85 H87 0.948 . S
H86 C84 0.952 . S
H87 C85 0.948 . S
H88 C77 0.952 1_545 S
H89 C79 0.948 . S
C90 C56 1.395 . S
C90 C60 1.391 . S
C91 C53 1.389 . S
C91 C73 1.392 . S
C92 C63 1.392 . S
C92 C65 1.389 . S
C93 C68 1.395 . S
C93 C70 1.391 . S
H94 C54 0.951 . S
H95 C55 0.950 . S
H96 C61 0.949 . S
H97 C62 0.950 . S
H98 C66 0.951 . S
H99 C67 0.950 . S
H100 C71 0.949 . S
H101 C72 0.950 . S
H102 C76 0.950 . S
H103 C78 0.950 . S
H104 C81 0.950 . S
H105 C83 0.950 . S
C106 C107 1.443 . S
C106 N110 1.376 . S
C106 C144 1.389 . S
C107 C106 1.443 . S
C107 C108 1.340 . S
C107 H147 0.951 . S
C108 C107 1.340 . S
C108 C109 1.439 . S
C108 H148 0.950 . S
C109 C108 1.439 . S
C109 N110 1.374 . S
C109 C143 1.395 . S
N110 C106 1.376 . S
N110 C109 1.374 . S
N110 Co111 2.008 1_556 S
Co111 N110 2.008 1_554 S
Co111 N112 1.995 1_554 S
Co111 N117 2.008 . S
Co111 N122 1.995 . S
Co111 N127 2.282 . S
Co111 N133 2.282 1_554 S
N112 Co111 1.995 1_556 S
N112 C113 1.376 . S
N112 C116 1.383 1_556 S
C113 N112 1.376 . S
C113 C114 1.446 . S
C113 C143 1.391 . S
C114 C113 1.446 . S
C114 C115 1.339 . S
C114 H149 0.949 . S
C115 C114 1.339 . S
C115 C116 1.439 1_556 S
C115 H150 0.950 . S
C116 N112 1.383 1_554 S
C116 C115 1.439 1_554 S
C116 C145 1.392 . S
N117 Co111 2.008 . S
N117 C118 1.376 . S
N117 C121 1.374 . S
C118 N117 1.376 . S
C118 C119 1.443 . S
C118 C145 1.389 . S
C119 C118 1.443 . S
C119 C120 1.340 . S
C119 H151 0.951 . S
C120 C119 1.340 . S
C120 C121 1.439 . S
C120 H152 0.950 . S
C121 N117 1.374 . S
C121 C120 1.439 . S
C121 C146 1.395 . S
N122 Co111 1.995 . S
N122 C123 1.376 . S
N122 C126 1.383 . S
C123 N122 1.376 . S
C123 C124 1.446 . S
C123 C146 1.391 . S
C124 C123 1.446 . S
C124 C125 1.339 . S
C124 H153 0.949 . S
C125 C124 1.339 . S
C125 C126 1.439 . S
C125 H154 0.950 . S
C126 N122 1.383 . S
C126 C125 1.439 . S
C126 C144 1.392 1_554 S
N127 Co111 2.282 . S
N127 C130 1.332 . S
N127 C132 1.332 . S
C128 C129 1.386 . S
C128 C131 1.388 . S
C129 C128 1.386 . S
C129 C130 1.382 . S
C129 H155 0.950 . S
C130 N127 1.332 . S
C130 C129 1.382 . S
C130 H141 0.952 . S
C131 C128 1.388 . S
C131 C132 1.382 . S
C131 H156 0.950 . S
C132 N127 1.332 . S
C132 C131 1.382 . S
C132 H142 0.948 1_554 S
N133 Co111 2.282 1_556 S
N133 C137 1.332 . S
N133 C138 1.332 . S
C134 C135 1.388 . S
C134 C138 1.382 . S
C134 H157 0.950 . S
C135 C134 1.388 . S
C135 C136 1.386 . S
C136 C135 1.386 . S
C136 C137 1.382 . S
C136 H158 0.950 . S
C137 N133 1.332 . S
C137 C136 1.382 . S
C137 H139 0.952 . S
C138 N133 1.332 . S
C138 C134 1.382 . S
C138 H140 0.948 1_556 S
H139 C137 0.952 . S
H140 C138 0.948 1_554 S
H141 C130 0.952 . S
H142 C132 0.948 1_556 S
C143 C109 1.395 . S
C143 C113 1.391 . S
C144 C106 1.389 . S
C144 C126 1.392 1_556 S
C145 C116 1.392 . S
C145 C118 1.389 . S
C146 C121 1.395 . S
C146 C123 1.391 . S
H147 C107 0.951 . S
H148 C108 0.950 . S
H149 C114 0.949 . S
H150 C115 0.950 . S
H151 C119 0.951 . S
H152 C120 0.950 . S
H153 C124 0.949 . S
H154 C125 0.950 . S
H155 C129 0.950 . S
H156 C131 0.950 . S
H157 C134 0.950 . S
H158 C136 0.950 . S
C159 C160 1.443 . S
C159 N163 1.376 . S
C159 C197 1.389 . S
C160 C159 1.443 . S
C160 C161 1.340 . S
C160 H200 0.951 . S
C161 C160 1.340 . S
C161 C162 1.439 . S
C161 H201 0.950 . S
C162 C161 1.439 . S
C162 N163 1.374 . S
C162 C196 1.395 . S
N163 C159 1.376 . S
N163 C162 1.374 . S
N163 Co164 1.982 1_655 S
Co164 N163 1.982 1_455 S
Co164 N165 1.982 . S
Co164 N170 2.035 . S
Co164 N175 2.018 1_455 S
Co164 N180 2.319 . S
Co164 N186 2.246 1_455 S
N165 Co164 1.982 . S
N165 C166 1.376 1_455 S
N165 C169 1.383 . S
C166 N165 1.376 1_655 S
C166 C167 1.446 . S
C166 C196 1.391 . S
C167 C166 1.446 . S
C167 C168 1.339 1_655 S
C167 H202 0.949 . S
C168 C167 1.339 1_455 S
C168 C169 1.439 . S
C168 H203 0.950 . S
C169 N165 1.383 . S
C169 C168 1.439 . S
C169 C198 1.392 . S
N170 Co164 2.035 . S
N170 C171 1.376 . S
N170 C174 1.374 . S
C171 N170 1.376 . S
C171 C172 1.443 . S
C171 C198 1.389 . S
C172 C171 1.443 . S
C172 C173 1.340 . S
C172 H204 0.951 . S
C173 C172 1.340 . S
C173 C174 1.439 . S
C173 H205 0.950 . S
C174 N170 1.374 . S
C174 C173 1.439 . S
C174 C199 1.395 . S
N175 Co164 2.018 1_655 S
N175 C176 1.356 1_655 S
N175 C179 1.395 . S
C176 N175 1.356 1_455 S
C176 C177 1.446 . S
C176 C199 1.391 . S
C177 C176 1.446 . S
C177 C178 1.339 1_455 S
C177 H206 0.949 . S
C178 C177 1.339 1_655 S
C178 C179 1.439 . S
C178 H207 0.950 . S
C179 N175 1.395 . S
C179 C178 1.439 . S
C179 C197 1.392 . S
N180 Co164 2.319 . S
N180 C183 1.332 . S
N180 C185 1.332 . S
C181 C182 1.386 . S
C181 C184 1.388 . S
C182 C181 1.386 . S
C182 C183 1.382 . S
C182 H208 0.950 . S
C183 N180 1.332 . S
C183 C182 1.382 . S
C183 H194 0.952 . S
C184 C181 1.388 . S
C184 C185 1.382 . S
C184 H209 0.950 . S
C185 N180 1.332 . S
C185 C184 1.382 . S
C185 H195 0.948 . S
N186 Co164 2.246 1_655 S
N186 C190 1.332 . S
N186 C191 1.332 . S
C187 C188 1.388 . S
C187 C191 1.382 . S
C187 H210 0.950 . S
C188 C187 1.388 . S
C188 C189 1.386 . S
C189 C188 1.386 . S
C189 C190 1.382 . S
C189 H211 0.950 . S
C190 N186 1.332 . S
C190 C189 1.382 . S
C190 H192 0.952 . S
C191 N186 1.332 . S
C191 C187 1.382 . S
C191 H193 0.948 . S
H192 C190 0.952 . S
H193 C191 0.948 . S
H194 C183 0.952 . S
H195 C185 0.948 . S
C196 C162 1.395 . S
C196 C166 1.391 . S
C197 C159 1.389 . S
C197 C179 1.392 . S
C198 C169 1.392 . S
C198 C171 1.389 . S
C199 C174 1.395 . S
C199 C176 1.391 . S
H200 C160 0.951 . S
H201 C161 0.950 . S
H202 C167 0.949 . S
H203 C168 0.950 . S
H204 C172 0.951 . S
H205 C173 0.950 . S
H206 C177 0.949 . S
H207 C178 0.950 . S
H208 C182 0.950 . S
H209 C184 0.950 . S
H210 C187 0.950 . S
H211 C189 0.950 . S
C212 C213 1.443 . S
C212 N216 1.370 1_565 S
C212 C250 1.389 . S
C213 C212 1.443 . S
C213 C214 1.340 1_565 S
C213 H253 0.951 . S
C214 C213 1.340 1_545 S
C214 C215 1.439 . S
C214 H254 0.950 . S
C215 C214 1.439 . S
C215 N216 1.382 . S
C215 C249 1.395 . S
N216 C212 1.370 1_545 S
N216 C215 1.382 . S
N216 Co217 2.004 . S
Co217 N216 2.004 . S
Co217 N218 1.995 . S
Co217 N223 2.008 1_554 S
Co217 N228 1.995 1_544 S
Co217 N233 2.282 1_554 S
Co217 N239 2.282 1_545 S
N218 Co217 1.995 . S
N218 C219 1.376 . S
N218 C222 1.383 1_554 S
C219 N218 1.376 . S
C219 C220 1.446 . S
C219 C249 1.391 . S
C220 C219 1.446 . S
C220 C221 1.339 . S
C220 H255 0.949 . S
C221 C220 1.339 . S
C221 C222 1.439 1_554 S
C221 H256 0.950 1_554 S
C222 N218 1.383 1_556 S
C222 C221 1.439 1_556 S
C222 C251 1.392 . S
N223 Co217 2.008 1_556 S
N223 C224 1.376 . S
N223 C227 1.374 1_545 S
C224 N223 1.376 . S
C224 C225 1.443 . S
C224 C251 1.389 . S
C225 C224 1.443 . S
C225 C226 1.340 . S
C225 H257 0.951 . S
C226 C225 1.340 . S
C226 C227 1.439 1_545 S
C226 H258 0.950 1_545 S
C227 N223 1.374 1_565 S
C227 C226 1.439 1_565 S
C227 C252 1.395 . S
N228 Co217 1.995 1_566 S
N228 C229 1.376 . S
N228 C232 1.383 1_556 S
C229 N228 1.376 . S
C229 C230 1.446 . S
C229 C252 1.391 . S
C230 C229 1.446 . S
C230 C231 1.339 . S
C230 H259 0.949 . S
C231 C230 1.339 . S
C231 C232 1.439 1_556 S
C231 H260 0.950 1_556 S
C232 N228 1.383 1_554 S
C232 C231 1.439 1_554 S
C232 C250 1.392 . S
N233 Co217 2.282 1_556 S
N233 C236 1.332 . S
N233 C238 1.332 . S
C234 C235 1.386 . S
C234 C237 1.388 . S
C235 C234 1.386 . S
C235 C236 1.382 . S
C235 H261 0.950 . S
C236 N233 1.332 . S
C236 C235 1.382 . S
C236 H247 0.952 . S
C237 C234 1.388 . S
C237 C238 1.382 . S
C237 H262 0.950 . S
C238 N233 1.332 . S
C238 C237 1.382 . S
C238 H248 0.948 1_556 S
N239 Co217 2.282 1_565 S
N239 C243 1.332 . S
N239 C244 1.332 . S
C240 C241 1.388 . S
C240 C244 1.382 . S
C240 H263 0.950 . S
C241 C240 1.388 . S
C241 C242 1.386 . S
C242 C241 1.386 . S
C242 C243 1.382 . S
C242 H264 0.950 . S
C243 N239 1.332 . S
C243 C242 1.382 . S
C243 H245 0.955 1_565 S
C244 N239 1.332 . S
C244 C240 1.382 . S
C244 H246 0.948 1_554 S
H245 C243 0.955 1_545 S
H246 C244 0.948 1_556 S
H247 C236 0.952 . S
H248 C238 0.948 1_554 S
C249 C215 1.395 . S
C249 C219 1.391 . S
C250 C212 1.389 . S
C250 C232 1.392 . S
C251 C222 1.392 . S
C251 C224 1.389 . S
C252 C227 1.395 . S
C252 C229 1.391 . S
H253 C213 0.951 . S
H254 C214 0.950 . S
H255 C220 0.949 . S
H256 C221 0.950 1_556 S
H257 C225 0.951 . S
H258 C226 0.950 1_565 S
H259 C230 0.949 . S
H260 C231 0.950 1_554 S
H261 C235 0.950 . S
H262 C237 0.950 . S
H263 C240 0.950 . S
H264 C242 0.950 . S
C265 C266 1.443 . S
C265 N269 1.376 . S
C265 C303 1.389 . S
C266 C265 1.443 . S
C266 C267 1.340 . S
C266 H306 0.951 . S
C267 C266 1.340 . S
C267 C268 1.439 . S
C267 H307 0.950 . S
C268 C267 1.439 . S
C268 N269 1.374 . S
C268 C302 1.395 . S
N269 C265 1.376 . S
N269 C268 1.374 . S
N269 Co270 2.008 . S
Co270 N269 2.008 . S
Co270 N271 1.995 . S
Co270 N276 2.008 . S
Co270 N281 1.995 . S
Co270 N286 2.282 . S
Co270 N292 2.282 . S
N271 Co270 1.995 . S
N271 C272 1.376 . S
N271 C275 1.383 . S
C272 N271 1.376 . S
C272 C273 1.446 . S
C272 C302 1.391 . S
C273 C272 1.446 . S
C273 C274 1.339 . S
C273 H308 0.949 . S
C274 C273 1.339 . S
C274 C275 1.439 . S
C274 H309 0.950 . S
C275 N271 1.383 . S
C275 C274 1.439 . S
C275 C304 1.392 . S
N276 Co270 2.008 . S
N276 C277 1.376 . S
N276 C280 1.374 . S
C277 N276 1.376 . S
C277 C278 1.443 . S
C277 C304 1.389 . S
C278 C277 1.443 . S
C278 C279 1.340 . S
C278 H310 0.951 . S
C279 C278 1.340 . S
C279 C280 1.439 . S
C279 H311 0.950 . S
C280 N276 1.374 . S
C280 C279 1.439 . S
C280 C305 1.395 . S
N281 Co270 1.995 . S
N281 C282 1.376 . S
N281 C285 1.383 . S
C282 N281 1.376 . S
C282 C283 1.446 . S
C282 C305 1.391 . S
C283 C282 1.446 . S
C283 C284 1.339 . S
C283 H312 0.949 . S
C284 C283 1.339 . S
C284 C285 1.439 . S
C284 H313 0.950 . S
C285 N281 1.383 . S
C285 C284 1.439 . S
C285 C303 1.392 . S
N286 Co270 2.282 . S
N286 C289 1.332 . S
N286 C291 1.332 . S
C287 C288 1.386 . S
C287 C290 1.388 . S
C288 C287 1.386 . S
C288 C289 1.382 . S
C288 H314 0.950 . S
C289 N286 1.332 . S
C289 C288 1.382 . S
C289 H300 0.952 . S
C290 C287 1.388 . S
C290 C291 1.382 . S
C290 H315 0.950 . S
C291 N286 1.332 . S
C291 C290 1.382 . S
C291 H301 0.948 . S
N292 Co270 2.282 . S
N292 C296 1.332 . S
N292 C297 1.332 . S
C293 C294 1.388 . S
C293 C297 1.382 . S
C293 H316 0.950 . S
C294 C293 1.388 . S
C294 C295 1.386 . S
C295 C294 1.386 . S
C295 C296 1.382 . S
C295 H317 0.950 . S
C296 N292 1.332 . S
C296 C295 1.382 . S
C296 H298 0.952 . S
C297 N292 1.332 . S
C297 C293 1.382 . S
C297 H299 0.948 . S
H298 C296 0.952 . S
H299 C297 0.948 . S
H300 C289 0.952 . S
H301 C291 0.948 . S
C302 C268 1.395 . S
C302 C272 1.391 . S
C303 C265 1.389 . S
C303 C285 1.392 . S
C304 C275 1.392 . S
C304 C277 1.389 . S
C305 C280 1.395 . S
C305 C282 1.391 . S
H306 C266 0.951 . S
H307 C267 0.950 . S
H308 C273 0.949 . S
H309 C274 0.950 . S
H310 C278 0.951 . S
H311 C279 0.950 . S
H312 C283 0.949 . S
H313 C284 0.950 . S
H314 C288 0.950 . S
H315 C290 0.950 . S
H316 C293 0.950 . S
H317 C295 0.950 . S
H318 C326 0.930 . S
H319 C329 0.930 . S
H320 C331 0.930 . S
H321 C332 0.970 . S
H322 C332 0.970 . S
H323 C334 0.930 . S
H324 C336 0.930 . S
H325 C338 0.930 . S
C326 H318 0.930 . S
C326 C327 1.382 . S
C326 C328 1.426 . S
C327 C326 1.382 . S
C327 C331 1.389 . S
C328 C326 1.426 . S
C328 C329 1.375 . S
C328 C332 1.532 . S
C329 H319 0.930 . S
C329 C328 1.375 . S
C329 C330 1.416 . S
C330 C329 1.416 . S
C330 C331 1.371 . S
C331 H320 0.930 . S
C331 C327 1.389 . S
C331 C330 1.371 . S
C332 H321 0.970 . S
C332 H322 0.970 . S
C332 C328 1.532 . S
C332 C333 1.499 . S
C333 C332 1.499 . S
C333 C334 1.370 . S
C333 C338 1.415 . S
C334 H323 0.930 . S
C334 C333 1.370 . S
C334 C335 1.407 . S
C335 C334 1.407 . S
C335 C336 1.365 . S
C336 H324 0.930 . S
C336 C335 1.365 . S
C336 C337 1.393 . S
C337 C336 1.393 . S
C337 C338 1.387 . S
C338 H325 0.930 . S
C338 C333 1.415 . S
C338 C337 1.387 . S
H339 C347 0.930 . S
H340 C350 0.930 . S
H341 C352 0.930 . S
H342 C353 0.970 . S
H343 C353 0.970 . S
H344 C355 0.930 . S
H345 C357 0.930 . S
H346 C359 0.930 . S
C347 H339 0.930 . S
C347 C348 1.382 . S
C347 C349 1.426 . S
C348 C347 1.382 . S
C348 C352 1.389 . S
C349 C347 1.426 . S
C349 C350 1.375 . S
C349 C353 1.532 . S
C350 H340 0.930 . S
C350 C349 1.375 . S
C350 C351 1.416 . S
C351 C350 1.416 . S
C351 C352 1.371 . S
C352 H341 0.930 . S
C352 C348 1.389 . S
C352 C351 1.371 . S
C353 H342 0.970 . S
C353 H343 0.970 . S
C353 C349 1.532 . S
C353 C354 1.499 . S
C354 C353 1.499 . S
C354 C355 1.370 . S
C354 C359 1.415 . S
C355 H344 0.930 . S
C355 C354 1.370 . S
C355 C356 1.407 . S
C356 C355 1.407 . S
C356 C357 1.365 . S
C357 H345 0.930 . S
C357 C356 1.365 . S
C357 C358 1.393 . S
C358 C357 1.393 . S
C358 C359 1.387 . S
C359 H346 0.930 . S
C359 C354 1.415 . S
C359 C358 1.387 . S
H360 C368 0.930 . S
H361 C371 0.930 . S
H362 C373 0.930 . S
H363 C374 0.970 . S
H364 C374 0.970 . S
H365 C376 0.930 . S
H366 C378 0.930 . S
H367 C380 0.930 . S
C368 H360 0.930 . S
C368 C369 1.382 . S
C368 C370 1.426 . S
C369 C368 1.382 . S
C369 C373 1.389 . S
C370 C368 1.426 . S
C370 C371 1.375 . S
C370 C374 1.532 . S
C371 H361 0.930 . S
C371 C370 1.375 . S
C371 C372 1.416 . S
C372 C371 1.416 . S
C372 C373 1.371 . S
C373 H362 0.930 . S
C373 C369 1.389 . S
C373 C372 1.371 . S
C374 H363 0.970 . S
C374 H364 0.970 . S
C374 C370 1.532 . S
C374 C375 1.499 . S
C375 C374 1.499 . S
C375 C376 1.370 . S
C375 C380 1.415 . S
C376 H365 0.930 . S
C376 C375 1.370 . S
C376 C377 1.407 . S
C377 C376 1.407 . S
C377 C378 1.365 . S
C378 H366 0.930 . S
C378 C377 1.365 . S
C378 C379 1.393 . S
C379 C378 1.393 . S
C379 C380 1.387 . S
C380 H367 0.930 . S
C380 C375 1.415 . S
C380 C379 1.387 . S
H381 C389 0.930 . S
H382 C392 0.930 . S
H383 C394 0.930 . S
H384 C395 0.970 . S
H385 C395 0.970 . S
H386 C397 0.930 . S
H387 C399 0.930 . S
H388 C401 0.930 . S
C389 H381 0.930 . S
C389 C390 1.382 . S
C389 C391 1.426 . S
C390 C389 1.382 . S
C390 C394 1.389 . S
C391 C389 1.426 . S
C391 C392 1.375 . S
C391 C395 1.532 . S
C392 H382 0.930 . S
C392 C391 1.375 . S
C392 C393 1.416 . S
C393 C392 1.416 . S
C393 C394 1.371 . S
C394 H383 0.930 . S
C394 C390 1.389 . S
C394 C393 1.371 . S
C395 H384 0.970 . S
C395 H385 0.970 . S
C395 C391 1.532 . S
C395 C396 1.499 . S
C396 C395 1.499 . S
C396 C397 1.370 . S
C396 C401 1.415 . S
C397 H386 0.930 . S
C397 C396 1.370 . S
C397 C398 1.407 . S
C398 C397 1.407 . S
C398 C399 1.365 . S
C399 H387 0.930 . S
C399 C398 1.365 . S
C399 C400 1.393 . S
C400 C399 1.393 . S
C400 C401 1.387 . S
C401 H388 0.930 . S
C401 C396 1.415 . S
C401 C400 1.387 . S
H402 C410 0.930 . S
H403 C413 0.930 . S
H404 C415 0.930 . S
H405 C416 0.970 . S
H406 C416 0.970 . S
H407 C418 0.930 . S
H408 C420 0.930 . S
H409 C422 0.930 . S
C410 H402 0.930 . S
C410 C411 1.382 . S
C410 C412 1.426 . S
C411 C410 1.382 . S
C411 C415 1.389 . S
C412 C410 1.426 . S
C412 C413 1.375 . S
C412 C416 1.532 . S
C413 H403 0.930 . S
C413 C412 1.375 . S
C413 C414 1.416 . S
C414 C413 1.416 . S
C414 C415 1.371 . S
C415 H404 0.930 . S
C415 C411 1.389 . S
C415 C414 1.371 . S
C416 H405 0.970 . S
C416 H406 0.970 . S
C416 C412 1.532 . S
C416 C417 1.499 . S
C417 C416 1.499 . S
C417 C418 1.370 . S
C417 C422 1.415 . S
C418 H407 0.930 . S
C418 C417 1.370 . S
C418 C419 1.407 . S
C419 C418 1.407 . S
C419 C420 1.365 . S
C420 H408 0.930 . S
C420 C419 1.365 . S
C420 C421 1.393 . S
C421 C420 1.393 . S
C421 C422 1.387 . S
C422 H409 0.930 . S
C422 C417 1.415 . S
C422 C421 1.387 . S
H423 C431 0.930 . S
H424 C434 0.930 . S
H425 C436 0.930 . S
H426 C437 0.970 . S
H427 C437 0.970 . S
H428 C439 0.930 . S
H429 C441 0.930 . S
H430 C443 0.930 . S
C431 H423 0.930 . S
C431 C432 1.382 . S
C431 C433 1.426 . S
C432 C431 1.382 . S
C432 C436 1.389 . S
C433 C431 1.426 . S
C433 C434 1.375 . S
C433 C437 1.532 . S
C434 H424 0.930 . S
C434 C433 1.375 . S
C434 C435 1.416 . S
C435 C434 1.416 . S
C435 C436 1.371 . S
C436 H425 0.930 . S
C436 C432 1.389 . S
C436 C435 1.371 . S
C437 H426 0.970 . S
C437 H427 0.970 . S
C437 C433 1.532 . S
C437 C438 1.499 . S
C438 C437 1.499 . S
C438 C439 1.370 . S
C438 C443 1.415 . S
C439 H428 0.930 . S
C439 C438 1.370 . S
C439 C440 1.407 . S
C440 C439 1.407 . S
C440 C441 1.365 . S
C441 H429 0.930 . S
C441 C440 1.365 . S
C441 C442 1.393 . S
C442 C441 1.393 . S
C442 C443 1.387 . S
C443 H430 0.930 . S
C443 C438 1.415 . S
C443 C442 1.387 . S
H444 C452 0.950 . S
H445 C457 0.950 . S
H446 C454 0.950 . S
H447 C456 0.950 . S
H448 C458 0.950 . S
H449 C460 0.950 . S
H450 C462 0.950 . S
H451 C463 0.950 . S
C452 H444 0.950 . S
C452 C453 1.386 . S
C452 C454 1.391 . S
C453 C452 1.386 . S
C453 C457 1.393 . S
C454 H446 0.950 . S
C454 C452 1.391 . S
C454 C455 1.400 . S
C455 C454 1.400 . S
C455 C456 1.398 . S
C455 C461 1.491 . S
C456 H447 0.950 . S
C456 C455 1.398 . S
C456 C457 1.391 . S
C457 H445 0.950 . S
C457 C453 1.393 . S
C457 C456 1.391 . S
C458 H448 0.950 . S
C458 C459 1.386 . S
C458 C460 1.391 . S
C459 C458 1.386 . S
C459 C463 1.393 . S
C460 H449 0.950 . S
C460 C458 1.391 . S
C460 C461 1.400 . S
C461 C455 1.491 . S
C461 C460 1.400 . S
C461 C462 1.398 . S
C462 H450 0.950 . S
C462 C461 1.398 . S
C462 C463 1.391 . S
C463 H451 0.950 . S
C463 C459 1.393 . S
C463 C462 1.391 . S
H464 C472 0.950 . S
H465 C477 0.950 . S
H466 C474 0.950 . S
H467 C476 0.950 . S
H468 C478 0.950 . S
H469 C480 0.950 . S
H470 C482 0.950 . S
H471 C483 0.950 . S
C472 H464 0.950 . S
C472 C473 1.386 . S
C472 C474 1.391 . S
C473 C472 1.386 . S
C473 C477 1.393 . S
C474 H466 0.950 . S
C474 C472 1.391 . S
C474 C475 1.400 . S
C475 C474 1.400 . S
C475 C476 1.398 . S
C475 C481 1.491 . S
C476 H467 0.950 . S
C476 C475 1.398 . S
C476 C477 1.391 . S
C477 H465 0.950 . S
C477 C473 1.393 . S
C477 C476 1.391 . S
C478 H468 0.950 . S
C478 C479 1.386 . S
C478 C480 1.391 . S
C479 C478 1.386 . S
C479 C483 1.393 . S
C480 H469 0.950 . S
C480 C478 1.391 . S
C480 C481 1.400 . S
C481 C475 1.491 . S
C481 C480 1.400 . S
C481 C482 1.398 . S
C482 H470 0.950 . S
C482 C481 1.398 . S
C482 C483 1.391 . S
C483 H471 0.950 . S
C483 C479 1.393 . S
C483 C482 1.391 . S
H484 C492 0.950 . S
H485 C497 0.950 . S
H486 C494 0.950 . S
H487 C496 0.950 . S
H488 C498 0.950 . S
H489 C500 0.950 . S
H490 C502 0.950 . S
H491 C503 0.950 . S
C492 H484 0.950 . S
C492 C493 1.386 . S
C492 C494 1.391 . S
C493 C492 1.386 . S
C493 C497 1.393 . S
C494 H486 0.950 . S
C494 C492 1.391 . S
C494 C495 1.400 . S
C495 C494 1.400 . S
C495 C496 1.398 . S
C495 C501 1.491 . S
C496 H487 0.950 . S
C496 C495 1.398 . S
C496 C497 1.391 . S
C497 H485 0.950 . S
C497 C493 1.393 . S
C497 C496 1.391 . S
C498 H488 0.950 . S
C498 C499 1.386 . S
C498 C500 1.391 . S
C499 C498 1.386 . S
C499 C503 1.393 . S
C500 H489 0.950 . S
C500 C498 1.391 . S
C500 C501 1.400 . S
C501 C495 1.491 . S
C501 C500 1.400 . S
C501 C502 1.398 . S
C502 H490 0.950 . S
C502 C501 1.398 . S
C502 C503 1.391 . S
C503 H491 0.950 . S
C503 C499 1.393 . S
C503 C502 1.391 . S
H504 C512 0.950 . S
H505 C517 0.950 . S
H506 C514 0.950 . S
H507 C516 0.950 . S
H508 C518 0.950 . S
H509 C520 0.950 . S
H510 C522 0.950 . S
H511 C523 0.950 . S
C512 H504 0.950 . S
C512 C513 1.386 . S
C512 C514 1.391 . S
C513 C512 1.386 . S
C513 C517 1.393 . S
C514 H506 0.950 . S
C514 C512 1.391 . S
C514 C515 1.400 . S
C515 C514 1.400 . S
C515 C516 1.398 . S
C515 C521 1.491 . S
C516 H507 0.950 . S
C516 C515 1.398 . S
C516 C517 1.391 . S
C517 H505 0.950 . S
C517 C513 1.393 . S
C517 C516 1.391 . S
C518 H508 0.950 . S
C518 C519 1.386 . S
C518 C520 1.391 . S
C519 C518 1.386 . S
C519 C523 1.393 . S
C520 H509 0.950 . S
C520 C518 1.391 . S
C520 C521 1.400 . S
C521 C515 1.491 . S
C521 C520 1.400 . S
C521 C522 1.398 . S
C522 H510 0.950 . S
C522 C521 1.398 . S
C522 C523 1.391 . S
C523 H511 0.950 . S
C523 C519 1.393 . S
C523 C522 1.391 . S
H524 C532 0.950 . S
H525 C537 0.950 . S
H526 C534 0.950 . S
H527 C536 0.950 . S
H528 C538 0.950 . S
H529 C540 0.950 . S
H530 C542 0.950 . S
H531 C543 0.950 . S
C532 H524 0.950 . S
C532 C533 1.386 . S
C532 C534 1.391 . S
C533 C532 1.386 . S
C533 C537 1.393 . S
C534 H526 0.950 . S
C534 C532 1.391 . S
C534 C535 1.400 . S
C535 C534 1.400 . S
C535 C536 1.398 . S
C535 C541 1.491 . S
C536 H527 0.950 . S
C536 C535 1.398 . S
C536 C537 1.391 . S
C537 H525 0.950 . S
C537 C533 1.393 . S
C537 C536 1.391 . S
C538 H528 0.950 . S
C538 C539 1.386 . S
C538 C540 1.391 . S
C539 C538 1.386 . S
C539 C543 1.393 . S
C540 H529 0.950 . S
C540 C538 1.391 . S
C540 C541 1.400 . S
C541 C535 1.491 . S
C541 C540 1.400 . S
C541 C542 1.398 . S
C542 H530 0.950 . S
C542 C541 1.398 . S
C542 C543 1.391 . S
C543 H531 0.950 . S
C543 C539 1.393 . S
C543 C542 1.391 . S
H544 C552 0.950 . S
H545 C557 0.950 . S
H546 C554 0.950 . S
H547 C556 0.950 . S
H548 C558 0.950 . S
H549 C560 0.950 . S
H550 C562 0.950 . S
H551 C563 0.950 . S
C552 H544 0.950 . S
C552 C553 1.386 . S
C552 C554 1.391 . S
C553 C552 1.386 . S
C553 C557 1.393 . S
C554 H546 0.950 . S
C554 C552 1.391 . S
C554 C555 1.400 . S
C555 C554 1.400 . S
C555 C556 1.398 . S
C555 C561 1.491 . S
C556 H547 0.950 . S
C556 C555 1.398 . S
C556 C557 1.391 . S
C557 H545 0.950 . S
C557 C553 1.393 . S
C557 C556 1.391 . S
C558 H548 0.950 . S
C558 C559 1.386 . S
C558 C560 1.391 . S
C559 C558 1.386 . S
C559 C563 1.393 . S
C560 H549 0.950 . S
C560 C558 1.391 . S
C560 C561 1.400 . S
C561 C555 1.491 . S
C561 C560 1.400 . S
C561 C562 1.398 . S
C562 H550 0.950 . S
C562 C561 1.398 . S
C562 C563 1.391 . S
C563 H551 0.950 . S
C563 C559 1.393 . S
C563 C562 1.391 . S
H564 C572 0.950 . S
H565 C577 0.950 . S
H566 C574 0.950 . S
H567 C576 0.950 . S
H568 C578 0.950 . S
H569 C580 0.950 . S
H570 C582 0.950 . S
H571 C583 0.950 . S
C572 H564 0.950 . S
C572 C573 1.386 . S
C572 C574 1.391 . S
C573 C572 1.386 . S
C573 C577 1.393 . S
C574 H566 0.950 . S
C574 C572 1.391 . S
C574 C575 1.400 . S
C575 C574 1.400 . S
C575 C576 1.398 . S
C575 C581 1.491 . S
C576 H567 0.950 . S
C576 C575 1.398 . S
C576 C577 1.391 . S
C577 H565 0.950 . S
C577 C573 1.393 . S
C577 C576 1.391 . S
C578 H568 0.950 . S
C578 C579 1.386 . S
C578 C580 1.391 . S
C579 C578 1.386 . S
C579 C583 1.393 . S
C580 H569 0.950 . S
C580 C578 1.391 . S
C580 C581 1.400 . S
C581 C575 1.491 . S
C581 C580 1.400 . S
C581 C582 1.398 . S
C582 H570 0.950 . S
C582 C581 1.398 . S
C582 C583 1.391 . S
C583 H571 0.950 . S
C583 C579 1.393 . S
C583 C582 1.391 . S
H584 C592 0.950 . S
H585 C597 0.950 . S
H586 C594 0.950 . S
H587 C596 0.950 . S
H588 C598 0.950 . S
H589 C600 0.950 . S
H590 C602 0.950 . S
H591 C603 0.950 . S
C592 H584 0.950 . S
C592 C593 1.386 . S
C592 C594 1.391 . S
C593 C592 1.386 . S
C593 C597 1.393 . S
C594 H586 0.950 . S
C594 C592 1.391 . S
C594 C595 1.400 . S
C595 C594 1.400 . S
C595 C596 1.398 . S
C595 C601 1.491 . S
C596 H587 0.950 . S
C596 C595 1.398 . S
C596 C597 1.391 . S
C597 H585 0.950 . S
C597 C593 1.393 . S
C597 C596 1.391 . S
C598 H588 0.950 . S
C598 C599 1.386 . S
C598 C600 1.391 . S
C599 C598 1.386 . S
C599 C603 1.393 . S
C600 H589 0.950 . S
C600 C598 1.391 . S
C600 C601 1.400 . S
C601 C595 1.491 . S
C601 C600 1.400 . S
C601 C602 1.398 . S
C602 H590 0.950 . S
C602 C601 1.398 . S
C602 C603 1.391 . S
C603 H591 0.950 . S
C603 C599 1.393 . S
C603 C602 1.391 . S
H604 C612 0.950 . S
H605 C617 0.950 . S
H606 C614 0.950 . S
H607 C616 0.950 . S
H608 C618 0.950 . S
H609 C620 0.950 . S
H610 C622 0.950 . S
H611 C623 0.950 . S
C612 H604 0.950 . S
C612 C613 1.386 . S
C612 C614 1.391 . S
C613 C612 1.386 . S
C613 C617 1.393 . S
C614 H606 0.950 . S
C614 C612 1.391 . S
C614 C615 1.400 . S
C615 C614 1.400 . S
C615 C616 1.398 . S
C615 C621 1.491 . S
C616 H607 0.950 . S
C616 C615 1.398 . S
C616 C617 1.391 . S
C617 H605 0.950 . S
C617 C613 1.393 . S
C617 C616 1.391 . S
C618 H608 0.950 . S
C618 C619 1.386 . S
C618 C620 1.391 . S
C619 C618 1.386 . S
C619 C623 1.393 . S
C620 H609 0.950 . S
C620 C618 1.391 . S
C620 C621 1.400 . S
C621 C615 1.491 . S
C621 C620 1.400 . S
C621 C622 1.398 . S
C622 H610 0.950 . S
C622 C621 1.398 . S
C622 C623 1.391 . S
C623 H611 0.950 . S
C623 C619 1.393 . S
C623 C622 1.391 . S
H624 C632 0.950 . S
H625 C637 0.950 . S
H626 C634 0.950 . S
H627 C636 0.950 . S
H628 C638 0.950 . S
H629 C640 0.950 . S
H630 C642 0.950 . S
H631 C643 0.950 . S
C632 H624 0.950 . S
C632 C633 1.386 . S
C632 C634 1.391 . S
C633 C632 1.386 . S
C633 C637 1.393 . S
C634 H626 0.950 . S
C634 C632 1.391 . S
C634 C635 1.400 . S
C635 C634 1.400 . S
C635 C636 1.398 . S
C635 C641 1.491 . S
C636 H627 0.950 . S
C636 C635 1.398 . S
C636 C637 1.391 . S
C637 H625 0.950 . S
C637 C633 1.393 . S
C637 C636 1.391 . S
C638 H628 0.950 . S
C638 C639 1.386 . S
C638 C640 1.391 . S
C639 C638 1.386 . S
C639 C643 1.393 . S
C640 H629 0.950 . S
C640 C638 1.391 . S
C640 C641 1.400 . S
C641 C635 1.491 . S
C641 C640 1.400 . S
C641 C642 1.398 . S
C642 H630 0.950 . S
C642 C641 1.398 . S
C642 C643 1.391 . S
C643 H631 0.950 . S
C643 C639 1.393 . S
C643 C642 1.391 . S
H644 C652 0.950 . S
H645 C657 0.950 . S
H646 C654 0.950 . S
H647 C656 0.950 . S
H648 C658 0.950 . S
H649 C660 0.950 . S
H650 C662 0.950 . S
H651 C663 0.950 . S
C652 H644 0.950 . S
C652 C653 1.386 . S
C652 C654 1.391 . S
C653 C652 1.386 . S
C653 C657 1.393 . S
C654 H646 0.950 . S
C654 C652 1.391 . S
C654 C655 1.400 . S
C655 C654 1.400 . S
C655 C656 1.398 . S
C655 C661 1.491 . S
C656 H647 0.950 . S
C656 C655 1.398 . S
C656 C657 1.391 . S
C657 H645 0.950 . S
C657 C653 1.393 . S
C657 C656 1.391 . S
C658 H648 0.950 . S
C658 C659 1.386 . S
C658 C660 1.391 . S
C659 C658 1.386 . S
C659 C663 1.393 . S
C660 H649 0.950 . S
C660 C658 1.391 . S
C660 C661 1.400 . S
C661 C655 1.491 . S
C661 C660 1.400 . S
C661 C662 1.398 . S
C662 H650 0.950 . S
C662 C661 1.398 . S
C662 C663 1.391 . S
C663 H651 0.950 . S
C663 C659 1.393 . S
C663 C662 1.391 . S
H664 C672 0.950 . S
H665 C677 0.950 . S
H666 C674 0.950 . S
H667 C676 0.950 . S
H668 C678 0.950 . S
H669 C680 0.950 . S
H670 C682 0.950 . S
H671 C683 0.950 . S
C672 H664 0.950 . S
C672 C673 1.386 . S
C672 C674 1.391 . S
C673 C672 1.386 . S
C673 C677 1.393 . S
C674 H666 0.950 . S
C674 C672 1.391 . S
C674 C675 1.400 . S
C675 C674 1.400 . S
C675 C676 1.398 . S
C675 C681 1.491 . S
C676 H667 0.950 . S
C676 C675 1.398 . S
C676 C677 1.391 . S
C677 H665 0.950 . S
C677 C673 1.393 . S
C677 C676 1.391 . S
C678 H668 0.950 . S
C678 C679 1.386 . S
C678 C680 1.391 . S
C679 C678 1.386 . S
C679 C683 1.393 . S
C680 H669 0.950 . S
C680 C678 1.391 . S
C680 C681 1.400 . S
C681 C675 1.491 . S
C681 C680 1.400 . S
C681 C682 1.398 . S
C682 H670 0.950 . S
C682 C681 1.398 . S
C682 C683 1.391 . S
C683 H671 0.950 . S
C683 C679 1.393 . S
C683 C682 1.391 . S
H684 C692 0.950 . S
H685 C697 0.950 . S
H686 C694 0.950 . S
H687 C696 0.950 . S
H688 C698 0.950 . S
H689 C700 0.950 . S
H690 C702 0.950 . S
H691 C703 0.950 . S
C692 H684 0.950 . S
C692 C693 1.386 . S
C692 C694 1.391 . S
C693 C692 1.386 . S
C693 C697 1.393 . S
C694 H686 0.950 . S
C694 C692 1.391 . S
C694 C695 1.400 . S
C695 C694 1.400 . S
C695 C696 1.398 . S
C695 C701 1.491 . S
C696 H687 0.950 . S
C696 C695 1.398 . S
C696 C697 1.391 . S
C697 H685 0.950 . S
C697 C693 1.393 . S
C697 C696 1.391 . S
C698 H688 0.950 . S
C698 C699 1.386 . S
C698 C700 1.391 . S
C699 C698 1.386 . S
C699 C703 1.393 . S
C700 H689 0.950 . S
C700 C698 1.391 . S
C700 C701 1.400 . S
C701 C695 1.491 . S
C701 C700 1.400 . S
C701 C702 1.398 . S
C702 H690 0.950 . S
C702 C701 1.398 . S
C702 C703 1.391 . S
C703 H691 0.950 . S
C703 C699 1.393 . S
C703 C702 1.391 . S
H704 C712 0.950 . S
H705 C717 0.950 . S
H706 C714 0.950 . S
H707 C716 0.950 . S
H708 C718 0.950 . S
H709 C720 0.950 . S
H710 C722 0.950 . S
H711 C723 0.950 . S
C712 H704 0.950 . S
C712 C713 1.386 . S
C712 C714 1.391 . S
C713 C712 1.386 . S
C713 C717 1.393 . S
C714 H706 0.950 . S
C714 C712 1.391 . S
C714 C715 1.400 . S
C715 C714 1.400 . S
C715 C716 1.398 . S
C715 C721 1.491 . S
C716 H707 0.950 . S
C716 C715 1.398 . S
C716 C717 1.391 . S
C717 H705 0.950 . S
C717 C713 1.393 . S
C717 C716 1.391 . S
C718 H708 0.950 . S
C718 C719 1.386 . S
C718 C720 1.391 . S
C719 C718 1.386 . S
C719 C723 1.393 . S
C720 H709 0.950 . S
C720 C718 1.391 . S
C720 C721 1.400 . S
C721 C715 1.491 . S
C721 C720 1.400 . S
C721 C722 1.398 . S
C722 H710 0.950 . S
C722 C721 1.398 . S
C722 C723 1.391 . S
C723 H711 0.950 . S
C723 C719 1.393 . S
C723 C722 1.391 . S
H724 C732 0.950 . S
H725 C737 0.950 . S
H726 C734 0.950 . S
H727 C736 0.950 . S
H728 C738 0.950 . S
H729 C740 0.950 . S
H730 C742 0.950 . S
H731 C743 0.950 . S
C732 H724 0.950 . S
C732 C733 1.386 . S
C732 C734 1.391 . S
C733 C732 1.386 . S
C733 C737 1.393 . S
C734 H726 0.950 . S
C734 C732 1.391 . S
C734 C735 1.400 . S
C735 C734 1.400 . S
C735 C736 1.398 . S
C735 C741 1.491 . S
C736 H727 0.950 . S
C736 C735 1.398 . S
C736 C737 1.391 . S
C737 H725 0.950 . S
C737 C733 1.393 . S
C737 C736 1.391 . S
C738 H728 0.950 . S
C738 C739 1.386 . S
C738 C740 1.391 . S
C739 C738 1.386 . S
C739 C743 1.393 . S
C740 H729 0.950 . S
C740 C738 1.391 . S
C740 C741 1.400 . S
C741 C735 1.491 . S
C741 C740 1.400 . S
C741 C742 1.398 . S
C742 H730 0.950 . S
C742 C741 1.398 . S
C742 C743 1.391 . S
C743 H731 0.950 . S
C743 C739 1.393 . S
C743 C742 1.391 . S
H744 C752 0.950 . S
H745 C757 0.950 . S
H746 C754 0.950 . S
H747 C756 0.950 . S
H748 C758 0.950 . S
H749 C760 0.950 . S
H750 C762 0.950 . S
H751 C763 0.950 . S
C752 H744 0.950 . S
C752 C753 1.386 . S
C752 C754 1.391 . S
C753 C752 1.386 . S
C753 C757 1.393 . S
C754 H746 0.950 . S
C754 C752 1.391 . S
C754 C755 1.400 . S
C755 C754 1.400 . S
C755 C756 1.398 . S
C755 C761 1.491 . S
C756 H747 0.950 . S
C756 C755 1.398 . S
C756 C757 1.391 . S
C757 H745 0.950 . S
C757 C753 1.393 . S
C757 C756 1.391 . S
C758 H748 0.950 . S
C758 C759 1.386 . S
C758 C760 1.391 . S
C759 C758 1.386 . S
C759 C763 1.393 . S
C760 H749 0.950 . S
C760 C758 1.391 . S
C760 C761 1.400 . S
C761 C755 1.491 . S
C761 C760 1.400 . S
C761 C762 1.398 . S
C762 H750 0.950 . S
C762 C761 1.398 . S
C762 C763 1.391 . S
C763 H751 0.950 . S
C763 C759 1.393 . S
C763 C762 1.391 . S
H764 C772 0.950 . S
H765 C777 0.950 . S
H766 C774 0.950 . S
H767 C776 0.950 . S
H768 C778 0.950 . S
H769 C780 0.950 . S
H770 C782 0.950 . S
H771 C783 0.950 . S
C772 H764 0.950 . S
C772 C773 1.386 . S
C772 C774 1.391 . S
C773 C772 1.386 . S
C773 C777 1.393 . S
C774 H766 0.950 . S
C774 C772 1.391 . S
C774 C775 1.400 . S
C775 C774 1.400 . S
C775 C776 1.398 . S
C775 C781 1.491 . S
C776 H767 0.950 . S
C776 C775 1.398 . S
C776 C777 1.391 . S
C777 H765 0.950 . S
C777 C773 1.393 . S
C777 C776 1.391 . S
C778 H768 0.950 . S
C778 C779 1.386 . S
C778 C780 1.391 . S
C779 C778 1.386 . S
C779 C783 1.393 . S
C780 H769 0.950 . S
C780 C778 1.391 . S
C780 C781 1.400 . S
C781 C775 1.491 . S
C781 C780 1.400 . S
C781 C782 1.398 . S
C782 H770 0.950 . S
C782 C781 1.398 . S
C782 C783 1.391 . S
C783 H771 0.950 . S
C783 C779 1.393 . S
C783 C782 1.391 . S
H784 C792 0.950 . S
H785 C797 0.950 . S
H786 C794 0.950 . S
H787 C796 0.950 . S
H788 C798 0.950 . S
H789 C800 0.950 . S
H790 C802 0.950 . S
H791 C803 0.950 . S
C792 H784 0.950 . S
C792 C793 1.386 . S
C792 C794 1.391 . S
C793 C792 1.386 . S
C793 C797 1.393 . S
C794 H786 0.950 . S
C794 C792 1.391 . S
C794 C795 1.400 . S
C795 C794 1.400 . S
C795 C796 1.398 . S
C795 C801 1.491 . S
C796 H787 0.950 . S
C796 C795 1.398 . S
C796 C797 1.391 . S
C797 H785 0.950 . S
C797 C793 1.393 . S
C797 C796 1.391 . S
C798 H788 0.950 . S
C798 C799 1.386 . S
C798 C800 1.391 . S
C799 C798 1.386 . S
C799 C803 1.393 . S
C800 H789 0.950 . S
C800 C798 1.391 . S
C800 C801 1.400 . S
C801 C795 1.491 . S
C801 C800 1.400 . S
C801 C802 1.398 . S
C802 H790 0.950 . S
C802 C801 1.398 . S
C802 C803 1.391 . S
C803 H791 0.950 . S
C803 C799 1.393 . S
C803 C802 1.391 . S
H804 C812 0.950 . S
H805 C817 0.950 . S
H806 C814 0.950 . S
H807 C816 0.950 . S
H808 C818 0.950 . S
H809 C820 0.950 . S
H810 C822 0.950 . S
H811 C823 0.950 . S
C812 H804 0.950 . S
C812 C813 1.386 . S
C812 C814 1.391 . S
C813 C812 1.386 . S
C813 C817 1.393 . S
C814 H806 0.950 . S
C814 C812 1.391 . S
C814 C815 1.400 . S
C815 C814 1.400 . S
C815 C816 1.398 . S
C815 C821 1.491 . S
C816 H807 0.950 . S
C816 C815 1.398 . S
C816 C817 1.391 . S
C817 H805 0.950 . S
C817 C813 1.393 . S
C817 C816 1.391 . S
C818 H808 0.950 . S
C818 C819 1.386 . S
C818 C820 1.391 . S
C819 C818 1.386 . S
C819 C823 1.393 . S
C820 H809 0.950 . S
C820 C818 1.391 . S
C820 C821 1.400 . S
C821 C815 1.491 . S
C821 C820 1.400 . S
C821 C822 1.398 . S
C822 H810 0.950 . S
C822 C821 1.398 . S
C822 C823 1.391 . S
C823 H811 0.950 . S
C823 C819 1.393 . S
C823 C822 1.391 . S
H824 C832 0.950 . S
H825 C837 0.950 . S
H826 C834 0.950 . S
H827 C836 0.950 . S
H828 C838 0.950 . S
H829 C840 0.950 . S
H830 C842 0.950 . S
H831 C843 0.950 . S
C832 H824 0.950 . S
C832 C833 1.386 . S
C832 C834 1.391 . S
C833 C832 1.386 . S
C833 C837 1.393 . S
C834 H826 0.950 . S
C834 C832 1.391 . S
C834 C835 1.400 . S
C835 C834 1.400 . S
C835 C836 1.398 . S
C835 C841 1.491 . S
C836 H827 0.950 . S
C836 C835 1.398 . S
C836 C837 1.391 . S
C837 H825 0.950 . S
C837 C833 1.393 . S
C837 C836 1.391 . S
C838 H828 0.950 . S
C838 C839 1.386 . S
C838 C840 1.391 . S
C839 C838 1.386 . S
C839 C843 1.393 . S
C840 H829 0.950 . S
C840 C838 1.391 . S
C840 C841 1.400 . S
C841 C835 1.491 . S
C841 C840 1.400 . S
C841 C842 1.398 . S
C842 H830 0.950 . S
C842 C841 1.398 . S
C842 C843 1.391 . S
C843 H831 0.950 . S
C843 C839 1.393 . S
C843 C842 1.391 . S
H844 C852 0.950 . S
H845 C857 0.950 . S
H846 C854 0.950 . S
H847 C856 0.950 . S
H848 C858 0.950 . S
H849 C860 0.950 . S
H850 C862 0.950 . S
H851 C863 0.950 . S
C852 H844 0.950 . S
C852 C853 1.386 . S
C852 C854 1.391 . S
C853 C852 1.386 . S
C853 C857 1.393 . S
C854 H846 0.950 . S
C854 C852 1.391 . S
C854 C855 1.400 . S
C855 C854 1.400 . S
C855 C856 1.398 . S
C855 C861 1.491 . S
C856 H847 0.950 . S
C856 C855 1.398 . S
C856 C857 1.391 . S
C857 H845 0.950 . S
C857 C853 1.393 . S
C857 C856 1.391 . S
C858 H848 0.950 . S
C858 C859 1.386 . S
C858 C860 1.391 . S
C859 C858 1.386 . S
C859 C863 1.393 . S
C860 H849 0.950 . S
C860 C858 1.391 . S
C860 C861 1.400 . S
C861 C855 1.491 . S
C861 C860 1.400 . S
C861 C862 1.398 . S
C862 H850 0.950 . S
C862 C861 1.398 . S
C862 C863 1.391 . S
C863 H851 0.950 . S
C863 C859 1.393 . S
C863 C862 1.391 . S
H864 C872 0.950 . S
H865 C877 0.950 . S
H866 C874 0.950 . S
H867 C876 0.950 . S
H868 C878 0.950 . S
H869 C880 0.950 . S
H870 C882 0.950 . S
H871 C883 0.950 . S
C872 H864 0.950 . S
C872 C873 1.386 . S
C872 C874 1.391 . S
C873 C872 1.386 . S
C873 C877 1.393 . S
C874 H866 0.950 . S
C874 C872 1.391 . S
C874 C875 1.400 . S
C875 C874 1.400 . S
C875 C876 1.398 . S
C875 C881 1.491 . S
C876 H867 0.950 . S
C876 C875 1.398 . S
C876 C877 1.391 . S
C877 H865 0.950 . S
C877 C873 1.393 . S
C877 C876 1.391 . S
C878 H868 0.950 . S
C878 C879 1.386 . S
C878 C880 1.391 . S
C879 C878 1.386 . S
C879 C883 1.393 . S
C880 H869 0.950 . S
C880 C878 1.391 . S
C880 C881 1.400 . S
C881 C875 1.491 . S
C881 C880 1.400 . S
C881 C882 1.398 . S
C882 H870 0.950 . S
C882 C881 1.398 . S
C882 C883 1.391 . S
C883 H871 0.950 . S
C883 C879 1.393 . S
C883 C882 1.391 . S
H884 C892 0.950 . S
H885 C897 0.950 . S
H886 C894 0.950 . S
H887 C896 0.950 . S
H888 C898 0.950 . S
H889 C900 0.950 . S
H890 C902 0.950 . S
H891 C903 0.950 . S
C892 H884 0.950 . S
C892 C893 1.386 . S
C892 C894 1.391 . S
C893 C892 1.386 . S
C893 C897 1.393 . S
C894 H886 0.950 . S
C894 C892 1.391 . S
C894 C895 1.400 . S
C895 C894 1.400 . S
C895 C896 1.398 . S
C895 C901 1.491 . S
C896 H887 0.950 . S
C896 C895 1.398 . S
C896 C897 1.391 . S
C897 H885 0.950 . S
C897 C893 1.393 . S
C897 C896 1.391 . S
C898 H888 0.950 . S
C898 C899 1.386 . S
C898 C900 1.391 . S
C899 C898 1.386 . S
C899 C903 1.393 . S
C900 H889 0.950 . S
C900 C898 1.391 . S
C900 C901 1.400 . S
C901 C895 1.491 . S
C901 C900 1.400 . S
C901 C902 1.398 . S
C902 H890 0.950 . S
C902 C901 1.398 . S
C902 C903 1.391 . S
C903 H891 0.950 . S
C903 C899 1.393 . S
C903 C902 1.391 . S
H904 C912 0.950 . S
H905 C917 0.950 . S
H906 C914 0.950 . S
H907 C916 0.950 . S
H908 C918 0.950 . S
H909 C920 0.950 . S
H910 C922 0.950 . S
H911 C923 0.950 . S
C912 H904 0.950 . S
C912 C913 1.386 . S
C912 C914 1.391 . S
C913 C912 1.386 . S
C913 C917 1.393 . S
C914 H906 0.950 . S
C914 C912 1.391 . S
C914 C915 1.400 . S
C915 C914 1.400 . S
C915 C916 1.398 . S
C915 C921 1.491 . S
C916 H907 0.950 . S
C916 C915 1.398 . S
C916 C917 1.391 . S
C917 H905 0.950 . S
C917 C913 1.393 . S
C917 C916 1.391 . S
C918 H908 0.950 . S
C918 C919 1.386 . S
C918 C920 1.391 . S
C919 C918 1.386 . S
C919 C923 1.393 . S
C920 H909 0.950 . S
C920 C918 1.391 . S
C920 C921 1.400 . S
C921 C915 1.491 . S
C921 C920 1.400 . S
C921 C922 1.398 . S
C922 H910 0.950 . S
C922 C921 1.398 . S
C922 C923 1.391 . S
C923 H911 0.950 . S
C923 C919 1.393 . S
C923 C922 1.391 . S
C453 C39 1.664 . S
C459 C327 1.488 . S
C473 C91 1.652 . S
C479 C348 1.521 . S
C499 C369 1.349 . S
C493 C128 1.482 . S
C519 C398 1.431 . S
C513 C188 1.483 . S
C539 C411 1.424 . S
C533 C250 1.525 . S
C559 C435 1.550 . S
C553 C304 1.659 . S
C573 C75 1.550 . S
C579 C379 1.407 . S
C593 C144 1.700 . S
C599 C393 1.572 . S
C619 C421 1.484 . S
C613 C198 1.597 . S
C639 C440 1.437 . S
C633 C234 1.509 . S
C653 C294 1.418 . S
C659 C337 1.324 . S
C679 C358 1.400 . S
C673 C29 1.500 . S
C699 C400 1.600 . S
C693 C38 1.688 . S
C713 C92 1.684 . S
C719 C414 1.494 . S
C739 C432 1.441 . S
C733 C135 1.512 . S
C753 C181 1.501 . S
C759 C330 1.379 . S
C773 C251 1.549 . S
C779 C351 1.394 . S
C793 C303 1.691 . S
C799 C372 1.478 . S
C813 C82 1.574 . S
C819 C442 1.483 . S
C839 C335 1.548 . S
C833 C145 1.730 . S
C853 C197 1.631 . S
C859 C356 1.481 . S
C873 C241 1.542 . S
C879 C377 1.399 . S
C893 C287 1.446 . S
C899 C390 1.394 . S
C913 C22 1.529 . S
C919 C419 1.391 . S
