# Generated by pormake.
# Topology nom, (4,4)-cn, num edge types: 1
# Building blocks:
#     Node 0, Type 0, BuildingBlock: GIZVER_clean_linker_0, # of connection points: 4
#     Node 1, Type 0, BuildingBlock: GIZVER_clean_linker_0, # of connection points: 4
#     Node 2, Type 0, BuildingBlock: GIZVER_clean_linker_0, # of connection points: 4
#     Node 3, Type 0, BuildingBlock: GIZVER_clean_linker_0, # of connection points: 4
#     Node 4, Type 0, BuildingBlock: GIZVER_clean_linker_0, # of connection points: 4
#     Node 5, Type 0, BuildingBlock: GIZVER_clean_linker_0, # of connection points: 4
#     Node 6, Type 1, BuildingBlock: AZAVOO_clean_sbu_0, # of connection points: 4
#     Node 7, Type 1, BuildingBlock: AZAVOO_clean_sbu_0, # of connection points: 4
#     Node 8, Type 1, BuildingBlock: AZAVOO_clean_sbu_0, # of connection points: 4
#     Node 9, Type 1, BuildingBlock: AZAVOO_clean_sbu_0, # of connection points: 4
#     Node 10, Type 1, BuildingBlock: AZAVOO_clean_sbu_0, # of connection points: 4
#     Node 11, Type 1, BuildingBlock: AZAVOO_clean_sbu_0, # of connection points: 4
#     Edge 12, Type (0, 1), BuildingBlock: UVAHIK_clean_linker_0, # of connection points: 2
#     Edge 13, Type (0, 1), BuildingBlock: UVAHIK_clean_linker_0, # of connection points: 2
#     Edge 14, Type (0, 1), BuildingBlock: UVAHIK_clean_linker_0, # of connection points: 2
#     Edge 15, Type (0, 1), BuildingBlock: UVAHIK_clean_linker_0, # of connection points: 2
#     Edge 16, Type (0, 1), BuildingBlock: UVAHIK_clean_linker_0, # of connection points: 2
#     Edge 17, Type (0, 1), BuildingBlock: UVAHIK_clean_linker_0, # of connection points: 2
#     Edge 18, Type (0, 1), BuildingBlock: UVAHIK_clean_linker_0, # of connection points: 2
#     Edge 19, Type (0, 1), BuildingBlock: UVAHIK_clean_linker_0, # of connection points: 2
#     Edge 20, Type (0, 1), BuildingBlock: UVAHIK_clean_linker_0, # of connection points: 2
#     Edge 21, Type (0, 1), BuildingBlock: UVAHIK_clean_linker_0, # of connection points: 2
#     Edge 22, Type (0, 1), BuildingBlock: UVAHIK_clean_linker_0, # of connection points: 2
#     Edge 23, Type (0, 1), BuildingBlock: UVAHIK_clean_linker_0, # of connection points: 2
#     Edge 24, Type (0, 1), BuildingBlock: UVAHIK_clean_linker_0, # of connection points: 2
#     Edge 25, Type (0, 1), BuildingBlock: UVAHIK_clean_linker_0, # of connection points: 2
#     Edge 26, Type (0, 1), BuildingBlock: UVAHIK_clean_linker_0, # of connection points: 2
#     Edge 27, Type (0, 1), BuildingBlock: UVAHIK_clean_linker_0, # of connection points: 2
#     Edge 28, Type (0, 1), BuildingBlock: UVAHIK_clean_linker_0, # of connection points: 2
#     Edge 29, Type (0, 1), BuildingBlock: UVAHIK_clean_linker_0, # of connection points: 2
#     Edge 30, Type (0, 1), BuildingBlock: UVAHIK_clean_linker_0, # of connection points: 2
#     Edge 31, Type (0, 1), BuildingBlock: UVAHIK_clean_linker_0, # of connection points: 2
#     Edge 32, Type (0, 1), BuildingBlock: UVAHIK_clean_linker_0, # of connection points: 2
#     Edge 33, Type (0, 1), BuildingBlock: UVAHIK_clean_linker_0, # of connection points: 2
#     Edge 34, Type (0, 1), BuildingBlock: UVAHIK_clean_linker_0, # of connection points: 2
#     Edge 35, Type (0, 1), BuildingBlock: UVAHIK_clean_linker_0, # of connection points: 2
# Relax obj value: 0.031
# Max RMSD: 0.159
# Mean RMSD: 0.104
data_MOF--net-nom--node1-AZAVOO_clean_sbu_0--node2-GIZVER_clean_linker_0--edge1-UVAHIK_clean_linker_0
_symmetry_space_group_name_H-M    P1
_symmetry_Int_Tables_number       1
_symmetry_cell_setting            triclinic
loop_
_symmetry_equiv_pos_as_xyz
'x, y, z'
_cell_length_a     59.895182
_cell_length_b     60.321406
_cell_length_c     57.524859
_cell_angle_alpha  91.296986
_cell_angle_beta   91.146589
_cell_angle_gamma 120.01395
loop_
_atom_site_label
_atom_site_type_symbol
_atom_site_fract_x
_atom_site_fract_y
_atom_site_fract_z
_atom_type_partial_charge
H0 H 0.97052 0.54431 0.35518 0.0
H1 H 0.98726 0.55286 0.2824 0.0
H2 H 0.92293 0.48357 0.3055 0.0
H3 H 0.99842 0.58675 0.33969 0.0
H4 H 0.00534 0.59028 0.30952 0.0
H5 H 0.01967 0.56859 0.36584 0.0
H6 H 0.09586 0.58789 0.34618 0.0
H7 H 0.04425 0.59287 0.29637 0.0
C8 C 0.96664 0.5363 0.33752 0.0
C9 C 0.94536 0.51178 0.33263 0.0
C10 C 0.98212 0.55108 0.31953 0.0
C11 C 0.97607 0.54117 0.29646 0.0
C12 C 0.95492 0.51663 0.2914 0.0
C13 C 0.9401 0.5019 0.3096 0.0
C14 C 0.00334 0.5783 0.32463 0.0
C15 C 0.02867 0.57953 0.33015 0.0
C16 C 0.03397 0.57414 0.35262 0.0
C17 C 0.05806 0.57673 0.35824 0.0
C18 C 0.07691 0.58497 0.34148 0.0
C19 C 0.07227 0.59125 0.3193 0.0
C20 C 0.04783 0.58775 0.31342 0.0
H21 H 0.42829 0.97225 0.50816 0.0
H22 H 0.44756 0.99529 0.43763 0.0
H23 H 0.43922 0.92397 0.45911 0.0
H24 H 0.4245 0.00747 0.49429 0.0
H25 H 0.42558 0.01265 0.46381 0.0
H26 H 0.46594 0.02702 0.51863 0.0
H27 H 0.52643 0.09809 0.49384 0.0
H28 H 0.46357 0.04682 0.4475 0.0
C29 C 0.43355 0.96897 0.49103 0.0
C30 C 0.43375 0.94617 0.48592 0.0
C31 C 0.43893 0.987 0.47378 0.0
C32 C 0.4445 0.98204 0.45127 0.0
C33 C 0.44513 0.95953 0.44612 0.0
C34 C 0.44023 0.94202 0.46358 0.0
C35 C 0.43618 0.01016 0.4787 0.0
C36 C 0.46219 0.03401 0.48251 0.0
C37 C 0.47476 0.03998 0.50458 0.0
C38 C 0.49816 0.063 0.50875 0.0
C39 C 0.50912 0.07969 0.49044 0.0
C40 C 0.49683 0.0741 0.46836 0.0
C41 C 0.47341 0.05109 0.46442 0.0
H42 H 0.44977 0.47708 0.58316 0.0
H43 H 0.46104 0.47726 0.65729 0.0
H44 H 0.45285 0.53728 0.62703 0.0
H45 H 0.44173 0.43822 0.60189 0.0
H46 H 0.44381 0.43752 0.6328 0.0
H47 H 0.48346 0.46037 0.57955 0.0
H48 H 0.54238 0.44733 0.60817 0.0
H49 H 0.48057 0.43886 0.65077 0.0
C50 C 0.45286 0.48647 0.60016 0.0
C51 C 0.45159 0.50906 0.60252 0.0
C52 C 0.45659 0.47509 0.61984 0.0
C53 C 0.45946 0.48667 0.64203 0.0
C54 C 0.45793 0.50904 0.64467 0.0
C55 C 0.45479 0.52043 0.62482 0.0
C56 C 0.45392 0.44891 0.61757 0.0
C57 C 0.4798 0.45064 0.61572 0.0
C58 C 0.49218 0.45639 0.59439 0.0
C59 C 0.51504 0.45569 0.59183 0.0
C60 C 0.52564 0.44945 0.61076 0.0
C61 C 0.5132 0.44294 0.632 0.0
C62 C 0.49053 0.44414 0.63453 0.0
H63 H 0.96795 0.43877 0.78901 0.0
H64 H 0.00205 0.47808 0.85477 0.0
H65 H 0.92696 0.46386 0.83284 0.0
H66 H 0.00751 0.44245 0.80206 0.0
H67 H 0.01303 0.44571 0.83288 0.0
H68 H 0.02755 0.48216 0.77814 0.0
H69 H 0.10013 0.54292 0.80576 0.0
H70 H 0.04861 0.48383 0.85038 0.0
C71 C 0.96745 0.4492 0.8044 0.0
C72 C 0.94513 0.45045 0.8088 0.0
C73 C 0.98824 0.45945 0.82081 0.0
C74 C 0.98666 0.47127 0.84155 0.0
C75 C 0.9648 0.47334 0.84573 0.0
C76 C 0.94438 0.46335 0.82911 0.0
C77 C 0.01083 0.45537 0.81747 0.0
C78 C 0.03527 0.48051 0.81468 0.0
C79 C 0.0409 0.49161 0.79286 0.0
C80 C 0.06405 0.51443 0.78981 0.0
C81 C 0.08159 0.52619 0.80873 0.0
C82 C 0.07651 0.51523 0.83068 0.0
C83 C 0.05295 0.49256 0.8336 0.0
H84 H 0.58757 0.05942 0.01722 0.0
H85 H 0.55696 0.02954 0.94807 0.0
H86 H 0.56215 0.09966 0.97303 0.0
H87 H 0.59138 0.0244 0.00134 0.0
H88 H 0.58679 0.01793 0.97056 0.0
H89 H 0.54821 0.0084 0.02435 0.0
H90 H 0.49224 0.93083 0.00373 0.0
H91 H 0.55328 0.97665 0.9582 0.0
C92 C 0.57881 0.06064 0.00099 0.0
C93 C 0.57504 0.08155 -0.00245 0.0
C94 C 0.57206 0.04168 0.98327 0.0
C95 C 0.56145 0.04371 0.962 0.0
C96 C 0.55746 0.0644 0.95838 0.0
C97 C 0.56388 0.08294 0.97634 0.0
C98 C 0.57758 0.02011 0.98639 0.0
C99 C 0.55305 0.99545 0.99055 0.0
C100 C 0.5404 0.99269 0.01149 0.0
C101 C 0.51817 0.96956 0.01613 0.0
C102 C 0.50857 0.94916 -0.00042 0.0
C103 C 0.52115 0.95137 0.97872 0.0
C104 C 0.54332 0.97474 0.9742 0.0
H105 H 0.58846 0.56149 0.12616 0.0
H106 H 0.54818 0.55764 0.18862 0.0
H107 H 0.56315 0.49721 0.17022 0.0
H108 H 0.58371 0.59712 0.1373 0.0
H109 H 0.57921 0.60031 0.16752 0.0
H110 H 0.54695 0.58125 0.10894 0.0
H111 H 0.47919 0.58184 0.13116 0.0
H112 H 0.53721 0.59085 0.18175 0.0
C113 C 0.57801 0.55111 0.14109 0.0
C114 C 0.57707 0.52805 0.14641 0.0
C115 C 0.56713 0.56173 0.15602 0.0
C116 C 0.55525 0.54899 0.17627 0.0
C117 C 0.55328 0.52545 0.18106 0.0
C118 C 0.56377 0.51493 0.16589 0.0
C119 C 0.57034 0.58772 0.15165 0.0
C120 C 0.54464 0.58564 0.14602 0.0
C121 C 0.53544 0.58221 0.12281 0.0
C122 C 0.51176 0.58069 0.11742 0.0
C123 C 0.49699 0.58199 0.13544 0.0
C124 C 0.50605 0.58582 0.15869 0.0
C125 C 0.5299 0.58755 0.16387 0.0
Mg126 Mg 0.63311 0.37353 0.35395 0.0
O127 O 0.62421 0.39094 0.38619 0.0
O128 O 0.64314 0.43321 0.38107 0.0
Mg129 Mg 0.6627 0.4426 0.34638 0.0
C130 C 0.62977 0.41353 0.39301 0.0
C131 C 0.59691 0.32069 0.37476 0.0
O132 O 0.58022 0.3279 0.36903 0.0
O133 O 0.67477 0.38986 0.3672 0.0
O134 O 0.69164 0.43153 0.36091 0.0
O135 O 0.59708 0.3676 0.33649 0.0
O136 O 0.63477 0.40308 0.3344 0.0
C137 C 0.69384 0.41273 0.36786 0.0
C138 C 0.61017 0.39103 0.33012 0.0
O139 O 0.62074 0.33588 0.37174 0.0
Mg140 Mg 0.27585 0.63902 0.58378 0.0
O141 O 0.24359 0.62386 0.555 0.0
O142 O 0.21841 0.58178 0.55994 0.0
Mg143 Mg 0.23345 0.57023 0.59126 0.0
C144 C 0.22409 0.60205 0.54906 0.0
C145 C 0.28925 0.69108 0.56389 0.0
O146 O 0.26549 0.68237 0.57046 0.0
O147 O 0.29624 0.62066 0.56509 0.0
O148 O 0.26983 0.57919 0.57146 0.0
O149 O 0.2512 0.64674 0.60692 0.0
O150 O 0.2508 0.60992 0.60512 0.0
C151 C 0.29029 0.59719 0.56302 0.0
C152 C 0.24091 0.6232 0.61296 0.0
O153 O 0.29924 0.67688 0.56579 0.0
Mg154 Mg 0.63406 0.26372 0.75123 0.0
O155 O 0.62092 0.23316 0.72114 0.0
O156 O 0.6357 0.20697 0.73077 0.0
Mg157 Mg 0.65862 0.22064 0.7651 0.0
C158 C 0.62316 0.21344 0.71697 0.0
C159 C 0.59911 0.28055 0.7261 0.0
O160 O 0.58211 0.25742 0.73228 0.0
O161 O 0.67522 0.28446 0.73843 0.0
O162 O 0.68885 0.25748 0.74839 0.0
O163 O 0.59845 0.2383 0.76996 0.0
O164 O 0.63484 0.23768 0.77413 0.0
C165 C 0.69275 0.27832 0.73957 0.0
C166 C 0.61078 0.22776 0.77869 0.0
O167 O 0.62294 0.2886 0.73018 0.0
Mg168 Mg 0.38816 0.64054 0.86741 0.0
O169 O 0.40194 0.62654 0.89869 0.0
O170 O 0.38274 0.58384 0.89413 0.0
Mg171 Mg 0.35826 0.57069 0.86055 0.0
C172 C 0.3976 0.60474 0.90555 0.0
C173 C 0.42716 0.69542 0.88755 0.0
O174 O 0.44315 0.68777 0.88089 0.0
O175 O 0.34825 0.62521 0.88273 0.0
O176 O 0.33132 0.58298 0.87671 0.0
O177 O 0.42119 0.64453 0.84683 0.0
O178 O 0.38337 0.60905 0.84738 0.0
C179 C 0.32964 0.60222 0.88401 0.0
C180 C 0.40678 0.62061 0.8406 0.0
O181 O 0.40301 0.67997 0.88518 0.0
Mg182 Mg 0.75647 0.39786 0.04306 0.0
O183 O 0.78357 0.40803 0.07561 0.0
O184 O 0.8087 0.39104 0.06877 0.0
Mg185 Mg 0.79908 0.37178 0.03261 0.0
C186 C 0.80158 0.40362 0.08181 0.0
C187 C 0.71629 0.41394 0.04811 0.0
O188 O 0.7173 0.41072 0.02556 0.0
O189 O 0.73277 0.35612 0.05339 0.0
O190 O 0.75932 0.34138 0.0448 0.0
O191 O 0.78493 0.43414 0.02745 0.0
O192 O 0.7848 0.39761 0.02275 0.0
C193 C 0.73776 0.33788 0.05193 0.0
C194 C 0.79592 0.42188 0.01946 0.0
O195 O 0.73025 0.40915 0.06168 0.0
Mg196 Mg 0.37217 0.75648 0.20605 0.0
O197 O 0.38883 0.78399 0.23835 0.0
O198 O 0.43173 0.80638 0.23501 0.0
Mg199 Mg 0.44229 0.79438 0.20107 0.0
C200 C 0.41138 0.80101 0.24595 0.0
C201 C 0.31513 0.71515 0.21039 0.0
O202 O 0.31969 0.71027 0.18919 0.0
O203 O 0.38679 0.73084 0.22025 0.0
O204 O 0.42914 0.75457 0.21515 0.0
O205 O 0.36796 0.78616 0.18754 0.0
O206 O 0.40323 0.78299 0.18761 0.0
C207 C 0.40952 0.73403 0.22151 0.0
C208 C 0.39186 0.79565 0.18224 0.0
O209 O 0.33343 0.73307 0.22265 0.0
C210 C 0.11694 0.62597 0.31264 0.0
C211 C 0.0942 0.6045 0.3038 0.0
C212 C 0.13854 0.63798 0.29909 0.0
C213 C 0.17039 0.62598 0.25121 0.0
H214 H 0.21364 0.69998 0.25501 0.0
C215 C 0.26841 0.68142 0.20567 0.0
C216 C 0.28871 0.70121 0.21922 0.0
C217 C 0.24319 0.66918 0.21352 0.0
C218 C 0.20184 0.67929 0.25386 0.0
H219 H 0.07583 0.57906 0.27367 0.0
H220 H 0.11409 0.60016 0.24966 0.0
H221 H 0.17132 0.67983 0.27203 0.0
H222 H 0.2985 0.72331 0.25187 0.0
H223 H 0.25463 0.7019 0.26558 0.0
H224 H 0.20129 0.6255 0.23345 0.0
C225 C 0.11506 0.60755 0.26721 0.0
C226 C 0.17757 0.66776 0.26353 0.0
C227 C 0.0932 0.5956 0.28082 0.0
C228 C 0.28332 0.70821 0.24095 0.0
C229 C 0.25814 0.69608 0.24873 0.0
C230 C 0.19474 0.63755 0.24147 0.0
C231 C 0.13799 0.6288 0.27631 0.0
C232 C 0.16186 0.64096 0.26287 0.0
C233 C 0.23775 0.67661 0.23501 0.0
C234 C 0.21098 0.6643 0.24326 0.0
H235 H 0.11811 0.63335 0.33025 0.0
H236 H 0.15597 0.65406 0.30674 0.0
H237 H 0.15879 0.60527 0.25059 0.0
H238 H 0.27192 0.67555 0.18884 0.0
H239 H 0.22788 0.65431 0.20254 0.0
C240 C 0.49123 0.10231 0.44047 0.0
C241 C 0.50719 0.09413 0.45078 0.0
C242 C 0.50194 0.1249 0.42819 0.0
C243 C 0.56273 0.18622 0.42765 0.0
H244 H 0.52911 0.19947 0.37592 0.0
C245 C 0.60534 0.28605 0.38786 0.0
C246 C 0.58778 0.29443 0.38268 0.0
C247 C 0.5965 0.26079 0.39411 0.0
C248 C 0.53864 0.19607 0.39046 0.0
H249 H 0.5465 0.10178 0.45461 0.0
H250 H 0.56519 0.14095 0.43276 0.0
H251 H 0.51193 0.15568 0.38858 0.0
H252 H 0.54716 0.2829 0.3803 0.0
H253 H 0.53182 0.23903 0.39145 0.0
H254 H 0.58915 0.22661 0.42982 0.0
C255 C 0.5445 0.13034 0.43467 0.0
C256 C 0.52883 0.17099 0.39768 0.0
C257 C 0.5338 0.10784 0.44703 0.0
C258 C 0.56123 0.27708 0.38413 0.0
C259 C 0.5524 0.25185 0.39032 0.0
C260 C 0.57255 0.21126 0.42041 0.0
C261 C 0.52881 0.13968 0.42591 0.0
C262 C 0.54056 0.16581 0.41656 0.0
C263 C 0.56992 0.24336 0.39526 0.0
C264 C 0.56041 0.21653 0.40196 0.0
H265 H 0.47069 0.09226 0.44329 0.0
H266 H 0.4893 0.13159 0.4218 0.0
H267 H 0.57198 0.18304 0.44254 0.0
H268 H 0.62592 0.2989 0.38682 0.0
H269 H 0.61048 0.2548 0.39768 0.0
C270 C 0.4514 0.54481 0.5811 0.0
C271 C 0.44225 0.51844 0.58298 0.0
C272 C 0.43745 0.55333 0.56799 0.0
C273 C 0.3694 0.5286 0.55337 0.0
H274 H 0.39405 0.59592 0.52871 0.0
C275 C 0.29956 0.56569 0.54302 0.0
C276 C 0.30862 0.59043 0.5527 0.0
C277 C 0.31677 0.55729 0.53753 0.0
C278 C 0.38685 0.57703 0.53551 0.0
H279 H 0.41312 0.48056 0.56995 0.0
H280 H 0.38949 0.49546 0.54632 0.0
H281 H 0.42401 0.5799 0.53454 0.0
H282 H 0.34288 0.62645 0.56259 0.0
H283 H 0.37297 0.61153 0.55387 0.0
H284 H 0.33277 0.52604 0.55565 0.0
C285 C 0.40694 0.50954 0.5557 0.0
C286 C 0.40401 0.56783 0.5388 0.0
C287 C 0.42073 0.50101 0.56903 0.0
C288 C 0.33535 0.60728 0.55513 0.0
C289 C 0.35261 0.59871 0.55003 0.0
C290 C 0.35237 0.53776 0.55014 0.0
C291 C 0.41419 0.53564 0.55625 0.0
C292 C 0.3956 0.54376 0.54837 0.0
C293 C 0.34344 0.57324 0.54209 0.0
C294 C 0.36095 0.56235 0.54176 0.0
H295 H 0.46827 0.55878 0.59124 0.0
H296 H 0.44375 0.57358 0.56877 0.0
H297 H 0.36225 0.51024 0.56126 0.0
H298 H 0.27904 0.55242 0.54059 0.0
H299 H 0.30905 0.53782 0.5308 0.0
C300 C 0.92054 0.43516 0.77014 0.0
C301 C 0.92107 0.43468 0.79458 0.0
C302 C 0.8976 0.41912 0.75723 0.0
C303 C 0.83883 0.35778 0.76071 0.0
H304 H 0.80391 0.38264 0.72064 0.0
C305 C 0.7286 0.32343 0.73529 0.0
C306 C 0.71937 0.29696 0.7332 0.0
C307 C 0.75511 0.34089 0.73487 0.0
C308 C 0.81355 0.3754 0.7316 0.0
H309 H 0.89833 0.41685 0.82459 0.0
H310 H 0.85872 0.38894 0.8022 0.0
H311 H 0.84769 0.41245 0.73633 0.0
H312 H 0.73017 0.26819 0.72613 0.0
H313 H 0.7762 0.2986 0.72471 0.0
H314 H 0.80472 0.32124 0.7573 0.0
C315 C 0.87581 0.4018 0.79301 0.0
C316 C 0.83862 0.3924 0.7404 0.0
C317 C 0.89842 0.41794 0.80581 0.0
C318 C 0.73678 0.28846 0.72824 0.0
C319 C 0.76317 0.30589 0.7275 0.0
C320 C 0.81402 0.34086 0.75186 0.0
C321 C 0.87519 0.40205 0.76863 0.0
C322 C 0.85105 0.38382 0.75566 0.0
C323 C 0.77278 0.33217 0.7321 0.0
C324 C 0.80073 0.34955 0.73775 0.0
H325 H 0.93779 0.44788 0.76111 0.0
H326 H 0.89751 0.41958 0.73842 0.0
H327 H 0.8481 0.35072 0.77237 0.0
H328 H 0.71563 0.33056 0.7391 0.0
H329 H 0.76181 0.36098 0.73854 0.0
C330 C 0.4859 0.91117 0.95883 0.0
C331 C 0.51238 0.92823 0.96322 0.0
C332 C 0.47738 0.88727 0.94779 0.0
C333 C 0.49822 0.83984 0.93962 0.0
H334 H 0.43806 0.80568 0.89775 0.0
C335 C 0.46392 0.73951 0.89766 0.0
C336 C 0.43721 0.72223 0.89612 0.0
C337 C 0.47349 0.76512 0.90464 0.0
C338 C 0.45474 0.81488 0.90961 0.0
H339 H 0.55073 0.93408 0.9583 0.0
H340 H 0.53588 0.89256 0.93854 0.0
H341 H 0.45447 0.85027 0.91032 0.0
H342 H 0.39959 0.7183 0.90101 0.0
H343 H 0.41632 0.76294 0.91349 0.0
H344 H 0.49835 0.80443 0.93918 0.0
C345 C 0.52168 0.89752 0.94403 0.0
C346 C 0.4642 0.84046 0.91675 0.0
C347 C 0.53021 0.92146 0.95507 0.0
C348 C 0.42028 0.73111 0.90198 0.0
C349 C 0.42986 0.75675 0.90895 0.0
C350 C 0.48878 0.81429 0.93249 0.0
C351 C 0.49515 0.87985 0.94086 0.0
C352 C 0.48597 0.8532 0.93195 0.0
C353 C 0.45659 0.7741 0.91026 0.0
C354 C 0.46684 0.80144 0.91751 0.0
H355 H 0.4717 0.91595 0.96473 0.0
H356 H 0.45681 0.87413 0.94573 0.0
H357 H 0.51471 0.84888 0.95171 0.0
H358 H 0.47752 0.73336 0.89319 0.0
H359 H 0.49417 0.77801 0.90521 0.0
C360 C 0.60878 0.51283 0.14673 0.0
C361 C 0.5926 0.51904 0.13385 0.0
C362 C 0.62271 0.50314 0.13566 0.0
C363 C 0.62293 0.46827 0.08289 0.0
H364 H 0.69253 0.48938 0.10522 0.0
C365 C 0.68581 0.43047 0.04178 0.0
C366 C 0.70075 0.42489 0.05716 0.0
C367 C 0.67246 0.44239 0.04996 0.0
C368 C 0.67302 0.48309 0.09895 0.0
H369 H 0.57884 0.52065 0.0992 0.0
H370 H 0.60346 0.50352 0.07955 0.0
H371 H 0.67052 0.51094 0.12067 0.0
H372 H 0.71281 0.42688 0.09331 0.0
H373 H 0.68931 0.44747 0.10763 0.0
H374 H 0.6254 0.44018 0.06134 0.0
C375 C 0.60506 0.50602 0.09833 0.0
C376 C 0.66044 0.49552 0.10772 0.0
C377 C 0.59115 0.51595 0.1095 0.0
C378 C 0.70157 0.43098 0.08099 0.0
C379 C 0.68825 0.44297 0.08916 0.0
C380 C 0.63555 0.45581 0.07408 0.0
C381 C 0.62091 0.49942 0.11136 0.0
C382 C 0.6351 0.48798 0.1001 0.0
C383 C 0.67379 0.44908 0.0737 0.0
C384 C 0.6606 0.46283 0.08229 0.0
H385 H 0.61055 0.51535 0.16552 0.0
H386 H 0.63446 0.49799 0.14625 0.0
H387 H 0.60332 0.46185 0.07686 0.0
H388 H 0.68476 0.42603 0.0233 0.0
H389 H 0.66166 0.44699 0.03757 0.0
C390 C 0.39955 0.91696 0.5124 0.0
C391 C 0.42333 0.92473 0.50215 0.0
C392 C 0.38645 0.89331 0.52289 0.0
C393 C 0.39177 0.83816 0.54359 0.0
H394 H 0.32049 0.79897 0.52105 0.0
C395 C 0.33068 0.72806 0.55077 0.0
C396 C 0.3048 0.71791 0.55674 0.0
C397 C 0.34569 0.75391 0.54554 0.0
C398 C 0.34023 0.80969 0.5278 0.0
H399 H 0.45313 0.91496 0.49678 0.0
H400 H 0.4302 0.87359 0.51495 0.0
H401 H 0.34622 0.84388 0.51204 0.0
H402 H 0.27437 0.72695 0.56172 0.0
H403 H 0.3005 0.77187 0.55289 0.0
H404 H 0.38574 0.80376 0.5592 0.0
C405 C 0.42163 0.8857 0.51487 0.0
C406 C 0.35499 0.8355 0.52269 0.0
C407 C 0.43472 0.90934 0.50435 0.0
C408 C 0.29419 0.73407 0.55707 0.0
C409 C 0.30917 0.75987 0.55192 0.0
C410 C 0.37694 0.81228 0.5488 0.0
C411 C 0.39687 0.87697 0.52338 0.0
C412 C 0.38095 0.85004 0.53043 0.0
C413 C 0.33514 0.77016 0.54619 0.0
C414 C 0.35101 0.79771 0.54087 0.0
H415 H 0.39017 0.92827 0.51088 0.0
H416 H 0.3676 0.8873 0.52969 0.0
H417 H 0.41168 0.84888 0.54991 0.0
H418 H 0.33944 0.71611 0.55035 0.0
H419 H 0.36551 0.76111 0.54085 0.0
C420 C 0.50354 0.40735 0.65879 0.0
C421 C 0.52168 0.43074 0.64958 0.0
C422 C 0.51166 0.39254 0.67067 0.0
C423 C 0.56831 0.39181 0.69732 0.0
H424 H 0.53236 0.32124 0.67377 0.0
C425 C 0.60827 0.3232 0.71167 0.0
C426 C 0.59039 0.29783 0.71698 0.0
C427 C 0.59982 0.33995 0.70471 0.0
C428 C 0.54242 0.34077 0.6808 0.0
H429 H 0.56251 0.45805 0.64752 0.0
H430 H 0.57671 0.43209 0.66809 0.0
H431 H 0.51731 0.35009 0.66196 0.0
H432 H 0.54959 0.27012 0.7189 0.0
H433 H 0.53494 0.29928 0.70703 0.0
H434 H 0.59358 0.38242 0.71603 0.0
C435 C 0.55621 0.42515 0.66612 0.0
C436 C 0.53372 0.35732 0.67408 0.0
C437 C 0.54809 0.43998 0.65422 0.0
C438 C 0.56391 0.28949 0.71483 0.0
C439 C 0.55548 0.30621 0.70794 0.0
C440 C 0.57699 0.37518 0.70412 0.0
C441 C 0.53808 0.40079 0.67361 0.0
C442 C 0.54658 0.38305 0.68219 0.0
C443 C 0.57331 0.33169 0.70293 0.0
C444 C 0.56418 0.34948 0.69586 0.0
H445 H 0.48306 0.39957 0.6554 0.0
H446 H 0.49722 0.37406 0.67665 0.0
H447 H 0.57854 0.41148 0.70397 0.0
H448 H 0.62881 0.33024 0.71313 0.0
H449 H 0.61406 0.35934 0.70063 0.0
C450 C 0.10208 0.50899 0.86239 0.0
C451 C 0.09742 0.52567 0.84916 0.0
C452 C 0.12495 0.51827 0.87574 0.0
C453 C 0.18629 0.57777 0.89523 0.0
H454 H 0.21561 0.53466 0.88135 0.0
C455 C 0.29543 0.61436 0.88757 0.0
C456 C 0.30432 0.59724 0.89208 0.0
C457 C 0.2694 0.60681 0.89025 0.0
C458 C 0.2077 0.54678 0.88597 0.0
H459 H 0.11182 0.56565 0.84195 0.0
H460 H 0.15219 0.58163 0.86423 0.0
H461 H 0.17054 0.51885 0.87231 0.0
H462 H 0.29386 0.5601 0.90543 0.0
H463 H 0.24884 0.54729 0.91085 0.0
H464 H 0.22423 0.60623 0.90783 0.0
C465 C 0.13816 0.56139 0.86449 0.0
C466 C 0.18166 0.53764 0.88078 0.0
C467 C 0.11509 0.55215 0.85141 0.0
C468 C 0.28741 0.57351 0.90144 0.0
C469 C 0.26159 0.56613 0.90443 0.0
C470 C 0.21253 0.587 0.90038 0.0
C471 C 0.14391 0.54438 0.87591 0.0
C472 C 0.17066 0.55314 0.88489 0.0
C473 C 0.25196 0.58213 0.89773 0.0
C474 C 0.22362 0.57174 0.89539 0.0
H475 H 0.089 0.48849 0.86119 0.0
H476 H 0.12842 0.5047 0.88486 0.0
H477 H 0.1784 0.59013 0.89886 0.0
H478 H 0.30806 0.63277 0.88031 0.0
H479 H 0.26265 0.61959 0.88486 0.0
C480 C 0.57226 0.11678 0.01905 0.0
C481 C 0.58581 0.1038 0.01444 0.0
C482 C 0.58441 0.14057 0.03104 0.0
C483 C 0.64444 0.1873 0.0648 0.0
H484 H 0.63549 0.23757 0.03135 0.0
C485 C 0.72399 0.29205 0.05876 0.0
C486 C 0.71754 0.3114 0.05694 0.0
C487 C 0.7048 0.26646 0.06029 0.0
C488 C 0.63786 0.22381 0.0413 0.0
H489 H 0.62225 0.1049 0.0201 0.0
H490 H 0.64344 0.14628 0.04088 0.0
H491 H 0.60683 0.19225 0.02228 0.0
H492 H 0.68582 0.3191 0.05668 0.0
H493 H 0.65219 0.27422 0.05932 0.0
H494 H 0.67635 0.21909 0.08302 0.0
C495 C 0.62333 0.13804 0.03551 0.0
C496 C 0.62137 0.19773 0.0361 0.0
C497 C 0.61116 0.11424 0.02356 0.0
C498 C 0.69146 0.30467 0.05797 0.0
C499 C 0.67219 0.27896 0.05936 0.0
C500 C 0.66098 0.21341 0.06997 0.0
C501 C 0.61041 0.15193 0.03866 0.0
C502 C 0.62496 0.17917 0.04726 0.0
C503 C 0.67863 0.25951 0.05996 0.0
C504 C 0.65839 0.23198 0.05774 0.0
H505 H 0.55256 0.10902 0.01251 0.0
H506 H 0.57374 0.15052 0.03358 0.0
H507 H 0.64744 0.1735 0.07402 0.0
H508 H 0.74388 0.29654 0.05819 0.0
H509 H 0.71047 0.252 0.06048 0.0
C510 C 0.46489 0.57633 0.17743 0.0
C511 C 0.49191 0.59108 0.17685 0.0
C512 C 0.45114 0.58439 0.19123 0.0
C513 C 0.45863 0.63453 0.23546 0.0
H514 H 0.40415 0.63411 0.19757 0.0
C515 C 0.43829 0.71717 0.23377 0.0
C516 C 0.41333 0.71256 0.22819 0.0
C517 C 0.44304 0.69687 0.23563 0.0
C518 C 0.4188 0.63391 0.20877 0.0
H519 H 0.52581 0.62486 0.19141 0.0
H520 H 0.50198 0.6392 0.21508 0.0
H521 H 0.42171 0.60728 0.18583 0.0
H522 H 0.37336 0.6829 0.22218 0.0
H523 H 0.38173 0.64731 0.2253 0.0
H524 H 0.45673 0.66262 0.25752 0.0
C525 C 0.49128 0.62116 0.20529 0.0
C526 C 0.42893 0.61845 0.20202 0.0
C527 C 0.50502 0.61298 0.19165 0.0
C528 C 0.39284 0.6871 0.22637 0.0
C529 C 0.39764 0.66673 0.22805 0.0
C530 C 0.44856 0.65012 0.24215 0.0
C531 C 0.46412 0.60751 0.20454 0.0
C532 C 0.44971 0.61936 0.21474 0.0
C533 C 0.42295 0.67145 0.23184 0.0
C534 C 0.42926 0.65075 0.22832 0.0
H535 H 0.45433 0.55915 0.16642 0.0
H536 H 0.43027 0.57312 0.19062 0.0
H537 H 0.47424 0.63528 0.24593 0.0
H538 H 0.45447 0.73656 0.23553 0.0
H539 H 0.46279 0.70123 0.23839 0.0
C540 C 0.91405 0.47144 0.35175 0.0
C541 C 0.92579 0.49816 0.35026 0.0
C542 C 0.89105 0.45775 0.36344 0.0
C543 C 0.84284 0.46507 0.39864 0.0
H544 H 0.79378 0.41022 0.35668 0.0
C545 C 0.73946 0.44303 0.38113 0.0
C546 C 0.71971 0.41778 0.37578 0.0
C547 C 0.76468 0.44849 0.38587 0.0
C548 C 0.80717 0.42502 0.36898 0.0
H549 H 0.92393 0.5317 0.36151 0.0
H550 H 0.88384 0.508 0.3815 0.0
H551 H 0.8396 0.42786 0.35167 0.0
H552 H 0.7107 0.37822 0.37256 0.0
H553 H 0.75501 0.38787 0.38058 0.0
H554 H 0.81007 0.46322 0.41486 0.0
C555 C 0.89238 0.49746 0.37403 0.0
C556 C 0.83358 0.43517 0.36615 0.0
C557 C 0.91546 0.51114 0.36252 0.0
C558 C 0.7255 0.3979 0.37651 0.0
C559 C 0.75086 0.40341 0.38105 0.0
C560 C 0.81638 0.455 0.40136 0.0
C561 C 0.87922 0.4705 0.37364 0.0
C562 C 0.85176 0.45603 0.38033 0.0
C563 C 0.77082 0.42885 0.38523 0.0
C564 C 0.7983 0.43556 0.38596 0.0
H565 H 0.92181 0.46099 0.34266 0.0
H566 H 0.88177 0.43705 0.36328 0.0
H567 H 0.85629 0.48076 0.41017 0.0
H568 H 0.73564 0.45878 0.38094 0.0
H569 H 0.77962 0.46832 0.38876 0.0
C570 C 0.07015 0.59339 0.39914 0.0
C571 C 0.0655 0.57432 0.38221 0.0
C572 C 0.0838 0.59544 0.41984 0.0
C573 C 0.10683 0.56291 0.45833 0.0
H574 H 0.1696 0.62894 0.46536 0.0
C575 C 0.19138 0.57652 0.51751 0.0
C576 C 0.20646 0.60003 0.52975 0.0
C577 C 0.17299 0.57366 0.50062 0.0
C578 C 0.15199 0.61055 0.46405 0.0
H579 H 0.06995 0.54163 0.37384 0.0
H580 H 0.093 0.54456 0.41049 0.0
H581 H 0.13697 0.6223 0.43577 0.0
H582 H 0.21431 0.6391 0.53381 0.0
H583 H 0.18156 0.63396 0.50485 0.0
H584 H 0.12144 0.55111 0.48672 0.0
C585 C 0.08624 0.55797 0.40776 0.0
C586 C 0.13331 0.60676 0.44704 0.0
C587 C 0.07303 0.55623 0.38689 0.0
C588 C 0.20311 0.62082 0.52447 0.0
C589 C 0.18433 0.61783 0.50783 0.0
C590 C 0.12529 0.56681 0.47563 0.0
C591 C 0.09261 0.57818 0.424 0.0
C592 C 0.11077 0.5828 0.44378 0.0
C593 C 0.16882 0.5941 0.49583 0.0
C594 C 0.14839 0.59053 0.47842 0.0
H595 H 0.06487 0.60778 0.39565 0.0
H596 H 0.08843 0.61112 0.43216 0.0
H597 H 0.08952 0.54431 0.45621 0.0
H598 H 0.19371 0.56021 0.52105 0.0
H599 H 0.16206 0.55533 0.49132 0.0
C600 C 0.53695 0.08446 0.53596 0.0
C601 C 0.50998 0.07151 0.53255 0.0
C602 C 0.54848 0.09698 0.55723 0.0
C603 C 0.53519 0.12663 0.6078 0.0
H604 H 0.59954 0.13426 0.63223 0.0
C605 C 0.59798 0.2037 0.67887 0.0
C606 C 0.61012 0.19672 0.69602 0.0
C607 C 0.58534 0.18738 0.65945 0.0
C608 C 0.58144 0.13217 0.62581 0.0
H609 H 0.4739 0.06018 0.54929 0.0
H610 H 0.494 0.08132 0.58675 0.0
H611 H 0.57743 0.10517 0.59897 0.0
H612 H 0.61815 0.16688 0.70624 0.0
H613 H 0.59585 0.13846 0.67289 0.0
H614 H 0.53894 0.15323 0.63496 0.0
C615 C 0.50627 0.08234 0.57275 0.0
C616 C 0.56889 0.11565 0.60656 0.0
C617 C 0.49472 0.06987 0.55139 0.0
C618 C 0.60926 0.17306 0.69332 0.0
C619 C 0.59653 0.15674 0.67406 0.0
C620 C 0.54768 0.14305 0.62714 0.0
C621 C 0.5333 0.09672 0.57568 0.0
C622 C 0.54571 0.11282 0.5972 0.0
C623 C 0.58445 0.16367 0.65684 0.0
C624 C 0.57104 0.14614 0.63631 0.0
H625 H 0.54921 0.08583 0.52182 0.0
H626 H 0.56934 0.10795 0.55878 0.0
H627 H 0.51758 0.12523 0.60085 0.0
H628 H 0.5983 0.22181 0.68039 0.0
H629 H 0.57652 0.19347 0.64636 0.0
C630 C 0.47248 0.52185 0.68676 0.0
C631 C 0.45552 0.51846 0.668 0.0
C632 C 0.46963 0.53083 0.7086 0.0
C633 C 0.42095 0.53596 0.7431 0.0
H634 H 0.47903 0.59267 0.77651 0.0
C635 C 0.4381 0.62112 0.81217 0.0
C636 C 0.41674 0.60718 0.82602 0.0
C637 C 0.44564 0.60841 0.79628 0.0
C638 C 0.46262 0.57682 0.76738 0.0
H639 H 0.42183 0.52091 0.65758 0.0
H640 H 0.41716 0.53679 0.69516 0.0
H641 H 0.48631 0.57355 0.74156 0.0
H642 H 0.38801 0.56897 0.83547 0.0
H643 H 0.4015 0.54688 0.80846 0.0
H644 H 0.39702 0.53989 0.7678 0.0
C645 C 0.43261 0.53254 0.69322 0.0
C646 C 0.46684 0.56569 0.74754 0.0
C647 C 0.43551 0.52377 0.67156 0.0
C648 C 0.40414 0.58032 0.82475 0.0
C649 C 0.41189 0.56763 0.80916 0.0
C650 C 0.41673 0.54706 0.76278 0.0
C651 C 0.44953 0.53612 0.71202 0.0
C652 C 0.44593 0.54561 0.73485 0.0
C653 C 0.43216 0.58148 0.79415 0.0
C654 C 0.43742 0.56799 0.77492 0.0
H655 H 0.48804 0.51784 0.68447 0.0
H656 H 0.4829 0.53334 0.72283 0.0
H657 H 0.40447 0.52025 0.73389 0.0
H658 H 0.44824 0.64187 0.81279 0.0
H659 H 0.4612 0.61975 0.78489 0.0
C660 C 0.96075 0.46799 0.88839 0.0
C661 C 0.96082 0.48155 0.86889 0.0
C662 C 0.95041 0.47064 0.90908 0.0
C663 C 0.90126 0.48676 0.92657 0.0
H664 H 0.91352 0.46588 0.98651 0.0
C665 C 0.82972 0.46073 0.00038 0.0
C666 C 0.82053 0.43551 0.00738 0.0
C667 C 0.8519 0.47303 0.98738 0.0
C668 C 0.91007 0.47199 0.96992 0.0
H669 H 0.95271 0.51035 0.85617 0.0
H670 H 0.9359 0.51617 0.89274 0.0
H671 H 0.94585 0.47826 0.95681 0.0
H672 H 0.82808 0.40389 0.00698 0.0
H673 H 0.86697 0.42552 0.9847 0.0
H674 H 0.86535 0.48016 0.93968 0.0
C675 C 0.94281 0.50267 0.89189 0.0
C676 C 0.92847 0.47894 0.95285 0.0
C677 C 0.95268 0.4996 0.87102 0.0
C678 C 0.83458 0.42327 0.00194 0.0
C679 C 0.85698 0.43573 0.9893 0.0
C680 C 0.88314 0.48028 0.94377 0.0
C681 C 0.94025 0.48721 0.91079 0.0
C682 C 0.92381 0.4854 0.9306 0.0
C683 C 0.86554 0.46051 0.98151 0.0
C684 C 0.88695 0.47193 0.96527 0.0
H685 H 0.96668 0.45374 0.88705 0.0
H686 H 0.9486 0.45817 0.92303 0.0
H687 H 0.89661 0.49116 0.90965 0.0
H688 H 0.81935 0.47071 0.0043 0.0
H689 H 0.85813 0.49215 0.98154 0.0
C690 C 0.4797 0.95153 0.04112 0.0
C691 C 0.50663 0.96511 0.03929 0.0
C692 C 0.46875 0.94167 0.06233 0.0
C693 C 0.48479 0.91511 0.11087 0.0
H694 H 0.4187 0.9017 0.13323 0.0
C695 C 0.43228 0.83705 0.17627 0.0
C696 C 0.40581 0.82075 0.17152 0.0
C697 C 0.44567 0.86029 0.16524 0.0
C698 C 0.43714 0.90521 0.12716 0.0
H699 H 0.54321 0.98119 0.05859 0.0
H700 H 0.52404 0.9641 0.09572 0.0
H701 H 0.44063 0.93469 0.10479 0.0
H702 H 0.37224 0.8163 0.15236 0.0
H703 H 0.39574 0.85628 0.13218 0.0
H704 H 0.48081 0.88474 0.13176 0.0
C705 C 0.51143 0.96087 0.0807 0.0
C706 C 0.44975 0.92422 0.11102 0.0
C707 C 0.52238 0.97081 0.0595 0.0
C708 C 0.39272 0.82851 0.15622 0.0
C709 C 0.40617 0.85156 0.14485 0.0
C710 C 0.47213 0.89601 0.12676 0.0
C711 C 0.48456 0.94515 0.08204 0.0
C712 C 0.4734 0.92889 0.10229 0.0
C713 C 0.43294 0.86753 0.1489 0.0
C714 C 0.44782 0.89033 0.13466 0.0
H715 H 0.46715 0.94714 0.02582 0.0
H716 H 0.44799 0.92957 0.06278 0.0
H717 H 0.50275 0.91789 0.10416 0.0
H718 H 0.4427 0.83199 0.18858 0.0
H719 H 0.46611 0.87239 0.16928 0.0
C720 C 0.52436 0.48829 0.20449 0.0
C721 C 0.54472 0.5136 0.20366 0.0
C722 C 0.52174 0.47399 0.22406 0.0
C723 C 0.53823 0.44334 0.25236 0.0
H724 H 0.57095 0.47169 0.31298 0.0
C725 C 0.6103 0.43022 0.31621 0.0
C726 C 0.59684 0.40382 0.32002 0.0
C727 C 0.59753 0.44213 0.30672 0.0
C728 C 0.56153 0.46346 0.29619 0.0
H729 H 0.57694 0.54466 0.22295 0.0
H730 H 0.57326 0.51974 0.25663 0.0
H731 H 0.55651 0.49535 0.28896 0.0
H732 H 0.55931 0.36921 0.3169 0.0
H733 H 0.53726 0.38998 0.29952 0.0
H734 H 0.54363 0.41166 0.25956 0.0
C735 C 0.5587 0.5108 0.24275 0.0
C736 C 0.55335 0.47701 0.28237 0.0
C737 C 0.5609 0.52521 0.2234 0.0
C738 C 0.57027 0.3896 0.31419 0.0
C739 C 0.5576 0.40144 0.30431 0.0
C740 C 0.54595 0.42962 0.26636 0.0
C741 C 0.54001 0.48456 0.24277 0.0
C742 C 0.54266 0.46768 0.25981 0.0
C743 C 0.57115 0.4278 0.30046 0.0
C744 C 0.55861 0.44004 0.28796 0.0
H745 H 0.51169 0.47902 0.18934 0.0
H746 H 0.50657 0.45411 0.22374 0.0
H747 H 0.53051 0.43554 0.23504 0.0
H748 H 0.63074 0.44173 0.32027 0.0
H749 H 0.60851 0.46241 0.3035 0.0
C750 C 0.46432 0.94346 0.41676 0.0
C751 C 0.44686 0.95182 0.42196 0.0
C752 C 0.46199 0.93051 0.39561 0.0
C753 C 0.41185 0.88628 0.35531 0.0
H754 H 0.46733 0.89662 0.31536 0.0
C755 C 0.39435 0.82131 0.27345 0.0
C756 C 0.41422 0.8167 0.26709 0.0
C757 C 0.39838 0.83884 0.29165 0.0
C758 C 0.45167 0.89319 0.32652 0.0
H759 H 0.41407 0.95434 0.40893 0.0
H760 H 0.40978 0.93138 0.37193 0.0
H761 H 0.47565 0.92743 0.34725 0.0
H762 H 0.45339 0.82576 0.27552 0.0
H763 H 0.46001 0.85526 0.30791 0.0
H764 H 0.38808 0.85151 0.33552 0.0
C765 C 0.42534 0.93502 0.38416 0.0
C766 C 0.45644 0.91102 0.34463 0.0
C767 C 0.42796 0.94835 0.40516 0.0
C768 C 0.43778 0.82911 0.2799 0.0
C769 C 0.44167 0.84626 0.29832 0.0
C770 C 0.40716 0.86823 0.33746 0.0
C771 C 0.44187 0.92533 0.37952 0.0
C772 C 0.43658 0.90767 0.35922 0.0
C773 C 0.42224 0.85183 0.30413 0.0
C774 C 0.42704 0.87133 0.3229 0.0
H775 H 0.47891 0.94577 0.42958 0.0
H776 H 0.47489 0.92313 0.39248 0.0
H777 H 0.3963 0.88305 0.36659 0.0
H778 H 0.37607 0.81223 0.26372 0.0
H779 H 0.38304 0.84279 0.29538 0.0
C780 C 0.51059 0.43895 0.55108 0.0
C781 C 0.52578 0.45705 0.5687 0.0
C782 C 0.52191 0.43606 0.53112 0.0
C783 C 0.58593 0.44888 0.5119 0.0
H784 H 0.54948 0.42347 0.45217 0.0
C785 C 0.6324 0.44089 0.42724 0.0
C786 C 0.61924 0.41727 0.41475 0.0
C787 C 0.62134 0.44574 0.44639 0.0
C788 C 0.55975 0.43039 0.46884 0.0
H789 H 0.56419 0.48754 0.57879 0.0
H790 H 0.58388 0.48364 0.54332 0.0
H791 H 0.52962 0.43491 0.48335 0.0
H792 H 0.58443 0.38005 0.41265 0.0
H793 H 0.56476 0.38882 0.44602 0.0
H794 H 0.61638 0.44507 0.49694 0.0
C795 C 0.56341 0.47091 0.54521 0.0
C796 C 0.54841 0.43693 0.48673 0.0
C797 C 0.55214 0.47344 0.56537 0.0
C798 C 0.59505 0.39834 0.42209 0.0
C799 C 0.58373 0.40341 0.44099 0.0
C800 C 0.59742 0.44278 0.49388 0.0
C801 C 0.54864 0.4515 0.52823 0.0
C802 C 0.56127 0.4461 0.50858 0.0
C803 C 0.59671 0.42726 0.45312 0.0
C804 C 0.58435 0.4333 0.47228 0.0
H805 H 0.49027 0.42582 0.55348 0.0
H806 H 0.5099 0.42072 0.51865 0.0
H807 H 0.59622 0.45524 0.52859 0.0
H808 H 0.65111 0.45581 0.42198 0.0
H809 H 0.63167 0.46428 0.45546 0.0
C810 C 0.07444 0.50925 0.74909 0.0
C811 C 0.07196 0.5245 0.76643 0.0
C812 C 0.08738 0.52018 0.72886 0.0
C813 C 0.11236 0.54619 0.68469 0.0
H814 H 0.17367 0.61232 0.69747 0.0
C815 C 0.20788 0.62709 0.63575 0.0
C816 C 0.2178 0.61183 0.62727 0.0
C817 C 0.18662 0.6168 0.64995 0.0
C818 C 0.15644 0.59404 0.6935 0.0
H819 H 0.07886 0.56244 0.77564 0.0
H820 H 0.10035 0.58143 0.73977 0.0
H821 H 0.14152 0.59369 0.72687 0.0
H822 H 0.21286 0.57365 0.62681 0.0
H823 H 0.1755 0.55562 0.65138 0.0
H824 H 0.12842 0.54618 0.65168 0.0
C825 C 0.09325 0.56125 0.74206 0.0
C826 C 0.13785 0.58336 0.71031 0.0
C827 C 0.08073 0.55039 0.76248 0.0
C828 C 0.20563 0.58589 0.63288 0.0
C829 C 0.18415 0.57552 0.64687 0.0
C830 C 0.13119 0.55676 0.66797 0.0
C831 C 0.09778 0.54655 0.72548 0.0
C832 C 0.11573 0.5591 0.7063 0.0
C833 C 0.17467 0.59097 0.65577 0.0
C834 C 0.15356 0.58062 0.67239 0.0
H835 H 0.06805 0.48928 0.75193 0.0
H836 H 0.09067 0.50826 0.71668 0.0
H837 H 0.09539 0.52769 0.68082 0.0
H838 H 0.21676 0.64714 0.63172 0.0
H839 H 0.1796 0.62908 0.65652 0.0
C840 C 0.56513 0.06985 0.91599 0.0
C841 C 0.55046 0.06912 0.93496 0.0
C842 C 0.56286 0.07998 0.8951 0.0
C843 C 0.5541 0.09996 0.85046 0.0
H844 H 0.55189 0.16246 0.86168 0.0
C845 C 0.57196 0.19579 0.7994 0.0
C846 C 0.59735 0.20454 0.79248 0.0
C847 C 0.55968 0.17456 0.81338 0.0
C848 C 0.55203 0.14482 0.85814 0.0
H849 H 0.5202 0.07602 0.94645 0.0
H850 H 0.51539 0.09281 0.90959 0.0
H851 H 0.54084 0.13219 0.89247 0.0
H852 H 0.62945 0.19747 0.79456 0.0
H853 H 0.60783 0.16021 0.81837 0.0
H854 H 0.56736 0.11395 0.81662 0.0
C855 C 0.52932 0.08642 0.91103 0.0
C856 C 0.54556 0.12731 0.87576 0.0
C857 C 0.5319 0.07664 0.93207 0.0
C858 C 0.60988 0.1912 0.79931 0.0
C859 C 0.59744 0.16974 0.8129 0.0
C860 C 0.56099 0.11771 0.83298 0.0
C861 C 0.54563 0.08933 0.89264 0.0
C862 C 0.54735 0.10505 0.87243 0.0
C863 C 0.57238 0.16144 0.82031 0.0
C864 C 0.56075 0.14063 0.83695 0.0
H865 H 0.57979 0.06444 0.91785 0.0
H866 H 0.57601 0.08214 0.88154 0.0
H867 H 0.5551 0.08275 0.84706 0.0
H868 H 0.56177 0.20567 0.79445 0.0
H869 H 0.54036 0.16855 0.81897 0.0
C870 C 0.51965 0.60011 0.07845 0.0
C871 C 0.50342 0.58053 0.09303 0.0
C872 C 0.51039 0.60256 0.05673 0.0
C873 C 0.46052 0.56877 0.01094 0.0
H874 H 0.46568 0.63457 0.00117 0.0
C875 C 0.39986 0.58033 0.93905 0.0
C876 C 0.41054 0.6033 0.92714 0.0
C877 C 0.41256 0.5781 0.95866 0.0
C878 C 0.46445 0.61622 0.00334 0.0
H879 H 0.46536 0.54749 0.0961 0.0
H880 H 0.44934 0.55131 0.05776 0.0
H881 H 0.48658 0.62891 0.03553 0.0
H882 H 0.44282 0.6421 0.92657 0.0
H883 H 0.46554 0.63801 0.96047 0.0
H884 H 0.43883 0.55603 0.97871 0.0
C885 C 0.46911 0.56485 0.06321 0.0
C886 C 0.47638 0.61299 0.02307 0.0
C887 C 0.47822 0.56268 0.08509 0.0
C888 C 0.43405 0.6242 0.93549 0.0
C889 C 0.44702 0.62184 0.95496 0.0
C890 C 0.44894 0.57208 0.99103 0.0
C891 C 0.48491 0.58519 0.0491 0.0
C892 C 0.47419 0.58913 0.02721 0.0
C893 C 0.43652 0.59866 0.96668 0.0
C894 C 0.45032 0.59572 0.98717 0.0
H895 H 0.53907 0.61427 0.08433 0.0
H896 H 0.52295 0.61831 0.04608 0.0
H897 H 0.45878 0.55026 0.01366 0.0
H898 H 0.38159 0.56397 0.93321 0.0
H899 H 0.40345 0.56021 0.96756 0.0
C900 C 0.93905 0.52211 0.25273 0.0
C901 C 0.94548 0.50753 0.26716 0.0
C902 C 0.92505 0.51146 0.23178 0.0
C903 C 0.8806 0.4476 0.20388 0.0
H904 H 0.88588 0.4874 0.15014 0.0
C905 C 0.82895 0.40324 0.11495 0.0
C906 C 0.81588 0.41445 0.10427 0.0
C907 C 0.84441 0.41454 0.13504 0.0
C908 C 0.88409 0.47615 0.16514 0.0
H909 H 0.94392 0.47113 0.27046 0.0
H910 H 0.92065 0.45289 0.23333 0.0
H911 H 0.91611 0.50771 0.18334 0.0
H912 H 0.80852 0.44615 0.10644 0.0
H913 H 0.83605 0.46621 0.14152 0.0
H914 H 0.849 0.4159 0.18527 0.0
C915 C 0.92548 0.4722 0.23849 0.0
C916 C 0.90138 0.48775 0.18418 0.0
C917 C 0.93912 0.48271 0.25961 0.0
C918 C 0.81823 0.437 0.11437 0.0
C919 C 0.83412 0.44858 0.13428 0.0
C920 C 0.8636 0.43595 0.18472 0.0
C921 C 0.91744 0.48609 0.22468 0.0
C922 C 0.89984 0.47364 0.20387 0.0
C923 C 0.84749 0.43752 0.14468 0.0
C924 C 0.86513 0.45012 0.16521 0.0
H925 H 0.9434 0.54116 0.25837 0.0
H926 H 0.91904 0.52272 0.22183 0.0
H927 H 0.87828 0.43622 0.21889 0.0
H928 H 0.82747 0.38583 0.10761 0.0
H929 H 0.85458 0.40569 0.14266 0.0
loop_
_geom_bond_atom_site_label_1
_geom_bond_atom_site_label_2
_geom_bond_distance
_geom_bond_site_symmetry_2
_ccdc_geom_bond_type
H0 C8 0.930 . S
H1 C11 0.930 . S
H2 C13 0.930 . S
H3 C14 0.970 . S
H4 C14 0.970 . S
H5 C16 0.930 . S
H6 C18 0.930 . S
H7 C20 0.930 . S
C8 H0 0.930 . S
C8 C9 1.382 . S
C8 C10 1.426 . S
C9 C8 1.382 . S
C9 C13 1.389 . S
C10 C8 1.426 . S
C10 C11 1.375 . S
C10 C14 1.532 1_655 S
C11 H1 0.930 . S
C11 C10 1.375 . S
C11 C12 1.416 . S
C12 C11 1.416 . S
C12 C13 1.371 . S
C13 H2 0.930 . S
C13 C9 1.389 . S
C13 C12 1.371 . S
C14 H3 0.970 . S
C14 H4 0.970 . S
C14 C10 1.532 1_455 S
C14 C15 1.499 . S
C15 C14 1.499 . S
C15 C16 1.370 . S
C15 C20 1.415 . S
C16 H5 0.930 . S
C16 C15 1.370 . S
C16 C17 1.407 . S
C17 C16 1.407 . S
C17 C18 1.365 . S
C18 H6 0.930 . S
C18 C17 1.365 . S
C18 C19 1.393 . S
C19 C18 1.393 . S
C19 C20 1.387 . S
C20 H7 0.930 . S
C20 C15 1.415 . S
C20 C19 1.387 . S
H21 C29 0.930 . S
H22 C32 0.930 . S
H23 C34 0.930 . S
H24 C35 0.970 . S
H25 C35 0.970 . S
H26 C37 0.930 . S
H27 C39 0.930 . S
H28 C41 0.930 . S
C29 H21 0.930 . S
C29 C30 1.382 . S
C29 C31 1.426 . S
C30 C29 1.382 . S
C30 C34 1.389 . S
C31 C29 1.426 . S
C31 C32 1.375 . S
C31 C35 1.532 1_565 S
C32 H22 0.930 . S
C32 C31 1.375 . S
C32 C33 1.416 . S
C33 C32 1.416 . S
C33 C34 1.371 . S
C34 H23 0.930 . S
C34 C30 1.389 . S
C34 C33 1.371 . S
C35 H24 0.970 . S
C35 H25 0.970 . S
C35 C31 1.532 1_545 S
C35 C36 1.499 . S
C36 C35 1.499 . S
C36 C37 1.370 . S
C36 C41 1.415 . S
C37 H26 0.930 . S
C37 C36 1.370 . S
C37 C38 1.407 . S
C38 C37 1.407 . S
C38 C39 1.365 . S
C39 H27 0.930 . S
C39 C38 1.365 . S
C39 C40 1.393 . S
C40 C39 1.393 . S
C40 C41 1.387 . S
C41 H28 0.930 . S
C41 C36 1.415 . S
C41 C40 1.387 . S
H42 C50 0.930 . S
H43 C53 0.930 . S
H44 C55 0.930 . S
H45 C56 0.970 . S
H46 C56 0.970 . S
H47 C58 0.930 . S
H48 C60 0.930 . S
H49 C62 0.930 . S
C50 H42 0.930 . S
C50 C51 1.382 . S
C50 C52 1.426 . S
C51 C50 1.382 . S
C51 C55 1.389 . S
C52 C50 1.426 . S
C52 C53 1.375 . S
C52 C56 1.532 . S
C53 H43 0.930 . S
C53 C52 1.375 . S
C53 C54 1.416 . S
C54 C53 1.416 . S
C54 C55 1.371 . S
C55 H44 0.930 . S
C55 C51 1.389 . S
C55 C54 1.371 . S
C56 H45 0.970 . S
C56 H46 0.970 . S
C56 C52 1.532 . S
C56 C57 1.499 . S
C57 C56 1.499 . S
C57 C58 1.370 . S
C57 C62 1.415 . S
C58 H47 0.930 . S
C58 C57 1.370 . S
C58 C59 1.407 . S
C59 C58 1.407 . S
C59 C60 1.365 . S
C60 H48 0.930 . S
C60 C59 1.365 . S
C60 C61 1.393 . S
C61 C60 1.393 . S
C61 C62 1.387 . S
C62 H49 0.930 . S
C62 C57 1.415 . S
C62 C61 1.387 . S
H63 C71 0.930 . S
H64 C74 0.930 . S
H65 C76 0.930 . S
H66 C77 0.970 . S
H67 C77 0.970 . S
H68 C79 0.930 . S
H69 C81 0.930 . S
H70 C83 0.930 . S
C71 H63 0.930 . S
C71 C72 1.382 . S
C71 C73 1.426 . S
C72 C71 1.382 . S
C72 C76 1.389 . S
C73 C71 1.426 . S
C73 C74 1.375 . S
C73 C77 1.532 1_655 S
C74 H64 0.930 . S
C74 C73 1.375 . S
C74 C75 1.416 . S
C75 C74 1.416 . S
C75 C76 1.371 . S
C76 H65 0.930 . S
C76 C72 1.389 . S
C76 C75 1.371 . S
C77 H66 0.970 . S
C77 H67 0.970 . S
C77 C73 1.532 1_455 S
C77 C78 1.499 . S
C78 C77 1.499 . S
C78 C79 1.370 . S
C78 C83 1.415 . S
C79 H68 0.930 . S
C79 C78 1.370 . S
C79 C80 1.407 . S
C80 C79 1.407 . S
C80 C81 1.365 . S
C81 H69 0.930 . S
C81 C80 1.365 . S
C81 C82 1.393 . S
C82 C81 1.393 . S
C82 C83 1.387 . S
C83 H70 0.930 . S
C83 C78 1.415 . S
C83 C82 1.387 . S
H84 C92 0.930 . S
H85 C95 0.930 . S
H86 C97 0.930 . S
H87 C98 0.970 1_554 S
H88 C98 0.970 . S
H89 C100 0.914 1_545 S
H90 C102 0.930 . S
H91 C104 0.930 . S
C92 H84 0.930 . S
C92 C93 1.382 1_554 S
C92 C94 1.426 1_554 S
C93 C92 1.382 1_556 S
C93 C97 1.389 . S
C94 C92 1.426 1_556 S
C94 C95 1.375 . S
C94 C98 1.532 . S
C95 H85 0.930 . S
C95 C94 1.375 . S
C95 C96 1.416 . S
C96 C95 1.416 . S
C96 C97 1.371 . S
C97 H86 0.930 . S
C97 C93 1.389 . S
C97 C96 1.371 . S
C98 H87 0.970 1_556 S
C98 H88 0.970 . S
C98 C94 1.532 . S
C98 C99 1.499 1_545 S
C99 C98 1.499 1_565 S
C99 C100 1.370 1_556 S
C99 C104 1.415 . S
C100 H89 0.914 1_565 S
C100 C99 1.370 1_554 S
C100 C101 1.407 . S
C101 C100 1.407 . S
C101 C102 1.365 . S
C102 H90 0.930 . S
C102 C101 1.365 . S
C102 C103 1.393 1_554 S
C103 C102 1.393 1_556 S
C103 C104 1.387 . S
C104 H91 0.930 . S
C104 C99 1.415 . S
C104 C103 1.387 . S
H105 C113 0.930 . S
H106 C116 0.930 . S
H107 C118 0.930 . S
H108 C119 0.970 . S
H109 C119 0.970 . S
H110 C121 0.930 . S
H111 C123 0.930 . S
H112 C125 0.930 . S
C113 H105 0.930 . S
C113 C114 1.382 . S
C113 C115 1.426 . S
C114 C113 1.382 . S
C114 C118 1.389 . S
C115 C113 1.426 . S
C115 C116 1.375 . S
C115 C119 1.532 . S
C116 H106 0.930 . S
C116 C115 1.375 . S
C116 C117 1.416 . S
C117 C116 1.416 . S
C117 C118 1.371 . S
C118 H107 0.930 . S
C118 C114 1.389 . S
C118 C117 1.371 . S
C119 H108 0.970 . S
C119 H109 0.970 . S
C119 C115 1.532 . S
C119 C120 1.499 . S
C120 C119 1.499 . S
C120 C121 1.370 . S
C120 C125 1.415 . S
C121 H110 0.930 . S
C121 C120 1.370 . S
C121 C122 1.407 . S
C122 C121 1.407 . S
C122 C123 1.365 . S
C123 H111 0.930 . S
C123 C122 1.365 . S
C123 C124 1.393 . S
C124 C123 1.393 . S
C124 C125 1.387 . S
C125 H112 0.930 . S
C125 C120 1.415 . S
C125 C124 1.387 . S
Mg126 O127 2.028 . S
Mg126 O133 1.986 . S
Mg126 O135 2.114 . S
Mg126 O136 2.251 . S
Mg126 O139 2.010 . S
O127 Mg126 2.028 . S
O127 C130 1.250 . S
O128 Mg129 2.028 . S
O128 C130 1.248 . S
Mg129 O128 2.028 . S
Mg129 O134 2.032 . S
Mg129 O136 2.079 . S
C130 O127 1.250 . S
C130 O128 1.248 . S
C131 O132 1.264 . S
C131 O139 1.249 . S
O132 C131 1.264 . S
O133 Mg126 1.986 . S
O133 C137 1.246 . S
O134 Mg129 2.032 . S
O134 C137 1.259 . S
O135 Mg126 2.114 . S
O135 C138 1.252 . S
O136 Mg126 2.251 . S
O136 Mg129 2.079 . S
O136 C138 1.273 . S
C137 O133 1.246 . S
C137 O134 1.259 . S
C138 O135 1.252 . S
C138 O136 1.273 . S
O139 Mg126 2.010 . S
O139 C131 1.249 . S
Mg140 O141 2.028 . S
Mg140 O147 1.986 . S
Mg140 O149 2.114 . S
Mg140 O150 2.251 . S
Mg140 O153 2.010 . S
O141 Mg140 2.028 . S
O141 C144 1.250 . S
O142 Mg143 2.028 . S
O142 C144 1.248 . S
Mg143 O142 2.028 . S
Mg143 O148 2.032 . S
Mg143 O150 2.079 . S
C144 O141 1.250 . S
C144 O142 1.248 . S
C145 O146 1.264 . S
C145 O153 1.249 . S
O146 C145 1.264 . S
O147 Mg140 1.986 . S
O147 C151 1.246 . S
O148 Mg143 2.032 . S
O148 C151 1.259 . S
O149 Mg140 2.114 . S
O149 C152 1.252 . S
O150 Mg140 2.251 . S
O150 Mg143 2.079 . S
O150 C152 1.273 . S
C151 O147 1.246 . S
C151 O148 1.259 . S
C152 O149 1.252 . S
C152 O150 1.273 . S
O153 Mg140 2.010 . S
O153 C145 1.249 . S
Mg154 O155 2.028 . S
Mg154 O161 1.986 . S
Mg154 O163 2.114 . S
Mg154 O164 2.251 . S
Mg154 O167 2.010 . S
O155 Mg154 2.028 . S
O155 C158 1.250 . S
O156 Mg157 2.028 . S
O156 C158 1.248 . S
Mg157 O156 2.028 . S
Mg157 O162 2.032 . S
Mg157 O164 2.079 . S
C158 O155 1.250 . S
C158 O156 1.248 . S
C159 O160 1.264 . S
C159 O167 1.249 . S
O160 C159 1.264 . S
O161 Mg154 1.986 . S
O161 C165 1.246 . S
O162 Mg157 2.032 . S
O162 C165 1.259 . S
O163 Mg154 2.114 . S
O163 C166 1.252 . S
O164 Mg154 2.251 . S
O164 Mg157 2.079 . S
O164 C166 1.273 . S
C165 O161 1.246 . S
C165 O162 1.259 . S
C166 O163 1.252 . S
C166 O164 1.273 . S
O167 Mg154 2.010 . S
O167 C159 1.249 . S
Mg168 O169 2.028 . S
Mg168 O175 1.986 . S
Mg168 O177 2.114 . S
Mg168 O178 2.251 . S
Mg168 O181 2.010 . S
O169 Mg168 2.028 . S
O169 C172 1.250 . S
O170 Mg171 2.028 . S
O170 C172 1.248 . S
Mg171 O170 2.028 . S
Mg171 O176 2.032 . S
Mg171 O178 2.079 . S
C172 O169 1.250 . S
C172 O170 1.248 . S
C173 O174 1.264 . S
C173 O181 1.249 . S
O174 C173 1.264 . S
O175 Mg168 1.986 . S
O175 C179 1.246 . S
O176 Mg171 2.032 . S
O176 C179 1.259 . S
O177 Mg168 2.114 . S
O177 C180 1.252 . S
O178 Mg168 2.251 . S
O178 Mg171 2.079 . S
O178 C180 1.273 . S
C179 O175 1.246 . S
C179 O176 1.259 . S
C180 O177 1.252 . S
C180 O178 1.273 . S
O181 Mg168 2.010 . S
O181 C173 1.249 . S
Mg182 O183 2.028 . S
Mg182 O189 1.986 . S
Mg182 O191 2.114 . S
Mg182 O192 2.251 . S
Mg182 O195 2.010 . S
O183 Mg182 2.028 . S
O183 C186 1.250 . S
O184 Mg185 2.028 . S
O184 C186 1.248 . S
Mg185 O184 2.028 . S
Mg185 O190 2.032 . S
Mg185 O192 2.079 . S
C186 O183 1.250 . S
C186 O184 1.248 . S
C187 O188 1.264 . S
C187 O195 1.249 . S
O188 C187 1.264 . S
O189 Mg182 1.986 . S
O189 C193 1.246 . S
O190 Mg185 2.032 . S
O190 C193 1.259 . S
O191 Mg182 2.114 . S
O191 C194 1.252 . S
O192 Mg182 2.251 . S
O192 Mg185 2.079 . S
O192 C194 1.273 . S
C193 O189 1.246 . S
C193 O190 1.259 . S
C194 O191 1.252 . S
C194 O192 1.273 . S
O195 Mg182 2.010 . S
O195 C187 1.249 . S
Mg196 O197 2.028 . S
Mg196 O203 1.986 . S
Mg196 O205 2.114 . S
Mg196 O206 2.251 . S
Mg196 O209 2.010 . S
O197 Mg196 2.028 . S
O197 C200 1.250 . S
O198 Mg199 2.028 . S
O198 C200 1.248 . S
Mg199 O198 2.028 . S
Mg199 O204 2.032 . S
Mg199 O206 2.079 . S
C200 O197 1.250 . S
C200 O198 1.248 . S
C201 O202 1.264 . S
C201 O209 1.249 . S
O202 C201 1.264 . S
O203 Mg196 1.986 . S
O203 C207 1.246 . S
O204 Mg199 2.032 . S
O204 C207 1.259 . S
O205 Mg196 2.114 . S
O205 C208 1.252 . S
O206 Mg196 2.251 . S
O206 Mg199 2.079 . S
O206 C208 1.273 . S
C207 O203 1.246 . S
C207 O204 1.259 . S
C208 O205 1.252 . S
C208 O206 1.273 . S
O209 Mg196 2.010 . S
O209 C201 1.249 . S
C210 C211 1.349 . S
C210 C212 1.327 . S
C210 H235 0.950 . S
C211 C210 1.349 . S
C211 C227 1.349 . S
C212 C210 1.327 . S
C212 C231 1.429 . S
C212 H236 0.950 . S
C213 C230 1.574 . S
C213 C232 1.368 . S
C213 H237 0.949 . S
H214 C218 0.949 . S
C215 C216 1.349 . S
C215 C217 1.327 . S
C215 H238 0.950 . S
C216 C215 1.349 . S
C216 C228 1.349 . S
C217 C215 1.327 . S
C217 C233 1.429 . S
C217 H239 0.950 . S
C218 H214 0.949 . S
C218 C226 1.574 . S
C218 C234 1.368 . S
H219 C227 0.950 . S
H220 C225 0.950 . S
H221 C226 0.949 . S
H222 C228 0.950 . S
H223 C229 0.950 . S
H224 C230 0.949 . S
C225 H220 0.950 . S
C225 C227 1.327 . S
C225 C231 1.429 . S
C226 C218 1.574 . S
C226 H221 0.949 . S
C226 C232 1.368 . S
C227 C211 1.349 . S
C227 H219 0.950 . S
C227 C225 1.327 . S
C228 C216 1.349 . S
C228 H222 0.950 . S
C228 C229 1.327 . S
C229 H223 0.950 . S
C229 C228 1.327 . S
C229 C233 1.429 . S
C230 C213 1.574 . S
C230 H224 0.949 . S
C230 C234 1.368 . S
C231 C212 1.429 . S
C231 C225 1.429 . S
C231 C232 1.523 . S
C232 C213 1.368 . S
C232 C226 1.368 . S
C232 C231 1.523 . S
C233 C217 1.429 . S
C233 C229 1.429 . S
C233 C234 1.523 . S
C234 C218 1.368 . S
C234 C230 1.368 . S
C234 C233 1.523 . S
H235 C210 0.950 . S
H236 C212 0.950 . S
H237 C213 0.949 . S
H238 C215 0.950 . S
H239 C217 0.950 . S
C240 C241 1.349 . S
C240 C242 1.327 . S
C240 H265 0.950 . S
C241 C240 1.349 . S
C241 C257 1.349 . S
C242 C240 1.327 . S
C242 C261 1.429 . S
C242 H266 0.950 . S
C243 C260 1.574 . S
C243 C262 1.368 . S
C243 H267 0.949 . S
H244 C248 0.949 . S
C245 C246 1.349 . S
C245 C247 1.327 . S
C245 H268 0.950 . S
C246 C245 1.349 . S
C246 C258 1.349 . S
C247 C245 1.327 . S
C247 C263 1.429 . S
C247 H269 0.950 . S
C248 H244 0.949 . S
C248 C256 1.574 . S
C248 C264 1.368 . S
H249 C257 0.950 . S
H250 C255 0.950 . S
H251 C256 0.949 . S
H252 C258 0.950 . S
H253 C259 0.950 . S
H254 C260 0.949 . S
C255 H250 0.950 . S
C255 C257 1.327 . S
C255 C261 1.429 . S
C256 C248 1.574 . S
C256 H251 0.949 . S
C256 C262 1.368 . S
C257 C241 1.349 . S
C257 H249 0.950 . S
C257 C255 1.327 . S
C258 C246 1.349 . S
C258 H252 0.950 . S
C258 C259 1.327 . S
C259 H253 0.950 . S
C259 C258 1.327 . S
C259 C263 1.429 . S
C260 C243 1.574 . S
C260 H254 0.949 . S
C260 C264 1.368 . S
C261 C242 1.429 . S
C261 C255 1.429 . S
C261 C262 1.523 . S
C262 C243 1.368 . S
C262 C256 1.368 . S
C262 C261 1.523 . S
C263 C247 1.429 . S
C263 C259 1.429 . S
C263 C264 1.523 . S
C264 C248 1.368 . S
C264 C260 1.368 . S
C264 C263 1.523 . S
H265 C240 0.950 . S
H266 C242 0.950 . S
H267 C243 0.949 . S
H268 C245 0.950 . S
H269 C247 0.950 . S
C270 C271 1.349 . S
C270 C272 1.327 . S
C270 H295 0.950 . S
C271 C270 1.349 . S
C271 C287 1.349 . S
C272 C270 1.327 . S
C272 C291 1.429 . S
C272 H296 0.950 . S
C273 C290 1.574 . S
C273 C292 1.368 . S
C273 H297 0.949 . S
H274 C278 0.949 . S
C275 C276 1.349 . S
C275 C277 1.327 . S
C275 H298 0.950 . S
C276 C275 1.349 . S
C276 C288 1.349 . S
C277 C275 1.327 . S
C277 C293 1.429 . S
C277 H299 0.950 . S
C278 H274 0.949 . S
C278 C286 1.574 . S
C278 C294 1.368 . S
H279 C287 0.950 . S
H280 C285 0.950 . S
H281 C286 0.949 . S
H282 C288 0.950 . S
H283 C289 0.950 . S
H284 C290 0.949 . S
C285 H280 0.950 . S
C285 C287 1.327 . S
C285 C291 1.429 . S
C286 C278 1.574 . S
C286 H281 0.949 . S
C286 C292 1.368 . S
C287 C271 1.349 . S
C287 H279 0.950 . S
C287 C285 1.327 . S
C288 C276 1.349 . S
C288 H282 0.950 . S
C288 C289 1.327 . S
C289 H283 0.950 . S
C289 C288 1.327 . S
C289 C293 1.429 . S
C290 C273 1.574 . S
C290 H284 0.949 . S
C290 C294 1.368 . S
C291 C272 1.429 . S
C291 C285 1.429 . S
C291 C292 1.523 . S
C292 C273 1.368 . S
C292 C286 1.368 . S
C292 C291 1.523 . S
C293 C277 1.429 . S
C293 C289 1.429 . S
C293 C294 1.523 . S
C294 C278 1.368 . S
C294 C290 1.368 . S
C294 C293 1.523 . S
H295 C270 0.950 . S
H296 C272 0.950 . S
H297 C273 0.949 . S
H298 C275 0.950 . S
H299 C277 0.950 . S
C300 C301 1.349 . S
C300 C302 1.327 . S
C300 H325 0.950 . S
C301 C300 1.349 . S
C301 C317 1.349 . S
C302 C300 1.327 . S
C302 C321 1.429 . S
C302 H326 0.950 . S
C303 C320 1.574 . S
C303 C322 1.368 . S
C303 H327 0.949 . S
H304 C308 0.949 . S
C305 C306 1.349 . S
C305 C307 1.327 . S
C305 H328 0.950 . S
C306 C305 1.349 . S
C306 C318 1.349 . S
C307 C305 1.327 . S
C307 C323 1.429 . S
C307 H329 0.950 . S
C308 H304 0.949 . S
C308 C316 1.574 . S
C308 C324 1.368 . S
H309 C317 0.950 . S
H310 C315 0.950 . S
H311 C316 0.949 . S
H312 C318 0.950 . S
H313 C319 0.950 . S
H314 C320 0.949 . S
C315 H310 0.950 . S
C315 C317 1.327 . S
C315 C321 1.429 . S
C316 C308 1.574 . S
C316 H311 0.949 . S
C316 C322 1.368 . S
C317 C301 1.349 . S
C317 H309 0.950 . S
C317 C315 1.327 . S
C318 C306 1.349 . S
C318 H312 0.950 . S
C318 C319 1.327 . S
C319 H313 0.950 . S
C319 C318 1.327 . S
C319 C323 1.429 . S
C320 C303 1.574 . S
C320 H314 0.949 . S
C320 C324 1.368 . S
C321 C302 1.429 . S
C321 C315 1.429 . S
C321 C322 1.523 . S
C322 C303 1.368 . S
C322 C316 1.368 . S
C322 C321 1.523 . S
C323 C307 1.429 . S
C323 C319 1.429 . S
C323 C324 1.523 . S
C324 C308 1.368 . S
C324 C320 1.368 . S
C324 C323 1.523 . S
H325 C300 0.950 . S
H326 C302 0.950 . S
H327 C303 0.949 . S
H328 C305 0.950 . S
H329 C307 0.950 . S
C330 C331 1.349 . S
C330 C332 1.327 . S
C330 H355 0.950 . S
C331 C330 1.349 . S
C331 C347 1.349 . S
C332 C330 1.327 . S
C332 C351 1.429 . S
C332 H356 0.950 . S
C333 C350 1.574 . S
C333 C352 1.368 . S
C333 H357 0.949 . S
H334 C338 0.949 . S
C335 C336 1.349 . S
C335 C337 1.327 . S
C335 H358 0.950 . S
C336 C335 1.349 . S
C336 C348 1.349 . S
C337 C335 1.327 . S
C337 C353 1.429 . S
C337 H359 0.950 . S
C338 H334 0.949 . S
C338 C346 1.574 . S
C338 C354 1.368 . S
H339 C347 0.950 . S
H340 C345 0.950 . S
H341 C346 0.949 . S
H342 C348 0.950 . S
H343 C349 0.950 . S
H344 C350 0.949 . S
C345 H340 0.950 . S
C345 C347 1.327 . S
C345 C351 1.429 . S
C346 C338 1.574 . S
C346 H341 0.949 . S
C346 C352 1.368 . S
C347 C331 1.349 . S
C347 H339 0.950 . S
C347 C345 1.327 . S
C348 C336 1.349 . S
C348 H342 0.950 . S
C348 C349 1.327 . S
C349 H343 0.950 . S
C349 C348 1.327 . S
C349 C353 1.429 . S
C350 C333 1.574 . S
C350 H344 0.949 . S
C350 C354 1.368 . S
C351 C332 1.429 . S
C351 C345 1.429 . S
C351 C352 1.523 . S
C352 C333 1.368 . S
C352 C346 1.368 . S
C352 C351 1.523 . S
C353 C337 1.429 . S
C353 C349 1.429 . S
C353 C354 1.523 . S
C354 C338 1.368 . S
C354 C350 1.368 . S
C354 C353 1.523 . S
H355 C330 0.950 . S
H356 C332 0.950 . S
H357 C333 0.949 . S
H358 C335 0.950 . S
H359 C337 0.950 . S
C360 C361 1.349 . S
C360 C362 1.327 . S
C360 H385 0.950 . S
C361 C360 1.349 . S
C361 C377 1.349 . S
C362 C360 1.327 . S
C362 C381 1.429 . S
C362 H386 0.950 . S
C363 C380 1.574 . S
C363 C382 1.368 . S
C363 H387 0.949 . S
H364 C368 0.949 . S
C365 C366 1.349 . S
C365 C367 1.327 . S
C365 H388 0.950 . S
C366 C365 1.349 . S
C366 C378 1.349 . S
C367 C365 1.327 . S
C367 C383 1.429 . S
C367 H389 0.950 . S
C368 H364 0.949 . S
C368 C376 1.574 . S
C368 C384 1.368 . S
H369 C377 0.950 . S
H370 C375 0.950 . S
H371 C376 0.949 . S
H372 C378 0.950 . S
H373 C379 0.950 . S
H374 C380 0.949 . S
C375 H370 0.950 . S
C375 C377 1.327 . S
C375 C381 1.429 . S
C376 C368 1.574 . S
C376 H371 0.949 . S
C376 C382 1.368 . S
C377 C361 1.349 . S
C377 H369 0.950 . S
C377 C375 1.327 . S
C378 C366 1.349 . S
C378 H372 0.950 . S
C378 C379 1.327 . S
C379 H373 0.950 . S
C379 C378 1.327 . S
C379 C383 1.429 . S
C380 C363 1.574 . S
C380 H374 0.949 . S
C380 C384 1.368 . S
C381 C362 1.429 . S
C381 C375 1.429 . S
C381 C382 1.523 . S
C382 C363 1.368 . S
C382 C376 1.368 . S
C382 C381 1.523 . S
C383 C367 1.429 . S
C383 C379 1.429 . S
C383 C384 1.523 . S
C384 C368 1.368 . S
C384 C380 1.368 . S
C384 C383 1.523 . S
H385 C360 0.950 . S
H386 C362 0.950 . S
H387 C363 0.949 . S
H388 C365 0.950 . S
H389 C367 0.950 . S
C390 C391 1.349 . S
C390 C392 1.327 . S
C390 H415 0.950 . S
C391 C390 1.349 . S
C391 C407 1.349 . S
C392 C390 1.327 . S
C392 C411 1.429 . S
C392 H416 0.950 . S
C393 C410 1.574 . S
C393 C412 1.368 . S
C393 H417 0.949 . S
H394 C398 0.949 . S
C395 C396 1.349 . S
C395 C397 1.327 . S
C395 H418 0.950 . S
C396 C395 1.349 . S
C396 C408 1.349 . S
C397 C395 1.327 . S
C397 C413 1.429 . S
C397 H419 0.950 . S
C398 H394 0.949 . S
C398 C406 1.574 . S
C398 C414 1.368 . S
H399 C407 0.950 . S
H400 C405 0.950 . S
H401 C406 0.949 . S
H402 C408 0.950 . S
H403 C409 0.950 . S
H404 C410 0.949 . S
C405 H400 0.950 . S
C405 C407 1.327 . S
C405 C411 1.429 . S
C406 C398 1.574 . S
C406 H401 0.949 . S
C406 C412 1.368 . S
C407 C391 1.349 . S
C407 H399 0.950 . S
C407 C405 1.327 . S
C408 C396 1.349 . S
C408 H402 0.950 . S
C408 C409 1.327 . S
C409 H403 0.950 . S
C409 C408 1.327 . S
C409 C413 1.429 . S
C410 C393 1.574 . S
C410 H404 0.949 . S
C410 C414 1.368 . S
C411 C392 1.429 . S
C411 C405 1.429 . S
C411 C412 1.523 . S
C412 C393 1.368 . S
C412 C406 1.368 . S
C412 C411 1.523 . S
C413 C397 1.429 . S
C413 C409 1.429 . S
C413 C414 1.523 . S
C414 C398 1.368 . S
C414 C410 1.368 . S
C414 C413 1.523 . S
H415 C390 0.950 . S
H416 C392 0.950 . S
H417 C393 0.949 . S
H418 C395 0.950 . S
H419 C397 0.950 . S
C420 C421 1.349 . S
C420 C422 1.327 . S
C420 H445 0.950 . S
C421 C420 1.349 . S
C421 C437 1.349 . S
C422 C420 1.327 . S
C422 C441 1.429 . S
C422 H446 0.950 . S
C423 C440 1.574 . S
C423 C442 1.368 . S
C423 H447 0.949 . S
H424 C428 0.949 . S
C425 C426 1.349 . S
C425 C427 1.327 . S
C425 H448 0.950 . S
C426 C425 1.349 . S
C426 C438 1.349 . S
C427 C425 1.327 . S
C427 C443 1.429 . S
C427 H449 0.950 . S
C428 H424 0.949 . S
C428 C436 1.574 . S
C428 C444 1.368 . S
H429 C437 0.950 . S
H430 C435 0.950 . S
H431 C436 0.949 . S
H432 C438 0.950 . S
H433 C439 0.950 . S
H434 C440 0.949 . S
C435 H430 0.950 . S
C435 C437 1.327 . S
C435 C441 1.429 . S
C436 C428 1.574 . S
C436 H431 0.949 . S
C436 C442 1.368 . S
C437 C421 1.349 . S
C437 H429 0.950 . S
C437 C435 1.327 . S
C438 C426 1.349 . S
C438 H432 0.950 . S
C438 C439 1.327 . S
C439 H433 0.950 . S
C439 C438 1.327 . S
C439 C443 1.429 . S
C440 C423 1.574 . S
C440 H434 0.949 . S
C440 C444 1.368 . S
C441 C422 1.429 . S
C441 C435 1.429 . S
C441 C442 1.523 . S
C442 C423 1.368 . S
C442 C436 1.368 . S
C442 C441 1.523 . S
C443 C427 1.429 . S
C443 C439 1.429 . S
C443 C444 1.523 . S
C444 C428 1.368 . S
C444 C440 1.368 . S
C444 C443 1.523 . S
H445 C420 0.950 . S
H446 C422 0.950 . S
H447 C423 0.949 . S
H448 C425 0.950 . S
H449 C427 0.950 . S
C450 C451 1.349 . S
C450 C452 1.327 . S
C450 H475 0.950 . S
C451 C450 1.349 . S
C451 C467 1.349 . S
C452 C450 1.327 . S
C452 C471 1.429 . S
C452 H476 0.950 . S
C453 C470 1.574 . S
C453 C472 1.368 . S
C453 H477 0.949 . S
H454 C458 0.949 . S
C455 C456 1.349 . S
C455 C457 1.327 . S
C455 H478 0.950 . S
C456 C455 1.349 . S
C456 C468 1.349 . S
C457 C455 1.327 . S
C457 C473 1.429 . S
C457 H479 0.950 . S
C458 H454 0.949 . S
C458 C466 1.574 . S
C458 C474 1.368 . S
H459 C467 0.950 . S
H460 C465 0.950 . S
H461 C466 0.949 . S
H462 C468 0.950 . S
H463 C469 0.950 . S
H464 C470 0.949 . S
C465 H460 0.950 . S
C465 C467 1.327 . S
C465 C471 1.429 . S
C466 C458 1.574 . S
C466 H461 0.949 . S
C466 C472 1.368 . S
C467 C451 1.349 . S
C467 H459 0.950 . S
C467 C465 1.327 . S
C468 C456 1.349 . S
C468 H462 0.950 . S
C468 C469 1.327 . S
C469 H463 0.950 . S
C469 C468 1.327 . S
C469 C473 1.429 . S
C470 C453 1.574 . S
C470 H464 0.949 . S
C470 C474 1.368 . S
C471 C452 1.429 . S
C471 C465 1.429 . S
C471 C472 1.523 . S
C472 C453 1.368 . S
C472 C466 1.368 . S
C472 C471 1.523 . S
C473 C457 1.429 . S
C473 C469 1.429 . S
C473 C474 1.523 . S
C474 C458 1.368 . S
C474 C470 1.368 . S
C474 C473 1.523 . S
H475 C450 0.950 . S
H476 C452 0.950 . S
H477 C453 0.949 . S
H478 C455 0.950 . S
H479 C457 0.950 . S
C480 C481 1.349 1_556 S
C480 C482 1.332 . S
C480 H505 0.950 . S
C481 C480 1.349 1_554 S
C481 C497 1.349 . S
C482 C480 1.332 . S
C482 C501 1.410 1_556 S
C482 H506 0.964 . S
C483 C500 1.574 . S
C483 C502 1.368 . S
C483 H507 0.949 . S
H484 C488 0.949 . S
C485 C486 1.349 . S
C485 C487 1.327 . S
C485 H508 0.950 . S
C486 C485 1.349 . S
C486 C498 1.349 . S
C487 C485 1.327 . S
C487 C503 1.429 . S
C487 H509 0.950 . S
C488 H484 0.949 . S
C488 C496 1.574 . S
C488 C504 1.368 . S
H489 C497 0.950 . S
H490 C495 0.950 . S
H491 C496 0.949 1_556 S
H492 C498 0.950 . S
H493 C499 0.950 . S
H494 C500 0.949 . S
C495 H490 0.950 . S
C495 C497 1.327 . S
C495 C501 1.429 . S
C496 C488 1.574 . S
C496 H491 0.949 1_554 S
C496 C502 1.368 . S
C497 C481 1.349 . S
C497 H489 0.950 . S
C497 C495 1.327 . S
C498 C486 1.349 . S
C498 H492 0.950 . S
C498 C499 1.327 . S
C499 H493 0.950 . S
C499 C498 1.327 . S
C499 C503 1.429 . S
C500 C483 1.574 . S
C500 H494 0.949 . S
C500 C504 1.368 . S
C501 C482 1.410 1_554 S
C501 C495 1.429 . S
C501 C502 1.523 . S
C502 C483 1.368 . S
C502 C496 1.368 . S
C502 C501 1.523 . S
C503 C487 1.429 . S
C503 C499 1.429 . S
C503 C504 1.523 . S
C504 C488 1.368 . S
C504 C500 1.368 . S
C504 C503 1.523 . S
H505 C480 0.950 . S
H506 C482 0.964 . S
H507 C483 0.949 . S
H508 C485 0.950 . S
H509 C487 0.950 . S
C510 C511 1.349 . S
C510 C512 1.327 . S
C510 H535 0.950 . S
C511 C510 1.349 . S
C511 C527 1.349 . S
C512 C510 1.327 . S
C512 C531 1.429 . S
C512 H536 0.950 . S
C513 C530 1.574 . S
C513 C532 1.368 . S
C513 H537 0.949 . S
H514 C518 0.949 . S
C515 C516 1.349 . S
C515 C517 1.327 . S
C515 H538 0.950 . S
C516 C515 1.349 . S
C516 C528 1.349 . S
C517 C515 1.327 . S
C517 C533 1.429 . S
C517 H539 0.950 . S
C518 H514 0.949 . S
C518 C526 1.574 . S
C518 C534 1.368 . S
H519 C527 0.950 . S
H520 C525 0.950 . S
H521 C526 0.949 . S
H522 C528 0.950 . S
H523 C529 0.950 . S
H524 C530 0.949 . S
C525 H520 0.950 . S
C525 C527 1.327 . S
C525 C531 1.429 . S
C526 C518 1.574 . S
C526 H521 0.949 . S
C526 C532 1.368 . S
C527 C511 1.349 . S
C527 H519 0.950 . S
C527 C525 1.327 . S
C528 C516 1.349 . S
C528 H522 0.950 . S
C528 C529 1.327 . S
C529 H523 0.950 . S
C529 C528 1.327 . S
C529 C533 1.429 . S
C530 C513 1.574 . S
C530 H524 0.949 . S
C530 C534 1.368 . S
C531 C512 1.429 . S
C531 C525 1.429 . S
C531 C532 1.523 . S
C532 C513 1.368 . S
C532 C526 1.368 . S
C532 C531 1.523 . S
C533 C517 1.429 . S
C533 C529 1.429 . S
C533 C534 1.523 . S
C534 C518 1.368 . S
C534 C530 1.368 . S
C534 C533 1.523 . S
H535 C510 0.950 . S
H536 C512 0.950 . S
H537 C513 0.949 . S
H538 C515 0.950 . S
H539 C517 0.950 . S
C540 C541 1.349 . S
C540 C542 1.327 . S
C540 H565 0.950 . S
C541 C540 1.349 . S
C541 C557 1.349 . S
C542 C540 1.327 . S
C542 C561 1.429 . S
C542 H566 0.950 . S
C543 C560 1.574 . S
C543 C562 1.368 . S
C543 H567 0.949 . S
H544 C548 0.949 . S
C545 C546 1.349 . S
C545 C547 1.327 . S
C545 H568 0.950 . S
C546 C545 1.349 . S
C546 C558 1.349 . S
C547 C545 1.327 . S
C547 C563 1.429 . S
C547 H569 0.950 . S
C548 H544 0.949 . S
C548 C556 1.574 . S
C548 C564 1.368 . S
H549 C557 0.950 . S
H550 C555 0.950 . S
H551 C556 0.949 . S
H552 C558 0.950 . S
H553 C559 0.950 . S
H554 C560 0.949 . S
C555 H550 0.950 . S
C555 C557 1.327 . S
C555 C561 1.429 . S
C556 C548 1.574 . S
C556 H551 0.949 . S
C556 C562 1.368 . S
C557 C541 1.349 . S
C557 H549 0.950 . S
C557 C555 1.327 . S
C558 C546 1.349 . S
C558 H552 0.950 . S
C558 C559 1.327 . S
C559 H553 0.950 . S
C559 C558 1.327 . S
C559 C563 1.429 . S
C560 C543 1.574 . S
C560 H554 0.949 . S
C560 C564 1.368 . S
C561 C542 1.429 . S
C561 C555 1.429 . S
C561 C562 1.523 . S
C562 C543 1.368 . S
C562 C556 1.368 . S
C562 C561 1.523 . S
C563 C547 1.429 . S
C563 C559 1.429 . S
C563 C564 1.523 . S
C564 C548 1.368 . S
C564 C560 1.368 . S
C564 C563 1.523 . S
H565 C540 0.950 . S
H566 C542 0.950 . S
H567 C543 0.949 . S
H568 C545 0.950 . S
H569 C547 0.950 . S
C570 C571 1.349 . S
C570 C572 1.327 . S
C570 H595 0.950 . S
C571 C570 1.349 . S
C571 C587 1.349 . S
C572 C570 1.327 . S
C572 C591 1.429 . S
C572 H596 0.950 . S
C573 C590 1.574 . S
C573 C592 1.368 . S
C573 H597 0.949 . S
H574 C578 0.949 . S
C575 C576 1.349 . S
C575 C577 1.327 . S
C575 H598 0.950 . S
C576 C575 1.349 . S
C576 C588 1.349 . S
C577 C575 1.327 . S
C577 C593 1.429 . S
C577 H599 0.950 . S
C578 H574 0.949 . S
C578 C586 1.574 . S
C578 C594 1.368 . S
H579 C587 0.950 . S
H580 C585 0.950 . S
H581 C586 0.949 . S
H582 C588 0.950 . S
H583 C589 0.950 . S
H584 C590 0.949 . S
C585 H580 0.950 . S
C585 C587 1.327 . S
C585 C591 1.429 . S
C586 C578 1.574 . S
C586 H581 0.949 . S
C586 C592 1.368 . S
C587 C571 1.349 . S
C587 H579 0.950 . S
C587 C585 1.327 . S
C588 C576 1.349 . S
C588 H582 0.950 . S
C588 C589 1.327 . S
C589 H583 0.950 . S
C589 C588 1.327 . S
C589 C593 1.429 . S
C590 C573 1.574 . S
C590 H584 0.949 . S
C590 C594 1.368 . S
C591 C572 1.429 . S
C591 C585 1.429 . S
C591 C592 1.523 . S
C592 C573 1.368 . S
C592 C586 1.368 . S
C592 C591 1.523 . S
C593 C577 1.429 . S
C593 C589 1.429 . S
C593 C594 1.523 . S
C594 C578 1.368 . S
C594 C590 1.368 . S
C594 C593 1.523 . S
H595 C570 0.950 . S
H596 C572 0.950 . S
H597 C573 0.949 . S
H598 C575 0.950 . S
H599 C577 0.950 . S
C600 C601 1.349 . S
C600 C602 1.327 . S
C600 H625 0.950 . S
C601 C600 1.349 . S
C601 C617 1.349 . S
C602 C600 1.327 . S
C602 C621 1.429 . S
C602 H626 0.950 . S
C603 C620 1.574 . S
C603 C622 1.368 . S
C603 H627 0.949 . S
H604 C608 0.949 . S
C605 C606 1.349 . S
C605 C607 1.327 . S
C605 H628 0.950 . S
C606 C605 1.349 . S
C606 C618 1.349 . S
C607 C605 1.327 . S
C607 C623 1.429 . S
C607 H629 0.950 . S
C608 H604 0.949 . S
C608 C616 1.574 . S
C608 C624 1.368 . S
H609 C617 0.950 . S
H610 C615 0.950 . S
H611 C616 0.949 . S
H612 C618 0.950 . S
H613 C619 0.950 . S
H614 C620 0.949 . S
C615 H610 0.950 . S
C615 C617 1.327 . S
C615 C621 1.429 . S
C616 C608 1.574 . S
C616 H611 0.949 . S
C616 C622 1.368 . S
C617 C601 1.349 . S
C617 H609 0.950 . S
C617 C615 1.327 . S
C618 C606 1.349 . S
C618 H612 0.950 . S
C618 C619 1.327 . S
C619 H613 0.950 . S
C619 C618 1.327 . S
C619 C623 1.429 . S
C620 C603 1.574 . S
C620 H614 0.949 . S
C620 C624 1.368 . S
C621 C602 1.429 . S
C621 C615 1.429 . S
C621 C622 1.523 . S
C622 C603 1.368 . S
C622 C616 1.368 . S
C622 C621 1.523 . S
C623 C607 1.429 . S
C623 C619 1.429 . S
C623 C624 1.523 . S
C624 C608 1.368 . S
C624 C620 1.368 . S
C624 C623 1.523 . S
H625 C600 0.950 . S
H626 C602 0.950 . S
H627 C603 0.949 . S
H628 C605 0.950 . S
H629 C607 0.950 . S
C630 C631 1.349 . S
C630 C632 1.327 . S
C630 H655 0.950 . S
C631 C630 1.349 . S
C631 C647 1.349 . S
C632 C630 1.327 . S
C632 C651 1.429 . S
C632 H656 0.950 . S
C633 C650 1.574 . S
C633 C652 1.368 . S
C633 H657 0.949 . S
H634 C638 0.949 . S
C635 C636 1.349 . S
C635 C637 1.327 . S
C635 H658 0.950 . S
C636 C635 1.349 . S
C636 C648 1.349 . S
C637 C635 1.327 . S
C637 C653 1.429 . S
C637 H659 0.950 . S
C638 H634 0.949 . S
C638 C646 1.574 . S
C638 C654 1.368 . S
H639 C647 0.950 . S
H640 C645 0.950 . S
H641 C646 0.949 . S
H642 C648 0.950 . S
H643 C649 0.950 . S
H644 C650 0.949 . S
C645 H640 0.950 . S
C645 C647 1.327 . S
C645 C651 1.429 . S
C646 C638 1.574 . S
C646 H641 0.949 . S
C646 C652 1.368 . S
C647 C631 1.349 . S
C647 H639 0.950 . S
C647 C645 1.327 . S
C648 C636 1.349 . S
C648 H642 0.950 . S
C648 C649 1.327 . S
C649 H643 0.950 . S
C649 C648 1.327 . S
C649 C653 1.429 . S
C650 C633 1.574 . S
C650 H644 0.949 . S
C650 C654 1.368 . S
C651 C632 1.429 . S
C651 C645 1.429 . S
C651 C652 1.523 . S
C652 C633 1.368 . S
C652 C646 1.368 . S
C652 C651 1.523 . S
C653 C637 1.429 . S
C653 C649 1.429 . S
C653 C654 1.523 . S
C654 C638 1.368 . S
C654 C650 1.368 . S
C654 C653 1.523 . S
H655 C630 0.950 . S
H656 C632 0.950 . S
H657 C633 0.949 . S
H658 C635 0.950 . S
H659 C637 0.950 . S
C660 C661 1.349 . S
C660 C662 1.327 . S
C660 H685 0.950 . S
C661 C660 1.349 . S
C661 C677 1.349 . S
C662 C660 1.327 . S
C662 C681 1.429 . S
C662 H686 0.950 . S
C663 C680 1.574 . S
C663 C682 1.368 . S
C663 H687 0.949 . S
H664 C668 0.949 . S
C665 C666 1.349 . S
C665 C667 1.327 1_554 S
C665 H688 0.950 . S
C666 C665 1.349 . S
C666 C678 1.349 . S
C667 C665 1.327 1_556 S
C667 C683 1.429 . S
C667 H689 0.950 . S
C668 H664 0.949 . S
C668 C676 1.574 . S
C668 C684 1.368 . S
H669 C677 0.950 . S
H670 C675 0.950 . S
H671 C676 0.949 . S
H672 C678 0.950 . S
H673 C679 0.950 . S
H674 C680 0.949 . S
C675 H670 0.950 . S
C675 C677 1.327 . S
C675 C681 1.429 . S
C676 C668 1.574 . S
C676 H671 0.949 . S
C676 C682 1.368 . S
C677 C661 1.349 . S
C677 H669 0.950 . S
C677 C675 1.327 . S
C678 C666 1.349 . S
C678 H672 0.950 . S
C678 C679 1.327 1_554 S
C679 H673 0.950 . S
C679 C678 1.327 1_556 S
C679 C683 1.429 . S
C680 C663 1.574 . S
C680 H674 0.949 . S
C680 C684 1.368 . S
C681 C662 1.429 . S
C681 C675 1.429 . S
C681 C682 1.523 . S
C682 C663 1.368 . S
C682 C676 1.368 . S
C682 C681 1.523 . S
C683 C667 1.429 . S
C683 C679 1.429 . S
C683 C684 1.523 . S
C684 C668 1.368 . S
C684 C680 1.368 . S
C684 C683 1.523 . S
H685 C660 0.950 . S
H686 C662 0.950 . S
H687 C663 0.949 . S
H688 C665 0.950 . S
H689 C667 0.950 . S
C690 C691 1.349 . S
C690 C692 1.327 . S
C690 H715 0.950 . S
C691 C690 1.349 . S
C691 C707 1.349 . S
C692 C690 1.327 . S
C692 C711 1.429 . S
C692 H716 0.950 . S
C693 C710 1.574 . S
C693 C712 1.368 . S
C693 H717 0.949 . S
H694 C698 0.949 . S
C695 C696 1.349 . S
C695 C697 1.327 . S
C695 H718 0.950 . S
C696 C695 1.349 . S
C696 C708 1.349 . S
C697 C695 1.327 . S
C697 C713 1.429 . S
C697 H719 0.950 . S
C698 H694 0.949 . S
C698 C706 1.574 . S
C698 C714 1.368 . S
H699 C707 0.950 . S
H700 C705 0.950 . S
H701 C706 0.949 . S
H702 C708 0.950 . S
H703 C709 0.950 . S
H704 C710 0.949 . S
C705 H700 0.950 . S
C705 C707 1.327 . S
C705 C711 1.429 . S
C706 C698 1.574 . S
C706 H701 0.949 . S
C706 C712 1.368 . S
C707 C691 1.349 . S
C707 H699 0.950 . S
C707 C705 1.327 . S
C708 C696 1.349 . S
C708 H702 0.950 . S
C708 C709 1.327 . S
C709 H703 0.950 . S
C709 C708 1.327 . S
C709 C713 1.429 . S
C710 C693 1.574 . S
C710 H704 0.949 . S
C710 C714 1.368 . S
C711 C692 1.429 . S
C711 C705 1.429 . S
C711 C712 1.523 . S
C712 C693 1.368 . S
C712 C706 1.368 . S
C712 C711 1.523 . S
C713 C697 1.429 . S
C713 C709 1.429 . S
C713 C714 1.523 . S
C714 C698 1.368 . S
C714 C710 1.368 . S
C714 C713 1.523 . S
H715 C690 0.950 . S
H716 C692 0.950 . S
H717 C693 0.949 . S
H718 C695 0.950 . S
H719 C697 0.950 . S
C720 C721 1.349 . S
C720 C722 1.327 . S
C720 H745 0.950 . S
C721 C720 1.349 . S
C721 C737 1.349 . S
C722 C720 1.327 . S
C722 C741 1.429 . S
C722 H746 0.950 . S
C723 C740 1.574 . S
C723 C742 1.368 . S
C723 H747 0.949 . S
H724 C728 0.949 . S
C725 C726 1.349 . S
C725 C727 1.327 . S
C725 H748 0.950 . S
C726 C725 1.349 . S
C726 C738 1.349 . S
C727 C725 1.327 . S
C727 C743 1.429 . S
C727 H749 0.950 . S
C728 H724 0.949 . S
C728 C736 1.574 . S
C728 C744 1.368 . S
H729 C737 0.950 . S
H730 C735 0.950 . S
H731 C736 0.949 . S
H732 C738 0.950 . S
H733 C739 0.950 . S
H734 C740 0.949 . S
C735 H730 0.950 . S
C735 C737 1.327 . S
C735 C741 1.429 . S
C736 C728 1.574 . S
C736 H731 0.949 . S
C736 C742 1.368 . S
C737 C721 1.349 . S
C737 H729 0.950 . S
C737 C735 1.327 . S
C738 C726 1.349 . S
C738 H732 0.950 . S
C738 C739 1.327 . S
C739 H733 0.950 . S
C739 C738 1.327 . S
C739 C743 1.429 . S
C740 C723 1.574 . S
C740 H734 0.949 . S
C740 C744 1.368 . S
C741 C722 1.429 . S
C741 C735 1.429 . S
C741 C742 1.523 . S
C742 C723 1.368 . S
C742 C736 1.368 . S
C742 C741 1.523 . S
C743 C727 1.429 . S
C743 C739 1.429 . S
C743 C744 1.523 . S
C744 C728 1.368 . S
C744 C740 1.368 . S
C744 C743 1.523 . S
H745 C720 0.950 . S
H746 C722 0.950 . S
H747 C723 0.949 . S
H748 C725 0.950 . S
H749 C727 0.950 . S
C750 C751 1.349 . S
C750 C752 1.327 . S
C750 H775 0.950 . S
C751 C750 1.349 . S
C751 C767 1.349 . S
C752 C750 1.327 . S
C752 C771 1.429 . S
C752 H776 0.950 . S
C753 C770 1.574 . S
C753 C772 1.368 . S
C753 H777 0.949 . S
H754 C758 0.949 . S
C755 C756 1.349 . S
C755 C757 1.327 . S
C755 H778 0.950 . S
C756 C755 1.349 . S
C756 C768 1.349 . S
C757 C755 1.327 . S
C757 C773 1.429 . S
C757 H779 0.950 . S
C758 H754 0.949 . S
C758 C766 1.574 . S
C758 C774 1.368 . S
H759 C767 0.950 . S
H760 C765 0.950 . S
H761 C766 0.949 . S
H762 C768 0.950 . S
H763 C769 0.950 . S
H764 C770 0.949 . S
C765 H760 0.950 . S
C765 C767 1.327 . S
C765 C771 1.429 . S
C766 C758 1.574 . S
C766 H761 0.949 . S
C766 C772 1.368 . S
C767 C751 1.349 . S
C767 H759 0.950 . S
C767 C765 1.327 . S
C768 C756 1.349 . S
C768 H762 0.950 . S
C768 C769 1.327 . S
C769 H763 0.950 . S
C769 C768 1.327 . S
C769 C773 1.429 . S
C770 C753 1.574 . S
C770 H764 0.949 . S
C770 C774 1.368 . S
C771 C752 1.429 . S
C771 C765 1.429 . S
C771 C772 1.523 . S
C772 C753 1.368 . S
C772 C766 1.368 . S
C772 C771 1.523 . S
C773 C757 1.429 . S
C773 C769 1.429 . S
C773 C774 1.523 . S
C774 C758 1.368 . S
C774 C770 1.368 . S
C774 C773 1.523 . S
H775 C750 0.950 . S
H776 C752 0.950 . S
H777 C753 0.949 . S
H778 C755 0.950 . S
H779 C757 0.950 . S
C780 C781 1.349 . S
C780 C782 1.327 . S
C780 H805 0.950 . S
C781 C780 1.349 . S
C781 C797 1.349 . S
C782 C780 1.327 . S
C782 C801 1.429 . S
C782 H806 0.950 . S
C783 C800 1.574 . S
C783 C802 1.368 . S
C783 H807 0.949 . S
H784 C788 0.949 . S
C785 C786 1.349 . S
C785 C787 1.327 . S
C785 H808 0.950 . S
C786 C785 1.349 . S
C786 C798 1.349 . S
C787 C785 1.327 . S
C787 C803 1.429 . S
C787 H809 0.950 . S
C788 H784 0.949 . S
C788 C796 1.574 . S
C788 C804 1.368 . S
H789 C797 0.950 . S
H790 C795 0.950 . S
H791 C796 0.949 . S
H792 C798 0.950 . S
H793 C799 0.950 . S
H794 C800 0.949 . S
C795 H790 0.950 . S
C795 C797 1.327 . S
C795 C801 1.429 . S
C796 C788 1.574 . S
C796 H791 0.949 . S
C796 C802 1.368 . S
C797 C781 1.349 . S
C797 H789 0.950 . S
C797 C795 1.327 . S
C798 C786 1.349 . S
C798 H792 0.950 . S
C798 C799 1.327 . S
C799 H793 0.950 . S
C799 C798 1.327 . S
C799 C803 1.429 . S
C800 C783 1.574 . S
C800 H794 0.949 . S
C800 C804 1.368 . S
C801 C782 1.429 . S
C801 C795 1.429 . S
C801 C802 1.523 . S
C802 C783 1.368 . S
C802 C796 1.368 . S
C802 C801 1.523 . S
C803 C787 1.429 . S
C803 C799 1.429 . S
C803 C804 1.523 . S
C804 C788 1.368 . S
C804 C800 1.368 . S
C804 C803 1.523 . S
H805 C780 0.950 . S
H806 C782 0.950 . S
H807 C783 0.949 . S
H808 C785 0.950 . S
H809 C787 0.950 . S
C810 C811 1.349 . S
C810 C812 1.327 . S
C810 H835 0.950 . S
C811 C810 1.349 . S
C811 C827 1.349 . S
C812 C810 1.327 . S
C812 C831 1.429 . S
C812 H836 0.950 . S
C813 C830 1.574 . S
C813 C832 1.368 . S
C813 H837 0.949 . S
H814 C818 0.949 . S
C815 C816 1.349 . S
C815 C817 1.327 . S
C815 H838 0.950 . S
C816 C815 1.349 . S
C816 C828 1.349 . S
C817 C815 1.327 . S
C817 C833 1.429 . S
C817 H839 0.950 . S
C818 H814 0.949 . S
C818 C826 1.574 . S
C818 C834 1.368 . S
H819 C827 0.950 . S
H820 C825 0.950 . S
H821 C826 0.949 . S
H822 C828 0.950 . S
H823 C829 0.950 . S
H824 C830 0.949 . S
C825 H820 0.950 . S
C825 C827 1.327 . S
C825 C831 1.429 . S
C826 C818 1.574 . S
C826 H821 0.949 . S
C826 C832 1.368 . S
C827 C811 1.349 . S
C827 H819 0.950 . S
C827 C825 1.327 . S
C828 C816 1.349 . S
C828 H822 0.950 . S
C828 C829 1.327 . S
C829 H823 0.950 . S
C829 C828 1.327 . S
C829 C833 1.429 . S
C830 C813 1.574 . S
C830 H824 0.949 . S
C830 C834 1.368 . S
C831 C812 1.429 . S
C831 C825 1.429 . S
C831 C832 1.523 . S
C832 C813 1.368 . S
C832 C826 1.368 . S
C832 C831 1.523 . S
C833 C817 1.429 . S
C833 C829 1.429 . S
C833 C834 1.523 . S
C834 C818 1.368 . S
C834 C830 1.368 . S
C834 C833 1.523 . S
H835 C810 0.950 . S
H836 C812 0.950 . S
H837 C813 0.949 . S
H838 C815 0.950 . S
H839 C817 0.950 . S
C840 C841 1.349 . S
C840 C842 1.327 . S
C840 H865 0.950 . S
C841 C840 1.349 . S
C841 C857 1.349 . S
C842 C840 1.327 . S
C842 C861 1.429 . S
C842 H866 0.950 . S
C843 C860 1.574 . S
C843 C862 1.368 . S
C843 H867 0.949 . S
H844 C848 0.949 . S
C845 C846 1.349 . S
C845 C847 1.327 . S
C845 H868 0.950 . S
C846 C845 1.349 . S
C846 C858 1.349 . S
C847 C845 1.327 . S
C847 C863 1.429 . S
C847 H869 0.950 . S
C848 H844 0.949 . S
C848 C856 1.574 . S
C848 C864 1.368 . S
H849 C857 0.950 . S
H850 C855 0.950 . S
H851 C856 0.949 . S
H852 C858 0.950 . S
H853 C859 0.950 . S
H854 C860 0.949 . S
C855 H850 0.950 . S
C855 C857 1.327 . S
C855 C861 1.429 . S
C856 C848 1.574 . S
C856 H851 0.949 . S
C856 C862 1.368 . S
C857 C841 1.349 . S
C857 H849 0.950 . S
C857 C855 1.327 . S
C858 C846 1.349 . S
C858 H852 0.950 . S
C858 C859 1.327 . S
C859 H853 0.950 . S
C859 C858 1.327 . S
C859 C863 1.429 . S
C860 C843 1.574 . S
C860 H854 0.949 . S
C860 C864 1.368 . S
C861 C842 1.429 . S
C861 C855 1.429 . S
C861 C862 1.523 . S
C862 C843 1.368 . S
C862 C856 1.368 . S
C862 C861 1.523 . S
C863 C847 1.429 . S
C863 C859 1.429 . S
C863 C864 1.523 . S
C864 C848 1.368 . S
C864 C860 1.368 . S
C864 C863 1.523 . S
H865 C840 0.950 . S
H866 C842 0.950 . S
H867 C843 0.949 . S
H868 C845 0.950 . S
H869 C847 0.950 . S
C870 C871 1.349 . S
C870 C872 1.327 . S
C870 H895 0.950 . S
C871 C870 1.349 . S
C871 C887 1.349 . S
C872 C870 1.327 . S
C872 C891 1.429 . S
C872 H896 0.950 . S
C873 C890 1.574 . S
C873 C892 1.368 . S
C873 H897 0.949 . S
H874 C878 0.949 . S
C875 C876 1.349 . S
C875 C877 1.327 . S
C875 H898 0.950 . S
C876 C875 1.349 . S
C876 C888 1.349 . S
C877 C875 1.327 . S
C877 C893 1.429 . S
C877 H899 0.950 . S
C878 H874 0.949 . S
C878 C886 1.574 . S
C878 C894 1.368 . S
H879 C887 0.950 . S
H880 C885 0.950 . S
H881 C886 0.949 . S
H882 C888 0.950 . S
H883 C889 0.950 . S
H884 C890 0.949 . S
C885 H880 0.950 . S
C885 C887 1.327 . S
C885 C891 1.429 . S
C886 C878 1.574 . S
C886 H881 0.949 . S
C886 C892 1.368 . S
C887 C871 1.349 . S
C887 H879 0.950 . S
C887 C885 1.327 . S
C888 C876 1.349 . S
C888 H882 0.950 . S
C888 C889 1.327 . S
C889 H883 0.950 . S
C889 C888 1.327 . S
C889 C893 1.429 . S
C890 C873 1.574 . S
C890 H884 0.949 . S
C890 C894 1.368 . S
C891 C872 1.429 . S
C891 C885 1.429 . S
C891 C892 1.523 . S
C892 C873 1.368 . S
C892 C886 1.368 . S
C892 C891 1.523 . S
C893 C877 1.429 . S
C893 C889 1.429 . S
C893 C894 1.523 1_556 S
C894 C878 1.368 . S
C894 C890 1.368 . S
C894 C893 1.523 1_554 S
H895 C870 0.950 . S
H896 C872 0.950 . S
H897 C873 0.949 . S
H898 C875 0.950 . S
H899 C877 0.950 . S
C900 C901 1.349 . S
C900 C902 1.327 . S
C900 H925 0.950 . S
C901 C900 1.349 . S
C901 C917 1.349 . S
C902 C900 1.327 . S
C902 C921 1.429 . S
C902 H926 0.950 . S
C903 C920 1.574 . S
C903 C922 1.368 . S
C903 H927 0.949 . S
H904 C908 0.949 . S
C905 C906 1.349 . S
C905 C907 1.327 . S
C905 H928 0.950 . S
C906 C905 1.349 . S
C906 C918 1.349 . S
C907 C905 1.327 . S
C907 C923 1.429 . S
C907 H929 0.950 . S
C908 H904 0.949 . S
C908 C916 1.574 . S
C908 C924 1.368 . S
H909 C917 0.950 . S
H910 C915 0.950 . S
H911 C916 0.949 . S
H912 C918 0.950 . S
H913 C919 0.950 . S
H914 C920 0.949 . S
C915 H910 0.950 . S
C915 C917 1.327 . S
C915 C921 1.429 . S
C916 C908 1.574 . S
C916 H911 0.949 . S
C916 C922 1.368 . S
C917 C901 1.349 . S
C917 H909 0.950 . S
C917 C915 1.327 . S
C918 C906 1.349 . S
C918 H912 0.950 . S
C918 C919 1.327 . S
C919 H913 0.950 . S
C919 C918 1.327 . S
C919 C923 1.429 . S
C920 C903 1.574 . S
C920 H914 0.949 . S
C920 C924 1.368 . S
C921 C902 1.429 . S
C921 C915 1.429 . S
C921 C922 1.523 . S
C922 C903 1.368 . S
C922 C916 1.368 . S
C922 C921 1.523 . S
C923 C907 1.429 . S
C923 C919 1.429 . S
C923 C924 1.523 . S
C924 C908 1.368 . S
C924 C920 1.368 . S
C924 C923 1.523 . S
H925 C900 0.950 . S
H926 C902 0.950 . S
H927 C903 0.949 . S
H928 C905 0.950 . S
H929 C907 0.950 . S
C216 C201 1.275 . S
C211 C19 1.414 . S
C241 C40 1.443 . S
C246 C131 1.307 . S
C271 C51 1.401 . S
C276 C151 1.499 . S
C301 C72 1.343 . S
C306 C165 1.430 . S
C336 C173 1.251 . S
C331 C103 1.389 . S
C361 C114 1.396 . S
C366 C187 1.274 . S
C391 C30 1.427 . S
C396 C145 1.306 . S
C421 C61 1.387 . S
C426 C159 1.249 . S
C451 C82 1.341 . S
C456 C179 1.414 . S
C486 C193 1.456 . S
C481 C93 1.360 1_554 S
C516 C207 1.452 . S
C511 C124 1.378 . S
C546 C137 1.480 . S
C541 C9 1.387 . S
C571 C17 1.396 . S
C576 C144 1.451 . S
C601 C38 1.409 . S
C606 C158 1.463 . S
C636 C180 1.477 . S
C631 C54 1.385 . S
C661 C75 1.394 . S
C666 C194 1.488 . S
C696 C208 1.450 . S
C691 C101 1.361 . S
C726 C138 1.433 . S
C721 C117 1.340 . S
C756 C200 1.440 . S
C751 C33 1.382 . S
C781 C59 1.393 . S
C786 C130 1.446 . S
C816 C152 1.472 . S
C811 C80 1.385 . S
C841 C96 1.387 . S
C846 C166 1.479 . S
C871 C122 1.444 . S
C876 C172 1.495 . S
C901 C12 1.422 . S
C906 C186 1.479 . S
