# Generated by pormake.
# Topology pth, (4,4)-cn, num edge types: 1
# Building blocks:
#     Node 0, Type 0, BuildingBlock: NAHDIM_clean_sbu_0, # of connection points: 4
#     Node 1, Type 0, BuildingBlock: NAHDIM_clean_sbu_0, # of connection points: 4
#     Node 2, Type 0, BuildingBlock: NAHDIM_clean_sbu_0, # of connection points: 4
#     Node 3, Type 1, BuildingBlock: MUDLON_clean_linker_0, # of connection points: 4
#     Node 4, Type 1, BuildingBlock: MUDLON_clean_linker_0, # of connection points: 4
#     Node 5, Type 1, BuildingBlock: MUDLON_clean_linker_0, # of connection points: 4
#     Edge 6, Type (0, 1), BuildingBlock: ZUJKAS_clean_linker_0, # of connection points: 2
#     Edge 7, Type (0, 1), BuildingBlock: ZUJKAS_clean_linker_0, # of connection points: 2
#     Edge 8, Type (0, 1), BuildingBlock: ZUJKAS_clean_linker_0, # of connection points: 2
#     Edge 9, Type (0, 1), BuildingBlock: ZUJKAS_clean_linker_0, # of connection points: 2
#     Edge 10, Type (0, 1), BuildingBlock: ZUJKAS_clean_linker_0, # of connection points: 2
#     Edge 11, Type (0, 1), BuildingBlock: ZUJKAS_clean_linker_0, # of connection points: 2
#     Edge 12, Type (0, 1), BuildingBlock: ZUJKAS_clean_linker_0, # of connection points: 2
#     Edge 13, Type (0, 1), BuildingBlock: ZUJKAS_clean_linker_0, # of connection points: 2
#     Edge 14, Type (0, 1), BuildingBlock: ZUJKAS_clean_linker_0, # of connection points: 2
#     Edge 15, Type (0, 1), BuildingBlock: ZUJKAS_clean_linker_0, # of connection points: 2
#     Edge 16, Type (0, 1), BuildingBlock: ZUJKAS_clean_linker_0, # of connection points: 2
#     Edge 17, Type (0, 1), BuildingBlock: ZUJKAS_clean_linker_0, # of connection points: 2
# Relax obj value: 0.055
# Max RMSD: 0.169
# Mean RMSD: 0.116
data_MOF--net-pth--node1-NAHDIM_clean_sbu_0--node2-MUDLON_clean_linker_0--edge1-ZUJKAS_clean_linker_0
_symmetry_space_group_name_H-M    P1
_symmetry_Int_Tables_number       1
_symmetry_cell_setting            triclinic
loop_
_symmetry_equiv_pos_as_xyz
'x, y, z'
_cell_length_a     41.066017
_cell_length_b     41.247594
_cell_length_c     81.481316
_cell_angle_alpha  91.671915
_cell_angle_beta   90.043708
_cell_angle_gamma 120.50915
loop_
_atom_site_label
_atom_site_type_symbol
_atom_site_fract_x
_atom_site_fract_y
_atom_site_fract_z
_atom_type_partial_charge
C0 C 0.01058 0.9454 0.04969 0.0
O1 O 0.9765 0.93935 0.04659 0.0
O2 O 0.01864 0.04284 0.04786 0.0
Zn3 Zn 0.02747 0.00971 0.03205 0.0
O4 O 0.98017 0.97776 0.01842 0.0
C5 C 0.10182 0.06807 0.02346 0.0
O6 O 0.10728 0.07045 0.03945 0.0
O7 O 0.03898 0.97528 0.04469 0.0
C8 C 0.9699 0.98964 0.00641 0.0
O9 O 0.99119 0.02475 0.00217 0.0
C10 C 0.0221 0.0735 0.04309 0.0
O11 O 0.03121 0.08298 0.02781 0.0
O12 O 0.07014 0.04282 0.0174 0.0
C13 C 0.06938 0.08888 0.33813 0.0
O14 O 0.07536 0.06438 0.33007 0.0
O15 O 0.03482 0.99377 0.34798 0.0
Zn16 Zn 0.04686 0.0359 0.3645 0.0
O17 O 0.00164 0.02289 0.37841 0.0
C18 C 0.09719 0.01839 0.38141 0.0
O19 O 0.07469 0.985 0.37456 0.0
O20 O 0.05854 0.08285 0.3529 0.0
C21 C 0.0058 0.03659 0.39294 0.0
O22 O 0.04012 0.05814 0.39906 0.0
C23 C 0.00591 0.96113 0.34911 0.0
O24 O 0.98238 0.95465 0.36117 0.0
O25 O 0.09103 0.04507 0.3788 0.0
C26 C 0.06821 0.98953 0.67999 0.0
O27 O 0.06591 0.01991 0.67838 0.0
O28 O 0.98194 0.98834 0.68777 0.0
Zn29 Zn 0.01499 0.9803 0.70336 0.0
O30 O 0.04926 0.02882 0.71593 0.0
C31 C 0.97038 0.9498 0.73164 0.0
O32 O 0.98414 0.98581 0.73504 0.0
O33 O 0.0475 0.96574 0.69044 0.0
C34 C 0.0776 0.03316 0.72413 0.0
O35 O 0.0844 0.0053 0.72446 0.0
C36 C 0.97169 0.01202 0.69131 0.0
O37 O 0.98348 0.03179 0.70521 0.0
O38 O 0.98074 0.93998 0.71866 0.0
H39 H 0.88106 0.60697 0.20738 0.0
N40 N 0.92913 0.58798 0.19508 0.0
H41 H 0.89222 0.65144 0.23024 0.0
H42 H 0.99145 0.62145 0.21549 0.0
H43 H 0.00293 0.66595 0.23841 0.0
H44 H 0.00298 0.63634 0.18722 0.0
H45 H 0.0248 0.68184 0.16537 0.0
H46 H 0.88754 0.59197 0.17119 0.0
H47 H 0.90917 0.63714 0.14914 0.0
H48 H 0.90187 0.53743 0.2186 0.0
H49 H 0.97 0.56594 0.17504 0.0
H50 H 0.90884 0.48279 0.22172 0.0
H51 H 0.97587 0.51101 0.17796 0.0
H52 H 0.9073 0.29451 0.2206 0.0
H53 H 0.93044 0.27404 0.2434 0.0
H54 H 0.03852 0.37718 0.24169 0.0
H55 H 0.01518 0.39717 0.2188 0.0
H56 H 0.0157 0.37429 0.1911 0.0
H57 H 0.02797 0.34541 0.16722 0.0
H58 H 0.90775 0.27549 0.15787 0.0
H59 H 0.89578 0.30532 0.18169 0.0
H60 H 0.88848 0.3648 0.20968 0.0
H61 H 0.88613 0.42268 0.20824 0.0
H62 H 0.00357 0.48298 0.19447 0.0
N63 N 0.94611 0.35519 0.20315 0.0
H64 H 0.00518 0.42476 0.19544 0.0
C65 C 0.93535 0.61108 0.20971 0.0
C66 C 0.90745 0.61937 0.21429 0.0
C67 C 0.91387 0.64464 0.22737 0.0
C68 C 0.94852 0.66228 0.23608 0.0
C69 C 0.97614 0.65314 0.23178 0.0
C70 C 0.96961 0.62769 0.21873 0.0
C71 C 0.94347 0.61075 0.18081 0.0
C72 C 0.98238 0.63599 0.17883 0.0
C73 C 0.99484 0.66181 0.16628 0.0
C74 C 0.96864 0.66321 0.15566 0.0
C75 C 0.92995 0.63696 0.15727 0.0
C76 C 0.91756 0.61099 0.16973 0.0
C77 C 0.9363 0.5572 0.19697 0.0
C78 C 0.91882 0.53245 0.20985 0.0
C79 C 0.92245 0.50087 0.21152 0.0
C80 C 0.94301 0.49255 0.20011 0.0
C81 C 0.96051 0.51705 0.18717 0.0
C82 C 0.95707 0.54883 0.18553 0.0
C83 C 0.95935 0.34715 0.21798 0.0
C84 C 0.9357 0.31297 0.2254 0.0
C85 C 0.94898 0.30145 0.23845 0.0
C86 C 0.9864 0.32398 0.24433 0.0
C87 C 0.00969 0.35904 0.23731 0.0
C88 C 0.99628 0.37059 0.22426 0.0
C89 C 0.95464 0.34186 0.18817 0.0
C90 C 0.99197 0.35332 0.18378 0.0
C91 C -0.00104 0.33651 0.17017 0.0
C92 C 0.96883 0.30794 0.16072 0.0
C93 C 0.9316 0.29767 0.16478 0.0
C94 C 0.92467 0.31452 0.17839 0.0
C95 C 0.94681 0.39037 0.20272 0.0
C96 C 0.91368 0.39061 0.20642 0.0
C97 C 0.91253 0.42376 0.20569 0.0
C98 C 0.94474 0.45756 0.2013 0.0
C99 C 0.97816 0.45736 0.19773 0.0
C100 C 0.9792 0.42406 0.1984 0.0
H101 H 0.75666 0.13069 0.54818 0.0
N102 N 0.69006 0.08344 0.53416 0.0
H103 H 0.78671 0.11938 0.57155 0.0
H104 H 0.65853 0.02023 0.5524 0.0
H105 H 0.6885 0.00846 0.57571 0.0
H106 H 0.66867 0.0111 0.5243 0.0
H107 H 0.69327 0.99241 0.50083 0.0
H108 H 0.73271 0.12688 0.51043 0.0
H109 H 0.75726 0.10843 0.48681 0.0
H110 H 0.66722 0.11269 0.55792 0.0
H111 H 0.62678 0.04157 0.51383 0.0
H112 H 0.60584 0.10729 0.56091 0.0
H113 H 0.56642 0.03814 0.51627 0.0
H114 H 0.4206 0.11261 0.56177 0.0
H115 H 0.37544 0.08784 0.58404 0.0
H116 H 0.36769 0.97981 0.57711 0.0
H117 H 0.41217 0.00464 0.55465 0.0
H118 H 0.38789 0.00956 0.52757 0.0
H119 H 0.34919 0.00376 0.50374 0.0
H120 H 0.41494 0.12435 0.49847 0.0
H121 H 0.45246 0.12988 0.52286 0.0
H122 H 0.51147 0.13058 0.55058 0.0
H123 H 0.57073 0.13054 0.54878 0.0
H124 H 0.50924 0.01467 0.53067 0.0
N125 N 0.44287 0.07541 0.54231 0.0
H126 H 0.45049 0.016 0.53161 0.0
C127 C 0.70566 0.07635 0.54854 0.0
C128 C 0.74158 0.10413 0.55427 0.0
C129 C 0.75855 0.09765 0.56762 0.0
C130 C 0.73992 0.06302 0.57543 0.0
C131 C 0.70362 0.03527 0.56982 0.0
C132 C 0.68651 0.04193 0.55652 0.0
C133 C 0.69933 0.0706 0.51919 0.0
C134 C 0.68774 0.03245 0.51612 0.0
C135 C 0.70176 0.02179 0.50269 0.0
C136 C 0.72735 0.04898 0.49205 0.0
C137 C 0.73728 0.08677 0.49468 0.0
C138 C 0.72344 0.09741 0.50817 0.0
C139 C 0.65214 0.07716 0.53588 0.0
C140 C 0.64514 0.09566 0.54894 0.0
C141 C 0.61006 0.09295 0.55052 0.0
C142 C 0.58112 0.07253 0.53875 0.0
C143 C 0.58779 0.05364 0.52572 0.0
C144 C 0.62279 0.05582 0.52429 0.0
C145 C 0.41984 0.0607 0.55656 0.0
C146 C 0.40959 0.08379 0.56528 0.0
C147 C 0.38393 0.06959 0.57804 0.0
C148 C 0.36794 0.03179 0.58237 0.0
C149 C 0.37921 0.00893 0.57397 0.0
C150 C 0.4049 0.02322 0.56116 0.0
C151 C 0.42275 0.07036 0.52711 0.0
C152 C 0.39419 0.0347 0.52123 0.0
C153 C 0.37221 0.03141 0.50748 0.0
C154 C 0.37863 0.06365 0.49927 0.0
C155 C 0.40863 0.09903 0.50471 0.0
C156 C 0.43032 0.10227 0.51853 0.0
C157 C 0.47672 0.07335 0.54144 0.0
C158 C 0.51095 0.10523 0.54627 0.0
C159 C 0.5447 0.10495 0.54535 0.0
C160 C 0.54486 0.07241 0.53976 0.0
C161 C 0.5103 0.04031 0.53492 0.0
C162 C 0.47654 0.04085 0.53563 0.0
H163 H 0.59511 0.75465 0.87746 0.0
N164 N 0.57125 0.6845 0.86717 0.0
H165 H 0.63747 0.78887 0.90074 0.0
H166 H 0.59163 0.65294 0.89135 0.0
H167 H 0.63334 0.68667 0.9149 0.0
H168 H 0.62828 0.66832 0.86526 0.0
H169 H 0.67613 0.68857 0.84423 0.0
H170 H 0.57273 0.71686 0.83922 0.0
H171 H 0.62122 0.73798 0.81814 0.0
H172 H 0.50249 0.66909 0.87518 0.0
H173 H 0.56576 0.61558 0.8612 0.0
H174 H 0.44529 0.60739 0.87687 0.0
H175 H 0.50873 0.55434 0.86184 0.0
H176 H 0.29647 0.43013 0.89787 0.0
H177 H 0.27953 0.3887 0.92117 0.0
H178 H 0.34457 0.34176 0.90087 0.0
H179 H 0.36029 0.38228 0.87752 0.0
H180 H 0.37569 0.41237 0.85068 0.0
H181 H 0.3504 0.36955 0.82658 0.0
H182 H 0.24078 0.35742 0.83465 0.0
H183 H 0.26651 0.40061 0.85859 0.0
H184 H 0.34226 0.49531 0.86205 0.0
H185 H 0.39991 0.55671 0.86052 0.0
H186 H 0.46471 0.50906 0.8791 0.0
N187 N 0.33537 0.43137 0.87165 0.0
H188 H 0.40758 0.44774 0.8796 0.0
C189 C 0.59028 0.70144 0.88263 0.0
C190 C 0.60267 0.73953 0.88584 0.0
C191 C 0.62678 0.75895 0.89919 0.0
C192 C 0.63902 0.74056 0.90964 0.0
C193 C 0.62486 0.70177 0.90694 0.0
C194 C 0.60074 0.68236 0.89355 0.0
C195 C 0.59681 0.69122 0.85383 0.0
C196 C 0.62598 0.68285 0.8549 0.0
C197 C 0.65355 0.69466 0.84289 0.0
C198 C 0.6527 0.71522 0.82961 0.0
C199 C 0.62249 0.7219 0.82814 0.0
C200 C 0.59485 0.70999 0.84017 0.0
C201 C 0.53837 0.6473 0.86788 0.0
C202 C 0.50392 0.64404 0.87231 0.0
C203 C 0.47122 0.60873 0.87312 0.0
C204 C 0.47217 0.57571 0.86934 0.0
C205 C 0.50689 0.57901 0.86503 0.0
C206 C 0.5397 0.61435 0.86447 0.0
C207 C 0.32946 0.40936 0.88595 0.0
C208 C 0.30738 0.41119 0.89861 0.0
C209 C 0.29794 0.38763 0.91194 0.0
C210 C 0.31057 0.36176 0.91285 0.0
C211 C 0.33389 0.36093 0.90042 0.0
C212 C 0.34313 0.38434 0.88708 0.0
C213 C 0.32281 0.40962 0.85642 0.0
C214 C 0.34639 0.40093 0.84712 0.0
C215 C 0.33184 0.37629 0.83339 0.0
C216 C 0.29356 0.36001 0.82872 0.0
C217 C 0.2705 0.36985 0.83776 0.0
C218 C 0.28504 0.39436 0.85146 0.0
C219 C 0.37027 0.46698 0.87112 0.0
C220 C 0.36901 0.49825 0.86575 0.0
C221 C 0.40198 0.53337 0.86502 0.0
C222 C 0.43709 0.53808 0.86984 0.0
C223 C 0.43834 0.50653 0.87511 0.0
C224 C 0.40538 0.47128 0.87559 0.0
H225 H 0.02763 0.14076 0.0367 0.0
H226 H 0.0189 0.18241 0.0558 0.0
H227 H 0.99556 0.10504 0.09462 0.0
H228 H 0.00379 0.0629 0.07556 0.0
H229 H 0.94415 0.13077 0.09247 0.0
H230 H 0.09301 0.24898 0.0928 0.0
H231 H 0.0713 0.23332 0.07277 0.0
H232 H 0.07918 0.20226 0.08497 0.0
C233 C 0.02068 0.13258 0.0493 0.0
C234 C 0.01655 0.09857 0.05463 0.0
C235 C 0.01591 0.15653 0.06021 0.0
C236 C 0.00714 0.14703 0.07665 0.0
C237 C 0.00251 0.11291 0.08197 0.0
H238 H 0.01938 0.28349 0.16103 0.0
H239 H 0.02849 0.24573 0.13991 0.0
C240 C 0.00726 0.08891 0.07107 0.0
C241 C 0.00226 0.17239 0.08829 0.0
H242 H 0.04884 0.25999 0.10682 0.0
C243 C 0.96698 0.15904 0.09561 0.0
C244 C 0.03226 0.2091 0.09244 0.0
C245 C 0.0712 0.22427 0.08547 0.0
C246 C 0.96083 0.18151 0.10698 0.0
C247 C 0.99064 0.21847 0.11091 0.0
C248 C 0.02596 0.23177 0.10363 0.0
C249 C 0.98624 0.24308 0.12317 0.0
C250 C 0.92281 0.16519 0.115 0.0
C251 C 0.96003 0.25478 0.12057 0.0
C252 C 0.95486 0.27654 0.1326 0.0
C253 C 0.97601 0.28717 0.14738 0.0
C254 C 0.00299 0.27623 0.14971 0.0
C255 C 0.0081 0.25448 0.13769 0.0
H256 H 0.90604 0.13402 0.11344 0.0
H257 H 0.92615 0.17284 0.12832 0.0
H258 H 0.90652 0.17682 0.1093 0.0
H259 H 0.94342 0.24687 0.10928 0.0
H260 H 0.93426 0.28498 0.13035 0.0
H261 H 0.93176 0.00051 0.38257 0.0
H262 H 0.87807 0.99695 0.39722 0.0
H263 H 0.95083 0.05623 0.43904 0.0
H264 H 0.00473 0.0605 0.42444 0.0
H265 H 0.84522 0.96675 0.42728 0.0
H266 H 0.90526 0.12123 0.42775 0.0
H267 H 0.92362 0.09775 0.41507 0.0
H268 H 0.9368 0.10799 0.43648 0.0
C269 C 0.93631 0.01261 0.39492 0.0
C270 C 0.97262 0.03121 0.40227 0.0
C271 C 0.90559 0.01051 0.40327 0.0
C272 C 0.91069 0.027 0.41906 0.0
C273 C 0.94652 0.04408 0.4267 0.0
H274 H 0.75821 0.00449 0.49501 0.0
H275 H 0.79756 0.99505 0.4753 0.0
C276 C 0.97725 0.04633 0.41836 0.0
C277 C 0.87889 0.02728 0.42745 0.0
H278 H 0.85302 0.08652 0.4452 0.0
C279 C 0.84668 0.99289 0.43109 0.0
C280 C 0.88053 0.06141 0.43205 0.0
C281 C 0.91323 0.0992 0.4275 0.0
C282 C 0.81671 0.99177 0.43986 0.0
C283 C 0.81946 0.02597 0.44535 0.0
C284 C 0.85101 0.0603 0.4411 0.0
C285 C 0.79126 0.02719 0.45629 0.0
C286 C 0.78245 0.95403 0.44314 0.0
C287 C 0.77464 0.04847 0.45221 0.0
C288 C 0.75241 0.05425 0.46355 0.0
C289 C 0.74639 0.03879 0.47917 0.0
C290 C 0.76179 0.01622 0.48297 0.0
C291 C 0.78422 0.0107 0.47168 0.0
H292 H 0.77894 0.93237 0.43374 0.0
H293 H 0.78605 0.9446 0.45527 0.0
H294 H 0.75627 0.95564 0.4433 0.0
H295 H 0.77982 0.06158 0.44042 0.0
H296 H 0.74068 0.07155 0.46026 0.0
H297 H 0.94511 0.96172 0.76082 0.0
H298 H 0.89163 0.91592 0.7765 0.0
H299 H 0.87329 0.82803 0.7412 0.0
H300 H 0.92728 0.87362 0.72552 0.0
H301 H 0.81813 0.87493 0.76469 0.0
H302 H 0.8685 0.78026 0.78518 0.0
H303 H 0.9 0.82638 0.77745 0.0
H304 H 0.87107 0.78762 0.76347 0.0
C305 C 0.93007 0.93256 0.75649 0.0
C306 C 0.9404 0.92132 0.74191 0.0
C307 C 0.89949 0.90645 0.76546 0.0
C308 C 0.87867 0.86858 0.76006 0.0
C309 C 0.88939 0.857 0.74572 0.0
H310 H 0.65034 0.71936 0.7961 0.0
H311 H 0.70405 0.75308 0.77788 0.0
C312 C 0.92015 0.88313 0.73675 0.0
C313 C 0.84434 0.842 0.76894 0.0
H314 H 0.80507 0.76206 0.791 0.0
C315 C 0.81518 0.85017 0.77041 0.0
C316 C 0.84076 0.80987 0.77642 0.0
C317 C 0.87183 0.80054 0.77571 0.0
C318 C 0.78269 0.82736 0.77935 0.0
C319 C 0.77894 0.79506 0.78674 0.0
C320 C 0.80791 0.78663 0.78514 0.0
C321 C 0.74647 0.77145 0.79724 0.0
C322 C 0.75331 0.83883 0.78131 0.0
C323 C 0.75267 0.76951 0.81401 0.0
C324 C 0.72219 0.75025 0.82439 0.0
C325 C 0.68486 0.73243 0.81819 0.0
C326 C 0.67875 0.73325 0.80126 0.0
C327 C 0.70935 0.75246 0.79085 0.0
H328 H 0.76431 0.86849 0.77793 0.0
H329 H 0.7286 0.82048 0.77318 0.0
H330 H 0.74338 0.83555 0.79416 0.0
H331 H 0.78112 0.78405 0.81917 0.0
H332 H 0.72787 0.75059 0.8374 0.0
H333 H 0.07587 0.95329 0.06292 0.0
H334 H 0.08213 0.90742 0.07917 0.0
H335 H 0.96237 0.82952 0.0735 0.0
H336 H 0.9558 0.87482 0.0574 0.0
H337 H 0.04247 0.87629 0.10903 0.0
H338 H 0.01112 0.76545 0.06129 0.0
H339 H 0.02619 0.8135 0.05642 0.0
H340 H 0.97766 0.78129 0.06127 0.0
C341 C 0.05097 0.92623 0.06501 0.0
C342 C 0.01532 0.91767 0.0589 0.0
C343 C 0.05462 0.90012 0.07427 0.0
C344 C 0.02281 0.86493 0.07728 0.0
C345 C 0.98737 0.85624 0.07102 0.0
H346 H 0.93806 0.70702 0.15034 0.0
H347 H 0.95889 0.75817 0.13125 0.0
C348 C 0.98364 0.88232 0.06194 0.0
C349 C 0.02549 0.83803 0.08799 0.0
H350 H 0.00132 0.74585 0.08935 0.0
C351 C 0.03433 0.84802 0.10468 0.0
C352 C 0.01525 0.80133 0.08224 0.0
C353 C 0.00737 0.7898 0.06429 0.0
C354 C 0.03046 0.82135 0.11599 0.0
C355 C 0.01723 0.78387 0.11043 0.0
C356 C 0.01111 0.77458 0.09358 0.0
C357 C 0.00564 0.75322 0.12206 0.0
C358 C 0.03915 0.83306 0.13391 0.0
C359 C 0.02468 0.7331 0.12294 0.0
C360 C 0.01276 0.70371 0.13385 0.0
C361 C 0.98124 0.6937 0.14379 0.0
C362 C 0.96211 0.71376 0.14269 0.0
C363 C 0.97421 0.74323 0.13193 0.0
H364 H 0.05837 0.86396 0.13559 0.0
H365 H 0.01244 0.82531 0.14031 0.0
H366 H 0.05229 0.81843 0.13982 0.0
H367 H 0.04881 0.74028 0.11527 0.0
H368 H 0.0279 0.68858 0.13442 0.0
H369 H 0.14325 0.08082 0.40069 0.0
H370 H 0.1938 0.08962 0.41954 0.0
H371 H 0.1726 0.97869 0.40593 0.0
H372 H 0.12204 0.96952 0.38706 0.0
H373 H 0.18318 0.03929 0.44641 0.0
H374 H 0.28956 0.05061 0.40116 0.0
H375 H 0.25176 0.05903 0.39593 0.0
H376 H 0.24212 0.01176 0.39795 0.0
C377 C 0.14953 0.0584 0.4016 0.0
C378 C 0.12865 0.02447 0.39237 0.0
C379 C 0.17837 0.06348 0.41238 0.0
C380 C 0.18709 0.03496 0.41395 0.0
C381 C 0.16659 0.00122 0.40467 0.0
H382 H 0.34569 0.00897 0.4747 0.0
H383 H 0.29908 0.00195 0.454 0.0
C384 C 0.13759 0.99599 0.39398 0.0
C385 C 0.21637 0.03971 0.42592 0.0
H386 H 0.30311 0.04788 0.42915 0.0
C387 C 0.20951 0.04136 0.44268 0.0
C388 C 0.25039 0.04199 0.42092 0.0
C389 C 0.25923 0.04104 0.40301 0.0
C390 C 0.23567 0.04477 0.45467 0.0
C391 C 0.27004 0.04762 0.4497 0.0
C392 C 0.2768 0.0458 0.43291 0.0
C393 C 0.29933 0.05267 0.46179 0.0
C394 C 0.2258 0.04434 0.47254 0.0
C395 C 0.3155 0.08394 0.47276 0.0
C396 C 0.34167 0.08777 0.48472 0.0
C397 C 0.35268 0.06066 0.4858 0.0
C398 C 0.33739 0.03002 0.47439 0.0
C399 C 0.31097 0.0261 0.46248 0.0
H400 H 0.19481 0.03123 0.47415 0.0
H401 H 0.23597 0.02878 0.47983 0.0
H402 H 0.23947 0.07371 0.47757 0.0
H403 H 0.3075 0.10519 0.47222 0.0
H404 H 0.35248 0.1115 0.49339 0.0
H405 H 0.13857 0.05077 0.74396 0.0
H406 H 0.1779 0.10944 0.75988 0.0
H407 H 0.11231 0.15538 0.74085 0.0
H408 H 0.07249 0.09673 0.7251 0.0
H409 H 0.22194 0.18414 0.7495 0.0
H410 H 0.10699 0.16729 0.79071 0.0
H411 H 0.1031 0.12918 0.77777 0.0
H412 H 0.09619 0.16495 0.7692 0.0
C413 C 0.13248 0.07334 0.74316 0.0
C414 C 0.10219 0.06896 0.73338 0.0
C415 C 0.15504 0.10686 0.75223 0.0
C416 C 0.14763 0.13648 0.75172 0.0
C417 C 0.11802 0.13255 0.74166 0.0
H418 H 0.24264 0.35195 0.80488 0.0
H419 H 0.2097 0.29975 0.78474 0.0
C420 C 0.09539 0.09906 0.73262 0.0
C421 C 0.17062 0.17133 0.76185 0.0
H422 H 0.16507 0.22481 0.79324 0.0
C423 C 0.20958 0.19308 0.75908 0.0
C424 C 0.15434 0.18283 0.77433 0.0
C425 C 0.11293 0.15973 0.77833 0.0
C426 C 0.23269 0.22634 0.76838 0.0
C427 C 0.2164 0.23773 0.78088 0.0
C428 C 0.17741 0.21609 0.78357 0.0
C429 C 0.23928 0.27122 0.7918 0.0
C430 C 0.2742 0.24925 0.7646 0.0
C431 C 0.26704 0.2726 0.80233 0.0
C432 C 0.28578 0.30228 0.81388 0.0
C433 C 0.27688 0.33098 0.8152 0.0
C434 C 0.24983 0.33005 0.80429 0.0
C435 C 0.23112 0.30037 0.79274 0.0
H436 H 0.28014 0.24257 0.75204 0.0
H437 H 0.28455 0.27988 0.76574 0.0
H438 H 0.29043 0.24277 0.77349 0.0
H439 H 0.27316 0.24996 0.80205 0.0
H440 H 0.30598 0.3018 0.82228 0.0
H441 H 0.93577 0.97019 0.66347 0.0
H442 H 0.8938 0.97839 0.64489 0.0
H443 H 0.90828 0.07268 0.67497 0.0
H444 H 0.95019 0.06473 0.69369 0.0
H445 H 0.82384 0.98068 0.65451 0.0
H446 H 0.93696 0.11054 0.62634 0.0
H447 H 0.94668 0.078 0.63656 0.0
H448 H 0.93694 0.10936 0.6484 0.0
C449 C 0.93009 0.99272 0.66614 0.0
C450 C 0.94642 0.01691 0.68002 0.0
C451 C 0.90604 0.99726 0.65554 0.0
C452 C 0.89826 0.02625 0.65855 0.0
C453 C 0.91429 0.05033 0.67241 0.0
H454 H 0.77869 0.10936 0.60176 0.0
H455 H 0.81446 0.09905 0.62295 0.0
C456 C 0.93814 0.04568 0.68309 0.0
C457 C 0.8734 0.03138 0.64715 0.0
H458 H 0.87417 0.08966 0.61814 0.0
C459 C 0.83471 0.00445 0.64654 0.0
C460 C 0.88784 0.06254 0.63689 0.0
C461 C 0.92941 0.09175 0.63691 0.0
C462 C 0.80982 0.0081 0.63597 0.0
C463 C 0.82434 0.03903 0.62549 0.0
C464 C 0.86309 0.06602 0.6262 0.0
C465 C 0.80015 0.04374 0.61343 0.0
C466 C 0.76819 0.97924 0.63637 0.0
C467 C 0.78012 0.01601 0.6011 0.0
C468 C 0.75951 0.02176 0.58905 0.0
C469 C 0.75907 0.0556 0.58899 0.0
C470 C 0.77878 0.08314 0.60145 0.0
C471 C 0.79911 0.07724 0.61357 0.0
H472 H 0.7604 0.96459 0.6482 0.0
H473 H 0.75071 0.99239 0.63449 0.0
H474 H 0.76119 0.95769 0.62639 0.0
H475 H 0.78132 0.99038 0.6005 0.0
H476 H 0.74509 0.00032 0.57944 0.0
H477 H 0.93735 0.0064 0.98123 0.0
H478 H 0.87818 0.96371 0.96642 0.0
H479 H 0.86294 0.87231 0.99612 0.0
H480 H 0.9216 0.9148 0.01117 0.0
H481 H 0.86052 0.8999 0.94817 0.0
H482 H 0.76069 0.86542 -0.00054 0.0
H483 H 0.8088 0.90433 0.0007 0.0
H484 H 0.79867 0.85712 0.00378 0.0
C485 C 0.92131 0.97727 0.98468 0.0
C486 C 0.93413 0.96403 -0.00259 0.0
C487 C 0.8875 0.95294 0.97621 0.0
C488 C 0.86587 0.91502 0.98036 0.0
C489 C 0.87872 0.90167 0.99298 0.0
H490 H 0.69984 0.73341 0.91732 0.0
H491 H 0.7534 0.77451 0.93545 0.0
C492 C 0.91243 0.92597 0.00149 0.0
C493 C 0.83079 0.88901 0.97096 0.0
H494 H 0.73618 0.82756 0.97485 0.0
C495 C 0.8333 0.88422 0.95398 0.0
C496 C 0.79525 0.86892 0.97856 0.0
C497 C 0.7905 0.87441 0.9966 0.0
C498 C 0.80136 0.85934 0.94443 0.0
C499 C 0.76611 0.83814 0.95213 0.0
C500 C 0.76338 0.84348 0.96904 0.0
C501 C 0.73172 0.81078 0.94268 0.0
C502 C 0.80556 0.85637 0.92613 0.0
C503 C 0.70093 0.81648 0.9414 0.0
C504 C 0.66993 0.79267 0.93123 0.0
C505 C 0.66917 0.76267 0.92219 0.0
C506 C 0.69929 0.756 0.92418 0.0
C507 C 0.73018 0.77975 0.93438 0.0
H508 H 0.8317 0.8811 0.92168 0.0
H509 H 0.80721 0.83082 0.92316 0.0
H510 H 0.78091 0.85391 0.91934 0.0
H511 H 0.70146 0.8401 0.94784 0.0
H512 H 0.64694 0.79822 0.93015 0.0
H513 H 0.94601 0.88895 0.34736 0.0
H514 H 0.93731 0.83756 0.32869 0.0
H515 H 0.04386 0.91173 0.30623 0.0
H516 H 0.05252 0.9635 0.32464 0.0
H517 H 0.98669 0.86931 0.28365 0.0
H518 H 0.99208 0.7786 0.33129 0.0
H519 H 0.95736 0.79205 0.33494 0.0
H520 H 0.00674 0.82742 0.33536 0.0
C521 C 0.96761 0.89435 0.33846 0.0
C522 C 4e-05 0.93027 0.33754 0.0
C523 C 0.96272 0.86488 0.32788 0.0
C524 C 0.99031 0.87068 0.31632 0.0
C525 C 0.02237 0.90663 0.31517 0.0
H526 H 0.01318 0.73043 0.24088 0.0
H527 H 0.0244 0.7808 0.26079 0.0
C528 C 0.02724 0.93617 0.32569 0.0
C529 C 0.98535 0.8395 0.30513 0.0
H530 H 0.97351 0.7513 0.30432 0.0
C531 C 0.98404 0.8436 0.28815 0.0
C532 C 0.98193 0.80602 0.31107 0.0
C533 C 0.98494 0.80078 0.32915 0.0
C534 C 0.97865 0.81478 0.27693 0.0
C535 C 0.97495 0.78123 0.28288 0.0
C536 C 0.97634 0.7771 0.29985 0.0
C537 C 0.96918 0.74994 0.27163 0.0
C538 C 0.97617 0.82008 0.25882 0.0
C539 C 0.93489 0.71557 0.27154 0.0
C540 C 0.92847 0.68667 0.26026 0.0
C541 C 0.9564 0.69161 0.24898 0.0
C542 C 0.99124 0.72567 0.2495 0.0
C543 C 0.99756 0.75458 0.26074 0.0
H544 H 0.97151 0.84385 0.25651 0.0
H545 H 0.00301 0.82619 0.25297 0.0
H546 H 0.95287 0.79407 0.2528 0.0
H547 H 0.91277 0.71145 0.27995 0.0
H548 H 0.90153 0.66058 0.26027 0.0
H549 H 0.11402 0.03442 0.6562 0.0
H550 H 0.16064 0.0273 0.64055 0.0
H551 H 0.13123 0.92569 0.66571 0.0
H552 H 0.08442 0.93277 0.68168 0.0
H553 H 0.20942 0.97632 0.66439 0.0
H554 H 0.14215 0.95164 0.60293 0.0
H555 H 0.1464 0.99259 0.61333 0.0
H556 H 0.11684 0.94689 0.62167 0.0
C557 C 0.11717 0.01037 0.65837 0.0
C558 C 0.0954 0.98408 0.67015 0.0
C559 C 0.14371 0.00623 0.64932 0.0
C560 C 0.1489 0.97563 0.65178 0.0
C561 C 0.12736 0.94932 0.66356 0.0
H562 H 0.30248 0.96327 0.58108 0.0
H563 H 0.24894 0.9409 0.59953 0.0
C564 C 0.10064 0.95339 0.67263 0.0
C565 C 0.17817 0.97255 0.64246 0.0
H566 H 0.20915 0.97484 0.60349 0.0
C567 C 0.20911 0.97525 0.65107 0.0
C568 C 0.17733 0.97036 0.62511 0.0
C569 C 0.14368 0.96479 0.61522 0.0
C570 C 0.24049 0.9785 0.64273 0.0
C571 C 0.24107 0.97974 0.6254 0.0
C572 C 0.20896 0.97436 0.6168 0.0
C573 C 0.27563 0.99006 0.61594 0.0
C574 C 0.27295 0.98127 0.6526 0.0
C575 C 0.30872 0.02479 0.6192 0.0
C576 C 0.33951 0.03747 0.60879 0.0
C577 C 0.33765 0.0159 0.59475 0.0
C578 C 0.30506 0.9804 0.59188 0.0
C579 C 0.27432 0.96765 0.60236 0.0
H580 H 0.26303 0.96644 0.66433 0.0
H581 H 0.28781 0.96923 0.64563 0.0
H582 H 0.29348 0.01133 0.6557 0.0
H583 H 0.31014 0.04299 0.62938 0.0
H584 H 0.36434 0.06475 0.61145 0.0
H585 H 0.17168 0.12736 0.03237 0.0
H586 H 0.21462 0.17985 0.01539 0.0
H587 H 0.13836 0.12817 0.97388 0.0
H588 H 0.09534 0.07566 0.99063 0.0
H589 H 0.24821 0.17902 0.9822 0.0
H590 H 0.15138 0.23627 0.98323 0.0
H591 H 0.14941 0.20381 -0.00184 0.0
H592 H 0.12978 0.1869 0.97789 0.0
C593 C 0.16427 0.12691 0.01957 0.0
C594 C 0.12994 0.09748 0.01288 0.0
C595 C 0.18884 0.15689 0.00992 0.0
C596 C 0.17931 0.15794 0.9935 0.0
C597 C 0.14592 0.12791 0.9866 0.0
H598 H 0.2885 0.28716 0.91016 0.0
H599 H 0.26211 0.24051 0.93138 0.0
C600 C 0.12145 0.09791 0.99619 0.0
C601 C 0.20314 0.19119 0.98369 0.0
H602 H 0.20226 0.26334 0.96471 0.0
C603 C 0.23844 0.19772 0.97847 0.0
C604 C 0.19042 0.21574 0.97911 0.0
C605 C 0.15331 0.21067 0.98497 0.0
C606 C 0.26077 0.22748 0.96815 0.0
C607 C 0.24716 0.25091 0.9629 0.0
C608 C 0.21255 0.24522 0.9687 0.0
C609 C 0.2671 0.28009 0.95064 0.0
C610 C 0.29858 0.23348 0.96287 0.0
C611 C 0.27847 0.31783 0.95441 0.0
C612 C 0.2937 0.34468 0.94229 0.0
C613 C 0.29751 0.33417 0.92614 0.0
C614 C 0.28671 0.29641 0.92252 0.0
C615 C 0.2716 0.26966 0.93465 0.0
H616 H 0.30955 0.22067 0.97146 0.0
H617 H 0.29541 0.21999 0.95053 0.0
H618 H 0.31971 0.26395 0.9621 0.0
H619 H 0.27499 0.32636 0.96667 0.0
H620 H 0.30211 0.37357 0.94552 0.0
H621 H 0.05907 0.14467 0.35134 0.0
H622 H 0.05235 0.19179 0.33659 0.0
H623 H 0.07509 0.15209 0.29097 0.0
H624 H 0.08177 0.10469 0.30556 0.0
H625 H 0.10203 0.25044 0.31346 0.0
H626 H 0.96592 0.13638 0.28624 0.0
H627 H 0.98826 0.12949 0.30381 0.0
H628 H 0.00603 0.13035 0.2836 0.0
C629 C 0.06318 0.14625 0.3382 0.0
C630 C 0.07048 0.12059 0.32959 0.0
C631 C 0.05944 0.17328 0.32982 0.0
C632 C 0.06278 0.17501 0.31271 0.0
C633 C 0.07206 0.15085 0.30418 0.0
H634 H 0.05493 0.32798 0.24459 0.0
H635 H 0.07606 0.29591 0.26277 0.0
C636 C 0.07592 0.12385 0.31254 0.0
C637 C 0.05349 0.19992 0.30368 0.0
H638 H 0.98755 0.19795 0.27755 0.0
C639 C 0.07706 0.2391 0.30558 0.0
C640 C 0.02055 0.18488 0.29366 0.0
C641 C 0.99347 0.14299 0.29174 0.0
C642 C 0.0688 0.26372 0.29744 0.0
C643 C 0.03626 0.24859 0.28714 0.0
C644 C 0.01251 0.20943 0.28545 0.0
C645 C 0.02623 0.27256 0.27776 0.0
C646 C 0.09453 0.30563 0.30006 0.0
C647 C 0.99138 0.27036 0.28028 0.0
C648 C 0.97923 0.28867 0.26993 0.0
C649 C 0.00161 0.30931 0.25679 0.0
C650 C 0.03726 0.31278 0.25474 0.0
C651 C 0.0494 0.29446 0.26511 0.0
H652 H 0.11284 0.31258 0.31119 0.0
H653 H 0.11308 0.31699 0.2893 0.0
H654 H 0.0779 0.31998 0.30125 0.0
H655 H 0.97307 0.25352 0.28997 0.0
H656 H 0.95185 0.28584 0.27195 0.0
loop_
_geom_bond_atom_site_label_1
_geom_bond_atom_site_label_2
_geom_bond_distance
_geom_bond_site_symmetry_2
_ccdc_geom_bond_type
C0 O1 1.160 . S
C0 O7 1.185 . S
O1 C0 1.160 . S
O2 Zn3 1.899 . S
O2 C10 1.284 . S
Zn3 O2 1.899 . S
Zn3 O4 2.032 1_445 S
Zn3 O7 2.086 1_545 S
Zn3 O12 1.977 . S
O4 Zn3 2.032 1_665 S
O4 C8 1.278 . S
C5 O6 1.203 . S
C5 O12 1.267 . S
O6 C5 1.203 . S
O7 C0 1.185 . S
O7 Zn3 2.086 1_565 S
C8 O4 1.278 . S
C8 O9 1.211 1_565 S
O9 C8 1.211 1_545 S
C10 O2 1.284 . S
C10 O11 1.273 1_455 S
O11 C10 1.273 1_655 S
O12 Zn3 1.977 . S
O12 C5 1.267 . S
C13 O14 1.160 . S
C13 O20 1.185 . S
O14 C13 1.160 . S
O15 Zn16 1.899 . S
O15 C23 1.284 1_545 S
Zn16 O15 1.899 . S
Zn16 O17 2.032 1_455 S
Zn16 O20 2.086 . S
Zn16 O25 1.977 . S
O17 Zn16 2.032 1_655 S
O17 C21 1.278 . S
C18 O19 1.203 . S
C18 O25 1.267 . S
O19 C18 1.203 . S
O20 C13 1.185 . S
O20 Zn16 2.086 . S
C21 O17 1.278 . S
C21 O22 1.211 . S
O22 C21 1.211 . S
C23 O15 1.284 1_565 S
C23 O24 1.273 1_455 S
O24 C23 1.273 1_655 S
O25 Zn16 1.977 . S
O25 C18 1.267 . S
C26 O27 1.160 1_565 S
C26 O33 1.185 . S
O27 C26 1.160 1_545 S
O28 Zn29 1.899 1_655 S
O28 C36 1.284 1_565 S
Zn29 O28 1.899 1_455 S
Zn29 O30 2.032 1_565 S
Zn29 O33 2.086 . S
Zn29 O38 1.977 1_455 S
O30 Zn29 2.032 1_545 S
O30 C34 1.278 . S
C31 O32 1.203 . S
C31 O38 1.267 . S
O32 C31 1.203 . S
O33 C26 1.185 . S
O33 Zn29 2.086 . S
C34 O30 1.278 . S
C34 O35 1.211 . S
O35 C34 1.211 . S
C36 O28 1.284 1_545 S
C36 O37 1.273 . S
O37 C36 1.273 . S
O38 Zn29 1.977 1_655 S
O38 C31 1.267 . S
H39 C66 0.929 . S
N40 C65 1.433 . S
N40 C71 1.435 . S
N40 C77 1.423 . S
H41 C67 0.930 . S
H42 C70 0.931 . S
H43 C69 0.929 . S
H44 C72 0.930 . S
H45 C73 0.932 . S
H46 C76 0.929 . S
H47 C75 0.931 . S
H48 C78 0.929 . S
H49 C82 0.932 . S
H50 C79 0.931 . S
H51 C81 0.929 1_455 S
H52 C84 0.929 . S
H53 C85 0.930 . S
H54 C87 0.929 . S
H55 C88 0.931 . S
H56 C90 0.930 . S
H57 C91 0.932 . S
H58 C93 0.931 . S
H59 C94 0.929 . S
H60 C96 0.929 . S
H61 C97 0.931 . S
H62 C99 0.929 1_455 S
N63 C83 1.433 . S
N63 C89 1.435 . S
N63 C95 1.423 . S
H64 C100 0.932 . S
C65 N40 1.433 . S
C65 C66 1.363 . S
C65 C70 1.370 1_655 S
C66 H39 0.929 . S
C66 C65 1.363 . S
C66 C67 1.385 . S
C67 H41 0.930 . S
C67 C66 1.385 . S
C67 C68 1.357 1_655 S
C68 C67 1.357 1_455 S
C68 C69 1.406 . S
C69 H43 0.929 . S
C69 C68 1.406 . S
C69 C70 1.391 . S
C70 H42 0.931 . S
C70 C65 1.370 1_455 S
C70 C69 1.391 . S
C71 N40 1.435 . S
C71 C72 1.358 1_655 S
C71 C76 1.371 . S
C72 H44 0.930 . S
C72 C71 1.358 1_455 S
C72 C73 1.405 . S
C73 H45 0.932 . S
C73 C72 1.405 . S
C73 C74 1.383 . S
C74 C73 1.383 . S
C74 C75 1.393 1_455 S
C75 H47 0.931 . S
C75 C74 1.393 1_655 S
C75 C76 1.382 . S
C76 H46 0.929 . S
C76 C71 1.371 . S
C76 C75 1.382 . S
C77 N40 1.423 . S
C77 C78 1.362 . S
C77 C82 1.388 1_655 S
C78 H48 0.929 . S
C78 C77 1.362 . S
C78 C79 1.376 . S
C79 H50 0.931 . S
C79 C78 1.376 . S
C79 C80 1.396 . S
C80 C79 1.396 . S
C80 C81 1.348 . S
C80 C98 1.472 . S
C81 H51 0.929 1_655 S
C81 C80 1.348 . S
C81 C82 1.443 1_655 S
C82 H49 0.932 . S
C82 C77 1.388 1_455 S
C82 C81 1.443 1_455 S
C83 N63 1.433 . S
C83 C84 1.363 . S
C83 C88 1.370 1_655 S
C84 H52 0.929 . S
C84 C83 1.363 . S
C84 C85 1.385 . S
C85 H53 0.930 . S
C85 C84 1.385 . S
C85 C86 1.357 1_655 S
C86 C85 1.357 1_455 S
C86 C87 1.406 . S
C87 H54 0.929 . S
C87 C86 1.406 . S
C87 C88 1.391 . S
C88 H55 0.931 . S
C88 C83 1.370 1_455 S
C88 C87 1.391 . S
C89 N63 1.435 . S
C89 C90 1.358 1_655 S
C89 C94 1.371 . S
C90 H56 0.930 . S
C90 C89 1.358 1_455 S
C90 C91 1.405 . S
C91 H57 0.932 . S
C91 C90 1.405 . S
C91 C92 1.383 . S
C92 C91 1.383 . S
C92 C93 1.393 1_455 S
C93 H58 0.931 . S
C93 C92 1.393 1_655 S
C93 C94 1.382 . S
C94 H59 0.929 . S
C94 C89 1.371 . S
C94 C93 1.382 . S
C95 N63 1.423 . S
C95 C96 1.362 . S
C95 C100 1.388 1_655 S
C96 H60 0.929 . S
C96 C95 1.362 . S
C96 C97 1.376 . S
C97 H61 0.931 . S
C97 C96 1.376 . S
C97 C98 1.396 . S
C98 C80 1.472 . S
C98 C97 1.396 . S
C98 C99 1.348 . S
C99 H62 0.929 1_655 S
C99 C98 1.348 . S
C99 C100 1.443 1_655 S
C100 H64 0.932 . S
C100 C95 1.388 1_455 S
C100 C99 1.443 1_455 S
H101 C128 0.929 . S
N102 C127 1.433 . S
N102 C133 1.435 . S
N102 C139 1.423 . S
H103 C129 0.930 . S
H104 C132 0.934 1_565 S
H105 C131 0.929 . S
H106 C134 0.930 . S
H107 C135 0.932 . S
H108 C138 0.929 . S
H109 C137 0.931 . S
H110 C140 0.929 . S
H111 C144 0.910 1_565 S
H112 C141 0.931 . S
H113 C143 0.929 . S
H114 C146 0.929 . S
H115 C147 0.930 . S
H116 C149 0.929 . S
H117 C150 0.911 1_565 S
H118 C152 0.930 . S
H119 C153 0.932 . S
H120 C155 0.931 . S
H121 C156 0.929 . S
H122 C158 0.929 . S
H123 C159 0.931 . S
H124 C161 0.929 . S
N125 C145 1.433 . S
N125 C151 1.435 . S
N125 C157 1.423 . S
H126 C162 0.925 1_565 S
C127 N102 1.433 . S
C127 C128 1.363 . S
C127 C132 1.376 . S
C128 H101 0.929 . S
C128 C127 1.363 . S
C128 C129 1.385 . S
C129 H103 0.930 . S
C129 C128 1.385 . S
C129 C130 1.357 . S
C130 C129 1.357 . S
C130 C131 1.406 1_545 S
C131 H105 0.929 . S
C131 C130 1.406 1_565 S
C131 C132 1.383 1_565 S
C132 H104 0.934 1_545 S
C132 C127 1.376 . S
C132 C131 1.383 1_545 S
C133 N102 1.435 . S
C133 C134 1.358 1_545 S
C133 C138 1.371 . S
C134 H106 0.930 . S
C134 C133 1.358 1_565 S
C134 C135 1.405 . S
C135 H107 0.932 . S
C135 C134 1.405 . S
C135 C136 1.383 1_565 S
C136 C135 1.383 1_545 S
C136 C137 1.393 . S
C137 H109 0.931 . S
C137 C136 1.393 . S
C137 C138 1.382 . S
C138 H108 0.929 . S
C138 C133 1.371 . S
C138 C137 1.382 . S
C139 N102 1.423 . S
C139 C140 1.362 . S
C139 C144 1.388 . S
C140 H110 0.929 . S
C140 C139 1.362 . S
C140 C141 1.376 . S
C141 H112 0.931 . S
C141 C140 1.376 . S
C141 C142 1.396 . S
C142 C141 1.396 . S
C142 C143 1.348 . S
C142 C160 1.472 . S
C143 H113 0.929 . S
C143 C142 1.348 . S
C143 C144 1.443 . S
C144 H111 0.910 1_545 S
C144 C139 1.388 . S
C144 C143 1.443 . S
C145 N125 1.433 . S
C145 C146 1.363 . S
C145 C150 1.390 . S
C146 H114 0.929 . S
C146 C145 1.363 . S
C146 C147 1.385 . S
C147 H115 0.930 . S
C147 C146 1.385 . S
C147 C148 1.357 . S
C148 C147 1.357 . S
C148 C149 1.406 1_545 S
C149 H116 0.929 . S
C149 C148 1.406 1_565 S
C149 C150 1.392 1_565 S
C150 H117 0.911 1_545 S
C150 C145 1.390 . S
C150 C149 1.392 1_545 S
C151 N125 1.435 . S
C151 C152 1.358 1_545 S
C151 C156 1.371 . S
C152 H118 0.930 . S
C152 C151 1.358 1_565 S
C152 C153 1.405 . S
C153 H119 0.932 . S
C153 C152 1.405 . S
C153 C154 1.383 1_565 S
C154 C153 1.383 1_545 S
C154 C155 1.393 . S
C155 H120 0.931 . S
C155 C154 1.393 . S
C155 C156 1.382 . S
C156 H121 0.929 . S
C156 C151 1.371 . S
C156 C155 1.382 . S
C157 N125 1.423 . S
C157 C158 1.362 . S
C157 C162 1.388 . S
C158 H122 0.929 . S
C158 C157 1.362 . S
C158 C159 1.376 . S
C159 H123 0.931 . S
C159 C158 1.376 . S
C159 C160 1.396 . S
C160 C142 1.472 . S
C160 C159 1.396 . S
C160 C161 1.348 . S
C161 H124 0.929 . S
C161 C160 1.348 . S
C161 C162 1.443 . S
C162 H126 0.925 1_545 S
C162 C157 1.388 . S
C162 C161 1.443 . S
H163 C190 0.929 . S
N164 C189 1.433 . S
N164 C195 1.435 . S
N164 C201 1.423 . S
H165 C191 0.930 . S
H166 C194 0.931 . S
H167 C193 0.929 . S
H168 C196 0.930 . S
H169 C197 0.932 . S
H170 C200 0.929 . S
H171 C199 0.931 . S
H172 C202 0.929 . S
H173 C206 0.932 . S
H174 C203 0.931 . S
H175 C205 0.929 . S
H176 C208 0.929 . S
H177 C209 0.930 . S
H178 C211 0.929 . S
H179 C212 0.931 . S
H180 C214 0.930 . S
H181 C215 0.932 . S
H182 C217 0.931 . S
H183 C218 0.929 . S
H184 C220 0.929 . S
H185 C221 0.931 . S
H186 C223 0.929 . S
N187 C207 1.433 . S
N187 C213 1.435 . S
N187 C219 1.423 . S
H188 C224 0.932 . S
C189 N164 1.433 . S
C189 C190 1.363 . S
C189 C194 1.370 . S
C190 H163 0.929 . S
C190 C189 1.363 . S
C190 C191 1.385 . S
C191 H165 0.930 . S
C191 C190 1.385 . S
C191 C192 1.357 . S
C192 C191 1.357 . S
C192 C193 1.406 . S
C193 H167 0.929 . S
C193 C192 1.406 . S
C193 C194 1.391 . S
C194 H166 0.931 . S
C194 C189 1.370 . S
C194 C193 1.391 . S
C195 N164 1.435 . S
C195 C196 1.358 . S
C195 C200 1.371 . S
C196 H168 0.930 . S
C196 C195 1.358 . S
C196 C197 1.405 . S
C197 H169 0.932 . S
C197 C196 1.405 . S
C197 C198 1.383 . S
C198 C197 1.383 . S
C198 C199 1.393 . S
C199 H171 0.931 . S
C199 C198 1.393 . S
C199 C200 1.382 . S
C200 H170 0.929 . S
C200 C195 1.371 . S
C200 C199 1.382 . S
C201 N164 1.423 . S
C201 C202 1.362 . S
C201 C206 1.388 . S
C202 H172 0.929 . S
C202 C201 1.362 . S
C202 C203 1.376 . S
C203 H174 0.931 . S
C203 C202 1.376 . S
C203 C204 1.396 . S
C204 C203 1.396 . S
C204 C205 1.348 . S
C204 C222 1.472 . S
C205 H175 0.929 . S
C205 C204 1.348 . S
C205 C206 1.443 . S
C206 H173 0.932 . S
C206 C201 1.388 . S
C206 C205 1.443 . S
C207 N187 1.433 . S
C207 C208 1.363 . S
C207 C212 1.370 . S
C208 H176 0.929 . S
C208 C207 1.363 . S
C208 C209 1.385 . S
C209 H177 0.930 . S
C209 C208 1.385 . S
C209 C210 1.357 . S
C210 C209 1.357 . S
C210 C211 1.406 . S
C211 H178 0.929 . S
C211 C210 1.406 . S
C211 C212 1.391 . S
C212 H179 0.931 . S
C212 C207 1.370 . S
C212 C211 1.391 . S
C213 N187 1.435 . S
C213 C214 1.358 . S
C213 C218 1.371 . S
C214 H180 0.930 . S
C214 C213 1.358 . S
C214 C215 1.405 . S
C215 H181 0.932 . S
C215 C214 1.405 . S
C215 C216 1.383 . S
C216 C215 1.383 . S
C216 C217 1.393 . S
C217 H182 0.931 . S
C217 C216 1.393 . S
C217 C218 1.382 . S
C218 H183 0.929 . S
C218 C213 1.371 . S
C218 C217 1.382 . S
C219 N187 1.423 . S
C219 C220 1.362 . S
C219 C224 1.388 . S
C220 H184 0.929 . S
C220 C219 1.362 . S
C220 C221 1.376 . S
C221 H185 0.931 . S
C221 C220 1.376 . S
C221 C222 1.396 . S
C222 C204 1.472 . S
C222 C221 1.396 . S
C222 C223 1.348 . S
C223 H186 0.929 . S
C223 C222 1.348 . S
C223 C224 1.443 . S
C224 H188 0.932 . S
C224 C219 1.388 . S
C224 C223 1.443 . S
H225 C233 0.928 1_655 S
H226 C235 0.930 . S
H227 C237 0.930 . S
H228 C240 0.929 . S
H229 C243 0.930 . S
H230 C245 0.960 . S
H231 C245 0.960 . S
H232 C245 0.960 . S
C233 H225 0.928 1_455 S
C233 C234 1.383 . S
C233 C235 1.379 1_455 S
C234 C233 1.383 . S
C234 C240 1.390 . S
C235 H226 0.930 . S
C235 C233 1.379 1_655 S
C235 C236 1.372 1_655 S
C236 C235 1.372 1_455 S
C236 C237 1.400 . S
C236 C241 1.490 . S
C237 H227 0.930 . S
C237 C236 1.400 . S
C237 C240 1.386 . S
H238 C254 0.932 . S
H239 C255 0.931 . S
C240 H228 0.929 . S
C240 C234 1.390 . S
C240 C237 1.386 . S
C241 C236 1.490 . S
C241 C243 1.395 1_455 S
C241 C244 1.403 . S
H242 C248 0.930 . S
C243 H229 0.930 . S
C243 C241 1.395 1_655 S
C243 C246 1.403 . S
C244 C241 1.403 . S
C244 C245 1.524 . S
C244 C248 1.400 . S
C245 H230 0.960 . S
C245 H231 0.960 . S
C245 H232 0.960 . S
C245 C244 1.524 . S
C246 C243 1.403 . S
C246 C247 1.392 . S
C246 C250 1.495 . S
C247 C246 1.392 . S
C247 C248 1.385 1_655 S
C247 C249 1.478 . S
C248 H242 0.930 . S
C248 C244 1.400 . S
C248 C247 1.385 1_455 S
C249 C247 1.478 . S
C249 C251 1.381 . S
C249 C255 1.383 . S
C250 C246 1.495 . S
C250 H256 0.959 . S
C250 H257 0.961 . S
C250 H258 0.960 . S
C251 C249 1.381 . S
C251 C252 1.389 . S
C251 H259 0.930 . S
C252 C251 1.389 . S
C252 C253 1.382 1_655 S
C252 H260 0.937 1_655 S
C253 C252 1.382 1_455 S
C253 C254 1.369 . S
C254 H238 0.932 . S
C254 C253 1.369 . S
C254 C255 1.386 1_455 S
C255 H239 0.931 . S
C255 C249 1.383 . S
C255 C254 1.386 1_655 S
H256 C250 0.959 . S
H257 C250 0.961 . S
H258 C250 0.960 . S
H259 C251 0.930 . S
H260 C252 0.937 1_455 S
H261 C269 0.929 1_565 S
H262 C271 0.930 1_565 S
H263 C273 0.930 . S
H264 C276 0.929 . S
H265 C279 0.930 . S
H266 C281 0.960 . S
H267 C281 0.960 . S
H268 C281 0.960 . S
C269 H261 0.929 1_545 S
C269 C270 1.377 . S
C269 C271 1.384 . S
C270 C269 1.377 . S
C270 C276 1.390 . S
C271 H262 0.930 1_545 S
C271 C269 1.384 . S
C271 C272 1.372 . S
C272 C271 1.372 . S
C272 C273 1.400 . S
C272 C277 1.490 . S
C273 H263 0.930 . S
C273 C272 1.400 . S
C273 C276 1.386 . S
H274 C290 0.930 . S
H275 C291 0.931 . S
C276 H264 0.929 . S
C276 C270 1.390 . S
C276 C273 1.386 . S
C277 C272 1.490 . S
C277 C279 1.395 1_545 S
C277 C280 1.403 . S
H278 C284 0.930 . S
C279 H265 0.930 . S
C279 C277 1.395 1_565 S
C279 C282 1.403 . S
C280 C277 1.403 . S
C280 C281 1.524 . S
C280 C284 1.400 . S
C281 H266 0.960 . S
C281 H267 0.960 . S
C281 H268 0.960 . S
C281 C280 1.524 . S
C282 C279 1.403 . S
C282 C283 1.392 1_565 S
C282 C286 1.495 . S
C283 C282 1.392 1_545 S
C283 C284 1.385 . S
C283 C285 1.478 . S
C284 H278 0.930 . S
C284 C280 1.400 . S
C284 C283 1.385 . S
C285 C283 1.478 . S
C285 C287 1.381 1_545 S
C285 C291 1.383 . S
C286 C282 1.495 . S
C286 H292 0.959 . S
C286 H293 0.961 . S
C286 H294 0.960 . S
C287 C285 1.381 1_565 S
C287 C288 1.391 1_565 S
C287 H295 0.930 . S
C288 C287 1.391 1_545 S
C288 C289 1.385 . S
C288 H296 0.931 1_545 S
C289 C288 1.385 . S
C289 C290 1.377 . S
C290 H274 0.930 . S
C290 C289 1.377 . S
C290 C291 1.379 . S
C291 H275 0.931 . S
C291 C285 1.383 . S
C291 C290 1.379 . S
H292 C286 0.959 . S
H293 C286 0.961 . S
H294 C286 0.960 . S
H295 C287 0.930 . S
H296 C288 0.931 1_565 S
H297 C305 0.929 . S
H298 C307 0.930 . S
H299 C309 0.930 . S
H300 C312 0.929 . S
H301 C315 0.930 . S
H302 C317 0.960 . S
H303 C317 0.960 . S
H304 C317 0.960 . S
C305 H297 0.929 . S
C305 C306 1.377 . S
C305 C307 1.384 . S
C306 C305 1.377 . S
C306 C312 1.390 . S
C307 H298 0.930 . S
C307 C305 1.384 . S
C307 C308 1.372 . S
C308 C307 1.372 . S
C308 C309 1.400 . S
C308 C313 1.490 . S
C309 H299 0.930 . S
C309 C308 1.400 . S
C309 C312 1.386 . S
H310 C326 0.930 . S
H311 C327 0.931 . S
C312 H300 0.929 . S
C312 C306 1.390 . S
C312 C309 1.386 . S
C313 C308 1.490 . S
C313 C315 1.395 . S
C313 C316 1.403 . S
H314 C320 0.930 . S
C315 H301 0.930 . S
C315 C313 1.395 . S
C315 C318 1.403 . S
C316 C313 1.403 . S
C316 C317 1.524 . S
C316 C320 1.400 . S
C317 H302 0.960 . S
C317 H303 0.960 . S
C317 H304 0.960 . S
C317 C316 1.524 . S
C318 C315 1.403 . S
C318 C319 1.392 . S
C318 C322 1.495 . S
C319 C318 1.392 . S
C319 C320 1.385 . S
C319 C321 1.478 . S
C320 H314 0.930 . S
C320 C316 1.400 . S
C320 C319 1.385 . S
C321 C319 1.478 . S
C321 C323 1.381 . S
C321 C327 1.383 . S
C322 C318 1.495 . S
C322 H328 0.959 . S
C322 H329 0.961 . S
C322 H330 0.960 . S
C323 C321 1.381 . S
C323 C324 1.394 . S
C323 H331 0.930 . S
C324 C323 1.394 . S
C324 C325 1.383 . S
C324 H332 0.929 . S
C325 C324 1.383 . S
C325 C326 1.377 . S
C326 H310 0.930 . S
C326 C325 1.377 . S
C326 C327 1.379 . S
C327 H311 0.931 . S
C327 C321 1.383 . S
C327 C326 1.379 . S
H328 C322 0.959 . S
H329 C322 0.961 . S
H330 C322 0.960 . S
H331 C323 0.930 . S
H332 C324 0.929 . S
H333 C341 0.929 . S
H334 C343 0.930 . S
H335 C345 0.930 . S
H336 C348 0.939 . S
H337 C351 0.930 . S
H338 C353 0.960 1_655 S
H339 C353 0.960 . S
H340 C353 0.960 1_655 S
C341 H333 0.929 . S
C341 C342 1.377 . S
C341 C343 1.384 . S
C342 C341 1.377 . S
C342 C348 1.384 1_455 S
C343 H334 0.930 . S
C343 C341 1.384 . S
C343 C344 1.372 . S
C344 C343 1.372 . S
C344 C345 1.400 1_455 S
C344 C349 1.490 . S
C345 H335 0.930 . S
C345 C344 1.400 1_655 S
C345 C348 1.382 . S
H346 C362 0.930 . S
H347 C363 0.931 . S
C348 H336 0.939 . S
C348 C342 1.384 1_655 S
C348 C345 1.382 . S
C349 C344 1.490 . S
C349 C351 1.395 . S
C349 C352 1.403 . S
H350 C356 0.926 . S
C351 H337 0.930 . S
C351 C349 1.395 . S
C351 C354 1.403 . S
C352 C349 1.403 . S
C352 C353 1.524 . S
C352 C356 1.400 . S
C353 H338 0.960 1_455 S
C353 H339 0.960 . S
C353 H340 0.960 1_455 S
C353 C352 1.524 . S
C354 C351 1.403 . S
C354 C355 1.392 . S
C354 C358 1.495 . S
C355 C354 1.392 . S
C355 C356 1.385 . S
C355 C357 1.478 . S
C356 H350 0.926 . S
C356 C352 1.400 . S
C356 C355 1.385 . S
C357 C355 1.478 . S
C357 C359 1.381 . S
C357 C363 1.383 1_455 S
C358 C354 1.495 . S
C358 H364 0.959 . S
C358 H365 0.961 . S
C358 H366 0.960 . S
C359 C357 1.381 . S
C359 C360 1.394 . S
C359 H367 0.930 . S
C360 C359 1.394 . S
C360 C361 1.383 . S
C360 H368 0.929 . S
C361 C360 1.383 . S
C361 C362 1.377 1_455 S
C362 H346 0.930 . S
C362 C361 1.377 1_655 S
C362 C363 1.379 . S
C363 H347 0.931 . S
C363 C357 1.383 1_655 S
C363 C362 1.379 . S
H364 C358 0.959 . S
H365 C358 0.961 . S
H366 C358 0.960 . S
H367 C359 0.930 . S
H368 C360 0.929 . S
H369 C377 0.929 . S
H370 C379 0.930 . S
H371 C381 0.930 1_565 S
H372 C384 0.929 1_565 S
H373 C387 0.930 . S
H374 C389 0.960 . S
H375 C389 0.960 . S
H376 C389 0.960 . S
C377 H369 0.929 . S
C377 C378 1.377 . S
C377 C379 1.384 . S
C378 C377 1.377 . S
C378 C384 1.390 . S
C379 H370 0.930 . S
C379 C377 1.384 . S
C379 C380 1.372 . S
C380 C379 1.372 . S
C380 C381 1.400 . S
C380 C385 1.490 . S
C381 H371 0.930 1_545 S
C381 C380 1.400 . S
C381 C384 1.386 . S
H382 C398 0.930 . S
H383 C399 0.931 . S
C384 H372 0.929 1_545 S
C384 C378 1.390 . S
C384 C381 1.386 . S
C385 C380 1.490 . S
C385 C387 1.395 . S
C385 C388 1.403 . S
H386 C392 0.930 . S
C387 H373 0.930 . S
C387 C385 1.395 . S
C387 C390 1.403 . S
C388 C385 1.403 . S
C388 C389 1.524 . S
C388 C392 1.400 . S
C389 H374 0.960 . S
C389 H375 0.960 . S
C389 H376 0.960 . S
C389 C388 1.524 . S
C390 C387 1.403 . S
C390 C391 1.392 . S
C390 C394 1.495 . S
C391 C390 1.392 . S
C391 C392 1.385 . S
C391 C393 1.478 . S
C392 H386 0.930 . S
C392 C388 1.400 . S
C392 C391 1.385 . S
C393 C391 1.478 . S
C393 C395 1.381 . S
C393 C399 1.383 1_545 S
C394 C390 1.495 . S
C394 H400 0.959 . S
C394 H401 0.961 . S
C394 H402 0.960 . S
C395 C393 1.381 . S
C395 C396 1.394 . S
C395 H403 0.930 . S
C396 C395 1.394 . S
C396 C397 1.383 . S
C396 H404 0.929 . S
C397 C396 1.383 . S
C397 C398 1.377 1_545 S
C398 H382 0.930 . S
C398 C397 1.377 1_565 S
C398 C399 1.379 . S
C399 H383 0.931 . S
C399 C393 1.383 1_565 S
C399 C398 1.379 . S
H400 C394 0.959 . S
H401 C394 0.961 . S
H402 C394 0.960 . S
H403 C395 0.930 . S
H404 C396 0.929 . S
H405 C413 0.929 . S
H406 C415 0.930 . S
H407 C417 0.930 . S
H408 C420 0.929 . S
H409 C423 0.930 . S
H410 C425 0.960 . S
H411 C425 0.960 . S
H412 C425 0.960 . S
C413 H405 0.929 . S
C413 C414 1.377 . S
C413 C415 1.384 . S
C414 C413 1.377 . S
C414 C420 1.390 . S
C415 H406 0.930 . S
C415 C413 1.384 . S
C415 C416 1.372 . S
C416 C415 1.372 . S
C416 C417 1.400 . S
C416 C421 1.490 . S
C417 H407 0.930 . S
C417 C416 1.400 . S
C417 C420 1.386 . S
H418 C434 0.930 . S
H419 C435 0.931 . S
C420 H408 0.929 . S
C420 C414 1.390 . S
C420 C417 1.386 . S
C421 C416 1.490 . S
C421 C423 1.395 . S
C421 C424 1.403 . S
H422 C428 0.930 . S
C423 H409 0.930 . S
C423 C421 1.395 . S
C423 C426 1.403 . S
C424 C421 1.403 . S
C424 C425 1.524 . S
C424 C428 1.400 . S
C425 H410 0.960 . S
C425 H411 0.960 . S
C425 H412 0.960 . S
C425 C424 1.524 . S
C426 C423 1.403 . S
C426 C427 1.392 . S
C426 C430 1.495 . S
C427 C426 1.392 . S
C427 C428 1.385 . S
C427 C429 1.478 . S
C428 H422 0.930 . S
C428 C424 1.400 . S
C428 C427 1.385 . S
C429 C427 1.478 . S
C429 C431 1.381 . S
C429 C435 1.383 . S
C430 C426 1.495 . S
C430 H436 0.959 . S
C430 H437 0.961 . S
C430 H438 0.960 . S
C431 C429 1.381 . S
C431 C432 1.394 . S
C431 H439 0.930 . S
C432 C431 1.394 . S
C432 C433 1.383 . S
C432 H440 0.929 . S
C433 C432 1.383 . S
C433 C434 1.377 . S
C434 H418 0.930 . S
C434 C433 1.377 . S
C434 C435 1.379 . S
C435 H419 0.931 . S
C435 C429 1.383 . S
C435 C434 1.379 . S
H436 C430 0.959 . S
H437 C430 0.961 . S
H438 C430 0.960 . S
H439 C431 0.930 . S
H440 C432 0.929 . S
H441 C449 0.929 . S
H442 C451 0.930 . S
H443 C453 0.930 . S
H444 C456 0.929 . S
H445 C459 0.930 . S
H446 C461 0.960 . S
H447 C461 0.960 . S
H448 C461 0.960 . S
C449 H441 0.929 . S
C449 C450 1.377 1_565 S
C449 C451 1.384 . S
C450 C449 1.377 1_545 S
C450 C456 1.390 . S
C451 H442 0.930 . S
C451 C449 1.384 . S
C451 C452 1.372 1_565 S
C452 C451 1.372 1_545 S
C452 C453 1.400 . S
C452 C457 1.490 . S
C453 H443 0.930 . S
C453 C452 1.400 . S
C453 C456 1.386 . S
H454 C470 0.930 . S
H455 C471 0.931 . S
C456 H444 0.929 . S
C456 C450 1.390 . S
C456 C453 1.386 . S
C457 C452 1.490 . S
C457 C459 1.395 1_545 S
C457 C460 1.403 . S
H458 C464 0.930 . S
C459 H445 0.930 . S
C459 C457 1.395 1_565 S
C459 C462 1.403 . S
C460 C457 1.403 . S
C460 C461 1.524 . S
C460 C464 1.400 . S
C461 H446 0.960 . S
C461 H447 0.960 . S
C461 H448 0.960 . S
C461 C460 1.524 . S
C462 C459 1.403 . S
C462 C463 1.392 1_565 S
C462 C466 1.495 . S
C463 C462 1.392 1_545 S
C463 C464 1.385 . S
C463 C465 1.478 . S
C464 H458 0.930 . S
C464 C460 1.400 . S
C464 C463 1.385 . S
C465 C463 1.478 . S
C465 C467 1.381 1_545 S
C465 C471 1.383 . S
C466 C462 1.495 . S
C466 H472 0.959 . S
C466 H473 0.961 . S
C466 H474 0.960 . S
C467 C465 1.381 1_565 S
C467 C468 1.394 . S
C467 H475 0.930 . S
C468 C467 1.394 . S
C468 C469 1.383 1_565 S
C468 H476 0.929 . S
C469 C468 1.383 1_545 S
C469 C470 1.377 . S
C470 H454 0.930 . S
C470 C469 1.377 . S
C470 C471 1.379 . S
C471 H455 0.931 . S
C471 C465 1.383 . S
C471 C470 1.379 . S
H472 C466 0.959 . S
H473 C466 0.961 . S
H474 C466 0.960 . S
H475 C467 0.930 . S
H476 C468 0.929 . S
H477 C485 0.930 . S
H478 C487 0.930 . S
H479 C489 0.930 . S
H480 C492 0.929 . S
H481 C495 0.930 . S
H482 C497 0.960 . S
H483 C497 0.960 . S
H484 C497 0.960 . S
C485 H477 0.930 . S
C485 C486 1.384 . S
C485 C487 1.376 1_554 S
C486 C485 1.384 . S
C486 C492 1.390 . S
C487 H478 0.930 . S
C487 C485 1.376 1_556 S
C487 C488 1.372 . S
C488 C487 1.372 . S
C488 C489 1.400 . S
C488 C493 1.490 . S
C489 H479 0.930 . S
C489 C488 1.400 . S
C489 C492 1.386 1_556 S
H490 C506 0.930 . S
H491 C507 0.931 . S
C492 H480 0.929 . S
C492 C486 1.390 . S
C492 C489 1.386 1_554 S
C493 C488 1.490 . S
C493 C495 1.395 . S
C493 C496 1.403 . S
H494 C500 0.930 . S
C495 H481 0.930 . S
C495 C493 1.395 . S
C495 C498 1.403 . S
C496 C493 1.403 . S
C496 C497 1.524 1_556 S
C496 C500 1.400 . S
C497 H482 0.960 . S
C497 H483 0.960 . S
C497 H484 0.960 . S
C497 C496 1.524 1_554 S
C498 C495 1.403 . S
C498 C499 1.392 . S
C498 C502 1.495 . S
C499 C498 1.392 . S
C499 C500 1.385 . S
C499 C501 1.478 . S
C500 H494 0.930 . S
C500 C496 1.400 . S
C500 C499 1.385 . S
C501 C499 1.478 . S
C501 C503 1.381 . S
C501 C507 1.383 . S
C502 C498 1.495 . S
C502 H508 0.959 . S
C502 H509 0.961 . S
C502 H510 0.960 . S
C503 C501 1.381 . S
C503 C504 1.394 . S
C503 H511 0.930 . S
C504 C503 1.394 . S
C504 C505 1.383 . S
C504 H512 0.929 . S
C505 C504 1.383 . S
C505 C506 1.377 . S
C506 H490 0.930 . S
C506 C505 1.377 . S
C506 C507 1.379 . S
C507 H491 0.931 . S
C507 C501 1.383 . S
C507 C506 1.379 . S
H508 C502 0.959 . S
H509 C502 0.961 . S
H510 C502 0.960 . S
H511 C503 0.930 . S
H512 C504 0.929 . S
H513 C521 0.929 . S
H514 C523 0.930 . S
H515 C525 0.930 . S
H516 C528 0.929 . S
H517 C531 0.930 . S
H518 C533 0.960 . S
H519 C533 0.960 1_655 S
H520 C533 0.960 . S
C521 H513 0.929 . S
C521 C522 1.377 1_655 S
C521 C523 1.384 . S
C522 C521 1.377 1_455 S
C522 C528 1.390 . S
C523 H514 0.930 . S
C523 C521 1.384 . S
C523 C524 1.372 1_655 S
C524 C523 1.372 1_455 S
C524 C525 1.400 . S
C524 C529 1.490 . S
C525 H515 0.930 . S
C525 C524 1.400 . S
C525 C528 1.386 . S
H526 C542 0.930 . S
H527 C543 0.931 . S
C528 H516 0.929 . S
C528 C522 1.390 . S
C528 C525 1.386 . S
C529 C524 1.490 . S
C529 C531 1.395 . S
C529 C532 1.403 . S
H530 C536 0.930 . S
C531 H517 0.930 . S
C531 C529 1.395 . S
C531 C534 1.403 . S
C532 C529 1.403 . S
C532 C533 1.524 . S
C532 C536 1.400 . S
C533 H518 0.960 . S
C533 H519 0.960 1_455 S
C533 H520 0.960 . S
C533 C532 1.524 . S
C534 C531 1.403 . S
C534 C535 1.392 . S
C534 C538 1.495 . S
C535 C534 1.392 . S
C535 C536 1.385 . S
C535 C537 1.478 . S
C536 H530 0.930 . S
C536 C532 1.400 . S
C536 C535 1.385 . S
C537 C535 1.478 . S
C537 C539 1.381 1_455 S
C537 C543 1.383 . S
C538 C534 1.495 . S
C538 H544 0.959 . S
C538 H545 0.961 . S
C538 H546 0.960 1_455 S
C539 C537 1.381 1_655 S
C539 C540 1.394 . S
C539 H547 0.930 . S
C540 C539 1.394 . S
C540 C541 1.383 1_655 S
C540 H548 0.929 . S
C541 C540 1.383 1_455 S
C541 C542 1.377 . S
C542 H526 0.930 . S
C542 C541 1.377 . S
C542 C543 1.379 . S
C543 H527 0.931 . S
C543 C537 1.383 . S
C543 C542 1.379 . S
H544 C538 0.959 . S
H545 C538 0.961 . S
H546 C538 0.960 1_655 S
H547 C539 0.930 . S
H548 C540 0.929 . S
H549 C557 0.929 . S
H550 C559 0.930 . S
H551 C561 0.930 . S
H552 C564 0.929 . S
H553 C567 0.930 . S
H554 C569 0.960 . S
H555 C569 0.960 . S
H556 C569 0.960 1_565 S
C557 H549 0.929 . S
C557 C558 1.377 1_545 S
C557 C559 1.384 . S
C558 C557 1.377 1_565 S
C558 C564 1.390 . S
C559 H550 0.930 . S
C559 C557 1.384 . S
C559 C560 1.372 1_545 S
C560 C559 1.372 1_565 S
C560 C561 1.400 . S
C560 C565 1.490 . S
C561 H551 0.930 . S
C561 C560 1.400 . S
C561 C564 1.386 . S
H562 C578 0.930 . S
H563 C579 0.931 . S
C564 H552 0.929 . S
C564 C558 1.390 . S
C564 C561 1.386 . S
C565 C560 1.490 . S
C565 C567 1.395 . S
C565 C568 1.403 1_565 S
H566 C572 0.930 . S
C567 H553 0.930 . S
C567 C565 1.395 . S
C567 C570 1.403 . S
C568 C565 1.403 1_545 S
C568 C569 1.524 . S
C568 C572 1.400 . S
C569 H554 0.960 . S
C569 H555 0.960 . S
C569 H556 0.960 1_545 S
C569 C568 1.524 . S
C570 C567 1.403 . S
C570 C571 1.392 1_565 S
C570 C574 1.495 . S
C571 C570 1.392 1_545 S
C571 C572 1.385 . S
C571 C573 1.478 . S
C572 H566 0.930 . S
C572 C568 1.400 . S
C572 C571 1.385 . S
C573 C571 1.478 . S
C573 C575 1.381 . S
C573 C579 1.383 1_545 S
C574 C570 1.495 . S
C574 H580 0.959 . S
C574 H581 0.961 . S
C574 H582 0.960 1_565 S
C575 C573 1.381 . S
C575 C576 1.394 . S
C575 H583 0.930 . S
C576 C575 1.394 . S
C576 C577 1.383 . S
C576 H584 0.929 . S
C577 C576 1.383 . S
C577 C578 1.377 1_545 S
C578 H562 0.930 . S
C578 C577 1.377 1_565 S
C578 C579 1.379 . S
C579 H563 0.931 . S
C579 C573 1.383 1_565 S
C579 C578 1.379 . S
H580 C574 0.959 . S
H581 C574 0.961 . S
H582 C574 0.960 1_545 S
H583 C575 0.930 . S
H584 C576 0.929 . S
H585 C593 0.929 . S
H586 C595 0.930 . S
H587 C597 0.930 . S
H588 C600 0.929 . S
H589 C603 0.930 . S
H590 C605 0.960 . S
H591 C605 0.960 . S
H592 C605 0.960 . S
C593 H585 0.929 . S
C593 C594 1.377 . S
C593 C595 1.384 . S
C594 C593 1.377 . S
C594 C600 1.390 1_554 S
C595 H586 0.930 . S
C595 C593 1.384 . S
C595 C596 1.372 1_554 S
C596 C595 1.372 1_556 S
C596 C597 1.400 . S
C596 C601 1.490 . S
C597 H587 0.930 . S
C597 C596 1.400 . S
C597 C600 1.386 . S
H598 C614 0.930 . S
H599 C615 0.931 . S
C600 H588 0.929 . S
C600 C594 1.390 1_556 S
C600 C597 1.386 . S
C601 C596 1.490 . S
C601 C603 1.395 . S
C601 C604 1.403 . S
H602 C608 0.930 . S
C603 H589 0.930 . S
C603 C601 1.395 . S
C603 C606 1.403 . S
C604 C601 1.403 . S
C604 C605 1.524 . S
C604 C608 1.400 . S
C605 H590 0.960 . S
C605 H591 0.960 . S
C605 H592 0.960 . S
C605 C604 1.524 . S
C606 C603 1.403 . S
C606 C607 1.392 . S
C606 C610 1.495 . S
C607 C606 1.392 . S
C607 C608 1.385 . S
C607 C609 1.478 . S
C608 H602 0.930 . S
C608 C604 1.400 . S
C608 C607 1.385 . S
C609 C607 1.478 . S
C609 C611 1.381 . S
C609 C615 1.383 . S
C610 C606 1.495 . S
C610 H616 0.959 . S
C610 H617 0.961 . S
C610 H618 0.960 . S
C611 C609 1.381 . S
C611 C612 1.394 . S
C611 H619 0.930 . S
C612 C611 1.394 . S
C612 C613 1.383 . S
C612 H620 0.929 . S
C613 C612 1.383 . S
C613 C614 1.377 . S
C614 H598 0.930 . S
C614 C613 1.377 . S
C614 C615 1.379 . S
C615 H599 0.931 . S
C615 C609 1.383 . S
C615 C614 1.379 . S
H616 C610 0.959 . S
H617 C610 0.961 . S
H618 C610 0.960 . S
H619 C611 0.930 . S
H620 C612 0.929 . S
H621 C629 0.929 . S
H622 C631 0.930 . S
H623 C633 0.930 . S
H624 C636 0.929 . S
H625 C639 0.930 . S
H626 C641 0.960 . S
H627 C641 0.960 . S
H628 C641 0.960 1_455 S
C629 H621 0.929 . S
C629 C630 1.377 . S
C629 C631 1.384 . S
C630 C629 1.377 . S
C630 C636 1.390 . S
C631 H622 0.930 . S
C631 C629 1.384 . S
C631 C632 1.372 . S
C632 C631 1.372 . S
C632 C633 1.400 . S
C632 C637 1.490 . S
C633 H623 0.930 . S
C633 C632 1.400 . S
C633 C636 1.386 . S
H634 C650 0.930 . S
H635 C651 0.931 . S
C636 H624 0.929 . S
C636 C630 1.390 . S
C636 C633 1.386 . S
C637 C632 1.490 . S
C637 C639 1.395 . S
C637 C640 1.403 . S
H638 C644 0.930 1_655 S
C639 H625 0.930 . S
C639 C637 1.395 . S
C639 C642 1.403 . S
C640 C637 1.403 . S
C640 C641 1.524 1_455 S
C640 C644 1.400 . S
C641 H626 0.960 . S
C641 H627 0.960 . S
C641 H628 0.960 1_655 S
C641 C640 1.524 1_655 S
C642 C639 1.403 . S
C642 C643 1.392 . S
C642 C646 1.495 . S
C643 C642 1.392 . S
C643 C644 1.385 . S
C643 C645 1.478 . S
C644 H638 0.930 1_455 S
C644 C640 1.400 . S
C644 C643 1.385 . S
C645 C643 1.478 . S
C645 C647 1.384 . S
C645 C651 1.383 . S
C646 C642 1.495 . S
C646 H652 0.959 . S
C646 H653 0.961 . S
C646 H654 0.960 . S
C647 C645 1.384 . S
C647 C648 1.392 1_455 S
C647 H655 0.929 1_455 S
C648 C647 1.392 1_655 S
C648 C649 1.383 1_655 S
C648 H656 0.929 . S
C649 C648 1.383 1_455 S
C649 C650 1.377 . S
C650 H634 0.930 . S
C650 C649 1.377 . S
C650 C651 1.379 . S
C651 H635 0.931 . S
C651 C645 1.383 . S
C651 C650 1.379 . S
H652 C646 0.959 . S
H653 C646 0.961 . S
H654 C646 0.960 . S
H655 C647 0.929 1_655 S
H656 C648 0.929 . S
C253 C92 1.214 . S
C234 C10 1.227 . S
C270 C21 1.271 . S
C289 C136 1.285 . S
C306 C31 1.241 . S
C325 C198 1.282 . S
C342 C0 1.227 . S
C361 C74 1.229 . S
C397 C154 1.260 . S
C378 C18 1.248 . S
C414 C34 1.239 . S
C433 C216 1.265 . S
C469 C130 1.495 . S
C450 C36 1.564 . S
C486 C8 1.616 . S
C505 C192 1.501 . S
C541 C68 1.468 . S
C522 C23 1.598 . S
C577 C148 1.504 . S
C558 C26 1.537 . S
C613 C210 1.577 . S
C594 C5 1.572 . S
C630 C13 1.590 . S
C649 C86 1.556 . S
