# Generated by pormake.
# Topology eea, (3,6)-cn, num edge types: 1
# Building blocks:
#     Node 0, Type 0, BuildingBlock: BETDIP_clean_linker_0, # of connection points: 3
#     Node 1, Type 0, BuildingBlock: BETDIP_clean_linker_0, # of connection points: 3
#     Node 2, Type 0, BuildingBlock: BETDIP_clean_linker_0, # of connection points: 3
#     Node 3, Type 0, BuildingBlock: BETDIP_clean_linker_0, # of connection points: 3
#     Node 4, Type 0, BuildingBlock: BETDIP_clean_linker_0, # of connection points: 3
#     Node 5, Type 0, BuildingBlock: BETDIP_clean_linker_0, # of connection points: 3
#     Node 6, Type 0, BuildingBlock: BETDIP_clean_linker_0, # of connection points: 3
#     Node 7, Type 0, BuildingBlock: BETDIP_clean_linker_0, # of connection points: 3
#     Node 8, Type 0, BuildingBlock: BETDIP_clean_linker_0, # of connection points: 3
#     Node 9, Type 0, BuildingBlock: BETDIP_clean_linker_0, # of connection points: 3
#     Node 10, Type 0, BuildingBlock: BETDIP_clean_linker_0, # of connection points: 3
#     Node 11, Type 0, BuildingBlock: BETDIP_clean_linker_0, # of connection points: 3
#     Node 12, Type 0, BuildingBlock: BETDIP_clean_linker_0, # of connection points: 3
#     Node 13, Type 0, BuildingBlock: BETDIP_clean_linker_0, # of connection points: 3
#     Node 14, Type 0, BuildingBlock: BETDIP_clean_linker_0, # of connection points: 3
#     Node 15, Type 0, BuildingBlock: BETDIP_clean_linker_0, # of connection points: 3
#     Node 16, Type 0, BuildingBlock: BETDIP_clean_linker_0, # of connection points: 3
#     Node 17, Type 0, BuildingBlock: BETDIP_clean_linker_0, # of connection points: 3
#     Node 18, Type 1, BuildingBlock: CUKXOW_clean_sbu_0, # of connection points: 6
#     Node 19, Type 1, BuildingBlock: CUKXOW_clean_sbu_0, # of connection points: 6
#     Node 20, Type 1, BuildingBlock: CUKXOW_clean_sbu_0, # of connection points: 6
#     Node 21, Type 1, BuildingBlock: CUKXOW_clean_sbu_0, # of connection points: 6
#     Node 22, Type 1, BuildingBlock: CUKXOW_clean_sbu_0, # of connection points: 6
#     Node 23, Type 1, BuildingBlock: CUKXOW_clean_sbu_0, # of connection points: 6
#     Node 24, Type 1, BuildingBlock: CUKXOW_clean_sbu_0, # of connection points: 6
#     Node 25, Type 1, BuildingBlock: CUKXOW_clean_sbu_0, # of connection points: 6
#     Node 26, Type 1, BuildingBlock: CUKXOW_clean_sbu_0, # of connection points: 6
#     Edge 27, Type (0, 1), BuildingBlock: UVAHIK_clean_linker_0, # of connection points: 2
#     Edge 28, Type (0, 1), BuildingBlock: UVAHIK_clean_linker_0, # of connection points: 2
#     Edge 29, Type (0, 1), BuildingBlock: UVAHIK_clean_linker_0, # of connection points: 2
#     Edge 30, Type (0, 1), BuildingBlock: UVAHIK_clean_linker_0, # of connection points: 2
#     Edge 31, Type (0, 1), BuildingBlock: UVAHIK_clean_linker_0, # of connection points: 2
#     Edge 32, Type (0, 1), BuildingBlock: UVAHIK_clean_linker_0, # of connection points: 2
#     Edge 33, Type (0, 1), BuildingBlock: UVAHIK_clean_linker_0, # of connection points: 2
#     Edge 34, Type (0, 1), BuildingBlock: UVAHIK_clean_linker_0, # of connection points: 2
#     Edge 35, Type (0, 1), BuildingBlock: UVAHIK_clean_linker_0, # of connection points: 2
#     Edge 36, Type (0, 1), BuildingBlock: UVAHIK_clean_linker_0, # of connection points: 2
#     Edge 37, Type (0, 1), BuildingBlock: UVAHIK_clean_linker_0, # of connection points: 2
#     Edge 38, Type (0, 1), BuildingBlock: UVAHIK_clean_linker_0, # of connection points: 2
#     Edge 39, Type (0, 1), BuildingBlock: UVAHIK_clean_linker_0, # of connection points: 2
#     Edge 40, Type (0, 1), BuildingBlock: UVAHIK_clean_linker_0, # of connection points: 2
#     Edge 41, Type (0, 1), BuildingBlock: UVAHIK_clean_linker_0, # of connection points: 2
#     Edge 42, Type (0, 1), BuildingBlock: UVAHIK_clean_linker_0, # of connection points: 2
#     Edge 43, Type (0, 1), BuildingBlock: UVAHIK_clean_linker_0, # of connection points: 2
#     Edge 44, Type (0, 1), BuildingBlock: UVAHIK_clean_linker_0, # of connection points: 2
#     Edge 45, Type (0, 1), BuildingBlock: UVAHIK_clean_linker_0, # of connection points: 2
#     Edge 46, Type (0, 1), BuildingBlock: UVAHIK_clean_linker_0, # of connection points: 2
#     Edge 47, Type (0, 1), BuildingBlock: UVAHIK_clean_linker_0, # of connection points: 2
#     Edge 48, Type (0, 1), BuildingBlock: UVAHIK_clean_linker_0, # of connection points: 2
#     Edge 49, Type (0, 1), BuildingBlock: UVAHIK_clean_linker_0, # of connection points: 2
#     Edge 50, Type (0, 1), BuildingBlock: UVAHIK_clean_linker_0, # of connection points: 2
#     Edge 51, Type (0, 1), BuildingBlock: UVAHIK_clean_linker_0, # of connection points: 2
#     Edge 52, Type (0, 1), BuildingBlock: UVAHIK_clean_linker_0, # of connection points: 2
#     Edge 53, Type (0, 1), BuildingBlock: UVAHIK_clean_linker_0, # of connection points: 2
#     Edge 54, Type (0, 1), BuildingBlock: UVAHIK_clean_linker_0, # of connection points: 2
#     Edge 55, Type (0, 1), BuildingBlock: UVAHIK_clean_linker_0, # of connection points: 2
#     Edge 56, Type (0, 1), BuildingBlock: UVAHIK_clean_linker_0, # of connection points: 2
#     Edge 57, Type (0, 1), BuildingBlock: UVAHIK_clean_linker_0, # of connection points: 2
#     Edge 58, Type (0, 1), BuildingBlock: UVAHIK_clean_linker_0, # of connection points: 2
#     Edge 59, Type (0, 1), BuildingBlock: UVAHIK_clean_linker_0, # of connection points: 2
#     Edge 60, Type (0, 1), BuildingBlock: UVAHIK_clean_linker_0, # of connection points: 2
#     Edge 61, Type (0, 1), BuildingBlock: UVAHIK_clean_linker_0, # of connection points: 2
#     Edge 62, Type (0, 1), BuildingBlock: UVAHIK_clean_linker_0, # of connection points: 2
#     Edge 63, Type (0, 1), BuildingBlock: UVAHIK_clean_linker_0, # of connection points: 2
#     Edge 64, Type (0, 1), BuildingBlock: UVAHIK_clean_linker_0, # of connection points: 2
#     Edge 65, Type (0, 1), BuildingBlock: UVAHIK_clean_linker_0, # of connection points: 2
#     Edge 66, Type (0, 1), BuildingBlock: UVAHIK_clean_linker_0, # of connection points: 2
#     Edge 67, Type (0, 1), BuildingBlock: UVAHIK_clean_linker_0, # of connection points: 2
#     Edge 68, Type (0, 1), BuildingBlock: UVAHIK_clean_linker_0, # of connection points: 2
#     Edge 69, Type (0, 1), BuildingBlock: UVAHIK_clean_linker_0, # of connection points: 2
#     Edge 70, Type (0, 1), BuildingBlock: UVAHIK_clean_linker_0, # of connection points: 2
#     Edge 71, Type (0, 1), BuildingBlock: UVAHIK_clean_linker_0, # of connection points: 2
#     Edge 72, Type (0, 1), BuildingBlock: UVAHIK_clean_linker_0, # of connection points: 2
#     Edge 73, Type (0, 1), BuildingBlock: UVAHIK_clean_linker_0, # of connection points: 2
#     Edge 74, Type (0, 1), BuildingBlock: UVAHIK_clean_linker_0, # of connection points: 2
#     Edge 75, Type (0, 1), BuildingBlock: UVAHIK_clean_linker_0, # of connection points: 2
#     Edge 76, Type (0, 1), BuildingBlock: UVAHIK_clean_linker_0, # of connection points: 2
#     Edge 77, Type (0, 1), BuildingBlock: UVAHIK_clean_linker_0, # of connection points: 2
#     Edge 78, Type (0, 1), BuildingBlock: UVAHIK_clean_linker_0, # of connection points: 2
#     Edge 79, Type (0, 1), BuildingBlock: UVAHIK_clean_linker_0, # of connection points: 2
#     Edge 80, Type (0, 1), BuildingBlock: UVAHIK_clean_linker_0, # of connection points: 2
# Relax obj value: 0.035
# Max RMSD: 0.159
# Mean RMSD: 0.097
data_MOF--net-eea--node1-CUKXOW_clean_sbu_0--node2-BETDIP_clean_linker_0--edge1-UVAHIK_clean_linker_0
_symmetry_space_group_name_H-M    P1
_symmetry_Int_Tables_number       1
_symmetry_cell_setting            triclinic
loop_
_symmetry_equiv_pos_as_xyz
'x, y, z'
_cell_length_a     76.760241
_cell_length_b     73.31845
_cell_length_c     66.328011
_cell_angle_alpha  93.126005
_cell_angle_beta   93.172972
_cell_angle_gamma 119.93745
loop_
_atom_site_label
_atom_site_type_symbol
_atom_site_fract_x
_atom_site_fract_y
_atom_site_fract_z
_atom_type_partial_charge
H0 H 0.22942 0.11331 0.37915 0.0
H1 H 0.2472 0.15124 0.43633 0.0
H2 H 0.2589 0.09995 0.42859 0.0
H3 H 0.21576 0.14898 0.42586 0.0
C4 C 0.21954 0.15401 0.41081 0.0
C5 C 0.23657 0.11699 0.39453 0.0
C6 C 0.24419 0.10462 0.40228 0.0
C7 C 0.2373 0.13356 0.40679 0.0
C8 C 0.24629 0.13824 0.42683 0.0
C9 C 0.25442 0.12639 0.43463 0.0
C10 C 0.25345 0.10971 0.42225 0.0
N11 N 0.22873 0.14519 0.39875 0.0
H12 H 0.89936 0.12012 0.39507 0.0
H13 H 0.8549 0.10746 0.43687 0.0
H14 H 0.91451 0.16155 0.4498 0.0
H15 H 0.8347 0.09578 0.40435 0.0
C16 C 0.8405 0.08546 0.39996 0.0
C17 C 0.8952 0.12458 0.40906 0.0
C18 C 0.90933 0.1428 0.42154 0.0
C19 C 0.87554 0.11205 0.41437 0.0
C20 C 0.87006 0.11732 0.4327 0.0
C21 C 0.88412 0.13497 0.44582 0.0
C22 C 0.90366 0.14774 0.43996 0.0
N23 N 0.8617 0.09365 0.40153 0.0
H24 H 0.88812 0.78038 0.40372 0.0
H25 H 0.90565 0.75246 0.45009 0.0
H26 H 0.84471 0.73978 0.44293 0.0
H27 H 0.93515 0.78445 0.45081 0.0
C28 C 0.93662 0.78548 0.43465 0.0
C29 C 0.88417 0.77035 0.41607 0.0
C30 C 0.86432 0.76023 0.42181 0.0
C31 C 0.89925 0.76816 0.42655 0.0
C32 C 0.89428 0.75486 0.44231 0.0
C33 C 0.87453 0.74431 0.44797 0.0
C34 C 0.85967 0.74711 0.43775 0.0
N35 N 0.91931 0.77946 0.42098 0.0
H36 H 0.09883 0.22506 0.61136 0.0
H37 H 0.13573 0.24715 0.56208 0.0
H38 H 0.08176 0.25098 0.56236 0.0
H39 H 0.13822 0.21792 0.56698 0.0
C40 C 0.14072 0.21934 0.58342 0.0
C41 C 0.10156 0.23205 0.59706 0.0
C42 C 0.08845 0.23831 0.58839 0.0
C43 C 0.11803 0.23429 0.58716 0.0
C44 C 0.12224 0.24412 0.56906 0.0
C45 C 0.1093 0.25034 0.56003 0.0
C46 C 0.09233 0.24716 0.56971 0.0
N47 N 0.13001 0.22627 0.59549 0.0
H48 H 0.77285 0.87749 0.641 0.0
H49 H 0.74706 0.89534 0.59205 0.0
H50 H 0.74913 0.83793 0.58451 0.0
H51 H 0.73716 0.90752 0.62263 0.0
C52 C 0.75286 0.91683 0.62885 0.0
C53 C 0.7654 0.87414 0.62579 0.0
C54 C 0.76147 0.85591 0.61371 0.0
C55 C 0.75995 0.88826 0.61819 0.0
C56 C 0.75082 0.88423 0.59824 0.0
C57 C 0.74683 0.86607 0.58607 0.0
C58 C 0.75207 0.85192 0.59393 0.0
N59 N 0.76475 0.90699 0.63036 0.0
H60 H 0.12724 0.89302 0.63075 0.0
H61 H 0.11235 0.85369 0.57466 0.0
H62 H 0.17141 0.908 0.58765 0.0
H63 H 0.08125 0.84533 0.57945 0.0
C64 C 0.08027 0.84549 0.59571 0.0
C65 C 0.13159 0.88944 0.61645 0.0
C66 C 0.15125 0.90247 0.61101 0.0
C67 C 0.11729 0.87201 0.60337 0.0
C68 C 0.12291 0.86737 0.58479 0.0
C69 C 0.14241 0.88027 0.57912 0.0
C70 C 0.15655 0.89762 0.59236 0.0
N71 N 0.09745 0.85956 0.60929 0.0
H72 H 0.90229 0.45119 0.70889 0.0
H73 H 0.92593 0.49263 0.76396 0.0
H74 H 0.92763 0.43476 0.75927 0.0
H75 H 0.89526 0.49285 0.75455 0.0
C76 C 0.89829 0.49654 0.73902 0.0
C77 C 0.9097 0.45491 0.72416 0.0
C78 C 0.91516 0.44111 0.73256 0.0
C79 C 0.91304 0.47314 0.73564 0.0
C80 C 0.92269 0.4781 0.75543 0.0
C81 C 0.92831 0.46449 0.76414 0.0
C82 C 0.92438 0.44599 0.75251 0.0
N83 N 0.9061 0.48602 0.7272 0.0
H84 H 0.5606 0.45953 0.71961 0.0
H85 H 0.51975 0.4416 0.76584 0.0
H86 H 0.57879 0.49686 0.77733 0.0
H87 H 0.49703 0.42912 0.73521 0.0
C88 C 0.50362 0.4202 0.72893 0.0
C89 C 0.55752 0.46249 0.73481 0.0
C90 C 0.5719 0.48041 0.74746 0.0
C91 C 0.53874 0.44855 0.74134 0.0
C92 C 0.53429 0.45239 0.76083 0.0
C93 C 0.54861 0.46988 0.77397 0.0
C94 C 0.5674 0.48372 0.76713 0.0
N95 N 0.52488 0.43025 0.7284 0.0
H96 H 0.55939 0.1272 0.7526 0.0
H97 H 0.57758 0.10306 0.80213 0.0
H98 H 0.51543 0.08592 0.79059 0.0
H99 H 0.60792 0.13248 0.79946 0.0
C100 C 0.6083 0.13251 0.78312 0.0
C101 C 0.55547 0.11749 0.7652 0.0
C102 C 0.53558 0.10712 0.77056 0.0
C103 C 0.57069 0.11618 0.77652 0.0
C104 C 0.56592 0.10412 0.79328 0.0
C105 C 0.54603 0.09344 0.79872 0.0
C106 C 0.53095 0.0947 0.78696 0.0
N107 N 0.59053 0.12687 0.77039 0.0
H108 H 0.77215 0.57203 0.94587 0.0
H109 H 0.81084 0.60239 0.89937 0.0
H110 H 0.75544 0.60287 0.90147 0.0
H111 H 0.81601 0.5747 0.90122 0.0
C112 C 0.81699 0.57319 0.91739 0.0
C113 C 0.7752 0.58096 0.93274 0.0
C114 C 0.76162 0.58715 0.92519 0.0
C115 C 0.79257 0.5857 0.92312 0.0
C116 C 0.79714 0.59798 0.90656 0.0
C117 C 0.78378 0.60423 0.89884 0.0
C118 C 0.76598 0.59854 0.90798 0.0
N119 N 0.80487 0.57747 0.93006 0.0
H120 H 0.44063 0.20546 0.97275 0.0
H121 H 0.41637 0.22251 0.92206 0.0
H122 H 0.42294 0.16757 0.91551 0.0
H123 H 0.40591 0.23579 0.95021 0.0
C124 C 0.4212 0.24472 0.95761 0.0
C125 C 0.43426 0.20221 0.95709 0.0
C126 C 0.43192 0.18456 0.94521 0.0
C127 C 0.42866 0.2159 0.94883 0.0
C128 C 0.42066 0.21189 0.92844 0.0
C129 C 0.41856 0.19452 0.91616 0.0
C130 C 0.42428 0.18094 0.92475 0.0
N131 N 0.43243 0.23436 0.96085 0.0
H132 H 0.79203 0.21925 0.96423 0.0
H133 H 0.7781 0.17661 0.91096 0.0
H134 H 0.83446 0.23548 0.91939 0.0
H135 H 0.74645 0.17109 0.91484 0.0
C136 C 0.74578 0.17014 0.9311 0.0
C137 C 0.79631 0.21539 0.95002 0.0
C138 C 0.81522 0.22925 0.94351 0.0
C139 C 0.78262 0.19674 0.93804 0.0
C140 C 0.78824 0.19151 0.91974 0.0
C141 C 0.80696 0.20534 0.91279 0.0
C142 C 0.82033 0.22419 0.92485 0.0
N143 N 0.76322 0.18364 0.9446 0.0
H144 H 0.56218 0.77477 0.04966 0.0
H145 H 0.59348 0.82121 0.10059 0.0
H146 H 0.59102 0.76122 0.09921 0.0
H147 H 0.59775 0.84338 0.0749 0.0
C148 C 0.58212 0.83524 0.06839 0.0
C149 C 0.57108 0.77958 0.06424 0.0
C150 C 0.57653 0.76596 0.07304 0.0
C151 C 0.57745 0.79964 0.0739 0.0
C152 C 0.58886 0.80587 0.09291 0.0
C153 C 0.59389 0.79214 0.10229 0.0
C154 C 0.58777 0.77227 0.09206 0.0
N155 N 0.57138 0.81286 0.06467 0.0
H156 H 0.22433 0.78579 0.05599 0.0
H157 H 0.18322 0.77104 0.10187 0.0
H158 H 0.2434 0.82451 0.11291 0.0
H159 H 0.16074 0.75906 0.07107 0.0
C160 C 0.16664 0.74934 0.0651 0.0
C161 C 0.2213 0.78938 0.071 0.0
C162 C 0.23607 0.80724 0.08343 0.0
C163 C 0.20222 0.77642 0.07752 0.0
C164 C 0.19795 0.78111 0.09682 0.0
C165 C 0.21269 0.79853 0.10973 0.0
C166 C 0.23172 0.81141 0.10288 0.0
N167 N 0.18782 0.75823 0.06478 0.0
H168 H 0.2093 0.43072 0.062 0.0
H169 H 0.22969 0.41083 0.11363 0.0
H170 H 0.17333 0.40946 0.1126 0.0
H171 H 0.24535 0.40263 0.09032 0.0
C172 C 0.25099 0.4161 0.08137 0.0
C173 C 0.2069 0.4247 0.07676 0.0
C174 C 0.18935 0.42049 0.08599 0.0
C175 C 0.22131 0.42077 0.08632 0.0
C176 C 0.21843 0.41322 0.10562 0.0
C177 C 0.20093 0.40871 0.11482 0.0
C178 C 0.18649 0.41234 0.10499 0.0
N179 N 0.23881 0.42511 0.07652 0.0
H180 H 0.43949 0.89889 0.27394 0.0
H181 H 0.48307 0.9394 0.2351 0.0
H182 H 0.4271 0.9388 0.23769 0.0
H183 H 0.4906 0.91334 0.23407 0.0
C184 C 0.48941 0.90868 0.24942 0.0
C185 C 0.44406 0.9108 0.26328 0.0
C186 C 0.43095 0.91793 0.25679 0.0
C187 C 0.46268 0.91808 0.25526 0.0
C188 C 0.46862 0.93339 0.24123 0.0
C189 C 0.45569 0.94068 0.23467 0.0
C190 C 0.43699 0.93297 0.24259 0.0
N191 N 0.47484 0.90937 0.26127 0.0
H192 H 0.11462 0.54804 0.30014 0.0
H193 H 0.08483 0.5625 0.25227 0.0
H194 H 0.08813 0.50555 0.24582 0.0
H195 H 0.07784 0.57729 0.28181 0.0
C196 C 0.09354 0.58638 0.28807 0.0
C197 C 0.1064 0.54389 0.28523 0.0
C198 C 0.1015 0.52487 0.27407 0.0
C199 C 0.10009 0.55727 0.27759 0.0
C200 C 0.08945 0.55197 0.25825 0.0
C201 C 0.08515 0.5334 0.24646 0.0
C202 C 0.09104 0.51981 0.25469 0.0
N203 N 0.10533 0.57642 0.28926 0.0
H204 H 0.46037 0.55948 0.29486 0.0
H205 H 0.44092 0.52052 0.23821 0.0
H206 H 0.50207 0.57184 0.24951 0.0
H207 H 0.41176 0.523 0.24486 0.0
C208 C 0.41092 0.51829 0.2602 0.0
C209 C 0.46379 0.55552 0.28018 0.0
C210 C 0.48322 0.56771 0.27387 0.0
C211 C 0.44842 0.53875 0.2673 0.0
C212 C 0.45265 0.53367 0.24815 0.0
C213 C 0.47208 0.54534 0.24183 0.0
C214 C 0.48732 0.56223 0.2548 0.0
N215 N 0.42875 0.52733 0.27379 0.0
Tb216 Tb 0.51339 0.01631 0.01187 0.0
C217 C 0.50256 0.97021 0.02157 0.0
Tb218 Tb 0.46874 0.98305 0.01551 0.0
O219 O 0.51465 0.03454 0.03988 0.0
O220 O 0.49501 0.0021 0.03544 0.0
O221 O 0.51632 0.98871 0.01589 0.0
C222 C 0.43296 0.95454 0.02643 0.0
O223 O 0.48351 0.96509 0.02357 0.0
C224 C 0.47904 0.99038 0.97854 0.0
C225 C 0.48032 0.02915 0.00682 0.0
O226 O 0.4427 0.95097 0.01282 0.0
O227 O 0.4434 0.97417 0.03394 0.0
O228 O 0.46098 0.98435 0.9835 0.0
O229 O 0.48963 0.99035 0.99362 0.0
O230 O 0.46811 0.0126 0.01638 0.0
O231 O 0.49757 0.03189 0.00076 0.0
C232 C 0.55 0.0391 -0.00054 0.0
O233 O 0.54634 0.03283 0.01749 0.0
O234 O 0.53307 0.03255 0.98847 0.0
C235 C 0.49988 0.0184 0.04699 0.0
Tb236 Tb 0.97722 0.49278 0.0056 0.0
C237 C 0.02201 0.52886 0.01315 0.0
Tb238 Tb 0.00956 0.48031 0.01147 0.0
O239 O 0.98448 0.50753 0.03672 0.0
O240 O 0.98811 0.48162 0.02913 0.0
O241 O 0.00392 0.52343 0.00435 0.0
C242 C 0.03974 0.47453 0.02461 0.0
O243 O 0.02662 0.51468 0.01932 0.0
C244 C 0.99622 0.47823 0.9738 0.0
C245 C 0.96426 0.44401 0.00519 0.0
O246 O 0.03942 0.48404 0.00881 0.0
O247 O 0.0231 0.46834 0.03311 0.0
O248 O 0.00307 0.46634 0.98012 0.0
O249 O -0.00107 0.49178 0.98799 0.0
O250 O 0.98301 0.44915 0.0115 0.0
O251 O 0.95911 0.45828 0.00083 0.0
C252 C 0.94759 0.49893 0.99118 0.0
O253 O 0.95989 0.49636 0.98038 0.0
O254 O 0.9519 0.49796 0.01013 0.0
C255 C 0.99107 0.49545 0.04312 0.0
Tb256 Tb 0.48666 0.50258 0.0098 0.0
C257 C 0.49756 0.46745 0.00129 0.0
Tb258 Tb 0.53098 0.51649 0.00436 0.0
O259 O 0.47746 0.48858 0.97832 0.0
O260 O 0.50628 0.5145 0.98669 0.0
O261 O 0.48472 0.47212 0.00947 0.0
C262 C 0.56588 0.52432 0.99092 0.0
O263 O 0.51545 0.48214 0.99622 0.0
C264 C 0.52251 0.51804 0.04178 0.0
C265 C 0.51961 0.55158 0.01227 0.0
O266 O 0.5583 0.51409 0.0065 0.0
O267 O 0.55378 0.53004 0.98287 0.0
O268 O 0.5402 0.53035 0.03589 0.0
O269 O 0.51139 0.50453 0.02742 0.0
O270 O 0.53289 0.54712 0.00479 0.0
O271 O 0.50171 0.53681 0.01712 0.0
C272 C 0.45197 0.49476 0.02379 0.0
O273 O 0.45822 0.50277 0.00687 0.0
O274 O 0.46526 0.49119 0.03282 0.0
C275 C 0.49512 0.50095 0.97236 0.0
Tb276 Tb 0.18065 0.35226 0.33809 0.0
C277 C 0.16664 0.3057 0.34643 0.0
Tb278 Tb 0.13559 0.32286 0.34381 0.0
O279 O 0.18913 0.35054 0.36963 0.0
O280 O 0.16126 0.34777 0.36101 0.0
O281 O 0.18056 0.32264 0.33856 0.0
C282 C 0.1003 0.29592 0.35702 0.0
O283 O 0.14906 0.30347 0.35101 0.0
C284 C 0.14464 0.3287 0.30642 0.0
C285 C 0.14961 0.36936 0.33586 0.0
O286 O 0.10492 0.29574 0.33854 0.0
O287 O 0.11551 0.31141 0.36812 0.0
O288 O 0.12738 0.32498 0.31225 0.0
O289 O 0.15503 0.32734 0.32094 0.0
O290 O 0.136 0.35267 0.34431 0.0
O291 O 0.16674 0.37113 0.33024 0.0
C292 C 0.21591 0.3785 0.32449 0.0
O293 O 0.20922 0.38229 0.34081 0.0
O294 O 0.20276 0.35991 0.31581 0.0
C295 C 0.17182 0.3466 0.3755 0.0
Tb296 Tb 0.64918 0.82871 0.3407 0.0
C297 C 0.69369 0.86502 0.35122 0.0
Tb298 Tb 0.68166 0.81667 0.34863 0.0
O299 O 0.65393 0.84266 0.3718 0.0
O300 O 0.65935 0.81777 0.3652 0.0
O301 O 0.67599 0.85969 0.34145 0.0
C302 C 0.71156 0.81061 0.36237 0.0
O303 O 0.698 0.85075 0.35776 0.0
C304 C 0.67009 0.81495 0.31036 0.0
C305 C 0.63666 0.78018 0.33995 0.0
O306 O 0.71285 0.8233 0.34891 0.0
O307 O 0.69351 0.80147 0.36822 0.0
O308 O 0.67705 0.80337 0.31718 0.0
O309 O 0.67186 0.82812 0.32446 0.0
O310 O 0.65501 0.78546 0.34788 0.0
O311 O 0.63175 0.79433 0.33452 0.0
C312 C 0.62018 0.83498 0.32447 0.0
O313 O 0.63493 0.8358 0.31519 0.0
O314 O 0.62169 0.83055 0.34293 0.0
C315 C 0.66105 0.8313 0.37896 0.0
Tb316 Tb 0.1607 0.84404 0.3466 0.0
C317 C 0.17047 0.80772 0.34141 0.0
Tb318 Tb 0.20449 0.85636 0.34089 0.0
O319 O 0.15077 0.82823 0.3159 0.0
O320 O 0.17988 0.85436 0.32298 0.0
O321 O 0.15798 0.8134 0.34882 0.0
C322 C 0.23842 0.86121 0.32722 0.0
O323 O 0.18848 0.82164 0.33589 0.0
C324 C 0.1964 0.85965 0.37816 0.0
C325 C 0.19435 0.89263 0.34505 0.0
O326 O 0.23387 0.85841 0.34577 0.0
O327 O 0.22388 0.8613 0.31636 0.0
O328 O 0.21393 0.87184 0.37188 0.0
O329 O 0.18516 0.84559 0.36425 0.0
O330 O 0.20746 0.88725 0.33883 0.0
O331 O 0.17621 0.87864 0.35016 0.0
C332 C 0.1273 0.8393 0.36149 0.0
O333 O 0.13051 0.84014 0.34247 0.0
O334 O 0.14286 0.8411 0.37211 0.0
C335 C 0.16828 0.84003 0.30935 0.0
Tb336 Tb 0.84618 0.68619 0.67029 0.0
C337 C 0.83341 0.63828 0.67456 0.0
Tb338 Tb 0.80138 0.65301 0.67073 0.0
O339 O 0.84758 0.69874 0.70144 0.0
O340 O 0.82729 0.66717 0.69168 0.0
O341 O 0.84711 0.65669 0.66867 0.0
C342 C 0.76371 0.62843 0.68023 0.0
O343 O 0.81551 0.63477 0.67948 0.0
C344 C 0.81519 0.65861 0.63487 0.0
C345 C 0.81439 0.7013 0.66721 0.0
O346 O 0.77207 0.62389 0.66583 0.0
O347 O 0.77651 0.64699 0.68923 0.0
O348 O 0.79976 0.64115 0.63906 0.0
O349 O 0.82016 0.67223 0.64959 0.0
O350 O 0.80039 0.68256 0.67233 0.0
O351 O 0.83258 0.70518 0.66286 0.0
C352 C 0.88376 0.70938 0.66 0.0
O353 O 0.87744 0.71204 0.67704 0.0
O354 O 0.86897 0.6936 0.6488 0.0
C355 C 0.8323 0.68131 0.70598 0.0
Tb356 Tb 0.31838 0.16328 0.67351 0.0
C357 C 0.36352 0.19873 0.6772 0.0
Tb358 Tb 0.35 0.14976 0.67707 0.0
O359 O 0.32794 0.17896 0.7043 0.0
O360 O 0.33011 0.15217 0.69629 0.0
O361 O 0.34485 0.19349 0.67048 0.0
C362 C 0.38004 0.14337 0.68907 0.0
O363 O 0.36847 0.18445 0.68224 0.0
C364 C 0.33398 0.14669 0.64043 0.0
C365 C 0.30458 0.11433 0.67414 0.0
O366 O 0.36692 0.14345 0.70053 0.0
O367 O 0.37631 0.14695 0.67086 0.0
O368 O 0.34026 0.13415 0.64621 0.0
O369 O 0.3384 0.16103 0.65441 0.0
O370 O 0.32342 0.11921 0.6796 0.0
O371 O 0.29964 0.12875 0.66975 0.0
C372 C 0.28822 0.16915 0.66067 0.0
O373 O 0.29341 0.16855 0.67946 0.0
O374 O 0.30001 0.16648 0.64912 0.0
C375 C 0.33438 0.16657 0.71018 0.0
Tb376 Tb 0.82129 0.17705 0.67789 0.0
C377 C 0.82961 0.14007 0.67007 0.0
Tb378 Tb 0.86459 0.18816 0.67174 0.0
O379 O 0.81109 0.16353 0.64637 0.0
O380 O 0.84066 0.18816 0.65455 0.0
O381 O 0.81821 0.14612 0.6794 0.0
C382 C 0.89833 0.19317 0.65759 0.0
O383 O 0.84713 0.15383 0.66353 0.0
C384 C 0.85684 0.18959 0.70947 0.0
C385 C 0.85586 0.22554 0.67794 0.0
O386 O 0.89072 0.18366 0.67349 0.0
O387 O 0.8869 0.19975 0.64959 0.0
O388 O 0.8746 0.20121 0.70338 0.0
O389 O 0.84511 0.17665 0.695 0.0
O390 O 0.86908 0.21993 0.67261 0.0
O391 O 0.83704 0.21163 0.68132 0.0
C392 C 0.789 0.17345 0.69442 0.0
O393 O 0.80656 0.18012 0.70404 0.0
O394 O 0.78955 0.16879 0.6754 0.0
C395 C 0.82885 0.17507 0.64023 0.0
C396 C 0.26497 0.84377 0.0808 0.0
C397 C 0.25597 0.8218 0.07618 0.0
C398 C 0.28384 0.85758 0.07452 0.0
C399 C 0.32975 0.85944 0.05748 0.0
H400 H 0.341 0.91402 0.04122 0.0
C401 C 0.4037 0.91769 0.02406 0.0
C402 C 0.4129 0.93892 0.03199 0.0
C403 C 0.38447 0.90294 0.02898 0.0
C404 C 0.33811 0.89889 0.04587 0.0
H405 H 0.25975 0.79718 0.06108 0.0
H406 H 0.29245 0.82137 0.04951 0.0
H407 H 0.30728 0.88891 0.04983 0.0
H408 H 0.40944 0.96146 0.05133 0.0
H409 H 0.37572 0.93571 0.05983 0.0
H410 H 0.36063 0.86947 0.05323 0.0
C411 C 0.28505 0.82788 0.05837 0.0
C412 C 0.31881 0.8845 0.05084 0.0
C413 C 0.26618 0.81401 0.06479 0.0
C414 C 0.40263 0.94517 0.04499 0.0
C415 C 0.38332 0.93048 0.04976 0.0
C416 C 0.34903 0.87379 0.05232 0.0
C417 C 0.29415 0.84984 0.06325 0.0
C418 C 0.31443 0.86468 0.05693 0.0
C419 C 0.37403 0.90923 0.04176 0.0
C420 C 0.35345 0.89374 0.04666 0.0
H421 H 0.2574 0.85037 0.08927 0.0
H422 H 0.29046 0.87435 0.0788 0.0
H423 H 0.32702 0.84446 0.06237 0.0
H424 H 0.41133 0.91249 0.01398 0.0
H425 H 0.3776 0.8867 0.0225 0.0
C426 C 0.1535 0.41178 0.07826 0.0
C427 C 0.1742 0.42514 0.07638 0.0
C428 C 0.13942 0.41737 0.0716 0.0
C429 C 0.12883 0.44854 0.03772 0.0
H430 H 0.09543 0.4504 0.07866 0.0
C431 C 0.07444 0.48029 0.02265 0.0
C432 C 0.05588 0.47023 0.03104 0.0
C433 C 0.08949 0.47557 0.02812 0.0
C434 C 0.10436 0.44966 0.06691 0.0
H435 H 0.1961 0.45438 0.06499 0.0
H436 H 0.17121 0.46375 0.05267 0.0
H437 H 0.12006 0.43964 0.08703 0.0
H438 H 0.03833 0.44738 0.05163 0.0
H439 H 0.06418 0.43846 0.06063 0.0
H440 H 0.11273 0.45779 0.01732 0.0
C441 C 0.16609 0.44908 0.05958 0.0
C442 C 0.11855 0.4436 0.07178 0.0
C443 C 0.18029 0.44364 0.06655 0.0
C444 C 0.0526 0.45547 0.04506 0.0
C445 C 0.06751 0.45048 0.0503 0.0
C446 C 0.11438 0.45425 0.03271 0.0
C447 C 0.14563 0.43625 0.06255 0.0
C448 C 0.13085 0.44293 0.05722 0.0
C449 C 0.08616 0.46044 0.04188 0.0
C450 C 0.1019 0.45483 0.04724 0.0
H451 H 0.14819 0.39713 0.08525 0.0
H452 H 0.12364 0.40706 0.07373 0.0
H453 H 0.13812 0.44802 0.02623 0.0
H454 H 0.07734 0.49183 0.01185 0.0
H455 H 0.10377 0.48388 0.02162 0.0
C456 C 0.54994 0.73091 0.05564 0.0
C457 C 0.57024 0.74488 0.06276 0.0
C458 C 0.54381 0.71036 0.04758 0.0
C459 C 0.56192 0.67655 0.02531 0.0
H460 H 0.51729 0.63144 0.04912 0.0
C461 C 0.5451 0.59032 0.01654 0.0
C462 C 0.5249 0.57393 0.01552 0.0
C463 C 0.55007 0.61139 0.02045 0.0
C464 C 0.52952 0.64377 0.04198 0.0
H465 H 0.60017 0.74878 0.06623 0.0
H466 H 0.5895 0.71293 0.05192 0.0
H467 H 0.52668 0.668 0.05833 0.0
H468 H 0.494 0.56681 0.01708 0.0
H469 H 0.50256 0.60346 0.02323 0.0
H470 H 0.56474 0.6524 0.00883 0.0
C471 C 0.57834 0.71781 0.05265 0.0
C472 C 0.53492 0.66473 0.04732 0.0
C473 C 0.58441 0.73823 0.06096 0.0
C474 C 0.50974 0.57906 0.01801 0.0
C475 C 0.51468 0.60011 0.02165 0.0
C476 C 0.55637 0.65555 0.01975 0.0
C477 C 0.55793 0.70356 0.04621 0.0
C478 C 0.55131 0.68133 0.03923 0.0
C479 C 0.53493 0.61655 0.02318 0.0
C480 C 0.54025 0.63889 0.02821 0.0
H481 H 0.53873 0.73566 0.05695 0.0
H482 H 0.528 0.69969 0.0426 0.0
H483 H 0.57452 0.68908 0.01872 0.0
H484 H 0.55714 0.58687 0.01481 0.0
H485 H 0.56586 0.62356 0.02184 0.0
C486 C 0.82245 0.26324 0.96233 0.0
C487 C 0.82932 0.24972 0.95537 0.0
C488 C 0.83617 0.28364 0.9712 0.0
C489 C 0.88845 0.31839 0.99449 0.0
H490 H 0.88305 0.3627 0.97078 0.0
C491 C 0.95329 0.40544 0.00187 0.0
C492 C 0.9483 0.42146 0.00287 0.0
C493 C 0.93813 0.38417 0.99856 0.0
C494 C 0.88463 0.3506 0.9779 0.0
H495 H 0.85568 0.24639 0.95324 0.0
H496 H 0.87966 0.282 0.9688 0.0
H497 H 0.85742 0.32594 0.96154 0.0
H498 H 0.92345 0.42768 0.00204 0.0
H499 H 0.89709 0.3907 0.99687 0.0
H500 H 0.91571 0.34307 0.01083 0.0
C501 C 0.86371 0.27688 0.96739 0.0
C502 C 0.86991 0.32949 0.97256 0.0
C503 C 0.85002 0.25658 0.95835 0.0
C504 C 0.92783 0.41574 0.00109 0.0
C505 C 0.91269 0.39451 0.99803 0.0
C506 C 0.90311 0.33956 -0.0 0.0
C507 C 0.85698 0.2908 0.97345 0.0
C508 C 0.87178 0.31316 0.9806 0.0
C509 C 0.91763 0.37844 0.99639 0.0
C510 C 0.90151 0.35593 0.99157 0.0
H511 H 0.80659 0.2584 0.96011 0.0
H512 H 0.83056 0.29398 0.9759 0.0
H513 H 0.89017 0.30611 0.00105 0.0
H514 H 0.96892 0.40932 0.00309 0.0
H515 H 0.94253 0.37228 0.99712 0.0
C516 C 0.73144 0.5611 0.94194 0.0
C517 C 0.74248 0.58102 0.93451 0.0
C518 C 0.7127 0.55481 0.94923 0.0
C519 C 0.66945 0.56104 0.94126 0.0
H520 H 0.65624 0.5428 0.99487 0.0
C521 C 0.5947 0.54542 0.9709 0.0
C522 C 0.58565 0.52968 0.98414 0.0
C523 C 0.61389 0.55128 0.96515 0.0
C524 C 0.65951 0.54746 0.9797 0.0
H525 H 0.74281 0.61033 0.93001 0.0
H526 H 0.70972 0.59885 0.94189 0.0
H527 H 0.68995 0.55371 0.98479 0.0
H528 H 0.58911 0.50729 0.00143 0.0
H529 H 0.62222 0.51671 0.99064 0.0
H530 H 0.63903 0.55414 0.93566 0.0
C531 C 0.71567 0.58822 0.94201 0.0
C532 C 0.67886 0.55384 0.97404 0.0
C533 C 0.73455 0.59468 0.9351 0.0
C534 C 0.59588 0.51957 0.99126 0.0
C535 C 0.61492 0.52513 0.9852 0.0
C536 C 0.65001 0.55427 0.94673 0.0
C537 C 0.70452 0.56816 0.9489 0.0
C538 C 0.68401 0.56089 0.95486 0.0
C539 C 0.62427 0.5412 0.97219 0.0
C540 C 0.64481 0.54761 0.96612 0.0
H541 H 0.7369 0.55004 0.94149 0.0
H542 H 0.70426 0.53921 0.95441 0.0
H543 H 0.67306 0.56617 0.92627 0.0
H544 H 0.58715 0.55356 0.96535 0.0
H545 H 0.62069 0.56401 0.95548 0.0
C546 C 0.44994 0.16405 0.94399 0.0
C547 C 0.43758 0.1699 0.95403 0.0
C548 C 0.45479 0.14972 0.95191 0.0
C549 C 0.4365 0.10561 0.98314 0.0
H550 H 0.49173 0.11722 0.98576 0.0
C551 C 0.4601 0.04706 0.01271 0.0
C552 C 0.47465 0.04514 0.00232 0.0
C553 C 0.45549 0.06282 0.00863 0.0
C554 C 0.47618 0.1136 0.98493 0.0
H555 H 0.42059 0.16542 0.98014 0.0
H556 H 0.42889 0.13999 0.9939 0.0
H557 H 0.48404 0.14394 0.97526 0.0
H558 H 0.49518 0.05767 0.97894 0.0
H559 H 0.48682 0.08453 0.9715 0.0
H560 H 0.42849 0.07497 0.99211 0.0
C561 C 0.43486 0.14662 0.97997 0.0
C562 C 0.47182 0.12897 0.979 0.0
C563 C 0.43024 0.16123 0.97219 0.0
C564 C 0.48415 0.05894 0.98749 0.0
C565 C 0.47943 0.07447 0.9833 0.0
C566 C 0.44082 0.09009 0.98887 0.0
C567 C 0.44719 0.14075 0.96989 0.0
C568 C 0.45191 0.12502 0.97775 0.0
C569 C 0.46523 0.07682 0.99396 0.0
C570 C 0.46068 0.09377 0.98949 0.0
H571 H 0.45587 0.17061 0.93002 0.0
H572 H 0.46419 0.14533 0.94375 0.0
H573 H 0.42099 0.10214 0.98218 0.0
H574 H 0.45256 0.03667 0.02425 0.0
H575 H 0.44457 0.06425 0.01721 0.0
C576 C 0.70869 0.14593 0.92486 0.0
C577 C 0.72602 0.15647 0.93867 0.0
C578 C 0.68978 0.13314 0.93163 0.0
C579 C 0.66495 0.10254 0.97373 0.0
H580 H 0.6195 0.1075 0.95266 0.0
C581 C 0.58751 0.06025 0.00631 0.0
C582 C 0.57018 0.05198 0.99258 0.0
C583 C 0.60664 0.07288 -0.00015 0.0
C584 C 0.63196 0.10569 0.9585 0.0
H585 H 0.7373 0.16173 0.97041 0.0
H586 H 0.70417 0.13925 0.98227 0.0
H587 H 0.65271 0.12973 0.9412 0.0
H588 H 0.5591 0.04997 0.9613 0.0
H589 H 0.59249 0.07161 0.94985 0.0
H590 H 0.64419 0.07831 0.99084 0.0
C591 C 0.70524 0.14088 0.96619 0.0
C592 C 0.651 0.11848 0.95196 0.0
C593 C 0.72417 0.15383 0.95941 0.0
C594 C 0.57225 0.0563 0.97222 0.0
C595 C 0.59137 0.0688 0.96572 0.0
C596 C 0.64587 0.08963 0.98018 0.0
C597 C 0.68784 0.1305 0.95237 0.0
C598 C 0.66769 0.11703 0.9595 0.0
C599 C 0.60881 0.07736 0.97947 0.0
C600 C 0.62913 0.09104 0.97263 0.0
H601 H 0.70976 0.14767 0.90878 0.0
H602 H 0.67667 0.12513 0.9206 0.0
H603 H 0.6775 0.1009 0.97961 0.0
H604 H 0.58627 0.05719 0.02212 0.0
H605 H 0.61969 0.07943 0.01091 0.0
C606 C 0.83997 0.55911 0.91178 0.0
C607 C 0.8295 0.56458 0.92525 0.0
C608 C 0.85188 0.55089 0.91876 0.0
C609 C 0.86021 0.52473 0.96119 0.0
H610 H 0.91252 0.54478 0.94081 0.0
C611 C 0.92079 0.50797 0.99661 0.0
C612 C 0.93225 0.50383 0.98331 0.0
C613 C 0.90722 0.51405 0.98926 0.0
C614 C 0.89784 0.53879 0.94644 0.0
H615 H 0.8232 0.56578 0.95662 0.0
H616 H 0.84423 0.55162 0.96891 0.0
H617 H 0.89104 0.55831 0.92869 0.0
H618 H 0.93821 0.50209 0.95192 0.0
H619 H 0.91433 0.51248 0.939 0.0
H620 H 0.86714 0.5053 0.97906 0.0
C621 C 0.84302 0.55342 0.95288 0.0
C622 C 0.88554 0.54657 0.93952 0.0
C623 C 0.83108 0.56165 0.94587 0.0
C624 C 0.92958 0.50531 0.9625 0.0
C625 C 0.91602 0.51137 0.95514 0.0
C626 C 0.87254 0.51694 0.96814 0.0
C627 C 0.8536 0.54801 0.9394 0.0
C628 C 0.86659 0.53964 0.94681 0.0
C629 C 0.90489 0.51609 0.96848 0.0
C630 C 0.8915 0.5239 0.96084 0.0
H631 H 0.8389 0.56115 0.89578 0.0
H632 H 0.8596 0.54661 0.90794 0.0
H633 H 0.84557 0.51886 0.96689 0.0
H634 H 0.92262 0.50696 0.01275 0.0
H635 H 0.89901 0.51776 -5e-05 0.0
C636 C 0.41766 0.27649 0.96281 0.0
C637 C 0.43009 0.26756 0.96352 0.0
C638 C 0.42588 0.29824 0.96716 0.0
C639 C 0.47195 0.34713 0.99046 0.0
H640 H 0.44837 0.37427 0.95965 0.0
C641 C 0.50526 0.4384 0.99351 0.0
C642 C 0.49116 0.44486 0.99699 0.0
C643 C 0.49886 0.41692 0.98934 0.0
C644 C 0.45507 0.36687 0.96839 0.0
H645 H 0.4609 0.27427 0.96937 0.0
H646 H 0.4754 0.31234 0.97641 0.0
H647 H 0.43527 0.33651 0.95261 0.0
H648 H 0.45929 0.43389 0.99858 0.0
H649 H 0.44821 0.39664 0.99099 0.0
H650 H 0.49203 0.37786 0.00592 0.0
C651 C 0.45921 0.30255 0.97298 0.0
C652 C 0.44749 0.3452 0.96448 0.0
C653 C 0.45091 0.28072 0.96887 0.0
C654 C 0.47058 0.42947 0.99609 0.0
C655 C 0.46419 0.40813 0.99161 0.0
C656 C 0.47972 0.36892 0.99417 0.0
C657 C 0.44681 0.31163 0.97201 0.0
C658 C 0.45559 0.33494 0.97568 0.0
C659 C 0.47823 0.40163 0.9882 0.0
C660 C 0.47113 0.37891 0.98337 0.0
H661 H 0.40154 0.26664 0.95878 0.0
H662 H 0.41577 0.30453 0.96672 0.0
H663 H 0.47845 0.33978 -0.00047 0.0
H664 H 0.52123 0.44989 0.99413 0.0
H665 H 0.50997 0.41228 0.98669 0.0
C666 C 0.13165 0.71988 0.05496 0.0
C667 C 0.15239 0.72707 0.05752 0.0
C668 C 0.1178 0.69863 0.04887 0.0
C669 C 0.11376 0.64864 0.02671 0.0
H670 H 0.06274 0.62314 0.05059 0.0
C671 C 0.05777 0.55815 0.02214 0.0
C672 C 0.03737 0.55159 0.0168 0.0
C673 C 0.0721 0.57965 0.02615 0.0
C674 C 0.07687 0.6301 0.04368 0.0
H675 H 0.17505 0.71777 0.05572 0.0
H676 H 0.1509 0.68055 0.04572 0.0
H677 H 0.08722 0.66042 0.05942 0.0
H678 H 0.01604 0.56248 0.01147 0.0
H679 H 0.04102 0.59992 0.01875 0.0
H680 H 0.10344 0.61793 0.01145 0.0
C681 C 0.14526 0.69135 0.04786 0.0
C682 C 0.09089 0.65151 0.04865 0.0
C683 C 0.15912 0.71269 0.0537 0.0
C684 C 0.03163 0.56698 0.01547 0.0
C685 C 0.0459 0.58842 0.01975 0.0
C686 C 0.09981 0.62713 0.02195 0.0
C687 C 0.12438 0.684 0.04553 0.0
C688 C 0.10949 0.66112 0.04016 0.0
C689 C 0.06625 0.59496 0.0252 0.0
C690 C 0.0812 0.61769 0.03032 0.0
H691 H 0.12611 0.7307 0.05775 0.0
H692 H 0.10192 0.6937 0.04682 0.0
H693 H 0.12778 0.65552 0.01963 0.0
H694 H 0.06268 0.54669 0.02326 0.0
H695 H 0.08769 0.58429 0.03045 0.0
C696 C 0.27898 0.44056 0.0614 0.0
C697 C 0.2716 0.42502 0.0751 0.0
C698 C 0.29868 0.44886 0.0559 0.0
C699 C 0.34071 0.43743 0.05611 0.0
H700 H 0.37297 0.4969 0.04812 0.0
C701 C 0.42578 0.4773 0.04767 0.0
C702 C 0.43223 0.48906 0.03088 0.0
C703 C 0.40644 0.47047 0.05352 0.0
C704 C 0.36406 0.48025 0.05022 0.0
H705 H 0.27887 0.40613 0.094 0.0
H706 H 0.31337 0.42098 0.08497 0.0
H707 H 0.33846 0.4828 0.0573 0.0
H708 H 0.424 0.50361 0.00745 0.0
H709 H 0.39016 0.49186 0.01788 0.0
H710 H 0.36647 0.43502 0.04941 0.0
C711 C 0.30392 0.42643 0.07799 0.0
C712 C 0.34428 0.47213 0.05537 0.0
C713 C 0.2842 0.418 0.08328 0.0
C714 C 0.41932 0.49451 0.02044 0.0
C715 C 0.40004 0.48788 0.02644 0.0
C716 C 0.36052 0.4456 0.0512 0.0
C717 C 0.3114 0.4419 0.06416 0.0
C718 C 0.33236 0.45061 0.05841 0.0
C719 C 0.39331 0.47549 0.04282 0.0
C720 C 0.37239 0.46707 0.04823 0.0
H721 H 0.26953 0.4462 0.05481 0.0
H722 H 0.30383 0.46052 0.045 0.0
H723 H 0.33186 0.4207 0.05788 0.0
H724 H 0.4355 0.47297 0.05601 0.0
H725 H 0.40168 0.46113 0.06635 0.0
C726 C 0.58447 0.86988 0.06453 0.0
C727 C 0.57262 0.84779 0.06311 0.0
C728 C 0.57572 0.88214 0.06027 0.0
C729 C 0.53008 0.87946 0.03488 0.0
H730 H 0.55035 0.93302 0.06716 0.0
C731 C 0.49504 0.93368 0.02835 0.0
C732 C 0.50915 0.95501 0.0265 0.0
C733 C 0.50157 0.91957 0.03316 0.0
C734 C 0.54458 0.91812 0.058 0.0
H735 H 0.54227 0.82105 0.05618 0.0
H736 H 0.52685 0.84246 0.04915 0.0
H737 H 0.56396 0.91023 0.07498 0.0
H738 H 0.54116 0.97823 0.02838 0.0
H739 H 0.55242 0.95372 0.03695 0.0
H740 H 0.51054 0.88746 0.01807 0.0
C741 C 0.543 0.85036 0.05315 0.0
C742 C 0.55244 0.9051 0.06239 0.0
C743 C 0.55182 0.83809 0.05726 0.0
C744 C 0.52986 0.96191 0.02962 0.0
C745 C 0.53635 0.94792 0.03467 0.0
C746 C 0.52207 0.89243 0.03063 0.0
C747 C 0.55484 0.87256 0.05471 0.0
C748 C 0.54556 0.88577 0.05067 0.0
C749 C 0.5223 0.92664 0.03652 0.0
C750 C 0.5295 0.91203 0.04194 0.0
H751 H 0.60055 0.8777 0.06896 0.0
H752 H 0.58539 0.89915 0.06121 0.0
H753 H 0.52455 0.86478 0.02542 0.0
H754 H 0.47898 0.92787 0.02599 0.0
H755 H 0.49045 0.90323 0.03457 0.0
C756 C 0.93236 0.16124 0.39479 0.0
C757 C 0.92981 0.15699 0.41518 0.0
C758 C 0.95136 0.17547 0.38897 0.0
C759 C -0.00059 0.22175 0.4085 0.0
H760 H 0.01966 0.20867 0.36086 0.0
C761 C 0.07899 0.27903 0.38511 0.0
C762 C 0.08109 0.28035 0.36428 0.0
C763 C 0.06094 0.26361 0.39185 0.0
C764 C 0.01413 0.21272 0.37405 0.0
H765 H 0.94555 0.1639 0.4453 0.0
H766 H 0.97859 0.18918 0.43515 0.0
H767 H 0.98739 0.18216 0.37143 0.0
H768 H 0.06604 0.26707 0.33414 0.0
H769 H 0.03435 0.24073 0.34577 0.0
H770 H 0.02575 0.2525 0.41085 0.0
C771 C 0.96578 0.18153 0.42374 0.0
C772 C 0.99569 0.19747 0.38014 0.0
C773 C 0.94683 0.1671 0.42954 0.0
C774 C 0.06482 0.26628 0.3503 0.0
C775 C 0.04672 0.25106 0.357 0.0
C776 C 0.01775 0.23711 0.40228 0.0
C777 C 0.9682 0.18595 0.40343 0.0
C778 C 0.98811 0.20186 0.39738 0.0
C779 C 0.04457 0.24937 0.37786 0.0
C780 C 0.02531 0.23285 0.38489 0.0
H781 H 0.91958 0.15405 0.38336 0.0
H782 H 0.95277 0.17876 0.37323 0.0
H783 H 0.99379 0.22562 0.42173 0.0
H784 H 0.09141 0.28964 0.39619 0.0
H785 H 0.05996 0.26263 0.40802 0.0
C786 C 0.85413 0.78483 0.40706 0.0
C787 C 0.84879 0.76445 0.41233 0.0
C788 C 0.83929 0.78933 0.4001 0.0
C789 C 0.7876 0.77431 0.40591 0.0
H790 H 0.78931 0.80176 0.35714 0.0
C791 C 0.72276 0.7879 0.37863 0.0
C792 C 0.7275 0.80597 0.36867 0.0
C793 C 0.73758 0.7827 0.38349 0.0
C794 C 0.78876 0.79443 0.371 0.0
H795 H 0.82362 0.73257 0.41324 0.0
H796 H 0.79774 0.74077 0.40186 0.0
H797 H 0.8153 0.79281 0.36571 0.0
H798 H 0.75139 0.83313 0.35643 0.0
H799 H 0.77758 0.82472 0.36577 0.0
H800 H 0.7617 0.77662 0.41184 0.0
C801 C 0.81345 0.75317 0.40319 0.0
C802 C 0.80357 0.78917 0.37578 0.0
C803 C 0.82828 0.74855 0.4098 0.0
C804 C 0.74737 0.81904 0.36404 0.0
C805 C 0.76231 0.81407 0.36922 0.0
C806 C 0.77302 0.77992 0.40136 0.0
C807 C 0.81882 0.77366 0.39856 0.0
C808 C 0.80304 0.77897 0.39321 0.0
C809 C 0.75758 0.79569 0.37882 0.0
C810 C 0.77333 0.78998 0.3838 0.0
H811 H 0.86968 0.79758 0.40909 0.0
H812 H 0.84376 0.80529 0.39673 0.0
H813 H 0.78708 0.76672 0.41961 0.0
H814 H 0.70746 0.77747 0.38221 0.0
H815 H 0.7332 0.76822 0.39051 0.0
C816 C 0.22124 0.0707 0.38098 0.0
C817 C 0.24057 0.08504 0.39054 0.0
C818 C 0.21678 0.0508 0.37258 0.0
C819 C 0.23818 0.01821 0.35522 0.0
H820 H 0.19065 0.97272 0.37506 0.0
C821 C 0.22037 0.93124 0.34886 0.0
C822 C 0.20001 0.91514 0.34653 0.0
C823 C 0.22556 0.95247 0.35183 0.0
C824 C 0.20374 0.98513 0.36899 0.0
H825 H 0.27073 0.0903 0.39763 0.0
H826 H 0.26291 0.05542 0.38283 0.0
H827 H 0.19931 0.00907 0.38347 0.0
H828 H 0.16911 0.90864 0.34435 0.0
H829 H 0.17806 0.94551 0.34873 0.0
H830 H 0.24255 0.9942 0.34062 0.0
C831 C 0.25124 0.05962 0.38192 0.0
C832 C 0.20872 0.00601 0.37389 0.0
C833 C 0.25566 0.07949 0.39049 0.0
C834 C 0.18495 0.92068 0.34641 0.0
C835 C 0.19011 0.94186 0.34905 0.0
C836 C 0.23304 0.99722 0.35008 0.0
C837 C 0.23158 0.04487 0.37342 0.0
C838 C 0.22602 0.02277 0.36715 0.0
C839 C 0.21047 0.95803 0.35226 0.0
C840 C 0.21578 0.98041 0.35699 0.0
H841 H 0.20924 0.07442 0.38092 0.0
H842 H 0.20156 0.03979 0.36594 0.0
H843 H 0.25157 0.03086 0.34977 0.0
H844 H 0.23231 0.92742 0.3491 0.0
H845 H 0.24139 0.96443 0.35446 0.0
C846 C 0.51902 0.59303 0.28814 0.0
C847 C 0.49859 0.58747 0.28603 0.0
C848 C 0.53379 0.61297 0.29718 0.0
C849 C 0.54289 0.66666 0.30325 0.0
H850 H 0.5881 0.67837 0.34149 0.0
C851 C 0.60041 0.75177 0.33456 0.0
C852 C 0.62088 0.75759 0.33687 0.0
C853 C 0.58541 0.73056 0.33066 0.0
C854 C 0.57569 0.67538 0.33064 0.0
H855 H 0.47755 0.59818 0.29239 0.0
H856 H 0.50331 0.6329 0.30819 0.0
H857 H 0.562 0.64173 0.33094 0.0
H858 H 0.64169 0.7457 0.33725 0.0
H859 H 0.61552 0.70865 0.32973 0.0
H860 H 0.55667 0.7 0.30219 0.0
C861 C 0.50789 0.62186 0.30281 0.0
C862 C 0.56072 0.6544 0.32469 0.0
C863 C 0.49314 0.6019 0.29394 0.0
C864 C 0.62602 0.74169 0.33561 0.0
C865 C 0.611 0.72043 0.3314 0.0
C866 C 0.5579 0.68754 0.30898 0.0
C867 C 0.5284 0.62778 0.30407 0.0
C868 C 0.54414 0.64987 0.31099 0.0
C869 C 0.5905 0.71463 0.32862 0.0
C870 C 0.57448 0.69223 0.32281 0.0
H871 H 0.52363 0.58216 0.2823 0.0
H872 H 0.5495 0.61715 0.29791 0.0
H873 H 0.5305 0.66364 0.29232 0.0
H874 H 0.59592 0.76362 0.33574 0.0
H875 H 0.56979 0.7267 0.32915 0.0
C876 C 0.40788 0.90657 0.28474 0.0
C877 C 0.41063 0.90925 0.26411 0.0
C878 C 0.38884 0.89963 0.2916 0.0
C879 C 0.3414 0.89863 0.27777 0.0
H880 H 0.31931 0.85744 0.31709 0.0
C881 C 0.26036 0.86665 0.29921 0.0
C882 C 0.25742 0.86457 0.31982 0.0
C883 C 0.27871 0.8707 0.2923 0.0
C884 C 0.32537 0.86912 0.30625 0.0
H885 H 0.3954 0.90555 0.23434 0.0
H886 H 0.36232 0.8936 0.24632 0.0
H887 H 0.35224 0.86709 0.30545 0.0
H888 H 0.27102 0.86472 0.34938 0.0
H889 H 0.30325 0.8722 0.33742 0.0
H890 H 0.31482 0.90099 0.2787 0.0
C891 C 0.37491 0.89728 0.25725 0.0
C892 C 0.3442 0.87461 0.29959 0.0
C893 C 0.39386 0.90415 0.25041 0.0
C894 C 0.27294 0.86624 0.33338 0.0
C895 C 0.29134 0.87039 0.32651 0.0
C896 C 0.32266 0.89323 0.28447 0.0
C897 C 0.37225 0.89527 0.27795 0.0
C898 C 0.35236 0.88937 0.28522 0.0
C899 C 0.2945 0.87287 0.30591 0.0
C900 C 0.31438 0.87836 0.29873 0.0
H901 H 0.42054 0.91047 0.29565 0.0
H902 H 0.38724 0.89834 0.30766 0.0
H903 H 0.34747 0.91036 0.26697 0.0
H904 H 0.24854 0.86528 0.28843 0.0
H905 H 0.28052 0.87216 0.27629 0.0
C906 C 0.12712 0.51723 0.29032 0.0
C907 C 0.10714 0.51012 0.28262 0.0
C908 C 0.13246 0.50303 0.29776 0.0
C909 C 0.11224 0.45233 0.31924 0.0
H910 H 0.15623 0.44904 0.29669 0.0
C911 C 0.12555 0.38273 0.33088 0.0
C912 C 0.14542 0.38652 0.33206 0.0
C913 C 0.1215 0.3987 0.32626 0.0
C914 C 0.14417 0.44997 0.30349 0.0
H915 H 0.07697 0.48291 0.27711 0.0
H916 H 0.08623 0.45813 0.29048 0.0
H917 H 0.1483 0.47573 0.28661 0.0
H918 H 0.17671 0.41018 0.33 0.0
H919 H 0.16979 0.43824 0.32274 0.0
H920 H 0.10823 0.4269 0.33641 0.0
C921 C 0.09775 0.47461 0.29062 0.0
C922 C 0.1396 0.46523 0.29761 0.0
C923 C 0.0925 0.48871 0.28286 0.0
C924 C 0.16121 0.40672 0.329 0.0
C925 C 0.1572 0.42278 0.3247 0.0
C926 C 0.117 0.43728 0.32538 0.0
C927 C 0.1178 0.4816 0.29797 0.0
C928 C 0.12344 0.46636 0.30524 0.0
C929 C 0.13726 0.41893 0.32303 0.0
C930 C 0.13286 0.43571 0.31738 0.0
H931 H 0.13867 0.53367 0.29021 0.0
H932 H 0.148 0.50878 0.30342 0.0
H933 H 0.09983 0.45305 0.32547 0.0
H934 H 0.11304 0.36726 0.33298 0.0
H935 H 0.10592 0.39496 0.32474 0.0
C936 C 0.37344 0.49997 0.25512 0.0
C937 C 0.39093 0.50412 0.26704 0.0
C938 C 0.35436 0.48651 0.26124 0.0
C939 C 0.32729 0.44201 0.29088 0.0
H940 H 0.28771 0.46013 0.29273 0.0
C941 C 0.24307 0.38578 0.30177 0.0
C942 C 0.23553 0.39291 0.31723 0.0
C943 C 0.26201 0.39933 0.29537 0.0
C944 C 0.29864 0.4549 0.29228 0.0
H945 H 0.40233 0.49726 0.29452 0.0
H946 H 0.36887 0.47333 0.30504 0.0
H947 H 0.3212 0.48402 0.28222 0.0
H948 H 0.2415 0.41975 0.33788 0.0
H949 H 0.27446 0.44362 0.32635 0.0
H950 H 0.30465 0.4128 0.30072 0.0
C951 C 0.36997 0.48067 0.29106 0.0
C952 C 0.31771 0.46849 0.28618 0.0
C953 C 0.38907 0.49443 0.28511 0.0
C954 C 0.24703 0.41389 0.32595 0.0
C955 C 0.2658 0.42754 0.31932 0.0
C956 C 0.30811 0.42829 0.29664 0.0
C957 C 0.35246 0.47666 0.27922 0.0
C958 C 0.33223 0.4622 0.28554 0.0
C959 C 0.27353 0.42033 0.30409 0.0
C960 C 0.29366 0.43466 0.29749 0.0
H961 H 0.37453 0.50722 0.24109 0.0
H962 H 0.34108 0.48353 0.25178 0.0
H963 H 0.33821 0.43677 0.29037 0.0
H964 H 0.23445 0.36966 0.29481 0.0
H965 H 0.2676 0.39347 0.28349 0.0
C966 C 0.51499 0.89795 0.24411 0.0
C967 C 0.50184 0.89979 0.25685 0.0
C968 C 0.52694 0.88966 0.25081 0.0
C969 C 0.53153 0.85723 0.28924 0.0
H970 H 0.58738 0.88477 0.277 0.0
C971 C 0.59073 0.84026 0.32781 0.0
C972 C 0.60504 0.83981 0.31582 0.0
C973 C 0.57721 0.84618 0.31994 0.0
C974 C 0.57174 0.8767 0.28031 0.0
H975 H 0.4908 0.89438 0.28661 0.0
H976 H 0.51185 0.88011 0.29842 0.0
H977 H 0.56568 0.89798 0.26469 0.0
H978 H 0.61613 0.84451 0.28611 0.0
H979 H 0.59236 0.85462 0.27224 0.0
H980 H 0.5377 0.83605 0.30502 0.0
C981 C 0.51274 0.88481 0.28314 0.0
C982 C 0.55931 0.88429 0.27326 0.0
C983 C 0.50077 0.8931 0.27642 0.0
C984 C 0.6053 0.84485 0.29569 0.0
C985 C 0.59177 0.85075 0.28781 0.0
C986 C 0.54399 0.84964 0.2963 0.0
C987 C 0.526 0.88305 0.27043 0.0
C988 C 0.53908 0.87469 0.27769 0.0
C989 C 0.57775 0.85175 0.29992 0.0
C990 C 0.56426 0.85933 0.29196 0.0
H991 H 0.51601 0.90292 0.22892 0.0
H992 H 0.53679 0.88826 0.24055 0.0
H993 H 0.51593 0.8493 0.29266 0.0
H994 H 0.59027 0.83646 0.3434 0.0
H995 H 0.56673 0.84699 0.32972 0.0
C996 C 0.12297 0.62225 0.30015 0.0
C997 C 0.10207 0.60878 0.29565 0.0
C998 C 0.13084 0.64371 0.30617 0.0
C999 C 0.11719 0.68566 0.30477 0.0
H1000 H 0.16414 0.71677 0.34392 0.0
C1001 C 0.14311 0.76986 0.3392 0.0
C1002 C 0.16359 0.7849 0.33836 0.0
C1003 C 0.13614 0.74835 0.33488 0.0
C1004 C 0.15109 0.70826 0.33288 0.0
H1005 H 0.07297 0.60685 0.29439 0.0
H1006 H 0.08652 0.64406 0.30563 0.0
H1007 H 0.1506 0.679 0.33509 0.0
H1008 H 0.19292 0.78908 0.3329 0.0
H1009 H 0.18068 0.7513 0.32565 0.0
H1010 H 0.11746 0.71485 0.30296 0.0
C1011 C 0.09697 0.63834 0.30397 0.0
C1012 C 0.14336 0.68665 0.32775 0.0
C1013 C 0.08916 0.61698 0.29769 0.0
C1014 C 0.17705 0.7779 0.33365 0.0
C1015 C 0.17009 0.7563 0.32959 0.0
C1016 C 0.12475 0.70714 0.3101 0.0
C1017 C 0.11794 0.65207 0.30801 0.0
C1018 C 0.12627 0.67506 0.31364 0.0
C1019 C 0.14951 0.74138 0.32985 0.0
C1020 C 0.14174 0.71863 0.32422 0.0
H1021 H 0.13331 0.61637 0.29855 0.0
H1022 H 0.14706 0.65382 0.30887 0.0
H1023 H 0.10434 0.67745 0.29348 0.0
H1024 H 0.13229 0.77467 0.34272 0.0
H1025 H 0.12022 0.73715 0.33538 0.0
C1026 C 0.80556 0.05646 0.38883 0.0
C1027 C 0.8261 0.06312 0.39279 0.0
C1028 C 0.79147 0.03519 0.38318 0.0
C1029 C 0.78674 0.98387 0.36462 0.0
H1030 H 0.73462 0.96072 0.38615 0.0
C1031 C 0.72925 0.89407 0.36157 0.0
C1032 C 0.70908 0.88771 0.35522 0.0
C1033 C 0.74373 0.91553 0.36542 0.0
C1034 C 0.74906 0.96701 0.3799 0.0
H1035 H 0.84814 0.05284 0.39389 0.0
H1036 H 0.82353 0.0156 0.38459 0.0
H1037 H 0.75957 0.99801 0.39414 0.0
H1038 H 0.6883 0.89891 0.34803 0.0
H1039 H 0.71356 0.93632 0.355 0.0
H1040 H 0.77622 0.95256 0.35083 0.0
C1041 C 0.81827 0.02682 0.38534 0.0
C1042 C 0.76335 0.98842 0.38438 0.0
C1043 C 0.83239 0.04818 0.39077 0.0
C1044 C 0.70371 0.90326 0.35285 0.0
C1045 C 0.71814 0.92469 0.35694 0.0
C1046 C 0.77249 0.96239 0.36032 0.0
C1047 C 0.79758 0.02002 0.38165 0.0
C1048 C 0.78237 0.99718 0.37675 0.0
C1049 C 0.73829 0.93103 0.36326 0.0
C1050 C 0.75349 0.95377 0.36786 0.0
H1051 H 0.80036 0.06772 0.39023 0.0
H1052 H 0.77576 0.03065 0.38005 0.0
H1053 H 0.80109 0.99009 0.35822 0.0
H1054 H 0.73389 0.88249 0.3635 0.0
H1055 H 0.75913 0.91999 0.37043 0.0
C1056 C 0.97332 0.79869 0.44148 0.0
C1057 C 0.95678 0.79339 0.42744 0.0
C1058 C 0.99241 0.80543 0.43497 0.0
C1059 C 0.02304 0.82728 0.3922 0.0
H1060 H 0.05374 0.80291 0.41451 0.0
C1061 C 0.09235 0.83329 0.35653 0.0
C1062 C 0.10868 0.8362 0.36965 0.0
C1063 C 0.0744 0.82962 0.36418 0.0
C1064 C 0.04552 0.81012 0.40835 0.0
H1065 H 0.94717 0.79125 0.39559 0.0
H1066 H 0.98053 0.80292 0.38417 0.0
H1067 H 0.02129 0.79375 0.42675 0.0
H1068 H 0.1194 0.83805 0.40103 0.0
H1069 H 0.08811 0.83188 0.41449 0.0
H1070 H 0.04724 0.84356 0.37369 0.0
C1071 C 0.97879 0.80206 0.40025 0.0
C1072 C 0.0269 0.80485 0.41535 0.0
C1073 C 0.95968 0.79526 0.40677 0.0
C1074 C 0.10695 0.83573 0.39059 0.0
C1075 C 0.08901 0.8321 0.39826 0.0
C1076 C 0.0417 0.8326 0.38522 0.0
C1077 C 0.99533 0.80703 0.41426 0.0
C1078 C 0.01541 0.81326 0.40726 0.0
C1079 C 0.07248 0.82883 0.38512 0.0
C1080 C 0.05308 0.82396 0.39312 0.0
H1081 H 0.97145 0.79743 0.45751 0.0
H1082 H 0.0049 0.80941 0.44615 0.0
H1083 H 0.01465 0.83425 0.38588 0.0
H1084 H 0.09333 0.83356 0.3403 0.0
H1085 H 0.06188 0.82689 0.35363 0.0
C1086 C 0.20084 0.17345 0.41341 0.0
C1087 C 0.2136 0.16871 0.40282 0.0
C1088 C 0.19538 0.1877 0.40645 0.0
C1089 C 0.19431 0.21505 0.36113 0.0
H1090 H 0.18895 0.25215 0.40109 0.0
C1091 C 0.18653 0.28732 0.34224 0.0
C1092 C 0.1712 0.28901 0.35127 0.0
C1093 C 0.19138 0.27209 0.34765 0.0
C1094 C 0.19026 0.24178 0.38978 0.0
H1095 H 0.23084 0.17518 0.37667 0.0
H1096 H 0.22186 0.2006 0.3648 0.0
H1097 H 0.19844 0.22696 0.41227 0.0
H1098 H 0.14895 0.27613 0.37308 0.0
H1099 H 0.15761 0.24979 0.38266 0.0
H1100 H 0.18662 0.23048 0.33866 0.0
C1101 C 0.21558 0.19292 0.37821 0.0
C1102 C 0.19561 0.22726 0.39616 0.0
C1103 C 0.22083 0.17843 0.38506 0.0
C1104 C 0.16074 0.27512 0.36572 0.0
C1105 C 0.16578 0.26014 0.37133 0.0
C1106 C 0.18921 0.22981 0.35476 0.0
C1107 C 0.20284 0.19781 0.38887 0.0
C1108 C 0.19754 0.21356 0.38194 0.0
C1109 C 0.18121 0.25856 0.36244 0.0
C1110 C 0.18699 0.24318 0.36903 0.0
H1111 H 0.19501 0.16606 0.4271 0.0
H1112 H 0.1852 0.19068 0.41483 0.0
H1113 H 0.19538 0.20459 0.34975 0.0
H1114 H 0.19485 0.2978 0.33105 0.0
H1115 H 0.20342 0.27126 0.34067 0.0
C1116 C 0.60171 0.48892 0.72764 0.0
C1117 C 0.59152 0.4958 0.74016 0.0
C1118 C 0.62005 0.50347 0.72075 0.0
C1119 C 0.65217 0.56076 0.71434 0.0
H1120 H 0.69384 0.54596 0.70974 0.0
C1121 C 0.73515 0.62072 0.70124 0.0
C1122 C 0.74347 0.614 0.68625 0.0
C1123 C 0.71625 0.6066 0.70743 0.0
C1124 C 0.68227 0.55024 0.71082 0.0
H1125 H 0.59262 0.52356 0.75496 0.0
H1126 H 0.62494 0.54874 0.74379 0.0
H1127 H 0.66172 0.52072 0.72155 0.0
H1128 H 0.73866 0.58745 0.66583 0.0
H1129 H 0.70579 0.56272 0.67682 0.0
H1130 H 0.67311 0.59055 0.70406 0.0
C1131 C 0.61859 0.53213 0.73891 0.0
C1132 C 0.66382 0.53575 0.7175 0.0
C1133 C 0.60016 0.51761 0.74562 0.0
C1134 C 0.73256 0.59303 0.67743 0.0
C1135 C 0.71383 0.57886 0.68378 0.0
C1136 C 0.67074 0.57535 0.7079 0.0
C1137 C 0.62878 0.52527 0.72636 0.0
C1138 C 0.64847 0.54077 0.71928 0.0
C1139 C 0.70553 0.58547 0.69891 0.0
C1140 C 0.68592 0.57018 0.70599 0.0
H1141 H 0.59565 0.47225 0.7233 0.0
H1142 H 0.62728 0.49758 0.71087 0.0
H1143 H 0.64062 0.56507 0.71517 0.0
H1144 H 0.74331 0.63682 0.70828 0.0
H1145 H 0.71023 0.61204 0.7192 0.0
C1146 C 0.50597 0.11255 0.77116 0.0
C1147 C 0.51972 0.10999 0.75991 0.0
C1148 C 0.49073 0.11485 0.76147 0.0
C1149 C 0.47666 0.13194 0.71602 0.0
H1150 H 0.42281 0.10035 0.73344 0.0
C1151 C 0.40881 0.13806 0.68166 0.0
C1152 C 0.39618 0.13913 0.69561 0.0
C1153 C 0.42378 0.13345 0.68786 0.0
C1154 C 0.43779 0.1094 0.72852 0.0
H1155 H 0.52845 0.10824 0.72963 0.0
H1156 H 0.5018 0.11268 0.71263 0.0
H1157 H 0.44927 0.09403 0.747 0.0
H1158 H 0.38932 0.1366 0.72693 0.0
H1159 H 0.41561 0.12889 0.73787 0.0
H1160 H 0.46527 0.14771 0.69792 0.0
C1161 C 0.5029 0.11276 0.72899 0.0
C1162 C 0.4529 0.10573 0.73623 0.0
C1163 C 0.51814 0.11028 0.73871 0.0
C1164 C 0.39883 0.13575 0.71587 0.0
C1165 C 0.41378 0.13119 0.72207 0.0
C1166 C 0.46151 0.13569 0.70835 0.0
C1167 C 0.48894 0.11485 0.74031 0.0
C1168 C 0.47257 0.11725 0.73038 0.0
C1169 C 0.42633 0.12984 0.70812 0.0
C1170 C 0.44203 0.12476 0.71486 0.0
H1171 H 0.50708 0.11299 0.78755 0.0
H1172 H 0.48046 0.11692 0.77061 0.0
H1173 H 0.49174 0.14112 0.71136 0.0
H1174 H 0.407 0.14058 0.66592 0.0
H1175 H 0.43312 0.13238 0.67673 0.0
C1176 C 0.89015 0.40718 0.71227 0.0
C1177 C 0.90987 0.4207 0.72134 0.0
C1178 C 0.88435 0.38673 0.70419 0.0
C1179 C 0.90304 0.35152 0.68682 0.0
H1180 H 0.8547 0.30786 0.70727 0.0
C1181 C 0.8826 0.2639 0.68236 0.0
C1182 C 0.86208 0.24821 0.67983 0.0
C1183 C 0.88833 0.28529 0.68513 0.0
C1184 C 0.86801 0.31977 0.70104 0.0
H1185 H 0.9393 0.42396 0.72803 0.0
H1186 H 0.9292 0.38823 0.71377 0.0
H1187 H 0.8648 0.34477 0.71503 0.0
H1188 H 0.83148 0.24268 0.67735 0.0
H1189 H 0.84141 0.27984 0.68151 0.0
H1190 H 0.90625 0.3265 0.67276 0.0
C1191 C 0.91822 0.39342 0.71296 0.0
C1192 C 0.87381 0.34096 0.70555 0.0
C1193 C 0.92397 0.41379 0.72122 0.0
C1194 C 0.84743 0.25437 0.67954 0.0
C1195 C 0.85314 0.27571 0.68203 0.0
C1196 C 0.89712 0.33026 0.68209 0.0
C1197 C 0.89822 0.3795 0.70485 0.0
C1198 C 0.89147 0.35706 0.69865 0.0
C1199 C 0.87365 0.29146 0.68519 0.0
C1200 C 0.87961 0.3141 0.68932 0.0
H1201 H 0.87895 0.41204 0.71229 0.0
H1202 H 0.86888 0.37638 0.69787 0.0
H1203 H 0.91666 0.36364 0.6812 0.0
H1204 H 0.89424 0.25965 0.68273 0.0
H1205 H 0.90425 0.29692 0.68778 0.0
C1206 C 0.18629 0.92811 0.62683 0.0
C1207 C 0.1658 0.92217 0.62377 0.0
C1208 C 0.20049 0.948 0.63638 0.0
C1209 C 0.2084 0.00132 0.6428 0.0
H1210 H 0.25428 0.0131 0.68009 0.0
C1211 C 0.26799 0.0867 0.67166 0.0
C1212 C 0.28831 0.09193 0.67258 0.0
C1213 C 0.25251 0.0656 0.66886 0.0
C1214 C 0.24164 0.01008 0.66956 0.0
H1215 H 0.14399 0.93205 0.6291 0.0
H1216 H 0.16877 0.96675 0.6459 0.0
H1217 H 0.22796 0.97647 0.67 0.0
H1218 H 0.30834 0.07908 0.67176 0.0
H1219 H 0.28132 0.04226 0.66627 0.0
H1220 H 0.22224 0.03467 0.64161 0.0
C1221 C 0.17386 0.95606 0.64078 0.0
C1222 C 0.22654 0.98911 0.66386 0.0
C1223 C 0.15965 0.93611 0.63135 0.0
C1224 C 0.29283 0.07557 0.67118 0.0
C1225 C 0.27732 0.05443 0.66814 0.0
C1226 C 0.22352 0.02222 0.64834 0.0
C1227 C 0.19448 0.9624 0.64294 0.0
C1228 C 0.20983 0.98453 0.65032 0.0
C1229 C 0.25695 0.0492 0.66664 0.0
C1230 C 0.24042 0.02689 0.66169 0.0
H1231 H 0.19143 0.91759 0.6213 0.0
H1232 H 0.21628 0.95248 0.63774 0.0
H1233 H 0.19592 0.9983 0.63202 0.0
H1234 H 0.26399 0.09891 0.67295 0.0
H1235 H 0.23703 0.06217 0.66825 0.0
C1236 C 0.06345 0.24938 0.59704 0.0
C1237 C 0.07019 0.23476 0.59816 0.0
C1238 C 0.04529 0.24517 0.60448 0.0
C1239 C 0.00901 0.21592 0.6397 0.0
H1240 H 0.96945 0.21615 0.60087 0.0
C1241 C 0.92716 0.18655 0.6581 0.0
C1242 C 0.91759 0.19712 0.65051 0.0
C1243 C 0.94583 0.19088 0.65186 0.0
C1244 C 0.98039 0.21635 0.61204 0.0
H1245 H 0.06333 0.20453 0.60867 0.0
H1246 H 0.03196 0.19765 0.62237 0.0
H1247 H 0.0027 0.22538 0.59085 0.0
H1248 H 0.9198 0.22051 0.63063 0.0
H1249 H 0.95271 0.22878 0.62035 0.0
H1250 H 0.98709 0.20759 0.66115 0.0
C1251 C 0.04076 0.21225 0.61553 0.0
C1252 C -0.00062 0.22154 0.60623 0.0
C1253 C 0.05877 0.21628 0.60777 0.0
C1254 C 0.92686 0.21204 0.63657 0.0
C1255 C 0.94567 0.21666 0.6306 0.0
C1256 C 0.99011 0.21109 0.64566 0.0
C1257 C 0.0337 0.22646 0.61354 0.0
C1258 C 0.0138 0.22132 0.61999 0.0
C1259 C 0.95542 0.20614 0.63816 0.0
C1260 C 0.97553 0.21119 0.63188 0.0
H1261 H 0.07208 0.26401 0.59019 0.0
H1262 H 0.04021 0.25647 0.60304 0.0
H1263 H 0.02 0.21578 0.65057 0.0
H1264 H 0.9202 0.17488 0.66881 0.0
H1265 H 0.95264 0.18215 0.6577 0.0
C1266 C 0.76075 0.83159 0.63919 0.0
C1267 C 0.76764 0.84122 0.62133 0.0
C1268 C 0.76542 0.81645 0.6454 0.0
C1269 C 0.78302 0.7807 0.62488 0.0
H1270 H 0.7922 0.77473 0.68161 0.0
C1271 C 0.81995 0.73371 0.65149 0.0
C1272 C 0.80893 0.71769 0.664 0.0
C1273 C 0.81431 0.74859 0.64736 0.0
C1274 C 0.78951 0.77618 0.66573 0.0
H1275 H 0.78554 0.84354 0.59649 0.0
H1276 H 0.79452 0.81799 0.60768 0.0
H1277 H 0.78414 0.80175 0.67244 0.0
H1278 H 0.78374 0.70509 0.6825 0.0
H1279 H 0.77417 0.73167 0.6756 0.0
H1280 H 0.78917 0.75567 0.61825 0.0
C1281 C 0.78481 0.82129 0.61654 0.0
C1282 C 0.78482 0.79158 0.66044 0.0
C1283 C 0.77984 0.83609 0.61018 0.0
C1284 C 0.79245 0.71721 0.67274 0.0
C1285 C 0.78703 0.73242 0.66889 0.0
C1286 C 0.78803 0.76563 0.63017 0.0
C1287 C 0.77734 0.81092 0.634 0.0
C1288 C 0.78171 0.79417 0.63991 0.0
C1289 C 0.79776 0.74801 0.65591 0.0
C1290 C 0.79146 0.76334 0.65061 0.0
H1291 H 0.75121 0.83526 0.64796 0.0
H1292 H 0.75923 0.8087 0.6588 0.0
H1293 H 0.78014 0.78172 0.60893 0.0
H1294 H 0.83267 0.73448 0.64444 0.0
H1295 H 0.82288 0.76056 0.6374 0.0
C1296 C 0.05737 0.83255 0.6237 0.0
C1297 C 0.06049 0.83151 0.60311 0.0
C1298 C 0.03839 0.81925 0.63022 0.0
C1299 C 0.98436 0.78589 0.61095 0.0
H1300 H 0.97989 0.76119 0.662 0.0
C1301 C 0.90855 0.72017 0.63407 0.0
C1302 C 0.90423 0.7227 0.65396 0.0
C1303 C 0.92779 0.73331 0.62811 0.0
C1304 C 0.98093 0.76812 0.64779 0.0
H1305 H 0.04652 0.8157 0.57327 0.0
H1306 H 0.01357 0.79217 0.58463 0.0
H1307 H 0.01324 0.78447 0.65115 0.0
H1308 H 0.91652 0.74063 0.68334 0.0
H1309 H 0.95027 0.76355 0.67298 0.0
H1310 H 0.95204 0.7693 0.60749 0.0
C1311 C 0.02554 0.80351 0.59572 0.0
C1312 C 2e-05 0.7815 0.64159 0.0
C1313 C 0.04443 0.81688 0.58922 0.0
C1314 C 0.91951 0.73837 0.6679 0.0
C1315 C 0.93882 0.7514 0.66201 0.0
C1316 C 0.9653 0.7724 0.61708 0.0
C1317 C 0.02223 0.80459 0.61629 0.0
C1318 C 0.00197 0.79053 0.62307 0.0
C1319 C 0.9431 0.7491 0.64201 0.0
C1320 C 0.96338 0.76336 0.63554 0.0
H1321 H 0.06948 0.84373 0.63476 0.0
H1322 H 0.03632 0.82069 0.64612 0.0
H1323 H 0.98527 0.79288 0.5968 0.0
H1324 H 0.89699 0.70819 0.62303 0.0
H1325 H 0.93073 0.73104 0.61266 0.0
C1326 C 0.15763 0.21326 0.61371 0.0
C1327 C 0.15446 0.21286 0.5926 0.0
C1328 C 0.17091 0.20719 0.62196 0.0
C1329 C 0.1966 0.17745 0.60863 0.0
H1330 H 0.23412 0.21131 0.65518 0.0
C1331 C 0.26707 0.17225 0.63276 0.0
C1332 C 0.27173 0.17263 0.65358 0.0
C1333 C 0.25164 0.17591 0.62602 0.0
C1334 C 0.22356 0.20154 0.64234 0.0
H1335 H 0.16251 0.20591 0.56358 0.0
H1336 H 0.1859 0.19562 0.57792 0.0
H1337 H 0.20906 0.22001 0.64222 0.0
H1338 H 0.26399 0.17691 0.68372 0.0
H1339 H 0.23696 0.18334 0.67192 0.0
H1340 H 0.21136 0.15923 0.60855 0.0
C1341 C 0.17794 0.20024 0.58813 0.0
C1342 C 0.20919 0.2065 0.63493 0.0
C1343 C 0.16467 0.20626 0.57991 0.0
C1344 C 0.26068 0.17659 0.66757 0.0
C1345 C 0.2453 0.18036 0.66083 0.0
C1346 C 0.211 0.17254 0.616 0.0
C1347 C 0.18123 0.20064 0.60924 0.0
C1348 C 0.1957 0.19464 0.61786 0.0
C1349 C 0.24067 0.18011 0.63999 0.0
C1350 C 0.22475 0.18466 0.6328 0.0
H1351 H 0.1499 0.21824 0.62386 0.0
H1352 H 0.17298 0.20746 0.63829 0.0
H1353 H 0.18616 0.16777 0.59568 0.0
H1354 H 0.27542 0.16924 0.62169 0.0
H1355 H 0.24856 0.17588 0.60987 0.0
C1356 C 0.74843 0.94772 0.63667 0.0
C1357 C 0.76142 0.93954 0.63516 0.0
C1358 C 0.7562 0.96935 0.64138 0.0
C1359 C 0.80306 0.01936 0.66137 0.0
H1360 H 0.7753 0.04485 0.63484 0.0
C1361 C 0.8357 0.11003 0.6617 0.0
C1362 C 0.82243 0.1172 0.66672 0.0
C1363 C 0.82873 0.08837 0.65838 0.0
C1364 C 0.78313 0.03791 0.64244 0.0
H1365 H 0.79275 0.94746 0.63745 0.0
H1366 H 0.80641 0.98534 0.64505 0.0
H1367 H 0.76238 0.00709 0.62808 0.0
H1368 H 0.79143 0.10726 0.67207 0.0
H1369 H 0.77926 0.06952 0.66594 0.0
H1370 H 0.82414 0.05054 0.67525 0.0
C1371 C 0.79018 0.97505 0.64314 0.0
C1372 C 0.77568 0.01623 0.63869 0.0
C1373 C 0.78236 0.95333 0.63869 0.0
C1374 C 0.80206 0.10227 0.6683 0.0
C1375 C 0.79506 0.08067 0.66469 0.0
C1376 C 0.81067 0.04114 0.6649 0.0
C1377 C 0.7772 0.98338 0.64436 0.0
C1378 C 0.78543 0.0066 0.64823 0.0
C1379 C 0.80831 0.07351 0.65969 0.0
C1380 C 0.80067 0.05056 0.65559 0.0
H1381 H 0.73222 0.93736 0.63408 0.0
H1382 H 0.74569 0.97504 0.64265 0.0
H1383 H 0.81083 0.01251 0.66921 0.0
H1384 H 0.85149 0.12114 0.66041 0.0
H1385 H 0.83922 0.08324 0.65443 0.0
C1386 C 0.49798 0.38436 0.71702 0.0
C1387 C 0.49023 0.39778 0.72125 0.0
C1388 C 0.4849 0.36283 0.71117 0.0
C1389 C 0.43146 0.32083 0.71296 0.0
H1390 H 0.44481 0.28909 0.67435 0.0
C1391 C 0.37322 0.23682 0.67908 0.0
C1392 C 0.37905 0.22147 0.68006 0.0
C1393 C 0.38744 0.25825 0.68326 0.0
C1394 C 0.441 0.29778 0.68525 0.0
H1395 H 0.46298 0.39954 0.72212 0.0
H1396 H 0.44016 0.36224 0.71119 0.0
H1397 H 0.46825 0.32693 0.6828 0.0
H1398 H 0.40457 0.21671 0.68557 0.0
H1399 H 0.42955 0.25441 0.69261 0.0
H1400 H 0.40402 0.29178 0.71503 0.0
C1401 C 0.45624 0.36805 0.71294 0.0
C1402 C 0.45442 0.31942 0.69016 0.0
C1403 C 0.46929 0.38947 0.71903 0.0
C1404 C 0.39958 0.22813 0.68472 0.0
C1405 C 0.41389 0.24968 0.68868 0.0
C1406 C 0.41799 0.29933 0.70787 0.0
C1407 C 0.46383 0.35434 0.70926 0.0
C1408 C 0.44976 0.33126 0.70402 0.0
C1409 C 0.40786 0.26489 0.68832 0.0
C1410 C 0.42256 0.2876 0.69391 0.0
H1411 H 0.51409 0.39033 0.71875 0.0
H1412 H 0.49131 0.35276 0.70871 0.0
H1413 H 0.42756 0.32923 0.72409 0.0
H1414 H 0.35756 0.2323 0.67555 0.0
H1415 H 0.38243 0.26967 0.68266 0.0
C1416 C 0.62846 0.13817 0.75328 0.0
C1417 C 0.62758 0.13902 0.77438 0.0
C1418 C 0.64665 0.14362 0.74518 0.0
C1419 C 0.69605 0.14818 0.75797 0.0
H1420 H 0.71025 0.17844 0.70983 0.0
C1421 C 0.77221 0.17521 0.72489 0.0
C1422 C 0.77122 0.17117 0.70381 0.0
C1423 C 0.75523 0.17263 0.73395 0.0
C1424 C 0.7064 0.16987 0.7232 0.0
H1425 H 0.64489 0.14649 0.80355 0.0
H1426 H 0.67685 0.15637 0.78943 0.0
H1427 H 0.67969 0.17191 0.72511 0.0
H1428 H 0.75199 0.16151 0.67558 0.0
H1429 H 0.72222 0.15694 0.69142 0.0
H1430 H 0.72275 0.14611 0.75601 0.0
C1431 C 0.66345 0.1512 0.77914 0.0
C1432 C 0.68891 0.16611 0.73194 0.0
C1433 C 0.64522 0.14567 0.78723 0.0
C1434 C 0.7531 0.16474 0.69188 0.0
C1435 C 0.73613 0.16225 0.70092 0.0
C1436 C 0.71358 0.15203 0.74927 0.0
C1437 C 0.66433 0.15009 0.75801 0.0
C1438 C 0.68344 0.15505 0.74932 0.0
C1439 C 0.73701 0.16606 0.72206 0.0
C1440 C 0.71883 0.16274 0.73171 0.0
H1441 H 0.61508 0.133 0.74296 0.0
H1442 H 0.64674 0.14228 0.72885 0.0
H1443 H 0.69211 0.13933 0.77115 0.0
H1444 H 0.78606 0.18023 0.7344 0.0
H1445 H 0.75639 0.17588 0.75025 0.0
C1446 C 0.87804 0.5144 0.73976 0.0
C1447 C 0.8914 0.51002 0.72986 0.0
C1448 C 0.87124 0.52705 0.73139 0.0
C1449 C 0.88515 0.57008 0.70007 0.0
H1450 H 0.82785 0.55073 0.69368 0.0
C1451 C 0.85549 0.62265 0.669 0.0
C1452 C 0.8391 0.6221 0.67796 0.0
C1453 C 0.86133 0.60783 0.67301 0.0
C1454 C 0.84392 0.55653 0.69559 0.0
H1455 H 0.90848 0.51563 0.70365 0.0
H1456 H 0.89696 0.53835 0.68924 0.0
H1457 H 0.83931 0.52724 0.70553 0.0
H1458 H 0.81596 0.6056 0.69814 0.0
H1459 H 0.82655 0.5804 0.70575 0.0
H1460 H 0.88998 0.59971 0.69117 0.0
C1461 C 0.89156 0.53171 0.70333 0.0
C1462 C 0.85044 0.54299 0.70224 0.0
C1463 C 0.89807 0.51868 0.71152 0.0
C1464 C 0.82855 0.60633 0.69084 0.0
C1465 C 0.83457 0.59176 0.6951 0.0
C1466 C 0.87867 0.58379 0.69374 0.0
C1467 C 0.878 0.53588 0.71315 0.0
C1468 C 0.8711 0.54972 0.70474 0.0
C1469 C 0.8511 0.59233 0.68632 0.0
C1470 C 0.85797 0.57728 0.69165 0.0
H1471 H 0.87274 0.50792 0.75395 0.0
H1472 H 0.86094 0.53022 0.73934 0.0
H1473 H 0.90119 0.57567 0.70204 0.0
H1474 H 0.86381 0.63453 0.65887 0.0
H1475 H 0.87389 0.60857 0.66567 0.0
C1476 C 0.4468 0.95035 0.20179 0.0
C1477 C 0.46095 0.95517 0.21846 0.0
C1478 C 0.45174 0.96326 0.18594 0.0
C1479 C 0.49579 0.00199 0.16177 0.0
H1480 H 0.4538 0.00428 0.1286 0.0
C1481 C 0.50631 0.035 0.08267 0.0
C1482 C 0.49465 0.01778 0.06806 0.0
C1483 C 0.50277 0.03307 0.10315 0.0
C1484 C 0.46575 0.00411 0.13794 0.0
H1485 H 0.49119 0.97756 0.23195 0.0
H1486 H 0.4998 0.00056 0.20433 0.0
H1487 H 0.44695 0.99076 0.16182 0.0
H1488 H 0.47004 0.98536 0.06329 0.0
H1489 H 0.4631 0.98244 0.09868 0.0
H1490 H 0.5144 0.01508 0.13752 0.0
C1491 C 0.48497 0.98655 0.20334 0.0
C1492 C 0.46181 0.99615 0.15683 0.0
C1493 C 0.48007 0.97343 0.21916 0.0
C1494 C 0.47889 0.99903 0.07409 0.0
C1495 C 0.47499 0.99733 0.09436 0.0
C1496 C 0.49983 0.01033 0.14301 0.0
C1497 C 0.47091 0.98149 0.18641 0.0
C1498 C 0.47647 0.99404 0.16855 0.0
C1499 C 0.48715 0.01413 0.10909 0.0
C1500 C 0.48457 0.01063 0.13065 0.0
H1501 H 0.43207 0.93618 0.2007 0.0
H1502 H 0.44069 0.95845 0.17296 0.0
H1503 H 0.50741 0.0005 0.17024 0.0
H1504 H 0.51868 0.04957 0.07841 0.0
H1505 H 0.51241 0.04614 0.11437 0.0
C1506 C 0.07955 0.54496 0.21287 0.0
C1507 C 0.07521 0.52859 0.22536 0.0
C1508 C 0.07065 0.54052 0.19295 0.0
C1509 C 0.0285 0.49799 0.15788 0.0
H1510 H 0.05888 0.53406 0.11716 0.0
C1511 C 0.00261 0.48162 0.07138 0.0
C1512 C 0.00143 0.49834 0.06335 0.0
C1513 C 0.01202 0.48443 0.09089 0.0
C1514 C 0.05028 0.52388 0.12841 0.0
H1515 H 0.05773 0.49459 0.22654 0.0
H1516 H 0.04317 0.48677 0.19153 0.0
H1517 H 0.07459 0.54033 0.1517 0.0
H1518 H 0.00948 0.53113 0.06893 0.0
H1519 H 0.02645 0.5362 0.10282 0.0
H1520 H 0.0044 0.48125 0.13416 0.0
C1521 C 0.05307 0.50314 0.19728 0.0
C1522 C 0.05916 0.52754 0.14826 0.0
C1523 C 0.06171 0.50762 0.21733 0.0
C1524 C 0.01012 0.51798 0.07488 0.0
C1525 C 0.01989 0.52091 0.09416 0.0
C1526 C 0.01977 0.49409 0.1379 0.0
C1527 C 0.05744 0.51954 0.18479 0.0
C1528 C 0.04829 0.51488 0.16337 0.0
C1529 C 0.02076 0.50412 0.10239 0.0
C1530 C 0.0305 0.5072 0.12311 0.0
H1531 H 0.0901 0.56129 0.21831 0.0
H1532 H 0.07411 0.55364 0.18402 0.0
H1533 H 0.0195 0.48808 0.16908 0.0
H1534 H 0.99595 0.46632 0.06274 0.0
H1535 H 0.0126 0.47129 0.09695 0.0
C1536 C 0.46354 0.53936 0.20427 0.0
C1537 C 0.47613 0.54075 0.22118 0.0
C1538 C 0.46783 0.53604 0.18468 0.0
C1539 C 0.49086 0.54489 0.14666 0.0
H1540 H 0.50034 0.4989 0.13159 0.0
C1541 C 0.52701 0.53925 0.07421 0.0
C1542 C 0.51641 0.51996 0.06204 0.0
C1543 C 0.52129 0.54125 0.09345 0.0
C1544 C 0.49764 0.51174 0.13562 0.0
H1545 H 0.50276 0.53931 0.23103 0.0
H1546 H 0.51004 0.53299 0.19662 0.0
H1547 H 0.49184 0.5032 0.16598 0.0
H1548 H 0.49183 0.48755 0.06033 0.0
H1549 H 0.48203 0.49093 0.09431 0.0
H1550 H 0.49711 0.55374 0.11648 0.0
C1551 C 0.49696 0.53463 0.1986 0.0
C1552 C 0.49292 0.51427 0.15525 0.0
C1553 C 0.49287 0.53834 0.2182 0.0
C1554 C 0.50011 0.50262 0.06943 0.0
C1555 C 0.49461 0.50451 0.08884 0.0
C1556 C 0.49594 0.5426 0.12717 0.0
C1557 C 0.48459 0.53369 0.18168 0.0
C1558 C 0.48945 0.53084 0.16091 0.0
C1559 C 0.50512 0.52387 0.10097 0.0
C1560 C 0.49936 0.526 0.12148 0.0
H1561 H 0.45063 0.54133 0.2062 0.0
H1562 H 0.45803 0.53528 0.17186 0.0
H1563 H 0.48837 0.55786 0.15072 0.0
H1564 H 0.5396 0.55284 0.06878 0.0
H1565 H 0.52968 0.55629 0.10259 0.0
C1566 C 0.93106 0.47826 0.80057 0.0
C1567 C 0.93725 0.46887 0.78561 0.0
C1568 C 0.93841 0.48098 0.82092 0.0
C1569 C 0.95279 0.45631 0.85737 0.0
H1570 H 0.98477 0.51062 0.88893 0.0
C1571 C 0.9876 0.4622 0.93806 0.0
C1572 C 0.98963 0.47803 0.95245 0.0
C1573 C 0.98159 0.46189 0.91774 0.0
C1574 C 0.97553 0.49528 0.88051 0.0
H1575 H 0.95687 0.45595 0.7805 0.0
H1576 H 0.96876 0.45972 0.81619 0.0
H1577 H 0.97354 0.50912 0.85336 0.0
H1578 H 0.98776 0.50645 0.95683 0.0
H1579 H 0.97574 0.5051 0.92171 0.0
H1580 H 0.95376 0.44221 0.88437 0.0
C1581 C 0.95831 0.46504 0.81195 0.0
C1582 C 0.96928 0.4945 0.86011 0.0
C1583 C 0.95134 0.46275 0.79156 0.0
C1584 C 0.98571 0.49368 0.94615 0.0
C1585 C 0.97922 0.49312 0.92589 0.0
C1586 C 0.9586 0.45703 0.87784 0.0
C1587 C 0.95176 0.474 0.82676 0.0
C1588 C 0.95807 0.47502 0.84838 0.0
C1589 C 0.97708 0.47721 0.91136 0.0
C1590 C 0.97028 0.47653 0.88968 0.0
H1591 H 0.92001 0.48288 0.79672 0.0
H1592 H 0.9331 0.48781 0.8322 0.0
H1593 H 0.94391 0.4411 0.84859 0.0
H1594 H 0.99081 0.45008 0.94247 0.0
H1595 H 0.98072 0.44972 0.90704 0.0
C1596 C 0.53255 0.4565 0.80613 0.0
C1597 C 0.54404 0.47358 0.79486 0.0
C1598 C 0.52806 0.45995 0.8256 0.0
C1599 C 0.52693 0.50105 0.86022 0.0
H1600 H 0.52223 0.46296 0.90067 0.0
C1601 C 0.51817 0.51534 0.94505 0.0
C1602 C 0.50158 0.49835 0.95248 0.0
C1603 C 0.52416 0.51281 0.92606 0.0
C1604 C 0.52347 0.47367 0.88948 0.0
H1605 H 0.55978 0.5078 0.79544 0.0
H1606 H 0.55296 0.51385 0.82972 0.0
H1607 H 0.53172 0.45791 0.86723 0.0
H1608 H 0.47842 0.46539 0.94631 0.0
H1609 H 0.48917 0.46082 0.91324 0.0
H1610 H 0.5192 0.51709 0.88288 0.0
C1611 C 0.54691 0.4977 0.82332 0.0
C1612 C 0.52876 0.47073 0.87026 0.0
C1613 C 0.55112 0.49423 0.80371 0.0
C1614 C 0.4912 0.47874 0.94081 0.0
C1615 C 0.49741 0.4761 0.92201 0.0
C1616 C 0.52199 0.50419 0.87957 0.0
C1617 C 0.53522 0.4806 0.83451 0.0
C1618 C 0.53035 0.48423 0.85527 0.0
C1619 C 0.51386 0.49314 0.91443 0.0
C1620 C 0.52001 0.4904 0.89427 0.0
H1621 H 0.5271 0.44038 0.80001 0.0
H1622 H 0.51875 0.44633 0.83354 0.0
H1623 H 0.52763 0.51156 0.84905 0.0
H1624 H 0.52633 0.53063 0.95378 0.0
H1625 H 0.53693 0.52614 0.92054 0.0
C1626 C 0.52662 0.08193 0.82914 0.0
C1627 C 0.54086 0.08149 0.81696 0.0
C1628 C 0.52087 0.07007 0.84572 0.0
C1629 C 0.53655 0.04816 0.88463 0.0
H1630 H 0.47923 0.0095 0.88638 0.0
C1631 C 0.50443 4e-05 0.95327 0.0
C1632 C 0.48651 0.99847 0.95919 0.0
C1633 C 0.51166 0.00822 0.93502 0.0
C1634 C 0.49527 0.02036 0.88624 0.0
H1635 H 0.56069 0.06862 0.81318 0.0
H1636 H 0.55109 0.04845 0.84293 0.0
H1637 H 0.49134 0.02799 0.85626 0.0
H1638 H 0.46206 0.00417 0.95102 0.0
H1639 H 0.4748 0.01893 0.9195 0.0
H1640 H 0.54045 0.04148 0.91502 0.0
C1641 C 0.54426 0.05783 0.8392 0.0
C1642 C 0.50217 0.03078 0.86893 0.0
C1643 C 0.54979 0.06945 0.82229 0.0
C1644 C 0.47583 0.00505 0.94663 0.0
C1645 C 0.48311 0.01339 0.92853 0.0
C1646 C 0.52961 0.03795 0.90213 0.0
C1647 C 0.52952 0.05783 0.8508 0.0
C1648 C 0.52279 0.04504 0.86815 0.0
C1649 C 0.50108 0.01503 0.92245 0.0
C1650 C 0.50882 0.02428 0.90327 0.0
H1651 H 0.51988 0.0915 0.82591 0.0
H1652 H 0.50971 0.07056 0.85471 0.0
H1653 H 0.55253 0.05922 0.88432 0.0
H1654 H 0.5128 0.99486 0.96271 0.0
H1655 H 0.52543 0.00906 0.93071 0.0
C1656 C 0.12118 0.25234 0.5253 0.0
C1657 C 0.11329 0.25966 0.54027 0.0
C1658 C 0.12547 0.26139 0.50696 0.0
C1659 C 0.13464 0.30962 0.48313 0.0
H1660 H 0.13017 0.27563 0.43408 0.0
C1661 C 0.14884 0.33951 0.40277 0.0
C1662 C 0.16399 0.33713 0.39423 0.0
C1663 C 0.14097 0.32989 0.42028 0.0
C1664 C 0.13142 0.28524 0.44769 0.0
H1665 H 0.10344 0.28214 0.54748 0.0
H1666 H 0.10993 0.29717 0.51506 0.0
H1667 H 0.11845 0.25864 0.46505 0.0
H1668 H 0.18271 0.32282 0.39682 0.0
H1669 H 0.16858 0.30554 0.42721 0.0
H1670 H 0.14727 0.33614 0.46537 0.0
C1671 C 0.11335 0.2848 0.51772 0.0
C1672 C 0.12487 0.27559 0.46547 0.0
C1673 C 0.10935 0.27596 0.53624 0.0
C1674 C 0.17114 0.32499 0.4033 0.0
C1675 C 0.16298 0.31501 0.42051 0.0
C1676 C 0.14083 0.31919 0.46521 0.0
C1677 C 0.12162 0.27774 0.50291 0.0
C1678 C 0.12682 0.28773 0.48355 0.0
C1679 C 0.14789 0.31744 0.42914 0.0
C1680 C 0.13963 0.30711 0.44751 0.0
H1681 H 0.12406 0.23955 0.52768 0.0
H1682 H 0.13214 0.25574 0.49611 0.0
H1683 H 0.13666 0.31954 0.49677 0.0
H1684 H 0.14314 0.34883 0.39593 0.0
H1685 H 0.12929 0.33189 0.42672 0.0
C1686 C 0.72036 0.84296 0.55805 0.0
C1687 C 0.7378 0.86221 0.56491 0.0
C1688 C 0.71193 0.8393 0.53799 0.0
C1689 C 0.7024 0.83041 0.49247 0.0
H1690 H 0.70653 0.87746 0.46489 0.0
C1691 C 0.67722 0.82139 0.40685 0.0
C1692 C 0.66922 0.83377 0.40021 0.0
C1693 C 0.68564 0.82456 0.42688 0.0
C1694 C 0.70494 0.86403 0.47238 0.0
H1695 H 0.76046 0.89251 0.55628 0.0
H1696 H 0.74638 0.8859 0.52106 0.0
H1697 H 0.72017 0.88342 0.49993 0.0
H1698 H 0.66293 0.85855 0.40939 0.0
H1699 H 0.67655 0.86336 0.44444 0.0
H1700 H 0.68612 0.81083 0.46521 0.0
C1701 C 0.73865 0.87386 0.53121 0.0
C1702 C 0.71316 0.86754 0.49247 0.0
C1703 C 0.74683 0.87765 0.55137 0.0
C1704 C 0.66921 0.84892 0.41405 0.0
C1705 C 0.67723 0.85182 0.43413 0.0
C1706 C 0.69385 0.82683 0.47245 0.0
C1707 C 0.721 0.85467 0.52425 0.0
C1708 C 0.71208 0.85081 0.50281 0.0
C1709 C 0.68583 0.8399 0.4408 0.0
C1710 C 0.69501 0.8436 0.46211 0.0
H1711 H 0.71309 0.83088 0.56831 0.0
H1712 H 0.69814 0.82452 0.53338 0.0
H1713 H 0.70152 0.81715 0.49974 0.0
H1714 H 0.67706 0.80935 0.39659 0.0
H1715 H 0.69226 0.81518 0.43131 0.0
C1716 C 0.16538 0.87593 0.55641 0.0
C1717 C 0.14759 0.87647 0.55876 0.0
C1718 C 0.1705 0.87306 0.53706 0.0
C1719 C 0.14897 0.85622 0.48301 0.0
H1720 H 0.20538 0.88611 0.47286 0.0
C1721 C 0.17469 0.84366 0.40606 0.0
C1722 C 0.19088 0.86117 0.3988 0.0
C1723 C 0.16951 0.84502 0.42571 0.0
C1724 C 0.18953 0.87784 0.47533 0.0
H1725 H 0.12133 0.87478 0.54288 0.0
H1726 H 0.1305 0.87053 0.50913 0.0
H1727 H 0.19605 0.88963 0.50662 0.0
H1728 H 0.21429 0.89385 0.40606 0.0
H1729 H 0.20488 0.89658 0.44016 0.0
H1730 H 0.14235 0.84535 0.45149 0.0
C1731 C 0.14024 0.87157 0.52212 0.0
C1732 C 0.18419 0.87956 0.49484 0.0
C1733 C 0.135 0.8741 0.54146 0.0
C1734 C 0.2018 0.8801 0.41142 0.0
C1735 C 0.19647 0.88158 0.43099 0.0
C1736 C 0.15429 0.85475 0.46344 0.0
C1737 C 0.15808 0.87104 0.51963 0.0
C1738 C 0.16383 0.86879 0.49895 0.0
C1739 C 0.18029 0.86402 0.43843 0.0
C1740 C 0.17464 0.86554 0.45933 0.0
H1741 H 0.17527 0.8776 0.56956 0.0
H1742 H 0.18415 0.87234 0.53579 0.0
H1743 H 0.13316 0.84742 0.4856 0.0
H1744 H 0.16619 0.82881 0.39664 0.0
H1745 H 0.15723 0.83105 0.43098 0.0
C1746 C 0.60045 0.80937 0.13797 0.0
C1747 C 0.60459 0.79794 0.1231 0.0
C1748 C 0.60921 0.81324 0.15792 0.0
C1749 C 0.62446 0.78921 0.19466 0.0
H1750 H 0.6579 0.84464 0.22384 0.0
C1751 C 0.66138 0.79805 0.27496 0.0
C1752 C 0.66366 0.81435 0.28887 0.0
C1753 C 0.65516 0.79713 0.25458 0.0
C1754 C 0.6483 0.82902 0.21608 0.0
H1755 H 0.62216 0.78267 0.11756 0.0
H1756 H 0.63655 0.78855 0.15265 0.0
H1757 H 0.64527 0.84162 0.18845 0.0
H1758 H 0.66235 0.84315 0.29228 0.0
H1759 H 0.6499 0.84074 0.25707 0.0
H1760 H 0.62641 0.77636 0.22218 0.0
C1761 C 0.62658 0.79453 0.14866 0.0
C1762 C 0.64124 0.82736 0.19577 0.0
C1763 C 0.61818 0.79105 0.12863 0.0
C1764 C 0.65997 0.82997 0.282 0.0
C1765 C 0.65327 0.82881 0.26167 0.0
C1766 C 0.6311 0.79082 0.21503 0.0
C1767 C 0.62197 0.80543 0.16347 0.0
C1768 C 0.62944 0.80744 0.18491 0.0
C1769 C 0.6507 0.81231 0.24767 0.0
C1770 C 0.64329 0.81074 0.22601 0.0
H1771 H 0.58984 0.81466 0.13445 0.0
H1772 H 0.60537 0.82157 0.1692 0.0
H1773 H 0.61511 0.77368 0.18658 0.0
H1774 H 0.66443 0.78596 0.27981 0.0
H1775 H 0.65399 0.78454 0.24425 0.0
C1776 C 0.1966 0.78669 0.14218 0.0
C1777 C 0.2084 0.80318 0.13042 0.0
C1778 C 0.19281 0.79109 0.16168 0.0
C1779 C 0.19465 0.83423 0.19579 0.0
H1780 H 0.19071 0.79741 0.2373 0.0
C1781 C 0.19015 0.85273 0.28088 0.0
C1782 C 0.17392 0.83635 0.28936 0.0
C1783 C 0.19517 0.84913 0.26169 0.0
C1784 C 0.19174 0.80778 0.22581 0.0
H1785 H 0.22521 0.8373 0.13003 0.0
H1786 H 0.21952 0.84495 0.16432 0.0
H1787 H 0.19811 0.79042 0.20341 0.0
H1788 H 0.15038 0.80341 0.28486 0.0
H1789 H 0.15938 0.79701 0.25145 0.0
H1790 H 0.18875 0.85183 0.21856 0.0
C1791 C 0.21277 0.82858 0.15832 0.0
C1792 C 0.19583 0.80372 0.20635 0.0
C1793 C 0.21631 0.82418 0.13871 0.0
C1794 C 0.16293 0.8163 0.27855 0.0
C1795 C 0.16814 0.81261 0.25955 0.0
C1796 C 0.19088 0.83846 0.21536 0.0
C1797 C 0.20096 0.81209 0.17009 0.0
C1798 C 0.19714 0.81677 0.191 0.0
C1799 C 0.1842 0.82902 0.25089 0.0
C1800 C 0.18921 0.82516 0.23047 0.0
H1801 H 0.19046 0.77033 0.13645 0.0
H1802 H 0.18336 0.77795 0.17009 0.0
H1803 H 0.19519 0.84442 0.18434 0.0
H1804 H 0.19877 0.86835 0.28894 0.0
H1805 H 0.20768 0.862 0.25534 0.0
C1806 C 0.21202 0.41123 0.15152 0.0
C1807 C 0.19766 0.40029 0.13482 0.0
C1808 C 0.20838 0.4037 0.17064 0.0
C1809 C 0.1803 0.35636 0.19654 0.0
H1810 H 0.18077 0.39376 0.24055 0.0
C1811 C 0.16793 0.33499 0.27955 0.0
C1812 C 0.15223 0.33703 0.28719 0.0
C1813 C 0.17524 0.34313 0.26133 0.0
C1814 C 0.18073 0.38324 0.2284 0.0
H1815 H 0.16865 0.37276 0.12464 0.0
H1816 H 0.16246 0.35929 0.15805 0.0
H1817 H 0.1909 0.40708 0.20757 0.0
H1818 H 0.13201 0.34928 0.28223 0.0
H1819 H 0.14508 0.36389 0.25049 0.0
H1820 H 0.17005 0.3325 0.21736 0.0
C1821 C 0.17641 0.37373 0.15637 0.0
C1822 C 0.1866 0.39085 0.20965 0.0
C1823 C 0.17987 0.38146 0.13737 0.0
C1824 C 0.14405 0.34743 0.27651 0.0
C1825 C 0.15161 0.35591 0.25851 0.0
C1826 C 0.1748 0.34886 0.21541 0.0
C1827 C 0.19052 0.38491 0.17319 0.0
C1828 C 0.1861 0.37737 0.19348 0.0
C1829 C 0.16719 0.35374 0.25074 0.0
C1830 C 0.17463 0.36215 0.23136 0.0
H1831 H 0.22581 0.42584 0.14985 0.0
H1832 H 0.21946 0.41254 0.18343 0.0
H1833 H 0.17987 0.34572 0.18426 0.0
H1834 H 0.17437 0.32693 0.28756 0.0
H1835 H 0.18729 0.34133 0.25559 0.0
C1836 C 0.77373 0.60753 0.86344 0.0
C1837 C 0.78793 0.61574 0.8805 0.0
C1838 C 0.77805 0.61764 0.84564 0.0
C1839 C 0.8215 0.6558 0.81965 0.0
H1840 H 0.77883 0.65155 0.78202 0.0
C1841 C 0.83616 0.6924 0.74297 0.0
C1842 C 0.82569 0.67711 0.72647 0.0
C1843 C 0.83099 0.68763 0.76266 0.0
C1844 C 0.79087 0.65293 0.79248 0.0
H1845 H 0.81738 0.64121 0.89282 0.0
H1846 H 0.82469 0.65951 0.86201 0.0
H1847 H 0.77105 0.63884 0.81545 0.0
H1848 H 0.80137 0.64512 0.71741 0.0
H1849 H 0.79186 0.63708 0.75173 0.0
H1850 H 0.84129 0.67015 0.7966 0.0
C1851 C 0.81048 0.6449 0.86203 0.0
C1852 C 0.78644 0.64551 0.81156 0.0
C1853 C 0.80629 0.63454 0.87972 0.0
C1854 C 0.80952 0.65727 0.72984 0.0
C1855 C 0.80408 0.65267 0.74945 0.0
C1856 C 0.82597 0.66359 0.80074 0.0
C1857 C 0.79654 0.63641 0.84464 0.0
C1858 C 0.8016 0.64637 0.82522 0.0
C1859 C 0.81501 0.66767 0.76604 0.0
C1860 C 0.81062 0.6618 0.78686 0.0
H1861 H 0.75955 0.59291 0.86368 0.0
H1862 H 0.7671 0.61032 0.83251 0.0
H1863 H 0.83354 0.65645 0.82953 0.0
H1864 H 0.84871 0.7078 0.74075 0.0
H1865 H 0.8396 0.69942 0.77528 0.0
C1866 C 0.41583 0.20792 0.88267 0.0
C1867 C 0.41078 0.19081 0.89435 0.0
C1868 C 0.40839 0.20451 0.8623 0.0
C1869 C 0.36832 0.16354 0.82453 0.0
H1870 H 0.4005 0.20235 0.78643 0.0
C1871 C 0.34484 0.15137 0.73799 0.0
C1872 C 0.34452 0.1687 0.73036 0.0
C1873 C 0.35381 0.15334 0.75753 0.0
C1874 C 0.39138 0.19141 0.79694 0.0
H1875 H 0.39385 0.15657 0.8935 0.0
H1876 H 0.38181 0.1506 0.85778 0.0
H1877 H 0.41466 0.20681 0.82138 0.0
H1878 H 0.35367 0.20172 0.73671 0.0
H1879 H 0.36976 0.2053 0.77073 0.0
H1880 H 0.34524 0.14794 0.79976 0.0
C1881 C 0.3911 0.16674 0.8645 0.0
C1882 C 0.3994 0.19402 0.81702 0.0
C1883 C 0.39829 0.17016 0.88498 0.0
C1884 C 0.35367 0.18812 0.74233 0.0
C1885 C 0.36295 0.19019 0.76169 0.0
C1886 C 0.36046 0.16073 0.80436 0.0
C1887 C 0.39596 0.18387 0.85289 0.0
C1888 C 0.38786 0.18032 0.83119 0.0
C1889 C 0.36291 0.17277 0.76954 0.0
C1890 C 0.37182 0.17482 0.79048 0.0
H1891 H 0.42569 0.22404 0.88919 0.0
H1892 H 0.41223 0.21815 0.85403 0.0
H1893 H 0.35882 0.15287 0.835 0.0
H1894 H 0.3378 0.13621 0.72903 0.0
H1895 H 0.35367 0.13971 0.76326 0.0
C1896 C 0.79716 0.19075 0.87607 0.0
C1897 C 0.81217 0.20076 0.89252 0.0
C1898 C 0.80225 0.18777 0.85676 0.0
C1899 C 0.84146 0.21216 0.82421 0.0
H1900 H 0.81818 0.15764 0.79294 0.0
C1901 C 0.86652 0.20483 0.74551 0.0
C1902 C 0.85207 0.18966 0.73067 0.0
C1903 C 0.86206 0.20517 0.76561 0.0
C1904 C 0.82459 0.17305 0.80128 0.0
H1905 H 0.84426 0.21461 0.90147 0.0
H1906 H 0.85312 0.21032 0.86746 0.0
H1907 H 0.80917 0.15972 0.82739 0.0
H1908 H 0.82197 0.16235 0.72525 0.0
H1909 H 0.81353 0.16385 0.75989 0.0
H1910 H 0.85604 0.22581 0.79807 0.0
C1911 C 0.83744 0.20472 0.86974 0.0
C1912 C 0.81954 0.17416 0.82106 0.0
C1913 C 0.83234 0.2073 0.88915 0.0
C1914 C 0.8332 0.17459 0.73631 0.0
C1915 C 0.82853 0.17523 0.7563 0.0
C1916 C 0.84617 0.21114 0.80431 0.0
C1917 C 0.82246 0.19509 0.8534 0.0
C1918 C 0.82801 0.19371 0.83266 0.0
C1919 C 0.84289 0.19058 0.77126 0.0
C1920 C 0.83787 0.19156 0.79255 0.0
H1921 H 0.78154 0.18583 0.87789 0.0
H1922 H 0.79049 0.18045 0.84427 0.0
H1923 H 0.84795 0.22745 0.83285 0.0
H1924 H 0.88132 0.21645 0.74161 0.0
H1925 H 0.87375 0.21686 0.7767 0.0
C1926 C 0.25155 0.13159 0.4716 0.0
C1927 C 0.26285 0.13058 0.45608 0.0
C1928 C 0.25896 0.13437 0.49192 0.0
C1929 C 0.27332 0.12423 0.53179 0.0
H1930 H 0.32733 0.16928 0.55141 0.0
C1931 C 0.31603 0.12642 0.60733 0.0
C1932 C 0.32476 0.1454 0.61998 0.0
C1933 C 0.30767 0.12521 0.58771 0.0
C1934 C 0.31219 0.15671 0.54612 0.0
H1935 H 0.29086 0.13216 0.44946 0.0
H1936 H 0.30408 0.13752 0.48512 0.0
H1937 H 0.31457 0.1664 0.51598 0.0
H1938 H 0.33171 0.17798 0.62224 0.0
H1939 H 0.31745 0.17598 0.58763 0.0
H1940 H 0.27114 0.11418 0.56177 0.0
C1941 C 0.28945 0.13601 0.48152 0.0
C1942 C 0.30496 0.155 0.52589 0.0
C1943 C 0.28187 0.13284 0.46119 0.0
C1944 C 0.32498 0.16315 0.61276 0.0
C1945 C 0.31694 0.16205 0.59299 0.0
C1946 C 0.28068 0.12571 0.55191 0.0
C1947 C 0.27794 0.13655 0.49705 0.0
C1948 C 0.28547 0.13873 0.51856 0.0
C1949 C 0.30824 0.14306 0.58031 0.0
C1950 C 0.30019 0.14194 0.55923 0.0
H1951 H 0.23677 0.12972 0.46802 0.0
H1952 H 0.24987 0.13482 0.50365 0.0
H1953 H 0.25828 0.11148 0.52644 0.0
H1954 H 0.31566 0.11252 0.61261 0.0
H1955 H 0.30115 0.11044 0.57816 0.0
C1956 C 0.86592 0.12328 0.47714 0.0
C1957 C 0.87854 0.13976 0.46578 0.0
C1958 C 0.86083 0.12765 0.49596 0.0
C1959 C 0.86077 0.17072 0.52849 0.0
H1960 H 0.85337 0.13324 0.57039 0.0
C1961 C 0.85188 0.18803 0.61272 0.0
C1962 C 0.8348 0.17177 0.62028 0.0
C1963 C 0.85761 0.18471 0.59385 0.0
C1964 C 0.85534 0.14378 0.55878 0.0
H1965 H 0.8955 0.17389 0.46542 0.0
H1966 H 0.88761 0.18151 0.49869 0.0
H1967 H 0.86314 0.12661 0.53768 0.0
H1968 H 0.81038 0.13932 0.61436 0.0
H1969 H 0.82068 0.13334 0.58152 0.0
H1970 H 0.85356 0.18822 0.5501 0.0
C1971 C 0.88117 0.16514 0.49282 0.0
C1972 C 0.8608 0.13993 0.53996 0.0
C1973 C 0.88599 0.16076 0.47382 0.0
C1974 C 0.82356 0.15213 0.60877 0.0
C1975 C 0.8295 0.14867 0.5901 0.0
C1976 C 0.85567 0.17477 0.54747 0.0
C1977 C 0.86852 0.14864 0.50417 0.0
C1978 C 0.86337 0.15321 0.52446 0.0
C1979 C 0.84654 0.16494 0.58247 0.0
C1980 C 0.85271 0.1612 0.56267 0.0
H1981 H 0.86012 0.10691 0.47166 0.0
H1982 H 0.85075 0.11448 0.504 0.0
H1983 H 0.86228 0.18112 0.5169 0.0
H1984 H 0.86069 0.20335 0.62133 0.0
H1985 H 0.87085 0.19745 0.58828 0.0
C1986 C 0.8817 0.73978 0.48393 0.0
C1987 C 0.86966 0.7314 0.4654 0.0
C1988 C 0.87646 0.72829 0.50085 0.0
C1989 C 0.83229 0.68482 0.52132 0.0
H1990 H 0.8731 0.69288 0.56366 0.0
C1991 C 0.81396 0.64777 0.59816 0.0
C1992 C 0.82236 0.6634 0.61465 0.0
C1993 C 0.8202 0.65283 0.57879 0.0
C1994 C 0.86157 0.69036 0.55186 0.0
H1995 H 0.84319 0.7042 0.44969 0.0
H1996 H 0.8343 0.6837 0.4791 0.0
H1997 H 0.88332 0.70711 0.53121 0.0
H1998 H 0.84359 0.69651 0.62386 0.0
H1999 H 0.8551 0.70506 0.59034 0.0
H2000 H 0.8106 0.66803 0.54218 0.0
C2001 C 0.84749 0.69939 0.48077 0.0
C2002 C 0.86739 0.69864 0.53334 0.0
C2003 C 0.8526 0.71105 0.46391 0.0
C2004 C 0.83725 0.68402 0.61155 0.0
C2005 C 0.84379 0.68894 0.59237 0.0
C2006 C 0.82647 0.67622 0.53973 0.0
C2007 C 0.85919 0.708 0.49956 0.0
C2008 C 0.85287 0.69658 0.51806 0.0
C2009 C 0.83518 0.67346 0.5758 0.0
C2010 C 0.84111 0.67947 0.55533 0.0
H2011 H 0.8948 0.75555 0.48553 0.0
H2012 H 0.88561 0.73569 0.5151 0.0
H2013 H 0.82067 0.6831 0.51007 0.0
H2014 H 0.80236 0.63178 0.60015 0.0
H2015 H 0.81331 0.64069 0.56616 0.0
loop_
_geom_bond_atom_site_label_1
_geom_bond_atom_site_label_2
_geom_bond_distance
_geom_bond_site_symmetry_2
_ccdc_geom_bond_type
H0 C5 0.930 . S
H1 C8 0.930 . S
H2 C10 0.930 . S
H3 C4 1.016 . S
C4 H3 1.016 . S
C4 N11 1.286 . S
C5 H0 0.930 . S
C5 C6 1.397 . S
C5 C7 1.361 . S
C6 C5 1.397 . S
C6 C10 1.390 . S
C7 C5 1.361 . S
C7 C8 1.393 . S
C7 N11 1.413 . S
C8 H1 0.930 . S
C8 C7 1.393 . S
C8 C9 1.399 . S
C9 C8 1.399 . S
C9 C10 1.381 . S
C10 H2 0.930 . S
C10 C6 1.390 . S
C10 C9 1.381 . S
N11 C4 1.286 . S
N11 C7 1.413 . S
H12 C17 0.930 . S
H13 C20 0.930 . S
H14 C22 0.930 . S
H15 C16 1.016 . S
C16 H15 1.016 . S
C16 N23 1.286 . S
C17 H12 0.930 . S
C17 C18 1.397 . S
C17 C19 1.361 . S
C18 C17 1.397 . S
C18 C22 1.390 . S
C19 C17 1.361 . S
C19 C20 1.393 . S
C19 N23 1.413 . S
C20 H13 0.930 . S
C20 C19 1.393 . S
C20 C21 1.399 . S
C21 C20 1.399 . S
C21 C22 1.381 . S
C22 H14 0.930 . S
C22 C18 1.390 . S
C22 C21 1.381 . S
N23 C16 1.286 . S
N23 C19 1.413 . S
H24 C29 0.930 . S
H25 C32 0.930 . S
H26 C34 0.930 . S
H27 C28 1.016 . S
C28 H27 1.016 . S
C28 N35 1.286 . S
C29 H24 0.930 . S
C29 C30 1.397 . S
C29 C31 1.361 . S
C30 C29 1.397 . S
C30 C34 1.390 . S
C31 C29 1.361 . S
C31 C32 1.393 . S
C31 N35 1.413 . S
C32 H25 0.930 . S
C32 C31 1.393 . S
C32 C33 1.399 . S
C33 C32 1.399 . S
C33 C34 1.381 . S
C34 H26 0.930 . S
C34 C30 1.390 . S
C34 C33 1.381 . S
N35 C28 1.286 . S
N35 C31 1.413 . S
H36 C41 0.930 . S
H37 C44 0.930 . S
H38 C46 0.930 . S
H39 C40 1.016 . S
C40 H39 1.016 . S
C40 N47 1.286 . S
C41 H36 0.930 . S
C41 C42 1.397 . S
C41 C43 1.361 . S
C42 C41 1.397 . S
C42 C46 1.390 . S
C43 C41 1.361 . S
C43 C44 1.393 . S
C43 N47 1.413 . S
C44 H37 0.930 . S
C44 C43 1.393 . S
C44 C45 1.399 . S
C45 C44 1.399 . S
C45 C46 1.381 . S
C46 H38 0.930 . S
C46 C42 1.390 . S
C46 C45 1.381 . S
N47 C40 1.286 . S
N47 C43 1.413 . S
H48 C53 0.930 . S
H49 C56 0.930 . S
H50 C58 0.930 . S
H51 C52 1.016 . S
C52 H51 1.016 . S
C52 N59 1.286 . S
C53 H48 0.930 . S
C53 C54 1.397 . S
C53 C55 1.361 . S
C54 C53 1.397 . S
C54 C58 1.390 . S
C55 C53 1.361 . S
C55 C56 1.393 . S
C55 N59 1.413 . S
C56 H49 0.930 . S
C56 C55 1.393 . S
C56 C57 1.399 . S
C57 C56 1.399 . S
C57 C58 1.381 . S
C58 H50 0.930 . S
C58 C54 1.390 . S
C58 C57 1.381 . S
N59 C52 1.286 . S
N59 C55 1.413 . S
H60 C65 0.930 . S
H61 C68 0.930 . S
H62 C70 0.930 . S
H63 C64 1.016 . S
C64 H63 1.016 . S
C64 N71 1.286 . S
C65 H60 0.930 . S
C65 C66 1.397 . S
C65 C67 1.361 . S
C66 C65 1.397 . S
C66 C70 1.390 . S
C67 C65 1.361 . S
C67 C68 1.393 . S
C67 N71 1.413 . S
C68 H61 0.930 . S
C68 C67 1.393 . S
C68 C69 1.399 . S
C69 C68 1.399 . S
C69 C70 1.381 . S
C70 H62 0.930 . S
C70 C66 1.390 . S
C70 C69 1.381 . S
N71 C64 1.286 . S
N71 C67 1.413 . S
H72 C77 0.930 . S
H73 C80 0.930 . S
H74 C82 0.930 . S
H75 C76 1.016 . S
C76 H75 1.016 . S
C76 N83 1.286 . S
C77 H72 0.930 . S
C77 C78 1.397 . S
C77 C79 1.361 . S
C78 C77 1.397 . S
C78 C82 1.390 . S
C79 C77 1.361 . S
C79 C80 1.393 . S
C79 N83 1.413 . S
C80 H73 0.930 . S
C80 C79 1.393 . S
C80 C81 1.399 . S
C81 C80 1.399 . S
C81 C82 1.381 . S
C82 H74 0.930 . S
C82 C78 1.390 . S
C82 C81 1.381 . S
N83 C76 1.286 . S
N83 C79 1.413 . S
H84 C89 0.930 . S
H85 C92 0.930 . S
H86 C94 0.930 . S
H87 C88 1.016 . S
C88 H87 1.016 . S
C88 N95 1.286 . S
C89 H84 0.930 . S
C89 C90 1.397 . S
C89 C91 1.361 . S
C90 C89 1.397 . S
C90 C94 1.390 . S
C91 C89 1.361 . S
C91 C92 1.393 . S
C91 N95 1.413 . S
C92 H85 0.930 . S
C92 C91 1.393 . S
C92 C93 1.399 . S
C93 C92 1.399 . S
C93 C94 1.381 . S
C94 H86 0.930 . S
C94 C90 1.390 . S
C94 C93 1.381 . S
N95 C88 1.286 . S
N95 C91 1.413 . S
H96 C101 0.930 . S
H97 C104 0.930 . S
H98 C106 0.930 . S
H99 C100 1.016 . S
C100 H99 1.016 . S
C100 N107 1.286 . S
C101 H96 0.930 . S
C101 C102 1.397 . S
C101 C103 1.361 . S
C102 C101 1.397 . S
C102 C106 1.390 . S
C103 C101 1.361 . S
C103 C104 1.393 . S
C103 N107 1.413 . S
C104 H97 0.930 . S
C104 C103 1.393 . S
C104 C105 1.399 . S
C105 C104 1.399 . S
C105 C106 1.381 . S
C106 H98 0.930 . S
C106 C102 1.390 . S
C106 C105 1.381 . S
N107 C100 1.286 . S
N107 C103 1.413 . S
H108 C113 0.930 . S
H109 C116 0.930 . S
H110 C118 0.930 . S
H111 C112 1.016 . S
C112 H111 1.016 . S
C112 N119 1.286 . S
C113 H108 0.930 . S
C113 C114 1.397 . S
C113 C115 1.361 . S
C114 C113 1.397 . S
C114 C118 1.390 . S
C115 C113 1.361 . S
C115 C116 1.393 . S
C115 N119 1.413 . S
C116 H109 0.930 . S
C116 C115 1.393 . S
C116 C117 1.399 . S
C117 C116 1.399 . S
C117 C118 1.381 . S
C118 H110 0.930 . S
C118 C114 1.390 . S
C118 C117 1.381 . S
N119 C112 1.286 . S
N119 C115 1.413 . S
H120 C125 0.930 . S
H121 C128 0.930 . S
H122 C130 0.930 . S
H123 C124 1.016 . S
C124 H123 1.016 . S
C124 N131 1.286 . S
C125 H120 0.930 . S
C125 C126 1.397 . S
C125 C127 1.361 . S
C126 C125 1.397 . S
C126 C130 1.390 . S
C127 C125 1.361 . S
C127 C128 1.393 . S
C127 N131 1.413 . S
C128 H121 0.930 . S
C128 C127 1.393 . S
C128 C129 1.399 . S
C129 C128 1.399 . S
C129 C130 1.381 . S
C130 H122 0.930 . S
C130 C126 1.390 . S
C130 C129 1.381 . S
N131 C124 1.286 . S
N131 C127 1.413 . S
H132 C137 0.930 . S
H133 C140 0.930 . S
H134 C142 0.930 . S
H135 C136 1.016 . S
C136 H135 1.016 . S
C136 N143 1.286 . S
C137 H132 0.930 . S
C137 C138 1.397 . S
C137 C139 1.361 . S
C138 C137 1.397 . S
C138 C142 1.390 . S
C139 C137 1.361 . S
C139 C140 1.393 . S
C139 N143 1.413 . S
C140 H133 0.930 . S
C140 C139 1.393 . S
C140 C141 1.399 . S
C141 C140 1.399 . S
C141 C142 1.381 . S
C142 H134 0.930 . S
C142 C138 1.390 . S
C142 C141 1.381 . S
N143 C136 1.286 . S
N143 C139 1.413 . S
H144 C149 0.930 . S
H145 C152 0.930 . S
H146 C154 0.930 . S
H147 C148 1.016 . S
C148 H147 1.016 . S
C148 N155 1.286 . S
C149 H144 0.930 . S
C149 C150 1.397 . S
C149 C151 1.361 . S
C150 C149 1.397 . S
C150 C154 1.390 . S
C151 C149 1.361 . S
C151 C152 1.393 . S
C151 N155 1.413 . S
C152 H145 0.930 . S
C152 C151 1.393 . S
C152 C153 1.399 . S
C153 C152 1.399 . S
C153 C154 1.381 . S
C154 H146 0.930 . S
C154 C150 1.390 . S
C154 C153 1.381 . S
N155 C148 1.286 . S
N155 C151 1.413 . S
H156 C161 0.930 . S
H157 C164 0.930 . S
H158 C166 0.930 . S
H159 C160 1.016 . S
C160 H159 1.016 . S
C160 N167 1.286 . S
C161 H156 0.930 . S
C161 C162 1.397 . S
C161 C163 1.361 . S
C162 C161 1.397 . S
C162 C166 1.390 . S
C163 C161 1.361 . S
C163 C164 1.393 . S
C163 N167 1.413 . S
C164 H157 0.930 . S
C164 C163 1.393 . S
C164 C165 1.399 . S
C165 C164 1.399 . S
C165 C166 1.381 . S
C166 H158 0.930 . S
C166 C162 1.390 . S
C166 C165 1.381 . S
N167 C160 1.286 . S
N167 C163 1.413 . S
H168 C173 0.930 . S
H169 C176 0.930 . S
H170 C178 0.930 . S
H171 C172 1.016 . S
C172 H171 1.016 . S
C172 N179 1.286 . S
C173 H168 0.930 . S
C173 C174 1.397 . S
C173 C175 1.361 . S
C174 C173 1.397 . S
C174 C178 1.390 . S
C175 C173 1.361 . S
C175 C176 1.393 . S
C175 N179 1.413 . S
C176 H169 0.930 . S
C176 C175 1.393 . S
C176 C177 1.399 . S
C177 C176 1.399 . S
C177 C178 1.381 . S
C178 H170 0.930 . S
C178 C174 1.390 . S
C178 C177 1.381 . S
N179 C172 1.286 . S
N179 C175 1.413 . S
H180 C185 0.930 . S
H181 C188 0.930 . S
H182 C190 0.930 . S
H183 C184 1.016 . S
C184 H183 1.016 . S
C184 N191 1.286 . S
C185 H180 0.930 . S
C185 C186 1.397 . S
C185 C187 1.361 . S
C186 C185 1.397 . S
C186 C190 1.390 . S
C187 C185 1.361 . S
C187 C188 1.393 . S
C187 N191 1.413 . S
C188 H181 0.930 . S
C188 C187 1.393 . S
C188 C189 1.399 . S
C189 C188 1.399 . S
C189 C190 1.381 . S
C190 H182 0.930 . S
C190 C186 1.390 . S
C190 C189 1.381 . S
N191 C184 1.286 . S
N191 C187 1.413 . S
H192 C197 0.930 . S
H193 C200 0.930 . S
H194 C202 0.930 . S
H195 C196 1.016 . S
C196 H195 1.016 . S
C196 N203 1.286 . S
C197 H192 0.930 . S
C197 C198 1.397 . S
C197 C199 1.361 . S
C198 C197 1.397 . S
C198 C202 1.390 . S
C199 C197 1.361 . S
C199 C200 1.393 . S
C199 N203 1.413 . S
C200 H193 0.930 . S
C200 C199 1.393 . S
C200 C201 1.399 . S
C201 C200 1.399 . S
C201 C202 1.381 . S
C202 H194 0.930 . S
C202 C198 1.390 . S
C202 C201 1.381 . S
N203 C196 1.286 . S
N203 C199 1.413 . S
H204 C209 0.930 . S
H205 C212 0.930 . S
H206 C214 0.930 . S
H207 C208 1.016 . S
C208 H207 1.016 . S
C208 N215 1.286 . S
C209 H204 0.930 . S
C209 C210 1.397 . S
C209 C211 1.361 . S
C210 C209 1.397 . S
C210 C214 1.390 . S
C211 C209 1.361 . S
C211 C212 1.393 . S
C211 N215 1.413 . S
C212 H205 0.930 . S
C212 C211 1.393 . S
C212 C213 1.399 . S
C213 C212 1.399 . S
C213 C214 1.381 . S
C214 H206 0.930 . S
C214 C210 1.390 . S
C214 C213 1.381 . S
N215 C208 1.286 . S
N215 C211 1.413 . S
Tb216 O219 2.453 . S
Tb216 O220 2.596 1_545 S
Tb216 O221 2.374 1_545 S
Tb216 O229 2.343 1_554 S
Tb216 O231 2.353 . S
Tb216 O233 2.427 . S
Tb216 O234 2.513 . S
C217 O221 1.251 . S
C217 O223 1.265 1_554 S
Tb218 O220 2.343 1_556 S
Tb218 O223 2.353 . S
Tb218 O226 2.427 1_556 S
Tb218 O227 2.513 1_556 S
Tb218 O228 2.453 . S
Tb218 O229 2.596 1_565 S
Tb218 O230 2.368 1_566 S
O219 Tb216 2.453 . S
O219 C235 1.245 1_545 S
O220 Tb216 2.596 1_565 S
O220 Tb218 2.343 1_554 S
O220 C235 1.259 . S
O221 Tb216 2.374 1_565 S
O221 C217 1.251 . S
C222 O226 1.275 . S
C222 O227 1.246 . S
O223 C217 1.265 1_556 S
O223 Tb218 2.353 . S
C224 O228 1.245 1_545 S
C224 O229 1.259 . S
C225 O230 1.262 . S
C225 O231 1.263 . S
O226 Tb218 2.427 1_554 S
O226 C222 1.275 . S
O227 Tb218 2.513 1_554 S
O227 C222 1.246 . S
O228 Tb218 2.453 . S
O228 C224 1.245 1_565 S
O229 Tb216 2.343 1_556 S
O229 Tb218 2.596 1_545 S
O229 C224 1.259 . S
O230 Tb218 2.368 1_544 S
O230 C225 1.262 . S
O231 Tb216 2.353 . S
O231 C225 1.263 . S
C232 O233 1.275 1_556 S
C232 O234 1.246 1_556 S
O233 Tb216 2.427 . S
O233 C232 1.275 1_554 S
O234 Tb216 2.513 . S
O234 C232 1.246 1_554 S
C235 O219 1.245 1_565 S
C235 O220 1.259 . S
Tb236 O239 2.453 . S
Tb236 O240 2.596 1_655 S
Tb236 O241 2.374 1_655 S
Tb236 O249 2.343 1_554 S
Tb236 O251 2.353 . S
Tb236 O253 2.427 1_554 S
Tb236 O254 2.513 1_554 S
C237 O241 1.251 . S
C237 O243 1.263 . S
Tb238 O240 2.343 1_556 S
Tb238 O243 2.353 1_556 S
Tb238 O246 2.427 1_556 S
Tb238 O247 2.513 1_556 S
Tb238 O248 2.453 . S
Tb238 O249 2.596 1_455 S
Tb238 O250 2.376 1_455 S
O239 Tb236 2.453 . S
O239 C255 1.245 1_655 S
O240 Tb236 2.596 1_455 S
O240 Tb238 2.343 1_554 S
O240 C255 1.259 . S
O241 Tb236 2.374 1_455 S
O241 C237 1.251 . S
C242 O246 1.275 . S
C242 O247 1.246 . S
O243 C237 1.263 . S
O243 Tb238 2.353 1_554 S
C244 O248 1.245 1_655 S
C244 O249 1.259 . S
C245 O250 1.248 1_554 S
C245 O251 1.263 . S
O246 Tb238 2.427 1_554 S
O246 C242 1.275 . S
O247 Tb238 2.513 1_554 S
O247 C242 1.246 . S
O248 Tb238 2.453 . S
O248 C244 1.245 1_455 S
O249 Tb236 2.343 1_556 S
O249 Tb238 2.596 1_655 S
O249 C244 1.259 . S
O250 Tb238 2.376 1_655 S
O250 C245 1.248 1_556 S
O251 Tb236 2.353 . S
O251 C245 1.263 . S
C252 O253 1.275 . S
C252 O254 1.246 . S
O253 Tb236 2.427 1_556 S
O253 C252 1.275 . S
O254 Tb236 2.513 1_556 S
O254 C252 1.246 . S
C255 O239 1.245 1_455 S
C255 O240 1.259 . S
Tb256 O259 2.453 1_554 S
Tb256 O260 2.596 1_554 S
Tb256 O261 2.374 . S
Tb256 O269 2.343 . S
Tb256 O271 2.353 . S
Tb256 O273 2.427 . S
Tb256 O274 2.513 . S
C257 O261 1.251 . S
C257 O263 1.263 . S
Tb258 O260 2.343 1_554 S
Tb258 O263 2.353 . S
Tb258 O266 2.427 . S
Tb258 O267 2.513 . S
Tb258 O268 2.453 . S
Tb258 O269 2.596 . S
Tb258 O270 2.374 . S
O259 Tb256 2.453 1_556 S
O259 C275 1.245 . S
O260 Tb256 2.596 1_556 S
O260 Tb258 2.343 1_556 S
O260 C275 1.259 . S
O261 Tb256 2.374 . S
O261 C257 1.251 . S
C262 O266 1.275 1_556 S
C262 O267 1.246 1_556 S
O263 C257 1.263 . S
O263 Tb258 2.353 . S
C264 O268 1.245 . S
C264 O269 1.259 . S
C265 O270 1.250 . S
C265 O271 1.263 . S
O266 Tb258 2.427 . S
O266 C262 1.275 1_554 S
O267 Tb258 2.513 . S
O267 C262 1.246 1_554 S
O268 Tb258 2.453 . S
O268 C264 1.245 . S
O269 Tb256 2.343 . S
O269 Tb258 2.596 . S
O269 C264 1.259 . S
O270 Tb258 2.374 . S
O270 C265 1.250 . S
O271 Tb256 2.353 . S
O271 C265 1.263 . S
C272 O273 1.275 . S
C272 O274 1.246 . S
O273 Tb256 2.427 . S
O273 C272 1.275 . S
O274 Tb256 2.513 . S
O274 C272 1.246 . S
C275 O259 1.245 . S
C275 O260 1.259 . S
Tb276 O279 2.453 . S
Tb276 O280 2.596 . S
Tb276 O281 2.374 . S
Tb276 O289 2.343 . S
Tb276 O291 2.353 . S
Tb276 O293 2.427 . S
Tb276 O294 2.513 . S
C277 O281 1.251 . S
C277 O283 1.263 . S
Tb278 O280 2.343 . S
Tb278 O283 2.353 . S
Tb278 O286 2.427 . S
Tb278 O287 2.513 . S
Tb278 O288 2.453 . S
Tb278 O289 2.596 . S
Tb278 O290 2.374 . S
O279 Tb276 2.453 . S
O279 C295 1.245 . S
O280 Tb276 2.596 . S
O280 Tb278 2.343 . S
O280 C295 1.259 . S
O281 Tb276 2.374 . S
O281 C277 1.251 . S
C282 O286 1.275 . S
C282 O287 1.246 . S
O283 C277 1.263 . S
O283 Tb278 2.353 . S
C284 O288 1.245 . S
C284 O289 1.259 . S
C285 O290 1.250 . S
C285 O291 1.263 . S
O286 Tb278 2.427 . S
O286 C282 1.275 . S
O287 Tb278 2.513 . S
O287 C282 1.246 . S
O288 Tb278 2.453 . S
O288 C284 1.245 . S
O289 Tb276 2.343 . S
O289 Tb278 2.596 . S
O289 C284 1.259 . S
O290 Tb278 2.374 . S
O290 C285 1.250 . S
O291 Tb276 2.353 . S
O291 C285 1.263 . S
C292 O293 1.275 . S
C292 O294 1.246 . S
O293 Tb276 2.427 . S
O293 C292 1.275 . S
O294 Tb276 2.513 . S
O294 C292 1.246 . S
C295 O279 1.245 . S
C295 O280 1.259 . S
Tb296 O299 2.453 . S
Tb296 O300 2.596 . S
Tb296 O301 2.374 . S
Tb296 O309 2.343 . S
Tb296 O311 2.353 . S
Tb296 O313 2.427 . S
Tb296 O314 2.513 . S
C297 O301 1.251 . S
C297 O303 1.263 . S
Tb298 O300 2.343 . S
Tb298 O303 2.353 . S
Tb298 O306 2.427 . S
Tb298 O307 2.513 . S
Tb298 O308 2.453 . S
Tb298 O309 2.596 . S
Tb298 O310 2.374 . S
O299 Tb296 2.453 . S
O299 C315 1.245 . S
O300 Tb296 2.596 . S
O300 Tb298 2.343 . S
O300 C315 1.259 . S
O301 Tb296 2.374 . S
O301 C297 1.251 . S
C302 O306 1.275 . S
C302 O307 1.246 . S
O303 C297 1.263 . S
O303 Tb298 2.353 . S
C304 O308 1.245 . S
C304 O309 1.259 . S
C305 O310 1.250 . S
C305 O311 1.263 . S
O306 Tb298 2.427 . S
O306 C302 1.275 . S
O307 Tb298 2.513 . S
O307 C302 1.246 . S
O308 Tb298 2.453 . S
O308 C304 1.245 . S
O309 Tb296 2.343 . S
O309 Tb298 2.596 . S
O309 C304 1.259 . S
O310 Tb298 2.374 . S
O310 C305 1.250 . S
O311 Tb296 2.353 . S
O311 C305 1.263 . S
C312 O313 1.275 . S
C312 O314 1.246 . S
O313 Tb296 2.427 . S
O313 C312 1.275 . S
O314 Tb296 2.513 . S
O314 C312 1.246 . S
C315 O299 1.245 . S
C315 O300 1.259 . S
Tb316 O319 2.453 . S
Tb316 O320 2.596 . S
Tb316 O321 2.374 . S
Tb316 O329 2.343 . S
Tb316 O331 2.353 . S
Tb316 O333 2.427 . S
Tb316 O334 2.513 . S
C317 O321 1.251 . S
C317 O323 1.263 . S
Tb318 O320 2.343 . S
Tb318 O323 2.353 . S
Tb318 O326 2.427 . S
Tb318 O327 2.513 . S
Tb318 O328 2.453 . S
Tb318 O329 2.596 . S
Tb318 O330 2.374 . S
O319 Tb316 2.453 . S
O319 C335 1.245 . S
O320 Tb316 2.596 . S
O320 Tb318 2.343 . S
O320 C335 1.259 . S
O321 Tb316 2.374 . S
O321 C317 1.251 . S
C322 O326 1.275 . S
C322 O327 1.246 . S
O323 C317 1.263 . S
O323 Tb318 2.353 . S
C324 O328 1.245 . S
C324 O329 1.259 . S
C325 O330 1.250 . S
C325 O331 1.263 . S
O326 Tb318 2.427 . S
O326 C322 1.275 . S
O327 Tb318 2.513 . S
O327 C322 1.246 . S
O328 Tb318 2.453 . S
O328 C324 1.245 . S
O329 Tb316 2.343 . S
O329 Tb318 2.596 . S
O329 C324 1.259 . S
O330 Tb318 2.374 . S
O330 C325 1.250 . S
O331 Tb316 2.353 . S
O331 C325 1.263 . S
C332 O333 1.275 . S
C332 O334 1.246 . S
O333 Tb316 2.427 . S
O333 C332 1.275 . S
O334 Tb316 2.513 . S
O334 C332 1.246 . S
C335 O319 1.245 . S
C335 O320 1.259 . S
Tb336 O339 2.453 . S
Tb336 O340 2.596 . S
Tb336 O341 2.374 . S
Tb336 O349 2.343 . S
Tb336 O351 2.353 . S
Tb336 O353 2.427 . S
Tb336 O354 2.513 . S
C337 O341 1.251 . S
C337 O343 1.263 . S
Tb338 O340 2.343 . S
Tb338 O343 2.353 . S
Tb338 O346 2.427 . S
Tb338 O347 2.513 . S
Tb338 O348 2.453 . S
Tb338 O349 2.596 . S
Tb338 O350 2.374 . S
O339 Tb336 2.453 . S
O339 C355 1.245 . S
O340 Tb336 2.596 . S
O340 Tb338 2.343 . S
O340 C355 1.259 . S
O341 Tb336 2.374 . S
O341 C337 1.251 . S
C342 O346 1.275 . S
C342 O347 1.246 . S
O343 C337 1.263 . S
O343 Tb338 2.353 . S
C344 O348 1.245 . S
C344 O349 1.259 . S
C345 O350 1.250 . S
C345 O351 1.263 . S
O346 Tb338 2.427 . S
O346 C342 1.275 . S
O347 Tb338 2.513 . S
O347 C342 1.246 . S
O348 Tb338 2.453 . S
O348 C344 1.245 . S
O349 Tb336 2.343 . S
O349 Tb338 2.596 . S
O349 C344 1.259 . S
O350 Tb338 2.374 . S
O350 C345 1.250 . S
O351 Tb336 2.353 . S
O351 C345 1.263 . S
C352 O353 1.275 . S
C352 O354 1.246 . S
O353 Tb336 2.427 . S
O353 C352 1.275 . S
O354 Tb336 2.513 . S
O354 C352 1.246 . S
C355 O339 1.245 . S
C355 O340 1.259 . S
Tb356 O359 2.453 . S
Tb356 O360 2.596 . S
Tb356 O361 2.374 . S
Tb356 O369 2.343 . S
Tb356 O371 2.353 . S
Tb356 O373 2.427 . S
Tb356 O374 2.513 . S
C357 O361 1.251 . S
C357 O363 1.263 . S
Tb358 O360 2.343 . S
Tb358 O363 2.353 . S
Tb358 O366 2.427 . S
Tb358 O367 2.513 . S
Tb358 O368 2.453 . S
Tb358 O369 2.596 . S
Tb358 O370 2.374 . S
O359 Tb356 2.453 . S
O359 C375 1.245 . S
O360 Tb356 2.596 . S
O360 Tb358 2.343 . S
O360 C375 1.259 . S
O361 Tb356 2.374 . S
O361 C357 1.251 . S
C362 O366 1.275 . S
C362 O367 1.246 . S
O363 C357 1.263 . S
O363 Tb358 2.353 . S
C364 O368 1.245 . S
C364 O369 1.259 . S
C365 O370 1.250 . S
C365 O371 1.263 . S
O366 Tb358 2.427 . S
O366 C362 1.275 . S
O367 Tb358 2.513 . S
O367 C362 1.246 . S
O368 Tb358 2.453 . S
O368 C364 1.245 . S
O369 Tb356 2.343 . S
O369 Tb358 2.596 . S
O369 C364 1.259 . S
O370 Tb358 2.374 . S
O370 C365 1.250 . S
O371 Tb356 2.353 . S
O371 C365 1.263 . S
C372 O373 1.275 . S
C372 O374 1.246 . S
O373 Tb356 2.427 . S
O373 C372 1.275 . S
O374 Tb356 2.513 . S
O374 C372 1.246 . S
C375 O359 1.245 . S
C375 O360 1.259 . S
Tb376 O379 2.453 . S
Tb376 O380 2.596 . S
Tb376 O381 2.374 . S
Tb376 O389 2.343 . S
Tb376 O391 2.353 . S
Tb376 O393 2.427 . S
Tb376 O394 2.513 . S
C377 O381 1.251 . S
C377 O383 1.263 . S
Tb378 O380 2.343 . S
Tb378 O383 2.353 . S
Tb378 O386 2.427 . S
Tb378 O387 2.513 . S
Tb378 O388 2.453 . S
Tb378 O389 2.596 . S
Tb378 O390 2.374 . S
O379 Tb376 2.453 . S
O379 C395 1.245 . S
O380 Tb376 2.596 . S
O380 Tb378 2.343 . S
O380 C395 1.259 . S
O381 Tb376 2.374 . S
O381 C377 1.251 . S
C382 O386 1.275 . S
C382 O387 1.246 . S
O383 C377 1.263 . S
O383 Tb378 2.353 . S
C384 O388 1.245 . S
C384 O389 1.259 . S
C385 O390 1.250 . S
C385 O391 1.263 . S
O386 Tb378 2.427 . S
O386 C382 1.275 . S
O387 Tb378 2.513 . S
O387 C382 1.246 . S
O388 Tb378 2.453 . S
O388 C384 1.245 . S
O389 Tb376 2.343 . S
O389 Tb378 2.596 . S
O389 C384 1.259 . S
O390 Tb378 2.374 . S
O390 C385 1.250 . S
O391 Tb376 2.353 . S
O391 C385 1.263 . S
C392 O393 1.275 . S
C392 O394 1.246 . S
O393 Tb376 2.427 . S
O393 C392 1.275 . S
O394 Tb376 2.513 . S
O394 C392 1.246 . S
C395 O379 1.245 . S
C395 O380 1.259 . S
C396 C397 1.349 . S
C396 C398 1.327 . S
C396 H421 0.950 . S
C397 C396 1.349 . S
C397 C413 1.349 . S
C398 C396 1.327 . S
C398 C417 1.429 . S
C398 H422 0.950 . S
C399 C416 1.574 . S
C399 C418 1.368 . S
C399 H423 0.949 . S
H400 C404 0.949 . S
C401 C402 1.349 . S
C401 C403 1.327 . S
C401 H424 0.950 . S
C402 C401 1.349 . S
C402 C414 1.349 . S
C403 C401 1.327 . S
C403 C419 1.429 . S
C403 H425 0.950 . S
C404 H400 0.949 . S
C404 C412 1.574 . S
C404 C420 1.368 . S
H405 C413 0.950 . S
H406 C411 0.950 . S
H407 C412 0.949 . S
H408 C414 0.950 . S
H409 C415 0.950 . S
H410 C416 0.949 . S
C411 H406 0.950 . S
C411 C413 1.327 . S
C411 C417 1.429 . S
C412 C404 1.574 . S
C412 H407 0.949 . S
C412 C418 1.368 . S
C413 C397 1.349 . S
C413 H405 0.950 . S
C413 C411 1.327 . S
C414 C402 1.349 . S
C414 H408 0.950 . S
C414 C415 1.327 . S
C415 H409 0.950 . S
C415 C414 1.327 . S
C415 C419 1.429 . S
C416 C399 1.574 . S
C416 H410 0.949 . S
C416 C420 1.368 . S
C417 C398 1.429 . S
C417 C411 1.429 . S
C417 C418 1.523 . S
C418 C399 1.368 . S
C418 C412 1.368 . S
C418 C417 1.523 . S
C419 C403 1.429 . S
C419 C415 1.429 . S
C419 C420 1.523 . S
C420 C404 1.368 . S
C420 C416 1.368 . S
C420 C419 1.523 . S
H421 C396 0.950 . S
H422 C398 0.950 . S
H423 C399 0.949 . S
H424 C401 0.950 . S
H425 C403 0.950 . S
C426 C427 1.349 . S
C426 C428 1.327 . S
C426 H451 0.950 . S
C427 C426 1.349 . S
C427 C443 1.349 . S
C428 C426 1.327 . S
C428 C447 1.429 . S
C428 H452 0.950 . S
C429 C446 1.574 . S
C429 C448 1.368 . S
C429 H453 0.949 . S
H430 C434 0.949 . S
C431 C432 1.349 . S
C431 C433 1.327 . S
C431 H454 0.950 . S
C432 C431 1.349 . S
C432 C444 1.349 . S
C433 C431 1.327 . S
C433 C449 1.429 . S
C433 H455 0.950 . S
C434 H430 0.949 . S
C434 C442 1.574 . S
C434 C450 1.368 . S
H435 C443 0.950 . S
H436 C441 0.950 . S
H437 C442 0.949 . S
H438 C444 0.950 . S
H439 C445 0.950 . S
H440 C446 0.949 . S
C441 H436 0.950 . S
C441 C443 1.327 . S
C441 C447 1.429 . S
C442 C434 1.574 . S
C442 H437 0.949 . S
C442 C448 1.368 . S
C443 C427 1.349 . S
C443 H435 0.950 . S
C443 C441 1.327 . S
C444 C432 1.349 . S
C444 H438 0.950 . S
C444 C445 1.327 . S
C445 H439 0.950 . S
C445 C444 1.327 . S
C445 C449 1.429 . S
C446 C429 1.574 . S
C446 H440 0.949 . S
C446 C450 1.368 . S
C447 C428 1.429 . S
C447 C441 1.429 . S
C447 C448 1.523 . S
C448 C429 1.368 . S
C448 C442 1.368 . S
C448 C447 1.523 . S
C449 C433 1.429 . S
C449 C445 1.429 . S
C449 C450 1.523 . S
C450 C434 1.368 . S
C450 C446 1.368 . S
C450 C449 1.523 . S
H451 C426 0.950 . S
H452 C428 0.950 . S
H453 C429 0.949 . S
H454 C431 0.950 . S
H455 C433 0.950 . S
C456 C457 1.349 . S
C456 C458 1.327 . S
C456 H481 0.950 . S
C457 C456 1.349 . S
C457 C473 1.349 . S
C458 C456 1.327 . S
C458 C477 1.429 . S
C458 H482 0.950 . S
C459 C476 1.574 . S
C459 C478 1.368 . S
C459 H483 0.949 . S
H460 C464 0.949 . S
C461 C462 1.349 . S
C461 C463 1.327 . S
C461 H484 0.950 . S
C462 C461 1.349 . S
C462 C474 1.349 . S
C463 C461 1.327 . S
C463 C479 1.429 . S
C463 H485 0.950 . S
C464 H460 0.949 . S
C464 C472 1.574 . S
C464 C480 1.368 . S
H465 C473 0.950 . S
H466 C471 0.950 . S
H467 C472 0.949 . S
H468 C474 0.950 . S
H469 C475 0.950 . S
H470 C476 0.949 . S
C471 H466 0.950 . S
C471 C473 1.327 . S
C471 C477 1.429 . S
C472 C464 1.574 . S
C472 H467 0.949 . S
C472 C478 1.368 . S
C473 C457 1.349 . S
C473 H465 0.950 . S
C473 C471 1.327 . S
C474 C462 1.349 . S
C474 H468 0.950 . S
C474 C475 1.327 . S
C475 H469 0.950 . S
C475 C474 1.327 . S
C475 C479 1.429 . S
C476 C459 1.574 . S
C476 H470 0.949 . S
C476 C480 1.368 . S
C477 C458 1.429 . S
C477 C471 1.429 . S
C477 C478 1.523 . S
C478 C459 1.368 . S
C478 C472 1.368 . S
C478 C477 1.523 . S
C479 C463 1.429 . S
C479 C475 1.429 . S
C479 C480 1.523 . S
C480 C464 1.368 . S
C480 C476 1.368 . S
C480 C479 1.523 . S
H481 C456 0.950 . S
H482 C458 0.950 . S
H483 C459 0.949 . S
H484 C461 0.950 . S
H485 C463 0.950 . S
C486 C487 1.349 . S
C486 C488 1.327 . S
C486 H511 0.950 . S
C487 C486 1.349 . S
C487 C503 1.349 . S
C488 C486 1.327 . S
C488 C507 1.429 . S
C488 H512 0.950 . S
C489 C506 1.574 . S
C489 C508 1.368 . S
C489 H513 0.949 . S
H490 C494 0.949 . S
C491 C492 1.349 1_554 S
C491 C493 1.327 . S
C491 H514 0.950 . S
C492 C491 1.349 1_556 S
C492 C504 1.349 . S
C493 C491 1.327 . S
C493 C509 1.429 1_554 S
C493 H515 0.950 . S
C494 H490 0.949 . S
C494 C502 1.574 . S
C494 C510 1.368 . S
H495 C503 0.950 . S
H496 C501 0.950 . S
H497 C502 0.949 . S
H498 C504 0.950 . S
H499 C505 0.950 . S
H500 C506 0.949 1_554 S
C501 H496 0.950 . S
C501 C503 1.327 . S
C501 C507 1.429 . S
C502 C494 1.574 . S
C502 H497 0.949 . S
C502 C508 1.368 . S
C503 C487 1.349 . S
C503 H495 0.950 . S
C503 C501 1.327 . S
C504 C492 1.349 . S
C504 H498 0.950 . S
C504 C505 1.327 . S
C505 H499 0.950 . S
C505 C504 1.327 . S
C505 C509 1.429 . S
C506 C489 1.574 . S
C506 H500 0.949 1_556 S
C506 C510 1.368 . S
C507 C488 1.429 . S
C507 C501 1.429 . S
C507 C508 1.523 . S
C508 C489 1.368 . S
C508 C502 1.368 . S
C508 C507 1.523 . S
C509 C493 1.429 1_556 S
C509 C505 1.429 . S
C509 C510 1.523 . S
C510 C494 1.368 . S
C510 C506 1.368 . S
C510 C509 1.523 . S
H511 C486 0.950 . S
H512 C488 0.950 . S
H513 C489 0.949 . S
H514 C491 0.950 . S
H515 C493 0.950 . S
C516 C517 1.349 . S
C516 C518 1.327 . S
C516 H541 0.950 . S
C517 C516 1.349 . S
C517 C533 1.349 . S
C518 C516 1.327 . S
C518 C537 1.429 . S
C518 H542 0.950 . S
C519 C536 1.574 . S
C519 C538 1.368 . S
C519 H543 0.949 . S
H520 C524 0.949 . S
C521 C522 1.349 . S
C521 C523 1.327 . S
C521 H544 0.950 . S
C522 C521 1.349 . S
C522 C534 1.349 . S
C523 C521 1.327 . S
C523 C539 1.429 . S
C523 H545 0.950 . S
C524 H520 0.949 . S
C524 C532 1.574 . S
C524 C540 1.368 . S
H525 C533 0.950 . S
H526 C531 0.950 . S
H527 C532 0.949 . S
H528 C534 0.950 . S
H529 C535 0.950 . S
H530 C536 0.949 . S
C531 H526 0.950 . S
C531 C533 1.327 . S
C531 C537 1.429 . S
C532 C524 1.574 . S
C532 H527 0.949 . S
C532 C538 1.368 . S
C533 C517 1.349 . S
C533 H525 0.950 . S
C533 C531 1.327 . S
C534 C522 1.349 . S
C534 H528 0.950 . S
C534 C535 1.327 . S
C535 H529 0.950 . S
C535 C534 1.327 . S
C535 C539 1.429 . S
C536 C519 1.574 . S
C536 H530 0.949 . S
C536 C540 1.368 . S
C537 C518 1.429 . S
C537 C531 1.429 . S
C537 C538 1.523 . S
C538 C519 1.368 . S
C538 C532 1.368 . S
C538 C537 1.523 . S
C539 C523 1.429 . S
C539 C535 1.429 . S
C539 C540 1.523 . S
C540 C524 1.368 . S
C540 C536 1.368 . S
C540 C539 1.523 . S
H541 C516 0.950 . S
H542 C518 0.950 . S
H543 C519 0.949 . S
H544 C521 0.950 . S
H545 C523 0.950 . S
C546 C547 1.349 . S
C546 C548 1.327 . S
C546 H571 0.950 . S
C547 C546 1.349 . S
C547 C563 1.349 . S
C548 C546 1.327 . S
C548 C567 1.429 . S
C548 H572 0.950 . S
C549 C566 1.574 . S
C549 C568 1.368 . S
C549 H573 0.949 . S
H550 C554 0.949 . S
C551 C552 1.355 . S
C551 C553 1.327 . S
C551 H574 0.950 . S
C552 C551 1.355 . S
C552 C564 1.339 1_554 S
C553 C551 1.327 . S
C553 C569 1.429 1_554 S
C553 H575 0.950 . S
C554 H550 0.949 . S
C554 C562 1.574 . S
C554 C570 1.368 . S
H555 C563 0.950 . S
H556 C561 0.950 . S
H557 C562 0.949 . S
H558 C564 0.950 . S
H559 C565 0.950 . S
H560 C566 0.942 1_554 S
C561 H556 0.950 . S
C561 C563 1.327 . S
C561 C567 1.429 . S
C562 C554 1.574 . S
C562 H557 0.949 . S
C562 C568 1.368 . S
C563 C547 1.349 . S
C563 H555 0.950 . S
C563 C561 1.327 . S
C564 C552 1.339 1_556 S
C564 H558 0.950 . S
C564 C565 1.327 . S
C565 H559 0.950 . S
C565 C564 1.327 . S
C565 C569 1.429 . S
C566 C549 1.574 . S
C566 H560 0.942 1_556 S
C566 C570 1.368 . S
C567 C548 1.429 . S
C567 C561 1.429 . S
C567 C568 1.523 . S
C568 C549 1.368 . S
C568 C562 1.368 . S
C568 C567 1.523 . S
C569 C553 1.429 1_556 S
C569 C565 1.429 . S
C569 C570 1.523 . S
C570 C554 1.368 . S
C570 C566 1.368 . S
C570 C569 1.523 . S
H571 C546 0.950 . S
H572 C548 0.950 . S
H573 C549 0.949 . S
H574 C551 0.950 . S
H575 C553 0.950 . S
C576 C577 1.349 . S
C576 C578 1.327 . S
C576 H601 0.950 . S
C577 C576 1.349 . S
C577 C593 1.349 . S
C578 C576 1.327 . S
C578 C597 1.429 . S
C578 H602 0.950 . S
C579 C596 1.574 . S
C579 C598 1.368 . S
C579 H603 0.947 . S
H580 C584 0.949 . S
C581 C582 1.349 1_554 S
C581 C583 1.327 . S
C581 H604 0.950 . S
C582 C581 1.349 1_556 S
C582 C594 1.349 . S
C583 C581 1.327 . S
C583 C599 1.429 1_554 S
C583 H605 0.950 . S
C584 H580 0.949 . S
C584 C592 1.574 . S
C584 C600 1.368 . S
H585 C593 0.950 . S
H586 C591 0.950 . S
H587 C592 0.949 . S
H588 C594 0.950 . S
H589 C595 0.950 . S
H590 C596 0.949 1_554 S
C591 H586 0.950 . S
C591 C593 1.327 . S
C591 C597 1.429 . S
C592 C584 1.574 . S
C592 H587 0.949 . S
C592 C598 1.368 . S
C593 C577 1.349 . S
C593 H585 0.950 . S
C593 C591 1.327 . S
C594 C582 1.349 . S
C594 H588 0.950 . S
C594 C595 1.327 . S
C595 H589 0.950 . S
C595 C594 1.327 . S
C595 C599 1.429 . S
C596 C579 1.574 . S
C596 H590 0.949 1_556 S
C596 C600 1.368 . S
C597 C578 1.429 . S
C597 C591 1.429 . S
C597 C598 1.523 . S
C598 C579 1.368 . S
C598 C592 1.368 . S
C598 C597 1.523 . S
C599 C583 1.429 1_556 S
C599 C595 1.429 . S
C599 C600 1.523 . S
C600 C584 1.368 . S
C600 C596 1.368 . S
C600 C599 1.523 . S
H601 C576 0.950 . S
H602 C578 0.950 . S
H603 C579 0.947 . S
H604 C581 0.950 . S
H605 C583 0.950 . S
C606 C607 1.349 . S
C606 C608 1.327 . S
C606 H631 0.950 . S
C607 C606 1.349 . S
C607 C623 1.349 . S
C608 C606 1.327 . S
C608 C627 1.429 . S
C608 H632 0.950 . S
C609 C626 1.574 . S
C609 C628 1.368 . S
C609 H633 0.949 . S
H610 C614 0.949 . S
C611 C612 1.349 . S
C611 C613 1.327 . S
C611 H634 0.950 . S
C612 C611 1.349 . S
C612 C624 1.349 . S
C613 C611 1.327 . S
C613 C629 1.429 . S
C613 H635 0.950 . S
C614 H610 0.949 . S
C614 C622 1.574 . S
C614 C630 1.368 . S
H615 C623 0.950 . S
H616 C621 0.950 . S
H617 C622 0.949 . S
H618 C624 0.950 . S
H619 C625 0.950 . S
H620 C626 0.949 . S
C621 H616 0.950 . S
C621 C623 1.327 . S
C621 C627 1.429 . S
C622 C614 1.574 . S
C622 H617 0.949 . S
C622 C628 1.368 . S
C623 C607 1.349 . S
C623 H615 0.950 . S
C623 C621 1.327 . S
C624 C612 1.349 . S
C624 H618 0.950 . S
C624 C625 1.327 . S
C625 H619 0.950 . S
C625 C624 1.327 . S
C625 C629 1.429 . S
C626 C609 1.574 . S
C626 H620 0.949 . S
C626 C630 1.368 . S
C627 C608 1.429 . S
C627 C621 1.429 . S
C627 C628 1.523 . S
C628 C609 1.368 . S
C628 C622 1.368 . S
C628 C627 1.523 . S
C629 C613 1.429 . S
C629 C625 1.429 . S
C629 C630 1.523 . S
C630 C614 1.368 . S
C630 C626 1.368 . S
C630 C629 1.523 . S
H631 C606 0.950 . S
H632 C608 0.950 . S
H633 C609 0.949 . S
H634 C611 0.950 . S
H635 C613 0.950 . S
C636 C637 1.349 . S
C636 C638 1.327 . S
C636 H661 0.950 . S
C637 C636 1.349 . S
C637 C653 1.349 . S
C638 C636 1.327 . S
C638 C657 1.429 . S
C638 H662 0.950 . S
C639 C656 1.574 . S
C639 C658 1.368 1_554 S
C639 H663 0.949 . S
H640 C644 0.949 . S
C641 C642 1.349 . S
C641 C643 1.327 . S
C641 H664 0.950 . S
C642 C641 1.349 . S
C642 C654 1.349 1_554 S
C643 C641 1.327 . S
C643 C659 1.429 1_554 S
C643 H665 0.950 . S
C644 H640 0.949 . S
C644 C652 1.574 . S
C644 C660 1.368 . S
H645 C653 0.950 1_554 S
H646 C651 0.950 1_554 S
H647 C652 0.949 . S
H648 C654 0.950 . S
H649 C655 0.950 . S
H650 C656 0.949 . S
C651 H646 0.950 1_556 S
C651 C653 1.327 . S
C651 C657 1.429 . S
C652 C644 1.574 . S
C652 H647 0.949 . S
C652 C658 1.368 . S
C653 C637 1.349 . S
C653 H645 0.950 1_556 S
C653 C651 1.327 . S
C654 C642 1.349 1_556 S
C654 H648 0.950 . S
C654 C655 1.327 . S
C655 H649 0.950 . S
C655 C654 1.327 . S
C655 C659 1.429 . S
C656 C639 1.574 . S
C656 H650 0.949 . S
C656 C660 1.368 1_554 S
C657 C638 1.429 . S
C657 C651 1.429 . S
C657 C658 1.523 . S
C658 C639 1.368 1_556 S
C658 C652 1.368 . S
C658 C657 1.523 . S
C659 C643 1.429 1_556 S
C659 C655 1.429 . S
C659 C660 1.523 . S
C660 C644 1.368 . S
C660 C656 1.368 1_556 S
C660 C659 1.523 . S
H661 C636 0.950 . S
H662 C638 0.950 . S
H663 C639 0.949 . S
H664 C641 0.950 . S
H665 C643 0.950 . S
C666 C667 1.349 . S
C666 C668 1.327 . S
C666 H691 0.950 . S
C667 C666 1.349 . S
C667 C683 1.349 . S
C668 C666 1.327 . S
C668 C687 1.429 . S
C668 H692 0.950 . S
C669 C686 1.574 . S
C669 C688 1.368 . S
C669 H693 0.949 . S
H670 C674 0.949 . S
C671 C672 1.349 . S
C671 C673 1.327 . S
C671 H694 0.950 1_554 S
C672 C671 1.349 . S
C672 C684 1.349 . S
C673 C671 1.327 . S
C673 C689 1.429 . S
C673 H695 0.950 . S
C674 H670 0.949 . S
C674 C682 1.574 . S
C674 C690 1.368 . S
H675 C683 0.950 . S
H676 C681 0.950 . S
H677 C682 0.949 . S
H678 C684 0.950 . S
H679 C685 0.950 . S
H680 C686 0.949 . S
C681 H676 0.950 . S
C681 C683 1.327 . S
C681 C687 1.429 . S
C682 C674 1.574 . S
C682 H677 0.949 . S
C682 C688 1.368 . S
C683 C667 1.349 . S
C683 H675 0.950 . S
C683 C681 1.327 . S
C684 C672 1.349 . S
C684 H678 0.950 . S
C684 C685 1.327 . S
C685 H679 0.950 . S
C685 C684 1.327 . S
C685 C689 1.429 . S
C686 C669 1.574 . S
C686 H680 0.949 . S
C686 C690 1.368 . S
C687 C668 1.429 . S
C687 C681 1.429 . S
C687 C688 1.523 . S
C688 C669 1.368 . S
C688 C682 1.368 . S
C688 C687 1.523 . S
C689 C673 1.429 . S
C689 C685 1.429 . S
C689 C690 1.523 . S
C690 C674 1.368 . S
C690 C686 1.368 . S
C690 C689 1.523 . S
H691 C666 0.950 . S
H692 C668 0.950 . S
H693 C669 0.949 . S
H694 C671 0.950 1_556 S
H695 C673 0.950 . S
C696 C697 1.349 . S
C696 C698 1.327 . S
C696 H721 0.950 . S
C697 C696 1.349 . S
C697 C713 1.349 . S
C698 C696 1.327 . S
C698 C717 1.429 . S
C698 H722 0.950 . S
C699 C716 1.574 . S
C699 C718 1.368 . S
C699 H723 0.949 . S
H700 C704 0.949 . S
C701 C702 1.349 . S
C701 C703 1.327 . S
C701 H724 0.950 . S
C702 C701 1.349 . S
C702 C714 1.349 . S
C703 C701 1.327 . S
C703 C719 1.429 . S
C703 H725 0.950 . S
C704 H700 0.949 . S
C704 C712 1.574 . S
C704 C720 1.368 . S
H705 C713 0.950 . S
H706 C711 0.950 . S
H707 C712 0.949 . S
H708 C714 0.950 . S
H709 C715 0.950 . S
H710 C716 0.949 . S
C711 H706 0.950 . S
C711 C713 1.327 . S
C711 C717 1.429 . S
C712 C704 1.574 . S
C712 H707 0.949 . S
C712 C718 1.368 . S
C713 C697 1.349 . S
C713 H705 0.950 . S
C713 C711 1.327 . S
C714 C702 1.349 . S
C714 H708 0.950 . S
C714 C715 1.327 . S
C715 H709 0.950 . S
C715 C714 1.327 . S
C715 C719 1.429 . S
C716 C699 1.574 . S
C716 H710 0.949 . S
C716 C720 1.368 . S
C717 C698 1.429 . S
C717 C711 1.429 . S
C717 C718 1.523 . S
C718 C699 1.368 . S
C718 C712 1.368 . S
C718 C717 1.523 . S
C719 C703 1.429 . S
C719 C715 1.429 . S
C719 C720 1.523 . S
C720 C704 1.368 . S
C720 C716 1.368 . S
C720 C719 1.523 . S
H721 C696 0.950 . S
H722 C698 0.950 . S
H723 C699 0.949 . S
H724 C701 0.950 . S
H725 C703 0.950 . S
C726 C727 1.349 . S
C726 C728 1.327 . S
C726 H751 0.950 . S
C727 C726 1.349 . S
C727 C743 1.349 . S
C728 C726 1.327 . S
C728 C747 1.429 . S
C728 H752 0.950 . S
C729 C746 1.574 . S
C729 C748 1.368 . S
C729 H753 0.949 . S
H730 C734 0.949 . S
C731 C732 1.349 . S
C731 C733 1.327 . S
C731 H754 0.950 1_554 S
C732 C731 1.349 . S
C732 C744 1.349 . S
C733 C731 1.327 . S
C733 C749 1.429 . S
C733 H755 0.950 . S
C734 H730 0.949 . S
C734 C742 1.574 . S
C734 C750 1.368 . S
H735 C743 0.950 . S
H736 C741 0.950 . S
H737 C742 0.949 . S
H738 C744 0.950 . S
H739 C745 0.950 . S
H740 C746 0.949 . S
C741 H736 0.950 . S
C741 C743 1.327 . S
C741 C747 1.429 . S
C742 C734 1.574 . S
C742 H737 0.949 . S
C742 C748 1.368 . S
C743 C727 1.349 . S
C743 H735 0.950 . S
C743 C741 1.327 . S
C744 C732 1.349 . S
C744 H738 0.950 . S
C744 C745 1.327 . S
C745 H739 0.950 . S
C745 C744 1.327 . S
C745 C749 1.429 . S
C746 C729 1.574 . S
C746 H740 0.949 . S
C746 C750 1.368 . S
C747 C728 1.429 . S
C747 C741 1.429 . S
C747 C748 1.523 . S
C748 C729 1.368 . S
C748 C742 1.368 . S
C748 C747 1.523 . S
C749 C733 1.429 . S
C749 C745 1.429 . S
C749 C750 1.523 . S
C750 C734 1.368 . S
C750 C746 1.368 . S
C750 C749 1.523 . S
H751 C726 0.950 . S
H752 C728 0.950 . S
H753 C729 0.949 . S
H754 C731 0.950 1_556 S
H755 C733 0.950 . S
C756 C757 1.349 . S
C756 C758 1.327 . S
C756 H781 0.950 . S
C757 C756 1.349 . S
C757 C773 1.349 . S
C758 C756 1.327 . S
C758 C777 1.429 . S
C758 H782 0.950 . S
C759 C776 1.574 1_655 S
C759 C778 1.368 . S
C759 H783 0.949 . S
H760 C764 0.949 1_455 S
C761 C762 1.349 . S
C761 C763 1.327 . S
C761 H784 0.950 . S
C762 C761 1.349 . S
C762 C774 1.349 . S
C763 C761 1.327 . S
C763 C779 1.429 . S
C763 H785 0.950 . S
C764 H760 0.949 1_655 S
C764 C772 1.574 . S
C764 C780 1.368 1_655 S
H765 C773 0.950 . S
H766 C771 0.950 . S
H767 C772 0.949 . S
H768 C774 0.950 . S
H769 C775 0.950 . S
H770 C776 0.949 . S
C771 H766 0.950 . S
C771 C773 1.327 . S
C771 C777 1.429 . S
C772 C764 1.574 . S
C772 H767 0.949 . S
C772 C778 1.368 . S
C773 C757 1.349 . S
C773 H765 0.950 . S
C773 C771 1.327 . S
C774 C762 1.349 . S
C774 H768 0.950 . S
C774 C775 1.327 . S
C775 H769 0.950 . S
C775 C774 1.327 . S
C775 C779 1.429 . S
C776 C759 1.574 1_455 S
C776 H770 0.949 . S
C776 C780 1.368 . S
C777 C758 1.429 . S
C777 C771 1.429 . S
C777 C778 1.523 . S
C778 C759 1.368 . S
C778 C772 1.368 . S
C778 C777 1.523 . S
C779 C763 1.429 . S
C779 C775 1.429 . S
C779 C780 1.523 . S
C780 C764 1.368 1_455 S
C780 C776 1.368 . S
C780 C779 1.523 . S
H781 C756 0.950 . S
H782 C758 0.950 . S
H783 C759 0.949 . S
H784 C761 0.950 . S
H785 C763 0.950 . S
C786 C787 1.349 . S
C786 C788 1.327 . S
C786 H811 0.950 . S
C787 C786 1.349 . S
C787 C803 1.349 . S
C788 C786 1.327 . S
C788 C807 1.429 . S
C788 H812 0.950 . S
C789 C806 1.574 . S
C789 C808 1.368 . S
C789 H813 0.949 . S
H790 C794 0.949 . S
C791 C792 1.349 . S
C791 C793 1.327 . S
C791 H814 0.950 . S
C792 C791 1.349 . S
C792 C804 1.349 . S
C793 C791 1.327 . S
C793 C809 1.429 . S
C793 H815 0.950 . S
C794 H790 0.949 . S
C794 C802 1.574 . S
C794 C810 1.368 . S
H795 C803 0.950 . S
H796 C801 0.950 . S
H797 C802 0.949 . S
H798 C804 0.950 . S
H799 C805 0.950 . S
H800 C806 0.949 . S
C801 H796 0.950 . S
C801 C803 1.327 . S
C801 C807 1.429 . S
C802 C794 1.574 . S
C802 H797 0.949 . S
C802 C808 1.368 . S
C803 C787 1.349 . S
C803 H795 0.950 . S
C803 C801 1.327 . S
C804 C792 1.349 . S
C804 H798 0.950 . S
C804 C805 1.327 . S
C805 H799 0.950 . S
C805 C804 1.327 . S
C805 C809 1.429 . S
C806 C789 1.574 . S
C806 H800 0.949 . S
C806 C810 1.368 . S
C807 C788 1.429 . S
C807 C801 1.429 . S
C807 C808 1.523 . S
C808 C789 1.368 . S
C808 C802 1.368 . S
C808 C807 1.523 . S
C809 C793 1.429 . S
C809 C805 1.429 . S
C809 C810 1.523 . S
C810 C794 1.368 . S
C810 C806 1.368 . S
C810 C809 1.523 . S
H811 C786 0.950 . S
H812 C788 0.950 . S
H813 C789 0.949 . S
H814 C791 0.950 . S
H815 C793 0.950 . S
C816 C817 1.349 . S
C816 C818 1.327 . S
C816 H841 0.950 . S
C817 C816 1.349 . S
C817 C833 1.349 . S
C818 C816 1.327 . S
C818 C837 1.429 . S
C818 H842 0.950 . S
C819 C836 1.564 1_545 S
C819 C838 1.368 . S
C819 H843 0.949 . S
H820 C824 0.949 . S
C821 C822 1.349 . S
C821 C823 1.327 . S
C821 H844 0.950 . S
C822 C821 1.349 . S
C822 C834 1.349 . S
C823 C821 1.327 . S
C823 C839 1.429 . S
C823 H845 0.950 . S
C824 H820 0.949 . S
C824 C832 1.574 1_565 S
C824 C840 1.368 . S
H825 C833 0.950 . S
H826 C831 0.950 . S
H827 C832 0.949 . S
H828 C834 0.950 . S
H829 C835 0.950 . S
H830 C836 0.954 . S
C831 H826 0.950 . S
C831 C833 1.327 . S
C831 C837 1.429 . S
C832 C824 1.574 1_545 S
C832 H827 0.949 . S
C832 C838 1.368 . S
C833 C817 1.349 . S
C833 H825 0.950 . S
C833 C831 1.327 . S
C834 C822 1.349 . S
C834 H828 0.950 . S
C834 C835 1.327 . S
C835 H829 0.950 . S
C835 C834 1.327 . S
C835 C839 1.429 . S
C836 C819 1.564 1_565 S
C836 H830 0.954 . S
C836 C840 1.372 . S
C837 C818 1.429 . S
C837 C831 1.429 . S
C837 C838 1.523 . S
C838 C819 1.368 . S
C838 C832 1.368 . S
C838 C837 1.523 . S
C839 C823 1.429 . S
C839 C835 1.429 . S
C839 C840 1.523 . S
C840 C824 1.368 . S
C840 C836 1.372 . S
C840 C839 1.523 . S
H841 C816 0.950 . S
H842 C818 0.950 . S
H843 C819 0.949 . S
H844 C821 0.950 . S
H845 C823 0.950 . S
C846 C847 1.349 . S
C846 C848 1.327 . S
C846 H871 0.950 . S
C847 C846 1.349 . S
C847 C863 1.349 . S
C848 C846 1.327 . S
C848 C867 1.429 . S
C848 H872 0.950 . S
C849 C866 1.574 . S
C849 C868 1.368 . S
C849 H873 0.949 . S
H850 C854 0.949 . S
C851 C852 1.349 . S
C851 C853 1.327 . S
C851 H874 0.950 . S
C852 C851 1.349 . S
C852 C864 1.349 . S
C853 C851 1.327 . S
C853 C869 1.429 . S
C853 H875 0.950 . S
C854 H850 0.949 . S
C854 C862 1.574 . S
C854 C870 1.368 . S
H855 C863 0.950 . S
H856 C861 0.950 . S
H857 C862 0.949 . S
H858 C864 0.950 . S
H859 C865 0.950 . S
H860 C866 0.949 . S
C861 H856 0.950 . S
C861 C863 1.327 . S
C861 C867 1.429 . S
C862 C854 1.574 . S
C862 H857 0.949 . S
C862 C868 1.368 . S
C863 C847 1.349 . S
C863 H855 0.950 . S
C863 C861 1.327 . S
C864 C852 1.349 . S
C864 H858 0.950 . S
C864 C865 1.327 . S
C865 H859 0.950 . S
C865 C864 1.327 . S
C865 C869 1.429 . S
C866 C849 1.574 . S
C866 H860 0.949 . S
C866 C870 1.368 . S
C867 C848 1.429 . S
C867 C861 1.429 . S
C867 C868 1.523 . S
C868 C849 1.368 . S
C868 C862 1.368 . S
C868 C867 1.523 . S
C869 C853 1.429 . S
C869 C865 1.429 . S
C869 C870 1.523 . S
C870 C854 1.368 . S
C870 C866 1.368 . S
C870 C869 1.523 . S
H871 C846 0.950 . S
H872 C848 0.950 . S
H873 C849 0.949 . S
H874 C851 0.950 . S
H875 C853 0.950 . S
C876 C877 1.349 . S
C876 C878 1.327 . S
C876 H901 0.950 . S
C877 C876 1.349 . S
C877 C893 1.349 . S
C878 C876 1.327 . S
C878 C897 1.429 . S
C878 H902 0.950 . S
C879 C896 1.574 . S
C879 C898 1.368 . S
C879 H903 0.949 . S
H880 C884 0.949 . S
C881 C882 1.349 . S
C881 C883 1.327 . S
C881 H904 0.950 . S
C882 C881 1.349 . S
C882 C894 1.349 . S
C883 C881 1.327 . S
C883 C899 1.429 . S
C883 H905 0.950 . S
C884 H880 0.949 . S
C884 C892 1.574 . S
C884 C900 1.368 . S
H885 C893 0.950 . S
H886 C891 0.950 . S
H887 C892 0.949 . S
H888 C894 0.950 . S
H889 C895 0.950 . S
H890 C896 0.949 . S
C891 H886 0.950 . S
C891 C893 1.327 . S
C891 C897 1.429 . S
C892 C884 1.574 . S
C892 H887 0.949 . S
C892 C898 1.368 . S
C893 C877 1.349 . S
C893 H885 0.950 . S
C893 C891 1.327 . S
C894 C882 1.349 . S
C894 H888 0.950 . S
C894 C895 1.327 . S
C895 H889 0.950 . S
C895 C894 1.327 . S
C895 C899 1.429 . S
C896 C879 1.574 . S
C896 H890 0.949 . S
C896 C900 1.368 . S
C897 C878 1.429 . S
C897 C891 1.429 . S
C897 C898 1.523 . S
C898 C879 1.368 . S
C898 C892 1.368 . S
C898 C897 1.523 . S
C899 C883 1.429 . S
C899 C895 1.429 . S
C899 C900 1.523 . S
C900 C884 1.368 . S
C900 C896 1.368 . S
C900 C899 1.523 . S
H901 C876 0.950 . S
H902 C878 0.950 . S
H903 C879 0.949 . S
H904 C881 0.950 . S
H905 C883 0.950 . S
C906 C907 1.349 . S
C906 C908 1.327 . S
C906 H931 0.950 . S
C907 C906 1.349 . S
C907 C923 1.349 . S
C908 C906 1.327 . S
C908 C927 1.429 . S
C908 H932 0.950 . S
C909 C926 1.574 . S
C909 C928 1.368 . S
C909 H933 0.949 . S
H910 C914 0.949 . S
C911 C912 1.349 . S
C911 C913 1.327 . S
C911 H934 0.950 . S
C912 C911 1.349 . S
C912 C924 1.349 . S
C913 C911 1.327 . S
C913 C929 1.429 . S
C913 H935 0.950 . S
C914 H910 0.949 . S
C914 C922 1.574 . S
C914 C930 1.368 . S
H915 C923 0.950 . S
H916 C921 0.950 . S
H917 C922 0.949 . S
H918 C924 0.950 . S
H919 C925 0.950 . S
H920 C926 0.949 . S
C921 H916 0.950 . S
C921 C923 1.327 . S
C921 C927 1.429 . S
C922 C914 1.574 . S
C922 H917 0.949 . S
C922 C928 1.368 . S
C923 C907 1.349 . S
C923 H915 0.950 . S
C923 C921 1.327 . S
C924 C912 1.349 . S
C924 H918 0.950 . S
C924 C925 1.327 . S
C925 H919 0.950 . S
C925 C924 1.327 . S
C925 C929 1.429 . S
C926 C909 1.574 . S
C926 H920 0.949 . S
C926 C930 1.368 . S
C927 C908 1.429 . S
C927 C921 1.429 . S
C927 C928 1.523 . S
C928 C909 1.368 . S
C928 C922 1.368 . S
C928 C927 1.523 . S
C929 C913 1.429 . S
C929 C925 1.429 . S
C929 C930 1.523 . S
C930 C914 1.368 . S
C930 C926 1.368 . S
C930 C929 1.523 . S
H931 C906 0.950 . S
H932 C908 0.950 . S
H933 C909 0.949 . S
H934 C911 0.950 . S
H935 C913 0.950 . S
C936 C937 1.349 . S
C936 C938 1.327 . S
C936 H961 0.950 . S
C937 C936 1.349 . S
C937 C953 1.349 . S
C938 C936 1.327 . S
C938 C957 1.429 . S
C938 H962 0.950 . S
C939 C956 1.574 . S
C939 C958 1.368 . S
C939 H963 0.949 . S
H940 C944 0.949 . S
C941 C942 1.349 . S
C941 C943 1.327 . S
C941 H964 0.950 . S
C942 C941 1.349 . S
C942 C954 1.349 . S
C943 C941 1.327 . S
C943 C959 1.429 . S
C943 H965 0.950 . S
C944 H940 0.949 . S
C944 C952 1.574 . S
C944 C960 1.368 . S
H945 C953 0.950 . S
H946 C951 0.950 . S
H947 C952 0.949 . S
H948 C954 0.950 . S
H949 C955 0.950 . S
H950 C956 0.949 . S
C951 H946 0.950 . S
C951 C953 1.327 . S
C951 C957 1.429 . S
C952 C944 1.574 . S
C952 H947 0.949 . S
C952 C958 1.368 . S
C953 C937 1.349 . S
C953 H945 0.950 . S
C953 C951 1.327 . S
C954 C942 1.349 . S
C954 H948 0.950 . S
C954 C955 1.327 . S
C955 H949 0.950 . S
C955 C954 1.327 . S
C955 C959 1.429 . S
C956 C939 1.574 . S
C956 H950 0.949 . S
C956 C960 1.368 . S
C957 C938 1.429 . S
C957 C951 1.429 . S
C957 C958 1.523 . S
C958 C939 1.368 . S
C958 C952 1.368 . S
C958 C957 1.523 . S
C959 C943 1.429 . S
C959 C955 1.429 . S
C959 C960 1.523 . S
C960 C944 1.368 . S
C960 C956 1.368 . S
C960 C959 1.523 . S
H961 C936 0.950 . S
H962 C938 0.950 . S
H963 C939 0.949 . S
H964 C941 0.950 . S
H965 C943 0.950 . S
C966 C967 1.349 . S
C966 C968 1.327 . S
C966 H991 0.950 . S
C967 C966 1.349 . S
C967 C983 1.349 . S
C968 C966 1.327 . S
C968 C987 1.429 . S
C968 H992 0.950 . S
C969 C986 1.574 . S
C969 C988 1.368 . S
C969 H993 0.949 . S
H970 C974 0.949 . S
C971 C972 1.349 . S
C971 C973 1.327 . S
C971 H994 0.950 . S
C972 C971 1.349 . S
C972 C984 1.349 . S
C973 C971 1.327 . S
C973 C989 1.429 . S
C973 H995 0.950 . S
C974 H970 0.949 . S
C974 C982 1.574 . S
C974 C990 1.368 . S
H975 C983 0.950 . S
H976 C981 0.950 . S
H977 C982 0.949 . S
H978 C984 0.950 . S
H979 C985 0.950 . S
H980 C986 0.949 . S
C981 H976 0.950 . S
C981 C983 1.327 . S
C981 C987 1.429 . S
C982 C974 1.574 . S
C982 H977 0.949 . S
C982 C988 1.368 . S
C983 C967 1.349 . S
C983 H975 0.950 . S
C983 C981 1.327 . S
C984 C972 1.349 . S
C984 H978 0.950 . S
C984 C985 1.327 . S
C985 H979 0.950 . S
C985 C984 1.327 . S
C985 C989 1.429 . S
C986 C969 1.574 . S
C986 H980 0.949 . S
C986 C990 1.368 . S
C987 C968 1.429 . S
C987 C981 1.429 . S
C987 C988 1.523 . S
C988 C969 1.368 . S
C988 C982 1.368 . S
C988 C987 1.523 . S
C989 C973 1.429 . S
C989 C985 1.429 . S
C989 C990 1.523 . S
C990 C974 1.368 . S
C990 C986 1.368 . S
C990 C989 1.523 . S
H991 C966 0.950 . S
H992 C968 0.950 . S
H993 C969 0.949 . S
H994 C971 0.950 . S
H995 C973 0.950 . S
C996 C997 1.349 . S
C996 C998 1.327 . S
C996 H1021 0.950 . S
C997 C996 1.349 . S
C997 C1013 1.349 . S
C998 C996 1.327 . S
C998 C1017 1.429 . S
C998 H1022 0.950 . S
C999 C1016 1.574 . S
C999 C1018 1.368 . S
C999 H1023 0.949 . S
H1000 C1004 0.949 . S
C1001 C1002 1.349 . S
C1001 C1003 1.327 . S
C1001 H1024 0.950 . S
C1002 C1001 1.349 . S
C1002 C1014 1.349 . S
C1003 C1001 1.327 . S
C1003 C1019 1.429 . S
C1003 H1025 0.950 . S
C1004 H1000 0.949 . S
C1004 C1012 1.574 . S
C1004 C1020 1.368 . S
H1005 C1013 0.950 . S
H1006 C1011 0.950 . S
H1007 C1012 0.949 . S
H1008 C1014 0.950 . S
H1009 C1015 0.950 . S
H1010 C1016 0.949 . S
C1011 H1006 0.950 . S
C1011 C1013 1.327 . S
C1011 C1017 1.429 . S
C1012 C1004 1.574 . S
C1012 H1007 0.949 . S
C1012 C1018 1.368 . S
C1013 C997 1.349 . S
C1013 H1005 0.950 . S
C1013 C1011 1.327 . S
C1014 C1002 1.349 . S
C1014 H1008 0.950 . S
C1014 C1015 1.327 . S
C1015 H1009 0.950 . S
C1015 C1014 1.327 . S
C1015 C1019 1.429 . S
C1016 C999 1.574 . S
C1016 H1010 0.949 . S
C1016 C1020 1.368 . S
C1017 C998 1.429 . S
C1017 C1011 1.429 . S
C1017 C1018 1.523 . S
C1018 C999 1.368 . S
C1018 C1012 1.368 . S
C1018 C1017 1.523 . S
C1019 C1003 1.429 . S
C1019 C1015 1.429 . S
C1019 C1020 1.523 . S
C1020 C1004 1.368 . S
C1020 C1016 1.368 . S
C1020 C1019 1.523 . S
H1021 C996 0.950 . S
H1022 C998 0.950 . S
H1023 C999 0.949 . S
H1024 C1001 0.950 . S
H1025 C1003 0.950 . S
C1026 C1027 1.349 . S
C1026 C1028 1.327 . S
C1026 H1051 0.950 . S
C1027 C1026 1.349 . S
C1027 C1043 1.349 . S
C1028 C1026 1.327 . S
C1028 C1047 1.429 . S
C1028 H1052 0.950 . S
C1029 C1046 1.574 . S
C1029 C1048 1.368 . S
C1029 H1053 0.949 . S
H1030 C1034 0.949 . S
C1031 C1032 1.349 . S
C1031 C1033 1.327 . S
C1031 H1054 0.950 . S
C1032 C1031 1.349 . S
C1032 C1044 1.349 . S
C1033 C1031 1.327 . S
C1033 C1049 1.429 . S
C1033 H1055 0.950 . S
C1034 H1030 0.949 . S
C1034 C1042 1.574 . S
C1034 C1050 1.368 . S
H1035 C1043 0.950 . S
H1036 C1041 0.950 . S
H1037 C1042 0.949 . S
H1038 C1044 0.950 . S
H1039 C1045 0.950 . S
H1040 C1046 0.949 . S
C1041 H1036 0.950 . S
C1041 C1043 1.327 . S
C1041 C1047 1.429 . S
C1042 C1034 1.574 . S
C1042 H1037 0.949 . S
C1042 C1048 1.368 . S
C1043 C1027 1.349 . S
C1043 H1035 0.950 . S
C1043 C1041 1.327 . S
C1044 C1032 1.349 . S
C1044 H1038 0.950 . S
C1044 C1045 1.327 . S
C1045 H1039 0.950 . S
C1045 C1044 1.327 . S
C1045 C1049 1.429 . S
C1046 C1029 1.574 . S
C1046 H1040 0.949 . S
C1046 C1050 1.368 . S
C1047 C1028 1.429 . S
C1047 C1041 1.429 . S
C1047 C1048 1.523 1_545 S
C1048 C1029 1.368 . S
C1048 C1042 1.368 . S
C1048 C1047 1.523 1_565 S
C1049 C1033 1.429 . S
C1049 C1045 1.429 . S
C1049 C1050 1.523 . S
C1050 C1034 1.368 . S
C1050 C1046 1.368 . S
C1050 C1049 1.523 . S
H1051 C1026 0.950 . S
H1052 C1028 0.950 . S
H1053 C1029 0.949 . S
H1054 C1031 0.950 . S
H1055 C1033 0.950 . S
C1056 C1057 1.349 . S
C1056 C1058 1.327 . S
C1056 H1081 0.950 . S
C1057 C1056 1.349 . S
C1057 C1073 1.349 . S
C1058 C1056 1.327 . S
C1058 C1077 1.429 . S
C1058 H1082 0.950 1_655 S
C1059 C1076 1.574 . S
C1059 C1078 1.368 . S
C1059 H1083 0.949 . S
H1060 C1064 0.949 . S
C1061 C1062 1.349 . S
C1061 C1063 1.327 . S
C1061 H1084 0.950 . S
C1062 C1061 1.349 . S
C1062 C1074 1.349 . S
C1063 C1061 1.327 . S
C1063 C1079 1.429 . S
C1063 H1085 0.950 . S
C1064 H1060 0.949 . S
C1064 C1072 1.574 . S
C1064 C1080 1.368 . S
H1065 C1073 0.950 . S
H1066 C1071 0.950 . S
H1067 C1072 0.949 . S
H1068 C1074 0.950 . S
H1069 C1075 0.950 . S
H1070 C1076 0.949 . S
C1071 H1066 0.950 . S
C1071 C1073 1.327 . S
C1071 C1077 1.429 . S
C1072 C1064 1.574 . S
C1072 H1067 0.949 . S
C1072 C1078 1.368 . S
C1073 C1057 1.349 . S
C1073 H1065 0.950 . S
C1073 C1071 1.327 . S
C1074 C1062 1.349 . S
C1074 H1068 0.950 . S
C1074 C1075 1.327 . S
C1075 H1069 0.950 . S
C1075 C1074 1.327 . S
C1075 C1079 1.429 . S
C1076 C1059 1.574 . S
C1076 H1070 0.949 . S
C1076 C1080 1.368 . S
C1077 C1058 1.429 . S
C1077 C1071 1.429 . S
C1077 C1078 1.523 1_655 S
C1078 C1059 1.368 . S
C1078 C1072 1.368 . S
C1078 C1077 1.523 1_455 S
C1079 C1063 1.429 . S
C1079 C1075 1.429 . S
C1079 C1080 1.523 . S
C1080 C1064 1.368 . S
C1080 C1076 1.368 . S
C1080 C1079 1.523 . S
H1081 C1056 0.950 . S
H1082 C1058 0.950 1_455 S
H1083 C1059 0.949 . S
H1084 C1061 0.950 . S
H1085 C1063 0.950 . S
C1086 C1087 1.349 . S
C1086 C1088 1.327 . S
C1086 H1111 0.950 . S
C1087 C1086 1.349 . S
C1087 C1103 1.349 . S
C1088 C1086 1.327 . S
C1088 C1107 1.429 . S
C1088 H1112 0.950 . S
C1089 C1106 1.574 . S
C1089 C1108 1.368 . S
C1089 H1113 0.949 . S
H1090 C1094 0.949 . S
C1091 C1092 1.349 . S
C1091 C1093 1.327 . S
C1091 H1114 0.950 . S
C1092 C1091 1.349 . S
C1092 C1104 1.349 . S
C1093 C1091 1.327 . S
C1093 C1109 1.429 . S
C1093 H1115 0.950 . S
C1094 H1090 0.949 . S
C1094 C1102 1.574 . S
C1094 C1110 1.368 . S
H1095 C1103 0.950 . S
H1096 C1101 0.950 . S
H1097 C1102 0.949 . S
H1098 C1104 0.950 . S
H1099 C1105 0.950 . S
H1100 C1106 0.949 . S
C1101 H1096 0.950 . S
C1101 C1103 1.327 . S
C1101 C1107 1.429 . S
C1102 C1094 1.574 . S
C1102 H1097 0.949 . S
C1102 C1108 1.368 . S
C1103 C1087 1.349 . S
C1103 H1095 0.950 . S
C1103 C1101 1.327 . S
C1104 C1092 1.349 . S
C1104 H1098 0.950 . S
C1104 C1105 1.327 . S
C1105 H1099 0.950 . S
C1105 C1104 1.327 . S
C1105 C1109 1.429 . S
C1106 C1089 1.574 . S
C1106 H1100 0.949 . S
C1106 C1110 1.368 . S
C1107 C1088 1.429 . S
C1107 C1101 1.429 . S
C1107 C1108 1.523 . S
C1108 C1089 1.368 . S
C1108 C1102 1.368 . S
C1108 C1107 1.523 . S
C1109 C1093 1.429 . S
C1109 C1105 1.429 . S
C1109 C1110 1.523 . S
C1110 C1094 1.368 . S
C1110 C1106 1.368 . S
C1110 C1109 1.523 . S
H1111 C1086 0.950 . S
H1112 C1088 0.950 . S
H1113 C1089 0.949 . S
H1114 C1091 0.950 . S
H1115 C1093 0.950 . S
C1116 C1117 1.349 . S
C1116 C1118 1.327 . S
C1116 H1141 0.950 . S
C1117 C1116 1.349 . S
C1117 C1133 1.349 . S
C1118 C1116 1.327 . S
C1118 C1137 1.429 . S
C1118 H1142 0.950 . S
C1119 C1136 1.574 . S
C1119 C1138 1.368 . S
C1119 H1143 0.949 . S
H1120 C1124 0.949 . S
C1121 C1122 1.349 . S
C1121 C1123 1.327 . S
C1121 H1144 0.950 . S
C1122 C1121 1.349 . S
C1122 C1134 1.349 . S
C1123 C1121 1.327 . S
C1123 C1139 1.429 . S
C1123 H1145 0.950 . S
C1124 H1120 0.949 . S
C1124 C1132 1.574 . S
C1124 C1140 1.368 . S
H1125 C1133 0.950 . S
H1126 C1131 0.950 . S
H1127 C1132 0.949 . S
H1128 C1134 0.950 . S
H1129 C1135 0.950 . S
H1130 C1136 0.949 . S
C1131 H1126 0.950 . S
C1131 C1133 1.327 . S
C1131 C1137 1.429 . S
C1132 C1124 1.574 . S
C1132 H1127 0.949 . S
C1132 C1138 1.368 . S
C1133 C1117 1.349 . S
C1133 H1125 0.950 . S
C1133 C1131 1.327 . S
C1134 C1122 1.349 . S
C1134 H1128 0.950 . S
C1134 C1135 1.327 . S
C1135 H1129 0.950 . S
C1135 C1134 1.327 . S
C1135 C1139 1.429 . S
C1136 C1119 1.574 . S
C1136 H1130 0.949 . S
C1136 C1140 1.368 . S
C1137 C1118 1.429 . S
C1137 C1131 1.429 . S
C1137 C1138 1.523 . S
C1138 C1119 1.368 . S
C1138 C1132 1.368 . S
C1138 C1137 1.523 . S
C1139 C1123 1.429 . S
C1139 C1135 1.429 . S
C1139 C1140 1.523 . S
C1140 C1124 1.368 . S
C1140 C1136 1.368 . S
C1140 C1139 1.523 . S
H1141 C1116 0.950 . S
H1142 C1118 0.950 . S
H1143 C1119 0.949 . S
H1144 C1121 0.950 . S
H1145 C1123 0.950 . S
C1146 C1147 1.349 . S
C1146 C1148 1.327 . S
C1146 H1171 0.950 . S
C1147 C1146 1.349 . S
C1147 C1163 1.349 . S
C1148 C1146 1.327 . S
C1148 C1167 1.429 . S
C1148 H1172 0.950 . S
C1149 C1166 1.574 . S
C1149 C1168 1.368 . S
C1149 H1173 0.949 . S
H1150 C1154 0.949 . S
C1151 C1152 1.349 . S
C1151 C1153 1.327 . S
C1151 H1174 0.950 . S
C1152 C1151 1.349 . S
C1152 C1164 1.349 . S
C1153 C1151 1.327 . S
C1153 C1169 1.429 . S
C1153 H1175 0.950 . S
C1154 H1150 0.949 . S
C1154 C1162 1.574 . S
C1154 C1170 1.368 . S
H1155 C1163 0.950 . S
H1156 C1161 0.950 . S
H1157 C1162 0.949 . S
H1158 C1164 0.950 . S
H1159 C1165 0.950 . S
H1160 C1166 0.949 . S
C1161 H1156 0.950 . S
C1161 C1163 1.327 . S
C1161 C1167 1.429 . S
C1162 C1154 1.574 . S
C1162 H1157 0.949 . S
C1162 C1168 1.368 . S
C1163 C1147 1.349 . S
C1163 H1155 0.950 . S
C1163 C1161 1.327 . S
C1164 C1152 1.349 . S
C1164 H1158 0.950 . S
C1164 C1165 1.327 . S
C1165 H1159 0.950 . S
C1165 C1164 1.327 . S
C1165 C1169 1.429 . S
C1166 C1149 1.574 . S
C1166 H1160 0.949 . S
C1166 C1170 1.368 . S
C1167 C1148 1.429 . S
C1167 C1161 1.429 . S
C1167 C1168 1.523 . S
C1168 C1149 1.368 . S
C1168 C1162 1.368 . S
C1168 C1167 1.523 . S
C1169 C1153 1.429 . S
C1169 C1165 1.429 . S
C1169 C1170 1.523 . S
C1170 C1154 1.368 . S
C1170 C1166 1.368 . S
C1170 C1169 1.523 . S
H1171 C1146 0.950 . S
H1172 C1148 0.950 . S
H1173 C1149 0.949 . S
H1174 C1151 0.950 . S
H1175 C1153 0.950 . S
C1176 C1177 1.349 . S
C1176 C1178 1.327 . S
C1176 H1201 0.950 . S
C1177 C1176 1.349 . S
C1177 C1193 1.349 . S
C1178 C1176 1.327 . S
C1178 C1197 1.429 . S
C1178 H1202 0.950 . S
C1179 C1196 1.574 . S
C1179 C1198 1.368 . S
C1179 H1203 0.949 . S
H1180 C1184 0.949 . S
C1181 C1182 1.349 . S
C1181 C1183 1.327 . S
C1181 H1204 0.950 . S
C1182 C1181 1.349 . S
C1182 C1194 1.349 . S
C1183 C1181 1.327 . S
C1183 C1199 1.429 . S
C1183 H1205 0.950 . S
C1184 H1180 0.949 . S
C1184 C1192 1.574 . S
C1184 C1200 1.368 . S
H1185 C1193 0.950 . S
H1186 C1191 0.950 . S
H1187 C1192 0.949 . S
H1188 C1194 0.950 . S
H1189 C1195 0.950 . S
H1190 C1196 0.949 . S
C1191 H1186 0.950 . S
C1191 C1193 1.327 . S
C1191 C1197 1.429 . S
C1192 C1184 1.574 . S
C1192 H1187 0.949 . S
C1192 C1198 1.368 . S
C1193 C1177 1.349 . S
C1193 H1185 0.950 . S
C1193 C1191 1.327 . S
C1194 C1182 1.349 . S
C1194 H1188 0.950 . S
C1194 C1195 1.327 . S
C1195 H1189 0.950 . S
C1195 C1194 1.327 . S
C1195 C1199 1.429 . S
C1196 C1179 1.574 . S
C1196 H1190 0.949 . S
C1196 C1200 1.368 . S
C1197 C1178 1.429 . S
C1197 C1191 1.429 . S
C1197 C1198 1.523 . S
C1198 C1179 1.368 . S
C1198 C1192 1.368 . S
C1198 C1197 1.523 . S
C1199 C1183 1.429 . S
C1199 C1195 1.429 . S
C1199 C1200 1.523 . S
C1200 C1184 1.368 . S
C1200 C1196 1.368 . S
C1200 C1199 1.523 . S
H1201 C1176 0.950 . S
H1202 C1178 0.950 . S
H1203 C1179 0.949 . S
H1204 C1181 0.950 . S
H1205 C1183 0.950 . S
C1206 C1207 1.349 . S
C1206 C1208 1.327 . S
C1206 H1231 0.950 . S
C1207 C1206 1.349 . S
C1207 C1223 1.349 . S
C1208 C1206 1.327 . S
C1208 C1227 1.429 . S
C1208 H1232 0.950 . S
C1209 C1226 1.574 1_565 S
C1209 C1228 1.368 . S
C1209 H1233 0.949 . S
H1210 C1214 0.949 . S
C1211 C1212 1.349 . S
C1211 C1213 1.327 . S
C1211 H1234 0.950 . S
C1212 C1211 1.349 . S
C1212 C1224 1.349 . S
C1213 C1211 1.327 . S
C1213 C1229 1.429 . S
C1213 H1235 0.950 . S
C1214 H1210 0.949 . S
C1214 C1222 1.574 1_545 S
C1214 C1230 1.368 . S
H1215 C1223 0.950 . S
H1216 C1221 0.950 . S
H1217 C1222 0.949 . S
H1218 C1224 0.950 . S
H1219 C1225 0.950 . S
H1220 C1226 0.949 . S
C1221 H1216 0.950 . S
C1221 C1223 1.327 . S
C1221 C1227 1.429 . S
C1222 C1214 1.574 1_565 S
C1222 H1217 0.949 . S
C1222 C1228 1.368 . S
C1223 C1207 1.349 . S
C1223 H1215 0.950 . S
C1223 C1221 1.327 . S
C1224 C1212 1.349 . S
C1224 H1218 0.950 . S
C1224 C1225 1.327 . S
C1225 H1219 0.950 . S
C1225 C1224 1.327 . S
C1225 C1229 1.429 . S
C1226 C1209 1.574 1_545 S
C1226 H1220 0.949 . S
C1226 C1230 1.368 . S
C1227 C1208 1.429 . S
C1227 C1221 1.429 . S
C1227 C1228 1.523 . S
C1228 C1209 1.368 . S
C1228 C1222 1.368 . S
C1228 C1227 1.523 . S
C1229 C1213 1.429 . S
C1229 C1225 1.429 . S
C1229 C1230 1.523 . S
C1230 C1214 1.368 . S
C1230 C1226 1.368 . S
C1230 C1229 1.523 . S
H1231 C1206 0.950 . S
H1232 C1208 0.950 . S
H1233 C1209 0.949 . S
H1234 C1211 0.950 . S
H1235 C1213 0.950 . S
C1236 C1237 1.349 . S
C1236 C1238 1.327 . S
C1236 H1261 0.950 . S
C1237 C1236 1.349 . S
C1237 C1253 1.349 . S
C1238 C1236 1.327 . S
C1238 C1257 1.429 . S
C1238 H1262 0.950 . S
C1239 C1256 1.574 1_455 S
C1239 C1258 1.368 . S
C1239 H1263 0.949 . S
H1240 C1244 0.974 . S
C1241 C1242 1.349 . S
C1241 C1243 1.327 . S
C1241 H1264 0.950 . S
C1242 C1241 1.349 . S
C1242 C1254 1.349 . S
C1243 C1241 1.327 . S
C1243 C1259 1.429 . S
C1243 H1265 0.950 . S
C1244 H1240 0.974 . S
C1244 C1252 1.542 1_655 S
C1244 C1260 1.374 . S
H1245 C1253 0.950 . S
H1246 C1251 0.950 . S
H1247 C1252 0.949 . S
H1248 C1254 0.950 . S
H1249 C1255 0.950 . S
H1250 C1256 0.949 . S
C1251 H1246 0.950 . S
C1251 C1253 1.327 . S
C1251 C1257 1.429 . S
C1252 C1244 1.542 1_455 S
C1252 H1247 0.949 . S
C1252 C1258 1.368 . S
C1253 C1237 1.349 . S
C1253 H1245 0.950 . S
C1253 C1251 1.327 . S
C1254 C1242 1.349 . S
C1254 H1248 0.950 . S
C1254 C1255 1.327 . S
C1255 H1249 0.950 . S
C1255 C1254 1.327 . S
C1255 C1259 1.429 . S
C1256 C1239 1.574 1_655 S
C1256 H1250 0.949 . S
C1256 C1260 1.368 . S
C1257 C1238 1.429 . S
C1257 C1251 1.429 . S
C1257 C1258 1.523 . S
C1258 C1239 1.368 . S
C1258 C1252 1.368 . S
C1258 C1257 1.523 . S
C1259 C1243 1.429 . S
C1259 C1255 1.429 . S
C1259 C1260 1.523 . S
C1260 C1244 1.374 . S
C1260 C1256 1.368 . S
C1260 C1259 1.523 . S
H1261 C1236 0.950 . S
H1262 C1238 0.950 . S
H1263 C1239 0.949 . S
H1264 C1241 0.950 . S
H1265 C1243 0.950 . S
C1266 C1267 1.349 . S
C1266 C1268 1.327 . S
C1266 H1291 0.950 . S
C1267 C1266 1.349 . S
C1267 C1283 1.349 . S
C1268 C1266 1.327 . S
C1268 C1287 1.429 . S
C1268 H1292 0.950 . S
C1269 C1286 1.574 . S
C1269 C1288 1.368 . S
C1269 H1293 0.949 . S
H1270 C1274 0.949 . S
C1271 C1272 1.349 . S
C1271 C1273 1.327 . S
C1271 H1294 0.950 . S
C1272 C1271 1.349 . S
C1272 C1284 1.349 . S
C1273 C1271 1.327 . S
C1273 C1289 1.429 . S
C1273 H1295 0.950 . S
C1274 H1270 0.949 . S
C1274 C1282 1.574 . S
C1274 C1290 1.368 . S
H1275 C1283 0.950 . S
H1276 C1281 0.950 . S
H1277 C1282 0.949 . S
H1278 C1284 0.950 . S
H1279 C1285 0.950 . S
H1280 C1286 0.949 . S
C1281 H1276 0.950 . S
C1281 C1283 1.327 . S
C1281 C1287 1.429 . S
C1282 C1274 1.574 . S
C1282 H1277 0.949 . S
C1282 C1288 1.368 . S
C1283 C1267 1.349 . S
C1283 H1275 0.950 . S
C1283 C1281 1.327 . S
C1284 C1272 1.349 . S
C1284 H1278 0.950 . S
C1284 C1285 1.327 . S
C1285 H1279 0.950 . S
C1285 C1284 1.327 . S
C1285 C1289 1.429 . S
C1286 C1269 1.574 . S
C1286 H1280 0.949 . S
C1286 C1290 1.368 . S
C1287 C1268 1.429 . S
C1287 C1281 1.429 . S
C1287 C1288 1.523 . S
C1288 C1269 1.368 . S
C1288 C1282 1.368 . S
C1288 C1287 1.523 . S
C1289 C1273 1.429 . S
C1289 C1285 1.429 . S
C1289 C1290 1.523 . S
C1290 C1274 1.368 . S
C1290 C1286 1.368 . S
C1290 C1289 1.523 . S
H1291 C1266 0.950 . S
H1292 C1268 0.950 . S
H1293 C1269 0.949 . S
H1294 C1271 0.950 . S
H1295 C1273 0.950 . S
C1296 C1297 1.349 . S
C1296 C1298 1.327 . S
C1296 H1321 0.950 . S
C1297 C1296 1.349 . S
C1297 C1313 1.349 . S
C1298 C1296 1.327 . S
C1298 C1317 1.429 . S
C1298 H1322 0.950 . S
C1299 C1316 1.574 . S
C1299 C1318 1.368 . S
C1299 H1323 0.949 . S
H1300 C1304 0.949 . S
C1301 C1302 1.349 . S
C1301 C1303 1.327 . S
C1301 H1324 0.950 . S
C1302 C1301 1.349 . S
C1302 C1314 1.349 . S
C1303 C1301 1.327 . S
C1303 C1319 1.429 . S
C1303 H1325 0.950 . S
C1304 H1300 0.949 . S
C1304 C1312 1.574 . S
C1304 C1320 1.368 . S
H1305 C1313 0.950 . S
H1306 C1311 0.950 . S
H1307 C1312 0.949 1_455 S
H1308 C1314 0.950 . S
H1309 C1315 0.950 . S
H1310 C1316 0.949 . S
C1311 H1306 0.950 . S
C1311 C1313 1.327 . S
C1311 C1317 1.429 . S
C1312 C1304 1.574 . S
C1312 H1307 0.949 1_655 S
C1312 C1318 1.368 . S
C1313 C1297 1.349 . S
C1313 H1305 0.950 . S
C1313 C1311 1.327 . S
C1314 C1302 1.349 . S
C1314 H1308 0.950 . S
C1314 C1315 1.327 . S
C1315 H1309 0.950 . S
C1315 C1314 1.327 . S
C1315 C1319 1.429 . S
C1316 C1299 1.574 . S
C1316 H1310 0.949 . S
C1316 C1320 1.368 . S
C1317 C1298 1.429 . S
C1317 C1311 1.429 . S
C1317 C1318 1.523 1_455 S
C1318 C1299 1.368 . S
C1318 C1312 1.368 . S
C1318 C1317 1.523 1_655 S
C1319 C1303 1.429 . S
C1319 C1315 1.429 . S
C1319 C1320 1.523 . S
C1320 C1304 1.368 . S
C1320 C1316 1.368 . S
C1320 C1319 1.523 . S
H1321 C1296 0.950 . S
H1322 C1298 0.950 . S
H1323 C1299 0.949 . S
H1324 C1301 0.950 . S
H1325 C1303 0.950 . S
C1326 C1327 1.349 . S
C1326 C1328 1.327 . S
C1326 H1351 0.950 . S
C1327 C1326 1.349 . S
C1327 C1343 1.349 . S
C1328 C1326 1.327 . S
C1328 C1347 1.429 . S
C1328 H1352 0.950 . S
C1329 C1346 1.574 . S
C1329 C1348 1.368 . S
C1329 H1353 0.949 . S
H1330 C1334 0.949 . S
C1331 C1332 1.349 . S
C1331 C1333 1.327 . S
C1331 H1354 0.950 . S
C1332 C1331 1.349 . S
C1332 C1344 1.349 . S
C1333 C1331 1.327 . S
C1333 C1349 1.429 . S
C1333 H1355 0.950 . S
C1334 H1330 0.949 . S
C1334 C1342 1.574 . S
C1334 C1350 1.368 . S
H1335 C1343 0.950 . S
H1336 C1341 0.950 . S
H1337 C1342 0.949 . S
H1338 C1344 0.950 . S
H1339 C1345 0.950 . S
H1340 C1346 0.949 . S
C1341 H1336 0.950 . S
C1341 C1343 1.327 . S
C1341 C1347 1.429 . S
C1342 C1334 1.574 . S
C1342 H1337 0.949 . S
C1342 C1348 1.368 . S
C1343 C1327 1.349 . S
C1343 H1335 0.950 . S
C1343 C1341 1.327 . S
C1344 C1332 1.349 . S
C1344 H1338 0.950 . S
C1344 C1345 1.327 . S
C1345 H1339 0.950 . S
C1345 C1344 1.327 . S
C1345 C1349 1.429 . S
C1346 C1329 1.574 . S
C1346 H1340 0.949 . S
C1346 C1350 1.368 . S
C1347 C1328 1.429 . S
C1347 C1341 1.429 . S
C1347 C1348 1.523 . S
C1348 C1329 1.368 . S
C1348 C1342 1.368 . S
C1348 C1347 1.523 . S
C1349 C1333 1.429 . S
C1349 C1345 1.429 . S
C1349 C1350 1.523 . S
C1350 C1334 1.368 . S
C1350 C1346 1.368 . S
C1350 C1349 1.523 . S
H1351 C1326 0.950 . S
H1352 C1328 0.950 . S
H1353 C1329 0.949 . S
H1354 C1331 0.950 . S
H1355 C1333 0.950 . S
C1356 C1357 1.349 . S
C1356 C1358 1.327 . S
C1356 H1381 0.950 . S
C1357 C1356 1.349 . S
C1357 C1373 1.349 . S
C1358 C1356 1.327 . S
C1358 C1377 1.429 . S
C1358 H1382 0.950 . S
C1359 C1376 1.574 . S
C1359 C1378 1.368 . S
C1359 H1383 0.949 . S
H1360 C1364 0.949 . S
C1361 C1362 1.349 . S
C1361 C1363 1.327 . S
C1361 H1384 0.950 . S
C1362 C1361 1.349 . S
C1362 C1374 1.349 . S
C1363 C1361 1.327 . S
C1363 C1379 1.429 . S
C1363 H1385 0.950 . S
C1364 H1360 0.949 . S
C1364 C1372 1.574 . S
C1364 C1380 1.368 . S
H1365 C1373 0.950 . S
H1366 C1371 0.950 . S
H1367 C1372 0.949 . S
H1368 C1374 0.950 . S
H1369 C1375 0.950 . S
H1370 C1376 0.949 . S
C1371 H1366 0.950 . S
C1371 C1373 1.327 . S
C1371 C1377 1.429 . S
C1372 C1364 1.574 . S
C1372 H1367 0.949 . S
C1372 C1378 1.368 . S
C1373 C1357 1.349 . S
C1373 H1365 0.950 . S
C1373 C1371 1.327 . S
C1374 C1362 1.349 . S
C1374 H1368 0.950 . S
C1374 C1375 1.327 . S
C1375 H1369 0.950 . S
C1375 C1374 1.327 . S
C1375 C1379 1.429 . S
C1376 C1359 1.574 . S
C1376 H1370 0.949 . S
C1376 C1380 1.368 . S
C1377 C1358 1.429 . S
C1377 C1371 1.429 . S
C1377 C1378 1.523 1_565 S
C1378 C1359 1.368 . S
C1378 C1372 1.368 . S
C1378 C1377 1.523 1_545 S
C1379 C1363 1.429 . S
C1379 C1375 1.429 . S
C1379 C1380 1.523 . S
C1380 C1364 1.368 . S
C1380 C1376 1.368 . S
C1380 C1379 1.523 . S
H1381 C1356 0.950 . S
H1382 C1358 0.950 . S
H1383 C1359 0.949 . S
H1384 C1361 0.950 . S
H1385 C1363 0.950 . S
C1386 C1387 1.349 . S
C1386 C1388 1.327 . S
C1386 H1411 0.950 . S
C1387 C1386 1.349 . S
C1387 C1403 1.349 . S
C1388 C1386 1.327 . S
C1388 C1407 1.429 . S
C1388 H1412 0.950 . S
C1389 C1406 1.574 . S
C1389 C1408 1.368 . S
C1389 H1413 0.949 . S
H1390 C1394 0.949 . S
C1391 C1392 1.349 . S
C1391 C1393 1.327 . S
C1391 H1414 0.950 . S
C1392 C1391 1.349 . S
C1392 C1404 1.349 . S
C1393 C1391 1.327 . S
C1393 C1409 1.429 . S
C1393 H1415 0.950 . S
C1394 H1390 0.949 . S
C1394 C1402 1.574 . S
C1394 C1410 1.368 . S
H1395 C1403 0.950 . S
H1396 C1401 0.950 . S
H1397 C1402 0.949 . S
H1398 C1404 0.950 . S
H1399 C1405 0.950 . S
H1400 C1406 0.949 . S
C1401 H1396 0.950 . S
C1401 C1403 1.327 . S
C1401 C1407 1.429 . S
C1402 C1394 1.574 . S
C1402 H1397 0.949 . S
C1402 C1408 1.368 . S
C1403 C1387 1.349 . S
C1403 H1395 0.950 . S
C1403 C1401 1.327 . S
C1404 C1392 1.349 . S
C1404 H1398 0.950 . S
C1404 C1405 1.327 . S
C1405 H1399 0.950 . S
C1405 C1404 1.327 . S
C1405 C1409 1.429 . S
C1406 C1389 1.574 . S
C1406 H1400 0.949 . S
C1406 C1410 1.368 . S
C1407 C1388 1.429 . S
C1407 C1401 1.429 . S
C1407 C1408 1.523 . S
C1408 C1389 1.368 . S
C1408 C1402 1.368 . S
C1408 C1407 1.523 . S
C1409 C1393 1.429 . S
C1409 C1405 1.429 . S
C1409 C1410 1.523 . S
C1410 C1394 1.368 . S
C1410 C1406 1.368 . S
C1410 C1409 1.523 . S
H1411 C1386 0.950 . S
H1412 C1388 0.950 . S
H1413 C1389 0.949 . S
H1414 C1391 0.950 . S
H1415 C1393 0.950 . S
C1416 C1417 1.349 . S
C1416 C1418 1.327 . S
C1416 H1441 0.950 . S
C1417 C1416 1.349 . S
C1417 C1433 1.349 . S
C1418 C1416 1.327 . S
C1418 C1437 1.429 . S
C1418 H1442 0.950 . S
C1419 C1436 1.574 . S
C1419 C1438 1.368 . S
C1419 H1443 0.949 . S
H1420 C1424 0.949 . S
C1421 C1422 1.349 . S
C1421 C1423 1.327 . S
C1421 H1444 0.950 . S
C1422 C1421 1.349 . S
C1422 C1434 1.349 . S
C1423 C1421 1.327 . S
C1423 C1439 1.429 . S
C1423 H1445 0.950 . S
C1424 H1420 0.949 . S
C1424 C1432 1.574 . S
C1424 C1440 1.368 . S
H1425 C1433 0.950 . S
H1426 C1431 0.950 . S
H1427 C1432 0.949 . S
H1428 C1434 0.950 . S
H1429 C1435 0.950 . S
H1430 C1436 0.949 . S
C1431 H1426 0.950 . S
C1431 C1433 1.327 . S
C1431 C1437 1.429 . S
C1432 C1424 1.574 . S
C1432 H1427 0.949 . S
C1432 C1438 1.368 . S
C1433 C1417 1.349 . S
C1433 H1425 0.950 . S
C1433 C1431 1.327 . S
C1434 C1422 1.349 . S
C1434 H1428 0.950 . S
C1434 C1435 1.327 . S
C1435 H1429 0.950 . S
C1435 C1434 1.327 . S
C1435 C1439 1.429 . S
C1436 C1419 1.574 . S
C1436 H1430 0.949 . S
C1436 C1440 1.368 . S
C1437 C1418 1.429 . S
C1437 C1431 1.429 . S
C1437 C1438 1.523 . S
C1438 C1419 1.368 . S
C1438 C1432 1.368 . S
C1438 C1437 1.523 . S
C1439 C1423 1.429 . S
C1439 C1435 1.429 . S
C1439 C1440 1.523 . S
C1440 C1424 1.368 . S
C1440 C1436 1.368 . S
C1440 C1439 1.523 . S
H1441 C1416 0.950 . S
H1442 C1418 0.950 . S
H1443 C1419 0.949 . S
H1444 C1421 0.950 . S
H1445 C1423 0.950 . S
C1446 C1447 1.349 . S
C1446 C1448 1.327 . S
C1446 H1471 0.950 . S
C1447 C1446 1.349 . S
C1447 C1463 1.349 . S
C1448 C1446 1.327 . S
C1448 C1467 1.429 . S
C1448 H1472 0.950 . S
C1449 C1466 1.574 . S
C1449 C1468 1.368 . S
C1449 H1473 0.949 . S
H1450 C1454 0.949 . S
C1451 C1452 1.349 . S
C1451 C1453 1.327 . S
C1451 H1474 0.950 . S
C1452 C1451 1.349 . S
C1452 C1464 1.349 . S
C1453 C1451 1.327 . S
C1453 C1469 1.429 . S
C1453 H1475 0.950 . S
C1454 H1450 0.949 . S
C1454 C1462 1.574 . S
C1454 C1470 1.368 . S
H1455 C1463 0.950 . S
H1456 C1461 0.950 . S
H1457 C1462 0.949 . S
H1458 C1464 0.950 . S
H1459 C1465 0.950 . S
H1460 C1466 0.949 . S
C1461 H1456 0.950 . S
C1461 C1463 1.327 . S
C1461 C1467 1.429 . S
C1462 C1454 1.574 . S
C1462 H1457 0.949 . S
C1462 C1468 1.368 . S
C1463 C1447 1.349 . S
C1463 H1455 0.950 . S
C1463 C1461 1.327 . S
C1464 C1452 1.349 . S
C1464 H1458 0.950 . S
C1464 C1465 1.327 . S
C1465 H1459 0.950 . S
C1465 C1464 1.327 . S
C1465 C1469 1.429 . S
C1466 C1449 1.574 . S
C1466 H1460 0.949 . S
C1466 C1470 1.368 . S
C1467 C1448 1.429 . S
C1467 C1461 1.429 . S
C1467 C1468 1.523 . S
C1468 C1449 1.368 . S
C1468 C1462 1.368 . S
C1468 C1467 1.523 . S
C1469 C1453 1.429 . S
C1469 C1465 1.429 . S
C1469 C1470 1.523 . S
C1470 C1454 1.368 . S
C1470 C1466 1.368 . S
C1470 C1469 1.523 . S
H1471 C1446 0.950 . S
H1472 C1448 0.950 . S
H1473 C1449 0.949 . S
H1474 C1451 0.950 . S
H1475 C1453 0.950 . S
C1476 C1477 1.349 . S
C1476 C1478 1.327 . S
C1476 H1501 0.950 . S
C1477 C1476 1.349 . S
C1477 C1493 1.349 . S
C1478 C1476 1.327 . S
C1478 C1497 1.429 . S
C1478 H1502 0.950 . S
C1479 C1496 1.574 . S
C1479 C1498 1.368 . S
C1479 H1503 0.949 . S
H1480 C1484 0.949 . S
C1481 C1482 1.349 . S
C1481 C1483 1.327 . S
C1481 H1504 0.950 1_565 S
C1482 C1481 1.349 . S
C1482 C1494 1.349 . S
C1483 C1481 1.327 . S
C1483 C1499 1.429 . S
C1483 H1505 0.950 . S
C1484 H1480 0.949 . S
C1484 C1492 1.574 . S
C1484 C1500 1.368 . S
H1485 C1493 0.950 . S
H1486 C1491 0.950 . S
H1487 C1492 0.949 . S
H1488 C1494 0.950 . S
H1489 C1495 0.950 . S
H1490 C1496 0.949 . S
C1491 H1486 0.950 . S
C1491 C1493 1.327 . S
C1491 C1497 1.429 . S
C1492 C1484 1.574 . S
C1492 H1487 0.949 . S
C1492 C1498 1.368 . S
C1493 C1477 1.349 . S
C1493 H1485 0.950 . S
C1493 C1491 1.327 . S
C1494 C1482 1.349 . S
C1494 H1488 0.950 . S
C1494 C1495 1.327 . S
C1495 H1489 0.950 . S
C1495 C1494 1.327 . S
C1495 C1499 1.429 . S
C1496 C1479 1.574 . S
C1496 H1490 0.949 . S
C1496 C1500 1.368 . S
C1497 C1478 1.429 . S
C1497 C1491 1.429 . S
C1497 C1498 1.523 . S
C1498 C1479 1.368 . S
C1498 C1492 1.368 . S
C1498 C1497 1.523 . S
C1499 C1483 1.429 . S
C1499 C1495 1.429 . S
C1499 C1500 1.523 . S
C1500 C1484 1.368 . S
C1500 C1496 1.368 . S
C1500 C1499 1.523 . S
H1501 C1476 0.950 . S
H1502 C1478 0.950 . S
H1503 C1479 0.949 . S
H1504 C1481 0.950 1_545 S
H1505 C1483 0.950 . S
C1506 C1507 1.349 . S
C1506 C1508 1.327 . S
C1506 H1531 0.950 . S
C1507 C1506 1.349 . S
C1507 C1523 1.349 . S
C1508 C1506 1.327 . S
C1508 C1527 1.429 . S
C1508 H1532 0.950 . S
C1509 C1526 1.574 . S
C1509 C1528 1.368 . S
C1509 H1533 0.949 . S
H1510 C1514 0.949 . S
C1511 C1512 1.349 . S
C1511 C1513 1.327 . S
C1511 H1534 0.952 . S
C1512 C1511 1.349 . S
C1512 C1524 1.349 . S
C1513 C1511 1.327 . S
C1513 C1529 1.429 . S
C1513 H1535 0.950 . S
C1514 H1510 0.949 . S
C1514 C1522 1.574 . S
C1514 C1530 1.368 . S
H1515 C1523 0.950 . S
H1516 C1521 0.950 . S
H1517 C1522 0.949 . S
H1518 C1524 0.950 . S
H1519 C1525 0.950 . S
H1520 C1526 0.949 . S
C1521 H1516 0.950 . S
C1521 C1523 1.327 . S
C1521 C1527 1.429 . S
C1522 C1514 1.574 . S
C1522 H1517 0.949 . S
C1522 C1528 1.368 . S
C1523 C1507 1.349 . S
C1523 H1515 0.950 . S
C1523 C1521 1.327 . S
C1524 C1512 1.349 . S
C1524 H1518 0.950 . S
C1524 C1525 1.327 . S
C1525 H1519 0.950 . S
C1525 C1524 1.327 . S
C1525 C1529 1.429 . S
C1526 C1509 1.574 . S
C1526 H1520 0.949 . S
C1526 C1530 1.368 . S
C1527 C1508 1.429 . S
C1527 C1521 1.429 . S
C1527 C1528 1.523 . S
C1528 C1509 1.368 . S
C1528 C1522 1.368 . S
C1528 C1527 1.523 . S
C1529 C1513 1.429 . S
C1529 C1525 1.429 . S
C1529 C1530 1.523 . S
C1530 C1514 1.368 . S
C1530 C1526 1.368 . S
C1530 C1529 1.523 . S
H1531 C1506 0.950 . S
H1532 C1508 0.950 . S
H1533 C1509 0.949 . S
H1534 C1511 0.952 . S
H1535 C1513 0.950 . S
C1536 C1537 1.349 . S
C1536 C1538 1.327 . S
C1536 H1561 0.950 . S
C1537 C1536 1.349 . S
C1537 C1553 1.349 . S
C1538 C1536 1.327 . S
C1538 C1557 1.429 . S
C1538 H1562 0.950 . S
C1539 C1556 1.574 . S
C1539 C1558 1.368 . S
C1539 H1563 0.949 . S
H1540 C1544 0.949 . S
C1541 C1542 1.349 . S
C1541 C1543 1.327 . S
C1541 H1564 0.950 . S
C1542 C1541 1.349 . S
C1542 C1554 1.349 . S
C1543 C1541 1.327 . S
C1543 C1559 1.429 . S
C1543 H1565 0.950 . S
C1544 H1540 0.949 . S
C1544 C1552 1.574 . S
C1544 C1560 1.368 . S
H1545 C1553 0.950 . S
H1546 C1551 0.950 . S
H1547 C1552 0.949 . S
H1548 C1554 0.950 . S
H1549 C1555 0.950 . S
H1550 C1556 0.949 . S
C1551 H1546 0.950 . S
C1551 C1553 1.327 . S
C1551 C1557 1.429 . S
C1552 C1544 1.574 . S
C1552 H1547 0.949 . S
C1552 C1558 1.368 . S
C1553 C1537 1.349 . S
C1553 H1545 0.950 . S
C1553 C1551 1.327 . S
C1554 C1542 1.349 . S
C1554 H1548 0.950 . S
C1554 C1555 1.327 . S
C1555 H1549 0.950 . S
C1555 C1554 1.327 . S
C1555 C1559 1.429 . S
C1556 C1539 1.574 . S
C1556 H1550 0.949 . S
C1556 C1560 1.368 . S
C1557 C1538 1.429 . S
C1557 C1551 1.429 . S
C1557 C1558 1.523 . S
C1558 C1539 1.368 . S
C1558 C1552 1.368 . S
C1558 C1557 1.523 . S
C1559 C1543 1.429 . S
C1559 C1555 1.429 . S
C1559 C1560 1.523 . S
C1560 C1544 1.368 . S
C1560 C1556 1.368 . S
C1560 C1559 1.523 . S
H1561 C1536 0.950 . S
H1562 C1538 0.950 . S
H1563 C1539 0.949 . S
H1564 C1541 0.950 . S
H1565 C1543 0.950 . S
C1566 C1567 1.349 . S
C1566 C1568 1.327 . S
C1566 H1591 0.950 . S
C1567 C1566 1.349 . S
C1567 C1583 1.349 . S
C1568 C1566 1.327 . S
C1568 C1587 1.429 . S
C1568 H1592 0.950 . S
C1569 C1586 1.574 . S
C1569 C1588 1.368 . S
C1569 H1593 0.949 . S
H1570 C1574 0.949 . S
C1571 C1572 1.349 . S
C1571 C1573 1.327 . S
C1571 H1594 0.950 . S
C1572 C1571 1.349 . S
C1572 C1584 1.349 . S
C1573 C1571 1.327 . S
C1573 C1589 1.429 . S
C1573 H1595 0.950 . S
C1574 H1570 0.949 . S
C1574 C1582 1.574 . S
C1574 C1590 1.368 . S
H1575 C1583 0.950 . S
H1576 C1581 0.950 . S
H1577 C1582 0.949 . S
H1578 C1584 0.950 . S
H1579 C1585 0.950 . S
H1580 C1586 0.949 . S
C1581 H1576 0.950 . S
C1581 C1583 1.327 . S
C1581 C1587 1.429 . S
C1582 C1574 1.574 . S
C1582 H1577 0.949 . S
C1582 C1588 1.368 . S
C1583 C1567 1.349 . S
C1583 H1575 0.950 . S
C1583 C1581 1.327 . S
C1584 C1572 1.349 . S
C1584 H1578 0.950 . S
C1584 C1585 1.327 . S
C1585 H1579 0.950 . S
C1585 C1584 1.327 . S
C1585 C1589 1.429 . S
C1586 C1569 1.574 . S
C1586 H1580 0.949 . S
C1586 C1590 1.368 . S
C1587 C1568 1.429 . S
C1587 C1581 1.429 . S
C1587 C1588 1.523 . S
C1588 C1569 1.368 . S
C1588 C1582 1.368 . S
C1588 C1587 1.523 . S
C1589 C1573 1.429 . S
C1589 C1585 1.429 . S
C1589 C1590 1.523 . S
C1590 C1574 1.368 . S
C1590 C1586 1.368 . S
C1590 C1589 1.523 . S
H1591 C1566 0.950 . S
H1592 C1568 0.950 . S
H1593 C1569 0.949 . S
H1594 C1571 0.950 . S
H1595 C1573 0.950 . S
C1596 C1597 1.349 . S
C1596 C1598 1.327 . S
C1596 H1621 0.950 . S
C1597 C1596 1.349 . S
C1597 C1613 1.349 . S
C1598 C1596 1.327 . S
C1598 C1617 1.429 . S
C1598 H1622 0.950 . S
C1599 C1616 1.574 . S
C1599 C1618 1.368 . S
C1599 H1623 0.949 . S
H1600 C1604 0.949 . S
C1601 C1602 1.349 . S
C1601 C1603 1.327 . S
C1601 H1624 0.950 . S
C1602 C1601 1.349 . S
C1602 C1614 1.349 . S
C1603 C1601 1.327 . S
C1603 C1619 1.429 . S
C1603 H1625 0.950 . S
C1604 H1600 0.949 . S
C1604 C1612 1.574 . S
C1604 C1620 1.368 . S
H1605 C1613 0.950 . S
H1606 C1611 0.950 . S
H1607 C1612 0.949 . S
H1608 C1614 0.950 . S
H1609 C1615 0.950 . S
H1610 C1616 0.949 . S
C1611 H1606 0.950 . S
C1611 C1613 1.327 . S
C1611 C1617 1.429 . S
C1612 C1604 1.574 . S
C1612 H1607 0.949 . S
C1612 C1618 1.368 . S
C1613 C1597 1.349 . S
C1613 H1605 0.950 . S
C1613 C1611 1.327 . S
C1614 C1602 1.349 . S
C1614 H1608 0.950 . S
C1614 C1615 1.327 . S
C1615 H1609 0.950 . S
C1615 C1614 1.327 . S
C1615 C1619 1.429 . S
C1616 C1599 1.574 . S
C1616 H1610 0.949 . S
C1616 C1620 1.368 . S
C1617 C1598 1.429 . S
C1617 C1611 1.429 . S
C1617 C1618 1.523 . S
C1618 C1599 1.368 . S
C1618 C1612 1.368 . S
C1618 C1617 1.523 . S
C1619 C1603 1.429 . S
C1619 C1615 1.429 . S
C1619 C1620 1.523 . S
C1620 C1604 1.368 . S
C1620 C1616 1.368 . S
C1620 C1619 1.523 . S
H1621 C1596 0.950 . S
H1622 C1598 0.950 . S
H1623 C1599 0.949 . S
H1624 C1601 0.950 . S
H1625 C1603 0.950 . S
C1626 C1627 1.349 . S
C1626 C1628 1.327 . S
C1626 H1651 0.950 . S
C1627 C1626 1.349 . S
C1627 C1643 1.349 . S
C1628 C1626 1.327 . S
C1628 C1647 1.429 . S
C1628 H1652 0.950 . S
C1629 C1646 1.574 . S
C1629 C1648 1.368 . S
C1629 H1653 0.949 . S
H1630 C1634 0.949 . S
C1631 C1632 1.349 . S
C1631 C1633 1.327 . S
C1631 H1654 0.950 . S
C1632 C1631 1.349 . S
C1632 C1644 1.349 . S
C1633 C1631 1.327 . S
C1633 C1649 1.429 . S
C1633 H1655 0.950 . S
C1634 H1630 0.949 . S
C1634 C1642 1.574 . S
C1634 C1650 1.368 . S
H1635 C1643 0.950 . S
H1636 C1641 0.950 . S
H1637 C1642 0.949 . S
H1638 C1644 0.950 . S
H1639 C1645 0.950 . S
H1640 C1646 0.949 . S
C1641 H1636 0.950 . S
C1641 C1643 1.327 . S
C1641 C1647 1.429 . S
C1642 C1634 1.574 . S
C1642 H1637 0.949 . S
C1642 C1648 1.368 . S
C1643 C1627 1.349 . S
C1643 H1635 0.950 . S
C1643 C1641 1.327 . S
C1644 C1632 1.349 . S
C1644 H1638 0.950 . S
C1644 C1645 1.327 . S
C1645 H1639 0.950 . S
C1645 C1644 1.327 . S
C1645 C1649 1.429 . S
C1646 C1629 1.574 . S
C1646 H1640 0.949 . S
C1646 C1650 1.368 . S
C1647 C1628 1.429 . S
C1647 C1641 1.429 . S
C1647 C1648 1.523 . S
C1648 C1629 1.368 . S
C1648 C1642 1.368 . S
C1648 C1647 1.523 . S
C1649 C1633 1.429 . S
C1649 C1645 1.429 . S
C1649 C1650 1.523 . S
C1650 C1634 1.368 . S
C1650 C1646 1.368 . S
C1650 C1649 1.523 . S
H1651 C1626 0.950 . S
H1652 C1628 0.950 . S
H1653 C1629 0.949 . S
H1654 C1631 0.950 . S
H1655 C1633 0.950 . S
C1656 C1657 1.349 . S
C1656 C1658 1.327 . S
C1656 H1681 0.950 . S
C1657 C1656 1.349 . S
C1657 C1673 1.349 . S
C1658 C1656 1.327 . S
C1658 C1677 1.429 . S
C1658 H1682 0.950 . S
C1659 C1676 1.574 . S
C1659 C1678 1.368 . S
C1659 H1683 0.949 . S
H1660 C1664 0.949 . S
C1661 C1662 1.349 . S
C1661 C1663 1.327 . S
C1661 H1684 0.950 . S
C1662 C1661 1.349 . S
C1662 C1674 1.349 . S
C1663 C1661 1.327 . S
C1663 C1679 1.429 . S
C1663 H1685 0.950 . S
C1664 H1660 0.949 . S
C1664 C1672 1.574 . S
C1664 C1680 1.368 . S
H1665 C1673 0.950 . S
H1666 C1671 0.950 . S
H1667 C1672 0.949 . S
H1668 C1674 0.950 . S
H1669 C1675 0.950 . S
H1670 C1676 0.949 . S
C1671 H1666 0.950 . S
C1671 C1673 1.327 . S
C1671 C1677 1.429 . S
C1672 C1664 1.574 . S
C1672 H1667 0.949 . S
C1672 C1678 1.368 . S
C1673 C1657 1.349 . S
C1673 H1665 0.950 . S
C1673 C1671 1.327 . S
C1674 C1662 1.349 . S
C1674 H1668 0.950 . S
C1674 C1675 1.327 . S
C1675 H1669 0.950 . S
C1675 C1674 1.327 . S
C1675 C1679 1.429 . S
C1676 C1659 1.574 . S
C1676 H1670 0.949 . S
C1676 C1680 1.368 . S
C1677 C1658 1.429 . S
C1677 C1671 1.429 . S
C1677 C1678 1.523 . S
C1678 C1659 1.368 . S
C1678 C1672 1.368 . S
C1678 C1677 1.523 . S
C1679 C1663 1.429 . S
C1679 C1675 1.429 . S
C1679 C1680 1.523 . S
C1680 C1664 1.368 . S
C1680 C1676 1.368 . S
C1680 C1679 1.523 . S
H1681 C1656 0.950 . S
H1682 C1658 0.950 . S
H1683 C1659 0.949 . S
H1684 C1661 0.950 . S
H1685 C1663 0.950 . S
C1686 C1687 1.349 . S
C1686 C1688 1.327 . S
C1686 H1711 0.950 . S
C1687 C1686 1.349 . S
C1687 C1703 1.349 . S
C1688 C1686 1.327 . S
C1688 C1707 1.429 . S
C1688 H1712 0.950 . S
C1689 C1706 1.574 . S
C1689 C1708 1.368 . S
C1689 H1713 0.949 . S
H1690 C1694 0.949 . S
C1691 C1692 1.349 . S
C1691 C1693 1.327 . S
C1691 H1714 0.950 . S
C1692 C1691 1.349 . S
C1692 C1704 1.349 . S
C1693 C1691 1.327 . S
C1693 C1709 1.429 . S
C1693 H1715 0.950 . S
C1694 H1690 0.949 . S
C1694 C1702 1.574 . S
C1694 C1710 1.368 . S
H1695 C1703 0.950 . S
H1696 C1701 0.950 . S
H1697 C1702 0.949 . S
H1698 C1704 0.950 . S
H1699 C1705 0.950 . S
H1700 C1706 0.949 . S
C1701 H1696 0.950 . S
C1701 C1703 1.327 . S
C1701 C1707 1.429 . S
C1702 C1694 1.574 . S
C1702 H1697 0.949 . S
C1702 C1708 1.368 . S
C1703 C1687 1.349 . S
C1703 H1695 0.950 . S
C1703 C1701 1.327 . S
C1704 C1692 1.349 . S
C1704 H1698 0.950 . S
C1704 C1705 1.327 . S
C1705 H1699 0.950 . S
C1705 C1704 1.327 . S
C1705 C1709 1.429 . S
C1706 C1689 1.574 . S
C1706 H1700 0.949 . S
C1706 C1710 1.368 . S
C1707 C1688 1.429 . S
C1707 C1701 1.429 . S
C1707 C1708 1.523 . S
C1708 C1689 1.368 . S
C1708 C1702 1.368 . S
C1708 C1707 1.523 . S
C1709 C1693 1.429 . S
C1709 C1705 1.429 . S
C1709 C1710 1.523 . S
C1710 C1694 1.368 . S
C1710 C1706 1.368 . S
C1710 C1709 1.523 . S
H1711 C1686 0.950 . S
H1712 C1688 0.950 . S
H1713 C1689 0.949 . S
H1714 C1691 0.950 . S
H1715 C1693 0.950 . S
C1716 C1717 1.349 . S
C1716 C1718 1.327 . S
C1716 H1741 0.950 . S
C1717 C1716 1.349 . S
C1717 C1733 1.349 . S
C1718 C1716 1.327 . S
C1718 C1737 1.429 . S
C1718 H1742 0.950 . S
C1719 C1736 1.574 . S
C1719 C1738 1.368 . S
C1719 H1743 0.949 . S
H1720 C1724 0.949 . S
C1721 C1722 1.349 . S
C1721 C1723 1.327 . S
C1721 H1744 0.950 . S
C1722 C1721 1.349 . S
C1722 C1734 1.349 . S
C1723 C1721 1.327 . S
C1723 C1739 1.429 . S
C1723 H1745 0.950 . S
C1724 H1720 0.949 . S
C1724 C1732 1.574 . S
C1724 C1740 1.368 . S
H1725 C1733 0.950 . S
H1726 C1731 0.950 . S
H1727 C1732 0.949 . S
H1728 C1734 0.950 . S
H1729 C1735 0.950 . S
H1730 C1736 0.949 . S
C1731 H1726 0.950 . S
C1731 C1733 1.327 . S
C1731 C1737 1.429 . S
C1732 C1724 1.574 . S
C1732 H1727 0.949 . S
C1732 C1738 1.368 . S
C1733 C1717 1.349 . S
C1733 H1725 0.950 . S
C1733 C1731 1.327 . S
C1734 C1722 1.349 . S
C1734 H1728 0.950 . S
C1734 C1735 1.327 . S
C1735 H1729 0.950 . S
C1735 C1734 1.327 . S
C1735 C1739 1.429 . S
C1736 C1719 1.574 . S
C1736 H1730 0.949 . S
C1736 C1740 1.368 . S
C1737 C1718 1.429 . S
C1737 C1731 1.429 . S
C1737 C1738 1.523 . S
C1738 C1719 1.368 . S
C1738 C1732 1.368 . S
C1738 C1737 1.523 . S
C1739 C1723 1.429 . S
C1739 C1735 1.429 . S
C1739 C1740 1.523 . S
C1740 C1724 1.368 . S
C1740 C1736 1.368 . S
C1740 C1739 1.523 . S
H1741 C1716 0.950 . S
H1742 C1718 0.950 . S
H1743 C1719 0.949 . S
H1744 C1721 0.950 . S
H1745 C1723 0.950 . S
C1746 C1747 1.349 . S
C1746 C1748 1.327 . S
C1746 H1771 0.950 . S
C1747 C1746 1.349 . S
C1747 C1763 1.349 . S
C1748 C1746 1.327 . S
C1748 C1767 1.429 . S
C1748 H1772 0.950 . S
C1749 C1766 1.574 . S
C1749 C1768 1.368 . S
C1749 H1773 0.949 . S
H1750 C1754 0.949 . S
C1751 C1752 1.349 . S
C1751 C1753 1.327 . S
C1751 H1774 0.950 . S
C1752 C1751 1.349 . S
C1752 C1764 1.349 . S
C1753 C1751 1.327 . S
C1753 C1769 1.429 . S
C1753 H1775 0.950 . S
C1754 H1750 0.949 . S
C1754 C1762 1.574 . S
C1754 C1770 1.368 . S
H1755 C1763 0.950 . S
H1756 C1761 0.950 . S
H1757 C1762 0.949 . S
H1758 C1764 0.950 . S
H1759 C1765 0.950 . S
H1760 C1766 0.949 . S
C1761 H1756 0.950 . S
C1761 C1763 1.327 . S
C1761 C1767 1.429 . S
C1762 C1754 1.574 . S
C1762 H1757 0.949 . S
C1762 C1768 1.368 . S
C1763 C1747 1.349 . S
C1763 H1755 0.950 . S
C1763 C1761 1.327 . S
C1764 C1752 1.349 . S
C1764 H1758 0.950 . S
C1764 C1765 1.327 . S
C1765 H1759 0.950 . S
C1765 C1764 1.327 . S
C1765 C1769 1.429 . S
C1766 C1749 1.574 . S
C1766 H1760 0.949 . S
C1766 C1770 1.368 . S
C1767 C1748 1.429 . S
C1767 C1761 1.429 . S
C1767 C1768 1.523 . S
C1768 C1749 1.368 . S
C1768 C1762 1.368 . S
C1768 C1767 1.523 . S
C1769 C1753 1.429 . S
C1769 C1765 1.429 . S
C1769 C1770 1.523 . S
C1770 C1754 1.368 . S
C1770 C1766 1.368 . S
C1770 C1769 1.523 . S
H1771 C1746 0.950 . S
H1772 C1748 0.950 . S
H1773 C1749 0.949 . S
H1774 C1751 0.950 . S
H1775 C1753 0.950 . S
C1776 C1777 1.349 . S
C1776 C1778 1.327 . S
C1776 H1801 0.950 . S
C1777 C1776 1.349 . S
C1777 C1793 1.349 . S
C1778 C1776 1.327 . S
C1778 C1797 1.429 . S
C1778 H1802 0.950 . S
C1779 C1796 1.574 . S
C1779 C1798 1.368 . S
C1779 H1803 0.949 . S
H1780 C1784 0.949 . S
C1781 C1782 1.349 . S
C1781 C1783 1.327 . S
C1781 H1804 0.950 . S
C1782 C1781 1.349 . S
C1782 C1794 1.349 . S
C1783 C1781 1.327 . S
C1783 C1799 1.429 . S
C1783 H1805 0.950 . S
C1784 H1780 0.949 . S
C1784 C1792 1.574 . S
C1784 C1800 1.368 . S
H1785 C1793 0.950 . S
H1786 C1791 0.950 . S
H1787 C1792 0.949 . S
H1788 C1794 0.950 . S
H1789 C1795 0.950 . S
H1790 C1796 0.949 . S
C1791 H1786 0.950 . S
C1791 C1793 1.327 . S
C1791 C1797 1.429 . S
C1792 C1784 1.574 . S
C1792 H1787 0.949 . S
C1792 C1798 1.368 . S
C1793 C1777 1.349 . S
C1793 H1785 0.950 . S
C1793 C1791 1.327 . S
C1794 C1782 1.349 . S
C1794 H1788 0.950 . S
C1794 C1795 1.327 . S
C1795 H1789 0.950 . S
C1795 C1794 1.327 . S
C1795 C1799 1.429 . S
C1796 C1779 1.574 . S
C1796 H1790 0.949 . S
C1796 C1800 1.368 . S
C1797 C1778 1.429 . S
C1797 C1791 1.429 . S
C1797 C1798 1.523 . S
C1798 C1779 1.368 . S
C1798 C1792 1.368 . S
C1798 C1797 1.523 . S
C1799 C1783 1.429 . S
C1799 C1795 1.429 . S
C1799 C1800 1.523 . S
C1800 C1784 1.368 . S
C1800 C1796 1.368 . S
C1800 C1799 1.523 . S
H1801 C1776 0.950 . S
H1802 C1778 0.950 . S
H1803 C1779 0.949 . S
H1804 C1781 0.950 . S
H1805 C1783 0.950 . S
C1806 C1807 1.349 . S
C1806 C1808 1.327 . S
C1806 H1831 0.950 . S
C1807 C1806 1.349 . S
C1807 C1823 1.349 . S
C1808 C1806 1.327 . S
C1808 C1827 1.429 . S
C1808 H1832 0.950 . S
C1809 C1826 1.574 . S
C1809 C1828 1.368 . S
C1809 H1833 0.949 . S
H1810 C1814 0.949 . S
C1811 C1812 1.349 . S
C1811 C1813 1.327 . S
C1811 H1834 0.950 . S
C1812 C1811 1.349 . S
C1812 C1824 1.349 . S
C1813 C1811 1.327 . S
C1813 C1829 1.429 . S
C1813 H1835 0.950 . S
C1814 H1810 0.949 . S
C1814 C1822 1.574 . S
C1814 C1830 1.368 . S
H1815 C1823 0.950 . S
H1816 C1821 0.950 . S
H1817 C1822 0.949 . S
H1818 C1824 0.950 . S
H1819 C1825 0.950 . S
H1820 C1826 0.949 . S
C1821 H1816 0.950 . S
C1821 C1823 1.327 . S
C1821 C1827 1.429 . S
C1822 C1814 1.574 . S
C1822 H1817 0.949 . S
C1822 C1828 1.368 . S
C1823 C1807 1.349 . S
C1823 H1815 0.950 . S
C1823 C1821 1.327 . S
C1824 C1812 1.349 . S
C1824 H1818 0.950 . S
C1824 C1825 1.327 . S
C1825 H1819 0.950 . S
C1825 C1824 1.327 . S
C1825 C1829 1.429 . S
C1826 C1809 1.574 . S
C1826 H1820 0.949 . S
C1826 C1830 1.368 . S
C1827 C1808 1.429 . S
C1827 C1821 1.429 . S
C1827 C1828 1.523 . S
C1828 C1809 1.368 . S
C1828 C1822 1.368 . S
C1828 C1827 1.523 . S
C1829 C1813 1.429 . S
C1829 C1825 1.429 . S
C1829 C1830 1.523 . S
C1830 C1814 1.368 . S
C1830 C1826 1.368 . S
C1830 C1829 1.523 . S
H1831 C1806 0.950 . S
H1832 C1808 0.950 . S
H1833 C1809 0.949 . S
H1834 C1811 0.950 . S
H1835 C1813 0.950 . S
C1836 C1837 1.349 . S
C1836 C1838 1.327 . S
C1836 H1861 0.950 . S
C1837 C1836 1.349 . S
C1837 C1853 1.349 . S
C1838 C1836 1.327 . S
C1838 C1857 1.429 . S
C1838 H1862 0.950 . S
C1839 C1856 1.574 . S
C1839 C1858 1.368 . S
C1839 H1863 0.949 . S
H1840 C1844 0.949 . S
C1841 C1842 1.349 . S
C1841 C1843 1.327 . S
C1841 H1864 0.950 . S
C1842 C1841 1.349 . S
C1842 C1854 1.349 . S
C1843 C1841 1.327 . S
C1843 C1859 1.429 . S
C1843 H1865 0.950 . S
C1844 H1840 0.949 . S
C1844 C1852 1.574 . S
C1844 C1860 1.368 . S
H1845 C1853 0.950 . S
H1846 C1851 0.950 . S
H1847 C1852 0.949 . S
H1848 C1854 0.950 . S
H1849 C1855 0.950 . S
H1850 C1856 0.949 . S
C1851 H1846 0.950 . S
C1851 C1853 1.327 . S
C1851 C1857 1.429 . S
C1852 C1844 1.574 . S
C1852 H1847 0.949 . S
C1852 C1858 1.368 . S
C1853 C1837 1.349 . S
C1853 H1845 0.950 . S
C1853 C1851 1.327 . S
C1854 C1842 1.349 . S
C1854 H1848 0.950 . S
C1854 C1855 1.327 . S
C1855 H1849 0.950 . S
C1855 C1854 1.327 . S
C1855 C1859 1.429 . S
C1856 C1839 1.574 . S
C1856 H1850 0.949 . S
C1856 C1860 1.368 . S
C1857 C1838 1.429 . S
C1857 C1851 1.429 . S
C1857 C1858 1.523 . S
C1858 C1839 1.368 . S
C1858 C1852 1.368 . S
C1858 C1857 1.523 . S
C1859 C1843 1.429 . S
C1859 C1855 1.429 . S
C1859 C1860 1.523 . S
C1860 C1844 1.368 . S
C1860 C1856 1.368 . S
C1860 C1859 1.523 . S
H1861 C1836 0.950 . S
H1862 C1838 0.950 . S
H1863 C1839 0.949 . S
H1864 C1841 0.950 . S
H1865 C1843 0.950 . S
C1866 C1867 1.349 . S
C1866 C1868 1.327 . S
C1866 H1891 0.950 . S
C1867 C1866 1.349 . S
C1867 C1883 1.349 . S
C1868 C1866 1.327 . S
C1868 C1887 1.429 . S
C1868 H1892 0.950 . S
C1869 C1886 1.574 . S
C1869 C1888 1.368 . S
C1869 H1893 0.949 . S
H1870 C1874 0.949 . S
C1871 C1872 1.349 . S
C1871 C1873 1.327 . S
C1871 H1894 0.950 . S
C1872 C1871 1.349 . S
C1872 C1884 1.349 . S
C1873 C1871 1.327 . S
C1873 C1889 1.429 . S
C1873 H1895 0.950 . S
C1874 H1870 0.949 . S
C1874 C1882 1.574 . S
C1874 C1890 1.368 . S
H1875 C1883 0.950 . S
H1876 C1881 0.950 . S
H1877 C1882 0.949 . S
H1878 C1884 0.950 . S
H1879 C1885 0.950 . S
H1880 C1886 0.949 . S
C1881 H1876 0.950 . S
C1881 C1883 1.327 . S
C1881 C1887 1.429 . S
C1882 C1874 1.574 . S
C1882 H1877 0.949 . S
C1882 C1888 1.368 . S
C1883 C1867 1.349 . S
C1883 H1875 0.950 . S
C1883 C1881 1.327 . S
C1884 C1872 1.349 . S
C1884 H1878 0.950 . S
C1884 C1885 1.327 . S
C1885 H1879 0.950 . S
C1885 C1884 1.327 . S
C1885 C1889 1.429 . S
C1886 C1869 1.574 . S
C1886 H1880 0.949 . S
C1886 C1890 1.368 . S
C1887 C1868 1.429 . S
C1887 C1881 1.429 . S
C1887 C1888 1.523 . S
C1888 C1869 1.368 . S
C1888 C1882 1.368 . S
C1888 C1887 1.523 . S
C1889 C1873 1.429 . S
C1889 C1885 1.429 . S
C1889 C1890 1.523 . S
C1890 C1874 1.368 . S
C1890 C1886 1.368 . S
C1890 C1889 1.523 . S
H1891 C1866 0.950 . S
H1892 C1868 0.950 . S
H1893 C1869 0.949 . S
H1894 C1871 0.950 . S
H1895 C1873 0.950 . S
C1896 C1897 1.349 . S
C1896 C1898 1.327 . S
C1896 H1921 0.950 . S
C1897 C1896 1.349 . S
C1897 C1913 1.349 . S
C1898 C1896 1.327 . S
C1898 C1917 1.429 . S
C1898 H1922 0.950 . S
C1899 C1916 1.574 . S
C1899 C1918 1.368 . S
C1899 H1923 0.949 . S
H1900 C1904 0.949 . S
C1901 C1902 1.349 . S
C1901 C1903 1.327 . S
C1901 H1924 0.950 . S
C1902 C1901 1.349 . S
C1902 C1914 1.349 . S
C1903 C1901 1.327 . S
C1903 C1919 1.429 . S
C1903 H1925 0.950 . S
C1904 H1900 0.949 . S
C1904 C1912 1.574 . S
C1904 C1920 1.368 . S
H1905 C1913 0.950 . S
H1906 C1911 0.950 . S
H1907 C1912 0.949 . S
H1908 C1914 0.950 . S
H1909 C1915 0.950 . S
H1910 C1916 0.949 . S
C1911 H1906 0.950 . S
C1911 C1913 1.327 . S
C1911 C1917 1.429 . S
C1912 C1904 1.574 . S
C1912 H1907 0.949 . S
C1912 C1918 1.368 . S
C1913 C1897 1.349 . S
C1913 H1905 0.950 . S
C1913 C1911 1.327 . S
C1914 C1902 1.349 . S
C1914 H1908 0.950 . S
C1914 C1915 1.327 . S
C1915 H1909 0.950 . S
C1915 C1914 1.327 . S
C1915 C1919 1.429 . S
C1916 C1899 1.574 . S
C1916 H1910 0.949 . S
C1916 C1920 1.368 . S
C1917 C1898 1.429 . S
C1917 C1911 1.429 . S
C1917 C1918 1.523 . S
C1918 C1899 1.368 . S
C1918 C1912 1.368 . S
C1918 C1917 1.523 . S
C1919 C1903 1.429 . S
C1919 C1915 1.429 . S
C1919 C1920 1.523 . S
C1920 C1904 1.368 . S
C1920 C1916 1.368 . S
C1920 C1919 1.523 . S
H1921 C1896 0.950 . S
H1922 C1898 0.950 . S
H1923 C1899 0.949 . S
H1924 C1901 0.950 . S
H1925 C1903 0.950 . S
C1926 C1927 1.349 . S
C1926 C1928 1.327 . S
C1926 H1951 0.950 . S
C1927 C1926 1.349 . S
C1927 C1943 1.349 . S
C1928 C1926 1.327 . S
C1928 C1947 1.429 . S
C1928 H1952 0.950 . S
C1929 C1946 1.574 . S
C1929 C1948 1.368 . S
C1929 H1953 0.949 . S
H1930 C1934 0.949 . S
C1931 C1932 1.349 . S
C1931 C1933 1.327 . S
C1931 H1954 0.950 . S
C1932 C1931 1.349 . S
C1932 C1944 1.349 . S
C1933 C1931 1.327 . S
C1933 C1949 1.429 . S
C1933 H1955 0.950 . S
C1934 H1930 0.949 . S
C1934 C1942 1.574 . S
C1934 C1950 1.368 . S
H1935 C1943 0.950 . S
H1936 C1941 0.950 . S
H1937 C1942 0.949 . S
H1938 C1944 0.950 . S
H1939 C1945 0.950 . S
H1940 C1946 0.949 . S
C1941 H1936 0.950 . S
C1941 C1943 1.327 . S
C1941 C1947 1.429 . S
C1942 C1934 1.574 . S
C1942 H1937 0.949 . S
C1942 C1948 1.368 . S
C1943 C1927 1.349 . S
C1943 H1935 0.950 . S
C1943 C1941 1.327 . S
C1944 C1932 1.349 . S
C1944 H1938 0.950 . S
C1944 C1945 1.327 . S
C1945 H1939 0.950 . S
C1945 C1944 1.327 . S
C1945 C1949 1.429 . S
C1946 C1929 1.574 . S
C1946 H1940 0.949 . S
C1946 C1950 1.368 . S
C1947 C1928 1.429 . S
C1947 C1941 1.429 . S
C1947 C1948 1.523 . S
C1948 C1929 1.368 . S
C1948 C1942 1.368 . S
C1948 C1947 1.523 . S
C1949 C1933 1.429 . S
C1949 C1945 1.429 . S
C1949 C1950 1.523 . S
C1950 C1934 1.368 . S
C1950 C1946 1.368 . S
C1950 C1949 1.523 . S
H1951 C1926 0.950 . S
H1952 C1928 0.950 . S
H1953 C1929 0.949 . S
H1954 C1931 0.950 . S
H1955 C1933 0.950 . S
C1956 C1957 1.349 . S
C1956 C1958 1.327 . S
C1956 H1981 0.950 . S
C1957 C1956 1.349 . S
C1957 C1973 1.349 . S
C1958 C1956 1.327 . S
C1958 C1977 1.429 . S
C1958 H1982 0.950 . S
C1959 C1976 1.574 . S
C1959 C1978 1.368 . S
C1959 H1983 0.949 . S
H1960 C1964 0.949 . S
C1961 C1962 1.349 . S
C1961 C1963 1.327 . S
C1961 H1984 0.950 . S
C1962 C1961 1.349 . S
C1962 C1974 1.349 . S
C1963 C1961 1.327 . S
C1963 C1979 1.429 . S
C1963 H1985 0.950 . S
C1964 H1960 0.949 . S
C1964 C1972 1.574 . S
C1964 C1980 1.368 . S
H1965 C1973 0.950 . S
H1966 C1971 0.950 . S
H1967 C1972 0.949 . S
H1968 C1974 0.950 . S
H1969 C1975 0.950 . S
H1970 C1976 0.949 . S
C1971 H1966 0.950 . S
C1971 C1973 1.327 . S
C1971 C1977 1.429 . S
C1972 C1964 1.574 . S
C1972 H1967 0.949 . S
C1972 C1978 1.368 . S
C1973 C1957 1.349 . S
C1973 H1965 0.950 . S
C1973 C1971 1.327 . S
C1974 C1962 1.349 . S
C1974 H1968 0.950 . S
C1974 C1975 1.327 . S
C1975 H1969 0.950 . S
C1975 C1974 1.327 . S
C1975 C1979 1.429 . S
C1976 C1959 1.574 . S
C1976 H1970 0.949 . S
C1976 C1980 1.368 . S
C1977 C1958 1.429 . S
C1977 C1971 1.429 . S
C1977 C1978 1.523 . S
C1978 C1959 1.368 . S
C1978 C1972 1.368 . S
C1978 C1977 1.523 . S
C1979 C1963 1.429 . S
C1979 C1975 1.429 . S
C1979 C1980 1.523 . S
C1980 C1964 1.368 . S
C1980 C1976 1.368 . S
C1980 C1979 1.523 . S
H1981 C1956 0.950 . S
H1982 C1958 0.950 . S
H1983 C1959 0.949 . S
H1984 C1961 0.950 . S
H1985 C1963 0.950 . S
C1986 C1987 1.349 . S
C1986 C1988 1.327 . S
C1986 H2011 0.950 . S
C1987 C1986 1.349 . S
C1987 C2003 1.349 . S
C1988 C1986 1.327 . S
C1988 C2007 1.429 . S
C1988 H2012 0.950 . S
C1989 C2006 1.574 . S
C1989 C2008 1.368 . S
C1989 H2013 0.949 . S
H1990 C1994 0.949 . S
C1991 C1992 1.349 . S
C1991 C1993 1.327 . S
C1991 H2014 0.950 . S
C1992 C1991 1.349 . S
C1992 C2004 1.349 . S
C1993 C1991 1.327 . S
C1993 C2009 1.429 . S
C1993 H2015 0.950 . S
C1994 H1990 0.949 . S
C1994 C2002 1.574 . S
C1994 C2010 1.368 . S
H1995 C2003 0.950 . S
H1996 C2001 0.950 . S
H1997 C2002 0.949 . S
H1998 C2004 0.950 . S
H1999 C2005 0.950 . S
H2000 C2006 0.949 . S
C2001 H1996 0.950 . S
C2001 C2003 1.327 . S
C2001 C2007 1.429 . S
C2002 C1994 1.574 . S
C2002 H1997 0.949 . S
C2002 C2008 1.368 . S
C2003 C1987 1.349 . S
C2003 H1995 0.950 . S
C2003 C2001 1.327 . S
C2004 C1992 1.349 . S
C2004 H1998 0.950 . S
C2004 C2005 1.327 . S
C2005 H1999 0.950 . S
C2005 C2004 1.327 . S
C2005 C2009 1.429 . S
C2006 C1989 1.574 . S
C2006 H2000 0.949 . S
C2006 C2010 1.368 . S
C2007 C1988 1.429 . S
C2007 C2001 1.429 . S
C2007 C2008 1.523 . S
C2008 C1989 1.368 . S
C2008 C2002 1.368 . S
C2008 C2007 1.523 . S
C2009 C1993 1.429 . S
C2009 C2005 1.429 . S
C2009 C2010 1.523 . S
C2010 C1994 1.368 . S
C2010 C2006 1.368 . S
C2010 C2009 1.523 . S
H2011 C1986 0.950 . S
H2012 C1988 0.950 . S
H2013 C1989 0.949 . S
H2014 C1991 0.950 . S
H2015 C1993 0.950 . S
C397 C162 1.570 . S
C402 C222 1.549 . S
C427 C174 1.547 . S
C432 C242 1.522 . S
C457 C150 1.518 . S
C462 C265 1.521 . S
C487 C138 1.408 . S
C492 C245 1.409 1_556 S
C522 C262 1.416 . S
C517 C114 1.433 . S
C547 C126 1.434 . S
C552 C225 1.441 . S
C582 C232 1.553 . S
C577 C136 1.567 . S
C612 C252 1.449 . S
C607 C112 1.466 . S
C637 C124 1.551 . S
C642 C257 1.575 . S
C667 C160 1.431 . S
C672 C237 1.448 . S
C697 C172 1.423 . S
C702 C272 1.405 . S
C732 C217 1.521 . S
C727 C148 1.507 . S
C762 C282 1.549 . S
C757 C18 1.570 . S
C787 C30 1.547 . S
C792 C302 1.522 . S
C817 C6 1.518 . S
C822 C325 1.521 . S
C847 C210 1.408 . S
C852 C305 1.409 . S
C877 C186 1.433 . S
C882 C322 1.415 . S
C907 C198 1.434 . S
C912 C285 1.435 . S
C937 C208 1.567 . S
C942 C292 1.553 . S
C967 C184 1.466 . S
C972 C312 1.449 . S
C1002 C317 1.575 . S
C997 C196 1.551 . S
C1027 C16 1.432 . S
C1032 C297 1.449 . S
C1062 C332 1.405 . S
C1057 C28 1.423 . S
C1087 C4 1.507 . S
C1092 C277 1.521 . S
C1122 C342 1.549 . S
C1117 C90 1.570 . S
C1147 C102 1.547 . S
C1152 C362 1.521 . S
C1182 C385 1.521 . S
C1177 C78 1.518 . S
C1212 C365 1.409 . S
C1207 C66 1.408 . S
C1242 C382 1.415 . S
C1237 C42 1.433 . S
C1267 C54 1.434 . S
C1272 C345 1.435 . S
C1297 C64 1.567 . S
C1302 C352 1.553 . S
C1327 C40 1.466 . S
C1332 C372 1.449 . S
C1362 C377 1.575 . S
C1357 C52 1.551 . S
C1387 C88 1.432 . S
C1392 C357 1.449 . S
C1417 C100 1.423 . S
C1422 C392 1.405 . S
C1447 C76 1.507 . S
C1452 C337 1.522 . S
C1477 C189 1.320 . S
C1482 C235 1.270 . S
C1512 C255 1.690 . S
C1507 C201 1.775 . S
C1537 C213 1.528 . S
C1542 C264 1.494 . S
C1567 C81 1.732 . S
C1572 C244 1.682 . S
C1597 C93 1.605 . S
C1602 C275 1.536 . S
C1632 C224 1.271 . S
C1627 C105 1.293 . S
C1657 C45 1.320 . S
C1662 C295 1.270 . S
C1687 C57 1.775 . S
C1692 C315 1.690 . S
C1717 C69 1.528 . S
C1722 C324 1.494 . S
C1747 C153 1.733 . S
C1752 C304 1.682 . S
C1782 C335 1.536 . S
C1777 C165 1.604 . S
C1807 C177 1.293 . S
C1812 C284 1.270 . S
C1837 C117 1.320 . S
C1842 C355 1.270 . S
C1867 C129 1.775 . S
C1872 C375 1.690 . S
C1902 C384 1.494 . S
C1897 C141 1.528 . S
C1927 C9 1.733 . S
C1932 C364 1.682 . S
C1957 C21 1.604 . S
C1962 C395 1.536 . S
C1987 C33 1.293 . S
C1992 C344 1.270 . S
