# Generated by pormake.
# Topology ctn, (3,4)-cn, num edge types: 1
# Building blocks:
#     Node 0, Type 0, BuildingBlock: ESEHIV_clean_linker_0, # of connection points: 3
#     Node 1, Type 0, BuildingBlock: ESEHIV_clean_linker_0, # of connection points: 3
#     Node 2, Type 0, BuildingBlock: ESEHIV_clean_linker_0, # of connection points: 3
#     Node 3, Type 0, BuildingBlock: ESEHIV_clean_linker_0, # of connection points: 3
#     Node 4, Type 0, BuildingBlock: ESEHIV_clean_linker_0, # of connection points: 3
#     Node 5, Type 0, BuildingBlock: ESEHIV_clean_linker_0, # of connection points: 3
#     Node 6, Type 0, BuildingBlock: ESEHIV_clean_linker_0, # of connection points: 3
#     Node 7, Type 0, BuildingBlock: ESEHIV_clean_linker_0, # of connection points: 3
#     Node 8, Type 0, BuildingBlock: ESEHIV_clean_linker_0, # of connection points: 3
#     Node 9, Type 0, BuildingBlock: ESEHIV_clean_linker_0, # of connection points: 3
#     Node 10, Type 0, BuildingBlock: ESEHIV_clean_linker_0, # of connection points: 3
#     Node 11, Type 0, BuildingBlock: ESEHIV_clean_linker_0, # of connection points: 3
#     Node 12, Type 0, BuildingBlock: ESEHIV_clean_linker_0, # of connection points: 3
#     Node 13, Type 0, BuildingBlock: ESEHIV_clean_linker_0, # of connection points: 3
#     Node 14, Type 0, BuildingBlock: ESEHIV_clean_linker_0, # of connection points: 3
#     Node 15, Type 0, BuildingBlock: ESEHIV_clean_linker_0, # of connection points: 3
#     Node 16, Type 1, BuildingBlock: NAHDIM_clean_sbu_0, # of connection points: 4
#     Node 17, Type 1, BuildingBlock: NAHDIM_clean_sbu_0, # of connection points: 4
#     Node 18, Type 1, BuildingBlock: NAHDIM_clean_sbu_0, # of connection points: 4
#     Node 19, Type 1, BuildingBlock: NAHDIM_clean_sbu_0, # of connection points: 4
#     Node 20, Type 1, BuildingBlock: NAHDIM_clean_sbu_0, # of connection points: 4
#     Node 21, Type 1, BuildingBlock: NAHDIM_clean_sbu_0, # of connection points: 4
#     Node 22, Type 1, BuildingBlock: NAHDIM_clean_sbu_0, # of connection points: 4
#     Node 23, Type 1, BuildingBlock: NAHDIM_clean_sbu_0, # of connection points: 4
#     Node 24, Type 1, BuildingBlock: NAHDIM_clean_sbu_0, # of connection points: 4
#     Node 25, Type 1, BuildingBlock: NAHDIM_clean_sbu_0, # of connection points: 4
#     Node 26, Type 1, BuildingBlock: NAHDIM_clean_sbu_0, # of connection points: 4
#     Node 27, Type 1, BuildingBlock: NAHDIM_clean_sbu_0, # of connection points: 4
#     Edge 28, Type (0, 1), BuildingBlock: ZUJKAS_clean_linker_0, # of connection points: 2
#     Edge 29, Type (0, 1), BuildingBlock: ZUJKAS_clean_linker_0, # of connection points: 2
#     Edge 30, Type (0, 1), BuildingBlock: ZUJKAS_clean_linker_0, # of connection points: 2
#     Edge 31, Type (0, 1), BuildingBlock: ZUJKAS_clean_linker_0, # of connection points: 2
#     Edge 32, Type (0, 1), BuildingBlock: ZUJKAS_clean_linker_0, # of connection points: 2
#     Edge 33, Type (0, 1), BuildingBlock: ZUJKAS_clean_linker_0, # of connection points: 2
#     Edge 34, Type (0, 1), BuildingBlock: ZUJKAS_clean_linker_0, # of connection points: 2
#     Edge 35, Type (0, 1), BuildingBlock: ZUJKAS_clean_linker_0, # of connection points: 2
#     Edge 36, Type (0, 1), BuildingBlock: ZUJKAS_clean_linker_0, # of connection points: 2
#     Edge 37, Type (0, 1), BuildingBlock: ZUJKAS_clean_linker_0, # of connection points: 2
#     Edge 38, Type (0, 1), BuildingBlock: ZUJKAS_clean_linker_0, # of connection points: 2
#     Edge 39, Type (0, 1), BuildingBlock: ZUJKAS_clean_linker_0, # of connection points: 2
#     Edge 40, Type (0, 1), BuildingBlock: ZUJKAS_clean_linker_0, # of connection points: 2
#     Edge 41, Type (0, 1), BuildingBlock: ZUJKAS_clean_linker_0, # of connection points: 2
#     Edge 42, Type (0, 1), BuildingBlock: ZUJKAS_clean_linker_0, # of connection points: 2
#     Edge 43, Type (0, 1), BuildingBlock: ZUJKAS_clean_linker_0, # of connection points: 2
#     Edge 44, Type (0, 1), BuildingBlock: ZUJKAS_clean_linker_0, # of connection points: 2
#     Edge 45, Type (0, 1), BuildingBlock: ZUJKAS_clean_linker_0, # of connection points: 2
#     Edge 46, Type (0, 1), BuildingBlock: ZUJKAS_clean_linker_0, # of connection points: 2
#     Edge 47, Type (0, 1), BuildingBlock: ZUJKAS_clean_linker_0, # of connection points: 2
#     Edge 48, Type (0, 1), BuildingBlock: ZUJKAS_clean_linker_0, # of connection points: 2
#     Edge 49, Type (0, 1), BuildingBlock: ZUJKAS_clean_linker_0, # of connection points: 2
#     Edge 50, Type (0, 1), BuildingBlock: ZUJKAS_clean_linker_0, # of connection points: 2
#     Edge 51, Type (0, 1), BuildingBlock: ZUJKAS_clean_linker_0, # of connection points: 2
#     Edge 52, Type (0, 1), BuildingBlock: ZUJKAS_clean_linker_0, # of connection points: 2
#     Edge 53, Type (0, 1), BuildingBlock: ZUJKAS_clean_linker_0, # of connection points: 2
#     Edge 54, Type (0, 1), BuildingBlock: ZUJKAS_clean_linker_0, # of connection points: 2
#     Edge 55, Type (0, 1), BuildingBlock: ZUJKAS_clean_linker_0, # of connection points: 2
#     Edge 56, Type (0, 1), BuildingBlock: ZUJKAS_clean_linker_0, # of connection points: 2
#     Edge 57, Type (0, 1), BuildingBlock: ZUJKAS_clean_linker_0, # of connection points: 2
#     Edge 58, Type (0, 1), BuildingBlock: ZUJKAS_clean_linker_0, # of connection points: 2
#     Edge 59, Type (0, 1), BuildingBlock: ZUJKAS_clean_linker_0, # of connection points: 2
#     Edge 60, Type (0, 1), BuildingBlock: ZUJKAS_clean_linker_0, # of connection points: 2
#     Edge 61, Type (0, 1), BuildingBlock: ZUJKAS_clean_linker_0, # of connection points: 2
#     Edge 62, Type (0, 1), BuildingBlock: ZUJKAS_clean_linker_0, # of connection points: 2
#     Edge 63, Type (0, 1), BuildingBlock: ZUJKAS_clean_linker_0, # of connection points: 2
#     Edge 64, Type (0, 1), BuildingBlock: ZUJKAS_clean_linker_0, # of connection points: 2
#     Edge 65, Type (0, 1), BuildingBlock: ZUJKAS_clean_linker_0, # of connection points: 2
#     Edge 66, Type (0, 1), BuildingBlock: ZUJKAS_clean_linker_0, # of connection points: 2
#     Edge 67, Type (0, 1), BuildingBlock: ZUJKAS_clean_linker_0, # of connection points: 2
#     Edge 68, Type (0, 1), BuildingBlock: ZUJKAS_clean_linker_0, # of connection points: 2
#     Edge 69, Type (0, 1), BuildingBlock: ZUJKAS_clean_linker_0, # of connection points: 2
#     Edge 70, Type (0, 1), BuildingBlock: ZUJKAS_clean_linker_0, # of connection points: 2
#     Edge 71, Type (0, 1), BuildingBlock: ZUJKAS_clean_linker_0, # of connection points: 2
#     Edge 72, Type (0, 1), BuildingBlock: ZUJKAS_clean_linker_0, # of connection points: 2
#     Edge 73, Type (0, 1), BuildingBlock: ZUJKAS_clean_linker_0, # of connection points: 2
#     Edge 74, Type (0, 1), BuildingBlock: ZUJKAS_clean_linker_0, # of connection points: 2
#     Edge 75, Type (0, 1), BuildingBlock: ZUJKAS_clean_linker_0, # of connection points: 2
# Relax obj value: 0.002
# Max RMSD: 0.033
# Mean RMSD: 0.017
data_MOF--net-ctn--node1-NAHDIM_clean_sbu_0--node2-ESEHIV_clean_linker_0--edge1-ZUJKAS_clean_linker_0
_symmetry_space_group_name_H-M    P1
_symmetry_Int_Tables_number       1
_symmetry_cell_setting            triclinic
loop_
_symmetry_equiv_pos_as_xyz
'x, y, z'
_cell_length_a     68.376431
_cell_length_b     68.715354
_cell_length_c     67.939235
_cell_angle_alpha  91.073197
_cell_angle_beta   90.127706
_cell_angle_gamma 92.152424
loop_
_atom_site_label
_atom_site_type_symbol
_atom_site_fract_x
_atom_site_fract_y
_atom_site_fract_z
_atom_type_partial_charge
H0 H 0.01 0.06368 0.04306 0.0
H1 H 0.04365 0.0157 0.06155 0.0
H2 H 0.05923 0.046 0.00871 0.0
C3 C 0.02205 0.05412 0.04074 0.0
C4 C 0.03444 0.05688 0.02447 0.0
C5 C 0.02509 0.03911 0.05404 0.0
C6 C 0.04083 0.02688 0.05098 0.0
C7 C 0.05331 0.02928 0.03474 0.0
C8 C 0.04999 0.04433 0.02155 0.0
H9 H 0.29088 0.68712 0.23779 0.0
H10 H 0.30821 0.73905 0.20703 0.0
H11 H 0.25864 0.70378 0.18675 0.0
C12 C 0.28869 0.69713 0.22591 0.0
C13 C 0.2734 0.69336 0.21236 0.0
C14 C 0.30123 0.71367 0.2242 0.0
C15 C 0.29826 0.72655 0.20876 0.0
C16 C 0.283 0.72308 0.19511 0.0
C17 C 0.27068 0.70639 0.19699 0.0
H18 H 0.96076 0.49389 0.05626 0.0
H19 H 0.99444 0.44512 0.03812 0.0
H20 H 0.94429 0.46047 0.00431 0.0
C21 C 0.96328 0.48195 0.04606 0.0
C22 C 0.95081 0.47887 0.02973 0.0
C23 C 0.97895 0.46974 0.04934 0.0
C24 C 0.98208 0.45429 0.03601 0.0
C25 C 0.96975 0.45094 0.01963 0.0
C26 C 0.95416 0.4633 0.01662 0.0
H27 H 0.68516 0.77714 0.19927 0.0
H28 H 0.73468 0.81338 0.18222 0.0
H29 H 0.69979 0.83004 0.23183 0.0
C30 C 0.69464 0.78997 0.20169 0.0
C31 C 0.69063 0.80307 0.21717 0.0
C32 C 0.71038 0.79368 0.18887 0.0
C33 C 0.72222 0.81064 0.19175 0.0
C34 C 0.71852 0.8238 0.20722 0.0
C35 C 0.70272 0.81991 0.21987 0.0
H36 H 0.01103 0.9507 0.45468 0.0
H37 H 0.04469 0.00227 0.43908 0.0
H38 H 0.06354 0.96705 0.4867 0.0
C39 C 0.02339 0.96079 0.45723 0.0
C40 C 0.03684 0.95705 0.4722 0.0
C41 C 0.02607 0.97704 0.44515 0.0
C42 C 0.04251 0.98963 0.44824 0.0
C43 C 0.05622 0.98601 0.46304 0.0
C44 C 0.05329 0.96966 0.47494 0.0
H45 H 0.18036 0.74427 0.80187 0.0
H46 H 0.22955 0.71299 0.82229 0.0
H47 H 0.19556 0.6908 0.77288 0.0
C48 C 0.18987 0.73205 0.80049 0.0
C49 C 0.18606 0.7177 0.78585 0.0
C50 C 0.20549 0.73044 0.81374 0.0
C51 C 0.21743 0.71429 0.81215 0.0
C52 C 0.2139 0.69985 0.79753 0.0
C53 C 0.19812 0.70164 0.78449 0.0
H54 H 0.94551 0.55172 0.49416 0.0
H55 H 0.99493 0.56627 0.45764 0.0
H56 H 0.96143 0.51285 0.44701 0.0
C57 C 0.95502 0.54818 0.48197 0.0
C58 C 0.95135 0.53093 0.47092 0.0
C59 C 0.97088 0.56088 0.47746 0.0
C60 C 0.98306 0.55621 0.46158 0.0
C61 C 0.97976 0.53896 0.45043 0.0
C62 C 0.96384 0.52641 0.45521 0.0
H63 H 0.76739 0.79849 0.81655 0.0
H64 H 0.80041 0.81712 0.76599 0.0
H65 H 0.81601 0.76565 0.79647 0.0
C66 C 0.77929 0.79648 0.80629 0.0
C67 C 0.79138 0.78056 0.80839 0.0
C68 C 0.78243 0.80978 0.79105 0.0
C69 C 0.79787 0.80695 0.7778 0.0
C70 C 0.81 0.79103 0.77959 0.0
C71 C 0.80669 0.77795 0.79497 0.0
H72 H 0.26907 0.29827 0.31588 0.0
H73 H 0.29758 0.31425 0.2619 0.0
H74 H 0.31596 0.26434 0.29343 0.0
C75 C 0.28005 0.29565 0.30476 0.0
C76 C 0.29223 0.27976 0.30655 0.0
C77 C 0.2819 0.30816 0.28871 0.0
C78 C 0.29614 0.30466 0.27435 0.0
C79 C 0.30853 0.2889 0.27593 0.0
C80 C 0.30647 0.27653 0.2921 0.0
H81 H 0.46122 0.99124 0.55688 0.0
H82 H 0.4946 0.94129 0.54217 0.0
H83 H 0.44898 0.9587 0.50328 0.0
C84 C 0.46434 0.97928 0.54689 0.0
C85 C 0.45315 0.97636 0.52965 0.0
C86 C 0.47947 0.96682 0.55141 0.0
C87 C 0.48335 0.9513 0.53844 0.0
C88 C 0.47235 0.94814 0.5211 0.0
C89 C 0.45727 0.96077 0.51682 0.0
H90 H 0.19014 0.27362 0.69668 0.0
H91 H 0.23984 0.31014 0.6808 0.0
H92 H 0.20257 0.32752 0.72834 0.0
C93 C 0.19916 0.28677 0.699 0.0
C94 C 0.19432 0.30015 0.71396 0.0
C95 C 0.2156 0.29023 0.68703 0.0
C96 C 0.22717 0.30735 0.69003 0.0
C97 C 0.22253 0.32089 0.70486 0.0
C98 C 0.20614 0.31715 0.7168 0.0
H99 H 0.79452 0.18932 0.74181 0.0
H100 H 0.81229 0.24081 0.71048 0.0
H101 H 0.76263 0.20569 0.69042 0.0
C102 C 0.79265 0.19898 0.72957 0.0
C103 C 0.77702 0.19545 0.71635 0.0
C104 C 0.80549 0.21528 0.72756 0.0
C105 C 0.8025 0.22818 0.71212 0.0
C106 C 0.78689 0.22496 0.69885 0.0
C107 C 0.77432 0.20852 0.701 0.0
H108 H 0.51247 0.56512 0.5468 0.0
H109 H 0.54765 0.51815 0.56506 0.0
H110 H 0.56453 0.5518 0.51469 0.0
C111 C 0.5253 0.5565 0.54493 0.0
C112 C 0.5383 0.56056 0.52943 0.0
C113 C 0.52847 0.54116 0.55778 0.0
C114 C 0.54479 0.52964 0.55484 0.0
C115 C 0.55786 0.53329 0.53928 0.0
C116 C 0.55448 0.5488 0.52664 0.0
H117 H 0.51049 0.45033 0.95544 0.0
H118 H 0.54409 0.50177 0.93935 0.0
H119 H 0.56192 0.4682 0.98859 0.0
C120 C 0.52301 0.46026 0.95774 0.0
C121 C 0.53595 0.45723 0.97336 0.0
C122 C 0.52574 0.47634 0.94543 0.0
C123 C 0.54161 0.48953 0.94899 0.0
C124 C 0.55474 0.48666 0.9645 0.0
C125 C 0.55182 0.47047 0.9766 0.0
H126 H 0.68197 0.24579 0.30241 0.0
H127 H 0.73076 0.21361 0.32225 0.0
H128 H 0.69832 0.19409 0.27082 0.0
C129 C 0.6916 0.23372 0.30056 0.0
C130 C 0.68842 0.22035 0.28488 0.0
C131 C 0.70674 0.23134 0.31419 0.0
C132 C 0.71873 0.21529 0.31207 0.0
C133 C 0.71582 0.20181 0.29645 0.0
C134 C 0.70062 0.20443 0.28292 0.0
H135 H 0.44682 0.04591 0.99605 0.0
H136 H 0.49499 0.06493 0.95982 0.0
H137 H 0.46217 0.01202 0.94492 0.0
C138 C 0.45628 0.04356 0.98351 0.0
C139 C 0.45288 0.02713 0.9712 0.0
C140 C 0.47134 0.05733 0.97945 0.0
C141 C 0.48304 0.05459 0.96276 0.0
C142 C 0.47985 0.0383 0.95019 0.0
C143 C 0.46473 0.02462 0.95453 0.0
C144 C 0.2094 0.89693 0.00877 0.0
O145 O 0.20548 0.87952 0.00112 0.0
O146 O 0.24304 0.86507 0.98701 0.0
Zn147 Zn 0.24879 0.88317 0.01 0.0
O148 O 0.2737 0.89853 0.00451 0.0
C149 C 0.2643 0.85386 0.03402 0.0
O150 O 0.27509 0.85138 0.01825 0.0
O151 O 0.22688 0.90163 0.01381 0.0
C152 C 0.28479 0.90527 0.01823 0.0
O153 O 0.27993 0.90208 0.03662 0.0
C154 C 0.2409 0.87145 0.96974 0.0
O155 O 0.24229 0.89031 0.96691 0.0
O156 O 0.25179 0.86708 0.03414 0.0
C157 C 0.15337 0.4678 0.27115 0.0
O158 O 0.15292 0.48136 0.28501 0.0
O159 O 0.10797 0.49531 0.27577 0.0
Zn160 Zn 0.12586 0.49234 0.25247 0.0
O161 O 0.14303 0.51653 0.24947 0.0
C162 C 0.10059 0.5021 0.22069 0.0
O163 O 0.10268 0.51952 0.22892 0.0
O164 O 0.14285 0.46935 0.25586 0.0
C165 C 0.15227 0.51943 0.23352 0.0
O166 O 0.15048 0.50644 0.21914 0.0
C167 C 0.11239 0.50645 0.29038 0.0
O168 O 0.12925 0.51628 0.29049 0.0
O169 O 0.10927 0.48799 0.22821 0.0
C170 C 0.79141 0.60492 0.99558 0.0
O171 O 0.78496 0.60731 0.97759 0.0
O172 O 0.76604 0.64595 0.98 0.0
Zn173 Zn 0.76021 0.63017 0.00429 0.0
O174 O 0.73641 0.61244 -0.00012 0.0
C175 C 0.7546 0.66628 0.02611 0.0
O176 O 0.75702 0.67408 0.00874 0.0
O177 O 0.78308 0.61353 0.00981 0.0
C178 C 0.71928 0.61792 0.00381 0.0
O179 O 0.71698 0.63564 0.0108 0.0
C180 C 0.75283 0.65022 0.96779 0.0
O181 O 0.7347 0.64403 0.97078 0.0
O182 O 0.75558 0.64793 0.02773 0.0
C183 C 0.8468 0.04434 0.27294 0.0
O184 O 0.84791 0.03089 0.28634 0.0
O185 O 0.89178 0.01647 0.27564 0.0
Zn186 Zn 0.87361 0.01978 0.25269 0.0
O187 O 0.85602 0.9959 0.24898 0.0
C188 C 0.89822 0.00979 0.22026 0.0
O189 O 0.89596 0.99239 0.22782 0.0
O190 O 0.85681 0.04281 0.25728 0.0
C191 C 0.84602 0.99344 0.23329 0.0
O192 O 0.84754 0.00658 0.21951 0.0
C193 C 0.88757 0.00509 0.28968 0.0
O194 O 0.87072 0.99525 0.28944 0.0
O195 O 0.88983 0.02401 0.22841 0.0
C196 C 0.29331 0.10124 0.49348 0.0
O197 O 0.28443 0.10082 0.47629 0.0
O198 O 0.2688 0.14466 0.47823 0.0
Zn199 Zn 0.26346 0.12801 0.50191 0.0
O200 O 0.24022 0.10986 0.49647 0.0
C201 C 0.26895 0.15934 0.53048 0.0
O202 O 0.28467 0.16323 0.51995 0.0
O203 O 0.28692 0.11212 0.50717 0.0
C204 C 0.22304 0.11628 0.49616 0.0
O205 O 0.22064 0.13495 0.49936 0.0
C206 C 0.26068 0.16081 0.47592 0.0
O207 O 0.24838 0.1669 0.4893 0.0
O208 O 0.25781 0.14482 0.52563 0.0
C209 C 0.34314 0.54142 0.77046 0.0
O210 O 0.34156 0.52562 0.78105 0.0
O211 O 0.39018 0.51658 0.77674 0.0
Zn212 Zn 0.37311 0.51958 0.75293 0.0
O213 O 0.35559 0.49568 0.7489 0.0
C214 C 0.39794 0.5093 0.72063 0.0
O215 O 0.39453 0.49174 0.72744 0.0
O216 O 0.35613 0.54247 0.75714 0.0
C217 C 0.34596 0.49313 0.73299 0.0
O218 O 0.34774 0.50621 0.71918 0.0
C219 C 0.39582 0.49995 0.78168 0.0
O220 O 0.3902 0.48452 0.77112 0.0
O221 O 0.39018 0.52371 0.72916 0.0
C222 C 0.72643 0.41686 0.51104 0.0
O223 O 0.74173 0.42434 0.50181 0.0
O224 O 0.7443 0.36433 0.48954 0.0
Zn225 Zn 0.75006 0.38283 0.5122 0.0
O226 O 0.77393 0.39945 0.50573 0.0
C227 C 0.74584 0.35135 0.53913 0.0
O228 O 0.73206 0.34569 0.52655 0.0
O229 O 0.72675 0.39942 0.51692 0.0
C230 C 0.78389 0.40828 0.5192 0.0
O231 O 0.77841 0.40646 0.53762 0.0
C232 C 0.74063 0.3704 0.47243 0.0
O233 O 0.74058 0.38924 0.4695 0.0
O234 O 0.75549 0.3672 0.53622 0.0
C235 C 0.65859 0.97242 0.76841 0.0
O236 O 0.66279 0.98908 0.77756 0.0
O237 O 0.61168 0.99895 0.77767 0.0
Zn238 Zn 0.6278 0.99467 0.75323 0.0
O239 O 0.64632 0.01768 0.74887 0.0
C240 C 0.592 0.99155 0.7298 0.0
O241 O 0.58345 0.99563 0.74658 0.0
O242 O 0.64384 0.97112 0.75699 0.0
C243 C 0.64199 0.0318 0.73807 0.0
O244 O 0.62472 0.03166 0.72953 0.0
C245 C 0.60591 0.01566 0.78283 0.0
O246 O 0.61065 0.03076 0.77203 0.0
O247 O 0.6105 0.9903 0.7293 0.0
C248 C 0.99872 0.21794 0.89877 0.0
O249 O 0.98078 0.22383 0.89677 0.0
O250 O 0.98337 0.24528 0.85703 0.0
Zn251 Zn 0.00735 0.25064 0.87397 0.0
O252 O 0.00339 0.27357 0.89226 0.0
C253 C 0.02832 0.2631 0.83932 0.0
O254 O 0.01056 0.26619 0.83298 0.0
O255 O 0.01264 0.22715 0.8902 0.0
C256 C 0.00015 0.29035 0.88571 0.0
O257 O -0.00066 0.29276 0.86659 0.0
C258 C 0.96641 0.25067 0.86179 0.0
O259 O 0.96399 0.25987 0.87868 0.0
O260 O 0.03058 0.25647 0.85649 0.0
C261 C 0.50086 0.72399 0.4076 0.0
O262 O 0.49075 0.73827 0.41497 0.0
O263 O 0.47781 0.74171 0.35643 0.0
Zn264 Zn 0.5017 0.74797 0.37305 0.0
O265 O 0.49721 0.77174 0.39 0.0
C266 C 0.52738 0.76915 0.34675 0.0
O267 O 0.51477 0.78286 0.3497 0.0
O268 O 0.50701 0.72502 0.39 0.0
C269 C 0.51119 0.78086 0.39896 0.0
O270 O 0.52902 0.77455 0.39722 0.0
C271 C 0.46678 0.75506 0.35091 0.0
O272 O 0.47107 0.7732 0.35625 0.0
O273 O 0.52478 0.75295 0.35527 0.0
C274 C 0.9992 0.7906 0.59322 0.0
O275 O 0.98408 0.77882 0.58918 0.0
O276 O 0.98012 0.7693 0.64123 0.0
Zn277 Zn 0.00352 0.76384 0.62442 0.0
O278 O 0.99771 0.74055 0.60672 0.0
C279 C 0.02734 0.74273 0.65093 0.0
O280 O 0.01334 0.72931 0.64829 0.0
O281 O 0.00995 0.78711 0.60792 0.0
C282 C 0.01144 0.7319 0.59804 0.0
O283 O 0.02958 0.73841 0.60068 0.0
C284 C 0.96796 0.75577 0.64602 0.0
O285 O 0.97061 0.73791 0.6396 0.0
O286 O 0.02633 0.75879 0.64206 0.0
C287 C 0.4968 0.29176 0.09524 0.0
O288 O 0.48057 0.28124 0.09235 0.0
O289 O 0.47957 0.26609 0.14066 0.0
Zn290 Zn 0.50331 0.26239 0.12366 0.0
O291 O 0.499 0.23964 0.1049 0.0
C292 C 0.52435 0.25024 0.15789 0.0
O293 O 0.50661 0.24583 0.1642 0.0
O294 O 0.50892 0.28653 0.10813 0.0
C295 C 0.49553 0.22257 0.1112 0.0
O296 O 0.4945 0.21989 0.13027 0.0
C297 C 0.46235 0.26026 0.13574 0.0
O298 O 0.45944 0.25158 0.11854 0.0
O299 O 0.52653 0.25755 0.14094 0.0
H300 H 0.20528 0.77002 0.8101 0.0
H301 H 0.21175 0.79493 0.8358 0.0
H302 H 0.22058 0.75 0.87806 0.0
H303 H 0.21413 0.72504 0.8525 0.0
H304 H 0.19221 0.80092 0.87118 0.0
H305 H 0.26998 0.78485 0.88441 0.0
H306 H 0.25661 0.77569 0.86303 0.0
H307 H 0.25361 0.76394 0.88632 0.0
C308 C 0.20854 0.76546 0.82489 0.0
C309 C 0.20932 0.74558 0.82927 0.0
C310 C 0.2123 0.77969 0.83952 0.0
C311 C 0.21698 0.77429 0.85872 0.0
C312 C 0.21748 0.75447 0.8632 0.0
H313 H 0.23869 0.83171 0.97059 0.0
H314 H 0.23255 0.80894 0.94303 0.0
C315 C 0.21378 0.74024 0.8486 0.0
C316 C 0.22088 0.78937 0.87422 0.0
H317 H 0.25514 0.8059 0.90777 0.0
C318 C 0.20601 0.80215 0.87908 0.0
C319 C 0.23893 0.79092 0.88444 0.0
C320 C 0.25577 0.77825 0.87919 0.0
C321 C 0.20852 0.81608 0.89434 0.0
C322 C 0.22643 0.81736 0.90479 0.0
C323 C 0.24139 0.80478 0.89975 0.0
C324 C 0.22982 0.83135 0.92136 0.0
C325 C 0.1918 0.82892 0.89956 0.0
C326 C 0.23045 0.85148 0.91822 0.0
C327 C 0.23398 0.86457 0.93395 0.0
C328 C 0.23699 0.8577 0.95306 0.0
C329 C 0.23639 0.83749 0.95608 0.0
C330 C 0.23291 0.82445 0.94036 0.0
H331 H 0.17775 0.82338 0.89295 0.0
H332 H 0.19002 0.8301 0.91578 0.0
H333 H 0.195 0.84378 0.89398 0.0
H334 H 0.22841 0.85706 0.90359 0.0
H335 H 0.23442 0.88004 0.93112 0.0
H336 H 0.01964 0.54399 0.44906 0.0
H337 H 0.04127 0.53745 0.42137 0.0
H338 H 0.99187 0.5154 0.38702 0.0
H339 H 0.96995 0.52281 0.41432 0.0
H340 H 0.04889 0.50349 0.40226 0.0
H341 H 0.0166 0.55499 0.35041 0.0
H342 H 0.01089 0.55509 0.37632 0.0
H343 H -0.00072 0.53732 0.35992 0.0
C344 C 0.01331 0.53801 0.43553 0.0
C345 C 0.99301 0.53415 0.43385 0.0
C346 C 0.02572 0.53413 0.41977 0.0
C347 C 0.01814 0.52627 0.40202 0.0
C348 C 0.99798 0.52188 0.40043 0.0
H349 H 0.07453 0.49232 0.29253 0.0
H350 H 0.05158 0.49625 0.3198 0.0
C351 C 0.9855 0.52589 0.41615 0.0
C352 C 0.03145 0.52257 0.38528 0.0
H353 H 0.04072 0.53443 0.3375 0.0
C354 C 0.04712 0.51027 0.38811 0.0
C355 C 0.02912 0.53148 0.36683 0.0
C356 C 0.01318 0.5456 0.36318 0.0
C357 C 0.06048 0.50658 0.37297 0.0
C358 C 0.05813 0.51548 0.3546 0.0
C359 C 0.04238 0.52759 0.35164 0.0
C360 C 0.07216 0.51276 0.33836 0.0
C361 C 0.07695 0.49308 0.37664 0.0
C362 C 0.09123 0.5209 0.33979 0.0
C363 C 0.10434 0.5188 0.32421 0.0
C364 C 0.09859 0.50848 0.30697 0.0
C365 C 0.07945 0.50029 0.30564 0.0
C366 C 0.06631 0.50253 0.32117 0.0
H367 H 0.07454 0.48448 0.39016 0.0
H368 H 0.07864 0.4829 0.36392 0.0
H369 H 0.09085 0.5018 0.37841 0.0
H370 H 0.09591 0.52904 0.35289 0.0
H371 H 0.11897 0.52529 0.3257 0.0
H372 H 0.81856 0.76536 0.83271 0.0
H373 H 0.81287 0.74211 0.85919 0.0
H374 H 0.75087 0.74139 0.8473 0.0
H375 H 0.75646 0.7643 0.82055 0.0
H376 H 0.78863 0.74706 0.89304 0.0
H377 H 0.76434 0.68316 0.84671 0.0
H378 H 0.7774 0.70409 0.8368 0.0
H379 H 0.75173 0.7051 0.84213 0.0
C380 C 0.80374 0.76007 0.83561 0.0
C381 C 0.78796 0.76659 0.82452 0.0
C382 C 0.80052 0.7469 0.85078 0.0
C383 C 0.78149 0.73988 0.85499 0.0
C384 C 0.76569 0.74643 0.84405 0.0
H385 H 0.72769 0.6637 0.94034 0.0
H386 H 0.73543 0.68539 0.91312 0.0
C387 C 0.76889 0.75965 0.82893 0.0
C388 C 0.77809 0.7261 0.8712 0.0
H389 H 0.76041 0.68026 0.88125 0.0
C390 C 0.78259 0.7324 0.8905 0.0
C391 C 0.77018 0.70704 0.86776 0.0
C392 C 0.76577 0.69932 0.84722 0.0
C393 C 0.7789 0.72027 0.90656 0.0
C394 C 0.77088 0.70123 0.90314 0.0
C395 C 0.76655 0.69488 0.88381 0.0
C396 C 0.76645 0.6878 0.91946 0.0
C397 C 0.78307 0.72816 0.92709 0.0
C398 C 0.7814 0.68172 0.93184 0.0
C399 C 0.77703 0.66936 0.94747 0.0
C400 C 0.75763 0.66276 0.95088 0.0
C401 C 0.74277 0.66856 0.93817 0.0
C402 C 0.74715 0.68094 0.92259 0.0
H403 H 0.7845 0.74432 0.92748 0.0
H404 H 0.77132 0.7235 0.93743 0.0
H405 H 0.79706 0.72244 0.9324 0.0
H406 H 0.79646 0.68652 0.92942 0.0
H407 H 0.78884 0.66506 0.95691 0.0
H408 H 0.9861 0.97269 0.44644 0.0
H409 H 0.96276 0.97736 0.41982 0.0
H410 H 0.01011 0.99536 0.38162 0.0
H411 H 0.03366 0.98976 0.40781 0.0
H412 H 0.9545 0.00982 0.39977 0.0
H413 H 0.98214 0.95364 0.3483 0.0
H414 H 0.9896 0.95544 0.37378 0.0
H415 H 0.00061 0.97145 0.35594 0.0
C416 C 0.9916 0.97737 0.43229 0.0
C417 C 0.01179 0.98067 0.42922 0.0
C418 C 0.97821 0.98019 0.41714 0.0
C419 C 0.98473 0.98636 0.39863 0.0
C420 C 0.0048 0.99015 0.39565 0.0
H421 H 0.92552 0.01898 0.29201 0.0
H422 H 0.94887 0.01472 0.31882 0.0
C423 C 0.01822 0.98721 0.41074 0.0
C424 C 0.97045 0.9891 0.38257 0.0
H425 H 0.9586 0.97472 0.3355 0.0
C426 C 0.95534 0.00207 0.38576 0.0
C427 C 0.97153 0.9789 0.36432 0.0
C428 C 0.98672 0.96394 0.36041 0.0
C429 C 0.94146 0.00535 0.37106 0.0
C430 C 0.94275 0.99538 0.35278 0.0
C431 C 0.9578 0.9824 0.34955 0.0
C432 C 0.9285 0.99815 0.33683 0.0
C433 C 0.92563 0.01962 0.37498 0.0
C434 C 0.90942 0.9901 0.33814 0.0
C435 C 0.89608 0.99237 0.32282 0.0
C436 C 0.90161 0.00282 0.30599 0.0
C437 C 0.92077 0.01092 0.3048 0.0
C438 C 0.93414 0.00849 0.32006 0.0
H439 H 0.92826 0.02817 0.38884 0.0
H440 H 0.9246 0.02983 0.36258 0.0
H441 H 0.91132 0.01156 0.37615 0.0
H442 H 0.90491 0.98194 0.35095 0.0
H443 H 0.88144 0.98597 0.32418 0.0
H444 H 0.19123 0.27189 0.66001 0.0
H445 H 0.2 0.24865 0.63395 0.0
H446 H 0.26036 0.25348 0.6525 0.0
H447 H 0.25169 0.27651 0.67872 0.0
H448 H 0.22867 0.25573 0.60301 0.0
H449 H 0.24633 0.1937 0.65048 0.0
H450 H 0.23173 0.21356 0.65896 0.0
H451 H 0.25785 0.21681 0.65732 0.0
C452 C 0.20633 0.26783 0.65865 0.0
C453 C 0.22078 0.27597 0.67141 0.0
C454 C 0.21131 0.25466 0.64373 0.0
C455 C 0.23077 0.24925 0.64147 0.0
C456 C 0.24522 0.25732 0.65418 0.0
H457 H 0.28699 0.19389 0.54206 0.0
H458 H 0.27753 0.21569 0.56903 0.0
C459 C 0.24028 0.27057 0.66902 0.0
C460 C 0.23608 0.23558 0.62547 0.0
H461 H 0.25397 0.19055 0.61656 0.0
C462 C 0.23415 0.24146 0.60593 0.0
C463 C 0.24307 0.21694 0.62941 0.0
C464 C 0.24476 0.20973 0.65016 0.0
C465 C 0.23938 0.22927 0.59015 0.0
C466 C 0.24682 0.21082 0.59411 0.0
C467 C 0.24841 0.20479 0.61364 0.0
C468 C 0.2528 0.19747 0.57809 0.0
C469 C 0.23674 0.23609 0.56937 0.0
C470 C 0.24224 0.17987 0.57457 0.0
C471 C 0.24757 0.1674 0.55918 0.0
C472 C 0.2637 0.17225 0.54717 0.0
C473 C 0.27449 0.18975 0.55101 0.0
C474 C 0.26906 0.20226 0.56634 0.0
H475 H 0.22721 0.24881 0.56874 0.0
H476 H 0.25124 0.24045 0.56321 0.0
H477 H 0.23029 0.22417 0.55987 0.0
H478 H 0.22969 0.17592 0.58356 0.0
H479 H 0.23899 0.15401 0.55666 0.0
H480 H 0.51175 0.56786 0.58225 0.0
H481 H 0.48921 0.56162 0.6095 0.0
H482 H 0.49204 0.49981 0.59844 0.0
H483 H 0.51437 0.50589 0.57093 0.0
H484 H 0.45204 0.54056 0.60799 0.0
H485 H 0.50532 0.50703 0.65786 0.0
H486 H 0.51285 0.52141 0.63703 0.0
H487 H 0.50375 0.49676 0.63335 0.0
C488 C 0.50747 0.55293 0.5855 0.0
C489 C 0.51487 0.53736 0.57442 0.0
C490 C 0.49467 0.54941 0.60113 0.0
C491 C 0.48917 0.53027 0.60609 0.0
C492 C 0.49641 0.51468 0.59504 0.0
H493 H 0.4154 0.48153 0.69815 0.0
H494 H 0.43683 0.48651 0.66978 0.0
C495 C 0.50918 0.51818 0.57936 0.0
C496 C 0.47557 0.52668 0.62264 0.0
H497 H 0.47236 0.50695 0.66829 0.0
C498 C 0.45645 0.53324 0.6212 0.0
C499 C 0.48142 0.51707 0.63977 0.0
C500 C 0.50199 0.51027 0.64227 0.0
C501 C 0.44289 0.53026 0.63643 0.0
C502 C 0.44879 0.52083 0.65368 0.0
C503 C 0.4679 0.51417 0.65504 0.0
C504 C 0.43545 0.51791 0.67059 0.0
C505 C 0.42228 0.5369 0.63374 0.0
C506 C 0.42772 0.53395 0.68056 0.0
C507 C 0.41541 0.53116 0.69673 0.0
C508 C 0.41076 0.51228 0.70335 0.0
C509 C 0.41866 0.49626 0.69341 0.0
C510 C 0.43092 0.49906 0.67721 0.0
H511 H 0.41868 0.53877 0.61795 0.0
H512 H 0.41145 0.52636 0.64011 0.0
H513 H 0.42079 0.55117 0.64139 0.0
H514 H 0.43138 0.54864 0.67597 0.0
H515 H 0.40968 0.54382 0.70414 0.0
H516 H 0.81406 0.24171 0.67422 0.0
H517 H 0.80835 0.26456 0.64772 0.0
H518 H 0.74656 0.26197 0.66045 0.0
H519 H 0.75218 0.23947 0.68718 0.0
H520 H 0.78363 0.25812 0.61424 0.0
H521 H 0.76109 0.32097 0.66029 0.0
H522 H 0.77392 0.30083 0.67023 0.0
H523 H 0.7481 0.29839 0.66531 0.0
C524 C 0.7993 0.24619 0.67151 0.0
C525 C 0.78357 0.23884 0.68281 0.0
C526 C 0.79605 0.25915 0.65633 0.0
C527 C 0.77707 0.26511 0.65233 0.0
C528 C 0.76135 0.25777 0.66352 0.0
H529 H 0.72971 0.31562 0.54805 0.0
H530 H 0.7381 0.29497 0.5755 0.0
C531 C 0.76456 0.24477 0.67864 0.0
C532 C 0.77358 0.27855 0.63604 0.0
H533 H 0.75579 0.32301 0.62576 0.0
C534 C 0.77766 0.27236 0.61674 0.0
C535 C 0.76599 0.29717 0.63942 0.0
C536 C 0.76217 0.30487 0.65994 0.0
C537 C 0.77384 0.28413 0.60063 0.0
C538 C 0.76554 0.30244 0.60395 0.0
C539 C 0.76197 0.30886 0.62329 0.0
C540 C 0.76033 0.31508 0.5875 0.0
C541 C 0.77879 0.27693 0.58019 0.0
C542 C 0.76974 0.33342 0.58547 0.0
C543 C 0.76495 0.34529 0.56983 0.0
C544 C 0.75055 0.33907 0.55604 0.0
C545 C 0.74091 0.32082 0.55835 0.0
C546 C 0.74576 0.30895 0.57396 0.0
H547 H 0.78931 0.265 0.58052 0.0
H548 H 0.76523 0.27121 0.57277 0.0
H549 H 0.78512 0.28895 0.57123 0.0
H550 H 0.78094 0.33844 0.59587 0.0
H551 H 0.77261 0.35929 0.5685 0.0
H552 H 0.46609 0.97561 0.58834 0.0
H553 H 0.48531 0.98047 0.6186 0.0
H554 H 0.53808 0.96899 0.58646 0.0
H555 H 0.51907 0.96466 0.55604 0.0
H556 H 0.50944 0.95357 0.63661 0.0
H557 H 0.55158 0.02066 0.61568 0.0
H558 H 0.52982 0.01197 0.60266 0.0
H559 H 0.5528 0.00083 0.59817 0.0
C560 C 0.48182 0.97439 0.58767 0.0
C561 C 0.49108 0.96985 0.56978 0.0
C562 C 0.49274 0.97705 0.60498 0.0
C563 C 0.51312 0.97534 0.60469 0.0
C564 C 0.5224 0.9707 0.58692 0.0
H565 H 0.60505 0.98304 0.69269 0.0
H566 H 0.58557 0.97863 0.6626 0.0
C567 C 0.5115 0.96803 0.5696 0.0
C568 C 0.5246 0.97787 0.62312 0.0
H569 H 0.56138 0.00547 0.645 0.0
C570 C 0.52073 0.96497 0.63852 0.0
C571 C 0.53933 0.99274 0.62548 0.0
C572 C 0.54356 0.00747 0.6097 0.0
C573 C 0.53148 0.96631 0.65614 0.0
C574 C 0.54624 0.98116 0.6585 0.0
C575 C 0.55007 0.99408 0.64311 0.0
C576 C 0.55788 0.98356 0.67684 0.0
C577 C 0.52727 0.95155 0.67189 0.0
C578 C 0.54876 0.98797 0.69476 0.0
C579 C 0.55983 0.99046 0.712 0.0
C580 C 0.58025 0.98871 0.71158 0.0
C581 C 0.58935 0.98443 0.69354 0.0
C582 C 0.57825 0.98193 0.67633 0.0
H583 H 0.51922 0.93838 0.66592 0.0
H584 H 0.54102 0.94701 0.6789 0.0
H585 H 0.51807 0.95817 0.68347 0.0
H586 H 0.53308 0.98968 0.69539 0.0
H587 H 0.55238 0.99387 0.72561 0.0
H588 H 0.83031 0.18883 0.74237 0.0
H589 H 0.8572 0.19489 0.76578 0.0
H590 H 0.84476 0.25595 0.76798 0.0
H591 H 0.81774 0.25001 0.74471 0.0
H592 H 0.88457 0.24853 0.76279 0.0
H593 H 0.85253 0.20711 0.8251 0.0
H594 H 0.85346 0.19357 0.80226 0.0
H595 H 0.83817 0.21422 0.80427 0.0
C596 C 0.83316 0.20351 0.74801 0.0
C597 C 0.82185 0.21893 0.74173 0.0
C598 C 0.84851 0.20694 0.76138 0.0
C599 C 0.85278 0.22582 0.76879 0.0
C600 C 0.84166 0.24127 0.76245 0.0
H601 H 0.92819 0.2597 0.86759 0.0
H602 H 0.90067 0.25394 0.84487 0.0
C603 C 0.8263 0.23786 0.74908 0.0
C604 C 0.86914 0.22956 0.78283 0.0
H605 H 0.88568 0.2183 0.82852 0.0
C606 C 0.88481 0.24198 0.77719 0.0
C607 C 0.86926 0.22115 0.80167 0.0
C608 C 0.85239 0.2084 0.80882 0.0
C609 C 0.90081 0.24597 0.78979 0.0
C610 C 0.90121 0.23709 0.80839 0.0
C611 C 0.88538 0.22494 0.81417 0.0
C612 C 0.91789 0.24036 0.82213 0.0
C613 C 0.91701 0.25986 0.7832 0.0
C614 C 0.9366 0.23437 0.81695 0.0
C615 C 0.95236 0.23763 0.82987 0.0
C616 C 0.94964 0.24687 0.84827 0.0
C617 C 0.9308 0.2526 0.85352 0.0
C618 C 0.91505 0.24931 0.84058 0.0
H619 H 0.91226 0.26901 0.77089 0.0
H620 H 0.92217 0.26955 0.79556 0.0
H621 H 0.92957 0.25139 0.77801 0.0
H622 H 0.93901 0.22712 0.80292 0.0
H623 H 0.96666 0.23296 0.8254 0.0
H624 H 0.44605 0.92336 0.50191 0.0
H625 H 0.45308 0.89541 0.48055 0.0
H626 H 0.51498 0.90719 0.48868 0.0
H627 H 0.50813 0.93533 0.5098 0.0
H628 H 0.47622 0.89436 0.44512 0.0
H629 H 0.50624 0.8495 0.50451 0.0
H630 H 0.49172 0.87044 0.50953 0.0
H631 H 0.51699 0.87367 0.50274 0.0
C632 C 0.46116 0.92014 0.49899 0.0
C633 C 0.47653 0.93151 0.50765 0.0
C634 C 0.46514 0.90411 0.48688 0.0
C635 C 0.48453 0.8991 0.48331 0.0
C636 C 0.49991 0.91061 0.49159 0.0
H637 H 0.53784 0.80476 0.41864 0.0
H638 H 0.53139 0.83392 0.43846 0.0
C639 C 0.49596 0.92665 0.50367 0.0
C640 C 0.48867 0.88185 0.47087 0.0
H641 H 0.50863 0.83709 0.47193 0.0
C642 C 0.48325 0.8818 0.45095 0.0
C643 C 0.4979 0.86556 0.47858 0.0
C644 C 0.50343 0.86462 0.50004 0.0
C645 C 0.48709 0.86595 0.4384 0.0
C646 C 0.49621 0.84958 0.44612 0.0
C647 C 0.50167 0.84967 0.46605 0.0
C648 C 0.50005 0.8321 0.43385 0.0
C649 C 0.48171 0.86704 0.4169 0.0
C650 C 0.48453 0.82129 0.4249 0.0
C651 C 0.48816 0.80467 0.41353 0.0
C652 C 0.50738 0.79844 0.41105 0.0
C653 C 0.52287 0.80918 0.42022 0.0
C654 C 0.51923 0.82584 0.43156 0.0
H655 H 0.47996 0.88232 0.41233 0.0
H656 H 0.49296 0.86037 0.40744 0.0
H657 H 0.46756 0.85895 0.41429 0.0
H658 H 0.46958 0.82561 0.42685 0.0
H659 H 0.47587 0.79666 0.40677 0.0
H660 H 0.18256 0.26585 0.73089 0.0
H661 H 0.15407 0.25973 0.75193 0.0
H662 H 0.13859 0.31971 0.74698 0.0
H663 H 0.16698 0.32593 0.72583 0.0
H664 H 0.13764 0.3063 0.7856 0.0
H665 H 0.09649 0.25562 0.73459 0.0
H666 H 0.12112 0.24887 0.73952 0.0
H667 H 0.11689 0.27096 0.72668 0.0
C668 C 0.17296 0.27768 0.73409 0.0
C669 C 0.17698 0.29636 0.72664 0.0
C670 C 0.1567 0.27416 0.74611 0.0
C671 C 0.1441 0.28921 0.75078 0.0
C672 C 0.14813 0.30789 0.7435 0.0
H673 H 0.02839 0.27761 0.80215 0.0
H674 H 0.05664 0.28445 0.78106 0.0
C675 C 0.16439 0.31144 0.7315 0.0
C676 C 0.12691 0.28558 0.7636 0.0
H677 H 0.08412 0.25866 0.76709 0.0
C678 C 0.1259 0.29593 0.78155 0.0
C679 C 0.11153 0.27221 0.75814 0.0
C680 C 0.11139 0.26139 0.73861 0.0
C681 C 0.11003 0.29304 0.79437 0.0
C682 C 0.09495 0.27923 0.78918 0.0
C683 C 0.09581 0.26911 0.77109 0.0
C684 C 0.07797 0.27527 0.80219 0.0
C685 C 0.10938 0.30502 0.81318 0.0
C686 C 0.08061 0.26767 0.82099 0.0
C687 C 0.0645 0.26377 0.83312 0.0
C688 C 0.04544 0.26729 0.82658 0.0
C689 C 0.04286 0.27476 0.80766 0.0
C690 C 0.05898 0.27867 0.79557 0.0
H691 H 0.11928 0.3182 0.8126 0.0
H692 H 0.09429 0.30964 0.81627 0.0
H693 H 0.11416 0.29609 0.82563 0.0
H694 H 0.09512 0.26459 0.82623 0.0
H695 H 0.06699 0.25792 0.84757 0.0
H696 H 0.54266 0.56206 0.48933 0.0
H697 H 0.53765 0.58985 0.46809 0.0
H698 H 0.52076 0.62424 0.51858 0.0
H699 H 0.52653 0.59689 0.53998 0.0
H700 H 0.50409 0.60956 0.46167 0.0
H701 H 0.56182 0.65969 0.49328 0.0
H702 H 0.56051 0.634 0.49838 0.0
H703 H 0.54502 0.65045 0.5114 0.0
C704 C 0.53817 0.57563 0.49595 0.0
C705 C 0.53508 0.57727 0.51637 0.0
C706 C 0.53518 0.59144 0.48378 0.0
C707 C 0.52915 0.60919 0.4918 0.0
C708 C 0.52582 0.61081 0.51213 0.0
H709 H 0.49313 0.71889 0.44666 0.0
H710 H 0.50009 0.69059 0.46652 0.0
C711 C 0.52887 0.59506 0.5243 0.0
C712 C 0.52575 0.62588 0.47889 0.0
H713 H 0.53877 0.6737 0.47182 0.0
C714 C 0.51178 0.62353 0.46376 0.0
C715 C 0.53585 0.64409 0.48165 0.0
C716 C 0.55177 0.6472 0.49693 0.0
C717 C 0.50727 0.63908 0.45166 0.0
C718 C 0.51711 0.65735 0.45469 0.0
C719 C 0.5312 0.65966 0.46965 0.0
C720 C 0.51286 0.67432 0.44255 0.0
C721 C 0.49171 0.63604 0.43601 0.0
C722 C 0.51793 0.67453 0.42257 0.0
C723 C 0.51406 0.69069 0.4112 0.0
C724 C 0.50502 0.7069 0.41963 0.0
C725 C 0.50003 0.70662 0.4397 0.0
C726 C 0.50402 0.6905 0.45108 0.0
H727 H 0.48297 0.62225 0.43799 0.0
H728 H 0.48166 0.64837 0.43614 0.0
H729 H 0.49876 0.63543 0.42133 0.0
H730 H 0.525 0.66225 0.41582 0.0
H731 H 0.51813 0.69045 0.3958 0.0
H732 H 0.83641 0.81814 0.76536 0.0
H733 H 0.86269 0.81289 0.74161 0.0
H734 H 0.84635 0.75169 0.73824 0.0
H735 H 0.81978 0.75687 0.76158 0.0
H736 H 0.89433 0.78762 0.74543 0.0
H737 H 0.84807 0.76808 0.6802 0.0
H738 H 0.83861 0.78006 0.70186 0.0
H739 H 0.84232 0.75431 0.70179 0.0
C740 C 0.83828 0.80361 0.75938 0.0
C741 C 0.82599 0.78792 0.76528 0.0
C742 C 0.85334 0.80063 0.74591 0.0
C743 C 0.85626 0.78196 0.738 0.0
C744 C 0.84412 0.76626 0.74394 0.0
H745 H 0.93973 0.73018 0.65952 0.0
H746 H 0.91277 0.73711 0.68188 0.0
C747 C 0.82909 0.76921 0.75743 0.0
C748 C 0.87239 0.77877 0.72398 0.0
H749 H 0.88213 0.76306 0.67719 0.0
C750 C 0.8917 0.78239 0.73046 0.0
C751 C 0.86884 0.7719 0.7045 0.0
C752 C 0.84834 0.76851 0.69656 0.0
C753 C 0.90763 0.77886 0.71809 0.0
C754 C 0.90409 0.77187 0.69865 0.0
C755 C 0.88477 0.76839 0.69212 0.0
C756 C 0.92027 0.76789 0.6849 0.0
C757 C 0.92812 0.78213 0.7261 0.0
C758 C 0.93319 0.78298 0.67897 0.0
C759 C 0.94862 0.77908 0.66622 0.0
C760 C 0.95132 0.76002 0.65909 0.0
C761 C 0.93811 0.745 0.66479 0.0
C762 C 0.92269 0.74892 0.67754 0.0
H763 H 0.92832 0.78289 0.74246 0.0
H764 H 0.93771 0.77034 0.72111 0.0
H765 H 0.93438 0.79614 0.72061 0.0
H766 H 0.93133 0.79778 0.68419 0.0
H767 H 0.95846 0.791 0.66203 0.0
H768 H 0.0636 0.93092 0.48387 0.0
H769 H 0.05792 0.9026 0.50481 0.0
H770 H 0.99712 0.9163 0.51023 0.0
H771 H 0.00272 0.94479 0.4896 0.0
H772 H 0.01675 0.90767 0.54663 0.0
H773 H 0.02663 0.85168 0.48764 0.0
H774 H 0.04589 0.87013 0.49009 0.0
H775 H 0.02194 0.87676 0.48241 0.0
C776 C 0.04905 0.92795 0.48963 0.0
C777 C 0.03357 0.94 0.48503 0.0
C778 C 0.04581 0.91171 0.50144 0.0
C779 C 0.02706 0.90729 0.50883 0.0
C780 C 0.01166 0.91945 0.50454 0.0
H781 H 0.97968 0.80166 0.56036 0.0
H782 H 0.98675 0.83022 0.54026 0.0
C783 C 0.01486 0.93562 0.49267 0.0
C784 C 0.02344 0.89005 0.52118 0.0
H785 H 0.02215 0.84034 0.52003 0.0
C786 C 0.01795 0.89294 0.54086 0.0
C787 C 0.02484 0.8709 0.51348 0.0
C788 C 0.02999 0.86706 0.49221 0.0
C789 C 0.01394 0.87711 0.55316 0.0
C790 C 0.01566 0.85795 0.54555 0.0
C791 C 0.021 0.85507 0.52582 0.0
C792 C 0.01157 0.84068 0.55776 0.0
C793 C 0.00755 0.88098 0.57407 0.0
C794 C 0.02335 0.83704 0.5741 0.0
C795 C 0.01937 0.82074 0.58562 0.0
C796 C 0.00356 0.80777 0.58094 0.0
C797 C 0.99192 0.81138 0.56441 0.0
C798 C 0.99594 0.82767 0.55288 0.0
H799 H 0.00278 0.89614 0.57627 0.0
H800 H 0.99535 0.87075 0.57821 0.0
H801 H 0.01999 0.87874 0.58419 0.0
H802 H 0.03567 0.84677 0.5779 0.0
H803 H 0.02867 0.81833 0.5982 0.0
H804 H 0.17583 0.75015 0.76623 0.0
H805 H 0.14857 0.75323 0.74317 0.0
H806 H 0.13213 0.69261 0.75052 0.0
H807 H 0.15919 0.68946 0.77382 0.0
H808 H 0.14168 0.73012 0.70705 0.0
H809 H 0.08112 0.72283 0.76132 0.0
H810 H 0.10603 0.72918 0.76853 0.0
H811 H 0.09918 0.70446 0.76184 0.0
C812 C 0.16629 0.73753 0.76308 0.0
C813 C 0.16958 0.71958 0.77188 0.0
C814 C 0.15082 0.73928 0.74984 0.0
C815 C 0.13829 0.72319 0.74534 0.0
C816 C 0.14155 0.70524 0.75401 0.0
H817 H 0.03443 0.70981 0.67139 0.0
H818 H 0.06182 0.70439 0.69361 0.0
C819 C 0.15708 0.70343 0.76717 0.0
C820 C 0.122 0.72516 0.73127 0.0
H821 H 0.0722 0.72476 0.72785 0.0
C822 C 0.12647 0.72897 0.71155 0.0
C823 C 0.10224 0.72352 0.73726 0.0
C824 C 0.09674 0.71991 0.75841 0.0
C825 C 0.11163 0.73108 0.69755 0.0
C826 C 0.09184 0.72978 0.70358 0.0
C827 C 0.08739 0.72576 0.72329 0.0
C828 C 0.07554 0.73295 0.68978 0.0
C829 C 0.11728 0.73438 0.67638 0.0
C830 C 0.0741 0.75087 0.68043 0.0
C831 C 0.05852 0.754 0.66769 0.0
C832 C 0.04398 0.73931 0.6642 0.0
C833 C 0.0454 0.72141 0.67371 0.0
C834 C 0.06102 0.71828 0.68642 0.0
H835 H 0.13227 0.72948 0.67323 0.0
H836 H 0.10686 0.72658 0.66614 0.0
H837 H 0.11702 0.75018 0.67334 0.0
H838 H 0.08491 0.76254 0.68316 0.0
H839 H 0.0578 0.768 0.6607 0.0
H840 H 0.94441 0.58658 0.49175 0.0
H841 H 0.95111 0.61604 0.51185 0.0
H842 H 0.01287 0.60559 0.51011 0.0
H843 H 0.00632 0.57596 0.49033 0.0
H844 H 0.97113 0.61859 0.54929 0.0
H845 H 0.00876 0.66265 0.49191 0.0
H846 H 0.99351 0.64129 0.48605 0.0
H847 H 0.01793 0.63875 0.49518 0.0
C848 C 0.95941 0.59048 0.49574 0.0
C849 C 0.97484 0.57895 0.48939 0.0
C850 C 0.96321 0.60736 0.50712 0.0
C851 C 0.98249 0.61308 0.5122 0.0
C852 C 0.99792 0.6016 0.50599 0.0
H853 H 0.0374 0.70815 0.57996 0.0
H854 H 0.02998 0.67916 0.55945 0.0
C855 C 0.99414 0.5847 0.49467 0.0
C856 C 0.98646 0.63077 0.5245 0.0
H857 H 0.00949 0.6757 0.52445 0.0
C858 C 0.97942 0.63114 0.54387 0.0
C859 C 0.99735 0.64703 0.51734 0.0
C860 C 0.00472 0.64758 0.49643 0.0
C861 C 0.98333 0.64724 0.55647 0.0
C862 C 0.99419 0.66354 0.54931 0.0
C863 C 0.00117 0.66318 0.52989 0.0
C864 C 0.99856 0.68111 0.56174 0.0
C865 C 0.97623 0.64642 0.57747 0.0
C866 C 0.98334 0.69195 0.5696 0.0
C867 C 0.98752 0.70845 0.5814 0.0
C868 C 0.00702 0.71454 0.58537 0.0
C869 C 0.02223 0.70384 0.5772 0.0
C870 C 0.01803 0.68728 0.56548 0.0
H871 H 0.97296 0.6312 0.58204 0.0
H872 H 0.98723 0.65321 0.58776 0.0
H873 H 0.96255 0.65453 0.57882 0.0
H874 H 0.96821 0.6877 0.56652 0.0
H875 H 0.97545 0.71646 0.58733 0.0
H876 H 0.73154 0.84934 0.1794 0.0
H877 H 0.75318 0.87829 0.18424 0.0
H878 H 0.75576 0.86738 0.24646 0.0
H879 H 0.73427 0.83829 0.24174 0.0
H880 H 0.74652 0.91171 0.2116 0.0
H881 H 0.81426 0.87211 0.22696 0.0
H882 H 0.7934 0.86074 0.21436 0.0
H883 H 0.79274 0.86475 0.24052 0.0
C884 C 0.73682 0.85306 0.19409 0.0
C885 C 0.73129 0.84154 0.21019 0.0
C886 C 0.74908 0.86961 0.19683 0.0
C887 C 0.75616 0.87479 0.21566 0.0
C888 C 0.75056 0.86346 0.23179 0.0
H889 H 0.8368 0.96556 0.26027 0.0
H890 H 0.81443 0.93718 0.25603 0.0
C891 C 0.73819 0.84697 0.22909 0.0
C892 C 0.76933 0.89216 0.21843 0.0
H893 H 0.81632 0.90639 0.23018 0.0
C894 C 0.7618 0.91061 0.21562 0.0
C895 C 0.78918 0.89057 0.22375 0.0
C896 C 0.79802 0.871 0.22647 0.0
C897 C 0.77359 0.92762 0.21828 0.0
C898 C 0.79354 0.92604 0.2234 0.0
C899 C 0.80103 0.90755 0.22624 0.0
C900 C 0.80692 0.94337 0.22589 0.0
C901 C 0.76444 0.94711 0.21604 0.0
C902 C 0.81031 0.95612 0.21026 0.0
C903 C 0.82299 0.97242 0.21266 0.0
C904 C 0.83271 0.97612 0.23068 0.0
C905 C 0.82952 0.96314 0.24621 0.0
C906 C 0.81675 0.94692 0.24382 0.0
H907 H 0.74828 0.94596 0.21769 0.0
H908 H 0.77044 0.9579 0.22705 0.0
H909 H 0.76769 0.95267 0.20113 0.0
H910 H 0.80325 0.9534 0.19614 0.0
H911 H 0.82525 0.98204 0.20036 0.0
H912 H 0.72811 0.17737 0.32484 0.0
H913 H 0.75056 0.15057 0.32101 0.0
H914 H 0.7554 0.16193 0.25898 0.0
H915 H 0.73315 0.18888 0.26271 0.0
H916 H 0.746 0.11663 0.29359 0.0
H917 H 0.81304 0.16307 0.28095 0.0
H918 H 0.79139 0.17231 0.29247 0.0
H919 H 0.79197 0.16825 0.26631 0.0
C920 C 0.73405 0.17421 0.31041 0.0
C921 C 0.72894 0.18524 0.29408 0.0
C922 C 0.74677 0.15887 0.30825 0.0
C923 C 0.75474 0.15447 0.28977 0.0
C924 C 0.74952 0.16528 0.27339 0.0
H925 H 0.83781 0.07211 0.24642 0.0
H926 H 0.81509 0.09848 0.25078 0.0
C927 C 0.73671 0.18054 0.27552 0.0
C928 C 0.76845 0.13847 0.28758 0.0
H929 H 0.816 0.12905 0.27721 0.0
C930 C 0.76133 0.11928 0.29008 0.0
C931 C 0.78837 0.14209 0.28295 0.0
C932 C 0.79678 0.16254 0.28064 0.0
C933 C 0.77359 0.10349 0.28768 0.0
C934 C 0.79358 0.10709 0.28314 0.0
C935 C 0.80068 0.12633 0.2807 0.0
C936 C 0.80736 0.09111 0.28068 0.0
C937 C 0.76489 0.08309 0.2895 0.0
C938 C 0.81079 0.07842 0.29615 0.0
C939 C 0.82367 0.06327 0.29367 0.0
C940 C 0.83355 0.06068 0.27574 0.0
C941 C 0.83041 0.07369 0.26041 0.0
C942 C 0.81744 0.08876 0.26287 0.0
H943 H 0.74874 0.08265 0.28756 0.0
H944 H 0.77127 0.07304 0.27848 0.0
H945 H 0.76809 0.07765 0.3044 0.0
H946 H 0.80354 0.08028 0.31018 0.0
H947 H 0.82589 0.05361 0.30583 0.0
H948 H 0.44274 0.01258 0.00708 0.0
H949 H 0.41504 0.99051 0.01483 0.0
H950 H 0.3989 0.98727 0.95343 0.0
H951 H 0.42644 0.00953 0.94556 0.0
H952 H 0.37521 0.99739 0.0071 0.0
H953 H 0.39904 0.92969 0.96977 0.0
H954 H 0.41573 0.95001 0.97551 0.0
H955 H 0.39955 0.95093 0.95471 0.0
C956 C 0.43329 0.00717 0.99522 0.0
C957 C 0.43676 0.01283 0.9757 0.0
C958 C 0.41755 0.9945 -0.00034 0.0
C959 C 0.40508 0.98711 0.98468 0.0
C960 C 0.4086 0.99252 0.96515 0.0
H961 H 0.29803 0.91582 0.98187 0.0
H962 H 0.32732 0.93567 0.97413 0.0
C963 C 0.42434 0.00522 0.96068 0.0
C964 C 0.38779 0.97459 0.98967 0.0
H965 H 0.3666 0.92929 0.98214 0.0
C966 C 0.37335 0.98246 0.00175 0.0
C967 C 0.38543 0.95518 0.98256 0.0
C968 C 0.40081 0.94584 0.97005 0.0
C969 C 0.35639 0.97153 0.00667 0.0
C970 C 0.35404 0.95208 -0.00038 0.0
C971 C 0.36849 0.9442 0.98754 0.0
C972 C 0.33654 0.93975 0.00445 0.0
C973 C 0.34093 0.98106 0.01894 0.0
C974 C 0.3322 0.93523 0.02406 0.0
C975 C 0.31542 0.92396 0.02856 0.0
C976 C 0.30278 0.91687 0.0135 0.0
C977 C 0.30742 0.9211 0.99383 0.0
C978 C 0.32416 0.93242 0.98936 0.0
H979 H 0.3426 0.99721 0.01882 0.0
H980 H 0.32602 0.9767 0.01357 0.0
H981 H 0.34224 0.97639 0.03442 0.0
H982 H 0.34179 0.94043 0.03589 0.0
H983 H 0.31236 0.92083 0.04383 0.0
H984 H 0.26238 0.31961 0.25601 0.0
H985 H 0.24074 0.34707 0.25323 0.0
H986 H 0.25008 0.3615 0.31466 0.0
H987 H 0.27197 0.33427 0.31749 0.0
H988 H 0.2057 0.35336 0.27651 0.0
H989 H 0.26222 0.41327 0.28514 0.0
H990 H 0.26823 0.38865 0.27843 0.0
H991 H 0.26241 0.39476 0.30349 0.0
C992 C 0.25998 0.32877 0.26886 0.0
C993 C 0.2689 0.32484 0.28695 0.0
C994 C 0.24755 0.34435 0.26728 0.0
C995 C 0.24401 0.35638 0.28369 0.0
C996 C 0.25285 0.3525 0.30177 0.0
H997 H 0.17552 0.45869 0.30299 0.0
H998 H 0.19691 0.43117 0.30619 0.0
C999 C 0.26519 0.33687 0.3034 0.0
C1000 C 0.23067 0.37271 0.28201 0.0
H1001 H 0.22919 0.42227 0.28436 0.0
C1002 C 0.2108 0.36844 0.27815 0.0
C1003 C 0.23743 0.39231 0.28427 0.0
C1004 C 0.25876 0.39764 0.28792 0.0
C1005 C 0.19738 0.38331 0.27678 0.0
C1006 C 0.20415 0.40296 0.27887 0.0
C1007 C 0.22404 0.4072 0.28276 0.0
C1008 C 0.19087 0.41937 0.27696 0.0
C1009 C 0.17602 0.37782 0.27357 0.0
C1010 C 0.18053 0.42196 0.25939 0.0
C1011 C 0.16821 0.4376 0.25755 0.0
C1012 C 0.16619 0.45108 0.27318 0.0
C1013 C 0.17673 0.44855 0.29069 0.0
C1014 C 0.18896 0.43285 0.29254 0.0
H1015 H 0.17252 0.36256 0.27786 0.0
H1016 H 0.16651 0.38764 0.28208 0.0
H1017 H 0.17244 0.37907 0.25772 0.0
H1018 H 0.18215 0.412 0.24701 0.0
H1019 H 0.16044 0.43921 0.24381 0.0
H1020 H 0.05741 0.02584 0.46412 0.0
H1021 H 0.08609 0.04783 0.46918 0.0
H1022 H 0.12267 0.99843 0.47459 0.0
H1023 H 0.09415 0.97634 0.46917 0.0
H1024 H 0.11212 0.04899 0.50269 0.0
H1025 H 0.15024 0.03276 0.4324 0.0
H1026 H 0.12456 0.02687 0.43609 0.0
H1027 H 0.14275 0.01191 0.44652 0.0
C1028 C 0.0716 0.01967 0.46617 0.0
C1029 C 0.07356 -0.00063 0.46616 0.0
C1030 C 0.08792 0.03223 0.46916 0.0
C1031 C 0.10648 0.02472 0.47202 0.0
C1032 C 0.10849 0.00449 0.47213 0.0
H1033 H 0.2226 0.0766 0.49176 0.0
H1034 H 0.19414 0.05449 0.48636 0.0
C1035 C 0.09217 0.99191 0.46922 0.0
C1036 C 0.12367 0.03809 0.47536 0.0
H1037 H 0.16753 0.05287 0.45571 0.0
C1038 C 0.12422 0.04993 0.49241 0.0
C1039 C 0.13942 0.03914 0.46193 0.0
C1040 C 0.13925 0.02713 0.44311 0.0
C1041 C 0.1403 0.06264 0.49657 0.0
C1042 C 0.15601 0.06381 0.48307 0.0
C1043 C 0.15546 0.05193 0.46602 0.0
C1044 C 0.17317 0.0773 0.48633 0.0
C1045 C 0.14051 0.07434 0.51559 0.0
C1046 C 0.17083 0.09747 0.48783 0.0
C1047 C 0.18704 0.11014 0.49101 0.0
C1048 C 0.20592 0.10287 0.49255 0.0
C1049 C 0.20825 0.08267 0.4907 0.0
C1050 C 0.19202 0.07001 0.48759 0.0
H1051 H 0.13026 0.06789 0.52657 0.0
H1052 H 0.15542 0.07538 0.52213 0.0
H1053 H 0.13587 0.08931 0.51263 0.0
H1054 H 0.15647 0.10344 0.48643 0.0
H1055 H 0.18475 0.12563 0.49221 0.0
H1056 H 0.73721 0.19351 0.71136 0.0
H1057 H 0.71496 0.16507 0.71469 0.0
H1058 H 0.7635 0.13016 0.73031 0.0
H1059 H 0.78603 0.15836 0.72646 0.0
H1060 H 0.71899 0.12614 0.69376 0.0
H1061 H 0.72094 0.12395 0.77565 0.0
H1062 H 0.72724 0.14579 0.76229 0.0
H1063 H 0.744 0.12637 0.76303 0.0
C1064 C 0.74322 0.17975 0.71529 0.0
C1065 C 0.76343 0.17823 0.71863 0.0
C1066 C 0.73046 0.16356 0.7173 0.0
C1067 C 0.73762 0.14564 0.72288 0.0
C1068 C 0.75772 0.14399 0.72621 0.0
H1069 H 0.68026 0.03455 0.74984 0.0
H1070 H 0.70372 0.06181 0.74528 0.0
C1071 C 0.77053 0.16013 0.72409 0.0
C1072 C 0.72403 0.1286 0.72499 0.0
H1073 H 0.70265 0.0989 0.75908 0.0
C1074 C 0.71536 0.12014 0.70801 0.0
C1075 C 0.71952 0.12084 0.74361 0.0
C1076 C 0.72827 0.1297 0.76226 0.0
C1077 C 0.70236 0.10391 0.70914 0.0
C1078 C 0.69754 0.09632 0.72782 0.0
C1079 C 0.70634 0.10476 0.74479 0.0
C1080 C 0.68333 0.0797 0.73014 0.0
C1081 C 0.69429 0.0948 0.69029 0.0
C1082 C 0.66401 0.08079 0.72331 0.0
C1083 C 0.6506 0.06517 0.72575 0.0
C1084 C 0.6562 0.04829 0.73533 0.0
C1085 C 0.67549 0.04734 0.74238 0.0
C1086 C 0.68892 0.06291 0.7398 0.0
H1087 H 0.70371 0.0985 0.67748 0.0
H1088 H 0.69287 0.0787 0.69129 0.0
H1089 H 0.67957 0.10042 0.68744 0.0
H1090 H 0.65923 0.09381 0.71628 0.0
H1091 H 0.63581 0.06643 0.72032 0.0
H1092 H 0.45346 0.01611 0.53333 0.0
H1093 H 0.42646 0.03762 0.52722 0.0
H1094 H 0.38971 0.98807 0.50918 0.0
H1095 H 0.41645 0.96639 0.51578 0.0
H1096 H 0.40544 0.04312 0.49218 0.0
H1097 H 0.35729 0.01524 0.5519 0.0
H1098 H 0.38299 0.01022 0.55056 0.0
H1099 H 0.36564 0.99682 0.53514 0.0
C1100 C 0.43957 0.00977 0.52823 0.0
C1101 C 0.43704 0.98953 0.52518 0.0
C1102 C 0.42422 0.02209 0.52463 0.0
C1103 C 0.40603 0.01439 0.51803 0.0
C1104 C 0.40355 0.99425 0.51459 0.0
H1105 H 0.31035 0.07631 0.46742 0.0
H1106 H 0.33808 0.05571 0.4733 0.0
C1107 C 0.4189 0.98192 0.51816 0.0
C1108 C 0.38968 0.02748 0.51468 0.0
H1109 H 0.34346 0.0373 0.52982 0.0
C1110 C 0.39189 0.0419 0.50042 0.0
C1111 C 0.37216 0.02598 0.52565 0.0
C1112 C 0.36936 0.01136 0.5418 0.0
C1113 C 0.37687 0.0547 0.4966 0.0
C1114 C 0.35912 0.05281 0.50716 0.0
C1115 C 0.35704 0.03859 0.52164 0.0
C1116 C 0.34252 0.0655 0.50349 0.0
C1117 C 0.38024 0.0703 0.48152 0.0
C1118 C 0.3356 0.07754 0.51864 0.0
C1119 C 0.31968 0.08926 0.51537 0.0
C1120 C 0.31033 0.08905 0.4969 0.0
C1121 C 0.31727 0.07689 0.48178 0.0
C1122 C 0.33319 0.06519 0.48507 0.0
H1123 H 0.39606 0.07296 0.47847 0.0
H1124 H 0.37295 0.06562 0.46751 0.0
H1125 H 0.37393 0.08422 0.48649 0.0
H1126 H 0.34256 0.0779 0.53299 0.0
H1127 H 0.31468 0.09842 0.52735 0.0
H1128 H 0.55974 0.49374 0.54269 0.0
H1129 H 0.58845 0.47384 0.53884 0.0
H1130 H 0.62359 0.52508 0.52468 0.0
H1131 H 0.59522 0.54521 0.52939 0.0
H1132 H 0.6114 0.46811 0.50656 0.0
H1133 H 0.65587 0.50151 0.56756 0.0
H1134 H 0.63013 0.50569 0.56471 0.0
H1135 H 0.64793 0.5189 0.55016 0.0
C1136 C 0.57365 0.50083 0.53904 0.0
C1137 C 0.5752 0.5211 0.53647 0.0
C1138 C 0.59 0.48941 0.53671 0.0
C1139 C 0.60822 0.49803 0.53181 0.0
C1140 C 0.60977 0.51819 0.52889 0.0
H1141 H 0.72227 0.45536 0.50326 0.0
H1142 H 0.69324 0.47459 0.50832 0.0
C1143 C 0.59345 0.52963 0.53132 0.0
C1144 C 0.62552 0.48585 0.52931 0.0
H1145 H 0.67222 0.48017 0.5456 0.0
C1146 C 0.62465 0.47065 0.51519 0.0
C1147 C 0.64277 0.48918 0.54062 0.0
C1148 C 0.64422 0.50458 0.55675 0.0
C1149 C 0.64074 0.45896 0.51178 0.0
C1150 C 0.65805 0.4625 0.52289 0.0
C1151 C 0.65891 0.4776 0.53707 0.0
C1152 C 0.67551 0.45075 0.5199 0.0
C1153 C 0.6393 0.44317 0.49605 0.0
C1154 C 0.67515 0.43105 0.52497 0.0
C1155 C 0.69173 0.42003 0.52219 0.0
C1156 C 0.70894 0.42854 0.51427 0.0
C1157 C 0.70924 0.44834 0.50933 0.0
C1158 C 0.69269 0.45936 0.51223 0.0
H1159 H 0.62643 0.44477 0.48628 0.0
H1160 H 0.65275 0.44331 0.48692 0.0
H1161 H 0.63785 0.42877 0.50313 0.0
H1162 H 0.66207 0.42423 0.53116 0.0
H1163 H 0.69102 0.40483 0.52618 0.0
H1164 H 0.7064 0.27104 0.31244 0.0
H1165 H 0.71214 0.29477 0.33933 0.0
H1166 H 0.72045 0.248 0.37961 0.0
H1167 H 0.71467 0.22416 0.35281 0.0
H1168 H 0.69167 0.29876 0.37475 0.0
H1169 H 0.76963 0.2831 0.38808 0.0
H1170 H 0.75665 0.27486 0.36612 0.0
H1171 H 0.75323 0.26209 0.38878 0.0
C1172 C 0.70935 0.26581 0.32705 0.0
C1173 C 0.71016 0.24573 0.33051 0.0
C1174 C 0.7127 0.27937 0.34236 0.0
C1175 C 0.71701 0.27313 0.36137 0.0
C1176 C 0.71759 0.25312 0.36494 0.0
H1177 H 0.73979 0.33066 0.47376 0.0
H1178 H 0.73345 0.30741 0.44663 0.0
C1179 C 0.71427 0.23953 0.34963 0.0
C1180 C 0.72053 0.28758 0.37753 0.0
H1181 H 0.75464 0.30405 0.41124 0.0
C1182 C 0.70546 0.30001 0.38268 0.0
C1183 C 0.73854 0.28913 0.38781 0.0
C1184 C 0.75552 0.27672 0.38234 0.0
C1185 C 0.7078 0.31373 0.39814 0.0
C1186 C 0.72578 0.31521 0.40848 0.0
C1187 C 0.74086 0.30282 0.40329 0.0
C1188 C 0.72923 0.32943 0.42485 0.0
C1189 C 0.69087 0.32621 0.40359 0.0
C1190 C 0.72911 0.34952 0.42151 0.0
C1191 C 0.73272 0.36287 0.43698 0.0
C1192 C 0.73662 0.35634 0.45604 0.0
C1193 C 0.73681 0.33618 0.45928 0.0
C1194 C 0.73321 0.32287 0.4438 0.0
H1195 H 0.67679 0.32011 0.39751 0.0
H1196 H 0.68951 0.32773 0.41983 0.0
H1197 H 0.69344 0.34097 0.39754 0.0
H1198 H 0.72643 0.35486 0.40689 0.0
H1199 H 0.73256 0.37828 0.43398 0.0
H1200 H 0.49245 0.06582 0.92406 0.0
H1201 H 0.51382 0.06145 0.8956 0.0
H1202 H 0.51706 0.00037 0.90813 0.0
H1203 H 0.49583 0.00462 0.93672 0.0
H1204 H 0.55215 0.04756 0.89544 0.0
H1205 H 0.5015 0.00054 0.84958 0.0
H1206 H 0.4933 0.0146 0.87051 0.0
H1207 H 0.50534 0.99214 0.87412 0.0
C1208 C 0.49776 0.05147 0.9208 0.0
C1209 C 0.49242 0.03555 0.93263 0.0
C1210 C 0.50989 0.04899 0.9045 0.0
C1211 C 0.5168 0.03055 0.89964 0.0
C1212 C 0.51154 0.01464 0.9114 0.0
H1213 H 0.59313 0.9874 0.80811 0.0
H1214 H 0.57207 0.99121 0.83688 0.0
C1215 C 0.49941 0.0171 0.92772 0.0
C1216 C 0.52999 0.02814 0.88261 0.0
H1217 H 0.53401 0.00492 0.83802 0.0
C1218 C 0.54819 0.0383 0.88284 0.0
C1219 C 0.52476 0.016 0.86626 0.0
C1220 C 0.5051 0.0053 0.86493 0.0
C1221 C 0.56144 0.03644 0.86724 0.0
C1222 C 0.55617 0.02436 0.85084 0.0
C1223 C 0.538 0.01415 0.85064 0.0
C1224 C 0.56923 0.02224 0.83365 0.0
C1225 C 0.5811 0.04711 0.86861 0.0
C1226 C 0.57446 0.03841 0.82223 0.0
C1227 C 0.58652 0.0363 0.80581 0.0
C1228 C 0.59345 0.01795 0.80044 0.0
C1229 C 0.58809 0.00175 0.81188 0.0
C1230 C 0.57604 0.00389 0.8283 0.0
H1231 H 0.58484 0.05147 0.88404 0.0
H1232 H 0.59286 0.03798 0.86266 0.0
H1233 H 0.58075 0.06053 0.85981 0.0
H1234 H 0.56903 0.05263 0.82589 0.0
H1235 H 0.59027 0.04905 0.79726 0.0
H1236 H 0.32114 0.2653 0.32937 0.0
H1237 H 0.31732 0.24376 0.35756 0.0
H1238 H 0.25461 0.24339 0.35055 0.0
H1239 H 0.25831 0.26453 0.32212 0.0
H1240 H 0.29659 0.25114 0.39274 0.0
H1241 H 0.2668 0.18517 0.35302 0.0
H1242 H 0.27913 0.20512 0.3406 0.0
H1243 H 0.25405 0.20694 0.34806 0.0
C1244 C 0.30656 0.26041 0.33369 0.0
C1245 C 0.29002 0.26656 0.32351 0.0
C1246 C 0.3044 0.24822 0.34984 0.0
C1247 C 0.2857 0.24181 0.35596 0.0
C1248 C 0.26918 0.24793 0.34586 0.0
H1249 H 0.24689 0.19649 0.46729 0.0
H1250 H 0.25407 0.21598 0.43828 0.0
C1251 C 0.27131 0.26016 0.32976 0.0
C1252 C 0.28339 0.22925 0.37331 0.0
H1253 H 0.2648 0.18509 0.38801 0.0
C1254 C 0.28976 0.23665 0.39172 0.0
C1255 C 0.27469 0.21029 0.37185 0.0
C1256 C 0.26843 0.20129 0.3523 0.0
C1257 C 0.28714 0.22575 0.40884 0.0
C1258 C 0.27771 0.2071 0.40749 0.0
C1259 C 0.27186 0.19948 0.389 0.0
C1260 C 0.27356 0.19535 0.42513 0.0
C1261 C 0.29457 0.23424 0.42821 0.0
C1262 C 0.28183 0.17712 0.42713 0.0
C1263 C 0.27771 0.16589 0.44366 0.0
C1264 C 0.2651 0.17266 0.45841 0.0
C1265 C 0.25672 0.19088 0.45625 0.0
C1266 C 0.26089 0.2021 0.43974 0.0
H1267 H 0.30574 0.24617 0.42606 0.0
H1268 H 0.28217 0.24035 0.43649 0.0
H1269 H 0.30104 0.22287 0.43733 0.0
H1270 H 0.29156 0.17163 0.41593 0.0
H1271 H 0.28437 0.15191 0.44485 0.0
H1272 H 0.5103 0.51044 0.93356 0.0
H1273 H 0.48767 0.515 0.90617 0.0
H1274 H 0.48771 0.45349 0.89242 0.0
H1275 H 0.51043 0.44881 0.91961 0.0
H1276 H 0.49297 0.50583 0.86577 0.0
H1277 H 0.42918 0.46472 0.89692 0.0
H1278 H 0.44999 0.47293 0.91168 0.0
H1279 H 0.45136 0.45152 0.8962 0.0
C1280 C 0.50557 0.4979 0.92464 0.0
C1281 C 0.51207 0.47924 0.92882 0.0
C1282 C 0.49259 0.50052 0.90907 0.0
C1283 C 0.4858 0.48453 0.89751 0.0
C1284 C 0.49244 0.46594 0.90147 0.0
H1285 H 0.41106 0.46668 0.79568 0.0
H1286 H 0.43301 0.46361 0.82381 0.0
C1287 C 0.50541 0.4633 0.91701 0.0
C1288 C 0.47213 0.48733 0.88098 0.0
H1289 H 0.42668 0.4739 0.86349 0.0
C1290 C 0.47842 0.49898 0.8653 0.0
C1291 C 0.4532 0.47833 0.88046 0.0
C1292 C 0.44541 0.46631 0.89728 0.0
C1293 C 0.46642 0.50148 0.84883 0.0
C1294 C 0.44753 0.49235 0.84824 0.0
C1295 C 0.44119 0.48083 0.86399 0.0
C1296 C 0.43419 0.49438 0.83128 0.0
C1297 C 0.47425 0.51342 0.83196 0.0
C1298 C 0.42738 0.51267 0.82636 0.0
C1299 C 0.41486 0.51449 0.81027 0.0
C1300 C 0.40882 0.49801 0.79891 0.0
C1301 C 0.41546 0.47967 0.80408 0.0
C1302 C 0.42799 0.47787 0.82016 0.0
H1303 H 0.49045 0.51538 0.83258 0.0
H1304 H 0.47006 0.5065 0.81759 0.0
H1305 H 0.46795 0.52806 0.83269 0.0
H1306 H 0.43169 0.52552 0.83501 0.0
H1307 H 0.40992 0.52882 0.80676 0.0
H1308 H 0.71033 0.75385 0.18972 0.0
H1309 H 0.71816 0.7313 0.16274 0.0
H1310 H 0.72747 0.77981 0.12405 0.0
H1311 H 0.71967 0.80239 0.15088 0.0
H1312 H 0.70042 0.72571 0.12588 0.0
H1313 H 0.77814 0.75052 0.11838 0.0
H1314 H 0.76352 0.75681 0.1395 0.0
H1315 H 0.76126 0.76983 0.11694 0.0
C1316 C 0.71394 0.75968 0.17543 0.0
C1317 C 0.71455 0.7799 0.17245 0.0
C1318 C 0.71848 0.74681 0.16007 0.0
C1319 C 0.72375 0.75393 0.14153 0.0
C1320 C 0.72392 0.77405 0.13839 0.0
H1321 H 0.75245 0.70588 0.02772 0.0
H1322 H 0.74476 0.72637 0.05625 0.0
C1323 C 0.71945 0.78693 0.15373 0.0
C1324 C 0.72881 0.74033 0.12533 0.0
H1325 H 0.76511 0.72953 0.09293 0.0
C1326 C 0.7146 0.72641 0.11876 0.0
C1327 C 0.74736 0.74129 0.11613 0.0
C1328 C 0.76353 0.75529 0.1232 0.0
C1329 C 0.71825 0.71379 0.10281 0.0
C1330 C 0.73668 0.71499 0.09342 0.0
C1331 C 0.75097 0.72873 0.10015 0.0
C1332 C 0.74132 0.7024 0.07628 0.0
C1333 C 0.7022 0.69966 0.09577 0.0
C1334 C 0.74216 0.68216 0.0782 0.0
C1335 C 0.74657 0.67039 0.06193 0.0
C1336 C 0.75029 0.67869 0.04347 0.0
C1337 C 0.74963 0.69901 0.04169 0.0
C1338 C 0.74525 0.71075 0.05797 0.0
H1339 H 0.68768 0.70346 0.10173 0.0
H1340 H 0.70136 0.69926 0.07944 0.0
H1341 H 0.70543 0.68482 0.10071 0.0
H1342 H 0.73949 0.67549 0.09231 0.0
H1343 H 0.74703 0.65479 0.06382 0.0
H1344 H 0.00965 0.06692 0.07832 0.0
H1345 H 0.98771 0.06184 0.10634 0.0
H1346 H 0.98881 -0.00028 0.09663 0.0
H1347 H 0.0104 0.00461 0.06836 0.0
H1348 H 0.94981 0.0408 0.10625 0.0
H1349 H 0.00445 0.00869 0.15562 0.0
H1350 H 0.01139 0.0227 0.13434 0.0
H1351 H 0.00241 0.99793 0.13133 0.0
C1352 C 0.0051 0.05218 0.08203 0.0
C1353 C 0.01183 0.03616 0.07113 0.0
C1354 C 0.99266 0.04932 0.0981 0.0
C1355 C 0.98688 0.03041 0.10365 0.0
C1356 C 0.99342 0.01441 0.09275 0.0
H1357 H 0.91608 0.98221 0.19785 0.0
H1358 H 0.93688 0.98738 0.16904 0.0
C1359 C 0.00578 0.01724 0.07665 0.0
C1360 C 0.97376 0.02742 0.12068 0.0
H1361 H 0.97168 0.00842 0.1667 0.0
C1362 C 0.95456 0.03379 0.11951 0.0
C1363 C 0.98006 0.0182 0.13787 0.0
C1364 C 0.00074 0.01159 0.14004 0.0
C1365 C 0.94131 0.03088 0.13503 0.0
C1366 C 0.94763 0.02175 0.1523 0.0
C1367 C 0.96687 0.01539 0.15343 0.0
C1368 C 0.93458 0.0187 0.16943 0.0
C1369 C 0.92055 0.03718 0.13257 0.0
C1370 C 0.92652 0.03462 0.17928 0.0
C1371 C 0.91454 0.03172 0.19568 0.0
C1372 C 0.9106 0.01284 0.20267 0.0
C1373 C 0.91881 0.99693 0.19284 0.0
C1374 C 0.93071 -0.00015 0.17639 0.0
H1375 H 0.91665 0.03876 0.11681 0.0
H1376 H 0.90997 0.0266 0.13927 0.0
H1377 H 0.91898 0.05154 0.14003 0.0
H1378 H 0.92969 0.04933 0.17445 0.0
H1379 H 0.90856 0.0443 0.20301 0.0
H1380 H 0.28487 0.7629 0.19709 0.0
H1381 H 0.28099 0.78559 0.17016 0.0
H1382 H 0.27069 0.73727 0.12958 0.0
H1383 H 0.27471 0.71444 0.1564 0.0
H1384 H 0.30302 0.78826 0.13556 0.0
H1385 H 0.22435 0.77223 0.11946 0.0
H1386 H 0.23593 0.76493 0.14192 0.0
H1387 H 0.23914 0.75117 0.11949 0.0
C1388 C 0.28184 0.75709 0.18242 0.0
C1389 C 0.28008 0.73686 0.17887 0.0
C1390 C 0.27954 0.77008 0.16709 0.0
C1391 C 0.27532 0.7631 0.14796 0.0
C1392 C 0.27355 0.74294 0.14433 0.0
H1393 H 0.28954 0.82431 0.03834 0.0
H1394 H 0.29238 0.80279 0.06637 0.0
C1395 C 0.27584 0.72993 0.15967 0.0
C1396 C 0.27344 0.77694 0.13168 0.0
H1397 H 0.24181 0.79211 0.0967 0.0
C1398 C 0.28963 0.78917 0.12709 0.0
C1399 C 0.25587 0.77823 0.12085 0.0
C1400 C 0.23775 0.76608 0.12574 0.0
C1401 C 0.28883 0.80243 0.11168 0.0
C1402 C 0.27147 0.80326 0.10043 0.0
C1403 C 0.25516 0.7913 0.10526 0.0
C1404 C 0.26992 0.81646 0.08358 0.0
C1405 C 0.30649 0.81559 0.10771 0.0
C1406 C 0.25611 0.83105 0.08384 0.0
C1407 C 0.25439 0.84334 0.06782 0.0
C1408 C 0.26638 0.84115 0.05118 0.0
C1409 C 0.28015 0.82646 0.05096 0.0
C1410 C 0.28187 0.8142 0.067 0.0
H1411 H 0.31659 0.81664 0.12055 0.0
H1412 H 0.31466 0.80961 0.09501 0.0
H1413 H 0.30206 0.83046 0.104 0.0
H1414 H 0.2467 0.83296 0.09649 0.0
H1415 H 0.2436 0.85447 0.06844 0.0
H1416 H 0.99345 0.50461 0.06456 0.0
H1417 H 0.01438 0.51005 0.09355 0.0
H1418 H 0.01523 0.4481 0.10219 0.0
H1419 H 0.99393 0.44249 0.07351 0.0
H1420 H 0.00595 0.49651 0.13347 0.0
H1421 H 0.0741 0.46744 0.10172 0.0
H1422 H 0.05408 0.47499 0.08661 0.0
H1423 H 0.05233 0.4521 0.09892 0.0
C1424 C 0.99795 0.49213 0.0727 0.0
C1425 C 0.99201 0.4731 0.06669 0.0
C1426 C 0.01 0.49527 0.08918 0.0
C1427 C 0.01648 0.47946 0.09982 0.0
C1428 C 0.01062 0.46046 0.09393 0.0
H1429 H 0.09058 0.46751 0.20209 0.0
H1430 H 0.06975 0.4623 0.17302 0.0
C1431 C 0.99849 0.4573 0.07752 0.0
C1432 C 0.02898 0.48287 0.11742 0.0
H1433 H 0.07468 0.47588 0.13563 0.0
C1434 C 0.021 0.49209 0.13397 0.0
C1435 C 0.04854 0.47697 0.11795 0.0
C1436 C 0.0579 0.46744 0.10033 0.0
C1437 C 0.03201 0.49529 0.15126 0.0
C1438 C 0.05166 0.48952 0.15178 0.0
C1439 C 0.05962 0.4803 0.13518 0.0
C1440 C 0.0642 0.49282 0.16943 0.0
C1441 C 0.02233 0.50435 0.16897 0.0
C1442 C 0.06818 0.51174 0.17689 0.0
C1443 C 0.07998 0.51477 0.19358 0.0
C1444 C 0.0882 0.49893 0.20295 0.0
C1445 C 0.08444 0.48002 0.19524 0.0
C1446 C 0.07256 0.47701 0.17862 0.0
H1447 H 0.00612 0.50286 0.16799 0.0
H1448 H 0.02714 0.4976 0.1828 0.0
H1449 H 0.02643 0.52012 0.16979 0.0
H1450 H 0.06226 0.5242 0.16974 0.0
H1451 H 0.08272 0.52953 0.19904 0.0
H1452 H 0.32655 0.68744 0.23858 0.0
H1453 H 0.35388 0.6938 0.26141 0.0
H1454 H 0.34077 0.7547 0.26391 0.0
H1455 H 0.31307 0.74838 0.24158 0.0
H1456 H 0.38646 0.71884 0.25576 0.0
H1457 H 0.34482 0.74079 0.32207 0.0
H1458 H 0.33339 0.72826 0.30121 0.0
H1459 H 0.33907 0.75399 0.30038 0.0
C1460 C 0.32929 0.70213 0.24424 0.0
C1461 C 0.31759 0.7174 0.23833 0.0
C1462 C 0.34497 0.70575 0.25718 0.0
C1463 C 0.34917 0.72466 0.26454 0.0
C1464 C 0.33756 0.73994 0.25867 0.0
H1465 H 0.44017 0.78008 0.3368 0.0
H1466 H 0.41178 0.77218 0.31578 0.0
C1467 C 0.32188 0.73634 0.24574 0.0
C1468 C 0.36619 0.72856 0.27772 0.0
H1469 H 0.37935 0.74639 0.32328 0.0
C1470 C 0.38492 0.72473 0.27057 0.0
C1471 C 0.36409 0.73628 0.29701 0.0
C1472 C 0.34425 0.73992 0.30573 0.0
C1473 C 0.4017 0.72883 0.28206 0.0
C1474 C 0.39961 0.73668 0.3013 0.0
C1475 C 0.38087 0.74041 0.3085 0.0
C1476 C 0.41673 0.74129 0.31414 0.0
C1477 C 0.42155 0.72521 0.27335 0.0
C1478 C 0.42874 0.72647 0.32037 0.0
C1479 C 0.44498 0.73092 0.33237 0.0
C1480 C 0.44944 0.75028 0.33842 0.0
C1481 C 0.43719 0.76504 0.33235 0.0
C1482 C 0.42095 0.76056 0.32037 0.0
H1483 H 0.42089 0.7236 0.25705 0.0
H1484 H 0.43219 0.73727 0.27729 0.0
H1485 H 0.4271 0.71155 0.27933 0.0
H1486 H 0.42551 0.71145 0.31601 0.0
H1487 H 0.45405 0.71919 0.33687 0.0
H1488 H 0.97882 0.41364 0.02839 0.0
H1489 H 0.98449 0.38661 0.00536 0.0
H1490 H 0.97339 0.42383 0.95649 0.0
H1491 H 0.96818 0.45107 0.97938 0.0
H1492 H 0.95809 0.37021 0.9768 0.0
H1493 H 0.02628 0.40024 0.9427 0.0
H1494 H 0.01686 0.40962 0.96566 0.0
H1495 H 0.00611 0.41626 0.9427 0.0
C1496 C 0.97783 0.41613 0.01273 0.0
C1497 C 0.97314 0.43451 0.00569 0.0
C1498 C 0.98095 0.40066 -0.00038 0.0
C1499 C 0.9796 0.40331 0.97925 0.0
C1500 C 0.9748 0.42158 0.97216 0.0
H1501 H 0.99211 0.32783 0.87661 0.0
H1502 H 0.98666 0.35504 0.89945 0.0
C1503 C 0.97164 0.43706 0.98526 0.0
C1504 C 0.98274 0.38682 0.96543 0.0
H1505 H 0.01206 0.37147 0.92808 0.0
C1506 C 0.96993 0.37042 0.96619 0.0
C1507 C 0.99817 0.38722 0.9516 0.0
C1508 C 0.01277 0.40419 0.95065 0.0
C1509 C 0.97194 0.35448 0.95324 0.0
C1510 C 0.98741 0.35484 0.93944 0.0
C1511 C 0.00021 0.37126 0.93867 0.0
C1512 C 0.99063 0.33828 0.92571 0.0
C1513 C 0.95725 0.33757 0.95416 0.0
C1514 C 0.99491 0.31993 0.93293 0.0
C1515 C 0.99799 0.30434 0.91994 0.0
C1516 C 0.997 0.30688 0.89947 0.0
C1517 C 0.99294 0.32537 0.89229 0.0
C1518 C 0.98983 0.34094 0.9053 0.0
H1519 H 0.9436 0.34171 0.96175 0.0
H1520 H 0.95343 0.33191 0.93917 0.0
H1521 H 0.96368 0.32562 0.96249 0.0
H1522 H 0.99599 0.31768 0.94862 0.0
H1523 H 0.00121 0.29033 0.92596 0.0
H1524 H 0.67913 0.7687 0.23413 0.0
H1525 H 0.65109 0.76263 0.25587 0.0
H1526 H 0.6362 0.82288 0.25212 0.0
H1527 H 0.66393 0.82898 0.23009 0.0
H1528 H 0.64351 0.7819 0.29291 0.0
H1529 H 0.58474 0.79199 0.23781 0.0
H1530 H 0.60973 0.78769 0.23091 0.0
H1531 H 0.60304 0.81142 0.23945 0.0
C1532 C 0.66976 0.7806 0.23778 0.0
C1533 C 0.6737 0.79931 0.23037 0.0
C1534 C 0.65384 0.77713 0.25027 0.0
C1535 C 0.64149 0.79226 0.25539 0.0
C1536 C 0.64542 0.81096 0.24811 0.0
H1537 H 0.53815 0.80257 0.32772 0.0
H1538 H 0.56627 0.80802 0.30606 0.0
C1539 C 0.66136 0.81446 0.23569 0.0
C1540 C 0.62472 0.7886 0.2687 0.0
H1541 H 0.57488 0.78889 0.27106 0.0
C1542 C 0.62849 0.78332 0.28815 0.0
C1543 C 0.60519 0.79055 0.2624 0.0
C1544 C 0.60033 0.79556 0.24146 0.0
C1545 C 0.6132 0.7803 0.30164 0.0
C1546 C 0.59364 0.78223 0.29533 0.0
C1547 C 0.58989 0.78745 0.27585 0.0
C1548 C 0.57682 0.77889 0.30871 0.0
C1549 C 0.61816 0.77556 0.32263 0.0
C1550 C 0.57333 0.76064 0.31721 0.0
C1551 C 0.55733 0.75749 0.32965 0.0
C1552 C 0.5444 0.7725 0.33366 0.0
C1553 C 0.54783 0.79072 0.32496 0.0
C1554 C 0.56388 0.79386 0.31257 0.0
H1555 H 0.63361 0.77976 0.32631 0.0
H1556 H 0.60844 0.78308 0.33314 0.0
H1557 H 0.61613 0.75963 0.32467 0.0
H1558 H 0.58289 0.74876 0.31407 0.0
H1559 H 0.55503 0.74325 0.336 0.0
H1560 H -0.00048 0.06875 0.00992 0.0
H1561 H 0.99413 0.09585 0.98795 0.0
H1562 H 0.05634 0.10821 0.9854 0.0
H1563 H 0.0619 0.08136 0.00767 0.0
H1564 H 0.00649 0.136 0.99501 0.0
H1565 H 0.03856 0.1047 0.9268 0.0
H1566 H 0.0312 0.08992 0.94741 0.0
H1567 H 0.05366 0.1043 0.94848 0.0
C1568 C 0.01206 0.07729 0.00478 0.0
C1569 C 0.03115 0.0729 0.01057 0.0
C1570 C 0.00895 0.09268 0.99214 0.0
C1571 C 0.02485 0.10385 0.98491 0.0
C1572 C 0.04391 0.09951 0.99056 0.0
H1573 H 0.0343 0.20373 0.90847 0.0
H1574 H 0.04068 0.17627 0.92968 0.0
C1575 C 0.04705 0.08415 0.00325 0.0
C1576 C 0.02139 0.12051 0.97204 0.0
H1577 H 0.02905 0.13742 0.92567 0.0
C1578 C 0.01135 0.13632 0.97982 0.0
C1579 C 0.02789 0.12087 0.95231 0.0
C1580 C 0.0383 0.104 0.94313 0.0
C1581 C 0.00781 0.15264 0.96844 0.0
C1582 C 0.01408 0.15293 0.94861 0.0
C1583 C 0.02423 0.13714 0.94086 0.0
C1584 C 0.01014 0.16942 0.93562 0.0
C1585 C 0.99774 0.16961 0.97789 0.0
C1586 C 0.99084 0.17446 0.93167 0.0
C1587 C 0.98714 0.19018 0.91965 0.0
C1588 C 0.00268 0.20104 0.91117 0.0
C1589 C 0.022 0.1957 0.91482 0.0
C1590 C 0.02568 0.18001 0.92692 0.0
H1591 H 0.9989 0.16946 0.9942 0.0
H1592 H 0.00405 0.1837 0.97264 0.0
H1593 H 0.98197 0.1687 0.97395 0.0
H1594 H 0.97862 0.16619 0.93786 0.0
H1595 H 0.97209 0.1938 0.91701 0.0
H1596 H 0.3332 0.31578 0.25872 0.0
H1597 H 0.35816 0.31 0.23378 0.0
H1598 H 0.34323 0.24847 0.23402 0.0
H1599 H 0.31813 0.25413 0.25891 0.0
H1600 H 0.38326 0.25692 0.23648 0.0
H1601 H 0.34983 0.29654 0.17528 0.0
H1602 H 0.35271 0.31077 0.19761 0.0
H1603 H 0.33637 0.28965 0.19705 0.0
C1604 C 0.33505 0.30105 0.25328 0.0
C1605 C 0.32363 0.28542 0.26073 0.0
C1606 C 0.3493 0.29778 0.23902 0.0
C1607 C 0.35232 0.27886 0.23184 0.0
C1608 C 0.34106 0.2632 0.23933 0.0
H1609 H 0.42377 0.24939 0.13017 0.0
H1610 H 0.3968 0.2531 0.15342 0.0
C1611 C 0.32681 0.26645 0.2536 0.0
C1612 C 0.36769 0.27532 0.21703 0.0
H1613 H 0.38278 0.28726 0.17078 0.0
C1614 C 0.38311 0.26345 0.22206 0.0
C1615 C 0.3673 0.28366 0.19815 0.0
C1616 C 0.35057 0.29572 0.19158 0.0
C1617 C 0.39846 0.26009 0.2089 0.0
C1618 C 0.39849 0.2691 0.19035 0.0
C1619 C 0.3828 0.28054 0.1851 0.0
C1620 C 0.41479 0.26697 0.17628 0.0
C1621 C 0.41442 0.24682 0.21492 0.0
C1622 C 0.43375 0.27382 0.18134 0.0
C1623 C 0.44917 0.27172 0.16813 0.0
C1624 C 0.44589 0.26283 0.14953 0.0
C1625 C 0.4268 0.25625 0.14439 0.0
C1626 C 0.41137 0.25837 0.15763 0.0
H1627 H 0.40963 0.23712 0.22704 0.0
H1628 H 0.41912 0.23767 0.20227 0.0
H1629 H 0.42729 0.25578 0.2202 0.0
H1630 H 0.43661 0.28085 0.19551 0.0
H1631 H 0.46367 0.27704 0.17253 0.0
H1632 H 0.53846 0.45666 0.01353 0.0
H1633 H 0.53299 0.42871 0.03494 0.0
H1634 H 0.52025 0.39183 0.98412 0.0
H1635 H 0.52613 0.41958 0.96258 0.0
H1636 H 0.49835 0.40505 0.03805 0.0
H1637 H 0.56188 0.36234 0.01458 0.0
H1638 H 0.56007 0.38791 0.00949 0.0
H1639 H 0.54667 0.36995 0.99476 0.0
C1640 C 0.53474 0.44254 0.0069 0.0
C1641 C 0.5328 0.44029 0.98637 0.0
C1642 C 0.53152 0.42664 0.01915 0.0
C1643 C 0.52646 0.4082 0.01107 0.0
C1644 C 0.52444 0.4059 0.9906 0.0
H1645 H 0.47355 0.30748 0.06736 0.0
H1646 H 0.48085 0.3362 0.04756 0.0
C1647 C 0.52761 0.42179 0.97834 0.0
C1648 C 0.52271 0.39147 0.0241 0.0
H1649 H 0.5383 0.34627 0.03486 0.0
C1650 C 0.50711 0.39222 0.03744 0.0
C1651 C 0.53434 0.37489 0.02337 0.0
C1652 C 0.5518 0.3737 0.00992 0.0
C1653 C 0.50255 0.37659 0.04982 0.0
C1654 C 0.51377 0.35974 0.04863 0.0
C1655 C 0.52963 0.35917 0.03559 0.0
C1656 C 0.50926 0.34252 0.06077 0.0
C1657 C 0.48589 0.3783 0.0642 0.0
C1658 C 0.52297 0.3364 0.0745 0.0
C1659 C 0.51888 0.31998 0.08581 0.0
C1660 C 0.50105 0.30929 0.08346 0.0
C1661 C 0.48739 0.31542 0.06959 0.0
C1662 C 0.49148 0.33188 0.05833 0.0
H1663 H 0.48195 0.39369 0.06667 0.0
H1664 H 0.47281 0.37012 0.05826 0.0
H1665 H 0.48968 0.37199 0.07859 0.0
H1666 H 0.53682 0.34439 0.07651 0.0
H1667 H 0.52974 0.31561 0.09631 0.0
H1668 H 0.66221 0.19274 0.27007 0.0
H1669 H 0.63502 0.19755 0.24738 0.0
H1670 H 0.65094 0.25879 0.24503 0.0
H1671 H 0.67815 0.25411 0.26767 0.0
H1672 H 0.61152 0.2515 0.25191 0.0
H1673 H 0.6368 0.20749 0.18819 0.0
H1674 H 0.6359 0.19467 0.21098 0.0
H1675 H 0.65279 0.21513 0.2083 0.0
C1676 C 0.66008 0.20718 0.26449 0.0
C1677 C 0.67232 0.22305 0.27063 0.0
C1678 C 0.64456 0.20989 0.25152 0.0
C1679 C 0.64114 0.22848 0.24434 0.0
C1680 C 0.65337 0.24432 0.25038 0.0
H1681 H 0.56294 0.25826 0.14962 0.0
H1682 H 0.59126 0.2531 0.17071 0.0
C1683 C 0.66885 0.24164 0.26337 0.0
C1684 C 0.6243 0.23161 0.23119 0.0
H1685 H 0.60425 0.21842 0.18663 0.0
C1686 C 0.60995 0.24432 0.23761 0.0
C1687 C 0.62243 0.22237 0.21247 0.0
C1688 C 0.63788 0.20929 0.20444 0.0
C1689 C 0.59359 0.24786 0.2259 0.0
C1690 C 0.59141 0.23817 0.20744 0.0
C1691 C 0.6059 0.22568 0.20088 0.0
C1692 C 0.57424 0.24097 0.19465 0.0
C1693 C 0.57895 0.26218 0.23327 0.0
C1694 C 0.55535 0.23559 0.20104 0.0
C1695 C 0.53914 0.23856 0.18907 0.0
C1696 C 0.54156 0.24685 0.17042 0.0
C1697 C 0.56056 0.25191 0.16393 0.0
C1698 C 0.57676 0.24895 0.17593 0.0
H1699 H 0.58521 0.27193 0.2451 0.0
H1700 H 0.57377 0.27127 0.22111 0.0
H1701 H 0.56609 0.25406 0.2394 0.0
H1702 H 0.55314 0.22906 0.21529 0.0
H1703 H 0.52472 0.23436 0.19446 0.0
H1704 H 0.47889 0.09518 0.96911 0.0
H1705 H 0.48408 0.1236 0.99107 0.0
H1706 H 0.47601 0.08697 0.04148 0.0
H1707 H 0.47135 0.05844 0.01969 0.0
H1708 H 0.4578 0.13786 0.01935 0.0
H1709 H 0.52761 0.11731 0.05373 0.0
H1710 H 0.51821 0.10591 0.0313 0.0
H1711 H 0.50841 0.0988 0.05473 0.0
C1712 C 0.4785 0.09315 0.98488 0.0
C1713 C 0.47477 0.07456 0.99268 0.0
C1714 C 0.48135 0.1094 0.99738 0.0
C1715 C 0.48067 0.10732 0.01787 0.0
C1716 C 0.47691 0.08882 0.0257 0.0
H1717 H 0.48841 0.18426 0.11981 0.0
H1718 H 0.48444 0.1567 0.09666 0.0
C1719 C 0.47405 0.07258 0.01323 0.0
C1720 C 0.48325 0.12458 0.03109 0.0
H1721 H 0.51162 0.14402 0.06845 0.0
C1722 C 0.46964 0.13931 0.03 0.0
C1723 C 0.49869 0.12635 0.04495 0.0
C1724 C 0.51419 0.11135 0.04619 0.0
C1725 C 0.47078 0.15559 0.04278 0.0
C1726 C 0.48613 0.15728 0.05677 0.0
C1727 C 0.49983 0.14262 0.05774 0.0
C1728 C 0.4882 0.1741 0.07063 0.0
C1729 C 0.45528 0.17059 0.04157 0.0
C1730 C 0.49179 0.19296 0.06363 0.0
C1731 C 0.49404 0.20875 0.0768 0.0
C1732 C 0.49287 0.20591 0.09723 0.0
C1733 C 0.48936 0.18695 0.10418 0.0
C1734 C 0.48711 0.17119 0.09098 0.0
H1735 H 0.44207 0.16485 0.03351 0.0
H1736 H 0.45085 0.17556 0.0565 0.0
H1737 H 0.46126 0.18343 0.03359 0.0
H1738 H 0.49304 0.19545 0.04798 0.0
H1739 H 0.49682 0.22315 0.07097 0.0
H1740 H 0.23638 0.34591 0.67694 0.0
H1741 H 0.25726 0.37538 0.68196 0.0
H1742 H 0.25723 0.3661 0.74455 0.0
H1743 H 0.2365 0.33651 0.73965 0.0
H1744 H 0.2487 0.40931 0.70823 0.0
H1745 H 0.31653 0.37149 0.72747 0.0
H1746 H 0.29645 0.35947 0.71418 0.0
H1747 H 0.29456 0.36394 0.7402 0.0
C1748 C 0.24093 0.35009 0.69175 0.0
C1749 C 0.23489 0.33889 0.70791 0.0
C1750 C 0.25275 0.36694 0.69459 0.0
C1751 C 0.25888 0.37274 0.71359 0.0
C1752 C 0.25276 0.36171 0.72976 0.0
H1753 H 0.33597 0.4655 0.75997 0.0
H1754 H 0.3142 0.43675 0.75519 0.0
C1755 C 0.24083 0.34492 0.72696 0.0
C1756 C 0.27159 0.39041 0.71649 0.0
H1757 H 0.31776 0.40582 0.73005 0.0
C1758 C 0.26382 0.40861 0.71295 0.0
C1759 C 0.29124 0.38933 0.72273 0.0
C1760 C 0.30033 0.37003 0.72626 0.0
C1761 C 0.27514 0.4259 0.71579 0.0
C1762 C 0.29489 0.42484 0.72186 0.0
C1763 C 0.30263 0.40659 0.72539 0.0
C1764 C 0.30781 0.44248 0.72468 0.0
C1765 C 0.26571 0.44512 0.71275 0.0
C1766 C 0.31161 0.45512 0.70904 0.0
C1767 C 0.32393 0.47164 0.71175 0.0
C1768 C 0.3329 0.47567 0.73009 0.0
C1769 C 0.32928 0.46282 0.74566 0.0
C1770 C 0.31685 0.44639 0.74296 0.0
H1771 H 0.2495 0.44365 0.7137 0.0
H1772 H 0.271 0.45623 0.7238 0.0
H1773 H 0.26948 0.45049 0.69788 0.0
H1774 H 0.30518 0.45211 0.69466 0.0
H1775 H 0.32656 0.48114 0.69942 0.0
H1776 H 0.20329 0.66148 0.79082 0.0
H1777 H 0.22482 0.63397 0.7872 0.0
H1778 H 0.27523 0.67274 0.79629 0.0
H1779 H 0.25385 0.70032 0.79979 0.0
H1780 H 0.25451 0.62895 0.75952 0.0
H1781 H 0.28375 0.62933 0.8358 0.0
H1782 H 0.26223 0.64218 0.82912 0.0
H1783 H 0.2862 0.65244 0.82394 0.0
C1784 C 0.21896 0.66415 0.792 0.0
C1785 C 0.22687 0.68307 0.79567 0.0
C1786 C 0.23122 0.64842 0.79001 0.0
C1787 C 0.25157 0.6513 0.79177 0.0
C1788 C 0.25953 0.67015 0.79533 0.0
H1789 H 0.34213 0.57579 0.75085 0.0
H1790 H 0.31955 0.60216 0.7561 0.0
C1791 C 0.24729 0.68589 0.79733 0.0
C1792 C 0.26454 0.63469 0.7892 0.0
H1793 H 0.29956 0.60923 0.81229 0.0
C1794 C 0.2643 0.62456 0.77107 0.0
C1795 C 0.27711 0.62889 0.8044 0.0
C1796 C 0.27727 0.63864 0.82449 0.0
C1797 C 0.27663 0.60901 0.76757 0.0
C1798 C 0.28971 0.60368 0.78251 0.0
C1799 C 0.28964 0.61352 0.8008 0.0
C1800 C 0.30352 0.58783 0.77949 0.0
C1801 C 0.27539 0.59829 0.74799 0.0
C1802 C 0.30228 0.57128 0.79125 0.0
C1803 C 0.31521 0.55623 0.78838 0.0
C1804 C 0.3297 0.55753 0.77374 0.0
C1805 C 0.33107 0.57428 0.76218 0.0
C1806 C 0.31813 0.58932 0.76507 0.0
H1807 H 0.26143 0.60084 0.74023 0.0
H1808 H 0.2876 0.60353 0.73848 0.0
H1809 H 0.27671 0.58238 0.74989 0.0
H1810 H 0.29116 0.56992 0.80253 0.0
H1811 H 0.31379 0.54355 0.79757 0.0
H1812 H 0.92568 0.51192 0.4455 0.0
H1813 H 0.89741 0.49071 0.45374 0.0
H1814 H 0.91049 0.49886 0.51553 0.0
H1815 H 0.9389 0.51985 0.50745 0.0
H1816 H 0.89632 0.45576 0.47615 0.0
H1817 H 0.85267 0.51385 0.51054 0.0
H1818 H 0.87348 0.51911 0.49494 0.0
H1819 H 0.87709 0.51226 0.52004 0.0
C1820 C 0.92264 0.50907 0.46084 0.0
C1821 C 0.93446 0.51768 0.47583 0.0
C1822 C 0.90644 0.49703 0.46551 0.0
C1823 C 0.90172 0.4935 0.48523 0.0
C1824 C 0.91367 0.50176 0.50022 0.0
H1825 H 0.80924 0.4279 0.5444 0.0
H1826 H 0.83817 0.44803 0.53593 0.0
C1827 C 0.92987 0.51376 0.49558 0.0
C1828 C 0.88438 0.48102 0.49015 0.0
H1829 H 0.84019 0.4814 0.5134 0.0
C1830 C 0.884 0.46135 0.48422 0.0
C1831 C 0.86839 0.4884 0.50071 0.0
C1832 C 0.86775 0.5096 0.50681 0.0
C1833 C 0.86815 0.44872 0.48889 0.0
C1834 C 0.85213 0.4561 0.49945 0.0
C1835 C 0.85252 0.47579 0.50535 0.0
C1836 C 0.83476 0.44367 0.50446 0.0
C1837 C 0.86889 0.4275 0.48289 0.0
C1838 C 0.82315 0.43475 0.48956 0.0
C1839 C 0.80665 0.4232 0.49435 0.0
C1840 C 0.80137 0.4205 0.51414 0.0
C1841 C 0.81293 0.42964 0.52903 0.0
C1842 C 0.82945 0.44115 0.52422 0.0
H1843 H 0.88408 0.42321 0.47971 0.0
H1844 H 0.86273 0.418 0.49457 0.0
H1845 H 0.86005 0.42486 0.46933 0.0
H1846 H 0.82674 0.43686 0.47421 0.0
H1847 H 0.79799 0.41648 0.48252 0.0
H1848 H 0.76834 0.83356 0.82012 0.0
H1849 H 0.74678 0.86091 0.81645 0.0
H1850 H 0.74607 0.85151 0.75353 0.0
H1851 H 0.76731 0.82392 0.75705 0.0
H1852 H 0.75372 0.89121 0.76659 0.0
H1853 H 0.68768 0.85701 0.80125 0.0
H1854 H 0.7099 0.8563 0.81538 0.0
H1855 H 0.70782 0.84302 0.79241 0.0
C1856 C 0.76341 0.83716 0.80552 0.0
C1857 C 0.7695 0.82651 0.78888 0.0
C1858 C 0.75113 0.8528 0.80345 0.0
C1859 C 0.7447 0.85805 0.78474 0.0
C1860 C 0.75088 0.84763 0.76809 0.0
H1861 H 0.65302 0.93548 0.75316 0.0
H1862 H 0.67415 0.90784 0.75713 0.0
C1863 C 0.7631 0.83195 0.77013 0.0
C1864 C 0.73179 0.87465 0.78247 0.0
H1865 H 0.6862 0.89035 0.79328 0.0
C1866 C 0.73895 0.89105 0.77239 0.0
C1867 C 0.71249 0.87424 0.78991 0.0
C1868 C 0.70388 0.85666 0.80022 0.0
C1869 C 0.72737 0.90723 0.76978 0.0
C1870 C 0.70822 0.907 0.7776 0.0
C1871 C 0.70096 0.89049 0.78744 0.0
C1872 C 0.6954 0.9237 0.77549 0.0
C1873 C 0.73558 0.92434 0.75845 0.0
C1874 C 0.70028 0.94165 0.78473 0.0
C1875 C 0.68824 0.95745 0.78254 0.0
C1876 C 0.6711 0.95556 0.77107 0.0
C1877 C 0.66615 0.93745 0.76203 0.0
C1878 C 0.67817 0.92164 0.7643 0.0
H1879 H 0.74872 0.92053 0.7498 0.0
H1880 H 0.72442 0.92984 0.74827 0.0
H1881 H 0.73989 0.93633 0.76894 0.0
H1882 H 0.71339 0.94341 0.79367 0.0
H1883 H 0.69244 0.97117 0.78976 0.0
H1884 H 0.55466 0.52641 0.9658 0.0
H1885 H 0.58257 0.54921 0.97204 0.0
H1886 H 0.62059 0.50094 0.97747 0.0
H1887 H 0.59281 0.47806 0.97118 0.0
H1888 H 0.60959 0.54765 0.00801 0.0
H1889 H 0.64585 0.53979 0.93514 0.0
H1890 H 0.62001 0.53446 0.93859 0.0
H1891 H 0.6376 0.51779 0.94707 0.0
C1892 C 0.56901 0.52069 0.96817 0.0
C1893 C 0.5716 0.50048 0.96801 0.0
C1894 C 0.58487 0.53369 0.97181 0.0
C1895 C 0.60357 0.52669 0.97507 0.0
C1896 C 0.60624 0.50656 0.97484 0.0
H1897 H 0.71908 0.57916 0.99401 0.0
H1898 H 0.69064 0.55729 0.98768 0.0
C1899 C 0.59038 0.49355 0.97138 0.0
C1900 C 0.62028 0.5404 0.97914 0.0
H1901 H 0.66278 0.55877 0.95948 0.0
C1902 C 0.62121 0.5502 0.99742 0.0
C1903 C 0.63537 0.54349 0.96528 0.0
C1904 C 0.63474 0.53346 0.94534 0.0
C1905 C 0.63715 0.56281 0.00239 0.0
C1906 C 0.65224 0.56606 0.98846 0.0
C1907 C 0.6512 0.55628 0.97012 0.0
C1908 C 0.66936 0.57938 0.99264 0.0
C1909 C 0.63794 0.57206 0.02272 0.0
C1910 C 0.66683 0.5991 0.99735 0.0
C1911 C 0.68305 0.61159 0.00117 0.0
C1912 C 0.7021 0.60465 3e-05 0.0
C1913 C 0.70459 0.58495 0.99503 0.0
C1914 C 0.68836 0.57244 0.99139 0.0
H1915 H 0.62848 0.56388 0.03323 0.0
H1916 H 0.65313 0.57288 0.02857 0.0
H1917 H 0.63261 0.58709 0.02199 0.0
H1918 H 0.65232 0.60488 0.9979 0.0
H1919 H 0.68064 0.62673 0.00478 0.0
H1920 H 0.26103 0.66774 0.18327 0.0
H1921 H 0.2398 0.63844 0.18659 0.0
H1922 H 0.2354 0.64977 0.24903 0.0
H1923 H 0.25636 0.67922 0.24581 0.0
H1924 H 0.24705 0.60577 0.21188 0.0
H1925 H 0.17771 0.64196 0.2296 0.0
H1926 H 0.19823 0.65456 0.21814 0.0
H1927 H 0.19866 0.64996 0.24406 0.0
C1928 C 0.25535 0.6641 0.19766 0.0
C1929 C 0.26031 0.67578 0.21428 0.0
C1930 C 0.24333 0.64733 0.19955 0.0
C1931 C 0.23591 0.6421 0.21801 0.0
C1932 C 0.2408 0.65373 0.23462 0.0
H1933 H 0.16142 0.54768 0.26128 0.0
H1934 H 0.18217 0.5771 0.25728 0.0
C1935 C 0.2529 0.67043 0.23277 0.0
C1936 C 0.22349 0.62417 0.22002 0.0
H1937 H 0.17754 0.60767 0.23241 0.0
C1938 C 0.23182 0.60614 0.21627 0.0
C1939 C 0.20369 0.62478 0.22585 0.0
C1940 C 0.19392 0.64384 0.22951 0.0
C1941 C 0.22095 0.5886 0.21856 0.0
C1942 C 0.20109 0.58919 0.22431 0.0
C1943 C 0.19276 0.60726 0.22801 0.0
C1944 C 0.1887 0.57123 0.22664 0.0
C1945 C 0.23097 0.56961 0.2153 0.0
C1946 C 0.18531 0.55828 0.21067 0.0
C1947 C 0.17355 0.5414 0.21293 0.0
C1948 C 0.16478 0.53727 0.23115 0.0
C1949 C 0.16799 0.55041 0.24706 0.0
C1950 C 0.17983 0.56724 0.2448 0.0
H1951 H 0.24715 0.57157 0.21638 0.0
H1952 H 0.22598 0.55863 0.22616 0.0
H1953 H 0.22737 0.5638 0.20033 0.0
H1954 H 0.19163 0.56131 0.1964 0.0
H1955 H 0.17124 0.53167 0.20034 0.0
H1956 H 0.93842 0.49346 0.99479 0.0
H1957 H 0.91122 0.51491 0.98939 0.0
H1958 H 0.89882 0.51543 0.05158 0.0
H1959 H 0.9257 0.49366 0.05712 0.0
H1960 H 0.87034 0.50779 0.0004 0.0
H1961 H 0.9045 0.57406 0.03643 0.0
H1962 H 0.91858 0.55372 0.02826 0.0
H1963 H 0.90455 0.55216 0.05052 0.0
C1964 C 0.92981 0.498 0.00731 0.0
C1965 C 0.93429 0.49189 0.02641 0.0
C1966 C 0.91436 0.51033 0.0042 0.0
C1967 C 0.90322 0.51691 0.02012 0.0
C1968 C 0.9075 0.51076 0.03916 0.0
H1969 H 0.80616 0.59418 0.03109 0.0
H1970 H 0.83297 0.5724 0.03693 0.0
C1971 C 0.92289 0.49837 0.04229 0.0
C1972 C 0.88688 0.52995 0.01674 0.0
H1973 H 0.8716 0.57591 0.02607 0.0
C1974 C 0.8706 0.52271 0.00594 0.0
C1975 C 0.88729 0.54933 0.0241 0.0
C1976 C 0.90471 0.55791 0.03536 0.0
C1977 C 0.85452 0.5343 0.00252 0.0
C1978 C 0.855 0.55378 0.0097 0.0
C1979 C 0.87129 0.56098 0.02056 0.0
C1980 C 0.83878 0.56697 0.00605 0.0
C1981 C 0.83699 0.52543 0.99164 0.0
C1982 C 0.83335 0.57138 0.98676 0.0
C1983 C 0.81798 0.58373 0.98336 0.0
C1984 C 0.80789 0.59209 0.99922 0.0
C1985 C 0.81361 0.58795 0.01855 0.0
C1986 C 0.82893 0.57551 0.02192 0.0
H1987 H 0.83661 0.50927 0.99211 0.0
H1988 H 0.82313 0.5307 0.9979 0.0
H1989 H 0.83777 0.52965 0.97596 0.0
H1990 H 0.84108 0.56533 0.9743 0.0
H1991 H 0.81406 0.58675 0.9683 0.0
H1992 H 0.05329 0.98985 0.03987 0.0
H1993 H 0.08062 0.96824 0.03562 0.0
H1994 H 0.11773 0.01681 0.01776 0.0
H1995 H 0.09061 0.0387 0.02242 0.0
H1996 H 0.11832 0.98142 0.99274 0.0
H1997 H 0.13018 0.968 0.07227 0.0
H1998 H 0.10535 0.96474 0.06368 0.0
H1999 H 0.11709 0.98855 0.06362 0.0
C2000 C 0.06732 0.99601 0.03526 0.0
C2001 C 0.06979 0.01605 0.03162 0.0
C2002 C 0.08288 0.98363 0.03279 0.0
C2003 C 0.10119 0.99101 0.0266 0.0
C2004 C 0.10368 0.01089 0.02259 0.0
H2005 H 0.21178 0.93267 0.02724 0.0
H2006 H 0.18579 0.95597 0.03112 0.0
C2007 C 0.08814 0.02333 0.02516 0.0
C2008 C 0.11769 0.9779 0.02415 0.0
H2009 H 0.14781 0.94879 0.04958 0.0
C2010 C 0.12484 0.97432 0.00514 0.0
C2011 C 0.12622 0.96885 0.04042 0.0
C2012 C 0.11948 0.97279 0.0612 0.0
C2013 C 0.14009 0.96153 0.00192 0.0
C2014 C 0.14825 0.95207 0.01814 0.0
C2015 C 0.14139 0.95599 0.03719 0.0
C2016 C 0.16392 0.93799 0.01562 0.0
C2017 C 0.14748 0.95831 0.98125 0.0
C2018 C 0.1601 0.92011 0.00581 0.0
C2019 C 0.17486 0.90672 0.00364 0.0
C2020 C 0.19371 0.91102 0.01125 0.0
C2021 C 0.19744 0.92894 0.02116 0.0
C2022 C 0.18262 0.94226 0.02341 0.0
H2023 H 0.1426 0.96968 0.97112 0.0
H2024 H 0.16371 0.9582 0.98107 0.0
H2025 H 0.14178 0.94394 0.97557 0.0
H2026 H 0.14565 0.91647 -7e-05 0.0
H2027 H 0.1715 0.89305 0.99596 0.0
loop_
_geom_bond_atom_site_label_1
_geom_bond_atom_site_label_2
_geom_bond_distance
_geom_bond_site_symmetry_2
_ccdc_geom_bond_type
H0 C3 0.931 . S
H1 C6 0.928 . S
H2 C8 0.930 . S
C3 H0 0.931 . S
C3 C4 1.413 . S
C3 C5 1.360 . S
C4 C3 1.413 . S
C4 C8 1.429 . S
C5 C3 1.360 . S
C5 C6 1.372 . S
C6 H1 0.928 . S
C6 C5 1.372 . S
C6 C7 1.404 . S
C7 C6 1.404 . S
C7 C8 1.391 . S
C8 H2 0.930 . S
C8 C4 1.429 . S
C8 C7 1.391 . S
H9 C12 0.931 . S
H10 C15 0.928 . S
H11 C17 0.930 . S
C12 H9 0.931 . S
C12 C13 1.413 . S
C12 C14 1.360 . S
C13 C12 1.413 . S
C13 C17 1.429 . S
C14 C12 1.360 . S
C14 C15 1.372 . S
C15 H10 0.928 . S
C15 C14 1.372 . S
C15 C16 1.404 . S
C16 C15 1.404 . S
C16 C17 1.391 . S
C17 H11 0.930 . S
C17 C13 1.429 . S
C17 C16 1.391 . S
H18 C21 0.931 . S
H19 C24 0.928 . S
H20 C26 0.930 . S
C21 H18 0.931 . S
C21 C22 1.413 . S
C21 C23 1.360 . S
C22 C21 1.413 . S
C22 C26 1.429 . S
C23 C21 1.360 . S
C23 C24 1.372 . S
C24 H19 0.928 . S
C24 C23 1.372 . S
C24 C25 1.404 . S
C25 C24 1.404 . S
C25 C26 1.391 . S
C26 H20 0.930 . S
C26 C22 1.429 . S
C26 C25 1.391 . S
H27 C30 0.931 . S
H28 C33 0.928 . S
H29 C35 0.930 . S
C30 H27 0.931 . S
C30 C31 1.413 . S
C30 C32 1.360 . S
C31 C30 1.413 . S
C31 C35 1.429 . S
C32 C30 1.360 . S
C32 C33 1.372 . S
C33 H28 0.928 . S
C33 C32 1.372 . S
C33 C34 1.404 . S
C34 C33 1.404 . S
C34 C35 1.391 . S
C35 H29 0.930 . S
C35 C31 1.429 . S
C35 C34 1.391 . S
H36 C39 0.931 . S
H37 C42 0.928 . S
H38 C44 0.930 . S
C39 H36 0.931 . S
C39 C40 1.413 . S
C39 C41 1.360 . S
C40 C39 1.413 . S
C40 C44 1.429 . S
C41 C39 1.360 . S
C41 C42 1.372 . S
C42 H37 0.928 . S
C42 C41 1.372 . S
C42 C43 1.404 . S
C43 C42 1.404 . S
C43 C44 1.391 . S
C44 H38 0.930 . S
C44 C40 1.429 . S
C44 C43 1.391 . S
H45 C48 0.931 . S
H46 C51 0.928 . S
H47 C53 0.930 . S
C48 H45 0.931 . S
C48 C49 1.413 . S
C48 C50 1.360 . S
C49 C48 1.413 . S
C49 C53 1.429 . S
C50 C48 1.360 . S
C50 C51 1.372 . S
C51 H46 0.928 . S
C51 C50 1.372 . S
C51 C52 1.404 . S
C52 C51 1.404 . S
C52 C53 1.391 . S
C53 H47 0.930 . S
C53 C49 1.429 . S
C53 C52 1.391 . S
H54 C57 0.931 . S
H55 C60 0.928 . S
H56 C62 0.930 . S
C57 H54 0.931 . S
C57 C58 1.413 . S
C57 C59 1.360 . S
C58 C57 1.413 . S
C58 C62 1.429 . S
C59 C57 1.360 . S
C59 C60 1.372 . S
C60 H55 0.928 . S
C60 C59 1.372 . S
C60 C61 1.404 . S
C61 C60 1.404 . S
C61 C62 1.391 . S
C62 H56 0.930 . S
C62 C58 1.429 . S
C62 C61 1.391 . S
H63 C66 0.931 . S
H64 C69 0.928 . S
H65 C71 0.930 . S
C66 H63 0.931 . S
C66 C67 1.413 . S
C66 C68 1.360 . S
C67 C66 1.413 . S
C67 C71 1.429 . S
C68 C66 1.360 . S
C68 C69 1.372 . S
C69 H64 0.928 . S
C69 C68 1.372 . S
C69 C70 1.404 . S
C70 C69 1.404 . S
C70 C71 1.391 . S
C71 H65 0.930 . S
C71 C67 1.429 . S
C71 C70 1.391 . S
H72 C75 0.931 . S
H73 C78 0.928 . S
H74 C80 0.930 . S
C75 H72 0.931 . S
C75 C76 1.413 . S
C75 C77 1.360 . S
C76 C75 1.413 . S
C76 C80 1.429 . S
C77 C75 1.360 . S
C77 C78 1.372 . S
C78 H73 0.928 . S
C78 C77 1.372 . S
C78 C79 1.404 . S
C79 C78 1.404 . S
C79 C80 1.391 . S
C80 H74 0.930 . S
C80 C76 1.429 . S
C80 C79 1.391 . S
H81 C84 0.931 . S
H82 C87 0.928 . S
H83 C89 0.930 . S
C84 H81 0.931 . S
C84 C85 1.413 . S
C84 C86 1.360 . S
C85 C84 1.413 . S
C85 C89 1.429 . S
C86 C84 1.360 . S
C86 C87 1.372 . S
C87 H82 0.928 . S
C87 C86 1.372 . S
C87 C88 1.404 . S
C88 C87 1.404 . S
C88 C89 1.391 . S
C89 H83 0.930 . S
C89 C85 1.429 . S
C89 C88 1.391 . S
H90 C93 0.931 . S
H91 C96 0.928 . S
H92 C98 0.930 . S
C93 H90 0.931 . S
C93 C94 1.413 . S
C93 C95 1.360 . S
C94 C93 1.413 . S
C94 C98 1.429 . S
C95 C93 1.360 . S
C95 C96 1.372 . S
C96 H91 0.928 . S
C96 C95 1.372 . S
C96 C97 1.404 . S
C97 C96 1.404 . S
C97 C98 1.391 . S
C98 H92 0.930 . S
C98 C94 1.429 . S
C98 C97 1.391 . S
H99 C102 0.931 . S
H100 C105 0.928 . S
H101 C107 0.930 . S
C102 H99 0.931 . S
C102 C103 1.413 . S
C102 C104 1.360 . S
C103 C102 1.413 . S
C103 C107 1.429 . S
C104 C102 1.360 . S
C104 C105 1.372 . S
C105 H100 0.928 . S
C105 C104 1.372 . S
C105 C106 1.404 . S
C106 C105 1.404 . S
C106 C107 1.391 . S
C107 H101 0.930 . S
C107 C103 1.429 . S
C107 C106 1.391 . S
H108 C111 0.931 . S
H109 C114 0.928 . S
H110 C116 0.930 . S
C111 H108 0.931 . S
C111 C112 1.413 . S
C111 C113 1.360 . S
C112 C111 1.413 . S
C112 C116 1.429 . S
C113 C111 1.360 . S
C113 C114 1.372 . S
C114 H109 0.928 . S
C114 C113 1.372 . S
C114 C115 1.404 . S
C115 C114 1.404 . S
C115 C116 1.391 . S
C116 H110 0.930 . S
C116 C112 1.429 . S
C116 C115 1.391 . S
H117 C120 0.931 . S
H118 C123 0.928 . S
H119 C125 0.930 . S
C120 H117 0.931 . S
C120 C121 1.413 . S
C120 C122 1.360 . S
C121 C120 1.413 . S
C121 C125 1.429 . S
C122 C120 1.360 . S
C122 C123 1.372 . S
C123 H118 0.928 . S
C123 C122 1.372 . S
C123 C124 1.404 . S
C124 C123 1.404 . S
C124 C125 1.391 . S
C125 H119 0.930 . S
C125 C121 1.429 . S
C125 C124 1.391 . S
H126 C129 0.931 . S
H127 C132 0.928 . S
H128 C134 0.930 . S
C129 H126 0.931 . S
C129 C130 1.413 . S
C129 C131 1.360 . S
C130 C129 1.413 . S
C130 C134 1.429 . S
C131 C129 1.360 . S
C131 C132 1.372 . S
C132 H127 0.928 . S
C132 C131 1.372 . S
C132 C133 1.404 . S
C133 C132 1.404 . S
C133 C134 1.391 . S
C134 H128 0.930 . S
C134 C130 1.429 . S
C134 C133 1.391 . S
H135 C138 0.931 . S
H136 C141 0.928 . S
H137 C143 0.930 . S
C138 H135 0.931 . S
C138 C139 1.413 . S
C138 C140 1.360 . S
C139 C138 1.413 . S
C139 C143 1.429 . S
C140 C138 1.360 . S
C140 C141 1.372 . S
C141 H136 0.928 . S
C141 C140 1.372 . S
C141 C142 1.404 . S
C142 C141 1.404 . S
C142 C143 1.391 . S
C143 H137 0.930 . S
C143 C139 1.429 . S
C143 C142 1.391 . S
C144 O145 1.160 1_554 S
C144 O151 1.185 . S
O145 C144 1.160 1_556 S
O146 Zn147 1.899 1_556 S
O146 C154 1.284 . S
Zn147 O146 1.899 1_554 S
Zn147 O148 2.032 . S
Zn147 O151 2.086 . S
Zn147 O156 1.977 . S
O148 Zn147 2.032 . S
O148 C152 1.278 . S
C149 O150 1.203 . S
C149 O156 1.267 . S
O150 C149 1.203 . S
O151 C144 1.185 . S
O151 Zn147 2.086 . S
C152 O148 1.278 . S
C152 O153 1.211 . S
O153 C152 1.211 . S
C154 O146 1.284 . S
C154 O155 1.273 . S
O155 C154 1.273 . S
O156 Zn147 1.977 . S
O156 C149 1.267 . S
C157 O158 1.160 . S
C157 O164 1.185 . S
O158 C157 1.160 . S
O159 Zn160 1.899 . S
O159 C167 1.284 . S
Zn160 O159 1.899 . S
Zn160 O161 2.032 . S
Zn160 O164 2.086 . S
Zn160 O169 1.977 . S
O161 Zn160 2.032 . S
O161 C165 1.278 . S
C162 O163 1.203 . S
C162 O169 1.267 . S
O163 C162 1.203 . S
O164 C157 1.185 . S
O164 Zn160 2.086 . S
C165 O161 1.278 . S
C165 O166 1.211 . S
O166 C165 1.211 . S
C167 O159 1.284 . S
C167 O168 1.273 . S
O168 C167 1.273 . S
O169 Zn160 1.977 . S
O169 C162 1.267 . S
C170 O171 1.160 1_554 S
C170 O177 1.185 . S
O171 C170 1.160 1_556 S
O172 Zn173 1.899 1_556 S
O172 C180 1.284 . S
Zn173 O172 1.899 1_554 S
Zn173 O174 2.032 1_554 S
Zn173 O177 2.086 . S
Zn173 O182 1.977 . S
O174 Zn173 2.032 1_556 S
O174 C178 1.278 . S
C175 O176 1.203 . S
C175 O182 1.267 . S
O176 C175 1.203 . S
O177 C170 1.185 . S
O177 Zn173 2.086 . S
C178 O174 1.278 . S
C178 O179 1.211 1_556 S
O179 C178 1.211 1_554 S
C180 O172 1.284 . S
C180 O181 1.273 . S
O181 C180 1.273 . S
O182 Zn173 1.977 . S
O182 C175 1.267 . S
C183 O184 1.160 . S
C183 O190 1.185 . S
O184 C183 1.160 . S
O185 Zn186 1.899 . S
O185 C193 1.284 . S
Zn186 O185 1.899 . S
Zn186 O187 2.032 1_545 S
Zn186 O190 2.086 . S
Zn186 O195 1.977 . S
O187 Zn186 2.032 1_565 S
O187 C191 1.277 . S
C188 O189 1.203 . S
C188 O195 1.267 . S
O189 C188 1.203 . S
O190 C183 1.185 . S
O190 Zn186 2.086 . S
C191 O187 1.277 . S
C191 O192 1.211 . S
O192 C191 1.211 . S
C193 O185 1.284 . S
C193 O194 1.273 1_545 S
O194 C193 1.273 1_565 S
O195 Zn186 1.977 . S
O195 C188 1.267 . S
C196 O197 1.160 . S
C196 O203 1.185 . S
O197 C196 1.160 . S
O198 Zn199 1.899 . S
O198 C206 1.284 . S
Zn199 O198 1.899 . S
Zn199 O200 2.032 . S
Zn199 O203 2.086 . S
Zn199 O208 1.977 . S
O200 Zn199 2.032 . S
O200 C204 1.278 . S
C201 O202 1.203 . S
C201 O208 1.267 . S
O202 C201 1.203 . S
O203 C196 1.185 . S
O203 Zn199 2.086 . S
C204 O200 1.278 . S
C204 O205 1.211 . S
O205 C204 1.211 . S
C206 O198 1.284 . S
C206 O207 1.273 . S
O207 C206 1.273 . S
O208 Zn199 1.977 . S
O208 C201 1.267 . S
C209 O210 1.160 . S
C209 O216 1.185 . S
O210 C209 1.160 . S
O211 Zn212 1.899 . S
O211 C219 1.284 . S
Zn212 O211 1.899 . S
Zn212 O213 2.032 . S
Zn212 O216 2.086 . S
Zn212 O221 1.977 . S
O213 Zn212 2.032 . S
O213 C217 1.278 . S
C214 O215 1.203 . S
C214 O221 1.267 . S
O215 C214 1.203 . S
O216 C209 1.185 . S
O216 Zn212 2.086 . S
C217 O213 1.278 . S
C217 O218 1.211 . S
O218 C217 1.211 . S
C219 O211 1.284 . S
C219 O220 1.273 . S
O220 C219 1.273 . S
O221 Zn212 1.977 . S
O221 C214 1.267 . S
C222 O223 1.160 . S
C222 O229 1.185 . S
O223 C222 1.160 . S
O224 Zn225 1.899 . S
O224 C232 1.284 . S
Zn225 O224 1.899 . S
Zn225 O226 2.032 . S
Zn225 O229 2.086 . S
Zn225 O234 1.977 . S
O226 Zn225 2.032 . S
O226 C230 1.278 . S
C227 O228 1.203 . S
C227 O234 1.267 . S
O228 C227 1.203 . S
O229 C222 1.185 . S
O229 Zn225 2.086 . S
C230 O226 1.278 . S
C230 O231 1.211 . S
O231 C230 1.211 . S
C232 O224 1.284 . S
C232 O233 1.273 . S
O233 C232 1.273 . S
O234 Zn225 1.977 . S
O234 C227 1.267 . S
C235 O236 1.160 . S
C235 O242 1.185 . S
O236 C235 1.160 . S
O237 Zn238 1.899 . S
O237 C245 1.284 1_565 S
Zn238 O237 1.899 . S
Zn238 O239 2.032 1_565 S
Zn238 O242 2.086 . S
Zn238 O247 1.977 . S
O239 Zn238 2.032 1_545 S
O239 C243 1.278 . S
C240 O241 1.203 1_565 S
C240 O247 1.267 . S
O241 C240 1.203 1_545 S
O242 C235 1.185 . S
O242 Zn238 2.086 . S
C243 O239 1.278 . S
C243 O244 1.211 . S
O244 C243 1.211 . S
C245 O237 1.284 1_545 S
C245 O246 1.273 . S
O246 C245 1.273 . S
O247 Zn238 1.977 . S
O247 C240 1.267 . S
C248 O249 1.160 1_455 S
C248 O255 1.185 . S
O249 C248 1.160 1_655 S
O250 Zn251 1.899 1_655 S
O250 C258 1.284 . S
Zn251 O250 1.899 1_455 S
Zn251 O252 2.032 1_455 S
Zn251 O255 2.086 . S
Zn251 O260 1.977 . S
O252 Zn251 2.032 1_655 S
O252 C256 1.276 1_655 S
C253 O254 1.203 . S
C253 O260 1.267 . S
O254 C253 1.203 . S
O255 C248 1.185 . S
O255 Zn251 2.086 . S
C256 O252 1.276 1_455 S
C256 O257 1.221 . S
O257 C256 1.221 . S
C258 O250 1.284 . S
C258 O259 1.273 . S
O259 C258 1.273 . S
O260 Zn251 1.977 . S
O260 C253 1.267 . S
C261 O262 1.160 . S
C261 O268 1.185 . S
O262 C261 1.160 . S
O263 Zn264 1.899 . S
O263 C271 1.284 . S
Zn264 O263 1.899 . S
Zn264 O265 2.032 . S
Zn264 O268 2.086 . S
Zn264 O273 1.977 . S
O265 Zn264 2.032 . S
O265 C269 1.278 . S
C266 O267 1.203 . S
C266 O273 1.267 . S
O267 C266 1.203 . S
O268 C261 1.185 . S
O268 Zn264 2.086 . S
C269 O265 1.278 . S
C269 O270 1.211 . S
O270 C269 1.211 . S
C271 O263 1.284 . S
C271 O272 1.273 . S
O272 C271 1.273 . S
O273 Zn264 1.977 . S
O273 C266 1.267 . S
C274 O275 1.160 1_455 S
C274 O281 1.185 . S
O275 C274 1.160 1_655 S
O276 Zn277 1.899 1_655 S
O276 C284 1.284 . S
Zn277 O276 1.899 1_455 S
Zn277 O278 2.032 1_455 S
Zn277 O281 2.086 . S
Zn277 O286 1.977 . S
O278 Zn277 2.032 1_655 S
O278 C282 1.278 . S
C279 O280 1.203 . S
C279 O286 1.267 . S
O280 C279 1.203 . S
O281 C274 1.185 . S
O281 Zn277 2.086 . S
C282 O278 1.278 . S
C282 O283 1.210 1_655 S
O283 C282 1.210 1_455 S
C284 O276 1.284 . S
C284 O285 1.273 . S
O285 C284 1.273 . S
O286 Zn277 1.977 . S
O286 C279 1.267 . S
C287 O288 1.160 . S
C287 O294 1.185 . S
O288 C287 1.160 . S
O289 Zn290 1.899 . S
O289 C297 1.284 . S
Zn290 O289 1.899 . S
Zn290 O291 2.032 . S
Zn290 O294 2.086 . S
Zn290 O299 1.977 . S
O291 Zn290 2.032 . S
O291 C295 1.278 . S
C292 O293 1.203 . S
C292 O299 1.267 . S
O293 C292 1.203 . S
O294 C287 1.185 . S
O294 Zn290 2.086 . S
C295 O291 1.278 . S
C295 O296 1.211 . S
O296 C295 1.211 . S
C297 O289 1.284 . S
C297 O298 1.273 . S
O298 C297 1.273 . S
O299 Zn290 1.977 . S
O299 C292 1.267 . S
H300 C308 0.929 . S
H301 C310 0.930 . S
H302 C312 0.930 . S
H303 C315 0.929 . S
H304 C318 0.930 . S
H305 C320 0.960 . S
H306 C320 0.960 . S
H307 C320 0.960 . S
C308 H300 0.929 . S
C308 C309 1.377 . S
C308 C310 1.384 . S
C309 C308 1.377 . S
C309 C315 1.390 . S
C310 H301 0.930 . S
C310 C308 1.384 . S
C310 C311 1.372 . S
C311 C310 1.372 . S
C311 C312 1.400 . S
C311 C316 1.490 . S
C312 H302 0.930 . S
C312 C311 1.400 . S
C312 C315 1.386 . S
H313 C329 0.930 . S
H314 C330 0.931 . S
C315 H303 0.929 . S
C315 C309 1.390 . S
C315 C312 1.386 . S
C316 C311 1.490 . S
C316 C318 1.395 . S
C316 C319 1.403 . S
H317 C323 0.930 . S
C318 H304 0.930 . S
C318 C316 1.395 . S
C318 C321 1.403 . S
C319 C316 1.403 . S
C319 C320 1.524 . S
C319 C323 1.400 . S
C320 H305 0.960 . S
C320 H306 0.960 . S
C320 H307 0.960 . S
C320 C319 1.524 . S
C321 C318 1.403 . S
C321 C322 1.392 . S
C321 C325 1.495 . S
C322 C321 1.392 . S
C322 C323 1.385 . S
C322 C324 1.478 . S
C323 H317 0.930 . S
C323 C319 1.400 . S
C323 C322 1.385 . S
C324 C322 1.478 . S
C324 C326 1.381 . S
C324 C330 1.383 . S
C325 C321 1.495 . S
C325 H331 0.959 . S
C325 H332 0.961 . S
C325 H333 0.960 . S
C326 C324 1.381 . S
C326 C327 1.394 . S
C326 H334 0.930 . S
C327 C326 1.394 . S
C327 C328 1.383 . S
C327 H335 0.929 . S
C328 C327 1.383 . S
C328 C329 1.377 . S
C329 H313 0.930 . S
C329 C328 1.377 . S
C329 C330 1.379 . S
C330 H314 0.931 . S
C330 C324 1.383 . S
C330 C329 1.379 . S
H331 C325 0.959 . S
H332 C325 0.961 . S
H333 C325 0.960 . S
H334 C326 0.930 . S
H335 C327 0.929 . S
H336 C344 0.929 . S
H337 C346 0.930 . S
H338 C348 0.930 . S
H339 C351 0.929 . S
H340 C354 0.930 . S
H341 C356 0.960 . S
H342 C356 0.960 . S
H343 C356 0.960 1_655 S
C344 H336 0.929 . S
C344 C345 1.377 1_455 S
C344 C346 1.384 . S
C345 C344 1.377 1_655 S
C345 C351 1.390 . S
C346 H337 0.930 . S
C346 C344 1.384 . S
C346 C347 1.372 . S
C347 C346 1.372 . S
C347 C348 1.400 1_455 S
C347 C352 1.490 . S
C348 H338 0.930 . S
C348 C347 1.400 1_655 S
C348 C351 1.386 . S
H349 C365 0.930 . S
H350 C366 0.931 . S
C351 H339 0.929 . S
C351 C345 1.390 . S
C351 C348 1.386 . S
C352 C347 1.490 . S
C352 C354 1.395 . S
C352 C355 1.403 . S
H353 C359 0.930 . S
C354 H340 0.930 . S
C354 C352 1.395 . S
C354 C357 1.403 . S
C355 C352 1.403 . S
C355 C356 1.524 . S
C355 C359 1.400 . S
C356 H341 0.960 . S
C356 H342 0.960 . S
C356 H343 0.960 1_455 S
C356 C355 1.524 . S
C357 C354 1.403 . S
C357 C358 1.392 . S
C357 C361 1.495 . S
C358 C357 1.392 . S
C358 C359 1.385 . S
C358 C360 1.478 . S
C359 H353 0.930 . S
C359 C355 1.400 . S
C359 C358 1.385 . S
C360 C358 1.478 . S
C360 C362 1.381 . S
C360 C366 1.383 . S
C361 C357 1.495 . S
C361 H367 0.959 . S
C361 H368 0.961 . S
C361 H369 0.960 . S
C362 C360 1.381 . S
C362 C363 1.394 . S
C362 H370 0.930 . S
C363 C362 1.394 . S
C363 C364 1.383 . S
C363 H371 0.929 . S
C364 C363 1.383 . S
C364 C365 1.377 . S
C365 H349 0.930 . S
C365 C364 1.377 . S
C365 C366 1.379 . S
C366 H350 0.931 . S
C366 C360 1.383 . S
C366 C365 1.379 . S
H367 C361 0.959 . S
H368 C361 0.961 . S
H369 C361 0.960 . S
H370 C362 0.930 . S
H371 C363 0.929 . S
H372 C380 0.929 . S
H373 C382 0.930 . S
H374 C384 0.930 . S
H375 C387 0.929 . S
H376 C390 0.930 . S
H377 C392 0.960 . S
H378 C392 0.960 . S
H379 C392 0.960 . S
C380 H372 0.929 . S
C380 C381 1.377 . S
C380 C382 1.384 . S
C381 C380 1.377 . S
C381 C387 1.390 . S
C382 H373 0.930 . S
C382 C380 1.384 . S
C382 C383 1.372 . S
C383 C382 1.372 . S
C383 C384 1.400 . S
C383 C388 1.490 . S
C384 H374 0.930 . S
C384 C383 1.400 . S
C384 C387 1.386 . S
H385 C401 0.930 . S
H386 C402 0.931 . S
C387 H375 0.929 . S
C387 C381 1.390 . S
C387 C384 1.386 . S
C388 C383 1.490 . S
C388 C390 1.395 . S
C388 C391 1.403 . S
H389 C395 0.930 . S
C390 H376 0.930 . S
C390 C388 1.395 . S
C390 C393 1.403 . S
C391 C388 1.403 . S
C391 C392 1.524 . S
C391 C395 1.400 . S
C392 H377 0.960 . S
C392 H378 0.960 . S
C392 H379 0.960 . S
C392 C391 1.524 . S
C393 C390 1.403 . S
C393 C394 1.392 . S
C393 C397 1.495 . S
C394 C393 1.392 . S
C394 C395 1.385 . S
C394 C396 1.478 . S
C395 H389 0.930 . S
C395 C391 1.400 . S
C395 C394 1.385 . S
C396 C394 1.478 . S
C396 C398 1.381 . S
C396 C402 1.383 . S
C397 C393 1.495 . S
C397 H403 0.959 . S
C397 H404 0.961 . S
C397 H405 0.960 . S
C398 C396 1.381 . S
C398 C399 1.394 . S
C398 H406 0.930 . S
C399 C398 1.394 . S
C399 C400 1.383 . S
C399 H407 0.929 . S
C400 C399 1.383 . S
C400 C401 1.377 . S
C401 H385 0.930 . S
C401 C400 1.377 . S
C401 C402 1.379 . S
C402 H386 0.931 . S
C402 C396 1.383 . S
C402 C401 1.379 . S
H403 C397 0.959 . S
H404 C397 0.961 . S
H405 C397 0.960 . S
H406 C398 0.930 . S
H407 C399 0.929 . S
H408 C416 0.929 . S
H409 C418 0.930 . S
H410 C420 0.930 . S
H411 C423 0.929 . S
H412 C426 0.940 . S
H413 C428 0.960 . S
H414 C428 0.960 . S
H415 C428 0.960 1_455 S
C416 H408 0.929 . S
C416 C417 1.377 1_655 S
C416 C418 1.384 . S
C417 C416 1.377 1_455 S
C417 C423 1.390 . S
C418 H409 0.930 . S
C418 C416 1.384 . S
C418 C419 1.372 . S
C419 C418 1.372 . S
C419 C420 1.400 1_655 S
C419 C424 1.490 . S
C420 H410 0.930 . S
C420 C419 1.400 1_455 S
C420 C423 1.386 . S
H421 C437 0.930 . S
H422 C438 0.931 . S
C423 H411 0.929 . S
C423 C417 1.390 . S
C423 C420 1.386 . S
C424 C419 1.490 . S
C424 C426 1.378 1_565 S
C424 C427 1.403 . S
H425 C431 0.930 . S
C426 H412 0.940 . S
C426 C424 1.378 1_545 S
C426 C429 1.411 . S
C427 C424 1.403 . S
C427 C428 1.524 . S
C427 C431 1.400 . S
C428 H413 0.960 . S
C428 H414 0.960 . S
C428 H415 0.960 1_655 S
C428 C427 1.524 . S
C429 C426 1.411 . S
C429 C430 1.392 1_545 S
C429 C433 1.495 . S
C430 C429 1.392 1_565 S
C430 C431 1.385 . S
C430 C432 1.478 1_565 S
C431 H425 0.930 . S
C431 C427 1.400 . S
C431 C430 1.385 . S
C432 C430 1.478 1_545 S
C432 C434 1.381 1_545 S
C432 C438 1.383 . S
C433 C429 1.495 . S
C433 H439 0.959 . S
C433 H440 0.961 . S
C433 H441 0.960 . S
C434 C432 1.381 1_565 S
C434 C435 1.394 . S
C434 H442 0.930 . S
C435 C434 1.394 . S
C435 C436 1.383 1_565 S
C435 H443 0.929 . S
C436 C435 1.383 1_545 S
C436 C437 1.377 . S
C437 H421 0.930 . S
C437 C436 1.377 . S
C437 C438 1.379 . S
C438 H422 0.931 . S
C438 C432 1.383 . S
C438 C437 1.379 . S
H439 C433 0.959 . S
H440 C433 0.961 . S
H441 C433 0.960 . S
H442 C434 0.930 . S
H443 C435 0.929 . S
H444 C452 0.929 . S
H445 C454 0.930 . S
H446 C456 0.930 . S
H447 C459 0.929 . S
H448 C462 0.930 . S
H449 C464 0.960 . S
H450 C464 0.960 . S
H451 C464 0.960 . S
C452 H444 0.929 . S
C452 C453 1.377 . S
C452 C454 1.384 . S
C453 C452 1.377 . S
C453 C459 1.390 . S
C454 H445 0.930 . S
C454 C452 1.384 . S
C454 C455 1.372 . S
C455 C454 1.372 . S
C455 C456 1.400 . S
C455 C460 1.490 . S
C456 H446 0.930 . S
C456 C455 1.400 . S
C456 C459 1.386 . S
H457 C473 0.930 . S
H458 C474 0.931 . S
C459 H447 0.929 . S
C459 C453 1.390 . S
C459 C456 1.386 . S
C460 C455 1.490 . S
C460 C462 1.395 . S
C460 C463 1.403 . S
H461 C467 0.930 . S
C462 H448 0.930 . S
C462 C460 1.395 . S
C462 C465 1.403 . S
C463 C460 1.403 . S
C463 C464 1.524 . S
C463 C467 1.400 . S
C464 H449 0.960 . S
C464 H450 0.960 . S
C464 H451 0.960 . S
C464 C463 1.524 . S
C465 C462 1.403 . S
C465 C466 1.392 . S
C465 C469 1.495 . S
C466 C465 1.392 . S
C466 C467 1.385 . S
C466 C468 1.478 . S
C467 H461 0.930 . S
C467 C463 1.400 . S
C467 C466 1.385 . S
C468 C466 1.478 . S
C468 C470 1.381 . S
C468 C474 1.383 . S
C469 C465 1.495 . S
C469 H475 0.959 . S
C469 H476 0.961 . S
C469 H477 0.960 . S
C470 C468 1.381 . S
C470 C471 1.394 . S
C470 H478 0.930 . S
C471 C470 1.394 . S
C471 C472 1.383 . S
C471 H479 0.929 . S
C472 C471 1.383 . S
C472 C473 1.377 . S
C473 H457 0.930 . S
C473 C472 1.377 . S
C473 C474 1.379 . S
C474 H458 0.931 . S
C474 C468 1.383 . S
C474 C473 1.379 . S
H475 C469 0.959 . S
H476 C469 0.961 . S
H477 C469 0.960 . S
H478 C470 0.930 . S
H479 C471 0.929 . S
H480 C488 0.929 . S
H481 C490 0.930 . S
H482 C492 0.930 . S
H483 C495 0.929 . S
H484 C498 0.930 . S
H485 C500 0.960 . S
H486 C500 0.960 . S
H487 C500 0.960 . S
C488 H480 0.929 . S
C488 C489 1.377 . S
C488 C490 1.384 . S
C489 C488 1.377 . S
C489 C495 1.390 . S
C490 H481 0.930 . S
C490 C488 1.384 . S
C490 C491 1.372 . S
C491 C490 1.372 . S
C491 C492 1.400 . S
C491 C496 1.490 . S
C492 H482 0.930 . S
C492 C491 1.400 . S
C492 C495 1.386 . S
H493 C509 0.930 . S
H494 C510 0.931 . S
C495 H483 0.929 . S
C495 C489 1.390 . S
C495 C492 1.386 . S
C496 C491 1.490 . S
C496 C498 1.395 . S
C496 C499 1.403 . S
H497 C503 0.930 . S
C498 H484 0.930 . S
C498 C496 1.395 . S
C498 C501 1.403 . S
C499 C496 1.403 . S
C499 C500 1.524 . S
C499 C503 1.400 . S
C500 H485 0.960 . S
C500 H486 0.960 . S
C500 H487 0.960 . S
C500 C499 1.524 . S
C501 C498 1.403 . S
C501 C502 1.392 . S
C501 C505 1.495 . S
C502 C501 1.392 . S
C502 C503 1.385 . S
C502 C504 1.478 . S
C503 H497 0.930 . S
C503 C499 1.400 . S
C503 C502 1.385 . S
C504 C502 1.478 . S
C504 C506 1.381 . S
C504 C510 1.383 . S
C505 C501 1.495 . S
C505 H511 0.959 . S
C505 H512 0.961 . S
C505 H513 0.960 . S
C506 C504 1.381 . S
C506 C507 1.394 . S
C506 H514 0.930 . S
C507 C506 1.394 . S
C507 C508 1.383 . S
C507 H515 0.929 . S
C508 C507 1.383 . S
C508 C509 1.377 . S
C509 H493 0.930 . S
C509 C508 1.377 . S
C509 C510 1.379 . S
C510 H494 0.931 . S
C510 C504 1.383 . S
C510 C509 1.379 . S
H511 C505 0.959 . S
H512 C505 0.961 . S
H513 C505 0.960 . S
H514 C506 0.930 . S
H515 C507 0.929 . S
H516 C524 0.929 . S
H517 C526 0.930 . S
H518 C528 0.930 . S
H519 C531 0.929 . S
H520 C534 0.930 . S
H521 C536 0.960 . S
H522 C536 0.960 . S
H523 C536 0.960 . S
C524 H516 0.929 . S
C524 C525 1.377 . S
C524 C526 1.384 . S
C525 C524 1.377 . S
C525 C531 1.390 . S
C526 H517 0.930 . S
C526 C524 1.384 . S
C526 C527 1.372 . S
C527 C526 1.372 . S
C527 C528 1.400 . S
C527 C532 1.490 . S
C528 H518 0.930 . S
C528 C527 1.400 . S
C528 C531 1.386 . S
H529 C545 0.930 . S
H530 C546 0.931 . S
C531 H519 0.929 . S
C531 C525 1.390 . S
C531 C528 1.386 . S
C532 C527 1.490 . S
C532 C534 1.395 . S
C532 C535 1.403 . S
H533 C539 0.930 . S
C534 H520 0.930 . S
C534 C532 1.395 . S
C534 C537 1.403 . S
C535 C532 1.403 . S
C535 C536 1.524 . S
C535 C539 1.400 . S
C536 H521 0.960 . S
C536 H522 0.960 . S
C536 H523 0.960 . S
C536 C535 1.524 . S
C537 C534 1.403 . S
C537 C538 1.392 . S
C537 C541 1.495 . S
C538 C537 1.392 . S
C538 C539 1.385 . S
C538 C540 1.478 . S
C539 H533 0.930 . S
C539 C535 1.400 . S
C539 C538 1.385 . S
C540 C538 1.478 . S
C540 C542 1.381 . S
C540 C546 1.383 . S
C541 C537 1.495 . S
C541 H547 0.959 . S
C541 H548 0.961 . S
C541 H549 0.960 . S
C542 C540 1.381 . S
C542 C543 1.394 . S
C542 H550 0.930 . S
C543 C542 1.394 . S
C543 C544 1.383 . S
C543 H551 0.929 . S
C544 C543 1.383 . S
C544 C545 1.377 . S
C545 H529 0.930 . S
C545 C544 1.377 . S
C545 C546 1.379 . S
C546 H530 0.931 . S
C546 C540 1.383 . S
C546 C545 1.379 . S
H547 C541 0.959 . S
H548 C541 0.961 . S
H549 C541 0.960 . S
H550 C542 0.930 . S
H551 C543 0.929 . S
H552 C560 0.929 . S
H553 C562 0.930 . S
H554 C564 0.930 . S
H555 C567 0.929 . S
H556 C570 0.930 . S
H557 C572 0.965 . S
H558 C572 0.960 1_545 S
H559 C572 0.960 . S
C560 H552 0.929 . S
C560 C561 1.377 . S
C560 C562 1.384 . S
C561 C560 1.377 . S
C561 C567 1.390 . S
C562 H553 0.930 . S
C562 C560 1.384 . S
C562 C563 1.372 . S
C563 C562 1.372 . S
C563 C564 1.400 . S
C563 C568 1.490 . S
C564 H554 0.930 . S
C564 C563 1.400 . S
C564 C567 1.386 . S
H565 C581 0.930 . S
H566 C582 0.931 . S
C567 H555 0.929 . S
C567 C561 1.390 . S
C567 C564 1.386 . S
C568 C563 1.490 . S
C568 C570 1.395 . S
C568 C571 1.403 . S
H569 C575 0.930 . S
C570 H556 0.930 . S
C570 C568 1.395 . S
C570 C573 1.403 . S
C571 C568 1.403 . S
C571 C572 1.524 . S
C571 C575 1.400 . S
C572 H557 0.965 . S
C572 H558 0.960 1_565 S
C572 H559 0.960 . S
C572 C571 1.524 . S
C573 C570 1.403 . S
C573 C574 1.392 . S
C573 C577 1.495 . S
C574 C573 1.392 . S
C574 C575 1.385 . S
C574 C576 1.478 . S
C575 H569 0.930 . S
C575 C571 1.400 . S
C575 C574 1.385 . S
C576 C574 1.478 . S
C576 C578 1.381 1_565 S
C576 C582 1.383 . S
C577 C573 1.495 . S
C577 H583 0.959 . S
C577 H584 0.961 . S
C577 H585 0.960 . S
C578 C576 1.381 1_545 S
C578 C579 1.394 . S
C578 H586 0.930 . S
C579 C578 1.394 . S
C579 C580 1.383 1_545 S
C579 H587 0.929 . S
C580 C579 1.383 1_565 S
C580 C581 1.377 . S
C581 H565 0.930 . S
C581 C580 1.377 . S
C581 C582 1.379 . S
C582 H566 0.931 . S
C582 C576 1.383 . S
C582 C581 1.379 . S
H583 C577 0.959 . S
H584 C577 0.961 . S
H585 C577 0.960 . S
H586 C578 0.930 . S
H587 C579 0.929 . S
H588 C596 0.929 . S
H589 C598 0.930 . S
H590 C600 0.930 . S
H591 C603 0.929 . S
H592 C606 0.930 . S
H593 C608 0.960 . S
H594 C608 0.960 . S
H595 C608 0.960 . S
C596 H588 0.929 . S
C596 C597 1.377 . S
C596 C598 1.384 . S
C597 C596 1.377 . S
C597 C603 1.390 . S
C598 H589 0.930 . S
C598 C596 1.384 . S
C598 C599 1.372 . S
C599 C598 1.372 . S
C599 C600 1.400 . S
C599 C604 1.490 . S
C600 H590 0.930 . S
C600 C599 1.400 . S
C600 C603 1.386 . S
H601 C617 0.930 . S
H602 C618 0.931 . S
C603 H591 0.929 . S
C603 C597 1.390 . S
C603 C600 1.386 . S
C604 C599 1.490 . S
C604 C606 1.395 . S
C604 C607 1.403 . S
H605 C611 0.930 . S
C606 H592 0.930 . S
C606 C604 1.395 . S
C606 C609 1.403 . S
C607 C604 1.403 . S
C607 C608 1.524 . S
C607 C611 1.400 . S
C608 H593 0.960 . S
C608 H594 0.960 . S
C608 H595 0.960 . S
C608 C607 1.524 . S
C609 C606 1.403 . S
C609 C610 1.392 . S
C609 C613 1.495 . S
C610 C609 1.392 . S
C610 C611 1.385 . S
C610 C612 1.478 . S
C611 H605 0.930 . S
C611 C607 1.400 . S
C611 C610 1.385 . S
C612 C610 1.478 . S
C612 C614 1.381 . S
C612 C618 1.383 . S
C613 C609 1.495 . S
C613 H619 0.959 . S
C613 H620 0.961 . S
C613 H621 0.960 . S
C614 C612 1.381 . S
C614 C615 1.394 . S
C614 H622 0.930 . S
C615 C614 1.394 . S
C615 C616 1.383 . S
C615 H623 0.929 . S
C616 C615 1.383 . S
C616 C617 1.377 . S
C617 H601 0.930 . S
C617 C616 1.377 . S
C617 C618 1.379 . S
C618 H602 0.931 . S
C618 C612 1.383 . S
C618 C617 1.379 . S
H619 C613 0.959 . S
H620 C613 0.961 . S
H621 C613 0.960 . S
H622 C614 0.930 . S
H623 C615 0.929 . S
H624 C632 0.929 . S
H625 C634 0.930 . S
H626 C636 0.930 . S
H627 C639 0.929 . S
H628 C642 0.930 . S
H629 C644 0.960 . S
H630 C644 0.960 . S
H631 C644 0.960 . S
C632 H624 0.929 . S
C632 C633 1.377 . S
C632 C634 1.384 . S
C633 C632 1.377 . S
C633 C639 1.390 . S
C634 H625 0.930 . S
C634 C632 1.384 . S
C634 C635 1.372 . S
C635 C634 1.372 . S
C635 C636 1.400 . S
C635 C640 1.490 . S
C636 H626 0.930 . S
C636 C635 1.400 . S
C636 C639 1.386 . S
H637 C653 0.930 . S
H638 C654 0.931 . S
C639 H627 0.929 . S
C639 C633 1.390 . S
C639 C636 1.386 . S
C640 C635 1.490 . S
C640 C642 1.395 . S
C640 C643 1.403 . S
H641 C647 0.930 . S
C642 H628 0.930 . S
C642 C640 1.395 . S
C642 C645 1.403 . S
C643 C640 1.403 . S
C643 C644 1.524 . S
C643 C647 1.400 . S
C644 H629 0.960 . S
C644 H630 0.960 . S
C644 H631 0.960 . S
C644 C643 1.524 . S
C645 C642 1.403 . S
C645 C646 1.392 . S
C645 C649 1.495 . S
C646 C645 1.392 . S
C646 C647 1.385 . S
C646 C648 1.478 . S
C647 H641 0.930 . S
C647 C643 1.400 . S
C647 C646 1.385 . S
C648 C646 1.478 . S
C648 C650 1.381 . S
C648 C654 1.383 . S
C649 C645 1.495 . S
C649 H655 0.959 . S
C649 H656 0.961 . S
C649 H657 0.960 . S
C650 C648 1.381 . S
C650 C651 1.394 . S
C650 H658 0.930 . S
C651 C650 1.394 . S
C651 C652 1.383 . S
C651 H659 0.929 . S
C652 C651 1.383 . S
C652 C653 1.377 . S
C653 H637 0.930 . S
C653 C652 1.377 . S
C653 C654 1.379 . S
C654 H638 0.931 . S
C654 C648 1.383 . S
C654 C653 1.379 . S
H655 C649 0.959 . S
H656 C649 0.961 . S
H657 C649 0.960 . S
H658 C650 0.930 . S
H659 C651 0.929 . S
H660 C668 0.929 . S
H661 C670 0.930 . S
H662 C672 0.930 . S
H663 C675 0.929 . S
H664 C678 0.930 . S
H665 C680 0.960 . S
H666 C680 0.960 . S
H667 C680 0.960 . S
C668 H660 0.929 . S
C668 C669 1.377 . S
C668 C670 1.384 . S
C669 C668 1.377 . S
C669 C675 1.390 . S
C670 H661 0.930 . S
C670 C668 1.384 . S
C670 C671 1.372 . S
C671 C670 1.372 . S
C671 C672 1.400 . S
C671 C676 1.490 . S
C672 H662 0.930 . S
C672 C671 1.400 . S
C672 C675 1.386 . S
H673 C689 0.930 . S
H674 C690 0.931 . S
C675 H663 0.929 . S
C675 C669 1.390 . S
C675 C672 1.386 . S
C676 C671 1.490 . S
C676 C678 1.395 . S
C676 C679 1.403 . S
H677 C683 0.930 . S
C678 H664 0.930 . S
C678 C676 1.395 . S
C678 C681 1.403 . S
C679 C676 1.403 . S
C679 C680 1.524 . S
C679 C683 1.400 . S
C680 H665 0.960 . S
C680 H666 0.960 . S
C680 H667 0.960 . S
C680 C679 1.524 . S
C681 C678 1.403 . S
C681 C682 1.392 . S
C681 C685 1.495 . S
C682 C681 1.392 . S
C682 C683 1.385 . S
C682 C684 1.478 . S
C683 H677 0.930 . S
C683 C679 1.400 . S
C683 C682 1.385 . S
C684 C682 1.478 . S
C684 C686 1.381 . S
C684 C690 1.383 . S
C685 C681 1.495 . S
C685 H691 0.959 . S
C685 H692 0.961 . S
C685 H693 0.960 . S
C686 C684 1.381 . S
C686 C687 1.394 . S
C686 H694 0.930 . S
C687 C686 1.394 . S
C687 C688 1.383 . S
C687 H695 0.929 . S
C688 C687 1.383 . S
C688 C689 1.377 . S
C689 H673 0.930 . S
C689 C688 1.377 . S
C689 C690 1.379 . S
C690 H674 0.931 . S
C690 C684 1.383 . S
C690 C689 1.379 . S
H691 C685 0.959 . S
H692 C685 0.961 . S
H693 C685 0.960 . S
H694 C686 0.930 . S
H695 C687 0.929 . S
H696 C704 0.929 . S
H697 C706 0.930 . S
H698 C708 0.930 . S
H699 C711 0.929 . S
H700 C714 0.930 . S
H701 C716 0.960 . S
H702 C716 0.960 . S
H703 C716 0.960 . S
C704 H696 0.929 . S
C704 C705 1.377 . S
C704 C706 1.384 . S
C705 C704 1.377 . S
C705 C711 1.390 . S
C706 H697 0.930 . S
C706 C704 1.384 . S
C706 C707 1.372 . S
C707 C706 1.372 . S
C707 C708 1.400 . S
C707 C712 1.490 . S
C708 H698 0.930 . S
C708 C707 1.400 . S
C708 C711 1.386 . S
H709 C725 0.930 . S
H710 C726 0.931 . S
C711 H699 0.929 . S
C711 C705 1.390 . S
C711 C708 1.386 . S
C712 C707 1.490 . S
C712 C714 1.395 . S
C712 C715 1.403 . S
H713 C719 0.930 . S
C714 H700 0.930 . S
C714 C712 1.395 . S
C714 C717 1.403 . S
C715 C712 1.403 . S
C715 C716 1.524 . S
C715 C719 1.400 . S
C716 H701 0.960 . S
C716 H702 0.960 . S
C716 H703 0.960 . S
C716 C715 1.524 . S
C717 C714 1.403 . S
C717 C718 1.392 . S
C717 C721 1.495 . S
C718 C717 1.392 . S
C718 C719 1.385 . S
C718 C720 1.478 . S
C719 H713 0.930 . S
C719 C715 1.400 . S
C719 C718 1.385 . S
C720 C718 1.478 . S
C720 C722 1.381 . S
C720 C726 1.383 . S
C721 C717 1.495 . S
C721 H727 0.959 . S
C721 H728 0.961 . S
C721 H729 0.960 . S
C722 C720 1.381 . S
C722 C723 1.394 . S
C722 H730 0.930 . S
C723 C722 1.394 . S
C723 C724 1.383 . S
C723 H731 0.929 . S
C724 C723 1.383 . S
C724 C725 1.377 . S
C725 H709 0.930 . S
C725 C724 1.377 . S
C725 C726 1.379 . S
C726 H710 0.931 . S
C726 C720 1.383 . S
C726 C725 1.379 . S
H727 C721 0.959 . S
H728 C721 0.961 . S
H729 C721 0.960 . S
H730 C722 0.930 . S
H731 C723 0.929 . S
H732 C740 0.929 . S
H733 C742 0.930 . S
H734 C744 0.930 . S
H735 C747 0.929 . S
H736 C750 0.930 . S
H737 C752 0.960 . S
H738 C752 0.960 . S
H739 C752 0.960 . S
C740 H732 0.929 . S
C740 C741 1.377 . S
C740 C742 1.384 . S
C741 C740 1.377 . S
C741 C747 1.390 . S
C742 H733 0.930 . S
C742 C740 1.384 . S
C742 C743 1.372 . S
C743 C742 1.372 . S
C743 C744 1.400 . S
C743 C748 1.490 . S
C744 H734 0.930 . S
C744 C743 1.400 . S
C744 C747 1.386 . S
H745 C761 0.930 . S
H746 C762 0.931 . S
C747 H735 0.929 . S
C747 C741 1.390 . S
C747 C744 1.386 . S
C748 C743 1.490 . S
C748 C750 1.395 . S
C748 C751 1.403 . S
H749 C755 0.930 . S
C750 H736 0.930 . S
C750 C748 1.395 . S
C750 C753 1.403 . S
C751 C748 1.403 . S
C751 C752 1.524 . S
C751 C755 1.400 . S
C752 H737 0.960 . S
C752 H738 0.960 . S
C752 H739 0.960 . S
C752 C751 1.524 . S
C753 C750 1.403 . S
C753 C754 1.392 . S
C753 C757 1.495 . S
C754 C753 1.392 . S
C754 C755 1.385 . S
C754 C756 1.478 . S
C755 H749 0.930 . S
C755 C751 1.400 . S
C755 C754 1.385 . S
C756 C754 1.478 . S
C756 C758 1.381 . S
C756 C762 1.383 . S
C757 C753 1.495 . S
C757 H763 0.959 . S
C757 H764 0.961 . S
C757 H765 0.960 . S
C758 C756 1.381 . S
C758 C759 1.394 . S
C758 H766 0.930 . S
C759 C758 1.394 . S
C759 C760 1.383 . S
C759 H767 0.929 . S
C760 C759 1.383 . S
C760 C761 1.377 . S
C761 H745 0.930 . S
C761 C760 1.377 . S
C761 C762 1.379 . S
C762 H746 0.931 . S
C762 C756 1.383 . S
C762 C761 1.379 . S
H763 C757 0.959 . S
H764 C757 0.961 . S
H765 C757 0.960 . S
H766 C758 0.930 . S
H767 C759 0.929 . S
H768 C776 0.929 . S
H769 C778 0.930 . S
H770 C780 0.930 . S
H771 C783 0.929 . S
H772 C786 0.930 . S
H773 C788 0.960 . S
H774 C788 0.960 . S
H775 C788 0.960 . S
C776 H768 0.929 . S
C776 C777 1.377 . S
C776 C778 1.384 . S
C777 C776 1.377 . S
C777 C783 1.390 . S
C778 H769 0.930 . S
C778 C776 1.384 . S
C778 C779 1.372 . S
C779 C778 1.372 . S
C779 C780 1.400 . S
C779 C784 1.490 . S
C780 H770 0.930 . S
C780 C779 1.400 . S
C780 C783 1.386 . S
H781 C797 0.930 . S
H782 C798 0.975 . S
C783 H771 0.929 . S
C783 C777 1.390 . S
C783 C780 1.386 . S
C784 C779 1.490 . S
C784 C786 1.395 . S
C784 C787 1.403 . S
H785 C791 0.930 . S
C786 H772 0.930 . S
C786 C784 1.395 . S
C786 C789 1.403 . S
C787 C784 1.403 . S
C787 C788 1.524 . S
C787 C791 1.400 . S
C788 H773 0.960 . S
C788 H774 0.960 . S
C788 H775 0.960 . S
C788 C787 1.524 . S
C789 C786 1.403 . S
C789 C790 1.392 . S
C789 C793 1.495 . S
C790 C789 1.392 . S
C790 C791 1.385 . S
C790 C792 1.478 . S
C791 H785 0.930 . S
C791 C787 1.400 . S
C791 C790 1.385 . S
C792 C790 1.478 . S
C792 C794 1.381 . S
C792 C798 1.334 1_455 S
C793 C789 1.495 . S
C793 H799 0.959 . S
C793 H800 0.961 . S
C793 H801 0.960 . S
C794 C792 1.381 . S
C794 C795 1.394 . S
C794 H802 0.930 . S
C795 C794 1.394 . S
C795 C796 1.383 . S
C795 H803 0.929 . S
C796 C795 1.383 . S
C796 C797 1.377 1_455 S
C797 H781 0.930 . S
C797 C796 1.377 1_655 S
C797 C798 1.387 . S
C798 H782 0.975 . S
C798 C792 1.334 1_655 S
C798 C797 1.387 . S
H799 C793 0.959 . S
H800 C793 0.961 . S
H801 C793 0.960 . S
H802 C794 0.930 . S
H803 C795 0.929 . S
H804 C812 0.929 . S
H805 C814 0.930 . S
H806 C816 0.930 . S
H807 C819 0.929 . S
H808 C822 0.930 . S
H809 C824 0.960 . S
H810 C824 0.960 . S
H811 C824 0.960 . S
C812 H804 0.929 . S
C812 C813 1.377 . S
C812 C814 1.384 . S
C813 C812 1.377 . S
C813 C819 1.390 . S
C814 H805 0.930 . S
C814 C812 1.384 . S
C814 C815 1.372 . S
C815 C814 1.372 . S
C815 C816 1.400 . S
C815 C820 1.490 . S
C816 H806 0.930 . S
C816 C815 1.400 . S
C816 C819 1.386 . S
H817 C833 0.930 . S
H818 C834 0.931 . S
C819 H807 0.929 . S
C819 C813 1.390 . S
C819 C816 1.386 . S
C820 C815 1.490 . S
C820 C822 1.395 . S
C820 C823 1.403 . S
H821 C827 0.930 . S
C822 H808 0.930 . S
C822 C820 1.395 . S
C822 C825 1.403 . S
C823 C820 1.403 . S
C823 C824 1.524 . S
C823 C827 1.400 . S
C824 H809 0.960 . S
C824 H810 0.960 . S
C824 H811 0.960 . S
C824 C823 1.524 . S
C825 C822 1.403 . S
C825 C826 1.392 . S
C825 C829 1.495 . S
C826 C825 1.392 . S
C826 C827 1.385 . S
C826 C828 1.478 . S
C827 H821 0.930 . S
C827 C823 1.400 . S
C827 C826 1.385 . S
C828 C826 1.478 . S
C828 C830 1.381 . S
C828 C834 1.383 . S
C829 C825 1.495 . S
C829 H835 0.959 . S
C829 H836 0.961 . S
C829 H837 0.960 . S
C830 C828 1.381 . S
C830 C831 1.394 . S
C830 H838 0.930 . S
C831 C830 1.394 . S
C831 C832 1.383 . S
C831 H839 0.929 . S
C832 C831 1.383 . S
C832 C833 1.377 . S
C833 H817 0.930 . S
C833 C832 1.377 . S
C833 C834 1.379 . S
C834 H818 0.931 . S
C834 C828 1.383 . S
C834 C833 1.379 . S
H835 C829 0.959 . S
H836 C829 0.961 . S
H837 C829 0.960 . S
H838 C830 0.930 . S
H839 C831 0.929 . S
H840 C848 0.929 . S
H841 C850 0.930 . S
H842 C852 0.930 . S
H843 C855 0.929 . S
H844 C858 0.930 . S
H845 C860 0.960 . S
H846 C860 0.960 . S
H847 C860 0.960 . S
C848 H840 0.929 . S
C848 C849 1.377 . S
C848 C850 1.384 . S
C849 C848 1.377 . S
C849 C855 1.390 . S
C850 H841 0.930 . S
C850 C848 1.384 . S
C850 C851 1.372 . S
C851 C850 1.372 . S
C851 C852 1.400 . S
C851 C856 1.490 . S
C852 H842 0.930 . S
C852 C851 1.400 . S
C852 C855 1.386 . S
H853 C869 0.930 . S
H854 C870 0.931 1_455 S
C855 H843 0.929 . S
C855 C849 1.390 . S
C855 C852 1.386 . S
C856 C851 1.490 . S
C856 C858 1.395 . S
C856 C859 1.403 . S
H857 C863 0.930 1_455 S
C858 H844 0.930 . S
C858 C856 1.395 . S
C858 C861 1.403 . S
C859 C856 1.403 . S
C859 C860 1.524 1_655 S
C859 C863 1.400 . S
C860 H845 0.960 . S
C860 H846 0.960 . S
C860 H847 0.960 . S
C860 C859 1.524 1_455 S
C861 C858 1.403 . S
C861 C862 1.392 . S
C861 C865 1.495 . S
C862 C861 1.392 . S
C862 C863 1.385 . S
C862 C864 1.478 . S
C863 H857 0.930 1_655 S
C863 C859 1.400 . S
C863 C862 1.385 . S
C864 C862 1.478 . S
C864 C866 1.381 . S
C864 C870 1.383 . S
C865 C861 1.495 . S
C865 H871 0.959 . S
C865 H872 0.961 . S
C865 H873 0.960 . S
C866 C864 1.381 . S
C866 C867 1.394 . S
C866 H874 0.930 . S
C867 C866 1.394 . S
C867 C868 1.383 . S
C867 H875 0.929 . S
C868 C867 1.383 . S
C868 C869 1.377 1_655 S
C869 H853 0.930 . S
C869 C868 1.377 1_455 S
C869 C870 1.379 1_455 S
C870 H854 0.931 1_655 S
C870 C864 1.383 . S
C870 C869 1.379 1_655 S
H871 C865 0.959 . S
H872 C865 0.961 . S
H873 C865 0.960 . S
H874 C866 0.930 . S
H875 C867 0.929 . S
H876 C884 0.929 . S
H877 C886 0.930 . S
H878 C888 0.930 . S
H879 C891 0.929 . S
H880 C894 0.930 . S
H881 C896 0.960 . S
H882 C896 0.960 . S
H883 C896 0.960 . S
C884 H876 0.929 . S
C884 C885 1.377 . S
C884 C886 1.384 . S
C885 C884 1.377 . S
C885 C891 1.390 . S
C886 H877 0.930 . S
C886 C884 1.384 . S
C886 C887 1.372 . S
C887 C886 1.372 . S
C887 C888 1.400 . S
C887 C892 1.490 . S
C888 H878 0.930 . S
C888 C887 1.400 . S
C888 C891 1.386 . S
H889 C905 0.930 . S
H890 C906 0.931 . S
C891 H879 0.929 . S
C891 C885 1.390 . S
C891 C888 1.386 . S
C892 C887 1.490 . S
C892 C894 1.395 . S
C892 C895 1.403 . S
H893 C899 0.930 . S
C894 H880 0.930 . S
C894 C892 1.395 . S
C894 C897 1.403 . S
C895 C892 1.403 . S
C895 C896 1.524 . S
C895 C899 1.400 . S
C896 H881 0.960 . S
C896 H882 0.960 . S
C896 H883 0.960 . S
C896 C895 1.524 . S
C897 C894 1.403 . S
C897 C898 1.392 . S
C897 C901 1.495 . S
C898 C897 1.392 . S
C898 C899 1.385 . S
C898 C900 1.478 . S
C899 H893 0.930 . S
C899 C895 1.400 . S
C899 C898 1.385 . S
C900 C898 1.478 . S
C900 C902 1.381 . S
C900 C906 1.383 . S
C901 C897 1.495 . S
C901 H907 0.959 . S
C901 H908 0.961 . S
C901 H909 0.960 . S
C902 C900 1.381 . S
C902 C903 1.394 . S
C902 H910 0.930 . S
C903 C902 1.394 . S
C903 C904 1.383 . S
C903 H911 0.929 . S
C904 C903 1.383 . S
C904 C905 1.377 . S
C905 H889 0.930 . S
C905 C904 1.377 . S
C905 C906 1.379 . S
C906 H890 0.931 . S
C906 C900 1.383 . S
C906 C905 1.379 . S
H907 C901 0.959 . S
H908 C901 0.961 . S
H909 C901 0.960 . S
H910 C902 0.930 . S
H911 C903 0.929 . S
H912 C920 0.929 . S
H913 C922 0.930 . S
H914 C924 0.930 . S
H915 C927 0.929 . S
H916 C930 0.930 . S
H917 C932 0.960 . S
H918 C932 0.960 . S
H919 C932 0.960 . S
C920 H912 0.929 . S
C920 C921 1.377 . S
C920 C922 1.384 . S
C921 C920 1.377 . S
C921 C927 1.390 . S
C922 H913 0.930 . S
C922 C920 1.384 . S
C922 C923 1.372 . S
C923 C922 1.372 . S
C923 C924 1.400 . S
C923 C928 1.490 . S
C924 H914 0.930 . S
C924 C923 1.400 . S
C924 C927 1.386 . S
H925 C941 0.930 . S
H926 C942 0.931 . S
C927 H915 0.929 . S
C927 C921 1.390 . S
C927 C924 1.386 . S
C928 C923 1.490 . S
C928 C930 1.395 . S
C928 C931 1.403 . S
H929 C935 0.930 . S
C930 H916 0.930 . S
C930 C928 1.395 . S
C930 C933 1.403 . S
C931 C928 1.403 . S
C931 C932 1.524 . S
C931 C935 1.400 . S
C932 H917 0.960 . S
C932 H918 0.960 . S
C932 H919 0.960 . S
C932 C931 1.524 . S
C933 C930 1.403 . S
C933 C934 1.392 . S
C933 C937 1.495 . S
C934 C933 1.392 . S
C934 C935 1.385 . S
C934 C936 1.478 . S
C935 H929 0.930 . S
C935 C931 1.400 . S
C935 C934 1.385 . S
C936 C934 1.478 . S
C936 C938 1.381 . S
C936 C942 1.383 . S
C937 C933 1.495 . S
C937 H943 0.959 . S
C937 H944 0.961 . S
C937 H945 0.960 . S
C938 C936 1.381 . S
C938 C939 1.394 . S
C938 H946 0.930 . S
C939 C938 1.394 . S
C939 C940 1.383 . S
C939 H947 0.929 . S
C940 C939 1.383 . S
C940 C941 1.377 . S
C941 H925 0.930 . S
C941 C940 1.377 . S
C941 C942 1.379 . S
C942 H926 0.931 . S
C942 C936 1.383 . S
C942 C941 1.379 . S
H943 C937 0.959 . S
H944 C937 0.961 . S
H945 C937 0.960 . S
H946 C938 0.930 . S
H947 C939 0.929 . S
H948 C956 0.929 1_554 S
H949 C958 0.930 1_554 S
H950 C960 0.930 . S
H951 C963 0.929 . S
H952 C966 0.930 1_545 S
H953 C968 0.960 . S
H954 C968 0.960 . S
H955 C968 0.960 . S
C956 H948 0.929 1_556 S
C956 C957 1.377 . S
C956 C958 1.384 . S
C957 C956 1.377 . S
C957 C963 1.390 . S
C958 H949 0.930 1_556 S
C958 C956 1.384 . S
C958 C959 1.372 1_545 S
C959 C958 1.372 1_565 S
C959 C960 1.400 . S
C959 C964 1.490 . S
C960 H950 0.930 . S
C960 C959 1.400 . S
C960 C963 1.386 1_565 S
H961 C977 0.930 . S
H962 C978 0.931 . S
C963 H951 0.929 . S
C963 C957 1.390 . S
C963 C960 1.386 1_545 S
C964 C959 1.490 . S
C964 C966 1.395 . S
C964 C967 1.403 . S
H965 C971 0.930 . S
C966 H952 0.930 1_565 S
C966 C964 1.395 . S
C966 C969 1.403 . S
C967 C964 1.403 . S
C967 C968 1.524 . S
C967 C971 1.400 . S
C968 H953 0.960 . S
C968 H954 0.960 . S
C968 H955 0.960 . S
C968 C967 1.524 . S
C969 C966 1.403 . S
C969 C970 1.392 . S
C969 C973 1.495 1_556 S
C970 C969 1.392 . S
C970 C971 1.385 . S
C970 C972 1.478 . S
C971 H965 0.930 . S
C971 C967 1.400 . S
C971 C970 1.385 . S
C972 C970 1.478 . S
C972 C974 1.381 1_556 S
C972 C978 1.383 . S
C973 C969 1.495 1_554 S
C973 H979 0.959 1_565 S
C973 H980 0.961 1_554 S
C973 H981 0.960 . S
C974 C972 1.381 1_554 S
C974 C975 1.394 . S
C974 H982 0.930 . S
C975 C974 1.394 . S
C975 C976 1.385 . S
C975 H983 0.929 . S
C976 C975 1.385 . S
C976 C977 1.375 1_554 S
C977 H961 0.930 . S
C977 C976 1.375 1_556 S
C977 C978 1.379 . S
C978 H962 0.931 . S
C978 C972 1.383 . S
C978 C977 1.379 . S
H979 C973 0.959 1_545 S
H980 C973 0.961 1_556 S
H981 C973 0.960 . S
H982 C974 0.930 . S
H983 C975 0.929 . S
H984 C992 0.929 . S
H985 C994 0.930 . S
H986 C996 0.930 . S
H987 C999 0.929 . S
H988 C1002 0.930 . S
H989 C1004 0.960 . S
H990 C1004 0.960 . S
H991 C1004 0.960 . S
C992 H984 0.929 . S
C992 C993 1.377 . S
C992 C994 1.384 . S
C993 C992 1.377 . S
C993 C999 1.390 . S
C994 H985 0.930 . S
C994 C992 1.384 . S
C994 C995 1.372 . S
C995 C994 1.372 . S
C995 C996 1.400 . S
C995 C1000 1.490 . S
C996 H986 0.930 . S
C996 C995 1.400 . S
C996 C999 1.386 . S
H997 C1013 0.930 . S
H998 C1014 0.931 . S
C999 H987 0.929 . S
C999 C993 1.390 . S
C999 C996 1.386 . S
C1000 C995 1.490 . S
C1000 C1002 1.395 . S
C1000 C1003 1.403 . S
H1001 C1007 0.930 . S
C1002 H988 0.930 . S
C1002 C1000 1.395 . S
C1002 C1005 1.403 . S
C1003 C1000 1.403 . S
C1003 C1004 1.524 . S
C1003 C1007 1.400 . S
C1004 H989 0.960 . S
C1004 H990 0.960 . S
C1004 H991 0.960 . S
C1004 C1003 1.524 . S
C1005 C1002 1.403 . S
C1005 C1006 1.392 . S
C1005 C1009 1.495 . S
C1006 C1005 1.392 . S
C1006 C1007 1.385 . S
C1006 C1008 1.478 . S
C1007 H1001 0.930 . S
C1007 C1003 1.400 . S
C1007 C1006 1.385 . S
C1008 C1006 1.478 . S
C1008 C1010 1.381 . S
C1008 C1014 1.383 . S
C1009 C1005 1.495 . S
C1009 H1015 0.959 . S
C1009 H1016 0.961 . S
C1009 H1017 0.960 . S
C1010 C1008 1.381 . S
C1010 C1011 1.394 . S
C1010 H1018 0.930 . S
C1011 C1010 1.394 . S
C1011 C1012 1.383 . S
C1011 H1019 0.929 . S
C1012 C1011 1.383 . S
C1012 C1013 1.377 . S
C1013 H997 0.930 . S
C1013 C1012 1.377 . S
C1013 C1014 1.379 . S
C1014 H998 0.931 . S
C1014 C1008 1.383 . S
C1014 C1013 1.379 . S
H1015 C1009 0.959 . S
H1016 C1009 0.961 . S
H1017 C1009 0.960 . S
H1018 C1010 0.930 . S
H1019 C1011 0.929 . S
H1020 C1028 0.929 . S
H1021 C1030 0.930 . S
H1022 C1032 0.930 . S
H1023 C1035 0.929 . S
H1024 C1038 0.930 . S
H1025 C1040 0.960 . S
H1026 C1040 0.960 . S
H1027 C1040 0.960 . S
C1028 H1020 0.929 . S
C1028 C1029 1.364 1_545 S
C1028 C1030 1.384 . S
C1029 C1028 1.364 1_565 S
C1029 C1035 1.394 . S
C1030 H1021 0.930 . S
C1030 C1028 1.384 . S
C1030 C1031 1.372 . S
C1031 C1030 1.372 . S
C1031 C1032 1.400 . S
C1031 C1036 1.490 . S
C1032 H1022 0.930 . S
C1032 C1031 1.400 . S
C1032 C1035 1.386 1_545 S
H1033 C1049 0.930 . S
H1034 C1050 0.931 . S
C1035 H1023 0.929 . S
C1035 C1029 1.394 . S
C1035 C1032 1.386 1_565 S
C1036 C1031 1.490 . S
C1036 C1038 1.395 . S
C1036 C1039 1.403 . S
H1037 C1043 0.930 . S
C1038 H1024 0.930 . S
C1038 C1036 1.395 . S
C1038 C1041 1.403 . S
C1039 C1036 1.403 . S
C1039 C1040 1.524 . S
C1039 C1043 1.400 . S
C1040 H1025 0.960 . S
C1040 H1026 0.960 . S
C1040 H1027 0.960 . S
C1040 C1039 1.524 . S
C1041 C1038 1.403 . S
C1041 C1042 1.392 . S
C1041 C1045 1.495 . S
C1042 C1041 1.392 . S
C1042 C1043 1.385 . S
C1042 C1044 1.478 . S
C1043 H1037 0.930 . S
C1043 C1039 1.400 . S
C1043 C1042 1.385 . S
C1044 C1042 1.478 . S
C1044 C1046 1.381 . S
C1044 C1050 1.383 . S
C1045 C1041 1.495 . S
C1045 H1051 0.959 . S
C1045 H1052 0.961 . S
C1045 H1053 0.960 . S
C1046 C1044 1.381 . S
C1046 C1047 1.394 . S
C1046 H1054 0.930 . S
C1047 C1046 1.394 . S
C1047 C1048 1.383 . S
C1047 H1055 0.929 . S
C1048 C1047 1.383 . S
C1048 C1049 1.377 . S
C1049 H1033 0.930 . S
C1049 C1048 1.377 . S
C1049 C1050 1.379 . S
C1050 H1034 0.931 . S
C1050 C1044 1.383 . S
C1050 C1049 1.379 . S
H1051 C1045 0.959 . S
H1052 C1045 0.961 . S
H1053 C1045 0.960 . S
H1054 C1046 0.930 . S
H1055 C1047 0.929 . S
H1056 C1064 0.929 . S
H1057 C1066 0.930 . S
H1058 C1068 0.930 . S
H1059 C1071 0.929 . S
H1060 C1074 0.930 . S
H1061 C1076 0.960 . S
H1062 C1076 0.960 . S
H1063 C1076 0.960 . S
C1064 H1056 0.929 . S
C1064 C1065 1.377 . S
C1064 C1066 1.384 . S
C1065 C1064 1.377 . S
C1065 C1071 1.390 . S
C1066 H1057 0.930 . S
C1066 C1064 1.384 . S
C1066 C1067 1.372 . S
C1067 C1066 1.372 . S
C1067 C1068 1.400 . S
C1067 C1072 1.490 . S
C1068 H1058 0.930 . S
C1068 C1067 1.400 . S
C1068 C1071 1.386 . S
H1069 C1085 0.930 . S
H1070 C1086 0.931 . S
C1071 H1059 0.929 . S
C1071 C1065 1.390 . S
C1071 C1068 1.386 . S
C1072 C1067 1.490 . S
C1072 C1074 1.395 . S
C1072 C1075 1.403 . S
H1073 C1079 0.930 . S
C1074 H1060 0.930 . S
C1074 C1072 1.395 . S
C1074 C1077 1.403 . S
C1075 C1072 1.403 . S
C1075 C1076 1.524 . S
C1075 C1079 1.400 . S
C1076 H1061 0.960 . S
C1076 H1062 0.960 . S
C1076 H1063 0.960 . S
C1076 C1075 1.524 . S
C1077 C1074 1.403 . S
C1077 C1078 1.392 . S
C1077 C1081 1.495 . S
C1078 C1077 1.392 . S
C1078 C1079 1.385 . S
C1078 C1080 1.478 . S
C1079 H1073 0.930 . S
C1079 C1075 1.400 . S
C1079 C1078 1.385 . S
C1080 C1078 1.478 . S
C1080 C1082 1.381 . S
C1080 C1086 1.383 . S
C1081 C1077 1.495 . S
C1081 H1087 0.959 . S
C1081 H1088 0.961 . S
C1081 H1089 0.960 . S
C1082 C1080 1.381 . S
C1082 C1083 1.394 . S
C1082 H1090 0.930 . S
C1083 C1082 1.394 . S
C1083 C1084 1.383 . S
C1083 H1091 0.929 . S
C1084 C1083 1.383 . S
C1084 C1085 1.377 . S
C1085 H1069 0.930 . S
C1085 C1084 1.377 . S
C1085 C1086 1.379 . S
C1086 H1070 0.931 . S
C1086 C1080 1.383 . S
C1086 C1085 1.379 . S
H1087 C1081 0.959 . S
H1088 C1081 0.961 . S
H1089 C1081 0.960 . S
H1090 C1082 0.930 . S
H1091 C1083 0.929 . S
H1092 C1100 0.929 . S
H1093 C1102 0.930 . S
H1094 C1104 0.919 1_565 S
H1095 C1107 0.929 . S
H1096 C1110 0.930 . S
H1097 C1112 0.960 . S
H1098 C1112 0.960 . S
H1099 C1112 0.960 1_565 S
C1100 H1092 0.929 . S
C1100 C1101 1.377 1_545 S
C1100 C1102 1.384 . S
C1101 C1100 1.377 1_565 S
C1101 C1107 1.390 . S
C1102 H1093 0.930 . S
C1102 C1100 1.384 . S
C1102 C1103 1.372 . S
C1103 C1102 1.372 . S
C1103 C1104 1.452 . S
C1103 C1108 1.490 . S
C1104 H1094 0.919 1_545 S
C1104 C1103 1.452 . S
C1104 C1107 1.347 1_545 S
H1105 C1121 0.930 . S
H1106 C1122 0.931 . S
C1107 H1095 0.929 . S
C1107 C1101 1.390 . S
C1107 C1104 1.347 1_565 S
C1108 C1103 1.490 . S
C1108 C1110 1.395 . S
C1108 C1111 1.403 . S
H1109 C1115 0.930 . S
C1110 H1096 0.930 . S
C1110 C1108 1.395 . S
C1110 C1113 1.403 . S
C1111 C1108 1.403 . S
C1111 C1112 1.524 . S
C1111 C1115 1.400 . S
C1112 H1097 0.960 . S
C1112 H1098 0.960 . S
C1112 H1099 0.960 1_545 S
C1112 C1111 1.524 . S
C1113 C1110 1.403 . S
C1113 C1114 1.392 . S
C1113 C1117 1.495 . S
C1114 C1113 1.392 . S
C1114 C1115 1.385 . S
C1114 C1116 1.478 . S
C1115 H1109 0.930 . S
C1115 C1111 1.400 . S
C1115 C1114 1.385 . S
C1116 C1114 1.478 . S
C1116 C1118 1.381 . S
C1116 C1122 1.383 . S
C1117 C1113 1.495 . S
C1117 H1123 0.959 . S
C1117 H1124 0.961 . S
C1117 H1125 0.960 . S
C1118 C1116 1.381 . S
C1118 C1119 1.394 . S
C1118 H1126 0.930 . S
C1119 C1118 1.394 . S
C1119 C1120 1.383 . S
C1119 H1127 0.929 . S
C1120 C1119 1.383 . S
C1120 C1121 1.377 . S
C1121 H1105 0.930 . S
C1121 C1120 1.377 . S
C1121 C1122 1.379 . S
C1122 H1106 0.931 . S
C1122 C1116 1.383 . S
C1122 C1121 1.379 . S
H1123 C1117 0.959 . S
H1124 C1117 0.961 . S
H1125 C1117 0.960 . S
H1126 C1118 0.930 . S
H1127 C1119 0.929 . S
H1128 C1136 0.929 . S
H1129 C1138 0.930 . S
H1130 C1140 0.930 . S
H1131 C1143 0.929 . S
H1132 C1146 0.930 . S
H1133 C1148 0.960 . S
H1134 C1148 0.960 . S
H1135 C1148 0.960 . S
C1136 H1128 0.929 . S
C1136 C1137 1.377 . S
C1136 C1138 1.384 . S
C1137 C1136 1.377 . S
C1137 C1143 1.390 . S
C1138 H1129 0.930 . S
C1138 C1136 1.384 . S
C1138 C1139 1.372 . S
C1139 C1138 1.372 . S
C1139 C1140 1.400 . S
C1139 C1144 1.490 . S
C1140 H1130 0.930 . S
C1140 C1139 1.400 . S
C1140 C1143 1.386 . S
H1141 C1157 0.930 . S
H1142 C1158 0.931 . S
C1143 H1131 0.929 . S
C1143 C1137 1.390 . S
C1143 C1140 1.386 . S
C1144 C1139 1.490 . S
C1144 C1146 1.395 . S
C1144 C1147 1.403 . S
H1145 C1151 0.930 . S
C1146 H1132 0.930 . S
C1146 C1144 1.395 . S
C1146 C1149 1.403 . S
C1147 C1144 1.403 . S
C1147 C1148 1.524 . S
C1147 C1151 1.400 . S
C1148 H1133 0.960 . S
C1148 H1134 0.960 . S
C1148 H1135 0.960 . S
C1148 C1147 1.524 . S
C1149 C1146 1.403 . S
C1149 C1150 1.392 . S
C1149 C1153 1.495 . S
C1150 C1149 1.392 . S
C1150 C1151 1.385 . S
C1150 C1152 1.478 . S
C1151 H1145 0.930 . S
C1151 C1147 1.400 . S
C1151 C1150 1.385 . S
C1152 C1150 1.478 . S
C1152 C1154 1.381 . S
C1152 C1158 1.383 . S
C1153 C1149 1.495 . S
C1153 H1159 0.959 . S
C1153 H1160 0.961 . S
C1153 H1161 0.960 . S
C1154 C1152 1.381 . S
C1154 C1155 1.394 . S
C1154 H1162 0.930 . S
C1155 C1154 1.394 . S
C1155 C1156 1.383 . S
C1155 H1163 0.929 . S
C1156 C1155 1.383 . S
C1156 C1157 1.377 . S
C1157 H1141 0.930 . S
C1157 C1156 1.377 . S
C1157 C1158 1.379 . S
C1158 H1142 0.931 . S
C1158 C1152 1.383 . S
C1158 C1157 1.379 . S
H1159 C1153 0.959 . S
H1160 C1153 0.961 . S
H1161 C1153 0.960 . S
H1162 C1154 0.930 . S
H1163 C1155 0.929 . S
H1164 C1172 0.929 . S
H1165 C1174 0.930 . S
H1166 C1176 0.930 . S
H1167 C1179 0.929 . S
H1168 C1182 0.930 . S
H1169 C1184 0.960 . S
H1170 C1184 0.960 . S
H1171 C1184 0.960 . S
C1172 H1164 0.929 . S
C1172 C1173 1.377 . S
C1172 C1174 1.384 . S
C1173 C1172 1.377 . S
C1173 C1179 1.390 . S
C1174 H1165 0.930 . S
C1174 C1172 1.384 . S
C1174 C1175 1.372 . S
C1175 C1174 1.372 . S
C1175 C1176 1.400 . S
C1175 C1180 1.490 . S
C1176 H1166 0.930 . S
C1176 C1175 1.400 . S
C1176 C1179 1.386 . S
H1177 C1193 0.930 . S
H1178 C1194 0.931 . S
C1179 H1167 0.929 . S
C1179 C1173 1.390 . S
C1179 C1176 1.386 . S
C1180 C1175 1.490 . S
C1180 C1182 1.395 . S
C1180 C1183 1.403 . S
H1181 C1187 0.930 . S
C1182 H1168 0.930 . S
C1182 C1180 1.395 . S
C1182 C1185 1.403 . S
C1183 C1180 1.403 . S
C1183 C1184 1.524 . S
C1183 C1187 1.400 . S
C1184 H1169 0.960 . S
C1184 H1170 0.960 . S
C1184 H1171 0.960 . S
C1184 C1183 1.524 . S
C1185 C1182 1.403 . S
C1185 C1186 1.392 . S
C1185 C1189 1.495 . S
C1186 C1185 1.392 . S
C1186 C1187 1.385 . S
C1186 C1188 1.478 . S
C1187 H1181 0.930 . S
C1187 C1183 1.400 . S
C1187 C1186 1.385 . S
C1188 C1186 1.478 . S
C1188 C1190 1.381 . S
C1188 C1194 1.383 . S
C1189 C1185 1.495 . S
C1189 H1195 0.959 . S
C1189 H1196 0.961 . S
C1189 H1197 0.960 . S
C1190 C1188 1.381 . S
C1190 C1191 1.394 . S
C1190 H1198 0.930 . S
C1191 C1190 1.394 . S
C1191 C1192 1.383 . S
C1191 H1199 0.929 . S
C1192 C1191 1.383 . S
C1192 C1193 1.377 . S
C1193 H1177 0.930 . S
C1193 C1192 1.377 . S
C1193 C1194 1.379 . S
C1194 H1178 0.931 . S
C1194 C1188 1.383 . S
C1194 C1193 1.379 . S
H1195 C1189 0.959 . S
H1196 C1189 0.961 . S
H1197 C1189 0.960 . S
H1198 C1190 0.930 . S
H1199 C1191 0.929 . S
H1200 C1208 0.929 . S
H1201 C1210 0.930 . S
H1202 C1212 0.930 . S
H1203 C1215 0.929 . S
H1204 C1218 0.930 . S
H1205 C1220 0.960 . S
H1206 C1220 0.960 . S
H1207 C1220 0.960 . S
C1208 H1200 0.929 . S
C1208 C1209 1.377 . S
C1208 C1210 1.384 . S
C1209 C1208 1.377 . S
C1209 C1215 1.390 . S
C1210 H1201 0.930 . S
C1210 C1208 1.384 . S
C1210 C1211 1.372 . S
C1211 C1210 1.372 . S
C1211 C1212 1.400 . S
C1211 C1216 1.490 . S
C1212 H1202 0.930 . S
C1212 C1211 1.400 . S
C1212 C1215 1.386 . S
H1213 C1229 0.930 1_565 S
H1214 C1230 0.931 . S
C1215 H1203 0.929 . S
C1215 C1209 1.390 . S
C1215 C1212 1.386 . S
C1216 C1211 1.490 . S
C1216 C1218 1.395 . S
C1216 C1219 1.403 . S
H1217 C1223 0.930 1_565 S
C1218 H1204 0.930 . S
C1218 C1216 1.395 . S
C1218 C1221 1.403 . S
C1219 C1216 1.403 . S
C1219 C1220 1.524 1_545 S
C1219 C1223 1.400 . S
C1220 H1205 0.960 . S
C1220 H1206 0.960 . S
C1220 H1207 0.960 . S
C1220 C1219 1.524 1_565 S
C1221 C1218 1.403 . S
C1221 C1222 1.392 . S
C1221 C1225 1.495 . S
C1222 C1221 1.392 . S
C1222 C1223 1.385 . S
C1222 C1224 1.478 . S
C1223 H1217 0.930 1_545 S
C1223 C1219 1.400 . S
C1223 C1222 1.385 . S
C1224 C1222 1.478 . S
C1224 C1226 1.381 . S
C1224 C1230 1.383 . S
C1225 C1221 1.495 . S
C1225 H1231 0.959 . S
C1225 H1232 0.961 . S
C1225 H1233 0.960 . S
C1226 C1224 1.381 . S
C1226 C1227 1.394 . S
C1226 H1234 0.930 . S
C1227 C1226 1.394 . S
C1227 C1228 1.383 . S
C1227 H1235 0.929 . S
C1228 C1227 1.383 . S
C1228 C1229 1.377 . S
C1229 H1213 0.930 1_545 S
C1229 C1228 1.377 . S
C1229 C1230 1.379 . S
C1230 H1214 0.931 . S
C1230 C1224 1.383 . S
C1230 C1229 1.379 . S
H1231 C1225 0.959 . S
H1232 C1225 0.961 . S
H1233 C1225 0.960 . S
H1234 C1226 0.930 . S
H1235 C1227 0.929 . S
H1236 C1244 0.929 . S
H1237 C1246 0.930 . S
H1238 C1248 0.930 . S
H1239 C1251 0.929 . S
H1240 C1254 0.930 . S
H1241 C1256 0.960 . S
H1242 C1256 0.960 . S
H1243 C1256 0.960 . S
C1244 H1236 0.929 . S
C1244 C1245 1.377 . S
C1244 C1246 1.384 . S
C1245 C1244 1.377 . S
C1245 C1251 1.390 . S
C1246 H1237 0.930 . S
C1246 C1244 1.384 . S
C1246 C1247 1.372 . S
C1247 C1246 1.372 . S
C1247 C1248 1.400 . S
C1247 C1252 1.490 . S
C1248 H1238 0.930 . S
C1248 C1247 1.400 . S
C1248 C1251 1.386 . S
H1249 C1265 0.930 . S
H1250 C1266 0.931 . S
C1251 H1239 0.929 . S
C1251 C1245 1.390 . S
C1251 C1248 1.386 . S
C1252 C1247 1.490 . S
C1252 C1254 1.395 . S
C1252 C1255 1.403 . S
H1253 C1259 0.930 . S
C1254 H1240 0.930 . S
C1254 C1252 1.395 . S
C1254 C1257 1.403 . S
C1255 C1252 1.403 . S
C1255 C1256 1.524 . S
C1255 C1259 1.400 . S
C1256 H1241 0.960 . S
C1256 H1242 0.960 . S
C1256 H1243 0.960 . S
C1256 C1255 1.524 . S
C1257 C1254 1.403 . S
C1257 C1258 1.392 . S
C1257 C1261 1.495 . S
C1258 C1257 1.392 . S
C1258 C1259 1.385 . S
C1258 C1260 1.478 . S
C1259 H1253 0.930 . S
C1259 C1255 1.400 . S
C1259 C1258 1.385 . S
C1260 C1258 1.478 . S
C1260 C1262 1.381 . S
C1260 C1266 1.383 . S
C1261 C1257 1.495 . S
C1261 H1267 0.959 . S
C1261 H1268 0.961 . S
C1261 H1269 0.960 . S
C1262 C1260 1.381 . S
C1262 C1263 1.394 . S
C1262 H1270 0.930 . S
C1263 C1262 1.394 . S
C1263 C1264 1.383 . S
C1263 H1271 0.929 . S
C1264 C1263 1.383 . S
C1264 C1265 1.377 . S
C1265 H1249 0.930 . S
C1265 C1264 1.377 . S
C1265 C1266 1.379 . S
C1266 H1250 0.931 . S
C1266 C1260 1.383 . S
C1266 C1265 1.379 . S
H1267 C1261 0.959 . S
H1268 C1261 0.961 . S
H1269 C1261 0.960 . S
H1270 C1262 0.930 . S
H1271 C1263 0.929 . S
H1272 C1280 0.929 . S
H1273 C1282 0.930 . S
H1274 C1284 0.930 . S
H1275 C1287 0.929 . S
H1276 C1290 0.930 . S
H1277 C1292 0.960 . S
H1278 C1292 0.960 . S
H1279 C1292 0.960 . S
C1280 H1272 0.929 . S
C1280 C1281 1.377 . S
C1280 C1282 1.384 . S
C1281 C1280 1.377 . S
C1281 C1287 1.390 . S
C1282 H1273 0.930 . S
C1282 C1280 1.384 . S
C1282 C1283 1.372 . S
C1283 C1282 1.372 . S
C1283 C1284 1.400 . S
C1283 C1288 1.490 . S
C1284 H1274 0.930 . S
C1284 C1283 1.400 . S
C1284 C1287 1.386 . S
H1285 C1301 0.930 . S
H1286 C1302 0.931 . S
C1287 H1275 0.929 . S
C1287 C1281 1.390 . S
C1287 C1284 1.386 . S
C1288 C1283 1.490 . S
C1288 C1290 1.395 . S
C1288 C1291 1.403 . S
H1289 C1295 0.930 . S
C1290 H1276 0.930 . S
C1290 C1288 1.395 . S
C1290 C1293 1.403 . S
C1291 C1288 1.403 . S
C1291 C1292 1.524 . S
C1291 C1295 1.400 . S
C1292 H1277 0.960 . S
C1292 H1278 0.960 . S
C1292 H1279 0.960 . S
C1292 C1291 1.524 . S
C1293 C1290 1.403 . S
C1293 C1294 1.392 . S
C1293 C1297 1.495 . S
C1294 C1293 1.392 . S
C1294 C1295 1.385 . S
C1294 C1296 1.478 . S
C1295 H1289 0.930 . S
C1295 C1291 1.400 . S
C1295 C1294 1.385 . S
C1296 C1294 1.478 . S
C1296 C1298 1.381 . S
C1296 C1302 1.383 . S
C1297 C1293 1.495 . S
C1297 H1303 0.959 . S
C1297 H1304 0.961 . S
C1297 H1305 0.960 . S
C1298 C1296 1.381 . S
C1298 C1299 1.394 . S
C1298 H1306 0.930 . S
C1299 C1298 1.394 . S
C1299 C1300 1.383 . S
C1299 H1307 0.929 . S
C1300 C1299 1.383 . S
C1300 C1301 1.377 . S
C1301 H1285 0.930 . S
C1301 C1300 1.377 . S
C1301 C1302 1.379 . S
C1302 H1286 0.931 . S
C1302 C1296 1.383 . S
C1302 C1301 1.379 . S
H1303 C1297 0.959 . S
H1304 C1297 0.961 . S
H1305 C1297 0.960 . S
H1306 C1298 0.930 . S
H1307 C1299 0.929 . S
H1308 C1316 0.929 . S
H1309 C1318 0.930 . S
H1310 C1320 0.930 . S
H1311 C1323 0.929 . S
H1312 C1326 0.930 . S
H1313 C1328 0.960 . S
H1314 C1328 0.960 . S
H1315 C1328 0.960 . S
C1316 H1308 0.929 . S
C1316 C1317 1.377 . S
C1316 C1318 1.384 . S
C1317 C1316 1.377 . S
C1317 C1323 1.390 . S
C1318 H1309 0.930 . S
C1318 C1316 1.384 . S
C1318 C1319 1.372 . S
C1319 C1318 1.372 . S
C1319 C1320 1.400 . S
C1319 C1324 1.490 . S
C1320 H1310 0.930 . S
C1320 C1319 1.400 . S
C1320 C1323 1.386 . S
H1321 C1337 0.930 . S
H1322 C1338 0.931 . S
C1323 H1311 0.929 . S
C1323 C1317 1.390 . S
C1323 C1320 1.386 . S
C1324 C1319 1.490 . S
C1324 C1326 1.395 . S
C1324 C1327 1.403 . S
H1325 C1331 0.930 . S
C1326 H1312 0.930 . S
C1326 C1324 1.395 . S
C1326 C1329 1.403 . S
C1327 C1324 1.403 . S
C1327 C1328 1.524 . S
C1327 C1331 1.400 . S
C1328 H1313 0.960 . S
C1328 H1314 0.960 . S
C1328 H1315 0.960 . S
C1328 C1327 1.524 . S
C1329 C1326 1.403 . S
C1329 C1330 1.392 . S
C1329 C1333 1.495 . S
C1330 C1329 1.392 . S
C1330 C1331 1.385 . S
C1330 C1332 1.478 . S
C1331 H1325 0.930 . S
C1331 C1327 1.400 . S
C1331 C1330 1.385 . S
C1332 C1330 1.478 . S
C1332 C1334 1.381 . S
C1332 C1338 1.383 . S
C1333 C1329 1.495 . S
C1333 H1339 0.959 . S
C1333 H1340 0.961 . S
C1333 H1341 0.960 . S
C1334 C1332 1.381 . S
C1334 C1335 1.394 . S
C1334 H1342 0.930 . S
C1335 C1334 1.394 . S
C1335 C1336 1.383 . S
C1335 H1343 0.929 . S
C1336 C1335 1.383 . S
C1336 C1337 1.377 . S
C1337 H1321 0.930 . S
C1337 C1336 1.377 . S
C1337 C1338 1.379 . S
C1338 H1322 0.931 . S
C1338 C1332 1.383 . S
C1338 C1337 1.379 . S
H1339 C1333 0.959 . S
H1340 C1333 0.961 . S
H1341 C1333 0.960 . S
H1342 C1334 0.930 . S
H1343 C1335 0.929 . S
H1344 C1352 0.929 . S
H1345 C1354 0.930 . S
H1346 C1356 0.930 . S
H1347 C1359 0.929 . S
H1348 C1362 0.930 . S
H1349 C1364 0.927 1_565 S
H1350 C1364 0.960 1_455 S
H1351 C1364 0.953 1_565 S
C1352 H1344 0.929 . S
C1352 C1353 1.377 . S
C1352 C1354 1.384 1_455 S
C1353 C1352 1.377 . S
C1353 C1359 1.390 . S
C1354 H1345 0.930 . S
C1354 C1352 1.384 1_655 S
C1354 C1355 1.372 . S
C1355 C1354 1.372 . S
C1355 C1356 1.400 . S
C1355 C1360 1.490 . S
C1356 H1346 0.930 . S
C1356 C1355 1.400 . S
C1356 C1359 1.386 1_655 S
H1357 C1373 0.930 1_565 S
H1358 C1374 0.931 . S
C1359 H1347 0.929 . S
C1359 C1353 1.390 . S
C1359 C1356 1.386 1_455 S
C1360 C1355 1.490 . S
C1360 C1362 1.395 . S
C1360 C1363 1.403 . S
H1361 C1367 0.930 . S
C1362 H1348 0.930 . S
C1362 C1360 1.395 . S
C1362 C1365 1.403 . S
C1363 C1360 1.403 . S
C1363 C1364 1.524 . S
C1363 C1367 1.400 . S
C1364 H1349 0.927 1_545 S
C1364 H1350 0.960 1_655 S
C1364 H1351 0.953 1_545 S
C1364 C1363 1.524 . S
C1365 C1362 1.403 . S
C1365 C1366 1.392 . S
C1365 C1369 1.495 . S
C1366 C1365 1.392 . S
C1366 C1367 1.385 . S
C1366 C1368 1.478 . S
C1367 H1361 0.930 . S
C1367 C1363 1.400 . S
C1367 C1366 1.385 . S
C1368 C1366 1.478 . S
C1368 C1370 1.381 . S
C1368 C1374 1.383 . S
C1369 C1365 1.495 . S
C1369 H1375 0.959 . S
C1369 H1376 0.961 . S
C1369 H1377 0.960 . S
C1370 C1368 1.381 . S
C1370 C1371 1.394 . S
C1370 H1378 0.930 . S
C1371 C1370 1.394 . S
C1371 C1372 1.383 . S
C1371 H1379 0.929 . S
C1372 C1371 1.383 . S
C1372 C1373 1.377 . S
C1373 H1357 0.930 1_545 S
C1373 C1372 1.377 . S
C1373 C1374 1.379 . S
C1374 H1358 0.931 . S
C1374 C1368 1.383 . S
C1374 C1373 1.379 . S
H1375 C1369 0.959 . S
H1376 C1369 0.961 . S
H1377 C1369 0.960 . S
H1378 C1370 0.930 . S
H1379 C1371 0.929 . S
H1380 C1388 0.929 . S
H1381 C1390 0.930 . S
H1382 C1392 0.930 . S
H1383 C1395 0.929 . S
H1384 C1398 0.930 . S
H1385 C1400 0.960 . S
H1386 C1400 0.960 . S
H1387 C1400 0.960 . S
C1388 H1380 0.929 . S
C1388 C1389 1.377 . S
C1388 C1390 1.384 . S
C1389 C1388 1.377 . S
C1389 C1395 1.390 . S
C1390 H1381 0.930 . S
C1390 C1388 1.384 . S
C1390 C1391 1.372 . S
C1391 C1390 1.372 . S
C1391 C1392 1.400 . S
C1391 C1396 1.490 . S
C1392 H1382 0.930 . S
C1392 C1391 1.400 . S
C1392 C1395 1.386 . S
H1393 C1409 0.930 . S
H1394 C1410 0.931 . S
C1395 H1383 0.929 . S
C1395 C1389 1.390 . S
C1395 C1392 1.386 . S
C1396 C1391 1.490 . S
C1396 C1398 1.395 . S
C1396 C1399 1.403 . S
H1397 C1403 0.930 . S
C1398 H1384 0.930 . S
C1398 C1396 1.395 . S
C1398 C1401 1.403 . S
C1399 C1396 1.403 . S
C1399 C1400 1.524 . S
C1399 C1403 1.400 . S
C1400 H1385 0.960 . S
C1400 H1386 0.960 . S
C1400 H1387 0.960 . S
C1400 C1399 1.524 . S
C1401 C1398 1.403 . S
C1401 C1402 1.392 . S
C1401 C1405 1.495 . S
C1402 C1401 1.392 . S
C1402 C1403 1.385 . S
C1402 C1404 1.478 . S
C1403 H1397 0.930 . S
C1403 C1399 1.400 . S
C1403 C1402 1.385 . S
C1404 C1402 1.478 . S
C1404 C1406 1.381 . S
C1404 C1410 1.383 . S
C1405 C1401 1.495 . S
C1405 H1411 0.959 . S
C1405 H1412 0.961 . S
C1405 H1413 0.960 . S
C1406 C1404 1.381 . S
C1406 C1407 1.394 . S
C1406 H1414 0.930 . S
C1407 C1406 1.394 . S
C1407 C1408 1.383 . S
C1407 H1415 0.929 . S
C1408 C1407 1.383 . S
C1408 C1409 1.377 . S
C1409 H1393 0.930 . S
C1409 C1408 1.377 . S
C1409 C1410 1.379 . S
C1410 H1394 0.931 . S
C1410 C1404 1.383 . S
C1410 C1409 1.379 . S
H1411 C1405 0.959 . S
H1412 C1405 0.961 . S
H1413 C1405 0.960 . S
H1414 C1406 0.930 . S
H1415 C1407 0.929 . S
H1416 C1424 0.929 . S
H1417 C1426 0.930 . S
H1418 C1428 0.930 . S
H1419 C1431 0.929 . S
H1420 C1434 0.930 . S
H1421 C1436 0.960 . S
H1422 C1436 0.960 . S
H1423 C1436 0.960 . S
C1424 H1416 0.929 . S
C1424 C1425 1.377 . S
C1424 C1426 1.384 1_655 S
C1425 C1424 1.377 . S
C1425 C1431 1.390 1_655 S
C1426 H1417 0.930 . S
C1426 C1424 1.384 1_455 S
C1426 C1427 1.372 . S
C1427 C1426 1.372 . S
C1427 C1428 1.400 . S
C1427 C1432 1.490 . S
C1428 H1418 0.930 . S
C1428 C1427 1.400 . S
C1428 C1431 1.386 . S
H1429 C1445 0.930 . S
H1430 C1446 0.931 . S
C1431 H1419 0.929 . S
C1431 C1425 1.390 1_455 S
C1431 C1428 1.386 . S
C1432 C1427 1.490 . S
C1432 C1434 1.395 . S
C1432 C1435 1.403 . S
H1433 C1439 0.930 . S
C1434 H1420 0.930 . S
C1434 C1432 1.395 . S
C1434 C1437 1.403 . S
C1435 C1432 1.403 . S
C1435 C1436 1.524 . S
C1435 C1439 1.400 . S
C1436 H1421 0.960 . S
C1436 H1422 0.960 . S
C1436 H1423 0.960 . S
C1436 C1435 1.524 . S
C1437 C1434 1.403 . S
C1437 C1438 1.392 . S
C1437 C1441 1.495 . S
C1438 C1437 1.392 . S
C1438 C1439 1.385 . S
C1438 C1440 1.478 . S
C1439 H1433 0.930 . S
C1439 C1435 1.400 . S
C1439 C1438 1.385 . S
C1440 C1438 1.478 . S
C1440 C1442 1.381 . S
C1440 C1446 1.383 . S
C1441 C1437 1.495 . S
C1441 H1447 0.959 . S
C1441 H1448 0.961 . S
C1441 H1449 0.960 . S
C1442 C1440 1.381 . S
C1442 C1443 1.394 . S
C1442 H1450 0.930 . S
C1443 C1442 1.394 . S
C1443 C1444 1.383 . S
C1443 H1451 0.929 . S
C1444 C1443 1.383 . S
C1444 C1445 1.377 . S
C1445 H1429 0.930 . S
C1445 C1444 1.377 . S
C1445 C1446 1.379 . S
C1446 H1430 0.931 . S
C1446 C1440 1.383 . S
C1446 C1445 1.379 . S
H1447 C1441 0.959 . S
H1448 C1441 0.961 . S
H1449 C1441 0.960 . S
H1450 C1442 0.930 . S
H1451 C1443 0.929 . S
H1452 C1460 0.929 . S
H1453 C1462 0.930 . S
H1454 C1464 0.930 . S
H1455 C1467 0.929 . S
H1456 C1470 0.930 . S
H1457 C1472 0.960 . S
H1458 C1472 0.960 . S
H1459 C1472 0.960 . S
C1460 H1452 0.929 . S
C1460 C1461 1.377 . S
C1460 C1462 1.384 . S
C1461 C1460 1.377 . S
C1461 C1467 1.390 . S
C1462 H1453 0.930 . S
C1462 C1460 1.384 . S
C1462 C1463 1.372 . S
C1463 C1462 1.372 . S
C1463 C1464 1.400 . S
C1463 C1468 1.490 . S
C1464 H1454 0.930 . S
C1464 C1463 1.400 . S
C1464 C1467 1.386 . S
H1465 C1481 0.930 . S
H1466 C1482 0.931 . S
C1467 H1455 0.929 . S
C1467 C1461 1.390 . S
C1467 C1464 1.386 . S
C1468 C1463 1.490 . S
C1468 C1470 1.395 . S
C1468 C1471 1.403 . S
H1469 C1475 0.930 . S
C1470 H1456 0.930 . S
C1470 C1468 1.395 . S
C1470 C1473 1.403 . S
C1471 C1468 1.403 . S
C1471 C1472 1.524 . S
C1471 C1475 1.400 . S
C1472 H1457 0.960 . S
C1472 H1458 0.960 . S
C1472 H1459 0.960 . S
C1472 C1471 1.524 . S
C1473 C1470 1.403 . S
C1473 C1474 1.392 . S
C1473 C1477 1.495 . S
C1474 C1473 1.392 . S
C1474 C1475 1.385 . S
C1474 C1476 1.478 . S
C1475 H1469 0.930 . S
C1475 C1471 1.400 . S
C1475 C1474 1.385 . S
C1476 C1474 1.478 . S
C1476 C1478 1.381 . S
C1476 C1482 1.383 . S
C1477 C1473 1.495 . S
C1477 H1483 0.959 . S
C1477 H1484 0.961 . S
C1477 H1485 0.960 . S
C1478 C1476 1.381 . S
C1478 C1479 1.394 . S
C1478 H1486 0.930 . S
C1479 C1478 1.394 . S
C1479 C1480 1.383 . S
C1479 H1487 0.929 . S
C1480 C1479 1.383 . S
C1480 C1481 1.377 . S
C1481 H1465 0.930 . S
C1481 C1480 1.377 . S
C1481 C1482 1.379 . S
C1482 H1466 0.931 . S
C1482 C1476 1.383 . S
C1482 C1481 1.379 . S
H1483 C1477 0.959 . S
H1484 C1477 0.961 . S
H1485 C1477 0.960 . S
H1486 C1478 0.930 . S
H1487 C1479 0.929 . S
H1488 C1496 0.929 . S
H1489 C1498 0.930 . S
H1490 C1500 0.930 . S
H1491 C1503 0.929 . S
H1492 C1506 0.930 . S
H1493 C1508 0.960 . S
H1494 C1508 0.960 . S
H1495 C1508 0.960 . S
C1496 H1488 0.929 . S
C1496 C1497 1.377 . S
C1496 C1498 1.384 . S
C1497 C1496 1.377 . S
C1497 C1503 1.390 1_554 S
C1498 H1489 0.930 . S
C1498 C1496 1.384 . S
C1498 C1499 1.372 1_554 S
C1499 C1498 1.372 1_556 S
C1499 C1500 1.400 . S
C1499 C1504 1.490 . S
C1500 H1490 0.930 . S
C1500 C1499 1.400 . S
C1500 C1503 1.386 . S
H1501 C1517 0.930 . S
H1502 C1518 0.931 . S
C1503 H1491 0.929 . S
C1503 C1497 1.390 1_556 S
C1503 C1500 1.386 . S
C1504 C1499 1.490 . S
C1504 C1506 1.395 . S
C1504 C1507 1.403 . S
H1505 C1511 0.930 1_455 S
C1506 H1492 0.930 . S
C1506 C1504 1.395 . S
C1506 C1509 1.403 . S
C1507 C1504 1.403 . S
C1507 C1508 1.524 1_655 S
C1507 C1511 1.400 . S
C1508 H1493 0.960 . S
C1508 H1494 0.960 . S
C1508 H1495 0.960 . S
C1508 C1507 1.524 1_455 S
C1509 C1506 1.403 . S
C1509 C1510 1.392 . S
C1509 C1513 1.495 . S
C1510 C1509 1.392 . S
C1510 C1511 1.385 . S
C1510 C1512 1.478 . S
C1511 H1505 0.930 1_655 S
C1511 C1507 1.400 . S
C1511 C1510 1.385 . S
C1512 C1510 1.478 . S
C1512 C1514 1.381 . S
C1512 C1518 1.383 . S
C1513 C1509 1.495 . S
C1513 H1519 0.959 . S
C1513 H1520 0.961 . S
C1513 H1521 0.960 . S
C1514 C1512 1.381 . S
C1514 C1515 1.394 . S
C1514 H1522 0.930 . S
C1515 C1514 1.394 . S
C1515 C1516 1.383 . S
C1515 H1523 0.929 1_655 S
C1516 C1515 1.383 . S
C1516 C1517 1.377 . S
C1517 H1501 0.930 . S
C1517 C1516 1.377 . S
C1517 C1518 1.379 . S
C1518 H1502 0.931 . S
C1518 C1512 1.383 . S
C1518 C1517 1.379 . S
H1519 C1513 0.959 . S
H1520 C1513 0.961 . S
H1521 C1513 0.960 . S
H1522 C1514 0.930 . S
H1523 C1515 0.929 1_455 S
H1524 C1532 0.929 . S
H1525 C1534 0.930 . S
H1526 C1536 0.930 . S
H1527 C1539 0.929 . S
H1528 C1542 0.930 . S
H1529 C1544 0.960 . S
H1530 C1544 0.960 . S
H1531 C1544 0.960 . S
C1532 H1524 0.929 . S
C1532 C1533 1.377 . S
C1532 C1534 1.384 . S
C1533 C1532 1.377 . S
C1533 C1539 1.390 . S
C1534 H1525 0.930 . S
C1534 C1532 1.384 . S
C1534 C1535 1.372 . S
C1535 C1534 1.372 . S
C1535 C1536 1.400 . S
C1535 C1540 1.490 . S
C1536 H1526 0.930 . S
C1536 C1535 1.400 . S
C1536 C1539 1.386 . S
H1537 C1553 0.930 . S
H1538 C1554 0.931 . S
C1539 H1527 0.929 . S
C1539 C1533 1.390 . S
C1539 C1536 1.386 . S
C1540 C1535 1.490 . S
C1540 C1542 1.395 . S
C1540 C1543 1.403 . S
H1541 C1547 0.930 . S
C1542 H1528 0.930 . S
C1542 C1540 1.395 . S
C1542 C1545 1.403 . S
C1543 C1540 1.403 . S
C1543 C1544 1.524 . S
C1543 C1547 1.400 . S
C1544 H1529 0.960 . S
C1544 H1530 0.960 . S
C1544 H1531 0.960 . S
C1544 C1543 1.524 . S
C1545 C1542 1.403 . S
C1545 C1546 1.392 . S
C1545 C1549 1.495 . S
C1546 C1545 1.392 . S
C1546 C1547 1.385 . S
C1546 C1548 1.478 . S
C1547 H1541 0.930 . S
C1547 C1543 1.400 . S
C1547 C1546 1.385 . S
C1548 C1546 1.478 . S
C1548 C1550 1.381 . S
C1548 C1554 1.383 . S
C1549 C1545 1.495 . S
C1549 H1555 0.959 . S
C1549 H1556 0.961 . S
C1549 H1557 0.960 . S
C1550 C1548 1.381 . S
C1550 C1551 1.394 . S
C1550 H1558 0.930 . S
C1551 C1550 1.394 . S
C1551 C1552 1.383 . S
C1551 H1559 0.929 . S
C1552 C1551 1.383 . S
C1552 C1553 1.377 . S
C1553 H1537 0.930 . S
C1553 C1552 1.377 . S
C1553 C1554 1.379 . S
C1554 H1538 0.931 . S
C1554 C1548 1.383 . S
C1554 C1553 1.379 . S
H1555 C1549 0.959 . S
H1556 C1549 0.961 . S
H1557 C1549 0.960 . S
H1558 C1550 0.930 . S
H1559 C1551 0.929 . S
H1560 C1568 0.929 . S
H1561 C1570 0.930 1_655 S
H1562 C1572 0.930 . S
H1563 C1575 0.929 . S
H1564 C1578 0.930 . S
H1565 C1580 0.960 . S
H1566 C1580 0.960 . S
H1567 C1580 0.960 . S
C1568 H1560 0.929 . S
C1568 C1569 1.377 . S
C1568 C1570 1.384 1_554 S
C1569 C1568 1.377 . S
C1569 C1575 1.390 . S
C1570 H1561 0.930 1_455 S
C1570 C1568 1.384 1_556 S
C1570 C1571 1.372 . S
C1571 C1570 1.372 . S
C1571 C1572 1.400 . S
C1571 C1576 1.490 . S
C1572 H1562 0.930 . S
C1572 C1571 1.400 . S
C1572 C1575 1.386 1_556 S
H1573 C1589 0.930 . S
H1574 C1590 0.931 . S
C1575 H1563 0.929 . S
C1575 C1569 1.390 . S
C1575 C1572 1.386 1_554 S
C1576 C1571 1.490 . S
C1576 C1578 1.395 . S
C1576 C1579 1.403 . S
H1577 C1583 0.930 . S
C1578 H1564 0.930 . S
C1578 C1576 1.395 . S
C1578 C1581 1.403 . S
C1579 C1576 1.403 . S
C1579 C1580 1.524 . S
C1579 C1583 1.400 . S
C1580 H1565 0.960 . S
C1580 H1566 0.960 . S
C1580 H1567 0.960 . S
C1580 C1579 1.524 . S
C1581 C1578 1.403 . S
C1581 C1582 1.392 . S
C1581 C1585 1.495 1_455 S
C1582 C1581 1.392 . S
C1582 C1583 1.385 . S
C1582 C1584 1.478 . S
C1583 H1577 0.930 . S
C1583 C1579 1.400 . S
C1583 C1582 1.385 . S
C1584 C1582 1.478 . S
C1584 C1586 1.381 1_455 S
C1584 C1590 1.383 . S
C1585 C1581 1.495 1_655 S
C1585 H1591 0.959 . S
C1585 H1592 0.961 . S
C1585 H1593 0.960 . S
C1586 C1584 1.381 1_655 S
C1586 C1587 1.394 . S
C1586 H1594 0.930 . S
C1587 C1586 1.394 . S
C1587 C1588 1.383 1_655 S
C1587 H1595 0.929 . S
C1588 C1587 1.383 1_455 S
C1588 C1589 1.377 . S
C1589 H1573 0.930 . S
C1589 C1588 1.377 . S
C1589 C1590 1.379 . S
C1590 H1574 0.931 . S
C1590 C1584 1.383 . S
C1590 C1589 1.379 . S
H1591 C1585 0.959 . S
H1592 C1585 0.961 . S
H1593 C1585 0.960 . S
H1594 C1586 0.930 . S
H1595 C1587 0.929 . S
H1596 C1604 0.929 . S
H1597 C1606 0.930 . S
H1598 C1608 0.930 . S
H1599 C1611 0.929 . S
H1600 C1614 0.930 . S
H1601 C1616 0.960 . S
H1602 C1616 0.960 . S
H1603 C1616 0.960 . S
C1604 H1596 0.929 . S
C1604 C1605 1.377 . S
C1604 C1606 1.384 . S
C1605 C1604 1.377 . S
C1605 C1611 1.390 . S
C1606 H1597 0.930 . S
C1606 C1604 1.384 . S
C1606 C1607 1.372 . S
C1607 C1606 1.372 . S
C1607 C1608 1.400 . S
C1607 C1612 1.490 . S
C1608 H1598 0.930 . S
C1608 C1607 1.400 . S
C1608 C1611 1.386 . S
H1609 C1625 0.930 . S
H1610 C1626 0.931 . S
C1611 H1599 0.929 . S
C1611 C1605 1.390 . S
C1611 C1608 1.386 . S
C1612 C1607 1.490 . S
C1612 C1614 1.395 . S
C1612 C1615 1.403 . S
H1613 C1619 0.930 . S
C1614 H1600 0.930 . S
C1614 C1612 1.395 . S
C1614 C1617 1.403 . S
C1615 C1612 1.403 . S
C1615 C1616 1.524 . S
C1615 C1619 1.400 . S
C1616 H1601 0.960 . S
C1616 H1602 0.960 . S
C1616 H1603 0.960 . S
C1616 C1615 1.524 . S
C1617 C1614 1.403 . S
C1617 C1618 1.392 . S
C1617 C1621 1.495 . S
C1618 C1617 1.392 . S
C1618 C1619 1.385 . S
C1618 C1620 1.478 . S
C1619 H1613 0.930 . S
C1619 C1615 1.400 . S
C1619 C1618 1.385 . S
C1620 C1618 1.478 . S
C1620 C1622 1.381 . S
C1620 C1626 1.383 . S
C1621 C1617 1.495 . S
C1621 H1627 0.959 . S
C1621 H1628 0.961 . S
C1621 H1629 0.960 . S
C1622 C1620 1.381 . S
C1622 C1623 1.394 . S
C1622 H1630 0.930 . S
C1623 C1622 1.394 . S
C1623 C1624 1.383 . S
C1623 H1631 0.929 . S
C1624 C1623 1.383 . S
C1624 C1625 1.377 . S
C1625 H1609 0.930 . S
C1625 C1624 1.377 . S
C1625 C1626 1.379 . S
C1626 H1610 0.931 . S
C1626 C1620 1.383 . S
C1626 C1625 1.379 . S
H1627 C1621 0.959 . S
H1628 C1621 0.961 . S
H1629 C1621 0.960 . S
H1630 C1622 0.930 . S
H1631 C1623 0.929 . S
H1632 C1640 0.929 . S
H1633 C1642 0.930 . S
H1634 C1644 0.930 . S
H1635 C1647 0.929 . S
H1636 C1650 0.930 . S
H1637 C1652 0.960 . S
H1638 C1652 0.960 . S
H1639 C1652 0.960 . S
C1640 H1632 0.929 . S
C1640 C1641 1.377 1_554 S
C1640 C1642 1.384 . S
C1641 C1640 1.377 1_556 S
C1641 C1647 1.390 . S
C1642 H1633 0.930 . S
C1642 C1640 1.384 . S
C1642 C1643 1.372 . S
C1643 C1642 1.372 . S
C1643 C1644 1.400 1_554 S
C1643 C1648 1.490 . S
C1644 H1634 0.930 . S
C1644 C1643 1.400 1_556 S
C1644 C1647 1.386 . S
H1645 C1661 0.930 . S
H1646 C1662 0.931 . S
C1647 H1635 0.929 . S
C1647 C1641 1.390 . S
C1647 C1644 1.386 . S
C1648 C1643 1.490 . S
C1648 C1650 1.395 . S
C1648 C1651 1.403 . S
H1649 C1655 0.930 . S
C1650 H1636 0.930 . S
C1650 C1648 1.395 . S
C1650 C1653 1.403 . S
C1651 C1648 1.403 . S
C1651 C1652 1.524 1_554 S
C1651 C1655 1.400 . S
C1652 H1637 0.960 . S
C1652 H1638 0.960 . S
C1652 H1639 0.960 . S
C1652 C1651 1.524 1_556 S
C1653 C1650 1.403 . S
C1653 C1654 1.392 . S
C1653 C1657 1.495 . S
C1654 C1653 1.392 . S
C1654 C1655 1.385 . S
C1654 C1656 1.478 . S
C1655 H1649 0.930 . S
C1655 C1651 1.400 . S
C1655 C1654 1.385 . S
C1656 C1654 1.478 . S
C1656 C1658 1.381 . S
C1656 C1662 1.383 . S
C1657 C1653 1.495 . S
C1657 H1663 0.959 . S
C1657 H1664 0.961 . S
C1657 H1665 0.960 . S
C1658 C1656 1.381 . S
C1658 C1659 1.394 . S
C1658 H1666 0.930 . S
C1659 C1658 1.394 . S
C1659 C1660 1.383 . S
C1659 H1667 0.929 . S
C1660 C1659 1.383 . S
C1660 C1661 1.377 . S
C1661 H1645 0.930 . S
C1661 C1660 1.377 . S
C1661 C1662 1.379 . S
C1662 H1646 0.931 . S
C1662 C1656 1.383 . S
C1662 C1661 1.379 . S
H1663 C1657 0.959 . S
H1664 C1657 0.961 . S
H1665 C1657 0.960 . S
H1666 C1658 0.930 . S
H1667 C1659 0.929 . S
H1668 C1676 0.929 . S
H1669 C1678 0.930 . S
H1670 C1680 0.930 . S
H1671 C1683 0.929 . S
H1672 C1686 0.930 . S
H1673 C1688 0.960 . S
H1674 C1688 0.960 . S
H1675 C1688 0.960 . S
C1676 H1668 0.929 . S
C1676 C1677 1.377 . S
C1676 C1678 1.384 . S
C1677 C1676 1.377 . S
C1677 C1683 1.390 . S
C1678 H1669 0.930 . S
C1678 C1676 1.384 . S
C1678 C1679 1.372 . S
C1679 C1678 1.372 . S
C1679 C1680 1.400 . S
C1679 C1684 1.490 . S
C1680 H1670 0.930 . S
C1680 C1679 1.400 . S
C1680 C1683 1.386 . S
H1681 C1697 0.930 . S
H1682 C1698 0.931 . S
C1683 H1671 0.929 . S
C1683 C1677 1.390 . S
C1683 C1680 1.386 . S
C1684 C1679 1.490 . S
C1684 C1686 1.395 . S
C1684 C1687 1.403 . S
H1685 C1691 0.930 . S
C1686 H1672 0.930 . S
C1686 C1684 1.395 . S
C1686 C1689 1.403 . S
C1687 C1684 1.403 . S
C1687 C1688 1.524 . S
C1687 C1691 1.400 . S
C1688 H1673 0.960 . S
C1688 H1674 0.960 . S
C1688 H1675 0.960 . S
C1688 C1687 1.524 . S
C1689 C1686 1.403 . S
C1689 C1690 1.392 . S
C1689 C1693 1.495 . S
C1690 C1689 1.392 . S
C1690 C1691 1.385 . S
C1690 C1692 1.478 . S
C1691 H1685 0.930 . S
C1691 C1687 1.400 . S
C1691 C1690 1.385 . S
C1692 C1690 1.478 . S
C1692 C1694 1.381 . S
C1692 C1698 1.383 . S
C1693 C1689 1.495 . S
C1693 H1699 0.959 . S
C1693 H1700 0.961 . S
C1693 H1701 0.960 . S
C1694 C1692 1.381 . S
C1694 C1695 1.394 . S
C1694 H1702 0.930 . S
C1695 C1694 1.394 . S
C1695 C1696 1.383 . S
C1695 H1703 0.929 . S
C1696 C1695 1.383 . S
C1696 C1697 1.377 . S
C1697 H1681 0.930 . S
C1697 C1696 1.377 . S
C1697 C1698 1.379 . S
C1698 H1682 0.931 . S
C1698 C1692 1.383 . S
C1698 C1697 1.379 . S
H1699 C1693 0.959 . S
H1700 C1693 0.961 . S
H1701 C1693 0.960 . S
H1702 C1694 0.930 . S
H1703 C1695 0.929 . S
H1704 C1712 0.929 . S
H1705 C1714 0.930 . S
H1706 C1716 0.930 . S
H1707 C1719 0.929 . S
H1708 C1722 0.930 . S
H1709 C1724 0.960 . S
H1710 C1724 0.960 . S
H1711 C1724 0.960 . S
C1712 H1704 0.929 . S
C1712 C1713 1.377 . S
C1712 C1714 1.384 . S
C1713 C1712 1.377 . S
C1713 C1719 1.390 1_556 S
C1714 H1705 0.930 . S
C1714 C1712 1.384 . S
C1714 C1715 1.372 1_556 S
C1715 C1714 1.372 1_554 S
C1715 C1716 1.400 . S
C1715 C1720 1.490 . S
C1716 H1706 0.930 . S
C1716 C1715 1.400 . S
C1716 C1719 1.386 . S
H1717 C1733 0.930 . S
H1718 C1734 0.931 . S
C1719 H1707 0.929 . S
C1719 C1713 1.390 1_554 S
C1719 C1716 1.386 . S
C1720 C1715 1.490 . S
C1720 C1722 1.395 . S
C1720 C1723 1.403 . S
H1721 C1727 0.930 . S
C1722 H1708 0.930 . S
C1722 C1720 1.395 . S
C1722 C1725 1.403 . S
C1723 C1720 1.403 . S
C1723 C1724 1.524 . S
C1723 C1727 1.400 . S
C1724 H1709 0.960 . S
C1724 H1710 0.960 . S
C1724 H1711 0.960 . S
C1724 C1723 1.524 . S
C1725 C1722 1.403 . S
C1725 C1726 1.392 . S
C1725 C1729 1.495 . S
C1726 C1725 1.392 . S
C1726 C1727 1.385 . S
C1726 C1728 1.478 . S
C1727 H1721 0.930 . S
C1727 C1723 1.400 . S
C1727 C1726 1.385 . S
C1728 C1726 1.478 . S
C1728 C1730 1.381 . S
C1728 C1734 1.383 . S
C1729 C1725 1.495 . S
C1729 H1735 0.959 . S
C1729 H1736 0.961 . S
C1729 H1737 0.960 . S
C1730 C1728 1.381 . S
C1730 C1731 1.394 . S
C1730 H1738 0.930 . S
C1731 C1730 1.394 . S
C1731 C1732 1.383 . S
C1731 H1739 0.929 . S
C1732 C1731 1.383 . S
C1732 C1733 1.377 . S
C1733 H1717 0.930 . S
C1733 C1732 1.377 . S
C1733 C1734 1.379 . S
C1734 H1718 0.931 . S
C1734 C1728 1.383 . S
C1734 C1733 1.379 . S
H1735 C1729 0.959 . S
H1736 C1729 0.961 . S
H1737 C1729 0.960 . S
H1738 C1730 0.930 . S
H1739 C1731 0.929 . S
H1740 C1748 0.929 . S
H1741 C1750 0.930 . S
H1742 C1752 0.930 . S
H1743 C1755 0.929 . S
H1744 C1758 0.930 . S
H1745 C1760 0.960 . S
H1746 C1760 0.960 . S
H1747 C1760 0.960 . S
C1748 H1740 0.929 . S
C1748 C1749 1.377 . S
C1748 C1750 1.384 . S
C1749 C1748 1.377 . S
C1749 C1755 1.390 . S
C1750 H1741 0.930 . S
C1750 C1748 1.384 . S
C1750 C1751 1.372 . S
C1751 C1750 1.372 . S
C1751 C1752 1.400 . S
C1751 C1756 1.490 . S
C1752 H1742 0.930 . S
C1752 C1751 1.400 . S
C1752 C1755 1.386 . S
H1753 C1769 0.930 . S
H1754 C1770 0.931 . S
C1755 H1743 0.929 . S
C1755 C1749 1.390 . S
C1755 C1752 1.386 . S
C1756 C1751 1.490 . S
C1756 C1758 1.395 . S
C1756 C1759 1.403 . S
H1757 C1763 0.930 . S
C1758 H1744 0.930 . S
C1758 C1756 1.395 . S
C1758 C1761 1.403 . S
C1759 C1756 1.403 . S
C1759 C1760 1.524 . S
C1759 C1763 1.400 . S
C1760 H1745 0.960 . S
C1760 H1746 0.960 . S
C1760 H1747 0.960 . S
C1760 C1759 1.524 . S
C1761 C1758 1.403 . S
C1761 C1762 1.392 . S
C1761 C1765 1.495 . S
C1762 C1761 1.392 . S
C1762 C1763 1.385 . S
C1762 C1764 1.478 . S
C1763 H1757 0.930 . S
C1763 C1759 1.400 . S
C1763 C1762 1.385 . S
C1764 C1762 1.478 . S
C1764 C1766 1.381 . S
C1764 C1770 1.383 . S
C1765 C1761 1.495 . S
C1765 H1771 0.959 . S
C1765 H1772 0.961 . S
C1765 H1773 0.960 . S
C1766 C1764 1.381 . S
C1766 C1767 1.394 . S
C1766 H1774 0.930 . S
C1767 C1766 1.394 . S
C1767 C1768 1.383 . S
C1767 H1775 0.929 . S
C1768 C1767 1.383 . S
C1768 C1769 1.377 . S
C1769 H1753 0.930 . S
C1769 C1768 1.377 . S
C1769 C1770 1.379 . S
C1770 H1754 0.931 . S
C1770 C1764 1.383 . S
C1770 C1769 1.379 . S
H1771 C1765 0.959 . S
H1772 C1765 0.961 . S
H1773 C1765 0.960 . S
H1774 C1766 0.930 . S
H1775 C1767 0.929 . S
H1776 C1784 0.929 . S
H1777 C1786 0.930 . S
H1778 C1788 0.930 . S
H1779 C1791 0.929 . S
H1780 C1794 0.930 . S
H1781 C1796 0.960 . S
H1782 C1796 0.960 . S
H1783 C1796 0.960 . S
C1784 H1776 0.929 . S
C1784 C1785 1.377 . S
C1784 C1786 1.384 . S
C1785 C1784 1.377 . S
C1785 C1791 1.390 . S
C1786 H1777 0.930 . S
C1786 C1784 1.384 . S
C1786 C1787 1.372 . S
C1787 C1786 1.372 . S
C1787 C1788 1.400 . S
C1787 C1792 1.490 . S
C1788 H1778 0.930 . S
C1788 C1787 1.400 . S
C1788 C1791 1.386 . S
H1789 C1805 0.930 . S
H1790 C1806 0.931 . S
C1791 H1779 0.929 . S
C1791 C1785 1.390 . S
C1791 C1788 1.386 . S
C1792 C1787 1.490 . S
C1792 C1794 1.395 . S
C1792 C1795 1.403 . S
H1793 C1799 0.930 . S
C1794 H1780 0.930 . S
C1794 C1792 1.395 . S
C1794 C1797 1.403 . S
C1795 C1792 1.403 . S
C1795 C1796 1.524 . S
C1795 C1799 1.400 . S
C1796 H1781 0.960 . S
C1796 H1782 0.960 . S
C1796 H1783 0.960 . S
C1796 C1795 1.524 . S
C1797 C1794 1.403 . S
C1797 C1798 1.392 . S
C1797 C1801 1.495 . S
C1798 C1797 1.392 . S
C1798 C1799 1.385 . S
C1798 C1800 1.478 . S
C1799 H1793 0.930 . S
C1799 C1795 1.400 . S
C1799 C1798 1.385 . S
C1800 C1798 1.478 . S
C1800 C1802 1.381 . S
C1800 C1806 1.383 . S
C1801 C1797 1.495 . S
C1801 H1807 0.959 . S
C1801 H1808 0.961 . S
C1801 H1809 0.960 . S
C1802 C1800 1.381 . S
C1802 C1803 1.394 . S
C1802 H1810 0.930 . S
C1803 C1802 1.394 . S
C1803 C1804 1.383 . S
C1803 H1811 0.929 . S
C1804 C1803 1.383 . S
C1804 C1805 1.377 . S
C1805 H1789 0.930 . S
C1805 C1804 1.377 . S
C1805 C1806 1.379 . S
C1806 H1790 0.931 . S
C1806 C1800 1.383 . S
C1806 C1805 1.379 . S
H1807 C1801 0.959 . S
H1808 C1801 0.961 . S
H1809 C1801 0.960 . S
H1810 C1802 0.930 . S
H1811 C1803 0.929 . S
H1812 C1820 0.929 . S
H1813 C1822 0.930 . S
H1814 C1824 0.930 . S
H1815 C1827 0.929 . S
H1816 C1830 0.930 . S
H1817 C1832 0.960 . S
H1818 C1832 0.960 . S
H1819 C1832 0.960 . S
C1820 H1812 0.929 . S
C1820 C1821 1.377 . S
C1820 C1822 1.384 . S
C1821 C1820 1.377 . S
C1821 C1827 1.390 . S
C1822 H1813 0.930 . S
C1822 C1820 1.384 . S
C1822 C1823 1.372 . S
C1823 C1822 1.372 . S
C1823 C1824 1.400 . S
C1823 C1828 1.490 . S
C1824 H1814 0.930 . S
C1824 C1823 1.400 . S
C1824 C1827 1.386 . S
H1825 C1841 0.930 . S
H1826 C1842 0.931 . S
C1827 H1815 0.929 . S
C1827 C1821 1.390 . S
C1827 C1824 1.386 . S
C1828 C1823 1.490 . S
C1828 C1830 1.395 . S
C1828 C1831 1.403 . S
H1829 C1835 0.930 . S
C1830 H1816 0.930 . S
C1830 C1828 1.395 . S
C1830 C1833 1.403 . S
C1831 C1828 1.403 . S
C1831 C1832 1.524 . S
C1831 C1835 1.400 . S
C1832 H1817 0.960 . S
C1832 H1818 0.960 . S
C1832 H1819 0.960 . S
C1832 C1831 1.524 . S
C1833 C1830 1.403 . S
C1833 C1834 1.392 . S
C1833 C1837 1.495 . S
C1834 C1833 1.392 . S
C1834 C1835 1.385 . S
C1834 C1836 1.478 . S
C1835 H1829 0.930 . S
C1835 C1831 1.400 . S
C1835 C1834 1.385 . S
C1836 C1834 1.478 . S
C1836 C1838 1.381 . S
C1836 C1842 1.383 . S
C1837 C1833 1.495 . S
C1837 H1843 0.959 . S
C1837 H1844 0.961 . S
C1837 H1845 0.960 . S
C1838 C1836 1.381 . S
C1838 C1839 1.394 . S
C1838 H1846 0.930 . S
C1839 C1838 1.394 . S
C1839 C1840 1.383 . S
C1839 H1847 0.929 . S
C1840 C1839 1.383 . S
C1840 C1841 1.377 . S
C1841 H1825 0.930 . S
C1841 C1840 1.377 . S
C1841 C1842 1.379 . S
C1842 H1826 0.931 . S
C1842 C1836 1.383 . S
C1842 C1841 1.379 . S
H1843 C1837 0.959 . S
H1844 C1837 0.961 . S
H1845 C1837 0.960 . S
H1846 C1838 0.930 . S
H1847 C1839 0.929 . S
H1848 C1856 0.929 . S
H1849 C1858 0.930 . S
H1850 C1860 0.930 . S
H1851 C1863 0.929 . S
H1852 C1866 0.930 . S
H1853 C1868 0.960 . S
H1854 C1868 0.960 . S
H1855 C1868 0.960 . S
C1856 H1848 0.929 . S
C1856 C1857 1.377 . S
C1856 C1858 1.384 . S
C1857 C1856 1.377 . S
C1857 C1863 1.390 . S
C1858 H1849 0.930 . S
C1858 C1856 1.384 . S
C1858 C1859 1.372 . S
C1859 C1858 1.372 . S
C1859 C1860 1.400 . S
C1859 C1864 1.490 . S
C1860 H1850 0.930 . S
C1860 C1859 1.400 . S
C1860 C1863 1.386 . S
H1861 C1877 0.930 . S
H1862 C1878 0.931 . S
C1863 H1851 0.929 . S
C1863 C1857 1.390 . S
C1863 C1860 1.386 . S
C1864 C1859 1.490 . S
C1864 C1866 1.395 . S
C1864 C1867 1.403 . S
H1865 C1871 0.930 . S
C1866 H1852 0.930 . S
C1866 C1864 1.395 . S
C1866 C1869 1.403 . S
C1867 C1864 1.403 . S
C1867 C1868 1.524 . S
C1867 C1871 1.400 . S
C1868 H1853 0.960 . S
C1868 H1854 0.960 . S
C1868 H1855 0.960 . S
C1868 C1867 1.524 . S
C1869 C1866 1.403 . S
C1869 C1870 1.392 . S
C1869 C1873 1.495 . S
C1870 C1869 1.392 . S
C1870 C1871 1.385 . S
C1870 C1872 1.478 . S
C1871 H1865 0.930 . S
C1871 C1867 1.400 . S
C1871 C1870 1.385 . S
C1872 C1870 1.478 . S
C1872 C1874 1.381 . S
C1872 C1878 1.383 . S
C1873 C1869 1.495 . S
C1873 H1879 0.959 . S
C1873 H1880 0.961 . S
C1873 H1881 0.960 . S
C1874 C1872 1.381 . S
C1874 C1875 1.394 . S
C1874 H1882 0.930 . S
C1875 C1874 1.394 . S
C1875 C1876 1.383 . S
C1875 H1883 0.929 . S
C1876 C1875 1.383 . S
C1876 C1877 1.377 . S
C1877 H1861 0.930 . S
C1877 C1876 1.377 . S
C1877 C1878 1.379 . S
C1878 H1862 0.931 . S
C1878 C1872 1.383 . S
C1878 C1877 1.379 . S
H1879 C1873 0.959 . S
H1880 C1873 0.961 . S
H1881 C1873 0.960 . S
H1882 C1874 0.930 . S
H1883 C1875 0.929 . S
H1884 C1892 0.929 . S
H1885 C1894 0.930 . S
H1886 C1896 0.930 . S
H1887 C1899 0.929 . S
H1888 C1902 0.930 . S
H1889 C1904 0.960 . S
H1890 C1904 0.960 . S
H1891 C1904 0.960 . S
C1892 H1884 0.929 . S
C1892 C1893 1.377 . S
C1892 C1894 1.384 . S
C1893 C1892 1.377 . S
C1893 C1899 1.390 . S
C1894 H1885 0.930 . S
C1894 C1892 1.384 . S
C1894 C1895 1.372 . S
C1895 C1894 1.372 . S
C1895 C1896 1.400 . S
C1895 C1900 1.490 . S
C1896 H1886 0.930 . S
C1896 C1895 1.400 . S
C1896 C1899 1.386 . S
H1897 C1913 0.930 . S
H1898 C1914 0.914 1_554 S
C1899 H1887 0.929 . S
C1899 C1893 1.390 . S
C1899 C1896 1.386 . S
C1900 C1895 1.490 . S
C1900 C1902 1.395 . S
C1900 C1903 1.403 . S
H1901 C1907 0.930 . S
C1902 H1888 0.930 . S
C1902 C1900 1.395 . S
C1902 C1905 1.403 . S
C1903 C1900 1.403 . S
C1903 C1904 1.524 . S
C1903 C1907 1.400 . S
C1904 H1889 0.960 . S
C1904 H1890 0.960 . S
C1904 H1891 0.960 . S
C1904 C1903 1.524 . S
C1905 C1902 1.403 . S
C1905 C1906 1.392 . S
C1905 C1909 1.495 1_556 S
C1906 C1905 1.392 . S
C1906 C1907 1.385 . S
C1906 C1908 1.478 . S
C1907 H1901 0.930 . S
C1907 C1903 1.400 . S
C1907 C1906 1.385 . S
C1908 C1906 1.478 . S
C1908 C1910 1.381 . S
C1908 C1914 1.405 . S
C1909 C1905 1.495 1_554 S
C1909 H1915 0.959 . S
C1909 H1916 0.961 . S
C1909 H1917 0.960 1_554 S
C1910 C1908 1.381 . S
C1910 C1911 1.394 . S
C1910 H1918 0.930 . S
C1911 C1910 1.394 . S
C1911 C1912 1.383 . S
C1911 H1919 0.929 . S
C1912 C1911 1.383 . S
C1912 C1913 1.377 1_556 S
C1913 H1897 0.930 . S
C1913 C1912 1.377 1_554 S
C1913 C1914 1.376 1_554 S
C1914 H1898 0.914 1_556 S
C1914 C1908 1.405 . S
C1914 C1913 1.376 1_556 S
H1915 C1909 0.959 . S
H1916 C1909 0.961 . S
H1917 C1909 0.960 1_556 S
H1918 C1910 0.930 . S
H1919 C1911 0.929 . S
H1920 C1928 0.929 . S
H1921 C1930 0.930 . S
H1922 C1932 0.930 . S
H1923 C1935 0.929 . S
H1924 C1938 0.930 . S
H1925 C1940 0.960 . S
H1926 C1940 0.960 . S
H1927 C1940 0.960 . S
C1928 H1920 0.929 . S
C1928 C1929 1.377 . S
C1928 C1930 1.384 . S
C1929 C1928 1.377 . S
C1929 C1935 1.390 . S
C1930 H1921 0.930 . S
C1930 C1928 1.384 . S
C1930 C1931 1.372 . S
C1931 C1930 1.372 . S
C1931 C1932 1.400 . S
C1931 C1936 1.490 . S
C1932 H1922 0.930 . S
C1932 C1931 1.400 . S
C1932 C1935 1.386 . S
H1933 C1949 0.930 . S
H1934 C1950 0.931 . S
C1935 H1923 0.929 . S
C1935 C1929 1.390 . S
C1935 C1932 1.386 . S
C1936 C1931 1.490 . S
C1936 C1938 1.395 . S
C1936 C1939 1.403 . S
H1937 C1943 0.930 . S
C1938 H1924 0.930 . S
C1938 C1936 1.395 . S
C1938 C1941 1.403 . S
C1939 C1936 1.403 . S
C1939 C1940 1.524 . S
C1939 C1943 1.400 . S
C1940 H1925 0.960 . S
C1940 H1926 0.960 . S
C1940 H1927 0.960 . S
C1940 C1939 1.524 . S
C1941 C1938 1.403 . S
C1941 C1942 1.392 . S
C1941 C1945 1.495 . S
C1942 C1941 1.392 . S
C1942 C1943 1.385 . S
C1942 C1944 1.478 . S
C1943 H1937 0.930 . S
C1943 C1939 1.400 . S
C1943 C1942 1.385 . S
C1944 C1942 1.478 . S
C1944 C1946 1.381 . S
C1944 C1950 1.383 . S
C1945 C1941 1.495 . S
C1945 H1951 0.959 . S
C1945 H1952 0.961 . S
C1945 H1953 0.960 . S
C1946 C1944 1.381 . S
C1946 C1947 1.394 . S
C1946 H1954 0.930 . S
C1947 C1946 1.394 . S
C1947 C1948 1.383 . S
C1947 H1955 0.929 . S
C1948 C1947 1.383 . S
C1948 C1949 1.377 . S
C1949 H1933 0.930 . S
C1949 C1948 1.377 . S
C1949 C1950 1.379 . S
C1950 H1934 0.931 . S
C1950 C1944 1.383 . S
C1950 C1949 1.379 . S
H1951 C1945 0.959 . S
H1952 C1945 0.961 . S
H1953 C1945 0.960 . S
H1954 C1946 0.930 . S
H1955 C1947 0.929 . S
H1956 C1964 0.920 1_556 S
H1957 C1966 0.930 1_556 S
H1958 C1968 0.930 . S
H1959 C1971 0.929 . S
H1960 C1974 0.930 . S
H1961 C1976 0.960 . S
H1962 C1976 0.960 . S
H1963 C1976 0.960 . S
C1964 H1956 0.920 1_554 S
C1964 C1965 1.377 . S
C1964 C1966 1.384 . S
C1965 C1964 1.377 . S
C1965 C1971 1.390 . S
C1966 H1957 0.930 1_554 S
C1966 C1964 1.384 . S
C1966 C1967 1.372 . S
C1967 C1966 1.372 . S
C1967 C1968 1.400 . S
C1967 C1972 1.490 . S
C1968 H1958 0.930 . S
C1968 C1967 1.400 . S
C1968 C1971 1.386 . S
H1969 C1985 0.930 . S
H1970 C1986 0.931 . S
C1971 H1959 0.929 . S
C1971 C1965 1.390 . S
C1971 C1968 1.386 . S
C1972 C1967 1.490 . S
C1972 C1974 1.395 . S
C1972 C1975 1.403 . S
H1973 C1979 0.930 . S
C1974 H1960 0.930 . S
C1974 C1972 1.395 . S
C1974 C1977 1.403 . S
C1975 C1972 1.403 . S
C1975 C1976 1.524 . S
C1975 C1979 1.400 . S
C1976 H1961 0.960 . S
C1976 H1962 0.960 . S
C1976 H1963 0.960 . S
C1976 C1975 1.524 . S
C1977 C1974 1.403 . S
C1977 C1978 1.392 . S
C1977 C1981 1.495 1_554 S
C1978 C1977 1.392 . S
C1978 C1979 1.385 . S
C1978 C1980 1.478 . S
C1979 H1973 0.930 . S
C1979 C1975 1.400 . S
C1979 C1978 1.385 . S
C1980 C1978 1.478 . S
C1980 C1982 1.381 1_554 S
C1980 C1986 1.383 . S
C1981 C1977 1.495 1_556 S
C1981 H1987 0.959 . S
C1981 H1988 0.961 1_556 S
C1981 H1989 0.960 . S
C1982 C1980 1.381 1_556 S
C1982 C1983 1.394 . S
C1982 H1990 0.930 . S
C1983 C1982 1.394 . S
C1983 C1984 1.383 1_556 S
C1983 H1991 0.929 . S
C1984 C1983 1.383 1_554 S
C1984 C1985 1.377 . S
C1985 H1969 0.930 . S
C1985 C1984 1.377 . S
C1985 C1986 1.379 . S
C1986 H1970 0.931 . S
C1986 C1980 1.383 . S
C1986 C1985 1.379 . S
H1987 C1981 0.959 . S
H1988 C1981 0.961 1_554 S
H1989 C1981 0.960 . S
H1990 C1982 0.930 . S
H1991 C1983 0.929 . S
H1992 C2000 0.923 1_565 S
H1993 C2002 0.930 . S
H1994 C2004 0.930 . S
H1995 C2007 0.929 . S
H1996 C2010 0.930 1_556 S
H1997 C2012 0.960 . S
H1998 C2012 0.960 . S
H1999 C2012 0.960 . S
C2000 H1992 0.923 1_545 S
C2000 C2001 1.377 . S
C2000 C2002 1.384 1_545 S
C2001 C2000 1.377 . S
C2001 C2007 1.390 . S
C2002 H1993 0.930 . S
C2002 C2000 1.384 1_565 S
C2002 C2003 1.372 . S
C2003 C2002 1.372 . S
C2003 C2004 1.400 1_565 S
C2003 C2008 1.490 . S
C2004 H1994 0.930 . S
C2004 C2003 1.400 1_545 S
C2004 C2007 1.386 . S
H2005 C2021 0.930 . S
H2006 C2022 0.931 . S
C2007 H1995 0.929 . S
C2007 C2001 1.390 . S
C2007 C2004 1.386 . S
C2008 C2003 1.490 . S
C2008 C2010 1.395 . S
C2008 C2011 1.403 . S
H2009 C2015 0.930 . S
C2010 H1996 0.930 1_554 S
C2010 C2008 1.395 . S
C2010 C2013 1.403 . S
C2011 C2008 1.403 . S
C2011 C2012 1.524 . S
C2011 C2015 1.400 . S
C2012 H1997 0.960 . S
C2012 H1998 0.960 . S
C2012 H1999 0.960 . S
C2012 C2011 1.524 . S
C2013 C2010 1.403 . S
C2013 C2014 1.392 . S
C2013 C2017 1.495 1_554 S
C2014 C2013 1.392 . S
C2014 C2015 1.385 . S
C2014 C2016 1.478 . S
C2015 H2009 0.930 . S
C2015 C2011 1.400 . S
C2015 C2014 1.385 . S
C2016 C2014 1.478 . S
C2016 C2018 1.381 . S
C2016 C2022 1.383 . S
C2017 C2013 1.495 1_556 S
C2017 H2023 0.959 . S
C2017 H2024 0.961 . S
C2017 H2025 0.960 . S
C2018 C2016 1.381 . S
C2018 C2019 1.394 . S
C2018 H2026 0.930 . S
C2019 C2018 1.394 . S
C2019 C2020 1.383 . S
C2019 H2027 0.929 . S
C2020 C2019 1.383 . S
C2020 C2021 1.377 . S
C2021 H2005 0.930 . S
C2021 C2020 1.377 . S
C2021 C2022 1.379 . S
C2022 H2006 0.931 . S
C2022 C2016 1.383 . S
C2022 C2021 1.379 . S
H2023 C2017 0.959 . S
H2024 C2017 0.961 . S
H2025 C2017 0.960 . S
H2026 C2018 0.930 . S
H2027 C2019 0.929 . S
C328 C154 1.418 . S
C309 C50 1.426 . S
C364 C167 1.589 . S
C345 C61 1.603 . S
C381 C67 1.463 . S
C400 C180 1.459 . S
C436 C193 1.520 . S
C417 C41 1.530 . S
C472 C201 1.439 . S
C453 C95 1.485 . S
C508 C214 1.430 . S
C489 C113 1.439 . S
C525 C106 1.509 . S
C544 C227 1.466 . S
C580 C240 1.492 . S
C561 C86 1.522 . S
C597 C104 1.434 . S
C616 C258 1.421 . S
C652 C269 1.500 . S
C633 C88 1.545 . S
C669 C94 1.470 . S
C688 C253 1.458 . S
C724 C261 1.433 . S
C705 C112 1.478 . S
C741 C70 1.491 . S
C760 C284 1.478 . S
C777 C40 1.521 . S
C796 C274 1.475 . S
C813 C49 1.515 . S
C832 C279 1.501 . S
C849 C59 1.578 . S
C868 C282 1.550 . S
C885 C34 1.436 . S
C904 C191 1.421 . S
C921 C133 1.417 . S
C940 C183 1.397 . S
C976 C152 1.562 . S
C957 C139 1.581 . S
C1012 C157 1.494 . S
C993 C77 1.523 . S
C1029 C43 1.540 . S
C1048 C204 1.482 . S
C1084 C243 1.488 . S
C1065 C103 1.535 . S
C1120 C196 1.480 . S
C1101 C85 1.528 . S
C1156 C222 1.414 . S
C1137 C115 1.463 . S
C1192 C232 1.422 . S
C1173 C131 1.426 . S
C1209 C142 1.603 . S
C1228 C245 1.574 . S
C1245 C76 1.463 . S
C1264 C206 1.461 . S
C1300 C219 1.526 . S
C1281 C122 1.531 . S
C1317 C32 1.485 . S
C1336 C175 1.452 . S
C1372 C188 1.434 . S
C1353 C5 1.439 . S
C1408 C149 1.479 . S
C1389 C16 1.509 . S
C1444 C162 1.486 . S
C1425 C23 1.522 . S
C1461 C14 1.434 . S
C1480 C271 1.429 . S
C1497 C25 1.545 . S
C1516 C256 1.522 1_655 S
C1533 C31 1.470 . S
C1552 C266 1.461 . S
C1569 C4 1.479 . S
C1588 C248 1.452 . S
C1624 C297 1.478 . S
C1605 C79 1.491 . S
C1660 C287 1.471 . S
C1641 C121 1.521 . S
C1696 C292 1.473 . S
C1677 C130 1.514 . S
C1713 C140 1.578 . S
C1732 C295 1.561 . S
C1749 C97 1.435 . S
C1768 C217 1.415 . S
C1804 C209 1.413 . S
C1785 C52 1.418 . S
C1840 C230 1.544 . S
C1821 C58 1.580 . S
C1876 C235 1.511 . S
C1857 C68 1.526 . S
C1893 C124 1.531 . S
C1912 C178 1.481 . S
C1948 C165 1.512 . S
C1929 C13 1.537 . S
C1965 C22 1.528 . S
C1984 C170 1.502 . S
C2020 C144 1.419 . S
C2001 C7 1.464 . S
