# Generated by pormake.
# Topology zzz, (3,6)-cn, num edge types: 1
# Building blocks:
#     Node 0, Type 0, BuildingBlock: PAMTOO_clean_linker_0, # of connection points: 3
#     Node 1, Type 0, BuildingBlock: PAMTOO_clean_linker_0, # of connection points: 3
#     Node 2, Type 0, BuildingBlock: PAMTOO_clean_linker_0, # of connection points: 3
#     Node 3, Type 0, BuildingBlock: PAMTOO_clean_linker_0, # of connection points: 3
#     Node 4, Type 0, BuildingBlock: PAMTOO_clean_linker_0, # of connection points: 3
#     Node 5, Type 0, BuildingBlock: PAMTOO_clean_linker_0, # of connection points: 3
#     Node 6, Type 0, BuildingBlock: PAMTOO_clean_linker_0, # of connection points: 3
#     Node 7, Type 0, BuildingBlock: PAMTOO_clean_linker_0, # of connection points: 3
#     Node 8, Type 1, BuildingBlock: BETDAH_clean_sbu_0, # of connection points: 6
#     Node 9, Type 1, BuildingBlock: BETDAH_clean_sbu_0, # of connection points: 6
#     Node 10, Type 1, BuildingBlock: BETDAH_clean_sbu_0, # of connection points: 6
#     Node 11, Type 1, BuildingBlock: BETDAH_clean_sbu_0, # of connection points: 6
#     Edge 12, Type (0, 1), BuildingBlock: UVAHIK_clean_linker_0, # of connection points: 2
#     Edge 13, Type (0, 1), BuildingBlock: UVAHIK_clean_linker_0, # of connection points: 2
#     Edge 14, Type (0, 1), BuildingBlock: UVAHIK_clean_linker_0, # of connection points: 2
#     Edge 15, Type (0, 1), BuildingBlock: UVAHIK_clean_linker_0, # of connection points: 2
#     Edge 16, Type (0, 1), BuildingBlock: UVAHIK_clean_linker_0, # of connection points: 2
#     Edge 17, Type (0, 1), BuildingBlock: UVAHIK_clean_linker_0, # of connection points: 2
#     Edge 18, Type (0, 1), BuildingBlock: UVAHIK_clean_linker_0, # of connection points: 2
#     Edge 19, Type (0, 1), BuildingBlock: UVAHIK_clean_linker_0, # of connection points: 2
#     Edge 20, Type (0, 1), BuildingBlock: UVAHIK_clean_linker_0, # of connection points: 2
#     Edge 21, Type (0, 1), BuildingBlock: UVAHIK_clean_linker_0, # of connection points: 2
#     Edge 22, Type (0, 1), BuildingBlock: UVAHIK_clean_linker_0, # of connection points: 2
#     Edge 23, Type (0, 1), BuildingBlock: UVAHIK_clean_linker_0, # of connection points: 2
#     Edge 24, Type (0, 1), BuildingBlock: UVAHIK_clean_linker_0, # of connection points: 2
#     Edge 25, Type (0, 1), BuildingBlock: UVAHIK_clean_linker_0, # of connection points: 2
#     Edge 26, Type (0, 1), BuildingBlock: UVAHIK_clean_linker_0, # of connection points: 2
#     Edge 27, Type (0, 1), BuildingBlock: UVAHIK_clean_linker_0, # of connection points: 2
#     Edge 28, Type (0, 1), BuildingBlock: UVAHIK_clean_linker_0, # of connection points: 2
#     Edge 29, Type (0, 1), BuildingBlock: UVAHIK_clean_linker_0, # of connection points: 2
#     Edge 30, Type (0, 1), BuildingBlock: UVAHIK_clean_linker_0, # of connection points: 2
#     Edge 31, Type (0, 1), BuildingBlock: UVAHIK_clean_linker_0, # of connection points: 2
#     Edge 32, Type (0, 1), BuildingBlock: UVAHIK_clean_linker_0, # of connection points: 2
#     Edge 33, Type (0, 1), BuildingBlock: UVAHIK_clean_linker_0, # of connection points: 2
#     Edge 34, Type (0, 1), BuildingBlock: UVAHIK_clean_linker_0, # of connection points: 2
#     Edge 35, Type (0, 1), BuildingBlock: UVAHIK_clean_linker_0, # of connection points: 2
# Relax obj value: 0.226
# Max RMSD: 0.176
# Mean RMSD: 0.160
data_MOF--net-zzz--node1-BETDAH_clean_sbu_0--node2-PAMTOO_clean_linker_0--edge1-UVAHIK_clean_linker_0
_symmetry_space_group_name_H-M    P1
_symmetry_Int_Tables_number       1
_symmetry_cell_setting            triclinic
loop_
_symmetry_equiv_pos_as_xyz
'x, y, z'
_cell_length_a     67.788645
_cell_length_b     67.852898
_cell_length_c     16.957508
_cell_angle_alpha  90.067415
_cell_angle_beta   90.102129
_cell_angle_gamma 89.919492
loop_
_atom_site_label
_atom_site_type_symbol
_atom_site_fract_x
_atom_site_fract_y
_atom_site_fract_z
_atom_type_partial_charge
H0 H 0.79969 0.49318 0.23884 0.0
H1 H 0.74045 0.50771 0.16852 0.0
H2 H 0.76183 0.52528 0.39684 0.0
H3 H 0.70963 0.52316 0.37833 0.0
C4 C 0.71462 0.51642 0.32205 0.0
O5 O 0.73145 0.52622 0.29755 0.0
H6 H 0.71784 0.5006 0.33428 0.0
C7 C 0.78531 0.49927 0.25272 0.0
C8 C 0.78259 0.50868 0.32568 0.0
C9 C 0.7703 0.49887 0.19538 0.0
C10 C 0.75215 0.5078 0.2121 0.0
C11 C 0.74896 0.51708 0.28467 0.0
C12 C 0.76422 0.5177 0.34142 0.0
H13 H 0.02754 0.79539 0.20976 0.0
H14 H 0.01877 0.73562 0.13424 0.0
H15 H 1.0063 0.75212 0.37456 0.0
H16 H 0.01662 0.70244 0.34985 0.0
C17 C 0.01979 0.70766 0.2891 0.0
O18 O 1.00667 0.72265 0.27066 0.0
H19 H 0.0353 0.71309 0.28963 0.0
C20 C 0.02332 0.78034 0.22326 0.0
C21 C 0.01702 0.77562 0.29952 0.0
C22 C 0.02399 0.76604 0.16372 0.0
C23 C 0.01852 0.74664 0.18045 0.0
C24 C 0.01233 0.74149 0.25646 0.0
C25 C 0.01137 0.75604 0.31612 0.0
H26 H 0.73413 0.03072 0.22058 0.0
H27 H 0.79193 0.01415 0.14054 0.0
H28 H 0.77064 0.99315 0.36413 0.0
H29 H 0.82222 0.99204 0.34611 0.0
C30 C 0.81759 1.001 0.29457 0.0
O31 O 0.80055 0.99281 0.26336 0.0
H32 H 0.81473 0.01624 0.31655 0.0
C33 C 0.74811 0.02341 0.23137 0.0
C34 C 0.75055 0.0123 0.30046 0.0
C35 C 0.76286 0.02423 0.17349 0.0
C36 C 0.78049 0.01385 0.18509 0.0
C37 C 0.78346 1.00295 0.25421 0.0
C38 C 0.76841 1.00195 0.3116 0.0
H39 H 0.48181 0.73142 0.30784 0.0
H40 H 0.49275 0.78457 0.17717 0.0
H41 H 0.53414 0.76534 0.35373 0.0
H42 H 0.53662 0.81406 0.32316 0.0
C43 C 0.52359 0.8114 0.28482 0.0
O44 O 0.52568 0.79314 0.2491 0.0
H45 H 0.5103 0.81166 0.32347 0.0
C46 C 0.49051 0.74462 0.29832 0.0
C47 C 0.5083 0.74692 0.33949 0.0
C48 C 0.48488 0.75792 0.23909 0.0
C49 C 0.49674 0.77438 0.22376 0.0
C50 C 0.51418 0.77741 0.26654 0.0
C51 C 0.5202 0.76346 0.32336 0.0
H52 H 0.23795 0.54566 0.14486 0.0
H53 H 0.29634 0.53461 0.23291 0.0
H54 H 0.27545 0.50361 0.02729 0.0
H55 H 0.31544 0.48111 0.12123 0.0
C56 C 0.31138 0.49282 0.16405 0.0
O57 O 0.30602 0.50955 0.12254 0.0
H58 H 0.29872 0.48705 0.19889 0.0
C59 C 0.25208 0.53827 0.13877 0.0
C60 C 0.25478 0.52444 0.07822 0.0
C61 C 0.26685 0.54189 0.19476 0.0
C62 C 0.28488 0.53195 0.18955 0.0
C63 C 0.28811 0.51832 0.12877 0.0
C64 C 0.27295 0.51429 0.07373 0.0
H65 H 0.01193 0.22321 0.20205 0.0
H66 H 0.01422 0.28475 0.26152 0.0
H67 H 0.02214 0.26626 0.02048 0.0
H68 H 0.04162 0.31311 0.06392 0.0
C69 C 0.0377 0.3076 0.12354 0.0
O70 O 0.02037 0.29691 0.11794 0.0
H71 H 0.05023 0.2981 0.14294 0.0
C72 C 0.01411 0.23841 0.18429 0.0
C73 C 0.01705 0.24275 0.10439 0.0
C74 C 0.01326 0.25336 0.24132 0.0
C75 C 0.01529 0.27304 0.21818 0.0
C76 C 0.01888 0.27772 0.13903 0.0
C77 C 0.0199 0.26255 0.08192 0.0
H78 H 0.29971 1.00612 0.17254 0.0
H79 H 0.23788 1.00528 0.22869 0.0
H80 H 0.25665 0.01521 0.98944 0.0
H81 H 0.20823 0.03199 0.0321 0.0
C82 C 0.21431 0.0284 0.09127 0.0
O83 O 0.22579 0.01159 0.08498 0.0
H84 H 0.22332 0.04137 0.10949 0.0
C85 C 0.28444 1.0077 0.15425 0.0
C86 C 0.28014 0.01093 0.07453 0.0
C87 C 0.26936 1.00583 0.21026 0.0
C88 C 0.24965 1.00706 0.18612 0.0
C89 C 0.24501 0.01082 0.10701 0.0
C90 C 0.26027 0.01282 0.05092 0.0
H91 H 0.48031 0.2917 0.13836 0.0
H92 H 0.49718 0.2354 0.23259 0.0
H93 H 0.52176 0.25526 0.01289 0.0
H94 H 0.52396 0.20387 0.03759 0.0
C95 C 0.51376 0.2086 0.08513 0.0
O96 O 0.52068 0.22611 0.11688 0.0
H97 H 0.49899 0.2108 0.05738 0.0
C98 C 0.48805 0.27779 0.13149 0.0
C99 C 0.50076 0.27519 0.06713 0.0
C100 C 0.48676 0.26365 0.19153 0.0
C101 C 0.49769 0.2462 0.18561 0.0
C102 C 0.50984 0.24288 0.12021 0.0
C103 C 0.51168 0.25753 0.06157 0.0
Ho104 Ho 0.02815 1.00367 0.76196 0.0
Ho105 Ho 1.0052 0.01562 0.62705 0.0
C106 C 0.01476 0.97069 0.63169 0.0
C107 C 0.04341 0.98431 0.87795 0.0
C108 C 0.04969 0.96348 0.88122 0.0
C109 C 0.03615 0.94833 0.86512 0.0
C110 C 0.04265 0.92905 0.85408 0.0
C111 C 0.06276 0.92445 0.85964 0.0
C112 C 0.07624 0.93926 0.88036 0.0
C113 C 0.06975 0.9587 0.89059 0.0
C114 C 0.05071 0.01596 0.6396 0.0
C115 C 0.01855 0.04877 0.75718 0.0
C116 C 0.98972 0.03538 0.51321 0.0
C117 C 0.98034 0.05485 0.51878 0.0
C118 C 0.98182 0.06822 0.45641 0.0
C119 C 0.97595 0.08781 0.46689 0.0
C120 C 0.96857 0.09433 0.54013 0.0
C121 C 0.96635 0.08061 0.60141 0.0
C122 C 0.97225 0.06108 0.59093 0.0
C123 C 0.98261 1.00367 0.74985 0.0
O124 O 0.01886 0.97451 0.70653 0.0
O125 O 0.01163 0.98528 0.58193 0.0
O126 O 0.05377 0.99545 0.83102 0.0
O127 O 0.02446 0.9876 0.87108 0.0
O128 O 0.05365 0.02068 0.71265 0.0
O129 O 0.03578 1.0049 0.63434 0.0
O130 O 0.01357 0.04496 0.68327 0.0
O131 O 0.02268 0.03425 0.80606 0.0
O132 O 0.98052 0.02107 0.54899 0.0
O133 O 1.00865 0.03536 0.52786 0.0
O134 O 0.97942 0.99911 0.67689 0.0
O135 O 0.99764 0.0146 0.7546 0.0
H136 H 0.02057 0.95143 0.85799 0.0
H137 H 0.03194 0.9177 0.84029 0.0
H138 H 0.09181 0.93591 0.88618 0.0
H139 H 0.08048 0.97012 0.90307 0.0
H140 H 0.98833 0.06376 0.40087 0.0
H141 H 0.9782 0.09806 0.41884 0.0
H142 H 0.9606 0.08509 0.65822 0.0
H143 H 0.97125 0.05103 0.64039 0.0
Ho144 Ho 0.522 0.02123 0.75708 0.0
Ho145 Ho 0.50902 0.99981 0.6195 0.0
C146 C 0.55447 1.00723 0.62562 0.0
C147 C 0.54254 0.03523 0.87202 0.0
C148 C 0.56216 0.0442 0.86606 0.0
C149 C 0.57472 0.04501 0.93154 0.0
C150 C 0.59431 0.05105 0.92235 0.0
C151 C 0.60161 0.05613 0.84733 0.0
C152 C 0.58875 0.05589 0.78241 0.0
C153 C 0.56919 0.05005 0.79178 0.0
C154 C 0.51106 0.04523 0.6366 0.0
C155 C 0.47677 0.01348 0.75165 0.0
C156 C 0.48857 0.98625 0.50326 0.0
C157 C 0.46732 0.9815 0.50136 0.0
C158 C 0.45326 0.99591 0.52121 0.0
C159 C 0.43365 0.9907 0.53375 0.0
C160 C 0.42762 0.97103 0.52607 0.0
C161 C 0.44137 0.95674 0.50211 0.0
C162 C 0.46113 0.96193 0.49028 0.0
C163 C 0.52061 0.97607 0.73941 0.0
O164 O 0.55082 0.01148 0.7003 0.0
O165 O 0.5398 1.00437 0.57578 0.0
O166 O 0.5283 0.04507 0.83813 0.0
O167 O 0.54204 0.01647 0.85474 0.0
O168 O 0.50674 0.04816 0.70991 0.0
O169 O 0.52121 0.0297 0.63033 0.0
O170 O 0.48037 0.01031 0.676 0.0
O171 O 0.49154 0.01524 0.80181 0.0
O172 O 0.49918 0.97502 0.5492 0.0
O173 O 0.49318 1.00488 0.51047 0.0
O174 O 0.52524 0.97339 0.66614 0.0
O175 O 0.51 0.9913 0.7461 0.0
H176 H 0.5696 0.04034 0.98902 0.0
H177 H 0.60398 0.05085 0.97325 0.0
H178 H 0.59394 0.0598 0.72411 0.0
H179 H 0.5597 0.04946 0.74034 0.0
H180 H 0.45747 0.01115 0.52983 0.0
H181 H 0.42317 1.00207 0.54993 0.0
H182 H 0.43696 0.94151 0.49485 0.0
H183 H 0.4717 0.95055 0.47523 0.0
Ho184 Ho 0.50727 0.51918 0.7974 0.0
Ho185 Ho 0.52551 0.50639 0.64868 0.0
C186 C 0.52059 0.55236 0.66562 0.0
C187 C 0.49737 0.53763 0.92421 0.0
C188 C 0.48656 0.5564 0.93577 0.0
C189 C 0.49701 0.57405 0.94657 0.0
C190 C 0.48705 0.59205 0.94989 0.0
C191 C 0.46639 0.59281 0.94297 0.0
C192 C 0.45585 0.57512 0.93469 0.0
C193 C 0.46583 0.5571 0.93112 0.0
C194 C 0.48053 0.50944 0.68488 0.0
C195 C 0.51252 0.47394 0.77735 0.0
C196 C 0.53103 0.4861 0.52296 0.0
C197 C 0.52048 0.46775 0.50393 0.0
C198 C 0.50043 0.46594 0.52385 0.0
C199 C 0.49113 0.44766 0.5215 0.0
C200 C 0.50166 0.43072 0.49931 0.0
C201 C 0.52155 0.43266 0.47643 0.0
C202 C 0.53089 0.45102 0.47901 0.0
C203 C 0.55214 0.51614 0.76154 0.0
O204 O 0.5141 0.54842 0.73763 0.0
O205 O 0.52533 0.53818 0.61586 0.0
O206 O 0.48721 0.52295 0.89515 0.0
O207 O 0.51492 0.53902 0.89253 0.0
O208 O 0.47846 0.50578 0.75925 0.0
O209 O 0.49628 0.51896 0.67423 0.0
O210 O 0.5124 0.4787 0.70191 0.0
O211 O 0.514 0.48792 0.8311 0.0
O212 O 0.54275 0.48488 0.58405 0.0
O213 O 0.52023 0.50211 0.52398 0.0
O214 O 0.55446 0.51967 0.68688 0.0
O215 O 0.53639 0.50659 0.77189 0.0
H216 H 0.51295 0.57402 0.95114 0.0
H217 H 0.49556 0.60539 0.95832 0.0
H218 H 0.43993 0.57524 0.9293 0.0
H219 H 0.45728 0.54377 0.92313 0.0
H220 H 0.49212 0.47849 0.54518 0.0
H221 H 0.47592 0.44671 0.54051 0.0
H222 H 0.52998 0.41993 0.45766 0.0
H223 H 0.54642 0.45203 0.46453 0.0
Ho224 Ho 0.01351 0.49921 0.77324 0.0
Ho225 Ho 0.02649 0.51829 0.61281 0.0
C226 C 0.98025 0.51191 0.64007 0.0
C227 C 0.99376 0.4898 0.89659 0.0
C228 C 0.97214 0.49046 0.90652 0.0
C229 C 0.9618 0.50836 0.89917 0.0
C230 C 0.94135 0.50842 0.88983 0.0
C231 C 0.93084 0.49059 0.88695 0.0
C232 C 0.94103 0.4728 0.89916 0.0
C233 C 0.96147 0.47275 0.90926 0.0
C234 C 0.02559 0.47412 0.65903 0.0
C235 C 0.05897 0.50881 0.75255 0.0
C236 C 0.04366 0.52328 0.48006 0.0
C237 C 0.06186 0.53447 0.46445 0.0
C238 C 0.07808 0.52479 0.43088 0.0
C239 C 0.09669 0.53359 0.43187 0.0
C240 C 0.09936 0.55229 0.46608 0.0
C241 C 0.08291 0.56248 0.49542 0.0
C242 C 0.06433 0.55361 0.49508 0.0
C243 C 0.02253 0.54684 0.72552 0.0
O244 O 0.98451 0.50726 0.71424 0.0
O245 O 0.99414 0.51525 0.58684 0.0
O246 O 0.99991 0.4768 0.84516 0.0
O247 O 1.00285 0.50674 0.88971 0.0
O248 O 0.02944 0.47186 0.73356 0.0
O249 O 0.01511 0.48934 0.64915 0.0
O250 O 0.05518 0.51122 0.67623 0.0
O251 O 0.04479 0.50614 0.80515 0.0
O252 O 0.02809 0.53355 0.50117 0.0
O253 O 0.04631 0.50746 0.52326 0.0
O254 O 0.02761 0.55026 0.65326 0.0
O255 O 0.01984 0.52858 0.73145 0.0
H256 H 0.96955 0.52229 0.89621 0.0
H257 H 0.93393 0.52236 0.88043 0.0
H258 H 0.93324 0.45887 0.89932 0.0
H259 H 0.96907 0.45877 0.91491 0.0
H260 H 0.07656 0.50999 0.40757 0.0
H261 H 0.1091 0.52556 0.40761 0.0
H262 H 0.08458 0.57688 0.52219 0.0
H263 H 0.05216 0.56138 0.52233 0.0
C264 C 0.18028 0.01541 0.12497 0.0
C265 C 0.19752 0.02523 0.14876 0.0
C266 C 0.16429 0.01343 0.17677 0.0
C267 C 0.15056 0.01672 0.3898 0.0
H268 H 0.09756 0.02354 0.30773 0.0
C269 C 0.08392 0.02775 0.59643 0.0
C270 C 0.06635 0.01769 0.57871 0.0
C271 C 0.0995 0.02824 0.54242 0.0
C272 C 0.11223 0.02139 0.33155 0.0
H273 H 0.21192 0.03991 0.24638 0.0
H274 H 0.18403 0.03679 0.33656 0.0
H275 H 0.12566 0.02466 0.21801 0.0
H276 H 0.05116 1.00067 0.48924 0.0
H277 H 0.07841 1.00156 0.39432 0.0
H278 H 0.13717 0.01369 0.50339 0.0
C279 C 0.18276 0.03049 0.2781 0.0
C280 C 0.1284 0.02199 0.27999 0.0
C281 C 0.19874 0.03241 0.22631 0.0
C282 C 0.06451 1.00856 0.50458 0.0
C283 C 0.08012 1.00912 0.45018 0.0
C284 C 0.13443 0.01621 0.44127 0.0
C285 C 0.16519 0.02115 0.2539 0.0
C286 C 0.14784 0.0198 0.30841 0.0
C287 C 0.09795 0.01873 0.46891 0.0
C288 C 0.11504 0.01868 0.41306 0.0
H289 H 0.17908 1.00952 0.06576 0.0
H290 H 0.15122 1.0058 0.1563 0.0
H291 H 0.1652 0.01456 0.41394 0.0
H292 H 0.08579 0.03504 0.65281 0.0
H293 H 0.11281 0.03612 0.5584 0.0
C294 C 0.49804 0.17791 0.14154 0.0
C295 C 0.51278 0.1924 0.14665 0.0
C296 C 0.49781 0.16191 0.19369 0.0
C297 C 0.51645 0.14511 0.38781 0.0
H298 H 0.50391 0.09303 0.30771 0.0
C299 C 0.50169 0.07943 0.59604 0.0
C300 C 0.51016 0.06114 0.5766 0.0
C301 C 0.50197 0.0951 0.54245 0.0
C302 C 0.50756 0.10744 0.33101 0.0
H303 H 0.53934 0.20101 0.20891 0.0
H304 H 0.53884 0.17323 0.30088 0.0
H305 H 0.50482 0.12107 0.21749 0.0
H306 H 0.52515 0.0448 0.4847 0.0
H307 H 0.52557 0.0722 0.39045 0.0
H308 H 0.5193 0.13149 0.50119 0.0
C309 C 0.52719 0.17443 0.25736 0.0
C310 C 0.50788 0.12358 0.27939 0.0
C311 C 0.52748 0.19038 0.20474 0.0
C312 C 0.51849 0.05871 0.50135 0.0
C313 C 0.51867 0.0744 0.44735 0.0
C314 C 0.51598 0.12901 0.43949 0.0
C315 C 0.51242 0.1599 0.25222 0.0
C316 C 0.51229 0.14265 0.30711 0.0
C317 C 0.51065 0.0929 0.46765 0.0
C318 C 0.51147 0.10996 0.4119 0.0
H319 H 0.48673 0.17886 0.09648 0.0
H320 H 0.48612 0.15114 0.18831 0.0
H321 H 0.51977 0.15957 0.41142 0.0
H322 H 0.49506 0.08177 0.65338 0.0
H323 H 0.49534 0.10898 0.55967 0.0
C324 C 0.34682 0.50373 0.18534 0.0
C325 C 0.32896 0.49688 0.21705 0.0
C326 C 0.3635 0.50617 0.2335 0.0
C327 C 0.37897 0.50985 0.44499 0.0
H328 H 0.43051 0.49565 0.36368 0.0
C329 C 0.44606 0.49958 0.65035 0.0
C330 C 0.46418 0.50769 0.62689 0.0
C331 C 0.43009 0.49877 0.5981 0.0
C332 C 0.41625 0.49988 0.38706 0.0
H333 H 0.31462 0.48714 0.32403 0.0
H334 H 0.34362 0.49106 0.40777 0.0
H335 H 0.40162 0.49371 0.27765 0.0
H336 H 0.47992 0.52085 0.52925 0.0
H337 H 0.45196 0.51932 0.43723 0.0
H338 H 0.39355 0.51567 0.5547 0.0
C339 C 0.34477 0.495 0.34611 0.0
C340 C 0.39965 0.49882 0.33763 0.0
C341 C 0.32811 0.49264 0.29803 0.0
C342 C 0.46612 0.51455 0.54908 0.0
C343 C 0.45013 0.5136 0.49636 0.0
C344 C 0.39552 0.51078 0.4944 0.0
C345 C 0.36278 0.5017 0.31461 0.0
C346 C 0.3807 0.50363 0.36606 0.0
C347 C 0.4318 0.50595 0.52063 0.0
C348 C 0.41437 0.50564 0.46641 0.0
H349 H 0.3479 0.50698 0.12298 0.0
H350 H 0.37696 0.5116 0.20706 0.0
H351 H 0.36479 0.51412 0.46883 0.0
H352 H 0.44411 0.49403 0.7097 0.0
H353 H 0.41635 0.49245 0.61845 0.0
C354 C 0.04191 0.3236 0.25781 0.0
C355 C 0.03522 0.32483 0.17953 0.0
C356 C 0.04067 0.33994 0.30824 0.0
C357 C 0.01565 0.38831 0.33584 0.0
H358 H 0.0606 0.39945 0.47018 0.0
C359 C 0.02053 0.46005 0.52294 0.0
C360 C 0.02819 0.45822 0.59966 0.0
C361 C 0.02173 0.44428 0.46942 0.0
C362 C 0.0478 0.39649 0.4338 0.0
H363 H 0.02109 0.34375 0.09377 0.0
H364 H 0.01892 0.37238 0.18155 0.0
H365 H 0.06123 0.37077 0.38376 0.0
H366 H 0.04345 0.43856 0.67983 0.0
H367 H 0.04537 0.41113 0.5875 0.0
H368 H 1.00216 0.41396 0.38638 0.0
C369 C 0.0252 0.35883 0.20415 0.0
C370 C 0.04816 0.37998 0.38412 0.0
C371 C 0.02651 0.34249 0.15368 0.0
C372 C 0.03745 0.44048 0.62107 0.0
C373 C 0.03864 0.42474 0.5678 0.0
C374 C 0.01526 0.40482 0.38578 0.0
C375 C 0.03253 0.35788 0.28185 0.0
C376 C 0.03207 0.37559 0.33464 0.0
C377 C 0.03065 0.42631 0.49135 0.0
C378 C 0.0313 0.40911 0.43581 0.0
H379 H 0.04841 0.31006 0.2796 0.0
H380 H 0.0461 0.3385 0.36806 0.0
H381 H 1.00289 0.38531 0.29927 0.0
H382 H 0.01333 0.47356 0.50464 0.0
H383 H 0.01567 0.4462 0.41081 0.0
C384 C 0.85112 0.01298 0.25219 0.0
C385 C 0.83442 1.00144 0.2355 0.0
C386 C 0.86745 0.01296 0.20168 0.0
C387 C 0.89138 0.98363 0.04219 0.0
H388 H 0.92038 0.03196 0.00536 0.0
C389 C 0.95015 0.99069 0.79638 0.0
C390 C 0.96712 1.00197 0.81132 0.0
C391 C 0.93467 0.99008 0.85084 0.0
C392 C 0.91263 0.01826 0.01576 0.0
H393 H 0.82209 0.98035 0.1528 0.0
H394 H 0.85029 0.9807 0.06359 0.0
H395 H 0.89177 0.03228 0.09223 0.0
H396 H 0.98137 0.02114 0.89619 0.0
H397 H 0.95432 0.02003 0.99195 0.0
H398 H 0.91214 0.96968 0.96497 0.0
C399 C 0.85087 0.98971 0.11627 0.0
C400 C 0.89616 0.01844 0.06569 0.0
C401 C 0.83455 0.98966 0.16712 0.0
C402 C 0.96847 0.01232 0.88297 0.0
C403 C 0.95289 0.01179 0.9375 0.0
C404 C 0.90781 0.98348 0.99208 0.0
C405 C 0.86761 1.00132 0.13291 0.0
C406 C 0.88523 1.00113 0.07952 0.0
C407 C 0.93569 1.00079 0.92184 0.0
C408 C 0.91864 1.0008 0.97788 0.0
H409 H 0.85161 0.02189 0.30521 0.0
H410 H 0.88013 0.0218 0.21759 0.0
H411 H 0.88366 0.96992 0.05241 0.0
H412 H 0.94864 0.98256 0.74168 0.0
H413 H 0.92163 0.98163 0.83614 0.0
C414 C 0.53491 0.82811 0.1584 0.0
C415 C 0.52234 0.82779 0.22425 0.0
C416 C 0.53468 0.84412 0.10609 0.0
C417 C 0.52141 0.89708 0.09472 0.0
H418 H 0.52382 0.8887 0.86889 0.0
C419 C 0.51127 0.96103 0.8698 0.0
C420 C 0.52214 0.96022 0.79938 0.0
C421 C 0.51159 0.94515 0.92282 0.0
C422 C 0.52344 0.89139 0.93181 0.0
H423 H 0.50016 0.84431 0.28811 0.0
H424 H 0.49966 0.87216 0.19688 0.0
H425 H 0.52373 0.86045 0.95745 0.0
H426 H 0.54241 0.94248 0.73074 0.0
H427 H 0.54342 0.91513 0.82361 0.0
H428 H 0.52134 0.928 0.06934 0.0
C429 C 0.50963 0.86002 0.18525 0.0
C430 C 0.52333 0.87512 0.98267 0.0
C431 C 0.50977 0.84397 0.23716 0.0
C432 C 0.53376 0.94349 0.78425 0.0
C433 C 0.53419 0.9277 0.83733 0.0
C434 C 0.52164 0.91336 0.04388 0.0
C435 C 0.52214 0.86037 0.11914 0.0
C436 C 0.52229 0.87773 0.06484 0.0
C437 C 0.52288 0.92813 0.90691 0.0
C438 C 0.52266 0.91078 0.96158 0.0
H439 H 0.5451 0.81609 0.14794 0.0
H440 H 0.54472 0.844 0.05648 0.0
H441 H 0.52089 0.89967 0.15771 0.0
H442 H 0.50211 0.9737 0.88295 0.0
H443 H 0.50253 0.94603 0.97522 0.0
C444 C 0.67971 0.50892 0.28093 0.0
C445 C 0.6979 0.51761 0.26219 0.0
C446 C 0.66392 0.50937 0.22759 0.0
C447 C 0.64522 0.53523 0.04828 0.0
H448 H 0.61125 0.48948 0.03185 0.0
C449 C 0.58631 0.52651 0.80092 0.0
C450 C 0.5682 0.51778 0.82091 0.0
C451 C 0.60188 0.52716 0.85543 0.0
C452 C 0.62041 0.5025 0.03627 0.0
H453 H 0.71362 0.53382 0.17158 0.0
H454 H 0.68626 0.53428 0.07805 0.0
H455 H 0.63889 0.48914 0.12369 0.0
H456 H 0.55208 0.50332 0.91453 0.0
H457 H 0.57916 0.50453 0.00986 0.0
H458 H 0.62677 0.54848 0.96014 0.0
C459 C 0.68408 0.5273 0.13476 0.0
C460 C 0.63633 0.50231 0.08914 0.0
C461 C 0.69989 0.5269 0.18838 0.0
C462 C 0.56588 0.51005 0.89718 0.0
C463 C 0.58147 0.51064 0.95165 0.0
C464 C 0.62932 0.53538 0.99516 0.0
C465 C 0.66586 0.51849 0.15347 0.0
C466 C 0.64897 0.51869 0.09618 0.0
C467 C 0.59977 0.51906 0.93136 0.0
C468 C 0.61666 0.51903 0.98848 0.0
H469 H 0.67772 0.50173 0.33737 0.0
H470 H 0.65009 0.50271 0.24501 0.0
H471 H 0.65438 0.54824 0.05267 0.0
H472 H 0.58857 0.5326 0.74262 0.0
H473 H 0.61576 0.53359 0.8373 0.0
C474 C 1.00693 0.67391 0.24899 0.0
C475 C 0.01798 0.69082 0.2307 0.0
C476 C 1.00604 0.65799 0.19622 0.0
C477 C 0.01273 0.6449 0.98605 0.0
H478 H 0.02096 0.59172 0.06309 0.0
C479 C 0.02851 0.58111 0.77172 0.0
C480 C 0.02105 0.56223 0.78757 0.0
C481 C 0.02708 0.59623 0.82741 0.0
C482 C 0.01832 0.60641 0.04053 0.0
H483 H 0.03642 0.70445 0.14229 0.0
H484 H 0.03456 0.67691 0.04936 0.0
H485 H 0.02001 0.61926 0.15615 0.0
H486 H 1.0061 0.54445 0.87457 0.0
H487 H 1.00325 0.571 0.97233 0.0
H488 H 0.01081 0.63225 0.87082 0.0
C489 C 0.02661 0.67588 0.10453 0.0
C490 C 0.01783 0.62223 0.09401 0.0
C491 C 0.02768 0.69168 0.15767 0.0
C492 C 0.01215 0.55877 0.86098 0.0
C493 C 1.01057 0.57403 0.91697 0.0
C494 C 0.01304 0.62912 0.93279 0.0
C495 C 0.01592 0.65874 0.12333 0.0
C496 C 0.01532 0.64172 0.06729 0.0
C497 C 0.01792 0.59306 0.90067 0.0
C498 C 0.01619 0.60965 0.95891 0.0
H499 H 0.99921 0.67291 0.30469 0.0
H500 H 0.9975 0.64513 0.21223 0.0
H501 H 1.01038 0.65965 0.96351 0.0
H502 H 0.0356 0.58425 0.71593 0.0
H503 H 0.03339 0.61043 0.81298 0.0
C504 C 0.99197 0.25486 0.36145 0.0
C505 C 1.00906 0.24792 0.32385 0.0
C506 C 0.985 0.24545 0.42936 0.0
C507 C 0.96525 0.2096 0.49848 0.0
H508 H 0.99847 0.17552 0.62503 0.0
C509 C 0.95714 0.12754 0.49434 0.0
C510 C 0.96505 0.11565 0.55422 0.0
C511 C 0.9573 0.14801 0.50155 0.0
C512 C 0.98867 0.1851 0.5922 0.0
H513 H 0.03356 0.22759 0.33195 0.0
H514 H 0.02152 0.21106 0.44875 0.0
H515 H 0.01105 0.2071 0.5811 0.0
H516 H 0.97757 0.1159 0.67212 0.0
H517 H 0.97763 0.15165 0.68514 0.0
H518 H 0.94311 0.18731 0.50729 0.0
C519 C 0.01336 0.22371 0.42738 0.0
C520 C 0.996 0.20319 0.56626 0.0
C521 C 0.02025 0.23304 0.35976 0.0
C522 C 0.97149 0.12463 0.62455 0.0
C523 C 0.97163 0.14516 0.6319 0.0
C524 C 0.95781 0.19166 0.52539 0.0
C525 C 0.99505 0.22901 0.46034 0.0
C526 C 0.98497 0.21483 0.5136 0.0
C527 C 0.9653 0.15711 0.56908 0.0
C528 C 0.97002 0.17851 0.56695 0.0
H529 H 0.98314 0.26638 0.33473 0.0
H530 H 0.97103 0.25011 0.45406 0.0
H531 H 0.95617 0.21822 0.45881 0.0
H532 H 0.95167 0.12106 0.44015 0.0
H533 H 0.95245 0.15664 0.45146 0.0
C534 C 0.26828 0.9843 0.32982 0.0
C535 C 0.27472 1.00164 0.29293 0.0
C536 C 0.27744 0.9778 0.39917 0.0
C537 C 0.3176 0.99111 0.54291 0.0
H538 H 0.33685 0.93897 0.49001 0.0
C539 C 0.39713 0.97277 0.60856 0.0
C540 C 0.40677 0.9659 0.54057 0.0
C541 C 0.37665 0.97124 0.61534 0.0
C542 C 0.33159 0.95349 0.50629 0.0
H543 H 0.29389 0.02696 0.30325 0.0
H544 H 0.30998 0.01576 0.42257 0.0
H545 H 0.30575 0.95026 0.43564 0.0
H546 H 0.40298 0.95066 0.42952 0.0
H547 H 0.36737 0.9486 0.43921 0.0
H548 H 0.34453 0.99532 0.60533 0.0
C549 C 0.29791 1.00704 0.39955 0.0
C550 C 0.31352 0.95989 0.47605 0.0
C551 C 0.28884 0.01344 0.33048 0.0
C552 C 0.39586 0.95604 0.48252 0.0
C553 C 0.37539 0.95475 0.48867 0.0
C554 C 0.33584 0.98486 0.57189 0.0
C555 C 0.2931 0.98861 0.43243 0.0
C556 C 0.30712 0.97936 0.48893 0.0
C557 C 0.36541 0.96311 0.55355 0.0
C558 C 0.34373 0.96655 0.54868 0.0
H559 H 0.25733 0.97501 0.30179 0.0
H560 H 0.27319 0.9637 0.42362 0.0
H561 H 0.31273 1.00595 0.55623 0.0
H562 H 0.40536 0.98009 0.6549 0.0
H563 H 0.36957 0.97742 0.66697 0.0
C564 C 0.48844 0.2724 0.33305 0.0
C565 C 0.47687 0.26932 0.26558 0.0
C566 C 0.48202 0.28533 0.39172 0.0
C567 C 0.45429 0.33071 0.38009 0.0
H568 H 0.47857 0.33935 0.58422 0.0
C569 C 0.47232 0.40884 0.47712 0.0
C570 C 0.49202 0.4111 0.50164 0.0
C571 C 0.46361 0.39021 0.47519 0.0
C572 C 0.47156 0.33714 0.52745 0.0
H573 H 0.44832 0.27437 0.21212 0.0
H574 H 0.43661 0.29625 0.31645 0.0
H575 H 0.47356 0.3057 0.53662 0.0
H576 H 0.51747 0.39575 0.5492 0.0
H577 H 0.50268 0.36318 0.54191 0.0
H578 H 0.45348 0.36189 0.36789 0.0
C579 C 0.45096 0.28939 0.3229 0.0
C580 C 0.46862 0.31787 0.50032 0.0
C581 C 0.45755 0.27674 0.26349 0.0
C582 C 0.50246 0.39444 0.52792 0.0
C583 C 0.4938 0.37579 0.52536 0.0
C584 C 0.4572 0.34986 0.40711 0.0
C585 C 0.46384 0.29522 0.3838 0.0
C586 C 0.46096 0.31447 0.42434 0.0
C587 C 0.47445 0.37338 0.49691 0.0
C588 C 0.46683 0.35333 0.47917 0.0
H589 H 0.50342 0.26683 0.3358 0.0
H590 H 0.49236 0.28931 0.43774 0.0
H591 H 0.44855 0.32885 0.32093 0.0
H592 H 0.46382 0.42135 0.45661 0.0
H593 H 0.44859 0.38892 0.454 0.0
C594 C 0.25696 0.54523 0.33417 0.0
C595 C 0.2619 0.55437 0.26293 0.0
C596 C 0.24469 0.55485 0.38791 0.0
C597 C 0.20359 0.58859 0.36166 0.0
H598 H 0.19102 0.56922 0.57041 0.0
C599 C 0.12332 0.58026 0.45272 0.0
C600 C 0.11942 0.56066 0.47405 0.0
C601 C 0.14266 0.58743 0.45372 0.0
C602 C 0.19439 0.57503 0.5125 0.0
H603 H 0.26062 0.58148 0.19633 0.0
H604 H 0.2401 0.59883 0.2922 0.0
H605 H 0.22526 0.56918 0.52579 0.0
H606 H 0.13227 0.53373 0.51985 0.0
H607 H 0.16597 0.54599 0.51999 0.0
H608 H 0.17273 0.59331 0.34631 0.0
C609 C 0.24495 0.58399 0.30564 0.0
C610 C 0.21399 0.57498 0.48684 0.0
C611 C 0.25688 0.57419 0.2511 0.0
C612 C 0.13495 0.54878 0.5014 0.0
C613 C 0.15421 0.55594 0.50285 0.0
C614 C 0.18409 0.58879 0.38751 0.0
C615 C 0.23731 0.57384 0.37119 0.0
C616 C 0.21863 0.58049 0.40906 0.0
C617 C 0.15838 0.57514 0.47668 0.0
C618 C 0.17914 0.58082 0.46115 0.0
H619 H 0.26061 0.52987 0.344 0.0
H620 H 0.23924 0.54645 0.4375 0.0
H621 H 0.20636 0.59289 0.30125 0.0
H622 H 0.11156 0.58977 0.43193 0.0
H623 H 0.14542 0.60231 0.4336 0.0
C624 C 0.04811 0.76556 0.05253 0.0
C625 C 0.03008 0.77198 0.08398 0.0
C626 C 0.05608 0.77498 0.98643 0.0
C627 C 0.0455 0.81488 0.83911 0.0
H628 H 0.09642 0.83455 0.90673 0.0
C629 C 0.06357 0.89411 0.77657 0.0
C630 C 0.0692 0.90397 0.84586 0.0
C631 C 0.06584 0.8737 0.77039 0.0
C632 C 0.08226 0.82918 0.88638 0.0
H633 H 1.00533 0.7917 0.06835 0.0
H634 H 0.01897 0.80814 0.95405 0.0
H635 H 0.08426 0.80364 0.95929 0.0
H636 H 0.08305 0.90082 0.96 0.0
H637 H 0.08621 0.86527 0.95161 0.0
H638 H 0.04229 0.84146 0.77407 0.0
C639 C 0.02709 0.79585 0.97873 0.0
C640 C 0.07539 0.81122 0.91562 0.0
C641 C 0.01927 0.78657 0.04475 0.0
C642 C 0.07864 0.89347 0.90604 0.0
C643 C 0.08057 0.87303 0.90061 0.0
C644 C 0.05217 0.833 0.81108 0.0
C645 C 0.04602 0.79084 0.95097 0.0
C646 C 0.05625 0.8047 0.89706 0.0
C647 C 0.0733 0.86275 0.83429 0.0
C648 C 0.06997 0.84108 0.83935 0.0
H649 H 0.05666 0.7543 0.08237 0.0
H650 H 0.0706 0.77069 0.96609 0.0
H651 H 0.03095 0.8099 0.82167 0.0
H652 H 0.05651 0.90206 0.72885 0.0
H653 H 0.06058 0.86641 0.71756 0.0
C654 C 0.74927 0.05308 0.10057 0.0
C655 C 0.75859 0.03461 0.09863 0.0
C656 C 0.73966 0.06031 0.03391 0.0
C657 C 0.71248 0.03753 0.87356 0.0
H658 H 0.69233 0.09085 0.85675 0.0
C659 C 0.63329 0.07186 0.88986 0.0
C660 C 0.62291 0.06003 0.83607 0.0
C661 C 0.65381 0.07314 0.88608 0.0
C662 C 0.69798 0.07592 0.85953 0.0
H663 H 0.76768 0.01053 0.02296 0.0
H664 H 0.75133 0.02343 0.9053 0.0
H665 H 0.72512 0.0852 0.91228 0.0
H666 H 0.62571 0.04129 0.733 0.0
H667 H 0.66166 0.04328 0.7272 0.0
H668 H 0.68499 0.02817 0.82483 0.0
C669 C 0.75089 0.03206 0.95902 0.0
C670 C 0.71672 0.07265 0.89154 0.0
C671 C 0.76042 0.02474 0.02618 0.0
C672 C 0.63333 0.05053 0.77524 0.0
C673 C 0.6539 0.05164 0.77193 0.0
C674 C 0.6939 0.04082 0.84065 0.0
C675 C 0.73926 0.04924 0.96364 0.0
C676 C 0.72357 0.05331 0.90423 0.0
C677 C 0.66437 0.06245 0.82888 0.0
C678 C 0.68596 0.05993 0.83821 0.0
H679 H 0.74796 0.06114 0.15552 0.0
H680 H 0.73093 0.07358 0.04042 0.0
H681 H 0.7171 0.0224 0.88225 0.0
H682 H 0.62559 0.07952 0.93671 0.0
H683 H 0.66147 0.08141 0.9314 0.0
C684 C 0.47312 0.74862 0.10557 0.0
C685 C 0.46874 0.75216 0.18512 0.0
C686 C 0.46111 0.73619 0.06076 0.0
C687 C 0.43315 0.69244 0.10999 0.0
H688 H 0.43715 0.68427 0.88441 0.0
C689 C 0.43891 0.61444 0.99205 0.0
C690 C 0.45601 0.61207 0.94623 0.0
C691 C 0.43083 0.63318 0.00396 0.0
C692 C 0.43569 0.68636 0.94746 0.0
H693 H 0.44692 0.74832 0.27675 0.0
H694 H 0.42541 0.72728 0.19757 0.0
H695 H 0.43878 0.71768 0.93781 0.0
H696 H 0.47684 0.62712 0.8705 0.0
H697 H 0.46325 0.65978 0.89326 0.0
H698 H 0.4314 0.66122 0.12059 0.0
C699 C 0.43849 0.73339 0.17043 0.0
C700 C 0.43662 0.7055 0.97808 0.0
C701 C 0.45069 0.74555 0.21566 0.0
C702 C 0.46393 0.62856 0.90765 0.0
C703 C 0.45589 0.64726 0.91962 0.0
C704 C 0.43214 0.67339 0.07945 0.0
C705 C 0.44443 0.72725 0.09476 0.0
C706 C 0.43662 0.70864 0.06014 0.0
C707 C 0.43972 0.6499 0.97037 0.0
C708 C 0.43461 0.67004 0.99834 0.0
H709 H 0.48699 0.75351 0.08071 0.0
H710 H 0.46624 0.73192 0.00279 0.0
H711 H 0.43321 0.69407 0.17349 0.0
H712 H 0.43241 0.602 0.02233 0.0
H713 H 0.41822 0.63469 0.04262 0.0
C714 C 0.76954 0.50179 0.04791 0.0
C715 C 0.7747 0.49099 0.1156 0.0
C716 C 0.77847 0.49759 0.97553 0.0
C717 C 0.81919 0.46641 0.88782 0.0
H718 H 0.83988 0.51803 0.8369 0.0
C719 C 0.90108 0.47642 0.819 0.0
C720 C 0.9094 0.49056 0.86991 0.0
C721 C 0.88069 0.47584 0.8065 0.0
C722 C 0.83418 0.50346 0.84944 0.0
H723 H 0.7905 0.46533 0.15789 0.0
H724 H 0.80683 0.45866 0.0344 0.0
H725 H 0.80729 0.51529 0.89277 0.0
H726 H 0.90297 0.51555 0.94529 0.0
H727 H 0.86764 0.5144 0.92495 0.0
H728 H 0.84728 0.45496 0.85361 0.0
C729 C 0.79591 0.47031 0.03546 0.0
C730 C 0.81526 0.50179 0.8807 0.0
C731 C 0.78678 0.47432 0.10723 0.0
C732 C 0.89705 0.50459 0.90529 0.0
C733 C 0.87675 0.504 0.89292 0.0
C734 C 0.83831 0.46814 0.85797 0.0
C735 C 0.79299 0.48279 0.97011 0.0
C736 C 0.80823 0.4834 0.90684 0.0
C737 C 0.86826 0.48939 0.84468 0.0
C738 C 0.84652 0.48686 0.8449 0.0
H739 H 0.76003 0.51459 0.05204 0.0
H740 H 0.7753 0.50707 0.92579 0.0
H741 H 0.8139 0.45191 0.90386 0.0
H742 H 0.91032 0.46571 0.78932 0.0
H743 H 0.87461 0.46451 0.76858 0.0
C744 C 0.99919 0.21403 0.04642 0.0
C745 C 0.01596 0.22619 0.04674 0.0
C746 C 0.99917 0.1961 0.00576 0.0
C747 C 0.02542 0.1652 0.85757 0.0
H748 H 1.003 0.12243 0.97951 0.0
C749 C 0.01534 0.08539 0.73364 0.0
C750 C 0.01896 0.0696 0.78558 0.0
C751 C 0.01545 0.10495 0.76084 0.0
C752 C 1.00947 0.13412 0.94469 0.0
H753 H 0.04555 0.22954 1.00131 0.0
H754 H 0.04561 0.198 0.92961 0.0
H755 H 1.0022 0.15578 0.03153 0.0
H756 H 0.02573 0.06221 0.90701 0.0
H757 H 0.02585 0.09612 0.95427 0.0
H758 H 0.03296 0.14327 0.77118 0.0
C759 C 0.03238 0.20245 0.96061 0.0
C760 C 1.00877 0.15338 0.97416 0.0
C761 C 0.03236 0.22055 1.00141 0.0
C762 C 0.0228 0.07392 0.86527 0.0
C763 C 0.02275 0.09343 0.89251 0.0
C764 C 0.02603 0.14585 0.82776 0.0
C765 C 0.01599 0.18969 0.96454 0.0
C766 C 0.01672 0.16923 0.93118 0.0
C767 C 0.01894 0.10925 0.8409 0.0
C768 C 0.01816 0.13 0.87122 0.0
H769 H 0.98631 0.21806 0.08062 0.0
H770 H 0.98611 0.18696 0.00863 0.0
H771 H 0.03161 0.17702 0.82264 0.0
H772 H 0.01231 0.08268 0.67181 0.0
H773 H 0.0124 0.11669 0.71937 0.0
C774 C 0.30744 0.99354 0.00487 0.0
C775 C 0.29689 0.01105 0.01806 0.0
C776 C 0.32584 0.99387 0.96748 0.0
C777 C 0.36073 0.02499 0.85124 0.0
H778 H 0.40002 0.99123 0.94851 0.0
C779 C 0.44026 0.01625 0.72595 0.0
C780 C 0.45594 0.01432 0.77985 0.0
C781 C 0.4206 0.01621 0.75158 0.0
C782 C 0.38932 1.00088 0.92088 0.0
H783 H 0.29705 0.04261 1.00098 0.0
H784 H 0.32928 0.04331 0.93522 0.0
H785 H 0.36617 0.99047 0.99544 0.0
H786 H 0.4631 0.01134 0.90384 0.0
H787 H 0.42891 0.01154 0.9489 0.0
H788 H 0.38411 0.03571 0.77785 0.0
C789 C 0.32322 0.02922 0.95264 0.0
C790 C 0.36975 1.00024 0.94711 0.0
C791 C 0.30471 0.02886 0.98998 0.0
C792 C 0.45143 0.01277 0.86052 0.0
C793 C 0.43176 0.01271 0.88627 0.0
C794 C 0.38036 0.0256 0.8248 0.0
C795 C 0.33433 0.01178 0.94305 0.0
C796 C 0.35512 0.01228 0.91283 0.0
C797 C 0.41602 0.01427 0.83214 0.0
C798 C 0.39498 0.01361 0.85953 0.0
H799 H 0.30183 0.97965 0.02685 0.0
H800 H 0.33368 0.98008 0.9598 0.0
H801 H 0.34991 0.0344 0.82301 0.0
H802 H 0.44316 0.01785 0.66364 0.0
H803 H 0.40898 0.01732 0.70792 0.0
C804 C 0.48718 0.3023 0.9822 0.0
C805 C 0.50365 0.29215 0.01241 0.0
C806 C 0.48931 0.32071 0.94598 0.0
C807 C 0.52236 0.36382 0.94919 0.0
H808 H 0.48924 0.38206 0.77744 0.0
C809 C 0.51249 0.44698 0.87988 0.0
C810 C 0.51159 0.45274 0.80032 0.0
C811 C 0.51228 0.42696 0.90069 0.0
C812 C 0.49874 0.37722 0.82507 0.0
H813 H 0.53541 0.29305 0.02492 0.0
H814 H 0.53924 0.32516 0.96068 0.0
H815 H 0.48837 0.34745 0.81628 0.0
H816 H 0.50977 0.44175 0.68027 0.0
H817 H 0.5094 0.40704 0.71643 0.0
H818 H 0.53274 0.39357 0.95805 0.0
C819 C 0.52461 0.31892 0.96572 0.0
C820 C 0.49812 0.35735 0.8478 0.0
C821 C 0.52247 0.30038 1.00149 0.0
C822 C 0.51035 0.43794 0.74222 0.0
C823 C 0.51007 0.41795 0.763 0.0
C824 C 0.52291 0.3837 0.92673 0.0
C825 C 0.50798 0.32959 0.93941 0.0
C826 C 0.50979 0.35039 0.91067 0.0
C827 C 0.51112 0.41214 0.84257 0.0
C828 C 0.51097 0.39076 0.86485 0.0
H829 H 0.47248 0.29638 0.99006 0.0
H830 H 0.47615 0.32845 0.92708 0.0
H831 H 0.53141 0.35911 0.99839 0.0
H832 H 0.51346 0.45793 0.92621 0.0
H833 H 0.51282 0.42312 0.96263 0.0
C834 C 0.22753 0.53657 0.99059 0.0
C835 C 0.23795 0.5206 0.02338 0.0
C836 C 0.20953 0.53369 0.95183 0.0
C837 C 0.16755 0.49889 0.94516 0.0
H838 H 0.15033 0.53239 0.77323 0.0
C839 C 0.08494 0.50663 0.85931 0.0
C840 C 0.08 0.50889 0.77917 0.0
C841 C 0.10471 0.50681 0.88402 0.0
C842 C 0.15487 0.52272 0.82067 0.0
H843 H 0.23798 0.48893 0.03785 0.0
H844 H 0.20657 0.48375 0.96867 0.0
H845 H 0.18432 0.53412 0.8191 0.0
H846 H 0.09229 0.513 0.66219 0.0
H847 H 0.12658 0.51304 0.70501 0.0
H848 H 0.13813 0.48736 0.94619 0.0
C849 C 0.21225 0.4986 0.97403 0.0
C850 C 0.17441 0.52387 0.84766 0.0
C851 C 0.2304 0.5015 0.01271 0.0
C852 C 0.09543 0.51126 0.72448 0.0
C853 C 0.11518 0.5114 0.74916 0.0
C854 C 0.148 0.49772 0.91812 0.0
C855 C 0.20132 0.51473 0.94465 0.0
C856 C 0.181 0.51216 0.91102 0.0
C857 C 0.12016 0.50922 0.82937 0.0
C858 C 0.14128 0.5098 0.85605 0.0
H859 H 0.23296 0.55147 0.99779 0.0
H860 H 0.20159 0.54652 0.93091 0.0
H861 H 0.17193 0.48976 0.99453 0.0
H862 H 0.07352 0.50485 0.90329 0.0
H863 H 0.10784 0.5054 0.9464 0.0
C864 C 0.99785 0.79942 0.38333 0.0
C865 C 0.01611 0.79181 0.35863 0.0
C866 C 0.99685 0.81762 0.42287 0.0
C867 C 0.02677 0.85546 0.52907 0.0
H868 H 0.98805 0.89218 0.44645 0.0
C869 C 0.01662 0.9342 0.6578 0.0
C870 C 0.014 0.94978 0.60411 0.0
C871 C 0.01628 0.91453 0.63267 0.0
C872 C 0.99901 0.88216 0.47003 0.0
H873 H 0.04761 0.79683 0.35841 0.0
H874 H 0.04598 0.8282 0.42897 0.0
H875 H 0.98842 0.85816 0.39938 0.0
H876 H 1.00864 0.95664 0.48109 0.0
H877 H 1.00793 0.92231 0.43704 0.0
H878 H 0.03759 0.87955 0.59865 0.0
C879 C 0.03241 0.82022 0.41824 0.0
C880 C 0.99905 0.86254 0.44377 0.0
C881 C 0.03338 0.80221 0.37798 0.0
C882 C 0.01072 0.94508 0.52429 0.0
C883 C 1.01023 0.92535 0.49909 0.0
C884 C 0.02662 0.87504 0.55585 0.0
C885 C 0.0141 0.8285 0.43913 0.0
C886 C 0.01307 0.84895 0.47227 0.0
C887 C 0.01309 0.90979 0.5529 0.0
C888 C 0.01286 0.88873 0.52608 0.0
H889 H 0.9843 0.79189 0.36791 0.0
H890 H 0.98251 0.82344 0.43877 0.0
H891 H 0.03771 0.84541 0.55269 0.0
H892 H 0.01884 0.93719 0.7197 0.0
H893 H 0.01825 0.903 0.67611 0.0
C894 C 0.72608 0.99289 0.38182 0.0
C895 C 0.73361 0.01114 0.35662 0.0
C896 C 0.70769 0.99184 0.42002 0.0
C897 C 0.66083 0.01925 0.42667 0.0
H898 H 0.64738 0.98569 0.60334 0.0
C899 C 0.57976 1.00511 0.51709 0.0
C900 C 0.57532 1.00632 0.59793 0.0
C901 C 0.59939 1.00498 0.49112 0.0
C902 C 0.65092 0.99519 0.55408 0.0
H903 H 0.7285 0.04268 0.3579 0.0
H904 H 0.69669 0.04085 0.42413 0.0
H905 H 0.68159 0.98701 0.55645 0.0
H906 H 0.58826 1.00803 0.71494 0.0
H907 H 0.62244 1.00746 0.66954 0.0
H908 H 0.63031 0.02742 0.42372 0.0
C909 C 0.70469 0.02731 0.41306 0.0
C910 C 0.6705 0.99583 0.52692 0.0
C911 C 0.723 0.02836 0.37549 0.0
C912 C 0.59107 1.00706 0.65219 0.0
C913 C 0.61071 1.00666 0.62623 0.0
C914 C 0.64129 0.01842 0.45307 0.0
C915 C 0.69646 1.00902 0.43344 0.0
C916 C 0.67572 1.00799 0.46313 0.0
C917 C 0.61514 1.00583 0.54529 0.0
C918 C 0.63604 1.00642 0.51719 0.0
H919 H 0.7338 0.97936 0.36771 0.0
H920 H 0.70179 0.97751 0.43503 0.0
H921 H 0.66423 0.0286 0.37679 0.0
H922 H 0.56805 1.00453 0.47359 0.0
H923 H 0.60225 1.00413 0.42839 0.0
C924 C 0.50263 0.72419 0.45348 0.0
C925 C 0.51483 0.73054 0.3916 0.0
C926 C 0.50607 0.70611 0.49099 0.0
C927 C 0.52546 0.65723 0.44624 0.0
H928 H 0.5214 0.64788 0.67101 0.0
C929 C 0.53322 0.57839 0.57298 0.0
C930 C 0.52198 0.57327 0.63943 0.0
C931 C 0.5342 0.59799 0.54716 0.0
C932 C 0.5223 0.6501 0.60794 0.0
H933 H 0.54049 0.7232 0.32178 0.0
H934 H 0.54647 0.69145 0.38687 0.0
H935 H 0.52026 0.68155 0.62066 0.0
H936 H 0.50292 0.5849 0.73091 0.0
H937 H 0.50391 0.6188 0.68433 0.0
H938 H 0.52652 0.62597 0.43228 0.0
C939 C 0.53433 0.70056 0.40682 0.0
C940 C 0.5218 0.66949 0.5792 0.0
C941 C 0.53107 0.71883 0.37024 0.0
C942 C 0.51182 0.5883 0.67971 0.0
C943 C 0.51252 0.60786 0.65312 0.0
C944 C 0.52563 0.63785 0.47472 0.0
C945 C 0.52157 0.69376 0.46632 0.0
C946 C 0.52334 0.6733 0.49796 0.0
C947 C 0.52368 0.61306 0.58615 0.0
C948 C 0.524 0.63391 0.55609 0.0
H949 H 0.48983 0.7328 0.47022 0.0
H950 H 0.49589 0.70127 0.53614 0.0
H951 H 0.52632 0.65961 0.38318 0.0
H952 H 0.54142 0.56725 0.541 0.0
H953 H 0.54336 0.60127 0.49665 0.0
C954 C 0.80674 0.528 0.40899 0.0
C955 C 0.79972 0.50978 0.38114 0.0
C956 C 0.82505 0.52925 0.44788 0.0
C957 C 0.86445 0.49911 0.54569 0.0
H958 H 0.89912 0.54102 0.47645 0.0
C959 C 0.94405 0.50735 0.66901 0.0
C960 C 0.95902 0.51288 0.61605 0.0
C961 C 0.92411 0.50804 0.64692 0.0
C962 C 0.88971 0.52914 0.49623 0.0
H963 H 0.80593 0.47848 0.37627 0.0
H964 H 0.83755 0.48058 0.44422 0.0
H965 H 0.86505 0.54016 0.43028 0.0
H966 H 0.96448 0.52338 0.4974 0.0
H967 H 0.92984 0.52421 0.45825 0.0
H968 H 0.88923 0.48773 0.60973 0.0
C969 C 0.82905 0.49396 0.43634 0.0
C970 C 0.87001 0.52881 0.47055 0.0
C971 C 0.8109 0.49274 0.39706 0.0
C972 C 0.95343 0.51908 0.54005 0.0
C973 C 0.93347 0.5197 0.51778 0.0
C974 C 0.88413 0.49947 0.57157 0.0
C975 C 0.83668 0.51228 0.46054 0.0
C976 C 0.85715 0.51363 0.49397 0.0
C977 C 0.91848 0.51415 0.57081 0.0
C978 C 0.89716 0.51434 0.54636 0.0
H979 H 0.79858 0.5414 0.39703 0.0
H980 H 0.83029 0.54358 0.46654 0.0
H981 H 0.85498 0.4873 0.56578 0.0
H982 H 0.94772 0.5023 0.72766 0.0
H983 H 0.91309 0.50389 0.6899 0.0
loop_
_geom_bond_atom_site_label_1
_geom_bond_atom_site_label_2
_geom_bond_distance
_geom_bond_site_symmetry_2
_ccdc_geom_bond_type
H0 C7 0.929 . S
H1 C10 0.930 . S
H2 C12 0.929 . S
H3 C4 0.969 . S
C4 H3 0.969 . S
C4 O5 1.550 . S
C4 H6 0.973 . S
O5 C4 1.550 . S
O5 C11 1.412 . S
H6 C4 0.973 . S
C7 H0 0.929 . S
C7 C8 1.400 . S
C7 C9 1.364 . S
C8 C7 1.400 . S
C8 C12 1.377 . S
C9 C7 1.364 . S
C9 C10 1.374 . S
C10 H1 0.930 . S
C10 C9 1.374 . S
C10 C11 1.383 . S
C11 O5 1.412 . S
C11 C10 1.383 . S
C11 C12 1.394 . S
C12 H2 0.929 . S
C12 C8 1.377 . S
C12 C11 1.394 . S
H13 C20 0.928 . S
H14 C23 0.932 . S
H15 C25 0.928 . S
H16 C17 0.969 . S
C17 H16 0.969 . S
C17 O18 1.550 1_455 S
C17 H19 0.973 1_455 S
O18 C17 1.550 1_655 S
O18 C24 1.411 1_655 S
H19 C17 0.973 1_655 S
C20 H13 0.928 . S
C20 C21 1.400 . S
C20 C22 1.364 . S
C21 C20 1.400 . S
C21 C25 1.377 . S
C22 C20 1.364 . S
C22 C23 1.374 . S
C23 H14 0.932 . S
C23 C22 1.374 . S
C23 C24 1.382 1_655 S
C24 O18 1.411 1_455 S
C24 C23 1.382 1_455 S
C24 C25 1.394 1_455 S
C25 H15 0.928 . S
C25 C21 1.377 . S
C25 C24 1.394 1_655 S
H26 C33 0.928 . S
H27 C36 0.932 . S
H28 C38 0.928 . S
H29 C30 0.969 . S
C30 H29 0.969 . S
C30 O31 1.550 1_545 S
C30 H32 0.973 1_545 S
O31 C30 1.550 1_565 S
O31 C37 1.412 1_565 S
H32 C30 0.973 1_565 S
C33 H26 0.928 . S
C33 C34 1.400 . S
C33 C35 1.364 . S
C34 C33 1.400 . S
C34 C38 1.377 . S
C35 C33 1.364 . S
C35 C36 1.374 . S
C36 H27 0.932 . S
C36 C35 1.374 . S
C36 C37 1.382 1_565 S
C37 O31 1.412 1_545 S
C37 C36 1.382 1_545 S
C37 C38 1.394 1_545 S
C38 H28 0.928 . S
C38 C34 1.377 . S
C38 C37 1.394 1_565 S
H39 C46 0.929 . S
H40 C49 0.930 . S
H41 C51 0.929 . S
H42 C43 0.969 . S
C43 H42 0.969 . S
C43 O44 1.550 . S
C43 H45 0.973 . S
O44 C43 1.550 . S
O44 C50 1.412 . S
H45 C43 0.973 . S
C46 H39 0.929 . S
C46 C47 1.400 . S
C46 C48 1.364 . S
C47 C46 1.400 . S
C47 C51 1.377 . S
C48 C46 1.364 . S
C48 C49 1.374 . S
C49 H40 0.930 . S
C49 C48 1.374 . S
C49 C50 1.383 . S
C50 O44 1.412 . S
C50 C49 1.383 . S
C50 C51 1.394 . S
C51 H41 0.929 . S
C51 C47 1.377 . S
C51 C50 1.394 . S
H52 C59 0.929 . S
H53 C62 0.930 . S
H54 C64 0.929 . S
H55 C56 0.969 . S
C56 H55 0.969 . S
C56 O57 1.550 . S
C56 H58 0.973 . S
O57 C56 1.550 . S
O57 C63 1.412 . S
H58 C56 0.973 . S
C59 H52 0.929 . S
C59 C60 1.400 1_554 S
C59 C61 1.364 . S
C60 C59 1.400 1_556 S
C60 C64 1.377 . S
C61 C59 1.364 . S
C61 C62 1.374 . S
C62 H53 0.930 . S
C62 C61 1.374 . S
C62 C63 1.383 . S
C63 O57 1.412 . S
C63 C62 1.383 . S
C63 C64 1.394 1_554 S
C64 H54 0.929 . S
C64 C60 1.377 . S
C64 C63 1.394 1_556 S
H65 C72 0.929 . S
H66 C75 0.930 . S
H67 C77 0.929 . S
H68 C69 0.969 . S
C69 H68 0.969 . S
C69 O70 1.541 1_455 S
C69 H71 0.973 . S
O70 C69 1.541 1_655 S
O70 C76 1.405 1_655 S
H71 C69 0.973 . S
C72 H65 0.929 . S
C72 C73 1.400 1_554 S
C72 C74 1.364 . S
C73 C72 1.400 1_556 S
C73 C77 1.377 . S
C74 C72 1.364 . S
C74 C75 1.374 . S
C75 H66 0.930 . S
C75 C74 1.374 . S
C75 C76 1.383 . S
C76 O70 1.405 1_455 S
C76 C75 1.383 . S
C76 C77 1.394 1_554 S
C77 H67 0.929 . S
C77 C73 1.377 . S
C77 C76 1.394 1_556 S
H78 C85 0.929 . S
H79 C88 0.930 . S
H80 C90 0.929 . S
H81 C82 0.969 . S
C82 H81 0.969 . S
C82 O83 1.541 1_545 S
C82 H84 0.973 . S
O83 C82 1.541 1_565 S
O83 C89 1.405 1_565 S
H84 C82 0.973 . S
C85 H78 0.929 . S
C85 C86 1.400 1_554 S
C85 C87 1.364 . S
C86 C85 1.400 1_556 S
C86 C90 1.377 . S
C87 C85 1.364 . S
C87 C88 1.374 . S
C88 H79 0.930 . S
C88 C87 1.374 . S
C88 C89 1.383 . S
C89 O83 1.405 1_545 S
C89 C88 1.383 . S
C89 C90 1.394 1_554 S
C90 H80 0.929 . S
C90 C86 1.377 . S
C90 C89 1.394 1_556 S
H91 C98 0.929 . S
H92 C101 0.930 . S
H93 C103 0.929 . S
H94 C95 0.969 . S
C95 H94 0.969 . S
C95 O96 1.550 . S
C95 H97 0.973 . S
O96 C95 1.550 . S
O96 C102 1.412 . S
H97 C95 0.973 . S
C98 H91 0.929 . S
C98 C99 1.400 1_554 S
C98 C100 1.364 . S
C99 C98 1.400 1_556 S
C99 C103 1.377 . S
C100 C98 1.364 . S
C100 C101 1.374 . S
C101 H92 0.930 . S
C101 C100 1.374 . S
C101 C102 1.383 . S
C102 O96 1.412 . S
C102 C101 1.383 . S
C102 C103 1.394 1_554 S
C103 H93 0.929 . S
C103 C99 1.377 . S
C103 C102 1.394 1_556 S
Ho104 C107 2.811 . S
Ho104 O124 2.322 . S
Ho104 O126 2.378 . S
Ho104 O127 2.543 . S
Ho104 O128 2.381 . S
Ho104 O129 2.669 1_565 S
Ho104 O131 2.346 1_565 S
Ho104 O135 2.305 1_455 S
Ho105 C116 2.811 . S
Ho105 O125 2.346 1_545 S
Ho105 O129 2.305 1_655 S
Ho105 O130 2.322 . S
Ho105 O132 2.378 . S
Ho105 O133 2.524 1_655 S
Ho105 O134 2.381 . S
Ho105 O135 2.669 1_545 S
C106 O124 1.259 1_655 S
C106 O125 1.268 . S
C107 Ho104 2.811 . S
C107 C108 1.488 . S
C107 O126 1.215 . S
C107 O127 1.330 . S
C108 C107 1.488 . S
C108 C109 1.348 . S
C108 C113 1.413 . S
C109 C108 1.348 . S
C109 C110 1.442 . S
C109 H136 0.930 1_455 S
C110 C109 1.442 . S
C110 C111 1.381 . S
C110 H137 0.931 1_455 S
C111 C110 1.381 . S
C111 C112 1.321 . S
C112 C111 1.321 . S
C112 C113 1.403 . S
C112 H138 0.934 . S
C113 C108 1.413 . S
C113 C112 1.403 . S
C113 H139 0.930 . S
C114 O128 1.275 1_545 S
C114 O129 1.256 . S
C115 O130 1.259 1_455 S
C115 O131 1.268 . S
C116 Ho105 2.811 . S
C116 C117 1.488 . S
C116 O132 1.215 . S
C116 O133 1.289 1_655 S
C117 C116 1.488 . S
C117 C118 1.337 1_655 S
C117 C122 1.413 . S
C118 C117 1.337 1_455 S
C118 C119 1.440 1_455 S
C118 H140 0.943 . S
C119 C118 1.440 1_655 S
C119 C120 1.381 . S
C119 H141 0.931 1_655 S
C120 C119 1.381 . S
C120 C121 1.321 . S
C121 C120 1.321 . S
C121 C122 1.403 . S
C121 H142 0.934 . S
C122 C117 1.413 . S
C122 C121 1.403 . S
C122 H143 0.930 . S
C123 O134 1.275 . S
C123 O135 1.256 1_545 S
O124 Ho104 2.322 . S
O124 C106 1.259 1_455 S
O125 Ho105 2.346 1_565 S
O125 C106 1.268 . S
O126 Ho104 2.378 . S
O126 C107 1.215 . S
O127 Ho104 2.543 . S
O127 C107 1.330 . S
O128 Ho104 2.381 . S
O128 C114 1.275 1_565 S
O129 Ho104 2.669 1_545 S
O129 Ho105 2.305 1_455 S
O129 C114 1.256 . S
O130 Ho105 2.322 . S
O130 C115 1.259 1_655 S
O131 Ho104 2.346 1_545 S
O131 C115 1.268 . S
O132 Ho105 2.378 . S
O132 C116 1.215 . S
O133 Ho105 2.524 1_455 S
O133 C116 1.289 1_455 S
O134 Ho105 2.381 . S
O134 C123 1.275 . S
O135 Ho104 2.305 1_655 S
O135 Ho105 2.669 1_565 S
O135 C123 1.256 1_565 S
H136 C109 0.930 1_655 S
H137 C110 0.931 1_655 S
H138 C112 0.934 . S
H139 C113 0.930 . S
H140 C118 0.943 . S
H141 C119 0.931 1_455 S
H142 C121 0.934 . S
H143 C122 0.930 . S
Ho144 C147 2.811 . S
Ho144 O164 2.322 . S
Ho144 O166 2.378 . S
Ho144 O167 2.543 . S
Ho144 O168 2.381 . S
Ho144 O169 2.669 . S
Ho144 O171 2.346 . S
Ho144 O175 2.305 1_545 S
Ho145 C156 2.811 . S
Ho145 O165 2.346 . S
Ho145 O169 2.305 1_565 S
Ho145 O170 2.322 . S
Ho145 O172 2.378 . S
Ho145 O173 2.524 1_565 S
Ho145 O174 2.381 . S
Ho145 O175 2.669 . S
C146 O164 1.259 1_565 S
C146 O165 1.268 . S
C147 Ho144 2.811 . S
C147 C148 1.488 . S
C147 O166 1.215 . S
C147 O167 1.331 . S
C148 C147 1.488 . S
C148 C149 1.348 . S
C148 C153 1.413 . S
C149 C148 1.348 . S
C149 C150 1.442 . S
C149 H176 0.930 1_545 S
C150 C149 1.442 . S
C150 C151 1.381 . S
C150 H177 0.931 1_545 S
C151 C150 1.381 . S
C151 C152 1.321 . S
C152 C151 1.321 . S
C152 C153 1.403 . S
C152 H178 0.934 . S
C153 C148 1.413 . S
C153 C152 1.403 . S
C153 H179 0.930 . S
C154 O168 1.275 . S
C154 O169 1.256 . S
C155 O170 1.259 1_545 S
C155 O171 1.268 . S
C156 Ho145 2.811 . S
C156 C157 1.488 . S
C156 O172 1.215 . S
C156 O173 1.289 1_565 S
C157 C156 1.488 . S
C157 C158 1.336 1_565 S
C157 C162 1.413 . S
C158 C157 1.336 1_545 S
C158 C159 1.440 1_545 S
C158 H180 0.944 . S
C159 C158 1.440 1_565 S
C159 C160 1.381 . S
C159 H181 0.931 1_565 S
C160 C159 1.381 . S
C160 C161 1.321 . S
C161 C160 1.321 . S
C161 C162 1.403 . S
C161 H182 0.934 . S
C162 C157 1.413 . S
C162 C161 1.403 . S
C162 H183 0.930 . S
C163 O174 1.275 . S
C163 O175 1.256 . S
O164 Ho144 2.322 . S
O164 C146 1.259 1_545 S
O165 Ho145 2.346 . S
O165 C146 1.268 . S
O166 Ho144 2.378 . S
O166 C147 1.215 . S
O167 Ho144 2.543 . S
O167 C147 1.331 . S
O168 Ho144 2.381 . S
O168 C154 1.275 . S
O169 Ho144 2.669 . S
O169 Ho145 2.305 1_545 S
O169 C154 1.256 . S
O170 Ho145 2.322 . S
O170 C155 1.259 1_565 S
O171 Ho144 2.346 . S
O171 C155 1.268 . S
O172 Ho145 2.378 . S
O172 C156 1.215 . S
O173 Ho145 2.524 1_545 S
O173 C156 1.289 1_545 S
O174 Ho145 2.381 . S
O174 C163 1.275 . S
O175 Ho144 2.305 1_565 S
O175 Ho145 2.669 . S
O175 C163 1.256 . S
H176 C149 0.930 1_565 S
H177 C150 0.931 1_565 S
H178 C152 0.934 . S
H179 C153 0.930 . S
H180 C158 0.944 . S
H181 C159 0.931 1_545 S
H182 C161 0.934 . S
H183 C162 0.930 . S
Ho184 C187 2.811 . S
Ho184 O204 2.322 . S
Ho184 O206 2.378 . S
Ho184 O207 2.524 . S
Ho184 O208 2.381 . S
Ho184 O209 2.669 . S
Ho184 O211 2.346 . S
Ho184 O215 2.305 . S
Ho185 C196 2.811 . S
Ho185 O205 2.346 . S
Ho185 O209 2.305 . S
Ho185 O210 2.322 . S
Ho185 O212 2.378 . S
Ho185 O213 2.524 . S
Ho185 O214 2.381 . S
Ho185 O215 2.669 . S
C186 O204 1.259 . S
C186 O205 1.268 . S
C187 Ho184 2.811 . S
C187 C188 1.488 . S
C187 O206 1.215 . S
C187 O207 1.289 . S
C188 C187 1.488 . S
C188 C189 1.348 . S
C188 C193 1.413 . S
C189 C188 1.348 . S
C189 C190 1.442 . S
C189 H216 0.930 . S
C190 C189 1.442 . S
C190 C191 1.381 . S
C190 H217 0.931 . S
C191 C190 1.381 . S
C191 C192 1.321 . S
C192 C191 1.321 . S
C192 C193 1.403 . S
C192 H218 0.934 . S
C193 C188 1.413 . S
C193 C192 1.403 . S
C193 H219 0.930 . S
C194 O208 1.275 . S
C194 O209 1.256 . S
C195 O210 1.259 . S
C195 O211 1.268 . S
C196 Ho185 2.811 . S
C196 C197 1.488 . S
C196 O212 1.215 . S
C196 O213 1.289 . S
C197 C196 1.488 . S
C197 C198 1.348 . S
C197 C202 1.413 . S
C198 C197 1.348 . S
C198 C199 1.442 . S
C198 H220 0.930 . S
C199 C198 1.442 . S
C199 C200 1.381 . S
C199 H221 0.931 . S
C200 C199 1.381 . S
C200 C201 1.321 . S
C201 C200 1.321 . S
C201 C202 1.403 . S
C201 H222 0.934 . S
C202 C197 1.413 . S
C202 C201 1.403 . S
C202 H223 0.930 . S
C203 O214 1.275 . S
C203 O215 1.256 . S
O204 Ho184 2.322 . S
O204 C186 1.259 . S
O205 Ho185 2.346 . S
O205 C186 1.268 . S
O206 Ho184 2.378 . S
O206 C187 1.215 . S
O207 Ho184 2.524 . S
O207 C187 1.289 . S
O208 Ho184 2.381 . S
O208 C194 1.275 . S
O209 Ho184 2.669 . S
O209 Ho185 2.305 . S
O209 C194 1.256 . S
O210 Ho185 2.322 . S
O210 C195 1.259 . S
O211 Ho184 2.346 . S
O211 C195 1.268 . S
O212 Ho185 2.378 . S
O212 C196 1.215 . S
O213 Ho185 2.524 . S
O213 C196 1.289 . S
O214 Ho185 2.381 . S
O214 C203 1.275 . S
O215 Ho184 2.305 . S
O215 Ho185 2.669 . S
O215 C203 1.256 . S
H216 C189 0.930 . S
H217 C190 0.931 . S
H218 C192 0.934 . S
H219 C193 0.930 . S
H220 C198 0.930 . S
H221 C199 0.931 . S
H222 C201 0.934 . S
H223 C202 0.930 . S
Ho224 C227 2.811 . S
Ho224 O244 2.322 . S
Ho224 O246 2.378 . S
Ho224 O247 2.524 . S
Ho224 O248 2.381 . S
Ho224 O249 2.669 1_655 S
Ho224 O251 2.346 1_655 S
Ho224 O255 2.305 . S
Ho225 C236 2.811 . S
Ho225 O245 2.346 1_455 S
Ho225 O249 2.305 . S
Ho225 O250 2.322 . S
Ho225 O252 2.378 . S
Ho225 O253 2.524 . S
Ho225 O254 2.381 . S
Ho225 O255 2.669 1_455 S
C226 O244 1.259 . S
C226 O245 1.268 . S
C227 Ho224 2.811 . S
C227 C228 1.488 . S
C227 O246 1.215 . S
C227 O247 1.289 . S
C228 C227 1.488 . S
C228 C229 1.348 . S
C228 C233 1.413 . S
C229 C228 1.348 . S
C229 C230 1.442 . S
C229 H256 0.930 . S
C230 C229 1.442 . S
C230 C231 1.381 . S
C230 H257 0.931 . S
C231 C230 1.381 . S
C231 C232 1.321 . S
C232 C231 1.321 . S
C232 C233 1.403 . S
C232 H258 0.934 . S
C233 C228 1.413 . S
C233 C232 1.403 . S
C233 H259 0.930 . S
C234 O248 1.275 1_455 S
C234 O249 1.256 . S
C235 O250 1.259 . S
C235 O251 1.268 . S
C236 Ho225 2.811 . S
C236 C237 1.488 . S
C236 O252 1.215 . S
C236 O253 1.289 . S
C237 C236 1.488 . S
C237 C238 1.348 . S
C237 C242 1.413 . S
C238 C237 1.348 . S
C238 C239 1.442 . S
C238 H260 0.930 . S
C239 C238 1.442 . S
C239 C240 1.381 . S
C239 H261 0.931 . S
C240 C239 1.381 . S
C240 C241 1.321 . S
C241 C240 1.321 . S
C241 C242 1.403 . S
C241 H262 0.934 . S
C242 C237 1.413 . S
C242 C241 1.403 . S
C242 H263 0.930 . S
C243 O254 1.275 . S
C243 O255 1.256 1_455 S
O244 Ho224 2.322 . S
O244 C226 1.259 . S
O245 Ho225 2.346 1_655 S
O245 C226 1.268 . S
O246 Ho224 2.378 . S
O246 C227 1.215 . S
O247 Ho224 2.524 . S
O247 C227 1.289 . S
O248 Ho224 2.381 . S
O248 C234 1.275 1_655 S
O249 Ho224 2.669 1_455 S
O249 Ho225 2.305 . S
O249 C234 1.256 . S
O250 Ho225 2.322 . S
O250 C235 1.259 . S
O251 Ho224 2.346 1_455 S
O251 C235 1.268 . S
O252 Ho225 2.378 . S
O252 C236 1.215 . S
O253 Ho225 2.524 . S
O253 C236 1.289 . S
O254 Ho225 2.381 . S
O254 C243 1.275 . S
O255 Ho224 2.305 . S
O255 Ho225 2.669 1_655 S
O255 C243 1.256 1_655 S
H256 C229 0.930 . S
H257 C230 0.931 . S
H258 C232 0.934 . S
H259 C233 0.930 . S
H260 C238 0.930 . S
H261 C239 0.931 . S
H262 C241 0.934 . S
H263 C242 0.930 . S
C264 C265 1.349 . S
C264 C266 1.327 . S
C264 H289 0.950 . S
C265 C264 1.349 . S
C265 C281 1.349 1_545 S
C266 C264 1.327 . S
C266 C285 1.429 . S
C266 H290 0.950 . S
C267 C284 1.574 . S
C267 C286 1.368 1_565 S
C267 H291 0.949 . S
H268 C272 0.949 . S
C269 C270 1.349 1_565 S
C269 C271 1.327 . S
C269 H292 0.950 . S
C270 C269 1.349 1_545 S
C270 C282 1.349 . S
C271 C269 1.327 . S
C271 C287 1.429 1_565 S
C271 H293 0.950 . S
C272 H268 0.949 . S
C272 C280 1.574 . S
C272 C288 1.368 . S
H273 C281 0.950 . S
H274 C279 0.950 . S
H275 C280 0.949 . S
H276 C282 0.950 . S
H277 C283 0.950 . S
H278 C284 0.949 . S
C279 H274 0.950 . S
C279 C281 1.327 . S
C279 C285 1.429 1_565 S
C280 C272 1.574 . S
C280 H275 0.949 . S
C280 C286 1.368 . S
C281 C265 1.349 1_565 S
C281 H273 0.950 . S
C281 C279 1.327 . S
C282 C270 1.349 . S
C282 H276 0.950 . S
C282 C283 1.327 . S
C283 H277 0.950 . S
C283 C282 1.327 . S
C283 C287 1.429 . S
C284 C267 1.574 . S
C284 H278 0.949 . S
C284 C288 1.368 1_565 S
C285 C266 1.429 . S
C285 C279 1.429 1_545 S
C285 C286 1.523 . S
C286 C267 1.368 1_545 S
C286 C280 1.368 . S
C286 C285 1.523 . S
C287 C271 1.429 1_545 S
C287 C283 1.429 . S
C287 C288 1.523 . S
C288 C272 1.368 . S
C288 C284 1.368 1_545 S
C288 C287 1.523 . S
H289 C264 0.950 . S
H290 C266 0.950 . S
H291 C267 0.949 . S
H292 C269 0.950 . S
H293 C271 0.950 . S
C294 C295 1.349 . S
C294 C296 1.327 . S
C294 H319 0.950 . S
C295 C294 1.349 . S
C295 C311 1.349 . S
C296 C294 1.327 . S
C296 C315 1.429 . S
C296 H320 0.950 . S
C297 C314 1.574 . S
C297 C316 1.368 . S
C297 H321 0.949 . S
H298 C302 0.949 . S
C299 C300 1.349 . S
C299 C301 1.327 . S
C299 H322 0.950 . S
C300 C299 1.349 . S
C300 C312 1.349 . S
C301 C299 1.327 . S
C301 C317 1.429 . S
C301 H323 0.950 . S
C302 H298 0.949 . S
C302 C310 1.574 . S
C302 C318 1.368 . S
H303 C311 0.950 . S
H304 C309 0.950 . S
H305 C310 0.949 . S
H306 C312 0.950 . S
H307 C313 0.950 . S
H308 C314 0.949 . S
C309 H304 0.950 . S
C309 C311 1.327 . S
C309 C315 1.429 . S
C310 C302 1.574 . S
C310 H305 0.949 . S
C310 C316 1.368 . S
C311 C295 1.349 . S
C311 H303 0.950 . S
C311 C309 1.327 . S
C312 C300 1.349 . S
C312 H306 0.950 . S
C312 C313 1.327 . S
C313 H307 0.950 . S
C313 C312 1.327 . S
C313 C317 1.429 . S
C314 C297 1.574 . S
C314 H308 0.949 . S
C314 C318 1.368 . S
C315 C296 1.429 . S
C315 C309 1.429 . S
C315 C316 1.523 . S
C316 C297 1.368 . S
C316 C310 1.368 . S
C316 C315 1.523 . S
C317 C301 1.429 . S
C317 C313 1.429 . S
C317 C318 1.523 . S
C318 C302 1.368 . S
C318 C314 1.368 . S
C318 C317 1.523 . S
H319 C294 0.950 . S
H320 C296 0.950 . S
H321 C297 0.949 . S
H322 C299 0.950 . S
H323 C301 0.950 . S
C324 C325 1.349 . S
C324 C326 1.327 . S
C324 H349 0.950 . S
C325 C324 1.349 . S
C325 C341 1.349 . S
C326 C324 1.327 . S
C326 C345 1.429 . S
C326 H350 0.950 . S
C327 C344 1.574 . S
C327 C346 1.368 . S
C327 H351 0.949 . S
H328 C332 0.949 . S
C329 C330 1.349 . S
C329 C331 1.327 . S
C329 H352 0.950 . S
C330 C329 1.349 . S
C330 C342 1.349 . S
C331 C329 1.327 . S
C331 C347 1.429 . S
C331 H353 0.950 . S
C332 H328 0.949 . S
C332 C340 1.574 . S
C332 C348 1.368 . S
H333 C341 0.950 . S
H334 C339 0.950 . S
H335 C340 0.949 . S
H336 C342 0.950 . S
H337 C343 0.950 . S
H338 C344 0.949 . S
C339 H334 0.950 . S
C339 C341 1.327 . S
C339 C345 1.429 . S
C340 C332 1.574 . S
C340 H335 0.949 . S
C340 C346 1.368 . S
C341 C325 1.349 . S
C341 H333 0.950 . S
C341 C339 1.327 . S
C342 C330 1.349 . S
C342 H336 0.950 . S
C342 C343 1.327 . S
C343 H337 0.950 . S
C343 C342 1.327 . S
C343 C347 1.429 . S
C344 C327 1.574 . S
C344 H338 0.949 . S
C344 C348 1.368 . S
C345 C326 1.429 . S
C345 C339 1.429 . S
C345 C346 1.523 . S
C346 C327 1.368 . S
C346 C340 1.368 . S
C346 C345 1.523 . S
C347 C331 1.429 . S
C347 C343 1.429 . S
C347 C348 1.523 . S
C348 C332 1.368 . S
C348 C344 1.368 . S
C348 C347 1.523 . S
H349 C324 0.950 . S
H350 C326 0.950 . S
H351 C327 0.949 . S
H352 C329 0.950 . S
H353 C331 0.950 . S
C354 C355 1.349 1_655 S
C354 C356 1.327 . S
C354 H379 0.950 . S
C355 C354 1.349 1_455 S
C355 C371 1.349 . S
C356 C354 1.327 . S
C356 C375 1.429 1_655 S
C356 H380 0.950 . S
C357 C374 1.574 . S
C357 C376 1.368 . S
C357 H381 0.949 . S
H358 C362 0.949 . S
C359 C360 1.349 . S
C359 C361 1.327 . S
C359 H382 0.950 . S
C360 C359 1.349 . S
C360 C372 1.349 1_455 S
C361 C359 1.327 . S
C361 C377 1.429 . S
C361 H383 0.950 . S
C362 H358 0.949 . S
C362 C370 1.574 . S
C362 C378 1.368 1_655 S
H363 C371 0.950 . S
H364 C369 0.950 . S
H365 C370 0.949 . S
H366 C372 0.950 . S
H367 C373 0.950 . S
H368 C374 0.949 . S
C369 H364 0.950 . S
C369 C371 1.327 . S
C369 C375 1.429 . S
C370 C362 1.574 . S
C370 H365 0.949 . S
C370 C376 1.368 1_655 S
C371 C355 1.349 . S
C371 H363 0.950 . S
C371 C369 1.327 . S
C372 C360 1.349 1_655 S
C372 H366 0.950 . S
C372 C373 1.327 . S
C373 H367 0.950 . S
C373 C372 1.327 . S
C373 C377 1.429 1_655 S
C374 C357 1.574 . S
C374 H368 0.949 . S
C374 C378 1.368 . S
C375 C356 1.429 1_455 S
C375 C369 1.429 . S
C375 C376 1.523 . S
C376 C357 1.368 . S
C376 C370 1.368 1_455 S
C376 C375 1.523 . S
C377 C361 1.429 . S
C377 C373 1.429 1_455 S
C377 C378 1.523 . S
C378 C362 1.368 1_455 S
C378 C374 1.368 . S
C378 C377 1.523 . S
H379 C354 0.950 . S
H380 C356 0.950 . S
H381 C357 0.949 . S
H382 C359 0.950 . S
H383 C361 0.950 . S
C384 C385 1.337 1_545 S
C384 C386 1.327 . S
C384 H409 0.950 . S
C385 C384 1.337 1_565 S
C385 C401 1.361 . S
C386 C384 1.327 . S
C386 C405 1.427 1_545 S
C386 H410 0.950 . S
C387 C404 1.574 1_554 S
C387 C406 1.364 . S
C387 H411 0.949 . S
H388 C392 0.949 . S
C389 C390 1.329 1_565 S
C389 C391 1.327 . S
C389 H412 0.950 . S
C390 C389 1.329 1_545 S
C390 C402 1.369 . S
C391 C389 1.327 . S
C391 C407 1.419 1_565 S
C391 H413 0.950 . S
C392 H388 0.949 . S
C392 C400 1.574 . S
C392 C408 1.373 1_554 S
H393 C401 0.950 . S
H394 C399 0.950 . S
H395 C400 0.949 . S
H396 C402 0.950 . S
H397 C403 0.950 . S
H398 C404 0.949 . S
C399 H394 0.950 . S
C399 C401 1.327 . S
C399 C405 1.430 . S
C400 C392 1.574 . S
C400 H395 0.949 . S
C400 C406 1.373 1_545 S
C401 C385 1.361 . S
C401 H393 0.950 . S
C401 C399 1.327 . S
C402 C390 1.369 . S
C402 H396 0.950 . S
C402 C403 1.327 . S
C403 H397 0.950 . S
C403 C402 1.327 . S
C403 C407 1.438 . S
C404 C387 1.574 1_556 S
C404 H398 0.949 . S
C404 C408 1.364 1_565 S
C405 C386 1.427 1_565 S
C405 C399 1.430 . S
C405 C406 1.523 . S
C406 C387 1.364 . S
C406 C400 1.373 1_565 S
C406 C405 1.523 . S
C407 C391 1.419 1_545 S
C407 C403 1.438 . S
C407 C408 1.523 . S
C408 C392 1.373 1_556 S
C408 C404 1.364 1_545 S
C408 C407 1.523 . S
H409 C384 0.950 . S
H410 C386 0.950 . S
H411 C387 0.949 . S
H412 C389 0.950 . S
H413 C391 0.950 . S
C414 C415 1.349 . S
C414 C416 1.327 . S
C414 H439 0.950 . S
C415 C414 1.349 . S
C415 C431 1.349 . S
C416 C414 1.327 . S
C416 C435 1.429 . S
C416 H440 0.950 . S
C417 C434 1.574 . S
C417 C436 1.368 . S
C417 H441 0.949 . S
H418 C422 0.949 . S
C419 C420 1.349 . S
C419 C421 1.327 . S
C419 H442 0.950 . S
C420 C419 1.349 . S
C420 C432 1.349 . S
C421 C419 1.327 . S
C421 C437 1.429 . S
C421 H443 0.950 1_556 S
C422 H418 0.949 . S
C422 C430 1.574 1_556 S
C422 C438 1.368 . S
H423 C431 0.950 . S
H424 C429 0.950 . S
H425 C430 0.949 . S
H426 C432 0.950 . S
H427 C433 0.950 . S
H428 C434 0.949 . S
C429 H424 0.950 . S
C429 C431 1.327 . S
C429 C435 1.429 . S
C430 C422 1.574 1_554 S
C430 H425 0.949 . S
C430 C436 1.368 . S
C431 C415 1.349 . S
C431 H423 0.950 . S
C431 C429 1.327 . S
C432 C420 1.349 . S
C432 H426 0.950 . S
C432 C433 1.327 . S
C433 H427 0.950 . S
C433 C432 1.327 . S
C433 C437 1.429 . S
C434 C417 1.574 . S
C434 H428 0.949 . S
C434 C438 1.368 1_554 S
C435 C416 1.429 . S
C435 C429 1.429 . S
C435 C436 1.523 . S
C436 C417 1.368 . S
C436 C430 1.368 . S
C436 C435 1.523 . S
C437 C421 1.429 . S
C437 C433 1.429 . S
C437 C438 1.523 . S
C438 C422 1.368 . S
C438 C434 1.368 1_556 S
C438 C437 1.523 . S
H439 C414 0.950 . S
H440 C416 0.950 . S
H441 C417 0.949 . S
H442 C419 0.950 . S
H443 C421 0.950 1_554 S
C444 C445 1.349 . S
C444 C446 1.327 . S
C444 H469 0.950 . S
C445 C444 1.349 . S
C445 C461 1.349 . S
C446 C444 1.327 . S
C446 C465 1.429 . S
C446 H470 0.950 . S
C447 C464 1.574 1_554 S
C447 C466 1.368 . S
C447 H471 0.949 . S
H448 C452 0.949 . S
C449 C450 1.349 . S
C449 C451 1.327 . S
C449 H472 0.950 . S
C450 C449 1.349 . S
C450 C462 1.349 . S
C451 C449 1.327 . S
C451 C467 1.429 . S
C451 H473 0.950 . S
C452 H448 0.949 . S
C452 C460 1.574 . S
C452 C468 1.368 1_554 S
H453 C461 0.950 . S
H454 C459 0.950 . S
H455 C460 0.949 . S
H456 C462 0.950 . S
H457 C463 0.950 . S
H458 C464 0.949 . S
C459 H454 0.950 . S
C459 C461 1.327 . S
C459 C465 1.429 . S
C460 C452 1.574 . S
C460 H455 0.949 . S
C460 C466 1.368 . S
C461 C445 1.349 . S
C461 H453 0.950 . S
C461 C459 1.327 . S
C462 C450 1.349 . S
C462 H456 0.950 . S
C462 C463 1.327 . S
C463 H457 0.950 . S
C463 C462 1.327 . S
C463 C467 1.429 . S
C464 C447 1.574 1_556 S
C464 H458 0.949 . S
C464 C468 1.368 . S
C465 C446 1.429 . S
C465 C459 1.429 . S
C465 C466 1.523 . S
C466 C447 1.368 . S
C466 C460 1.368 . S
C466 C465 1.523 . S
C467 C451 1.429 . S
C467 C463 1.429 . S
C467 C468 1.523 . S
C468 C452 1.368 1_556 S
C468 C464 1.368 . S
C468 C467 1.523 . S
H469 C444 0.950 . S
H470 C446 0.950 . S
H471 C447 0.949 . S
H472 C449 0.950 . S
H473 C451 0.950 . S
C474 C475 1.359 . S
C474 C476 1.327 . S
C474 H499 0.950 . S
C475 C474 1.359 . S
C475 C491 1.339 1_655 S
C476 C474 1.327 . S
C476 C495 1.429 . S
C476 H500 0.950 . S
C477 C494 1.574 1_554 S
C477 C496 1.373 1_455 S
C477 H501 0.949 . S
H478 C482 0.949 . S
C479 C480 1.367 . S
C479 C481 1.327 . S
C479 H502 0.950 . S
C480 C479 1.367 . S
C480 C492 1.331 1_455 S
C481 C479 1.327 . S
C481 C497 1.437 . S
C481 H503 0.950 . S
C482 H478 0.949 . S
C482 C490 1.574 . S
C482 C498 1.364 1_654 S
H483 C491 0.950 . S
H484 C489 0.950 . S
H485 C490 0.949 . S
H486 C492 0.950 . S
H487 C493 0.950 . S
H488 C494 0.949 . S
C489 H484 0.950 . S
C489 C491 1.327 . S
C489 C495 1.428 1_455 S
C490 C482 1.574 . S
C490 H485 0.949 . S
C490 C496 1.364 . S
C491 C475 1.339 1_455 S
C491 H483 0.950 . S
C491 C489 1.327 . S
C492 C480 1.331 1_655 S
C492 H486 0.950 . S
C492 C493 1.327 . S
C493 H487 0.950 . S
C493 C492 1.327 . S
C493 C497 1.420 1_655 S
C494 C477 1.574 1_556 S
C494 H488 0.949 . S
C494 C498 1.373 . S
C495 C476 1.429 . S
C495 C489 1.428 1_655 S
C495 C496 1.523 . S
C496 C477 1.373 1_655 S
C496 C490 1.364 . S
C496 C495 1.523 . S
C497 C481 1.437 . S
C497 C493 1.420 1_455 S
C497 C498 1.523 . S
C498 C482 1.364 1_456 S
C498 C494 1.373 . S
C498 C497 1.523 . S
H499 C474 0.950 . S
H500 C476 0.950 . S
H501 C477 0.949 . S
H502 C479 0.950 . S
H503 C481 0.950 . S
C504 C505 1.357 . S
C504 C506 1.322 1_455 S
C504 H529 0.946 1_455 S
C505 C504 1.357 . S
C505 C521 1.349 . S
C506 C504 1.322 1_655 S
C506 C525 1.429 . S
C506 H530 0.950 . S
C507 C524 1.574 . S
C507 C526 1.368 . S
C507 H531 0.949 1_655 S
H508 C512 0.949 . S
C509 C510 1.349 . S
C509 C511 1.327 . S
C509 H532 0.950 . S
C510 C509 1.349 . S
C510 C522 1.349 . S
C511 C509 1.327 . S
C511 C527 1.429 . S
C511 H533 0.950 . S
C512 H508 0.949 . S
C512 C520 1.574 . S
C512 C528 1.368 . S
H513 C521 0.950 . S
H514 C519 0.950 . S
H515 C520 0.949 . S
H516 C522 0.950 . S
H517 C523 0.950 . S
H518 C524 0.949 . S
C519 H514 0.950 . S
C519 C521 1.327 . S
C519 C525 1.429 1_455 S
C520 C512 1.574 . S
C520 H515 0.949 . S
C520 C526 1.368 . S
C521 C505 1.349 . S
C521 H513 0.950 . S
C521 C519 1.327 . S
C522 C510 1.349 . S
C522 H516 0.950 . S
C522 C523 1.327 . S
C523 H517 0.950 . S
C523 C522 1.327 . S
C523 C527 1.429 . S
C524 C507 1.574 . S
C524 H518 0.949 . S
C524 C528 1.368 . S
C525 C506 1.429 . S
C525 C519 1.429 1_655 S
C525 C526 1.523 . S
C526 C507 1.368 . S
C526 C520 1.368 . S
C526 C525 1.523 . S
C527 C511 1.429 . S
C527 C523 1.429 . S
C527 C528 1.523 . S
C528 C512 1.368 . S
C528 C524 1.368 . S
C528 C527 1.523 . S
H529 C504 0.946 1_655 S
H530 C506 0.950 . S
H531 C507 0.949 1_455 S
H532 C509 0.950 . S
H533 C511 0.950 . S
C534 C535 1.349 1_565 S
C534 C536 1.327 . S
C534 H559 0.950 . S
C535 C534 1.349 1_545 S
C535 C551 1.349 . S
C536 C534 1.327 . S
C536 C555 1.429 . S
C536 H560 0.950 . S
C537 C554 1.574 . S
C537 C556 1.368 1_545 S
C537 H561 0.949 . S
H538 C542 0.949 . S
C539 C540 1.349 . S
C539 C541 1.327 . S
C539 H562 0.958 . S
C540 C539 1.349 . S
C540 C552 1.349 . S
C541 C539 1.327 . S
C541 C557 1.429 . S
C541 H563 0.950 1_565 S
C542 H538 0.949 . S
C542 C550 1.574 . S
C542 C558 1.368 . S
H543 C551 0.950 . S
H544 C549 0.950 . S
H545 C550 0.949 . S
H546 C552 0.950 . S
H547 C553 0.950 . S
H548 C554 0.949 . S
C549 H544 0.950 . S
C549 C551 1.327 . S
C549 C555 1.429 1_545 S
C550 C542 1.574 . S
C550 H545 0.949 . S
C550 C556 1.368 . S
C551 C535 1.349 . S
C551 H543 0.950 . S
C551 C549 1.327 . S
C552 C540 1.349 . S
C552 H546 0.950 . S
C552 C553 1.327 . S
C553 H547 0.950 . S
C553 C552 1.327 . S
C553 C557 1.429 . S
C554 C537 1.574 . S
C554 H548 0.949 . S
C554 C558 1.368 1_545 S
C555 C536 1.429 . S
C555 C549 1.429 1_565 S
C555 C556 1.523 . S
C556 C537 1.368 1_565 S
C556 C550 1.368 . S
C556 C555 1.523 . S
C557 C541 1.429 . S
C557 C553 1.429 . S
C557 C558 1.523 . S
C558 C542 1.368 . S
C558 C554 1.368 1_565 S
C558 C557 1.523 . S
H559 C534 0.950 . S
H560 C536 0.950 . S
H561 C537 0.949 . S
H562 C539 0.958 . S
H563 C541 0.950 1_545 S
C564 C565 1.349 . S
C564 C566 1.327 . S
C564 H589 0.950 . S
C565 C564 1.349 . S
C565 C581 1.349 . S
C566 C564 1.327 . S
C566 C585 1.429 . S
C566 H590 0.950 . S
C567 C584 1.574 . S
C567 C586 1.368 . S
C567 H591 0.949 . S
H568 C572 0.949 . S
C569 C570 1.349 . S
C569 C571 1.327 . S
C569 H592 0.950 . S
C570 C569 1.349 . S
C570 C582 1.349 . S
C571 C569 1.327 . S
C571 C587 1.429 . S
C571 H593 0.950 . S
C572 H568 0.949 . S
C572 C580 1.574 . S
C572 C588 1.368 . S
H573 C581 0.950 . S
H574 C579 0.950 . S
H575 C580 0.949 . S
H576 C582 0.950 . S
H577 C583 0.950 . S
H578 C584 0.949 . S
C579 H574 0.950 . S
C579 C581 1.327 . S
C579 C585 1.429 . S
C580 C572 1.574 . S
C580 H575 0.949 . S
C580 C586 1.368 . S
C581 C565 1.349 . S
C581 H573 0.950 . S
C581 C579 1.327 . S
C582 C570 1.349 . S
C582 H576 0.950 . S
C582 C583 1.327 . S
C583 H577 0.950 . S
C583 C582 1.327 . S
C583 C587 1.429 . S
C584 C567 1.574 . S
C584 H578 0.949 . S
C584 C588 1.368 . S
C585 C566 1.429 . S
C585 C579 1.429 . S
C585 C586 1.523 . S
C586 C567 1.368 . S
C586 C580 1.368 . S
C586 C585 1.523 . S
C587 C571 1.429 . S
C587 C583 1.429 . S
C587 C588 1.523 . S
C588 C572 1.368 . S
C588 C584 1.368 . S
C588 C587 1.523 . S
H589 C564 0.950 . S
H590 C566 0.950 . S
H591 C567 0.949 . S
H592 C569 0.950 . S
H593 C571 0.950 . S
C594 C595 1.349 . S
C594 C596 1.327 . S
C594 H619 0.950 . S
C595 C594 1.349 . S
C595 C611 1.349 . S
C596 C594 1.327 . S
C596 C615 1.429 . S
C596 H620 0.950 . S
C597 C614 1.574 . S
C597 C616 1.368 . S
C597 H621 0.949 . S
H598 C602 0.949 . S
C599 C600 1.349 . S
C599 C601 1.327 . S
C599 H622 0.950 . S
C600 C599 1.349 . S
C600 C612 1.349 . S
C601 C599 1.327 . S
C601 C617 1.429 . S
C601 H623 0.950 . S
C602 H598 0.949 . S
C602 C610 1.574 . S
C602 C618 1.368 . S
H603 C611 0.950 . S
H604 C609 0.950 . S
H605 C610 0.949 . S
H606 C612 0.950 . S
H607 C613 0.950 . S
H608 C614 0.949 . S
C609 H604 0.950 . S
C609 C611 1.327 . S
C609 C615 1.429 . S
C610 C602 1.574 . S
C610 H605 0.949 . S
C610 C616 1.368 . S
C611 C595 1.349 . S
C611 H603 0.950 . S
C611 C609 1.327 . S
C612 C600 1.349 . S
C612 H606 0.950 . S
C612 C613 1.327 . S
C613 H607 0.950 . S
C613 C612 1.327 . S
C613 C617 1.429 . S
C614 C597 1.574 . S
C614 H608 0.949 . S
C614 C618 1.368 . S
C615 C596 1.429 . S
C615 C609 1.429 . S
C615 C616 1.523 . S
C616 C597 1.368 . S
C616 C610 1.368 . S
C616 C615 1.523 . S
C617 C601 1.429 . S
C617 C613 1.429 . S
C617 C618 1.523 . S
C618 C602 1.368 . S
C618 C614 1.368 . S
C618 C617 1.523 . S
H619 C594 0.950 . S
H620 C596 0.950 . S
H621 C597 0.949 . S
H622 C599 0.950 . S
H623 C601 0.950 . S
C624 C625 1.349 1_455 S
C624 C626 1.327 . S
C624 H649 0.950 . S
C625 C624 1.349 1_655 S
C625 C641 1.349 . S
C626 C624 1.327 . S
C626 C645 1.429 . S
C626 H650 0.950 . S
C627 C644 1.574 1_655 S
C627 C646 1.368 1_655 S
C627 H651 0.949 . S
H628 C632 0.949 . S
C629 C630 1.349 . S
C629 C631 1.327 . S
C629 H652 0.950 . S
C630 C629 1.349 . S
C630 C642 1.349 1_556 S
C631 C629 1.327 . S
C631 C647 1.429 1_556 S
C631 H653 0.950 1_455 S
C632 H628 0.949 . S
C632 C640 1.574 . S
C632 C648 1.368 . S
H633 C641 0.950 . S
H634 C639 0.950 . S
H635 C640 0.949 . S
H636 C642 0.950 . S
H637 C643 0.950 . S
H638 C644 0.949 1_655 S
C639 H634 0.950 . S
C639 C641 1.327 . S
C639 C645 1.429 1_655 S
C640 C632 1.574 . S
C640 H635 0.949 . S
C640 C646 1.368 . S
C641 C625 1.349 . S
C641 H633 0.950 . S
C641 C639 1.327 . S
C642 C630 1.349 1_554 S
C642 H636 0.950 . S
C642 C643 1.327 . S
C643 H637 0.950 . S
C643 C642 1.327 . S
C643 C647 1.429 . S
C644 C627 1.574 1_455 S
C644 H638 0.949 1_455 S
C644 C648 1.368 . S
C645 C626 1.429 . S
C645 C639 1.429 1_455 S
C645 C646 1.523 . S
C646 C627 1.368 1_455 S
C646 C640 1.368 . S
C646 C645 1.523 . S
C647 C631 1.429 1_554 S
C647 C643 1.429 . S
C647 C648 1.523 . S
C648 C632 1.368 . S
C648 C644 1.368 . S
C648 C647 1.523 . S
H649 C624 0.950 . S
H650 C626 0.950 . S
H651 C627 0.949 . S
H652 C629 0.950 . S
H653 C631 0.950 1_655 S
C654 C655 1.349 1_545 S
C654 C656 1.327 . S
C654 H679 0.950 . S
C655 C654 1.349 1_565 S
C655 C671 1.349 . S
C656 C654 1.327 . S
C656 C675 1.429 . S
C656 H680 0.950 . S
C657 C674 1.574 . S
C657 C676 1.368 1_565 S
C657 H681 0.949 . S
H658 C662 0.949 . S
C659 C660 1.353 . S
C659 C661 1.321 1_556 S
C659 H682 0.908 1_545 S
C660 C659 1.353 . S
C660 C672 1.349 . S
C661 C659 1.321 1_554 S
C661 C677 1.429 . S
C661 H683 0.950 1_545 S
C662 H658 0.949 . S
C662 C670 1.574 . S
C662 C678 1.368 . S
H663 C671 0.950 . S
H664 C669 0.950 . S
H665 C670 0.949 . S
H666 C672 0.950 . S
H667 C673 0.950 . S
H668 C674 0.949 . S
C669 H664 0.950 . S
C669 C671 1.327 . S
C669 C675 1.429 1_565 S
C670 C662 1.574 . S
C670 H665 0.949 . S
C670 C676 1.368 . S
C671 C655 1.349 . S
C671 H663 0.950 . S
C671 C669 1.327 . S
C672 C660 1.349 . S
C672 H666 0.950 . S
C672 C673 1.327 1_556 S
C673 H667 0.950 . S
C673 C672 1.327 1_554 S
C673 C677 1.429 . S
C674 C657 1.574 . S
C674 H668 0.949 . S
C674 C678 1.368 1_565 S
C675 C656 1.429 . S
C675 C669 1.429 1_545 S
C675 C676 1.523 . S
C676 C657 1.368 1_545 S
C676 C670 1.368 . S
C676 C675 1.523 . S
C677 C661 1.429 . S
C677 C673 1.429 . S
C677 C678 1.523 . S
C678 C662 1.368 . S
C678 C674 1.368 1_545 S
C678 C677 1.523 . S
H679 C654 0.950 . S
H680 C656 0.950 . S
H681 C657 0.949 . S
H682 C659 0.908 1_565 S
H683 C661 0.950 1_565 S
C684 C685 1.349 . S
C684 C686 1.327 . S
C684 H709 0.950 . S
C685 C684 1.349 . S
C685 C701 1.349 . S
C686 C684 1.327 . S
C686 C705 1.429 . S
C686 H710 0.950 . S
C687 C704 1.574 . S
C687 C706 1.368 . S
C687 H711 0.949 . S
H688 C692 0.949 . S
C689 C690 1.349 1_554 S
C689 C691 1.327 . S
C689 H712 0.950 . S
C690 C689 1.349 1_556 S
C690 C702 1.349 . S
C691 C689 1.327 . S
C691 C707 1.429 . S
C691 H713 0.950 . S
C692 H688 0.949 . S
C692 C700 1.574 . S
C692 C708 1.368 . S
H693 C701 0.950 . S
H694 C699 0.950 . S
H695 C700 0.949 . S
H696 C702 0.950 . S
H697 C703 0.950 . S
H698 C704 0.949 . S
C699 H694 0.950 . S
C699 C701 1.327 . S
C699 C705 1.429 . S
C700 C692 1.574 . S
C700 H695 0.949 . S
C700 C706 1.368 . S
C701 C685 1.349 . S
C701 H693 0.950 . S
C701 C699 1.327 . S
C702 C690 1.349 . S
C702 H696 0.950 . S
C702 C703 1.327 . S
C703 H697 0.950 . S
C703 C702 1.327 . S
C703 C707 1.429 1_556 S
C704 C687 1.574 . S
C704 H698 0.949 . S
C704 C708 1.368 . S
C705 C686 1.429 . S
C705 C699 1.429 . S
C705 C706 1.523 . S
C706 C687 1.368 . S
C706 C700 1.368 . S
C706 C705 1.523 . S
C707 C691 1.429 . S
C707 C703 1.429 1_554 S
C707 C708 1.523 . S
C708 C692 1.368 . S
C708 C704 1.368 . S
C708 C707 1.523 . S
H709 C684 0.950 . S
H710 C686 0.950 . S
H711 C687 0.949 . S
H712 C689 0.950 . S
H713 C691 0.950 . S
C714 C715 1.349 . S
C714 C716 1.327 . S
C714 H739 0.950 . S
C715 C714 1.349 . S
C715 C731 1.349 . S
C716 C714 1.327 . S
C716 C735 1.429 . S
C716 H740 0.950 . S
C717 C734 1.574 . S
C717 C736 1.368 . S
C717 H741 0.949 . S
H718 C722 0.949 . S
C719 C720 1.349 . S
C719 C721 1.327 1_556 S
C719 H742 0.950 . S
C720 C719 1.349 . S
C720 C732 1.349 1_556 S
C721 C719 1.327 1_554 S
C721 C737 1.429 . S
C721 H743 0.950 . S
C722 H718 0.949 . S
C722 C730 1.574 . S
C722 C738 1.368 . S
H723 C731 0.950 . S
H724 C729 0.950 . S
H725 C730 0.949 . S
H726 C732 0.950 . S
H727 C733 0.950 . S
H728 C734 0.949 . S
C729 H724 0.950 . S
C729 C731 1.327 . S
C729 C735 1.429 . S
C730 C722 1.574 . S
C730 H725 0.949 . S
C730 C736 1.368 . S
C731 C715 1.349 . S
C731 H723 0.950 . S
C731 C729 1.327 . S
C732 C720 1.349 1_554 S
C732 H726 0.950 . S
C732 C733 1.327 . S
C733 H727 0.950 . S
C733 C732 1.327 . S
C733 C737 1.429 . S
C734 C717 1.574 . S
C734 H728 0.949 . S
C734 C738 1.368 . S
C735 C716 1.429 . S
C735 C729 1.429 . S
C735 C736 1.523 . S
C736 C717 1.368 . S
C736 C730 1.368 . S
C736 C735 1.523 . S
C737 C721 1.429 . S
C737 C733 1.429 . S
C737 C738 1.523 . S
C738 C722 1.368 . S
C738 C734 1.368 . S
C738 C737 1.523 . S
H739 C714 0.950 . S
H740 C716 0.950 . S
H741 C717 0.949 . S
H742 C719 0.950 . S
H743 C721 0.950 . S
C744 C745 1.349 1_655 S
C744 C746 1.327 . S
C744 H769 0.950 . S
C745 C744 1.349 1_455 S
C745 C761 1.349 . S
C746 C744 1.327 . S
C746 C765 1.429 1_655 S
C746 H770 0.950 . S
C747 C764 1.574 . S
C747 C766 1.368 . S
C747 H771 0.949 . S
H748 C752 0.949 . S
C749 C750 1.349 . S
C749 C751 1.327 . S
C749 H772 0.950 . S
C750 C749 1.349 . S
C750 C762 1.349 1_455 S
C751 C749 1.327 . S
C751 C767 1.429 . S
C751 H773 0.950 . S
C752 H748 0.949 . S
C752 C760 1.574 . S
C752 C768 1.368 1_655 S
H753 C761 0.950 . S
H754 C759 0.950 . S
H755 C760 0.949 . S
H756 C762 0.950 . S
H757 C763 0.950 . S
H758 C764 0.949 . S
C759 H754 0.950 . S
C759 C761 1.327 . S
C759 C765 1.429 . S
C760 C752 1.574 . S
C760 H755 0.949 . S
C760 C766 1.368 1_655 S
C761 C745 1.349 . S
C761 H753 0.950 . S
C761 C759 1.327 . S
C762 C750 1.349 1_655 S
C762 H756 0.950 . S
C762 C763 1.327 . S
C763 H757 0.950 . S
C763 C762 1.327 . S
C763 C767 1.429 1_655 S
C764 C747 1.574 . S
C764 H758 0.949 . S
C764 C768 1.368 . S
C765 C746 1.429 1_455 S
C765 C759 1.429 . S
C765 C766 1.523 . S
C766 C747 1.368 . S
C766 C760 1.368 1_455 S
C766 C765 1.523 . S
C767 C751 1.429 . S
C767 C763 1.429 1_455 S
C767 C768 1.523 . S
C768 C752 1.368 1_455 S
C768 C764 1.368 . S
C768 C767 1.523 . S
H769 C744 0.950 . S
H770 C746 0.950 . S
H771 C747 0.949 . S
H772 C749 0.950 . S
H773 C751 0.950 . S
C774 C775 1.349 . S
C774 C776 1.327 . S
C774 H799 0.950 . S
C775 C774 1.349 . S
C775 C791 1.349 . S
C776 C774 1.327 . S
C776 C795 1.429 . S
C776 H800 0.950 . S
C777 C794 1.574 . S
C777 C796 1.368 . S
C777 H801 0.949 . S
H778 C782 0.949 . S
C779 C780 1.349 . S
C779 C781 1.327 . S
C779 H802 0.950 . S
C780 C779 1.349 . S
C780 C792 1.349 . S
C781 C779 1.327 . S
C781 C797 1.429 . S
C781 H803 0.950 . S
C782 H778 0.949 . S
C782 C790 1.574 . S
C782 C798 1.368 . S
H783 C791 0.950 . S
H784 C789 0.950 . S
H785 C790 0.949 . S
H786 C792 0.950 . S
H787 C793 0.950 . S
H788 C794 0.949 . S
C789 H784 0.950 . S
C789 C791 1.327 . S
C789 C795 1.429 . S
C790 C782 1.574 . S
C790 H785 0.949 . S
C790 C796 1.368 . S
C791 C775 1.349 . S
C791 H783 0.950 . S
C791 C789 1.327 . S
C792 C780 1.349 . S
C792 H786 0.950 . S
C792 C793 1.327 . S
C793 H787 0.950 . S
C793 C792 1.327 . S
C793 C797 1.429 . S
C794 C777 1.574 . S
C794 H788 0.949 . S
C794 C798 1.368 . S
C795 C776 1.429 . S
C795 C789 1.429 . S
C795 C796 1.523 . S
C796 C777 1.368 . S
C796 C790 1.368 . S
C796 C795 1.523 . S
C797 C781 1.429 . S
C797 C793 1.429 . S
C797 C798 1.523 . S
C798 C782 1.368 . S
C798 C794 1.368 . S
C798 C797 1.523 . S
H799 C774 0.950 . S
H800 C776 0.950 . S
H801 C777 0.949 . S
H802 C779 0.950 . S
H803 C781 0.950 . S
C804 C805 1.349 . S
C804 C806 1.327 . S
C804 H829 0.950 . S
C805 C804 1.349 . S
C805 C821 1.349 . S
C806 C804 1.327 . S
C806 C825 1.429 . S
C806 H830 0.950 . S
C807 C824 1.574 . S
C807 C826 1.368 . S
C807 H831 0.949 . S
H808 C812 0.949 . S
C809 C810 1.349 . S
C809 C811 1.327 . S
C809 H832 0.950 . S
C810 C809 1.349 . S
C810 C822 1.349 . S
C811 C809 1.327 . S
C811 C827 1.429 . S
C811 H833 0.950 . S
C812 H808 0.949 . S
C812 C820 1.574 . S
C812 C828 1.368 . S
H813 C821 0.950 . S
H814 C819 0.950 . S
H815 C820 0.949 . S
H816 C822 0.950 . S
H817 C823 0.950 . S
H818 C824 0.949 . S
C819 H814 0.950 . S
C819 C821 1.327 . S
C819 C825 1.429 . S
C820 C812 1.574 . S
C820 H815 0.949 . S
C820 C826 1.368 . S
C821 C805 1.349 . S
C821 H813 0.950 . S
C821 C819 1.327 . S
C822 C810 1.349 . S
C822 H816 0.950 . S
C822 C823 1.327 . S
C823 H817 0.950 . S
C823 C822 1.327 . S
C823 C827 1.429 . S
C824 C807 1.574 . S
C824 H818 0.949 . S
C824 C828 1.368 . S
C825 C806 1.429 . S
C825 C819 1.429 . S
C825 C826 1.523 . S
C826 C807 1.368 . S
C826 C820 1.368 . S
C826 C825 1.523 . S
C827 C811 1.429 . S
C827 C823 1.429 . S
C827 C828 1.523 . S
C828 C812 1.368 . S
C828 C824 1.368 . S
C828 C827 1.523 . S
H829 C804 0.950 . S
H830 C806 0.950 . S
H831 C807 0.949 . S
H832 C809 0.950 . S
H833 C811 0.950 . S
C834 C835 1.349 . S
C834 C836 1.327 . S
C834 H859 0.950 . S
C835 C834 1.349 . S
C835 C851 1.349 . S
C836 C834 1.327 . S
C836 C855 1.429 . S
C836 H860 0.950 . S
C837 C854 1.574 . S
C837 C856 1.368 . S
C837 H861 0.949 . S
H838 C842 0.949 . S
C839 C840 1.349 . S
C839 C841 1.327 . S
C839 H862 0.950 . S
C840 C839 1.349 . S
C840 C852 1.349 . S
C841 C839 1.327 . S
C841 C857 1.429 . S
C841 H863 0.950 . S
C842 H838 0.949 . S
C842 C850 1.574 . S
C842 C858 1.368 . S
H843 C851 0.950 . S
H844 C849 0.950 . S
H845 C850 0.949 . S
H846 C852 0.950 . S
H847 C853 0.950 . S
H848 C854 0.949 . S
C849 H844 0.950 . S
C849 C851 1.327 . S
C849 C855 1.429 . S
C850 C842 1.574 . S
C850 H845 0.949 . S
C850 C856 1.368 . S
C851 C835 1.349 . S
C851 H843 0.950 . S
C851 C849 1.327 . S
C852 C840 1.349 . S
C852 H846 0.950 . S
C852 C853 1.327 . S
C853 H847 0.950 . S
C853 C852 1.327 . S
C853 C857 1.429 . S
C854 C837 1.574 . S
C854 H848 0.949 . S
C854 C858 1.368 . S
C855 C836 1.429 . S
C855 C849 1.429 . S
C855 C856 1.523 . S
C856 C837 1.368 . S
C856 C850 1.368 . S
C856 C855 1.523 . S
C857 C841 1.429 . S
C857 C853 1.429 . S
C857 C858 1.523 . S
C858 C842 1.368 . S
C858 C854 1.368 . S
C858 C857 1.523 . S
H859 C834 0.950 . S
H860 C836 0.950 . S
H861 C837 0.949 . S
H862 C839 0.950 . S
H863 C841 0.950 . S
C864 C865 1.349 . S
C864 C866 1.327 . S
C864 H889 0.950 . S
C865 C864 1.349 . S
C865 C881 1.349 1_655 S
C866 C864 1.327 . S
C866 C885 1.429 . S
C866 H890 0.950 . S
C867 C884 1.574 . S
C867 C886 1.368 1_455 S
C867 H891 0.949 . S
H868 C872 0.949 . S
C869 C870 1.349 1_455 S
C869 C871 1.327 . S
C869 H892 0.950 . S
C870 C869 1.349 1_655 S
C870 C882 1.349 . S
C871 C869 1.327 . S
C871 C887 1.429 1_455 S
C871 H893 0.950 . S
C872 H868 0.949 . S
C872 C880 1.574 . S
C872 C888 1.368 . S
H873 C881 0.950 . S
H874 C879 0.950 . S
H875 C880 0.949 . S
H876 C882 0.950 . S
H877 C883 0.950 . S
H878 C884 0.949 . S
C879 H874 0.950 . S
C879 C881 1.327 . S
C879 C885 1.429 1_455 S
C880 C872 1.574 . S
C880 H875 0.949 . S
C880 C886 1.368 . S
C881 C865 1.349 1_455 S
C881 H873 0.950 . S
C881 C879 1.327 . S
C882 C870 1.349 . S
C882 H876 0.950 . S
C882 C883 1.327 . S
C883 H877 0.950 . S
C883 C882 1.327 . S
C883 C887 1.429 . S
C884 C867 1.574 . S
C884 H878 0.949 . S
C884 C888 1.368 1_455 S
C885 C866 1.429 . S
C885 C879 1.429 1_655 S
C885 C886 1.523 . S
C886 C867 1.368 1_655 S
C886 C880 1.368 . S
C886 C885 1.523 . S
C887 C871 1.429 1_655 S
C887 C883 1.429 . S
C887 C888 1.523 . S
C888 C872 1.368 . S
C888 C884 1.368 1_655 S
C888 C887 1.523 . S
H889 C864 0.950 . S
H890 C866 0.950 . S
H891 C867 0.949 . S
H892 C869 0.950 . S
H893 C871 0.950 . S
C894 C895 1.349 . S
C894 C896 1.327 . S
C894 H919 0.950 . S
C895 C894 1.349 . S
C895 C911 1.349 1_565 S
C896 C894 1.327 . S
C896 C915 1.429 . S
C896 H920 0.950 . S
C897 C914 1.573 . S
C897 C916 1.358 1_545 S
C897 H921 0.963 . S
H898 C902 0.949 . S
C899 C900 1.349 . S
C899 C901 1.327 . S
C899 H922 0.947 1_565 S
C900 C899 1.349 . S
C900 C912 1.349 . S
C901 C899 1.327 . S
C901 C917 1.429 . S
C901 H923 0.950 1_565 S
C902 H898 0.949 . S
C902 C910 1.574 . S
C902 C918 1.368 . S
H903 C911 0.950 . S
H904 C909 0.950 . S
H905 C910 0.949 . S
H906 C912 0.950 . S
H907 C913 0.950 . S
H908 C914 0.949 . S
C909 H904 0.950 . S
C909 C911 1.327 . S
C909 C915 1.429 1_545 S
C910 C902 1.574 . S
C910 H905 0.949 . S
C910 C916 1.368 . S
C911 C895 1.349 1_545 S
C911 H903 0.950 . S
C911 C909 1.327 . S
C912 C900 1.349 . S
C912 H906 0.950 . S
C912 C913 1.327 . S
C913 H907 0.950 . S
C913 C912 1.327 . S
C913 C917 1.429 . S
C914 C897 1.573 . S
C914 H908 0.949 . S
C914 C918 1.368 1_545 S
C915 C896 1.429 . S
C915 C909 1.429 1_565 S
C915 C916 1.523 . S
C916 C897 1.358 1_565 S
C916 C910 1.368 . S
C916 C915 1.523 . S
C917 C901 1.429 . S
C917 C913 1.429 . S
C917 C918 1.523 . S
C918 C902 1.368 . S
C918 C914 1.368 1_565 S
C918 C917 1.523 . S
H919 C894 0.950 . S
H920 C896 0.950 . S
H921 C897 0.963 . S
H922 C899 0.947 1_545 S
H923 C901 0.950 1_545 S
C924 C925 1.349 . S
C924 C926 1.327 . S
C924 H949 0.950 . S
C925 C924 1.349 . S
C925 C941 1.349 . S
C926 C924 1.327 . S
C926 C945 1.429 . S
C926 H950 0.950 . S
C927 C944 1.574 . S
C927 C946 1.368 . S
C927 H951 0.949 . S
H928 C932 0.949 . S
C929 C930 1.349 . S
C929 C931 1.327 . S
C929 H952 0.950 . S
C930 C929 1.349 . S
C930 C942 1.349 . S
C931 C929 1.327 . S
C931 C947 1.429 . S
C931 H953 0.950 . S
C932 H928 0.949 . S
C932 C940 1.574 . S
C932 C948 1.368 . S
H933 C941 0.950 . S
H934 C939 0.950 . S
H935 C940 0.949 . S
H936 C942 0.950 . S
H937 C943 0.950 . S
H938 C944 0.949 . S
C939 H934 0.950 . S
C939 C941 1.327 . S
C939 C945 1.429 . S
C940 C932 1.574 . S
C940 H935 0.949 . S
C940 C946 1.368 . S
C941 C925 1.349 . S
C941 H933 0.950 . S
C941 C939 1.327 . S
C942 C930 1.349 . S
C942 H936 0.950 . S
C942 C943 1.327 . S
C943 H937 0.950 . S
C943 C942 1.327 . S
C943 C947 1.429 . S
C944 C927 1.574 . S
C944 H938 0.949 . S
C944 C948 1.368 . S
C945 C926 1.429 . S
C945 C939 1.429 . S
C945 C946 1.523 . S
C946 C927 1.368 . S
C946 C940 1.368 . S
C946 C945 1.523 . S
C947 C931 1.429 . S
C947 C943 1.429 . S
C947 C948 1.523 . S
C948 C932 1.368 . S
C948 C944 1.368 . S
C948 C947 1.523 . S
H949 C924 0.950 . S
H950 C926 0.950 . S
H951 C927 0.949 . S
H952 C929 0.950 . S
H953 C931 0.950 . S
C954 C955 1.349 . S
C954 C956 1.327 . S
C954 H979 0.950 . S
C955 C954 1.349 . S
C955 C971 1.349 . S
C956 C954 1.327 . S
C956 C975 1.429 . S
C956 H980 0.950 . S
C957 C974 1.574 . S
C957 C976 1.368 . S
C957 H981 0.949 . S
H958 C962 0.949 . S
C959 C960 1.349 . S
C959 C961 1.327 . S
C959 H982 0.950 . S
C960 C959 1.349 . S
C960 C972 1.349 . S
C961 C959 1.327 . S
C961 C977 1.429 . S
C961 H983 0.950 . S
C962 H958 0.949 . S
C962 C970 1.574 . S
C962 C978 1.368 . S
H963 C971 0.950 . S
H964 C969 0.950 . S
H965 C970 0.949 . S
H966 C972 0.950 . S
H967 C973 0.950 . S
H968 C974 0.949 . S
C969 H964 0.950 . S
C969 C971 1.327 . S
C969 C975 1.429 . S
C970 C962 1.574 . S
C970 H965 0.949 . S
C970 C976 1.368 . S
C971 C955 1.349 . S
C971 H963 0.950 . S
C971 C969 1.327 . S
C972 C960 1.349 . S
C972 H966 0.950 . S
C972 C973 1.327 . S
C973 H967 0.950 . S
C973 C972 1.327 . S
C973 C977 1.429 . S
C974 C957 1.574 . S
C974 H968 0.949 . S
C974 C978 1.368 . S
C975 C956 1.429 . S
C975 C969 1.429 . S
C975 C976 1.523 . S
C976 C957 1.368 . S
C976 C970 1.368 . S
C976 C975 1.523 . S
C977 C961 1.429 . S
C977 C973 1.429 . S
C977 C978 1.523 . S
C978 C962 1.368 . S
C978 C974 1.368 . S
C978 C977 1.523 . S
H979 C954 0.950 . S
H980 C956 0.950 . S
H981 C957 0.949 . S
H982 C959 0.950 . S
H983 C961 0.950 . S
C265 C82 1.605 . S
C270 C114 1.812 . S
C300 C154 1.813 . S
C295 C95 1.605 . S
C330 C194 1.812 . S
C325 C56 1.605 . S
C360 C234 1.812 . S
C355 C69 1.605 . S
C390 C123 1.815 . S
C385 C30 1.602 1_565 S
C415 C43 1.603 . S
C420 C163 1.812 . S
C445 C4 1.604 . S
C450 C203 1.813 . S
C475 C17 1.602 1_655 S
C480 C243 1.816 . S
C510 C120 0.338 . S
C505 C74 0.394 . S
C540 C160 0.338 . S
C535 C87 0.394 . S
C570 C200 0.339 . S
C565 C100 0.394 . S
C595 C61 0.394 . S
C600 C240 0.339 . S
C625 C22 0.401 . S
C630 C111 0.339 . S
C660 C151 0.339 . S
C655 C35 0.402 . S
C690 C191 0.339 . S
C685 C48 0.399 . S
C715 C9 0.399 . S
C720 C231 0.339 . S
C745 C73 1.869 . S
C750 C115 2.054 . S
C775 C86 1.869 . S
C780 C155 2.054 . S
C810 C195 2.054 . S
C805 C99 1.869 . S
C840 C235 2.054 . S
C835 C60 1.869 . S
C865 C21 1.870 . S
C870 C106 2.054 . S
C900 C146 2.054 . S
C895 C34 1.870 . S
C930 C186 2.053 . S
C925 C47 1.869 . S
C955 C8 1.870 . S
C960 C226 2.054 . S
