# Generated by pormake.
# Topology pyr, (3,6)-cn, num edge types: 1
# Building blocks:
#     Node 0, Type 0, BuildingBlock: PAMTOO_clean_linker_0, # of connection points: 3
#     Node 1, Type 0, BuildingBlock: PAMTOO_clean_linker_0, # of connection points: 3
#     Node 2, Type 0, BuildingBlock: PAMTOO_clean_linker_0, # of connection points: 3
#     Node 3, Type 0, BuildingBlock: PAMTOO_clean_linker_0, # of connection points: 3
#     Node 4, Type 0, BuildingBlock: PAMTOO_clean_linker_0, # of connection points: 3
#     Node 5, Type 0, BuildingBlock: PAMTOO_clean_linker_0, # of connection points: 3
#     Node 6, Type 0, BuildingBlock: PAMTOO_clean_linker_0, # of connection points: 3
#     Node 7, Type 0, BuildingBlock: PAMTOO_clean_linker_0, # of connection points: 3
#     Node 8, Type 1, BuildingBlock: PAMTUU_clean_sbu_0, # of connection points: 6
#     Node 9, Type 1, BuildingBlock: PAMTUU_clean_sbu_0, # of connection points: 6
#     Node 10, Type 1, BuildingBlock: PAMTUU_clean_sbu_0, # of connection points: 6
#     Node 11, Type 1, BuildingBlock: PAMTUU_clean_sbu_0, # of connection points: 6
#     Edge 12, Type (0, 1), BuildingBlock: TEMPAE_clean_linker_10, # of connection points: 2
#     Edge 13, Type (0, 1), BuildingBlock: TEMPAE_clean_linker_10, # of connection points: 2
#     Edge 14, Type (0, 1), BuildingBlock: TEMPAE_clean_linker_10, # of connection points: 2
#     Edge 15, Type (0, 1), BuildingBlock: TEMPAE_clean_linker_10, # of connection points: 2
#     Edge 16, Type (0, 1), BuildingBlock: TEMPAE_clean_linker_10, # of connection points: 2
#     Edge 17, Type (0, 1), BuildingBlock: TEMPAE_clean_linker_10, # of connection points: 2
#     Edge 18, Type (0, 1), BuildingBlock: TEMPAE_clean_linker_10, # of connection points: 2
#     Edge 19, Type (0, 1), BuildingBlock: TEMPAE_clean_linker_10, # of connection points: 2
#     Edge 20, Type (0, 1), BuildingBlock: TEMPAE_clean_linker_10, # of connection points: 2
#     Edge 21, Type (0, 1), BuildingBlock: TEMPAE_clean_linker_10, # of connection points: 2
#     Edge 22, Type (0, 1), BuildingBlock: TEMPAE_clean_linker_10, # of connection points: 2
#     Edge 23, Type (0, 1), BuildingBlock: TEMPAE_clean_linker_10, # of connection points: 2
#     Edge 24, Type (0, 1), BuildingBlock: TEMPAE_clean_linker_10, # of connection points: 2
#     Edge 25, Type (0, 1), BuildingBlock: TEMPAE_clean_linker_10, # of connection points: 2
#     Edge 26, Type (0, 1), BuildingBlock: TEMPAE_clean_linker_10, # of connection points: 2
#     Edge 27, Type (0, 1), BuildingBlock: TEMPAE_clean_linker_10, # of connection points: 2
#     Edge 28, Type (0, 1), BuildingBlock: TEMPAE_clean_linker_10, # of connection points: 2
#     Edge 29, Type (0, 1), BuildingBlock: TEMPAE_clean_linker_10, # of connection points: 2
#     Edge 30, Type (0, 1), BuildingBlock: TEMPAE_clean_linker_10, # of connection points: 2
#     Edge 31, Type (0, 1), BuildingBlock: TEMPAE_clean_linker_10, # of connection points: 2
#     Edge 32, Type (0, 1), BuildingBlock: TEMPAE_clean_linker_10, # of connection points: 2
#     Edge 33, Type (0, 1), BuildingBlock: TEMPAE_clean_linker_10, # of connection points: 2
#     Edge 34, Type (0, 1), BuildingBlock: TEMPAE_clean_linker_10, # of connection points: 2
#     Edge 35, Type (0, 1), BuildingBlock: TEMPAE_clean_linker_10, # of connection points: 2
# Relax obj value: 0.167
# Max RMSD: 0.236
# Mean RMSD: 0.145
data_MOF--net-pyr--node1-PAMTUU_clean_sbu_0--node2-PAMTOO_clean_linker_0--edge1-TEMPAE_clean_linker_10
_symmetry_space_group_name_H-M    P1
_symmetry_Int_Tables_number       1
_symmetry_cell_setting            triclinic
loop_
_symmetry_equiv_pos_as_xyz
'x, y, z'
_cell_length_a     37.772591
_cell_length_b     40.590487
_cell_length_c     38.695158
_cell_angle_alpha  90.234158
_cell_angle_beta   89.712405
_cell_angle_gamma 105.52551
loop_
_atom_site_label
_atom_site_type_symbol
_atom_site_fract_x
_atom_site_fract_y
_atom_site_fract_z
_atom_type_partial_charge
H0 H 0.31905 0.30639 0.26553 0.0
H1 H 0.40612 0.25839 0.24757 0.0
H2 H 0.39278 0.33714 0.17926 0.0
H3 H 0.43182 0.29485 0.13868 0.0
C4 C 0.42263 0.27586 0.1597 0.0
O5 O 0.43 0.29269 0.19105 0.0
H6 H 0.39254 0.26463 0.15591 0.0
C7 C 0.34338 0.30509 0.2512 0.0
C8 C 0.35361 0.32508 0.22142 0.0
C9 C 0.36235 0.2813 0.26119 0.0
C10 C 0.39183 0.27732 0.24085 0.0
C11 C 0.40288 0.29773 0.2116 0.0
C12 C 0.38432 0.32201 0.20235 0.0
H13 H 0.19204 0.83484 0.75702 0.0
H14 H 0.17768 0.78828 0.65585 0.0
H15 H 0.25742 0.76823 0.72493 0.0
H16 H 0.26051 0.79702 0.63981 0.0
C17 C 0.25053 0.76862 0.63767 0.0
O18 O 0.2266 0.75479 0.66421 0.0
H19 H 0.23549 0.76318 0.61278 0.0
C20 C 0.19888 0.81815 0.73767 0.0
C21 C 0.22705 0.80255 0.74467 0.0
C22 C 0.18129 0.81421 0.70541 0.0
C23 C 0.18985 0.79138 0.68134 0.0
C24 C 0.21671 0.77443 0.68872 0.0
C25 C 0.23534 0.78004 0.72028 0.0
H26 H 0.72978 0.33698 0.92886 0.0
H27 H 0.64843 0.32737 0.8489 0.0
H28 H 0.74096 0.41653 0.85291 0.0
H29 H 0.67579 0.43343 0.83143 0.0
C30 C 0.66063 0.41005 0.81729 0.0
O31 O 0.68138 0.38626 0.81766 0.0
H32 H 0.63462 0.39909 0.83171 0.0
C33 C 0.71941 0.34723 0.90641 0.0
C34 C 0.73925 0.37942 0.89347 0.0
C35 C 0.68671 0.32778 0.89073 0.0
C36 C 0.67331 0.34183 0.86152 0.0
C37 C 0.69286 0.37392 0.84753 0.0
C38 C 0.7259 0.39215 0.86359 0.0
H39 H 0.87714 0.73131 0.4316 0.0
H40 H 0.87294 0.65236 0.3558 0.0
H41 H 0.96315 0.74372 0.35504 0.0
H42 H 0.94455 0.71192 0.28178 0.0
C43 C 0.92975 0.6856 0.2899 0.0
O44 O 0.93583 0.68224 0.32523 0.0
H45 H 0.89995 0.68289 0.28588 0.0
C46 C 0.88923 0.72164 0.40963 0.0
C47 C 0.92247 0.74198 0.3955 0.0
C48 C 0.87074 0.68946 0.39566 0.0
C49 C 0.88622 0.67734 0.36639 0.0
C50 C 0.91959 0.69651 0.35138 0.0
C51 C 0.93732 0.72907 0.36598 0.0
H52 H 0.68075 0.83471 0.84804 0.0
H53 H 0.69215 0.79609 0.9499 0.0
H54 H 0.75327 0.771 0.86515 0.0
H55 H 0.71457 0.71474 0.91031 0.0
C56 C 0.7289 0.72723 0.93395 0.0
O57 O 0.73883 0.76239 0.93086 0.0
H58 H 0.70974 0.72 0.95624 0.0
C59 C 0.69229 0.81937 0.86528 0.0
C60 C 0.71806 0.80316 0.85222 0.0
C61 C 0.68338 0.81805 0.90067 0.0
C62 C 0.69773 0.79706 0.92239 0.0
C63 C 0.72209 0.77945 0.90923 0.0
C64 C 0.7325 0.78283 0.87439 0.0
H65 H 0.90328 0.21633 0.34573 0.0
H66 H 0.84265 0.28885 0.37258 0.0
H67 H 0.92039 0.26856 0.44381 0.0
H68 H 0.86247 0.29351 0.48492 0.0
C69 C 0.84744 0.28962 0.45998 0.0
O70 O 0.87211 0.30261 0.43368 0.0
H71 H 0.83526 0.26152 0.4571 0.0
C72 C 0.89743 0.23485 0.36359 0.0
C73 C 0.91533 0.24026 0.39568 0.0
C74 C 0.87075 0.25185 0.35503 0.0
C75 C 0.86364 0.27602 0.37824 0.0
C76 C 0.8819 0.28214 0.40995 0.0
C77 C 0.90797 0.2647 0.41841 0.0
H78 H 0.3633 0.72995 0.15225 0.0
H79 H 0.35481 0.651 0.22842 0.0
H80 H 0.44127 0.7447 0.23581 0.0
H81 H 0.46219 0.67898 0.25536 0.0
C82 C 0.43613 0.66511 0.26831 0.0
O83 O 0.41122 0.68501 0.26625 0.0
H84 H 0.42512 0.64102 0.25351 0.0
C85 C 0.37365 0.72056 0.17523 0.0
C86 C 0.405 0.74149 0.1918 0.0
C87 C 0.3551 0.68787 0.18794 0.0
C88 C 0.36888 0.67581 0.21801 0.0
C89 C 0.39998 0.6961 0.2356 0.0
C90 C 0.41764 0.72898 0.22234 0.0
H91 H 0.11831 0.31739 0.77842 0.0
H92 H 0.20476 0.41154 0.76552 0.0
H93 H 0.19744 0.3283 0.69548 0.0
H94 H 0.27207 0.36559 0.72444 0.0
C95 C 0.27026 0.39201 0.719 0.0
O96 O 0.23414 0.39084 0.71076 0.0
H97 H 0.27802 0.40743 0.74294 0.0
C98 C 0.14207 0.33281 0.76481 0.0
C99 C 0.15548 0.31857 0.73515 0.0
C100 C 0.16004 0.3665 0.77728 0.0
C101 C 0.19104 0.38552 0.75819 0.0
C102 C 0.20464 0.37177 0.72903 0.0
C103 C 0.18687 0.33852 0.71803 0.0
Tb104 Tb 0.08363 0.04038 0.54183 0.0
Tb105 Tb 1.00577 1.02227 0.5837 0.0
C106 C 0.02034 0.97255 0.52436 0.0
C107 C 0.16628 0.08032 0.48587 0.0
C108 C 0.2134 0.12731 0.44113 0.0
C109 C 0.18304 0.10242 0.42801 0.0
C110 C 0.1598 0.07917 0.45009 0.0
C111 C 0.19646 0.10537 0.49908 0.0
C112 C 0.21972 0.1287 0.47695 0.0
C113 C 0.1437 0.0537 0.50878 0.0
O114 O 0.04702 0.06059 0.51019 0.0
O115 O 1.00553 0.06589 0.55187 0.0
O116 O 0.04266 0.06465 0.61277 0.0
O117 O 0.0848 0.08782 0.57073 0.0
O118 O 0.94797 1.00931 0.58378 0.0
O119 O 0.97874 1.01782 0.63145 0.0
O120 O 0.03278 0.98437 0.60052 0.0
O121 O 0.09215 1.01409 0.58842 0.0
O122 O 0.05589 0.98697 0.5276 0.0
O123 O 0.99626 0.98631 0.5395 0.0
C124 C 0.02068 0.07346 0.52135 0.0
O125 O 0.14095 0.06156 0.54121 0.0
O126 O 0.11244 0.0355 0.4966 0.0
C127 C 0.06914 0.09042 0.60089 0.0
C128 C 0.92198 0.97642 0.6331 0.0
C129 C 0.87734 0.91803 0.66584 0.0
C130 C 0.89465 0.94721 0.68516 0.0
C131 C 0.91656 0.97609 0.66895 0.0
C132 C 0.90458 0.94734 0.6135 0.0
C133 C 0.88213 0.91838 0.6298 0.0
C134 C 0.94637 1.00729 0.61743 0.0
C135 C 0.06823 0.9887 0.60347 0.0
H136 H 0.17775 0.10027 0.4005 0.0
H137 H 0.13721 0.05983 0.43892 0.0
H138 H 0.20246 0.10661 0.52648 0.0
H139 H 0.2427 0.14778 0.48788 0.0
H140 H 0.89075 0.9479 0.71289 0.0
H141 H 0.92946 0.99827 0.68453 0.0
H142 H 0.90835 0.9469 0.58576 0.0
H143 H 0.86886 0.89622 0.61439 0.0
Tb144 Tb 0.57982 0.04548 0.06991 0.0
Tb145 Tb 0.50806 0.02832 1.01963 0.0
C146 C 0.57151 0.9939 1.00794 0.0
C147 C 0.65963 0.0881 0.12612 0.0
C148 C 0.70472 0.1421 0.16457 0.0
C149 C 0.71831 0.11514 0.1524 0.0
C150 C 0.69595 0.08842 0.13336 0.0
C151 C 0.64597 0.11526 0.13744 0.0
C152 C 0.66836 0.14205 0.15671 0.0
C153 C 0.63674 0.05901 0.10693 0.0
O154 O 0.58378 0.09333 0.04194 0.0
O155 O 0.54938 0.07079 0.99467 0.0
O156 O 0.50321 0.07108 0.05102 0.0
O157 O 0.53994 0.06642 0.09686 0.0
O158 O 0.48709 1.02203 0.96937 0.0
O159 O 0.45079 1.01759 1.01353 0.0
O160 O 0.49298 0.99145 0.06253 0.0
O161 O 0.55036 0.99239 0.08243 0.0
O162 O 0.59354 1.01945 1.02456 0.0
O163 O 0.53599 0.98972 1.0075 0.0
C164 C 0.57328 0.09643 1.00998 0.0
O165 O 0.60364 0.04567 0.1188 0.0
O166 O 0.63728 0.06209 0.07343 0.0
C167 C 0.51465 0.07877 0.08272 0.0
C168 C 0.42965 0.9815 0.9659 0.0
C169 C 0.38568 0.92265 0.93341 0.0
C170 C 0.37177 0.9509 0.94021 0.0
C171 C 0.39363 0.98011 0.95627 0.0
C172 C 0.44321 0.95285 0.96053 0.0
C173 C 0.42144 0.92369 0.94419 0.0
C174 C 0.45312 1.01339 0.98025 0.0
C175 C 0.51478 0.97764 0.08075 0.0
H176 H 0.74593 0.11406 0.15856 0.0
H177 H 0.70689 0.06766 0.12474 0.0
H178 H 0.61799 0.11551 0.13174 0.0
H179 H 0.65722 0.16256 0.16563 0.0
H180 H 0.34452 0.95105 0.93174 0.0
H181 H 0.38274 1.00196 0.96031 0.0
H182 H 0.4709 0.95334 0.96815 0.0
H183 H 0.43276 0.90222 0.93941 0.0
Tb184 Tb 0.55518 0.50777 0.51848 0.0
Tb185 Tb 0.56005 0.57685 0.56248 0.0
C186 C 0.52322 0.56706 0.48821 0.0
C187 C 0.58475 0.43717 0.47902 0.0
C188 C 0.64027 0.40337 0.47021 0.0
C189 C 0.6034 0.38638 0.46304 0.0
C190 C 0.57583 0.40324 0.46732 0.0
C191 C 0.62146 0.45404 0.48649 0.0
C192 C 0.64899 0.43737 0.48196 0.0
C193 C 0.55593 0.45489 0.48403 0.0
O194 O 0.61338 0.5367 0.51609 0.0
O195 O 0.60725 0.59022 0.52723 0.0
O196 O 0.59398 0.5504 0.59242 0.0
O197 O 0.57209 0.49632 0.57026 0.0
O198 O 0.5661 0.6299 0.56297 0.0
O199 O 0.55965 0.60138 0.61032 0.0
O200 O 0.51154 0.53963 0.58257 0.0
O201 O 0.49887 0.50048 0.53839 0.0
O202 O 0.53965 0.54284 0.48199 0.0
O203 O 0.52159 0.57841 0.52004 0.0
C204 C 0.62632 0.57018 0.51455 0.0
O205 O 0.54282 0.4541 0.51526 0.0
O206 O 0.563 0.48548 0.47102 0.0
C207 C 0.5898 0.51705 0.59451 0.0
C208 C 0.52968 0.64497 0.60618 0.0
C209 C 0.4712 0.67363 0.6214 0.0
C210 C 0.50762 0.69433 0.62037 0.0
C211 C 0.53665 0.68007 0.61286 0.0
C212 C 0.49342 0.62419 0.60747 0.0
C213 C 0.46447 0.63835 0.61518 0.0
C214 C 0.55983 0.63038 0.59602 0.0
C215 C 0.48945 0.51287 0.56758 0.0
H216 H 0.59599 0.3602 0.45382 0.0
H217 H 0.5476 0.38982 0.46157 0.0
H218 H 0.62886 0.48009 0.49594 0.0
H219 H 0.67705 0.45091 0.48821 0.0
H220 H 0.51361 0.72156 0.62526 0.0
H221 H 0.56445 0.69649 0.61178 0.0
H222 H 0.48742 0.59707 0.60193 0.0
H223 H 0.43669 0.62185 0.61526 0.0
Tb224 Tb 0.05335 0.55665 1.01591 0.0
Tb225 Tb 0.04798 0.4908 0.06377 0.0
C226 C 0.08001 0.49279 0.98702 0.0
C227 C 0.02219 0.62494 0.9751 0.0
C228 C 0.9601 0.65005 0.96614 0.0
C229 C 0.9803 0.64382 0.93738 0.0
C230 C 1.01116 0.63148 0.94186 0.0
C231 C 1.00247 0.63182 1.00393 0.0
C232 C 0.97187 0.6445 0.99947 0.0
C233 C 0.0513 0.60728 0.97912 0.0
O234 O 0.99486 0.52884 1.0161 0.0
O235 O 0.99933 0.4756 0.03074 0.0
O236 O 0.01407 0.5191 0.09181 0.0
O237 O 0.03792 0.57174 0.06755 0.0
O238 O 0.0428 0.43817 0.06898 0.0
O239 O 0.04897 0.47074 0.11364 0.0
O240 O 0.09718 0.52934 0.08101 0.0
O241 O 0.11028 0.56391 0.03354 0.0
O242 O 0.06638 0.51879 0.98029 0.0
O243 O 0.08206 0.48302 1.01932 0.0
C244 C 0.98102 0.49544 1.01661 0.0
O245 O 0.06752 0.60998 1.00905 0.0
O246 O 0.04282 0.57593 0.96785 0.0
C247 C 0.01948 0.55265 0.09268 0.0
C248 C 0.08134 0.42922 0.1134 0.0
C249 C 0.14381 0.41139 0.13809 0.0
C250 C 0.10998 0.40083 0.15577 0.0
C251 C 0.079 0.40971 0.14349 0.0
C252 C 0.11494 0.43969 0.09561 0.0
C253 C 0.14581 0.43072 0.10772 0.0
C254 C 0.04977 0.44092 0.10192 0.0
C255 C 0.1197 0.55426 0.06385 0.0
H256 H 0.97197 0.64814 0.91142 0.0
H257 H 0.02575 0.62601 0.91929 0.0
H258 H 1.00995 0.62643 0.02987 0.0
H259 H 0.95659 0.64876 1.02206 0.0
H260 H 0.10762 0.38629 0.17947 0.0
H261 H 0.0534 0.40185 0.15781 0.0
H262 H 0.1174 0.45515 0.0725 0.0
H263 H 0.17123 0.43885 0.0932 0.0
C264 C 0.34118 0.22333 0.28791 0.0
C265 C 0.34878 0.25892 0.29123 0.0
C266 C 0.32256 0.20169 0.31419 0.0
C267 C 0.31156 0.21611 0.34447 0.0
C268 C 0.3213 0.25204 0.34883 0.0
C269 C 0.33969 0.27302 0.32207 0.0
C270 C 0.31262 0.16349 0.3086 0.0
C271 C 0.31047 0.26838 0.3809 0.0
C272 C 0.2247 0.16552 0.38937 0.0
C273 C 0.23875 0.1511 0.41725 0.0
C274 C 0.24817 0.1867 0.36558 0.0
C275 C 0.28669 0.19387 0.36987 0.0
C276 C 0.30113 0.17988 0.39825 0.0
C277 C 0.27696 0.15857 0.42159 0.0
C278 C 0.2317 0.20126 0.33569 0.0
C279 C 0.34204 0.18713 0.40371 0.0
H280 H 0.34795 0.21238 0.26397 0.0
H281 H 0.34593 0.30058 0.32477 0.0
H282 H 0.32002 0.15049 0.33154 0.0
H283 H 0.28247 0.15376 0.30505 0.0
H284 H 0.32653 0.15631 0.28551 0.0
H285 H 0.32369 0.29632 0.38197 0.0
H286 H 0.28023 0.26426 0.38142 0.0
H287 H 0.31804 0.25636 0.40445 0.0
H288 H 0.19522 0.16029 0.38618 0.0
H289 H 0.28802 0.14717 0.44284 0.0
H290 H 0.24153 0.19306 0.31087 0.0
H291 H 0.24074 0.2296 0.33649 0.0
H292 H 0.20118 0.19303 0.33597 0.0
H293 H 0.35483 0.17746 0.38135 0.0
H294 H 0.34882 0.17508 0.42762 0.0
H295 H 0.35462 0.21512 0.40528 0.0
C296 C 0.26404 0.84895 0.78187 0.0
C297 C 0.25088 0.81386 0.77513 0.0
C298 C 0.28667 0.86101 0.81016 0.0
C299 C 0.29656 0.83738 0.83242 0.0
C300 C 0.28378 0.80185 0.82565 0.0
C301 C 0.26114 0.79045 0.79684 0.0
C302 C 0.3 0.89917 0.81616 0.0
C303 C 0.29377 0.77602 0.84892 0.0
C304 C 0.38039 0.88282 0.8832 0.0
C305 C 0.36407 0.89396 0.91202 0.0
C306 C 0.35888 0.86128 0.85838 0.0
C307 C 0.32024 0.85069 0.86263 0.0
C308 C 0.30411 0.85909 0.89338 0.0
C309 C 0.32624 0.88079 0.91768 0.0
C310 C 0.3772 0.85288 0.826 0.0
C311 C 0.26308 0.84791 0.89913 0.0
H312 H 0.25691 0.86717 0.76463 0.0
H313 H 0.25105 0.76331 0.79155 0.0
H314 H 0.29053 0.90576 0.84182 0.0
H315 H 0.33048 0.90736 0.81616 0.0
H316 H 0.28999 0.91402 0.79616 0.0
H317 H 0.28233 0.74937 0.83962 0.0
H318 H 0.32407 0.78128 0.85072 0.0
H319 H 0.28329 0.77819 0.87543 0.0
H320 H 0.40962 0.89298 0.87865 0.0
H321 H 0.31367 0.88889 0.94029 0.0
H322 H 0.37263 0.86935 0.80458 0.0
H323 H 0.36521 0.82591 0.81812 0.0
H324 H 0.40729 0.85728 0.82945 0.0
H325 H 0.24982 0.8636 0.88283 0.0
H326 H 0.25566 0.85104 0.92654 0.0
H327 H 0.25166 0.82079 0.89146 0.0
C328 C 0.67966 0.43626 0.75693 0.0
C329 C 0.65183 0.42117 0.78078 0.0
C330 C 0.67185 0.45154 0.7258 0.0
C331 C 0.6353 0.45254 0.7181 0.0
C332 C 0.60713 0.43694 0.74195 0.0
C333 C 0.61566 0.4217 0.77262 0.0
C334 C 0.70298 0.4674 0.70147 0.0
C335 C 0.5678 0.43715 0.73556 0.0
C336 C 0.61589 0.52045 0.65588 0.0
C337 C 0.60415 0.50158 0.62546 0.0
C338 C 0.62667 0.50517 0.68568 0.0
C339 C 0.62628 0.46998 0.68555 0.0
C340 C 0.61539 0.4511 0.6546 0.0
C341 C 0.6044 0.46688 0.62537 0.0
C342 C 0.63766 0.52661 0.71776 0.0
C343 C 0.61467 0.4138 0.6525 0.0
H344 H 0.7078 0.43691 0.76308 0.0
H345 H 0.59386 0.41096 0.79092 0.0
H346 H 0.69662 0.45675 0.67507 0.0
H347 H 0.70634 0.49535 0.69985 0.0
H348 H 0.72943 0.46302 0.70988 0.0
H349 H 0.54885 0.42346 0.75604 0.0
H350 H 0.56582 0.4639 0.73435 0.0
H351 H 0.55844 0.425 0.71029 0.0
H352 H 0.6158 0.54711 0.65678 0.0
H353 H 0.59564 0.45171 0.60231 0.0
H354 H 0.66531 0.52554 0.72633 0.0
H355 H 0.61814 0.51618 0.73905 0.0
H356 H 0.63806 0.55378 0.71362 0.0
H357 H 0.64174 0.41034 0.66006 0.0
H358 H 0.60787 0.40306 0.62616 0.0
H359 H 0.59397 0.39886 0.67092 0.0
C360 C 0.9792 0.65859 0.2641 0.0
C361 C 0.94238 0.66006 0.26577 0.0
C362 C 0.99192 0.63978 0.23773 0.0
C363 C 0.96766 0.62209 0.21152 0.0
C364 C 0.93034 0.62301 0.21357 0.0
C365 C 0.91837 0.64173 0.24025 0.0
C366 C 0.0318 0.63972 0.23735 0.0
C367 C 0.90307 0.6052 0.18663 0.0
C368 C 1.0067 0.60499 0.12202 0.0
C369 C 1.0054 0.56993 0.12301 0.0
C370 C 0.99478 0.62197 0.15024 0.0
C371 C 0.98133 0.60405 0.1812 0.0
C372 C 0.98007 0.56867 0.18247 0.0
C373 C 0.99179 0.55219 0.15365 0.0
C374 C 0.99648 0.65937 0.14676 0.0
C375 C 0.9664 0.54811 0.21452 0.0
H376 H 0.99844 0.6731 0.28285 0.0
H377 H 0.89008 0.643 0.24039 0.0
H378 H 0.03423 0.61311 0.23566 0.0
H379 H 0.04553 0.6535 0.21417 0.0
H380 H 0.04661 0.65212 0.26072 0.0
H381 H 0.87473 0.60674 0.19249 0.0
H382 H 0.91135 0.61695 0.16098 0.0
H383 H 0.90287 0.57788 0.18464 0.0
H384 H 0.01701 0.61941 0.09889 0.0
H385 H 0.99069 0.5253 0.15536 0.0
H386 H 0.01422 0.67431 0.16728 0.0
H387 H 0.96864 0.66309 0.15029 0.0
H388 H 1.00738 0.66987 0.12121 0.0
H389 H 0.98294 0.56003 0.23715 0.0
H390 H 0.96781 0.52121 0.21213 0.0
H391 H 0.93751 0.54811 0.21985 0.0
C392 C 0.42746 0.21705 0.17515 0.0
C393 C 0.44142 0.24761 0.15704 0.0
C394 C 0.44112 0.18858 0.16897 0.0
C395 C 0.46924 0.1909 0.14401 0.0
C396 C 0.4851 0.22253 0.12747 0.0
C397 C 0.47103 0.25056 0.13427 0.0
C398 C 0.42379 0.15548 0.18745 0.0
C399 C 0.51518 0.22613 0.10076 0.0
C400 C 0.5191 0.12178 0.13055 0.0
C401 C 0.50069 0.10461 0.10155 0.0
C402 C 0.50835 0.14918 0.14572 0.0
C403 C 0.47854 0.15951 0.13151 0.0
C404 C 0.45888 0.14121 0.10327 0.0
C405 C 0.47017 0.11405 0.0887 0.0
C406 C 0.52982 0.16794 0.17594 0.0
C407 C 0.4268 0.15124 0.0874 0.0
H408 H 0.40472 0.21497 0.19296 0.0
H409 H 0.48203 0.27436 0.12053 0.0
H410 H 0.40612 0.13721 0.16917 0.0
H411 H 0.44518 0.1436 0.19685 0.0
H412 H 0.4066 0.15927 0.20972 0.0
H413 H 0.52729 0.25319 0.09315 0.0
H414 H 0.5374 0.2156 0.11066 0.0
H415 H 0.50384 0.21127 0.0773 0.0
H416 H 0.54275 0.11469 0.14064 0.0
H417 H 0.4555 0.10072 0.06654 0.0
H418 H 0.51092 0.17121 0.19693 0.0
H419 H 0.54561 0.19387 0.16767 0.0
H420 H 0.54937 0.15441 0.18643 0.0
H421 H 0.4061 0.15224 0.10753 0.0
H422 H 0.41318 0.1332 0.0668 0.0
H423 H 0.43645 0.17718 0.07604 0.0
C424 C 0.16689 0.87112 0.70752 0.0
C425 C 0.15811 0.83719 0.69535 0.0
C426 C 0.14829 0.89439 0.69565 0.0
C427 C 0.12115 0.88407 0.66991 0.0
C428 C 0.11112 0.84972 0.65826 0.0
C429 C 0.12934 0.82656 0.67151 0.0
C430 C 0.15926 0.93063 0.70929 0.0
C431 C 0.08271 0.83793 0.63036 0.0
C432 C 0.06152 0.94318 0.64827 0.0
C433 C 0.08171 0.96242 0.62125 0.0
C434 C 0.07389 0.91742 0.66447 0.0
C435 C 0.10655 0.91022 0.65257 0.0
C436 C 0.12654 0.92917 0.62479 0.0
C437 C 0.11414 0.95536 0.60981 0.0
C438 C 0.05248 0.8984 0.69466 0.0
C439 C 0.16107 0.92178 0.61083 0.0
H440 H 0.18953 0.88026 0.72521 0.0
H441 H 0.12172 0.80035 0.66237 0.0
H442 H 0.17487 0.94799 0.68913 0.0
H443 H 0.13456 0.93934 0.71572 0.0
H444 H 0.17672 0.9332 0.7327 0.0
H445 H 0.0756 0.8098 0.6264 0.0
H446 H 0.05727 0.8454 0.63676 0.0
H447 H 0.09342 0.85059 0.60563 0.0
H448 H 0.03637 0.94863 0.65707 0.0
H449 H 0.12943 0.9698 0.58849 0.0
H450 H 0.07 0.90277 0.71807 0.0
H451 H 0.04457 0.8705 0.68947 0.0
H452 H 0.02722 0.90658 0.70027 0.0
H453 H 0.18263 0.92713 0.631 0.0
H454 H 0.17202 0.93739 0.5877 0.0
H455 H 0.15552 0.89434 0.60381 0.0
C456 C 0.77552 0.40214 0.94754 0.0
C457 C 0.77408 0.39914 0.91128 0.0
C458 C 0.80823 0.41902 0.96493 0.0
C459 C 0.84102 0.43305 0.94592 0.0
C460 C 0.83968 0.43045 0.90928 0.0
C461 C 0.80636 0.4139 0.89249 0.0
C462 C 0.80775 0.42155 1.00384 0.0
C463 C 0.87378 0.44442 0.88776 0.0
C464 C 0.92156 0.49962 0.9886 0.0
C465 C 0.94448 0.47955 0.99969 0.0
C466 C 0.88794 0.48497 0.97143 0.0
C467 C 0.8768 0.44929 0.96444 0.0
C468 C 0.89989 0.42896 0.9755 0.0
C469 C 0.93304 0.44417 0.99306 0.0
C470 C 0.86426 0.50778 0.96078 0.0
C471 C 0.88979 0.391 0.9684 0.0
H472 H 0.75081 0.39128 0.96245 0.0
H473 H 0.80588 0.41158 0.86457 0.0
H474 H 0.82631 0.40739 1.01504 0.0
H475 H 0.81813 0.44865 1.01203 0.0
H476 H 0.77979 0.41103 1.01482 0.0
H477 H 0.86824 0.44115 0.8596 0.0
H478 H 0.8855 0.47201 0.89333 0.0
H479 H 0.89495 0.4312 0.89464 0.0
H480 H 0.92985 0.52694 0.99338 0.0
H481 H 0.9504 0.42825 1.00105 0.0
H482 H 0.83663 0.49868 0.97277 0.0
H483 H 0.8604 0.50655 0.93236 0.0
H484 H 0.87635 0.53487 0.96838 0.0
H485 H 0.86311 0.37846 0.98089 0.0
H486 H 0.91085 0.37874 0.978 0.0
H487 H 0.88637 0.38623 0.9402 0.0
C488 C 0.83257 0.6659 0.44868 0.0
C489 C 0.83556 0.66869 0.41246 0.0
C490 C 0.7994 0.64837 0.46516 0.0
C491 C 0.76769 0.63332 0.44525 0.0
C492 C 0.77065 0.63553 0.40863 0.0
C493 C 0.80441 0.65283 0.39277 0.0
C494 C 0.79819 0.6464 0.50411 0.0
C495 C 0.73777 0.6204 0.38614 0.0
C496 C 0.68673 0.56633 0.48736 0.0
C497 C 0.66285 0.58605 0.49728 0.0
C498 C 0.72068 0.58118 0.47055 0.0
C499 C 0.73126 0.6167 0.46282 0.0
C500 C 0.70712 0.63662 0.47257 0.0
C501 C 0.67364 0.62124 0.48971 0.0
C502 C 0.74541 0.5588 0.46124 0.0
C503 C 0.7166 0.67439 0.46474 0.0
H504 H 0.85639 0.67752 0.46433 0.0
H505 H 0.80607 0.6549 0.36486 0.0
H506 H 0.77871 0.66025 0.51432 0.0
H507 H 0.78803 0.61938 0.51246 0.0
H508 H 0.82555 0.65761 0.5159 0.0
H509 H 0.74464 0.62308 0.35816 0.0
H510 H 0.72633 0.59288 0.39211 0.0
H511 H 0.71588 0.63328 0.39166 0.0
H512 H 0.67901 0.5392 0.49291 0.0
H513 H 0.6556 0.63692 0.49683 0.0
H514 H 0.77233 0.56842 0.47426 0.0
H515 H 0.75077 0.55987 0.433 0.0
H516 H 0.73339 0.5317 0.46875 0.0
H517 H 0.74246 0.68775 0.47799 0.0
H518 H 0.69463 0.68625 0.47304 0.0
H519 H 0.72132 0.67859 0.43658 0.0
C520 C 0.31945 0.34372 0.17329 0.0
C521 C 0.3293 0.34558 0.2083 0.0
C522 C 0.29175 0.35793 0.16145 0.0
C523 C 0.27328 0.37417 0.18524 0.0
C524 C 0.28453 0.3779 0.2202 0.0
C525 C 0.31252 0.36366 0.23128 0.0
C526 C 0.28077 0.35372 0.12388 0.0
C527 C 0.26559 0.39516 0.24632 0.0
C528 C 0.21156 0.42617 0.14997 0.0
C529 C 0.17693 0.4023 0.15114 0.0
C530 C 0.2432 0.41755 0.16122 0.0
C531 C 0.24009 0.38435 0.17418 0.0
C532 C 0.20517 0.36033 0.17595 0.0
C533 C 0.17406 0.36956 0.16431 0.0
C534 C 0.27997 0.44381 0.15891 0.0
C535 C 0.20072 0.32468 0.18973 0.0
H536 H 0.33192 0.32947 0.1554 0.0
H537 H 0.32039 0.36563 0.25827 0.0
H538 H 0.25311 0.33556 0.12163 0.0
H539 H 0.27909 0.37847 0.11294 0.0
H540 H 0.30037 0.34386 0.10807 0.0
H541 H 0.28002 0.39908 0.27156 0.0
H542 H 0.26378 0.4203 0.23652 0.0
H543 H 0.23708 0.37922 0.25058 0.0
H544 H 0.21394 0.45172 0.14036 0.0
H545 H 0.14753 0.35084 0.1649 0.0
H546 H 0.2986 0.43432 0.1416 0.0
H547 H 0.29305 0.44797 0.18474 0.0
H548 H 0.27759 0.46875 0.14894 0.0
H549 H 0.21648 0.31105 0.17337 0.0
H550 H 0.17153 0.30942 0.19037 0.0
H551 H 0.21199 0.32596 0.21628 0.0
C552 C 0.63009 0.28262 0.91278 0.0
C553 C 0.66788 0.29258 0.90498 0.0
C554 C 0.61335 0.25085 0.92902 0.0
C555 C 0.63449 0.2277 0.93721 0.0
C556 C 0.6724 0.23726 0.92834 0.0
C557 C 0.68851 0.26936 0.91281 0.0
C558 C 0.57311 0.24247 0.93832 0.0
C559 C 0.69625 0.21363 0.93561 0.0
C560 C 0.6048 0.16025 1.00945 0.0
C561 C 0.58833 0.13 0.99115 0.0
C562 C 0.61891 0.19198 0.99245 0.0
C563 C 0.61752 0.19405 0.95584 0.0
C564 C 0.60098 0.16358 0.93719 0.0
C565 C 0.58635 0.13227 0.95493 0.0
C566 C 0.63544 0.22345 1.01385 0.0
C567 C 0.5993 0.1639 0.89826 0.0
H568 H 0.61377 0.30023 0.90726 0.0
H569 H 0.7176 0.27636 0.90672 0.0
H570 H 0.55821 0.21776 0.92647 0.0
H571 H 0.56975 0.23954 0.96675 0.0
H572 H 0.56013 0.26256 0.92972 0.0
H573 H 0.72465 0.22374 0.92548 0.0
H574 H 0.69769 0.2098 0.96388 0.0
H575 H 0.68403 0.18818 0.92381 0.0
H576 H 0.60636 0.15926 0.03737 0.0
H577 H 0.57389 0.10934 0.94026 0.0
H578 H 0.62183 0.24379 1.00776 0.0
H579 H 0.665 0.23357 1.00738 0.0
H580 H 0.6328 0.21821 0.04204 0.0
H581 H 0.58437 0.18248 0.88961 0.0
H582 H 0.58545 0.13836 0.88737 0.0
H583 H 0.62752 0.17235 0.88741 0.0
C584 C 0.95384 0.80658 0.39394 0.0
C585 C 0.94098 0.77609 0.41283 0.0
C586 C 0.96741 0.83885 0.41065 0.0
C587 C 0.96897 0.84122 0.4474 0.0
C588 C 0.95711 0.81034 0.46646 0.0
C589 C 0.94325 0.77864 0.44918 0.0
C590 C 0.97925 0.87065 0.38887 0.0
C591 C 0.95862 0.81077 0.50543 0.0
C592 C 0.03198 0.92095 0.4927 0.0
C593 C 1.00721 0.93935 0.50394 0.0
C594 C 0.02014 0.88956 0.47427 0.0
C595 C 0.98239 0.87569 0.46606 0.0
C596 C 0.95732 0.89436 0.47696 0.0
C597 C 0.96984 0.92548 0.49576 0.0
C598 C 0.04816 0.87087 0.46404 0.0
C599 C 0.91695 0.88132 0.46888 0.0
H600 H 0.9521 0.80541 0.366 0.0
H601 H 0.93393 0.75553 0.46437 0.0
H602 H 0.9618 0.88799 0.39499 0.0
H603 H 1.00801 0.88467 0.39499 0.0
H604 H 0.97728 0.86483 0.36076 0.0
H605 H 0.94991 0.78466 0.51661 0.0
H606 H 0.98696 0.82333 0.51419 0.0
H607 H 0.9405 0.82591 0.5159 0.0
H608 H 0.06088 0.93086 0.49873 0.0
H609 H 0.95015 0.93906 0.50399 0.0
H610 H 0.0476 0.86673 0.43567 0.0
H611 H 0.04122 0.84529 0.47637 0.0
H612 H 0.07648 0.88498 0.47168 0.0
H613 H 0.91306 0.87714 0.44064 0.0
H614 H 0.90106 0.89926 0.4776 0.0
H615 H 0.90544 0.85629 0.48165 0.0
C616 C 0.28495 0.72801 0.61434 0.0
C617 C 0.28294 0.75376 0.63785 0.0
C618 C 0.31575 0.71492 0.6134 0.0
C619 C 0.34492 0.72762 0.63688 0.0
C620 C 0.34244 0.7529 0.66141 0.0
C621 C 0.31143 0.76573 0.66155 0.0
C622 C 0.31738 0.68798 0.58686 0.0
C623 C 0.37279 0.7668 0.68707 0.0
C624 C 0.41107 0.67285 0.64952 0.0
C625 C 0.44006 0.68882 0.62739 0.0
C626 C 0.38032 0.68572 0.65361 0.0
C627 C 0.37844 0.71511 0.63492 0.0
C628 C 0.40799 0.73176 0.61312 0.0
C629 C 0.43849 0.71846 0.60969 0.0
C630 C 0.34951 0.66748 0.67735 0.0
C631 C 0.40689 0.76304 0.59261 0.0
H632 H 0.26266 0.71855 0.59628 0.0
H633 H 0.30961 0.78551 0.67985 0.0
H634 H 0.34124 0.69777 0.56938 0.0
H635 H 0.32141 0.66493 0.5998 0.0
H636 H 0.29206 0.68032 0.57098 0.0
H637 H 0.36572 0.78504 0.70563 0.0
H638 H 0.37881 0.74555 0.7018 0.0
H639 H 0.39833 0.78011 0.67315 0.0
H640 H 0.41239 0.65015 0.66355 0.0
H641 H 0.46063 0.73064 0.59225 0.0
H642 H 0.32412 0.65706 0.66216 0.0
H643 H 0.34347 0.68571 0.69647 0.0
H644 H 0.35611 0.64611 0.69147 0.0
H645 H 0.38371 0.75641 0.57408 0.0
H646 H 0.43273 0.77378 0.57793 0.0
H647 H 0.40207 0.78315 0.61009 0.0
C648 C 0.74348 0.78776 0.79592 0.0
C649 C 0.73448 0.81226 0.81745 0.0
C650 C 0.76371 0.79754 0.76529 0.0
C651 C 0.77558 0.83262 0.7565 0.0
C652 C 0.76489 0.85714 0.77726 0.0
C653 C 0.74453 0.84666 0.80739 0.0
C654 C 0.77394 0.77057 0.74349 0.0
C655 C 0.77704 0.89489 0.76898 0.0
C656 C 0.86536 0.87669 0.7145 0.0
C657 C 0.85321 0.88831 0.68391 0.0
C658 C 0.8406 0.8551 0.73696 0.0
C659 C 0.80281 0.84491 0.72845 0.0
C660 C 0.79115 0.85323 0.69567 0.0
C661 C 0.81659 0.87506 0.67369 0.0
C662 C 0.85434 0.84648 0.77145 0.0
C663 C 0.75128 0.84199 0.68529 0.0
H664 H 0.73551 0.76108 0.80345 0.0
H665 H 0.73831 0.86586 0.82415 0.0
H666 H 0.77277 0.7762 0.71554 0.0
H667 H 0.80252 0.7702 0.74946 0.0
H668 H 0.75561 0.7447 0.74873 0.0
H669 H 0.76436 0.9103 0.78651 0.0
H670 H 0.80736 0.90431 0.77132 0.0
H671 H 0.76979 0.8994 0.742 0.0
H672 H 0.89391 0.8864 0.72199 0.0
H673 H 0.80721 0.88385 0.64988 0.0
H674 H 0.84241 0.81911 0.77767 0.0
H675 H 0.8456 0.86178 0.79203 0.0
H676 H 0.88478 0.85209 0.77202 0.0
H677 H 0.7384 0.81535 0.69369 0.0
H678 H 0.74799 0.8437 0.65689 0.0
H679 H 0.7362 0.85873 0.69805 0.0
C680 C 0.83426 0.20636 0.31603 0.0
C681 C 0.84739 0.24123 0.32402 0.0
C682 C 0.81102 0.19524 0.28787 0.0
C683 C 0.80017 0.21954 0.26726 0.0
C684 C 0.81323 0.25482 0.27505 0.0
C685 C 0.83675 0.26528 0.30341 0.0
C686 C 0.79771 0.15734 0.28047 0.0
C687 C 0.80211 0.28137 0.25364 0.0
C688 C 0.76549 0.18159 0.18066 0.0
C689 C 0.72787 0.16844 0.18761 0.0
C690 C 0.78919 0.20094 0.20546 0.0
C691 C 0.77483 0.20733 0.23789 0.0
C692 C 0.73642 0.19677 0.24384 0.0
C693 C 0.71336 0.17736 0.2186 0.0
C694 C 0.82992 0.21195 0.198 0.0
C695 C 0.72001 0.20334 0.27799 0.0
H696 H 0.84152 0.18753 0.33233 0.0
H697 H 0.84688 0.29227 0.30941 0.0
H698 H 0.7673 0.14881 0.28239 0.0
H699 H 0.80535 0.15191 0.25374 0.0
H700 H 0.80934 0.14188 0.29863 0.0
H701 H 0.81525 0.30781 0.26268 0.0
H702 H 0.80967 0.2791 0.22617 0.0
H703 H 0.77184 0.27697 0.2547 0.0
H704 H 0.7767 0.17535 0.15641 0.0
H705 H 0.68433 0.16723 0.22417 0.0
H706 H 0.84368 0.19539 0.21255 0.0
H707 H 0.84206 0.23865 0.20665 0.0
H708 H 0.83599 0.20997 0.17006 0.0
H709 H 0.72626 0.18613 0.29789 0.0
H710 H 0.6897 0.19865 0.27649 0.0
H711 H 0.73216 0.23002 0.28673 0.0
C712 C 0.42037 0.62841 0.32335 0.0
C713 C 0.44447 0.6556 0.30556 0.0
C714 C 0.43076 0.61509 0.35452 0.0
C715 C 0.46636 0.62896 0.36875 0.0
C716 C 0.49014 0.65741 0.35165 0.0
C717 C 0.479 0.67027 0.32064 0.0
C718 C 0.40404 0.58509 0.37147 0.0
C719 C 0.52824 0.67342 0.36528 0.0
C720 C 0.48931 0.60838 0.46276 0.0
C721 C 0.50718 0.58231 0.4581 0.0
C722 C 0.47556 0.62337 0.43435 0.0
C723 C 0.47966 0.61246 0.3999 0.0
C724 C 0.49742 0.586 0.39513 0.0
C725 C 0.51073 0.5714 0.42391 0.0
C726 C 0.45683 0.65123 0.44124 0.0
C727 C 0.50285 0.57324 0.35933 0.0
H728 H 0.39381 0.61653 0.31202 0.0
H729 H 0.49813 0.69104 0.30727 0.0
H730 H 0.41464 0.56217 0.3694 0.0
H731 H 0.40125 0.59027 0.39938 0.0
H732 H 0.37642 0.57915 0.35939 0.0
H733 H 0.54252 0.69681 0.35078 0.0
H734 H 0.52696 0.68015 0.39298 0.0
H735 H 0.54491 0.65474 0.36336 0.0
H736 H 0.48622 0.61734 0.48873 0.0
H737 H 0.52441 0.55146 0.41942 0.0
H738 H 0.42887 0.64412 0.42993 0.0
H739 H 0.4724 0.67525 0.42858 0.0
H740 H 0.45456 0.65624 0.4693 0.0
H741 H 0.47593 0.56387 0.34627 0.0
H742 H 0.51662 0.55225 0.3597 0.0
H743 H 0.51972 0.59455 0.34357 0.0
C744 C 0.17297 0.40629 0.83046 0.0
C745 C 0.14742 0.38256 0.80976 0.0
C746 C 0.1622 0.42334 0.85924 0.0
C747 C 0.12462 0.41671 0.86898 0.0
C748 C 0.09867 0.39212 0.84896 0.0
C749 C 0.11019 0.37561 0.81994 0.0
C750 C 0.19136 0.44901 0.87911 0.0
C751 C 0.05836 0.3835 0.85797 0.0
C752 C 0.10164 0.44248 0.96208 0.0
C753 C 0.09235 0.47357 0.95708 0.0
C754 C 0.11153 0.42371 0.93405 0.0
C755 C 0.11276 0.43597 0.89948 0.0
C756 C 0.10364 0.46743 0.89434 0.0
C757 C 0.09349 0.48548 0.92275 0.0
C758 C 0.12053 0.39043 0.94152 0.0
C759 C 0.10476 0.4823 0.85857 0.0
H760 H 0.20194 0.41169 0.82433 0.0
H761 H 0.08968 0.35774 0.80474 0.0
H762 H 0.18568 0.47445 0.87832 0.0
H763 H 0.1908 0.44139 0.90664 0.0
H764 H 0.21939 0.45155 0.86862 0.0
H765 H 0.04162 0.36282 0.84133 0.0
H766 H 0.05413 0.37539 0.88537 0.0
H767 H 0.04816 0.40655 0.85508 0.0
H768 H 0.10077 0.43243 0.98807 0.0
H769 H 0.08645 0.50922 0.91791 0.0
H770 H 0.14913 0.39208 0.93331 0.0
H771 H 0.10218 0.36946 0.92641 0.0
H772 H 0.11759 0.38369 0.96937 0.0
H773 H 0.13282 0.48681 0.84754 0.0
H774 H 0.09695 0.50682 0.85847 0.0
H775 H 0.08582 0.4639 0.8413 0.0
C776 C 0.63914 0.83268 0.94338 0.0
C777 C 0.66337 0.84202 0.91529 0.0
C778 C 0.6225 0.85631 0.95864 0.0
C779 C 0.62987 0.88986 0.94515 0.0
C780 C 0.6535 0.89918 0.91632 0.0
C781 C 0.6703 0.87538 0.9021 0.0
C782 C 0.59776 0.84565 0.98967 0.0
C783 C 0.66179 0.93461 0.90095 0.0
C784 C 0.56637 0.94566 0.96626 0.0
C785 C 0.58674 0.96783 0.99125 0.0
C786 C 0.57987 0.9199 0.95122 0.0
C787 C 0.61426 0.9159 0.96191 0.0
C788 C 0.63473 0.93795 0.98745 0.0
C789 C 0.62087 0.96387 1.00158 0.0
C790 C 0.55763 0.89733 0.92356 0.0
C791 C 0.67129 0.93417 0.99984 0.0
H792 H 0.63338 0.80698 0.95363 0.0
H793 H 0.68977 0.88341 0.88113 0.0
H794 H 0.6095 0.86173 1.01227 0.0
H795 H 0.57037 0.84975 0.98465 0.0
H796 H 0.5941 0.81838 0.99651 0.0
H797 H 0.6786 0.93696 0.87699 0.0
H798 H 0.63586 0.94123 0.89485 0.0
H799 H 0.6769 0.95369 0.91998 0.0
H800 H 0.53996 0.94862 0.95818 0.0
H801 H 0.63649 0.98061 1.02125 0.0
H802 H 0.55212 0.87006 0.931 0.0
H803 H 0.57349 0.90064 0.89901 0.0
H804 H 0.53097 0.9032 0.91882 0.0
H805 H 0.66823 0.90771 1.00909 0.0
H806 H 0.68287 0.95228 1.0211 0.0
H807 H 0.69129 0.93873 0.97814 0.0
C808 C 0.96889 0.22949 0.42766 0.0
C809 C 0.93735 0.2171 0.40748 0.0
C810 C 0.98645 0.20697 0.44323 0.0
C811 C 0.97209 0.17128 0.43843 0.0
C812 C 0.94166 0.15877 0.41639 0.0
C813 C 0.92457 0.1818 0.40132 0.0
C814 C 0.01899 0.22125 0.46644 0.0
C815 C 0.92552 0.1209 0.41059 0.0
C816 C 0.02516 0.10892 0.46764 0.0
C817 C 1.00857 0.09843 0.49975 0.0
C818 C 0.01403 0.13305 0.44747 0.0
C819 C 0.98568 0.14689 0.45974 0.0
C820 C 0.96902 0.13655 0.49217 0.0
C821 C 0.98064 0.11248 0.51173 0.0
C822 C 0.03234 0.14351 0.41297 0.0
C823 C 0.93864 0.1507 0.50616 0.0
H824 H 0.97918 0.25676 0.43215 0.0
H825 H 0.89989 0.17185 0.38624 0.0
H826 H 1.01077 0.21513 0.49374 0.0
H827 H 0.04153 0.20934 0.46041 0.0
H828 H 0.02963 0.24944 0.46399 0.0
H829 H 0.90488 0.11557 0.38951 0.0
H830 H 0.94745 0.10836 0.40415 0.0
H831 H 0.91194 0.10902 0.43469 0.0
H832 H 0.04688 0.09833 0.45823 0.0
H833 H 0.96768 0.10467 0.53651 0.0
H834 H 0.04374 0.17169 0.41204 0.0
H835 H 1.01176 0.13637 0.392 0.0
H836 H 0.05487 0.13131 0.40771 0.0
H837 H 0.94819 0.179 0.50778 0.0
H838 H 0.92916 0.14057 0.53221 0.0
H839 H 0.91481 0.14419 0.48838 0.0
C840 C 0.31658 0.63293 0.16018 0.0
C841 C 0.3208 0.66718 0.16995 0.0
C842 C 0.28522 0.6141 0.14177 0.0
C843 C 0.25653 0.62934 0.13348 0.0
C844 C 0.26044 0.66373 0.14387 0.0
C845 C 0.29245 0.68219 0.16143 0.0
C846 C 0.28298 0.57789 0.13081 0.0
C847 C 0.2305 0.68104 0.1368 0.0
C848 C 0.18532 0.59305 0.06197 0.0
C849 C 0.15544 0.5729 0.08084 0.0
C850 C 0.21853 0.61072 0.07848 0.0
C851 C 0.22199 0.6092 0.11502 0.0
C852 C 0.19178 0.58905 0.13411 0.0
C853 C 0.1594 0.57099 0.11691 0.0
C854 C 0.25003 0.63106 0.05675 0.0
C855 C 0.19329 0.58709 0.173 0.0
H856 H 0.33831 0.62107 0.16623 0.0
H857 H 0.2951 0.70847 0.169 0.0
H858 H 0.25887 0.55998 0.14313 0.0
H859 H 0.27905 0.57526 0.10242 0.0
H860 H 0.30804 0.57007 0.13781 0.0
H861 H 0.23725 0.70761 0.14701 0.0
H862 H 0.22578 0.68176 0.10859 0.0
H863 H 0.20434 0.66621 0.14876 0.0
H864 H 0.18292 0.59478 0.03419 0.0
H865 H 0.13664 0.55588 0.13206 0.0
H866 H 0.27516 0.62274 0.06206 0.0
H867 H 0.25613 0.65855 0.06366 0.0
H868 H 0.24404 0.62822 0.02865 0.0
H869 H 0.21645 0.57683 0.18086 0.0
H870 H 0.1675 0.57064 0.18424 0.0
H871 H 0.19833 0.61311 0.18429 0.0
C872 C 0.29401 0.43348 0.66833 0.0
C873 C 0.29837 0.40769 0.69075 0.0
C874 C 0.32247 0.45018 0.64528 0.0
C875 C 0.35665 0.44167 0.64509 0.0
C876 C 0.36095 0.41553 0.6676 0.0
C877 C 0.33203 0.39908 0.68995 0.0
C878 C 0.3163 0.47763 0.62175 0.0
C879 C 0.39676 0.40572 0.66907 0.0
C880 C 0.42843 0.46684 0.57178 0.0
C881 C 0.45378 0.49574 0.58565 0.0
C882 C 0.39613 0.44976 0.59011 0.0
C883 C 0.38886 0.46143 0.62342 0.0
C884 C 0.41398 0.491 0.63713 0.0
C885 C 0.44571 0.5077 0.61819 0.0
C886 C 0.37012 0.41872 0.5741 0.0
C887 C 0.40801 0.50447 0.6725 0.0
H888 H 0.26861 0.44105 0.66917 0.0
H889 H 0.33613 0.37984 0.70769 0.0
H890 H 0.3344 0.50282 0.62959 0.0
H891 H 0.32365 0.47281 0.59475 0.0
H892 H 0.28736 0.47909 0.62243 0.0
H893 H 0.3953 0.38391 0.68677 0.0
H894 H 0.40454 0.39873 0.64292 0.0
H895 H 0.41899 0.4279 0.67804 0.0
H896 H 0.434 0.45721 0.54675 0.0
H897 H 0.46474 0.52993 0.62948 0.0
H898 H 0.34169 0.42152 0.57441 0.0
H899 H 0.36999 0.3957 0.58952 0.0
H900 H 0.37783 0.41441 0.54704 0.0
H901 H 0.38045 0.50919 0.67409 0.0
H902 H 0.42902 0.52859 0.67893 0.0
H903 H 0.40895 0.48509 0.69237 0.0
C904 C 0.76354 0.69016 0.96379 0.0
C905 C 0.76289 0.71502 0.93896 0.0
C906 C 0.79509 0.67861 0.96848 0.0
C907 C 0.82663 0.6923 0.94781 0.0
C908 C 0.82585 0.71697 0.9223 0.0
C909 C 0.79386 0.72775 0.91794 0.0
C910 C 0.79472 0.65187 0.99558 0.0
C911 C 0.85892 0.73224 0.8998 0.0
C912 C 0.91983 0.68809 0.98093 0.0
C913 C 0.92603 0.66101 0.96139 0.0
C914 C 0.88751 0.69847 0.97685 0.0
C915 C 0.86062 0.68106 0.95296 0.0
C916 C 0.86659 0.65346 0.93343 0.0
C917 C 0.89933 0.64388 0.93775 0.0
C918 C 0.8823 0.72827 0.99785 0.0
C919 C 0.83837 0.63401 0.908 0.0
H920 H 0.73938 0.67985 0.97961 0.0
H921 H 0.79321 0.7465 0.89831 0.0
H922 H 0.80129 0.62935 0.98354 0.0
H923 H 0.81619 0.66226 1.01517 0.0
H924 H 0.76772 0.64324 1.00892 0.0
H925 H 0.85382 0.75124 0.88122 0.0
H926 H 0.88271 0.74498 0.91619 0.0
H927 H 0.86675 0.71176 0.88506 0.0
H928 H 0.94054 0.70148 0.99908 0.0
H929 H 0.90384 0.62258 0.923 0.0
H930 H 0.85676 0.72019 1.01348 0.0
H931 H 0.8792 0.74889 0.98035 0.0
H932 H 0.90572 0.73891 1.0155 0.0
H933 H 0.81166 0.62353 0.9213 0.0
H934 H 0.84681 0.61259 0.89551 0.0
H935 H 0.83387 0.65153 0.88756 0.0
C936 C 0.43302 0.80597 0.19772 0.0
C937 C 0.42366 0.77642 0.1769 0.0
C938 C 0.44787 0.83897 0.18334 0.0
C939 C 0.45441 0.84296 0.14715 0.0
C940 C 0.44587 0.81308 0.12619 0.0
C941 C 0.43045 0.78055 0.14113 0.0
C942 C 0.45586 0.86976 0.20689 0.0
C943 C 0.45288 0.81543 0.08773 0.0
C944 C 0.46101 0.9292 0.10183 0.0
C945 C 0.49918 0.94368 0.09869 0.0
C946 C 0.44624 0.89707 0.11796 0.0
C947 C 0.4699 0.87815 0.13111 0.0
C948 C 0.50843 0.89263 0.12798 0.0
C949 C 0.52246 0.925 0.11218 0.0
C950 C 0.40508 0.88327 0.12081 0.0
C951 C 0.53502 0.8736 0.14087 0.0
H952 H 0.42767 0.80343 0.22525 0.0
H953 H 0.42379 0.7581 0.12465 0.0
H954 H 0.48523 0.88411 0.20477 0.0
H955 H 0.4394 0.8873 0.19885 0.0
H956 H 0.4495 0.86265 0.23436 0.0
H957 H 0.44608 0.7899 0.07508 0.0
H958 H 0.43622 0.83097 0.07565 0.0
H959 H 0.48218 0.82851 0.08254 0.0
H960 H 0.44249 0.94305 0.0917 0.0
H961 H 0.55195 0.93544 0.1099 0.0
H962 H 0.39703 0.8775 0.14821 0.0
H963 H 0.39595 0.85896 0.10613 0.0
H964 H 0.3903 0.90147 0.11077 0.0
H965 H 0.5304 0.868 0.16881 0.0
H966 H 0.56412 0.88823 0.13691 0.0
H967 H 0.53021 0.84871 0.12721 0.0
C968 C 0.10783 0.27689 0.69835 0.0
C969 C 0.13804 0.28303 0.72088 0.0
C970 C 0.09565 0.24567 0.67957 0.0
C971 C 0.11385 0.21933 0.68311 0.0
C972 C 0.14382 0.22519 0.70657 0.0
C973 C 0.15566 0.25677 0.72465 0.0
C974 C 0.06394 0.24137 0.65491 0.0
C975 C 0.16417 0.19833 0.71194 0.0
C976 C 0.06491 0.12651 0.65443 0.0
C977 C 0.08094 0.12339 0.62197 0.0
C978 C 0.07517 0.15714 0.6743 0.0
C979 C 0.10227 0.18619 0.66186 0.0
C980 C 0.11851 0.18326 0.62909 0.0
C981 C 0.10782 0.15225 0.60979 0.0
C982 C 0.05692 0.15835 0.70887 0.0
C983 C 0.14734 0.21307 0.61425 0.0
H984 H 0.09455 0.29715 0.69432 0.0
H985 H 0.17952 0.26132 0.74125 0.0
H986 H 0.0735 0.23878 0.62812 0.0
H987 H 0.0423 0.21761 0.66095 0.0
H988 H 0.05162 0.26332 0.6559 0.0
H989 H 0.18535 0.20566 0.73242 0.0
H990 H 0.1446 0.17363 0.71909 0.0
H991 H 0.17779 0.19411 0.68748 0.0
H992 H 0.04412 0.10483 0.66453 0.0
H993 H 0.12058 0.15074 0.58491 0.0
H994 H 0.0429 0.17913 0.70903 0.0
H995 H 0.07796 0.16424 0.72953 0.0
H996 H 0.03645 0.13387 0.71518 0.0
H997 H 0.13604 0.23553 0.61181 0.0
H998 H 0.15722 0.20719 0.58846 0.0
H999 H 0.17117 0.22047 0.63198 0.0
C1000 C 0.81369 0.32908 0.4871 0.0
C1001 C 0.81686 0.3069 0.46015 0.0
C1002 C 0.78457 0.34447 0.48798 0.0
C1003 C 0.75846 0.33792 0.46093 0.0
C1004 C 0.76193 0.31594 0.43336 0.0
C1005 C 0.79093 0.30041 0.43351 0.0
C1006 C 0.78153 0.36744 0.51802 0.0
C1007 C 0.73494 0.30872 0.40383 0.0
C1008 C 0.66523 0.35291 0.47965 0.0
C1009 C 0.66969 0.38574 0.46609 0.0
C1010 C 0.69378 0.33684 0.47779 0.0
C1011 C 0.7274 0.35393 0.4617 0.0
C1012 C 0.73171 0.38673 0.44721 0.0
C1013 C 0.70284 0.40231 0.44972 0.0
C1014 C 0.68831 0.30197 0.49382 0.0
C1015 C 0.76698 0.40555 0.42945 0.0
H1016 H 0.83375 0.33404 0.50773 0.0
H1017 H 0.79322 0.28293 0.41293 0.0
H1018 H 0.78239 0.3934 0.50853 0.0
H1019 H 0.75477 0.35738 0.53137 0.0
H1020 H 0.80392 0.36965 0.53711 0.0
H1021 H 0.74238 0.2921 0.38373 0.0
H1022 H 0.70701 0.29603 0.4137 0.0
H1023 H 0.73363 0.33305 0.39162 0.0
H1024 H 0.63976 0.34021 0.49262 0.0
H1025 H 0.70618 0.42755 0.43886 0.0
H1026 H 0.7085 0.30337 0.51487 0.0
H1027 H 0.69327 0.28361 0.47429 0.0
H1028 H 0.66021 0.2918 0.50462 0.0
H1029 H 0.79 0.41067 0.44814 0.0
H1030 H 0.76535 0.43028 0.4183 0.0
H1031 H 0.77371 0.38951 0.40844 0.0
loop_
_geom_bond_atom_site_label_1
_geom_bond_atom_site_label_2
_geom_bond_distance
_geom_bond_site_symmetry_2
_ccdc_geom_bond_type
H0 C7 0.929 . S
H1 C10 0.930 . S
H2 C12 0.929 . S
H3 C4 0.969 . S
C4 H3 0.969 . S
C4 O5 1.550 . S
C4 H6 0.973 . S
O5 C4 1.550 . S
O5 C11 1.412 . S
H6 C4 0.973 . S
C7 H0 0.929 . S
C7 C8 1.400 . S
C7 C9 1.364 . S
C8 C7 1.400 . S
C8 C12 1.377 . S
C9 C7 1.364 . S
C9 C10 1.374 . S
C10 H1 0.930 . S
C10 C9 1.374 . S
C10 C11 1.383 . S
C11 O5 1.412 . S
C11 C10 1.383 . S
C11 C12 1.394 . S
C12 H2 0.929 . S
C12 C8 1.377 . S
C12 C11 1.394 . S
H13 C20 0.929 . S
H14 C23 0.930 . S
H15 C25 0.929 . S
H16 C17 0.969 . S
C17 H16 0.969 . S
C17 O18 1.550 . S
C17 H19 0.973 . S
O18 C17 1.550 . S
O18 C24 1.412 . S
H19 C17 0.973 . S
C20 H13 0.929 . S
C20 C21 1.400 . S
C20 C22 1.364 . S
C21 C20 1.400 . S
C21 C25 1.377 . S
C22 C20 1.364 . S
C22 C23 1.374 . S
C23 H14 0.930 . S
C23 C22 1.374 . S
C23 C24 1.383 . S
C24 O18 1.412 . S
C24 C23 1.383 . S
C24 C25 1.394 . S
C25 H15 0.929 . S
C25 C21 1.377 . S
C25 C24 1.394 . S
H26 C33 0.929 . S
H27 C36 0.930 . S
H28 C38 0.929 . S
H29 C30 0.969 . S
C30 H29 0.969 . S
C30 O31 1.550 . S
C30 H32 0.973 . S
O31 C30 1.550 . S
O31 C37 1.412 . S
H32 C30 0.973 . S
C33 H26 0.929 . S
C33 C34 1.400 . S
C33 C35 1.364 . S
C34 C33 1.400 . S
C34 C38 1.377 . S
C35 C33 1.364 . S
C35 C36 1.374 . S
C36 H27 0.930 . S
C36 C35 1.374 . S
C36 C37 1.383 . S
C37 O31 1.412 . S
C37 C36 1.383 . S
C37 C38 1.394 . S
C38 H28 0.929 . S
C38 C34 1.377 . S
C38 C37 1.394 . S
H39 C46 0.929 . S
H40 C49 0.930 . S
H41 C51 0.929 . S
H42 C43 0.969 . S
C43 H42 0.969 . S
C43 O44 1.550 . S
C43 H45 0.973 . S
O44 C43 1.550 . S
O44 C50 1.412 . S
H45 C43 0.973 . S
C46 H39 0.929 . S
C46 C47 1.400 . S
C46 C48 1.364 . S
C47 C46 1.400 . S
C47 C51 1.377 . S
C48 C46 1.364 . S
C48 C49 1.374 . S
C49 H40 0.930 . S
C49 C48 1.374 . S
C49 C50 1.383 . S
C50 O44 1.412 . S
C50 C49 1.383 . S
C50 C51 1.394 . S
C51 H41 0.929 . S
C51 C47 1.377 . S
C51 C50 1.394 . S
H52 C59 0.929 . S
H53 C62 0.930 . S
H54 C64 0.929 . S
H55 C56 0.969 . S
C56 H55 0.969 . S
C56 O57 1.550 . S
C56 H58 0.973 . S
O57 C56 1.550 . S
O57 C63 1.412 . S
H58 C56 0.973 . S
C59 H52 0.929 . S
C59 C60 1.400 . S
C59 C61 1.364 . S
C60 C59 1.400 . S
C60 C64 1.377 . S
C61 C59 1.364 . S
C61 C62 1.374 . S
C62 H53 0.930 . S
C62 C61 1.374 . S
C62 C63 1.383 . S
C63 O57 1.412 . S
C63 C62 1.383 . S
C63 C64 1.394 . S
C64 H54 0.929 . S
C64 C60 1.377 . S
C64 C63 1.394 . S
H65 C72 0.929 . S
H66 C75 0.930 . S
H67 C77 0.929 . S
H68 C69 0.969 . S
C69 H68 0.969 . S
C69 O70 1.550 . S
C69 H71 0.973 . S
O70 C69 1.550 . S
O70 C76 1.412 . S
H71 C69 0.973 . S
C72 H65 0.929 . S
C72 C73 1.400 . S
C72 C74 1.364 . S
C73 C72 1.400 . S
C73 C77 1.377 . S
C74 C72 1.364 . S
C74 C75 1.374 . S
C75 H66 0.930 . S
C75 C74 1.374 . S
C75 C76 1.383 . S
C76 O70 1.412 . S
C76 C75 1.383 . S
C76 C77 1.394 . S
C77 H67 0.929 . S
C77 C73 1.377 . S
C77 C76 1.394 . S
H78 C85 0.929 . S
H79 C88 0.930 . S
H80 C90 0.929 . S
H81 C82 0.969 . S
C82 H81 0.969 . S
C82 O83 1.550 . S
C82 H84 0.973 . S
O83 C82 1.550 . S
O83 C89 1.412 . S
H84 C82 0.973 . S
C85 H78 0.929 . S
C85 C86 1.400 . S
C85 C87 1.364 . S
C86 C85 1.400 . S
C86 C90 1.377 . S
C87 C85 1.364 . S
C87 C88 1.374 . S
C88 H79 0.930 . S
C88 C87 1.374 . S
C88 C89 1.383 . S
C89 O83 1.412 . S
C89 C88 1.383 . S
C89 C90 1.394 . S
C90 H80 0.929 . S
C90 C86 1.377 . S
C90 C89 1.394 . S
H91 C98 0.929 . S
H92 C101 0.930 . S
H93 C103 0.929 . S
H94 C95 0.969 . S
C95 H94 0.969 . S
C95 O96 1.550 . S
C95 H97 0.973 . S
O96 C95 1.550 . S
O96 C102 1.412 . S
H97 C95 0.973 . S
C98 H91 0.929 . S
C98 C99 1.400 . S
C98 C100 1.364 . S
C99 C98 1.400 . S
C99 C103 1.377 . S
C100 C98 1.364 . S
C100 C101 1.374 . S
C101 H92 0.930 . S
C101 C100 1.374 . S
C101 C102 1.383 . S
C102 O96 1.412 . S
C102 C101 1.383 . S
C102 C103 1.394 . S
C103 H93 0.929 . S
C103 C99 1.377 . S
C103 C102 1.394 . S
Tb104 C113 2.764 . S
Tb104 O114 2.325 . S
Tb104 O117 2.303 . S
Tb104 O121 2.322 1_545 S
Tb104 O122 2.349 1_545 S
Tb104 O125 2.415 . S
Tb104 O126 2.399 . S
Tb105 O115 2.322 . S
Tb105 O116 2.349 1_655 S
Tb105 O118 2.415 1_545 S
Tb105 O119 2.399 . S
Tb105 O120 2.325 1_645 S
Tb105 O123 2.303 1_545 S
Tb105 C134 2.764 1_545 S
C106 O122 1.261 1_655 S
C106 O123 1.257 . S
C107 C110 1.358 . S
C107 C111 1.332 . S
C107 C113 1.504 . S
C108 C109 1.373 . S
C108 C112 1.308 . S
C109 C108 1.373 . S
C109 C110 1.429 . S
C109 H136 0.932 . S
C110 C107 1.358 . S
C110 C109 1.429 . S
C110 H137 0.930 . S
C111 C107 1.332 . S
C111 C112 1.394 . S
C111 H138 0.932 . S
C112 C108 1.308 . S
C112 C111 1.394 . S
C112 H139 0.929 . S
C113 Tb104 2.764 . S
C113 C107 1.504 . S
C113 O125 1.239 . S
C113 O126 1.263 . S
O114 Tb104 2.325 . S
O114 C124 1.236 1_455 S
O115 Tb105 2.322 . S
O115 C124 1.257 . S
O116 Tb105 2.349 1_455 S
O116 C127 1.261 . S
O117 Tb104 2.303 . S
O117 C127 1.257 . S
O118 Tb105 2.415 1_565 S
O118 C134 1.239 . S
O119 Tb105 2.399 . S
O119 C134 1.263 1_545 S
O120 Tb105 2.325 1_465 S
O120 C135 1.236 . S
O121 Tb104 2.322 1_565 S
O121 C135 1.257 . S
O122 Tb104 2.349 1_565 S
O122 C106 1.261 1_455 S
O123 Tb105 2.303 1_565 S
O123 C106 1.257 . S
C124 O114 1.236 1_655 S
C124 O115 1.257 . S
O125 Tb104 2.415 . S
O125 C113 1.239 . S
O126 Tb104 2.399 . S
O126 C113 1.263 . S
C127 O116 1.261 . S
C127 O117 1.257 . S
C128 C131 1.358 . S
C128 C132 1.332 . S
C128 C134 1.504 . S
C129 C130 1.373 . S
C129 C133 1.308 . S
C130 C129 1.373 . S
C130 C131 1.429 . S
C130 H140 0.932 . S
C131 C128 1.358 . S
C131 C130 1.429 . S
C131 H141 0.930 . S
C132 C128 1.332 . S
C132 C133 1.394 . S
C132 H142 0.932 . S
C133 C129 1.308 . S
C133 C132 1.394 . S
C133 H143 0.929 . S
C134 Tb105 2.764 1_565 S
C134 O118 1.239 . S
C134 O119 1.263 1_565 S
C134 C128 1.504 . S
C135 O120 1.236 . S
C135 O121 1.257 . S
H136 C109 0.932 . S
H137 C110 0.930 . S
H138 C111 0.932 . S
H139 C112 0.929 . S
H140 C130 0.932 . S
H141 C131 0.930 . S
H142 C132 0.932 . S
H143 C133 0.929 . S
Tb144 C153 2.764 . S
Tb144 O154 2.325 . S
Tb144 O157 2.303 . S
Tb144 O161 2.322 1_545 S
Tb144 O162 2.349 1_545 S
Tb144 O165 2.415 . S
Tb144 O166 2.399 . S
Tb145 O155 2.322 . S
Tb145 O156 2.349 1_556 S
Tb145 O158 2.415 1_545 S
Tb145 O159 2.399 1_545 S
Tb145 O160 2.325 1_546 S
Tb145 O163 2.303 1_545 S
Tb145 C174 2.764 1_545 S
C146 O162 1.261 1_556 S
C146 O163 1.257 . S
C147 C150 1.358 . S
C147 C151 1.332 . S
C147 C153 1.504 . S
C148 C149 1.373 . S
C148 C152 1.308 . S
C149 C148 1.373 . S
C149 C150 1.429 . S
C149 H176 0.932 . S
C150 C147 1.358 . S
C150 C149 1.429 . S
C150 H177 0.930 . S
C151 C147 1.332 . S
C151 C152 1.394 . S
C151 H178 0.932 . S
C152 C148 1.308 . S
C152 C151 1.394 . S
C152 H179 0.929 . S
C153 Tb144 2.764 . S
C153 C147 1.504 . S
C153 O165 1.239 . S
C153 O166 1.263 . S
O154 Tb144 2.325 . S
O154 C164 1.236 1_554 S
O155 Tb145 2.322 . S
O155 C164 1.257 . S
O156 Tb145 2.349 1_554 S
O156 C167 1.261 . S
O157 Tb144 2.303 . S
O157 C167 1.257 . S
O158 Tb145 2.415 1_565 S
O158 C174 1.239 . S
O159 Tb145 2.399 1_565 S
O159 C174 1.263 . S
O160 Tb145 2.325 1_564 S
O160 C175 1.236 . S
O161 Tb144 2.322 1_565 S
O161 C175 1.257 . S
O162 Tb144 2.349 1_565 S
O162 C146 1.261 1_554 S
O163 Tb145 2.303 1_565 S
O163 C146 1.257 . S
C164 O154 1.236 1_556 S
C164 O155 1.257 . S
O165 Tb144 2.415 . S
O165 C153 1.239 . S
O166 Tb144 2.399 . S
O166 C153 1.263 . S
C167 O156 1.261 . S
C167 O157 1.257 . S
C168 C171 1.358 . S
C168 C172 1.332 . S
C168 C174 1.504 . S
C169 C170 1.373 . S
C169 C173 1.308 . S
C170 C169 1.373 . S
C170 C171 1.429 . S
C170 H180 0.932 . S
C171 C168 1.358 . S
C171 C170 1.429 . S
C171 H181 0.930 . S
C172 C168 1.332 . S
C172 C173 1.394 . S
C172 H182 0.932 . S
C173 C169 1.308 . S
C173 C172 1.394 . S
C173 H183 0.929 . S
C174 Tb145 2.764 1_565 S
C174 O158 1.239 . S
C174 O159 1.263 . S
C174 C168 1.504 . S
C175 O160 1.236 . S
C175 O161 1.257 . S
H176 C149 0.932 . S
H177 C150 0.930 . S
H178 C151 0.932 . S
H179 C152 0.929 . S
H180 C170 0.932 . S
H181 C171 0.930 . S
H182 C172 0.932 . S
H183 C173 0.929 . S
Tb184 C193 2.764 . S
Tb184 O194 2.325 . S
Tb184 O197 2.303 . S
Tb184 O201 2.322 . S
Tb184 O202 2.349 . S
Tb184 O205 2.415 . S
Tb184 O206 2.399 . S
Tb185 O195 2.322 . S
Tb185 O196 2.349 . S
Tb185 O198 2.415 . S
Tb185 O199 2.399 . S
Tb185 O200 2.325 . S
Tb185 O203 2.303 . S
Tb185 C214 2.764 . S
C186 O202 1.261 . S
C186 O203 1.257 . S
C187 C190 1.358 . S
C187 C191 1.332 . S
C187 C193 1.504 . S
C188 C189 1.373 . S
C188 C192 1.308 . S
C189 C188 1.373 . S
C189 C190 1.429 . S
C189 H216 0.932 . S
C190 C187 1.358 . S
C190 C189 1.429 . S
C190 H217 0.930 . S
C191 C187 1.332 . S
C191 C192 1.394 . S
C191 H218 0.932 . S
C192 C188 1.308 . S
C192 C191 1.394 . S
C192 H219 0.929 . S
C193 Tb184 2.764 . S
C193 C187 1.504 . S
C193 O205 1.239 . S
C193 O206 1.263 . S
O194 Tb184 2.325 . S
O194 C204 1.236 . S
O195 Tb185 2.322 . S
O195 C204 1.257 . S
O196 Tb185 2.349 . S
O196 C207 1.261 . S
O197 Tb184 2.303 . S
O197 C207 1.257 . S
O198 Tb185 2.415 . S
O198 C214 1.239 . S
O199 Tb185 2.399 . S
O199 C214 1.263 . S
O200 Tb185 2.325 . S
O200 C215 1.236 . S
O201 Tb184 2.322 . S
O201 C215 1.257 . S
O202 Tb184 2.349 . S
O202 C186 1.261 . S
O203 Tb185 2.303 . S
O203 C186 1.257 . S
C204 O194 1.236 . S
C204 O195 1.257 . S
O205 Tb184 2.415 . S
O205 C193 1.239 . S
O206 Tb184 2.399 . S
O206 C193 1.263 . S
C207 O196 1.261 . S
C207 O197 1.257 . S
C208 C211 1.358 . S
C208 C212 1.332 . S
C208 C214 1.504 . S
C209 C210 1.373 . S
C209 C213 1.308 . S
C210 C209 1.373 . S
C210 C211 1.429 . S
C210 H220 0.932 . S
C211 C208 1.358 . S
C211 C210 1.429 . S
C211 H221 0.930 . S
C212 C208 1.332 . S
C212 C213 1.394 . S
C212 H222 0.932 . S
C213 C209 1.308 . S
C213 C212 1.394 . S
C213 H223 0.929 . S
C214 Tb185 2.764 . S
C214 O198 1.239 . S
C214 O199 1.263 . S
C214 C208 1.504 . S
C215 O200 1.236 . S
C215 O201 1.257 . S
H216 C189 0.932 . S
H217 C190 0.930 . S
H218 C191 0.932 . S
H219 C192 0.929 . S
H220 C210 0.932 . S
H221 C211 0.930 . S
H222 C212 0.932 . S
H223 C213 0.929 . S
Tb224 C233 2.764 1_454 S
Tb224 O234 2.325 1_455 S
Tb224 O237 2.303 . S
Tb224 O241 2.322 . S
Tb224 O242 2.349 1_554 S
Tb224 O245 2.415 1_455 S
Tb224 O246 2.399 1_454 S
Tb225 O235 2.322 1_455 S
Tb225 O236 2.354 . S
Tb225 O238 2.415 . S
Tb225 O239 2.399 . S
Tb225 O240 2.325 . S
Tb225 O243 2.303 . S
Tb225 C254 2.764 . S
C226 O242 1.261 . S
C226 O243 1.257 1_556 S
C227 C230 1.358 . S
C227 C231 1.332 . S
C227 C233 1.504 . S
C228 C229 1.373 . S
C228 C232 1.308 . S
C229 C228 1.373 . S
C229 C230 1.429 . S
C229 H256 0.932 . S
C230 C227 1.358 . S
C230 C229 1.429 . S
C230 H257 0.930 . S
C231 C227 1.332 . S
C231 C232 1.394 . S
C231 H258 0.932 1_556 S
C232 C228 1.308 . S
C232 C231 1.394 . S
C232 H259 0.929 . S
C233 Tb224 2.764 1_656 S
C233 C227 1.504 . S
C233 O245 1.239 1_556 S
C233 O246 1.263 . S
O234 Tb224 2.325 1_655 S
O234 C244 1.236 . S
O235 Tb225 2.322 1_655 S
O235 C244 1.257 . S
O236 Tb225 2.354 . S
O236 C247 1.258 1_455 S
O237 Tb224 2.303 . S
O237 C247 1.257 1_455 S
O238 Tb225 2.415 . S
O238 C254 1.239 . S
O239 Tb225 2.399 . S
O239 C254 1.263 . S
O240 Tb225 2.325 . S
O240 C255 1.236 . S
O241 Tb224 2.322 . S
O241 C255 1.257 . S
O242 Tb224 2.349 1_556 S
O242 C226 1.261 . S
O243 Tb225 2.303 . S
O243 C226 1.257 1_554 S
C244 O234 1.236 . S
C244 O235 1.257 . S
O245 Tb224 2.415 1_655 S
O245 C233 1.239 1_554 S
O246 Tb224 2.399 1_656 S
O246 C233 1.263 . S
C247 O236 1.258 1_655 S
C247 O237 1.257 1_655 S
C248 C251 1.358 . S
C248 C252 1.332 . S
C248 C254 1.504 . S
C249 C250 1.373 . S
C249 C253 1.308 . S
C250 C249 1.373 . S
C250 C251 1.429 . S
C250 H260 0.932 . S
C251 C248 1.358 . S
C251 C250 1.429 . S
C251 H261 0.930 . S
C252 C248 1.332 . S
C252 C253 1.394 . S
C252 H262 0.932 . S
C253 C249 1.308 . S
C253 C252 1.394 . S
C253 H263 0.929 . S
C254 Tb225 2.764 . S
C254 O238 1.239 . S
C254 O239 1.263 . S
C254 C248 1.504 . S
C255 O240 1.236 . S
C255 O241 1.257 . S
H256 C229 0.932 . S
H257 C230 0.930 . S
H258 C231 0.932 1_554 S
H259 C232 0.929 . S
H260 C250 0.932 . S
H261 C251 0.930 . S
H262 C252 0.932 . S
H263 C253 0.929 . S
C264 C265 1.391 . S
C264 C266 1.394 . S
C264 H280 0.931 . S
C265 C264 1.391 . S
C265 C269 1.376 . S
C266 C264 1.394 . S
C266 C267 1.369 . S
C266 C270 1.531 . S
C267 C266 1.369 . S
C267 C268 1.410 . S
C267 C275 1.503 . S
C268 C267 1.410 . S
C268 C269 1.392 . S
C268 C271 1.511 . S
C269 C265 1.376 . S
C269 C268 1.392 . S
C269 H281 0.929 . S
C270 C266 1.531 . S
C270 H282 0.960 . S
C270 H283 0.962 . S
C270 H284 0.960 . S
C271 C268 1.511 . S
C271 H285 0.961 . S
C271 H286 0.961 . S
C271 H287 0.961 . S
C272 C273 1.370 . S
C272 C274 1.363 . S
C272 H288 0.931 . S
C273 C272 1.370 . S
C273 C277 1.408 . S
C274 C272 1.363 . S
C274 C275 1.370 . S
C274 C278 1.524 . S
C275 C267 1.503 . S
C275 C274 1.370 . S
C275 C276 1.403 . S
C276 C275 1.403 . S
C276 C277 1.404 . S
C276 C279 1.539 . S
C277 C273 1.408 . S
C277 C276 1.404 . S
C277 H289 0.930 . S
C278 C274 1.524 . S
C278 H290 0.956 . S
C278 H291 0.961 . S
C278 H292 0.961 . S
C279 C276 1.539 . S
C279 H293 0.958 . S
C279 H294 0.961 . S
C279 H295 0.960 . S
H280 C264 0.931 . S
H281 C269 0.929 . S
H282 C270 0.960 . S
H283 C270 0.962 . S
H284 C270 0.960 . S
H285 C271 0.961 . S
H286 C271 0.961 . S
H287 C271 0.961 . S
H288 C272 0.931 . S
H289 C277 0.930 . S
H290 C278 0.956 . S
H291 C278 0.961 . S
H292 C278 0.961 . S
H293 C279 0.958 . S
H294 C279 0.961 . S
H295 C279 0.960 . S
C296 C297 1.391 . S
C296 C298 1.394 . S
C296 H312 0.931 . S
C297 C296 1.391 . S
C297 C301 1.376 . S
C298 C296 1.394 . S
C298 C299 1.369 . S
C298 C302 1.531 . S
C299 C298 1.369 . S
C299 C300 1.410 . S
C299 C307 1.503 . S
C300 C299 1.410 . S
C300 C301 1.392 . S
C300 C303 1.511 . S
C301 C297 1.376 . S
C301 C300 1.392 . S
C301 H313 0.929 . S
C302 C298 1.531 . S
C302 H314 0.960 . S
C302 H315 0.962 . S
C302 H316 0.960 . S
C303 C300 1.511 . S
C303 H317 0.961 . S
C303 H318 0.961 . S
C303 H319 0.961 . S
C304 C305 1.370 . S
C304 C306 1.363 . S
C304 H320 0.931 . S
C305 C304 1.370 . S
C305 C309 1.408 . S
C306 C304 1.363 . S
C306 C307 1.370 . S
C306 C310 1.524 . S
C307 C299 1.503 . S
C307 C306 1.370 . S
C307 C308 1.403 . S
C308 C307 1.403 . S
C308 C309 1.404 . S
C308 C311 1.539 . S
C309 C305 1.408 . S
C309 C308 1.404 . S
C309 H321 0.930 . S
C310 C306 1.524 . S
C310 H322 0.956 . S
C310 H323 0.961 . S
C310 H324 0.961 . S
C311 C308 1.539 . S
C311 H325 0.958 . S
C311 H326 0.961 . S
C311 H327 0.960 . S
H312 C296 0.931 . S
H313 C301 0.929 . S
H314 C302 0.960 . S
H315 C302 0.962 . S
H316 C302 0.960 . S
H317 C303 0.961 . S
H318 C303 0.961 . S
H319 C303 0.961 . S
H320 C304 0.931 . S
H321 C309 0.930 . S
H322 C310 0.956 . S
H323 C310 0.961 . S
H324 C310 0.961 . S
H325 C311 0.958 . S
H326 C311 0.961 . S
H327 C311 0.960 . S
C328 C329 1.391 . S
C328 C330 1.394 . S
C328 H344 0.931 . S
C329 C328 1.391 . S
C329 C333 1.376 . S
C330 C328 1.394 . S
C330 C331 1.369 . S
C330 C334 1.531 . S
C331 C330 1.369 . S
C331 C332 1.410 . S
C331 C339 1.503 . S
C332 C331 1.410 . S
C332 C333 1.392 . S
C332 C335 1.511 . S
C333 C329 1.376 . S
C333 C332 1.392 . S
C333 H345 0.929 . S
C334 C330 1.531 . S
C334 H346 0.960 . S
C334 H347 0.962 . S
C334 H348 0.960 . S
C335 C332 1.511 . S
C335 H349 0.961 . S
C335 H350 0.961 . S
C335 H351 0.961 . S
C336 C337 1.370 . S
C336 C338 1.363 . S
C336 H352 0.931 . S
C337 C336 1.370 . S
C337 C341 1.408 . S
C338 C336 1.363 . S
C338 C339 1.370 . S
C338 C342 1.524 . S
C339 C331 1.503 . S
C339 C338 1.370 . S
C339 C340 1.403 . S
C340 C339 1.403 . S
C340 C341 1.404 . S
C340 C343 1.539 . S
C341 C337 1.408 . S
C341 C340 1.404 . S
C341 H353 0.930 . S
C342 C338 1.524 . S
C342 H354 0.956 . S
C342 H355 0.961 . S
C342 H356 0.961 . S
C343 C340 1.539 . S
C343 H357 0.958 . S
C343 H358 0.961 . S
C343 H359 0.960 . S
H344 C328 0.931 . S
H345 C333 0.929 . S
H346 C334 0.960 . S
H347 C334 0.962 . S
H348 C334 0.960 . S
H349 C335 0.961 . S
H350 C335 0.961 . S
H351 C335 0.961 . S
H352 C336 0.931 . S
H353 C341 0.930 . S
H354 C342 0.956 . S
H355 C342 0.961 . S
H356 C342 0.961 . S
H357 C343 0.958 . S
H358 C343 0.961 . S
H359 C343 0.960 . S
C360 C361 1.391 . S
C360 C362 1.394 . S
C360 H376 0.931 . S
C361 C360 1.391 . S
C361 C365 1.376 . S
C362 C360 1.394 . S
C362 C363 1.369 . S
C362 C366 1.531 1_655 S
C363 C362 1.369 . S
C363 C364 1.410 . S
C363 C371 1.503 . S
C364 C363 1.410 . S
C364 C365 1.392 . S
C364 C367 1.511 . S
C365 C361 1.376 . S
C365 C364 1.392 . S
C365 H377 0.929 . S
C366 C362 1.531 1_455 S
C366 H378 0.960 . S
C366 H379 0.962 . S
C366 H380 0.960 . S
C367 C364 1.511 . S
C367 H381 0.961 . S
C367 H382 0.961 . S
C367 H383 0.961 . S
C368 C369 1.370 . S
C368 C370 1.363 . S
C368 H384 0.931 . S
C369 C368 1.370 . S
C369 C373 1.408 . S
C370 C368 1.363 . S
C370 C371 1.370 . S
C370 C374 1.524 . S
C371 C363 1.503 . S
C371 C370 1.370 . S
C371 C372 1.403 . S
C372 C371 1.403 . S
C372 C373 1.404 . S
C372 C375 1.539 . S
C373 C369 1.408 . S
C373 C372 1.404 . S
C373 H385 0.930 . S
C374 C370 1.524 . S
C374 H386 0.956 . S
C374 H387 0.961 . S
C374 H388 0.961 . S
C375 C372 1.539 . S
C375 H389 0.958 . S
C375 H390 0.961 . S
C375 H391 0.960 . S
H376 C360 0.931 . S
H377 C365 0.929 . S
H378 C366 0.960 . S
H379 C366 0.962 . S
H380 C366 0.960 . S
H381 C367 0.961 . S
H382 C367 0.961 . S
H383 C367 0.961 . S
H384 C368 0.931 . S
H385 C373 0.930 . S
H386 C374 0.956 . S
H387 C374 0.961 . S
H388 C374 0.961 . S
H389 C375 0.958 . S
H390 C375 0.961 . S
H391 C375 0.960 . S
C392 C393 1.391 . S
C392 C394 1.394 . S
C392 H408 0.931 . S
C393 C392 1.391 . S
C393 C397 1.376 . S
C394 C392 1.394 . S
C394 C395 1.369 . S
C394 C398 1.531 . S
C395 C394 1.369 . S
C395 C396 1.410 . S
C395 C403 1.503 . S
C396 C395 1.410 . S
C396 C397 1.392 . S
C396 C399 1.511 . S
C397 C393 1.376 . S
C397 C396 1.392 . S
C397 H409 0.929 . S
C398 C394 1.531 . S
C398 H410 0.960 . S
C398 H411 0.962 . S
C398 H412 0.960 . S
C399 C396 1.511 . S
C399 H413 0.961 . S
C399 H414 0.961 . S
C399 H415 0.961 . S
C400 C401 1.370 . S
C400 C402 1.363 . S
C400 H416 0.931 . S
C401 C400 1.370 . S
C401 C405 1.408 . S
C402 C400 1.363 . S
C402 C403 1.370 . S
C402 C406 1.524 . S
C403 C395 1.503 . S
C403 C402 1.370 . S
C403 C404 1.403 . S
C404 C403 1.403 . S
C404 C405 1.404 . S
C404 C407 1.539 . S
C405 C401 1.408 . S
C405 C404 1.404 . S
C405 H417 0.930 . S
C406 C402 1.524 . S
C406 H418 0.956 . S
C406 H419 0.961 . S
C406 H420 0.961 . S
C407 C404 1.539 . S
C407 H421 0.958 . S
C407 H422 0.961 . S
C407 H423 0.960 . S
H408 C392 0.931 . S
H409 C397 0.929 . S
H410 C398 0.960 . S
H411 C398 0.962 . S
H412 C398 0.960 . S
H413 C399 0.961 . S
H414 C399 0.961 . S
H415 C399 0.961 . S
H416 C400 0.931 . S
H417 C405 0.930 . S
H418 C406 0.956 . S
H419 C406 0.961 . S
H420 C406 0.961 . S
H421 C407 0.958 . S
H422 C407 0.961 . S
H423 C407 0.960 . S
C424 C425 1.391 . S
C424 C426 1.394 . S
C424 H440 0.931 . S
C425 C424 1.391 . S
C425 C429 1.376 . S
C426 C424 1.394 . S
C426 C427 1.369 . S
C426 C430 1.531 . S
C427 C426 1.369 . S
C427 C428 1.410 . S
C427 C435 1.503 . S
C428 C427 1.410 . S
C428 C429 1.392 . S
C428 C431 1.511 . S
C429 C425 1.376 . S
C429 C428 1.392 . S
C429 H441 0.929 . S
C430 C426 1.531 . S
C430 H442 0.960 . S
C430 H443 0.962 . S
C430 H444 0.960 . S
C431 C428 1.511 . S
C431 H445 0.961 . S
C431 H446 0.961 . S
C431 H447 0.961 . S
C432 C433 1.370 . S
C432 C434 1.363 . S
C432 H448 0.931 . S
C433 C432 1.370 . S
C433 C437 1.408 . S
C434 C432 1.363 . S
C434 C435 1.370 . S
C434 C438 1.524 . S
C435 C427 1.503 . S
C435 C434 1.370 . S
C435 C436 1.403 . S
C436 C435 1.403 . S
C436 C437 1.404 . S
C436 C439 1.539 . S
C437 C433 1.408 . S
C437 C436 1.404 . S
C437 H449 0.930 . S
C438 C434 1.524 . S
C438 H450 0.956 . S
C438 H451 0.961 . S
C438 H452 0.961 . S
C439 C436 1.539 . S
C439 H453 0.958 . S
C439 H454 0.961 . S
C439 H455 0.960 . S
H440 C424 0.931 . S
H441 C429 0.929 . S
H442 C430 0.960 . S
H443 C430 0.962 . S
H444 C430 0.960 . S
H445 C431 0.961 . S
H446 C431 0.961 . S
H447 C431 0.961 . S
H448 C432 0.931 . S
H449 C437 0.930 . S
H450 C438 0.956 . S
H451 C438 0.961 . S
H452 C438 0.961 . S
H453 C439 0.958 . S
H454 C439 0.961 . S
H455 C439 0.960 . S
C456 C457 1.391 . S
C456 C458 1.394 . S
C456 H472 0.931 . S
C457 C456 1.391 . S
C457 C461 1.376 . S
C458 C456 1.394 . S
C458 C459 1.369 . S
C458 C462 1.531 . S
C459 C458 1.369 . S
C459 C460 1.410 . S
C459 C467 1.503 . S
C460 C459 1.410 . S
C460 C461 1.392 . S
C460 C463 1.511 . S
C461 C457 1.376 . S
C461 C460 1.392 . S
C461 H473 0.929 . S
C462 C458 1.531 . S
C462 H474 0.954 1_556 S
C462 H475 0.962 1_556 S
C462 H476 0.960 . S
C463 C460 1.511 . S
C463 H477 0.961 . S
C463 H478 0.961 . S
C463 H479 0.961 . S
C464 C465 1.370 . S
C464 C466 1.363 1_554 S
C464 H480 0.931 . S
C465 C464 1.370 . S
C465 C469 1.408 1_554 S
C466 C464 1.363 1_556 S
C466 C467 1.370 . S
C466 C470 1.524 . S
C467 C459 1.503 . S
C467 C466 1.370 . S
C467 C468 1.403 . S
C468 C467 1.403 . S
C468 C469 1.404 . S
C468 C471 1.539 . S
C469 C465 1.408 1_556 S
C469 C468 1.404 . S
C469 H481 0.930 . S
C470 C466 1.524 . S
C470 H482 0.956 . S
C470 H483 0.961 . S
C470 H484 0.961 . S
C471 C468 1.539 . S
C471 H485 0.958 . S
C471 H486 0.961 . S
C471 H487 0.960 . S
H472 C456 0.931 . S
H473 C461 0.929 . S
H474 C462 0.954 1_554 S
H475 C462 0.962 1_554 S
H476 C462 0.960 . S
H477 C463 0.961 . S
H478 C463 0.961 . S
H479 C463 0.961 . S
H480 C464 0.931 . S
H481 C469 0.930 . S
H482 C470 0.956 . S
H483 C470 0.961 . S
H484 C470 0.961 . S
H485 C471 0.958 . S
H486 C471 0.961 . S
H487 C471 0.960 . S
C488 C489 1.391 . S
C488 C490 1.394 . S
C488 H504 0.931 . S
C489 C488 1.391 . S
C489 C493 1.376 . S
C490 C488 1.394 . S
C490 C491 1.369 . S
C490 C494 1.531 . S
C491 C490 1.369 . S
C491 C492 1.410 . S
C491 C499 1.503 . S
C492 C491 1.410 . S
C492 C493 1.392 . S
C492 C495 1.511 . S
C493 C489 1.376 . S
C493 C492 1.392 . S
C493 H505 0.929 . S
C494 C490 1.531 . S
C494 H506 0.960 . S
C494 H507 0.962 . S
C494 H508 0.960 . S
C495 C492 1.511 . S
C495 H509 0.961 . S
C495 H510 0.961 . S
C495 H511 0.961 . S
C496 C497 1.370 . S
C496 C498 1.363 . S
C496 H512 0.931 . S
C497 C496 1.370 . S
C497 C501 1.408 . S
C498 C496 1.363 . S
C498 C499 1.370 . S
C498 C502 1.524 . S
C499 C491 1.503 . S
C499 C498 1.370 . S
C499 C500 1.403 . S
C500 C499 1.403 . S
C500 C501 1.404 . S
C500 C503 1.539 . S
C501 C497 1.408 . S
C501 C500 1.404 . S
C501 H513 0.930 . S
C502 C498 1.524 . S
C502 H514 0.956 . S
C502 H515 0.961 . S
C502 H516 0.961 . S
C503 C500 1.539 . S
C503 H517 0.958 . S
C503 H518 0.961 . S
C503 H519 0.960 . S
H504 C488 0.931 . S
H505 C493 0.929 . S
H506 C494 0.960 . S
H507 C494 0.962 . S
H508 C494 0.960 . S
H509 C495 0.961 . S
H510 C495 0.961 . S
H511 C495 0.961 . S
H512 C496 0.931 . S
H513 C501 0.930 . S
H514 C502 0.956 . S
H515 C502 0.961 . S
H516 C502 0.961 . S
H517 C503 0.958 . S
H518 C503 0.961 . S
H519 C503 0.960 . S
C520 C521 1.391 . S
C520 C522 1.394 . S
C520 H536 0.931 . S
C521 C520 1.391 . S
C521 C525 1.376 . S
C522 C520 1.394 . S
C522 C523 1.369 . S
C522 C526 1.531 . S
C523 C522 1.369 . S
C523 C524 1.410 . S
C523 C531 1.503 . S
C524 C523 1.410 . S
C524 C525 1.392 . S
C524 C527 1.511 . S
C525 C521 1.376 . S
C525 C524 1.392 . S
C525 H537 0.929 . S
C526 C522 1.531 . S
C526 H538 0.960 . S
C526 H539 0.962 . S
C526 H540 0.960 . S
C527 C524 1.511 . S
C527 H541 0.961 . S
C527 H542 0.961 . S
C527 H543 0.961 . S
C528 C529 1.370 . S
C528 C530 1.363 . S
C528 H544 0.931 . S
C529 C528 1.370 . S
C529 C533 1.408 . S
C530 C528 1.363 . S
C530 C531 1.370 . S
C530 C534 1.524 . S
C531 C523 1.503 . S
C531 C530 1.370 . S
C531 C532 1.403 . S
C532 C531 1.403 . S
C532 C533 1.404 . S
C532 C535 1.539 . S
C533 C529 1.408 . S
C533 C532 1.404 . S
C533 H545 0.930 . S
C534 C530 1.524 . S
C534 H546 0.956 . S
C534 H547 0.961 . S
C534 H548 0.961 . S
C535 C532 1.539 . S
C535 H549 0.958 . S
C535 H550 0.961 . S
C535 H551 0.960 . S
H536 C520 0.931 . S
H537 C525 0.929 . S
H538 C526 0.960 . S
H539 C526 0.962 . S
H540 C526 0.960 . S
H541 C527 0.961 . S
H542 C527 0.961 . S
H543 C527 0.961 . S
H544 C528 0.931 . S
H545 C533 0.930 . S
H546 C534 0.956 . S
H547 C534 0.961 . S
H548 C534 0.961 . S
H549 C535 0.958 . S
H550 C535 0.961 . S
H551 C535 0.960 . S
C552 C553 1.391 . S
C552 C554 1.394 . S
C552 H568 0.931 . S
C553 C552 1.391 . S
C553 C557 1.376 . S
C554 C552 1.394 . S
C554 C555 1.369 . S
C554 C558 1.531 . S
C555 C554 1.369 . S
C555 C556 1.410 . S
C555 C563 1.503 . S
C556 C555 1.410 . S
C556 C557 1.392 . S
C556 C559 1.511 . S
C557 C553 1.376 . S
C557 C556 1.392 . S
C557 H569 0.929 . S
C558 C554 1.531 . S
C558 H570 0.960 . S
C558 H571 0.962 . S
C558 H572 0.960 . S
C559 C556 1.511 . S
C559 H573 0.961 . S
C559 H574 0.961 . S
C559 H575 0.961 . S
C560 C561 1.370 . S
C560 C562 1.363 . S
C560 H576 0.931 1_556 S
C561 C560 1.370 . S
C561 C565 1.408 . S
C562 C560 1.363 . S
C562 C563 1.370 . S
C562 C566 1.524 . S
C563 C555 1.503 . S
C563 C562 1.370 . S
C563 C564 1.403 . S
C564 C563 1.403 . S
C564 C565 1.404 . S
C564 C567 1.539 . S
C565 C561 1.408 . S
C565 C564 1.404 . S
C565 H577 0.930 . S
C566 C562 1.524 . S
C566 H578 0.956 . S
C566 H579 0.961 . S
C566 H580 0.961 1_556 S
C567 C564 1.539 . S
C567 H581 0.958 . S
C567 H582 0.961 . S
C567 H583 0.960 . S
H568 C552 0.931 . S
H569 C557 0.929 . S
H570 C558 0.960 . S
H571 C558 0.962 . S
H572 C558 0.960 . S
H573 C559 0.961 . S
H574 C559 0.961 . S
H575 C559 0.961 . S
H576 C560 0.931 1_554 S
H577 C565 0.930 . S
H578 C566 0.956 . S
H579 C566 0.961 . S
H580 C566 0.961 1_554 S
H581 C567 0.958 . S
H582 C567 0.961 . S
H583 C567 0.960 . S
C584 C585 1.391 . S
C584 C586 1.394 . S
C584 H600 0.931 . S
C585 C584 1.391 . S
C585 C589 1.376 . S
C586 C584 1.394 . S
C586 C587 1.369 . S
C586 C590 1.531 . S
C587 C586 1.369 . S
C587 C588 1.410 . S
C587 C595 1.503 . S
C588 C587 1.410 . S
C588 C589 1.392 . S
C588 C591 1.511 . S
C589 C585 1.376 . S
C589 C588 1.392 . S
C589 H601 0.929 . S
C590 C586 1.531 . S
C590 H602 0.960 . S
C590 H603 0.973 . S
C590 H604 0.960 . S
C591 C588 1.511 . S
C591 H605 0.961 . S
C591 H606 0.961 . S
C591 H607 0.961 . S
C592 C593 1.370 . S
C592 C594 1.363 . S
C592 H608 0.931 1_655 S
C593 C592 1.370 . S
C593 C597 1.408 . S
C594 C592 1.363 . S
C594 C595 1.370 . S
C594 C598 1.524 . S
C595 C587 1.503 . S
C595 C594 1.370 . S
C595 C596 1.403 . S
C596 C595 1.403 . S
C596 C597 1.404 . S
C596 C599 1.539 . S
C597 C593 1.408 . S
C597 C596 1.404 . S
C597 H609 0.930 . S
C598 C594 1.524 . S
C598 H610 0.956 1_655 S
C598 H611 0.961 . S
C598 H612 0.961 1_655 S
C599 C596 1.539 . S
C599 H613 0.958 . S
C599 H614 0.961 . S
C599 H615 0.960 . S
H600 C584 0.931 . S
H601 C589 0.929 . S
H602 C590 0.960 . S
H603 C590 0.973 . S
H604 C590 0.960 . S
H605 C591 0.961 . S
H606 C591 0.961 . S
H607 C591 0.961 . S
H608 C592 0.931 1_455 S
H609 C597 0.930 . S
H610 C598 0.956 1_455 S
H611 C598 0.961 . S
H612 C598 0.961 1_455 S
H613 C599 0.958 . S
H614 C599 0.961 . S
H615 C599 0.960 . S
C616 C617 1.391 . S
C616 C618 1.394 . S
C616 H632 0.931 . S
C617 C616 1.391 . S
C617 C621 1.376 . S
C618 C616 1.394 . S
C618 C619 1.369 . S
C618 C622 1.531 . S
C619 C618 1.369 . S
C619 C620 1.410 . S
C619 C627 1.503 . S
C620 C619 1.410 . S
C620 C621 1.392 . S
C620 C623 1.511 . S
C621 C617 1.376 . S
C621 C620 1.392 . S
C621 H633 0.929 . S
C622 C618 1.531 . S
C622 H634 0.960 . S
C622 H635 0.962 . S
C622 H636 0.960 . S
C623 C620 1.511 . S
C623 H637 0.961 . S
C623 H638 0.961 . S
C623 H639 0.961 . S
C624 C625 1.370 . S
C624 C626 1.363 . S
C624 H640 0.931 . S
C625 C624 1.370 . S
C625 C629 1.408 . S
C626 C624 1.363 . S
C626 C627 1.370 . S
C626 C630 1.524 . S
C627 C619 1.503 . S
C627 C626 1.370 . S
C627 C628 1.403 . S
C628 C627 1.403 . S
C628 C629 1.404 . S
C628 C631 1.539 . S
C629 C625 1.408 . S
C629 C628 1.404 . S
C629 H641 0.930 . S
C630 C626 1.524 . S
C630 H642 0.956 . S
C630 H643 0.961 . S
C630 H644 0.961 . S
C631 C628 1.539 . S
C631 H645 0.958 . S
C631 H646 0.961 . S
C631 H647 0.960 . S
H632 C616 0.931 . S
H633 C621 0.929 . S
H634 C622 0.960 . S
H635 C622 0.962 . S
H636 C622 0.960 . S
H637 C623 0.961 . S
H638 C623 0.961 . S
H639 C623 0.961 . S
H640 C624 0.931 . S
H641 C629 0.930 . S
H642 C630 0.956 . S
H643 C630 0.961 . S
H644 C630 0.961 . S
H645 C631 0.958 . S
H646 C631 0.961 . S
H647 C631 0.960 . S
C648 C649 1.391 . S
C648 C650 1.394 . S
C648 H664 0.931 . S
C649 C648 1.391 . S
C649 C653 1.376 . S
C650 C648 1.394 . S
C650 C651 1.369 . S
C650 C654 1.531 . S
C651 C650 1.369 . S
C651 C652 1.410 . S
C651 C659 1.503 . S
C652 C651 1.410 . S
C652 C653 1.392 . S
C652 C655 1.511 . S
C653 C649 1.376 . S
C653 C652 1.392 . S
C653 H665 0.929 . S
C654 C650 1.531 . S
C654 H666 0.960 . S
C654 H667 0.962 . S
C654 H668 0.960 . S
C655 C652 1.511 . S
C655 H669 0.961 . S
C655 H670 0.961 . S
C655 H671 0.961 . S
C656 C657 1.370 . S
C656 C658 1.363 . S
C656 H672 0.931 . S
C657 C656 1.370 . S
C657 C661 1.408 . S
C658 C656 1.363 . S
C658 C659 1.370 . S
C658 C662 1.524 . S
C659 C651 1.503 . S
C659 C658 1.370 . S
C659 C660 1.403 . S
C660 C659 1.403 . S
C660 C661 1.404 . S
C660 C663 1.539 . S
C661 C657 1.408 . S
C661 C660 1.404 . S
C661 H673 0.930 . S
C662 C658 1.524 . S
C662 H674 0.956 . S
C662 H675 0.961 . S
C662 H676 0.961 . S
C663 C660 1.539 . S
C663 H677 0.958 . S
C663 H678 0.961 . S
C663 H679 0.960 . S
H664 C648 0.931 . S
H665 C653 0.929 . S
H666 C654 0.960 . S
H667 C654 0.962 . S
H668 C654 0.960 . S
H669 C655 0.961 . S
H670 C655 0.961 . S
H671 C655 0.961 . S
H672 C656 0.931 . S
H673 C661 0.930 . S
H674 C662 0.956 . S
H675 C662 0.961 . S
H676 C662 0.961 . S
H677 C663 0.958 . S
H678 C663 0.961 . S
H679 C663 0.960 . S
C680 C681 1.391 . S
C680 C682 1.394 . S
C680 H696 0.931 . S
C681 C680 1.391 . S
C681 C685 1.376 . S
C682 C680 1.394 . S
C682 C683 1.369 . S
C682 C686 1.531 . S
C683 C682 1.369 . S
C683 C684 1.410 . S
C683 C691 1.503 . S
C684 C683 1.410 . S
C684 C685 1.392 . S
C684 C687 1.511 . S
C685 C681 1.376 . S
C685 C684 1.392 . S
C685 H697 0.929 . S
C686 C682 1.531 . S
C686 H698 0.960 . S
C686 H699 0.962 . S
C686 H700 0.960 . S
C687 C684 1.511 . S
C687 H701 0.961 . S
C687 H702 0.961 . S
C687 H703 0.961 . S
C688 C689 1.370 . S
C688 C690 1.363 . S
C688 H704 0.931 . S
C689 C688 1.370 . S
C689 C693 1.408 . S
C690 C688 1.363 . S
C690 C691 1.370 . S
C690 C694 1.524 . S
C691 C683 1.503 . S
C691 C690 1.370 . S
C691 C692 1.403 . S
C692 C691 1.403 . S
C692 C693 1.404 . S
C692 C695 1.539 . S
C693 C689 1.408 . S
C693 C692 1.404 . S
C693 H705 0.930 . S
C694 C690 1.524 . S
C694 H706 0.956 . S
C694 H707 0.961 . S
C694 H708 0.961 . S
C695 C692 1.539 . S
C695 H709 0.958 . S
C695 H710 0.961 . S
C695 H711 0.960 . S
H696 C680 0.931 . S
H697 C685 0.929 . S
H698 C686 0.960 . S
H699 C686 0.962 . S
H700 C686 0.960 . S
H701 C687 0.961 . S
H702 C687 0.961 . S
H703 C687 0.961 . S
H704 C688 0.931 . S
H705 C693 0.930 . S
H706 C694 0.956 . S
H707 C694 0.961 . S
H708 C694 0.961 . S
H709 C695 0.958 . S
H710 C695 0.961 . S
H711 C695 0.960 . S
C712 C713 1.391 . S
C712 C714 1.394 . S
C712 H728 0.931 . S
C713 C712 1.391 . S
C713 C717 1.376 . S
C714 C712 1.394 . S
C714 C715 1.369 . S
C714 C718 1.531 . S
C715 C714 1.369 . S
C715 C716 1.410 . S
C715 C723 1.503 . S
C716 C715 1.410 . S
C716 C717 1.392 . S
C716 C719 1.511 . S
C717 C713 1.376 . S
C717 C716 1.392 . S
C717 H729 0.929 . S
C718 C714 1.531 . S
C718 H730 0.960 . S
C718 H731 0.962 . S
C718 H732 0.960 . S
C719 C716 1.511 . S
C719 H733 0.961 . S
C719 H734 0.961 . S
C719 H735 0.961 . S
C720 C721 1.370 . S
C720 C722 1.363 . S
C720 H736 0.931 . S
C721 C720 1.370 . S
C721 C725 1.408 . S
C722 C720 1.363 . S
C722 C723 1.370 . S
C722 C726 1.524 . S
C723 C715 1.503 . S
C723 C722 1.370 . S
C723 C724 1.403 . S
C724 C723 1.403 . S
C724 C725 1.404 . S
C724 C727 1.539 . S
C725 C721 1.408 . S
C725 C724 1.404 . S
C725 H737 0.930 . S
C726 C722 1.524 . S
C726 H738 0.956 . S
C726 H739 0.961 . S
C726 H740 0.961 . S
C727 C724 1.539 . S
C727 H741 0.958 . S
C727 H742 0.961 . S
C727 H743 0.960 . S
H728 C712 0.931 . S
H729 C717 0.929 . S
H730 C718 0.960 . S
H731 C718 0.962 . S
H732 C718 0.960 . S
H733 C719 0.961 . S
H734 C719 0.961 . S
H735 C719 0.961 . S
H736 C720 0.931 . S
H737 C725 0.930 . S
H738 C726 0.956 . S
H739 C726 0.961 . S
H740 C726 0.961 . S
H741 C727 0.958 . S
H742 C727 0.961 . S
H743 C727 0.960 . S
C744 C745 1.391 . S
C744 C746 1.394 . S
C744 H760 0.931 . S
C745 C744 1.391 . S
C745 C749 1.376 . S
C746 C744 1.394 . S
C746 C747 1.369 . S
C746 C750 1.531 . S
C747 C746 1.369 . S
C747 C748 1.410 . S
C747 C755 1.503 . S
C748 C747 1.410 . S
C748 C749 1.392 . S
C748 C751 1.511 . S
C749 C745 1.376 . S
C749 C748 1.392 . S
C749 H761 0.929 . S
C750 C746 1.531 . S
C750 H762 0.960 . S
C750 H763 0.962 . S
C750 H764 0.960 . S
C751 C748 1.511 . S
C751 H765 0.961 . S
C751 H766 0.961 . S
C751 H767 0.961 . S
C752 C753 1.370 . S
C752 C754 1.363 . S
C752 H768 0.931 . S
C753 C752 1.370 . S
C753 C757 1.408 . S
C754 C752 1.363 . S
C754 C755 1.370 . S
C754 C758 1.524 . S
C755 C747 1.503 . S
C755 C754 1.370 . S
C755 C756 1.403 . S
C756 C755 1.403 . S
C756 C757 1.404 . S
C756 C759 1.539 . S
C757 C753 1.408 . S
C757 C756 1.404 . S
C757 H769 0.930 . S
C758 C754 1.524 . S
C758 H770 0.956 . S
C758 H771 0.961 . S
C758 H772 0.961 . S
C759 C756 1.539 . S
C759 H773 0.958 . S
C759 H774 0.961 . S
C759 H775 0.960 . S
H760 C744 0.931 . S
H761 C749 0.929 . S
H762 C750 0.960 . S
H763 C750 0.962 . S
H764 C750 0.960 . S
H765 C751 0.961 . S
H766 C751 0.961 . S
H767 C751 0.961 . S
H768 C752 0.931 . S
H769 C757 0.930 . S
H770 C758 0.956 . S
H771 C758 0.961 . S
H772 C758 0.961 . S
H773 C759 0.958 . S
H774 C759 0.961 . S
H775 C759 0.960 . S
C776 C777 1.391 . S
C776 C778 1.394 . S
C776 H792 0.931 . S
C777 C776 1.391 . S
C777 C781 1.376 . S
C778 C776 1.394 . S
C778 C779 1.369 . S
C778 C782 1.531 . S
C779 C778 1.369 . S
C779 C780 1.410 . S
C779 C787 1.503 . S
C780 C779 1.410 . S
C780 C781 1.392 . S
C780 C783 1.511 . S
C781 C777 1.376 . S
C781 C780 1.392 . S
C781 H793 0.929 . S
C782 C778 1.531 . S
C782 H794 0.960 . S
C782 H795 0.962 . S
C782 H796 0.960 . S
C783 C780 1.511 . S
C783 H797 0.961 . S
C783 H798 0.961 . S
C783 H799 0.961 . S
C784 C785 1.370 . S
C784 C786 1.363 . S
C784 H800 0.931 . S
C785 C784 1.370 . S
C785 C789 1.408 . S
C786 C784 1.363 . S
C786 C787 1.370 . S
C786 C790 1.524 . S
C787 C779 1.503 . S
C787 C786 1.370 . S
C787 C788 1.403 . S
C788 C787 1.403 . S
C788 C789 1.404 . S
C788 C791 1.539 . S
C789 C785 1.408 . S
C789 C788 1.404 . S
C789 H801 0.930 1_556 S
C790 C786 1.524 . S
C790 H802 0.956 . S
C790 H803 0.961 . S
C790 H804 0.961 . S
C791 C788 1.539 . S
C791 H805 0.958 1_556 S
C791 H806 0.961 1_556 S
C791 H807 0.960 . S
H792 C776 0.931 . S
H793 C781 0.929 . S
H794 C782 0.960 . S
H795 C782 0.962 . S
H796 C782 0.960 . S
H797 C783 0.961 . S
H798 C783 0.961 . S
H799 C783 0.961 . S
H800 C784 0.931 . S
H801 C789 0.930 1_554 S
H802 C790 0.956 . S
H803 C790 0.961 . S
H804 C790 0.961 . S
H805 C791 0.958 1_554 S
H806 C791 0.961 1_554 S
H807 C791 0.960 . S
C808 C809 1.391 . S
C808 C810 1.394 . S
C808 H824 0.931 . S
C809 C808 1.391 . S
C809 C813 1.376 . S
C810 C808 1.394 . S
C810 C811 1.369 . S
C810 C814 1.531 1_655 S
C811 C810 1.369 . S
C811 C812 1.410 . S
C811 C819 1.503 . S
C812 C811 1.410 . S
C812 C813 1.392 . S
C812 C815 1.511 . S
C813 C809 1.376 . S
C813 C812 1.392 . S
C813 H825 0.929 . S
C814 C810 1.531 1_455 S
C814 H826 0.960 1_455 S
C814 H827 0.962 . S
C814 H828 0.960 . S
C815 C812 1.511 . S
C815 H829 0.961 . S
C815 H830 0.961 . S
C815 H831 0.961 . S
C816 C817 1.370 . S
C816 C818 1.363 . S
C816 H832 0.931 1_655 S
C817 C816 1.370 . S
C817 C821 1.408 . S
C818 C816 1.363 . S
C818 C819 1.370 . S
C818 C822 1.524 . S
C819 C811 1.503 . S
C819 C818 1.370 . S
C819 C820 1.403 . S
C820 C819 1.403 . S
C820 C821 1.404 . S
C820 C823 1.539 . S
C821 C817 1.408 . S
C821 C820 1.404 . S
C821 H833 0.930 . S
C822 C818 1.524 . S
C822 H834 0.956 1_655 S
C822 H835 0.961 . S
C822 H836 0.961 1_655 S
C823 C820 1.539 . S
C823 H837 0.958 . S
C823 H838 0.961 . S
C823 H839 0.960 . S
H824 C808 0.931 . S
H825 C813 0.929 . S
H826 C814 0.960 1_655 S
H827 C814 0.962 . S
H828 C814 0.960 . S
H829 C815 0.961 . S
H830 C815 0.961 . S
H831 C815 0.961 . S
H832 C816 0.931 1_455 S
H833 C821 0.930 . S
H834 C822 0.956 1_455 S
H835 C822 0.961 . S
H836 C822 0.961 1_455 S
H837 C823 0.958 . S
H838 C823 0.961 . S
H839 C823 0.960 . S
C840 C841 1.391 . S
C840 C842 1.394 . S
C840 H856 0.931 . S
C841 C840 1.391 . S
C841 C845 1.376 . S
C842 C840 1.394 . S
C842 C843 1.369 . S
C842 C846 1.531 . S
C843 C842 1.369 . S
C843 C844 1.410 . S
C843 C851 1.503 . S
C844 C843 1.410 . S
C844 C845 1.392 . S
C844 C847 1.511 . S
C845 C841 1.376 . S
C845 C844 1.392 . S
C845 H857 0.929 . S
C846 C842 1.531 . S
C846 H858 0.960 . S
C846 H859 0.962 . S
C846 H860 0.960 . S
C847 C844 1.511 . S
C847 H861 0.961 . S
C847 H862 0.961 . S
C847 H863 0.961 . S
C848 C849 1.370 . S
C848 C850 1.363 . S
C848 H864 0.931 . S
C849 C848 1.370 . S
C849 C853 1.408 . S
C850 C848 1.363 . S
C850 C851 1.370 . S
C850 C854 1.524 . S
C851 C843 1.503 . S
C851 C850 1.370 . S
C851 C852 1.403 . S
C852 C851 1.403 . S
C852 C853 1.404 . S
C852 C855 1.539 . S
C853 C849 1.408 . S
C853 C852 1.404 . S
C853 H865 0.930 . S
C854 C850 1.524 . S
C854 H866 0.956 . S
C854 H867 0.961 . S
C854 H868 0.961 . S
C855 C852 1.539 . S
C855 H869 0.958 . S
C855 H870 0.961 . S
C855 H871 0.960 . S
H856 C840 0.931 . S
H857 C845 0.929 . S
H858 C846 0.960 . S
H859 C846 0.962 . S
H860 C846 0.960 . S
H861 C847 0.961 . S
H862 C847 0.961 . S
H863 C847 0.961 . S
H864 C848 0.931 . S
H865 C853 0.930 . S
H866 C854 0.956 . S
H867 C854 0.961 . S
H868 C854 0.961 . S
H869 C855 0.958 . S
H870 C855 0.961 . S
H871 C855 0.960 . S
C872 C873 1.391 . S
C872 C874 1.394 . S
C872 H888 0.931 . S
C873 C872 1.391 . S
C873 C877 1.376 . S
C874 C872 1.394 . S
C874 C875 1.369 . S
C874 C878 1.531 . S
C875 C874 1.369 . S
C875 C876 1.410 . S
C875 C883 1.503 . S
C876 C875 1.410 . S
C876 C877 1.392 . S
C876 C879 1.511 . S
C877 C873 1.376 . S
C877 C876 1.392 . S
C877 H889 0.929 . S
C878 C874 1.531 . S
C878 H890 0.960 . S
C878 H891 0.962 . S
C878 H892 0.960 . S
C879 C876 1.511 . S
C879 H893 0.961 . S
C879 H894 0.961 . S
C879 H895 0.961 . S
C880 C881 1.370 . S
C880 C882 1.363 . S
C880 H896 0.931 . S
C881 C880 1.370 . S
C881 C885 1.408 . S
C882 C880 1.363 . S
C882 C883 1.370 . S
C882 C886 1.524 . S
C883 C875 1.503 . S
C883 C882 1.370 . S
C883 C884 1.403 . S
C884 C883 1.403 . S
C884 C885 1.404 . S
C884 C887 1.539 . S
C885 C881 1.408 . S
C885 C884 1.404 . S
C885 H897 0.930 . S
C886 C882 1.524 . S
C886 H898 0.956 . S
C886 H899 0.961 . S
C886 H900 0.961 . S
C887 C884 1.539 . S
C887 H901 0.958 . S
C887 H902 0.961 . S
C887 H903 0.960 . S
H888 C872 0.931 . S
H889 C877 0.929 . S
H890 C878 0.960 . S
H891 C878 0.962 . S
H892 C878 0.960 . S
H893 C879 0.961 . S
H894 C879 0.961 . S
H895 C879 0.961 . S
H896 C880 0.931 . S
H897 C885 0.930 . S
H898 C886 0.956 . S
H899 C886 0.961 . S
H900 C886 0.961 . S
H901 C887 0.958 . S
H902 C887 0.961 . S
H903 C887 0.960 . S
C904 C905 1.391 . S
C904 C906 1.394 . S
C904 H920 0.931 . S
C905 C904 1.391 . S
C905 C909 1.376 . S
C906 C904 1.394 . S
C906 C907 1.369 . S
C906 C910 1.531 . S
C907 C906 1.369 . S
C907 C908 1.410 . S
C907 C915 1.503 . S
C908 C907 1.410 . S
C908 C909 1.392 . S
C908 C911 1.511 . S
C909 C905 1.376 . S
C909 C908 1.392 . S
C909 H921 0.929 . S
C910 C906 1.531 . S
C910 H922 0.960 . S
C910 H923 0.962 . S
C910 H924 0.960 . S
C911 C908 1.511 . S
C911 H925 0.961 . S
C911 H926 0.961 . S
C911 H927 0.961 . S
C912 C913 1.370 . S
C912 C914 1.363 . S
C912 H928 0.931 . S
C913 C912 1.370 . S
C913 C917 1.408 . S
C914 C912 1.363 . S
C914 C915 1.370 . S
C914 C918 1.524 . S
C915 C907 1.503 . S
C915 C914 1.370 . S
C915 C916 1.403 . S
C916 C915 1.403 . S
C916 C917 1.404 . S
C916 C919 1.539 . S
C917 C913 1.408 . S
C917 C916 1.404 . S
C917 H929 0.930 . S
C918 C914 1.524 . S
C918 H930 0.956 . S
C918 H931 0.961 . S
C918 H932 0.961 1_556 S
C919 C916 1.539 . S
C919 H933 0.958 . S
C919 H934 0.961 . S
C919 H935 0.960 . S
H920 C904 0.931 . S
H921 C909 0.929 . S
H922 C910 0.960 . S
H923 C910 0.962 . S
H924 C910 0.960 . S
H925 C911 0.961 . S
H926 C911 0.961 . S
H927 C911 0.961 . S
H928 C912 0.931 . S
H929 C917 0.930 . S
H930 C918 0.956 . S
H931 C918 0.961 . S
H932 C918 0.961 1_554 S
H933 C919 0.958 . S
H934 C919 0.961 . S
H935 C919 0.960 . S
C936 C937 1.391 . S
C936 C938 1.394 . S
C936 H952 0.931 . S
C937 C936 1.391 . S
C937 C941 1.376 . S
C938 C936 1.394 . S
C938 C939 1.369 . S
C938 C942 1.531 . S
C939 C938 1.369 . S
C939 C940 1.410 . S
C939 C947 1.503 . S
C940 C939 1.410 . S
C940 C941 1.392 . S
C940 C943 1.511 . S
C941 C937 1.376 . S
C941 C940 1.392 . S
C941 H953 0.929 . S
C942 C938 1.531 . S
C942 H954 0.960 . S
C942 H955 0.962 . S
C942 H956 0.960 . S
C943 C940 1.511 . S
C943 H957 0.961 . S
C943 H958 0.961 . S
C943 H959 0.961 . S
C944 C945 1.370 . S
C944 C946 1.363 . S
C944 H960 0.931 . S
C945 C944 1.370 . S
C945 C949 1.408 . S
C946 C944 1.363 . S
C946 C947 1.370 . S
C946 C950 1.524 . S
C947 C939 1.503 . S
C947 C946 1.370 . S
C947 C948 1.403 . S
C948 C947 1.403 . S
C948 C949 1.404 . S
C948 C951 1.539 . S
C949 C945 1.408 . S
C949 C948 1.404 . S
C949 H961 0.930 . S
C950 C946 1.524 . S
C950 H962 0.956 . S
C950 H963 0.961 . S
C950 H964 0.961 . S
C951 C948 1.539 . S
C951 H965 0.958 . S
C951 H966 0.961 . S
C951 H967 0.960 . S
H952 C936 0.931 . S
H953 C941 0.929 . S
H954 C942 0.960 . S
H955 C942 0.962 . S
H956 C942 0.960 . S
H957 C943 0.961 . S
H958 C943 0.961 . S
H959 C943 0.961 . S
H960 C944 0.931 . S
H961 C949 0.930 . S
H962 C950 0.956 . S
H963 C950 0.961 . S
H964 C950 0.961 . S
H965 C951 0.958 . S
H966 C951 0.961 . S
H967 C951 0.960 . S
C968 C969 1.391 . S
C968 C970 1.394 . S
C968 H984 0.931 . S
C969 C968 1.391 . S
C969 C973 1.376 . S
C970 C968 1.394 . S
C970 C971 1.369 . S
C970 C974 1.531 . S
C971 C970 1.369 . S
C971 C972 1.410 . S
C971 C979 1.503 . S
C972 C971 1.410 . S
C972 C973 1.392 . S
C972 C975 1.511 . S
C973 C969 1.376 . S
C973 C972 1.392 . S
C973 H985 0.929 . S
C974 C970 1.531 . S
C974 H986 0.960 . S
C974 H987 0.962 . S
C974 H988 0.960 . S
C975 C972 1.511 . S
C975 H989 0.961 . S
C975 H990 0.961 . S
C975 H991 0.961 . S
C976 C977 1.370 . S
C976 C978 1.363 . S
C976 H992 0.931 . S
C977 C976 1.370 . S
C977 C981 1.408 . S
C978 C976 1.363 . S
C978 C979 1.370 . S
C978 C982 1.524 . S
C979 C971 1.503 . S
C979 C978 1.370 . S
C979 C980 1.403 . S
C980 C979 1.403 . S
C980 C981 1.404 . S
C980 C983 1.539 . S
C981 C977 1.408 . S
C981 C980 1.404 . S
C981 H993 0.930 . S
C982 C978 1.524 . S
C982 H994 0.956 . S
C982 H995 0.961 . S
C982 H996 0.961 . S
C983 C980 1.539 . S
C983 H997 0.958 . S
C983 H998 0.961 . S
C983 H999 0.960 . S
H984 C968 0.931 . S
H985 C973 0.929 . S
H986 C974 0.960 . S
H987 C974 0.962 . S
H988 C974 0.960 . S
H989 C975 0.961 . S
H990 C975 0.961 . S
H991 C975 0.961 . S
H992 C976 0.931 . S
H993 C981 0.930 . S
H994 C982 0.956 . S
H995 C982 0.961 . S
H996 C982 0.961 . S
H997 C983 0.958 . S
H998 C983 0.961 . S
H999 C983 0.960 . S
C1000 C1001 1.391 . S
C1000 C1002 1.394 . S
C1000 H1016 0.931 . S
C1001 C1000 1.391 . S
C1001 C1005 1.376 . S
C1002 C1000 1.394 . S
C1002 C1003 1.369 . S
C1002 C1006 1.531 . S
C1003 C1002 1.369 . S
C1003 C1004 1.410 . S
C1003 C1011 1.503 . S
C1004 C1003 1.410 . S
C1004 C1005 1.392 . S
C1004 C1007 1.511 . S
C1005 C1001 1.376 . S
C1005 C1004 1.392 . S
C1005 H1017 0.929 . S
C1006 C1002 1.531 . S
C1006 H1018 0.960 . S
C1006 H1019 0.962 . S
C1006 H1020 0.960 . S
C1007 C1004 1.511 . S
C1007 H1021 0.961 . S
C1007 H1022 0.961 . S
C1007 H1023 0.961 . S
C1008 C1009 1.370 . S
C1008 C1010 1.363 . S
C1008 H1024 0.931 . S
C1009 C1008 1.370 . S
C1009 C1013 1.408 . S
C1010 C1008 1.363 . S
C1010 C1011 1.370 . S
C1010 C1014 1.524 . S
C1011 C1003 1.503 . S
C1011 C1010 1.370 . S
C1011 C1012 1.403 . S
C1012 C1011 1.403 . S
C1012 C1013 1.404 . S
C1012 C1015 1.539 . S
C1013 C1009 1.408 . S
C1013 C1012 1.404 . S
C1013 H1025 0.930 . S
C1014 C1010 1.524 . S
C1014 H1026 0.956 . S
C1014 H1027 0.961 . S
C1014 H1028 0.961 . S
C1015 C1012 1.539 . S
C1015 H1029 0.958 . S
C1015 H1030 0.961 . S
C1015 H1031 0.960 . S
H1016 C1000 0.931 . S
H1017 C1005 0.929 . S
H1018 C1006 0.960 . S
H1019 C1006 0.962 . S
H1020 C1006 0.960 . S
H1021 C1007 0.961 . S
H1022 C1007 0.961 . S
H1023 C1007 0.961 . S
H1024 C1008 0.931 . S
H1025 C1013 0.930 . S
H1026 C1014 0.956 . S
H1027 C1014 0.961 . S
H1028 C1014 0.961 . S
H1029 C1015 0.958 . S
H1030 C1015 0.961 . S
H1031 C1015 0.960 . S
C265 C9 1.271 . S
C273 C108 1.279 . S
C297 C21 1.099 . S
C305 C169 1.085 . S
C337 C207 2.222 . S
C329 C30 2.219 . S
C361 C43 2.112 . S
C369 C247 2.200 . S
C401 C167 1.155 . S
C393 C4 1.109 . S
C433 C135 2.441 . S
C425 C22 2.369 . S
C465 C244 1.395 . S
C457 C34 1.420 . S
C497 C204 1.748 . S
C489 C48 1.753 . S
C521 C8 1.137 . S
C529 C249 1.193 . S
C561 C164 2.342 . S
C553 C35 2.331 . S
C585 C47 2.382 . S
C593 C106 2.347 . S
C617 C17 1.214 . S
C625 C209 1.337 . S
C657 C129 0.783 . S
C649 C60 0.814 . S
C681 C74 1.172 . S
C689 C148 1.198 . S
C713 C82 1.999 . S
C721 C186 1.985 . S
C745 C100 2.753 . S
C753 C226 2.687 . S
C777 C61 1.545 . S
C785 C146 1.563 . S
C817 C124 1.849 . S
C809 C73 1.745 . S
C849 C255 1.910 . S
C841 C87 1.930 . S
C881 C215 1.581 . S
C873 C95 1.561 . S
C905 C56 1.066 . S
C913 C228 1.070 . S
C945 C175 2.522 . S
C937 C86 2.515 . S
C977 C127 2.246 . S
C969 C99 2.264 . S
C1001 C69 1.153 . S
C1009 C188 1.220 . S
