# Generated by pormake.
# Topology csq, (4,8)-cn, num edge types: 1
# Building blocks:
#     Node 0, Type 0, BuildingBlock: MUDLON_clean_linker_0, # of connection points: 4
#     Node 1, Type 0, BuildingBlock: MUDLON_clean_linker_0, # of connection points: 4
#     Node 2, Type 0, BuildingBlock: MUDLON_clean_linker_0, # of connection points: 4
#     Node 3, Type 0, BuildingBlock: MUDLON_clean_linker_0, # of connection points: 4
#     Node 4, Type 0, BuildingBlock: MUDLON_clean_linker_0, # of connection points: 4
#     Node 5, Type 0, BuildingBlock: MUDLON_clean_linker_0, # of connection points: 4
#     Node 6, Type 1, BuildingBlock: TAGTUT_clean_sbu_3, # of connection points: 8
#     Node 7, Type 1, BuildingBlock: TAGTUT_clean_sbu_3, # of connection points: 8
#     Node 8, Type 1, BuildingBlock: TAGTUT_clean_sbu_3, # of connection points: 8
#     Edge 9, Type (0, 1), BuildingBlock: EZIPEK_clean_linker_0, # of connection points: 2
#     Edge 10, Type (0, 1), BuildingBlock: EZIPEK_clean_linker_0, # of connection points: 2
#     Edge 11, Type (0, 1), BuildingBlock: EZIPEK_clean_linker_0, # of connection points: 2
#     Edge 12, Type (0, 1), BuildingBlock: EZIPEK_clean_linker_0, # of connection points: 2
#     Edge 13, Type (0, 1), BuildingBlock: EZIPEK_clean_linker_0, # of connection points: 2
#     Edge 14, Type (0, 1), BuildingBlock: EZIPEK_clean_linker_0, # of connection points: 2
#     Edge 15, Type (0, 1), BuildingBlock: EZIPEK_clean_linker_0, # of connection points: 2
#     Edge 16, Type (0, 1), BuildingBlock: EZIPEK_clean_linker_0, # of connection points: 2
#     Edge 17, Type (0, 1), BuildingBlock: EZIPEK_clean_linker_0, # of connection points: 2
#     Edge 18, Type (0, 1), BuildingBlock: EZIPEK_clean_linker_0, # of connection points: 2
#     Edge 19, Type (0, 1), BuildingBlock: EZIPEK_clean_linker_0, # of connection points: 2
#     Edge 20, Type (0, 1), BuildingBlock: EZIPEK_clean_linker_0, # of connection points: 2
#     Edge 21, Type (0, 1), BuildingBlock: EZIPEK_clean_linker_0, # of connection points: 2
#     Edge 22, Type (0, 1), BuildingBlock: EZIPEK_clean_linker_0, # of connection points: 2
#     Edge 23, Type (0, 1), BuildingBlock: EZIPEK_clean_linker_0, # of connection points: 2
#     Edge 24, Type (0, 1), BuildingBlock: EZIPEK_clean_linker_0, # of connection points: 2
#     Edge 25, Type (0, 1), BuildingBlock: EZIPEK_clean_linker_0, # of connection points: 2
#     Edge 26, Type (0, 1), BuildingBlock: EZIPEK_clean_linker_0, # of connection points: 2
#     Edge 27, Type (0, 1), BuildingBlock: EZIPEK_clean_linker_0, # of connection points: 2
#     Edge 28, Type (0, 1), BuildingBlock: EZIPEK_clean_linker_0, # of connection points: 2
#     Edge 29, Type (0, 1), BuildingBlock: EZIPEK_clean_linker_0, # of connection points: 2
#     Edge 30, Type (0, 1), BuildingBlock: EZIPEK_clean_linker_0, # of connection points: 2
#     Edge 31, Type (0, 1), BuildingBlock: EZIPEK_clean_linker_0, # of connection points: 2
#     Edge 32, Type (0, 1), BuildingBlock: EZIPEK_clean_linker_0, # of connection points: 2
# Relax obj value: 0.041
# Max RMSD: 0.118
# Mean RMSD: 0.078
data_MOF--net-csq--node1-TAGTUT_clean_sbu_3--node2-MUDLON_clean_linker_0--edge1-EZIPEK_clean_linker_0
_symmetry_space_group_name_H-M    P1
_symmetry_Int_Tables_number       1
_symmetry_cell_setting            triclinic
loop_
_symmetry_equiv_pos_as_xyz
'x, y, z'
_cell_length_a     57.475887
_cell_length_b     56.671781
_cell_length_c     18.707856
_cell_angle_alpha  93.012526
_cell_angle_beta   92.957974
_cell_angle_gamma 119.97834
loop_
_atom_site_label
_atom_site_type_symbol
_atom_site_fract_x
_atom_site_fract_y
_atom_site_fract_z
_atom_type_partial_charge
H0 H 0.33646 0.47195 0.16352 0.0
N1 N 0.29627 0.41855 0.16425 0.0
H2 H 0.37793 0.49472 0.24502 0.0
H3 H 0.30462 0.402 0.2876 0.0
H4 H 0.34601 0.42492 0.36948 0.0
H5 H 0.31654 0.38691 0.13304 0.0
H6 H 0.34692 0.39283 0.03989 0.0
H7 H 0.3004 0.44661 0.04441 0.0
H8 H 0.32992 0.45168 0.94994 0.0
H9 H 0.29178 0.4641 0.14952 0.0
H10 H 0.24765 0.37876 0.18593 0.0
H11 H 0.25143 0.46723 0.16083 0.0
H12 H 0.20746 0.38199 0.20258 0.0
H13 H 0.15474 0.49003 0.20917 0.0
H14 H 0.14648 0.51939 0.29291 0.0
H15 H 0.09598 0.44943 0.40556 0.0
H16 H 0.10484 0.42023 0.32299 0.0
H17 H 0.08023 0.41545 0.16028 0.0
H18 H 0.06275 0.4235 0.04744 0.0
H19 H 0.14314 0.46509 0.9787 0.0
H20 H 0.16093 0.45901 0.09333 0.0
H21 H 0.18428 0.47321 0.255 0.0
H22 H 0.22362 0.46861 0.24497 0.0
H23 H 0.17292 0.38606 0.14604 0.0
N24 N 0.13149 0.43432 0.20636 0.0
H25 H 0.13322 0.39027 0.16059 0.0
C26 C 0.31748 0.43514 0.21974 0.0
C27 C 0.33793 0.46192 0.20972 0.0
C28 C 0.36162 0.47489 0.25586 0.0
C29 C 0.36488 0.46132 0.31259 0.0
C30 C 0.34367 0.4356 0.32579 0.0
C31 C 0.32011 0.42262 0.2796 0.0
C32 C 0.30626 0.41633 0.09654 0.0
C33 C 0.31861 0.40037 0.09177 0.0
C34 C 0.3361 0.40393 0.03915 0.0
C35 C 0.34097 0.42303 0.98897 0.0
C36 C 0.32657 0.43704 0.98885 0.0
C37 C 0.30952 0.43396 0.04274 0.0
C38 C 0.27251 0.42091 0.16525 0.0
C39 C 0.27332 0.44592 0.15924 0.0
C40 C 0.25023 0.44778 0.16713 0.0
C41 C 0.22605 0.42489 0.18309 0.0
C42 C 0.22544 0.39994 0.18899 0.0
C43 C 0.2484 0.39801 0.17969 0.0
C44 C 0.13056 0.45289 0.26053 0.0
C45 C 0.14246 0.48114 0.25299 0.0
C46 C 0.13762 0.49784 0.30029 0.0
C47 C 0.12033 0.48643 0.3546 0.0
C48 C 0.10926 0.45852 0.36365 0.0
C49 C 0.11441 0.44193 0.31705 0.0
C50 C 0.12177 0.43646 0.13559 0.0
C51 C 0.09403 0.42608 0.1206 0.0
C52 C 0.0841 0.43059 0.05636 0.0
C53 C 0.10171 0.445 0.00509 0.0
C54 C 0.12929 0.45399 0.01784 0.0
C55 C 0.13938 0.4504 0.0833 0.0
C56 C 0.1554 0.43187 0.20887 0.0
C57 C 0.1813 0.45389 0.23231 0.0
C58 C 0.20408 0.45137 0.22557 0.0
C59 C 0.20165 0.42707 0.19386 0.0
C60 C 0.1757 0.40498 0.17171 0.0
C61 C 0.15292 0.40733 0.17979 0.0
H62 H 0.70867 0.16112 0.13973 0.0
N63 N 0.6887 0.19438 0.10362 0.0
H64 H 0.68876 0.1241 0.21949 0.0
H65 H 0.65051 0.18492 0.19067 0.0
H66 H 0.63037 0.14769 0.26933 0.0
H67 H 0.64147 0.18639 0.04835 0.0
H68 H 0.61117 0.15166 0.95181 0.0
H69 H 0.70205 0.16442 0.01239 0.0
H70 H 0.6727 0.13132 0.9131 0.0
H71 H 0.72559 0.21923 0.21941 0.0
H72 H 0.71767 0.21634 0.98721 0.0
H73 H 0.77353 0.25224 0.2202 0.0
H74 H 0.76561 0.24835 0.989 0.0
H75 H 0.91218 0.32299 0.20304 0.0
H76 H 0.93861 0.35327 0.31162 0.0
H77 H 0.91585 0.41181 0.25093 0.0
H78 H 0.88927 0.38166 0.144 0.0
H79 H 0.85402 0.34953 0.0253 0.0
H80 H 0.86692 0.37782 0.92398 0.0
H81 H 0.9429 0.37965 0.93151 0.0
H82 H 0.92956 0.35023 0.03113 0.0
H83 H 0.84731 0.33743 0.17485 0.0
H84 H 0.80012 0.30267 0.1771 0.0
H85 H 0.81124 0.24802 0.03231 0.0
N86 N 0.88517 0.33275 0.09949 0.0
H87 H 0.85914 0.28271 0.03193 0.0
C88 C 0.68104 0.17588 0.15957 0.0
C89 C 0.69194 0.15867 0.16889 0.0
C90 C 0.68052 0.13748 0.21384 0.0
C91 C 0.65787 0.13299 0.24906 0.0
C92 C 0.64771 0.15076 0.24198 0.0
C93 C 0.65929 0.17208 0.19783 0.0
C94 C 0.67419 0.17845 0.03688 0.0
C95 C 0.64861 0.17488 0.01784 0.0
C96 C 0.63135 0.15506 0.96322 0.0
C97 C 0.6398 0.13908 0.92533 0.0
C98 C 0.6659 0.14357 0.94164 0.0
C99 C 0.68272 0.16261 0.99792 0.0
C100 C 0.71767 0.213 0.10299 0.0
C101 C 0.73404 0.22472 0.16839 0.0
C102 C 0.76148 0.24389 0.16911 0.0
C103 C 0.77327 0.25216 0.10455 0.0
C104 C 0.75708 0.24154 0.03936 0.0
C105 C 0.72953 0.22283 0.0386 0.0
C106 C 0.8991 0.35015 0.16485 0.0
C107 C 0.91272 0.34224 0.21369 0.0
C108 C 0.92766 0.35938 0.2754 0.0
C109 C 0.92925 0.38478 0.28863 0.0
C110 C 0.9149 0.39231 0.24128 0.0
C111 C 0.89989 0.37517 0.18003 0.0
C112 C 0.89082 0.34744 0.03569 0.0
C113 C 0.87318 0.35534 0.00437 0.0
C114 C 0.88053 0.3716 0.94665 0.0
C115 C 0.90591 0.38094 0.92079 0.0
C116 C 0.92324 0.37265 0.95087 0.0
C117 C 0.91566 0.35591 0.00747 0.0
C118 C 0.85714 0.31255 0.10395 0.0
C119 C 0.84001 0.31793 0.14447 0.0
C120 C 0.81291 0.29804 0.14573 0.0
C121 C 0.8022 0.27273 0.10519 0.0
C122 C 0.81911 0.26744 0.06404 0.0
C123 C 0.84637 0.28712 0.06396 0.0
H124 H 0.60441 0.90104 0.00338 0.0
N125 N 0.56532 0.86117 0.06717 0.0
H126 H 0.59952 0.92704 0.90821 0.0
H127 H 0.5179 0.84931 0.9907 0.0
H128 H 0.51313 0.87524 0.89647 0.0
H129 H 0.53483 0.88411 0.10685 0.0
H130 H 0.53644 0.90496 0.22577 0.0
H131 H 0.59543 0.86577 0.18576 0.0
H132 H 0.59589 0.88548 0.30655 0.0
H133 H 0.58527 0.82952 0.03016 0.0
H134 H 0.51345 0.82674 0.09784 0.0
H135 H 0.56424 0.78002 0.03654 0.0
H136 H 0.49218 0.77719 0.10369 0.0
H137 H 0.53095 0.68555 0.0076 0.0
H138 H 0.54168 0.66471 0.90668 0.0
H139 H 0.46527 0.59051 0.90943 0.0
H140 H 0.4537 0.61177 0.00852 0.0
H141 H 0.44861 0.62977 0.16909 0.0
H142 H 0.45331 0.60361 0.2642 0.0
H143 H 0.53744 0.63788 0.2307 0.0
H144 H 0.53213 0.66181 0.13213 0.0
H145 H 0.53364 0.70254 0.14893 0.0
H146 H 0.55061 0.75082 0.14187 0.0
H147 H 0.47644 0.73265 0.02228 0.0
N148 N 0.4855 0.65999 0.08203 0.0
H149 H 0.45919 0.68356 0.02909 0.0
C150 C 0.56167 0.87335 0.00472 0.0
C151 C 0.58448 0.89489 0.97899 0.0
C152 C 0.58171 0.90956 0.92456 0.0
C153 C 0.55597 0.90292 0.89529 0.0
C154 C 0.53316 0.88044 0.91796 0.0
C155 C 0.53593 0.86571 0.97216 0.0
C156 C 0.56569 0.87399 0.1365 0.0
C157 C 0.54862 0.88464 0.14924 0.0
C158 C 0.54931 0.89635 0.2175 0.0
C159 C 0.5665 0.89703 0.2747 0.0
C160 C 0.58273 0.88544 0.26289 0.0
C161 C 0.58255 0.87435 0.19416 0.0
C162 C 0.55095 0.83173 0.06292 0.0
C163 C 0.5648 0.8181 0.04513 0.0
C164 C 0.55286 0.78997 0.04944 0.0
C165 C 0.52669 0.77489 0.0713 0.0
C166 C 0.51232 0.78834 0.08641 0.0
C167 C 0.52442 0.81659 0.08278 0.0
C168 C 0.49129 0.65014 0.01619 0.0
C169 C 0.51595 0.66518 0.98539 0.0
C170 C 0.52213 0.65338 0.92729 0.0
C171 C 0.50428 0.62612 0.901 0.0
C172 C 0.4792 0.61164 0.92892 0.0
C173 C 0.47269 0.62366 0.98561 0.0
C174 C 0.49008 0.64838 0.14461 0.0
C175 C 0.46815 0.632 0.1833 0.0
C176 C 0.47085 0.61715 0.23751 0.0
C177 C 0.49581 0.61902 0.25522 0.0
C178 C 0.51807 0.63637 0.21863 0.0
C179 C 0.51511 0.65032 0.16275 0.0
C180 C 0.49486 0.68899 0.0892 0.0
C181 C 0.52059 0.70848 0.12202 0.0
C182 C 0.53052 0.73634 0.11745 0.0
C183 C 0.51501 0.74542 0.08058 0.0
C184 C 0.48883 0.72617 0.05101 0.0
C185 C 0.47895 0.6982 0.05504 0.0
H186 H 0.92689 0.60822 0.0122 0.0
N187 N 0.87355 0.57734 0.99481 0.0
H188 H 0.95774 0.60542 0.10268 0.0
H189 H 0.8588 0.54598 0.10855 0.0
H190 H 0.8896 0.54399 0.20073 0.0
H191 H 0.85675 0.52263 0.98039 0.0
H192 H 0.87393 0.5021 0.8948 0.0
H193 H 0.89141 0.59623 0.87089 0.0
H194 H 0.90866 0.57577 0.78562 0.0
H195 H 0.87042 0.61811 0.05904 0.0
H196 H 0.82114 0.53396 0.97252 0.0
H197 H 0.83035 0.61853 0.09375 0.0
H198 H 0.78082 0.53466 0.00292 0.0
H199 H 0.67135 0.59728 0.11973 0.0
H200 H 0.64893 0.59429 0.22899 0.0
H201 H 0.69995 0.56958 0.33923 0.0
H202 H 0.72113 0.57056 0.22872 0.0
H203 H 0.6631 0.52953 0.10828 0.0
H204 H 0.62249 0.5051 0.02297 0.0
H205 H 0.66146 0.56575 0.87359 0.0
H206 H 0.7013 0.59073 0.95988 0.0
H207 H 0.75278 0.62118 0.06325 0.0
H208 H 0.79346 0.61973 0.04081 0.0
H209 H 0.75494 0.53596 0.09574 0.0
N210 N 0.70611 0.58055 0.09477 0.0
H211 H 0.71377 0.53746 0.11435 0.0
C212 C 0.89066 0.57775 0.05447 0.0
C213 C 0.91866 0.59449 0.05393 0.0
C214 C 0.93616 0.59275 0.10494 0.0
C215 C 0.92585 0.57458 0.15822 0.0
C216 C 0.89783 0.55819 0.15998 0.0
C217 C 0.88031 0.55953 0.10798 0.0
C218 C 0.87311 0.56118 0.93217 0.0
C219 C 0.8667 0.53379 0.93567 0.0
C220 C 0.87657 0.52207 0.88706 0.0
C221 C 0.89286 0.53768 0.83499 0.0
C222 C 0.89615 0.56353 0.82577 0.0
C223 C 0.8862 0.57514 0.87401 0.0
C224 C 0.84894 0.57629 0.0124 0.0
C225 C 0.85087 0.59982 0.04684 0.0
C226 C 0.8279 0.60003 0.06625 0.0
C227 C 0.80221 0.57672 0.05046 0.0
C228 C 0.80026 0.5529 0.0167 0.0
C229 C 0.82341 0.55259 0.99838 0.0
C230 C 0.69727 0.58323 0.16435 0.0
C231 C 0.67789 0.59137 0.16747 0.0
C232 C 0.66519 0.5898 0.22988 0.0
C233 C 0.67236 0.58109 0.29169 0.0
C234 C 0.6938 0.57584 0.2915 0.0
C235 C 0.70582 0.57631 0.22793 0.0
C236 C 0.68486 0.56239 0.04074 0.0
C237 C 0.66309 0.53717 0.05643 0.0
C238 C 0.64006 0.52311 0.00772 0.0
C239 C 0.63905 0.53372 0.94227 0.0
C240 C 0.66195 0.55724 0.92381 0.0
C241 C 0.68459 0.57154 0.97291 0.0
C242 C 0.73057 0.57965 0.09114 0.0
C243 C 0.75337 0.6027 0.07136 0.0
C244 C 0.7766 0.60178 0.05885 0.0
C245 C 0.77763 0.57773 0.06671 0.0
C246 C 0.75479 0.5547 0.08819 0.0
C247 C 0.73136 0.55557 0.09969 0.0
H248 H 0.1278 0.67642 0.15944 0.0
N249 N 0.13684 0.72764 0.13271 0.0
H250 H 0.1141 0.65455 0.27092 0.0
H251 H 0.13189 0.74926 0.25705 0.0
H252 H 0.12071 0.7282 0.37124 0.0
H253 H 0.08464 0.68797 0.10185 0.0
H254 H 0.06496 0.65442 0.99654 0.0
H255 H 0.16058 0.72807 0.00556 0.0
H256 H 0.14047 0.69508 0.90156 0.0
H257 H 0.17707 0.71552 0.15055 0.0
H258 H 0.16117 0.78116 0.1197 0.0
H259 H 0.22525 0.74693 0.14592 0.0
H260 H 0.20945 0.81275 0.11309 0.0
H261 H 0.34719 0.90282 0.15707 0.0
H262 H 0.38096 0.92608 0.26039 0.0
H263 H 0.3941 0.85758 0.26276 0.0
H264 H 0.36019 0.8342 0.15923 0.0
H265 H 0.31003 0.88333 0.04301 0.0
H266 H 0.32397 0.91344 0.94517 0.0
H267 H 0.38321 0.89054 0.89986 0.0
H268 H 0.36862 0.85965 0.99582 0.0
H269 H 0.30159 0.80138 0.03561 0.0
H270 H 0.25398 0.77082 0.05204 0.0
H271 H 0.25359 0.8356 0.18368 0.0
N272 N 0.33275 0.85305 0.0874 0.0
H273 H 0.30096 0.86608 0.16581 0.0
C274 C 0.12969 0.71421 0.19866 0.0
C275 C 0.12569 0.68774 0.20461 0.0
C276 C 0.11819 0.67534 0.26862 0.0
C277 C 0.11583 0.68953 0.3291 0.0
C278 C 0.12181 0.71665 0.32485 0.0
C279 C 0.12811 0.72861 0.25984 0.0
C280 C 0.12487 0.70961 0.06612 0.0
C281 C 0.09719 0.68965 0.05895 0.0
C282 C 0.0858 0.67066 0.99848 0.0
C283 C 0.10153 0.67194 0.94236 0.0
C284 C 0.12822 0.69346 0.94521 0.0
C285 C 0.13977 0.71214 0.00601 0.0
C286 C 0.16558 0.74616 0.13584 0.0
C287 C 0.18404 0.73681 0.14383 0.0
C288 C 0.21153 0.75472 0.1403 0.0
C289 C 0.22113 0.78227 0.12865 0.0
C290 C 0.20271 0.79171 0.12279 0.0
C291 C 0.17518 0.77376 0.12629 0.0
C292 C 0.3512 0.86668 0.15062 0.0
C293 C 0.35709 0.89265 0.18012 0.0
C294 C 0.37635 0.90594 0.23884 0.0
C295 C 0.38992 0.89347 0.2687 0.0
C296 C 0.38376 0.86742 0.24018 0.0
C297 C 0.36449 0.85414 0.18154 0.0
C298 C 0.33832 0.86908 0.02658 0.0
C299 C 0.32558 0.88424 0.01122 0.0
C300 C 0.33352 0.90147 0.95547 0.0
C301 C 0.35479 0.90437 0.91606 0.0
C302 C 0.36682 0.88861 0.92994 0.0
C303 C 0.35857 0.87108 0.98452 0.0
C304 C 0.30483 0.83585 0.09946 0.0
C305 C 0.29117 0.80888 0.0681 0.0
C306 C 0.26408 0.79146 0.07799 0.0
C307 C 0.25008 0.80077 0.11957 0.0
C308 C 0.26379 0.8279 0.15099 0.0
C309 C 0.29095 0.84531 0.14113 0.0
H310 H 0.44533 0.35183 0.09042 0.0
N311 N 0.44298 0.30463 0.11998 0.0
H312 H 0.45455 0.37313 0.97751 0.0
H313 H 0.4578 0.28794 0.99627 0.0
H314 H 0.46725 0.3098 0.88478 0.0
H315 H 0.41077 0.30607 0.21433 0.0
H316 H 0.42298 0.33299 0.32767 0.0
H317 H 0.49414 0.34311 0.17384 0.0
H318 H 0.50726 0.37008 0.28791 0.0
H319 H 0.48837 0.30029 0.12795 0.0
H320 H 0.402 0.2548 0.13093 0.0
H321 H 0.49027 0.25866 0.1419 0.0
H322 H 0.40362 0.21317 0.14796 0.0
H323 H 0.4293 0.08622 0.07769 0.0
H324 H 0.44767 0.07488 0.97398 0.0
H325 H 0.51587 0.15697 0.99613 0.0
H326 H 0.4978 0.16821 0.10041 0.0
H327 H 0.41734 0.10276 0.25144 0.0
H328 H 0.42771 0.08223 0.35195 0.0
H329 H 0.51193 0.1267 0.31523 0.0
H330 H 0.50173 0.14776 0.21657 0.0
H331 H 0.48745 0.18385 0.2272 0.0
H332 H 0.4853 0.22568 0.22201 0.0
H333 H 0.41097 0.18106 0.08374 0.0
N334 N 0.45104 0.1334 0.15884 0.0
H335 H 0.41272 0.13916 0.09238 0.0
C336 C 0.45205 0.31876 0.05524 0.0
C337 C 0.45094 0.34279 0.0471 0.0
C338 C 0.45604 0.35495 0.98237 0.0
C339 C 0.46198 0.34323 0.92349 0.0
C340 C 0.46321 0.31939 0.93034 0.0
C341 C 0.45797 0.30707 0.99503 0.0
C342 C 0.45148 0.32176 0.18691 0.0
C343 C 0.43194 0.3195 0.23175 0.0
C344 C 0.43932 0.33457 0.29873 0.0
C345 C 0.46676 0.3516 0.32498 0.0
C346 C 0.48614 0.35515 0.27618 0.0
C347 C 0.47869 0.34012 0.20898 0.0
C348 C 0.4449 0.28043 0.12733 0.0
C349 C 0.46983 0.28133 0.13228 0.0
C350 C 0.47087 0.2575 0.14075 0.0
C351 C 0.44708 0.23244 0.14582 0.0
C352 C 0.42229 0.23191 0.14264 0.0
C353 C 0.42127 0.25564 0.1332 0.0
C354 C 0.462 0.12797 0.09651 0.0
C355 C 0.44812 0.10178 0.05987 0.0
C356 C 0.45854 0.09537 0.00096 0.0
C357 C 0.48305 0.11514 0.97769 0.0
C358 C 0.49688 0.14154 0.0134 0.0
C359 C 0.48653 0.1479 0.07277 0.0
C360 C 0.45857 0.12625 0.22557 0.0
C361 C 0.43812 0.10873 0.26665 0.0
C362 C 0.44404 0.09716 0.32399 0.0
C363 C 0.47053 0.10277 0.34029 0.0
C364 C 0.49137 0.12212 0.30329 0.0
C365 C 0.48549 0.13396 0.24658 0.0
C366 C 0.44993 0.15825 0.16085 0.0
C367 C 0.47046 0.18298 0.19689 0.0
C368 C 0.46936 0.207 0.1931 0.0
C369 C 0.44794 0.20683 0.15247 0.0
C370 C 0.42748 0.18196 0.11676 0.0
C371 C 0.42846 0.15799 0.12126 0.0
C372 C 0.06601 0.51804 0.53789 0.0
C373 C 0.04983 0.4748 0.78778 0.0
C374 C 0.96923 0.46123 0.74255 0.0
Mg375 Mg 0.03306 0.54481 0.45658 0.0
Mg376 Mg 0.00449 0.57298 0.54921 0.0
O377 O 0.00852 0.54264 0.53099 0.0
Mg378 Mg 0.02119 0.52815 0.60912 0.0
O379 O 0.0338 0.51132 0.68146 0.0
Mg380 Mg 0.01836 0.47373 0.63054 0.0
Mg381 Mg 0.02471 0.51196 0.7754 0.0
C382 C 0.97313 0.53754 0.67329 0.0
O383 O 0.04638 0.56966 0.6803 0.0
O384 O 0.00682 0.55436 0.3774 0.0
O385 O 0.04267 0.55577 0.79251 0.0
O386 O 0.06092 0.59163 0.48252 0.0
O387 O 0.98632 0.57134 0.44528 0.0
O388 O 0.04379 0.60881 0.55952 0.0
O389 O 0.99717 0.48622 0.54567 0.0
O390 O 0.00482 0.49876 0.43407 0.0
C391 C 0.99412 0.48021 0.47751 0.0
C392 C 0.99066 0.56368 0.38429 0.0
O393 O 0.98475 0.52316 0.66932 0.0
O394 O 0.04204 0.46557 0.72147 0.0
O395 O 0.97916 0.55805 0.63674 0.0
O396 O 0.98005 0.45413 0.69407 0.0
O397 O 0.04528 0.4926 0.81871 0.0
O398 O 0.98244 0.48475 0.77742 0.0
O399 O 0.05655 0.53436 0.54414 0.0
O400 O 0.05552 0.49545 0.56772 0.0
C401 C 0.06257 0.61191 0.52081 0.0
C402 C 0.05061 0.57464 0.74924 0.0
C403 C 0.50585 0.03868 0.48904 0.0
C404 C 0.59442 0.04501 0.42141 0.0
C405 C 0.56176 0.96426 0.49536 0.0
Mg406 Mg 0.46833 0.01022 0.6151 0.0
Mg407 Mg 0.49023 0.99649 0.76184 0.0
O408 O 0.48669 0.99189 0.66232 0.0
Mg409 Mg 0.5195 0.00553 0.60705 0.0
O410 O 0.54986 0.01942 0.54424 0.0
Mg411 Mg 0.53033 -0.00039 0.44971 0.0
Mg412 Mg 0.5825 0.02064 0.56883 0.0
C413 C 0.52705 0.97037 0.7362 0.0
O414 O 0.5499 0.03986 0.69279 0.0
O415 O 0.43145 0.9852 0.68134 0.0
O416 O 0.59007 0.04341 0.67201 0.0
O417 O 0.4855 0.04667 0.70467 0.0
O418 O 0.44867 0.97615 0.78001 0.0
O419 O 0.5071 0.03887 0.79371 0.0
O420 O 0.49263 0.97251 0.51475 0.0
O421 O 0.45494 0.9744 0.52836 0.0
C422 C 0.46751 0.96391 0.49684 0.0
C423 C 0.4288 0.97441 0.74129 0.0
O424 O 0.53127 0.9776 0.67145 0.0
O425 O 0.5693 0.03016 0.3992 0.0
O426 O 0.51307 0.97644 0.77656 0.0
O427 O 0.54619 0.9696 0.45718 0.0
O428 O 0.60396 0.04404 0.48383 0.0
O429 O 0.57628 0.97994 0.55054 0.0
O430 O 0.50578 0.03279 0.55417 0.0
O431 O 0.51522 0.02949 0.44176 0.0
C432 C 0.50053 0.05471 0.76408 0.0
C433 C 0.57547 0.05004 0.70821 0.0
C434 C 0.50965 0.5419 0.73973 0.0
C435 C 0.42633 0.44897 0.80237 0.0
C436 C 0.46961 0.41327 0.71785 0.0
Mg437 Mg 0.54913 0.55189 0.60402 0.0
Mg438 Mg 0.52698 0.50727 0.46262 0.0
O439 O 0.53378 0.51326 0.56261 0.0
Mg440 Mg 0.50244 0.49456 0.62051 0.0
O441 O 0.47199 0.47688 0.68215 0.0
Mg442 Mg 0.49244 0.47971 0.77434 0.0
Mg443 Mg 0.44253 0.44246 0.65084 0.0
C444 C 0.4972 0.44612 0.50003 0.0
O445 O 0.47175 0.49229 0.53255 0.0
O446 O 0.5852 0.56236 0.53383 0.0
O447 O 0.4332 0.4534 0.54832 0.0
O448 O 0.52878 0.56364 0.51002 0.0
O449 O 0.56796 0.53051 0.43905 0.0
O450 O 0.50665 0.52789 0.42761 0.0
O451 O 0.53154 0.49696 0.71233 0.0
O452 O 0.56689 0.53732 0.69125 0.0
C453 C 0.55599 0.51673 0.72875 0.0
C454 C 0.58769 0.5516 0.47449 0.0
O455 O 0.49501 0.4532 0.56478 0.0
O456 O 0.45143 0.46279 0.82588 0.0
O457 O 0.50707 0.46319 0.45247 0.0
O458 O 0.48362 0.43519 0.75977 0.0
O459 O 0.41836 0.43991 0.73638 0.0
O460 O 0.45451 0.41235 0.66415 0.0
O461 O 0.51189 0.53643 0.67328 0.0
O462 O 0.49948 0.52272 0.78161 0.0
C463 C 0.51354 0.55218 0.45139 0.0
C464 C 0.44694 0.47444 0.51415 0.0
C465 C 0.12177 0.50856 0.47571 0.0
C466 C 0.11292 0.50323 0.40137 0.0
C467 C 0.08677 0.52587 0.42084 0.0
C468 C 0.08916 0.52367 0.49516 0.0
N469 N 0.11323 0.51862 0.59636 0.0
N470 N 0.08612 0.50648 0.30228 0.0
C471 C 0.10851 0.51728 0.52354 0.0
C472 C 0.0955 0.5122 0.37325 0.0
N473 N 0.14263 0.50515 0.50002 0.0
N474 N 0.07729 0.54192 0.39633 0.0
H475 H 0.09161 0.49611 0.26541 0.0
H476 H 0.07119 0.51019 0.28148 0.0
H477 H 0.07526 0.55534 0.43203 0.0
H478 H 0.07623 0.54537 0.34239 0.0
H479 H 0.15137 0.51049 0.55276 0.0
H480 H 0.15272 0.499 0.46561 0.0
H481 H 0.12455 0.51123 0.62157 0.0
H482 H 0.10502 0.52681 0.63163 0.0
C483 C 0.62872 0.08247 0.26104 0.0
C484 C 0.64438 0.1097 0.29368 0.0
C485 C 0.62635 0.09453 0.40845 0.0
C486 C 0.61241 0.06694 0.37768 0.0
N487 N 0.6048 0.03412 0.27879 0.0
N488 N 0.66346 0.14041 0.40164 0.0
C489 C 0.61495 0.06072 0.30509 0.0
C490 C 0.64498 0.11528 0.36855 0.0
N491 N 0.62598 0.0775 0.18792 0.0
N492 N 0.62051 0.10134 0.47366 0.0
H493 H 0.67764 0.15607 0.37394 0.0
H494 H 0.6665 0.14471 0.45731 0.0
H495 H 0.60571 0.08723 0.50331 0.0
H496 H 0.62821 0.12151 0.49467 0.0
H497 H 0.61246 0.05848 0.16093 0.0
H498 H 0.63558 0.09284 0.15365 0.0
H499 H 0.60834 0.02852 0.22838 0.0
H500 H 0.59498 0.01775 0.31003 0.0
C501 C 0.50684 0.58255 0.28075 0.0
C502 C 0.49831 0.60077 0.30608 0.0
C503 C 0.49528 0.58365 0.42533 0.0
C504 C 0.50792 0.56892 0.40231 0.0
N505 N 0.53227 0.5607 0.31149 0.0
N506 N 0.48827 0.62173 0.40657 0.0
C507 C 0.51551 0.57009 0.3309 0.0
C508 C 0.49349 0.60216 0.3796 0.0
N509 N 0.50603 0.57649 0.20865 0.0
N510 N 0.48417 0.57929 0.48948 0.0
H511 H 0.48745 0.63604 0.37532 0.0
H512 H 0.4872 0.62528 0.46119 0.0
H513 H 0.48436 0.56515 0.52265 0.0
H514 H 0.47251 0.58757 0.50603 0.0
H515 H 0.50982 0.56142 0.18793 0.0
H516 H 0.49859 0.58418 0.16979 0.0
H517 H 0.54024 0.56354 0.26176 0.0
H518 H 0.54082 0.55311 0.34744 0.0
C519 C 0.94522 0.54778 0.21203 0.0
C520 C 0.94443 0.57241 0.21183 0.0
C521 C 0.97965 0.59289 0.31165 0.0
C522 C 0.97698 0.56694 0.31977 0.0
N523 N 0.95469 0.51852 0.28275 0.0
N524 N 0.95817 0.61736 0.26808 0.0
C525 C 0.95928 0.54404 0.27094 0.0
C526 C 0.96103 0.5948 0.26318 0.0
N527 N 0.93302 0.52823 0.15531 0.0
N528 N 0.00036 0.61582 0.34916 0.0
H529 H 0.94428 0.61937 0.2347 0.0
H530 H 0.9678 0.63295 0.30961 0.0
H531 H 0.01494 0.61528 0.3836 0.0
H532 H 0.00472 0.63555 0.34017 0.0
H533 H 0.93522 0.51108 0.1494 0.0
H534 H 0.9229 0.53048 0.11062 0.0
H535 H 0.93971 0.50077 0.25322 0.0
H536 H 0.96422 0.51473 0.32583 0.0
C537 C 0.40417 0.90504 0.40085 0.0
C538 C 0.41118 0.90806 0.32896 0.0
C539 C 0.45854 0.93951 0.37181 0.0
C540 C 0.45085 0.94007 0.44232 0.0
N541 N 0.41948 0.91597 0.52816 0.0
N542 N 0.44455 0.92851 0.24426 0.0
C543 C 0.42448 0.92048 0.45804 0.0
C544 C 0.43829 0.92522 0.31394 0.0
N545 N 0.37787 0.88843 0.41398 0.0
N546 N 0.4851 0.95071 0.36094 0.0
H547 H 0.43047 0.91767 0.20036 0.0
H548 H 0.46322 0.94334 0.22974 0.0
H549 H 0.49956 0.9565 0.40374 0.0
H550 H 0.49217 0.94974 0.31139 0.0
H551 H 0.37069 0.8876 0.46423 0.0
H552 H 0.36268 0.87628 0.37342 0.0
H553 H 0.40148 0.90057 0.54434 0.0
H554 H 0.43458 0.9261 0.57039 0.0
C555 C 0.50254 0.38616 0.42199 0.0
C556 C 0.47508 0.36842 0.39759 0.0
C557 C 0.46267 0.39598 0.47326 0.0
C558 C 0.48992 0.41753 0.47899 0.0
N559 N 0.53687 0.43166 0.47124 0.0
N560 N 0.43386 0.34695 0.45533 0.0
C561 C 0.5103 0.41203 0.45822 0.0
C562 C 0.45608 0.37019 0.43937 0.0
N563 N 0.52029 0.37693 0.41777 0.0
N564 N 0.44291 0.40025 0.49669 0.0
H565 H 0.43124 0.32768 0.44046 0.0
H566 H 0.42052 0.34702 0.49093 0.0
H567 H 0.44704 0.41874 0.52287 0.0
H568 H 0.42246 0.38577 0.48646 0.0
H569 H 0.54021 0.38798 0.44023 0.0
H570 H 0.51382 0.35673 0.39881 0.0
H571 H 0.55234 0.42988 0.44969 0.0
H572 H 0.54327 0.45016 0.50177 0.0
C573 C 0.54491 0.91521 0.77555 0.0
C574 C 0.55252 0.92202 0.85037 0.0
C575 C 0.55108 0.9642 0.84229 0.0
C576 C 0.53932 0.95539 0.77002 0.0
N577 N 0.52194 0.92033 0.67041 0.0
N578 N 0.55932 0.95117 0.95762 0.0
C579 C 0.53577 0.9305 0.73669 0.0
C580 C 0.5549 0.94615 0.88436 0.0
N581 N 0.54637 0.89408 0.74182 0.0
N582 N 0.55867 0.98998 0.87106 0.0
H583 H 0.5623 0.9386 0.99113 0.0
H584 H 0.5577 0.96653 0.98596 0.0
H585 H 0.55595 0.00392 0.84298 0.0
H586 H 0.57009 0.99853 0.92026 0.0
H587 H 0.54373 0.88979 0.6862 0.0
H588 H 0.55263 0.88235 0.76923 0.0
H589 H 0.51622 0.9009 0.64706 0.0
H590 H 0.51405 0.93021 0.64097 0.0
C591 C 0.60149 0.50115 0.84888 0.0
C592 C 0.61304 0.52442 0.89946 0.0
C593 C 0.58578 0.54115 0.84243 0.0
C594 C 0.57283 0.51728 0.79273 0.0
N595 N 0.56631 0.47277 0.75412 0.0
N596 N 0.60942 0.56087 0.95962 0.0
C597 C 0.57965 0.49641 0.79858 0.0
C598 C 0.60271 0.54233 0.90142 0.0
N599 N 0.61236 0.48453 0.84657 0.0
N600 N 0.58364 0.5637 0.83162 0.0
H601 H 0.6218 0.56221 0.00433 0.0
H602 H 0.60036 0.57273 0.96658 0.0
H603 H 0.57069 0.56436 0.79192 0.0
H604 H 0.59594 0.58259 0.8609 0.0
H605 H 0.6072 0.46904 0.80593 0.0
H606 H 0.6278 0.48723 0.88396 0.0
H607 H 0.56877 0.45597 0.76009 0.0
H608 H 0.55165 0.46918 0.71324 0.0
C609 C 0.10081 0.6309 0.88246 0.0
C610 C 0.09085 0.64935 0.8839 0.0
C611 C 0.05699 0.6213 0.78392 0.0
C612 C 0.06713 0.60305 0.78283 0.0
N613 N 0.10345 0.59489 0.81436 0.0
N614 N 0.06395 0.66584 0.82631 0.0
C615 C 0.09073 0.60946 0.82656 0.0
C616 C 0.07035 0.64575 0.83131 0.0
N617 N 0.11863 0.63275 0.93689 0.0
N618 N 0.03396 0.61467 0.74237 0.0
H619 H 0.0734 0.68391 0.86034 0.0
H620 H 0.05101 0.66568 0.78498 0.0
H621 H 0.02446 0.59758 0.70508 0.0
H622 H 0.0236 0.6253 0.7472 0.0
H623 H 0.12415 0.61797 0.9426 0.0
H624 H 0.12612 0.64768 0.98024 0.0
H625 H 0.12214 0.60017 0.84005 0.0
H626 H 0.0966 0.57924 0.7729 0.0
C627 C 0.48408 0.10581 0.84546 0.0
C628 C 0.49447 0.10755 0.91729 0.0
C629 C 0.52125 0.08788 0.87499 0.0
C630 C 0.50604 0.08038 0.80722 0.0
N631 N 0.48641 0.09617 0.71877 0.0
N632 N 0.52445 0.10211 0.00119 0.0
C633 C 0.49151 0.09369 0.78921 0.0
C634 C 0.51408 0.0998 0.93208 0.0
N635 N 0.4663 0.11471 0.83167 0.0
N636 N 0.54309 0.08449 0.88343 0.0
H637 H 0.52004 0.11113 0.0444 0.0
H638 H 0.53622 0.09368 0.01641 0.0
H639 H 0.54948 0.07739 0.84053 0.0
H640 H 0.55656 0.09168 0.92942 0.0
H641 H 0.45543 0.11099 0.78205 0.0
H642 H 0.46151 0.12488 0.87121 0.0
H643 H 0.47735 0.10712 0.70184 0.0
H644 H 0.4947 0.09044 0.67775 0.0
C645 C 0.38615 0.45645 0.94878 0.0
C646 C 0.36285 0.42991 0.94088 0.0
C647 C 0.38398 0.41504 0.85295 0.0
C648 C 0.40537 0.44248 0.85302 0.0
N649 N 0.42385 0.49039 0.89134 0.0
N650 N 0.3375 0.38527 0.87556 0.0
C651 C 0.40572 0.46355 0.89835 0.0
C652 C 0.36114 0.40956 0.89001 0.0
N653 N 0.3902 0.47454 0.00592 0.0
N654 N 0.38596 0.39405 0.82016 0.0
H655 H 0.32011 0.38074 0.90055 0.0
H656 H 0.33445 0.37082 0.83383 0.0
H657 H 0.40302 0.39705 0.79564 0.0
H658 H 0.37204 0.37352 0.82436 0.0
H659 H 0.40816 0.49308 0.01779 0.0
H660 H 0.37688 0.46992 0.04569 0.0
H661 H 0.42303 0.50651 0.91824 0.0
H662 H 0.43799 0.49666 0.85346 0.0
C663 C 0.92234 0.42822 0.88237 0.0
C664 C 0.91515 0.40057 0.86466 0.0
C665 C 0.9316 0.41209 0.74554 0.0
C666 C 0.94337 0.44015 0.76962 0.0
N667 N 0.93526 0.47205 0.83758 0.0
N668 N 0.90959 0.36505 0.7767 0.0
C669 C 0.934 0.44735 0.83077 0.0
C670 C 0.91838 0.39206 0.79477 0.0
N671 N 0.91995 0.43673 0.94992 0.0
N672 N 0.93159 0.40478 0.67482 0.0
H673 H 0.89841 0.34981 0.80994 0.0
H674 H 0.91406 0.3578 0.73023 0.0
H675 H 0.93821 0.41914 0.63689 0.0
H676 H 0.92213 0.38467 0.65207 0.0
H677 H 0.92784 0.45725 0.96764 0.0
H678 H 0.91201 0.42363 0.99029 0.0
H679 H 0.92683 0.47777 0.87818 0.0
H680 H 0.9415 0.48509 0.79656 0.0
C681 C 0.90413 0.51656 0.73078 0.0
C682 C 0.91123 0.53024 0.80077 0.0
C683 C 0.95838 0.54303 0.7932 0.0
C684 C 0.95161 0.53058 0.72182 0.0
N685 N 0.91797 0.4996 0.6289 0.0
N686 N 0.94287 0.54965 0.90644 0.0
C687 C 0.92433 0.51523 0.69279 0.0
C688 C 0.93763 0.54101 0.83474 0.0
N689 N 0.87843 0.50598 0.69986 0.0
N690 N 0.9848 0.55808 0.81972 0.0
H691 H 0.9283 0.54913 0.93832 0.0
H692 H 0.96099 0.55515 0.93589 0.0
H693 H 0.00028 0.55907 0.79131 0.0
H694 H 0.99152 0.57069 0.8676 0.0
H695 H 0.87252 0.49843 0.64615 0.0
H696 H 0.8631 0.50578 0.72786 0.0
H697 H 0.8983 0.4862 0.60712 0.0
H698 H 0.93254 0.49835 0.60047 0.0
C699 C 0.36375 0.91567 0.78952 0.0
C700 C 0.36616 0.92495 0.86289 0.0
C701 C 0.4 0.97105 0.83774 0.0
C702 C 0.40231 0.96009 0.77067 0.0
N703 N 0.38509 0.92304 0.67763 0.0
N704 N 0.3861 0.96189 0.95781 0.0
C705 C 0.38327 0.93286 0.74408 0.0
C706 C 0.38357 0.95298 0.88697 0.0
N707 N 0.34311 0.89027 0.76438 0.0
N708 N 0.41434 0.99871 0.8546 0.0
H709 H 0.37448 0.94941 0.9959 0.0
H710 H 0.40085 0.9813 0.9799 0.0
H711 H 0.42656 0.01208 0.81859 0.0
H712 H 0.41208 0.00841 0.90033 0.0
H713 H 0.33896 0.88286 0.7104 0.0
H714 H 0.32865 0.87754 0.79727 0.0
H715 H 0.37396 0.90251 0.6582 0.0
H716 H 0.39855 0.9356 0.64254 0.0
C717 C 0.49024 0.37503 0.83436 0.0
C718 C 0.46462 0.35501 0.85325 0.0
C719 C 0.44229 0.36511 0.75416 0.0
C720 C 0.46778 0.38775 0.74201 0.0
N721 N 0.51558 0.40664 0.74752 0.0
N722 N 0.41732 0.3249 0.81891 0.0
C723 C 0.49165 0.38996 0.77441 0.0
C724 C 0.44097 0.34799 0.80874 0.0
N725 N 0.51299 0.38075 0.87596 0.0
N726 N 0.41925 0.36079 0.71669 0.0
H727 H 0.4158 0.3122 0.85899 0.0
H728 H 0.39979 0.31701 0.7845 0.0
H729 H 0.4192 0.36943 0.66909 0.0
H730 H 0.39998 0.34817 0.73198 0.0
H731 H 0.53202 0.39724 0.86996 0.0
H732 H 0.5126 0.36958 0.91894 0.0
H733 H 0.53363 0.40766 0.76437 0.0
H734 H 0.51649 0.41726 0.70277 0.0
C735 C 0.07074 0.43136 0.89193 0.0
C736 C 0.09131 0.45233 0.9408 0.0
C737 C 0.09012 0.48671 0.86986 0.0
C738 C 0.066 0.46608 0.83097 0.0
N739 N 0.03158 0.41833 0.80947 0.0
N740 N 0.11746 0.50048 0.98279 0.0
C741 C 0.05594 0.43817 0.84226 0.0
C742 C 0.10045 0.48021 0.93121 0.0
N743 N 0.0655 0.40507 0.89278 0.0
N744 N 0.10315 0.51253 0.84807 0.0
H745 H 0.12442 0.49679 0.03104 0.0
H746 H 0.12237 0.52079 0.98097 0.0
H747 H 0.09643 0.51774 0.80185 0.0
H748 H 0.12206 0.52774 0.87113 0.0
H749 H 0.05237 0.38942 0.85416 0.0
H750 H 0.07635 0.39957 0.92781 0.0
H751 H 0.02203 0.39813 0.8224 0.0
H752 H 0.0198 0.42237 0.77358 0.0
C753 C 0.61062 0.12101 0.80762 0.0
C754 C 0.62085 0.11609 0.87233 0.0
C755 C 0.60253 0.06833 0.82765 0.0
C756 C 0.58974 0.07231 0.76643 0.0
N757 N 0.57896 0.10193 0.70137 0.0
N758 N 0.6197 0.08339 0.95193 0.0
C759 C 0.59273 0.09845 0.75776 0.0
C760 C 0.61464 0.0892 0.88486 0.0
N761 N 0.61928 0.14723 0.79162 0.0
N762 N 0.60421 0.0452 0.83042 0.0
H763 H 0.62767 0.09799 0.99617 0.0
H764 H 0.61323 0.06352 0.96504 0.0
H765 H 0.59581 0.02926 0.78961 0.0
H766 H 0.61593 0.04288 0.87079 0.0
H767 H 0.61483 0.15214 0.74181 0.0
H768 H 0.63294 0.16434 0.82572 0.0
H769 H 0.57778 0.11958 0.69761 0.0
H770 H 0.56721 0.08659 0.66055 0.0
C771 C 0.5056 0.60578 0.77905 0.0
C772 C 0.51329 0.61094 0.85384 0.0
C773 C 0.52688 0.57649 0.84846 0.0
C774 C 0.51785 0.56998 0.77324 0.0
N775 N 0.50948 0.58683 0.66436 0.0
N776 N 0.53948 0.60814 0.95442 0.0
C777 C 0.51081 0.58738 0.73742 0.0
C778 C 0.52694 0.5988 0.88638 0.0
N779 N 0.49258 0.61782 0.74821 0.0
N780 N 0.53376 0.56038 0.88571 0.0
H781 H 0.53879 0.62343 0.98601 0.0
H782 H 0.55271 0.6025 0.97723 0.0
H783 H 0.53619 0.54485 0.86203 0.0
H784 H 0.53579 0.56142 0.94162 0.0
H785 H 0.48346 0.61232 0.69578 0.0
H786 H 0.48963 0.6323 0.77675 0.0
H787 H 0.50649 0.60063 0.63632 0.0
H788 H 0.51511 0.57532 0.63244 0.0
C789 C 0.46767 0.05802 0.35879 0.0
C790 C 0.47586 0.08509 0.38632 0.0
C791 C 0.50081 0.08064 0.4904 0.0
C792 C 0.49206 0.05332 0.46323 0.0
N793 N 0.46057 0.01369 0.38411 0.0
N794 N 0.49491 0.12014 0.48511 0.0
C795 C 0.47323 0.04128 0.40165 0.0
C796 C 0.49066 0.09572 0.45462 0.0
N797 N 0.45612 0.04872 0.28983 0.0
N798 N 0.52 0.09276 0.54731 0.0
H799 H 0.48785 0.13161 0.4597 0.0
H800 H 0.50326 0.12778 0.5377 0.0
H801 H 0.52771 0.0824 0.57541 0.0
H802 H 0.52948 0.11353 0.56412 0.0
H803 H 0.45281 0.03036 0.26445 0.0
H804 H 0.45208 0.06032 0.25524 0.0
H805 H 0.44462 0.00338 0.34426 0.0
H806 H 0.46413 0.00076 0.41436 0.0
C807 C 0.39853 0.49012 0.4161 0.0
C808 C 0.39139 0.47197 0.3534 0.0
C809 C 0.42706 0.46208 0.38711 0.0
C810 C 0.43273 0.47844 0.45254 0.0
N811 N 0.43012 0.514 0.52144 0.0
N812 N 0.40324 0.44733 0.2679 0.0
C813 C 0.42068 0.4947 0.46403 0.0
C814 C 0.40732 0.46029 0.33498 0.0
N815 N 0.38319 0.50163 0.43153 0.0
N816 N 0.43968 0.44732 0.37665 0.0
H817 H 0.38879 0.44574 0.22878 0.0
H818 H 0.41554 0.44026 0.24882 0.0
H819 H 0.45523 0.44944 0.41255 0.0
H820 H 0.4342 0.43236 0.33428 0.0
H821 H 0.38531 0.51256 0.48024 0.0
H822 H 0.36739 0.49927 0.39609 0.0
H823 H 0.4238 0.52815 0.52974 0.0
H824 H 0.44609 0.5174 0.55783 0.0
C825 C 0.93549 0.41 0.4085 0.0
C826 C 0.94713 0.40463 0.34937 0.0
C827 C 0.99143 0.44262 0.39622 0.0
C828 C 0.97885 0.4514 0.44586 0.0
N829 N 0.93852 0.44367 0.49954 0.0
N830 N 0.9862 0.41617 0.28464 0.0
C831 C 0.95085 0.43484 0.45347 0.0
C832 C 0.97523 0.4207 0.34328 0.0
N833 N 0.90968 0.39138 0.42102 0.0
N834 N 0.01893 0.45544 0.39979 0.0
H835 H 0.97515 0.40017 0.24478 0.0
H836 H 0.00587 0.42938 0.27287 0.0
H837 H 0.03122 0.47142 0.4386 0.0
H838 H 0.0294 0.44854 0.36944 0.0
H839 H 0.9008 0.39278 0.46698 0.0
H840 H 0.89805 0.3731 0.38849 0.0
H841 H 0.91768 0.43411 0.50077 0.0
H842 H 0.94891 0.46154 0.53398 0.0
C843 C 0.59111 0.93509 0.37415 0.0
C844 C 0.56756 0.9104 0.34641 0.0
C845 C 0.54234 0.91642 0.44035 0.0
C846 C 0.56554 0.94173 0.46547 0.0
N847 N 0.61416 0.96857 0.47632 0.0
N848 N 0.5236 0.87337 0.36628 0.0
C849 C 0.59072 0.94869 0.43958 0.0
C850 C 0.54409 0.89959 0.38427 0.0
N851 N 0.61318 0.94675 0.3357 0.0
N852 N 0.51838 0.90926 0.46799 0.0
H853 H 0.52462 0.86057 0.32589 0.0
H854 H 0.50686 0.86356 0.39542 0.0
H855 H 0.51705 0.92068 0.51157 0.0
H856 H 0.49994 0.89286 0.44626 0.0
H857 H 0.62957 0.9663 0.34971 0.0
H858 H 0.61422 0.93809 0.28631 0.0
H859 H 0.63313 0.97297 0.46222 0.0
H860 H 0.6147 0.97808 0.52601 0.0
C861 C 0.65203 0.59638 0.38634 0.0
C862 C 0.65551 0.57532 0.3534 0.0
C863 C 0.6224 0.54284 0.42745 0.0
C864 C 0.61444 0.56212 0.44643 0.0
N865 N 0.62112 0.60759 0.44137 0.0
N866 N 0.64057 0.52692 0.33608 0.0
C867 C 0.62941 0.58923 0.42649 0.0
C868 C 0.64015 0.54815 0.37304 0.0
N869 N 0.67027 0.62311 0.37881 0.0
N870 N 0.61257 0.51923 0.46078 0.0
H871 H 0.65185 0.52919 0.29251 0.0
H872 H 0.62747 0.50651 0.34402 0.0
H873 H 0.59981 0.51506 0.50193 0.0
H874 H 0.61945 0.50547 0.45313 0.0
H875 H 0.67004 0.63943 0.40647 0.0
H876 H 0.68722 0.62884 0.35049 0.0
H877 H 0.6295 0.62657 0.42059 0.0
H878 H 0.60464 0.60319 0.47037 0.0
C879 C 0.12077 0.66401 0.42997 0.0
C880 C 0.1065 0.67549 0.39592 0.0
C881 C 0.074 0.65808 0.48618 0.0
C882 C 0.08309 0.63988 0.50379 0.0
N883 N 0.11827 0.62879 0.50351 0.0
N884 N 0.06711 0.68083 0.38922 0.0
C885 C 0.10782 0.64424 0.47993 0.0
C886 C 0.08267 0.67228 0.42407 0.0
N887 N 0.14657 0.67214 0.41484 0.0
N888 N 0.05715 0.66174 0.52812 0.0
H889 H 0.07135 0.68955 0.34051 0.0
H890 H 0.04837 0.67656 0.40512 0.0
H891 H 0.05268 0.65371 0.57774 0.0
H892 H 0.05115 0.67599 0.51889 0.0
H893 H 0.1587 0.666 0.44167 0.0
H894 H 0.1567 0.68715 0.38002 0.0
H895 H 0.13443 0.62838 0.48198 0.0
H896 H 0.10996 0.61574 0.54399 0.0
loop_
_geom_bond_atom_site_label_1
_geom_bond_atom_site_label_2
_geom_bond_distance
_geom_bond_site_symmetry_2
_ccdc_geom_bond_type
H0 C27 0.929 . S
N1 C26 1.433 . S
N1 C32 1.435 . S
N1 C38 1.423 . S
H2 C28 0.930 . S
H3 C31 0.931 . S
H4 C30 0.929 . S
H5 C33 0.930 . S
H6 C34 0.932 . S
H7 C37 0.929 . S
H8 C36 0.931 1_556 S
H9 C39 0.929 . S
H10 C43 0.932 . S
H11 C40 0.931 . S
H12 C42 0.929 . S
H13 C45 0.929 . S
H14 C46 0.930 . S
H15 C48 0.929 . S
H16 C49 0.931 . S
H17 C51 0.930 . S
H18 C52 0.932 . S
H19 C54 0.931 1_556 S
H20 C55 0.929 . S
H21 C57 0.929 . S
H22 C58 0.931 . S
H23 C60 0.929 . S
N24 C44 1.433 . S
N24 C50 1.435 . S
N24 C56 1.423 . S
H25 C61 0.932 . S
C26 N1 1.433 . S
C26 C27 1.363 . S
C26 C31 1.370 . S
C27 H0 0.929 . S
C27 C26 1.363 . S
C27 C28 1.385 . S
C28 H2 0.930 . S
C28 C27 1.385 . S
C28 C29 1.357 . S
C29 C28 1.357 . S
C29 C30 1.406 . S
C30 H4 0.929 . S
C30 C29 1.406 . S
C30 C31 1.391 . S
C31 H3 0.931 . S
C31 C26 1.370 . S
C31 C30 1.391 . S
C32 N1 1.435 . S
C32 C33 1.358 . S
C32 C37 1.371 . S
C33 H5 0.930 . S
C33 C32 1.358 . S
C33 C34 1.405 . S
C34 H6 0.932 . S
C34 C33 1.405 . S
C34 C35 1.383 . S
C35 C34 1.383 . S
C35 C36 1.393 . S
C36 H8 0.931 1_554 S
C36 C35 1.393 . S
C36 C37 1.382 . S
C37 H7 0.929 . S
C37 C32 1.371 . S
C37 C36 1.382 . S
C38 N1 1.423 . S
C38 C39 1.362 . S
C38 C43 1.388 . S
C39 H9 0.929 . S
C39 C38 1.362 . S
C39 C40 1.376 . S
C40 H11 0.931 . S
C40 C39 1.376 . S
C40 C41 1.396 . S
C41 C40 1.396 . S
C41 C42 1.348 . S
C41 C59 1.472 . S
C42 H12 0.929 . S
C42 C41 1.348 . S
C42 C43 1.443 . S
C43 H10 0.932 . S
C43 C38 1.388 . S
C43 C42 1.443 . S
C44 N24 1.433 . S
C44 C45 1.363 . S
C44 C49 1.370 . S
C45 H13 0.929 . S
C45 C44 1.363 . S
C45 C46 1.385 . S
C46 H14 0.930 . S
C46 C45 1.385 . S
C46 C47 1.357 . S
C47 C46 1.357 . S
C47 C48 1.406 . S
C48 H15 0.929 . S
C48 C47 1.406 . S
C48 C49 1.391 . S
C49 H16 0.931 . S
C49 C44 1.370 . S
C49 C48 1.391 . S
C50 N24 1.435 . S
C50 C51 1.358 . S
C50 C55 1.371 . S
C51 H17 0.930 . S
C51 C50 1.358 . S
C51 C52 1.405 . S
C52 H18 0.932 . S
C52 C51 1.405 . S
C52 C53 1.383 . S
C53 C52 1.383 . S
C53 C54 1.393 . S
C54 H19 0.931 1_554 S
C54 C53 1.393 . S
C54 C55 1.382 . S
C55 H20 0.929 . S
C55 C50 1.371 . S
C55 C54 1.382 . S
C56 N24 1.423 . S
C56 C57 1.362 . S
C56 C61 1.388 . S
C57 H21 0.929 . S
C57 C56 1.362 . S
C57 C58 1.376 . S
C58 H22 0.931 . S
C58 C57 1.376 . S
C58 C59 1.396 . S
C59 C41 1.472 . S
C59 C58 1.396 . S
C59 C60 1.348 . S
C60 H23 0.929 . S
C60 C59 1.348 . S
C60 C61 1.443 . S
C61 H25 0.932 . S
C61 C56 1.388 . S
C61 C60 1.443 . S
H62 C89 0.929 . S
N63 C88 1.433 . S
N63 C94 1.435 . S
N63 C100 1.423 . S
H64 C90 0.930 . S
H65 C93 0.931 . S
H66 C92 0.929 . S
H67 C95 0.930 . S
H68 C96 0.932 . S
H69 C99 0.929 . S
H70 C98 0.931 . S
H71 C101 0.929 . S
H72 C105 0.932 . S
H73 C102 0.931 . S
H74 C104 0.929 1_556 S
H75 C107 0.929 . S
H76 C108 0.930 . S
H77 C110 0.929 . S
H78 C111 0.931 . S
H79 C113 0.930 . S
H80 C114 0.932 1_554 S
H81 C116 0.931 . S
H82 C117 0.929 . S
H83 C119 0.929 . S
H84 C120 0.931 . S
H85 C122 0.925 1_556 S
N86 C106 1.433 . S
N86 C112 1.435 . S
N86 C118 1.423 . S
H87 C123 0.932 . S
C88 N63 1.433 . S
C88 C89 1.363 . S
C88 C93 1.370 . S
C89 H62 0.929 . S
C89 C88 1.363 . S
C89 C90 1.385 . S
C90 H64 0.930 . S
C90 C89 1.385 . S
C90 C91 1.357 . S
C91 C90 1.357 . S
C91 C92 1.406 . S
C92 H66 0.929 . S
C92 C91 1.406 . S
C92 C93 1.391 . S
C93 H65 0.931 . S
C93 C88 1.370 . S
C93 C92 1.391 . S
C94 N63 1.435 . S
C94 C95 1.358 . S
C94 C99 1.371 1_554 S
C95 H67 0.930 . S
C95 C94 1.358 . S
C95 C96 1.405 1_554 S
C96 H68 0.932 . S
C96 C95 1.405 1_556 S
C96 C97 1.383 . S
C97 C96 1.383 . S
C97 C98 1.393 . S
C98 H70 0.931 . S
C98 C97 1.393 . S
C98 C99 1.382 . S
C99 H69 0.929 . S
C99 C94 1.371 1_556 S
C99 C98 1.382 . S
C100 N63 1.423 . S
C100 C101 1.362 . S
C100 C105 1.388 . S
C101 H71 0.929 . S
C101 C100 1.362 . S
C101 C102 1.376 . S
C102 H73 0.931 . S
C102 C101 1.376 . S
C102 C103 1.396 . S
C103 C102 1.396 . S
C103 C104 1.348 . S
C103 C121 1.472 . S
C104 H74 0.929 1_554 S
C104 C103 1.348 . S
C104 C105 1.443 . S
C105 H72 0.932 . S
C105 C100 1.388 . S
C105 C104 1.443 . S
C106 N86 1.433 . S
C106 C107 1.363 . S
C106 C111 1.370 . S
C107 H75 0.929 . S
C107 C106 1.363 . S
C107 C108 1.385 . S
C108 H76 0.930 . S
C108 C107 1.385 . S
C108 C109 1.357 . S
C109 C108 1.357 . S
C109 C110 1.406 . S
C110 H77 0.929 . S
C110 C109 1.406 . S
C110 C111 1.391 . S
C111 H78 0.931 . S
C111 C106 1.370 . S
C111 C110 1.391 . S
C112 N86 1.435 . S
C112 C113 1.358 . S
C112 C117 1.371 1_554 S
C113 H79 0.930 . S
C113 C112 1.358 . S
C113 C114 1.396 1_554 S
C114 H80 0.932 1_556 S
C114 C113 1.396 1_556 S
C114 C115 1.393 . S
C115 C114 1.393 . S
C115 C116 1.393 . S
C116 H81 0.931 . S
C116 C115 1.393 . S
C116 C117 1.382 . S
C117 H82 0.929 . S
C117 C112 1.371 1_556 S
C117 C116 1.382 . S
C118 N86 1.423 . S
C118 C119 1.362 . S
C118 C123 1.388 . S
C119 H83 0.929 . S
C119 C118 1.362 . S
C119 C120 1.376 . S
C120 H84 0.931 . S
C120 C119 1.376 . S
C120 C121 1.396 . S
C121 C103 1.472 . S
C121 C120 1.396 . S
C121 C122 1.348 . S
C122 H85 0.925 1_554 S
C122 C121 1.348 . S
C122 C123 1.443 . S
C123 H87 0.932 . S
C123 C118 1.388 . S
C123 C122 1.443 . S
H124 C151 0.929 . S
N125 C150 1.433 1_554 S
N125 C156 1.435 . S
N125 C162 1.423 . S
H126 C152 0.930 . S
H127 C155 0.931 . S
H128 C154 0.929 . S
H129 C157 0.930 . S
H130 C158 0.932 . S
H131 C161 0.929 . S
H132 C160 0.931 . S
H133 C163 0.929 1_556 S
H134 C167 0.932 . S
H135 C164 0.931 1_556 S
H136 C166 0.929 . S
H137 C169 0.929 . S
H138 C170 0.930 . S
H139 C172 0.929 . S
H140 C173 0.931 . S
H141 C175 0.930 . S
H142 C176 0.932 . S
H143 C178 0.931 . S
H144 C179 0.929 . S
H145 C181 0.929 1_556 S
H146 C182 0.931 1_556 S
H147 C184 0.929 . S
N148 C168 1.433 1_554 S
N148 C174 1.435 . S
N148 C180 1.423 . S
H149 C185 0.932 . S
C150 N125 1.433 1_556 S
C150 C151 1.363 . S
C150 C155 1.370 . S
C151 H124 0.929 . S
C151 C150 1.363 . S
C151 C152 1.385 . S
C152 H126 0.930 . S
C152 C151 1.385 . S
C152 C153 1.357 . S
C153 C152 1.357 . S
C153 C154 1.406 . S
C154 H128 0.929 . S
C154 C153 1.406 . S
C154 C155 1.391 . S
C155 H127 0.931 . S
C155 C150 1.370 . S
C155 C154 1.391 . S
C156 N125 1.435 . S
C156 C157 1.358 . S
C156 C161 1.371 . S
C157 H129 0.930 . S
C157 C156 1.358 . S
C157 C158 1.405 . S
C158 H130 0.932 . S
C158 C157 1.405 . S
C158 C159 1.383 . S
C159 C158 1.383 . S
C159 C160 1.393 . S
C160 H132 0.931 . S
C160 C159 1.393 . S
C160 C161 1.382 . S
C161 H131 0.929 . S
C161 C156 1.371 . S
C161 C160 1.382 . S
C162 N125 1.423 . S
C162 C163 1.362 . S
C162 C167 1.388 . S
C163 H133 0.929 1_554 S
C163 C162 1.362 . S
C163 C164 1.376 . S
C164 H135 0.931 1_554 S
C164 C163 1.376 . S
C164 C165 1.396 . S
C165 C164 1.396 . S
C165 C166 1.348 . S
C165 C183 1.472 . S
C166 H136 0.929 . S
C166 C165 1.348 . S
C166 C167 1.443 . S
C167 H134 0.932 . S
C167 C162 1.388 . S
C167 C166 1.443 . S
C168 N148 1.433 1_556 S
C168 C169 1.363 . S
C168 C173 1.370 . S
C169 H137 0.929 . S
C169 C168 1.363 . S
C169 C170 1.385 . S
C170 H138 0.930 . S
C170 C169 1.385 . S
C170 C171 1.357 . S
C171 C170 1.357 . S
C171 C172 1.406 . S
C172 H139 0.929 . S
C172 C171 1.406 . S
C172 C173 1.391 . S
C173 H140 0.931 . S
C173 C168 1.370 . S
C173 C172 1.391 . S
C174 N148 1.435 . S
C174 C175 1.358 . S
C174 C179 1.371 . S
C175 H141 0.930 . S
C175 C174 1.358 . S
C175 C176 1.405 . S
C176 H142 0.932 . S
C176 C175 1.405 . S
C176 C177 1.383 . S
C177 C176 1.383 . S
C177 C178 1.393 . S
C178 H143 0.931 . S
C178 C177 1.393 . S
C178 C179 1.382 . S
C179 H144 0.929 . S
C179 C174 1.371 . S
C179 C178 1.382 . S
C180 N148 1.423 . S
C180 C181 1.362 . S
C180 C185 1.388 . S
C181 H145 0.929 1_554 S
C181 C180 1.362 . S
C181 C182 1.376 . S
C182 H146 0.931 1_554 S
C182 C181 1.376 . S
C182 C183 1.396 . S
C183 C165 1.472 . S
C183 C182 1.396 . S
C183 C184 1.348 . S
C184 H147 0.929 . S
C184 C183 1.348 . S
C184 C185 1.443 . S
C185 H149 0.932 . S
C185 C180 1.388 . S
C185 C184 1.443 . S
H186 C213 0.929 . S
N187 C212 1.433 . S
N187 C218 1.435 1_554 S
N187 C224 1.423 . S
H188 C214 0.930 . S
H189 C217 0.931 . S
H190 C216 0.929 . S
H191 C219 0.941 . S
H192 C220 0.932 . S
H193 C223 0.929 . S
H194 C222 0.931 . S
H195 C225 0.929 . S
H196 C229 0.932 . S
H197 C226 0.931 . S
H198 C228 0.929 . S
H199 C231 0.929 . S
H200 C232 0.930 . S
H201 C234 0.929 . S
H202 C235 0.931 . S
H203 C237 0.930 . S
H204 C238 0.932 . S
H205 C240 0.931 . S
H206 C241 0.929 . S
H207 C243 0.929 . S
H208 C244 0.931 . S
H209 C246 0.929 . S
N210 C230 1.433 . S
N210 C236 1.435 1_554 S
N210 C242 1.423 . S
H211 C247 0.932 . S
C212 N187 1.433 . S
C212 C213 1.363 . S
C212 C217 1.370 . S
C213 H186 0.929 . S
C213 C212 1.363 . S
C213 C214 1.385 . S
C214 H188 0.930 . S
C214 C213 1.385 . S
C214 C215 1.357 . S
C215 C214 1.357 . S
C215 C216 1.406 . S
C216 H190 0.929 . S
C216 C215 1.406 . S
C216 C217 1.391 . S
C217 H189 0.931 . S
C217 C212 1.370 . S
C217 C216 1.391 . S
C218 N187 1.435 1_556 S
C218 C219 1.358 . S
C218 C223 1.371 . S
C219 H191 0.941 . S
C219 C218 1.358 . S
C219 C220 1.405 . S
C220 H192 0.932 . S
C220 C219 1.405 . S
C220 C221 1.383 . S
C221 C220 1.383 . S
C221 C222 1.393 . S
C222 H194 0.931 . S
C222 C221 1.393 . S
C222 C223 1.382 . S
C223 H193 0.929 . S
C223 C218 1.371 . S
C223 C222 1.382 . S
C224 N187 1.423 . S
C224 C225 1.362 . S
C224 C229 1.388 1_554 S
C225 H195 0.929 . S
C225 C224 1.362 . S
C225 C226 1.376 . S
C226 H197 0.931 . S
C226 C225 1.376 . S
C226 C227 1.396 . S
C227 C226 1.396 . S
C227 C228 1.348 1_554 S
C227 C245 1.472 . S
C228 H198 0.929 . S
C228 C227 1.348 1_556 S
C228 C229 1.443 . S
C229 H196 0.932 . S
C229 C224 1.388 1_556 S
C229 C228 1.443 . S
C230 N210 1.433 . S
C230 C231 1.363 . S
C230 C235 1.370 . S
C231 H199 0.929 . S
C231 C230 1.363 . S
C231 C232 1.385 . S
C232 H200 0.930 . S
C232 C231 1.385 . S
C232 C233 1.357 . S
C233 C232 1.357 . S
C233 C234 1.406 . S
C234 H201 0.929 . S
C234 C233 1.406 . S
C234 C235 1.391 . S
C235 H202 0.931 . S
C235 C230 1.370 . S
C235 C234 1.391 . S
C236 N210 1.435 1_556 S
C236 C237 1.358 . S
C236 C241 1.371 . S
C237 H203 0.930 . S
C237 C236 1.358 . S
C237 C238 1.405 . S
C238 H204 0.932 . S
C238 C237 1.405 . S
C238 C239 1.383 . S
C239 C238 1.383 . S
C239 C240 1.393 . S
C240 H205 0.931 . S
C240 C239 1.393 . S
C240 C241 1.382 . S
C241 H206 0.929 . S
C241 C236 1.371 . S
C241 C240 1.382 . S
C242 N210 1.423 . S
C242 C243 1.362 . S
C242 C247 1.388 1_554 S
C243 H207 0.929 . S
C243 C242 1.362 . S
C243 C244 1.376 . S
C244 H208 0.931 . S
C244 C243 1.376 . S
C244 C245 1.396 . S
C245 C227 1.472 . S
C245 C244 1.396 . S
C245 C246 1.348 1_554 S
C246 H209 0.929 . S
C246 C245 1.348 1_556 S
C246 C247 1.443 . S
C247 H211 0.932 . S
C247 C242 1.388 1_556 S
C247 C246 1.443 . S
H248 C275 0.929 . S
N249 C274 1.433 . S
N249 C280 1.435 . S
N249 C286 1.423 . S
H250 C276 0.930 . S
H251 C279 0.931 . S
H252 C278 0.929 . S
H253 C281 0.930 . S
H254 C282 0.932 . S
H255 C285 0.929 . S
H256 C284 0.931 . S
H257 C287 0.929 . S
H258 C291 0.932 . S
H259 C288 0.931 . S
H260 C290 0.929 . S
H261 C293 0.929 . S
H262 C294 0.930 . S
H263 C296 0.929 . S
H264 C297 0.931 . S
H265 C299 0.930 . S
H266 C300 0.932 . S
H267 C302 0.931 . S
H268 C303 0.929 1_556 S
H269 C305 0.929 . S
H270 C306 0.931 . S
H271 C308 0.929 . S
N272 C292 1.433 . S
N272 C298 1.435 . S
N272 C304 1.423 . S
H273 C309 0.932 . S
C274 N249 1.433 . S
C274 C275 1.363 . S
C274 C279 1.370 . S
C275 H248 0.929 . S
C275 C274 1.363 . S
C275 C276 1.385 . S
C276 H250 0.930 . S
C276 C275 1.385 . S
C276 C277 1.357 . S
C277 C276 1.357 . S
C277 C278 1.406 . S
C278 H252 0.929 . S
C278 C277 1.406 . S
C278 C279 1.391 . S
C279 H251 0.931 . S
C279 C274 1.370 . S
C279 C278 1.391 . S
C280 N249 1.435 . S
C280 C281 1.358 . S
C280 C285 1.371 1_554 S
C281 H253 0.930 . S
C281 C280 1.358 . S
C281 C282 1.405 1_554 S
C282 H254 0.932 . S
C282 C281 1.405 1_556 S
C282 C283 1.383 . S
C283 C282 1.383 . S
C283 C284 1.393 . S
C284 H256 0.931 . S
C284 C283 1.393 . S
C284 C285 1.382 . S
C285 H255 0.929 . S
C285 C280 1.371 1_556 S
C285 C284 1.382 . S
C286 N249 1.423 . S
C286 C287 1.362 . S
C286 C291 1.388 . S
C287 H257 0.929 . S
C287 C286 1.362 . S
C287 C288 1.376 . S
C288 H259 0.931 . S
C288 C287 1.376 . S
C288 C289 1.396 . S
C289 C288 1.396 . S
C289 C290 1.348 . S
C289 C307 1.472 . S
C290 H260 0.929 . S
C290 C289 1.348 . S
C290 C291 1.443 . S
C291 H258 0.932 . S
C291 C286 1.388 . S
C291 C290 1.443 . S
C292 N272 1.433 . S
C292 C293 1.363 . S
C292 C297 1.370 . S
C293 H261 0.929 . S
C293 C292 1.363 . S
C293 C294 1.385 . S
C294 H262 0.930 . S
C294 C293 1.385 . S
C294 C295 1.357 . S
C295 C294 1.357 . S
C295 C296 1.406 . S
C296 H263 0.929 . S
C296 C295 1.406 . S
C296 C297 1.391 . S
C297 H264 0.931 . S
C297 C292 1.370 . S
C297 C296 1.391 . S
C298 N272 1.435 . S
C298 C299 1.358 . S
C298 C303 1.371 . S
C299 H265 0.930 . S
C299 C298 1.358 . S
C299 C300 1.405 . S
C300 H266 0.932 . S
C300 C299 1.405 . S
C300 C301 1.383 1_554 S
C301 C300 1.383 1_556 S
C301 C302 1.393 . S
C302 H267 0.931 . S
C302 C301 1.393 . S
C302 C303 1.382 1_556 S
C303 H268 0.929 1_554 S
C303 C298 1.371 . S
C303 C302 1.382 1_554 S
C304 N272 1.423 . S
C304 C305 1.362 . S
C304 C309 1.388 . S
C305 H269 0.929 . S
C305 C304 1.362 . S
C305 C306 1.376 . S
C306 H270 0.931 . S
C306 C305 1.376 . S
C306 C307 1.396 . S
C307 C289 1.472 . S
C307 C306 1.396 . S
C307 C308 1.348 . S
C308 H271 0.929 . S
C308 C307 1.348 . S
C308 C309 1.443 . S
C309 H273 0.932 . S
C309 C304 1.388 . S
C309 C308 1.443 . S
H310 C337 0.929 . S
N311 C336 1.433 . S
N311 C342 1.435 . S
N311 C348 1.423 . S
H312 C338 0.930 . S
H313 C341 0.931 . S
H314 C340 0.926 1_556 S
H315 C343 0.930 . S
H316 C344 0.932 . S
H317 C347 0.929 . S
H318 C346 0.931 . S
H319 C349 0.929 . S
H320 C353 0.932 . S
H321 C350 0.931 . S
H322 C352 0.929 . S
H323 C355 0.929 . S
H324 C356 0.930 . S
H325 C358 0.929 . S
H326 C359 0.931 . S
H327 C361 0.930 . S
H328 C362 0.932 . S
H329 C364 0.931 . S
H330 C365 0.929 . S
H331 C367 0.929 . S
H332 C368 0.931 . S
H333 C370 0.929 . S
N334 C354 1.433 . S
N334 C360 1.435 . S
N334 C366 1.423 . S
H335 C371 0.932 . S
C336 N311 1.433 . S
C336 C337 1.363 . S
C336 C341 1.370 . S
C337 H310 0.929 . S
C337 C336 1.363 . S
C337 C338 1.385 . S
C338 H312 0.930 . S
C338 C337 1.385 . S
C338 C339 1.357 1_554 S
C339 C338 1.357 1_556 S
C339 C340 1.405 1_556 S
C340 H314 0.926 1_554 S
C340 C339 1.405 1_554 S
C340 C341 1.397 . S
C341 H313 0.931 . S
C341 C336 1.370 . S
C341 C340 1.397 . S
C342 N311 1.435 . S
C342 C343 1.358 . S
C342 C347 1.371 . S
C343 H315 0.930 . S
C343 C342 1.358 . S
C343 C344 1.405 . S
C344 H316 0.932 . S
C344 C343 1.405 . S
C344 C345 1.383 . S
C345 C344 1.383 . S
C345 C346 1.393 . S
C346 H318 0.931 . S
C346 C345 1.393 . S
C346 C347 1.382 . S
C347 H317 0.929 . S
C347 C342 1.371 . S
C347 C346 1.382 . S
C348 N311 1.423 . S
C348 C349 1.362 . S
C348 C353 1.388 . S
C349 H319 0.929 . S
C349 C348 1.362 . S
C349 C350 1.376 . S
C350 H321 0.931 . S
C350 C349 1.376 . S
C350 C351 1.396 . S
C351 C350 1.396 . S
C351 C352 1.348 . S
C351 C369 1.472 . S
C352 H322 0.929 . S
C352 C351 1.348 . S
C352 C353 1.443 . S
C353 H320 0.932 . S
C353 C348 1.388 . S
C353 C352 1.443 . S
C354 N334 1.433 . S
C354 C355 1.363 . S
C354 C359 1.370 . S
C355 H323 0.929 . S
C355 C354 1.363 . S
C355 C356 1.385 . S
C356 H324 0.930 . S
C356 C355 1.385 . S
C356 C357 1.357 1_554 S
C357 C356 1.357 1_556 S
C357 C358 1.406 . S
C358 H325 0.929 . S
C358 C357 1.406 . S
C358 C359 1.391 1_556 S
C359 H326 0.931 . S
C359 C354 1.370 . S
C359 C358 1.391 1_554 S
C360 N334 1.435 . S
C360 C361 1.358 . S
C360 C365 1.371 . S
C361 H327 0.930 . S
C361 C360 1.358 . S
C361 C362 1.405 . S
C362 H328 0.932 . S
C362 C361 1.405 . S
C362 C363 1.383 . S
C363 C362 1.383 . S
C363 C364 1.393 . S
C364 H329 0.931 . S
C364 C363 1.393 . S
C364 C365 1.382 . S
C365 H330 0.929 . S
C365 C360 1.371 . S
C365 C364 1.382 . S
C366 N334 1.423 . S
C366 C367 1.362 . S
C366 C371 1.388 . S
C367 H331 0.929 . S
C367 C366 1.362 . S
C367 C368 1.376 . S
C368 H332 0.931 . S
C368 C367 1.376 . S
C368 C369 1.396 . S
C369 C351 1.472 . S
C369 C368 1.396 . S
C369 C370 1.348 . S
C370 H333 0.929 . S
C370 C369 1.348 . S
C370 C371 1.443 . S
C371 H335 0.932 . S
C371 C366 1.388 . S
C371 C370 1.443 . S
C372 O399 1.312 . S
C372 O400 1.208 . S
C373 O394 1.331 . S
C373 O397 1.244 . S
C374 O396 1.264 . S
C374 O398 1.273 . S
Mg375 O377 1.936 1_455 S
Mg375 O384 2.081 1_455 S
Mg375 O386 2.023 . S
Mg375 O390 2.031 1_455 S
Mg375 O399 2.291 . S
Mg376 O377 1.963 . S
Mg376 O387 1.942 . S
Mg376 O388 1.955 1_655 S
Mg376 O395 1.986 . S
O377 Mg375 1.936 1_655 S
O377 Mg376 1.963 . S
O377 Mg378 1.915 1_655 S
Mg378 O377 1.915 1_455 S
Mg378 O379 1.915 . S
Mg378 O383 2.013 . S
Mg378 O389 2.114 1_455 S
Mg378 O393 2.013 1_455 S
Mg378 O399 2.114 . S
O379 Mg378 1.915 . S
O379 Mg380 1.936 . S
O379 Mg381 1.963 . S
Mg380 O379 1.936 . S
Mg380 O389 2.291 1_455 S
Mg380 O394 2.081 . S
Mg380 O396 2.023 1_455 S
Mg380 O400 2.031 . S
Mg381 O379 1.963 . S
Mg381 O385 1.986 . S
Mg381 O397 1.942 . S
Mg381 O398 1.955 1_455 S
C382 O393 1.191 . S
C382 O395 1.307 . S
O383 Mg378 2.013 . S
O383 C402 1.191 . S
O384 Mg375 2.081 1_655 S
O384 C392 1.331 . S
O385 Mg381 1.986 . S
O385 C402 1.307 . S
O386 Mg375 2.023 . S
O386 C401 1.264 . S
O387 Mg376 1.942 . S
O387 C392 1.244 . S
O388 Mg376 1.955 1_455 S
O388 C401 1.273 . S
O389 Mg378 2.114 1_655 S
O389 Mg380 2.291 1_655 S
O389 C391 1.312 . S
O390 Mg375 2.031 1_655 S
O390 C391 1.208 . S
C391 O389 1.312 . S
C391 O390 1.208 . S
C392 O384 1.331 . S
C392 O387 1.244 . S
O393 Mg378 2.013 1_655 S
O393 C382 1.191 . S
O394 C373 1.331 . S
O394 Mg380 2.081 . S
O395 Mg376 1.986 . S
O395 C382 1.307 . S
O396 C374 1.264 . S
O396 Mg380 2.023 1_655 S
O397 C373 1.244 . S
O397 Mg381 1.942 . S
O398 C374 1.273 . S
O398 Mg381 1.955 1_655 S
O399 C372 1.312 . S
O399 Mg375 2.291 . S
O399 Mg378 2.114 . S
O400 C372 1.208 . S
O400 Mg380 2.031 . S
C401 O386 1.264 . S
C401 O388 1.273 . S
C402 O383 1.191 . S
C402 O385 1.307 . S
C403 O430 1.312 . S
C403 O431 1.208 . S
C404 O425 1.331 . S
C404 O428 1.244 . S
C405 O427 1.264 . S
C405 O429 1.273 . S
Mg406 O408 1.936 1_545 S
Mg406 O415 2.081 1_545 S
Mg406 O417 2.023 . S
Mg406 O421 2.031 1_545 S
Mg406 O430 2.291 . S
Mg407 O408 1.963 . S
Mg407 O418 1.942 . S
Mg407 O419 1.955 1_565 S
Mg407 O426 1.986 . S
O408 Mg406 1.936 1_565 S
O408 Mg407 1.963 . S
O408 Mg409 1.915 1_565 S
Mg409 O408 1.915 1_545 S
Mg409 O410 1.915 . S
Mg409 O414 2.013 . S
Mg409 O420 2.114 1_545 S
Mg409 O424 2.013 1_545 S
Mg409 O430 2.114 . S
O410 Mg409 1.915 . S
O410 Mg411 1.936 . S
O410 Mg412 1.963 . S
Mg411 O410 1.936 . S
Mg411 O420 2.291 1_545 S
Mg411 O425 2.081 . S
Mg411 O427 2.023 1_545 S
Mg411 O431 2.031 . S
Mg412 O410 1.963 . S
Mg412 O416 1.986 . S
Mg412 O428 1.942 . S
Mg412 O429 1.955 1_545 S
C413 O424 1.191 . S
C413 O426 1.307 . S
O414 Mg409 2.013 . S
O414 C433 1.191 . S
O415 Mg406 2.081 1_565 S
O415 C423 1.331 . S
O416 Mg412 1.986 . S
O416 C433 1.307 . S
O417 Mg406 2.023 . S
O417 C432 1.264 . S
O418 Mg407 1.942 . S
O418 C423 1.244 . S
O419 Mg407 1.955 1_545 S
O419 C432 1.273 . S
O420 Mg409 2.114 1_565 S
O420 Mg411 2.291 1_565 S
O420 C422 1.312 . S
O421 Mg406 2.031 1_565 S
O421 C422 1.208 . S
C422 O420 1.312 . S
C422 O421 1.208 . S
C423 O415 1.331 . S
C423 O418 1.244 . S
O424 Mg409 2.013 1_565 S
O424 C413 1.191 . S
O425 C404 1.331 . S
O425 Mg411 2.081 . S
O426 Mg407 1.986 . S
O426 C413 1.307 . S
O427 C405 1.264 . S
O427 Mg411 2.023 1_565 S
O428 C404 1.244 . S
O428 Mg412 1.942 . S
O429 C405 1.273 . S
O429 Mg412 1.955 1_565 S
O430 C403 1.312 . S
O430 Mg406 2.291 . S
O430 Mg409 2.114 . S
O431 C403 1.208 . S
O431 Mg411 2.031 . S
C432 O417 1.264 . S
C432 O419 1.273 . S
C433 O414 1.191 . S
C433 O416 1.307 . S
C434 O461 1.312 . S
C434 O462 1.208 . S
C435 O456 1.331 . S
C435 O459 1.244 . S
C436 O458 1.264 . S
C436 O460 1.273 . S
Mg437 O439 1.936 . S
Mg437 O446 2.081 . S
Mg437 O448 2.023 . S
Mg437 O452 2.031 . S
Mg437 O461 2.291 . S
Mg438 O439 1.963 . S
Mg438 O449 1.942 . S
Mg438 O450 1.955 . S
Mg438 O457 1.986 . S
O439 Mg437 1.936 . S
O439 Mg438 1.963 . S
O439 Mg440 1.915 . S
Mg440 O439 1.915 . S
Mg440 O441 1.915 . S
Mg440 O445 2.013 . S
Mg440 O451 2.114 . S
Mg440 O455 2.013 . S
Mg440 O461 2.114 . S
O441 Mg440 1.915 . S
O441 Mg442 1.936 . S
O441 Mg443 1.963 . S
Mg442 O441 1.936 . S
Mg442 O451 2.291 . S
Mg442 O456 2.081 . S
Mg442 O458 2.023 . S
Mg442 O462 2.031 . S
Mg443 O441 1.963 . S
Mg443 O447 1.986 . S
Mg443 O459 1.942 . S
Mg443 O460 1.955 . S
C444 O455 1.191 . S
C444 O457 1.307 . S
O445 Mg440 2.013 . S
O445 C464 1.191 . S
O446 Mg437 2.081 . S
O446 C454 1.331 . S
O447 Mg443 1.986 . S
O447 C464 1.307 . S
O448 Mg437 2.023 . S
O448 C463 1.264 . S
O449 Mg438 1.942 . S
O449 C454 1.244 . S
O450 Mg438 1.955 . S
O450 C463 1.273 . S
O451 Mg440 2.114 . S
O451 Mg442 2.291 . S
O451 C453 1.312 . S
O452 Mg437 2.031 . S
O452 C453 1.208 . S
C453 O451 1.312 . S
C453 O452 1.208 . S
C454 O446 1.331 . S
C454 O449 1.244 . S
O455 Mg440 2.013 . S
O455 C444 1.191 . S
O456 C435 1.331 . S
O456 Mg442 2.081 . S
O457 Mg438 1.986 . S
O457 C444 1.307 . S
O458 C436 1.264 . S
O458 Mg442 2.023 . S
O459 C435 1.244 . S
O459 Mg443 1.942 . S
O460 C436 1.273 . S
O460 Mg443 1.955 . S
O461 C434 1.312 . S
O461 Mg437 2.291 . S
O461 Mg440 2.114 . S
O462 C434 1.208 . S
O462 Mg442 2.031 . S
C463 O448 1.264 . S
C463 O450 1.273 . S
C464 O445 1.191 . S
C464 O447 1.307 . S
C465 C466 1.363 . S
C465 C471 1.379 . S
C465 N473 1.356 . S
C466 C465 1.363 . S
C466 C472 1.363 . S
C467 C468 1.363 . S
C467 C472 1.379 . S
C467 N474 1.356 . S
C468 C467 1.363 . S
C468 C471 1.363 . S
N469 C471 1.356 . S
N469 H481 0.984 . S
N469 H482 0.985 . S
N470 C472 1.356 . S
N470 H475 0.984 . S
N470 H476 0.985 . S
C471 C465 1.379 . S
C471 C468 1.363 . S
C471 N469 1.356 . S
C472 C466 1.363 . S
C472 C467 1.379 . S
C472 N470 1.356 . S
N473 C465 1.356 . S
N473 H479 0.984 . S
N473 H480 0.984 . S
N474 C467 1.356 . S
N474 H477 0.984 . S
N474 H478 0.985 . S
H475 N470 0.984 . S
H476 N470 0.985 . S
H477 N474 0.984 . S
H478 N474 0.985 . S
H479 N473 0.984 . S
H480 N473 0.984 . S
H481 N469 0.984 . S
H482 N469 0.985 . S
C483 C484 1.363 . S
C483 C489 1.379 . S
C483 N491 1.356 . S
C484 C483 1.363 . S
C484 C490 1.363 . S
C485 C486 1.363 . S
C485 C490 1.379 . S
C485 N492 1.356 . S
C486 C485 1.363 . S
C486 C489 1.363 . S
N487 C489 1.356 . S
N487 H499 0.984 . S
N487 H500 0.985 . S
N488 C490 1.356 . S
N488 H493 0.984 . S
N488 H494 0.985 . S
C489 C483 1.379 . S
C489 C486 1.363 . S
C489 N487 1.356 . S
C490 C484 1.363 . S
C490 C485 1.379 . S
C490 N488 1.356 . S
N491 C483 1.356 . S
N491 H497 0.984 . S
N491 H498 0.984 . S
N492 C485 1.356 . S
N492 H495 0.984 . S
N492 H496 0.985 . S
H493 N488 0.984 . S
H494 N488 0.985 . S
H495 N492 0.984 . S
H496 N492 0.985 . S
H497 N491 0.984 . S
H498 N491 0.984 . S
H499 N487 0.984 . S
H500 N487 0.985 . S
C501 C502 1.363 . S
C501 C507 1.379 . S
C501 N509 1.356 . S
C502 C501 1.363 . S
C502 C508 1.363 . S
C503 C504 1.363 . S
C503 C508 1.379 . S
C503 N510 1.356 . S
C504 C503 1.363 . S
C504 C507 1.363 . S
N505 C507 1.356 . S
N505 H517 0.984 . S
N505 H518 0.985 . S
N506 C508 1.356 . S
N506 H511 0.984 . S
N506 H512 0.985 . S
C507 C501 1.379 . S
C507 C504 1.363 . S
C507 N505 1.356 . S
C508 C502 1.363 . S
C508 C503 1.379 . S
C508 N506 1.356 . S
N509 C501 1.356 . S
N509 H515 0.984 . S
N509 H516 0.984 . S
N510 C503 1.356 . S
N510 H513 0.984 . S
N510 H514 0.985 . S
H511 N506 0.984 . S
H512 N506 0.985 . S
H513 N510 0.984 . S
H514 N510 0.985 . S
H515 N509 0.984 . S
H516 N509 0.984 . S
H517 N505 0.984 . S
H518 N505 0.985 . S
C519 C520 1.363 . S
C519 C525 1.379 . S
C519 N527 1.356 . S
C520 C519 1.363 . S
C520 C526 1.363 . S
C521 C522 1.363 . S
C521 C526 1.379 . S
C521 N528 1.356 . S
C522 C521 1.363 . S
C522 C525 1.363 . S
N523 C525 1.356 . S
N523 H535 0.984 . S
N523 H536 0.985 . S
N524 C526 1.356 . S
N524 H529 0.984 . S
N524 H530 0.985 . S
C525 C519 1.379 . S
C525 C522 1.363 . S
C525 N523 1.356 . S
C526 C520 1.363 . S
C526 C521 1.379 . S
C526 N524 1.356 . S
N527 C519 1.356 . S
N527 H533 0.984 . S
N527 H534 0.984 . S
N528 C521 1.356 . S
N528 H531 0.984 . S
N528 H532 0.985 . S
H529 N524 0.984 . S
H530 N524 0.985 . S
H531 N528 0.984 . S
H532 N528 0.985 . S
H533 N527 0.984 . S
H534 N527 0.984 . S
H535 N523 0.984 . S
H536 N523 0.985 . S
C537 C538 1.363 . S
C537 C543 1.379 . S
C537 N545 1.356 . S
C538 C537 1.363 . S
C538 C544 1.363 . S
C539 C540 1.363 . S
C539 C544 1.379 . S
C539 N546 1.356 . S
C540 C539 1.363 . S
C540 C543 1.363 . S
N541 C543 1.356 . S
N541 H553 0.984 . S
N541 H554 0.985 . S
N542 C544 1.356 . S
N542 H547 0.984 . S
N542 H548 0.985 . S
C543 C537 1.379 . S
C543 C540 1.363 . S
C543 N541 1.356 . S
C544 C538 1.363 . S
C544 C539 1.379 . S
C544 N542 1.356 . S
N545 C537 1.356 . S
N545 H551 0.984 . S
N545 H552 0.984 . S
N546 C539 1.356 . S
N546 H549 0.984 . S
N546 H550 0.985 . S
H547 N542 0.984 . S
H548 N542 0.985 . S
H549 N546 0.984 . S
H550 N546 0.985 . S
H551 N545 0.984 . S
H552 N545 0.984 . S
H553 N541 0.984 . S
H554 N541 0.985 . S
C555 C556 1.363 . S
C555 C561 1.379 . S
C555 N563 1.356 . S
C556 C555 1.363 . S
C556 C562 1.363 . S
C557 C558 1.363 . S
C557 C562 1.379 . S
C557 N564 1.356 . S
C558 C557 1.363 . S
C558 C561 1.363 . S
N559 C561 1.356 . S
N559 H571 0.984 . S
N559 H572 0.985 . S
N560 C562 1.356 . S
N560 H565 0.984 . S
N560 H566 0.985 . S
C561 C555 1.379 . S
C561 C558 1.363 . S
C561 N559 1.356 . S
C562 C556 1.363 . S
C562 C557 1.379 . S
C562 N560 1.356 . S
N563 C555 1.356 . S
N563 H569 0.984 . S
N563 H570 0.984 . S
N564 C557 1.356 . S
N564 H567 0.984 . S
N564 H568 0.985 . S
H565 N560 0.984 . S
H566 N560 0.985 . S
H567 N564 0.984 . S
H568 N564 0.985 . S
H569 N563 0.984 . S
H570 N563 0.984 . S
H571 N559 0.984 . S
H572 N559 0.985 . S
C573 C574 1.363 . S
C573 C579 1.379 . S
C573 N581 1.356 . S
C574 C573 1.363 . S
C574 C580 1.363 . S
C575 C576 1.363 . S
C575 C580 1.379 . S
C575 N582 1.356 . S
C576 C575 1.363 . S
C576 C579 1.363 . S
N577 C579 1.356 . S
N577 H589 0.984 . S
N577 H590 0.985 . S
N578 C580 1.356 . S
N578 H583 0.984 . S
N578 H584 0.985 . S
C579 C573 1.379 . S
C579 C576 1.363 . S
C579 N577 1.356 . S
C580 C574 1.363 . S
C580 C575 1.379 . S
C580 N578 1.356 . S
N581 C573 1.356 . S
N581 H587 0.984 . S
N581 H588 0.984 . S
N582 C575 1.356 . S
N582 H585 0.984 . S
N582 H586 0.985 . S
H583 N578 0.984 . S
H584 N578 0.985 . S
H585 N582 0.984 . S
H586 N582 0.985 . S
H587 N581 0.984 . S
H588 N581 0.984 . S
H589 N577 0.984 . S
H590 N577 0.985 . S
C591 C592 1.363 . S
C591 C597 1.379 . S
C591 N599 1.356 . S
C592 C591 1.363 . S
C592 C598 1.363 . S
C593 C594 1.363 . S
C593 C598 1.379 . S
C593 N600 1.356 . S
C594 C593 1.363 . S
C594 C597 1.363 . S
N595 C597 1.356 . S
N595 H607 0.984 . S
N595 H608 0.985 . S
N596 C598 1.356 . S
N596 H601 0.984 . S
N596 H602 0.985 . S
C597 C591 1.379 . S
C597 C594 1.363 . S
C597 N595 1.356 . S
C598 C592 1.363 . S
C598 C593 1.379 . S
C598 N596 1.356 . S
N599 C591 1.356 . S
N599 H605 0.984 . S
N599 H606 0.984 . S
N600 C593 1.356 . S
N600 H603 0.984 . S
N600 H604 0.985 . S
H601 N596 0.984 . S
H602 N596 0.985 . S
H603 N600 0.984 . S
H604 N600 0.985 . S
H605 N599 0.984 . S
H606 N599 0.984 . S
H607 N595 0.984 . S
H608 N595 0.985 . S
C609 C610 1.363 . S
C609 C615 1.379 . S
C609 N617 1.356 . S
C610 C609 1.363 . S
C610 C616 1.363 . S
C611 C612 1.363 . S
C611 C616 1.379 . S
C611 N618 1.356 . S
C612 C611 1.363 . S
C612 C615 1.363 . S
N613 C615 1.356 . S
N613 H625 0.984 . S
N613 H626 0.985 . S
N614 C616 1.356 . S
N614 H619 0.984 . S
N614 H620 0.985 . S
C615 C609 1.379 . S
C615 C612 1.363 . S
C615 N613 1.356 . S
C616 C610 1.363 . S
C616 C611 1.379 . S
C616 N614 1.356 . S
N617 C609 1.356 . S
N617 H623 0.984 . S
N617 H624 0.984 . S
N618 C611 1.356 . S
N618 H621 0.984 . S
N618 H622 0.985 . S
H619 N614 0.984 . S
H620 N614 0.985 . S
H621 N618 0.984 . S
H622 N618 0.985 . S
H623 N617 0.984 . S
H624 N617 0.984 . S
H625 N613 0.984 . S
H626 N613 0.985 . S
C627 C628 1.363 . S
C627 C633 1.379 . S
C627 N635 1.356 . S
C628 C627 1.363 . S
C628 C634 1.363 . S
C629 C630 1.363 . S
C629 C634 1.379 . S
C629 N636 1.356 . S
C630 C629 1.363 . S
C630 C633 1.363 . S
N631 C633 1.356 . S
N631 H643 0.984 . S
N631 H644 0.985 . S
N632 C634 1.356 1_554 S
N632 H637 0.984 . S
N632 H638 0.985 . S
C633 C627 1.379 . S
C633 C630 1.363 . S
C633 N631 1.356 . S
C634 C628 1.363 . S
C634 C629 1.379 . S
C634 N632 1.356 1_556 S
N635 C627 1.356 . S
N635 H641 0.984 . S
N635 H642 0.984 . S
N636 C629 1.356 . S
N636 H639 0.984 . S
N636 H640 0.985 . S
H637 N632 0.984 . S
H638 N632 0.985 . S
H639 N636 0.984 . S
H640 N636 0.985 . S
H641 N635 0.984 . S
H642 N635 0.984 . S
H643 N631 0.984 . S
H644 N631 0.985 . S
C645 C646 1.363 . S
C645 C651 1.379 . S
C645 N653 1.356 1_556 S
C646 C645 1.363 . S
C646 C652 1.363 . S
C647 C648 1.363 . S
C647 C652 1.379 . S
C647 N654 1.356 . S
C648 C647 1.363 . S
C648 C651 1.363 . S
N649 C651 1.356 . S
N649 H661 0.984 . S
N649 H662 0.985 . S
N650 C652 1.356 . S
N650 H655 0.984 . S
N650 H656 0.985 . S
C651 C645 1.379 . S
C651 C648 1.363 . S
C651 N649 1.356 . S
C652 C646 1.363 . S
C652 C647 1.379 . S
C652 N650 1.356 . S
N653 C645 1.356 1_554 S
N653 H659 0.984 . S
N653 H660 0.984 . S
N654 C647 1.356 . S
N654 H657 0.984 . S
N654 H658 0.985 . S
H655 N650 0.984 . S
H656 N650 0.985 . S
H657 N654 0.984 . S
H658 N654 0.985 . S
H659 N653 0.984 . S
H660 N653 0.984 . S
H661 N649 0.984 . S
H662 N649 0.985 . S
C663 C664 1.363 . S
C663 C669 1.379 . S
C663 N671 1.356 . S
C664 C663 1.363 . S
C664 C670 1.363 . S
C665 C666 1.363 . S
C665 C670 1.379 . S
C665 N672 1.356 . S
C666 C665 1.363 . S
C666 C669 1.363 . S
N667 C669 1.356 . S
N667 H679 0.984 . S
N667 H680 0.985 . S
N668 C670 1.356 . S
N668 H673 0.984 . S
N668 H674 0.985 . S
C669 C663 1.379 . S
C669 C666 1.363 . S
C669 N667 1.356 . S
C670 C664 1.363 . S
C670 C665 1.379 . S
C670 N668 1.356 . S
N671 C663 1.356 . S
N671 H677 0.984 1_556 S
N671 H678 0.984 . S
N672 C665 1.356 . S
N672 H675 0.984 . S
N672 H676 0.985 . S
H673 N668 0.984 . S
H674 N668 0.985 . S
H675 N672 0.984 . S
H676 N672 0.985 . S
H677 N671 0.984 1_554 S
H678 N671 0.984 . S
H679 N667 0.984 . S
H680 N667 0.985 . S
C681 C682 1.363 . S
C681 C687 1.379 . S
C681 N689 1.356 . S
C682 C681 1.363 . S
C682 C688 1.363 . S
C683 C684 1.363 . S
C683 C688 1.379 . S
C683 N690 1.356 . S
C684 C683 1.363 . S
C684 C687 1.363 . S
N685 C687 1.356 . S
N685 H697 0.984 . S
N685 H698 0.985 . S
N686 C688 1.356 . S
N686 H691 0.984 . S
N686 H692 0.985 . S
C687 C681 1.379 . S
C687 C684 1.363 . S
C687 N685 1.356 . S
C688 C682 1.363 . S
C688 C683 1.379 . S
C688 N686 1.356 . S
N689 C681 1.356 . S
N689 H695 0.984 . S
N689 H696 0.984 . S
N690 C683 1.356 . S
N690 H693 0.984 . S
N690 H694 0.985 . S
H691 N686 0.984 . S
H692 N686 0.985 . S
H693 N690 0.984 . S
H694 N690 0.985 . S
H695 N689 0.984 . S
H696 N689 0.984 . S
H697 N685 0.984 . S
H698 N685 0.985 . S
C699 C700 1.363 . S
C699 C705 1.379 . S
C699 N707 1.356 . S
C700 C699 1.363 . S
C700 C706 1.363 . S
C701 C702 1.363 . S
C701 C706 1.379 . S
C701 N708 1.356 . S
C702 C701 1.363 . S
C702 C705 1.363 . S
N703 C705 1.356 . S
N703 H715 0.984 . S
N703 H716 0.985 . S
N704 C706 1.356 . S
N704 H709 0.984 1_556 S
N704 H710 0.985 1_556 S
C705 C699 1.379 . S
C705 C702 1.363 . S
C705 N703 1.356 . S
C706 C700 1.363 . S
C706 C701 1.379 . S
C706 N704 1.356 . S
N707 C699 1.356 . S
N707 H713 0.984 . S
N707 H714 0.984 . S
N708 C701 1.356 . S
N708 H711 0.984 . S
N708 H712 0.985 . S
H709 N704 0.984 1_554 S
H710 N704 0.985 1_554 S
H711 N708 0.984 . S
H712 N708 0.985 . S
H713 N707 0.984 . S
H714 N707 0.984 . S
H715 N703 0.984 . S
H716 N703 0.985 . S
C717 C718 1.363 . S
C717 C723 1.379 . S
C717 N725 1.356 . S
C718 C717 1.363 . S
C718 C724 1.363 . S
C719 C720 1.363 . S
C719 C724 1.379 . S
C719 N726 1.356 . S
C720 C719 1.363 . S
C720 C723 1.363 . S
N721 C723 1.356 . S
N721 H733 0.984 . S
N721 H734 0.985 . S
N722 C724 1.356 . S
N722 H727 0.984 1_556 S
N722 H728 0.985 1_556 S
C723 C717 1.379 . S
C723 C720 1.363 . S
C723 N721 1.356 . S
C724 C718 1.363 . S
C724 C719 1.379 . S
C724 N722 1.356 . S
N725 C717 1.356 . S
N725 H731 0.984 . S
N725 H732 0.984 . S
N726 C719 1.356 . S
N726 H729 0.984 . S
N726 H730 0.985 . S
H727 N722 0.984 1_554 S
H728 N722 0.985 1_554 S
H729 N726 0.984 . S
H730 N726 0.985 . S
H731 N725 0.984 . S
H732 N725 0.984 . S
H733 N721 0.984 . S
H734 N721 0.985 . S
C735 C736 1.363 . S
C735 C741 1.379 . S
C735 N743 1.356 . S
C736 C735 1.363 . S
C736 C742 1.363 . S
C737 C738 1.363 . S
C737 C742 1.379 . S
C737 N744 1.356 . S
C738 C737 1.363 . S
C738 C741 1.363 . S
N739 C741 1.356 . S
N739 H751 0.984 . S
N739 H752 0.985 . S
N740 C742 1.356 1_554 S
N740 H745 0.984 . S
N740 H746 0.985 . S
C741 C735 1.379 . S
C741 C738 1.363 . S
C741 N739 1.356 . S
C742 C736 1.363 . S
C742 C737 1.379 . S
C742 N740 1.356 1_556 S
N743 C735 1.356 . S
N743 H749 0.984 . S
N743 H750 0.984 . S
N744 C737 1.356 . S
N744 H747 0.984 . S
N744 H748 0.985 . S
H745 N740 0.984 . S
H746 N740 0.985 . S
H747 N744 0.984 . S
H748 N744 0.985 . S
H749 N743 0.984 . S
H750 N743 0.984 . S
H751 N739 0.984 . S
H752 N739 0.985 . S
C753 C754 1.363 . S
C753 C759 1.379 . S
C753 N761 1.356 . S
C754 C753 1.363 . S
C754 C760 1.363 . S
C755 C756 1.363 . S
C755 C760 1.379 . S
C755 N762 1.356 . S
C756 C755 1.363 . S
C756 C759 1.363 . S
N757 C759 1.356 . S
N757 H769 0.984 . S
N757 H770 0.985 . S
N758 C760 1.356 . S
N758 H763 0.984 . S
N758 H764 0.985 . S
C759 C753 1.379 . S
C759 C756 1.363 . S
C759 N757 1.356 . S
C760 C754 1.363 . S
C760 C755 1.379 . S
C760 N758 1.356 . S
N761 C753 1.356 . S
N761 H767 0.984 . S
N761 H768 0.984 . S
N762 C755 1.356 . S
N762 H765 0.984 . S
N762 H766 0.985 . S
H763 N758 0.984 . S
H764 N758 0.985 . S
H765 N762 0.984 . S
H766 N762 0.985 . S
H767 N761 0.984 . S
H768 N761 0.984 . S
H769 N757 0.984 . S
H770 N757 0.985 . S
C771 C772 1.363 . S
C771 C777 1.379 . S
C771 N779 1.356 . S
C772 C771 1.363 . S
C772 C778 1.363 . S
C773 C774 1.363 . S
C773 C778 1.379 . S
C773 N780 1.356 . S
C774 C773 1.363 . S
C774 C777 1.363 . S
N775 C777 1.356 . S
N775 H787 0.984 . S
N775 H788 0.985 . S
N776 C778 1.356 . S
N776 H781 0.984 . S
N776 H782 0.985 . S
C777 C771 1.379 . S
C777 C774 1.363 . S
C777 N775 1.356 . S
C778 C772 1.363 . S
C778 C773 1.379 . S
C778 N776 1.356 . S
N779 C771 1.356 . S
N779 H785 0.984 . S
N779 H786 0.984 . S
N780 C773 1.356 . S
N780 H783 0.984 . S
N780 H784 0.985 . S
H781 N776 0.984 . S
H782 N776 0.985 . S
H783 N780 0.984 . S
H784 N780 0.985 . S
H785 N779 0.984 . S
H786 N779 0.984 . S
H787 N775 0.984 . S
H788 N775 0.985 . S
C789 C790 1.363 . S
C789 C795 1.379 . S
C789 N797 1.356 . S
C790 C789 1.363 . S
C790 C796 1.363 . S
C791 C792 1.363 . S
C791 C796 1.379 . S
C791 N798 1.356 . S
C792 C791 1.363 . S
C792 C795 1.363 . S
N793 C795 1.356 . S
N793 H805 0.984 . S
N793 H806 0.985 . S
N794 C796 1.356 . S
N794 H799 0.984 . S
N794 H800 0.985 . S
C795 C789 1.379 . S
C795 C792 1.363 . S
C795 N793 1.356 . S
C796 C790 1.363 . S
C796 C791 1.379 . S
C796 N794 1.356 . S
N797 C789 1.356 . S
N797 H803 0.984 . S
N797 H804 0.984 . S
N798 C791 1.356 . S
N798 H801 0.984 . S
N798 H802 0.985 . S
H799 N794 0.984 . S
H800 N794 0.985 . S
H801 N798 0.984 . S
H802 N798 0.985 . S
H803 N797 0.984 . S
H804 N797 0.984 . S
H805 N793 0.984 . S
H806 N793 0.985 . S
C807 C808 1.363 . S
C807 C813 1.379 . S
C807 N815 1.356 . S
C808 C807 1.363 . S
C808 C814 1.363 . S
C809 C810 1.363 . S
C809 C814 1.379 . S
C809 N816 1.356 . S
C810 C809 1.363 . S
C810 C813 1.363 . S
N811 C813 1.356 . S
N811 H823 0.984 . S
N811 H824 0.985 . S
N812 C814 1.356 . S
N812 H817 0.984 . S
N812 H818 0.985 . S
C813 C807 1.379 . S
C813 C810 1.363 . S
C813 N811 1.356 . S
C814 C808 1.363 . S
C814 C809 1.379 . S
C814 N812 1.356 . S
N815 C807 1.356 . S
N815 H821 0.984 . S
N815 H822 0.984 . S
N816 C809 1.356 . S
N816 H819 0.984 . S
N816 H820 0.985 . S
H817 N812 0.984 . S
H818 N812 0.985 . S
H819 N816 0.984 . S
H820 N816 0.985 . S
H821 N815 0.984 . S
H822 N815 0.984 . S
H823 N811 0.984 . S
H824 N811 0.985 . S
C825 C826 1.363 . S
C825 C831 1.379 . S
C825 N833 1.356 . S
C826 C825 1.363 . S
C826 C832 1.363 . S
C827 C828 1.363 . S
C827 C832 1.379 . S
C827 N834 1.356 . S
C828 C827 1.363 . S
C828 C831 1.363 . S
N829 C831 1.356 . S
N829 H841 0.984 . S
N829 H842 0.985 . S
N830 C832 1.356 . S
N830 H835 0.984 . S
N830 H836 0.985 . S
C831 C825 1.379 . S
C831 C828 1.363 . S
C831 N829 1.356 . S
C832 C826 1.363 . S
C832 C827 1.379 . S
C832 N830 1.356 . S
N833 C825 1.356 . S
N833 H839 0.984 . S
N833 H840 0.984 . S
N834 C827 1.356 . S
N834 H837 0.984 . S
N834 H838 0.985 . S
H835 N830 0.984 . S
H836 N830 0.985 . S
H837 N834 0.984 . S
H838 N834 0.985 . S
H839 N833 0.984 . S
H840 N833 0.984 . S
H841 N829 0.984 . S
H842 N829 0.985 . S
C843 C844 1.363 . S
C843 C849 1.379 . S
C843 N851 1.356 . S
C844 C843 1.363 . S
C844 C850 1.363 . S
C845 C846 1.363 . S
C845 C850 1.379 . S
C845 N852 1.356 . S
C846 C845 1.363 . S
C846 C849 1.363 . S
N847 C849 1.356 . S
N847 H859 0.984 1_565 S
N847 H860 0.985 . S
N848 C850 1.356 . S
N848 H853 0.984 . S
N848 H854 0.985 . S
C849 C843 1.379 . S
C849 C846 1.363 . S
C849 N847 1.356 . S
C850 C844 1.363 . S
C850 C845 1.379 . S
C850 N848 1.356 . S
N851 C843 1.356 . S
N851 H857 0.984 . S
N851 H858 0.984 . S
N852 C845 1.356 . S
N852 H855 0.984 . S
N852 H856 0.985 . S
H853 N848 0.984 . S
H854 N848 0.985 . S
H855 N852 0.984 . S
H856 N852 0.985 . S
H857 N851 0.984 . S
H858 N851 0.984 . S
H859 N847 0.984 1_545 S
H860 N847 0.985 . S
C861 C862 1.363 . S
C861 C867 1.379 . S
C861 N869 1.356 . S
C862 C861 1.363 . S
C862 C868 1.363 . S
C863 C864 1.363 . S
C863 C868 1.379 . S
C863 N870 1.356 . S
C864 C863 1.363 . S
C864 C867 1.363 . S
N865 C867 1.356 . S
N865 H877 0.984 . S
N865 H878 0.985 . S
N866 C868 1.356 . S
N866 H871 0.984 . S
N866 H872 0.985 . S
C867 C861 1.379 . S
C867 C864 1.363 . S
C867 N865 1.356 . S
C868 C862 1.363 . S
C868 C863 1.379 . S
C868 N866 1.356 . S
N869 C861 1.356 . S
N869 H875 0.984 . S
N869 H876 0.984 . S
N870 C863 1.356 . S
N870 H873 0.984 . S
N870 H874 0.985 . S
H871 N866 0.984 . S
H872 N866 0.985 . S
H873 N870 0.984 . S
H874 N870 0.985 . S
H875 N869 0.984 . S
H876 N869 0.984 . S
H877 N865 0.984 . S
H878 N865 0.985 . S
C879 C880 1.363 . S
C879 C885 1.379 . S
C879 N887 1.356 . S
C880 C879 1.363 . S
C880 C886 1.363 . S
C881 C882 1.363 . S
C881 C886 1.379 . S
C881 N888 1.356 . S
C882 C881 1.363 . S
C882 C885 1.363 . S
N883 C885 1.356 . S
N883 H895 0.984 . S
N883 H896 0.985 . S
N884 C886 1.356 . S
N884 H889 0.984 . S
N884 H890 0.985 . S
C885 C879 1.379 . S
C885 C882 1.363 . S
C885 N883 1.356 . S
C886 C880 1.363 . S
C886 C881 1.379 . S
C886 N884 1.356 . S
N887 C879 1.356 . S
N887 H893 0.984 . S
N887 H894 0.984 . S
N888 C881 1.356 . S
N888 H891 0.984 . S
N888 H892 0.985 . S
H889 N884 0.984 . S
H890 N884 0.985 . S
H891 N888 0.984 . S
H892 N888 0.985 . S
H893 N887 0.984 . S
H894 N887 0.984 . S
H895 N883 0.984 . S
H896 N883 0.985 . S
C466 C47 1.921 . S
C468 C372 2.039 . S
C484 C91 1.734 . S
C486 C404 1.827 . S
C504 C463 1.846 . S
C502 C177 1.963 . S
C522 C392 1.662 . S
C520 C215 1.653 . S
C538 C295 1.850 . S
C540 C422 1.878 . S
C558 C444 1.255 . S
C556 C345 1.230 . S
C576 C413 2.078 . S
C574 C153 1.927 . S
C592 C239 1.333 . S
C594 C453 1.236 . S
C612 C402 1.660 . S
C610 C283 1.702 . S
C628 C357 1.665 . S
C630 C432 1.735 . S
C646 C35 1.851 1_556 S
C648 C435 1.779 . S
C666 C374 1.525 . S
C664 C115 1.583 . S
C684 C382 1.584 . S
C682 C221 1.654 . S
C702 C423 1.457 . S
C700 C301 1.499 . S
C720 C436 2.109 . S
C718 C339 2.057 . S
C738 C373 1.462 . S
C736 C53 1.549 1_556 S
C756 C433 1.584 . S
C754 C97 1.686 . S
C772 C171 1.529 . S
C774 C434 1.640 . S
C792 C403 1.588 . S
C790 C363 1.638 . S
C810 C464 1.616 . S
C808 C29 1.459 . S
C828 C391 1.869 . S
C826 C109 1.876 . S
C846 C405 1.530 . S
C844 C159 1.642 . S
C862 C233 2.019 . S
C864 C454 2.015 . S
C880 C277 1.744 . S
C882 C401 1.891 . S
