# Generated by pormake.
# Topology rtl, (3,6)-cn, num edge types: 1
# Building blocks:
#     Node 0, Type 0, BuildingBlock: QEWDON_clean_linker_0, # of connection points: 3
#     Node 1, Type 0, BuildingBlock: QEWDON_clean_linker_0, # of connection points: 3
#     Node 2, Type 0, BuildingBlock: QEWDON_clean_linker_0, # of connection points: 3
#     Node 3, Type 0, BuildingBlock: QEWDON_clean_linker_0, # of connection points: 3
#     Node 4, Type 1, BuildingBlock: KUMJIN_clean_sbu_1, # of connection points: 6
#     Node 5, Type 1, BuildingBlock: KUMJIN_clean_sbu_1, # of connection points: 6
#     Edge 6, Type (0, 1), BuildingBlock: KIFKEQ_clean_linker_1, # of connection points: 2
#     Edge 7, Type (0, 1), BuildingBlock: KIFKEQ_clean_linker_1, # of connection points: 2
#     Edge 8, Type (0, 1), BuildingBlock: KIFKEQ_clean_linker_1, # of connection points: 2
#     Edge 9, Type (0, 1), BuildingBlock: KIFKEQ_clean_linker_1, # of connection points: 2
#     Edge 10, Type (0, 1), BuildingBlock: KIFKEQ_clean_linker_1, # of connection points: 2
#     Edge 11, Type (0, 1), BuildingBlock: KIFKEQ_clean_linker_1, # of connection points: 2
#     Edge 12, Type (0, 1), BuildingBlock: KIFKEQ_clean_linker_1, # of connection points: 2
#     Edge 13, Type (0, 1), BuildingBlock: KIFKEQ_clean_linker_1, # of connection points: 2
#     Edge 14, Type (0, 1), BuildingBlock: KIFKEQ_clean_linker_1, # of connection points: 2
#     Edge 15, Type (0, 1), BuildingBlock: KIFKEQ_clean_linker_1, # of connection points: 2
#     Edge 16, Type (0, 1), BuildingBlock: KIFKEQ_clean_linker_1, # of connection points: 2
#     Edge 17, Type (0, 1), BuildingBlock: KIFKEQ_clean_linker_1, # of connection points: 2
# Relax obj value: 0.085
# Max RMSD: 0.273
# Mean RMSD: 0.209
data_MOF--net-rtl--node1-KUMJIN_clean_sbu_1--node2-QEWDON_clean_linker_0--edge1-KIFKEQ_clean_linker_1
_symmetry_space_group_name_H-M    P1
_symmetry_Int_Tables_number       1
_symmetry_cell_setting            triclinic
loop_
_symmetry_equiv_pos_as_xyz
'x, y, z'
_cell_length_a     37.812585
_cell_length_b     37.7326
_cell_length_c     27.093912
_cell_angle_alpha  79.149262
_cell_angle_beta   100.43218
_cell_angle_gamma 91.311866
loop_
_atom_site_label
_atom_site_type_symbol
_atom_site_fract_x
_atom_site_fract_y
_atom_site_fract_z
_atom_type_partial_charge
H0 H 0.25761 0.84908 0.09818 0.0
C1 C 0.24051 0.85525 0.06087 0.0
C2 C 0.20486 0.86692 0.05652 0.0
C3 C 0.25468 0.85314 0.01694 0.0
H4 H 0.15656 0.88696 1.00432 0.0
C5 C 0.18366 0.87677 0.00783 0.0
C6 C 0.19788 0.87628 0.96355 0.0
C7 C 0.23324 0.86359 0.9684 0.0
C8 C 0.29363 0.847 0.02128 0.0
H9 H 0.24495 0.86424 0.93455 0.0
C10 C 0.30807 0.81249 0.02359 0.0
C11 C 0.34558 0.80767 0.02833 0.0
C12 C 0.3166 0.8766 0.02307 0.0
H13 H 0.30586 0.9033 0.02122 0.0
C14 C 0.35352 0.87208 0.02705 0.0
H15 H 0.29032 0.78957 0.02263 0.0
C16 C 0.36795 0.83797 0.02965 0.0
H17 H 0.39673 0.83537 0.03226 0.0
H18 H 0.37105 0.89511 0.02812 0.0
H19 H 0.73994 0.70833 0.59408 0.0
C20 C 0.7231 0.70487 0.62301 0.0
C21 C 0.69093 0.68545 0.61612 0.0
C22 C 0.7353 0.71676 0.66933 0.0
H23 H 0.64565 0.66448 0.64979 0.0
C24 C 0.6702 0.67978 0.65495 0.0
C25 C 0.6818 0.6913 0.70149 0.0
C26 C 0.71443 0.70998 0.70822 0.0
C27 C 0.7723 0.73089 0.68045 0.0
H28 H 0.72419 0.71849 0.74425 0.0
C29 C 0.78445 0.76091 0.64843 0.0
C30 C 0.82033 0.77243 0.65929 0.0
C31 C 0.79627 0.71295 0.72325 0.0
H32 H 0.78769 0.68968 0.74815 0.0
C33 C 0.83172 0.72423 0.73375 0.0
H34 H 0.76621 0.7751 0.61544 0.0
C35 C 0.84376 0.75364 0.70195 0.0
H36 H 0.87136 0.76214 0.71112 0.0
H37 H 0.84998 0.71006 0.76666 0.0
H38 H 0.79757 0.19256 0.13187 0.0
C39 C 0.81133 0.19014 0.10084 0.0
C40 C 0.84669 0.17637 0.11164 0.0
C41 C 0.79313 0.19931 0.05001 0.0
H42 H 0.89024 0.15991 0.07973 0.0
C43 C 0.86371 0.17229 0.07111 0.0
C44 C 0.8462 0.18158 0.02005 0.0
C45 C 0.81071 0.19504 0.00986 0.0
C46 C 0.75444 0.20913 0.03897 0.0
H47 H 0.79646 0.20188 0.97079 0.0
C48 C 0.74183 0.24039 0.05208 0.0
C49 C 0.70465 0.24838 0.04223 0.0
C50 C 0.72972 0.18623 0.01574 0.0
H51 H 0.73888 0.16206 0.00547 0.0
C52 C 0.69297 0.19392 0.00641 0.0
H53 H 0.76077 0.25833 0.0697 0.0
C54 C 0.68046 0.22468 0.01968 0.0
H55 H 0.65181 0.23035 0.01142 0.0
H56 H 0.6741 0.17601 0.98872 0.0
H57 H 0.34538 0.30029 0.52374 0.0
C58 C 0.35329 0.31521 0.48925 0.0
C59 C 0.37043 0.34854 0.49016 0.0
C60 C 0.34913 0.29983 0.44507 0.0
H61 H 0.39613 0.39244 0.44788 0.0
C62 C 0.38214 0.36714 0.44631 0.0
C63 C 0.37764 0.35271 0.40154 0.0
C64 C 0.36124 0.31888 0.40131 0.0
C65 C 0.3366 0.26208 0.44649 0.0
H66 H 0.35822 0.30712 0.36726 0.0
C67 C 0.30444 0.25011 0.46359 0.0
C68 C 0.29432 0.21363 0.46644 0.0
C69 C 0.35807 0.23729 0.43198 0.0
H70 H 0.38302 0.24566 0.41918 0.0
C71 C 0.34811 0.20127 0.43498 0.0
H72 H 0.28752 0.26893 0.47466 0.0
C73 C 0.31657 0.18944 0.45228 0.0
H74 H 0.30922 0.16137 0.45394 0.0
H75 H 0.36497 0.18241 0.42397 0.0
Eu76 Eu 0.04714 0.98939 0.50639 0.0
C77 C 0.96599 0.13375 0.4919 0.0
N78 N 0.99767 0.12225 0.52288 0.0
C79 C 0.02341 0.18043 0.501 0.0
C80 C 0.96215 0.1692 0.46328 0.0
C81 C 0.02608 0.145 0.52836 0.0
C82 C 0.99137 0.19256 0.46817 0.0
C83 C 0.90495 0.12058 0.45435 0.0
C84 C 0.93777 0.10949 0.48729 0.0
C85 C 0.90115 0.15582 0.42567 0.0
C86 C 0.92963 0.18006 0.43015 0.0
Eu87 Eu 1.00003 0.06189 0.56652 0.0
N88 N 0.94247 0.0751 0.51449 0.0
C89 C 0.87676 0.09599 0.45141 0.0
C90 C 0.91412 0.05203 0.51447 0.0
C91 C 0.8812 0.06179 0.48223 0.0
H92 H 0.05065 0.13596 0.55443 0.0
H93 H 0.85906 0.04308 0.48179 0.0
H94 H 1.00069 0.91294 0.51965 0.0
H95 H 0.18712 1.01449 0.58911 0.0
H96 H 0.91604 0.02648 0.54014 0.0
H97 H 0.85119 0.10347 0.42653 0.0
H98 H 0.13012 0.02735 0.5292 0.0
H99 H 0.04604 0.19837 0.50531 0.0
H100 H 0.87621 0.16465 0.39996 0.0
H101 H 0.92627 0.20713 0.40767 0.0
H102 H 1.00732 0.85123 0.57122 0.0
H103 H 0.98946 0.21999 0.44679 0.0
H104 H 0.19666 0.95582 0.6486 0.0
N105 N 0.0521 0.92955 0.55231 0.0
C106 C 0.08385 0.91981 0.58424 0.0
C107 C 0.02896 0.87031 0.5755 0.0
C108 C 0.08895 0.88485 0.61429 0.0
C109 C 0.02506 0.90533 0.54677 0.0
C110 C 0.06096 0.86007 0.60966 0.0
N111 N 0.10495 0.97904 0.55905 0.0
C112 C 0.1326 1.00287 0.55719 0.0
C113 C 0.14379 0.93613 0.62176 0.0
C114 C 0.11084 0.94534 0.58813 0.0
C115 C 0.171 0.96184 0.62329 0.0
C116 C 0.1656 0.99509 0.59011 0.0
H117 H 0.06383 0.83298 0.63211 0.0
H118 H 0.12576 0.84931 0.67215 0.0
H119 H 0.17379 0.89412 0.67858 0.0
O120 O 0.08259 0.99308 0.4505 0.0
O121 O 0.04217 0.97682 0.59043 0.0
O122 O 0.04935 0.03179 0.61468 0.0
O123 O 0.0424 0.95174 0.45313 0.0
O124 O 0.06793 0.04735 0.49688 0.0
O125 O 0.06017 0.06758 0.56975 0.0
O126 O 0.97027 0.05306 0.62995 0.0
O127 O 1.00328 0.07414 0.48226 0.0
O128 O 0.99847 0.01972 0.45569 0.0
O129 O 1.00049 0.10184 0.61519 0.0
O130 O 0.97677 1.00503 0.57283 0.0
O131 O 0.98709 0.98186 0.5031 0.0
C132 C 0.05376 0.99664 0.62481 0.0
C133 C 0.05954 0.974 0.37352 0.0
C134 C 0.07457 0.96487 0.29291 0.0
C135 C 0.04838 0.99087 0.26657 0.0
C136 C 0.03338 0.99971 0.34664 0.0
C137 C 0.02776 1.00795 0.29335 0.0
C138 C 0.0798 0.95634 0.34656 0.0
C139 C 0.07623 0.06913 0.53012 0.0
C140 C 0.06749 0.96687 0.4296 0.0
C141 C 0.12147 0.87593 0.64845 0.0
C142 C 0.14878 0.9015 0.65222 0.0
C143 C 0.99172 0.05451 0.44774 0.0
C144 C 0.9944 0.08032 0.70024 0.0
C145 C 0.9856 0.09317 0.78239 0.0
C146 C 0.02077 0.08013 0.80375 0.0
C147 C 0.02912 0.06719 0.72241 0.0
C148 C 0.97262 0.09283 0.73029 0.0
C149 C 0.04214 0.06698 0.77401 0.0
C150 C 0.96935 0.98235 0.54068 0.0
C151 C 0.98116 0.08283 0.64531 0.0
H152 H 0.04377 0.99782 0.22524 0.0
H153 H 1.01769 1.01369 0.36683 0.0
H154 H 1.00762 0.02789 0.27276 0.0
H155 H 0.10035 0.93679 0.36737 0.0
H156 H 0.0322 0.08064 0.84322 0.0
H157 H 0.04628 0.05766 0.69965 0.0
H158 H 0.9456 0.10232 0.71278 0.0
H159 H 0.06911 0.05711 0.79087 0.0
Eu160 Eu 0.48545 0.5054 0.998 0.0
C161 C 0.63593 0.57125 0.05345 0.0
N162 N 0.62333 0.54014 0.07831 0.0
C163 C 0.67866 0.50955 0.08102 0.0
C164 C 0.6704 0.57233 0.04027 0.0
C165 C 0.64421 0.50967 0.09291 0.0
C166 C 0.69176 0.54096 0.05436 0.0
C167 C 0.62575 0.63405 0.01231 0.0
C168 C 0.61366 0.60174 0.03938 0.0
C169 C 0.66 0.63512 0.99894 0.0
C170 C 0.68226 0.60438 0.01291 0.0
Eu171 Eu 0.56453 0.54246 0.09519 0.0
N172 N 0.58004 0.59963 0.05128 0.0
C173 C 0.60305 0.6644 0.99949 0.0
C174 C 0.55893 0.62986 0.04189 0.0
C175 C 0.56975 0.66242 0.01505 0.0
H176 H 0.63445 0.48555 0.11433 0.0
H177 H 0.55256 0.68612 0.00696 0.0
H178 H 0.41357 0.55819 0.98716 0.0
H179 H 0.5045 0.36033 0.07549 0.0
H180 H 0.53417 0.62956 0.05607 0.0
H181 H 0.61133 0.68968 0.97864 0.0
H182 H 0.5185 0.41885 0.02681 0.0
H183 H 0.6951 0.48527 0.09245 0.0
H184 H 0.66955 0.65963 0.97779 0.0
H185 H 0.70858 0.60564 1.00218 0.0
H186 H 0.35403 0.55414 0.01326 0.0
H187 H 0.7184 0.54071 0.04493 0.0
H188 H 0.44835 0.35289 0.11081 0.0
N189 N 0.42775 0.50359 0.01972 0.0
C190 C 0.41732 0.47128 0.04423 0.0
C191 C 0.37163 0.53069 0.0224 0.0
C192 C 0.38361 0.46775 0.05989 0.0
C193 C 0.40542 0.53301 0.00801 0.0
C194 C 0.36073 0.49798 0.04865 0.0
N195 N 0.47374 0.44638 0.04053 0.0
C196 C 0.49533 0.41702 0.04494 0.0
C197 C 0.43122 0.40845 0.08192 0.0
C198 C 0.44112 0.44205 0.05552 0.0
C199 C 0.45496 0.37912 0.09069 0.0
C200 C 0.48681 0.38328 0.0712 0.0
H201 H 0.33463 0.49636 0.06008 0.0
H202 H 0.34841 0.43137 0.09964 0.0
H203 H 0.38998 0.37944 0.1187 0.0
O204 O 0.4857 0.47539 0.93643 0.0
O205 O 0.47728 0.50744 0.07863 0.0
O206 O 0.53282 0.49487 0.12853 0.0
O207 O 0.4432 0.51396 0.93021 0.0
O208 O 0.54155 0.47958 0.01285 0.0
O209 O 0.56559 0.48233 0.0968 0.0
O210 O 0.56255 0.57375 0.15485 0.0
O211 O 0.57206 0.54178 0.01396 0.0
O212 O 0.51636 0.55342 0.96395 0.0
O213 O 0.60549 0.53503 0.16439 0.0
O214 O 0.50924 0.56976 0.07945 0.0
O215 O 0.48238 0.5655 0.99676 0.0
C216 C 0.49764 0.49264 0.12172 0.0
C217 C 0.45938 0.50447 0.85363 0.0
C218 C 0.44895 0.49357 0.76609 0.0
C219 C 0.46324 0.52778 0.75029 0.0
C220 C 0.47375 0.53832 0.8372 0.0
C221 C 0.47557 0.54988 0.78568 0.0
C222 C 0.44711 0.48221 0.81814 0.0
C223 C 0.56414 0.46788 0.0559 0.0
C224 C 0.45723 0.49175 0.90764 0.0
C225 C 0.37408 0.43451 0.08698 0.0
C226 C 0.39782 0.40497 0.09801 0.0
C227 C 0.55143 0.55691 0.9713 0.0
C228 C 0.58673 0.54523 0.23879 0.0
C229 C 0.59659 0.5552 0.32672 0.0
C230 C 0.58009 0.52191 0.34106 0.0
C231 C 0.57022 0.5123 0.25382 0.0
C232 C 0.59976 0.56663 0.27515 0.0
C233 C 0.56694 0.50076 0.30478 0.0
C234 C 0.48552 0.58075 0.03729 0.0
C235 C 0.59053 0.55763 0.18535 0.0
H236 H 0.46461 0.53763 0.71049 0.0
H237 H 0.48344 0.55578 0.86411 0.0
H238 H 0.48654 0.57609 0.7731 0.0
H239 H 0.43669 0.45579 0.83133 0.0
H240 H 0.57775 0.51191 0.38049 0.0
H241 H 0.56007 0.49549 0.22627 0.0
H242 H 0.61198 0.59231 0.26305 0.0
H243 H 0.55433 0.47522 0.31626 0.0
H244 H 0.22561 0.23439 0.42104 0.0
H245 H 0.28686 0.16081 0.54702 0.0
H246 H 0.17 0.2036 0.43855 0.0
H247 H 0.23151 0.13038 0.56509 0.0
H248 H 0.12031 0.09877 0.60315 0.0
H249 H 0.17105 0.13921 0.59171 0.0
H250 H 0.14859 0.13954 0.42965 0.0
H251 H 0.09823 0.09892 0.44109 0.0
C252 C 0.22698 0.2123 0.45332 0.0
C253 C 0.26038 0.2 0.48284 0.0
C254 C 0.19529 0.19449 0.46308 0.0
C255 C 0.19642 0.16447 0.50308 0.0
C256 C 0.2297 0.15357 0.53431 0.0
C257 C 0.26136 0.17093 0.52399 0.0
C258 C 0.12601 0.10781 0.56504 0.0
C259 C 0.1054 0.09555 0.52304 0.0
C260 C 0.15509 0.13085 0.55853 0.0
C261 C 0.16374 0.14263 0.50977 0.0
C262 C 0.14237 0.13127 0.46761 0.0
C263 C 0.11372 0.10777 0.47422 0.0
H264 H 0.40586 0.7787 0.09326 0.0
H265 H 0.32292 0.75494 0.97227 0.0
H266 H 0.43691 0.72282 0.09481 0.0
H267 H 0.35352 0.69782 0.97506 0.0
H268 H 0.44505 0.62373 0.95387 0.0
H269 H 0.40801 0.67622 0.953 0.0
H270 H 0.43369 0.65891 0.11779 0.0
H271 H 0.47115 0.60728 0.11854 0.0
C272 C 0.39409 0.76134 0.06717 0.0
C273 C 0.36206 0.7715 0.0323 0.0
C274 C 0.41173 0.72901 0.06844 0.0
C275 C 0.39781 0.70567 0.03503 0.0
C276 C 0.36523 0.71532 1.00094 0.0
C277 C 0.34746 0.74783 0.99973 0.0
C278 C 0.44258 0.63107 0.98988 0.0
C279 C 0.46139 0.61152 0.03622 0.0
C280 C 0.42117 0.66104 0.98943 0.0
C281 C 0.41803 0.67207 0.03531 0.0
C282 C 0.43602 0.65174 0.08164 0.0
C283 C 0.45748 0.622 0.08207 0.0
H284 H 0.87512 0.77463 0.60637 0.0
H285 H 0.79788 0.84243 0.6446 0.0
H286 H 0.90592 0.82817 0.5695 0.0
H287 H 0.82901 0.89628 0.60833 0.0
H288 H 0.93393 0.96782 0.62177 0.0
H289 H 0.89185 0.91944 0.64039 0.0
H290 H 0.89888 0.88529 0.49917 0.0
H291 H 0.94027 0.93454 0.47941 0.0
C292 C 0.86425 0.80109 0.60561 0.0
C293 C 0.83407 0.80451 0.62799 0.0
C294 C 0.88182 0.83172 0.58452 0.0
C295 C 0.86999 0.86644 0.58625 0.0
C296 C 0.83882 0.86986 0.60668 0.0
C297 C 0.82084 0.83915 0.627 0.0
C298 C 0.9262 0.95042 0.59416 0.0
C299 C 0.94118 0.95476 0.54949 0.0
C300 C 0.90188 0.92275 0.60481 0.0
C301 C 0.89218 0.89844 0.57138 0.0
C302 C 0.90613 0.90342 0.52588 0.0
C303 C 0.92996 0.93157 0.51473 0.0
H304 H 0.72351 0.31805 0.00979 0.0
H305 H 0.65271 0.25386 0.09816 0.0
H306 H 0.69299 0.37317 0.01678 0.0
H307 H 0.62251 0.30873 0.10567 0.0
H308 H 0.59431 0.41861 0.13971 0.0
H309 H 0.63306 0.36689 0.14219 0.0
H310 H 0.62857 0.39705 0.97937 0.0
H311 H 0.58962 0.44844 0.97678 0.0
C312 C 0.702 0.31584 0.03169 0.0
C313 C 0.69041 0.28178 0.05341 0.0
C314 C 0.68436 0.34728 0.03534 0.0
C315 C 0.65525 0.34522 0.06156 0.0
C316 C 0.64497 0.3112 0.08551 0.0
C317 C 0.66217 0.27982 0.08111 0.0
C318 C 0.60184 0.4143 0.10455 0.0
C319 C 0.58881 0.43745 0.05801 0.0
C320 C 0.62391 0.38468 0.10596 0.0
C321 C 0.63393 0.378 0.061 0.0
C322 C 0.62163 0.40172 0.01471 0.0
C323 C 0.59908 0.43095 0.01317 0.0
H324 H 0.23476 0.908 0.12537 0.0
H325 H 0.14218 0.84292 0.08701 0.0
H326 H 0.206 0.92912 0.1888 0.0
H327 H 0.11359 0.86364 0.15093 0.0
H328 H 0.0865 0.89276 0.29955 0.0
H329 H 0.12166 0.86437 0.24931 0.0
H330 H 0.14854 0.96971 0.17249 0.0
H331 H 0.11306 0.99795 0.22194 0.0
C332 C 0.20874 0.89741 0.13163 0.0
C333 C 0.19068 0.8738 0.10146 0.0
C334 C 0.19217 0.90972 0.16753 0.0
C335 C 0.15751 0.89816 0.1745 0.0
C336 C 0.1404 0.87282 0.14653 0.0
C337 C 0.15669 0.86101 0.10999 0.0
C338 C 0.10017 0.90973 0.27214 0.0
C339 C 0.09698 0.9475 0.26436 0.0
C340 C 0.12014 0.89354 0.24339 0.0
C341 C 0.13794 0.91487 0.20726 0.0
C342 C 0.13542 0.95263 0.20048 0.0
C343 C 0.11491 0.96877 0.22841 0.0
H344 H 0.70924 0.6673 0.80312 0.0
H345 H 0.60864 0.68815 0.69711 0.0
H346 H 0.67685 0.63914 0.86985 0.0
H347 H 0.57652 0.65762 0.76267 0.0
H348 H 0.52466 0.61677 0.90183 0.0
H349 H 0.5559 0.65515 0.84039 0.0
H350 H 0.64841 0.58348 0.88902 0.0
H351 H 0.61757 0.54618 0.95095 0.0
C352 C 0.68018 0.66642 0.79413 0.0
C353 C 0.66168 0.67965 0.74435 0.0
C354 C 0.66158 0.64962 0.83226 0.0
C355 C 0.62405 0.64519 0.8215 0.0
C356 C 0.60535 0.66042 0.7726 0.0
C357 C 0.62389 0.67763 0.73469 0.0
C358 C 0.55157 0.60923 0.89889 0.0
C359 C 0.56873 0.57859 0.93109 0.0
C360 C 0.56956 0.63122 0.86381 0.0
C361 C 0.60493 0.62273 0.85985 0.0
C362 C 0.62163 0.59155 0.89165 0.0
C363 C 0.60381 0.56987 0.92687 0.0
H364 H 0.91575 0.18955 0.15288 0.0
H365 H 0.82076 0.13275 0.18973 0.0
H366 H 0.95025 0.16027 0.23454 0.0
H367 H 0.85512 0.10409 0.27269 0.0
H368 H 0.93994 0.02589 0.38249 0.0
H369 H 0.90286 0.05791 0.30372 0.0
H370 H 0.95835 0.15679 0.3252 0.0
H371 H 0.99613 0.12455 0.40213 0.0
C372 C 0.90212 0.17123 0.17895 0.0
C373 C 0.86561 0.16332 0.16482 0.0
C374 C 0.92184 0.15456 0.2259 0.0
C375 C 0.90554 0.12957 0.26004 0.0
C376 C 0.8686 0.12278 0.24688 0.0
C377 C 0.84879 0.13958 0.19975 0.0
C378 C 0.94437 0.05436 0.36988 0.0
C379 C 0.97075 0.07278 0.39847 0.0
C380 C 0.92284 0.07283 0.32526 0.0
C381 C 0.92746 0.11 0.30831 0.0
C382 C 0.95421 0.12816 0.33682 0.0
C383 C 0.9757 0.10973 0.38116 0.0
H384 H 0.32603 0.3797 0.53938 0.0
H385 H 0.43668 0.3509 0.54631 0.0
H386 H 0.34441 0.41289 0.60939 0.0
H387 H 0.4552 0.38278 0.61704 0.0
H388 H 0.48041 0.48275 0.68677 0.0
H389 H 0.46 0.44478 0.62436 0.0
H390 H 0.36989 0.41064 0.69899 0.0
H391 H 0.38947 0.45017 0.76028 0.0
C392 C 0.35414 0.37974 0.55696 0.0
C393 C 0.38002 0.3629 0.53784 0.0
C394 C 0.36474 0.39868 0.59695 0.0
C395 C 0.40139 0.40098 0.6184 0.0
C396 C 0.42688 0.38234 0.60071 0.0
C397 C 0.41632 0.36374 0.56065 0.0
C398 C 0.45603 0.46748 0.68966 0.0
C399 C 0.43656 0.46968 0.72853 0.0
C400 C 0.44457 0.44522 0.65425 0.0
C401 C 0.41342 0.42432 0.65683 0.0
C402 C 0.39388 0.42648 0.69569 0.0
C403 C 0.40534 0.44886 0.73116 0.0
H404 H 0.69101 0.7132 0.5143 0.0
H405 H 0.66748 0.61675 0.61661 0.0
H406 H 0.6688 0.68387 0.44101 0.0
H407 H 0.64488 0.58819 0.54417 0.0
H408 H 0.56591 0.56671 0.40643 0.0
H409 H 0.5904 0.59972 0.4737 0.0
H410 H 0.68275 0.6288 0.40221 0.0
H411 H 0.6587 0.5949 0.33512 0.0
C412 C 0.68134 0.68578 0.52114 0.0
C413 C 0.68022 0.66763 0.57118 0.0
C414 C 0.66861 0.66906 0.47931 0.0
C415 C 0.65445 0.63403 0.48695 0.0
C416 C 0.65474 0.61553 0.53703 0.0
C417 C 0.66763 0.63199 0.57853 0.0
C418 C 0.59156 0.57986 0.40508 0.0
C419 C 0.61052 0.57765 0.36565 0.0
C420 C 0.60551 0.59893 0.44353 0.0
C421 C 0.63865 0.61654 0.44342 0.0
C422 C 0.65705 0.61563 0.40306 0.0
C423 C 0.64321 0.59625 0.36465 0.0
H424 H 0.81703 0.15621 0.93259 0.0
H425 H 0.91743 0.19057 0.01336 0.0
H426 H 0.84933 0.1374 0.87102 0.0
H427 H 0.94946 0.16978 0.9535 0.0
H428 H 0.98369 0.07029 0.88446 0.0
H429 H 0.94923 0.09599 0.93722 0.0
H430 H 0.89964 0.17282 0.80567 0.0
H431 H 0.93577 0.14901 0.75281 0.0
C432 C 0.84576 0.16037 0.93685 0.0
C433 C 0.86462 0.17451 0.97851 0.0
C434 C 0.8642 0.14935 0.90178 0.0
C435 C 0.90178 0.15181 0.90818 0.0
C436 C 0.92048 0.16727 0.94829 0.0
C437 C 0.90208 0.17893 0.98266 0.0
C438 C 0.96598 0.09303 0.86659 0.0
C439 C 0.96294 0.10762 0.81414 0.0
C440 C 0.94604 0.10749 0.89687 0.0
C441 C 0.92196 0.13629 0.87531 0.0
C442 C 0.91796 0.15043 0.82292 0.0
C443 C 0.93852 0.13651 0.79271 0.0
H444 H 0.41672 0.3252 0.34101 0.0
H445 H 0.37229 0.42479 0.36125 0.0
H446 H 0.44507 0.35863 0.27225 0.0
H447 H 0.40144 0.45823 0.29396 0.0
H448 H 0.43049 0.50366 0.13896 0.0
H449 H 0.3995 0.46832 0.20274 0.0
H450 H 0.49453 0.40147 0.26268 0.0
H451 H 0.52509 0.43622 0.19725 0.0
C452 C 0.41267 0.35415 0.33041 0.0
C453 C 0.39228 0.37234 0.35667 0.0
C454 C 0.42931 0.37336 0.2915 0.0
C455 C 0.42576 0.41116 0.27781 0.0
C456 C 0.40455 0.42914 0.30319 0.0
C457 C 0.38805 0.41 0.34208 0.0
C458 C 0.44469 0.48128 0.1656 0.0
C459 C 0.48012 0.47255 0.16295 0.0
C460 C 0.42703 0.46119 0.20244 0.0
C461 C 0.44447 0.43198 0.23786 0.0
C462 C 0.48013 0.42347 0.23553 0.0
C463 C 0.49781 0.44363 0.19854 0.0
H464 H 0.18681 0.85042 0.87372 0.0
H465 H 0.16288 0.94103 0.93909 0.0
H466 H 0.15237 0.87952 0.79068 0.0
H467 H 0.12839 0.96966 0.85697 0.0
H468 H 0.10411 0.02699 0.68934 0.0
H469 H 0.14002 0.99731 0.77021 0.0
H470 H 0.08707 0.89662 0.75281 0.0
H471 H 0.05048 0.92654 0.67258 0.0
C472 C 0.1742 0.87647 0.87031 0.0
C473 C 0.1772 0.89327 0.91295 0.0
C474 C 0.15437 0.893 0.82301 0.0
C475 C 0.1377 0.92685 0.81744 0.0
C476 C 0.14114 0.94373 0.85998 0.0
C477 C 0.16057 0.92713 0.90714 0.0
C478 C 0.09985 0.99863 0.70309 0.0
C479 C 0.07456 0.97905 0.67463 0.0
C480 C 0.12051 0.9816 0.74923 0.0
C481 C 0.11644 0.9446 0.76771 0.0
C482 C 0.09113 0.92504 0.7392 0.0
C483 C 0.07018 0.94217 0.69335 0.0
loop_
_geom_bond_atom_site_label_1
_geom_bond_atom_site_label_2
_geom_bond_distance
_geom_bond_site_symmetry_2
_ccdc_geom_bond_type
H0 C1 0.949 . S
C1 H0 0.949 . S
C1 C2 1.395 . S
C1 C3 1.391 . S
C2 C1 1.395 . S
C2 C5 1.390 . S
C3 C1 1.391 . S
C3 C7 1.387 1_554 S
C3 C8 1.491 . S
H4 C5 0.950 . S
C5 C2 1.390 . S
C5 H4 0.950 . S
C5 C6 1.378 1_554 S
C6 C5 1.378 1_556 S
C6 C7 1.409 . S
C7 C3 1.387 1_556 S
C7 C6 1.409 . S
C7 H9 0.951 . S
C8 C3 1.491 . S
C8 C10 1.382 . S
C8 C12 1.404 1_554 S
H9 C7 0.951 . S
C10 C8 1.382 . S
C10 C11 1.390 . S
C10 H15 0.949 . S
C11 C10 1.390 . S
C11 C16 1.399 . S
C12 C8 1.404 1_556 S
C12 H13 0.950 . S
C12 C14 1.375 . S
H13 C12 0.950 . S
C14 C12 1.375 . S
C14 C16 1.382 1_556 S
C14 H18 0.950 . S
H15 C10 0.949 . S
C16 C11 1.399 . S
C16 C14 1.382 1_554 S
C16 H17 0.952 . S
H17 C16 0.952 . S
H18 C14 0.950 . S
H19 C20 0.949 . S
C20 H19 0.949 . S
C20 C21 1.395 . S
C20 C22 1.391 . S
C21 C20 1.395 . S
C21 C24 1.390 . S
C22 C20 1.391 . S
C22 C26 1.387 . S
C22 C27 1.491 . S
H23 C24 0.950 . S
C24 C21 1.390 . S
C24 H23 0.950 . S
C24 C25 1.378 . S
C25 C24 1.378 . S
C25 C26 1.409 . S
C26 C22 1.387 . S
C26 C25 1.409 . S
C26 H28 0.951 . S
C27 C22 1.491 . S
C27 C29 1.382 . S
C27 C31 1.404 . S
H28 C26 0.951 . S
C29 C27 1.382 . S
C29 C30 1.390 . S
C29 H34 0.949 . S
C30 C29 1.390 . S
C30 C35 1.399 . S
C31 C27 1.404 . S
C31 H32 0.950 . S
C31 C33 1.375 . S
H32 C31 0.950 . S
C33 C31 1.375 . S
C33 C35 1.382 . S
C33 H37 0.950 . S
H34 C29 0.949 . S
C35 C30 1.399 . S
C35 C33 1.382 . S
C35 H36 0.952 . S
H36 C35 0.952 . S
H37 C33 0.950 . S
H38 C39 0.949 . S
C39 H38 0.949 . S
C39 C40 1.395 . S
C39 C41 1.391 . S
C40 C39 1.395 . S
C40 C43 1.390 . S
C41 C39 1.391 . S
C41 C45 1.387 1_554 S
C41 C46 1.491 . S
H42 C43 0.950 . S
C43 C40 1.390 . S
C43 H42 0.950 . S
C43 C44 1.378 . S
C44 C43 1.378 . S
C44 C45 1.409 1_554 S
C45 C41 1.387 1_556 S
C45 C44 1.409 1_556 S
C45 H47 0.951 . S
C46 C41 1.491 . S
C46 C48 1.382 . S
C46 C50 1.404 1_554 S
H47 C45 0.951 . S
C48 C46 1.382 . S
C48 C49 1.390 . S
C48 H53 0.949 . S
C49 C48 1.390 . S
C49 C54 1.399 1_554 S
C50 C46 1.404 1_556 S
C50 H51 0.950 . S
C50 C52 1.375 . S
H51 C50 0.950 . S
C52 C50 1.375 . S
C52 C54 1.382 . S
C52 H56 0.950 . S
H53 C48 0.949 . S
C54 C49 1.399 1_556 S
C54 C52 1.382 . S
C54 H55 0.952 . S
H55 C54 0.952 . S
H56 C52 0.950 . S
H57 C58 0.949 . S
C58 H57 0.949 . S
C58 C59 1.395 . S
C58 C60 1.391 . S
C59 C58 1.395 . S
C59 C62 1.390 . S
C60 C58 1.391 . S
C60 C64 1.387 . S
C60 C65 1.491 . S
H61 C62 0.950 . S
C62 C59 1.390 . S
C62 H61 0.950 . S
C62 C63 1.378 . S
C63 C62 1.378 . S
C63 C64 1.409 . S
C64 C60 1.387 . S
C64 C63 1.409 . S
C64 H66 0.951 . S
C65 C60 1.491 . S
C65 C67 1.382 . S
C65 C69 1.404 . S
H66 C64 0.951 . S
C67 C65 1.382 . S
C67 C68 1.390 . S
C67 H72 0.949 . S
C68 C67 1.390 . S
C68 C73 1.399 . S
C69 C65 1.404 . S
C69 H70 0.950 . S
C69 C71 1.375 . S
H70 C69 0.950 . S
C71 C69 1.375 . S
C71 C73 1.382 . S
C71 H75 0.950 . S
H72 C67 0.949 . S
C73 C68 1.399 . S
C73 C71 1.382 . S
C73 H74 0.952 . S
H74 C73 0.952 . S
H75 C71 0.950 . S
Eu76 N105 2.600 . S
Eu76 N111 2.562 . S
Eu76 O120 2.462 . S
Eu76 O121 2.373 . S
Eu76 O123 2.432 . S
Eu76 O124 2.291 1_565 S
Eu76 O128 2.335 1_465 S
Eu76 O131 2.372 1_455 S
Eu76 C140 2.787 . S
C77 N78 1.365 . S
C77 C80 1.405 . S
C77 C84 1.448 . S
N78 C77 1.365 . S
N78 C81 1.319 1_655 S
N78 Eu87 2.600 . S
C79 C81 1.397 . S
C79 C82 1.367 1_455 S
C79 H99 0.931 . S
C80 C77 1.405 . S
C80 C82 1.403 . S
C80 C86 1.439 . S
C81 N78 1.319 1_455 S
C81 C79 1.397 . S
C81 H92 0.930 . S
C82 C79 1.367 1_655 S
C82 C80 1.403 . S
C82 H103 0.929 . S
C83 C84 1.430 . S
C83 C85 1.387 . S
C83 C89 1.404 . S
C84 C77 1.448 . S
C84 C83 1.430 . S
C84 N88 1.351 . S
C85 C83 1.387 . S
C85 C86 1.374 . S
C85 H100 0.931 . S
C86 C80 1.439 . S
C86 C85 1.374 . S
C86 H101 0.931 . S
Eu87 N78 2.600 . S
Eu87 N88 2.562 . S
Eu87 O122 2.335 1_655 S
Eu87 O125 2.372 1_655 S
Eu87 O126 2.462 . S
Eu87 O127 2.373 . S
Eu87 O129 2.432 . S
Eu87 O130 2.291 1_545 S
Eu87 C151 2.787 . S
N88 C84 1.351 . S
N88 Eu87 2.562 . S
N88 C90 1.325 . S
C89 C83 1.404 . S
C89 C91 1.366 . S
C89 H97 0.930 . S
C90 N88 1.325 . S
C90 C91 1.416 . S
C90 H96 0.929 . S
C91 C89 1.366 . S
C91 C90 1.416 . S
C91 H93 0.930 . S
H92 C81 0.930 . S
H93 C91 0.930 . S
H94 C109 0.930 1_655 S
H95 C116 0.930 . S
H96 C90 0.929 . S
H97 C89 0.930 . S
H98 C112 0.929 . S
H99 C79 0.931 . S
H100 C85 0.931 . S
H101 C86 0.931 . S
H102 C107 0.931 1_655 S
H103 C82 0.929 . S
H104 C115 0.930 . S
N105 Eu76 2.600 . S
N105 C106 1.365 . S
N105 C109 1.319 . S
C106 N105 1.365 . S
C106 C108 1.405 . S
C106 C114 1.448 . S
C107 H102 0.931 1_455 S
C107 C109 1.397 . S
C107 C110 1.367 . S
C108 C106 1.405 . S
C108 C110 1.403 . S
C108 C141 1.439 . S
C109 H94 0.930 1_455 S
C109 N105 1.319 . S
C109 C107 1.397 . S
C110 C107 1.367 . S
C110 C108 1.403 . S
C110 H117 0.929 . S
N111 Eu76 2.562 . S
N111 C112 1.325 . S
N111 C114 1.351 . S
C112 H98 0.929 . S
C112 N111 1.325 . S
C112 C116 1.416 . S
C113 C114 1.430 . S
C113 C115 1.404 . S
C113 C142 1.387 . S
C114 C106 1.448 . S
C114 N111 1.351 . S
C114 C113 1.430 . S
C115 H104 0.930 . S
C115 C113 1.404 . S
C115 C116 1.366 . S
C116 H95 0.930 . S
C116 C112 1.416 . S
C116 C115 1.366 . S
H117 C110 0.929 . S
H118 C141 0.931 . S
H119 C142 0.931 . S
O120 Eu76 2.462 . S
O120 C140 1.252 . S
O121 Eu76 2.373 . S
O121 C132 1.249 . S
O122 Eu87 2.335 1_455 S
O122 C132 1.264 1_545 S
O123 Eu76 2.432 . S
O123 C140 1.268 . S
O124 Eu76 2.291 1_545 S
O124 C139 1.255 . S
O125 Eu87 2.372 1_455 S
O125 C139 1.257 . S
O126 Eu87 2.462 . S
O126 C151 1.252 . S
O127 Eu87 2.373 . S
O127 C143 1.249 . S
O128 Eu76 2.335 1_645 S
O128 C143 1.264 . S
O129 Eu87 2.432 . S
O129 C151 1.268 . S
O130 Eu87 2.291 1_565 S
O130 C150 1.255 . S
O131 Eu76 2.372 1_655 S
O131 C150 1.257 . S
C132 O121 1.249 . S
C132 O122 1.264 1_565 S
C133 C136 1.382 . S
C133 C138 1.390 . S
C133 C140 1.506 . S
C134 C135 1.398 . S
C134 C138 1.392 . S
C135 C134 1.398 . S
C135 C137 1.372 . S
C135 H152 0.931 . S
C136 C133 1.382 . S
C136 C137 1.390 . S
C136 H153 0.931 . S
C137 C135 1.372 . S
C137 C136 1.390 . S
C137 H154 0.929 . S
C138 C133 1.390 . S
C138 C134 1.392 . S
C138 H155 0.930 . S
C139 O124 1.255 . S
C139 O125 1.257 . S
C140 Eu76 2.787 . S
C140 O120 1.252 . S
C140 O123 1.268 . S
C140 C133 1.506 . S
C141 C108 1.439 . S
C141 H118 0.931 . S
C141 C142 1.374 . S
C142 C113 1.387 . S
C142 H119 0.931 . S
C142 C141 1.374 . S
C143 O127 1.249 . S
C143 O128 1.264 . S
C144 C147 1.382 . S
C144 C148 1.390 . S
C144 C151 1.506 . S
C145 C146 1.398 . S
C145 C148 1.392 . S
C146 C145 1.398 . S
C146 C149 1.372 . S
C146 H156 0.931 . S
C147 C144 1.382 . S
C147 C149 1.390 . S
C147 H157 0.931 . S
C148 C144 1.390 . S
C148 C145 1.392 . S
C148 H158 0.930 . S
C149 C146 1.372 . S
C149 C147 1.390 . S
C149 H159 0.929 . S
C150 O130 1.255 . S
C150 O131 1.257 . S
C151 Eu87 2.787 . S
C151 O126 1.252 . S
C151 O129 1.268 . S
C151 C144 1.506 . S
H152 C135 0.931 . S
H153 C136 0.931 . S
H154 C137 0.929 . S
H155 C138 0.930 . S
H156 C146 0.931 . S
H157 C147 0.931 . S
H158 C148 0.930 . S
H159 C149 0.929 . S
Eu160 N189 2.596 1_556 S
Eu160 N195 2.562 1_556 S
Eu160 O204 2.462 . S
Eu160 O205 2.373 1_556 S
Eu160 O207 2.432 . S
Eu160 O208 2.291 1_556 S
Eu160 O212 2.335 . S
Eu160 O215 2.372 1_556 S
Eu160 C224 2.787 . S
C161 N162 1.365 . S
C161 C164 1.405 . S
C161 C168 1.448 . S
N162 C161 1.365 . S
N162 C165 1.319 . S
N162 Eu171 2.600 . S
C163 C165 1.397 . S
C163 C166 1.367 . S
C163 H183 0.931 . S
C164 C161 1.405 . S
C164 C166 1.403 . S
C164 C170 1.439 . S
C165 N162 1.319 . S
C165 C163 1.397 . S
C165 H176 0.930 . S
C166 C163 1.367 . S
C166 C164 1.403 . S
C166 H187 0.929 . S
C167 C168 1.430 . S
C167 C169 1.387 . S
C167 C173 1.404 . S
C168 C161 1.448 . S
C168 C167 1.430 . S
C168 N172 1.351 . S
C169 C167 1.387 . S
C169 C170 1.374 . S
C169 H184 0.931 . S
C170 C164 1.439 . S
C170 C169 1.374 . S
C170 H185 0.931 . S
Eu171 N162 2.600 . S
Eu171 N172 2.562 . S
Eu171 O206 2.335 . S
Eu171 O209 2.372 . S
Eu171 O210 2.462 . S
Eu171 O211 2.373 . S
Eu171 O213 2.432 . S
Eu171 O214 2.291 . S
Eu171 C235 2.787 . S
N172 C168 1.351 . S
N172 Eu171 2.562 . S
N172 C174 1.325 . S
C173 C167 1.404 . S
C173 C175 1.366 . S
C173 H181 0.930 . S
C174 N172 1.325 . S
C174 C175 1.416 . S
C174 H180 0.929 . S
C175 C173 1.366 . S
C175 C174 1.416 . S
C175 H177 0.930 . S
H176 C165 0.930 . S
H177 C175 0.930 . S
H178 C193 0.930 . S
H179 C200 0.930 . S
H180 C174 0.929 . S
H181 C173 0.930 . S
H182 C196 0.929 . S
H183 C163 0.931 . S
H184 C169 0.931 . S
H185 C170 0.931 . S
H186 C191 0.931 . S
H187 C166 0.929 . S
H188 C199 0.930 . S
N189 Eu160 2.596 1_554 S
N189 C190 1.369 . S
N189 C193 1.320 1_554 S
C190 N189 1.369 . S
C190 C192 1.405 . S
C190 C198 1.448 . S
C191 H186 0.931 . S
C191 C193 1.397 . S
C191 C194 1.367 1_556 S
C192 C190 1.405 . S
C192 C194 1.403 . S
C192 C225 1.439 . S
C193 H178 0.930 . S
C193 N189 1.320 1_556 S
C193 C191 1.397 . S
C194 C191 1.367 1_554 S
C194 C192 1.403 . S
C194 H201 0.929 . S
N195 Eu160 2.562 1_554 S
N195 C196 1.325 . S
N195 C198 1.351 . S
C196 H182 0.929 . S
C196 N195 1.325 . S
C196 C200 1.416 . S
C197 C198 1.430 . S
C197 C199 1.404 . S
C197 C226 1.387 . S
C198 C190 1.448 . S
C198 N195 1.351 . S
C198 C197 1.430 . S
C199 H188 0.930 . S
C199 C197 1.404 . S
C199 C200 1.366 . S
C200 H179 0.930 . S
C200 C196 1.416 . S
C200 C199 1.366 . S
H201 C194 0.929 . S
H202 C225 0.931 . S
H203 C226 0.931 . S
O204 Eu160 2.462 . S
O204 C224 1.252 . S
O205 Eu160 2.373 1_554 S
O205 C216 1.249 . S
O206 Eu171 2.335 . S
O206 C216 1.264 . S
O207 Eu160 2.432 . S
O207 C224 1.268 . S
O208 Eu160 2.291 1_554 S
O208 C223 1.255 . S
O209 Eu171 2.372 . S
O209 C223 1.257 . S
O210 Eu171 2.462 . S
O210 C235 1.252 . S
O211 Eu171 2.373 . S
O211 C227 1.249 1_554 S
O212 Eu160 2.335 . S
O212 C227 1.264 . S
O213 Eu171 2.432 . S
O213 C235 1.268 . S
O214 Eu171 2.291 . S
O214 C234 1.255 . S
O215 Eu160 2.372 1_554 S
O215 C234 1.257 . S
C216 O205 1.249 . S
C216 O206 1.264 . S
C217 C220 1.382 . S
C217 C222 1.390 . S
C217 C224 1.506 . S
C218 C219 1.398 . S
C218 C222 1.392 . S
C219 C218 1.398 . S
C219 C221 1.372 . S
C219 H236 0.931 . S
C220 C217 1.382 . S
C220 C221 1.390 . S
C220 H237 0.931 . S
C221 C219 1.372 . S
C221 C220 1.390 . S
C221 H238 0.929 . S
C222 C217 1.390 . S
C222 C218 1.392 . S
C222 H239 0.930 . S
C223 O208 1.255 . S
C223 O209 1.257 . S
C224 Eu160 2.787 . S
C224 O204 1.252 . S
C224 O207 1.268 . S
C224 C217 1.506 . S
C225 C192 1.439 . S
C225 H202 0.931 . S
C225 C226 1.374 . S
C226 C197 1.387 . S
C226 H203 0.931 . S
C226 C225 1.374 . S
C227 O211 1.249 1_556 S
C227 O212 1.264 . S
C228 C231 1.382 . S
C228 C232 1.390 . S
C228 C235 1.506 . S
C229 C230 1.398 . S
C229 C232 1.392 . S
C230 C229 1.398 . S
C230 C233 1.372 . S
C230 H240 0.931 . S
C231 C228 1.382 . S
C231 C233 1.390 . S
C231 H241 0.931 . S
C232 C228 1.390 . S
C232 C229 1.392 . S
C232 H242 0.930 . S
C233 C230 1.372 . S
C233 C231 1.390 . S
C233 H243 0.929 . S
C234 O214 1.255 . S
C234 O215 1.257 . S
C235 Eu171 2.787 . S
C235 O210 1.252 . S
C235 O213 1.268 . S
C235 C228 1.506 . S
H236 C219 0.931 . S
H237 C220 0.931 . S
H238 C221 0.929 . S
H239 C222 0.930 . S
H240 C230 0.931 . S
H241 C231 0.931 . S
H242 C232 0.930 . S
H243 C233 0.929 . S
H244 C252 0.950 . S
H245 C257 0.950 . S
H246 C254 0.950 . S
H247 C256 0.950 . S
H248 C258 0.950 . S
H249 C260 0.950 . S
H250 C262 0.950 . S
H251 C263 0.950 . S
C252 H244 0.950 . S
C252 C253 1.386 . S
C252 C254 1.391 . S
C253 C252 1.386 . S
C253 C257 1.393 . S
C254 H246 0.950 . S
C254 C252 1.391 . S
C254 C255 1.400 . S
C255 C254 1.400 . S
C255 C256 1.398 . S
C255 C261 1.491 . S
C256 H247 0.950 . S
C256 C255 1.398 . S
C256 C257 1.391 . S
C257 H245 0.950 . S
C257 C253 1.393 . S
C257 C256 1.391 . S
C258 H248 0.950 . S
C258 C259 1.386 . S
C258 C260 1.391 . S
C259 C258 1.386 . S
C259 C263 1.393 . S
C260 H249 0.950 . S
C260 C258 1.391 . S
C260 C261 1.400 . S
C261 C255 1.491 . S
C261 C260 1.400 . S
C261 C262 1.398 . S
C262 H250 0.950 . S
C262 C261 1.398 . S
C262 C263 1.391 . S
C263 H251 0.950 . S
C263 C259 1.393 . S
C263 C262 1.391 . S
H264 C272 0.950 . S
H265 C277 0.950 . S
H266 C274 0.950 . S
H267 C276 0.950 . S
H268 C278 0.950 . S
H269 C280 0.950 . S
H270 C282 0.950 . S
H271 C283 0.950 . S
C272 H264 0.950 . S
C272 C273 1.386 . S
C272 C274 1.391 . S
C273 C272 1.386 . S
C273 C277 1.393 . S
C274 H266 0.950 . S
C274 C272 1.391 . S
C274 C275 1.400 . S
C275 C274 1.400 . S
C275 C276 1.398 . S
C275 C281 1.491 . S
C276 H267 0.950 . S
C276 C275 1.398 . S
C276 C277 1.391 . S
C277 H265 0.950 . S
C277 C273 1.393 . S
C277 C276 1.391 . S
C278 H268 0.950 . S
C278 C279 1.386 . S
C278 C280 1.391 . S
C279 C278 1.386 . S
C279 C283 1.393 . S
C280 H269 0.950 . S
C280 C278 1.391 . S
C280 C281 1.400 . S
C281 C275 1.491 . S
C281 C280 1.400 . S
C281 C282 1.398 . S
C282 H270 0.950 . S
C282 C281 1.398 . S
C282 C283 1.391 . S
C283 H271 0.950 . S
C283 C279 1.393 . S
C283 C282 1.391 . S
H284 C292 0.950 . S
H285 C297 0.950 . S
H286 C294 0.950 . S
H287 C296 0.950 . S
H288 C298 0.950 . S
H289 C300 0.950 . S
H290 C302 0.950 . S
H291 C303 0.950 . S
C292 H284 0.950 . S
C292 C293 1.386 . S
C292 C294 1.391 . S
C293 C292 1.386 . S
C293 C297 1.393 . S
C294 H286 0.950 . S
C294 C292 1.391 . S
C294 C295 1.400 . S
C295 C294 1.400 . S
C295 C296 1.398 . S
C295 C301 1.491 . S
C296 H287 0.950 . S
C296 C295 1.398 . S
C296 C297 1.391 . S
C297 H285 0.950 . S
C297 C293 1.393 . S
C297 C296 1.391 . S
C298 H288 0.950 . S
C298 C299 1.386 . S
C298 C300 1.391 . S
C299 C298 1.386 . S
C299 C303 1.393 . S
C300 H289 0.950 . S
C300 C298 1.391 . S
C300 C301 1.400 . S
C301 C295 1.491 . S
C301 C300 1.400 . S
C301 C302 1.398 . S
C302 H290 0.950 . S
C302 C301 1.398 . S
C302 C303 1.391 . S
C303 H291 0.950 . S
C303 C299 1.393 . S
C303 C302 1.391 . S
H304 C312 0.950 1_556 S
H305 C317 0.950 . S
H306 C314 0.950 1_556 S
H307 C316 0.950 . S
H308 C318 0.950 . S
H309 C320 0.950 . S
H310 C322 0.950 1_556 S
H311 C323 0.950 1_556 S
C312 H304 0.950 1_554 S
C312 C313 1.386 . S
C312 C314 1.391 . S
C313 C312 1.386 . S
C313 C317 1.393 . S
C314 H306 0.950 1_554 S
C314 C312 1.391 . S
C314 C315 1.400 . S
C315 C314 1.400 . S
C315 C316 1.398 . S
C315 C321 1.491 . S
C316 H307 0.950 . S
C316 C315 1.398 . S
C316 C317 1.391 . S
C317 H305 0.950 . S
C317 C313 1.393 . S
C317 C316 1.391 . S
C318 H308 0.950 . S
C318 C319 1.386 . S
C318 C320 1.391 . S
C319 C318 1.386 . S
C319 C323 1.393 . S
C320 H309 0.950 . S
C320 C318 1.391 . S
C320 C321 1.400 . S
C321 C315 1.491 . S
C321 C320 1.400 . S
C321 C322 1.398 . S
C322 H310 0.950 1_554 S
C322 C321 1.398 . S
C322 C323 1.391 . S
C323 H311 0.950 1_554 S
C323 C319 1.393 . S
C323 C322 1.391 . S
H324 C332 0.950 . S
H325 C337 0.950 . S
H326 C334 0.950 . S
H327 C336 0.950 . S
H328 C338 0.950 . S
H329 C340 0.950 . S
H330 C342 0.950 . S
H331 C343 0.971 . S
C332 H324 0.950 . S
C332 C333 1.386 . S
C332 C334 1.391 . S
C333 C332 1.386 . S
C333 C337 1.393 . S
C334 H326 0.950 . S
C334 C332 1.391 . S
C334 C335 1.400 . S
C335 C334 1.400 . S
C335 C336 1.398 . S
C335 C341 1.491 . S
C336 H327 0.950 . S
C336 C335 1.398 . S
C336 C337 1.391 . S
C337 H325 0.950 . S
C337 C333 1.393 . S
C337 C336 1.391 . S
C338 H328 0.950 . S
C338 C339 1.386 . S
C338 C340 1.391 . S
C339 C338 1.386 . S
C339 C343 1.393 . S
C340 H329 0.950 . S
C340 C338 1.391 . S
C340 C341 1.400 . S
C341 C335 1.491 . S
C341 C340 1.400 . S
C341 C342 1.398 . S
C342 H330 0.950 . S
C342 C341 1.398 . S
C342 C343 1.391 . S
C343 H331 0.971 . S
C343 C339 1.393 . S
C343 C342 1.391 . S
H344 C352 0.950 . S
H345 C357 0.950 . S
H346 C354 0.950 . S
H347 C356 0.950 . S
H348 C358 0.950 . S
H349 C360 0.950 . S
H350 C362 0.950 . S
H351 C363 0.950 . S
C352 H344 0.950 . S
C352 C353 1.386 . S
C352 C354 1.391 . S
C353 C352 1.386 . S
C353 C357 1.393 . S
C354 H346 0.950 . S
C354 C352 1.391 . S
C354 C355 1.400 . S
C355 C354 1.400 . S
C355 C356 1.398 . S
C355 C361 1.491 . S
C356 H347 0.950 . S
C356 C355 1.398 . S
C356 C357 1.391 . S
C357 H345 0.950 . S
C357 C353 1.393 . S
C357 C356 1.391 . S
C358 H348 0.950 . S
C358 C359 1.386 . S
C358 C360 1.391 . S
C359 C358 1.386 . S
C359 C363 1.393 . S
C360 H349 0.950 . S
C360 C358 1.391 . S
C360 C361 1.400 . S
C361 C355 1.491 . S
C361 C360 1.400 . S
C361 C362 1.398 . S
C362 H350 0.950 . S
C362 C361 1.398 . S
C362 C363 1.391 . S
C363 H351 0.950 . S
C363 C359 1.393 . S
C363 C362 1.391 . S
H364 C372 0.950 . S
H365 C377 0.950 . S
H366 C374 0.950 . S
H367 C376 0.950 . S
H368 C378 0.950 . S
H369 C380 0.950 . S
H370 C382 0.950 . S
H371 C383 0.950 . S
C372 H364 0.950 . S
C372 C373 1.386 . S
C372 C374 1.391 . S
C373 C372 1.386 . S
C373 C377 1.393 . S
C374 H366 0.950 . S
C374 C372 1.391 . S
C374 C375 1.400 . S
C375 C374 1.400 . S
C375 C376 1.398 . S
C375 C381 1.491 . S
C376 H367 0.950 . S
C376 C375 1.398 . S
C376 C377 1.391 . S
C377 H365 0.950 . S
C377 C373 1.393 . S
C377 C376 1.391 . S
C378 H368 0.950 . S
C378 C379 1.386 . S
C378 C380 1.391 . S
C379 C378 1.386 . S
C379 C383 1.393 . S
C380 H369 0.950 . S
C380 C378 1.391 . S
C380 C381 1.400 . S
C381 C375 1.491 . S
C381 C380 1.400 . S
C381 C382 1.398 . S
C382 H370 0.950 . S
C382 C381 1.398 . S
C382 C383 1.391 . S
C383 H371 0.950 . S
C383 C379 1.393 . S
C383 C382 1.391 . S
H384 C392 0.950 . S
H385 C397 0.950 . S
H386 C394 0.950 . S
H387 C396 0.950 . S
H388 C398 0.950 . S
H389 C400 0.950 . S
H390 C402 0.950 . S
H391 C403 0.950 . S
C392 H384 0.950 . S
C392 C393 1.386 . S
C392 C394 1.391 . S
C393 C392 1.386 . S
C393 C397 1.393 . S
C394 H386 0.950 . S
C394 C392 1.391 . S
C394 C395 1.400 . S
C395 C394 1.400 . S
C395 C396 1.398 . S
C395 C401 1.491 . S
C396 H387 0.950 . S
C396 C395 1.398 . S
C396 C397 1.391 . S
C397 H385 0.950 . S
C397 C393 1.393 . S
C397 C396 1.391 . S
C398 H388 0.950 . S
C398 C399 1.386 . S
C398 C400 1.391 . S
C399 C398 1.386 . S
C399 C403 1.393 . S
C400 H389 0.950 . S
C400 C398 1.391 . S
C400 C401 1.400 . S
C401 C395 1.491 . S
C401 C400 1.400 . S
C401 C402 1.398 . S
C402 H390 0.950 . S
C402 C401 1.398 . S
C402 C403 1.391 . S
C403 H391 0.950 . S
C403 C399 1.393 . S
C403 C402 1.391 . S
H404 C412 0.950 . S
H405 C417 0.950 . S
H406 C414 0.950 . S
H407 C416 0.950 . S
H408 C418 0.950 . S
H409 C420 0.950 . S
H410 C422 0.950 . S
H411 C423 0.950 . S
C412 H404 0.950 . S
C412 C413 1.386 . S
C412 C414 1.391 . S
C413 C412 1.386 . S
C413 C417 1.393 . S
C414 H406 0.950 . S
C414 C412 1.391 . S
C414 C415 1.400 . S
C415 C414 1.400 . S
C415 C416 1.398 . S
C415 C421 1.491 . S
C416 H407 0.950 . S
C416 C415 1.398 . S
C416 C417 1.391 . S
C417 H405 0.950 . S
C417 C413 1.393 . S
C417 C416 1.391 . S
C418 H408 0.950 . S
C418 C419 1.386 . S
C418 C420 1.391 . S
C419 C418 1.386 . S
C419 C423 1.393 . S
C420 H409 0.950 . S
C420 C418 1.391 . S
C420 C421 1.400 . S
C421 C415 1.491 . S
C421 C420 1.400 . S
C421 C422 1.398 . S
C422 H410 0.950 . S
C422 C421 1.398 . S
C422 C423 1.391 . S
C423 H411 0.950 . S
C423 C419 1.393 . S
C423 C422 1.391 . S
H424 C432 0.950 . S
H425 C437 0.950 1_554 S
H426 C434 0.950 . S
H427 C436 0.950 . S
H428 C438 0.950 . S
H429 C440 0.950 . S
H430 C442 0.950 . S
H431 C443 0.950 . S
C432 H424 0.950 . S
C432 C433 1.386 . S
C432 C434 1.391 . S
C433 C432 1.386 . S
C433 C437 1.393 . S
C434 H426 0.950 . S
C434 C432 1.391 . S
C434 C435 1.400 . S
C435 C434 1.400 . S
C435 C436 1.398 . S
C435 C441 1.491 . S
C436 H427 0.950 . S
C436 C435 1.398 . S
C436 C437 1.391 . S
C437 H425 0.950 1_556 S
C437 C433 1.393 . S
C437 C436 1.391 . S
C438 H428 0.950 . S
C438 C439 1.386 . S
C438 C440 1.391 . S
C439 C438 1.386 . S
C439 C443 1.393 . S
C440 H429 0.950 . S
C440 C438 1.391 . S
C440 C441 1.400 . S
C441 C435 1.491 . S
C441 C440 1.400 . S
C441 C442 1.398 . S
C442 H430 0.950 . S
C442 C441 1.398 . S
C442 C443 1.391 . S
C443 H431 0.950 . S
C443 C439 1.393 . S
C443 C442 1.391 . S
H444 C452 0.950 . S
H445 C457 0.950 . S
H446 C454 0.950 . S
H447 C456 0.950 . S
H448 C458 0.950 . S
H449 C460 0.950 . S
H450 C462 0.950 . S
H451 C463 0.950 . S
C452 H444 0.950 . S
C452 C453 1.386 . S
C452 C454 1.391 . S
C453 C452 1.386 . S
C453 C457 1.393 . S
C454 H446 0.950 . S
C454 C452 1.391 . S
C454 C455 1.400 . S
C455 C454 1.400 . S
C455 C456 1.398 . S
C455 C461 1.491 . S
C456 H447 0.950 . S
C456 C455 1.398 . S
C456 C457 1.391 . S
C457 H445 0.950 . S
C457 C453 1.393 . S
C457 C456 1.391 . S
C458 H448 0.950 . S
C458 C459 1.386 . S
C458 C460 1.391 . S
C459 C458 1.386 . S
C459 C463 1.393 . S
C460 H449 0.950 . S
C460 C458 1.391 . S
C460 C461 1.400 . S
C461 C455 1.491 . S
C461 C460 1.400 . S
C461 C462 1.398 . S
C462 H450 0.950 . S
C462 C461 1.398 . S
C462 C463 1.391 . S
C463 H451 0.950 . S
C463 C459 1.393 . S
C463 C462 1.391 . S
H464 C472 0.950 . S
H465 C477 0.950 . S
H466 C474 0.950 . S
H467 C476 0.950 . S
H468 C478 0.950 1_545 S
H469 C480 0.950 . S
H470 C482 0.950 . S
H471 C483 0.950 . S
C472 H464 0.950 . S
C472 C473 1.386 . S
C472 C474 1.391 . S
C473 C472 1.386 . S
C473 C477 1.393 . S
C474 H466 0.950 . S
C474 C472 1.391 . S
C474 C475 1.400 . S
C475 C474 1.400 . S
C475 C476 1.398 . S
C475 C481 1.491 . S
C476 H467 0.950 . S
C476 C475 1.398 . S
C476 C477 1.391 . S
C477 H465 0.950 . S
C477 C473 1.393 . S
C477 C476 1.391 . S
C478 H468 0.950 1_565 S
C478 C479 1.386 . S
C478 C480 1.391 . S
C479 C478 1.386 . S
C479 C483 1.393 . S
C480 H469 0.950 . S
C480 C478 1.391 . S
C480 C481 1.400 . S
C481 C475 1.491 . S
C481 C480 1.400 . S
C481 C482 1.398 . S
C482 H470 0.950 . S
C482 C481 1.398 . S
C482 C483 1.391 . S
C483 H471 0.950 . S
C483 C479 1.393 . S
C483 C482 1.391 . S
C259 C139 1.688 . S
C253 C68 1.645 . S
C273 C11 1.590 . S
C279 C234 1.710 . S
C293 C30 1.640 . S
C299 C150 1.727 . S
C313 C49 1.608 . S
C319 C223 1.670 . S
C339 C134 1.511 . S
C333 C2 1.664 . S
C359 C227 1.789 . S
C353 C25 1.789 . S
C373 C40 1.701 . S
C379 C143 1.715 . S
C393 C59 1.669 . S
C399 C218 1.483 . S
C419 C229 1.463 . S
C413 C21 1.605 . S
C439 C145 1.445 . S
C433 C44 1.612 1_556 S
C459 C216 1.683 . S
C453 C63 1.681 . S
C473 C6 1.635 . S
C479 C132 1.642 . S
