# Generated by pormake.
# Topology anh, (6,3)-cn, num edge types: 1
# Building blocks:
#     Node 0, Type 0, BuildingBlock: BETDEL_clean_sbu_0, # of connection points: 6
#     Node 1, Type 0, BuildingBlock: BETDEL_clean_sbu_0, # of connection points: 6
#     Node 2, Type 0, BuildingBlock: BETDEL_clean_sbu_0, # of connection points: 6
#     Node 3, Type 1, BuildingBlock: BELTOD_clean_linker_0, # of connection points: 3
#     Node 4, Type 1, BuildingBlock: BELTOD_clean_linker_0, # of connection points: 3
#     Node 5, Type 1, BuildingBlock: BELTOD_clean_linker_0, # of connection points: 3
#     Node 6, Type 1, BuildingBlock: BELTOD_clean_linker_0, # of connection points: 3
#     Node 7, Type 1, BuildingBlock: BELTOD_clean_linker_0, # of connection points: 3
#     Node 8, Type 1, BuildingBlock: BELTOD_clean_linker_0, # of connection points: 3
#     Edge 9, Type (0, 1), BuildingBlock: MIFKUJ_clean_linker_0, # of connection points: 2
#     Edge 10, Type (0, 1), BuildingBlock: MIFKUJ_clean_linker_0, # of connection points: 2
#     Edge 11, Type (0, 1), BuildingBlock: MIFKUJ_clean_linker_0, # of connection points: 2
#     Edge 12, Type (0, 1), BuildingBlock: MIFKUJ_clean_linker_0, # of connection points: 2
#     Edge 13, Type (0, 1), BuildingBlock: MIFKUJ_clean_linker_0, # of connection points: 2
#     Edge 14, Type (0, 1), BuildingBlock: MIFKUJ_clean_linker_0, # of connection points: 2
#     Edge 15, Type (0, 1), BuildingBlock: MIFKUJ_clean_linker_0, # of connection points: 2
#     Edge 16, Type (0, 1), BuildingBlock: MIFKUJ_clean_linker_0, # of connection points: 2
#     Edge 17, Type (0, 1), BuildingBlock: MIFKUJ_clean_linker_0, # of connection points: 2
#     Edge 18, Type (0, 1), BuildingBlock: MIFKUJ_clean_linker_0, # of connection points: 2
#     Edge 19, Type (0, 1), BuildingBlock: MIFKUJ_clean_linker_0, # of connection points: 2
#     Edge 20, Type (0, 1), BuildingBlock: MIFKUJ_clean_linker_0, # of connection points: 2
#     Edge 21, Type (0, 1), BuildingBlock: MIFKUJ_clean_linker_0, # of connection points: 2
#     Edge 22, Type (0, 1), BuildingBlock: MIFKUJ_clean_linker_0, # of connection points: 2
#     Edge 23, Type (0, 1), BuildingBlock: MIFKUJ_clean_linker_0, # of connection points: 2
#     Edge 24, Type (0, 1), BuildingBlock: MIFKUJ_clean_linker_0, # of connection points: 2
#     Edge 25, Type (0, 1), BuildingBlock: MIFKUJ_clean_linker_0, # of connection points: 2
#     Edge 26, Type (0, 1), BuildingBlock: MIFKUJ_clean_linker_0, # of connection points: 2
# Relax obj value: 0.126
# Max RMSD: 0.159
# Mean RMSD: 0.122
data_MOF--net-anh--node1-BETDEL_clean_sbu_0--node2-BELTOD_clean_linker_0--edge1-MIFKUJ_clean_linker_0
_symmetry_space_group_name_H-M    P1
_symmetry_Int_Tables_number       1
_symmetry_cell_setting            triclinic
loop_
_symmetry_equiv_pos_as_xyz
'x, y, z'
_cell_length_a     42.420103
_cell_length_b     42.450827
_cell_length_c     74.730876
_cell_angle_alpha  90.261827
_cell_angle_beta   90.026538
_cell_angle_gamma 120.01033
loop_
_atom_site_label
_atom_site_type_symbol
_atom_site_fract_x
_atom_site_fract_y
_atom_site_fract_z
_atom_type_partial_charge
Dy0 Dy 0.04898 0.50151 0.16414 0.0
C1 C 0.95929 0.56125 0.18337 0.0
C2 C 0.09531 0.48056 0.15032 0.0
Dy3 Dy 0.00781 0.54072 0.17217 0.0
O4 O 0.07674 0.46827 0.16494 0.0
O5 O 0.08817 0.504 0.14302 0.0
O6 O 0.03351 0.47346 0.19057 0.0
O7 O 0.04109 0.52616 0.18828 0.0
C8 C 0.0304 0.49907 0.19843 0.0
C9 C 0.0262 0.54187 0.13775 0.0
O10 O 0.06311 0.58553 0.18031 0.0
O11 O 0.09383 0.56057 0.16578 0.0
O12 O 0.97946 0.57311 0.16921 0.0
O13 O 0.96649 0.53888 0.19178 0.0
O14 O 0.02546 0.56864 0.14574 0.0
O15 O 0.01474 0.51496 0.14807 0.0
O16 O 0.99281 0.45517 0.1584 0.0
O17 O 0.9635 0.48184 0.17266 0.0
C18 C 0.09362 0.5884 0.17393 0.0
C19 C 0.96311 0.45299 0.1655 0.0
Dy20 Dy 0.47131 0.0283 0.50177 0.0
C21 C 0.62672 0.11961 0.51783 0.0
C22 C 0.40113 0.97923 0.49305 0.0
Dy23 Dy 0.55822 0.0759 0.50499 0.0
O24 O 0.41538 0.98382 0.5089 0.0
O25 O 0.42523 1.00186 0.48184 0.0
O26 O 0.46727 0.04716 0.52934 0.0
O27 O 0.51267 0.04219 0.52239 0.0
C28 C 0.49907 0.05277 0.53434 0.0
C29 C 0.5362 0.06714 0.47053 0.0
O30 O 0.54993 0.01971 0.50838 0.0
O31 O 0.4886 0.98598 0.49995 0.0
O32 O 0.6176 0.09323 0.50638 0.0
O33 O 0.59819 0.12148 0.52255 0.0
O34 O 0.57016 0.08611 0.4753 0.0
O35 O 0.51752 0.05523 0.48444 0.0
O36 O 0.47956 0.08422 0.4973 0.0
O37 O 0.53935 0.11658 0.5081 0.0
C38 C 0.5202 0.98837 0.50427 0.0
C39 C 0.50863 0.11496 0.50275 0.0
Dy40 Dy 0.56248 0.5788 0.83211 0.0
C41 C 0.50435 0.42615 0.84325 0.0
C42 C 0.58336 0.64778 0.82118 0.0
Dy43 Dy 0.52477 0.4969 0.83588 0.0
O44 O 0.59672 0.63961 0.83484 0.0
O45 O 0.55887 0.61825 0.81333 0.0
O46 O 0.58444 0.5869 0.86013 0.0
O47 O 0.53422 0.54092 0.85388 0.0
C48 C 0.5584 0.55585 0.86574 0.0
C49 C 0.52872 0.52077 0.80231 0.0
O50 O 0.47729 0.50385 0.84304 0.0
O51 O 0.50264 0.56209 0.83139 0.0
O52 O 0.49683 0.4376 0.82871 0.0
O53 O 0.52231 0.4534 0.85412 0.0
O54 O 0.50152 0.49109 0.80843 0.0
O55 O 0.55359 0.53498 0.81395 0.0
O56 O 0.61037 0.57129 0.82659 0.0
O57 O 0.58403 0.51376 0.83894 0.0
C58 C 0.47425 0.532 0.83768 0.0
C59 C 0.61301 0.54362 0.83304 0.0
P60 P 0.55266 0.99545 0.22528 0.0
H61 H 0.52802 0.928 0.20503 0.0
H62 H 0.46859 0.88277 0.19377 0.0
H63 H 0.42747 0.95562 0.20496 0.0
H64 H 0.48745 1.00082 0.21669 0.0
H65 H 0.62999 0.02403 0.21845 0.0
H66 H 0.67845 0.08176 0.20761 0.0
H67 H 0.60076 0.11761 0.19834 0.0
H68 H 0.55197 0.05932 0.20986 0.0
H69 H 0.48632 0.95734 0.24695 0.0
H70 H 0.59298 0.05222 0.25214 0.0
O71 O 0.57158 0.96997 0.22953 0.0
H72 H 0.47176 0.96623 0.27728 0.0
H73 H 0.57956 0.05998 0.28302 0.0
C74 C 0.5122 0.96772 0.21197 0.0
C75 C 0.50657 0.93475 0.20473 0.0
C76 C 0.47234 0.90876 0.19819 0.0
C77 C 0.44283 0.91514 0.19865 0.0
C78 C 0.44931 0.94941 0.20471 0.0
C79 C 0.48375 0.97553 0.21121 0.0
C80 C 0.58705 0.03692 0.21474 0.0
C81 C 0.62303 0.04393 0.21385 0.0
C82 C 0.65095 0.07719 0.20753 0.0
C83 C 0.64378 0.1046 0.20191 0.0
C84 C 0.60749 0.09737 0.20265 0.0
C85 C 0.57943 0.06387 0.20906 0.0
C86 C 0.54029 0.00495 0.24693 0.0
C87 C 0.50644 0.98061 0.25445 0.0
C88 C 0.49836 0.98532 0.27205 0.0
C89 C 0.52444 0.01381 0.28278 0.0
C90 C 0.5584 0.03819 0.27514 0.0
C91 C 0.56621 0.03375 0.25742 0.0
P92 P 0.57474 0.57859 0.55077 0.0
H93 H 0.5995 0.55185 0.52101 0.0
H94 H 0.58126 0.49035 0.51077 0.0
H95 H 0.48749 0.44725 0.54541 0.0
H96 H 0.50575 0.50916 0.55547 0.0
H97 H 0.61732 0.65702 0.55105 0.0
H98 H 0.60588 0.70487 0.54152 0.0
H99 H 0.50081 0.62404 0.52071 0.0
H100 H 0.51226 0.57571 0.53112 0.0
H101 H 0.57332 0.52697 0.57674 0.0
H102 H 0.55382 0.6175 0.57691 0.0
O103 O 0.6197 0.5956 0.54983 0.0
H104 H 0.565 0.52168 0.60917 0.0
H105 H 0.54603 0.61258 0.60933 0.0
C106 C 0.55443 0.53511 0.53928 0.0
C107 C 0.5745 0.52932 0.52609 0.0
C108 C 0.56421 0.49403 0.52035 0.0
C109 C 0.53341 0.46374 0.5276 0.0
C110 C 0.51143 0.46991 0.5396 0.0
C111 C 0.52185 0.50535 0.54537 0.0
C112 C 0.56604 0.61276 0.54142 0.0
C113 C 0.59202 0.64947 0.54416 0.0
C114 C 0.58542 0.67698 0.53861 0.0
C115 C 0.55258 0.66865 0.53004 0.0
C116 C 0.52638 0.63163 0.52731 0.0
C117 C 0.53298 0.60391 0.53307 0.0
C118 C 0.56361 0.57219 0.57428 0.0
C119 C 0.56657 0.54527 0.58368 0.0
C120 C 0.56188 0.5423 0.60223 0.0
C121 C 0.55488 0.56674 0.61178 0.0
C122 C 0.55165 0.59354 0.60232 0.0
C123 C 0.5559 0.5962 0.58373 0.0
P124 P 0.0741 0.59401 0.88702 0.0
H125 H 0.13187 0.62466 0.8603 0.0
H126 H 0.17496 0.60667 0.85023 0.0
H127 H 0.11275 0.50353 0.87715 0.0
H128 H 0.07039 0.52275 0.88789 0.0
H129 H 0.03004 0.62578 0.89575 0.0
H130 H 0.97043 0.61438 0.88632 0.0
H131 H 0.95856 0.52627 0.85242 0.0
H132 H 0.01955 0.53879 0.86176 0.0
H133 H 0.12633 0.62577 0.91622 0.0
H134 H 0.0176 0.53529 0.90881 0.0
O135 O 0.09977 0.63924 0.88596 0.0
H136 H 0.12323 0.61214 0.94811 0.0
H137 H 0.01411 0.52165 0.94084 0.0
C138 C 0.09806 0.57527 0.87504 0.0
C139 C 0.12695 0.59783 0.86375 0.0
C140 C 0.15168 0.58734 0.8579 0.0
C141 C 0.14792 0.55373 0.86304 0.0
C142 C 0.11719 0.52998 0.87326 0.0
C143 C 0.09256 0.5407 0.87923 0.0
C144 C 0.0294 0.58341 0.87934 0.0
C145 C 0.01472 0.60403 0.88624 0.0
C146 C 0.98032 0.5972 0.88094 0.0
C147 C 0.95929 0.56915 0.86868 0.0
C148 C 0.97405 0.54827 0.86177 0.0
C149 C 0.00884 0.55527 0.86713 0.0
C150 C 0.07185 0.58214 0.91028 0.0
C151 C 0.10172 0.60301 0.92148 0.0
C152 C 0.09991 0.5952 0.93971 0.0
C153 C 0.06826 0.56608 0.94705 0.0
C154 C 0.0389 0.5442 0.93559 0.0
C155 C 0.04073 0.55215 0.91732 0.0
P156 P 0.06282 0.50349 0.44588 0.0
H157 H 0.07918 0.54066 0.48053 0.0
H158 H 0.10863 0.60529 0.48879 0.0
H159 H 0.1127 0.63328 0.43303 0.0
H160 H 0.08411 0.56929 0.42486 0.0
H161 H 0.05079 0.4362 0.46229 0.0
H162 H 1.00129 0.39022 0.48021 0.0
H163 H 0.9473 0.45372 0.47872 0.0
H164 H 0.99793 0.50044 0.46141 0.0
H165 H 0.08105 0.47657 0.41361 0.0
H166 H 0.00563 0.51209 0.42872 0.0
O167 O 0.09864 0.49726 0.44681 0.0
H168 H 0.06128 0.47103 0.38253 0.0
H169 H 0.98533 0.5062 0.39759 0.0
C170 C 0.0786 0.55002 0.45214 0.0
C171 C 0.08568 0.56069 0.47015 0.0
C172 C 0.1026 0.59756 0.47484 0.0
C173 C 0.1126 0.62422 0.46155 0.0
C174 C 0.10457 0.61329 0.44358 0.0
C175 C 0.08815 0.57658 0.4389 0.0
C176 C 0.02811 0.47181 0.46064 0.0
C177 C 0.02863 0.44055 0.46608 0.0
C178 C 1.00009 0.41408 0.47621 0.0
C179 C 0.97014 0.4181 0.48083 0.0
C180 C 0.97013 0.44993 0.47562 0.0
C181 C 0.99891 0.47656 0.4656 0.0
C182 C 0.04496 0.49496 0.42344 0.0
C183 C 0.05985 0.48267 0.41029 0.0
C184 C 0.04836 0.47932 0.39252 0.0
C185 C 0.02183 0.48832 0.3876 0.0
C186 C 0.00608 0.49944 0.40095 0.0
C187 C 0.01745 0.50255 0.41875 0.0
P188 P 0.67335 0.12354 0.77264 0.0
H189 H 0.70111 0.18119 0.79971 0.0
H190 H 0.67303 0.21107 0.81586 0.0
H191 H 0.56933 0.13697 0.7916 0.0
H192 H 0.59771 0.1076 0.77509 0.0
H193 H 0.71772 0.08897 0.77262 0.0
H194 H 0.70529 0.02821 0.78089 0.0
H195 H 0.59699 1.00058 0.79747 0.0
H196 H 0.60967 0.06158 0.78934 0.0
H197 H 0.6975 0.17517 0.74321 0.0
H198 H 0.61426 0.0638 0.75218 0.0
O199 O 0.71822 0.15221 0.77306 0.0
H200 H 0.67682 0.17064 0.71226 0.0
H201 H 0.59301 0.05926 0.72145 0.0
C202 C 0.65156 0.14239 0.78609 0.0
C203 C 0.6723 0.17115 0.79793 0.0
C204 C 0.65627 0.1882 0.80717 0.0
C205 C 0.61909 0.17632 0.80491 0.0
C206 C 0.59799 0.14642 0.79366 0.0
C207 C 0.6142 0.12974 0.7842 0.0
C208 C 0.66487 0.08006 0.78064 0.0
C209 C 0.69153 0.07012 0.77835 0.0
C210 C 0.68442 0.03539 0.78307 0.0
C211 C 0.65022 0.00975 0.78987 0.0
C212 C 0.62354 0.0198 0.79221 0.0
C213 C 0.63087 0.05475 0.78768 0.0
C214 C 0.65801 0.11959 0.74986 0.0
C215 C 0.67487 0.1497 0.73849 0.0
C216 C 0.66282 0.14716 0.72085 0.0
C217 C 0.63343 0.11448 0.71434 0.0
C218 C 0.6162 0.08457 0.72593 0.0
C219 C 0.6283 0.08717 0.74355 0.0
P220 P 0.49695 0.4129 0.10909 0.0
H221 H 0.51269 0.39857 0.14496 0.0
H222 H 0.56833 0.42557 0.16308 0.0
H223 H 0.62437 0.50579 0.12203 0.0
H224 H 0.56886 0.47889 0.10409 0.0
H225 H 0.41825 0.36638 0.11039 0.0
H226 H 0.36893 0.37845 0.11712 0.0
H227 H 0.44774 0.49044 0.12921 0.0
H228 H 0.49722 0.47798 0.12274 0.0
H229 H 0.50382 0.37577 0.07743 0.0
H230 H 0.51121 0.47864 0.08975 0.0
O231 O 0.48198 0.36842 0.11073 0.0
H232 H 0.5142 0.39231 0.04579 0.0
H233 H 0.52151 0.49525 0.05818 0.0
C234 C 0.53676 0.43628 0.12306 0.0
C235 C 0.53687 0.42223 0.13997 0.0
C236 C 0.56866 0.43762 0.15029 0.0
C237 C 0.60079 0.46761 0.14391 0.0
C238 C 0.59999 0.48287 0.12737 0.0
C239 C 0.56822 0.46729 0.11701 0.0
C240 C 0.46134 0.42115 0.11634 0.0
C241 C 0.42499 0.39334 0.11485 0.0
C242 C 0.39682 0.40027 0.11867 0.0
C243 C 0.40456 0.43536 0.1237 0.0
C244 C 0.44107 0.46319 0.12529 0.0
C245 C 0.46928 0.45606 0.12171 0.0
C246 C 0.50639 0.42583 0.08594 0.0
C247 C 0.50767 0.4019 0.07336 0.0
C248 C 0.51349 0.41131 0.05527 0.0
C249 C 0.51852 0.44501 0.04952 0.0
C250 C 0.51797 0.46921 0.06224 0.0
C251 C 0.51183 0.45963 0.08028 0.0
H252 H 0.14646 0.51518 0.12445 0.0
H253 H 0.19918 0.50798 0.118 0.0
H254 H 0.16174 0.42204 0.157 0.0
H255 H 0.10949 0.42959 0.16363 0.0
H256 H 0.2303 0.47081 0.16298 0.0
H257 H 0.15992 0.40505 0.11144 0.0
H258 H 0.12497 0.39413 0.08347 0.0
H259 H 0.217 0.48459 0.0589 0.0
H260 H 0.25242 0.49626 0.08679 0.0
H261 H 0.34353 0.39643 0.14376 0.0
H262 H 0.29192 0.40668 0.14705 0.0
H263 H 0.34558 0.50101 0.11317 0.0
H264 H 0.39743 0.49089 0.10986 0.0
H265 H 0.27187 0.45249 0.10384 0.0
H266 H 0.34289 0.51557 0.15534 0.0
H267 H 0.37814 0.52326 0.18287 0.0
H268 H 0.28376 0.43549 0.20747 0.0
H269 H 0.24806 0.42692 0.17997 0.0
C270 C 0.14919 0.49429 0.13135 0.0
C271 C 0.12404 0.47296 0.14454 0.0
C272 C 0.17928 0.49017 0.12766 0.0
C273 C 0.18443 0.46445 0.13702 0.0
C274 C 0.15842 0.44216 0.14968 0.0
C275 C 0.12853 0.4464 0.15341 0.0
C276 C 0.21818 0.46251 0.13475 0.0
C277 C 0.23907 0.46632 0.15006 0.0
C278 C 0.23036 0.45791 0.11783 0.0
C279 C 0.20871 0.45172 0.10126 0.0
C280 C 0.17258 0.42285 0.10014 0.0
C281 C 0.15275 0.4164 0.08427 0.0
C282 C 0.16881 0.43857 0.0694 0.0
C283 C 0.20465 0.46737 0.07041 0.0
C284 C 0.22462 0.47389 0.08624 0.0
C285 C 0.34435 0.41942 0.13709 0.0
C286 C 0.37444 0.44292 0.12659 0.0
C287 C 0.31497 0.42532 0.13901 0.0
C288 C 0.31506 0.45465 0.13039 0.0
C289 C 0.34509 0.47825 0.11994 0.0
C290 C 0.37472 0.47261 0.11818 0.0
C291 C 0.28333 0.46008 0.13209 0.0
C292 C 0.26302 0.45713 0.11671 0.0
C293 C 0.27152 0.46529 0.14895 0.0
C294 C 0.29289 0.47039 0.16552 0.0
C295 C 0.32973 0.49769 0.16656 0.0
C296 C 0.34978 0.50225 0.18217 0.0
C297 C 0.33322 0.47982 0.19689 0.0
C298 C 0.29656 0.45283 0.19605 0.0
C299 C 0.27639 0.44813 0.18046 0.0
H300 H 0.34879 0.4834 0.20897 0.0
H301 H 0.15343 0.43352 0.05712 0.0
H302 H 0.68891 0.12147 0.50709 0.0
H303 H 0.75062 0.17362 0.50849 0.0
H304 H 0.71141 0.23419 0.53843 0.0
H305 H 0.64938 0.18213 0.53677 0.0
H306 H 0.74796 0.27119 0.51058 0.0
H307 H 0.77092 0.21046 0.55733 0.0
H308 H 0.77097 0.15945 0.57292 0.0
H309 H 0.83946 0.15415 0.53214 0.0
H310 H 0.8394 0.20479 0.51614 0.0
H311 H 0.92795 0.42363 0.50721 0.0
H312 H 0.87254 0.37426 0.52053 0.0
H313 H 0.88483 0.29593 0.48885 0.0
H314 H 0.93956 0.34487 0.47525 0.0
H315 H 0.86322 0.27235 0.52359 0.0
H316 H 0.82988 0.32561 0.47484 0.0
H317 H 0.82876 0.37597 0.45909 0.0
H318 H 0.77865 0.39473 0.50469 0.0
H319 H 0.77997 0.34476 0.52081 0.0
C320 C 0.69363 0.14557 0.51438 0.0
C321 C 0.66448 0.14788 0.52181 0.0
C322 C 0.72895 0.17533 0.51525 0.0
C323 C 0.73571 0.2078 0.52368 0.0
C324 C 0.70682 0.20937 0.53195 0.0
C325 C 0.67148 0.1796 0.53106 0.0
C326 C 0.7718 0.24119 0.52185 0.0
C327 C 0.77314 0.27173 0.51389 0.0
C328 C 0.80469 0.24175 0.52586 0.0
C329 C 0.80499 0.21135 0.53547 0.0
C330 C 0.7858 0.19827 0.55161 0.0
C331 C 0.78586 0.16943 0.56053 0.0
C332 C 0.80517 0.15354 0.55351 0.0
C333 C 0.82452 0.1665 0.53756 0.0
C334 C 0.82453 0.19532 0.52857 0.0
C335 C 0.91887 0.39589 0.50309 0.0
C336 C 0.93817 0.38827 0.49009 0.0
C337 C 0.88736 0.36773 0.5108 0.0
C338 C 0.87455 0.33148 0.50561 0.0
C339 C 0.89442 0.3237 0.49315 0.0
C340 C 0.92579 0.35177 0.4854 0.0
C341 C 0.83909 0.30173 0.51204 0.0
C342 C 0.83794 0.27195 0.52076 0.0
C343 C 0.80629 0.30183 0.5088 0.0
C344 C 0.80547 0.33181 0.49911 0.0
C345 C 0.81893 0.3407 0.48156 0.0
C346 C 0.8182 0.36912 0.47256 0.0
C347 C 0.80376 0.38863 0.48091 0.0
C348 C 0.78992 0.37966 0.49826 0.0
C349 C 0.79065 0.3513 0.50734 0.0
H350 H 0.8032 0.41061 0.47391 0.0
H351 H 0.80518 0.13121 0.56044 0.0
H352 H 0.63822 0.71144 0.83449 0.0
H353 H 0.64964 0.77289 0.8286 0.0
H354 H 0.55821 0.72911 0.79219 0.0
H355 H 0.54759 0.66767 0.79756 0.0
H356 H 0.61095 0.78911 0.77905 0.0
H357 H 0.55231 0.75473 0.8359 0.0
H358 H 0.54269 0.73225 0.86692 0.0
H359 H 0.64665 0.82211 0.88223 0.0
H360 H 0.65712 0.84487 0.85123 0.0
H361 H 0.59025 0.94593 0.77993 0.0
H362 H 0.57853 0.884 0.78508 0.0
H363 H 0.68027 0.92713 0.81369 0.0
H364 H 0.69213 0.98914 0.8086 0.0
H365 H 0.62074 0.86744 0.83071 0.0
H366 H 0.6775 0.90083 0.77255 0.0
H367 H 0.68351 0.92261 0.74152 0.0
H368 H 0.57755 0.83294 0.72884 0.0
H369 H 0.57069 0.81092 0.75989 0.0
C370 C 0.62081 0.71502 0.8251 0.0
C371 C 0.59193 0.68491 0.81654 0.0
C372 C 0.62718 0.75009 0.82184 0.0
C373 C 0.60428 0.75558 0.81026 0.0
C374 C 0.57613 0.72555 0.80124 0.0
C375 C 0.57006 0.69049 0.80432 0.0
C376 C 0.60934 0.79254 0.80779 0.0
C377 C 0.61259 0.80599 0.79035 0.0
C378 C 0.61188 0.81485 0.82253 0.0
C379 C 0.60564 0.80131 0.8412 0.0
C380 C 0.57324 0.76955 0.84585 0.0
C381 C 0.56761 0.75678 0.86343 0.0
C382 C 0.59408 0.77569 0.87652 0.0
C383 C 0.6262 0.80747 0.87207 0.0
C384 C 0.63198 0.82033 0.8545 0.0
C385 C 0.6099 0.94215 0.78749 0.0
C386 C 0.64214 0.97228 0.79385 0.0
C387 C 0.60329 0.90684 0.79031 0.0
C388 C 0.6287 0.9011 0.79963 0.0
C389 C 0.66041 0.93107 0.80642 0.0
C390 C 0.66722 0.96639 0.80344 0.0
C391 C 0.62254 0.86385 0.80204 0.0
C392 C 0.61903 0.8504 0.81946 0.0
C393 C 0.61921 0.84138 0.78729 0.0
C394 C 0.62343 0.85445 0.76859 0.0
C395 C 0.65536 0.88593 0.76319 0.0
C396 C 0.65894 0.89829 0.74559 0.0
C397 C 0.63089 0.87923 0.73323 0.0
C398 C 0.59924 0.84771 0.73843 0.0
C399 C 0.59549 0.83526 0.75603 0.0
H400 H 0.63372 0.88883 0.71961 0.0
H401 H 0.58968 0.76576 0.89013 0.0
H402 H 0.90749 0.52859 0.20923 0.0
H403 H 0.84581 0.51992 0.20843 0.0
H404 H 0.87472 0.5899 0.16247 0.0
H405 H 0.93633 0.59906 0.16331 0.0
H406 H 0.81055 0.5696 0.20366 0.0
H407 H 0.81484 0.53103 0.13145 0.0
H408 H 0.84839 0.51053 0.11212 0.0
H409 H 0.86172 0.45417 0.15642 0.0
H410 H 0.82803 0.47409 0.17595 0.0
H411 H 0.65403 0.53819 0.15056 0.0
H412 H 0.71477 0.55913 0.16325 0.0
H413 H 0.68735 0.44777 0.17137 0.0
H414 H 0.62696 0.4267 0.15866 0.0
H415 H 0.75025 0.4881 0.1516 0.0
H416 H 0.69708 0.49787 0.20659 0.0
H417 H 0.664 0.51854 0.22606 0.0
H418 H 0.74599 0.62979 0.2172 0.0
H419 H 0.77931 0.6098 0.19745 0.0
C420 C 0.90108 0.54326 0.19942 0.0
C421 C 0.92645 0.56413 0.1862 0.0
C422 C 0.86591 0.53837 0.19901 0.0
C423 C 0.85582 0.55407 0.18531 0.0
C424 C 0.88214 0.57763 0.17315 0.0
C425 C 0.91728 0.58276 0.17363 0.0
C426 C 0.81694 0.54064 0.18155 0.0
C427 C 0.79721 0.55181 0.19231 0.0
C428 C 0.79968 0.51716 0.16685 0.0
C429 C 0.81926 0.50434 0.15516 0.0
C430 C 0.82486 0.51417 0.13703 0.0
C431 C 0.84394 0.5027 0.12606 0.0
C432 C 0.85734 0.48121 0.13307 0.0
C433 C 0.85154 0.47101 0.15105 0.0
C434 C 0.83251 0.48243 0.16208 0.0
C435 C 0.66086 0.51824 0.15528 0.0
C436 C 0.63577 0.48081 0.15359 0.0
C437 C 0.69541 0.53022 0.16262 0.0
C438 C 0.70544 0.50496 0.16827 0.0
C439 C 0.68004 0.46767 0.16714 0.0
C440 C 0.64548 0.4557 0.15997 0.0
C441 C 0.74343 0.51705 0.17365 0.0
C442 C 0.76325 0.50577 0.16305 0.0
C443 C 0.76048 0.54025 0.18853 0.0
C444 C 0.7405 0.55233 0.2004 0.0
C445 C 0.70788 0.52676 0.20865 0.0
C446 C 0.68913 0.53835 0.21977 0.0
C447 C 0.70283 0.57546 0.22283 0.0
C448 C 0.73538 0.60105 0.2148 0.0
C449 C 0.75423 0.5896 0.20366 0.0
H450 H 0.68828 0.58438 0.23145 0.0
H451 H 0.87212 0.47237 0.12456 0.0
H452 H 0.3714 0.95758 0.45967 0.0
H453 H 0.31387 0.90248 0.45204 0.0
H454 H 0.29188 0.87814 0.50819 0.0
H455 H 0.34887 0.93303 0.51582 0.0
H456 H 0.2994 0.83509 0.45927 0.0
H457 H 0.2015 0.82861 0.51558 0.0
H458 H 0.18797 0.87061 0.53234 0.0
H459 H 0.22927 0.94662 0.48896 0.0
H460 H 0.24257 0.90488 0.47183 0.0
H461 H 0.17288 0.65699 0.48271 0.0
H462 H 0.21473 0.72226 0.48648 0.0
H463 H 0.14491 0.7454 0.45391 0.0
H464 H 0.10279 0.67987 0.45 0.0
H465 H 0.17754 0.7926 0.4859 0.0
H466 H 0.20889 0.74986 0.43302 0.0
H467 H 0.22159 0.7078 0.41578 0.0
H468 H 0.31231 0.7327 0.45019 0.0
H469 H 0.29975 0.77445 0.46784 0.0
C470 C 0.35382 0.94084 0.47035 0.0
C471 C 0.36452 0.94939 0.48832 0.0
C472 C 0.32107 0.9094 0.46599 0.0
C473 C 0.29847 0.88632 0.47955 0.0
C474 C 0.30852 0.8958 0.49751 0.0
C475 C 0.34122 0.92708 0.50186 0.0
C476 C 0.26662 0.85038 0.47508 0.0
C477 C 0.27267 0.82604 0.46492 0.0
C478 C 0.23163 0.83857 0.48235 0.0
C479 C 0.22324 0.86366 0.49246 0.0
C480 C 0.2075 0.85418 0.50957 0.0
C481 C 0.19992 0.87798 0.51915 0.0
C482 C 0.20783 0.91129 0.51174 0.0
C483 C 0.22326 0.92085 0.49471 0.0
C484 C 0.23088 0.89716 0.48507 0.0
C485 C 0.16596 0.67595 0.47672 0.0
C486 C 0.13466 0.66342 0.46602 0.0
C487 C 0.18996 0.71317 0.4788 0.0
C488 C 0.18295 0.73848 0.47035 0.0
C489 C 0.1507 0.72619 0.46052 0.0
C490 C 0.12684 0.68887 0.45824 0.0
C491 C 0.21094 0.77747 0.47063 0.0
C492 C 0.20416 0.8021 0.48003 0.0
C493 C 0.24523 0.78978 0.46255 0.0
C494 C 0.2532 0.76506 0.45183 0.0
C495 C 0.23137 0.74615 0.437 0.0
C496 C 0.23857 0.7224 0.42714 0.0
C497 C 0.2677 0.71753 0.43191 0.0
C498 C 0.28974 0.73648 0.44652 0.0
C499 C 0.28262 0.76022 0.45645 0.0
H500 H 0.27323 0.69913 0.42426 0.0
H501 H 0.20196 0.92968 0.51918 0.0
H502 H 0.52093 0.39779 0.87223 0.0
H503 H 0.52961 0.34481 0.87208 0.0
H504 H 0.49374 0.32314 0.81702 0.0
H505 H 0.4831 0.37435 0.81752 0.0
H506 H 0.47649 0.26257 0.8312 0.0
H507 H 0.58633 0.3805 0.83039 0.0
H508 H 0.62959 0.44115 0.84241 0.0
H509 H 0.64511 0.39258 0.88941 0.0
H510 H 0.60138 0.33147 0.87772 0.0
H511 H 0.64482 0.24882 0.80287 0.0
H512 H 0.6173 0.28309 0.81465 0.0
H513 H 0.53048 0.18489 0.83785 0.0
H514 H 0.55735 0.15016 0.82523 0.0
H515 H 0.60474 0.29941 0.84518 0.0
H516 H 0.45288 0.19033 0.83984 0.0
H517 H 0.41257 0.13498 0.8224 0.0
H518 H 0.48754 0.17447 0.77844 0.0
H519 H 0.52802 0.2302 0.79554 0.0
C520 C 0.5138 0.38091 0.86033 0.0
C521 C 0.50185 0.39038 0.84481 0.0
C522 C 0.51899 0.35081 0.86019 0.0
C523 C 0.51339 0.33056 0.84436 0.0
C524 C 0.49846 0.33831 0.82939 0.0
C525 C 0.49251 0.36777 0.82966 0.0
C526 C 0.52709 0.30458 0.8424 0.0
C527 C 0.50441 0.27044 0.83447 0.0
C528 C 0.56371 0.31492 0.84635 0.0
C529 C 0.59019 0.35153 0.85333 0.0
C530 C 0.59871 0.38279 0.84337 0.0
C531 C 0.62322 0.41726 0.85016 0.0
C532 C 0.63988 0.42079 0.86676 0.0
C533 C 0.63208 0.38981 0.87659 0.0
C534 C 0.60739 0.35525 0.86991 0.0
C535 C 0.61999 0.23462 0.81058 0.0
C536 C 0.60314 0.19692 0.81315 0.0
C537 C 0.60427 0.25421 0.81736 0.0
C538 C 0.57159 0.23662 0.82705 0.0
C539 C 0.55529 0.19902 0.83012 0.0
C540 C 0.57068 0.17922 0.823 0.0
C541 C 0.55455 0.25795 0.83336 0.0
C542 C 0.57656 0.2911 0.84225 0.0
C543 C 0.51785 0.24741 0.82951 0.0
C544 C 0.49366 0.21413 0.81907 0.0
C545 C 0.4607 0.18717 0.82645 0.0
C546 C 0.43783 0.15576 0.81662 0.0
C547 C 0.44756 0.15114 0.79935 0.0
C548 C 0.48011 0.178 0.79184 0.0
C549 C 0.50303 0.20948 0.8016 0.0
H550 H 0.42984 0.12679 0.79177 0.0
H551 H 0.65895 0.44748 0.872 0.0
H552 H 0.46319 0.91815 0.50498 0.0
H553 H 0.46579 0.86206 0.50754 0.0
H554 H 0.58304 0.92443 0.5081 0.0
H555 H 0.58078 0.98081 0.50571 0.0
H556 H 0.55376 0.86209 0.48523 0.0
H557 H 0.54083 0.89342 0.54608 0.0
H558 H 0.51096 0.90858 0.57022 0.0
H559 H 0.41258 0.8065 0.56219 0.0
H560 H 0.44173 0.79095 0.53781 0.0
H561 H 0.60195 0.73601 0.51695 0.0
H562 H 0.59309 0.78729 0.51114 0.0
H563 H 0.479 0.72123 0.5236 0.0
H564 H 0.48824 0.67022 0.53076 0.0
H565 H 0.50228 0.78333 0.53849 0.0
H566 H 0.51317 0.74902 0.47919 0.0
H567 H 0.53986 0.73243 0.45411 0.0
H568 H 0.63699 0.83701 0.4574 0.0
H569 H 0.61108 0.85407 0.48267 0.0
C570 C 0.4896 0.92004 0.50557 0.0
C571 C 0.5218 0.95414 0.5052 0.0
C572 C 0.491 0.88787 0.50709 0.0
C573 C 0.5246 0.88901 0.50812 0.0
C574 C 0.5568 0.92288 0.50734 0.0
C575 C 0.55544 0.95512 0.50605 0.0
C576 C 0.52621 0.85495 0.51031 0.0
C577 C 0.54287 0.84501 0.49695 0.0
C578 C 0.51079 0.83196 0.52528 0.0
C579 C 0.49334 0.8412 0.54 0.0
C580 C 0.51273 0.87434 0.54936 0.0
C581 C 0.49595 0.88298 0.5631 0.0
C582 C 0.45986 0.85857 0.5677 0.0
C583 C 0.44051 0.82541 0.55859 0.0
C584 C 0.45716 0.81666 0.54482 0.0
C585 C 0.57493 0.73224 0.51861 0.0
C586 C 0.54591 0.69877 0.52454 0.0
C587 C 0.56977 0.76164 0.51497 0.0
C588 C 0.53523 0.75828 0.51664 0.0
C589 C 0.50595 0.72467 0.52215 0.0
C590 C 0.5112 0.69529 0.52605 0.0
C591 C 0.53027 0.79036 0.51346 0.0
C592 C 0.51297 0.80005 0.52665 0.0
C593 C 0.54459 0.81281 0.49816 0.0
C594 C 0.56027 0.80271 0.48293 0.0
C595 C 0.54032 0.76839 0.47465 0.0
C596 C 0.5553 0.75892 0.46039 0.0
C597 C 0.59013 0.78362 0.45419 0.0
C598 C 0.61002 0.81789 0.46222 0.0
C599 C 0.59519 0.8275 0.4765 0.0
H600 H 0.60168 0.77623 0.44315 0.0
H601 H 0.44691 0.8653 0.57834 0.0
H602 H 0.6782 0.59436 0.81802 0.0
H603 H 0.73744 0.59756 0.82064 0.0
H604 H 0.68904 0.502 0.85375 0.0
H605 H 0.62999 0.49829 0.85106 0.0
H606 H 0.77935 0.60718 0.84884 0.0
H607 H 0.73283 0.45274 0.84784 0.0
H608 H 0.68495 0.39574 0.83422 0.0
H609 H 0.67136 0.45618 0.79198 0.0
H610 H 0.71987 0.51349 0.80504 0.0
H611 H 0.90775 0.57173 0.88979 0.0
H612 H 0.85044 0.56718 0.88062 0.0
H613 H 0.86874 0.54596 0.82628 0.0
H614 H 0.92691 0.55133 0.83529 0.0
H615 H 0.79661 0.50163 0.83708 0.0
H616 H 0.8852 0.62843 0.83647 0.0
H617 H 0.9349 0.68589 0.84882 0.0
H618 H 0.86541 0.68187 0.89157 0.0
H619 H 0.81543 0.62407 0.87963 0.0
C620 C 0.68011 0.57386 0.82575 0.0
C621 C 0.64912 0.54579 0.83413 0.0
C622 C 0.71403 0.57573 0.82725 0.0
C623 C 0.71767 0.54958 0.83714 0.0
C624 C 0.68683 0.52189 0.84566 0.0
C625 C 0.65301 0.51989 0.84412 0.0
C626 C 0.7538 0.55187 0.83925 0.0
C627 C 0.78305 0.58409 0.84617 0.0
C628 C 0.75901 0.52191 0.83562 0.0
C629 C 0.72987 0.48753 0.82754 0.0
C630 C 0.71987 0.4539 0.83556 0.0
C631 C 0.69269 0.4215 0.8279 0.0
C632 C 0.67513 0.42234 0.81225 0.0
C633 C 0.68491 0.45557 0.80414 0.0
C634 C 0.71229 0.48804 0.81166 0.0
C635 C 0.89984 0.5663 0.87584 0.0
C636 C 0.92245 0.56249 0.86324 0.0
C637 C 0.86689 0.56356 0.87064 0.0
C638 C 0.85548 0.55681 0.85271 0.0
C639 C 0.87703 0.55132 0.84019 0.0
C640 C 0.91024 0.55426 0.84538 0.0
C641 C 0.82153 0.55648 0.84713 0.0
C642 C 0.79279 0.52468 0.83961 0.0
C643 C 0.81677 0.58683 0.85009 0.0
C644 C 0.84665 0.62177 0.85722 0.0
C645 C 0.88059 0.63967 0.84857 0.0
C646 C 0.9088 0.67231 0.85549 0.0
C647 C 0.90334 0.68748 0.87099 0.0
C648 C 0.86961 0.67007 0.87957 0.0
C649 C 0.84131 0.63739 0.87272 0.0
H650 H 0.92522 0.71276 0.87633 0.0
H651 H 0.65389 0.39724 0.80642 0.0
H652 H 0.10807 0.64708 0.19528 0.0
H653 H 0.16601 0.70377 0.19903 0.0
H654 H 0.21629 0.66558 0.16115 0.0
H655 H 0.15886 0.60851 0.15779 0.0
H656 H 0.26051 0.69594 0.18757 0.0
H657 H 0.19114 0.73184 0.15088 0.0
H658 H 0.13849 0.73857 0.1427 0.0
H659 H 0.15447 0.80273 0.19001 0.0
H660 H 0.20695 0.79598 0.19859 0.0
H661 H 0.42158 0.86335 0.17201 0.0
H662 H 0.36152 0.80986 0.16737 0.0
H663 H 0.31838 0.84477 0.21043 0.0
H664 H 0.37853 0.89805 0.21541 0.0
H665 H 0.27057 0.81701 0.18179 0.0
H666 H 0.34079 0.78089 0.21796 0.0
H667 H 0.39408 0.77467 0.22533 0.0
H668 H 0.3767 0.71096 0.1777 0.0
H669 H 0.32359 0.71726 0.16991 0.0
C670 C 0.13144 0.65076 0.18772 0.0
C671 C 0.12868 0.62315 0.17621 0.0
C672 C 0.16461 0.68336 0.1898 0.0
C673 C 0.19566 0.68943 0.18018 0.0
C674 C 0.1929 0.66176 0.16875 0.0
C675 C 0.15991 0.62905 0.16681 0.0
C676 C 0.23117 0.72417 0.18219 0.0
C677 C 0.26265 0.72234 0.18604 0.0
C678 C 0.2342 0.75889 0.18062 0.0
C679 C 0.20275 0.7631 0.17547 0.0
C680 C 0.18326 0.74716 0.1596 0.0
C681 C 0.15347 0.75101 0.15488 0.0
C682 C 0.14308 0.77098 0.16585 0.0
C683 C 0.16252 0.78722 0.18154 0.0
C684 C 0.19231 0.78342 0.18633 0.0
C685 C 0.39938 0.85978 0.18051 0.0
C686 C 0.40521 0.88505 0.19421 0.0
C687 C 0.36496 0.82914 0.1778 0.0
C688 C 0.33546 0.82292 0.18872 0.0
C689 C 0.34068 0.84891 0.20184 0.0
C690 C 0.37516 0.87954 0.2046 0.0
C691 C 0.29969 0.78857 0.18697 0.0
C692 C 0.26826 0.79053 0.18326 0.0
C693 C 0.29669 0.75393 0.18853 0.0
C694 C 0.32843 0.74985 0.19327 0.0
C695 C 0.34849 0.76578 0.20899 0.0
C696 C 0.37864 0.76221 0.21325 0.0
C697 C 0.38882 0.74251 0.20197 0.0
C698 C 0.36881 0.72626 0.18642 0.0
C699 C 0.33867 0.7298 0.18208 0.0
H700 H 0.41218 0.73978 0.20529 0.0
H701 H 0.12001 0.77393 0.16218 0.0
H702 H 0.56436 0.18345 0.51017 0.0
H703 H 0.56186 0.23905 0.51388 0.0
H704 H 0.44698 0.18069 0.50188 0.0
H705 H 0.44928 0.12439 0.49784 0.0
H706 H 0.48018 0.24714 0.48611 0.0
H707 H 0.47532 0.20258 0.54469 0.0
H708 H 0.49312 0.17788 0.57009 0.0
H709 H 0.59786 0.27498 0.57213 0.0
H710 H 0.58094 0.30007 0.54655 0.0
H711 H 0.46812 0.40124 0.52044 0.0
H712 H 0.45775 0.33937 0.51575 0.0
H713 H 0.57266 0.3795 0.5223 0.0
H714 H 0.58313 0.44091 0.52706 0.0
H715 H 0.53052 0.31785 0.54222 0.0
H716 H 0.53487 0.35913 0.48144 0.0
H717 H 0.51499 0.38265 0.45636 0.0
H718 H 0.40737 0.28981 0.4595 0.0
H719 H 0.42652 0.26598 0.48478 0.0
C720 C 0.53845 0.18219 0.50823 0.0
C721 C 0.50692 0.14914 0.50383 0.0
C722 C 0.53708 0.21416 0.51044 0.0
C723 C 0.5041 0.21406 0.50852 0.0
C724 C 0.47272 0.18145 0.50354 0.0
C725 C 0.47408 0.14926 0.50125 0.0
C726 C 0.50284 0.24807 0.51203 0.0
C727 C 0.49055 0.26225 0.49852 0.0
C728 C 0.51654 0.26803 0.52818 0.0
C729 C 0.52691 0.25313 0.54361 0.0
C730 C 0.50225 0.21858 0.55047 0.0
C731 C 0.51217 0.20452 0.56491 0.0
C732 C 0.54657 0.22487 0.57273 0.0
C733 C 0.57119 0.25929 0.56608 0.0
C734 C 0.56144 0.27346 0.55162 0.0
C735 C 0.49114 0.39683 0.52083 0.0
C736 C 0.52651 0.42615 0.52397 0.0
C737 C 0.48521 0.3615 0.51808 0.0
C738 C 0.51447 0.35476 0.5186 0.0
C739 C 0.54966 0.38396 0.52181 0.0
C740 C 0.55564 0.41918 0.52436 0.0
C741 C 0.50881 0.31738 0.51612 0.0
C742 C 0.51976 0.30252 0.5299 0.0
C743 C 0.4935 0.29669 0.50032 0.0
C744 C 0.48201 0.31101 0.48514 0.0
C745 C 0.50688 0.34391 0.47689 0.0
C746 C 0.49576 0.35725 0.46262 0.0
C747 C 0.4599 0.3378 0.45638 0.0
C748 C 0.43512 0.30489 0.46437 0.0
C749 C 0.44609 0.29144 0.47867 0.0
H750 H 0.45135 0.34817 0.44531 0.0
H751 H 0.55413 0.21401 0.58395 0.0
H752 H 0.4177 0.48971 0.86017 0.0
H753 H 0.36067 0.49018 0.86401 0.0
H754 H 0.39318 0.57146 0.8228 0.0
H755 H 0.45091 0.57233 0.81959 0.0
H756 H 0.36522 0.58957 0.84761 0.0
H757 H 0.32529 0.47634 0.81711 0.0
H758 H 0.31832 0.41576 0.81189 0.0
H759 H 0.26246 0.37861 0.86198 0.0
H760 H 0.26951 0.43913 0.86761 0.0
H761 H 0.19127 0.57149 0.83299 0.0
H762 H 0.2445 0.56458 0.82832 0.0
H763 H 0.22471 0.50872 0.87863 0.0
H764 H 0.17239 0.51687 0.88389 0.0
H765 H 0.24471 0.4767 0.84938 0.0
H766 H 0.28567 0.59243 0.87879 0.0
H767 H 0.2915 0.65293 0.88221 0.0
H768 H 0.3446 0.68493 0.8312 0.0
H769 H 0.33856 0.62437 0.82736 0.0
C770 C 0.41257 0.50752 0.85186 0.0
C771 C 0.43883 0.53092 0.83954 0.0
C772 C 0.37978 0.50764 0.85399 0.0
C773 C 0.37203 0.53042 0.8435 0.0
C774 C 0.39828 0.55362 0.83111 0.0
C775 C 0.43132 0.55404 0.82924 0.0
C776 C 0.33723 0.53101 0.84572 0.0
C777 C 0.33893 0.5648 0.8477 0.0
C778 C 0.30264 0.49882 0.84623 0.0
C779 C 0.29824 0.46237 0.84286 0.0
C780 C 0.31174 0.45532 0.82707 0.0
C781 C 0.30774 0.42099 0.82403 0.0
C782 C 0.29004 0.39339 0.83662 0.0
C783 C 0.27621 0.40003 0.85225 0.0
C784 C 0.28016 0.43434 0.85537 0.0
C785 C 0.19815 0.55781 0.84315 0.0
C786 C 0.17744 0.54513 0.85894 0.0
C787 C 0.22854 0.55368 0.84037 0.0
C788 C 0.23878 0.5364 0.8532 0.0
C789 C 0.21726 0.52207 0.86853 0.0
C790 C 0.18712 0.5266 0.87145 0.0
C791 C 0.27303 0.53511 0.85105 0.0
C792 C 0.27114 0.5013 0.84918 0.0
C793 C 0.30742 0.56725 0.85034 0.0
C794 C 0.31132 0.60375 0.85271 0.0
C795 C 0.29831 0.61226 0.86823 0.0
C796 C 0.3017 0.64658 0.87026 0.0
C797 C 0.31832 0.67272 0.85691 0.0
C798 C 0.33168 0.66463 0.84152 0.0
C799 C 0.3283 0.63032 0.83942 0.0
H800 H 0.32093 0.69928 0.8585 0.0
H801 H 0.28698 0.36682 0.83424 0.0
H802 H 0.89712 0.4394 0.17831 0.0
H803 H 0.84207 0.38081 0.18241 0.0
H804 H 0.89576 0.32632 0.15995 0.0
H805 H 0.95102 0.38527 0.15533 0.0
H806 H 0.82608 0.29459 0.14857 0.0
H807 H 0.88682 0.33128 0.20533 0.0
H808 H 0.91639 0.37323 0.23074 0.0
H809 H 0.81708 0.37312 0.24197 0.0
H810 H 0.78707 0.33163 0.21644 0.0
H811 H 0.70424 0.11845 0.18229 0.0
H812 H 0.7567 0.17715 0.17489 0.0
H813 H 0.70546 0.23184 0.19981 0.0
H814 H 0.65352 0.17303 0.20813 0.0
H815 H 0.77395 0.26375 0.20966 0.0
H816 H 0.71307 0.22633 0.15281 0.0
H817 H 0.68422 0.18496 0.12713 0.0
H818 H 0.78421 0.18631 0.11604 0.0
H819 H 0.81353 0.22733 0.14181 0.0
C820 C 0.89725 0.41508 0.17399 0.0
C821 C 0.92872 0.41723 0.16649 0.0
C822 C 0.86568 0.38145 0.17649 0.0
C823 C 0.86482 0.34893 0.17183 0.0
C824 C 0.89572 0.35096 0.16374 0.0
C825 C 0.92736 0.38474 0.16112 0.0
C826 C 0.83206 0.31297 0.17589 0.0
C827 C 0.81496 0.28767 0.16197 0.0
C828 C 0.81696 0.30406 0.19331 0.0
C829 C 0.83478 0.32857 0.20887 0.0
C830 C 0.87134 0.34037 0.21315 0.0
C831 C 0.88819 0.36406 0.22758 0.0
C832 C 0.86865 0.37588 0.23795 0.0
C833 C 0.83219 0.36396 0.23393 0.0
C834 C 0.81524 0.34034 0.21948 0.0
C835 C 0.70405 0.14288 0.18631 0.0
C836 C 0.67444 0.1407 0.19593 0.0
C837 C 0.73404 0.1766 0.18184 0.0
C838 C 0.73512 0.20921 0.18657 0.0
C839 C 0.7054 0.20719 0.19594 0.0
C840 C 0.67544 0.17341 0.20053 0.0
C841 C 0.7677 0.24529 0.1823 0.0
C842 C 0.78492 0.27063 0.19622 0.0
C843 C 0.78293 0.25417 0.16488 0.0
C844 C 0.76539 0.22965 0.14934 0.0
C845 C 0.72883 0.2176 0.14497 0.0
C846 C 0.71241 0.19425 0.13038 0.0
C847 C 0.73234 0.18295 0.11999 0.0
C848 C 0.76878 0.19506 0.12412 0.0
C849 C 0.78533 0.21839 0.1387 0.0
H850 H 0.71958 0.16486 0.1087 0.0
H851 H 0.88174 0.39423 0.24911 0.0
H852 H 0.01656 0.48409 0.11711 0.0
H853 H 0.02377 0.48325 0.08453 0.0
H854 H 0.0585 0.59766 0.08248 0.0
H855 H 0.05062 0.59838 0.11479 0.0
H856 H 0.00874 0.5619 0.05778 0.0
H857 H 0.12022 0.56701 0.07655 0.0
H858 H 0.15577 0.54599 0.09378 0.0
H859 H 0.09758 0.44133 0.06818 0.0
H860 H 0.06185 0.46187 0.0507 0.0
H861 H 0.08895 0.61705 0.97352 0.0
H862 H 0.08196 0.60735 0.00578 0.0
H863 H 0.03334 0.49167 0.9975 0.0
H864 H 0.04063 0.50122 0.965 0.0
H865 H 0.08539 0.52077 0.0268 0.0
H866 H 0.97836 0.52047 0.00556 0.0
H867 H 0.94475 0.54417 0.98869 0.0
H868 H 0.99613 0.6426 0.01987 0.0
H869 H 0.03048 0.61971 0.03676 0.0
C870 C 0.02595 0.50904 0.10967 0.0
C871 C 0.03282 0.54124 0.11841 0.0
C872 C 0.0302 0.50859 0.09109 0.0
C873 C 0.04175 0.54044 0.08104 0.0
C874 C 0.04935 0.57272 0.08991 0.0
C875 C 0.04493 0.57312 0.10838 0.0
C876 C 0.04471 0.54026 0.06123 0.0
C877 C 0.02576 0.55319 0.05106 0.0
C878 C 0.0661 0.52796 0.05237 0.0
C879 C 0.08819 0.51585 0.06245 0.0
C880 C 0.115 0.5395 0.07462 0.0
C881 C 0.13522 0.5277 0.08441 0.0
C882 C 0.12887 0.49231 0.08212 0.0
C883 C 0.10252 0.46875 0.06992 0.0
C884 C 0.08237 0.4805 0.06002 0.0
C885 C 0.07726 0.58956 0.97853 0.0
C886 C 0.06531 0.55989 0.96669 0.0
C887 C 0.07311 0.58406 0.99697 0.0
C888 C 0.05694 0.54879 0.004 0.0
C889 C 0.04589 0.5191 0.99232 0.0
C890 C 0.04979 0.52457 0.97378 0.0
C891 C 0.05011 0.54325 0.02351 0.0
C892 C 0.06815 0.52916 0.03357 0.0
C893 C 0.02811 0.55477 0.03235 0.0
C894 C 0.0072 0.56847 0.02234 0.0
C895 C 0.98269 0.54728 0.00874 0.0
C896 C 0.96348 0.56055 0.99918 0.0
C897 C 0.96835 0.59489 0.00318 0.0
C898 C 0.99239 0.616 0.01678 0.0
C899 C 0.01171 0.60288 0.02636 0.0
H900 H 0.95346 0.60512 0.99576 0.0
H901 H 0.1444 0.4832 0.08981 0.0
H902 H 0.47652 0.00743 0.45632 0.0
H903 H 0.46199 0.99403 0.42427 0.0
H904 H 0.55295 0.0991 0.41095 0.0
H905 H 0.56803 0.11203 0.4427 0.0
H906 H 0.48527 0.07557 0.39001 0.0
H907 H 0.56944 0.03527 0.41032 0.0
H908 H 0.58591 0.99916 0.42997 0.0
H909 H 0.4909 0.90101 0.41257 0.0
H910 H 0.4736 0.93668 0.39301 0.0
H911 H 0.5473 0.07607 0.30289 0.0
H912 H 0.53835 0.08085 0.33475 0.0
H913 H 0.47368 0.96393 0.33816 0.0
H914 H 0.48486 0.95876 0.30662 0.0
H915 H 0.51602 0.98595 0.36482 0.0
H916 H 0.43594 0.02228 0.34081 0.0
H917 H 0.41554 0.05581 0.32163 0.0
H918 H 0.49475 0.15659 0.34593 0.0
H919 H 0.516 0.12374 0.36509 0.0
C920 C 0.49277 0.02788 0.44652 0.0
C921 C 0.52334 0.06073 0.45186 0.0
C922 C 0.48457 0.0202 0.42827 0.0
C923 C 0.50646 0.04563 0.41529 0.0
C924 C 0.53565 0.07924 0.42076 0.0
C925 C 0.5443 0.08652 0.43887 0.0
C926 C 0.50169 0.03636 0.39597 0.0
C927 C 0.49192 0.05599 0.38441 0.0
C928 C 0.50934 0.01004 0.38882 0.0
C929 C 0.52 0.98864 0.4004 0.0
C930 C 0.55191 0.00602 0.41081 0.0
C931 C 0.56142 0.98564 0.4219 0.0
C932 C 0.5394 0.94782 0.42257 0.0
C933 C 0.50789 0.93031 0.41208 0.0
C934 C 0.49822 0.95059 0.40099 0.0
C935 C 0.53139 0.05129 0.31039 0.0
C936 C 0.51686 0.01702 0.30203 0.0
C937 C 0.52574 0.0541 0.32863 0.0
C938 C 0.50473 0.02278 0.33891 0.0
C939 C 0.48981 0.98856 0.33056 0.0
C940 C 0.49591 0.98569 0.3124 0.0
C941 C 0.50018 0.02572 0.35852 0.0
C942 C 0.50844 0.00499 0.37023 0.0
C943 C 0.49041 0.05057 0.36578 0.0
C944 C 0.47774 0.07053 0.35431 0.0
C945 C 0.44919 0.05162 0.34198 0.0
C946 C 0.43745 0.07051 0.33112 0.0
C947 C 0.45388 0.10831 0.33254 0.0
C948 C 0.48205 0.12731 0.34484 0.0
C949 C 0.49393 0.10856 0.35573 0.0
H950 H 0.44475 0.12288 0.32412 0.0
H951 H 0.5468 0.93209 0.43117 0.0
H952 H 0.48489 0.48065 0.77495 0.0
H953 H 0.49339 0.49414 0.743 0.0
H954 H 0.59035 0.59645 0.75431 0.0
H955 H 0.58249 0.58264 0.78653 0.0
H956 H 0.53369 0.59446 0.72738 0.0
H957 H 0.60951 0.54255 0.74041 0.0
H958 H 0.62231 0.497 0.75366 0.0
H959 H 0.5368 0.41292 0.72206 0.0
H960 H 0.52309 0.45791 0.70884 0.0
H961 H 0.58803 0.62299 0.63566 0.0
H962 H 0.58634 0.61985 0.66835 0.0
H963 H 0.51421 0.50367 0.66531 0.0
H964 H 0.51661 0.50665 0.63262 0.0
H965 H 0.56393 0.51757 0.689 0.0
H966 H 0.48495 0.56558 0.677 0.0
H967 H 0.46739 0.60815 0.66432 0.0
H968 H 0.55308 0.69623 0.69401 0.0
H969 H 0.57147 0.65423 0.70669 0.0
C970 C 0.50796 0.50613 0.77068 0.0
C971 C 0.53317 0.53054 0.78319 0.0
C972 C 0.51274 0.51376 0.75243 0.0
C973 C 0.54253 0.54617 0.74636 0.0
C974 C 0.56718 0.57129 0.75881 0.0
C975 C 0.56274 0.56335 0.77714 0.0
C976 C 0.54819 0.55263 0.72688 0.0
C977 C 0.54103 0.57825 0.71895 0.0
C978 C 0.55666 0.53062 0.71597 0.0
C979 C 0.56506 0.50355 0.72376 0.0
C980 C 0.59322 0.51429 0.73641 0.0
C981 C 0.60068 0.48859 0.74389 0.0
C982 C 0.58032 0.45207 0.73874 0.0
C983 C 0.55252 0.44121 0.72605 0.0
C984 C 0.54492 0.46681 0.71855 0.0
C985 C 0.57151 0.59685 0.64199 0.0
C986 C 0.55236 0.56506 0.6316 0.0
C987 C 0.57053 0.59508 0.66068 0.0
C988 C 0.54983 0.56157 0.66936 0.0
C989 C 0.53047 0.52984 0.65896 0.0
C990 C 0.53181 0.53155 0.64029 0.0
C991 C 0.54902 0.55926 0.68924 0.0
C992 C 0.55701 0.53423 0.69732 0.0
C993 C 0.54083 0.58154 0.70024 0.0
C994 C 0.52984 0.60684 0.69263 0.0
C995 C 0.50024 0.59408 0.68071 0.0
C996 C 0.49011 0.6181 0.67354 0.0
C997 C 0.50918 0.6549 0.67831 0.0
C998 C 0.53838 0.66773 0.6903 0.0
C999 C 0.54865 0.64383 0.69749 0.0
H1000 H 0.50129 0.67345 0.67276 0.0
H1001 H 0.58614 0.43221 0.74454 0.0
H1002 H 0.46938 0.07024 0.56219 0.0
H1003 H 0.49343 0.08717 0.59267 0.0
H1004 H 0.58838 0.08118 0.57742 0.0
H1005 H 0.56418 0.06371 0.54696 0.0
H1006 H 0.50748 0.04513 0.61545 0.0
H1007 H 0.66113 0.14749 0.60303 0.0
H1008 H 0.69997 0.19646 0.58209 0.0
H1009 H 0.60989 0.21121 0.56853 0.0
H1010 H 0.57062 0.16278 0.58958 0.0
H1011 H 0.61277 0.05748 0.69109 0.0
H1012 H 0.59047 0.05199 0.66044 0.0
H1013 H 0.60346 0.15927 0.66427 0.0
H1014 H 0.62553 0.16489 0.69504 0.0
H1015 H 0.62799 0.14923 0.63248 0.0
H1016 H 0.5203 0.0861 0.6679 0.0
H1017 H 0.47969 0.04179 0.69024 0.0
H1018 H 0.47336 0.95417 0.65855 0.0
H1019 H 0.51437 0.99801 0.63614 0.0
C1020 C 0.49551 0.07282 0.56531 0.0
C1021 C 0.51491 0.06558 0.55227 0.0
C1022 C 0.50918 0.08245 0.5827 0.0
C1023 C 0.54268 0.08549 0.58726 0.0
C1024 C 0.56262 0.0793 0.57411 0.0
C1025 C 0.54877 0.06928 0.55675 0.0
C1026 C 0.55564 0.09277 0.60603 0.0
C1027 C 0.53381 0.06792 0.61918 0.0
C1028 C 0.58973 0.12282 0.6109 0.0
C1029 C 0.61286 0.1513 0.59782 0.0
C1030 C 0.6496 0.16122 0.59561 0.0
C1031 C 0.67171 0.18893 0.58375 0.0
C1032 C 0.65741 0.20706 0.57411 0.0
C1033 C 0.62089 0.1972 0.57609 0.0
C1034 C 0.59868 0.16955 0.58794 0.0
C1035 C 0.61062 0.07981 0.68547 0.0
C1036 C 0.6207 0.11153 0.69555 0.0
C1037 C 0.59799 0.07667 0.66793 0.0
C1038 C 0.59497 0.10508 0.66015 0.0
C1039 C 0.60565 0.13706 0.67002 0.0
C1040 C 0.61832 0.14024 0.68758 0.0
C1041 C 0.58018 0.1011 0.64178 0.0
C1042 C 0.60167 0.12647 0.62872 0.0
C1043 C 0.54548 0.07185 0.63701 0.0
C1044 C 0.52066 0.04538 0.65042 0.0
C1045 C 0.51046 0.05741 0.66576 0.0
C1046 C 0.48734 0.03237 0.67842 0.0
C1047 C 0.47402 0.9952 0.67583 0.0
C1048 C 0.48373 0.98297 0.66055 0.0
C1049 C 0.50688 0.0079 0.64785 0.0
H1050 H 0.45612 0.97586 0.68565 0.0
H1051 H 0.67462 0.22879 0.5651 0.0
H1052 H 0.50556 0.49136 0.87924 0.0
H1053 H 0.49956 0.46993 0.91005 0.0
H1054 H 0.59649 0.56993 0.92484 0.0
H1055 H 0.60342 0.5907 0.89386 0.0
H1056 H 0.5972 0.51549 0.94042 0.0
H1057 H 0.50883 0.55387 0.93399 0.0
H1058 H 0.45691 0.55524 0.91994 0.0
H1059 H 0.38821 0.44126 0.9303 0.0
H1060 H 0.43987 0.4391 0.9442 0.0
H1061 H 0.56848 0.50949 0.03452 0.0
H1062 H 0.57551 0.5259 0.00281 0.0
H1063 H 0.48718 0.41888 0.98944 0.0
H1064 H 0.47978 0.4024 0.02116 0.0
H1065 H 0.48139 0.47458 0.97308 0.0
H1066 H 0.57125 0.43833 0.98089 0.0
H1067 H 0.624 0.43909 0.99521 0.0
H1068 H 0.69083 0.55243 0.98284 0.0
H1069 H 0.63831 0.55247 0.96867 0.0
C1070 C 0.52568 0.50861 0.88906 0.0
C1071 C 0.55488 0.5427 0.88423 0.0
C1072 C 0.52212 0.49647 0.90668 0.0
C1073 C 0.54724 0.51859 0.91985 0.0
C1074 C 0.57675 0.55242 0.91493 0.0
C1075 C 0.5806 0.56433 0.89726 0.0
C1076 C 0.54265 0.50672 0.93879 0.0
C1077 C 0.57201 0.50696 0.94761 0.0
C1078 C 0.50955 0.49492 0.9481 0.0
C1079 C 0.47831 0.49625 0.93998 0.0
C1080 C 0.4827 0.52905 0.93317 0.0
C1081 C 0.45332 0.52997 0.92525 0.0
C1082 C 0.41931 0.49833 0.92418 0.0
C1083 C 0.41458 0.46573 0.93111 0.0
C1084 C 0.4439 0.46465 0.93903 0.0
C1085 C 0.55055 0.4895 0.02481 0.0
C1086 C 0.52363 0.45465 0.03029 0.0
C1087 C 0.55473 0.49882 0.00672 0.0
C1088 C 0.53201 0.4735 0.9938 0.0
C1089 C 0.50503 0.43874 0.99922 0.0
C1090 C 0.50102 0.4293 0.0173 0.0
C1091 C 0.53598 0.48358 0.97465 0.0
C1092 C 0.50651 0.48302 0.96583 0.0
C1093 C 0.56909 0.49547 0.9654 0.0
C1094 C 0.60074 0.49547 0.97386 0.0
C1095 C 0.59711 0.46349 0.98135 0.0
C1096 C 0.62699 0.46376 0.98942 0.0
C1097 C 0.66072 0.49581 0.98997 0.0
C1098 C 0.66467 0.52763 0.98242 0.0
C1099 C 0.63486 0.52751 0.97435 0.0
H1100 H 0.68382 0.49596 0.99622 0.0
H1101 H 0.39661 0.4991 0.91802 0.0
H1102 H 0.02592 0.55167 0.21768 0.0
H1103 H 0.01375 0.55105 0.24981 0.0
H1104 H 1.00272 0.4446 0.25402 0.0
H1105 H 0.01371 0.44468 0.22198 0.0
H1106 H 0.9538 0.44808 0.27432 0.0
H1107 H 0.08361 0.52432 0.26423 0.0
H1108 H 0.13783 0.57601 0.25079 0.0
H1109 H 0.10905 0.65053 0.27446 0.0
H1110 H 0.05439 0.5992 0.28786 0.0
H1111 H 0.00906 0.43665 0.36219 0.0
H1112 H 1.00025 0.43984 0.33006 0.0
H1113 H 0.00456 0.54274 0.33759 0.0
H1114 H 0.01416 0.54009 0.36972 0.0
H1115 H 0.05007 0.54604 0.31156 0.0
H1116 H 0.92524 0.46804 0.3261 0.0
H1117 H 0.87231 0.41527 0.33965 0.0
H1118 H 0.8926 0.3427 0.30795 0.0
H1119 H 0.94602 0.39501 0.29439 0.0
C1120 C 0.02058 0.52807 0.22549 0.0
C1121 C 0.02122 0.49842 0.21746 0.0
C1122 C 0.01371 0.52776 0.24381 0.0
C1123 C 0.00791 0.49801 0.25438 0.0
C1124 C 0.00717 0.46786 0.24616 0.0
C1125 C 0.01371 0.46804 0.22788 0.0
C1126 C 0.00466 0.49874 0.27412 0.0
C1127 C 0.97489 0.46941 0.28249 0.0
C1128 C 0.0317 0.52708 0.28475 0.0
C1129 C 0.06473 0.55793 0.27686 0.0
C1130 C 0.08874 0.55172 0.26647 0.0
C1131 C 0.11955 0.58095 0.25887 0.0
C1132 C 0.12681 0.61652 0.26172 0.0
C1133 C 0.10335 0.62295 0.27223 0.0
C1134 C 0.07246 0.59382 0.27983 0.0
C1135 C 0.00784 0.45981 0.35701 0.0
C1136 C 0.01239 0.48815 0.36846 0.0
C1137 C 1.00247 0.46145 0.33868 0.0
C1138 C 1.00146 0.49141 0.33146 0.0
C1139 C 0.00507 0.51931 0.34291 0.0
C1140 C 0.01031 0.51762 0.36127 0.0
C1141 C 0.99968 0.49486 0.3118 0.0
C1142 C 0.02857 0.525 0.30344 0.0
C1143 C 0.97199 0.46709 0.30121 0.0
C1144 C 0.93983 0.4355 0.30932 0.0
C1145 C 0.91861 0.44083 0.32212 0.0
C1146 C 0.88848 0.41099 0.32979 0.0
C1147 C 0.87914 0.37566 0.32469 0.0
C1148 C 0.89988 0.37009 0.31189 0.0
C1149 C 0.93007 0.39983 0.30419 0.0
H1150 H 0.85579 0.35259 0.33064 0.0
H1151 H 0.15067 0.63911 0.25582 0.0
loop_
_geom_bond_atom_site_label_1
_geom_bond_atom_site_label_2
_geom_bond_distance
_geom_bond_site_symmetry_2
_ccdc_geom_bond_type
Dy0 O4 2.398 . S
Dy0 O5 2.491 . S
Dy0 O6 2.403 . S
Dy0 O7 2.664 . S
Dy0 O11 2.326 . S
Dy0 O15 2.310 . S
Dy0 O16 2.347 1_455 S
C1 O12 1.185 . S
C1 O13 1.355 . S
C2 O4 1.185 . S
C2 O5 1.355 . S
Dy3 O7 2.310 . S
Dy3 O10 2.351 . S
Dy3 O12 2.398 1_455 S
Dy3 O13 2.491 1_455 S
Dy3 O14 2.403 . S
Dy3 O15 2.664 . S
Dy3 O17 2.326 1_455 S
O4 Dy0 2.398 . S
O4 C2 1.185 . S
O5 Dy0 2.491 . S
O5 C2 1.355 . S
O6 Dy0 2.403 . S
O6 C8 1.254 . S
O7 Dy0 2.664 . S
O7 Dy3 2.310 . S
O7 C8 1.268 . S
C8 O6 1.254 . S
C8 O7 1.268 . S
C9 O14 1.254 . S
C9 O15 1.268 . S
O10 Dy3 2.351 . S
O10 C18 1.249 . S
O11 Dy0 2.326 . S
O11 C18 1.267 . S
O12 C1 1.185 . S
O12 Dy3 2.398 1_655 S
O13 C1 1.355 . S
O13 Dy3 2.491 1_655 S
O14 Dy3 2.403 . S
O14 C9 1.254 . S
O15 Dy0 2.310 . S
O15 Dy3 2.664 . S
O15 C9 1.268 . S
O16 Dy0 2.347 1_655 S
O16 C19 1.255 . S
O17 Dy3 2.326 1_655 S
O17 C19 1.267 . S
C18 O10 1.249 . S
C18 O11 1.267 . S
C19 O16 1.255 . S
C19 O17 1.267 . S
Dy20 O24 2.398 1_545 S
Dy20 O25 2.491 1_545 S
Dy20 O26 2.403 . S
Dy20 O27 2.664 . S
Dy20 O31 2.326 1_545 S
Dy20 O35 2.310 . S
Dy20 O36 2.351 . S
C21 O32 1.185 . S
C21 O33 1.355 . S
C22 O24 1.185 . S
C22 O25 1.355 . S
Dy23 O27 2.310 . S
Dy23 O30 2.327 1_545 S
Dy23 O32 2.398 . S
Dy23 O33 2.491 . S
Dy23 O34 2.403 . S
Dy23 O35 2.664 . S
Dy23 O37 2.326 . S
O24 Dy20 2.398 1_565 S
O24 C22 1.185 . S
O25 Dy20 2.491 1_565 S
O25 C22 1.355 . S
O26 Dy20 2.403 . S
O26 C28 1.254 . S
O27 Dy20 2.664 . S
O27 Dy23 2.310 . S
O27 C28 1.268 . S
C28 O26 1.254 . S
C28 O27 1.268 . S
C29 O34 1.254 . S
C29 O35 1.268 . S
O30 Dy23 2.327 1_565 S
O30 C38 1.260 . S
O31 Dy20 2.326 1_565 S
O31 C38 1.267 . S
O32 C21 1.185 . S
O32 Dy23 2.398 . S
O33 C21 1.355 . S
O33 Dy23 2.491 . S
O34 Dy23 2.403 . S
O34 C29 1.254 . S
O35 Dy20 2.310 . S
O35 Dy23 2.664 . S
O35 C29 1.268 . S
O36 Dy20 2.351 . S
O36 C39 1.249 . S
O37 Dy23 2.326 . S
O37 C39 1.267 . S
C38 O30 1.260 . S
C38 O31 1.267 . S
C39 O36 1.249 . S
C39 O37 1.267 . S
Dy40 O44 2.398 . S
Dy40 O45 2.491 . S
Dy40 O46 2.403 . S
Dy40 O47 2.664 . S
Dy40 O51 2.326 . S
Dy40 O55 2.310 . S
Dy40 O56 2.351 . S
C41 O52 1.185 . S
C41 O53 1.355 . S
C42 O44 1.185 . S
C42 O45 1.355 . S
Dy43 O47 2.310 . S
Dy43 O50 2.351 . S
Dy43 O52 2.398 . S
Dy43 O53 2.491 . S
Dy43 O54 2.403 . S
Dy43 O55 2.664 . S
Dy43 O57 2.326 . S
O44 Dy40 2.398 . S
O44 C42 1.185 . S
O45 Dy40 2.491 . S
O45 C42 1.355 . S
O46 Dy40 2.403 . S
O46 C48 1.254 . S
O47 Dy40 2.664 . S
O47 Dy43 2.310 . S
O47 C48 1.268 . S
C48 O46 1.254 . S
C48 O47 1.268 . S
C49 O54 1.254 . S
C49 O55 1.268 . S
O50 Dy43 2.351 . S
O50 C58 1.249 . S
O51 Dy40 2.326 . S
O51 C58 1.267 . S
O52 C41 1.185 . S
O52 Dy43 2.398 . S
O53 C41 1.355 . S
O53 Dy43 2.491 . S
O54 Dy43 2.403 . S
O54 C49 1.254 . S
O55 Dy40 2.310 . S
O55 Dy43 2.664 . S
O55 C49 1.268 . S
O56 Dy40 2.351 . S
O56 C59 1.249 . S
O57 Dy43 2.326 . S
O57 C59 1.267 . S
C58 O50 1.249 . S
C58 O51 1.267 . S
C59 O56 1.249 . S
C59 O57 1.267 . S
P60 O71 1.490 . S
P60 C74 1.812 . S
P60 C80 1.803 1_565 S
P60 C86 1.819 . S
H61 C75 0.941 . S
H62 C76 0.939 . S
H63 C78 0.940 . S
H64 C79 0.940 . S
H65 C81 0.939 . S
H66 C82 0.942 . S
H67 C84 0.940 . S
H68 C85 0.939 . S
H69 C87 0.941 . S
H70 C91 0.939 . S
O71 P60 1.490 . S
H72 C88 0.939 . S
H73 C90 0.940 . S
C74 P60 1.812 . S
C74 C75 1.389 . S
C74 C79 1.391 . S
C75 H61 0.941 . S
C75 C74 1.389 . S
C75 C76 1.397 . S
C76 H62 0.939 . S
C76 C75 1.397 . S
C76 C77 1.378 . S
C77 C76 1.378 . S
C77 C78 1.378 . S
C78 H63 0.940 . S
C78 C77 1.378 . S
C78 C79 1.396 . S
C79 H64 0.940 . S
C79 C74 1.391 . S
C79 C78 1.396 . S
C80 P60 1.803 1_545 S
C80 C81 1.378 . S
C80 C85 1.400 . S
C81 H65 0.939 . S
C81 C80 1.378 . S
C81 C82 1.361 . S
C82 H66 0.942 . S
C82 C81 1.361 . S
C82 C83 1.369 . S
C83 C82 1.369 . S
C83 C84 1.404 . S
C84 H67 0.940 . S
C84 C83 1.404 . S
C84 C85 1.389 . S
C85 H68 0.939 . S
C85 C80 1.400 . S
C85 C84 1.389 . S
C86 P60 1.819 . S
C86 C87 1.391 . S
C86 C91 1.391 1_565 S
C87 H69 0.941 . S
C87 C86 1.391 . S
C87 C88 1.396 . S
C88 H72 0.939 . S
C88 C87 1.396 . S
C88 C89 1.397 1_565 S
C89 C88 1.397 1_545 S
C89 C90 1.385 . S
C90 H73 0.940 . S
C90 C89 1.385 . S
C90 C91 1.388 . S
C91 H70 0.939 . S
C91 C86 1.391 1_545 S
C91 C90 1.388 . S
P92 O103 1.490 . S
P92 C106 1.812 . S
P92 C112 1.803 . S
P92 C118 1.819 . S
H93 C107 0.941 . S
H94 C108 0.939 . S
H95 C110 0.940 . S
H96 C111 0.940 . S
H97 C113 0.939 . S
H98 C114 0.942 . S
H99 C116 0.940 . S
H100 C117 0.939 . S
H101 C119 0.941 . S
H102 C123 0.939 . S
O103 P92 1.490 . S
H104 C120 0.939 . S
H105 C122 0.940 . S
C106 P92 1.812 . S
C106 C107 1.389 . S
C106 C111 1.391 . S
C107 H93 0.941 . S
C107 C106 1.389 . S
C107 C108 1.397 . S
C108 H94 0.939 . S
C108 C107 1.397 . S
C108 C109 1.378 . S
C109 C108 1.378 . S
C109 C110 1.378 . S
C110 H95 0.940 . S
C110 C109 1.378 . S
C110 C111 1.396 . S
C111 H96 0.940 . S
C111 C106 1.391 . S
C111 C110 1.396 . S
C112 P92 1.803 . S
C112 C113 1.378 . S
C112 C117 1.400 . S
C113 H97 0.939 . S
C113 C112 1.378 . S
C113 C114 1.361 . S
C114 H98 0.942 . S
C114 C113 1.361 . S
C114 C115 1.369 . S
C115 C114 1.369 . S
C115 C116 1.404 . S
C116 H99 0.940 . S
C116 C115 1.404 . S
C116 C117 1.389 . S
C117 H100 0.939 . S
C117 C112 1.400 . S
C117 C116 1.389 . S
C118 P92 1.819 . S
C118 C119 1.391 . S
C118 C123 1.391 . S
C119 H101 0.941 . S
C119 C118 1.391 . S
C119 C120 1.396 . S
C120 H104 0.939 . S
C120 C119 1.396 . S
C120 C121 1.397 . S
C121 C120 1.397 . S
C121 C122 1.385 . S
C122 H105 0.940 . S
C122 C121 1.385 . S
C122 C123 1.388 . S
C123 H102 0.939 . S
C123 C118 1.391 . S
C123 C122 1.388 . S
P124 O135 1.490 . S
P124 C138 1.812 . S
P124 C144 1.803 . S
P124 C150 1.819 . S
H125 C139 0.941 . S
H126 C140 0.939 . S
H127 C142 0.940 . S
H128 C143 0.940 . S
H129 C145 0.939 . S
H130 C146 0.942 . S
H131 C148 0.940 . S
H132 C149 0.939 . S
H133 C151 0.941 . S
H134 C155 0.939 . S
O135 P124 1.490 . S
H136 C152 0.939 . S
H137 C154 0.940 . S
C138 P124 1.812 . S
C138 C139 1.389 . S
C138 C143 1.391 . S
C139 H125 0.941 . S
C139 C138 1.389 . S
C139 C140 1.397 . S
C140 H126 0.939 . S
C140 C139 1.397 . S
C140 C141 1.378 . S
C141 C140 1.378 . S
C141 C142 1.378 . S
C142 H127 0.940 . S
C142 C141 1.378 . S
C142 C143 1.396 . S
C143 H128 0.940 . S
C143 C138 1.391 . S
C143 C142 1.396 . S
C144 P124 1.803 . S
C144 C145 1.378 . S
C144 C149 1.400 . S
C145 H129 0.939 . S
C145 C144 1.378 . S
C145 C146 1.361 1_455 S
C146 H130 0.942 . S
C146 C145 1.361 1_655 S
C146 C147 1.369 . S
C147 C146 1.369 . S
C147 C148 1.404 . S
C148 H131 0.940 . S
C148 C147 1.404 . S
C148 C149 1.389 1_655 S
C149 H132 0.939 . S
C149 C144 1.400 . S
C149 C148 1.389 1_455 S
C150 P124 1.819 . S
C150 C151 1.391 . S
C150 C155 1.391 . S
C151 H133 0.941 . S
C151 C150 1.391 . S
C151 C152 1.396 . S
C152 H136 0.939 . S
C152 C151 1.396 . S
C152 C153 1.397 . S
C153 C152 1.397 . S
C153 C154 1.385 . S
C154 H137 0.940 . S
C154 C153 1.385 . S
C154 C155 1.388 . S
C155 H134 0.939 . S
C155 C150 1.391 . S
C155 C154 1.388 . S
P156 O167 1.490 . S
P156 C170 1.812 . S
P156 C176 1.803 1_455 S
P156 C182 1.819 . S
H157 C171 0.941 . S
H158 C172 0.939 . S
H159 C174 0.940 . S
H160 C175 0.940 . S
H161 C177 0.939 . S
H162 C178 0.942 . S
H163 C180 0.940 . S
H164 C181 0.939 . S
H165 C183 0.941 . S
H166 C187 0.939 . S
O167 P156 1.490 . S
H168 C184 0.939 . S
H169 C186 0.940 . S
C170 P156 1.812 . S
C170 C171 1.389 . S
C170 C175 1.391 . S
C171 H157 0.941 . S
C171 C170 1.389 . S
C171 C172 1.397 . S
C172 H158 0.939 . S
C172 C171 1.397 . S
C172 C173 1.378 . S
C173 C172 1.378 . S
C173 C174 1.378 . S
C174 H159 0.940 . S
C174 C173 1.378 . S
C174 C175 1.396 . S
C175 H160 0.940 . S
C175 C170 1.391 . S
C175 C174 1.396 . S
C176 P156 1.803 1_655 S
C176 C177 1.378 . S
C176 C181 1.400 . S
C177 H161 0.939 . S
C177 C176 1.378 . S
C177 C178 1.361 . S
C178 H162 0.942 . S
C178 C177 1.361 . S
C178 C179 1.369 . S
C179 C178 1.369 . S
C179 C180 1.404 . S
C180 H163 0.940 . S
C180 C179 1.404 . S
C180 C181 1.389 . S
C181 H164 0.939 . S
C181 C176 1.400 . S
C181 C180 1.389 . S
C182 P156 1.819 . S
C182 C183 1.391 . S
C182 C187 1.391 1_455 S
C183 H165 0.941 . S
C183 C182 1.391 . S
C183 C184 1.396 . S
C184 H168 0.939 . S
C184 C183 1.396 . S
C184 C185 1.397 . S
C185 C184 1.397 . S
C185 C186 1.385 1_455 S
C186 H169 0.940 . S
C186 C185 1.385 1_655 S
C186 C187 1.388 . S
C187 H166 0.939 . S
C187 C182 1.391 1_655 S
C187 C186 1.388 . S
P188 O199 1.490 . S
P188 C202 1.812 . S
P188 C208 1.803 . S
P188 C214 1.819 . S
H189 C203 0.941 . S
H190 C204 0.939 . S
H191 C206 0.940 . S
H192 C207 0.940 . S
H193 C209 0.939 . S
H194 C210 0.942 . S
H195 C212 0.940 . S
H196 C213 0.939 . S
H197 C215 0.941 . S
H198 C219 0.939 . S
O199 P188 1.490 . S
H200 C216 0.939 . S
H201 C218 0.940 . S
C202 P188 1.812 . S
C202 C203 1.389 . S
C202 C207 1.391 . S
C203 H189 0.941 . S
C203 C202 1.389 . S
C203 C204 1.397 . S
C204 H190 0.939 . S
C204 C203 1.397 . S
C204 C205 1.378 . S
C205 C204 1.378 . S
C205 C206 1.378 . S
C206 H191 0.940 . S
C206 C205 1.378 . S
C206 C207 1.396 . S
C207 H192 0.940 . S
C207 C202 1.391 . S
C207 C206 1.396 . S
C208 P188 1.803 . S
C208 C209 1.378 . S
C208 C213 1.400 . S
C209 H193 0.939 . S
C209 C208 1.378 . S
C209 C210 1.361 1_545 S
C210 H194 0.942 . S
C210 C209 1.361 1_565 S
C210 C211 1.369 . S
C211 C210 1.369 . S
C211 C212 1.404 . S
C212 H195 0.940 . S
C212 C211 1.404 . S
C212 C213 1.389 1_565 S
C213 H196 0.939 . S
C213 C208 1.400 . S
C213 C212 1.389 1_545 S
C214 P188 1.819 . S
C214 C215 1.391 . S
C214 C219 1.391 . S
C215 H197 0.941 . S
C215 C214 1.391 . S
C215 C216 1.396 . S
C216 H200 0.939 . S
C216 C215 1.396 . S
C216 C217 1.397 . S
C217 C216 1.397 . S
C217 C218 1.385 . S
C218 H201 0.940 . S
C218 C217 1.385 . S
C218 C219 1.388 . S
C219 H198 0.939 . S
C219 C214 1.391 . S
C219 C218 1.388 . S
P220 O231 1.490 . S
P220 C234 1.812 . S
P220 C240 1.803 . S
P220 C246 1.819 . S
H221 C235 0.941 . S
H222 C236 0.939 . S
H223 C238 0.940 . S
H224 C239 0.940 . S
H225 C241 0.939 . S
H226 C242 0.942 . S
H227 C244 0.940 . S
H228 C245 0.939 . S
H229 C247 0.941 . S
H230 C251 0.939 . S
O231 P220 1.490 . S
H232 C248 0.939 . S
H233 C250 0.940 . S
C234 P220 1.812 . S
C234 C235 1.389 . S
C234 C239 1.391 . S
C235 H221 0.941 . S
C235 C234 1.389 . S
C235 C236 1.397 . S
C236 H222 0.939 . S
C236 C235 1.397 . S
C236 C237 1.378 . S
C237 C236 1.378 . S
C237 C238 1.378 . S
C238 H223 0.940 . S
C238 C237 1.378 . S
C238 C239 1.396 . S
C239 H224 0.940 . S
C239 C234 1.391 . S
C239 C238 1.396 . S
C240 P220 1.803 . S
C240 C241 1.378 . S
C240 C245 1.400 . S
C241 H225 0.939 . S
C241 C240 1.378 . S
C241 C242 1.361 . S
C242 H226 0.942 . S
C242 C241 1.361 . S
C242 C243 1.369 . S
C243 C242 1.369 . S
C243 C244 1.404 . S
C244 H227 0.940 . S
C244 C243 1.404 . S
C244 C245 1.389 . S
C245 H228 0.939 . S
C245 C240 1.400 . S
C245 C244 1.389 . S
C246 P220 1.819 . S
C246 C247 1.391 . S
C246 C251 1.391 . S
C247 H229 0.941 . S
C247 C246 1.391 . S
C247 C248 1.396 . S
C248 H232 0.939 . S
C248 C247 1.396 . S
C248 C249 1.397 . S
C249 C248 1.397 . S
C249 C250 1.385 . S
C250 H233 0.940 . S
C250 C249 1.385 . S
C250 C251 1.388 . S
C251 H230 0.939 . S
C251 C246 1.391 . S
C251 C250 1.388 . S
H252 C270 0.951 . S
H253 C272 0.951 . S
H254 C274 0.950 . S
H255 C275 0.950 . S
H256 C277 0.950 . S
H257 C280 0.950 . S
H258 C281 0.950 . S
H259 C283 0.950 . S
H260 C284 0.950 . S
H261 C285 0.951 . S
H262 C287 0.951 . S
H263 C289 0.950 . S
H264 C290 0.950 . S
H265 C292 0.950 . S
H266 C295 0.950 . S
H267 C296 0.950 . S
H268 C298 0.950 . S
H269 C299 0.950 . S
C270 H252 0.951 . S
C270 C271 1.366 . S
C270 C272 1.388 . S
C271 C270 1.366 . S
C271 C275 1.385 . S
C272 H253 0.951 . S
C272 C270 1.388 . S
C272 C273 1.366 . S
C273 C272 1.366 . S
C273 C274 1.414 . S
C273 C276 1.499 . S
C274 H254 0.950 . S
C274 C273 1.414 . S
C274 C275 1.374 . S
C275 H255 0.950 . S
C275 C271 1.385 . S
C275 C274 1.374 . S
C276 C273 1.499 . S
C276 C277 1.373 . S
C276 C278 1.389 . S
C277 H256 0.950 . S
C277 C276 1.373 . S
C277 C293 1.377 . S
C278 C276 1.389 . S
C278 C279 1.524 . S
C278 C292 1.377 . S
C279 C278 1.524 . S
C279 C280 1.397 . S
C279 C284 1.363 . S
C280 H257 0.950 . S
C280 C279 1.397 . S
C280 C281 1.334 . S
C281 H258 0.950 . S
C281 C280 1.334 . S
C281 C282 1.287 . S
C282 C281 1.287 . S
C282 C283 1.524 . S
C282 H301 0.913 . S
C283 H259 0.950 . S
C283 C282 1.524 . S
C283 C284 1.415 . S
C284 H260 0.950 . S
C284 C279 1.363 . S
C284 C283 1.415 . S
C285 H261 0.951 . S
C285 C286 1.366 . S
C285 C287 1.388 . S
C286 C285 1.366 . S
C286 C290 1.385 . S
C287 H262 0.951 . S
C287 C285 1.388 . S
C287 C288 1.366 . S
C288 C287 1.366 . S
C288 C289 1.414 . S
C288 C291 1.499 . S
C289 H263 0.950 . S
C289 C288 1.414 . S
C289 C290 1.374 . S
C290 H264 0.950 . S
C290 C286 1.385 . S
C290 C289 1.374 . S
C291 C288 1.499 . S
C291 C292 1.373 . S
C291 C293 1.389 . S
C292 H265 0.950 . S
C292 C278 1.377 . S
C292 C291 1.373 . S
C293 C277 1.377 . S
C293 C291 1.389 . S
C293 C294 1.524 . S
C294 C293 1.524 . S
C294 C295 1.397 . S
C294 C299 1.363 . S
C295 H266 0.950 . S
C295 C294 1.397 . S
C295 C296 1.334 . S
C296 H267 0.950 . S
C296 C295 1.334 . S
C296 C297 1.287 . S
C297 C296 1.287 . S
C297 C298 1.524 . S
C297 H300 0.999 . S
C298 H268 0.950 . S
C298 C297 1.524 . S
C298 C299 1.415 . S
C299 H269 0.950 . S
C299 C294 1.363 . S
C299 C298 1.415 . S
H300 C297 0.999 . S
H301 C282 0.913 . S
H302 C320 0.951 . S
H303 C322 0.951 . S
H304 C324 0.950 . S
H305 C325 0.950 . S
H306 C327 0.950 . S
H307 C330 0.950 . S
H308 C331 0.950 . S
H309 C333 0.950 . S
H310 C334 0.950 . S
H311 C335 0.951 . S
H312 C337 0.951 . S
H313 C339 0.950 . S
H314 C340 0.950 . S
H315 C342 0.950 . S
H316 C345 0.950 . S
H317 C346 0.950 . S
H318 C348 0.950 . S
H319 C349 0.950 . S
C320 H302 0.951 . S
C320 C321 1.366 . S
C320 C322 1.388 . S
C321 C320 1.366 . S
C321 C325 1.385 . S
C322 H303 0.951 . S
C322 C320 1.388 . S
C322 C323 1.366 . S
C323 C322 1.366 . S
C323 C324 1.414 . S
C323 C326 1.499 . S
C324 H304 0.950 . S
C324 C323 1.414 . S
C324 C325 1.374 . S
C325 H305 0.950 . S
C325 C321 1.385 . S
C325 C324 1.374 . S
C326 C323 1.499 . S
C326 C327 1.373 . S
C326 C328 1.389 . S
C327 H306 0.950 . S
C327 C326 1.373 . S
C327 C343 1.377 . S
C328 C326 1.389 . S
C328 C329 1.524 . S
C328 C342 1.377 . S
C329 C328 1.524 . S
C329 C330 1.397 . S
C329 C334 1.363 . S
C330 H307 0.950 . S
C330 C329 1.397 . S
C330 C331 1.334 . S
C331 H308 0.950 . S
C331 C330 1.334 . S
C331 C332 1.287 . S
C332 C331 1.287 . S
C332 C333 1.524 . S
C332 H351 0.913 . S
C333 H309 0.950 . S
C333 C332 1.524 . S
C333 C334 1.415 . S
C334 H310 0.950 . S
C334 C329 1.363 . S
C334 C333 1.415 . S
C335 H311 0.951 . S
C335 C336 1.366 . S
C335 C337 1.388 . S
C336 C335 1.366 . S
C336 C340 1.385 . S
C337 H312 0.951 . S
C337 C335 1.388 . S
C337 C338 1.366 . S
C338 C337 1.366 . S
C338 C339 1.414 . S
C338 C341 1.499 . S
C339 H313 0.950 . S
C339 C338 1.414 . S
C339 C340 1.374 . S
C340 H314 0.950 . S
C340 C336 1.385 . S
C340 C339 1.374 . S
C341 C338 1.499 . S
C341 C342 1.373 . S
C341 C343 1.389 . S
C342 H315 0.950 . S
C342 C328 1.377 . S
C342 C341 1.373 . S
C343 C327 1.377 . S
C343 C341 1.389 . S
C343 C344 1.524 . S
C344 C343 1.524 . S
C344 C345 1.397 . S
C344 C349 1.363 . S
C345 H316 0.950 . S
C345 C344 1.397 . S
C345 C346 1.334 . S
C346 H317 0.950 . S
C346 C345 1.334 . S
C346 C347 1.287 . S
C347 C346 1.287 . S
C347 C348 1.524 . S
C347 H350 0.999 . S
C348 H318 0.950 . S
C348 C347 1.524 . S
C348 C349 1.415 . S
C349 H319 0.950 . S
C349 C344 1.363 . S
C349 C348 1.415 . S
H350 C347 0.999 . S
H351 C332 0.913 . S
H352 C370 0.951 . S
H353 C372 0.951 . S
H354 C374 0.950 . S
H355 C375 0.950 . S
H356 C377 0.950 . S
H357 C380 0.950 . S
H358 C381 0.950 . S
H359 C383 0.950 . S
H360 C384 0.950 . S
H361 C385 0.951 . S
H362 C387 0.951 . S
H363 C389 0.950 . S
H364 C390 0.950 . S
H365 C392 0.950 . S
H366 C395 0.950 . S
H367 C396 0.950 . S
H368 C398 0.950 . S
H369 C399 0.950 . S
C370 H352 0.951 . S
C370 C371 1.366 . S
C370 C372 1.388 . S
C371 C370 1.366 . S
C371 C375 1.385 . S
C372 H353 0.951 . S
C372 C370 1.388 . S
C372 C373 1.366 . S
C373 C372 1.366 . S
C373 C374 1.414 . S
C373 C376 1.499 . S
C374 H354 0.950 . S
C374 C373 1.414 . S
C374 C375 1.374 . S
C375 H355 0.950 . S
C375 C371 1.385 . S
C375 C374 1.374 . S
C376 C373 1.499 . S
C376 C377 1.373 . S
C376 C378 1.389 . S
C377 H356 0.950 . S
C377 C376 1.373 . S
C377 C393 1.377 . S
C378 C376 1.389 . S
C378 C379 1.524 . S
C378 C392 1.377 . S
C379 C378 1.524 . S
C379 C380 1.397 . S
C379 C384 1.363 . S
C380 H357 0.950 . S
C380 C379 1.397 . S
C380 C381 1.334 . S
C381 H358 0.950 . S
C381 C380 1.334 . S
C381 C382 1.287 . S
C382 C381 1.287 . S
C382 C383 1.524 . S
C382 H401 0.913 . S
C383 H359 0.950 . S
C383 C382 1.524 . S
C383 C384 1.415 . S
C384 H360 0.950 . S
C384 C379 1.363 . S
C384 C383 1.415 . S
C385 H361 0.951 . S
C385 C386 1.366 . S
C385 C387 1.388 . S
C386 C385 1.366 . S
C386 C390 1.385 . S
C387 H362 0.951 . S
C387 C385 1.388 . S
C387 C388 1.366 . S
C388 C387 1.366 . S
C388 C389 1.414 . S
C388 C391 1.499 . S
C389 H363 0.950 . S
C389 C388 1.414 . S
C389 C390 1.374 . S
C390 H364 0.950 . S
C390 C386 1.385 . S
C390 C389 1.374 . S
C391 C388 1.499 . S
C391 C392 1.373 . S
C391 C393 1.389 . S
C392 H365 0.950 . S
C392 C378 1.377 . S
C392 C391 1.373 . S
C393 C377 1.377 . S
C393 C391 1.389 . S
C393 C394 1.524 . S
C394 C393 1.524 . S
C394 C395 1.397 . S
C394 C399 1.363 . S
C395 H366 0.950 . S
C395 C394 1.397 . S
C395 C396 1.334 . S
C396 H367 0.950 . S
C396 C395 1.334 . S
C396 C397 1.287 . S
C397 C396 1.287 . S
C397 C398 1.524 . S
C397 H400 0.999 . S
C398 H368 0.950 . S
C398 C397 1.524 . S
C398 C399 1.415 . S
C399 H369 0.950 . S
C399 C394 1.363 . S
C399 C398 1.415 . S
H400 C397 0.999 . S
H401 C382 0.913 . S
H402 C420 0.951 . S
H403 C422 0.951 . S
H404 C424 0.950 . S
H405 C425 0.950 . S
H406 C427 0.950 . S
H407 C430 0.950 . S
H408 C431 0.950 . S
H409 C433 0.950 . S
H410 C434 0.950 . S
H411 C435 0.951 . S
H412 C437 0.951 . S
H413 C439 0.950 . S
H414 C440 0.950 . S
H415 C442 0.950 . S
H416 C445 0.950 . S
H417 C446 0.950 . S
H418 C448 0.950 . S
H419 C449 0.950 . S
C420 H402 0.951 . S
C420 C421 1.366 . S
C420 C422 1.388 . S
C421 C420 1.366 . S
C421 C425 1.385 . S
C422 H403 0.951 . S
C422 C420 1.388 . S
C422 C423 1.366 . S
C423 C422 1.366 . S
C423 C424 1.414 . S
C423 C426 1.499 . S
C424 H404 0.950 . S
C424 C423 1.414 . S
C424 C425 1.374 . S
C425 H405 0.950 . S
C425 C421 1.385 . S
C425 C424 1.374 . S
C426 C423 1.499 . S
C426 C427 1.373 . S
C426 C428 1.389 . S
C427 H406 0.950 . S
C427 C426 1.373 . S
C427 C443 1.377 . S
C428 C426 1.389 . S
C428 C429 1.524 . S
C428 C442 1.377 . S
C429 C428 1.524 . S
C429 C430 1.397 . S
C429 C434 1.363 . S
C430 H407 0.950 . S
C430 C429 1.397 . S
C430 C431 1.334 . S
C431 H408 0.950 . S
C431 C430 1.334 . S
C431 C432 1.287 . S
C432 C431 1.287 . S
C432 C433 1.524 . S
C432 H451 0.913 . S
C433 H409 0.950 . S
C433 C432 1.524 . S
C433 C434 1.415 . S
C434 H410 0.950 . S
C434 C429 1.363 . S
C434 C433 1.415 . S
C435 H411 0.951 . S
C435 C436 1.366 . S
C435 C437 1.388 . S
C436 C435 1.366 . S
C436 C440 1.385 . S
C437 H412 0.951 . S
C437 C435 1.388 . S
C437 C438 1.366 . S
C438 C437 1.366 . S
C438 C439 1.414 . S
C438 C441 1.499 . S
C439 H413 0.950 . S
C439 C438 1.414 . S
C439 C440 1.374 . S
C440 H414 0.950 . S
C440 C436 1.385 . S
C440 C439 1.374 . S
C441 C438 1.499 . S
C441 C442 1.373 . S
C441 C443 1.389 . S
C442 H415 0.950 . S
C442 C428 1.377 . S
C442 C441 1.373 . S
C443 C427 1.377 . S
C443 C441 1.389 . S
C443 C444 1.524 . S
C444 C443 1.524 . S
C444 C445 1.397 . S
C444 C449 1.363 . S
C445 H416 0.950 . S
C445 C444 1.397 . S
C445 C446 1.334 . S
C446 H417 0.950 . S
C446 C445 1.334 . S
C446 C447 1.287 . S
C447 C446 1.287 . S
C447 C448 1.524 . S
C447 H450 0.999 . S
C448 H418 0.950 . S
C448 C447 1.524 . S
C448 C449 1.415 . S
C449 H419 0.950 . S
C449 C444 1.363 . S
C449 C448 1.415 . S
H450 C447 0.999 . S
H451 C432 0.913 . S
H452 C470 0.951 . S
H453 C472 0.951 . S
H454 C474 0.950 . S
H455 C475 0.950 . S
H456 C477 0.950 . S
H457 C480 0.950 . S
H458 C481 0.950 . S
H459 C483 0.950 . S
H460 C484 0.950 . S
H461 C485 0.951 . S
H462 C487 0.951 . S
H463 C489 0.950 . S
H464 C490 0.950 . S
H465 C492 0.950 . S
H466 C495 0.950 . S
H467 C496 0.950 . S
H468 C498 0.950 . S
H469 C499 0.950 . S
C470 H452 0.951 . S
C470 C471 1.366 . S
C470 C472 1.388 . S
C471 C470 1.366 . S
C471 C475 1.385 . S
C472 H453 0.951 . S
C472 C470 1.388 . S
C472 C473 1.366 . S
C473 C472 1.366 . S
C473 C474 1.414 . S
C473 C476 1.499 . S
C474 H454 0.950 . S
C474 C473 1.414 . S
C474 C475 1.374 . S
C475 H455 0.950 . S
C475 C471 1.385 . S
C475 C474 1.374 . S
C476 C473 1.499 . S
C476 C477 1.373 . S
C476 C478 1.389 . S
C477 H456 0.950 . S
C477 C476 1.373 . S
C477 C493 1.377 . S
C478 C476 1.389 . S
C478 C479 1.524 . S
C478 C492 1.377 . S
C479 C478 1.524 . S
C479 C480 1.397 . S
C479 C484 1.363 . S
C480 H457 0.950 . S
C480 C479 1.397 . S
C480 C481 1.334 . S
C481 H458 0.950 . S
C481 C480 1.334 . S
C481 C482 1.287 . S
C482 C481 1.287 . S
C482 C483 1.524 . S
C482 H501 0.913 . S
C483 H459 0.950 . S
C483 C482 1.524 . S
C483 C484 1.415 . S
C484 H460 0.950 . S
C484 C479 1.363 . S
C484 C483 1.415 . S
C485 H461 0.951 . S
C485 C486 1.366 . S
C485 C487 1.388 . S
C486 C485 1.366 . S
C486 C490 1.385 . S
C487 H462 0.951 . S
C487 C485 1.388 . S
C487 C488 1.366 . S
C488 C487 1.366 . S
C488 C489 1.414 . S
C488 C491 1.499 . S
C489 H463 0.950 . S
C489 C488 1.414 . S
C489 C490 1.374 . S
C490 H464 0.950 . S
C490 C486 1.385 . S
C490 C489 1.374 . S
C491 C488 1.499 . S
C491 C492 1.373 . S
C491 C493 1.389 . S
C492 H465 0.950 . S
C492 C478 1.377 . S
C492 C491 1.373 . S
C493 C477 1.377 . S
C493 C491 1.389 . S
C493 C494 1.524 . S
C494 C493 1.524 . S
C494 C495 1.397 . S
C494 C499 1.363 . S
C495 H466 0.950 . S
C495 C494 1.397 . S
C495 C496 1.334 . S
C496 H467 0.950 . S
C496 C495 1.334 . S
C496 C497 1.287 . S
C497 C496 1.287 . S
C497 C498 1.524 . S
C497 H500 0.999 . S
C498 H468 0.950 . S
C498 C497 1.524 . S
C498 C499 1.415 . S
C499 H469 0.950 . S
C499 C494 1.363 . S
C499 C498 1.415 . S
H500 C497 0.999 . S
H501 C482 0.913 . S
H502 C520 0.951 . S
H503 C522 0.951 . S
H504 C524 0.950 . S
H505 C525 0.950 . S
H506 C527 0.950 . S
H507 C530 0.950 . S
H508 C531 0.950 . S
H509 C533 0.950 . S
H510 C534 0.950 . S
H511 C535 0.951 . S
H512 C537 0.951 . S
H513 C539 0.950 . S
H514 C540 0.950 . S
H515 C542 0.950 . S
H516 C545 0.950 . S
H517 C546 0.950 . S
H518 C548 0.950 . S
H519 C549 0.950 . S
C520 H502 0.951 . S
C520 C521 1.366 . S
C520 C522 1.388 . S
C521 C520 1.366 . S
C521 C525 1.385 . S
C522 H503 0.951 . S
C522 C520 1.388 . S
C522 C523 1.366 . S
C523 C522 1.366 . S
C523 C524 1.414 . S
C523 C526 1.499 . S
C524 H504 0.950 . S
C524 C523 1.414 . S
C524 C525 1.374 . S
C525 H505 0.950 . S
C525 C521 1.385 . S
C525 C524 1.374 . S
C526 C523 1.499 . S
C526 C527 1.373 . S
C526 C528 1.389 . S
C527 H506 0.950 . S
C527 C526 1.373 . S
C527 C543 1.377 . S
C528 C526 1.389 . S
C528 C529 1.524 . S
C528 C542 1.377 . S
C529 C528 1.524 . S
C529 C530 1.397 . S
C529 C534 1.363 . S
C530 H507 0.950 . S
C530 C529 1.397 . S
C530 C531 1.334 . S
C531 H508 0.950 . S
C531 C530 1.334 . S
C531 C532 1.287 . S
C532 C531 1.287 . S
C532 C533 1.524 . S
C532 H551 0.913 . S
C533 H509 0.950 . S
C533 C532 1.524 . S
C533 C534 1.415 . S
C534 H510 0.950 . S
C534 C529 1.363 . S
C534 C533 1.415 . S
C535 H511 0.951 . S
C535 C536 1.366 . S
C535 C537 1.388 . S
C536 C535 1.366 . S
C536 C540 1.385 . S
C537 H512 0.951 . S
C537 C535 1.388 . S
C537 C538 1.366 . S
C538 C537 1.366 . S
C538 C539 1.414 . S
C538 C541 1.499 . S
C539 H513 0.950 . S
C539 C538 1.414 . S
C539 C540 1.374 . S
C540 H514 0.950 . S
C540 C536 1.385 . S
C540 C539 1.374 . S
C541 C538 1.499 . S
C541 C542 1.373 . S
C541 C543 1.389 . S
C542 H515 0.950 . S
C542 C528 1.377 . S
C542 C541 1.373 . S
C543 C527 1.377 . S
C543 C541 1.389 . S
C543 C544 1.524 . S
C544 C543 1.524 . S
C544 C545 1.397 . S
C544 C549 1.363 . S
C545 H516 0.950 . S
C545 C544 1.397 . S
C545 C546 1.334 . S
C546 H517 0.950 . S
C546 C545 1.334 . S
C546 C547 1.287 . S
C547 C546 1.287 . S
C547 C548 1.524 . S
C547 H550 0.999 . S
C548 H518 0.950 . S
C548 C547 1.524 . S
C548 C549 1.415 . S
C549 H519 0.950 . S
C549 C544 1.363 . S
C549 C548 1.415 . S
H550 C547 0.999 . S
H551 C532 0.913 . S
H552 C570 0.951 . S
H553 C572 0.951 . S
H554 C574 0.950 . S
H555 C575 0.950 . S
H556 C577 0.950 . S
H557 C580 0.950 . S
H558 C581 0.950 . S
H559 C583 0.950 . S
H560 C584 0.950 . S
H561 C585 0.951 . S
H562 C587 0.951 . S
H563 C589 0.950 . S
H564 C590 0.950 . S
H565 C592 0.950 . S
H566 C595 0.950 . S
H567 C596 0.950 . S
H568 C598 0.950 . S
H569 C599 0.950 . S
C570 H552 0.951 . S
C570 C571 1.366 . S
C570 C572 1.388 . S
C571 C570 1.366 . S
C571 C575 1.385 . S
C572 H553 0.951 . S
C572 C570 1.388 . S
C572 C573 1.366 . S
C573 C572 1.366 . S
C573 C574 1.414 . S
C573 C576 1.499 . S
C574 H554 0.950 . S
C574 C573 1.414 . S
C574 C575 1.374 . S
C575 H555 0.950 . S
C575 C571 1.385 . S
C575 C574 1.374 . S
C576 C573 1.499 . S
C576 C577 1.373 . S
C576 C578 1.389 . S
C577 H556 0.950 . S
C577 C576 1.373 . S
C577 C593 1.377 . S
C578 C576 1.389 . S
C578 C579 1.524 . S
C578 C592 1.377 . S
C579 C578 1.524 . S
C579 C580 1.397 . S
C579 C584 1.363 . S
C580 H557 0.950 . S
C580 C579 1.397 . S
C580 C581 1.334 . S
C581 H558 0.950 . S
C581 C580 1.334 . S
C581 C582 1.287 . S
C582 C581 1.287 . S
C582 C583 1.524 . S
C582 H601 0.913 . S
C583 H559 0.950 . S
C583 C582 1.524 . S
C583 C584 1.415 . S
C584 H560 0.950 . S
C584 C579 1.363 . S
C584 C583 1.415 . S
C585 H561 0.951 . S
C585 C586 1.366 . S
C585 C587 1.388 . S
C586 C585 1.366 . S
C586 C590 1.385 . S
C587 H562 0.951 . S
C587 C585 1.388 . S
C587 C588 1.366 . S
C588 C587 1.366 . S
C588 C589 1.414 . S
C588 C591 1.499 . S
C589 H563 0.950 . S
C589 C588 1.414 . S
C589 C590 1.374 . S
C590 H564 0.950 . S
C590 C586 1.385 . S
C590 C589 1.374 . S
C591 C588 1.499 . S
C591 C592 1.373 . S
C591 C593 1.389 . S
C592 H565 0.950 . S
C592 C578 1.377 . S
C592 C591 1.373 . S
C593 C577 1.377 . S
C593 C591 1.389 . S
C593 C594 1.524 . S
C594 C593 1.524 . S
C594 C595 1.397 . S
C594 C599 1.363 . S
C595 H566 0.950 . S
C595 C594 1.397 . S
C595 C596 1.334 . S
C596 H567 0.950 . S
C596 C595 1.334 . S
C596 C597 1.287 . S
C597 C596 1.287 . S
C597 C598 1.524 . S
C597 H600 0.999 . S
C598 H568 0.950 . S
C598 C597 1.524 . S
C598 C599 1.415 . S
C599 H569 0.950 . S
C599 C594 1.363 . S
C599 C598 1.415 . S
H600 C597 0.999 . S
H601 C582 0.913 . S
H602 C620 0.951 . S
H603 C622 0.951 . S
H604 C624 0.950 . S
H605 C625 0.950 . S
H606 C627 0.950 . S
H607 C630 0.950 . S
H608 C631 0.950 . S
H609 C633 0.950 . S
H610 C634 0.950 . S
H611 C635 0.951 . S
H612 C637 0.951 . S
H613 C639 0.950 . S
H614 C640 0.950 . S
H615 C642 0.950 . S
H616 C645 0.950 . S
H617 C646 0.950 . S
H618 C648 0.950 . S
H619 C649 0.950 . S
C620 H602 0.951 . S
C620 C621 1.366 . S
C620 C622 1.388 . S
C621 C620 1.366 . S
C621 C625 1.385 . S
C622 H603 0.951 . S
C622 C620 1.388 . S
C622 C623 1.366 . S
C623 C622 1.366 . S
C623 C624 1.414 . S
C623 C626 1.499 . S
C624 H604 0.950 . S
C624 C623 1.414 . S
C624 C625 1.374 . S
C625 H605 0.950 . S
C625 C621 1.385 . S
C625 C624 1.374 . S
C626 C623 1.499 . S
C626 C627 1.373 . S
C626 C628 1.389 . S
C627 H606 0.950 . S
C627 C626 1.373 . S
C627 C643 1.377 . S
C628 C626 1.389 . S
C628 C629 1.524 . S
C628 C642 1.377 . S
C629 C628 1.524 . S
C629 C630 1.397 . S
C629 C634 1.363 . S
C630 H607 0.950 . S
C630 C629 1.397 . S
C630 C631 1.334 . S
C631 H608 0.950 . S
C631 C630 1.334 . S
C631 C632 1.287 . S
C632 C631 1.287 . S
C632 C633 1.524 . S
C632 H651 0.913 . S
C633 H609 0.950 . S
C633 C632 1.524 . S
C633 C634 1.415 . S
C634 H610 0.950 . S
C634 C629 1.363 . S
C634 C633 1.415 . S
C635 H611 0.951 . S
C635 C636 1.366 . S
C635 C637 1.388 . S
C636 C635 1.366 . S
C636 C640 1.385 . S
C637 H612 0.951 . S
C637 C635 1.388 . S
C637 C638 1.366 . S
C638 C637 1.366 . S
C638 C639 1.414 . S
C638 C641 1.499 . S
C639 H613 0.950 . S
C639 C638 1.414 . S
C639 C640 1.374 . S
C640 H614 0.950 . S
C640 C636 1.385 . S
C640 C639 1.374 . S
C641 C638 1.499 . S
C641 C642 1.373 . S
C641 C643 1.389 . S
C642 H615 0.950 . S
C642 C628 1.377 . S
C642 C641 1.373 . S
C643 C627 1.377 . S
C643 C641 1.389 . S
C643 C644 1.524 . S
C644 C643 1.524 . S
C644 C645 1.397 . S
C644 C649 1.363 . S
C645 H616 0.950 . S
C645 C644 1.397 . S
C645 C646 1.334 . S
C646 H617 0.950 . S
C646 C645 1.334 . S
C646 C647 1.287 . S
C647 C646 1.287 . S
C647 C648 1.524 . S
C647 H650 0.999 . S
C648 H618 0.950 . S
C648 C647 1.524 . S
C648 C649 1.415 . S
C649 H619 0.950 . S
C649 C644 1.363 . S
C649 C648 1.415 . S
H650 C647 0.999 . S
H651 C632 0.913 . S
H652 C670 0.951 . S
H653 C672 0.951 . S
H654 C674 0.950 . S
H655 C675 0.950 . S
H656 C677 0.950 . S
H657 C680 0.950 . S
H658 C681 0.950 . S
H659 C683 0.950 . S
H660 C684 0.950 . S
H661 C685 0.951 . S
H662 C687 0.951 . S
H663 C689 0.950 . S
H664 C690 0.950 . S
H665 C692 0.950 . S
H666 C695 0.950 . S
H667 C696 0.950 . S
H668 C698 0.950 . S
H669 C699 0.950 . S
C670 H652 0.951 . S
C670 C671 1.366 . S
C670 C672 1.388 . S
C671 C670 1.366 . S
C671 C675 1.385 . S
C672 H653 0.951 . S
C672 C670 1.388 . S
C672 C673 1.366 . S
C673 C672 1.366 . S
C673 C674 1.414 . S
C673 C676 1.499 . S
C674 H654 0.950 . S
C674 C673 1.414 . S
C674 C675 1.374 . S
C675 H655 0.950 . S
C675 C671 1.385 . S
C675 C674 1.374 . S
C676 C673 1.499 . S
C676 C677 1.373 . S
C676 C678 1.389 . S
C677 H656 0.950 . S
C677 C676 1.373 . S
C677 C693 1.377 . S
C678 C676 1.389 . S
C678 C679 1.524 . S
C678 C692 1.377 . S
C679 C678 1.524 . S
C679 C680 1.397 . S
C679 C684 1.363 . S
C680 H657 0.950 . S
C680 C679 1.397 . S
C680 C681 1.334 . S
C681 H658 0.950 . S
C681 C680 1.334 . S
C681 C682 1.287 . S
C682 C681 1.287 . S
C682 C683 1.524 . S
C682 H701 0.913 . S
C683 H659 0.950 . S
C683 C682 1.524 . S
C683 C684 1.415 . S
C684 H660 0.950 . S
C684 C679 1.363 . S
C684 C683 1.415 . S
C685 H661 0.951 . S
C685 C686 1.366 . S
C685 C687 1.388 . S
C686 C685 1.366 . S
C686 C690 1.385 . S
C687 H662 0.951 . S
C687 C685 1.388 . S
C687 C688 1.366 . S
C688 C687 1.366 . S
C688 C689 1.414 . S
C688 C691 1.499 . S
C689 H663 0.950 . S
C689 C688 1.414 . S
C689 C690 1.374 . S
C690 H664 0.950 . S
C690 C686 1.385 . S
C690 C689 1.374 . S
C691 C688 1.499 . S
C691 C692 1.373 . S
C691 C693 1.389 . S
C692 H665 0.950 . S
C692 C678 1.377 . S
C692 C691 1.373 . S
C693 C677 1.377 . S
C693 C691 1.389 . S
C693 C694 1.524 . S
C694 C693 1.524 . S
C694 C695 1.397 . S
C694 C699 1.363 . S
C695 H666 0.950 . S
C695 C694 1.397 . S
C695 C696 1.334 . S
C696 H667 0.950 . S
C696 C695 1.334 . S
C696 C697 1.287 . S
C697 C696 1.287 . S
C697 C698 1.524 . S
C697 H700 0.999 . S
C698 H668 0.950 . S
C698 C697 1.524 . S
C698 C699 1.415 . S
C699 H669 0.950 . S
C699 C694 1.363 . S
C699 C698 1.415 . S
H700 C697 0.999 . S
H701 C682 0.913 . S
H702 C720 0.951 . S
H703 C722 0.951 . S
H704 C724 0.950 . S
H705 C725 0.950 . S
H706 C727 0.950 . S
H707 C730 0.950 . S
H708 C731 0.950 . S
H709 C733 0.950 . S
H710 C734 0.950 . S
H711 C735 0.951 . S
H712 C737 0.951 . S
H713 C739 0.950 . S
H714 C740 0.950 . S
H715 C742 0.950 . S
H716 C745 0.950 . S
H717 C746 0.950 . S
H718 C748 0.950 . S
H719 C749 0.950 . S
C720 H702 0.951 . S
C720 C721 1.366 . S
C720 C722 1.388 . S
C721 C720 1.366 . S
C721 C725 1.385 . S
C722 H703 0.951 . S
C722 C720 1.388 . S
C722 C723 1.366 . S
C723 C722 1.366 . S
C723 C724 1.414 . S
C723 C726 1.499 . S
C724 H704 0.950 . S
C724 C723 1.414 . S
C724 C725 1.374 . S
C725 H705 0.950 . S
C725 C721 1.385 . S
C725 C724 1.374 . S
C726 C723 1.499 . S
C726 C727 1.373 . S
C726 C728 1.389 . S
C727 H706 0.950 . S
C727 C726 1.373 . S
C727 C743 1.377 . S
C728 C726 1.389 . S
C728 C729 1.524 . S
C728 C742 1.377 . S
C729 C728 1.524 . S
C729 C730 1.397 . S
C729 C734 1.363 . S
C730 H707 0.950 . S
C730 C729 1.397 . S
C730 C731 1.334 . S
C731 H708 0.950 . S
C731 C730 1.334 . S
C731 C732 1.287 . S
C732 C731 1.287 . S
C732 C733 1.524 . S
C732 H751 0.913 . S
C733 H709 0.950 . S
C733 C732 1.524 . S
C733 C734 1.415 . S
C734 H710 0.950 . S
C734 C729 1.363 . S
C734 C733 1.415 . S
C735 H711 0.951 . S
C735 C736 1.366 . S
C735 C737 1.388 . S
C736 C735 1.366 . S
C736 C740 1.385 . S
C737 H712 0.951 . S
C737 C735 1.388 . S
C737 C738 1.366 . S
C738 C737 1.366 . S
C738 C739 1.414 . S
C738 C741 1.499 . S
C739 H713 0.950 . S
C739 C738 1.414 . S
C739 C740 1.374 . S
C740 H714 0.950 . S
C740 C736 1.385 . S
C740 C739 1.374 . S
C741 C738 1.499 . S
C741 C742 1.373 . S
C741 C743 1.389 . S
C742 H715 0.950 . S
C742 C728 1.377 . S
C742 C741 1.373 . S
C743 C727 1.377 . S
C743 C741 1.389 . S
C743 C744 1.524 . S
C744 C743 1.524 . S
C744 C745 1.397 . S
C744 C749 1.363 . S
C745 H716 0.950 . S
C745 C744 1.397 . S
C745 C746 1.334 . S
C746 H717 0.950 . S
C746 C745 1.334 . S
C746 C747 1.287 . S
C747 C746 1.287 . S
C747 C748 1.524 . S
C747 H750 0.999 . S
C748 H718 0.950 . S
C748 C747 1.524 . S
C748 C749 1.415 . S
C749 H719 0.950 . S
C749 C744 1.363 . S
C749 C748 1.415 . S
H750 C747 0.999 . S
H751 C732 0.913 . S
H752 C770 0.951 . S
H753 C772 0.951 . S
H754 C774 0.950 . S
H755 C775 0.950 . S
H756 C777 0.950 . S
H757 C780 0.950 . S
H758 C781 0.950 . S
H759 C783 0.950 . S
H760 C784 0.950 . S
H761 C785 0.951 . S
H762 C787 0.951 . S
H763 C789 0.950 . S
H764 C790 0.950 . S
H765 C792 0.950 . S
H766 C795 0.950 . S
H767 C796 0.950 . S
H768 C798 0.950 . S
H769 C799 0.950 . S
C770 H752 0.951 . S
C770 C771 1.366 . S
C770 C772 1.388 . S
C771 C770 1.366 . S
C771 C775 1.385 . S
C772 H753 0.951 . S
C772 C770 1.388 . S
C772 C773 1.366 . S
C773 C772 1.366 . S
C773 C774 1.414 . S
C773 C776 1.499 . S
C774 H754 0.950 . S
C774 C773 1.414 . S
C774 C775 1.374 . S
C775 H755 0.950 . S
C775 C771 1.385 . S
C775 C774 1.374 . S
C776 C773 1.499 . S
C776 C777 1.373 . S
C776 C778 1.389 . S
C777 H756 0.950 . S
C777 C776 1.373 . S
C777 C793 1.377 . S
C778 C776 1.389 . S
C778 C779 1.524 . S
C778 C792 1.377 . S
C779 C778 1.524 . S
C779 C780 1.397 . S
C779 C784 1.363 . S
C780 H757 0.950 . S
C780 C779 1.397 . S
C780 C781 1.334 . S
C781 H758 0.950 . S
C781 C780 1.334 . S
C781 C782 1.287 . S
C782 C781 1.287 . S
C782 C783 1.524 . S
C782 H801 0.913 . S
C783 H759 0.950 . S
C783 C782 1.524 . S
C783 C784 1.415 . S
C784 H760 0.950 . S
C784 C779 1.363 . S
C784 C783 1.415 . S
C785 H761 0.951 . S
C785 C786 1.366 . S
C785 C787 1.388 . S
C786 C785 1.366 . S
C786 C790 1.385 . S
C787 H762 0.951 . S
C787 C785 1.388 . S
C787 C788 1.366 . S
C788 C787 1.366 . S
C788 C789 1.414 . S
C788 C791 1.499 . S
C789 H763 0.950 . S
C789 C788 1.414 . S
C789 C790 1.374 . S
C790 H764 0.950 . S
C790 C786 1.385 . S
C790 C789 1.374 . S
C791 C788 1.499 . S
C791 C792 1.373 . S
C791 C793 1.389 . S
C792 H765 0.950 . S
C792 C778 1.377 . S
C792 C791 1.373 . S
C793 C777 1.377 . S
C793 C791 1.389 . S
C793 C794 1.524 . S
C794 C793 1.524 . S
C794 C795 1.397 . S
C794 C799 1.363 . S
C795 H766 0.950 . S
C795 C794 1.397 . S
C795 C796 1.334 . S
C796 H767 0.950 . S
C796 C795 1.334 . S
C796 C797 1.287 . S
C797 C796 1.287 . S
C797 C798 1.524 . S
C797 H800 0.999 . S
C798 H768 0.950 . S
C798 C797 1.524 . S
C798 C799 1.415 . S
C799 H769 0.950 . S
C799 C794 1.363 . S
C799 C798 1.415 . S
H800 C797 0.999 . S
H801 C782 0.913 . S
H802 C820 0.951 . S
H803 C822 0.951 . S
H804 C824 0.950 . S
H805 C825 0.950 . S
H806 C827 0.950 . S
H807 C830 0.950 . S
H808 C831 0.950 . S
H809 C833 0.950 . S
H810 C834 0.950 . S
H811 C835 0.951 . S
H812 C837 0.951 . S
H813 C839 0.950 . S
H814 C840 0.950 . S
H815 C842 0.950 . S
H816 C845 0.950 . S
H817 C846 0.950 . S
H818 C848 0.950 . S
H819 C849 0.950 . S
C820 H802 0.951 . S
C820 C821 1.366 . S
C820 C822 1.388 . S
C821 C820 1.366 . S
C821 C825 1.385 . S
C822 H803 0.951 . S
C822 C820 1.388 . S
C822 C823 1.366 . S
C823 C822 1.366 . S
C823 C824 1.414 . S
C823 C826 1.499 . S
C824 H804 0.950 . S
C824 C823 1.414 . S
C824 C825 1.374 . S
C825 H805 0.950 . S
C825 C821 1.385 . S
C825 C824 1.374 . S
C826 C823 1.499 . S
C826 C827 1.373 . S
C826 C828 1.389 . S
C827 H806 0.950 . S
C827 C826 1.373 . S
C827 C843 1.377 . S
C828 C826 1.389 . S
C828 C829 1.524 . S
C828 C842 1.377 . S
C829 C828 1.524 . S
C829 C830 1.397 . S
C829 C834 1.363 . S
C830 H807 0.950 . S
C830 C829 1.397 . S
C830 C831 1.334 . S
C831 H808 0.950 . S
C831 C830 1.334 . S
C831 C832 1.287 . S
C832 C831 1.287 . S
C832 C833 1.524 . S
C832 H851 0.913 . S
C833 H809 0.950 . S
C833 C832 1.524 . S
C833 C834 1.415 . S
C834 H810 0.950 . S
C834 C829 1.363 . S
C834 C833 1.415 . S
C835 H811 0.951 . S
C835 C836 1.366 . S
C835 C837 1.388 . S
C836 C835 1.366 . S
C836 C840 1.385 . S
C837 H812 0.951 . S
C837 C835 1.388 . S
C837 C838 1.366 . S
C838 C837 1.366 . S
C838 C839 1.414 . S
C838 C841 1.499 . S
C839 H813 0.950 . S
C839 C838 1.414 . S
C839 C840 1.374 . S
C840 H814 0.950 . S
C840 C836 1.385 . S
C840 C839 1.374 . S
C841 C838 1.499 . S
C841 C842 1.373 . S
C841 C843 1.389 . S
C842 H815 0.950 . S
C842 C828 1.377 . S
C842 C841 1.373 . S
C843 C827 1.377 . S
C843 C841 1.389 . S
C843 C844 1.524 . S
C844 C843 1.524 . S
C844 C845 1.397 . S
C844 C849 1.363 . S
C845 H816 0.950 . S
C845 C844 1.397 . S
C845 C846 1.334 . S
C846 H817 0.950 . S
C846 C845 1.334 . S
C846 C847 1.287 . S
C847 C846 1.287 . S
C847 C848 1.524 . S
C847 H850 0.999 . S
C848 H818 0.950 . S
C848 C847 1.524 . S
C848 C849 1.415 . S
C849 H819 0.950 . S
C849 C844 1.363 . S
C849 C848 1.415 . S
H850 C847 0.999 . S
H851 C832 0.913 . S
H852 C870 0.951 1_655 S
H853 C872 0.951 . S
H854 C874 0.950 . S
H855 C875 0.950 . S
H856 C877 0.950 . S
H857 C880 0.950 . S
H858 C881 0.950 . S
H859 C883 0.957 . S
H860 C884 0.949 1_655 S
H861 C885 0.951 . S
H862 C887 0.947 1_554 S
H863 C889 0.950 . S
H864 C890 0.950 . S
H865 C892 0.950 . S
H866 C895 0.950 . S
H867 C896 0.929 1_556 S
H868 C898 0.950 . S
H869 C899 0.950 . S
C870 H852 0.951 1_455 S
C870 C871 1.366 . S
C870 C872 1.388 . S
C871 C870 1.366 . S
C871 C875 1.385 . S
C872 H853 0.951 . S
C872 C870 1.388 . S
C872 C873 1.366 . S
C873 C872 1.366 . S
C873 C874 1.414 . S
C873 C876 1.499 . S
C874 H854 0.950 . S
C874 C873 1.414 . S
C874 C875 1.374 . S
C875 H855 0.950 . S
C875 C871 1.385 . S
C875 C874 1.374 . S
C876 C873 1.499 . S
C876 C877 1.373 . S
C876 C878 1.389 . S
C877 H856 0.950 . S
C877 C876 1.373 . S
C877 C893 1.377 . S
C878 C876 1.389 . S
C878 C879 1.524 . S
C878 C892 1.377 . S
C879 C878 1.524 . S
C879 C880 1.397 . S
C879 C884 1.363 . S
C880 H857 0.950 . S
C880 C879 1.397 . S
C880 C881 1.334 . S
C881 H858 0.950 . S
C881 C880 1.334 . S
C881 C882 1.287 . S
C882 C881 1.287 . S
C882 C883 1.524 . S
C882 H901 0.913 . S
C883 H859 0.957 . S
C883 C882 1.524 . S
C883 C884 1.415 . S
C884 H860 0.949 1_455 S
C884 C879 1.363 . S
C884 C883 1.415 . S
C885 H861 0.951 . S
C885 C886 1.366 . S
C885 C887 1.388 . S
C886 C885 1.366 . S
C886 C890 1.385 . S
C887 H862 0.947 1_556 S
C887 C885 1.388 . S
C887 C888 1.366 1_556 S
C888 C887 1.366 1_554 S
C888 C889 1.414 1_554 S
C888 C891 1.499 . S
C889 H863 0.950 . S
C889 C888 1.414 1_556 S
C889 C890 1.374 . S
C890 H864 0.950 . S
C890 C886 1.385 . S
C890 C889 1.374 . S
C891 C888 1.499 . S
C891 C892 1.373 . S
C891 C893 1.389 . S
C892 H865 0.950 . S
C892 C878 1.377 . S
C892 C891 1.373 . S
C893 C877 1.377 . S
C893 C891 1.389 . S
C893 C894 1.524 . S
C894 C893 1.524 . S
C894 C895 1.397 . S
C894 C899 1.363 . S
C895 H866 0.950 . S
C895 C894 1.397 . S
C895 C896 1.334 . S
C896 H867 0.929 1_554 S
C896 C895 1.334 . S
C896 C897 1.287 . S
C897 C896 1.287 . S
C897 C898 1.524 . S
C897 H900 0.999 . S
C898 H868 0.950 . S
C898 C897 1.524 . S
C898 C899 1.415 . S
C899 H869 0.950 . S
C899 C894 1.363 . S
C899 C898 1.415 . S
H900 C897 0.999 . S
H901 C882 0.913 . S
H902 C920 0.951 . S
H903 C922 0.951 . S
H904 C924 0.950 . S
H905 C925 0.950 . S
H906 C927 0.950 . S
H907 C930 0.950 . S
H908 C931 0.950 . S
H909 C933 0.950 . S
H910 C934 0.950 . S
H911 C935 0.951 . S
H912 C937 0.951 . S
H913 C939 0.950 . S
H914 C940 0.950 . S
H915 C942 0.950 1_565 S
H916 C945 0.950 1_565 S
H917 C946 0.950 . S
H918 C948 0.950 . S
H919 C949 0.950 . S
C920 H902 0.951 . S
C920 C921 1.366 1_565 S
C920 C922 1.388 . S
C921 C920 1.366 1_545 S
C921 C925 1.385 . S
C922 H903 0.951 . S
C922 C920 1.388 . S
C922 C923 1.366 1_565 S
C923 C922 1.366 1_545 S
C923 C924 1.414 . S
C923 C926 1.499 . S
C924 H904 0.950 . S
C924 C923 1.414 . S
C924 C925 1.374 . S
C925 H905 0.950 . S
C925 C921 1.385 . S
C925 C924 1.374 . S
C926 C923 1.499 . S
C926 C927 1.373 . S
C926 C928 1.389 . S
C927 H906 0.950 . S
C927 C926 1.373 . S
C927 C943 1.377 . S
C928 C926 1.389 . S
C928 C929 1.523 1_545 S
C928 C942 1.377 . S
C929 C928 1.523 1_565 S
C929 C930 1.396 1_565 S
C929 C934 1.364 . S
C930 H907 0.950 . S
C930 C929 1.396 1_545 S
C930 C931 1.334 . S
C931 H908 0.950 . S
C931 C930 1.334 . S
C931 C932 1.287 1_545 S
C932 C931 1.287 1_565 S
C932 C933 1.524 . S
C932 H951 0.913 . S
C933 H909 0.950 . S
C933 C932 1.524 . S
C933 C934 1.415 . S
C934 H910 0.950 . S
C934 C929 1.364 . S
C934 C933 1.415 . S
C935 H911 0.951 . S
C935 C936 1.366 . S
C935 C937 1.388 . S
C936 C935 1.366 . S
C936 C940 1.385 1_545 S
C937 H912 0.951 . S
C937 C935 1.388 . S
C937 C938 1.366 . S
C938 C937 1.366 . S
C938 C939 1.414 1_545 S
C938 C941 1.499 . S
C939 H913 0.950 . S
C939 C938 1.414 1_565 S
C939 C940 1.374 . S
C940 H914 0.950 . S
C940 C936 1.385 1_565 S
C940 C939 1.374 . S
C941 C938 1.499 . S
C941 C942 1.373 . S
C941 C943 1.389 . S
C942 H915 0.950 1_545 S
C942 C928 1.377 . S
C942 C941 1.373 . S
C943 C927 1.377 . S
C943 C941 1.389 . S
C943 C944 1.524 . S
C944 C943 1.524 . S
C944 C945 1.397 . S
C944 C949 1.363 . S
C945 H916 0.950 1_545 S
C945 C944 1.397 . S
C945 C946 1.334 . S
C946 H917 0.950 . S
C946 C945 1.334 . S
C946 C947 1.287 . S
C947 C946 1.287 . S
C947 C948 1.524 . S
C947 H950 0.999 . S
C948 H918 0.950 . S
C948 C947 1.524 . S
C948 C949 1.415 . S
C949 H919 0.950 . S
C949 C944 1.363 . S
C949 C948 1.415 . S
H950 C947 0.999 . S
H951 C932 0.913 . S
H952 C970 0.951 . S
H953 C972 0.951 . S
H954 C974 0.950 . S
H955 C975 0.950 . S
H956 C977 0.950 . S
H957 C980 0.950 . S
H958 C981 0.950 . S
H959 C983 0.950 . S
H960 C984 0.950 . S
H961 C985 0.951 . S
H962 C987 0.951 . S
H963 C989 0.950 . S
H964 C990 0.950 . S
H965 C992 0.950 . S
H966 C995 0.950 . S
H967 C996 0.950 . S
H968 C998 0.950 . S
H969 C999 0.950 . S
C970 H952 0.951 . S
C970 C971 1.366 . S
C970 C972 1.388 . S
C971 C970 1.366 . S
C971 C975 1.385 . S
C972 H953 0.951 . S
C972 C970 1.388 . S
C972 C973 1.366 . S
C973 C972 1.366 . S
C973 C974 1.414 . S
C973 C976 1.499 . S
C974 H954 0.950 . S
C974 C973 1.414 . S
C974 C975 1.374 . S
C975 H955 0.950 . S
C975 C971 1.385 . S
C975 C974 1.374 . S
C976 C973 1.499 . S
C976 C977 1.373 . S
C976 C978 1.389 . S
C977 H956 0.950 . S
C977 C976 1.373 . S
C977 C993 1.377 . S
C978 C976 1.389 . S
C978 C979 1.524 . S
C978 C992 1.377 . S
C979 C978 1.524 . S
C979 C980 1.397 . S
C979 C984 1.363 . S
C980 H957 0.950 . S
C980 C979 1.397 . S
C980 C981 1.334 . S
C981 H958 0.950 . S
C981 C980 1.334 . S
C981 C982 1.287 . S
C982 C981 1.287 . S
C982 C983 1.524 . S
C982 H1001 0.913 . S
C983 H959 0.950 . S
C983 C982 1.524 . S
C983 C984 1.415 . S
C984 H960 0.950 . S
C984 C979 1.363 . S
C984 C983 1.415 . S
C985 H961 0.951 . S
C985 C986 1.366 . S
C985 C987 1.388 . S
C986 C985 1.366 . S
C986 C990 1.385 . S
C987 H962 0.951 . S
C987 C985 1.388 . S
C987 C988 1.366 . S
C988 C987 1.366 . S
C988 C989 1.414 . S
C988 C991 1.499 . S
C989 H963 0.950 . S
C989 C988 1.414 . S
C989 C990 1.374 . S
C990 H964 0.950 . S
C990 C986 1.385 . S
C990 C989 1.374 . S
C991 C988 1.499 . S
C991 C992 1.373 . S
C991 C993 1.389 . S
C992 H965 0.950 . S
C992 C978 1.377 . S
C992 C991 1.373 . S
C993 C977 1.377 . S
C993 C991 1.389 . S
C993 C994 1.524 . S
C994 C993 1.524 . S
C994 C995 1.397 . S
C994 C999 1.363 . S
C995 H966 0.950 . S
C995 C994 1.397 . S
C995 C996 1.334 . S
C996 H967 0.950 . S
C996 C995 1.334 . S
C996 C997 1.287 . S
C997 C996 1.287 . S
C997 C998 1.524 . S
C997 H1000 0.999 . S
C998 H968 0.950 . S
C998 C997 1.524 . S
C998 C999 1.415 . S
C999 H969 0.950 . S
C999 C994 1.363 . S
C999 C998 1.415 . S
H1000 C997 0.999 . S
H1001 C982 0.913 . S
H1002 C1020 0.951 . S
H1003 C1022 0.951 . S
H1004 C1024 0.950 1_565 S
H1005 C1025 0.950 1_565 S
H1006 C1027 0.950 1_565 S
H1007 C1030 0.950 . S
H1008 C1031 0.950 . S
H1009 C1033 0.950 . S
H1010 C1034 0.950 . S
H1011 C1035 0.951 . S
H1012 C1037 0.951 . S
H1013 C1039 0.950 . S
H1014 C1040 0.950 . S
H1015 C1042 0.950 . S
H1016 C1045 0.950 1_545 S
H1017 C1046 0.950 . S
H1018 C1048 0.950 . S
H1019 C1049 0.950 . S
C1020 H1002 0.951 . S
C1020 C1021 1.366 . S
C1020 C1022 1.388 . S
C1021 C1020 1.366 . S
C1021 C1025 1.385 . S
C1022 H1003 0.951 . S
C1022 C1020 1.388 . S
C1022 C1023 1.366 . S
C1023 C1022 1.366 . S
C1023 C1024 1.414 . S
C1023 C1026 1.499 . S
C1024 H1004 0.950 1_545 S
C1024 C1023 1.414 . S
C1024 C1025 1.374 . S
C1025 H1005 0.950 1_545 S
C1025 C1021 1.385 . S
C1025 C1024 1.374 . S
C1026 C1023 1.499 . S
C1026 C1027 1.373 . S
C1026 C1028 1.389 . S
C1027 H1006 0.950 1_545 S
C1027 C1026 1.373 . S
C1027 C1043 1.377 . S
C1028 C1026 1.389 . S
C1028 C1029 1.524 . S
C1028 C1042 1.377 . S
C1029 C1028 1.524 . S
C1029 C1030 1.397 . S
C1029 C1034 1.363 . S
C1030 H1007 0.950 . S
C1030 C1029 1.397 . S
C1030 C1031 1.334 . S
C1031 H1008 0.950 . S
C1031 C1030 1.334 . S
C1031 C1032 1.287 . S
C1032 C1031 1.287 . S
C1032 C1033 1.524 . S
C1032 H1051 0.913 . S
C1033 H1009 0.950 . S
C1033 C1032 1.524 . S
C1033 C1034 1.415 . S
C1034 H1010 0.950 . S
C1034 C1029 1.363 . S
C1034 C1033 1.415 . S
C1035 H1011 0.951 . S
C1035 C1036 1.366 . S
C1035 C1037 1.388 . S
C1036 C1035 1.366 . S
C1036 C1040 1.385 . S
C1037 H1012 0.951 . S
C1037 C1035 1.388 . S
C1037 C1038 1.366 . S
C1038 C1037 1.366 . S
C1038 C1039 1.414 . S
C1038 C1041 1.499 . S
C1039 H1013 0.950 . S
C1039 C1038 1.414 . S
C1039 C1040 1.374 . S
C1040 H1014 0.950 . S
C1040 C1036 1.385 . S
C1040 C1039 1.374 . S
C1041 C1038 1.499 . S
C1041 C1042 1.373 . S
C1041 C1043 1.389 . S
C1042 H1015 0.950 . S
C1042 C1028 1.377 . S
C1042 C1041 1.373 . S
C1043 C1027 1.377 . S
C1043 C1041 1.389 . S
C1043 C1044 1.524 1_545 S
C1044 C1043 1.524 1_565 S
C1044 C1045 1.397 . S
C1044 C1049 1.363 . S
C1045 H1016 0.950 1_565 S
C1045 C1044 1.397 . S
C1045 C1046 1.334 . S
C1046 H1017 0.950 . S
C1046 C1045 1.334 . S
C1046 C1047 1.287 . S
C1047 C1046 1.287 . S
C1047 C1048 1.524 . S
C1047 H1050 0.999 . S
C1048 H1018 0.950 . S
C1048 C1047 1.524 . S
C1048 C1049 1.415 . S
C1049 H1019 0.950 . S
C1049 C1044 1.363 . S
C1049 C1048 1.415 . S
H1050 C1047 0.999 . S
H1051 C1032 0.913 . S
H1052 C1070 0.951 . S
H1053 C1072 0.951 . S
H1054 C1074 0.950 . S
H1055 C1075 0.950 . S
H1056 C1077 0.950 . S
H1057 C1080 0.950 . S
H1058 C1081 0.950 . S
H1059 C1083 0.950 . S
H1060 C1084 0.950 . S
H1061 C1085 0.951 . S
H1062 C1087 0.951 . S
H1063 C1089 0.950 . S
H1064 C1090 0.950 . S
H1065 C1092 0.950 . S
H1066 C1095 0.950 . S
H1067 C1096 0.950 1_554 S
H1068 C1098 0.950 . S
H1069 C1099 0.950 . S
C1070 H1052 0.951 . S
C1070 C1071 1.366 . S
C1070 C1072 1.388 . S
C1071 C1070 1.366 . S
C1071 C1075 1.385 . S
C1072 H1053 0.951 . S
C1072 C1070 1.388 . S
C1072 C1073 1.366 . S
C1073 C1072 1.366 . S
C1073 C1074 1.414 . S
C1073 C1076 1.499 . S
C1074 H1054 0.950 . S
C1074 C1073 1.414 . S
C1074 C1075 1.374 . S
C1075 H1055 0.950 . S
C1075 C1071 1.385 . S
C1075 C1074 1.374 . S
C1076 C1073 1.499 . S
C1076 C1077 1.373 . S
C1076 C1078 1.389 . S
C1077 H1056 0.950 . S
C1077 C1076 1.373 . S
C1077 C1093 1.377 . S
C1078 C1076 1.389 . S
C1078 C1079 1.524 . S
C1078 C1092 1.377 . S
C1079 C1078 1.524 . S
C1079 C1080 1.397 . S
C1079 C1084 1.363 . S
C1080 H1057 0.950 . S
C1080 C1079 1.397 . S
C1080 C1081 1.334 . S
C1081 H1058 0.950 . S
C1081 C1080 1.334 . S
C1081 C1082 1.287 . S
C1082 C1081 1.287 . S
C1082 C1083 1.524 . S
C1082 H1101 0.913 . S
C1083 H1059 0.950 . S
C1083 C1082 1.524 . S
C1083 C1084 1.415 . S
C1084 H1060 0.950 . S
C1084 C1079 1.363 . S
C1084 C1083 1.415 . S
C1085 H1061 0.951 . S
C1085 C1086 1.366 . S
C1085 C1087 1.388 . S
C1086 C1085 1.366 . S
C1086 C1090 1.385 . S
C1087 H1062 0.951 . S
C1087 C1085 1.388 . S
C1087 C1088 1.366 . S
C1088 C1087 1.366 . S
C1088 C1089 1.414 . S
C1088 C1091 1.499 1_554 S
C1089 H1063 0.950 . S
C1089 C1088 1.414 . S
C1089 C1090 1.374 . S
C1090 H1064 0.950 . S
C1090 C1086 1.385 . S
C1090 C1089 1.374 . S
C1091 C1088 1.499 1_556 S
C1091 C1092 1.373 . S
C1091 C1093 1.389 . S
C1092 H1065 0.950 . S
C1092 C1078 1.377 . S
C1092 C1091 1.373 . S
C1093 C1077 1.377 . S
C1093 C1091 1.389 . S
C1093 C1094 1.524 . S
C1094 C1093 1.524 . S
C1094 C1095 1.397 . S
C1094 C1099 1.363 . S
C1095 H1066 0.950 . S
C1095 C1094 1.397 . S
C1095 C1096 1.334 . S
C1096 H1067 0.950 1_556 S
C1096 C1095 1.334 . S
C1096 C1097 1.287 . S
C1097 C1096 1.287 . S
C1097 C1098 1.524 . S
C1097 H1100 1.000 . S
C1098 H1068 0.950 . S
C1098 C1097 1.524 . S
C1098 C1099 1.415 . S
C1099 H1069 0.950 . S
C1099 C1094 1.363 . S
C1099 C1098 1.415 . S
H1100 C1097 1.000 . S
H1101 C1082 0.913 . S
H1102 C1120 0.951 . S
H1103 C1122 0.951 . S
H1104 C1124 0.950 . S
H1105 C1125 0.950 . S
H1106 C1127 0.950 1_655 S
H1107 C1130 0.950 . S
H1108 C1131 0.950 . S
H1109 C1133 0.950 . S
H1110 C1134 0.950 . S
H1111 C1135 0.951 . S
H1112 C1137 0.951 . S
H1113 C1139 0.950 . S
H1114 C1140 0.950 . S
H1115 C1142 0.950 . S
H1116 C1145 0.950 . S
H1117 C1146 0.950 . S
H1118 C1148 0.950 . S
H1119 C1149 0.950 1_455 S
C1120 H1102 0.951 . S
C1120 C1121 1.366 . S
C1120 C1122 1.388 . S
C1121 C1120 1.366 . S
C1121 C1125 1.385 . S
C1122 H1103 0.951 . S
C1122 C1120 1.388 . S
C1122 C1123 1.366 . S
C1123 C1122 1.366 . S
C1123 C1124 1.414 . S
C1123 C1126 1.499 . S
C1124 H1104 0.950 . S
C1124 C1123 1.414 . S
C1124 C1125 1.374 . S
C1125 H1105 0.950 . S
C1125 C1121 1.385 . S
C1125 C1124 1.374 . S
C1126 C1123 1.499 . S
C1126 C1127 1.373 . S
C1126 C1128 1.389 . S
C1127 H1106 0.950 1_455 S
C1127 C1126 1.373 . S
C1127 C1143 1.377 . S
C1128 C1126 1.389 . S
C1128 C1129 1.524 . S
C1128 C1142 1.377 . S
C1129 C1128 1.524 . S
C1129 C1130 1.397 . S
C1129 C1134 1.363 . S
C1130 H1107 0.950 . S
C1130 C1129 1.397 . S
C1130 C1131 1.334 . S
C1131 H1108 0.950 . S
C1131 C1130 1.334 . S
C1131 C1132 1.287 . S
C1132 C1131 1.287 . S
C1132 C1133 1.524 . S
C1132 H1151 0.913 . S
C1133 H1109 0.950 . S
C1133 C1132 1.524 . S
C1133 C1134 1.415 . S
C1134 H1110 0.950 . S
C1134 C1129 1.363 . S
C1134 C1133 1.415 . S
C1135 H1111 0.951 . S
C1135 C1136 1.366 . S
C1135 C1137 1.388 . S
C1136 C1135 1.366 . S
C1136 C1140 1.385 . S
C1137 H1112 0.951 . S
C1137 C1135 1.388 . S
C1137 C1138 1.366 . S
C1138 C1137 1.366 . S
C1138 C1139 1.414 . S
C1138 C1141 1.499 . S
C1139 H1113 0.950 . S
C1139 C1138 1.414 . S
C1139 C1140 1.374 . S
C1140 H1114 0.950 . S
C1140 C1136 1.385 . S
C1140 C1139 1.374 . S
C1141 C1138 1.499 . S
C1141 C1142 1.373 . S
C1141 C1143 1.389 . S
C1142 H1115 0.950 . S
C1142 C1128 1.377 . S
C1142 C1141 1.373 . S
C1143 C1127 1.377 . S
C1143 C1141 1.389 . S
C1143 C1144 1.524 1_455 S
C1144 C1143 1.524 1_655 S
C1144 C1145 1.397 . S
C1144 C1149 1.363 . S
C1145 H1116 0.950 . S
C1145 C1144 1.397 . S
C1145 C1146 1.334 . S
C1146 H1117 0.950 . S
C1146 C1145 1.334 . S
C1146 C1147 1.287 . S
C1147 C1146 1.287 . S
C1147 C1148 1.524 . S
C1147 H1150 0.999 . S
C1148 H1118 0.950 . S
C1148 C1147 1.524 . S
C1148 C1149 1.415 . S
C1149 H1119 0.950 1_655 S
C1149 C1144 1.363 . S
C1149 C1148 1.415 . S
H1150 C1147 0.999 . S
H1151 C1132 0.913 . S
C271 C2 0.993 . S
C286 C243 0.981 . S
C321 C21 0.951 . S
C336 C179 0.946 . S
C371 C42 1.022 . S
C386 C211 1.012 . S
C421 C1 0.956 . S
C436 C237 0.955 . S
C486 C173 0.989 . S
C471 C22 0.997 . S
C536 C205 0.925 . S
C521 C41 0.925 . S
C571 C38 1.801 . S
C586 C115 1.774 . S
C621 C59 1.856 . S
C636 C147 1.804 . S
C671 C18 1.777 . S
C686 C77 1.757 . S
C736 C109 1.822 . S
C721 C39 1.863 . S
C786 C141 1.789 . S
C771 C58 1.807 . S
C821 C19 1.887 . S
C836 C83 1.835 . S
C886 C153 1.534 . S
C871 C9 1.505 . S
C921 C29 1.507 . S
C936 C89 1.539 . S
C971 C49 1.505 . S
C986 C121 1.530 . S
C1036 C217 1.370 . S
C1021 C28 1.367 . S
C1086 C249 1.365 . S
C1071 C48 1.361 . S
C1121 C8 1.361 . S
C1136 C185 1.359 . S
