# Generated by pormake.
# Topology pyr, (3,6)-cn, num edge types: 1
# Building blocks:
#     Node 0, Type 0, BuildingBlock: CUQRIR_clean_linker_1, # of connection points: 3
#     Node 1, Type 0, BuildingBlock: CUQRIR_clean_linker_1, # of connection points: 3
#     Node 2, Type 0, BuildingBlock: CUQRIR_clean_linker_1, # of connection points: 3
#     Node 3, Type 0, BuildingBlock: CUQRIR_clean_linker_1, # of connection points: 3
#     Node 4, Type 0, BuildingBlock: CUQRIR_clean_linker_1, # of connection points: 3
#     Node 5, Type 0, BuildingBlock: CUQRIR_clean_linker_1, # of connection points: 3
#     Node 6, Type 0, BuildingBlock: CUQRIR_clean_linker_1, # of connection points: 3
#     Node 7, Type 0, BuildingBlock: CUQRIR_clean_linker_1, # of connection points: 3
#     Node 8, Type 1, BuildingBlock: BETDIP_clean_sbu_0, # of connection points: 6
#     Node 9, Type 1, BuildingBlock: BETDIP_clean_sbu_0, # of connection points: 6
#     Node 10, Type 1, BuildingBlock: BETDIP_clean_sbu_0, # of connection points: 6
#     Node 11, Type 1, BuildingBlock: BETDIP_clean_sbu_0, # of connection points: 6
#     Edge 12, Type (0, 1), BuildingBlock: MIFKUJ_clean_linker_0, # of connection points: 2
#     Edge 13, Type (0, 1), BuildingBlock: MIFKUJ_clean_linker_0, # of connection points: 2
#     Edge 14, Type (0, 1), BuildingBlock: MIFKUJ_clean_linker_0, # of connection points: 2
#     Edge 15, Type (0, 1), BuildingBlock: MIFKUJ_clean_linker_0, # of connection points: 2
#     Edge 16, Type (0, 1), BuildingBlock: MIFKUJ_clean_linker_0, # of connection points: 2
#     Edge 17, Type (0, 1), BuildingBlock: MIFKUJ_clean_linker_0, # of connection points: 2
#     Edge 18, Type (0, 1), BuildingBlock: MIFKUJ_clean_linker_0, # of connection points: 2
#     Edge 19, Type (0, 1), BuildingBlock: MIFKUJ_clean_linker_0, # of connection points: 2
#     Edge 20, Type (0, 1), BuildingBlock: MIFKUJ_clean_linker_0, # of connection points: 2
#     Edge 21, Type (0, 1), BuildingBlock: MIFKUJ_clean_linker_0, # of connection points: 2
#     Edge 22, Type (0, 1), BuildingBlock: MIFKUJ_clean_linker_0, # of connection points: 2
#     Edge 23, Type (0, 1), BuildingBlock: MIFKUJ_clean_linker_0, # of connection points: 2
#     Edge 24, Type (0, 1), BuildingBlock: MIFKUJ_clean_linker_0, # of connection points: 2
#     Edge 25, Type (0, 1), BuildingBlock: MIFKUJ_clean_linker_0, # of connection points: 2
#     Edge 26, Type (0, 1), BuildingBlock: MIFKUJ_clean_linker_0, # of connection points: 2
#     Edge 27, Type (0, 1), BuildingBlock: MIFKUJ_clean_linker_0, # of connection points: 2
#     Edge 28, Type (0, 1), BuildingBlock: MIFKUJ_clean_linker_0, # of connection points: 2
#     Edge 29, Type (0, 1), BuildingBlock: MIFKUJ_clean_linker_0, # of connection points: 2
#     Edge 30, Type (0, 1), BuildingBlock: MIFKUJ_clean_linker_0, # of connection points: 2
#     Edge 31, Type (0, 1), BuildingBlock: MIFKUJ_clean_linker_0, # of connection points: 2
#     Edge 32, Type (0, 1), BuildingBlock: MIFKUJ_clean_linker_0, # of connection points: 2
#     Edge 33, Type (0, 1), BuildingBlock: MIFKUJ_clean_linker_0, # of connection points: 2
#     Edge 34, Type (0, 1), BuildingBlock: MIFKUJ_clean_linker_0, # of connection points: 2
#     Edge 35, Type (0, 1), BuildingBlock: MIFKUJ_clean_linker_0, # of connection points: 2
# Relax obj value: 0.164
# Max RMSD: 0.276
# Mean RMSD: 0.170
data_MOF--net-pyr--node1-BETDIP_clean_sbu_0--node2-CUQRIR_clean_linker_1--edge1-MIFKUJ_clean_linker_0
_symmetry_space_group_name_H-M    P1
_symmetry_Int_Tables_number       1
_symmetry_cell_setting            triclinic
loop_
_symmetry_equiv_pos_as_xyz
'x, y, z'
_cell_length_a     43.239132
_cell_length_b     48.412307
_cell_length_c     47.11367
_cell_angle_alpha  87.222841
_cell_angle_beta   94.522824
_cell_angle_gamma 105.47273
loop_
_atom_site_label
_atom_site_type_symbol
_atom_site_fract_x
_atom_site_fract_y
_atom_site_fract_z
_atom_type_partial_charge
C0 C 0.33233 0.31008 0.22149 0.0
N1 N 0.34734 0.2891 0.22769 0.0
N2 N 0.34399 0.32569 0.19817 0.0
C3 C 0.30344 0.31285 0.23596 0.0
C4 C 0.36621 0.31307 0.19012 0.0
N5 N 0.36819 0.29073 0.20801 0.0
C6 C 0.38639 0.32313 0.16517 0.0
H7 H 0.28782 0.32302 0.22167 0.0
H8 H 0.31184 0.32632 0.25488 0.0
H9 H 0.28881 0.29156 0.24324 0.0
H10 H 0.38955 0.34642 0.16082 0.0
H11 H 0.37411 0.31151 0.14598 0.0
H12 H 0.41031 0.31876 0.16918 0.0
C13 C 0.18735 0.79495 0.71168 0.0
N14 N 0.18738 0.81653 0.72899 0.0
N15 N 0.21022 0.78167 0.72122 0.0
C16 C 0.16835 0.78976 0.68339 0.0
C17 C 0.22438 0.79616 0.74466 0.0
N18 N 0.21069 0.81741 0.7493 0.0
C19 C 0.25247 0.79014 0.76236 0.0
H20 H 0.14228 0.78374 0.68678 0.0
H21 H 0.17394 0.77252 0.67172 0.0
H22 H 0.1736 0.80987 0.67019 0.0
H23 H 0.27514 0.80394 0.75442 0.0
H24 H 0.25271 0.76739 0.7608 0.0
H25 H 0.2515 0.79506 0.78496 0.0
C26 C 0.60309 0.34502 0.85385 0.0
N27 N 0.6216 0.34254 0.87827 0.0
N28 N 0.61327 0.37146 0.84114 0.0
C29 C 0.57512 0.32164 0.84231 0.0
C30 C 0.63829 0.3851 0.85893 0.0
N31 N 0.64327 0.36781 0.88142 0.0
C32 C 0.65857 0.41525 0.85394 0.0
H33 H 0.58422 0.30756 0.82908 0.0
H34 H 0.55778 0.33042 0.82865 0.0
H35 H 0.5624 0.30847 0.85992 0.0
H36 H 0.64635 0.42747 0.83839 0.0
H37 H 0.6816 0.41432 0.8457 0.0
H38 H 0.6643 0.42701 0.87409 0.0
C39 C 0.85247 0.68907 0.34202 0.0
N40 N 0.87807 0.71041 0.33322 0.0
N41 N 0.83903 0.69695 0.36441 0.0
C42 C 0.83976 0.66056 0.32811 0.0
C43 C 0.85746 0.72385 0.36939 0.0
N44 N 0.88121 0.73247 0.35083 0.0
C45 C 0.85206 0.74195 0.39272 0.0
H46 H 0.82592 0.64421 0.3429 0.0
H47 H 0.85974 0.65297 0.32073 0.0
H48 H 0.82347 0.66301 0.30931 0.0
H49 H 0.83667 0.72881 0.40882 0.0
H50 H 0.84005 0.75814 0.38319 0.0
H51 H 0.87529 0.75354 0.40355 0.0
C52 C 0.6715 0.82567 0.88306 0.0
N53 N 0.69516 0.82193 0.86765 0.0
N54 N 0.65581 0.84353 0.86891 0.0
C55 C 0.66674 0.81527 0.91349 0.0
C56 C 0.67101 0.85062 0.84452 0.0
N57 N 0.69502 0.83768 0.8438 0.0
C58 C 0.66291 0.87091 0.82173 0.0
H59 H 0.64788 0.79461 0.91361 0.0
H60 H 0.6587 0.83073 0.9258 0.0
H61 H 0.68916 0.81176 0.92433 0.0
H62 H 0.67812 0.89292 0.82576 0.0
H63 H 0.63729 0.87108 0.82182 0.0
H64 H 0.66776 0.86473 0.80047 0.0
C65 C 0.8693 0.33046 0.41709 0.0
N66 N 0.87592 0.31299 0.39823 0.0
N67 N 0.8511 0.34691 0.40422 0.0
C68 C 0.8781 0.32978 0.44855 0.0
C69 C 0.8469 0.33862 0.37682 0.0
N70 N 0.86191 0.31797 0.37315 0.0
C71 C 0.82305 0.34659 0.35512 0.0
H72 H 0.85897 0.31356 0.45914 0.0
H73 H 0.8801 0.35096 0.45765 0.0
H74 H 0.90111 0.3238 0.4529 0.0
H75 H 0.82336 0.36943 0.35688 0.0
H76 H 0.79855 0.33324 0.35918 0.0
H77 H 0.82838 0.34283 0.33319 0.0
C78 C 0.35146 0.6822 0.2448 0.0
N79 N 0.37674 0.70327 0.25535 0.0
N80 N 0.33739 0.69131 0.22069 0.0
C81 C 0.34061 0.65254 0.25797 0.0
C82 C 0.35493 0.7188 0.21698 0.0
N83 N 0.37882 0.72623 0.23793 0.0
C84 C 0.34843 0.73863 0.19292 0.0
H85 H 0.36121 0.64542 0.26828 0.0
H86 H 0.32788 0.6368 0.2418 0.0
H87 H 0.32391 0.65284 0.27459 0.0
H88 H 0.35525 0.76126 0.1994 0.0
H89 H 0.32265 0.73272 0.18529 0.0
H90 H 0.36296 0.737 0.175 0.0
C91 C 0.11171 0.35358 0.75094 0.0
N92 N 0.12991 0.35096 0.72903 0.0
N93 N 0.12298 0.37945 0.76399 0.0
C94 C 0.082 0.33112 0.75867 0.0
C95 C 0.14894 0.39238 0.74893 0.0
N96 N 0.15331 0.37552 0.7278 0.0
C97 C 0.17116 0.42126 0.75589 0.0
H98 H 0.06244 0.33106 0.74193 0.0
H99 H 0.07377 0.33517 0.77937 0.0
H100 H 0.0866 0.3096 0.75936 0.0
H101 H 0.17155 0.42552 0.77886 0.0
H102 H 0.16247 0.43809 0.74346 0.0
H103 H 0.19601 0.42267 0.75032 0.0
Tb104 Tb 0.99182 0.03588 0.53895 0.0
Tb105 Tb 0.05345 0.05219 0.52089 0.0
C106 C 0.93813 1.00887 0.5565 0.0
C107 C 0.92676 0.99047 0.58147 0.0
C108 C 0.93656 0.96537 0.58858 0.0
C109 C 0.92519 0.94841 0.61243 0.0
C110 C 0.90413 0.95645 0.62963 0.0
C111 C 0.8944 0.98152 0.62239 0.0
C112 C 0.90554 0.99829 0.59853 0.0
C113 C 0.02491 0.08714 0.56008 0.0
C114 C 0.04552 1.01404 0.57463 0.0
C115 C 0.10913 0.07766 0.50629 0.0
C116 C 0.12737 0.09132 0.48212 0.0
C117 C 0.1586 0.10858 0.48783 0.0
C118 C 0.17738 0.12131 0.46559 0.0
C119 C 0.16523 0.11706 0.43711 0.0
C120 C 0.13373 0.09974 0.43141 0.0
C121 C 0.11486 0.08697 0.45381 0.0
C122 C 0.01977 1.00118 0.49929 0.0
C123 C 0.9993 0.07615 0.48678 0.0
O124 O 0.95333 0.99875 0.53837 0.0
O125 O 0.95182 0.03576 0.56155 0.0
O126 O 0.03558 0.06513 0.55832 0.0
O127 O 0.9953 0.08024 0.5499 0.0
O128 O 0.01487 1.008 0.56606 0.0
O129 O 0.06584 0.03561 0.56252 0.0
O130 O 0.08933 0.0907 0.51564 0.0
O131 O 0.09705 0.04997 0.50579 0.0
O132 O 1.00963 0.02342 0.5012 0.0
O133 O 0.04934 1.00772 0.50946 0.0
O134 O 0.03042 0.08003 0.49318 0.0
O135 O 0.97843 0.05549 0.49955 0.0
H136 H 0.95295 0.9588 0.57578 0.0
H137 H 0.93305 0.9292 0.61756 0.0
H138 H 0.87767 0.98794 0.63494 0.0
H139 H 0.89749 1.01742 0.59335 0.0
H140 H 0.16865 0.11201 0.50959 0.0
H141 H 0.20168 0.13411 0.47073 0.0
H142 H 0.12362 0.09628 0.4097 0.0
H143 H 0.09069 0.07368 0.44909 0.0
Tb144 Tb 0.55402 0.05281 0.09481 0.0
Tb145 Tb 0.48124 0.03407 0.07572 0.0
C146 C 0.612 0.07658 0.10847 0.0
C147 C 0.63302 0.10187 0.12244 0.0
C148 C 0.62099 0.11825 0.14032 0.0
C149 C 0.64217 0.1395 0.15672 0.0
C150 C 0.67568 0.1445 0.15557 0.0
C151 C 0.68741 0.12892 0.13646 0.0
C152 C 0.66622 0.10781 0.12005 0.0
C153 C 0.52139 1.00117 0.11307 0.0
C154 C 0.50424 0.07814 0.12442 0.0
C155 C 0.42409 1.00484 0.06841 0.0
C156 C 0.40337 0.9943 0.04289 0.0
C157 C 0.37707 0.97022 0.04496 0.0
C158 C 0.35861 0.95886 0.02043 0.0
C159 C 0.36626 0.97142 0.99341 0.0
C160 C 0.39243 0.99586 0.99159 0.0
C161 C 0.4109 1.00711 1.01608 0.0
C162 C 0.51186 0.08072 0.04558 0.0
C163 C 0.5318 1.01467 0.04164 0.0
O164 O 0.59786 0.08064 0.08355 0.0
O165 O 0.59298 0.05815 0.12496 0.0
O166 O 0.51142 0.02356 0.11082 0.0
O167 O 0.5508 1.00776 0.1059 0.0
O168 O 0.53447 0.08159 0.1182 0.0
O169 O 0.4801 0.05782 0.11323 0.0
O170 O 0.44843 0.99355 0.07371 0.0
O171 O 0.4323 0.03273 0.07145 0.0
O172 O 0.52231 0.06669 0.06537 0.0
O173 O 0.4817 0.06741 0.04114 0.0
O174 O 0.50184 1.0089 0.04915 0.0
O175 O 0.55562 0.03439 0.0541 0.0
H176 H 0.59537 0.11388 0.14239 0.0
H177 H 0.63234 0.15144 0.17087 0.0
H178 H 0.713 0.13192 0.13525 0.0
H179 H 0.67588 0.09522 0.10641 0.0
H180 H 0.3712 0.95987 0.06549 0.0
H181 H 0.33893 0.93977 0.02257 0.0
H182 H 0.39876 1.00627 0.97119 0.0
H183 H 0.43134 0.02558 1.01403 0.0
Tb184 Tb 0.49836 0.5616 0.55869 0.0
Tb185 Tb 0.49195 0.50829 0.52946 0.0
C186 C 0.48821 0.60675 0.5754 0.0
C187 C 0.46169 0.61474 0.58768 0.0
C188 C 0.42943 0.60105 0.57973 0.0
C189 C 0.40461 0.6104 0.59003 0.0
C190 C 0.41165 0.63361 0.60844 0.0
C191 C 0.44399 0.6466 0.61705 0.0
C192 C 0.46876 0.63726 0.60671 0.0
C193 C 0.52511 0.52491 0.5883 0.0
C194 C 0.43431 0.50844 0.56568 0.0
C195 C 0.50395 0.46351 0.51376 0.0
C196 C 0.53239 0.45705 0.50331 0.0
C197 C 0.56355 0.47356 0.51145 0.0
C198 C 0.59045 0.46657 0.50248 0.0
C199 C 0.58675 0.44269 0.4855 0.0
C200 C 0.55553 0.42632 0.47717 0.0
C201 C 0.52857 0.43352 0.48593 0.0
C202 C 0.46585 0.54542 0.49956 0.0
C203 C 0.55588 0.56099 0.52215 0.0
O204 O 0.48281 0.59849 0.54903 0.0
O205 O 0.50292 0.59073 0.59147 0.0
O206 O 0.49869 0.51919 0.57339 0.0
O207 O 0.53723 0.55251 0.58733 0.0
O208 O 0.44835 0.53643 0.56803 0.0
O209 O 0.44834 0.49212 0.55234 0.0
O210 O 0.50711 0.47138 0.54022 0.0
O211 O 0.48965 0.47929 0.49694 0.0
O212 O 0.49186 0.55084 0.51498 0.0
O213 O 0.4539 0.51773 0.49975 0.0
O214 O 0.54148 0.53319 0.51984 0.0
O215 O 0.54217 0.57759 0.53554 0.0
H216 H 0.4234 0.58361 0.56501 0.0
H217 H 0.38001 0.60007 0.58282 0.0
H218 H 0.4502 0.66418 0.63162 0.0
H219 H 0.4935 0.64798 0.61319 0.0
H220 H 0.56721 0.49151 0.52528 0.0
H221 H 0.61417 0.47935 0.50955 0.0
H222 H 0.55197 0.40793 0.46389 0.0
H223 H 0.50474 0.42049 0.47948 0.0
Tb224 Tb 0.98832 0.56684 0.02437 0.0
Tb225 Tb 0.9921 0.52039 0.06527 0.0
C226 C 0.96832 0.60128 0.9908 0.0
C227 C 0.95279 0.62492 0.98996 0.0
C228 C 0.92795 0.62465 1.00755 0.0
C229 C 0.91018 0.64495 1.00302 0.0
C230 C 0.91706 0.66585 0.98092 0.0
C231 C 0.9431 0.66691 0.96444 0.0
C232 C 0.96073 0.64658 0.96891 0.0
C233 C 0.04619 0.57182 0.04972 0.0
C234 C 0.96968 0.57171 0.08981 0.0
C235 C 0.01183 0.48486 0.09745 0.0
C236 C 0.0396 0.47271 0.09844 0.0
C237 C 0.06933 0.48902 0.0893 0.0
C238 C 0.09629 0.47817 0.09276 0.0
C239 C 0.09391 0.45071 0.10514 0.0
C240 C 0.0637 0.43403 0.11308 0.0
C241 C 0.03683 0.44502 0.10987 0.0
C242 C 0.93408 0.5139 0.03946 0.0
C243 C 0.01432 0.51788 1.00086 0.0
O244 O 0.95077 0.57585 0.9982 0.0
O245 O 0.99802 0.60638 1.00162 0.0
O246 O 0.01966 0.56335 0.06086 0.0
O247 O 0.04098 0.57961 0.02342 0.0
O248 O 0.97116 0.58251 0.06309 0.0
O249 O 0.9773 0.54712 0.09586 0.0
O250 O 0.0186 0.51226 0.1022 0.0
O251 O 0.99023 0.47734 0.07626 0.0
O252 O 0.96073 0.52314 0.02836 0.0
O253 O 0.9398 0.50697 0.0659 0.0
O254 O 0.01703 0.50986 0.02834 0.0
O255 O 1.00056 0.5389 0.99375 0.0
H256 H 0.92152 0.60817 0.02404 0.0
H257 H 0.89053 0.64384 1.0163 0.0
H258 H 0.9488 0.6825 0.94707 0.0
H259 H 0.97971 0.64703 0.95504 0.0
H260 H 0.07192 0.51044 0.08021 0.0
H261 H 0.11918 0.49169 0.08662 0.0
H262 H 0.06086 0.41257 0.1221 0.0
H263 H 0.01401 0.43207 0.1168 0.0
H264 H 0.32561 0.23241 0.21828 0.0
H265 H 0.30094 0.19502 0.25291 0.0
H266 H 0.32157 0.25809 0.31833 0.0
H267 H 0.34736 0.29496 0.28393 0.0
H268 H 0.32731 0.20841 0.34065 0.0
H269 H 0.24797 0.2402 0.27731 0.0
H270 H 0.22125 0.24777 0.23052 0.0
H271 H 0.20046 0.15789 0.21463 0.0
H272 H 0.22715 0.14977 0.2614 0.0
H273 H 0.20432 0.1715 0.4343 0.0
H274 H 0.24045 0.19322 0.39741 0.0
H275 H 0.20867 0.11561 0.34984 0.0
H276 H 0.17245 0.09349 0.387 0.0
H277 H 0.21164 0.16327 0.31602 0.0
H278 H 0.28179 0.13114 0.38487 0.0
H279 H 0.30669 0.12458 0.43274 0.0
H280 H 0.34442 0.21574 0.43904 0.0
H281 H 0.31934 0.22289 0.39137 0.0
C282 C 0.32575 0.23789 0.24031 0.0
C283 C 0.3382 0.26637 0.24866 0.0
C284 C 0.31139 0.21669 0.25997 0.0
C285 C 0.30879 0.22387 0.28809 0.0
C286 C 0.32319 0.25201 0.29678 0.0
C287 C 0.3378 0.27306 0.27721 0.0
C288 C 0.28871 0.20314 0.3079 0.0
C289 C 0.30202 0.19855 0.33529 0.0
C290 C 0.25589 0.18958 0.30068 0.0
C291 C 0.23985 0.19445 0.27264 0.0
C292 C 0.23786 0.22209 0.26375 0.0
C293 C 0.22272 0.22648 0.23725 0.0
C294 C 0.20933 0.20338 0.21952 0.0
C295 C 0.21092 0.17579 0.22834 0.0
C296 C 0.226 0.17126 0.25486 0.0
C297 C 0.20517 0.15892 0.41613 0.0
C298 C 0.18573 0.13066 0.41372 0.0
C299 C 0.22588 0.17136 0.39507 0.0
C300 C 0.22774 0.15582 0.37118 0.0
C301 C 0.20776 0.12788 0.36824 0.0
C302 C 0.18696 0.11536 0.38938 0.0
C303 C 0.25001 0.16934 0.34904 0.0
C304 C 0.2371 0.17256 0.32123 0.0
C305 C 0.28314 0.18174 0.35595 0.0
C306 C 0.29851 0.17754 0.38457 0.0
C307 C 0.29522 0.1498 0.39653 0.0
C308 C 0.30939 0.14597 0.42363 0.0
C309 C 0.32709 0.16972 0.43894 0.0
C310 C 0.33071 0.19736 0.42716 0.0
C311 C 0.31655 0.20131 0.40007 0.0
H312 H 0.33804 0.16672 0.45992 0.0
H313 H 0.19762 0.20684 0.199 0.0
H314 H 0.26833 0.85566 0.75345 0.0
H315 H 0.29129 0.8861 0.79406 0.0
H316 H 0.20108 0.85736 0.83363 0.0
H317 H 0.1781 0.82701 0.79254 0.0
H318 H 0.23248 0.91568 0.8429 0.0
H319 H 0.25671 0.82409 0.8529 0.0
H320 H 0.2762 0.78422 0.83725 0.0
H321 H 0.36961 0.8416 0.82726 0.0
H322 H 0.35062 0.88186 0.84274 0.0
H323 H 0.30106 0.94851 0.98467 0.0
H324 H 0.27142 0.92549 0.94195 0.0
H325 H 0.35997 0.94283 0.89985 0.0
H326 H 0.38986 0.96469 0.94277 0.0
H327 H 0.32669 0.88952 0.89261 0.0
H328 H 0.30301 0.98121 0.88354 0.0
H329 H 0.28358 0.02117 0.89901 0.0
H330 H 0.18946 0.96437 0.90702 0.0
H331 H 0.20845 0.92396 0.89196 0.0
C332 C 0.25338 0.85639 0.77065 0.0
C333 C 0.22178 0.83894 0.77038 0.0
C334 C 0.26641 0.87365 0.79376 0.0
C335 C 0.24807 0.87349 0.81709 0.0
C336 C 0.21565 0.85765 0.81588 0.0
C337 C 0.20255 0.84042 0.79256 0.0
C338 C 0.26379 0.88772 0.84358 0.0
C339 C 0.25283 0.90979 0.85404 0.0
C340 C 0.29059 0.88023 0.85781 0.0
C341 C 0.30217 0.85601 0.84875 0.0
C342 C 0.28136 0.82823 0.84723 0.0
C343 C 0.29234 0.80555 0.83845 0.0
C344 C 0.32408 0.81039 0.83117 0.0
C345 C 0.345 0.83789 0.83285 0.0
C346 C 0.33417 0.86063 0.8417 0.0
C347 C 0.31422 0.94731 0.96635 0.0
C348 C 0.34783 0.95851 0.96714 0.0
C349 C 0.29719 0.93445 0.94182 0.0
C350 C 0.31341 0.93274 0.91755 0.0
C351 C 0.34691 0.94403 0.91826 0.0
C352 C 0.36394 0.95676 0.94276 0.0
C353 C 0.29586 0.91798 0.89184 0.0
C354 C 0.30638 0.89556 0.88157 0.0
C355 C 0.26871 0.92523 0.87788 0.0
C356 C 0.25725 0.9495 0.88691 0.0
C357 C 0.27824 0.97719 0.88883 0.0
C358 C 0.26729 0.99993 0.89748 0.0
C359 C 0.23533 0.9953 0.90407 0.0
C360 C 0.21422 0.96792 0.90195 0.0
C361 C 0.22506 0.9451 0.89333 0.0
H362 H 0.2269 1.01293 0.91075 0.0
H363 H 0.3325 0.79282 0.82429 0.0
H364 H 0.64729 0.38963 0.79497 0.0
H365 H 0.63068 0.41347 0.75138 0.0
H366 H 0.53709 0.40285 0.78268 0.0
H367 H 0.55419 0.3798 0.82674 0.0
H368 H 0.53605 0.39084 0.72219 0.0
H369 H 0.58726 0.46455 0.78888 0.0
H370 H 0.63184 0.48892 0.82234 0.0
H371 H 0.69583 0.50735 0.75461 0.0
H372 H 0.65176 0.48255 0.72084 0.0
H373 H 0.48355 0.4859 0.62102 0.0
H374 H 0.49647 0.45905 0.66353 0.0
H375 H 0.59778 0.49409 0.65241 0.0
H376 H 0.58457 0.52296 0.61135 0.0
H377 H 0.59401 0.49249 0.70382 0.0
H378 H 0.54714 0.41827 0.63731 0.0
H379 H 0.50568 0.39108 0.60275 0.0
H380 H 0.43758 0.3709 0.66721 0.0
H381 H 0.47851 0.39829 0.70206 0.0
C382 C 0.62308 0.39213 0.79236 0.0
C383 C 0.60196 0.38255 0.81417 0.0
C384 C 0.61358 0.4058 0.76746 0.0
C385 C 0.58257 0.4101 0.76357 0.0
C386 C 0.56104 0.39969 0.78495 0.0
C387 C 0.57075 0.38636 0.81009 0.0
C388 C 0.57336 0.42675 0.73796 0.0
C389 C 0.54845 0.41317 0.7183 0.0
C390 C 0.59002 0.4557 0.7323 0.0
C391 C 0.61626 0.47147 0.75238 0.0
C392 C 0.61088 0.47365 0.78115 0.0
C393 C 0.63606 0.48754 0.80017 0.0
C394 C 0.66667 0.49962 0.79062 0.0
C395 C 0.67212 0.49795 0.76199 0.0
C396 C 0.64704 0.48399 0.74289 0.0
C397 C 0.50859 0.48767 0.62753 0.0
C398 C 0.53305 0.50638 0.61258 0.0
C399 C 0.51608 0.47204 0.65188 0.0
C400 C 0.54831 0.47358 0.66132 0.0
C401 C 0.57271 0.49218 0.64602 0.0
C402 C 0.56518 0.5086 0.62228 0.0
C403 C 0.5567 0.45659 0.68736 0.0
C404 C 0.5815 0.47014 0.70734 0.0
C405 C 0.54033 0.42738 0.69298 0.0
C406 C 0.51581 0.41054 0.67221 0.0
C407 C 0.52328 0.40814 0.64407 0.0
C408 C 0.49987 0.3927 0.62443 0.0
C409 C 0.46898 0.37936 0.63276 0.0
C410 C 0.46148 0.38131 0.66078 0.0
C411 C 0.48479 0.39676 0.68049 0.0
H412 H 0.45088 0.36744 0.61753 0.0
H413 H 0.68614 0.51032 0.8054 0.0
H414 H 0.93748 0.70087 0.32882 0.0
H415 H 0.95585 0.68176 0.28756 0.0
H416 H 0.8696 0.68817 0.23832 0.0
H417 H 0.85312 0.70917 0.27862 0.0
H418 H 0.9442 0.63915 0.26023 0.0
H419 H 0.86682 0.67855 0.16832 0.0
H420 H 0.84851 0.72164 0.15409 0.0
H421 H 0.92729 0.77352 0.20521 0.0
H422 H 0.94628 0.73081 0.21947 0.0
H423 H 0.94684 0.55132 0.14265 0.0
H424 H 0.93341 0.57695 0.18135 0.0
H425 H 0.96096 0.65619 0.13248 0.0
H426 H 0.97202 0.62994 0.09286 0.0
H427 H 0.92072 0.66566 0.15958 0.0
H428 H 1.00634 0.62937 0.19997 0.0
H429 H 0.03659 0.59371 0.21403 0.0
H430 H 0.96073 0.54797 0.26566 0.0
H431 H 0.92986 0.58318 0.25163 0.0
C432 C 0.92339 0.69982 0.30867 0.0
C433 C 0.89437 0.70825 0.30722 0.0
C434 C 0.93352 0.68799 0.28487 0.0
C435 C 0.91483 0.68332 0.25842 0.0
C436 C 0.88597 0.69212 0.25714 0.0
C437 C 0.87635 0.70451 0.2806 0.0
C438 C 0.92437 0.66818 0.23316 0.0
C439 C 0.93888 0.64524 0.23833 0.0
C440 C 0.91894 0.67565 0.20374 0.0
C441 C 0.90775 0.70143 0.19519 0.0
C442 C 0.88028 0.69917 0.17644 0.0
C443 C 0.86978 0.72352 0.16839 0.0
C444 C 0.88666 0.75028 0.17882 0.0
C445 C 0.91416 0.75276 0.19724 0.0
C446 C 0.92479 0.72849 0.20533 0.0
C447 C 0.95003 0.57422 0.13992 0.0
C448 C 0.96079 0.58811 0.11398 0.0
C449 C 0.94267 0.58929 0.16266 0.0
C450 C 0.94681 0.61944 0.16137 0.0
C451 C 0.95725 0.63323 0.13517 0.0
C452 C 0.9638 0.618 0.1121 0.0
C453 C 0.93997 0.63626 0.18666 0.0
C454 C 0.92597 0.65953 0.18148 0.0
C455 C 0.94729 0.62998 0.21605 0.0
C456 C 0.96566 0.60874 0.22451 0.0
C457 C 0.99604 0.6116 0.21418 0.0
C458 C 0.0133 0.59149 0.22216 0.0
C459 C 1.00055 0.56855 0.24066 0.0
C460 C 0.97055 0.56572 0.25129 0.0
C461 C 0.95317 0.58576 0.24335 0.0
H462 H 0.01394 0.553 0.24681 0.0
H463 H 0.87847 0.7691 0.17258 0.0
H464 H 0.40769 0.27414 0.24859 0.0
H465 H 0.43934 0.23939 0.24366 0.0
H466 H 0.40197 0.22742 0.15618 0.0
H467 H 0.36995 0.26138 0.16139 0.0
H468 H 0.41968 0.18186 0.22874 0.0
H469 H 0.46256 0.22348 0.11666 0.0
H470 H 0.47744 0.2695 0.08969 0.0
H471 H 0.50218 0.31476 0.1679 0.0
H472 H 0.48799 0.26902 0.19534 0.0
H473 H 0.44569 0.07703 0.14309 0.0
H474 H 0.43127 0.11454 0.16732 0.0
H475 H 0.53047 0.16411 0.17214 0.0
H476 H 0.54506 0.12687 0.14706 0.0
H477 H 0.49396 0.1959 0.15104 0.0
H478 H 0.49188 0.13533 0.23313 0.0
H479 H 0.47887 0.09031 0.26186 0.0
H480 H 0.3781 0.0848 0.24793 0.0
H481 H 0.39044 0.12956 0.21877 0.0
C482 C 0.40637 0.26396 0.22841 0.0
C483 C 0.38702 0.2707 0.20518 0.0
C484 C 0.42434 0.24421 0.22561 0.0
C485 C 0.42336 0.23124 0.19943 0.0
C486 C 0.40357 0.23766 0.17639 0.0
C487 C 0.38549 0.25714 0.17928 0.0
C488 C 0.4426 0.21068 0.19581 0.0
C489 C 0.43618 0.18493 0.21196 0.0
C490 C 0.46478 0.21517 0.17446 0.0
C491 C 0.47399 0.24278 0.15806 0.0
C492 C 0.47138 0.24323 0.12811 0.0
C493 C 0.47966 0.26928 0.11273 0.0
C494 C 0.49068 0.29504 0.12707 0.0
C495 C 0.49355 0.2948 0.15682 0.0
C496 C 0.48536 0.26882 0.17229 0.0
C497 C 0.46463 0.09565 0.14968 0.0
C498 C 0.49656 0.09895 0.14294 0.0
C499 C 0.45634 0.11704 0.1638 0.0
C500 C 0.47981 0.14209 0.17182 0.0
C501 C 0.51196 0.14494 0.16622 0.0
C502 C 0.52028 0.12355 0.15196 0.0
C503 C 0.46997 0.16635 0.18308 0.0
C504 C 0.47807 0.19289 0.16828 0.0
C505 C 0.44972 0.16268 0.20597 0.0
C506 C 0.44212 0.13579 0.22364 0.0
C507 C 0.46693 0.12444 0.23604 0.0
C508 C 0.45967 0.09897 0.25243 0.0
C509 C 0.42768 0.08469 0.25669 0.0
C510 C 0.40287 0.09589 0.24462 0.0
C511 C 0.40999 0.12134 0.2282 0.0
H512 H 0.42211 0.06497 0.26938 0.0
H513 H 0.49704 0.31518 0.11512 0.0
H514 H 0.1235 0.80977 0.7256 0.0
H515 H 0.09512 0.84523 0.70683 0.0
H516 H 0.1863 0.90767 0.69799 0.0
H517 H 0.21441 0.87216 0.71697 0.0
H518 H 0.14141 0.93267 0.71442 0.0
H519 H 0.14908 0.86758 0.64254 0.0
H520 H 0.14151 0.82011 0.62207 0.0
H521 H 0.0393 0.80298 0.62651 0.0
H522 H 0.04631 0.85025 0.64733 0.0
H523 H 0.10689 0.02137 0.59825 0.0
H524 H 0.12691 0.98914 0.63191 0.0
H525 H 0.03086 0.93355 0.63514 0.0
H526 H 1.01063 0.96559 0.60129 0.0
H527 H 0.07368 0.90428 0.62514 0.0
H528 H 0.06644 0.97273 0.69216 0.0
H529 H 0.07514 0.02082 0.71151 0.0
H530 H 0.17735 0.03251 0.71518 0.0
H531 H 0.16929 0.98464 0.69545 0.0
C532 C 0.13723 0.83129 0.72015 0.0
C533 C 0.17092 0.83846 0.72259 0.0
C534 C 0.12115 0.85146 0.7094 0.0
C535 C 0.13863 0.87896 0.7006 0.0
C536 C 0.17234 0.88661 0.70468 0.0
C537 C 0.18837 0.86644 0.71554 0.0
C538 C 0.12213 0.89882 0.68481 0.0
C539 C 0.12672 0.92656 0.69483 0.0
C540 C 0.10251 0.89064 0.6595 0.0
C541 C 0.09825 0.8623 0.6468 0.0
C542 C 0.12501 0.8536 0.63935 0.0
C543 C 0.12082 0.82675 0.62766 0.0
C544 C 0.08996 0.80849 0.62311 0.0
C545 C 0.0632 0.81711 0.63012 0.0
C546 C 0.06726 0.84394 0.64184 0.0
C547 C 0.08993 1.00248 0.60637 0.0
C548 C 0.05718 0.996 0.597 0.0
C549 C 0.1014 0.98414 0.62574 0.0
C550 C 0.08034 0.95903 0.6362 0.0
C551 C 0.04751 0.95284 0.62738 0.0
C552 C 0.03599 0.97121 0.60806 0.0
C553 C 0.09305 0.93826 0.65463 0.0
C554 C 0.0879 0.91033 0.64498 0.0
C555 C 0.11229 0.94637 0.68014 0.0
C556 C 0.11725 0.97516 0.6921 0.0
C557 C 0.09078 0.98564 0.69688 0.0
C558 C 0.0956 1.01285 0.70796 0.0
C559 C 0.12678 0.02974 0.71451 0.0
C560 C 0.15321 1.01942 0.71007 0.0
C561 C 0.14853 0.99223 0.69897 0.0
H562 H 0.13045 0.0508 0.72309 0.0
H563 H 0.08677 0.7877 0.61407 0.0
H564 H 0.64851 0.40344 0.92455 0.0
H565 H 0.69823 0.42656 0.95263 0.0
H566 H 0.74809 0.37378 0.91351 0.0
H567 H 0.69813 0.35093 0.8852 0.0
H568 H 0.7681 0.38295 0.97167 0.0
H569 H 0.75558 0.4383 0.88644 0.0
H570 H 0.7267 0.46358 0.85135 0.0
H571 H 0.71765 0.52003 0.91589 0.0
H572 H 0.74641 0.49501 0.95142 0.0
H573 H 0.91994 0.51406 0.98141 0.0
H574 H 0.87031 0.48745 0.95521 0.0
H575 H 0.82882 0.45636 0.03472 0.0
H576 H 0.8781 0.4828 0.06086 0.0
H577 H 0.80704 0.48793 0.95326 0.0
H578 H 0.7846 0.38663 0.02753 0.0
H579 H 0.81577 0.36055 0.05954 0.0
H580 H 0.89877 0.39441 1.01166 0.0
H581 H 0.86799 0.42034 0.97913 0.0
C582 C 0.66989 0.3962 0.92274 0.0
C583 C 0.66956 0.37531 0.90297 0.0
C584 C 0.69836 0.40959 0.93851 0.0
C585 C 0.72714 0.40228 0.93491 0.0
C586 C 0.72627 0.37987 0.91666 0.0
C587 C 0.69774 0.36663 0.90068 0.0
C588 C 0.75834 0.41946 0.94856 0.0
C589 C 0.77654 0.4059 0.96772 0.0
C590 C 0.76992 0.44935 0.94296 0.0
C591 C 0.75291 0.46464 0.92163 0.0
C592 C 0.74728 0.45601 0.89318 0.0
C593 C 0.731 0.47032 0.8732 0.0
C594 C 0.72022 0.49331 0.88141 0.0
C595 C 0.72595 0.50217 0.90958 0.0
C596 C 0.74233 0.488 0.92963 0.0
C597 C 0.90008 0.5018 0.99328 0.0
C598 C 0.90309 0.50046 0.02324 0.0
C599 C 0.8717 0.48657 0.97828 0.0
C600 C 0.84585 0.46945 0.99291 0.0
C601 C 0.8485 0.46895 0.02284 0.0
C602 C 0.8767 0.48424 0.0378 0.0
C603 C 0.81643 0.45159 0.97707 0.0
C604 C 0.79858 0.46501 0.95738 0.0
C605 C 0.80544 0.42149 0.98188 0.0
C606 C 0.82405 0.40565 1.00108 0.0
C607 C 0.80946 0.38841 0.02377 0.0
C608 C 0.82707 0.37367 0.04201 0.0
C609 C 0.85926 0.37589 0.03769 0.0
C610 C 0.87388 0.39279 1.01505 0.0
C611 C 0.85637 0.40754 0.99672 0.0
H612 H 0.87285 0.36449 0.05185 0.0
H613 H 0.70751 0.50429 0.86592 0.0
H614 H 0.83319 0.65168 0.40199 0.0
H615 H 0.78607 0.62766 0.42874 0.0
H616 H 0.73321 0.68384 0.38703 0.0
H617 H 0.78045 0.70782 0.36059 0.0
H618 H 0.75299 0.64616 0.46736 0.0
H619 H 0.65223 0.64777 0.3798 0.0
H620 H 0.6437 0.64714 0.32741 0.0
H621 H 0.71792 0.6039 0.32326 0.0
H622 H 0.72655 0.6039 0.37563 0.0
H623 H 0.59753 0.61544 0.52664 0.0
H624 H 0.64552 0.63691 0.50048 0.0
H625 H 0.63141 0.55816 0.4564 0.0
H626 H 0.58376 0.53646 0.48274 0.0
H627 H 0.64563 0.60471 0.41889 0.0
H628 H 0.69101 0.57673 0.50824 0.0
H629 H 0.70008 0.57479 0.56054 0.0
H630 H 0.73774 0.66631 0.56093 0.0
H631 H 0.72846 0.66884 0.50862 0.0
C632 C 0.81136 0.65863 0.39837 0.0
C633 C 0.81045 0.68139 0.37881 0.0
C634 C 0.78439 0.64503 0.41384 0.0
C635 C 0.75549 0.65353 0.41003 0.0
C636 C 0.75471 0.67634 0.39037 0.0
C637 C 0.78177 0.69011 0.37515 0.0
C638 C 0.72644 0.63879 0.4266 0.0
C639 C 0.72955 0.63725 0.45662 0.0
C640 C 0.69551 0.62659 0.41309 0.0
C641 C 0.69024 0.62612 0.38162 0.0
C642 C 0.66664 0.63804 0.36771 0.0
C643 C 0.6618 0.6378 0.33802 0.0
C644 C 0.68033 0.62557 0.32201 0.0
C645 C 0.70366 0.61346 0.33567 0.0
C646 C 0.70856 0.6136 0.36536 0.0
C647 C 0.60468 0.60253 0.51156 0.0
C648 C 0.58644 0.57399 0.50715 0.0
C649 C 0.63234 0.61491 0.4965 0.0
C650 C 0.64259 0.59936 0.47621 0.0
C651 C 0.62434 0.5709 0.47172 0.0
C652 C 0.597 0.55837 0.48706 0.0
C653 C 0.67204 0.61269 0.45963 0.0
C654 C 0.66901 0.61387 0.42962 0.0
C655 C 0.70305 0.62446 0.47314 0.0
C656 C 0.70874 0.623 0.50455 0.0
C657 C 0.70098 0.59647 0.5195 0.0
C658 C 0.70621 0.59525 0.54914 0.0
C659 C 0.7194 0.62042 0.56406 0.0
C660 C 0.72748 0.64684 0.54935 0.0
C661 C 0.72227 0.64818 0.5197 0.0
H662 H 0.72344 0.61943 0.58701 0.0
H663 H 0.67657 0.62543 0.29903 0.0
H664 H 0.33684 0.3752 0.21663 0.0
H665 H 0.30077 0.40262 0.19404 0.0
H666 H 0.28314 0.34853 0.12118 0.0
H667 H 0.31838 0.32074 0.1442 0.0
H668 H 0.28938 0.43237 0.14392 0.0
H669 H 0.20363 0.3249 0.10881 0.0
H670 H 0.19329 0.27327 0.12147 0.0
H671 H 0.23019 0.29356 0.20744 0.0
H672 H 0.24044 0.34508 0.19534 0.0
H673 H 0.14503 0.45721 0.07186 0.0
H674 H 0.19354 0.44059 0.08291 0.0
H675 H 0.15695 0.40337 0.16257 0.0
H676 H 0.10904 0.42047 0.1522 0.0
H677 H 0.17957 0.36655 0.1333 0.0
H678 H 0.21195 0.46406 0.16203 0.0
H679 H 0.22 0.51616 0.155 0.0
H680 H 0.28766 0.51818 0.09244 0.0
H681 H 0.27913 0.46581 0.09835 0.0
C682 C 0.326 0.36993 0.1954 0.0
C683 C 0.33003 0.34591 0.18213 0.0
C684 C 0.30557 0.38558 0.18247 0.0
C685 C 0.28896 0.37732 0.15612 0.0
C686 C 0.29557 0.3551 0.14161 0.0
C687 C 0.31581 0.33936 0.15463 0.0
C688 C 0.26106 0.38846 0.14631 0.0
C689 C 0.26541 0.41803 0.14122 0.0
C690 C 0.22969 0.36979 0.14358 0.0
C691 C 0.22315 0.33878 0.15107 0.0
C692 C 0.20946 0.31826 0.13041 0.0
C693 C 0.20364 0.28902 0.13749 0.0
C694 C 0.21122 0.28009 0.16522 0.0
C695 C 0.22448 0.3004 0.18594 0.0
C696 C 0.23033 0.32962 0.17898 0.0
C697 C 0.14743 0.44568 0.09183 0.0
C698 C 0.12303 0.44005 0.11108 0.0
C699 C 0.1751 0.43615 0.09804 0.0
C700 C 0.17876 0.4208 0.12355 0.0
C701 C 0.15443 0.41501 0.14267 0.0
C702 C 0.12695 0.42466 0.1366 0.0
C703 C 0.20778 0.41045 0.13054 0.0
C704 C 0.20359 0.38094 0.13527 0.0
C705 C 0.23903 0.42934 0.13366 0.0
C706 C 0.24457 0.46091 0.13036 0.0
C707 C 0.22829 0.47553 0.14654 0.0
C708 C 0.23298 0.50514 0.1428 0.0
C709 C 0.25436 0.5205 0.12332 0.0
C710 C 0.27107 0.50625 0.10751 0.0
C711 C 0.26625 0.47658 0.11099 0.0
H712 H 0.258 0.54344 0.12049 0.0
H713 H 0.20674 0.25746 0.17066 0.0
H714 H 0.61605 0.28748 0.86443 0.0
H715 H 0.6019 0.24446 0.89547 0.0
H716 H 0.60662 0.29736 0.96741 0.0
H717 H 0.61894 0.34051 0.93595 0.0
H718 H 0.63777 0.2419 0.97181 0.0
H719 H 0.54028 0.27478 0.95116 0.0
H720 H 0.50202 0.29147 0.91748 0.0
H721 H 0.48406 0.21393 0.87111 0.0
H722 H 0.5227 0.19703 0.90427 0.0
H723 H 0.55985 0.12684 0.06574 0.0
H724 H 0.58226 0.1725 0.04049 0.0
H725 H 0.5262 0.139 0.96378 0.0
H726 H 0.50187 0.0947 0.98982 0.0
H727 H 0.5228 0.18768 0.96348 0.0
H728 H 0.617 0.1528 0.9802 0.0
H729 H 0.6575 0.13421 1.00919 0.0
H730 H 0.68481 0.21118 0.05717 0.0
H731 H 0.6442 0.23009 0.02867 0.0
C732 C 0.61396 0.29 0.88682 0.0
C733 C 0.61805 0.31752 0.89751 0.0
C734 C 0.60618 0.26535 0.90465 0.0
C735 C 0.60307 0.2675 0.93387 0.0
C736 C 0.609 0.29504 0.945 0.0
C737 C 0.61619 0.31975 0.927 0.0
C738 C 0.59102 0.2409 0.95196 0.0
C739 C 0.61257 0.23017 0.97035 0.0
C740 C 0.55839 0.22498 0.94947 0.0
C741 C 0.53459 0.23479 0.93001 0.0
C742 C 0.52836 0.26141 0.93365 0.0
C743 C 0.50659 0.27089 0.91467 0.0
C744 C 0.49068 0.25381 0.89212 0.0
C745 C 0.49643 0.22716 0.88856 0.0
C746 C 0.51825 0.21761 0.90745 0.0
C747 C 0.55269 0.12921 0.04339 0.0
C748 C 0.52925 0.10704 0.02972 0.0
C749 C 0.56568 0.1554 0.02875 0.0
C750 C 0.55661 0.15969 0.99969 0.0
C751 C 0.53377 0.13694 0.98606 0.0
C752 C 0.51998 0.1113 1.00093 0.0
C753 C 0.56954 0.18787 0.98358 0.0
C754 C 0.54809 0.19908 0.96531 0.0
C755 C 0.60248 0.20377 0.98572 0.0
C756 C 0.62734 0.19272 1.00249 0.0
C757 C 0.63156 0.1657 0.99701 0.0
C758 C 0.65453 0.15512 1.01335 0.0
C759 C 0.67364 0.17147 0.03507 0.0
C760 C 0.66995 0.19852 0.04038 0.0
C761 C 0.64699 0.2092 0.02411 0.0
H762 H 0.69135 0.1632 0.04775 0.0
H763 H 0.47385 0.26119 0.87744 0.0
H764 H 0.87067 0.78314 0.33227 0.0
H765 H 0.89474 0.82927 0.3544 0.0
H766 H 0.96566 0.79358 0.40066 0.0
H767 H 0.94037 0.74703 0.37907 0.0
H768 H 0.94843 0.82146 0.43687 0.0
H769 H 0.97986 0.85302 0.34327 0.0
H770 H 0.97303 0.8605 0.29125 0.0
H771 H 0.90568 0.90947 0.30258 0.0
H772 H 0.9118 0.90198 0.35468 0.0
H773 H 0.04238 0.95376 0.49592 0.0
H774 H 0.02145 0.91084 0.46781 0.0
H775 H 0.94234 0.94342 0.43375 0.0
H776 H 0.96356 0.98693 0.46218 0.0
H777 H 0.96343 0.91803 0.39109 0.0
H778 H 0.93382 0.88655 0.48547 0.0
H779 H 0.94302 0.8799 0.53738 0.0
H780 H 1.00994 0.8311 0.52395 0.0
H781 H 1.00149 0.83781 0.47194 0.0
C782 C 0.89261 0.7855 0.34579 0.0
C783 C 0.90409 0.76103 0.35257 0.0
C784 C 0.90633 0.81218 0.35906 0.0
C785 C 0.93271 0.81606 0.37965 0.0
C786 C 0.94547 0.79207 0.38515 0.0
C787 C 0.93149 0.76529 0.372 0.0
C788 C 0.9454 0.84397 0.39661 0.0
C789 C 0.95214 0.84244 0.42645 0.0
C790 C 0.94982 0.87216 0.38414 0.0
C791 C 0.94605 0.87669 0.35286 0.0
C792 C 0.96342 0.86521 0.33466 0.0
C793 C 0.9597 0.86948 0.30516 0.0
C794 C 0.93887 0.88538 0.29362 0.0
C795 C 0.92177 0.89712 0.31155 0.0
C796 C 0.92537 0.89289 0.34107 0.0
C797 C 0.02039 0.95198 0.48259 0.0
C798 C 1.00487 0.97434 0.48179 0.0
C799 C 1.0082 0.92699 0.46638 0.0
C800 C 0.97973 0.92288 0.44837 0.0
C801 C 0.96423 0.94537 0.44723 0.0
C802 C 0.97638 0.97046 0.46376 0.0
C803 C 0.96661 0.89534 0.4311 0.0
C804 C 0.95975 0.89697 0.40133 0.0
C805 C 0.96235 0.86724 0.44357 0.0
C806 C 0.96723 0.86291 0.47481 0.0
C807 C 0.95065 0.87456 0.49359 0.0
C808 C 0.95572 0.87076 0.52303 0.0
C809 C 0.97711 0.85514 0.53396 0.0
C810 C 0.99341 0.84322 0.51546 0.0
C811 C 0.98847 0.84699 0.48599 0.0
H812 H 0.98101 0.85224 0.55676 0.0
H813 H 0.93603 0.88867 0.27078 0.0
H814 H 0.26485 0.7975 0.69482 0.0
H815 H 0.29033 0.76632 0.67095 0.0
H816 H 0.21111 0.69343 0.68917 0.0
H817 H 0.18575 0.72506 0.71331 0.0
H818 H 0.26999 0.68298 0.70318 0.0
H819 H 0.21834 0.71794 0.62211 0.0
H820 H 0.20146 0.75414 0.59052 0.0
H821 H 0.30012 0.79541 0.57603 0.0
H822 H 0.31766 0.75974 0.60791 0.0
H823 H 0.3521 0.60361 0.62498 0.0
H824 H 0.30931 0.62321 0.6397 0.0
H825 H 0.36978 0.70903 0.62792 0.0
H826 H 0.41199 0.68972 0.61226 0.0
H827 H 0.30959 0.70509 0.60646 0.0
H828 H 0.36061 0.67566 0.69425 0.0
H829 H 0.37812 0.64062 0.72705 0.0
H830 H 0.28044 0.58946 0.72904 0.0
H831 H 0.26241 0.62405 0.69596 0.0
C832 C 0.25289 0.77485 0.69335 0.0
C833 C 0.22354 0.76343 0.70561 0.0
C834 C 0.26725 0.7571 0.67969 0.0
C835 C 0.25241 0.7276 0.678 0.0
C836 C 0.22283 0.71616 0.69013 0.0
C837 C 0.20836 0.73407 0.70375 0.0
C838 C 0.26902 0.7089 0.66481 0.0
C839 C 0.27799 0.6873 0.68176 0.0
C840 C 0.27974 0.71481 0.637 0.0
C841 C 0.26932 0.7362 0.61753 0.0
C842 C 0.23646 0.73483 0.61233 0.0
C843 C 0.22677 0.75526 0.59436 0.0
C844 C 0.2497 0.77707 0.5813 0.0
C845 C 0.28238 0.77849 0.58615 0.0
C846 C 0.29221 0.75814 0.60414 0.0
C847 C 0.35613 0.62665 0.6253 0.0
C848 C 0.38557 0.64511 0.61768 0.0
C849 C 0.33175 0.6378 0.63389 0.0
C850 C 0.33646 0.66758 0.63512 0.0
C851 C 0.36562 0.68598 0.62714 0.0
C852 C 0.3899 0.6749 0.61852 0.0
C853 C 0.31154 0.67995 0.64522 0.0
C854 C 0.30097 0.70032 0.62763 0.0
C855 C 0.2994 0.67294 0.67244 0.0
C856 C 0.31023 0.65223 0.69238 0.0
C857 C 0.34291 0.65682 0.70151 0.0
C858 C 0.35292 0.63707 0.72018 0.0
C859 C 0.33042 0.61278 0.73005 0.0
C860 C 0.29785 0.60824 0.72133 0.0
C861 C 0.28772 0.62792 0.70264 0.0
H862 H 0.33822 0.59751 0.7445 0.0
H863 H 0.24215 0.79287 0.5674 0.0
H864 H 0.71178 0.8019 0.80929 0.0
H865 H 0.75265 0.81563 0.77375 0.0
H866 H 0.77579 0.90325 0.80058 0.0
H867 H 0.73508 0.88946 0.83552 0.0
H868 H 0.76316 0.89977 0.74429 0.0
H869 H 0.82565 0.86016 0.81692 0.0
H870 H 0.83711 0.82215 0.8495 0.0
H871 H 0.836 0.76973 0.77829 0.0
H872 H 0.82403 0.80726 0.74528 0.0
H873 H 0.90033 0.97449 0.6827 0.0
H874 H 0.86999 0.94696 0.72103 0.0
H875 H 0.84818 0.87068 0.67154 0.0
H876 H 0.87857 0.89825 0.63286 0.0
H877 H 0.85825 0.86251 0.73534 0.0
H878 H 0.79592 0.90265 0.66309 0.0
H879 H 0.786 0.94154 0.6309 0.0
H880 H 0.78697 0.99308 0.70278 0.0
H881 H 0.79751 0.95467 0.73539 0.0
C882 C 0.72592 0.82396 0.80748 0.0
C883 C 0.72013 0.84486 0.82439 0.0
C884 C 0.74923 0.83177 0.78743 0.0
C885 C 0.76712 0.86051 0.78447 0.0
C886 C 0.76205 0.88104 0.80231 0.0
C887 C 0.73879 0.87327 0.82209 0.0
C888 C 0.78954 0.87008 0.76161 0.0
C889 C 0.78403 0.89168 0.74253 0.0
C890 C 0.81622 0.8589 0.75874 0.0
C891 C 0.82356 0.8364 0.77862 0.0
C892 C 0.82754 0.84042 0.80821 0.0
C893 C 0.83418 0.81898 0.82676 0.0
C894 C 0.83717 0.7935 0.81597 0.0
C895 C 0.83362 0.78946 0.78661 0.0
C896 C 0.82692 0.81081 0.76797 0.0
C897 C 0.88959 0.95174 0.6802 0.0
C898 C 0.89124 0.93859 0.65464 0.0
C899 C 0.87251 0.93601 0.70217 0.0
C900 C 0.85663 0.90692 0.69891 0.0
C901 C 0.86042 0.89311 0.67443 0.0
C902 C 0.87766 0.90888 0.65236 0.0
C903 C 0.83219 0.89269 0.7189 0.0
C904 C 0.83717 0.87025 0.73714 0.0
C905 C 0.80486 0.90301 0.72118 0.0
C906 C 0.79775 0.92588 0.70166 0.0
C907 C 0.79423 0.92235 0.67202 0.0
C908 C 0.78849 0.9443 0.6537 0.0
C909 C 0.78592 0.96979 0.66478 0.0
C910 C 0.78899 0.97334 0.69422 0.0
C911 C 0.79483 0.95148 0.71264 0.0
H912 H 0.78149 0.98677 0.65057 0.0
H913 H 0.8423 0.77691 0.83031 0.0
H914 H 0.88889 0.31768 0.32346 0.0
H915 H 0.86633 0.28522 0.28383 0.0
H916 H 0.78869 0.24015 0.33484 0.0
H917 H 0.81203 0.2719 0.37432 0.0
H918 H 0.80442 0.20359 0.3036 0.0
H919 H 0.78321 0.29709 0.28731 0.0
H920 H 0.79927 0.34974 0.28081 0.0
H921 H 0.8513 0.34237 0.20882 0.0
H922 H 0.8358 0.28965 0.2151 0.0
H923 H 0.66889 0.15063 0.2119 0.0
H924 H 0.70794 0.17911 0.24638 0.0
H925 H 0.7738 0.20945 0.18055 0.0
H926 H 0.73416 0.18185 0.14548 0.0
H927 H 0.77288 0.25203 0.21505 0.0
H928 H 0.78454 0.15655 0.22767 0.0
H929 H 0.7659 0.10409 0.23487 0.0
H930 H 0.72972 0.11515 0.31466 0.0
H931 H 0.74774 0.16768 0.30777 0.0
C932 C 0.86745 0.30035 0.3261 0.0
C933 C 0.85183 0.29705 0.35145 0.0
C934 C 0.85449 0.28199 0.3036 0.0
C935 C 0.82543 0.26062 0.30618 0.0
C936 C 0.81105 0.25645 0.33229 0.0
C937 C 0.8242 0.27452 0.35475 0.0
C938 C 0.80816 0.24414 0.28133 0.0
C939 C 0.79758 0.21417 0.28422 0.0
C940 C 0.79968 0.25788 0.2558 0.0
C941 C 0.80866 0.2895 0.25185 0.0
C942 C 0.79821 0.30673 0.27019 0.0
C943 C 0.8072 0.33656 0.26654 0.0
C944 C 0.82638 0.3494 0.24448 0.0
C945 C 0.8365 0.3324 0.22594 0.0
C946 C 0.82762 0.30255 0.22951 0.0
C947 C 0.69138 0.16379 0.20455 0.0
C948 C 0.69839 0.16388 0.17589 0.0
C949 C 0.7139 0.17974 0.22441 0.0
C950 C 0.74408 0.19585 0.21615 0.0
C951 C 0.75079 0.19688 0.18741 0.0
C952 C 0.72817 0.181 0.16746 0.0
C953 C 0.76844 0.21158 0.23769 0.0
C954 C 0.78034 0.24137 0.23414 0.0
C955 C 0.77789 0.19769 0.26273 0.0
C956 C 0.76735 0.16607 0.26711 0.0
C957 C 0.77245 0.1478 0.24668 0.0
C958 C 0.76201 0.11805 0.25071 0.0
C959 C 0.7466 0.1063 0.27519 0.0
C960 C 0.74167 0.12428 0.29572 0.0
C961 C 0.75203 0.15405 0.29177 0.0
H962 H 0.73851 0.08326 0.27826 0.0
H963 H 0.83333 0.3725 0.2417 0.0
H964 H 0.36645 0.71543 0.30838 0.0
H965 H 0.38605 0.695 0.35277 0.0
H966 H 0.44607 0.65886 0.30488 0.0
H967 H 0.42722 0.68037 0.26099 0.0
H968 H 0.37593 0.64348 0.3689 0.0
H969 H 0.50511 0.6397 0.3459 0.0
H970 H 0.55212 0.66973 0.32247 0.0
H971 H 0.52065 0.74492 0.33513 0.0
H972 H 0.47374 0.71541 0.35902 0.0
H973 H 0.41849 0.53357 0.45603 0.0
H974 H 0.40738 0.56547 0.4169 0.0
H975 H 0.48344 0.63485 0.45186 0.0
H976 H 0.49528 0.60263 0.4905 0.0
H977 H 0.487 0.63823 0.39783 0.0
H978 H 0.3997 0.62957 0.45584 0.0
H979 H 0.35361 0.60497 0.48351 0.0
H980 H 0.30308 0.5646 0.40794 0.0
H981 H 0.34906 0.58867 0.37988 0.0
C982 C 0.38515 0.70445 0.30769 0.0
C983 C 0.39608 0.70033 0.28131 0.0
C984 C 0.39591 0.69217 0.33302 0.0
C985 C 0.41775 0.67513 0.33267 0.0
C986 C 0.42988 0.67228 0.30634 0.0
C987 C 0.41934 0.68485 0.28111 0.0
C988 C 0.4256 0.65852 0.35911 0.0
C989 C 0.40032 0.64252 0.37513 0.0
C990 C 0.45739 0.6573 0.36809 0.0
C991 C 0.48572 0.67527 0.35401 0.0
C992 C 0.50829 0.66265 0.3438 0.0
C993 C 0.53491 0.67959 0.33042 0.0
C994 C 0.53931 0.7092 0.32723 0.0
C995 C 0.51715 0.72196 0.33752 0.0
C996 C 0.49053 0.70514 0.35095 0.0
C997 C 0.43272 0.55568 0.45552 0.0
C998 C 0.45765 0.56548 0.47666 0.0
C999 C 0.42626 0.57406 0.43308 0.0
C1000 C 0.44419 0.603 0.43125 0.0
C1001 C 0.4691 0.61279 0.45246 0.0
C1002 C 0.47573 0.59432 0.4748 0.0
C1003 C 0.43725 0.62281 0.40714 0.0
C1004 C 0.46266 0.63932 0.39157 0.0
C1005 C 0.4057 0.6252 0.39906 0.0
C1006 C 0.37795 0.61072 0.41581 0.0
C1007 C 0.37885 0.61529 0.44516 0.0
C1008 C 0.35273 0.60146 0.46091 0.0
C1009 C 0.32546 0.58318 0.4475 0.0
C1010 C 0.32423 0.57874 0.4183 0.0
C1011 C 0.3503 0.59249 0.40246 0.0
H1012 H 0.30527 0.5725 0.45973 0.0
H1013 H 0.55991 0.72227 0.31684 0.0
H1014 H 0.1144 0.35836 0.81903 0.0
H1015 H 0.09712 0.38023 0.85892 0.0
H1016 H 0.08613 0.45094 0.80353 0.0
H1017 H 0.10431 0.42929 0.764 0.0
H1018 H 0.10712 0.47407 0.84982 0.0
H1019 H 0.01971 0.39049 0.83401 0.0
H1020 H 0.99336 0.33896 0.8287 0.0
H1021 H 0.02895 0.32138 0.91346 0.0
H1022 H 0.05587 0.37279 0.91914 0.0
H1023 H 0.01724 0.53199 0.94299 0.0
H1024 H 0.03495 0.50848 0.90487 0.0
H1025 H 0.05649 0.44564 0.96544 0.0
H1026 H 0.03861 0.46925 1.00389 0.0
H1027 H 0.03067 0.41814 0.91771 0.0
H1028 H 0.11673 0.50284 0.93323 0.0
H1029 H 0.14174 0.55467 0.93793 0.0
H1030 H 0.1066 0.57033 0.85249 0.0
H1031 H 0.08101 0.51861 0.84741 0.0
C1032 C 0.10783 0.37835 0.81517 0.0
C1033 C 0.11043 0.39154 0.78768 0.0
C1034 C 0.0977 0.39107 0.83827 0.0
C1035 C 0.08923 0.41753 0.83508 0.0
C1036 C 0.09214 0.43071 0.80751 0.0
C1037 C 0.1025 0.41812 0.78452 0.0
C1038 C 0.07815 0.43171 0.86007 0.0
C1039 C 0.08998 0.46158 0.86422 0.0
C1040 C 0.05624 0.4163 0.88018 0.0
C1041 C 0.04008 0.38543 0.87687 0.0
C1042 C 0.02209 0.3756 0.85144 0.0
C1043 C 1.00703 0.34642 0.84838 0.0
C1044 C 1.00956 0.3269 0.8707 0.0
C1045 C 0.02707 0.33652 0.89617 0.0
C1046 C 0.04221 0.36568 0.89933 0.0
C1047 C 0.02586 0.51325 0.94853 0.0
C1048 C 0.02636 0.50304 0.97724 0.0
C1049 C 0.0363 0.49966 0.92634 0.0
C1050 C 0.04785 0.47498 0.93147 0.0
C1051 C 0.048 0.46449 0.96012 0.0
C1052 C 0.03776 0.47825 0.98244 0.0
C1053 C 0.05948 0.4604 0.90719 0.0
C1054 C 0.04777 0.43052 0.90323 0.0
C1055 C 0.08129 0.47582 0.88709 0.0
C1056 C 0.0967 0.50689 0.89004 0.0
C1057 C 0.11415 0.51736 0.91551 0.0
C1058 C 0.12845 0.54671 0.91823 0.0
C1059 C 0.12569 0.56579 0.89555 0.0
C1060 C 0.10868 0.55553 0.87006 0.0
C1061 C 0.09429 0.5262 0.86724 0.0
H1062 H 0.13678 0.5885 0.8977 0.0
H1063 H 0.99788 0.30431 0.86829 0.0
H1064 H 0.67182 0.90005 0.87688 0.0
H1065 H 0.64266 0.92655 0.90267 0.0
H1066 H 0.56814 0.84866 0.91615 0.0
H1067 H 0.59744 0.82204 0.88964 0.0
H1068 H 0.54641 0.90213 0.90353 0.0
H1069 H 0.61765 0.86336 0.96675 0.0
H1070 H 0.6692 0.85252 0.98161 0.0
H1071 H 0.71651 0.94254 0.9837 0.0
H1072 H 0.66532 0.95391 0.96829 0.0
H1073 H 0.49441 0.96374 0.02126 0.0
H1074 H 0.5093 0.93229 0.98888 0.0
H1075 H 0.60075 0.99431 0.98002 0.0
H1076 H 0.58643 0.0255 1.01299 0.0
H1077 H 0.60895 0.94306 0.99166 0.0
H1078 H 0.53796 0.98178 0.92626 0.0
H1079 H 0.48652 0.99257 0.9107 0.0
H1080 H 0.43824 0.90272 0.913 0.0
H1081 H 0.48935 0.89141 0.92895 0.0
C1082 C 0.64873 0.88882 0.88458 0.0
C1083 C 0.63654 0.85921 0.88118 0.0
C1084 C 0.63221 0.90387 0.89939 0.0
C1085 C 0.60337 0.88949 0.91132 0.0
C1086 C 0.59029 0.86008 0.90689 0.0
C1087 C 0.60696 0.84495 0.89198 0.0
C1088 C 0.58931 0.90489 0.93095 0.0
C1089 C 0.55969 0.91074 0.92307 0.0
C1090 C 0.60695 0.91622 0.95622 0.0
C1091 C 0.63767 0.90948 0.96616 0.0
C1092 C 0.63908 0.88085 0.97019 0.0
C1093 C 0.66824 0.8746 0.97872 0.0
C1094 C 0.69612 0.89683 0.98355 0.0
C1095 C 0.69489 0.92534 0.97993 0.0
C1096 C 0.6658 0.9317 0.97132 0.0
C1097 C 0.51754 0.97086 1.01213 0.0
C1098 C 0.53934 0.99706 0.01979 0.0
C1099 C 0.52596 0.95287 0.99354 0.0
C1100 C 0.55607 0.961 0.98191 0.0
C1101 C 0.57742 0.98756 0.98885 0.0
C1102 C 0.56919 1.00539 1.00766 0.0
C1103 C 0.56638 0.94126 0.96393 0.0
C1104 C 0.59537 0.93438 0.97226 0.0
C1105 C 0.54803 0.929 0.9392 0.0
C1106 C 0.51743 0.93577 0.92908 0.0
C1107 C 0.51634 0.96433 0.92361 0.0
C1108 C 0.48725 0.97054 0.91471 0.0
C1109 C 0.45911 0.94835 0.91096 0.0
C1110 C 0.46004 0.91989 0.91597 0.0
C1111 C 0.48908 0.91357 0.92491 0.0
H1112 H 0.43659 0.9532 0.90413 0.0
H1113 H 0.71868 0.89195 0.99014 0.0
H1114 H 0.92778 0.30398 0.37655 0.0
H1115 H 0.95 0.26245 0.3863 0.0
H1116 H 0.87417 0.22574 0.44226 0.0
H1117 H 0.8528 0.26764 0.43295 0.0
H1118 H 0.92792 0.22098 0.4665 0.0
H1119 H 0.87521 0.20139 0.37445 0.0
H1120 H 0.86229 0.21212 0.32395 0.0
H1121 H 0.95963 0.21869 0.30531 0.0
H1122 H 0.97339 0.20864 0.3559 0.0
H1123 H 0.93694 0.07747 0.47474 0.0
H1124 H 0.91773 0.11736 0.45371 0.0
H1125 H 0.01469 0.16362 0.43694 0.0
H1126 H 0.03451 0.12385 0.45854 0.0
H1127 H 0.95244 0.16343 0.39108 0.0
H1128 H 1.00297 0.18798 0.48795 0.0
H1129 H 1.01133 0.17907 0.53958 0.0
H1130 H 0.90946 0.15951 0.54778 0.0
H1131 H 0.9006 0.1684 0.49613 0.0
C1132 C 0.91624 0.28701 0.39106 0.0
C1133 C 0.88923 0.28902 0.40459 0.0
C1134 C 0.92863 0.26324 0.39643 0.0
C1135 C 0.91364 0.24082 0.41488 0.0
C1136 C 0.88631 0.24282 0.42811 0.0
C1137 C 0.87421 0.26673 0.42299 0.0
C1138 C 0.92686 0.21568 0.42125 0.0
C1139 C 0.93297 0.20836 0.44989 0.0
C1140 C 0.93378 0.19922 0.39966 0.0
C1141 C 0.92543 0.20453 0.36906 0.0
C1142 C 0.89394 0.2053 0.35964 0.0
C1143 C 0.88645 0.21127 0.33099 0.0
C1144 C 0.91013 0.21614 0.31144 0.0
C1145 C 0.94133 0.21495 0.3205 0.0
C1146 C 0.94899 0.20912 0.34917 0.0
C1147 C 0.95424 0.09577 0.46601 0.0
C1148 C 0.98737 0.09752 0.46858 0.0
C1149 C 0.94313 0.11855 0.45397 0.0
C1150 C 0.96481 0.14337 0.4439 0.0
C1151 C 0.99762 0.1445 0.44451 0.0
C1152 C 1.00887 0.12178 0.45688 0.0
C1153 C 0.95343 0.16916 0.4362 0.0
C1154 C 0.94752 0.17638 0.40744 0.0
C1155 C 0.94591 0.18528 0.45758 0.0
C1156 C 0.95113 0.17852 0.48824 0.0
C1157 C 0.98236 0.1814 0.50073 0.0
C1158 C 0.98719 0.17649 0.53002 0.0
C1159 C 0.96091 0.16866 0.54696 0.0
C1160 C 0.92977 0.16557 0.53464 0.0
C1161 C 0.92485 0.17059 0.50539 0.0
H1162 H 0.9646 0.1651 0.56967 0.0
H1163 H 0.90427 0.22078 0.28927 0.0
H1164 H 0.27867 0.66288 0.2377 0.0
H1165 H 0.23136 0.63833 0.20739 0.0
H1166 H 0.28637 0.66108 0.1333 0.0
H1167 H 0.33393 0.68466 0.16377 0.0
H1168 H 0.22696 0.67437 0.12685 0.0
H1169 H 0.26832 0.59465 0.15551 0.0
H1170 H 0.28848 0.56188 0.1892 0.0
H1171 H 0.19766 0.53728 0.22711 0.0
H1172 H 0.17713 0.57036 0.19399 0.0
H1173 H 0.10547 0.59539 0.02956 0.0
H1174 H 0.15704 0.61201 0.05732 0.0
H1175 H 0.10988 0.58363 0.13492 0.0
H1176 H 0.05845 0.56677 0.10724 0.0
H1177 H 0.1674 0.57201 0.13797 0.0
H1178 H 0.12771 0.65439 0.11219 0.0
H1179 H 0.10753 0.68771 0.07913 0.0
H1180 H 0.19526 0.70746 0.0364 0.0
H1181 H 0.2158 0.67394 0.06899 0.0
C1182 C 0.28073 0.66214 0.21502 0.0
C1183 C 0.30993 0.67569 0.20306 0.0
C1184 C 0.25371 0.64822 0.19769 0.0
C1185 C 0.25527 0.64781 0.16802 0.0
C1186 C 0.28451 0.66117 0.15609 0.0
C1187 C 0.31163 0.67471 0.17346 0.0
C1188 C 0.22609 0.63444 0.14935 0.0
C1189 C 0.21424 0.65188 0.12899 0.0
C1190 C 0.20906 0.60522 0.15249 0.0
C1191 C 0.22132 0.5853 0.17249 0.0
C1192 C 0.25277 0.58255 0.17127 0.0
C1193 C 0.26426 0.56389 0.19025 0.0
C1194 C 0.24442 0.54763 0.21039 0.0
C1195 C 0.21303 0.54996 0.21155 0.0
C1196 C 0.20145 0.56867 0.19267 0.0
C1197 C 0.10617 0.59249 0.05252 0.0
C1198 C 0.07785 0.57991 0.0662 0.0
C1199 C 0.13566 0.60209 0.0684 0.0
C1200 C 0.1374 0.59951 0.09834 0.0
C1201 C 0.10928 0.58594 0.11191 0.0
C1202 C 0.07983 0.57632 0.09604 0.0
C1203 C 0.1681 0.61202 0.1156 0.0
C1204 C 0.18022 0.59446 0.13573 0.0
C1205 C 0.18538 0.64119 0.11235 0.0
C1206 C 0.17314 0.66143 0.09282 0.0
C1207 C 0.1426 0.66568 0.0956 0.0
C1208 C 0.13111 0.68462 0.07698 0.0
C1209 C 0.15006 0.69963 0.05563 0.0
C1210 C 0.18058 0.69578 0.05292 0.0
C1211 C 0.19217 0.67683 0.07147 0.0
H1212 H 0.14112 0.71429 0.04123 0.0
H1213 H 0.25332 0.53311 0.225 0.0
H1214 H 0.16168 0.42191 0.69199 0.0
H1215 H 0.20779 0.4436 0.66422 0.0
H1216 H 0.24747 0.3722 0.68762 0.0
H1217 H 0.20264 0.35217 0.71783 0.0
H1218 H 0.2949 0.41304 0.68764 0.0
H1219 H 0.21118 0.38982 0.61441 0.0
H1220 H 0.15876 0.38756 0.58855 0.0
H1221 H 0.18321 0.47947 0.58087 0.0
H1222 H 0.23565 0.48229 0.60702 0.0
H1223 H 0.40908 0.45121 0.57901 0.0
H1224 H 0.36122 0.42811 0.60444 0.0
H1225 H 0.34128 0.50992 0.61139 0.0
H1226 H 0.38981 0.53342 0.58641 0.0
H1227 H 0.28465 0.46309 0.59446 0.0
H1228 H 0.37226 0.48218 0.66749 0.0
H1229 H 0.42564 0.47933 0.68794 0.0
H1230 H 0.39328 0.38739 0.69019 0.0
H1231 H 0.33991 0.38967 0.66912 0.0
C1232 C 0.17994 0.41053 0.69081 0.0
C1233 C 0.17754 0.38466 0.70667 0.0
C1234 C 0.20654 0.42293 0.67458 0.0
C1235 C 0.23162 0.40958 0.67263 0.0
C1236 C 0.22888 0.38332 0.68812 0.0
C1237 C 0.20255 0.37127 0.70503 0.0
C1238 C 0.26098 0.42356 0.65565 0.0
C1239 C 0.29221 0.42351 0.66708 0.0
C1240 C 0.25872 0.43782 0.62862 0.0
C1241 C 0.22722 0.43626 0.61293 0.0
C1242 C 0.20529 0.40955 0.60738 0.0
C1243 C 0.17559 0.40817 0.59264 0.0
C1244 C 0.16763 0.43336 0.58314 0.0
C1245 C 0.1894 0.45998 0.58828 0.0
C1246 C 0.21912 0.46148 0.60304 0.0
C1247 C 0.39455 0.46445 0.58574 0.0
C1248 C 0.4037 0.49441 0.58033 0.0
C1249 C 0.36702 0.45108 0.6005 0.0
C1250 C 0.34719 0.46702 0.61015 0.0
C1251 C 0.35584 0.49688 0.6043 0.0
C1252 C 0.38381 0.51039 0.58997 0.0
C1253 C 0.31797 0.45254 0.62663 0.0
C1254 C 0.28695 0.45253 0.61505 0.0
C1255 C 0.32036 0.43745 0.65299 0.0
C1256 C 0.35215 0.4361 0.66647 0.0
C1257 C 0.37658 0.46134 0.67216 0.0
C1258 C 0.40685 0.45983 0.68385 0.0
C1259 C 0.4129 0.43319 0.69025 0.0
C1260 C 0.38862 0.40801 0.68512 0.0
C1261 C 0.35834 0.4094 0.67331 0.0
H1262 H 0.43636 0.43207 0.69925 0.0
H1263 H 0.14462 0.43224 0.57173 0.0
H1264 H 0.68483 0.7663 0.88275 0.0
H1265 H 0.72499 0.74202 0.90314 0.0
H1266 H 0.79961 0.82089 0.89485 0.0
H1267 H 0.7593 0.84516 0.87499 0.0
H1268 H 0.81752 0.77309 0.87866 0.0
H1269 H 0.77143 0.80251 0.95708 0.0
H1270 H 0.72682 0.80672 0.98463 0.0
H1271 H 0.69624 0.71512 0.99567 0.0
H1272 H 0.7403 0.71032 0.96766 0.0
H1273 H 0.93399 0.72318 0.96622 0.0
H1274 H 0.89818 0.75263 0.94832 0.0
H1275 H 0.81589 0.68056 0.95969 0.0
H1276 H 0.85145 0.65113 0.97765 0.0
H1277 H 0.80407 0.72849 0.97553 0.0
H1278 H 0.84781 0.69901 0.89452 0.0
H1279 H 0.89045 0.69452 0.86464 0.0
H1280 H 0.92453 0.78622 0.8573 0.0
H1281 H 0.88241 0.79125 0.88755 0.0
C1282 C 0.70989 0.77821 0.88512 0.0
C1283 C 0.7192 0.80736 0.87719 0.0
C1284 C 0.73272 0.76447 0.89677 0.0
C1285 C 0.76518 0.77978 0.90073 0.0
C1286 C 0.77468 0.80873 0.8919 0.0
C1287 C 0.75177 0.8225 0.88044 0.0
C1288 C 0.78896 0.76575 0.91499 0.0
C1289 C 0.81496 0.76374 0.90001 0.0
C1290 C 0.78517 0.75321 0.94268 0.0
C1291 C 0.75903 0.75604 0.96005 0.0
C1292 C 0.75507 0.78324 0.96521 0.0
C1293 C 0.72988 0.78574 0.98092 0.0
C1294 C 0.70868 0.7612 0.99185 0.0
C1295 C 0.71267 0.73411 0.98716 0.0
C1296 C 0.73776 0.73149 0.97138 0.0
C1297 C 0.90825 0.7137 0.96506 0.0
C1298 C 0.89556 0.6848 0.97326 0.0
C1299 C 0.88783 0.73052 0.95479 0.0
C1300 C 0.85438 0.71866 0.95223 0.0
C1301 C 0.84162 0.69017 0.96148 0.0
C1302 C 0.86199 0.6734 0.97187 0.0
C1303 C 0.83258 0.73545 0.93904 0.0
C1304 C 0.8069 0.73804 0.95426 0.0
C1305 C 0.83667 0.74852 0.91152 0.0
C1306 C 0.86225 0.7455 0.89364 0.0
C1307 C 0.86462 0.71821 0.8868 0.0
C1308 C 0.88866 0.71557 0.86975 0.0
C1309 C 0.91027 0.74007 0.85917 0.0
C1310 C 0.90786 0.76726 0.8656 0.0
C1311 C 0.88394 0.77002 0.88272 0.0
H1312 H 0.92882 0.73798 0.84593 0.0
H1313 H 0.68919 0.76317 1.00401 0.0
H1314 H 0.43529 0.74134 0.21363 0.0
H1315 H 0.46228 0.79028 0.19766 0.0
H1316 H 0.39863 0.82315 0.24433 0.0
H1317 H 0.37211 0.77409 0.26051 0.0
H1318 H 0.39789 0.84079 0.1874 0.0
H1319 H 0.47797 0.84005 0.26361 0.0
H1320 H 0.51783 0.82063 0.29251 0.0
H1321 H 0.57237 0.82496 0.21934 0.0
H1322 H 0.53256 0.844 0.18988 0.0
H1323 H 0.46785 0.98753 0.14484 0.0
H1324 H 0.44598 0.94253 0.17155 0.0
H1325 H 0.51774 0.90674 0.1404 0.0
H1326 H 0.54014 0.95181 0.11475 0.0
H1327 H 0.51388 0.89179 0.19274 0.0
H1328 H 0.43413 0.88861 0.11552 0.0
H1329 H 0.39464 0.90661 0.08453 0.0
H1330 H 0.33953 0.9073 0.15629 0.0
H1331 H 0.37902 0.88979 0.18783 0.0
C1332 C 0.42841 0.7592 0.22181 0.0
C1333 C 0.40218 0.7539 0.239 0.0
C1334 C 0.44345 0.78721 0.21227 0.0
C1335 C 0.43244 0.81067 0.2195 0.0
C1336 C 0.40766 0.8056 0.2383 0.0
C1337 C 0.39294 0.7776 0.24812 0.0
C1338 C 0.44486 0.83982 0.20559 0.0
C1339 C 0.4232 0.85218 0.18901 0.0
C1340 C 0.478 0.85447 0.20676 0.0
C1341 C 0.50211 0.84323 0.22448 0.0
C1342 C 0.49833 0.83666 0.25362 0.0
C1343 C 0.52094 0.82575 0.27012 0.0
C1344 C 0.54758 0.82151 0.25775 0.0
C1345 C 0.55171 0.82824 0.22888 0.0
C1346 C 0.52914 0.83912 0.21228 0.0
C1347 C 0.47875 0.96996 0.14356 0.0
C1348 C 0.50575 0.97333 0.12759 0.0
C1349 C 0.46619 0.94409 0.15882 0.0
C1350 C 0.4799 0.92073 0.15805 0.0
C1351 C 0.50662 0.92417 0.14172 0.0
C1352 C 0.51935 0.95003 0.12683 0.0
C1353 C 0.46695 0.89283 0.17428 0.0
C1354 C 0.48851 0.8806 0.19123 0.0
C1355 C 0.43376 0.87806 0.17307 0.0
C1356 C 0.40973 0.88819 0.1541 0.0
C1357 C 0.41371 0.89278 0.12473 0.0
C1358 C 0.39132 0.90288 0.10706 0.0
C1359 C 0.36464 0.90816 0.11845 0.0
C1360 C 0.36024 0.90326 0.14752 0.0
C1361 C 0.38262 0.89324 0.1653 0.0
H1362 H 0.34735 0.91599 0.10474 0.0
H1363 H 0.56505 0.81305 0.27056 0.0
H1364 H 0.07941 0.33378 0.68962 0.0
H1365 H 0.06446 0.29002 0.66156 0.0
H1366 H 0.14918 0.26706 0.6975 0.0
H1367 H 0.16341 0.3104 0.72622 0.0
H1368 H 0.13903 0.25336 0.64013 0.0
H1369 H 0.07412 0.23465 0.72037 0.0
H1370 H 0.03611 0.24406 0.75262 0.0
H1371 H 0.96447 0.23765 0.68298 0.0
H1372 H 1.00228 0.22872 0.65018 0.0
H1373 H 0.0862 0.10736 0.58903 0.0
H1374 H 0.10649 0.15083 0.61744 0.0
H1375 H 0.01591 0.17161 0.59983 0.0
H1376 H 0.99561 0.12807 0.57259 0.0
H1377 H 0.03133 0.18625 0.64942 0.0
H1378 H 0.09486 0.20774 0.56844 0.0
H1379 H 0.13223 0.20038 0.5344 0.0
H1380 H 0.20506 0.20331 0.60249 0.0
H1381 H 0.16794 0.21032 0.63701 0.0
C1382 C 0.09514 0.31965 0.69128 0.0
C1383 C 0.1233 0.32653 0.70976 0.0
C1384 C 0.08644 0.29428 0.67522 0.0
C1385 C 0.10542 0.27443 0.67696 0.0
C1386 C 0.13393 0.28162 0.69508 0.0
C1387 C 0.14242 0.30687 0.71142 0.0
C1388 C 0.09491 0.24601 0.66092 0.0
C1389 C 0.11558 0.2386 0.64255 0.0
C1390 C 0.06407 0.22633 0.66303 0.0
C1391 C 0.04114 0.23128 0.68276 0.0
C1392 C 0.05033 0.23544 0.71189 0.0
C1393 C 0.02882 0.24068 0.73027 0.0
C1394 C 0.99792 0.24151 0.71985 0.0
C1395 C 0.98844 0.23704 0.69102 0.0
C1396 C 1.0099 0.23188 0.67252 0.0
C1397 C 0.07059 0.12118 0.59118 0.0
C1398 C 0.03908 0.11383 0.57795 0.0
C1399 C 0.08236 0.1465 0.60741 0.0
C1400 C 0.06326 0.16574 0.61095 0.0
C1401 C 0.03172 0.15792 0.59796 0.0
C1402 C 0.02003 0.13276 0.58196 0.0
C1403 C 0.07522 0.19355 0.62811 0.0
C1404 C 0.0548 0.2009 0.64684 0.0
C1405 C 0.10612 0.21332 0.626 0.0
C1406 C 0.12851 0.20922 0.60534 0.0
C1407 C 0.11877 0.20662 0.57618 0.0
C1408 C 0.13991 0.20254 0.55679 0.0
C1409 C 0.17096 0.20129 0.56629 0.0
C1410 C 0.18097 0.20422 0.59518 0.0
C1411 C 0.1599 0.20826 0.61466 0.0
H1412 H 0.1873 0.19812 0.55125 0.0
H1413 H 0.98129 0.24557 0.73411 0.0
H1414 H 0.85001 0.40237 0.402 0.0
H1415 H 0.80758 0.42165 0.4188 0.0
H1416 H 0.76057 0.33766 0.45225 0.0
H1417 H 0.80284 0.31865 0.43539 0.0
H1418 H 0.72067 0.36132 0.4159 0.0
H1419 H 0.79592 0.38918 0.49696 0.0
H1420 H 0.84812 0.41312 0.52129 0.0
H1421 H 0.83939 0.49468 0.48692 0.0
H1422 H 0.78731 0.47117 0.46202 0.0
H1423 H 0.59637 0.38918 0.48791 0.0
H1424 H 0.64399 0.37541 0.47579 0.0
H1425 H 0.68965 0.46346 0.45299 0.0
H1426 H 0.64211 0.47744 0.46555 0.0
H1427 H 0.73152 0.44011 0.48257 0.0
H1428 H 0.65725 0.41368 0.40173 0.0
H1429 H 0.60548 0.39078 0.37608 0.0
H1430 H 0.61314 0.308 0.40766 0.0
H1431 H 0.66477 0.33044 0.43384 0.0
C1432 C 0.83095 0.38841 0.41359 0.0
C1433 C 0.82959 0.35926 0.41782 0.0
C1434 C 0.80681 0.39931 0.42312 0.0
C1435 C 0.78099 0.38105 0.43681 0.0
C1436 C 0.78031 0.35209 0.4418 0.0
C1437 C 0.80447 0.34131 0.43244 0.0
C1438 C 0.75328 0.39137 0.44385 0.0
C1439 C 0.72295 0.3783 0.43077 0.0
C1440 C 0.75656 0.41421 0.46242 0.0
C1441 C 0.78788 0.42837 0.47736 0.0
C1442 C 0.80527 0.41219 0.49435 0.0
C1443 C 0.83481 0.42569 0.5083 0.0
C1444 C 0.84711 0.45539 0.50559 0.0
C1445 C 0.82985 0.47167 0.48897 0.0
C1446 C 0.80031 0.45827 0.47495 0.0
C1447 C 0.61642 0.40556 0.48004 0.0
C1448 C 0.61541 0.43434 0.47743 0.0
C1449 C 0.64366 0.39768 0.47317 0.0
C1450 C 0.67024 0.41834 0.46308 0.0
C1451 C 0.66943 0.44716 0.46072 0.0
C1452 C 0.64227 0.4551 0.46785 0.0
C1453 C 0.69875 0.40972 0.45495 0.0
C1454 C 0.72923 0.42317 0.46767 0.0
C1455 C 0.69573 0.38738 0.43577 0.0
C1456 C 0.66475 0.37378 0.41995 0.0
C1457 C 0.64778 0.39061 0.40338 0.0
C1458 C 0.61848 0.37771 0.38872 0.0
C1459 C 0.60599 0.34796 0.39029 0.0
C1460 C 0.62283 0.33104 0.40648 0.0
C1461 C 0.65213 0.34384 0.42122 0.0
H1462 H 0.5833 0.33801 0.37893 0.0
H1463 H 0.86998 0.46581 0.51642 0.0
loop_
_geom_bond_atom_site_label_1
_geom_bond_atom_site_label_2
_geom_bond_distance
_geom_bond_site_symmetry_2
_ccdc_geom_bond_type
C0 N1 1.317 . S
C0 N2 1.348 . S
C0 C3 1.485 . S
N1 C0 1.317 . S
N1 N5 1.370 . S
N2 C0 1.348 . S
N2 C4 1.346 . S
C3 C0 1.485 . S
C3 H7 0.960 . S
C3 H8 0.961 . S
C3 H9 0.960 . S
C4 N2 1.346 . S
C4 N5 1.307 . S
C4 C6 1.486 . S
N5 N1 1.370 . S
N5 C4 1.307 . S
C6 C4 1.486 . S
C6 H10 0.960 . S
C6 H11 0.960 . S
C6 H12 0.959 . S
H7 C3 0.960 . S
H8 C3 0.961 . S
H9 C3 0.960 . S
H10 C6 0.960 . S
H11 C6 0.960 . S
H12 C6 0.959 . S
C13 N14 1.317 . S
C13 N15 1.348 . S
C13 C16 1.485 . S
N14 C13 1.317 . S
N14 N18 1.370 . S
N15 C13 1.348 . S
N15 C17 1.346 . S
C16 C13 1.485 . S
C16 H20 0.960 . S
C16 H21 0.961 . S
C16 H22 0.960 . S
C17 N15 1.346 . S
C17 N18 1.307 . S
C17 C19 1.486 . S
N18 N14 1.370 . S
N18 C17 1.307 . S
C19 C17 1.486 . S
C19 H23 0.960 . S
C19 H24 0.960 . S
C19 H25 0.959 . S
H20 C16 0.960 . S
H21 C16 0.961 . S
H22 C16 0.960 . S
H23 C19 0.960 . S
H24 C19 0.960 . S
H25 C19 0.959 . S
C26 N27 1.317 . S
C26 N28 1.348 . S
C26 C29 1.485 . S
N27 C26 1.317 . S
N27 N31 1.370 . S
N28 C26 1.348 . S
N28 C30 1.346 . S
C29 C26 1.485 . S
C29 H33 0.960 . S
C29 H34 0.961 . S
C29 H35 0.960 . S
C30 N28 1.346 . S
C30 N31 1.307 . S
C30 C32 1.486 . S
N31 N27 1.370 . S
N31 C30 1.307 . S
C32 C30 1.486 . S
C32 H36 0.960 . S
C32 H37 0.960 . S
C32 H38 0.959 . S
H33 C29 0.960 . S
H34 C29 0.961 . S
H35 C29 0.960 . S
H36 C32 0.960 . S
H37 C32 0.960 . S
H38 C32 0.959 . S
C39 N40 1.317 . S
C39 N41 1.348 . S
C39 C42 1.485 . S
N40 C39 1.317 . S
N40 N44 1.370 . S
N41 C39 1.348 . S
N41 C43 1.346 . S
C42 C39 1.485 . S
C42 H46 0.960 . S
C42 H47 0.961 . S
C42 H48 0.960 . S
C43 N41 1.346 . S
C43 N44 1.307 . S
C43 C45 1.486 . S
N44 N40 1.370 . S
N44 C43 1.307 . S
C45 C43 1.486 . S
C45 H49 0.960 . S
C45 H50 0.960 . S
C45 H51 0.959 . S
H46 C42 0.960 . S
H47 C42 0.961 . S
H48 C42 0.960 . S
H49 C45 0.960 . S
H50 C45 0.960 . S
H51 C45 0.959 . S
C52 N53 1.317 . S
C52 N54 1.348 . S
C52 C55 1.485 . S
N53 C52 1.317 . S
N53 N57 1.370 . S
N54 C52 1.348 . S
N54 C56 1.346 . S
C55 C52 1.485 . S
C55 H59 0.960 . S
C55 H60 0.961 . S
C55 H61 0.960 . S
C56 N54 1.346 . S
C56 N57 1.307 . S
C56 C58 1.486 . S
N57 N53 1.370 . S
N57 C56 1.307 . S
C58 C56 1.486 . S
C58 H62 0.960 . S
C58 H63 0.960 . S
C58 H64 0.959 . S
H59 C55 0.960 . S
H60 C55 0.961 . S
H61 C55 0.960 . S
H62 C58 0.960 . S
H63 C58 0.960 . S
H64 C58 0.959 . S
C65 N66 1.317 . S
C65 N67 1.348 . S
C65 C68 1.485 . S
N66 C65 1.317 . S
N66 N70 1.370 . S
N67 C65 1.348 . S
N67 C69 1.346 . S
C68 C65 1.485 . S
C68 H72 0.960 . S
C68 H73 0.961 . S
C68 H74 0.960 . S
C69 N67 1.346 . S
C69 N70 1.307 . S
C69 C71 1.486 . S
N70 N66 1.370 . S
N70 C69 1.307 . S
C71 C69 1.486 . S
C71 H75 0.960 . S
C71 H76 0.960 . S
C71 H77 0.959 . S
H72 C68 0.960 . S
H73 C68 0.961 . S
H74 C68 0.960 . S
H75 C71 0.960 . S
H76 C71 0.960 . S
H77 C71 0.959 . S
C78 N79 1.317 . S
C78 N80 1.348 . S
C78 C81 1.485 . S
N79 C78 1.317 . S
N79 N83 1.370 . S
N80 C78 1.348 . S
N80 C82 1.346 . S
C81 C78 1.485 . S
C81 H85 0.960 . S
C81 H86 0.961 . S
C81 H87 0.960 . S
C82 N80 1.346 . S
C82 N83 1.307 . S
C82 C84 1.486 . S
N83 N79 1.370 . S
N83 C82 1.307 . S
C84 C82 1.486 . S
C84 H88 0.960 . S
C84 H89 0.960 . S
C84 H90 0.959 . S
H85 C81 0.960 . S
H86 C81 0.961 . S
H87 C81 0.960 . S
H88 C84 0.960 . S
H89 C84 0.960 . S
H90 C84 0.959 . S
C91 N92 1.317 . S
C91 N93 1.348 . S
C91 C94 1.485 . S
N92 C91 1.317 . S
N92 N96 1.370 . S
N93 C91 1.348 . S
N93 C95 1.346 . S
C94 C91 1.485 . S
C94 H98 0.960 . S
C94 H99 0.961 . S
C94 H100 0.960 . S
C95 N93 1.346 . S
C95 N96 1.307 . S
C95 C97 1.486 . S
N96 N92 1.370 . S
N96 C95 1.307 . S
C97 C95 1.486 . S
C97 H101 0.960 . S
C97 H102 0.960 . S
C97 H103 0.959 . S
H98 C94 0.960 . S
H99 C94 0.961 . S
H100 C94 0.960 . S
H101 C97 0.960 . S
H102 C97 0.960 . S
H103 C97 0.959 . S
Tb104 C106 2.809 1_545 S
Tb104 O124 2.484 1_545 S
Tb104 O125 2.440 1_545 S
Tb104 O126 2.658 1_655 S
Tb104 O127 2.409 1_655 S
Tb104 O128 2.378 1_645 S
Tb104 O132 2.325 1_645 S
Tb104 O135 2.341 . S
Tb105 C115 2.809 . S
Tb105 O126 2.325 . S
Tb105 O129 2.341 1_545 S
Tb105 O130 2.484 . S
Tb105 O131 2.440 . S
Tb105 O132 2.658 1_545 S
Tb105 O133 2.409 1_545 S
Tb105 O134 2.378 . S
C106 Tb104 2.809 1_565 S
C106 C107 1.514 . S
C106 O124 1.248 . S
C106 O125 1.266 . S
C107 C106 1.514 . S
C107 C108 1.359 . S
C107 C112 1.348 . S
C108 C107 1.359 . S
C108 C109 1.380 . S
C108 H136 0.929 . S
C109 C108 1.380 . S
C109 C110 1.347 . S
C109 H137 0.931 . S
C110 C109 1.347 . S
C110 C111 1.369 . S
C111 C110 1.369 . S
C111 C112 1.408 . S
C111 H138 0.930 . S
C112 C107 1.348 . S
C112 C111 1.408 . S
C112 H139 0.930 . S
C113 O126 1.281 . S
C113 O127 1.254 . S
C114 O128 1.236 . S
C114 O129 1.266 . S
C115 Tb105 2.809 . S
C115 C116 1.514 . S
C115 O130 1.248 . S
C115 O131 1.266 . S
C116 C115 1.514 . S
C116 C117 1.359 . S
C116 C121 1.348 . S
C117 C116 1.359 . S
C117 C118 1.380 . S
C117 H140 0.929 . S
C118 C117 1.380 . S
C118 C119 1.347 . S
C118 H141 0.931 . S
C119 C118 1.347 . S
C119 C120 1.369 . S
C120 C119 1.369 . S
C120 C121 1.408 . S
C120 H142 0.930 . S
C121 C116 1.348 . S
C121 C120 1.408 . S
C121 H143 0.930 . S
C122 O132 1.281 . S
C122 O133 1.254 . S
C123 O134 1.236 . S
C123 O135 1.266 1_455 S
O124 Tb104 2.484 1_565 S
O124 C106 1.248 . S
O125 Tb104 2.440 1_565 S
O125 C106 1.266 . S
O126 Tb104 2.658 1_455 S
O126 Tb105 2.325 . S
O126 C113 1.281 . S
O127 Tb104 2.409 1_455 S
O127 C113 1.254 . S
O128 Tb104 2.378 1_465 S
O128 C114 1.236 . S
O129 Tb105 2.341 1_565 S
O129 C114 1.266 . S
O130 Tb105 2.484 . S
O130 C115 1.248 . S
O131 Tb105 2.440 . S
O131 C115 1.266 . S
O132 Tb104 2.325 1_465 S
O132 Tb105 2.658 1_565 S
O132 C122 1.281 . S
O133 Tb105 2.409 1_565 S
O133 C122 1.254 . S
O134 Tb105 2.378 . S
O134 C123 1.236 . S
O135 Tb104 2.341 . S
O135 C123 1.266 1_655 S
H136 C108 0.929 . S
H137 C109 0.931 . S
H138 C111 0.930 . S
H139 C112 0.930 . S
H140 C117 0.929 . S
H141 C118 0.931 . S
H142 C120 0.930 . S
H143 C121 0.930 . S
Tb144 C146 2.809 . S
Tb144 O164 2.484 . S
Tb144 O165 2.440 . S
Tb144 O166 2.658 1_545 S
Tb144 O167 2.409 1_545 S
Tb144 O168 2.378 . S
Tb144 O172 2.325 . S
Tb144 O175 2.341 . S
Tb145 C155 2.809 1_544 S
Tb145 O166 2.325 1_545 S
Tb145 O169 2.341 . S
Tb145 O170 2.484 1_545 S
Tb145 O171 2.440 1_554 S
Tb145 O172 2.658 . S
Tb145 O173 2.409 . S
Tb145 O174 2.378 . S
C146 Tb144 2.809 . S
C146 C147 1.514 . S
C146 O164 1.248 . S
C146 O165 1.266 . S
C147 C146 1.514 . S
C147 C148 1.359 . S
C147 C152 1.348 . S
C148 C147 1.359 . S
C148 C149 1.380 . S
C148 H176 0.929 . S
C149 C148 1.380 . S
C149 C150 1.347 . S
C149 H177 0.931 . S
C150 C149 1.347 . S
C150 C151 1.369 . S
C151 C150 1.369 . S
C151 C152 1.408 . S
C151 H178 0.930 . S
C152 C147 1.348 . S
C152 C151 1.408 . S
C152 H179 0.930 . S
C153 O166 1.281 . S
C153 O167 1.254 . S
C154 O168 1.236 . S
C154 O169 1.266 . S
C155 Tb145 2.809 1_566 S
C155 C156 1.514 . S
C155 O170 1.248 1_556 S
C155 O171 1.266 1_565 S
C156 C155 1.514 . S
C156 C157 1.359 . S
C156 C161 1.348 . S
C157 C156 1.359 . S
C157 C158 1.380 . S
C157 H180 0.929 . S
C158 C157 1.380 . S
C158 C159 1.347 . S
C158 H181 0.931 . S
C159 C158 1.347 . S
C159 C160 1.369 . S
C160 C159 1.369 . S
C160 C161 1.408 . S
C160 H182 0.930 . S
C161 C156 1.348 . S
C161 C160 1.408 . S
C161 H183 0.930 . S
C162 O172 1.281 . S
C162 O173 1.254 . S
C163 O174 1.236 1_565 S
C163 O175 1.266 1_565 S
O164 Tb144 2.484 . S
O164 C146 1.248 . S
O165 Tb144 2.440 . S
O165 C146 1.266 . S
O166 Tb144 2.658 1_565 S
O166 Tb145 2.325 1_565 S
O166 C153 1.281 . S
O167 Tb144 2.409 1_565 S
O167 C153 1.254 . S
O168 Tb144 2.378 . S
O168 C154 1.236 . S
O169 Tb145 2.341 . S
O169 C154 1.266 . S
O170 Tb145 2.484 1_565 S
O170 C155 1.248 1_554 S
O171 Tb145 2.440 1_556 S
O171 C155 1.266 1_545 S
O172 Tb144 2.325 . S
O172 Tb145 2.658 . S
O172 C162 1.281 . S
O173 Tb145 2.409 . S
O173 C162 1.254 . S
O174 Tb145 2.378 . S
O174 C163 1.236 1_545 S
O175 Tb144 2.341 . S
O175 C163 1.266 1_545 S
H176 C148 0.929 . S
H177 C149 0.931 . S
H178 C151 0.930 . S
H179 C152 0.930 . S
H180 C157 0.929 . S
H181 C158 0.931 . S
H182 C160 0.930 . S
H183 C161 0.930 . S
Tb184 C186 2.809 . S
Tb184 O204 2.484 . S
Tb184 O205 2.440 . S
Tb184 O206 2.658 . S
Tb184 O207 2.409 . S
Tb184 O208 2.378 . S
Tb184 O212 2.325 . S
Tb184 O215 2.341 . S
Tb185 C195 2.809 . S
Tb185 O206 2.325 . S
Tb185 O209 2.341 . S
Tb185 O210 2.484 . S
Tb185 O211 2.440 . S
Tb185 O212 2.658 . S
Tb185 O213 2.409 . S
Tb185 O214 2.378 . S
C186 Tb184 2.809 . S
C186 C187 1.514 . S
C186 O204 1.248 . S
C186 O205 1.266 . S
C187 C186 1.514 . S
C187 C188 1.359 . S
C187 C192 1.348 . S
C188 C187 1.359 . S
C188 C189 1.380 . S
C188 H216 0.929 . S
C189 C188 1.380 . S
C189 C190 1.347 . S
C189 H217 0.931 . S
C190 C189 1.347 . S
C190 C191 1.369 . S
C191 C190 1.369 . S
C191 C192 1.408 . S
C191 H218 0.930 . S
C192 C187 1.348 . S
C192 C191 1.408 . S
C192 H219 0.930 . S
C193 O206 1.281 . S
C193 O207 1.254 . S
C194 O208 1.236 . S
C194 O209 1.266 . S
C195 Tb185 2.809 . S
C195 C196 1.514 . S
C195 O210 1.248 . S
C195 O211 1.266 . S
C196 C195 1.514 . S
C196 C197 1.359 . S
C196 C201 1.348 . S
C197 C196 1.359 . S
C197 C198 1.380 . S
C197 H220 0.929 . S
C198 C197 1.380 . S
C198 C199 1.347 . S
C198 H221 0.931 . S
C199 C198 1.347 . S
C199 C200 1.369 . S
C200 C199 1.369 . S
C200 C201 1.408 . S
C200 H222 0.930 . S
C201 C196 1.348 . S
C201 C200 1.408 . S
C201 H223 0.930 . S
C202 O212 1.281 . S
C202 O213 1.254 . S
C203 O214 1.236 . S
C203 O215 1.266 . S
O204 Tb184 2.484 . S
O204 C186 1.248 . S
O205 Tb184 2.440 . S
O205 C186 1.266 . S
O206 Tb184 2.658 . S
O206 Tb185 2.325 . S
O206 C193 1.281 . S
O207 Tb184 2.409 . S
O207 C193 1.254 . S
O208 Tb184 2.378 . S
O208 C194 1.236 . S
O209 Tb185 2.341 . S
O209 C194 1.266 . S
O210 Tb185 2.484 . S
O210 C195 1.248 . S
O211 Tb185 2.440 . S
O211 C195 1.266 . S
O212 Tb184 2.325 . S
O212 Tb185 2.658 . S
O212 C202 1.281 . S
O213 Tb185 2.409 . S
O213 C202 1.254 . S
O214 Tb185 2.378 . S
O214 C203 1.236 . S
O215 Tb184 2.341 . S
O215 C203 1.266 . S
H216 C188 0.929 . S
H217 C189 0.931 . S
H218 C191 0.930 . S
H219 C192 0.930 . S
H220 C197 0.929 . S
H221 C198 0.931 . S
H222 C200 0.930 . S
H223 C201 0.930 . S
Tb224 C226 2.835 . S
Tb224 O244 2.517 . S
Tb224 O245 2.454 . S
Tb224 O246 2.639 1_656 S
Tb224 O247 2.388 1_656 S
Tb224 O248 2.393 1_556 S
Tb224 O252 2.337 . S
Tb224 O255 2.317 1_655 S
Tb225 C235 2.809 . S
Tb225 O246 2.325 . S
Tb225 O249 2.341 1_455 S
Tb225 O250 2.484 . S
Tb225 O251 2.440 . S
Tb225 O252 2.658 1_454 S
Tb225 O253 2.409 1_455 S
Tb225 O254 2.378 1_554 S
C226 Tb224 2.835 . S
C226 C227 1.514 . S
C226 O244 1.248 . S
C226 O245 1.266 . S
C227 C226 1.514 . S
C227 C228 1.359 . S
C227 C232 1.348 . S
C228 C227 1.359 . S
C228 C229 1.380 . S
C228 H256 0.929 . S
C229 C228 1.380 . S
C229 C230 1.347 . S
C229 H257 0.931 . S
C230 C229 1.347 . S
C230 C231 1.369 . S
C231 C230 1.369 . S
C231 C232 1.408 . S
C231 H258 0.930 . S
C232 C227 1.348 . S
C232 C231 1.408 . S
C232 H259 0.930 . S
C233 O246 1.281 . S
C233 O247 1.254 . S
C234 O248 1.236 . S
C234 O249 1.266 . S
C235 Tb225 2.809 . S
C235 C236 1.514 . S
C235 O250 1.248 . S
C235 O251 1.266 . S
C236 C235 1.514 . S
C236 C237 1.359 . S
C236 C241 1.348 . S
C237 C236 1.359 . S
C237 C238 1.380 . S
C237 H260 0.929 . S
C238 C237 1.380 . S
C238 C239 1.347 . S
C238 H261 0.931 . S
C239 C238 1.347 . S
C239 C240 1.369 . S
C240 C239 1.369 . S
C240 C241 1.408 . S
C240 H262 0.930 . S
C241 C236 1.348 . S
C241 C240 1.408 . S
C241 H263 0.930 . S
C242 O252 1.281 . S
C242 O253 1.254 1_556 S
C243 O254 1.236 . S
C243 O255 1.266 . S
O244 Tb224 2.517 . S
O244 C226 1.248 . S
O245 Tb224 2.454 . S
O245 C226 1.266 . S
O246 Tb224 2.639 1_454 S
O246 Tb225 2.325 . S
O246 C233 1.281 . S
O247 Tb224 2.388 1_454 S
O247 C233 1.254 . S
O248 Tb224 2.393 1_554 S
O248 C234 1.236 . S
O249 Tb225 2.341 1_655 S
O249 C234 1.266 . S
O250 Tb225 2.484 . S
O250 C235 1.248 . S
O251 Tb225 2.440 . S
O251 C235 1.266 . S
O252 Tb224 2.337 . S
O252 Tb225 2.658 1_656 S
O252 C242 1.281 . S
O253 Tb225 2.409 1_655 S
O253 C242 1.254 1_554 S
O254 Tb225 2.378 1_556 S
O254 C243 1.236 . S
O255 Tb224 2.317 1_455 S
O255 C243 1.266 . S
H256 C228 0.929 . S
H257 C229 0.931 . S
H258 C231 0.930 . S
H259 C232 0.930 . S
H260 C237 0.929 . S
H261 C238 0.931 . S
H262 C240 0.930 . S
H263 C241 0.930 . S
H264 C282 0.951 . S
H265 C284 0.951 . S
H266 C286 0.950 . S
H267 C287 0.950 . S
H268 C289 0.950 . S
H269 C292 0.950 . S
H270 C293 0.950 . S
H271 C295 0.950 . S
H272 C296 0.950 . S
H273 C297 0.951 . S
H274 C299 0.951 . S
H275 C301 0.950 . S
H276 C302 0.950 . S
H277 C304 0.950 . S
H278 C307 0.950 . S
H279 C308 0.950 . S
H280 C310 0.950 . S
H281 C311 0.950 . S
C282 H264 0.951 . S
C282 C283 1.366 . S
C282 C284 1.388 . S
C283 C282 1.366 . S
C283 C287 1.385 . S
C284 H265 0.951 . S
C284 C282 1.388 . S
C284 C285 1.366 . S
C285 C284 1.366 . S
C285 C286 1.414 . S
C285 C288 1.499 . S
C286 H266 0.950 . S
C286 C285 1.414 . S
C286 C287 1.374 . S
C287 H267 0.950 . S
C287 C283 1.385 . S
C287 C286 1.374 . S
C288 C285 1.499 . S
C288 C289 1.373 . S
C288 C290 1.389 . S
C289 H268 0.950 . S
C289 C288 1.373 . S
C289 C305 1.377 . S
C290 C288 1.389 . S
C290 C291 1.524 . S
C290 C304 1.377 . S
C291 C290 1.524 . S
C291 C292 1.397 . S
C291 C296 1.363 . S
C292 H269 0.950 . S
C292 C291 1.397 . S
C292 C293 1.334 . S
C293 H270 0.950 . S
C293 C292 1.334 . S
C293 C294 1.287 . S
C294 C293 1.287 . S
C294 C295 1.524 . S
C294 H313 0.913 . S
C295 H271 0.950 . S
C295 C294 1.524 . S
C295 C296 1.415 . S
C296 H272 0.950 . S
C296 C291 1.363 . S
C296 C295 1.415 . S
C297 H273 0.951 . S
C297 C298 1.366 . S
C297 C299 1.388 . S
C298 C297 1.366 . S
C298 C302 1.385 . S
C299 H274 0.951 . S
C299 C297 1.388 . S
C299 C300 1.366 . S
C300 C299 1.366 . S
C300 C301 1.414 . S
C300 C303 1.499 . S
C301 H275 0.950 . S
C301 C300 1.414 . S
C301 C302 1.374 . S
C302 H276 0.950 . S
C302 C298 1.385 . S
C302 C301 1.374 . S
C303 C300 1.499 . S
C303 C304 1.373 . S
C303 C305 1.389 . S
C304 H277 0.950 . S
C304 C290 1.377 . S
C304 C303 1.373 . S
C305 C289 1.377 . S
C305 C303 1.389 . S
C305 C306 1.524 . S
C306 C305 1.524 . S
C306 C307 1.397 . S
C306 C311 1.363 . S
C307 H278 0.950 . S
C307 C306 1.397 . S
C307 C308 1.334 . S
C308 H279 0.950 . S
C308 C307 1.334 . S
C308 C309 1.287 . S
C309 C308 1.287 . S
C309 C310 1.524 . S
C309 H312 0.999 . S
C310 H280 0.950 . S
C310 C309 1.524 . S
C310 C311 1.415 . S
C311 H281 0.950 . S
C311 C306 1.363 . S
C311 C310 1.415 . S
H312 C309 0.999 . S
H313 C294 0.913 . S
H314 C332 0.951 . S
H315 C334 0.951 . S
H316 C336 0.950 . S
H317 C337 0.950 . S
H318 C339 0.950 . S
H319 C342 0.950 . S
H320 C343 0.950 . S
H321 C345 0.950 . S
H322 C346 0.950 . S
H323 C347 0.951 . S
H324 C349 0.951 . S
H325 C351 0.950 . S
H326 C352 0.950 . S
H327 C354 0.950 . S
H328 C357 0.950 . S
H329 C358 0.950 . S
H330 C360 0.950 . S
H331 C361 0.950 . S
C332 H314 0.951 . S
C332 C333 1.366 . S
C332 C334 1.388 . S
C333 C332 1.366 . S
C333 C337 1.385 . S
C334 H315 0.951 . S
C334 C332 1.388 . S
C334 C335 1.366 . S
C335 C334 1.366 . S
C335 C336 1.414 . S
C335 C338 1.499 . S
C336 H316 0.950 . S
C336 C335 1.414 . S
C336 C337 1.374 . S
C337 H317 0.950 . S
C337 C333 1.385 . S
C337 C336 1.374 . S
C338 C335 1.499 . S
C338 C339 1.373 . S
C338 C340 1.389 . S
C339 H318 0.950 . S
C339 C338 1.373 . S
C339 C355 1.377 . S
C340 C338 1.389 . S
C340 C341 1.524 . S
C340 C354 1.377 . S
C341 C340 1.524 . S
C341 C342 1.397 . S
C341 C346 1.363 . S
C342 H319 0.950 . S
C342 C341 1.397 . S
C342 C343 1.334 . S
C343 H320 0.950 . S
C343 C342 1.334 . S
C343 C344 1.287 . S
C344 C343 1.287 . S
C344 C345 1.524 . S
C344 H363 0.913 . S
C345 H321 0.950 . S
C345 C344 1.524 . S
C345 C346 1.415 . S
C346 H322 0.950 . S
C346 C341 1.363 . S
C346 C345 1.415 . S
C347 H323 0.951 . S
C347 C348 1.366 . S
C347 C349 1.388 . S
C348 C347 1.366 . S
C348 C352 1.385 . S
C349 H324 0.951 . S
C349 C347 1.388 . S
C349 C350 1.366 . S
C350 C349 1.366 . S
C350 C351 1.414 . S
C350 C353 1.499 . S
C351 H325 0.950 . S
C351 C350 1.414 . S
C351 C352 1.374 . S
C352 H326 0.950 . S
C352 C348 1.385 . S
C352 C351 1.374 . S
C353 C350 1.499 . S
C353 C354 1.373 . S
C353 C355 1.389 . S
C354 H327 0.950 . S
C354 C340 1.377 . S
C354 C353 1.373 . S
C355 C339 1.377 . S
C355 C353 1.389 . S
C355 C356 1.524 . S
C356 C355 1.524 . S
C356 C357 1.397 . S
C356 C361 1.363 . S
C357 H328 0.950 . S
C357 C356 1.397 . S
C357 C358 1.334 . S
C358 H329 0.950 . S
C358 C357 1.334 . S
C358 C359 1.287 . S
C359 C358 1.287 . S
C359 C360 1.524 . S
C359 H362 0.999 . S
C360 H330 0.950 . S
C360 C359 1.524 . S
C360 C361 1.415 . S
C361 H331 0.950 . S
C361 C356 1.363 . S
C361 C360 1.415 . S
H362 C359 0.999 . S
H363 C344 0.913 . S
H364 C382 0.951 . S
H365 C384 0.951 . S
H366 C386 0.950 . S
H367 C387 0.950 . S
H368 C389 0.950 . S
H369 C392 0.950 . S
H370 C393 0.950 . S
H371 C395 0.950 . S
H372 C396 0.950 . S
H373 C397 0.951 . S
H374 C399 0.951 . S
H375 C401 0.950 . S
H376 C402 0.950 . S
H377 C404 0.950 . S
H378 C407 0.950 . S
H379 C408 0.950 . S
H380 C410 0.950 . S
H381 C411 0.950 . S
C382 H364 0.951 . S
C382 C383 1.366 . S
C382 C384 1.388 . S
C383 C382 1.366 . S
C383 C387 1.385 . S
C384 H365 0.951 . S
C384 C382 1.388 . S
C384 C385 1.366 . S
C385 C384 1.366 . S
C385 C386 1.414 . S
C385 C388 1.499 . S
C386 H366 0.950 . S
C386 C385 1.414 . S
C386 C387 1.374 . S
C387 H367 0.950 . S
C387 C383 1.385 . S
C387 C386 1.374 . S
C388 C385 1.499 . S
C388 C389 1.373 . S
C388 C390 1.389 . S
C389 H368 0.950 . S
C389 C388 1.373 . S
C389 C405 1.377 . S
C390 C388 1.389 . S
C390 C391 1.524 . S
C390 C404 1.377 . S
C391 C390 1.524 . S
C391 C392 1.397 . S
C391 C396 1.363 . S
C392 H369 0.950 . S
C392 C391 1.397 . S
C392 C393 1.334 . S
C393 H370 0.950 . S
C393 C392 1.334 . S
C393 C394 1.287 . S
C394 C393 1.287 . S
C394 C395 1.524 . S
C394 H413 0.913 . S
C395 H371 0.950 . S
C395 C394 1.524 . S
C395 C396 1.415 . S
C396 H372 0.950 . S
C396 C391 1.363 . S
C396 C395 1.415 . S
C397 H373 0.951 . S
C397 C398 1.366 . S
C397 C399 1.388 . S
C398 C397 1.366 . S
C398 C402 1.385 . S
C399 H374 0.951 . S
C399 C397 1.388 . S
C399 C400 1.366 . S
C400 C399 1.366 . S
C400 C401 1.414 . S
C400 C403 1.499 . S
C401 H375 0.950 . S
C401 C400 1.414 . S
C401 C402 1.374 . S
C402 H376 0.950 . S
C402 C398 1.385 . S
C402 C401 1.374 . S
C403 C400 1.499 . S
C403 C404 1.373 . S
C403 C405 1.389 . S
C404 H377 0.950 . S
C404 C390 1.377 . S
C404 C403 1.373 . S
C405 C389 1.377 . S
C405 C403 1.389 . S
C405 C406 1.524 . S
C406 C405 1.524 . S
C406 C407 1.397 . S
C406 C411 1.363 . S
C407 H378 0.950 . S
C407 C406 1.397 . S
C407 C408 1.334 . S
C408 H379 0.950 . S
C408 C407 1.334 . S
C408 C409 1.287 . S
C409 C408 1.287 . S
C409 C410 1.524 . S
C409 H412 0.999 . S
C410 H380 0.950 . S
C410 C409 1.524 . S
C410 C411 1.415 . S
C411 H381 0.950 . S
C411 C406 1.363 . S
C411 C410 1.415 . S
H412 C409 0.999 . S
H413 C394 0.913 . S
H414 C432 0.951 . S
H415 C434 0.951 . S
H416 C436 0.950 . S
H417 C437 0.950 . S
H418 C439 0.950 . S
H419 C442 0.950 . S
H420 C443 0.950 . S
H421 C445 0.950 . S
H422 C446 0.950 . S
H423 C447 0.951 . S
H424 C449 0.951 . S
H425 C451 0.950 . S
H426 C452 0.950 . S
H427 C454 0.950 . S
H428 C457 0.950 . S
H429 C458 0.950 . S
H430 C460 0.950 . S
H431 C461 0.950 . S
C432 H414 0.951 . S
C432 C433 1.366 . S
C432 C434 1.388 . S
C433 C432 1.366 . S
C433 C437 1.385 . S
C434 H415 0.951 . S
C434 C432 1.388 . S
C434 C435 1.366 . S
C435 C434 1.366 . S
C435 C436 1.414 . S
C435 C438 1.499 . S
C436 H416 0.950 . S
C436 C435 1.414 . S
C436 C437 1.374 . S
C437 H417 0.950 . S
C437 C433 1.385 . S
C437 C436 1.374 . S
C438 C435 1.499 . S
C438 C439 1.373 . S
C438 C440 1.389 . S
C439 H418 0.950 . S
C439 C438 1.373 . S
C439 C455 1.377 . S
C440 C438 1.389 . S
C440 C441 1.524 . S
C440 C454 1.377 . S
C441 C440 1.524 . S
C441 C442 1.397 . S
C441 C446 1.363 . S
C442 H419 0.950 . S
C442 C441 1.397 . S
C442 C443 1.334 . S
C443 H420 0.950 . S
C443 C442 1.334 . S
C443 C444 1.287 . S
C444 C443 1.287 . S
C444 C445 1.524 . S
C444 H463 0.913 . S
C445 H421 0.950 . S
C445 C444 1.524 . S
C445 C446 1.415 . S
C446 H422 0.950 . S
C446 C441 1.363 . S
C446 C445 1.415 . S
C447 H423 0.951 . S
C447 C448 1.366 . S
C447 C449 1.388 . S
C448 C447 1.366 . S
C448 C452 1.385 . S
C449 H424 0.951 . S
C449 C447 1.388 . S
C449 C450 1.366 . S
C450 C449 1.366 . S
C450 C451 1.414 . S
C450 C453 1.499 . S
C451 H425 0.950 . S
C451 C450 1.414 . S
C451 C452 1.374 . S
C452 H426 0.950 . S
C452 C448 1.385 . S
C452 C451 1.374 . S
C453 C450 1.499 . S
C453 C454 1.373 . S
C453 C455 1.389 . S
C454 H427 0.950 . S
C454 C440 1.377 . S
C454 C453 1.373 . S
C455 C439 1.377 . S
C455 C453 1.389 . S
C455 C456 1.524 . S
C456 C455 1.524 . S
C456 C457 1.397 . S
C456 C461 1.363 . S
C457 H428 0.950 . S
C457 C456 1.397 . S
C457 C458 1.334 . S
C458 H429 0.950 . S
C458 C457 1.334 . S
C458 C459 1.287 . S
C459 C458 1.287 . S
C459 C460 1.524 . S
C459 H462 0.999 . S
C460 H430 0.950 . S
C460 C459 1.524 . S
C460 C461 1.415 . S
C461 H431 0.950 . S
C461 C456 1.363 . S
C461 C460 1.415 . S
H462 C459 0.999 . S
H463 C444 0.913 . S
H464 C482 0.951 . S
H465 C484 0.951 . S
H466 C486 0.950 . S
H467 C487 0.950 . S
H468 C489 0.950 . S
H469 C492 0.950 . S
H470 C493 0.950 . S
H471 C495 0.950 . S
H472 C496 0.950 . S
H473 C497 0.951 . S
H474 C499 0.951 . S
H475 C501 0.950 . S
H476 C502 0.950 . S
H477 C504 0.950 . S
H478 C507 0.950 . S
H479 C508 0.950 . S
H480 C510 0.950 . S
H481 C511 0.950 . S
C482 H464 0.951 . S
C482 C483 1.366 . S
C482 C484 1.388 . S
C483 C482 1.366 . S
C483 C487 1.385 . S
C484 H465 0.951 . S
C484 C482 1.388 . S
C484 C485 1.366 . S
C485 C484 1.366 . S
C485 C486 1.414 . S
C485 C488 1.499 . S
C486 H466 0.950 . S
C486 C485 1.414 . S
C486 C487 1.374 . S
C487 H467 0.950 . S
C487 C483 1.385 . S
C487 C486 1.374 . S
C488 C485 1.499 . S
C488 C489 1.373 . S
C488 C490 1.389 . S
C489 H468 0.950 . S
C489 C488 1.373 . S
C489 C505 1.377 . S
C490 C488 1.389 . S
C490 C491 1.524 . S
C490 C504 1.377 . S
C491 C490 1.524 . S
C491 C492 1.397 . S
C491 C496 1.363 . S
C492 H469 0.950 . S
C492 C491 1.397 . S
C492 C493 1.334 . S
C493 H470 0.950 . S
C493 C492 1.334 . S
C493 C494 1.287 . S
C494 C493 1.287 . S
C494 C495 1.524 . S
C494 H513 0.913 . S
C495 H471 0.950 . S
C495 C494 1.524 . S
C495 C496 1.415 . S
C496 H472 0.950 . S
C496 C491 1.363 . S
C496 C495 1.415 . S
C497 H473 0.951 . S
C497 C498 1.366 . S
C497 C499 1.388 . S
C498 C497 1.366 . S
C498 C502 1.385 . S
C499 H474 0.951 . S
C499 C497 1.388 . S
C499 C500 1.366 . S
C500 C499 1.366 . S
C500 C501 1.414 . S
C500 C503 1.499 . S
C501 H475 0.950 . S
C501 C500 1.414 . S
C501 C502 1.374 . S
C502 H476 0.950 . S
C502 C498 1.385 . S
C502 C501 1.374 . S
C503 C500 1.499 . S
C503 C504 1.373 . S
C503 C505 1.389 . S
C504 H477 0.950 . S
C504 C490 1.377 . S
C504 C503 1.373 . S
C505 C489 1.377 . S
C505 C503 1.389 . S
C505 C506 1.524 . S
C506 C505 1.524 . S
C506 C507 1.397 . S
C506 C511 1.363 . S
C507 H478 0.950 . S
C507 C506 1.397 . S
C507 C508 1.334 . S
C508 H479 0.950 . S
C508 C507 1.334 . S
C508 C509 1.287 . S
C509 C508 1.287 . S
C509 C510 1.524 . S
C509 H512 0.999 . S
C510 H480 0.950 . S
C510 C509 1.524 . S
C510 C511 1.415 . S
C511 H481 0.950 . S
C511 C506 1.363 . S
C511 C510 1.415 . S
H512 C509 0.999 . S
H513 C494 0.913 . S
H514 C532 0.951 . S
H515 C534 0.951 . S
H516 C536 0.950 . S
H517 C537 0.950 . S
H518 C539 0.950 . S
H519 C542 0.950 . S
H520 C543 0.950 . S
H521 C545 0.950 . S
H522 C546 0.950 . S
H523 C547 0.951 . S
H524 C549 0.951 . S
H525 C551 0.950 . S
H526 C552 0.950 . S
H527 C554 0.950 . S
H528 C557 0.950 . S
H529 C558 0.950 . S
H530 C560 0.950 . S
H531 C561 0.950 . S
C532 H514 0.951 . S
C532 C533 1.366 . S
C532 C534 1.388 . S
C533 C532 1.366 . S
C533 C537 1.385 . S
C534 H515 0.951 . S
C534 C532 1.388 . S
C534 C535 1.366 . S
C535 C534 1.366 . S
C535 C536 1.414 . S
C535 C538 1.499 . S
C536 H516 0.950 . S
C536 C535 1.414 . S
C536 C537 1.374 . S
C537 H517 0.950 . S
C537 C533 1.385 . S
C537 C536 1.374 . S
C538 C535 1.499 . S
C538 C539 1.373 . S
C538 C540 1.389 . S
C539 H518 0.950 . S
C539 C538 1.373 . S
C539 C555 1.377 . S
C540 C538 1.389 . S
C540 C541 1.524 . S
C540 C554 1.377 . S
C541 C540 1.524 . S
C541 C542 1.397 . S
C541 C546 1.363 . S
C542 H519 0.950 . S
C542 C541 1.397 . S
C542 C543 1.334 . S
C543 H520 0.950 . S
C543 C542 1.334 . S
C543 C544 1.287 . S
C544 C543 1.287 . S
C544 C545 1.524 . S
C544 H563 0.913 . S
C545 H521 0.950 . S
C545 C544 1.524 . S
C545 C546 1.415 . S
C546 H522 0.950 . S
C546 C541 1.363 . S
C546 C545 1.415 . S
C547 H523 0.951 . S
C547 C548 1.366 . S
C547 C549 1.388 . S
C548 C547 1.366 . S
C548 C552 1.385 . S
C549 H524 0.951 . S
C549 C547 1.388 . S
C549 C550 1.366 . S
C550 C549 1.366 . S
C550 C551 1.414 . S
C550 C553 1.499 . S
C551 H525 0.950 . S
C551 C550 1.414 . S
C551 C552 1.374 . S
C552 H526 0.950 . S
C552 C548 1.385 . S
C552 C551 1.374 . S
C553 C550 1.499 . S
C553 C554 1.373 . S
C553 C555 1.389 . S
C554 H527 0.950 . S
C554 C540 1.377 . S
C554 C553 1.373 . S
C555 C539 1.377 . S
C555 C553 1.389 . S
C555 C556 1.524 . S
C556 C555 1.524 . S
C556 C557 1.397 . S
C556 C561 1.363 . S
C557 H528 0.950 . S
C557 C556 1.397 . S
C557 C558 1.334 . S
C558 H529 0.950 . S
C558 C557 1.334 . S
C558 C559 1.287 . S
C559 C558 1.287 . S
C559 C560 1.524 . S
C559 H562 0.999 . S
C560 H530 0.950 . S
C560 C559 1.524 . S
C560 C561 1.415 . S
C561 H531 0.950 . S
C561 C556 1.363 . S
C561 C560 1.415 . S
H562 C559 0.999 . S
H563 C544 0.913 . S
H564 C582 0.951 . S
H565 C584 0.951 . S
H566 C586 0.950 . S
H567 C587 0.950 . S
H568 C589 0.950 . S
H569 C592 0.950 . S
H570 C593 0.950 . S
H571 C595 0.950 . S
H572 C596 0.950 . S
H573 C597 0.951 . S
H574 C599 0.951 . S
H575 C601 0.950 . S
H576 C602 0.950 . S
H577 C604 0.950 . S
H578 C607 0.950 . S
H579 C608 0.950 . S
H580 C610 0.950 . S
H581 C611 0.950 . S
C582 H564 0.951 . S
C582 C583 1.366 . S
C582 C584 1.388 . S
C583 C582 1.366 . S
C583 C587 1.385 . S
C584 H565 0.951 . S
C584 C582 1.388 . S
C584 C585 1.366 . S
C585 C584 1.366 . S
C585 C586 1.414 . S
C585 C588 1.499 . S
C586 H566 0.950 . S
C586 C585 1.414 . S
C586 C587 1.374 . S
C587 H567 0.950 . S
C587 C583 1.385 . S
C587 C586 1.374 . S
C588 C585 1.499 . S
C588 C589 1.373 . S
C588 C590 1.389 . S
C589 H568 0.950 . S
C589 C588 1.373 . S
C589 C605 1.377 . S
C590 C588 1.389 . S
C590 C591 1.524 . S
C590 C604 1.377 . S
C591 C590 1.524 . S
C591 C592 1.397 . S
C591 C596 1.363 . S
C592 H569 0.950 . S
C592 C591 1.397 . S
C592 C593 1.334 . S
C593 H570 0.950 . S
C593 C592 1.334 . S
C593 C594 1.287 . S
C594 C593 1.287 . S
C594 C595 1.524 . S
C594 H613 0.913 . S
C595 H571 0.950 . S
C595 C594 1.524 . S
C595 C596 1.415 . S
C596 H572 0.950 . S
C596 C591 1.363 . S
C596 C595 1.415 . S
C597 H573 0.951 . S
C597 C598 1.366 . S
C597 C599 1.388 . S
C598 C597 1.366 . S
C598 C602 1.385 . S
C599 H574 0.951 . S
C599 C597 1.388 . S
C599 C600 1.366 . S
C600 C599 1.366 . S
C600 C601 1.414 . S
C600 C603 1.499 . S
C601 H575 0.950 . S
C601 C600 1.414 . S
C601 C602 1.374 . S
C602 H576 0.950 . S
C602 C598 1.385 . S
C602 C601 1.374 . S
C603 C600 1.499 . S
C603 C604 1.373 . S
C603 C605 1.389 . S
C604 H577 0.950 . S
C604 C590 1.377 . S
C604 C603 1.373 . S
C605 C589 1.377 . S
C605 C603 1.389 . S
C605 C606 1.524 . S
C606 C605 1.524 . S
C606 C607 1.397 . S
C606 C611 1.363 . S
C607 H578 0.950 . S
C607 C606 1.397 . S
C607 C608 1.334 1_556 S
C608 H579 0.950 . S
C608 C607 1.334 1_554 S
C608 C609 1.287 . S
C609 C608 1.287 . S
C609 C610 1.524 1_554 S
C609 H612 0.999 . S
C610 H580 0.950 . S
C610 C609 1.524 1_556 S
C610 C611 1.415 . S
C611 H581 0.950 . S
C611 C606 1.363 . S
C611 C610 1.415 . S
H612 C609 0.999 . S
H613 C594 0.913 . S
H614 C632 0.951 . S
H615 C634 0.951 . S
H616 C636 0.950 . S
H617 C637 0.950 . S
H618 C639 0.950 . S
H619 C642 0.950 . S
H620 C643 0.950 . S
H621 C645 0.950 . S
H622 C646 0.950 . S
H623 C647 0.951 . S
H624 C649 0.951 . S
H625 C651 0.950 . S
H626 C652 0.950 . S
H627 C654 0.950 . S
H628 C657 0.950 . S
H629 C658 0.950 . S
H630 C660 0.950 . S
H631 C661 0.950 . S
C632 H614 0.951 . S
C632 C633 1.366 . S
C632 C634 1.388 . S
C633 C632 1.366 . S
C633 C637 1.385 . S
C634 H615 0.951 . S
C634 C632 1.388 . S
C634 C635 1.366 . S
C635 C634 1.366 . S
C635 C636 1.414 . S
C635 C638 1.499 . S
C636 H616 0.950 . S
C636 C635 1.414 . S
C636 C637 1.374 . S
C637 H617 0.950 . S
C637 C633 1.385 . S
C637 C636 1.374 . S
C638 C635 1.499 . S
C638 C639 1.373 . S
C638 C640 1.389 . S
C639 H618 0.950 . S
C639 C638 1.373 . S
C639 C655 1.377 . S
C640 C638 1.389 . S
C640 C641 1.524 . S
C640 C654 1.377 . S
C641 C640 1.524 . S
C641 C642 1.397 . S
C641 C646 1.363 . S
C642 H619 0.950 . S
C642 C641 1.397 . S
C642 C643 1.334 . S
C643 H620 0.950 . S
C643 C642 1.334 . S
C643 C644 1.287 . S
C644 C643 1.287 . S
C644 C645 1.524 . S
C644 H663 0.913 . S
C645 H621 0.950 . S
C645 C644 1.524 . S
C645 C646 1.415 . S
C646 H622 0.950 . S
C646 C641 1.363 . S
C646 C645 1.415 . S
C647 H623 0.951 . S
C647 C648 1.366 . S
C647 C649 1.388 . S
C648 C647 1.366 . S
C648 C652 1.385 . S
C649 H624 0.951 . S
C649 C647 1.388 . S
C649 C650 1.366 . S
C650 C649 1.366 . S
C650 C651 1.414 . S
C650 C653 1.499 . S
C651 H625 0.950 . S
C651 C650 1.414 . S
C651 C652 1.374 . S
C652 H626 0.950 . S
C652 C648 1.385 . S
C652 C651 1.374 . S
C653 C650 1.499 . S
C653 C654 1.373 . S
C653 C655 1.389 . S
C654 H627 0.950 . S
C654 C640 1.377 . S
C654 C653 1.373 . S
C655 C639 1.377 . S
C655 C653 1.389 . S
C655 C656 1.524 . S
C656 C655 1.524 . S
C656 C657 1.397 . S
C656 C661 1.363 . S
C657 H628 0.950 . S
C657 C656 1.397 . S
C657 C658 1.334 . S
C658 H629 0.950 . S
C658 C657 1.334 . S
C658 C659 1.287 . S
C659 C658 1.287 . S
C659 C660 1.524 . S
C659 H662 0.999 . S
C660 H630 0.950 . S
C660 C659 1.524 . S
C660 C661 1.415 . S
C661 H631 0.950 . S
C661 C656 1.363 . S
C661 C660 1.415 . S
H662 C659 0.999 . S
H663 C644 0.913 . S
H664 C682 0.951 . S
H665 C684 0.951 . S
H666 C686 0.950 . S
H667 C687 0.950 . S
H668 C689 0.950 . S
H669 C692 0.950 . S
H670 C693 0.950 . S
H671 C695 0.950 . S
H672 C696 0.950 . S
H673 C697 0.951 . S
H674 C699 0.951 . S
H675 C701 0.950 . S
H676 C702 0.950 . S
H677 C704 0.950 . S
H678 C707 0.950 . S
H679 C708 0.950 . S
H680 C710 0.950 . S
H681 C711 0.950 . S
C682 H664 0.951 . S
C682 C683 1.366 . S
C682 C684 1.388 . S
C683 C682 1.366 . S
C683 C687 1.385 . S
C684 H665 0.951 . S
C684 C682 1.388 . S
C684 C685 1.366 . S
C685 C684 1.366 . S
C685 C686 1.414 . S
C685 C688 1.499 . S
C686 H666 0.950 . S
C686 C685 1.414 . S
C686 C687 1.374 . S
C687 H667 0.950 . S
C687 C683 1.385 . S
C687 C686 1.374 . S
C688 C685 1.499 . S
C688 C689 1.373 . S
C688 C690 1.389 . S
C689 H668 0.950 . S
C689 C688 1.373 . S
C689 C705 1.377 . S
C690 C688 1.389 . S
C690 C691 1.524 . S
C690 C704 1.377 . S
C691 C690 1.524 . S
C691 C692 1.397 . S
C691 C696 1.363 . S
C692 H669 0.950 . S
C692 C691 1.397 . S
C692 C693 1.334 . S
C693 H670 0.950 . S
C693 C692 1.334 . S
C693 C694 1.287 . S
C694 C693 1.287 . S
C694 C695 1.524 . S
C694 H713 0.913 . S
C695 H671 0.950 . S
C695 C694 1.524 . S
C695 C696 1.415 . S
C696 H672 0.950 . S
C696 C691 1.363 . S
C696 C695 1.415 . S
C697 H673 0.951 . S
C697 C698 1.366 . S
C697 C699 1.388 . S
C698 C697 1.366 . S
C698 C702 1.385 . S
C699 H674 0.951 . S
C699 C697 1.388 . S
C699 C700 1.366 . S
C700 C699 1.366 . S
C700 C701 1.414 . S
C700 C703 1.499 . S
C701 H675 0.950 . S
C701 C700 1.414 . S
C701 C702 1.374 . S
C702 H676 0.950 . S
C702 C698 1.385 . S
C702 C701 1.374 . S
C703 C700 1.499 . S
C703 C704 1.373 . S
C703 C705 1.389 . S
C704 H677 0.950 . S
C704 C690 1.377 . S
C704 C703 1.373 . S
C705 C689 1.377 . S
C705 C703 1.389 . S
C705 C706 1.524 . S
C706 C705 1.524 . S
C706 C707 1.397 . S
C706 C711 1.363 . S
C707 H678 0.950 . S
C707 C706 1.397 . S
C707 C708 1.334 . S
C708 H679 0.950 . S
C708 C707 1.334 . S
C708 C709 1.287 . S
C709 C708 1.287 . S
C709 C710 1.524 . S
C709 H712 0.999 . S
C710 H680 0.950 . S
C710 C709 1.524 . S
C710 C711 1.415 . S
C711 H681 0.950 . S
C711 C706 1.363 . S
C711 C710 1.415 . S
H712 C709 0.999 . S
H713 C694 0.913 . S
H714 C732 0.951 . S
H715 C734 0.951 . S
H716 C736 0.950 . S
H717 C737 0.950 . S
H718 C739 0.950 . S
H719 C742 0.950 . S
H720 C743 0.950 . S
H721 C745 0.950 . S
H722 C746 0.950 . S
H723 C747 0.951 . S
H724 C749 0.954 . S
H725 C751 0.950 . S
H726 C752 0.950 . S
H727 C754 0.950 . S
H728 C757 0.950 . S
H729 C758 0.950 . S
H730 C760 0.950 1_554 S
H731 C761 0.950 . S
C732 H714 0.951 . S
C732 C733 1.366 . S
C732 C734 1.388 . S
C733 C732 1.366 . S
C733 C737 1.385 . S
C734 H715 0.951 . S
C734 C732 1.388 . S
C734 C735 1.366 . S
C735 C734 1.366 . S
C735 C736 1.414 . S
C735 C738 1.499 . S
C736 H716 0.950 . S
C736 C735 1.414 . S
C736 C737 1.374 . S
C737 H717 0.950 . S
C737 C733 1.385 . S
C737 C736 1.374 . S
C738 C735 1.499 . S
C738 C739 1.373 . S
C738 C740 1.389 . S
C739 H718 0.950 . S
C739 C738 1.373 . S
C739 C755 1.377 . S
C740 C738 1.389 . S
C740 C741 1.524 . S
C740 C754 1.377 . S
C741 C740 1.524 . S
C741 C742 1.397 . S
C741 C746 1.363 . S
C742 H719 0.950 . S
C742 C741 1.397 . S
C742 C743 1.334 . S
C743 H720 0.950 . S
C743 C742 1.334 . S
C743 C744 1.287 . S
C744 C743 1.287 . S
C744 C745 1.524 . S
C744 H763 0.913 . S
C745 H721 0.950 . S
C745 C744 1.524 . S
C745 C746 1.415 . S
C746 H722 0.950 . S
C746 C741 1.363 . S
C746 C745 1.415 . S
C747 H723 0.951 . S
C747 C748 1.366 1_554 S
C747 C749 1.388 1_554 S
C748 C747 1.366 1_556 S
C748 C752 1.385 . S
C749 H724 0.954 . S
C749 C747 1.388 1_556 S
C749 C750 1.366 . S
C750 C749 1.366 . S
C750 C751 1.414 . S
C750 C753 1.499 . S
C751 H725 0.950 . S
C751 C750 1.414 . S
C751 C752 1.374 . S
C752 H726 0.950 . S
C752 C748 1.385 . S
C752 C751 1.374 . S
C753 C750 1.499 . S
C753 C754 1.373 . S
C753 C755 1.389 . S
C754 H727 0.950 . S
C754 C740 1.377 . S
C754 C753 1.373 . S
C755 C739 1.377 . S
C755 C753 1.389 . S
C755 C756 1.524 . S
C756 C755 1.524 . S
C756 C757 1.397 . S
C756 C761 1.363 . S
C757 H728 0.950 . S
C757 C756 1.397 . S
C757 C758 1.334 . S
C758 H729 0.950 . S
C758 C757 1.334 . S
C758 C759 1.287 . S
C759 C758 1.287 . S
C759 C760 1.524 . S
C759 H762 0.997 1_556 S
C760 H730 0.950 1_556 S
C760 C759 1.524 . S
C760 C761 1.415 . S
C761 H731 0.950 . S
C761 C756 1.363 . S
C761 C760 1.415 . S
H762 C759 0.997 1_554 S
H763 C744 0.913 . S
H764 C782 0.951 . S
H765 C784 0.951 . S
H766 C786 0.950 . S
H767 C787 0.950 . S
H768 C789 0.950 . S
H769 C792 0.950 . S
H770 C793 0.950 . S
H771 C795 0.950 . S
H772 C796 0.950 . S
H773 C797 0.951 1_455 S
H774 C799 0.951 . S
H775 C801 0.950 . S
H776 C802 0.950 . S
H777 C804 0.950 . S
H778 C807 0.950 . S
H779 C808 0.950 . S
H780 C810 0.950 . S
H781 C811 0.950 . S
C782 H764 0.951 . S
C782 C783 1.366 . S
C782 C784 1.388 . S
C783 C782 1.366 . S
C783 C787 1.385 . S
C784 H765 0.951 . S
C784 C782 1.388 . S
C784 C785 1.366 . S
C785 C784 1.366 . S
C785 C786 1.414 . S
C785 C788 1.499 . S
C786 H766 0.950 . S
C786 C785 1.414 . S
C786 C787 1.374 . S
C787 H767 0.950 . S
C787 C783 1.385 . S
C787 C786 1.374 . S
C788 C785 1.499 . S
C788 C789 1.373 . S
C788 C790 1.389 . S
C789 H768 0.950 . S
C789 C788 1.373 . S
C789 C805 1.377 . S
C790 C788 1.389 . S
C790 C791 1.524 . S
C790 C804 1.377 . S
C791 C790 1.524 . S
C791 C792 1.397 . S
C791 C796 1.363 . S
C792 H769 0.950 . S
C792 C791 1.397 . S
C792 C793 1.334 . S
C793 H770 0.950 . S
C793 C792 1.334 . S
C793 C794 1.287 . S
C794 C793 1.287 . S
C794 C795 1.524 . S
C794 H813 0.913 . S
C795 H771 0.950 . S
C795 C794 1.524 . S
C795 C796 1.415 . S
C796 H772 0.950 . S
C796 C791 1.363 . S
C796 C795 1.415 . S
C797 H773 0.951 1_655 S
C797 C798 1.366 . S
C797 C799 1.388 . S
C798 C797 1.366 . S
C798 C802 1.385 . S
C799 H774 0.951 . S
C799 C797 1.388 . S
C799 C800 1.366 . S
C800 C799 1.366 . S
C800 C801 1.414 . S
C800 C803 1.499 . S
C801 H775 0.950 . S
C801 C800 1.414 . S
C801 C802 1.374 . S
C802 H776 0.950 . S
C802 C798 1.385 . S
C802 C801 1.374 . S
C803 C800 1.499 . S
C803 C804 1.373 . S
C803 C805 1.389 . S
C804 H777 0.950 . S
C804 C790 1.377 . S
C804 C803 1.373 . S
C805 C789 1.377 . S
C805 C803 1.389 . S
C805 C806 1.524 . S
C806 C805 1.524 . S
C806 C807 1.397 . S
C806 C811 1.363 . S
C807 H778 0.950 . S
C807 C806 1.397 . S
C807 C808 1.334 . S
C808 H779 0.950 . S
C808 C807 1.334 . S
C808 C809 1.287 . S
C809 C808 1.287 . S
C809 C810 1.524 . S
C809 H812 0.999 . S
C810 H780 0.950 . S
C810 C809 1.524 . S
C810 C811 1.415 . S
C811 H781 0.950 . S
C811 C806 1.363 . S
C811 C810 1.415 . S
H812 C809 0.999 . S
H813 C794 0.913 . S
H814 C832 0.951 . S
H815 C834 0.951 . S
H816 C836 0.950 . S
H817 C837 0.950 . S
H818 C839 0.950 . S
H819 C842 0.950 . S
H820 C843 0.950 . S
H821 C845 0.950 . S
H822 C846 0.950 . S
H823 C847 0.951 . S
H824 C849 0.951 . S
H825 C851 0.950 . S
H826 C852 0.950 . S
H827 C854 0.950 . S
H828 C857 0.950 . S
H829 C858 0.950 . S
H830 C860 0.950 . S
H831 C861 0.950 . S
C832 H814 0.951 . S
C832 C833 1.366 . S
C832 C834 1.388 . S
C833 C832 1.366 . S
C833 C837 1.385 . S
C834 H815 0.951 . S
C834 C832 1.388 . S
C834 C835 1.366 . S
C835 C834 1.366 . S
C835 C836 1.414 . S
C835 C838 1.499 . S
C836 H816 0.950 . S
C836 C835 1.414 . S
C836 C837 1.374 . S
C837 H817 0.950 . S
C837 C833 1.385 . S
C837 C836 1.374 . S
C838 C835 1.499 . S
C838 C839 1.373 . S
C838 C840 1.389 . S
C839 H818 0.950 . S
C839 C838 1.373 . S
C839 C855 1.377 . S
C840 C838 1.389 . S
C840 C841 1.524 . S
C840 C854 1.377 . S
C841 C840 1.524 . S
C841 C842 1.397 . S
C841 C846 1.363 . S
C842 H819 0.950 . S
C842 C841 1.397 . S
C842 C843 1.334 . S
C843 H820 0.950 . S
C843 C842 1.334 . S
C843 C844 1.287 . S
C844 C843 1.287 . S
C844 C845 1.524 . S
C844 H863 0.913 . S
C845 H821 0.950 . S
C845 C844 1.524 . S
C845 C846 1.415 . S
C846 H822 0.950 . S
C846 C841 1.363 . S
C846 C845 1.415 . S
C847 H823 0.951 . S
C847 C848 1.366 . S
C847 C849 1.388 . S
C848 C847 1.366 . S
C848 C852 1.385 . S
C849 H824 0.951 . S
C849 C847 1.388 . S
C849 C850 1.366 . S
C850 C849 1.366 . S
C850 C851 1.414 . S
C850 C853 1.499 . S
C851 H825 0.950 . S
C851 C850 1.414 . S
C851 C852 1.374 . S
C852 H826 0.950 . S
C852 C848 1.385 . S
C852 C851 1.374 . S
C853 C850 1.499 . S
C853 C854 1.373 . S
C853 C855 1.389 . S
C854 H827 0.950 . S
C854 C840 1.377 . S
C854 C853 1.373 . S
C855 C839 1.377 . S
C855 C853 1.389 . S
C855 C856 1.524 . S
C856 C855 1.524 . S
C856 C857 1.397 . S
C856 C861 1.363 . S
C857 H828 0.950 . S
C857 C856 1.397 . S
C857 C858 1.334 . S
C858 H829 0.950 . S
C858 C857 1.334 . S
C858 C859 1.287 . S
C859 C858 1.287 . S
C859 C860 1.524 . S
C859 H862 0.999 . S
C860 H830 0.950 . S
C860 C859 1.524 . S
C860 C861 1.415 . S
C861 H831 0.950 . S
C861 C856 1.363 . S
C861 C860 1.415 . S
H862 C859 0.999 . S
H863 C844 0.913 . S
H864 C882 0.951 . S
H865 C884 0.951 . S
H866 C886 0.950 . S
H867 C887 0.950 . S
H868 C889 0.950 . S
H869 C892 0.950 . S
H870 C893 0.950 . S
H871 C895 0.950 . S
H872 C896 0.950 . S
H873 C897 0.951 . S
H874 C899 0.951 . S
H875 C901 0.950 . S
H876 C902 0.950 . S
H877 C904 0.950 . S
H878 C907 0.950 . S
H879 C908 0.950 . S
H880 C910 0.950 . S
H881 C911 0.950 . S
C882 H864 0.951 . S
C882 C883 1.366 . S
C882 C884 1.388 . S
C883 C882 1.366 . S
C883 C887 1.385 . S
C884 H865 0.951 . S
C884 C882 1.388 . S
C884 C885 1.366 . S
C885 C884 1.366 . S
C885 C886 1.414 . S
C885 C888 1.499 . S
C886 H866 0.950 . S
C886 C885 1.414 . S
C886 C887 1.374 . S
C887 H867 0.950 . S
C887 C883 1.385 . S
C887 C886 1.374 . S
C888 C885 1.499 . S
C888 C889 1.373 . S
C888 C890 1.389 . S
C889 H868 0.950 . S
C889 C888 1.373 . S
C889 C905 1.377 . S
C890 C888 1.389 . S
C890 C891 1.524 . S
C890 C904 1.377 . S
C891 C890 1.524 . S
C891 C892 1.397 . S
C891 C896 1.363 . S
C892 H869 0.950 . S
C892 C891 1.397 . S
C892 C893 1.334 . S
C893 H870 0.950 . S
C893 C892 1.334 . S
C893 C894 1.287 . S
C894 C893 1.287 . S
C894 C895 1.524 . S
C894 H913 0.913 . S
C895 H871 0.950 . S
C895 C894 1.524 . S
C895 C896 1.415 . S
C896 H872 0.950 . S
C896 C891 1.363 . S
C896 C895 1.415 . S
C897 H873 0.951 . S
C897 C898 1.366 . S
C897 C899 1.388 . S
C898 C897 1.366 . S
C898 C902 1.385 . S
C899 H874 0.951 . S
C899 C897 1.388 . S
C899 C900 1.366 . S
C900 C899 1.366 . S
C900 C901 1.414 . S
C900 C903 1.499 . S
C901 H875 0.950 . S
C901 C900 1.414 . S
C901 C902 1.374 . S
C902 H876 0.950 . S
C902 C898 1.385 . S
C902 C901 1.374 . S
C903 C900 1.499 . S
C903 C904 1.373 . S
C903 C905 1.389 . S
C904 H877 0.950 . S
C904 C890 1.377 . S
C904 C903 1.373 . S
C905 C889 1.377 . S
C905 C903 1.389 . S
C905 C906 1.524 . S
C906 C905 1.524 . S
C906 C907 1.397 . S
C906 C911 1.363 . S
C907 H878 0.950 . S
C907 C906 1.397 . S
C907 C908 1.334 . S
C908 H879 0.950 . S
C908 C907 1.334 . S
C908 C909 1.287 . S
C909 C908 1.287 . S
C909 C910 1.524 . S
C909 H912 0.999 . S
C910 H880 0.950 . S
C910 C909 1.524 . S
C910 C911 1.415 . S
C911 H881 0.950 . S
C911 C906 1.363 . S
C911 C910 1.415 . S
H912 C909 0.999 . S
H913 C894 0.913 . S
H914 C932 0.951 . S
H915 C934 0.951 . S
H916 C936 0.950 . S
H917 C937 0.950 . S
H918 C939 0.950 . S
H919 C942 0.950 . S
H920 C943 0.950 . S
H921 C945 0.950 . S
H922 C946 0.950 . S
H923 C947 0.951 . S
H924 C949 0.951 . S
H925 C951 0.950 . S
H926 C952 0.950 . S
H927 C954 0.950 . S
H928 C957 0.950 . S
H929 C958 0.950 . S
H930 C960 0.950 . S
H931 C961 0.950 . S
C932 H914 0.951 . S
C932 C933 1.366 . S
C932 C934 1.388 . S
C933 C932 1.366 . S
C933 C937 1.385 . S
C934 H915 0.951 . S
C934 C932 1.388 . S
C934 C935 1.366 . S
C935 C934 1.366 . S
C935 C936 1.414 . S
C935 C938 1.499 . S
C936 H916 0.950 . S
C936 C935 1.414 . S
C936 C937 1.374 . S
C937 H917 0.950 . S
C937 C933 1.385 . S
C937 C936 1.374 . S
C938 C935 1.499 . S
C938 C939 1.373 . S
C938 C940 1.389 . S
C939 H918 0.950 . S
C939 C938 1.373 . S
C939 C955 1.377 . S
C940 C938 1.389 . S
C940 C941 1.524 . S
C940 C954 1.377 . S
C941 C940 1.524 . S
C941 C942 1.397 . S
C941 C946 1.363 . S
C942 H919 0.950 . S
C942 C941 1.397 . S
C942 C943 1.334 . S
C943 H920 0.950 . S
C943 C942 1.334 . S
C943 C944 1.287 . S
C944 C943 1.287 . S
C944 C945 1.524 . S
C944 H963 0.913 . S
C945 H921 0.950 . S
C945 C944 1.524 . S
C945 C946 1.415 . S
C946 H922 0.950 . S
C946 C941 1.363 . S
C946 C945 1.415 . S
C947 H923 0.951 . S
C947 C948 1.366 . S
C947 C949 1.388 . S
C948 C947 1.366 . S
C948 C952 1.385 . S
C949 H924 0.951 . S
C949 C947 1.388 . S
C949 C950 1.366 . S
C950 C949 1.366 . S
C950 C951 1.414 . S
C950 C953 1.499 . S
C951 H925 0.950 . S
C951 C950 1.414 . S
C951 C952 1.374 . S
C952 H926 0.950 . S
C952 C948 1.385 . S
C952 C951 1.374 . S
C953 C950 1.499 . S
C953 C954 1.373 . S
C953 C955 1.389 . S
C954 H927 0.950 . S
C954 C940 1.377 . S
C954 C953 1.373 . S
C955 C939 1.377 . S
C955 C953 1.389 . S
C955 C956 1.524 . S
C956 C955 1.524 . S
C956 C957 1.397 . S
C956 C961 1.363 . S
C957 H928 0.950 . S
C957 C956 1.397 . S
C957 C958 1.334 . S
C958 H929 0.950 . S
C958 C957 1.334 . S
C958 C959 1.287 . S
C959 C958 1.287 . S
C959 C960 1.524 . S
C959 H962 0.999 . S
C960 H930 0.950 . S
C960 C959 1.524 . S
C960 C961 1.415 . S
C961 H931 0.950 . S
C961 C956 1.363 . S
C961 C960 1.415 . S
H962 C959 0.999 . S
H963 C944 0.913 . S
H964 C982 0.951 . S
H965 C984 0.951 . S
H966 C986 0.950 . S
H967 C987 0.950 . S
H968 C989 0.950 . S
H969 C992 0.950 . S
H970 C993 0.950 . S
H971 C995 0.950 . S
H972 C996 0.950 . S
H973 C997 0.951 . S
H974 C999 0.951 . S
H975 C1001 0.950 . S
H976 C1002 0.950 . S
H977 C1004 0.950 . S
H978 C1007 0.950 . S
H979 C1008 0.950 . S
H980 C1010 0.950 . S
H981 C1011 0.950 . S
C982 H964 0.951 . S
C982 C983 1.366 . S
C982 C984 1.388 . S
C983 C982 1.366 . S
C983 C987 1.385 . S
C984 H965 0.951 . S
C984 C982 1.388 . S
C984 C985 1.366 . S
C985 C984 1.366 . S
C985 C986 1.414 . S
C985 C988 1.499 . S
C986 H966 0.950 . S
C986 C985 1.414 . S
C986 C987 1.374 . S
C987 H967 0.950 . S
C987 C983 1.385 . S
C987 C986 1.374 . S
C988 C985 1.499 . S
C988 C989 1.373 . S
C988 C990 1.389 . S
C989 H968 0.950 . S
C989 C988 1.373 . S
C989 C1005 1.377 . S
C990 C988 1.389 . S
C990 C991 1.524 . S
C990 C1004 1.377 . S
C991 C990 1.524 . S
C991 C992 1.397 . S
C991 C996 1.363 . S
C992 H969 0.950 . S
C992 C991 1.397 . S
C992 C993 1.334 . S
C993 H970 0.950 . S
C993 C992 1.334 . S
C993 C994 1.287 . S
C994 C993 1.287 . S
C994 C995 1.524 . S
C994 H1013 0.913 . S
C995 H971 0.950 . S
C995 C994 1.524 . S
C995 C996 1.415 . S
C996 H972 0.950 . S
C996 C991 1.363 . S
C996 C995 1.415 . S
C997 H973 0.951 . S
C997 C998 1.366 . S
C997 C999 1.388 . S
C998 C997 1.366 . S
C998 C1002 1.385 . S
C999 H974 0.951 . S
C999 C997 1.388 . S
C999 C1000 1.366 . S
C1000 C999 1.366 . S
C1000 C1001 1.414 . S
C1000 C1003 1.499 . S
C1001 H975 0.950 . S
C1001 C1000 1.414 . S
C1001 C1002 1.374 . S
C1002 H976 0.950 . S
C1002 C998 1.385 . S
C1002 C1001 1.374 . S
C1003 C1000 1.499 . S
C1003 C1004 1.373 . S
C1003 C1005 1.389 . S
C1004 H977 0.950 . S
C1004 C990 1.377 . S
C1004 C1003 1.373 . S
C1005 C989 1.377 . S
C1005 C1003 1.389 . S
C1005 C1006 1.524 . S
C1006 C1005 1.524 . S
C1006 C1007 1.397 . S
C1006 C1011 1.363 . S
C1007 H978 0.950 . S
C1007 C1006 1.397 . S
C1007 C1008 1.334 . S
C1008 H979 0.950 . S
C1008 C1007 1.334 . S
C1008 C1009 1.287 . S
C1009 C1008 1.287 . S
C1009 C1010 1.524 . S
C1009 H1012 0.999 . S
C1010 H980 0.950 . S
C1010 C1009 1.524 . S
C1010 C1011 1.415 . S
C1011 H981 0.950 . S
C1011 C1006 1.363 . S
C1011 C1010 1.415 . S
H1012 C1009 0.999 . S
H1013 C994 0.913 . S
H1014 C1032 0.951 . S
H1015 C1034 0.951 . S
H1016 C1036 0.950 . S
H1017 C1037 0.950 . S
H1018 C1039 0.950 . S
H1019 C1042 0.950 . S
H1020 C1043 0.950 . S
H1021 C1045 0.950 . S
H1022 C1046 0.950 . S
H1023 C1047 0.951 . S
H1024 C1049 0.951 . S
H1025 C1051 0.950 . S
H1026 C1052 0.950 . S
H1027 C1054 0.950 . S
H1028 C1057 0.950 . S
H1029 C1058 0.950 . S
H1030 C1060 0.950 . S
H1031 C1061 0.950 . S
C1032 H1014 0.951 . S
C1032 C1033 1.366 . S
C1032 C1034 1.388 . S
C1033 C1032 1.366 . S
C1033 C1037 1.385 . S
C1034 H1015 0.951 . S
C1034 C1032 1.388 . S
C1034 C1035 1.366 . S
C1035 C1034 1.366 . S
C1035 C1036 1.414 . S
C1035 C1038 1.499 . S
C1036 H1016 0.950 . S
C1036 C1035 1.414 . S
C1036 C1037 1.374 . S
C1037 H1017 0.950 . S
C1037 C1033 1.385 . S
C1037 C1036 1.374 . S
C1038 C1035 1.499 . S
C1038 C1039 1.373 . S
C1038 C1040 1.389 . S
C1039 H1018 0.950 . S
C1039 C1038 1.373 . S
C1039 C1055 1.377 . S
C1040 C1038 1.389 . S
C1040 C1041 1.524 . S
C1040 C1054 1.377 . S
C1041 C1040 1.524 . S
C1041 C1042 1.397 . S
C1041 C1046 1.363 . S
C1042 H1019 0.950 . S
C1042 C1041 1.397 . S
C1042 C1043 1.334 . S
C1043 H1020 0.950 . S
C1043 C1042 1.334 . S
C1043 C1044 1.287 . S
C1044 C1043 1.287 . S
C1044 C1045 1.524 . S
C1044 H1063 0.913 . S
C1045 H1021 0.950 . S
C1045 C1044 1.524 . S
C1045 C1046 1.415 . S
C1046 H1022 0.950 . S
C1046 C1041 1.363 . S
C1046 C1045 1.415 . S
C1047 H1023 0.951 . S
C1047 C1048 1.366 . S
C1047 C1049 1.388 . S
C1048 C1047 1.366 . S
C1048 C1052 1.385 . S
C1049 H1024 0.951 . S
C1049 C1047 1.388 . S
C1049 C1050 1.366 . S
C1050 C1049 1.366 . S
C1050 C1051 1.414 . S
C1050 C1053 1.499 . S
C1051 H1025 0.950 . S
C1051 C1050 1.414 . S
C1051 C1052 1.374 . S
C1052 H1026 0.950 . S
C1052 C1048 1.385 . S
C1052 C1051 1.374 . S
C1053 C1050 1.499 . S
C1053 C1054 1.373 . S
C1053 C1055 1.389 . S
C1054 H1027 0.950 . S
C1054 C1040 1.377 . S
C1054 C1053 1.373 . S
C1055 C1039 1.377 . S
C1055 C1053 1.389 . S
C1055 C1056 1.524 . S
C1056 C1055 1.524 . S
C1056 C1057 1.397 . S
C1056 C1061 1.363 . S
C1057 H1028 0.950 . S
C1057 C1056 1.397 . S
C1057 C1058 1.334 . S
C1058 H1029 0.950 . S
C1058 C1057 1.334 . S
C1058 C1059 1.287 . S
C1059 C1058 1.287 . S
C1059 C1060 1.524 . S
C1059 H1062 0.999 . S
C1060 H1030 0.950 . S
C1060 C1059 1.524 . S
C1060 C1061 1.415 . S
C1061 H1031 0.950 . S
C1061 C1056 1.363 . S
C1061 C1060 1.415 . S
H1062 C1059 0.999 . S
H1063 C1044 0.913 . S
H1064 C1082 0.951 . S
H1065 C1084 0.951 . S
H1066 C1086 0.950 . S
H1067 C1087 0.950 . S
H1068 C1089 0.950 . S
H1069 C1092 0.950 . S
H1070 C1093 0.950 . S
H1071 C1095 0.950 . S
H1072 C1096 0.950 . S
H1073 C1097 0.951 . S
H1074 C1099 0.951 . S
H1075 C1101 0.950 . S
H1076 C1102 0.950 1_545 S
H1077 C1104 0.950 . S
H1078 C1107 0.950 . S
H1079 C1108 0.950 . S
H1080 C1110 0.950 . S
H1081 C1111 0.950 . S
C1082 H1064 0.951 . S
C1082 C1083 1.366 . S
C1082 C1084 1.388 . S
C1083 C1082 1.366 . S
C1083 C1087 1.385 . S
C1084 H1065 0.951 . S
C1084 C1082 1.388 . S
C1084 C1085 1.366 . S
C1085 C1084 1.366 . S
C1085 C1086 1.414 . S
C1085 C1088 1.499 . S
C1086 H1066 0.950 . S
C1086 C1085 1.414 . S
C1086 C1087 1.374 . S
C1087 H1067 0.950 . S
C1087 C1083 1.385 . S
C1087 C1086 1.374 . S
C1088 C1085 1.499 . S
C1088 C1089 1.373 . S
C1088 C1090 1.389 . S
C1089 H1068 0.950 . S
C1089 C1088 1.373 . S
C1089 C1105 1.377 . S
C1090 C1088 1.389 . S
C1090 C1091 1.524 . S
C1090 C1104 1.377 . S
C1091 C1090 1.524 . S
C1091 C1092 1.397 . S
C1091 C1096 1.363 . S
C1092 H1069 0.950 . S
C1092 C1091 1.397 . S
C1092 C1093 1.334 . S
C1093 H1070 0.950 . S
C1093 C1092 1.334 . S
C1093 C1094 1.287 . S
C1094 C1093 1.287 . S
C1094 C1095 1.524 . S
C1094 H1113 0.913 . S
C1095 H1071 0.950 . S
C1095 C1094 1.524 . S
C1095 C1096 1.415 . S
C1096 H1072 0.950 . S
C1096 C1091 1.363 . S
C1096 C1095 1.415 . S
C1097 H1073 0.951 . S
C1097 C1098 1.366 . S
C1097 C1099 1.388 . S
C1098 C1097 1.366 . S
C1098 C1102 1.385 1_554 S
C1099 H1074 0.951 . S
C1099 C1097 1.388 . S
C1099 C1100 1.366 1_554 S
C1100 C1099 1.366 1_556 S
C1100 C1101 1.414 . S
C1100 C1103 1.499 . S
C1101 H1075 0.950 . S
C1101 C1100 1.414 . S
C1101 C1102 1.374 . S
C1102 H1076 0.950 1_565 S
C1102 C1098 1.385 1_556 S
C1102 C1101 1.374 . S
C1103 C1100 1.499 . S
C1103 C1104 1.373 . S
C1103 C1105 1.389 . S
C1104 H1077 0.950 . S
C1104 C1090 1.377 . S
C1104 C1103 1.373 . S
C1105 C1089 1.377 . S
C1105 C1103 1.389 . S
C1105 C1106 1.524 . S
C1106 C1105 1.524 . S
C1106 C1107 1.397 . S
C1106 C1111 1.363 . S
C1107 H1078 0.950 . S
C1107 C1106 1.397 . S
C1107 C1108 1.334 . S
C1108 H1079 0.950 . S
C1108 C1107 1.334 . S
C1108 C1109 1.287 . S
C1109 C1108 1.287 . S
C1109 C1110 1.524 . S
C1109 H1112 0.999 . S
C1110 H1080 0.950 . S
C1110 C1109 1.524 . S
C1110 C1111 1.415 . S
C1111 H1081 0.950 . S
C1111 C1106 1.363 . S
C1111 C1110 1.415 . S
H1112 C1109 0.999 . S
H1113 C1094 0.913 . S
H1114 C1132 0.951 . S
H1115 C1134 0.951 . S
H1116 C1136 0.950 . S
H1117 C1137 0.950 . S
H1118 C1139 0.950 . S
H1119 C1142 0.950 . S
H1120 C1143 0.950 . S
H1121 C1145 0.950 . S
H1122 C1146 0.950 . S
H1123 C1147 0.951 . S
H1124 C1149 0.951 . S
H1125 C1151 0.950 1_455 S
H1126 C1152 0.950 . S
H1127 C1154 0.950 . S
H1128 C1157 0.950 . S
H1129 C1158 0.950 . S
H1130 C1160 0.950 . S
H1131 C1161 0.950 . S
C1132 H1114 0.951 . S
C1132 C1133 1.366 . S
C1132 C1134 1.388 . S
C1133 C1132 1.366 . S
C1133 C1137 1.385 . S
C1134 H1115 0.951 . S
C1134 C1132 1.388 . S
C1134 C1135 1.366 . S
C1135 C1134 1.366 . S
C1135 C1136 1.414 . S
C1135 C1138 1.499 . S
C1136 H1116 0.950 . S
C1136 C1135 1.414 . S
C1136 C1137 1.374 . S
C1137 H1117 0.950 . S
C1137 C1133 1.385 . S
C1137 C1136 1.374 . S
C1138 C1135 1.499 . S
C1138 C1139 1.373 . S
C1138 C1140 1.389 . S
C1139 H1118 0.950 . S
C1139 C1138 1.373 . S
C1139 C1155 1.377 . S
C1140 C1138 1.389 . S
C1140 C1141 1.524 . S
C1140 C1154 1.377 . S
C1141 C1140 1.524 . S
C1141 C1142 1.397 . S
C1141 C1146 1.363 1_655 S
C1142 H1119 0.950 . S
C1142 C1141 1.397 . S
C1142 C1143 1.334 . S
C1143 H1120 0.950 . S
C1143 C1142 1.334 . S
C1143 C1144 1.287 . S
C1144 C1143 1.287 . S
C1144 C1145 1.524 1_655 S
C1144 H1163 0.913 1_655 S
C1145 H1121 0.950 . S
C1145 C1144 1.524 1_455 S
C1145 C1146 1.415 . S
C1146 H1122 0.950 . S
C1146 C1141 1.363 1_455 S
C1146 C1145 1.415 . S
C1147 H1123 0.951 . S
C1147 C1148 1.366 . S
C1147 C1149 1.388 . S
C1148 C1147 1.366 . S
C1148 C1152 1.385 1_655 S
C1149 H1124 0.951 . S
C1149 C1147 1.388 . S
C1149 C1150 1.366 . S
C1150 C1149 1.366 . S
C1150 C1151 1.414 . S
C1150 C1153 1.499 . S
C1151 H1125 0.950 1_655 S
C1151 C1150 1.414 . S
C1151 C1152 1.374 1_655 S
C1152 H1126 0.950 . S
C1152 C1148 1.385 1_455 S
C1152 C1151 1.374 1_455 S
C1153 C1150 1.499 . S
C1153 C1154 1.373 . S
C1153 C1155 1.389 . S
C1154 H1127 0.950 . S
C1154 C1140 1.377 . S
C1154 C1153 1.373 . S
C1155 C1139 1.377 . S
C1155 C1153 1.389 . S
C1155 C1156 1.524 . S
C1156 C1155 1.524 . S
C1156 C1157 1.397 . S
C1156 C1161 1.363 . S
C1157 H1128 0.950 . S
C1157 C1156 1.397 . S
C1157 C1158 1.334 . S
C1158 H1129 0.950 . S
C1158 C1157 1.334 . S
C1158 C1159 1.287 . S
C1159 C1158 1.287 . S
C1159 C1160 1.524 . S
C1159 H1162 0.999 . S
C1160 H1130 0.950 . S
C1160 C1159 1.524 . S
C1160 C1161 1.415 . S
C1161 H1131 0.950 . S
C1161 C1156 1.363 . S
C1161 C1160 1.415 . S
H1162 C1159 0.999 . S
H1163 C1144 0.913 1_455 S
H1164 C1182 0.951 . S
H1165 C1184 0.951 . S
H1166 C1186 0.950 . S
H1167 C1187 0.950 . S
H1168 C1189 0.950 . S
H1169 C1192 0.950 . S
H1170 C1193 0.950 . S
H1171 C1195 0.950 . S
H1172 C1196 0.950 . S
H1173 C1197 0.951 . S
H1174 C1199 0.951 . S
H1175 C1201 0.950 . S
H1176 C1202 0.950 . S
H1177 C1204 0.950 . S
H1178 C1207 0.950 . S
H1179 C1208 0.950 . S
H1180 C1210 0.950 . S
H1181 C1211 0.950 . S
C1182 H1164 0.951 . S
C1182 C1183 1.366 . S
C1182 C1184 1.388 . S
C1183 C1182 1.366 . S
C1183 C1187 1.385 . S
C1184 H1165 0.951 . S
C1184 C1182 1.388 . S
C1184 C1185 1.366 . S
C1185 C1184 1.366 . S
C1185 C1186 1.414 . S
C1185 C1188 1.499 . S
C1186 H1166 0.950 . S
C1186 C1185 1.414 . S
C1186 C1187 1.374 . S
C1187 H1167 0.950 . S
C1187 C1183 1.385 . S
C1187 C1186 1.374 . S
C1188 C1185 1.499 . S
C1188 C1189 1.373 . S
C1188 C1190 1.389 . S
C1189 H1168 0.950 . S
C1189 C1188 1.373 . S
C1189 C1205 1.377 . S
C1190 C1188 1.389 . S
C1190 C1191 1.524 . S
C1190 C1204 1.377 . S
C1191 C1190 1.524 . S
C1191 C1192 1.397 . S
C1191 C1196 1.363 . S
C1192 H1169 0.950 . S
C1192 C1191 1.397 . S
C1192 C1193 1.334 . S
C1193 H1170 0.950 . S
C1193 C1192 1.334 . S
C1193 C1194 1.287 . S
C1194 C1193 1.287 . S
C1194 C1195 1.524 . S
C1194 H1213 0.913 . S
C1195 H1171 0.950 . S
C1195 C1194 1.524 . S
C1195 C1196 1.415 . S
C1196 H1172 0.950 . S
C1196 C1191 1.363 . S
C1196 C1195 1.415 . S
C1197 H1173 0.951 . S
C1197 C1198 1.366 . S
C1197 C1199 1.388 . S
C1198 C1197 1.366 . S
C1198 C1202 1.385 . S
C1199 H1174 0.951 . S
C1199 C1197 1.388 . S
C1199 C1200 1.366 . S
C1200 C1199 1.366 . S
C1200 C1201 1.414 . S
C1200 C1203 1.499 . S
C1201 H1175 0.950 . S
C1201 C1200 1.414 . S
C1201 C1202 1.374 . S
C1202 H1176 0.950 . S
C1202 C1198 1.385 . S
C1202 C1201 1.374 . S
C1203 C1200 1.499 . S
C1203 C1204 1.373 . S
C1203 C1205 1.389 . S
C1204 H1177 0.950 . S
C1204 C1190 1.377 . S
C1204 C1203 1.373 . S
C1205 C1189 1.377 . S
C1205 C1203 1.389 . S
C1205 C1206 1.524 . S
C1206 C1205 1.524 . S
C1206 C1207 1.397 . S
C1206 C1211 1.363 . S
C1207 H1178 0.950 . S
C1207 C1206 1.397 . S
C1207 C1208 1.334 . S
C1208 H1179 0.950 . S
C1208 C1207 1.334 . S
C1208 C1209 1.287 . S
C1209 C1208 1.287 . S
C1209 C1210 1.524 . S
C1209 H1212 0.999 . S
C1210 H1180 0.950 . S
C1210 C1209 1.524 . S
C1210 C1211 1.415 . S
C1211 H1181 0.950 . S
C1211 C1206 1.363 . S
C1211 C1210 1.415 . S
H1212 C1209 0.999 . S
H1213 C1194 0.913 . S
H1214 C1232 0.951 . S
H1215 C1234 0.951 . S
H1216 C1236 0.950 . S
H1217 C1237 0.950 . S
H1218 C1239 0.950 . S
H1219 C1242 0.950 . S
H1220 C1243 0.950 . S
H1221 C1245 0.950 . S
H1222 C1246 0.950 . S
H1223 C1247 0.951 . S
H1224 C1249 0.951 . S
H1225 C1251 0.950 . S
H1226 C1252 0.950 . S
H1227 C1254 0.950 . S
H1228 C1257 0.950 . S
H1229 C1258 0.950 . S
H1230 C1260 0.950 . S
H1231 C1261 0.950 . S
C1232 H1214 0.951 . S
C1232 C1233 1.366 . S
C1232 C1234 1.388 . S
C1233 C1232 1.366 . S
C1233 C1237 1.385 . S
C1234 H1215 0.951 . S
C1234 C1232 1.388 . S
C1234 C1235 1.366 . S
C1235 C1234 1.366 . S
C1235 C1236 1.414 . S
C1235 C1238 1.499 . S
C1236 H1216 0.950 . S
C1236 C1235 1.414 . S
C1236 C1237 1.374 . S
C1237 H1217 0.950 . S
C1237 C1233 1.385 . S
C1237 C1236 1.374 . S
C1238 C1235 1.499 . S
C1238 C1239 1.373 . S
C1238 C1240 1.389 . S
C1239 H1218 0.950 . S
C1239 C1238 1.373 . S
C1239 C1255 1.377 . S
C1240 C1238 1.389 . S
C1240 C1241 1.524 . S
C1240 C1254 1.377 . S
C1241 C1240 1.524 . S
C1241 C1242 1.397 . S
C1241 C1246 1.363 . S
C1242 H1219 0.950 . S
C1242 C1241 1.397 . S
C1242 C1243 1.334 . S
C1243 H1220 0.950 . S
C1243 C1242 1.334 . S
C1243 C1244 1.287 . S
C1244 C1243 1.287 . S
C1244 C1245 1.524 . S
C1244 H1263 0.913 . S
C1245 H1221 0.950 . S
C1245 C1244 1.524 . S
C1245 C1246 1.415 . S
C1246 H1222 0.950 . S
C1246 C1241 1.363 . S
C1246 C1245 1.415 . S
C1247 H1223 0.951 . S
C1247 C1248 1.366 . S
C1247 C1249 1.388 . S
C1248 C1247 1.366 . S
C1248 C1252 1.385 . S
C1249 H1224 0.951 . S
C1249 C1247 1.388 . S
C1249 C1250 1.366 . S
C1250 C1249 1.366 . S
C1250 C1251 1.414 . S
C1250 C1253 1.499 . S
C1251 H1225 0.950 . S
C1251 C1250 1.414 . S
C1251 C1252 1.374 . S
C1252 H1226 0.950 . S
C1252 C1248 1.385 . S
C1252 C1251 1.374 . S
C1253 C1250 1.499 . S
C1253 C1254 1.373 . S
C1253 C1255 1.389 . S
C1254 H1227 0.950 . S
C1254 C1240 1.377 . S
C1254 C1253 1.373 . S
C1255 C1239 1.377 . S
C1255 C1253 1.389 . S
C1255 C1256 1.524 . S
C1256 C1255 1.524 . S
C1256 C1257 1.397 . S
C1256 C1261 1.363 . S
C1257 H1228 0.950 . S
C1257 C1256 1.397 . S
C1257 C1258 1.334 . S
C1258 H1229 0.950 . S
C1258 C1257 1.334 . S
C1258 C1259 1.287 . S
C1259 C1258 1.287 . S
C1259 C1260 1.524 . S
C1259 H1262 0.999 . S
C1260 H1230 0.950 . S
C1260 C1259 1.524 . S
C1260 C1261 1.415 . S
C1261 H1231 0.950 . S
C1261 C1256 1.363 . S
C1261 C1260 1.415 . S
H1262 C1259 0.999 . S
H1263 C1244 0.913 . S
H1264 C1282 0.951 . S
H1265 C1284 0.951 . S
H1266 C1286 0.950 . S
H1267 C1287 0.950 . S
H1268 C1289 0.950 . S
H1269 C1292 0.950 . S
H1270 C1293 0.950 . S
H1271 C1295 0.950 . S
H1272 C1296 0.950 . S
H1273 C1297 0.951 . S
H1274 C1299 0.951 . S
H1275 C1301 0.950 . S
H1276 C1302 0.950 . S
H1277 C1304 0.950 . S
H1278 C1307 0.950 . S
H1279 C1308 0.950 . S
H1280 C1310 0.950 . S
H1281 C1311 0.950 . S
C1282 H1264 0.951 . S
C1282 C1283 1.366 . S
C1282 C1284 1.388 . S
C1283 C1282 1.366 . S
C1283 C1287 1.385 . S
C1284 H1265 0.951 . S
C1284 C1282 1.388 . S
C1284 C1285 1.366 . S
C1285 C1284 1.366 . S
C1285 C1286 1.414 . S
C1285 C1288 1.499 . S
C1286 H1266 0.950 . S
C1286 C1285 1.414 . S
C1286 C1287 1.374 . S
C1287 H1267 0.950 . S
C1287 C1283 1.385 . S
C1287 C1286 1.374 . S
C1288 C1285 1.499 . S
C1288 C1289 1.373 . S
C1288 C1290 1.389 . S
C1289 H1268 0.950 . S
C1289 C1288 1.373 . S
C1289 C1305 1.377 . S
C1290 C1288 1.389 . S
C1290 C1291 1.524 . S
C1290 C1304 1.377 . S
C1291 C1290 1.524 . S
C1291 C1292 1.397 . S
C1291 C1296 1.363 . S
C1292 H1269 0.950 . S
C1292 C1291 1.397 . S
C1292 C1293 1.334 . S
C1293 H1270 0.950 . S
C1293 C1292 1.334 . S
C1293 C1294 1.287 . S
C1294 C1293 1.287 . S
C1294 C1295 1.524 . S
C1294 H1313 0.913 . S
C1295 H1271 0.950 . S
C1295 C1294 1.524 . S
C1295 C1296 1.415 . S
C1296 H1272 0.950 . S
C1296 C1291 1.363 . S
C1296 C1295 1.415 . S
C1297 H1273 0.951 . S
C1297 C1298 1.366 . S
C1297 C1299 1.388 . S
C1298 C1297 1.366 . S
C1298 C1302 1.385 . S
C1299 H1274 0.951 . S
C1299 C1297 1.388 . S
C1299 C1300 1.366 . S
C1300 C1299 1.366 . S
C1300 C1301 1.414 . S
C1300 C1303 1.499 . S
C1301 H1275 0.950 . S
C1301 C1300 1.414 . S
C1301 C1302 1.374 . S
C1302 H1276 0.950 . S
C1302 C1298 1.385 . S
C1302 C1301 1.374 . S
C1303 C1300 1.499 . S
C1303 C1304 1.373 . S
C1303 C1305 1.389 . S
C1304 H1277 0.950 . S
C1304 C1290 1.377 . S
C1304 C1303 1.373 . S
C1305 C1289 1.377 . S
C1305 C1303 1.389 . S
C1305 C1306 1.524 . S
C1306 C1305 1.524 . S
C1306 C1307 1.397 . S
C1306 C1311 1.363 . S
C1307 H1278 0.950 . S
C1307 C1306 1.397 . S
C1307 C1308 1.334 . S
C1308 H1279 0.950 . S
C1308 C1307 1.334 . S
C1308 C1309 1.287 . S
C1309 C1308 1.287 . S
C1309 C1310 1.524 . S
C1309 H1312 0.999 . S
C1310 H1280 0.950 . S
C1310 C1309 1.524 . S
C1310 C1311 1.415 . S
C1311 H1281 0.950 . S
C1311 C1306 1.363 . S
C1311 C1310 1.415 . S
H1312 C1309 0.999 . S
H1313 C1294 0.913 . S
H1314 C1332 0.951 . S
H1315 C1334 0.951 . S
H1316 C1336 0.950 . S
H1317 C1337 0.950 . S
H1318 C1339 0.950 . S
H1319 C1342 0.950 . S
H1320 C1343 0.950 . S
H1321 C1345 0.950 . S
H1322 C1346 0.950 . S
H1323 C1347 0.951 . S
H1324 C1349 0.951 . S
H1325 C1351 0.950 . S
H1326 C1352 0.950 . S
H1327 C1354 0.950 . S
H1328 C1357 0.950 . S
H1329 C1358 0.950 . S
H1330 C1360 0.950 . S
H1331 C1361 0.950 . S
C1332 H1314 0.951 . S
C1332 C1333 1.366 . S
C1332 C1334 1.388 . S
C1333 C1332 1.366 . S
C1333 C1337 1.385 . S
C1334 H1315 0.951 . S
C1334 C1332 1.388 . S
C1334 C1335 1.366 . S
C1335 C1334 1.366 . S
C1335 C1336 1.414 . S
C1335 C1338 1.499 . S
C1336 H1316 0.950 . S
C1336 C1335 1.414 . S
C1336 C1337 1.374 . S
C1337 H1317 0.950 . S
C1337 C1333 1.385 . S
C1337 C1336 1.374 . S
C1338 C1335 1.499 . S
C1338 C1339 1.373 . S
C1338 C1340 1.389 . S
C1339 H1318 0.950 . S
C1339 C1338 1.373 . S
C1339 C1355 1.377 . S
C1340 C1338 1.389 . S
C1340 C1341 1.524 . S
C1340 C1354 1.377 . S
C1341 C1340 1.524 . S
C1341 C1342 1.397 . S
C1341 C1346 1.363 . S
C1342 H1319 0.950 . S
C1342 C1341 1.397 . S
C1342 C1343 1.334 . S
C1343 H1320 0.950 . S
C1343 C1342 1.334 . S
C1343 C1344 1.287 . S
C1344 C1343 1.287 . S
C1344 C1345 1.524 . S
C1344 H1363 0.913 . S
C1345 H1321 0.950 . S
C1345 C1344 1.524 . S
C1345 C1346 1.415 . S
C1346 H1322 0.950 . S
C1346 C1341 1.363 . S
C1346 C1345 1.415 . S
C1347 H1323 0.951 . S
C1347 C1348 1.366 . S
C1347 C1349 1.388 . S
C1348 C1347 1.366 . S
C1348 C1352 1.385 . S
C1349 H1324 0.951 . S
C1349 C1347 1.388 . S
C1349 C1350 1.366 . S
C1350 C1349 1.366 . S
C1350 C1351 1.414 . S
C1350 C1353 1.499 . S
C1351 H1325 0.950 . S
C1351 C1350 1.414 . S
C1351 C1352 1.374 . S
C1352 H1326 0.950 . S
C1352 C1348 1.385 . S
C1352 C1351 1.374 . S
C1353 C1350 1.499 . S
C1353 C1354 1.373 . S
C1353 C1355 1.389 . S
C1354 H1327 0.950 . S
C1354 C1340 1.377 . S
C1354 C1353 1.373 . S
C1355 C1339 1.377 . S
C1355 C1353 1.389 . S
C1355 C1356 1.524 . S
C1356 C1355 1.524 . S
C1356 C1357 1.397 . S
C1356 C1361 1.363 . S
C1357 H1328 0.950 . S
C1357 C1356 1.397 . S
C1357 C1358 1.334 . S
C1358 H1329 0.950 . S
C1358 C1357 1.334 . S
C1358 C1359 1.287 . S
C1359 C1358 1.287 . S
C1359 C1360 1.524 . S
C1359 H1362 0.999 . S
C1360 H1330 0.950 . S
C1360 C1359 1.524 . S
C1360 C1361 1.415 . S
C1361 H1331 0.950 . S
C1361 C1356 1.363 . S
C1361 C1360 1.415 . S
H1362 C1359 0.999 . S
H1363 C1344 0.913 . S
H1364 C1382 0.951 . S
H1365 C1384 0.951 . S
H1366 C1386 0.950 . S
H1367 C1387 0.950 . S
H1368 C1389 0.950 . S
H1369 C1392 0.950 . S
H1370 C1393 0.950 . S
H1371 C1395 0.950 . S
H1372 C1396 0.950 . S
H1373 C1397 0.951 . S
H1374 C1399 0.951 . S
H1375 C1401 0.950 . S
H1376 C1402 0.950 . S
H1377 C1404 0.950 . S
H1378 C1407 0.950 . S
H1379 C1408 0.950 . S
H1380 C1410 0.950 . S
H1381 C1411 0.950 . S
C1382 H1364 0.951 . S
C1382 C1383 1.366 . S
C1382 C1384 1.388 . S
C1383 C1382 1.366 . S
C1383 C1387 1.385 . S
C1384 H1365 0.951 . S
C1384 C1382 1.388 . S
C1384 C1385 1.366 . S
C1385 C1384 1.366 . S
C1385 C1386 1.414 . S
C1385 C1388 1.499 . S
C1386 H1366 0.950 . S
C1386 C1385 1.414 . S
C1386 C1387 1.374 . S
C1387 H1367 0.950 . S
C1387 C1383 1.385 . S
C1387 C1386 1.374 . S
C1388 C1385 1.499 . S
C1388 C1389 1.373 . S
C1388 C1390 1.389 . S
C1389 H1368 0.950 . S
C1389 C1388 1.373 . S
C1389 C1405 1.377 . S
C1390 C1388 1.389 . S
C1390 C1391 1.524 . S
C1390 C1404 1.377 . S
C1391 C1390 1.524 . S
C1391 C1392 1.397 . S
C1391 C1396 1.363 . S
C1392 H1369 0.950 . S
C1392 C1391 1.397 . S
C1392 C1393 1.334 . S
C1393 H1370 0.950 . S
C1393 C1392 1.334 . S
C1393 C1394 1.287 . S
C1394 C1393 1.287 . S
C1394 C1395 1.524 . S
C1394 H1413 0.913 . S
C1395 H1371 0.950 . S
C1395 C1394 1.524 . S
C1395 C1396 1.415 . S
C1396 H1372 0.950 . S
C1396 C1391 1.363 . S
C1396 C1395 1.415 . S
C1397 H1373 0.951 . S
C1397 C1398 1.366 . S
C1397 C1399 1.388 . S
C1398 C1397 1.366 . S
C1398 C1402 1.385 . S
C1399 H1374 0.951 . S
C1399 C1397 1.388 . S
C1399 C1400 1.366 . S
C1400 C1399 1.366 . S
C1400 C1401 1.414 . S
C1400 C1403 1.499 . S
C1401 H1375 0.950 . S
C1401 C1400 1.414 . S
C1401 C1402 1.374 . S
C1402 H1376 0.950 . S
C1402 C1398 1.385 . S
C1402 C1401 1.374 . S
C1403 C1400 1.499 . S
C1403 C1404 1.373 . S
C1403 C1405 1.389 . S
C1404 H1377 0.950 . S
C1404 C1390 1.377 . S
C1404 C1403 1.373 . S
C1405 C1389 1.377 . S
C1405 C1403 1.389 . S
C1405 C1406 1.524 . S
C1406 C1405 1.524 . S
C1406 C1407 1.397 . S
C1406 C1411 1.363 . S
C1407 H1378 0.950 . S
C1407 C1406 1.397 . S
C1407 C1408 1.334 . S
C1408 H1379 0.950 . S
C1408 C1407 1.334 . S
C1408 C1409 1.287 . S
C1409 C1408 1.287 . S
C1409 C1410 1.524 . S
C1409 H1412 0.999 . S
C1410 H1380 0.950 . S
C1410 C1409 1.524 . S
C1410 C1411 1.415 . S
C1411 H1381 0.950 . S
C1411 C1406 1.363 . S
C1411 C1410 1.415 . S
H1412 C1409 0.999 . S
H1413 C1394 0.913 . S
H1414 C1432 0.951 . S
H1415 C1434 0.951 . S
H1416 C1436 0.950 . S
H1417 C1437 0.950 . S
H1418 C1439 0.950 . S
H1419 C1442 0.950 . S
H1420 C1443 0.950 . S
H1421 C1445 0.950 . S
H1422 C1446 0.950 . S
H1423 C1447 0.951 . S
H1424 C1449 0.951 . S
H1425 C1451 0.950 . S
H1426 C1452 0.950 . S
H1427 C1454 0.950 . S
H1428 C1457 0.950 . S
H1429 C1458 0.950 . S
H1430 C1460 0.950 . S
H1431 C1461 0.950 . S
C1432 H1414 0.951 . S
C1432 C1433 1.366 . S
C1432 C1434 1.388 . S
C1433 C1432 1.366 . S
C1433 C1437 1.385 . S
C1434 H1415 0.951 . S
C1434 C1432 1.388 . S
C1434 C1435 1.366 . S
C1435 C1434 1.366 . S
C1435 C1436 1.414 . S
C1435 C1438 1.499 . S
C1436 H1416 0.950 . S
C1436 C1435 1.414 . S
C1436 C1437 1.374 . S
C1437 H1417 0.950 . S
C1437 C1433 1.385 . S
C1437 C1436 1.374 . S
C1438 C1435 1.499 . S
C1438 C1439 1.373 . S
C1438 C1440 1.389 . S
C1439 H1418 0.950 . S
C1439 C1438 1.373 . S
C1439 C1455 1.377 . S
C1440 C1438 1.389 . S
C1440 C1441 1.524 . S
C1440 C1454 1.377 . S
C1441 C1440 1.524 . S
C1441 C1442 1.397 . S
C1441 C1446 1.363 . S
C1442 H1419 0.950 . S
C1442 C1441 1.397 . S
C1442 C1443 1.334 . S
C1443 H1420 0.950 . S
C1443 C1442 1.334 . S
C1443 C1444 1.287 . S
C1444 C1443 1.287 . S
C1444 C1445 1.524 . S
C1444 H1463 0.913 . S
C1445 H1421 0.950 . S
C1445 C1444 1.524 . S
C1445 C1446 1.415 . S
C1446 H1422 0.950 . S
C1446 C1441 1.363 . S
C1446 C1445 1.415 . S
C1447 H1423 0.951 . S
C1447 C1448 1.366 . S
C1447 C1449 1.388 . S
C1448 C1447 1.366 . S
C1448 C1452 1.385 . S
C1449 H1424 0.951 . S
C1449 C1447 1.388 . S
C1449 C1450 1.366 . S
C1450 C1449 1.366 . S
C1450 C1451 1.414 . S
C1450 C1453 1.499 . S
C1451 H1425 0.950 . S
C1451 C1450 1.414 . S
C1451 C1452 1.374 . S
C1452 H1426 0.950 . S
C1452 C1448 1.385 . S
C1452 C1451 1.374 . S
C1453 C1450 1.499 . S
C1453 C1454 1.373 . S
C1453 C1455 1.389 . S
C1454 H1427 0.950 . S
C1454 C1440 1.377 . S
C1454 C1453 1.373 . S
C1455 C1439 1.377 . S
C1455 C1453 1.389 . S
C1455 C1456 1.524 . S
C1456 C1455 1.524 . S
C1456 C1457 1.397 . S
C1456 C1461 1.363 . S
C1457 H1428 0.950 . S
C1457 C1456 1.397 . S
C1457 C1458 1.334 . S
C1458 H1429 0.950 . S
C1458 C1457 1.334 . S
C1458 C1459 1.287 . S
C1459 C1458 1.287 . S
C1459 C1460 1.524 . S
C1459 H1462 0.999 . S
C1460 H1430 0.950 . S
C1460 C1459 1.524 . S
C1460 C1461 1.415 . S
C1461 H1431 0.950 . S
C1461 C1456 1.363 . S
C1461 C1460 1.415 . S
H1462 C1459 0.999 . S
H1463 C1444 0.913 . S
C283 N1 1.075 . S
C298 C119 1.104 . S
C333 N18 1.161 . S
C348 C159 1.202 . S
C398 C193 1.672 . S
C383 N28 1.698 . S
C433 N40 2.821 . S
C448 C234 2.823 . S
C498 C154 1.823 . S
C483 N5 1.816 . S
C548 C114 1.903 . S
C533 N14 1.827 . S
C598 C242 1.590 . S
C583 N31 1.600 . S
C648 C203 1.449 . S
C633 N41 1.477 . S
C683 N2 0.962 . S
C698 C239 0.966 . S
C748 C162 2.166 1_556 S
C733 N27 2.216 . S
C783 N44 2.549 . S
C798 C122 2.571 1_655 S
C833 N15 1.135 . S
C848 C190 1.156 . S
C898 C110 1.739 . S
C883 N57 1.773 . S
C933 N70 0.836 . S
C948 C150 0.853 . S
C983 N79 2.003 . S
C998 C202 2.049 . S
C1033 N93 2.525 . S
C1048 C243 2.467 . S
C1083 N54 1.268 . S
C1098 C163 1.286 . S
C1148 C123 2.554 1_655 S
C1133 N66 2.544 . S
C1198 C233 0.924 . S
C1183 N80 0.925 . S
C1248 C194 1.700 . S
C1233 N96 1.746 . S
C1283 N53 1.050 . S
C1298 C230 1.068 . S
C1348 C153 1.609 . S
C1333 N83 1.580 . S
C1398 C113 2.541 . S
C1383 N92 2.667 . S
C1433 N67 1.410 . S
C1448 C199 1.427 . S
