# Generated by pormake.
# Topology rtl, (3,6)-cn, num edge types: 1
# Building blocks:
#     Node 0, Type 0, BuildingBlock: BELTOD_clean_linker_0, # of connection points: 3
#     Node 1, Type 0, BuildingBlock: BELTOD_clean_linker_0, # of connection points: 3
#     Node 2, Type 0, BuildingBlock: BELTOD_clean_linker_0, # of connection points: 3
#     Node 3, Type 0, BuildingBlock: BELTOD_clean_linker_0, # of connection points: 3
#     Node 4, Type 1, BuildingBlock: CIFDUS_clean_sbu_1, # of connection points: 6
#     Node 5, Type 1, BuildingBlock: CIFDUS_clean_sbu_1, # of connection points: 6
#     Edge 6, Type (0, 1), BuildingBlock: TEMPAE_clean_linker_10, # of connection points: 2
#     Edge 7, Type (0, 1), BuildingBlock: TEMPAE_clean_linker_10, # of connection points: 2
#     Edge 8, Type (0, 1), BuildingBlock: TEMPAE_clean_linker_10, # of connection points: 2
#     Edge 9, Type (0, 1), BuildingBlock: TEMPAE_clean_linker_10, # of connection points: 2
#     Edge 10, Type (0, 1), BuildingBlock: TEMPAE_clean_linker_10, # of connection points: 2
#     Edge 11, Type (0, 1), BuildingBlock: TEMPAE_clean_linker_10, # of connection points: 2
#     Edge 12, Type (0, 1), BuildingBlock: TEMPAE_clean_linker_10, # of connection points: 2
#     Edge 13, Type (0, 1), BuildingBlock: TEMPAE_clean_linker_10, # of connection points: 2
#     Edge 14, Type (0, 1), BuildingBlock: TEMPAE_clean_linker_10, # of connection points: 2
#     Edge 15, Type (0, 1), BuildingBlock: TEMPAE_clean_linker_10, # of connection points: 2
#     Edge 16, Type (0, 1), BuildingBlock: TEMPAE_clean_linker_10, # of connection points: 2
#     Edge 17, Type (0, 1), BuildingBlock: TEMPAE_clean_linker_10, # of connection points: 2
# Relax obj value: 0.026
# Max RMSD: 0.063
# Mean RMSD: 0.044
data_MOF--net-rtl--node1-CIFDUS_clean_sbu_1--node2-BELTOD_clean_linker_0--edge1-TEMPAE_clean_linker_10
_symmetry_space_group_name_H-M    P1
_symmetry_Int_Tables_number       1
_symmetry_cell_setting            triclinic
loop_
_symmetry_equiv_pos_as_xyz
'x, y, z'
_cell_length_a     35.504488
_cell_length_b     39.883533
_cell_length_c     27.590885
_cell_angle_alpha  89.321001
_cell_angle_beta   97.942631
_cell_angle_gamma 89.874264
loop_
_atom_site_label
_atom_site_type_symbol
_atom_site_fract_x
_atom_site_fract_y
_atom_site_fract_z
_atom_type_partial_charge
P0 P 0.30794 0.91869 0.09711 0.0
H1 H 0.33187 0.92907 0.20118 0.0
H2 H 0.29705 0.94311 0.26921 0.0
H3 H 0.1914 0.94052 0.17085 0.0
H4 H 0.22614 0.92634 0.10329 0.0
H5 H 0.38115 0.89119 0.07923 0.0
H6 H 0.40683 0.83429 0.08206 0.0
H7 H 0.30239 0.79688 0.12636 0.0
H8 H 0.27775 0.8542 0.12562 0.0
H9 H 0.28304 0.97834 0.0389 0.0
H10 H 0.26659 0.87149 0.02751 0.0
O11 O 0.34355 0.94616 0.10001 0.0
H12 H 0.24335 0.98654 0.95975 0.0
H13 H 0.22631 0.87944 0.94946 0.0
C14 C 0.28168 0.92718 0.14708 0.0
C15 C 0.30119 0.93144 0.19437 0.0
C16 C 0.28131 0.93938 0.23317 0.0
C17 C 0.24159 0.94335 0.22515 0.0
C18 C 0.22209 0.93827 0.17787 0.0
C19 C 0.24194 0.93006 0.13924 0.0
C20 C 0.32776 0.87694 0.10287 0.0
C21 C 0.36404 0.87079 0.09033 0.0
C22 C 0.37854 0.83812 0.09147 0.0
C23 C 0.35672 0.8108 0.10436 0.0
C24 C 0.32035 0.81724 0.11717 0.0
C25 C 0.3061 0.85001 0.11659 0.0
C26 C 0.2785 0.92429 0.03872 0.0
C27 C 0.27094 0.95664 0.01934 0.0
C28 C 0.24792 0.9613 0.97428 0.0
C29 C 0.23175 0.93361 0.9479 0.0
C30 C 0.23885 0.90128 0.96815 0.0
C31 C 0.26189 0.8967 0.0131 0.0
P32 P 0.78715 0.62513 0.58512 0.0
H33 H 0.79899 0.59057 0.49534 0.0
H34 H 0.7576 0.58104 0.41808 0.0
H35 H 0.66806 0.63752 0.47061 0.0
H36 H 0.70917 0.64621 0.54882 0.0
H37 H 0.85043 0.65375 0.64921 0.0
H38 H 0.87927 0.70942 0.65464 0.0
H39 H 0.79299 0.74526 0.53974 0.0
H40 H 0.76479 0.68942 0.53387 0.0
H41 H 0.76223 0.56048 0.61745 0.0
H42 H 0.75397 0.66364 0.6598 0.0
O43 O 0.82432 0.59916 0.58768 0.0
H44 H 0.72796 0.54283 0.6844 0.0
H45 H 0.71923 0.64625 0.7266 0.0
C46 C 0.75705 0.61901 0.52784 0.0
C47 C 0.77045 0.60082 0.49048 0.0
C48 C 0.74688 0.59537 0.4464 0.0
C49 C 0.70987 0.60862 0.43877 0.0
C50 C 0.69662 0.62723 0.47585 0.0
C51 C 0.71998 0.63213 0.52034 0.0
C52 C 0.80571 0.66724 0.59087 0.0
C53 C 0.8376 0.67365 0.62538 0.0
C54 C 0.85392 0.70557 0.62865 0.0
C55 C 0.83851 0.73183 0.59755 0.0
C56 C 0.80587 0.7255 0.5638 0.0
C57 C 0.78957 0.69351 0.56059 0.0
C58 C 0.76121 0.61325 0.63426 0.0
C59 C 0.75305 0.57932 0.64128 0.0
C60 C 0.73326 0.56929 0.67937 0.0
C61 C 0.72117 0.59308 0.71116 0.0
C62 C 0.72884 0.62723 0.70338 0.0
C63 C 0.74857 0.63724 0.66509 0.0
P64 P 0.79855 0.18578 0.99219 0.0
H65 H 0.80534 0.20475 0.89198 0.0
H66 H 0.81675 0.17157 0.82148 0.0
H67 H 0.79588 0.08081 0.90026 0.0
H68 H 0.78419 0.11419 0.97064 0.0
H69 H 0.795 0.25304 0.02975 0.0
H70 H 0.74389 0.29371 0.02908 0.0
H71 H 0.66374 0.22148 0.96013 0.0
H72 H 0.71593 0.18078 0.95976 0.0
H73 H 0.85779 0.13727 0.02299 0.0
H74 H 0.75988 0.17695 0.0801 0.0
O75 O 0.83751 0.20917 0.9925 0.0
H76 H 0.87838 0.10896 0.1013 0.0
H77 H 0.78048 0.14839 0.15869 0.0
C78 C 0.79477 0.1619 0.93681 0.0
C79 C 0.80203 0.17778 0.89351 0.0
C80 C 0.80843 0.15879 0.85318 0.0
C81 C 0.80769 0.12358 0.85567 0.0
C82 C 0.7971 0.1079 0.89765 0.0
C83 C 0.79042 0.12697 0.93787 0.0
C84 C 0.75935 0.21422 0.99375 0.0
C85 C 0.76648 0.24587 0.01438 0.0
C86 C 0.73707 0.26905 0.01443 0.0
C87 C 0.69968 0.26093 0.9944 0.0
C88 C 0.69234 0.22866 0.97513 0.0
C89 C 0.72203 0.20539 0.975 0.0
C90 C 0.80752 0.15936 0.04587 0.0
C91 C 0.84028 0.13927 0.05203 0.0
C92 C 0.85208 0.12322 0.09671 0.0
C93 C 0.83121 0.12696 0.13596 0.0
C94 C 0.79696 0.1452 0.12882 0.0
C95 C 0.78527 0.16154 0.08401 0.0
P96 P 0.2705 0.36643 0.48883 0.0
H97 H 0.27795 0.3373 0.58633 0.0
H98 H 0.2969 0.36101 0.66736 0.0
H99 H 0.29118 0.46052 0.60337 0.0
H100 H 0.27153 0.43676 0.52251 0.0
H101 H 0.25608 0.31053 0.42324 0.0
H102 H 0.20651 0.26766 0.41324 0.0
H103 H 0.14675 0.31877 0.51677 0.0
H104 H 0.1968 0.36174 0.52715 0.0
H105 H 0.32671 0.41632 0.47239 0.0
H106 H 0.22027 0.3808 0.3961 0.0
O107 O 0.30923 0.34244 0.49041 0.0
H108 H 0.33725 0.44904 0.4002 0.0
H109 H 0.23126 0.41293 0.32319 0.0
C110 C 0.27398 0.38517 0.54833 0.0
C111 C 0.27973 0.36429 0.58992 0.0
C112 C 0.29051 0.37785 0.63619 0.0
C113 C 0.29604 0.41254 0.64145 0.0
C114 C 0.28767 0.43363 0.60013 0.0
C115 C 0.27646 0.42004 0.5539 0.0
C116 C 0.23047 0.33877 0.47673 0.0
C117 C 0.23207 0.31281 0.44332 0.0
C118 C 0.20372 0.2885 0.43736 0.0
C119 C 0.17302 0.29008 0.46422 0.0
C120 C 0.17006 0.31732 0.49535 0.0
C121 C 0.19873 0.34163 0.50158 0.0
C122 C 0.27269 0.39624 0.43979 0.0
C123 C 0.30505 0.41637 0.44061 0.0
C124 C 0.311 0.43512 0.39935 0.0
C125 C 0.285 0.43355 0.35616 0.0
C126 C 0.25168 0.41458 0.35609 0.0
C127 C 0.24545 0.39619 0.39776 0.0
O128 O 0.97759 0.03084 0.48281 0.0
Mn129 Mn 0.01334 0.00997 0.54352 0.0
O130 O 0.94799 0.98808 0.44269 0.0
Mn131 Mn 0.98218 0.95787 0.47318 0.0
O132 O 0.04935 0.98664 0.6038 0.0
O133 O 0.03521 0.05978 0.54755 0.0
Mn134 Mn 0.0502 0.05048 0.61097 0.0
O135 O 0.97271 0.02256 0.58812 0.0
O136 O 0.09252 0.02454 0.62119 0.0
O137 O 0.05443 0.99774 0.49727 0.0
O138 O 0.02789 0.95658 0.45003 0.0
O139 O 0.06198 0.09264 0.61034 0.0
O140 O 0.01192 0.04387 0.64918 0.0
C141 C 0.97261 0.93315 0.53565 0.0
C142 C 0.95336 0.01919 0.44823 0.0
C143 C 0.08284 0.99463 0.62393 0.0
C144 C 0.04888 0.08907 0.56445 0.0
C145 C 0.97883 0.03501 0.63091 0.0
C146 C 0.05538 0.97622 0.46289 0.0
O147 O 0.98841 0.963 0.53732 0.0
O148 O 0.96393 0.91934 0.49325 0.0
O149 O 0.53391 0.54455 0.09505 0.0
Mn150 Mn 0.49946 0.52062 0.03724 0.0
O151 O 0.56439 0.50438 0.14278 0.0
Mn152 Mn 0.535 0.47075 0.11339 0.0
O153 O 0.46385 0.49776 0.97943 0.0
O154 O 0.46935 0.56547 0.02731 0.0
Mn155 Mn 0.47303 0.57278 0.96486 0.0
O156 O 0.54016 0.53281 0.98945 0.0
O157 O 0.4479 0.54042 0.92693 0.0
O158 O 0.46008 0.50669 0.08484 0.0
O159 O 0.48818 0.46577 0.13342 0.0
O160 O 0.44561 0.60791 0.97781 0.0
O161 O 0.52156 0.58165 0.95555 0.0
C162 C 0.54658 0.44746 0.05012 0.0
C163 C 0.55801 0.53494 0.13168 0.0
C164 C 0.44581 0.50984 0.93932 0.0
C165 C 0.45027 0.59391 0.02092 0.0
C166 C 0.54583 0.55842 0.96262 0.0
C167 C 0.45975 0.48454 0.1192 0.0
O168 O 0.52857 0.47614 0.04897 0.0
O169 O 0.55801 0.43439 0.09291 0.0
C170 C 0.1086 0.26314 0.45015 0.0
C171 C 0.14782 0.26079 0.46538 0.0
C172 C 0.08493 0.23521 0.4539 0.0
C173 C 0.10087 0.20494 0.47516 0.0
C174 C 0.14069 0.20253 0.48963 0.0
C175 C 0.16365 0.23034 0.48384 0.0
C176 C 0.04283 0.23844 0.43673 0.0
C177 C 0.15891 0.1713 0.51425 0.0
C178 C 0.05032 0.15054 0.55711 0.0
C179 C 0.05021 0.11948 0.5336 0.0
C180 C 0.06414 0.17939 0.53671 0.0
C181 C 0.0762 0.17766 0.4901 0.0
C182 C 0.07091 0.14755 0.46303 0.0
C183 C 0.05844 0.11838 0.4855 0.0
C184 C 0.07037 0.21032 0.56801 0.0
C185 C 0.08117 0.1456 0.41194 0.0
H186 H 0.09652 0.28678 0.4356 0.0
H187 H 0.19403 0.22877 0.49584 0.0
H188 H 0.03215 0.21587 0.4161 0.0
H189 H 0.0272 0.24039 0.4687 0.0
H190 H 0.03608 0.26102 0.41313 0.0
H191 H 0.19033 0.17344 0.52254 0.0
H192 H 0.14737 0.16644 0.54906 0.0
H193 H 0.15215 0.14923 0.49063 0.0
H194 H 0.04285 0.15171 0.59388 0.0
H195 H 0.05783 0.09456 0.46691 0.0
H196 H 0.05924 0.23301 0.54728 0.0
H197 H 0.10133 0.21402 0.57908 0.0
H198 H 0.05658 0.20835 0.60171 0.0
H199 H 0.06889 0.16735 0.38965 0.0
H200 H 0.07086 0.12206 0.39354 0.0
H201 H 0.1125 0.14677 0.41321 0.0
C202 C 0.36368 0.75164 0.13777 0.0
C203 C 0.37126 0.77571 0.10281 0.0
C204 C 0.37585 0.71819 0.1353 0.0
C205 C 0.39637 0.70856 0.09726 0.0
C206 C 0.40477 0.73284 0.0624 0.0
C207 C 0.392 0.76598 0.06549 0.0
C208 C 0.36627 0.69301 0.17294 0.0
C209 C 0.4262 0.72362 0.02076 0.0
C210 C 0.45665 0.6302 0.09317 0.0
C211 C 0.43311 0.61146 0.05883 0.0
C212 C 0.44378 0.66079 0.11006 0.0
C213 C 0.40689 0.67276 0.0914 0.0
C214 C 0.38175 0.65186 0.06115 0.0
C215 C 0.395 0.62109 0.04616 0.0
C216 C 0.47115 0.68195 0.14328 0.0
C217 C 0.34249 0.66371 0.03948 0.0
H218 H 0.3482 0.75891 0.16719 0.0
H219 H 0.39744 0.78409 0.03771 0.0
H220 H 0.34834 0.6728 0.15474 0.0
H221 H 0.39269 0.68105 0.19157 0.0
H222 H 0.35086 0.70461 0.20093 0.0
H223 H 0.43253 0.74583 0.99862 0.0
H224 H 0.45341 0.71099 0.03507 0.0
H225 H 0.40917 0.7057 0.99632 0.0
H226 H 0.48631 0.62309 0.1023 0.0
H227 H 0.37702 0.60675 0.01894 0.0
H228 H 0.45655 0.69402 0.17161 0.0
H229 H 0.48243 0.70219 0.12143 0.0
H230 H 0.49554 0.66691 0.1616 0.0
H231 H 0.32699 0.67392 0.06831 0.0
H232 H 0.3253 0.64332 0.02041 0.0
H233 H 0.34502 0.68426 0.01263 0.0
C234 C 0.8717 0.77976 0.64405 0.0
C235 C 0.8574 0.76524 0.59914 0.0
C236 C 0.89162 0.81027 0.64592 0.0
C237 C 0.89753 0.82666 0.60187 0.0
C238 C 0.88241 0.81251 0.55639 0.0
C239 C 0.86253 0.78206 0.55561 0.0
C240 C 0.90684 0.82474 0.69499 0.0
C241 C 0.88822 0.82898 0.50839 0.0
C242 C 0.92455 0.91781 0.58696 0.0
C243 C 0.96213 0.91429 0.57761 0.0
C244 C 0.90369 0.88975 0.59928 0.0
C245 C 0.92115 0.85766 0.60271 0.0
C246 C 0.96057 0.85496 0.59986 0.0
C247 C 0.98068 0.88347 0.58786 0.0
C248 C 0.86187 0.89393 0.60245 0.0
C249 C 0.98044 0.82133 0.60322 0.0
H250 H 0.86737 0.76717 0.67786 0.0
H251 H 0.85202 0.77085 0.52076 0.0
H252 H 0.93825 0.82681 0.69852 0.0
H253 H 0.8954 0.85043 0.69793 0.0
H254 H 0.89934 0.80922 0.72593 0.0
H255 H 0.87299 0.81571 0.47634 0.0
H256 H 0.87814 0.85537 0.5072 0.0
H257 H 0.91899 0.82942 0.50497 0.0
H258 H 0.9099 0.94146 0.57808 0.0
H259 H 0.00953 0.88057 0.57969 0.0
H260 H 0.85327 0.87824 0.63248 0.0
H261 H 0.84515 0.8856 0.56772 0.0
H262 H 0.85439 0.92049 0.60837 0.0
H263 H 0.97346 0.80671 0.63522 0.0
H264 H 0.01183 0.8239 0.60621 0.0
H265 H 0.97046 0.80669 0.56996 0.0
C266 C 0.6678 0.30818 0.03202 0.0
C267 C 0.66918 0.28677 0.99234 0.0
C268 C 0.64205 0.33506 0.02899 0.0
C269 C 0.61691 0.34082 0.98507 0.0
C270 C 0.61705 0.31854 0.94555 0.0
C271 C 0.6432 0.29176 0.94965 0.0
C272 C 0.64219 0.35757 0.07273 0.0
C273 C 0.59079 0.32377 0.89819 0.0
C274 C 0.53447 0.39555 0.00719 0.0
C275 C 0.55162 0.42714 0.00765 0.0
C276 C 0.55431 0.36677 0.99652 0.0
C277 C 0.59063 0.37021 0.9815 0.0
C278 C 0.60445 0.4027 0.97236 0.0
C279 C 0.58516 0.43098 0.98681 0.0
C280 C 0.53902 0.33296 0.00919 0.0
C281 C 0.64191 0.40744 0.95326 0.0
H282 H 0.68724 0.30408 0.06549 0.0
H283 H 0.64427 0.27549 0.91867 0.0
H284 H 0.65127 0.38317 0.06344 0.0
H285 H 0.6131 0.35961 0.08286 0.0
H286 H 0.66169 0.34829 0.10512 0.0
H287 H 0.58999 0.30148 0.8743 0.0
H288 H 0.56142 0.32948 0.90509 0.0
H289 H 0.60077 0.3456 0.87825 0.0
H290 H 0.50861 0.39268 0.02371 0.0
H291 H 0.5987 0.45534 0.98738 0.0
H292 H 0.55428 0.32437 0.04505 0.0
H293 H 0.5438 0.31394 0.98172 0.0
H294 H 0.50815 0.3341 0.01214 0.0
H295 H 0.66558 0.40378 0.98362 0.0
H296 H 0.64428 0.43303 0.93765 0.0
H297 H 0.6454 0.38873 0.92473 0.0
C298 C 0.22624 0.93542 0.31063 0.0
C299 C 0.22033 0.95279 0.26573 0.0
C300 C 0.20382 0.94221 0.3476 0.0
C301 C 0.17514 0.96722 0.33965 0.0
C302 C 0.17053 0.98605 0.29535 0.0
C303 C 0.19302 0.97847 0.25885 0.0
C304 C 0.20914 0.92108 0.39381 0.0
C305 C 0.14035 0.01293 0.28533 0.0
C306 C 0.085 0.95154 0.39471 0.0
C307 C 0.08783 0.97403 0.43403 0.0
C308 C 0.11323 0.94918 0.36437 0.0
C309 C 0.14582 0.96959 0.37331 0.0
C310 C 0.14948 0.99215 0.41311 0.0
C311 C 0.12031 0.99421 0.44307 0.0
C312 C 0.1077 0.92503 0.32208 0.0
C313 C 0.1841 0.01406 0.42386 0.0
H314 H 0.24721 0.91544 0.31599 0.0
H315 H 0.1888 0.99229 0.22443 0.0
H316 H 0.20994 0.93715 0.42647 0.0
H317 H 0.18465 0.90383 0.39373 0.0
H318 H 0.23562 0.90584 0.39725 0.0
H319 H 0.14289 0.02747 0.25134 0.0
H320 H 0.11177 0.00126 0.28152 0.0
H321 H 0.14217 0.03049 0.31644 0.0
H322 H 0.06017 0.93575 0.38676 0.0
H323 H 0.12284 0.01165 0.47315 0.0
H324 H 0.13178 0.90703 0.32496 0.0
H325 H 0.10717 0.93898 0.28696 0.0
H326 H 0.08086 0.91058 0.32063 0.0
H327 H 0.20972 0.99811 0.43372 0.0
H328 H 0.18181 0.03158 0.45432 0.0
H329 H 0.18845 0.02883 0.39077 0.0
C330 C 0.67158 0.55819 0.74463 0.0
C331 C 0.70045 0.58233 0.75208 0.0
C332 C 0.65029 0.54932 0.78214 0.0
C333 C 0.65807 0.56493 0.82829 0.0
C334 C 0.68834 0.58815 0.83666 0.0
C335 C 0.70906 0.59663 0.79848 0.0
C336 C 0.61775 0.52504 0.77119 0.0
C337 C 0.69743 0.60549 0.8852 0.0
C338 C 0.57451 0.58443 0.89422 0.0
C339 C 0.57689 0.55971 0.93141 0.0
C340 C 0.60021 0.5857 0.86038 0.0
C341 C 0.6303 0.56223 0.86403 0.0
C342 C 0.63367 0.53738 0.90172 0.0
C343 C 0.60658 0.53614 0.93481 0.0
C344 C 0.59476 0.61222 0.82029 0.0
C345 C 0.66562 0.51207 0.90671 0.0
H346 H 0.6645 0.54722 0.70878 0.0
H347 H 0.73176 0.61485 0.80478 0.0
H348 H 0.61781 0.50647 0.80144 0.0
H349 H 0.5904 0.53895 0.7679 0.0
H350 H 0.61895 0.51142 0.73653 0.0
H351 H 0.7241 0.62025 0.88757 0.0
H352 H 0.67382 0.62274 0.89055 0.0
H353 H 0.70016 0.58681 0.91561 0.0
H354 H 0.55166 0.60273 0.89038 0.0
H355 H 0.60859 0.51683 0.96302 0.0
H356 H 0.59227 0.60028 0.78388 0.0
H357 H 0.6198 0.62902 0.82341 0.0
H358 H 0.56896 0.62781 0.82163 0.0
H359 H 0.66307 0.49618 0.8737 0.0
H360 H 0.66563 0.49561 0.93946 0.0
H361 H 0.6934 0.5251 0.9092 0.0
C362 C 0.82755 0.09296 0.21218 0.0
C363 C 0.84757 0.11497 0.18529 0.0
C364 C 0.84424 0.08048 0.25805 0.0
C365 C 0.88133 0.09096 0.27763 0.0
C366 C 0.90095 0.11417 0.25121 0.0
C367 C 0.88393 0.12566 0.20518 0.0
C368 C 0.82289 0.05508 0.28465 0.0
C369 C 0.94058 0.12579 0.27056 0.0
C370 C 0.91777 0.07037 0.41148 0.0
C371 C 0.93745 0.04048 0.40637 0.0
C372 C 0.89946 0.08754 0.3697 0.0
C373 C 0.9015 0.07448 0.32246 0.0
C374 C 0.92286 0.0451 0.31754 0.0
C375 C 0.94043 0.02855 0.35946 0.0
C376 C 0.87718 0.11905 0.37598 0.0
C377 C 0.92627 0.03038 0.26806 0.0
H378 H 0.79944 0.0847 0.1966 0.0
H379 H 0.89918 0.14299 0.18443 0.0
H380 H 0.83867 0.03093 0.28816 0.0
H381 H 0.82077 0.06376 0.32224 0.0
H382 H 0.79378 0.0505 0.26544 0.0
H383 H 0.95022 0.14654 0.24809 0.0
H384 H 0.9418 0.13433 0.30887 0.0
H385 H 0.96086 0.10456 0.27073 0.0
H386 H 0.91555 0.07956 0.4478 0.0
H387 H 0.95626 0.00566 0.35555 0.0
H388 H 0.84657 0.11469 0.36325 0.0
H389 H 0.88651 0.13968 0.35311 0.0
H390 H 0.88041 0.12719 0.41469 0.0
H391 H 0.89799 0.02159 0.25084 0.0
H392 H 0.94643 0.00887 0.27065 0.0
H393 H 0.93602 0.04966 0.24336 0.0
C394 C 0.30219 0.41648 0.73292 0.0
C395 C 0.31451 0.42603 0.68864 0.0
C396 C 0.32157 0.42721 0.7779 0.0
C397 C 0.35433 0.44745 0.77847 0.0
C398 C 0.36663 0.45741 0.73378 0.0
C399 C 0.34648 0.44666 0.68944 0.0
C400 C 0.30694 0.41711 0.82475 0.0
C401 C 0.40125 0.47924 0.73277 0.0
C402 C 0.38617 0.50557 0.88284 0.0
C403 C 0.41922 0.48959 0.90595 0.0
C404 C 0.36393 0.49144 0.84266 0.0
C405 C 0.37458 0.46009 0.82544 0.0
C406 C 0.40635 0.44254 0.85078 0.0
C407 C 0.42852 0.45758 0.89104 0.0
C408 C 0.33071 0.51133 0.8166 0.0
C409 C 0.41811 0.40884 0.83354 0.0
H410 H 0.27734 0.40067 0.73229 0.0
H411 H 0.35639 0.45367 0.65528 0.0
H412 H 0.32947 0.40352 0.84926 0.0
H413 H 0.29953 0.43978 0.84441 0.0
H414 H 0.2814 0.40088 0.81811 0.0
H415 H 0.40656 0.48527 0.69489 0.0
H416 H 0.39778 0.50308 0.75203 0.0
H417 H 0.42672 0.46633 0.75234 0.0
H418 H 0.37875 0.53027 0.89474 0.0
H419 H 0.45415 0.44531 0.90874 0.0
H420 H 0.30494 0.49548 0.81008 0.0
H421 H 0.33738 0.51992 0.78034 0.0
H422 H 0.3241 0.53372 0.83751 0.0
H423 H 0.39353 0.39148 0.82948 0.0
H424 H 0.44166 0.39735 0.85909 0.0
H425 H 0.42749 0.41169 0.79698 0.0
C426 C 0.67427 0.62925 0.35974 0.0
C427 C 0.68511 0.60263 0.39222 0.0
C428 C 0.65227 0.62353 0.31425 0.0
C429 C 0.64021 0.59056 0.30177 0.0
C430 C 0.65037 0.56372 0.33525 0.0
C431 C 0.67316 0.57007 0.37988 0.0
C432 C 0.64254 0.65257 0.27917 0.0
C433 C 0.63762 0.52825 0.32371 0.0
C434 C 0.55783 0.57169 0.20295 0.0
C435 C 0.57722 0.55909 0.16615 0.0
C436 C 0.57797 0.5839 0.2466 0.0
C437 C 0.61827 0.58361 0.25301 0.0
C438 C 0.6377 0.57328 0.21419 0.0
C439 C 0.61687 0.56085 0.17135 0.0
C440 C 0.55624 0.59415 0.28741 0.0
C441 C 0.68058 0.57278 0.21935 0.0
H442 H 0.68383 0.65439 0.36949 0.0
H443 H 0.68159 0.5496 0.40533 0.0
H444 H 0.65336 0.64759 0.24407 0.0
H445 H 0.61122 0.6554 0.27086 0.0
H446 H 0.65475 0.67658 0.29401 0.0
H447 H 0.64584 0.51072 0.355 0.0
H448 H 0.60627 0.52747 0.31373 0.0
H449 H 0.6504 0.51916 0.29178 0.0
H450 H 0.52715 0.56924 0.19942 0.0
H451 H 0.63171 0.55022 0.14327 0.0
H452 H 0.56702 0.6183 0.3032 0.0
H453 H 0.56053 0.57501 0.31722 0.0
H454 H 0.52525 0.59663 0.27482 0.0
H455 H 0.69225 0.59723 0.23295 0.0
H456 H 0.69111 0.56731 0.18417 0.0
H457 H 0.69184 0.55328 0.24657 0.0
C458 C 0.81326 0.11073 0.768 0.0
C459 C 0.82344 0.10366 0.81801 0.0
C460 C 0.83285 0.09583 0.73283 0.0
C461 C 0.86376 0.07391 0.74824 0.0
C462 C 0.8728 0.0654 0.79849 0.0
C463 C 0.85237 0.0802 0.83268 0.0
C464 C 0.82212 0.10524 0.67957 0.0
C465 C 0.90616 0.0429 0.81672 0.0
C466 C 0.91543 0.02436 0.65959 0.0
C467 C 0.94719 0.04477 0.65733 0.0
C468 C 0.88718 0.03378 0.68812 0.0
C469 C 0.89067 0.06452 0.71375 0.0
C470 C 0.92189 0.08579 0.7094 0.0
C471 C 0.94977 0.07552 0.68163 0.0
C472 C 0.85437 0.01046 0.69221 0.0
C473 C 0.92658 0.11904 0.73529 0.0
H474 H 0.79079 0.12876 0.75658 0.0
H475 H 0.86078 0.07508 0.87135 0.0
H476 H 0.84474 0.12107 0.66727 0.0
H477 H 0.81967 0.08244 0.65671 0.0
H478 H 0.79483 0.11933 0.67295 0.0
H479 H 0.90648 0.03538 0.85568 0.0
H480 H 0.90569 0.01997 0.79431 0.0
H481 H 0.93305 0.05631 0.81327 0.0
H482 H 0.91341 1.00064 0.64061 0.0
H483 H 0.97395 0.09171 0.67901 0.0
H484 H 0.827 0.02421 0.6839 0.0
H485 H 0.8562 1.00075 0.73032 0.0
H486 H 0.85414 0.98882 0.66718 0.0
H487 H 0.90094 0.13488 0.72503 0.0
H488 H 0.95177 0.13313 0.72644 0.0
H489 H 0.92975 0.11486 0.77548 0.0
C490 C 0.29698 0.42635 0.27008 0.0
C491 C 0.29589 0.4475 0.31007 0.0
C492 C 0.31643 0.43584 0.23118 0.0
C493 C 0.33483 0.46735 0.23219 0.0
C494 C 0.33003 0.49024 0.26976 0.0
C495 C 0.31094 0.47988 0.30863 0.0
C496 C 0.32103 0.41051 0.1922 0.0
C497 C 0.34846 0.52433 0.27166 0.0
C498 C 0.43268 0.46595 0.19326 0.0
C499 C 0.42679 0.48126 0.1467 0.0
C500 C 0.40302 0.46167 0.22107 0.0
C501 C 0.36603 0.4728 0.20204 0.0
C502 C 0.35959 0.48849 0.15519 0.0
C503 C 0.3902 0.49269 0.12799 0.0
C504 C 0.41151 0.44512 0.27106 0.0
C505 C 0.32041 0.50032 0.13361 0.0
H506 H 0.28554 0.40121 0.27121 0.0
H507 H 0.30972 0.49639 0.33933 0.0
H508 H 0.31886 0.42273 0.15561 0.0
H509 H 0.34966 0.39881 0.20008 0.0
H510 H 0.29944 0.39031 0.19102 0.0
H511 H 0.33665 0.54112 0.29771 0.0
H512 H 0.37947 0.52151 0.28356 0.0
H513 H 0.34464 0.53642 0.23488 0.0
H514 H 0.46087 0.45737 0.20853 0.0
H515 H 0.38539 0.5044 0.09201 0.0
H516 H 0.3939 0.4223 0.27268 0.0
H517 H 0.40421 0.46242 0.29958 0.0
H518 H 0.4419 0.43784 0.28032 0.0
H519 H 0.30183 0.4783 0.1246 0.0
H520 H 0.3209 0.51557 0.09975 0.0
H521 H 0.30739 0.51539 0.16053 0.0
C522 C 0.18237 0.96516 0.89037 0.0
C523 C 0.20805 0.93825 0.89918 0.0
C524 C 0.16081 0.97026 0.84413 0.0
C525 C 0.16455 0.94761 0.80583 0.0
C526 C 0.18978 0.92003 0.81479 0.0
C527 C 0.21136 0.91582 0.86112 0.0
C528 C 0.13452 1.00023 0.8361 0.0
C529 C 0.19477 0.89544 0.77497 0.0
C530 C 0.08774 0.95347 0.69437 0.0
C531 C 0.10536 0.97456 0.66334 0.0
C532 C 0.10724 0.9431 0.74019 0.0
C533 C 0.14482 0.95454 0.75532 0.0
C534 C 0.16333 0.97411 0.72272 0.0
C535 C 0.14366 0.98328 0.67696 0.0
C536 C 0.08688 0.92158 0.77354 0.0
C537 C 0.20291 0.9877 0.73758 0.0
H538 H 0.1791 0.98233 0.91967 0.0
H539 H 0.23154 0.89527 0.86716 0.0
H540 H 0.14117 0.01547 0.80448 0.0
H541 H 0.10469 0.99163 0.82733 0.0
H542 H 0.13659 0.01653 0.86873 0.0
H543 H 0.21263 0.87358 0.78899 0.0
H544 H 0.16666 0.88624 0.75771 0.0
H545 H 0.2084 0.90813 0.74594 0.0
H546 H 0.05807 0.94697 0.68444 0.0
H547 H 0.15745 0.99962 0.65313 0.0
H548 H 0.08008 0.93676 0.80465 0.0
H549 H 0.10542 0.90053 0.78902 0.0
H550 H 0.05997 0.9112 0.75425 0.0
H551 H 0.20254 0.00547 0.76817 0.0
H552 H 0.21404 0.00106 0.707 0.0
H553 H 0.2229 0.96715 0.7509 0.0
loop_
_geom_bond_atom_site_label_1
_geom_bond_atom_site_label_2
_geom_bond_distance
_geom_bond_site_symmetry_2
_ccdc_geom_bond_type
P0 O11 1.490 . S
P0 C14 1.812 . S
P0 C20 1.803 . S
P0 C26 1.819 . S
H1 C15 0.941 . S
H2 C16 0.939 . S
H3 C18 0.940 . S
H4 C19 0.940 . S
H5 C21 0.939 . S
H6 C22 0.942 . S
H7 C24 0.940 . S
H8 C25 0.939 . S
H9 C27 0.941 . S
H10 C31 0.939 . S
O11 P0 1.490 . S
H12 C28 0.939 . S
H13 C30 0.940 . S
C14 P0 1.812 . S
C14 C15 1.389 . S
C14 C19 1.391 . S
C15 H1 0.941 . S
C15 C14 1.389 . S
C15 C16 1.397 . S
C16 H2 0.939 . S
C16 C15 1.397 . S
C16 C17 1.378 . S
C17 C16 1.378 . S
C17 C18 1.378 . S
C18 H3 0.940 . S
C18 C17 1.378 . S
C18 C19 1.396 . S
C19 H4 0.940 . S
C19 C14 1.391 . S
C19 C18 1.396 . S
C20 P0 1.803 . S
C20 C21 1.378 . S
C20 C25 1.400 . S
C21 H5 0.939 . S
C21 C20 1.378 . S
C21 C22 1.361 . S
C22 H6 0.942 . S
C22 C21 1.361 . S
C22 C23 1.369 . S
C23 C22 1.369 . S
C23 C24 1.404 . S
C24 H7 0.940 . S
C24 C23 1.404 . S
C24 C25 1.389 . S
C25 H8 0.939 . S
C25 C20 1.400 . S
C25 C24 1.389 . S
C26 P0 1.819 . S
C26 C27 1.391 . S
C26 C31 1.391 . S
C27 H9 0.941 . S
C27 C26 1.391 . S
C27 C28 1.396 1_554 S
C28 H12 0.939 . S
C28 C27 1.396 1_556 S
C28 C29 1.397 . S
C29 C28 1.397 . S
C29 C30 1.385 . S
C30 H13 0.940 . S
C30 C29 1.385 . S
C30 C31 1.388 1_556 S
C31 H10 0.939 . S
C31 C26 1.391 . S
C31 C30 1.388 1_554 S
P32 O43 1.490 . S
P32 C46 1.812 . S
P32 C52 1.803 . S
P32 C58 1.819 . S
H33 C47 0.941 . S
H34 C48 0.939 . S
H35 C50 0.940 . S
H36 C51 0.940 . S
H37 C53 0.939 . S
H38 C54 0.942 . S
H39 C56 0.940 . S
H40 C57 0.939 . S
H41 C59 0.941 . S
H42 C63 0.939 . S
O43 P32 1.490 . S
H44 C60 0.939 . S
H45 C62 0.940 . S
C46 P32 1.812 . S
C46 C47 1.389 . S
C46 C51 1.391 . S
C47 H33 0.941 . S
C47 C46 1.389 . S
C47 C48 1.397 . S
C48 H34 0.939 . S
C48 C47 1.397 . S
C48 C49 1.378 . S
C49 C48 1.378 . S
C49 C50 1.378 . S
C50 H35 0.940 . S
C50 C49 1.378 . S
C50 C51 1.396 . S
C51 H36 0.940 . S
C51 C46 1.391 . S
C51 C50 1.396 . S
C52 P32 1.803 . S
C52 C53 1.378 . S
C52 C57 1.400 . S
C53 H37 0.939 . S
C53 C52 1.378 . S
C53 C54 1.361 . S
C54 H38 0.942 . S
C54 C53 1.361 . S
C54 C55 1.369 . S
C55 C54 1.369 . S
C55 C56 1.404 . S
C56 H39 0.940 . S
C56 C55 1.404 . S
C56 C57 1.389 . S
C57 H40 0.939 . S
C57 C52 1.400 . S
C57 C56 1.389 . S
C58 P32 1.819 . S
C58 C59 1.391 . S
C58 C63 1.391 . S
C59 H41 0.941 . S
C59 C58 1.391 . S
C59 C60 1.396 . S
C60 H44 0.939 . S
C60 C59 1.396 . S
C60 C61 1.397 . S
C61 C60 1.397 . S
C61 C62 1.385 . S
C62 H45 0.940 . S
C62 C61 1.385 . S
C62 C63 1.388 . S
C63 H42 0.939 . S
C63 C58 1.391 . S
C63 C62 1.388 . S
P64 O75 1.490 . S
P64 C78 1.812 1_554 S
P64 C84 1.803 1_554 S
P64 C90 1.819 . S
H65 C79 0.941 . S
H66 C80 0.939 . S
H67 C82 0.940 . S
H68 C83 0.940 . S
H69 C85 0.939 . S
H70 C86 0.942 . S
H71 C88 0.940 . S
H72 C89 0.939 . S
H73 C91 0.941 . S
H74 C95 0.939 . S
O75 P64 1.490 . S
H76 C92 0.939 . S
H77 C94 0.940 . S
C78 P64 1.812 1_556 S
C78 C79 1.389 . S
C78 C83 1.391 . S
C79 H65 0.941 . S
C79 C78 1.389 . S
C79 C80 1.397 . S
C80 H66 0.939 . S
C80 C79 1.397 . S
C80 C81 1.378 . S
C81 C80 1.378 . S
C81 C82 1.378 . S
C82 H67 0.940 . S
C82 C81 1.378 . S
C82 C83 1.396 . S
C83 H68 0.940 . S
C83 C78 1.391 . S
C83 C82 1.396 . S
C84 P64 1.803 1_556 S
C84 C85 1.378 1_556 S
C84 C89 1.400 . S
C85 H69 0.939 . S
C85 C84 1.378 1_554 S
C85 C86 1.361 . S
C86 H70 0.942 . S
C86 C85 1.361 . S
C86 C87 1.369 1_554 S
C87 C86 1.369 1_556 S
C87 C88 1.404 . S
C88 H71 0.940 . S
C88 C87 1.404 . S
C88 C89 1.389 . S
C89 H72 0.939 . S
C89 C84 1.400 . S
C89 C88 1.389 . S
C90 P64 1.819 . S
C90 C91 1.391 . S
C90 C95 1.391 . S
C91 H73 0.941 . S
C91 C90 1.391 . S
C91 C92 1.396 . S
C92 H76 0.939 . S
C92 C91 1.396 . S
C92 C93 1.397 . S
C93 C92 1.397 . S
C93 C94 1.385 . S
C94 H77 0.940 . S
C94 C93 1.385 . S
C94 C95 1.388 . S
C95 H74 0.939 . S
C95 C90 1.391 . S
C95 C94 1.388 . S
P96 O107 1.490 . S
P96 C110 1.812 . S
P96 C116 1.803 . S
P96 C122 1.819 . S
H97 C111 0.941 . S
H98 C112 0.939 . S
H99 C114 0.940 . S
H100 C115 0.940 . S
H101 C117 0.939 . S
H102 C118 0.942 . S
H103 C120 0.940 . S
H104 C121 0.939 . S
H105 C123 0.941 . S
H106 C127 0.939 . S
O107 P96 1.490 . S
H108 C124 0.939 . S
H109 C126 0.940 . S
C110 P96 1.812 . S
C110 C111 1.389 . S
C110 C115 1.391 . S
C111 H97 0.941 . S
C111 C110 1.389 . S
C111 C112 1.397 . S
C112 H98 0.939 . S
C112 C111 1.397 . S
C112 C113 1.378 . S
C113 C112 1.378 . S
C113 C114 1.378 . S
C114 H99 0.940 . S
C114 C113 1.378 . S
C114 C115 1.396 . S
C115 H100 0.940 . S
C115 C110 1.391 . S
C115 C114 1.396 . S
C116 P96 1.803 . S
C116 C117 1.378 . S
C116 C121 1.400 . S
C117 H101 0.939 . S
C117 C116 1.378 . S
C117 C118 1.361 . S
C118 H102 0.942 . S
C118 C117 1.361 . S
C118 C119 1.369 . S
C119 C118 1.369 . S
C119 C120 1.404 . S
C120 H103 0.940 . S
C120 C119 1.404 . S
C120 C121 1.389 . S
C121 H104 0.939 . S
C121 C116 1.400 . S
C121 C120 1.389 . S
C122 P96 1.819 . S
C122 C123 1.391 . S
C122 C127 1.391 . S
C123 H105 0.941 . S
C123 C122 1.391 . S
C123 C124 1.396 . S
C124 H108 0.939 . S
C124 C123 1.396 . S
C124 C125 1.397 . S
C125 C124 1.397 . S
C125 C126 1.385 . S
C126 H109 0.940 . S
C126 C125 1.385 . S
C126 C127 1.388 . S
C127 H106 0.939 . S
C127 C122 1.391 . S
C127 C126 1.388 . S
O128 Mn129 2.163 1_655 S
O128 C142 1.244 . S
Mn129 O128 2.163 1_455 S
Mn129 O132 2.160 1_545 S
Mn129 O133 2.221 . S
Mn129 O135 2.163 1_455 S
Mn129 O137 2.160 1_545 S
Mn129 O147 2.221 1_445 S
O130 Mn131 2.087 1_545 S
O130 C142 1.256 . S
Mn131 O130 2.087 1_565 S
Mn131 O138 2.089 1_655 S
Mn131 O147 2.290 . S
Mn131 O148 2.251 . S
O132 Mn129 2.160 1_565 S
O132 C143 1.239 . S
O133 Mn129 2.221 . S
O133 Mn134 2.290 . S
O133 C144 1.278 . S
Mn134 O133 2.290 . S
Mn134 O136 2.089 . S
Mn134 O139 2.251 . S
Mn134 O140 2.087 1_455 S
O135 Mn129 2.163 1_655 S
O135 C145 1.244 . S
O136 Mn134 2.089 . S
O136 C143 1.256 1_545 S
O137 Mn129 2.160 1_565 S
O137 C146 1.239 . S
O138 Mn131 2.089 1_455 S
O138 C146 1.256 . S
O139 Mn134 2.251 . S
O139 C144 1.241 . S
O140 Mn134 2.087 1_655 S
O140 C145 1.256 . S
C141 O147 1.278 . S
C141 O148 1.241 . S
C142 O128 1.244 . S
C142 O130 1.256 . S
C143 O132 1.239 . S
C143 O136 1.256 1_565 S
C144 O133 1.278 . S
C144 O139 1.241 . S
C145 O135 1.244 . S
C145 O140 1.256 . S
C146 O137 1.239 . S
C146 O138 1.256 . S
O147 Mn129 2.221 1_665 S
O147 Mn131 2.290 . S
O147 C141 1.278 . S
O148 Mn131 2.251 . S
O148 C141 1.241 . S
O149 Mn150 2.163 . S
O149 C163 1.244 . S
Mn150 O149 2.163 . S
Mn150 O153 2.160 1_554 S
Mn150 O154 2.221 . S
Mn150 O156 2.163 1_554 S
Mn150 O158 2.160 . S
Mn150 O168 2.221 . S
O151 Mn152 2.087 . S
O151 C163 1.256 . S
Mn152 O151 2.087 . S
Mn152 O159 2.089 . S
Mn152 O168 2.290 . S
Mn152 O169 2.251 . S
O153 Mn150 2.160 1_556 S
O153 C164 1.239 . S
O154 Mn150 2.221 . S
O154 Mn155 2.290 1_554 S
O154 C165 1.278 . S
Mn155 O154 2.290 1_556 S
Mn155 O157 2.089 . S
Mn155 O160 2.251 . S
Mn155 O161 2.087 . S
O156 Mn150 2.163 1_556 S
O156 C166 1.244 . S
O157 Mn155 2.089 . S
O157 C164 1.256 . S
O158 Mn150 2.160 . S
O158 C167 1.239 . S
O159 Mn152 2.089 . S
O159 C167 1.256 . S
O160 Mn155 2.251 . S
O160 C165 1.241 1_556 S
O161 Mn155 2.087 . S
O161 C166 1.256 . S
C162 O168 1.278 . S
C162 O169 1.241 . S
C163 O149 1.244 . S
C163 O151 1.256 . S
C164 O153 1.239 . S
C164 O157 1.256 . S
C165 O154 1.278 . S
C165 O160 1.241 1_554 S
C166 O156 1.244 . S
C166 O161 1.256 . S
C167 O158 1.239 . S
C167 O159 1.256 . S
O168 Mn150 2.221 . S
O168 Mn152 2.290 . S
O168 C162 1.278 . S
O169 Mn152 2.251 . S
O169 C162 1.241 . S
C170 C171 1.391 . S
C170 C172 1.394 . S
C170 H186 0.931 . S
C171 C170 1.391 . S
C171 C175 1.376 . S
C172 C170 1.394 . S
C172 C173 1.369 . S
C172 C176 1.531 . S
C173 C172 1.369 . S
C173 C174 1.410 . S
C173 C181 1.503 . S
C174 C173 1.410 . S
C174 C175 1.392 . S
C174 C177 1.511 . S
C175 C171 1.376 . S
C175 C174 1.392 . S
C175 H187 0.929 . S
C176 C172 1.531 . S
C176 H188 0.960 . S
C176 H189 0.962 . S
C176 H190 0.960 . S
C177 C174 1.511 . S
C177 H191 0.961 . S
C177 H192 0.961 . S
C177 H193 0.961 . S
C178 C179 1.370 . S
C178 C180 1.363 . S
C178 H194 0.931 . S
C179 C178 1.370 . S
C179 C183 1.408 . S
C180 C178 1.363 . S
C180 C181 1.370 . S
C180 C184 1.524 . S
C181 C173 1.503 . S
C181 C180 1.370 . S
C181 C182 1.403 . S
C182 C181 1.403 . S
C182 C183 1.404 . S
C182 C185 1.539 . S
C183 C179 1.408 . S
C183 C182 1.404 . S
C183 H195 0.930 . S
C184 C180 1.524 . S
C184 H196 0.956 . S
C184 H197 0.961 . S
C184 H198 0.961 . S
C185 C182 1.539 . S
C185 H199 0.958 . S
C185 H200 0.961 . S
C185 H201 0.960 . S
H186 C170 0.931 . S
H187 C175 0.929 . S
H188 C176 0.960 . S
H189 C176 0.962 . S
H190 C176 0.960 . S
H191 C177 0.961 . S
H192 C177 0.961 . S
H193 C177 0.961 . S
H194 C178 0.931 . S
H195 C183 0.930 . S
H196 C184 0.956 . S
H197 C184 0.961 . S
H198 C184 0.961 . S
H199 C185 0.958 . S
H200 C185 0.961 . S
H201 C185 0.960 . S
C202 C203 1.391 . S
C202 C204 1.394 . S
C202 H218 0.931 . S
C203 C202 1.391 . S
C203 C207 1.376 . S
C204 C202 1.394 . S
C204 C205 1.369 . S
C204 C208 1.531 . S
C205 C204 1.369 . S
C205 C206 1.410 . S
C205 C213 1.503 . S
C206 C205 1.410 . S
C206 C207 1.392 . S
C206 C209 1.511 1_554 S
C207 C203 1.376 . S
C207 C206 1.392 . S
C207 H219 0.929 . S
C208 C204 1.531 . S
C208 H220 0.960 . S
C208 H221 0.962 . S
C208 H222 0.960 . S
C209 C206 1.511 1_556 S
C209 H223 0.961 . S
C209 H224 0.961 1_556 S
C209 H225 0.961 . S
C210 C211 1.370 . S
C210 C212 1.363 . S
C210 H226 0.931 . S
C211 C210 1.370 . S
C211 C215 1.408 . S
C212 C210 1.363 . S
C212 C213 1.370 . S
C212 C216 1.524 . S
C213 C205 1.503 . S
C213 C212 1.370 . S
C213 C214 1.403 . S
C214 C213 1.403 . S
C214 C215 1.404 . S
C214 C217 1.539 1_554 S
C215 C211 1.408 . S
C215 C214 1.404 . S
C215 H227 0.930 . S
C216 C212 1.524 . S
C216 H228 0.956 . S
C216 H229 0.961 . S
C216 H230 0.961 . S
C217 C214 1.539 1_556 S
C217 H231 0.958 1_556 S
C217 H232 0.961 . S
C217 H233 0.960 . S
H218 C202 0.931 . S
H219 C207 0.929 . S
H220 C208 0.960 . S
H221 C208 0.962 . S
H222 C208 0.960 . S
H223 C209 0.961 . S
H224 C209 0.961 1_554 S
H225 C209 0.961 . S
H226 C210 0.931 . S
H227 C215 0.930 . S
H228 C216 0.956 . S
H229 C216 0.961 . S
H230 C216 0.961 . S
H231 C217 0.958 1_554 S
H232 C217 0.961 . S
H233 C217 0.960 . S
C234 C235 1.391 . S
C234 C236 1.394 . S
C234 H250 0.931 . S
C235 C234 1.391 . S
C235 C239 1.376 . S
C236 C234 1.394 . S
C236 C237 1.369 . S
C236 C240 1.531 . S
C237 C236 1.369 . S
C237 C238 1.410 . S
C237 C245 1.503 . S
C238 C237 1.410 . S
C238 C239 1.392 . S
C238 C241 1.511 . S
C239 C235 1.376 . S
C239 C238 1.392 . S
C239 H251 0.929 . S
C240 C236 1.531 . S
C240 H252 0.960 . S
C240 H253 0.962 . S
C240 H254 0.960 . S
C241 C238 1.511 . S
C241 H255 0.961 . S
C241 H256 0.961 . S
C241 H257 0.961 . S
C242 C243 1.370 . S
C242 C244 1.363 . S
C242 H258 0.931 . S
C243 C242 1.370 . S
C243 C247 1.408 . S
C244 C242 1.363 . S
C244 C245 1.370 . S
C244 C248 1.524 . S
C245 C237 1.503 . S
C245 C244 1.370 . S
C245 C246 1.403 . S
C246 C245 1.403 . S
C246 C247 1.404 . S
C246 C249 1.539 . S
C247 C243 1.408 . S
C247 C246 1.404 . S
C247 H259 0.930 . S
C248 C244 1.524 . S
C248 H260 0.956 . S
C248 H261 0.961 . S
C248 H262 0.961 . S
C249 C246 1.539 . S
C249 H263 0.958 . S
C249 H264 0.961 . S
C249 H265 0.960 . S
H250 C234 0.931 . S
H251 C239 0.929 . S
H252 C240 0.960 . S
H253 C240 0.962 . S
H254 C240 0.960 . S
H255 C241 0.961 . S
H256 C241 0.961 . S
H257 C241 0.961 . S
H258 C242 0.931 . S
H259 C247 0.930 . S
H260 C248 0.956 . S
H261 C248 0.961 . S
H262 C248 0.961 . S
H263 C249 0.958 . S
H264 C249 0.961 . S
H265 C249 0.960 . S
C266 C267 1.391 1_554 S
C266 C268 1.394 . S
C266 H282 0.931 . S
C267 C266 1.391 1_556 S
C267 C271 1.376 . S
C268 C266 1.394 . S
C268 C269 1.369 . S
C268 C272 1.531 . S
C269 C268 1.369 . S
C269 C270 1.410 1_554 S
C269 C277 1.503 . S
C270 C269 1.410 1_556 S
C270 C271 1.392 . S
C270 C273 1.511 . S
C271 C267 1.376 . S
C271 C270 1.392 . S
C271 H283 0.929 . S
C272 C268 1.531 . S
C272 H284 0.960 . S
C272 H285 0.962 . S
C272 H286 0.960 . S
C273 C270 1.511 . S
C273 H287 0.961 . S
C273 H288 0.961 . S
C273 H289 0.961 . S
C274 C275 1.370 . S
C274 C276 1.363 . S
C274 H290 0.931 . S
C275 C274 1.370 . S
C275 C279 1.408 1_554 S
C276 C274 1.363 . S
C276 C277 1.370 . S
C276 C280 1.524 . S
C277 C269 1.503 . S
C277 C276 1.370 . S
C277 C278 1.403 1_554 S
C278 C277 1.403 1_556 S
C278 C279 1.404 . S
C278 C281 1.539 . S
C279 C275 1.408 1_556 S
C279 C278 1.404 . S
C279 H291 0.930 . S
C280 C276 1.524 . S
C280 H292 0.956 . S
C280 H293 0.961 . S
C280 H294 0.961 . S
C281 C278 1.539 . S
C281 H295 0.958 . S
C281 H296 0.961 . S
C281 H297 0.960 . S
H282 C266 0.931 . S
H283 C271 0.929 . S
H284 C272 0.960 . S
H285 C272 0.962 . S
H286 C272 0.960 . S
H287 C273 0.961 . S
H288 C273 0.961 . S
H289 C273 0.961 . S
H290 C274 0.931 . S
H291 C279 0.930 . S
H292 C280 0.956 . S
H293 C280 0.961 . S
H294 C280 0.961 . S
H295 C281 0.958 . S
H296 C281 0.961 . S
H297 C281 0.960 . S
C298 C299 1.391 . S
C298 C300 1.394 . S
C298 H314 0.931 . S
C299 C298 1.391 . S
C299 C303 1.376 . S
C300 C298 1.394 . S
C300 C301 1.369 . S
C300 C304 1.531 . S
C301 C300 1.369 . S
C301 C302 1.410 . S
C301 C309 1.503 . S
C302 C301 1.410 . S
C302 C303 1.392 . S
C302 C305 1.511 1_565 S
C303 C299 1.376 . S
C303 C302 1.392 . S
C303 H315 0.929 . S
C304 C300 1.531 . S
C304 H316 0.960 . S
C304 H317 0.962 . S
C304 H318 0.960 . S
C305 C302 1.511 1_545 S
C305 H319 0.961 . S
C305 H320 0.961 . S
C305 H321 0.961 . S
C306 C307 1.370 . S
C306 C308 1.363 . S
C306 H322 0.931 . S
C307 C306 1.370 . S
C307 C311 1.408 . S
C308 C306 1.363 . S
C308 C309 1.370 . S
C308 C312 1.524 . S
C309 C301 1.503 . S
C309 C308 1.370 . S
C309 C310 1.403 . S
C310 C309 1.403 . S
C310 C311 1.404 . S
C310 C313 1.539 1_565 S
C311 C307 1.408 . S
C311 C310 1.404 . S
C311 H323 0.930 1_565 S
C312 C308 1.524 . S
C312 H324 0.956 . S
C312 H325 0.961 . S
C312 H326 0.961 . S
C313 C310 1.539 1_545 S
C313 H327 0.958 1_545 S
C313 H328 0.961 . S
C313 H329 0.960 . S
H314 C298 0.931 . S
H315 C303 0.929 . S
H316 C304 0.960 . S
H317 C304 0.962 . S
H318 C304 0.960 . S
H319 C305 0.961 . S
H320 C305 0.961 . S
H321 C305 0.961 . S
H322 C306 0.931 . S
H323 C311 0.930 1_545 S
H324 C312 0.956 . S
H325 C312 0.961 . S
H326 C312 0.961 . S
H327 C313 0.958 1_565 S
H328 C313 0.961 . S
H329 C313 0.960 . S
C330 C331 1.391 . S
C330 C332 1.394 . S
C330 H346 0.931 . S
C331 C330 1.391 . S
C331 C335 1.376 . S
C332 C330 1.394 . S
C332 C333 1.369 . S
C332 C336 1.531 . S
C333 C332 1.369 . S
C333 C334 1.410 . S
C333 C341 1.503 . S
C334 C333 1.410 . S
C334 C335 1.392 . S
C334 C337 1.511 . S
C335 C331 1.376 . S
C335 C334 1.392 . S
C335 H347 0.929 . S
C336 C332 1.531 . S
C336 H348 0.960 . S
C336 H349 0.962 . S
C336 H350 0.960 . S
C337 C334 1.511 . S
C337 H351 0.961 . S
C337 H352 0.961 . S
C337 H353 0.961 . S
C338 C339 1.370 . S
C338 C340 1.363 . S
C338 H354 0.931 . S
C339 C338 1.370 . S
C339 C343 1.408 . S
C340 C338 1.363 . S
C340 C341 1.370 . S
C340 C344 1.524 . S
C341 C333 1.503 . S
C341 C340 1.370 . S
C341 C342 1.403 . S
C342 C341 1.403 . S
C342 C343 1.404 . S
C342 C345 1.539 . S
C343 C339 1.408 . S
C343 C342 1.404 . S
C343 H355 0.930 . S
C344 C340 1.524 . S
C344 H356 0.956 . S
C344 H357 0.961 . S
C344 H358 0.961 . S
C345 C342 1.539 . S
C345 H359 0.958 . S
C345 H360 0.961 . S
C345 H361 0.960 . S
H346 C330 0.931 . S
H347 C335 0.929 . S
H348 C336 0.960 . S
H349 C336 0.962 . S
H350 C336 0.960 . S
H351 C337 0.961 . S
H352 C337 0.961 . S
H353 C337 0.961 . S
H354 C338 0.931 . S
H355 C343 0.930 . S
H356 C344 0.956 . S
H357 C344 0.961 . S
H358 C344 0.961 . S
H359 C345 0.958 . S
H360 C345 0.961 . S
H361 C345 0.960 . S
C362 C363 1.391 . S
C362 C364 1.394 . S
C362 H378 0.931 . S
C363 C362 1.391 . S
C363 C367 1.376 . S
C364 C362 1.394 . S
C364 C365 1.369 . S
C364 C368 1.531 . S
C365 C364 1.369 . S
C365 C366 1.410 . S
C365 C373 1.503 . S
C366 C365 1.410 . S
C366 C367 1.392 . S
C366 C369 1.511 . S
C367 C363 1.376 . S
C367 C366 1.392 . S
C367 H379 0.929 . S
C368 C364 1.531 . S
C368 H380 0.960 . S
C368 H381 0.962 . S
C368 H382 0.960 . S
C369 C366 1.511 . S
C369 H383 0.961 . S
C369 H384 0.961 . S
C369 H385 0.961 . S
C370 C371 1.370 . S
C370 C372 1.363 . S
C370 H386 0.931 . S
C371 C370 1.370 . S
C371 C375 1.408 . S
C372 C370 1.363 . S
C372 C373 1.370 . S
C372 C376 1.524 . S
C373 C365 1.503 . S
C373 C372 1.370 . S
C373 C374 1.403 . S
C374 C373 1.403 . S
C374 C375 1.404 . S
C374 C377 1.539 . S
C375 C371 1.408 . S
C375 C374 1.404 . S
C375 H387 0.930 . S
C376 C372 1.524 . S
C376 H388 0.956 . S
C376 H389 0.961 . S
C376 H390 0.961 . S
C377 C374 1.539 . S
C377 H391 0.958 1_545 S
C377 H392 0.961 . S
C377 H393 0.960 . S
H378 C362 0.931 . S
H379 C367 0.929 . S
H380 C368 0.960 . S
H381 C368 0.962 . S
H382 C368 0.960 . S
H383 C369 0.961 . S
H384 C369 0.961 . S
H385 C369 0.961 . S
H386 C370 0.931 . S
H387 C375 0.930 . S
H388 C376 0.956 . S
H389 C376 0.961 . S
H390 C376 0.961 . S
H391 C377 0.958 1_565 S
H392 C377 0.961 . S
H393 C377 0.960 . S
C394 C395 1.391 . S
C394 C396 1.394 . S
C394 H410 0.931 . S
C395 C394 1.391 . S
C395 C399 1.376 . S
C396 C394 1.394 . S
C396 C397 1.369 . S
C396 C400 1.531 . S
C397 C396 1.369 . S
C397 C398 1.410 . S
C397 C405 1.503 . S
C398 C397 1.410 . S
C398 C399 1.392 . S
C398 C401 1.511 . S
C399 C395 1.376 . S
C399 C398 1.392 . S
C399 H411 0.929 . S
C400 C396 1.531 . S
C400 H412 0.960 . S
C400 H413 0.962 . S
C400 H414 0.960 . S
C401 C398 1.511 . S
C401 H415 0.961 . S
C401 H416 0.961 . S
C401 H417 0.961 . S
C402 C403 1.370 . S
C402 C404 1.363 . S
C402 H418 0.931 . S
C403 C402 1.370 . S
C403 C407 1.408 . S
C404 C402 1.363 . S
C404 C405 1.370 . S
C404 C408 1.524 . S
C405 C397 1.503 . S
C405 C404 1.370 . S
C405 C406 1.403 . S
C406 C405 1.403 . S
C406 C407 1.404 . S
C406 C409 1.539 . S
C407 C403 1.408 . S
C407 C406 1.404 . S
C407 H419 0.930 . S
C408 C404 1.524 . S
C408 H420 0.956 . S
C408 H421 0.961 . S
C408 H422 0.961 . S
C409 C406 1.539 . S
C409 H423 0.958 . S
C409 H424 0.961 . S
C409 H425 0.960 . S
H410 C394 0.931 . S
H411 C399 0.929 . S
H412 C400 0.960 . S
H413 C400 0.962 . S
H414 C400 0.960 . S
H415 C401 0.961 . S
H416 C401 0.961 . S
H417 C401 0.961 . S
H418 C402 0.931 . S
H419 C407 0.930 . S
H420 C408 0.956 . S
H421 C408 0.961 . S
H422 C408 0.961 . S
H423 C409 0.958 . S
H424 C409 0.961 . S
H425 C409 0.960 . S
C426 C427 1.391 . S
C426 C428 1.394 . S
C426 H442 0.931 . S
C427 C426 1.391 . S
C427 C431 1.376 . S
C428 C426 1.394 . S
C428 C429 1.369 . S
C428 C432 1.531 . S
C429 C428 1.369 . S
C429 C430 1.410 . S
C429 C437 1.503 . S
C430 C429 1.410 . S
C430 C431 1.392 . S
C430 C433 1.511 . S
C431 C427 1.376 . S
C431 C430 1.392 . S
C431 H443 0.929 . S
C432 C428 1.531 . S
C432 H444 0.960 . S
C432 H445 0.962 . S
C432 H446 0.960 . S
C433 C430 1.511 . S
C433 H447 0.961 . S
C433 H448 0.961 . S
C433 H449 0.961 . S
C434 C435 1.370 . S
C434 C436 1.363 . S
C434 H450 0.931 . S
C435 C434 1.370 . S
C435 C439 1.408 . S
C436 C434 1.363 . S
C436 C437 1.370 . S
C436 C440 1.524 . S
C437 C429 1.503 . S
C437 C436 1.370 . S
C437 C438 1.403 . S
C438 C437 1.403 . S
C438 C439 1.404 . S
C438 C441 1.539 . S
C439 C435 1.408 . S
C439 C438 1.404 . S
C439 H451 0.930 . S
C440 C436 1.524 . S
C440 H452 0.956 . S
C440 H453 0.961 . S
C440 H454 0.961 . S
C441 C438 1.539 . S
C441 H455 0.958 . S
C441 H456 0.961 . S
C441 H457 0.960 . S
H442 C426 0.931 . S
H443 C431 0.929 . S
H444 C432 0.960 . S
H445 C432 0.962 . S
H446 C432 0.960 . S
H447 C433 0.961 . S
H448 C433 0.961 . S
H449 C433 0.961 . S
H450 C434 0.931 . S
H451 C439 0.930 . S
H452 C440 0.956 . S
H453 C440 0.961 . S
H454 C440 0.961 . S
H455 C441 0.958 . S
H456 C441 0.961 . S
H457 C441 0.960 . S
C458 C459 1.391 . S
C458 C460 1.394 . S
C458 H474 0.931 . S
C459 C458 1.391 . S
C459 C463 1.376 . S
C460 C458 1.394 . S
C460 C461 1.369 . S
C460 C464 1.531 . S
C461 C460 1.369 . S
C461 C462 1.410 . S
C461 C469 1.503 . S
C462 C461 1.410 . S
C462 C463 1.392 . S
C462 C465 1.511 . S
C463 C459 1.376 . S
C463 C462 1.392 . S
C463 H475 0.929 . S
C464 C460 1.531 . S
C464 H476 0.960 . S
C464 H477 0.962 . S
C464 H478 0.960 . S
C465 C462 1.511 . S
C465 H479 0.961 . S
C465 H480 0.961 . S
C465 H481 0.961 . S
C466 C467 1.370 . S
C466 C468 1.363 . S
C466 H482 0.931 . S
C467 C466 1.370 . S
C467 C471 1.408 . S
C468 C466 1.363 . S
C468 C469 1.370 . S
C468 C472 1.524 . S
C469 C461 1.503 . S
C469 C468 1.370 . S
C469 C470 1.403 . S
C470 C469 1.403 . S
C470 C471 1.404 . S
C470 C473 1.539 . S
C471 C467 1.408 . S
C471 C470 1.404 . S
C471 H483 0.930 . S
C472 C468 1.524 . S
C472 H484 0.956 . S
C472 H485 0.961 . S
C472 H486 0.963 . S
C473 C470 1.539 . S
C473 H487 0.958 . S
C473 H488 0.961 . S
C473 H489 0.960 . S
H474 C458 0.931 . S
H475 C463 0.929 . S
H476 C464 0.960 . S
H477 C464 0.962 . S
H478 C464 0.960 . S
H479 C465 0.961 . S
H480 C465 0.961 . S
H481 C465 0.961 . S
H482 C466 0.931 . S
H483 C471 0.930 . S
H484 C472 0.956 . S
H485 C472 0.961 . S
H486 C472 0.963 . S
H487 C473 0.958 . S
H488 C473 0.961 . S
H489 C473 0.960 . S
C490 C491 1.391 . S
C490 C492 1.394 . S
C490 H506 0.931 . S
C491 C490 1.391 . S
C491 C495 1.376 . S
C492 C490 1.394 . S
C492 C493 1.369 . S
C492 C496 1.531 . S
C493 C492 1.369 . S
C493 C494 1.410 . S
C493 C501 1.503 . S
C494 C493 1.410 . S
C494 C495 1.392 . S
C494 C497 1.511 . S
C495 C491 1.376 . S
C495 C494 1.392 . S
C495 H507 0.929 . S
C496 C492 1.531 . S
C496 H508 0.960 . S
C496 H509 0.962 . S
C496 H510 0.960 . S
C497 C494 1.511 . S
C497 H511 0.961 . S
C497 H512 0.961 . S
C497 H513 0.961 . S
C498 C499 1.370 . S
C498 C500 1.363 . S
C498 H514 0.931 . S
C499 C498 1.370 . S
C499 C503 1.408 . S
C500 C498 1.363 . S
C500 C501 1.370 . S
C500 C504 1.524 . S
C501 C493 1.503 . S
C501 C500 1.370 . S
C501 C502 1.403 . S
C502 C501 1.403 . S
C502 C503 1.404 . S
C502 C505 1.539 . S
C503 C499 1.408 . S
C503 C502 1.404 . S
C503 H515 0.930 . S
C504 C500 1.524 . S
C504 H516 0.956 . S
C504 H517 0.961 . S
C504 H518 0.961 . S
C505 C502 1.539 . S
C505 H519 0.958 . S
C505 H520 0.961 . S
C505 H521 0.960 . S
H506 C490 0.931 . S
H507 C495 0.929 . S
H508 C496 0.960 . S
H509 C496 0.962 . S
H510 C496 0.960 . S
H511 C497 0.961 . S
H512 C497 0.961 . S
H513 C497 0.961 . S
H514 C498 0.931 . S
H515 C503 0.930 . S
H516 C504 0.956 . S
H517 C504 0.961 . S
H518 C504 0.961 . S
H519 C505 0.958 . S
H520 C505 0.961 . S
H521 C505 0.960 . S
C522 C523 1.391 . S
C522 C524 1.394 . S
C522 H538 0.931 . S
C523 C522 1.391 . S
C523 C527 1.376 . S
C524 C522 1.394 . S
C524 C525 1.369 . S
C524 C528 1.531 1_565 S
C525 C524 1.369 . S
C525 C526 1.410 . S
C525 C533 1.503 . S
C526 C525 1.410 . S
C526 C527 1.392 . S
C526 C529 1.511 . S
C527 C523 1.376 . S
C527 C526 1.392 . S
C527 H539 0.929 . S
C528 C524 1.531 1_545 S
C528 H540 0.960 . S
C528 H541 0.962 . S
C528 H542 0.960 . S
C529 C526 1.511 . S
C529 H543 0.961 . S
C529 H544 0.961 . S
C529 H545 0.961 . S
C530 C531 1.370 . S
C530 C532 1.363 . S
C530 H546 0.931 . S
C531 C530 1.370 . S
C531 C535 1.408 . S
C532 C530 1.363 . S
C532 C533 1.370 . S
C532 C536 1.524 . S
C533 C525 1.503 . S
C533 C532 1.370 . S
C533 C534 1.403 . S
C534 C533 1.403 . S
C534 C535 1.404 . S
C534 C537 1.539 1_565 S
C535 C531 1.408 . S
C535 C534 1.404 . S
C535 H547 0.930 1_565 S
C536 C532 1.524 . S
C536 H548 0.956 . S
C536 H549 0.961 . S
C536 H550 0.961 . S
C537 C534 1.539 1_545 S
C537 H551 0.958 . S
C537 H552 0.961 . S
C537 H553 0.960 1_545 S
H538 C522 0.931 . S
H539 C527 0.929 . S
H540 C528 0.960 . S
H541 C528 0.962 . S
H542 C528 0.960 . S
H543 C529 0.961 . S
H544 C529 0.961 . S
H545 C529 0.961 . S
H546 C530 0.931 . S
H547 C535 0.930 1_545 S
H548 C536 0.956 . S
H549 C536 0.961 . S
H550 C536 0.961 . S
H551 C537 0.958 . S
H552 C537 0.961 . S
H553 C537 0.960 1_565 S
C179 C144 1.336 . S
C171 C119 1.406 . S
C203 C23 1.495 . S
C211 C165 1.290 . S
C235 C55 1.641 . S
C243 C141 1.435 . S
C267 C87 1.543 . S
C275 C162 1.454 . S
C307 C146 1.574 . S
C299 C17 1.593 . S
C339 C166 1.549 . S
C331 C61 1.564 . S
C363 C93 1.488 . S
C371 C142 1.485 . S
C395 C113 1.454 . S
C403 C164 1.519 . S
C435 C163 1.487 . S
C427 C49 1.551 . S
C467 C145 1.522 . S
C459 C81 1.485 . S
C499 C167 1.580 . S
C491 C125 1.525 . S
C523 C29 1.584 . S
C531 C143 1.500 . S
