# Generated by pormake.
# Topology rtl, (3,6)-cn, num edge types: 1
# Building blocks:
#     Node 0, Type 0, BuildingBlock: BELTOD_clean_linker_0, # of connection points: 3
#     Node 1, Type 0, BuildingBlock: BELTOD_clean_linker_0, # of connection points: 3
#     Node 2, Type 0, BuildingBlock: BELTOD_clean_linker_0, # of connection points: 3
#     Node 3, Type 0, BuildingBlock: BELTOD_clean_linker_0, # of connection points: 3
#     Node 4, Type 1, BuildingBlock: KUMJIN_clean_sbu_1, # of connection points: 6
#     Node 5, Type 1, BuildingBlock: KUMJIN_clean_sbu_1, # of connection points: 6
#     Edge 6, Type (0, 1), BuildingBlock: TEMPAE_clean_linker_10, # of connection points: 2
#     Edge 7, Type (0, 1), BuildingBlock: TEMPAE_clean_linker_10, # of connection points: 2
#     Edge 8, Type (0, 1), BuildingBlock: TEMPAE_clean_linker_10, # of connection points: 2
#     Edge 9, Type (0, 1), BuildingBlock: TEMPAE_clean_linker_10, # of connection points: 2
#     Edge 10, Type (0, 1), BuildingBlock: TEMPAE_clean_linker_10, # of connection points: 2
#     Edge 11, Type (0, 1), BuildingBlock: TEMPAE_clean_linker_10, # of connection points: 2
#     Edge 12, Type (0, 1), BuildingBlock: TEMPAE_clean_linker_10, # of connection points: 2
#     Edge 13, Type (0, 1), BuildingBlock: TEMPAE_clean_linker_10, # of connection points: 2
#     Edge 14, Type (0, 1), BuildingBlock: TEMPAE_clean_linker_10, # of connection points: 2
#     Edge 15, Type (0, 1), BuildingBlock: TEMPAE_clean_linker_10, # of connection points: 2
#     Edge 16, Type (0, 1), BuildingBlock: TEMPAE_clean_linker_10, # of connection points: 2
#     Edge 17, Type (0, 1), BuildingBlock: TEMPAE_clean_linker_10, # of connection points: 2
# Relax obj value: 0.019
# Max RMSD: 0.098
# Mean RMSD: 0.063
data_MOF--net-rtl--node1-KUMJIN_clean_sbu_1--node2-BELTOD_clean_linker_0--edge1-TEMPAE_clean_linker_10
_symmetry_space_group_name_H-M    P1
_symmetry_Int_Tables_number       1
_symmetry_cell_setting            triclinic
loop_
_symmetry_equiv_pos_as_xyz
'x, y, z'
_cell_length_a     37.645387
_cell_length_b     38.223184
_cell_length_c     33.091278
_cell_angle_alpha  78.658986
_cell_angle_beta   99.990425
_cell_angle_gamma 90.436637
loop_
_atom_site_label
_atom_site_type_symbol
_atom_site_fract_x
_atom_site_fract_y
_atom_site_fract_z
_atom_type_partial_charge
P0 P 0.26614 0.88804 0.03344 0.0
H1 H 0.28562 0.90677 0.11552 0.0
H2 H 0.25152 0.90994 0.17116 0.0
H3 H 0.1566 0.87513 0.09716 0.0
H4 H 0.19151 0.87043 0.04265 0.0
H5 H 0.33972 0.86222 0.07064 0.0
H6 H 0.37069 0.80474 0.07944 0.0
H7 H 0.27139 0.76118 0.02511 0.0
H8 H 0.24026 0.81825 0.01912 0.0
H9 H 0.20682 0.93985 0.99768 0.0
H10 H 0.26545 0.86155 0.95548 0.0
O11 O 0.29752 0.91907 0.03466 0.0
H12 H 0.1693 0.95534 0.92838 0.0
H13 H 0.22686 0.87527 0.88708 0.0
C14 C 0.24079 0.88938 0.07451 0.0
C15 C 0.25746 0.89984 0.11133 0.0
C16 C 0.23783 0.90182 0.14304 0.0
C17 C 0.20108 0.89332 0.13851 0.0
C18 C 0.18484 0.88172 0.10194 0.0
C19 C 0.20466 0.87938 0.07046 0.0
C20 C 0.288 0.84474 0.04295 0.0
C21 C 0.3246 0.8402 0.06089 0.0
C22 C 0.34234 0.80729 0.06561 0.0
C23 C 0.32387 0.77832 0.05211 0.0
C24 C 0.28662 0.78266 0.03604 0.0
C25 C 0.26878 0.81543 0.03214 0.0
C26 C 0.23791 0.89844 0.98243 0.0
C27 C 0.2111 0.92542 0.97378 0.0
C28 C 0.18956 0.93416 0.93411 0.0
C29 C 0.19457 0.91619 0.90214 0.0
C30 C 0.2222 0.88979 0.91074 0.0
C31 C 0.24398 0.88143 0.95027 0.0
P32 P 0.70323 0.66614 0.62857 0.0
H33 H 0.73977 0.64075 0.56921 0.0
H34 H 0.71873 0.62554 0.501 0.0
H35 H 0.60976 0.65629 0.50664 0.0
H36 H 0.63127 0.672 0.5751 0.0
H37 H 0.75071 0.69916 0.68862 0.0
H38 H 0.78754 0.75227 0.68023 0.0
H39 H 0.73713 0.78094 0.55016 0.0
H40 H 0.69997 0.72832 0.55901 0.0
H41 H 0.66412 0.60307 0.65475 0.0
H42 H 0.66704 0.71165 0.67316 0.0
O43 O 0.73654 0.63654 0.65164 0.0
H44 H 0.62275 0.58832 0.7041 0.0
H45 H 0.62446 0.69744 0.72201 0.0
C46 C 0.68693 0.65654 0.57761 0.0
C47 C 0.71133 0.6441 0.55589 0.0
C48 C 0.69924 0.63533 0.51696 0.0
C49 C 0.66247 0.63908 0.49883 0.0
C50 C 0.63821 0.65299 0.51993 0.0
C51 C 0.65041 0.66173 0.5591 0.0
C52 C 0.72294 0.70954 0.6244 0.0
C53 C 0.74701 0.71735 0.65857 0.0
C54 C 0.76826 0.74754 0.65362 0.0
C55 C 0.76574 0.77052 0.61433 0.0
C56 C 0.73971 0.76388 0.58086 0.0
C57 C 0.71848 0.73364 0.58587 0.0
C58 C 0.66875 0.65833 0.66053 0.0
C59 C 0.65522 0.62394 0.66891 0.0
C60 C 0.63127 0.61563 0.69696 0.0
C61 C 0.62015 0.64166 0.71719 0.0
C62 C 0.6328 0.67661 0.70743 0.0
C63 C 0.657 0.68486 0.67935 0.0
P64 P 0.81984 0.18807 0.0402 0.0
H65 H 0.8163 0.22152 0.95345 0.0
H66 H 0.81589 0.19806 0.8897 0.0
H67 H 0.81139 0.09081 0.95989 0.0
H68 H 0.80955 0.11449 0.02333 0.0
H69 H 0.81134 0.25462 0.06812 0.0
H70 H 0.75913 0.29286 0.06552 0.0
H71 H 0.68971 0.21977 0.00666 0.0
H72 H 0.74232 0.18103 0.01043 0.0
H73 H 0.86662 0.12376 0.06633 0.0
H74 H 0.79907 0.18388 0.12233 0.0
O75 O 0.85515 0.21466 0.03872 0.0
H76 H 0.88593 0.0842 0.1336 0.0
H77 H 0.82114 0.14723 0.19043 0.0
C78 C 0.81435 0.16971 0.99341 0.0
C79 C 0.81463 0.19299 0.95506 0.0
C80 C 0.81424 0.17963 0.91869 0.0
C81 C 0.81399 0.14269 0.92023 0.0
C82 C 0.81194 0.1194 0.95822 0.0
C83 C 0.81134 0.13292 0.99449 0.0
C84 C 0.78074 0.21542 0.0387 0.0
C85 C 0.78492 0.24687 0.05451 0.0
C86 C 0.75502 0.2688 0.05282 0.0
C87 C 0.72027 0.25968 0.03527 0.0
C88 C 0.71608 0.22755 0.02042 0.0
C89 C 0.74612 0.20551 0.0223 0.0
C90 C 0.83013 0.1559 0.0887 0.0
C91 C 0.85528 0.12801 0.09294 0.0
C92 C 0.86703 0.10585 0.1319 0.0
C93 C 0.85538 0.11228 0.16809 0.0
C94 C 0.83015 0.14047 0.16353 0.0
C95 C 0.81755 0.16183 0.1243 0.0
P96 P 0.37596 0.25954 0.4892 0.0
H97 H 0.37894 0.24225 0.5793 0.0
H98 H 0.38462 0.27871 0.6332 0.0
H99 H 0.38273 0.37405 0.53783 0.0
H100 H 0.37649 0.33766 0.48412 0.0
H101 H 0.35557 0.19193 0.4649 0.0
H102 H 0.30041 0.15773 0.46499 0.0
H103 H 0.24844 0.2429 0.50374 0.0
H104 H 0.30349 0.27725 0.50263 0.0
H105 H 0.43862 0.29751 0.46652 0.0
H106 H 0.33222 0.27767 0.40397 0.0
O107 O 0.40905 0.22864 0.5066 0.0
H108 H 0.45175 0.33286 0.40105 0.0
H109 H 0.34532 0.31298 0.33806 0.0
C110 C 0.378 0.28713 0.52785 0.0
C111 C 0.37961 0.27102 0.57002 0.0
C112 C 0.3827 0.29184 0.60072 0.0
C113 C 0.38446 0.32917 0.5897 0.0
C114 C 0.38201 0.34529 0.54725 0.0
C115 C 0.37846 0.32446 0.51653 0.0
C116 C 0.33382 0.23674 0.48461 0.0
C117 C 0.33219 0.20333 0.47309 0.0
C118 C 0.3007 0.18374 0.47338 0.0
C119 C 0.27017 0.19732 0.48502 0.0
C120 C 0.2714 0.23168 0.49453 0.0
C121 C 0.30296 0.25127 0.49418 0.0
C122 C 0.38451 0.28501 0.4401 0.0
C123 C 0.4181 0.30077 0.43862 0.0
C124 C 0.42549 0.3211 0.40126 0.0
C125 C 0.3995 0.32581 0.36448 0.0
C126 C 0.36591 0.30963 0.3659 0.0
C127 C 0.35838 0.28954 0.40355 0.0
Eu128 Eu 0.03355 0.95638 0.52533 0.0
C129 C 0.94718 0.10195 0.48242 0.0
N130 N 0.97732 0.09317 0.51199 0.0
C131 C 0.00196 0.15024 0.48965 0.0
C132 C 0.94352 0.1354 0.45481 0.0
C133 C 0.00438 0.11678 0.51635 0.0
C134 C 0.97146 0.15956 0.45865 0.0
C135 C 0.88867 0.08539 0.44878 0.0
C136 C 0.92008 0.07712 0.47942 0.0
C137 C 0.88503 0.11864 0.42115 0.0
C138 C 0.91234 0.14357 0.42417 0.0
Eu139 Eu 0.9796 0.03583 0.55477 0.0
N140 N 0.92465 0.0448 0.50614 0.0
C141 C 0.86176 0.06003 0.44693 0.0
C142 C 0.89755 0.02094 0.50601 0.0
C143 C 0.86604 0.02787 0.47602 0.0
H144 H 0.02766 0.10998 0.54078 0.0
H145 H 0.84487 0.00855 0.47569 0.0
H146 H 0.98809 0.88218 0.5519 0.0
H147 H 0.17302 0.98864 0.58393 0.0
H148 H 0.89955 0.9969 0.52941 0.0
H149 H 0.83729 0.06532 0.42375 0.0
H150 H 0.11502 0.99673 0.53593 0.0
H151 H 0.02357 0.16886 0.49308 0.0
H152 H 0.86112 0.12539 0.39737 0.0
H153 H 0.90912 0.16908 0.40257 0.0
H154 H 0.99689 0.82539 0.60358 0.0
H155 H 0.96969 0.1855 0.43796 0.0
H156 H 0.18498 0.93478 0.64008 0.0
N157 N 0.0399 0.90106 0.57252 0.0
C158 C 0.07227 0.89401 0.59855 0.0
C159 C 0.01824 0.84451 0.60262 0.0
C160 C 0.07864 0.86173 0.62823 0.0
C161 C 0.01315 0.87683 0.57371 0.0
C162 C 0.05108 0.83695 0.63009 0.0
N163 N 0.09176 0.9508 0.56771 0.0
C164 C 0.11859 0.97447 0.56181 0.0
C165 C 0.13239 0.91307 0.62347 0.0
C166 C 0.09875 0.91965 0.59636 0.0
C167 C 0.15888 0.93879 0.61974 0.0
C168 C 0.15213 0.96934 0.58832 0.0
H169 H 0.05492 0.81191 0.65254 0.0
H170 H 0.11732 0.83076 0.67841 0.0
H171 H 0.16447 0.87543 0.67392 0.0
O172 O 0.06321 0.95902 0.47342 0.0
O173 O 0.02976 0.95443 0.59379 0.0
O174 O 0.02992 0.01314 0.5999 0.0
O175 O 0.03749 0.91034 0.49639 0.0
O176 O 0.05245 0.0135 0.50758 0.0
O177 O 0.03964 0.04299 0.55829 0.0
O178 O 0.94398 0.03206 0.60108 0.0
O179 O 0.98426 0.03773 0.48679 0.0
O180 O 0.98291 0.97914 0.4806 0.0
O181 O 0.97777 0.07772 0.59071 0.0
O182 O 0.96076 0.97887 0.5728 0.0
O183 O 0.97365 0.94845 0.52293 0.0
C184 C 0.03837 0.9794 0.61559 0.0
C185 C 0.0387 0.92444 0.4241 0.0
C186 C 0.04728 0.91998 0.35369 0.0
C187 C 0.00961 0.91832 0.34191 0.0
C188 C 0.00125 0.92271 0.4116 0.0
C189 C 0.98687 0.91975 0.37069 0.0
C190 C 0.06158 0.92324 0.39506 0.0
C191 C 0.05795 0.03952 0.52877 0.0
C192 C 0.05408 0.92727 0.46735 0.0
C193 C 0.11199 0.85536 0.65536 0.0
C194 C 0.13877 0.88092 0.65296 0.0
C195 C 0.97655 0.01309 0.46435 0.0
C196 C 0.92211 0.08685 0.61129 0.0
C197 C 0.88241 0.10927 0.6518 0.0
C198 C 0.86698 0.13408 0.61597 0.0
C199 C 0.90619 0.11161 0.57564 0.0
C200 C 0.90978 0.08543 0.64924 0.0
C201 C 0.87865 0.13498 0.57799 0.0
C202 C 0.95511 0.95263 0.55204 0.0
C203 C 0.95231 0.0632 0.60985 0.0
H204 H 0.99769 0.91518 0.31066 0.0
H205 H 0.98317 0.92332 0.43359 0.0
H206 H 0.958 0.91811 0.36137 0.0
H207 H 0.09045 0.925 0.40473 0.0
H208 H 0.84597 0.15276 0.61747 0.0
H209 H 0.91531 0.11327 0.54621 0.0
H210 H 0.92216 0.06659 0.677 0.0
H211 H 0.86665 0.15413 0.55042 0.0
Eu212 Eu 0.45058 0.48398 0.00174 0.0
C213 C 0.59721 0.55195 0.01215 0.0
N214 N 0.58926 0.51888 0.03188 0.0
C215 C 0.63943 0.49308 0.01132 0.0
C216 C 0.62654 0.55662 0.99044 0.0
C217 C 0.61019 0.48969 0.03255 0.0
C218 C 0.64758 0.52666 0.99005 0.0
C219 C 0.58315 0.61555 0.99251 0.0
C220 C 0.57537 0.58105 0.01289 0.0
C221 C 0.61232 0.62023 0.97086 0.0
C222 C 0.63389 0.59087 0.96975 0.0
Eu223 Eu 0.54051 0.51608 0.06828 0.0
N224 N 0.54738 0.57588 0.03447 0.0
C225 C 0.56205 0.64458 0.99552 0.0
C226 C 0.52913 0.60456 0.04067 0.0
C227 C 0.53532 0.6391 0.02029 0.0
H228 H 0.60436 0.46388 0.0497 0.0
H229 H 0.52013 0.6616 0.02465 0.0
H230 H 0.38463 0.54634 0.98191 0.0
H231 H 0.45392 0.34475 0.08535 0.0
H232 H 0.5108 0.60136 0.06258 0.0
H233 H 0.56714 0.67146 0.98024 0.0
H234 H 0.47571 0.39682 0.04116 0.0
H235 H 0.65576 0.46984 0.01154 0.0
H236 H 0.61871 0.64659 0.95526 0.0
H237 H 0.65635 0.59497 0.95298 0.0
H238 H 0.32522 0.55443 0.00161 0.0
H239 H 0.67024 0.5292 0.97357 0.0
H240 H 0.39541 0.34835 0.10876 0.0
N241 N 0.39236 0.49296 0.01559 0.0
C242 C 0.37818 0.46477 0.03891 0.0
C243 C 0.3399 0.52914 0.01248 0.0
C244 C 0.34428 0.46803 0.05065 0.0
C245 C 0.37367 0.52468 0.00178 0.0
C246 C 0.3252 0.50075 0.03721 0.0
N247 N 0.43128 0.43082 0.04134 0.0
C248 C 0.45071 0.39937 0.0519 0.0
C249 C 0.38431 0.40331 0.0769 0.0
C250 C 0.39804 0.43275 0.05192 0.0
C251 C 0.40498 0.37154 0.08951 0.0
C252 C 0.43812 0.36946 0.07654 0.0
H253 H 0.29909 0.50433 0.04561 0.0
H254 H 0.30477 0.44087 0.08521 0.0
H255 H 0.33981 0.38427 0.10822 0.0
O256 O 0.45297 0.45512 0.95134 0.0
O257 O 0.45117 0.47987 0.0713 0.0
O258 O 0.51063 0.47259 0.10494 0.0
O259 O 0.40688 0.48956 0.94794 0.0
O260 O 0.50291 0.45175 0.00836 0.0
O261 O 0.53791 0.45679 0.07162 0.0
O262 O 0.55725 0.54307 0.12182 0.0
O263 O 0.53673 0.5127 0.99962 0.0
O264 O 0.4791 0.53186 0.9718 0.0
O265 O 0.59025 0.49982 0.11179 0.0
O266 O 0.48677 0.5423 0.07031 0.0
O267 O 0.4539 0.54265 0.00451 0.0
C268 C 0.47587 0.46808 0.10434 0.0
C269 C 0.42579 0.48611 0.88451 0.0
C270 C 0.423 0.47942 0.8122 0.0
C271 C 0.4303 0.51585 0.80108 0.0
C272 C 0.43299 0.52244 0.8728 0.0
C273 C 0.43539 0.53714 0.8313 0.0
C274 C 0.42106 0.46465 0.8542 0.0
C275 C 0.52944 0.44052 0.03995 0.0
C276 C 0.42343 0.4703 0.92822 0.0
C277 C 0.33067 0.43879 0.07569 0.0
C278 C 0.35062 0.40654 0.08878 0.0
C279 C 0.51318 0.5304 0.96866 0.0
C280 C 0.61465 0.52665 0.17047 0.0
C281 C 0.63583 0.5506 0.23329 0.0
C282 C 0.66987 0.53431 0.23665 0.0
C283 C 0.64889 0.51053 0.17464 0.0
C284 C 0.60811 0.54653 0.20016 0.0
C285 C 0.67624 0.51435 0.20756 0.0
C286 C 0.46018 0.5551 0.03941 0.0
C287 C 0.58683 0.52354 0.13412 0.0
H288 H 0.43234 0.52777 0.76906 0.0
H289 H 0.43657 0.53945 0.89567 0.0
H290 H 0.44107 0.56514 0.82251 0.0
H291 H 0.41527 0.43664 0.86319 0.0
H292 H 0.69148 0.53667 0.26218 0.0
H293 H 0.65474 0.49525 0.15214 0.0
H294 H 0.58185 0.55916 0.19723 0.0
H295 H 0.70252 0.50186 0.21047 0.0
C296 C 0.20289 0.19 0.4753 0.0
C297 C 0.23787 0.17503 0.48914 0.0
C298 C 0.17236 0.16925 0.48027 0.0
C299 C 0.17692 0.13269 0.49963 0.0
C300 C 0.21212 0.11739 0.51344 0.0
C301 C 0.24212 0.13872 0.50806 0.0
C302 C 0.13524 0.18645 0.46498 0.0
C303 C 0.21813 0.07855 0.53441 0.0
C304 C 0.10215 0.08462 0.55023 0.0
C305 C 0.08713 0.06476 0.52038 0.0
C306 C 0.1309 0.10738 0.54351 0.0
C307 C 0.14498 0.11038 0.506 0.0
C308 C 0.12949 0.0909 0.4754 0.0
C309 C 0.10079 0.06828 0.48299 0.0
C310 C 0.14675 0.1276 0.57698 0.0
C311 C 0.14366 0.09344 0.43498 0.0
H312 H 0.19938 0.21793 0.46029 0.0
H313 H 0.26901 0.12706 0.5195 0.0
H314 H 0.11955 0.17229 0.44181 0.0
H315 H 0.12036 0.18423 0.49149 0.0
H316 H 0.13627 0.2151 0.45024 0.0
H317 H 0.24721 0.0706 0.54279 0.0
H318 H 0.20618 0.07321 0.56333 0.0
H319 H 0.20438 0.06136 0.51343 0.0
H320 H 0.09192 0.08185 0.57934 0.0
H321 H 0.0892 0.05314 0.45968 0.0
H322 H 0.14654 0.15659 0.56356 0.0
H323 H 0.1753 0.11887 0.58916 0.0
H324 H 0.13179 0.12344 0.6036 0.0
H325 H 0.14344 0.12172 0.41857 0.0
H326 H 0.12759 0.07784 0.4136 0.0
H327 H 0.17208 0.0834 0.44178 0.0
C328 C 0.37899 0.74519 0.04454 0.0
C329 C 0.34367 0.74439 0.05309 0.0
C330 C 0.39773 0.71375 0.04402 0.0
C331 C 0.38053 0.68064 0.05126 0.0
C332 C 0.34498 0.67946 0.05993 0.0
C333 C 0.32713 0.71127 0.06119 0.0
C334 C 0.43581 0.71606 0.03514 0.0
C335 C 0.32562 0.64464 0.06723 0.0
C336 C 0.41778 0.60713 0.00695 0.0
C337 C 0.43867 0.5864 0.04275 0.0
C338 C 0.39777 0.63716 0.00954 0.0
C339 C 0.39958 0.6474 0.04867 0.0
C340 C 0.42072 0.62671 0.08493 0.0
C341 C 0.43972 0.59624 0.0816 0.0
C342 C 0.37511 0.65822 0.97024 0.0
C343 C 0.42392 0.6372 0.12706 0.0
H344 H 0.39189 0.77054 0.03732 0.0
H345 H 0.30014 0.71013 0.06852 0.0
H346 H 0.45421 0.69797 0.0603 0.0
H347 H 0.43686 0.70719 0.00539 0.0
H348 H 0.4461 0.74358 0.03265 0.0
H349 H 0.29791 0.64827 0.07334 0.0
H350 H 0.32383 0.63204 0.03948 0.0
H351 H 0.34105 0.62578 0.09428 0.0
H352 H 0.41737 0.6002 0.97666 0.0
H353 H 0.45584 0.5804 0.10942 0.0
H354 H 0.38591 0.68536 0.96269 0.0
H355 H 0.347 0.66141 0.97517 0.0
H356 H 0.37459 0.64526 0.9429 0.0
H357 H 0.43587 0.66395 0.12563 0.0
H358 H 0.44095 0.61788 0.15235 0.0
H359 H 0.39681 0.63911 0.1354 0.0
C360 C 0.82896 0.79241 0.62378 0.0
C361 C 0.79217 0.79932 0.60734 0.0
C362 C 0.85479 0.81822 0.61527 0.0
C363 C 0.84366 0.85188 0.58972 0.0
C364 C 0.80652 0.85933 0.57363 0.0
C365 C 0.78123 0.83292 0.58253 0.0
C366 C 0.89414 0.80915 0.63284 0.0
C367 C 0.79359 0.89501 0.54652 0.0
C368 C 0.90959 0.92731 0.59615 0.0
C369 C 0.92591 0.92748 0.56105 0.0
C370 C 0.88231 0.90334 0.60542 0.0
C371 C 0.8711 0.87884 0.57906 0.0
C372 C 0.88707 0.87922 0.54325 0.0
C373 C 0.91413 0.90361 0.53458 0.0
C374 C 0.86586 0.90388 0.6438 0.0
C375 C 0.87592 0.85349 0.51438 0.0
H376 H 0.83776 0.76633 0.64235 0.0
H377 H 0.75284 0.83855 0.57 0.0
H378 H 0.90951 0.81041 0.60688 0.0
H379 H 0.90571 0.82898 0.6515 0.0
H380 H 0.89827 0.78211 0.65305 0.0
H381 H 0.76373 0.89706 0.53766 0.0
H382 H 0.80285 0.91684 0.56318 0.0
H383 H 0.8054 0.89933 0.51751 0.0
H384 H 0.91837 0.94571 0.61673 0.0
H385 H 0.92621 0.90382 0.50709 0.0
H386 H 0.8716 0.878 0.66611 0.0
H387 H 0.8361 0.90731 0.63502 0.0
H388 H 0.87642 0.92562 0.66004 0.0
H389 H 0.88152 0.82565 0.53191 0.0
H390 H 0.89033 0.85781 0.48729 0.0
H391 H 0.84647 0.8563 0.5024 0.0
C392 C 0.65589 0.2702 0.04219 0.0
C393 C 0.68878 0.28388 0.03253 0.0
C394 C 0.62677 0.2931 0.0419 0.0
C395 C 0.63072 0.33052 0.03187 0.0
C396 C 0.66348 0.34444 0.02099 0.0
C397 C 0.69201 0.32097 0.02129 0.0
C398 C 0.59217 0.27731 0.05351 0.0
C399 C 0.66878 0.3842 0.01011 0.0
C400 C 0.55107 0.39654 0.00183 0.0
C401 C 0.55219 0.40933 0.03896 0.0
C402 C 0.57549 0.3697 0.99948 0.0
C403 C 0.60158 0.35539 0.03508 0.0
C404 C 0.60169 0.36701 0.07315 0.0
C405 C 0.57694 0.39372 0.07466 0.0
C406 C 0.5744 0.35782 0.9584 0.0
C407 C 0.62904 0.35242 0.11185 0.0
H408 H 0.65324 0.24159 0.05118 0.0
H409 H 0.71706 0.33175 0.01293 0.0
H410 H 0.58797 0.28429 0.08337 0.0
H411 H 0.56881 0.28869 0.02924 0.0
H412 H 0.59239 0.24778 0.05725 0.0
H413 H 0.69534 0.39068 1.00062 0.0
H414 H 0.64718 0.39687 0.98422 0.0
H415 H 0.66687 0.39632 0.03752 0.0
H416 H 0.53198 0.40835 0.97412 0.0
H417 H 0.57776 0.40313 0.10364 0.0
H418 H 0.57457 0.32826 0.96326 0.0
H419 H 0.59884 0.36691 0.94525 0.0
H420 H 0.55022 0.36871 0.93505 0.0
H421 H 0.62899 0.32283 0.11884 0.0
H422 H 0.62379 0.36228 0.13974 0.0
H423 H 0.65647 0.3604 0.10632 0.0
C424 C 0.1533 0.87239 0.18166 0.0
C425 C 0.17969 0.89712 0.17143 0.0
C426 C 0.13231 0.87629 0.21175 0.0
C427 C 0.13808 0.90537 0.23259 0.0
C428 C 0.16497 0.93014 0.22294 0.0
C429 C 0.18525 0.92587 0.19231 0.0
C430 C 0.10372 0.84942 0.22101 0.0
C431 C 0.17212 0.96136 0.2447 0.0
C432 C 0.0615 0.93441 0.2809 0.0
C433 C 0.07142 0.91751 0.32305 0.0
C434 C 0.083 0.93082 0.25121 0.0
C435 C 0.11553 0.91018 0.264 0.0
C436 C 0.12616 0.89371 0.30662 0.0
C437 C 0.10391 0.8974 0.33557 0.0
C438 C 0.07067 0.94873 0.20603 0.0
C439 C 0.16083 0.87177 0.32153 0.0
H440 H 0.14915 0.84977 0.16628 0.0
H441 H 0.2051 0.94549 0.18424 0.0
H442 H 0.10904 0.83649 0.25464 0.0
H443 H 0.07687 0.86313 0.21458 0.0
H444 H 0.10256 0.82834 0.20203 0.0
H445 H 0.19491 0.97748 0.23473 0.0
H446 H 0.14764 0.97896 0.23795 0.0
H447 H 0.17836 0.95171 0.27911 0.0
H448 H 0.03681 0.95053 0.27102 0.0
H449 H 0.11162 0.88384 0.3679 0.0
H450 H 0.06716 0.92837 0.18603 0.0
H451 H 0.09146 0.96721 0.19516 0.0
H452 H 0.04479 0.96401 0.20123 0.0
H453 H 0.15976 0.84845 0.30604 0.0
H454 H 0.16599 0.86194 0.35598 0.0
H455 H 0.18396 0.88788 0.31275 0.0
C456 C 0.57102 0.60585 0.74718 0.0
C457 C 0.59796 0.63127 0.75068 0.0
C458 C 0.55392 0.59172 0.78112 0.0
C459 C 0.56365 0.60355 0.81939 0.0
C460 C 0.58889 0.63102 0.82211 0.0
C461 C 0.60594 0.64429 0.78793 0.0
C462 C 0.52673 0.56284 0.77668 0.0
C463 C 0.60007 0.64488 0.86192 0.0
C464 C 0.50596 0.57845 0.90413 0.0
C465 C 0.52531 0.54874 0.92993 0.0
C466 C 0.51796 0.59658 0.86791 0.0
C467 C 0.55015 0.58477 0.85747 0.0
C468 C 0.56973 0.55476 0.88354 0.0
C469 C 0.55689 0.53695 0.91918 0.0
C470 C 0.49664 0.62874 0.84127 0.0
C471 C 0.60452 0.54165 0.87404 0.0
H472 H 0.564 0.59619 0.71822 0.0
H473 H 0.62692 0.66362 0.79132 0.0
H474 H 0.53758 0.53739 0.79746 0.0
H475 H 0.50147 0.5698 0.78661 0.0
H476 H 0.52013 0.55845 0.74404 0.0
H477 H 0.60966 0.67264 0.85536 0.0
H478 H 0.57773 0.64428 0.87991 0.0
H479 H 0.62274 0.62784 0.8817 0.0
H480 H 0.4817 0.58788 0.91258 0.0
H481 H 0.57168 0.51373 0.93877 0.0
H482 H 0.48921 0.62499 0.80849 0.0
H483 H 0.51351 0.65271 0.84082 0.0
H484 H 0.47161 0.63385 0.85295 0.0
H485 H 0.60002 0.53569 0.84208 0.0
H486 H 0.61588 0.51728 0.89675 0.0
H487 H 0.62479 0.56284 0.87491 0.0
C488 C 0.85135 0.08634 0.24343 0.0
C489 C 0.87132 0.09163 0.21063 0.0
C490 C 0.86744 0.07098 0.2846 0.0
C491 C 0.90403 0.05931 0.29304 0.0
C492 C 0.92368 0.06226 0.25985 0.0
C493 C 0.90738 0.07898 0.2193 0.0
C494 C 0.84575 0.06866 0.31936 0.0
C495 C 0.96248 0.04914 0.26747 0.0
C496 C 0.95946 0.06002 0.39996 0.0
C497 C 0.95864 0.02426 0.42022 0.0
C498 C 0.94122 0.07178 0.35892 0.0
C499 C 0.92266 0.04694 0.33697 0.0
C500 C 0.92229 0.01061 0.35689 0.0
C501 C 0.94005 0.99976 0.39848 0.0
C502 C 0.94152 0.11093 0.33924 0.0
C503 C 0.90365 0.98313 0.33415 0.0
H504 H 0.82324 0.09487 0.23725 0.0
H505 H 0.92357 0.08321 0.19483 0.0
H506 H 0.84654 0.04091 0.33752 0.0
H507 H 0.85785 0.08573 0.34136 0.0
H508 H 0.81714 0.07738 0.30742 0.0
H509 H 0.97258 0.0494 0.2378 0.0
H510 H 0.97983 0.06633 0.28559 0.0
H511 H 0.96542 0.02155 0.28631 0.0
H512 H 0.97431 0.079 0.41625 0.0
H513 H 0.939 0.97217 0.41406 0.0
H514 H 0.91346 0.122 0.33036 0.0
H515 H 0.95321 0.11444 0.3102 0.0
H516 H 0.95729 0.12673 0.36061 0.0
H517 H 0.87616 0.9927 0.31787 0.0
H518 H 0.90152 0.95723 0.35565 0.0
H519 H 0.91914 0.97857 0.30994 0.0
C520 C 0.41608 0.37721 0.62238 0.0
C521 C 0.38965 0.35117 0.62245 0.0
C522 C 0.42185 0.39782 0.65355 0.0
C523 C 0.40032 0.39258 0.68522 0.0
C524 C 0.37341 0.36647 0.68528 0.0
C525 C 0.36857 0.34589 0.65404 0.0
C526 C 0.45114 0.42504 0.65273 0.0
C527 C 0.34958 0.36046 0.71817 0.0
C528 C 0.43503 0.4238 0.78684 0.0
C529 C 0.41704 0.45699 0.77991 0.0
C530 C 0.42991 0.40257 0.75625 0.0
C531 C 0.40583 0.41462 0.71812 0.0
C532 C 0.3873 0.44795 0.7112 0.0
C533 C 0.39333 0.46884 0.74207 0.0
C534 C 0.45055 0.36744 0.76455 0.0
C535 C 0.36104 0.4615 0.67122 0.0
H536 H 0.43271 0.38103 0.59828 0.0
H537 H 0.34793 0.32596 0.65395 0.0
H538 H 0.43929 0.45207 0.64994 0.0
H539 H 0.47077 0.41921 0.68253 0.0
H540 H 0.4659 0.42542 0.62635 0.0
H541 H 0.3297 0.33934 0.7136 0.0
H542 H 0.36633 0.3527 0.74976 0.0
H543 H 0.33473 0.3856 0.71747 0.0
H544 H 0.45361 0.41475 0.81594 0.0
H545 H 0.3791 0.49433 0.73686 0.0
H546 H 0.46743 0.36747 0.74018 0.0
H547 H 0.4315 0.34528 0.76276 0.0
H548 H 0.4683 0.36195 0.79575 0.0
H549 H 0.37515 0.46457 0.64401 0.0
H550 H 0.34818 0.48758 0.67112 0.0
H551 H 0.33957 0.44185 0.66679 0.0
C552 C 0.66302 0.5954 0.45201 0.0
C553 C 0.64991 0.62772 0.45844 0.0
C554 C 0.65449 0.5854 0.41306 0.0
C555 C 0.63213 0.60821 0.37957 0.0
C556 C 0.61724 0.64004 0.38637 0.0
C557 C 0.62633 0.64946 0.42583 0.0
C558 C 0.67077 0.55107 0.40732 0.0
C559 C 0.59309 0.66489 0.35153 0.0
C560 C 0.655 0.59621 0.27646 0.0
C561 C 0.62987 0.57103 0.26532 0.0
C562 C 0.65413 0.6109 0.31187 0.0
C563 C 0.62759 0.59992 0.33691 0.0
C564 C 0.60035 0.57671 0.32386 0.0
C565 C 0.60177 0.56252 0.28804 0.0
C566 C 0.68341 0.63594 0.32429 0.0
C567 C 0.57139 0.56467 0.34945 0.0
H568 H 0.68059 0.57812 0.47742 0.0
H569 H 0.61613 0.67448 0.43067 0.0
H570 H 0.64936 0.53435 0.39405 0.0
H571 H 0.68972 0.55719 0.38482 0.0
H572 H 0.68569 0.53527 0.43718 0.0
H573 H 0.57942 0.68549 0.36335 0.0
H574 H 0.60942 0.67861 0.32857 0.0
H575 H 0.5723 0.64974 0.33459 0.0
H576 H 0.6764 0.6032 0.25845 0.0
H577 H 0.5823 0.54305 0.27941 0.0
H578 H 0.70225 0.62201 0.35235 0.0
H579 H 0.67168 0.65952 0.33263 0.0
H580 H 0.69912 0.64531 0.29891 0.0
H581 H 0.5832 0.54486 0.37778 0.0
H582 H 0.54885 0.55207 0.33155 0.0
H583 H 0.56041 0.58746 0.36011 0.0
C584 C 0.85084 0.1093 0.88418 0.0
C585 C 0.81933 0.12898 0.88295 0.0
C586 C 0.86003 0.10188 0.84734 0.0
C587 C 0.83669 0.11386 0.80864 0.0
C588 C 0.80353 0.13149 0.80783 0.0
C589 C 0.7955 0.13935 0.84499 0.0
C590 C 0.89594 0.08365 0.84948 0.0
C591 C 0.77747 0.14383 0.76739 0.0
C592 C 0.87747 0.13983 0.71027 0.0
C593 C 0.87122 0.1097 0.69226 0.0
C594 C 0.86693 0.14114 0.74854 0.0
C595 C 0.84886 0.1119 0.76868 0.0
C596 C 0.84232 0.08139 0.75041 0.0
C597 C 0.85405 0.08047 0.71253 0.0
C598 C 0.87515 0.17384 0.76741 0.0
C599 C 0.82244 0.0501 0.77047 0.0
H600 H 0.8694 0.10167 0.9136 0.0
H601 H 0.77111 0.15457 0.84423 0.0
H602 H 0.89264 0.06166 0.83183 0.0
H603 H 0.9142 0.10314 0.83471 0.0
H604 H 0.9091 0.07265 0.88223 0.0
H605 H 0.75087 0.15238 0.77288 0.0
H606 H 0.78883 0.16671 0.74792 0.0
H607 H 0.77334 0.1222 0.74919 0.0
H608 H 0.89099 0.16227 0.6945 0.0
H609 H 0.84916 0.05727 0.69825 0.0
H610 H 0.89071 0.16601 0.79966 0.0
H611 H 0.84965 0.18709 0.76964 0.0
H612 H 0.89086 0.1935 0.74871 0.0
H613 H 0.83673 0.03922 0.8027 0.0
H614 H 0.81972 0.02833 0.75239 0.0
H615 H 0.79509 0.05905 0.77302 0.0
C616 C 0.42391 0.38075 0.32512 0.0
C617 C 0.40775 0.34758 0.32496 0.0
C618 C 0.43365 0.40096 0.28868 0.0
C619 C 0.4274 0.38754 0.2512 0.0
C620 C 0.41052 0.35435 0.2506 0.0
C621 C 0.40069 0.33484 0.28748 0.0
C622 C 0.45104 0.43649 0.29042 0.0
C623 C 0.40358 0.33913 0.21124 0.0
C624 C 0.42846 0.45291 0.14878 0.0
C625 C 0.46374 0.44792 0.14222 0.0
C626 C 0.4161 0.4332 0.18384 0.0
C627 C 0.43959 0.40784 0.21304 0.0
C628 C 0.4752 0.40257 0.20645 0.0
C629 C 0.48691 0.42283 0.17122 0.0
C630 C 0.378 0.43973 0.18976 0.0
C631 C 0.50092 0.37546 0.2366 0.0
H632 H 0.42894 0.39092 0.3539 0.0
H633 H 0.38841 0.30911 0.28731 0.0
H634 H 0.47874 0.43564 0.28337 0.0
H635 H 0.43556 0.45782 0.2663 0.0
H636 H 0.45264 0.44381 0.32155 0.0
H637 H 0.39028 0.31295 0.21597 0.0
H638 H 0.38621 0.35793 0.18583 0.0
H639 H 0.4294 0.33569 0.20042 0.0
H640 H 0.4105 0.47247 0.1266 0.0
H641 H 0.51407 0.41858 0.16603 0.0
H642 H 0.37836 0.44792 0.22018 0.0
H643 H 0.36276 0.41473 0.19056 0.0
H644 H 0.36333 0.46071 0.16437 0.0
H645 H 0.50569 0.38244 0.26805 0.0
H646 H 0.52733 0.37385 0.22633 0.0
H647 H 0.48889 0.34867 0.23984 0.0
C648 C 0.18569 0.92523 0.82359 0.0
C649 C 0.17122 0.92503 0.86002 0.0
C650 C 0.1639 0.93321 0.7838 0.0
C651 C 0.12684 0.94178 0.78018 0.0
C652 C 0.11205 0.94184 0.81667 0.0
C653 C 0.13432 0.93319 0.85611 0.0
C654 C 0.18056 0.93256 0.74558 0.0
C655 C 0.07271 0.95124 0.81404 0.0
C656 C 0.07927 0.99598 0.67642 0.0
C657 C 0.06015 0.96974 0.65813 0.0
C658 C 0.10084 0.98727 0.71625 0.0
C659 C 0.10367 0.95137 0.73815 0.0
C660 C 0.08431 0.92477 0.71994 0.0
C661 C 0.06243 0.93438 0.68035 0.0
C662 C 0.12066 0.01649 0.73484 0.0
C663 C 0.08699 0.88613 0.74207 0.0
H664 H 0.21423 0.91957 0.82607 0.0
H665 H 0.12266 0.93253 0.88397 0.0
H666 H 0.16594 0.91383 0.72734 0.0
H667 H 0.17792 0.95936 0.7249 0.0
H668 H 0.20956 0.9243 0.75376 0.0
H669 H 0.06546 0.9504 0.84535 0.0
H670 H 0.06629 0.97842 0.79487 0.0
H671 H 0.05549 0.93246 0.79828 0.0
H672 H 0.0777 0.0234 0.65945 0.0
H673 H 0.04702 0.91416 0.66686 0.0
H674 H 0.15017 0.01088 0.7406 0.0
H675 H 0.11292 0.01732 0.76551 0.0
H676 H 0.11492 0.04319 0.71415 0.0
H677 H 0.11532 0.87613 0.74698 0.0
H678 H 0.06946 0.86888 0.72412 0.0
H679 H 0.07933 0.88349 0.77339 0.0
loop_
_geom_bond_atom_site_label_1
_geom_bond_atom_site_label_2
_geom_bond_distance
_geom_bond_site_symmetry_2
_ccdc_geom_bond_type
P0 O11 1.490 . S
P0 C14 1.812 . S
P0 C20 1.803 . S
P0 C26 1.819 1_554 S
H1 C15 0.941 . S
H2 C16 0.939 . S
H3 C18 0.940 . S
H4 C19 0.940 . S
H5 C21 0.939 . S
H6 C22 0.942 . S
H7 C24 0.940 . S
H8 C25 0.939 . S
H9 C27 0.941 . S
H10 C31 0.939 . S
O11 P0 1.490 . S
H12 C28 0.939 . S
H13 C30 0.940 . S
C14 P0 1.812 . S
C14 C15 1.389 . S
C14 C19 1.391 . S
C15 H1 0.941 . S
C15 C14 1.389 . S
C15 C16 1.397 . S
C16 H2 0.939 . S
C16 C15 1.397 . S
C16 C17 1.378 . S
C17 C16 1.378 . S
C17 C18 1.378 . S
C18 H3 0.940 . S
C18 C17 1.378 . S
C18 C19 1.396 . S
C19 H4 0.940 . S
C19 C14 1.391 . S
C19 C18 1.396 . S
C20 P0 1.803 . S
C20 C21 1.378 . S
C20 C25 1.400 . S
C21 H5 0.939 . S
C21 C20 1.378 . S
C21 C22 1.361 . S
C22 H6 0.942 . S
C22 C21 1.361 . S
C22 C23 1.369 . S
C23 C22 1.369 . S
C23 C24 1.404 . S
C24 H7 0.940 . S
C24 C23 1.404 . S
C24 C25 1.389 . S
C25 H8 0.939 . S
C25 C20 1.400 . S
C25 C24 1.389 . S
C26 P0 1.819 1_556 S
C26 C27 1.391 . S
C26 C31 1.391 . S
C27 H9 0.941 . S
C27 C26 1.391 . S
C27 C28 1.396 . S
C28 H12 0.939 . S
C28 C27 1.396 . S
C28 C29 1.397 . S
C29 C28 1.397 . S
C29 C30 1.385 . S
C30 H13 0.940 . S
C30 C29 1.385 . S
C30 C31 1.388 . S
C31 H10 0.939 . S
C31 C26 1.391 . S
C31 C30 1.388 . S
P32 O43 1.490 . S
P32 C46 1.812 . S
P32 C52 1.803 . S
P32 C58 1.819 . S
H33 C47 0.941 . S
H34 C48 0.939 . S
H35 C50 0.940 . S
H36 C51 0.940 . S
H37 C53 0.939 . S
H38 C54 0.942 . S
H39 C56 0.940 . S
H40 C57 0.939 . S
H41 C59 0.941 . S
H42 C63 0.939 . S
O43 P32 1.490 . S
H44 C60 0.939 . S
H45 C62 0.940 . S
C46 P32 1.812 . S
C46 C47 1.389 . S
C46 C51 1.391 . S
C47 H33 0.941 . S
C47 C46 1.389 . S
C47 C48 1.397 . S
C48 H34 0.939 . S
C48 C47 1.397 . S
C48 C49 1.378 . S
C49 C48 1.378 . S
C49 C50 1.378 . S
C50 H35 0.940 . S
C50 C49 1.378 . S
C50 C51 1.396 . S
C51 H36 0.940 . S
C51 C46 1.391 . S
C51 C50 1.396 . S
C52 P32 1.803 . S
C52 C53 1.378 . S
C52 C57 1.400 . S
C53 H37 0.939 . S
C53 C52 1.378 . S
C53 C54 1.361 . S
C54 H38 0.942 . S
C54 C53 1.361 . S
C54 C55 1.369 . S
C55 C54 1.369 . S
C55 C56 1.404 . S
C56 H39 0.940 . S
C56 C55 1.404 . S
C56 C57 1.389 . S
C57 H40 0.939 . S
C57 C52 1.400 . S
C57 C56 1.389 . S
C58 P32 1.819 . S
C58 C59 1.391 . S
C58 C63 1.391 . S
C59 H41 0.941 . S
C59 C58 1.391 . S
C59 C60 1.396 . S
C60 H44 0.939 . S
C60 C59 1.396 . S
C60 C61 1.397 . S
C61 C60 1.397 . S
C61 C62 1.385 . S
C62 H45 0.940 . S
C62 C61 1.385 . S
C62 C63 1.388 . S
C63 H42 0.939 . S
C63 C58 1.391 . S
C63 C62 1.388 . S
P64 O75 1.490 . S
P64 C78 1.812 . S
P64 C84 1.803 . S
P64 C90 1.819 . S
H65 C79 0.941 . S
H66 C80 0.939 . S
H67 C82 0.940 . S
H68 C83 0.940 . S
H69 C85 0.939 . S
H70 C86 0.942 . S
H71 C88 0.940 . S
H72 C89 0.939 . S
H73 C91 0.941 . S
H74 C95 0.939 . S
O75 P64 1.490 . S
H76 C92 0.939 . S
H77 C94 0.940 . S
C78 P64 1.812 . S
C78 C79 1.389 1_554 S
C78 C83 1.391 . S
C79 H65 0.941 . S
C79 C78 1.389 1_556 S
C79 C80 1.397 . S
C80 H66 0.939 . S
C80 C79 1.397 . S
C80 C81 1.378 . S
C81 C80 1.378 . S
C81 C82 1.378 . S
C82 H67 0.940 . S
C82 C81 1.378 . S
C82 C83 1.396 1_556 S
C83 H68 0.940 . S
C83 C78 1.391 . S
C83 C82 1.396 1_554 S
C84 P64 1.803 . S
C84 C85 1.378 . S
C84 C89 1.400 . S
C85 H69 0.939 . S
C85 C84 1.378 . S
C85 C86 1.361 . S
C86 H70 0.942 . S
C86 C85 1.361 . S
C86 C87 1.369 . S
C87 C86 1.369 . S
C87 C88 1.404 . S
C88 H71 0.940 . S
C88 C87 1.404 . S
C88 C89 1.389 . S
C89 H72 0.939 . S
C89 C84 1.400 . S
C89 C88 1.389 . S
C90 P64 1.819 . S
C90 C91 1.391 . S
C90 C95 1.391 . S
C91 H73 0.941 . S
C91 C90 1.391 . S
C91 C92 1.396 . S
C92 H76 0.939 . S
C92 C91 1.396 . S
C92 C93 1.397 . S
C93 C92 1.397 . S
C93 C94 1.385 . S
C94 H77 0.940 . S
C94 C93 1.385 . S
C94 C95 1.388 . S
C95 H74 0.939 . S
C95 C90 1.391 . S
C95 C94 1.388 . S
P96 O107 1.490 . S
P96 C110 1.812 . S
P96 C116 1.803 . S
P96 C122 1.819 . S
H97 C111 0.941 . S
H98 C112 0.939 . S
H99 C114 0.940 . S
H100 C115 0.940 . S
H101 C117 0.939 . S
H102 C118 0.942 . S
H103 C120 0.940 . S
H104 C121 0.939 . S
H105 C123 0.941 . S
H106 C127 0.939 . S
O107 P96 1.490 . S
H108 C124 0.939 . S
H109 C126 0.940 . S
C110 P96 1.812 . S
C110 C111 1.389 . S
C110 C115 1.391 . S
C111 H97 0.941 . S
C111 C110 1.389 . S
C111 C112 1.397 . S
C112 H98 0.939 . S
C112 C111 1.397 . S
C112 C113 1.378 . S
C113 C112 1.378 . S
C113 C114 1.378 . S
C114 H99 0.940 . S
C114 C113 1.378 . S
C114 C115 1.396 . S
C115 H100 0.940 . S
C115 C110 1.391 . S
C115 C114 1.396 . S
C116 P96 1.803 . S
C116 C117 1.378 . S
C116 C121 1.400 . S
C117 H101 0.939 . S
C117 C116 1.378 . S
C117 C118 1.361 . S
C118 H102 0.942 . S
C118 C117 1.361 . S
C118 C119 1.369 . S
C119 C118 1.369 . S
C119 C120 1.404 . S
C120 H103 0.940 . S
C120 C119 1.404 . S
C120 C121 1.389 . S
C121 H104 0.939 . S
C121 C116 1.400 . S
C121 C120 1.389 . S
C122 P96 1.819 . S
C122 C123 1.391 . S
C122 C127 1.391 . S
C123 H105 0.941 . S
C123 C122 1.391 . S
C123 C124 1.396 . S
C124 H108 0.939 . S
C124 C123 1.396 . S
C124 C125 1.397 . S
C125 C124 1.397 . S
C125 C126 1.385 . S
C126 H109 0.940 . S
C126 C125 1.385 . S
C126 C127 1.388 . S
C127 H106 0.939 . S
C127 C122 1.391 . S
C127 C126 1.388 . S
Eu128 N157 2.600 . S
Eu128 N163 2.562 . S
Eu128 O172 2.462 . S
Eu128 O173 2.373 . S
Eu128 O175 2.432 . S
Eu128 O176 2.291 1_565 S
Eu128 O180 2.333 1_455 S
Eu128 O183 2.372 1_455 S
Eu128 C192 2.787 . S
C129 N130 1.365 . S
C129 C132 1.405 . S
C129 C136 1.448 . S
N130 C129 1.365 . S
N130 C133 1.311 1_655 S
N130 Eu139 2.600 . S
C131 C133 1.397 1_655 S
C131 C134 1.367 . S
C131 H151 0.931 1_655 S
C132 C129 1.405 . S
C132 C134 1.403 . S
C132 C138 1.439 . S
C133 N130 1.311 1_455 S
C133 C131 1.397 1_455 S
C133 H144 0.937 . S
C134 C131 1.367 . S
C134 C132 1.403 . S
C134 H155 0.929 . S
C135 C136 1.430 . S
C135 C137 1.387 . S
C135 C141 1.404 . S
C136 C129 1.448 . S
C136 C135 1.430 . S
C136 N140 1.351 . S
C137 C135 1.387 . S
C137 C138 1.374 . S
C137 H152 0.931 . S
C138 C132 1.439 . S
C138 C137 1.374 . S
C138 H153 0.931 . S
Eu139 N130 2.600 . S
Eu139 N140 2.562 . S
Eu139 O174 2.335 1_655 S
Eu139 O177 2.372 1_655 S
Eu139 O178 2.462 . S
Eu139 O179 2.373 . S
Eu139 O181 2.432 . S
Eu139 O182 2.291 1_545 S
Eu139 C203 2.787 . S
N140 C136 1.351 . S
N140 Eu139 2.562 . S
N140 C142 1.325 . S
C141 C135 1.404 . S
C141 C143 1.366 . S
C141 H149 0.930 . S
C142 N140 1.325 . S
C142 C143 1.416 . S
C142 H148 0.929 . S
C143 C141 1.366 . S
C143 C142 1.416 . S
C143 H145 0.930 . S
H144 C133 0.937 . S
H145 C143 0.930 . S
H146 C161 0.930 1_655 S
H147 C168 0.930 . S
H148 C142 0.929 . S
H149 C141 0.930 . S
H150 C164 0.929 . S
H151 C131 0.931 1_455 S
H152 C137 0.931 . S
H153 C138 0.931 . S
H154 C159 0.931 1_655 S
H155 C134 0.929 . S
H156 C167 0.930 . S
N157 Eu128 2.600 . S
N157 C158 1.365 . S
N157 C161 1.319 . S
C158 N157 1.365 . S
C158 C160 1.405 . S
C158 C166 1.448 . S
C159 H154 0.931 1_455 S
C159 C161 1.397 . S
C159 C162 1.367 . S
C160 C158 1.405 . S
C160 C162 1.403 . S
C160 C193 1.439 . S
C161 H146 0.930 1_455 S
C161 N157 1.319 . S
C161 C159 1.397 . S
C162 C159 1.367 . S
C162 C160 1.403 . S
C162 H169 0.929 . S
N163 Eu128 2.562 . S
N163 C164 1.325 . S
N163 C166 1.351 . S
C164 H150 0.929 . S
C164 N163 1.325 . S
C164 C168 1.416 . S
C165 C166 1.430 . S
C165 C167 1.404 . S
C165 C194 1.387 . S
C166 C158 1.448 . S
C166 N163 1.351 . S
C166 C165 1.430 . S
C167 H156 0.930 . S
C167 C165 1.404 . S
C167 C168 1.366 . S
C168 H147 0.930 . S
C168 C164 1.416 . S
C168 C167 1.366 . S
H169 C162 0.929 . S
H170 C193 0.931 . S
H171 C194 0.931 . S
O172 Eu128 2.462 . S
O172 C192 1.252 . S
O173 Eu128 2.373 . S
O173 C184 1.249 . S
O174 Eu139 2.335 1_455 S
O174 C184 1.264 1_545 S
O175 Eu128 2.432 . S
O175 C192 1.268 . S
O176 Eu128 2.291 1_545 S
O176 C191 1.255 . S
O177 Eu139 2.372 1_455 S
O177 C191 1.257 . S
O178 Eu139 2.462 . S
O178 C203 1.252 . S
O179 Eu139 2.373 . S
O179 C195 1.249 . S
O180 Eu128 2.333 1_655 S
O180 C195 1.267 1_565 S
O181 Eu139 2.432 . S
O181 C203 1.268 . S
O182 Eu139 2.291 1_565 S
O182 C202 1.255 . S
O183 Eu128 2.372 1_655 S
O183 C202 1.257 . S
C184 O173 1.249 . S
C184 O174 1.264 1_565 S
C185 C188 1.382 . S
C185 C190 1.390 . S
C185 C192 1.506 . S
C186 C187 1.398 . S
C186 C190 1.392 . S
C187 C186 1.398 . S
C187 C189 1.372 . S
C187 H204 0.931 . S
C188 C185 1.382 . S
C188 C189 1.390 . S
C188 H205 0.931 . S
C189 C187 1.372 . S
C189 C188 1.390 . S
C189 H206 0.929 . S
C190 C185 1.390 . S
C190 C186 1.392 . S
C190 H207 0.930 . S
C191 O176 1.255 . S
C191 O177 1.257 . S
C192 Eu128 2.787 . S
C192 O172 1.252 . S
C192 O175 1.268 . S
C192 C185 1.506 . S
C193 C160 1.439 . S
C193 H170 0.931 . S
C193 C194 1.374 . S
C194 C165 1.387 . S
C194 H171 0.931 . S
C194 C193 1.374 . S
C195 O179 1.249 . S
C195 O180 1.267 1_545 S
C196 C199 1.382 . S
C196 C200 1.390 . S
C196 C203 1.506 . S
C197 C198 1.398 . S
C197 C200 1.392 . S
C198 C197 1.398 . S
C198 C201 1.372 . S
C198 H208 0.931 . S
C199 C196 1.382 . S
C199 C201 1.390 . S
C199 H209 0.931 . S
C200 C196 1.390 . S
C200 C197 1.392 . S
C200 H210 0.930 . S
C201 C198 1.372 . S
C201 C199 1.390 . S
C201 H211 0.929 . S
C202 O182 1.255 . S
C202 O183 1.257 . S
C203 Eu139 2.787 . S
C203 O178 1.252 . S
C203 O181 1.268 . S
C203 C196 1.506 . S
H204 C187 0.931 . S
H205 C188 0.931 . S
H206 C189 0.929 . S
H207 C190 0.930 . S
H208 C198 0.931 . S
H209 C199 0.931 . S
H210 C200 0.930 . S
H211 C201 0.929 . S
Eu212 N241 2.600 . S
Eu212 N247 2.562 1_556 S
Eu212 O256 2.462 . S
Eu212 O257 2.373 1_556 S
Eu212 O259 2.432 . S
Eu212 O260 2.291 1_556 S
Eu212 O264 2.335 . S
Eu212 O267 2.368 1_556 S
Eu212 C276 2.787 . S
C213 N214 1.365 . S
C213 C216 1.405 . S
C213 C220 1.448 . S
N214 C213 1.365 . S
N214 C217 1.319 . S
N214 Eu223 2.600 . S
C215 C217 1.397 . S
C215 C218 1.367 . S
C215 H235 0.931 . S
C216 C213 1.405 . S
C216 C218 1.403 . S
C216 C222 1.439 . S
C217 N214 1.319 . S
C217 C215 1.397 . S
C217 H228 0.930 . S
C218 C215 1.367 . S
C218 C216 1.403 . S
C218 H239 0.929 . S
C219 C220 1.430 . S
C219 C221 1.387 . S
C219 C225 1.404 . S
C220 C213 1.448 . S
C220 C219 1.430 . S
C220 N224 1.351 . S
C221 C219 1.387 . S
C221 C222 1.374 . S
C221 H236 0.931 . S
C222 C216 1.439 . S
C222 C221 1.374 . S
C222 H237 0.931 . S
Eu223 N214 2.600 . S
Eu223 N224 2.562 . S
Eu223 O258 2.335 . S
Eu223 O261 2.372 . S
Eu223 O262 2.462 . S
Eu223 O263 2.356 1_554 S
Eu223 O265 2.432 . S
Eu223 O266 2.291 . S
Eu223 C287 2.787 . S
N224 C220 1.351 . S
N224 Eu223 2.562 . S
N224 C226 1.325 . S
C225 C219 1.404 . S
C225 C227 1.366 . S
C225 H233 0.930 . S
C226 N224 1.325 . S
C226 C227 1.416 . S
C226 H232 0.929 . S
C227 C225 1.366 . S
C227 C226 1.416 . S
C227 H229 0.930 . S
H228 C217 0.930 . S
H229 C227 0.930 . S
H230 C245 0.930 . S
H231 C252 0.930 . S
H232 C226 0.929 . S
H233 C225 0.930 . S
H234 C248 0.929 . S
H235 C215 0.931 . S
H236 C221 0.931 . S
H237 C222 0.931 . S
H238 C243 0.931 . S
H239 C218 0.929 . S
H240 C251 0.930 . S
N241 Eu212 2.600 . S
N241 C242 1.365 1_556 S
N241 C245 1.319 . S
C242 N241 1.365 1_554 S
C242 C244 1.405 . S
C242 C250 1.448 . S
C243 H238 0.931 . S
C243 C245 1.397 . S
C243 C246 1.367 1_556 S
C244 C242 1.405 . S
C244 C246 1.403 . S
C244 C277 1.439 . S
C245 H230 0.930 . S
C245 N241 1.319 . S
C245 C243 1.397 . S
C246 C243 1.367 1_554 S
C246 C244 1.403 . S
C246 H253 0.929 . S
N247 Eu212 2.562 1_554 S
N247 C248 1.325 . S
N247 C250 1.351 . S
C248 H234 0.929 . S
C248 N247 1.325 . S
C248 C252 1.416 . S
C249 C250 1.430 . S
C249 C251 1.404 . S
C249 C278 1.387 . S
C250 C242 1.448 . S
C250 N247 1.351 . S
C250 C249 1.430 . S
C251 H240 0.930 . S
C251 C249 1.404 . S
C251 C252 1.366 . S
C252 H231 0.930 . S
C252 C248 1.416 . S
C252 C251 1.366 . S
H253 C246 0.929 . S
H254 C277 0.931 . S
H255 C278 0.931 . S
O256 Eu212 2.462 . S
O256 C276 1.252 . S
O257 Eu212 2.373 1_554 S
O257 C268 1.249 . S
O258 Eu223 2.335 . S
O258 C268 1.264 . S
O259 Eu212 2.432 . S
O259 C276 1.268 . S
O260 Eu212 2.291 1_554 S
O260 C275 1.255 . S
O261 Eu223 2.372 . S
O261 C275 1.257 . S
O262 Eu223 2.462 . S
O262 C287 1.252 . S
O263 Eu223 2.356 1_556 S
O263 C279 1.262 . S
O264 Eu212 2.335 . S
O264 C279 1.264 . S
O265 Eu223 2.432 . S
O265 C287 1.268 . S
O266 Eu223 2.291 . S
O266 C286 1.255 . S
O267 Eu212 2.368 1_554 S
O267 C286 1.266 . S
C268 O257 1.249 . S
C268 O258 1.264 . S
C269 C272 1.382 . S
C269 C274 1.390 . S
C269 C276 1.506 . S
C270 C271 1.398 . S
C270 C274 1.392 . S
C271 C270 1.398 . S
C271 C273 1.372 . S
C271 H288 0.931 . S
C272 C269 1.382 . S
C272 C273 1.390 . S
C272 H289 0.931 . S
C273 C271 1.372 . S
C273 C272 1.390 . S
C273 H290 0.929 . S
C274 C269 1.390 . S
C274 C270 1.392 . S
C274 H291 0.930 . S
C275 O260 1.255 . S
C275 O261 1.257 . S
C276 Eu212 2.787 . S
C276 O256 1.252 . S
C276 O259 1.268 . S
C276 C269 1.506 . S
C277 C244 1.439 . S
C277 H254 0.931 . S
C277 C278 1.374 . S
C278 C249 1.387 . S
C278 H255 0.931 . S
C278 C277 1.374 . S
C279 O263 1.262 . S
C279 O264 1.264 . S
C280 C283 1.382 . S
C280 C284 1.390 . S
C280 C287 1.506 . S
C281 C282 1.398 . S
C281 C284 1.392 . S
C282 C281 1.398 . S
C282 C285 1.372 . S
C282 H292 0.931 . S
C283 C280 1.382 . S
C283 C285 1.390 . S
C283 H293 0.931 . S
C284 C280 1.390 . S
C284 C281 1.392 . S
C284 H294 0.930 . S
C285 C282 1.372 . S
C285 C283 1.390 . S
C285 H295 0.929 . S
C286 O266 1.255 . S
C286 O267 1.266 . S
C287 Eu223 2.787 . S
C287 O262 1.252 . S
C287 O265 1.268 . S
C287 C280 1.506 . S
H288 C271 0.931 . S
H289 C272 0.931 . S
H290 C273 0.929 . S
H291 C274 0.930 . S
H292 C282 0.931 . S
H293 C283 0.931 . S
H294 C284 0.930 . S
H295 C285 0.929 . S
C296 C297 1.391 . S
C296 C298 1.394 . S
C296 H312 0.931 . S
C297 C296 1.391 . S
C297 C301 1.376 . S
C298 C296 1.394 . S
C298 C299 1.369 . S
C298 C302 1.531 . S
C299 C298 1.369 . S
C299 C300 1.410 . S
C299 C307 1.503 . S
C300 C299 1.410 . S
C300 C301 1.392 . S
C300 C303 1.511 . S
C301 C297 1.376 . S
C301 C300 1.392 . S
C301 H313 0.929 . S
C302 C298 1.531 . S
C302 H314 0.960 . S
C302 H315 0.962 . S
C302 H316 0.960 . S
C303 C300 1.511 . S
C303 H317 0.961 . S
C303 H318 0.961 . S
C303 H319 0.961 . S
C304 C305 1.370 . S
C304 C306 1.363 . S
C304 H320 0.931 . S
C305 C304 1.370 . S
C305 C309 1.408 . S
C306 C304 1.363 . S
C306 C307 1.370 . S
C306 C310 1.524 . S
C307 C299 1.503 . S
C307 C306 1.370 . S
C307 C308 1.403 . S
C308 C307 1.403 . S
C308 C309 1.404 . S
C308 C311 1.539 . S
C309 C305 1.408 . S
C309 C308 1.404 . S
C309 H321 0.930 . S
C310 C306 1.524 . S
C310 H322 0.956 . S
C310 H323 0.961 . S
C310 H324 0.961 . S
C311 C308 1.539 . S
C311 H325 0.958 . S
C311 H326 0.961 . S
C311 H327 0.960 . S
H312 C296 0.931 . S
H313 C301 0.929 . S
H314 C302 0.960 . S
H315 C302 0.962 . S
H316 C302 0.960 . S
H317 C303 0.961 . S
H318 C303 0.961 . S
H319 C303 0.961 . S
H320 C304 0.931 . S
H321 C309 0.930 . S
H322 C310 0.956 . S
H323 C310 0.961 . S
H324 C310 0.961 . S
H325 C311 0.958 . S
H326 C311 0.961 . S
H327 C311 0.960 . S
C328 C329 1.391 . S
C328 C330 1.394 . S
C328 H344 0.931 1_554 S
C329 C328 1.391 . S
C329 C333 1.376 . S
C330 C328 1.394 . S
C330 C331 1.369 . S
C330 C334 1.531 1_554 S
C331 C330 1.369 . S
C331 C332 1.410 . S
C331 C339 1.503 . S
C332 C331 1.410 . S
C332 C333 1.392 . S
C332 C335 1.511 . S
C333 C329 1.376 . S
C333 C332 1.392 . S
C333 H345 0.929 . S
C334 C330 1.531 1_556 S
C334 H346 0.960 . S
C334 H347 0.962 . S
C334 H348 0.960 . S
C335 C332 1.511 . S
C335 H349 0.961 . S
C335 H350 0.961 . S
C335 H351 0.961 . S
C336 C337 1.370 . S
C336 C338 1.363 . S
C336 H352 0.931 . S
C337 C336 1.370 . S
C337 C341 1.408 . S
C338 C336 1.363 . S
C338 C339 1.370 . S
C338 C342 1.524 . S
C339 C331 1.503 . S
C339 C338 1.370 . S
C339 C340 1.403 . S
C340 C339 1.403 . S
C340 C341 1.404 . S
C340 C343 1.539 . S
C341 C337 1.408 . S
C341 C340 1.404 . S
C341 H353 0.930 . S
C342 C338 1.524 . S
C342 H354 0.956 1_554 S
C342 H355 0.961 . S
C342 H356 0.961 . S
C343 C340 1.539 . S
C343 H357 0.958 . S
C343 H358 0.961 . S
C343 H359 0.960 . S
H344 C328 0.931 1_556 S
H345 C333 0.929 . S
H346 C334 0.960 . S
H347 C334 0.962 . S
H348 C334 0.960 . S
H349 C335 0.961 . S
H350 C335 0.961 . S
H351 C335 0.961 . S
H352 C336 0.931 . S
H353 C341 0.930 . S
H354 C342 0.956 1_556 S
H355 C342 0.961 . S
H356 C342 0.961 . S
H357 C343 0.958 . S
H358 C343 0.961 . S
H359 C343 0.960 . S
C360 C361 1.391 . S
C360 C362 1.394 . S
C360 H376 0.931 . S
C361 C360 1.391 . S
C361 C365 1.376 . S
C362 C360 1.394 . S
C362 C363 1.369 . S
C362 C366 1.531 . S
C363 C362 1.369 . S
C363 C364 1.410 . S
C363 C371 1.503 . S
C364 C363 1.410 . S
C364 C365 1.392 . S
C364 C367 1.511 . S
C365 C361 1.376 . S
C365 C364 1.392 . S
C365 H377 0.929 . S
C366 C362 1.531 . S
C366 H378 0.960 . S
C366 H379 0.962 . S
C366 H380 0.960 . S
C367 C364 1.511 . S
C367 H381 0.961 . S
C367 H382 0.961 . S
C367 H383 0.961 . S
C368 C369 1.370 . S
C368 C370 1.363 . S
C368 H384 0.931 . S
C369 C368 1.370 . S
C369 C373 1.408 . S
C370 C368 1.363 . S
C370 C371 1.370 . S
C370 C374 1.524 . S
C371 C363 1.503 . S
C371 C370 1.370 . S
C371 C372 1.403 . S
C372 C371 1.403 . S
C372 C373 1.404 . S
C372 C375 1.539 . S
C373 C369 1.408 . S
C373 C372 1.404 . S
C373 H385 0.930 . S
C374 C370 1.524 . S
C374 H386 0.956 . S
C374 H387 0.961 . S
C374 H388 0.961 . S
C375 C372 1.539 . S
C375 H389 0.958 . S
C375 H390 0.961 . S
C375 H391 0.960 . S
H376 C360 0.931 . S
H377 C365 0.929 . S
H378 C366 0.960 . S
H379 C366 0.962 . S
H380 C366 0.960 . S
H381 C367 0.961 . S
H382 C367 0.961 . S
H383 C367 0.961 . S
H384 C368 0.931 . S
H385 C373 0.930 . S
H386 C374 0.956 . S
H387 C374 0.961 . S
H388 C374 0.961 . S
H389 C375 0.958 . S
H390 C375 0.961 . S
H391 C375 0.960 . S
C392 C393 1.391 . S
C392 C394 1.394 . S
C392 H408 0.931 . S
C393 C392 1.391 . S
C393 C397 1.376 . S
C394 C392 1.394 . S
C394 C395 1.369 . S
C394 C398 1.531 . S
C395 C394 1.369 . S
C395 C396 1.410 . S
C395 C403 1.503 . S
C396 C395 1.410 . S
C396 C397 1.392 . S
C396 C399 1.511 . S
C397 C393 1.376 . S
C397 C396 1.392 . S
C397 H409 0.929 . S
C398 C394 1.531 . S
C398 H410 0.960 . S
C398 H411 0.962 . S
C398 H412 0.960 . S
C399 C396 1.511 . S
C399 H413 0.961 . S
C399 H414 0.961 . S
C399 H415 0.961 . S
C400 C401 1.370 1_556 S
C400 C402 1.364 1_556 S
C400 H416 0.931 . S
C401 C400 1.370 1_554 S
C401 C405 1.408 . S
C402 C400 1.364 1_554 S
C402 C403 1.375 . S
C402 C406 1.519 1_554 S
C403 C395 1.503 . S
C403 C402 1.375 . S
C403 C404 1.403 . S
C404 C403 1.403 . S
C404 C405 1.404 . S
C404 C407 1.539 . S
C405 C401 1.408 . S
C405 C404 1.404 . S
C405 H417 0.930 . S
C406 C402 1.519 1_556 S
C406 H418 0.956 . S
C406 H419 0.961 . S
C406 H420 0.961 . S
C407 C404 1.539 . S
C407 H421 0.958 . S
C407 H422 0.961 . S
C407 H423 0.960 . S
H408 C392 0.931 . S
H409 C397 0.929 . S
H410 C398 0.960 . S
H411 C398 0.962 . S
H412 C398 0.960 . S
H413 C399 0.961 . S
H414 C399 0.961 . S
H415 C399 0.961 . S
H416 C400 0.931 . S
H417 C405 0.930 . S
H418 C406 0.956 . S
H419 C406 0.961 . S
H420 C406 0.961 . S
H421 C407 0.958 . S
H422 C407 0.961 . S
H423 C407 0.960 . S
C424 C425 1.391 . S
C424 C426 1.394 . S
C424 H440 0.931 . S
C425 C424 1.391 . S
C425 C429 1.376 . S
C426 C424 1.394 . S
C426 C427 1.369 . S
C426 C430 1.531 . S
C427 C426 1.369 . S
C427 C428 1.410 . S
C427 C435 1.503 . S
C428 C427 1.410 . S
C428 C429 1.392 . S
C428 C431 1.511 . S
C429 C425 1.376 . S
C429 C428 1.392 . S
C429 H441 0.929 . S
C430 C426 1.531 . S
C430 H442 0.960 . S
C430 H443 0.962 . S
C430 H444 0.960 . S
C431 C428 1.511 . S
C431 H445 0.961 . S
C431 H446 0.961 . S
C431 H447 0.961 . S
C432 C433 1.370 . S
C432 C434 1.363 . S
C432 H448 0.931 . S
C433 C432 1.370 . S
C433 C437 1.408 . S
C434 C432 1.363 . S
C434 C435 1.370 . S
C434 C438 1.524 . S
C435 C427 1.503 . S
C435 C434 1.370 . S
C435 C436 1.403 . S
C436 C435 1.403 . S
C436 C437 1.404 . S
C436 C439 1.539 . S
C437 C433 1.408 . S
C437 C436 1.404 . S
C437 H449 0.930 . S
C438 C434 1.524 . S
C438 H450 0.956 . S
C438 H451 0.961 . S
C438 H452 0.961 1_565 S
C439 C436 1.539 . S
C439 H453 0.958 . S
C439 H454 0.961 . S
C439 H455 0.960 . S
H440 C424 0.931 . S
H441 C429 0.929 . S
H442 C430 0.960 . S
H443 C430 0.962 . S
H444 C430 0.960 . S
H445 C431 0.961 . S
H446 C431 0.961 . S
H447 C431 0.961 . S
H448 C432 0.931 . S
H449 C437 0.930 . S
H450 C438 0.956 . S
H451 C438 0.961 . S
H452 C438 0.961 1_545 S
H453 C439 0.958 . S
H454 C439 0.961 . S
H455 C439 0.960 . S
C456 C457 1.391 . S
C456 C458 1.394 . S
C456 H472 0.931 . S
C457 C456 1.391 . S
C457 C461 1.376 . S
C458 C456 1.394 . S
C458 C459 1.369 . S
C458 C462 1.531 . S
C459 C458 1.369 . S
C459 C460 1.410 . S
C459 C467 1.503 . S
C460 C459 1.410 . S
C460 C461 1.392 . S
C460 C463 1.511 . S
C461 C457 1.376 . S
C461 C460 1.392 . S
C461 H473 0.929 . S
C462 C458 1.531 . S
C462 H474 0.960 . S
C462 H475 0.962 . S
C462 H476 0.960 . S
C463 C460 1.511 . S
C463 H477 0.961 . S
C463 H478 0.961 . S
C463 H479 0.961 . S
C464 C465 1.370 . S
C464 C466 1.363 . S
C464 H480 0.931 . S
C465 C464 1.370 . S
C465 C469 1.408 . S
C466 C464 1.363 . S
C466 C467 1.370 . S
C466 C470 1.524 . S
C467 C459 1.503 . S
C467 C466 1.370 . S
C467 C468 1.403 . S
C468 C467 1.403 . S
C468 C469 1.404 . S
C468 C471 1.539 . S
C469 C465 1.408 . S
C469 C468 1.404 . S
C469 H481 0.930 . S
C470 C466 1.524 . S
C470 H482 0.956 . S
C470 H483 0.961 . S
C470 H484 0.961 . S
C471 C468 1.539 . S
C471 H485 0.958 . S
C471 H486 0.961 . S
C471 H487 0.960 . S
H472 C456 0.931 . S
H473 C461 0.929 . S
H474 C462 0.960 . S
H475 C462 0.962 . S
H476 C462 0.960 . S
H477 C463 0.961 . S
H478 C463 0.961 . S
H479 C463 0.961 . S
H480 C464 0.931 . S
H481 C469 0.930 . S
H482 C470 0.956 . S
H483 C470 0.961 . S
H484 C470 0.961 . S
H485 C471 0.958 . S
H486 C471 0.961 . S
H487 C471 0.960 . S
C488 C489 1.391 . S
C488 C490 1.394 . S
C488 H504 0.931 . S
C489 C488 1.391 . S
C489 C493 1.376 . S
C490 C488 1.394 . S
C490 C491 1.369 . S
C490 C494 1.531 . S
C491 C490 1.369 . S
C491 C492 1.410 . S
C491 C499 1.503 . S
C492 C491 1.410 . S
C492 C493 1.392 . S
C492 C495 1.511 . S
C493 C489 1.376 . S
C493 C492 1.392 . S
C493 H505 0.929 . S
C494 C490 1.531 . S
C494 H506 0.960 . S
C494 H507 0.962 . S
C494 H508 0.960 1_545 S
C495 C492 1.511 . S
C495 H509 0.961 . S
C495 H510 0.961 . S
C495 H511 0.961 . S
C496 C497 1.370 . S
C496 C498 1.363 . S
C496 H512 0.931 . S
C497 C496 1.370 . S
C497 C501 1.408 . S
C498 C496 1.363 . S
C498 C499 1.370 . S
C498 C502 1.524 . S
C499 C491 1.503 . S
C499 C498 1.370 . S
C499 C500 1.403 . S
C500 C499 1.403 . S
C500 C501 1.404 . S
C500 C503 1.539 1_545 S
C501 C497 1.408 . S
C501 C500 1.404 . S
C501 H513 0.930 1_545 S
C502 C498 1.524 . S
C502 H514 0.956 . S
C502 H515 0.961 . S
C502 H516 0.961 . S
C503 C500 1.539 1_565 S
C503 H517 0.958 . S
C503 H518 0.961 . S
C503 H519 0.960 1_565 S
H504 C488 0.931 . S
H505 C493 0.929 . S
H506 C494 0.960 . S
H507 C494 0.962 . S
H508 C494 0.960 1_565 S
H509 C495 0.961 . S
H510 C495 0.961 . S
H511 C495 0.961 . S
H512 C496 0.931 . S
H513 C501 0.930 1_565 S
H514 C502 0.956 . S
H515 C502 0.961 . S
H516 C502 0.961 . S
H517 C503 0.958 . S
H518 C503 0.961 . S
H519 C503 0.960 1_545 S
C520 C521 1.391 . S
C520 C522 1.394 . S
C520 H536 0.931 . S
C521 C520 1.391 . S
C521 C525 1.376 . S
C522 C520 1.394 . S
C522 C523 1.369 . S
C522 C526 1.531 . S
C523 C522 1.369 . S
C523 C524 1.410 . S
C523 C531 1.503 . S
C524 C523 1.410 . S
C524 C525 1.392 . S
C524 C527 1.511 . S
C525 C521 1.376 . S
C525 C524 1.392 . S
C525 H537 0.929 . S
C526 C522 1.531 . S
C526 H538 0.960 . S
C526 H539 0.962 . S
C526 H540 0.960 . S
C527 C524 1.511 . S
C527 H541 0.961 . S
C527 H542 0.961 . S
C527 H543 0.961 . S
C528 C529 1.370 . S
C528 C530 1.363 . S
C528 H544 0.931 . S
C529 C528 1.370 . S
C529 C533 1.408 . S
C530 C528 1.363 . S
C530 C531 1.370 . S
C530 C534 1.524 . S
C531 C523 1.503 . S
C531 C530 1.370 . S
C531 C532 1.403 . S
C532 C531 1.403 . S
C532 C533 1.404 . S
C532 C535 1.539 . S
C533 C529 1.408 . S
C533 C532 1.404 . S
C533 H545 0.930 . S
C534 C530 1.524 . S
C534 H546 0.956 . S
C534 H547 0.961 . S
C534 H548 0.961 . S
C535 C532 1.539 . S
C535 H549 0.958 . S
C535 H550 0.961 . S
C535 H551 0.960 . S
H536 C520 0.931 . S
H537 C525 0.929 . S
H538 C526 0.960 . S
H539 C526 0.962 . S
H540 C526 0.960 . S
H541 C527 0.961 . S
H542 C527 0.961 . S
H543 C527 0.961 . S
H544 C528 0.931 . S
H545 C533 0.930 . S
H546 C534 0.956 . S
H547 C534 0.961 . S
H548 C534 0.961 . S
H549 C535 0.958 . S
H550 C535 0.961 . S
H551 C535 0.960 . S
C552 C553 1.391 . S
C552 C554 1.394 . S
C552 H568 0.931 . S
C553 C552 1.391 . S
C553 C557 1.376 . S
C554 C552 1.394 . S
C554 C555 1.369 . S
C554 C558 1.531 . S
C555 C554 1.369 . S
C555 C556 1.410 . S
C555 C563 1.503 . S
C556 C555 1.410 . S
C556 C557 1.392 . S
C556 C559 1.511 . S
C557 C553 1.376 . S
C557 C556 1.392 . S
C557 H569 0.929 . S
C558 C554 1.531 . S
C558 H570 0.960 . S
C558 H571 0.962 . S
C558 H572 0.960 . S
C559 C556 1.511 . S
C559 H573 0.961 . S
C559 H574 0.961 . S
C559 H575 0.961 . S
C560 C561 1.370 . S
C560 C562 1.363 . S
C560 H576 0.931 . S
C561 C560 1.370 . S
C561 C565 1.408 . S
C562 C560 1.363 . S
C562 C563 1.370 . S
C562 C566 1.524 . S
C563 C555 1.503 . S
C563 C562 1.370 . S
C563 C564 1.403 . S
C564 C563 1.403 . S
C564 C565 1.404 . S
C564 C567 1.539 . S
C565 C561 1.408 . S
C565 C564 1.404 . S
C565 H577 0.930 . S
C566 C562 1.524 . S
C566 H578 0.956 . S
C566 H579 0.961 . S
C566 H580 0.961 . S
C567 C564 1.539 . S
C567 H581 0.958 . S
C567 H582 0.961 . S
C567 H583 0.960 . S
H568 C552 0.931 . S
H569 C557 0.929 . S
H570 C558 0.960 . S
H571 C558 0.962 . S
H572 C558 0.960 . S
H573 C559 0.961 . S
H574 C559 0.961 . S
H575 C559 0.961 . S
H576 C560 0.931 . S
H577 C565 0.930 . S
H578 C566 0.956 . S
H579 C566 0.961 . S
H580 C566 0.961 . S
H581 C567 0.958 . S
H582 C567 0.961 . S
H583 C567 0.960 . S
C584 C585 1.391 . S
C584 C586 1.394 . S
C584 H600 0.931 . S
C585 C584 1.391 . S
C585 C589 1.376 . S
C586 C584 1.394 . S
C586 C587 1.369 . S
C586 C590 1.531 . S
C587 C586 1.369 . S
C587 C588 1.410 . S
C587 C595 1.503 . S
C588 C587 1.410 . S
C588 C589 1.392 . S
C588 C591 1.511 . S
C589 C585 1.376 . S
C589 C588 1.392 . S
C589 H601 0.929 . S
C590 C586 1.531 . S
C590 H602 0.960 . S
C590 H603 0.962 . S
C590 H604 0.960 . S
C591 C588 1.511 . S
C591 H605 0.961 . S
C591 H606 0.961 . S
C591 H607 0.961 . S
C592 C593 1.370 . S
C592 C594 1.363 . S
C592 H608 0.931 . S
C593 C592 1.370 . S
C593 C597 1.408 . S
C594 C592 1.363 . S
C594 C595 1.370 . S
C594 C598 1.524 . S
C595 C587 1.503 . S
C595 C594 1.370 . S
C595 C596 1.403 . S
C596 C595 1.403 . S
C596 C597 1.404 . S
C596 C599 1.539 . S
C597 C593 1.408 . S
C597 C596 1.404 . S
C597 H609 0.930 . S
C598 C594 1.524 . S
C598 H610 0.956 . S
C598 H611 0.961 . S
C598 H612 0.961 . S
C599 C596 1.539 . S
C599 H613 0.958 1_545 S
C599 H614 0.961 . S
C599 H615 0.960 . S
H600 C584 0.931 . S
H601 C589 0.929 . S
H602 C590 0.960 . S
H603 C590 0.962 . S
H604 C590 0.960 . S
H605 C591 0.961 . S
H606 C591 0.961 . S
H607 C591 0.961 . S
H608 C592 0.931 . S
H609 C597 0.930 . S
H610 C598 0.956 . S
H611 C598 0.961 . S
H612 C598 0.961 . S
H613 C599 0.958 1_565 S
H614 C599 0.961 . S
H615 C599 0.960 . S
C616 C617 1.391 . S
C616 C618 1.394 . S
C616 H632 0.931 . S
C617 C616 1.391 . S
C617 C621 1.376 . S
C618 C616 1.394 . S
C618 C619 1.369 . S
C618 C622 1.531 . S
C619 C618 1.369 . S
C619 C620 1.410 . S
C619 C627 1.503 . S
C620 C619 1.410 . S
C620 C621 1.392 . S
C620 C623 1.511 . S
C621 C617 1.376 . S
C621 C620 1.392 . S
C621 H633 0.929 . S
C622 C618 1.531 . S
C622 H634 0.960 . S
C622 H635 0.962 . S
C622 H636 0.960 . S
C623 C620 1.511 . S
C623 H637 0.961 . S
C623 H638 0.961 . S
C623 H639 0.961 . S
C624 C625 1.370 . S
C624 C626 1.363 . S
C624 H640 0.931 . S
C625 C624 1.370 . S
C625 C629 1.408 . S
C626 C624 1.363 . S
C626 C627 1.370 . S
C626 C630 1.524 . S
C627 C619 1.503 . S
C627 C626 1.370 . S
C627 C628 1.403 . S
C628 C627 1.403 . S
C628 C629 1.404 . S
C628 C631 1.539 . S
C629 C625 1.408 . S
C629 C628 1.404 . S
C629 H641 0.930 . S
C630 C626 1.524 . S
C630 H642 0.956 . S
C630 H643 0.961 . S
C630 H644 0.961 . S
C631 C628 1.539 . S
C631 H645 0.958 . S
C631 H646 0.961 . S
C631 H647 0.960 . S
H632 C616 0.931 . S
H633 C621 0.929 . S
H634 C622 0.960 . S
H635 C622 0.962 . S
H636 C622 0.960 . S
H637 C623 0.961 . S
H638 C623 0.961 . S
H639 C623 0.961 . S
H640 C624 0.931 . S
H641 C629 0.930 . S
H642 C630 0.956 . S
H643 C630 0.961 . S
H644 C630 0.961 . S
H645 C631 0.958 . S
H646 C631 0.961 . S
H647 C631 0.960 . S
C648 C649 1.391 . S
C648 C650 1.394 . S
C648 H664 0.931 . S
C649 C648 1.391 . S
C649 C653 1.376 . S
C650 C648 1.394 . S
C650 C651 1.369 . S
C650 C654 1.531 . S
C651 C650 1.369 . S
C651 C652 1.410 . S
C651 C659 1.503 . S
C652 C651 1.410 . S
C652 C653 1.392 . S
C652 C655 1.511 . S
C653 C649 1.376 . S
C653 C652 1.392 . S
C653 H665 0.929 . S
C654 C650 1.531 . S
C654 H666 0.960 . S
C654 H667 0.962 . S
C654 H668 0.960 . S
C655 C652 1.511 . S
C655 H669 0.961 1_565 S
C655 H670 0.961 1_565 S
C655 H671 0.961 . S
C656 C657 1.370 . S
C656 C658 1.363 . S
C656 H672 0.931 . S
C657 C656 1.370 . S
C657 C661 1.408 . S
C658 C656 1.363 . S
C658 C659 1.370 . S
C658 C662 1.524 . S
C659 C651 1.503 . S
C659 C658 1.370 . S
C659 C660 1.403 . S
C660 C659 1.403 . S
C660 C661 1.404 . S
C660 C663 1.539 . S
C661 C657 1.408 . S
C661 C660 1.404 . S
C661 H673 0.930 . S
C662 C658 1.524 . S
C662 H674 0.956 . S
C662 H675 0.961 1_565 S
C662 H676 0.961 1_565 S
C663 C660 1.539 . S
C663 H677 0.958 . S
C663 H678 0.961 . S
C663 H679 0.960 . S
H664 C648 0.931 . S
H665 C653 0.929 . S
H666 C654 0.960 . S
H667 C654 0.962 . S
H668 C654 0.960 . S
H669 C655 0.961 1_545 S
H670 C655 0.961 1_545 S
H671 C655 0.961 . S
H672 C656 0.931 . S
H673 C661 0.930 . S
H674 C662 0.956 . S
H675 C662 0.961 1_545 S
H676 C662 0.961 1_545 S
H677 C663 0.958 . S
H678 C663 0.961 . S
H679 C663 0.960 . S
C305 C191 1.630 . S
C297 C119 1.631 . S
C329 C23 1.605 . S
C337 C286 1.598 . S
C361 C55 1.569 . S
C369 C202 1.618 . S
C393 C87 1.525 . S
C401 C275 1.588 . S
C433 C186 1.391 . S
C425 C17 1.539 . S
C465 C279 1.604 . S
C457 C61 1.502 . S
C489 C93 1.516 . S
C497 C195 1.598 . S
C521 C113 1.531 . S
C529 C270 1.378 . S
C561 C281 1.405 . S
C553 C49 1.504 . S
C593 C197 1.416 . S
C585 C81 1.525 . S
C625 C268 1.608 . S
C617 C125 1.579 . S
C649 C29 1.597 . S
C657 C184 1.598 . S
