# Generated by pormake.
# Topology pts, (4,4)-cn, num edge types: 1
# Building blocks:
#     Node 0, Type 0, BuildingBlock: NAWXER_clean_linker_0, # of connection points: 4
#     Node 1, Type 0, BuildingBlock: NAWXER_clean_linker_0, # of connection points: 4
#     Node 2, Type 1, BuildingBlock: AZAVOO_clean_sbu_0, # of connection points: 4
#     Node 3, Type 1, BuildingBlock: AZAVOO_clean_sbu_0, # of connection points: 4
#     Edge 4, Type (0, 1), BuildingBlock: TEMPAE_clean_linker_10, # of connection points: 2
#     Edge 5, Type (0, 1), BuildingBlock: TEMPAE_clean_linker_10, # of connection points: 2
#     Edge 6, Type (0, 1), BuildingBlock: TEMPAE_clean_linker_10, # of connection points: 2
#     Edge 7, Type (0, 1), BuildingBlock: TEMPAE_clean_linker_10, # of connection points: 2
#     Edge 8, Type (0, 1), BuildingBlock: TEMPAE_clean_linker_10, # of connection points: 2
#     Edge 9, Type (0, 1), BuildingBlock: TEMPAE_clean_linker_10, # of connection points: 2
#     Edge 10, Type (0, 1), BuildingBlock: TEMPAE_clean_linker_10, # of connection points: 2
#     Edge 11, Type (0, 1), BuildingBlock: TEMPAE_clean_linker_10, # of connection points: 2
# Relax obj value: 0.000
# Max RMSD: 0.035
# Mean RMSD: 0.020
data_MOF--net-pts--node1-AZAVOO_clean_sbu_0--node2-NAWXER_clean_linker_0--edge1-TEMPAE_clean_linker_10
_symmetry_space_group_name_H-M    P1
_symmetry_Int_Tables_number       1
_symmetry_cell_setting            triclinic
loop_
_symmetry_equiv_pos_as_xyz
'x, y, z'
_cell_length_a     29.359951
_cell_length_b     30.242808
_cell_length_c     43.537086
_cell_angle_alpha  90.039871
_cell_angle_beta   96.231131
_cell_angle_gamma 90.076496
loop_
_atom_site_label
_atom_site_type_symbol
_atom_site_fract_x
_atom_site_fract_y
_atom_site_fract_z
_atom_type_partial_charge
C0 C 0.67901 0.06168 0.95433 0.0
C1 C 0.68297 0.02998 0.9311 0.0
C2 C 0.64141 0.06109 0.9715 0.0
C3 C 0.60721 0.02866 0.96588 0.0
C4 C 0.64836 -0.00216 0.92542 0.0
C5 C 0.61073 -0.00256 0.94245 0.0
C6 C 0.56708 0.02764 0.9837 0.0
C7 C 0.68854 0.99038 0.04989 0.0
C8 C 0.69767 0.01859 0.07551 0.0
C9 C 0.64752 -0.0061 0.03056 0.0
C10 C 0.61509 0.02632 0.03601 0.0
C11 C 0.66489 0.0507 0.08112 0.0
C12 C 0.62398 0.0544 0.06162 0.0
C13 C 0.57073 0.02924 0.01631 0.0
C14 C 0.37592 -0.00328 0.04294 0.0
C15 C 0.3731 0.02723 0.06698 0.0
C16 C 0.41378 -0.00325 0.02609 0.0
C17 C 0.44885 0.02826 0.03228 0.0
C18 C 0.40882 0.0578 0.07386 0.0
C19 C 0.44632 0.05834 0.05662 0.0
C20 C 0.4891 0.02906 0.01444 0.0
C21 C 0.36477 0.05171 0.94602 0.0
C22 C 0.35727 0.01722 0.92436 0.0
C23 C 0.40655 0.05517 0.96466 0.0
C24 C 0.4414 0.02403 0.96205 0.0
C25 C 0.3926 0.98666 0.92148 0.0
C26 C 0.4343 0.9902 0.94001 0.0
C27 C 0.48559 0.0264 0.98183 0.0
H28 H 0.7046 0.08733 0.95896 0.0
H29 H 0.63887 0.08619 0.98899 0.0
H30 H 0.6506 0.97251 0.90806 0.0
H31 H 0.58467 0.97222 0.93767 0.0
H32 H 0.71304 0.96541 0.0448 0.0
H33 H 0.64092 0.97075 0.01161 0.0
H34 H 0.67036 0.07238 0.10099 0.0
H35 H 0.59918 0.07917 0.06661 0.0
H36 H 0.3493 0.97218 0.03766 0.0
H37 H 0.41573 0.97187 0.00839 0.0
H38 H 0.40749 0.08154 0.09239 0.0
H39 H 0.47323 0.08253 0.06215 0.0
H40 H 0.3382 0.07577 0.94874 0.0
H41 H 0.41162 0.08207 0.98112 0.0
H42 H 0.38822 0.96027 0.90457 0.0
H43 H 0.4609 0.9661 0.93741 0.0
N44 N 0.52469 0.02571 0.96778 0.0
N45 N 0.53158 0.03047 0.03038 0.0
C46 C 0.05395 0.6521 0.55812 0.0
C47 C 0.01714 0.65608 0.57606 0.0
C48 C 0.05576 0.61673 0.53763 0.0
C49 C 0.02076 0.58485 0.53477 0.0
C50 C 0.98193 0.6244 0.57286 0.0
C51 C 0.98393 0.58892 0.55258 0.0
C52 C 0.02442 0.54487 0.51577 0.0
C53 C 0.00418 0.65444 0.4453 0.0
C54 C 0.04067 0.65973 0.42722 0.0
C55 C 0.00292 0.61812 0.46499 0.0
C56 C 0.03818 0.5866 0.46694 0.0
C57 C 0.07618 0.62845 0.42954 0.0
C58 C 0.07475 0.59204 0.44906 0.0
C59 C 0.03499 0.54567 0.48499 0.0
C60 C 0.00949 0.35671 0.44369 0.0
C61 C 0.04313 0.35592 0.4231 0.0
C62 C 0.00694 0.39231 0.4639 0.0
C63 C 0.03896 0.42698 0.46452 0.0
C64 C 0.07473 0.39073 0.42341 0.0
C65 C 0.07276 0.42584 0.44401 0.0
C66 C 0.03514 0.46672 0.48395 0.0
C67 C 0.05099 0.35485 0.55323 0.0
C68 C 0.01746 0.35314 0.57387 0.0
C69 C 0.0532 0.39103 0.53349 0.0
C70 C 0.02093 0.42534 0.53344 0.0
C71 C 0.98547 0.38745 0.57399 0.0
C72 C 0.98708 0.42312 0.55388 0.0
C73 C 0.02468 0.46594 0.51493 0.0
H74 H 0.0814 0.67625 0.56004 0.0
H75 H 0.08511 0.61366 0.52471 0.0
H76 H 0.95341 0.62646 0.58663 0.0
H77 H 0.95689 0.56433 0.551 0.0
H78 H 0.97649 0.67823 0.44404 0.0
H79 H 0.97374 0.61402 0.47797 0.0
H80 H 0.10444 0.63148 0.41562 0.0
H81 H 0.10198 0.56777 0.44993 0.0
H82 H 0.98437 0.33041 0.44348 0.0
H83 H 0.9793 0.39314 0.47845 0.0
H84 H 0.101 0.39068 0.40774 0.0
H85 H 0.09749 0.45243 0.44372 0.0
H86 H 0.07636 0.32888 0.5531 0.0
H87 H 0.08081 0.39266 0.51895 0.0
H88 H 0.95927 0.38666 0.5897 0.0
H89 H 0.96214 0.44938 0.55457 0.0
N90 N 0.01959 0.50511 0.52942 0.0
N91 N 0.04004 0.50663 0.47038 0.0
Mg92 Mg 0.07705 -0.00345 0.2642 0.0
O93 O 0.00661 -0.00666 0.23515 0.0
O94 O 0.95374 0.98662 0.26811 0.0
Mg95 Mg 0.98879 0.98502 0.31737 0.0
C96 C 0.96484 0.98992 0.24065 0.0
C97 C 0.12012 0.98819 0.20279 0.0
O98 O 0.10475 0.94794 0.20644 0.0
O99 O 0.06323 0.0677 0.27814 0.0
O100 O 0.01088 0.05683 0.31124 0.0
O101 O 0.08268 0.92257 0.26514 0.0
O102 O 0.05184 0.96214 0.3 0.0
C103 C 0.03636 0.08225 0.29703 0.0
C104 C 0.06219 0.92391 0.28997 0.0
O105 O 0.11191 0.01789 0.22213 0.0
Mg106 Mg 0.97871 -0.00357 0.73478 0.0
O107 O 0.04839 -0.00636 0.76462 0.0
O108 O 0.10219 0.98426 0.73266 0.0
Mg109 Mg 0.06829 0.98099 0.68312 0.0
C110 C 0.09031 0.98917 0.7598 0.0
C111 C 0.93895 -0.00668 0.79765 0.0
O112 O 0.95774 0.95402 0.79665 0.0
O113 O 0.99407 0.06655 0.71954 0.0
O114 O 0.04727 0.05344 0.68743 0.0
O115 O 0.97195 0.9225 0.73542 0.0
O116 O 0.00425 0.96001 0.70015 0.0
C117 C 0.02172 0.07985 0.70075 0.0
C118 C 0.9931 0.92242 0.71083 0.0
O119 O 0.94353 0.02047 0.77592 0.0
C120 C 0.28869 0.02589 0.07083 0.0
C121 C 0.33365 0.02609 0.08546 0.0
C122 C 0.25108 0.02304 0.0881 0.0
C123 C 0.25877 0.01934 0.12067 0.0
C124 C 0.30416 0.02008 0.13553 0.0
C125 C 0.34104 0.02386 0.11774 0.0
C126 C 0.2032 0.02321 0.07148 0.0
C127 C 0.31384 0.01544 0.17016 0.0
C128 C 0.16552 0.04024 0.17307 0.0
C129 C 0.15177 -0.00302 0.17921 0.0
C130 C 0.19901 0.04824 0.15299 0.0
C131 C 0.21972 0.01208 0.1392 0.0
C132 C 0.20495 0.96848 0.14459 0.0
C133 C 0.1709 0.96151 0.16429 0.0
C134 C 0.2132 0.09525 0.14726 0.0
C135 C 0.22651 0.92898 0.13061 0.0
H136 H 0.28302 0.02804 0.04585 0.0
H137 H 0.37584 0.02364 0.12901 0.0
H138 H 0.18654 0.9908 0.0745 0.0
H139 H 0.18212 0.04875 0.08155 0.0
H140 H 0.20298 0.02971 0.04635 0.0
H141 H 0.351 0.01779 0.17819 0.0
H142 H 0.29554 0.04148 0.18189 0.0
H143 H 0.30095 0.98302 0.17749 0.0
H144 H 0.15067 0.06783 0.18436 0.0
H145 H 0.16057 0.92796 0.16891 0.0
H146 H 0.21223 0.10149 0.12209 0.0
H147 H 0.249 0.10064 0.15759 0.0
H148 H 0.19085 0.11974 0.15732 0.0
H149 H 0.2244 0.93246 0.10514 0.0
H150 H 0.20987 0.89737 0.13609 0.0
H151 H 0.26338 0.9272 0.13942 0.0
C152 C 0.01372 0.27259 0.58494 0.0
C153 C 0.01648 0.31612 0.59581 0.0
C154 C 0.01298 0.23706 0.60551 0.0
C155 C 0.01616 0.2454 0.63771 0.0
C156 C 0.01894 0.28942 0.64879 0.0
C157 C 0.01859 0.32439 0.62761 0.0
C158 C 0.00918 0.19057 0.59277 0.0
C159 C 0.02343 0.29947 0.68296 0.0
C160 C 0.97976 0.14906 0.68501 0.0
C161 C 0.02136 0.12648 0.69113 0.0
C162 C 0.97773 0.18936 0.66894 0.0
C163 C 0.01845 0.20765 0.65956 0.0
C164 C 0.06103 0.18679 0.66818 0.0
C165 C 0.06188 0.14608 0.68352 0.0
C166 C 0.93163 0.21035 0.65983 0.0
C167 C 0.10536 0.20589 0.65937 0.0
H168 H 0.01173 0.26644 0.56029 0.0
H169 H 0.02103 0.35822 0.6359 0.0
H170 H 0.04071 0.17177 0.60065 0.0
H171 H 0.97999 0.17313 0.60161 0.0
H172 H 0.00423 0.18998 0.56711 0.0
H173 H 0.02365 0.33556 0.68772 0.0
H174 H 0.99481 0.2841 0.6938 0.0
H175 H 0.05569 0.28497 0.69425 0.0
H176 H 0.94837 0.13365 0.69068 0.0
H177 H 0.0941 0.12865 0.68848 0.0
H178 H 0.92231 0.20616 0.6346 0.0
H179 H 0.93287 0.24636 0.66466 0.0
H180 H 0.90423 0.19525 0.67211 0.0
H181 H 0.1066 0.20207 0.63413 0.0
H182 H 0.13579 0.18918 0.67157 0.0
H183 H 0.10751 0.24176 0.66469 0.0
C184 C 0.76389 0.0509 0.10962 0.0
C185 C 0.7404 0.01357 0.09696 0.0
C186 C 0.80257 0.04657 0.13136 0.0
C187 C 0.81838 0.00387 0.14051 0.0
C188 C 0.79583 0.96605 0.12706 0.0
C189 C 0.75701 0.97135 0.10556 0.0
C190 C 0.82567 0.08771 0.14524 0.0
C191 C 0.81173 0.91996 0.13616 0.0
C192 C 0.93766 -0.0064 0.18388 0.0
C193 C 0.92767 0.99165 0.21467 0.0
C194 C 0.90245 -0.00298 0.15939 0.0
C195 C 0.85626 -0.00119 0.16588 0.0
C196 C 0.84596 -0.00362 0.19683 0.0
C197 C 0.88169 -0.00729 0.22078 0.0
C198 C 0.91465 -0.00085 0.12662 0.0
C199 C 0.79714 -0.00168 0.20473 0.0
H200 H 0.7518 0.08363 0.1027 0.0
H201 H 0.73882 0.94228 0.09622 0.0
H202 H 0.8222 0.08894 0.17035 0.0
H203 H 0.86283 0.08698 0.14266 0.0
H204 H 0.81078 0.11843 0.13438 0.0
H205 H 0.79302 0.89416 0.12162 0.0
H206 H 0.84893 0.91652 0.13426 0.0
H207 H 0.80643 0.91381 0.16064 0.0
H208 H 0.97302 -0.00729 0.17887 0.0
H209 H 0.87345 0.9913 0.24443 0.0
H210 H 0.90285 0.03098 0.11591 0.0
H211 H 0.89685 0.97234 0.11262 0.0
H212 H 0.95211 -0.00394 0.12539 0.0
H213 H 0.78113 0.02997 0.19647 0.0
H214 H 0.7949 -0.00445 0.22996 0.0
H215 H 0.7767 0.97122 0.19284 0.0
C216 C 0.97519 0.71709 0.59943 0.0
C217 C 0.01563 0.69288 0.59834 0.0
C218 C 0.97338 0.75253 0.62 0.0
C219 C 0.0129 0.76376 0.64009 0.0
C220 C 0.05354 0.73879 0.6396 0.0
C221 C 0.05449 0.70372 0.61858 0.0
C222 C 0.92956 0.77873 0.6196 0.0
C223 C 0.09618 0.74962 0.66088 0.0
C224 C 0.01925 0.88331 0.6656 0.0
C225 C 0.00278 0.8811 0.69463 0.0
C226 C 0.02412 0.84513 0.6481 0.0
C227 C 0.0124 0.80361 0.65995 0.0
C228 C 0.99751 0.80083 0.68976 0.0
C229 C 0.99268 0.83974 0.70675 0.0
C230 C 0.03993 0.8495 0.61634 0.0
C231 C 0.98518 0.75698 0.7032 0.0
H232 H 0.94522 0.70892 0.58364 0.0
H233 H 0.08559 0.68457 0.61806 0.0
H234 H 0.91838 0.78002 0.64312 0.0
H235 H 0.93556 0.81328 0.61246 0.0
H236 H 0.90134 0.76448 0.60354 0.0
H237 H 0.12396 0.72516 0.65906 0.0
H238 H 0.10901 0.78283 0.65523 0.0
H239 H 0.08817 0.75075 0.68519 0.0
H240 H 0.02681 0.91513 0.65592 0.0
H241 H 0.98002 0.83782 0.72919 0.0
H242 H 0.01193 0.83927 0.59856 0.0
H243 H 0.06945 0.82732 0.61412 0.0
H244 H 0.05017 0.88388 0.61128 0.0
H245 H 0.95422 0.74332 0.68957 0.0
H246 H 0.97821 0.75998 0.72769 0.0
H247 H 0.01329 0.73282 0.7018 0.0
C248 C 0.29256 0.97207 0.89846 0.0
C249 C 0.31335 0.01349 0.90413 0.0
C250 C 0.25334 0.96735 0.87724 0.0
C251 C 0.23454 0.00497 0.86125 0.0
C252 C 0.25422 0.04717 0.86783 0.0
C253 C 0.29339 0.05093 0.88923 0.0
C254 C 0.23316 0.92185 0.87102 0.0
C255 C 0.23521 0.08805 0.85121 0.0
C256 C 0.17296 0.98777 0.78102 0.0
C257 C 0.12675 0.99143 0.78622 0.0
C258 C 0.20817 0.99183 0.80529 0.0
C259 C 0.19707 -0.00036 0.83564 0.0
C260 C 0.15058 0.00273 0.84126 0.0
C261 C 0.11592 -0.00138 0.81647 0.0
C262 C 0.25736 0.98826 0.79834 0.0
C263 C 0.13752 0.01087 0.87338 0.0
H264 H 0.30742 0.94314 0.91032 0.0
H265 H 0.30949 0.08298 0.89336 0.0
H266 H 0.19573 0.92231 0.8727 0.0
H267 H 0.23815 0.91151 0.84716 0.0
H268 H 0.2492 0.89672 0.88736 0.0
H269 H 0.25186 0.11878 0.86091 0.0
H270 H 0.24048 0.08586 0.8264 0.0
H271 H 0.19778 0.09051 0.85252 0.0
H272 H 0.18184 0.98217 0.75781 0.0
H273 H 0.08037 0.00148 0.82078 0.0
H274 H 0.27491 0.96126 0.8122 0.0
H275 H 0.27592 0.0194 0.80496 0.0
H276 H 0.26017 0.98167 0.77351 0.0
H277 H 0.15258 0.98494 0.88939 0.0
H278 H 0.0998 0.01116 0.87403 0.0
H279 H 0.15165 0.04307 0.88215 0.0
C280 C 0.04321 0.32769 0.36921 0.0
C281 C 0.04475 0.31916 0.40094 0.0
C282 C 0.04291 0.29288 0.34785 0.0
C283 C 0.04509 0.24875 0.35868 0.0
C284 C 0.04794 0.24015 0.39084 0.0
C285 C 0.04721 0.27552 0.41157 0.0
C286 C 0.03887 0.30321 0.31375 0.0
C287 C 0.05109 0.19355 0.40334 0.0
C288 C 0.99744 0.14981 0.31311 0.0
C289 C 0.0376 0.12928 0.30578 0.0
C290 C -0.00092 0.19084 0.3281 0.0
C291 C 0.04206 0.2111 0.33666 0.0
C292 C 0.08242 0.19196 0.32738 0.0
C293 C 0.07961 0.15132 0.31166 0.0
C294 C 0.95513 0.21079 0.33681 0.0
C295 C 0.12892 0.21233 0.33637 0.0
H296 H 0.04101 0.36159 0.36109 0.0
H297 H 0.04881 0.26913 0.43617 0.0
H298 H 0.06689 0.287 0.30281 0.0
H299 H 0.00608 0.28981 0.30237 0.0
H300 H 0.03997 0.33932 0.30921 0.0
H301 H 0.05613 0.19275 0.429 0.0
H302 H 0.01925 0.17515 0.39543 0.0
H303 H 0.07997 0.17583 0.39437 0.0
H304 H 0.9649 0.1328 0.30833 0.0
H305 H 0.11071 0.13521 0.30619 0.0
H306 H 0.95379 0.24668 0.33155 0.0
H307 H 0.95365 0.20703 0.36203 0.0
H308 H 0.92438 0.19461 0.32451 0.0
H309 H 0.12824 0.2484 0.33182 0.0
H310 H 0.15585 0.19702 0.32379 0.0
H311 H 0.13849 0.2077 0.36153 0.0
C312 C 0.76736 0.03859 0.9271 0.0
C313 C 0.72299 0.03013 0.91283 0.0
C314 C 0.80553 0.03656 0.91028 0.0
C315 C 0.79922 0.02533 0.87853 0.0
C316 C 0.75446 0.01779 0.86385 0.0
C317 C 0.71694 0.02057 0.8811 0.0
C318 C 0.85269 0.04529 0.92664 0.0
C319 C 0.74626 0.00563 0.83003 0.0
C320 C 0.88897 0.04571 0.8235 0.0
C321 C 0.90762 0.00329 0.82122 0.0
C322 C 0.85519 0.05402 0.84329 0.0
C323 C 0.83933 0.01893 0.86085 0.0
C324 C 0.8594 0.97653 0.85961 0.0
C325 C 0.89351 0.96932 0.83999 0.0
C326 C 0.83521 0.09988 0.84446 0.0
C327 C 0.84321 0.93815 0.8778 0.0
H328 H 0.77245 0.04564 0.95164 0.0
H329 H 0.68273 0.01496 0.86972 0.0
H330 H 0.87316 0.01442 0.92756 0.0
H331 H 0.87096 0.07006 0.91371 0.0
H332 H 0.85142 0.05744 0.95062 0.0
H333 H 0.70925 0.00196 0.82192 0.0
H334 H 0.76102 0.03125 0.8158 0.0
H335 H 0.76375 0.97399 0.82596 0.0
H336 H 0.89995 0.07224 0.80926 0.0
H337 H 0.90775 0.93644 0.83843 0.0
H338 H 0.83477 0.11073 0.86877 0.0
H339 H 0.79921 0.09956 0.83364 0.0
H340 H 0.8547 0.12449 0.83216 0.0
H341 H 0.8441 0.94706 0.90257 0.0
H342 H 0.86434 0.90804 0.87582 0.0
H343 H 0.80713 0.93015 0.86929 0.0
C344 C 0.08152 0.72183 0.40411 0.0
C345 C 0.04131 0.69724 0.40545 0.0
C346 C 0.08274 0.75738 0.3836 0.0
C347 C 0.04283 0.76836 0.36385 0.0
C348 C 0.00228 0.7433 0.36481 0.0
C349 C 0.00196 0.70808 0.38573 0.0
C350 C 0.1265 0.78366 0.38346 0.0
C351 C 0.95922 0.75392 0.34393 0.0
C352 C 0.0367 0.88697 0.33628 0.0
C353 C 0.05247 0.88344 0.3071 0.0
C354 C 0.03197 0.84953 0.35455 0.0
C355 C 0.04317 0.80748 0.34333 0.0
C356 C 0.05736 0.80338 0.3134 0.0
C357 C 0.062 0.84153 0.29562 0.0
C358 C 0.01688 0.85525 0.38641 0.0
C359 C 0.06918 0.75893 0.30062 0.0
H360 H 0.11186 0.71369 0.41953 0.0
H361 H 0.97102 0.68866 0.38643 0.0
H362 H 0.13751 0.78409 0.35988 0.0
H363 H 0.1205 0.81846 0.39002 0.0
H364 H 0.15483 0.77004 0.39968 0.0
H365 H 0.93113 0.73008 0.34666 0.0
H366 H 0.94723 0.78763 0.34906 0.0
H367 H 0.96644 0.75373 0.31944 0.0
H368 H 0.02956 0.91923 0.34544 0.0
H369 H 0.07413 0.83859 0.27307 0.0
H370 H 0.04522 0.84574 0.40413 0.0
H371 H 0.98746 0.8332 0.38936 0.0
H372 H 0.00679 0.88985 0.39091 0.0
H373 H 0.10017 0.74556 0.31433 0.0
H374 H 0.07587 0.76093 0.27603 0.0
H375 H 0.04092 0.73505 0.30258 0.0
loop_
_geom_bond_atom_site_label_1
_geom_bond_atom_site_label_2
_geom_bond_distance
_geom_bond_site_symmetry_2
_ccdc_geom_bond_type
C0 C1 1.384 . S
C0 C2 1.384 . S
C0 H28 0.931 . S
C1 C0 1.384 . S
C1 C4 1.382 1_545 S
C2 C0 1.384 . S
C2 C3 1.381 . S
C2 H29 0.930 . S
C3 C2 1.381 . S
C3 C5 1.381 1_545 S
C3 C6 1.487 . S
C4 C1 1.382 1_565 S
C4 C5 1.387 . S
C4 H30 0.930 . S
C5 C3 1.381 1_565 S
C5 C4 1.387 . S
C5 H31 0.931 . S
C6 C3 1.487 . S
C6 C13 1.399 1_556 S
C6 N44 1.343 . S
C7 C8 1.384 1_565 S
C7 C9 1.384 . S
C7 H32 0.931 . S
C8 C7 1.384 1_545 S
C8 C11 1.382 . S
C9 C7 1.384 . S
C9 C10 1.381 1_565 S
C9 H33 0.930 . S
C10 C9 1.381 1_545 S
C10 C12 1.381 . S
C10 C13 1.487 . S
C11 C8 1.382 . S
C11 C12 1.387 . S
C11 H34 0.930 . S
C12 C10 1.381 . S
C12 C11 1.387 . S
C12 H35 0.931 . S
C13 C6 1.399 1_554 S
C13 C10 1.487 . S
C13 N45 1.343 . S
C14 C15 1.384 1_565 S
C14 C16 1.384 . S
C14 H36 0.931 . S
C15 C14 1.384 1_545 S
C15 C18 1.382 . S
C16 C14 1.384 . S
C16 C17 1.381 1_565 S
C16 H37 0.930 . S
C17 C16 1.381 1_545 S
C17 C19 1.381 . S
C17 C20 1.487 . S
C18 C15 1.382 . S
C18 C19 1.387 . S
C18 H38 0.930 . S
C19 C17 1.381 . S
C19 C18 1.387 . S
C19 H39 0.931 . S
C20 C17 1.487 . S
C20 C27 1.399 1_554 S
C20 N45 1.343 . S
C21 C22 1.384 . S
C21 C23 1.384 . S
C21 H40 0.931 . S
C22 C21 1.384 . S
C22 C25 1.382 1_545 S
C23 C21 1.384 . S
C23 C24 1.381 . S
C23 H41 0.930 . S
C24 C23 1.381 . S
C24 C26 1.381 1_545 S
C24 C27 1.487 . S
C25 C22 1.382 1_565 S
C25 C26 1.387 . S
C25 H42 0.930 . S
C26 C24 1.381 1_565 S
C26 C25 1.387 . S
C26 H43 0.931 . S
C27 C20 1.399 1_556 S
C27 C24 1.487 . S
C27 N44 1.343 . S
H28 C0 0.931 . S
H29 C2 0.930 . S
H30 C4 0.930 . S
H31 C5 0.931 . S
H32 C7 0.931 . S
H33 C9 0.930 . S
H34 C11 0.930 . S
H35 C12 0.931 . S
H36 C14 0.931 . S
H37 C16 0.930 . S
H38 C18 0.930 . S
H39 C19 0.931 . S
H40 C21 0.931 . S
H41 C23 0.930 . S
H42 C25 0.930 . S
H43 C26 0.931 . S
N44 C6 1.343 . S
N44 C27 1.343 . S
N45 C13 1.343 . S
N45 C20 1.343 . S
C46 C47 1.384 . S
C46 C48 1.384 . S
C46 H74 0.931 . S
C47 C46 1.384 . S
C47 C50 1.382 1_455 S
C48 C46 1.384 . S
C48 C49 1.381 . S
C48 H75 0.930 . S
C49 C48 1.381 . S
C49 C51 1.381 1_455 S
C49 C52 1.487 . S
C50 C47 1.382 1_655 S
C50 C51 1.387 . S
C50 H76 0.930 . S
C51 C49 1.381 1_655 S
C51 C50 1.387 . S
C51 H77 0.931 . S
C52 C49 1.487 . S
C52 C59 1.399 . S
C52 N90 1.343 . S
C53 C54 1.384 . S
C53 C55 1.384 . S
C53 H78 0.931 1_455 S
C54 C53 1.384 . S
C54 C57 1.382 . S
C55 C53 1.384 . S
C55 C56 1.381 . S
C55 H79 0.930 1_455 S
C56 C55 1.381 . S
C56 C58 1.381 . S
C56 C59 1.487 . S
C57 C54 1.382 . S
C57 C58 1.387 . S
C57 H80 0.930 . S
C58 C56 1.381 . S
C58 C57 1.387 . S
C58 H81 0.931 . S
C59 C52 1.399 . S
C59 C56 1.487 . S
C59 N91 1.343 . S
C60 C61 1.384 . S
C60 C62 1.384 . S
C60 H82 0.931 1_455 S
C61 C60 1.384 . S
C61 C64 1.382 . S
C62 C60 1.384 . S
C62 C63 1.381 . S
C62 H83 0.930 1_455 S
C63 C62 1.381 . S
C63 C65 1.381 . S
C63 C66 1.487 . S
C64 C61 1.382 . S
C64 C65 1.387 . S
C64 H84 0.930 . S
C65 C63 1.381 . S
C65 C64 1.387 . S
C65 H85 0.931 . S
C66 C63 1.487 . S
C66 C73 1.399 . S
C66 N91 1.343 . S
C67 C68 1.384 . S
C67 C69 1.384 . S
C67 H86 0.931 . S
C68 C67 1.384 . S
C68 C71 1.382 1_455 S
C69 C67 1.384 . S
C69 C70 1.381 . S
C69 H87 0.930 . S
C70 C69 1.381 . S
C70 C72 1.381 1_455 S
C70 C73 1.487 . S
C71 C68 1.382 1_655 S
C71 C72 1.387 . S
C71 H88 0.930 . S
C72 C70 1.381 1_655 S
C72 C71 1.387 . S
C72 H89 0.931 . S
C73 C66 1.399 . S
C73 C70 1.487 . S
C73 N90 1.343 . S
H74 C46 0.931 . S
H75 C48 0.930 . S
H76 C50 0.930 . S
H77 C51 0.931 . S
H78 C53 0.931 1_655 S
H79 C55 0.930 1_655 S
H80 C57 0.930 . S
H81 C58 0.931 . S
H82 C60 0.931 1_655 S
H83 C62 0.930 1_655 S
H84 C64 0.930 . S
H85 C65 0.931 . S
H86 C67 0.931 . S
H87 C69 0.930 . S
H88 C71 0.930 . S
H89 C72 0.931 . S
N90 C52 1.343 . S
N90 C73 1.343 . S
N91 C59 1.343 . S
N91 C66 1.343 . S
Mg92 O93 2.028 . S
Mg92 O99 1.986 . S
Mg92 O101 2.114 1_545 S
Mg92 O102 2.251 1_545 S
Mg92 O105 2.010 . S
O93 Mg92 2.028 . S
O93 C96 1.250 1_455 S
O94 Mg95 2.028 . S
O94 C96 1.248 . S
Mg95 O94 2.028 . S
Mg95 O100 2.032 1_655 S
Mg95 O102 2.079 1_645 S
C96 O93 1.250 1_655 S
C96 O94 1.248 . S
C97 O98 1.264 . S
C97 O105 1.249 . S
O98 C97 1.264 . S
O99 Mg92 1.986 . S
O99 C103 1.246 . S
O100 Mg95 2.032 1_455 S
O100 C103 1.259 . S
O101 Mg92 2.114 1_565 S
O101 C104 1.252 . S
O102 Mg92 2.251 1_565 S
O102 Mg95 2.079 1_465 S
O102 C104 1.273 . S
C103 O99 1.246 . S
C103 O100 1.259 . S
C104 O101 1.252 . S
C104 O102 1.273 . S
O105 Mg92 2.010 . S
O105 C97 1.249 . S
Mg106 O107 2.028 1_655 S
Mg106 O113 1.986 . S
Mg106 O115 2.114 1_545 S
Mg106 O116 2.251 1_645 S
Mg106 O119 2.010 . S
O107 Mg106 2.028 1_455 S
O107 C110 1.250 . S
O108 Mg109 2.028 . S
O108 C110 1.248 . S
Mg109 O108 2.028 . S
Mg109 O114 2.032 . S
Mg109 O116 2.079 1_545 S
C110 O107 1.250 . S
C110 O108 1.248 . S
C111 O112 1.264 . S
C111 O119 1.249 . S
O112 C111 1.264 . S
O113 Mg106 1.986 . S
O113 C117 1.246 1_655 S
O114 Mg109 2.032 . S
O114 C117 1.259 . S
O115 Mg106 2.114 1_565 S
O115 C118 1.252 1_655 S
O116 Mg106 2.251 1_465 S
O116 Mg109 2.079 1_565 S
O116 C118 1.273 . S
C117 O113 1.246 1_455 S
C117 O114 1.259 . S
C118 O115 1.252 1_455 S
C118 O116 1.273 . S
O119 Mg106 2.010 . S
O119 C111 1.249 . S
C120 C121 1.391 . S
C120 C122 1.394 . S
C120 H136 0.931 . S
C121 C120 1.391 . S
C121 C125 1.376 1_545 S
C122 C120 1.394 . S
C122 C123 1.369 . S
C122 C126 1.531 . S
C123 C122 1.369 . S
C123 C124 1.410 1_545 S
C123 C131 1.503 . S
C124 C123 1.410 1_565 S
C124 C125 1.392 . S
C124 C127 1.511 . S
C125 C121 1.376 1_565 S
C125 C124 1.392 . S
C125 H137 0.929 . S
C126 C122 1.531 . S
C126 H138 0.960 . S
C126 H139 0.962 . S
C126 H140 0.960 . S
C127 C124 1.511 . S
C127 H141 0.961 . S
C127 H142 0.961 . S
C127 H143 0.961 . S
C128 C129 1.370 . S
C128 C130 1.363 . S
C128 H144 0.931 . S
C129 C128 1.370 . S
C129 C133 1.408 1_545 S
C130 C128 1.363 . S
C130 C131 1.370 . S
C130 C134 1.524 . S
C131 C123 1.503 . S
C131 C130 1.370 . S
C131 C132 1.403 1_545 S
C132 C131 1.403 1_565 S
C132 C133 1.404 . S
C132 C135 1.539 . S
C133 C129 1.408 1_565 S
C133 C132 1.404 . S
C133 H145 0.930 . S
C134 C130 1.524 . S
C134 H146 0.956 . S
C134 H147 0.961 . S
C134 H148 0.961 . S
C135 C132 1.539 . S
C135 H149 0.958 . S
C135 H150 0.961 . S
C135 H151 0.960 . S
H136 C120 0.931 . S
H137 C125 0.929 . S
H138 C126 0.960 . S
H139 C126 0.962 . S
H140 C126 0.960 . S
H141 C127 0.961 . S
H142 C127 0.961 . S
H143 C127 0.961 . S
H144 C128 0.931 . S
H145 C133 0.930 . S
H146 C134 0.956 . S
H147 C134 0.961 . S
H148 C134 0.961 . S
H149 C135 0.958 . S
H150 C135 0.961 . S
H151 C135 0.960 . S
C152 C153 1.391 . S
C152 C154 1.394 . S
C152 H168 0.931 1_455 S
C153 C152 1.391 . S
C153 C157 1.376 . S
C154 C152 1.394 . S
C154 C155 1.369 . S
C154 C158 1.531 1_455 S
C155 C154 1.369 . S
C155 C156 1.410 . S
C155 C163 1.503 . S
C156 C155 1.410 . S
C156 C157 1.392 . S
C156 C159 1.511 . S
C157 C153 1.376 . S
C157 C156 1.392 . S
C157 H169 0.929 . S
C158 C154 1.531 1_655 S
C158 H170 0.960 . S
C158 H171 0.962 . S
C158 H172 0.960 . S
C159 C156 1.511 . S
C159 H173 0.961 . S
C159 H174 0.961 . S
C159 H175 0.961 . S
C160 C161 1.370 1_655 S
C160 C162 1.363 . S
C160 H176 0.931 . S
C161 C160 1.370 1_455 S
C161 C165 1.408 . S
C162 C160 1.363 . S
C162 C163 1.370 1_655 S
C162 C166 1.524 . S
C163 C155 1.503 . S
C163 C162 1.370 1_455 S
C163 C164 1.403 . S
C164 C163 1.403 . S
C164 C165 1.404 . S
C164 C167 1.539 . S
C165 C161 1.408 . S
C165 C164 1.404 . S
C165 H177 0.930 . S
C166 C162 1.524 . S
C166 H178 0.956 . S
C166 H179 0.961 . S
C166 H180 0.961 . S
C167 C164 1.539 . S
C167 H181 0.958 . S
C167 H182 0.961 . S
C167 H183 0.960 . S
H168 C152 0.931 1_655 S
H169 C157 0.929 . S
H170 C158 0.960 . S
H171 C158 0.962 . S
H172 C158 0.960 . S
H173 C159 0.961 . S
H174 C159 0.961 . S
H175 C159 0.961 . S
H176 C160 0.931 . S
H177 C165 0.930 . S
H178 C166 0.956 . S
H179 C166 0.961 . S
H180 C166 0.961 . S
H181 C167 0.958 . S
H182 C167 0.961 . S
H183 C167 0.960 . S
C184 C185 1.391 . S
C184 C186 1.394 . S
C184 H200 0.931 . S
C185 C184 1.391 . S
C185 C189 1.376 1_545 S
C186 C184 1.394 . S
C186 C187 1.369 . S
C186 C190 1.531 . S
C187 C186 1.369 . S
C187 C188 1.410 1_545 S
C187 C195 1.503 . S
C188 C187 1.410 1_565 S
C188 C189 1.392 . S
C188 C191 1.511 . S
C189 C185 1.376 1_565 S
C189 C188 1.392 . S
C189 H201 0.929 . S
C190 C186 1.531 . S
C190 H202 0.960 . S
C190 H203 0.962 . S
C190 H204 0.960 . S
C191 C188 1.511 . S
C191 H205 0.961 . S
C191 H206 0.961 . S
C191 H207 0.961 . S
C192 C193 1.370 1_565 S
C192 C194 1.363 . S
C192 H208 0.931 . S
C193 C192 1.370 1_545 S
C193 C197 1.408 . S
C194 C192 1.363 . S
C194 C195 1.370 1_565 S
C194 C198 1.524 . S
C195 C187 1.503 . S
C195 C194 1.370 1_545 S
C195 C196 1.403 . S
C196 C195 1.403 . S
C196 C197 1.404 . S
C196 C199 1.539 . S
C197 C193 1.408 . S
C197 C196 1.404 . S
C197 H209 0.930 . S
C198 C194 1.524 . S
C198 H210 0.956 . S
C198 H211 0.961 . S
C198 H212 0.961 . S
C199 C196 1.539 . S
C199 H213 0.958 . S
C199 H214 0.961 . S
C199 H215 0.960 . S
H200 C184 0.931 . S
H201 C189 0.929 . S
H202 C190 0.960 . S
H203 C190 0.962 . S
H204 C190 0.960 . S
H205 C191 0.961 . S
H206 C191 0.961 . S
H207 C191 0.961 . S
H208 C192 0.931 . S
H209 C197 0.930 . S
H210 C198 0.956 . S
H211 C198 0.961 . S
H212 C198 0.961 . S
H213 C199 0.958 . S
H214 C199 0.961 . S
H215 C199 0.960 . S
C216 C217 1.391 1_655 S
C216 C218 1.394 . S
C216 H232 0.931 . S
C217 C216 1.391 1_455 S
C217 C221 1.376 . S
C218 C216 1.394 . S
C218 C219 1.369 1_655 S
C218 C222 1.531 . S
C219 C218 1.369 1_455 S
C219 C220 1.410 . S
C219 C227 1.503 . S
C220 C219 1.410 . S
C220 C221 1.392 . S
C220 C223 1.511 . S
C221 C217 1.376 . S
C221 C220 1.392 . S
C221 H233 0.929 . S
C222 C218 1.531 . S
C222 H234 0.960 . S
C222 H235 0.962 . S
C222 H236 0.960 . S
C223 C220 1.511 . S
C223 H237 0.961 . S
C223 H238 0.961 . S
C223 H239 0.961 . S
C224 C225 1.370 . S
C224 C226 1.363 . S
C224 H240 0.931 . S
C225 C224 1.370 . S
C225 C229 1.414 . S
C226 C224 1.363 . S
C226 C227 1.370 . S
C226 C230 1.524 . S
C227 C219 1.503 . S
C227 C226 1.370 . S
C227 C228 1.412 . S
C228 C227 1.412 . S
C228 C229 1.403 . S
C228 C231 1.533 1_455 S
C229 C225 1.414 . S
C229 C228 1.403 . S
C229 H241 0.924 1_455 S
C230 C226 1.524 . S
C230 H242 0.956 . S
C230 H243 0.961 . S
C230 H244 0.961 . S
C231 C228 1.533 1_655 S
C231 H245 0.958 . S
C231 H246 0.960 1_655 S
C231 H247 0.960 1_655 S
H232 C216 0.931 . S
H233 C221 0.929 . S
H234 C222 0.960 . S
H235 C222 0.962 . S
H236 C222 0.960 . S
H237 C223 0.961 . S
H238 C223 0.961 . S
H239 C223 0.961 . S
H240 C224 0.931 . S
H241 C229 0.924 1_655 S
H242 C230 0.956 . S
H243 C230 0.961 . S
H244 C230 0.961 . S
H245 C231 0.958 . S
H246 C231 0.960 1_455 S
H247 C231 0.960 1_455 S
C248 C249 1.391 1_565 S
C248 C250 1.394 . S
C248 H264 0.931 . S
C249 C248 1.391 1_545 S
C249 C253 1.376 . S
C250 C248 1.394 . S
C250 C251 1.369 1_565 S
C250 C254 1.531 . S
C251 C250 1.369 1_545 S
C251 C252 1.410 . S
C251 C259 1.503 . S
C252 C251 1.410 . S
C252 C253 1.392 . S
C252 C255 1.511 . S
C253 C249 1.376 . S
C253 C252 1.392 . S
C253 H265 0.929 . S
C254 C250 1.531 . S
C254 H266 0.960 . S
C254 H267 0.962 . S
C254 H268 0.960 . S
C255 C252 1.511 . S
C255 H269 0.961 . S
C255 H270 0.961 . S
C255 H271 0.961 . S
C256 C257 1.370 . S
C256 C258 1.363 . S
C256 H272 0.931 . S
C257 C256 1.370 . S
C257 C261 1.408 . S
C258 C256 1.363 . S
C258 C259 1.370 . S
C258 C262 1.524 . S
C259 C251 1.503 . S
C259 C258 1.370 . S
C259 C260 1.399 1_545 S
C260 C259 1.399 1_565 S
C260 C261 1.403 1_565 S
C260 C263 1.543 . S
C261 C257 1.408 . S
C261 C260 1.403 1_545 S
C261 H273 0.930 1_545 S
C262 C258 1.524 . S
C262 H274 0.956 . S
C262 H275 0.961 . S
C262 H276 0.961 . S
C263 C260 1.543 . S
C263 H277 0.958 . S
C263 H278 0.961 . S
C263 H279 0.965 . S
H264 C248 0.931 . S
H265 C253 0.929 . S
H266 C254 0.960 . S
H267 C254 0.962 . S
H268 C254 0.960 . S
H269 C255 0.961 . S
H270 C255 0.961 . S
H271 C255 0.961 . S
H272 C256 0.931 . S
H273 C261 0.930 1_565 S
H274 C262 0.956 . S
H275 C262 0.961 . S
H276 C262 0.961 . S
H277 C263 0.958 . S
H278 C263 0.961 . S
H279 C263 0.965 . S
C280 C281 1.391 . S
C280 C282 1.394 . S
C280 H296 0.931 . S
C281 C280 1.391 . S
C281 C285 1.376 . S
C282 C280 1.394 . S
C282 C283 1.369 . S
C282 C286 1.531 . S
C283 C282 1.369 . S
C283 C284 1.410 . S
C283 C291 1.503 . S
C284 C283 1.410 . S
C284 C285 1.392 . S
C284 C287 1.511 . S
C285 C281 1.376 . S
C285 C284 1.392 . S
C285 H297 0.929 . S
C286 C282 1.531 . S
C286 H298 0.960 . S
C286 H299 0.962 1_455 S
C286 H300 0.960 . S
C287 C284 1.511 . S
C287 H301 0.961 . S
C287 H302 0.961 . S
C287 H303 0.961 . S
C288 C289 1.370 . S
C288 C290 1.363 . S
C288 H304 0.931 1_455 S
C289 C288 1.370 . S
C289 C293 1.408 . S
C290 C288 1.363 . S
C290 C291 1.370 . S
C290 C294 1.524 1_455 S
C291 C283 1.503 . S
C291 C290 1.370 . S
C291 C292 1.403 . S
C292 C291 1.403 . S
C292 C293 1.404 . S
C292 C295 1.539 . S
C293 C289 1.408 . S
C293 C292 1.404 . S
C293 H305 0.930 . S
C294 C290 1.524 1_655 S
C294 H306 0.956 . S
C294 H307 0.961 . S
C294 H308 0.961 . S
C295 C292 1.539 . S
C295 H309 0.958 . S
C295 H310 0.961 . S
C295 H311 0.960 . S
H296 C280 0.931 . S
H297 C285 0.929 . S
H298 C286 0.960 . S
H299 C286 0.962 1_655 S
H300 C286 0.960 . S
H301 C287 0.961 . S
H302 C287 0.961 . S
H303 C287 0.961 . S
H304 C288 0.931 1_655 S
H305 C293 0.930 . S
H306 C294 0.956 . S
H307 C294 0.961 . S
H308 C294 0.961 . S
H309 C295 0.958 . S
H310 C295 0.961 . S
H311 C295 0.960 . S
C312 C313 1.391 1_565 S
C312 C314 1.394 . S
C312 H328 0.931 . S
C313 C312 1.391 1_545 S
C313 C317 1.376 . S
C314 C312 1.394 . S
C314 C315 1.369 1_565 S
C314 C318 1.531 . S
C315 C314 1.369 1_545 S
C315 C316 1.410 . S
C315 C323 1.503 . S
C316 C315 1.410 . S
C316 C317 1.392 . S
C316 C319 1.511 . S
C317 C313 1.376 . S
C317 C316 1.392 . S
C317 H329 0.929 . S
C318 C314 1.531 . S
C318 H330 0.960 . S
C318 H331 0.962 . S
C318 H332 0.960 . S
C319 C316 1.511 . S
C319 H333 0.961 . S
C319 H334 0.961 . S
C319 H335 0.961 . S
C320 C321 1.370 . S
C320 C322 1.363 . S
C320 H336 0.931 . S
C321 C320 1.370 . S
C321 C325 1.408 1_545 S
C322 C320 1.363 . S
C322 C323 1.370 . S
C322 C326 1.524 . S
C323 C315 1.503 . S
C323 C322 1.370 . S
C323 C324 1.403 1_545 S
C324 C323 1.403 1_565 S
C324 C325 1.404 . S
C324 C327 1.539 . S
C325 C321 1.408 1_565 S
C325 C324 1.404 . S
C325 H337 0.930 . S
C326 C322 1.524 . S
C326 H338 0.956 . S
C326 H339 0.961 . S
C326 H340 0.961 . S
C327 C324 1.539 . S
C327 H341 0.958 . S
C327 H342 0.961 . S
C327 H343 0.960 . S
H328 C312 0.931 . S
H329 C317 0.929 . S
H330 C318 0.960 . S
H331 C318 0.962 . S
H332 C318 0.960 . S
H333 C319 0.961 . S
H334 C319 0.961 . S
H335 C319 0.961 . S
H336 C320 0.931 . S
H337 C325 0.930 . S
H338 C326 0.956 . S
H339 C326 0.961 . S
H340 C326 0.961 . S
H341 C327 0.958 . S
H342 C327 0.961 . S
H343 C327 0.960 . S
C344 C345 1.391 . S
C344 C346 1.394 . S
C344 H360 0.931 . S
C345 C344 1.391 . S
C345 C349 1.376 1_455 S
C346 C344 1.394 . S
C346 C347 1.369 . S
C346 C350 1.531 . S
C347 C346 1.369 . S
C347 C348 1.404 1_455 S
C347 C355 1.503 . S
C348 C347 1.404 1_655 S
C348 C349 1.393 . S
C348 C351 1.517 . S
C349 C345 1.376 1_655 S
C349 C348 1.393 . S
C349 H361 0.929 . S
C350 C346 1.531 . S
C350 H362 0.960 . S
C350 H363 0.962 . S
C350 H364 0.960 . S
C351 C348 1.517 . S
C351 H365 0.961 . S
C351 H366 0.961 . S
C351 H367 0.961 . S
C352 C353 1.370 . S
C352 C354 1.363 . S
C352 H368 0.931 . S
C353 C352 1.370 . S
C353 C357 1.408 . S
C354 C352 1.363 . S
C354 C355 1.370 . S
C354 C358 1.524 . S
C355 C347 1.503 . S
C355 C354 1.370 . S
C355 C356 1.403 . S
C356 C355 1.403 . S
C356 C357 1.404 . S
C356 C359 1.539 . S
C357 C353 1.408 . S
C357 C356 1.404 . S
C357 H369 0.930 . S
C358 C354 1.524 . S
C358 H370 0.956 . S
C358 H371 0.961 . S
C358 H372 0.961 . S
C359 C356 1.539 . S
C359 H373 0.958 . S
C359 H374 0.961 . S
C359 H375 0.960 . S
H360 C344 0.931 . S
H361 C349 0.929 . S
H362 C350 0.960 . S
H363 C350 0.962 . S
H364 C350 0.960 . S
H365 C351 0.961 . S
H366 C351 0.961 . S
H367 C351 0.961 . S
H368 C352 0.931 . S
H369 C357 0.930 . S
H370 C358 0.956 . S
H371 C358 0.961 . S
H372 C358 0.961 . S
H373 C359 0.958 . S
H374 C359 0.961 . S
H375 C359 0.960 . S
C129 C97 1.271 . S
C121 C15 1.501 . S
C161 C117 1.460 . S
C153 C68 1.491 . S
C193 C96 1.454 . S
C185 C8 1.495 . S
C225 C118 1.506 . S
C217 C47 1.504 . S
C257 C110 1.473 . S
C249 C22 1.495 . S
C289 C103 1.479 . S
C281 C61 1.491 . S
C321 C111 1.244 . S
C313 C1 1.501 . S
C345 C54 1.505 . S
C353 C104 1.507 . S
