# Generated by pormake.
# Topology tsx, (6,3)-cn, num edge types: 1
# Building blocks:
#     Node 0, Type 0, BuildingBlock: JUFBIX_clean_sbu_0, # of connection points: 6
#     Node 1, Type 0, BuildingBlock: JUFBIX_clean_sbu_0, # of connection points: 6
#     Node 2, Type 1, BuildingBlock: ESEHIV_clean_linker_0, # of connection points: 3
#     Node 3, Type 1, BuildingBlock: ESEHIV_clean_linker_0, # of connection points: 3
#     Node 4, Type 1, BuildingBlock: ESEHIV_clean_linker_0, # of connection points: 3
#     Node 5, Type 1, BuildingBlock: ESEHIV_clean_linker_0, # of connection points: 3
#     Edge 6, Type (0, 1), BuildingBlock: KIFKEQ_clean_linker_1, # of connection points: 2
#     Edge 7, Type (0, 1), BuildingBlock: KIFKEQ_clean_linker_1, # of connection points: 2
#     Edge 8, Type (0, 1), BuildingBlock: KIFKEQ_clean_linker_1, # of connection points: 2
#     Edge 9, Type (0, 1), BuildingBlock: KIFKEQ_clean_linker_1, # of connection points: 2
#     Edge 10, Type (0, 1), BuildingBlock: KIFKEQ_clean_linker_1, # of connection points: 2
#     Edge 11, Type (0, 1), BuildingBlock: KIFKEQ_clean_linker_1, # of connection points: 2
#     Edge 12, Type (0, 1), BuildingBlock: KIFKEQ_clean_linker_1, # of connection points: 2
#     Edge 13, Type (0, 1), BuildingBlock: KIFKEQ_clean_linker_1, # of connection points: 2
#     Edge 14, Type (0, 1), BuildingBlock: KIFKEQ_clean_linker_1, # of connection points: 2
#     Edge 15, Type (0, 1), BuildingBlock: KIFKEQ_clean_linker_1, # of connection points: 2
#     Edge 16, Type (0, 1), BuildingBlock: KIFKEQ_clean_linker_1, # of connection points: 2
#     Edge 17, Type (0, 1), BuildingBlock: KIFKEQ_clean_linker_1, # of connection points: 2
# Relax obj value: 0.160
# Max RMSD: 0.169
# Mean RMSD: 0.137
data_MOF--net-tsx--node1-JUFBIX_clean_sbu_0--node2-ESEHIV_clean_linker_0--edge1-KIFKEQ_clean_linker_1
_symmetry_space_group_name_H-M    P1
_symmetry_Int_Tables_number       1
_symmetry_cell_setting            triclinic
loop_
_symmetry_equiv_pos_as_xyz
'x, y, z'
_cell_length_a     18.74794
_cell_length_b     22.349365
_cell_length_c     34.620175
_cell_angle_alpha  92.82185
_cell_angle_beta   88.927064
_cell_angle_gamma 99.444595
loop_
_atom_site_label
_atom_site_type_symbol
_atom_site_fract_x
_atom_site_fract_y
_atom_site_fract_z
_atom_type_partial_charge
Co0 Co 0.06883 0.9915 0.00689 0.0
C1 C 0.01919 0.02511 0.93633 0.0
Co2 Co 0.97732 0.04306 0.01124 0.0
C3 C 0.15432 0.89424 0.00791 0.0
C4 C 0.21343 0.9751 0.98491 0.0
N5 N 0.14866 0.95206 0.0003 0.0
N6 N 0.21993 0.88047 -0.0021 0.0
C7 C 0.2573 0.93141 0.98356 0.0
H8 H 0.11094 0.86257 0.02018 0.0
H9 H 0.22742 0.02028 0.9743 0.0
C10 C 0.02717 0.00931 0.0818 0.0
N11 N 0.89619 0.08069 0.01909 0.0
C12 C 0.87395 0.12803 0.00258 0.0
C13 C 0.84325 0.06129 0.04467 0.0
N14 N 0.80894 0.13823 0.01685 0.0
C15 C 0.79001 0.09633 0.04341 0.0
C16 C 0.93809 0.91611 0.00407 0.0
O17 O 0.07158 0.98406 0.06118 0.0
O18 O 0.98345 0.03751 0.06547 0.0
O19 O 0.91507 0.96647 0.00788 0.0
O20 O 1.00573 0.91613 0.00224 0.0
O21 O 0.97277 0.04819 0.95694 0.0
H22 H 0.84299 0.02341 0.06299 0.0
H23 H 0.90388 0.15343 0.97998 0.0
O24 O 0.0653 0.99906 0.95264 0.0
O25 O 0.13075 0.06787 0.01186 0.0
O26 O 0.04031 0.11919 0.01448 0.0
C27 C 0.1081 0.11855 0.01438 0.0
H28 H 0.31142 0.93597 0.97138 0.0
H29 H 0.74109 0.09137 0.06087 0.0
Co30 Co 0.58604 0.51159 0.50448 0.0
C31 C 0.52697 0.54242 0.43564 0.0
Co32 Co 0.49595 0.56455 0.51177 0.0
C33 C 0.67286 0.41506 0.50561 0.0
C34 C 0.72405 0.49086 0.47423 0.0
N35 N 0.66418 0.47092 0.4951 0.0
N36 N 0.7358 0.39948 0.49212 0.0
C37 C 0.76811 0.4473 0.47245 0.0
H38 H 0.63341 0.38615 0.52251 0.0
H39 H 0.73424 0.5337 0.46025 0.0
C40 C 0.55545 0.53339 0.58054 0.0
N41 N 0.41612 0.60305 0.52231 0.0
C42 C 0.39016 0.64834 0.5054 0.0
C43 C 0.36737 0.58544 0.55041 0.0
N44 N 0.32692 0.65888 0.52184 0.0
C45 C 0.31297 0.61944 0.55022 0.0
C46 C 0.45459 0.43769 0.50763 0.0
O47 O 0.59729 0.50748 0.55856 0.0
O48 O 0.5091 0.56055 0.56563 0.0
O49 O 0.4329 0.48862 0.51108 0.0
O50 O 0.52182 0.43652 0.50386 0.0
O51 O 0.48454 0.56808 0.45757 0.0
H52 H 0.37037 0.54908 0.56951 0.0
H53 H 0.41577 0.67164 0.48082 0.0
O54 O 0.57399 0.5158 0.45061 0.0
O55 O 0.64916 0.58779 0.50527 0.0
O56 O 0.55969 0.63998 0.51248 0.0
C57 C 0.62715 0.63873 0.50887 0.0
H58 H 0.81865 0.4497 0.45651 0.0
H59 H 0.26638 0.61519 0.56944 0.0
H60 H 0.91251 0.05183 0.37594 0.0
H61 H 0.0453 0.91242 0.37597 0.0
H62 H 0.97143 0.98587 0.48352 0.0
C63 C 0.93937 0.02124 0.39161 0.0
C64 C 0.9356 0.02287 0.43221 0.0
C65 C 0.97944 0.98215 0.37105 0.0
C66 C 1.01352 0.9424 0.39148 0.0
C67 C 1.01044 0.94323 0.43201 0.0
C68 C 0.97268 0.98441 0.45234 0.0
H69 H 0.95367 0.96392 0.63723 0.0
H70 H 0.12637 0.11668 0.64337 0.0
H71 H 0.05038 0.03787 0.53276 0.0
C72 C 0.99239 0.99762 0.62313 0.0
C73 C 0.99596 0.99669 0.58265 0.0
C74 C 0.03933 0.04065 0.64538 0.0
C75 C 0.09059 0.08258 0.62649 0.0
C76 C 0.0949 0.08202 0.58592 0.0
C77 C 0.04685 0.03914 0.56403 0.0
H78 H 0.43032 0.55638 0.87108 0.0
H79 H 0.56632 0.41967 0.87295 0.0
H80 H 0.45939 0.47105 0.97725 0.0
C81 C 0.45352 0.52366 0.88683 0.0
C82 C 0.43814 0.51777 0.92653 0.0
C83 C 0.49954 0.48852 0.86725 0.0
C84 C 0.52994 0.44657 0.88765 0.0
C85 C 0.51607 0.44043 0.92726 0.0
C86 C 0.47049 0.47622 0.94675 0.0
H87 H 0.42997 0.46605 0.14139 0.0
H88 H 0.61549 0.60673 0.13726 0.0
H89 H 0.53035 0.51435 0.03199 0.0
C90 C 0.47069 0.49451 0.12485 0.0
C91 C 0.47262 0.4861 0.08439 0.0
C92 C 0.52262 0.53719 0.14426 0.0
C93 C 0.57652 0.57225 0.12262 0.0
C94 C 0.57963 0.56449 0.08216 0.0
C95 C 0.52774 0.52094 0.06313 0.0
H96 H 0.25393 0.13037 0.02325 0.0
H97 H 0.08204 0.23582 0.01334 0.0
H98 H 0.34045 0.22298 0.03307 0.0
H99 H 0.16952 0.3292 0.02182 0.0
H100 H 0.32685 0.46941 0.09543 0.0
H101 H 0.23833 0.3835 0.0727 0.0
H102 H 0.40563 0.31161 0.00638 0.0
H103 H 0.49483 0.39624 0.03127 0.0
C104 C 0.23469 0.17345 0.02264 0.0
C105 C 0.16085 0.17564 0.01792 0.0
C106 C 0.28463 0.22677 0.02789 0.0
C107 C 0.26224 0.28384 0.02827 0.0
C108 C 0.18861 0.28608 0.02229 0.0
C109 C 0.13843 0.23256 0.01732 0.0
C110 C 0.34443 0.43543 0.07571 0.0
C111 C 0.41772 0.43923 0.06525 0.0
C112 C 0.29356 0.38643 0.06231 0.0
C113 C 0.31468 0.3401 0.03791 0.0
C114 C 0.38754 0.3458 0.02571 0.0
C115 C 0.43859 0.39466 0.03948 0.0
H116 H 0.13702 0.7696 0.98749 0.0
H117 H 0.35584 0.8592 0.00807 0.0
H118 H 0.17964 0.67197 0.97913 0.0
H119 H 0.39864 0.76206 -0.00075 0.0
H120 H 0.4569 0.57623 -0.00212 0.0
H121 H 0.39626 0.65848 0.02406 0.0
H122 H 0.25279 0.63193 0.92634 0.0
H123 H 0.31318 0.54991 0.90052 0.0
C124 C 0.19397 0.76827 0.99103 0.0
C125 C 0.24324 0.82214 -0.00195 0.0
C126 C 0.21843 0.71245 0.986 0.0
C127 C 0.29253 0.70932 0.98835 0.0
C128 C 0.34114 0.76277 -0.00241 0.0
C129 C 0.3168 0.81854 0.00222 0.0
C130 C 0.41177 0.58736 0.98241 0.0
C131 C 0.39171 0.55804 0.94651 0.0
C132 C 0.37708 0.63453 -0.00268 0.0
C133 C 0.32054 0.65244 0.97691 0.0
C134 C 0.29619 0.61937 0.94278 0.0
C135 C 0.33138 0.57275 0.92776 0.0
H136 H 0.79087 0.90132 0.00749 0.0
H137 H 0.96901 0.80038 0.0032 0.0
H138 H 0.70697 0.80834 0.01781 0.0
H139 H 0.88442 0.70674 0.01287 0.0
H140 H 0.72436 0.58851 0.09585 0.0
H141 H 0.81293 0.66781 0.06841 0.0
H142 H 0.65035 0.70957 0.99179 0.0
H143 H 0.56139 0.63184 0.02052 0.0
C144 C 0.81201 0.85907 0.008 0.0
C145 C 0.88671 0.85838 0.00494 0.0
C146 C 0.76375 0.80557 0.01362 0.0
C147 C 0.789 0.75008 0.01632 0.0
C148 C 0.86339 0.7489 0.01138 0.0
C149 C 0.91178 0.8025 0.00568 0.0
C150 C 0.70801 0.61403 0.07268 0.0
C151 C 0.63588 0.60418 0.06038 0.0
C152 C 0.75886 0.65911 0.0567 0.0
C153 C 0.73858 0.69539 0.02809 0.0
C154 C 0.66747 0.68288 0.01411 0.0
C155 C 0.61664 0.63775 0.03015 0.0
H156 H 0.66319 0.12569 0.01766 0.0
H157 H 0.8567 0.25085 0.99099 0.0
H158 H 0.58935 0.20049 0.00151 0.0
H159 H 0.78208 0.32593 0.9738 0.0
H160 H 0.62418 0.46453 0.98009 0.0
H161 H 0.69601 0.39184 0.00427 0.0
H162 H 0.55976 0.2457 0.94159 0.0
H163 H 0.48879 0.31826 0.9177 0.0
C164 C 0.69006 0.16938 0.00851 0.0
C165 C 0.76594 0.1824 0.00576 0.0
C166 C 0.64761 0.21211 -0.00102 0.0
C167 C 0.67982 0.26916 0.98648 0.0
C168 C 0.75575 0.28254 0.98379 0.0
C169 C 0.79843 0.23939 0.99313 0.0
C170 C 0.60907 0.41662 0.97232 0.0
C171 C 0.55093 0.3965 0.94743 0.0
C172 C 0.65047 0.37523 0.9857 0.0
C173 C 0.63383 0.31313 0.97459 0.0
C174 C 0.57366 0.2931 0.95092 0.0
C175 C 0.53295 0.33444 0.93728 0.0
H176 H 0.76729 0.65446 0.48363 0.0
H177 H 0.60744 0.75116 0.53747 0.0
H178 H 0.85844 0.74517 0.49125 0.0
H179 H 0.69918 0.84114 0.54689 0.0
H180 H 0.86859 0.00618 0.54909 0.0
H181 H 0.77964 0.92294 0.52174 0.0
H182 H 0.92532 0.79676 0.54263 0.0
H183 H 1.01424 0.88044 0.56823 0.0
C184 C 0.75162 0.69523 0.49705 0.0
C185 C 0.68039 0.6955 0.51036 0.0
C186 C 0.80398 0.74722 0.50159 0.0
C187 C 0.78672 0.8005 0.52017 0.0
C188 C 0.71456 0.80137 0.53201 0.0
C189 C 0.66189 0.74958 0.5269 0.0
C190 C 0.88159 0.96064 0.54687 0.0
C191 C 0.94765 0.94914 0.56058 0.0
C192 C 0.83068 0.91291 0.53158 0.0
C193 C 0.8446 0.85276 0.53042 0.0
C194 C 0.91263 0.84229 0.54257 0.0
C195 C 0.96358 0.89004 0.55749 0.0
H196 H 0.65384 0.28805 0.49794 0.0
H197 H 0.87455 0.38022 0.49134 0.0
H198 H 0.69627 0.19019 0.49395 0.0
H199 H 0.91685 0.28277 0.48634 0.0
H200 H 0.98256 0.10092 0.49285 0.0
H201 H 0.92978 0.18881 0.51745 0.0
H202 H 0.74889 0.13528 0.44078 0.0
H203 H 0.80128 0.04749 0.41707 0.0
C204 C 0.71144 0.28751 0.49633 0.0
C205 C 0.76077 0.34199 0.49449 0.0
C206 C 0.73574 0.2314 0.49375 0.0
C207 C 0.80995 0.22854 0.48957 0.0
C208 C 0.8594 0.28316 0.48987 0.0
C209 C 0.8351 0.33911 0.49223 0.0
C210 C 0.93065 0.10727 0.48222 0.0
C211 C 0.89671 0.06808 0.45272 0.0
C212 C 0.90064 0.15778 0.49596 0.0
C213 C 0.83554 0.16963 0.48068 0.0
C214 C 0.79887 0.12756 0.45334 0.0
C215 C 0.82916 0.07745 0.4395 0.0
H216 H 0.30815 0.4262 0.51547 0.0
H217 H 0.48229 0.32097 0.50727 0.0
H218 H 0.22284 0.33497 0.52805 0.0
H219 H 0.39613 0.22901 0.51915 0.0
H220 H 0.23883 0.10876 0.60103 0.0
H221 H 0.32666 0.19046 0.57543 0.0
H222 H 0.16228 0.23764 0.50206 0.0
H223 H 0.07401 0.15737 0.52906 0.0
C224 C 0.32809 0.38338 0.5157 0.0
C225 C 0.40214 0.38094 0.51069 0.0
C226 C 0.27897 0.33091 0.52264 0.0
C227 C 0.30268 0.2747 0.52473 0.0
C228 C 0.37635 0.2718 0.51818 0.0
C229 C 0.42561 0.3244 0.51119 0.0
C230 C 0.22182 0.13634 0.57917 0.0
C231 C 0.14968 0.12681 0.56694 0.0
C232 C 0.27223 0.18271 0.5642 0.0
C233 C 0.25147 0.22066 0.53673 0.0
C234 C 0.17984 0.20951 0.52342 0.0
C235 C 0.12946 0.16307 0.53843 0.0
H236 H 0.18118 0.64135 0.52587 0.0
H237 H 0.36698 0.77046 0.49306 0.0
H238 H 0.10148 0.71192 0.50978 0.0
H239 H 0.28649 0.84144 0.47629 0.0
H240 H 0.1193 0.97292 0.48439 0.0
H241 H 0.19659 0.90468 0.50889 0.0
H242 H 0.06692 0.75259 0.44818 0.0
H243 H 0.99053 0.82062 0.42383 0.0
C244 C 0.20506 0.68505 0.5154 0.0
C245 C 0.28046 0.70044 0.51083 0.0
C246 C 0.1593 0.72533 0.50598 0.0
C247 C 0.18771 0.78229 0.49195 0.0
C248 C 0.26316 0.79807 0.4875 0.0
C249 C 0.30912 0.75729 0.4966 0.0
C250 C 0.10677 0.92469 0.47707 0.0
C251 C 0.04928 0.90177 0.45227 0.0
C252 C 0.15132 0.88585 0.49065 0.0
C253 C 0.13822 0.82344 0.48009 0.0
C254 C 0.07829 0.80038 0.4569 0.0
C255 C 0.03459 0.8392 0.44296 0.0
H256 H 0.09707 0.93959 0.12661 0.0
H257 H 0.95003 0.07002 0.13296 0.0
H258 H 0.08817 0.93217 0.19697 0.0
H259 H 0.94103 0.06223 0.20267 0.0
H260 H 1.00545 0.08376 0.32913 0.0
H261 H 0.02066 0.08988 0.2594 0.0
H262 H 0.9929 0.89426 0.24684 0.0
H263 H 0.97655 0.8879 0.31688 0.0
C264 C 0.06319 0.96677 0.14298 0.0
C265 C 0.02442 0.00548 0.12427 0.0
C266 C 0.05774 0.96222 0.18315 0.0
C267 C 1.01406 0.99676 0.20522 0.0
C268 C 0.97581 0.03565 0.18646 0.0
C269 C 0.98077 0.03985 0.14647 0.0
C270 C 1.00165 0.04196 0.31152 0.0
C271 C 0.98891 0.9853 0.32851 0.0
C272 C 1.01075 0.04552 0.2716 0.0
C273 C 1.0077 0.99254 0.24773 0.0
C274 C 0.99624 0.93584 0.26464 0.0
C275 C 0.98676 0.93224 0.30467 0.0
H276 H 0.93325 0.08098 0.89138 0.0
H277 H 0.10846 0.9768 0.88498 0.0
H278 H 0.93795 0.08734 0.82109 0.0
H279 H 0.11202 0.98209 0.81504 0.0
H280 H 0.91842 0.02607 0.6918 0.0
H281 H 0.91257 0.02296 0.76216 0.0
H282 H 0.14601 0.05565 0.76624 0.0
H283 H 0.15184 0.0562 0.69593 0.0
C284 C 0.97249 0.05924 0.875 0.0
C285 C 0.02056 0.02851 0.89377 0.0
C286 C 0.97497 0.06265 0.83474 0.0
C287 C 0.02557 0.03543 0.81251 0.0
C288 C 0.07324 1.00445 0.83135 0.0
C289 C 0.07083 1.00109 0.87148 0.0
C290 C 0.96845 0.03214 0.70774 0.0
C291 C 0.0356 0.04111 0.68827 0.0
C292 C 0.9651 0.03108 0.74806 0.0
C293 C 0.02881 0.0389 0.76978 0.0
C294 C 0.09591 0.0487 0.75032 0.0
C295 C 0.09927 0.04972 0.71004 0.0
H296 H 0.48573 0.59649 0.63398 0.0
H297 H 0.62885 0.46319 0.62303 0.0
H298 H 0.4802 0.58674 0.70353 0.0
H299 H 0.62376 0.45393 0.69328 0.0
H300 H 0.53276 0.59483 0.8303 0.0
H301 H 0.55578 0.60799 0.76144 0.0
H302 H 0.52929 0.41334 0.74139 0.0
H303 H 0.50589 0.40011 0.81033 0.0
C304 C 0.51669 0.56552 0.64648 0.0
C305 C 0.55759 0.53044 0.623 0.0
C306 C 0.51385 0.56026 0.68641 0.0
C307 C 0.55159 0.51963 0.70385 0.0
C308 C 0.59369 0.48528 0.68053 0.0
C309 C 0.59695 0.49085 0.64042 0.0
C310 C 0.53155 0.55485 0.81116 0.0
C311 C 0.5167 0.49642 0.82564 0.0
C312 C 0.54501 0.56239 0.77179 0.0
C313 C 0.54403 0.51168 0.74604 0.0
C314 C 0.53127 0.45328 0.76063 0.0
C315 C 0.51767 0.44572 0.80005 0.0
H316 H 0.60439 0.48537 0.38257 0.0
H317 H 0.44148 0.60178 0.39237 0.0
H318 H 0.60146 0.48758 0.3127 0.0
H319 H 0.43979 0.60504 0.32181 0.0
H320 H 0.40556 0.53669 0.19315 0.0
H321 H 0.40477 0.53989 0.26377 0.0
H322 H 0.63782 0.55808 0.26278 0.0
H323 H 0.63839 0.55197 0.19249 0.0
C324 C 0.56807 0.51172 0.36982 0.0
C325 C 0.52328 0.54358 0.39308 0.0
C326 C 0.56681 0.51331 0.32968 0.0
C327 C 0.52099 0.54702 0.31168 0.0
C328 C 0.47541 0.57839 0.33484 0.0
C329 C 0.47656 0.5767 0.37521 0.0
C330 C 0.45656 0.54107 0.20806 0.0
C331 C 0.522 0.54362 0.18718 0.0
C332 C 0.45614 0.54364 0.24851 0.0
C333 C 0.52117 0.54878 0.26887 0.0
C334 C 0.58667 0.55312 0.24796 0.0
C335 C 0.58708 0.55038 0.20763 0.0
loop_
_geom_bond_atom_site_label_1
_geom_bond_atom_site_label_2
_geom_bond_distance
_geom_bond_site_symmetry_2
_ccdc_geom_bond_type
Co0 N5 2.057 . S
Co0 O17 2.021 . S
Co0 O20 2.062 1_455 S
Co0 O24 2.117 1_554 S
Co0 O25 2.020 1_565 S
C1 O21 1.259 1_455 S
C1 O24 1.258 1_545 S
Co2 N11 2.057 . S
Co2 O18 2.117 . S
Co2 O19 2.020 1_545 S
Co2 O21 2.021 1_554 S
Co2 O26 2.062 1_655 S
C3 N5 1.316 . S
C3 N6 1.347 . S
C3 H8 0.931 . S
C4 N5 1.375 1_556 S
C4 C7 1.350 . S
C4 H9 0.930 . S
N5 Co0 2.057 . S
N5 C3 1.316 . S
N5 C4 1.375 1_554 S
N6 C3 1.347 . S
N6 C7 1.373 1_554 S
C7 C4 1.350 . S
C7 N6 1.373 1_556 S
C7 H28 0.931 . S
H8 C3 0.931 . S
H9 C4 0.930 . S
C10 O17 1.259 1_545 S
C10 O18 1.258 1_455 S
N11 Co2 2.057 . S
N11 C12 1.316 . S
N11 C13 1.375 . S
C12 N11 1.316 . S
C12 N14 1.347 . S
C12 H23 0.931 1_554 S
C13 N11 1.375 . S
C13 C15 1.350 . S
C13 H22 0.930 . S
N14 C12 1.347 . S
N14 C15 1.373 . S
C15 C13 1.350 . S
C15 N14 1.373 . S
C15 H29 0.931 . S
C16 O19 1.256 . S
C16 O20 1.255 . S
O17 Co0 2.021 . S
O17 C10 1.259 1_565 S
O18 Co2 2.117 . S
O18 C10 1.258 1_655 S
O19 Co2 2.020 1_565 S
O19 C16 1.256 . S
O20 Co0 2.062 1_655 S
O20 C16 1.255 . S
O21 C1 1.259 1_655 S
O21 Co2 2.021 1_556 S
H22 C13 0.930 . S
H23 C12 0.931 1_556 S
O24 Co0 2.117 1_556 S
O24 C1 1.258 1_565 S
O25 Co0 2.020 1_545 S
O25 C27 1.256 . S
O26 Co2 2.062 1_455 S
O26 C27 1.255 . S
C27 O25 1.256 . S
C27 O26 1.255 . S
H28 C7 0.931 . S
H29 C15 0.931 . S
Co30 N35 2.057 . S
Co30 O47 2.021 . S
Co30 O50 2.062 . S
Co30 O54 2.117 . S
Co30 O55 2.020 . S
C31 O51 1.259 . S
C31 O54 1.258 . S
Co32 N41 2.057 . S
Co32 O48 2.117 . S
Co32 O49 2.020 . S
Co32 O51 2.021 . S
Co32 O56 2.062 . S
C33 N35 1.316 . S
C33 N36 1.347 . S
C33 H38 0.931 . S
C34 N35 1.375 . S
C34 C37 1.350 . S
C34 H39 0.930 . S
N35 Co30 2.057 . S
N35 C33 1.316 . S
N35 C34 1.375 . S
N36 C33 1.347 . S
N36 C37 1.373 . S
C37 C34 1.350 . S
C37 N36 1.373 . S
C37 H58 0.931 . S
H38 C33 0.931 . S
H39 C34 0.930 . S
C40 O47 1.259 . S
C40 O48 1.258 . S
N41 Co32 2.057 . S
N41 C42 1.316 . S
N41 C43 1.375 . S
C42 N41 1.316 . S
C42 N44 1.347 . S
C42 H53 0.931 . S
C43 N41 1.375 . S
C43 C45 1.350 . S
C43 H52 0.930 . S
N44 C42 1.347 . S
N44 C45 1.373 . S
C45 C43 1.350 . S
C45 N44 1.373 . S
C45 H59 0.931 . S
C46 O49 1.256 . S
C46 O50 1.255 . S
O47 Co30 2.021 . S
O47 C40 1.259 . S
O48 Co32 2.117 . S
O48 C40 1.258 . S
O49 Co32 2.020 . S
O49 C46 1.256 . S
O50 Co30 2.062 . S
O50 C46 1.255 . S
O51 C31 1.259 . S
O51 Co32 2.021 . S
H52 C43 0.930 . S
H53 C42 0.931 . S
O54 Co30 2.117 . S
O54 C31 1.258 . S
O55 Co30 2.020 . S
O55 C57 1.256 . S
O56 Co32 2.062 . S
O56 C57 1.255 . S
C57 O55 1.256 . S
C57 O56 1.255 . S
H58 C37 0.931 . S
H59 C45 0.931 . S
H60 C63 0.931 . S
H61 C66 0.928 . S
H62 C68 0.931 . S
C63 H60 0.931 . S
C63 C64 1.413 . S
C63 C65 1.359 . S
C64 C63 1.413 . S
C64 C68 1.421 1_655 S
C65 C63 1.359 . S
C65 C66 1.372 1_645 S
C66 H61 0.928 . S
C66 C65 1.372 1_465 S
C66 C67 1.404 . S
C67 C66 1.404 . S
C67 C68 1.399 1_565 S
C68 H62 0.931 . S
C68 C64 1.421 1_455 S
C68 C67 1.399 1_545 S
H69 C72 0.931 . S
H70 C75 0.928 . S
H71 C77 0.930 . S
C72 H69 0.931 . S
C72 C73 1.413 . S
C72 C74 1.360 1_665 S
C73 C72 1.413 . S
C73 C77 1.429 1_665 S
C74 C72 1.360 1_445 S
C74 C75 1.372 . S
C75 H70 0.928 . S
C75 C74 1.372 . S
C75 C76 1.404 . S
C76 C75 1.404 . S
C76 C77 1.391 . S
C77 H71 0.930 . S
C77 C73 1.429 1_445 S
C77 C76 1.391 . S
H78 C81 0.931 . S
H79 C84 0.928 . S
H80 C86 0.930 . S
C81 H78 0.931 . S
C81 C82 1.413 . S
C81 C83 1.360 . S
C82 C81 1.413 . S
C82 C86 1.429 . S
C83 C81 1.360 . S
C83 C84 1.372 . S
C84 H79 0.928 . S
C84 C83 1.372 . S
C84 C85 1.404 . S
C85 C84 1.404 . S
C85 C86 1.391 . S
C86 H80 0.930 . S
C86 C82 1.429 . S
C86 C85 1.391 . S
H87 C90 0.931 . S
H88 C93 0.928 . S
H89 C95 0.930 . S
C90 H87 0.931 . S
C90 C91 1.413 . S
C90 C92 1.360 . S
C91 C90 1.413 . S
C91 C95 1.429 . S
C92 C90 1.360 . S
C92 C93 1.372 . S
C93 H88 0.928 . S
C93 C92 1.372 . S
C93 C94 1.404 . S
C94 C93 1.404 . S
C94 C95 1.391 . S
C95 H89 0.930 . S
C95 C91 1.429 . S
C95 C94 1.391 . S
H96 C104 0.950 . S
H97 C109 0.950 . S
H98 C106 0.950 . S
H99 C108 0.950 1_556 S
H100 C110 0.950 . S
H101 C112 0.950 . S
H102 C114 0.950 . S
H103 C115 0.950 . S
C104 H96 0.950 . S
C104 C105 1.386 . S
C104 C106 1.391 . S
C105 C104 1.386 . S
C105 C109 1.393 1_554 S
C106 H98 0.950 . S
C106 C104 1.391 . S
C106 C107 1.400 . S
C107 C106 1.400 . S
C107 C108 1.398 . S
C107 C113 1.491 . S
C108 H99 0.950 1_554 S
C108 C107 1.398 . S
C108 C109 1.391 1_554 S
C109 H97 0.950 . S
C109 C105 1.393 1_556 S
C109 C108 1.391 1_556 S
C110 H100 0.950 . S
C110 C111 1.386 . S
C110 C112 1.391 . S
C111 C110 1.386 . S
C111 C115 1.393 . S
C112 H101 0.950 . S
C112 C110 1.391 . S
C112 C113 1.400 . S
C113 C107 1.491 . S
C113 C112 1.400 . S
C113 C114 1.398 . S
C114 H102 0.950 . S
C114 C113 1.398 . S
C114 C115 1.391 . S
C115 H103 0.950 . S
C115 C111 1.393 . S
C115 C114 1.391 . S
H116 C124 0.950 . S
H117 C129 0.950 . S
H118 C126 0.950 . S
H119 C128 0.950 . S
H120 C130 0.950 1_554 S
H121 C132 0.950 . S
H122 C134 0.950 . S
H123 C135 0.950 . S
C124 H116 0.950 . S
C124 C125 1.386 1_556 S
C124 C126 1.391 . S
C125 C124 1.386 1_554 S
C125 C129 1.393 . S
C126 H118 0.950 . S
C126 C124 1.391 . S
C126 C127 1.400 . S
C127 C126 1.400 . S
C127 C128 1.398 1_556 S
C127 C133 1.491 . S
C128 H119 0.950 . S
C128 C127 1.398 1_554 S
C128 C129 1.391 . S
C129 H117 0.950 . S
C129 C125 1.393 . S
C129 C128 1.391 . S
C130 H120 0.950 1_556 S
C130 C131 1.386 . S
C130 C132 1.391 1_556 S
C131 C130 1.386 . S
C131 C135 1.393 . S
C132 H121 0.950 . S
C132 C130 1.391 1_554 S
C132 C133 1.400 1_554 S
C133 C127 1.491 . S
C133 C132 1.400 1_556 S
C133 C134 1.398 . S
C134 H122 0.950 . S
C134 C133 1.398 . S
C134 C135 1.391 . S
C135 H123 0.950 . S
C135 C131 1.393 . S
C135 C134 1.391 . S
H136 C144 0.950 . S
H137 C149 0.950 . S
H138 C146 0.950 1_556 S
H139 C148 0.950 . S
H140 C150 0.950 . S
H141 C152 0.950 . S
H142 C154 0.950 . S
H143 C155 0.950 . S
C144 H136 0.950 . S
C144 C145 1.386 1_556 S
C144 C146 1.391 1_556 S
C145 C144 1.386 1_554 S
C145 C149 1.393 . S
C146 H138 0.950 1_554 S
C146 C144 1.391 1_554 S
C146 C147 1.400 . S
C147 C146 1.400 . S
C147 C148 1.398 . S
C147 C153 1.491 . S
C148 H139 0.950 . S
C148 C147 1.398 . S
C148 C149 1.391 . S
C149 H137 0.950 . S
C149 C145 1.393 . S
C149 C148 1.391 . S
C150 H140 0.950 . S
C150 C151 1.386 . S
C150 C152 1.391 . S
C151 C150 1.386 . S
C151 C155 1.393 . S
C152 H141 0.950 . S
C152 C150 1.391 . S
C152 C153 1.400 . S
C153 C147 1.491 . S
C153 C152 1.400 . S
C153 C154 1.398 . S
C154 H142 0.950 . S
C154 C153 1.398 . S
C154 C155 1.391 . S
C155 H143 0.950 . S
C155 C151 1.393 . S
C155 C154 1.391 . S
H156 C164 0.950 . S
H157 C169 0.950 . S
H158 C166 0.950 . S
H159 C168 0.950 . S
H160 C170 0.950 . S
H161 C172 0.950 . S
H162 C174 0.950 1_554 S
H163 C175 0.950 . S
C164 H156 0.950 . S
C164 C165 1.386 . S
C164 C166 1.391 . S
C165 C164 1.386 . S
C165 C169 1.393 1_554 S
C166 H158 0.950 . S
C166 C164 1.391 . S
C166 C167 1.400 1_554 S
C167 C166 1.400 1_556 S
C167 C168 1.398 . S
C167 C173 1.491 . S
C168 H159 0.950 . S
C168 C167 1.398 . S
C168 C169 1.391 . S
C169 H157 0.950 . S
C169 C165 1.393 1_556 S
C169 C168 1.391 . S
C170 H160 0.950 . S
C170 C171 1.386 . S
C170 C172 1.391 . S
C171 C170 1.386 . S
C171 C175 1.393 . S
C172 H161 0.950 . S
C172 C170 1.391 . S
C172 C173 1.400 . S
C173 C167 1.491 . S
C173 C172 1.400 . S
C173 C174 1.398 . S
C174 H162 0.950 1_556 S
C174 C173 1.398 . S
C174 C175 1.391 . S
C175 H163 0.950 . S
C175 C171 1.393 . S
C175 C174 1.391 . S
H176 C184 0.950 . S
H177 C189 0.950 . S
H178 C186 0.950 . S
H179 C188 0.950 . S
H180 C190 0.950 . S
H181 C192 0.950 . S
H182 C194 0.950 . S
H183 C195 0.950 . S
C184 H176 0.950 . S
C184 C185 1.386 . S
C184 C186 1.391 . S
C185 C184 1.386 . S
C185 C189 1.393 . S
C186 H178 0.950 . S
C186 C184 1.391 . S
C186 C187 1.400 . S
C187 C186 1.400 . S
C187 C188 1.398 . S
C187 C193 1.491 . S
C188 H179 0.950 . S
C188 C187 1.398 . S
C188 C189 1.391 . S
C189 H177 0.950 . S
C189 C185 1.393 . S
C189 C188 1.391 . S
C190 H180 0.950 . S
C190 C191 1.386 . S
C190 C192 1.391 . S
C191 C190 1.386 . S
C191 C195 1.393 . S
C192 H181 0.950 . S
C192 C190 1.391 . S
C192 C193 1.400 . S
C193 C187 1.491 . S
C193 C192 1.400 . S
C193 C194 1.398 . S
C194 H182 0.950 . S
C194 C193 1.398 . S
C194 C195 1.391 . S
C195 H183 0.950 . S
C195 C191 1.393 . S
C195 C194 1.391 . S
H196 C204 0.950 . S
H197 C209 0.950 . S
H198 C206 0.950 . S
H199 C208 0.950 . S
H200 C210 0.950 . S
H201 C212 0.950 . S
H202 C214 0.950 . S
H203 C215 0.950 . S
C204 H196 0.950 . S
C204 C205 1.386 . S
C204 C206 1.391 . S
C205 C204 1.386 . S
C205 C209 1.393 . S
C206 H198 0.950 . S
C206 C204 1.391 . S
C206 C207 1.400 . S
C207 C206 1.400 . S
C207 C208 1.398 . S
C207 C213 1.491 . S
C208 H199 0.950 . S
C208 C207 1.398 . S
C208 C209 1.391 . S
C209 H197 0.950 . S
C209 C205 1.393 . S
C209 C208 1.391 . S
C210 H200 0.950 . S
C210 C211 1.386 . S
C210 C212 1.391 . S
C211 C210 1.386 . S
C211 C215 1.393 . S
C212 H201 0.950 . S
C212 C210 1.391 . S
C212 C213 1.400 . S
C213 C207 1.491 . S
C213 C212 1.400 . S
C213 C214 1.398 . S
C214 H202 0.950 . S
C214 C213 1.398 . S
C214 C215 1.391 . S
C215 H203 0.950 . S
C215 C211 1.393 . S
C215 C214 1.391 . S
H216 C224 0.950 . S
H217 C229 0.950 . S
H218 C226 0.950 . S
H219 C228 0.950 . S
H220 C230 0.950 . S
H221 C232 0.950 . S
H222 C234 0.950 . S
H223 C235 0.950 . S
C224 H216 0.950 . S
C224 C225 1.386 . S
C224 C226 1.391 . S
C225 C224 1.386 . S
C225 C229 1.393 . S
C226 H218 0.950 . S
C226 C224 1.391 . S
C226 C227 1.400 . S
C227 C226 1.400 . S
C227 C228 1.398 . S
C227 C233 1.491 . S
C228 H219 0.950 . S
C228 C227 1.398 . S
C228 C229 1.391 . S
C229 H217 0.950 . S
C229 C225 1.393 . S
C229 C228 1.391 . S
C230 H220 0.950 . S
C230 C231 1.386 . S
C230 C232 1.391 . S
C231 C230 1.386 . S
C231 C235 1.393 . S
C232 H221 0.950 . S
C232 C230 1.391 . S
C232 C233 1.400 . S
C233 C227 1.491 . S
C233 C232 1.400 . S
C233 C234 1.398 . S
C234 H222 0.950 . S
C234 C233 1.398 . S
C234 C235 1.391 . S
C235 H223 0.950 . S
C235 C231 1.393 . S
C235 C234 1.391 . S
H236 C244 0.950 . S
H237 C249 0.950 . S
H238 C246 0.950 . S
H239 C248 0.950 . S
H240 C250 0.950 . S
H241 C252 0.950 . S
H242 C254 0.950 . S
H243 C255 0.950 1_655 S
C244 H236 0.950 . S
C244 C245 1.386 . S
C244 C246 1.391 . S
C245 C244 1.386 . S
C245 C249 1.393 . S
C246 H238 0.950 . S
C246 C244 1.391 . S
C246 C247 1.400 . S
C247 C246 1.400 . S
C247 C248 1.398 . S
C247 C253 1.491 . S
C248 H239 0.950 . S
C248 C247 1.398 . S
C248 C249 1.391 . S
C249 H237 0.950 . S
C249 C245 1.393 . S
C249 C248 1.391 . S
C250 H240 0.950 . S
C250 C251 1.386 . S
C250 C252 1.391 . S
C251 C250 1.386 . S
C251 C255 1.393 . S
C252 H241 0.950 . S
C252 C250 1.391 . S
C252 C253 1.400 . S
C253 C247 1.491 . S
C253 C252 1.400 . S
C253 C254 1.398 . S
C254 H242 0.950 . S
C254 C253 1.398 . S
C254 C255 1.391 . S
C255 H243 0.950 1_455 S
C255 C251 1.393 . S
C255 C254 1.391 . S
H256 C264 0.950 . S
H257 C269 0.950 . S
H258 C266 0.950 . S
H259 C268 0.950 . S
H260 C270 0.950 . S
H261 C272 0.950 . S
H262 C274 0.950 . S
H263 C275 0.950 . S
C264 H256 0.950 . S
C264 C265 1.386 1_565 S
C264 C266 1.391 . S
C265 C264 1.386 1_545 S
C265 C269 1.393 1_455 S
C266 H258 0.950 . S
C266 C264 1.391 . S
C266 C267 1.400 1_565 S
C267 C266 1.400 1_545 S
C267 C268 1.398 1_455 S
C267 C273 1.491 . S
C268 H259 0.950 . S
C268 C267 1.398 1_655 S
C268 C269 1.391 . S
C269 H257 0.950 . S
C269 C265 1.393 1_655 S
C269 C268 1.391 . S
C270 H260 0.950 . S
C270 C271 1.408 . S
C270 C272 1.391 . S
C271 C270 1.408 . S
C271 C275 1.371 1_645 S
C272 H261 0.950 . S
C272 C270 1.391 . S
C272 C273 1.400 1_655 S
C273 C267 1.491 . S
C273 C272 1.400 1_455 S
C273 C274 1.398 1_545 S
C274 H262 0.950 . S
C274 C273 1.398 1_565 S
C274 C275 1.391 . S
C275 H263 0.950 . S
C275 C271 1.371 1_465 S
C275 C274 1.391 . S
H276 C284 0.950 . S
H277 C289 0.950 . S
H278 C286 0.950 . S
H279 C288 0.950 . S
H280 C290 0.950 . S
H281 C292 0.950 . S
H282 C294 0.950 . S
H283 C295 0.950 . S
C284 H276 0.950 . S
C284 C285 1.386 . S
C284 C286 1.391 . S
C285 C284 1.386 . S
C285 C289 1.393 1_445 S
C286 H278 0.950 . S
C286 C284 1.391 . S
C286 C287 1.400 . S
C287 C286 1.400 . S
C287 C288 1.398 1_445 S
C287 C293 1.491 . S
C288 H279 0.950 . S
C288 C287 1.398 1_665 S
C288 C289 1.391 . S
C289 H277 0.950 . S
C289 C285 1.393 1_665 S
C289 C288 1.391 . S
C290 H280 0.950 . S
C290 C291 1.386 1_665 S
C290 C292 1.391 . S
C291 C290 1.386 1_445 S
C291 C295 1.393 . S
C292 H281 0.950 . S
C292 C290 1.391 . S
C292 C293 1.400 1_665 S
C293 C287 1.491 . S
C293 C292 1.400 1_445 S
C293 C294 1.398 . S
C294 H282 0.950 . S
C294 C293 1.398 . S
C294 C295 1.391 . S
C295 H283 0.950 . S
C295 C291 1.393 . S
C295 C294 1.391 . S
H296 C304 0.950 . S
H297 C309 0.950 . S
H298 C306 0.950 . S
H299 C308 0.950 . S
H300 C310 0.950 . S
H301 C312 0.950 . S
H302 C314 0.950 . S
H303 C315 0.950 . S
C304 H296 0.950 . S
C304 C305 1.386 . S
C304 C306 1.391 . S
C305 C304 1.386 . S
C305 C309 1.393 . S
C306 H298 0.950 . S
C306 C304 1.391 . S
C306 C307 1.400 . S
C307 C306 1.400 . S
C307 C308 1.398 . S
C307 C313 1.491 . S
C308 H299 0.950 . S
C308 C307 1.398 . S
C308 C309 1.391 . S
C309 H297 0.950 . S
C309 C305 1.393 . S
C309 C308 1.391 . S
C310 H300 0.950 . S
C310 C311 1.386 . S
C310 C312 1.391 . S
C311 C310 1.386 . S
C311 C315 1.393 . S
C312 H301 0.950 . S
C312 C310 1.391 . S
C312 C313 1.400 . S
C313 C307 1.491 . S
C313 C312 1.400 . S
C313 C314 1.398 . S
C314 H302 0.950 . S
C314 C313 1.398 . S
C314 C315 1.391 . S
C315 H303 0.950 . S
C315 C311 1.393 . S
C315 C314 1.391 . S
H316 C324 0.950 . S
H317 C329 0.950 . S
H318 C326 0.950 . S
H319 C328 0.950 . S
H320 C330 0.950 . S
H321 C332 0.950 . S
H322 C334 0.950 . S
H323 C335 0.950 . S
C324 H316 0.950 . S
C324 C325 1.386 . S
C324 C326 1.391 . S
C325 C324 1.386 . S
C325 C329 1.393 . S
C326 H318 0.950 . S
C326 C324 1.391 . S
C326 C327 1.400 . S
C327 C326 1.400 . S
C327 C328 1.398 . S
C327 C333 1.491 . S
C328 H319 0.950 . S
C328 C327 1.398 . S
C328 C329 1.391 . S
C329 H317 0.950 . S
C329 C325 1.393 . S
C329 C328 1.391 . S
C330 H320 0.950 . S
C330 C331 1.386 . S
C330 C332 1.391 . S
C331 C330 1.386 . S
C331 C335 1.393 . S
C332 H321 0.950 . S
C332 C330 1.391 . S
C332 C333 1.400 . S
C333 C327 1.491 . S
C333 C332 1.400 . S
C333 C334 1.398 . S
C334 H322 0.950 . S
C334 C333 1.398 . S
C334 C335 1.391 . S
C335 H323 0.950 . S
C335 C331 1.393 . S
C335 C334 1.391 . S
C111 C91 1.378 . S
C105 C27 1.396 . S
C125 N6 1.289 . S
C131 C82 1.366 . S
C145 C16 1.389 . S
C151 C94 1.376 . S
C165 N14 1.363 . S
C171 C85 1.354 . S
C185 C57 1.395 . S
C191 C73 1.377 . S
C205 N36 1.302 . S
C211 C64 1.365 . S
C231 C76 1.374 . S
C225 C46 1.390 . S
C251 C67 1.352 . S
C245 N44 1.359 . S
C265 C10 1.391 . S
C271 C65 1.395 . S
C285 C1 1.538 . S
C291 C74 1.540 . S
C311 C83 1.396 . S
C305 C40 1.389 . S
C325 C31 1.536 . S
C331 C92 1.540 . S
