# Generated by pormake.
# Topology pyr, (3,6)-cn, num edge types: 1
# Building blocks:
#     Node 0, Type 0, BuildingBlock: BETDAH_clean_linker_0, # of connection points: 3
#     Node 1, Type 0, BuildingBlock: BETDAH_clean_linker_0, # of connection points: 3
#     Node 2, Type 0, BuildingBlock: BETDAH_clean_linker_0, # of connection points: 3
#     Node 3, Type 0, BuildingBlock: BETDAH_clean_linker_0, # of connection points: 3
#     Node 4, Type 0, BuildingBlock: BETDAH_clean_linker_0, # of connection points: 3
#     Node 5, Type 0, BuildingBlock: BETDAH_clean_linker_0, # of connection points: 3
#     Node 6, Type 0, BuildingBlock: BETDAH_clean_linker_0, # of connection points: 3
#     Node 7, Type 0, BuildingBlock: BETDAH_clean_linker_0, # of connection points: 3
#     Node 8, Type 1, BuildingBlock: GEDQOX_clean_sbu_0, # of connection points: 6
#     Node 9, Type 1, BuildingBlock: GEDQOX_clean_sbu_0, # of connection points: 6
#     Node 10, Type 1, BuildingBlock: GEDQOX_clean_sbu_0, # of connection points: 6
#     Node 11, Type 1, BuildingBlock: GEDQOX_clean_sbu_0, # of connection points: 6
#     Edge 12, Type (0, 1), BuildingBlock: TEMPAE_clean_linker_10, # of connection points: 2
#     Edge 13, Type (0, 1), BuildingBlock: TEMPAE_clean_linker_10, # of connection points: 2
#     Edge 14, Type (0, 1), BuildingBlock: TEMPAE_clean_linker_10, # of connection points: 2
#     Edge 15, Type (0, 1), BuildingBlock: TEMPAE_clean_linker_10, # of connection points: 2
#     Edge 16, Type (0, 1), BuildingBlock: TEMPAE_clean_linker_10, # of connection points: 2
#     Edge 17, Type (0, 1), BuildingBlock: TEMPAE_clean_linker_10, # of connection points: 2
#     Edge 18, Type (0, 1), BuildingBlock: TEMPAE_clean_linker_10, # of connection points: 2
#     Edge 19, Type (0, 1), BuildingBlock: TEMPAE_clean_linker_10, # of connection points: 2
#     Edge 20, Type (0, 1), BuildingBlock: TEMPAE_clean_linker_10, # of connection points: 2
#     Edge 21, Type (0, 1), BuildingBlock: TEMPAE_clean_linker_10, # of connection points: 2
#     Edge 22, Type (0, 1), BuildingBlock: TEMPAE_clean_linker_10, # of connection points: 2
#     Edge 23, Type (0, 1), BuildingBlock: TEMPAE_clean_linker_10, # of connection points: 2
#     Edge 24, Type (0, 1), BuildingBlock: TEMPAE_clean_linker_10, # of connection points: 2
#     Edge 25, Type (0, 1), BuildingBlock: TEMPAE_clean_linker_10, # of connection points: 2
#     Edge 26, Type (0, 1), BuildingBlock: TEMPAE_clean_linker_10, # of connection points: 2
#     Edge 27, Type (0, 1), BuildingBlock: TEMPAE_clean_linker_10, # of connection points: 2
#     Edge 28, Type (0, 1), BuildingBlock: TEMPAE_clean_linker_10, # of connection points: 2
#     Edge 29, Type (0, 1), BuildingBlock: TEMPAE_clean_linker_10, # of connection points: 2
#     Edge 30, Type (0, 1), BuildingBlock: TEMPAE_clean_linker_10, # of connection points: 2
#     Edge 31, Type (0, 1), BuildingBlock: TEMPAE_clean_linker_10, # of connection points: 2
#     Edge 32, Type (0, 1), BuildingBlock: TEMPAE_clean_linker_10, # of connection points: 2
#     Edge 33, Type (0, 1), BuildingBlock: TEMPAE_clean_linker_10, # of connection points: 2
#     Edge 34, Type (0, 1), BuildingBlock: TEMPAE_clean_linker_10, # of connection points: 2
#     Edge 35, Type (0, 1), BuildingBlock: TEMPAE_clean_linker_10, # of connection points: 2
# Relax obj value: 0.195
# Max RMSD: 0.206
# Mean RMSD: 0.150
data_MOF--net-pyr--node1-GEDQOX_clean_sbu_0--node2-BETDAH_clean_linker_0--edge1-TEMPAE_clean_linker_10
_symmetry_space_group_name_H-M    P1
_symmetry_Int_Tables_number       1
_symmetry_cell_setting            triclinic
loop_
_symmetry_equiv_pos_as_xyz
'x, y, z'
_cell_length_a     39.001089
_cell_length_b     39.156999
_cell_length_c     36.66367
_cell_angle_alpha  88.859126
_cell_angle_beta   92.579547
_cell_angle_gamma 93.173992
loop_
_atom_site_label
_atom_site_type_symbol
_atom_site_fract_x
_atom_site_fract_y
_atom_site_fract_z
_atom_type_partial_charge
H0 H 0.24978 0.15337 0.22201 0.0
H1 H 0.25793 0.22779 0.13409 0.0
H2 H 0.17709 0.23354 0.20947 0.0
C3 C 0.24067 0.17565 0.20747 0.0
C4 C 0.21088 0.19128 0.22038 0.0
C5 C 0.25878 0.18822 0.1762 0.0
C6 C 0.24562 0.21772 0.1582 0.0
C7 C 0.2165 0.23476 0.16946 0.0
C8 C 0.19921 0.221 0.20053 0.0
N9 N 0.20684 0.2648 0.1475 0.0
C10 C 0.18206 0.29058 0.14746 0.0
H11 H 0.42489 0.80585 0.81118 0.0
H12 H 0.3319 0.81905 0.86816 0.0
H13 H 0.33353 0.7418 0.78783 0.0
C14 C 0.39834 0.79858 0.81638 0.0
C15 C 0.38186 0.77069 0.79759 0.0
C16 C 0.38054 0.81683 0.84185 0.0
C17 C 0.34614 0.80632 0.84821 0.0
C18 C 0.32919 0.78002 0.82821 0.0
C19 C 0.347 0.76225 0.8031 0.0
N20 N 0.29362 0.77278 0.83214 0.0
C21 C 0.27088 0.77832 0.80272 0.0
H22 H 0.7979 0.39591 0.87066 0.0
H23 H 0.82937 0.45622 0.77733 0.0
H24 H 0.73795 0.39053 0.769 0.0
C25 C 0.79399 0.40339 0.84222 0.0
C26 C 0.76522 0.38966 0.82172 0.0
C27 C 0.81711 0.42769 0.82659 0.0
C28 C 0.81157 0.43783 0.78997 0.0
C29 C 0.7827 0.42525 0.76959 0.0
C30 C 0.75965 0.40108 0.78539 0.0
N31 N 0.77732 0.43756 0.7333 0.0
C32 C 0.74469 0.44265 0.71822 0.0
H33 H 0.93909 0.7636 0.51339 0.0
H34 H 0.04258 0.76429 0.47732 0.0
H35 H 0.98421 0.66897 0.49027 0.0
C36 C 0.96096 0.7498 0.50575 0.0
C37 C 0.95825 0.71394 0.50424 0.0
C38 C 0.99123 0.76816 0.49614 0.0
C39 C 1.01943 0.75035 0.48586 0.0
C40 C 1.01664 0.71472 0.48309 0.0
C41 C 0.98615 0.69658 0.49247 0.0
N42 N 0.04294 0.69773 0.46677 0.0
C43 C 0.03453 0.67823 0.43617 0.0
H44 H 0.94322 0.86627 0.82611 0.0
H45 H 0.86177 0.86986 0.90311 0.0
H46 H 0.86951 0.94388 0.81465 0.0
C47 C 0.92087 0.878 0.83566 0.0
C48 C 0.90888 0.90719 0.81593 0.0
C49 C 0.90443 0.86338 0.86719 0.0
C50 C 0.87498 0.88018 0.87965 0.0
C51 C 0.86192 0.90951 0.86061 0.0
C52 C 0.8793 0.9218 0.82908 0.0
N53 N 0.83096 0.92726 0.86883 0.0
C54 C 0.8072 0.92981 0.89739 0.0
H55 H 0.71176 0.23493 0.29586 0.0
H56 H 0.69714 0.32283 0.36115 0.0
H57 H 0.62852 0.29963 0.26874 0.0
C58 C 0.69755 0.25715 0.30136 0.0
C59 C 0.66885 0.2646 0.27877 0.0
C60 C 0.70795 0.27794 0.33116 0.0
C61 C 0.6893 0.30672 0.33824 0.0
C62 C 0.66043 0.31441 0.3157 0.0
C63 C 0.6506 0.29339 0.28613 0.0
N64 N 0.64068 0.34312 0.32128 0.0
C65 C 0.64193 0.36282 0.35252 0.0
H66 H 0.28039 0.71806 0.20809 0.0
H67 H 0.23258 0.66746 0.29973 0.0
H68 H 0.33473 0.71366 0.3122 0.0
C69 C 0.28119 0.70991 0.2365 0.0
C70 C 0.31069 0.71832 0.25855 0.0
C71 C 0.25263 0.69164 0.25084 0.0
C72 C 0.25433 0.6812 0.28783 0.0
C73 C 0.28402 0.68844 0.30993 0.0
C74 C 0.312 0.70728 0.2952 0.0
N75 N 0.28483 0.67669 0.34689 0.0
C76 C 0.31469 0.67669 0.36913 0.0
H77 H 0.21228 0.2885 0.69352 0.0
H78 H 0.24684 0.32261 0.79982 0.0
H79 H 0.20227 0.22033 0.78669 0.0
C80 C 0.21503 0.28359 0.72268 0.0
C81 C 0.20484 0.25132 0.73716 0.0
C82 C 0.22999 0.30933 0.74516 0.0
C83 C 0.23509 0.30265 0.78262 0.0
C84 C 0.22511 0.27044 0.79772 0.0
C85 C 0.21034 0.24487 0.77483 0.0
N86 N 0.22904 0.26354 0.83585 0.0
C87 C 0.23315 0.2899 0.86071 0.0
Nd88 Nd 0.07892 0.0242 0.51507 0.0
Nd89 Nd 1.03115 0.08097 0.51943 0.0
C90 C 0.10837 0.96495 0.51447 0.0
C91 C 0.11951 0.94089 0.54319 0.0
C92 C 0.13834 0.91294 0.53456 0.0
C93 C 0.15062 0.89115 0.56228 0.0
C94 C 0.14437 0.89722 0.59904 0.0
C95 C 0.12459 0.92477 0.60734 0.0
C96 C 0.11231 0.94644 0.57966 0.0
C97 C 0.10499 0.07853 0.55616 0.0
C98 C 1.02466 1.02142 0.58453 0.0
C99 C 0.99802 0.13815 0.52348 0.0
C100 C 0.97083 0.15711 0.50367 0.0
C101 C 0.97732 0.17689 0.47203 0.0
C102 C 0.95096 0.19466 0.45421 0.0
C103 C 0.91763 0.19307 0.46768 0.0
C104 C 0.91143 0.17346 0.49948 0.0
C105 C 0.93769 0.15595 0.51732 0.0
C106 C 1.00431 0.02487 0.48123 0.0
C107 C 0.08753 0.08341 0.4509 0.0
O108 O 0.0752 0.96781 0.51021 0.0
O109 O 0.1256 0.99453 0.51393 0.0
O110 O 0.12321 0.06192 0.53456 0.0
O111 O 0.07483 0.06566 0.55663 0.0
O112 O 0.04279 1.00358 0.56234 0.0
O113 O 1.02127 0.0545 0.57684 0.0
O114 O 1.02819 0.13717 0.50938 0.0
O115 O 0.98804 0.10905 0.53856 0.0
O116 O 0.98626 0.04365 0.50076 0.0
O117 O 0.03405 0.03856 0.47952 0.0
O118 O 0.06913 0.10142 0.47298 0.0
O119 O 0.09094 0.05039 0.4586 0.0
H120 H 0.14404 0.90833 0.50648 0.0
H121 H 0.166 0.8703 0.55509 0.0
H122 H 0.11898 0.92982 0.63534 0.0
H123 H 0.09774 0.9679 0.58678 0.0
H124 H 1.00268 0.17866 0.46103 0.0
H125 H 0.95678 0.20984 0.43004 0.0
H126 H 0.88603 0.17108 0.51037 0.0
H127 H 0.93193 0.14123 0.54184 0.0
Nd128 Nd 0.53488 0.03396 0.06796 0.0
Nd129 Nd 0.53313 0.07495 1.01341 0.0
C130 C 0.53838 0.98095 0.11413 0.0
C131 C 0.51623 0.95215 0.12695 0.0
C132 C 0.4865 0.94111 0.10665 0.0
C133 C 0.4661 0.91309 0.11881 0.0
C134 C 0.47495 0.89589 0.15169 0.0
C135 C 0.50474 0.9073 0.17199 0.0
C136 C 0.52523 0.93515 0.15963 0.0
C137 C 0.4801 0.07762 0.07927 0.0
C138 C 0.4889 1.00812 0.99717 0.0
C139 C 0.53215 0.12889 0.96819 0.0
C140 C 0.55667 0.15514 0.95359 0.0
C141 C 0.54838 0.18954 0.95319 0.0
C142 C 0.57119 0.215 0.93966 0.0
C143 C 0.60268 0.20648 0.92605 0.0
C144 C 0.61098 0.17197 0.92651 0.0
C145 C 0.58826 0.14652 0.94033 0.0
C146 C 0.58806 0.03158 1.00234 0.0
C147 C 0.57909 0.09999 0.08449 0.0
O148 O 0.54671 0.98019 0.08015 0.0
O149 O 0.53076 1.01133 0.12383 0.0
O150 O 0.50482 0.07061 0.1025 0.0
O151 O 0.48591 0.06333 0.04904 0.0
O152 O 0.50782 0.99807 0.02535 0.0
O153 O 0.48934 0.04071 0.98873 0.0
O154 O 0.52659 0.1304 1.00285 0.0
O155 O 0.53427 0.09759 0.95747 0.0
O156 O 0.56378 0.03896 0.97884 0.0
O157 O 0.58202 0.04586 0.03245 0.0
O158 O 0.55863 0.11044 0.05774 0.0
O159 O 0.57991 0.06719 0.0909 0.0
H160 H 0.47917 0.95409 0.08139 0.0
H161 H 0.44356 0.90476 0.10232 0.0
H162 H 0.51195 0.89505 0.19773 0.0
H163 H 0.54808 0.94348 0.17566 0.0
H164 H 0.52416 0.19672 0.96333 0.0
H165 H 0.56397 0.24133 0.93936 0.0
H166 H 0.63524 0.16471 0.91658 0.0
H167 H 0.59545 0.12018 0.94068 0.0
Nd168 Nd 0.48734 0.55758 0.56057 0.0
Nd169 Nd 0.55785 0.5924 0.58265 0.0
C170 C 0.42278 0.54275 0.53909 0.0
C171 C 0.39193 0.53205 0.55856 0.0
C172 C 0.36469 0.514 0.54009 0.0
C173 C 0.33861 0.49734 0.55971 0.0
C174 C 0.33958 0.49843 0.59808 0.0
C175 C 0.36567 0.51867 0.61623 0.0
C176 C 0.39175 0.53526 0.5966 0.0
C177 C 0.52208 0.52581 0.61727 0.0
C178 C 0.49332 0.61899 0.62209 0.0
C179 C 0.62217 0.60785 0.60475 0.0
C180 C 0.65665 0.60969 0.59036 0.0
C181 C 0.68525 0.60842 0.61471 0.0
C182 C 0.7184 0.61255 0.60188 0.0
C183 C 0.72341 0.61801 0.56441 0.0
C184 C 0.69457 0.61783 0.53991 0.0
C185 C 0.6614 0.61362 0.5528 0.0
C186 C 0.52177 0.62202 0.5248 0.0
C187 C 0.5532 0.5302 0.52302 0.0
O188 O 0.43522 0.5741 0.54435 0.0
O189 O 0.44652 0.52041 0.54048 0.0
O190 O 0.50154 0.50954 0.59398 0.0
O191 O 0.52057 0.55754 0.6122 0.0
O192 O 0.4742 0.60362 0.59575 0.0
O193 O 0.52631 0.61358 0.62692 0.0
O194 O 0.60743 0.57724 0.6082 0.0
O195 O 0.60113 0.63055 0.59195 0.0
O196 O 0.53972 0.63983 0.54911 0.0
O197 O 0.52514 0.59081 0.53078 0.0
O198 O 0.57196 0.54611 0.54914 0.0
O199 O 0.5203 0.53602 0.51715 0.0
H200 H 0.36459 0.51121 0.51074 0.0
H201 H 0.3186 0.4822 0.54503 0.0
H202 H 0.36731 0.5197 0.64576 0.0
H203 H 0.41286 0.54886 0.6113 0.0
H204 H 0.68192 0.60512 0.64379 0.0
H205 H 0.74005 0.61287 0.62146 0.0
H206 H 0.69768 0.62152 0.51086 0.0
H207 H 0.63949 0.61416 0.53358 0.0
Nd208 Nd 1.00834 0.57331 0.04378 0.0
Nd209 Nd 0.07238 0.58566 0.9944 0.0
C210 C 0.95557 0.5537 0.083 0.0
C211 C 0.94719 0.5659 0.11916 0.0
C212 C 0.94581 0.54265 0.14877 0.0
C213 C 0.94827 0.55444 0.18459 0.0
C214 C 0.95202 0.58971 0.19133 0.0
C215 C 0.9501 0.6129 0.16164 0.0
C216 C 0.94791 0.60114 0.1259 0.0
C217 C 0.05984 0.61689 0.07291 0.0
C218 C 1.00947 0.64126 0.98699 0.0
C219 C 0.1344 0.59998 0.97037 0.0
C220 C 0.16032 0.57738 0.95738 0.0
C221 C 0.18818 0.56859 0.98075 0.0
C222 C 0.20868 0.54199 0.97196 0.0
C223 C 0.20185 0.52387 0.93949 0.0
C224 C 0.17566 0.53449 0.91489 0.0
C225 C 0.15517 0.56097 0.92369 0.0
C226 C 1.02068 0.54581 0.95868 0.0
C227 C 0.06894 0.51314 0.04495 0.0
O228 O 0.95302 0.57529 0.05539 0.0
O229 O 0.98377 0.5372 0.08315 0.0
O230 O 1.02753 0.61944 0.07843 0.0
O231 O 0.06369 0.5906 0.05465 0.0
O232 O 0.98959 0.61698 1.00313 0.0
O233 O 0.04326 0.63717 0.98556 0.0
O234 O 0.12814 0.59674 1.00503 0.0
O235 O 0.1063 0.60281 0.94981 0.0
O236 O 0.05001 0.5536 0.94441 0.0
O237 O 1.02121 0.55856 0.98954 0.0
O238 O 0.08698 0.53325 1.02208 0.0
O239 O 0.03818 0.52228 0.05508 0.0
H240 H 0.94556 0.51538 0.14423 0.0
H241 H 0.94975 0.5359 0.20685 0.0
H242 H 0.95214 0.64024 0.16598 0.0
H243 H 0.94916 0.61977 0.10369 0.0
H244 H 0.19298 0.58104 1.00675 0.0
H245 H 0.22898 0.53474 0.99122 0.0
H246 H 0.16944 0.52092 0.8898 0.0
H247 H 0.1341 0.56716 0.90492 0.0
C248 C 0.21054 0.1638 0.28586 0.0
C249 C 0.19226 0.1764 0.25458 0.0
C250 C 0.19388 0.14995 0.3175 0.0
C251 C 0.15727 0.14716 0.31893 0.0
C252 C 0.13863 0.15956 0.28736 0.0
C253 C 0.15598 0.17416 0.25644 0.0
C254 C 0.21582 0.13846 0.34985 0.0
C255 C 0.0999 0.15686 0.28585 0.0
C256 C 0.11554 0.08024 0.38815 0.0
C257 C 0.10474 0.10014 0.41692 0.0
C258 C 0.13167 0.09493 0.35659 0.0
C259 C 0.13878 0.13098 0.35281 0.0
C260 C 0.12824 0.15122 0.38196 0.0
C261 C 0.11126 0.13592 0.41279 0.0
C262 C 0.14094 0.07149 0.32687 0.0
C263 C 0.13544 0.18943 0.38092 0.0
H264 H 0.23836 0.16531 0.28601 0.0
H265 H 0.14081 0.18313 0.23307 0.0
H266 H 0.20874 0.15158 0.37478 0.0
H267 H 0.21108 0.1106 0.35473 0.0
H268 H 0.24369 0.14379 0.34591 0.0
H269 H 0.08873 0.16652 0.25948 0.0
H270 H 0.09069 0.12978 0.28989 0.0
H271 H 0.0901 0.17163 0.3083 0.0
H272 H 0.11098 0.05273 0.38999 0.0
H273 H 0.10367 0.15219 0.43423 0.0
H274 H 0.16919 0.07289 0.32417 0.0
H275 H 0.12917 0.07987 0.30028 0.0
H276 H 0.13229 0.04444 0.33231 0.0
H277 H 0.16338 0.19541 0.37831 0.0
H278 H 0.12706 0.20184 0.40576 0.0
H279 H 0.12202 0.20073 0.35665 0.0
C280 C 0.37754 0.87443 0.87068 0.0
C281 C 0.39715 0.84689 0.8618 0.0
C282 C 0.39165 0.90153 0.89201 0.0
C283 C 0.42671 0.90207 0.90372 0.0
C284 C 0.44718 0.87534 0.89347 0.0
C285 C 0.4321 0.84788 0.87309 0.0
C286 C 0.36872 0.92915 0.90282 0.0
C287 C 0.48493 0.87543 0.9046 0.0
C288 C 0.46871 0.98726 0.93547 0.0
C289 C 0.47044 0.98239 0.97347 0.0
C290 C 0.45494 0.9612 0.91237 0.0
C291 C 0.44159 0.93 0.92774 0.0
C292 C 0.44226 0.92551 0.96621 0.0
C293 C 0.45722 0.95153 0.98855 0.0
C294 C 0.45564 0.96665 0.87152 0.0
C295 C 0.42731 0.89317 0.98381 0.0
H296 H 0.35085 0.87478 0.86122 0.0
H297 H 0.44759 0.82684 0.86678 0.0
H298 H 0.36829 0.93011 0.93303 0.0
H299 H 0.37897 0.95451 0.89305 0.0
H300 H 0.3419 0.9249 0.89165 0.0
H301 H 0.49794 0.85447 0.89181 0.0
H302 H 0.49802 0.90023 0.89685 0.0
H303 H 0.48812 0.87251 0.9347 0.0
H304 H 0.47947 1.0109 0.92374 0.0
H305 H 0.45852 0.94774 1.01791 0.0
H306 H 0.42922 0.96385 0.85904 0.0
H307 H 0.47079 0.94684 0.85954 0.0
H308 H 0.46705 0.99229 0.86391 0.0
H309 H 0.4001 0.88846 0.97418 0.0
H310 H 0.42843 0.89436 1.0141 0.0
H311 H 0.44151 0.87095 0.97572 0.0
C312 C 0.70769 0.46959 0.67145 0.0
C313 C 0.7111 0.45084 0.70409 0.0
C314 C 0.67542 0.48006 0.65865 0.0
C315 C 0.64616 0.47151 0.67924 0.0
C316 C 0.64961 0.45203 0.71205 0.0
C317 C 0.68224 0.44194 0.72417 0.0
C318 C 0.67276 0.50082 0.62354 0.0
C319 C 0.61902 0.44249 0.73468 0.0
C320 C 0.5718 0.52902 0.66227 0.0
C321 C 0.55102 0.51002 0.63705 0.0
C322 C 0.60237 0.51628 0.67722 0.0
C323 C 0.61216 0.48372 0.66671 0.0
C324 C 0.59038 0.46377 0.64254 0.0
C325 C 0.55994 0.47715 0.62807 0.0
C326 C 0.62496 0.53837 0.70282 0.0
C327 C 0.60004 0.42904 0.63055 0.0
H328 H 0.73035 0.47655 0.65626 0.0
H329 H 0.68527 0.4276 0.74962 0.0
H330 H 0.65375 0.48813 0.60407 0.0
H331 H 0.66348 0.52641 0.6291 0.0
H332 H 0.69778 0.50436 0.61025 0.0
H333 H 0.62588 0.42617 0.75876 0.0
H334 H 0.60798 0.46602 0.74438 0.0
H335 H 0.59866 0.42864 0.71777 0.0
H336 H 0.5648 0.55442 0.66926 0.0
H337 H 0.54392 0.46244 0.60845 0.0
H338 H 0.64905 0.54659 0.68937 0.0
H339 H 0.63223 0.52362 0.72787 0.0
H340 H 0.61219 0.56158 0.71083 0.0
H341 H 0.62296 0.43202 0.61365 0.0
H342 H 0.57892 0.41555 0.61426 0.0
H343 H 0.60697 0.4128 0.65461 0.0
C344 C 0.03627 0.63497 0.38839 0.0
C345 C 1.02096 0.66273 0.403 0.0
C346 C 1.02372 0.62122 0.35497 0.0
C347 C 0.99546 0.63591 0.33605 0.0
C348 C 0.97958 0.66356 0.35143 0.0
C349 C 0.99255 0.67661 0.38488 0.0
C350 C 0.04114 0.59159 0.33948 0.0
C351 C 0.94965 0.68011 0.33198 0.0
C352 C 0.98801 0.628 0.23317 0.0
C353 C 0.96183 0.60219 0.22855 0.0
C354 C 0.9991 0.63918 0.26799 0.0
C355 C 0.98391 0.62395 0.29909 0.0
C356 C 0.95749 0.59786 0.29474 0.0
C357 C 0.94672 0.5873 0.25946 0.0
C358 C 1.02734 0.6671 0.27147 0.0
C359 C 0.94075 0.58108 0.32734 0.0
H360 H 0.05827 0.62439 0.40279 0.0
H361 H 0.98087 0.69815 0.3966 0.0
H362 H 1.02191 0.57048 0.33269 0.0
H363 H 0.05336 0.5998 0.31377 0.0
H364 H 0.06117 0.58163 0.35874 0.0
H365 H 0.93907 0.70015 0.3486 0.0
H366 H 0.95799 0.69198 0.30588 0.0
H367 H 0.92879 0.66057 0.32517 0.0
H368 H 1.00047 0.63904 0.2095 0.0
H369 H 0.92642 0.56742 0.25605 0.0
H370 H 0.05024 0.65694 0.28609 0.0
H371 H 1.01884 0.68839 0.28779 0.0
H372 H 0.03509 0.67755 0.24451 0.0
H373 H 0.96048 0.56944 0.34566 0.0
H374 H 0.92083 0.56091 0.31933 0.0
H375 H 0.92862 0.60055 0.34331 0.0
C376 C 0.31711 0.19027 0.14293 0.0
C377 C 0.29113 0.17117 0.16178 0.0
C378 C 0.34645 0.17529 0.12863 0.0
C379 C 0.35155 0.13954 0.1325 0.0
C380 C 0.32565 0.12002 0.15158 0.0
C381 C 0.2965 0.13569 0.16574 0.0
C382 C 0.37247 0.19822 0.10936 0.0
C383 C 0.32867 0.08205 0.15705 0.0
C384 C 0.41613 0.09582 0.06912 0.0
C385 C 0.44661 0.09352 0.09133 0.0
C386 C 0.38557 0.11018 0.08185 0.0
C387 C 0.38426 0.1232 0.11805 0.0
C388 C 0.41504 0.12096 0.14033 0.0
C389 C 0.445 0.10647 0.12704 0.0
C390 C 0.35433 0.11135 0.05628 0.0
C391 C 0.4165 0.13409 0.17879 0.0
H392 H 0.31502 0.21761 0.13966 0.0
H393 H 0.27745 0.11965 0.17954 0.0
H394 H 0.39787 0.1975 0.12418 0.0
H395 H 0.37562 0.18884 0.08142 0.0
H396 H 0.36502 0.22518 0.10735 0.0
H397 H 0.30666 0.06985 0.17157 0.0
H398 H 0.3301 0.06972 0.13022 0.0
H399 H 0.35279 0.07709 0.173 0.0
H400 H 0.41599 0.0862 0.04161 0.0
H401 H 0.46767 0.10535 0.14514 0.0
H402 H 0.34728 0.13824 0.0519 0.0
H403 H 0.33217 0.09722 0.06866 0.0
H404 H 0.35856 0.10012 0.02937 0.0
H405 H 0.41127 0.16167 0.17838 0.0
H406 H 0.44184 0.13076 0.19308 0.0
H407 H 0.39627 0.12047 0.19474 0.0
C408 C 0.21488 0.79197 0.77417 0.0
C409 C 0.25012 0.78855 0.77139 0.0
C410 C 0.19539 0.80628 0.74517 0.0
C411 C 0.21185 0.81758 0.71306 0.0
C412 C 0.24732 0.81275 0.70981 0.0
C413 C 0.26608 0.79827 0.73918 0.0
C414 C 0.15764 0.81086 0.74958 0.0
C415 C 0.26585 0.82453 0.67614 0.0
C416 C 0.16002 0.84058 0.62652 0.0
C417 C 0.16018 0.8763 0.62881 0.0
C418 C 0.17613 0.82092 0.65411 0.0
C419 C 0.19297 0.83747 0.68445 0.0
C420 C 0.19288 0.87349 0.68703 0.0
C421 C 0.17646 0.89243 0.65923 0.0
C422 C 0.17549 0.78255 0.65062 0.0
C423 C 0.21077 0.89216 0.71881 0.0
H424 H 0.20281 0.78451 0.79942 0.0
H425 H 0.29352 0.79567 0.73745 0.0
H426 H 0.15321 0.83849 0.75162 0.0
H427 H 0.14232 0.80116 0.72535 0.0
H428 H 0.148 0.79744 0.77439 0.0
H429 H 0.29266 0.81624 0.67665 0.0
H430 H 0.25191 0.81447 0.65123 0.0
H431 H 0.26658 0.85287 0.67399 0.0
H432 H 0.14721 0.82801 0.60318 0.0
H433 H 0.17713 0.92007 0.66086 0.0
H434 H 0.16461 0.76994 0.67522 0.0
H435 H 0.20208 0.77421 0.64887 0.0
H436 H 0.16009 0.77349 0.62611 0.0
H437 H 0.20055 0.88212 0.7449 0.0
H438 H 0.20757 0.92017 0.71715 0.0
H439 H 0.23865 0.88772 0.71962 0.0
C440 C 0.85371 0.47889 0.84655 0.0
C441 C 0.84653 0.44343 0.84854 0.0
C442 C 0.88203 0.4943 0.86596 0.0
C443 C 0.90376 0.47374 0.88792 0.0
C444 C 0.89634 0.43798 0.8906 0.0
C445 C 0.86771 0.42323 0.87091 0.0
C446 C 0.88888 0.53256 0.86265 0.0
C447 C 0.91899 0.41528 0.91372 0.0
C448 C 0.99419 0.51201 0.90682 0.0
C449 C 0.99158 0.5255 0.94158 0.0
C450 C 0.96605 0.49412 0.88947 0.0
C451 C 0.93462 0.48982 0.90736 0.0
C452 C 0.93216 0.50274 0.9429 0.0
C453 C 0.96075 0.52042 0.95962 0.0
C454 C 0.96967 0.48064 0.85162 0.0
C455 C 0.89908 0.49875 0.9628 0.0
H456 H 0.83704 0.49467 0.8298 0.0
H457 H 0.86233 0.39579 0.87234 0.0
H458 H 0.88972 0.54416 0.89007 0.0
H459 H 0.91433 0.53836 0.85092 0.0
H460 H 0.86902 0.54496 0.8451 0.0
H461 H 0.90905 0.38814 0.91386 0.0
H462 H 0.9453 0.41665 0.90328 0.0
H463 H 0.92114 0.42434 0.94226 0.0
H464 H 1.0181 0.51588 0.89293 0.0
H465 H 0.95876 0.53083 0.98659 0.0
H466 H 0.95234 0.49395 0.8319 0.0
H467 H 0.96186 0.45298 0.85087 0.0
H468 H 0.9964 0.48431 0.8424 0.0
H469 H 0.87887 0.51293 0.94775 0.0
H470 H 0.90203 0.50847 0.9911 0.0
H471 H 0.88989 0.47145 0.96395 0.0
C472 C 0.9112 0.66928 0.49029 0.0
C473 C 0.9256 0.69509 0.51316 0.0
C474 C 0.87908 0.65305 0.49713 0.0
C475 C 0.861 0.663 0.52745 0.0
C476 C 0.8759 0.68832 0.55121 0.0
C477 C 0.90803 0.70402 0.54379 0.0
C478 C 0.86399 0.62612 0.47125 0.0
C479 C 0.85745 0.69956 0.58391 0.0
C480 C 0.76386 0.65426 0.52719 0.0
C481 C 0.75839 0.62663 0.55153 0.0
C482 C 0.79714 0.66545 0.51793 0.0
C483 C 0.82564 0.64858 0.53338 0.0
C484 C 0.82026 0.61971 0.55669 0.0
C485 C 0.78664 0.60911 0.56556 0.0
C486 C 0.80185 0.6964 0.49303 0.0
C487 C 0.85003 0.60091 0.57339 0.0
H488 H 0.92453 0.66255 0.46636 0.0
H489 H 0.91933 0.72362 0.5618 0.0
H490 H 0.85583 0.60261 0.48665 0.0
H491 H 0.84076 0.63556 0.45663 0.0
H492 H 0.88248 0.61935 0.45073 0.0
H493 H 0.87323 0.7185 0.60053 0.0
H494 H 0.83318 0.71121 0.57468 0.0
H495 H 0.85049 0.67715 0.60158 0.0
H496 H 0.74218 0.66817 0.51662 0.0
H497 H 0.78248 0.58746 0.58403 0.0
H498 H 0.81857 0.69074 0.47047 0.0
H499 H 0.81479 0.71784 0.50859 0.0
H500 H 0.77701 0.70494 0.48108 0.0
H501 H 0.86759 0.59421 0.55197 0.0
H502 H 0.8414 0.57712 0.58812 0.0
H503 H 0.86508 0.61774 0.59295 0.0
C504 C 0.17069 0.35445 0.15065 0.0
C505 C 0.16237 0.32178 0.13594 0.0
C506 C 0.15523 0.38487 0.13682 0.0
C507 C 0.1305 0.3838 0.10679 0.0
C508 C 0.12191 0.35075 0.09203 0.0
C509 C 0.13773 0.32075 0.10644 0.0
C510 C 0.16602 0.41859 0.1541 0.0
C511 C 0.09636 0.34707 0.06009 0.0
C512 C 0.06866 0.45944 0.08824 0.0
C513 C 0.08417 0.47956 0.06029 0.0
C514 C 0.08315 0.42898 0.10332 0.0
C515 C 0.11432 0.4169 0.09056 0.0
C516 C 0.12984 0.43688 0.06205 0.0
C517 C 0.11506 0.46746 0.0478 0.0
C518 C 0.06494 0.40967 0.1334 0.0
C519 C 0.16262 0.42613 0.04651 0.0
H520 H 0.19003 0.35646 0.17279 0.0
H521 H 0.1312 0.2963 0.09385 0.0
H522 H 0.1786 0.43583 0.13372 0.0
H523 H 0.14311 0.43127 0.16294 0.0
H524 H 0.18413 0.41559 0.17807 0.0
H525 H 0.09126 0.31998 0.05212 0.0
H526 H 0.07173 0.35779 0.06685 0.0
H527 H 0.10618 0.36189 0.03627 0.0
H528 H 0.04506 0.46771 0.09883 0.0
H529 H 0.12798 0.48199 0.02649 0.0
H530 H 0.08235 0.40824 0.15811 0.0
H531 H 0.05808 0.38304 0.12491 0.0
H532 H 0.04116 0.42181 0.14072 0.0
H533 H 0.18411 0.42997 0.06714 0.0
H534 H 0.1691 0.44104 1.02144 0.0
H535 H 0.16051 0.39855 0.03987 0.0
C536 C 0.70557 0.36392 0.83037 0.0
C537 C 0.74113 0.36339 0.8381 0.0
C538 C 0.68272 0.33868 0.84471 0.0
C539 C 0.69565 0.31247 0.86773 0.0
C540 C 0.73141 0.31204 0.8761 0.0
C541 C 0.75372 0.33736 0.86104 0.0
C542 C 0.64476 0.33996 0.83503 0.0
C543 C 0.74616 0.28462 0.90071 0.0
C544 C 0.63401 0.264 0.93026 0.0
C545 C 0.62668 0.23353 0.91126 0.0
C546 C 0.65651 0.28986 0.91649 0.0
C547 C 0.6718 0.28526 0.88276 0.0
C548 C 0.66441 0.2546 0.8634 0.0
C549 C 0.64206 0.22904 0.87797 0.0
C550 C 0.66406 0.32203 0.93813 0.0
C551 C 0.67993 0.24889 0.82717 0.0
H552 H 0.6955 0.38422 0.8132 0.0
H553 H 0.78115 0.3364 0.86676 0.0
H554 H 0.63522 0.31593 0.82155 0.0
H555 H 0.63031 0.342 0.86021 0.0
H556 H 0.63888 0.36188 0.81652 0.0
H557 H 0.77442 0.28853 0.90548 0.0
H558 H 0.73392 0.28419 0.92747 0.0
H559 H 0.7405 0.25915 0.88844 0.0
H560 H 0.62247 0.26741 0.9562 0.0
H561 H 0.63614 0.20569 0.863 0.0
H562 H 0.65662 0.34467 0.92155 0.0
H563 H 0.69205 0.32539 0.94482 0.0
H564 H 0.65018 0.32157 0.96395 0.0
H565 H 0.67271 0.26935 0.80737 0.0
H566 H 0.6714 0.22371 0.81546 0.0
H567 H 0.70838 0.2503 0.83046 0.0
C568 C 0.96603 0.82205 0.47339 0.0
C569 C 0.99209 0.80591 0.49357 0.0
C570 C 0.96658 0.85776 0.46977 0.0
C571 C 0.99361 0.87776 0.48719 0.0
C572 C 1.01984 0.86158 0.50795 0.0
C573 C 1.01898 0.82573 0.51052 0.0
C574 C 0.93842 0.87406 0.44707 0.0
C575 C 0.04895 0.88207 0.52712 0.0
C576 C 1.01419 0.96877 0.45408 0.0
C577 C 0.99777 0.98758 0.47953 0.0
C578 C 1.01236 0.93287 0.45567 0.0
C579 C 0.99427 0.91564 0.48386 0.0
C580 C 0.97711 0.93461 0.50923 0.0
C581 C 0.97868 0.9704 0.50644 0.0
C582 C 1.03068 0.91347 0.42793 0.0
C583 C 0.95823 0.91719 0.54016 0.0
H584 H 0.94548 0.80662 0.45985 0.0
H585 H 0.03908 0.81317 0.52614 0.0
H586 H 0.92458 0.89136 0.46415 0.0
H587 H 0.94974 0.88987 0.42473 0.0
H588 H 0.91951 0.8548 0.43488 0.0
H589 H 0.06542 0.89473 0.50643 0.0
H590 H 0.03889 0.90244 0.54363 0.0
H591 H 0.06518 0.86588 0.54527 0.0
H592 H 1.0292 0.98219 0.43353 0.0
H593 H 0.96643 0.98496 0.52654 0.0
H594 H 1.01288 0.89362 0.41513 0.0
H595 H 0.05219 0.90017 0.4417 0.0
H596 H 0.04122 0.93055 0.4061 0.0
H597 H 0.93752 0.89922 0.52911 0.0
H598 H 0.94667 0.93572 0.55791 0.0
H599 H 0.97617 0.90191 0.55723 0.0
C600 C 0.42004 0.76507 0.74469 0.0
C601 C 0.4005 0.74974 0.77236 0.0
C602 C 0.43562 0.74501 0.71931 0.0
C603 C 0.43188 0.70882 0.72201 0.0
C604 C 0.41276 0.69331 0.75042 0.0
C605 C 0.39725 0.71392 0.77509 0.0
C606 C 0.4556 0.7625 0.68928 0.0
C607 C 0.40853 0.65488 0.75468 0.0
C608 C 0.44417 0.65313 0.63998 0.0
C609 C 0.47754 0.64234 0.64722 0.0
C610 C 0.42928 0.67543 0.6636 0.0
C611 C 0.44807 0.68696 0.69543 0.0
C612 C 0.4818 0.67627 0.70277 0.0
C613 C 0.49615 0.65426 0.67855 0.0
C614 C 0.39333 0.68642 0.65466 0.0
C615 C 0.50257 0.68761 0.73658 0.0
H616 H 0.42236 0.79273 0.7423 0.0
H617 H 0.38246 0.70197 0.7967 0.0
H618 H 0.48238 0.75422 0.69054 0.0
H619 H 0.4439 0.75494 0.66228 0.0
H620 H 0.45628 0.79082 0.69103 0.0
H621 H 0.39332 0.64686 0.77858 0.0
H622 H 0.3955 0.6438 0.72976 0.0
H623 H 0.43411 0.64384 0.75792 0.0
H624 H 0.42966 0.64428 0.61574 0.0
H625 H 0.52194 0.64609 0.68449 0.0
H626 H 0.39312 0.71475 0.65395 0.0
H627 H 0.37599 0.67702 0.6763 0.0
H628 H 0.3828 0.67658 0.628 0.0
H629 H 0.50491 0.71594 0.73746 0.0
H630 H 0.52878 0.67778 0.73783 0.0
H631 H 0.48919 0.67847 0.76131 0.0
C632 C 0.90739 0.93494 0.75067 0.0
C633 C 0.92661 0.9226 0.78144 0.0
C634 C 0.92305 0.94988 0.719 0.0
C635 C 0.95953 0.954 0.71696 0.0
C636 C 0.97913 0.9417 0.74793 0.0
C637 C 0.96278 0.92608 0.77896 0.0
C638 C 0.90019 0.96118 0.68729 0.0
C639 C 1.01781 0.94561 0.74864 0.0
C640 C 1.003 0.96821 0.6222 0.0
C641 C 1.00842 1.00415 0.61864 0.0
C642 C 0.98727 0.95191 0.65318 0.0
C643 C 0.97685 0.97131 0.68301 0.0
C644 C 0.98279 1.00757 0.67977 0.0
C645 C 0.99777 0.02326 0.64806 0.0
C646 C 0.98117 0.91357 0.65355 0.0
C647 C 0.97344 0.03014 0.71022 0.0
H648 H 0.87961 0.93247 0.751 0.0
H649 H 0.97862 0.91733 0.80193 0.0
H650 H 0.904 0.98921 0.68285 0.0
H651 H 0.90723 0.94876 0.66193 0.0
H652 H 0.87254 0.95492 0.6917 0.0
H653 H 1.02979 0.93552 0.77442 0.0
H654 H 1.02765 0.93196 0.72538 0.0
H655 H 1.0261 0.97304 0.7454 0.0
H656 H 1.01057 0.95255 0.60021 0.0
H657 H 1.00157 0.05087 0.6466 0.0
H658 H 0.95318 0.90687 0.65431 0.0
H659 H 0.99352 0.90231 0.67848 0.0
H660 H 0.99127 0.90169 0.62924 0.0
H661 H 0.9453 0.02776 0.71365 0.0
H662 H 0.98111 0.05749 0.70506 0.0
H663 H 0.98608 1.02175 0.73636 0.0
C664 C 0.62287 0.2306 0.24332 0.0
C665 C 0.6575 0.24189 0.248 0.0
C666 C 0.61185 0.20817 0.21523 0.0
C667 C 0.63599 0.19703 0.19092 0.0
C668 C 0.67091 0.20884 0.1951 0.0
C669 C 0.68129 0.23096 0.22375 0.0
C670 C 0.57447 0.19586 0.21202 0.0
C671 C 0.69731 0.19792 0.16946 0.0
C672 C 0.61173 0.1133 0.14323 0.0
C673 C 0.59728 0.12471 0.10974 0.0
C674 C 0.62524 0.13656 0.1695 0.0
C675 C 0.62471 0.17214 0.16196 0.0
C676 C 0.61159 0.1838 0.12754 0.0
C677 C 0.59783 0.15995 0.10193 0.0
C678 C 0.63874 0.12306 0.20594 0.0
C679 C 0.61106 0.2215 0.11824 0.0
H680 H 0.60447 0.2387 0.26225 0.0
H681 H 0.70803 0.23991 0.22706 0.0
H682 H 0.56343 0.20227 0.18448 0.0
H683 H 0.57216 0.1676 0.21533 0.0
H684 H 0.55889 0.2073 0.23278 0.0
H685 H 0.72313 0.2105 0.17548 0.0
H686 H 0.6994 0.16981 0.17151 0.0
H687 H 0.68915 0.20413 0.14082 0.0
H688 H 0.61133 0.08613 0.14956 0.0
H689 H 0.58683 0.16897 0.07605 0.0
H690 H 0.62248 0.13127 0.22789 0.0
H691 H 0.66523 0.1338 0.21206 0.0
H692 H 0.63896 0.09469 0.20684 0.0
H693 H 0.59309 0.23371 0.13594 0.0
H694 H 0.60285 0.2263 0.08927 0.0
H695 H 0.63691 0.23416 0.12354 0.0
C696 C 0.34342 0.66412 0.42853 0.0
C697 C 0.3456 0.67472 0.39205 0.0
C698 C 0.37329 0.65928 0.45043 0.0
C699 C 0.40594 0.66528 0.43529 0.0
C700 C 0.40809 0.6772 0.39868 0.0
C701 C 0.37777 0.68163 0.37738 0.0
C702 C 0.36989 0.64629 0.48924 0.0
C703 C 0.44236 0.68384 0.38155 0.0
C704 C 0.4845 0.66854 0.5011 0.0
C705 C 0.49451 0.6348 0.49974 0.0
C706 C 0.4561 0.67923 0.47962 0.0
C707 C 0.43746 0.65553 0.45648 0.0
C708 C 0.44819 0.62173 0.45438 0.0
C709 C 0.47661 0.61186 0.47591 0.0
C710 C 0.44544 0.71551 0.48242 0.0
C711 C 0.42902 0.59557 0.43022 0.0
H712 H 0.31834 0.65874 0.43964 0.0
H713 H 0.37932 0.68964 0.34902 0.0
H714 H 0.37922 0.62005 0.49191 0.0
H715 H 0.38605 0.66268 0.5083 0.0
H716 H 0.34289 0.64561 0.49778 0.0
H717 H 0.43975 0.69638 0.35418 0.0
H718 H 0.4598 0.70025 0.39937 0.0
H719 H 0.45474 0.65927 0.37856 0.0
H720 H 0.49825 0.68627 0.51961 0.0
H721 H 0.48433 0.58575 0.47472 0.0
H722 H 0.41973 0.71546 0.49419 0.0
H723 H 0.44327 0.72764 0.45487 0.0
H724 H 0.4639 0.73136 0.4998 0.0
H725 H 0.40238 0.59097 0.4393 0.0
H726 H 0.44153 0.57074 0.43072 0.0
H727 H 0.42728 0.6053 0.40161 0.0
C728 C 0.2034 0.33669 0.88556 0.0
C729 C 0.23416 0.32113 0.88077 0.0
C730 C 0.20356 0.36986 0.89915 0.0
C731 C 0.23536 0.38769 0.90809 0.0
C732 C 0.26651 0.37125 0.90492 0.0
C733 C 0.26555 0.33804 0.89088 0.0
C734 C 0.16975 0.38645 0.90211 0.0
C735 C 0.30081 0.38923 0.91473 0.0
C736 C 0.22682 0.48295 0.89762 0.0
C737 C 0.21866 0.49151 0.93304 0.0
C738 C 0.23511 0.44962 0.88961 0.0
C739 C 0.23549 0.42436 0.91779 0.0
C740 C 0.23064 0.43367 0.95421 0.0
C741 C 0.22215 0.46716 0.9614 0.0
C742 C 0.24052 0.44083 0.85043 0.0
C743 C 0.2315 0.40765 0.98513 0.0
H744 H 0.17924 0.32346 0.87718 0.0
H745 H 0.2893 0.32583 0.88662 0.0
H746 H 0.16749 0.39611 0.93009 0.0
H747 H 0.16863 0.40873 0.88297 0.0
H748 H 0.14732 0.36852 0.89567 0.0
H749 H 0.32199 0.37135 0.9159 0.0
H750 H 0.30663 0.4095 0.89401 0.0
H751 H 0.30013 0.40184 0.9415 0.0
H752 H 0.22498 0.50189 0.87576 0.0
H753 H 0.21595 0.47351 0.98888 0.0
H754 H 0.21802 0.42495 0.83962 0.0
H755 H 0.26351 0.4256 0.8486 0.0
H756 H 0.24369 0.46402 0.83269 0.0
H757 H 0.20693 0.39192 0.98451 0.0
H758 H 0.23483 0.42008 1.01213 0.0
H759 H 0.25258 0.39013 0.98229 0.0
C760 C 0.77383 0.97865 0.92074 0.0
C761 C 0.77769 0.9431 0.91797 0.0
C762 C 0.7446 0.9926 0.93631 0.0
C763 C 0.71724 0.97102 0.95013 0.0
C764 C 0.72126 0.93498 0.94789 0.0
C765 C 0.75077 0.92168 0.93193 0.0
C766 C 0.74266 0.03091 0.93707 0.0
C767 C 0.69379 0.91014 0.96184 0.0
C768 C 0.65035 1.00971 1.01436 0.0
C769 C 0.62164 1.01586 0.99061 0.0
C770 C 0.68089 0.99509 1.00204 0.0
C771 C 0.68403 0.98607 0.96466 0.0
C772 C 0.65506 0.99228 0.9408 0.0
C773 C 0.62495 1.00661 0.9538 0.0
C774 C 0.7101 0.98927 0.02934 0.0
C775 C 0.65583 0.98394 0.90087 0.0
H776 H 0.79361 0.99597 0.90982 0.0
H777 H 0.75241 0.89426 0.92985 0.0
H778 H 0.72025 0.03874 0.9198 0.0
H779 H 0.73873 0.03916 0.96529 0.0
H780 H 0.76623 0.04458 0.92707 0.0
H781 H 0.7012 0.8832 0.96088 0.0
H782 H 0.68836 0.91615 0.9904 0.0
H783 H 0.66959 0.91269 0.94516 0.0
H784 H 0.64902 1.01629 0.04281 0.0
H785 H 0.60364 1.01077 0.93453 0.0
H786 H 0.73347 1.00444 1.02118 0.0
H787 H 0.71626 0.96193 0.02963 0.0
H788 H 0.70404 0.99647 0.05739 0.0
H789 H 0.6776 0.9986 0.88835 0.0
H790 H 0.63166 0.98996 0.88548 0.0
H791 H 0.66007 0.95638 0.89781 0.0
C792 C 0.76534 0.29338 0.36199 0.0
C793 C 0.73834 0.26903 0.35455 0.0
C794 C 0.79561 0.28413 0.38114 0.0
C795 C 0.79867 0.24985 0.39346 0.0
C796 C 0.77094 0.2255 0.38705 0.0
C797 C 0.74123 0.23535 0.36755 0.0
C798 C 0.82469 0.31074 0.38722 0.0
C799 C 0.77288 0.18882 0.40019 0.0
C800 C 0.88537 0.2111 0.41013 0.0
C801 C 0.88899 0.21086 0.44839 0.0
C802 C 0.85683 0.22508 0.39183 0.0
C803 C 0.83106 0.2389 0.41224 0.0
C804 C 0.83513 0.23986 0.45075 0.0
C805 C 0.8641 0.22605 0.46832 0.0
C806 C 0.85358 0.22383 0.35068 0.0
C807 C 0.80822 0.25428 0.47353 0.0
H808 H 0.76326 0.31936 0.3517 0.0
H809 H 0.72021 0.21658 0.36215 0.0
H810 H 0.83249 0.31197 0.41665 0.0
H811 H 0.8474 0.30349 0.37255 0.0
H812 H 0.81766 0.33659 0.3775 0.0
H813 H 0.74854 0.17343 0.3943 0.0
H814 H 0.79396 0.17671 0.38679 0.0
H815 H 0.77886 0.18789 0.43005 0.0
H816 H 0.90421 0.1992 0.39444 0.0
H817 H 0.86699 0.2267 0.49784 0.0
H818 H 0.84817 0.24945 0.33905 0.0
H819 H 0.83166 0.20603 0.34226 0.0
H820 H 0.8772 0.21515 0.33867 0.0
H821 H 0.80257 0.28045 0.46378 0.0
H822 H 0.81631 0.25527 0.50296 0.0
H823 H 0.78394 0.23822 0.47061 0.0
C824 C 0.21097 0.70651 0.19932 0.0
C825 C 0.22145 0.68334 0.22685 0.0
C826 C 0.18376 0.69785 0.1743 0.0
C827 C 0.16577 0.66565 0.1775 0.0
C828 C 0.17495 0.64282 0.20628 0.0
C829 C 0.20293 0.65174 0.23031 0.0
C830 C 0.175 0.72273 0.14372 0.0
C831 C 0.15583 0.60854 0.21108 0.0
C832 C 0.07876 0.65166 0.12737 0.0
C833 C 0.08719 0.6321 0.09774 0.0
C834 C 0.10406 0.66293 0.15356 0.0
C835 C 0.13867 0.65504 0.14952 0.0
C836 C 0.14744 0.63631 0.11897 0.0
C837 C 0.12151 0.62466 0.09379 0.0
C838 C 0.09352 0.68207 0.18623 0.0
C839 C 0.18414 0.62795 0.11323 0.0
H840 H 0.22432 0.7314 0.19694 0.0
H841 H 0.21085 0.63345 0.25116 0.0
H842 H 0.17897 0.711 0.11703 0.0
H843 H 0.14752 0.72859 0.14407 0.0
H844 H 0.19094 0.74709 0.14555 0.0
H845 H 0.16408 0.59512 0.2367 0.0
H846 H 0.12776 0.61183 0.21138 0.0
H847 H 0.16026 0.59202 0.18771 0.0
H848 H 0.05218 0.65716 0.13084 0.0
H849 H 0.12808 0.60906 0.07144 0.0
H850 H 0.10987 0.70594 0.18995 0.0
H851 H 0.09724 0.66606 0.21126 0.0
H852 H 0.06618 0.68872 0.18369 0.0
H853 H 0.20111 0.65165 0.11397 0.0
H854 H 0.18694 0.61519 0.0868 0.0
H855 H 0.19333 0.61081 0.13562 0.0
C856 C 0.2752 0.35591 0.7358 0.0
C857 C 0.24152 0.34264 0.72883 0.0
C858 C 0.28807 0.38476 0.71651 0.0
C859 C 0.26654 0.40081 0.68996 0.0
C860 C 0.2318 0.38889 0.68469 0.0
C861 C 0.21975 0.35973 0.70403 0.0
C862 C 0.32535 0.39657 0.72276 0.0
C863 C 0.20791 0.40571 0.65714 0.0
C864 C 0.30187 0.48555 0.65097 0.0
C865 C 0.3168 0.4748 0.61934 0.0
C866 C 0.28407 0.46199 0.67364 0.0
C867 C 0.28167 0.42693 0.66461 0.0
C868 C 0.29567 0.4162 0.63205 0.0
C869 C 0.31294 0.44028 0.60979 0.0
C870 C 0.2689 0.47438 0.70781 0.0
C871 C 0.29388 0.37899 0.62157 0.0
H872 H 0.29207 0.34261 0.75488 0.0
H873 H 0.19351 0.34971 0.69906 0.0
H874 H 0.33971 0.39118 0.69825 0.0
H875 H 0.32781 0.42459 0.72692 0.0
H876 H 0.33762 0.38355 0.74676 0.0
H877 H 0.18067 0.39666 0.66019 0.0
H878 H 0.21009 0.43393 0.65986 0.0
H879 H 0.21524 0.39985 0.62914 0.0
H880 H 0.30468 0.51227 0.6583 0.0
H881 H 0.32494 0.43172 0.58574 0.0
H882 H 0.2834 0.46458 0.73218 0.0
H883 H 0.24184 0.46437 0.70958 0.0
H884 H 0.26971 0.50275 0.70886 0.0
H885 H 0.30824 0.36389 0.64249 0.0
H886 H 0.30485 0.37511 0.59461 0.0
H887 H 0.26683 0.36858 0.62059 0.0
C888 C 0.92061 0.82505 0.92424 0.0
C889 C 0.91824 0.83027 0.88588 0.0
C890 C 0.93506 0.79529 0.94124 0.0
C891 C 0.94726 0.7685 0.92008 0.0
C892 C 0.9442 0.77331 0.88139 0.0
C893 C 0.93039 0.80357 0.86517 0.0
C894 C 0.93783 0.79285 0.98232 0.0
C895 C 0.95548 0.74613 0.85669 0.0
C896 C 1.01383 0.70351 0.96028 0.0
C897 C 0.99348 0.67395 0.97014 0.0
C898 C 0.99941 0.73392 0.94499 0.0
C899 C 0.9632 0.7359 0.93799 0.0
C900 C 0.94256 0.70604 0.94761 0.0
C901 C 0.95759 0.67621 0.9636 0.0
C902 C 1.02328 0.76433 0.93643 0.0
C903 C 0.90417 0.70533 0.94051 0.0
H904 H 0.91193 0.84482 0.94131 0.0
H905 H 0.9287 0.80602 0.83568 0.0
H906 H 0.9231 0.76963 0.99197 0.0
H907 H 0.96508 0.79031 0.99157 0.0
H908 H 0.92807 0.81555 0.99535 0.0
H909 H 0.95033 0.75243 0.82735 0.0
H910 H 0.98341 0.74286 0.86136 0.0
H911 H 0.94196 0.72122 0.86319 0.0
H912 H 0.04144 0.70312 0.96491 0.0
H913 H 0.94093 0.65421 0.97054 0.0
H914 H 1.01524 0.78722 0.95051 0.0
H915 H 1.02177 0.77012 0.90669 0.0
H916 H 0.05043 0.75999 0.94485 0.0
H917 H 0.89315 0.72592 0.95586 0.0
H918 H 0.89136 0.68044 0.94853 0.0
H919 H 0.89815 0.7103 0.91107 0.0
C920 C 0.35003 0.73524 0.20817 0.0
C921 C 0.33922 0.74023 0.24358 0.0
C922 C 0.37424 0.75812 0.1923 0.0
C923 C 0.38807 0.78651 0.21243 0.0
C924 C 0.37852 0.79075 0.24879 0.0
C925 C 0.35412 0.76762 0.26388 0.0
C926 C 0.38392 0.7527 0.1535 0.0
C927 C 0.39292 0.8206 0.27121 0.0
C928 C 0.46735 0.83809 0.18203 0.0
C929 C 0.45276 0.86678 0.16537 0.0
C930 C 0.44662 0.81133 0.19685 0.0
C931 C 0.41047 0.81326 0.19473 0.0
C932 C 0.39556 0.84166 0.17705 0.0
C933 C 0.41687 0.86813 0.16273 0.0
C934 C 0.46339 0.7814 0.21545 0.0
C935 C 0.35706 0.84452 0.17408 0.0
H936 H 0.33905 0.71375 0.19259 0.0
H937 H 0.34567 0.77185 0.29111 0.0
H938 H 0.37417 0.77355 0.13563 0.0
H939 H 0.41228 0.7537 0.15175 0.0
H940 H 0.37319 0.72783 0.14274 0.0
H941 H 0.38506 0.81865 0.29996 0.0
H942 H 0.4214 0.82222 0.27112 0.0
H943 H 0.38384 0.8448 0.25896 0.0
H944 H 0.49504 0.83659 0.18361 0.0
H945 H 0.40539 0.89036 0.15033 0.0
H946 H 0.45284 0.75704 0.20342 0.0
H947 H 0.45756 0.78047 0.24481 0.0
H948 H 0.49175 0.78295 0.21319 0.0
H949 H 0.34454 0.82137 0.16117 0.0
H950 H 0.34952 0.86737 0.15784 0.0
H951 H 0.34693 0.84609 0.20176 0.0
C952 C 0.19692 0.19037 0.71667 0.0
C953 C 0.18867 0.22469 0.71254 0.0
C954 C 0.1831 0.16554 0.69223 0.0
C955 C 0.16096 0.17541 0.66267 0.0
C956 C 0.15218 0.20987 0.65862 0.0
C957 C 0.16578 0.23397 0.68383 0.0
C958 C 0.1925 0.12885 0.69774 0.0
C959 C 0.12883 0.22143 0.62732 0.0
C960 C 0.15172 0.11984 0.57872 0.0
C961 C 0.11945 0.10325 0.58322 0.0
C962 C 0.16564 0.14339 0.60448 0.0
C963 C 0.14706 0.14983 0.63572 0.0
C964 C 0.11465 0.13268 0.64061 0.0
C965 C 0.10104 0.10987 0.61404 0.0
C966 C 0.19997 0.16175 0.59802 0.0
C967 C 0.09434 0.13843 0.67386 0.0
H968 H 0.2148 0.18299 0.73852 0.0
H969 H 0.15858 0.26025 0.68089 0.0
H970 H 0.16888 0.11181 0.6991 0.0
H971 H 0.20674 0.12075 0.67415 0.0
H972 H 0.20866 0.12507 0.72307 0.0
H973 H 0.12491 0.24931 0.62781 0.0
H974 H 0.13986 0.2155 0.60094 0.0
H975 H 0.10339 0.20737 0.62826 0.0
H976 H 0.16586 0.11476 0.5548 0.0
H977 H 0.07614 0.09684 0.61768 0.0
H978 H 0.21837 0.15676 0.62121 0.0
H979 H 0.19701 0.18977 0.59648 0.0
H980 H 0.21117 0.15374 0.57242 0.0
H981 H 0.1102 0.13331 0.69906 0.0
H982 H 0.07031 0.12185 0.67435 0.0
H983 H 0.08751 0.16553 0.67451 0.0
C984 C 0.61971 0.37414 0.41265 0.0
C985 C 0.63696 0.3859 0.38184 0.0
C986 C 0.60907 0.39726 0.43818 0.0
C987 C 0.61565 0.4329 0.43239 0.0
C988 C 0.63461 0.44461 0.40206 0.0
C989 C 0.64496 0.4209 0.37704 0.0
C990 C 0.58913 0.38367 0.47021 0.0
C991 C 0.64223 0.4823 0.39487 0.0
C992 C 0.55181 0.49259 0.46841 0.0
C993 C 0.56951 0.50573 0.49966 0.0
C994 C 0.56661 0.46897 0.44638 0.0
C995 C 0.5999 0.45794 0.45587 0.0
C996 C 0.61789 0.47099 0.48747 0.0
C997 C 0.60254 0.4948 0.50891 0.0
C998 C 0.54655 0.45579 0.41287 0.0
C999 C 0.65329 0.45972 0.49869 0.0
H1000 H 0.61326 0.34699 0.41598 0.0
H1001 H 0.65802 0.42985 0.35286 0.0
H1002 H 0.59982 0.39526 0.49594 0.0
H1003 H 0.56202 0.39079 0.46661 0.0
H1004 H 0.58942 0.35538 0.47305 0.0
H1005 H 0.66 0.48704 0.37224 0.0
H1006 H 0.61791 0.49476 0.38762 0.0
H1007 H 0.65374 0.49474 0.41979 0.0
H1008 H 0.52631 0.50085 0.46101 0.0
H1009 H 0.61634 0.50457 0.53318 0.0
H1010 H 0.54264 0.42755 0.4148 0.0
H1011 H 0.56128 0.46189 0.38815 0.0
H1012 H 0.52103 0.46696 0.40921 0.0
H1013 H 0.65253 0.43153 0.50269 0.0
H1014 H 0.66364 0.47187 0.52432 0.0
H1015 H 0.67129 0.46622 0.4767 0.0
loop_
_geom_bond_atom_site_label_1
_geom_bond_atom_site_label_2
_geom_bond_distance
_geom_bond_site_symmetry_2
_ccdc_geom_bond_type
H0 C3 0.929 . S
H1 C6 0.929 . S
H2 C8 0.930 . S
C3 H0 0.929 . S
C3 C4 1.398 . S
C3 C5 1.396 . S
C4 C3 1.398 . S
C4 C8 1.407 . S
C5 C3 1.396 . S
C5 C6 1.394 . S
C6 H1 0.929 . S
C6 C5 1.394 . S
C6 C7 1.382 . S
C7 C6 1.382 . S
C7 C8 1.392 . S
C7 N9 1.420 . S
C8 H2 0.930 . S
C8 C4 1.407 . S
C8 C7 1.392 . S
N9 C7 1.420 . S
N9 C10 1.244 . S
C10 N9 1.244 . S
H11 C14 0.929 . S
H12 C17 0.929 . S
H13 C19 0.930 . S
C14 H11 0.929 . S
C14 C15 1.398 . S
C14 C16 1.396 . S
C15 C14 1.398 . S
C15 C19 1.407 . S
C16 C14 1.396 . S
C16 C17 1.394 . S
C17 H12 0.929 . S
C17 C16 1.394 . S
C17 C18 1.382 . S
C18 C17 1.382 . S
C18 C19 1.392 . S
C18 N20 1.420 . S
C19 H13 0.930 . S
C19 C15 1.407 . S
C19 C18 1.392 . S
N20 C18 1.420 . S
N20 C21 1.244 . S
C21 N20 1.244 . S
H22 C25 0.929 . S
H23 C28 0.929 . S
H24 C30 0.930 . S
C25 H22 0.929 . S
C25 C26 1.398 . S
C25 C27 1.396 . S
C26 C25 1.398 . S
C26 C30 1.407 . S
C27 C25 1.396 . S
C27 C28 1.394 . S
C28 H23 0.929 . S
C28 C27 1.394 . S
C28 C29 1.382 . S
C29 C28 1.382 . S
C29 C30 1.392 . S
C29 N31 1.420 . S
C30 H24 0.930 . S
C30 C26 1.407 . S
C30 C29 1.392 . S
N31 C29 1.420 . S
N31 C32 1.244 . S
C32 N31 1.244 . S
H33 C36 0.929 . S
H34 C39 0.929 . S
H35 C41 0.930 . S
C36 H33 0.929 . S
C36 C37 1.398 . S
C36 C38 1.396 . S
C37 C36 1.398 . S
C37 C41 1.407 . S
C38 C36 1.396 . S
C38 C39 1.394 . S
C39 H34 0.929 . S
C39 C38 1.394 . S
C39 C40 1.382 . S
C40 C39 1.382 . S
C40 C41 1.392 . S
C40 N42 1.420 . S
C41 H35 0.930 . S
C41 C37 1.407 . S
C41 C40 1.392 . S
N42 C40 1.420 . S
N42 C43 1.244 . S
C43 N42 1.244 . S
H44 C47 0.929 . S
H45 C50 0.929 . S
H46 C52 0.930 . S
C47 H44 0.929 . S
C47 C48 1.398 . S
C47 C49 1.396 . S
C48 C47 1.398 . S
C48 C52 1.407 . S
C49 C47 1.396 . S
C49 C50 1.394 . S
C50 H45 0.929 . S
C50 C49 1.394 . S
C50 C51 1.382 . S
C51 C50 1.382 . S
C51 C52 1.392 . S
C51 N53 1.420 . S
C52 H46 0.930 . S
C52 C48 1.407 . S
C52 C51 1.392 . S
N53 C51 1.420 . S
N53 C54 1.244 . S
C54 N53 1.244 . S
H55 C58 0.929 . S
H56 C61 0.929 . S
H57 C63 0.930 . S
C58 H55 0.929 . S
C58 C59 1.398 . S
C58 C60 1.396 . S
C59 C58 1.398 . S
C59 C63 1.407 . S
C60 C58 1.396 . S
C60 C61 1.394 . S
C61 H56 0.929 . S
C61 C60 1.394 . S
C61 C62 1.382 . S
C62 C61 1.382 . S
C62 C63 1.392 . S
C62 N64 1.420 . S
C63 H57 0.930 . S
C63 C59 1.407 . S
C63 C62 1.392 . S
N64 C62 1.420 . S
N64 C65 1.244 . S
C65 N64 1.244 . S
H66 C69 0.929 . S
H67 C72 0.929 . S
H68 C74 0.930 . S
C69 H66 0.929 . S
C69 C70 1.398 . S
C69 C71 1.396 . S
C70 C69 1.398 . S
C70 C74 1.407 . S
C71 C69 1.396 . S
C71 C72 1.394 . S
C72 H67 0.929 . S
C72 C71 1.394 . S
C72 C73 1.382 . S
C73 C72 1.382 . S
C73 C74 1.392 . S
C73 N75 1.420 . S
C74 H68 0.930 . S
C74 C70 1.407 . S
C74 C73 1.392 . S
N75 C73 1.420 . S
N75 C76 1.244 . S
C76 N75 1.244 . S
H77 C80 0.929 . S
H78 C83 0.929 . S
H79 C85 0.930 . S
C80 H77 0.929 . S
C80 C81 1.398 . S
C80 C82 1.396 . S
C81 C80 1.398 . S
C81 C85 1.407 . S
C82 C80 1.396 . S
C82 C83 1.394 . S
C83 H78 0.929 . S
C83 C82 1.394 . S
C83 C84 1.382 . S
C84 C83 1.382 . S
C84 C85 1.392 . S
C84 N86 1.420 . S
C85 H79 0.930 . S
C85 C81 1.407 . S
C85 C84 1.392 . S
N86 C84 1.420 . S
N86 C87 1.244 . S
C87 N86 1.244 . S
Nd88 C90 2.836 . S
Nd88 O108 2.500 . S
Nd88 O109 2.492 . S
Nd88 O110 2.487 1_565 S
Nd88 O111 2.682 1_565 S
Nd88 O112 2.410 . S
Nd88 O117 2.414 1_455 S
Nd88 O119 2.424 1_565 S
Nd89 C99 2.836 . S
Nd89 O111 2.414 1_655 S
Nd89 O113 2.431 . S
Nd89 O114 2.500 . S
Nd89 O115 2.492 . S
Nd89 O116 2.487 1_545 S
Nd89 O117 2.682 1_545 S
Nd89 O118 2.410 . S
C90 Nd88 2.836 . S
C90 C91 1.498 . S
C90 O108 1.258 . S
C90 O109 1.239 . S
C91 C90 1.498 . S
C91 C92 1.366 . S
C91 C96 1.407 . S
C92 C91 1.366 . S
C92 C93 1.392 . S
C92 H120 0.930 . S
C93 C92 1.392 . S
C93 C94 1.398 . S
C93 H121 0.929 . S
C94 C93 1.398 . S
C94 C95 1.352 . S
C95 C94 1.352 . S
C95 C96 1.384 . S
C95 H122 0.930 . S
C96 C91 1.407 . S
C96 C95 1.384 . S
C96 H123 0.929 . S
C97 O110 1.241 . S
C97 O111 1.273 . S
C98 O112 1.251 1_655 S
C98 O113 1.262 1_565 S
C99 Nd89 2.836 . S
C99 C100 1.498 . S
C99 O114 1.258 . S
C99 O115 1.239 . S
C100 C99 1.498 . S
C100 C101 1.366 . S
C100 C105 1.407 . S
C101 C100 1.366 . S
C101 C102 1.392 . S
C101 H124 0.930 . S
C102 C101 1.392 . S
C102 C103 1.398 . S
C102 H125 0.929 . S
C103 C102 1.398 . S
C103 C104 1.352 . S
C104 C103 1.352 . S
C104 C105 1.384 . S
C104 H126 0.930 . S
C105 C100 1.407 . S
C105 C104 1.384 . S
C105 H127 0.929 . S
C106 O116 1.241 . S
C106 O117 1.273 . S
C107 O118 1.251 1_455 S
C107 O119 1.268 . S
O108 Nd88 2.500 . S
O108 C90 1.258 . S
O109 Nd88 2.492 . S
O109 C90 1.239 . S
O110 Nd88 2.487 1_545 S
O110 C97 1.241 . S
O111 Nd88 2.682 1_545 S
O111 Nd89 2.414 1_455 S
O111 C97 1.273 . S
O112 Nd88 2.410 . S
O112 C98 1.251 1_455 S
O113 Nd89 2.431 . S
O113 C98 1.262 1_545 S
O114 Nd89 2.500 . S
O114 C99 1.258 . S
O115 Nd89 2.492 . S
O115 C99 1.239 . S
O116 Nd89 2.487 1_565 S
O116 C106 1.241 . S
O117 Nd88 2.414 1_655 S
O117 Nd89 2.682 1_565 S
O117 C106 1.273 . S
O118 Nd89 2.410 . S
O118 C107 1.251 1_655 S
O119 Nd88 2.424 1_545 S
O119 C107 1.268 . S
H120 C92 0.930 . S
H121 C93 0.929 . S
H122 C95 0.930 . S
H123 C96 0.929 . S
H124 C101 0.930 . S
H125 C102 0.929 . S
H126 C104 0.930 . S
H127 C105 0.929 . S
Nd128 C130 2.836 . S
Nd128 O148 2.500 . S
Nd128 O149 2.492 . S
Nd128 O150 2.487 1_565 S
Nd128 O151 2.682 1_565 S
Nd128 O152 2.410 . S
Nd128 O157 2.414 1_565 S
Nd128 O159 2.424 1_565 S
Nd129 C139 2.836 1_554 S
Nd129 O151 2.414 . S
Nd129 O153 2.424 1_544 S
Nd129 O154 2.500 . S
Nd129 O155 2.492 1_554 S
Nd129 O156 2.487 . S
Nd129 O157 2.707 . S
Nd129 O158 2.410 . S
C130 Nd128 2.836 . S
C130 C131 1.498 . S
C130 O148 1.258 . S
C130 O149 1.239 . S
C131 C130 1.498 . S
C131 C132 1.366 . S
C131 C136 1.407 . S
C132 C131 1.366 . S
C132 C133 1.392 . S
C132 H160 0.930 . S
C133 C132 1.392 . S
C133 C134 1.398 . S
C133 H161 0.929 . S
C134 C133 1.398 . S
C134 C135 1.352 . S
C135 C134 1.352 . S
C135 C136 1.384 . S
C135 H162 0.930 . S
C136 C131 1.407 . S
C136 C135 1.384 . S
C136 H163 0.929 . S
C137 O150 1.241 . S
C137 O151 1.273 . S
C138 O152 1.251 . S
C138 O153 1.268 1_554 S
C139 Nd129 2.836 1_556 S
C139 C140 1.498 . S
C139 O154 1.258 1_556 S
C139 O155 1.239 . S
C140 C139 1.498 . S
C140 C141 1.366 1_556 S
C140 C145 1.407 . S
C141 C140 1.366 1_554 S
C141 C142 1.392 1_554 S
C141 H164 0.930 . S
C142 C141 1.392 1_556 S
C142 C143 1.398 . S
C142 H165 0.929 1_556 S
C143 C142 1.398 . S
C143 C144 1.352 . S
C144 C143 1.352 . S
C144 C145 1.384 . S
C144 H166 0.930 . S
C145 C140 1.407 . S
C145 C144 1.384 . S
C145 H167 0.929 . S
C146 O156 1.241 . S
C146 O157 1.271 . S
C147 O158 1.251 . S
C147 O159 1.268 . S
O148 Nd128 2.500 . S
O148 C130 1.258 . S
O149 Nd128 2.492 . S
O149 C130 1.239 . S
O150 Nd128 2.487 1_545 S
O150 C137 1.241 . S
O151 Nd128 2.682 1_545 S
O151 Nd129 2.414 . S
O151 C137 1.273 . S
O152 Nd128 2.410 . S
O152 C138 1.251 . S
O153 Nd129 2.424 1_566 S
O153 C138 1.268 1_556 S
O154 Nd129 2.500 . S
O154 C139 1.258 1_554 S
O155 Nd129 2.492 1_556 S
O155 C139 1.239 . S
O156 Nd129 2.487 . S
O156 C146 1.241 . S
O157 Nd128 2.414 1_545 S
O157 Nd129 2.707 . S
O157 C146 1.271 . S
O158 Nd129 2.410 . S
O158 C147 1.251 . S
O159 Nd128 2.424 1_545 S
O159 C147 1.268 . S
H160 C132 0.930 . S
H161 C133 0.929 . S
H162 C135 0.930 . S
H163 C136 0.929 . S
H164 C141 0.930 . S
H165 C142 0.929 1_554 S
H166 C144 0.930 . S
H167 C145 0.929 . S
Nd168 C170 2.836 . S
Nd168 O188 2.500 . S
Nd168 O189 2.492 . S
Nd168 O190 2.487 . S
Nd168 O191 2.682 . S
Nd168 O192 2.410 . S
Nd168 O197 2.414 . S
Nd168 O199 2.424 . S
Nd169 C179 2.836 . S
Nd169 O191 2.414 . S
Nd169 O193 2.424 . S
Nd169 O194 2.500 . S
Nd169 O195 2.492 . S
Nd169 O196 2.487 . S
Nd169 O197 2.682 . S
Nd169 O198 2.410 . S
C170 Nd168 2.836 . S
C170 C171 1.498 . S
C170 O188 1.258 . S
C170 O189 1.239 . S
C171 C170 1.498 . S
C171 C172 1.366 . S
C171 C176 1.407 . S
C172 C171 1.366 . S
C172 C173 1.392 . S
C172 H200 0.930 . S
C173 C172 1.392 . S
C173 C174 1.398 . S
C173 H201 0.929 . S
C174 C173 1.398 . S
C174 C175 1.352 . S
C175 C174 1.352 . S
C175 C176 1.384 . S
C175 H202 0.930 . S
C176 C171 1.407 . S
C176 C175 1.384 . S
C176 H203 0.929 . S
C177 O190 1.241 . S
C177 O191 1.273 . S
C178 O192 1.251 . S
C178 O193 1.268 . S
C179 Nd169 2.836 . S
C179 C180 1.498 . S
C179 O194 1.258 . S
C179 O195 1.239 . S
C180 C179 1.498 . S
C180 C181 1.366 . S
C180 C185 1.407 . S
C181 C180 1.366 . S
C181 C182 1.392 . S
C181 H204 0.930 . S
C182 C181 1.392 . S
C182 C183 1.398 . S
C182 H205 0.929 . S
C183 C182 1.398 . S
C183 C184 1.352 . S
C184 C183 1.352 . S
C184 C185 1.384 . S
C184 H206 0.930 . S
C185 C180 1.407 . S
C185 C184 1.384 . S
C185 H207 0.929 . S
C186 O196 1.241 . S
C186 O197 1.273 . S
C187 O198 1.251 . S
C187 O199 1.268 . S
O188 Nd168 2.500 . S
O188 C170 1.258 . S
O189 Nd168 2.492 . S
O189 C170 1.239 . S
O190 Nd168 2.487 . S
O190 C177 1.241 . S
O191 Nd168 2.682 . S
O191 Nd169 2.414 . S
O191 C177 1.273 . S
O192 Nd168 2.410 . S
O192 C178 1.251 . S
O193 Nd169 2.424 . S
O193 C178 1.268 . S
O194 Nd169 2.500 . S
O194 C179 1.258 . S
O195 Nd169 2.492 . S
O195 C179 1.239 . S
O196 Nd169 2.487 . S
O196 C186 1.241 . S
O197 Nd168 2.414 . S
O197 Nd169 2.682 . S
O197 C186 1.273 . S
O198 Nd169 2.410 . S
O198 C187 1.251 . S
O199 Nd168 2.424 . S
O199 C187 1.268 . S
H200 C172 0.930 . S
H201 C173 0.929 . S
H202 C175 0.930 . S
H203 C176 0.929 . S
H204 C181 0.930 . S
H205 C182 0.929 . S
H206 C184 0.930 . S
H207 C185 0.929 . S
Nd208 C210 2.836 1_455 S
Nd208 O228 2.500 1_455 S
Nd208 O229 2.492 . S
Nd208 O230 2.487 . S
Nd208 O231 2.682 . S
Nd208 O232 2.410 . S
Nd208 O237 2.432 1_455 S
Nd208 O239 2.424 . S
Nd209 C219 2.836 . S
Nd209 O231 2.414 1_556 S
Nd209 O233 2.424 . S
Nd209 O234 2.500 . S
Nd209 O235 2.492 . S
Nd209 O236 2.487 1_455 S
Nd209 O237 2.669 1_456 S
Nd209 O238 2.410 . S
C210 Nd208 2.836 1_655 S
C210 C211 1.498 . S
C210 O228 1.258 . S
C210 O229 1.239 1_655 S
C211 C210 1.498 . S
C211 C212 1.366 . S
C211 C216 1.407 . S
C212 C211 1.366 . S
C212 C213 1.392 . S
C212 H240 0.930 . S
C213 C212 1.392 . S
C213 C214 1.398 . S
C213 H241 0.929 . S
C214 C213 1.398 . S
C214 C215 1.352 . S
C215 C214 1.352 . S
C215 C216 1.384 . S
C215 H242 0.930 . S
C216 C211 1.407 . S
C216 C215 1.384 . S
C216 H243 0.929 1_655 S
C217 O230 1.241 . S
C217 O231 1.273 . S
C218 O232 1.251 1_556 S
C218 O233 1.268 . S
C219 Nd209 2.836 . S
C219 C220 1.498 . S
C219 O234 1.258 . S
C219 O235 1.239 . S
C220 C219 1.498 . S
C220 C221 1.366 . S
C220 C225 1.407 . S
C221 C220 1.366 . S
C221 C222 1.392 . S
C221 H244 0.930 . S
C222 C221 1.392 . S
C222 C223 1.398 . S
C222 H245 0.929 . S
C223 C222 1.398 . S
C223 C224 1.352 . S
C224 C223 1.352 . S
C224 C225 1.384 . S
C224 H246 0.930 . S
C225 C220 1.407 . S
C225 C224 1.384 . S
C225 H247 0.929 . S
C226 O236 1.241 . S
C226 O237 1.258 1_556 S
C227 O238 1.251 1_554 S
C227 O239 1.268 . S
O228 Nd208 2.500 1_655 S
O228 C210 1.258 . S
O229 Nd208 2.492 . S
O229 C210 1.239 1_455 S
O230 Nd208 2.487 . S
O230 C217 1.241 . S
O231 Nd208 2.682 . S
O231 Nd209 2.414 1_554 S
O231 C217 1.273 . S
O232 Nd208 2.410 . S
O232 C218 1.251 1_554 S
O233 Nd209 2.424 . S
O233 C218 1.268 . S
O234 Nd209 2.500 . S
O234 C219 1.258 . S
O235 Nd209 2.492 . S
O235 C219 1.239 . S
O236 Nd209 2.487 1_655 S
O236 C226 1.241 . S
O237 Nd208 2.432 1_655 S
O237 Nd209 2.669 1_654 S
O237 C226 1.258 1_554 S
O238 Nd209 2.410 . S
O238 C227 1.251 1_556 S
O239 Nd208 2.424 . S
O239 C227 1.268 . S
H240 C212 0.930 . S
H241 C213 0.929 . S
H242 C215 0.930 . S
H243 C216 0.929 1_455 S
H244 C221 0.930 . S
H245 C222 0.929 . S
H246 C224 0.930 . S
H247 C225 0.929 . S
C248 C249 1.391 . S
C248 C250 1.394 . S
C248 H264 0.931 . S
C249 C248 1.391 . S
C249 C253 1.376 . S
C250 C248 1.394 . S
C250 C251 1.369 . S
C250 C254 1.531 . S
C251 C250 1.369 . S
C251 C252 1.410 . S
C251 C259 1.503 . S
C252 C251 1.410 . S
C252 C253 1.392 . S
C252 C255 1.511 . S
C253 C249 1.376 . S
C253 C252 1.392 . S
C253 H265 0.929 . S
C254 C250 1.531 . S
C254 H266 0.960 . S
C254 H267 0.962 . S
C254 H268 0.960 . S
C255 C252 1.511 . S
C255 H269 0.961 . S
C255 H270 0.961 . S
C255 H271 0.961 . S
C256 C257 1.370 . S
C256 C258 1.363 . S
C256 H272 0.931 . S
C257 C256 1.370 . S
C257 C261 1.408 . S
C258 C256 1.363 . S
C258 C259 1.370 . S
C258 C262 1.524 . S
C259 C251 1.503 . S
C259 C258 1.370 . S
C259 C260 1.403 . S
C260 C259 1.403 . S
C260 C261 1.404 . S
C260 C263 1.539 . S
C261 C257 1.408 . S
C261 C260 1.404 . S
C261 H273 0.930 . S
C262 C258 1.524 . S
C262 H274 0.956 . S
C262 H275 0.961 . S
C262 H276 0.961 . S
C263 C260 1.539 . S
C263 H277 0.958 . S
C263 H278 0.961 . S
C263 H279 0.960 . S
H264 C248 0.931 . S
H265 C253 0.929 . S
H266 C254 0.960 . S
H267 C254 0.962 . S
H268 C254 0.960 . S
H269 C255 0.961 . S
H270 C255 0.961 . S
H271 C255 0.961 . S
H272 C256 0.931 . S
H273 C261 0.930 . S
H274 C262 0.956 . S
H275 C262 0.961 . S
H276 C262 0.961 . S
H277 C263 0.958 . S
H278 C263 0.961 . S
H279 C263 0.960 . S
C280 C281 1.391 . S
C280 C282 1.394 . S
C280 H296 0.931 . S
C281 C280 1.391 . S
C281 C285 1.376 . S
C282 C280 1.394 . S
C282 C283 1.369 . S
C282 C286 1.531 . S
C283 C282 1.369 . S
C283 C284 1.410 . S
C283 C291 1.503 . S
C284 C283 1.410 . S
C284 C285 1.392 . S
C284 C287 1.511 . S
C285 C281 1.376 . S
C285 C284 1.392 . S
C285 H297 0.929 . S
C286 C282 1.531 . S
C286 H298 0.960 . S
C286 H299 0.962 . S
C286 H300 0.960 . S
C287 C284 1.511 . S
C287 H301 0.961 . S
C287 H302 0.961 . S
C287 H303 0.961 . S
C288 C289 1.370 . S
C288 C290 1.363 . S
C288 H304 0.931 . S
C289 C288 1.370 . S
C289 C293 1.408 . S
C290 C288 1.363 . S
C290 C291 1.370 . S
C290 C294 1.524 . S
C291 C283 1.503 . S
C291 C290 1.370 . S
C291 C292 1.403 . S
C292 C291 1.403 . S
C292 C293 1.404 . S
C292 C295 1.539 . S
C293 C289 1.408 . S
C293 C292 1.404 . S
C293 H305 0.930 1_556 S
C294 C290 1.524 . S
C294 H306 0.956 . S
C294 H307 0.961 . S
C294 H308 0.961 . S
C295 C292 1.539 . S
C295 H309 0.958 . S
C295 H310 0.961 1_556 S
C295 H311 0.960 . S
H296 C280 0.931 . S
H297 C285 0.929 . S
H298 C286 0.960 . S
H299 C286 0.962 . S
H300 C286 0.960 . S
H301 C287 0.961 . S
H302 C287 0.961 . S
H303 C287 0.961 . S
H304 C288 0.931 . S
H305 C293 0.930 1_554 S
H306 C294 0.956 . S
H307 C294 0.961 . S
H308 C294 0.961 . S
H309 C295 0.958 . S
H310 C295 0.961 1_554 S
H311 C295 0.960 . S
C312 C313 1.391 . S
C312 C314 1.394 . S
C312 H328 0.931 . S
C313 C312 1.391 . S
C313 C317 1.376 . S
C314 C312 1.394 . S
C314 C315 1.369 . S
C314 C318 1.531 . S
C315 C314 1.369 . S
C315 C316 1.410 . S
C315 C323 1.503 . S
C316 C315 1.410 . S
C316 C317 1.392 . S
C316 C319 1.511 . S
C317 C313 1.376 . S
C317 C316 1.392 . S
C317 H329 0.929 . S
C318 C314 1.531 . S
C318 H330 0.960 . S
C318 H331 0.962 . S
C318 H332 0.960 . S
C319 C316 1.511 . S
C319 H333 0.961 . S
C319 H334 0.961 . S
C319 H335 0.961 . S
C320 C321 1.370 . S
C320 C322 1.363 . S
C320 H336 0.931 . S
C321 C320 1.370 . S
C321 C325 1.408 . S
C322 C320 1.363 . S
C322 C323 1.370 . S
C322 C326 1.524 . S
C323 C315 1.503 . S
C323 C322 1.370 . S
C323 C324 1.403 . S
C324 C323 1.403 . S
C324 C325 1.404 . S
C324 C327 1.539 . S
C325 C321 1.408 . S
C325 C324 1.404 . S
C325 H337 0.930 . S
C326 C322 1.524 . S
C326 H338 0.956 . S
C326 H339 0.961 . S
C326 H340 0.961 . S
C327 C324 1.539 . S
C327 H341 0.958 . S
C327 H342 0.961 . S
C327 H343 0.960 . S
H328 C312 0.931 . S
H329 C317 0.929 . S
H330 C318 0.960 . S
H331 C318 0.962 . S
H332 C318 0.960 . S
H333 C319 0.961 . S
H334 C319 0.961 . S
H335 C319 0.961 . S
H336 C320 0.931 . S
H337 C325 0.930 . S
H338 C326 0.956 . S
H339 C326 0.961 . S
H340 C326 0.961 . S
H341 C327 0.958 . S
H342 C327 0.961 . S
H343 C327 0.960 . S
C344 C345 1.391 . S
C344 C346 1.394 . S
C344 H360 0.931 . S
C345 C344 1.391 . S
C345 C349 1.376 . S
C346 C344 1.394 . S
C346 C347 1.369 . S
C346 C350 1.531 . S
C347 C346 1.369 . S
C347 C348 1.410 . S
C347 C355 1.503 . S
C348 C347 1.410 . S
C348 C349 1.392 . S
C348 C351 1.511 . S
C349 C345 1.376 . S
C349 C348 1.392 . S
C349 H361 0.929 . S
C350 C346 1.531 . S
C350 H362 0.960 . S
C350 H363 0.962 . S
C350 H364 0.960 . S
C351 C348 1.511 . S
C351 H365 0.961 . S
C351 H366 0.961 . S
C351 H367 0.961 . S
C352 C353 1.370 . S
C352 C354 1.363 . S
C352 H368 0.931 . S
C353 C352 1.370 . S
C353 C357 1.408 . S
C354 C352 1.363 . S
C354 C355 1.370 . S
C354 C358 1.524 . S
C355 C347 1.503 . S
C355 C354 1.370 . S
C355 C356 1.403 . S
C356 C355 1.403 . S
C356 C357 1.404 . S
C356 C359 1.539 . S
C357 C353 1.408 . S
C357 C356 1.404 . S
C357 H369 0.930 . S
C358 C354 1.524 . S
C358 H370 0.956 . S
C358 H371 0.961 . S
C358 H372 0.961 . S
C359 C356 1.539 . S
C359 H373 0.958 . S
C359 H374 0.961 . S
C359 H375 0.960 . S
H360 C344 0.931 . S
H361 C349 0.929 . S
H362 C350 0.960 . S
H363 C350 0.962 . S
H364 C350 0.960 . S
H365 C351 0.961 . S
H366 C351 0.961 . S
H367 C351 0.961 . S
H368 C352 0.931 . S
H369 C357 0.930 . S
H370 C358 0.956 . S
H371 C358 0.961 . S
H372 C358 0.961 . S
H373 C359 0.958 . S
H374 C359 0.961 . S
H375 C359 0.960 . S
C376 C377 1.391 . S
C376 C378 1.394 . S
C376 H392 0.931 . S
C377 C376 1.391 . S
C377 C381 1.376 . S
C378 C376 1.394 . S
C378 C379 1.369 . S
C378 C382 1.531 . S
C379 C378 1.369 . S
C379 C380 1.410 . S
C379 C387 1.503 . S
C380 C379 1.410 . S
C380 C381 1.392 . S
C380 C383 1.511 . S
C381 C377 1.376 . S
C381 C380 1.392 . S
C381 H393 0.929 . S
C382 C378 1.531 . S
C382 H394 0.960 . S
C382 H395 0.962 . S
C382 H396 0.960 . S
C383 C380 1.511 . S
C383 H397 0.961 . S
C383 H398 0.961 . S
C383 H399 0.961 . S
C384 C385 1.370 . S
C384 C386 1.363 . S
C384 H400 0.931 . S
C385 C384 1.370 . S
C385 C389 1.408 . S
C386 C384 1.363 . S
C386 C387 1.370 . S
C386 C390 1.524 . S
C387 C379 1.503 . S
C387 C386 1.370 . S
C387 C388 1.403 . S
C388 C387 1.403 . S
C388 C389 1.404 . S
C388 C391 1.539 . S
C389 C385 1.408 . S
C389 C388 1.404 . S
C389 H401 0.930 . S
C390 C386 1.524 . S
C390 H402 0.956 . S
C390 H403 0.961 . S
C390 H404 0.961 . S
C391 C388 1.539 . S
C391 H405 0.958 . S
C391 H406 0.961 . S
C391 H407 0.960 . S
H392 C376 0.931 . S
H393 C381 0.929 . S
H394 C382 0.960 . S
H395 C382 0.962 . S
H396 C382 0.960 . S
H397 C383 0.961 . S
H398 C383 0.961 . S
H399 C383 0.961 . S
H400 C384 0.931 . S
H401 C389 0.930 . S
H402 C390 0.956 . S
H403 C390 0.961 . S
H404 C390 0.961 . S
H405 C391 0.958 . S
H406 C391 0.961 . S
H407 C391 0.960 . S
C408 C409 1.391 . S
C408 C410 1.394 . S
C408 H424 0.931 . S
C409 C408 1.391 . S
C409 C413 1.376 . S
C410 C408 1.394 . S
C410 C411 1.369 . S
C410 C414 1.531 . S
C411 C410 1.369 . S
C411 C412 1.410 . S
C411 C419 1.503 . S
C412 C411 1.410 . S
C412 C413 1.392 . S
C412 C415 1.511 . S
C413 C409 1.376 . S
C413 C412 1.392 . S
C413 H425 0.929 . S
C414 C410 1.531 . S
C414 H426 0.960 . S
C414 H427 0.962 . S
C414 H428 0.960 . S
C415 C412 1.511 . S
C415 H429 0.961 . S
C415 H430 0.961 . S
C415 H431 0.961 . S
C416 C417 1.370 . S
C416 C418 1.363 . S
C416 H432 0.931 . S
C417 C416 1.370 . S
C417 C421 1.408 . S
C418 C416 1.363 . S
C418 C419 1.370 . S
C418 C422 1.524 . S
C419 C411 1.503 . S
C419 C418 1.370 . S
C419 C420 1.403 . S
C420 C419 1.403 . S
C420 C421 1.404 . S
C420 C423 1.539 . S
C421 C417 1.408 . S
C421 C420 1.404 . S
C421 H433 0.930 . S
C422 C418 1.524 . S
C422 H434 0.956 . S
C422 H435 0.961 . S
C422 H436 0.961 . S
C423 C420 1.539 . S
C423 H437 0.958 . S
C423 H438 0.961 . S
C423 H439 0.960 . S
H424 C408 0.931 . S
H425 C413 0.929 . S
H426 C414 0.960 . S
H427 C414 0.962 . S
H428 C414 0.960 . S
H429 C415 0.961 . S
H430 C415 0.961 . S
H431 C415 0.961 . S
H432 C416 0.931 . S
H433 C421 0.930 . S
H434 C422 0.956 . S
H435 C422 0.961 . S
H436 C422 0.961 . S
H437 C423 0.958 . S
H438 C423 0.961 . S
H439 C423 0.960 . S
C440 C441 1.391 . S
C440 C442 1.394 . S
C440 H456 0.931 . S
C441 C440 1.391 . S
C441 C445 1.376 . S
C442 C440 1.394 . S
C442 C443 1.369 . S
C442 C446 1.531 . S
C443 C442 1.369 . S
C443 C444 1.410 . S
C443 C451 1.503 . S
C444 C443 1.410 . S
C444 C445 1.392 . S
C444 C447 1.511 . S
C445 C441 1.376 . S
C445 C444 1.392 . S
C445 H457 0.929 . S
C446 C442 1.531 . S
C446 H458 0.960 . S
C446 H459 0.962 . S
C446 H460 0.960 . S
C447 C444 1.511 . S
C447 H461 0.961 . S
C447 H462 0.961 . S
C447 H463 0.961 . S
C448 C449 1.370 . S
C448 C450 1.363 . S
C448 H464 0.931 . S
C449 C448 1.370 . S
C449 C453 1.408 . S
C450 C448 1.363 . S
C450 C451 1.370 . S
C450 C454 1.524 . S
C451 C443 1.503 . S
C451 C450 1.370 . S
C451 C452 1.403 . S
C452 C451 1.403 . S
C452 C453 1.404 . S
C452 C455 1.539 1_556 S
C453 C449 1.408 . S
C453 C452 1.404 . S
C453 H465 0.930 1_556 S
C454 C450 1.524 . S
C454 H466 0.956 . S
C454 H467 0.961 . S
C454 H468 0.961 . S
C455 C452 1.539 1_554 S
C455 H469 0.958 . S
C455 H470 0.961 . S
C455 H471 0.960 1_554 S
H456 C440 0.931 . S
H457 C445 0.929 . S
H458 C446 0.960 . S
H459 C446 0.962 . S
H460 C446 0.960 . S
H461 C447 0.961 . S
H462 C447 0.961 . S
H463 C447 0.961 . S
H464 C448 0.931 . S
H465 C453 0.930 1_554 S
H466 C454 0.956 . S
H467 C454 0.961 . S
H468 C454 0.961 . S
H469 C455 0.958 . S
H470 C455 0.961 . S
H471 C455 0.960 1_556 S
C472 C473 1.391 . S
C472 C474 1.394 . S
C472 H488 0.931 . S
C473 C472 1.391 . S
C473 C477 1.376 . S
C474 C472 1.394 . S
C474 C475 1.369 . S
C474 C478 1.531 . S
C475 C474 1.369 . S
C475 C476 1.410 . S
C475 C483 1.503 . S
C476 C475 1.410 . S
C476 C477 1.392 . S
C476 C479 1.511 . S
C477 C473 1.376 . S
C477 C476 1.392 . S
C477 H489 0.929 . S
C478 C474 1.531 . S
C478 H490 0.960 . S
C478 H491 0.962 . S
C478 H492 0.960 . S
C479 C476 1.511 . S
C479 H493 0.961 . S
C479 H494 0.961 . S
C479 H495 0.961 . S
C480 C481 1.370 . S
C480 C482 1.363 . S
C480 H496 0.931 . S
C481 C480 1.370 . S
C481 C485 1.408 . S
C482 C480 1.363 . S
C482 C483 1.370 . S
C482 C486 1.524 . S
C483 C475 1.503 . S
C483 C482 1.370 . S
C483 C484 1.403 . S
C484 C483 1.403 . S
C484 C485 1.404 . S
C484 C487 1.539 . S
C485 C481 1.408 . S
C485 C484 1.404 . S
C485 H497 0.930 . S
C486 C482 1.524 . S
C486 H498 0.956 . S
C486 H499 0.961 . S
C486 H500 0.961 . S
C487 C484 1.539 . S
C487 H501 0.958 . S
C487 H502 0.961 . S
C487 H503 0.960 . S
H488 C472 0.931 . S
H489 C477 0.929 . S
H490 C478 0.960 . S
H491 C478 0.962 . S
H492 C478 0.960 . S
H493 C479 0.961 . S
H494 C479 0.961 . S
H495 C479 0.961 . S
H496 C480 0.931 . S
H497 C485 0.930 . S
H498 C486 0.956 . S
H499 C486 0.961 . S
H500 C486 0.961 . S
H501 C487 0.958 . S
H502 C487 0.961 . S
H503 C487 0.960 . S
C504 C505 1.391 . S
C504 C506 1.394 . S
C504 H520 0.931 . S
C505 C504 1.391 . S
C505 C509 1.376 . S
C506 C504 1.394 . S
C506 C507 1.369 . S
C506 C510 1.531 . S
C507 C506 1.369 . S
C507 C508 1.410 . S
C507 C515 1.503 . S
C508 C507 1.410 . S
C508 C509 1.392 . S
C508 C511 1.511 . S
C509 C505 1.376 . S
C509 C508 1.392 . S
C509 H521 0.929 . S
C510 C506 1.531 . S
C510 H522 0.960 . S
C510 H523 0.962 . S
C510 H524 0.960 1_554 S
C511 C508 1.511 . S
C511 H525 0.961 . S
C511 H526 0.961 . S
C511 H527 0.961 . S
C512 C513 1.370 . S
C512 C514 1.363 . S
C512 H528 0.931 . S
C513 C512 1.370 . S
C513 C517 1.408 . S
C514 C512 1.363 . S
C514 C515 1.370 . S
C514 C518 1.524 . S
C515 C507 1.503 . S
C515 C514 1.370 . S
C515 C516 1.403 . S
C516 C515 1.403 . S
C516 C517 1.404 . S
C516 C519 1.539 . S
C517 C513 1.408 . S
C517 C516 1.404 . S
C517 H529 0.930 . S
C518 C514 1.524 . S
C518 H530 0.956 . S
C518 H531 0.961 . S
C518 H532 0.961 . S
C519 C516 1.539 . S
C519 H533 0.958 1_554 S
C519 H534 0.961 . S
C519 H535 0.960 . S
H520 C504 0.931 . S
H521 C509 0.929 . S
H522 C510 0.960 . S
H523 C510 0.962 . S
H524 C510 0.960 1_556 S
H525 C511 0.961 . S
H526 C511 0.961 . S
H527 C511 0.961 . S
H528 C512 0.931 . S
H529 C517 0.930 . S
H530 C518 0.956 . S
H531 C518 0.961 . S
H532 C518 0.961 . S
H533 C519 0.958 1_556 S
H534 C519 0.961 . S
H535 C519 0.960 . S
C536 C537 1.391 . S
C536 C538 1.394 . S
C536 H552 0.931 . S
C537 C536 1.391 . S
C537 C541 1.376 . S
C538 C536 1.394 . S
C538 C539 1.369 . S
C538 C542 1.531 . S
C539 C538 1.369 . S
C539 C540 1.410 . S
C539 C547 1.503 . S
C540 C539 1.410 . S
C540 C541 1.392 . S
C540 C543 1.511 . S
C541 C537 1.376 . S
C541 C540 1.392 . S
C541 H553 0.929 . S
C542 C538 1.531 . S
C542 H554 0.960 . S
C542 H555 0.962 . S
C542 H556 0.960 . S
C543 C540 1.511 . S
C543 H557 0.961 . S
C543 H558 0.961 . S
C543 H559 0.961 . S
C544 C545 1.370 . S
C544 C546 1.363 . S
C544 H560 0.931 . S
C545 C544 1.370 . S
C545 C549 1.408 . S
C546 C544 1.363 . S
C546 C547 1.370 . S
C546 C550 1.524 . S
C547 C539 1.503 . S
C547 C546 1.370 . S
C547 C548 1.403 . S
C548 C547 1.403 . S
C548 C549 1.404 . S
C548 C551 1.539 . S
C549 C545 1.408 . S
C549 C548 1.404 . S
C549 H561 0.930 . S
C550 C546 1.524 . S
C550 H562 0.956 . S
C550 H563 0.961 . S
C550 H564 0.961 1_556 S
C551 C548 1.539 . S
C551 H565 0.958 . S
C551 H566 0.961 . S
C551 H567 0.960 . S
H552 C536 0.931 . S
H553 C541 0.929 . S
H554 C542 0.960 . S
H555 C542 0.962 . S
H556 C542 0.960 . S
H557 C543 0.961 . S
H558 C543 0.961 . S
H559 C543 0.961 . S
H560 C544 0.931 . S
H561 C549 0.930 . S
H562 C550 0.956 . S
H563 C550 0.961 . S
H564 C550 0.961 1_554 S
H565 C551 0.958 . S
H566 C551 0.961 . S
H567 C551 0.960 . S
C568 C569 1.391 . S
C568 C570 1.394 . S
C568 H584 0.931 . S
C569 C568 1.391 . S
C569 C573 1.376 . S
C570 C568 1.394 . S
C570 C571 1.369 . S
C570 C574 1.531 . S
C571 C570 1.369 . S
C571 C572 1.410 . S
C571 C579 1.503 . S
C572 C571 1.410 . S
C572 C573 1.392 . S
C572 C575 1.511 . S
C573 C569 1.376 . S
C573 C572 1.392 . S
C573 H585 0.929 . S
C574 C570 1.531 . S
C574 H586 0.960 . S
C574 H587 0.962 . S
C574 H588 0.960 . S
C575 C572 1.511 . S
C575 H589 0.961 . S
C575 H590 0.961 . S
C575 H591 0.961 . S
C576 C577 1.370 . S
C576 C578 1.363 . S
C576 H592 0.931 . S
C577 C576 1.370 . S
C577 C581 1.408 . S
C578 C576 1.363 . S
C578 C579 1.370 . S
C578 C582 1.524 . S
C579 C571 1.503 . S
C579 C578 1.370 . S
C579 C580 1.403 . S
C580 C579 1.403 . S
C580 C581 1.404 . S
C580 C583 1.539 . S
C581 C577 1.408 . S
C581 C580 1.404 . S
C581 H593 0.930 . S
C582 C578 1.524 . S
C582 H594 0.956 . S
C582 H595 0.961 . S
C582 H596 0.961 . S
C583 C580 1.539 . S
C583 H597 0.958 . S
C583 H598 0.961 . S
C583 H599 0.960 . S
H584 C568 0.931 . S
H585 C573 0.929 . S
H586 C574 0.960 . S
H587 C574 0.962 . S
H588 C574 0.960 . S
H589 C575 0.961 . S
H590 C575 0.961 . S
H591 C575 0.961 . S
H592 C576 0.931 . S
H593 C581 0.930 . S
H594 C582 0.956 . S
H595 C582 0.961 . S
H596 C582 0.961 . S
H597 C583 0.958 . S
H598 C583 0.961 . S
H599 C583 0.960 . S
C600 C601 1.391 . S
C600 C602 1.394 . S
C600 H616 0.931 . S
C601 C600 1.391 . S
C601 C605 1.376 . S
C602 C600 1.394 . S
C602 C603 1.369 . S
C602 C606 1.531 . S
C603 C602 1.369 . S
C603 C604 1.410 . S
C603 C611 1.503 . S
C604 C603 1.410 . S
C604 C605 1.392 . S
C604 C607 1.511 . S
C605 C601 1.376 . S
C605 C604 1.392 . S
C605 H617 0.929 . S
C606 C602 1.531 . S
C606 H618 0.960 . S
C606 H619 0.962 . S
C606 H620 0.960 . S
C607 C604 1.511 . S
C607 H621 0.961 . S
C607 H622 0.961 . S
C607 H623 0.961 . S
C608 C609 1.370 . S
C608 C610 1.363 . S
C608 H624 0.931 . S
C609 C608 1.370 . S
C609 C613 1.408 . S
C610 C608 1.363 . S
C610 C611 1.370 . S
C610 C614 1.524 . S
C611 C603 1.503 . S
C611 C610 1.370 . S
C611 C612 1.403 . S
C612 C611 1.403 . S
C612 C613 1.404 . S
C612 C615 1.539 . S
C613 C609 1.408 . S
C613 C612 1.404 . S
C613 H625 0.930 . S
C614 C610 1.524 . S
C614 H626 0.956 . S
C614 H627 0.961 . S
C614 H628 0.961 . S
C615 C612 1.539 . S
C615 H629 0.958 . S
C615 H630 0.961 . S
C615 H631 0.960 . S
H616 C600 0.931 . S
H617 C605 0.929 . S
H618 C606 0.960 . S
H619 C606 0.962 . S
H620 C606 0.960 . S
H621 C607 0.961 . S
H622 C607 0.961 . S
H623 C607 0.961 . S
H624 C608 0.931 . S
H625 C613 0.930 . S
H626 C614 0.956 . S
H627 C614 0.961 . S
H628 C614 0.961 . S
H629 C615 0.958 . S
H630 C615 0.961 . S
H631 C615 0.960 . S
C632 C633 1.391 . S
C632 C634 1.394 . S
C632 H648 0.931 . S
C633 C632 1.391 . S
C633 C637 1.376 . S
C634 C632 1.394 . S
C634 C635 1.369 . S
C634 C638 1.531 . S
C635 C634 1.369 . S
C635 C636 1.410 . S
C635 C643 1.503 . S
C636 C635 1.410 . S
C636 C637 1.392 . S
C636 C639 1.511 . S
C637 C633 1.376 . S
C637 C636 1.392 . S
C637 H649 0.929 . S
C638 C634 1.531 . S
C638 H650 0.960 . S
C638 H651 0.962 . S
C638 H652 0.960 . S
C639 C636 1.511 . S
C639 H653 0.961 . S
C639 H654 0.961 . S
C639 H655 0.960 . S
C640 C641 1.370 . S
C640 C642 1.363 . S
C640 H656 0.931 . S
C641 C640 1.370 . S
C641 C645 1.408 . S
C642 C640 1.363 . S
C642 C643 1.370 . S
C642 C646 1.524 . S
C643 C635 1.503 . S
C643 C642 1.370 . S
C643 C644 1.403 . S
C644 C643 1.403 . S
C644 C645 1.404 . S
C644 C647 1.539 . S
C645 C641 1.408 . S
C645 C644 1.404 . S
C645 H657 0.930 1_565 S
C646 C642 1.524 . S
C646 H658 0.956 . S
C646 H659 0.961 . S
C646 H660 0.961 . S
C647 C644 1.539 . S
C647 H661 0.958 1_565 S
C647 H662 0.961 1_565 S
C647 H663 0.960 . S
H648 C632 0.931 . S
H649 C637 0.929 . S
H650 C638 0.960 . S
H651 C638 0.962 . S
H652 C638 0.960 . S
H653 C639 0.961 . S
H654 C639 0.961 . S
H655 C639 0.960 . S
H656 C640 0.931 . S
H657 C645 0.930 1_545 S
H658 C646 0.956 . S
H659 C646 0.961 . S
H660 C646 0.961 . S
H661 C647 0.958 1_545 S
H662 C647 0.961 1_545 S
H663 C647 0.960 . S
C664 C665 1.391 . S
C664 C666 1.394 . S
C664 H680 0.931 . S
C665 C664 1.391 . S
C665 C669 1.376 . S
C666 C664 1.394 . S
C666 C667 1.369 . S
C666 C670 1.531 . S
C667 C666 1.369 . S
C667 C668 1.410 . S
C667 C675 1.503 . S
C668 C667 1.410 . S
C668 C669 1.392 . S
C668 C671 1.511 . S
C669 C665 1.376 . S
C669 C668 1.392 . S
C669 H681 0.929 . S
C670 C666 1.531 . S
C670 H682 0.960 . S
C670 H683 0.962 . S
C670 H684 0.960 . S
C671 C668 1.511 . S
C671 H685 0.961 . S
C671 H686 0.961 . S
C671 H687 0.961 . S
C672 C673 1.370 . S
C672 C674 1.363 . S
C672 H688 0.931 . S
C673 C672 1.370 . S
C673 C677 1.408 . S
C674 C672 1.363 . S
C674 C675 1.370 . S
C674 C678 1.524 . S
C675 C667 1.503 . S
C675 C674 1.370 . S
C675 C676 1.403 . S
C676 C675 1.403 . S
C676 C677 1.404 . S
C676 C679 1.539 . S
C677 C673 1.408 . S
C677 C676 1.404 . S
C677 H689 0.930 . S
C678 C674 1.524 . S
C678 H690 0.956 . S
C678 H691 0.961 . S
C678 H692 0.961 . S
C679 C676 1.539 . S
C679 H693 0.958 . S
C679 H694 0.961 . S
C679 H695 0.960 . S
H680 C664 0.931 . S
H681 C669 0.929 . S
H682 C670 0.960 . S
H683 C670 0.962 . S
H684 C670 0.960 . S
H685 C671 0.961 . S
H686 C671 0.961 . S
H687 C671 0.961 . S
H688 C672 0.931 . S
H689 C677 0.930 . S
H690 C678 0.956 . S
H691 C678 0.961 . S
H692 C678 0.961 . S
H693 C679 0.958 . S
H694 C679 0.961 . S
H695 C679 0.960 . S
C696 C697 1.391 . S
C696 C698 1.394 . S
C696 H712 0.931 . S
C697 C696 1.391 . S
C697 C701 1.376 . S
C698 C696 1.394 . S
C698 C699 1.369 . S
C698 C702 1.531 . S
C699 C698 1.369 . S
C699 C700 1.410 . S
C699 C707 1.503 . S
C700 C699 1.410 . S
C700 C701 1.392 . S
C700 C703 1.511 . S
C701 C697 1.376 . S
C701 C700 1.392 . S
C701 H713 0.929 . S
C702 C698 1.531 . S
C702 H714 0.960 . S
C702 H715 0.962 . S
C702 H716 0.960 . S
C703 C700 1.511 . S
C703 H717 0.961 . S
C703 H718 0.961 . S
C703 H719 0.961 . S
C704 C705 1.370 . S
C704 C706 1.363 . S
C704 H720 0.931 . S
C705 C704 1.370 . S
C705 C709 1.408 . S
C706 C704 1.363 . S
C706 C707 1.370 . S
C706 C710 1.524 . S
C707 C699 1.503 . S
C707 C706 1.370 . S
C707 C708 1.403 . S
C708 C707 1.403 . S
C708 C709 1.404 . S
C708 C711 1.539 . S
C709 C705 1.408 . S
C709 C708 1.404 . S
C709 H721 0.930 . S
C710 C706 1.524 . S
C710 H722 0.956 . S
C710 H723 0.961 . S
C710 H724 0.961 . S
C711 C708 1.539 . S
C711 H725 0.958 . S
C711 H726 0.961 . S
C711 H727 0.960 . S
H712 C696 0.931 . S
H713 C701 0.929 . S
H714 C702 0.960 . S
H715 C702 0.962 . S
H716 C702 0.960 . S
H717 C703 0.961 . S
H718 C703 0.961 . S
H719 C703 0.961 . S
H720 C704 0.931 . S
H721 C709 0.930 . S
H722 C710 0.956 . S
H723 C710 0.961 . S
H724 C710 0.961 . S
H725 C711 0.958 . S
H726 C711 0.961 . S
H727 C711 0.960 . S
C728 C729 1.391 . S
C728 C730 1.394 . S
C728 H744 0.931 . S
C729 C728 1.391 . S
C729 C733 1.376 . S
C730 C728 1.394 . S
C730 C731 1.369 . S
C730 C734 1.531 . S
C731 C730 1.369 . S
C731 C732 1.410 . S
C731 C739 1.503 . S
C732 C731 1.410 . S
C732 C733 1.392 . S
C732 C735 1.511 . S
C733 C729 1.376 . S
C733 C732 1.392 . S
C733 H745 0.929 . S
C734 C730 1.531 . S
C734 H746 0.960 . S
C734 H747 0.962 . S
C734 H748 0.960 . S
C735 C732 1.511 . S
C735 H749 0.961 . S
C735 H750 0.961 . S
C735 H751 0.961 . S
C736 C737 1.370 . S
C736 C738 1.363 . S
C736 H752 0.931 . S
C737 C736 1.370 . S
C737 C741 1.408 . S
C738 C736 1.363 . S
C738 C739 1.370 . S
C738 C742 1.524 . S
C739 C731 1.503 . S
C739 C738 1.370 . S
C739 C740 1.403 . S
C740 C739 1.403 . S
C740 C741 1.404 . S
C740 C743 1.539 . S
C741 C737 1.408 . S
C741 C740 1.404 . S
C741 H753 0.930 . S
C742 C738 1.524 . S
C742 H754 0.956 . S
C742 H755 0.961 . S
C742 H756 0.961 . S
C743 C740 1.539 . S
C743 H757 0.958 . S
C743 H758 0.961 . S
C743 H759 0.960 . S
H744 C728 0.931 . S
H745 C733 0.929 . S
H746 C734 0.960 . S
H747 C734 0.962 . S
H748 C734 0.960 . S
H749 C735 0.961 . S
H750 C735 0.961 . S
H751 C735 0.961 . S
H752 C736 0.931 . S
H753 C741 0.930 . S
H754 C742 0.956 . S
H755 C742 0.961 . S
H756 C742 0.961 . S
H757 C743 0.958 . S
H758 C743 0.961 . S
H759 C743 0.960 . S
C760 C761 1.391 . S
C760 C762 1.394 . S
C760 H776 0.931 . S
C761 C760 1.391 . S
C761 C765 1.376 . S
C762 C760 1.394 . S
C762 C763 1.369 . S
C762 C766 1.531 . S
C763 C762 1.369 . S
C763 C764 1.410 . S
C763 C771 1.503 . S
C764 C763 1.410 . S
C764 C765 1.392 . S
C764 C767 1.511 . S
C765 C761 1.376 . S
C765 C764 1.392 . S
C765 H777 0.929 . S
C766 C762 1.531 . S
C766 H778 0.960 . S
C766 H779 0.962 1_565 S
C766 H780 0.960 . S
C767 C764 1.511 . S
C767 H781 0.961 . S
C767 H782 0.961 1_556 S
C767 H783 0.961 . S
C768 C769 1.370 . S
C768 C770 1.363 . S
C768 H784 0.931 . S
C769 C768 1.370 . S
C769 C773 1.408 1_554 S
C770 C768 1.363 . S
C770 C771 1.370 1_554 S
C770 C774 1.524 . S
C771 C763 1.503 . S
C771 C770 1.370 1_556 S
C771 C772 1.403 . S
C772 C771 1.403 . S
C772 C773 1.404 . S
C772 C775 1.539 . S
C773 C769 1.408 1_556 S
C773 C772 1.404 . S
C773 H785 0.930 . S
C774 C770 1.524 . S
C774 H786 0.956 . S
C774 H787 0.961 . S
C774 H788 0.961 . S
C775 C772 1.539 . S
C775 H789 0.958 . S
C775 H790 0.961 . S
C775 H791 0.960 . S
H776 C760 0.931 . S
H777 C765 0.929 . S
H778 C766 0.960 . S
H779 C766 0.962 1_545 S
H780 C766 0.960 . S
H781 C767 0.961 . S
H782 C767 0.961 1_554 S
H783 C767 0.961 . S
H784 C768 0.931 . S
H785 C773 0.930 . S
H786 C774 0.956 . S
H787 C774 0.961 . S
H788 C774 0.961 . S
H789 C775 0.958 . S
H790 C775 0.961 . S
H791 C775 0.960 . S
C792 C793 1.391 . S
C792 C794 1.394 . S
C792 H808 0.931 . S
C793 C792 1.391 . S
C793 C797 1.376 . S
C794 C792 1.394 . S
C794 C795 1.369 . S
C794 C798 1.531 . S
C795 C794 1.369 . S
C795 C796 1.410 . S
C795 C803 1.503 . S
C796 C795 1.410 . S
C796 C797 1.392 . S
C796 C799 1.511 . S
C797 C793 1.376 . S
C797 C796 1.392 . S
C797 H809 0.929 . S
C798 C794 1.531 . S
C798 H810 0.960 . S
C798 H811 0.962 . S
C798 H812 0.960 . S
C799 C796 1.511 . S
C799 H813 0.961 . S
C799 H814 0.961 . S
C799 H815 0.961 . S
C800 C801 1.370 . S
C800 C802 1.363 . S
C800 H816 0.931 . S
C801 C800 1.370 . S
C801 C805 1.408 . S
C802 C800 1.363 . S
C802 C803 1.370 . S
C802 C806 1.524 . S
C803 C795 1.503 . S
C803 C802 1.370 . S
C803 C804 1.403 . S
C804 C803 1.403 . S
C804 C805 1.404 . S
C804 C807 1.539 . S
C805 C801 1.408 . S
C805 C804 1.404 . S
C805 H817 0.930 . S
C806 C802 1.524 . S
C806 H818 0.956 . S
C806 H819 0.961 . S
C806 H820 0.961 . S
C807 C804 1.539 . S
C807 H821 0.958 . S
C807 H822 0.961 . S
C807 H823 0.960 . S
H808 C792 0.931 . S
H809 C797 0.929 . S
H810 C798 0.960 . S
H811 C798 0.962 . S
H812 C798 0.960 . S
H813 C799 0.961 . S
H814 C799 0.961 . S
H815 C799 0.961 . S
H816 C800 0.931 . S
H817 C805 0.930 . S
H818 C806 0.956 . S
H819 C806 0.961 . S
H820 C806 0.961 . S
H821 C807 0.958 . S
H822 C807 0.961 . S
H823 C807 0.960 . S
C824 C825 1.391 . S
C824 C826 1.394 . S
C824 H840 0.931 . S
C825 C824 1.391 . S
C825 C829 1.376 . S
C826 C824 1.394 . S
C826 C827 1.369 . S
C826 C830 1.531 . S
C827 C826 1.369 . S
C827 C828 1.410 . S
C827 C835 1.503 . S
C828 C827 1.410 . S
C828 C829 1.392 . S
C828 C831 1.511 . S
C829 C825 1.376 . S
C829 C828 1.392 . S
C829 H841 0.929 . S
C830 C826 1.531 . S
C830 H842 0.960 . S
C830 H843 0.962 . S
C830 H844 0.960 . S
C831 C828 1.511 . S
C831 H845 0.961 . S
C831 H846 0.961 . S
C831 H847 0.961 . S
C832 C833 1.370 . S
C832 C834 1.363 . S
C832 H848 0.931 . S
C833 C832 1.370 . S
C833 C837 1.408 . S
C834 C832 1.363 . S
C834 C835 1.370 . S
C834 C838 1.524 . S
C835 C827 1.503 . S
C835 C834 1.370 . S
C835 C836 1.403 . S
C836 C835 1.403 . S
C836 C837 1.404 . S
C836 C839 1.539 . S
C837 C833 1.408 . S
C837 C836 1.404 . S
C837 H849 0.930 . S
C838 C834 1.524 . S
C838 H850 0.956 . S
C838 H851 0.961 . S
C838 H852 0.961 . S
C839 C836 1.539 . S
C839 H853 0.958 . S
C839 H854 0.961 . S
C839 H855 0.960 . S
H840 C824 0.931 . S
H841 C829 0.929 . S
H842 C830 0.960 . S
H843 C830 0.962 . S
H844 C830 0.960 . S
H845 C831 0.961 . S
H846 C831 0.961 . S
H847 C831 0.961 . S
H848 C832 0.931 . S
H849 C837 0.930 . S
H850 C838 0.956 . S
H851 C838 0.961 . S
H852 C838 0.961 . S
H853 C839 0.958 . S
H854 C839 0.961 . S
H855 C839 0.960 . S
C856 C857 1.391 . S
C856 C858 1.394 . S
C856 H872 0.931 . S
C857 C856 1.391 . S
C857 C861 1.376 . S
C858 C856 1.394 . S
C858 C859 1.369 . S
C858 C862 1.531 . S
C859 C858 1.369 . S
C859 C860 1.410 . S
C859 C867 1.503 . S
C860 C859 1.410 . S
C860 C861 1.392 . S
C860 C863 1.511 . S
C861 C857 1.376 . S
C861 C860 1.392 . S
C861 H873 0.929 . S
C862 C858 1.531 . S
C862 H874 0.960 . S
C862 H875 0.962 . S
C862 H876 0.960 . S
C863 C860 1.511 . S
C863 H877 0.961 . S
C863 H878 0.961 . S
C863 H879 0.961 . S
C864 C865 1.370 . S
C864 C866 1.363 . S
C864 H880 0.931 . S
C865 C864 1.370 . S
C865 C869 1.408 . S
C866 C864 1.363 . S
C866 C867 1.370 . S
C866 C870 1.524 . S
C867 C859 1.503 . S
C867 C866 1.370 . S
C867 C868 1.403 . S
C868 C867 1.403 . S
C868 C869 1.404 . S
C868 C871 1.539 . S
C869 C865 1.408 . S
C869 C868 1.404 . S
C869 H881 0.930 . S
C870 C866 1.524 . S
C870 H882 0.956 . S
C870 H883 0.961 . S
C870 H884 0.961 . S
C871 C868 1.539 . S
C871 H885 0.958 . S
C871 H886 0.961 . S
C871 H887 0.960 . S
H872 C856 0.931 . S
H873 C861 0.929 . S
H874 C862 0.960 . S
H875 C862 0.962 . S
H876 C862 0.960 . S
H877 C863 0.961 . S
H878 C863 0.961 . S
H879 C863 0.961 . S
H880 C864 0.931 . S
H881 C869 0.930 . S
H882 C870 0.956 . S
H883 C870 0.961 . S
H884 C870 0.961 . S
H885 C871 0.958 . S
H886 C871 0.961 . S
H887 C871 0.960 . S
C888 C889 1.391 . S
C888 C890 1.394 . S
C888 H904 0.931 . S
C889 C888 1.391 . S
C889 C893 1.376 . S
C890 C888 1.394 . S
C890 C891 1.369 . S
C890 C894 1.531 1_556 S
C891 C890 1.369 . S
C891 C892 1.410 . S
C891 C899 1.503 . S
C892 C891 1.410 . S
C892 C893 1.392 . S
C892 C895 1.511 . S
C893 C889 1.376 . S
C893 C892 1.392 . S
C893 H905 0.929 . S
C894 C890 1.531 1_554 S
C894 H906 0.960 . S
C894 H907 0.962 . S
C894 H908 0.960 . S
C895 C892 1.511 . S
C895 H909 0.961 . S
C895 H910 0.961 . S
C895 H911 0.961 . S
C896 C897 1.370 . S
C896 C898 1.363 . S
C896 H912 0.931 1_655 S
C897 C896 1.370 . S
C897 C901 1.408 . S
C898 C896 1.363 . S
C898 C899 1.370 . S
C898 C902 1.524 . S
C899 C891 1.503 . S
C899 C898 1.370 . S
C899 C900 1.403 . S
C900 C899 1.403 . S
C900 C901 1.404 . S
C900 C903 1.539 . S
C901 C897 1.408 . S
C901 C900 1.404 . S
C901 H913 0.930 1_556 S
C902 C898 1.524 . S
C902 H914 0.956 . S
C902 H915 0.961 . S
C902 H916 0.961 1_655 S
C903 C900 1.539 . S
C903 H917 0.958 1_556 S
C903 H918 0.961 . S
C903 H919 0.960 . S
H904 C888 0.931 . S
H905 C893 0.929 . S
H906 C894 0.960 . S
H907 C894 0.962 . S
H908 C894 0.960 . S
H909 C895 0.961 . S
H910 C895 0.961 . S
H911 C895 0.961 . S
H912 C896 0.931 1_455 S
H913 C901 0.930 1_554 S
H914 C902 0.956 . S
H915 C902 0.961 . S
H916 C902 0.961 1_455 S
H917 C903 0.958 1_554 S
H918 C903 0.961 . S
H919 C903 0.960 . S
C920 C921 1.391 . S
C920 C922 1.394 . S
C920 H936 0.931 . S
C921 C920 1.391 . S
C921 C925 1.376 . S
C922 C920 1.394 . S
C922 C923 1.369 . S
C922 C926 1.531 . S
C923 C922 1.369 . S
C923 C924 1.410 . S
C923 C931 1.503 . S
C924 C923 1.410 . S
C924 C925 1.392 . S
C924 C927 1.511 . S
C925 C921 1.376 . S
C925 C924 1.392 . S
C925 H937 0.929 . S
C926 C922 1.531 . S
C926 H938 0.960 . S
C926 H939 0.962 . S
C926 H940 0.960 . S
C927 C924 1.511 . S
C927 H941 0.961 . S
C927 H942 0.961 . S
C927 H943 0.961 . S
C928 C929 1.370 . S
C928 C930 1.363 . S
C928 H944 0.931 . S
C929 C928 1.370 . S
C929 C933 1.408 . S
C930 C928 1.363 . S
C930 C931 1.370 . S
C930 C934 1.524 . S
C931 C923 1.503 . S
C931 C930 1.370 . S
C931 C932 1.403 . S
C932 C931 1.403 . S
C932 C933 1.404 . S
C932 C935 1.539 . S
C933 C929 1.408 . S
C933 C932 1.404 . S
C933 H945 0.930 . S
C934 C930 1.524 . S
C934 H946 0.956 . S
C934 H947 0.961 . S
C934 H948 0.961 . S
C935 C932 1.539 . S
C935 H949 0.958 . S
C935 H950 0.961 . S
C935 H951 0.960 . S
H936 C920 0.931 . S
H937 C925 0.929 . S
H938 C926 0.960 . S
H939 C926 0.962 . S
H940 C926 0.960 . S
H941 C927 0.961 . S
H942 C927 0.961 . S
H943 C927 0.961 . S
H944 C928 0.931 . S
H945 C933 0.930 . S
H946 C934 0.956 . S
H947 C934 0.961 . S
H948 C934 0.961 . S
H949 C935 0.958 . S
H950 C935 0.961 . S
H951 C935 0.960 . S
C952 C953 1.391 . S
C952 C954 1.394 . S
C952 H968 0.931 . S
C953 C952 1.391 . S
C953 C957 1.376 . S
C954 C952 1.394 . S
C954 C955 1.369 . S
C954 C958 1.531 . S
C955 C954 1.369 . S
C955 C956 1.410 . S
C955 C963 1.503 . S
C956 C955 1.410 . S
C956 C957 1.392 . S
C956 C959 1.511 . S
C957 C953 1.376 . S
C957 C956 1.392 . S
C957 H969 0.929 . S
C958 C954 1.531 . S
C958 H970 0.960 . S
C958 H971 0.962 . S
C958 H972 0.960 . S
C959 C956 1.511 . S
C959 H973 0.961 . S
C959 H974 0.961 . S
C959 H975 0.961 . S
C960 C961 1.370 . S
C960 C962 1.363 . S
C960 H976 0.931 . S
C961 C960 1.370 . S
C961 C965 1.408 . S
C962 C960 1.363 . S
C962 C963 1.370 . S
C962 C966 1.524 . S
C963 C955 1.503 . S
C963 C962 1.370 . S
C963 C964 1.403 . S
C964 C963 1.403 . S
C964 C965 1.404 . S
C964 C967 1.539 . S
C965 C961 1.408 . S
C965 C964 1.404 . S
C965 H977 0.930 . S
C966 C962 1.524 . S
C966 H978 0.956 . S
C966 H979 0.961 . S
C966 H980 0.961 . S
C967 C964 1.539 . S
C967 H981 0.958 . S
C967 H982 0.961 . S
C967 H983 0.960 . S
H968 C952 0.931 . S
H969 C957 0.929 . S
H970 C958 0.960 . S
H971 C958 0.962 . S
H972 C958 0.960 . S
H973 C959 0.961 . S
H974 C959 0.961 . S
H975 C959 0.961 . S
H976 C960 0.931 . S
H977 C965 0.930 . S
H978 C966 0.956 . S
H979 C966 0.961 . S
H980 C966 0.961 . S
H981 C967 0.958 . S
H982 C967 0.961 . S
H983 C967 0.960 . S
C984 C985 1.391 . S
C984 C986 1.394 . S
C984 H1000 0.931 . S
C985 C984 1.391 . S
C985 C989 1.376 . S
C986 C984 1.394 . S
C986 C987 1.369 . S
C986 C990 1.531 . S
C987 C986 1.369 . S
C987 C988 1.410 . S
C987 C995 1.503 . S
C988 C987 1.410 . S
C988 C989 1.392 . S
C988 C991 1.511 . S
C989 C985 1.376 . S
C989 C988 1.392 . S
C989 H1001 0.929 . S
C990 C986 1.531 . S
C990 H1002 0.960 . S
C990 H1003 0.962 . S
C990 H1004 0.960 . S
C991 C988 1.511 . S
C991 H1005 0.961 . S
C991 H1006 0.961 . S
C991 H1007 0.961 . S
C992 C993 1.370 . S
C992 C994 1.363 . S
C992 H1008 0.931 . S
C993 C992 1.370 . S
C993 C997 1.408 . S
C994 C992 1.363 . S
C994 C995 1.370 . S
C994 C998 1.524 . S
C995 C987 1.503 . S
C995 C994 1.370 . S
C995 C996 1.403 . S
C996 C995 1.403 . S
C996 C997 1.404 . S
C996 C999 1.539 . S
C997 C993 1.408 . S
C997 C996 1.404 . S
C997 H1009 0.930 . S
C998 C994 1.524 . S
C998 H1010 0.956 . S
C998 H1011 0.961 . S
C998 H1012 0.961 . S
C999 C996 1.539 . S
C999 H1013 0.958 . S
C999 H1014 0.961 . S
C999 H1015 0.960 . S
H1000 C984 0.931 . S
H1001 C989 0.929 . S
H1002 C990 0.960 . S
H1003 C990 0.962 . S
H1004 C990 0.960 . S
H1005 C991 0.961 . S
H1006 C991 0.961 . S
H1007 C991 0.961 . S
H1008 C992 0.931 . S
H1009 C997 0.930 . S
H1010 C998 0.956 . S
H1011 C998 0.961 . S
H1012 C998 0.961 . S
H1013 C999 0.958 . S
H1014 C999 0.961 . S
H1015 C999 0.960 . S
C249 C4 3.071 . S
C257 C107 3.049 . S
C281 C16 2.431 . S
C289 C138 2.474 1_556 S
C321 C177 0.903 . S
C313 C32 0.900 . S
C345 C43 0.409 . S
C353 C214 0.481 . S
C385 C137 3.279 . S
C377 C5 3.344 . S
C417 C94 1.189 . S
C409 C21 1.175 . S
C449 C226 1.227 . S
C441 C27 1.231 . S
C481 C183 0.974 . S
C473 C37 0.924 . S
C505 C10 2.449 . S
C513 C227 2.449 . S
C545 C143 1.442 . S
C537 C26 1.445 . S
C569 C38 0.332 . S
C577 C106 0.419 . S
C601 C15 2.428 . S
C609 C178 2.468 . S
C641 C98 3.064 . S
C633 C48 3.102 . S
C665 C59 2.178 . S
C673 C147 2.228 . S
C697 C76 1.226 . S
C705 C186 1.200 . S
C729 C87 0.561 . S
C737 C223 0.407 . S
C761 C54 2.761 . S
C769 C146 2.661 1_565 S
C801 C103 1.661 . S
C793 C60 1.644 . S
C833 C217 1.262 . S
C825 C71 1.254 . S
C865 C174 0.990 . S
C857 C82 1.019 . S
C889 C49 2.575 . S
C897 C218 2.581 1_655 S
C929 C134 1.265 . S
C921 C70 1.267 . S
C961 C97 0.637 . S
C953 C81 0.528 . S
C985 C65 2.292 . S
C993 C187 2.311 . S
