# Generated by pormake.
# Topology cml, (3,6)-cn, num edge types: 1
# Building blocks:
#     Node 0, Type 0, BuildingBlock: BETDIP_clean_linker_0, # of connection points: 3
#     Node 1, Type 0, BuildingBlock: BETDIP_clean_linker_0, # of connection points: 3
#     Node 2, Type 0, BuildingBlock: BETDIP_clean_linker_0, # of connection points: 3
#     Node 3, Type 0, BuildingBlock: BETDIP_clean_linker_0, # of connection points: 3
#     Node 4, Type 0, BuildingBlock: BETDIP_clean_linker_0, # of connection points: 3
#     Node 5, Type 0, BuildingBlock: BETDIP_clean_linker_0, # of connection points: 3
#     Node 6, Type 0, BuildingBlock: BETDIP_clean_linker_0, # of connection points: 3
#     Node 7, Type 0, BuildingBlock: BETDIP_clean_linker_0, # of connection points: 3
#     Node 8, Type 1, BuildingBlock: IZENUY_clean_sbu_0, # of connection points: 6
#     Node 9, Type 1, BuildingBlock: IZENUY_clean_sbu_0, # of connection points: 6
#     Node 10, Type 1, BuildingBlock: IZENUY_clean_sbu_0, # of connection points: 6
#     Node 11, Type 1, BuildingBlock: IZENUY_clean_sbu_0, # of connection points: 6
#     Edge 12, Type (0, 1), BuildingBlock: ZUJKAS_clean_linker_0, # of connection points: 2
#     Edge 13, Type (0, 1), BuildingBlock: ZUJKAS_clean_linker_0, # of connection points: 2
#     Edge 14, Type (0, 1), BuildingBlock: ZUJKAS_clean_linker_0, # of connection points: 2
#     Edge 15, Type (0, 1), BuildingBlock: ZUJKAS_clean_linker_0, # of connection points: 2
#     Edge 16, Type (0, 1), BuildingBlock: ZUJKAS_clean_linker_0, # of connection points: 2
#     Edge 17, Type (0, 1), BuildingBlock: ZUJKAS_clean_linker_0, # of connection points: 2
#     Edge 18, Type (0, 1), BuildingBlock: ZUJKAS_clean_linker_0, # of connection points: 2
#     Edge 19, Type (0, 1), BuildingBlock: ZUJKAS_clean_linker_0, # of connection points: 2
#     Edge 20, Type (0, 1), BuildingBlock: ZUJKAS_clean_linker_0, # of connection points: 2
#     Edge 21, Type (0, 1), BuildingBlock: ZUJKAS_clean_linker_0, # of connection points: 2
#     Edge 22, Type (0, 1), BuildingBlock: ZUJKAS_clean_linker_0, # of connection points: 2
#     Edge 23, Type (0, 1), BuildingBlock: ZUJKAS_clean_linker_0, # of connection points: 2
#     Edge 24, Type (0, 1), BuildingBlock: ZUJKAS_clean_linker_0, # of connection points: 2
#     Edge 25, Type (0, 1), BuildingBlock: ZUJKAS_clean_linker_0, # of connection points: 2
#     Edge 26, Type (0, 1), BuildingBlock: ZUJKAS_clean_linker_0, # of connection points: 2
#     Edge 27, Type (0, 1), BuildingBlock: ZUJKAS_clean_linker_0, # of connection points: 2
#     Edge 28, Type (0, 1), BuildingBlock: ZUJKAS_clean_linker_0, # of connection points: 2
#     Edge 29, Type (0, 1), BuildingBlock: ZUJKAS_clean_linker_0, # of connection points: 2
#     Edge 30, Type (0, 1), BuildingBlock: ZUJKAS_clean_linker_0, # of connection points: 2
#     Edge 31, Type (0, 1), BuildingBlock: ZUJKAS_clean_linker_0, # of connection points: 2
#     Edge 32, Type (0, 1), BuildingBlock: ZUJKAS_clean_linker_0, # of connection points: 2
#     Edge 33, Type (0, 1), BuildingBlock: ZUJKAS_clean_linker_0, # of connection points: 2
#     Edge 34, Type (0, 1), BuildingBlock: ZUJKAS_clean_linker_0, # of connection points: 2
#     Edge 35, Type (0, 1), BuildingBlock: ZUJKAS_clean_linker_0, # of connection points: 2
# Relax obj value: 0.003
# Max RMSD: 0.069
# Mean RMSD: 0.053
data_MOF--net-cml--node1-IZENUY_clean_sbu_0--node2-BETDIP_clean_linker_0--edge1-ZUJKAS_clean_linker_0
_symmetry_space_group_name_H-M    P1
_symmetry_Int_Tables_number       1
_symmetry_cell_setting            triclinic
loop_
_symmetry_equiv_pos_as_xyz
'x, y, z'
_cell_length_a     48.332182
_cell_length_b     53.38661
_cell_length_c     47.435485
_cell_angle_alpha  89.962068
_cell_angle_beta   89.977049
_cell_angle_gamma 89.949788
loop_
_atom_site_label
_atom_site_type_symbol
_atom_site_fract_x
_atom_site_fract_y
_atom_site_fract_z
_atom_type_partial_charge
H0 H 0.27589 0.35565 0.04506 0.0
H1 H 0.28039 0.39393 0.96529 0.0
H2 H 0.33218 0.41724 0.03381 0.0
H3 H 0.26269 0.35889 0.94841 0.0
C4 C 0.25012 0.35046 0.96482 0.0
C5 C 0.28478 0.37018 0.03192 0.0
C6 C 0.305 0.3863 0.04297 0.0
C7 C 0.276 0.37245 0.00388 0.0
C8 C 0.2872 0.39156 0.98683 0.0
C9 C 0.30764 0.40766 0.99749 0.0
C10 C 0.3163 0.40494 0.02556 0.0
N11 N 0.25589 0.35523 0.99372 0.0
H12 H 0.73017 0.65357 0.54398 0.0
H13 H 0.73023 0.61156 0.46658 0.0
H14 H 0.67826 0.58872 0.53532 0.0
H15 H 0.74592 0.64699 0.4479 0.0
C16 C 0.75761 0.6566 0.46414 0.0
C17 C 0.72256 0.63802 0.53153 0.0
C18 C 0.70344 0.62117 0.54322 0.0
C19 C 0.73194 0.6351 0.50378 0.0
C20 C 0.72245 0.61466 0.48766 0.0
C21 C 0.70328 0.59763 0.49903 0.0
C22 C 0.69387 0.60115 0.52677 0.0
N23 N 0.75121 0.65287 0.4931 0.0
H24 H 0.7307 0.35213 0.04685 0.0
H25 H 0.72687 0.393 0.96887 0.0
H26 H 0.6746 0.41429 0.03817 0.0
H27 H 0.73645 0.35168 0.95217 0.0
C28 C 0.75288 0.34662 0.96675 0.0
C29 C 0.72184 0.36714 0.03438 0.0
C30 C 0.70159 0.3829 0.04609 0.0
C31 C 0.73054 0.37027 0.00644 0.0
C32 C 0.71955 0.38997 0.99018 0.0
C33 C 0.69982 0.40637 0.0018 0.0
C34 C 0.69079 0.40247 0.02962 0.0
N35 N 0.75082 0.3536 0.99556 0.0
H36 H 0.27822 0.65851 0.54298 0.0
H37 H 0.2808 0.61592 0.46588 0.0
H38 H 0.33529 0.59718 0.53399 0.0
H39 H 0.24132 0.63479 0.45612 0.0
C40 C 0.23984 0.65201 0.46815 0.0
C41 C 0.28691 0.64337 0.53059 0.0
C42 C 0.30786 0.62823 0.54197 0.0
C43 C 0.27661 0.63899 0.50341 0.0
C44 C 0.28777 0.61925 0.48719 0.0
C45 C 0.30906 0.60419 0.49818 0.0
C46 C 0.31883 0.60877 0.52554 0.0
N47 N 0.2557 0.65538 0.49309 0.0
H48 H 0.77594 0.85455 0.04394 0.0
H49 H 0.77591 0.89591 0.96603 0.0
H50 H 0.82698 0.92003 0.03477 0.0
H51 H 0.7611 0.85999 0.94777 0.0
C52 C 0.74921 0.85054 0.96401 0.0
C53 C 0.78341 0.87012 0.03139 0.0
C54 C 0.80234 0.8872 0.04296 0.0
C55 C 0.77413 0.87272 0.00357 0.0
C56 C 0.78348 0.89309 0.98725 0.0
C57 C 0.80229 0.91043 0.99856 0.0
C58 C 0.8116 0.90729 0.02637 0.0
N59 N 0.75518 0.85467 0.99298 0.0
H60 H 0.2221 0.15557 0.54275 0.0
H61 H 0.2288 0.11365 0.46559 0.0
H62 H 0.17173 0.09017 0.52986 0.0
H63 H 0.27499 0.12821 0.47078 0.0
C64 C 0.27034 0.14772 0.47532 0.0
C65 C 0.21589 0.13979 0.52986 0.0
C66 C 0.19551 0.12317 0.5396 0.0
C67 C 0.22831 0.13628 0.50345 0.0
C68 C 0.21983 0.11616 0.48632 0.0
C69 C 0.19946 0.09939 0.4958 0.0
C70 C 0.18754 0.103 0.52248 0.0
N71 N 0.24855 0.15374 0.49425 0.0
H72 H 0.22639 0.84837 0.04183 0.0
H73 H 0.22622 0.89339 0.96652 0.0
H74 H 0.17455 0.91367 0.03648 0.0
H75 H 0.26416 0.87282 0.95562 0.0
C76 C 0.26492 0.8553 0.96716 0.0
C77 C 0.21885 0.86448 0.03022 0.0
C78 C 0.19951 0.88069 0.04264 0.0
C79 C 0.22902 0.86899 0.00303 0.0
C80 C 0.21916 0.88984 0.98776 0.0
C81 C 0.19975 0.90628 0.9999 0.0
C82 C 0.19018 0.90157 0.02736 0.0
N83 N 0.2487 0.8518 0.99186 0.0
H84 H 0.78275 0.16112 0.54171 0.0
H85 H 0.78282 0.11758 0.46516 0.0
H86 H 0.843 0.10296 0.52965 0.0
H87 H 0.74218 0.13499 0.45722 0.0
C88 C 0.74079 0.15237 0.46896 0.0
C89 C 0.79138 0.14622 0.52891 0.0
C90 C 0.81438 0.13275 0.53861 0.0
C91 C 0.77971 0.14101 0.50251 0.0
C92 C 0.79108 0.12168 0.48581 0.0
C93 C 0.81406 0.10793 0.49546 0.0
C94 C 0.82559 0.11373 0.5218 0.0
N95 N 0.75739 0.15635 0.49327 0.0
Fe96 Fe 1.00169 0.83965 0.32548 0.0
Fe97 Fe 1.00192 0.86927 0.38097 0.0
O98 O 1.00223 0.86863 0.34361 0.0
Fe99 Fe 0.00304 0.89702 0.32431 0.0
O100 O 0.97047 0.8899 0.30716 0.0
O101 O 0.98161 0.85141 0.29538 0.0
O102 O 0.96904 0.83108 0.34148 0.0
C103 C 0.96463 0.82997 0.36764 0.0
C104 C 0.03865 0.86526 0.29294 0.0
O105 O 0.98059 0.84092 0.38487 0.0
C106 C 0.03942 0.9082 0.36639 0.0
O107 O 0.02158 0.82261 0.35231 0.0
O108 O 0.03386 0.85141 0.38291 0.0
O109 O 0.0231 0.8843 0.29474 0.0
O110 O 0.03435 0.84627 0.30814 0.0
C111 C 0.96676 0.90811 0.36961 0.0
O112 O 0.02318 0.89775 0.38379 0.0
O113 O 0.03565 0.90599 0.3402 0.0
C114 C 0.03759 0.8303 0.37157 0.0
O115 O 0.96996 0.88721 0.38161 0.0
O116 O 0.98313 0.91503 0.35027 0.0
C117 C 0.96603 0.87038 0.29292 0.0
Fe118 Fe 0.00338 0.13983 0.8835 0.0
Fe119 Fe 1.0023 0.11191 0.82701 0.0
O120 O 0.0032 0.14034 0.84614 0.0
Fe121 Fe 0.00398 0.16938 0.82795 0.0
O122 O 0.0368 0.17752 0.84382 0.0
O123 O 0.02469 0.16823 0.88722 0.0
O124 O 0.03532 0.12189 0.88449 0.0
C125 C 0.03879 0.10108 0.87235 0.0
C126 C 0.96791 0.17876 0.87374 0.0
O127 O 0.02269 0.09412 0.8528 0.0
C128 C 0.96639 0.14383 0.79611 0.0
O129 O 0.98224 0.11139 0.88665 0.0
O130 O 0.96991 0.10269 0.84321 0.0
O131 O 0.9844 0.18662 0.85497 0.0
O132 O 0.97134 0.15755 0.88493 0.0
C133 C 0.03893 0.13846 0.79487 0.0
O134 O 0.98165 0.12458 0.79785 0.0
O135 O 0.97126 0.16308 0.81069 0.0
C136 C 0.9661 0.10072 0.8694 0.0
O137 O 0.03468 0.11906 0.80941 0.0
O138 O 0.0236 0.15754 0.7976 0.0
C139 C 0.04103 0.17877 0.87001 0.0
Fe140 Fe 0.50081 0.33954 0.32708 0.0
Fe141 Fe 0.50195 0.36852 0.38289 0.0
O142 O 0.5018 0.36836 0.34552 0.0
Fe143 Fe 0.5025 0.39699 0.32661 0.0
O144 O 0.46989 0.39008 0.30936 0.0
O145 O 0.48064 0.35159 0.29727 0.0
O146 O 0.46817 0.33108 0.34337 0.0
C147 C 0.46445 0.32945 0.3696 0.0
C148 C 0.53794 0.36538 0.2948 0.0
O149 O 0.48088 0.34002 0.38665 0.0
C150 C 0.53912 0.40775 0.36868 0.0
O151 O 0.5209 0.32216 0.35353 0.0
O152 O 0.53394 0.35073 0.38406 0.0
O153 O 0.52265 0.38457 0.29692 0.0
O154 O 0.53331 0.34611 0.30946 0.0
C155 C 0.46643 0.40735 0.37235 0.0
O156 O 0.52311 0.39696 0.38601 0.0
O157 O 0.53509 0.40602 0.3425 0.0
C158 C 0.53733 0.32965 0.37254 0.0
O159 O 0.46993 0.38638 0.38416 0.0
O160 O 0.48254 0.41457 0.35291 0.0
C161 C 0.46526 0.37068 0.29497 0.0
Fe162 Fe 0.50389 0.63851 0.88183 0.0
Fe163 Fe 0.50343 0.61086 0.82507 0.0
O164 O 0.504 0.6392 0.84444 0.0
Fe165 Fe 0.5047 0.66826 0.82635 0.0
O166 O 0.53722 0.67671 0.84262 0.0
O167 O 0.52527 0.6668 0.88592 0.0
O168 O 0.53577 0.62047 0.88292 0.0
C169 C 0.53925 0.59968 0.87077 0.0
C170 C 0.46839 0.67754 0.87211 0.0
O171 O 0.5233 0.59286 0.85107 0.0
C172 C 0.46788 0.64267 0.79368 0.0
O173 O 0.48253 0.6101 0.88447 0.0
O174 O 0.47079 0.6017 0.84073 0.0
O175 O 0.48464 0.68528 0.85306 0.0
O176 O 0.47197 0.6564 0.88342 0.0
C177 C 0.54049 0.63765 0.79379 0.0
O178 O 0.48341 0.62362 0.79553 0.0
O179 O 0.47219 0.66174 0.80871 0.0
C180 C 0.46658 0.59961 0.86686 0.0
O181 O 0.53606 0.61809 0.80803 0.0
O182 O 0.52494 0.65662 0.79634 0.0
C183 C 0.5414 0.67776 0.86882 0.0
H184 H 0.23633 0.33659 0.91181 0.0
H185 H 0.20087 0.30646 0.89724 0.0
H186 H 0.1802 0.29296 0.98439 0.0
H187 H 0.21533 0.32326 0.99907 0.0
H188 H 0.1968 0.25549 0.9112 0.0
H189 H 0.10502 0.30879 0.9485 0.0
H190 H 0.13872 0.32295 0.94469 0.0
H191 H 0.1312 0.30358 0.97473 0.0
C192 C 0.22411 0.32726 0.92782 0.0
C193 C 0.22849 0.33233 0.95651 0.0
C194 C 0.20393 0.31005 0.9195 0.0
C195 C 0.18768 0.29773 0.93972 0.0
C196 C 0.19216 0.30262 0.96843 0.0
H197 H 0.05418 0.18896 0.925 0.0
H198 H 0.09072 0.21658 0.94248 0.0
C199 C 0.21234 0.31985 0.97678 0.0
C200 C 0.16644 0.27942 0.93068 0.0
H201 H 0.09697 0.26786 0.93128 0.0
C202 C 0.17496 0.25819 0.91554 0.0
C203 C 0.138 0.28298 0.93649 0.0
C204 C 0.12756 0.3059 0.95178 0.0
C205 C 0.15579 0.2403 0.90618 0.0
C206 C 0.12732 0.24399 0.91171 0.0
C207 C 0.11883 0.26508 0.92712 0.0
C208 C 0.10591 0.22655 0.90108 0.0
C209 C 0.16621 0.21743 0.89078 0.0
C210 C 0.10227 0.22313 0.87199 0.0
C211 C 0.08144 0.20737 0.86191 0.0
C212 C 0.06368 0.19486 0.88074 0.0
C213 C 0.06747 0.19828 0.9099 0.0
C214 C 0.08832 0.21407 0.91995 0.0
H215 H 0.18851 0.21399 0.89499 0.0
H216 H 0.15431 0.2005 0.89692 0.0
H217 H 0.16365 0.22029 0.86776 0.0
H218 H 0.11528 0.23296 0.85705 0.0
H219 H 0.0791 0.20523 0.83933 0.0
H220 H 0.77234 0.66894 0.41083 0.0
H221 H 0.80731 0.69939 0.39574 0.0
H222 H 0.82516 0.7166 0.48267 0.0
H223 H 0.79054 0.68602 0.49788 0.0
H224 H 0.8097 0.75107 0.40749 0.0
H225 H 0.90171 0.70095 0.44949 0.0
H226 H 0.86848 0.68597 0.44536 0.0
H227 H 0.87468 0.70644 0.47475 0.0
C228 C 0.78383 0.67917 0.42669 0.0
C229 C 0.77882 0.67504 0.45547 0.0
C230 C 0.80373 0.69655 0.41807 0.0
C231 C 0.81906 0.71 0.43809 0.0
C232 C 0.81392 0.70607 0.46688 0.0
H233 H 0.95049 0.82074 0.42264 0.0
H234 H 0.91417 0.79286 0.44014 0.0
C235 C 0.79402 0.68868 0.47553 0.0
C236 C 0.8401 0.72842 0.42877 0.0
H237 H 0.90922 0.74148 0.43078 0.0
C238 C 0.83147 0.74898 0.41253 0.0
C239 C 0.86845 0.72566 0.43548 0.0
C240 C 0.87902 0.70347 0.45202 0.0
C241 C 0.85044 0.76699 0.40298 0.0
C242 C 0.87884 0.76409 0.40944 0.0
C243 C 0.88742 0.74366 0.42591 0.0
C244 C 0.90011 0.78169 0.39873 0.0
C245 C 0.83986 0.78916 0.38643 0.0
C246 C 0.90434 0.78453 0.36965 0.0
C247 C 0.92503 0.80045 0.35955 0.0
C248 C 0.94209 0.81371 0.37838 0.0
C249 C 0.93774 0.81084 0.40754 0.0
C250 C 0.91701 0.79491 0.4176 0.0
H251 H 0.8174 0.7923 0.39001 0.0
H252 H 0.85123 0.80651 0.39211 0.0
H253 H 0.84298 0.78564 0.3636 0.0
H254 H 0.8919 0.77412 0.35472 0.0
H255 H 0.92783 0.80213 0.33697 0.0
H256 H 0.75242 0.31735 0.92008 0.0
H257 H 0.78757 0.2871 0.90497 0.0
H258 H 0.83831 0.30739 0.97624 0.0
H259 H 0.80258 0.3366 0.99212 0.0
H260 H 0.83785 0.29205 0.88839 0.0
H261 H 0.84044 0.23359 0.98453 0.0
H262 H 0.8144 0.25727 0.97896 0.0
H263 H 0.84799 0.26566 0.99251 0.0
C264 C 0.77102 0.31514 0.93259 0.0
C265 C 0.77466 0.32902 0.95741 0.0
C266 C 0.7911 0.29789 0.92396 0.0
C267 C 0.81539 0.29445 0.9398 0.0
C268 C 0.81937 0.30896 0.96419 0.0
H269 H 0.96575 0.22975 0.87085 0.0
H270 H 0.92866 0.25727 0.88706 0.0
C271 C 0.79904 0.32583 0.97313 0.0
C272 C 0.83689 0.27636 0.93024 0.0
H273 H 0.87807 0.22814 0.95228 0.0
C274 C 0.84645 0.27794 0.90233 0.0
C275 C 0.84781 0.25756 0.94817 0.0
C276 C 0.8369 0.25322 0.97759 0.0
C277 C 0.86692 0.26166 0.89203 0.0
C278 C 0.87908 0.24393 0.91049 0.0
C279 C 0.86912 0.24197 0.93822 0.0
C280 C 0.90209 0.22721 0.90147 0.0
C281 C 0.87473 0.26335 0.86126 0.0
C282 C 0.90025 0.20116 0.90542 0.0
C283 C 0.92184 0.18541 0.89688 0.0
C284 C 0.94556 0.1954 0.88394 0.0
C285 C 0.94755 0.22147 0.88038 0.0
C286 C 0.92623 0.23722 0.88943 0.0
H287 H 0.85757 0.27128 0.84847 0.0
H288 H 0.89279 0.27599 0.85892 0.0
H289 H 0.88024 0.2447 0.85255 0.0
H290 H 0.88194 0.19296 0.91483 0.0
H291 H 0.91971 0.16538 0.89987 0.0
H292 H 0.22941 0.6979 0.4923 0.0
H293 H 0.19528 0.72906 0.47726 0.0
H294 H 0.17084 0.6811 0.40854 0.0
H295 H 0.2048 0.6497 0.42363 0.0
H296 H 0.19055 0.75389 0.42464 0.0
H297 H 0.09739 0.69704 0.44872 0.0
H298 H 0.13125 0.68937 0.46229 0.0
H299 H 0.12224 0.68155 0.4266 0.0
C300 C 0.21672 0.69393 0.47404 0.0
C301 C 0.21959 0.67126 0.4592 0.0
C302 C 0.19727 0.71179 0.46546 0.0
C303 C 0.18026 0.70722 0.44206 0.0
C304 C 0.1834 0.68478 0.42698 0.0
H305 H 0.05167 0.78411 0.35146 0.0
H306 H 0.087 0.75562 0.36936 0.0
C307 C 0.20286 0.66693 0.43552 0.0
C308 C 0.15945 0.72605 0.43317 0.0
H309 H 0.0902 0.73449 0.42268 0.0
C310 C 0.16858 0.74976 0.42438 0.0
C311 C 0.13083 0.72059 0.43296 0.0
C312 C 0.11974 0.69585 0.44339 0.0
C313 C 0.14987 0.76791 0.41448 0.0
C314 C 0.12127 0.7623 0.41386 0.0
C315 C 0.11215 0.73872 0.42309 0.0
C316 C 0.10045 0.78023 0.40285 0.0
C317 C 0.16095 0.79262 0.40393 0.0
C318 C 0.09619 0.80356 0.41582 0.0
C319 C 0.07597 0.82001 0.40558 0.0
C320 C 0.05949 0.81331 0.38232 0.0
C321 C 0.06389 0.7899 0.36943 0.0
C322 C 0.0841 0.77355 0.37964 0.0
H323 H 0.18352 0.79172 0.39959 0.0
H324 H 0.15011 0.79852 0.38438 0.0
H325 H 0.15743 0.8072 0.4202 0.0
H326 H 0.10824 0.8089 0.43409 0.0
H327 H 0.07308 0.83784 0.41606 0.0
H328 H 0.71561 0.82179 0.99783 0.0
H329 H 0.6814 0.79081 0.98271 0.0
H330 H 0.70101 0.80641 0.89575 0.0
H331 H 0.73552 0.83725 0.91075 0.0
H332 H 0.63484 0.79826 0.94846 0.0
H333 H 0.70739 0.7299 0.90039 0.0
H334 H 0.71877 0.75452 0.92374 0.0
H335 H 0.71119 0.76132 0.88742 0.0
C336 C 0.71275 0.81855 0.97549 0.0
C337 C 0.72833 0.83182 0.9554 0.0
C338 C 0.69318 0.80085 0.96691 0.0
C339 C 0.689 0.79603 0.93814 0.0
C340 C 0.70434 0.80946 0.91807 0.0
H341 H 0.57846 0.70559 0.83842 0.0
H342 H 0.61412 0.73374 0.85644 0.0
C343 C 0.72389 0.82716 0.92663 0.0
C344 C 0.66798 0.77752 0.92909 0.0
H345 H 0.65945 0.72345 0.8917 0.0
C346 C 0.6402 0.78179 0.93624 0.0
C347 C 0.6751 0.75608 0.91315 0.0
C348 C 0.70476 0.74998 0.90591 0.0
C349 C 0.61919 0.76553 0.92718 0.0
C350 C 0.62628 0.74423 0.91098 0.0
C351 C 0.6541 0.73982 0.90409 0.0
C352 C 0.60503 0.72661 0.90037 0.0
C353 C 0.58953 0.7717 0.93431 0.0
C354 C 0.58844 0.71293 0.91913 0.0
C355 C 0.56795 0.69684 0.90892 0.0
C356 C 0.56379 0.69405 0.87973 0.0
C357 C 0.58095 0.70737 0.86102 0.0
C358 C 0.60139 0.72345 0.87126 0.0
H359 H 0.58706 0.79153 0.94094 0.0
H360 H 0.57577 0.76815 0.916 0.0
H361 H 0.5826 0.7596 0.95197 0.0
H362 H 0.59131 0.71472 0.94168 0.0
H363 H 0.55528 0.68672 0.92392 0.0
H364 H 0.32179 0.14123 0.45402 0.0
H365 H 0.35373 0.17338 0.43685 0.0
H366 H 0.29238 0.2303 0.45349 0.0
H367 H 0.26102 0.19832 0.47203 0.0
H368 H 0.3514 0.2038 0.39454 0.0
H369 H 0.35696 0.26135 0.49139 0.0
H370 H 0.34057 0.23105 0.4908 0.0
H371 H 0.32221 0.2584 0.47866 0.0
C372 C 0.31529 0.16066 0.45423 0.0
C373 C 0.28917 0.16736 0.46467 0.0
C374 C 0.33349 0.17901 0.44437 0.0
C375 C 0.32575 0.2044 0.44439 0.0
C376 C 0.29926 0.211 0.45412 0.0
H377 H 0.41713 0.31412 0.34321 0.0
H378 H 0.38225 0.28491 0.36107 0.0
C379 C 0.28125 0.19269 0.46453 0.0
C380 C 0.34521 0.22371 0.43352 0.0
H381 H 0.37665 0.27907 0.44998 0.0
C382 C 0.35701 0.2202 0.40674 0.0
C383 C 0.35287 0.24498 0.44955 0.0
C384 C 0.34272 0.24906 0.4793 0.0
C385 C 0.37623 0.23723 0.39558 0.0
C386 C 0.38303 0.25902 0.41112 0.0
C387 C 0.37121 0.26256 0.43788 0.0
C388 C 0.40327 0.27783 0.40062 0.0
C389 C 0.38972 0.23115 0.36769 0.0
C390 C 0.42599 0.2846 0.41742 0.0
C391 C 0.44549 0.30181 0.40758 0.0
C392 C 0.44288 0.31239 0.38057 0.0
C393 C 0.41988 0.306 0.36396 0.0
C394 C 0.40005 0.28915 0.37406 0.0
H395 H 0.3888 0.21077 0.36304 0.0
H396 H 0.37858 0.24108 0.35056 0.0
H397 H 0.41172 0.23708 0.36735 0.0
H398 H 0.4289 0.27625 0.43803 0.0
H399 H 0.46301 0.30633 0.42088 0.0
H400 H 0.27407 0.80876 0.99038 0.0
H401 H 0.30826 0.77758 0.97548 0.0
H402 H 0.33483 0.82658 0.90844 0.0
H403 H 0.30082 0.85798 0.92339 0.0
H404 H 0.3144 0.75361 0.92249 0.0
H405 H 0.40703 0.80973 0.95042 0.0
H406 H 0.37282 0.81727 0.96316 0.0
H407 H 0.38288 0.82568 0.92792 0.0
C408 C 0.28722 0.81294 0.97249 0.0
C409 C 0.28496 0.83591 0.95812 0.0
C410 C 0.3067 0.79508 0.964 0.0
C411 C 0.32435 0.79994 0.94115 0.0
C412 C 0.32177 0.82266 0.92647 0.0
H413 H 0.45508 0.72414 0.85254 0.0
H414 H 0.4194 0.75247 0.87005 0.0
C415 C 0.30228 0.84051 0.93492 0.0
C416 C 0.34533 0.7812 0.93248 0.0
H417 H 0.41483 0.77274 0.92377 0.0
C418 C 0.33638 0.75767 0.92294 0.0
C419 C 0.37397 0.78657 0.9332 0.0
C420 C 0.38485 0.81109 0.94447 0.0
C421 C 0.35531 0.73965 0.91319 0.0
C422 C 0.38393 0.74519 0.91349 0.0
C423 C 0.39287 0.76857 0.92348 0.0
C424 C 0.405 0.72738 0.90272 0.0
C425 C 0.34447 0.71516 0.90182 0.0
C426 C 0.40885 0.70385 0.91538 0.0
C427 C 0.42927 0.6875 0.90537 0.0
C428 C 0.44636 0.69449 0.88265 0.0
C429 C 0.44238 0.71811 0.87009 0.0
C430 C 0.42197 0.73438 0.88007 0.0
H431 H 0.32202 0.71619 0.89689 0.0
H432 H 0.35581 0.70959 0.88245 0.0
H433 H 0.34752 0.70028 0.91786 0.0
H434 H 0.39631 0.69826 0.93323 0.0
H435 H 0.43182 0.66949 0.91559 0.0
H436 H 0.70492 0.14928 0.42517 0.0
H437 H 0.67107 0.18067 0.40969 0.0
H438 H 0.69661 0.22965 0.47708 0.0
H439 H 0.73058 0.19854 0.49249 0.0
H440 H 0.62693 0.20139 0.44134 0.0
H441 H 0.70123 0.27462 0.40668 0.0
H442 H 0.71143 0.2425 0.4126 0.0
H443 H 0.70625 0.26322 0.44196 0.0
C444 C 0.70334 0.16679 0.4366 0.0
C445 C 0.7204 0.17147 0.45995 0.0
C446 C 0.68403 0.18467 0.42776 0.0
C447 C 0.68161 0.20761 0.44201 0.0
C448 C 0.69851 0.21226 0.46547 0.0
H449 H 0.57378 0.33702 0.41622 0.0
H450 H 0.60855 0.30758 0.43408 0.0
C451 C 0.7178 0.19438 0.47435 0.0
C452 C 0.66086 0.22634 0.43274 0.0
H453 H 0.65376 0.28556 0.40639 0.0
C454 C 0.63278 0.21977 0.43364 0.0
C455 C 0.66858 0.25036 0.4229 0.0
C456 C 0.69851 0.25812 0.42071 0.0
C457 C 0.61213 0.23665 0.42509 0.0
C458 C 0.61985 0.26054 0.41482 0.0
C459 C 0.64792 0.26723 0.41426 0.0
C460 C 0.59911 0.27853 0.40381 0.0
C461 C 0.58221 0.22886 0.42751 0.0
C462 C 0.58269 0.27213 0.38054 0.0
C463 C 0.56281 0.28882 0.37034 0.0
C464 C 0.55905 0.31238 0.38307 0.0
C465 C 0.57601 0.31899 0.40601 0.0
C466 C 0.5959 0.30221 0.41624 0.0
H467 H 0.57949 0.21334 0.44288 0.0
H468 H 0.56899 0.24485 0.43408 0.0
H469 H 0.57485 0.22219 0.40667 0.0
H470 H 0.58528 0.25419 0.37021 0.0
H471 H 0.55036 0.28318 0.35246 0.0
H472 H 0.2821 0.44072 0.96163 0.0
H473 H 0.30394 0.47377 0.93328 0.0
H474 H 0.38402 0.45164 0.96474 0.0
H475 H 0.36253 0.4184 0.99249 0.0
H476 H 0.33595 0.51379 0.95357 0.0
H477 H 0.3962 0.45517 0.87937 0.0
H478 H 0.36796 0.44289 0.90014 0.0
H479 H 0.40172 0.44664 0.91554 0.0
C480 C 0.3044 0.4427 0.96212 0.0
C481 C 0.32062 0.42702 0.97931 0.0
C482 C 0.3168 0.46162 0.94605 0.0
C483 C 0.34561 0.46492 0.94666 0.0
C484 C 0.36181 0.44913 0.96358 0.0
H485 H 0.4532 0.58862 0.9215 0.0
H486 H 0.4203 0.55739 0.93836 0.0
C487 C 0.34947 0.43033 0.97967 0.0
C488 C 0.35886 0.48564 0.9309 0.0
H489 H 0.41064 0.49801 0.88401 0.0
C490 C 0.35199 0.51039 0.93803 0.0
C491 C 0.37948 0.48116 0.91035 0.0
C492 C 0.3866 0.45502 0.90066 0.0
C493 C 0.36626 0.53076 0.92624 0.0
C494 C 0.38818 0.52617 0.90715 0.0
C495 C 0.39402 0.50149 0.89889 0.0
C496 C 0.40641 0.54649 0.89677 0.0
C497 C 0.35794 0.55697 0.93457 0.0
C498 C 0.40979 0.55056 0.86775 0.0
C499 C 0.42877 0.56832 0.85798 0.0
C500 C 0.44494 0.58217 0.8771 0.0
C501 C 0.44109 0.57834 0.90618 0.0
C502 C 0.42212 0.56061 0.91589 0.0
H503 H 0.33609 0.55766 0.94183 0.0
H504 H 0.37122 0.56332 0.95224 0.0
H505 H 0.36053 0.57025 0.91674 0.0
H506 H 0.39798 0.53975 0.85264 0.0
H507 H 0.43117 0.57079 0.83545 0.0
H508 H 0.69368 0.54944 0.51601 0.0
H509 H 0.66973 0.51644 0.48997 0.0
H510 H 0.66389 0.56474 0.41738 0.0
H511 H 0.68724 0.59824 0.44352 0.0
H512 H 0.61269 0.52837 0.46344 0.0
H513 H 0.69314 0.49162 0.39006 0.0
H514 H 0.70209 0.50566 0.42351 0.0
H515 H 0.69009 0.52499 0.39516 0.0
C516 C 0.68744 0.55305 0.49446 0.0
C517 C 0.69211 0.57658 0.48194 0.0
C518 C 0.67394 0.53412 0.47958 0.0
C519 C 0.66519 0.5382 0.45181 0.0
C520 C 0.6708 0.56121 0.43874 0.0
H521 H 0.56785 0.44363 0.33933 0.0
H522 H 0.59919 0.47532 0.35863 0.0
C523 C 0.6842 0.58028 0.45368 0.0
C524 C 0.64787 0.51921 0.43764 0.0
H525 H 0.64879 0.47327 0.38764 0.0
C526 C 0.62051 0.51631 0.44684 0.0
C527 C 0.65816 0.50385 0.41582 0.0
C528 C 0.6875 0.50646 0.40545 0.0
C529 C 0.60307 0.49827 0.43485 0.0
C530 C 0.61359 0.48219 0.41366 0.0
C531 C 0.64086 0.48546 0.40405 0.0
C532 C 0.59652 0.46179 0.40155 0.0
C533 C 0.57341 0.49691 0.44472 0.0
C534 C 0.58539 0.44319 0.41912 0.0
C535 C 0.56732 0.42525 0.40825 0.0
C536 C 0.56033 0.4253 0.37948 0.0
C537 C 0.5727 0.44313 0.36162 0.0
C538 C 0.59062 0.46125 0.37259 0.0
H539 H 0.56659 0.51482 0.45443 0.0
H540 H 0.55923 0.49238 0.42703 0.0
H541 H 0.57148 0.48201 0.46093 0.0
H542 H 0.59028 0.44284 0.4414 0.0
H543 H 0.5585 0.41155 0.42251 0.0
H544 H 0.69083 0.45448 0.01908 0.0
H545 H 0.66717 0.48799 0.99347 0.0
H546 H 0.65908 0.43978 0.92105 0.0
H547 H 0.6822 0.40587 0.94682 0.0
H548 H 0.67881 0.51187 0.94096 0.0
H549 H 0.57879 0.46046 0.94 0.0
H550 H 0.60731 0.45138 0.96233 0.0
H551 H 0.60777 0.44378 0.92545 0.0
C552 C 0.68401 0.45099 0.99769 0.0
C553 C 0.68805 0.42741 0.9851 0.0
C554 C 0.67067 0.47021 0.98304 0.0
C555 C 0.66101 0.46623 0.95555 0.0
C556 C 0.66603 0.44309 0.94243 0.0
H557 H 0.55457 0.55509 0.8474 0.0
H558 H 0.58621 0.52383 0.8666 0.0
C559 C 0.67944 0.42382 0.95708 0.0
C560 C 0.64467 0.486 0.94122 0.0
H561 H 0.57997 0.49939 0.91665 0.0
C562 C 0.65722 0.50917 0.93555 0.0
C563 C 0.61649 0.48242 0.93434 0.0
C564 C 0.60163 0.45827 0.94101 0.0
C565 C 0.64236 0.52882 0.92285 0.0
C566 C 0.6141 0.52529 0.91619 0.0
C567 C 0.60165 0.50204 0.92172 0.0
C568 C 0.5968 0.5454 0.90364 0.0
C569 C 0.65715 0.553 0.91631 0.0
C570 C 0.59233 0.56805 0.918 0.0
C571 C 0.57426 0.5861 0.90701 0.0
C572 C 0.56007 0.58165 0.8816 0.0
C573 C 0.56502 0.55911 0.86708 0.0
C574 C 0.58314 0.54119 0.878 0.0
H575 H 0.67994 0.55033 0.91535 0.0
H576 H 0.65002 0.561 0.89595 0.0
H577 H 0.65268 0.5668 0.93319 0.0
H578 H 0.6022 0.57149 0.93812 0.0
H579 H 0.57084 0.60319 0.9188 0.0
H580 H 0.28267 0.56706 0.4687 0.0
H581 H 0.30402 0.53053 0.44578 0.0
H582 H 0.38496 0.55882 0.46689 0.0
H583 H 0.36384 0.595 0.48994 0.0
H584 H 0.34187 0.52518 0.40214 0.0
H585 H 0.38577 0.4892 0.50198 0.0
H586 H 0.35993 0.51362 0.50101 0.0
H587 H 0.39584 0.52097 0.49519 0.0
C588 C 0.30502 0.56555 0.46812 0.0
C589 C 0.32161 0.58364 0.48142 0.0
C590 C 0.31716 0.54467 0.45516 0.0
C591 C 0.34604 0.54164 0.45533 0.0
C592 C 0.36261 0.5604 0.46727 0.0
H593 H 0.45777 0.45575 0.35598 0.0
H594 H 0.42509 0.48581 0.37541 0.0
C595 C 0.35054 0.5811 0.48032 0.0
C596 C 0.35913 0.51885 0.44338 0.0
H597 H 0.40484 0.4722 0.45941 0.0
C598 C 0.35537 0.51338 0.4147 0.0
C599 C 0.37621 0.5031 0.45994 0.0
C600 C 0.37946 0.50683 0.4913 0.0
C601 C 0.36945 0.49339 0.40182 0.0
C602 C 0.38819 0.47885 0.41795 0.0
C603 C 0.39076 0.48351 0.44694 0.0
C604 C 0.40666 0.45982 0.40497 0.0
C605 C 0.36417 0.48814 0.37105 0.0
C606 C 0.40773 0.43524 0.41556 0.0
C607 C 0.42681 0.41798 0.40473 0.0
C608 C 0.44524 0.42502 0.38319 0.0
C609 C 0.44383 0.44958 0.37245 0.0
C610 C 0.42492 0.4668 0.38337 0.0
H611 H 0.3432 0.49452 0.36465 0.0
H612 H 0.37945 0.49857 0.35812 0.0
H613 H 0.36618 0.46787 0.36623 0.0
H614 H 0.394 0.4295 0.43241 0.0
H615 H 0.42731 0.39923 0.41347 0.0
H616 H 0.82134 0.90858 0.94425 0.0
H617 H 0.84479 0.94205 0.918 0.0
H618 H 0.83228 0.99255 0.9877 0.0
H619 H 0.80865 0.95935 0.014 0.0
H620 H 0.82253 0.00686 0.91769 0.0
H621 H 0.92337 0.97253 0.96001 0.0
H622 H 0.89662 0.95069 0.94998 0.0
H623 H 0.89209 0.96985 0.98061 0.0
C624 C 0.82302 0.92698 0.95371 0.0
C625 C 0.81334 0.93132 0.98125 0.0
C626 C 0.83645 0.946 0.93873 0.0
C627 C 0.84018 0.96963 0.95102 0.0
C628 C 0.82948 0.97439 0.97794 0.0
H629 H 0.95252 0.09148 0.92433 0.0
H630 H 0.92007 0.06037 0.9424 0.0
C631 C 0.81618 0.95539 0.99295 0.0
C632 C 0.85745 0.98872 0.93702 0.0
H633 H 0.9242 0.00889 0.93219 0.0
C634 C 0.84478 0.00731 0.92059 0.0
C635 C 0.88635 0.98917 0.94117 0.0
C636 C 0.90065 0.96957 0.95889 0.0
C637 C 0.86043 0.02669 0.9084 0.0
C638 C 0.8894 0.02722 0.91269 0.0
C639 C 0.90199 0.00842 0.92895 0.0
C640 C 0.90715 0.04742 0.90127 0.0
C641 C 0.84582 0.04681 0.89174 0.0
C642 C 0.91046 0.05059 0.8721 0.0
C643 C 0.92903 0.06842 0.86163 0.0
C644 C 0.94476 0.08324 0.8802 0.0
C645 C 0.94086 0.08035 0.90941 0.0
C646 C 0.92231 0.06257 0.91981 0.0
H647 H 0.82315 0.04675 0.8956 0.0
H648 H 0.85413 0.0656 0.89707 0.0
H649 H 0.84933 0.04357 0.86891 0.0
H650 H 0.89929 0.0388 0.85744 0.0
H651 H 0.93154 0.07013 0.83902 0.0
H652 H 0.19213 0.05053 0.51083 0.0
H653 H 0.17063 0.01727 0.483 0.0
H654 H 0.16285 0.06777 0.41245 0.0
H655 H 0.18415 0.1013 0.44036 0.0
H656 H 0.113 0.04391 0.42915 0.0
H657 H 0.19803 0.97513 0.41542 0.0
H658 H 0.19363 0.98578 0.45106 0.0
H659 H 0.20415 0.00759 0.42425 0.0
C660 C 0.18616 0.05444 0.48925 0.0
C661 C 0.18972 0.0785 0.47776 0.0
C662 C 0.17413 0.03537 0.47331 0.0
C663 C 0.16544 0.04 0.44558 0.0
C664 C 0.16966 0.0638 0.43374 0.0
H665 H 0.07901 0.93321 0.33588 0.0
H666 H 0.11131 0.96515 0.35305 0.0
C667 C 0.18191 0.08287 0.44964 0.0
C668 C 0.14947 0.02072 0.43016 0.0
H669 H 0.152 0.96015 0.40702 0.0
C670 C 0.12164 0.02573 0.42393 0.0
C671 C 0.16082 0.99704 0.42335 0.0
C672 C 0.19088 0.99107 0.42861 0.0
C673 C 0.10453 0.00732 0.41211 0.0
C674 C 0.11557 0.98335 0.40646 0.0
C675 C 0.14364 0.97856 0.41162 0.0
C676 C 0.0977 0.9628 0.39637 0.0
C677 C 0.07457 0.01333 0.4063 0.0
C678 C 0.07985 0.9507 0.41524 0.0
C679 C 0.06149 0.93242 0.40562 0.0
C680 C 0.06055 0.92603 0.37686 0.0
C681 C 0.07909 0.93776 0.35813 0.0
C682 C 0.09759 0.95596 0.36786 0.0
H683 H 0.0702 0.03371 0.40801 0.0
H684 H 0.06869 0.00686 0.38488 0.0
H685 H 0.06133 1.00327 0.42171 0.0
H686 H 0.07977 0.95575 0.43736 0.0
H687 H 0.04758 0.92378 0.42065 0.0
H688 H 0.19139 0.95412 0.01863 0.0
H689 H 0.16782 0.98835 0.99405 0.0
H690 H 0.15931 0.94188 0.92027 0.0
H691 H 0.18228 0.9073 0.94494 0.0
H692 H 0.17901 0.01346 0.94179 0.0
H693 H 0.07911 0.96189 0.94082 0.0
H694 H 0.10788 0.95251 0.96265 0.0
H695 H 0.10792 0.94543 0.92563 0.0
C696 C 0.18455 0.9512 0.99713 0.0
C697 C 0.18842 0.92791 0.98383 0.0
C698 C 0.17126 0.97082 0.98308 0.0
C699 C 0.16146 0.9675 0.95553 0.0
C700 C 0.16638 0.94468 0.9417 0.0
H701 H 0.05446 0.0567 0.84873 0.0
H702 H 0.08633 0.02555 0.86778 0.0
C703 C 0.17973 0.92503 0.95573 0.0
C704 C 0.14494 0.98751 0.94186 0.0
H705 H 0.0801 1.00098 0.91772 0.0
C706 C 0.15739 0.01078 0.93646 0.0
C707 C 0.11672 0.98395 0.9351 0.0
C708 C 0.10196 0.9597 0.94152 0.0
C709 C 0.14243 0.0305 0.92404 0.0
C710 C 0.11416 0.02695 0.91738 0.0
C711 C 0.10179 0.00365 0.92276 0.0
C712 C 0.0968 0.04705 0.9049 0.0
C713 C 0.15712 0.05478 0.9177 0.0
C714 C 0.09221 0.06964 0.91936 0.0
C715 C 0.074 0.08762 0.90845 0.0
C716 C 0.0598 0.08317 0.88305 0.0
C717 C 0.0649 0.06071 0.86841 0.0
C718 C 0.08316 0.04286 0.87925 0.0
H719 H 0.17992 0.0522 0.91678 0.0
H720 H 0.15 0.06285 0.89738 0.0
H721 H 0.15254 0.06847 0.93466 0.0
H722 H 0.10206 0.07306 0.93948 0.0
H723 H 0.07047 0.10465 0.92032 0.0
H724 H 0.78687 0.06972 0.46863 0.0
H725 H 0.80759 0.03298 0.44565 0.0
H726 H 0.88903 0.06284 0.46128 0.0
H727 H 0.86855 0.09935 0.4843 0.0
H728 H 0.84363 0.02723 0.39996 0.0
H729 H 0.89212 0.99399 0.49889 0.0
H730 H 0.86584 0.01803 0.49832 0.0
H731 H 0.90129 0.02571 0.49056 0.0
C732 C 0.80917 0.06856 0.4668 0.0
C733 C 0.82612 0.08722 0.47858 0.0
C734 C 0.82097 0.04754 0.45381 0.0
C735 C 0.84985 0.0449 0.45243 0.0
C736 C 0.86671 0.06416 0.46284 0.0
H737 H 0.95782 0.95606 0.35176 0.0
H738 H 0.92596 0.98684 0.37124 0.0
C739 C 0.85499 0.08504 0.4759 0.0
C740 C 0.86261 0.02193 0.44059 0.0
H741 H 0.90889 0.97563 0.45615 0.0
C742 C 0.85766 0.01575 0.4123 0.0
C743 C 0.8804 0.00663 0.4569 0.0
C744 C 0.88502 0.01124 0.48793 0.0
C745 C 0.87117 0.99541 0.39948 0.0
C746 C 0.89049 0.98121 0.41527 0.0
C747 C 0.89433 0.98666 0.44394 0.0
C748 C 0.90826 0.96171 0.40219 0.0
C749 C 0.86468 0.9894 0.36912 0.0
C750 C 0.90938 0.93738 0.41345 0.0
C751 C 0.92795 0.91971 0.40256 0.0
C752 C 0.94585 0.92611 0.3803 0.0
C753 C 0.94431 0.9504 0.36883 0.0
C754 C 0.92587 0.96802 0.37978 0.0
H755 H 0.84357 0.99585 0.3633 0.0
H756 H 0.87963 0.99926 0.35527 0.0
H757 H 0.86623 0.96898 0.36496 0.0
H758 H 0.89612 0.93217 0.43091 0.0
H759 H 0.92856 0.90119 0.41188 0.0
H760 H 0.31517 0.42285 0.08198 0.0
H761 H 0.33783 0.41812 0.12782 0.0
H762 H 0.34074 0.33807 0.11612 0.0
H763 H 0.3187 0.34268 0.06992 0.0
H764 H 0.32422 0.38882 0.17732 0.0
H765 H 0.42265 0.35961 0.1261 0.0
H766 H 0.39476 0.37415 0.10678 0.0
H767 H 0.39261 0.34171 0.11656 0.0
C768 C 0.32055 0.40423 0.08922 0.0
C769 C 0.31546 0.38316 0.07219 0.0
C770 C 0.33331 0.40155 0.11546 0.0
C771 C 0.34129 0.3778 0.1251 0.0
C772 C 0.33503 0.3566 0.10883 0.0
H773 H 0.44733 0.3315 0.26293 0.0
H774 H 0.41468 0.33259 0.22373 0.0
C775 C 0.32223 0.35925 0.08257 0.0
C776 C 0.35763 0.37543 0.15134 0.0
H777 H 0.42178 0.35988 0.17571 0.0
C778 C 0.34553 0.38243 0.17707 0.0
C779 C 0.38544 0.3672 0.15082 0.0
C780 C 0.39981 0.36041 0.1236 0.0
C781 C 0.36049 0.38113 0.20243 0.0
C782 C 0.38838 0.37307 0.20185 0.0
C783 C 0.40036 0.36596 0.17611 0.0
C784 C 0.40588 0.37219 0.22748 0.0
C785 C 0.3462 0.38802 0.22962 0.0
C786 C 0.41161 0.39408 0.24279 0.0
C787 C 0.43026 0.39353 0.26534 0.0
C788 C 0.44376 0.37111 0.27273 0.0
C789 C 0.43745 0.34912 0.25772 0.0
C790 C 0.41875 0.34968 0.23532 0.0
H791 H 0.32333 0.38687 0.22762 0.0
H792 H 0.35292 0.37561 0.24713 0.0
H793 H 0.35159 0.40758 0.23524 0.0
H794 H 0.40237 0.41177 0.23673 0.0
H795 H 0.4347 0.41081 0.27639 0.0
H796 H 0.68559 0.66475 0.56754 0.0
H797 H 0.66308 0.66979 0.61349 0.0
H798 H 0.67282 0.59076 0.62957 0.0
H799 H 0.69583 0.58568 0.58401 0.0
H800 H 0.61397 0.64489 0.62817 0.0
H801 H 0.69788 0.62279 0.70403 0.0
H802 H 0.70458 0.63108 0.66773 0.0
H803 H 0.69351 0.59993 0.67663 0.0
C804 C 0.68354 0.64858 0.58117 0.0
C805 C 0.69243 0.62481 0.57216 0.0
C806 C 0.67056 0.65146 0.60733 0.0
C807 C 0.66655 0.6307 0.62504 0.0
C808 C 0.67614 0.6071 0.61646 0.0
H809 H 0.57119 0.5978 0.77473 0.0
H810 H 0.603 0.59718 0.73454 0.0
C811 C 0.68901 0.60419 0.5903 0.0
C812 C 0.65009 0.63321 0.65123 0.0
H813 H 0.65196 0.62397 0.72246 0.0
C814 C 0.62233 0.64059 0.64883 0.0
C815 C 0.66104 0.62734 0.67807 0.0
C816 C 0.69096 0.62005 0.68192 0.0
C817 C 0.60498 0.64168 0.67249 0.0
C818 C 0.61587 0.63575 0.69937 0.0
C819 C 0.6437 0.62853 0.70182 0.0
C820 C 0.59844 0.63661 0.72505 0.0
C821 C 0.57489 0.64839 0.66835 0.0
C822 C 0.58602 0.65914 0.73349 0.0
C823 C 0.56774 0.65954 0.75628 0.0
C824 C 0.56171 0.63745 0.77125 0.0
C825 C 0.57524 0.61512 0.76356 0.0
C826 C 0.59345 0.61473 0.74063 0.0
H827 H 0.56835 0.64611 0.64605 0.0
H828 H 0.56135 0.63663 0.68186 0.0
H829 H 0.57165 0.66828 0.67429 0.0
H830 H 0.5901 0.67635 0.72213 0.0
H831 H 0.55799 0.67713 0.76186 0.0
H832 H 0.68914 0.41785 0.08638 0.0
H833 H 0.66672 0.41095 0.13181 0.0
H834 H 0.66769 0.33121 0.11728 0.0
H835 H 0.68906 0.33804 0.07114 0.0
H836 H 0.6173 0.34747 0.13306 0.0
H837 H 0.69533 0.38592 0.20642 0.0
H838 H 0.68642 0.40791 0.1793 0.0
H839 H 0.70318 0.37891 0.17005 0.0
C840 C 0.68469 0.39882 0.09287 0.0
C841 C 0.6908 0.3785 0.07505 0.0
C842 C 0.67222 0.39488 0.11906 0.0
C843 C 0.66593 0.37053 0.12819 0.0
C844 C 0.67259 0.35014 0.11077 0.0
H845 H 0.5671 0.32472 0.27533 0.0
H846 H 0.60028 0.32375 0.23621 0.0
C847 C 0.68498 0.35408 0.08448 0.0
C848 C 0.65024 0.36662 0.15472 0.0
H849 H 0.64894 0.38197 0.22462 0.0
C850 C 0.62445 0.3546 0.15318 0.0
C851 C 0.65959 0.37593 0.18097 0.0
C852 C 0.68778 0.38766 0.18438 0.0
C853 C 0.60722 0.35267 0.1769 0.0
C854 C 0.61611 0.3629 0.20281 0.0
C855 C 0.64221 0.37423 0.20463 0.0
C856 C 0.59769 0.36348 0.22769 0.0
C857 C 0.57911 0.34069 0.17388 0.0
C858 C 0.58579 0.38622 0.23609 0.0
C859 C 0.56679 0.38685 0.25825 0.0
C860 C 0.55948 0.36474 0.27257 0.0
C861 C 0.5722 0.34207 0.26469 0.0
C862 C 0.5911 0.34145 0.24234 0.0
H863 H 0.57399 0.3364 0.15157 0.0
H864 H 0.57863 0.32295 0.18608 0.0
H865 H 0.56285 0.3532 0.18261 0.0
H866 H 0.59071 0.40341 0.22502 0.0
H867 H 0.55756 0.40465 0.2639 0.0
H868 H 0.32024 0.59345 0.58229 0.0
H869 H 0.34354 0.60035 0.62734 0.0
H870 H 0.34354 0.67996 0.61223 0.0
H871 H 0.32072 0.67323 0.56663 0.0
H872 H 0.39866 0.63091 0.6275 0.0
H873 H 0.31451 0.66516 0.69813 0.0
H874 H 0.30736 0.64446 0.66889 0.0
H875 H 0.31661 0.6764 0.6623 0.0
C876 C 0.32508 0.61246 0.58856 0.0
C877 C 0.31892 0.63278 0.57074 0.0
C878 C 0.33819 0.61635 0.61437 0.0
C879 C 0.3451 0.64063 0.62302 0.0
C880 C 0.33806 0.6611 0.60594 0.0
H881 H 0.43968 0.68362 0.77327 0.0
H882 H 0.40898 0.68499 0.73209 0.0
C883 C 0.32499 0.65722 0.57997 0.0
C884 C 0.36204 0.64407 0.64861 0.0
H885 H 0.35875 0.65969 0.71831 0.0
C886 C 0.39003 0.63735 0.64734 0.0
C887 C 0.35065 0.65274 0.67422 0.0
C888 C 0.32061 0.66011 0.67627 0.0
C889 C 0.40695 0.6386 0.67125 0.0
C890 C 0.39533 0.64617 0.69728 0.0
C891 C 0.3675 0.65372 0.69836 0.0
C892 C 0.41166 0.64524 0.72366 0.0
C893 C 0.43714 0.63178 0.66841 0.0
C894 C 0.42248 0.62233 0.73305 0.0
C895 C 0.44005 0.62149 0.75632 0.0
C896 C 0.44696 0.64354 0.7709 0.0
C897 C 0.43488 0.66632 0.7624 0.0
C898 C 0.41735 0.66715 0.73891 0.0
H899 H 0.44439 0.6336 0.64627 0.0
H900 H 0.45027 0.64379 0.68204 0.0
H901 H 0.44011 0.612 0.67494 0.0
H902 H 0.41779 0.60512 0.72194 0.0
H903 H 0.44863 0.60358 0.76256 0.0
H904 H 0.81097 0.92276 0.08352 0.0
H905 H 0.83473 0.91753 0.12871 0.0
H906 H 0.84266 0.8383 0.11304 0.0
H907 H 0.81961 0.84345 0.06746 0.0
H908 H 0.82372 0.88625 0.17672 0.0
H909 H 0.92305 0.86299 0.12355 0.0
H910 H 0.89415 0.87667 0.105 0.0
H911 H 0.89405 0.8439 0.11363 0.0
C912 C 0.81773 0.90421 0.08973 0.0
C913 C 0.81369 0.88356 0.07178 0.0
C914 C 0.83111 0.90124 0.11561 0.0
C915 C 0.84079 0.87761 0.12396 0.0
C916 C 0.83567 0.85676 0.10675 0.0
H917 H 0.9498 0.83137 0.25959 0.0
H918 H 0.91701 0.83229 0.22049 0.0
C919 C 0.82227 0.8597 0.08085 0.0
C920 C 0.85752 0.8751 0.14993 0.0
H921 H 0.92258 0.86135 0.17317 0.0
C922 C 0.84532 0.88075 0.17602 0.0
C923 C 0.8857 0.86802 0.14886 0.0
C924 C 0.90017 0.86273 0.12128 0.0
C925 C 0.86055 0.87924 0.20119 0.0
C926 C 0.8888 0.87234 0.20006 0.0
C927 C 0.90089 0.86654 0.17397 0.0
C928 C 0.90655 0.87144 0.22551 0.0
C929 C 0.84621 0.8847 0.22876 0.0
C930 C 0.91142 0.89315 0.24144 0.0
C931 C 0.93016 0.8927 0.2639 0.0
C932 C 0.94459 0.87058 0.27061 0.0
C933 C 0.93918 0.84876 0.25494 0.0
C934 C 0.9204 0.84922 0.23259 0.0
H935 H 0.82339 0.88277 0.22689 0.0
H936 H 0.85364 0.87199 0.24568 0.0
H937 H 0.85077 0.90425 0.23517 0.0
H938 H 0.90139 0.91063 0.23597 0.0
H939 H 0.93387 0.90985 0.27548 0.0
H940 H 0.22071 0.13226 0.59025 0.0
H941 H 0.19874 0.1347 0.63685 0.0
H942 H 0.11867 0.12487 0.59829 0.0
H943 H 0.14049 0.12202 0.55192 0.0
H944 H 0.16024 0.16608 0.65933 0.0
H945 H 0.11893 0.06953 0.65648 0.0
H946 H 0.14415 0.08071 0.63141 0.0
H947 H 0.10796 0.08751 0.62656 0.0
C948 C 0.19841 0.1308 0.59177 0.0
C949 C 0.18231 0.12664 0.56755 0.0
C950 C 0.18591 0.1321 0.61836 0.0
C951 C 0.15714 0.12932 0.6211 0.0
C952 C 0.14097 0.12626 0.59678 0.0
H953 H 0.04606 0.17265 0.75265 0.0
H954 H 0.07787 0.17031 0.71291 0.0
C955 C 0.15344 0.12475 0.5703 0.0
C956 C 0.14382 0.12967 0.64928 0.0
H957 H 0.09928 0.0969 0.69116 0.0
C958 C 0.14715 0.15085 0.66646 0.0
C959 C 0.12728 0.10953 0.65889 0.0
C960 C 0.1246 0.08543 0.6425 0.0
C961 C 0.13332 0.15292 0.69241 0.0
C962 C 0.11518 0.13355 0.70103 0.0
C963 C 0.11289 0.1119 0.68443 0.0
C964 C 0.09731 0.13577 0.72638 0.0
C965 C 0.13835 0.17582 0.7103 0.0
C966 C 0.09715 0.11684 0.74696 0.0
C967 C 0.07857 0.11788 0.76955 0.0
C968 C 0.05979 0.1379 0.77198 0.0
C969 C 0.06036 0.15705 0.75159 0.0
C970 C 0.07874 0.15586 0.72892 0.0
H971 H 0.15905 0.18402 0.70601 0.0
H972 H 0.12262 0.19027 0.70515 0.0
H973 H 0.13686 0.1714 0.73313 0.0
H974 H 0.11118 0.10106 0.74534 0.0
H975 H 0.07871 0.10286 0.78492 0.0
H976 H 0.19144 0.9141 0.08546 0.0
H977 H 0.16926 0.9065 0.13099 0.0
H978 H 0.16019 0.82832 0.11016 0.0
H979 H 0.18186 0.83589 0.06422 0.0
H980 H 0.1114 0.85095 0.12821 0.0
H981 H 0.1969 0.87145 0.20246 0.0
H982 H 0.1916 0.89573 0.17682 0.0
H983 H 0.20268 0.86517 0.16549 0.0
C984 C 0.18488 0.89525 0.09065 0.0
C985 C 0.18833 0.8756 0.07124 0.0
C986 C 0.17251 0.89089 0.1168 0.0
C987 C 0.16346 0.86678 0.12411 0.0
C988 C 0.1673 0.84701 0.10501 0.0
H989 H 0.07392 0.82657 0.27961 0.0
H990 H 0.10618 0.82445 0.23966 0.0
C991 C 0.17977 0.85135 0.07885 0.0
C992 C 0.14786 0.8628 0.15062 0.0
H993 H 0.15092 0.87165 0.22189 0.0
C994 C 0.12018 0.85504 0.14873 0.0
C995 C 0.1594 0.8681 0.17738 0.0
C996 C 0.18937 0.87534 0.18077 0.0
C997 C 0.10337 0.85359 0.17278 0.0
C998 C 0.11456 0.86004 0.19927 0.0
C999 C 0.14248 0.86681 0.20143 0.0
C1000 C 0.09677 0.86168 0.22448 0.0
C1001 C 0.07346 0.84602 0.16975 0.0
C1002 C 0.08128 0.88345 0.22918 0.0
C1003 C 0.06294 0.88477 0.25185 0.0
C1004 C 0.05968 0.86426 0.27022 0.0
C1005 C 0.07586 0.84266 0.26582 0.0
C1006 C 0.0943 0.8414 0.24309 0.0
H1007 H 0.06865 0.83914 0.1482 0.0
H1008 H 0.06833 0.83111 0.18523 0.0
H1009 H 0.06 0.86237 0.17437 0.0
H1010 H 0.08301 0.89926 0.21496 0.0
H1011 H 0.05094 0.90173 0.25461 0.0
H1012 H 0.868 0.14412 0.54972 0.0
H1013 H 0.88985 0.14879 0.59595 0.0
H1014 H 0.81091 0.13695 0.63634 0.0
H1015 H 0.78879 0.1333 0.5899 0.0
H1016 H 0.84037 0.17193 0.66382 0.0
H1017 H 0.90657 0.08913 0.64436 0.0
H1018 H 0.91172 0.11291 0.6182 0.0
H1019 H 0.87858 0.0977 0.62118 0.0
C1020 C 0.85533 0.14278 0.56851 0.0
C1021 C 0.82683 0.13812 0.56641 0.0
C1022 C 0.86781 0.14528 0.59487 0.0
C1023 C 0.85216 0.14247 0.61962 0.0
C1024 C 0.82342 0.13897 0.61753 0.0
H1025 H 0.93683 0.10481 0.77529 0.0
H1026 H 0.90526 0.10504 0.73509 0.0
C1027 C 0.81081 0.13691 0.59107 0.0
C1028 C 0.86601 0.14226 0.64753 0.0
H1029 H 0.91845 0.11432 0.68394 0.0
C1030 C 0.85731 0.15922 0.66836 0.0
C1031 C 0.88766 0.12525 0.65369 0.0
C1032 C 0.89647 0.10504 0.63329 0.0
C1033 C 0.87022 0.16009 0.6949 0.0
C1034 C 0.89298 0.14409 0.7004 0.0
C1035 C 0.90118 0.12677 0.67974 0.0
C1036 C 0.90896 0.14487 0.72716 0.0
C1037 C 0.85898 0.17784 0.71684 0.0
C1038 C 0.92113 0.16726 0.73659 0.0
C1039 C 0.93872 0.16723 0.76001 0.0
C1040 C 0.94506 0.14468 0.77388 0.0
C1041 C 0.9324 0.12243 0.76486 0.0
C1042 C 0.91438 0.12255 0.74189 0.0
H1043 H 0.83676 0.18202 0.7131 0.0
H1044 H 0.86129 0.17008 0.73844 0.0
H1045 H 0.87046 0.1958 0.71566 0.0
H1046 H 0.91797 0.18459 0.72518 0.0
H1047 H 0.94845 0.18461 0.76634 0.0
loop_
_geom_bond_atom_site_label_1
_geom_bond_atom_site_label_2
_geom_bond_distance
_geom_bond_site_symmetry_2
_ccdc_geom_bond_type
H0 C5 0.930 . S
H1 C8 0.930 . S
H2 C10 0.930 . S
H3 C4 1.016 . S
C4 H3 1.016 . S
C4 N11 1.279 1_556 S
C5 H0 0.930 . S
C5 C6 1.397 . S
C5 C7 1.361 . S
C6 C5 1.397 . S
C6 C10 1.390 . S
C7 C5 1.361 . S
C7 C8 1.393 1_554 S
C7 N11 1.416 . S
C8 H1 0.930 . S
C8 C7 1.393 1_556 S
C8 C9 1.410 . S
C9 C8 1.410 . S
C9 C10 1.347 1_556 S
C10 H2 0.930 . S
C10 C6 1.390 . S
C10 C9 1.347 1_554 S
N11 C4 1.279 1_554 S
N11 C7 1.416 . S
H12 C17 0.930 . S
H13 C20 0.930 . S
H14 C22 0.930 . S
H15 C16 1.016 . S
C16 H15 1.016 . S
C16 N23 1.286 . S
C17 H12 0.930 . S
C17 C18 1.397 . S
C17 C19 1.361 . S
C18 C17 1.397 . S
C18 C22 1.390 . S
C19 C17 1.361 . S
C19 C20 1.393 . S
C19 N23 1.413 . S
C20 H13 0.930 . S
C20 C19 1.393 . S
C20 C21 1.399 . S
C21 C20 1.399 . S
C21 C22 1.381 . S
C22 H14 0.930 . S
C22 C18 1.390 . S
C22 C21 1.381 . S
N23 C16 1.286 . S
N23 C19 1.413 . S
H24 C29 0.930 . S
H25 C32 0.930 . S
H26 C34 0.930 . S
H27 C28 1.016 . S
C28 H27 1.016 . S
C28 N35 1.286 1_556 S
C29 H24 0.930 . S
C29 C30 1.397 . S
C29 C31 1.361 . S
C30 C29 1.397 . S
C30 C34 1.390 . S
C31 C29 1.361 . S
C31 C32 1.393 1_554 S
C31 N35 1.413 . S
C32 H25 0.930 . S
C32 C31 1.393 1_556 S
C32 C33 1.399 . S
C33 C32 1.399 . S
C33 C34 1.381 1_556 S
C34 H26 0.930 . S
C34 C30 1.390 . S
C34 C33 1.381 1_554 S
N35 C28 1.286 1_554 S
N35 C31 1.413 . S
H36 C41 0.930 . S
H37 C44 0.930 . S
H38 C46 0.930 . S
H39 C40 1.016 . S
C40 H39 1.016 . S
C40 N47 1.286 . S
C41 H36 0.930 . S
C41 C42 1.397 . S
C41 C43 1.361 . S
C42 C41 1.397 . S
C42 C46 1.390 . S
C43 C41 1.361 . S
C43 C44 1.393 . S
C43 N47 1.413 . S
C44 H37 0.930 . S
C44 C43 1.393 . S
C44 C45 1.399 . S
C45 C44 1.399 . S
C45 C46 1.381 . S
C46 H38 0.930 . S
C46 C42 1.390 . S
C46 C45 1.381 . S
N47 C40 1.286 . S
N47 C43 1.413 . S
H48 C53 0.930 . S
H49 C56 0.930 . S
H50 C58 0.930 . S
H51 C52 1.016 . S
C52 H51 1.016 . S
C52 N59 1.279 1_556 S
C53 H48 0.930 . S
C53 C54 1.397 . S
C53 C55 1.361 . S
C54 C53 1.397 . S
C54 C58 1.390 . S
C55 C53 1.361 . S
C55 C56 1.393 1_554 S
C55 N59 1.416 . S
C56 H49 0.930 . S
C56 C55 1.393 1_556 S
C56 C57 1.411 . S
C57 C56 1.411 . S
C57 C58 1.347 1_556 S
C58 H50 0.930 . S
C58 C54 1.390 . S
C58 C57 1.347 1_554 S
N59 C52 1.279 1_554 S
N59 C55 1.416 . S
H60 C65 0.930 . S
H61 C68 0.930 . S
H62 C70 0.930 . S
H63 C64 1.016 . S
C64 H63 1.016 . S
C64 N71 1.286 . S
C65 H60 0.930 . S
C65 C66 1.397 . S
C65 C67 1.361 . S
C66 C65 1.397 . S
C66 C70 1.390 . S
C67 C65 1.361 . S
C67 C68 1.393 . S
C67 N71 1.413 . S
C68 H61 0.930 . S
C68 C67 1.393 . S
C68 C69 1.399 . S
C69 C68 1.399 . S
C69 C70 1.381 . S
C70 H62 0.930 . S
C70 C66 1.390 . S
C70 C69 1.381 . S
N71 C64 1.286 . S
N71 C67 1.413 . S
H72 C77 0.930 . S
H73 C80 0.930 . S
H74 C82 0.930 . S
H75 C76 1.016 . S
C76 H75 1.016 . S
C76 N83 1.286 1_556 S
C77 H72 0.930 . S
C77 C78 1.397 . S
C77 C79 1.361 . S
C78 C77 1.397 . S
C78 C82 1.390 . S
C79 C77 1.361 . S
C79 C80 1.393 1_554 S
C79 N83 1.413 . S
C80 H73 0.930 . S
C80 C79 1.393 1_556 S
C80 C81 1.399 . S
C81 C80 1.399 . S
C81 C82 1.381 1_556 S
C82 H74 0.930 . S
C82 C78 1.390 . S
C82 C81 1.381 1_554 S
N83 C76 1.286 1_554 S
N83 C79 1.413 . S
H84 C89 0.930 . S
H85 C92 0.930 . S
H86 C94 0.930 . S
H87 C88 1.016 . S
C88 H87 1.016 . S
C88 N95 1.286 . S
C89 H84 0.930 . S
C89 C90 1.397 . S
C89 C91 1.361 . S
C90 C89 1.397 . S
C90 C94 1.390 . S
C91 C89 1.361 . S
C91 C92 1.393 . S
C91 N95 1.413 . S
C92 H85 0.930 . S
C92 C91 1.393 . S
C92 C93 1.399 . S
C93 C92 1.399 . S
C93 C94 1.381 . S
C94 H86 0.930 . S
C94 C90 1.390 . S
C94 C93 1.381 . S
N95 C88 1.286 . S
N95 C91 1.413 . S
Fe96 O98 1.918 . S
Fe96 O101 1.997 1_455 S
Fe96 O102 2.002 1_455 S
Fe96 O107 1.976 . S
Fe96 O110 1.996 . S
Fe97 O98 1.918 . S
Fe97 O105 1.997 1_455 S
Fe97 O108 1.996 . S
Fe97 O112 1.976 . S
Fe97 O115 2.002 1_455 S
O98 Fe96 1.918 . S
O98 Fe97 1.918 . S
O98 Fe99 1.918 . S
Fe99 O98 1.918 . S
Fe99 O100 2.002 1_455 S
Fe99 O109 1.976 . S
Fe99 O113 1.996 . S
Fe99 O116 1.997 1_455 S
O100 Fe99 2.002 1_655 S
O100 C117 1.295 . S
O101 Fe96 1.997 1_655 S
O101 C117 1.235 . S
O102 Fe96 2.002 1_655 S
O102 C103 1.295 . S
C103 O102 1.295 . S
C103 O105 1.235 . S
C104 O109 1.287 . S
C104 O110 1.255 . S
O105 Fe97 1.997 1_655 S
O105 C103 1.235 . S
C106 O112 1.287 . S
C106 O113 1.255 . S
O107 Fe96 1.976 . S
O107 C114 1.287 . S
O108 Fe97 1.996 . S
O108 C114 1.255 . S
O109 Fe99 1.976 . S
O109 C104 1.287 . S
O110 Fe96 1.996 . S
O110 C104 1.255 . S
C111 O115 1.295 . S
C111 O116 1.235 . S
O112 Fe97 1.976 . S
O112 C106 1.287 . S
O113 Fe99 1.996 . S
O113 C106 1.255 . S
C114 O107 1.287 . S
C114 O108 1.255 . S
O115 Fe97 2.002 1_655 S
O115 C111 1.295 . S
O116 Fe99 1.997 1_655 S
O116 C111 1.235 . S
C117 O100 1.295 . S
C117 O101 1.235 . S
Fe118 O120 1.918 . S
Fe118 O123 1.997 1_655 S
Fe118 O124 2.002 1_655 S
Fe118 O129 1.976 . S
Fe118 O132 1.996 . S
Fe119 O120 1.918 . S
Fe119 O127 1.997 1_655 S
Fe119 O130 1.996 . S
Fe119 O134 1.976 . S
Fe119 O137 2.002 1_655 S
O120 Fe118 1.918 . S
O120 Fe119 1.918 . S
O120 Fe121 1.918 . S
Fe121 O120 1.918 . S
Fe121 O122 2.002 1_655 S
Fe121 O131 1.976 . S
Fe121 O135 1.996 . S
Fe121 O138 1.997 1_655 S
O122 Fe121 2.002 1_455 S
O122 C139 1.295 . S
O123 Fe118 1.997 1_455 S
O123 C139 1.235 . S
O124 Fe118 2.002 1_455 S
O124 C125 1.295 . S
C125 O124 1.295 . S
C125 O127 1.235 . S
C126 O131 1.287 . S
C126 O132 1.255 . S
O127 Fe119 1.997 1_455 S
O127 C125 1.235 . S
C128 O134 1.287 . S
C128 O135 1.255 . S
O129 Fe118 1.976 . S
O129 C136 1.287 . S
O130 Fe119 1.996 . S
O130 C136 1.255 . S
O131 Fe121 1.976 . S
O131 C126 1.287 . S
O132 Fe118 1.996 . S
O132 C126 1.255 . S
C133 O137 1.295 . S
C133 O138 1.235 . S
O134 Fe119 1.976 . S
O134 C128 1.287 . S
O135 Fe121 1.996 . S
O135 C128 1.255 . S
C136 O129 1.287 . S
C136 O130 1.255 . S
O137 Fe119 2.002 1_455 S
O137 C133 1.295 . S
O138 Fe121 1.997 1_455 S
O138 C133 1.235 . S
C139 O122 1.295 . S
C139 O123 1.235 . S
Fe140 O142 1.918 . S
Fe140 O145 1.997 . S
Fe140 O146 2.002 . S
Fe140 O151 1.976 . S
Fe140 O154 1.996 . S
Fe141 O142 1.918 . S
Fe141 O149 1.997 . S
Fe141 O152 1.996 . S
Fe141 O156 1.976 . S
Fe141 O159 2.002 . S
O142 Fe140 1.918 . S
O142 Fe141 1.918 . S
O142 Fe143 1.918 . S
Fe143 O142 1.918 . S
Fe143 O144 2.002 . S
Fe143 O153 1.976 . S
Fe143 O157 1.996 . S
Fe143 O160 1.997 . S
O144 Fe143 2.002 . S
O144 C161 1.295 . S
O145 Fe140 1.997 . S
O145 C161 1.235 . S
O146 Fe140 2.002 . S
O146 C147 1.295 . S
C147 O146 1.295 . S
C147 O149 1.235 . S
C148 O153 1.287 . S
C148 O154 1.255 . S
O149 Fe141 1.997 . S
O149 C147 1.235 . S
C150 O156 1.287 . S
C150 O157 1.255 . S
O151 Fe140 1.976 . S
O151 C158 1.287 . S
O152 Fe141 1.996 . S
O152 C158 1.255 . S
O153 Fe143 1.976 . S
O153 C148 1.287 . S
O154 Fe140 1.996 . S
O154 C148 1.255 . S
C155 O159 1.295 . S
C155 O160 1.235 . S
O156 Fe141 1.976 . S
O156 C150 1.287 . S
O157 Fe143 1.996 . S
O157 C150 1.255 . S
C158 O151 1.287 . S
C158 O152 1.255 . S
O159 Fe141 2.002 . S
O159 C155 1.295 . S
O160 Fe143 1.997 . S
O160 C155 1.235 . S
C161 O144 1.295 . S
C161 O145 1.235 . S
Fe162 O164 1.918 . S
Fe162 O167 1.997 . S
Fe162 O168 2.002 . S
Fe162 O173 1.976 . S
Fe162 O176 1.996 . S
Fe163 O164 1.918 . S
Fe163 O171 1.997 . S
Fe163 O174 1.996 . S
Fe163 O178 1.976 . S
Fe163 O181 2.002 . S
O164 Fe162 1.918 . S
O164 Fe163 1.918 . S
O164 Fe165 1.918 . S
Fe165 O164 1.918 . S
Fe165 O166 2.002 . S
Fe165 O175 1.976 . S
Fe165 O179 1.996 . S
Fe165 O182 1.997 . S
O166 Fe165 2.002 . S
O166 C183 1.295 . S
O167 Fe162 1.997 . S
O167 C183 1.235 . S
O168 Fe162 2.002 . S
O168 C169 1.295 . S
C169 O168 1.295 . S
C169 O171 1.235 . S
C170 O175 1.287 . S
C170 O176 1.255 . S
O171 Fe163 1.997 . S
O171 C169 1.235 . S
C172 O178 1.287 . S
C172 O179 1.255 . S
O173 Fe162 1.976 . S
O173 C180 1.287 . S
O174 Fe163 1.996 . S
O174 C180 1.255 . S
O175 Fe165 1.976 . S
O175 C170 1.287 . S
O176 Fe162 1.996 . S
O176 C170 1.255 . S
C177 O181 1.295 . S
C177 O182 1.235 . S
O178 Fe163 1.976 . S
O178 C172 1.287 . S
O179 Fe165 1.996 . S
O179 C172 1.255 . S
C180 O173 1.287 . S
C180 O174 1.255 . S
O181 Fe163 2.002 . S
O181 C177 1.295 . S
O182 Fe165 1.997 . S
O182 C177 1.235 . S
C183 O166 1.295 . S
C183 O167 1.235 . S
H184 C192 0.929 . S
H185 C194 0.930 . S
H186 C196 0.930 . S
H187 C199 0.929 1_554 S
H188 C202 0.930 . S
H189 C204 0.960 . S
H190 C204 0.960 . S
H191 C204 0.960 . S
C192 H184 0.929 . S
C192 C193 1.377 . S
C192 C194 1.384 . S
C193 C192 1.377 . S
C193 C199 1.390 . S
C194 H185 0.930 . S
C194 C192 1.384 . S
C194 C195 1.372 . S
C195 C194 1.372 . S
C195 C196 1.400 . S
C195 C200 1.490 . S
C196 H186 0.930 . S
C196 C195 1.400 . S
C196 C199 1.386 . S
H197 C213 0.930 . S
H198 C214 0.931 . S
C199 H187 0.929 1_556 S
C199 C193 1.390 . S
C199 C196 1.386 . S
C200 C195 1.490 . S
C200 C202 1.395 . S
C200 C203 1.403 . S
H201 C207 0.930 . S
C202 H188 0.930 . S
C202 C200 1.395 . S
C202 C205 1.403 . S
C203 C200 1.403 . S
C203 C204 1.524 . S
C203 C207 1.400 . S
C204 H189 0.960 . S
C204 H190 0.960 . S
C204 H191 0.960 . S
C204 C203 1.524 . S
C205 C202 1.403 . S
C205 C206 1.392 . S
C205 C209 1.495 . S
C206 C205 1.392 . S
C206 C207 1.385 . S
C206 C208 1.478 . S
C207 H201 0.930 . S
C207 C203 1.400 . S
C207 C206 1.385 . S
C208 C206 1.478 . S
C208 C210 1.381 . S
C208 C214 1.383 . S
C209 C205 1.495 . S
C209 H215 0.959 . S
C209 H216 0.961 . S
C209 H217 0.960 . S
C210 C208 1.381 . S
C210 C211 1.394 . S
C210 H218 0.930 . S
C211 C210 1.394 . S
C211 C212 1.383 . S
C211 H219 0.929 . S
C212 C211 1.383 . S
C212 C213 1.377 . S
C213 H197 0.930 . S
C213 C212 1.377 . S
C213 C214 1.379 . S
C214 H198 0.931 . S
C214 C208 1.383 . S
C214 C213 1.379 . S
H215 C209 0.959 . S
H216 C209 0.961 . S
H217 C209 0.960 . S
H218 C210 0.930 . S
H219 C211 0.929 . S
H220 C228 0.929 . S
H221 C230 0.930 . S
H222 C232 0.930 . S
H223 C235 0.929 . S
H224 C238 0.930 . S
H225 C240 0.960 . S
H226 C240 0.960 . S
H227 C240 0.960 . S
C228 H220 0.929 . S
C228 C229 1.377 . S
C228 C230 1.384 . S
C229 C228 1.377 . S
C229 C235 1.390 . S
C230 H221 0.930 . S
C230 C228 1.384 . S
C230 C231 1.372 . S
C231 C230 1.372 . S
C231 C232 1.400 . S
C231 C236 1.490 . S
C232 H222 0.930 . S
C232 C231 1.400 . S
C232 C235 1.386 . S
H233 C249 0.930 . S
H234 C250 0.931 . S
C235 H223 0.929 . S
C235 C229 1.390 . S
C235 C232 1.386 . S
C236 C231 1.490 . S
C236 C238 1.395 . S
C236 C239 1.403 . S
H237 C243 0.930 . S
C238 H224 0.930 . S
C238 C236 1.395 . S
C238 C241 1.403 . S
C239 C236 1.403 . S
C239 C240 1.524 . S
C239 C243 1.400 . S
C240 H225 0.960 . S
C240 H226 0.960 . S
C240 H227 0.960 . S
C240 C239 1.524 . S
C241 C238 1.403 . S
C241 C242 1.392 . S
C241 C245 1.495 . S
C242 C241 1.392 . S
C242 C243 1.385 . S
C242 C244 1.478 . S
C243 H237 0.930 . S
C243 C239 1.400 . S
C243 C242 1.385 . S
C244 C242 1.478 . S
C244 C246 1.381 . S
C244 C250 1.383 . S
C245 C241 1.495 . S
C245 H251 0.959 . S
C245 H252 0.961 . S
C245 H253 0.960 . S
C246 C244 1.381 . S
C246 C247 1.394 . S
C246 H254 0.930 . S
C247 C246 1.394 . S
C247 C248 1.383 . S
C247 H255 0.929 . S
C248 C247 1.383 . S
C248 C249 1.377 . S
C249 H233 0.930 . S
C249 C248 1.377 . S
C249 C250 1.379 . S
C250 H234 0.931 . S
C250 C244 1.383 . S
C250 C249 1.379 . S
H251 C245 0.959 . S
H252 C245 0.961 . S
H253 C245 0.960 . S
H254 C246 0.930 . S
H255 C247 0.929 . S
H256 C264 0.929 . S
H257 C266 0.930 . S
H258 C268 0.930 . S
H259 C271 0.929 . S
H260 C274 0.930 . S
H261 C276 0.960 . S
H262 C276 0.960 . S
H263 C276 0.960 . S
C264 H256 0.929 . S
C264 C265 1.377 . S
C264 C266 1.384 . S
C265 C264 1.377 . S
C265 C271 1.390 . S
C266 H257 0.930 . S
C266 C264 1.384 . S
C266 C267 1.372 . S
C267 C266 1.372 . S
C267 C268 1.400 . S
C267 C272 1.490 . S
C268 H258 0.930 . S
C268 C267 1.400 . S
C268 C271 1.386 . S
H269 C285 0.930 . S
H270 C286 0.931 . S
C271 H259 0.929 . S
C271 C265 1.390 . S
C271 C268 1.386 . S
C272 C267 1.490 . S
C272 C274 1.395 . S
C272 C275 1.403 . S
H273 C279 0.930 . S
C274 H260 0.930 . S
C274 C272 1.395 . S
C274 C277 1.403 . S
C275 C272 1.403 . S
C275 C276 1.524 . S
C275 C279 1.400 . S
C276 H261 0.960 . S
C276 H262 0.960 . S
C276 H263 0.960 . S
C276 C275 1.524 . S
C277 C274 1.403 . S
C277 C278 1.392 . S
C277 C281 1.495 . S
C278 C277 1.392 . S
C278 C279 1.385 . S
C278 C280 1.478 . S
C279 H273 0.930 . S
C279 C275 1.400 . S
C279 C278 1.385 . S
C280 C278 1.478 . S
C280 C282 1.381 . S
C280 C286 1.383 . S
C281 C277 1.495 . S
C281 H287 0.959 . S
C281 H288 0.961 . S
C281 H289 0.960 . S
C282 C280 1.381 . S
C282 C283 1.394 . S
C282 H290 0.930 . S
C283 C282 1.394 . S
C283 C284 1.383 . S
C283 H291 0.929 . S
C284 C283 1.383 . S
C284 C285 1.377 . S
C285 H269 0.930 . S
C285 C284 1.377 . S
C285 C286 1.379 . S
C286 H270 0.931 . S
C286 C280 1.383 . S
C286 C285 1.379 . S
H287 C281 0.959 . S
H288 C281 0.961 . S
H289 C281 0.960 . S
H290 C282 0.930 . S
H291 C283 0.929 . S
H292 C300 0.929 . S
H293 C302 0.930 . S
H294 C304 0.930 . S
H295 C307 0.929 . S
H296 C310 0.930 . S
H297 C312 0.960 . S
H298 C312 0.960 . S
H299 C312 0.960 . S
C300 H292 0.929 . S
C300 C301 1.377 . S
C300 C302 1.384 . S
C301 C300 1.377 . S
C301 C307 1.390 . S
C302 H293 0.930 . S
C302 C300 1.384 . S
C302 C303 1.372 . S
C303 C302 1.372 . S
C303 C304 1.400 . S
C303 C308 1.490 . S
C304 H294 0.930 . S
C304 C303 1.400 . S
C304 C307 1.386 . S
H305 C321 0.930 . S
H306 C322 0.931 . S
C307 H295 0.929 . S
C307 C301 1.390 . S
C307 C304 1.386 . S
C308 C303 1.490 . S
C308 C310 1.395 . S
C308 C311 1.403 . S
H309 C315 0.930 . S
C310 H296 0.930 . S
C310 C308 1.395 . S
C310 C313 1.403 . S
C311 C308 1.403 . S
C311 C312 1.524 . S
C311 C315 1.400 . S
C312 H297 0.960 . S
C312 H298 0.960 . S
C312 H299 0.960 . S
C312 C311 1.524 . S
C313 C310 1.403 . S
C313 C314 1.392 . S
C313 C317 1.495 . S
C314 C313 1.392 . S
C314 C315 1.385 . S
C314 C316 1.478 . S
C315 H309 0.930 . S
C315 C311 1.400 . S
C315 C314 1.385 . S
C316 C314 1.478 . S
C316 C318 1.381 . S
C316 C322 1.383 . S
C317 C313 1.495 . S
C317 H323 0.959 . S
C317 H324 0.961 . S
C317 H325 0.960 . S
C318 C316 1.381 . S
C318 C319 1.394 . S
C318 H326 0.930 . S
C319 C318 1.394 . S
C319 C320 1.383 . S
C319 H327 0.929 . S
C320 C319 1.383 . S
C320 C321 1.377 . S
C321 H305 0.930 . S
C321 C320 1.377 . S
C321 C322 1.379 . S
C322 H306 0.931 . S
C322 C316 1.383 . S
C322 C321 1.379 . S
H323 C317 0.959 . S
H324 C317 0.961 . S
H325 C317 0.960 . S
H326 C318 0.930 . S
H327 C319 0.929 . S
H328 C336 0.929 1_554 S
H329 C338 0.930 . S
H330 C340 0.930 . S
H331 C343 0.929 . S
H332 C346 0.930 . S
H333 C348 0.960 . S
H334 C348 0.960 . S
H335 C348 0.960 . S
C336 H328 0.929 1_556 S
C336 C337 1.377 . S
C336 C338 1.384 . S
C337 C336 1.377 . S
C337 C343 1.390 . S
C338 H329 0.930 . S
C338 C336 1.384 . S
C338 C339 1.372 . S
C339 C338 1.372 . S
C339 C340 1.400 . S
C339 C344 1.490 . S
C340 H330 0.930 . S
C340 C339 1.400 . S
C340 C343 1.386 . S
H341 C357 0.930 . S
H342 C358 0.931 . S
C343 H331 0.929 . S
C343 C337 1.390 . S
C343 C340 1.386 . S
C344 C339 1.490 . S
C344 C346 1.395 . S
C344 C347 1.403 . S
H345 C351 0.930 . S
C346 H332 0.930 . S
C346 C344 1.395 . S
C346 C349 1.403 . S
C347 C344 1.403 . S
C347 C348 1.524 . S
C347 C351 1.400 . S
C348 H333 0.960 . S
C348 H334 0.960 . S
C348 H335 0.960 . S
C348 C347 1.524 . S
C349 C346 1.403 . S
C349 C350 1.392 . S
C349 C353 1.495 . S
C350 C349 1.392 . S
C350 C351 1.385 . S
C350 C352 1.478 . S
C351 H345 0.930 . S
C351 C347 1.400 . S
C351 C350 1.385 . S
C352 C350 1.478 . S
C352 C354 1.381 . S
C352 C358 1.383 . S
C353 C349 1.495 . S
C353 H359 0.959 . S
C353 H360 0.961 . S
C353 H361 0.960 . S
C354 C352 1.381 . S
C354 C355 1.394 . S
C354 H362 0.930 . S
C355 C354 1.394 . S
C355 C356 1.383 . S
C355 H363 0.929 . S
C356 C355 1.383 . S
C356 C357 1.377 . S
C357 H341 0.930 . S
C357 C356 1.377 . S
C357 C358 1.379 . S
C358 H342 0.931 . S
C358 C352 1.383 . S
C358 C357 1.379 . S
H359 C353 0.959 . S
H360 C353 0.961 . S
H361 C353 0.960 . S
H362 C354 0.930 . S
H363 C355 0.929 . S
H364 C372 0.929 . S
H365 C374 0.930 . S
H366 C376 0.930 . S
H367 C379 0.929 . S
H368 C382 0.930 . S
H369 C384 0.960 . S
H370 C384 0.960 . S
H371 C384 0.960 . S
C372 H364 0.929 . S
C372 C373 1.377 . S
C372 C374 1.384 . S
C373 C372 1.377 . S
C373 C379 1.390 . S
C374 H365 0.930 . S
C374 C372 1.384 . S
C374 C375 1.372 . S
C375 C374 1.372 . S
C375 C376 1.400 . S
C375 C380 1.490 . S
C376 H366 0.930 . S
C376 C375 1.400 . S
C376 C379 1.386 . S
H377 C393 0.930 . S
H378 C394 0.931 . S
C379 H367 0.929 . S
C379 C373 1.390 . S
C379 C376 1.386 . S
C380 C375 1.490 . S
C380 C382 1.395 . S
C380 C383 1.403 . S
H381 C387 0.930 . S
C382 H368 0.930 . S
C382 C380 1.395 . S
C382 C385 1.403 . S
C383 C380 1.403 . S
C383 C384 1.524 . S
C383 C387 1.400 . S
C384 H369 0.960 . S
C384 H370 0.960 . S
C384 H371 0.960 . S
C384 C383 1.524 . S
C385 C382 1.403 . S
C385 C386 1.392 . S
C385 C389 1.495 . S
C386 C385 1.392 . S
C386 C387 1.385 . S
C386 C388 1.478 . S
C387 H381 0.930 . S
C387 C383 1.400 . S
C387 C386 1.385 . S
C388 C386 1.478 . S
C388 C390 1.381 . S
C388 C394 1.383 . S
C389 C385 1.495 . S
C389 H395 0.959 . S
C389 H396 0.961 . S
C389 H397 0.960 . S
C390 C388 1.381 . S
C390 C391 1.394 . S
C390 H398 0.930 . S
C391 C390 1.394 . S
C391 C392 1.383 . S
C391 H399 0.929 . S
C392 C391 1.383 . S
C392 C393 1.377 . S
C393 H377 0.930 . S
C393 C392 1.377 . S
C393 C394 1.379 . S
C394 H378 0.931 . S
C394 C388 1.383 . S
C394 C393 1.379 . S
H395 C389 0.959 . S
H396 C389 0.961 . S
H397 C389 0.960 . S
H398 C390 0.930 . S
H399 C391 0.929 . S
H400 C408 0.929 . S
H401 C410 0.930 . S
H402 C412 0.930 . S
H403 C415 0.929 . S
H404 C418 0.930 . S
H405 C420 0.960 . S
H406 C420 0.960 . S
H407 C420 0.960 . S
C408 H400 0.929 . S
C408 C409 1.377 . S
C408 C410 1.384 . S
C409 C408 1.377 . S
C409 C415 1.390 . S
C410 H401 0.930 . S
C410 C408 1.384 . S
C410 C411 1.372 . S
C411 C410 1.372 . S
C411 C412 1.400 . S
C411 C416 1.490 . S
C412 H402 0.930 . S
C412 C411 1.400 . S
C412 C415 1.386 . S
H413 C429 0.930 . S
H414 C430 0.931 . S
C415 H403 0.929 . S
C415 C409 1.390 . S
C415 C412 1.386 . S
C416 C411 1.490 . S
C416 C418 1.395 . S
C416 C419 1.403 . S
H417 C423 0.930 . S
C418 H404 0.930 . S
C418 C416 1.395 . S
C418 C421 1.403 . S
C419 C416 1.403 . S
C419 C420 1.524 . S
C419 C423 1.400 . S
C420 H405 0.960 . S
C420 H406 0.960 . S
C420 H407 0.960 . S
C420 C419 1.524 . S
C421 C418 1.403 . S
C421 C422 1.392 . S
C421 C425 1.495 . S
C422 C421 1.392 . S
C422 C423 1.385 . S
C422 C424 1.478 . S
C423 H417 0.930 . S
C423 C419 1.400 . S
C423 C422 1.385 . S
C424 C422 1.478 . S
C424 C426 1.381 . S
C424 C430 1.383 . S
C425 C421 1.495 . S
C425 H431 0.959 . S
C425 H432 0.961 . S
C425 H433 0.960 . S
C426 C424 1.381 . S
C426 C427 1.394 . S
C426 H434 0.930 . S
C427 C426 1.394 . S
C427 C428 1.383 . S
C427 H435 0.929 . S
C428 C427 1.383 . S
C428 C429 1.377 . S
C429 H413 0.930 . S
C429 C428 1.377 . S
C429 C430 1.379 . S
C430 H414 0.931 . S
C430 C424 1.383 . S
C430 C429 1.379 . S
H431 C425 0.959 . S
H432 C425 0.961 . S
H433 C425 0.960 . S
H434 C426 0.930 . S
H435 C427 0.929 . S
H436 C444 0.929 . S
H437 C446 0.930 . S
H438 C448 0.930 . S
H439 C451 0.929 . S
H440 C454 0.930 . S
H441 C456 0.960 . S
H442 C456 0.960 . S
H443 C456 0.960 . S
C444 H436 0.929 . S
C444 C445 1.377 . S
C444 C446 1.384 . S
C445 C444 1.377 . S
C445 C451 1.390 . S
C446 H437 0.930 . S
C446 C444 1.384 . S
C446 C447 1.372 . S
C447 C446 1.372 . S
C447 C448 1.400 . S
C447 C452 1.490 . S
C448 H438 0.930 . S
C448 C447 1.400 . S
C448 C451 1.386 . S
H449 C465 0.930 . S
H450 C466 0.931 . S
C451 H439 0.929 . S
C451 C445 1.390 . S
C451 C448 1.386 . S
C452 C447 1.490 . S
C452 C454 1.395 . S
C452 C455 1.403 . S
H453 C459 0.930 . S
C454 H440 0.930 . S
C454 C452 1.395 . S
C454 C457 1.403 . S
C455 C452 1.403 . S
C455 C456 1.524 . S
C455 C459 1.400 . S
C456 H441 0.960 . S
C456 H442 0.960 . S
C456 H443 0.960 . S
C456 C455 1.524 . S
C457 C454 1.403 . S
C457 C458 1.392 . S
C457 C461 1.495 . S
C458 C457 1.392 . S
C458 C459 1.385 . S
C458 C460 1.478 . S
C459 H453 0.930 . S
C459 C455 1.400 . S
C459 C458 1.385 . S
C460 C458 1.478 . S
C460 C462 1.381 . S
C460 C466 1.383 . S
C461 C457 1.495 . S
C461 H467 0.959 . S
C461 H468 0.961 . S
C461 H469 0.960 . S
C462 C460 1.381 . S
C462 C463 1.394 . S
C462 H470 0.930 . S
C463 C462 1.394 . S
C463 C464 1.383 . S
C463 H471 0.929 . S
C464 C463 1.383 . S
C464 C465 1.377 . S
C465 H449 0.930 . S
C465 C464 1.377 . S
C465 C466 1.379 . S
C466 H450 0.931 . S
C466 C460 1.383 . S
C466 C465 1.379 . S
H467 C461 0.959 . S
H468 C461 0.961 . S
H469 C461 0.960 . S
H470 C462 0.930 . S
H471 C463 0.929 . S
H472 C480 0.929 . S
H473 C482 0.930 . S
H474 C484 0.930 . S
H475 C487 0.929 1_554 S
H476 C490 0.930 . S
H477 C492 0.960 . S
H478 C492 0.960 . S
H479 C492 0.960 . S
C480 H472 0.929 . S
C480 C481 1.377 . S
C480 C482 1.384 . S
C481 C480 1.377 . S
C481 C487 1.390 . S
C482 H473 0.930 . S
C482 C480 1.384 . S
C482 C483 1.372 . S
C483 C482 1.372 . S
C483 C484 1.400 . S
C483 C488 1.490 . S
C484 H474 0.930 . S
C484 C483 1.400 . S
C484 C487 1.386 . S
H485 C501 0.930 . S
H486 C502 0.931 . S
C487 H475 0.929 1_556 S
C487 C481 1.390 . S
C487 C484 1.386 . S
C488 C483 1.490 . S
C488 C490 1.395 . S
C488 C491 1.403 . S
H489 C495 0.930 . S
C490 H476 0.930 . S
C490 C488 1.395 . S
C490 C493 1.403 . S
C491 C488 1.403 . S
C491 C492 1.524 . S
C491 C495 1.400 . S
C492 H477 0.960 . S
C492 H478 0.960 . S
C492 H479 0.960 . S
C492 C491 1.524 . S
C493 C490 1.403 . S
C493 C494 1.392 . S
C493 C497 1.495 . S
C494 C493 1.392 . S
C494 C495 1.385 . S
C494 C496 1.478 . S
C495 H489 0.930 . S
C495 C491 1.400 . S
C495 C494 1.385 . S
C496 C494 1.478 . S
C496 C498 1.381 . S
C496 C502 1.383 . S
C497 C493 1.495 . S
C497 H503 0.959 . S
C497 H504 0.961 . S
C497 H505 0.960 . S
C498 C496 1.381 . S
C498 C499 1.394 . S
C498 H506 0.930 . S
C499 C498 1.394 . S
C499 C500 1.383 . S
C499 H507 0.929 . S
C500 C499 1.383 . S
C500 C501 1.377 . S
C501 H485 0.930 . S
C501 C500 1.377 . S
C501 C502 1.379 . S
C502 H486 0.931 . S
C502 C496 1.383 . S
C502 C501 1.379 . S
H503 C497 0.959 . S
H504 C497 0.961 . S
H505 C497 0.960 . S
H506 C498 0.930 . S
H507 C499 0.929 . S
H508 C516 0.929 . S
H509 C518 0.930 . S
H510 C520 0.930 . S
H511 C523 0.929 . S
H512 C526 0.930 . S
H513 C528 0.960 . S
H514 C528 0.960 . S
H515 C528 0.960 . S
C516 H508 0.929 . S
C516 C517 1.377 . S
C516 C518 1.384 . S
C517 C516 1.377 . S
C517 C523 1.390 . S
C518 H509 0.930 . S
C518 C516 1.384 . S
C518 C519 1.372 . S
C519 C518 1.372 . S
C519 C520 1.400 . S
C519 C524 1.490 . S
C520 H510 0.930 . S
C520 C519 1.400 . S
C520 C523 1.386 . S
H521 C537 0.930 . S
H522 C538 0.931 . S
C523 H511 0.929 . S
C523 C517 1.390 . S
C523 C520 1.386 . S
C524 C519 1.490 . S
C524 C526 1.395 . S
C524 C527 1.403 . S
H525 C531 0.930 . S
C526 H512 0.930 . S
C526 C524 1.395 . S
C526 C529 1.403 . S
C527 C524 1.403 . S
C527 C528 1.524 . S
C527 C531 1.400 . S
C528 H513 0.960 . S
C528 H514 0.960 . S
C528 H515 0.960 . S
C528 C527 1.524 . S
C529 C526 1.403 . S
C529 C530 1.392 . S
C529 C533 1.495 . S
C530 C529 1.392 . S
C530 C531 1.385 . S
C530 C532 1.478 . S
C531 H525 0.930 . S
C531 C527 1.400 . S
C531 C530 1.385 . S
C532 C530 1.478 . S
C532 C534 1.381 . S
C532 C538 1.383 . S
C533 C529 1.495 . S
C533 H539 0.959 . S
C533 H540 0.961 . S
C533 H541 0.960 . S
C534 C532 1.381 . S
C534 C535 1.394 . S
C534 H542 0.930 . S
C535 C534 1.394 . S
C535 C536 1.383 . S
C535 H543 0.929 . S
C536 C535 1.383 . S
C536 C537 1.377 . S
C537 H521 0.930 . S
C537 C536 1.377 . S
C537 C538 1.379 . S
C538 H522 0.931 . S
C538 C532 1.383 . S
C538 C537 1.379 . S
H539 C533 0.959 . S
H540 C533 0.961 . S
H541 C533 0.960 . S
H542 C534 0.930 . S
H543 C535 0.929 . S
H544 C552 0.929 1_554 S
H545 C554 0.930 . S
H546 C556 0.930 . S
H547 C559 0.929 . S
H548 C562 0.930 . S
H549 C564 0.960 . S
H550 C564 0.960 . S
H551 C564 0.960 . S
C552 H544 0.929 1_556 S
C552 C553 1.377 . S
C552 C554 1.384 . S
C553 C552 1.377 . S
C553 C559 1.390 . S
C554 H545 0.930 . S
C554 C552 1.384 . S
C554 C555 1.372 . S
C555 C554 1.372 . S
C555 C556 1.400 . S
C555 C560 1.490 . S
C556 H546 0.930 . S
C556 C555 1.400 . S
C556 C559 1.386 . S
H557 C573 0.930 . S
H558 C574 0.931 . S
C559 H547 0.929 . S
C559 C553 1.390 . S
C559 C556 1.386 . S
C560 C555 1.490 . S
C560 C562 1.395 . S
C560 C563 1.403 . S
H561 C567 0.930 . S
C562 H548 0.930 . S
C562 C560 1.395 . S
C562 C565 1.403 . S
C563 C560 1.403 . S
C563 C564 1.524 . S
C563 C567 1.400 . S
C564 H549 0.960 . S
C564 H550 0.960 . S
C564 H551 0.960 . S
C564 C563 1.524 . S
C565 C562 1.403 . S
C565 C566 1.392 . S
C565 C569 1.495 . S
C566 C565 1.392 . S
C566 C567 1.385 . S
C566 C568 1.478 . S
C567 H561 0.930 . S
C567 C563 1.400 . S
C567 C566 1.385 . S
C568 C566 1.478 . S
C568 C570 1.381 . S
C568 C574 1.383 . S
C569 C565 1.495 . S
C569 H575 0.959 . S
C569 H576 0.961 . S
C569 H577 0.960 . S
C570 C568 1.381 . S
C570 C571 1.394 . S
C570 H578 0.930 . S
C571 C570 1.394 . S
C571 C572 1.383 . S
C571 H579 0.929 . S
C572 C571 1.383 . S
C572 C573 1.377 . S
C573 H557 0.930 . S
C573 C572 1.377 . S
C573 C574 1.379 . S
C574 H558 0.931 . S
C574 C568 1.383 . S
C574 C573 1.379 . S
H575 C569 0.959 . S
H576 C569 0.961 . S
H577 C569 0.960 . S
H578 C570 0.930 . S
H579 C571 0.929 . S
H580 C588 0.929 . S
H581 C590 0.930 . S
H582 C592 0.930 . S
H583 C595 0.929 . S
H584 C598 0.930 . S
H585 C600 0.960 . S
H586 C600 0.960 . S
H587 C600 0.960 . S
C588 H580 0.929 . S
C588 C589 1.377 . S
C588 C590 1.384 . S
C589 C588 1.377 . S
C589 C595 1.390 . S
C590 H581 0.930 . S
C590 C588 1.384 . S
C590 C591 1.372 . S
C591 C590 1.372 . S
C591 C592 1.400 . S
C591 C596 1.490 . S
C592 H582 0.930 . S
C592 C591 1.400 . S
C592 C595 1.386 . S
H593 C609 0.930 . S
H594 C610 0.931 . S
C595 H583 0.929 . S
C595 C589 1.390 . S
C595 C592 1.386 . S
C596 C591 1.490 . S
C596 C598 1.395 . S
C596 C599 1.403 . S
H597 C603 0.930 . S
C598 H584 0.930 . S
C598 C596 1.395 . S
C598 C601 1.403 . S
C599 C596 1.403 . S
C599 C600 1.524 . S
C599 C603 1.400 . S
C600 H585 0.960 . S
C600 H586 0.960 . S
C600 H587 0.960 . S
C600 C599 1.524 . S
C601 C598 1.403 . S
C601 C602 1.392 . S
C601 C605 1.495 . S
C602 C601 1.392 . S
C602 C603 1.385 . S
C602 C604 1.478 . S
C603 H597 0.930 . S
C603 C599 1.400 . S
C603 C602 1.385 . S
C604 C602 1.478 . S
C604 C606 1.381 . S
C604 C610 1.383 . S
C605 C601 1.495 . S
C605 H611 0.959 . S
C605 H612 0.961 . S
C605 H613 0.960 . S
C606 C604 1.381 . S
C606 C607 1.394 . S
C606 H614 0.930 . S
C607 C606 1.394 . S
C607 C608 1.383 . S
C607 H615 0.929 . S
C608 C607 1.383 . S
C608 C609 1.377 . S
C609 H593 0.930 . S
C609 C608 1.377 . S
C609 C610 1.379 . S
C610 H594 0.931 . S
C610 C604 1.383 . S
C610 C609 1.379 . S
H611 C605 0.959 . S
H612 C605 0.961 . S
H613 C605 0.960 . S
H614 C606 0.930 . S
H615 C607 0.929 . S
H616 C624 0.929 . S
H617 C626 0.930 . S
H618 C628 0.930 . S
H619 C631 0.929 1_554 S
H620 C634 0.930 . S
H621 C636 0.960 . S
H622 C636 0.960 . S
H623 C636 0.960 . S
C624 H616 0.929 . S
C624 C625 1.377 . S
C624 C626 1.384 . S
C625 C624 1.377 . S
C625 C631 1.390 . S
C626 H617 0.930 . S
C626 C624 1.384 . S
C626 C627 1.372 . S
C627 C626 1.372 . S
C627 C628 1.400 . S
C627 C632 1.490 . S
C628 H618 0.930 . S
C628 C627 1.400 . S
C628 C631 1.386 . S
H629 C645 0.930 . S
H630 C646 0.931 . S
C631 H619 0.929 1_556 S
C631 C625 1.390 . S
C631 C628 1.386 . S
C632 C627 1.490 . S
C632 C634 1.395 . S
C632 C635 1.403 . S
H633 C639 0.930 . S
C634 H620 0.930 . S
C634 C632 1.395 . S
C634 C637 1.403 1_565 S
C635 C632 1.403 . S
C635 C636 1.524 . S
C635 C639 1.400 . S
C636 H621 0.960 . S
C636 H622 0.960 . S
C636 H623 0.960 . S
C636 C635 1.524 . S
C637 C634 1.403 1_545 S
C637 C638 1.392 . S
C637 C641 1.495 . S
C638 C637 1.392 . S
C638 C639 1.385 1_545 S
C638 C640 1.478 . S
C639 H633 0.930 . S
C639 C635 1.400 . S
C639 C638 1.385 1_565 S
C640 C638 1.478 . S
C640 C642 1.381 . S
C640 C646 1.383 . S
C641 C637 1.495 . S
C641 H647 0.959 . S
C641 H648 0.961 . S
C641 H649 0.960 . S
C642 C640 1.381 . S
C642 C643 1.394 . S
C642 H650 0.930 . S
C643 C642 1.394 . S
C643 C644 1.383 . S
C643 H651 0.929 . S
C644 C643 1.383 . S
C644 C645 1.377 . S
C645 H629 0.930 . S
C645 C644 1.377 . S
C645 C646 1.379 . S
C646 H630 0.931 . S
C646 C640 1.383 . S
C646 C645 1.379 . S
H647 C641 0.959 . S
H648 C641 0.961 . S
H649 C641 0.960 . S
H650 C642 0.930 . S
H651 C643 0.929 . S
H652 C660 0.929 . S
H653 C662 0.930 . S
H654 C664 0.930 . S
H655 C667 0.929 . S
H656 C670 0.930 . S
H657 C672 0.946 1_565 S
H658 C672 0.956 1_565 S
H659 C672 0.975 . S
C660 H652 0.929 . S
C660 C661 1.377 . S
C660 C662 1.384 . S
C661 C660 1.377 . S
C661 C667 1.390 . S
C662 H653 0.930 . S
C662 C660 1.384 . S
C662 C663 1.372 . S
C663 C662 1.372 . S
C663 C664 1.400 . S
C663 C668 1.490 . S
C664 H654 0.930 . S
C664 C663 1.400 . S
C664 C667 1.386 . S
H665 C681 0.930 . S
H666 C682 0.931 . S
C667 H655 0.929 . S
C667 C661 1.390 . S
C667 C664 1.386 . S
C668 C663 1.490 . S
C668 C670 1.395 . S
C668 C671 1.403 . S
H669 C675 0.930 . S
C670 H656 0.930 . S
C670 C668 1.395 . S
C670 C673 1.403 . S
C671 C668 1.403 . S
C671 C672 1.527 . S
C671 C675 1.400 1_545 S
C672 H657 0.946 1_545 S
C672 H658 0.956 1_545 S
C672 H659 0.975 . S
C672 C671 1.527 . S
C673 C670 1.403 . S
C673 C674 1.392 1_545 S
C673 C677 1.495 . S
C674 C673 1.392 1_565 S
C674 C675 1.385 . S
C674 C676 1.478 . S
C675 H669 0.930 . S
C675 C671 1.400 1_565 S
C675 C674 1.385 . S
C676 C674 1.478 . S
C676 C678 1.381 . S
C676 C682 1.383 . S
C677 C673 1.495 . S
C677 H683 0.959 . S
C677 H684 0.961 . S
C677 H685 0.960 . S
C678 C676 1.381 . S
C678 C679 1.394 . S
C678 H686 0.930 . S
C679 C678 1.394 . S
C679 C680 1.383 . S
C679 H687 0.929 . S
C680 C679 1.383 . S
C680 C681 1.377 . S
C681 H665 0.930 . S
C681 C680 1.377 . S
C681 C682 1.379 . S
C682 H666 0.931 . S
C682 C676 1.383 . S
C682 C681 1.379 . S
H683 C677 0.959 . S
H684 C677 0.961 . S
H685 C677 0.960 . S
H686 C678 0.930 . S
H687 C679 0.929 . S
H688 C696 0.929 1_554 S
H689 C698 0.930 . S
H690 C700 0.930 . S
H691 C703 0.929 . S
H692 C706 0.930 . S
H693 C708 0.960 . S
H694 C708 0.960 . S
H695 C708 0.960 . S
C696 H688 0.929 1_556 S
C696 C697 1.377 . S
C696 C698 1.384 . S
C697 C696 1.377 . S
C697 C703 1.390 . S
C698 H689 0.930 . S
C698 C696 1.384 . S
C698 C699 1.372 . S
C699 C698 1.372 . S
C699 C700 1.400 . S
C699 C704 1.490 . S
C700 H690 0.930 . S
C700 C699 1.400 . S
C700 C703 1.386 . S
H701 C717 0.930 . S
H702 C718 0.931 . S
C703 H691 0.929 . S
C703 C697 1.390 . S
C703 C700 1.386 . S
C704 C699 1.490 . S
C704 C706 1.395 1_565 S
C704 C707 1.403 . S
H705 C711 0.930 . S
C706 H692 0.930 . S
C706 C704 1.395 1_545 S
C706 C709 1.403 . S
C707 C704 1.403 . S
C707 C708 1.524 . S
C707 C711 1.400 . S
C708 H693 0.960 . S
C708 H694 0.960 . S
C708 H695 0.960 . S
C708 C707 1.524 . S
C709 C706 1.403 . S
C709 C710 1.392 . S
C709 C713 1.495 . S
C710 C709 1.392 . S
C710 C711 1.385 1_545 S
C710 C712 1.478 . S
C711 H705 0.930 . S
C711 C707 1.400 . S
C711 C710 1.385 1_565 S
C712 C710 1.478 . S
C712 C714 1.381 . S
C712 C718 1.383 . S
C713 C709 1.495 . S
C713 H719 0.959 . S
C713 H720 0.961 . S
C713 H721 0.960 . S
C714 C712 1.381 . S
C714 C715 1.394 . S
C714 H722 0.930 . S
C715 C714 1.394 . S
C715 C716 1.383 . S
C715 H723 0.929 . S
C716 C715 1.383 . S
C716 C717 1.377 . S
C717 H701 0.930 . S
C717 C716 1.377 . S
C717 C718 1.379 . S
C718 H702 0.931 . S
C718 C712 1.383 . S
C718 C717 1.379 . S
H719 C713 0.959 . S
H720 C713 0.961 . S
H721 C713 0.960 . S
H722 C714 0.930 . S
H723 C715 0.929 . S
H724 C732 0.929 . S
H725 C734 0.930 . S
H726 C736 0.930 . S
H727 C739 0.929 . S
H728 C742 0.930 . S
H729 C744 0.960 . S
H730 C744 0.960 . S
H731 C744 0.960 . S
C732 H724 0.929 . S
C732 C733 1.377 . S
C732 C734 1.384 . S
C733 C732 1.377 . S
C733 C739 1.390 . S
C734 H725 0.930 . S
C734 C732 1.384 . S
C734 C735 1.372 . S
C735 C734 1.372 . S
C735 C736 1.400 . S
C735 C740 1.490 . S
C736 H726 0.930 . S
C736 C735 1.400 . S
C736 C739 1.386 . S
H737 C753 0.930 . S
H738 C754 0.931 . S
C739 H727 0.929 . S
C739 C733 1.390 . S
C739 C736 1.386 . S
C740 C735 1.490 . S
C740 C742 1.395 . S
C740 C743 1.403 . S
H741 C747 0.930 . S
C742 H728 0.930 . S
C742 C740 1.395 . S
C742 C745 1.403 1_545 S
C743 C740 1.403 . S
C743 C744 1.524 . S
C743 C747 1.400 1_545 S
C744 H729 0.960 . S
C744 H730 0.960 . S
C744 H731 0.960 . S
C744 C743 1.524 . S
C745 C742 1.403 1_565 S
C745 C746 1.392 . S
C745 C749 1.495 . S
C746 C745 1.392 . S
C746 C747 1.385 . S
C746 C748 1.478 . S
C747 H741 0.930 . S
C747 C743 1.400 1_565 S
C747 C746 1.385 . S
C748 C746 1.478 . S
C748 C750 1.381 . S
C748 C754 1.383 . S
C749 C745 1.495 . S
C749 H755 0.941 1_565 S
C749 H756 0.961 . S
C749 H757 0.960 . S
C750 C748 1.381 . S
C750 C751 1.394 . S
C750 H758 0.930 . S
C751 C750 1.394 . S
C751 C752 1.383 . S
C751 H759 0.929 . S
C752 C751 1.383 . S
C752 C753 1.377 . S
C753 H737 0.930 . S
C753 C752 1.377 . S
C753 C754 1.379 . S
C754 H738 0.931 . S
C754 C748 1.383 . S
C754 C753 1.379 . S
H755 C749 0.941 1_545 S
H756 C749 0.961 . S
H757 C749 0.960 . S
H758 C750 0.930 . S
H759 C751 0.929 . S
H760 C768 0.929 . S
H761 C770 0.930 . S
H762 C772 0.930 . S
H763 C775 0.929 . S
H764 C778 0.930 . S
H765 C780 0.960 . S
H766 C780 0.960 . S
H767 C780 0.960 . S
C768 H760 0.929 . S
C768 C769 1.377 . S
C768 C770 1.384 . S
C769 C768 1.377 . S
C769 C775 1.390 . S
C770 H761 0.930 . S
C770 C768 1.384 . S
C770 C771 1.372 . S
C771 C770 1.372 . S
C771 C772 1.400 . S
C771 C776 1.490 . S
C772 H762 0.930 . S
C772 C771 1.400 . S
C772 C775 1.386 . S
H773 C789 0.930 . S
H774 C790 0.931 . S
C775 H763 0.929 . S
C775 C769 1.390 . S
C775 C772 1.386 . S
C776 C771 1.490 . S
C776 C778 1.395 . S
C776 C779 1.403 . S
H777 C783 0.930 . S
C778 H764 0.930 . S
C778 C776 1.395 . S
C778 C781 1.403 . S
C779 C776 1.403 . S
C779 C780 1.524 . S
C779 C783 1.400 . S
C780 H765 0.960 . S
C780 H766 0.960 . S
C780 H767 0.960 . S
C780 C779 1.524 . S
C781 C778 1.403 . S
C781 C782 1.392 . S
C781 C785 1.495 . S
C782 C781 1.392 . S
C782 C783 1.385 . S
C782 C784 1.478 . S
C783 H777 0.930 . S
C783 C779 1.400 . S
C783 C782 1.385 . S
C784 C782 1.478 . S
C784 C786 1.381 . S
C784 C790 1.383 . S
C785 C781 1.495 . S
C785 H791 0.959 . S
C785 H792 0.961 . S
C785 H793 0.960 . S
C786 C784 1.381 . S
C786 C787 1.394 . S
C786 H794 0.930 . S
C787 C786 1.394 . S
C787 C788 1.383 . S
C787 H795 0.929 . S
C788 C787 1.383 . S
C788 C789 1.377 . S
C789 H773 0.930 . S
C789 C788 1.377 . S
C789 C790 1.379 . S
C790 H774 0.931 . S
C790 C784 1.383 . S
C790 C789 1.379 . S
H791 C785 0.959 . S
H792 C785 0.961 . S
H793 C785 0.960 . S
H794 C786 0.930 . S
H795 C787 0.929 . S
H796 C804 0.929 . S
H797 C806 0.930 . S
H798 C808 0.930 . S
H799 C811 0.929 . S
H800 C814 0.930 . S
H801 C816 0.960 . S
H802 C816 0.960 . S
H803 C816 0.960 . S
C804 H796 0.929 . S
C804 C805 1.377 . S
C804 C806 1.384 . S
C805 C804 1.377 . S
C805 C811 1.390 . S
C806 H797 0.930 . S
C806 C804 1.384 . S
C806 C807 1.372 . S
C807 C806 1.372 . S
C807 C808 1.400 . S
C807 C812 1.490 . S
C808 H798 0.930 . S
C808 C807 1.400 . S
C808 C811 1.386 . S
H809 C825 0.930 . S
H810 C826 0.931 . S
C811 H799 0.929 . S
C811 C805 1.390 . S
C811 C808 1.386 . S
C812 C807 1.490 . S
C812 C814 1.395 . S
C812 C815 1.403 . S
H813 C819 0.930 . S
C814 H800 0.930 . S
C814 C812 1.395 . S
C814 C817 1.403 . S
C815 C812 1.403 . S
C815 C816 1.524 . S
C815 C819 1.400 . S
C816 H801 0.960 . S
C816 H802 0.960 . S
C816 H803 0.960 . S
C816 C815 1.524 . S
C817 C814 1.403 . S
C817 C818 1.392 . S
C817 C821 1.495 . S
C818 C817 1.392 . S
C818 C819 1.385 . S
C818 C820 1.478 . S
C819 H813 0.930 . S
C819 C815 1.400 . S
C819 C818 1.385 . S
C820 C818 1.478 . S
C820 C822 1.381 . S
C820 C826 1.383 . S
C821 C817 1.495 . S
C821 H827 0.959 . S
C821 H828 0.961 . S
C821 H829 0.960 . S
C822 C820 1.381 . S
C822 C823 1.394 . S
C822 H830 0.930 . S
C823 C822 1.394 . S
C823 C824 1.383 . S
C823 H831 0.929 . S
C824 C823 1.383 . S
C824 C825 1.377 . S
C825 H809 0.930 . S
C825 C824 1.377 . S
C825 C826 1.379 . S
C826 H810 0.931 . S
C826 C820 1.383 . S
C826 C825 1.379 . S
H827 C821 0.959 . S
H828 C821 0.961 . S
H829 C821 0.960 . S
H830 C822 0.930 . S
H831 C823 0.929 . S
H832 C840 0.929 . S
H833 C842 0.930 . S
H834 C844 0.930 . S
H835 C847 0.929 . S
H836 C850 0.930 . S
H837 C852 0.960 . S
H838 C852 0.960 . S
H839 C852 0.960 . S
C840 H832 0.929 . S
C840 C841 1.377 . S
C840 C842 1.384 . S
C841 C840 1.377 . S
C841 C847 1.390 . S
C842 H833 0.930 . S
C842 C840 1.384 . S
C842 C843 1.372 . S
C843 C842 1.372 . S
C843 C844 1.400 . S
C843 C848 1.490 . S
C844 H834 0.930 . S
C844 C843 1.400 . S
C844 C847 1.386 . S
H845 C861 0.930 . S
H846 C862 0.931 . S
C847 H835 0.929 . S
C847 C841 1.390 . S
C847 C844 1.386 . S
C848 C843 1.490 . S
C848 C850 1.395 . S
C848 C851 1.403 . S
H849 C855 0.930 . S
C850 H836 0.930 . S
C850 C848 1.395 . S
C850 C853 1.403 . S
C851 C848 1.403 . S
C851 C852 1.524 . S
C851 C855 1.400 . S
C852 H837 0.960 . S
C852 H838 0.960 . S
C852 H839 0.960 . S
C852 C851 1.524 . S
C853 C850 1.403 . S
C853 C854 1.392 . S
C853 C857 1.495 . S
C854 C853 1.392 . S
C854 C855 1.385 . S
C854 C856 1.478 . S
C855 H849 0.930 . S
C855 C851 1.400 . S
C855 C854 1.385 . S
C856 C854 1.478 . S
C856 C858 1.381 . S
C856 C862 1.383 . S
C857 C853 1.495 . S
C857 H863 0.959 . S
C857 H864 0.961 . S
C857 H865 0.960 . S
C858 C856 1.381 . S
C858 C859 1.394 . S
C858 H866 0.930 . S
C859 C858 1.394 . S
C859 C860 1.383 . S
C859 H867 0.929 . S
C860 C859 1.383 . S
C860 C861 1.377 . S
C861 H845 0.930 . S
C861 C860 1.377 . S
C861 C862 1.379 . S
C862 H846 0.931 . S
C862 C856 1.383 . S
C862 C861 1.379 . S
H863 C857 0.959 . S
H864 C857 0.961 . S
H865 C857 0.960 . S
H866 C858 0.930 . S
H867 C859 0.929 . S
H868 C876 0.929 . S
H869 C878 0.930 . S
H870 C880 0.930 . S
H871 C883 0.929 . S
H872 C886 0.930 . S
H873 C888 0.960 . S
H874 C888 0.960 . S
H875 C888 0.960 . S
C876 H868 0.929 . S
C876 C877 1.377 . S
C876 C878 1.384 . S
C877 C876 1.377 . S
C877 C883 1.390 . S
C878 H869 0.930 . S
C878 C876 1.384 . S
C878 C879 1.372 . S
C879 C878 1.372 . S
C879 C880 1.400 . S
C879 C884 1.490 . S
C880 H870 0.930 . S
C880 C879 1.400 . S
C880 C883 1.386 . S
H881 C897 0.930 . S
H882 C898 0.931 . S
C883 H871 0.929 . S
C883 C877 1.390 . S
C883 C880 1.386 . S
C884 C879 1.490 . S
C884 C886 1.395 . S
C884 C887 1.403 . S
H885 C891 0.930 . S
C886 H872 0.930 . S
C886 C884 1.395 . S
C886 C889 1.403 . S
C887 C884 1.403 . S
C887 C888 1.524 . S
C887 C891 1.400 . S
C888 H873 0.960 . S
C888 H874 0.960 . S
C888 H875 0.960 . S
C888 C887 1.524 . S
C889 C886 1.403 . S
C889 C890 1.392 . S
C889 C893 1.495 . S
C890 C889 1.392 . S
C890 C891 1.385 . S
C890 C892 1.478 . S
C891 H885 0.930 . S
C891 C887 1.400 . S
C891 C890 1.385 . S
C892 C890 1.478 . S
C892 C894 1.381 . S
C892 C898 1.383 . S
C893 C889 1.495 . S
C893 H899 0.959 . S
C893 H900 0.961 . S
C893 H901 0.960 . S
C894 C892 1.381 . S
C894 C895 1.394 . S
C894 H902 0.930 . S
C895 C894 1.394 . S
C895 C896 1.383 . S
C895 H903 0.929 . S
C896 C895 1.383 . S
C896 C897 1.377 . S
C897 H881 0.930 . S
C897 C896 1.377 . S
C897 C898 1.379 . S
C898 H882 0.931 . S
C898 C892 1.383 . S
C898 C897 1.379 . S
H899 C893 0.959 . S
H900 C893 0.961 . S
H901 C893 0.960 . S
H902 C894 0.930 . S
H903 C895 0.929 . S
H904 C912 0.929 . S
H905 C914 0.930 . S
H906 C916 0.930 . S
H907 C919 0.929 . S
H908 C922 0.930 . S
H909 C924 0.960 . S
H910 C924 0.960 . S
H911 C924 0.960 . S
C912 H904 0.929 . S
C912 C913 1.377 . S
C912 C914 1.384 . S
C913 C912 1.377 . S
C913 C919 1.390 . S
C914 H905 0.930 . S
C914 C912 1.384 . S
C914 C915 1.372 . S
C915 C914 1.372 . S
C915 C916 1.400 . S
C915 C920 1.490 . S
C916 H906 0.930 . S
C916 C915 1.400 . S
C916 C919 1.386 . S
H917 C933 0.930 . S
H918 C934 0.931 . S
C919 H907 0.929 . S
C919 C913 1.390 . S
C919 C916 1.386 . S
C920 C915 1.490 . S
C920 C922 1.395 . S
C920 C923 1.403 . S
H921 C927 0.930 . S
C922 H908 0.930 . S
C922 C920 1.395 . S
C922 C925 1.403 . S
C923 C920 1.403 . S
C923 C924 1.524 . S
C923 C927 1.400 . S
C924 H909 0.960 . S
C924 H910 0.960 . S
C924 H911 0.960 . S
C924 C923 1.524 . S
C925 C922 1.403 . S
C925 C926 1.392 . S
C925 C929 1.495 . S
C926 C925 1.392 . S
C926 C927 1.385 . S
C926 C928 1.478 . S
C927 H921 0.930 . S
C927 C923 1.400 . S
C927 C926 1.385 . S
C928 C926 1.478 . S
C928 C930 1.381 . S
C928 C934 1.383 . S
C929 C925 1.495 . S
C929 H935 0.959 . S
C929 H936 0.961 . S
C929 H937 0.960 . S
C930 C928 1.381 . S
C930 C931 1.394 . S
C930 H938 0.930 . S
C931 C930 1.394 . S
C931 C932 1.383 . S
C931 H939 0.929 . S
C932 C931 1.383 . S
C932 C933 1.377 . S
C933 H917 0.930 . S
C933 C932 1.377 . S
C933 C934 1.379 . S
C934 H918 0.931 . S
C934 C928 1.383 . S
C934 C933 1.379 . S
H935 C929 0.959 . S
H936 C929 0.961 . S
H937 C929 0.960 . S
H938 C930 0.930 . S
H939 C931 0.929 . S
H940 C948 0.929 . S
H941 C950 0.930 . S
H942 C952 0.930 . S
H943 C955 0.929 . S
H944 C958 0.930 . S
H945 C960 0.960 . S
H946 C960 0.960 . S
H947 C960 0.960 . S
C948 H940 0.929 . S
C948 C949 1.377 . S
C948 C950 1.384 . S
C949 C948 1.377 . S
C949 C955 1.390 . S
C950 H941 0.930 . S
C950 C948 1.384 . S
C950 C951 1.372 . S
C951 C950 1.372 . S
C951 C952 1.400 . S
C951 C956 1.490 . S
C952 H942 0.930 . S
C952 C951 1.400 . S
C952 C955 1.386 . S
H953 C969 0.930 . S
H954 C970 0.931 . S
C955 H943 0.929 . S
C955 C949 1.390 . S
C955 C952 1.386 . S
C956 C951 1.490 . S
C956 C958 1.395 . S
C956 C959 1.403 . S
H957 C963 0.930 . S
C958 H944 0.930 . S
C958 C956 1.395 . S
C958 C961 1.403 . S
C959 C956 1.403 . S
C959 C960 1.524 . S
C959 C963 1.400 . S
C960 H945 0.960 . S
C960 H946 0.960 . S
C960 H947 0.960 . S
C960 C959 1.524 . S
C961 C958 1.403 . S
C961 C962 1.392 . S
C961 C965 1.495 . S
C962 C961 1.392 . S
C962 C963 1.385 . S
C962 C964 1.478 . S
C963 H957 0.930 . S
C963 C959 1.400 . S
C963 C962 1.385 . S
C964 C962 1.478 . S
C964 C966 1.381 . S
C964 C970 1.383 . S
C965 C961 1.495 . S
C965 H971 0.959 . S
C965 H972 0.961 . S
C965 H973 0.960 . S
C966 C964 1.381 . S
C966 C967 1.394 . S
C966 H974 0.930 . S
C967 C966 1.394 . S
C967 C968 1.383 . S
C967 H975 0.929 . S
C968 C967 1.383 . S
C968 C969 1.377 . S
C969 H953 0.930 . S
C969 C968 1.377 . S
C969 C970 1.379 . S
C970 H954 0.931 . S
C970 C964 1.383 . S
C970 C969 1.379 . S
H971 C965 0.959 . S
H972 C965 0.961 . S
H973 C965 0.960 . S
H974 C966 0.930 . S
H975 C967 0.929 . S
H976 C984 0.929 . S
H977 C986 0.930 . S
H978 C988 0.930 . S
H979 C991 0.929 . S
H980 C994 0.930 . S
H981 C996 0.960 . S
H982 C996 0.960 . S
H983 C996 0.960 . S
C984 H976 0.929 . S
C984 C985 1.377 . S
C984 C986 1.384 . S
C985 C984 1.377 . S
C985 C991 1.390 . S
C986 H977 0.930 . S
C986 C984 1.384 . S
C986 C987 1.372 . S
C987 C986 1.372 . S
C987 C988 1.400 . S
C987 C992 1.490 . S
C988 H978 0.930 . S
C988 C987 1.400 . S
C988 C991 1.386 . S
H989 C1005 0.930 . S
H990 C1006 0.931 . S
C991 H979 0.929 . S
C991 C985 1.390 . S
C991 C988 1.386 . S
C992 C987 1.490 . S
C992 C994 1.395 . S
C992 C995 1.403 . S
H993 C999 0.930 . S
C994 H980 0.930 . S
C994 C992 1.395 . S
C994 C997 1.403 . S
C995 C992 1.403 . S
C995 C996 1.524 . S
C995 C999 1.400 . S
C996 H981 0.960 . S
C996 H982 0.960 . S
C996 H983 0.960 . S
C996 C995 1.524 . S
C997 C994 1.403 . S
C997 C998 1.392 . S
C997 C1001 1.495 . S
C998 C997 1.392 . S
C998 C999 1.385 . S
C998 C1000 1.478 . S
C999 H993 0.930 . S
C999 C995 1.400 . S
C999 C998 1.385 . S
C1000 C998 1.478 . S
C1000 C1002 1.381 . S
C1000 C1006 1.383 . S
C1001 C997 1.495 . S
C1001 H1007 0.959 . S
C1001 H1008 0.961 . S
C1001 H1009 0.960 . S
C1002 C1000 1.381 . S
C1002 C1003 1.394 . S
C1002 H1010 0.930 . S
C1003 C1002 1.394 . S
C1003 C1004 1.383 . S
C1003 H1011 0.929 . S
C1004 C1003 1.383 . S
C1004 C1005 1.377 . S
C1005 H989 0.930 . S
C1005 C1004 1.377 . S
C1005 C1006 1.379 . S
C1006 H990 0.931 . S
C1006 C1000 1.383 . S
C1006 C1005 1.379 . S
H1007 C1001 0.959 . S
H1008 C1001 0.961 . S
H1009 C1001 0.960 . S
H1010 C1002 0.930 . S
H1011 C1003 0.929 . S
H1012 C1020 0.929 . S
H1013 C1022 0.930 . S
H1014 C1024 0.930 . S
H1015 C1027 0.929 . S
H1016 C1030 0.930 . S
H1017 C1032 0.960 . S
H1018 C1032 0.960 . S
H1019 C1032 0.960 . S
C1020 H1012 0.929 . S
C1020 C1021 1.377 . S
C1020 C1022 1.384 . S
C1021 C1020 1.377 . S
C1021 C1027 1.390 . S
C1022 H1013 0.930 . S
C1022 C1020 1.384 . S
C1022 C1023 1.372 . S
C1023 C1022 1.372 . S
C1023 C1024 1.400 . S
C1023 C1028 1.490 . S
C1024 H1014 0.930 . S
C1024 C1023 1.400 . S
C1024 C1027 1.386 . S
H1025 C1041 0.930 . S
H1026 C1042 0.931 . S
C1027 H1015 0.929 . S
C1027 C1021 1.390 . S
C1027 C1024 1.386 . S
C1028 C1023 1.490 . S
C1028 C1030 1.395 . S
C1028 C1031 1.403 . S
H1029 C1035 0.930 . S
C1030 H1016 0.930 . S
C1030 C1028 1.395 . S
C1030 C1033 1.403 . S
C1031 C1028 1.403 . S
C1031 C1032 1.524 . S
C1031 C1035 1.400 . S
C1032 H1017 0.960 . S
C1032 H1018 0.960 . S
C1032 H1019 0.960 . S
C1032 C1031 1.524 . S
C1033 C1030 1.403 . S
C1033 C1034 1.392 . S
C1033 C1037 1.495 . S
C1034 C1033 1.392 . S
C1034 C1035 1.385 . S
C1034 C1036 1.478 . S
C1035 H1029 0.930 . S
C1035 C1031 1.400 . S
C1035 C1034 1.385 . S
C1036 C1034 1.478 . S
C1036 C1038 1.381 . S
C1036 C1042 1.383 . S
C1037 C1033 1.495 . S
C1037 H1043 0.959 . S
C1037 H1044 0.961 . S
C1037 H1045 0.960 . S
C1038 C1036 1.381 . S
C1038 C1039 1.394 . S
C1038 H1046 0.930 . S
C1039 C1038 1.394 . S
C1039 C1040 1.383 . S
C1039 H1047 0.929 . S
C1040 C1039 1.383 . S
C1040 C1041 1.377 . S
C1041 H1025 0.930 . S
C1041 C1040 1.377 . S
C1041 C1042 1.379 . S
C1042 H1026 0.931 . S
C1042 C1036 1.383 . S
C1042 C1041 1.379 . S
H1043 C1037 0.959 . S
H1044 C1037 0.961 . S
H1045 C1037 0.960 . S
H1046 C1038 0.930 . S
H1047 C1039 0.929 . S
C193 C4 1.555 . S
C212 C139 1.560 . S
C248 C103 1.561 . S
C229 C16 1.556 . S
C284 C126 1.548 . S
C265 C28 1.535 . S
C320 C114 1.550 . S
C301 C40 1.538 . S
C356 C183 1.534 . S
C337 C52 1.558 . S
C392 C147 1.538 . S
C373 C64 1.559 . S
C409 C76 1.538 . S
C428 C170 1.551 . S
C464 C158 1.537 . S
C445 C88 1.533 . S
C481 C9 1.514 . S
C500 C180 1.521 . S
C536 C150 1.516 . S
C517 C21 1.496 . S
C553 C33 1.526 . S
C572 C169 1.551 . S
C589 C45 1.530 . S
C608 C155 1.550 . S
C644 C136 1.522 . S
C625 C57 1.510 . S
C661 C69 1.493 . S
C680 C106 1.514 . S
C716 C125 1.551 . S
C697 C81 1.526 . S
C752 C111 1.551 . S
C733 C93 1.529 . S
C788 C161 1.533 . S
C769 C6 1.519 . S
C824 C177 1.508 . S
C805 C18 1.519 . S
C841 C30 1.485 . S
C860 C148 1.482 . S
C896 C172 1.483 . S
C877 C42 1.486 . S
C932 C117 1.528 . S
C913 C54 1.516 . S
C949 C66 1.521 . S
C968 C133 1.527 . S
C985 C78 1.485 . S
C1004 C104 1.482 . S
C1021 C90 1.483 . S
C1040 C128 1.486 . S
