# Generated by pormake.
# Topology zzz, (3,6)-cn, num edge types: 1
# Building blocks:
#     Node 0, Type 0, BuildingBlock: PAMTOO_clean_linker_0, # of connection points: 3
#     Node 1, Type 0, BuildingBlock: PAMTOO_clean_linker_0, # of connection points: 3
#     Node 2, Type 0, BuildingBlock: PAMTOO_clean_linker_0, # of connection points: 3
#     Node 3, Type 0, BuildingBlock: PAMTOO_clean_linker_0, # of connection points: 3
#     Node 4, Type 0, BuildingBlock: PAMTOO_clean_linker_0, # of connection points: 3
#     Node 5, Type 0, BuildingBlock: PAMTOO_clean_linker_0, # of connection points: 3
#     Node 6, Type 0, BuildingBlock: PAMTOO_clean_linker_0, # of connection points: 3
#     Node 7, Type 0, BuildingBlock: PAMTOO_clean_linker_0, # of connection points: 3
#     Node 8, Type 1, BuildingBlock: KUMJIN_clean_sbu_1, # of connection points: 6
#     Node 9, Type 1, BuildingBlock: KUMJIN_clean_sbu_1, # of connection points: 6
#     Node 10, Type 1, BuildingBlock: KUMJIN_clean_sbu_1, # of connection points: 6
#     Node 11, Type 1, BuildingBlock: KUMJIN_clean_sbu_1, # of connection points: 6
#     Edge 12, Type (0, 1), BuildingBlock: EZIPEK_clean_linker_0, # of connection points: 2
#     Edge 13, Type (0, 1), BuildingBlock: EZIPEK_clean_linker_0, # of connection points: 2
#     Edge 14, Type (0, 1), BuildingBlock: EZIPEK_clean_linker_0, # of connection points: 2
#     Edge 15, Type (0, 1), BuildingBlock: EZIPEK_clean_linker_0, # of connection points: 2
#     Edge 16, Type (0, 1), BuildingBlock: EZIPEK_clean_linker_0, # of connection points: 2
#     Edge 17, Type (0, 1), BuildingBlock: EZIPEK_clean_linker_0, # of connection points: 2
#     Edge 18, Type (0, 1), BuildingBlock: EZIPEK_clean_linker_0, # of connection points: 2
#     Edge 19, Type (0, 1), BuildingBlock: EZIPEK_clean_linker_0, # of connection points: 2
#     Edge 20, Type (0, 1), BuildingBlock: EZIPEK_clean_linker_0, # of connection points: 2
#     Edge 21, Type (0, 1), BuildingBlock: EZIPEK_clean_linker_0, # of connection points: 2
#     Edge 22, Type (0, 1), BuildingBlock: EZIPEK_clean_linker_0, # of connection points: 2
#     Edge 23, Type (0, 1), BuildingBlock: EZIPEK_clean_linker_0, # of connection points: 2
#     Edge 24, Type (0, 1), BuildingBlock: EZIPEK_clean_linker_0, # of connection points: 2
#     Edge 25, Type (0, 1), BuildingBlock: EZIPEK_clean_linker_0, # of connection points: 2
#     Edge 26, Type (0, 1), BuildingBlock: EZIPEK_clean_linker_0, # of connection points: 2
#     Edge 27, Type (0, 1), BuildingBlock: EZIPEK_clean_linker_0, # of connection points: 2
#     Edge 28, Type (0, 1), BuildingBlock: EZIPEK_clean_linker_0, # of connection points: 2
#     Edge 29, Type (0, 1), BuildingBlock: EZIPEK_clean_linker_0, # of connection points: 2
#     Edge 30, Type (0, 1), BuildingBlock: EZIPEK_clean_linker_0, # of connection points: 2
#     Edge 31, Type (0, 1), BuildingBlock: EZIPEK_clean_linker_0, # of connection points: 2
#     Edge 32, Type (0, 1), BuildingBlock: EZIPEK_clean_linker_0, # of connection points: 2
#     Edge 33, Type (0, 1), BuildingBlock: EZIPEK_clean_linker_0, # of connection points: 2
#     Edge 34, Type (0, 1), BuildingBlock: EZIPEK_clean_linker_0, # of connection points: 2
#     Edge 35, Type (0, 1), BuildingBlock: EZIPEK_clean_linker_0, # of connection points: 2
# Relax obj value: 0.240
# Max RMSD: 0.125
# Mean RMSD: 0.083
data_MOF--net-zzz--node1-KUMJIN_clean_sbu_1--node2-PAMTOO_clean_linker_0--edge1-EZIPEK_clean_linker_0
_symmetry_space_group_name_H-M    P1
_symmetry_Int_Tables_number       1
_symmetry_cell_setting            triclinic
loop_
_symmetry_equiv_pos_as_xyz
'x, y, z'
_cell_length_a     36.450032
_cell_length_b     36.871173
_cell_length_c     11.72429
_cell_angle_alpha  89.741789
_cell_angle_beta   89.978542
_cell_angle_gamma 90.205933
loop_
_atom_site_label
_atom_site_type_symbol
_atom_site_fract_x
_atom_site_fract_y
_atom_site_fract_z
_atom_type_partial_charge
H0 H 0.85306 0.59978 0.3804 0.0
H1 H 0.74952 0.59362 0.20782 0.0
H2 H 0.77772 0.51352 0.46108 0.0
H3 H 0.72011 0.48974 0.22038 0.0
C4 C 0.71617 0.51925 0.20651 0.0
O5 O 0.72444 0.53741 0.30905 0.0
H6 H 0.73726 0.52586 0.14085 0.0
C7 C 0.82676 0.58674 0.36733 0.0
C8 C 0.81909 0.55599 0.4337 0.0
C9 C 0.80417 0.59727 0.27468 0.0
C10 C 0.76845 0.58331 0.27048 0.0
C11 C 0.75839 0.55255 0.33301 0.0
C12 C 0.78439 0.53801 0.41417 0.0
H13 H 0.92862 0.86453 0.37136 0.0
H14 H 0.92758 0.76273 0.19851 0.0
H15 H 1.01918 0.79111 0.41192 0.0
H16 H 0.98812 0.75131 0.09217 0.0
C17 C 1.00323 0.73392 0.15381 0.0
O18 O 0.99023 0.73964 0.26556 0.0
H19 H 0.03167 0.74478 0.14881 0.0
C20 C 0.94115 0.83858 0.35344 0.0
C21 C 0.97461 0.83081 0.40685 0.0
C22 C 0.92726 0.81675 0.2644 0.0
C23 C 0.94081 0.78137 0.25545 0.0
C24 C 0.9749 0.77199 0.30103 0.0
C25 C 0.99246 0.79733 0.37694 0.0
H26 H 0.68336 0.96467 0.31624 0.0
H27 H 0.78605 0.96994 0.13824 0.0
H28 H 0.76801 0.03669 0.43467 0.0
H29 H 0.82565 0.06826 0.1985 0.0
C30 C 0.82791 0.03939 0.17338 0.0
O31 O 0.81742 0.01748 0.2666 0.0
H32 H 0.80726 0.03701 0.10391 0.0
C33 C 0.71128 0.97474 0.31044 0.0
C34 C 0.7225 1.00047 0.39015 0.0
C35 C 0.73308 0.96537 0.21601 0.0
C36 C 0.76914 0.97808 0.20926 0.0
C37 C 0.78228 1.00441 0.28462 0.0
C38 C 0.75853 1.01616 0.37587 0.0
H39 H 0.59956 0.68282 0.27151 0.0
H40 H 0.59491 0.79004 0.12326 0.0
H41 H 0.52488 0.76182 0.40525 0.0
H42 H 0.49374 0.83319 0.21438 0.0
C43 C 0.51981 0.82706 0.16952 0.0
O44 O 0.54515 0.81511 0.25187 0.0
H45 H 0.51138 0.80445 0.11309 0.0
C46 C 0.58865 0.71009 0.2692 0.0
C47 C 0.56212 0.71879 0.35144 0.0
C48 C 0.5986 0.73434 0.17978 0.0
C49 C 0.58572 0.77011 0.18493 0.0
C50 C 0.55835 0.78025 0.26122 0.0
C51 C 0.54614 0.75435 0.34543 0.0
H52 H 0.21403 0.5535 0.20565 0.0
H53 H 0.32516 0.54027 0.3149 0.0
H54 H 0.28629 0.48089 0.0228 0.0
H55 H 0.35962 0.44198 0.22534 0.0
C56 C 0.35696 0.4692 0.26373 0.0
O57 O 0.34394 0.49169 0.17524 0.0
H58 H 0.33544 0.46643 0.33069 0.0
C59 C 0.24042 0.54056 0.19325 0.0
C60 C 0.24566 0.51736 0.09927 0.0
C61 C 0.26894 0.5485 0.26962 0.0
C62 C 0.30334 0.53334 0.25582 0.0
C63 C 0.30962 0.50722 0.17383 0.0
C64 C 0.2809 0.49945 0.092 0.0
H65 H 0.10158 0.20377 0.20142 0.0
H66 H 0.08653 0.30471 0.38105 0.0
H67 H 1.01622 0.27752 0.1012 0.0
H68 H 0.02904 0.37533 0.18909 0.0
C69 C 0.04396 0.36225 0.26076 0.0
O70 O 0.03113 0.32638 0.27233 0.0
H71 H 0.07284 0.36185 0.23107 0.0
C72 C 0.0879 0.22953 0.2119 0.0
C73 C 0.0584 0.23707 0.13808 0.0
C74 C 0.09775 0.25264 0.30372 0.0
C75 C 0.0798 0.28621 0.31288 0.0
C76 C 0.05062 0.29577 0.24248 0.0
C77 C 0.03966 0.27103 0.15399 0.0
H78 H 0.35249 0.09864 0.10658 0.0
H79 H 0.25759 0.10367 0.32358 0.0
H80 H 0.25865 0.03184 0.03449 0.0
H81 H 0.23057 0.04264 0.3823 0.0
C82 C 0.20991 0.03674 0.31497 0.0
O83 O 0.2182 0.05694 0.2161 0.0
H84 H 0.21422 1.00758 0.29617 0.0
C85 C 0.3249 0.09009 0.12767 0.0
C86 C 0.30887 0.06379 0.05744 0.0
C87 C 0.30804 0.10324 0.22736 0.0
C88 C 0.2716 0.09291 0.24993 0.0
C89 C 0.25349 0.06667 0.18417 0.0
C90 C 0.27239 0.05177 0.08697 0.0
H91 H 0.53098 0.35815 0.237 0.0
H92 H 0.48988 0.26179 0.39336 0.0
H93 H 0.49806 0.26818 0.02663 0.0
H94 H 0.52811 0.21576 0.34852 0.0
C95 C 0.51708 0.20077 0.27396 0.0
O96 O 0.49068 0.22196 0.21576 0.0
H97 H 0.54152 0.19889 0.21831 0.0
C98 C 0.51776 0.33192 0.22765 0.0
C99 C 0.50947 0.31886 0.11816 0.0
C100 C 0.51291 0.30998 0.3244 0.0
C101 C 0.49443 0.27724 0.31581 0.0
C102 C 0.49349 0.25943 0.21144 0.0
C103 C 0.49997 0.2808 0.10959 0.0
Eu104 Eu 0.98523 0.06071 0.64621 0.0
C105 C 0.13488 0.04717 0.88879 0.0
N106 N 0.11804 0.02176 0.82332 0.0
C107 C 0.1747 1.01122 0.72376 0.0
C108 C 0.17179 0.05721 0.86898 0.0
C109 C 0.13839 1.00169 0.74841 0.0
C110 C 0.1912 0.03981 0.78218 0.0
C111 C 0.13461 0.0834 0.0607 0.0
C112 C 0.11648 0.06038 0.98329 0.0
C113 C 0.17023 0.09577 0.03616 0.0
C114 C 0.18877 0.08276 0.9402 0.0
Eu115 Eu 0.05446 1.01154 0.86248 0.0
N116 N 0.08164 0.04877 1.00379 0.0
C117 C 0.11707 0.09205 0.16292 0.0
C118 C 0.0654 0.05499 0.10718 0.0
C119 C 0.08263 0.07715 0.18753 0.0
H120 H 0.1264 0.97862 0.70552 0.0
H121 H 0.06941 0.08253 0.26833 0.0
H122 H 0.90883 0.08079 0.80526 0.0
H123 H 0.98578 1.00553 0.21696 0.0
H124 H 0.03872 0.04353 0.12576 0.0
H125 H 0.13082 0.10882 0.22505 0.0
H126 H 1.01076 0.03835 0.38379 0.0
H127 H 0.19003 0.99626 0.66055 0.0
H128 H 0.18422 0.11421 0.09336 0.0
H129 H 0.21685 0.09127 0.92505 0.0
H130 H 0.84514 0.05968 0.82328 0.0
H131 H 0.21951 0.04685 0.76409 0.0
H132 H 0.92343 0.97923 0.22578 0.0
N133 N 0.92206 0.04473 0.66914 0.0
C134 C 0.90782 0.02283 0.58705 0.0
C135 C 0.86263 0.04854 0.75766 0.0
C136 C 0.87087 1.01118 0.59156 0.0
C137 C 0.8992 0.05979 0.74856 0.0
C138 C 0.84867 0.02331 0.68074 0.0
N139 N 0.96393 0.02804 0.48713 0.0
C140 C 0.98373 0.0262 0.3885 0.0
C141 C 0.91397 0.99572 0.39989 0.0
C142 C 0.92907 1.01496 0.4922 0.0
C143 C 0.93478 0.9923 0.30038 0.0
C144 C 0.96977 1.00765 0.29439 0.0
H145 H 0.8202 1.01496 0.68719 0.0
H146 H 0.82849 0.98003 0.50646 0.0
H147 H 0.86621 0.96671 0.33836 0.0
O148 O 0.99398 0.09598 0.50013 0.0
O149 O 0.99108 0.9984 0.61287 0.0
O150 O 0.03152 0.96946 0.73637 0.0
O151 O 0.94828 0.10632 0.61176 0.0
O152 O 0.04681 0.06359 0.59427 0.0
O153 O 0.07019 1.01174 0.67275 0.0
O154 O 0.04256 0.98075 0.01674 0.0
O155 O 0.04666 0.07366 0.89652 0.0
O156 O 1.00738 0.10297 0.77183 0.0
O157 O 0.08859 0.96523 0.91292 0.0
O158 O 0.99289 1.00664 0.90774 0.0
O159 O 0.96921 0.05931 0.83573 0.0
C160 C 1.00802 0.96873 0.65026 0.0
C161 C 0.97857 0.15642 0.5293 0.0
C162 C 0.0295 0.19871 0.5336 0.0
C163 C 1.00724 0.22491 0.4801 0.0
C164 C 0.95663 0.18242 0.47532 0.0
C165 C 0.97065 0.21709 0.4543 0.0
C166 C 1.01372 0.16593 0.56807 0.0
C167 C 0.07298 0.03877 0.59939 0.0
C168 C 0.96777 0.11822 0.52682 0.0
C169 C 0.85663 0.98958 0.50365 0.0
C170 C 0.87811 0.98201 0.40777 0.0
C171 C 0.02989 0.10347 0.85985 0.0
C172 C 0.05592 0.9184 1.00688 0.0
C173 C 1.0067 0.87408 0.03088 0.0
C174 C 0.03308 0.84732 0.0545 0.0
C175 C 0.08185 0.89144 0.03072 0.0
C176 C 1.01856 0.90906 1.00087 0.0
C177 C 0.07044 0.85587 0.05235 0.0
C178 C 0.96692 0.03145 0.90581 0.0
C179 C 0.06768 0.95652 0.99841 0.0
H180 H 1.0186 0.25074 0.45311 0.0
H181 H 0.92938 0.17548 0.44548 0.0
H182 H 0.95396 0.2371 0.41106 0.0
H183 H 0.03045 0.14613 0.61224 0.0
H184 H 0.02474 0.82011 0.07861 0.0
H185 H 0.11079 0.89809 0.03518 0.0
H186 H 0.99833 0.92973 0.98269 0.0
H187 H 0.0905 0.8352 0.07199 0.0
Eu188 Eu 0.53029 0.05169 0.83503 0.0
C189 C 0.5177 0.89418 0.61181 0.0
N190 N 0.53262 0.92595 0.57406 0.0
C191 C 0.58053 0.89323 0.47951 0.0
C192 C 0.53307 0.86053 0.58077 0.0
C193 C 0.56455 0.92588 0.51327 0.0
C194 C 0.56429 0.86038 0.51132 0.0
C195 C 0.47702 0.86325 0.74463 0.0
C196 C 0.48996 0.89553 0.69316 0.0
C197 C 0.49025 0.82962 0.70709 0.0
C198 C 0.51821 0.82826 0.62531 0.0
Eu199 Eu 0.49953 0.97915 0.62167 0.0
N200 N 0.47917 0.9286 0.73212 0.0
C201 C 0.45278 0.86578 0.83679 0.0
C202 C 0.45707 0.93109 0.82577 0.0
C203 C 0.44332 0.89985 0.87879 0.0
H204 H 0.57827 0.95075 0.49181 0.0
H205 H 0.42585 0.90209 0.95309 0.0
H206 H 0.46798 0.1149 0.89801 0.0
H207 H 0.67943 0.07905 0.80337 0.0
H208 H 0.45111 0.95707 0.86279 0.0
H209 H 0.44252 0.84163 0.87924 0.0
H210 H 0.62519 0.04333 0.85349 0.0
H211 H 0.60552 0.89345 0.42955 0.0
H212 H 0.48035 0.80455 0.7449 0.0
H213 H 0.5294 0.80218 0.60137 0.0
H214 H 0.45656 0.17971 0.85612 0.0
H215 H 0.57695 0.83512 0.48592 0.0
H216 H 0.67284 0.14159 0.72974 0.0
N217 N 0.52026 0.11467 0.81875 0.0
C218 C 0.54848 0.13516 0.77906 0.0
C219 C 0.4823 0.16741 0.83175 0.0
C220 C 0.54386 0.17254 0.75702 0.0
C221 C 0.48848 0.1306 0.85333 0.0
C222 C 0.50978 0.18829 0.78025 0.0
N223 N 0.58671 0.08412 0.80345 0.0
C224 C 0.6212 0.07038 0.82086 0.0
C225 C 0.6136 0.1411 0.7429 0.0
C226 C 0.58285 0.1195 0.77187 0.0
C227 C 0.64858 0.1259 0.75106 0.0
C228 C 0.65241 0.09067 0.79281 0.0
H229 H 0.50513 0.2169 0.76469 0.0
H230 H 0.57065 0.22192 0.69946 0.0
H231 H 0.63186 0.19437 0.68735 0.0
O232 O 0.50536 0.04282 1.00187 0.0
O233 O 0.50251 0.07705 0.67584 0.0
O234 O 0.51055 0.03478 0.53466 0.0
O235 O 0.55457 0.07567 0.98648 0.0
O236 O 0.57583 0.01748 0.75089 0.0
O237 O 0.55455 1.00702 0.57254 0.0
O238 O 0.44514 0.96697 0.55652 0.0
O239 O 0.53429 0.95291 0.76033 0.0
O240 O 0.52997 0.99276 0.90663 0.0
O241 O 0.49182 0.96204 0.44556 0.0
O242 O 0.44961 1.00414 0.71731 0.0
O243 O 0.4672 0.05063 0.83565 0.0
C244 C 0.50591 0.06892 0.56649 0.0
C245 C 0.5536 0.02982 0.12416 0.0
C246 C 0.60555 0.98908 0.14738 0.0
C247 C 0.59283 0.98048 0.2572 0.0
C248 C 0.53994 0.01929 0.22994 0.0
C249 C 0.55964 0.9947 0.29582 0.0
C250 C 0.58468 1.01247 0.07986 0.0
C251 C 0.58244 1.01411 0.64092 0.0
C252 C 0.53396 0.056 0.05365 0.0
C253 C 0.5738 0.19332 0.71874 0.0
C254 C 0.60865 0.17762 0.71192 0.0
C255 C 0.535 0.95928 0.87008 0.0
C256 C 0.43749 0.98521 0.36885 0.0
C257 C 0.40695 0.04167 0.32241 0.0
C258 C 0.39821 0.02753 0.21452 0.0
C259 C 0.42606 0.97043 0.26522 0.0
C260 C 0.42889 0.02127 0.39584 0.0
C261 C 0.40811 0.99219 0.18581 0.0
C262 C 0.44129 0.02989 0.79144 0.0
C263 C 0.45632 0.96263 0.45228 0.0
H264 H 0.60841 0.96263 0.31227 0.0
H265 H 0.51445 0.03035 0.26207 0.0
H266 H 0.5492 0.98738 0.3776 0.0
H267 H 0.59332 0.01793 0.99351 0.0
H268 H 0.3827 0.0433 0.15402 0.0
H269 H 0.4317 0.94235 0.2449 0.0
H270 H 0.43693 0.0325 0.47734 0.0
H271 H 0.40103 0.98124 0.10339 0.0
Eu272 Eu 0.57854 0.49967 0.63256 0.0
C273 C 0.43341 0.48515 0.91622 0.0
N274 N 0.44022 0.50826 0.82763 0.0
C275 C 0.38019 0.496 0.7517 0.0
C276 C 0.40103 0.46406 0.91949 0.0
C277 C 0.41298 0.51579 0.7507 0.0
C278 C 0.37457 0.46937 0.83478 0.0
C279 C 0.45291 0.45813 0.09557 0.0
C280 C 0.45842 0.48306 1.00577 0.0
C281 C 0.42228 0.43504 0.09369 0.0
C282 C 0.39603 0.43848 1.00717 0.0
Eu283 Eu 0.49882 0.53725 0.83107 0.0
N284 N 0.4892 0.50416 1.00207 0.0
C285 C 0.47861 0.45685 0.18398 0.0
C286 C 0.51247 0.50543 0.09304 0.0
C287 C 0.5078 0.48142 0.18467 0.0
H288 H 0.41626 0.53706 0.68781 0.0
H289 H 0.52709 0.48122 0.25455 0.0
H290 H 0.65285 0.49097 0.80797 0.0
H291 H 0.58606 0.56398 0.21551 0.0
H292 H 0.53525 0.52419 0.09366 0.0
H293 H 0.47586 0.43741 0.25291 0.0
H294 H 0.56626 0.51831 0.35748 0.0
H295 H 0.35925 0.50139 0.68847 0.0
H296 H 0.41818 0.415 0.16039 0.0
H297 H 0.37182 0.42135 1.00927 0.0
H298 H 0.70902 0.5249 0.85549 0.0
H299 H 0.34926 0.45386 0.83482 0.0
H300 H 0.63178 0.61117 0.27098 0.0
N301 N 0.63328 0.53055 0.68947 0.0
C302 C 0.64339 0.55918 0.62276 0.0
C303 C 0.69028 0.53548 0.79204 0.0
C304 C 0.67549 0.57939 0.64659 0.0
C305 C 0.65794 0.5167 0.76624 0.0
C306 C 0.69824 0.56792 0.73562 0.0
N307 N 0.59831 0.54073 0.49059 0.0
C308 C 0.58601 0.53884 0.38078 0.0
C309 C 0.63787 0.5907 0.44167 0.0
C310 C 0.62533 0.56435 0.51992 0.0
C311 C 0.62253 0.59138 0.33254 0.0
C312 C 0.59708 0.5648 0.30098 0.0
H313 H 0.72336 0.58236 0.75565 0.0
H314 H 0.70995 0.62432 0.59239 0.0
H315 H 0.6765 0.63463 0.41326 0.0
O316 O 0.5795 0.45142 0.52515 0.0
O317 O 0.54881 0.5511 0.56955 0.0
O318 O 0.53321 0.58014 0.73217 0.0
O319 O 0.63013 0.47768 0.56827 0.0
O320 O 0.52137 0.49078 0.54772 0.0
O321 O 0.47898 0.52434 0.65085 0.0
O322 O 0.48107 0.57002 0.97486 0.0
O323 O 0.51092 0.47565 0.85506 0.0
O324 O 0.5577 0.4526 0.74399 0.0
O325 O 0.46119 0.58274 0.80655 0.0
O326 O 0.55683 0.54784 0.90254 0.0
O327 O 0.58774 0.49925 0.82833 0.0
C328 C 0.54147 0.5816 0.62251 0.0
C329 C 0.62857 0.41413 0.58147 0.0
C330 C 0.61649 0.3503 0.61496 0.0
C331 C 0.64275 0.3494 0.70186 0.0
C332 C 0.65546 0.41326 0.66788 0.0
C333 C 0.66261 0.38091 0.72705 0.0
C334 C 0.61031 0.38229 0.55363 0.0
C335 C 0.48771 0.50408 0.5626 0.0
C336 C 0.615 0.44826 0.53144 0.0
C337 C 0.68586 0.60806 0.57404 0.0
C338 C 0.66693 0.61381 0.47176 0.0
C339 C 0.53196 0.44835 0.82226 0.0
C340 C 0.4719 0.63098 0.93213 0.0
C341 C 0.5196 0.67625 0.95858 0.0
C342 C 0.49344 0.69979 1.00586 0.0
C343 C 0.44604 0.65437 0.98017 0.0
C344 C 0.50805 0.64288 0.91566 0.0
C345 C 0.45671 0.68906 0.01481 0.0
C346 C 0.58473 0.52504 0.90566 0.0
C347 C 0.46275 0.59288 0.91253 0.0
H348 H 0.64767 0.32469 0.74965 0.0
H349 H 0.67021 0.43757 0.69189 0.0
H350 H 0.68295 0.38053 0.79428 0.0
H351 H 0.58956 0.38274 0.48714 0.0
H352 H 0.50165 0.72597 0.03918 0.0
H353 H 0.41799 0.6455 0.99355 0.0
H354 H 0.5281 0.62491 0.87926 0.0
H355 H 0.43684 0.70708 0.05284 0.0
Eu356 Eu 0.05153 0.56589 0.6503 0.0
C357 C 0.07076 0.44833 0.01753 0.0
N358 N 0.04726 0.44799 0.92713 0.0
C359 C 0.05938 0.38485 0.89678 0.0
C360 C 0.09023 0.41678 0.04876 0.0
C361 C 0.04095 0.41676 0.86792 0.0
C362 C 0.08421 0.38487 0.98723 0.0
C363 C 0.10352 0.48226 0.16313 0.0
C364 C 0.07722 0.4809 0.07456 0.0
C365 C 0.12208 0.45064 0.19596 0.0
C366 C 0.1156 0.41809 0.13867 0.0
Eu367 Eu 1.01627 0.50294 0.88872 0.0
N368 N 0.05974 0.51161 0.03856 0.0
C369 C 0.1114 0.51561 0.21383 0.0
C370 C 0.06734 0.54408 0.08905 0.0
C371 C 0.0934 0.54665 0.17611 0.0
H372 H 0.02117 0.416 0.79954 0.0
H373 H 0.09908 0.57258 0.21541 0.0
H374 H 0.03511 0.65195 0.75551 0.0
H375 H 1.01709 0.50934 0.23704 0.0
H376 H 0.05295 0.56809 0.06606 0.0
H377 H 0.13151 0.51774 0.28155 0.0
H378 H 0.04867 0.51145 0.41771 0.0
H379 H 0.05431 0.3602 0.84945 0.0
H380 H 0.14219 0.45125 0.264 0.0
H381 H 0.1308 0.39412 0.1635 0.0
H382 H 0.99995 0.70533 0.70127 0.0
H383 H 0.09858 0.3601 1.00895 0.0
H384 H 0.98383 0.56366 0.16554 0.0
N385 N 1.01898 0.62041 0.61114 0.0
C386 C 1.00341 0.62184 0.5053 0.0
C387 C 1.00009 0.68181 0.6463 0.0
C388 C 0.98494 0.65334 0.46777 0.0
C389 C 1.01907 0.6506 0.67885 0.0
C390 C 0.98262 0.68309 0.54082 0.0
N391 N 0.0261 0.56244 0.46686 0.0
C392 C 0.03144 0.53393 0.39514 0.0
C393 C 0.99252 0.59393 0.32078 0.0
C394 C 1.00742 0.5924 0.4314 0.0
C395 C 0.99554 0.56361 0.2504 0.0
C396 C 1.01435 0.53316 0.28935 0.0
H397 H 0.96864 0.70767 0.51479 0.0
H398 H 0.95598 0.67859 0.32739 0.0
H399 H 0.96333 0.62664 0.19906 0.0
O400 O 0.10608 0.5592 0.57413 0.0
O401 O 0.98933 0.55387 0.62546 0.0
O402 O 0.96726 0.51793 0.77213 0.0
O403 O 0.07891 0.61107 0.56659 0.0
O404 O 0.05717 0.50441 0.61162 0.0
O405 O 1.01234 0.47526 0.71487 0.0
O406 O 0.98742 0.50159 0.05028 0.0
O407 O 0.07853 0.4989 0.84367 0.0
O408 O 0.09161 0.55699 0.80006 0.0
O409 O 0.97651 0.45976 0.92759 0.0
O410 O 1.0026 0.56403 0.92025 0.0
O411 O 0.04779 0.59398 0.82268 0.0
C412 C 0.96195 0.53665 0.67688 0.0
C413 C 0.14135 0.61213 0.6057 0.0
C414 C 0.20651 0.62468 0.6017 0.0
C415 C 0.20347 0.64619 0.69929 0.0
C416 C 0.13812 0.63381 0.70371 0.0
C417 C 0.16911 0.65073 0.7502 0.0
C418 C 0.17544 0.6078 0.55546 0.0
C419 C 0.03475 0.47626 0.62662 0.0
C420 C 0.10954 0.59394 0.55485 0.0
C421 C 0.97041 0.65476 0.35729 0.0
C422 C 0.97473 0.62537 0.28387 0.0
C423 C 0.10291 0.52551 0.84082 0.0
C424 C 0.92694 0.47977 0.03894 0.0
C425 C 0.87497 0.52063 0.06019 0.0
C426 C 0.85247 0.49064 0.08619 0.0
C427 C 0.90422 0.45019 0.06531 0.0
C428 C 0.91186 0.51471 0.032 0.0
C429 C 0.86698 0.45561 0.08731 0.0
C430 C 0.02133 0.59427 0.89869 0.0
C431 C 0.96652 0.47434 0.02322 0.0
H432 H 0.22747 0.65905 0.73589 0.0
H433 H 0.11172 0.63774 0.74376 0.0
H434 H 0.16647 0.66723 0.82587 0.0
H435 H 0.17799 0.5909 0.48021 0.0
H436 H 0.82394 0.49446 0.10909 0.0
H437 H 0.91538 0.42303 0.07033 0.0
H438 H 0.92937 0.53774 1.01266 0.0
H439 H 0.84954 0.43274 0.10856 0.0
C440 C 0.14353 1.01541 0.3581 0.0
C441 C 0.17074 0.04268 0.36819 0.0
C442 C 0.13093 0.0714 0.5164 0.0
C443 C 0.10668 0.04061 0.51814 0.0
N444 N 0.10204 0.97727 0.46361 0.0
N445 N 0.19166 0.09564 0.4606 0.0
C446 C 0.11621 1.011 0.44509 0.0
C447 C 0.16429 0.07079 0.44818 0.0
N448 N 0.14373 0.99314 0.26554 0.0
N449 N 0.12307 0.10043 0.58377 0.0
H450 H 0.19206 0.11616 0.52141 0.0
H451 H 0.19206 0.11616 0.52141 0.0
H452 H 0.10046 0.10098 0.63782 0.0
H453 H 0.13732 0.12489 0.58145 0.0
H454 H 0.12276 0.97449 0.24971 0.0
H455 H 0.16224 0.99672 0.19838 0.0
H456 H 0.11066 0.95458 0.41815 0.0
H457 H 0.08563 0.97078 0.5331 0.0
C458 C 0.47868 0.15956 0.41465 0.0
C459 C 0.50493 0.16298 0.32459 0.0
C460 C 0.5302 0.10333 0.38524 0.0
C461 C 0.50392 0.09963 0.47538 0.0
N462 N 0.44443 0.11848 0.53801 0.0
N463 N 0.54621 0.13071 0.2024 0.0
C464 C 0.47576 0.12631 0.47957 0.0
C465 C 0.52754 0.13239 0.30323 0.0
N466 N 0.45622 0.18793 0.43897 0.0
N467 N 0.55865 0.07977 0.37846 0.0
H468 H 0.54063 0.14819 0.13441 0.0
H469 H 0.56394 0.10986 0.18071 0.0
H470 H 0.5606 0.05693 0.42959 0.0
H471 H 0.58146 0.0838 0.32637 0.0
H472 H 0.44016 0.18894 0.51246 0.0
H473 H 0.45444 0.21076 0.38703 0.0
H474 H 0.42154 0.13531 0.53888 0.0
H475 H 0.43959 0.09246 0.56975 0.0
C476 C 0.41065 0.5142 0.33061 0.0
C477 C 0.39414 0.47893 0.32783 0.0
C478 C 0.44407 0.45916 0.46202 0.0
C479 C 0.45662 0.49542 0.47738 0.0
N480 N 0.44124 0.5587 0.44845 0.0
N481 N 0.39289 0.41953 0.41892 0.0
C482 C 0.43666 0.52325 0.41883 0.0
C483 C 0.41038 0.45196 0.4013 0.0
N484 N 0.40382 0.53896 0.2466 0.0
N485 N 0.46364 0.43108 0.50754 0.0
H486 H 0.36822 0.41221 0.3806 0.0
H487 H 0.40102 0.40101 0.48129 0.0
H488 H 0.48672 0.43467 0.55864 0.0
H489 H 0.45853 0.40407 0.48687 0.0
H490 H 0.41748 0.56382 0.242 0.0
H491 H 0.38972 0.53286 0.17227 0.0
H492 H 0.42474 0.57934 0.4158 0.0
H493 H 0.45856 0.56714 0.51367 0.0
C494 C 0.07202 0.39876 0.42834 0.0
C495 C 0.04012 0.38682 0.36991 0.0
C496 C 1.00364 0.42679 0.49819 0.0
C497 C 0.03628 0.44347 0.5437 0.0
N498 N 0.10258 0.44292 0.54983 0.0
N499 N 0.97489 0.39188 0.34612 0.0
C500 C 0.07075 0.42866 0.50782 0.0
C501 C 1.00581 0.40136 0.40486 0.0
N502 N 0.10337 0.37984 0.4085 0.0
N503 N 0.97013 0.43417 0.54465 0.0
H504 H 0.97461 0.37177 0.2839 0.0
H505 H 0.95004 0.40552 0.35405 0.0
H506 H 0.9656 0.45321 0.60786 0.0
H507 H 0.94658 0.41927 0.52591 0.0
H508 H 0.12806 0.38361 0.45174 0.0
H509 H 0.12806 0.38361 0.45174 0.0
H510 H 0.12821 0.43849 0.51343 0.0
H511 H 0.10346 0.46043 0.61903 0.0
C512 C 0.87101 1.00612 0.03182 0.0
C513 C 0.86702 0.0315 0.12209 0.0
C514 C 0.93063 0.05294 0.08131 0.0
C515 C 0.93394 0.02892 0.98705 0.0
N516 N 0.90933 0.97795 0.88519 0.0
N517 N 0.8983 0.07421 0.24568 0.0
C518 C 0.90484 1.00369 0.96737 0.0
C519 C 0.89816 0.05327 0.1504 0.0
N520 N 0.84074 0.98625 1.00495 0.0
N521 N 0.95937 0.07499 0.10916 0.0
H522 H 0.87724 0.07426 0.30603 0.0
H523 H 0.87724 0.07426 0.30603 0.0
H524 H 0.98418 0.0747 0.06492 0.0
H525 H 0.95842 0.09308 0.17736 0.0
H526 H 0.83856 0.96871 0.93586 0.0
H527 H 0.83856 0.96871 0.93586 0.0
H528 H 0.892 0.95582 0.87378 0.0
H529 H 0.9319 0.97777 0.83071 0.0
C530 C 0.52391 0.89679 0.142 0.0
C531 C 0.53171 0.86167 0.09937 0.0
C532 C 0.55255 0.89233 0.92062 0.0
C533 C 0.53666 0.9263 0.95365 0.0
N534 N 0.50008 0.95616 0.09757 0.0
N535 N 0.55249 0.82681 0.93808 0.0
C536 C 0.52085 0.92736 0.06549 0.0
C537 C 0.54584 0.85975 0.98606 0.0
N538 N 0.51894 0.90112 0.25621 0.0
N539 N 0.57582 0.89089 0.82965 0.0
H540 H 0.55098 0.80243 0.98264 0.0
H541 H 0.55762 0.82374 0.85129 0.0
H542 H 0.58322 0.91346 0.78219 0.0
H543 H 0.59124 0.86805 0.80949 0.0
H544 H 0.51879 0.92653 0.29379 0.0
H545 H 0.5201 0.87964 0.31415 0.0
H546 H 0.48993 0.95909 0.17947 0.0
H547 H 0.48886 0.97458 0.04031 0.0
C548 C 0.67224 0.55534 0.07306 0.0
C549 C 0.67716 0.52664 0.153 0.0
C550 C 0.61857 0.49987 0.08335 0.0
C551 C 0.61426 0.52777 0.99964 0.0
N552 N 0.63426 0.58579 0.92919 0.0
N553 N 0.64781 0.47644 0.25123 0.0
C554 C 0.63996 0.55712 1.00103 0.0
C555 C 0.64814 0.50085 0.16392 0.0
N556 N 0.70038 0.5794 0.06326 0.0
N557 N 0.59409 0.4719 0.08793 0.0
H558 H 0.66687 0.47649 0.31769 0.0
H559 H 0.66687 0.47649 0.31769 0.0
H560 H 0.57238 0.46952 0.03081 0.0
H561 H 0.59602 0.45088 0.14758 0.0
H562 H 0.70188 0.60036 1.0036 0.0
H563 H 0.70188 0.60036 1.0036 0.0
H564 H 0.65017 0.60917 0.92548 0.0
H565 H 0.61205 0.5868 0.87401 0.0
C566 C 0.97437 0.67937 0.03815 0.0
C567 C 1.00291 0.69362 0.10963 0.0
C568 C 0.04357 0.64638 0.03327 0.0
C569 C 1.01478 0.62914 0.97023 0.0
N570 N 0.95119 0.63077 0.91682 0.0
N571 N 0.05996 0.68012 0.20274 0.0
C572 C 0.97956 0.64589 0.97571 0.0
C573 C 0.03555 0.67313 0.11747 0.0
N574 N 0.94247 0.69819 0.02702 0.0
N575 N 0.07918 0.64129 1.00368 0.0
H576 H 0.05456 0.699 0.26663 0.0
H577 H 0.0831 0.66411 0.21654 0.0
H578 H 0.086 0.63122 0.92431 0.0
H579 H 0.10097 0.65424 0.04453 0.0
H580 H 0.92258 0.69258 0.96588 0.0
H581 H 0.93634 0.72028 0.07778 0.0
H582 H 0.9238 0.63763 0.92924 0.0
H583 H 0.9554 0.61065 0.85639 0.0
C584 C 0.12302 0.20097 0.40854 0.0
C585 C 0.12086 0.2388 0.40241 0.0
C586 C 0.08403 0.23759 0.57362 0.0
C587 C 0.06994 0.20397 0.53357 0.0
N588 N 0.08314 0.14917 0.42376 0.0
N589 N 0.13042 0.28485 0.54268 0.0
C590 C 0.09256 0.18309 0.45869 0.0
C591 C 0.11283 0.2541 0.50961 0.0
N592 N 0.15043 0.18329 0.35376 0.0
N593 N 0.06799 0.25426 0.6641 0.0
H594 H 0.15033 0.29673 0.49014 0.0
H595 H 0.12634 0.297 0.6217 0.0
H596 H 0.04718 0.24145 0.71071 0.0
H597 H 0.07517 0.28019 0.69117 0.0
H598 H 0.15356 0.15524 0.35848 0.0
H599 H 0.17091 0.1978 0.3107 0.0
H600 H 0.09738 0.13603 0.35947 0.0
H601 H 0.06139 0.13419 0.45624 0.0
C602 C 0.36621 0.13297 0.28373 0.0
C603 C 0.33122 0.12077 0.31844 0.0
C604 C 0.35902 0.07474 0.43602 0.0
C605 C 0.38957 0.07596 0.35986 0.0
N606 N 0.42789 0.11247 0.23691 0.0
N607 N 0.30452 0.10709 0.49989 0.0
C608 C 0.39579 0.10807 0.29506 0.0
C609 C 0.33129 0.10121 0.42142 0.0
N610 N 0.36911 0.16485 0.2258 0.0
N611 N 0.35496 0.04751 0.51412 0.0
H612 H 0.28469 0.12704 0.48626 0.0
H613 H 0.30423 0.09473 0.58002 0.0
H614 H 0.37506 0.02819 0.52991 0.0
H615 H 0.33111 0.04392 0.56194 0.0
H616 H 0.39404 0.17577 0.19869 0.0
H617 H 0.34594 0.18091 0.21208 0.0
H618 H 0.43283 0.1338 0.18039 0.0
H619 H 0.44946 0.09411 0.2461 0.0
C620 C 0.52916 0.32208 0.52966 0.0
C621 C 0.53974 0.31202 0.4182 0.0
C622 C 0.60298 0.3024 0.48095 0.0
C623 C 0.59348 0.31911 0.58422 0.0
N624 N 0.54825 0.32791 0.72762 0.0
N625 N 0.58142 0.2811 0.29584 0.0
C626 C 0.55638 0.32242 0.61589 0.0
C627 C 0.57535 0.29809 0.39705 0.0
N628 N 0.494 0.33269 0.55111 0.0
N629 N 0.63897 0.29457 0.46107 0.0
H630 H 0.60583 0.26845 0.27292 0.0
H631 H 0.60583 0.26845 0.27292 0.0
H632 H 0.65862 0.29751 0.52528 0.0
H633 H 0.64946 0.28604 0.38323 0.0
H634 H 0.48548 0.34329 0.62887 0.0
H635 H 0.47371 0.33257 0.48832 0.0
H636 H 0.52163 0.32879 0.75959 0.0
H637 H 0.56913 0.32801 0.7885 0.0
C638 C 0.26369 0.55894 0.48052 0.0
C639 C 0.26309 0.57283 0.36724 0.0
C640 C 0.24636 0.63278 0.43654 0.0
C641 C 0.24163 0.61719 0.54569 0.0
N642 N 0.26037 0.57297 0.68277 0.0
N643 N 0.26461 0.62265 0.23824 0.0
C644 C 0.2564 0.58295 0.57135 0.0
C645 C 0.25825 0.61021 0.34603 0.0
N646 N 0.26827 0.52266 0.50033 0.0
N647 N 0.23593 0.66791 0.41981 0.0
H648 H 0.26304 0.64974 0.21318 0.0
H649 H 0.26304 0.64974 0.21318 0.0
H650 H 0.22781 0.68407 0.48825 0.0
H651 H 0.23477 0.68076 0.3408 0.0
H652 H 0.26566 0.51072 0.58055 0.0
H653 H 0.27205 0.50384 0.43534 0.0
H654 H 0.27283 0.54897 0.70902 0.0
H655 H 0.25404 0.59088 0.74859 0.0
C656 C 0.91907 0.8193 0.05591 0.0
C657 C 0.90878 0.83415 0.16193 0.0
C658 C 0.9456 0.88643 0.12832 0.0
C659 C 0.96702 0.86595 0.04925 0.0
N660 N 0.96728 0.81693 0.9121 0.0
N661 N 0.88498 0.89221 0.21217 0.0
C662 C 0.95107 0.83386 1.00198 0.0
C663 C 0.91119 0.87198 0.16088 0.0
N664 N 0.89959 0.79095 1.01318 0.0
N665 N 0.9598 0.9145 0.18922 0.0
H666 H 0.86133 0.88008 0.24556 0.0
H667 H 0.88656 0.92046 0.21341 0.0
H668 H 0.986 0.92512 0.17841 0.0
H669 H 0.94672 0.92325 0.26305 0.0
H670 H 0.90476 0.77939 0.93393 0.0
H671 H 0.87697 0.78061 0.05765 0.0
H672 H 0.95865 0.79189 0.88116 0.0
H673 H 0.98971 0.82829 0.86938 0.0
C674 C 0.68698 0.92651 0.12649 0.0
C675 C 0.71393 0.95344 0.11075 0.0
C676 C 0.66929 0.99833 0.06326 0.0
C677 C 0.64127 0.97466 0.10589 0.0
N678 N 0.62189 0.91221 0.12982 0.0
N679 N 0.72987 1.00026 0.97765 0.0
C680 C 0.64948 0.93699 0.11949 0.0
C681 C 0.70419 0.98331 0.04321 0.0
N682 N 0.69761 0.89332 0.16516 0.0
N683 N 0.66496 0.03506 0.05721 0.0
H684 H 0.75619 0.98952 0.96885 0.0
H685 H 0.72354 0.02235 0.9254 0.0
H686 H 0.64195 0.04864 0.08704 0.0
H687 H 0.68638 0.05244 0.03426 0.0
H688 H 0.67944 0.87307 0.19125 0.0
H689 H 0.72546 0.88713 0.17323 0.0
H690 H 0.62613 0.88434 0.13454 0.0
H691 H 0.59454 0.9199 0.1245 0.0
C692 C 0.61761 0.68292 0.06285 0.0
C693 C 0.61569 0.72068 0.07039 0.0
C694 C 0.5708 0.72013 0.91873 0.0
C695 C 0.55914 0.68602 0.96316 0.0
N696 N 0.57729 0.63099 0.06574 0.0
N697 N 0.61869 0.76683 0.92673 0.0
C698 C 0.58501 0.66507 0.02732 0.0
C699 C 0.60212 0.73662 0.96946 0.0
N700 N 0.64707 0.66545 0.10734 0.0
N701 N 0.55173 0.73627 0.83256 0.0
H702 H 0.64132 0.77817 0.96828 0.0
H703 H 0.61129 0.77888 0.84965 0.0
H704 H 0.5296 0.7233 0.79325 0.0
H705 H 0.55829 0.76167 0.79933 0.0
H706 H 0.65027 0.63749 0.10301 0.0
H707 H 0.66906 0.6801 0.14139 0.0
H708 H 0.5956 0.61656 0.11575 0.0
H709 H 0.5524 0.61776 0.05436 0.0
C710 C 0.85902 0.61613 0.17118 0.0
C711 C 0.82083 0.61395 0.16818 0.0
C712 C 0.82672 0.5684 0.02053 0.0
C713 C 0.86052 0.55814 0.07319 0.0
N714 N 0.90631 0.57373 0.21677 0.0
N715 N 0.77895 0.61482 1.01163 0.0
C716 C 0.87767 0.58336 0.14885 0.0
C717 C 0.80804 0.59922 0.06472 0.0
N718 N 0.87556 0.64532 0.21907 0.0
N719 N 0.81236 0.54843 0.93365 0.0
H720 H 0.76598 0.63727 0.04762 0.0
H721 H 0.76969 0.60697 0.93136 0.0
H722 H 0.82683 0.52718 0.89631 0.0
H723 H 0.7863 0.55291 0.90008 0.0
H724 H 0.90396 0.64748 0.22421 0.0
H725 H 0.86019 0.66765 0.24541 0.0
H726 H 0.91343 0.58942 0.28706 0.0
H727 H 0.91852 0.54831 0.21569 0.0
C728 C 1.01407 0.18722 0.06029 0.0
C729 C 0.0478 0.20686 0.05217 0.0
C730 C 0.07024 0.15826 0.92099 0.0
C731 C 0.03573 0.1398 0.92376 0.0
N732 N 0.9716 0.14453 0.97361 0.0
N733 N 0.10439 0.21452 0.94926 0.0
C734 C 1.0067 0.15683 0.98597 0.0
C735 C 0.0747 0.19326 0.9746 0.0
N736 N 0.98954 0.196 0.14364 0.0
N737 N 0.09919 0.14238 0.86722 0.0
H738 H 0.10795 0.24032 0.98388 0.0
H739 H 0.12321 0.20837 0.88542 0.0
H740 H 0.09683 0.11785 0.82427 0.0
H741 H 0.12602 0.15201 0.87281 0.0
H742 H 0.96674 0.18001 0.16327 0.0
H743 H 0.99365 0.21741 0.19994 0.0
H744 H 0.94897 0.15804 1.00694 0.0
H745 H 0.96471 0.12272 0.92188 0.0
C746 C 0.35035 0.07829 0.88776 0.0
C747 C 0.3334 0.05121 0.95727 0.0
C748 C 0.37697 1.00769 0.86871 0.0
C749 C 0.40069 0.03639 0.82986 0.0
N750 N 0.40517 0.10078 0.79453 0.0
N751 N 0.33218 0.98803 1.01066 0.0
C752 C 0.38576 0.07217 0.83689 0.0
C753 C 0.34694 1.0152 0.9459 0.0
N754 N 0.33224 0.11019 0.8704 0.0
N755 N 0.3811 0.97363 0.82661 0.0
H756 H 0.3106 0.99221 0.06722 0.0
H757 H 0.34316 0.96198 1.01364 0.0
H758 H 0.39784 0.96842 0.75691 0.0
H759 H 0.36348 0.95225 0.84715 0.0
H760 H 0.34094 0.13 0.81272 0.0
H761 H 0.30624 0.11485 0.90475 0.0
H762 H 0.39827 0.12775 0.80914 0.0
H763 H 0.42945 0.0974 0.74999 0.0
C764 C 0.55162 0.35855 0.99434 0.0
C765 C 0.51553 0.34569 0.01864 0.0
C766 C 0.49172 0.39453 0.89077 0.0
C767 C 0.52717 0.41106 0.88197 0.0
N768 N 0.59187 0.40682 0.92682 0.0
N769 N 0.45069 0.35248 0.99028 0.0
C770 C 0.55743 0.39218 0.9329 0.0
C771 C 0.48551 0.36386 0.96586 0.0
N772 N 0.58066 0.33769 0.0277 0.0
N773 N 0.46411 0.40707 0.82268 0.0
H774 H 0.44527 0.32978 0.04102 0.0
H775 H 0.42724 0.36634 0.96494 0.0
H776 H 0.46776 0.42847 0.76528 0.0
H777 H 0.43877 0.39422 0.81474 0.0
H778 H 0.60767 0.34257 1.00318 0.0
H779 H 0.57717 0.313 0.07025 0.0
H780 H 0.6141 0.39726 0.9736 0.0
H781 H 0.59818 0.43035 0.88186 0.0
C782 C 0.19291 0.48449 0.98489 0.0
C783 C 0.21391 0.51619 1.01086 0.0
C784 C 0.16203 0.55234 0.93582 0.0
C785 C 0.14193 0.52131 0.89726 0.0
N786 N 0.14687 0.45669 0.86236 0.0
N787 N 0.22153 0.57974 0.96878 0.0
C788 C 0.15997 0.48698 0.91489 0.0
C789 C 0.19962 0.54966 0.97014 0.0
N790 N 0.20344 0.45198 0.02961 0.0
N791 N 0.14423 0.58396 0.95496 0.0
H792 H 0.24924 0.57873 0.99107 0.0
H793 H 0.21305 0.60434 0.93348 0.0
H794 H 0.11596 0.5841 0.96023 0.0
H795 H 0.15692 0.60689 0.98892 0.0
H796 H 0.18747 0.42857 0.02376 0.0
H797 H 0.22689 0.44916 0.07967 0.0
H798 H 0.16047 0.43189 0.8647 0.0
H799 H 0.12487 0.45714 0.80613 0.0
C800 C 1.01183 0.88929 0.42836 0.0
C801 C 0.99035 0.86159 0.48083 0.0
C802 C 0.98238 0.90294 0.64772 0.0
C803 C 1.00115 0.93188 0.59042 0.0
N804 N 0.02769 0.95305 0.41424 0.0
N805 N 0.95226 0.8436 0.63826 0.0
C806 C 1.01415 0.92501 0.47747 0.0
C807 C 0.97506 0.86893 0.59045 0.0
N808 N 0.0305 0.88131 0.33076 0.0
N809 N 0.97086 0.90817 0.75709 0.0
H810 H 0.94847 0.81793 0.60287 0.0
H811 H 0.93584 0.84837 0.70917 0.0
H812 H 0.97404 0.9328 0.79887 0.0
H813 H 0.95961 0.88795 0.80836 0.0
H814 H 0.0496 0.89869 0.29304 0.0
H815 H 0.02951 0.8557 0.29369 0.0
H816 H 0.03319 0.95147 0.32723 0.0
H817 H 0.03126 0.97879 0.44799 0.0
C818 C 0.6834 0.98486 0.5655 0.0
C819 C 0.69316 1.01052 0.47905 0.0
C820 C 0.63582 0.04367 0.52604 0.0
C821 C 0.62238 1.01441 0.59442 0.0
N822 N 0.63735 0.9597 0.69539 0.0
N823 N 0.67607 0.06384 0.373 0.0
C824 C 0.64763 0.98591 0.61952 0.0
C825 C 0.6688 0.03998 0.45947 0.0
N826 N 0.70885 0.95955 0.59643 0.0
N827 N 0.61856 0.07627 0.53087 0.0
H828 H 0.70015 0.06287 0.32499 0.0
H829 H 0.65715 0.08306 0.34505 0.0
H830 H 0.59481 0.08001 0.57874 0.0
H831 H 0.62934 0.09992 0.49486 0.0
H832 H 0.70559 0.94124 0.66339 0.0
H833 H 0.73493 0.95882 0.55964 0.0
H834 H 0.6515 0.93563 0.70899 0.0
H835 H 0.61393 0.96231 0.74514 0.0
C836 C 0.52921 0.6586 0.38977 0.0
C837 C 0.55059 0.68776 0.4331 0.0
C838 C 0.56444 0.64891 0.60347 0.0
C839 C 0.54458 0.61856 0.5568 0.0
N840 N 0.51517 0.59448 0.38704 0.0
N841 N 0.58958 0.71051 0.58056 0.0
C842 C 0.52894 0.62352 0.44504 0.0
C843 C 0.56812 0.68284 0.54063 0.0
N844 N 0.50832 0.66469 0.29482 0.0
N845 N 0.58176 0.64465 0.70573 0.0
H846 H 0.59127 0.7356 0.53933 0.0
H847 H 0.60623 0.70907 0.6523 0.0
H848 H 0.58397 0.61971 0.74613 0.0
H849 H 0.59447 0.66529 0.75099 0.0
H850 H 0.48871 0.64651 0.2646 0.0
H851 H 0.50783 0.68972 0.25299 0.0
H852 H 0.50879 0.59522 0.30049 0.0
H853 H 0.51296 0.56854 0.42065 0.0
C854 C 0.85769 0.55916 0.61866 0.0
C855 C 0.85108 0.54293 0.51031 0.0
C856 C 0.91637 0.52218 0.51129 0.0
C857 C 0.923 0.53747 0.62153 0.0
N858 N 0.89673 0.5659 0.78651 0.0
N859 N 0.87268 0.50268 0.36556 0.0
C860 C 0.89247 0.55428 0.67714 0.0
C861 C 0.88009 0.52246 0.46104 0.0
N862 N 0.83075 0.58026 0.66449 0.0
N863 N 0.94506 0.50778 0.45251 0.0
H864 H 0.84672 0.50225 0.32823 0.0
H865 H 0.89084 0.48421 0.32984 0.0
H866 H 0.971 0.50498 0.48809 0.0
H867 H 0.94378 0.50027 0.36714 0.0
H868 H 0.83432 0.59684 0.73519 0.0
H869 H 0.80474 0.58234 0.62783 0.0
H870 H 0.87602 0.57731 0.83517 0.0
H871 H 0.92087 0.56206 0.83178 0.0
loop_
_geom_bond_atom_site_label_1
_geom_bond_atom_site_label_2
_geom_bond_distance
_geom_bond_site_symmetry_2
_ccdc_geom_bond_type
H0 C7 0.929 . S
H1 C10 0.930 . S
H2 C12 0.929 . S
H3 C4 0.969 . S
C4 H3 0.969 . S
C4 O5 1.550 . S
C4 H6 0.973 . S
O5 C4 1.550 . S
O5 C11 1.412 . S
H6 C4 0.973 . S
C7 H0 0.929 . S
C7 C8 1.400 . S
C7 C9 1.364 . S
C8 C7 1.400 . S
C8 C12 1.377 . S
C9 C7 1.364 . S
C9 C10 1.374 . S
C10 H1 0.930 . S
C10 C9 1.374 . S
C10 C11 1.383 . S
C11 O5 1.412 . S
C11 C10 1.383 . S
C11 C12 1.394 . S
C12 H2 0.929 . S
C12 C8 1.377 . S
C12 C11 1.394 . S
H13 C20 0.929 . S
H14 C23 0.930 . S
H15 C25 0.929 . S
H16 C17 0.969 1_455 S
C17 H16 0.969 1_655 S
C17 O18 1.550 . S
C17 H19 0.973 . S
O18 C17 1.550 . S
O18 C24 1.412 . S
H19 C17 0.973 . S
C20 H13 0.929 . S
C20 C21 1.400 . S
C20 C22 1.364 . S
C21 C20 1.400 . S
C21 C25 1.377 . S
C22 C20 1.364 . S
C22 C23 1.374 . S
C23 H14 0.930 . S
C23 C22 1.374 . S
C23 C24 1.383 . S
C24 O18 1.412 . S
C24 C23 1.383 . S
C24 C25 1.394 . S
C25 H15 0.929 . S
C25 C21 1.377 . S
C25 C24 1.394 . S
H26 C33 0.929 . S
H27 C36 0.930 . S
H28 C38 0.929 . S
H29 C30 0.969 1_545 S
C30 H29 0.969 1_565 S
C30 O31 1.550 . S
C30 H32 0.973 . S
O31 C30 1.550 . S
O31 C37 1.412 . S
H32 C30 0.973 . S
C33 H26 0.929 . S
C33 C34 1.400 . S
C33 C35 1.364 . S
C34 C33 1.400 . S
C34 C38 1.377 . S
C35 C33 1.364 . S
C35 C36 1.374 . S
C36 H27 0.930 . S
C36 C35 1.374 . S
C36 C37 1.383 . S
C37 O31 1.412 . S
C37 C36 1.383 . S
C37 C38 1.394 . S
C38 H28 0.929 . S
C38 C34 1.377 . S
C38 C37 1.394 . S
H39 C46 0.929 . S
H40 C49 0.930 . S
H41 C51 0.929 . S
H42 C43 0.969 . S
C43 H42 0.969 . S
C43 O44 1.550 . S
C43 H45 0.973 . S
O44 C43 1.550 . S
O44 C50 1.412 . S
H45 C43 0.973 . S
C46 H39 0.929 . S
C46 C47 1.400 . S
C46 C48 1.364 . S
C47 C46 1.400 . S
C47 C51 1.377 . S
C48 C46 1.364 . S
C48 C49 1.374 . S
C49 H40 0.930 . S
C49 C48 1.374 . S
C49 C50 1.383 . S
C50 O44 1.412 . S
C50 C49 1.383 . S
C50 C51 1.394 . S
C51 H41 0.929 . S
C51 C47 1.377 . S
C51 C50 1.394 . S
H52 C59 0.929 . S
H53 C62 0.930 . S
H54 C64 0.929 . S
H55 C56 0.969 . S
C56 H55 0.969 . S
C56 O57 1.550 . S
C56 H58 0.973 . S
O57 C56 1.550 . S
O57 C63 1.412 . S
H58 C56 0.973 . S
C59 H52 0.929 . S
C59 C60 1.400 1_554 S
C59 C61 1.364 . S
C60 C59 1.400 1_556 S
C60 C64 1.377 . S
C61 C59 1.364 . S
C61 C62 1.374 . S
C62 H53 0.930 . S
C62 C61 1.374 . S
C62 C63 1.383 . S
C63 O57 1.412 . S
C63 C62 1.383 . S
C63 C64 1.394 1_554 S
C64 H54 0.929 . S
C64 C60 1.377 . S
C64 C63 1.394 1_556 S
H65 C72 0.929 . S
H66 C75 0.930 . S
H67 C77 0.929 . S
H68 C69 0.969 . S
C69 H68 0.969 . S
C69 O70 1.550 . S
C69 H71 0.973 . S
O70 C69 1.550 . S
O70 C76 1.412 . S
H71 C69 0.973 . S
C72 H65 0.929 . S
C72 C73 1.400 1_554 S
C72 C74 1.364 . S
C73 C72 1.400 1_556 S
C73 C77 1.377 . S
C74 C72 1.364 . S
C74 C75 1.374 . S
C75 H66 0.930 . S
C75 C74 1.374 . S
C75 C76 1.383 . S
C76 O70 1.412 . S
C76 C75 1.383 . S
C76 C77 1.394 1_554 S
C77 H67 0.929 . S
C77 C73 1.377 . S
C77 C76 1.394 1_556 S
H78 C85 0.929 . S
H79 C88 0.930 . S
H80 C90 0.929 . S
H81 C82 0.969 . S
C82 H81 0.969 . S
C82 O83 1.550 . S
C82 H84 0.973 . S
O83 C82 1.550 . S
O83 C89 1.412 . S
H84 C82 0.973 . S
C85 H78 0.929 . S
C85 C86 1.400 1_554 S
C85 C87 1.364 . S
C86 C85 1.400 1_556 S
C86 C90 1.377 . S
C87 C85 1.364 . S
C87 C88 1.374 . S
C88 H79 0.930 . S
C88 C87 1.374 . S
C88 C89 1.383 . S
C89 O83 1.412 . S
C89 C88 1.383 . S
C89 C90 1.394 1_554 S
C90 H80 0.929 . S
C90 C86 1.377 . S
C90 C89 1.394 1_556 S
H91 C98 0.929 . S
H92 C101 0.930 . S
H93 C103 0.929 . S
H94 C95 0.969 . S
C95 H94 0.969 . S
C95 O96 1.550 . S
C95 H97 0.973 . S
O96 C95 1.550 . S
O96 C102 1.412 . S
H97 C95 0.973 . S
C98 H91 0.929 . S
C98 C99 1.400 1_554 S
C98 C100 1.364 . S
C99 C98 1.400 1_556 S
C99 C103 1.377 . S
C100 C98 1.364 . S
C100 C101 1.374 . S
C101 H92 0.930 . S
C101 C100 1.374 . S
C101 C102 1.383 . S
C102 O96 1.412 . S
C102 C101 1.383 . S
C102 C103 1.394 1_554 S
C103 H93 0.929 . S
C103 C99 1.377 . S
C103 C102 1.394 1_556 S
Eu104 N133 2.600 . S
Eu104 N139 2.562 . S
Eu104 O148 2.462 . S
Eu104 O149 2.373 1_545 S
Eu104 O151 2.432 . S
Eu104 O152 2.291 1_655 S
Eu104 O156 2.335 1_655 S
Eu104 O159 2.372 . S
Eu104 C168 2.787 . S
C105 N106 1.365 1_554 S
C105 C108 1.405 . S
C105 C112 1.448 . S
N106 C105 1.365 1_556 S
N106 C109 1.319 . S
N106 Eu115 2.600 1_545 S
C107 C109 1.397 . S
C107 C110 1.367 . S
C107 H127 0.931 . S
C108 C105 1.405 . S
C108 C110 1.403 1_554 S
C108 C114 1.439 . S
C109 N106 1.319 . S
C109 C107 1.397 . S
C109 H120 0.930 1_545 S
C110 C107 1.367 . S
C110 C108 1.403 1_556 S
C110 H131 0.929 . S
C111 C112 1.430 . S
C111 C113 1.387 . S
C111 C117 1.404 . S
C112 C105 1.448 . S
C112 C111 1.430 . S
C112 N116 1.351 . S
C113 C111 1.387 . S
C113 C114 1.374 . S
C113 H128 0.931 . S
C114 C108 1.439 . S
C114 C113 1.374 . S
C114 H129 0.931 . S
Eu115 N106 2.600 1_565 S
Eu115 N116 2.562 1_566 S
Eu115 O150 2.335 . S
Eu115 O153 2.372 . S
Eu115 O154 2.462 . S
Eu115 O155 2.373 1_565 S
Eu115 O157 2.432 . S
Eu115 O158 2.291 1_465 S
Eu115 C179 2.787 . S
N116 C112 1.351 . S
N116 Eu115 2.562 1_544 S
N116 C118 1.325 . S
C117 C111 1.404 . S
C117 C119 1.366 . S
C117 H125 0.930 . S
C118 N116 1.325 . S
C118 C119 1.416 . S
C118 H124 0.929 . S
C119 C117 1.366 . S
C119 C118 1.416 . S
C119 H121 0.930 . S
H120 C109 0.930 1_565 S
H121 C119 0.930 . S
H122 C137 0.930 . S
H123 C144 0.930 1_455 S
H124 C118 0.929 . S
H125 C117 0.930 . S
H126 C140 0.929 1_455 S
H127 C107 0.931 . S
H128 C113 0.931 . S
H129 C114 0.931 . S
H130 C135 0.931 . S
H131 C110 0.929 . S
H132 C143 0.930 . S
N133 Eu104 2.600 . S
N133 C134 1.365 1_545 S
N133 C137 1.319 . S
C134 N133 1.365 1_565 S
C134 C136 1.405 . S
C134 C142 1.448 . S
C135 H130 0.931 . S
C135 C137 1.397 . S
C135 C138 1.367 1_545 S
C136 C134 1.405 . S
C136 C138 1.403 . S
C136 C169 1.439 . S
C137 H122 0.930 . S
C137 N133 1.319 . S
C137 C135 1.397 . S
C138 C135 1.367 1_565 S
C138 C136 1.403 . S
C138 H145 0.929 . S
N139 Eu104 2.562 . S
N139 C140 1.325 . S
N139 C142 1.351 1_545 S
C140 H126 0.929 1_655 S
C140 N139 1.325 . S
C140 C144 1.416 1_545 S
C141 C142 1.430 . S
C141 C143 1.404 . S
C141 C170 1.387 . S
C142 C134 1.448 . S
C142 N139 1.351 1_565 S
C142 C141 1.430 . S
C143 H132 0.930 . S
C143 C141 1.404 . S
C143 C144 1.366 . S
C144 H123 0.930 1_655 S
C144 C140 1.416 1_565 S
C144 C143 1.366 . S
H145 C138 0.929 . S
H146 C169 0.931 . S
H147 C170 0.931 . S
O148 Eu104 2.462 . S
O148 C168 1.252 . S
O149 Eu104 2.373 1_565 S
O149 C160 1.249 . S
O150 Eu115 2.335 . S
O150 C160 1.264 1_455 S
O151 Eu104 2.432 . S
O151 C168 1.268 . S
O152 Eu104 2.291 1_455 S
O152 C167 1.255 . S
O153 Eu115 2.372 . S
O153 C167 1.257 1_565 S
O154 Eu115 2.462 . S
O154 C179 1.252 . S
O155 Eu115 2.373 1_545 S
O155 C171 1.249 . S
O156 Eu104 2.335 1_455 S
O156 C171 1.264 . S
O157 Eu115 2.432 . S
O157 C179 1.268 . S
O158 Eu115 2.291 1_645 S
O158 C178 1.255 . S
O159 Eu104 2.372 . S
O159 C178 1.257 . S
C160 O149 1.249 . S
C160 O150 1.264 1_655 S
C161 C164 1.382 . S
C161 C166 1.390 . S
C161 C168 1.506 . S
C162 C163 1.398 . S
C162 C166 1.392 . S
C163 C162 1.398 . S
C163 C165 1.372 . S
C163 H180 0.931 . S
C164 C161 1.382 . S
C164 C165 1.390 . S
C164 H181 0.931 . S
C165 C163 1.372 . S
C165 C164 1.390 . S
C165 H182 0.929 . S
C166 C161 1.390 . S
C166 C162 1.392 . S
C166 H183 0.930 1_655 S
C167 O152 1.255 . S
C167 O153 1.257 1_545 S
C168 Eu104 2.787 . S
C168 O148 1.252 . S
C168 O151 1.268 . S
C168 C161 1.506 . S
C169 C136 1.439 . S
C169 H146 0.931 . S
C169 C170 1.374 . S
C170 C141 1.387 . S
C170 H147 0.931 . S
C170 C169 1.374 . S
C171 O155 1.249 . S
C171 O156 1.264 . S
C172 C175 1.382 . S
C172 C176 1.390 . S
C172 C179 1.506 1_554 S
C173 C174 1.398 . S
C173 C176 1.392 . S
C174 C173 1.398 . S
C174 C177 1.372 . S
C174 H184 0.931 . S
C175 C172 1.382 . S
C175 C177 1.390 . S
C175 H185 0.931 1_554 S
C176 C172 1.390 . S
C176 C173 1.392 . S
C176 H186 0.930 . S
C177 C174 1.372 . S
C177 C175 1.390 . S
C177 H187 0.929 . S
C178 O158 1.255 . S
C178 O159 1.257 . S
C179 Eu115 2.787 . S
C179 O154 1.252 . S
C179 O157 1.268 . S
C179 C172 1.506 1_556 S
H180 C163 0.931 . S
H181 C164 0.931 . S
H182 C165 0.929 . S
H183 C166 0.930 1_455 S
H184 C174 0.931 . S
H185 C175 0.931 1_556 S
H186 C176 0.930 . S
H187 C177 0.929 . S
Eu188 N217 2.600 . S
Eu188 N223 2.562 . S
Eu188 O232 2.462 . S
Eu188 O233 2.373 . S
Eu188 O235 2.432 1_556 S
Eu188 O236 2.291 . S
Eu188 O240 2.335 1_545 S
Eu188 O243 2.372 . S
Eu188 C252 2.787 1_556 S
C189 N190 1.365 . S
C189 C192 1.405 . S
C189 C196 1.448 . S
N190 C189 1.365 . S
N190 C193 1.319 . S
N190 Eu199 2.600 . S
C191 C193 1.397 . S
C191 C194 1.367 . S
C191 H211 0.931 . S
C192 C189 1.405 . S
C192 C194 1.403 . S
C192 C198 1.439 . S
C193 N190 1.319 . S
C193 C191 1.397 . S
C193 H204 0.930 . S
C194 C191 1.367 . S
C194 C192 1.403 . S
C194 H215 0.929 . S
C195 C196 1.430 . S
C195 C197 1.387 . S
C195 C201 1.404 . S
C196 C189 1.448 . S
C196 C195 1.430 . S
C196 N200 1.351 . S
C197 C195 1.387 . S
C197 C198 1.374 . S
C197 H212 0.931 . S
C198 C192 1.439 . S
C198 C197 1.374 . S
C198 H213 0.931 . S
Eu199 N190 2.600 . S
Eu199 N200 2.562 . S
Eu199 O234 2.335 1_565 S
Eu199 O237 2.372 . S
Eu199 O238 2.462 . S
Eu199 O239 2.373 . S
Eu199 O241 2.432 . S
Eu199 O242 2.291 1_565 S
Eu199 C263 2.787 . S
N200 C196 1.351 . S
N200 Eu199 2.562 . S
N200 C202 1.325 . S
C201 C195 1.404 . S
C201 C203 1.366 . S
C201 H209 0.930 . S
C202 N200 1.325 . S
C202 C203 1.416 . S
C202 H208 0.929 . S
C203 C201 1.366 . S
C203 C202 1.416 . S
C203 H205 0.930 . S
H204 C193 0.930 . S
H205 C203 0.930 . S
H206 C221 0.930 1_554 S
H207 C228 0.930 . S
H208 C202 0.929 . S
H209 C201 0.930 . S
H210 C224 0.929 . S
H211 C191 0.931 . S
H212 C197 0.931 . S
H213 C198 0.931 . S
H214 C219 0.931 . S
H215 C194 0.929 . S
H216 C227 0.930 . S
N217 Eu188 2.600 . S
N217 C218 1.365 . S
N217 C221 1.319 . S
C218 N217 1.365 . S
C218 C220 1.405 . S
C218 C226 1.448 . S
C219 H214 0.931 . S
C219 C221 1.397 1_554 S
C219 C222 1.367 1_554 S
C220 C218 1.405 . S
C220 C222 1.403 . S
C220 C253 1.439 . S
C221 H206 0.930 1_556 S
C221 N217 1.319 . S
C221 C219 1.397 1_556 S
C222 C219 1.367 1_556 S
C222 C220 1.403 . S
C222 H229 0.929 1_556 S
N223 Eu188 2.562 . S
N223 C224 1.325 . S
N223 C226 1.351 . S
C224 H210 0.929 . S
C224 N223 1.325 . S
C224 C228 1.416 . S
C225 C226 1.430 . S
C225 C227 1.404 . S
C225 C254 1.387 . S
C226 C218 1.448 . S
C226 N223 1.351 . S
C226 C225 1.430 . S
C227 H216 0.930 . S
C227 C225 1.404 . S
C227 C228 1.366 . S
C228 H207 0.930 . S
C228 C224 1.416 . S
C228 C227 1.366 . S
H229 C222 0.929 1_554 S
H230 C253 0.931 . S
H231 C254 0.931 . S
O232 Eu188 2.462 . S
O232 C252 1.252 1_556 S
O233 Eu188 2.373 . S
O233 C244 1.249 . S
O234 Eu199 2.335 1_545 S
O234 C244 1.264 . S
O235 Eu188 2.432 1_554 S
O235 C252 1.268 . S
O236 Eu188 2.291 . S
O236 C251 1.261 . S
O237 Eu199 2.372 . S
O237 C251 1.253 1_565 S
O238 Eu199 2.462 . S
O238 C263 1.252 . S
O239 Eu199 2.373 . S
O239 C255 1.249 . S
O240 Eu188 2.335 1_565 S
O240 C255 1.264 . S
O241 Eu199 2.432 . S
O241 C263 1.268 . S
O242 Eu199 2.291 1_545 S
O242 C262 1.255 . S
O243 Eu188 2.372 . S
O243 C262 1.257 . S
C244 O233 1.249 . S
C244 O234 1.264 . S
C245 C248 1.382 . S
C245 C250 1.390 . S
C245 C252 1.506 . S
C246 C247 1.398 . S
C246 C250 1.392 . S
C247 C246 1.398 . S
C247 C249 1.372 . S
C247 H264 0.931 . S
C248 C245 1.382 . S
C248 C249 1.390 . S
C248 H265 0.931 . S
C249 C247 1.372 . S
C249 C248 1.390 . S
C249 H266 0.929 . S
C250 C245 1.390 . S
C250 C246 1.392 . S
C250 H267 0.930 . S
C251 O236 1.261 . S
C251 O237 1.253 1_545 S
C252 Eu188 2.787 1_554 S
C252 O232 1.252 1_554 S
C252 O235 1.268 . S
C252 C245 1.506 . S
C253 C220 1.439 . S
C253 H230 0.931 . S
C253 C254 1.374 . S
C254 C225 1.387 . S
C254 H231 0.931 . S
C254 C253 1.374 . S
C255 O239 1.249 . S
C255 O240 1.264 . S
C256 C259 1.382 . S
C256 C260 1.390 . S
C256 C263 1.506 . S
C257 C258 1.398 . S
C257 C260 1.392 . S
C258 C257 1.398 . S
C258 C261 1.372 . S
C258 H268 0.931 . S
C259 C256 1.382 . S
C259 C261 1.390 . S
C259 H269 0.931 . S
C260 C256 1.390 . S
C260 C257 1.392 . S
C260 H270 0.930 1_565 S
C261 C258 1.372 . S
C261 C259 1.390 . S
C261 H271 0.929 . S
C262 O242 1.255 . S
C262 O243 1.257 . S
C263 Eu199 2.787 . S
C263 O238 1.252 . S
C263 O241 1.268 . S
C263 C256 1.506 . S
H264 C247 0.931 . S
H265 C248 0.931 . S
H266 C249 0.929 . S
H267 C250 0.930 . S
H268 C258 0.931 . S
H269 C259 0.931 . S
H270 C260 0.930 1_545 S
H271 C261 0.929 . S
Eu272 N301 2.600 . S
Eu272 N307 2.562 . S
Eu272 O316 2.462 . S
Eu272 O317 2.373 . S
Eu272 O319 2.432 . S
Eu272 O320 2.291 . S
Eu272 O324 2.335 . S
Eu272 O327 2.372 . S
Eu272 C336 2.787 . S
C273 N274 1.365 1_554 S
C273 C276 1.405 . S
C273 C280 1.448 . S
N274 C273 1.365 1_556 S
N274 C277 1.319 . S
N274 Eu283 2.600 . S
C275 C277 1.397 . S
C275 C278 1.367 . S
C275 H295 0.931 . S
C276 C273 1.405 . S
C276 C278 1.403 1_554 S
C276 C282 1.439 . S
C277 N274 1.319 . S
C277 C275 1.397 . S
C277 H288 0.930 . S
C278 C275 1.367 . S
C278 C276 1.403 1_556 S
C278 H299 0.929 . S
C279 C280 1.430 . S
C279 C281 1.387 . S
C279 C285 1.404 . S
C280 C273 1.448 . S
C280 C279 1.430 . S
C280 N284 1.351 . S
C281 C279 1.387 . S
C281 C282 1.374 . S
C281 H296 0.931 . S
C282 C276 1.439 . S
C282 C281 1.374 . S
C282 H297 0.931 . S
Eu283 N274 2.600 . S
Eu283 N284 2.562 1_556 S
Eu283 O318 2.335 . S
Eu283 O321 2.372 . S
Eu283 O322 2.462 . S
Eu283 O323 2.373 . S
Eu283 O325 2.432 . S
Eu283 O326 2.291 . S
Eu283 C347 2.787 . S
N284 C280 1.351 . S
N284 Eu283 2.562 1_554 S
N284 C286 1.325 . S
C285 C279 1.404 . S
C285 C287 1.366 . S
C285 H293 0.930 . S
C286 N284 1.325 . S
C286 C287 1.416 . S
C286 H292 0.929 . S
C287 C285 1.366 . S
C287 C286 1.416 . S
C287 H289 0.930 . S
H288 C277 0.930 . S
H289 C287 0.930 . S
H290 C305 0.930 . S
H291 C312 0.930 . S
H292 C286 0.929 . S
H293 C285 0.930 . S
H294 C308 0.929 . S
H295 C275 0.931 . S
H296 C281 0.931 . S
H297 C282 0.931 . S
H298 C303 0.931 . S
H299 C278 0.929 . S
H300 C311 0.930 . S
N301 Eu272 2.600 . S
N301 C302 1.365 . S
N301 C305 1.319 . S
C302 N301 1.365 . S
C302 C304 1.405 . S
C302 C310 1.448 . S
C303 H298 0.931 . S
C303 C305 1.397 . S
C303 C306 1.367 . S
C304 C302 1.405 . S
C304 C306 1.403 . S
C304 C337 1.439 . S
C305 H290 0.930 . S
C305 N301 1.319 . S
C305 C303 1.397 . S
C306 C303 1.367 . S
C306 C304 1.403 . S
C306 H313 0.929 . S
N307 Eu272 2.562 . S
N307 C308 1.325 . S
N307 C310 1.351 . S
C308 H294 0.929 . S
C308 N307 1.325 . S
C308 C312 1.416 . S
C309 C310 1.430 . S
C309 C311 1.404 . S
C309 C338 1.387 . S
C310 C302 1.448 . S
C310 N307 1.351 . S
C310 C309 1.430 . S
C311 H300 0.930 . S
C311 C309 1.404 . S
C311 C312 1.366 . S
C312 H291 0.930 . S
C312 C308 1.416 . S
C312 C311 1.366 . S
H313 C306 0.929 . S
H314 C337 0.931 . S
H315 C338 0.931 . S
O316 Eu272 2.462 . S
O316 C336 1.252 . S
O317 Eu272 2.373 . S
O317 C328 1.249 . S
O318 Eu283 2.335 . S
O318 C328 1.264 . S
O319 Eu272 2.432 . S
O319 C336 1.268 . S
O320 Eu272 2.291 . S
O320 C335 1.255 . S
O321 Eu283 2.372 . S
O321 C335 1.257 . S
O322 Eu283 2.462 . S
O322 C347 1.252 . S
O323 Eu283 2.373 . S
O323 C339 1.249 . S
O324 Eu272 2.335 . S
O324 C339 1.264 . S
O325 Eu283 2.432 . S
O325 C347 1.268 . S
O326 Eu283 2.291 . S
O326 C346 1.255 . S
O327 Eu272 2.372 . S
O327 C346 1.257 . S
C328 O317 1.249 . S
C328 O318 1.264 . S
C329 C332 1.382 . S
C329 C334 1.390 . S
C329 C336 1.506 . S
C330 C331 1.398 . S
C330 C334 1.392 . S
C331 C330 1.398 . S
C331 C333 1.372 . S
C331 H348 0.931 . S
C332 C329 1.382 . S
C332 C333 1.390 . S
C332 H349 0.931 . S
C333 C331 1.372 . S
C333 C332 1.390 . S
C333 H350 0.929 . S
C334 C329 1.390 . S
C334 C330 1.392 . S
C334 H351 0.930 . S
C335 O320 1.255 . S
C335 O321 1.257 . S
C336 Eu272 2.787 . S
C336 O316 1.252 . S
C336 O319 1.268 . S
C336 C329 1.506 . S
C337 C304 1.439 . S
C337 H314 0.931 . S
C337 C338 1.374 . S
C338 C309 1.387 . S
C338 H315 0.931 . S
C338 C337 1.374 . S
C339 O323 1.249 . S
C339 O324 1.264 . S
C340 C343 1.382 . S
C340 C344 1.390 . S
C340 C347 1.506 1_554 S
C341 C342 1.398 . S
C341 C344 1.392 . S
C342 C341 1.398 . S
C342 C345 1.372 . S
C342 H352 0.931 . S
C343 C340 1.382 . S
C343 C345 1.390 . S
C343 H353 0.931 1_554 S
C344 C340 1.390 . S
C344 C341 1.392 . S
C344 H354 0.930 . S
C345 C342 1.372 . S
C345 C343 1.390 . S
C345 H355 0.929 . S
C346 O326 1.255 . S
C346 O327 1.257 . S
C347 Eu283 2.787 . S
C347 O322 1.252 . S
C347 O325 1.268 . S
C347 C340 1.506 1_556 S
H348 C331 0.931 . S
H349 C332 0.931 . S
H350 C333 0.929 . S
H351 C334 0.930 . S
H352 C342 0.931 . S
H353 C343 0.931 1_556 S
H354 C344 0.930 . S
H355 C345 0.929 . S
Eu356 N385 2.600 . S
Eu356 N391 2.562 . S
Eu356 O400 2.462 . S
Eu356 O401 2.373 1_455 S
Eu356 O403 2.432 . S
Eu356 O404 2.291 . S
Eu356 O408 2.335 . S
Eu356 O411 2.372 . S
Eu356 C420 2.787 . S
C357 N358 1.365 1_554 S
C357 C360 1.405 . S
C357 C364 1.448 . S
N358 C357 1.365 1_556 S
N358 C361 1.320 . S
N358 Eu367 2.600 1_455 S
C359 C361 1.401 . S
C359 C362 1.367 . S
C359 H379 0.931 . S
C360 C357 1.405 . S
C360 C362 1.403 1_554 S
C360 C366 1.439 . S
C361 N358 1.320 . S
C361 C359 1.401 . S
C361 H372 0.924 1_455 S
C362 C359 1.367 . S
C362 C360 1.403 1_556 S
C362 H383 0.929 . S
C363 C364 1.430 . S
C363 C365 1.387 . S
C363 C369 1.404 . S
C364 C357 1.448 . S
C364 C363 1.430 . S
C364 N368 1.351 . S
C365 C363 1.387 . S
C365 C366 1.374 . S
C365 H380 0.931 . S
C366 C360 1.439 . S
C366 C365 1.374 . S
C366 H381 0.931 . S
Eu367 N358 2.600 1_655 S
Eu367 N368 2.562 1_656 S
Eu367 O402 2.335 . S
Eu367 O405 2.372 . S
Eu367 O406 2.462 . S
Eu367 O407 2.373 1_655 S
Eu367 O409 2.432 . S
Eu367 O410 2.291 1_655 S
Eu367 C431 2.787 . S
N368 C364 1.351 . S
N368 Eu367 2.562 1_454 S
N368 C370 1.325 . S
C369 C363 1.404 . S
C369 C371 1.366 . S
C369 H377 0.930 . S
C370 N368 1.325 . S
C370 C371 1.416 . S
C370 H376 0.929 . S
C371 C369 1.366 . S
C371 C370 1.416 . S
C371 H373 0.930 . S
H372 C361 0.924 1_655 S
H373 C371 0.930 . S
H374 C389 0.930 . S
H375 C396 0.930 . S
H376 C370 0.929 . S
H377 C369 0.930 . S
H378 C392 0.929 . S
H379 C359 0.931 . S
H380 C365 0.931 . S
H381 C366 0.931 . S
H382 C387 0.931 . S
H383 C362 0.929 . S
H384 C395 0.930 . S
N385 Eu356 2.600 . S
N385 C386 1.365 1_455 S
N385 C389 1.319 . S
C386 N385 1.365 1_655 S
C386 C388 1.405 . S
C386 C394 1.448 . S
C387 H382 0.931 . S
C387 C389 1.397 . S
C387 C390 1.367 1_455 S
C388 C386 1.405 . S
C388 C390 1.403 . S
C388 C421 1.439 . S
C389 H374 0.930 . S
C389 N385 1.319 . S
C389 C387 1.397 . S
C390 C387 1.367 1_655 S
C390 C388 1.403 . S
C390 H397 0.929 . S
N391 Eu356 2.562 . S
N391 C392 1.325 . S
N391 C394 1.351 1_455 S
C392 H378 0.929 . S
C392 N391 1.325 . S
C392 C396 1.416 1_455 S
C393 C394 1.430 . S
C393 C395 1.404 . S
C393 C422 1.387 . S
C394 C386 1.448 . S
C394 N391 1.351 1_655 S
C394 C393 1.430 . S
C395 H384 0.930 . S
C395 C393 1.404 . S
C395 C396 1.366 . S
C396 H375 0.930 . S
C396 C392 1.416 1_655 S
C396 C395 1.366 . S
H397 C390 0.929 . S
H398 C421 0.931 . S
H399 C422 0.931 . S
O400 Eu356 2.462 . S
O400 C420 1.252 . S
O401 Eu356 2.373 1_655 S
O401 C412 1.249 . S
O402 Eu367 2.335 . S
O402 C412 1.264 . S
O403 Eu356 2.432 . S
O403 C420 1.268 . S
O404 Eu356 2.291 . S
O404 C419 1.255 . S
O405 Eu367 2.372 . S
O405 C419 1.257 1_655 S
O406 Eu367 2.462 . S
O406 C431 1.252 . S
O407 Eu367 2.373 1_455 S
O407 C423 1.249 . S
O408 Eu356 2.335 . S
O408 C423 1.264 . S
O409 Eu367 2.432 . S
O409 C431 1.268 . S
O410 Eu367 2.291 1_455 S
O410 C430 1.255 . S
O411 Eu356 2.372 . S
O411 C430 1.257 . S
C412 O401 1.249 . S
C412 O402 1.264 . S
C413 C416 1.382 . S
C413 C418 1.390 . S
C413 C420 1.506 . S
C414 C415 1.398 . S
C414 C418 1.392 . S
C415 C414 1.398 . S
C415 C417 1.372 . S
C415 H432 0.931 . S
C416 C413 1.382 . S
C416 C417 1.390 . S
C416 H433 0.931 . S
C417 C415 1.372 . S
C417 C416 1.390 . S
C417 H434 0.929 . S
C418 C413 1.390 . S
C418 C414 1.392 . S
C418 H435 0.930 . S
C419 O404 1.255 . S
C419 O405 1.257 1_455 S
C420 Eu356 2.787 . S
C420 O400 1.252 . S
C420 O403 1.268 . S
C420 C413 1.506 . S
C421 C388 1.439 . S
C421 H398 0.931 . S
C421 C422 1.374 . S
C422 C393 1.387 . S
C422 H399 0.931 . S
C422 C421 1.374 . S
C423 O407 1.249 . S
C423 O408 1.264 . S
C424 C427 1.382 . S
C424 C428 1.390 . S
C424 C431 1.506 1_554 S
C425 C426 1.398 . S
C425 C428 1.392 . S
C426 C425 1.398 . S
C426 C429 1.372 . S
C426 H436 0.931 . S
C427 C424 1.382 . S
C427 C429 1.390 . S
C427 H437 0.931 1_554 S
C428 C424 1.390 . S
C428 C425 1.392 . S
C428 H438 0.930 . S
C429 C426 1.372 . S
C429 C427 1.390 . S
C429 H439 0.929 . S
C430 O410 1.255 . S
C430 O411 1.257 . S
C431 Eu367 2.787 . S
C431 O406 1.252 . S
C431 O409 1.268 . S
C431 C424 1.506 1_556 S
H432 C415 0.931 . S
H433 C416 0.931 . S
H434 C417 0.929 . S
H435 C418 0.930 . S
H436 C426 0.931 . S
H437 C427 0.931 1_556 S
H438 C428 0.930 . S
H439 C429 0.929 . S
C440 C441 1.363 . S
C440 C446 1.379 . S
C440 N448 1.356 1_545 S
C441 C440 1.363 . S
C441 C447 1.363 . S
C442 C443 1.363 . S
C442 C447 1.379 . S
C442 N449 1.356 . S
C443 C442 1.363 . S
C443 C446 1.363 . S
N444 C446 1.356 1_565 S
N444 H456 0.984 . S
N444 H457 0.985 . S
N445 C447 1.356 . S
N445 H450 0.984 . S
N445 H451 0.985 . S
C446 C440 1.379 . S
C446 C443 1.363 . S
C446 N444 1.356 1_545 S
C447 C441 1.363 . S
C447 C442 1.379 . S
C447 N445 1.356 . S
N448 C440 1.356 1_565 S
N448 H454 0.984 . S
N448 H455 0.984 . S
N449 C442 1.356 . S
N449 H452 0.984 . S
N449 H453 0.985 . S
H450 N445 0.984 . S
H451 N445 0.985 . S
H452 N449 0.984 . S
H453 N449 0.985 . S
H454 N448 0.984 . S
H455 N448 0.984 . S
H456 N444 0.984 . S
H457 N444 0.985 . S
C458 C459 1.363 . S
C458 C464 1.379 . S
C458 N466 1.356 . S
C459 C458 1.363 . S
C459 C465 1.363 . S
C460 C461 1.363 . S
C460 C465 1.379 . S
C460 N467 1.356 . S
C461 C460 1.363 . S
C461 C464 1.363 . S
N462 C464 1.356 . S
N462 H474 0.984 . S
N462 H475 0.985 . S
N463 C465 1.356 . S
N463 H468 0.984 . S
N463 H469 0.985 . S
C464 C458 1.379 . S
C464 C461 1.363 . S
C464 N462 1.356 . S
C465 C459 1.363 . S
C465 C460 1.379 . S
C465 N463 1.356 . S
N466 C458 1.356 . S
N466 H472 0.984 . S
N466 H473 0.984 . S
N467 C460 1.356 . S
N467 H470 0.984 . S
N467 H471 0.985 . S
H468 N463 0.984 . S
H469 N463 0.985 . S
H470 N467 0.984 . S
H471 N467 0.985 . S
H472 N466 0.984 . S
H473 N466 0.984 . S
H474 N462 0.984 . S
H475 N462 0.985 . S
C476 C477 1.363 . S
C476 C482 1.379 . S
C476 N484 1.356 . S
C477 C476 1.363 . S
C477 C483 1.363 . S
C478 C479 1.363 . S
C478 C483 1.379 . S
C478 N485 1.356 . S
C479 C478 1.363 . S
C479 C482 1.363 . S
N480 C482 1.356 . S
N480 H492 0.984 . S
N480 H493 0.985 . S
N481 C483 1.356 . S
N481 H486 0.984 . S
N481 H487 0.985 . S
C482 C476 1.379 . S
C482 C479 1.363 . S
C482 N480 1.356 . S
C483 C477 1.363 . S
C483 C478 1.379 . S
C483 N481 1.356 . S
N484 C476 1.356 . S
N484 H490 0.984 . S
N484 H491 0.984 . S
N485 C478 1.356 . S
N485 H488 0.984 . S
N485 H489 0.985 . S
H486 N481 0.984 . S
H487 N481 0.985 . S
H488 N485 0.984 . S
H489 N485 0.985 . S
H490 N484 0.984 . S
H491 N484 0.984 . S
H492 N480 0.984 . S
H493 N480 0.985 . S
C494 C495 1.363 . S
C494 C500 1.379 . S
C494 N502 1.356 . S
C495 C494 1.363 . S
C495 C501 1.363 . S
C496 C497 1.363 . S
C496 C501 1.379 . S
C496 N503 1.356 1_455 S
C497 C496 1.363 . S
C497 C500 1.363 . S
N498 C500 1.356 . S
N498 H510 0.984 . S
N498 H511 0.985 . S
N499 C501 1.356 1_655 S
N499 H504 0.981 1_655 S
N499 H505 0.985 . S
C500 C494 1.379 . S
C500 C497 1.363 . S
C500 N498 1.356 . S
C501 C495 1.363 . S
C501 C496 1.379 . S
C501 N499 1.356 1_455 S
N502 C494 1.356 . S
N502 H508 0.984 . S
N502 H509 0.984 . S
N503 C496 1.356 1_655 S
N503 H506 0.984 . S
N503 H507 0.985 . S
H504 N499 0.981 1_455 S
H505 N499 0.985 . S
H506 N503 0.984 . S
H507 N503 0.985 . S
H508 N502 0.984 . S
H509 N502 0.984 . S
H510 N498 0.984 . S
H511 N498 0.985 . S
C512 C513 1.363 . S
C512 C518 1.379 . S
C512 N520 1.356 . S
C513 C512 1.363 . S
C513 C519 1.363 1_565 S
C514 C515 1.348 1_545 S
C514 C519 1.379 . S
C514 N521 1.356 1_554 S
C515 C514 1.348 1_565 S
C515 C518 1.381 . S
N516 C518 1.356 . S
N516 H528 0.984 . S
N516 H529 0.985 1_554 S
N517 C519 1.356 . S
N517 H522 0.984 . S
N517 H523 0.985 . S
C518 C512 1.379 . S
C518 C515 1.381 . S
C518 N516 1.356 . S
C519 C513 1.363 1_545 S
C519 C514 1.379 . S
C519 N517 1.356 . S
N520 C512 1.356 . S
N520 H526 0.984 . S
N520 H527 0.984 . S
N521 C514 1.356 1_556 S
N521 H524 0.984 . S
N521 H525 0.985 . S
H522 N517 0.984 . S
H523 N517 0.985 . S
H524 N521 0.984 . S
H525 N521 0.985 . S
H526 N520 0.984 . S
H527 N520 0.984 . S
H528 N516 0.984 . S
H529 N516 0.985 1_556 S
C530 C531 1.363 . S
C530 C536 1.379 . S
C530 N538 1.356 . S
C531 C530 1.363 . S
C531 C537 1.363 . S
C532 C533 1.363 . S
C532 C537 1.379 . S
C532 N539 1.356 1_554 S
C533 C532 1.363 . S
C533 C536 1.363 . S
N534 C536 1.356 . S
N534 H546 0.984 . S
N534 H547 0.985 1_554 S
N535 C537 1.356 . S
N535 H540 0.984 . S
N535 H541 0.985 . S
C536 C530 1.379 . S
C536 C533 1.363 . S
C536 N534 1.356 . S
C537 C531 1.363 . S
C537 C532 1.379 . S
C537 N535 1.356 . S
N538 C530 1.356 . S
N538 H544 0.984 . S
N538 H545 0.984 . S
N539 C532 1.356 1_556 S
N539 H542 0.984 . S
N539 H543 0.985 . S
H540 N535 0.984 . S
H541 N535 0.985 . S
H542 N539 0.984 . S
H543 N539 0.985 . S
H544 N538 0.984 . S
H545 N538 0.984 . S
H546 N534 0.984 . S
H547 N534 0.985 1_556 S
C548 C549 1.363 . S
C548 C554 1.379 . S
C548 N556 1.356 . S
C549 C548 1.363 . S
C549 C555 1.363 . S
C550 C551 1.363 . S
C550 C555 1.379 . S
C550 N557 1.356 1_554 S
C551 C550 1.363 . S
C551 C554 1.363 . S
N552 C554 1.356 . S
N552 H564 0.984 . S
N552 H565 0.985 1_554 S
N553 C555 1.356 . S
N553 H558 0.984 . S
N553 H559 0.985 . S
C554 C548 1.379 . S
C554 C551 1.363 . S
C554 N552 1.356 . S
C555 C549 1.363 . S
C555 C550 1.379 . S
C555 N553 1.356 . S
N556 C548 1.356 . S
N556 H562 0.984 . S
N556 H563 0.984 . S
N557 C550 1.356 1_556 S
N557 H560 0.984 . S
N557 H561 0.985 . S
H558 N553 0.984 . S
H559 N553 0.985 . S
H560 N557 0.984 . S
H561 N557 0.985 . S
H562 N556 0.984 . S
H563 N556 0.984 . S
H564 N552 0.984 . S
H565 N552 0.985 1_556 S
C566 C567 1.363 . S
C566 C572 1.379 . S
C566 N574 1.356 . S
C567 C566 1.363 . S
C567 C573 1.363 1_655 S
C568 C569 1.363 1_455 S
C568 C573 1.379 . S
C568 N575 1.356 . S
C569 C568 1.363 1_655 S
C569 C572 1.363 . S
N570 C572 1.356 1_556 S
N570 H582 0.984 . S
N570 H583 0.985 . S
N571 C573 1.356 . S
N571 H576 0.991 . S
N571 H577 0.985 . S
C572 C566 1.379 . S
C572 C569 1.363 . S
C572 N570 1.356 1_554 S
C573 C567 1.363 1_455 S
C573 C568 1.379 . S
C573 N571 1.356 . S
N574 C566 1.356 . S
N574 H580 0.984 . S
N574 H581 0.984 . S
N575 C568 1.356 . S
N575 H578 0.984 1_554 S
N575 H579 0.985 . S
H576 N571 0.991 . S
H577 N571 0.985 . S
H578 N575 0.984 1_556 S
H579 N575 0.985 . S
H580 N574 0.984 . S
H581 N574 0.984 . S
H582 N570 0.984 . S
H583 N570 0.985 . S
C584 C585 1.363 . S
C584 C590 1.379 . S
C584 N592 1.356 . S
C585 C584 1.363 . S
C585 C591 1.363 . S
C586 C587 1.363 1_455 S
C586 C591 1.379 . S
C586 N593 1.356 1_455 S
C587 C586 1.363 1_655 S
C587 C590 1.363 1_655 S
N588 C590 1.356 1_655 S
N588 H600 0.982 1_655 S
N588 H601 0.985 . S
N589 C591 1.356 . S
N589 H594 0.984 . S
N589 H595 0.985 . S
C590 C584 1.379 . S
C590 C587 1.363 1_455 S
C590 N588 1.356 1_455 S
C591 C585 1.363 . S
C591 C586 1.379 . S
C591 N589 1.356 . S
N592 C584 1.356 . S
N592 H598 0.984 1_554 S
N592 H599 0.984 . S
N593 C586 1.356 1_655 S
N593 H596 0.984 . S
N593 H597 0.985 . S
H594 N589 0.984 . S
H595 N589 0.985 . S
H596 N593 0.984 . S
H597 N593 0.985 . S
H598 N592 0.984 1_556 S
H599 N592 0.984 . S
H600 N588 0.982 1_455 S
H601 N588 0.985 . S
C602 C603 1.363 . S
C602 C608 1.379 . S
C602 N610 1.356 . S
C603 C602 1.363 . S
C603 C609 1.363 . S
C604 C605 1.348 1_565 S
C604 C609 1.379 1_565 S
C604 N611 1.356 . S
C605 C604 1.348 1_545 S
C605 C608 1.396 . S
N606 C608 1.356 . S
N606 H618 0.984 . S
N606 H619 0.985 . S
N607 C609 1.356 1_565 S
N607 H612 0.984 1_565 S
N607 H613 0.985 . S
C608 C602 1.379 . S
C608 C605 1.396 . S
C608 N606 1.356 . S
C609 C603 1.363 . S
C609 C604 1.379 1_545 S
C609 N607 1.356 1_545 S
N610 C602 1.356 . S
N610 H616 0.984 . S
N610 H617 0.984 . S
N611 C604 1.356 . S
N611 H614 0.984 . S
N611 H615 0.985 . S
H612 N607 0.984 1_545 S
H613 N607 0.985 . S
H614 N611 0.984 . S
H615 N611 0.985 . S
H616 N610 0.984 . S
H617 N610 0.984 . S
H618 N606 0.984 . S
H619 N606 0.985 . S
C620 C621 1.363 . S
C620 C626 1.379 . S
C620 N628 1.356 . S
C621 C620 1.363 . S
C621 C627 1.363 . S
C622 C623 1.363 . S
C622 C627 1.379 . S
C622 N629 1.356 . S
C623 C622 1.363 . S
C623 C626 1.363 . S
N624 C626 1.356 . S
N624 H636 0.984 . S
N624 H637 0.985 . S
N625 C627 1.356 . S
N625 H630 0.984 . S
N625 H631 0.985 . S
C626 C620 1.379 . S
C626 C623 1.363 . S
C626 N624 1.356 . S
C627 C621 1.363 . S
C627 C622 1.379 . S
C627 N625 1.356 . S
N628 C620 1.356 . S
N628 H634 0.984 . S
N628 H635 0.984 . S
N629 C622 1.356 . S
N629 H632 0.984 . S
N629 H633 0.985 . S
H630 N625 0.984 . S
H631 N625 0.985 . S
H632 N629 0.984 . S
H633 N629 0.985 . S
H634 N628 0.984 . S
H635 N628 0.984 . S
H636 N624 0.984 . S
H637 N624 0.985 . S
C638 C639 1.363 . S
C638 C644 1.379 . S
C638 N646 1.356 . S
C639 C638 1.363 . S
C639 C645 1.363 . S
C640 C641 1.363 . S
C640 C645 1.379 . S
C640 N647 1.356 . S
C641 C640 1.363 . S
C641 C644 1.363 . S
N642 C644 1.356 . S
N642 H654 0.984 . S
N642 H655 0.985 . S
N643 C645 1.356 . S
N643 H648 0.984 . S
N643 H649 0.985 . S
C644 C638 1.379 . S
C644 C641 1.363 . S
C644 N642 1.356 . S
C645 C639 1.363 . S
C645 C640 1.379 . S
C645 N643 1.356 . S
N646 C638 1.356 . S
N646 H652 0.984 . S
N646 H653 0.984 . S
N647 C640 1.356 . S
N647 H650 0.984 . S
N647 H651 0.985 . S
H648 N643 0.984 . S
H649 N643 0.985 . S
H650 N647 0.984 . S
H651 N647 0.985 . S
H652 N646 0.984 . S
H653 N646 0.984 . S
H654 N642 0.984 . S
H655 N642 0.985 . S
C656 C657 1.363 1_455 S
C656 C662 1.379 . S
C656 N664 1.356 . S
C657 C656 1.363 1_655 S
C657 C663 1.363 . S
C658 C659 1.363 1_655 S
C658 C663 1.379 . S
C658 N665 1.356 1_655 S
C659 C658 1.363 1_455 S
C659 C662 1.363 . S
N660 C662 1.356 . S
N660 H672 0.984 . S
N660 H673 0.985 . S
N661 C663 1.356 . S
N661 H666 0.984 . S
N661 H667 0.985 . S
C662 C656 1.379 . S
C662 C659 1.363 . S
C662 N660 1.356 . S
C663 C657 1.363 . S
C663 C658 1.379 . S
C663 N661 1.356 . S
N664 C656 1.356 . S
N664 H670 0.984 . S
N664 H671 0.984 1_455 S
N665 C658 1.356 1_455 S
N665 H668 0.996 . S
N665 H669 0.974 1_455 S
H666 N661 0.984 . S
H667 N661 0.985 . S
H668 N665 0.996 . S
H669 N665 0.974 1_655 S
H670 N664 0.984 . S
H671 N664 0.984 1_655 S
H672 N660 0.984 . S
H673 N660 0.985 . S
C674 C675 1.363 . S
C674 C680 1.379 1_565 S
C674 N682 1.356 . S
C675 C674 1.363 . S
C675 C681 1.371 . S
C676 C677 1.363 . S
C676 C681 1.367 1_545 S
C676 N683 1.356 . S
C677 C676 1.363 . S
C677 C680 1.363 . S
N678 C680 1.356 . S
N678 H690 0.984 . S
N678 H691 0.985 . S
N679 C681 1.364 . S
N679 H684 0.984 . S
N679 H685 0.985 . S
C680 C674 1.379 1_545 S
C680 C677 1.363 . S
C680 N678 1.356 . S
C681 C675 1.371 . S
C681 C676 1.367 1_565 S
C681 N679 1.364 . S
N682 C674 1.356 . S
N682 H688 0.984 . S
N682 H689 0.984 . S
N683 C676 1.356 . S
N683 H686 0.984 . S
N683 H687 0.985 1_554 S
H684 N679 0.984 . S
H685 N679 0.985 . S
H686 N683 0.984 . S
H687 N683 0.985 1_556 S
H688 N682 0.984 . S
H689 N682 0.984 . S
H690 N678 0.984 . S
H691 N678 0.985 . S
C692 C693 1.363 . S
C692 C698 1.379 . S
C692 N700 1.356 . S
C693 C692 1.363 . S
C693 C699 1.363 . S
C694 C695 1.363 . S
C694 C699 1.379 . S
C694 N701 1.356 . S
C695 C694 1.363 . S
C695 C698 1.363 . S
N696 C698 1.356 . S
N696 H708 0.984 . S
N696 H709 0.985 . S
N697 C699 1.356 . S
N697 H702 0.984 . S
N697 H703 0.985 . S
C698 C692 1.379 . S
C698 C695 1.363 . S
C698 N696 1.356 . S
C699 C693 1.363 . S
C699 C694 1.379 . S
C699 N697 1.356 . S
N700 C692 1.356 . S
N700 H706 0.984 . S
N700 H707 0.984 . S
N701 C694 1.356 . S
N701 H704 0.984 . S
N701 H705 0.985 . S
H702 N697 0.984 . S
H703 N697 0.985 . S
H704 N701 0.984 . S
H705 N701 0.985 . S
H706 N700 0.984 . S
H707 N700 0.984 . S
H708 N696 0.984 . S
H709 N696 0.985 . S
C710 C711 1.363 . S
C710 C716 1.379 . S
C710 N718 1.356 . S
C711 C710 1.363 . S
C711 C717 1.363 . S
C712 C713 1.363 . S
C712 C717 1.379 . S
C712 N719 1.356 . S
C713 C712 1.363 . S
C713 C716 1.363 . S
N714 C716 1.356 . S
N714 H726 0.984 . S
N714 H727 0.985 . S
N715 C717 1.356 . S
N715 H720 0.984 . S
N715 H721 0.985 . S
C716 C710 1.379 . S
C716 C713 1.363 . S
C716 N714 1.356 . S
C717 C711 1.363 . S
C717 C712 1.379 . S
C717 N715 1.356 . S
N718 C710 1.356 . S
N718 H724 0.984 . S
N718 H725 0.984 . S
N719 C712 1.356 . S
N719 H722 0.984 . S
N719 H723 0.985 1_554 S
H720 N715 0.984 . S
H721 N715 0.985 . S
H722 N719 0.984 . S
H723 N719 0.985 1_556 S
H724 N718 0.984 . S
H725 N718 0.984 . S
H726 N714 0.984 . S
H727 N714 0.985 . S
C728 C729 1.363 . S
C728 C734 1.379 . S
C728 N736 1.356 1_455 S
C729 C728 1.363 . S
C729 C735 1.363 . S
C730 C731 1.363 . S
C730 C735 1.379 . S
C730 N737 1.356 . S
C731 C730 1.363 . S
C731 C734 1.363 . S
N732 C734 1.356 1_655 S
N732 H744 0.984 . S
N732 H745 0.985 . S
N733 C735 1.356 . S
N733 H738 0.984 . S
N733 H739 0.985 1_556 S
C734 C728 1.379 . S
C734 C731 1.363 . S
C734 N732 1.356 1_455 S
C735 C729 1.363 . S
C735 C730 1.379 . S
C735 N733 1.356 . S
N736 C728 1.356 1_655 S
N736 H742 0.984 . S
N736 H743 0.984 1_655 S
N737 C730 1.356 . S
N737 H740 0.984 . S
N737 H741 0.985 1_556 S
H738 N733 0.984 . S
H739 N733 0.985 1_554 S
H740 N737 0.984 . S
H741 N737 0.985 1_554 S
H742 N736 0.984 . S
H743 N736 0.984 1_455 S
H744 N732 0.984 . S
H745 N732 0.985 . S
C746 C747 1.363 . S
C746 C752 1.379 . S
C746 N754 1.356 . S
C747 C746 1.363 . S
C747 C753 1.363 . S
C748 C749 1.363 . S
C748 C753 1.379 . S
C748 N755 1.356 1_545 S
C749 C748 1.363 . S
C749 C752 1.363 . S
N750 C752 1.356 . S
N750 H762 0.984 . S
N750 H763 0.985 . S
N751 C753 1.356 1_565 S
N751 H756 0.984 . S
N751 H757 0.985 . S
C752 C746 1.379 . S
C752 C749 1.363 . S
C752 N750 1.356 . S
C753 C747 1.363 . S
C753 C748 1.379 . S
C753 N751 1.356 1_545 S
N754 C746 1.356 . S
N754 H760 0.984 . S
N754 H761 0.984 . S
N755 C748 1.356 1_565 S
N755 H758 0.984 . S
N755 H759 0.985 . S
H756 N751 0.984 . S
H757 N751 0.985 . S
H758 N755 0.984 . S
H759 N755 0.985 . S
H760 N754 0.984 . S
H761 N754 0.984 . S
H762 N750 0.984 . S
H763 N750 0.985 . S
C764 C765 1.363 . S
C764 C770 1.379 . S
C764 N772 1.356 . S
C765 C764 1.363 . S
C765 C771 1.363 . S
C766 C767 1.363 . S
C766 C771 1.379 . S
C766 N773 1.356 . S
C767 C766 1.363 . S
C767 C770 1.363 . S
N768 C770 1.356 . S
N768 H780 0.984 . S
N768 H781 0.985 . S
N769 C771 1.356 . S
N769 H774 0.984 . S
N769 H775 0.985 1_556 S
C770 C764 1.379 . S
C770 C767 1.363 . S
C770 N768 1.356 . S
C771 C765 1.363 . S
C771 C766 1.379 . S
C771 N769 1.356 . S
N772 C764 1.356 . S
N772 H778 0.984 . S
N772 H779 0.984 . S
N773 C766 1.356 . S
N773 H776 0.984 . S
N773 H777 0.985 1_556 S
H774 N769 0.984 . S
H775 N769 0.985 1_554 S
H776 N773 0.984 . S
H777 N773 0.985 1_554 S
H778 N772 0.984 . S
H779 N772 0.984 . S
H780 N768 0.984 . S
H781 N768 0.985 . S
C782 C783 1.363 . S
C782 C788 1.379 . S
C782 N790 1.356 . S
C783 C782 1.363 . S
C783 C789 1.363 . S
C784 C785 1.363 . S
C784 C789 1.379 . S
C784 N791 1.356 1_556 S
C785 C784 1.363 . S
C785 C788 1.363 . S
N786 C788 1.356 . S
N786 H798 0.984 . S
N786 H799 0.985 . S
N787 C789 1.356 1_554 S
N787 H792 0.984 . S
N787 H793 0.985 . S
C788 C782 1.379 . S
C788 C785 1.363 . S
C788 N786 1.356 . S
C789 C783 1.363 . S
C789 C784 1.379 . S
C789 N787 1.356 1_556 S
N790 C782 1.356 . S
N790 H796 0.984 . S
N790 H797 0.984 . S
N791 C784 1.356 1_554 S
N791 H794 0.984 1_554 S
N791 H795 0.985 . S
H792 N787 0.984 . S
H793 N787 0.985 . S
H794 N791 0.984 1_556 S
H795 N791 0.985 . S
H796 N790 0.984 . S
H797 N790 0.984 . S
H798 N786 0.984 . S
H799 N786 0.985 . S
C800 C801 1.363 1_455 S
C800 C806 1.379 . S
C800 N808 1.356 . S
C801 C800 1.363 1_655 S
C801 C807 1.363 . S
C802 C803 1.363 . S
C802 C807 1.379 . S
C802 N809 1.356 . S
C803 C802 1.363 . S
C803 C806 1.363 1_655 S
N804 C806 1.356 . S
N804 H816 0.984 . S
N804 H817 0.985 . S
N805 C807 1.356 . S
N805 H810 0.984 . S
N805 H811 0.985 . S
C806 C800 1.379 . S
C806 C803 1.363 1_455 S
C806 N804 1.356 . S
C807 C801 1.363 . S
C807 C802 1.379 . S
C807 N805 1.356 . S
N808 C800 1.356 . S
N808 H814 0.984 . S
N808 H815 0.984 . S
N809 C802 1.356 . S
N809 H812 0.984 . S
N809 H813 0.985 . S
H810 N805 0.984 . S
H811 N805 0.985 . S
H812 N809 0.984 . S
H813 N809 0.985 . S
H814 N808 0.984 . S
H815 N808 0.984 . S
H816 N804 0.984 . S
H817 N804 0.985 . S
C818 C819 1.363 . S
C818 C824 1.379 . S
C818 N826 1.356 . S
C819 C818 1.363 . S
C819 C825 1.363 1_565 S
C820 C821 1.363 1_545 S
C820 C825 1.379 . S
C820 N827 1.356 . S
C821 C820 1.363 1_565 S
C821 C824 1.363 . S
N822 C824 1.356 . S
N822 H834 0.984 . S
N822 H835 0.985 . S
N823 C825 1.356 . S
N823 H828 0.984 . S
N823 H829 0.985 . S
C824 C818 1.379 . S
C824 C821 1.363 . S
C824 N822 1.356 . S
C825 C819 1.363 1_545 S
C825 C820 1.379 . S
C825 N823 1.356 . S
N826 C818 1.356 . S
N826 H832 0.984 . S
N826 H833 0.984 . S
N827 C820 1.356 . S
N827 H830 0.984 . S
N827 H831 0.985 . S
H828 N823 0.984 . S
H829 N823 0.985 . S
H830 N827 0.984 . S
H831 N827 0.985 . S
H832 N826 0.984 . S
H833 N826 0.984 . S
H834 N822 0.984 . S
H835 N822 0.985 . S
C836 C837 1.363 . S
C836 C842 1.379 . S
C836 N844 1.356 . S
C837 C836 1.363 . S
C837 C843 1.363 . S
C838 C839 1.363 . S
C838 C843 1.379 . S
C838 N845 1.356 . S
C839 C838 1.363 . S
C839 C842 1.363 . S
N840 C842 1.356 . S
N840 H852 0.984 . S
N840 H853 0.985 . S
N841 C843 1.356 . S
N841 H846 0.984 . S
N841 H847 0.985 . S
C842 C836 1.379 . S
C842 C839 1.363 . S
C842 N840 1.356 . S
C843 C837 1.363 . S
C843 C838 1.379 . S
C843 N841 1.356 . S
N844 C836 1.356 . S
N844 H850 0.984 . S
N844 H851 0.984 . S
N845 C838 1.356 . S
N845 H848 0.984 . S
N845 H849 0.985 . S
H846 N841 0.984 . S
H847 N841 0.985 . S
H848 N845 0.984 . S
H849 N845 0.985 . S
H850 N844 0.984 . S
H851 N844 0.984 . S
H852 N840 0.984 . S
H853 N840 0.985 . S
C854 C855 1.363 . S
C854 C860 1.379 . S
C854 N862 1.356 . S
C855 C854 1.363 . S
C855 C861 1.363 . S
C856 C857 1.363 . S
C856 C861 1.379 . S
C856 N863 1.356 . S
C857 C856 1.363 . S
C857 C860 1.363 . S
N858 C860 1.356 . S
N858 H870 0.984 . S
N858 H871 0.985 . S
N859 C861 1.356 . S
N859 H864 0.984 . S
N859 H865 0.985 . S
C860 C854 1.379 . S
C860 C857 1.363 . S
C860 N858 1.356 . S
C861 C855 1.363 . S
C861 C856 1.379 . S
C861 N859 1.356 . S
N862 C854 1.356 . S
N862 H868 0.984 . S
N862 H869 0.984 . S
N863 C856 1.356 . S
N863 H866 0.984 . S
N863 H867 0.985 . S
H864 N859 0.984 . S
H865 N859 0.985 . S
H866 N863 0.984 . S
H867 N863 0.985 . S
H868 N862 0.984 . S
H869 N862 0.984 . S
H870 N858 0.984 . S
H871 N858 0.985 . S
C441 C82 1.806 . S
C443 C167 2.173 . S
C461 C244 2.176 . S
C459 C95 1.801 . S
C479 C335 2.173 . S
C477 C56 1.803 . S
C497 C419 2.161 . S
C495 C69 1.797 . S
C515 C178 2.168 1_564 S
C513 C30 1.771 . S
C531 C43 1.767 . S
C533 C255 2.177 1_554 S
C549 C4 1.769 . S
C551 C346 2.173 1_554 S
C567 C17 1.763 . S
C569 C430 2.162 1_654 S
C587 C162 0.770 . S
C585 C74 0.768 . S
C605 C257 0.748 1_545 S
C603 C87 0.756 . S
C623 C330 0.774 . S
C621 C100 0.772 . S
C639 C61 0.756 . S
C641 C414 0.756 . S
C657 C22 0.768 . S
C659 C173 0.770 . S
C677 C246 0.757 . S
C675 C35 0.756 . S
C695 C341 0.774 . S
C693 C48 0.772 . S
C711 C9 0.756 . S
C713 C425 0.756 . S
C729 C73 2.028 . S
C731 C171 2.284 . S
C747 C86 2.038 . S
C749 C262 2.333 . S
C767 C339 2.297 . S
C765 C99 2.038 . S
C785 C423 2.302 . S
C783 C60 2.044 . S
C801 C21 2.026 . S
C803 C160 2.284 . S
C821 C251 2.332 1_565 S
C819 C34 2.036 . S
C839 C328 2.297 . S
C837 C47 2.036 . S
C855 C8 2.042 . S
C857 C412 2.301 . S
