# Generated by pormake.
# Topology zzz, (3,6)-cn, num edge types: 1
# Building blocks:
#     Node 0, Type 0, BuildingBlock: CUQRIR_clean_linker_1, # of connection points: 3
#     Node 1, Type 0, BuildingBlock: CUQRIR_clean_linker_1, # of connection points: 3
#     Node 2, Type 0, BuildingBlock: CUQRIR_clean_linker_1, # of connection points: 3
#     Node 3, Type 0, BuildingBlock: CUQRIR_clean_linker_1, # of connection points: 3
#     Node 4, Type 0, BuildingBlock: CUQRIR_clean_linker_1, # of connection points: 3
#     Node 5, Type 0, BuildingBlock: CUQRIR_clean_linker_1, # of connection points: 3
#     Node 6, Type 0, BuildingBlock: CUQRIR_clean_linker_1, # of connection points: 3
#     Node 7, Type 0, BuildingBlock: CUQRIR_clean_linker_1, # of connection points: 3
#     Node 8, Type 1, BuildingBlock: GEDQOX_clean_sbu_0, # of connection points: 6
#     Node 9, Type 1, BuildingBlock: GEDQOX_clean_sbu_0, # of connection points: 6
#     Node 10, Type 1, BuildingBlock: GEDQOX_clean_sbu_0, # of connection points: 6
#     Node 11, Type 1, BuildingBlock: GEDQOX_clean_sbu_0, # of connection points: 6
#     Edge 12, Type (0, 1), BuildingBlock: MIFKUJ_clean_linker_0, # of connection points: 2
#     Edge 13, Type (0, 1), BuildingBlock: MIFKUJ_clean_linker_0, # of connection points: 2
#     Edge 14, Type (0, 1), BuildingBlock: MIFKUJ_clean_linker_0, # of connection points: 2
#     Edge 15, Type (0, 1), BuildingBlock: MIFKUJ_clean_linker_0, # of connection points: 2
#     Edge 16, Type (0, 1), BuildingBlock: MIFKUJ_clean_linker_0, # of connection points: 2
#     Edge 17, Type (0, 1), BuildingBlock: MIFKUJ_clean_linker_0, # of connection points: 2
#     Edge 18, Type (0, 1), BuildingBlock: MIFKUJ_clean_linker_0, # of connection points: 2
#     Edge 19, Type (0, 1), BuildingBlock: MIFKUJ_clean_linker_0, # of connection points: 2
#     Edge 20, Type (0, 1), BuildingBlock: MIFKUJ_clean_linker_0, # of connection points: 2
#     Edge 21, Type (0, 1), BuildingBlock: MIFKUJ_clean_linker_0, # of connection points: 2
#     Edge 22, Type (0, 1), BuildingBlock: MIFKUJ_clean_linker_0, # of connection points: 2
#     Edge 23, Type (0, 1), BuildingBlock: MIFKUJ_clean_linker_0, # of connection points: 2
#     Edge 24, Type (0, 1), BuildingBlock: MIFKUJ_clean_linker_0, # of connection points: 2
#     Edge 25, Type (0, 1), BuildingBlock: MIFKUJ_clean_linker_0, # of connection points: 2
#     Edge 26, Type (0, 1), BuildingBlock: MIFKUJ_clean_linker_0, # of connection points: 2
#     Edge 27, Type (0, 1), BuildingBlock: MIFKUJ_clean_linker_0, # of connection points: 2
#     Edge 28, Type (0, 1), BuildingBlock: MIFKUJ_clean_linker_0, # of connection points: 2
#     Edge 29, Type (0, 1), BuildingBlock: MIFKUJ_clean_linker_0, # of connection points: 2
#     Edge 30, Type (0, 1), BuildingBlock: MIFKUJ_clean_linker_0, # of connection points: 2
#     Edge 31, Type (0, 1), BuildingBlock: MIFKUJ_clean_linker_0, # of connection points: 2
#     Edge 32, Type (0, 1), BuildingBlock: MIFKUJ_clean_linker_0, # of connection points: 2
#     Edge 33, Type (0, 1), BuildingBlock: MIFKUJ_clean_linker_0, # of connection points: 2
#     Edge 34, Type (0, 1), BuildingBlock: MIFKUJ_clean_linker_0, # of connection points: 2
#     Edge 35, Type (0, 1), BuildingBlock: MIFKUJ_clean_linker_0, # of connection points: 2
# Relax obj value: 0.117
# Max RMSD: 0.163
# Mean RMSD: 0.092
data_MOF--net-zzz--node1-GEDQOX_clean_sbu_0--node2-CUQRIR_clean_linker_1--edge1-MIFKUJ_clean_linker_0
_symmetry_space_group_name_H-M    P1
_symmetry_Int_Tables_number       1
_symmetry_cell_setting            triclinic
loop_
_symmetry_equiv_pos_as_xyz
'x, y, z'
_cell_length_a     67.247279
_cell_length_b     66.510612
_cell_length_c     19.635043
_cell_angle_alpha  80.643108
_cell_angle_beta   89.061996
_cell_angle_gamma 98.540756
loop_
_atom_site_label
_atom_site_type_symbol
_atom_site_fract_x
_atom_site_fract_y
_atom_site_fract_z
_atom_type_partial_charge
C0 C 0.7569 0.55718 0.18626 0.0
N1 N 0.77626 0.55398 0.18136 0.0
N2 N 0.74683 0.55226 0.13053 0.0
C3 C 0.7478 0.56473 0.24594 0.0
C4 C 0.76071 0.54582 0.09182 0.0
N5 N 0.77857 0.54675 0.12289 0.0
C6 C 0.75667 0.53828 0.02443 0.0
H7 H 0.75328 0.5573 0.29538 0.0
H8 H 0.73113 0.56172 0.24713 0.0
H9 H 0.75266 0.58161 0.24097 0.0
H10 H 0.74484 0.54583 0.99659 0.0
H11 H 0.75131 0.52143 0.03518 0.0
H12 H 0.77056 0.54118 0.99079 0.0
C13 C 0.01137 0.73923 0.29954 0.0
N14 N 0.01529 0.76006 0.29565 0.0
N15 N 0.01529 0.73369 0.23725 0.0
C16 C 0.00292 0.72447 0.36291 0.0
C17 C 0.02173 0.75202 0.19585 0.0
N18 N 0.02167 0.76784 0.23118 0.0
C19 C 0.02906 0.75453 0.12169 0.0
H20 H 0.01554 0.719 0.39254 0.0
H21 H 0.99325 0.71089 0.34857 0.0
H22 H 0.99414 0.73214 0.39656 0.0
H23 H 0.0161 0.75588 0.08788 0.0
H24 H 0.03596 0.74102 0.11232 0.0
H25 H 0.04023 0.76874 0.10746 0.0
C26 C 0.76128 0.96941 0.18907 0.0
N27 N 0.74211 0.97166 0.173 0.0
N28 N 0.77314 0.97202 0.13083 0.0
C29 C 0.7688 0.96664 0.26117 0.0
C30 C 0.76052 0.97581 0.07897 0.0
N31 N 0.74176 0.9758 0.10446 0.0
C32 C 0.76634 0.97848 1.00328 0.0
H33 H 0.78478 0.97377 0.26167 0.0
H34 H 0.76768 0.9499 0.28116 0.0
H35 H 0.75959 0.97348 0.29608 0.0
H36 H 0.77893 0.96995 0.995 0.0
H37 H 0.77133 0.99507 0.98316 0.0
H38 H 0.75332 0.97295 0.97361 0.0
C39 C 0.50619 0.7913 0.4517 0.0
N40 N 0.50297 0.77058 0.45279 0.0
N41 N 0.50462 0.80153 0.38664 0.0
C42 C 0.50964 0.80148 0.51421 0.0
C43 C 0.50061 0.78636 0.34834 0.0
N44 N 0.49951 0.76767 0.38834 0.0
C45 C 0.49911 0.78984 0.27097 0.0
H46 H 0.50399 0.8165 0.50691 0.0
H47 H 0.52605 0.80436 0.5221 0.0
H48 H 0.50219 0.79137 0.56101 0.0
H49 H 0.5041 0.77705 0.24857 0.0
H50 H 0.50837 0.8046 0.24704 0.0
H51 H 0.4832 0.79055 0.25811 0.0
C52 C 0.27269 0.50087 0.56153 0.0
N53 N 0.25319 0.50364 0.56619 0.0
N54 N 0.28313 0.50801 0.61356 0.0
C55 C 0.28177 0.49247 0.50365 0.0
C56 C 0.26918 0.51519 0.64998 0.0
N57 N 0.25111 0.51275 0.62072 0.0
C58 C 0.27288 0.52356 0.71613 0.0
H59 H 0.28076 0.47551 0.51836 0.0
H60 H 0.29784 0.49926 0.49351 0.0
H61 H 0.27348 0.49568 0.45565 0.0
H62 H 0.27772 0.54048 0.70359 0.0
H63 H 0.28489 0.51653 0.74486 0.0
H64 H 0.25899 0.52071 0.74969 0.0
C65 C 0.0134 0.29647 0.48141 0.0
N66 N 0.01022 0.27575 0.48264 0.0
N67 N 0.0105 0.30102 0.54584 0.0
C68 C 0.02006 0.31214 0.41818 0.0
C69 C 0.00555 0.28217 0.58586 0.0
N70 N 0.00537 0.26698 0.54756 0.0
C71 C 5e-05 0.2785 0.66189 0.0
H72 H 0.02843 0.30542 0.38054 0.0
H73 H 0.02962 0.32582 0.43219 0.0
H74 H 0.00657 0.31722 0.39314 0.0
H75 H 0.99282 0.29129 0.67598 0.0
H76 H 0.01393 0.27756 0.69129 0.0
H77 H 0.98972 0.26373 0.67704 0.0
C78 C 0.26443 0.0707 0.54052 0.0
N79 N 0.28441 0.0706 0.54801 0.0
N80 N 0.25472 0.06787 0.60322 0.0
C81 C 0.25429 0.07202 0.47267 0.0
C82 C 0.26951 0.06616 0.64879 0.0
N83 N 0.28752 0.06784 0.61525 0.0
C84 C 0.26616 0.06126 0.72609 0.0
H85 H 0.24062 0.07943 0.47434 0.0
H86 H 0.24965 0.05618 0.46175 0.0
H87 H 0.26471 0.08077 0.43007 0.0
H88 H 0.2658 0.04446 0.74311 0.0
H89 H 0.25175 0.06561 0.74259 0.0
H90 H 0.27861 0.06947 0.75201 0.0
C91 C 0.5259 0.26454 0.30952 0.0
N92 N 0.52886 0.28411 0.32358 0.0
N93 N 0.52828 0.25076 0.36696 0.0
C94 C 0.52059 0.25887 0.24045 0.0
C95 C 0.53257 0.26256 0.41636 0.0
N96 N 0.53288 0.28265 0.39013 0.0
C97 C 0.53604 0.25454 0.49094 0.0
H98 H 0.51093 0.26951 0.21333 0.0
H99 H 0.51281 0.24275 0.24593 0.0
H100 H 0.53463 0.26028 0.20845 0.0
H101 H 0.54 0.2388 0.49893 0.0
H102 H 0.52203 0.25406 0.52215 0.0
H103 H 0.54816 0.26501 0.5108 0.0
Nd104 Nd 0.00811 0.00876 0.83386 0.0
Nd105 Nd 0.02285 0.02659 0.9598 0.0
C106 C 0.99282 0.98417 0.74688 0.0
C107 C 0.99521 0.96432 0.72346 0.0
C108 C 0.97865 0.94846 0.72824 0.0
C109 C 0.98004 0.93028 0.70185 0.0
C110 C 0.99804 0.9274 0.66944 0.0
C111 C 0.01474 0.94317 0.66593 0.0
C112 C 0.01335 0.96135 0.69249 0.0
C113 C 0.04735 0.02794 0.82151 0.0
C114 C 0.02693 0.97969 0.96233 0.0
C115 C 0.03826 0.0505 0.04885 0.0
C116 C 0.03577 0.06978 0.07513 0.0
C117 C 0.04907 0.07678 0.12358 0.0
C118 C 0.04685 0.09458 0.15099 0.0
C119 C 0.03122 0.10597 0.13075 0.0
C120 C 0.01791 0.0989 0.08179 0.0
C121 C 0.02017 0.08104 0.05426 0.0
C122 C 0.98366 0.00726 0.9717 0.0
C123 C 0.00441 0.05575 0.82976 0.0
O124 O 0.98516 0.98331 0.80919 0.0
O125 O 0.00713 0.99989 0.72955 0.0
O126 O 0.0348 0.02943 0.77226 0.0
O127 O 0.03939 0.01604 0.87473 0.0
O128 O 0.01403 0.98092 0.91245 0.0
O129 O 0.03589 0.9964 0.98408 0.0
O130 O 0.04533 0.05222 0.98536 0.0
O131 O 0.02393 0.03478 0.06523 0.0
O132 O 0.99618 0.00566 0.02099 0.0
O133 O 0.99162 0.01934 0.91892 0.0
O134 O 0.0169 0.05452 0.88104 0.0
O135 O 0.99559 0.03906 0.80764 0.0
H136 H 0.96446 0.95025 0.75163 0.0
H137 H 0.96691 0.91847 0.70688 0.0
H138 H 0.02881 0.94179 0.64082 0.0
H139 H 0.02643 0.97323 0.68757 0.0
H140 H 0.06115 0.06832 0.14086 0.0
H141 H 0.05723 0.09918 0.1892 0.0
H142 H 0.00583 0.10728 0.0641 0.0
H143 H 0.00972 0.07598 0.01686 0.0
Nd144 Nd 0.51525 0.01005 0.8213 0.0
Nd145 Nd 0.51632 0.04175 0.91207 0.0
C146 C 0.52367 0.97951 0.7603 0.0
C147 C 0.54149 0.97727 0.71955 0.0
C148 C 0.54434 0.95796 0.70487 0.0
C149 C 0.56123 0.95608 0.66504 0.0
C150 C 0.57555 0.97351 0.63942 0.0
C151 C 0.57272 0.99276 0.65561 0.0
C152 C 0.55589 0.9946 0.69533 0.0
C153 C 0.51328 0.04882 0.7503 0.0
C154 C 0.55896 0.03434 0.86298 0.0
C155 C 0.50729 0.0716 0.97518 0.0
C156 C 0.48896 0.07301 0.01501 0.0
C157 C 0.4834 0.09221 0.02004 0.0
C158 C 0.46552 0.09333 0.05593 0.0
C159 C 0.45291 0.07523 0.08736 0.0
C160 C 0.45863 0.05603 0.08185 0.0
C161 C 0.47638 0.05494 0.04576 0.0
C162 C 0.5183 1.00293 0.98221 0.0
C163 C 0.4726 0.01792 0.86971 0.0
O164 O 0.52644 0.98012 0.82573 0.0
O165 O 0.51319 0.99348 0.73193 0.0
O166 O 0.50282 0.0321 0.73629 0.0
O167 O 0.52489 0.04484 0.79901 0.0
O168 O 0.54888 0.01793 0.84272 0.0
O169 O 0.54979 0.04841 0.88461 0.0
O170 O 0.5051 0.07165 0.90912 0.0
O171 O 0.51795 0.05771 1.00289 0.0
O172 O 0.52885 0.01955 0.99645 0.0
O173 O 0.50661 0.00705 0.93393 0.0
O174 O 0.48293 0.03447 0.8882 0.0
O175 O 0.48171 1.00348 0.85011 0.0
H176 H 0.53348 0.94439 0.7239 0.0
H177 H 0.56311 0.94096 0.6546 0.0
H178 H 0.58324 0.00655 0.6362 0.0
H179 H 0.55396 0.00965 0.70642 0.0
H180 H 0.49278 0.10631 0.99576 0.0
H181 H 0.46145 0.10837 0.05823 0.0
H182 H 0.44953 0.04178 0.10615 0.0
H183 H 0.48028 0.03992 0.04178 0.0
Nd184 Nd 0.49865 0.52781 0.94026 0.0
Nd185 Nd 0.52944 0.52729 0.82795 0.0
C186 C 0.46735 0.53196 0.01691 0.0
C187 C 0.46174 0.54794 0.05391 0.0
C188 C 0.46231 0.56836 0.02027 0.0
C189 C 0.4597 0.58384 0.05828 0.0
C190 C 0.45673 0.57918 0.13043 0.0
C191 C 0.45522 0.55862 0.16355 0.0
C192 C 0.45758 0.5431 0.12545 0.0
C193 C 0.5379 0.53598 0.97737 0.0
C194 C 0.51449 0.57085 0.8294 0.0
C195 C 0.56063 0.52018 0.75785 0.0
C196 C 0.56354 0.50061 0.73735 0.0
C197 C 0.58221 0.49746 0.71198 0.0
C198 C 0.58435 0.47843 0.69319 0.0
C199 C 0.56784 0.4624 0.70016 0.0
C200 C 0.54926 0.46573 0.72639 0.0
C201 C 0.54717 0.48461 0.7449 0.0
C202 C 0.49039 0.5191 0.78929 0.0
C203 C 0.51358 0.48444 0.9382 0.0
O204 O 0.46804 0.53592 0.94928 0.0
O205 O 0.48242 0.52316 0.04179 0.0
O206 O 0.52364 0.52517 0.0188 0.0
O207 O 0.53108 0.54295 0.92058 0.0
O208 O 0.50031 0.56052 0.87486 0.0
O209 O 0.52945 0.56211 0.80912 0.0
O210 O 0.56057 0.52013 0.82449 0.0
O211 O 0.5458 0.52847 0.72834 0.0
O212 O 0.505 0.52912 0.74766 0.0
O213 O 0.49684 0.51229 0.84707 0.0
O214 O 0.52844 0.49526 0.89688 0.0
O215 O 0.49793 0.49288 0.95378 0.0
H216 H 0.4656 0.57257 0.96517 0.0
H217 H 0.46115 0.59963 0.03171 0.0
H218 H 0.45286 0.55469 0.21913 0.0
H219 H 0.45704 0.52744 0.1523 0.0
H220 H 0.59503 0.50966 0.70654 0.0
H221 H 0.59886 0.47623 0.67344 0.0
H222 H 0.53613 0.45392 0.73109 0.0
H223 H 0.53262 0.48679 0.76454 0.0
Nd224 Nd 0.00748 0.53285 0.82956 0.0
Nd225 Nd 0.01712 0.49978 0.96567 0.0
C226 C 0.99487 0.56408 0.75065 0.0
C227 C 0.97706 0.56513 0.70838 0.0
C228 C 0.97582 0.58246 0.65836 0.0
C229 C 0.95888 0.58316 0.61788 0.0
C230 C 0.94292 0.56652 0.62684 0.0
C231 C 0.94422 0.5493 0.67779 0.0
C232 C 0.96114 0.54859 0.71789 0.0
C233 C 0.00552 0.49305 0.79902 0.0
C234 C 0.97046 0.50445 0.93192 0.0
C235 C 0.02879 0.46824 0.0458 0.0
C236 C 0.04537 0.4664 0.09349 0.0
C237 C 0.05667 0.45027 0.09393 0.0
C238 C 0.07378 0.44958 0.13341 0.0
C239 C 0.07983 0.46499 0.17337 0.0
C240 C 0.06819 0.48087 0.17398 0.0
C241 C 0.0512 0.48164 0.13415 0.0
C242 C 0.01928 0.53961 0.99605 0.0
C243 C 0.0542 0.52783 0.86242 0.0
O244 O 0.991 0.55949 0.81747 0.0
O245 O 0.00851 0.55405 0.72929 0.0
O246 O 0.00252 0.50894 0.75466 0.0
O247 O 0.00907 0.49906 0.85599 0.0
O248 O 0.9766 0.52036 0.88269 0.0
O249 O 0.98265 0.49309 0.96716 0.0
O250 O 0.03437 0.47362 0.98033 0.0
O251 O 0.01423 0.47767 0.06403 0.0
O252 O 0.02252 0.52377 0.04025 0.0
O253 O 0.01552 0.53354 0.93933 0.0
O254 O 0.04774 0.51154 0.90999 0.0
O255 O 0.04207 0.5398 0.82932 0.0
H256 H 0.98799 0.59535 0.65028 0.0
H257 H 0.95848 0.59656 0.57868 0.0
H258 H 0.93208 0.53639 0.68716 0.0
H259 H 0.96178 0.53508 0.7564 0.0
H260 H 0.05253 0.43847 0.06245 0.0
H261 H 0.08235 0.43707 0.13232 0.0
H262 H 0.07261 0.49312 0.20341 0.0
H263 H 0.04294 0.49444 0.13384 0.0
H264 H 0.22805 0.09413 0.57174 0.0
H265 H 0.19232 0.08829 0.60924 0.0
H266 H 0.19854 0.02728 0.71355 0.0
H267 H 0.23378 0.03281 0.67205 0.0
H268 H 0.1644 0.02507 0.66012 0.0
H269 H 0.19934 0.07032 0.79892 0.0
H270 H 0.22143 0.10117 0.82313 0.0
H271 H 0.18134 0.13991 0.7218 0.0
H272 H 0.15914 0.10929 0.69605 0.0
H273 H 0.07798 0.01144 0.88836 0.0
H274 H 0.11399 0.01975 0.85464 0.0
H275 H 0.10159 0.06807 0.69364 0.0
H276 H 0.06559 0.05946 0.72573 0.0
H277 H 0.13846 0.07679 0.77956 0.0
H278 H 0.10441 0.02868 0.63972 0.0
H279 H 0.08254 0.99639 0.62716 0.0
H280 H 0.12237 0.96125 0.74686 0.0
H281 H 0.1443 0.99339 0.76109 0.0
C282 C 0.22152 0.07937 0.60127 0.0
C283 C 0.23344 0.06389 0.61918 0.0
C284 C 0.20126 0.07611 0.62357 0.0
C285 C 0.19281 0.05749 0.66566 0.0
C286 C 0.20466 0.04179 0.68145 0.0
C287 C 0.22476 0.04494 0.65808 0.0
C288 C 0.17179 0.05441 0.69443 0.0
C289 C 0.15889 0.03633 0.68686 0.0
C290 C 0.16442 0.06907 0.7293 0.0
C291 C 0.17768 0.08752 0.74494 0.0
C292 C 0.1953 0.08543 0.78136 0.0
C293 C 0.20784 0.10287 0.79541 0.0
C294 C 0.20282 0.12249 0.77386 0.0
C295 C 0.18522 0.12471 0.73836 0.0
C296 C 0.17265 0.10731 0.72405 0.0
C297 C 0.08302 0.02406 0.84664 0.0
C298 C 0.06911 0.03474 0.80914 0.0
C299 C 0.10352 0.02877 0.82746 0.0
C300 C 0.11031 0.04445 0.77157 0.0
C301 C 0.09657 0.05596 0.73697 0.0
C302 C 0.07607 0.05097 0.75513 0.0
C303 C 0.13139 0.0476 0.74488 0.0
C304 C 0.14418 0.06564 0.75284 0.0
C305 C 0.13882 0.03274 0.71179 0.0
C306 C 0.12586 0.01343 0.70208 0.0
C307 C 0.10841 0.01407 0.66383 0.0
C308 C 0.09602 0.9958 0.65633 0.0
C309 C 0.10103 0.97678 0.68635 0.0
C310 C 0.11849 0.97599 0.72372 0.0
C311 C 0.13091 0.99423 0.73149 0.0
H312 H 0.09141 0.96264 0.68052 0.0
H313 H 0.21254 0.13598 0.7848 0.0
H314 H 0.55833 0.22872 0.39224 0.0
H315 H 0.55471 0.19249 0.4446 0.0
H316 H 0.49067 0.1863 0.41532 0.0
H317 H 0.4944 0.22331 0.36855 0.0
H318 H 0.49408 0.1699 0.53418 0.0
H319 H 0.52689 0.1603 0.32984 0.0
H320 H 0.55213 0.16665 0.23324 0.0
H321 H 0.59852 0.15551 0.376 0.0
H322 H 0.57361 0.14936 0.47359 0.0
H323 H 0.48613 0.06052 0.65683 0.0
H324 H 0.48772 0.09361 0.57929 0.0
H325 H 0.54395 0.11587 0.66386 0.0
H326 H 0.54224 0.08286 0.74273 0.0
H327 H 0.54233 0.12166 0.50985 0.0
H328 H 0.50542 0.1325 0.7141 0.0
H329 H 0.47737 0.12291 0.80141 0.0
H330 H 0.4348 0.12793 0.64115 0.0
H331 H 0.4626 0.13725 0.55288 0.0
C332 C 0.54362 0.21936 0.39501 0.0
C333 C 0.52666 0.22865 0.37643 0.0
C334 C 0.54149 0.19856 0.42484 0.0
C335 C 0.52239 0.18629 0.4339 0.0
C336 C 0.50559 0.1953 0.40967 0.0
C337 C 0.50769 0.21634 0.38184 0.0
C338 C 0.5198 0.16495 0.47512 0.0
C339 C 0.50445 0.15929 0.5274 0.0
C340 C 0.5333 0.15085 0.46765 0.0
C341 C 0.54838 0.15451 0.40911 0.0
C342 C 0.54249 0.15934 0.3407 0.0
C343 C 0.55674 0.16288 0.28575 0.0
C344 C 0.57692 0.16152 0.29848 0.0
C345 C 0.58288 0.15656 0.36621 0.0
C346 C 0.5687 0.15302 0.42137 0.0
C347 C 0.49879 0.07251 0.6591 0.0
C348 C 0.51407 0.06914 0.70574 0.0
C349 C 0.49967 0.09137 0.61478 0.0
C350 C 0.51597 0.10715 0.61573 0.0
C351 C 0.53128 0.10384 0.66222 0.0
C352 C 0.53024 0.08506 0.70742 0.0
C353 C 0.51697 0.12714 0.56835 0.0
C354 C 0.53197 0.1324 0.51532 0.0
C355 C 0.50275 0.14053 0.57348 0.0
C356 C 0.48609 0.13539 0.62686 0.0
C357 C 0.49008 0.13143 0.69747 0.0
C358 C 0.47422 0.12606 0.74715 0.0
C359 C 0.4543 0.12476 0.72685 0.0
C360 C 0.45022 0.12892 0.65684 0.0
C361 C 0.46602 0.13427 0.60698 0.0
H362 H 0.44204 0.12057 0.76534 0.0
H363 H 0.58793 0.16428 0.25587 0.0
H364 H 0.31008 0.53998 0.6389 0.0
H365 H 0.34532 0.53955 0.66688 0.0
H366 H 0.33924 0.47555 0.64302 0.0
H367 H 0.30351 0.47567 0.62038 0.0
H368 H 0.36073 0.47953 0.74502 0.0
H369 H 0.36409 0.51621 0.51777 0.0
H370 H 0.357 0.54213 0.42014 0.0
H371 H 0.38414 0.59076 0.52369 0.0
H372 H 0.39115 0.56512 0.62255 0.0
H373 H 0.47654 0.52252 0.6594 0.0
H374 H 0.44165 0.51731 0.6254 0.0
H375 H 0.42165 0.5034 0.84047 0.0
H376 H 0.45667 0.50675 0.87406 0.0
H377 H 0.4135 0.53594 0.63355 0.0
H378 H 0.37592 0.47607 0.86792 0.0
H379 H 0.3842 0.4461 0.94785 0.0
H380 H 0.42775 0.43653 0.79871 0.0
H381 H 0.41955 0.46626 0.71754 0.0
C382 C 0.31626 0.52579 0.64049 0.0
C383 C 0.30412 0.50787 0.62747 0.0
C384 C 0.33647 0.5256 0.65554 0.0
C385 C 0.34517 0.50761 0.65592 0.0
C386 C 0.33299 0.48965 0.64293 0.0
C387 C 0.31265 0.48977 0.62918 0.0
C388 C 0.36686 0.50755 0.67062 0.0
C389 C 0.37228 0.49183 0.72043 0.0
C390 C 0.38214 0.52317 0.63706 0.0
C391 C 0.37796 0.53873 0.5779 0.0
C392 C 0.36841 0.53243 0.52 0.0
C393 C 0.36442 0.54708 0.46441 0.0
C394 C 0.37006 0.56807 0.46582 0.0
C395 C 0.37975 0.57448 0.52277 0.0
C396 C 0.38375 0.5599 0.57858 0.0
C397 C 0.46467 0.51803 0.69933 0.0
C398 C 0.46927 0.5151 0.76937 0.0
C399 C 0.44468 0.51517 0.67989 0.0
C400 C 0.4288 0.50981 0.73011 0.0
C401 C 0.43348 0.50698 0.80035 0.0
C402 C 0.45353 0.50916 0.8197 0.0
C403 C 0.40745 0.50805 0.70882 0.0
C404 C 0.40204 0.52352 0.6579 0.0
C405 C 0.39239 0.49158 0.7387 0.0
C406 C 0.39724 0.47352 0.78693 0.0
C407 C 0.3872 0.46751 0.85207 0.0
C408 C 0.39189 0.45058 0.89761 0.0
C409 C 0.40653 0.43946 0.87845 0.0
C410 C 0.41646 0.4452 0.81359 0.0
C411 C 0.41181 0.4621 0.76782 0.0
H412 H 0.41015 0.42637 0.91382 0.0
H413 H 0.36693 0.57936 0.42271 0.0
H414 H 0.03221 0.31328 0.65082 0.0
H415 H 0.0326 0.34548 0.69685 0.0
H416 H 0.99363 0.36648 0.53715 0.0
H417 H 0.99289 0.33395 0.49209 0.0
H418 H 0.02458 0.39742 0.55823 0.0
H419 H 0.97499 0.3471 0.69919 0.0
H420 H 0.9634 0.31396 0.77528 0.0
H421 H 0.00705 0.32975 0.92261 0.0
H422 H 0.01914 0.36286 0.8468 0.0
H423 H 0.99105 0.47957 0.68434 0.0
H424 H 0.99331 0.44707 0.64513 0.0
H425 H 0.02396 0.42679 0.82911 0.0
H426 H 0.02104 0.45943 0.86987 0.0
H427 H -0.0003 0.39515 0.79909 0.0
H428 H 0.04948 0.44459 0.66575 0.0
H429 H 0.06407 0.477 0.59055 0.0
H430 H 0.02394 0.46263 0.43145 0.0
H431 H 0.00891 0.43025 0.50606 0.0
C432 C 0.0237 0.32476 0.62567 0.0
C433 C 0.01236 0.32097 0.56818 0.0
C434 C 0.02393 0.34319 0.65199 0.0
C435 C 0.0129 0.35842 0.6213 0.0
C436 C 0.00222 0.35502 0.56206 0.0
C437 C 0.00187 0.33647 0.53602 0.0
C438 C 0.01223 0.37766 0.65157 0.0
C439 C 0.01888 0.39692 0.61059 0.0
C440 C 0.00558 0.37713 0.72092 0.0
C441 C 0.99809 0.35738 0.767 0.0
C442 C 0.98221 0.34345 0.74758 0.0
C443 C 0.97554 0.32467 0.79068 0.0
C444 C 0.98452 0.31973 0.85366 0.0
C445 C 0.00013 0.33359 0.87377 0.0
C446 C 0.00689 0.35237 0.83077 0.0
C447 C 0.9982 0.46818 0.71689 0.0
C448 C 0.00598 0.47223 0.78022 0.0
C449 C -0.00036 0.44957 0.69397 0.0
C450 C 0.00932 0.43447 0.73286 0.0
C451 C 0.01656 0.43815 0.7975 0.0
C452 C 0.01489 0.45683 0.82097 0.0
C453 C 0.01174 0.41506 0.70531 0.0
C454 C 0.00546 0.39574 0.74677 0.0
C455 C 0.01909 0.4155 0.63667 0.0
C456 C 0.02794 0.43507 0.59179 0.0
C457 C 0.04364 0.44842 0.61496 0.0
C458 C 0.05202 0.46677 0.57239 0.0
C459 C 0.04491 0.47189 0.50633 0.0
C460 C 0.02942 0.45866 0.48267 0.0
C461 C 0.02098 0.44029 0.52505 0.0
H462 H 0.05142 0.4861 0.47342 0.0
H463 H 0.97934 0.30518 0.88696 0.0
H464 H 0.79838 1.00431 0.06296 0.0
H465 H 0.83449 0.0061 0.03895 0.0
H466 H 0.83282 0.94586 0.1619 0.0
H467 H 0.79627 0.94382 0.18412 0.0
H468 H 0.86708 0.9796 0.18073 0.0
H469 H 0.83361 0.9448 0.00759 0.0
H470 H 0.80841 0.94092 0.91898 0.0
H471 H 0.83571 0.99856 0.7992 0.0
H472 H 0.86085 1.00298 0.8878 0.0
H473 H 0.96581 0.97533 0.06692 0.0
H474 H 0.92981 0.96492 0.09478 0.0
H475 H 0.91675 0.0126 0.93216 0.0
H476 H 0.95278 0.02229 0.90189 0.0
H477 H 0.88921 0.98091 0.93733 0.0
H478 H 0.9193 0.01879 0.10788 0.0
H479 H 0.94348 0.02652 0.19666 0.0
H480 H 0.92211 0.96759 0.32033 0.0
H481 H 0.89796 0.95941 0.2318 0.0
C482 C 0.80577 0.99148 0.08469 0.0
C483 C 0.79467 0.97379 0.12426 0.0
C484 C 0.82632 0.99254 0.07129 0.0
C485 C 0.83617 0.97601 0.09799 0.0
C486 C 0.82537 0.95872 0.14073 0.0
C487 C 0.80464 0.95757 0.15349 0.0
C488 C 0.85758 0.97673 0.07828 0.0
C489 C 0.87199 0.97943 0.12794 0.0
C490 C 0.86382 0.97717 0.00887 0.0
C491 C 0.84903 0.97428 0.95462 0.0
C492 C 0.83416 0.95672 0.9626 0.0
C493 C 0.81989 0.95441 0.91235 0.0
C494 C 0.82044 0.9695 0.85356 0.0
C495 C 0.8353 0.98689 0.84479 0.0
C496 C 0.84958 0.98929 0.89498 0.0
C497 C 0.95519 0.98338 0.0366 0.0
C498 C 0.96197 0.99974 0.98287 0.0
C499 C 0.93465 0.97751 0.05278 0.0
C500 C 0.92057 0.98834 0.01689 0.0
C501 C 0.92732 1.00407 0.9609 0.0
C502 C 0.94788 0.00964 0.94368 0.0
C503 C 0.89896 0.984 0.0397 0.0
C504 C 0.88443 0.98072 0.9905 0.0
C505 C 0.89261 0.98346 0.10937 0.0
C506 C 0.90698 0.9884 0.16292 0.0
C507 C 0.91985 0.00743 0.15383 0.0
C508 C 0.93354 0.0119 0.20411 0.0
C509 C 0.93437 0.99753 0.26401 0.0
C510 C 0.92147 0.97869 0.27385 0.0
C511 C 0.90777 0.97414 0.22367 0.0
H512 H 0.94499 1.00101 0.30287 0.0
H513 H 0.80937 0.9677 0.81474 0.0
H514 H 0.53594 0.83177 0.39307 0.0
H515 H 0.53955 0.86754 0.33072 0.0
H516 H 0.47931 0.85544 0.2593 0.0
H517 H 0.47571 0.82005 0.32224 0.0
H518 H 0.50836 0.87123 0.15268 0.0
H519 H 0.489 0.88579 0.37688 0.0
H520 H 0.49271 0.88615 0.50143 0.0
H521 H 0.55143 0.92216 0.4601 0.0
H522 H 0.54819 0.92174 0.33532 0.0
H523 H 0.49026 0.96847 0.98503 0.0
H524 H 0.48904 0.93504 0.05997 0.0
H525 H 0.54456 0.95747 0.14907 0.0
H526 H 0.54533 0.99115 0.07622 0.0
H527 H 0.5208 0.93649 0.24735 0.0
H528 H 0.54202 0.92359 0.02916 0.0
H529 H 0.54114 0.92382 0.90356 0.0
H530 H 0.4838 0.88463 0.93088 0.0
H531 H 0.48416 0.88447 0.0566 0.0
C532 C 0.52335 0.83706 0.36562 0.0
C533 C 0.50558 0.8233 0.36205 0.0
C534 C 0.52543 0.85737 0.32974 0.0
C535 C 0.50973 0.8641 0.28984 0.0
C536 C 0.49165 0.85056 0.28923 0.0
C537 C 0.48956 0.83043 0.32534 0.0
C538 C 0.51238 0.8847 0.24505 0.0
C539 C 0.51086 0.88552 0.1734 0.0
C540 C 0.51652 0.90332 0.27177 0.0
C541 C 0.51844 0.90353 0.34681 0.0
C542 C 0.50279 0.89361 0.39439 0.0
C543 C 0.50479 0.89386 0.46503 0.0
C544 C 0.52232 0.90412 0.48869 0.0
C545 C 0.53787 0.91419 0.44172 0.0
C546 C 0.53596 0.91395 0.37104 0.0
C547 C 0.50222 0.96621 0.02048 0.0
C548 C 0.51789 0.98238 0.02485 0.0
C549 C 0.50157 0.94707 0.06316 0.0
C550 C 0.51686 0.94355 0.10982 0.0
C551 C 0.53257 0.95974 0.11381 0.0
C552 C 0.53304 0.97896 0.07192 0.0
C553 C 0.51635 0.92308 0.15479 0.0
C554 C 0.51838 0.92225 0.22636 0.0
C555 C 0.51319 0.90441 0.12784 0.0
C556 C 0.51304 0.90417 0.05232 0.0
C557 C 0.52916 0.91512 0.00837 0.0
C558 C 0.52876 0.91524 0.93714 0.0
C559 C 0.5124 0.90428 0.90925 0.0
C560 C 0.49645 0.89313 0.95257 0.0
C561 C 0.49675 0.89301 0.02384 0.0
H562 H 0.51211 0.9044 0.85409 0.0
H563 H 0.52383 0.90431 0.54338 0.0
H564 H 0.73075 0.57787 0.0341 0.0
H565 H 0.69501 0.57618 0.00734 0.0
H566 H 0.68007 0.5242 0.17197 0.0
H567 H 0.71594 0.52579 0.19724 0.0
H568 H 0.66079 0.51711 0.05839 0.0
H569 H 0.67067 0.57264 0.18887 0.0
H570 H 0.68696 0.60575 0.21776 0.0
H571 H 0.67241 0.63727 0.02057 0.0
H572 H 0.65628 0.60429 0.99007 0.0
H573 H 0.55548 0.51674 0.08821 0.0
H574 H 0.59129 0.5208 0.11313 0.0
H575 H 0.60456 0.56634 0.92879 0.0
H576 H 0.56872 0.56215 0.90307 0.0
H577 H 0.62454 0.57723 0.04909 0.0
H578 H 0.61431 0.52177 0.91938 0.0
H579 H 0.59683 0.4889 0.89236 0.0
H580 H 0.61156 0.45736 0.08933 0.0
H581 H 0.62882 0.49015 0.11807 0.0
C582 C 0.7197 0.56624 0.06452 0.0
C583 C 0.72582 0.55203 0.11777 0.0
C584 C 0.69935 0.56528 0.04953 0.0
C585 C 0.68478 0.55016 0.08806 0.0
C586 C 0.69099 0.53599 0.14156 0.0
C587 C 0.71136 0.53694 0.15632 0.0
C588 C 0.66313 0.5489 0.07186 0.0
C589 C 0.65283 0.53019 0.05726 0.0
C590 C 0.65281 0.5661 0.06862 0.0
C591 C 0.66245 0.58596 0.08691 0.0
C592 C 0.67109 0.58661 0.15143 0.0
C593 C 0.68027 0.60535 0.16814 0.0
C594 C 0.68077 0.62359 0.12096 0.0
C595 C 0.67204 0.62313 0.05703 0.0
C596 C 0.66286 0.60441 0.04002 0.0
C597 C 0.56602 0.52769 0.05321 0.0
C598 C 0.55937 0.53912 0.99371 0.0
C599 C 0.58645 0.52996 0.06742 0.0
C600 C 0.60056 0.54381 0.02264 0.0
C601 C 0.59389 0.55561 0.96401 0.0
C602 C 0.57347 0.55315 0.94931 0.0
C603 C 0.62232 0.54546 0.03628 0.0
C604 C 0.63259 0.5642 0.0502 0.0
C605 C 0.63262 0.52831 0.03893 0.0
C606 C 0.6227 0.50846 0.02116 0.0
C607 C 0.61371 0.50785 0.95715 0.0
C608 C 0.60385 0.48923 0.94149 0.0
C609 C 0.60304 0.47106 0.98918 0.0
C610 C 0.61217 0.47146 0.05249 0.0
C611 C 0.62201 0.49006 0.06847 0.0
H612 H 0.59538 0.45665 0.97703 0.0
H613 H 0.68787 0.63809 0.134 0.0
H614 H 0.03035 0.69998 0.29989 0.0
H615 H 0.02966 0.667 0.25823 0.0
H616 H 0.99541 0.68895 0.08527 0.0
H617 H 0.99525 0.72137 0.12915 0.0
H618 H 0.98239 0.65032 0.12191 0.0
H619 H 0.04823 0.68873 0.07398 0.0
H620 H 0.08046 0.7085 0.09944 0.0
H621 H 0.09369 0.65587 0.23904 0.0
H622 H 0.06138 0.63586 0.21515 0.0
H623 H 0.00588 0.57391 0.92132 0.0
H624 H 0.00403 0.60717 0.95899 0.0
H625 H 0.03044 0.58565 0.15063 0.0
H626 H 0.03212 0.55265 0.11357 0.0
H627 H 0.04739 0.62485 0.09774 0.0
H628 H 0.97994 0.58684 0.14145 0.0
H629 H 0.94802 0.56811 0.10864 0.0
H630 H 0.9386 0.62161 0.96557 0.0
H631 H 0.97063 0.64058 0.9968 0.0
C632 C 0.02234 0.69755 0.25384 0.0
C633 C 0.01303 0.71337 0.21746 0.0
C634 C 0.02216 0.67877 0.22933 0.0
C635 C 0.01292 0.67546 0.16722 0.0
C636 C 0.00281 0.69097 0.13281 0.0
C637 C 0.00284 0.70961 0.15767 0.0
C638 C 0.01427 0.65623 0.13704 0.0
C639 C 0.99668 0.64496 0.11596 0.0
C640 C 0.03282 0.64892 0.12894 0.0
C641 C 0.05229 0.66087 0.1433 0.0
C642 C 0.05795 0.68141 0.11048 0.0
C643 C 0.07624 0.69266 0.12458 0.0
C644 C 0.08909 0.68346 0.17096 0.0
C645 C 0.0837 0.66298 0.20321 0.0
C646 C 0.06541 0.65168 0.18938 0.0
C647 C 0.01134 0.57633 0.97119 0.0
C648 C 0.01907 0.56053 0.01433 0.0
C649 C 0.01021 0.59534 0.99298 0.0
C650 C 0.01695 0.59899 0.05819 0.0
C651 C 0.02512 0.58336 0.10026 0.0
C652 C 0.02604 0.56441 0.07889 0.0
C653 C 0.01552 0.61888 0.08362 0.0
C654 C 0.03312 0.63029 0.10364 0.0
C655 C 0.99705 0.62646 0.08961 0.0
C656 C 0.97778 0.61506 0.07098 0.0
C657 C 0.97115 0.59456 0.10258 0.0
C658 C 0.95302 0.58391 0.08434 0.0
C659 C 0.94131 0.59366 0.03501 0.0
C660 C 0.9477 0.61408 0.00376 0.0
C661 C 0.96583 0.62479 0.02173 0.0
H662 H 0.92724 0.58544 0.02119 0.0
H663 H 0.10325 0.69219 0.1818 0.0
H664 H 0.03063 0.24683 0.62665 0.0
H665 H 0.02795 0.20938 0.66247 0.0
H666 H 0.97232 0.20071 0.55662 0.0
H667 H 0.97471 0.2383 0.52388 0.0
H668 H 0.96855 0.17621 0.67551 0.0
H669 H 0.01655 0.18601 0.48582 0.0
H670 H 0.04681 0.20135 0.41151 0.0
H671 H 0.08423 0.19016 0.58428 0.0
H672 H 0.05426 0.17424 0.65895 0.0
H673 H 0.97761 0.06626 0.73001 0.0
H674 H 0.97461 0.10119 0.67065 0.0
H675 H 0.02189 0.12675 0.79156 0.0
H676 H 0.02485 0.09243 0.85113 0.0
H677 H 0.02705 0.14053 0.64527 0.0
H678 H 0.97665 0.13061 0.83435 0.0
H679 H 0.94581 0.11247 0.90001 0.0
H680 H 0.91161 0.1229 0.71827 0.0
H681 H 0.94234 0.14085 0.65128 0.0
C682 C 0.0178 0.23681 0.61188 0.0
C683 C 0.00295 0.24517 0.57236 0.0
C684 C 0.01638 0.21547 0.6313 0.0
C685 C 0.00018 0.20215 0.61076 0.0
C686 C 0.98506 0.21062 0.57248 0.0
C687 C 0.98644 0.232 0.55359 0.0
C688 C -0.00126 0.17947 0.6318 0.0
C689 C 0.98121 0.16834 0.66759 0.0
C690 C 0.01518 0.16908 0.62167 0.0
C691 C 0.03318 0.17919 0.57788 0.0
C692 C 0.03124 0.18702 0.50785 0.0
C693 C 0.04831 0.19573 0.46571 0.0
C694 C 0.06738 0.19697 0.49332 0.0
C695 C 0.06944 0.18927 0.563 0.0
C696 C 0.05243 0.18027 0.60513 0.0
C697 C 0.98725 0.07936 0.74412 0.0
C698 C 0.00146 0.07653 0.79525 0.0
C699 C 0.98551 0.09925 0.71026 0.0
C700 C 0.9981 0.11646 0.72673 0.0
C701 C 0.01212 0.11363 0.77795 0.0
C702 C 0.01371 0.09394 0.81215 0.0
C703 C 0.99719 0.13759 0.69061 0.0
C704 C 0.01429 0.14838 0.65194 0.0
C705 C 0.98026 0.14751 0.69729 0.0
C706 C 0.96181 0.13683 0.73765 0.0
C707 C 0.96258 0.12886 0.80825 0.0
C708 C 0.94512 0.11865 0.84574 0.0
C709 C 0.92677 0.11647 0.81328 0.0
C710 C 0.92584 0.12456 0.74331 0.0
C711 C 0.94327 0.13476 0.70557 0.0
H712 H 0.91326 0.10857 0.84238 0.0
H713 H 0.08057 0.20377 0.46061 0.0
H714 H 0.31167 0.08799 0.69827 0.0
H715 H 0.34156 0.07674 0.75371 0.0
H716 H 0.33313 0.0228 0.65477 0.0
H717 H 0.30309 0.03396 0.6011 0.0
H718 H 0.34325 0.01198 0.77843 0.0
H719 H 0.36836 0.06707 0.59701 0.0
H720 H 0.37328 0.10191 0.52748 0.0
H721 H 0.39673 0.12744 0.70237 0.0
H722 H 0.39182 0.09272 0.77298 0.0
H723 H 0.4469 0.99404 0.79739 0.0
H724 H 0.41259 0.99925 0.76723 0.0
H725 H 0.41485 0.04589 0.8972 0.0
H726 H 0.44891 0.0408 0.92767 0.0
H727 H 0.40784 0.0598 0.75995 0.0
H728 H 0.38287 1.00296 0.93988 0.0
H729 H 0.37986 0.96723 1.00193 0.0
H730 H 0.35795 0.9444 0.82047 0.0
H731 H 0.3611 0.98 0.75697 0.0
C732 C 0.31638 0.07378 0.68872 0.0
C733 C 0.30542 0.06181 0.64563 0.0
C734 C 0.33342 0.06741 0.71982 0.0
C735 C 0.33988 0.04914 0.70714 0.0
C736 C 0.32865 0.03708 0.66455 0.0
C737 C 0.31161 0.04344 0.63374 0.0
C738 C 0.35839 0.04263 0.73777 0.0
C739 C 0.35743 0.0224 0.77373 0.0
C740 C 0.37685 0.05628 0.73243 0.0
C741 C 0.37953 0.07727 0.69041 0.0
C742 C 0.37443 0.08012 0.6207 0.0
C743 C 0.37723 0.09985 0.5811 0.0
C744 C 0.38524 0.1169 0.61055 0.0
C745 C 0.39047 0.11423 0.67966 0.0
C746 C 0.38771 0.09451 0.71946 0.0
C747 C 0.43984 0.00493 0.82116 0.0
C748 C 0.45069 0.01723 0.86399 0.0
C749 C 0.42026 0.0079 0.80387 0.0
C750 C 0.41134 0.02309 0.82958 0.0
C751 C 0.42158 0.03421 0.87651 0.0
C752 C 0.44105 0.03125 0.8938 0.0
C753 C 0.39258 0.02933 0.801 0.0
C754 C 0.39359 0.0495 0.76498 0.0
C755 C 0.37433 0.01555 0.80534 0.0
C756 C 0.37241 0.99414 0.84348 0.0
C757 C 0.37758 0.99032 0.913 0.0
C758 C 0.37581 0.97009 0.94848 0.0
C759 C 0.36877 0.95356 0.91511 0.0
C760 C 0.36343 0.95722 0.84623 0.0
C761 C 0.36518 0.97742 0.81049 0.0
H762 H 0.36741 0.93791 0.94268 0.0
H763 H 0.38743 0.13217 0.57979 0.0
H764 H 0.51482 0.28923 0.50601 0.0
H765 H 0.52428 0.31804 0.56813 0.0
H766 H 0.57223 0.34329 0.41538 0.0
H767 H 0.56331 0.31385 0.35559 0.0
H768 H 0.58449 0.35031 0.53072 0.0
H769 H 0.52278 0.35562 0.41695 0.0
H770 H 0.48747 0.34684 0.3882 0.0
H771 H 0.46823 0.34951 0.59555 0.0
H772 H 0.50348 0.35823 0.62604 0.0
H773 H 0.58698 0.45615 0.58296 0.0
H774 H 0.5844 0.42392 0.53612 0.0
H775 H 0.54852 0.39195 0.71596 0.0
H776 H 0.55156 0.42377 0.76447 0.0
H777 H 0.53054 0.38913 0.58633 0.0
H778 H 0.59292 0.38094 0.69943 0.0
H779 H 0.62831 0.3921 0.72407 0.0
H780 H 0.64542 0.39662 0.5098 0.0
H781 H 0.61005 0.38576 0.48373 0.0
C782 C 0.52751 0.30088 0.48654 0.0
C783 C 0.53831 0.29963 0.42615 0.0
C784 C 0.53279 0.31739 0.52145 0.0
C785 C 0.5485 0.33326 0.49491 0.0
C786 C 0.55973 0.33156 0.43576 0.0
C787 C 0.55463 0.31487 0.40151 0.0
C788 C 0.55271 0.35201 0.52696 0.0
C789 C 0.57267 0.35887 0.54223 0.0
C790 C 0.53725 0.36314 0.54244 0.0
C791 C 0.51595 0.35768 0.52387 0.0
C792 C 0.51111 0.35443 0.45657 0.0
C793 C 0.49106 0.34939 0.43992 0.0
C794 C 0.47562 0.34763 0.48995 0.0
C795 C 0.48021 0.3509 0.55679 0.0
C796 C 0.50024 0.35592 0.57376 0.0
C797 C 0.57907 0.44213 0.61351 0.0
C798 C 0.56928 0.44254 0.677 0.0
C799 C 0.57752 0.42379 0.58651 0.0
C800 C 0.56615 0.40571 0.62264 0.0
C801 C 0.55724 0.40584 0.68745 0.0
C802 C 0.55894 0.42404 0.71479 0.0
C803 C 0.5621 0.38702 0.59071 0.0
C804 C 0.54221 0.38037 0.57496 0.0
C805 C 0.57756 0.37628 0.57384 0.0
C806 C 0.59882 0.38272 0.58955 0.0
C807 C 0.6042 0.38448 0.65747 0.0
C808 C 0.62426 0.39072 0.67172 0.0
C809 C 0.6391 0.39511 0.61851 0.0
C810 C 0.63391 0.39323 0.55096 0.0
C811 C 0.61386 0.38702 0.53643 0.0
H812 H 0.65462 0.39994 0.62964 0.0
H813 H 0.46011 0.34373 0.47694 0.0
H814 H 0.22611 0.48767 0.716 0.0
H815 H 0.19408 0.49444 0.76233 0.0
H816 H 0.2022 0.55399 0.6305 0.0
H817 H 0.23495 0.54753 0.58822 0.0
H818 H 0.18526 0.55758 0.74663 0.0
H819 H 0.17178 0.51085 0.5885 0.0
H820 H 0.17507 0.4801 0.53843 0.0
H821 H 0.14943 0.44122 0.72468 0.0
H822 H 0.14644 0.47201 0.7771 0.0
H823 H 0.07492 0.55636 0.75739 0.0
H824 H 0.1103 0.55856 0.71899 0.0
H825 H 0.11792 0.50976 0.88536 0.0
H826 H 0.08316 0.50762 0.92473 0.0
H827 H 0.12625 0.50327 0.74357 0.0
H828 H 0.14077 0.55225 0.90049 0.0
H829 H 0.13769 0.58433 0.94476 0.0
H830 H 0.15969 0.62004 0.74876 0.0
H831 H 0.16261 0.58813 0.70297 0.0
C832 C 0.22094 0.50218 0.69758 0.0
C833 C 0.23247 0.51692 0.6478 0.0
C834 C 0.2027 0.50607 0.72363 0.0
C835 C 0.1954 0.52453 0.69857 0.0
C836 C 0.20738 0.53959 0.65034 0.0
C837 C 0.2259 0.53586 0.62565 0.0
C838 C 0.1749 0.52761 0.72041 0.0
C839 C 0.17233 0.54581 0.74508 0.0
C840 C 0.15792 0.51232 0.71852 0.0
C841 C 0.15908 0.49374 0.68691 0.0
C842 C 0.16694 0.49576 0.61901 0.0
C843 C 0.16879 0.47827 0.59023 0.0
C844 C 0.16256 0.45861 0.62823 0.0
C845 C 0.15433 0.45644 0.69529 0.0
C846 C 0.15256 0.47393 0.72467 0.0
C847 C 0.08425 0.5464 0.78657 0.0
C848 C 0.07606 0.53163 0.84356 0.0
C849 C 0.10444 0.54771 0.76464 0.0
C850 C 0.11659 0.53424 0.7993 0.0
C851 C 0.10872 0.52024 0.85791 0.0
C852 C 0.08876 0.51904 0.88013 0.0
C853 C 0.13679 0.53292 0.77108 0.0
C854 C 0.13921 0.51505 0.74477 0.0
C855 C 0.15344 0.54864 0.77056 0.0
C856 C 0.15165 0.56779 0.79803 0.0
C857 C 0.14472 0.56693 0.86657 0.0
C858 C 0.14306 0.58508 0.89201 0.0
C859 C 0.14842 0.60421 0.84953 0.0
C860 C 0.1555 0.60522 0.78157 0.0
C861 C 0.15718 0.5871 0.75586 0.0
H862 H 0.14713 0.61825 0.86933 0.0
H863 H 0.16403 0.44508 0.60562 0.0
H864 H 0.00048 0.78906 0.13878 0.0
H865 H 0.00697 0.82622 0.09474 0.0
H866 H 0.05936 0.83221 0.2185 0.0
H867 H 0.05238 0.79499 0.26354 0.0
H868 H 0.03904 0.86285 0.22597 0.0
H869 H 0.06369 0.83344 0.04221 0.0
H870 H 0.0629 0.80991 0.95702 0.0
H871 H 0.01328 0.83535 0.86036 0.0
H872 H 0.01353 0.85877 0.94572 0.0
H873 H 0.0581 0.96869 0.04338 0.0
H874 H 0.06383 0.93341 0.08988 0.0
H875 H 0.0096 0.90889 0.99793 0.0
H876 H 0.0041 0.94346 0.95083 0.0
H877 H 0.03947 0.8886 0.97419 0.0
H878 H 0.01335 0.9156 0.16896 0.0
H879 H 0.01634 0.94058 0.24948 0.0
H880 H 0.07038 0.9195 0.32594 0.0
H881 H 0.06829 0.8951 0.24324 0.0
C882 C 0.01342 0.79842 0.15582 0.0
C883 C 0.02606 0.78945 0.20372 0.0
C884 C 0.01718 0.81955 0.13078 0.0
C885 C 0.0339 0.83197 0.15233 0.0
C886 C 0.04645 0.82294 0.20091 0.0
C887 C 0.04253 0.80179 0.22643 0.0
C888 C 0.03796 0.85437 0.1245 0.0
C889 C 0.0395 0.86851 0.17085 0.0
C890 C 0.03867 0.86179 0.05258 0.0
C891 C 0.03858 0.84781 1.0007 0.0
C892 C 0.05253 0.83393 1.00308 0.0
C893 C 0.05218 0.82061 0.95473 0.0
C894 C 0.03804 0.82112 0.90336 0.0
C895 C 0.02423 0.83497 0.90018 0.0
C896 C 0.02448 0.84829 0.94851 0.0
C897 C 0.04746 0.95572 0.03334 0.0
C898 C 0.0307 0.95888 0.99328 0.0
C899 C 0.05074 0.93561 0.05976 0.0
C900 C 0.03713 0.9185 0.04727 0.0
C901 C 0.02042 0.92179 0.00768 0.0
C902 C 0.01727 0.94166 0.98094 0.0
C903 C 0.03956 0.89696 0.07562 0.0
C904 C 0.03936 0.88295 0.02927 0.0
C905 C 0.04018 0.88973 0.14736 0.0
C906 C 0.04087 0.90378 0.19899 0.0
C907 C 0.02601 0.91644 0.20233 0.0
C908 C 0.0276 0.93058 0.24812 0.0
C909 C 0.04359 0.9317 0.29258 0.0
C910 C 0.05805 0.91868 0.29125 0.0
C911 C 0.05674 0.9048 0.24459 0.0
H912 H 0.04471 0.94255 0.32836 0.0
H913 H 0.03779 0.8108 0.86596 0.0
H914 H 0.74185 0.01097 0.01529 0.0
H915 H 0.71313 0.02272 0.9546 0.0
H916 H 0.67539 0.96632 0.0471 0.0
H917 H 0.70439 0.95434 0.1063 0.0
H918 H 0.66366 0.97731 0.92481 0.0
H919 H 0.68054 0.01262 0.11659 0.0
H920 H 0.70162 0.03454 0.18592 0.0
H921 H 0.70834 0.0849 0.01616 0.0
H922 H 0.6873 0.06334 0.94565 0.0
H923 H 0.57961 0.04188 0.97485 0.0
H924 H 0.61315 0.03387 1.00131 0.0
H925 H 0.62087 0.02062 0.795 0.0
H926 H 0.58648 0.02686 0.77096 0.0
H927 H 0.64897 0.04534 0.96633 0.0
H928 H 0.64944 0.98338 0.79287 0.0
H929 H 0.62532 0.96067 0.73504 0.0
H930 H 0.57985 0.96004 0.89179 0.0
H931 H 0.6038 0.98247 0.95122 0.0
C932 C 0.72746 1.00098 0.02144 0.0
C933 C 0.72512 0.98186 0.06546 0.0
C934 C 0.71105 0.00775 0.98743 0.0
C935 C 0.69193 0.99571 0.99832 0.0
C936 C 0.68986 0.97608 0.03941 0.0
C937 C 0.70634 0.96924 0.07313 0.0
C938 C 0.6739 1.00408 0.97088 0.0
C939 C 0.66048 0.99222 0.93365 0.0
C940 C 0.66959 0.02343 0.98319 0.0
C941 C 0.6824 0.03631 0.02565 0.0
C942 C 0.68651 0.02834 0.09394 0.0
C943 C 0.69846 0.0407 0.13347 0.0
C944 C 0.70634 0.06105 0.10541 0.0
C945 C 0.70224 0.06912 0.03781 0.0
C946 C 0.69027 0.05686 0.99808 0.0
C947 C 0.58869 0.03771 0.93477 0.0
C948 C 0.58062 0.03492 0.87107 0.0
C949 C 0.60785 0.03307 0.94987 0.0
C950 C 0.61941 0.02608 0.9008 0.0
C951 C 0.61201 0.02526 0.83459 0.0
C952 C 0.59251 0.02911 0.82046 0.0
C953 C 0.63848 0.01845 0.9212 0.0
C954 C 0.65219 0.03049 0.95692 0.0
C955 C 0.64265 0.99894 0.90973 0.0
C956 C 0.62834 0.9848 0.87599 0.0
C957 C 0.63433 0.97829 0.81521 0.0
C958 C 0.62069 0.96549 0.78213 0.0
C959 C 0.60105 0.959 0.80954 0.0
C960 C 0.59505 0.96514 0.87049 0.0
C961 C 0.60866 0.97788 0.90394 0.0
H962 H 0.59049 0.94916 0.7837 0.0
H963 H 0.71561 0.07057 0.13611 0.0
H964 H 0.52173 0.73682 0.40591 0.0
H965 H 0.51292 0.70265 0.37306 0.0
H966 H 0.45847 0.72075 0.28537 0.0
H967 H 0.46683 0.75441 0.322 0.0
H968 H 0.45056 0.68331 0.35404 0.0
H969 H 0.50079 0.7194 0.18392 0.0
H970 H 0.53363 0.73957 0.14093 0.0
H971 H 0.56372 0.69043 0.23742 0.0
H972 H 0.53105 0.67007 0.28182 0.0
H973 H 0.43593 0.61182 0.11217 0.0
H974 H 0.44139 0.64218 0.16981 0.0
H975 H 0.48573 0.61516 0.29546 0.0
H976 H 0.48019 0.58474 0.23879 0.0
H977 H 0.49876 0.65568 0.21364 0.0
H978 H 0.44617 0.61876 0.37538 0.0
H979 H 0.41239 0.59955 0.41092 0.0
H980 H 0.38555 0.6516 0.31886 0.0
H981 H 0.41918 0.67101 0.28172 0.0
C982 C 0.5079 0.73334 0.37977 0.0
C983 C 0.49496 0.74806 0.36587 0.0
C984 C 0.50291 0.71395 0.36074 0.0
C985 C 0.48515 0.70926 0.32597 0.0
C986 C 0.47224 0.72405 0.3121 0.0
C987 C 0.4771 0.74329 0.33211 0.0
C988 C 0.48005 0.689 0.30347 0.0
C989 C 0.46103 0.67736 0.32276 0.0
C990 C 0.49383 0.68112 0.26354 0.0
C991 C 0.51349 0.6933 0.23681 0.0
C992 C 0.51442 0.71296 0.19643 0.0
C993 C 0.533 0.72442 0.17173 0.0
C994 C 0.55076 0.71631 0.1866 0.0
C995 C 0.54996 0.6967 0.22605 0.0
C996 C 0.53141 0.68519 0.25096 0.0
C997 C 0.44652 0.61225 0.15306 0.0
C998 C 0.45762 0.59602 0.17127 0.0
C999 C 0.44958 0.62949 0.18597 0.0
C1000 C 0.46393 0.63077 0.23673 0.0
C1001 C 0.47453 0.6143 0.25656 0.0
C1002 C 0.47127 0.59695 0.22448 0.0
C1003 C 0.46932 0.65012 0.26406 0.0
C1004 C 0.48839 0.6616 0.24539 0.0
C1005 C 0.45545 0.658 0.30332 0.0
C1006 C 0.4352 0.64628 0.32518 0.0
C1007 C 0.43307 0.62604 0.36205 0.0
C1008 C 0.41394 0.61512 0.38265 0.0
C1009 C 0.39684 0.62434 0.36707 0.0
C1010 C 0.39882 0.64448 0.33085 0.0
C1011 C 0.41791 0.65545 0.31005 0.0
H1012 H 0.38204 0.61592 0.38319 0.0
H1013 H 0.56513 0.7252 0.16742 0.0
H1014 H 0.78319 0.51002 0.08867 0.0
H1015 H 0.81458 0.49959 0.05155 0.0
H1016 H 0.8467 0.55952 0.06968 0.0
H1017 H 0.8151 0.57021 0.10373 0.0
H1018 H 0.86 0.54818 0.95904 0.0
H1019 H 0.84724 0.51666 0.19646 0.0
H1020 H 0.82759 0.4952 0.29658 0.0
H1021 H 0.82495 0.44205 0.19706 0.0
H1022 H 0.84444 0.46318 0.09605 0.0
H1023 H 0.95348 0.49784 0.0616 0.0
H1024 H 0.91888 0.50143 0.09209 0.0
H1025 H 0.90431 0.50629 0.87723 0.0
H1026 H 0.93921 0.50407 0.84645 0.0
H1027 H 0.88196 0.48491 0.08574 0.0
H1028 H 0.87471 0.5411 0.83412 0.0
H1029 H 0.89677 0.56422 0.74308 0.0
H1030 H 0.943 0.57247 0.88881 0.0
H1031 H 0.92119 0.54946 0.98056 0.0
C1032 C 0.79694 0.52101 0.08345 0.0
C1033 C 0.79685 0.5409 0.09859 0.0
C1034 C 0.81487 0.51501 0.06308 0.0
C1035 C 0.83306 0.52871 0.05878 0.0
C1036 C 0.83286 0.54872 0.0728 0.0
C1037 C 0.8149 0.55477 0.09251 0.0
C1038 C 0.85239 0.52216 0.0409 0.0
C1039 C 0.86474 0.5343 0.98662 0.0
C1040 C 0.8588 0.50425 0.07759 0.0
C1041 C 0.84715 0.49153 0.13842 0.0
C1042 C 0.84236 0.50042 0.19572 0.0
C1043 C 0.83126 0.48833 0.25264 0.0
C1044 C 0.82496 0.46732 0.25304 0.0
C1045 C 0.82981 0.45834 0.19662 0.0
C1046 C 0.84091 0.47035 0.13957 0.0
C1047 C 0.94271 0.49912 0.02128 0.0
C1048 C 0.94892 0.50084 0.95177 0.0
C1049 C 0.92296 0.50123 0.03863 0.0
C1050 C 0.90913 0.50474 0.98672 0.0
C1051 C 0.91487 0.50426 0.91795 0.0
C1052 C 0.93472 0.50278 0.90044 0.0
C1053 C 0.88949 0.51086 0.00367 0.0
C1054 C 0.87711 0.49868 0.05779 0.0
C1055 C 0.88334 0.52911 0.96831 0.0
C1056 C 0.89634 0.5435 0.91403 0.0
C1057 C 0.88953 0.54797 0.84674 0.0
C1058 C 0.902 0.56101 0.79501 0.0
C1059 C 0.92126 0.56982 0.81019 0.0
C1060 C 0.92809 0.56563 0.87711 0.0
C1061 C 0.91568 0.55258 0.92896 0.0
H1062 H 0.9309 0.5799 0.77011 0.0
H1063 H 0.81637 0.458 0.29716 0.0
H1064 H 0.04494 0.26498 0.441 0.0
H1065 H 0.04843 0.23884 0.36798 0.0
H1066 H 0.98475 0.23245 0.3343 0.0
H1067 H 0.98161 0.25925 0.405 0.0
H1068 H 0.99756 0.19512 0.38476 0.0
H1069 H 0.01716 0.2521 0.20168 0.0
H1070 H 0.03691 0.28515 0.14658 0.0
H1071 H 0.09133 0.25857 0.16959 0.0
H1072 H 0.07193 0.22542 0.22577 0.0
H1073 H 0.99622 0.11957 0.16684 0.0
H1074 H 0.99261 0.15014 0.21754 0.0
H1075 H 0.05717 0.16585 0.21685 0.0
H1076 H 0.06088 0.13578 0.16383 0.0
H1077 H 0.04294 0.19949 0.17966 0.0
H1078 H 0.02788 0.14542 0.36969 0.0
H1079 H 0.01191 0.11281 0.44071 0.0
H1080 H 0.95429 0.13327 0.4236 0.0
H1081 H 0.9699 0.16593 0.35172 0.0
C1082 C 0.03192 0.25854 0.41555 0.0
C1083 C 0.01308 0.2643 0.42752 0.0
C1084 C 0.03383 0.24345 0.37444 0.0
C1085 C 0.01682 0.23348 0.34569 0.0
C1086 C 0.99811 0.23984 0.35571 0.0
C1087 C 0.99632 0.25525 0.39554 0.0
C1088 C 0.01825 0.21535 0.31038 0.0
C1089 C 0.00726 0.19612 0.33926 0.0
C1090 C 0.03142 0.21644 0.25245 0.0
C1091 C 0.0431 0.23632 0.21844 0.0
C1092 C 0.03336 0.25334 0.1955 0.0
C1093 C 0.04448 0.27209 0.16397 0.0
C1094 C 0.06536 0.27397 0.15472 0.0
C1095 C 0.07515 0.25709 0.17684 0.0
C1096 C 0.0641 0.23831 0.20845 0.0
C1097 C 0.00969 0.1296 0.17673 0.0
C1098 C 0.02887 0.12496 0.16112 0.0
C1099 C 0.00759 0.14704 0.20671 0.0
C1100 C 0.0246 0.16037 0.22231 0.0
C1101 C 0.04374 0.15593 0.20584 0.0
C1102 C 0.04585 0.13851 0.17591 0.0
C1103 C 0.02246 0.17901 0.25475 0.0
C1104 C 0.03324 0.19837 0.2252 0.0
C1105 C 0.00966 0.17794 0.31387 0.0
C1106 C 1e-05 0.15797 0.3543 0.0
C1107 C 0.01176 0.14284 0.38017 0.0
C1108 C 0.00278 0.12439 0.42086 0.0
C1109 C 0.98208 0.12093 0.43641 0.0
C1110 C 0.97031 0.13594 0.4113 0.0
C1111 C 0.97921 0.15442 0.37057 0.0
H1112 H 0.97518 0.10666 0.46812 0.0
H1113 H 0.07395 0.2885 0.13029 0.0
H1114 H 0.28597 0.0458 0.45262 0.0
H1115 H 0.31364 0.04734 0.36752 0.0
H1116 H 0.34561 0.10026 0.44111 0.0
H1117 H 0.31795 0.09855 0.52641 0.0
H1118 H 0.3459 0.10464 0.29521 0.0
H1119 H 0.36896 0.05764 0.48504 0.0
H1120 H 0.36416 0.02804 0.58089 0.0
H1121 H 0.33743 0.98864 0.44332 0.0
H1122 H 0.34266 0.018 0.34649 0.0
H1123 H 0.44628 0.10281 0.17217 0.0
H1124 H 0.41579 0.10311 0.2413 0.0
H1125 H 0.38649 0.04985 0.16307 0.0
H1126 H 0.41663 0.0498 0.09195 0.0
H1127 H 0.38373 0.04559 0.307 0.0
H1128 H 0.37208 0.09458 0.10945 0.0
H1129 H 0.38066 0.1256 0.02057 0.0
H1130 H 0.38721 0.16364 0.17823 0.0
H1131 H 0.37895 0.1328 0.26819 0.0
C1132 C 0.2988 0.05789 0.44959 0.0
C1133 C 0.29985 0.07226 0.49487 0.0
C1134 C 0.31464 0.05867 0.40168 0.0
C1135 C 0.33171 0.07388 0.39826 0.0
C1136 C 0.33259 0.08844 0.44287 0.0
C1137 C 0.31686 0.08749 0.49129 0.0
C1138 C 0.34877 0.07436 0.3489 0.0
C1139 C 0.35428 0.09182 0.29792 0.0
C1140 C 0.35951 0.05756 0.35188 0.0
C1141 C 0.35596 0.03994 0.40927 0.0
C1142 C 0.36194 0.04265 0.47572 0.0
C1143 C 0.35923 0.02594 0.52998 0.0
C1144 C 0.35028 0.00651 0.5184 0.0
C1145 C 0.34428 1.00372 0.45228 0.0
C1146 C 0.34725 0.02035 0.3976 0.0
C1147 C 0.43324 0.0914 0.16847 0.0
C1148 C 0.43401 0.07622 0.12662 0.0
C1149 C 0.41584 0.09155 0.20828 0.0
C1150 C 0.39888 0.07652 0.20719 0.0
C1151 C 0.39946 0.06153 0.16485 0.0
C1152 C 0.41676 0.06147 0.12457 0.0
C1153 C 0.38089 0.07585 0.2527 0.0
C1154 C 0.37522 0.05835 0.30332 0.0
C1155 C 0.37019 0.09276 0.24956 0.0
C1156 C 0.37507 0.11135 0.1956 0.0
C1157 C 0.37551 0.10954 0.12522 0.0
C1158 C 0.38029 0.1271 0.07463 0.0
C1159 C 0.38453 0.14657 0.09375 0.0
C1160 C 0.38394 0.14854 0.1635 0.0
C1161 C 0.37919 0.13103 0.21432 0.0
H1162 H 0.38822 0.16015 0.0545 0.0
H1163 H 0.34809 0.9936 0.56057 0.0
H1164 H 0.54806 0.29889 0.19871 0.0
H1165 H 0.54756 0.33288 0.12764 0.0
H1166 H 0.50626 0.34698 0.27702 0.0
H1167 H 0.50644 0.31296 0.34682 0.0
H1168 H 0.51999 0.35093 0.06178 0.0
H1169 H 0.51476 0.39807 0.28979 0.0
H1170 H 0.53161 0.40402 0.39703 0.0
H1171 H 0.58087 0.37539 0.33788 0.0
H1172 H 0.56425 0.36902 0.23089 0.0
H1173 H 0.48986 0.45999 0.04328 0.0
H1174 H 0.49336 0.42528 0.10044 0.0
H1175 H 0.54356 0.42476 0.96172 0.0
H1176 H 0.54032 0.4597 0.9044 0.0
H1177 H 0.5287 0.41462 0.16576 0.0
H1178 H 0.54119 0.37017 0.94672 0.0
H1179 H 0.53407 0.37083 0.8238 0.0
H1180 H 0.48158 0.39888 0.85071 0.0
H1181 H 0.48801 0.39777 0.97441 0.0
C1182 C 0.53862 0.30914 0.21549 0.0
C1183 C 0.52722 0.30325 0.27809 0.0
C1184 C 0.53848 0.32865 0.17531 0.0
C1185 C 0.52714 0.34277 0.19737 0.0
C1186 C 0.51549 0.33666 0.25941 0.0
C1187 C 0.51548 0.31715 0.29906 0.0
C1188 C 0.52671 0.36353 0.15474 0.0
C1189 C 0.52216 0.36486 0.08455 0.0
C1190 C 0.52962 0.3819 0.18368 0.0
C1191 C 0.53808 0.3828 0.25267 0.0
C1192 C 0.52903 0.39274 0.30022 0.0
C1193 C 0.5386 0.39629 0.36079 0.0
C1194 C 0.55724 0.38997 0.37444 0.0
C1195 C 0.56627 0.37996 0.32781 0.0
C1196 C 0.55671 0.37623 0.26741 0.0
C1197 C 0.50153 0.45247 0.02429 0.0
C1198 C 0.51482 0.46271 0.96924 0.0
C1199 C 0.50354 0.43261 0.05722 0.0
C1200 C 0.51865 0.42235 0.03529 0.0
C1201 C 0.53167 0.43228 0.97921 0.0
C1202 C 0.52983 0.4523 0.94666 0.0
C1203 C 0.52139 0.40181 0.07417 0.0
C1204 C 0.52641 0.40058 0.14356 0.0
C1205 C 0.5197 0.38377 0.0437 0.0
C1206 C 0.51528 0.38415 0.96973 0.0
C1207 C 0.52808 0.37641 0.92651 0.0
C1208 C 0.52416 0.37687 0.85663 0.0
C1209 C 0.50749 0.38508 0.82922 0.0
C1210 C 0.49457 0.39265 0.87188 0.0
C1211 C 0.49834 0.39209 0.94195 0.0
H1212 H 0.50454 0.3855 0.77501 0.0
H1213 H 0.56474 0.39294 0.42094 0.0
H1214 H 0.24076 0.46506 0.54225 0.0
H1215 H 0.21386 0.4542 0.46657 0.0
H1216 H 0.20252 0.51705 0.41849 0.0
H1217 H 0.23003 0.52787 0.49085 0.0
H1218 H 0.17545 0.45392 0.47093 0.0
H1219 H 0.18606 0.52829 0.26061 0.0
H1220 H 0.21389 0.55404 0.20241 0.0
H1221 H 0.25499 0.51051 0.24784 0.0
H1222 H 0.22737 0.48439 0.30537 0.0
H1223 H 0.08579 0.47275 0.30476 0.0
H1224 H 0.11732 0.47511 0.36539 0.0
H1225 H 0.14794 0.45977 0.19051 0.0
H1226 H 0.1165 0.45777 0.12896 0.0
H1227 H 0.16883 0.49283 0.23662 0.0
H1228 H 0.13918 0.42375 0.33626 0.0
H1229 H 0.11177 0.39706 0.39246 0.0
H1230 H 0.10967 0.42917 0.56474 0.0
H1231 H 0.13682 0.4562 0.5089 0.0
C1232 C 0.23257 0.47648 0.51472 0.0
C1233 C 0.23727 0.49725 0.52246 0.0
C1234 C 0.2172 0.4703 0.47181 0.0
C1235 C 0.20633 0.48484 0.4357 0.0
C1236 C 0.21095 0.50558 0.44432 0.0
C1237 C 0.2264 0.51174 0.48668 0.0
C1238 C 0.18957 0.47839 0.39138 0.0
C1239 C 0.17404 0.46256 0.4199 0.0
C1240 C 0.18798 0.48889 0.32332 0.0
C1241 C 0.20464 0.50442 0.28773 0.0
C1242 C 0.201 0.52416 0.2578 0.0
C1243 C 0.21675 0.53883 0.22501 0.0
C1244 C 0.2362 0.53393 0.22156 0.0
C1245 C 0.23993 0.51431 0.25071 0.0
C1246 C 0.22424 0.49957 0.28349 0.0
C1247 C 0.09923 0.46985 0.27926 0.0
C1248 C 0.09865 0.46506 0.21208 0.0
C1249 C 0.1172 0.47104 0.31416 0.0
C1250 C 0.13495 0.46745 0.28267 0.0
C1251 C 0.1344 0.46252 0.21583 0.0
C1252 C 0.1164 0.46123 0.18098 0.0
C1253 C 0.15419 0.46966 0.31875 0.0
C1254 C 0.17028 0.48442 0.28801 0.0
C1255 C 0.1563 0.45823 0.38481 0.0
C1256 C 0.14009 0.44192 0.41863 0.0
C1257 C 0.13283 0.42512 0.38606 0.0
C1258 C 0.11733 0.40995 0.4178 0.0
C1259 C 0.109 0.41139 0.48218 0.0
C1260 C 0.11617 0.42802 0.51498 0.0
C1261 C 0.13165 0.44323 0.48342 0.0
H1262 H 0.09699 0.39965 0.50663 0.0
H1263 H 0.24837 0.54532 0.19622 0.0
H1264 H 0.04059 0.77187 0.39185 0.0
H1265 H 0.03738 0.79886 0.46148 0.0
H1266 H 0.9787 0.8044 0.38127 0.0
H1267 H 0.98252 0.77798 0.30991 0.0
H1268 H 0.99757 0.84068 0.37622 0.0
H1269 H 0.9877 0.78198 0.5567 0.0
H1270 H 0.99562 0.75025 0.62767 0.0
H1271 H 0.05031 0.78381 0.6874 0.0
H1272 H 0.04287 0.81569 0.61594 0.0
H1273 H 0.96867 0.90558 0.60196 0.0
H1274 H 0.97077 0.87538 0.54784 0.0
H1275 H 0.0322 0.87595 0.60763 0.0
H1276 H 0.02999 0.90573 0.66452 0.0
H1277 H 0.01232 0.83671 0.62425 0.0
H1278 H 0.01873 0.89671 0.44799 0.0
H1279 H 0.00698 0.92784 0.38694 0.0
H1280 H 0.95594 0.89059 0.31869 0.0
H1281 H 0.96653 0.85929 0.38367 0.0
C1282 C 0.0268 0.77848 0.39101 0.0
C1283 C 0.01156 0.77251 0.34714 0.0
C1284 C 0.02495 0.79399 0.43059 0.0
C1285 C 0.00764 0.80372 0.42783 0.0
C1286 C 0.9922 0.79727 0.38491 0.0
C1287 C 0.9942 0.78196 0.34484 0.0
C1288 C 0.00601 0.82126 0.46655 0.0
C1289 C 0.00049 0.8396 0.43076 0.0
C1290 C 0.01028 0.82033 0.53751 0.0
C1291 C 0.01483 0.80118 0.58035 0.0
C1292 C 0.0015 0.78256 0.5845 0.0
C1293 C 0.00589 0.76455 0.62489 0.0
C1294 C 0.02349 0.765 0.66186 0.0
C1295 C 0.03671 0.78347 0.65863 0.0
C1296 C 0.03241 0.80152 0.61822 0.0
C1297 C 0.98257 0.89917 0.60482 0.0
C1298 C -0.00082 0.90838 0.63776 0.0
C1299 C 0.98381 0.88191 0.57307 0.0
C1300 C 0.00175 0.87342 0.57244 0.0
C1301 C 0.01819 0.88218 0.60683 0.0
C1302 C 0.01696 0.89943 0.63883 0.0
C1303 C 0.00359 0.8559 0.53412 0.0
C1304 C 0.00931 0.83768 0.56979 0.0
C1305 C -0.0008 0.85683 0.46326 0.0
C1306 C 0.99331 0.87561 0.42166 0.0
C1307 C 0.00486 0.89513 0.42075 0.0
C1308 C 0.99834 0.91283 0.38568 0.0
C1309 C 0.98078 0.91119 0.34867 0.0
C1310 C 0.96955 0.89184 0.34736 0.0
C1311 C 0.9757 0.87412 0.38389 0.0
H1312 H 0.97589 0.92492 0.32097 0.0
H1313 H 0.02685 0.75105 0.69313 0.0
H1314 H 0.72683 0.94042 0.27366 0.0
H1315 H 0.69794 0.93928 0.35335 0.0
H1316 H 0.69089 1.00087 0.25845 0.0
H1317 H 0.71992 1.00202 0.17954 0.0
H1318 H 0.69205 0.9621 0.44962 0.0
H1319 H 0.64372 0.00701 0.25959 0.0
H1320 H 0.63437 0.01108 0.13747 0.0
H1321 H 0.64693 0.95026 0.12606 0.0
H1322 H 0.65684 0.94607 0.24734 0.0
H1323 H 0.61432 0.99363 0.63809 0.0
H1324 H 0.64236 0.99254 0.55898 0.0
H1325 H 0.60483 0.94809 0.46089 0.0
H1326 H 0.57641 0.94985 0.53759 0.0
H1327 H 0.62551 0.97652 0.36645 0.0
H1328 H 0.64128 0.93403 0.57516 0.0
H1329 H 0.64663 0.92689 0.70022 0.0
H1330 H 0.69575 0.97704 0.67741 0.0
H1331 H 0.69055 0.98464 0.55228 0.0
C1332 C 0.71909 0.95368 0.27033 0.0
C1333 C 0.72539 0.97124 0.2205 0.0
C1334 C 0.7026 0.95304 0.31552 0.0
C1335 C 0.69207 0.96991 0.31129 0.0
C1336 C 0.69853 0.98754 0.26177 0.0
C1337 C 0.71507 0.98822 0.2169 0.0
C1338 C 0.67472 0.96933 0.35994 0.0
C1339 C 0.6775 0.96521 0.43138 0.0
C1340 C 0.65566 0.97329 0.33648 0.0
C1341 C 0.65116 0.97631 0.26223 0.0
C1342 C 0.64464 0.9946 0.23072 0.0
C1343 C 0.63927 0.99693 0.16167 0.0
C1344 C 0.64014 0.98098 0.12393 0.0
C1345 C 0.64649 0.96271 0.15507 0.0
C1346 C 0.65214 0.9604 0.22376 0.0
C1347 C 0.61196 0.98372 0.5994 0.0
C1348 C 0.59305 0.97184 0.5943 0.0
C1349 C 0.6281 0.98295 0.55463 0.0
C1350 C 0.62579 0.97008 0.50432 0.0
C1351 C 0.607 0.95811 0.49935 0.0
C1352 C 0.59081 0.95896 0.54385 0.0
C1353 C 0.64285 0.96935 0.45604 0.0
C1354 C 0.64006 0.97338 0.38472 0.0
C1355 C 0.66178 0.96502 0.4797 0.0
C1356 C 0.66544 0.95998 0.55443 0.0
C1357 C 0.6532 0.94355 0.59684 0.0
C1358 C 0.65621 0.93943 0.66773 0.0
C1359 C 0.67149 0.95153 0.69676 0.0
C1360 C 0.68391 0.96769 0.65486 0.0
C1361 C 0.68097 0.97189 0.58392 0.0
H1362 H 0.67372 0.94838 0.75171 0.0
H1363 H 0.63582 0.98273 0.07071 0.0
H1364 H 0.47305 0.73884 0.49212 0.0
H1365 H 0.47555 0.70693 0.56992 0.0
H1366 H 0.53416 0.73352 0.62748 0.0
H1367 H 0.53232 0.76479 0.54346 0.0
H1368 H 0.53774 0.69871 0.61003 0.0
H1369 H 0.48815 0.72054 0.74181 0.0
H1370 H 0.45698 0.73385 0.76685 0.0
H1371 H 0.42167 0.68098 0.70564 0.0
H1372 H 0.45263 0.66747 0.67933 0.0
H1373 H 0.49953 0.59966 0.8922 0.0
H1374 H 0.49875 0.63593 0.84444 0.0
H1375 H 0.52498 0.62698 0.65144 0.0
H1376 H 0.52717 0.59133 0.70101 0.0
H1377 H 0.4811 0.65538 0.75437 0.0
H1378 H 0.54993 0.66889 0.55832 0.0
H1379 H 0.58324 0.65792 0.55028 0.0
H1380 H 0.58414 0.6447 0.77156 0.0
H1381 H 0.55097 0.65585 0.78098 0.0
C1382 C 0.48635 0.73791 0.52211 0.0
C1383 C 0.50258 0.75417 0.51128 0.0
C1384 C 0.48772 0.71969 0.56742 0.0
C1385 C 0.50499 0.7176 0.60584 0.0
C1386 C 0.52068 0.73451 0.59847 0.0
C1387 C 0.51954 0.75255 0.55131 0.0
C1388 C 0.50728 0.69728 0.64871 0.0
C1389 C 0.52536 0.68938 0.64208 0.0
C1390 C 0.49145 0.68504 0.69231 0.0
C1391 C 0.47274 0.69306 0.7082 0.0
C1392 C 0.47375 0.71181 0.73329 0.0
C1393 C 0.45611 0.71938 0.74776 0.0
C1394 C 0.43736 0.70829 0.73774 0.0
C1395 C 0.43621 0.68956 0.71337 0.0
C1396 C 0.4538 0.68192 0.69877 0.0
C1397 C 0.50533 0.60557 0.83983 0.0
C1398 C 0.51366 0.59275 0.80064 0.0
C1399 C 0.50481 0.62632 0.81233 0.0
C1400 C 0.5122 0.63459 0.74445 0.0
C1401 C 0.5199 0.62145 0.7047 0.0
C1402 C 0.521 0.60094 0.7329 0.0
C1403 C 0.5114 0.6567 0.71449 0.0
C1404 C 0.49358 0.66486 0.72323 0.0
C1405 C 0.52781 0.66957 0.6755 0.0
C1406 C 0.54788 0.66306 0.67029 0.0
C1407 C 0.55728 0.66375 0.60527 0.0
C1408 C 0.57613 0.65747 0.60047 0.0
C1409 C 0.58577 0.65057 0.66037 0.0
C1410 C 0.57662 0.64999 0.72521 0.0
C1411 C 0.55779 0.65627 0.7303 0.0
H1412 H 0.60035 0.6457 0.65654 0.0
H1413 H 0.42372 0.71418 0.74896 0.0
H1414 H 0.79079 0.58878 0.2296 0.0
H1415 H 0.81808 0.5931 0.31033 0.0
H1416 H 0.82359 0.52877 0.32476 0.0
H1417 H 0.796 0.52442 0.24555 0.0
H1418 H 0.8256 0.54007 0.44954 0.0
H1419 H 0.85634 0.5673 0.22128 0.0
H1420 H 0.86081 0.59047 0.10854 0.0
H1421 H 0.86972 0.64319 0.21092 0.0
H1422 H 0.86525 0.62041 0.32429 0.0
H1423 H 0.9228 0.53469 0.57073 0.0
H1424 H 0.89329 0.53479 0.50024 0.0
H1425 H 0.89336 0.59909 0.51023 0.0
H1426 H 0.92282 0.59905 0.58215 0.0
H1427 H 0.88736 0.59061 0.37888 0.0
H1428 H 0.85945 0.56434 0.60546 0.0
H1429 H 0.85621 0.54204 0.7195 0.0
H1430 H 0.84159 0.48851 0.62309 0.0
H1431 H 0.84505 0.51049 0.50822 0.0
C1432 C 0.79769 0.57557 0.25106 0.0
C1433 C 0.79139 0.55628 0.23184 0.0
C1434 C 0.81338 0.57806 0.29645 0.0
C1435 C 0.82307 0.56129 0.32295 0.0
C1436 C 0.81639 0.54191 0.30484 0.0
C1437 C 0.80072 0.53943 0.25962 0.0
C1438 C 0.84029 0.5638 0.36902 0.0
C1439 C 0.83916 0.551 0.43378 0.0
C1440 C 0.85777 0.57852 0.34953 0.0
C1441 C 0.86025 0.59216 0.28128 0.0
C1442 C 0.85909 0.58383 0.21977 0.0
C1443 C 0.86165 0.59688 0.15578 0.0
C1444 C 0.86543 0.61825 0.15261 0.0
C1445 C 0.86674 0.62664 0.21345 0.0
C1446 C 0.86424 0.61367 0.27757 0.0
C1447 C 0.91644 0.54882 0.55875 0.0
C1448 C 0.92513 0.56683 0.58267 0.0
C1449 C 0.89959 0.54886 0.51815 0.0
C1450 C 0.89097 0.56688 0.5006 0.0
C1451 C 0.89977 0.58501 0.5232 0.0
C1452 C 0.91664 0.58497 0.5641 0.0
C1453 C 0.87277 0.56661 0.45861 0.0
C1454 C 0.87371 0.57981 0.3948 0.0
C1455 C 0.85506 0.55236 0.4791 0.0
C1456 C 0.85267 0.53907 0.54813 0.0
C1457 C 0.85568 0.5478 0.6085 0.0
C1458 C 0.8538 0.53522 0.67332 0.0
C1459 C 0.84875 0.51386 0.67855 0.0
C1460 C 0.84552 0.50506 0.61895 0.0
C1461 C 0.84741 0.51758 0.55395 0.0
H1462 H 0.84731 0.50414 0.7288 0.0
H1463 H 0.86742 0.62831 0.103 0.0
loop_
_geom_bond_atom_site_label_1
_geom_bond_atom_site_label_2
_geom_bond_distance
_geom_bond_site_symmetry_2
_ccdc_geom_bond_type
C0 N1 1.317 . S
C0 N2 1.348 1_554 S
C0 C3 1.485 . S
N1 C0 1.317 . S
N1 N5 1.370 1_554 S
N2 C0 1.348 1_556 S
N2 C4 1.346 . S
C3 C0 1.485 . S
C3 H7 0.960 . S
C3 H8 0.961 . S
C3 H9 0.960 . S
C4 N2 1.346 . S
C4 N5 1.307 . S
C4 C6 1.486 . S
N5 N1 1.370 1_556 S
N5 C4 1.307 . S
C6 C4 1.486 . S
C6 H10 0.960 . S
C6 H11 0.960 . S
C6 H12 0.959 . S
H7 C3 0.960 . S
H8 C3 0.961 . S
H9 C3 0.960 . S
H10 C6 0.960 . S
H11 C6 0.960 . S
H12 C6 0.959 . S
C13 N14 1.317 . S
C13 N15 1.348 . S
C13 C16 1.485 . S
N14 C13 1.317 . S
N14 N18 1.370 . S
N15 C13 1.348 . S
N15 C17 1.342 . S
C16 C13 1.485 . S
C16 H20 0.960 1_655 S
C16 H21 0.961 . S
C16 H22 0.960 . S
C17 N15 1.342 . S
C17 N18 1.316 . S
C17 C19 1.486 1_554 S
N18 N14 1.370 . S
N18 C17 1.316 . S
C19 C17 1.486 1_556 S
C19 H23 0.971 . S
C19 H24 0.949 1_655 S
C19 H25 0.958 1_655 S
H20 C16 0.960 1_455 S
H21 C16 0.961 . S
H22 C16 0.960 . S
H23 C19 0.971 . S
H24 C19 0.949 1_455 S
H25 C19 0.958 1_455 S
C26 N27 1.317 . S
C26 N28 1.348 . S
C26 C29 1.485 . S
N27 C26 1.317 . S
N27 N31 1.370 . S
N28 C26 1.348 . S
N28 C30 1.346 . S
C29 C26 1.485 . S
C29 H33 0.960 . S
C29 H34 0.961 . S
C29 H35 0.960 . S
C30 N28 1.346 . S
C30 N31 1.307 . S
C30 C32 1.486 1_554 S
N31 N27 1.370 . S
N31 C30 1.307 . S
C32 C30 1.486 1_556 S
C32 H36 0.960 . S
C32 H37 0.960 . S
C32 H38 0.959 . S
H33 C29 0.960 . S
H34 C29 0.961 . S
H35 C29 0.960 . S
H36 C32 0.960 . S
H37 C32 0.960 . S
H38 C32 0.959 . S
C39 N40 1.317 . S
C39 N41 1.348 . S
C39 C42 1.485 . S
N40 C39 1.317 . S
N40 N44 1.370 . S
N41 C39 1.348 . S
N41 C43 1.346 . S
C42 C39 1.485 . S
C42 H46 0.960 . S
C42 H47 0.961 . S
C42 H48 0.960 . S
C43 N41 1.346 . S
C43 N44 1.307 . S
C43 C45 1.486 . S
N44 N40 1.370 . S
N44 C43 1.307 . S
C45 C43 1.486 . S
C45 H49 0.960 . S
C45 H50 0.960 . S
C45 H51 0.959 . S
H46 C42 0.960 . S
H47 C42 0.961 . S
H48 C42 0.960 . S
H49 C45 0.960 . S
H50 C45 0.960 . S
H51 C45 0.959 . S
C52 N53 1.317 . S
C52 N54 1.348 . S
C52 C55 1.485 . S
N53 C52 1.317 . S
N53 N57 1.370 . S
N54 C52 1.348 . S
N54 C56 1.346 . S
C55 C52 1.485 . S
C55 H59 0.960 . S
C55 H60 0.961 . S
C55 H61 0.960 . S
C56 N54 1.346 . S
C56 N57 1.307 . S
C56 C58 1.486 . S
N57 N53 1.370 . S
N57 C56 1.307 . S
C58 C56 1.486 . S
C58 H62 0.960 . S
C58 H63 0.960 . S
C58 H64 0.959 . S
H59 C55 0.960 . S
H60 C55 0.961 . S
H61 C55 0.960 . S
H62 C58 0.960 . S
H63 C58 0.960 . S
H64 C58 0.959 . S
C65 N66 1.317 . S
C65 N67 1.348 . S
C65 C68 1.485 . S
N66 C65 1.317 . S
N66 N70 1.370 . S
N67 C65 1.348 . S
N67 C69 1.346 . S
C68 C65 1.485 . S
C68 H72 0.960 . S
C68 H73 0.961 . S
C68 H74 0.960 . S
C69 N67 1.346 . S
C69 N70 1.307 . S
C69 C71 1.486 . S
N70 N66 1.370 . S
N70 C69 1.307 . S
C71 C69 1.486 . S
C71 H75 0.960 . S
C71 H76 0.960 . S
C71 H77 0.959 . S
H72 C68 0.960 . S
H73 C68 0.961 . S
H74 C68 0.960 . S
H75 C71 0.960 . S
H76 C71 0.960 . S
H77 C71 0.959 . S
C78 N79 1.317 . S
C78 N80 1.348 . S
C78 C81 1.485 . S
N79 C78 1.317 . S
N79 N83 1.370 . S
N80 C78 1.348 . S
N80 C82 1.346 . S
C81 C78 1.485 . S
C81 H85 0.960 . S
C81 H86 0.961 . S
C81 H87 0.960 . S
C82 N80 1.346 . S
C82 N83 1.307 . S
C82 C84 1.486 . S
N83 N79 1.370 . S
N83 C82 1.307 . S
C84 C82 1.486 . S
C84 H88 0.960 . S
C84 H89 0.960 . S
C84 H90 0.959 . S
H85 C81 0.960 . S
H86 C81 0.961 . S
H87 C81 0.960 . S
H88 C84 0.960 . S
H89 C84 0.960 . S
H90 C84 0.959 . S
C91 N92 1.317 . S
C91 N93 1.348 . S
C91 C94 1.485 . S
N92 C91 1.317 . S
N92 N96 1.370 . S
N93 C91 1.348 . S
N93 C95 1.346 . S
C94 C91 1.485 . S
C94 H98 0.960 . S
C94 H99 0.961 . S
C94 H100 0.960 . S
C95 N93 1.346 . S
C95 N96 1.307 . S
C95 C97 1.486 . S
N96 N92 1.370 . S
N96 C95 1.307 . S
C97 C95 1.486 . S
C97 H101 0.960 . S
C97 H102 0.960 . S
C97 H103 0.959 . S
H98 C94 0.960 . S
H99 C94 0.961 . S
H100 C94 0.960 . S
H101 C97 0.960 . S
H102 C97 0.960 . S
H103 C97 0.959 . S
Nd104 C106 2.836 1_545 S
Nd104 O124 2.500 1_445 S
Nd104 O125 2.492 1_545 S
Nd104 O126 2.487 . S
Nd104 O127 2.682 . S
Nd104 O128 2.410 1_545 S
Nd104 O133 2.414 1_455 S
Nd104 O135 2.424 . S
Nd105 C115 2.836 1_556 S
Nd105 O127 2.414 . S
Nd105 O129 2.424 1_545 S
Nd105 O130 2.500 1_556 S
Nd105 O131 2.492 1_556 S
Nd105 O132 2.487 1_455 S
Nd105 O133 2.682 1_455 S
Nd105 O134 2.410 . S
C106 Nd104 2.836 1_565 S
C106 C107 1.498 . S
C106 O124 1.258 1_455 S
C106 O125 1.239 . S
C107 C106 1.498 . S
C107 C108 1.366 1_455 S
C107 C112 1.407 . S
C108 C107 1.366 1_655 S
C108 C109 1.392 . S
C108 H136 0.930 . S
C109 C108 1.392 . S
C109 C110 1.398 1_655 S
C109 H137 0.929 . S
C110 C109 1.398 1_455 S
C110 C111 1.352 . S
C111 C110 1.352 . S
C111 C112 1.384 . S
C111 H138 0.930 . S
C112 C107 1.407 . S
C112 C111 1.384 . S
C112 H139 0.929 . S
C113 O126 1.241 . S
C113 O127 1.273 . S
C114 O128 1.251 . S
C114 O129 1.268 . S
C115 Nd105 2.836 1_554 S
C115 C116 1.498 . S
C115 O130 1.258 . S
C115 O131 1.239 . S
C116 C115 1.498 . S
C116 C117 1.366 . S
C116 C121 1.407 . S
C117 C116 1.366 . S
C117 C118 1.392 . S
C117 H140 0.930 . S
C118 C117 1.392 . S
C118 C119 1.398 . S
C118 H141 0.929 . S
C119 C118 1.398 . S
C119 C120 1.352 . S
C120 C119 1.352 . S
C120 C121 1.384 . S
C120 H142 0.930 . S
C121 C116 1.407 . S
C121 C120 1.384 . S
C121 H143 0.929 1_455 S
C122 O132 1.241 . S
C122 O133 1.273 . S
C123 O134 1.251 . S
C123 O135 1.268 . S
O124 Nd104 2.500 1_665 S
O124 C106 1.258 1_655 S
O125 Nd104 2.492 1_565 S
O125 C106 1.239 . S
O126 Nd104 2.487 . S
O126 C113 1.241 . S
O127 Nd104 2.682 . S
O127 Nd105 2.414 . S
O127 C113 1.273 . S
O128 Nd104 2.410 1_565 S
O128 C114 1.251 . S
O129 Nd105 2.424 1_565 S
O129 C114 1.268 . S
O130 Nd105 2.500 1_554 S
O130 C115 1.258 . S
O131 Nd105 2.492 1_554 S
O131 C115 1.239 . S
O132 Nd105 2.487 1_655 S
O132 C122 1.241 . S
O133 Nd104 2.414 1_655 S
O133 Nd105 2.682 1_655 S
O133 C122 1.273 . S
O134 Nd105 2.410 . S
O134 C123 1.251 . S
O135 Nd104 2.424 . S
O135 C123 1.268 . S
H136 C108 0.930 . S
H137 C109 0.929 . S
H138 C111 0.930 . S
H139 C112 0.929 . S
H140 C117 0.930 . S
H141 C118 0.929 . S
H142 C120 0.930 . S
H143 C121 0.929 1_655 S
Nd144 C146 2.836 1_545 S
Nd144 O164 2.500 1_545 S
Nd144 O165 2.492 . S
Nd144 O166 2.487 . S
Nd144 O167 2.682 . S
Nd144 O168 2.410 . S
Nd144 O173 2.414 1_545 S
Nd144 O175 2.424 . S
Nd145 C155 2.836 1_556 S
Nd145 O167 2.414 . S
Nd145 O169 2.424 . S
Nd145 O170 2.500 . S
Nd145 O171 2.492 1_556 S
Nd145 O172 2.487 1_546 S
Nd145 O173 2.682 1_545 S
Nd145 O174 2.410 . S
C146 Nd144 2.836 1_565 S
C146 C147 1.498 . S
C146 O164 1.258 . S
C146 O165 1.239 1_565 S
C147 C146 1.498 . S
C147 C148 1.366 . S
C147 C152 1.407 . S
C148 C147 1.366 . S
C148 C149 1.392 . S
C148 H176 0.930 . S
C149 C148 1.392 . S
C149 C150 1.398 . S
C149 H177 0.929 . S
C150 C149 1.398 . S
C150 C151 1.352 . S
C151 C150 1.352 . S
C151 C152 1.384 . S
C151 H178 0.930 . S
C152 C147 1.407 . S
C152 C151 1.384 . S
C152 H179 0.929 1_565 S
C153 O166 1.241 . S
C153 O167 1.273 . S
C154 O168 1.251 . S
C154 O169 1.268 . S
C155 Nd145 2.836 1_554 S
C155 C156 1.498 . S
C155 O170 1.258 1_554 S
C155 O171 1.239 . S
C156 C155 1.498 . S
C156 C157 1.366 . S
C156 C161 1.407 . S
C157 C156 1.366 . S
C157 C158 1.392 . S
C157 H180 0.930 . S
C158 C157 1.392 . S
C158 C159 1.398 . S
C158 H181 0.929 . S
C159 C158 1.398 . S
C159 C160 1.352 . S
C160 C159 1.352 . S
C160 C161 1.384 . S
C160 H182 0.930 . S
C161 C156 1.407 . S
C161 C160 1.384 . S
C161 H183 0.929 . S
C162 O172 1.241 1_556 S
C162 O173 1.273 . S
C163 O174 1.251 . S
C163 O175 1.268 . S
O164 Nd144 2.500 1_565 S
O164 C146 1.258 . S
O165 Nd144 2.492 . S
O165 C146 1.239 1_545 S
O166 Nd144 2.487 . S
O166 C153 1.241 . S
O167 Nd144 2.682 . S
O167 Nd145 2.414 . S
O167 C153 1.273 . S
O168 Nd144 2.410 . S
O168 C154 1.251 . S
O169 Nd145 2.424 . S
O169 C154 1.268 . S
O170 Nd145 2.500 . S
O170 C155 1.258 1_556 S
O171 Nd145 2.492 1_554 S
O171 C155 1.239 . S
O172 Nd145 2.487 1_564 S
O172 C162 1.241 1_554 S
O173 Nd144 2.414 1_565 S
O173 Nd145 2.682 1_565 S
O173 C162 1.273 . S
O174 Nd145 2.410 . S
O174 C163 1.251 . S
O175 Nd144 2.424 . S
O175 C163 1.268 . S
H176 C148 0.930 . S
H177 C149 0.929 . S
H178 C151 0.930 . S
H179 C152 0.929 1_545 S
H180 C157 0.930 . S
H181 C158 0.929 . S
H182 C160 0.930 . S
H183 C161 0.929 . S
Nd184 C186 2.836 1_556 S
Nd184 O204 2.500 . S
Nd184 O205 2.492 1_556 S
Nd184 O206 2.487 . S
Nd184 O207 2.682 . S
Nd184 O208 2.410 . S
Nd184 O213 2.414 . S
Nd184 O215 2.424 . S
Nd185 C195 2.836 . S
Nd185 O207 2.414 . S
Nd185 O209 2.424 . S
Nd185 O210 2.500 . S
Nd185 O211 2.492 . S
Nd185 O212 2.487 . S
Nd185 O213 2.682 . S
Nd185 O214 2.410 . S
C186 Nd184 2.836 1_554 S
C186 C187 1.498 . S
C186 O204 1.258 1_554 S
C186 O205 1.239 . S
C187 C186 1.498 . S
C187 C188 1.366 . S
C187 C192 1.407 . S
C188 C187 1.366 . S
C188 C189 1.392 . S
C188 H216 0.930 1_554 S
C189 C188 1.392 . S
C189 C190 1.398 . S
C189 H217 0.929 . S
C190 C189 1.398 . S
C190 C191 1.352 . S
C191 C190 1.352 . S
C191 C192 1.384 . S
C191 H218 0.930 . S
C192 C187 1.407 . S
C192 C191 1.384 . S
C192 H219 0.929 . S
C193 O206 1.241 . S
C193 O207 1.273 . S
C194 O208 1.251 . S
C194 O209 1.268 . S
C195 Nd185 2.836 . S
C195 C196 1.498 . S
C195 O210 1.258 . S
C195 O211 1.239 . S
C196 C195 1.498 . S
C196 C197 1.366 . S
C196 C201 1.407 . S
C197 C196 1.366 . S
C197 C198 1.392 . S
C197 H220 0.930 . S
C198 C197 1.392 . S
C198 C199 1.398 . S
C198 H221 0.929 . S
C199 C198 1.398 . S
C199 C200 1.352 . S
C200 C199 1.352 . S
C200 C201 1.384 . S
C200 H222 0.930 . S
C201 C196 1.407 . S
C201 C200 1.384 . S
C201 H223 0.929 . S
C202 O212 1.241 . S
C202 O213 1.273 . S
C203 O214 1.251 . S
C203 O215 1.268 . S
O204 Nd184 2.500 . S
O204 C186 1.258 1_556 S
O205 Nd184 2.492 1_554 S
O205 C186 1.239 . S
O206 Nd184 2.487 . S
O206 C193 1.241 . S
O207 Nd184 2.682 . S
O207 Nd185 2.414 . S
O207 C193 1.273 . S
O208 Nd184 2.410 . S
O208 C194 1.251 . S
O209 Nd185 2.424 . S
O209 C194 1.268 . S
O210 Nd185 2.500 . S
O210 C195 1.258 . S
O211 Nd185 2.492 . S
O211 C195 1.239 . S
O212 Nd185 2.487 . S
O212 C202 1.241 . S
O213 Nd184 2.414 . S
O213 Nd185 2.682 . S
O213 C202 1.273 . S
O214 Nd185 2.410 . S
O214 C203 1.251 . S
O215 Nd184 2.424 . S
O215 C203 1.268 . S
H216 C188 0.930 1_556 S
H217 C189 0.929 . S
H218 C191 0.930 . S
H219 C192 0.929 . S
H220 C197 0.930 . S
H221 C198 0.929 . S
H222 C200 0.930 . S
H223 C201 0.929 . S
Nd224 C226 2.836 1_455 S
Nd224 O244 2.500 1_455 S
Nd224 O245 2.492 1_455 S
Nd224 O246 2.487 . S
Nd224 O247 2.682 . S
Nd224 O248 2.410 1_455 S
Nd224 O253 2.414 . S
Nd224 O255 2.424 . S
Nd225 C235 2.836 1_556 S
Nd225 O247 2.414 . S
Nd225 O249 2.424 1_455 S
Nd225 O250 2.500 1_556 S
Nd225 O251 2.492 1_556 S
Nd225 O252 2.487 . S
Nd225 O253 2.682 . S
Nd225 O254 2.410 . S
C226 Nd224 2.836 1_655 S
C226 C227 1.498 . S
C226 O244 1.258 . S
C226 O245 1.239 . S
C227 C226 1.498 . S
C227 C228 1.366 . S
C227 C232 1.407 . S
C228 C227 1.366 . S
C228 C229 1.392 . S
C228 H256 0.930 . S
C229 C228 1.392 . S
C229 C230 1.398 . S
C229 H257 0.929 . S
C230 C229 1.398 . S
C230 C231 1.352 . S
C231 C230 1.352 . S
C231 C232 1.384 . S
C231 H258 0.930 . S
C232 C227 1.407 . S
C232 C231 1.384 . S
C232 H259 0.929 . S
C233 O246 1.241 . S
C233 O247 1.273 . S
C234 O248 1.251 . S
C234 O249 1.268 . S
C235 Nd225 2.836 1_554 S
C235 C236 1.498 . S
C235 O250 1.258 . S
C235 O251 1.239 . S
C236 C235 1.498 . S
C236 C237 1.366 . S
C236 C241 1.407 . S
C237 C236 1.366 . S
C237 C238 1.392 . S
C237 H260 0.930 . S
C238 C237 1.392 . S
C238 C239 1.398 . S
C238 H261 0.929 . S
C239 C238 1.398 . S
C239 C240 1.352 . S
C240 C239 1.352 . S
C240 C241 1.384 . S
C240 H262 0.930 . S
C241 C236 1.407 . S
C241 C240 1.384 . S
C241 H263 0.929 . S
C242 O252 1.241 . S
C242 O253 1.273 . S
C243 O254 1.251 . S
C243 O255 1.268 . S
O244 Nd224 2.500 1_655 S
O244 C226 1.258 . S
O245 Nd224 2.492 1_655 S
O245 C226 1.239 . S
O246 Nd224 2.487 . S
O246 C233 1.241 . S
O247 Nd224 2.682 . S
O247 Nd225 2.414 . S
O247 C233 1.273 . S
O248 Nd224 2.410 1_655 S
O248 C234 1.251 . S
O249 Nd225 2.424 1_655 S
O249 C234 1.268 . S
O250 Nd225 2.500 1_554 S
O250 C235 1.258 . S
O251 Nd225 2.492 1_554 S
O251 C235 1.239 . S
O252 Nd225 2.487 . S
O252 C242 1.241 . S
O253 Nd224 2.414 . S
O253 Nd225 2.682 . S
O253 C242 1.273 . S
O254 Nd225 2.410 . S
O254 C243 1.251 . S
O255 Nd224 2.424 . S
O255 C243 1.268 . S
H256 C228 0.930 . S
H257 C229 0.929 . S
H258 C231 0.930 . S
H259 C232 0.929 . S
H260 C237 0.930 . S
H261 C238 0.929 . S
H262 C240 0.930 . S
H263 C241 0.929 . S
H264 C282 0.951 . S
H265 C284 0.951 . S
H266 C286 0.950 . S
H267 C287 0.950 . S
H268 C289 0.950 . S
H269 C292 0.950 . S
H270 C293 0.950 . S
H271 C295 0.950 . S
H272 C296 0.950 . S
H273 C297 0.951 . S
H274 C299 0.951 . S
H275 C301 0.950 . S
H276 C302 0.950 . S
H277 C304 0.950 . S
H278 C307 0.950 . S
H279 C308 0.950 . S
H280 C310 0.950 . S
H281 C311 0.950 . S
C282 H264 0.951 . S
C282 C283 1.366 . S
C282 C284 1.388 . S
C283 C282 1.366 . S
C283 C287 1.385 . S
C284 H265 0.951 . S
C284 C282 1.388 . S
C284 C285 1.366 . S
C285 C284 1.366 . S
C285 C286 1.414 . S
C285 C288 1.499 . S
C286 H266 0.950 . S
C286 C285 1.414 . S
C286 C287 1.374 . S
C287 H267 0.950 . S
C287 C283 1.385 . S
C287 C286 1.374 . S
C288 C285 1.499 . S
C288 C289 1.373 . S
C288 C290 1.389 . S
C289 H268 0.950 . S
C289 C288 1.373 . S
C289 C305 1.377 . S
C290 C288 1.389 . S
C290 C291 1.524 . S
C290 C304 1.377 . S
C291 C290 1.524 . S
C291 C292 1.397 . S
C291 C296 1.363 . S
C292 H269 0.950 . S
C292 C291 1.397 . S
C292 C293 1.334 . S
C293 H270 0.950 . S
C293 C292 1.334 . S
C293 C294 1.287 . S
C294 C293 1.287 . S
C294 C295 1.524 . S
C294 H313 0.913 . S
C295 H271 0.950 . S
C295 C294 1.524 . S
C295 C296 1.415 . S
C296 H272 0.950 . S
C296 C291 1.363 . S
C296 C295 1.415 . S
C297 H273 0.951 . S
C297 C298 1.366 . S
C297 C299 1.388 . S
C298 C297 1.366 . S
C298 C302 1.385 . S
C299 H274 0.951 . S
C299 C297 1.388 . S
C299 C300 1.366 . S
C300 C299 1.366 . S
C300 C301 1.414 . S
C300 C303 1.499 . S
C301 H275 0.950 . S
C301 C300 1.414 . S
C301 C302 1.374 . S
C302 H276 0.950 . S
C302 C298 1.385 . S
C302 C301 1.374 . S
C303 C300 1.499 . S
C303 C304 1.373 . S
C303 C305 1.389 . S
C304 H277 0.950 . S
C304 C290 1.377 . S
C304 C303 1.373 . S
C305 C289 1.377 . S
C305 C303 1.389 . S
C305 C306 1.524 . S
C306 C305 1.524 . S
C306 C307 1.397 . S
C306 C311 1.363 . S
C307 H278 0.950 . S
C307 C306 1.397 . S
C307 C308 1.334 1_545 S
C308 H279 0.950 . S
C308 C307 1.334 1_565 S
C308 C309 1.287 . S
C309 C308 1.287 . S
C309 C310 1.524 . S
C309 H312 0.999 . S
C310 H280 0.950 . S
C310 C309 1.524 . S
C310 C311 1.415 1_565 S
C311 H281 0.950 . S
C311 C306 1.363 . S
C311 C310 1.415 1_545 S
H312 C309 0.999 . S
H313 C294 0.913 . S
H314 C332 0.951 . S
H315 C334 0.951 . S
H316 C336 0.950 . S
H317 C337 0.950 . S
H318 C339 0.950 . S
H319 C342 0.950 . S
H320 C343 0.950 . S
H321 C345 0.950 . S
H322 C346 0.950 . S
H323 C347 0.951 . S
H324 C349 0.951 . S
H325 C351 0.950 . S
H326 C352 0.950 . S
H327 C354 0.950 . S
H328 C357 0.950 . S
H329 C358 0.950 . S
H330 C360 0.950 . S
H331 C361 0.950 . S
C332 H314 0.951 . S
C332 C333 1.366 . S
C332 C334 1.388 . S
C333 C332 1.366 . S
C333 C337 1.385 . S
C334 H315 0.951 . S
C334 C332 1.388 . S
C334 C335 1.366 . S
C335 C334 1.366 . S
C335 C336 1.414 . S
C335 C338 1.499 . S
C336 H316 0.950 . S
C336 C335 1.414 . S
C336 C337 1.374 . S
C337 H317 0.950 . S
C337 C333 1.385 . S
C337 C336 1.374 . S
C338 C335 1.499 . S
C338 C339 1.373 . S
C338 C340 1.389 . S
C339 H318 0.950 . S
C339 C338 1.373 . S
C339 C355 1.377 . S
C340 C338 1.389 . S
C340 C341 1.524 . S
C340 C354 1.377 . S
C341 C340 1.524 . S
C341 C342 1.397 . S
C341 C346 1.363 . S
C342 H319 0.950 . S
C342 C341 1.397 . S
C342 C343 1.334 . S
C343 H320 0.950 . S
C343 C342 1.334 . S
C343 C344 1.287 . S
C344 C343 1.287 . S
C344 C345 1.524 . S
C344 H363 0.913 . S
C345 H321 0.950 . S
C345 C344 1.524 . S
C345 C346 1.415 . S
C346 H322 0.950 . S
C346 C341 1.363 . S
C346 C345 1.415 . S
C347 H323 0.951 . S
C347 C348 1.366 . S
C347 C349 1.388 . S
C348 C347 1.366 . S
C348 C352 1.385 . S
C349 H324 0.951 . S
C349 C347 1.388 . S
C349 C350 1.366 . S
C350 C349 1.366 . S
C350 C351 1.414 . S
C350 C353 1.499 . S
C351 H325 0.950 . S
C351 C350 1.414 . S
C351 C352 1.374 . S
C352 H326 0.950 . S
C352 C348 1.385 . S
C352 C351 1.374 . S
C353 C350 1.499 . S
C353 C354 1.373 . S
C353 C355 1.389 . S
C354 H327 0.950 . S
C354 C340 1.377 . S
C354 C353 1.373 . S
C355 C339 1.377 . S
C355 C353 1.389 . S
C355 C356 1.524 . S
C356 C355 1.524 . S
C356 C357 1.397 . S
C356 C361 1.363 . S
C357 H328 0.950 . S
C357 C356 1.397 . S
C357 C358 1.334 . S
C358 H329 0.950 . S
C358 C357 1.334 . S
C358 C359 1.287 . S
C359 C358 1.287 . S
C359 C360 1.524 . S
C359 H362 0.999 . S
C360 H330 0.950 . S
C360 C359 1.524 . S
C360 C361 1.415 . S
C361 H331 0.950 . S
C361 C356 1.363 . S
C361 C360 1.415 . S
H362 C359 0.999 . S
H363 C344 0.913 . S
H364 C382 0.951 . S
H365 C384 0.951 . S
H366 C386 0.950 . S
H367 C387 0.950 . S
H368 C389 0.950 . S
H369 C392 0.950 . S
H370 C393 0.950 . S
H371 C395 0.950 . S
H372 C396 0.950 . S
H373 C397 0.951 . S
H374 C399 0.951 . S
H375 C401 0.950 . S
H376 C402 0.950 . S
H377 C404 0.950 . S
H378 C407 0.950 . S
H379 C408 0.950 . S
H380 C410 0.950 . S
H381 C411 0.950 . S
C382 H364 0.951 . S
C382 C383 1.366 . S
C382 C384 1.388 . S
C383 C382 1.366 . S
C383 C387 1.385 . S
C384 H365 0.951 . S
C384 C382 1.388 . S
C384 C385 1.366 . S
C385 C384 1.366 . S
C385 C386 1.414 . S
C385 C388 1.499 . S
C386 H366 0.950 . S
C386 C385 1.414 . S
C386 C387 1.374 . S
C387 H367 0.950 . S
C387 C383 1.385 . S
C387 C386 1.374 . S
C388 C385 1.499 . S
C388 C389 1.373 . S
C388 C390 1.389 . S
C389 H368 0.950 . S
C389 C388 1.373 . S
C389 C405 1.377 . S
C390 C388 1.389 . S
C390 C391 1.524 . S
C390 C404 1.377 . S
C391 C390 1.524 . S
C391 C392 1.397 . S
C391 C396 1.363 . S
C392 H369 0.950 . S
C392 C391 1.397 . S
C392 C393 1.334 . S
C393 H370 0.950 . S
C393 C392 1.334 . S
C393 C394 1.287 . S
C394 C393 1.287 . S
C394 C395 1.524 . S
C394 H413 0.913 . S
C395 H371 0.950 . S
C395 C394 1.524 . S
C395 C396 1.415 . S
C396 H372 0.950 . S
C396 C391 1.363 . S
C396 C395 1.415 . S
C397 H373 0.951 . S
C397 C398 1.366 . S
C397 C399 1.388 . S
C398 C397 1.366 . S
C398 C402 1.385 . S
C399 H374 0.951 . S
C399 C397 1.388 . S
C399 C400 1.366 . S
C400 C399 1.366 . S
C400 C401 1.414 . S
C400 C403 1.499 . S
C401 H375 0.950 . S
C401 C400 1.414 . S
C401 C402 1.374 . S
C402 H376 0.950 . S
C402 C398 1.385 . S
C402 C401 1.374 . S
C403 C400 1.499 . S
C403 C404 1.373 . S
C403 C405 1.389 . S
C404 H377 0.950 . S
C404 C390 1.377 . S
C404 C403 1.373 . S
C405 C389 1.377 . S
C405 C403 1.389 . S
C405 C406 1.524 . S
C406 C405 1.524 . S
C406 C407 1.397 . S
C406 C411 1.363 . S
C407 H378 0.950 . S
C407 C406 1.397 . S
C407 C408 1.334 . S
C408 H379 0.950 . S
C408 C407 1.334 . S
C408 C409 1.287 . S
C409 C408 1.287 . S
C409 C410 1.524 . S
C409 H412 0.999 . S
C410 H380 0.950 . S
C410 C409 1.524 . S
C410 C411 1.415 . S
C411 H381 0.950 . S
C411 C406 1.363 . S
C411 C410 1.415 . S
H412 C409 0.999 . S
H413 C394 0.913 . S
H414 C432 0.951 . S
H415 C434 0.951 . S
H416 C436 0.950 1_655 S
H417 C437 0.950 . S
H418 C439 0.950 . S
H419 C442 0.950 . S
H420 C443 0.950 . S
H421 C445 0.950 . S
H422 C446 0.950 . S
H423 C447 0.951 . S
H424 C449 0.908 1_655 S
H425 C451 0.950 . S
H426 C452 0.950 . S
H427 C454 0.950 . S
H428 C457 0.950 . S
H429 C458 0.948 1_455 S
H430 C460 0.950 . S
H431 C461 0.950 . S
C432 H414 0.951 . S
C432 C433 1.366 . S
C432 C434 1.388 . S
C433 C432 1.366 . S
C433 C437 1.385 . S
C434 H415 0.951 . S
C434 C432 1.388 . S
C434 C435 1.366 . S
C435 C434 1.366 . S
C435 C436 1.414 . S
C435 C438 1.499 . S
C436 H416 0.950 1_455 S
C436 C435 1.414 . S
C436 C437 1.374 . S
C437 H417 0.950 . S
C437 C433 1.385 . S
C437 C436 1.374 . S
C438 C435 1.499 . S
C438 C439 1.373 . S
C438 C440 1.389 . S
C439 H418 0.950 . S
C439 C438 1.373 . S
C439 C455 1.377 . S
C440 C438 1.389 . S
C440 C441 1.524 . S
C440 C454 1.377 . S
C441 C440 1.524 . S
C441 C442 1.397 . S
C441 C446 1.363 . S
C442 H419 0.950 . S
C442 C441 1.397 . S
C442 C443 1.334 . S
C443 H420 0.950 . S
C443 C442 1.334 . S
C443 C444 1.287 . S
C444 C443 1.287 . S
C444 C445 1.524 . S
C444 H463 0.913 . S
C445 H421 0.950 . S
C445 C444 1.524 . S
C445 C446 1.415 . S
C446 H422 0.950 . S
C446 C441 1.363 . S
C446 C445 1.415 . S
C447 H423 0.951 . S
C447 C448 1.366 1_655 S
C447 C449 1.375 1_655 S
C448 C447 1.366 1_455 S
C448 C452 1.385 . S
C449 H424 0.908 1_455 S
C449 C447 1.375 1_455 S
C449 C450 1.422 . S
C450 C449 1.422 . S
C450 C451 1.414 . S
C450 C453 1.499 . S
C451 H425 0.950 . S
C451 C450 1.414 . S
C451 C452 1.374 . S
C452 H426 0.950 . S
C452 C448 1.385 . S
C452 C451 1.374 . S
C453 C450 1.499 . S
C453 C454 1.373 . S
C453 C455 1.389 . S
C454 H427 0.950 . S
C454 C440 1.377 . S
C454 C453 1.373 . S
C455 C439 1.377 . S
C455 C453 1.389 . S
C455 C456 1.524 1_455 S
C456 C455 1.524 1_655 S
C456 C457 1.397 1_655 S
C456 C461 1.363 . S
C457 H428 0.950 . S
C457 C456 1.397 1_455 S
C457 C458 1.334 1_455 S
C458 H429 0.948 1_655 S
C458 C457 1.334 1_655 S
C458 C459 1.287 . S
C459 C458 1.287 . S
C459 C460 1.524 . S
C459 H462 0.999 . S
C460 H430 0.950 . S
C460 C459 1.524 . S
C460 C461 1.415 . S
C461 H431 0.950 . S
C461 C456 1.363 . S
C461 C460 1.415 . S
H462 C459 0.999 . S
H463 C444 0.913 . S
H464 C482 0.951 . S
H465 C484 0.951 . S
H466 C486 0.950 . S
H467 C487 0.950 . S
H468 C489 0.950 . S
H469 C492 0.950 . S
H470 C493 0.950 . S
H471 C495 0.950 . S
H472 C496 0.950 . S
H473 C497 0.951 1_554 S
H474 C499 0.961 . S
H475 C501 0.950 . S
H476 C502 0.952 . S
H477 C504 0.950 . S
H478 C507 0.950 1_556 S
H479 C508 0.950 . S
H480 C510 0.950 . S
H481 C511 0.950 . S
C482 H464 0.951 . S
C482 C483 1.366 1_556 S
C482 C484 1.388 . S
C483 C482 1.366 1_554 S
C483 C487 1.385 . S
C484 H465 0.951 . S
C484 C482 1.388 . S
C484 C485 1.366 1_556 S
C485 C484 1.366 1_554 S
C485 C486 1.414 . S
C485 C488 1.499 . S
C486 H466 0.950 . S
C486 C485 1.414 . S
C486 C487 1.374 . S
C487 H467 0.950 . S
C487 C483 1.385 . S
C487 C486 1.374 . S
C488 C485 1.499 . S
C488 C489 1.373 . S
C488 C490 1.389 1_554 S
C489 H468 0.950 . S
C489 C488 1.373 . S
C489 C505 1.377 . S
C490 C488 1.389 1_556 S
C490 C491 1.524 . S
C490 C504 1.377 . S
C491 C490 1.524 . S
C491 C492 1.397 . S
C491 C496 1.363 . S
C492 H469 0.950 . S
C492 C491 1.397 . S
C492 C493 1.334 . S
C493 H470 0.950 . S
C493 C492 1.334 . S
C493 C494 1.287 . S
C494 C493 1.287 . S
C494 C495 1.524 . S
C494 H513 0.913 . S
C495 H471 0.950 . S
C495 C494 1.524 . S
C495 C496 1.415 . S
C496 H472 0.950 . S
C496 C491 1.363 . S
C496 C495 1.415 . S
C497 H473 0.951 1_556 S
C497 C498 1.374 . S
C497 C499 1.386 1_556 S
C498 C497 1.374 . S
C498 C502 1.384 1_565 S
C499 H474 0.961 . S
C499 C497 1.386 1_554 S
C499 C500 1.357 1_554 S
C500 C499 1.357 1_556 S
C500 C501 1.414 . S
C500 C503 1.499 . S
C501 H475 0.950 . S
C501 C500 1.414 . S
C501 C502 1.372 1_565 S
C502 H476 0.952 . S
C502 C498 1.384 1_545 S
C502 C501 1.372 1_545 S
C503 C500 1.499 . S
C503 C504 1.373 . S
C503 C505 1.389 1_556 S
C504 H477 0.950 . S
C504 C490 1.377 . S
C504 C503 1.373 . S
C505 C489 1.377 . S
C505 C503 1.389 1_554 S
C505 C506 1.547 . S
C506 C505 1.547 . S
C506 C507 1.374 1_565 S
C506 C511 1.363 . S
C507 H478 0.950 1_554 S
C507 C506 1.374 1_545 S
C507 C508 1.334 . S
C508 H479 0.950 . S
C508 C507 1.334 . S
C508 C509 1.287 . S
C509 C508 1.287 . S
C509 C510 1.524 . S
C509 H512 0.999 . S
C510 H480 0.950 . S
C510 C509 1.524 . S
C510 C511 1.415 1_545 S
C511 H481 0.950 . S
C511 C506 1.363 . S
C511 C510 1.415 1_565 S
H512 C509 0.999 . S
H513 C494 0.913 . S
H514 C532 0.951 . S
H515 C534 0.951 . S
H516 C536 0.950 . S
H517 C537 0.950 . S
H518 C539 0.950 . S
H519 C542 0.950 . S
H520 C543 0.950 . S
H521 C545 0.950 . S
H522 C546 0.950 . S
H523 C547 0.951 . S
H524 C549 0.951 . S
H525 C551 0.950 . S
H526 C552 0.950 . S
H527 C554 0.950 . S
H528 C557 0.943 1_556 S
H529 C558 0.950 . S
H530 C560 0.950 . S
H531 C561 0.950 . S
C532 H514 0.951 . S
C532 C533 1.366 . S
C532 C534 1.388 . S
C533 C532 1.366 . S
C533 C537 1.385 . S
C534 H515 0.951 . S
C534 C532 1.388 . S
C534 C535 1.366 . S
C535 C534 1.366 . S
C535 C536 1.414 . S
C535 C538 1.499 . S
C536 H516 0.950 . S
C536 C535 1.414 . S
C536 C537 1.374 . S
C537 H517 0.950 . S
C537 C533 1.385 . S
C537 C536 1.374 . S
C538 C535 1.499 . S
C538 C539 1.373 . S
C538 C540 1.389 . S
C539 H518 0.950 . S
C539 C538 1.373 . S
C539 C555 1.377 . S
C540 C538 1.389 . S
C540 C541 1.524 . S
C540 C554 1.377 . S
C541 C540 1.524 . S
C541 C542 1.397 . S
C541 C546 1.363 . S
C542 H519 0.950 . S
C542 C541 1.397 . S
C542 C543 1.334 . S
C543 H520 0.950 . S
C543 C542 1.334 . S
C543 C544 1.287 . S
C544 C543 1.287 . S
C544 C545 1.524 . S
C544 H563 0.913 . S
C545 H521 0.950 . S
C545 C544 1.524 . S
C545 C546 1.415 . S
C546 H522 0.950 . S
C546 C541 1.363 . S
C546 C545 1.415 . S
C547 H523 0.951 . S
C547 C548 1.366 1_554 S
C547 C549 1.388 . S
C548 C547 1.366 1_556 S
C548 C552 1.385 . S
C549 H524 0.951 . S
C549 C547 1.388 . S
C549 C550 1.366 . S
C550 C549 1.366 . S
C550 C551 1.414 . S
C550 C553 1.499 . S
C551 H525 0.950 . S
C551 C550 1.414 . S
C551 C552 1.374 1_554 S
C552 H526 0.950 . S
C552 C548 1.385 . S
C552 C551 1.374 1_556 S
C553 C550 1.499 . S
C553 C554 1.373 . S
C553 C555 1.389 . S
C554 H527 0.950 . S
C554 C540 1.377 . S
C554 C553 1.373 . S
C555 C539 1.377 . S
C555 C553 1.389 . S
C555 C556 1.524 . S
C556 C555 1.524 . S
C556 C557 1.397 . S
C556 C561 1.363 . S
C557 H528 0.943 1_554 S
C557 C556 1.397 . S
C557 C558 1.334 1_554 S
C558 H529 0.950 . S
C558 C557 1.334 1_556 S
C558 C559 1.280 1_556 S
C559 C558 1.280 1_554 S
C559 C560 1.540 . S
C559 H562 0.990 1_554 S
C560 H530 0.950 . S
C560 C559 1.540 . S
C560 C561 1.415 . S
C561 H531 0.950 . S
C561 C556 1.363 . S
C561 C560 1.415 . S
H562 C559 0.990 1_556 S
H563 C544 0.913 . S
H564 C582 0.951 . S
H565 C584 0.951 . S
H566 C586 0.950 . S
H567 C587 0.950 . S
H568 C589 0.950 . S
H569 C592 0.950 . S
H570 C593 0.950 . S
H571 C595 0.950 . S
H572 C596 0.950 . S
H573 C597 0.951 . S
H574 C599 0.951 . S
H575 C601 0.950 . S
H576 C602 0.950 . S
H577 C604 0.950 . S
H578 C607 0.950 . S
H579 C608 0.950 . S
H580 C610 0.950 . S
H581 C611 0.950 . S
C582 H564 0.951 . S
C582 C583 1.366 . S
C582 C584 1.388 . S
C583 C582 1.366 . S
C583 C587 1.385 1_556 S
C584 H565 0.951 . S
C584 C582 1.388 . S
C584 C585 1.366 . S
C585 C584 1.366 . S
C585 C586 1.414 1_556 S
C585 C588 1.499 . S
C586 H566 0.950 . S
C586 C585 1.414 1_554 S
C586 C587 1.374 . S
C587 H567 0.950 . S
C587 C583 1.385 1_554 S
C587 C586 1.374 . S
C588 C585 1.499 . S
C588 C589 1.373 . S
C588 C590 1.389 . S
C589 H568 0.950 . S
C589 C588 1.373 . S
C589 C605 1.377 . S
C590 C588 1.389 . S
C590 C591 1.524 . S
C590 C604 1.377 . S
C591 C590 1.524 . S
C591 C592 1.397 1_556 S
C591 C596 1.363 . S
C592 H569 0.950 . S
C592 C591 1.397 1_554 S
C592 C593 1.334 . S
C593 H570 0.950 . S
C593 C592 1.334 . S
C593 C594 1.287 . S
C594 C593 1.287 . S
C594 C595 1.524 1_554 S
C594 H613 0.913 . S
C595 H571 0.950 . S
C595 C594 1.524 1_556 S
C595 C596 1.415 . S
C596 H572 0.950 . S
C596 C591 1.363 . S
C596 C595 1.415 . S
C597 H573 0.951 . S
C597 C598 1.366 . S
C597 C599 1.388 . S
C598 C597 1.366 . S
C598 C602 1.385 . S
C599 H574 0.951 . S
C599 C597 1.388 . S
C599 C600 1.366 . S
C600 C599 1.366 . S
C600 C601 1.414 . S
C600 C603 1.499 . S
C601 H575 0.950 . S
C601 C600 1.414 . S
C601 C602 1.374 . S
C602 H576 0.950 . S
C602 C598 1.385 . S
C602 C601 1.374 . S
C603 C600 1.499 . S
C603 C604 1.373 . S
C603 C605 1.389 . S
C604 H577 0.950 . S
C604 C590 1.377 . S
C604 C603 1.373 . S
C605 C589 1.377 . S
C605 C603 1.389 . S
C605 C606 1.524 . S
C606 C605 1.524 . S
C606 C607 1.397 . S
C606 C611 1.363 . S
C607 H578 0.950 . S
C607 C606 1.397 . S
C607 C608 1.334 . S
C608 H579 0.950 . S
C608 C607 1.334 . S
C608 C609 1.287 . S
C609 C608 1.287 . S
C609 C610 1.524 . S
C609 H612 0.999 . S
C610 H580 0.950 . S
C610 C609 1.524 . S
C610 C611 1.415 . S
C611 H581 0.950 . S
C611 C606 1.363 . S
C611 C610 1.415 . S
H612 C609 0.999 . S
H613 C594 0.913 . S
H614 C632 0.951 . S
H615 C634 0.951 . S
H616 C636 0.950 1_556 S
H617 C637 0.950 1_556 S
H618 C639 0.950 . S
H619 C642 0.950 . S
H620 C643 0.950 1_556 S
H621 C645 0.950 . S
H622 C646 0.950 . S
H623 C647 0.951 . S
H624 C649 0.951 1_655 S
H625 C651 0.950 1_554 S
H626 C652 0.950 1_554 S
H627 C654 0.950 . S
H628 C657 0.950 . S
H629 C658 0.951 . S
H630 C660 0.950 . S
H631 C661 0.950 . S
C632 H614 0.951 . S
C632 C633 1.371 . S
C632 C634 1.388 . S
C633 C632 1.371 . S
C633 C637 1.382 1_455 S
C634 H615 0.951 . S
C634 C632 1.388 . S
C634 C635 1.366 . S
C635 C634 1.366 . S
C635 C636 1.414 1_455 S
C635 C638 1.499 . S
C636 H616 0.950 1_554 S
C636 C635 1.414 1_655 S
C636 C637 1.374 . S
C637 H617 0.950 1_554 S
C637 C633 1.382 1_655 S
C637 C636 1.374 . S
C638 C635 1.499 . S
C638 C639 1.373 1_454 S
C638 C640 1.389 . S
C639 H618 0.950 . S
C639 C638 1.373 1_656 S
C639 C655 1.377 . S
C640 C638 1.389 . S
C640 C641 1.524 . S
C640 C654 1.377 . S
C641 C640 1.524 . S
C641 C642 1.397 1_554 S
C641 C646 1.363 . S
C642 H619 0.950 . S
C642 C641 1.397 1_556 S
C642 C643 1.334 1_556 S
C643 H620 0.950 1_554 S
C643 C642 1.334 1_554 S
C643 C644 1.287 . S
C644 C643 1.287 . S
C644 C645 1.524 . S
C644 H663 0.913 . S
C645 H621 0.950 . S
C645 C644 1.524 . S
C645 C646 1.415 . S
C646 H622 0.950 . S
C646 C641 1.363 . S
C646 C645 1.415 . S
C647 H623 0.951 . S
C647 C648 1.366 . S
C647 C649 1.388 . S
C648 C647 1.366 . S
C648 C652 1.385 . S
C649 H624 0.951 1_455 S
C649 C647 1.388 . S
C649 C650 1.366 . S
C650 C649 1.366 . S
C650 C651 1.414 . S
C650 C653 1.499 . S
C651 H625 0.950 1_556 S
C651 C650 1.414 . S
C651 C652 1.374 . S
C652 H626 0.950 1_556 S
C652 C648 1.385 . S
C652 C651 1.374 . S
C653 C650 1.499 . S
C653 C654 1.373 1_556 S
C653 C655 1.389 1_455 S
C654 H627 0.950 . S
C654 C640 1.377 . S
C654 C653 1.373 1_554 S
C655 C639 1.377 . S
C655 C653 1.389 1_655 S
C655 C656 1.524 . S
C656 C655 1.524 . S
C656 C657 1.397 1_556 S
C656 C661 1.363 . S
C657 H628 0.950 . S
C657 C656 1.397 1_554 S
C657 C658 1.334 . S
C658 H629 0.951 . S
C658 C657 1.334 . S
C658 C659 1.286 1_554 S
C659 C658 1.286 1_556 S
C659 C660 1.524 . S
C659 H662 0.999 . S
C660 H630 0.950 . S
C660 C659 1.524 . S
C660 C661 1.415 . S
C661 H631 0.950 . S
C661 C656 1.363 . S
C661 C660 1.415 . S
H662 C659 0.999 . S
H663 C644 0.913 . S
H664 C682 0.951 . S
H665 C684 0.951 . S
H666 C686 0.950 . S
H667 C687 0.950 . S
H668 C689 0.950 1_655 S
H669 C692 0.950 . S
H670 C693 0.950 . S
H671 C695 0.950 . S
H672 C696 0.950 . S
H673 C697 0.951 1_655 S
H674 C699 0.951 1_655 S
H675 C701 0.950 . S
H676 C702 0.950 . S
H677 C704 0.950 . S
H678 C707 0.950 1_455 S
H679 C708 0.950 . S
H680 C710 0.950 . S
H681 C711 0.950 . S
C682 H664 0.951 . S
C682 C683 1.366 . S
C682 C684 1.388 . S
C683 C682 1.366 . S
C683 C687 1.385 . S
C684 H665 0.951 . S
C684 C682 1.388 . S
C684 C685 1.366 . S
C685 C684 1.366 . S
C685 C686 1.414 . S
C685 C688 1.499 . S
C686 H666 0.950 . S
C686 C685 1.414 . S
C686 C687 1.374 . S
C687 H667 0.950 . S
C687 C683 1.385 . S
C687 C686 1.374 . S
C688 C685 1.499 . S
C688 C689 1.373 . S
C688 C690 1.389 . S
C689 H668 0.950 1_455 S
C689 C688 1.373 . S
C689 C705 1.377 . S
C690 C688 1.389 . S
C690 C691 1.524 . S
C690 C704 1.377 . S
C691 C690 1.524 . S
C691 C692 1.397 . S
C691 C696 1.363 . S
C692 H669 0.950 . S
C692 C691 1.397 . S
C692 C693 1.334 . S
C693 H670 0.950 . S
C693 C692 1.334 . S
C693 C694 1.287 . S
C694 C693 1.287 . S
C694 C695 1.524 . S
C694 H713 0.913 . S
C695 H671 0.950 . S
C695 C694 1.524 . S
C695 C696 1.415 . S
C696 H672 0.950 . S
C696 C691 1.363 . S
C696 C695 1.415 . S
C697 H673 0.951 1_455 S
C697 C698 1.366 . S
C697 C699 1.388 . S
C698 C697 1.366 . S
C698 C702 1.385 . S
C699 H674 0.951 1_455 S
C699 C697 1.388 . S
C699 C700 1.366 . S
C700 C699 1.366 . S
C700 C701 1.414 . S
C700 C703 1.499 . S
C701 H675 0.950 . S
C701 C700 1.414 . S
C701 C702 1.374 . S
C702 H676 0.950 . S
C702 C698 1.385 . S
C702 C701 1.374 . S
C703 C700 1.499 . S
C703 C704 1.373 . S
C703 C705 1.389 . S
C704 H677 0.950 . S
C704 C690 1.377 . S
C704 C703 1.373 . S
C705 C689 1.377 . S
C705 C703 1.389 . S
C705 C706 1.524 1_455 S
C706 C705 1.524 1_655 S
C706 C707 1.397 . S
C706 C711 1.363 . S
C707 H678 0.950 1_655 S
C707 C706 1.397 . S
C707 C708 1.334 . S
C708 H679 0.950 . S
C708 C707 1.334 . S
C708 C709 1.287 . S
C709 C708 1.287 . S
C709 C710 1.524 . S
C709 H712 0.999 . S
C710 H680 0.950 . S
C710 C709 1.524 . S
C710 C711 1.415 . S
C711 H681 0.950 . S
C711 C706 1.363 . S
C711 C710 1.415 . S
H712 C709 0.999 . S
H713 C694 0.913 . S
H714 C732 0.951 . S
H715 C734 0.951 . S
H716 C736 0.950 . S
H717 C737 0.950 . S
H718 C739 0.950 . S
H719 C742 0.950 . S
H720 C743 0.950 . S
H721 C745 0.950 . S
H722 C746 0.950 . S
H723 C747 0.951 . S
H724 C749 0.951 . S
H725 C751 0.950 . S
H726 C752 0.950 . S
H727 C754 0.950 . S
H728 C757 0.950 . S
H729 C758 0.950 . S
H730 C760 0.950 . S
H731 C761 0.950 . S
C732 H714 0.951 . S
C732 C733 1.366 . S
C732 C734 1.388 . S
C733 C732 1.366 . S
C733 C737 1.385 . S
C734 H715 0.951 . S
C734 C732 1.388 . S
C734 C735 1.366 . S
C735 C734 1.366 . S
C735 C736 1.414 . S
C735 C738 1.499 . S
C736 H716 0.950 . S
C736 C735 1.414 . S
C736 C737 1.374 . S
C737 H717 0.950 . S
C737 C733 1.385 . S
C737 C736 1.374 . S
C738 C735 1.499 . S
C738 C739 1.373 . S
C738 C740 1.389 . S
C739 H718 0.950 . S
C739 C738 1.373 . S
C739 C755 1.377 . S
C740 C738 1.389 . S
C740 C741 1.524 . S
C740 C754 1.377 . S
C741 C740 1.524 . S
C741 C742 1.397 . S
C741 C746 1.363 . S
C742 H719 0.950 . S
C742 C741 1.397 . S
C742 C743 1.334 . S
C743 H720 0.950 . S
C743 C742 1.334 . S
C743 C744 1.287 . S
C744 C743 1.287 . S
C744 C745 1.524 . S
C744 H763 0.913 . S
C745 H721 0.950 . S
C745 C744 1.524 . S
C745 C746 1.415 . S
C746 H722 0.950 . S
C746 C741 1.363 . S
C746 C745 1.415 . S
C747 H723 0.951 . S
C747 C748 1.366 . S
C747 C749 1.388 . S
C748 C747 1.366 . S
C748 C752 1.385 . S
C749 H724 0.951 . S
C749 C747 1.388 . S
C749 C750 1.366 . S
C750 C749 1.366 . S
C750 C751 1.414 . S
C750 C753 1.499 . S
C751 H725 0.950 . S
C751 C750 1.414 . S
C751 C752 1.374 . S
C752 H726 0.950 . S
C752 C748 1.385 . S
C752 C751 1.374 . S
C753 C750 1.499 . S
C753 C754 1.373 . S
C753 C755 1.389 . S
C754 H727 0.950 . S
C754 C740 1.377 . S
C754 C753 1.373 . S
C755 C739 1.377 . S
C755 C753 1.389 . S
C755 C756 1.524 . S
C756 C755 1.524 . S
C756 C757 1.397 . S
C756 C761 1.363 . S
C757 H728 0.950 . S
C757 C756 1.397 . S
C757 C758 1.334 1_545 S
C758 H729 0.950 . S
C758 C757 1.334 1_565 S
C758 C759 1.287 . S
C759 C758 1.287 . S
C759 C760 1.524 . S
C759 H762 0.999 . S
C760 H730 0.950 . S
C760 C759 1.524 . S
C760 C761 1.415 1_565 S
C761 H731 0.950 . S
C761 C756 1.363 . S
C761 C760 1.415 1_545 S
H762 C759 0.999 . S
H763 C744 0.913 . S
H764 C782 0.951 . S
H765 C784 0.951 . S
H766 C786 0.950 . S
H767 C787 0.950 . S
H768 C789 0.950 . S
H769 C792 0.950 . S
H770 C793 0.950 . S
H771 C795 0.950 . S
H772 C796 0.950 . S
H773 C797 0.951 . S
H774 C799 0.951 . S
H775 C801 0.950 . S
H776 C802 0.950 . S
H777 C804 0.950 . S
H778 C807 0.950 . S
H779 C808 0.950 . S
H780 C810 0.950 . S
H781 C811 0.950 . S
C782 H764 0.951 . S
C782 C783 1.366 . S
C782 C784 1.388 . S
C783 C782 1.366 . S
C783 C787 1.385 . S
C784 H765 0.951 . S
C784 C782 1.388 . S
C784 C785 1.366 . S
C785 C784 1.366 . S
C785 C786 1.414 . S
C785 C788 1.499 . S
C786 H766 0.950 . S
C786 C785 1.414 . S
C786 C787 1.374 . S
C787 H767 0.950 . S
C787 C783 1.385 . S
C787 C786 1.374 . S
C788 C785 1.499 . S
C788 C789 1.373 . S
C788 C790 1.389 . S
C789 H768 0.950 . S
C789 C788 1.373 . S
C789 C805 1.377 . S
C790 C788 1.389 . S
C790 C791 1.524 . S
C790 C804 1.377 . S
C791 C790 1.524 . S
C791 C792 1.397 . S
C791 C796 1.363 . S
C792 H769 0.950 . S
C792 C791 1.397 . S
C792 C793 1.334 . S
C793 H770 0.950 . S
C793 C792 1.334 . S
C793 C794 1.287 . S
C794 C793 1.287 . S
C794 C795 1.524 . S
C794 H813 0.913 . S
C795 H771 0.950 . S
C795 C794 1.524 . S
C795 C796 1.415 . S
C796 H772 0.950 . S
C796 C791 1.363 . S
C796 C795 1.415 . S
C797 H773 0.951 . S
C797 C798 1.366 . S
C797 C799 1.388 . S
C798 C797 1.366 . S
C798 C802 1.385 . S
C799 H774 0.951 . S
C799 C797 1.388 . S
C799 C800 1.366 . S
C800 C799 1.366 . S
C800 C801 1.414 . S
C800 C803 1.499 . S
C801 H775 0.950 . S
C801 C800 1.414 . S
C801 C802 1.374 . S
C802 H776 0.950 . S
C802 C798 1.385 . S
C802 C801 1.374 . S
C803 C800 1.499 . S
C803 C804 1.373 . S
C803 C805 1.389 . S
C804 H777 0.950 . S
C804 C790 1.377 . S
C804 C803 1.373 . S
C805 C789 1.377 . S
C805 C803 1.389 . S
C805 C806 1.524 . S
C806 C805 1.524 . S
C806 C807 1.397 . S
C806 C811 1.363 . S
C807 H778 0.950 . S
C807 C806 1.397 . S
C807 C808 1.334 . S
C808 H779 0.950 . S
C808 C807 1.334 . S
C808 C809 1.287 . S
C809 C808 1.287 . S
C809 C810 1.524 . S
C809 H812 0.999 . S
C810 H780 0.950 . S
C810 C809 1.524 . S
C810 C811 1.415 . S
C811 H781 0.950 . S
C811 C806 1.363 . S
C811 C810 1.415 . S
H812 C809 0.999 . S
H813 C794 0.913 . S
H814 C832 0.951 . S
H815 C834 0.951 . S
H816 C836 0.950 . S
H817 C837 0.950 . S
H818 C839 0.950 . S
H819 C842 0.950 . S
H820 C843 0.950 . S
H821 C845 0.950 . S
H822 C846 0.950 . S
H823 C847 0.951 . S
H824 C849 0.951 . S
H825 C851 0.950 . S
H826 C852 0.950 . S
H827 C854 0.950 . S
H828 C857 0.950 . S
H829 C858 0.950 . S
H830 C860 0.950 . S
H831 C861 0.950 . S
C832 H814 0.951 . S
C832 C833 1.366 . S
C832 C834 1.388 . S
C833 C832 1.366 . S
C833 C837 1.385 . S
C834 H815 0.951 . S
C834 C832 1.388 . S
C834 C835 1.366 . S
C835 C834 1.366 . S
C835 C836 1.414 . S
C835 C838 1.499 . S
C836 H816 0.950 . S
C836 C835 1.414 . S
C836 C837 1.374 . S
C837 H817 0.950 . S
C837 C833 1.385 . S
C837 C836 1.374 . S
C838 C835 1.499 . S
C838 C839 1.373 . S
C838 C840 1.389 . S
C839 H818 0.950 . S
C839 C838 1.373 . S
C839 C855 1.377 . S
C840 C838 1.389 . S
C840 C841 1.524 . S
C840 C854 1.377 . S
C841 C840 1.524 . S
C841 C842 1.397 . S
C841 C846 1.363 . S
C842 H819 0.950 . S
C842 C841 1.397 . S
C842 C843 1.334 . S
C843 H820 0.950 . S
C843 C842 1.334 . S
C843 C844 1.287 . S
C844 C843 1.287 . S
C844 C845 1.524 . S
C844 H863 0.913 . S
C845 H821 0.950 . S
C845 C844 1.524 . S
C845 C846 1.415 . S
C846 H822 0.950 . S
C846 C841 1.363 . S
C846 C845 1.415 . S
C847 H823 0.951 . S
C847 C848 1.366 . S
C847 C849 1.388 . S
C848 C847 1.366 . S
C848 C852 1.385 . S
C849 H824 0.951 . S
C849 C847 1.388 . S
C849 C850 1.366 . S
C850 C849 1.366 . S
C850 C851 1.414 . S
C850 C853 1.499 . S
C851 H825 0.950 . S
C851 C850 1.414 . S
C851 C852 1.374 . S
C852 H826 0.950 . S
C852 C848 1.385 . S
C852 C851 1.374 . S
C853 C850 1.499 . S
C853 C854 1.373 . S
C853 C855 1.389 . S
C854 H827 0.950 . S
C854 C840 1.377 . S
C854 C853 1.373 . S
C855 C839 1.377 . S
C855 C853 1.389 . S
C855 C856 1.524 . S
C856 C855 1.524 . S
C856 C857 1.397 . S
C856 C861 1.363 . S
C857 H828 0.950 . S
C857 C856 1.397 . S
C857 C858 1.334 1_556 S
C858 H829 0.950 . S
C858 C857 1.334 1_554 S
C858 C859 1.287 . S
C859 C858 1.287 . S
C859 C860 1.524 . S
C859 H862 0.999 . S
C860 H830 0.950 . S
C860 C859 1.524 . S
C860 C861 1.415 1_554 S
C861 H831 0.950 . S
C861 C856 1.363 . S
C861 C860 1.415 1_556 S
H862 C859 0.999 . S
H863 C844 0.913 . S
H864 C882 0.951 . S
H865 C884 0.951 . S
H866 C886 0.950 . S
H867 C887 0.950 . S
H868 C889 0.950 . S
H869 C892 0.950 . S
H870 C893 0.950 . S
H871 C895 0.950 . S
H872 C896 0.950 . S
H873 C897 0.951 . S
H874 C899 0.951 . S
H875 C901 0.950 . S
H876 C902 0.950 . S
H877 C904 0.950 . S
H878 C907 0.950 . S
H879 C908 0.950 . S
H880 C910 0.950 . S
H881 C911 0.950 . S
C882 H864 0.951 . S
C882 C883 1.366 . S
C882 C884 1.388 . S
C883 C882 1.366 . S
C883 C887 1.385 1_655 S
C884 H865 0.951 . S
C884 C882 1.388 . S
C884 C885 1.366 1_655 S
C885 C884 1.366 1_455 S
C885 C886 1.414 . S
C885 C888 1.499 . S
C886 H866 0.950 . S
C886 C885 1.414 . S
C886 C887 1.374 . S
C887 H867 0.950 . S
C887 C883 1.385 1_455 S
C887 C886 1.374 . S
C888 C885 1.499 . S
C888 C889 1.373 . S
C888 C890 1.389 1_454 S
C889 H868 0.950 . S
C889 C888 1.373 . S
C889 C905 1.377 . S
C890 C888 1.389 1_656 S
C890 C891 1.524 . S
C890 C904 1.377 . S
C891 C890 1.524 . S
C891 C892 1.397 . S
C891 C896 1.363 . S
C892 H869 0.950 . S
C892 C891 1.397 . S
C892 C893 1.334 . S
C893 H870 0.950 . S
C893 C892 1.334 . S
C893 C894 1.287 . S
C894 C893 1.287 . S
C894 C895 1.524 . S
C894 H913 0.913 . S
C895 H871 0.950 . S
C895 C894 1.524 . S
C895 C896 1.415 . S
C896 H872 0.950 . S
C896 C891 1.363 . S
C896 C895 1.415 . S
C897 H873 0.951 . S
C897 C898 1.366 . S
C897 C899 1.388 . S
C898 C897 1.366 . S
C898 C902 1.385 1_455 S
C899 H874 0.951 . S
C899 C897 1.388 . S
C899 C900 1.366 . S
C900 C899 1.366 . S
C900 C901 1.414 1_455 S
C900 C903 1.499 . S
C901 H875 0.950 . S
C901 C900 1.414 1_655 S
C901 C902 1.374 . S
C902 H876 0.950 . S
C902 C898 1.385 1_655 S
C902 C901 1.374 . S
C903 C900 1.499 . S
C903 C904 1.373 1_455 S
C903 C905 1.389 1_556 S
C904 H877 0.950 . S
C904 C890 1.377 . S
C904 C903 1.373 1_655 S
C905 C889 1.377 . S
C905 C903 1.389 1_554 S
C905 C906 1.524 . S
C906 C905 1.524 . S
C906 C907 1.397 . S
C906 C911 1.363 . S
C907 H878 0.950 . S
C907 C906 1.397 . S
C907 C908 1.334 . S
C908 H879 0.950 . S
C908 C907 1.334 . S
C908 C909 1.287 . S
C909 C908 1.287 . S
C909 C910 1.524 . S
C909 H912 0.999 . S
C910 H880 0.950 . S
C910 C909 1.524 . S
C910 C911 1.415 . S
C911 H881 0.950 . S
C911 C906 1.363 . S
C911 C910 1.415 . S
H912 C909 0.999 . S
H913 C894 0.913 . S
H914 C932 0.951 1_556 S
H915 C934 0.951 . S
H916 C936 0.950 . S
H917 C937 0.950 . S
H918 C939 0.950 . S
H919 C942 0.950 . S
H920 C943 0.950 . S
H921 C945 0.950 . S
H922 C946 0.950 1_556 S
H923 C947 0.951 . S
H924 C949 0.951 . S
H925 C951 0.950 . S
H926 C952 0.950 . S
H927 C954 0.950 1_545 S
H928 C957 0.950 . S
H929 C958 0.950 . S
H930 C960 0.950 . S
H931 C961 0.950 . S
C932 H914 0.951 1_554 S
C932 C933 1.366 . S
C932 C934 1.388 1_554 S
C933 C932 1.366 . S
C933 C937 1.385 . S
C934 H915 0.951 . S
C934 C932 1.388 1_556 S
C934 C935 1.366 1_556 S
C935 C934 1.366 1_554 S
C935 C936 1.414 . S
C935 C938 1.499 1_554 S
C936 H916 0.950 . S
C936 C935 1.414 . S
C936 C937 1.374 . S
C937 H917 0.950 . S
C937 C933 1.385 . S
C937 C936 1.374 . S
C938 C935 1.499 1_556 S
C938 C939 1.373 . S
C938 C940 1.389 1_556 S
C939 H918 0.950 . S
C939 C938 1.373 . S
C939 C955 1.377 . S
C940 C938 1.389 1_554 S
C940 C941 1.524 . S
C940 C954 1.377 1_554 S
C941 C940 1.524 . S
C941 C942 1.397 . S
C941 C946 1.363 1_565 S
C942 H919 0.950 . S
C942 C941 1.397 . S
C942 C943 1.334 . S
C943 H920 0.950 . S
C943 C942 1.334 . S
C943 C944 1.287 1_565 S
C944 C943 1.287 1_545 S
C944 C945 1.524 . S
C944 H963 0.913 . S
C945 H921 0.950 . S
C945 C944 1.524 . S
C945 C946 1.415 . S
C946 H922 0.950 1_554 S
C946 C941 1.363 1_545 S
C946 C945 1.415 . S
C947 H923 0.951 . S
C947 C948 1.366 1_565 S
C947 C949 1.388 . S
C948 C947 1.366 1_545 S
C948 C952 1.385 . S
C949 H924 0.951 . S
C949 C947 1.388 . S
C949 C950 1.366 . S
C950 C949 1.366 . S
C950 C951 1.414 1_565 S
C950 C953 1.499 . S
C951 H925 0.950 . S
C951 C950 1.414 1_545 S
C951 C952 1.374 . S
C952 H926 0.950 . S
C952 C948 1.385 . S
C952 C951 1.374 . S
C953 C950 1.499 . S
C953 C954 1.373 . S
C953 C955 1.389 . S
C954 H927 0.950 1_565 S
C954 C940 1.377 1_556 S
C954 C953 1.373 . S
C955 C939 1.377 . S
C955 C953 1.389 . S
C955 C956 1.524 . S
C956 C955 1.524 . S
C956 C957 1.397 . S
C956 C961 1.363 . S
C957 H928 0.950 . S
C957 C956 1.397 . S
C957 C958 1.334 . S
C958 H929 0.950 . S
C958 C957 1.334 . S
C958 C959 1.287 . S
C959 C958 1.287 . S
C959 C960 1.524 . S
C959 H962 0.999 . S
C960 H930 0.950 . S
C960 C959 1.524 . S
C960 C961 1.415 . S
C961 H931 0.950 . S
C961 C956 1.363 . S
C961 C960 1.415 . S
H962 C959 0.999 . S
H963 C944 0.913 . S
H964 C982 0.951 . S
H965 C984 0.951 . S
H966 C986 0.950 . S
H967 C987 0.950 . S
H968 C989 0.950 . S
H969 C992 0.950 . S
H970 C993 0.950 . S
H971 C995 0.950 . S
H972 C996 0.950 . S
H973 C997 0.951 . S
H974 C999 0.951 . S
H975 C1001 0.950 . S
H976 C1002 0.950 . S
H977 C1004 0.950 . S
H978 C1007 0.950 . S
H979 C1008 0.950 . S
H980 C1010 0.950 . S
H981 C1011 0.950 . S
C982 H964 0.951 . S
C982 C983 1.366 . S
C982 C984 1.388 . S
C983 C982 1.366 . S
C983 C987 1.385 . S
C984 H965 0.951 . S
C984 C982 1.388 . S
C984 C985 1.366 . S
C985 C984 1.366 . S
C985 C986 1.414 . S
C985 C988 1.499 . S
C986 H966 0.950 . S
C986 C985 1.414 . S
C986 C987 1.374 . S
C987 H967 0.950 . S
C987 C983 1.385 . S
C987 C986 1.374 . S
C988 C985 1.499 . S
C988 C989 1.373 . S
C988 C990 1.389 . S
C989 H968 0.950 . S
C989 C988 1.373 . S
C989 C1005 1.377 . S
C990 C988 1.389 . S
C990 C991 1.524 . S
C990 C1004 1.377 . S
C991 C990 1.524 . S
C991 C992 1.397 . S
C991 C996 1.363 . S
C992 H969 0.950 . S
C992 C991 1.397 . S
C992 C993 1.334 . S
C993 H970 0.950 . S
C993 C992 1.334 . S
C993 C994 1.287 . S
C994 C993 1.287 . S
C994 C995 1.524 . S
C994 H1013 0.913 . S
C995 H971 0.950 . S
C995 C994 1.524 . S
C995 C996 1.415 . S
C996 H972 0.950 . S
C996 C991 1.363 . S
C996 C995 1.415 . S
C997 H973 0.951 . S
C997 C998 1.366 . S
C997 C999 1.388 . S
C998 C997 1.366 . S
C998 C1002 1.385 . S
C999 H974 0.951 . S
C999 C997 1.388 . S
C999 C1000 1.366 . S
C1000 C999 1.366 . S
C1000 C1001 1.414 . S
C1000 C1003 1.499 . S
C1001 H975 0.950 . S
C1001 C1000 1.414 . S
C1001 C1002 1.374 . S
C1002 H976 0.950 . S
C1002 C998 1.385 . S
C1002 C1001 1.374 . S
C1003 C1000 1.499 . S
C1003 C1004 1.373 . S
C1003 C1005 1.389 . S
C1004 H977 0.950 . S
C1004 C990 1.377 . S
C1004 C1003 1.373 . S
C1005 C989 1.377 . S
C1005 C1003 1.389 . S
C1005 C1006 1.524 . S
C1006 C1005 1.524 . S
C1006 C1007 1.397 . S
C1006 C1011 1.363 . S
C1007 H978 0.950 . S
C1007 C1006 1.397 . S
C1007 C1008 1.334 . S
C1008 H979 0.950 . S
C1008 C1007 1.334 . S
C1008 C1009 1.287 . S
C1009 C1008 1.287 . S
C1009 C1010 1.524 . S
C1009 H1012 0.999 . S
C1010 H980 0.950 . S
C1010 C1009 1.524 . S
C1010 C1011 1.415 . S
C1011 H981 0.950 . S
C1011 C1006 1.363 . S
C1011 C1010 1.415 . S
H1012 C1009 0.999 . S
H1013 C994 0.913 . S
H1014 C1032 0.951 . S
H1015 C1034 0.951 . S
H1016 C1036 0.950 . S
H1017 C1037 0.950 1_554 S
H1018 C1039 0.950 . S
H1019 C1042 0.950 . S
H1020 C1043 0.950 . S
H1021 C1045 0.950 . S
H1022 C1046 0.950 . S
H1023 C1047 0.951 . S
H1024 C1049 0.951 . S
H1025 C1051 0.950 . S
H1026 C1052 0.950 . S
H1027 C1054 0.950 . S
H1028 C1057 0.950 . S
H1029 C1058 0.950 . S
H1030 C1060 0.950 . S
H1031 C1061 0.950 . S
C1032 H1014 0.951 . S
C1032 C1033 1.366 . S
C1032 C1034 1.388 . S
C1033 C1032 1.366 . S
C1033 C1037 1.385 . S
C1034 H1015 0.951 . S
C1034 C1032 1.388 . S
C1034 C1035 1.366 . S
C1035 C1034 1.366 . S
C1035 C1036 1.414 . S
C1035 C1038 1.499 . S
C1036 H1016 0.950 . S
C1036 C1035 1.414 . S
C1036 C1037 1.374 . S
C1037 H1017 0.950 1_556 S
C1037 C1033 1.385 . S
C1037 C1036 1.374 . S
C1038 C1035 1.499 . S
C1038 C1039 1.373 . S
C1038 C1040 1.389 . S
C1039 H1018 0.950 . S
C1039 C1038 1.373 . S
C1039 C1055 1.377 . S
C1040 C1038 1.389 . S
C1040 C1041 1.524 . S
C1040 C1054 1.377 . S
C1041 C1040 1.524 . S
C1041 C1042 1.397 1_556 S
C1041 C1046 1.363 . S
C1042 H1019 0.950 . S
C1042 C1041 1.397 1_554 S
C1042 C1043 1.334 . S
C1043 H1020 0.950 . S
C1043 C1042 1.334 . S
C1043 C1044 1.287 . S
C1044 C1043 1.287 . S
C1044 C1045 1.524 1_554 S
C1044 H1063 0.913 . S
C1045 H1021 0.950 . S
C1045 C1044 1.524 1_556 S
C1045 C1046 1.415 . S
C1046 H1022 0.950 . S
C1046 C1041 1.363 . S
C1046 C1045 1.415 . S
C1047 H1023 0.951 . S
C1047 C1048 1.366 . S
C1047 C1049 1.388 . S
C1048 C1047 1.366 . S
C1048 C1052 1.385 . S
C1049 H1024 0.951 . S
C1049 C1047 1.388 . S
C1049 C1050 1.366 . S
C1050 C1049 1.366 . S
C1050 C1051 1.414 . S
C1050 C1053 1.499 . S
C1051 H1025 0.950 . S
C1051 C1050 1.414 . S
C1051 C1052 1.374 . S
C1052 H1026 0.950 . S
C1052 C1048 1.385 . S
C1052 C1051 1.374 . S
C1053 C1050 1.499 . S
C1053 C1054 1.373 . S
C1053 C1055 1.389 . S
C1054 H1027 0.950 . S
C1054 C1040 1.377 . S
C1054 C1053 1.373 . S
C1055 C1039 1.377 . S
C1055 C1053 1.389 . S
C1055 C1056 1.524 . S
C1056 C1055 1.524 . S
C1056 C1057 1.397 . S
C1056 C1061 1.363 . S
C1057 H1028 0.950 . S
C1057 C1056 1.397 . S
C1057 C1058 1.334 . S
C1058 H1029 0.950 . S
C1058 C1057 1.334 . S
C1058 C1059 1.287 . S
C1059 C1058 1.287 . S
C1059 C1060 1.524 . S
C1059 H1062 0.999 . S
C1060 H1030 0.950 . S
C1060 C1059 1.524 . S
C1060 C1061 1.415 . S
C1061 H1031 0.950 . S
C1061 C1056 1.363 . S
C1061 C1060 1.415 . S
H1062 C1059 0.999 . S
H1063 C1044 0.913 . S
H1064 C1082 0.951 . S
H1065 C1084 0.951 . S
H1066 C1086 0.950 . S
H1067 C1087 0.950 . S
H1068 C1089 0.950 . S
H1069 C1092 0.950 . S
H1070 C1093 0.950 . S
H1071 C1095 0.950 . S
H1072 C1096 0.950 . S
H1073 C1097 0.951 . S
H1074 C1099 0.951 . S
H1075 C1101 0.950 . S
H1076 C1102 0.950 . S
H1077 C1104 0.950 . S
H1078 C1107 0.950 . S
H1079 C1108 0.950 . S
H1080 C1110 0.950 . S
H1081 C1111 0.950 . S
C1082 H1064 0.951 . S
C1082 C1083 1.366 . S
C1082 C1084 1.388 . S
C1083 C1082 1.366 . S
C1083 C1087 1.385 . S
C1084 H1065 0.951 . S
C1084 C1082 1.388 . S
C1084 C1085 1.366 . S
C1085 C1084 1.366 . S
C1085 C1086 1.414 . S
C1085 C1088 1.499 . S
C1086 H1066 0.950 . S
C1086 C1085 1.414 . S
C1086 C1087 1.374 . S
C1087 H1067 0.950 . S
C1087 C1083 1.385 . S
C1087 C1086 1.374 . S
C1088 C1085 1.499 . S
C1088 C1089 1.373 . S
C1088 C1090 1.389 . S
C1089 H1068 0.950 . S
C1089 C1088 1.373 . S
C1089 C1105 1.377 . S
C1090 C1088 1.389 . S
C1090 C1091 1.524 . S
C1090 C1104 1.377 . S
C1091 C1090 1.524 . S
C1091 C1092 1.397 . S
C1091 C1096 1.363 . S
C1092 H1069 0.950 . S
C1092 C1091 1.397 . S
C1092 C1093 1.334 . S
C1093 H1070 0.950 . S
C1093 C1092 1.334 . S
C1093 C1094 1.287 . S
C1094 C1093 1.287 . S
C1094 C1095 1.524 . S
C1094 H1113 0.913 . S
C1095 H1071 0.950 . S
C1095 C1094 1.524 . S
C1095 C1096 1.415 . S
C1096 H1072 0.950 . S
C1096 C1091 1.363 . S
C1096 C1095 1.415 . S
C1097 H1073 0.951 . S
C1097 C1098 1.366 . S
C1097 C1099 1.388 . S
C1098 C1097 1.366 . S
C1098 C1102 1.385 . S
C1099 H1074 0.951 . S
C1099 C1097 1.388 . S
C1099 C1100 1.366 . S
C1100 C1099 1.366 . S
C1100 C1101 1.414 . S
C1100 C1103 1.499 . S
C1101 H1075 0.950 . S
C1101 C1100 1.414 . S
C1101 C1102 1.374 . S
C1102 H1076 0.950 . S
C1102 C1098 1.385 . S
C1102 C1101 1.374 . S
C1103 C1100 1.499 . S
C1103 C1104 1.373 . S
C1103 C1105 1.389 . S
C1104 H1077 0.950 . S
C1104 C1090 1.377 . S
C1104 C1103 1.373 . S
C1105 C1089 1.377 . S
C1105 C1103 1.389 . S
C1105 C1106 1.524 . S
C1106 C1105 1.524 . S
C1106 C1107 1.397 . S
C1106 C1111 1.363 . S
C1107 H1078 0.950 . S
C1107 C1106 1.397 . S
C1107 C1108 1.334 . S
C1108 H1079 0.950 . S
C1108 C1107 1.334 . S
C1108 C1109 1.287 . S
C1109 C1108 1.287 . S
C1109 C1110 1.524 . S
C1109 H1112 0.999 . S
C1110 H1080 0.950 . S
C1110 C1109 1.524 . S
C1110 C1111 1.415 . S
C1111 H1081 0.950 . S
C1111 C1106 1.363 . S
C1111 C1110 1.415 . S
H1112 C1109 0.999 . S
H1113 C1094 0.913 . S
H1114 C1132 0.951 . S
H1115 C1134 0.951 . S
H1116 C1136 0.950 . S
H1117 C1137 0.950 . S
H1118 C1139 0.950 . S
H1119 C1142 0.950 . S
H1120 C1143 0.950 . S
H1121 C1145 0.950 . S
H1122 C1146 0.950 . S
H1123 C1147 0.951 . S
H1124 C1149 0.951 . S
H1125 C1151 0.950 . S
H1126 C1152 0.950 . S
H1127 C1154 0.950 . S
H1128 C1157 0.950 . S
H1129 C1158 0.950 . S
H1130 C1160 0.950 . S
H1131 C1161 0.950 . S
C1132 H1114 0.951 . S
C1132 C1133 1.366 . S
C1132 C1134 1.388 . S
C1133 C1132 1.366 . S
C1133 C1137 1.385 . S
C1134 H1115 0.951 . S
C1134 C1132 1.388 . S
C1134 C1135 1.366 . S
C1135 C1134 1.366 . S
C1135 C1136 1.414 . S
C1135 C1138 1.499 . S
C1136 H1116 0.950 . S
C1136 C1135 1.414 . S
C1136 C1137 1.374 . S
C1137 H1117 0.950 . S
C1137 C1133 1.385 . S
C1137 C1136 1.374 . S
C1138 C1135 1.499 . S
C1138 C1139 1.373 . S
C1138 C1140 1.389 . S
C1139 H1118 0.950 . S
C1139 C1138 1.373 . S
C1139 C1155 1.377 . S
C1140 C1138 1.389 . S
C1140 C1141 1.524 . S
C1140 C1154 1.377 . S
C1141 C1140 1.524 . S
C1141 C1142 1.397 . S
C1141 C1146 1.363 . S
C1142 H1119 0.950 . S
C1142 C1141 1.397 . S
C1142 C1143 1.334 . S
C1143 H1120 0.950 . S
C1143 C1142 1.334 . S
C1143 C1144 1.287 . S
C1144 C1143 1.287 . S
C1144 C1145 1.524 . S
C1144 H1163 0.913 . S
C1145 H1121 0.950 . S
C1145 C1144 1.524 . S
C1145 C1146 1.415 . S
C1146 H1122 0.950 . S
C1146 C1141 1.363 . S
C1146 C1145 1.415 . S
C1147 H1123 0.951 . S
C1147 C1148 1.366 . S
C1147 C1149 1.388 . S
C1148 C1147 1.366 . S
C1148 C1152 1.385 . S
C1149 H1124 0.951 . S
C1149 C1147 1.388 . S
C1149 C1150 1.366 . S
C1150 C1149 1.366 . S
C1150 C1151 1.414 . S
C1150 C1153 1.499 . S
C1151 H1125 0.950 . S
C1151 C1150 1.414 . S
C1151 C1152 1.374 . S
C1152 H1126 0.950 . S
C1152 C1148 1.385 . S
C1152 C1151 1.374 . S
C1153 C1150 1.499 . S
C1153 C1154 1.373 . S
C1153 C1155 1.389 . S
C1154 H1127 0.950 . S
C1154 C1140 1.377 . S
C1154 C1153 1.373 . S
C1155 C1139 1.377 . S
C1155 C1153 1.389 . S
C1155 C1156 1.524 . S
C1156 C1155 1.524 . S
C1156 C1157 1.397 . S
C1156 C1161 1.363 . S
C1157 H1128 0.950 . S
C1157 C1156 1.397 . S
C1157 C1158 1.334 . S
C1158 H1129 0.950 . S
C1158 C1157 1.334 . S
C1158 C1159 1.287 . S
C1159 C1158 1.287 . S
C1159 C1160 1.524 . S
C1159 H1162 0.999 . S
C1160 H1130 0.950 . S
C1160 C1159 1.524 . S
C1160 C1161 1.415 . S
C1161 H1131 0.950 . S
C1161 C1156 1.363 . S
C1161 C1160 1.415 . S
H1162 C1159 0.999 . S
H1163 C1144 0.913 . S
H1164 C1182 0.951 . S
H1165 C1184 0.951 . S
H1166 C1186 0.950 . S
H1167 C1187 0.950 . S
H1168 C1189 0.950 . S
H1169 C1192 0.950 . S
H1170 C1193 0.950 . S
H1171 C1195 0.950 . S
H1172 C1196 0.950 . S
H1173 C1197 0.951 . S
H1174 C1199 0.951 . S
H1175 C1201 0.950 . S
H1176 C1202 0.950 . S
H1177 C1204 0.950 . S
H1178 C1207 0.950 . S
H1179 C1208 0.950 . S
H1180 C1210 0.950 . S
H1181 C1211 0.950 . S
C1182 H1164 0.951 . S
C1182 C1183 1.366 . S
C1182 C1184 1.388 . S
C1183 C1182 1.366 . S
C1183 C1187 1.385 . S
C1184 H1165 0.951 . S
C1184 C1182 1.388 . S
C1184 C1185 1.366 . S
C1185 C1184 1.366 . S
C1185 C1186 1.414 . S
C1185 C1188 1.499 . S
C1186 H1166 0.950 . S
C1186 C1185 1.414 . S
C1186 C1187 1.374 . S
C1187 H1167 0.950 . S
C1187 C1183 1.385 . S
C1187 C1186 1.374 . S
C1188 C1185 1.499 . S
C1188 C1189 1.373 . S
C1188 C1190 1.389 . S
C1189 H1168 0.950 . S
C1189 C1188 1.373 . S
C1189 C1205 1.377 . S
C1190 C1188 1.389 . S
C1190 C1191 1.524 . S
C1190 C1204 1.377 . S
C1191 C1190 1.524 . S
C1191 C1192 1.397 . S
C1191 C1196 1.363 . S
C1192 H1169 0.950 . S
C1192 C1191 1.397 . S
C1192 C1193 1.334 . S
C1193 H1170 0.950 . S
C1193 C1192 1.334 . S
C1193 C1194 1.287 . S
C1194 C1193 1.287 . S
C1194 C1195 1.524 . S
C1194 H1213 0.913 . S
C1195 H1171 0.950 . S
C1195 C1194 1.524 . S
C1195 C1196 1.415 . S
C1196 H1172 0.950 . S
C1196 C1191 1.363 . S
C1196 C1195 1.415 . S
C1197 H1173 0.951 . S
C1197 C1198 1.366 . S
C1197 C1199 1.388 . S
C1198 C1197 1.366 . S
C1198 C1202 1.385 1_556 S
C1199 H1174 0.951 . S
C1199 C1197 1.388 . S
C1199 C1200 1.366 1_556 S
C1200 C1199 1.366 1_554 S
C1200 C1201 1.414 . S
C1200 C1203 1.499 . S
C1201 H1175 0.950 . S
C1201 C1200 1.414 . S
C1201 C1202 1.374 . S
C1202 H1176 0.950 . S
C1202 C1198 1.385 1_554 S
C1202 C1201 1.374 . S
C1203 C1200 1.499 . S
C1203 C1204 1.373 . S
C1203 C1205 1.389 . S
C1204 H1177 0.950 . S
C1204 C1190 1.377 . S
C1204 C1203 1.373 . S
C1205 C1189 1.377 . S
C1205 C1203 1.389 . S
C1205 C1206 1.524 1_554 S
C1206 C1205 1.524 1_556 S
C1206 C1207 1.397 . S
C1206 C1211 1.363 . S
C1207 H1178 0.950 . S
C1207 C1206 1.397 . S
C1207 C1208 1.334 . S
C1208 H1179 0.950 . S
C1208 C1207 1.334 . S
C1208 C1209 1.287 . S
C1209 C1208 1.287 . S
C1209 C1210 1.524 . S
C1209 H1212 0.999 . S
C1210 H1180 0.950 . S
C1210 C1209 1.524 . S
C1210 C1211 1.415 . S
C1211 H1181 0.950 . S
C1211 C1206 1.363 . S
C1211 C1210 1.415 . S
H1212 C1209 0.999 . S
H1213 C1194 0.913 . S
H1214 C1232 0.951 . S
H1215 C1234 0.951 . S
H1216 C1236 0.950 . S
H1217 C1237 0.950 . S
H1218 C1239 0.950 . S
H1219 C1242 0.950 . S
H1220 C1243 0.950 . S
H1221 C1245 0.950 . S
H1222 C1246 0.950 . S
H1223 C1247 0.951 . S
H1224 C1249 0.951 . S
H1225 C1251 0.950 . S
H1226 C1252 0.950 . S
H1227 C1254 0.950 . S
H1228 C1257 0.950 . S
H1229 C1258 0.950 . S
H1230 C1260 0.950 . S
H1231 C1261 0.950 . S
C1232 H1214 0.951 . S
C1232 C1233 1.366 . S
C1232 C1234 1.388 . S
C1233 C1232 1.366 . S
C1233 C1237 1.385 . S
C1234 H1215 0.951 . S
C1234 C1232 1.388 . S
C1234 C1235 1.366 . S
C1235 C1234 1.366 . S
C1235 C1236 1.414 . S
C1235 C1238 1.499 . S
C1236 H1216 0.950 . S
C1236 C1235 1.414 . S
C1236 C1237 1.374 . S
C1237 H1217 0.950 . S
C1237 C1233 1.385 . S
C1237 C1236 1.374 . S
C1238 C1235 1.499 . S
C1238 C1239 1.373 . S
C1238 C1240 1.389 . S
C1239 H1218 0.950 . S
C1239 C1238 1.373 . S
C1239 C1255 1.377 . S
C1240 C1238 1.389 . S
C1240 C1241 1.524 . S
C1240 C1254 1.377 . S
C1241 C1240 1.524 . S
C1241 C1242 1.397 . S
C1241 C1246 1.363 . S
C1242 H1219 0.950 . S
C1242 C1241 1.397 . S
C1242 C1243 1.334 . S
C1243 H1220 0.950 . S
C1243 C1242 1.334 . S
C1243 C1244 1.287 . S
C1244 C1243 1.287 . S
C1244 C1245 1.524 . S
C1244 H1263 0.913 . S
C1245 H1221 0.950 . S
C1245 C1244 1.524 . S
C1245 C1246 1.415 . S
C1246 H1222 0.950 . S
C1246 C1241 1.363 . S
C1246 C1245 1.415 . S
C1247 H1223 0.951 . S
C1247 C1248 1.366 . S
C1247 C1249 1.388 . S
C1248 C1247 1.366 . S
C1248 C1252 1.385 . S
C1249 H1224 0.951 . S
C1249 C1247 1.388 . S
C1249 C1250 1.366 . S
C1250 C1249 1.366 . S
C1250 C1251 1.414 . S
C1250 C1253 1.499 . S
C1251 H1225 0.950 . S
C1251 C1250 1.414 . S
C1251 C1252 1.374 . S
C1252 H1226 0.950 . S
C1252 C1248 1.385 . S
C1252 C1251 1.374 . S
C1253 C1250 1.499 . S
C1253 C1254 1.373 . S
C1253 C1255 1.389 . S
C1254 H1227 0.950 . S
C1254 C1240 1.377 . S
C1254 C1253 1.373 . S
C1255 C1239 1.377 . S
C1255 C1253 1.389 . S
C1255 C1256 1.524 . S
C1256 C1255 1.524 . S
C1256 C1257 1.397 . S
C1256 C1261 1.363 . S
C1257 H1228 0.950 . S
C1257 C1256 1.397 . S
C1257 C1258 1.334 . S
C1258 H1229 0.950 . S
C1258 C1257 1.334 . S
C1258 C1259 1.287 . S
C1259 C1258 1.287 . S
C1259 C1260 1.524 . S
C1259 H1262 0.999 . S
C1260 H1230 0.950 . S
C1260 C1259 1.524 . S
C1260 C1261 1.415 . S
C1261 H1231 0.950 . S
C1261 C1256 1.363 . S
C1261 C1260 1.415 . S
H1262 C1259 0.999 . S
H1263 C1244 0.913 . S
H1264 C1282 0.951 . S
H1265 C1284 0.951 . S
H1266 C1286 0.950 . S
H1267 C1287 0.950 . S
H1268 C1289 0.950 . S
H1269 C1292 0.950 . S
H1270 C1293 0.950 . S
H1271 C1295 0.950 . S
H1272 C1296 0.950 . S
H1273 C1297 0.951 . S
H1274 C1299 0.951 . S
H1275 C1301 0.950 . S
H1276 C1302 0.950 . S
H1277 C1304 0.950 . S
H1278 C1307 0.950 . S
H1279 C1308 0.950 . S
H1280 C1310 0.950 . S
H1281 C1311 0.950 . S
C1282 H1264 0.951 . S
C1282 C1283 1.327 1_455 S
C1282 C1284 1.388 . S
C1283 C1282 1.327 1_655 S
C1283 C1287 1.430 . S
C1284 H1265 0.951 . S
C1284 C1282 1.388 . S
C1284 C1285 1.366 1_455 S
C1285 C1284 1.366 1_655 S
C1285 C1286 1.414 . S
C1285 C1288 1.499 . S
C1286 H1266 0.950 . S
C1286 C1285 1.414 . S
C1286 C1287 1.374 . S
C1287 H1267 0.950 . S
C1287 C1283 1.430 . S
C1287 C1286 1.374 . S
C1288 C1285 1.499 . S
C1288 C1289 1.373 . S
C1288 C1290 1.383 1_655 S
C1289 H1268 0.950 . S
C1289 C1288 1.373 . S
C1289 C1305 1.376 . S
C1290 C1288 1.383 1_455 S
C1290 C1291 1.530 . S
C1290 C1304 1.376 . S
C1291 C1290 1.530 . S
C1291 C1292 1.393 1_455 S
C1291 C1296 1.367 . S
C1292 H1269 0.950 . S
C1292 C1291 1.393 1_655 S
C1292 C1293 1.334 . S
C1293 H1270 0.950 . S
C1293 C1292 1.334 . S
C1293 C1294 1.287 . S
C1294 C1293 1.287 . S
C1294 C1295 1.524 1_655 S
C1294 H1313 0.913 . S
C1295 H1271 0.950 . S
C1295 C1294 1.524 1_455 S
C1295 C1296 1.415 . S
C1296 H1272 0.950 . S
C1296 C1291 1.367 . S
C1296 C1295 1.415 . S
C1297 H1273 0.951 . S
C1297 C1298 1.366 1_655 S
C1297 C1299 1.388 . S
C1298 C1297 1.366 1_455 S
C1298 C1302 1.385 . S
C1299 H1274 0.951 . S
C1299 C1297 1.388 . S
C1299 C1300 1.366 1_655 S
C1300 C1299 1.366 1_455 S
C1300 C1301 1.414 . S
C1300 C1303 1.499 . S
C1301 H1275 0.950 . S
C1301 C1300 1.414 . S
C1301 C1302 1.374 . S
C1302 H1276 0.950 . S
C1302 C1298 1.385 . S
C1302 C1301 1.374 . S
C1303 C1300 1.499 . S
C1303 C1304 1.373 . S
C1303 C1305 1.384 1_455 S
C1304 H1277 0.950 . S
C1304 C1290 1.376 . S
C1304 C1303 1.373 . S
C1305 C1289 1.376 . S
C1305 C1303 1.384 1_655 S
C1305 C1306 1.530 . S
C1306 C1305 1.530 . S
C1306 C1307 1.398 1_655 S
C1306 C1311 1.362 . S
C1307 H1278 0.950 . S
C1307 C1306 1.398 1_455 S
C1307 C1308 1.334 . S
C1308 H1279 0.950 . S
C1308 C1307 1.334 . S
C1308 C1309 1.287 . S
C1309 C1308 1.287 . S
C1309 C1310 1.524 1_455 S
C1309 H1312 0.999 . S
C1310 H1280 0.950 . S
C1310 C1309 1.524 1_655 S
C1310 C1311 1.415 . S
C1311 H1281 0.950 . S
C1311 C1306 1.362 . S
C1311 C1310 1.415 . S
H1312 C1309 0.999 . S
H1313 C1294 0.913 . S
H1314 C1332 0.951 . S
H1315 C1334 0.951 . S
H1316 C1336 0.950 . S
H1317 C1337 0.950 . S
H1318 C1339 0.950 . S
H1319 C1342 0.950 . S
H1320 C1343 0.950 . S
H1321 C1345 0.950 . S
H1322 C1346 0.950 . S
H1323 C1347 0.951 . S
H1324 C1349 0.951 . S
H1325 C1351 0.950 . S
H1326 C1352 0.950 . S
H1327 C1354 0.950 . S
H1328 C1357 0.950 . S
H1329 C1358 0.950 . S
H1330 C1360 0.950 . S
H1331 C1361 0.950 . S
C1332 H1314 0.951 . S
C1332 C1333 1.366 . S
C1332 C1334 1.388 . S
C1333 C1332 1.366 . S
C1333 C1337 1.385 . S
C1334 H1315 0.951 . S
C1334 C1332 1.388 . S
C1334 C1335 1.366 . S
C1335 C1334 1.366 . S
C1335 C1336 1.414 . S
C1335 C1338 1.499 . S
C1336 H1316 0.950 . S
C1336 C1335 1.414 . S
C1336 C1337 1.374 . S
C1337 H1317 0.950 . S
C1337 C1333 1.385 . S
C1337 C1336 1.374 . S
C1338 C1335 1.499 . S
C1338 C1339 1.373 . S
C1338 C1340 1.389 . S
C1339 H1318 0.950 . S
C1339 C1338 1.373 . S
C1339 C1355 1.377 . S
C1340 C1338 1.389 . S
C1340 C1341 1.524 . S
C1340 C1354 1.377 . S
C1341 C1340 1.524 . S
C1341 C1342 1.397 . S
C1341 C1346 1.363 . S
C1342 H1319 0.950 . S
C1342 C1341 1.397 . S
C1342 C1343 1.334 1_565 S
C1343 H1320 0.950 . S
C1343 C1342 1.334 1_545 S
C1343 C1344 1.287 . S
C1344 C1343 1.287 . S
C1344 C1345 1.524 1_545 S
C1344 H1363 0.913 . S
C1345 H1321 0.950 . S
C1345 C1344 1.524 1_565 S
C1345 C1346 1.415 . S
C1346 H1322 0.950 . S
C1346 C1341 1.363 . S
C1346 C1345 1.415 . S
C1347 H1323 0.951 . S
C1347 C1348 1.366 . S
C1347 C1349 1.388 . S
C1348 C1347 1.366 . S
C1348 C1352 1.385 . S
C1349 H1324 0.951 . S
C1349 C1347 1.388 . S
C1349 C1350 1.366 . S
C1350 C1349 1.366 . S
C1350 C1351 1.414 . S
C1350 C1353 1.499 . S
C1351 H1325 0.950 . S
C1351 C1350 1.414 . S
C1351 C1352 1.374 . S
C1352 H1326 0.950 . S
C1352 C1348 1.385 . S
C1352 C1351 1.374 . S
C1353 C1350 1.499 . S
C1353 C1354 1.373 . S
C1353 C1355 1.389 . S
C1354 H1327 0.950 . S
C1354 C1340 1.377 . S
C1354 C1353 1.373 . S
C1355 C1339 1.377 . S
C1355 C1353 1.389 . S
C1355 C1356 1.524 . S
C1356 C1355 1.524 . S
C1356 C1357 1.397 . S
C1356 C1361 1.363 . S
C1357 H1328 0.950 . S
C1357 C1356 1.397 . S
C1357 C1358 1.334 . S
C1358 H1329 0.950 . S
C1358 C1357 1.334 . S
C1358 C1359 1.287 . S
C1359 C1358 1.287 . S
C1359 C1360 1.524 . S
C1359 H1362 0.999 . S
C1360 H1330 0.950 . S
C1360 C1359 1.524 . S
C1360 C1361 1.415 . S
C1361 H1331 0.950 . S
C1361 C1356 1.363 . S
C1361 C1360 1.415 . S
H1362 C1359 0.999 . S
H1363 C1344 0.913 . S
H1364 C1382 0.951 . S
H1365 C1384 0.951 . S
H1366 C1386 0.950 . S
H1367 C1387 0.950 . S
H1368 C1389 0.950 . S
H1369 C1392 0.950 . S
H1370 C1393 0.950 . S
H1371 C1395 0.950 . S
H1372 C1396 0.950 . S
H1373 C1397 0.951 . S
H1374 C1399 0.951 . S
H1375 C1401 0.950 . S
H1376 C1402 0.950 . S
H1377 C1404 0.950 . S
H1378 C1407 0.950 . S
H1379 C1408 0.950 . S
H1380 C1410 0.950 . S
H1381 C1411 0.950 . S
C1382 H1364 0.951 . S
C1382 C1383 1.366 . S
C1382 C1384 1.388 . S
C1383 C1382 1.366 . S
C1383 C1387 1.385 . S
C1384 H1365 0.951 . S
C1384 C1382 1.388 . S
C1384 C1385 1.366 . S
C1385 C1384 1.366 . S
C1385 C1386 1.414 . S
C1385 C1388 1.499 . S
C1386 H1366 0.950 . S
C1386 C1385 1.414 . S
C1386 C1387 1.374 . S
C1387 H1367 0.950 . S
C1387 C1383 1.385 . S
C1387 C1386 1.374 . S
C1388 C1385 1.499 . S
C1388 C1389 1.373 . S
C1388 C1390 1.389 . S
C1389 H1368 0.950 . S
C1389 C1388 1.373 . S
C1389 C1405 1.377 . S
C1390 C1388 1.389 . S
C1390 C1391 1.524 . S
C1390 C1404 1.377 . S
C1391 C1390 1.524 . S
C1391 C1392 1.397 . S
C1391 C1396 1.363 . S
C1392 H1369 0.950 . S
C1392 C1391 1.397 . S
C1392 C1393 1.334 . S
C1393 H1370 0.950 . S
C1393 C1392 1.334 . S
C1393 C1394 1.287 . S
C1394 C1393 1.287 . S
C1394 C1395 1.524 . S
C1394 H1413 0.913 . S
C1395 H1371 0.950 . S
C1395 C1394 1.524 . S
C1395 C1396 1.415 . S
C1396 H1372 0.950 . S
C1396 C1391 1.363 . S
C1396 C1395 1.415 . S
C1397 H1373 0.951 . S
C1397 C1398 1.366 . S
C1397 C1399 1.388 . S
C1398 C1397 1.366 . S
C1398 C1402 1.385 . S
C1399 H1374 0.951 . S
C1399 C1397 1.388 . S
C1399 C1400 1.366 . S
C1400 C1399 1.366 . S
C1400 C1401 1.414 . S
C1400 C1403 1.499 . S
C1401 H1375 0.950 . S
C1401 C1400 1.414 . S
C1401 C1402 1.374 . S
C1402 H1376 0.950 . S
C1402 C1398 1.385 . S
C1402 C1401 1.374 . S
C1403 C1400 1.499 . S
C1403 C1404 1.373 . S
C1403 C1405 1.389 . S
C1404 H1377 0.950 . S
C1404 C1390 1.377 . S
C1404 C1403 1.373 . S
C1405 C1389 1.377 . S
C1405 C1403 1.389 . S
C1405 C1406 1.524 . S
C1406 C1405 1.524 . S
C1406 C1407 1.397 . S
C1406 C1411 1.363 . S
C1407 H1378 0.950 . S
C1407 C1406 1.397 . S
C1407 C1408 1.334 . S
C1408 H1379 0.950 . S
C1408 C1407 1.334 . S
C1408 C1409 1.287 . S
C1409 C1408 1.287 . S
C1409 C1410 1.524 . S
C1409 H1412 0.999 . S
C1410 H1380 0.950 . S
C1410 C1409 1.524 . S
C1410 C1411 1.415 . S
C1411 H1381 0.950 . S
C1411 C1406 1.363 . S
C1411 C1410 1.415 . S
H1412 C1409 0.999 . S
H1413 C1394 0.913 . S
H1414 C1432 0.951 . S
H1415 C1434 0.951 . S
H1416 C1436 0.950 . S
H1417 C1437 0.950 . S
H1418 C1439 0.950 . S
H1419 C1442 0.950 . S
H1420 C1443 0.950 . S
H1421 C1445 0.950 . S
H1422 C1446 0.950 . S
H1423 C1447 0.951 . S
H1424 C1449 0.951 . S
H1425 C1451 0.950 . S
H1426 C1452 0.950 . S
H1427 C1454 0.950 . S
H1428 C1457 0.950 . S
H1429 C1458 0.950 . S
H1430 C1460 0.950 . S
H1431 C1461 0.950 . S
C1432 H1414 0.951 . S
C1432 C1433 1.366 . S
C1432 C1434 1.388 . S
C1433 C1432 1.366 . S
C1433 C1437 1.385 . S
C1434 H1415 0.951 . S
C1434 C1432 1.388 . S
C1434 C1435 1.366 . S
C1435 C1434 1.366 . S
C1435 C1436 1.414 . S
C1435 C1438 1.499 . S
C1436 H1416 0.950 . S
C1436 C1435 1.414 . S
C1436 C1437 1.374 . S
C1437 H1417 0.950 . S
C1437 C1433 1.385 . S
C1437 C1436 1.374 . S
C1438 C1435 1.499 . S
C1438 C1439 1.373 . S
C1438 C1440 1.389 . S
C1439 H1418 0.950 . S
C1439 C1438 1.373 . S
C1439 C1455 1.377 . S
C1440 C1438 1.389 . S
C1440 C1441 1.524 . S
C1440 C1454 1.377 . S
C1441 C1440 1.524 . S
C1441 C1442 1.397 . S
C1441 C1446 1.363 . S
C1442 H1419 0.950 . S
C1442 C1441 1.397 . S
C1442 C1443 1.334 . S
C1443 H1420 0.950 . S
C1443 C1442 1.334 . S
C1443 C1444 1.287 . S
C1444 C1443 1.287 . S
C1444 C1445 1.524 . S
C1444 H1463 0.913 . S
C1445 H1421 0.950 . S
C1445 C1444 1.524 . S
C1445 C1446 1.415 . S
C1446 H1422 0.950 . S
C1446 C1441 1.363 . S
C1446 C1445 1.415 . S
C1447 H1423 0.951 . S
C1447 C1448 1.366 . S
C1447 C1449 1.388 . S
C1448 C1447 1.366 . S
C1448 C1452 1.385 . S
C1449 H1424 0.951 . S
C1449 C1447 1.388 . S
C1449 C1450 1.366 . S
C1450 C1449 1.366 . S
C1450 C1451 1.414 . S
C1450 C1453 1.499 . S
C1451 H1425 0.950 . S
C1451 C1450 1.414 . S
C1451 C1452 1.374 . S
C1452 H1426 0.950 . S
C1452 C1448 1.385 . S
C1452 C1451 1.374 . S
C1453 C1450 1.499 . S
C1453 C1454 1.373 . S
C1453 C1455 1.389 . S
C1454 H1427 0.950 . S
C1454 C1440 1.377 . S
C1454 C1453 1.373 . S
C1455 C1439 1.377 . S
C1455 C1453 1.389 . S
C1455 C1456 1.524 . S
C1456 C1455 1.524 . S
C1456 C1457 1.397 . S
C1456 C1461 1.363 . S
C1457 H1428 0.950 . S
C1457 C1456 1.397 . S
C1457 C1458 1.334 . S
C1458 H1429 0.950 . S
C1458 C1457 1.334 . S
C1458 C1459 1.287 . S
C1459 C1458 1.287 . S
C1459 C1460 1.524 . S
C1459 H1462 0.999 . S
C1460 H1430 0.950 . S
C1460 C1459 1.524 . S
C1460 C1461 1.415 . S
C1461 H1431 0.950 . S
C1461 C1456 1.363 . S
C1461 C1460 1.415 . S
H1462 C1459 0.999 . S
H1463 C1444 0.913 . S
C283 N80 1.659 . S
C298 C113 1.632 . S
C348 C153 1.277 . S
C333 N93 1.332 . S
C398 C202 1.264 . S
C383 N54 1.305 . S
C448 C233 1.600 . S
C433 N67 1.683 . S
C498 C122 1.623 1_565 S
C483 N28 1.675 . S
C533 N41 1.326 . S
C548 C162 1.277 . S
C583 N2 1.311 . S
C598 C193 1.263 . S
C633 N15 1.685 1_455 S
C648 C242 1.600 . S
C698 C123 0.671 . S
C683 N70 0.674 . S
C748 C163 1.188 . S
C733 N83 1.155 . S
C798 C199 0.565 . S
C783 N96 0.564 . S
C833 N57 0.822 . S
C848 C243 0.826 . S
C883 N18 0.672 . S
C898 C114 0.671 . S
C948 C154 1.188 . S
C933 N31 1.160 . S
C998 C190 0.566 . S
C983 N44 0.565 . S
C1033 N5 0.822 . S
C1048 C234 0.826 . S
C1083 N66 1.650 . S
C1098 C119 1.652 . S
C1133 N79 1.398 . S
C1148 C159 1.396 . S
C1198 C203 1.854 . S
C1183 N92 1.820 . S
C1248 C239 1.415 . S
C1233 N53 1.425 . S
C1283 N14 1.650 . S
C1298 C110 1.653 . S
C1348 C150 1.395 . S
C1333 N27 1.408 . S
C1398 C194 1.854 . S
C1383 N40 1.804 . S
C1433 N1 1.427 . S
C1448 C230 1.414 . S
