# Generated by pormake.
# Topology rtl, (3,6)-cn, num edge types: 1
# Building blocks:
#     Node 0, Type 0, BuildingBlock: PAMTOO_clean_linker_0, # of connection points: 3
#     Node 1, Type 0, BuildingBlock: PAMTOO_clean_linker_0, # of connection points: 3
#     Node 2, Type 0, BuildingBlock: PAMTOO_clean_linker_0, # of connection points: 3
#     Node 3, Type 0, BuildingBlock: PAMTOO_clean_linker_0, # of connection points: 3
#     Node 4, Type 1, BuildingBlock: CIFDUS_clean_sbu_1, # of connection points: 6
#     Node 5, Type 1, BuildingBlock: CIFDUS_clean_sbu_1, # of connection points: 6
#     Edge 6, Type (0, 1), BuildingBlock: EZIPEK_clean_linker_0, # of connection points: 2
#     Edge 7, Type (0, 1), BuildingBlock: EZIPEK_clean_linker_0, # of connection points: 2
#     Edge 8, Type (0, 1), BuildingBlock: EZIPEK_clean_linker_0, # of connection points: 2
#     Edge 9, Type (0, 1), BuildingBlock: EZIPEK_clean_linker_0, # of connection points: 2
#     Edge 10, Type (0, 1), BuildingBlock: EZIPEK_clean_linker_0, # of connection points: 2
#     Edge 11, Type (0, 1), BuildingBlock: EZIPEK_clean_linker_0, # of connection points: 2
#     Edge 12, Type (0, 1), BuildingBlock: EZIPEK_clean_linker_0, # of connection points: 2
#     Edge 13, Type (0, 1), BuildingBlock: EZIPEK_clean_linker_0, # of connection points: 2
#     Edge 14, Type (0, 1), BuildingBlock: EZIPEK_clean_linker_0, # of connection points: 2
#     Edge 15, Type (0, 1), BuildingBlock: EZIPEK_clean_linker_0, # of connection points: 2
#     Edge 16, Type (0, 1), BuildingBlock: EZIPEK_clean_linker_0, # of connection points: 2
#     Edge 17, Type (0, 1), BuildingBlock: EZIPEK_clean_linker_0, # of connection points: 2
# Relax obj value: 0.021
# Max RMSD: 0.108
# Mean RMSD: 0.086
data_MOF--net-rtl--node1-CIFDUS_clean_sbu_1--node2-PAMTOO_clean_linker_0--edge1-EZIPEK_clean_linker_0
_symmetry_space_group_name_H-M    P1
_symmetry_Int_Tables_number       1
_symmetry_cell_setting            triclinic
loop_
_symmetry_equiv_pos_as_xyz
'x, y, z'
_cell_length_a     25.877806
_cell_length_b     26.038398
_cell_length_c     15.790244
_cell_angle_alpha  91.995478
_cell_angle_beta   99.164976
_cell_angle_gamma 89.78625
loop_
_atom_site_label
_atom_site_type_symbol
_atom_site_fract_x
_atom_site_fract_y
_atom_site_fract_z
_atom_type_partial_charge
H0 H 0.11387 0.90457 0.09071 0.0
H1 H 0.2374 0.82477 0.2461 0.0
H2 H 0.2267 0.81746 0.97121 0.0
H3 H 0.23766 0.71827 0.14982 0.0
C4 C 0.27715 0.73569 0.15924 0.0
O5 O 0.27643 0.78194 0.11776 0.0
H6 H 0.28508 0.74333 0.22975 0.0
C7 C 0.14739 0.8791 0.09511 0.0
C8 C 0.16746 0.86405 0.02008 0.0
C9 C 0.17306 0.86606 0.17644 0.0
C10 C 0.21721 0.83448 0.18322 0.0
C11 C 0.23453 0.81404 0.1093 0.0
C12 C 0.21039 0.82975 0.02762 0.0
H13 H 0.64763 0.6175 0.55896 0.0
H14 H 0.74548 0.73521 0.48579 0.0
H15 H 0.72792 0.72373 0.75093 0.0
H16 H 0.74489 0.83785 0.65303 0.0
C17 C 0.77493 0.81904 0.62007 0.0
O18 O 0.78039 0.76872 0.64517 0.0
H19 H 0.75919 0.81999 0.55037 0.0
C20 C 0.67404 0.6497 0.57688 0.0
C21 C 0.68516 0.66702 0.66347 0.0
C22 C 0.69282 0.67605 0.51201 0.0
C23 C 0.72904 0.71606 0.5352 0.0
C24 C 0.74279 0.73242 0.6219 0.0
C25 C 0.71898 0.70941 0.68499 0.0
H26 H 0.91305 0.13941 0.04543 0.0
H27 H 0.81683 0.23878 0.87492 0.0
H28 H 0.81035 0.24861 0.14546 0.0
H29 H 0.71078 0.24258 0.93819 0.0
C30 C 0.72609 0.28224 0.94003 0.0
O31 O 0.77379 0.28666 0.99414 0.0
H32 H 0.73225 0.2868 0.8727 0.0
C33 C 0.88373 0.16941 0.03543 0.0
C34 C 0.86378 0.19143 0.10612 0.0
C35 C 0.86695 0.18623 0.95208 0.0
C36 C 0.82944 0.22525 0.93904 0.0
C37 C 0.80832 0.24731 1.00811 0.0
C38 C 0.8257 0.23061 0.09181 0.0
H39 H 0.40369 0.42791 0.51613 0.0
H40 H 0.31644 0.30944 0.61389 0.0
H41 H 0.29436 0.33432 0.34266 0.0
H42 H 0.19523 0.30889 0.46199 0.0
C43 C 0.21941 0.27669 0.49027 0.0
O44 O 0.26711 0.27728 0.4615 0.0
H45 H 0.22555 0.2846 0.56083 0.0
C46 C 0.37459 0.39753 0.50519 0.0
C47 C 0.35176 0.38336 0.42081 0.0
C48 C 0.36078 0.37224 0.57551 0.0
C49 C 0.32562 0.33064 0.56033 0.0
C50 C 0.30047 0.31787 0.47647 0.0
C51 C 0.31256 0.34529 0.40736 0.0
O52 O 0.98468 0.07668 0.458 0.0
Mn53 Mn 0.01858 0.02903 0.55917 0.0
O54 O 0.92594 0.02958 0.36887 0.0
Mn55 Mn 0.9501 0.96908 0.41618 0.0
O56 O 0.05089 0.98213 0.66376 0.0
O57 O 0.07658 0.08345 0.58462 0.0
Mn58 Mn 0.09136 0.08807 0.69735 0.0
O59 O 0.97369 0.0679 0.64027 0.0
O60 O 0.1189 0.02644 0.73465 0.0
O61 O 0.06496 0.98994 0.48005 0.0
O62 O 0.01024 0.94336 0.38234 0.0
O63 O 0.13484 0.13452 0.66351 0.0
O64 O 0.03212 0.11034 0.73897 0.0
C65 C 0.9232 0.94062 0.52372 0.0
C66 C 0.94809 0.07218 0.39228 0.0
C67 C 0.09144 0.98586 0.72318 0.0
C68 C 0.11285 0.11857 0.58771 0.0
C69 C 0.98542 0.09749 0.70753 0.0
C70 C 0.05602 0.95786 0.41561 0.0
O71 O 0.95999 0.97543 0.53018 0.0
O72 O 0.90338 0.92481 0.44668 0.0
O73 O 0.55925 0.57708 0.14587 0.0
Mn74 Mn 0.51867 0.52727 0.04774 0.0
O75 O 0.61052 0.52733 0.23771 0.0
Mn76 Mn 0.58099 0.467 0.19089 0.0
O77 O 0.47905 0.4789 0.94879 0.0
O78 O 0.46388 0.58374 0.02026 0.0
Mn79 Mn 0.45914 0.59307 0.90959 0.0
O80 O 0.56697 0.55379 0.96073 0.0
O81 O 0.43632 0.53211 0.85197 0.0
O82 O 0.46958 0.49924 0.13046 0.0
O83 O 0.51876 0.44897 0.22389 0.0
O84 O 0.41207 0.63801 0.94265 0.0
O85 O 0.52235 0.61771 0.89185 0.0
C86 C 0.60499 0.43145 0.08278 0.0
C87 C 0.59453 0.57115 0.21258 0.0
C88 C 0.44927 0.48721 0.87703 0.0
C89 C 0.42774 0.61904 0.0171 0.0
C90 C 0.56351 0.59101 0.90825 0.0
C91 C 0.47495 0.46818 0.19285 0.0
O92 O 0.5717 0.46946 0.07731 0.0
O93 O 0.62322 0.41682 0.15936 0.0
C94 C 0.21698 0.17848 0.50759 0.0
C95 C 0.19203 0.2243 0.47451 0.0
C96 C 0.10651 0.18444 0.47596 0.0
C97 C 0.1318 0.14073 0.51349 0.0
N98 N 0.20733 0.08689 0.52629 0.0
N99 N 0.11408 0.25777 0.38866 0.0
C100 C 0.18575 0.13433 0.5129 0.0
C101 C 0.13704 0.22279 0.44503 0.0
N102 N 0.26892 0.17773 0.54167 0.0
N103 N 0.05433 0.19144 0.47641 0.0
H104 H 0.13594 0.28349 0.3595 0.0
H105 H 0.07448 0.25621 0.36241 0.0
H106 H 0.03146 0.16376 0.49914 0.0
H107 H 0.03493 0.22544 0.45821 0.0
H108 H 0.28654 0.14646 0.57419 0.0
H109 H 0.29385 0.2091 0.54465 0.0
H110 H 0.2463 0.07886 0.52165 0.0
H111 H 0.18413 0.05499 0.53324 0.0
C112 C 0.30708 0.65208 0.08997 0.0
C113 C 0.31996 0.7001 0.13466 0.0
C114 C 0.41337 0.6826 0.13094 0.0
C115 C 0.39956 0.63508 0.0877 0.0
N116 N 0.3376 0.56672 0.05531 0.0
N117 N 0.38752 0.75592 0.21292 0.0
C118 C 0.34782 0.61697 0.07928 0.0
C119 C 0.37388 0.71348 0.16087 0.0
N120 N 0.25707 0.64129 0.05101 0.0
N121 N 0.4638 0.69954 0.13801 0.0
H122 H 0.36052 0.7818 0.23218 0.0
H123 H 0.42588 0.76392 0.24148 0.0
H124 H 0.49331 0.67633 0.11931 0.0
H125 H 0.47581 0.73662 0.15879 0.0
H126 H 0.24729 0.60828 0.01269 0.0
H127 H 0.22657 0.66768 0.0461 0.0
H128 H 0.30104 0.54977 0.05401 0.0
H129 H 0.3676 0.54121 0.0459 0.0
C130 C 0.82965 0.89991 0.66402 0.0
C131 C 0.82747 0.84768 0.633 0.0
C132 C 0.91435 0.86051 0.59366 0.0
C133 C 0.90643 0.91396 0.5957 0.0
N134 N 0.85667 0.98603 0.63622 0.0
N135 N 0.87043 0.77962 0.55952 0.0
C136 C 0.86483 0.93429 0.63409 0.0
C137 C 0.87126 0.82765 0.59746 0.0
N138 N 0.7986 0.91669 0.72143 0.0
N139 N 0.96152 0.84174 0.57909 0.0
H140 H 0.83908 0.75437 0.55368 0.0
H141 H 0.89965 0.76649 0.52577 0.0
H142 H 0.99246 0.86638 0.5733 0.0
H143 H 0.97095 0.8028 0.5818 0.0
H144 H 0.80111 0.95385 0.74858 0.0
H145 H 0.77611 0.89171 0.75078 0.0
H146 H 0.82343 1.00275 0.655 0.0
H147 H 0.88252 0.01163 0.61531 0.0
C148 C 0.69879 0.37669 0.94953 0.0
C149 C 0.68818 0.32383 0.96251 0.0
C150 C 0.60419 0.34988 1.00364 0.0
C151 C 0.62042 0.40152 1.00991 0.0
N152 N 0.68134 0.46612 0.98577 0.0
N153 N 0.63318 0.26243 0.02011 0.0
C154 C 0.66665 0.41564 0.97983 0.0
C155 C 0.64114 0.31073 0.99332 0.0
N156 N 0.7399 0.38987 0.90997 0.0
N157 N 0.55411 0.33856 0.01352 0.0
H158 H 0.66117 0.23349 0.02518 0.0
H159 H 0.60111 0.25297 0.04892 0.0
H160 H 0.5273 0.36755 0.02265 0.0
H161 H 0.53825 0.30169 1.00352 0.0
H162 H 0.74571 0.42694 0.8906 0.0
H163 H 0.76673 0.36352 0.89151 0.0
H164 H 0.71779 0.47904 0.97554 0.0
H165 H 0.65698 0.49495 1.00464 0.0
C166 C 0.1618 0.94109 0.27585 0.0
C167 C 0.1544 0.88795 0.25444 0.0
C168 C 0.10197 0.88062 0.36935 0.0
C169 C 0.09958 0.93496 0.37669 0.0
N170 N 0.12743 0.01803 0.33744 0.0
N171 N 0.11738 0.80618 0.28047 0.0
C172 C 0.13044 0.96565 0.3315 0.0
C173 C 0.12526 0.85714 0.30221 0.0
N174 N 0.19914 0.96774 0.24344 0.0
N175 N 0.08163 0.85174 0.42677 0.0
H176 H 0.13422 0.78745 0.23219 0.0
H177 H 0.09146 0.7832 0.30647 0.0
H178 H 0.06514 0.86843 0.47729 0.0
H179 H 0.08588 0.81202 0.42968 0.0
H180 H 0.20945 0.00558 0.26195 0.0
H181 H 0.22372 0.95004 0.20491 0.0
H182 H 0.14396 0.04221 0.29786 0.0
H183 H 0.10595 0.03749 0.3789 0.0
C184 C 0.68428 0.62675 0.80966 0.0
C185 C 0.65734 0.64302 0.72884 0.0
C186 C 0.57853 0.60195 0.75997 0.0
C187 C 0.60107 0.59735 0.84705 0.0
N188 N 0.67648 0.60811 0.95714 0.0
N189 N 0.57274 0.65886 0.64306 0.0
C190 C 0.65455 0.61015 0.8729 0.0
C191 C 0.6027 0.63399 0.70811 0.0
N192 N 0.73764 0.62526 0.82503 0.0
N193 N 0.53305 0.5769 0.7275 0.0
H194 H 0.58747 0.68807 0.61022 0.0
H195 H 0.53207 0.6553 0.63025 0.0
H196 H 0.51547 0.55127 0.76365 0.0
H197 H 0.5169 0.57725 0.66261 0.0
H198 H 0.75871 0.61 0.88024 0.0
H199 H 0.76047 0.63406 0.77871 0.0
H200 H 0.71394 0.62195 0.98069 0.0
H201 H 0.65574 0.5954 1.0039 0.0
C202 C 0.8517 0.14765 0.24339 0.0
C203 C 0.88467 0.17305 0.1942 0.0
C204 C 0.96221 0.14208 0.29004 0.0
C205 C 0.92911 0.11676 0.3389 0.0
N206 N 0.84372 0.11053 0.37956 0.0
N207 N 0.96997 0.20851 0.18876 0.0
C208 C 0.87427 0.12512 0.32155 0.0
C209 C 0.93955 0.17509 0.22399 0.0
N210 N 0.79959 0.14133 0.21287 0.0
N211 N 0.01462 0.1319 0.30195 0.0
H212 H 0.95427 0.23375 0.14149 0.0
H213 H 0.00942 0.21485 0.21269 0.0
H214 H 0.03274 0.10788 0.34913 0.0
H215 H 0.03953 0.14472 0.26138 0.0
H216 H 0.77521 0.11817 0.24185 0.0
H217 H 0.78144 0.15535 0.15463 0.0
H218 H 0.80406 0.11941 0.37419 0.0
H219 H 0.85957 0.09443 0.43766 0.0
C220 C 0.35012 0.41717 0.7162 0.0
C221 C 0.38275 0.39074 0.66474 0.0
C222 C 0.46056 0.41655 0.76816 0.0
C223 C 0.42784 0.44398 0.81796 0.0
N224 N 0.3422 0.45718 0.85482 0.0
N225 N 0.46668 0.35341 0.65303 0.0
C226 C 0.37275 0.43948 0.79707 0.0
C227 C 0.43732 0.38644 0.69476 0.0
N228 N 0.29821 0.42416 0.68553 0.0
N229 N 0.51369 0.42168 0.78795 0.0
H230 H 0.45051 0.33079 0.59956 0.0
H231 H 0.50568 0.34496 0.67571 0.0
H232 H 0.53197 0.44204 0.84252 0.0
H233 H 0.53956 0.40796 0.7483 0.0
H234 H 0.27399 0.44816 0.71583 0.0
H235 H 0.27992 0.40923 0.62627 0.0
H236 H 0.30195 0.45111 0.84729 0.0
H237 H 0.35822 0.47333 0.91467 0.0
C238 C 0.70007 0.63672 0.36497 0.0
C239 C 0.67031 0.66344 0.42034 0.0
C240 C 0.5894 0.64431 0.31983 0.0
C241 C 0.61885 0.61529 0.26676 0.0
N242 N 0.70217 0.59861 0.22284 0.0
N243 N 0.59078 0.70877 0.43497 0.0
C244 C 0.67437 0.61711 0.28387 0.0
C245 C 0.61625 0.67275 0.39218 0.0
N246 N 0.7519 0.62709 0.39187 0.0
N247 N 0.536 0.64173 0.30527 0.0
H248 H 0.61012 0.73104 0.48656 0.0
H249 H 0.55242 0.72023 0.4138 0.0
H250 H 0.51499 0.62178 0.25259 0.0
H251 H 0.51271 0.65698 0.348 0.0
H252 H 0.77416 0.6028 0.35829 0.0
H253 H 0.77201 0.64084 0.45071 0.0
H254 H 0.74261 0.60231 0.22791 0.0
H255 H 0.6837 0.58406 0.16324 0.0
C256 C 0.91964 0.19525 0.83206 0.0
C257 C 0.89018 0.16379 0.87867 0.0
C258 C 0.91679 0.08719 0.8018 0.0
C259 C 0.9441 0.11905 0.75281 0.0
N260 N 0.95905 0.20336 0.70389 0.0
N261 N 0.84887 0.08191 0.89045 0.0
C262 C 0.94094 0.17317 0.76192 0.0
C263 C 0.88481 0.11035 0.8577 0.0
N264 N 0.9306 0.24518 0.85819 0.0
N265 N 0.92399 0.03518 0.79948 0.0
H266 H 0.82412 0.09792 0.93035 0.0
H267 H 0.84008 0.04385 0.87107 0.0
H268 H 0.94739 0.01675 0.7598 0.0
H269 H 0.90962 0.01077 0.84122 0.0
H270 H 0.95639 0.26797 0.83151 0.0
H271 H 0.91831 0.26246 0.91208 0.0
H272 H 0.95364 0.24303 0.70285 0.0
H273 H 0.97457 0.18793 0.65142 0.0
C274 C 0.37008 0.45952 0.33501 0.0
C275 C 0.37262 0.4056 0.34706 0.0
C276 C 0.42152 0.39574 0.22696 0.0
C277 C 0.42904 0.44952 0.22844 0.0
N278 N 0.40987 0.53396 0.28217 0.0
N279 N 0.4072 0.32263 0.30984 0.0
C280 C 0.4023 0.48204 0.28078 0.0
C281 C 0.3992 0.3735 0.29337 0.0
N282 N 0.3368 0.48891 0.37519 0.0
N283 N 0.43701 0.36592 0.16268 0.0
H284 H 0.39445 0.30473 0.36076 0.0
H285 H 0.43119 0.29919 0.27802 0.0
H286 H 0.45313 0.38176 0.11288 0.0
H287 H 0.42864 0.3268 0.15388 0.0
H288 H 0.32987 0.52765 0.36358 0.0
H289 H 0.31242 0.47322 0.41429 0.0
H290 H 0.39648 0.55928 0.32632 0.0
H291 H 0.43184 0.55152 0.24132 0.0
C292 C 0.14468 0.94601 0.94429 0.0
C293 C 0.14784 0.89168 0.93865 0.0
C294 C 0.11034 0.89575 0.78448 0.0
C295 C 0.10175 0.94937 0.79552 0.0
N296 N 0.09157 0.0186 0.89752 0.0
N297 N 0.12383 0.81368 0.85428 0.0
C298 C 0.11247 0.97204 0.87938 0.0
C299 C 0.12782 0.86594 0.8588 0.0
N300 N 0.17432 0.9734 1.0097 0.0
N301 N 0.10333 0.8736 0.70394 0.0
H302 H 0.13484 0.79114 0.90743 0.0
H303 H 0.10542 0.79333 0.79988 0.0
H304 H 0.09009 0.89429 0.64935 0.0
H305 H 0.11383 0.83577 0.69133 0.0
H306 H 0.17522 0.01349 0.01265 0.0
H307 H 0.20287 0.95624 0.05384 0.0
H308 H 0.09607 0.03483 0.95963 0.0
H309 H 0.06465 0.03739 0.85275 0.0
loop_
_geom_bond_atom_site_label_1
_geom_bond_atom_site_label_2
_geom_bond_distance
_geom_bond_site_symmetry_2
_ccdc_geom_bond_type
H0 C7 0.929 . S
H1 C10 0.930 . S
H2 C12 0.929 . S
H3 C4 0.969 . S
C4 H3 0.969 . S
C4 O5 1.550 . S
C4 H6 0.973 . S
O5 C4 1.550 . S
O5 C11 1.412 . S
H6 C4 0.973 . S
C7 H0 0.929 . S
C7 C8 1.400 . S
C7 C9 1.364 . S
C8 C7 1.400 . S
C8 C12 1.377 1_554 S
C9 C7 1.364 . S
C9 C10 1.374 . S
C10 H1 0.930 . S
C10 C9 1.374 . S
C10 C11 1.383 . S
C11 O5 1.412 . S
C11 C10 1.383 . S
C11 C12 1.394 1_554 S
C12 H2 0.929 . S
C12 C8 1.377 1_556 S
C12 C11 1.394 1_556 S
H13 C20 0.929 . S
H14 C23 0.930 . S
H15 C25 0.929 . S
H16 C17 0.969 . S
C17 H16 0.969 . S
C17 O18 1.550 . S
C17 H19 0.973 . S
O18 C17 1.550 . S
O18 C24 1.412 . S
H19 C17 0.973 . S
C20 H13 0.929 . S
C20 C21 1.400 . S
C20 C22 1.364 . S
C21 C20 1.400 . S
C21 C25 1.377 . S
C22 C20 1.364 . S
C22 C23 1.374 . S
C23 H14 0.930 . S
C23 C22 1.374 . S
C23 C24 1.383 . S
C24 O18 1.412 . S
C24 C23 1.383 . S
C24 C25 1.394 . S
C25 H15 0.929 . S
C25 C21 1.377 . S
C25 C24 1.394 . S
H26 C33 0.929 . S
H27 C36 0.930 . S
H28 C38 0.929 . S
H29 C30 0.969 . S
C30 H29 0.969 . S
C30 O31 1.550 1_556 S
C30 H32 0.973 . S
O31 C30 1.550 1_554 S
O31 C37 1.412 . S
H32 C30 0.973 . S
C33 H26 0.929 . S
C33 C34 1.400 . S
C33 C35 1.364 1_554 S
C34 C33 1.400 . S
C34 C38 1.377 . S
C35 C33 1.364 1_556 S
C35 C36 1.374 . S
C36 H27 0.930 . S
C36 C35 1.374 . S
C36 C37 1.383 1_556 S
C37 O31 1.412 . S
C37 C36 1.383 1_554 S
C37 C38 1.394 . S
C38 H28 0.929 . S
C38 C34 1.377 . S
C38 C37 1.394 . S
H39 C46 0.929 . S
H40 C49 0.930 . S
H41 C51 0.929 . S
H42 C43 0.969 . S
C43 H42 0.969 . S
C43 O44 1.550 . S
C43 H45 0.973 . S
O44 C43 1.550 . S
O44 C50 1.412 . S
H45 C43 0.973 . S
C46 H39 0.929 . S
C46 C47 1.400 . S
C46 C48 1.364 . S
C47 C46 1.400 . S
C47 C51 1.377 . S
C48 C46 1.364 . S
C48 C49 1.374 . S
C49 H40 0.930 . S
C49 C48 1.374 . S
C49 C50 1.383 . S
C50 O44 1.412 . S
C50 C49 1.383 . S
C50 C51 1.394 . S
C51 H41 0.929 . S
C51 C47 1.377 . S
C51 C50 1.394 . S
O52 Mn53 2.163 1_655 S
O52 C66 1.244 . S
Mn53 O52 2.163 1_455 S
Mn53 O56 2.160 1_545 S
Mn53 O57 2.221 . S
Mn53 O59 2.163 1_455 S
Mn53 O61 2.160 1_545 S
Mn53 O71 2.221 1_445 S
O54 Mn55 2.087 1_545 S
O54 C66 1.256 . S
Mn55 O54 2.087 1_565 S
Mn55 O62 2.089 1_655 S
Mn55 O71 2.290 . S
Mn55 O72 2.251 . S
O56 Mn53 2.160 1_565 S
O56 C67 1.239 . S
O57 Mn53 2.221 . S
O57 Mn58 2.290 . S
O57 C68 1.278 . S
Mn58 O57 2.290 . S
Mn58 O60 2.089 . S
Mn58 O63 2.251 . S
Mn58 O64 2.087 . S
O59 Mn53 2.163 1_655 S
O59 C69 1.244 . S
O60 Mn58 2.089 . S
O60 C67 1.256 1_545 S
O61 Mn53 2.160 1_565 S
O61 C70 1.239 . S
O62 Mn55 2.089 1_455 S
O62 C70 1.256 . S
O63 Mn58 2.251 . S
O63 C68 1.241 . S
O64 Mn58 2.087 . S
O64 C69 1.256 1_455 S
C65 O71 1.278 . S
C65 O72 1.241 . S
C66 O52 1.244 . S
C66 O54 1.256 . S
C67 O56 1.239 . S
C67 O60 1.256 1_565 S
C68 O57 1.278 . S
C68 O63 1.241 . S
C69 O59 1.244 . S
C69 O64 1.256 1_655 S
C70 O61 1.239 . S
C70 O62 1.256 . S
O71 Mn53 2.221 1_665 S
O71 Mn55 2.290 . S
O71 C65 1.278 . S
O72 Mn55 2.251 . S
O72 C65 1.241 . S
O73 Mn74 2.163 . S
O73 C87 1.244 . S
Mn74 O73 2.163 . S
Mn74 O77 2.160 1_554 S
Mn74 O78 2.221 . S
Mn74 O80 2.163 1_554 S
Mn74 O82 2.160 . S
Mn74 O92 2.221 . S
O75 Mn76 2.087 . S
O75 C87 1.256 . S
Mn76 O75 2.087 . S
Mn76 O83 2.089 . S
Mn76 O92 2.290 . S
Mn76 O93 2.251 . S
O77 Mn74 2.160 1_556 S
O77 C88 1.239 . S
O78 Mn74 2.221 . S
O78 Mn79 2.290 1_554 S
O78 C89 1.278 . S
Mn79 O78 2.290 1_556 S
Mn79 O81 2.089 . S
Mn79 O84 2.251 . S
Mn79 O85 2.087 . S
O80 Mn74 2.163 1_556 S
O80 C90 1.244 . S
O81 Mn79 2.089 . S
O81 C88 1.256 . S
O82 Mn74 2.160 . S
O82 C91 1.239 . S
O83 Mn76 2.089 . S
O83 C91 1.256 . S
O84 Mn79 2.251 . S
O84 C89 1.241 1_556 S
O85 Mn79 2.087 . S
O85 C90 1.256 . S
C86 O92 1.278 . S
C86 O93 1.241 . S
C87 O73 1.244 . S
C87 O75 1.256 . S
C88 O77 1.239 . S
C88 O81 1.256 . S
C89 O78 1.278 . S
C89 O84 1.241 1_554 S
C90 O80 1.244 . S
C90 O85 1.256 . S
C91 O82 1.239 . S
C91 O83 1.256 . S
O92 Mn74 2.221 . S
O92 Mn76 2.290 . S
O92 C86 1.278 . S
O93 Mn76 2.251 . S
O93 C86 1.241 . S
C94 C95 1.363 . S
C94 C100 1.379 . S
C94 N102 1.356 . S
C95 C94 1.363 . S
C95 C101 1.363 . S
C96 C97 1.363 . S
C96 C101 1.379 . S
C96 N103 1.356 . S
C97 C96 1.363 . S
C97 C100 1.363 . S
N98 C100 1.356 . S
N98 H110 0.984 . S
N98 H111 0.985 . S
N99 C101 1.356 . S
N99 H104 0.984 . S
N99 H105 0.985 . S
C100 C94 1.379 . S
C100 C97 1.363 . S
C100 N98 1.356 . S
C101 C95 1.363 . S
C101 C96 1.379 . S
C101 N99 1.356 . S
N102 C94 1.356 . S
N102 H108 0.984 . S
N102 H109 0.984 . S
N103 C96 1.356 . S
N103 H106 0.984 . S
N103 H107 0.985 . S
H104 N99 0.984 . S
H105 N99 0.985 . S
H106 N103 0.984 . S
H107 N103 0.985 . S
H108 N102 0.984 . S
H109 N102 0.984 . S
H110 N98 0.984 . S
H111 N98 0.985 . S
C112 C113 1.363 . S
C112 C118 1.379 . S
C112 N120 1.356 . S
C113 C112 1.363 . S
C113 C119 1.363 . S
C114 C115 1.363 . S
C114 C119 1.379 . S
C114 N121 1.356 . S
C115 C114 1.363 . S
C115 C118 1.363 . S
N116 C118 1.356 1_556 S
N116 H128 0.984 . S
N116 H129 0.985 . S
N117 C119 1.356 . S
N117 H122 0.984 . S
N117 H123 0.985 . S
C118 C112 1.379 . S
C118 C115 1.363 . S
C118 N116 1.356 1_554 S
C119 C113 1.363 . S
C119 C114 1.379 . S
C119 N117 1.356 . S
N120 C112 1.356 . S
N120 H126 0.984 1_554 S
N120 H127 0.984 . S
N121 C114 1.356 . S
N121 H124 0.984 . S
N121 H125 0.985 . S
H122 N117 0.984 . S
H123 N117 0.985 . S
H124 N121 0.984 . S
H125 N121 0.985 . S
H126 N120 0.984 1_556 S
H127 N120 0.984 . S
H128 N116 0.984 . S
H129 N116 0.985 . S
C130 C131 1.363 . S
C130 C136 1.379 . S
C130 N138 1.356 . S
C131 C130 1.363 . S
C131 C137 1.363 . S
C132 C133 1.363 . S
C132 C137 1.379 . S
C132 N139 1.356 . S
C133 C132 1.363 . S
C133 C136 1.363 . S
N134 C136 1.356 . S
N134 H146 0.984 . S
N134 H147 0.985 . S
N135 C137 1.356 . S
N135 H140 0.984 . S
N135 H141 0.985 . S
C136 C130 1.379 . S
C136 C133 1.363 . S
C136 N134 1.356 . S
C137 C131 1.363 . S
C137 C132 1.379 . S
C137 N135 1.356 . S
N138 C130 1.356 . S
N138 H144 0.984 . S
N138 H145 0.984 . S
N139 C132 1.356 . S
N139 H142 0.984 . S
N139 H143 0.985 . S
H140 N135 0.984 . S
H141 N135 0.985 . S
H142 N139 0.984 . S
H143 N139 0.985 . S
H144 N138 0.984 . S
H145 N138 0.984 . S
H146 N134 0.984 . S
H147 N134 0.985 . S
C148 C149 1.363 . S
C148 C154 1.379 . S
C148 N156 1.356 . S
C149 C148 1.363 . S
C149 C155 1.363 1_556 S
C150 C151 1.363 . S
C150 C155 1.379 . S
C150 N157 1.356 . S
C151 C150 1.363 . S
C151 C154 1.363 1_554 S
N152 C154 1.356 . S
N152 H164 0.984 . S
N152 H165 0.985 . S
N153 C155 1.356 . S
N153 H158 0.984 . S
N153 H159 0.985 . S
C154 C148 1.379 . S
C154 C151 1.363 1_556 S
C154 N152 1.356 . S
C155 C149 1.363 1_554 S
C155 C150 1.379 . S
C155 N153 1.356 . S
N156 C148 1.356 . S
N156 H162 0.984 . S
N156 H163 0.984 . S
N157 C150 1.356 . S
N157 H160 0.984 . S
N157 H161 0.985 . S
H158 N153 0.984 . S
H159 N153 0.985 . S
H160 N157 0.984 . S
H161 N157 0.985 . S
H162 N156 0.984 . S
H163 N156 0.984 . S
H164 N152 0.984 . S
H165 N152 0.985 . S
C166 C167 1.363 . S
C166 C172 1.379 . S
C166 N174 1.356 . S
C167 C166 1.363 . S
C167 C173 1.363 . S
C168 C169 1.363 . S
C168 C173 1.379 . S
C168 N175 1.356 . S
C169 C168 1.363 . S
C169 C172 1.363 . S
N170 C172 1.356 1_545 S
N170 H182 0.984 . S
N170 H183 0.985 . S
N171 C173 1.356 . S
N171 H176 0.984 . S
N171 H177 0.985 . S
C172 C166 1.379 . S
C172 C169 1.363 . S
C172 N170 1.356 1_565 S
C173 C167 1.363 . S
C173 C168 1.379 . S
C173 N171 1.356 . S
N174 C166 1.356 . S
N174 H180 0.984 . S
N174 H181 0.984 . S
N175 C168 1.356 . S
N175 H178 0.984 . S
N175 H179 0.985 . S
H176 N171 0.984 . S
H177 N171 0.985 . S
H178 N175 0.984 . S
H179 N175 0.985 . S
H180 N174 0.984 . S
H181 N174 0.984 . S
H182 N170 0.984 . S
H183 N170 0.985 . S
C184 C185 1.363 . S
C184 C190 1.379 . S
C184 N192 1.356 . S
C185 C184 1.363 . S
C185 C191 1.363 . S
C186 C187 1.363 . S
C186 C191 1.379 . S
C186 N193 1.356 . S
C187 C186 1.363 . S
C187 C190 1.363 . S
N188 C190 1.356 . S
N188 H200 0.984 . S
N188 H201 0.985 . S
N189 C191 1.356 . S
N189 H194 0.984 . S
N189 H195 0.985 . S
C190 C184 1.379 . S
C190 C187 1.363 . S
C190 N188 1.356 . S
C191 C185 1.363 . S
C191 C186 1.379 . S
C191 N189 1.356 . S
N192 C184 1.356 . S
N192 H198 0.984 . S
N192 H199 0.984 . S
N193 C186 1.356 . S
N193 H196 0.984 . S
N193 H197 0.985 . S
H194 N189 0.984 . S
H195 N189 0.985 . S
H196 N193 0.984 . S
H197 N193 0.985 . S
H198 N192 0.984 . S
H199 N192 0.984 . S
H200 N188 0.984 . S
H201 N188 0.985 . S
C202 C203 1.363 . S
C202 C208 1.379 . S
C202 N210 1.356 . S
C203 C202 1.363 . S
C203 C209 1.363 . S
C204 C205 1.363 . S
C204 C209 1.379 . S
C204 N211 1.356 . S
C205 C204 1.363 . S
C205 C208 1.363 . S
N206 C208 1.356 . S
N206 H218 0.984 . S
N206 H219 0.985 . S
N207 C209 1.356 . S
N207 H212 0.984 . S
N207 H213 0.985 . S
C208 C202 1.379 . S
C208 C205 1.363 . S
C208 N206 1.356 . S
C209 C203 1.363 . S
C209 C204 1.379 . S
C209 N207 1.356 . S
N210 C202 1.356 . S
N210 H216 0.984 . S
N210 H217 0.984 . S
N211 C204 1.356 . S
N211 H214 0.984 1_655 S
N211 H215 0.985 1_655 S
H212 N207 0.984 . S
H213 N207 0.985 . S
H214 N211 0.984 1_455 S
H215 N211 0.985 1_455 S
H216 N210 0.984 . S
H217 N210 0.984 . S
H218 N206 0.984 . S
H219 N206 0.985 . S
C220 C221 1.363 . S
C220 C226 1.379 . S
C220 N228 1.356 . S
C221 C220 1.363 . S
C221 C227 1.363 . S
C222 C223 1.363 . S
C222 C227 1.379 . S
C222 N229 1.356 . S
C223 C222 1.363 . S
C223 C226 1.363 . S
N224 C226 1.356 . S
N224 H236 0.984 . S
N224 H237 0.985 . S
N225 C227 1.356 . S
N225 H230 0.984 . S
N225 H231 0.985 . S
C226 C220 1.379 . S
C226 C223 1.363 . S
C226 N224 1.356 . S
C227 C221 1.363 . S
C227 C222 1.379 . S
C227 N225 1.356 . S
N228 C220 1.356 . S
N228 H234 0.984 . S
N228 H235 0.984 . S
N229 C222 1.356 . S
N229 H232 0.984 . S
N229 H233 0.985 . S
H230 N225 0.984 . S
H231 N225 0.985 . S
H232 N229 0.984 . S
H233 N229 0.985 . S
H234 N228 0.984 . S
H235 N228 0.984 . S
H236 N224 0.984 . S
H237 N224 0.985 . S
C238 C239 1.363 . S
C238 C244 1.379 . S
C238 N246 1.356 . S
C239 C238 1.363 . S
C239 C245 1.363 . S
C240 C241 1.363 . S
C240 C245 1.379 . S
C240 N247 1.356 . S
C241 C240 1.363 . S
C241 C244 1.363 . S
N242 C244 1.356 . S
N242 H254 0.984 . S
N242 H255 0.985 . S
N243 C245 1.356 . S
N243 H248 0.984 . S
N243 H249 0.985 . S
C244 C238 1.379 . S
C244 C241 1.363 . S
C244 N242 1.356 . S
C245 C239 1.363 . S
C245 C240 1.379 . S
C245 N243 1.356 . S
N246 C238 1.356 . S
N246 H252 0.984 . S
N246 H253 0.984 . S
N247 C240 1.356 . S
N247 H250 0.984 . S
N247 H251 0.985 . S
H248 N243 0.984 . S
H249 N243 0.985 . S
H250 N247 0.984 . S
H251 N247 0.985 . S
H252 N246 0.984 . S
H253 N246 0.984 . S
H254 N242 0.984 . S
H255 N242 0.985 . S
C256 C257 1.363 . S
C256 C262 1.379 . S
C256 N264 1.356 . S
C257 C256 1.363 . S
C257 C263 1.363 . S
C258 C259 1.363 . S
C258 C263 1.379 . S
C258 N265 1.356 . S
C259 C258 1.363 . S
C259 C262 1.363 . S
N260 C262 1.356 . S
N260 H272 0.984 . S
N260 H273 0.985 . S
N261 C263 1.356 . S
N261 H266 0.984 . S
N261 H267 0.985 . S
C262 C256 1.379 . S
C262 C259 1.363 . S
C262 N260 1.356 . S
C263 C257 1.363 . S
C263 C258 1.379 . S
C263 N261 1.356 . S
N264 C256 1.356 . S
N264 H270 0.984 . S
N264 H271 0.984 . S
N265 C258 1.356 . S
N265 H268 0.984 . S
N265 H269 0.985 1_545 S
H266 N261 0.984 . S
H267 N261 0.985 . S
H268 N265 0.984 . S
H269 N265 0.985 1_565 S
H270 N264 0.984 . S
H271 N264 0.984 . S
H272 N260 0.984 . S
H273 N260 0.985 . S
C274 C275 1.363 . S
C274 C280 1.379 . S
C274 N282 1.356 . S
C275 C274 1.363 . S
C275 C281 1.363 . S
C276 C277 1.363 . S
C276 C281 1.379 . S
C276 N283 1.356 . S
C277 C276 1.363 . S
C277 C280 1.363 . S
N278 C280 1.356 . S
N278 H290 0.984 . S
N278 H291 0.985 . S
N279 C281 1.356 . S
N279 H284 0.984 . S
N279 H285 0.985 . S
C280 C274 1.379 . S
C280 C277 1.363 . S
C280 N278 1.356 . S
C281 C275 1.363 . S
C281 C276 1.379 . S
C281 N279 1.356 . S
N282 C274 1.356 . S
N282 H288 0.984 . S
N282 H289 0.984 . S
N283 C276 1.356 . S
N283 H286 0.984 . S
N283 H287 0.985 . S
H284 N279 0.984 . S
H285 N279 0.985 . S
H286 N283 0.984 . S
H287 N283 0.985 . S
H288 N282 0.984 . S
H289 N282 0.984 . S
H290 N278 0.984 . S
H291 N278 0.985 . S
C292 C293 1.363 . S
C292 C298 1.379 . S
C292 N300 1.356 1_556 S
C293 C292 1.363 . S
C293 C299 1.363 . S
C294 C295 1.363 . S
C294 C299 1.379 . S
C294 N301 1.356 . S
C295 C294 1.363 . S
C295 C298 1.363 . S
N296 C298 1.356 . S
N296 H308 0.984 1_565 S
N296 H309 0.985 1_565 S
N297 C299 1.356 . S
N297 H302 0.984 . S
N297 H303 0.985 . S
C298 C292 1.379 . S
C298 C295 1.363 . S
C298 N296 1.356 . S
C299 C293 1.363 . S
C299 C294 1.379 . S
C299 N297 1.356 . S
N300 C292 1.356 1_554 S
N300 H306 0.984 . S
N300 H307 0.984 . S
N301 C294 1.356 . S
N301 H304 0.984 . S
N301 H305 0.985 . S
H302 N297 0.984 . S
H303 N297 0.985 . S
H304 N301 0.984 . S
H305 N301 0.985 . S
H306 N300 0.984 . S
H307 N300 0.984 . S
H308 N296 0.984 1_545 S
H309 N296 0.985 1_545 S
C97 C68 1.281 . S
C95 C43 1.395 . S
C113 C4 1.454 . S
C115 C89 1.303 . S
C131 C17 1.505 . S
C133 C65 1.375 . S
C149 C30 1.573 . S
C151 C86 1.394 . S
C169 C70 1.463 . S
C167 C9 1.464 . S
C187 C90 1.499 . S
C185 C21 1.568 . S
C203 C34 1.560 . S
C205 C66 1.513 . S
C221 C48 1.491 . S
C223 C88 1.431 . S
C241 C87 1.495 . S
C239 C22 1.539 . S
C259 C69 1.506 . S
C257 C35 1.542 . S
C277 C91 1.446 . S
C275 C47 1.479 . S
C293 C8 1.500 1_556 S
C295 C67 1.438 . S
