# Generated by pormake.
# Topology tbo, (3,4)-cn, num edge types: 1
# Building blocks:
#     Node 0, Type 0, BuildingBlock: BELTOD_clean_linker_0, # of connection points: 3
#     Node 1, Type 0, BuildingBlock: BELTOD_clean_linker_0, # of connection points: 3
#     Node 2, Type 0, BuildingBlock: BELTOD_clean_linker_0, # of connection points: 3
#     Node 3, Type 0, BuildingBlock: BELTOD_clean_linker_0, # of connection points: 3
#     Node 4, Type 0, BuildingBlock: BELTOD_clean_linker_0, # of connection points: 3
#     Node 5, Type 0, BuildingBlock: BELTOD_clean_linker_0, # of connection points: 3
#     Node 6, Type 0, BuildingBlock: BELTOD_clean_linker_0, # of connection points: 3
#     Node 7, Type 0, BuildingBlock: BELTOD_clean_linker_0, # of connection points: 3
#     Node 8, Type 0, BuildingBlock: BELTOD_clean_linker_0, # of connection points: 3
#     Node 9, Type 0, BuildingBlock: BELTOD_clean_linker_0, # of connection points: 3
#     Node 10, Type 0, BuildingBlock: BELTOD_clean_linker_0, # of connection points: 3
#     Node 11, Type 0, BuildingBlock: BELTOD_clean_linker_0, # of connection points: 3
#     Node 12, Type 0, BuildingBlock: BELTOD_clean_linker_0, # of connection points: 3
#     Node 13, Type 0, BuildingBlock: BELTOD_clean_linker_0, # of connection points: 3
#     Node 14, Type 0, BuildingBlock: BELTOD_clean_linker_0, # of connection points: 3
#     Node 15, Type 0, BuildingBlock: BELTOD_clean_linker_0, # of connection points: 3
#     Node 16, Type 0, BuildingBlock: BELTOD_clean_linker_0, # of connection points: 3
#     Node 17, Type 0, BuildingBlock: BELTOD_clean_linker_0, # of connection points: 3
#     Node 18, Type 0, BuildingBlock: BELTOD_clean_linker_0, # of connection points: 3
#     Node 19, Type 0, BuildingBlock: BELTOD_clean_linker_0, # of connection points: 3
#     Node 20, Type 0, BuildingBlock: BELTOD_clean_linker_0, # of connection points: 3
#     Node 21, Type 0, BuildingBlock: BELTOD_clean_linker_0, # of connection points: 3
#     Node 22, Type 0, BuildingBlock: BELTOD_clean_linker_0, # of connection points: 3
#     Node 23, Type 0, BuildingBlock: BELTOD_clean_linker_0, # of connection points: 3
#     Node 24, Type 0, BuildingBlock: BELTOD_clean_linker_0, # of connection points: 3
#     Node 25, Type 0, BuildingBlock: BELTOD_clean_linker_0, # of connection points: 3
#     Node 26, Type 0, BuildingBlock: BELTOD_clean_linker_0, # of connection points: 3
#     Node 27, Type 0, BuildingBlock: BELTOD_clean_linker_0, # of connection points: 3
#     Node 28, Type 0, BuildingBlock: BELTOD_clean_linker_0, # of connection points: 3
#     Node 29, Type 0, BuildingBlock: BELTOD_clean_linker_0, # of connection points: 3
#     Node 30, Type 0, BuildingBlock: BELTOD_clean_linker_0, # of connection points: 3
#     Node 31, Type 0, BuildingBlock: BELTOD_clean_linker_0, # of connection points: 3
#     Node 32, Type 1, BuildingBlock: ESEHIV_clean_sbu_0, # of connection points: 4
#     Node 33, Type 1, BuildingBlock: ESEHIV_clean_sbu_0, # of connection points: 4
#     Node 34, Type 1, BuildingBlock: ESEHIV_clean_sbu_0, # of connection points: 4
#     Node 35, Type 1, BuildingBlock: ESEHIV_clean_sbu_0, # of connection points: 4
#     Node 36, Type 1, BuildingBlock: ESEHIV_clean_sbu_0, # of connection points: 4
#     Node 37, Type 1, BuildingBlock: ESEHIV_clean_sbu_0, # of connection points: 4
#     Node 38, Type 1, BuildingBlock: ESEHIV_clean_sbu_0, # of connection points: 4
#     Node 39, Type 1, BuildingBlock: ESEHIV_clean_sbu_0, # of connection points: 4
#     Node 40, Type 1, BuildingBlock: ESEHIV_clean_sbu_0, # of connection points: 4
#     Node 41, Type 1, BuildingBlock: ESEHIV_clean_sbu_0, # of connection points: 4
#     Node 42, Type 1, BuildingBlock: ESEHIV_clean_sbu_0, # of connection points: 4
#     Node 43, Type 1, BuildingBlock: ESEHIV_clean_sbu_0, # of connection points: 4
#     Node 44, Type 1, BuildingBlock: ESEHIV_clean_sbu_0, # of connection points: 4
#     Node 45, Type 1, BuildingBlock: ESEHIV_clean_sbu_0, # of connection points: 4
#     Node 46, Type 1, BuildingBlock: ESEHIV_clean_sbu_0, # of connection points: 4
#     Node 47, Type 1, BuildingBlock: ESEHIV_clean_sbu_0, # of connection points: 4
#     Node 48, Type 1, BuildingBlock: ESEHIV_clean_sbu_0, # of connection points: 4
#     Node 49, Type 1, BuildingBlock: ESEHIV_clean_sbu_0, # of connection points: 4
#     Node 50, Type 1, BuildingBlock: ESEHIV_clean_sbu_0, # of connection points: 4
#     Node 51, Type 1, BuildingBlock: ESEHIV_clean_sbu_0, # of connection points: 4
#     Node 52, Type 1, BuildingBlock: ESEHIV_clean_sbu_0, # of connection points: 4
#     Node 53, Type 1, BuildingBlock: ESEHIV_clean_sbu_0, # of connection points: 4
#     Node 54, Type 1, BuildingBlock: ESEHIV_clean_sbu_0, # of connection points: 4
#     Node 55, Type 1, BuildingBlock: ESEHIV_clean_sbu_0, # of connection points: 4
#     Edge 56, Type (0, 1), BuildingBlock: XIVTED_clean_linker_0, # of connection points: 2
#     Edge 57, Type (0, 1), BuildingBlock: XIVTED_clean_linker_0, # of connection points: 2
#     Edge 58, Type (0, 1), BuildingBlock: XIVTED_clean_linker_0, # of connection points: 2
#     Edge 59, Type (0, 1), BuildingBlock: XIVTED_clean_linker_0, # of connection points: 2
#     Edge 60, Type (0, 1), BuildingBlock: XIVTED_clean_linker_0, # of connection points: 2
#     Edge 61, Type (0, 1), BuildingBlock: XIVTED_clean_linker_0, # of connection points: 2
#     Edge 62, Type (0, 1), BuildingBlock: XIVTED_clean_linker_0, # of connection points: 2
#     Edge 63, Type (0, 1), BuildingBlock: XIVTED_clean_linker_0, # of connection points: 2
#     Edge 64, Type (0, 1), BuildingBlock: XIVTED_clean_linker_0, # of connection points: 2
#     Edge 65, Type (0, 1), BuildingBlock: XIVTED_clean_linker_0, # of connection points: 2
#     Edge 66, Type (0, 1), BuildingBlock: XIVTED_clean_linker_0, # of connection points: 2
#     Edge 67, Type (0, 1), BuildingBlock: XIVTED_clean_linker_0, # of connection points: 2
#     Edge 68, Type (0, 1), BuildingBlock: XIVTED_clean_linker_0, # of connection points: 2
#     Edge 69, Type (0, 1), BuildingBlock: XIVTED_clean_linker_0, # of connection points: 2
#     Edge 70, Type (0, 1), BuildingBlock: XIVTED_clean_linker_0, # of connection points: 2
#     Edge 71, Type (0, 1), BuildingBlock: XIVTED_clean_linker_0, # of connection points: 2
#     Edge 72, Type (0, 1), BuildingBlock: XIVTED_clean_linker_0, # of connection points: 2
#     Edge 73, Type (0, 1), BuildingBlock: XIVTED_clean_linker_0, # of connection points: 2
#     Edge 74, Type (0, 1), BuildingBlock: XIVTED_clean_linker_0, # of connection points: 2
#     Edge 75, Type (0, 1), BuildingBlock: XIVTED_clean_linker_0, # of connection points: 2
#     Edge 76, Type (0, 1), BuildingBlock: XIVTED_clean_linker_0, # of connection points: 2
#     Edge 77, Type (0, 1), BuildingBlock: XIVTED_clean_linker_0, # of connection points: 2
#     Edge 78, Type (0, 1), BuildingBlock: XIVTED_clean_linker_0, # of connection points: 2
#     Edge 79, Type (0, 1), BuildingBlock: XIVTED_clean_linker_0, # of connection points: 2
#     Edge 80, Type (0, 1), BuildingBlock: XIVTED_clean_linker_0, # of connection points: 2
#     Edge 81, Type (0, 1), BuildingBlock: XIVTED_clean_linker_0, # of connection points: 2
#     Edge 82, Type (0, 1), BuildingBlock: XIVTED_clean_linker_0, # of connection points: 2
#     Edge 83, Type (0, 1), BuildingBlock: XIVTED_clean_linker_0, # of connection points: 2
#     Edge 84, Type (0, 1), BuildingBlock: XIVTED_clean_linker_0, # of connection points: 2
#     Edge 85, Type (0, 1), BuildingBlock: XIVTED_clean_linker_0, # of connection points: 2
#     Edge 86, Type (0, 1), BuildingBlock: XIVTED_clean_linker_0, # of connection points: 2
#     Edge 87, Type (0, 1), BuildingBlock: XIVTED_clean_linker_0, # of connection points: 2
#     Edge 88, Type (0, 1), BuildingBlock: XIVTED_clean_linker_0, # of connection points: 2
#     Edge 89, Type (0, 1), BuildingBlock: XIVTED_clean_linker_0, # of connection points: 2
#     Edge 90, Type (0, 1), BuildingBlock: XIVTED_clean_linker_0, # of connection points: 2
#     Edge 91, Type (0, 1), BuildingBlock: XIVTED_clean_linker_0, # of connection points: 2
#     Edge 92, Type (0, 1), BuildingBlock: XIVTED_clean_linker_0, # of connection points: 2
#     Edge 93, Type (0, 1), BuildingBlock: XIVTED_clean_linker_0, # of connection points: 2
#     Edge 94, Type (0, 1), BuildingBlock: XIVTED_clean_linker_0, # of connection points: 2
#     Edge 95, Type (0, 1), BuildingBlock: XIVTED_clean_linker_0, # of connection points: 2
#     Edge 96, Type (0, 1), BuildingBlock: XIVTED_clean_linker_0, # of connection points: 2
#     Edge 97, Type (0, 1), BuildingBlock: XIVTED_clean_linker_0, # of connection points: 2
#     Edge 98, Type (0, 1), BuildingBlock: XIVTED_clean_linker_0, # of connection points: 2
#     Edge 99, Type (0, 1), BuildingBlock: XIVTED_clean_linker_0, # of connection points: 2
#     Edge 100, Type (0, 1), BuildingBlock: XIVTED_clean_linker_0, # of connection points: 2
#     Edge 101, Type (0, 1), BuildingBlock: XIVTED_clean_linker_0, # of connection points: 2
#     Edge 102, Type (0, 1), BuildingBlock: XIVTED_clean_linker_0, # of connection points: 2
#     Edge 103, Type (0, 1), BuildingBlock: XIVTED_clean_linker_0, # of connection points: 2
#     Edge 104, Type (0, 1), BuildingBlock: XIVTED_clean_linker_0, # of connection points: 2
#     Edge 105, Type (0, 1), BuildingBlock: XIVTED_clean_linker_0, # of connection points: 2
#     Edge 106, Type (0, 1), BuildingBlock: XIVTED_clean_linker_0, # of connection points: 2
#     Edge 107, Type (0, 1), BuildingBlock: XIVTED_clean_linker_0, # of connection points: 2
#     Edge 108, Type (0, 1), BuildingBlock: XIVTED_clean_linker_0, # of connection points: 2
#     Edge 109, Type (0, 1), BuildingBlock: XIVTED_clean_linker_0, # of connection points: 2
#     Edge 110, Type (0, 1), BuildingBlock: XIVTED_clean_linker_0, # of connection points: 2
#     Edge 111, Type (0, 1), BuildingBlock: XIVTED_clean_linker_0, # of connection points: 2
#     Edge 112, Type (0, 1), BuildingBlock: XIVTED_clean_linker_0, # of connection points: 2
#     Edge 113, Type (0, 1), BuildingBlock: XIVTED_clean_linker_0, # of connection points: 2
#     Edge 114, Type (0, 1), BuildingBlock: XIVTED_clean_linker_0, # of connection points: 2
#     Edge 115, Type (0, 1), BuildingBlock: XIVTED_clean_linker_0, # of connection points: 2
#     Edge 116, Type (0, 1), BuildingBlock: XIVTED_clean_linker_0, # of connection points: 2
#     Edge 117, Type (0, 1), BuildingBlock: XIVTED_clean_linker_0, # of connection points: 2
#     Edge 118, Type (0, 1), BuildingBlock: XIVTED_clean_linker_0, # of connection points: 2
#     Edge 119, Type (0, 1), BuildingBlock: XIVTED_clean_linker_0, # of connection points: 2
#     Edge 120, Type (0, 1), BuildingBlock: XIVTED_clean_linker_0, # of connection points: 2
#     Edge 121, Type (0, 1), BuildingBlock: XIVTED_clean_linker_0, # of connection points: 2
#     Edge 122, Type (0, 1), BuildingBlock: XIVTED_clean_linker_0, # of connection points: 2
#     Edge 123, Type (0, 1), BuildingBlock: XIVTED_clean_linker_0, # of connection points: 2
#     Edge 124, Type (0, 1), BuildingBlock: XIVTED_clean_linker_0, # of connection points: 2
#     Edge 125, Type (0, 1), BuildingBlock: XIVTED_clean_linker_0, # of connection points: 2
#     Edge 126, Type (0, 1), BuildingBlock: XIVTED_clean_linker_0, # of connection points: 2
#     Edge 127, Type (0, 1), BuildingBlock: XIVTED_clean_linker_0, # of connection points: 2
#     Edge 128, Type (0, 1), BuildingBlock: XIVTED_clean_linker_0, # of connection points: 2
#     Edge 129, Type (0, 1), BuildingBlock: XIVTED_clean_linker_0, # of connection points: 2
#     Edge 130, Type (0, 1), BuildingBlock: XIVTED_clean_linker_0, # of connection points: 2
#     Edge 131, Type (0, 1), BuildingBlock: XIVTED_clean_linker_0, # of connection points: 2
#     Edge 132, Type (0, 1), BuildingBlock: XIVTED_clean_linker_0, # of connection points: 2
#     Edge 133, Type (0, 1), BuildingBlock: XIVTED_clean_linker_0, # of connection points: 2
#     Edge 134, Type (0, 1), BuildingBlock: XIVTED_clean_linker_0, # of connection points: 2
#     Edge 135, Type (0, 1), BuildingBlock: XIVTED_clean_linker_0, # of connection points: 2
#     Edge 136, Type (0, 1), BuildingBlock: XIVTED_clean_linker_0, # of connection points: 2
#     Edge 137, Type (0, 1), BuildingBlock: XIVTED_clean_linker_0, # of connection points: 2
#     Edge 138, Type (0, 1), BuildingBlock: XIVTED_clean_linker_0, # of connection points: 2
#     Edge 139, Type (0, 1), BuildingBlock: XIVTED_clean_linker_0, # of connection points: 2
#     Edge 140, Type (0, 1), BuildingBlock: XIVTED_clean_linker_0, # of connection points: 2
#     Edge 141, Type (0, 1), BuildingBlock: XIVTED_clean_linker_0, # of connection points: 2
#     Edge 142, Type (0, 1), BuildingBlock: XIVTED_clean_linker_0, # of connection points: 2
#     Edge 143, Type (0, 1), BuildingBlock: XIVTED_clean_linker_0, # of connection points: 2
#     Edge 144, Type (0, 1), BuildingBlock: XIVTED_clean_linker_0, # of connection points: 2
#     Edge 145, Type (0, 1), BuildingBlock: XIVTED_clean_linker_0, # of connection points: 2
#     Edge 146, Type (0, 1), BuildingBlock: XIVTED_clean_linker_0, # of connection points: 2
#     Edge 147, Type (0, 1), BuildingBlock: XIVTED_clean_linker_0, # of connection points: 2
#     Edge 148, Type (0, 1), BuildingBlock: XIVTED_clean_linker_0, # of connection points: 2
#     Edge 149, Type (0, 1), BuildingBlock: XIVTED_clean_linker_0, # of connection points: 2
#     Edge 150, Type (0, 1), BuildingBlock: XIVTED_clean_linker_0, # of connection points: 2
#     Edge 151, Type (0, 1), BuildingBlock: XIVTED_clean_linker_0, # of connection points: 2
# Relax obj value: 0.003
# Max RMSD: 0.120
# Mean RMSD: 0.051
data_MOF--net-tbo--node1-ESEHIV_clean_sbu_0--node2-BELTOD_clean_linker_0--edge1-XIVTED_clean_linker_0
_symmetry_space_group_name_H-M    P1
_symmetry_Int_Tables_number       1
_symmetry_cell_setting            triclinic
loop_
_symmetry_equiv_pos_as_xyz
'x, y, z'
_cell_length_a     84.77474
_cell_length_b     85.627231
_cell_length_c     83.72344
_cell_angle_alpha  90.040235
_cell_angle_beta   92.236622
_cell_angle_gamma 90.811239
loop_
_atom_site_label
_atom_site_type_symbol
_atom_site_fract_x
_atom_site_fract_y
_atom_site_fract_z
_atom_type_partial_charge
P0 P 0.17774 0.17862 0.21749 0.0
H1 H 0.16173 0.19009 0.24538 0.0
H2 H 0.13641 0.20279 0.24841 0.0
H3 H 0.12556 0.1965 0.1979 0.0
H4 H 0.1506 0.18327 0.19515 0.0
H5 H 0.19972 0.1551 0.20679 0.0
H6 H 0.20383 0.12784 0.21433 0.0
H7 H 0.16322 0.1294 0.24384 0.0
H8 H 0.1591 0.15663 0.23614 0.0
H9 H 0.19097 0.20816 0.20728 0.0
H10 H 0.17732 0.1642 0.18535 0.0
O11 O 0.18979 0.1868 0.23144 0.0
H12 H 0.19738 0.21871 0.18121 0.0
H13 H 0.18382 0.17469 0.15909 0.0
C14 C 0.15819 0.18603 0.21999 0.0
C15 C 0.15382 0.19131 0.235 0.0
C16 C 0.13937 0.19869 0.23668 0.0
C17 C 0.12902 0.20097 0.22334 0.0
C18 C 0.13316 0.19493 0.20845 0.0
C19 C 0.14757 0.18744 0.20683 0.0
C20 C 0.17881 0.15779 0.22048 0.0
C21 C 0.19139 0.14944 0.21447 0.0
C22 C 0.19377 0.13385 0.21885 0.0
C23 C 0.18383 0.12643 0.22967 0.0
C24 C 0.17112 0.13479 0.23553 0.0
C25 C 0.16865 0.15033 0.231 0.0
C26 C 0.18411 0.18526 0.19832 0.0
C27 C 0.18962 0.20068 0.19687 0.0
C28 C 0.19311 0.20675 0.18193 0.0
C29 C 0.1911 0.19753 0.16809 0.0
C30 C 0.18568 0.18201 0.16957 0.0
C31 C 0.18203 0.17598 0.18456 0.0
P32 P 0.86559 0.15874 0.1641 0.0
H33 H 0.89736 0.17136 0.16026 0.0
H34 H 0.9163 0.18454 0.17858 0.0
H35 H 0.88184 0.18397 0.21527 0.0
H36 H 0.86283 0.17095 0.19674 0.0
H37 H 0.87395 0.12737 0.174 0.0
H38 H 0.86137 0.10795 0.19069 0.0
H39 H 0.82272 0.13937 0.19754 0.0
H40 H 0.83528 0.15863 0.18025 0.0
H41 H 0.8582 0.19242 0.16439 0.0
H42 H 0.84429 0.15144 0.13715 0.0
O43 O 0.87658 0.14915 0.1513 0.0
H44 H 0.8428 0.2087 0.14574 0.0
H45 H 0.82937 0.16757 0.11814 0.0
C46 C 0.87881 0.16988 0.17724 0.0
C47 C 0.89385 0.17411 0.17223 0.0
C48 C 0.90471 0.18157 0.18275 0.0
C49 C 0.90069 0.18507 0.19849 0.0
C50 C 0.88532 0.18143 0.20325 0.0
C51 C 0.87446 0.17392 0.19269 0.0
C52 C 0.85539 0.1443 0.17563 0.0
C53 C 0.86265 0.13001 0.17891 0.0
C54 C 0.85552 0.11897 0.18865 0.0
C55 C 0.84104 0.12208 0.19558 0.0
C56 C 0.83376 0.13648 0.19225 0.0
C57 C 0.84092 0.14752 0.18239 0.0
C58 C 0.85241 0.17071 0.15212 0.0
C59 C 0.85171 0.1869 0.15448 0.0
C60 C 0.843 0.19623 0.14368 0.0
C61 C 0.83491 0.18954 0.13026 0.0
C62 C 0.83523 0.1732 0.12837 0.0
C63 C 0.84384 0.16392 0.13922 0.0
P64 P 0.84206 0.87449 0.14525 0.0
H65 H 0.83553 0.90803 0.14451 0.0
H66 H 0.8183 0.92441 0.15977 0.0
H67 H 0.79918 0.88322 0.18224 0.0
H68 H 0.81694 0.86695 0.16726 0.0
H69 H 0.85212 0.88177 0.17828 0.0
H70 H 0.87058 0.86937 0.19727 0.0
H71 H 0.87782 0.83256 0.1631 0.0
H72 H 0.85912 0.84491 0.14427 0.0
H73 H 0.84115 0.87459 0.11028 0.0
H74 H 0.8225 0.84596 0.14765 0.0
O75 O 0.8545 0.88639 0.13598 0.0
H76 H 0.82878 0.85735 0.09013 0.0
H77 H 0.81002 0.82853 0.12745 0.0
C78 C 0.82761 0.88625 0.15481 0.0
C79 C 0.82752 0.90248 0.15258 0.0
C80 C 0.81753 0.91187 0.16127 0.0
C81 C 0.80735 0.90521 0.17236 0.0
C82 C 0.80702 0.88882 0.17402 0.0
C83 C 0.81707 0.87945 0.16535 0.0
C84 C 0.85387 0.86405 0.16001 0.0
C85 C 0.85739 0.87084 0.175 0.0
C86 C 0.86812 0.86383 0.18579 0.0
C87 C 0.87572 0.84995 0.18174 0.0
C88 C 0.87201 0.84309 0.16675 0.0
C89 C 0.86129 0.85014 0.15595 0.0
C90 C 0.83278 0.86156 0.1305 0.0
C91 C 0.83446 0.86453 0.11418 0.0
C92 C 0.82745 0.85457 0.10262 0.0
C93 C 0.81848 0.84147 0.10713 0.0
C94 C 0.81677 0.83856 0.12355 0.0
C95 C 0.82388 0.84851 0.13512 0.0
P96 P 0.13269 0.84501 0.14873 0.0
H97 H 0.14216 0.8766 0.14054 0.0
H98 H 0.15958 0.89601 0.15369 0.0
H99 H 0.1671 0.86475 0.19365 0.0
H100 H 0.14963 0.84526 0.1803 0.0
H101 H 0.13132 0.83666 0.11476 0.0
H102 H 0.15094 0.82626 0.09718 0.0
H103 H 0.18343 0.82064 0.13777 0.0
H104 H 0.16372 0.83117 0.1553 0.0
H105 H 0.11873 0.84885 0.17993 0.0
H106 H 0.12059 0.81308 0.14383 0.0
O107 O 0.11954 0.85426 0.13695 0.0
H108 H 0.1006 0.83262 0.19489 0.0
H109 H 0.10215 0.79681 0.15867 0.0
C110 C 0.1442 0.85967 0.15965 0.0
C111 C 0.14734 0.874 0.15225 0.0
C112 C 0.15744 0.88502 0.15971 0.0
C113 C 0.16471 0.88192 0.17472 0.0
C114 C 0.16151 0.86756 0.18218 0.0
C115 C 0.15148 0.85644 0.1746 0.0
C116 C 0.14614 0.83491 0.13631 0.0
C117 C 0.14259 0.83303 0.11993 0.0
C118 C 0.15382 0.82702 0.10988 0.0
C119 C 0.16883 0.82278 0.11604 0.0
C120 C 0.17209 0.82406 0.1326 0.0
C121 C 0.16079 0.82999 0.14266 0.0
C122 C 0.12153 0.83195 0.16106 0.0
C123 C 0.11562 0.83731 0.17544 0.0
C124 C 0.10515 0.82804 0.18395 0.0
C125 C 0.10001 0.81337 0.17803 0.0
C126 C 0.10589 0.80805 0.16355 0.0
C127 C 0.11656 0.81727 0.15515 0.0
P128 P 0.1906 0.82388 0.8342 0.0
H129 H 0.17502 0.81334 0.80443 0.0
H130 H 0.14739 0.80977 0.79591 0.0
H131 H 0.1333 0.82654 0.84189 0.0
H132 H 0.16111 0.82957 0.85048 0.0
H133 H 0.2184 0.83685 0.81907 0.0
H134 H 0.22513 0.863 0.80977 0.0
H135 H 0.18272 0.88072 0.82985 0.0
H136 H 0.17596 0.8544 0.83896 0.0
H137 H 0.17774 0.79931 0.85435 0.0
H138 H 0.21306 0.8359 0.85892 0.0
O139 O 0.20097 0.81167 0.82331 0.0
H140 H 0.18632 0.78894 0.88043 0.0
H141 H 0.22162 0.8257 0.88506 0.0
C142 C 0.17009 0.82133 0.82822 0.0
C143 C 0.16598 0.81613 0.81272 0.0
C144 C 0.15014 0.81429 0.80779 0.0
C145 C 0.13805 0.81783 0.81821 0.0
C146 C 0.14227 0.82344 0.83364 0.0
C147 C 0.15816 0.82521 0.83857 0.0
C148 C 0.19654 0.84361 0.82947 0.0
C149 C 0.2106 0.84637 0.8216 0.0
C150 C 0.21448 0.86138 0.81634 0.0
C151 C 0.20439 0.87397 0.8189 0.0
C152 C 0.1906 0.87125 0.8274 0.0
C153 C 0.18677 0.85621 0.8327 0.0
C154 C 0.19453 0.81859 0.85482 0.0
C155 C 0.18702 0.80541 0.86119 0.0
C156 C 0.19195 0.79946 0.87611 0.0
C157 C 0.20472 0.80642 0.88482 0.0
C158 C 0.21187 0.81994 0.8786 0.0
C159 C 0.20688 0.82591 0.86371 0.0
P160 P 0.21662 0.18627 0.85635 0.0
H161 H 0.23181 0.2128 0.87294 0.0
H162 H 0.23999 0.21754 0.90075 0.0
H163 H 0.22333 0.17134 0.91316 0.0
H164 H 0.2148 0.16684 0.88524 0.0
H165 H 0.24452 0.17478 0.84125 0.0
H166 H 0.25264 0.14903 0.83285 0.0
H167 H 0.20948 0.12906 0.85037 0.0
H168 H 0.20116 0.15521 0.8582 0.0
H169 H 0.19445 0.20506 0.87404 0.0
H170 H 0.19361 0.17779 0.83071 0.0
O171 O 0.2263 0.19909 0.8452 0.0
H172 H 0.16827 0.21486 0.86697 0.0
H173 H 0.16716 0.18729 0.82367 0.0
C174 C 0.22295 0.18936 0.87695 0.0
C175 C 0.23003 0.20362 0.8816 0.0
C176 C 0.23479 0.20629 0.89754 0.0
C177 C 0.2325 0.19477 0.90923 0.0
C178 C 0.22522 0.18051 0.90452 0.0
C179 C 0.22044 0.17787 0.88853 0.0
C180 C 0.22209 0.16697 0.85006 0.0
C181 C 0.23671 0.16489 0.84316 0.0
C182 C 0.24145 0.15006 0.83853 0.0
C183 C 0.23178 0.13684 0.84095 0.0
C184 C 0.21716 0.13896 0.84809 0.0
C185 C 0.21239 0.15389 0.85264 0.0
C186 C 0.19591 0.1904 0.85307 0.0
C187 C 0.18844 0.20077 0.86323 0.0
C188 C 0.17339 0.2064 0.85916 0.0
C189 C 0.16555 0.20194 0.8447 0.0
C190 C 0.1729 0.19114 0.8348 0.0
C191 C 0.18796 0.18552 0.83891 0.0
P192 P 0.88725 0.1633 0.85252 0.0
H193 H 0.88875 0.13167 0.83962 0.0
H194 H 0.86868 0.11368 0.82829 0.0
H195 H 0.83369 0.14966 0.83121 0.0
H196 H 0.8538 0.16757 0.84256 0.0
H197 H 0.90144 0.19463 0.85563 0.0
H198 H 0.91952 0.20931 0.83921 0.0
H199 H 0.9171 0.17242 0.80395 0.0
H200 H 0.89874 0.15779 0.82045 0.0
H201 H 0.88399 0.15822 0.88669 0.0
H202 H 0.86891 0.19233 0.85167 0.0
O203 O 0.90044 0.15179 0.86177 0.0
H204 H 0.87041 0.17231 0.9073 0.0
H205 H 0.85514 0.20653 0.87233 0.0
C206 C 0.87275 0.15088 0.84227 0.0
C207 C 0.87679 0.13574 0.83773 0.0
C208 C 0.8653 0.12548 0.83117 0.0
C209 C 0.84952 0.13018 0.82902 0.0
C210 C 0.84566 0.14558 0.833 0.0
C211 C 0.8572 0.15587 0.83946 0.0
C212 C 0.89824 0.17533 0.83904 0.0
C213 C 0.90434 0.18988 0.84414 0.0
C214 C 0.91479 0.19826 0.83475 0.0
C215 C 0.9197 0.19209 0.8202 0.0
C216 C 0.91356 0.17749 0.81509 0.0
C217 C 0.90293 0.1692 0.82444 0.0
C218 C 0.87773 0.17438 0.8677 0.0
C219 C 0.8779 0.16885 0.88345 0.0
C220 C 0.87012 0.17693 0.89525 0.0
C221 C 0.86177 0.1906 0.89148 0.0
C222 C 0.86141 0.196 0.8756 0.0
C223 C 0.86936 0.18797 0.86381 0.0
P224 P 0.86741 0.88286 0.84816 0.0
H225 H 0.89044 0.88295 0.8233 0.0
H226 H 0.90785 0.86289 0.81334 0.0
H227 H 0.8865 0.82892 0.84428 0.0
H228 H 0.86904 0.84893 0.85399 0.0
H229 H 0.86187 0.91633 0.84768 0.0
H230 H 0.84823 0.93349 0.82862 0.0
H231 H 0.83874 0.8942 0.7971 0.0
H232 H 0.85244 0.87703 0.81638 0.0
H233 H 0.86815 0.87654 0.88239 0.0
H234 H 0.83462 0.87176 0.84256 0.0
O235 O 0.88041 0.89355 0.85912 0.0
H236 H 0.84874 0.86576 0.90026 0.0
H237 H 0.81513 0.86072 0.86036 0.0
C238 C 0.87832 0.86743 0.83923 0.0
C239 C 0.88932 0.87111 0.82771 0.0
C240 C 0.89937 0.85967 0.82215 0.0
C241 C 0.89864 0.84431 0.82809 0.0
C242 C 0.88727 0.84057 0.83933 0.0
C243 C 0.87726 0.85205 0.84491 0.0
C244 C 0.85835 0.89546 0.83334 0.0
C245 C 0.85708 0.91144 0.83656 0.0
C246 C 0.84934 0.92127 0.82559 0.0
C247 C 0.84251 0.91525 0.81126 0.0
C248 C 0.84386 0.89919 0.80804 0.0
C249 C 0.85173 0.88938 0.819 0.0
C250 C 0.85273 0.87525 0.8612 0.0
C251 C 0.85656 0.87326 0.8775 0.0
C252 C 0.84548 0.86695 0.88769 0.0
C253 C 0.83035 0.86239 0.88176 0.0
C254 C 0.82658 0.86434 0.86536 0.0
C255 C 0.83773 0.87062 0.85515 0.0
P256 P 0.19989 0.69766 0.69226 0.0
H257 H 0.18552 0.72702 0.70141 0.0
H258 H 0.15862 0.73351 0.70799 0.0
H259 H 0.14277 0.68741 0.69283 0.0
H260 H 0.16963 0.68134 0.68558 0.0
H261 H 0.21989 0.67113 0.68365 0.0
H262 H 0.22416 0.64556 0.69611 0.0
H263 H 0.18863 0.65575 0.73014 0.0
H264 H 0.18493 0.6813 0.71811 0.0
H265 H 0.22131 0.7209 0.67932 0.0
H266 H 0.19401 0.68128 0.66155 0.0
O267 O 0.21076 0.70879 0.70497 0.0
H268 H 0.23131 0.72537 0.65288 0.0
H269 H 0.20427 0.68552 0.6348 0.0
C270 C 0.17962 0.70356 0.69341 0.0
C271 C 0.17619 0.71842 0.69921 0.0
C272 C 0.16079 0.72206 0.70313 0.0
C273 C 0.14853 0.71084 0.70141 0.0
C274 C 0.15185 0.69636 0.69437 0.0
C275 C 0.16725 0.69283 0.69026 0.0
C276 C 0.20176 0.67797 0.69964 0.0
C277 C 0.21284 0.66772 0.69361 0.0
C278 C 0.21525 0.65309 0.70075 0.0
C279 C 0.20676 0.64858 0.71417 0.0
C280 C 0.19554 0.65887 0.71997 0.0
C281 C 0.19323 0.67345 0.71293 0.0
C282 C 0.20708 0.70061 0.67247 0.0
C283 C 0.21757 0.71303 0.66974 0.0
C284 C 0.22338 0.71553 0.65457 0.0
C285 C 0.2188 0.70568 0.6417 0.0
C286 C 0.20804 0.69335 0.64442 0.0
C287 C 0.20221 0.69086 0.65969 0.0
P288 P 0.87006 0.67573 0.65223 0.0
H289 H 0.90357 0.67322 0.66111 0.0
H290 H 0.92269 0.69134 0.67378 0.0
H291 H 0.88569 0.72496 0.67935 0.0
H292 H 0.86655 0.70643 0.66727 0.0
H293 H 0.85619 0.64469 0.64765 0.0
H294 H 0.84589 0.6253 0.66603 0.0
H295 H 0.8527 0.6581 0.70504 0.0
H296 H 0.86322 0.67739 0.68653 0.0
H297 H 0.87413 0.70418 0.63378 0.0
H298 H 0.83637 0.6714 0.64264 0.0
O299 O 0.88037 0.66506 0.63973 0.0
H300 H 0.85677 0.7185 0.61525 0.0
H301 H 0.81897 0.68559 0.62379 0.0
C302 C 0.88374 0.68865 0.6629 0.0
C303 C 0.89957 0.68447 0.66513 0.0
C304 C 0.91053 0.69492 0.67226 0.0
C305 C 0.90584 0.70978 0.67731 0.0
C306 C 0.88976 0.71364 0.67564 0.0
C307 C 0.8788 0.7031 0.66862 0.0
C308 C 0.86068 0.6624 0.66574 0.0
C309 C 0.85535 0.64776 0.66014 0.0
C310 C 0.84937 0.6367 0.67067 0.0
C311 C 0.84855 0.64007 0.68707 0.0
C312 C 0.85341 0.65501 0.69254 0.0
C313 C 0.85935 0.6661 0.68195 0.0
C314 C 0.85643 0.68697 0.63998 0.0
C315 C 0.86199 0.70024 0.63201 0.0
C316 C 0.85207 0.70842 0.62139 0.0
C317 C 0.83648 0.70323 0.61815 0.0
C318 C 0.83094 0.68985 0.62606 0.0
C319 C 0.84084 0.68179 0.63691 0.0
P320 P 0.88151 0.37392 0.66146 0.0
H321 H 0.88381 0.38956 0.69247 0.0
H322 H 0.86631 0.40697 0.7061 0.0
H323 H 0.83098 0.40073 0.66794 0.0
H324 H 0.84873 0.38328 0.65425 0.0
H325 H 0.9154 0.36954 0.65925 0.0
H326 H 0.93537 0.35773 0.67699 0.0
H327 H 0.89924 0.34455 0.70961 0.0
H328 H 0.87923 0.35656 0.69171 0.0
H329 H 0.88774 0.36616 0.62843 0.0
H330 H 0.8559 0.35055 0.6642 0.0
O331 O 0.89106 0.38733 0.65089 0.0
H332 H 0.87571 0.34773 0.60929 0.0
H333 H 0.84389 0.33166 0.6451 0.0
C334 C 0.86738 0.38459 0.67263 0.0
C335 C 0.87213 0.39152 0.68723 0.0
C336 C 0.86209 0.40157 0.69501 0.0
C337 C 0.84714 0.40516 0.68821 0.0
C338 C 0.8424 0.39823 0.67351 0.0
C339 C 0.85247 0.38808 0.66577 0.0
C340 C 0.89589 0.36425 0.67434 0.0
C341 C 0.91174 0.36412 0.67021 0.0
C342 C 0.92316 0.35725 0.68034 0.0
C343 C 0.91895 0.35027 0.6948 0.0
C344 C 0.90293 0.35005 0.6987 0.0
C345 C 0.89147 0.35685 0.68846 0.0
C346 C 0.8725 0.35995 0.64764 0.0
C347 C 0.87813 0.35874 0.63218 0.0
C348 C 0.87131 0.34804 0.62125 0.0
C349 C 0.85879 0.33816 0.62559 0.0
C350 C 0.85336 0.33922 0.64126 0.0
C351 C 0.86023 0.34997 0.65221 0.0
P352 P 0.17406 0.37109 0.66859 0.0
H353 H 0.18092 0.40375 0.66188 0.0
H354 H 0.1975 0.42359 0.67535 0.0
H355 H 0.21057 0.39027 0.71211 0.0
H356 H 0.19402 0.3703 0.69831 0.0
H357 H 0.1663 0.35663 0.63771 0.0
H358 H 0.1823 0.3447 0.61746 0.0
H359 H 0.22416 0.35241 0.64768 0.0
H360 H 0.20806 0.36425 0.66796 0.0
H361 H 0.16078 0.3742 0.70012 0.0
H362 H 0.1645 0.33809 0.66461 0.0
O363 O 0.15974 0.38041 0.6584 0.0
H364 H 0.14418 0.35696 0.71576 0.0
H365 H 0.14789 0.32077 0.68019 0.0
C366 C 0.18588 0.38567 0.67933 0.0
C367 C 0.1872 0.40073 0.67294 0.0
C368 C 0.1967 0.4121 0.68068 0.0
C369 C 0.20526 0.40861 0.69493 0.0
C370 C 0.20418 0.39335 0.70114 0.0
C371 C 0.1946 0.38197 0.69337 0.0
C372 C 0.18599 0.36152 0.65424 0.0
C373 C 0.17891 0.35571 0.64001 0.0
C374 C 0.18806 0.34882 0.62847 0.0
C375 C 0.20451 0.3477 0.63094 0.0
C376 C 0.21154 0.35331 0.64536 0.0
C377 C 0.20233 0.36004 0.65698 0.0
C378 C 0.16432 0.35733 0.6814 0.0
C379 C 0.1584 0.36242 0.69588 0.0
C380 C 0.14884 0.35254 0.7048 0.0
C381 C 0.14473 0.33743 0.69926 0.0
C382 C 0.15075 0.33234 0.68476 0.0
C383 C 0.16042 0.34221 0.67592 0.0
P384 P 0.17951 0.31596 0.34726 0.0
H385 H 0.16287 0.30036 0.32032 0.0
H386 H 0.13504 0.2945 0.31432 0.0
H387 H 0.12276 0.3185 0.35745 0.0
H388 H 0.15074 0.32462 0.36317 0.0
H389 H 0.1905 0.33093 0.3185 0.0
H390 H 0.19978 0.35725 0.31265 0.0
H391 H 0.19017 0.37133 0.36093 0.0
H392 H 0.17981 0.34515 0.36619 0.0
H393 H 0.16659 0.29125 0.36715 0.0
H394 H 0.20311 0.32675 0.37177 0.0
O395 O 0.19002 0.30433 0.33587 0.0
H396 H 0.17346 0.28202 0.39417 0.0
H397 H 0.20961 0.31789 0.39896 0.0
C398 C 0.15886 0.31277 0.34228 0.0
C399 C 0.1542 0.30441 0.32846 0.0
C400 C 0.13826 0.30095 0.32511 0.0
C401 C 0.12664 0.30582 0.33551 0.0
C402 C 0.13136 0.31461 0.34914 0.0
C403 C 0.14735 0.31809 0.35246 0.0
C404 C 0.18506 0.33592 0.34297 0.0
C405 C 0.19033 0.33971 0.3278 0.0
C406 C 0.1958 0.3548 0.32453 0.0
C407 C 0.19624 0.36646 0.33643 0.0
C408 C 0.1901 0.36277 0.35141 0.0
C409 C 0.18433 0.3477 0.35455 0.0
C410 C 0.18383 0.31018 0.36767 0.0
C411 C 0.17582 0.29732 0.37409 0.0
C412 C 0.17982 0.29196 0.38947 0.0
C413 C 0.19189 0.29941 0.3987 0.0
C414 C 0.20001 0.31217 0.3922 0.0
C415 C 0.19621 0.31732 0.3767 0.0
P416 P 0.17487 0.67734 0.32602 0.0
H417 H 0.20432 0.68816 0.34204 0.0
H418 H 0.21039 0.69913 0.36854 0.0
H419 H 0.16227 0.69016 0.38152 0.0
H420 H 0.15627 0.6793 0.35493 0.0
H421 H 0.1645 0.65733 0.29931 0.0
H422 H 0.17005 0.63015 0.29258 0.0
H423 H 0.19511 0.6249 0.33815 0.0
H424 H 0.18936 0.65192 0.34481 0.0
H425 H 0.16527 0.70682 0.31174 0.0
H426 H 0.1424 0.66518 0.32896 0.0
O427 O 0.18798 0.68575 0.31426 0.0
H428 H 0.13963 0.71859 0.30615 0.0
H429 H 0.11649 0.67699 0.32343 0.0
C430 C 0.17976 0.68322 0.34636 0.0
C431 C 0.1951 0.68843 0.35062 0.0
C432 C 0.19858 0.69463 0.36584 0.0
C433 C 0.18676 0.69572 0.37712 0.0
C434 C 0.17156 0.6898 0.37302 0.0
C435 C 0.16813 0.68351 0.35782 0.0
C436 C 0.17622 0.65657 0.3227 0.0
C437 C 0.17085 0.65018 0.308 0.0
C438 C 0.1742 0.63469 0.30409 0.0
C439 C 0.18305 0.62529 0.3148 0.0
C440 C 0.18805 0.63167 0.3297 0.0
C441 C 0.18475 0.64718 0.33356 0.0
C442 C 0.15573 0.68499 0.32043 0.0
C443 C 0.1547 0.70009 0.31405 0.0
C444 C 0.14001 0.70682 0.31088 0.0
C445 C 0.126 0.6987 0.31426 0.0
C446 C 0.12707 0.68356 0.32074 0.0
C447 C 0.14183 0.67675 0.32377 0.0
P448 P 0.84624 0.65429 0.35242 0.0
H449 H 0.84492 0.62052 0.34665 0.0
H450 H 0.82615 0.60365 0.33181 0.0
H451 H 0.79853 0.64397 0.31839 0.0
H452 H 0.81766 0.66085 0.33307 0.0
H453 H 0.86365 0.68342 0.35931 0.0
H454 H 0.88131 0.69947 0.34354 0.0
H455 H 0.87144 0.66966 0.30261 0.0
H456 H 0.85383 0.65363 0.31851 0.0
H457 H 0.83417 0.64213 0.38173 0.0
H458 H 0.83231 0.68568 0.35604 0.0
O459 O 0.85973 0.64313 0.36166 0.0
H460 H 0.81758 0.65276 0.40199 0.0
H461 H 0.81628 0.69686 0.37682 0.0
C462 C 0.83271 0.64195 0.34088 0.0
C463 C 0.83487 0.62576 0.34048 0.0
C464 C 0.824 0.61608 0.33211 0.0
C465 C 0.81074 0.62242 0.32398 0.0
C466 C 0.80866 0.6387 0.3244 0.0
C467 C 0.81957 0.64837 0.33279 0.0
C468 C 0.85696 0.66764 0.33997 0.0
C469 C 0.86493 0.68059 0.34682 0.0
C470 C 0.8751 0.68972 0.33779 0.0
C471 C 0.87776 0.68591 0.32175 0.0
C472 C 0.86973 0.6729 0.31492 0.0
C473 C 0.85947 0.66383 0.32396 0.0
C474 C 0.83491 0.66325 0.36766 0.0
C475 C 0.83047 0.65415 0.38066 0.0
C476 C 0.821 0.66032 0.39232 0.0
C477 C 0.81575 0.67582 0.3913 0.0
C478 C 0.82004 0.68488 0.37804 0.0
C479 C 0.82941 0.67858 0.36624 0.0
P480 P 0.85129 0.38376 0.37157 0.0
H481 H 0.88547 0.38722 0.36907 0.0
H482 H 0.90449 0.37444 0.35245 0.0
H483 H 0.86703 0.34542 0.33147 0.0
H484 H 0.84808 0.35815 0.34839 0.0
H485 H 0.85635 0.41686 0.36506 0.0
H486 H 0.84563 0.43431 0.34451 0.0
H487 H 0.81532 0.39688 0.32612 0.0
H488 H 0.82584 0.3796 0.34714 0.0
H489 H 0.85352 0.35113 0.38171 0.0
H490 H 0.82002 0.38835 0.38437 0.0
O491 O 0.8609 0.39406 0.38592 0.0
H492 H 0.83693 0.33462 0.39797 0.0
H493 H 0.80325 0.37181 0.40086 0.0
C494 C 0.86542 0.3734 0.3602 0.0
C495 C 0.88137 0.37797 0.36106 0.0
C496 C 0.89222 0.37076 0.35141 0.0
C497 C 0.88729 0.3589 0.34061 0.0
C498 C 0.87126 0.35435 0.33981 0.0
C499 C 0.86041 0.36163 0.34945 0.0
C500 C 0.84164 0.39703 0.35783 0.0
C501 C 0.84716 0.41249 0.35682 0.0
C502 C 0.84117 0.42241 0.34489 0.0
C503 C 0.82966 0.41701 0.33356 0.0
C504 C 0.82401 0.40151 0.33476 0.0
C505 C 0.83001 0.3916 0.34676 0.0
C506 C 0.83778 0.37082 0.38137 0.0
C507 C 0.84237 0.35562 0.38542 0.0
C508 C 0.83286 0.34618 0.3948 0.0
C509 C 0.81868 0.35184 0.40063 0.0
C510 C 0.8141 0.36711 0.39656 0.0
C511 C 0.82359 0.37651 0.38702 0.0
P512 P 0.69963 0.19825 0.68653 0.0
H513 H 0.69092 0.20567 0.71876 0.0
H514 H 0.66571 0.20897 0.73124 0.0
H515 H 0.64126 0.19946 0.68592 0.0
H516 H 0.66678 0.19644 0.67341 0.0
H517 H 0.72488 0.18324 0.70559 0.0
H518 H 0.73177 0.15603 0.71006 0.0
H519 H 0.69309 0.14152 0.678 0.0
H520 H 0.68604 0.16893 0.67391 0.0
H521 H 0.68688 0.22475 0.66815 0.0
H522 H 0.71596 0.18488 0.65973 0.0
O523 O 0.71282 0.20951 0.6966 0.0
H524 H 0.69343 0.23541 0.64194 0.0
H525 H 0.7223 0.19528 0.63371 0.0
C526 C 0.68072 0.20119 0.69509 0.0
C527 C 0.68015 0.20444 0.71145 0.0
C528 C 0.66568 0.20615 0.71863 0.0
C529 C 0.65141 0.20447 0.70961 0.0
C530 C 0.65202 0.20104 0.69318 0.0
C531 C 0.66658 0.1993 0.686 0.0
C532 C 0.70493 0.1781 0.68943 0.0
C533 C 0.7179 0.17423 0.69947 0.0
C534 C 0.72192 0.15862 0.70191 0.0
C535 C 0.71304 0.14652 0.69435 0.0
C536 C 0.7001 0.1505 0.68416 0.0
C537 C 0.69607 0.16615 0.68175 0.0
C538 C 0.70068 0.20387 0.66583 0.0
C539 C 0.6942 0.21802 0.66046 0.0
C540 C 0.69797 0.22412 0.6455 0.0
C541 C 0.7085 0.21625 0.63584 0.0
C542 C 0.71429 0.2017 0.64095 0.0
C543 C 0.71051 0.19565 0.65582 0.0
P544 P 0.37124 0.16319 0.66362 0.0
H545 H 0.39644 0.15381 0.68594 0.0
H546 H 0.41574 0.16841 0.70265 0.0
H547 H 0.39385 0.21163 0.68801 0.0
H548 H 0.37455 0.1969 0.67124 0.0
H549 H 0.3439 0.14616 0.65055 0.0
H550 H 0.32507 0.12803 0.66194 0.0
H551 H 0.34852 0.13394 0.70839 0.0
H552 H 0.36687 0.15274 0.69697 0.0
H553 H 0.38112 0.1755 0.63309 0.0
H554 H 0.34058 0.17894 0.66237 0.0
O555 O 0.38271 0.15114 0.65375 0.0
H556 H 0.36787 0.19131 0.61249 0.0
H557 H 0.32719 0.19482 0.64174 0.0
C558 C 0.38403 0.17422 0.67736 0.0
C559 C 0.39566 0.16642 0.68648 0.0
C560 C 0.40669 0.1748 0.69606 0.0
C561 C 0.40638 0.19122 0.69666 0.0
C562 C 0.39453 0.19902 0.68767 0.0
C563 C 0.3834 0.19058 0.67817 0.0
C564 C 0.35666 0.15103 0.67292 0.0
C565 C 0.34482 0.14379 0.66326 0.0
C566 C 0.33415 0.13323 0.66978 0.0
C567 C 0.33528 0.12935 0.68611 0.0
C568 C 0.34712 0.13676 0.69582 0.0
C569 C 0.35772 0.14749 0.68928 0.0
C570 C 0.36169 0.17576 0.64907 0.0
C571 C 0.36936 0.17968 0.63509 0.0
C572 C 0.3618 0.18879 0.62335 0.0
C573 C 0.34642 0.1942 0.62542 0.0
C574 C 0.33892 0.19058 0.63968 0.0
C575 C 0.34657 0.18157 0.65149 0.0
P576 P 0.34512 0.87225 0.67114 0.0
H577 H 0.36173 0.89735 0.68831 0.0
H578 H 0.35395 0.91587 0.70867 0.0
H579 H 0.30833 0.89286 0.71022 0.0
H580 H 0.31637 0.87416 0.69001 0.0
H581 H 0.36599 0.85304 0.65312 0.0
H582 H 0.3864 0.8344 0.66073 0.0
H583 H 0.37706 0.84188 0.71055 0.0
H584 H 0.35616 0.86009 0.7027 0.0
H585 H 0.31727 0.88542 0.65516 0.0
H586 H 0.33629 0.83952 0.66306 0.0
O587 O 0.35377 0.88394 0.65806 0.0
H588 H 0.2966 0.8743 0.63724 0.0
H589 H 0.31623 0.82842 0.64466 0.0
C590 C 0.33953 0.88458 0.68743 0.0
C591 C 0.35009 0.89623 0.69312 0.0
C592 C 0.34559 0.90686 0.70471 0.0
C593 C 0.33042 0.90603 0.71094 0.0
C594 C 0.32011 0.89384 0.70573 0.0
C595 C 0.32465 0.88318 0.69409 0.0
C596 C 0.35966 0.85805 0.67733 0.0
C597 C 0.3683 0.85061 0.66568 0.0
C598 C 0.38007 0.84002 0.67008 0.0
C599 C 0.38358 0.83672 0.6863 0.0
C600 C 0.37463 0.84401 0.69795 0.0
C601 C 0.36273 0.85454 0.6935 0.0
C602 C 0.32838 0.86336 0.66043 0.0
C603 C 0.31689 0.87292 0.65318 0.0
C604 C 0.30518 0.86654 0.64277 0.0
C605 C 0.30481 0.85045 0.63925 0.0
C606 C 0.31599 0.84082 0.64712 0.0
C607 C 0.32761 0.84721 0.65762 0.0
P608 P 0.63944 0.86497 0.65542 0.0
H609 H 0.63377 0.89779 0.66117 0.0
H610 H 0.64731 0.91756 0.67779 0.0
H611 H 0.68261 0.88388 0.69216 0.0
H612 H 0.66903 0.86415 0.67514 0.0
H613 H 0.63374 0.83209 0.64739 0.0
H614 H 0.64745 0.81393 0.63054 0.0
H615 H 0.68474 0.84824 0.62502 0.0
H616 H 0.6706 0.86654 0.6415 0.0
H617 H 0.60544 0.85867 0.65228 0.0
H618 H 0.64306 0.85159 0.68757 0.0
O619 O 0.62934 0.87397 0.64069 0.0
H620 H 0.58646 0.84774 0.67049 0.0
H621 H 0.62404 0.84101 0.70611 0.0
C622 C 0.6506 0.87962 0.66663 0.0
C623 C 0.64456 0.89471 0.66769 0.0
C624 C 0.65222 0.90596 0.67737 0.0
C625 C 0.66603 0.90231 0.68637 0.0
C626 C 0.67212 0.88714 0.68523 0.0
C627 C 0.66439 0.87585 0.67551 0.0
C628 C 0.65133 0.85055 0.64606 0.0
C629 C 0.64506 0.83558 0.6429 0.0
C630 C 0.65295 0.82517 0.63322 0.0
C631 C 0.66725 0.82957 0.62636 0.0
C632 C 0.67369 0.84448 0.62992 0.0
C633 C 0.66572 0.85491 0.63955 0.0
C634 C 0.62563 0.85615 0.66866 0.0
C635 C 0.60962 0.85484 0.664 0.0
C636 C 0.59873 0.84868 0.67449 0.0
C637 C 0.60366 0.84369 0.68988 0.0
C638 C 0.61982 0.84469 0.69435 0.0
C639 C 0.63071 0.85082 0.6838 0.0
P640 P 0.67469 0.82122 0.33338 0.0
H641 H 0.65046 0.83252 0.31044 0.0
H642 H 0.62297 0.82452 0.30487 0.0
H643 H 0.62542 0.79342 0.34547 0.0
H644 H 0.65288 0.80142 0.3509 0.0
H645 H 0.70432 0.83279 0.32172 0.0
H646 H 0.71482 0.85891 0.31669 0.0
H647 H 0.67066 0.87878 0.33001 0.0
H648 H 0.66017 0.8524 0.33506 0.0
H649 H 0.69411 0.79611 0.34698 0.0
H650 H 0.67162 0.83752 0.36381 0.0
O651 O 0.68285 0.80882 0.32083 0.0
H652 H 0.70476 0.79099 0.37391 0.0
H653 H 0.68254 0.83267 0.39085 0.0
C654 C 0.65363 0.81792 0.33135 0.0
C655 C 0.64494 0.82433 0.31842 0.0
C656 C 0.62922 0.8197 0.31522 0.0
C657 C 0.62197 0.8083 0.32471 0.0
C658 C 0.63066 0.80213 0.33785 0.0
C659 C 0.64633 0.80684 0.34108 0.0
C660 C 0.68134 0.84063 0.32836 0.0
C661 C 0.6968 0.84274 0.32335 0.0
C662 C 0.70285 0.8577 0.32063 0.0
C663 C 0.69359 0.87093 0.32297 0.0
C664 C 0.67802 0.8688 0.32793 0.0
C665 C 0.672 0.85375 0.33078 0.0
C666 C 0.68214 0.81724 0.35339 0.0
C667 C 0.69152 0.80416 0.35647 0.0
C668 C 0.69772 0.80131 0.37188 0.0
C669 C 0.69464 0.81149 0.38455 0.0
C670 C 0.68507 0.82453 0.38141 0.0
C671 C 0.67887 0.82736 0.36596 0.0
P672 P 0.68458 0.18385 0.32335 0.0
H673 H 0.7146 0.17711 0.33946 0.0
H674 H 0.72558 0.18263 0.36627 0.0
H675 H 0.68076 0.20135 0.37935 0.0
H676 H 0.67004 0.19618 0.3523 0.0
H677 H 0.6955 0.16991 0.2939 0.0
H678 H 0.70058 0.14308 0.28606 0.0
H679 H 0.68239 0.12671 0.3307 0.0
H680 H 0.67804 0.15374 0.33872 0.0
H681 H 0.672 0.21423 0.31418 0.0
H682 H 0.65329 0.1686 0.32519 0.0
O683 O 0.69643 0.1949 0.31243 0.0
H684 H 0.64544 0.22328 0.30732 0.0
H685 H 0.62655 0.17765 0.31875 0.0
C686 C 0.69152 0.1862 0.34387 0.0
C687 C 0.70709 0.18224 0.34817 0.0
C688 C 0.71333 0.18535 0.36357 0.0
C689 C 0.7041 0.19249 0.37506 0.0
C690 C 0.68831 0.19607 0.37078 0.0
C691 C 0.6821 0.19299 0.35532 0.0
C692 C 0.68667 0.16384 0.31703 0.0
C693 C 0.69258 0.16054 0.302 0.0
C694 C 0.69533 0.14512 0.29745 0.0
C695 C 0.69205 0.13261 0.30777 0.0
C696 C 0.68543 0.136 0.32256 0.0
C697 C 0.68282 0.15146 0.32715 0.0
C698 C 0.66468 0.19062 0.31977 0.0
C699 C 0.66214 0.20617 0.31522 0.0
C700 C 0.64688 0.21139 0.31146 0.0
C701 C 0.63379 0.20117 0.31231 0.0
C702 C 0.63636 0.18576 0.31763 0.0
C703 C 0.65166 0.18055 0.32136 0.0
P704 P 0.36314 0.14637 0.36516 0.0
H705 H 0.36601 0.11293 0.36085 0.0
H706 H 0.35164 0.09392 0.34405 0.0
H707 H 0.3197 0.12995 0.32764 0.0
H708 H 0.33395 0.14888 0.34507 0.0
H709 H 0.39765 0.14914 0.36701 0.0
H710 H 0.4168 0.15952 0.34861 0.0
H711 H 0.37876 0.17126 0.31508 0.0
H712 H 0.35966 0.16065 0.33351 0.0
H713 H 0.33539 0.14647 0.38473 0.0
H714 H 0.36801 0.18041 0.36628 0.0
O715 O 0.37279 0.13715 0.38005 0.0
H716 H 0.32392 0.16675 0.40112 0.0
H717 H 0.35637 0.20074 0.38215 0.0
C718 C 0.35088 0.13224 0.35442 0.0
C719 C 0.35572 0.11669 0.3539 0.0
C720 C 0.3476 0.10585 0.34408 0.0
C721 C 0.33459 0.1104 0.33432 0.0
C722 C 0.32957 0.12599 0.3351 0.0
C723 C 0.3377 0.13684 0.34504 0.0
C724 C 0.37725 0.15394 0.35153 0.0
C725 C 0.39342 0.15387 0.35568 0.0
C726 C 0.40436 0.15991 0.34518 0.0
C727 C 0.39931 0.16619 0.33035 0.0
C728 C 0.38305 0.16629 0.32629 0.0
C729 C 0.37212 0.16026 0.33683 0.0
C730 C 0.35241 0.16192 0.37412 0.0
C731 C 0.33976 0.15837 0.38384 0.0
C732 C 0.33322 0.17 0.39321 0.0
C733 C 0.33931 0.18539 0.39308 0.0
C734 C 0.35156 0.18898 0.38277 0.0
C735 C 0.35811 0.17735 0.37349 0.0
P736 P 0.3397 0.86156 0.36863 0.0
H737 H 0.35739 0.8769 0.34407 0.0
H738 H 0.37564 0.86762 0.32449 0.0
H739 H 0.36752 0.82017 0.34019 0.0
H740 H 0.34864 0.82953 0.35911 0.0
H741 H 0.32329 0.88755 0.38262 0.0
H742 H 0.30506 0.90693 0.37155 0.0
H743 H 0.30595 0.88426 0.32544 0.0
H744 H 0.32374 0.86461 0.33681 0.0
H745 H 0.35348 0.83778 0.38957 0.0
H746 H 0.30673 0.85312 0.3755 0.0
O747 O 0.35193 0.87203 0.38066 0.0
H748 H 0.34223 0.81999 0.40915 0.0
H749 H 0.29548 0.83557 0.39521 0.0
C750 C 0.35166 0.85396 0.35309 0.0
C751 C 0.35937 0.86447 0.34311 0.0
C752 C 0.36996 0.85913 0.33203 0.0
C753 C 0.3733 0.84312 0.33084 0.0
C754 C 0.3652 0.83256 0.34062 0.0
C755 C 0.35444 0.83793 0.3516 0.0
C756 C 0.32517 0.87487 0.36045 0.0
C757 C 0.31948 0.88672 0.37014 0.0
C758 C 0.30911 0.89785 0.36376 0.0
C759 C 0.30419 0.89737 0.3475 0.0
C760 C 0.3094 0.88501 0.338 0.0
C761 C 0.31972 0.87382 0.34446 0.0
C762 C 0.33098 0.84675 0.38101 0.0
C763 C 0.34078 0.83711 0.39048 0.0
C764 C 0.33434 0.82694 0.40166 0.0
C765 C 0.31798 0.82644 0.40378 0.0
C766 C 0.30815 0.8358 0.39394 0.0
C767 C 0.31458 0.84581 0.38261 0.0
P768 P 0.67194 0.70081 0.1722 0.0
H769 H 0.65719 0.7044 0.20282 0.0
H770 H 0.6309 0.71244 0.21002 0.0
H771 H 0.61584 0.71208 0.16009 0.0
H772 H 0.64229 0.70429 0.15299 0.0
H773 H 0.70167 0.6862 0.16635 0.0
H774 H 0.71088 0.65944 0.16859 0.0
H775 H 0.66387 0.64406 0.18015 0.0
H776 H 0.65489 0.6711 0.17833 0.0
H777 H 0.68238 0.73206 0.16332 0.0
H778 H 0.66879 0.68916 0.1392 0.0
O779 O 0.68363 0.70982 0.18592 0.0
H780 H 0.68738 0.74433 0.13763 0.0
H781 H 0.67383 0.70136 0.11336 0.0
C782 C 0.65179 0.70405 0.17737 0.0
C783 C 0.64818 0.70589 0.19344 0.0
C784 C 0.63308 0.71042 0.19754 0.0
C785 C 0.62126 0.71311 0.18562 0.0
C786 C 0.62474 0.71044 0.16955 0.0
C787 C 0.63986 0.70588 0.16547 0.0
C788 C 0.67763 0.68062 0.17218 0.0
C789 C 0.69331 0.67703 0.16922 0.0
C790 C 0.69854 0.66167 0.1704 0.0
C791 C 0.68814 0.6495 0.17455 0.0
C792 C 0.67227 0.65313 0.17714 0.0
C793 C 0.66707 0.66858 0.17599 0.0
C794 C 0.67557 0.70961 0.15315 0.0
C795 C 0.68058 0.72524 0.15248 0.0
C796 C 0.68345 0.73224 0.1378 0.0
C797 C 0.68113 0.72377 0.12348 0.0
C798 C 0.67567 0.7082 0.12418 0.0
C799 C 0.67292 0.70118 0.13892 0.0
P800 P 0.35664 0.65258 0.16599 0.0
H801 H 0.39108 0.65527 0.16582 0.0
H802 H 0.41055 0.66944 0.18251 0.0
H803 H 0.37313 0.6887 0.20976 0.0
H804 H 0.35359 0.67481 0.19249 0.0
H805 H 0.3618 0.61932 0.17125 0.0
H806 H 0.35064 0.60032 0.18946 0.0
H807 H 0.32065 0.63588 0.20797 0.0
H808 H 0.33185 0.65493 0.18948 0.0
H809 H 0.35637 0.68556 0.15638 0.0
H810 H 0.32617 0.64492 0.15025 0.0
O811 O 0.36627 0.64284 0.1522 0.0
H812 H 0.33931 0.70005 0.1377 0.0
H813 H 0.30891 0.65939 0.13155 0.0
C814 C 0.37085 0.66397 0.17788 0.0
C815 C 0.387 0.66262 0.17529 0.0
C816 C 0.39819 0.67064 0.18501 0.0
C817 C 0.39349 0.68012 0.19767 0.0
C818 C 0.37722 0.68161 0.20009 0.0
C819 C 0.36601 0.6736 0.19027 0.0
C820 C 0.34751 0.63851 0.17885 0.0
C821 C 0.35269 0.62304 0.17906 0.0
C822 C 0.34629 0.61215 0.18949 0.0
C823 C 0.33471 0.61656 0.20013 0.0
C824 C 0.32962 0.63214 0.19999 0.0
C825 C 0.33594 0.64302 0.18939 0.0
C826 C 0.34234 0.66427 0.15505 0.0
C827 C 0.34581 0.67988 0.15138 0.0
C828 C 0.33602 0.68815 0.14063 0.0
C829 C 0.32269 0.6809 0.13309 0.0
C830 C 0.31912 0.66531 0.13703 0.0
C831 C 0.32888 0.65708 0.14787 0.0
P832 P 0.36435 0.37226 0.17552 0.0
H833 H 0.36379 0.40562 0.18268 0.0
H834 H 0.34511 0.42213 0.19599 0.0
H835 H 0.31596 0.38159 0.20517 0.0
H836 H 0.33479 0.36507 0.19179 0.0
H837 H 0.39743 0.36488 0.17216 0.0
H838 H 0.4165 0.35035 0.18856 0.0
H839 H 0.38145 0.34304 0.22402 0.0
H840 H 0.36232 0.35766 0.20739 0.0
H841 H 0.35583 0.37198 0.14135 0.0
H842 H 0.35017 0.34134 0.18164 0.0
O843 O 0.37449 0.38418 0.16379 0.0
H844 H 0.34228 0.35287 0.12384 0.0
H845 H 0.33649 0.32214 0.16414 0.0
C846 C 0.35063 0.3841 0.18605 0.0
C847 C 0.35336 0.40024 0.18748 0.0
C848 C 0.34259 0.40972 0.19502 0.0
C849 C 0.32892 0.40323 0.20149 0.0
C850 C 0.32637 0.38697 0.20033 0.0
C851 C 0.33712 0.3775 0.19265 0.0
C852 C 0.37851 0.3626 0.18865 0.0
C853 C 0.39389 0.3604 0.18358 0.0
C854 C 0.40484 0.35212 0.19303 0.0
C855 C 0.40058 0.34562 0.2077 0.0
C856 C 0.38512 0.34786 0.21278 0.0
C857 C 0.37418 0.35629 0.20333 0.0
C858 C 0.35416 0.35805 0.1628 0.0
C859 C 0.35176 0.3611 0.14644 0.0
C860 C 0.34408 0.35011 0.1364 0.0
C861 C 0.33842 0.33592 0.14256 0.0
C862 C 0.34067 0.33298 0.15903 0.0
C863 C 0.34852 0.34393 0.16904 0.0
P864 P 0.64768 0.36866 0.14186 0.0
H865 H 0.64541 0.40227 0.14702 0.0
H866 H 0.65921 0.42043 0.16528 0.0
H867 H 0.68552 0.38216 0.1862 0.0
H868 H 0.67184 0.36405 0.16748 0.0
H869 H 0.64183 0.33932 0.12516 0.0
H870 H 0.65815 0.32262 0.10932 0.0
H871 H 0.69817 0.35351 0.11894 0.0
H872 H 0.68154 0.37043 0.13463 0.0
H873 H 0.61336 0.3702 0.14418 0.0
H874 H 0.65118 0.34146 0.16272 0.0
O875 O 0.63799 0.37909 0.1279 0.0
H876 H 0.59409 0.35294 0.1564 0.0
H877 H 0.63197 0.32391 0.17472 0.0
C878 C 0.65783 0.38185 0.15568 0.0
C879 C 0.65418 0.39776 0.1555 0.0
C880 C 0.66196 0.40814 0.16611 0.0
C881 C 0.67351 0.4028 0.17724 0.0
C882 C 0.67686 0.38673 0.17765 0.0
C883 C 0.66903 0.37634 0.16699 0.0
C884 C 0.66056 0.35588 0.13149 0.0
C885 C 0.65419 0.34238 0.12413 0.0
C886 C 0.66357 0.3328 0.11507 0.0
C887 C 0.67955 0.33659 0.11298 0.0
C888 C 0.68591 0.35025 0.12027 0.0
C889 C 0.67645 0.35985 0.12939 0.0
C890 C 0.63367 0.35697 0.15238 0.0
C891 C 0.61752 0.36019 0.15094 0.0
C892 C 0.60651 0.35024 0.15784 0.0
C893 C 0.61146 0.3369 0.16636 0.0
C894 C 0.62774 0.33411 0.16833 0.0
C895 C 0.63874 0.3441 0.16143 0.0
P896 P 0.69329 0.33752 0.83337 0.0
H897 H 0.67693 0.30847 0.82473 0.0
H898 H 0.65016 0.30236 0.81462 0.0
H899 H 0.63795 0.35096 0.81904 0.0
H900 H 0.66479 0.35693 0.82945 0.0
H901 H 0.70405 0.3523 0.80434 0.0
H902 H 0.71371 0.37856 0.79847 0.0
H903 H 0.70341 0.39317 0.84633 0.0
H904 H 0.69383 0.3667 0.85214 0.0
H905 H 0.67782 0.31894 0.8583 0.0
H906 H 0.72104 0.34532 0.85336 0.0
O907 O 0.70436 0.32608 0.82235 0.0
H908 H 0.68693 0.31068 0.88508 0.0
H909 H 0.73021 0.33715 0.87997 0.0
C910 C 0.67293 0.33317 0.82764 0.0
C911 C 0.66847 0.31781 0.82361 0.0
C912 C 0.65317 0.31435 0.81771 0.0
C913 C 0.64192 0.32621 0.81574 0.0
C914 C 0.64628 0.34154 0.8204 0.0
C915 C 0.66165 0.34499 0.82632 0.0
C916 C 0.69858 0.35746 0.82877 0.0
C917 C 0.70378 0.36117 0.81354 0.0
C918 C 0.70922 0.37625 0.81018 0.0
C919 C 0.70949 0.38797 0.82198 0.0
C920 C 0.70364 0.38435 0.83707 0.0
C921 C 0.6981 0.36924 0.84039 0.0
C922 C 0.69859 0.33305 0.85395 0.0
C923 C 0.68914 0.32318 0.86306 0.0
C924 C 0.69442 0.31836 0.87833 0.0
C925 C 0.70929 0.3233 0.88473 0.0
C926 C 0.71859 0.33336 0.87559 0.0
C927 C 0.71335 0.33805 0.86033 0.0
P928 P 0.70264 0.68563 0.81187 0.0
H929 H 0.73057 0.70011 0.82745 0.0
H930 H 0.73691 0.70804 0.85494 0.0
H931 H 0.69354 0.68627 0.86976 0.0
H932 H 0.68708 0.67881 0.84199 0.0
H933 H 0.71361 0.67481 0.78139 0.0
H934 H 0.71987 0.64916 0.77106 0.0
H935 H 0.71029 0.62868 0.81693 0.0
H936 H 0.70359 0.65454 0.82706 0.0
H937 H 0.68084 0.70941 0.8221 0.0
H938 H 0.67873 0.6686 0.79182 0.0
O939 O 0.71197 0.69901 0.80109 0.0
H940 H 0.65357 0.71539 0.81396 0.0
H941 H 0.65176 0.6747 0.78334 0.0
C942 C 0.70818 0.68919 0.83262 0.0
C943 C 0.72247 0.69693 0.83663 0.0
C944 C 0.72616 0.70136 0.85244 0.0
C945 C 0.71567 0.69799 0.86465 0.0
C946 C 0.70175 0.68939 0.86066 0.0
C947 C 0.69806 0.68502 0.8448 0.0
C948 C 0.70852 0.66665 0.80512 0.0
C949 C 0.71306 0.66485 0.78932 0.0
C950 C 0.71666 0.65012 0.78341 0.0
C951 C 0.71574 0.6368 0.79317 0.0
C952 C 0.71103 0.63865 0.80902 0.0
C953 C 0.70737 0.65345 0.81491 0.0
C954 C 0.6818 0.68843 0.80781 0.0
C955 C 0.67443 0.70159 0.81391 0.0
C956 C 0.65889 0.70509 0.80909 0.0
C957 C 0.65044 0.69557 0.79792 0.0
C958 C 0.65777 0.68218 0.79213 0.0
C959 C 0.6733 0.67869 0.79697 0.0
P960 P 0.37819 0.65831 0.86179 0.0
H961 H 0.38918 0.63228 0.84341 0.0
H962 H 0.37587 0.61303 0.82584 0.0
H963 H 0.33157 0.63631 0.83168 0.0
H964 H 0.34508 0.65566 0.84926 0.0
H965 H 0.40862 0.67216 0.87136 0.0
H966 H 0.42626 0.69062 0.85849 0.0
H967 H 0.39377 0.69256 0.81748 0.0
H968 H 0.37607 0.67406 0.83057 0.0
H969 H 0.36003 0.64943 0.88924 0.0
H970 H 0.36817 0.69121 0.86186 0.0
O971 O 0.38932 0.64722 0.87398 0.0
H972 H 0.34616 0.66465 0.90884 0.0
H973 H 0.35413 0.70648 0.88126 0.0
C974 C 0.36807 0.64523 0.84782 0.0
C975 C 0.37661 0.63328 0.84086 0.0
C976 C 0.36897 0.62224 0.83087 0.0
C977 C 0.35262 0.62301 0.82751 0.0
C978 C 0.34419 0.63541 0.834 0.0
C979 C 0.35187 0.64644 0.84411 0.0
C980 C 0.39125 0.67145 0.85173 0.0
C981 C 0.40536 0.67642 0.85953 0.0
C982 C 0.41544 0.68698 0.85216 0.0
C983 C 0.41148 0.69296 0.83691 0.0
C984 C 0.39712 0.68821 0.82926 0.0
C985 C 0.38707 0.67753 0.83664 0.0
C986 C 0.36534 0.66919 0.87423 0.0
C987 C 0.35858 0.66184 0.88729 0.0
C988 C 0.3506 0.67058 0.89848 0.0
C989 C 0.34921 0.68686 0.89676 0.0
C990 C 0.35529 0.69403 0.88314 0.0
C991 C 0.36324 0.68526 0.87195 0.0
P992 P 0.36774 0.35777 0.88513 0.0
H993 H 0.38977 0.36466 0.86023 0.0
H994 H 0.40838 0.3485 0.8463 0.0
H995 H 0.38892 0.3073 0.8684 0.0
H996 H 0.37053 0.32358 0.88246 0.0
H997 H 0.3554 0.3868 0.89643 0.0
H998 H 0.34029 0.40763 0.88371 0.0
H999 H 0.34112 0.38325 0.83851 0.0
H1000 H 0.35594 0.36207 0.85161 0.0
H1001 H 0.37231 0.34094 0.91511 0.0
H1002 H 0.33358 0.35092 0.88194 0.0
O1003 O 0.38111 0.36644 0.89745 0.0
H1004 H 0.35403 0.32851 0.93316 0.0
H1005 H 0.31517 0.33836 0.89992 0.0
C1006 C 0.37863 0.34535 0.87224 0.0
C1007 C 0.38925 0.35211 0.86176 0.0
C1008 C 0.39991 0.34283 0.8538 0.0
C1009 C 0.40024 0.32657 0.85629 0.0
C1010 C 0.38915 0.31979 0.86637 0.0
C1011 C 0.37849 0.32909 0.87431 0.0
C1012 C 0.35714 0.37312 0.87489 0.0
C1013 C 0.35246 0.38599 0.88375 0.0
C1014 C 0.34385 0.39794 0.87642 0.0
C1015 C 0.33969 0.39729 0.85999 0.0
C1016 C 0.34412 0.38414 0.85117 0.0
C1017 C 0.35273 0.3721 0.8586 0.0
C1018 C 0.35428 0.34708 0.89734 0.0
C1019 C 0.35987 0.34033 0.91166 0.0
C1020 C 0.3494 0.33315 0.92193 0.0
C1021 C 0.3331 0.33254 0.91804 0.0
C1022 C 0.32761 0.33886 0.90338 0.0
C1023 C 0.33814 0.34598 0.89306 0.0
Cu1024 Cu 0.25642 0.26128 0.03773 0.0
N1025 N 0.2557 0.2783 0.02391 0.0
N1026 N 0.26367 0.29337 1.00386 0.0
C1027 C 0.26461 0.27927 0.01101 0.0
C1028 C 0.25355 0.30156 0.01259 0.0
C1029 C 0.2487 0.29224 0.02502 0.0
O1030 O 0.26065 0.24353 0.02389 0.0
C1031 C 0.26917 0.27565 0.06485 0.0
O1032 O 0.25485 0.28134 0.06441 0.0
H1033 H 0.27197 0.26984 0.00726 0.0
H1034 H 0.24117 0.29561 0.03453 0.0
N1035 N 0.23748 0.25807 0.04808 0.0
N1036 N 0.22111 0.24926 0.06643 0.0
C1037 C 0.23592 0.24905 0.06109 0.0
C1038 C 0.22317 0.26426 0.04503 0.0
C1039 C 0.21304 0.25888 0.0564 0.0
C1040 C 0.25063 0.23252 0.02107 0.0
O1041 O 0.23822 0.23129 0.02989 0.0
H1042 H 0.2456 0.24273 0.06672 0.0
H1043 H 0.22035 0.27219 0.03532 0.0
O1044 O 0.27292 0.26606 0.05402 0.0
H1045 H 0.25044 0.31364 0.01062 0.0
H1046 H 0.2007 0.26175 0.05716 0.0
Cu1047 Cu 0.77074 0.25571 0.00802 0.0
N1048 N 0.75141 0.25826 0.0196 0.0
N1049 N 0.73417 0.26767 0.0365 0.0
C1050 C 0.74832 0.26982 0.02987 0.0
C1051 C 0.72821 0.25426 0.03006 0.0
C1052 C 0.73889 0.24848 0.01962 0.0
O1053 O 0.78081 0.24494 0.02753 0.0
C1054 C 0.76 0.28021 0.98583 0.0
O1055 O 0.76706 0.28961 0.99636 0.0
H1056 H 0.75647 0.27936 0.03271 0.0
H1057 H 0.73771 0.23784 0.01268 0.0
N1058 N 0.79028 0.2535 0.99661 0.0
N1059 N 0.80822 0.24563 0.97962 0.0
C1060 C 0.79314 0.24406 0.98419 0.0
C1061 C 0.80384 0.26137 0.99992 0.0
C1062 C 0.81494 0.25651 0.9895 0.0
C1063 C 0.78826 0.25225 0.03879 0.0
O1064 O 0.78998 0.26749 0.03787 0.0
H1065 H 0.78446 0.23608 0.9788 0.0
H1066 H 0.80552 0.27004 0.00925 0.0
O1067 O 0.76019 0.26555 0.98826 0.0
H1068 H 0.7169 0.249 0.03263 0.0
H1069 H 0.82699 0.2608 0.98911 0.0
Cu1070 Cu 0.7435 0.78085 0.98818 0.0
N1071 N 0.74448 0.79868 0.97544 0.0
N1072 N 0.75476 0.81541 0.95805 0.0
C1073 C 0.75625 0.80151 0.9655 0.0
C1074 C 0.74139 0.82155 0.96349 0.0
C1075 C 0.7351 0.81121 0.9743 0.0
O1076 O 0.74433 0.76291 0.97373 0.0
C1077 C 0.75787 0.79412 0.01448 0.0
O1078 O 0.74529 0.80271 0.01203 0.0
H1079 H 0.76576 0.79344 0.96384 0.0
H1080 H 0.72464 0.81288 0.98105 0.0
N1081 N 0.72487 0.77903 0.99941 0.0
N1082 N 0.70976 0.77211 0.01958 0.0
C1083 C 0.72427 0.77175 0.0136 0.0
C1084 C 0.71014 0.78417 0.99621 0.0
C1085 C 0.70074 0.77982 0.00864 0.0
C1086 C 0.7324 0.76191 0.96399 0.0
O1087 O 0.72151 0.77262 0.96464 0.0
H1088 H 0.73438 0.76626 0.01942 0.0
H1089 H 0.70647 0.79066 0.98567 0.0
O1090 O 0.76041 0.78309 0.00467 0.0
H1091 H 0.73674 0.83287 0.96027 0.0
H1092 H 0.68836 0.78241 0.0097 0.0
Cu1093 Cu 0.26926 0.75721 0.0139 0.0
N1094 N 0.26514 0.77568 0.02481 0.0
N1095 N 0.25199 0.79126 0.04092 0.0
C1096 C 0.25244 0.77716 0.03378 0.0
C1097 C 0.265 0.79901 0.03624 0.0
C1098 C 0.27309 0.78937 0.02621 0.0
O1099 O 0.2694 0.74057 0.02998 0.0
C1100 C 0.2563 0.76732 0.98605 0.0
O1101 O 0.26774 0.77743 0.98945 0.0
H1102 H 0.24389 0.76783 0.03531 0.0
H1103 H 0.28395 0.79214 0.02043 0.0
N1104 N 0.28887 0.75656 0.00445 0.0
N1105 N 0.30632 0.74832 0.98703 0.0
C1106 C 0.29145 0.747 0.99211 0.0
C1107 C 0.30261 0.76427 0.00743 0.0
C1108 C 0.31341 0.75924 0.99663 0.0
C1109 C 0.27853 0.74388 0.04205 0.0
O1110 O 0.28641 0.7572 0.04206 0.0
H1111 H 0.2824 0.73938 0.98681 0.0
H1112 H 0.30468 0.77283 0.0168 0.0
O1113 O 0.25379 0.75627 0.99592 0.0
H1114 H 0.26838 0.81081 0.03968 0.0
H1115 H 0.32557 0.76315 0.99607 0.0
Cu1116 Cu 0.9978 0.27181 0.26876 0.0
N1117 N 0.01034 0.27025 0.25107 0.0
N1118 N 0.03071 0.26215 0.23726 0.0
C1119 C 0.0254 0.26549 0.25183 0.0
C1120 C 0.01851 0.26505 0.22688 0.0
C1121 C 0.00594 0.27007 0.23546 0.0
O1122 O 0.01244 0.27172 0.28736 0.0
C1123 C 0.98596 0.2412 0.26225 0.0
O1124 O 1.00069 0.23806 0.2593 0.0
H1125 H 0.03188 0.26326 0.26298 0.0
H1126 H 0.99414 0.27244 0.23078 0.0
N1127 N 0.98598 0.29001 0.26805 0.0
N1128 N 0.96801 0.3074 0.27484 0.0
C1129 C 0.97391 0.29303 0.27749 0.0
C1130 C 0.98778 0.30281 0.25898 0.0
C1131 C 0.97672 0.31361 0.26318 0.0
C1132 C 0.01641 0.2843 0.29471 0.0
O1133 O 0.00875 0.29717 0.29129 0.0
H1134 H 0.96992 0.285 0.28651 0.0
H1135 H 0.99665 0.30427 0.25014 0.0
O1136 O 0.9827 0.25455 0.26782 0.0
H1137 H 0.01846 0.26306 0.21411 0.0
H1138 H 0.97525 0.32513 0.25807 0.0
Cu1139 Cu 0.75588 0.00683 0.26668 0.0
N1140 N 0.77487 0.0182 0.26702 0.0
N1141 N 0.79218 0.03671 0.25995 0.0
C1142 C 0.77725 0.03104 0.25813 0.0
C1143 C 0.79945 0.02694 0.27047 0.0
C1144 C 0.78876 0.01552 0.27476 0.0
O1145 O 0.73928 0.02247 0.26734 0.0
C1146 C 0.76612 0.98217 0.24959 0.0
O1147 O 0.77491 0.98162 0.26285 0.0
H1148 H 0.76824 0.0358 0.2501 0.0
H1149 H 0.79108 0.0058 0.2827 0.0
N1150 N 0.75396 0.99375 0.28454 0.0
N1151 N 0.7458 0.97352 0.29916 0.0
C1152 C 0.74419 0.98123 0.28513 0.0
C1153 C 0.76199 0.99405 0.29873 0.0
C1154 C 0.75701 0.98158 0.30775 0.0
C1155 C 0.73974 0.03018 0.28042 0.0
O1156 O 0.75057 0.02664 0.29142 0.0
H1157 H 0.73642 0.97759 0.27522 0.0
H1158 H 0.77089 1.00267 0.30227 0.0
O1159 O 0.75607 0.99309 0.24798 0.0
H1160 H 0.81163 0.02785 0.27473 0.0
H1161 H 0.76129 0.97872 0.31972 0.0
Cu1162 Cu 0.98863 0.76446 0.26103 0.0
N1163 N 0.97858 0.78378 0.25975 0.0
N1164 N 0.96106 0.80139 0.25089 0.0
C1165 C 0.96646 0.78673 0.2494 0.0
C1166 C 0.97027 0.80797 0.26267 0.0
C1167 C 0.98106 0.79705 0.26815 0.0
O1168 O 0.97185 0.74865 0.26301 0.0
C1169 C 0.01326 0.7739 0.24384 0.0
O1170 O 0.01339 0.78368 0.25594 0.0
H1171 H 0.96183 0.77821 0.24083 0.0
H1172 H 0.99 0.79865 0.2776 0.0
N1173 N 1.00245 0.76225 0.27887 0.0
N1174 N 0.02385 0.75378 0.29256 0.0
C1175 C 0.01575 0.75389 0.27839 0.0
C1176 C 1.00199 0.76757 0.29398 0.0
C1177 C 0.0152 0.76229 0.3025 0.0
C1178 C 0.96247 0.7519 0.27408 0.0
O1179 O 0.96522 0.76466 0.28251 0.0
H1180 H 0.01933 0.74787 0.26778 0.0
H1181 H 0.99278 0.77478 0.29848 0.0
O1182 O 1.00226 0.76355 0.24268 0.0
H1183 H 0.96918 0.81973 0.26719 0.0
H1184 H 0.01831 0.76474 0.31492 0.0
Cu1185 Cu 0.245 0.99794 0.25858 0.0
N1186 N 0.26428 0.00885 0.259 0.0
N1187 N 0.28287 0.02666 0.26605 0.0
C1188 C 0.26751 0.02238 0.26673 0.0
C1189 C 0.2895 0.01539 0.25733 0.0
C1190 C 0.27802 1.00443 0.25302 0.0
O1191 O 0.22828 0.01321 0.25674 0.0
C1192 C 0.25208 0.98643 0.29003 0.0
O1193 O 0.25807 1.00044 0.29281 0.0
H1194 H 0.2589 0.02852 0.27343 0.0
H1195 H 0.27966 0.99377 0.24638 0.0
N1196 N 0.24287 0.98551 0.24032 0.0
N1197 N 0.23343 0.96683 0.22366 0.0
C1198 C 0.23387 0.97248 0.23877 0.0
C1199 C 0.24838 0.9883 0.22575 0.0
C1200 C 0.24264 0.97679 0.21546 0.0
C1201 C 0.22427 0.02297 0.26726 0.0
O1202 O 0.23028 0.02193 0.28191 0.0
H1203 H 0.22756 0.96748 0.24856 0.0
H1204 H 0.25564 0.99827 0.22272 0.0
O1205 O 0.24471 0.98371 0.27675 0.0
H1206 H 0.30182 0.01489 0.25446 0.0
H1207 H 0.24464 0.97624 0.2028 0.0
Cu1208 Cu 0.01182 0.76179 0.75977 0.0
N1209 N 0.0237 0.74381 0.75755 0.0
N1210 N 0.04408 0.72981 0.74968 0.0
C1211 C 0.03918 0.74392 0.75451 0.0
C1212 C 0.03116 0.72042 0.74977 0.0
C1213 C 0.01859 0.7291 0.75458 0.0
O1214 O 0.02674 0.77842 0.76576 0.0
C1215 C 0.98765 0.77201 0.73792 0.0
O1216 O 0.98366 0.78134 0.74949 0.0
H1217 H 0.04637 0.75447 0.75452 0.0
H1218 H 0.0064 0.72524 0.75475 0.0
N1219 N 0.9968 0.75988 0.7755 0.0
N1220 N 0.97772 0.76774 0.79127 0.0
C1221 C 0.99037 0.77206 0.78291 0.0
C1222 C 0.98813 0.74731 0.77951 0.0
C1223 C 0.97635 0.75212 0.78925 0.0
C1224 C 0.03256 0.77751 0.77999 0.0
O1225 O 0.02743 0.76636 0.78931 0.0
H1226 H 0.99414 0.78403 0.7811 0.0
H1227 H 0.98966 0.73564 0.77496 0.0
O1228 O 1.00041 0.76442 0.73945 0.0
H1229 H 0.03066 0.70834 0.74594 0.0
H1230 H 0.96712 0.74476 0.79392 0.0
Cu1231 Cu 0.25961 0.01457 0.76709 0.0
N1232 N 0.2589 0.02738 0.74906 0.0
N1233 N 0.26621 0.04611 0.73216 0.0
C1234 C 0.26849 0.03978 0.7468 0.0
C1235 C 0.25469 0.0373 0.72488 0.0
C1236 C 0.25018 0.02576 0.73537 0.0
O1237 O 0.2579 0.02824 0.7855 0.0
C1238 C 0.28288 0.99104 0.77461 0.0
O1239 O 0.27524 0.9882 0.78767 0.0
H1240 H 0.27746 0.04368 0.75549 0.0
H1241 H 0.24145 0.01662 0.73306 0.0
N1242 N 0.24217 1.00089 0.76702 0.0
N1243 N 0.22805 0.97929 0.77225 0.0
C1244 C 0.24241 0.98526 0.76896 0.0
C1245 C 0.22705 0.00491 0.7687 0.0
C1246 C 0.21831 0.99163 0.77187 0.0
C1247 C 0.26837 0.03779 0.79104 0.0
O1248 O 0.28272 0.03735 0.78568 0.0
H1249 H 0.25302 0.97848 0.76864 0.0
H1250 H 0.22291 0.0168 0.76876 0.0
O1251 O 0.27881 1.0025 0.76577 0.0
H1252 H 0.24998 0.03898 0.71281 0.0
H1253 H 0.206 0.99132 0.77485 0.0
Cu1254 Cu 0.03596 0.27206 0.77579 0.0
N1255 N 0.02443 0.2906 0.77512 0.0
N1256 N 0.00618 0.30719 0.76562 0.0
C1257 C 0.01371 0.29364 0.76331 0.0
C1258 C 0.01247 0.31294 0.77953 0.0
C1259 C 0.0238 0.30269 0.78535 0.0
O1260 O 0.02009 0.25526 0.77352 0.0
C1261 C 0.06176 0.28511 0.76304 0.0
O1262 O 0.06031 0.29273 0.77652 0.0
H1263 H 0.01117 0.28573 0.75342 0.0
H1264 H 0.03089 0.30389 0.7963 0.0
N1265 N 0.04753 0.2685 0.79498 0.0
N1266 N 0.06675 0.2587 0.81099 0.0
C1267 C 0.06056 0.25969 0.79592 0.0
C1268 C 0.04525 0.27325 0.81003 0.0
C1269 C 0.05709 0.26721 0.81994 0.0
C1270 C 0.00915 0.25671 0.78346 0.0
O1271 O 0.01017 0.26824 0.79382 0.0
H1272 H 0.06526 0.25395 0.78565 0.0
H1273 H 0.03566 0.28052 0.81358 0.0
O1274 O 0.05158 0.27444 0.75933 0.0
H1275 H 0.00919 0.32377 0.78508 0.0
H1276 H 0.05854 0.26911 0.83269 0.0
Cu1277 Cu 0.75243 0.01968 0.7584 0.0
N1278 N 0.75668 0.03154 0.77679 0.0
N1279 N 0.76953 0.04928 0.7922 0.0
C1280 C 0.76733 0.04332 0.77734 0.0
C1281 C 0.75973 0.04093 0.80137 0.0
C1282 C 0.75188 0.02989 0.79184 0.0
O1283 O 0.7504 0.03467 0.74091 0.0
C1284 C 0.76882 0.99353 0.76687 0.0
O1285 O 0.75705 0.99289 0.7766 0.0
H1286 H 0.77356 0.04723 0.767 0.0
H1287 H 0.74376 0.02097 0.79574 0.0
N1288 N 0.73371 0.00778 0.75883 0.0
N1289 N 0.71623 0.98896 0.75177 0.0
C1290 C 0.73022 0.99586 0.74876 0.0
C1291 C 0.72149 0.00854 0.76858 0.0
C1292 C 0.71065 0.99696 0.76421 0.0
C1293 C 0.73753 0.04223 0.74041 0.0
O1294 O 0.72691 0.03896 0.75095 0.0
H1295 H 0.73783 0.99243 0.73934 0.0
H1296 H 0.72048 0.01692 0.77813 0.0
O1297 O 0.76966 0.00492 0.75711 0.0
H1298 H 0.7588 0.04224 0.81416 0.0
H1299 H 0.69965 0.99452 0.76992 0.0
Cu1300 Cu 0.24161 0.76927 0.51433 0.0
N1301 N 0.2376 0.78634 0.52748 0.0
N1302 N 0.24141 0.80355 0.54748 0.0
C1303 C 0.24456 0.78915 0.54197 0.0
C1304 C 0.23199 0.81005 0.53601 0.0
C1305 C 0.22968 0.79942 0.52369 0.0
O1306 O 0.24354 0.75109 0.52811 0.0
C1307 C 0.26764 0.76753 0.49258 0.0
O1308 O 0.26524 0.75237 0.49149 0.0
H1309 H 0.25263 0.78119 0.54791 0.0
H1310 H 0.22332 0.80137 0.51243 0.0
N1311 N 0.22468 0.76528 0.49982 0.0
N1312 N 0.21087 0.75505 0.47886 0.0
C1313 C 0.22525 0.75686 0.48625 0.0
C1314 C 0.20941 0.76895 0.50112 0.0
C1315 C 0.20088 0.76272 0.48819 0.0
C1316 C 0.25466 0.74851 0.53836 0.0
O1317 O 0.26755 0.75721 0.53831 0.0
H1318 H 0.236 0.75206 0.48198 0.0
H1319 H 0.20475 0.77537 0.51097 0.0
O1320 O 0.25976 0.7755 0.50223 0.0
H1321 H 0.2275 0.82181 0.53625 0.0
H1322 H 0.18822 0.7634 0.48614 0.0
Cu1323 Cu 0.74158 0.74739 0.51058 0.0
N1324 N 0.7404 0.72934 0.49803 0.0
N1325 N 0.74825 0.71301 0.4791 0.0
C1326 C 0.74685 0.72806 0.48362 0.0
C1327 C 0.74231 0.70451 0.49109 0.0
C1328 C 0.7376 0.71458 0.50278 0.0
O1329 O 0.74026 0.7649 0.49573 0.0
C1330 C 0.76672 0.75381 0.53423 0.0
O1331 O 0.75953 0.76678 0.53771 0.0
H1332 H 0.75187 0.7379 0.47737 0.0
H1333 H 0.7338 0.71128 0.51449 0.0
N1334 N 0.72542 0.74837 0.52531 0.0
N1335 N 0.71054 0.75764 0.54463 0.0
C1336 C 0.72274 0.76049 0.53508 0.0
C1337 C 0.71436 0.73754 0.52863 0.0
C1338 C 0.70523 0.74318 0.54058 0.0
C1339 C 0.72661 0.76989 0.49159 0.0
O1340 O 0.71421 0.76406 0.49852 0.0
H1341 H 0.72967 0.77119 0.53522 0.0
H1342 H 0.71289 0.72637 0.52274 0.0
O1343 O 0.7615 0.74543 0.52259 0.0
H1344 H 0.74228 0.69189 0.49184 0.0
H1345 H 0.69532 0.73717 0.5457 0.0
Cu1346 Cu 0.77093 0.26266 0.50885 0.0
N1347 N 0.76785 0.24412 0.49709 0.0
N1348 N 0.75828 0.22801 0.4778 0.0
C1349 C 0.75795 0.24251 0.48419 0.0
C1350 C 0.76883 0.22019 0.48719 0.0
C1351 C 0.7747 0.23014 0.49905 0.0
O1352 O 0.76993 0.27989 0.49355 0.0
C1353 C 0.75895 0.2521 0.53636 0.0
O1354 O 0.77082 0.24276 0.53407 0.0
H1355 H 0.75096 0.25202 0.47941 0.0
H1356 H 0.78339 0.22738 0.50838 0.0
N1357 N 0.79085 0.26418 0.51929 0.0
N1358 N 0.80924 0.27232 0.53749 0.0
C1359 C 0.7941 0.27348 0.532 0.0
C1360 C 0.8044 0.25685 0.5165 0.0
C1361 C 0.81578 0.26187 0.52771 0.0
C1362 C 0.77889 0.27797 0.48183 0.0
O1363 O 0.78745 0.26532 0.48144 0.0
H1364 H 0.78547 0.28108 0.53698 0.0
H1365 H 0.8059 0.24845 0.50705 0.0
O1366 O 0.75577 0.26253 0.5259 0.0
H1367 H 0.77208 0.20813 0.48571 0.0
H1368 H 0.82786 0.25794 0.52866 0.0
Cu1369 Cu 0.27426 0.26686 0.51295 0.0
N1370 N 0.27235 0.28617 0.52305 0.0
N1371 N 0.26446 0.30314 0.5413 0.0
C1372 C 0.26637 0.28797 0.53758 0.0
C1373 C 0.26976 0.31124 0.52871 0.0
C1374 C 0.27456 0.30071 0.51741 0.0
O1375 O 0.28088 0.25197 0.5293 0.0
C1376 C 0.24181 0.26886 0.50274 0.0
O1377 O 0.24044 0.27818 0.51505 0.0
H1378 H 0.26287 0.27824 0.54496 0.0
H1379 H 0.27866 0.30344 0.50565 0.0
N1380 N 0.28954 0.26724 0.4975 0.0
N1381 N 0.30281 0.25904 0.47658 0.0
C1382 C 0.2905 0.25636 0.486 0.0
C1383 C 0.30165 0.27724 0.49535 0.0
C1384 C 0.3099 0.27218 0.48246 0.0
C1385 C 0.29398 0.25557 0.53644 0.0
O1386 O 0.30138 0.26837 0.5321 0.0
H1387 H 0.28248 0.24644 0.48486 0.0
H1388 H 0.3044 0.28736 0.50273 0.0
O1389 O 0.25465 0.26158 0.50116 0.0
H1390 H 0.26936 0.3238 0.52736 0.0
H1391 H 0.32027 0.27778 0.47778 0.0
Cu1392 Cu 0.77963 0.51622 0.75796 0.0
N1393 N 0.79691 0.5299 0.76009 0.0
N1394 N 0.81239 0.5502 0.75378 0.0
C1395 C 0.79946 0.54151 0.74965 0.0
C1396 C 0.81821 0.54375 0.76748 0.0
C1397 C 0.80864 0.53119 0.77133 0.0
O1398 O 0.76224 0.52994 0.7519 0.0
C1399 C 0.79572 0.4911 0.74769 0.0
O1400 O 0.80225 0.49381 0.76193 0.0
H1401 H 0.79168 0.5437 0.73937 0.0
H1402 H 0.81009 0.52361 0.78159 0.0
N1403 N 0.77509 0.50587 0.77697 0.0
N1404 N 0.76443 0.48761 0.79252 0.0
C1405 C 0.76732 0.49208 0.77744 0.0
C1406 C 0.77736 0.51033 0.79231 0.0
C1407 C 0.77084 0.49903 0.80195 0.0
C1408 C 0.74954 0.53069 0.7595 0.0
O1409 O 0.74579 0.51923 0.76909 0.0
H1410 H 0.76367 0.48559 0.7668 0.0
H1411 H 0.78295 0.5212 0.79617 0.0
O1412 O 0.78485 0.50015 0.74254 0.0
H1413 H 0.82869 0.54772 0.77418 0.0
H1414 H 0.77039 0.49947 0.81485 0.0
Cu1415 Cu 0.26577 0.51576 0.77901 0.0
N1416 N 0.26735 0.50413 0.79793 0.0
N1417 N 0.27619 0.48606 0.81528 0.0
C1418 C 0.2728 0.48948 0.79977 0.0
C1419 C 0.27254 0.499 0.82349 0.0
C1420 C 0.26726 0.51011 0.81279 0.0
O1421 O 0.2608 0.50196 0.76097 0.0
C1422 C 0.28836 0.53968 0.77018 0.0
O1423 O 0.27885 0.54291 0.75794 0.0
H1424 H 0.27552 0.48196 0.78992 0.0
H1425 H 0.26482 0.52214 0.81557 0.0
N1426 N 0.24909 0.52988 0.77967 0.0
N1427 N 0.23347 0.54968 0.77224 0.0
C1428 C 0.24466 0.53968 0.76779 0.0
C1429 C 0.23993 0.53341 0.79191 0.0
C1430 C 0.23038 0.54568 0.78741 0.0
C1431 C 0.26884 0.49076 0.75573 0.0
O1432 O 0.28323 0.48851 0.76159 0.0
H1433 H 0.24993 0.53983 0.75626 0.0
H1434 H 0.2403 0.52773 0.80341 0.0
O1435 O 0.28549 0.52782 0.77881 0.0
H1436 H 0.27441 0.50066 0.83625 0.0
H1437 H 0.22202 0.55138 0.79485 0.0
Cu1438 Cu 0.25762 0.50392 0.28162 0.0
N1439 N 0.2551 0.491 0.29957 0.0
N1440 N 0.24685 0.47019 0.31327 0.0
C1441 C 0.24767 0.47699 0.29879 0.0
C1442 C 0.25402 0.48031 0.32365 0.0
C1443 C 0.2592 0.4931 0.31515 0.0
O1444 O 0.26087 0.48971 0.26375 0.0
C1445 C 0.23755 0.52596 0.29239 0.0
O1446 O 0.24723 0.52389 0.3048 0.0
H1447 H 0.24273 0.47198 0.28779 0.0
H1448 H 0.26531 0.50326 0.3201 0.0
N1449 N 0.27539 0.51708 0.28266 0.0
N1450 N 0.29189 0.53546 0.27378 0.0
C1451 C 0.27962 0.52575 0.2701 0.0
C1452 C 0.28539 0.52138 0.29482 0.0
C1453 C 0.29558 0.53278 0.28937 0.0
C1454 C 0.27199 0.48011 0.26673 0.0
O1455 O 0.2798 0.48107 0.28057 0.0
H1456 H 0.27333 0.52535 0.2586 0.0
H1457 H 0.28513 0.51686 0.30684 0.0
O1458 O 0.23952 0.51793 0.27979 0.0
H1459 H 0.25553 0.47852 0.33641 0.0
H1460 H 0.30488 0.53869 0.29634 0.0
Cu1461 Cu 0.75094 0.51749 0.23593 0.0
N1462 N 0.77037 0.50769 0.23896 0.0
N1463 N 0.78769 0.49128 0.25041 0.0
C1464 C 0.77259 0.49603 0.24951 0.0
C1465 C 0.79534 0.50043 0.23999 0.0
C1466 C 0.78459 0.51057 0.23291 0.0
O1467 O 0.73498 0.50083 0.23478 0.0
C1468 C 0.75925 0.54415 0.25182 0.0
O1469 O 0.76783 0.5449 0.23911 0.0
H1470 H 0.76329 0.4915 0.25678 0.0
H1471 H 0.78702 0.51954 0.22423 0.0
N1472 N 0.74874 0.52891 0.21696 0.0
N1473 N 0.73963 0.54771 0.20062 0.0
C1474 C 0.73872 0.54087 0.21509 0.0
C1475 C 0.75627 0.52797 0.20315 0.0
C1476 C 0.75069 0.5396 0.19305 0.0
C1477 C 0.73817 0.49019 0.22478 0.0
O1478 O 0.75099 0.49177 0.21658 0.0
H1479 H 0.73131 0.54478 0.22449 0.0
H1480 H 0.76527 0.51957 0.20068 0.0
O1481 O 0.75002 0.53241 0.25347 0.0
H1482 H 0.8078 0.49992 0.23769 0.0
H1483 H 0.75454 0.54188 0.18109 0.0
Cu1484 Cu 0.51933 0.25878 0.77547 0.0
N1485 N 0.50943 0.26149 0.79487 0.0
N1486 N 0.49138 0.26972 0.81167 0.0
C1487 C 0.49526 0.26816 0.79626 0.0
C1488 C 0.50361 0.26363 0.8203 0.0
C1489 C 0.51475 0.25861 0.8099 0.0
O1490 O 0.50268 0.25345 0.75947 0.0
C1491 C 0.53385 0.28886 0.78045 0.0
O1492 O 0.52284 0.29116 0.79077 0.0
H1493 H 0.48808 0.27199 0.78607 0.0
H1494 H 0.52611 0.25366 0.81309 0.0
N1495 N 0.53348 0.24226 0.77603 0.0
N1496 N 0.55378 0.22798 0.76838 0.0
C1497 C 0.54485 0.24066 0.76541 0.0
C1498 C 0.53519 0.23016 0.78618 0.0
C1499 C 0.54774 0.22134 0.78149 0.0
C1500 C 0.49469 0.24137 0.76328 0.0
O1501 O 0.49861 0.23425 0.77673 0.0
H1502 H 0.5467 0.24892 0.75587 0.0
H1503 H 0.52787 0.22793 0.79624 0.0
O1504 O 0.53279 0.27695 0.7713 0.0
H1505 H 0.50474 0.26334 0.83322 0.0
H1506 H 0.55199 0.21081 0.78725 0.0
Cu1507 Cu 0.50856 0.75748 0.75055 0.0
N1508 N 0.52278 0.7414 0.74775 0.0
N1509 N 0.54468 0.72745 0.75184 0.0
C1510 C 0.53736 0.74103 0.75467 0.0
C1511 C 0.53422 0.71894 0.74274 0.0
C1512 C 0.5207 0.72759 0.74024 0.0
O1513 O 0.52176 0.7761 0.7531 0.0
C1514 C 0.48625 0.75943 0.77585 0.0
O1515 O 0.48328 0.77379 0.77129 0.0
H1516 H 0.54223 0.75034 0.76218 0.0
H1517 H 0.50999 0.72394 0.73374 0.0
N1518 N 0.49494 0.75958 0.73252 0.0
N1519 N 0.47507 0.76832 0.7167 0.0
C1520 C 0.4807 0.76642 0.73187 0.0
C1521 C 0.49833 0.75682 0.71722 0.0
C1522 C 0.48611 0.7622 0.70743 0.0
C1523 C 0.51836 0.78937 0.7472 0.0
O1524 O 0.50392 0.79187 0.74165 0.0
H1525 H 0.4751 0.77094 0.74223 0.0
H1526 H 0.50927 0.75193 0.71342 0.0
O1527 O 0.49673 0.75165 0.76902 0.0
H1528 H 0.53612 0.70727 0.73831 0.0
H1529 H 0.48566 0.76206 0.6945 0.0
Cu1530 Cu 0.49302 0.77214 0.2576 0.0
N1531 N 0.48013 0.7896 0.25715 0.0
N1532 N 0.4609 0.80551 0.2642 0.0
C1533 C 0.46695 0.79105 0.26546 0.0
C1534 C 0.47068 0.81346 0.25466 0.0
C1535 C 0.48254 0.8036 0.25031 0.0
O1536 O 0.47873 0.75421 0.25898 0.0
C1537 C 0.51822 0.76563 0.28094 0.0
O1538 O 0.51704 0.75094 0.27646 0.0
H1539 H 0.46234 0.78185 0.2729 0.0
H1540 H 0.49246 0.80654 0.24309 0.0
N1541 N 0.50411 0.77052 0.2388 0.0
N1542 N 0.52257 0.76268 0.22228 0.0
C1543 C 0.51824 0.76375 0.23759 0.0
C1544 C 0.49934 0.77407 0.22374 0.0
C1545 C 0.51075 0.7693 0.21351 0.0
C1546 C 0.48138 0.7409 0.25293 0.0
O1547 O 0.49553 0.73792 0.24798 0.0
H1548 H 0.52506 0.75935 0.24774 0.0
H1549 H 0.48812 0.77925 0.2204 0.0
O1550 O 0.50844 0.77545 0.27516 0.0
H1551 H 0.4695 0.8256 0.25125 0.0
H1552 H 0.51006 0.77005 0.2006 0.0
Cu1553 Cu 0.50603 0.24997 0.24663 0.0
N1554 N 0.49397 0.23156 0.24754 0.0
N1555 N 0.47739 0.21386 0.25741 0.0
C1556 C 0.48512 0.22758 0.25991 0.0
C1557 C 0.48159 0.20899 0.24286 0.0
C1558 C 0.49188 0.21993 0.23681 0.0
O1559 O 0.49211 0.26757 0.25039 0.0
C1560 C 0.53194 0.23513 0.25869 0.0
O1561 O 0.52752 0.2266 0.24621 0.0
H1562 H 0.48413 0.23486 0.27039 0.0
H1563 H 0.49747 0.21939 0.22543 0.0
N1564 N 0.51422 0.25323 0.22657 0.0
N1565 N 0.52976 0.26371 0.20834 0.0
C1566 C 0.52746 0.26154 0.22405 0.0
C1567 C 0.50782 0.24999 0.21197 0.0
C1568 C 0.51741 0.25641 0.20068 0.0
C1569 C 0.4784 0.2666 0.24354 0.0
O1570 O 0.47461 0.25409 0.23507 0.0
H1571 H 0.53478 0.26661 0.23365 0.0
H1572 H 0.49666 0.24396 0.2097 0.0
O1573 O 0.524 0.24727 0.26169 0.0
H1574 H 0.47765 0.19825 0.23706 0.0
H1575 H 0.51525 0.25602 0.18786 0.0
H1576 H 0.20723 0.18438 0.14379 0.0
H1577 H 0.1981 0.25853 0.08587 0.0
H1578 H 0.18251 0.22609 0.15623 0.0
H1579 H 0.23121 0.22166 0.07862 0.0
H1580 H 0.18961 0.24527 0.11005 0.0
H1581 H 0.21353 0.19636 0.11818 0.0
C1582 C 0.20302 0.196 0.14107 0.0
C1583 C 0.19443 0.20429 0.1522 0.0
C1584 C 0.19871 0.24006 0.10314 0.0
C1585 C 0.2016 0.21807 0.12297 0.0
C1586 C 0.20348 0.24758 0.08929 0.0
C1587 C 0.21545 0.24125 0.08027 0.0
C1588 C 0.20585 0.22602 0.10794 0.0
C1589 C 0.22212 0.22708 0.08535 0.0
C1590 C 0.20669 0.20287 0.12651 0.0
C1591 C 0.18937 0.21937 0.1481 0.0
N1592 N 0.21724 0.21995 0.09883 0.0
N1593 N 0.19302 0.22577 0.13384 0.0
H1594 H 0.80742 0.1833 0.11255 0.0
H1595 H 0.80914 0.26285 0.06239 0.0
H1596 H 0.844 0.21857 0.11939 0.0
H1597 H 0.78217 0.22193 0.04735 0.0
H1598 H 0.81981 0.2482 0.08541 0.0
H1599 H 0.79578 0.19876 0.09075 0.0
C1600 C 0.81305 0.19427 0.10951 0.0
C1601 C 0.82685 0.1995 0.11784 0.0
C1602 C 0.81155 0.24244 0.07707 0.0
C1603 C 0.81333 0.21745 0.09292 0.0
C1604 C 0.80543 0.2508 0.06394 0.0
C1605 C 0.79478 0.2436 0.05287 0.0
C1606 C 0.80686 0.22681 0.07928 0.0
C1607 C 0.79041 0.22795 0.05551 0.0
C1608 C 0.80633 0.20313 0.09706 0.0
C1609 C 0.83329 0.21406 0.11351 0.0
N1610 N 0.79643 0.22011 0.06844 0.0
N1611 N 0.8265 0.22249 0.10135 0.0
H1612 H 0.78852 0.829 0.10704 0.0
H1613 H 0.79035 0.7925 0.01872 0.0
H1614 H 0.83 0.83096 0.07879 0.0
H1615 H 0.748 0.80293 0.04331 0.0
H1616 H 0.80616 0.80162 0.04242 0.0
H1617 H 0.77469 0.81435 0.08561 0.0
C1618 C 0.79481 0.82617 0.09643 0.0
C1619 C 0.81042 0.83136 0.0947 0.0
C1620 C 0.7934 0.80171 0.04263 0.0
C1621 C 0.79454 0.81467 0.06993 0.0
C1622 C 0.78441 0.79642 0.02919 0.0
C1623 C 0.76789 0.79711 0.02905 0.0
C1624 C 0.78572 0.80746 0.05601 0.0
C1625 C 0.76073 0.80238 0.04286 0.0
C1626 C 0.78686 0.81789 0.08412 0.0
C1627 C 0.81788 0.82744 0.08053 0.0
N1628 N 0.76966 0.80738 0.05571 0.0
N1629 N 0.80985 0.8194 0.06866 0.0
H1630 H 0.16557 0.80299 0.09028 0.0
H1631 H 0.2555 0.81259 0.06498 0.0
H1632 H 0.20026 0.83106 0.11677 0.0
H1633 H 0.22129 0.78193 0.04115 0.0
H1634 H 0.23533 0.82036 0.0835 0.0
H1635 H 0.18579 0.79574 0.07175 0.0
C1636 C 0.17744 0.80764 0.0922 0.0
C1637 C 0.1812 0.81765 0.10512 0.0
C1638 C 0.23225 0.81192 0.07421 0.0
C1639 C 0.20449 0.80937 0.08391 0.0
C1640 C 0.24374 0.80757 0.06357 0.0
C1641 C 0.24013 0.79651 0.05154 0.0
C1642 C 0.21701 0.80525 0.07275 0.0
C1643 C 0.22471 0.79028 0.05039 0.0
C1644 C 0.18901 0.80345 0.08164 0.0
C1645 C 0.19686 0.82316 0.10709 0.0
N1646 N 0.21375 0.79473 0.06083 0.0
N1647 N 0.2079 0.81899 0.09658 0.0
H1648 H 0.18897 0.79308 0.90986 0.0
H1649 H 0.26959 0.77287 0.95804 0.0
H1650 H 0.23578 0.80232 0.89338 0.0
H1651 H 0.22419 0.76566 0.97846 0.0
H1652 H 0.25658 0.78054 0.93295 0.0
H1653 H 0.20076 0.78064 0.93389 0.0
C1654 C 0.2017 0.79247 0.91126 0.0
C1655 C 0.2114 0.79895 0.89964 0.0
C1656 C 0.24935 0.77715 0.94279 0.0
C1657 C 0.22491 0.78465 0.927 0.0
C1658 C 0.2568 0.77267 0.95711 0.0
C1659 C 0.24794 0.76865 0.97031 0.0
C1660 C 0.23281 0.77792 0.94161 0.0
C1661 C 0.23142 0.76857 0.96847 0.0
C1662 C 0.2084 0.78539 0.92498 0.0
C1663 C 0.22781 0.79783 0.90212 0.0
N1664 N 0.22433 0.77336 0.9544 0.0
N1665 N 0.23399 0.79087 0.91546 0.0
H1666 H 0.25905 0.21026 0.92124 0.0
H1667 H 0.2312 0.20826 0.01144 0.0
H1668 H 0.21693 0.18642 0.93622 0.0
H1669 H 0.27036 0.23646 0.99598 0.0
H1670 H 0.22844 0.19688 0.98475 0.0
H1671 H 0.26557 0.21705 0.9491 0.0
C1672 C 0.25116 0.20642 0.93037 0.0
C1673 C 0.2373 0.19788 0.92628 0.0
C1674 C 0.23776 0.20542 0.98722 0.0
C1675 C 0.24486 0.20547 0.95832 0.0
C1676 C 0.23941 0.21189 1.00252 0.0
C1677 C 0.25094 0.22347 0.00596 0.0
C1678 C 0.24768 0.21057 0.9752 0.0
C1679 C 0.26126 0.22761 0.99388 0.0
C1680 C 0.25497 0.21023 0.9463 0.0
C1681 C 0.22777 0.19293 0.93873 0.0
N1682 N 0.25927 0.2213 0.979 0.0
N1683 N 0.23167 0.19689 0.95414 0.0
H1684 H 0.83197 0.20292 0.89005 0.0
H1685 H 0.83906 0.23806 0.9787 0.0
H1686 H 0.87285 0.19759 0.9218 0.0
H1687 H 0.79475 0.2345 0.95176 0.0
H1688 H 0.85202 0.22493 0.95703 0.0
H1689 H 0.81855 0.21629 0.9115 0.0
C1690 C 0.83815 0.20464 0.90149 0.0
C1691 C 0.85354 0.19909 0.90415 0.0
C1692 C 0.83946 0.22698 0.95583 0.0
C1693 C 0.83827 0.21433 0.92872 0.0
C1694 C 0.83206 0.23456 0.96818 0.0
C1695 C 0.8158 0.23744 0.96703 0.0
C1696 C 0.83059 0.2223 0.94209 0.0
C1697 C 0.80728 0.2324 0.9532 0.0
C1698 C 0.83045 0.21217 0.91375 0.0
C1699 C 0.86093 0.20151 0.91927 0.0
N1700 N 0.81479 0.22515 0.94122 0.0
N1701 N 0.85325 0.20897 0.93094 0.0
H1702 H 0.79845 0.86776 0.88262 0.0
H1703 H 0.7861 0.80985 0.95635 0.0
H1704 H 0.83567 0.84114 0.90574 0.0
H1705 H 0.74837 0.83689 0.93477 0.0
H1706 H 0.80419 0.82108 0.93752 0.0
H1707 H 0.77972 0.8564 0.90108 0.0
C1708 C 0.80267 0.85947 0.89151 0.0
C1709 C 0.81869 0.85546 0.89266 0.0
C1710 C 0.79196 0.82458 0.93685 0.0
C1711 C 0.79733 0.84251 0.91389 0.0
C1712 C 0.78156 0.81808 0.94758 0.0
C1713 C 0.76561 0.82232 0.94711 0.0
C1714 C 0.78645 0.83546 0.92548 0.0
C1715 C 0.76057 0.83335 0.93565 0.0
C1716 C 0.79199 0.85306 0.9021 0.0
C1717 C 0.8235 0.84478 0.90454 0.0
N1718 N 0.77094 0.83951 0.92526 0.0
N1719 N 0.81289 0.8387 0.91466 0.0
H1720 H 0.09984 0.19606 0.20829 0.0
H1721 H 0.05864 0.26585 0.25366 0.0
H1722 H 0.12469 0.22706 0.24164 0.0
H1723 H 0.03621 0.24104 0.21389 0.0
H1724 H 0.08277 0.25124 0.24985 0.0
H1725 H 0.07619 0.21181 0.21059 0.0
C1726 C 0.10038 0.20619 0.21605 0.0
C1727 C 0.11433 0.21015 0.22483 0.0
C1728 C 0.07262 0.24906 0.24187 0.0
C1729 C 0.08719 0.22817 0.22763 0.0
C1730 C 0.05884 0.25737 0.24407 0.0
C1731 C 0.04539 0.25464 0.23411 0.0
C1732 C 0.07295 0.23778 0.2297 0.0
C1733 C 0.04634 0.24363 0.22176 0.0
C1734 C 0.08684 0.21516 0.21738 0.0
C1735 C 0.11418 0.22332 0.23486 0.0
N1736 N 0.05984 0.2355 0.21998 0.0
N1737 N 0.10084 0.2318 0.236 0.0
H1738 H 0.85585 0.10307 0.21774 0.0
H1739 H 0.77664 0.06054 0.24479 0.0
H1740 H 0.80956 0.11422 0.198 0.0
H1741 H 0.82341 0.04333 0.25613 0.0
H1742 H 0.78833 0.08189 0.22983 0.0
H1743 H 0.84396 0.08286 0.23408 0.0
C1744 C 0.84318 0.10125 0.21676 0.0
C1745 C 0.83374 0.11031 0.20628 0.0
C1746 C 0.79602 0.07344 0.23562 0.0
C1747 C 0.81999 0.08724 0.22528 0.0
C1748 C 0.78935 0.06114 0.24414 0.0
C1749 C 0.79899 0.04989 0.2517 0.0
C1750 C 0.81248 0.07464 0.23469 0.0
C1751 C 0.81543 0.05167 0.25065 0.0
C1752 C 0.83639 0.08973 0.22619 0.0
C1753 C 0.81733 0.10764 0.20594 0.0
N1754 N 0.82163 0.06376 0.24229 0.0
N1755 N 0.81099 0.09633 0.21525 0.0
H1756 H 0.8987 0.86511 0.20017 0.0
H1757 H 0.93635 0.78644 0.23546 0.0
H1758 H 0.88067 0.81893 0.18855 0.0
H1759 H 0.95608 0.83234 0.24531 0.0
H1760 H 0.91531 0.79826 0.21915 0.0
H1761 H 0.91899 0.85348 0.21777 0.0
C1762 C 0.8989 0.85252 0.20142 0.0
C1763 C 0.8879 0.843 0.19283 0.0
C1764 C 0.92422 0.80577 0.22488 0.0
C1765 C 0.91131 0.82958 0.21289 0.0
C1766 C 0.93634 0.79901 0.23415 0.0
C1767 C 0.94818 0.80837 0.24171 0.0
C1768 C 0.92383 0.82206 0.22309 0.0
C1769 C 0.94722 0.82464 0.23982 0.0
C1770 C 0.91058 0.84589 0.2114 0.0
C1771 C 0.88898 0.82674 0.19475 0.0
N1772 N 0.93531 0.83095 0.23066 0.0
N1773 N 0.90045 0.82057 0.20455 0.0
H1774 H 0.18818 0.89865 0.16072 0.0
H1775 H 0.20883 0.9516 0.23743 0.0
H1776 H 0.16653 0.89175 0.206 0.0
H1777 H 0.23669 0.95168 0.19529 0.0
H1778 H 0.19296 0.93013 0.22609 0.0
H1779 H 0.20557 0.91865 0.17301 0.0
C1780 C 0.18707 0.90137 0.17326 0.0
C1781 C 0.1758 0.89359 0.18232 0.0
C1782 C 0.2026 0.93482 0.21937 0.0
C1783 C 0.19574 0.91649 0.19651 0.0
C1784 C 0.21177 0.94711 0.22587 0.0
C1785 C 0.22421 0.95368 0.21734 0.0
C1786 C 0.20573 0.92904 0.20414 0.0
C1787 C 0.22714 0.94729 0.20227 0.0
C1788 C 0.19707 0.91273 0.18029 0.0
C1789 C 0.17509 0.89741 0.19859 0.0
N1790 N 0.21794 0.93542 0.19615 0.0
N1791 N 0.18483 0.90867 0.20514 0.0
H1792 H 0.11419 0.80637 0.83625 0.0
H1793 H 0.05253 0.79562 0.76225 0.0
H1794 H 0.12342 0.82265 0.78866 0.0
H1795 H 0.04387 0.78129 0.81057 0.0
H1796 H 0.07731 0.80821 0.7719 0.0
H1797 H 0.08725 0.79977 0.82736 0.0
C1798 C 0.11052 0.80878 0.82398 0.0
C1799 C 0.12121 0.81498 0.81318 0.0
C1800 C 0.06987 0.80247 0.7804 0.0
C1801 C 0.09028 0.8071 0.80278 0.0
C1802 C 0.0557 0.79535 0.7749 0.0
C1803 C 0.04622 0.78725 0.7856 0.0
C1804 C 0.07452 0.80146 0.79668 0.0
C1805 C 0.05091 0.78723 0.80186 0.0
C1806 C 0.09511 0.8049 0.81886 0.0
C1807 C 0.11572 0.81759 0.79734 0.0
N1808 N 0.06476 0.79408 0.80686 0.0
N1809 N 0.10069 0.81352 0.79259 0.0
H1810 H 0.21358 0.11274 0.82791 0.0
H1811 H 0.287 0.06108 0.80484 0.0
H1812 H 0.26177 0.12475 0.84204 0.0
H1813 H 0.23862 0.04471 0.80036 0.0
H1814 H 0.27814 0.08432 0.81879 0.0
H1815 H 0.22254 0.08765 0.81807 0.0
C1816 C 0.22602 0.11008 0.82913 0.0
C1817 C 0.23691 0.12104 0.83575 0.0
C1818 C 0.26949 0.07555 0.8149 0.0
C1819 C 0.24732 0.09229 0.82417 0.0
C1820 C 0.27455 0.06225 0.80695 0.0
C1821 C 0.26356 0.05091 0.80133 0.0
C1822 C 0.25329 0.07764 0.81712 0.0
C1823 C 0.24755 0.05313 0.80443 0.0
C1824 C 0.23114 0.09574 0.82342 0.0
C1825 C 0.25294 0.11689 0.83673 0.0
N1826 N 0.24291 0.06627 0.81195 0.0
N1827 N 0.25765 0.10295 0.83091 0.0
H1828 H 0.94584 0.18047 0.80595 0.0
H1829 H 0.97935 0.26592 0.78717 0.0
H1830 H 0.92095 0.22329 0.81335 0.0
H1831 H 0.00669 0.22453 0.78056 0.0
H1832 H 0.95646 0.24968 0.79276 0.0
H1833 H 0.96677 0.19546 0.79312 0.0
C1834 C 0.94466 0.19298 0.80466 0.0
C1835 C 0.93168 0.20066 0.81089 0.0
C1836 C 0.96735 0.24404 0.78991 0.0
C1837 C 0.95561 0.21786 0.7963 0.0
C1838 C 0.98043 0.25333 0.78665 0.0
C1839 C 0.99492 0.24654 0.78348 0.0
C1840 C 0.96876 0.22773 0.79034 0.0
C1841 C 0.99567 0.23019 0.78288 0.0
C1842 C 0.95665 0.20153 0.79741 0.0
C1843 C 0.93084 0.2169 0.80899 0.0
N1844 N 0.9828 0.22129 0.78655 0.0
N1845 N 0.94265 0.22492 0.80198 0.0
H1846 H 0.81397 0.90885 0.79608 0.0
H1847 H 0.80105 0.99624 0.76438 0.0
H1848 H 0.84946 0.94526 0.80178 0.0
H1849 H 0.76365 0.96293 0.77264 0.0
H1850 H 0.8205 0.97607 0.77171 0.0
H1851 H 0.79714 0.92694 0.78097 0.0
C1852 C 0.81836 0.92056 0.79391 0.0
C1853 C 0.83309 0.92558 0.80036 0.0
C1854 C 0.80803 0.97315 0.77164 0.0
C1855 C 0.81376 0.94646 0.78321 0.0
C1856 C 0.79698 0.98459 0.76734 0.0
C1857 C 0.78079 0.98121 0.76805 0.0
C1858 C 0.80276 0.95826 0.7764 0.0
C1859 C 0.77606 0.96602 0.77211 0.0
C1860 C 0.80869 0.93093 0.78537 0.0
C1861 C 0.83806 0.94098 0.79727 0.0
N1862 N 0.78697 0.95515 0.7762 0.0
N1863 N 0.82837 0.95092 0.78902 0.0
H1864 H 0.18365 0.11541 0.26042 0.0
H1865 H 0.21275 0.03006 0.23716 0.0
H1866 H 0.19212 0.10089 0.21219 0.0
H1867 H 0.21518 0.04784 0.28548 0.0
H1868 H 0.20096 0.05449 0.22814 0.0
H1869 H 0.19112 0.0894 0.26996 0.0
C1870 C 0.18689 0.10669 0.25181 0.0
C1871 C 0.1873 0.11036 0.23547 0.0
C1872 C 0.20396 0.05301 0.24074 0.0
C1873 C 0.19593 0.08058 0.24633 0.0
C1874 C 0.21063 0.03901 0.24594 0.0
C1875 C 0.21511 0.03688 0.26213 0.0
C1876 C 0.20163 0.06503 0.25177 0.0
C1877 C 0.212 0.04895 0.27289 0.0
C1878 C 0.19124 0.09188 0.25728 0.0
C1879 C 0.19179 0.09864 0.2249 0.0
N1880 N 0.20554 0.06254 0.26751 0.0
N1881 N 0.19594 0.08431 0.23051 0.0
H1882 H 0.23316 0.88907 0.8179 0.0
H1883 H 0.19942 0.96443 0.77191 0.0
H1884 H 0.18389 0.89475 0.80455 0.0
H1885 H 0.24852 0.95841 0.78585 0.0
H1886 H 0.19345 0.93882 0.78332 0.0
H1887 H 0.23897 0.91436 0.80583 0.0
C1888 C 0.22355 0.89561 0.8124 0.0
C1889 C 0.208 0.88972 0.81225 0.0
C1890 C 0.20554 0.9431 0.78381 0.0
C1891 C 0.21458 0.91883 0.79843 0.0
C1892 C 0.20896 0.95775 0.77732 0.0
C1893 C 0.2245 0.9637 0.77787 0.0
C1894 C 0.21775 0.93428 0.79097 0.0
C1895 C 0.2364 0.95435 0.78489 0.0
C1896 C 0.22687 0.9101 0.80555 0.0
C1897 C 0.19602 0.89888 0.80515 0.0
N1898 N 0.23276 0.94019 0.79119 0.0
N1899 N 0.19956 0.91294 0.7985 0.0
H1900 H 0.15611 0.21152 0.81458 0.0
H1901 H 0.07434 0.24782 0.84092 0.0
H1902 H 0.14035 0.20964 0.86296 0.0
H1903 H 0.09141 0.25035 0.79307 0.0
H1904 H 0.09804 0.23348 0.84926 0.0
H1905 H 0.1319 0.22487 0.80644 0.0
C1906 C 0.14749 0.21373 0.82349 0.0
C1907 C 0.15034 0.20936 0.8395 0.0
C1908 C 0.09657 0.23716 0.83693 0.0
C1909 C 0.12254 0.22502 0.83025 0.0
C1910 C 0.08305 0.24545 0.83216 0.0
C1911 C 0.08075 0.25032 0.81622 0.0
C1912 C 0.10792 0.23371 0.8257 0.0
C1913 C 0.09245 0.24668 0.80541 0.0
C1914 C 0.13368 0.2215 0.81884 0.0
C1915 C 0.13879 0.2129 0.85052 0.0
N1916 N 0.10547 0.23864 0.81035 0.0
N1917 N 0.12543 0.22053 0.8457 0.0
H1918 H 0.8197 0.12581 0.84001 0.0
H1919 H 0.79722 0.05658 0.77855 0.0
H1920 H 0.85107 0.10869 0.80482 0.0
H1921 H 0.76797 0.06919 0.81743 0.0
H1922 H 0.81625 0.07677 0.78705 0.0
H1923 H 0.79982 0.10644 0.83089 0.0
C1924 C 0.82236 0.11807 0.83026 0.0
C1925 C 0.8371 0.11888 0.82317 0.0
C1926 C 0.80567 0.07516 0.79374 0.0
C1927 C 0.81443 0.09657 0.81278 0.0
C1928 C 0.7947 0.06368 0.78881 0.0
C1929 C 0.78088 0.0612 0.79724 0.0
C1930 C 0.80284 0.08436 0.80719 0.0
C1931 C 0.7785 0.0706 0.81066 0.0
C1932 C 0.81104 0.10694 0.82515 0.0
C1933 C 0.83996 0.10838 0.81076 0.0
N1934 N 0.78934 0.08179 0.8152 0.0
N1935 N 0.82874 0.0977 0.80596 0.0
H1936 H 0.89327 0.81325 0.82102 0.0
H1937 H 0.98376 0.7968 0.80316 0.0
H1938 H 0.93036 0.84829 0.82412 0.0
H1939 H 0.94636 0.76257 0.79561 0.0
H1940 H 0.96454 0.81521 0.8127 0.0
H1941 H 0.91268 0.79397 0.81338 0.0
C1942 C 0.90549 0.81688 0.82014 0.0
C1943 C 0.91016 0.83245 0.82314 0.0
C1944 C 0.96053 0.80365 0.80902 0.0
C1945 C 0.93244 0.81043 0.81439 0.0
C1946 C 0.97151 0.79313 0.80353 0.0
C1947 C 0.9667 0.77812 0.79843 0.0
C1948 C 0.94454 0.79919 0.80944 0.0
C1949 C 0.95068 0.77394 0.7995 0.0
C1950 C 0.91656 0.80588 0.81573 0.0
C1951 C 0.92615 0.8365 0.82167 0.0
N1952 N 0.94017 0.78444 0.8048 0.0
N1953 N 0.93669 0.82558 0.81742 0.0
H1954 H 0.80163 0.90091 0.20406 0.0
H1955 H 0.761 0.98389 0.21671 0.0
H1956 H 0.79222 0.93292 0.16512 0.0
H1957 H 0.77675 0.95293 0.2545 0.0
H1958 H 0.76863 0.96421 0.19698 0.0
H1959 H 0.78864 0.91853 0.22194 0.0
C1960 C 0.79662 0.91153 0.19916 0.0
C1961 C 0.79813 0.91538 0.18299 0.0
C1962 C 0.77024 0.96172 0.20961 0.0
C1963 C 0.78342 0.93598 0.20369 0.0
C1964 C 0.7658 0.97289 0.22084 0.0
C1965 C 0.76839 0.97009 0.23725 0.0
C1966 C 0.77712 0.94766 0.21491 0.0
C1967 C 0.77473 0.95568 0.24197 0.0
C1968 C 0.78929 0.9217 0.20946 0.0
C1969 C 0.79159 0.92954 0.17754 0.0
N1970 N 0.7789 0.9451 0.2309 0.0
N1971 N 0.78462 0.93937 0.18787 0.0
H1972 H 0.07332 0.79814 0.16588 0.0
H1973 H 0.0438 0.77729 0.25306 0.0
H1974 H 0.0996 0.80744 0.21008 0.0
H1975 H 0.01346 0.77256 0.21078 0.0
H1976 H 0.06585 0.78383 0.23646 0.0
H1977 H 0.0528 0.78487 0.18104 0.0
C1978 C 0.07488 0.7972 0.17874 0.0
C1979 C 0.08814 0.80404 0.18675 0.0
C1980 C 0.05446 0.78122 0.23069 0.0
C1981 C 0.06474 0.78891 0.20413 0.0
C1982 C 0.04187 0.7774 0.24018 0.0
C1983 C 0.02679 0.77449 0.23326 0.0
C1984 C 0.052 0.78241 0.21406 0.0
C1985 C 0.02494 0.77468 0.21654 0.0
C1986 C 0.06313 0.7897 0.18738 0.0
C1987 C 0.08949 0.80257 0.20343 0.0
N1988 N 0.03739 0.77884 0.20747 0.0
N1989 N 0.07795 0.79524 0.21152 0.0
H1990 H 0.89667 0.20844 0.2205 0.0
H1991 H 0.98843 0.21304 0.24704 0.0
H1992 H 0.93194 0.17782 0.20262 0.0
H1993 H 0.95397 0.24558 0.26312 0.0
H1994 H 0.96726 0.1981 0.23329 0.0
H1995 H 0.91687 0.22044 0.23846 0.0
C1996 C 0.90862 0.20415 0.22043 0.0
C1997 C 0.91263 0.1922 0.2099 0.0
C1998 C 0.96429 0.20842 0.23995 0.0
C1999 C 0.93584 0.20592 0.2304 0.0
C2000 C 0.97639 0.21694 0.24789 0.0
C2001 C 0.97303 0.23069 0.25615 0.0
C2002 C 0.94868 0.2137 0.24021 0.0
C2003 C 0.95716 0.23511 0.25683 0.0
C2004 C 0.92017 0.21104 0.23065 0.0
C2005 C 0.92836 0.1872 0.21028 0.0
N2006 N 0.94561 0.22673 0.24884 0.0
N2007 N 0.93936 0.19411 0.2203 0.0
H2008 H 0.20302 0.70366 0.61238 0.0
H2009 H 0.27331 0.74371 0.56548 0.0
H2010 H 0.24886 0.71458 0.63409 0.0
H2011 H 0.22835 0.73037 0.54316 0.0
H2012 H 0.2656 0.7306 0.58998 0.0
H2013 H 0.21297 0.71094 0.58634 0.0
C2014 C 0.21523 0.70738 0.61167 0.0
C2015 C 0.22504 0.70867 0.62554 0.0
C2016 C 0.25749 0.73037 0.57965 0.0
C2017 C 0.23649 0.71724 0.59571 0.0
C2018 C 0.26193 0.7378 0.56561 0.0
C2019 C 0.25142 0.7383 0.55224 0.0
C2020 C 0.2424 0.72344 0.5804 0.0
C2021 C 0.23682 0.73042 0.55318 0.0
C2022 C 0.2209 0.71162 0.59679 0.0
C2023 C 0.24074 0.71372 0.62382 0.0
N2024 N 0.23268 0.72349 0.56705 0.0
N2025 N 0.24592 0.71793 0.60925 0.0
H2026 H 0.83194 0.73472 0.61457 0.0
H2027 H 0.78043 0.72513 0.53307 0.0
H2028 H 0.81836 0.69019 0.59379 0.0
H2029 H 0.78072 0.76751 0.56109 0.0
H2030 H 0.79782 0.71322 0.55332 0.0
H2031 H 0.81617 0.74782 0.59348 0.0
C2032 C 0.82563 0.72771 0.60557 0.0
C2033 C 0.8264 0.71134 0.60596 0.0
C2034 C 0.79415 0.72516 0.55501 0.0
C2035 C 0.80854 0.72622 0.58175 0.0
C2036 C 0.7843 0.73203 0.54338 0.0
C2037 C 0.77899 0.74736 0.5454 0.0
C2038 C 0.7989 0.73365 0.56874 0.0
C2039 C 0.78445 0.75566 0.55905 0.0
C2040 C 0.81662 0.73518 0.59358 0.0
C2041 C 0.81794 0.70282 0.59406 0.0
N2042 N 0.79408 0.74869 0.57024 0.0
N2043 N 0.80944 0.71036 0.5824 0.0
H2044 H 0.82732 0.33044 0.6208 0.0
H2045 H 0.84064 0.27836 0.54301 0.0
H2046 H 0.87325 0.32057 0.60303 0.0
H2047 H 0.79501 0.28541 0.56279 0.0
H2048 H 0.85284 0.29321 0.56526 0.0
H2049 H 0.81533 0.3134 0.60012 0.0
C2050 C 0.83492 0.32458 0.61268 0.0
C2051 C 0.85135 0.32707 0.61366 0.0
C2052 C 0.84016 0.29148 0.56474 0.0
C2053 C 0.83762 0.30765 0.58972 0.0
C2054 C 0.83317 0.28291 0.55205 0.0
C2055 C 0.81671 0.28066 0.55086 0.0
C2056 C 0.83066 0.2979 0.5764 0.0
C2057 C 0.80768 0.28705 0.56295 0.0
C2058 C 0.82804 0.31491 0.60078 0.0
C2059 C 0.86052 0.31927 0.6026 0.0
N2060 N 0.81476 0.29539 0.57514 0.0
N2061 N 0.85355 0.30999 0.59109 0.0
H2062 H 0.23254 0.35882 0.61983 0.0
H2063 H 0.24127 0.28883 0.55754 0.0
H2064 H 0.1986 0.32111 0.61341 0.0
H2065 H 0.26911 0.33132 0.55586 0.0
H2066 H 0.22737 0.29936 0.57999 0.0
H2067 H 0.24787 0.3478 0.59839 0.0
C2068 C 0.22838 0.34816 0.61399 0.0
C2069 C 0.21425 0.34088 0.61838 0.0
C2070 C 0.23654 0.30639 0.57476 0.0
C2071 C 0.23168 0.32827 0.59385 0.0
C2072 C 0.2446 0.30032 0.562 0.0
C2073 C 0.25645 0.30918 0.55484 0.0
C2074 C 0.24038 0.32141 0.58054 0.0
C2075 C 0.25999 0.32415 0.56097 0.0
C2076 C 0.23708 0.34194 0.6017 0.0
C2077 C 0.20933 0.32719 0.6103 0.0
N2078 N 0.25201 0.32979 0.5735 0.0
N2079 N 0.21803 0.32132 0.59847 0.0
H2080 H 0.19509 0.31627 0.42632 0.0
H2081 H 0.24016 0.25108 0.47537 0.0
H2082 H 0.19896 0.26955 0.40779 0.0
H2083 H 0.21819 0.28999 0.49813 0.0
H2084 H 0.2253 0.25715 0.45052 0.0
H2085 H 0.20412 0.30691 0.45271 0.0
C2086 C 0.19778 0.30402 0.42787 0.0
C2087 C 0.19636 0.29366 0.41491 0.0
C2088 C 0.22354 0.26417 0.46105 0.0
C2089 C 0.2068 0.28289 0.44495 0.0
C2090 C 0.23199 0.2607 0.47525 0.0
C2091 C 0.23056 0.27014 0.48883 0.0
C2092 C 0.21384 0.27733 0.46037 0.0
C2093 C 0.21976 0.28243 0.48796 0.0
C2094 C 0.20282 0.29865 0.44292 0.0
C2095 C 0.19987 0.27787 0.41753 0.0
N2096 N 0.21205 0.28585 0.4739 0.0
N2097 N 0.20515 0.27299 0.43222 0.0
H2098 H 0.21319 0.69353 0.39707 0.0
H2099 H 0.1848 0.75781 0.45898 0.0
H2100 H 0.16806 0.71615 0.3928 0.0
H2101 H 0.22799 0.73203 0.46547 0.0
H2102 H 0.17853 0.74282 0.43468 0.0
H2103 H 0.21895 0.70774 0.42202 0.0
C2104 C 0.20449 0.70148 0.40137 0.0
C2105 C 0.19012 0.70363 0.39278 0.0
C2106 C 0.18938 0.74044 0.44144 0.0
C2107 C 0.19663 0.71997 0.42142 0.0
C2108 C 0.19295 0.74897 0.4554 0.0
C2109 C 0.207 0.74629 0.4644 0.0
C2110 C 0.19991 0.72911 0.43635 0.0
C2111 C 0.21716 0.73477 0.45891 0.0
C2112 C 0.20775 0.70955 0.41566 0.0
C2113 C 0.17921 0.71396 0.39909 0.0
N2114 N 0.21342 0.72665 0.44528 0.0
N2115 N 0.18272 0.72178 0.41295 0.0
H2116 H 0.79117 0.6967 0.38825 0.0
H2117 H 0.76607 0.68696 0.4786 0.0
H2118 H 0.81744 0.66978 0.42357 0.0
H2119 H 0.75122 0.72626 0.44985 0.0
H2120 H 0.78236 0.6783 0.45699 0.0
H2121 H 0.77441 0.70607 0.40934 0.0
C2122 C 0.79354 0.69283 0.4004 0.0
C2123 C 0.80575 0.68228 0.40401 0.0
C2124 C 0.77552 0.68881 0.45537 0.0
C2125 C 0.78629 0.69271 0.42814 0.0
C2126 C 0.76607 0.69367 0.46766 0.0
C2127 C 0.75721 0.70734 0.46602 0.0
C2128 C 0.77603 0.69754 0.44121 0.0
C2129 C 0.75794 0.71571 0.45162 0.0
C2130 C 0.78387 0.69812 0.41241 0.0
C2131 C 0.808 0.67756 0.42002 0.0
N2132 N 0.76715 0.71065 0.43973 0.0
N2133 N 0.79833 0.6827 0.43141 0.0
H2134 H 0.80455 0.36034 0.42836 0.0
H2135 H 0.78532 0.27178 0.45119 0.0
H2136 H 0.81131 0.32075 0.39761 0.0
H2137 H 0.77613 0.31014 0.48272 0.0
H2138 H 0.79194 0.29025 0.4304 0.0
H2139 H 0.79145 0.34305 0.44728 0.0
C2140 C 0.80307 0.34807 0.42546 0.0
C2141 C 0.8092 0.34196 0.41143 0.0
C2142 C 0.78834 0.29474 0.44177 0.0
C2143 C 0.79435 0.32211 0.43308 0.0
C2144 C 0.78454 0.28416 0.45367 0.0
C2145 C 0.78031 0.28944 0.46875 0.0
C2146 C 0.7882 0.31083 0.44495 0.0
C2147 C 0.77933 0.30561 0.47124 0.0
C2148 C 0.79566 0.3382 0.43631 0.0
C2149 C 0.80705 0.32594 0.40838 0.0
N2150 N 0.78349 0.31578 0.45951 0.0
N2151 N 0.79992 0.31661 0.41914 0.0
H2152 H 0.11903 0.7015 0.68942 0.0
H2153 H 0.0723 0.74288 0.75871 0.0
H2154 H 0.1419 0.72672 0.72878 0.0
H2155 H 0.05054 0.70925 0.7261 0.0
H2156 H 0.0977 0.73839 0.74675 0.0
H2157 H 0.09357 0.70548 0.70151 0.0
C2158 C 0.11875 0.70786 0.70058 0.0
C2159 C 0.13274 0.71382 0.70801 0.0
C2160 C 0.08739 0.73192 0.74225 0.0
C2161 C 0.10353 0.71854 0.72184 0.0
C2162 C 0.07289 0.73452 0.74905 0.0
C2163 C 0.05928 0.72643 0.74341 0.0
C2164 C 0.08832 0.72125 0.72957 0.0
C2165 C 0.06075 0.71561 0.73095 0.0
C2166 C 0.10418 0.71016 0.70746 0.0
C2167 C 0.1315 0.72216 0.72238 0.0
N2168 N 0.07498 0.71341 0.72438 0.0
N2169 N 0.1172 0.72428 0.72878 0.0
H2170 H 0.8607 0.63342 0.7172 0.0
H2171 H 0.83054 0.57431 0.76585 0.0
H2172 H 0.82439 0.61854 0.68273 0.0
H2173 H 0.80785 0.55695 0.72222 0.0
H2174 H 0.83968 0.5972 0.75138 0.0
H2175 H 0.85292 0.61229 0.73481 0.0
C2176 C 0.85088 0.62588 0.71345 0.0
C2177 C 0.8432 0.62783 0.69841 0.0
C2178 C 0.83292 0.58833 0.74485 0.0
C2179 C 0.83404 0.60345 0.71868 0.0
C2180 C 0.82765 0.5752 0.75318 0.0
C2181 C 0.81838 0.56361 0.7453 0.0
C2182 C 0.82901 0.58985 0.72843 0.0
C2183 C 0.81476 0.56561 0.72891 0.0
C2184 C 0.8464 0.61374 0.72357 0.0
C2185 C 0.8308 0.61742 0.69409 0.0
N2186 N 0.82005 0.57843 0.72108 0.0
N2187 N 0.82668 0.60569 0.70412 0.0
H2188 H 0.92195 0.35252 0.72758 0.0
H2189 H 1.00152 0.30299 0.73366 0.0
H2190 H 0.94424 0.33256 0.68701 0.0
H2191 H 0.9824 0.32624 0.77417 0.0
H2192 H 0.97999 0.31305 0.7167 0.0
H2193 H 0.94312 0.34214 0.74513 0.0
C2194 C 0.93122 0.34585 0.72237 0.0
C2195 C 0.93132 0.34347 0.70576 0.0
C2196 C 0.98047 0.31599 0.72929 0.0
C2197 C 0.95569 0.33166 0.72578 0.0
C2198 C 0.99275 0.31016 0.73903 0.0
C2199 C 0.99377 0.31368 0.75543 0.0
C2200 C 0.96898 0.32541 0.73593 0.0
C2201 C 0.98217 0.32332 0.76159 0.0
C2202 C 0.94337 0.34003 0.73239 0.0
C2203 C 0.94376 0.33489 0.69969 0.0
N2204 N 0.97023 0.32879 0.75186 0.0
N2205 N 0.95539 0.32932 0.70967 0.0
H2206 H 0.19814 0.43939 0.69928 0.0
H2207 H 0.27911 0.46163 0.74727 0.0
H2208 H 0.23483 0.40603 0.70957 0.0
H2209 H 0.24033 0.49322 0.73956 0.0
H2210 H 0.26421 0.44164 0.73177 0.0
H2211 H 0.21442 0.45963 0.71248 0.0
C2212 C 0.20968 0.43632 0.70423 0.0
C2213 C 0.21511 0.42094 0.70325 0.0
C2214 C 0.25903 0.45299 0.73339 0.0
C2215 C 0.23387 0.44418 0.71859 0.0
C2216 C 0.26757 0.46445 0.74216 0.0
C2217 C 0.26096 0.47914 0.7448 0.0
C2218 C 0.24379 0.45626 0.72717 0.0
C2219 C 0.2459 0.48206 0.73794 0.0
C2220 C 0.21896 0.4479 0.71185 0.0
C2221 C 0.23008 0.41767 0.71017 0.0
N2222 N 0.23784 0.47074 0.72952 0.0
N2223 N 0.23893 0.42918 0.71753 0.0
H2224 H 0.10065 0.32408 0.33939 0.0
H2225 H 0.04 0.26265 0.29778 0.0
H2226 H 0.11394 0.27821 0.32381 0.0
H2227 H 0.02714 0.30863 0.31342 0.0
H2228 H 0.06642 0.26686 0.31001 0.0
H2229 H 0.0731 0.3175 0.33251 0.0
C2230 C 0.09778 0.31257 0.33467 0.0
C2231 C 0.1097 0.30175 0.33206 0.0
C2232 C 0.05775 0.27595 0.31094 0.0
C2233 C 0.0781 0.29416 0.32397 0.0
C2234 C 0.04262 0.2735 0.30405 0.0
C2235 C 0.03136 0.28536 0.30445 0.0
C2236 C 0.06165 0.29035 0.31827 0.0
C2237 C 0.03547 0.29922 0.31268 0.0
C2238 C 0.08203 0.30883 0.33067 0.0
C2239 C 0.10522 0.28705 0.32574 0.0
N2240 N 0.0503 0.30138 0.31911 0.0
N2241 N 0.08981 0.28373 0.32183 0.0
H2242 H 0.18409 0.59898 0.33349 0.0
H2243 H 0.22581 0.54577 0.26881 0.0
H2244 H 0.19291 0.61484 0.28571 0.0
H2245 H 0.22239 0.53444 0.31873 0.0
H2246 H 0.20977 0.56912 0.27307 0.0
H2247 H 0.19427 0.57343 0.32667 0.0
C2248 C 0.18813 0.59709 0.32154 0.0
C2249 C 0.18779 0.6092 0.31024 0.0
C2250 C 0.21235 0.56136 0.28301 0.0
C2251 C 0.19947 0.57977 0.30226 0.0
C2252 C 0.22137 0.54798 0.28054 0.0
C2253 C 0.22549 0.53823 0.29346 0.0
C2254 C 0.20737 0.56484 0.29847 0.0
C2255 C 0.2196 0.54172 0.30847 0.0
C2256 C 0.19389 0.58244 0.31761 0.0
C2257 C 0.19288 0.60587 0.29481 0.0
N2258 N 0.21096 0.55473 0.31056 0.0
N2259 N 0.19864 0.59154 0.29131 0.0
H2260 H 0.89996 0.67548 0.30115 0.0
H2261 H 0.93635 0.76116 0.2887 0.0
H2262 H 0.88172 0.7177 0.32112 0.0
H2263 H 0.9571 0.72017 0.26872 0.0
H2264 H 0.91495 0.74514 0.29837 0.0
H2265 H 0.91958 0.69121 0.28722 0.0
C2266 C 0.89996 0.68806 0.30248 0.0
C2267 C 0.8892 0.69526 0.31244 0.0
C2268 C 0.92408 0.73956 0.29182 0.0
C2269 C 0.91169 0.71331 0.29659 0.0
C2270 C 0.93636 0.74873 0.28625 0.0
C2271 C 0.94866 0.74199 0.27801 0.0
C2272 C 0.924 0.72336 0.28931 0.0
C2273 C 0.94786 0.72584 0.27503 0.0
C2274 C 0.91122 0.69701 0.29458 0.0
C2275 C 0.88989 0.71158 0.31382 0.0
N2276 N 0.93581 0.71702 0.28085 0.0
N2277 N 0.90093 0.71999 0.30605 0.0
H2278 H 0.84672 0.43816 0.31628 0.0
H2279 H 0.7721 0.46656 0.263 0.0
H2280 H 0.79947 0.41959 0.32063 0.0
H2281 H 0.818 0.48892 0.2622 0.0
H2282 H 0.7825 0.44796 0.28259 0.0
H2283 H 0.83693 0.45561 0.2952 0.0
C2284 C 0.83426 0.43779 0.31288 0.0
C2285 C 0.82389 0.42743 0.32039 0.0
C2286 C 0.79032 0.4569 0.27812 0.0
C2287 C 0.81265 0.44728 0.29598 0.0
C2288 C 0.78437 0.4676 0.26696 0.0
C2289 C 0.79412 0.4795 0.26105 0.0
C2290 C 0.8062 0.45802 0.28347 0.0
C2291 C 0.81005 0.47995 0.26636 0.0
C2292 C 0.82871 0.44771 0.30075 0.0
C2293 C 0.80795 0.42726 0.31515 0.0
N2294 N 0.81556 0.46943 0.27733 0.0
N2295 N 0.80283 0.43705 0.30332 0.0
H2296 H 0.20818 0.64329 0.74644 0.0
H2297 H 0.23158 0.55342 0.73994 0.0
H2298 H 0.21294 0.61972 0.70131 0.0
H2299 H 0.22272 0.57683 0.78429 0.0
H2300 H 0.22445 0.57724 0.72542 0.0
H2301 H 0.21319 0.6188 0.7603 0.0
C2302 C 0.21013 0.63293 0.7394 0.0
C2303 C 0.21 0.6336 0.72263 0.0
C2304 C 0.22397 0.57712 0.73832 0.0
C2305 C 0.21606 0.6054 0.73856 0.0
C2306 C 0.22809 0.56353 0.74664 0.0
C2307 C 0.22785 0.5631 0.76341 0.0
C2308 C 0.21964 0.59043 0.74683 0.0
C2309 C 0.22297 0.57652 0.7714 0.0
C2310 C 0.21308 0.61893 0.74736 0.0
C2311 C 0.21304 0.61981 0.71424 0.0
N2312 N 0.21918 0.58963 0.76305 0.0
N2313 N 0.21595 0.60628 0.7223 0.0
H2314 H 0.18816 0.39538 0.34831 0.0
H2315 H 0.24689 0.44417 0.29496 0.0
H2316 H 0.22121 0.37359 0.31751 0.0
H2317 H 0.23063 0.46215 0.33941 0.0
H2318 H 0.23443 0.41891 0.30075 0.0
H2319 H 0.20075 0.42068 0.3432 0.0
C2320 C 0.19806 0.39581 0.34054 0.0
C2321 C 0.2035 0.38216 0.33331 0.0
C2322 C 0.23361 0.42837 0.30926 0.0
C2323 C 0.21771 0.41127 0.32713 0.0
C2324 C 0.24063 0.44279 0.30592 0.0
C2325 C 0.23977 0.45523 0.31674 0.0
C2326 C 0.22541 0.42644 0.32339 0.0
C2327 C 0.23166 0.45279 0.33085 0.0
C2328 C 0.20519 0.41031 0.33759 0.0
C2329 C 0.21625 0.3837 0.3231 0.0
N2330 N 0.22467 0.43871 0.33372 0.0
N2331 N 0.22282 0.39795 0.32026 0.0
H2332 H 0.10056 0.69925 0.33365 0.0
H2333 H 0.04725 0.74929 0.27204 0.0
H2334 H 0.11608 0.71541 0.28799 0.0
H2335 H 0.03448 0.74107 0.32071 0.0
H2336 H 0.07186 0.7355 0.27734 0.0
H2337 H 0.07553 0.71282 0.32873 0.0
C2338 C 0.09866 0.70554 0.32254 0.0
C2339 C 0.11046 0.70622 0.31122 0.0
C2340 C 0.06372 0.7367 0.2869 0.0
C2341 C 0.08192 0.72184 0.30557 0.0
C2342 C 0.0496 0.74452 0.28385 0.0
C2343 C 0.03873 0.74625 0.29593 0.0
C2344 C 0.06702 0.73042 0.30214 0.0
C2345 C 0.04257 0.74007 0.3111 0.0
C2346 C 0.08443 0.71338 0.3198 0.0
C2347 C 0.10741 0.71471 0.29712 0.0
N2348 N 0.05637 0.73234 0.31375 0.0
N2349 N 0.09347 0.72214 0.2947 0.0
H2350 H 0.79642 0.62799 0.29466 0.0
H2351 H 0.75964 0.54165 0.28466 0.0
H2352 H 0.79942 0.59324 0.33195 0.0
H2353 H 0.76453 0.57476 0.24634 0.0
H2354 H 0.76918 0.56189 0.30378 0.0
H2355 H 0.77979 0.61012 0.27854 0.0
C2356 C 0.79341 0.61668 0.29958 0.0
C2357 C 0.7995 0.61208 0.31465 0.0
C2358 C 0.76788 0.56477 0.29121 0.0
C2359 C 0.78057 0.59138 0.29606 0.0
C2360 C 0.76231 0.55328 0.28036 0.0
C2361 C 0.76143 0.55657 0.26394 0.0
C2362 C 0.77242 0.57958 0.28553 0.0
C2363 C 0.76519 0.57174 0.25891 0.0
C2364 C 0.78397 0.60642 0.2903 0.0
C2365 C 0.79527 0.59717 0.32026 0.0
N2366 N 0.77061 0.58262 0.26962 0.0
N2367 N 0.78618 0.58731 0.31092 0.0
H2368 H 0.91115 0.37304 0.32449 0.0
H2369 H 0.94377 0.29313 0.28961 0.0
H2370 H 0.88973 0.32789 0.33274 0.0
H2371 H 0.96388 0.33848 0.27964 0.0
H2372 H 0.92368 0.30566 0.30514 0.0
H2373 H 0.93039 0.36062 0.30781 0.0
C2374 C 0.91052 0.3605 0.32285 0.0
C2375 C 0.89883 0.3515 0.33012 0.0
C2376 C 0.93246 0.31288 0.29951 0.0
C2377 C 0.92079 0.33718 0.31086 0.0
C2378 C 0.94399 0.30572 0.2907 0.0
C2379 C 0.95562 0.31474 0.28336 0.0
C2380 C 0.93254 0.32922 0.30108 0.0
C2381 C 0.95511 0.33106 0.28496 0.0
C2382 C 0.92146 0.35342 0.31323 0.0
C2383 C 0.89844 0.33532 0.32729 0.0
N2384 N 0.94382 0.33775 0.29371 0.0
N2385 N 0.90929 0.32869 0.31795 0.0
H2386 H 0.82913 0.42865 0.67464 0.0
H2387 H 0.81162 0.4661 0.75934 0.0
H2388 H 0.84194 0.40784 0.72016 0.0
H2389 H 0.79196 0.48491 0.71522 0.0
H2390 H 0.82202 0.44437 0.74468 0.0
H2391 H 0.81454 0.44873 0.68861 0.0
C2392 C 0.82871 0.42816 0.68754 0.0
C2393 C 0.83695 0.41659 0.69624 0.0
C2394 C 0.81538 0.45315 0.73812 0.0
C2395 C 0.82043 0.43966 0.71228 0.0
C2396 C 0.80945 0.46565 0.74651 0.0
C2397 C 0.801 0.47745 0.73849 0.0
C2398 C 0.81307 0.45238 0.72145 0.0
C2399 C 0.79843 0.47607 0.72186 0.0
C2400 C 0.82044 0.43969 0.6955 0.0
C2401 C 0.83608 0.41667 0.71295 0.0
N2402 N 0.8046 0.46382 0.71384 0.0
N2403 N 0.8281 0.42805 0.72038 0.0
H2404 H 0.14458 0.3329 0.73161 0.0
H2405 H 0.06448 0.2816 0.73028 0.0
H2406 H 0.11995 0.31891 0.68774 0.0
H2407 H 0.08937 0.2988 0.77279 0.0
H2408 H 0.0858 0.29243 0.71416 0.0
H2409 H 0.12555 0.31791 0.74661 0.0
C2410 C 0.13516 0.32666 0.72511 0.0
C2411 C 0.13381 0.32732 0.70838 0.0
C2412 C 0.08661 0.29367 0.72704 0.0
C2413 C 0.11182 0.30997 0.72556 0.0
C2414 C 0.0745 0.28742 0.73622 0.0
C2415 C 0.07507 0.28945 0.75288 0.0
C2416 C 0.09935 0.30186 0.73464 0.0
C2417 C 0.0883 0.29714 0.75997 0.0
C2418 C 0.12429 0.31802 0.73369 0.0
C2419 C 0.12149 0.31869 0.70063 0.0
N2420 N 0.0998 0.30309 0.75085 0.0
N2421 N 0.11089 0.31048 0.70927 0.0
H2422 H 0.93625 0.71502 0.66821 0.0
H2423 H 0.9561 0.77859 0.73635 0.0
H2424 H 0.90255 0.73077 0.70188 0.0
H2425 H 0.99168 0.75345 0.71173 0.0
H2426 H 0.93571 0.76548 0.71959 0.0
H2427 H 0.95599 0.73282 0.68042 0.0
C2428 C 0.93298 0.72217 0.67819 0.0
C2429 C 0.91772 0.72118 0.68414 0.0
C2430 C 0.94799 0.76301 0.71772 0.0
C2431 C 0.94024 0.7419 0.69793 0.0
C2432 C 0.95967 0.77059 0.72719 0.0
C2433 C 0.97564 0.76698 0.72559 0.0
C2434 C 0.95231 0.75182 0.7065 0.0
C2435 C 0.97951 0.75648 0.7135 0.0
C2436 C 0.94424 0.73243 0.68506 0.0
C2437 C 0.9141 0.73114 0.6968 0.0
N2438 N 0.96792 0.74916 0.70452 0.0
N2439 N 0.92529 0.74101 0.70332 0.0
H2440 H 0.69258 0.23145 0.61097 0.0
H2441 H 0.77265 0.24607 0.56507 0.0
H2442 H 0.73922 0.21851 0.6281 0.0
H2443 H 0.72712 0.25487 0.54239 0.0
H2444 H 0.75995 0.23963 0.58971 0.0
H2445 H 0.70423 0.24306 0.58708 0.0
C2446 C 0.70523 0.23111 0.60973 0.0
C2447 C 0.71492 0.22377 0.62141 0.0
C2448 C 0.75262 0.24304 0.57945 0.0
C2449 C 0.72828 0.23712 0.59438 0.0
C2450 C 0.7599 0.24678 0.56536 0.0
C2451 C 0.7509 0.25085 0.55165 0.0
C2452 C 0.73609 0.24311 0.57993 0.0
C2453 C 0.73445 0.25178 0.55274 0.0
C2454 C 0.71186 0.2377 0.59612 0.0
C2455 C 0.73124 0.22371 0.61927 0.0
N2456 N 0.7275 0.24771 0.56663 0.0
N2457 N 0.73734 0.23022 0.60607 0.0
H2458 H 0.35869 0.21809 0.60799 0.0
H2459 H 0.28119 0.22988 0.55151 0.0
H2460 H 0.31571 0.19147 0.61381 0.0
H2461 H 0.32285 0.25945 0.55124 0.0
H2462 H 0.29353 0.21483 0.57355 0.0
H2463 H 0.34566 0.23263 0.58636 0.0
C2464 C 0.3465 0.21528 0.60468 0.0
C2465 C 0.3383 0.20351 0.61268 0.0
C2466 C 0.29992 0.22463 0.56863 0.0
C2467 C 0.3232 0.2202 0.58788 0.0
C2468 C 0.29291 0.23318 0.55604 0.0
C2469 C 0.30099 0.24595 0.54951 0.0
C2470 C 0.31512 0.22887 0.57462 0.0
C2471 C 0.31613 0.24974 0.55587 0.0
C2472 C 0.33902 0.22364 0.59236 0.0
C2473 C 0.32243 0.20055 0.60803 0.0
N2474 N 0.32267 0.24125 0.56801 0.0
N2475 N 0.3154 0.20879 0.59587 0.0
H2476 H 0.28948 0.82177 0.63868 0.0
H2477 H 0.24803 0.83446 0.55203 0.0
H2478 H 0.29439 0.86402 0.61106 0.0
H2479 H 0.25117 0.78956 0.57517 0.0
H2480 H 0.2619 0.84637 0.57522 0.0
H2481 H 0.27267 0.81064 0.61704 0.0
C2482 C 0.28705 0.82874 0.62811 0.0
C2483 C 0.2935 0.84388 0.62676 0.0
C2484 C 0.25948 0.83392 0.57527 0.0
C2485 C 0.27401 0.83121 0.60195 0.0
C2486 C 0.25144 0.82712 0.56206 0.0
C2487 C 0.24848 0.81095 0.56159 0.0
C2488 C 0.26453 0.82452 0.58818 0.0
C2489 C 0.25339 0.80202 0.57491 0.0
C2490 C 0.27737 0.82238 0.61578 0.0
C2491 C 0.28957 0.85241 0.61283 0.0
N2492 N 0.26119 0.80891 0.58763 0.0
N2493 N 0.28016 0.84595 0.601 0.0
H2494 H 0.68208 0.83754 0.59883 0.0
H2495 H 0.69508 0.74924 0.57124 0.0
H2496 H 0.66953 0.79748 0.6272 0.0
H2497 H 0.7124 0.78938 0.5458 0.0
H2498 H 0.68515 0.76667 0.59156 0.0
H2499 H 0.69319 0.82009 0.57931 0.0
C2500 C 0.68181 0.82509 0.60109 0.0
C2501 C 0.67482 0.81903 0.61477 0.0
C2502 C 0.69116 0.77167 0.58155 0.0
C2503 C 0.6873 0.79887 0.59215 0.0
C2504 C 0.69674 0.76171 0.56986 0.0
C2505 C 0.7046 0.76782 0.55673 0.0
C2506 C 0.69334 0.78789 0.58009 0.0
C2507 C 0.70659 0.7841 0.55576 0.0
C2508 C 0.68807 0.81511 0.58984 0.0
C2509 C 0.67457 0.80272 0.61677 0.0
N2510 N 0.70097 0.79355 0.56724 0.0
N2511 N 0.68065 0.79324 0.60558 0.0
H2512 H 0.72403 0.80071 0.39374 0.0
H2513 H 0.70111 0.78781 0.48438 0.0
H2514 H 0.6799 0.81478 0.41295 0.0
H2515 H 0.74608 0.77473 0.46645 0.0
H2516 H 0.69462 0.80061 0.45903 0.0
H2517 H 0.73351 0.79352 0.42067 0.0
C2518 C 0.71633 0.80233 0.40361 0.0
C2519 C 0.70106 0.80822 0.40101 0.0
C2520 C 0.706 0.79513 0.46065 0.0
C2521 C 0.71193 0.80015 0.43194 0.0
C2522 C 0.70973 0.78784 0.47516 0.0
C2523 C 0.7241 0.78007 0.47748 0.0
C2524 C 0.71661 0.7945 0.44822 0.0
C2525 C 0.73487 0.78058 0.46517 0.0
C2526 C 0.72181 0.79832 0.41901 0.0
C2527 C 0.69177 0.81037 0.41434 0.0
N2528 N 0.73081 0.78747 0.45096 0.0
N2529 N 0.6973 0.80622 0.42917 0.0
H2530 H 0.72559 0.17613 0.39382 0.0
H2531 H 0.73193 0.2405 0.46332 0.0
H2532 H 0.69891 0.21872 0.39304 0.0
H2533 H 0.76451 0.20244 0.45966 0.0
H2534 H 0.71814 0.23139 0.43894 0.0
H2535 H 0.7383 0.18427 0.41924 0.0
C2536 C 0.72239 0.1872 0.39895 0.0
C2537 C 0.71117 0.19677 0.39113 0.0
C2538 C 0.7283 0.22502 0.44349 0.0
C2539 C 0.72561 0.20608 0.42046 0.0
C2540 C 0.73628 0.23027 0.45743 0.0
C2541 C 0.74959 0.22236 0.46366 0.0
C2542 C 0.73353 0.21168 0.43564 0.0
C2543 C 0.75431 0.20893 0.45551 0.0
C2544 C 0.72962 0.19181 0.41352 0.0
C2545 C 0.70731 0.21084 0.39863 0.0
N2546 N 0.74632 0.20406 0.44194 0.0
N2547 N 0.71454 0.21507 0.41281 0.0
H2548 H 0.35693 0.20741 0.40991 0.0
H2549 H 0.28432 0.23954 0.458 0.0
H2550 H 0.30896 0.19059 0.40235 0.0
H2551 H 0.33228 0.25645 0.46512 0.0
H2552 H 0.29289 0.22228 0.43692 0.0
H2553 H 0.34786 0.22626 0.42921 0.0
C2554 C 0.34444 0.20779 0.41214 0.0
C2555 C 0.3337 0.19737 0.40439 0.0
C2556 C 0.30154 0.22979 0.44305 0.0
C2557 C 0.32325 0.21887 0.42684 0.0
C2558 C 0.29667 0.23962 0.45518 0.0
C2559 C 0.30761 0.24942 0.46349 0.0
C2560 C 0.3175 0.22969 0.43917 0.0
C2561 C 0.3234 0.2492 0.45901 0.0
C2562 C 0.33929 0.21851 0.42329 0.0
C2563 C 0.31771 0.19824 0.40812 0.0
N2564 N 0.32787 0.23945 0.44723 0.0
N2565 N 0.31299 0.20877 0.41908 0.0
H2566 H 0.3242 0.79599 0.4122 0.0
H2567 H 0.27221 0.79905 0.48976 0.0
H2568 H 0.29681 0.83568 0.42548 0.0
H2569 H 0.28498 0.75532 0.46837 0.0
H2570 H 0.2852 0.813 0.46851 0.0
H2571 H 0.31341 0.78123 0.4346 0.0
C2572 C 0.31592 0.80158 0.41982 0.0
C2573 C 0.3113 0.81705 0.41691 0.0
C2574 C 0.28524 0.80035 0.46849 0.0
C2575 C 0.29914 0.80037 0.4426 0.0
C2576 C 0.2779 0.79233 0.4807 0.0
C2577 C 0.27737 0.77592 0.48084 0.0
C2578 C 0.29228 0.79199 0.45631 0.0
C2579 C 0.28503 0.76796 0.46873 0.0
C2580 C 0.30976 0.79316 0.43255 0.0
C2581 C 0.30052 0.82373 0.42714 0.0
N2582 N 0.29214 0.77607 0.45691 0.0
N2583 N 0.29489 0.81539 0.43954 0.0
H2584 H 0.62478 0.21922 0.69787 0.0
H2585 H 0.57843 0.21024 0.77912 0.0
H2586 H 0.64298 0.1943 0.73926 0.0
H2587 H 0.5599 0.23437 0.73737 0.0
H2588 H 0.60155 0.20313 0.76429 0.0
H2589 H 0.60033 0.22368 0.71165 0.0
C2590 C 0.62359 0.21454 0.70978 0.0
C2591 C 0.63605 0.20646 0.71743 0.0
C2592 C 0.59239 0.20995 0.75836 0.0
C2593 C 0.60809 0.21171 0.7334 0.0
C2594 C 0.57912 0.21395 0.76682 0.0
C2595 C 0.56719 0.22304 0.75958 0.0
C2596 C 0.59378 0.21505 0.74251 0.0
C2597 C 0.56889 0.22761 0.7436 0.0
C2598 C 0.60965 0.21719 0.7177 0.0
C2599 C 0.63385 0.20085 0.73298 0.0
N2600 N 0.58193 0.22362 0.73565 0.0
N2601 N 0.6202 0.20362 0.74045 0.0
H2602 H 0.32381 0.10241 0.6717 0.0
H2603 H 0.27984 0.07071 0.7481 0.0
H2604 H 0.32213 0.1285 0.71576 0.0
H2605 H 0.27305 0.05063 0.70104 0.0
H2606 H 0.29624 0.09139 0.73689 0.0
H2607 H 0.30609 0.08285 0.68259 0.0
C2608 C 0.31962 0.10416 0.68362 0.0
C2609 C 0.32447 0.11728 0.69275 0.0
C2610 C 0.2911 0.08251 0.729 0.0
C2611 C 0.30432 0.09456 0.70546 0.0
C2612 C 0.2818 0.07065 0.7354 0.0
C2613 C 0.27511 0.05886 0.7255 0.0
C2614 C 0.2939 0.08253 0.71257 0.0
C2615 C 0.27786 0.05952 0.70909 0.0
C2616 C 0.30954 0.09289 0.68986 0.0
C2617 C 0.31891 0.11855 0.7083 0.0
N2618 N 0.28713 0.07108 0.70317 0.0
N2619 N 0.30917 0.10733 0.71416 0.0
H2620 H 0.38519 0.81527 0.71091 0.0
H2621 H 0.47062 0.78464 0.68907 0.0
H2622 H 0.41216 0.83367 0.67228 0.0
H2623 H 0.44812 0.77229 0.73274 0.0
H2624 H 0.448 0.8007 0.68145 0.0
H2625 H 0.40707 0.79796 0.71812 0.0
C2626 C 0.3957 0.81575 0.70397 0.0
C2627 C 0.39673 0.82598 0.69091 0.0
C2628 C 0.44798 0.79444 0.69269 0.0
C2629 C 0.42177 0.80596 0.69899 0.0
C2630 C 0.46085 0.78514 0.69699 0.0
C2631 C 0.46132 0.77708 0.7116 0.0
C2632 C 0.43536 0.79568 0.703 0.0
C2633 C 0.44836 0.77843 0.72146 0.0
C2634 C 0.40816 0.80578 0.70805 0.0
C2635 C 0.41062 0.82583 0.68225 0.0
N2636 N 0.43593 0.78754 0.71699 0.0
N2637 N 0.42253 0.816 0.68643 0.0
H2638 H 0.69778 0.90847 0.6913 0.0
H2639 H 0.68494 0.98146 0.74918 0.0
H2640 H 0.65208 0.92348 0.70574 0.0
H2641 H 0.73072 0.96638 0.73506 0.0
H2642 H 0.67278 0.95965 0.73419 0.0
H2643 H 0.71018 0.92893 0.70813 0.0
C2644 C 0.69035 0.91598 0.69809 0.0
C2645 C 0.67385 0.91429 0.69699 0.0
C2646 C 0.68549 0.96109 0.73439 0.0
C2647 C 0.68796 0.93787 0.71619 0.0
C2648 C 0.69246 0.97352 0.74304 0.0
C2649 C 0.70889 0.97587 0.74334 0.0
C2650 C 0.69501 0.95088 0.72598 0.0
C2651 C 0.718 0.96524 0.73496 0.0
C2652 C 0.69743 0.92772 0.70764 0.0
C2653 C 0.66483 0.9245 0.70597 0.0
N2654 N 0.71094 0.95326 0.72661 0.0
N2655 N 0.67199 0.93585 0.71514 0.0
H2656 H 0.59585 0.8248 0.31459 0.0
H2657 H 0.54312 0.74872 0.29353 0.0
H2658 H 0.61123 0.7779 0.32472 0.0
H2659 H 0.52582 0.79579 0.28954 0.0
H2660 H 0.56775 0.75904 0.30594 0.0
H2661 H 0.56989 0.81434 0.30598 0.0
C2662 C 0.59376 0.81231 0.31504 0.0
C2663 C 0.60579 0.80224 0.32037 0.0
C2664 C 0.5585 0.76709 0.30249 0.0
C2665 C 0.57601 0.79013 0.31051 0.0
C2666 C 0.54439 0.7612 0.29543 0.0
C2667 C 0.53236 0.77138 0.29038 0.0
C2668 C 0.56066 0.78331 0.30441 0.0
C2669 C 0.53475 0.78746 0.29316 0.0
C2670 C 0.5789 0.80633 0.3102 0.0
C2671 C 0.6023 0.78614 0.32086 0.0
N2672 N 0.54864 0.79291 0.29984 0.0
N2673 N 0.5878 0.78059 0.31589 0.0
H2674 H 0.70354 0.10975 0.32781 0.0
H2675 H 0.72344 0.04913 0.25875 0.0
H2676 H 0.69093 0.11812 0.2781 0.0
H2677 H 0.73255 0.04179 0.30922 0.0
H2678 H 0.70956 0.07337 0.26509 0.0
H2679 H 0.71226 0.08385 0.32084 0.0
C2680 C 0.70236 0.10611 0.31543 0.0
C2681 C 0.69644 0.11629 0.30357 0.0
C2682 C 0.71447 0.06632 0.27474 0.0
C2683 C 0.70693 0.08644 0.29535 0.0
C2684 C 0.72229 0.05246 0.27113 0.0
C2685 C 0.72929 0.04351 0.28346 0.0
C2686 C 0.71364 0.07114 0.29078 0.0
C2687 C 0.72753 0.04841 0.29929 0.0
C2688 C 0.7075 0.09127 0.31141 0.0
C2689 C 0.69563 0.11084 0.28766 0.0
N2690 N 0.72001 0.06186 0.30246 0.0
N2691 N 0.70091 0.09634 0.284 0.0
H2692 H 0.39973 0.16302 0.29772 0.0
H2693 H 0.47736 0.21636 0.28971 0.0
H2694 H 0.42542 0.18439 0.33774 0.0
H2695 H 0.45289 0.19413 0.24946 0.0
H2696 H 0.45847 0.20451 0.30743 0.0
H2697 H 0.419 0.17418 0.27978 0.0
C2698 C 0.40939 0.17011 0.30273 0.0
C2699 C 0.41096 0.17277 0.31928 0.0
C2700 C 0.45723 0.20218 0.29472 0.0
C2701 C 0.43313 0.18547 0.29882 0.0
C2702 C 0.46798 0.20903 0.28457 0.0
C2703 C 0.46667 0.20633 0.26803 0.0
C2704 C 0.44499 0.19257 0.28833 0.0
C2705 C 0.45443 0.19644 0.26212 0.0
C2706 C 0.42043 0.1764 0.29249 0.0
C2707 C 0.42384 0.18186 0.32511 0.0
N2708 N 0.44402 0.18997 0.27226 0.0
N2709 N 0.43439 0.1879 0.3149 0.0
H2710 H 0.28005 0.89515 0.32445 0.0
H2711 H 0.269 0.98779 0.31854 0.0
H2712 H 0.30589 0.92877 0.35412 0.0
H2713 H 0.24588 0.95504 0.2858 0.0
H2714 H 0.27992 0.96595 0.33382 0.0
H2715 H 0.26525 0.91655 0.31195 0.0
C2716 C 0.28262 0.907 0.32837 0.0
C2717 C 0.29432 0.91009 0.34037 0.0
C2718 C 0.27234 0.96351 0.32338 0.0
C2719 C 0.27724 0.93468 0.32618 0.0
C2720 C 0.26602 0.97601 0.31467 0.0
C2721 C 0.25659 0.97329 0.30076 0.0
C2722 C 0.26928 0.94812 0.31817 0.0
C2723 C 0.25314 0.95772 0.2964 0.0
C2724 C 0.27408 0.91921 0.32128 0.0
C2725 C 0.29688 0.92572 0.3451 0.0
N2726 N 0.25959 0.94574 0.30498 0.0
N2727 N 0.28849 0.93738 0.33796 0.0
H2728 H 0.69246 0.12199 0.69846 0.0
H2729 H 0.75931 0.06138 0.7261 0.0
H2730 H 0.7423 0.13302 0.69813 0.0
H2731 H 0.70926 0.05365 0.73029 0.0
H2732 H 0.75368 0.08597 0.71191 0.0
H2733 H 0.69877 0.09531 0.70612 0.0
C2734 C 0.70475 0.11877 0.69977 0.0
C2735 C 0.71685 0.12987 0.69774 0.0
C2736 C 0.74395 0.07876 0.71576 0.0
C2737 C 0.72419 0.09922 0.70687 0.0
C2738 C 0.74716 0.06469 0.72375 0.0
C2739 C 0.73474 0.05556 0.72949 0.0
C2740 C 0.72821 0.08359 0.71347 0.0
C2741 C 0.71921 0.06043 0.72623 0.0
C2742 C 0.70836 0.10351 0.70427 0.0
C2743 C 0.73257 0.12496 0.69986 0.0
N2744 N 0.71641 0.07411 0.71855 0.0
N2745 N 0.73579 0.11004 0.70442 0.0
H2746 H 0.67989 0.89599 0.30758 0.0
H2747 H 0.75649 0.95139 0.31999 0.0
H2748 H 0.72282 0.88207 0.33268 0.0
H2749 H 0.71684 0.96293 0.28856 0.0
H2750 H 0.74316 0.92698 0.32681 0.0
H2751 H 0.69205 0.9216 0.30254 0.0
C2752 C 0.69182 0.89836 0.31214 0.0
C2753 C 0.70039 0.88682 0.32046 0.0
C2754 C 0.73734 0.93486 0.31844 0.0
C2755 C 0.71439 0.91606 0.31471 0.0
C2756 C 0.74492 0.94887 0.31461 0.0
C2757 C 0.73782 0.95926 0.30364 0.0
C2758 C 0.72247 0.93116 0.31132 0.0
C2759 C 0.72287 0.95521 0.2969 0.0
C2760 C 0.69879 0.91294 0.30918 0.0
C2761 C 0.71585 0.89051 0.32599 0.0
N2762 N 0.7157 0.94149 0.30085 0.0
N2763 N 0.72234 0.90477 0.32301 0.0
H2764 H 0.61972 0.22982 0.31621 0.0
H2765 H 0.54519 0.20656 0.25919 0.0
H2766 H 0.61127 0.18426 0.2952 0.0
H2767 H 0.55036 0.25218 0.28087 0.0
H2768 H 0.56886 0.19826 0.27374 0.0
H2769 H 0.59416 0.23826 0.30475 0.0
C2770 C 0.6125 0.22156 0.30926 0.0
C2771 C 0.61775 0.20627 0.30667 0.0
C2772 C 0.56488 0.21009 0.27544 0.0
C2773 C 0.58843 0.21589 0.2936 0.0
C2774 C 0.55131 0.21488 0.26707 0.0
C2775 C 0.54581 0.23016 0.26868 0.0
C2776 C 0.57328 0.22064 0.28551 0.0
C2777 C 0.5542 0.2403 0.27926 0.0
C2778 C 0.59787 0.22639 0.30279 0.0
C2779 C 0.60773 0.19607 0.29775 0.0
N2780 N 0.56762 0.2354 0.28718 0.0
N2781 N 0.59367 0.20109 0.2915 0.0
H2782 H 0.30284 0.10684 0.3265 0.0
H2783 H 0.31427 0.03014 0.27388 0.0
H2784 H 0.3483 0.08786 0.3164 0.0
H2785 H 0.26945 0.05301 0.27746 0.0
H2786 H 0.32686 0.05126 0.28936 0.0
H2787 H 0.29028 0.08731 0.30861 0.0
C2788 C 0.3102 0.09866 0.32046 0.0
C2789 C 0.32667 0.09894 0.32312 0.0
C2790 C 0.31427 0.05169 0.2867 0.0
C2791 C 0.31233 0.07643 0.30274 0.0
C2792 C 0.30705 0.03963 0.27774 0.0
C2793 C 0.29068 0.03962 0.27436 0.0
C2794 C 0.30511 0.06387 0.29244 0.0
C2795 C 0.28202 0.05227 0.27997 0.0
C2796 C 0.30301 0.08746 0.31029 0.0
C2797 C 0.33555 0.08791 0.31504 0.0
N2798 N 0.28932 0.06381 0.28879 0.0
N2799 N 0.32828 0.07709 0.3053 0.0
H2800 H 0.37367 0.81584 0.31323 0.0
H2801 H 0.45648 0.83528 0.27418 0.0
H2802 H 0.40122 0.85772 0.32354 0.0
H2803 H 0.43502 0.7893 0.27335 0.0
H2804 H 0.43457 0.84474 0.28951 0.0
H2805 H 0.39452 0.80683 0.29621 0.0
C2806 C 0.38408 0.82315 0.31198 0.0
C2807 C 0.3856 0.8376 0.31992 0.0
C2808 C 0.43463 0.83259 0.28594 0.0
C2809 C 0.40944 0.82741 0.30016 0.0
C2810 C 0.44708 0.82721 0.27707 0.0
C2811 C 0.44763 0.81145 0.27251 0.0
C2812 C 0.42252 0.82219 0.29018 0.0
C2813 C 0.43518 0.80148 0.2768 0.0
C2814 C 0.39595 0.81801 0.30217 0.0
C2815 C 0.3993 0.84664 0.31751 0.0
N2816 N 0.42315 0.80701 0.28537 0.0
N2817 N 0.41064 0.8414 0.30788 0.0
H2818 H 0.3127 0.90256 0.73769 0.0
H2819 H 0.30356 0.99445 0.75054 0.0
H2820 H 0.33601 0.93759 0.70965 0.0
H2821 H 0.28525 0.9601 0.78292 0.0
H2822 H 0.31678 0.97371 0.73643 0.0
H2823 H 0.30329 0.92325 0.75504 0.0
C2824 C 0.31587 0.91458 0.73519 0.0
C2825 C 0.32517 0.9183 0.72215 0.0
C2826 C 0.31004 0.9707 0.74675 0.0
C2827 C 0.31448 0.94207 0.74202 0.0
C2828 C 0.30253 0.98256 0.75486 0.0
C2829 C 0.29324 0.97903 0.76793 0.0
C2830 C 0.30812 0.95509 0.75157 0.0
C2831 C 0.29235 0.9634 0.77296 0.0
C2832 C 0.31058 0.92638 0.74517 0.0
C2833 C 0.32905 0.9341 0.71964 0.0
N2834 N 0.29951 0.95198 0.76465 0.0
N2835 N 0.32361 0.94536 0.72939 0.0
H2836 H 0.60686 0.81899 0.71071 0.0
H2837 H 0.5161 0.81789 0.73245 0.0
H2838 H 0.57368 0.854 0.69472 0.0
H2839 H 0.55026 0.7854 0.75191 0.0
H2840 H 0.53754 0.83289 0.72086 0.0
H2841 H 0.58689 0.80799 0.72786 0.0
C2842 C 0.59545 0.82449 0.71092 0.0
C2843 C 0.59194 0.83737 0.70109 0.0
C2844 C 0.54037 0.8226 0.72785 0.0
C2845 C 0.56888 0.82467 0.72062 0.0
C2846 C 0.52812 0.81405 0.73454 0.0
C2847 C 0.53133 0.80024 0.74301 0.0
C2848 C 0.55594 0.81724 0.72953 0.0
C2849 C 0.54718 0.7959 0.74537 0.0
C2850 C 0.58401 0.81815 0.72069 0.0
C2851 C 0.57684 0.84386 0.7018 0.0
N2852 N 0.55885 0.80424 0.73848 0.0
N2853 N 0.56586 0.83738 0.71128 0.0
H2854 H 0.42262 0.2182 0.68903 0.0
H2855 H 0.47528 0.21716 0.77052 0.0
H2856 H 0.41796 0.18433 0.72675 0.0
H2857 H 0.48304 0.25113 0.73347 0.0
H2858 H 0.45344 0.20609 0.75465 0.0
H2859 H 0.44365 0.2315 0.7051 0.0
C2860 C 0.4259 0.21364 0.70073 0.0
C2861 C 0.41855 0.20004 0.70649 0.0
C2862 C 0.45984 0.21597 0.7499 0.0
C2863 C 0.44267 0.21514 0.72486 0.0
C2864 C 0.47241 0.22234 0.759 0.0
C2865 C 0.48114 0.2351 0.75333 0.0
C2866 C 0.4558 0.22229 0.73486 0.0
C2867 C 0.47667 0.24128 0.7383 0.0
C2868 C 0.43798 0.22118 0.70984 0.0
C2869 C 0.42342 0.1946 0.72167 0.0
N2870 N 0.46431 0.23478 0.72954 0.0
N2871 N 0.43514 0.20212 0.73026 0.0
H2872 H 0.66374 0.72245 0.09509 0.0
H2873 H 0.728 0.77024 0.0467 0.0
H2874 H 0.70683 0.74177 0.11654 0.0
H2875 H 0.68125 0.75981 0.02709 0.0
H2876 H 0.72073 0.75863 0.07201 0.0
H2877 H 0.67023 0.73472 0.06965 0.0
C2878 C 0.67458 0.72924 0.09443 0.0
C2879 C 0.68475 0.73112 0.10796 0.0
C2880 C 0.71202 0.7589 0.06221 0.0
C2881 C 0.69222 0.74518 0.07896 0.0
C2882 C 0.7162 0.76544 0.04772 0.0
C2883 C 0.70524 0.76588 0.03474 0.0
C2884 C 0.69677 0.7526 0.06376 0.0
C2885 C 0.69001 0.75977 0.03683 0.0
C2886 C 0.67822 0.73631 0.07995 0.0
C2887 C 0.69855 0.74016 0.10647 0.0
N2888 N 0.68625 0.75326 0.05105 0.0
N2889 N 0.7019 0.74678 0.09225 0.0
H2890 H 0.31332 0.7114 0.13351 0.0
H2891 H 0.27696 0.71152 0.04344 0.0
H2892 H 0.31015 0.66987 0.10428 0.0
H2893 H 0.28594 0.75257 0.07243 0.0
H2894 H 0.2853 0.69521 0.06648 0.0
H2895 H 0.29971 0.72584 0.11215 0.0
C2896 C 0.30973 0.7053 0.1226 0.0
C2897 C 0.31307 0.68942 0.12067 0.0
C2898 C 0.28524 0.70779 0.0678 0.0
C2899 C 0.29733 0.70595 0.096 0.0
C2900 C 0.28038 0.71706 0.0547 0.0
C2901 C 0.28089 0.73341 0.056 0.0
C2902 C 0.29048 0.71498 0.08224 0.0
C2903 C 0.28554 0.74002 0.07082 0.0
C2904 C 0.30188 0.71354 0.11039 0.0
C2905 C 0.30779 0.68208 0.10634 0.0
N2906 N 0.2902 0.73083 0.08326 0.0
N2907 N 0.30032 0.69043 0.0945 0.0
H2908 H 0.34592 0.32622 0.11253 0.0
H2909 H 0.26255 0.28528 0.09463 0.0
H2910 H 0.31108 0.3198 0.14823 0.0
H2911 H 0.30152 0.27905 0.06377 0.0
H2912 H 0.28043 0.29774 0.11442 0.0
H2913 H 0.33024 0.30905 0.09441 0.0
C2914 C 0.33501 0.32114 0.11658 0.0
C2915 C 0.32975 0.32454 0.13189 0.0
C2916 C 0.28517 0.2935 0.10343 0.0
C2917 C 0.31177 0.3049 0.11122 0.0
C2918 C 0.27495 0.2864 0.0921 0.0
C2919 C 0.28056 0.28118 0.07752 0.0
C2920 C 0.30113 0.29574 0.10007 0.0
C2921 C 0.29675 0.28286 0.0749 0.0
C2922 C 0.32613 0.31126 0.10627 0.0
C2923 C 0.31564 0.31746 0.13659 0.0
N2924 N 0.30646 0.29023 0.08598 0.0
N2925 N 0.30707 0.30814 0.12624 0.0
H2926 H 0.7016 0.34558 0.09138 0.0
H2927 H 0.71321 0.25881 0.05859 0.0
H2928 H 0.67957 0.30459 0.11122 0.0
H2929 H 0.7389 0.29884 0.04139 0.0
H2930 H 0.70091 0.27551 0.07802 0.0
H2931 H 0.7159 0.32878 0.07343 0.0
C2932 C 0.69989 0.33305 0.09211 0.0
C2933 C 0.68925 0.32653 0.10279 0.0
C2934 C 0.70927 0.28066 0.07003 0.0
C2935 C 0.70542 0.30722 0.08205 0.0
C2936 C 0.71622 0.27113 0.05884 0.0
C2937 C 0.72706 0.27742 0.04825 0.0
C2938 C 0.71308 0.29668 0.07064 0.0
C2939 C 0.73072 0.29345 0.04937 0.0
C2940 C 0.70799 0.32346 0.08177 0.0
C2941 C 0.6874 0.31019 0.103 0.0
N2942 N 0.72369 0.30254 0.0603 0.0
N2943 N 0.69532 0.30114 0.09276 0.0
H2944 H 0.72562 0.33967 0.90845 0.0
H2945 H 0.74295 0.26415 0.96249 0.0
H2946 H 0.70735 0.29357 0.89688 0.0
H2947 H 0.75832 0.31076 0.97596 0.0
H2948 H 0.72971 0.27476 0.93852 0.0
H2949 H 0.73743 0.3294 0.93334 0.0
C2950 C 0.72406 0.32739 0.91115 0.0
C2951 C 0.7155 0.31747 0.90049 0.0
C2952 C 0.73595 0.28269 0.94673 0.0
C2953 C 0.72902 0.30561 0.92905 0.0
C2954 C 0.74355 0.27663 0.96043 0.0
C2955 C 0.75182 0.28656 0.97128 0.0
C2956 C 0.73663 0.29882 0.94376 0.0
C2957 C 0.75212 0.30264 0.96794 0.0
C2958 C 0.73077 0.32154 0.9254 0.0
C2959 C 0.7137 0.3017 0.90477 0.0
N2960 N 0.74469 0.30825 0.95448 0.0
N2961 N 0.72048 0.29625 0.91864 0.0
H2962 H 0.74406 0.70156 0.88188 0.0
H2963 H 0.70488 0.75123 0.95044 0.0
H2964 H 0.69412 0.70967 0.88496 0.0
H2965 H 0.75515 0.74448 0.94938 0.0
H2966 H 0.701 0.73352 0.92794 0.0
H2967 H 0.74861 0.71494 0.9076 0.0
C2968 C 0.73403 0.70605 0.88796 0.0
C2969 C 0.71866 0.7045 0.88109 0.0
C2970 C 0.71291 0.73575 0.93262 0.0
C2971 C 0.72383 0.71973 0.91065 0.0
C2972 C 0.71515 0.7459 0.94552 0.0
C2973 C 0.73038 0.74947 0.95172 0.0
C2974 C 0.72602 0.72915 0.92559 0.0
C2975 C 0.7432 0.74204 0.94496 0.0
C2976 C 0.73666 0.71362 0.9027 0.0
C2977 C 0.70615 0.71034 0.88974 0.0
N2978 N 0.74075 0.73236 0.93209 0.0
N2979 N 0.70904 0.71775 0.90393 0.0
H2980 H 0.32325 0.67993 0.91426 0.0
H2981 H 0.33107 0.75687 0.96895 0.0
H2982 H 0.35925 0.71541 0.90855 0.0
H2983 H 0.29671 0.71997 0.9754 0.0
H2984 H 0.3414 0.74226 0.94655 0.0
H2985 H 0.31296 0.69497 0.93624 0.0
C2986 C 0.32901 0.69088 0.91762 0.0
C2987 C 0.34217 0.69636 0.90952 0.0
C2988 C 0.33158 0.73739 0.95288 0.0
C2989 C 0.33038 0.71376 0.93473 0.0
C2990 C 0.32574 0.74569 0.96574 0.0
C2991 C 0.31292 0.73973 0.97407 0.0
C2992 C 0.32459 0.72299 0.94833 0.0
C2993 C 0.3064 0.72522 0.96921 0.0
C2994 C 0.32309 0.69951 0.93016 0.0
C2995 C 0.34897 0.71079 0.91429 0.0
N2996 N 0.31229 0.71739 0.9567 0.0
N2997 N 0.34303 0.71895 0.9266 0.0
H2998 H 0.33656 0.30608 0.93615 0.0
H2999 H 0.25709 0.31748 0.98349 0.0
H3000 H 0.30424 0.34365 0.92623 0.0
H3001 H 0.29145 0.28184 0.99408 0.0
H3002 H 0.27324 0.32665 0.96162 0.0
H3003 H 0.31908 0.29623 0.95641 0.0
C3004 C 0.32577 0.31227 0.93824 0.0
C3005 C 0.32193 0.32578 0.92954 0.0
C3006 C 0.27717 0.31677 0.96872 0.0
C3007 C 0.30174 0.31451 0.95276 0.0
C3008 C 0.26798 0.31158 0.98126 0.0
C3009 C 0.27282 0.29881 0.99069 0.0
C3010 C 0.29131 0.30916 0.9656 0.0
C3011 C 0.28701 0.29153 0.98707 0.0
C3012 C 0.31575 0.3066 0.94978 0.0
C3013 C 0.30762 0.33313 0.93256 0.0
N3014 N 0.29571 0.29682 0.97489 0.0
N3015 N 0.29809 0.32745 0.94399 0.0
H3016 H 0.6037 0.7355 0.16992 0.0
H3017 H 0.53888 0.73917 0.23677 0.0
H3018 H 0.60341 0.70546 0.21129 0.0
H3019 H 0.53761 0.76822 0.19466 0.0
H3020 H 0.56227 0.72649 0.22728 0.0
H3021 H 0.57909 0.74702 0.17816 0.0
C3022 C 0.59838 0.73117 0.18063 0.0
C3023 C 0.60571 0.71948 0.18993 0.0
C3024 C 0.55689 0.73562 0.22008 0.0
C3025 C 0.5776 0.73286 0.19959 0.0
C3026 C 0.54357 0.74299 0.22557 0.0
C3027 C 0.5363 0.75494 0.21659 0.0
C3028 C 0.56311 0.7402 0.20548 0.0
C3029 C 0.54276 0.75904 0.20195 0.0
C3030 C 0.58437 0.73785 0.18539 0.0
C3031 C 0.59835 0.71458 0.20385 0.0
N3032 N 0.55583 0.75174 0.19688 0.0
N3033 N 0.58476 0.72132 0.20827 0.0
H3034 H 0.3292 0.62007 0.23207 0.0
H3035 H 0.2939 0.53347 0.24164 0.0
H3036 H 0.32532 0.58642 0.19369 0.0
H3037 H 0.30551 0.5635 0.28189 0.0
H3038 H 0.30416 0.55335 0.22379 0.0
H3039 H 0.31913 0.60025 0.25036 0.0
C3040 C 0.32613 0.60855 0.22747 0.0
C3041 C 0.32813 0.60489 0.21132 0.0
C3042 C 0.30453 0.55561 0.23652 0.0
C3043 C 0.31669 0.58215 0.23219 0.0
C3044 C 0.2986 0.54427 0.24673 0.0
C3045 C 0.29878 0.54683 0.2633 0.0
C3046 C 0.31062 0.56974 0.24286 0.0
C3047 C 0.30525 0.56098 0.26922 0.0
C3048 C 0.3205 0.59721 0.23794 0.0
C3049 C 0.32413 0.58972 0.20607 0.0
N3050 N 0.31083 0.57195 0.25901 0.0
N3051 N 0.31858 0.57895 0.21644 0.0
H3052 H 0.43242 0.35075 0.21361 0.0
H3053 H 0.44661 0.26392 0.24357 0.0
H3054 H 0.39487 0.31785 0.22287 0.0
H3055 H 0.48413 0.29838 0.24298 0.0
H3056 H 0.42741 0.28437 0.23833 0.0
H3057 H 0.4514 0.33277 0.22614 0.0
C3058 C 0.42814 0.3398 0.21839 0.0
C3059 C 0.412 0.33576 0.21702 0.0
C3060 C 0.43979 0.28758 0.23958 0.0
C3061 C 0.43371 0.31511 0.23142 0.0
C3062 C 0.45077 0.27589 0.24261 0.0
C3063 C 0.46697 0.27947 0.24366 0.0
C3064 C 0.44502 0.30301 0.2372 0.0
C3065 C 0.47173 0.29516 0.24234 0.0
C3066 C 0.43898 0.32958 0.22563 0.0
C3067 C 0.40714 0.32153 0.22369 0.0
N3068 N 0.4608 0.30635 0.23889 0.0
N3069 N 0.41795 0.31167 0.2304 0.0
H3070 H 0.70509 0.40273 0.18558 0.0
H3071 H 0.70602 0.48656 0.22843 0.0
H3072 H 0.66274 0.42886 0.19263 0.0
H3073 H 0.74732 0.46204 0.21423 0.0
H3074 H 0.6896 0.46392 0.21961 0.0
H3075 H 0.72029 0.42261 0.20048 0.0
C3076 C 0.69892 0.41252 0.19046 0.0
C3077 C 0.68259 0.41413 0.18769 0.0
C3078 C 0.70228 0.46348 0.21862 0.0
C3079 C 0.70008 0.43725 0.20459 0.0
C3080 C 0.71163 0.47634 0.22372 0.0
C3081 C 0.72801 0.47622 0.22187 0.0
C3082 C 0.70945 0.45045 0.21182 0.0
C3083 C 0.7347 0.46273 0.21566 0.0
C3084 C 0.70765 0.42397 0.19889 0.0
C3085 C 0.67534 0.42726 0.19419 0.0
N3086 N 0.72542 0.45047 0.2108 0.0
N3087 N 0.68414 0.43837 0.20223 0.0
H3088 H 0.63404 0.30667 0.79059 0.0
H3089 H 0.54084 0.31413 0.79972 0.0
H3090 H 0.61315 0.3374 0.82447 0.0
H3091 H 0.56189 0.28312 0.76618 0.0
H3092 H 0.56701 0.32494 0.80678 0.0
H3093 H 0.60769 0.2997 0.77986 0.0
C3094 C 0.62391 0.31194 0.79582 0.0
C3095 C 0.62588 0.32252 0.80862 0.0
C3096 C 0.56589 0.31591 0.79773 0.0
C3097 C 0.59552 0.31469 0.79618 0.0
C3098 C 0.55091 0.30977 0.79362 0.0
C3099 C 0.5491 0.29758 0.78241 0.0
C3100 C 0.57925 0.30981 0.79066 0.0
C3101 C 0.56265 0.29246 0.77491 0.0
C3102 C 0.60884 0.30803 0.78959 0.0
C3103 C 0.61227 0.32924 0.81459 0.0
N3104 N 0.57714 0.29847 0.7793 0.0
N3105 N 0.59769 0.32513 0.80841 0.0
H3106 H 0.73923 0.62938 0.7729 0.0
H3107 H 0.7231 0.53731 0.77597 0.0
H3108 H 0.70124 0.60838 0.79866 0.0
H3109 H 0.75827 0.55904 0.74701 0.0
H3110 H 0.71359 0.56318 0.78284 0.0
H3111 H 0.74535 0.60379 0.76222 0.0
C3112 C 0.73206 0.61942 0.77623 0.0
C3113 C 0.71966 0.62113 0.78673 0.0
C3114 C 0.72326 0.56229 0.77482 0.0
C3115 C 0.7268 0.59158 0.77461 0.0
C3116 C 0.72865 0.54749 0.7708 0.0
C3117 C 0.74161 0.54595 0.76099 0.0
C3118 C 0.73093 0.57568 0.76907 0.0
C3119 C 0.74828 0.55961 0.75466 0.0
C3120 C 0.73562 0.60476 0.77014 0.0
C3121 C 0.71104 0.60766 0.79081 0.0
N3122 N 0.743 0.57388 0.75896 0.0
N3123 N 0.7148 0.59347 0.78478 0.0
H3124 H 0.40451 0.71977 0.82016 0.0
H3125 H 0.49277 0.73284 0.79257 0.0
H3126 H 0.44356 0.69095 0.83559 0.0
H3127 H 0.45653 0.76721 0.78486 0.0
H3128 H 0.47479 0.71754 0.80858 0.0
H3129 H 0.42307 0.73727 0.80693 0.0
C3130 C 0.41698 0.71712 0.82074 0.0
C3131 C 0.42249 0.70386 0.82898 0.0
C3132 C 0.47078 0.7285 0.80354 0.0
C3133 C 0.44376 0.72385 0.81397 0.0
C3134 C 0.48106 0.73726 0.79439 0.0
C3135 C 0.47612 0.7513 0.78731 0.0
C3136 C 0.45533 0.73368 0.80548 0.0
C3137 C 0.46084 0.75647 0.79014 0.0
C3138 C 0.42757 0.72717 0.81331 0.0
C3139 C 0.43879 0.7011 0.82952 0.0
N3140 N 0.4509 0.74757 0.79886 0.0
N3141 N 0.44881 0.71094 0.82205 0.0
H3142 H 0.34367 0.42862 0.86553 0.0
H3143 H 0.27564 0.45644 0.80345 0.0
H3144 H 0.31553 0.39593 0.83687 0.0
H3145 H 0.29679 0.4854 0.84087 0.0
H3146 H 0.29141 0.43439 0.81352 0.0
H3147 H 0.32804 0.4499 0.85444 0.0
C3148 C 0.33414 0.42588 0.85695 0.0
C3149 C 0.3308 0.41037 0.85233 0.0
C3150 C 0.2925 0.44558 0.81954 0.0
C3151 C 0.31289 0.43489 0.83932 0.0
C3152 C 0.28355 0.45815 0.81378 0.0
C3153 C 0.2848 0.47277 0.82138 0.0
C3154 C 0.30292 0.44773 0.83285 0.0
C3155 C 0.2952 0.47432 0.83477 0.0
C3156 C 0.32524 0.43808 0.85056 0.0
C3157 C 0.31859 0.40768 0.84076 0.0
N3158 N 0.30387 0.46201 0.84 0.0
N3159 N 0.31003 0.41981 0.83468 0.0
H3160 H 0.6799 0.62802 0.19728 0.0
H3161 H 0.74779 0.56812 0.17721 0.0
H3162 H 0.71025 0.63402 0.15744 0.0
H3163 H 0.71197 0.55871 0.21133 0.0
H3164 H 0.73411 0.59205 0.16945 0.0
H3165 H 0.69128 0.6024 0.20226 0.0
C3166 C 0.6888 0.6239 0.18942 0.0
C3167 C 0.69413 0.63332 0.17694 0.0
C3168 C 0.72922 0.58469 0.17858 0.0
C3169 C 0.70752 0.60397 0.18283 0.0
C3170 C 0.737 0.57095 0.18298 0.0
C3171 C 0.73118 0.56137 0.1951 0.0
C3172 C 0.71553 0.58894 0.18637 0.0
C3173 C 0.71716 0.56582 0.2022 0.0
C3174 C 0.69539 0.60927 0.19235 0.0
C3175 C 0.70594 0.62735 0.16738 0.0
N3176 N 0.70991 0.57929 0.19782 0.0
N3177 N 0.71229 0.61314 0.17059 0.0
H3178 H 0.72887 0.40622 0.84163 0.0
H3179 H 0.74195 0.47162 0.7749 0.0
H3180 H 0.70602 0.40549 0.79466 0.0
H3181 H 0.76648 0.47229 0.82105 0.0
H3182 H 0.72779 0.44808 0.78262 0.0
H3183 H 0.7415 0.43119 0.83515 0.0
C3184 C 0.72635 0.41138 0.83002 0.0
C3185 C 0.7164 0.40367 0.81865 0.0
C3186 C 0.73626 0.45335 0.79109 0.0
C3187 C 0.731 0.43219 0.81108 0.0
C3188 C 0.74447 0.46679 0.78664 0.0
C3189 C 0.75561 0.47392 0.79726 0.0
C3190 C 0.73915 0.44689 0.80631 0.0
C3191 C 0.75798 0.46725 0.81248 0.0
C3192 C 0.73367 0.42559 0.82629 0.0
C3193 C 0.71377 0.41086 0.80372 0.0
N3194 N 0.74988 0.45407 0.81653 0.0
N3195 N 0.72105 0.42465 0.80038 0.0
H3196 H 0.62472 0.67643 0.79077 0.0
H3197 H 0.56949 0.74647 0.76037 0.0
H3198 H 0.63959 0.72485 0.79052 0.0
H3199 H 0.55512 0.69797 0.75768 0.0
H3200 H 0.59501 0.73869 0.77199 0.0
H3201 H 0.59899 0.68399 0.77923 0.0
C3202 C 0.62261 0.68865 0.78828 0.0
C3203 C 0.6344 0.70001 0.79166 0.0
C3204 C 0.5863 0.72973 0.76885 0.0
C3205 C 0.60487 0.70876 0.77851 0.0
C3206 C 0.57166 0.73418 0.76227 0.0
C3207 C 0.56006 0.72288 0.75808 0.0
C3208 C 0.58943 0.71383 0.77135 0.0
C3209 C 0.56372 0.70709 0.76057 0.0
C3210 C 0.60788 0.69296 0.78174 0.0
C3211 C 0.63084 0.71569 0.78838 0.0
N3212 N 0.57805 0.70304 0.76709 0.0
N3213 N 0.61644 0.71958 0.78198 0.0
H3214 H 0.35691 0.59143 0.82934 0.0
H3215 H 0.2921 0.57002 0.76029 0.0
H3216 H 0.32958 0.62606 0.80362 0.0
H3217 H 0.31138 0.53641 0.79385 0.0
H3218 H 0.3088 0.59033 0.7731 0.0
H3219 H 0.34315 0.57094 0.81373 0.0
C3220 C 0.3481 0.59475 0.8203 0.0
C3221 C 0.34441 0.61052 0.8178 0.0
C3222 C 0.30948 0.57848 0.77755 0.0
C3223 C 0.32851 0.58703 0.79988 0.0
C3224 C 0.30004 0.56683 0.77016 0.0
C3225 C 0.30026 0.55146 0.77604 0.0
C3226 C 0.31932 0.57474 0.79085 0.0
C3227 C 0.31075 0.54809 0.78895 0.0
C3228 C 0.34019 0.58302 0.81145 0.0
C3229 C 0.3327 0.61406 0.80607 0.0
N3230 N 0.31979 0.55964 0.79595 0.0
N3231 N 0.32519 0.60242 0.79754 0.0
H3232 H 0.41698 0.30263 0.87028 0.0
H3233 H 0.47304 0.29142 0.79646 0.0
H3234 H 0.4123 0.32869 0.82628 0.0
H3235 H 0.47811 0.26548 0.8405 0.0
H3236 H 0.45012 0.30431 0.80677 0.0
H3237 H 0.4385 0.28802 0.85914 0.0
C3238 C 0.42032 0.30517 0.8582 0.0
C3239 C 0.41275 0.31695 0.84922 0.0
C3240 C 0.4562 0.29576 0.81418 0.0
C3241 C 0.43768 0.30036 0.83646 0.0
C3242 C 0.46929 0.28829 0.80824 0.0
C3243 C 0.4776 0.27726 0.81759 0.0
C3244 C 0.45129 0.29225 0.8296 0.0
C3245 C 0.47224 0.274 0.83292 0.0
C3246 C 0.43273 0.29688 0.85188 0.0
C3247 C 0.41788 0.31987 0.83373 0.0
N3248 N 0.45945 0.28145 0.83844 0.0
N3249 N 0.43002 0.31167 0.82787 0.0
H3250 H 0.31422 0.39751 0.22955 0.0
H3251 H 0.27281 0.48116 0.23376 0.0
H3252 H 0.31802 0.43218 0.19247 0.0
H3253 H 0.28166 0.45105 0.27427 0.0
H3254 H 0.2845 0.46141 0.21646 0.0
H3255 H 0.29737 0.4151 0.24402 0.0
C3256 C 0.31136 0.40874 0.22434 0.0
C3257 C 0.31768 0.4134 0.20982 0.0
C3258 C 0.28367 0.45909 0.22911 0.0
C3259 C 0.29841 0.43371 0.22643 0.0
C3260 C 0.2769 0.47028 0.23893 0.0
C3261 C 0.27639 0.46774 0.25545 0.0
C3262 C 0.28969 0.44525 0.2359 0.0
C3263 C 0.28198 0.45353 0.26161 0.0
C3264 C 0.3018 0.41884 0.23266 0.0
C3265 C 0.31363 0.4282 0.20375 0.0
N3266 N 0.28841 0.44288 0.25187 0.0
N3267 N 0.30431 0.43785 0.21211 0.0
H3268 H 0.61257 0.3212 0.19502 0.0
H3269 H 0.52867 0.2785 0.17954 0.0
H3270 H 0.5835 0.3269 0.15199 0.0
H3271 H 0.55879 0.27086 0.22149 0.0
H3272 H 0.54886 0.29583 0.16901 0.0
H3273 H 0.59316 0.30251 0.20482 0.0
C3274 C 0.60214 0.31849 0.1876 0.0
C3275 C 0.59966 0.3257 0.17267 0.0
C3276 C 0.55107 0.29032 0.18051 0.0
C3277 C 0.5773 0.30436 0.18388 0.0
C3278 C 0.53957 0.28032 0.18649 0.0
C3279 C 0.54195 0.27324 0.2015 0.0
C3280 C 0.56509 0.2933 0.18958 0.0
C3281 C 0.55629 0.27625 0.21001 0.0
C3282 C 0.59103 0.30785 0.19323 0.0
C3283 C 0.5858 0.32185 0.16368 0.0
N3284 N 0.56727 0.28608 0.20396 0.0
N3285 N 0.57517 0.31146 0.16942 0.0
H3286 H 0.39223 0.70956 0.21094 0.0
H3287 H 0.48247 0.71092 0.24157 0.0
H3288 H 0.42246 0.66953 0.20853 0.0
H3289 H 0.44964 0.74683 0.25339 0.0
H3290 H 0.46049 0.69528 0.2301 0.0
H3291 H 0.41283 0.72319 0.22702 0.0
C3292 C 0.4031 0.70354 0.21391 0.0
C3293 C 0.40559 0.68837 0.20818 0.0
C3294 C 0.45806 0.7065 0.23538 0.0
C3295 C 0.42939 0.70407 0.22646 0.0
C3296 C 0.47062 0.71543 0.24197 0.0
C3297 C 0.46795 0.73027 0.24839 0.0
C3298 C 0.4427 0.7125 0.23499 0.0
C3299 C 0.4523 0.73547 0.24857 0.0
C3300 C 0.4149 0.71138 0.22305 0.0
C3301 C 0.42007 0.68133 0.21231 0.0
N3302 N 0.44031 0.7267 0.24178 0.0
N3303 N 0.43143 0.68925 0.22106 0.0
loop_
_geom_bond_atom_site_label_1
_geom_bond_atom_site_label_2
_geom_bond_distance
_geom_bond_site_symmetry_2
_ccdc_geom_bond_type
P0 O11 1.490 . S
P0 C14 1.812 . S
P0 C20 1.803 . S
P0 C26 1.819 . S
H1 C15 0.941 . S
H2 C16 0.939 . S
H3 C18 0.940 . S
H4 C19 0.940 . S
H5 C21 0.939 . S
H6 C22 0.942 . S
H7 C24 0.940 . S
H8 C25 0.939 . S
H9 C27 0.941 . S
H10 C31 0.939 . S
O11 P0 1.490 . S
H12 C28 0.939 . S
H13 C30 0.940 . S
C14 P0 1.812 . S
C14 C15 1.389 . S
C14 C19 1.391 . S
C15 H1 0.941 . S
C15 C14 1.389 . S
C15 C16 1.397 . S
C16 H2 0.939 . S
C16 C15 1.397 . S
C16 C17 1.378 . S
C17 C16 1.378 . S
C17 C18 1.378 . S
C18 H3 0.940 . S
C18 C17 1.378 . S
C18 C19 1.396 . S
C19 H4 0.940 . S
C19 C14 1.391 . S
C19 C18 1.396 . S
C20 P0 1.803 . S
C20 C21 1.378 . S
C20 C25 1.400 . S
C21 H5 0.939 . S
C21 C20 1.378 . S
C21 C22 1.361 . S
C22 H6 0.942 . S
C22 C21 1.361 . S
C22 C23 1.369 . S
C23 C22 1.369 . S
C23 C24 1.404 . S
C24 H7 0.940 . S
C24 C23 1.404 . S
C24 C25 1.389 . S
C25 H8 0.939 . S
C25 C20 1.400 . S
C25 C24 1.389 . S
C26 P0 1.819 . S
C26 C27 1.391 . S
C26 C31 1.391 . S
C27 H9 0.941 . S
C27 C26 1.391 . S
C27 C28 1.396 . S
C28 H12 0.939 . S
C28 C27 1.396 . S
C28 C29 1.397 . S
C29 C28 1.397 . S
C29 C30 1.385 . S
C30 H13 0.940 . S
C30 C29 1.385 . S
C30 C31 1.388 . S
C31 H10 0.939 . S
C31 C26 1.391 . S
C31 C30 1.388 . S
P32 O43 1.490 . S
P32 C46 1.812 . S
P32 C52 1.803 . S
P32 C58 1.819 . S
H33 C47 0.941 . S
H34 C48 0.939 . S
H35 C50 0.940 . S
H36 C51 0.940 . S
H37 C53 0.939 . S
H38 C54 0.942 . S
H39 C56 0.940 . S
H40 C57 0.939 . S
H41 C59 0.941 . S
H42 C63 0.939 . S
O43 P32 1.490 . S
H44 C60 0.939 . S
H45 C62 0.940 . S
C46 P32 1.812 . S
C46 C47 1.389 . S
C46 C51 1.391 . S
C47 H33 0.941 . S
C47 C46 1.389 . S
C47 C48 1.397 . S
C48 H34 0.939 . S
C48 C47 1.397 . S
C48 C49 1.378 . S
C49 C48 1.378 . S
C49 C50 1.378 . S
C50 H35 0.940 . S
C50 C49 1.378 . S
C50 C51 1.396 . S
C51 H36 0.940 . S
C51 C46 1.391 . S
C51 C50 1.396 . S
C52 P32 1.803 . S
C52 C53 1.378 . S
C52 C57 1.400 . S
C53 H37 0.939 . S
C53 C52 1.378 . S
C53 C54 1.361 . S
C54 H38 0.942 . S
C54 C53 1.361 . S
C54 C55 1.369 . S
C55 C54 1.369 . S
C55 C56 1.404 . S
C56 H39 0.940 . S
C56 C55 1.404 . S
C56 C57 1.389 . S
C57 H40 0.939 . S
C57 C52 1.400 . S
C57 C56 1.389 . S
C58 P32 1.819 . S
C58 C59 1.391 . S
C58 C63 1.391 . S
C59 H41 0.941 . S
C59 C58 1.391 . S
C59 C60 1.396 . S
C60 H44 0.939 . S
C60 C59 1.396 . S
C60 C61 1.397 . S
C61 C60 1.397 . S
C61 C62 1.385 . S
C62 H45 0.940 . S
C62 C61 1.385 . S
C62 C63 1.388 . S
C63 H42 0.939 . S
C63 C58 1.391 . S
C63 C62 1.388 . S
P64 O75 1.490 . S
P64 C78 1.812 . S
P64 C84 1.803 . S
P64 C90 1.819 . S
H65 C79 0.941 . S
H66 C80 0.939 . S
H67 C82 0.940 . S
H68 C83 0.940 . S
H69 C85 0.939 . S
H70 C86 0.942 . S
H71 C88 0.940 . S
H72 C89 0.939 . S
H73 C91 0.941 . S
H74 C95 0.939 . S
O75 P64 1.490 . S
H76 C92 0.939 . S
H77 C94 0.940 . S
C78 P64 1.812 . S
C78 C79 1.389 . S
C78 C83 1.391 . S
C79 H65 0.941 . S
C79 C78 1.389 . S
C79 C80 1.397 . S
C80 H66 0.939 . S
C80 C79 1.397 . S
C80 C81 1.378 . S
C81 C80 1.378 . S
C81 C82 1.378 . S
C82 H67 0.940 . S
C82 C81 1.378 . S
C82 C83 1.396 . S
C83 H68 0.940 . S
C83 C78 1.391 . S
C83 C82 1.396 . S
C84 P64 1.803 . S
C84 C85 1.378 . S
C84 C89 1.400 . S
C85 H69 0.939 . S
C85 C84 1.378 . S
C85 C86 1.361 . S
C86 H70 0.942 . S
C86 C85 1.361 . S
C86 C87 1.369 . S
C87 C86 1.369 . S
C87 C88 1.404 . S
C88 H71 0.940 . S
C88 C87 1.404 . S
C88 C89 1.389 . S
C89 H72 0.939 . S
C89 C84 1.400 . S
C89 C88 1.389 . S
C90 P64 1.819 . S
C90 C91 1.391 . S
C90 C95 1.391 . S
C91 H73 0.941 . S
C91 C90 1.391 . S
C91 C92 1.396 . S
C92 H76 0.939 . S
C92 C91 1.396 . S
C92 C93 1.397 . S
C93 C92 1.397 . S
C93 C94 1.385 . S
C94 H77 0.940 . S
C94 C93 1.385 . S
C94 C95 1.388 . S
C95 H74 0.939 . S
C95 C90 1.391 . S
C95 C94 1.388 . S
P96 O107 1.490 . S
P96 C110 1.812 . S
P96 C116 1.803 . S
P96 C122 1.819 . S
H97 C111 0.941 . S
H98 C112 0.939 . S
H99 C114 0.940 . S
H100 C115 0.940 . S
H101 C117 0.939 . S
H102 C118 0.942 . S
H103 C120 0.940 . S
H104 C121 0.939 . S
H105 C123 0.941 . S
H106 C127 0.939 . S
O107 P96 1.490 . S
H108 C124 0.939 . S
H109 C126 0.940 . S
C110 P96 1.812 . S
C110 C111 1.389 . S
C110 C115 1.391 . S
C111 H97 0.941 . S
C111 C110 1.389 . S
C111 C112 1.397 . S
C112 H98 0.939 . S
C112 C111 1.397 . S
C112 C113 1.378 . S
C113 C112 1.378 . S
C113 C114 1.378 . S
C114 H99 0.940 . S
C114 C113 1.378 . S
C114 C115 1.396 . S
C115 H100 0.940 . S
C115 C110 1.391 . S
C115 C114 1.396 . S
C116 P96 1.803 . S
C116 C117 1.378 . S
C116 C121 1.400 . S
C117 H101 0.939 . S
C117 C116 1.378 . S
C117 C118 1.361 . S
C118 H102 0.942 . S
C118 C117 1.361 . S
C118 C119 1.369 . S
C119 C118 1.369 . S
C119 C120 1.404 . S
C120 H103 0.940 . S
C120 C119 1.404 . S
C120 C121 1.389 . S
C121 H104 0.939 . S
C121 C116 1.400 . S
C121 C120 1.389 . S
C122 P96 1.819 . S
C122 C123 1.391 . S
C122 C127 1.391 . S
C123 H105 0.941 . S
C123 C122 1.391 . S
C123 C124 1.396 . S
C124 H108 0.939 . S
C124 C123 1.396 . S
C124 C125 1.397 . S
C125 C124 1.397 . S
C125 C126 1.385 . S
C126 H109 0.940 . S
C126 C125 1.385 . S
C126 C127 1.388 . S
C127 H106 0.939 . S
C127 C122 1.391 . S
C127 C126 1.388 . S
P128 O139 1.490 . S
P128 C142 1.812 . S
P128 C148 1.803 . S
P128 C154 1.819 . S
H129 C143 0.941 . S
H130 C144 0.939 . S
H131 C146 0.940 . S
H132 C147 0.940 . S
H133 C149 0.939 . S
H134 C150 0.942 . S
H135 C152 0.940 . S
H136 C153 0.939 . S
H137 C155 0.941 . S
H138 C159 0.939 . S
O139 P128 1.490 . S
H140 C156 0.939 . S
H141 C158 0.940 . S
C142 P128 1.812 . S
C142 C143 1.389 . S
C142 C147 1.391 . S
C143 H129 0.941 . S
C143 C142 1.389 . S
C143 C144 1.397 . S
C144 H130 0.939 . S
C144 C143 1.397 . S
C144 C145 1.378 . S
C145 C144 1.378 . S
C145 C146 1.378 . S
C146 H131 0.940 . S
C146 C145 1.378 . S
C146 C147 1.396 . S
C147 H132 0.940 . S
C147 C142 1.391 . S
C147 C146 1.396 . S
C148 P128 1.803 . S
C148 C149 1.378 . S
C148 C153 1.400 . S
C149 H133 0.939 . S
C149 C148 1.378 . S
C149 C150 1.361 . S
C150 H134 0.942 . S
C150 C149 1.361 . S
C150 C151 1.369 . S
C151 C150 1.369 . S
C151 C152 1.404 . S
C152 H135 0.940 . S
C152 C151 1.404 . S
C152 C153 1.389 . S
C153 H136 0.939 . S
C153 C148 1.400 . S
C153 C152 1.389 . S
C154 P128 1.819 . S
C154 C155 1.391 . S
C154 C159 1.391 . S
C155 H137 0.941 . S
C155 C154 1.391 . S
C155 C156 1.396 . S
C156 H140 0.939 . S
C156 C155 1.396 . S
C156 C157 1.397 . S
C157 C156 1.397 . S
C157 C158 1.385 . S
C158 H141 0.940 . S
C158 C157 1.385 . S
C158 C159 1.388 . S
C159 H138 0.939 . S
C159 C154 1.391 . S
C159 C158 1.388 . S
P160 O171 1.490 . S
P160 C174 1.812 . S
P160 C180 1.803 . S
P160 C186 1.819 . S
H161 C175 0.941 . S
H162 C176 0.939 . S
H163 C178 0.940 . S
H164 C179 0.940 . S
H165 C181 0.939 . S
H166 C182 0.942 . S
H167 C184 0.940 . S
H168 C185 0.939 . S
H169 C187 0.941 . S
H170 C191 0.939 . S
O171 P160 1.490 . S
H172 C188 0.939 . S
H173 C190 0.940 . S
C174 P160 1.812 . S
C174 C175 1.389 . S
C174 C179 1.391 . S
C175 H161 0.941 . S
C175 C174 1.389 . S
C175 C176 1.397 . S
C176 H162 0.939 . S
C176 C175 1.397 . S
C176 C177 1.378 . S
C177 C176 1.378 . S
C177 C178 1.378 . S
C178 H163 0.940 . S
C178 C177 1.378 . S
C178 C179 1.396 . S
C179 H164 0.940 . S
C179 C174 1.391 . S
C179 C178 1.396 . S
C180 P160 1.803 . S
C180 C181 1.378 . S
C180 C185 1.400 . S
C181 H165 0.939 . S
C181 C180 1.378 . S
C181 C182 1.361 . S
C182 H166 0.942 . S
C182 C181 1.361 . S
C182 C183 1.369 . S
C183 C182 1.369 . S
C183 C184 1.404 . S
C184 H167 0.940 . S
C184 C183 1.404 . S
C184 C185 1.389 . S
C185 H168 0.939 . S
C185 C180 1.400 . S
C185 C184 1.389 . S
C186 P160 1.819 . S
C186 C187 1.391 . S
C186 C191 1.391 . S
C187 H169 0.941 . S
C187 C186 1.391 . S
C187 C188 1.396 . S
C188 H172 0.939 . S
C188 C187 1.396 . S
C188 C189 1.397 . S
C189 C188 1.397 . S
C189 C190 1.385 . S
C190 H173 0.940 . S
C190 C189 1.385 . S
C190 C191 1.388 . S
C191 H170 0.939 . S
C191 C186 1.391 . S
C191 C190 1.388 . S
P192 O203 1.490 . S
P192 C206 1.812 . S
P192 C212 1.803 . S
P192 C218 1.819 . S
H193 C207 0.941 . S
H194 C208 0.939 . S
H195 C210 0.940 . S
H196 C211 0.940 . S
H197 C213 0.939 . S
H198 C214 0.942 . S
H199 C216 0.940 . S
H200 C217 0.939 . S
H201 C219 0.941 . S
H202 C223 0.939 . S
O203 P192 1.490 . S
H204 C220 0.939 . S
H205 C222 0.940 . S
C206 P192 1.812 . S
C206 C207 1.389 . S
C206 C211 1.391 . S
C207 H193 0.941 . S
C207 C206 1.389 . S
C207 C208 1.397 . S
C208 H194 0.939 . S
C208 C207 1.397 . S
C208 C209 1.378 . S
C209 C208 1.378 . S
C209 C210 1.378 . S
C210 H195 0.940 . S
C210 C209 1.378 . S
C210 C211 1.396 . S
C211 H196 0.940 . S
C211 C206 1.391 . S
C211 C210 1.396 . S
C212 P192 1.803 . S
C212 C213 1.378 . S
C212 C217 1.400 . S
C213 H197 0.939 . S
C213 C212 1.378 . S
C213 C214 1.361 . S
C214 H198 0.942 . S
C214 C213 1.361 . S
C214 C215 1.369 . S
C215 C214 1.369 . S
C215 C216 1.404 . S
C216 H199 0.940 . S
C216 C215 1.404 . S
C216 C217 1.389 . S
C217 H200 0.939 . S
C217 C212 1.400 . S
C217 C216 1.389 . S
C218 P192 1.819 . S
C218 C219 1.391 . S
C218 C223 1.391 . S
C219 H201 0.941 . S
C219 C218 1.391 . S
C219 C220 1.396 . S
C220 H204 0.939 . S
C220 C219 1.396 . S
C220 C221 1.397 . S
C221 C220 1.397 . S
C221 C222 1.385 . S
C222 H205 0.940 . S
C222 C221 1.385 . S
C222 C223 1.388 . S
C223 H202 0.939 . S
C223 C218 1.391 . S
C223 C222 1.388 . S
P224 O235 1.490 . S
P224 C238 1.812 . S
P224 C244 1.803 . S
P224 C250 1.819 . S
H225 C239 0.941 . S
H226 C240 0.939 . S
H227 C242 0.940 . S
H228 C243 0.940 . S
H229 C245 0.939 . S
H230 C246 0.942 . S
H231 C248 0.940 . S
H232 C249 0.939 . S
H233 C251 0.941 . S
H234 C255 0.939 . S
O235 P224 1.490 . S
H236 C252 0.939 . S
H237 C254 0.940 . S
C238 P224 1.812 . S
C238 C239 1.389 . S
C238 C243 1.391 . S
C239 H225 0.941 . S
C239 C238 1.389 . S
C239 C240 1.397 . S
C240 H226 0.939 . S
C240 C239 1.397 . S
C240 C241 1.378 . S
C241 C240 1.378 . S
C241 C242 1.378 . S
C242 H227 0.940 . S
C242 C241 1.378 . S
C242 C243 1.396 . S
C243 H228 0.940 . S
C243 C238 1.391 . S
C243 C242 1.396 . S
C244 P224 1.803 . S
C244 C245 1.378 . S
C244 C249 1.400 . S
C245 H229 0.939 . S
C245 C244 1.378 . S
C245 C246 1.361 . S
C246 H230 0.942 . S
C246 C245 1.361 . S
C246 C247 1.369 . S
C247 C246 1.369 . S
C247 C248 1.404 . S
C248 H231 0.940 . S
C248 C247 1.404 . S
C248 C249 1.389 . S
C249 H232 0.939 . S
C249 C244 1.400 . S
C249 C248 1.389 . S
C250 P224 1.819 . S
C250 C251 1.391 . S
C250 C255 1.391 . S
C251 H233 0.941 . S
C251 C250 1.391 . S
C251 C252 1.396 . S
C252 H236 0.939 . S
C252 C251 1.396 . S
C252 C253 1.397 . S
C253 C252 1.397 . S
C253 C254 1.385 . S
C254 H237 0.940 . S
C254 C253 1.385 . S
C254 C255 1.388 . S
C255 H234 0.939 . S
C255 C250 1.391 . S
C255 C254 1.388 . S
P256 O267 1.490 . S
P256 C270 1.812 . S
P256 C276 1.803 . S
P256 C282 1.819 . S
H257 C271 0.941 . S
H258 C272 0.939 . S
H259 C274 0.940 . S
H260 C275 0.940 . S
H261 C277 0.939 . S
H262 C278 0.942 . S
H263 C280 0.940 . S
H264 C281 0.939 . S
H265 C283 0.941 . S
H266 C287 0.939 . S
O267 P256 1.490 . S
H268 C284 0.939 . S
H269 C286 0.940 . S
C270 P256 1.812 . S
C270 C271 1.389 . S
C270 C275 1.391 . S
C271 H257 0.941 . S
C271 C270 1.389 . S
C271 C272 1.397 . S
C272 H258 0.939 . S
C272 C271 1.397 . S
C272 C273 1.378 . S
C273 C272 1.378 . S
C273 C274 1.378 . S
C274 H259 0.940 . S
C274 C273 1.378 . S
C274 C275 1.396 . S
C275 H260 0.940 . S
C275 C270 1.391 . S
C275 C274 1.396 . S
C276 P256 1.803 . S
C276 C277 1.378 . S
C276 C281 1.400 . S
C277 H261 0.939 . S
C277 C276 1.378 . S
C277 C278 1.361 . S
C278 H262 0.942 . S
C278 C277 1.361 . S
C278 C279 1.369 . S
C279 C278 1.369 . S
C279 C280 1.404 . S
C280 H263 0.940 . S
C280 C279 1.404 . S
C280 C281 1.389 . S
C281 H264 0.939 . S
C281 C276 1.400 . S
C281 C280 1.389 . S
C282 P256 1.819 . S
C282 C283 1.391 . S
C282 C287 1.391 . S
C283 H265 0.941 . S
C283 C282 1.391 . S
C283 C284 1.396 . S
C284 H268 0.939 . S
C284 C283 1.396 . S
C284 C285 1.397 . S
C285 C284 1.397 . S
C285 C286 1.385 . S
C286 H269 0.940 . S
C286 C285 1.385 . S
C286 C287 1.388 . S
C287 H266 0.939 . S
C287 C282 1.391 . S
C287 C286 1.388 . S
P288 O299 1.490 . S
P288 C302 1.812 . S
P288 C308 1.803 . S
P288 C314 1.819 . S
H289 C303 0.941 . S
H290 C304 0.939 . S
H291 C306 0.940 . S
H292 C307 0.940 . S
H293 C309 0.939 . S
H294 C310 0.942 . S
H295 C312 0.940 . S
H296 C313 0.939 . S
H297 C315 0.941 . S
H298 C319 0.939 . S
O299 P288 1.490 . S
H300 C316 0.939 . S
H301 C318 0.940 . S
C302 P288 1.812 . S
C302 C303 1.389 . S
C302 C307 1.391 . S
C303 H289 0.941 . S
C303 C302 1.389 . S
C303 C304 1.397 . S
C304 H290 0.939 . S
C304 C303 1.397 . S
C304 C305 1.378 . S
C305 C304 1.378 . S
C305 C306 1.378 . S
C306 H291 0.940 . S
C306 C305 1.378 . S
C306 C307 1.396 . S
C307 H292 0.940 . S
C307 C302 1.391 . S
C307 C306 1.396 . S
C308 P288 1.803 . S
C308 C309 1.378 . S
C308 C313 1.400 . S
C309 H293 0.939 . S
C309 C308 1.378 . S
C309 C310 1.361 . S
C310 H294 0.942 . S
C310 C309 1.361 . S
C310 C311 1.369 . S
C311 C310 1.369 . S
C311 C312 1.404 . S
C312 H295 0.940 . S
C312 C311 1.404 . S
C312 C313 1.389 . S
C313 H296 0.939 . S
C313 C308 1.400 . S
C313 C312 1.389 . S
C314 P288 1.819 . S
C314 C315 1.391 . S
C314 C319 1.391 . S
C315 H297 0.941 . S
C315 C314 1.391 . S
C315 C316 1.396 . S
C316 H300 0.939 . S
C316 C315 1.396 . S
C316 C317 1.397 . S
C317 C316 1.397 . S
C317 C318 1.385 . S
C318 H301 0.940 . S
C318 C317 1.385 . S
C318 C319 1.388 . S
C319 H298 0.939 . S
C319 C314 1.391 . S
C319 C318 1.388 . S
P320 O331 1.490 . S
P320 C334 1.812 . S
P320 C340 1.803 . S
P320 C346 1.819 . S
H321 C335 0.941 . S
H322 C336 0.939 . S
H323 C338 0.940 . S
H324 C339 0.940 . S
H325 C341 0.939 . S
H326 C342 0.942 . S
H327 C344 0.940 . S
H328 C345 0.939 . S
H329 C347 0.941 . S
H330 C351 0.939 . S
O331 P320 1.490 . S
H332 C348 0.939 . S
H333 C350 0.940 . S
C334 P320 1.812 . S
C334 C335 1.389 . S
C334 C339 1.391 . S
C335 H321 0.941 . S
C335 C334 1.389 . S
C335 C336 1.397 . S
C336 H322 0.939 . S
C336 C335 1.397 . S
C336 C337 1.378 . S
C337 C336 1.378 . S
C337 C338 1.378 . S
C338 H323 0.940 . S
C338 C337 1.378 . S
C338 C339 1.396 . S
C339 H324 0.940 . S
C339 C334 1.391 . S
C339 C338 1.396 . S
C340 P320 1.803 . S
C340 C341 1.378 . S
C340 C345 1.400 . S
C341 H325 0.939 . S
C341 C340 1.378 . S
C341 C342 1.361 . S
C342 H326 0.942 . S
C342 C341 1.361 . S
C342 C343 1.369 . S
C343 C342 1.369 . S
C343 C344 1.404 . S
C344 H327 0.940 . S
C344 C343 1.404 . S
C344 C345 1.389 . S
C345 H328 0.939 . S
C345 C340 1.400 . S
C345 C344 1.389 . S
C346 P320 1.819 . S
C346 C347 1.391 . S
C346 C351 1.391 . S
C347 H329 0.941 . S
C347 C346 1.391 . S
C347 C348 1.396 . S
C348 H332 0.939 . S
C348 C347 1.396 . S
C348 C349 1.397 . S
C349 C348 1.397 . S
C349 C350 1.385 . S
C350 H333 0.940 . S
C350 C349 1.385 . S
C350 C351 1.388 . S
C351 H330 0.939 . S
C351 C346 1.391 . S
C351 C350 1.388 . S
P352 O363 1.490 . S
P352 C366 1.812 . S
P352 C372 1.803 . S
P352 C378 1.819 . S
H353 C367 0.941 . S
H354 C368 0.939 . S
H355 C370 0.940 . S
H356 C371 0.940 . S
H357 C373 0.939 . S
H358 C374 0.942 . S
H359 C376 0.940 . S
H360 C377 0.939 . S
H361 C379 0.941 . S
H362 C383 0.939 . S
O363 P352 1.490 . S
H364 C380 0.939 . S
H365 C382 0.940 . S
C366 P352 1.812 . S
C366 C367 1.389 . S
C366 C371 1.391 . S
C367 H353 0.941 . S
C367 C366 1.389 . S
C367 C368 1.397 . S
C368 H354 0.939 . S
C368 C367 1.397 . S
C368 C369 1.378 . S
C369 C368 1.378 . S
C369 C370 1.378 . S
C370 H355 0.940 . S
C370 C369 1.378 . S
C370 C371 1.396 . S
C371 H356 0.940 . S
C371 C366 1.391 . S
C371 C370 1.396 . S
C372 P352 1.803 . S
C372 C373 1.378 . S
C372 C377 1.400 . S
C373 H357 0.939 . S
C373 C372 1.378 . S
C373 C374 1.361 . S
C374 H358 0.942 . S
C374 C373 1.361 . S
C374 C375 1.369 . S
C375 C374 1.369 . S
C375 C376 1.404 . S
C376 H359 0.940 . S
C376 C375 1.404 . S
C376 C377 1.389 . S
C377 H360 0.939 . S
C377 C372 1.400 . S
C377 C376 1.389 . S
C378 P352 1.819 . S
C378 C379 1.391 . S
C378 C383 1.391 . S
C379 H361 0.941 . S
C379 C378 1.391 . S
C379 C380 1.396 . S
C380 H364 0.939 . S
C380 C379 1.396 . S
C380 C381 1.397 . S
C381 C380 1.397 . S
C381 C382 1.385 . S
C382 H365 0.940 . S
C382 C381 1.385 . S
C382 C383 1.388 . S
C383 H362 0.939 . S
C383 C378 1.391 . S
C383 C382 1.388 . S
P384 O395 1.490 . S
P384 C398 1.812 . S
P384 C404 1.803 . S
P384 C410 1.819 . S
H385 C399 0.941 . S
H386 C400 0.939 . S
H387 C402 0.940 . S
H388 C403 0.940 . S
H389 C405 0.939 . S
H390 C406 0.942 . S
H391 C408 0.940 . S
H392 C409 0.939 . S
H393 C411 0.941 . S
H394 C415 0.939 . S
O395 P384 1.490 . S
H396 C412 0.939 . S
H397 C414 0.940 . S
C398 P384 1.812 . S
C398 C399 1.389 . S
C398 C403 1.391 . S
C399 H385 0.941 . S
C399 C398 1.389 . S
C399 C400 1.397 . S
C400 H386 0.939 . S
C400 C399 1.397 . S
C400 C401 1.378 . S
C401 C400 1.378 . S
C401 C402 1.378 . S
C402 H387 0.940 . S
C402 C401 1.378 . S
C402 C403 1.396 . S
C403 H388 0.940 . S
C403 C398 1.391 . S
C403 C402 1.396 . S
C404 P384 1.803 . S
C404 C405 1.378 . S
C404 C409 1.400 . S
C405 H389 0.939 . S
C405 C404 1.378 . S
C405 C406 1.361 . S
C406 H390 0.942 . S
C406 C405 1.361 . S
C406 C407 1.369 . S
C407 C406 1.369 . S
C407 C408 1.404 . S
C408 H391 0.940 . S
C408 C407 1.404 . S
C408 C409 1.389 . S
C409 H392 0.939 . S
C409 C404 1.400 . S
C409 C408 1.389 . S
C410 P384 1.819 . S
C410 C411 1.391 . S
C410 C415 1.391 . S
C411 H393 0.941 . S
C411 C410 1.391 . S
C411 C412 1.396 . S
C412 H396 0.939 . S
C412 C411 1.396 . S
C412 C413 1.397 . S
C413 C412 1.397 . S
C413 C414 1.385 . S
C414 H397 0.940 . S
C414 C413 1.385 . S
C414 C415 1.388 . S
C415 H394 0.939 . S
C415 C410 1.391 . S
C415 C414 1.388 . S
P416 O427 1.490 . S
P416 C430 1.812 . S
P416 C436 1.803 . S
P416 C442 1.819 . S
H417 C431 0.941 . S
H418 C432 0.939 . S
H419 C434 0.940 . S
H420 C435 0.940 . S
H421 C437 0.939 . S
H422 C438 0.942 . S
H423 C440 0.940 . S
H424 C441 0.939 . S
H425 C443 0.941 . S
H426 C447 0.939 . S
O427 P416 1.490 . S
H428 C444 0.939 . S
H429 C446 0.940 . S
C430 P416 1.812 . S
C430 C431 1.389 . S
C430 C435 1.391 . S
C431 H417 0.941 . S
C431 C430 1.389 . S
C431 C432 1.397 . S
C432 H418 0.939 . S
C432 C431 1.397 . S
C432 C433 1.378 . S
C433 C432 1.378 . S
C433 C434 1.378 . S
C434 H419 0.940 . S
C434 C433 1.378 . S
C434 C435 1.396 . S
C435 H420 0.940 . S
C435 C430 1.391 . S
C435 C434 1.396 . S
C436 P416 1.803 . S
C436 C437 1.378 . S
C436 C441 1.400 . S
C437 H421 0.939 . S
C437 C436 1.378 . S
C437 C438 1.361 . S
C438 H422 0.942 . S
C438 C437 1.361 . S
C438 C439 1.369 . S
C439 C438 1.369 . S
C439 C440 1.404 . S
C440 H423 0.940 . S
C440 C439 1.404 . S
C440 C441 1.389 . S
C441 H424 0.939 . S
C441 C436 1.400 . S
C441 C440 1.389 . S
C442 P416 1.819 . S
C442 C443 1.391 . S
C442 C447 1.391 . S
C443 H425 0.941 . S
C443 C442 1.391 . S
C443 C444 1.396 . S
C444 H428 0.939 . S
C444 C443 1.396 . S
C444 C445 1.397 . S
C445 C444 1.397 . S
C445 C446 1.385 . S
C446 H429 0.940 . S
C446 C445 1.385 . S
C446 C447 1.388 . S
C447 H426 0.939 . S
C447 C442 1.391 . S
C447 C446 1.388 . S
P448 O459 1.490 . S
P448 C462 1.812 . S
P448 C468 1.803 . S
P448 C474 1.819 . S
H449 C463 0.941 . S
H450 C464 0.939 . S
H451 C466 0.940 . S
H452 C467 0.940 . S
H453 C469 0.939 . S
H454 C470 0.942 . S
H455 C472 0.940 . S
H456 C473 0.939 . S
H457 C475 0.941 . S
H458 C479 0.939 . S
O459 P448 1.490 . S
H460 C476 0.939 . S
H461 C478 0.940 . S
C462 P448 1.812 . S
C462 C463 1.389 . S
C462 C467 1.391 . S
C463 H449 0.941 . S
C463 C462 1.389 . S
C463 C464 1.397 . S
C464 H450 0.939 . S
C464 C463 1.397 . S
C464 C465 1.378 . S
C465 C464 1.378 . S
C465 C466 1.378 . S
C466 H451 0.940 . S
C466 C465 1.378 . S
C466 C467 1.396 . S
C467 H452 0.940 . S
C467 C462 1.391 . S
C467 C466 1.396 . S
C468 P448 1.803 . S
C468 C469 1.378 . S
C468 C473 1.400 . S
C469 H453 0.939 . S
C469 C468 1.378 . S
C469 C470 1.361 . S
C470 H454 0.942 . S
C470 C469 1.361 . S
C470 C471 1.369 . S
C471 C470 1.369 . S
C471 C472 1.404 . S
C472 H455 0.940 . S
C472 C471 1.404 . S
C472 C473 1.389 . S
C473 H456 0.939 . S
C473 C468 1.400 . S
C473 C472 1.389 . S
C474 P448 1.819 . S
C474 C475 1.391 . S
C474 C479 1.391 . S
C475 H457 0.941 . S
C475 C474 1.391 . S
C475 C476 1.396 . S
C476 H460 0.939 . S
C476 C475 1.396 . S
C476 C477 1.397 . S
C477 C476 1.397 . S
C477 C478 1.385 . S
C478 H461 0.940 . S
C478 C477 1.385 . S
C478 C479 1.388 . S
C479 H458 0.939 . S
C479 C474 1.391 . S
C479 C478 1.388 . S
P480 O491 1.490 . S
P480 C494 1.812 . S
P480 C500 1.803 . S
P480 C506 1.819 . S
H481 C495 0.941 . S
H482 C496 0.939 . S
H483 C498 0.940 . S
H484 C499 0.940 . S
H485 C501 0.939 . S
H486 C502 0.942 . S
H487 C504 0.940 . S
H488 C505 0.939 . S
H489 C507 0.941 . S
H490 C511 0.939 . S
O491 P480 1.490 . S
H492 C508 0.939 . S
H493 C510 0.940 . S
C494 P480 1.812 . S
C494 C495 1.389 . S
C494 C499 1.391 . S
C495 H481 0.941 . S
C495 C494 1.389 . S
C495 C496 1.397 . S
C496 H482 0.939 . S
C496 C495 1.397 . S
C496 C497 1.378 . S
C497 C496 1.378 . S
C497 C498 1.378 . S
C498 H483 0.940 . S
C498 C497 1.378 . S
C498 C499 1.396 . S
C499 H484 0.940 . S
C499 C494 1.391 . S
C499 C498 1.396 . S
C500 P480 1.803 . S
C500 C501 1.378 . S
C500 C505 1.400 . S
C501 H485 0.939 . S
C501 C500 1.378 . S
C501 C502 1.361 . S
C502 H486 0.942 . S
C502 C501 1.361 . S
C502 C503 1.369 . S
C503 C502 1.369 . S
C503 C504 1.404 . S
C504 H487 0.940 . S
C504 C503 1.404 . S
C504 C505 1.389 . S
C505 H488 0.939 . S
C505 C500 1.400 . S
C505 C504 1.389 . S
C506 P480 1.819 . S
C506 C507 1.391 . S
C506 C511 1.391 . S
C507 H489 0.941 . S
C507 C506 1.391 . S
C507 C508 1.396 . S
C508 H492 0.939 . S
C508 C507 1.396 . S
C508 C509 1.397 . S
C509 C508 1.397 . S
C509 C510 1.385 . S
C510 H493 0.940 . S
C510 C509 1.385 . S
C510 C511 1.388 . S
C511 H490 0.939 . S
C511 C506 1.391 . S
C511 C510 1.388 . S
P512 O523 1.490 . S
P512 C526 1.812 . S
P512 C532 1.803 . S
P512 C538 1.819 . S
H513 C527 0.941 . S
H514 C528 0.939 . S
H515 C530 0.940 . S
H516 C531 0.940 . S
H517 C533 0.939 . S
H518 C534 0.942 . S
H519 C536 0.940 . S
H520 C537 0.939 . S
H521 C539 0.941 . S
H522 C543 0.939 . S
O523 P512 1.490 . S
H524 C540 0.939 . S
H525 C542 0.940 . S
C526 P512 1.812 . S
C526 C527 1.389 . S
C526 C531 1.391 . S
C527 H513 0.941 . S
C527 C526 1.389 . S
C527 C528 1.397 . S
C528 H514 0.939 . S
C528 C527 1.397 . S
C528 C529 1.378 . S
C529 C528 1.378 . S
C529 C530 1.378 . S
C530 H515 0.940 . S
C530 C529 1.378 . S
C530 C531 1.396 . S
C531 H516 0.940 . S
C531 C526 1.391 . S
C531 C530 1.396 . S
C532 P512 1.803 . S
C532 C533 1.378 . S
C532 C537 1.400 . S
C533 H517 0.939 . S
C533 C532 1.378 . S
C533 C534 1.361 . S
C534 H518 0.942 . S
C534 C533 1.361 . S
C534 C535 1.369 . S
C535 C534 1.369 . S
C535 C536 1.404 . S
C536 H519 0.940 . S
C536 C535 1.404 . S
C536 C537 1.389 . S
C537 H520 0.939 . S
C537 C532 1.400 . S
C537 C536 1.389 . S
C538 P512 1.819 . S
C538 C539 1.391 . S
C538 C543 1.391 . S
C539 H521 0.941 . S
C539 C538 1.391 . S
C539 C540 1.396 . S
C540 H524 0.939 . S
C540 C539 1.396 . S
C540 C541 1.397 . S
C541 C540 1.397 . S
C541 C542 1.385 . S
C542 H525 0.940 . S
C542 C541 1.385 . S
C542 C543 1.388 . S
C543 H522 0.939 . S
C543 C538 1.391 . S
C543 C542 1.388 . S
P544 O555 1.490 . S
P544 C558 1.812 . S
P544 C564 1.803 . S
P544 C570 1.819 . S
H545 C559 0.941 . S
H546 C560 0.939 . S
H547 C562 0.940 . S
H548 C563 0.940 . S
H549 C565 0.939 . S
H550 C566 0.942 . S
H551 C568 0.940 . S
H552 C569 0.939 . S
H553 C571 0.941 . S
H554 C575 0.939 . S
O555 P544 1.490 . S
H556 C572 0.939 . S
H557 C574 0.940 . S
C558 P544 1.812 . S
C558 C559 1.389 . S
C558 C563 1.391 . S
C559 H545 0.941 . S
C559 C558 1.389 . S
C559 C560 1.397 . S
C560 H546 0.939 . S
C560 C559 1.397 . S
C560 C561 1.378 . S
C561 C560 1.378 . S
C561 C562 1.378 . S
C562 H547 0.940 . S
C562 C561 1.378 . S
C562 C563 1.396 . S
C563 H548 0.940 . S
C563 C558 1.391 . S
C563 C562 1.396 . S
C564 P544 1.803 . S
C564 C565 1.378 . S
C564 C569 1.400 . S
C565 H549 0.939 . S
C565 C564 1.378 . S
C565 C566 1.361 . S
C566 H550 0.942 . S
C566 C565 1.361 . S
C566 C567 1.369 . S
C567 C566 1.369 . S
C567 C568 1.404 . S
C568 H551 0.940 . S
C568 C567 1.404 . S
C568 C569 1.389 . S
C569 H552 0.939 . S
C569 C564 1.400 . S
C569 C568 1.389 . S
C570 P544 1.819 . S
C570 C571 1.391 . S
C570 C575 1.391 . S
C571 H553 0.941 . S
C571 C570 1.391 . S
C571 C572 1.396 . S
C572 H556 0.939 . S
C572 C571 1.396 . S
C572 C573 1.397 . S
C573 C572 1.397 . S
C573 C574 1.385 . S
C574 H557 0.940 . S
C574 C573 1.385 . S
C574 C575 1.388 . S
C575 H554 0.939 . S
C575 C570 1.391 . S
C575 C574 1.388 . S
P576 O587 1.490 . S
P576 C590 1.812 . S
P576 C596 1.803 . S
P576 C602 1.819 . S
H577 C591 0.941 . S
H578 C592 0.939 . S
H579 C594 0.940 . S
H580 C595 0.940 . S
H581 C597 0.939 . S
H582 C598 0.942 . S
H583 C600 0.940 . S
H584 C601 0.939 . S
H585 C603 0.941 . S
H586 C607 0.939 . S
O587 P576 1.490 . S
H588 C604 0.939 . S
H589 C606 0.940 . S
C590 P576 1.812 . S
C590 C591 1.389 . S
C590 C595 1.391 . S
C591 H577 0.941 . S
C591 C590 1.389 . S
C591 C592 1.397 . S
C592 H578 0.939 . S
C592 C591 1.397 . S
C592 C593 1.378 . S
C593 C592 1.378 . S
C593 C594 1.378 . S
C594 H579 0.940 . S
C594 C593 1.378 . S
C594 C595 1.396 . S
C595 H580 0.940 . S
C595 C590 1.391 . S
C595 C594 1.396 . S
C596 P576 1.803 . S
C596 C597 1.378 . S
C596 C601 1.400 . S
C597 H581 0.939 . S
C597 C596 1.378 . S
C597 C598 1.361 . S
C598 H582 0.942 . S
C598 C597 1.361 . S
C598 C599 1.369 . S
C599 C598 1.369 . S
C599 C600 1.404 . S
C600 H583 0.940 . S
C600 C599 1.404 . S
C600 C601 1.389 . S
C601 H584 0.939 . S
C601 C596 1.400 . S
C601 C600 1.389 . S
C602 P576 1.819 . S
C602 C603 1.391 . S
C602 C607 1.391 . S
C603 H585 0.941 . S
C603 C602 1.391 . S
C603 C604 1.396 . S
C604 H588 0.939 . S
C604 C603 1.396 . S
C604 C605 1.397 . S
C605 C604 1.397 . S
C605 C606 1.385 . S
C606 H589 0.940 . S
C606 C605 1.385 . S
C606 C607 1.388 . S
C607 H586 0.939 . S
C607 C602 1.391 . S
C607 C606 1.388 . S
P608 O619 1.490 . S
P608 C622 1.812 . S
P608 C628 1.803 . S
P608 C634 1.819 . S
H609 C623 0.941 . S
H610 C624 0.939 . S
H611 C626 0.940 . S
H612 C627 0.940 . S
H613 C629 0.939 . S
H614 C630 0.942 . S
H615 C632 0.940 . S
H616 C633 0.939 . S
H617 C635 0.941 . S
H618 C639 0.939 . S
O619 P608 1.490 . S
H620 C636 0.939 . S
H621 C638 0.940 . S
C622 P608 1.812 . S
C622 C623 1.389 . S
C622 C627 1.391 . S
C623 H609 0.941 . S
C623 C622 1.389 . S
C623 C624 1.397 . S
C624 H610 0.939 . S
C624 C623 1.397 . S
C624 C625 1.378 . S
C625 C624 1.378 . S
C625 C626 1.378 . S
C626 H611 0.940 . S
C626 C625 1.378 . S
C626 C627 1.396 . S
C627 H612 0.940 . S
C627 C622 1.391 . S
C627 C626 1.396 . S
C628 P608 1.803 . S
C628 C629 1.378 . S
C628 C633 1.400 . S
C629 H613 0.939 . S
C629 C628 1.378 . S
C629 C630 1.361 . S
C630 H614 0.942 . S
C630 C629 1.361 . S
C630 C631 1.369 . S
C631 C630 1.369 . S
C631 C632 1.404 . S
C632 H615 0.940 . S
C632 C631 1.404 . S
C632 C633 1.389 . S
C633 H616 0.939 . S
C633 C628 1.400 . S
C633 C632 1.389 . S
C634 P608 1.819 . S
C634 C635 1.391 . S
C634 C639 1.391 . S
C635 H617 0.941 . S
C635 C634 1.391 . S
C635 C636 1.396 . S
C636 H620 0.939 . S
C636 C635 1.396 . S
C636 C637 1.397 . S
C637 C636 1.397 . S
C637 C638 1.385 . S
C638 H621 0.940 . S
C638 C637 1.385 . S
C638 C639 1.388 . S
C639 H618 0.939 . S
C639 C634 1.391 . S
C639 C638 1.388 . S
P640 O651 1.490 . S
P640 C654 1.812 . S
P640 C660 1.803 . S
P640 C666 1.819 . S
H641 C655 0.941 . S
H642 C656 0.939 . S
H643 C658 0.940 . S
H644 C659 0.940 . S
H645 C661 0.939 . S
H646 C662 0.942 . S
H647 C664 0.940 . S
H648 C665 0.939 . S
H649 C667 0.941 . S
H650 C671 0.939 . S
O651 P640 1.490 . S
H652 C668 0.939 . S
H653 C670 0.940 . S
C654 P640 1.812 . S
C654 C655 1.389 . S
C654 C659 1.391 . S
C655 H641 0.941 . S
C655 C654 1.389 . S
C655 C656 1.397 . S
C656 H642 0.939 . S
C656 C655 1.397 . S
C656 C657 1.378 . S
C657 C656 1.378 . S
C657 C658 1.378 . S
C658 H643 0.940 . S
C658 C657 1.378 . S
C658 C659 1.396 . S
C659 H644 0.940 . S
C659 C654 1.391 . S
C659 C658 1.396 . S
C660 P640 1.803 . S
C660 C661 1.378 . S
C660 C665 1.400 . S
C661 H645 0.939 . S
C661 C660 1.378 . S
C661 C662 1.361 . S
C662 H646 0.942 . S
C662 C661 1.361 . S
C662 C663 1.369 . S
C663 C662 1.369 . S
C663 C664 1.404 . S
C664 H647 0.940 . S
C664 C663 1.404 . S
C664 C665 1.389 . S
C665 H648 0.939 . S
C665 C660 1.400 . S
C665 C664 1.389 . S
C666 P640 1.819 . S
C666 C667 1.391 . S
C666 C671 1.391 . S
C667 H649 0.941 . S
C667 C666 1.391 . S
C667 C668 1.396 . S
C668 H652 0.939 . S
C668 C667 1.396 . S
C668 C669 1.397 . S
C669 C668 1.397 . S
C669 C670 1.385 . S
C670 H653 0.940 . S
C670 C669 1.385 . S
C670 C671 1.388 . S
C671 H650 0.939 . S
C671 C666 1.391 . S
C671 C670 1.388 . S
P672 O683 1.490 . S
P672 C686 1.812 . S
P672 C692 1.803 . S
P672 C698 1.819 . S
H673 C687 0.941 . S
H674 C688 0.939 . S
H675 C690 0.940 . S
H676 C691 0.940 . S
H677 C693 0.939 . S
H678 C694 0.942 . S
H679 C696 0.940 . S
H680 C697 0.939 . S
H681 C699 0.941 . S
H682 C703 0.939 . S
O683 P672 1.490 . S
H684 C700 0.939 . S
H685 C702 0.940 . S
C686 P672 1.812 . S
C686 C687 1.389 . S
C686 C691 1.391 . S
C687 H673 0.941 . S
C687 C686 1.389 . S
C687 C688 1.397 . S
C688 H674 0.939 . S
C688 C687 1.397 . S
C688 C689 1.378 . S
C689 C688 1.378 . S
C689 C690 1.378 . S
C690 H675 0.940 . S
C690 C689 1.378 . S
C690 C691 1.396 . S
C691 H676 0.940 . S
C691 C686 1.391 . S
C691 C690 1.396 . S
C692 P672 1.803 . S
C692 C693 1.378 . S
C692 C697 1.400 . S
C693 H677 0.939 . S
C693 C692 1.378 . S
C693 C694 1.361 . S
C694 H678 0.942 . S
C694 C693 1.361 . S
C694 C695 1.369 . S
C695 C694 1.369 . S
C695 C696 1.404 . S
C696 H679 0.940 . S
C696 C695 1.404 . S
C696 C697 1.389 . S
C697 H680 0.939 . S
C697 C692 1.400 . S
C697 C696 1.389 . S
C698 P672 1.819 . S
C698 C699 1.391 . S
C698 C703 1.391 . S
C699 H681 0.941 . S
C699 C698 1.391 . S
C699 C700 1.396 . S
C700 H684 0.939 . S
C700 C699 1.396 . S
C700 C701 1.397 . S
C701 C700 1.397 . S
C701 C702 1.385 . S
C702 H685 0.940 . S
C702 C701 1.385 . S
C702 C703 1.388 . S
C703 H682 0.939 . S
C703 C698 1.391 . S
C703 C702 1.388 . S
P704 O715 1.490 . S
P704 C718 1.812 . S
P704 C724 1.803 . S
P704 C730 1.819 . S
H705 C719 0.941 . S
H706 C720 0.939 . S
H707 C722 0.940 . S
H708 C723 0.940 . S
H709 C725 0.939 . S
H710 C726 0.942 . S
H711 C728 0.940 . S
H712 C729 0.939 . S
H713 C731 0.941 . S
H714 C735 0.939 . S
O715 P704 1.490 . S
H716 C732 0.939 . S
H717 C734 0.940 . S
C718 P704 1.812 . S
C718 C719 1.389 . S
C718 C723 1.391 . S
C719 H705 0.941 . S
C719 C718 1.389 . S
C719 C720 1.397 . S
C720 H706 0.939 . S
C720 C719 1.397 . S
C720 C721 1.378 . S
C721 C720 1.378 . S
C721 C722 1.378 . S
C722 H707 0.940 . S
C722 C721 1.378 . S
C722 C723 1.396 . S
C723 H708 0.940 . S
C723 C718 1.391 . S
C723 C722 1.396 . S
C724 P704 1.803 . S
C724 C725 1.378 . S
C724 C729 1.400 . S
C725 H709 0.939 . S
C725 C724 1.378 . S
C725 C726 1.361 . S
C726 H710 0.942 . S
C726 C725 1.361 . S
C726 C727 1.369 . S
C727 C726 1.369 . S
C727 C728 1.404 . S
C728 H711 0.940 . S
C728 C727 1.404 . S
C728 C729 1.389 . S
C729 H712 0.939 . S
C729 C724 1.400 . S
C729 C728 1.389 . S
C730 P704 1.819 . S
C730 C731 1.391 . S
C730 C735 1.391 . S
C731 H713 0.941 . S
C731 C730 1.391 . S
C731 C732 1.396 . S
C732 H716 0.939 . S
C732 C731 1.396 . S
C732 C733 1.397 . S
C733 C732 1.397 . S
C733 C734 1.385 . S
C734 H717 0.940 . S
C734 C733 1.385 . S
C734 C735 1.388 . S
C735 H714 0.939 . S
C735 C730 1.391 . S
C735 C734 1.388 . S
P736 O747 1.490 . S
P736 C750 1.812 . S
P736 C756 1.803 . S
P736 C762 1.819 . S
H737 C751 0.941 . S
H738 C752 0.939 . S
H739 C754 0.940 . S
H740 C755 0.940 . S
H741 C757 0.939 . S
H742 C758 0.942 . S
H743 C760 0.940 . S
H744 C761 0.939 . S
H745 C763 0.941 . S
H746 C767 0.939 . S
O747 P736 1.490 . S
H748 C764 0.939 . S
H749 C766 0.940 . S
C750 P736 1.812 . S
C750 C751 1.389 . S
C750 C755 1.391 . S
C751 H737 0.941 . S
C751 C750 1.389 . S
C751 C752 1.397 . S
C752 H738 0.939 . S
C752 C751 1.397 . S
C752 C753 1.378 . S
C753 C752 1.378 . S
C753 C754 1.378 . S
C754 H739 0.940 . S
C754 C753 1.378 . S
C754 C755 1.396 . S
C755 H740 0.940 . S
C755 C750 1.391 . S
C755 C754 1.396 . S
C756 P736 1.803 . S
C756 C757 1.378 . S
C756 C761 1.400 . S
C757 H741 0.939 . S
C757 C756 1.378 . S
C757 C758 1.361 . S
C758 H742 0.942 . S
C758 C757 1.361 . S
C758 C759 1.369 . S
C759 C758 1.369 . S
C759 C760 1.404 . S
C760 H743 0.940 . S
C760 C759 1.404 . S
C760 C761 1.389 . S
C761 H744 0.939 . S
C761 C756 1.400 . S
C761 C760 1.389 . S
C762 P736 1.819 . S
C762 C763 1.391 . S
C762 C767 1.391 . S
C763 H745 0.941 . S
C763 C762 1.391 . S
C763 C764 1.396 . S
C764 H748 0.939 . S
C764 C763 1.396 . S
C764 C765 1.397 . S
C765 C764 1.397 . S
C765 C766 1.385 . S
C766 H749 0.940 . S
C766 C765 1.385 . S
C766 C767 1.388 . S
C767 H746 0.939 . S
C767 C762 1.391 . S
C767 C766 1.388 . S
P768 O779 1.490 . S
P768 C782 1.812 . S
P768 C788 1.803 . S
P768 C794 1.819 . S
H769 C783 0.941 . S
H770 C784 0.939 . S
H771 C786 0.940 . S
H772 C787 0.940 . S
H773 C789 0.939 . S
H774 C790 0.942 . S
H775 C792 0.940 . S
H776 C793 0.939 . S
H777 C795 0.941 . S
H778 C799 0.939 . S
O779 P768 1.490 . S
H780 C796 0.939 . S
H781 C798 0.940 . S
C782 P768 1.812 . S
C782 C783 1.389 . S
C782 C787 1.391 . S
C783 H769 0.941 . S
C783 C782 1.389 . S
C783 C784 1.397 . S
C784 H770 0.939 . S
C784 C783 1.397 . S
C784 C785 1.378 . S
C785 C784 1.378 . S
C785 C786 1.378 . S
C786 H771 0.940 . S
C786 C785 1.378 . S
C786 C787 1.396 . S
C787 H772 0.940 . S
C787 C782 1.391 . S
C787 C786 1.396 . S
C788 P768 1.803 . S
C788 C789 1.378 . S
C788 C793 1.400 . S
C789 H773 0.939 . S
C789 C788 1.378 . S
C789 C790 1.361 . S
C790 H774 0.942 . S
C790 C789 1.361 . S
C790 C791 1.369 . S
C791 C790 1.369 . S
C791 C792 1.404 . S
C792 H775 0.940 . S
C792 C791 1.404 . S
C792 C793 1.389 . S
C793 H776 0.939 . S
C793 C788 1.400 . S
C793 C792 1.389 . S
C794 P768 1.819 . S
C794 C795 1.391 . S
C794 C799 1.391 . S
C795 H777 0.941 . S
C795 C794 1.391 . S
C795 C796 1.396 . S
C796 H780 0.939 . S
C796 C795 1.396 . S
C796 C797 1.397 . S
C797 C796 1.397 . S
C797 C798 1.385 . S
C798 H781 0.940 . S
C798 C797 1.385 . S
C798 C799 1.388 . S
C799 H778 0.939 . S
C799 C794 1.391 . S
C799 C798 1.388 . S
P800 O811 1.490 . S
P800 C814 1.812 . S
P800 C820 1.803 . S
P800 C826 1.819 . S
H801 C815 0.941 . S
H802 C816 0.939 . S
H803 C818 0.940 . S
H804 C819 0.940 . S
H805 C821 0.939 . S
H806 C822 0.942 . S
H807 C824 0.940 . S
H808 C825 0.939 . S
H809 C827 0.941 . S
H810 C831 0.939 . S
O811 P800 1.490 . S
H812 C828 0.939 . S
H813 C830 0.940 . S
C814 P800 1.812 . S
C814 C815 1.389 . S
C814 C819 1.391 . S
C815 H801 0.941 . S
C815 C814 1.389 . S
C815 C816 1.397 . S
C816 H802 0.939 . S
C816 C815 1.397 . S
C816 C817 1.378 . S
C817 C816 1.378 . S
C817 C818 1.378 . S
C818 H803 0.940 . S
C818 C817 1.378 . S
C818 C819 1.396 . S
C819 H804 0.940 . S
C819 C814 1.391 . S
C819 C818 1.396 . S
C820 P800 1.803 . S
C820 C821 1.378 . S
C820 C825 1.400 . S
C821 H805 0.939 . S
C821 C820 1.378 . S
C821 C822 1.361 . S
C822 H806 0.942 . S
C822 C821 1.361 . S
C822 C823 1.369 . S
C823 C822 1.369 . S
C823 C824 1.404 . S
C824 H807 0.940 . S
C824 C823 1.404 . S
C824 C825 1.389 . S
C825 H808 0.939 . S
C825 C820 1.400 . S
C825 C824 1.389 . S
C826 P800 1.819 . S
C826 C827 1.391 . S
C826 C831 1.391 . S
C827 H809 0.941 . S
C827 C826 1.391 . S
C827 C828 1.396 . S
C828 H812 0.939 . S
C828 C827 1.396 . S
C828 C829 1.397 . S
C829 C828 1.397 . S
C829 C830 1.385 . S
C830 H813 0.940 . S
C830 C829 1.385 . S
C830 C831 1.388 . S
C831 H810 0.939 . S
C831 C826 1.391 . S
C831 C830 1.388 . S
P832 O843 1.490 . S
P832 C846 1.812 . S
P832 C852 1.803 . S
P832 C858 1.819 . S
H833 C847 0.941 . S
H834 C848 0.939 . S
H835 C850 0.940 . S
H836 C851 0.940 . S
H837 C853 0.939 . S
H838 C854 0.942 . S
H839 C856 0.940 . S
H840 C857 0.939 . S
H841 C859 0.941 . S
H842 C863 0.939 . S
O843 P832 1.490 . S
H844 C860 0.939 . S
H845 C862 0.940 . S
C846 P832 1.812 . S
C846 C847 1.389 . S
C846 C851 1.391 . S
C847 H833 0.941 . S
C847 C846 1.389 . S
C847 C848 1.397 . S
C848 H834 0.939 . S
C848 C847 1.397 . S
C848 C849 1.378 . S
C849 C848 1.378 . S
C849 C850 1.378 . S
C850 H835 0.940 . S
C850 C849 1.378 . S
C850 C851 1.396 . S
C851 H836 0.940 . S
C851 C846 1.391 . S
C851 C850 1.396 . S
C852 P832 1.803 . S
C852 C853 1.378 . S
C852 C857 1.400 . S
C853 H837 0.939 . S
C853 C852 1.378 . S
C853 C854 1.361 . S
C854 H838 0.942 . S
C854 C853 1.361 . S
C854 C855 1.369 . S
C855 C854 1.369 . S
C855 C856 1.404 . S
C856 H839 0.940 . S
C856 C855 1.404 . S
C856 C857 1.389 . S
C857 H840 0.939 . S
C857 C852 1.400 . S
C857 C856 1.389 . S
C858 P832 1.819 . S
C858 C859 1.391 . S
C858 C863 1.391 . S
C859 H841 0.941 . S
C859 C858 1.391 . S
C859 C860 1.396 . S
C860 H844 0.939 . S
C860 C859 1.396 . S
C860 C861 1.397 . S
C861 C860 1.397 . S
C861 C862 1.385 . S
C862 H845 0.940 . S
C862 C861 1.385 . S
C862 C863 1.388 . S
C863 H842 0.939 . S
C863 C858 1.391 . S
C863 C862 1.388 . S
P864 O875 1.490 . S
P864 C878 1.812 . S
P864 C884 1.803 . S
P864 C890 1.819 . S
H865 C879 0.941 . S
H866 C880 0.939 . S
H867 C882 0.940 . S
H868 C883 0.940 . S
H869 C885 0.939 . S
H870 C886 0.942 . S
H871 C888 0.940 . S
H872 C889 0.939 . S
H873 C891 0.941 . S
H874 C895 0.939 . S
O875 P864 1.490 . S
H876 C892 0.939 . S
H877 C894 0.940 . S
C878 P864 1.812 . S
C878 C879 1.389 . S
C878 C883 1.391 . S
C879 H865 0.941 . S
C879 C878 1.389 . S
C879 C880 1.397 . S
C880 H866 0.939 . S
C880 C879 1.397 . S
C880 C881 1.378 . S
C881 C880 1.378 . S
C881 C882 1.378 . S
C882 H867 0.940 . S
C882 C881 1.378 . S
C882 C883 1.396 . S
C883 H868 0.940 . S
C883 C878 1.391 . S
C883 C882 1.396 . S
C884 P864 1.803 . S
C884 C885 1.378 . S
C884 C889 1.400 . S
C885 H869 0.939 . S
C885 C884 1.378 . S
C885 C886 1.361 . S
C886 H870 0.942 . S
C886 C885 1.361 . S
C886 C887 1.369 . S
C887 C886 1.369 . S
C887 C888 1.404 . S
C888 H871 0.940 . S
C888 C887 1.404 . S
C888 C889 1.389 . S
C889 H872 0.939 . S
C889 C884 1.400 . S
C889 C888 1.389 . S
C890 P864 1.819 . S
C890 C891 1.391 . S
C890 C895 1.391 . S
C891 H873 0.941 . S
C891 C890 1.391 . S
C891 C892 1.396 . S
C892 H876 0.939 . S
C892 C891 1.396 . S
C892 C893 1.397 . S
C893 C892 1.397 . S
C893 C894 1.385 . S
C894 H877 0.940 . S
C894 C893 1.385 . S
C894 C895 1.388 . S
C895 H874 0.939 . S
C895 C890 1.391 . S
C895 C894 1.388 . S
P896 O907 1.490 . S
P896 C910 1.812 . S
P896 C916 1.803 . S
P896 C922 1.819 . S
H897 C911 0.941 . S
H898 C912 0.939 . S
H899 C914 0.940 . S
H900 C915 0.940 . S
H901 C917 0.939 . S
H902 C918 0.942 . S
H903 C920 0.940 . S
H904 C921 0.939 . S
H905 C923 0.941 . S
H906 C927 0.939 . S
O907 P896 1.490 . S
H908 C924 0.939 . S
H909 C926 0.940 . S
C910 P896 1.812 . S
C910 C911 1.389 . S
C910 C915 1.391 . S
C911 H897 0.941 . S
C911 C910 1.389 . S
C911 C912 1.397 . S
C912 H898 0.939 . S
C912 C911 1.397 . S
C912 C913 1.378 . S
C913 C912 1.378 . S
C913 C914 1.378 . S
C914 H899 0.940 . S
C914 C913 1.378 . S
C914 C915 1.396 . S
C915 H900 0.940 . S
C915 C910 1.391 . S
C915 C914 1.396 . S
C916 P896 1.803 . S
C916 C917 1.378 . S
C916 C921 1.400 . S
C917 H901 0.939 . S
C917 C916 1.378 . S
C917 C918 1.361 . S
C918 H902 0.942 . S
C918 C917 1.361 . S
C918 C919 1.369 . S
C919 C918 1.369 . S
C919 C920 1.404 . S
C920 H903 0.940 . S
C920 C919 1.404 . S
C920 C921 1.389 . S
C921 H904 0.939 . S
C921 C916 1.400 . S
C921 C920 1.389 . S
C922 P896 1.819 . S
C922 C923 1.391 . S
C922 C927 1.391 . S
C923 H905 0.941 . S
C923 C922 1.391 . S
C923 C924 1.396 . S
C924 H908 0.939 . S
C924 C923 1.396 . S
C924 C925 1.397 . S
C925 C924 1.397 . S
C925 C926 1.385 . S
C926 H909 0.940 . S
C926 C925 1.385 . S
C926 C927 1.388 . S
C927 H906 0.939 . S
C927 C922 1.391 . S
C927 C926 1.388 . S
P928 O939 1.490 . S
P928 C942 1.812 . S
P928 C948 1.803 . S
P928 C954 1.819 . S
H929 C943 0.941 . S
H930 C944 0.939 . S
H931 C946 0.940 . S
H932 C947 0.940 . S
H933 C949 0.939 . S
H934 C950 0.942 . S
H935 C952 0.940 . S
H936 C953 0.939 . S
H937 C955 0.941 . S
H938 C959 0.939 . S
O939 P928 1.490 . S
H940 C956 0.939 . S
H941 C958 0.940 . S
C942 P928 1.812 . S
C942 C943 1.389 . S
C942 C947 1.391 . S
C943 H929 0.941 . S
C943 C942 1.389 . S
C943 C944 1.397 . S
C944 H930 0.939 . S
C944 C943 1.397 . S
C944 C945 1.378 . S
C945 C944 1.378 . S
C945 C946 1.378 . S
C946 H931 0.940 . S
C946 C945 1.378 . S
C946 C947 1.396 . S
C947 H932 0.940 . S
C947 C942 1.391 . S
C947 C946 1.396 . S
C948 P928 1.803 . S
C948 C949 1.378 . S
C948 C953 1.400 . S
C949 H933 0.939 . S
C949 C948 1.378 . S
C949 C950 1.361 . S
C950 H934 0.942 . S
C950 C949 1.361 . S
C950 C951 1.369 . S
C951 C950 1.369 . S
C951 C952 1.404 . S
C952 H935 0.940 . S
C952 C951 1.404 . S
C952 C953 1.389 . S
C953 H936 0.939 . S
C953 C948 1.400 . S
C953 C952 1.389 . S
C954 P928 1.819 . S
C954 C955 1.391 . S
C954 C959 1.391 . S
C955 H937 0.941 . S
C955 C954 1.391 . S
C955 C956 1.396 . S
C956 H940 0.939 . S
C956 C955 1.396 . S
C956 C957 1.397 . S
C957 C956 1.397 . S
C957 C958 1.385 . S
C958 H941 0.940 . S
C958 C957 1.385 . S
C958 C959 1.388 . S
C959 H938 0.939 . S
C959 C954 1.391 . S
C959 C958 1.388 . S
P960 O971 1.490 . S
P960 C974 1.812 . S
P960 C980 1.803 . S
P960 C986 1.819 . S
H961 C975 0.941 . S
H962 C976 0.939 . S
H963 C978 0.940 . S
H964 C979 0.940 . S
H965 C981 0.939 . S
H966 C982 0.942 . S
H967 C984 0.940 . S
H968 C985 0.939 . S
H969 C987 0.941 . S
H970 C991 0.939 . S
O971 P960 1.490 . S
H972 C988 0.939 . S
H973 C990 0.940 . S
C974 P960 1.812 . S
C974 C975 1.389 . S
C974 C979 1.391 . S
C975 H961 0.941 . S
C975 C974 1.389 . S
C975 C976 1.397 . S
C976 H962 0.939 . S
C976 C975 1.397 . S
C976 C977 1.378 . S
C977 C976 1.378 . S
C977 C978 1.378 . S
C978 H963 0.940 . S
C978 C977 1.378 . S
C978 C979 1.396 . S
C979 H964 0.940 . S
C979 C974 1.391 . S
C979 C978 1.396 . S
C980 P960 1.803 . S
C980 C981 1.378 . S
C980 C985 1.400 . S
C981 H965 0.939 . S
C981 C980 1.378 . S
C981 C982 1.361 . S
C982 H966 0.942 . S
C982 C981 1.361 . S
C982 C983 1.369 . S
C983 C982 1.369 . S
C983 C984 1.404 . S
C984 H967 0.940 . S
C984 C983 1.404 . S
C984 C985 1.389 . S
C985 H968 0.939 . S
C985 C980 1.400 . S
C985 C984 1.389 . S
C986 P960 1.819 . S
C986 C987 1.391 . S
C986 C991 1.391 . S
C987 H969 0.941 . S
C987 C986 1.391 . S
C987 C988 1.396 . S
C988 H972 0.939 . S
C988 C987 1.396 . S
C988 C989 1.397 . S
C989 C988 1.397 . S
C989 C990 1.385 . S
C990 H973 0.940 . S
C990 C989 1.385 . S
C990 C991 1.388 . S
C991 H970 0.939 . S
C991 C986 1.391 . S
C991 C990 1.388 . S
P992 O1003 1.490 . S
P992 C1006 1.812 . S
P992 C1012 1.803 . S
P992 C1018 1.819 . S
H993 C1007 0.941 . S
H994 C1008 0.939 . S
H995 C1010 0.940 . S
H996 C1011 0.940 . S
H997 C1013 0.939 . S
H998 C1014 0.942 . S
H999 C1016 0.940 . S
H1000 C1017 0.939 . S
H1001 C1019 0.941 . S
H1002 C1023 0.939 . S
O1003 P992 1.490 . S
H1004 C1020 0.939 . S
H1005 C1022 0.940 . S
C1006 P992 1.812 . S
C1006 C1007 1.389 . S
C1006 C1011 1.391 . S
C1007 H993 0.941 . S
C1007 C1006 1.389 . S
C1007 C1008 1.397 . S
C1008 H994 0.939 . S
C1008 C1007 1.397 . S
C1008 C1009 1.378 . S
C1009 C1008 1.378 . S
C1009 C1010 1.378 . S
C1010 H995 0.940 . S
C1010 C1009 1.378 . S
C1010 C1011 1.396 . S
C1011 H996 0.940 . S
C1011 C1006 1.391 . S
C1011 C1010 1.396 . S
C1012 P992 1.803 . S
C1012 C1013 1.378 . S
C1012 C1017 1.400 . S
C1013 H997 0.939 . S
C1013 C1012 1.378 . S
C1013 C1014 1.361 . S
C1014 H998 0.942 . S
C1014 C1013 1.361 . S
C1014 C1015 1.369 . S
C1015 C1014 1.369 . S
C1015 C1016 1.404 . S
C1016 H999 0.940 . S
C1016 C1015 1.404 . S
C1016 C1017 1.389 . S
C1017 H1000 0.939 . S
C1017 C1012 1.400 . S
C1017 C1016 1.389 . S
C1018 P992 1.819 . S
C1018 C1019 1.391 . S
C1018 C1023 1.391 . S
C1019 H1001 0.941 . S
C1019 C1018 1.391 . S
C1019 C1020 1.396 . S
C1020 H1004 0.939 . S
C1020 C1019 1.396 . S
C1020 C1021 1.397 . S
C1021 C1020 1.397 . S
C1021 C1022 1.385 . S
C1022 H1005 0.940 . S
C1022 C1021 1.385 . S
C1022 C1023 1.388 . S
C1023 H1002 0.939 . S
C1023 C1018 1.391 . S
C1023 C1022 1.388 . S
Cu1024 N1025 1.999 . S
Cu1024 O1030 1.974 . S
Cu1024 N1035 1.985 . S
Cu1024 O1044 1.959 . S
N1025 Cu1024 1.999 . S
N1025 C1027 1.263 1_554 S
N1025 C1029 1.389 . S
N1026 C1027 1.358 . S
N1026 C1028 1.400 . S
C1027 N1025 1.263 1_556 S
C1027 N1026 1.358 . S
C1027 H1033 0.930 . S
C1028 N1026 1.400 . S
C1028 C1029 1.351 1_556 S
C1028 H1045 0.930 . S
C1029 N1025 1.389 . S
C1029 C1028 1.351 1_554 S
C1029 H1034 0.930 . S
O1030 Cu1024 1.974 . S
O1030 C1040 1.282 1_554 S
C1031 O1032 1.261 . S
C1031 O1044 1.251 . S
O1032 C1031 1.261 . S
H1033 C1027 0.930 . S
H1034 C1029 0.930 . S
N1035 Cu1024 1.985 . S
N1035 C1037 1.335 . S
N1035 C1038 1.390 . S
N1036 C1037 1.345 . S
N1036 C1039 1.336 . S
C1037 N1035 1.335 . S
C1037 N1036 1.345 . S
C1037 H1042 0.930 . S
C1038 N1035 1.390 . S
C1038 C1039 1.346 . S
C1038 H1043 0.930 . S
C1039 N1036 1.336 . S
C1039 C1038 1.346 . S
C1039 H1046 0.929 . S
C1040 O1030 1.282 1_556 S
C1040 O1041 1.216 . S
O1041 C1040 1.216 . S
H1042 C1037 0.930 . S
H1043 C1038 0.930 . S
O1044 Cu1024 1.959 . S
O1044 C1031 1.251 . S
H1045 C1028 0.930 . S
H1046 C1039 0.929 . S
Cu1047 N1048 1.999 . S
Cu1047 O1053 1.974 . S
Cu1047 N1058 1.985 1_554 S
Cu1047 O1067 1.959 1_554 S
N1048 Cu1047 1.999 . S
N1048 C1050 1.263 . S
N1048 C1052 1.389 . S
N1049 C1050 1.358 . S
N1049 C1051 1.400 . S
C1050 N1048 1.263 . S
C1050 N1049 1.358 . S
C1050 H1056 0.930 . S
C1051 N1049 1.400 . S
C1051 C1052 1.351 . S
C1051 H1068 0.930 . S
C1052 N1048 1.389 . S
C1052 C1051 1.351 . S
C1052 H1057 0.930 . S
O1053 Cu1047 1.974 . S
O1053 C1063 1.282 . S
C1054 O1055 1.261 . S
C1054 O1067 1.251 . S
O1055 C1054 1.261 . S
H1056 C1050 0.930 . S
H1057 C1052 0.930 . S
N1058 Cu1047 1.985 1_556 S
N1058 C1060 1.335 . S
N1058 C1061 1.390 . S
N1059 C1060 1.345 . S
N1059 C1062 1.336 . S
C1060 N1058 1.335 . S
C1060 N1059 1.345 . S
C1060 H1065 0.930 . S
C1061 N1058 1.390 . S
C1061 C1062 1.346 . S
C1061 H1066 0.930 1_556 S
C1062 N1059 1.336 . S
C1062 C1061 1.346 . S
C1062 H1069 0.929 . S
C1063 O1053 1.282 . S
C1063 O1064 1.216 . S
O1064 C1063 1.216 . S
H1065 C1060 0.930 . S
H1066 C1061 0.930 1_554 S
O1067 Cu1047 1.959 1_556 S
O1067 C1054 1.251 . S
H1068 C1051 0.930 . S
H1069 C1062 0.929 . S
Cu1070 N1071 1.999 1_554 S
Cu1070 O1076 1.974 1_554 S
Cu1070 N1081 1.985 . S
Cu1070 O1090 1.959 . S
N1071 Cu1070 1.999 1_556 S
N1071 C1073 1.263 . S
N1071 C1075 1.389 . S
N1072 C1073 1.358 . S
N1072 C1074 1.400 . S
C1073 N1071 1.263 . S
C1073 N1072 1.358 . S
C1073 H1079 0.930 . S
C1074 N1072 1.400 . S
C1074 C1075 1.351 . S
C1074 H1091 0.930 . S
C1075 N1071 1.389 . S
C1075 C1074 1.351 . S
C1075 H1080 0.930 1_556 S
O1076 Cu1070 1.974 1_556 S
O1076 C1086 1.282 . S
C1077 O1078 1.261 . S
C1077 O1090 1.251 . S
O1078 C1077 1.261 . S
H1079 C1073 0.930 . S
H1080 C1075 0.930 1_554 S
N1081 Cu1070 1.985 . S
N1081 C1083 1.335 . S
N1081 C1084 1.390 . S
N1082 C1083 1.345 . S
N1082 C1085 1.336 . S
C1083 N1081 1.335 . S
C1083 N1082 1.345 . S
C1083 H1088 0.930 . S
C1084 N1081 1.390 . S
C1084 C1085 1.346 . S
C1084 H1089 0.930 . S
C1085 N1082 1.336 . S
C1085 C1084 1.346 . S
C1085 H1092 0.929 . S
C1086 O1076 1.282 . S
C1086 O1087 1.216 . S
O1087 C1086 1.216 . S
H1088 C1083 0.930 . S
H1089 C1084 0.930 . S
O1090 Cu1070 1.959 . S
O1090 C1077 1.251 . S
H1091 C1074 0.930 . S
H1092 C1085 0.929 . S
Cu1093 N1094 1.993 1_556 S
Cu1093 O1099 1.966 1_556 S
Cu1093 N1104 1.991 . S
Cu1093 O1113 1.967 . S
N1094 Cu1093 1.993 1_554 S
N1094 C1096 1.263 . S
N1094 C1098 1.389 . S
N1095 C1096 1.358 . S
N1095 C1097 1.400 . S
C1096 N1094 1.263 . S
C1096 N1095 1.358 . S
C1096 H1102 0.930 . S
C1097 N1095 1.400 . S
C1097 C1098 1.351 . S
C1097 H1114 0.930 . S
C1098 N1094 1.389 . S
C1098 C1097 1.351 . S
C1098 H1103 0.930 . S
O1099 Cu1093 1.966 1_554 S
O1099 C1109 1.282 . S
C1100 O1101 1.261 . S
C1100 O1113 1.251 . S
O1101 C1100 1.261 . S
H1102 C1096 0.930 . S
H1103 C1098 0.930 . S
N1104 Cu1093 1.991 . S
N1104 C1106 1.335 . S
N1104 C1107 1.390 . S
N1105 C1106 1.345 . S
N1105 C1108 1.336 . S
C1106 N1104 1.335 . S
C1106 N1105 1.345 . S
C1106 H1111 0.930 . S
C1107 N1104 1.390 . S
C1107 C1108 1.346 . S
C1107 H1112 0.934 1_556 S
C1108 N1105 1.336 . S
C1108 C1107 1.346 . S
C1108 H1115 0.929 . S
C1109 O1099 1.282 . S
C1109 O1110 1.216 . S
O1110 C1109 1.216 . S
H1111 C1106 0.930 . S
H1112 C1107 0.934 1_554 S
O1113 Cu1093 1.967 . S
O1113 C1100 1.251 . S
H1114 C1097 0.930 . S
H1115 C1108 0.929 . S
Cu1116 N1117 1.999 . S
Cu1116 O1122 1.974 . S
Cu1116 N1127 1.985 1_455 S
Cu1116 O1136 1.959 1_455 S
N1117 Cu1116 1.999 . S
N1117 C1119 1.263 . S
N1117 C1121 1.389 . S
N1118 C1119 1.358 . S
N1118 C1120 1.400 . S
C1119 N1117 1.263 . S
C1119 N1118 1.358 . S
C1119 H1125 0.930 . S
C1120 N1118 1.400 . S
C1120 C1121 1.351 . S
C1120 H1137 0.930 . S
C1121 N1117 1.389 . S
C1121 C1120 1.351 . S
C1121 H1126 0.930 . S
O1122 Cu1116 1.974 . S
O1122 C1132 1.282 . S
C1123 O1124 1.261 . S
C1123 O1136 1.251 . S
O1124 C1123 1.261 . S
H1125 C1119 0.930 . S
H1126 C1121 0.930 . S
N1127 Cu1116 1.985 1_655 S
N1127 C1129 1.335 . S
N1127 C1130 1.390 . S
N1128 C1129 1.345 . S
N1128 C1131 1.336 . S
C1129 N1127 1.335 . S
C1129 N1128 1.345 . S
C1129 H1134 0.930 . S
C1130 N1127 1.390 . S
C1130 C1131 1.346 . S
C1130 H1135 0.930 1_655 S
C1131 N1128 1.336 . S
C1131 C1130 1.346 . S
C1131 H1138 0.929 . S
C1132 O1122 1.282 . S
C1132 O1133 1.216 . S
O1133 C1132 1.216 . S
H1134 C1129 0.930 . S
H1135 C1130 0.930 1_455 S
O1136 Cu1116 1.959 1_655 S
O1136 C1123 1.251 . S
H1137 C1120 0.930 . S
H1138 C1131 0.929 . S
Cu1139 N1140 1.999 . S
Cu1139 O1145 1.974 . S
Cu1139 N1150 1.985 1_545 S
Cu1139 O1159 1.959 1_545 S
N1140 Cu1139 1.999 . S
N1140 C1142 1.263 . S
N1140 C1144 1.389 . S
N1141 C1142 1.358 . S
N1141 C1143 1.400 . S
C1142 N1140 1.263 . S
C1142 N1141 1.358 . S
C1142 H1148 0.930 . S
C1143 N1141 1.400 . S
C1143 C1144 1.351 . S
C1143 H1160 0.930 . S
C1144 N1140 1.389 . S
C1144 C1143 1.351 . S
C1144 H1149 0.930 . S
O1145 Cu1139 1.974 . S
O1145 C1155 1.282 . S
C1146 O1147 1.261 . S
C1146 O1159 1.251 . S
O1147 C1146 1.261 . S
H1148 C1142 0.930 . S
H1149 C1144 0.930 . S
N1150 Cu1139 1.985 1_565 S
N1150 C1152 1.335 . S
N1150 C1153 1.390 . S
N1151 C1152 1.345 . S
N1151 C1154 1.336 . S
C1152 N1150 1.335 . S
C1152 N1151 1.345 . S
C1152 H1157 0.930 . S
C1153 N1150 1.390 . S
C1153 C1154 1.346 . S
C1153 H1158 0.930 1_565 S
C1154 N1151 1.336 . S
C1154 C1153 1.346 . S
C1154 H1161 0.929 . S
C1155 O1145 1.282 . S
C1155 O1156 1.216 . S
O1156 C1155 1.216 . S
H1157 C1152 0.930 . S
H1158 C1153 0.930 1_545 S
O1159 Cu1139 1.959 1_565 S
O1159 C1146 1.251 . S
H1160 C1143 0.930 . S
H1161 C1154 0.929 . S
Cu1162 N1163 1.995 1_455 S
Cu1162 O1168 1.968 1_455 S
Cu1162 N1173 1.989 . S
Cu1162 O1182 1.964 . S
N1163 Cu1162 1.995 1_655 S
N1163 C1165 1.263 . S
N1163 C1167 1.389 . S
N1164 C1165 1.358 . S
N1164 C1166 1.400 . S
C1165 N1163 1.263 . S
C1165 N1164 1.358 . S
C1165 H1171 0.930 . S
C1166 N1164 1.400 . S
C1166 C1167 1.351 . S
C1166 H1183 0.930 . S
C1167 N1163 1.389 . S
C1167 C1166 1.351 . S
C1167 H1172 0.930 . S
O1168 Cu1162 1.968 1_655 S
O1168 C1178 1.282 . S
C1169 O1170 1.261 . S
C1169 O1182 1.251 . S
O1170 C1169 1.261 . S
H1171 C1165 0.930 . S
H1172 C1167 0.930 . S
N1173 Cu1162 1.989 . S
N1173 C1175 1.335 . S
N1173 C1176 1.390 . S
N1174 C1175 1.345 . S
N1174 C1177 1.336 . S
C1175 N1173 1.335 . S
C1175 N1174 1.345 . S
C1175 H1180 0.930 . S
C1176 N1173 1.390 . S
C1176 C1177 1.346 . S
C1176 H1181 0.930 . S
C1177 N1174 1.336 . S
C1177 C1176 1.346 . S
C1177 H1184 0.929 . S
C1178 O1168 1.282 . S
C1178 O1179 1.216 . S
O1179 C1178 1.216 . S
H1180 C1175 0.930 . S
H1181 C1176 0.930 . S
O1182 Cu1162 1.964 . S
O1182 C1169 1.251 . S
H1183 C1166 0.930 . S
H1184 C1177 0.929 . S
Cu1185 N1186 1.987 1_565 S
Cu1185 O1191 1.958 1_565 S
Cu1185 N1196 1.997 . S
Cu1185 O1205 1.974 . S
N1186 Cu1185 1.987 1_545 S
N1186 C1188 1.263 . S
N1186 C1190 1.389 . S
N1187 C1188 1.358 . S
N1187 C1189 1.400 . S
C1188 N1186 1.263 . S
C1188 N1187 1.358 . S
C1188 H1194 0.930 . S
C1189 N1187 1.400 . S
C1189 C1190 1.351 . S
C1189 H1206 0.930 . S
C1190 N1186 1.389 . S
C1190 C1189 1.351 . S
C1190 H1195 0.930 . S
O1191 Cu1185 1.958 1_545 S
O1191 C1201 1.282 . S
C1192 O1193 1.261 . S
C1192 O1205 1.251 . S
O1193 C1192 1.261 . S
H1194 C1188 0.930 . S
H1195 C1190 0.930 . S
N1196 Cu1185 1.997 . S
N1196 C1198 1.335 . S
N1196 C1199 1.390 . S
N1197 C1198 1.345 . S
N1197 C1200 1.336 . S
C1198 N1196 1.335 . S
C1198 N1197 1.345 . S
C1198 H1203 0.930 . S
C1199 N1196 1.390 . S
C1199 C1200 1.346 . S
C1199 H1204 0.930 . S
C1200 N1197 1.336 . S
C1200 C1199 1.346 . S
C1200 H1207 0.929 . S
C1201 O1191 1.282 . S
C1201 O1202 1.216 . S
O1202 C1201 1.216 . S
H1203 C1198 0.930 . S
H1204 C1199 0.930 . S
O1205 Cu1185 1.974 . S
O1205 C1192 1.251 . S
H1206 C1189 0.930 . S
H1207 C1200 0.929 . S
Cu1208 N1209 1.999 . S
Cu1208 O1214 1.974 . S
Cu1208 N1219 1.985 1_455 S
Cu1208 O1228 1.959 1_455 S
N1209 Cu1208 1.999 . S
N1209 C1211 1.263 . S
N1209 C1213 1.389 . S
N1210 C1211 1.358 . S
N1210 C1212 1.400 . S
C1211 N1209 1.263 . S
C1211 N1210 1.358 . S
C1211 H1217 0.930 . S
C1212 N1210 1.400 . S
C1212 C1213 1.351 . S
C1212 H1229 0.930 . S
C1213 N1209 1.389 . S
C1213 C1212 1.351 . S
C1213 H1218 0.930 . S
O1214 Cu1208 1.974 . S
O1214 C1224 1.282 . S
C1215 O1216 1.261 . S
C1215 O1228 1.251 . S
O1216 C1215 1.261 . S
H1217 C1211 0.930 . S
H1218 C1213 0.930 . S
N1219 Cu1208 1.985 1_655 S
N1219 C1221 1.335 . S
N1219 C1222 1.390 . S
N1220 C1221 1.345 . S
N1220 C1223 1.336 . S
C1221 N1219 1.335 . S
C1221 N1220 1.345 . S
C1221 H1226 0.930 . S
C1222 N1219 1.390 . S
C1222 C1223 1.346 . S
C1222 H1227 0.930 1_655 S
C1223 N1220 1.336 . S
C1223 C1222 1.346 . S
C1223 H1230 0.929 . S
C1224 O1214 1.282 . S
C1224 O1225 1.216 . S
O1225 C1224 1.216 . S
H1226 C1221 0.930 . S
H1227 C1222 0.930 1_455 S
O1228 Cu1208 1.959 1_655 S
O1228 C1215 1.251 . S
H1229 C1212 0.930 . S
H1230 C1223 0.929 . S
Cu1231 N1232 1.999 . S
Cu1231 O1237 1.974 . S
Cu1231 N1242 1.985 1_545 S
Cu1231 O1251 1.959 1_545 S
N1232 Cu1231 1.999 . S
N1232 C1234 1.263 . S
N1232 C1236 1.389 . S
N1233 C1234 1.358 . S
N1233 C1235 1.400 . S
C1234 N1232 1.263 . S
C1234 N1233 1.358 . S
C1234 H1240 0.930 . S
C1235 N1233 1.400 . S
C1235 C1236 1.351 . S
C1235 H1252 0.930 . S
C1236 N1232 1.389 . S
C1236 C1235 1.351 . S
C1236 H1241 0.930 . S
O1237 Cu1231 1.974 . S
O1237 C1247 1.282 . S
C1238 O1239 1.261 . S
C1238 O1251 1.251 . S
O1239 C1238 1.261 . S
H1240 C1234 0.930 . S
H1241 C1236 0.930 . S
N1242 Cu1231 1.985 1_565 S
N1242 C1244 1.335 . S
N1242 C1245 1.394 . S
N1243 C1244 1.345 . S
N1243 C1246 1.336 . S
C1244 N1242 1.335 . S
C1244 N1243 1.345 . S
C1244 H1249 0.930 . S
C1245 N1242 1.394 . S
C1245 C1246 1.366 . S
C1245 H1250 0.910 1_565 S
C1246 N1243 1.336 . S
C1246 C1245 1.366 . S
C1246 H1253 0.929 . S
C1247 O1237 1.282 . S
C1247 O1248 1.216 . S
O1248 C1247 1.216 . S
H1249 C1244 0.930 . S
H1250 C1245 0.910 1_545 S
O1251 Cu1231 1.959 1_565 S
O1251 C1238 1.251 . S
H1252 C1235 0.930 . S
H1253 C1246 0.929 . S
Cu1254 N1255 1.999 . S
Cu1254 O1260 1.974 . S
Cu1254 N1265 1.985 . S
Cu1254 O1274 1.959 . S
N1255 Cu1254 1.999 . S
N1255 C1257 1.263 1_455 S
N1255 C1259 1.389 . S
N1256 C1257 1.358 . S
N1256 C1258 1.400 . S
C1257 N1255 1.263 1_655 S
C1257 N1256 1.358 . S
C1257 H1263 0.930 . S
C1258 N1256 1.400 . S
C1258 C1259 1.351 1_655 S
C1258 H1275 0.930 . S
C1259 N1255 1.389 . S
C1259 C1258 1.351 1_455 S
C1259 H1264 0.930 . S
O1260 Cu1254 1.974 . S
O1260 C1270 1.282 1_455 S
C1261 O1262 1.261 . S
C1261 O1274 1.251 . S
O1262 C1261 1.261 . S
H1263 C1257 0.930 . S
H1264 C1259 0.930 . S
N1265 Cu1254 1.985 . S
N1265 C1267 1.335 . S
N1265 C1268 1.390 . S
N1266 C1267 1.345 . S
N1266 C1269 1.336 . S
C1267 N1265 1.335 . S
C1267 N1266 1.345 . S
C1267 H1272 0.930 . S
C1268 N1265 1.390 . S
C1268 C1269 1.346 . S
C1268 H1273 0.930 . S
C1269 N1266 1.336 . S
C1269 C1268 1.346 . S
C1269 H1276 0.929 . S
C1270 O1260 1.282 1_655 S
C1270 O1271 1.216 1_655 S
O1271 C1270 1.216 1_455 S
H1272 C1267 0.930 . S
H1273 C1268 0.930 . S
O1274 Cu1254 1.959 . S
O1274 C1261 1.251 . S
H1275 C1258 0.930 . S
H1276 C1269 0.929 . S
Cu1277 N1278 1.999 . S
Cu1277 O1283 1.974 . S
Cu1277 N1288 1.985 . S
Cu1277 O1297 1.959 1_545 S
N1278 Cu1277 1.999 . S
N1278 C1280 1.263 . S
N1278 C1282 1.389 . S
N1279 C1280 1.358 . S
N1279 C1281 1.400 . S
C1280 N1278 1.263 . S
C1280 N1279 1.358 . S
C1280 H1286 0.930 . S
C1281 N1279 1.400 . S
C1281 C1282 1.351 . S
C1281 H1298 0.930 . S
C1282 N1278 1.389 . S
C1282 C1281 1.351 . S
C1282 H1287 0.930 . S
O1283 Cu1277 1.974 . S
O1283 C1293 1.282 . S
C1284 O1285 1.247 1_565 S
C1284 O1297 1.251 . S
O1285 C1284 1.247 1_545 S
H1286 C1280 0.930 . S
H1287 C1282 0.930 . S
N1288 Cu1277 1.985 . S
N1288 C1290 1.335 1_545 S
N1288 C1291 1.390 . S
N1289 C1290 1.345 . S
N1289 C1292 1.336 . S
C1290 N1288 1.335 1_565 S
C1290 N1289 1.345 . S
C1290 H1295 0.930 . S
C1291 N1288 1.390 . S
C1291 C1292 1.346 1_545 S
C1291 H1296 0.930 . S
C1292 N1289 1.336 . S
C1292 C1291 1.346 1_565 S
C1292 H1299 0.929 . S
C1293 O1283 1.282 . S
C1293 O1294 1.216 . S
O1294 C1293 1.216 . S
H1295 C1290 0.930 . S
H1296 C1291 0.930 . S
O1297 Cu1277 1.959 1_565 S
O1297 C1284 1.251 . S
H1298 C1281 0.930 . S
H1299 C1292 0.929 . S
Cu1300 N1301 1.999 . S
Cu1300 O1306 1.974 . S
Cu1300 N1311 1.985 . S
Cu1300 O1320 1.959 . S
N1301 Cu1300 1.999 . S
N1301 C1303 1.263 . S
N1301 C1305 1.389 . S
N1302 C1303 1.358 . S
N1302 C1304 1.400 . S
C1303 N1301 1.263 . S
C1303 N1302 1.358 . S
C1303 H1309 0.930 . S
C1304 N1302 1.400 . S
C1304 C1305 1.351 . S
C1304 H1321 0.930 . S
C1305 N1301 1.389 . S
C1305 C1304 1.351 . S
C1305 H1310 0.930 . S
O1306 Cu1300 1.974 . S
O1306 C1316 1.282 . S
C1307 O1308 1.261 . S
C1307 O1320 1.251 . S
O1308 C1307 1.261 . S
H1309 C1303 0.930 . S
H1310 C1305 0.930 . S
N1311 Cu1300 1.985 . S
N1311 C1313 1.335 . S
N1311 C1314 1.390 . S
N1312 C1313 1.345 . S
N1312 C1315 1.336 . S
C1313 N1311 1.335 . S
C1313 N1312 1.345 . S
C1313 H1318 0.930 . S
C1314 N1311 1.390 . S
C1314 C1315 1.346 . S
C1314 H1319 0.930 . S
C1315 N1312 1.336 . S
C1315 C1314 1.346 . S
C1315 H1322 0.929 . S
C1316 O1306 1.282 . S
C1316 O1317 1.216 . S
O1317 C1316 1.216 . S
H1318 C1313 0.930 . S
H1319 C1314 0.930 . S
O1320 Cu1300 1.959 . S
O1320 C1307 1.251 . S
H1321 C1304 0.930 . S
H1322 C1315 0.929 . S
Cu1323 N1324 1.999 . S
Cu1323 O1329 1.974 . S
Cu1323 N1334 1.985 . S
Cu1323 O1343 1.959 . S
N1324 Cu1323 1.999 . S
N1324 C1326 1.263 . S
N1324 C1328 1.389 . S
N1325 C1326 1.358 . S
N1325 C1327 1.400 . S
C1326 N1324 1.263 . S
C1326 N1325 1.358 . S
C1326 H1332 0.930 . S
C1327 N1325 1.400 . S
C1327 C1328 1.351 . S
C1327 H1344 0.930 . S
C1328 N1324 1.389 . S
C1328 C1327 1.351 . S
C1328 H1333 0.930 . S
O1329 Cu1323 1.974 . S
O1329 C1339 1.282 . S
C1330 O1331 1.261 . S
C1330 O1343 1.251 . S
O1331 C1330 1.261 . S
H1332 C1326 0.930 . S
H1333 C1328 0.930 . S
N1334 Cu1323 1.985 . S
N1334 C1336 1.335 . S
N1334 C1337 1.390 . S
N1335 C1336 1.345 . S
N1335 C1338 1.336 . S
C1336 N1334 1.335 . S
C1336 N1335 1.345 . S
C1336 H1341 0.930 . S
C1337 N1334 1.390 . S
C1337 C1338 1.346 . S
C1337 H1342 0.930 . S
C1338 N1335 1.336 . S
C1338 C1337 1.346 . S
C1338 H1345 0.929 . S
C1339 O1329 1.282 . S
C1339 O1340 1.216 . S
O1340 C1339 1.216 . S
H1341 C1336 0.930 . S
H1342 C1337 0.930 . S
O1343 Cu1323 1.959 . S
O1343 C1330 1.251 . S
H1344 C1327 0.930 . S
H1345 C1338 0.929 . S
Cu1346 N1347 1.999 . S
Cu1346 O1352 1.974 . S
Cu1346 N1357 1.985 . S
Cu1346 O1366 1.959 . S
N1347 Cu1346 1.999 . S
N1347 C1349 1.263 . S
N1347 C1351 1.389 . S
N1348 C1349 1.358 . S
N1348 C1350 1.400 . S
C1349 N1347 1.263 . S
C1349 N1348 1.358 . S
C1349 H1355 0.930 . S
C1350 N1348 1.400 . S
C1350 C1351 1.351 . S
C1350 H1367 0.930 . S
C1351 N1347 1.389 . S
C1351 C1350 1.351 . S
C1351 H1356 0.930 . S
O1352 Cu1346 1.974 . S
O1352 C1362 1.282 . S
C1353 O1354 1.261 . S
C1353 O1366 1.251 . S
O1354 C1353 1.261 . S
H1355 C1349 0.930 . S
H1356 C1351 0.930 . S
N1357 Cu1346 1.985 . S
N1357 C1359 1.335 . S
N1357 C1360 1.390 . S
N1358 C1359 1.345 . S
N1358 C1361 1.336 . S
C1359 N1357 1.335 . S
C1359 N1358 1.345 . S
C1359 H1364 0.930 . S
C1360 N1357 1.390 . S
C1360 C1361 1.346 . S
C1360 H1365 0.930 . S
C1361 N1358 1.336 . S
C1361 C1360 1.346 . S
C1361 H1368 0.929 . S
C1362 O1352 1.282 . S
C1362 O1363 1.216 . S
O1363 C1362 1.216 . S
H1364 C1359 0.930 . S
H1365 C1360 0.930 . S
O1366 Cu1346 1.959 . S
O1366 C1353 1.251 . S
H1367 C1350 0.930 . S
H1368 C1361 0.929 . S
Cu1369 N1370 1.999 . S
Cu1369 O1375 1.974 . S
Cu1369 N1380 1.985 . S
Cu1369 O1389 1.959 . S
N1370 Cu1369 1.999 . S
N1370 C1372 1.263 . S
N1370 C1374 1.389 . S
N1371 C1372 1.358 . S
N1371 C1373 1.400 . S
C1372 N1370 1.263 . S
C1372 N1371 1.358 . S
C1372 H1378 0.930 . S
C1373 N1371 1.400 . S
C1373 C1374 1.351 . S
C1373 H1390 0.930 . S
C1374 N1370 1.389 . S
C1374 C1373 1.351 . S
C1374 H1379 0.930 . S
O1375 Cu1369 1.974 . S
O1375 C1385 1.282 . S
C1376 O1377 1.261 . S
C1376 O1389 1.251 . S
O1377 C1376 1.261 . S
H1378 C1372 0.930 . S
H1379 C1374 0.930 . S
N1380 Cu1369 1.985 . S
N1380 C1382 1.335 . S
N1380 C1383 1.390 . S
N1381 C1382 1.345 . S
N1381 C1384 1.336 . S
C1382 N1380 1.335 . S
C1382 N1381 1.345 . S
C1382 H1387 0.930 . S
C1383 N1380 1.390 . S
C1383 C1384 1.346 . S
C1383 H1388 0.930 . S
C1384 N1381 1.336 . S
C1384 C1383 1.346 . S
C1384 H1391 0.929 . S
C1385 O1375 1.282 . S
C1385 O1386 1.216 . S
O1386 C1385 1.216 . S
H1387 C1382 0.930 . S
H1388 C1383 0.930 . S
O1389 Cu1369 1.959 . S
O1389 C1376 1.251 . S
H1390 C1373 0.930 . S
H1391 C1384 0.929 . S
Cu1392 N1393 1.999 . S
Cu1392 O1398 1.974 . S
Cu1392 N1403 1.985 . S
Cu1392 O1412 1.959 . S
N1393 Cu1392 1.999 . S
N1393 C1395 1.263 . S
N1393 C1397 1.389 . S
N1394 C1395 1.358 . S
N1394 C1396 1.400 . S
C1395 N1393 1.263 . S
C1395 N1394 1.358 . S
C1395 H1401 0.930 . S
C1396 N1394 1.400 . S
C1396 C1397 1.351 . S
C1396 H1413 0.930 . S
C1397 N1393 1.389 . S
C1397 C1396 1.351 . S
C1397 H1402 0.930 . S
O1398 Cu1392 1.974 . S
O1398 C1408 1.282 . S
C1399 O1400 1.261 . S
C1399 O1412 1.251 . S
O1400 C1399 1.261 . S
H1401 C1395 0.930 . S
H1402 C1397 0.930 . S
N1403 Cu1392 1.985 . S
N1403 C1405 1.335 . S
N1403 C1406 1.390 . S
N1404 C1405 1.345 . S
N1404 C1407 1.336 . S
C1405 N1403 1.335 . S
C1405 N1404 1.345 . S
C1405 H1410 0.930 . S
C1406 N1403 1.390 . S
C1406 C1407 1.346 . S
C1406 H1411 0.930 . S
C1407 N1404 1.336 . S
C1407 C1406 1.346 . S
C1407 H1414 0.929 . S
C1408 O1398 1.282 . S
C1408 O1409 1.216 . S
O1409 C1408 1.216 . S
H1410 C1405 0.930 . S
H1411 C1406 0.930 . S
O1412 Cu1392 1.959 . S
O1412 C1399 1.251 . S
H1413 C1396 0.930 . S
H1414 C1407 0.929 . S
Cu1415 N1416 1.999 . S
Cu1415 O1421 1.974 . S
Cu1415 N1426 1.985 . S
Cu1415 O1435 1.959 . S
N1416 Cu1415 1.999 . S
N1416 C1418 1.263 . S
N1416 C1420 1.389 . S
N1417 C1418 1.358 . S
N1417 C1419 1.400 . S
C1418 N1416 1.263 . S
C1418 N1417 1.358 . S
C1418 H1424 0.930 . S
C1419 N1417 1.400 . S
C1419 C1420 1.351 . S
C1419 H1436 0.930 . S
C1420 N1416 1.389 . S
C1420 C1419 1.351 . S
C1420 H1425 0.930 . S
O1421 Cu1415 1.974 . S
O1421 C1431 1.282 . S
C1422 O1423 1.261 . S
C1422 O1435 1.251 . S
O1423 C1422 1.261 . S
H1424 C1418 0.930 . S
H1425 C1420 0.930 . S
N1426 Cu1415 1.985 . S
N1426 C1428 1.335 . S
N1426 C1429 1.390 . S
N1427 C1428 1.345 . S
N1427 C1430 1.336 . S
C1428 N1426 1.335 . S
C1428 N1427 1.345 . S
C1428 H1433 0.930 . S
C1429 N1426 1.390 . S
C1429 C1430 1.346 . S
C1429 H1434 0.930 . S
C1430 N1427 1.336 . S
C1430 C1429 1.346 . S
C1430 H1437 0.929 . S
C1431 O1421 1.282 . S
C1431 O1432 1.216 . S
O1432 C1431 1.216 . S
H1433 C1428 0.930 . S
H1434 C1429 0.930 . S
O1435 Cu1415 1.959 . S
O1435 C1422 1.251 . S
H1436 C1419 0.930 . S
H1437 C1430 0.929 . S
Cu1438 N1439 1.999 . S
Cu1438 O1444 1.974 . S
Cu1438 N1449 1.985 . S
Cu1438 O1458 1.959 . S
N1439 Cu1438 1.999 . S
N1439 C1441 1.263 . S
N1439 C1443 1.389 . S
N1440 C1441 1.358 . S
N1440 C1442 1.400 . S
C1441 N1439 1.263 . S
C1441 N1440 1.358 . S
C1441 H1447 0.930 . S
C1442 N1440 1.400 . S
C1442 C1443 1.351 . S
C1442 H1459 0.930 . S
C1443 N1439 1.389 . S
C1443 C1442 1.351 . S
C1443 H1448 0.930 . S
O1444 Cu1438 1.974 . S
O1444 C1454 1.282 . S
C1445 O1446 1.261 . S
C1445 O1458 1.251 . S
O1446 C1445 1.261 . S
H1447 C1441 0.930 . S
H1448 C1443 0.930 . S
N1449 Cu1438 1.985 . S
N1449 C1451 1.335 . S
N1449 C1452 1.390 . S
N1450 C1451 1.345 . S
N1450 C1453 1.336 . S
C1451 N1449 1.335 . S
C1451 N1450 1.345 . S
C1451 H1456 0.930 . S
C1452 N1449 1.390 . S
C1452 C1453 1.346 . S
C1452 H1457 0.930 . S
C1453 N1450 1.336 . S
C1453 C1452 1.346 . S
C1453 H1460 0.929 . S
C1454 O1444 1.282 . S
C1454 O1455 1.216 . S
O1455 C1454 1.216 . S
H1456 C1451 0.930 . S
H1457 C1452 0.930 . S
O1458 Cu1438 1.959 . S
O1458 C1445 1.251 . S
H1459 C1442 0.930 . S
H1460 C1453 0.929 . S
Cu1461 N1462 1.999 . S
Cu1461 O1467 1.974 . S
Cu1461 N1472 1.985 . S
Cu1461 O1481 1.959 . S
N1462 Cu1461 1.999 . S
N1462 C1464 1.263 . S
N1462 C1466 1.389 . S
N1463 C1464 1.358 . S
N1463 C1465 1.400 . S
C1464 N1462 1.263 . S
C1464 N1463 1.358 . S
C1464 H1470 0.930 . S
C1465 N1463 1.400 . S
C1465 C1466 1.351 . S
C1465 H1482 0.930 . S
C1466 N1462 1.389 . S
C1466 C1465 1.351 . S
C1466 H1471 0.930 . S
O1467 Cu1461 1.974 . S
O1467 C1477 1.282 . S
C1468 O1469 1.261 . S
C1468 O1481 1.251 . S
O1469 C1468 1.261 . S
H1470 C1464 0.930 . S
H1471 C1466 0.930 . S
N1472 Cu1461 1.985 . S
N1472 C1474 1.335 . S
N1472 C1475 1.390 . S
N1473 C1474 1.345 . S
N1473 C1476 1.336 . S
C1474 N1472 1.335 . S
C1474 N1473 1.345 . S
C1474 H1479 0.930 . S
C1475 N1472 1.390 . S
C1475 C1476 1.346 . S
C1475 H1480 0.930 . S
C1476 N1473 1.336 . S
C1476 C1475 1.346 . S
C1476 H1483 0.929 . S
C1477 O1467 1.282 . S
C1477 O1478 1.216 . S
O1478 C1477 1.216 . S
H1479 C1474 0.930 . S
H1480 C1475 0.930 . S
O1481 Cu1461 1.959 . S
O1481 C1468 1.251 . S
H1482 C1465 0.930 . S
H1483 C1476 0.929 . S
Cu1484 N1485 1.999 . S
Cu1484 O1490 1.974 . S
Cu1484 N1495 1.985 . S
Cu1484 O1504 1.959 . S
N1485 Cu1484 1.999 . S
N1485 C1487 1.263 . S
N1485 C1489 1.389 . S
N1486 C1487 1.358 . S
N1486 C1488 1.400 . S
C1487 N1485 1.263 . S
C1487 N1486 1.358 . S
C1487 H1493 0.930 . S
C1488 N1486 1.400 . S
C1488 C1489 1.351 . S
C1488 H1505 0.930 . S
C1489 N1485 1.389 . S
C1489 C1488 1.351 . S
C1489 H1494 0.930 . S
O1490 Cu1484 1.974 . S
O1490 C1500 1.282 . S
C1491 O1492 1.261 . S
C1491 O1504 1.251 . S
O1492 C1491 1.261 . S
H1493 C1487 0.930 . S
H1494 C1489 0.930 . S
N1495 Cu1484 1.985 . S
N1495 C1497 1.335 . S
N1495 C1498 1.390 . S
N1496 C1497 1.345 . S
N1496 C1499 1.336 . S
C1497 N1495 1.335 . S
C1497 N1496 1.345 . S
C1497 H1502 0.930 . S
C1498 N1495 1.390 . S
C1498 C1499 1.346 . S
C1498 H1503 0.930 . S
C1499 N1496 1.336 . S
C1499 C1498 1.346 . S
C1499 H1506 0.929 . S
C1500 O1490 1.282 . S
C1500 O1501 1.216 . S
O1501 C1500 1.216 . S
H1502 C1497 0.930 . S
H1503 C1498 0.930 . S
O1504 Cu1484 1.959 . S
O1504 C1491 1.251 . S
H1505 C1488 0.930 . S
H1506 C1499 0.929 . S
Cu1507 N1508 1.999 . S
Cu1507 O1513 1.974 . S
Cu1507 N1518 1.985 . S
Cu1507 O1527 1.959 . S
N1508 Cu1507 1.999 . S
N1508 C1510 1.263 . S
N1508 C1512 1.389 . S
N1509 C1510 1.358 . S
N1509 C1511 1.400 . S
C1510 N1508 1.263 . S
C1510 N1509 1.358 . S
C1510 H1516 0.930 . S
C1511 N1509 1.400 . S
C1511 C1512 1.351 . S
C1511 H1528 0.930 . S
C1512 N1508 1.389 . S
C1512 C1511 1.351 . S
C1512 H1517 0.930 . S
O1513 Cu1507 1.974 . S
O1513 C1523 1.282 . S
C1514 O1515 1.261 . S
C1514 O1527 1.251 . S
O1515 C1514 1.261 . S
H1516 C1510 0.930 . S
H1517 C1512 0.930 . S
N1518 Cu1507 1.985 . S
N1518 C1520 1.335 . S
N1518 C1521 1.390 . S
N1519 C1520 1.345 . S
N1519 C1522 1.336 . S
C1520 N1518 1.335 . S
C1520 N1519 1.345 . S
C1520 H1525 0.930 . S
C1521 N1518 1.390 . S
C1521 C1522 1.346 . S
C1521 H1526 0.930 . S
C1522 N1519 1.336 . S
C1522 C1521 1.346 . S
C1522 H1529 0.929 . S
C1523 O1513 1.282 . S
C1523 O1524 1.216 . S
O1524 C1523 1.216 . S
H1525 C1520 0.930 . S
H1526 C1521 0.930 . S
O1527 Cu1507 1.959 . S
O1527 C1514 1.251 . S
H1528 C1511 0.930 . S
H1529 C1522 0.929 . S
Cu1530 N1531 1.999 . S
Cu1530 O1536 1.974 . S
Cu1530 N1541 1.985 . S
Cu1530 O1550 1.959 . S
N1531 Cu1530 1.999 . S
N1531 C1533 1.263 . S
N1531 C1535 1.389 . S
N1532 C1533 1.358 . S
N1532 C1534 1.400 . S
C1533 N1531 1.263 . S
C1533 N1532 1.358 . S
C1533 H1539 0.930 . S
C1534 N1532 1.400 . S
C1534 C1535 1.351 . S
C1534 H1551 0.930 . S
C1535 N1531 1.389 . S
C1535 C1534 1.351 . S
C1535 H1540 0.930 . S
O1536 Cu1530 1.974 . S
O1536 C1546 1.282 . S
C1537 O1538 1.261 . S
C1537 O1550 1.251 . S
O1538 C1537 1.261 . S
H1539 C1533 0.930 . S
H1540 C1535 0.930 . S
N1541 Cu1530 1.985 . S
N1541 C1543 1.335 . S
N1541 C1544 1.390 . S
N1542 C1543 1.345 . S
N1542 C1545 1.336 . S
C1543 N1541 1.335 . S
C1543 N1542 1.345 . S
C1543 H1548 0.930 . S
C1544 N1541 1.390 . S
C1544 C1545 1.346 . S
C1544 H1549 0.930 . S
C1545 N1542 1.336 . S
C1545 C1544 1.346 . S
C1545 H1552 0.929 . S
C1546 O1536 1.282 . S
C1546 O1547 1.216 . S
O1547 C1546 1.216 . S
H1548 C1543 0.930 . S
H1549 C1544 0.930 . S
O1550 Cu1530 1.959 . S
O1550 C1537 1.251 . S
H1551 C1534 0.930 . S
H1552 C1545 0.929 . S
Cu1553 N1554 1.999 . S
Cu1553 O1559 1.974 . S
Cu1553 N1564 1.985 . S
Cu1553 O1573 1.959 . S
N1554 Cu1553 1.999 . S
N1554 C1556 1.263 . S
N1554 C1558 1.389 . S
N1555 C1556 1.358 . S
N1555 C1557 1.400 . S
C1556 N1554 1.263 . S
C1556 N1555 1.358 . S
C1556 H1562 0.930 . S
C1557 N1555 1.400 . S
C1557 C1558 1.351 . S
C1557 H1574 0.930 . S
C1558 N1554 1.389 . S
C1558 C1557 1.351 . S
C1558 H1563 0.930 . S
O1559 Cu1553 1.974 . S
O1559 C1569 1.282 . S
C1560 O1561 1.261 . S
C1560 O1573 1.251 . S
O1561 C1560 1.261 . S
H1562 C1556 0.930 . S
H1563 C1558 0.930 . S
N1564 Cu1553 1.985 . S
N1564 C1566 1.335 . S
N1564 C1567 1.390 . S
N1565 C1566 1.345 . S
N1565 C1568 1.336 . S
C1566 N1564 1.335 . S
C1566 N1565 1.345 . S
C1566 H1571 0.930 . S
C1567 N1564 1.390 . S
C1567 C1568 1.346 . S
C1567 H1572 0.930 . S
C1568 N1565 1.336 . S
C1568 C1567 1.346 . S
C1568 H1575 0.929 . S
C1569 O1559 1.282 . S
C1569 O1570 1.216 . S
O1570 C1569 1.216 . S
H1571 C1566 0.930 . S
H1572 C1567 0.930 . S
O1573 Cu1553 1.959 . S
O1573 C1560 1.251 . S
H1574 C1557 0.930 . S
H1575 C1568 0.929 . S
H1576 C1582 0.930 . S
H1577 C1586 0.930 . S
H1578 C1591 0.929 . S
H1579 C1589 0.929 . S
H1580 C1584 0.929 . S
H1581 C1590 0.929 . S
C1582 H1576 0.930 . S
C1582 C1583 1.367 . S
C1582 C1590 1.378 . S
C1583 C1582 1.367 . S
C1583 C1591 1.433 . S
C1584 H1580 0.929 . S
C1584 C1586 1.378 . S
C1584 C1588 1.350 . S
C1585 C1588 1.463 . S
C1585 C1590 1.350 . S
C1585 N1593 1.427 . S
C1586 H1577 0.930 . S
C1586 C1584 1.378 . S
C1586 C1587 1.367 . S
C1587 C1586 1.367 . S
C1587 C1589 1.433 . S
C1588 C1584 1.350 . S
C1588 C1585 1.463 . S
C1588 N1592 1.427 . S
C1589 H1579 0.929 . S
C1589 C1587 1.433 . S
C1589 N1592 1.384 . S
C1590 H1581 0.929 . S
C1590 C1582 1.378 . S
C1590 C1585 1.350 . S
C1591 H1578 0.929 . S
C1591 C1583 1.433 . S
C1591 N1593 1.384 . S
N1592 C1588 1.427 . S
N1592 C1589 1.384 . S
N1593 C1585 1.427 . S
N1593 C1591 1.384 . S
H1594 C1600 0.930 . S
H1595 C1604 0.930 . S
H1596 C1609 0.929 . S
H1597 C1607 0.929 . S
H1598 C1602 0.929 . S
H1599 C1608 0.929 . S
C1600 H1594 0.930 . S
C1600 C1601 1.367 . S
C1600 C1608 1.378 . S
C1601 C1600 1.367 . S
C1601 C1609 1.433 . S
C1602 H1598 0.929 . S
C1602 C1604 1.378 . S
C1602 C1606 1.350 . S
C1603 C1606 1.463 . S
C1603 C1608 1.350 . S
C1603 N1611 1.427 . S
C1604 H1595 0.930 . S
C1604 C1602 1.378 . S
C1604 C1605 1.367 . S
C1605 C1604 1.367 . S
C1605 C1607 1.433 . S
C1606 C1602 1.350 . S
C1606 C1603 1.463 . S
C1606 N1610 1.427 . S
C1607 H1597 0.929 . S
C1607 C1605 1.433 . S
C1607 N1610 1.384 . S
C1608 H1599 0.929 . S
C1608 C1600 1.378 . S
C1608 C1603 1.350 . S
C1609 H1596 0.929 . S
C1609 C1601 1.433 . S
C1609 N1611 1.384 . S
N1610 C1606 1.427 . S
N1610 C1607 1.384 . S
N1611 C1603 1.427 . S
N1611 C1609 1.384 . S
H1612 C1618 0.930 . S
H1613 C1622 0.930 . S
H1614 C1627 0.929 . S
H1615 C1625 0.929 . S
H1616 C1620 0.929 . S
H1617 C1626 0.929 . S
C1618 H1612 0.930 . S
C1618 C1619 1.367 . S
C1618 C1626 1.378 . S
C1619 C1618 1.367 . S
C1619 C1627 1.433 . S
C1620 H1616 0.929 . S
C1620 C1622 1.378 . S
C1620 C1624 1.350 . S
C1621 C1624 1.463 . S
C1621 C1626 1.350 . S
C1621 N1629 1.427 . S
C1622 H1613 0.930 . S
C1622 C1620 1.378 . S
C1622 C1623 1.367 . S
C1623 C1622 1.367 . S
C1623 C1625 1.433 . S
C1624 C1620 1.350 . S
C1624 C1621 1.463 . S
C1624 N1628 1.427 . S
C1625 H1615 0.929 . S
C1625 C1623 1.433 . S
C1625 N1628 1.384 . S
C1626 H1617 0.929 . S
C1626 C1618 1.378 . S
C1626 C1621 1.350 . S
C1627 H1614 0.929 . S
C1627 C1619 1.433 . S
C1627 N1629 1.384 . S
N1628 C1624 1.427 . S
N1628 C1625 1.384 . S
N1629 C1621 1.427 . S
N1629 C1627 1.384 . S
H1630 C1636 0.930 . S
H1631 C1640 0.930 . S
H1632 C1645 0.929 . S
H1633 C1643 0.929 . S
H1634 C1638 0.929 . S
H1635 C1644 0.929 . S
C1636 H1630 0.930 . S
C1636 C1637 1.367 . S
C1636 C1644 1.378 . S
C1637 C1636 1.367 . S
C1637 C1645 1.433 . S
C1638 H1634 0.929 . S
C1638 C1640 1.378 . S
C1638 C1642 1.350 . S
C1639 C1642 1.463 . S
C1639 C1644 1.350 . S
C1639 N1647 1.427 . S
C1640 H1631 0.930 . S
C1640 C1638 1.378 . S
C1640 C1641 1.367 . S
C1641 C1640 1.367 . S
C1641 C1643 1.433 . S
C1642 C1638 1.350 . S
C1642 C1639 1.463 . S
C1642 N1646 1.427 . S
C1643 H1633 0.929 . S
C1643 C1641 1.433 . S
C1643 N1646 1.384 . S
C1644 H1635 0.929 . S
C1644 C1636 1.378 . S
C1644 C1639 1.350 . S
C1645 H1632 0.929 . S
C1645 C1637 1.433 . S
C1645 N1647 1.384 . S
N1646 C1642 1.427 . S
N1646 C1643 1.384 . S
N1647 C1639 1.427 . S
N1647 C1645 1.384 . S
H1648 C1654 0.930 . S
H1649 C1658 0.930 . S
H1650 C1663 0.929 . S
H1651 C1661 0.929 . S
H1652 C1656 0.929 . S
H1653 C1662 0.929 . S
C1654 H1648 0.930 . S
C1654 C1655 1.367 . S
C1654 C1662 1.378 . S
C1655 C1654 1.367 . S
C1655 C1663 1.433 . S
C1656 H1652 0.929 . S
C1656 C1658 1.378 . S
C1656 C1660 1.350 . S
C1657 C1660 1.463 . S
C1657 C1662 1.350 . S
C1657 N1665 1.427 . S
C1658 H1649 0.930 . S
C1658 C1656 1.378 . S
C1658 C1659 1.367 . S
C1659 C1658 1.367 . S
C1659 C1661 1.433 . S
C1660 C1656 1.350 . S
C1660 C1657 1.463 . S
C1660 N1664 1.427 . S
C1661 H1651 0.929 . S
C1661 C1659 1.433 . S
C1661 N1664 1.384 . S
C1662 H1653 0.929 . S
C1662 C1654 1.378 . S
C1662 C1657 1.350 . S
C1663 H1650 0.929 . S
C1663 C1655 1.433 . S
C1663 N1665 1.384 . S
N1664 C1660 1.427 . S
N1664 C1661 1.384 . S
N1665 C1657 1.427 . S
N1665 C1663 1.384 . S
H1666 C1672 0.930 . S
H1667 C1676 0.930 . S
H1668 C1681 0.929 . S
H1669 C1679 0.929 . S
H1670 C1674 0.929 . S
H1671 C1680 0.929 . S
C1672 H1666 0.930 . S
C1672 C1673 1.367 . S
C1672 C1680 1.378 . S
C1673 C1672 1.367 . S
C1673 C1681 1.433 . S
C1674 H1670 0.929 . S
C1674 C1676 1.378 . S
C1674 C1678 1.350 . S
C1675 C1678 1.463 . S
C1675 C1680 1.350 . S
C1675 N1683 1.427 . S
C1676 H1667 0.930 . S
C1676 C1674 1.378 . S
C1676 C1677 1.367 . S
C1677 C1676 1.367 . S
C1677 C1679 1.433 . S
C1678 C1674 1.350 . S
C1678 C1675 1.463 . S
C1678 N1682 1.427 . S
C1679 H1669 0.929 . S
C1679 C1677 1.433 . S
C1679 N1682 1.384 . S
C1680 H1671 0.929 . S
C1680 C1672 1.378 . S
C1680 C1675 1.350 . S
C1681 H1668 0.929 . S
C1681 C1673 1.433 . S
C1681 N1683 1.384 . S
N1682 C1678 1.427 . S
N1682 C1679 1.384 . S
N1683 C1675 1.427 . S
N1683 C1681 1.384 . S
H1684 C1690 0.930 . S
H1685 C1694 0.930 . S
H1686 C1699 0.929 . S
H1687 C1697 0.929 . S
H1688 C1692 0.929 . S
H1689 C1698 0.929 . S
C1690 H1684 0.930 . S
C1690 C1691 1.367 . S
C1690 C1698 1.378 . S
C1691 C1690 1.367 . S
C1691 C1699 1.433 . S
C1692 H1688 0.929 . S
C1692 C1694 1.378 . S
C1692 C1696 1.350 . S
C1693 C1696 1.463 . S
C1693 C1698 1.350 . S
C1693 N1701 1.427 . S
C1694 H1685 0.930 . S
C1694 C1692 1.378 . S
C1694 C1695 1.367 . S
C1695 C1694 1.367 . S
C1695 C1697 1.433 . S
C1696 C1692 1.350 . S
C1696 C1693 1.463 . S
C1696 N1700 1.427 . S
C1697 H1687 0.929 . S
C1697 C1695 1.433 . S
C1697 N1700 1.384 . S
C1698 H1689 0.929 . S
C1698 C1690 1.378 . S
C1698 C1693 1.350 . S
C1699 H1686 0.929 . S
C1699 C1691 1.433 . S
C1699 N1701 1.384 . S
N1700 C1696 1.427 . S
N1700 C1697 1.384 . S
N1701 C1693 1.427 . S
N1701 C1699 1.384 . S
H1702 C1708 0.930 . S
H1703 C1712 0.930 . S
H1704 C1717 0.929 . S
H1705 C1715 0.929 . S
H1706 C1710 0.929 . S
H1707 C1716 0.929 . S
C1708 H1702 0.930 . S
C1708 C1709 1.367 . S
C1708 C1716 1.378 . S
C1709 C1708 1.367 . S
C1709 C1717 1.433 . S
C1710 H1706 0.929 . S
C1710 C1712 1.378 . S
C1710 C1714 1.350 . S
C1711 C1714 1.463 . S
C1711 C1716 1.350 . S
C1711 N1719 1.427 . S
C1712 H1703 0.930 . S
C1712 C1710 1.378 . S
C1712 C1713 1.367 . S
C1713 C1712 1.367 . S
C1713 C1715 1.433 . S
C1714 C1710 1.350 . S
C1714 C1711 1.463 . S
C1714 N1718 1.427 . S
C1715 H1705 0.929 . S
C1715 C1713 1.433 . S
C1715 N1718 1.384 . S
C1716 H1707 0.929 . S
C1716 C1708 1.378 . S
C1716 C1711 1.350 . S
C1717 H1704 0.929 . S
C1717 C1709 1.433 . S
C1717 N1719 1.384 . S
N1718 C1714 1.427 . S
N1718 C1715 1.384 . S
N1719 C1711 1.427 . S
N1719 C1717 1.384 . S
H1720 C1726 0.930 . S
H1721 C1730 0.930 . S
H1722 C1735 0.929 . S
H1723 C1733 0.929 . S
H1724 C1728 0.929 . S
H1725 C1734 0.929 . S
C1726 H1720 0.930 . S
C1726 C1727 1.367 . S
C1726 C1734 1.378 . S
C1727 C1726 1.367 . S
C1727 C1735 1.433 . S
C1728 H1724 0.929 . S
C1728 C1730 1.378 . S
C1728 C1732 1.350 . S
C1729 C1732 1.463 . S
C1729 C1734 1.350 . S
C1729 N1737 1.427 . S
C1730 H1721 0.930 . S
C1730 C1728 1.378 . S
C1730 C1731 1.367 . S
C1731 C1730 1.367 . S
C1731 C1733 1.433 . S
C1732 C1728 1.350 . S
C1732 C1729 1.463 . S
C1732 N1736 1.427 . S
C1733 H1723 0.929 . S
C1733 C1731 1.433 . S
C1733 N1736 1.384 . S
C1734 H1725 0.929 . S
C1734 C1726 1.378 . S
C1734 C1729 1.350 . S
C1735 H1722 0.929 . S
C1735 C1727 1.433 . S
C1735 N1737 1.384 . S
N1736 C1732 1.427 . S
N1736 C1733 1.384 . S
N1737 C1729 1.427 . S
N1737 C1735 1.384 . S
H1738 C1744 0.930 . S
H1739 C1748 0.930 . S
H1740 C1753 0.929 . S
H1741 C1751 0.929 . S
H1742 C1746 0.929 . S
H1743 C1752 0.929 . S
C1744 H1738 0.930 . S
C1744 C1745 1.367 . S
C1744 C1752 1.378 . S
C1745 C1744 1.367 . S
C1745 C1753 1.433 . S
C1746 H1742 0.929 . S
C1746 C1748 1.378 . S
C1746 C1750 1.350 . S
C1747 C1750 1.463 . S
C1747 C1752 1.350 . S
C1747 N1755 1.427 . S
C1748 H1739 0.930 . S
C1748 C1746 1.378 . S
C1748 C1749 1.367 . S
C1749 C1748 1.367 . S
C1749 C1751 1.433 . S
C1750 C1746 1.350 . S
C1750 C1747 1.463 . S
C1750 N1754 1.427 . S
C1751 H1741 0.929 . S
C1751 C1749 1.433 . S
C1751 N1754 1.384 . S
C1752 H1743 0.929 . S
C1752 C1744 1.378 . S
C1752 C1747 1.350 . S
C1753 H1740 0.929 . S
C1753 C1745 1.433 . S
C1753 N1755 1.384 . S
N1754 C1750 1.427 . S
N1754 C1751 1.384 . S
N1755 C1747 1.427 . S
N1755 C1753 1.384 . S
H1756 C1762 0.930 . S
H1757 C1766 0.930 . S
H1758 C1771 0.929 . S
H1759 C1769 0.929 . S
H1760 C1764 0.929 . S
H1761 C1770 0.929 . S
C1762 H1756 0.930 . S
C1762 C1763 1.367 . S
C1762 C1770 1.378 . S
C1763 C1762 1.367 . S
C1763 C1771 1.433 . S
C1764 H1760 0.929 . S
C1764 C1766 1.378 . S
C1764 C1768 1.350 . S
C1765 C1768 1.463 . S
C1765 C1770 1.350 . S
C1765 N1773 1.427 . S
C1766 H1757 0.930 . S
C1766 C1764 1.378 . S
C1766 C1767 1.367 . S
C1767 C1766 1.367 . S
C1767 C1769 1.433 . S
C1768 C1764 1.350 . S
C1768 C1765 1.463 . S
C1768 N1772 1.427 . S
C1769 H1759 0.929 . S
C1769 C1767 1.433 . S
C1769 N1772 1.384 . S
C1770 H1761 0.929 . S
C1770 C1762 1.378 . S
C1770 C1765 1.350 . S
C1771 H1758 0.929 . S
C1771 C1763 1.433 . S
C1771 N1773 1.384 . S
N1772 C1768 1.427 . S
N1772 C1769 1.384 . S
N1773 C1765 1.427 . S
N1773 C1771 1.384 . S
H1774 C1780 0.930 . S
H1775 C1784 0.930 . S
H1776 C1789 0.929 . S
H1777 C1787 0.929 . S
H1778 C1782 0.929 . S
H1779 C1788 0.929 . S
C1780 H1774 0.930 . S
C1780 C1781 1.367 . S
C1780 C1788 1.378 . S
C1781 C1780 1.367 . S
C1781 C1789 1.433 . S
C1782 H1778 0.929 . S
C1782 C1784 1.378 . S
C1782 C1786 1.350 . S
C1783 C1786 1.463 . S
C1783 C1788 1.350 . S
C1783 N1791 1.427 . S
C1784 H1775 0.930 . S
C1784 C1782 1.378 . S
C1784 C1785 1.367 . S
C1785 C1784 1.367 . S
C1785 C1787 1.433 . S
C1786 C1782 1.350 . S
C1786 C1783 1.463 . S
C1786 N1790 1.427 . S
C1787 H1777 0.929 . S
C1787 C1785 1.433 . S
C1787 N1790 1.384 . S
C1788 H1779 0.929 . S
C1788 C1780 1.378 . S
C1788 C1783 1.350 . S
C1789 H1776 0.929 . S
C1789 C1781 1.433 . S
C1789 N1791 1.384 . S
N1790 C1786 1.427 . S
N1790 C1787 1.384 . S
N1791 C1783 1.427 . S
N1791 C1789 1.384 . S
H1792 C1798 0.930 . S
H1793 C1802 0.930 . S
H1794 C1807 0.929 . S
H1795 C1805 0.929 . S
H1796 C1800 0.929 . S
H1797 C1806 0.929 . S
C1798 H1792 0.930 . S
C1798 C1799 1.367 . S
C1798 C1806 1.378 . S
C1799 C1798 1.367 . S
C1799 C1807 1.433 . S
C1800 H1796 0.929 . S
C1800 C1802 1.378 . S
C1800 C1804 1.350 . S
C1801 C1804 1.463 . S
C1801 C1806 1.350 . S
C1801 N1809 1.427 . S
C1802 H1793 0.930 . S
C1802 C1800 1.378 . S
C1802 C1803 1.367 . S
C1803 C1802 1.367 . S
C1803 C1805 1.433 . S
C1804 C1800 1.350 . S
C1804 C1801 1.463 . S
C1804 N1808 1.427 . S
C1805 H1795 0.929 . S
C1805 C1803 1.433 . S
C1805 N1808 1.384 . S
C1806 H1797 0.929 . S
C1806 C1798 1.378 . S
C1806 C1801 1.350 . S
C1807 H1794 0.929 . S
C1807 C1799 1.433 . S
C1807 N1809 1.384 . S
N1808 C1804 1.427 . S
N1808 C1805 1.384 . S
N1809 C1801 1.427 . S
N1809 C1807 1.384 . S
H1810 C1816 0.930 . S
H1811 C1820 0.930 . S
H1812 C1825 0.929 . S
H1813 C1823 0.929 . S
H1814 C1818 0.929 . S
H1815 C1824 0.929 . S
C1816 H1810 0.930 . S
C1816 C1817 1.367 . S
C1816 C1824 1.378 . S
C1817 C1816 1.367 . S
C1817 C1825 1.433 . S
C1818 H1814 0.929 . S
C1818 C1820 1.378 . S
C1818 C1822 1.350 . S
C1819 C1822 1.463 . S
C1819 C1824 1.350 . S
C1819 N1827 1.427 . S
C1820 H1811 0.930 . S
C1820 C1818 1.378 . S
C1820 C1821 1.367 . S
C1821 C1820 1.367 . S
C1821 C1823 1.433 . S
C1822 C1818 1.350 . S
C1822 C1819 1.463 . S
C1822 N1826 1.427 . S
C1823 H1813 0.929 . S
C1823 C1821 1.433 . S
C1823 N1826 1.384 . S
C1824 H1815 0.929 . S
C1824 C1816 1.378 . S
C1824 C1819 1.350 . S
C1825 H1812 0.929 . S
C1825 C1817 1.433 . S
C1825 N1827 1.384 . S
N1826 C1822 1.427 . S
N1826 C1823 1.384 . S
N1827 C1819 1.427 . S
N1827 C1825 1.384 . S
H1828 C1834 0.930 . S
H1829 C1838 0.930 . S
H1830 C1843 0.929 . S
H1831 C1841 0.929 . S
H1832 C1836 0.929 . S
H1833 C1842 0.929 . S
C1834 H1828 0.930 . S
C1834 C1835 1.367 . S
C1834 C1842 1.378 . S
C1835 C1834 1.367 . S
C1835 C1843 1.433 . S
C1836 H1832 0.929 . S
C1836 C1838 1.378 . S
C1836 C1840 1.350 . S
C1837 C1840 1.463 . S
C1837 C1842 1.350 . S
C1837 N1845 1.427 . S
C1838 H1829 0.930 . S
C1838 C1836 1.378 . S
C1838 C1839 1.367 . S
C1839 C1838 1.367 . S
C1839 C1841 1.433 . S
C1840 C1836 1.350 . S
C1840 C1837 1.463 . S
C1840 N1844 1.427 . S
C1841 H1831 0.929 . S
C1841 C1839 1.433 . S
C1841 N1844 1.384 . S
C1842 H1833 0.929 . S
C1842 C1834 1.378 . S
C1842 C1837 1.350 . S
C1843 H1830 0.929 . S
C1843 C1835 1.433 . S
C1843 N1845 1.384 . S
N1844 C1840 1.427 . S
N1844 C1841 1.384 . S
N1845 C1837 1.427 . S
N1845 C1843 1.384 . S
H1846 C1852 0.930 . S
H1847 C1856 0.930 . S
H1848 C1861 0.929 . S
H1849 C1859 0.929 . S
H1850 C1854 0.929 . S
H1851 C1860 0.929 . S
C1852 H1846 0.930 . S
C1852 C1853 1.367 . S
C1852 C1860 1.378 . S
C1853 C1852 1.367 . S
C1853 C1861 1.433 . S
C1854 H1850 0.929 . S
C1854 C1856 1.378 . S
C1854 C1858 1.350 . S
C1855 C1858 1.463 . S
C1855 C1860 1.350 . S
C1855 N1863 1.427 . S
C1856 H1847 0.930 . S
C1856 C1854 1.378 . S
C1856 C1857 1.367 . S
C1857 C1856 1.367 . S
C1857 C1859 1.433 . S
C1858 C1854 1.350 . S
C1858 C1855 1.463 . S
C1858 N1862 1.427 . S
C1859 H1849 0.929 . S
C1859 C1857 1.433 . S
C1859 N1862 1.384 . S
C1860 H1851 0.929 . S
C1860 C1852 1.378 . S
C1860 C1855 1.350 . S
C1861 H1848 0.929 . S
C1861 C1853 1.433 . S
C1861 N1863 1.384 . S
N1862 C1858 1.427 . S
N1862 C1859 1.384 . S
N1863 C1855 1.427 . S
N1863 C1861 1.384 . S
H1864 C1870 0.930 . S
H1865 C1874 0.930 . S
H1866 C1879 0.929 . S
H1867 C1877 0.929 . S
H1868 C1872 0.929 . S
H1869 C1878 0.929 . S
C1870 H1864 0.930 . S
C1870 C1871 1.367 . S
C1870 C1878 1.378 . S
C1871 C1870 1.367 . S
C1871 C1879 1.433 . S
C1872 H1868 0.929 . S
C1872 C1874 1.378 . S
C1872 C1876 1.350 . S
C1873 C1876 1.463 . S
C1873 C1878 1.350 . S
C1873 N1881 1.427 . S
C1874 H1865 0.930 . S
C1874 C1872 1.378 . S
C1874 C1875 1.367 . S
C1875 C1874 1.367 . S
C1875 C1877 1.433 . S
C1876 C1872 1.350 . S
C1876 C1873 1.463 . S
C1876 N1880 1.427 . S
C1877 H1867 0.929 . S
C1877 C1875 1.433 . S
C1877 N1880 1.384 . S
C1878 H1869 0.929 . S
C1878 C1870 1.378 . S
C1878 C1873 1.350 . S
C1879 H1866 0.929 . S
C1879 C1871 1.433 . S
C1879 N1881 1.384 . S
N1880 C1876 1.427 . S
N1880 C1877 1.384 . S
N1881 C1873 1.427 . S
N1881 C1879 1.384 . S
H1882 C1888 0.930 . S
H1883 C1892 0.930 . S
H1884 C1897 0.929 . S
H1885 C1895 0.929 . S
H1886 C1890 0.929 . S
H1887 C1896 0.929 . S
C1888 H1882 0.930 . S
C1888 C1889 1.367 . S
C1888 C1896 1.378 . S
C1889 C1888 1.367 . S
C1889 C1897 1.433 . S
C1890 H1886 0.929 . S
C1890 C1892 1.378 . S
C1890 C1894 1.350 . S
C1891 C1894 1.463 . S
C1891 C1896 1.350 . S
C1891 N1899 1.427 . S
C1892 H1883 0.930 . S
C1892 C1890 1.378 . S
C1892 C1893 1.367 . S
C1893 C1892 1.367 . S
C1893 C1895 1.433 . S
C1894 C1890 1.350 . S
C1894 C1891 1.463 . S
C1894 N1898 1.427 . S
C1895 H1885 0.929 . S
C1895 C1893 1.433 . S
C1895 N1898 1.384 . S
C1896 H1887 0.929 . S
C1896 C1888 1.378 . S
C1896 C1891 1.350 . S
C1897 H1884 0.929 . S
C1897 C1889 1.433 . S
C1897 N1899 1.384 . S
N1898 C1894 1.427 . S
N1898 C1895 1.384 . S
N1899 C1891 1.427 . S
N1899 C1897 1.384 . S
H1900 C1906 0.930 . S
H1901 C1910 0.930 . S
H1902 C1915 0.929 . S
H1903 C1913 0.929 . S
H1904 C1908 0.929 . S
H1905 C1914 0.929 . S
C1906 H1900 0.930 . S
C1906 C1907 1.367 . S
C1906 C1914 1.378 . S
C1907 C1906 1.367 . S
C1907 C1915 1.433 . S
C1908 H1904 0.929 . S
C1908 C1910 1.378 . S
C1908 C1912 1.350 . S
C1909 C1912 1.463 . S
C1909 C1914 1.350 . S
C1909 N1917 1.427 . S
C1910 H1901 0.930 . S
C1910 C1908 1.378 . S
C1910 C1911 1.367 . S
C1911 C1910 1.367 . S
C1911 C1913 1.433 . S
C1912 C1908 1.350 . S
C1912 C1909 1.463 . S
C1912 N1916 1.427 . S
C1913 H1903 0.929 . S
C1913 C1911 1.433 . S
C1913 N1916 1.384 . S
C1914 H1905 0.929 . S
C1914 C1906 1.378 . S
C1914 C1909 1.350 . S
C1915 H1902 0.929 . S
C1915 C1907 1.433 . S
C1915 N1917 1.384 . S
N1916 C1912 1.427 . S
N1916 C1913 1.384 . S
N1917 C1909 1.427 . S
N1917 C1915 1.384 . S
H1918 C1924 0.930 . S
H1919 C1928 0.930 . S
H1920 C1933 0.929 . S
H1921 C1931 0.929 . S
H1922 C1926 0.929 . S
H1923 C1932 0.929 . S
C1924 H1918 0.930 . S
C1924 C1925 1.367 . S
C1924 C1932 1.378 . S
C1925 C1924 1.367 . S
C1925 C1933 1.433 . S
C1926 H1922 0.929 . S
C1926 C1928 1.378 . S
C1926 C1930 1.350 . S
C1927 C1930 1.463 . S
C1927 C1932 1.350 . S
C1927 N1935 1.427 . S
C1928 H1919 0.930 . S
C1928 C1926 1.378 . S
C1928 C1929 1.367 . S
C1929 C1928 1.367 . S
C1929 C1931 1.433 . S
C1930 C1926 1.350 . S
C1930 C1927 1.463 . S
C1930 N1934 1.427 . S
C1931 H1921 0.929 . S
C1931 C1929 1.433 . S
C1931 N1934 1.384 . S
C1932 H1923 0.929 . S
C1932 C1924 1.378 . S
C1932 C1927 1.350 . S
C1933 H1920 0.929 . S
C1933 C1925 1.433 . S
C1933 N1935 1.384 . S
N1934 C1930 1.427 . S
N1934 C1931 1.384 . S
N1935 C1927 1.427 . S
N1935 C1933 1.384 . S
H1936 C1942 0.930 . S
H1937 C1946 0.930 . S
H1938 C1951 0.929 . S
H1939 C1949 0.929 . S
H1940 C1944 0.929 . S
H1941 C1950 0.929 . S
C1942 H1936 0.930 . S
C1942 C1943 1.367 . S
C1942 C1950 1.378 . S
C1943 C1942 1.367 . S
C1943 C1951 1.433 . S
C1944 H1940 0.929 . S
C1944 C1946 1.378 . S
C1944 C1948 1.350 . S
C1945 C1948 1.463 . S
C1945 C1950 1.350 . S
C1945 N1953 1.427 . S
C1946 H1937 0.930 . S
C1946 C1944 1.378 . S
C1946 C1947 1.367 . S
C1947 C1946 1.367 . S
C1947 C1949 1.433 . S
C1948 C1944 1.350 . S
C1948 C1945 1.463 . S
C1948 N1952 1.427 . S
C1949 H1939 0.929 . S
C1949 C1947 1.433 . S
C1949 N1952 1.384 . S
C1950 H1941 0.929 . S
C1950 C1942 1.378 . S
C1950 C1945 1.350 . S
C1951 H1938 0.929 . S
C1951 C1943 1.433 . S
C1951 N1953 1.384 . S
N1952 C1948 1.427 . S
N1952 C1949 1.384 . S
N1953 C1945 1.427 . S
N1953 C1951 1.384 . S
H1954 C1960 0.930 . S
H1955 C1964 0.930 . S
H1956 C1969 0.929 . S
H1957 C1967 0.929 . S
H1958 C1962 0.929 . S
H1959 C1968 0.929 . S
C1960 H1954 0.930 . S
C1960 C1961 1.367 . S
C1960 C1968 1.378 . S
C1961 C1960 1.367 . S
C1961 C1969 1.433 . S
C1962 H1958 0.929 . S
C1962 C1964 1.378 . S
C1962 C1966 1.350 . S
C1963 C1966 1.463 . S
C1963 C1968 1.350 . S
C1963 N1971 1.427 . S
C1964 H1955 0.930 . S
C1964 C1962 1.378 . S
C1964 C1965 1.367 . S
C1965 C1964 1.367 . S
C1965 C1967 1.433 . S
C1966 C1962 1.350 . S
C1966 C1963 1.463 . S
C1966 N1970 1.427 . S
C1967 H1957 0.929 . S
C1967 C1965 1.433 . S
C1967 N1970 1.384 . S
C1968 H1959 0.929 . S
C1968 C1960 1.378 . S
C1968 C1963 1.350 . S
C1969 H1956 0.929 . S
C1969 C1961 1.433 . S
C1969 N1971 1.384 . S
N1970 C1966 1.427 . S
N1970 C1967 1.384 . S
N1971 C1963 1.427 . S
N1971 C1969 1.384 . S
H1972 C1978 0.930 . S
H1973 C1982 0.930 . S
H1974 C1987 0.929 . S
H1975 C1985 0.929 . S
H1976 C1980 0.929 . S
H1977 C1986 0.929 . S
C1978 H1972 0.930 . S
C1978 C1979 1.367 . S
C1978 C1986 1.378 . S
C1979 C1978 1.367 . S
C1979 C1987 1.433 . S
C1980 H1976 0.929 . S
C1980 C1982 1.378 . S
C1980 C1984 1.350 . S
C1981 C1984 1.463 . S
C1981 C1986 1.350 . S
C1981 N1989 1.427 . S
C1982 H1973 0.930 . S
C1982 C1980 1.378 . S
C1982 C1983 1.367 . S
C1983 C1982 1.367 . S
C1983 C1985 1.433 . S
C1984 C1980 1.350 . S
C1984 C1981 1.463 . S
C1984 N1988 1.427 . S
C1985 H1975 0.929 . S
C1985 C1983 1.433 . S
C1985 N1988 1.384 . S
C1986 H1977 0.929 . S
C1986 C1978 1.378 . S
C1986 C1981 1.350 . S
C1987 H1974 0.929 . S
C1987 C1979 1.433 . S
C1987 N1989 1.384 . S
N1988 C1984 1.427 . S
N1988 C1985 1.384 . S
N1989 C1981 1.427 . S
N1989 C1987 1.384 . S
H1990 C1996 0.930 . S
H1991 C2000 0.930 . S
H1992 C2005 0.929 . S
H1993 C2003 0.929 . S
H1994 C1998 0.929 . S
H1995 C2004 0.929 . S
C1996 H1990 0.930 . S
C1996 C1997 1.367 . S
C1996 C2004 1.378 . S
C1997 C1996 1.367 . S
C1997 C2005 1.433 . S
C1998 H1994 0.929 . S
C1998 C2000 1.378 . S
C1998 C2002 1.350 . S
C1999 C2002 1.463 . S
C1999 C2004 1.350 . S
C1999 N2007 1.427 . S
C2000 H1991 0.930 . S
C2000 C1998 1.378 . S
C2000 C2001 1.367 . S
C2001 C2000 1.367 . S
C2001 C2003 1.433 . S
C2002 C1998 1.350 . S
C2002 C1999 1.463 . S
C2002 N2006 1.427 . S
C2003 H1993 0.929 . S
C2003 C2001 1.433 . S
C2003 N2006 1.384 . S
C2004 H1995 0.929 . S
C2004 C1996 1.378 . S
C2004 C1999 1.350 . S
C2005 H1992 0.929 . S
C2005 C1997 1.433 . S
C2005 N2007 1.384 . S
N2006 C2002 1.427 . S
N2006 C2003 1.384 . S
N2007 C1999 1.427 . S
N2007 C2005 1.384 . S
H2008 C2014 0.930 . S
H2009 C2018 0.930 . S
H2010 C2023 0.929 . S
H2011 C2021 0.929 . S
H2012 C2016 0.929 . S
H2013 C2022 0.929 . S
C2014 H2008 0.930 . S
C2014 C2015 1.367 . S
C2014 C2022 1.378 . S
C2015 C2014 1.367 . S
C2015 C2023 1.433 . S
C2016 H2012 0.929 . S
C2016 C2018 1.378 . S
C2016 C2020 1.350 . S
C2017 C2020 1.463 . S
C2017 C2022 1.350 . S
C2017 N2025 1.427 . S
C2018 H2009 0.930 . S
C2018 C2016 1.378 . S
C2018 C2019 1.367 . S
C2019 C2018 1.367 . S
C2019 C2021 1.433 . S
C2020 C2016 1.350 . S
C2020 C2017 1.463 . S
C2020 N2024 1.427 . S
C2021 H2011 0.929 . S
C2021 C2019 1.433 . S
C2021 N2024 1.384 . S
C2022 H2013 0.929 . S
C2022 C2014 1.378 . S
C2022 C2017 1.350 . S
C2023 H2010 0.929 . S
C2023 C2015 1.433 . S
C2023 N2025 1.384 . S
N2024 C2020 1.427 . S
N2024 C2021 1.384 . S
N2025 C2017 1.427 . S
N2025 C2023 1.384 . S
H2026 C2032 0.930 . S
H2027 C2036 0.930 . S
H2028 C2041 0.929 . S
H2029 C2039 0.929 . S
H2030 C2034 0.929 . S
H2031 C2040 0.929 . S
C2032 H2026 0.930 . S
C2032 C2033 1.367 . S
C2032 C2040 1.378 . S
C2033 C2032 1.367 . S
C2033 C2041 1.433 . S
C2034 H2030 0.929 . S
C2034 C2036 1.378 . S
C2034 C2038 1.350 . S
C2035 C2038 1.463 . S
C2035 C2040 1.350 . S
C2035 N2043 1.427 . S
C2036 H2027 0.930 . S
C2036 C2034 1.378 . S
C2036 C2037 1.367 . S
C2037 C2036 1.367 . S
C2037 C2039 1.433 . S
C2038 C2034 1.350 . S
C2038 C2035 1.463 . S
C2038 N2042 1.427 . S
C2039 H2029 0.929 . S
C2039 C2037 1.433 . S
C2039 N2042 1.384 . S
C2040 H2031 0.929 . S
C2040 C2032 1.378 . S
C2040 C2035 1.350 . S
C2041 H2028 0.929 . S
C2041 C2033 1.433 . S
C2041 N2043 1.384 . S
N2042 C2038 1.427 . S
N2042 C2039 1.384 . S
N2043 C2035 1.427 . S
N2043 C2041 1.384 . S
H2044 C2050 0.930 . S
H2045 C2054 0.930 . S
H2046 C2059 0.929 . S
H2047 C2057 0.929 . S
H2048 C2052 0.929 . S
H2049 C2058 0.929 . S
C2050 H2044 0.930 . S
C2050 C2051 1.367 . S
C2050 C2058 1.378 . S
C2051 C2050 1.367 . S
C2051 C2059 1.433 . S
C2052 H2048 0.929 . S
C2052 C2054 1.378 . S
C2052 C2056 1.350 . S
C2053 C2056 1.463 . S
C2053 C2058 1.350 . S
C2053 N2061 1.427 . S
C2054 H2045 0.930 . S
C2054 C2052 1.378 . S
C2054 C2055 1.367 . S
C2055 C2054 1.367 . S
C2055 C2057 1.433 . S
C2056 C2052 1.350 . S
C2056 C2053 1.463 . S
C2056 N2060 1.427 . S
C2057 H2047 0.929 . S
C2057 C2055 1.433 . S
C2057 N2060 1.384 . S
C2058 H2049 0.929 . S
C2058 C2050 1.378 . S
C2058 C2053 1.350 . S
C2059 H2046 0.929 . S
C2059 C2051 1.433 . S
C2059 N2061 1.384 . S
N2060 C2056 1.427 . S
N2060 C2057 1.384 . S
N2061 C2053 1.427 . S
N2061 C2059 1.384 . S
H2062 C2068 0.930 . S
H2063 C2072 0.930 . S
H2064 C2077 0.929 . S
H2065 C2075 0.929 . S
H2066 C2070 0.929 . S
H2067 C2076 0.929 . S
C2068 H2062 0.930 . S
C2068 C2069 1.367 . S
C2068 C2076 1.378 . S
C2069 C2068 1.367 . S
C2069 C2077 1.433 . S
C2070 H2066 0.929 . S
C2070 C2072 1.378 . S
C2070 C2074 1.350 . S
C2071 C2074 1.463 . S
C2071 C2076 1.350 . S
C2071 N2079 1.427 . S
C2072 H2063 0.930 . S
C2072 C2070 1.378 . S
C2072 C2073 1.367 . S
C2073 C2072 1.367 . S
C2073 C2075 1.433 . S
C2074 C2070 1.350 . S
C2074 C2071 1.463 . S
C2074 N2078 1.427 . S
C2075 H2065 0.929 . S
C2075 C2073 1.433 . S
C2075 N2078 1.384 . S
C2076 H2067 0.929 . S
C2076 C2068 1.378 . S
C2076 C2071 1.350 . S
C2077 H2064 0.929 . S
C2077 C2069 1.433 . S
C2077 N2079 1.384 . S
N2078 C2074 1.427 . S
N2078 C2075 1.384 . S
N2079 C2071 1.427 . S
N2079 C2077 1.384 . S
H2080 C2086 0.930 . S
H2081 C2090 0.930 . S
H2082 C2095 0.929 . S
H2083 C2093 0.929 . S
H2084 C2088 0.929 . S
H2085 C2094 0.929 . S
C2086 H2080 0.930 . S
C2086 C2087 1.367 . S
C2086 C2094 1.378 . S
C2087 C2086 1.367 . S
C2087 C2095 1.433 . S
C2088 H2084 0.929 . S
C2088 C2090 1.378 . S
C2088 C2092 1.350 . S
C2089 C2092 1.463 . S
C2089 C2094 1.350 . S
C2089 N2097 1.427 . S
C2090 H2081 0.930 . S
C2090 C2088 1.378 . S
C2090 C2091 1.367 . S
C2091 C2090 1.367 . S
C2091 C2093 1.433 . S
C2092 C2088 1.350 . S
C2092 C2089 1.463 . S
C2092 N2096 1.427 . S
C2093 H2083 0.929 . S
C2093 C2091 1.433 . S
C2093 N2096 1.384 . S
C2094 H2085 0.929 . S
C2094 C2086 1.378 . S
C2094 C2089 1.350 . S
C2095 H2082 0.929 . S
C2095 C2087 1.433 . S
C2095 N2097 1.384 . S
N2096 C2092 1.427 . S
N2096 C2093 1.384 . S
N2097 C2089 1.427 . S
N2097 C2095 1.384 . S
H2098 C2104 0.930 . S
H2099 C2108 0.930 . S
H2100 C2113 0.929 . S
H2101 C2111 0.929 . S
H2102 C2106 0.929 . S
H2103 C2112 0.929 . S
C2104 H2098 0.930 . S
C2104 C2105 1.367 . S
C2104 C2112 1.378 . S
C2105 C2104 1.367 . S
C2105 C2113 1.433 . S
C2106 H2102 0.929 . S
C2106 C2108 1.378 . S
C2106 C2110 1.350 . S
C2107 C2110 1.463 . S
C2107 C2112 1.350 . S
C2107 N2115 1.427 . S
C2108 H2099 0.930 . S
C2108 C2106 1.378 . S
C2108 C2109 1.367 . S
C2109 C2108 1.367 . S
C2109 C2111 1.433 . S
C2110 C2106 1.350 . S
C2110 C2107 1.463 . S
C2110 N2114 1.427 . S
C2111 H2101 0.929 . S
C2111 C2109 1.433 . S
C2111 N2114 1.384 . S
C2112 H2103 0.929 . S
C2112 C2104 1.378 . S
C2112 C2107 1.350 . S
C2113 H2100 0.929 . S
C2113 C2105 1.433 . S
C2113 N2115 1.384 . S
N2114 C2110 1.427 . S
N2114 C2111 1.384 . S
N2115 C2107 1.427 . S
N2115 C2113 1.384 . S
H2116 C2122 0.930 . S
H2117 C2126 0.930 . S
H2118 C2131 0.929 . S
H2119 C2129 0.929 . S
H2120 C2124 0.929 . S
H2121 C2130 0.929 . S
C2122 H2116 0.930 . S
C2122 C2123 1.367 . S
C2122 C2130 1.378 . S
C2123 C2122 1.367 . S
C2123 C2131 1.433 . S
C2124 H2120 0.929 . S
C2124 C2126 1.378 . S
C2124 C2128 1.350 . S
C2125 C2128 1.463 . S
C2125 C2130 1.350 . S
C2125 N2133 1.427 . S
C2126 H2117 0.930 . S
C2126 C2124 1.378 . S
C2126 C2127 1.367 . S
C2127 C2126 1.367 . S
C2127 C2129 1.433 . S
C2128 C2124 1.350 . S
C2128 C2125 1.463 . S
C2128 N2132 1.427 . S
C2129 H2119 0.929 . S
C2129 C2127 1.433 . S
C2129 N2132 1.384 . S
C2130 H2121 0.929 . S
C2130 C2122 1.378 . S
C2130 C2125 1.350 . S
C2131 H2118 0.929 . S
C2131 C2123 1.433 . S
C2131 N2133 1.384 . S
N2132 C2128 1.427 . S
N2132 C2129 1.384 . S
N2133 C2125 1.427 . S
N2133 C2131 1.384 . S
H2134 C2140 0.930 . S
H2135 C2144 0.930 . S
H2136 C2149 0.929 . S
H2137 C2147 0.929 . S
H2138 C2142 0.929 . S
H2139 C2148 0.929 . S
C2140 H2134 0.930 . S
C2140 C2141 1.367 . S
C2140 C2148 1.378 . S
C2141 C2140 1.367 . S
C2141 C2149 1.433 . S
C2142 H2138 0.929 . S
C2142 C2144 1.378 . S
C2142 C2146 1.350 . S
C2143 C2146 1.463 . S
C2143 C2148 1.350 . S
C2143 N2151 1.427 . S
C2144 H2135 0.930 . S
C2144 C2142 1.378 . S
C2144 C2145 1.367 . S
C2145 C2144 1.367 . S
C2145 C2147 1.433 . S
C2146 C2142 1.350 . S
C2146 C2143 1.463 . S
C2146 N2150 1.427 . S
C2147 H2137 0.929 . S
C2147 C2145 1.433 . S
C2147 N2150 1.384 . S
C2148 H2139 0.929 . S
C2148 C2140 1.378 . S
C2148 C2143 1.350 . S
C2149 H2136 0.929 . S
C2149 C2141 1.433 . S
C2149 N2151 1.384 . S
N2150 C2146 1.427 . S
N2150 C2147 1.384 . S
N2151 C2143 1.427 . S
N2151 C2149 1.384 . S
H2152 C2158 0.930 . S
H2153 C2162 0.930 . S
H2154 C2167 0.929 . S
H2155 C2165 0.929 . S
H2156 C2160 0.929 . S
H2157 C2166 0.929 . S
C2158 H2152 0.930 . S
C2158 C2159 1.367 . S
C2158 C2166 1.378 . S
C2159 C2158 1.367 . S
C2159 C2167 1.433 . S
C2160 H2156 0.929 . S
C2160 C2162 1.378 . S
C2160 C2164 1.350 . S
C2161 C2164 1.463 . S
C2161 C2166 1.350 . S
C2161 N2169 1.427 . S
C2162 H2153 0.930 . S
C2162 C2160 1.378 . S
C2162 C2163 1.367 . S
C2163 C2162 1.367 . S
C2163 C2165 1.433 . S
C2164 C2160 1.350 . S
C2164 C2161 1.463 . S
C2164 N2168 1.427 . S
C2165 H2155 0.929 . S
C2165 C2163 1.433 . S
C2165 N2168 1.384 . S
C2166 H2157 0.929 . S
C2166 C2158 1.378 . S
C2166 C2161 1.350 . S
C2167 H2154 0.929 . S
C2167 C2159 1.433 . S
C2167 N2169 1.384 . S
N2168 C2164 1.427 . S
N2168 C2165 1.384 . S
N2169 C2161 1.427 . S
N2169 C2167 1.384 . S
H2170 C2176 0.930 . S
H2171 C2180 0.930 . S
H2172 C2185 0.929 . S
H2173 C2183 0.929 . S
H2174 C2178 0.929 . S
H2175 C2184 0.929 . S
C2176 H2170 0.930 . S
C2176 C2177 1.367 . S
C2176 C2184 1.378 . S
C2177 C2176 1.367 . S
C2177 C2185 1.433 . S
C2178 H2174 0.929 . S
C2178 C2180 1.378 . S
C2178 C2182 1.350 . S
C2179 C2182 1.463 . S
C2179 C2184 1.350 . S
C2179 N2187 1.427 . S
C2180 H2171 0.930 . S
C2180 C2178 1.378 . S
C2180 C2181 1.367 . S
C2181 C2180 1.367 . S
C2181 C2183 1.433 . S
C2182 C2178 1.350 . S
C2182 C2179 1.463 . S
C2182 N2186 1.427 . S
C2183 H2173 0.929 . S
C2183 C2181 1.433 . S
C2183 N2186 1.384 . S
C2184 H2175 0.929 . S
C2184 C2176 1.378 . S
C2184 C2179 1.350 . S
C2185 H2172 0.929 . S
C2185 C2177 1.433 . S
C2185 N2187 1.384 . S
N2186 C2182 1.427 . S
N2186 C2183 1.384 . S
N2187 C2179 1.427 . S
N2187 C2185 1.384 . S
H2188 C2194 0.930 . S
H2189 C2198 0.930 . S
H2190 C2203 0.929 . S
H2191 C2201 0.929 . S
H2192 C2196 0.929 . S
H2193 C2202 0.929 . S
C2194 H2188 0.930 . S
C2194 C2195 1.367 . S
C2194 C2202 1.378 . S
C2195 C2194 1.367 . S
C2195 C2203 1.433 . S
C2196 H2192 0.929 . S
C2196 C2198 1.378 . S
C2196 C2200 1.350 . S
C2197 C2200 1.463 . S
C2197 C2202 1.350 . S
C2197 N2205 1.427 . S
C2198 H2189 0.930 . S
C2198 C2196 1.378 . S
C2198 C2199 1.367 . S
C2199 C2198 1.367 . S
C2199 C2201 1.433 . S
C2200 C2196 1.350 . S
C2200 C2197 1.463 . S
C2200 N2204 1.427 . S
C2201 H2191 0.929 . S
C2201 C2199 1.433 . S
C2201 N2204 1.384 . S
C2202 H2193 0.929 . S
C2202 C2194 1.378 . S
C2202 C2197 1.350 . S
C2203 H2190 0.929 . S
C2203 C2195 1.433 . S
C2203 N2205 1.384 . S
N2204 C2200 1.427 . S
N2204 C2201 1.384 . S
N2205 C2197 1.427 . S
N2205 C2203 1.384 . S
H2206 C2212 0.930 . S
H2207 C2216 0.930 . S
H2208 C2221 0.929 . S
H2209 C2219 0.929 . S
H2210 C2214 0.929 . S
H2211 C2220 0.929 . S
C2212 H2206 0.930 . S
C2212 C2213 1.367 . S
C2212 C2220 1.378 . S
C2213 C2212 1.367 . S
C2213 C2221 1.433 . S
C2214 H2210 0.929 . S
C2214 C2216 1.378 . S
C2214 C2218 1.350 . S
C2215 C2218 1.463 . S
C2215 C2220 1.350 . S
C2215 N2223 1.427 . S
C2216 H2207 0.930 . S
C2216 C2214 1.378 . S
C2216 C2217 1.367 . S
C2217 C2216 1.367 . S
C2217 C2219 1.433 . S
C2218 C2214 1.350 . S
C2218 C2215 1.463 . S
C2218 N2222 1.427 . S
C2219 H2209 0.929 . S
C2219 C2217 1.433 . S
C2219 N2222 1.384 . S
C2220 H2211 0.929 . S
C2220 C2212 1.378 . S
C2220 C2215 1.350 . S
C2221 H2208 0.929 . S
C2221 C2213 1.433 . S
C2221 N2223 1.384 . S
N2222 C2218 1.427 . S
N2222 C2219 1.384 . S
N2223 C2215 1.427 . S
N2223 C2221 1.384 . S
H2224 C2230 0.930 . S
H2225 C2234 0.930 . S
H2226 C2239 0.929 . S
H2227 C2237 0.929 . S
H2228 C2232 0.929 . S
H2229 C2238 0.929 . S
C2230 H2224 0.930 . S
C2230 C2231 1.367 . S
C2230 C2238 1.378 . S
C2231 C2230 1.367 . S
C2231 C2239 1.433 . S
C2232 H2228 0.929 . S
C2232 C2234 1.378 . S
C2232 C2236 1.350 . S
C2233 C2236 1.463 . S
C2233 C2238 1.350 . S
C2233 N2241 1.427 . S
C2234 H2225 0.930 . S
C2234 C2232 1.378 . S
C2234 C2235 1.367 . S
C2235 C2234 1.367 . S
C2235 C2237 1.433 . S
C2236 C2232 1.350 . S
C2236 C2233 1.463 . S
C2236 N2240 1.427 . S
C2237 H2227 0.929 . S
C2237 C2235 1.433 . S
C2237 N2240 1.384 . S
C2238 H2229 0.929 . S
C2238 C2230 1.378 . S
C2238 C2233 1.350 . S
C2239 H2226 0.929 . S
C2239 C2231 1.433 . S
C2239 N2241 1.384 . S
N2240 C2236 1.427 . S
N2240 C2237 1.384 . S
N2241 C2233 1.427 . S
N2241 C2239 1.384 . S
H2242 C2248 0.930 . S
H2243 C2252 0.930 . S
H2244 C2257 0.929 . S
H2245 C2255 0.929 . S
H2246 C2250 0.929 . S
H2247 C2256 0.929 . S
C2248 H2242 0.930 . S
C2248 C2249 1.367 . S
C2248 C2256 1.378 . S
C2249 C2248 1.367 . S
C2249 C2257 1.433 . S
C2250 H2246 0.929 . S
C2250 C2252 1.378 . S
C2250 C2254 1.350 . S
C2251 C2254 1.463 . S
C2251 C2256 1.350 . S
C2251 N2259 1.427 . S
C2252 H2243 0.930 . S
C2252 C2250 1.378 . S
C2252 C2253 1.367 . S
C2253 C2252 1.367 . S
C2253 C2255 1.433 . S
C2254 C2250 1.350 . S
C2254 C2251 1.463 . S
C2254 N2258 1.427 . S
C2255 H2245 0.929 . S
C2255 C2253 1.433 . S
C2255 N2258 1.384 . S
C2256 H2247 0.929 . S
C2256 C2248 1.378 . S
C2256 C2251 1.350 . S
C2257 H2244 0.929 . S
C2257 C2249 1.433 . S
C2257 N2259 1.384 . S
N2258 C2254 1.427 . S
N2258 C2255 1.384 . S
N2259 C2251 1.427 . S
N2259 C2257 1.384 . S
H2260 C2266 0.930 . S
H2261 C2270 0.930 . S
H2262 C2275 0.929 . S
H2263 C2273 0.929 . S
H2264 C2268 0.929 . S
H2265 C2274 0.929 . S
C2266 H2260 0.930 . S
C2266 C2267 1.367 . S
C2266 C2274 1.378 . S
C2267 C2266 1.367 . S
C2267 C2275 1.433 . S
C2268 H2264 0.929 . S
C2268 C2270 1.378 . S
C2268 C2272 1.350 . S
C2269 C2272 1.463 . S
C2269 C2274 1.350 . S
C2269 N2277 1.427 . S
C2270 H2261 0.930 . S
C2270 C2268 1.378 . S
C2270 C2271 1.367 . S
C2271 C2270 1.367 . S
C2271 C2273 1.433 . S
C2272 C2268 1.350 . S
C2272 C2269 1.463 . S
C2272 N2276 1.427 . S
C2273 H2263 0.929 . S
C2273 C2271 1.433 . S
C2273 N2276 1.384 . S
C2274 H2265 0.929 . S
C2274 C2266 1.378 . S
C2274 C2269 1.350 . S
C2275 H2262 0.929 . S
C2275 C2267 1.433 . S
C2275 N2277 1.384 . S
N2276 C2272 1.427 . S
N2276 C2273 1.384 . S
N2277 C2269 1.427 . S
N2277 C2275 1.384 . S
H2278 C2284 0.930 . S
H2279 C2288 0.930 . S
H2280 C2293 0.929 . S
H2281 C2291 0.929 . S
H2282 C2286 0.929 . S
H2283 C2292 0.929 . S
C2284 H2278 0.930 . S
C2284 C2285 1.367 . S
C2284 C2292 1.378 . S
C2285 C2284 1.367 . S
C2285 C2293 1.433 . S
C2286 H2282 0.929 . S
C2286 C2288 1.378 . S
C2286 C2290 1.350 . S
C2287 C2290 1.463 . S
C2287 C2292 1.350 . S
C2287 N2295 1.427 . S
C2288 H2279 0.930 . S
C2288 C2286 1.378 . S
C2288 C2289 1.367 . S
C2289 C2288 1.367 . S
C2289 C2291 1.433 . S
C2290 C2286 1.350 . S
C2290 C2287 1.463 . S
C2290 N2294 1.427 . S
C2291 H2281 0.929 . S
C2291 C2289 1.433 . S
C2291 N2294 1.384 . S
C2292 H2283 0.929 . S
C2292 C2284 1.378 . S
C2292 C2287 1.350 . S
C2293 H2280 0.929 . S
C2293 C2285 1.433 . S
C2293 N2295 1.384 . S
N2294 C2290 1.427 . S
N2294 C2291 1.384 . S
N2295 C2287 1.427 . S
N2295 C2293 1.384 . S
H2296 C2302 0.930 . S
H2297 C2306 0.930 . S
H2298 C2311 0.929 . S
H2299 C2309 0.929 . S
H2300 C2304 0.929 . S
H2301 C2310 0.929 . S
C2302 H2296 0.930 . S
C2302 C2303 1.367 . S
C2302 C2310 1.378 . S
C2303 C2302 1.367 . S
C2303 C2311 1.433 . S
C2304 H2300 0.929 . S
C2304 C2306 1.378 . S
C2304 C2308 1.350 . S
C2305 C2308 1.463 . S
C2305 C2310 1.350 . S
C2305 N2313 1.427 . S
C2306 H2297 0.930 . S
C2306 C2304 1.378 . S
C2306 C2307 1.367 . S
C2307 C2306 1.367 . S
C2307 C2309 1.433 . S
C2308 C2304 1.350 . S
C2308 C2305 1.463 . S
C2308 N2312 1.427 . S
C2309 H2299 0.929 . S
C2309 C2307 1.433 . S
C2309 N2312 1.384 . S
C2310 H2301 0.929 . S
C2310 C2302 1.378 . S
C2310 C2305 1.350 . S
C2311 H2298 0.929 . S
C2311 C2303 1.433 . S
C2311 N2313 1.384 . S
N2312 C2308 1.427 . S
N2312 C2309 1.384 . S
N2313 C2305 1.427 . S
N2313 C2311 1.384 . S
H2314 C2320 0.930 . S
H2315 C2324 0.930 . S
H2316 C2329 0.929 . S
H2317 C2327 0.929 . S
H2318 C2322 0.929 . S
H2319 C2328 0.929 . S
C2320 H2314 0.930 . S
C2320 C2321 1.367 . S
C2320 C2328 1.378 . S
C2321 C2320 1.367 . S
C2321 C2329 1.433 . S
C2322 H2318 0.929 . S
C2322 C2324 1.378 . S
C2322 C2326 1.350 . S
C2323 C2326 1.463 . S
C2323 C2328 1.350 . S
C2323 N2331 1.427 . S
C2324 H2315 0.930 . S
C2324 C2322 1.378 . S
C2324 C2325 1.367 . S
C2325 C2324 1.367 . S
C2325 C2327 1.433 . S
C2326 C2322 1.350 . S
C2326 C2323 1.463 . S
C2326 N2330 1.427 . S
C2327 H2317 0.929 . S
C2327 C2325 1.433 . S
C2327 N2330 1.384 . S
C2328 H2319 0.929 . S
C2328 C2320 1.378 . S
C2328 C2323 1.350 . S
C2329 H2316 0.929 . S
C2329 C2321 1.433 . S
C2329 N2331 1.384 . S
N2330 C2326 1.427 . S
N2330 C2327 1.384 . S
N2331 C2323 1.427 . S
N2331 C2329 1.384 . S
H2332 C2338 0.930 . S
H2333 C2342 0.930 . S
H2334 C2347 0.929 . S
H2335 C2345 0.929 . S
H2336 C2340 0.929 . S
H2337 C2346 0.929 . S
C2338 H2332 0.930 . S
C2338 C2339 1.367 . S
C2338 C2346 1.378 . S
C2339 C2338 1.367 . S
C2339 C2347 1.433 . S
C2340 H2336 0.929 . S
C2340 C2342 1.378 . S
C2340 C2344 1.350 . S
C2341 C2344 1.463 . S
C2341 C2346 1.350 . S
C2341 N2349 1.427 . S
C2342 H2333 0.930 . S
C2342 C2340 1.378 . S
C2342 C2343 1.367 . S
C2343 C2342 1.367 . S
C2343 C2345 1.433 . S
C2344 C2340 1.350 . S
C2344 C2341 1.463 . S
C2344 N2348 1.427 . S
C2345 H2335 0.929 . S
C2345 C2343 1.433 . S
C2345 N2348 1.384 . S
C2346 H2337 0.929 . S
C2346 C2338 1.378 . S
C2346 C2341 1.350 . S
C2347 H2334 0.929 . S
C2347 C2339 1.433 . S
C2347 N2349 1.384 . S
N2348 C2344 1.427 . S
N2348 C2345 1.384 . S
N2349 C2341 1.427 . S
N2349 C2347 1.384 . S
H2350 C2356 0.930 . S
H2351 C2360 0.930 . S
H2352 C2365 0.929 . S
H2353 C2363 0.929 . S
H2354 C2358 0.929 . S
H2355 C2364 0.929 . S
C2356 H2350 0.930 . S
C2356 C2357 1.367 . S
C2356 C2364 1.378 . S
C2357 C2356 1.367 . S
C2357 C2365 1.433 . S
C2358 H2354 0.929 . S
C2358 C2360 1.378 . S
C2358 C2362 1.350 . S
C2359 C2362 1.463 . S
C2359 C2364 1.350 . S
C2359 N2367 1.427 . S
C2360 H2351 0.930 . S
C2360 C2358 1.378 . S
C2360 C2361 1.367 . S
C2361 C2360 1.367 . S
C2361 C2363 1.433 . S
C2362 C2358 1.350 . S
C2362 C2359 1.463 . S
C2362 N2366 1.427 . S
C2363 H2353 0.929 . S
C2363 C2361 1.433 . S
C2363 N2366 1.384 . S
C2364 H2355 0.929 . S
C2364 C2356 1.378 . S
C2364 C2359 1.350 . S
C2365 H2352 0.929 . S
C2365 C2357 1.433 . S
C2365 N2367 1.384 . S
N2366 C2362 1.427 . S
N2366 C2363 1.384 . S
N2367 C2359 1.427 . S
N2367 C2365 1.384 . S
H2368 C2374 0.930 . S
H2369 C2378 0.930 . S
H2370 C2383 0.929 . S
H2371 C2381 0.929 . S
H2372 C2376 0.929 . S
H2373 C2382 0.929 . S
C2374 H2368 0.930 . S
C2374 C2375 1.367 . S
C2374 C2382 1.378 . S
C2375 C2374 1.367 . S
C2375 C2383 1.433 . S
C2376 H2372 0.929 . S
C2376 C2378 1.378 . S
C2376 C2380 1.350 . S
C2377 C2380 1.463 . S
C2377 C2382 1.350 . S
C2377 N2385 1.427 . S
C2378 H2369 0.930 . S
C2378 C2376 1.378 . S
C2378 C2379 1.367 . S
C2379 C2378 1.367 . S
C2379 C2381 1.433 . S
C2380 C2376 1.350 . S
C2380 C2377 1.463 . S
C2380 N2384 1.427 . S
C2381 H2371 0.929 . S
C2381 C2379 1.433 . S
C2381 N2384 1.384 . S
C2382 H2373 0.929 . S
C2382 C2374 1.378 . S
C2382 C2377 1.350 . S
C2383 H2370 0.929 . S
C2383 C2375 1.433 . S
C2383 N2385 1.384 . S
N2384 C2380 1.427 . S
N2384 C2381 1.384 . S
N2385 C2377 1.427 . S
N2385 C2383 1.384 . S
H2386 C2392 0.930 . S
H2387 C2396 0.930 . S
H2388 C2401 0.929 . S
H2389 C2399 0.929 . S
H2390 C2394 0.929 . S
H2391 C2400 0.929 . S
C2392 H2386 0.930 . S
C2392 C2393 1.367 . S
C2392 C2400 1.378 . S
C2393 C2392 1.367 . S
C2393 C2401 1.433 . S
C2394 H2390 0.929 . S
C2394 C2396 1.378 . S
C2394 C2398 1.350 . S
C2395 C2398 1.463 . S
C2395 C2400 1.350 . S
C2395 N2403 1.427 . S
C2396 H2387 0.930 . S
C2396 C2394 1.378 . S
C2396 C2397 1.367 . S
C2397 C2396 1.367 . S
C2397 C2399 1.433 . S
C2398 C2394 1.350 . S
C2398 C2395 1.463 . S
C2398 N2402 1.427 . S
C2399 H2389 0.929 . S
C2399 C2397 1.433 . S
C2399 N2402 1.384 . S
C2400 H2391 0.929 . S
C2400 C2392 1.378 . S
C2400 C2395 1.350 . S
C2401 H2388 0.929 . S
C2401 C2393 1.433 . S
C2401 N2403 1.384 . S
N2402 C2398 1.427 . S
N2402 C2399 1.384 . S
N2403 C2395 1.427 . S
N2403 C2401 1.384 . S
H2404 C2410 0.930 . S
H2405 C2414 0.930 . S
H2406 C2419 0.929 . S
H2407 C2417 0.929 . S
H2408 C2412 0.929 . S
H2409 C2418 0.929 . S
C2410 H2404 0.930 . S
C2410 C2411 1.367 . S
C2410 C2418 1.378 . S
C2411 C2410 1.367 . S
C2411 C2419 1.433 . S
C2412 H2408 0.929 . S
C2412 C2414 1.378 . S
C2412 C2416 1.350 . S
C2413 C2416 1.463 . S
C2413 C2418 1.350 . S
C2413 N2421 1.427 . S
C2414 H2405 0.930 . S
C2414 C2412 1.378 . S
C2414 C2415 1.367 . S
C2415 C2414 1.367 . S
C2415 C2417 1.433 . S
C2416 C2412 1.350 . S
C2416 C2413 1.463 . S
C2416 N2420 1.427 . S
C2417 H2407 0.929 . S
C2417 C2415 1.433 . S
C2417 N2420 1.384 . S
C2418 H2409 0.929 . S
C2418 C2410 1.378 . S
C2418 C2413 1.350 . S
C2419 H2406 0.929 . S
C2419 C2411 1.433 . S
C2419 N2421 1.384 . S
N2420 C2416 1.427 . S
N2420 C2417 1.384 . S
N2421 C2413 1.427 . S
N2421 C2419 1.384 . S
H2422 C2428 0.930 . S
H2423 C2432 0.930 . S
H2424 C2437 0.929 . S
H2425 C2435 0.929 . S
H2426 C2430 0.929 . S
H2427 C2436 0.929 . S
C2428 H2422 0.930 . S
C2428 C2429 1.367 . S
C2428 C2436 1.378 . S
C2429 C2428 1.367 . S
C2429 C2437 1.433 . S
C2430 H2426 0.929 . S
C2430 C2432 1.378 . S
C2430 C2434 1.350 . S
C2431 C2434 1.463 . S
C2431 C2436 1.350 . S
C2431 N2439 1.427 . S
C2432 H2423 0.930 . S
C2432 C2430 1.378 . S
C2432 C2433 1.367 . S
C2433 C2432 1.367 . S
C2433 C2435 1.433 . S
C2434 C2430 1.350 . S
C2434 C2431 1.463 . S
C2434 N2438 1.427 . S
C2435 H2425 0.929 . S
C2435 C2433 1.433 . S
C2435 N2438 1.384 . S
C2436 H2427 0.929 . S
C2436 C2428 1.378 . S
C2436 C2431 1.350 . S
C2437 H2424 0.929 . S
C2437 C2429 1.433 . S
C2437 N2439 1.384 . S
N2438 C2434 1.427 . S
N2438 C2435 1.384 . S
N2439 C2431 1.427 . S
N2439 C2437 1.384 . S
H2440 C2446 0.930 . S
H2441 C2450 0.930 . S
H2442 C2455 0.929 . S
H2443 C2453 0.929 . S
H2444 C2448 0.929 . S
H2445 C2454 0.929 . S
C2446 H2440 0.930 . S
C2446 C2447 1.367 . S
C2446 C2454 1.378 . S
C2447 C2446 1.367 . S
C2447 C2455 1.433 . S
C2448 H2444 0.929 . S
C2448 C2450 1.378 . S
C2448 C2452 1.350 . S
C2449 C2452 1.463 . S
C2449 C2454 1.350 . S
C2449 N2457 1.427 . S
C2450 H2441 0.930 . S
C2450 C2448 1.378 . S
C2450 C2451 1.367 . S
C2451 C2450 1.367 . S
C2451 C2453 1.433 . S
C2452 C2448 1.350 . S
C2452 C2449 1.463 . S
C2452 N2456 1.427 . S
C2453 H2443 0.929 . S
C2453 C2451 1.433 . S
C2453 N2456 1.384 . S
C2454 H2445 0.929 . S
C2454 C2446 1.378 . S
C2454 C2449 1.350 . S
C2455 H2442 0.929 . S
C2455 C2447 1.433 . S
C2455 N2457 1.384 . S
N2456 C2452 1.427 . S
N2456 C2453 1.384 . S
N2457 C2449 1.427 . S
N2457 C2455 1.384 . S
H2458 C2464 0.930 . S
H2459 C2468 0.930 . S
H2460 C2473 0.929 . S
H2461 C2471 0.929 . S
H2462 C2466 0.929 . S
H2463 C2472 0.929 . S
C2464 H2458 0.930 . S
C2464 C2465 1.367 . S
C2464 C2472 1.378 . S
C2465 C2464 1.367 . S
C2465 C2473 1.433 . S
C2466 H2462 0.929 . S
C2466 C2468 1.378 . S
C2466 C2470 1.350 . S
C2467 C2470 1.463 . S
C2467 C2472 1.350 . S
C2467 N2475 1.427 . S
C2468 H2459 0.930 . S
C2468 C2466 1.378 . S
C2468 C2469 1.367 . S
C2469 C2468 1.367 . S
C2469 C2471 1.433 . S
C2470 C2466 1.350 . S
C2470 C2467 1.463 . S
C2470 N2474 1.427 . S
C2471 H2461 0.929 . S
C2471 C2469 1.433 . S
C2471 N2474 1.384 . S
C2472 H2463 0.929 . S
C2472 C2464 1.378 . S
C2472 C2467 1.350 . S
C2473 H2460 0.929 . S
C2473 C2465 1.433 . S
C2473 N2475 1.384 . S
N2474 C2470 1.427 . S
N2474 C2471 1.384 . S
N2475 C2467 1.427 . S
N2475 C2473 1.384 . S
H2476 C2482 0.930 . S
H2477 C2486 0.930 . S
H2478 C2491 0.929 . S
H2479 C2489 0.929 . S
H2480 C2484 0.929 . S
H2481 C2490 0.929 . S
C2482 H2476 0.930 . S
C2482 C2483 1.367 . S
C2482 C2490 1.378 . S
C2483 C2482 1.367 . S
C2483 C2491 1.433 . S
C2484 H2480 0.929 . S
C2484 C2486 1.378 . S
C2484 C2488 1.350 . S
C2485 C2488 1.463 . S
C2485 C2490 1.350 . S
C2485 N2493 1.427 . S
C2486 H2477 0.930 . S
C2486 C2484 1.378 . S
C2486 C2487 1.367 . S
C2487 C2486 1.367 . S
C2487 C2489 1.433 . S
C2488 C2484 1.350 . S
C2488 C2485 1.463 . S
C2488 N2492 1.427 . S
C2489 H2479 0.929 . S
C2489 C2487 1.433 . S
C2489 N2492 1.384 . S
C2490 H2481 0.929 . S
C2490 C2482 1.378 . S
C2490 C2485 1.350 . S
C2491 H2478 0.929 . S
C2491 C2483 1.433 . S
C2491 N2493 1.384 . S
N2492 C2488 1.427 . S
N2492 C2489 1.384 . S
N2493 C2485 1.427 . S
N2493 C2491 1.384 . S
H2494 C2500 0.930 . S
H2495 C2504 0.930 . S
H2496 C2509 0.929 . S
H2497 C2507 0.929 . S
H2498 C2502 0.929 . S
H2499 C2508 0.929 . S
C2500 H2494 0.930 . S
C2500 C2501 1.367 . S
C2500 C2508 1.378 . S
C2501 C2500 1.367 . S
C2501 C2509 1.433 . S
C2502 H2498 0.929 . S
C2502 C2504 1.378 . S
C2502 C2506 1.350 . S
C2503 C2506 1.463 . S
C2503 C2508 1.350 . S
C2503 N2511 1.427 . S
C2504 H2495 0.930 . S
C2504 C2502 1.378 . S
C2504 C2505 1.367 . S
C2505 C2504 1.367 . S
C2505 C2507 1.433 . S
C2506 C2502 1.350 . S
C2506 C2503 1.463 . S
C2506 N2510 1.427 . S
C2507 H2497 0.929 . S
C2507 C2505 1.433 . S
C2507 N2510 1.384 . S
C2508 H2499 0.929 . S
C2508 C2500 1.378 . S
C2508 C2503 1.350 . S
C2509 H2496 0.929 . S
C2509 C2501 1.433 . S
C2509 N2511 1.384 . S
N2510 C2506 1.427 . S
N2510 C2507 1.384 . S
N2511 C2503 1.427 . S
N2511 C2509 1.384 . S
H2512 C2518 0.930 . S
H2513 C2522 0.930 . S
H2514 C2527 0.929 . S
H2515 C2525 0.929 . S
H2516 C2520 0.929 . S
H2517 C2526 0.929 . S
C2518 H2512 0.930 . S
C2518 C2519 1.367 . S
C2518 C2526 1.378 . S
C2519 C2518 1.367 . S
C2519 C2527 1.433 . S
C2520 H2516 0.929 . S
C2520 C2522 1.378 . S
C2520 C2524 1.350 . S
C2521 C2524 1.463 . S
C2521 C2526 1.350 . S
C2521 N2529 1.427 . S
C2522 H2513 0.930 . S
C2522 C2520 1.378 . S
C2522 C2523 1.367 . S
C2523 C2522 1.367 . S
C2523 C2525 1.433 . S
C2524 C2520 1.350 . S
C2524 C2521 1.463 . S
C2524 N2528 1.427 . S
C2525 H2515 0.929 . S
C2525 C2523 1.433 . S
C2525 N2528 1.384 . S
C2526 H2517 0.929 . S
C2526 C2518 1.378 . S
C2526 C2521 1.350 . S
C2527 H2514 0.929 . S
C2527 C2519 1.433 . S
C2527 N2529 1.384 . S
N2528 C2524 1.427 . S
N2528 C2525 1.384 . S
N2529 C2521 1.427 . S
N2529 C2527 1.384 . S
H2530 C2536 0.930 . S
H2531 C2540 0.930 . S
H2532 C2545 0.929 . S
H2533 C2543 0.929 . S
H2534 C2538 0.929 . S
H2535 C2544 0.929 . S
C2536 H2530 0.930 . S
C2536 C2537 1.367 . S
C2536 C2544 1.378 . S
C2537 C2536 1.367 . S
C2537 C2545 1.433 . S
C2538 H2534 0.929 . S
C2538 C2540 1.378 . S
C2538 C2542 1.350 . S
C2539 C2542 1.463 . S
C2539 C2544 1.350 . S
C2539 N2547 1.427 . S
C2540 H2531 0.930 . S
C2540 C2538 1.378 . S
C2540 C2541 1.367 . S
C2541 C2540 1.367 . S
C2541 C2543 1.433 . S
C2542 C2538 1.350 . S
C2542 C2539 1.463 . S
C2542 N2546 1.427 . S
C2543 H2533 0.929 . S
C2543 C2541 1.433 . S
C2543 N2546 1.384 . S
C2544 H2535 0.929 . S
C2544 C2536 1.378 . S
C2544 C2539 1.350 . S
C2545 H2532 0.929 . S
C2545 C2537 1.433 . S
C2545 N2547 1.384 . S
N2546 C2542 1.427 . S
N2546 C2543 1.384 . S
N2547 C2539 1.427 . S
N2547 C2545 1.384 . S
H2548 C2554 0.930 . S
H2549 C2558 0.930 . S
H2550 C2563 0.929 . S
H2551 C2561 0.929 . S
H2552 C2556 0.929 . S
H2553 C2562 0.929 . S
C2554 H2548 0.930 . S
C2554 C2555 1.367 . S
C2554 C2562 1.378 . S
C2555 C2554 1.367 . S
C2555 C2563 1.433 . S
C2556 H2552 0.929 . S
C2556 C2558 1.378 . S
C2556 C2560 1.350 . S
C2557 C2560 1.463 . S
C2557 C2562 1.350 . S
C2557 N2565 1.427 . S
C2558 H2549 0.930 . S
C2558 C2556 1.378 . S
C2558 C2559 1.367 . S
C2559 C2558 1.367 . S
C2559 C2561 1.433 . S
C2560 C2556 1.350 . S
C2560 C2557 1.463 . S
C2560 N2564 1.427 . S
C2561 H2551 0.929 . S
C2561 C2559 1.433 . S
C2561 N2564 1.384 . S
C2562 H2553 0.929 . S
C2562 C2554 1.378 . S
C2562 C2557 1.350 . S
C2563 H2550 0.929 . S
C2563 C2555 1.433 . S
C2563 N2565 1.384 . S
N2564 C2560 1.427 . S
N2564 C2561 1.384 . S
N2565 C2557 1.427 . S
N2565 C2563 1.384 . S
H2566 C2572 0.930 . S
H2567 C2576 0.930 . S
H2568 C2581 0.929 . S
H2569 C2579 0.929 . S
H2570 C2574 0.929 . S
H2571 C2580 0.929 . S
C2572 H2566 0.930 . S
C2572 C2573 1.367 . S
C2572 C2580 1.378 . S
C2573 C2572 1.367 . S
C2573 C2581 1.433 . S
C2574 H2570 0.929 . S
C2574 C2576 1.378 . S
C2574 C2578 1.350 . S
C2575 C2578 1.463 . S
C2575 C2580 1.350 . S
C2575 N2583 1.427 . S
C2576 H2567 0.930 . S
C2576 C2574 1.378 . S
C2576 C2577 1.367 . S
C2577 C2576 1.367 . S
C2577 C2579 1.433 . S
C2578 C2574 1.350 . S
C2578 C2575 1.463 . S
C2578 N2582 1.427 . S
C2579 H2569 0.929 . S
C2579 C2577 1.433 . S
C2579 N2582 1.384 . S
C2580 H2571 0.929 . S
C2580 C2572 1.378 . S
C2580 C2575 1.350 . S
C2581 H2568 0.929 . S
C2581 C2573 1.433 . S
C2581 N2583 1.384 . S
N2582 C2578 1.427 . S
N2582 C2579 1.384 . S
N2583 C2575 1.427 . S
N2583 C2581 1.384 . S
H2584 C2590 0.930 . S
H2585 C2594 0.930 . S
H2586 C2599 0.929 . S
H2587 C2597 0.929 . S
H2588 C2592 0.929 . S
H2589 C2598 0.929 . S
C2590 H2584 0.930 . S
C2590 C2591 1.367 . S
C2590 C2598 1.378 . S
C2591 C2590 1.367 . S
C2591 C2599 1.433 . S
C2592 H2588 0.929 . S
C2592 C2594 1.378 . S
C2592 C2596 1.350 . S
C2593 C2596 1.463 . S
C2593 C2598 1.350 . S
C2593 N2601 1.427 . S
C2594 H2585 0.930 . S
C2594 C2592 1.378 . S
C2594 C2595 1.367 . S
C2595 C2594 1.367 . S
C2595 C2597 1.433 . S
C2596 C2592 1.350 . S
C2596 C2593 1.463 . S
C2596 N2600 1.427 . S
C2597 H2587 0.929 . S
C2597 C2595 1.433 . S
C2597 N2600 1.384 . S
C2598 H2589 0.929 . S
C2598 C2590 1.378 . S
C2598 C2593 1.350 . S
C2599 H2586 0.929 . S
C2599 C2591 1.433 . S
C2599 N2601 1.384 . S
N2600 C2596 1.427 . S
N2600 C2597 1.384 . S
N2601 C2593 1.427 . S
N2601 C2599 1.384 . S
H2602 C2608 0.930 . S
H2603 C2612 0.930 . S
H2604 C2617 0.929 . S
H2605 C2615 0.929 . S
H2606 C2610 0.929 . S
H2607 C2616 0.929 . S
C2608 H2602 0.930 . S
C2608 C2609 1.367 . S
C2608 C2616 1.378 . S
C2609 C2608 1.367 . S
C2609 C2617 1.433 . S
C2610 H2606 0.929 . S
C2610 C2612 1.378 . S
C2610 C2614 1.350 . S
C2611 C2614 1.463 . S
C2611 C2616 1.350 . S
C2611 N2619 1.427 . S
C2612 H2603 0.930 . S
C2612 C2610 1.378 . S
C2612 C2613 1.367 . S
C2613 C2612 1.367 . S
C2613 C2615 1.433 . S
C2614 C2610 1.350 . S
C2614 C2611 1.463 . S
C2614 N2618 1.427 . S
C2615 H2605 0.929 . S
C2615 C2613 1.433 . S
C2615 N2618 1.384 . S
C2616 H2607 0.929 . S
C2616 C2608 1.378 . S
C2616 C2611 1.350 . S
C2617 H2604 0.929 . S
C2617 C2609 1.433 . S
C2617 N2619 1.384 . S
N2618 C2614 1.427 . S
N2618 C2615 1.384 . S
N2619 C2611 1.427 . S
N2619 C2617 1.384 . S
H2620 C2626 0.930 . S
H2621 C2630 0.930 . S
H2622 C2635 0.929 . S
H2623 C2633 0.929 . S
H2624 C2628 0.929 . S
H2625 C2634 0.929 . S
C2626 H2620 0.930 . S
C2626 C2627 1.367 . S
C2626 C2634 1.378 . S
C2627 C2626 1.367 . S
C2627 C2635 1.433 . S
C2628 H2624 0.929 . S
C2628 C2630 1.378 . S
C2628 C2632 1.350 . S
C2629 C2632 1.463 . S
C2629 C2634 1.350 . S
C2629 N2637 1.427 . S
C2630 H2621 0.930 . S
C2630 C2628 1.378 . S
C2630 C2631 1.367 . S
C2631 C2630 1.367 . S
C2631 C2633 1.433 . S
C2632 C2628 1.350 . S
C2632 C2629 1.463 . S
C2632 N2636 1.427 . S
C2633 H2623 0.929 . S
C2633 C2631 1.433 . S
C2633 N2636 1.384 . S
C2634 H2625 0.929 . S
C2634 C2626 1.378 . S
C2634 C2629 1.350 . S
C2635 H2622 0.929 . S
C2635 C2627 1.433 . S
C2635 N2637 1.384 . S
N2636 C2632 1.427 . S
N2636 C2633 1.384 . S
N2637 C2629 1.427 . S
N2637 C2635 1.384 . S
H2638 C2644 0.930 . S
H2639 C2648 0.930 . S
H2640 C2653 0.929 . S
H2641 C2651 0.929 . S
H2642 C2646 0.929 . S
H2643 C2652 0.929 . S
C2644 H2638 0.930 . S
C2644 C2645 1.367 . S
C2644 C2652 1.378 . S
C2645 C2644 1.367 . S
C2645 C2653 1.433 . S
C2646 H2642 0.929 . S
C2646 C2648 1.378 . S
C2646 C2650 1.350 . S
C2647 C2650 1.463 . S
C2647 C2652 1.350 . S
C2647 N2655 1.427 . S
C2648 H2639 0.930 . S
C2648 C2646 1.378 . S
C2648 C2649 1.367 . S
C2649 C2648 1.367 . S
C2649 C2651 1.433 . S
C2650 C2646 1.350 . S
C2650 C2647 1.463 . S
C2650 N2654 1.427 . S
C2651 H2641 0.929 . S
C2651 C2649 1.433 . S
C2651 N2654 1.384 . S
C2652 H2643 0.929 . S
C2652 C2644 1.378 . S
C2652 C2647 1.350 . S
C2653 H2640 0.929 . S
C2653 C2645 1.433 . S
C2653 N2655 1.384 . S
N2654 C2650 1.427 . S
N2654 C2651 1.384 . S
N2655 C2647 1.427 . S
N2655 C2653 1.384 . S
H2656 C2662 0.930 . S
H2657 C2666 0.930 . S
H2658 C2671 0.929 . S
H2659 C2669 0.929 . S
H2660 C2664 0.929 . S
H2661 C2670 0.929 . S
C2662 H2656 0.930 . S
C2662 C2663 1.367 . S
C2662 C2670 1.378 . S
C2663 C2662 1.367 . S
C2663 C2671 1.433 . S
C2664 H2660 0.929 . S
C2664 C2666 1.378 . S
C2664 C2668 1.350 . S
C2665 C2668 1.463 . S
C2665 C2670 1.350 . S
C2665 N2673 1.427 . S
C2666 H2657 0.930 . S
C2666 C2664 1.378 . S
C2666 C2667 1.367 . S
C2667 C2666 1.367 . S
C2667 C2669 1.433 . S
C2668 C2664 1.350 . S
C2668 C2665 1.463 . S
C2668 N2672 1.427 . S
C2669 H2659 0.929 . S
C2669 C2667 1.433 . S
C2669 N2672 1.384 . S
C2670 H2661 0.929 . S
C2670 C2662 1.378 . S
C2670 C2665 1.350 . S
C2671 H2658 0.929 . S
C2671 C2663 1.433 . S
C2671 N2673 1.384 . S
N2672 C2668 1.427 . S
N2672 C2669 1.384 . S
N2673 C2665 1.427 . S
N2673 C2671 1.384 . S
H2674 C2680 0.930 . S
H2675 C2684 0.930 . S
H2676 C2689 0.929 . S
H2677 C2687 0.929 . S
H2678 C2682 0.929 . S
H2679 C2688 0.929 . S
C2680 H2674 0.930 . S
C2680 C2681 1.367 . S
C2680 C2688 1.378 . S
C2681 C2680 1.367 . S
C2681 C2689 1.433 . S
C2682 H2678 0.929 . S
C2682 C2684 1.378 . S
C2682 C2686 1.350 . S
C2683 C2686 1.463 . S
C2683 C2688 1.350 . S
C2683 N2691 1.427 . S
C2684 H2675 0.930 . S
C2684 C2682 1.378 . S
C2684 C2685 1.367 . S
C2685 C2684 1.367 . S
C2685 C2687 1.433 . S
C2686 C2682 1.350 . S
C2686 C2683 1.463 . S
C2686 N2690 1.427 . S
C2687 H2677 0.929 . S
C2687 C2685 1.433 . S
C2687 N2690 1.384 . S
C2688 H2679 0.929 . S
C2688 C2680 1.378 . S
C2688 C2683 1.350 . S
C2689 H2676 0.929 . S
C2689 C2681 1.433 . S
C2689 N2691 1.384 . S
N2690 C2686 1.427 . S
N2690 C2687 1.384 . S
N2691 C2683 1.427 . S
N2691 C2689 1.384 . S
H2692 C2698 0.930 . S
H2693 C2702 0.930 . S
H2694 C2707 0.929 . S
H2695 C2705 0.929 . S
H2696 C2700 0.929 . S
H2697 C2706 0.929 . S
C2698 H2692 0.930 . S
C2698 C2699 1.367 . S
C2698 C2706 1.378 . S
C2699 C2698 1.367 . S
C2699 C2707 1.433 . S
C2700 H2696 0.929 . S
C2700 C2702 1.378 . S
C2700 C2704 1.350 . S
C2701 C2704 1.463 . S
C2701 C2706 1.350 . S
C2701 N2709 1.427 . S
C2702 H2693 0.930 . S
C2702 C2700 1.378 . S
C2702 C2703 1.367 . S
C2703 C2702 1.367 . S
C2703 C2705 1.433 . S
C2704 C2700 1.350 . S
C2704 C2701 1.463 . S
C2704 N2708 1.427 . S
C2705 H2695 0.929 . S
C2705 C2703 1.433 . S
C2705 N2708 1.384 . S
C2706 H2697 0.929 . S
C2706 C2698 1.378 . S
C2706 C2701 1.350 . S
C2707 H2694 0.929 . S
C2707 C2699 1.433 . S
C2707 N2709 1.384 . S
N2708 C2704 1.427 . S
N2708 C2705 1.384 . S
N2709 C2701 1.427 . S
N2709 C2707 1.384 . S
H2710 C2716 0.930 . S
H2711 C2720 0.930 . S
H2712 C2725 0.929 . S
H2713 C2723 0.929 . S
H2714 C2718 0.929 . S
H2715 C2724 0.929 . S
C2716 H2710 0.930 . S
C2716 C2717 1.367 . S
C2716 C2724 1.378 . S
C2717 C2716 1.367 . S
C2717 C2725 1.433 . S
C2718 H2714 0.929 . S
C2718 C2720 1.378 . S
C2718 C2722 1.350 . S
C2719 C2722 1.463 . S
C2719 C2724 1.350 . S
C2719 N2727 1.427 . S
C2720 H2711 0.930 . S
C2720 C2718 1.378 . S
C2720 C2721 1.367 . S
C2721 C2720 1.367 . S
C2721 C2723 1.433 . S
C2722 C2718 1.350 . S
C2722 C2719 1.463 . S
C2722 N2726 1.427 . S
C2723 H2713 0.929 . S
C2723 C2721 1.433 . S
C2723 N2726 1.384 . S
C2724 H2715 0.929 . S
C2724 C2716 1.378 . S
C2724 C2719 1.350 . S
C2725 H2712 0.929 . S
C2725 C2717 1.433 . S
C2725 N2727 1.384 . S
N2726 C2722 1.427 . S
N2726 C2723 1.384 . S
N2727 C2719 1.427 . S
N2727 C2725 1.384 . S
H2728 C2734 0.930 . S
H2729 C2738 0.930 . S
H2730 C2743 0.929 . S
H2731 C2741 0.929 . S
H2732 C2736 0.929 . S
H2733 C2742 0.929 . S
C2734 H2728 0.930 . S
C2734 C2735 1.367 . S
C2734 C2742 1.378 . S
C2735 C2734 1.367 . S
C2735 C2743 1.433 . S
C2736 H2732 0.929 . S
C2736 C2738 1.378 . S
C2736 C2740 1.350 . S
C2737 C2740 1.463 . S
C2737 C2742 1.350 . S
C2737 N2745 1.427 . S
C2738 H2729 0.930 . S
C2738 C2736 1.378 . S
C2738 C2739 1.367 . S
C2739 C2738 1.367 . S
C2739 C2741 1.433 . S
C2740 C2736 1.350 . S
C2740 C2737 1.463 . S
C2740 N2744 1.427 . S
C2741 H2731 0.929 . S
C2741 C2739 1.433 . S
C2741 N2744 1.384 . S
C2742 H2733 0.929 . S
C2742 C2734 1.378 . S
C2742 C2737 1.350 . S
C2743 H2730 0.929 . S
C2743 C2735 1.433 . S
C2743 N2745 1.384 . S
N2744 C2740 1.427 . S
N2744 C2741 1.384 . S
N2745 C2737 1.427 . S
N2745 C2743 1.384 . S
H2746 C2752 0.930 . S
H2747 C2756 0.930 . S
H2748 C2761 0.929 . S
H2749 C2759 0.929 . S
H2750 C2754 0.929 . S
H2751 C2760 0.929 . S
C2752 H2746 0.930 . S
C2752 C2753 1.367 . S
C2752 C2760 1.378 . S
C2753 C2752 1.367 . S
C2753 C2761 1.433 . S
C2754 H2750 0.929 . S
C2754 C2756 1.378 . S
C2754 C2758 1.350 . S
C2755 C2758 1.463 . S
C2755 C2760 1.350 . S
C2755 N2763 1.427 . S
C2756 H2747 0.930 . S
C2756 C2754 1.378 . S
C2756 C2757 1.367 . S
C2757 C2756 1.367 . S
C2757 C2759 1.433 . S
C2758 C2754 1.350 . S
C2758 C2755 1.463 . S
C2758 N2762 1.427 . S
C2759 H2749 0.929 . S
C2759 C2757 1.433 . S
C2759 N2762 1.384 . S
C2760 H2751 0.929 . S
C2760 C2752 1.378 . S
C2760 C2755 1.350 . S
C2761 H2748 0.929 . S
C2761 C2753 1.433 . S
C2761 N2763 1.384 . S
N2762 C2758 1.427 . S
N2762 C2759 1.384 . S
N2763 C2755 1.427 . S
N2763 C2761 1.384 . S
H2764 C2770 0.930 . S
H2765 C2774 0.930 . S
H2766 C2779 0.929 . S
H2767 C2777 0.929 . S
H2768 C2772 0.929 . S
H2769 C2778 0.929 . S
C2770 H2764 0.930 . S
C2770 C2771 1.367 . S
C2770 C2778 1.378 . S
C2771 C2770 1.367 . S
C2771 C2779 1.433 . S
C2772 H2768 0.929 . S
C2772 C2774 1.378 . S
C2772 C2776 1.350 . S
C2773 C2776 1.463 . S
C2773 C2778 1.350 . S
C2773 N2781 1.427 . S
C2774 H2765 0.930 . S
C2774 C2772 1.378 . S
C2774 C2775 1.367 . S
C2775 C2774 1.367 . S
C2775 C2777 1.433 . S
C2776 C2772 1.350 . S
C2776 C2773 1.463 . S
C2776 N2780 1.427 . S
C2777 H2767 0.929 . S
C2777 C2775 1.433 . S
C2777 N2780 1.384 . S
C2778 H2769 0.929 . S
C2778 C2770 1.378 . S
C2778 C2773 1.350 . S
C2779 H2766 0.929 . S
C2779 C2771 1.433 . S
C2779 N2781 1.384 . S
N2780 C2776 1.427 . S
N2780 C2777 1.384 . S
N2781 C2773 1.427 . S
N2781 C2779 1.384 . S
H2782 C2788 0.930 . S
H2783 C2792 0.930 . S
H2784 C2797 0.929 . S
H2785 C2795 0.929 . S
H2786 C2790 0.929 . S
H2787 C2796 0.929 . S
C2788 H2782 0.930 . S
C2788 C2789 1.367 . S
C2788 C2796 1.378 . S
C2789 C2788 1.367 . S
C2789 C2797 1.433 . S
C2790 H2786 0.929 . S
C2790 C2792 1.378 . S
C2790 C2794 1.350 . S
C2791 C2794 1.463 . S
C2791 C2796 1.350 . S
C2791 N2799 1.427 . S
C2792 H2783 0.930 . S
C2792 C2790 1.378 . S
C2792 C2793 1.367 . S
C2793 C2792 1.367 . S
C2793 C2795 1.433 . S
C2794 C2790 1.350 . S
C2794 C2791 1.463 . S
C2794 N2798 1.427 . S
C2795 H2785 0.929 . S
C2795 C2793 1.433 . S
C2795 N2798 1.384 . S
C2796 H2787 0.929 . S
C2796 C2788 1.378 . S
C2796 C2791 1.350 . S
C2797 H2784 0.929 . S
C2797 C2789 1.433 . S
C2797 N2799 1.384 . S
N2798 C2794 1.427 . S
N2798 C2795 1.384 . S
N2799 C2791 1.427 . S
N2799 C2797 1.384 . S
H2800 C2806 0.930 . S
H2801 C2810 0.930 . S
H2802 C2815 0.929 . S
H2803 C2813 0.929 . S
H2804 C2808 0.929 . S
H2805 C2814 0.929 . S
C2806 H2800 0.930 . S
C2806 C2807 1.367 . S
C2806 C2814 1.378 . S
C2807 C2806 1.367 . S
C2807 C2815 1.433 . S
C2808 H2804 0.929 . S
C2808 C2810 1.378 . S
C2808 C2812 1.350 . S
C2809 C2812 1.463 . S
C2809 C2814 1.350 . S
C2809 N2817 1.427 . S
C2810 H2801 0.930 . S
C2810 C2808 1.378 . S
C2810 C2811 1.367 . S
C2811 C2810 1.367 . S
C2811 C2813 1.433 . S
C2812 C2808 1.350 . S
C2812 C2809 1.463 . S
C2812 N2816 1.427 . S
C2813 H2803 0.929 . S
C2813 C2811 1.433 . S
C2813 N2816 1.384 . S
C2814 H2805 0.929 . S
C2814 C2806 1.378 . S
C2814 C2809 1.350 . S
C2815 H2802 0.929 . S
C2815 C2807 1.433 . S
C2815 N2817 1.384 . S
N2816 C2812 1.427 . S
N2816 C2813 1.384 . S
N2817 C2809 1.427 . S
N2817 C2815 1.384 . S
H2818 C2824 0.930 . S
H2819 C2828 0.930 . S
H2820 C2833 0.929 . S
H2821 C2831 0.929 . S
H2822 C2826 0.929 . S
H2823 C2832 0.929 . S
C2824 H2818 0.930 . S
C2824 C2825 1.367 . S
C2824 C2832 1.378 . S
C2825 C2824 1.367 . S
C2825 C2833 1.433 . S
C2826 H2822 0.929 . S
C2826 C2828 1.378 . S
C2826 C2830 1.350 . S
C2827 C2830 1.463 . S
C2827 C2832 1.350 . S
C2827 N2835 1.427 . S
C2828 H2819 0.930 . S
C2828 C2826 1.378 . S
C2828 C2829 1.367 . S
C2829 C2828 1.367 . S
C2829 C2831 1.433 . S
C2830 C2826 1.350 . S
C2830 C2827 1.463 . S
C2830 N2834 1.427 . S
C2831 H2821 0.929 . S
C2831 C2829 1.433 . S
C2831 N2834 1.384 . S
C2832 H2823 0.929 . S
C2832 C2824 1.378 . S
C2832 C2827 1.350 . S
C2833 H2820 0.929 . S
C2833 C2825 1.433 . S
C2833 N2835 1.384 . S
N2834 C2830 1.427 . S
N2834 C2831 1.384 . S
N2835 C2827 1.427 . S
N2835 C2833 1.384 . S
H2836 C2842 0.930 . S
H2837 C2846 0.930 . S
H2838 C2851 0.929 . S
H2839 C2849 0.929 . S
H2840 C2844 0.929 . S
H2841 C2850 0.929 . S
C2842 H2836 0.930 . S
C2842 C2843 1.367 . S
C2842 C2850 1.378 . S
C2843 C2842 1.367 . S
C2843 C2851 1.433 . S
C2844 H2840 0.929 . S
C2844 C2846 1.378 . S
C2844 C2848 1.350 . S
C2845 C2848 1.463 . S
C2845 C2850 1.350 . S
C2845 N2853 1.427 . S
C2846 H2837 0.930 . S
C2846 C2844 1.378 . S
C2846 C2847 1.367 . S
C2847 C2846 1.367 . S
C2847 C2849 1.433 . S
C2848 C2844 1.350 . S
C2848 C2845 1.463 . S
C2848 N2852 1.427 . S
C2849 H2839 0.929 . S
C2849 C2847 1.433 . S
C2849 N2852 1.384 . S
C2850 H2841 0.929 . S
C2850 C2842 1.378 . S
C2850 C2845 1.350 . S
C2851 H2838 0.929 . S
C2851 C2843 1.433 . S
C2851 N2853 1.384 . S
N2852 C2848 1.427 . S
N2852 C2849 1.384 . S
N2853 C2845 1.427 . S
N2853 C2851 1.384 . S
H2854 C2860 0.930 . S
H2855 C2864 0.930 . S
H2856 C2869 0.929 . S
H2857 C2867 0.929 . S
H2858 C2862 0.929 . S
H2859 C2868 0.929 . S
C2860 H2854 0.930 . S
C2860 C2861 1.367 . S
C2860 C2868 1.378 . S
C2861 C2860 1.367 . S
C2861 C2869 1.433 . S
C2862 H2858 0.929 . S
C2862 C2864 1.378 . S
C2862 C2866 1.350 . S
C2863 C2866 1.463 . S
C2863 C2868 1.350 . S
C2863 N2871 1.427 . S
C2864 H2855 0.930 . S
C2864 C2862 1.378 . S
C2864 C2865 1.367 . S
C2865 C2864 1.367 . S
C2865 C2867 1.433 . S
C2866 C2862 1.350 . S
C2866 C2863 1.463 . S
C2866 N2870 1.427 . S
C2867 H2857 0.929 . S
C2867 C2865 1.433 . S
C2867 N2870 1.384 . S
C2868 H2859 0.929 . S
C2868 C2860 1.378 . S
C2868 C2863 1.350 . S
C2869 H2856 0.929 . S
C2869 C2861 1.433 . S
C2869 N2871 1.384 . S
N2870 C2866 1.427 . S
N2870 C2867 1.384 . S
N2871 C2863 1.427 . S
N2871 C2869 1.384 . S
H2872 C2878 0.930 . S
H2873 C2882 0.930 . S
H2874 C2887 0.929 . S
H2875 C2885 0.929 . S
H2876 C2880 0.929 . S
H2877 C2886 0.929 . S
C2878 H2872 0.930 . S
C2878 C2879 1.367 . S
C2878 C2886 1.378 . S
C2879 C2878 1.367 . S
C2879 C2887 1.433 . S
C2880 H2876 0.929 . S
C2880 C2882 1.378 . S
C2880 C2884 1.350 . S
C2881 C2884 1.463 . S
C2881 C2886 1.350 . S
C2881 N2889 1.427 . S
C2882 H2873 0.930 . S
C2882 C2880 1.378 . S
C2882 C2883 1.367 . S
C2883 C2882 1.367 . S
C2883 C2885 1.433 . S
C2884 C2880 1.350 . S
C2884 C2881 1.463 . S
C2884 N2888 1.427 . S
C2885 H2875 0.929 . S
C2885 C2883 1.433 . S
C2885 N2888 1.384 . S
C2886 H2877 0.929 . S
C2886 C2878 1.378 . S
C2886 C2881 1.350 . S
C2887 H2874 0.929 . S
C2887 C2879 1.433 . S
C2887 N2889 1.384 . S
N2888 C2884 1.427 . S
N2888 C2885 1.384 . S
N2889 C2881 1.427 . S
N2889 C2887 1.384 . S
H2890 C2896 0.930 . S
H2891 C2900 0.930 . S
H2892 C2905 0.929 . S
H2893 C2903 0.929 . S
H2894 C2898 0.929 . S
H2895 C2904 0.929 . S
C2896 H2890 0.930 . S
C2896 C2897 1.367 . S
C2896 C2904 1.378 . S
C2897 C2896 1.367 . S
C2897 C2905 1.433 . S
C2898 H2894 0.929 . S
C2898 C2900 1.378 . S
C2898 C2902 1.350 . S
C2899 C2902 1.463 . S
C2899 C2904 1.350 . S
C2899 N2907 1.427 . S
C2900 H2891 0.930 . S
C2900 C2898 1.378 . S
C2900 C2901 1.367 . S
C2901 C2900 1.367 . S
C2901 C2903 1.433 . S
C2902 C2898 1.350 . S
C2902 C2899 1.463 . S
C2902 N2906 1.427 . S
C2903 H2893 0.929 . S
C2903 C2901 1.433 . S
C2903 N2906 1.384 . S
C2904 H2895 0.929 . S
C2904 C2896 1.378 . S
C2904 C2899 1.350 . S
C2905 H2892 0.929 . S
C2905 C2897 1.433 . S
C2905 N2907 1.384 . S
N2906 C2902 1.427 . S
N2906 C2903 1.384 . S
N2907 C2899 1.427 . S
N2907 C2905 1.384 . S
H2908 C2914 0.930 . S
H2909 C2918 0.930 . S
H2910 C2923 0.929 . S
H2911 C2921 0.929 . S
H2912 C2916 0.929 . S
H2913 C2922 0.929 . S
C2914 H2908 0.930 . S
C2914 C2915 1.367 . S
C2914 C2922 1.378 . S
C2915 C2914 1.367 . S
C2915 C2923 1.433 . S
C2916 H2912 0.929 . S
C2916 C2918 1.378 . S
C2916 C2920 1.350 . S
C2917 C2920 1.463 . S
C2917 C2922 1.350 . S
C2917 N2925 1.427 . S
C2918 H2909 0.930 . S
C2918 C2916 1.378 . S
C2918 C2919 1.367 . S
C2919 C2918 1.367 . S
C2919 C2921 1.433 . S
C2920 C2916 1.350 . S
C2920 C2917 1.463 . S
C2920 N2924 1.427 . S
C2921 H2911 0.929 . S
C2921 C2919 1.433 . S
C2921 N2924 1.384 . S
C2922 H2913 0.929 . S
C2922 C2914 1.378 . S
C2922 C2917 1.350 . S
C2923 H2910 0.929 . S
C2923 C2915 1.433 . S
C2923 N2925 1.384 . S
N2924 C2920 1.427 . S
N2924 C2921 1.384 . S
N2925 C2917 1.427 . S
N2925 C2923 1.384 . S
H2926 C2932 0.930 . S
H2927 C2936 0.930 . S
H2928 C2941 0.929 . S
H2929 C2939 0.929 . S
H2930 C2934 0.929 . S
H2931 C2940 0.929 . S
C2932 H2926 0.930 . S
C2932 C2933 1.367 . S
C2932 C2940 1.378 . S
C2933 C2932 1.367 . S
C2933 C2941 1.433 . S
C2934 H2930 0.929 . S
C2934 C2936 1.378 . S
C2934 C2938 1.350 . S
C2935 C2938 1.463 . S
C2935 C2940 1.350 . S
C2935 N2943 1.427 . S
C2936 H2927 0.930 . S
C2936 C2934 1.378 . S
C2936 C2937 1.367 . S
C2937 C2936 1.367 . S
C2937 C2939 1.433 . S
C2938 C2934 1.350 . S
C2938 C2935 1.463 . S
C2938 N2942 1.427 . S
C2939 H2929 0.929 . S
C2939 C2937 1.433 . S
C2939 N2942 1.384 . S
C2940 H2931 0.929 . S
C2940 C2932 1.378 . S
C2940 C2935 1.350 . S
C2941 H2928 0.929 . S
C2941 C2933 1.433 . S
C2941 N2943 1.384 . S
N2942 C2938 1.427 . S
N2942 C2939 1.384 . S
N2943 C2935 1.427 . S
N2943 C2941 1.384 . S
H2944 C2950 0.930 . S
H2945 C2954 0.930 . S
H2946 C2959 0.929 . S
H2947 C2957 0.929 . S
H2948 C2952 0.929 . S
H2949 C2958 0.929 . S
C2950 H2944 0.930 . S
C2950 C2951 1.367 . S
C2950 C2958 1.378 . S
C2951 C2950 1.367 . S
C2951 C2959 1.433 . S
C2952 H2948 0.929 . S
C2952 C2954 1.378 . S
C2952 C2956 1.350 . S
C2953 C2956 1.463 . S
C2953 C2958 1.350 . S
C2953 N2961 1.427 . S
C2954 H2945 0.930 . S
C2954 C2952 1.378 . S
C2954 C2955 1.367 . S
C2955 C2954 1.367 . S
C2955 C2957 1.433 . S
C2956 C2952 1.350 . S
C2956 C2953 1.463 . S
C2956 N2960 1.427 . S
C2957 H2947 0.929 . S
C2957 C2955 1.433 . S
C2957 N2960 1.384 . S
C2958 H2949 0.929 . S
C2958 C2950 1.378 . S
C2958 C2953 1.350 . S
C2959 H2946 0.929 . S
C2959 C2951 1.433 . S
C2959 N2961 1.384 . S
N2960 C2956 1.427 . S
N2960 C2957 1.384 . S
N2961 C2953 1.427 . S
N2961 C2959 1.384 . S
H2962 C2968 0.930 . S
H2963 C2972 0.930 . S
H2964 C2977 0.929 . S
H2965 C2975 0.929 . S
H2966 C2970 0.929 . S
H2967 C2976 0.929 . S
C2968 H2962 0.930 . S
C2968 C2969 1.367 . S
C2968 C2976 1.378 . S
C2969 C2968 1.367 . S
C2969 C2977 1.433 . S
C2970 H2966 0.929 . S
C2970 C2972 1.378 . S
C2970 C2974 1.350 . S
C2971 C2974 1.463 . S
C2971 C2976 1.350 . S
C2971 N2979 1.427 . S
C2972 H2963 0.930 . S
C2972 C2970 1.378 . S
C2972 C2973 1.367 . S
C2973 C2972 1.367 . S
C2973 C2975 1.433 . S
C2974 C2970 1.350 . S
C2974 C2971 1.463 . S
C2974 N2978 1.427 . S
C2975 H2965 0.929 . S
C2975 C2973 1.433 . S
C2975 N2978 1.384 . S
C2976 H2967 0.929 . S
C2976 C2968 1.378 . S
C2976 C2971 1.350 . S
C2977 H2964 0.929 . S
C2977 C2969 1.433 . S
C2977 N2979 1.384 . S
N2978 C2974 1.427 . S
N2978 C2975 1.384 . S
N2979 C2971 1.427 . S
N2979 C2977 1.384 . S
H2980 C2986 0.930 . S
H2981 C2990 0.930 . S
H2982 C2995 0.929 . S
H2983 C2993 0.929 . S
H2984 C2988 0.929 . S
H2985 C2994 0.929 . S
C2986 H2980 0.930 . S
C2986 C2987 1.367 . S
C2986 C2994 1.378 . S
C2987 C2986 1.367 . S
C2987 C2995 1.433 . S
C2988 H2984 0.929 . S
C2988 C2990 1.378 . S
C2988 C2992 1.350 . S
C2989 C2992 1.463 . S
C2989 C2994 1.350 . S
C2989 N2997 1.427 . S
C2990 H2981 0.930 . S
C2990 C2988 1.378 . S
C2990 C2991 1.367 . S
C2991 C2990 1.367 . S
C2991 C2993 1.433 . S
C2992 C2988 1.350 . S
C2992 C2989 1.463 . S
C2992 N2996 1.427 . S
C2993 H2983 0.929 . S
C2993 C2991 1.433 . S
C2993 N2996 1.384 . S
C2994 H2985 0.929 . S
C2994 C2986 1.378 . S
C2994 C2989 1.350 . S
C2995 H2982 0.929 . S
C2995 C2987 1.433 . S
C2995 N2997 1.384 . S
N2996 C2992 1.427 . S
N2996 C2993 1.384 . S
N2997 C2989 1.427 . S
N2997 C2995 1.384 . S
H2998 C3004 0.930 . S
H2999 C3008 0.930 . S
H3000 C3013 0.929 . S
H3001 C3011 0.929 . S
H3002 C3006 0.929 . S
H3003 C3012 0.929 . S
C3004 H2998 0.930 . S
C3004 C3005 1.367 . S
C3004 C3012 1.378 . S
C3005 C3004 1.367 . S
C3005 C3013 1.433 . S
C3006 H3002 0.929 . S
C3006 C3008 1.378 . S
C3006 C3010 1.350 . S
C3007 C3010 1.463 . S
C3007 C3012 1.350 . S
C3007 N3015 1.427 . S
C3008 H2999 0.930 . S
C3008 C3006 1.378 . S
C3008 C3009 1.367 . S
C3009 C3008 1.367 . S
C3009 C3011 1.433 . S
C3010 C3006 1.350 . S
C3010 C3007 1.463 . S
C3010 N3014 1.427 . S
C3011 H3001 0.929 . S
C3011 C3009 1.433 . S
C3011 N3014 1.384 . S
C3012 H3003 0.929 . S
C3012 C3004 1.378 . S
C3012 C3007 1.350 . S
C3013 H3000 0.929 . S
C3013 C3005 1.433 . S
C3013 N3015 1.384 . S
N3014 C3010 1.427 . S
N3014 C3011 1.384 . S
N3015 C3007 1.427 . S
N3015 C3013 1.384 . S
H3016 C3022 0.930 . S
H3017 C3026 0.930 . S
H3018 C3031 0.929 . S
H3019 C3029 0.929 . S
H3020 C3024 0.929 . S
H3021 C3030 0.929 . S
C3022 H3016 0.930 . S
C3022 C3023 1.367 . S
C3022 C3030 1.378 . S
C3023 C3022 1.367 . S
C3023 C3031 1.433 . S
C3024 H3020 0.929 . S
C3024 C3026 1.378 . S
C3024 C3028 1.350 . S
C3025 C3028 1.463 . S
C3025 C3030 1.350 . S
C3025 N3033 1.427 . S
C3026 H3017 0.930 . S
C3026 C3024 1.378 . S
C3026 C3027 1.367 . S
C3027 C3026 1.367 . S
C3027 C3029 1.433 . S
C3028 C3024 1.350 . S
C3028 C3025 1.463 . S
C3028 N3032 1.427 . S
C3029 H3019 0.929 . S
C3029 C3027 1.433 . S
C3029 N3032 1.384 . S
C3030 H3021 0.929 . S
C3030 C3022 1.378 . S
C3030 C3025 1.350 . S
C3031 H3018 0.929 . S
C3031 C3023 1.433 . S
C3031 N3033 1.384 . S
N3032 C3028 1.427 . S
N3032 C3029 1.384 . S
N3033 C3025 1.427 . S
N3033 C3031 1.384 . S
H3034 C3040 0.930 . S
H3035 C3044 0.930 . S
H3036 C3049 0.929 . S
H3037 C3047 0.929 . S
H3038 C3042 0.929 . S
H3039 C3048 0.929 . S
C3040 H3034 0.930 . S
C3040 C3041 1.367 . S
C3040 C3048 1.378 . S
C3041 C3040 1.367 . S
C3041 C3049 1.433 . S
C3042 H3038 0.929 . S
C3042 C3044 1.378 . S
C3042 C3046 1.350 . S
C3043 C3046 1.463 . S
C3043 C3048 1.350 . S
C3043 N3051 1.427 . S
C3044 H3035 0.930 . S
C3044 C3042 1.378 . S
C3044 C3045 1.367 . S
C3045 C3044 1.367 . S
C3045 C3047 1.433 . S
C3046 C3042 1.350 . S
C3046 C3043 1.463 . S
C3046 N3050 1.427 . S
C3047 H3037 0.929 . S
C3047 C3045 1.433 . S
C3047 N3050 1.384 . S
C3048 H3039 0.929 . S
C3048 C3040 1.378 . S
C3048 C3043 1.350 . S
C3049 H3036 0.929 . S
C3049 C3041 1.433 . S
C3049 N3051 1.384 . S
N3050 C3046 1.427 . S
N3050 C3047 1.384 . S
N3051 C3043 1.427 . S
N3051 C3049 1.384 . S
H3052 C3058 0.930 . S
H3053 C3062 0.930 . S
H3054 C3067 0.929 . S
H3055 C3065 0.929 . S
H3056 C3060 0.929 . S
H3057 C3066 0.929 . S
C3058 H3052 0.930 . S
C3058 C3059 1.367 . S
C3058 C3066 1.378 . S
C3059 C3058 1.367 . S
C3059 C3067 1.433 . S
C3060 H3056 0.929 . S
C3060 C3062 1.378 . S
C3060 C3064 1.350 . S
C3061 C3064 1.463 . S
C3061 C3066 1.350 . S
C3061 N3069 1.427 . S
C3062 H3053 0.930 . S
C3062 C3060 1.378 . S
C3062 C3063 1.367 . S
C3063 C3062 1.367 . S
C3063 C3065 1.433 . S
C3064 C3060 1.350 . S
C3064 C3061 1.463 . S
C3064 N3068 1.427 . S
C3065 H3055 0.929 . S
C3065 C3063 1.433 . S
C3065 N3068 1.384 . S
C3066 H3057 0.929 . S
C3066 C3058 1.378 . S
C3066 C3061 1.350 . S
C3067 H3054 0.929 . S
C3067 C3059 1.433 . S
C3067 N3069 1.384 . S
N3068 C3064 1.427 . S
N3068 C3065 1.384 . S
N3069 C3061 1.427 . S
N3069 C3067 1.384 . S
H3070 C3076 0.930 . S
H3071 C3080 0.930 . S
H3072 C3085 0.929 . S
H3073 C3083 0.929 . S
H3074 C3078 0.929 . S
H3075 C3084 0.929 . S
C3076 H3070 0.930 . S
C3076 C3077 1.367 . S
C3076 C3084 1.378 . S
C3077 C3076 1.367 . S
C3077 C3085 1.433 . S
C3078 H3074 0.929 . S
C3078 C3080 1.378 . S
C3078 C3082 1.350 . S
C3079 C3082 1.463 . S
C3079 C3084 1.350 . S
C3079 N3087 1.427 . S
C3080 H3071 0.930 . S
C3080 C3078 1.378 . S
C3080 C3081 1.367 . S
C3081 C3080 1.367 . S
C3081 C3083 1.433 . S
C3082 C3078 1.350 . S
C3082 C3079 1.463 . S
C3082 N3086 1.427 . S
C3083 H3073 0.929 . S
C3083 C3081 1.433 . S
C3083 N3086 1.384 . S
C3084 H3075 0.929 . S
C3084 C3076 1.378 . S
C3084 C3079 1.350 . S
C3085 H3072 0.929 . S
C3085 C3077 1.433 . S
C3085 N3087 1.384 . S
N3086 C3082 1.427 . S
N3086 C3083 1.384 . S
N3087 C3079 1.427 . S
N3087 C3085 1.384 . S
H3088 C3094 0.930 . S
H3089 C3098 0.930 . S
H3090 C3103 0.929 . S
H3091 C3101 0.929 . S
H3092 C3096 0.929 . S
H3093 C3102 0.929 . S
C3094 H3088 0.930 . S
C3094 C3095 1.367 . S
C3094 C3102 1.378 . S
C3095 C3094 1.367 . S
C3095 C3103 1.433 . S
C3096 H3092 0.929 . S
C3096 C3098 1.378 . S
C3096 C3100 1.350 . S
C3097 C3100 1.463 . S
C3097 C3102 1.350 . S
C3097 N3105 1.427 . S
C3098 H3089 0.930 . S
C3098 C3096 1.378 . S
C3098 C3099 1.367 . S
C3099 C3098 1.367 . S
C3099 C3101 1.433 . S
C3100 C3096 1.350 . S
C3100 C3097 1.463 . S
C3100 N3104 1.427 . S
C3101 H3091 0.929 . S
C3101 C3099 1.433 . S
C3101 N3104 1.384 . S
C3102 H3093 0.929 . S
C3102 C3094 1.378 . S
C3102 C3097 1.350 . S
C3103 H3090 0.929 . S
C3103 C3095 1.433 . S
C3103 N3105 1.384 . S
N3104 C3100 1.427 . S
N3104 C3101 1.384 . S
N3105 C3097 1.427 . S
N3105 C3103 1.384 . S
H3106 C3112 0.930 . S
H3107 C3116 0.930 . S
H3108 C3121 0.929 . S
H3109 C3119 0.929 . S
H3110 C3114 0.929 . S
H3111 C3120 0.929 . S
C3112 H3106 0.930 . S
C3112 C3113 1.367 . S
C3112 C3120 1.378 . S
C3113 C3112 1.367 . S
C3113 C3121 1.433 . S
C3114 H3110 0.929 . S
C3114 C3116 1.378 . S
C3114 C3118 1.350 . S
C3115 C3118 1.463 . S
C3115 C3120 1.350 . S
C3115 N3123 1.427 . S
C3116 H3107 0.930 . S
C3116 C3114 1.378 . S
C3116 C3117 1.367 . S
C3117 C3116 1.367 . S
C3117 C3119 1.433 . S
C3118 C3114 1.350 . S
C3118 C3115 1.463 . S
C3118 N3122 1.427 . S
C3119 H3109 0.929 . S
C3119 C3117 1.433 . S
C3119 N3122 1.384 . S
C3120 H3111 0.929 . S
C3120 C3112 1.378 . S
C3120 C3115 1.350 . S
C3121 H3108 0.929 . S
C3121 C3113 1.433 . S
C3121 N3123 1.384 . S
N3122 C3118 1.427 . S
N3122 C3119 1.384 . S
N3123 C3115 1.427 . S
N3123 C3121 1.384 . S
H3124 C3130 0.930 . S
H3125 C3134 0.930 . S
H3126 C3139 0.929 . S
H3127 C3137 0.929 . S
H3128 C3132 0.929 . S
H3129 C3138 0.929 . S
C3130 H3124 0.930 . S
C3130 C3131 1.367 . S
C3130 C3138 1.378 . S
C3131 C3130 1.367 . S
C3131 C3139 1.433 . S
C3132 H3128 0.929 . S
C3132 C3134 1.378 . S
C3132 C3136 1.350 . S
C3133 C3136 1.463 . S
C3133 C3138 1.350 . S
C3133 N3141 1.427 . S
C3134 H3125 0.930 . S
C3134 C3132 1.378 . S
C3134 C3135 1.367 . S
C3135 C3134 1.367 . S
C3135 C3137 1.433 . S
C3136 C3132 1.350 . S
C3136 C3133 1.463 . S
C3136 N3140 1.427 . S
C3137 H3127 0.929 . S
C3137 C3135 1.433 . S
C3137 N3140 1.384 . S
C3138 H3129 0.929 . S
C3138 C3130 1.378 . S
C3138 C3133 1.350 . S
C3139 H3126 0.929 . S
C3139 C3131 1.433 . S
C3139 N3141 1.384 . S
N3140 C3136 1.427 . S
N3140 C3137 1.384 . S
N3141 C3133 1.427 . S
N3141 C3139 1.384 . S
H3142 C3148 0.930 . S
H3143 C3152 0.930 . S
H3144 C3157 0.929 . S
H3145 C3155 0.929 . S
H3146 C3150 0.929 . S
H3147 C3156 0.929 . S
C3148 H3142 0.930 . S
C3148 C3149 1.367 . S
C3148 C3156 1.378 . S
C3149 C3148 1.367 . S
C3149 C3157 1.433 . S
C3150 H3146 0.929 . S
C3150 C3152 1.378 . S
C3150 C3154 1.350 . S
C3151 C3154 1.463 . S
C3151 C3156 1.350 . S
C3151 N3159 1.427 . S
C3152 H3143 0.930 . S
C3152 C3150 1.378 . S
C3152 C3153 1.367 . S
C3153 C3152 1.367 . S
C3153 C3155 1.433 . S
C3154 C3150 1.350 . S
C3154 C3151 1.463 . S
C3154 N3158 1.427 . S
C3155 H3145 0.929 . S
C3155 C3153 1.433 . S
C3155 N3158 1.384 . S
C3156 H3147 0.929 . S
C3156 C3148 1.378 . S
C3156 C3151 1.350 . S
C3157 H3144 0.929 . S
C3157 C3149 1.433 . S
C3157 N3159 1.384 . S
N3158 C3154 1.427 . S
N3158 C3155 1.384 . S
N3159 C3151 1.427 . S
N3159 C3157 1.384 . S
H3160 C3166 0.930 . S
H3161 C3170 0.930 . S
H3162 C3175 0.929 . S
H3163 C3173 0.929 . S
H3164 C3168 0.929 . S
H3165 C3174 0.929 . S
C3166 H3160 0.930 . S
C3166 C3167 1.367 . S
C3166 C3174 1.378 . S
C3167 C3166 1.367 . S
C3167 C3175 1.433 . S
C3168 H3164 0.929 . S
C3168 C3170 1.378 . S
C3168 C3172 1.350 . S
C3169 C3172 1.463 . S
C3169 C3174 1.350 . S
C3169 N3177 1.427 . S
C3170 H3161 0.930 . S
C3170 C3168 1.378 . S
C3170 C3171 1.367 . S
C3171 C3170 1.367 . S
C3171 C3173 1.433 . S
C3172 C3168 1.350 . S
C3172 C3169 1.463 . S
C3172 N3176 1.427 . S
C3173 H3163 0.929 . S
C3173 C3171 1.433 . S
C3173 N3176 1.384 . S
C3174 H3165 0.929 . S
C3174 C3166 1.378 . S
C3174 C3169 1.350 . S
C3175 H3162 0.929 . S
C3175 C3167 1.433 . S
C3175 N3177 1.384 . S
N3176 C3172 1.427 . S
N3176 C3173 1.384 . S
N3177 C3169 1.427 . S
N3177 C3175 1.384 . S
H3178 C3184 0.930 . S
H3179 C3188 0.930 . S
H3180 C3193 0.929 . S
H3181 C3191 0.929 . S
H3182 C3186 0.929 . S
H3183 C3192 0.929 . S
C3184 H3178 0.930 . S
C3184 C3185 1.367 . S
C3184 C3192 1.378 . S
C3185 C3184 1.367 . S
C3185 C3193 1.433 . S
C3186 H3182 0.929 . S
C3186 C3188 1.378 . S
C3186 C3190 1.350 . S
C3187 C3190 1.463 . S
C3187 C3192 1.350 . S
C3187 N3195 1.427 . S
C3188 H3179 0.930 . S
C3188 C3186 1.378 . S
C3188 C3189 1.367 . S
C3189 C3188 1.367 . S
C3189 C3191 1.433 . S
C3190 C3186 1.350 . S
C3190 C3187 1.463 . S
C3190 N3194 1.427 . S
C3191 H3181 0.929 . S
C3191 C3189 1.433 . S
C3191 N3194 1.384 . S
C3192 H3183 0.929 . S
C3192 C3184 1.378 . S
C3192 C3187 1.350 . S
C3193 H3180 0.929 . S
C3193 C3185 1.433 . S
C3193 N3195 1.384 . S
N3194 C3190 1.427 . S
N3194 C3191 1.384 . S
N3195 C3187 1.427 . S
N3195 C3193 1.384 . S
H3196 C3202 0.930 . S
H3197 C3206 0.930 . S
H3198 C3211 0.929 . S
H3199 C3209 0.929 . S
H3200 C3204 0.929 . S
H3201 C3210 0.929 . S
C3202 H3196 0.930 . S
C3202 C3203 1.367 . S
C3202 C3210 1.378 . S
C3203 C3202 1.367 . S
C3203 C3211 1.433 . S
C3204 H3200 0.929 . S
C3204 C3206 1.378 . S
C3204 C3208 1.350 . S
C3205 C3208 1.463 . S
C3205 C3210 1.350 . S
C3205 N3213 1.427 . S
C3206 H3197 0.930 . S
C3206 C3204 1.378 . S
C3206 C3207 1.367 . S
C3207 C3206 1.367 . S
C3207 C3209 1.433 . S
C3208 C3204 1.350 . S
C3208 C3205 1.463 . S
C3208 N3212 1.427 . S
C3209 H3199 0.929 . S
C3209 C3207 1.433 . S
C3209 N3212 1.384 . S
C3210 H3201 0.929 . S
C3210 C3202 1.378 . S
C3210 C3205 1.350 . S
C3211 H3198 0.929 . S
C3211 C3203 1.433 . S
C3211 N3213 1.384 . S
N3212 C3208 1.427 . S
N3212 C3209 1.384 . S
N3213 C3205 1.427 . S
N3213 C3211 1.384 . S
H3214 C3220 0.930 . S
H3215 C3224 0.930 . S
H3216 C3229 0.929 . S
H3217 C3227 0.929 . S
H3218 C3222 0.929 . S
H3219 C3228 0.929 . S
C3220 H3214 0.930 . S
C3220 C3221 1.367 . S
C3220 C3228 1.378 . S
C3221 C3220 1.367 . S
C3221 C3229 1.433 . S
C3222 H3218 0.929 . S
C3222 C3224 1.378 . S
C3222 C3226 1.350 . S
C3223 C3226 1.463 . S
C3223 C3228 1.350 . S
C3223 N3231 1.427 . S
C3224 H3215 0.930 . S
C3224 C3222 1.378 . S
C3224 C3225 1.367 . S
C3225 C3224 1.367 . S
C3225 C3227 1.433 . S
C3226 C3222 1.350 . S
C3226 C3223 1.463 . S
C3226 N3230 1.427 . S
C3227 H3217 0.929 . S
C3227 C3225 1.433 . S
C3227 N3230 1.384 . S
C3228 H3219 0.929 . S
C3228 C3220 1.378 . S
C3228 C3223 1.350 . S
C3229 H3216 0.929 . S
C3229 C3221 1.433 . S
C3229 N3231 1.384 . S
N3230 C3226 1.427 . S
N3230 C3227 1.384 . S
N3231 C3223 1.427 . S
N3231 C3229 1.384 . S
H3232 C3238 0.930 . S
H3233 C3242 0.930 . S
H3234 C3247 0.929 . S
H3235 C3245 0.929 . S
H3236 C3240 0.929 . S
H3237 C3246 0.929 . S
C3238 H3232 0.930 . S
C3238 C3239 1.367 . S
C3238 C3246 1.378 . S
C3239 C3238 1.367 . S
C3239 C3247 1.433 . S
C3240 H3236 0.929 . S
C3240 C3242 1.378 . S
C3240 C3244 1.350 . S
C3241 C3244 1.463 . S
C3241 C3246 1.350 . S
C3241 N3249 1.427 . S
C3242 H3233 0.930 . S
C3242 C3240 1.378 . S
C3242 C3243 1.367 . S
C3243 C3242 1.367 . S
C3243 C3245 1.433 . S
C3244 C3240 1.350 . S
C3244 C3241 1.463 . S
C3244 N3248 1.427 . S
C3245 H3235 0.929 . S
C3245 C3243 1.433 . S
C3245 N3248 1.384 . S
C3246 H3237 0.929 . S
C3246 C3238 1.378 . S
C3246 C3241 1.350 . S
C3247 H3234 0.929 . S
C3247 C3239 1.433 . S
C3247 N3249 1.384 . S
N3248 C3244 1.427 . S
N3248 C3245 1.384 . S
N3249 C3241 1.427 . S
N3249 C3247 1.384 . S
H3250 C3256 0.930 . S
H3251 C3260 0.930 . S
H3252 C3265 0.929 . S
H3253 C3263 0.929 . S
H3254 C3258 0.929 . S
H3255 C3264 0.929 . S
C3256 H3250 0.930 . S
C3256 C3257 1.367 . S
C3256 C3264 1.378 . S
C3257 C3256 1.367 . S
C3257 C3265 1.433 . S
C3258 H3254 0.929 . S
C3258 C3260 1.378 . S
C3258 C3262 1.350 . S
C3259 C3262 1.463 . S
C3259 C3264 1.350 . S
C3259 N3267 1.427 . S
C3260 H3251 0.930 . S
C3260 C3258 1.378 . S
C3260 C3261 1.367 . S
C3261 C3260 1.367 . S
C3261 C3263 1.433 . S
C3262 C3258 1.350 . S
C3262 C3259 1.463 . S
C3262 N3266 1.427 . S
C3263 H3253 0.929 . S
C3263 C3261 1.433 . S
C3263 N3266 1.384 . S
C3264 H3255 0.929 . S
C3264 C3256 1.378 . S
C3264 C3259 1.350 . S
C3265 H3252 0.929 . S
C3265 C3257 1.433 . S
C3265 N3267 1.384 . S
N3266 C3262 1.427 . S
N3266 C3263 1.384 . S
N3267 C3259 1.427 . S
N3267 C3265 1.384 . S
H3268 C3274 0.930 . S
H3269 C3278 0.930 . S
H3270 C3283 0.929 . S
H3271 C3281 0.929 . S
H3272 C3276 0.929 . S
H3273 C3282 0.929 . S
C3274 H3268 0.930 . S
C3274 C3275 1.367 . S
C3274 C3282 1.378 . S
C3275 C3274 1.367 . S
C3275 C3283 1.433 . S
C3276 H3272 0.929 . S
C3276 C3278 1.378 . S
C3276 C3280 1.350 . S
C3277 C3280 1.463 . S
C3277 C3282 1.350 . S
C3277 N3285 1.427 . S
C3278 H3269 0.930 . S
C3278 C3276 1.378 . S
C3278 C3279 1.367 . S
C3279 C3278 1.367 . S
C3279 C3281 1.433 . S
C3280 C3276 1.350 . S
C3280 C3277 1.463 . S
C3280 N3284 1.427 . S
C3281 H3271 0.929 . S
C3281 C3279 1.433 . S
C3281 N3284 1.384 . S
C3282 H3273 0.929 . S
C3282 C3274 1.378 . S
C3282 C3277 1.350 . S
C3283 H3270 0.929 . S
C3283 C3275 1.433 . S
C3283 N3285 1.384 . S
N3284 C3280 1.427 . S
N3284 C3281 1.384 . S
N3285 C3277 1.427 . S
N3285 C3283 1.384 . S
H3286 C3292 0.930 . S
H3287 C3296 0.930 . S
H3288 C3301 0.929 . S
H3289 C3299 0.929 . S
H3290 C3294 0.929 . S
H3291 C3300 0.929 . S
C3292 H3286 0.930 . S
C3292 C3293 1.367 . S
C3292 C3300 1.378 . S
C3293 C3292 1.367 . S
C3293 C3301 1.433 . S
C3294 H3290 0.929 . S
C3294 C3296 1.378 . S
C3294 C3298 1.350 . S
C3295 C3298 1.463 . S
C3295 C3300 1.350 . S
C3295 N3303 1.427 . S
C3296 H3287 0.930 . S
C3296 C3294 1.378 . S
C3296 C3297 1.367 . S
C3297 C3296 1.367 . S
C3297 C3299 1.433 . S
C3298 C3294 1.350 . S
C3298 C3295 1.463 . S
C3298 N3302 1.427 . S
C3299 H3289 0.929 . S
C3299 C3297 1.433 . S
C3299 N3302 1.384 . S
C3300 H3291 0.929 . S
C3300 C3292 1.378 . S
C3300 C3295 1.350 . S
C3301 H3288 0.929 . S
C3301 C3293 1.433 . S
C3301 N3303 1.384 . S
N3302 C3298 1.427 . S
N3302 C3299 1.384 . S
N3303 C3295 1.427 . S
N3303 C3301 1.384 . S
C1587 N1036 1.503 . S
C1583 C29 1.502 . S
C1605 C1063 1.605 . S
C1601 C61 1.589 . S
C1619 C93 1.521 . S
C1623 C1077 1.536 . S
C1641 N1095 1.442 . S
C1637 C119 1.464 . S
C1655 C157 1.578 . S
C1659 C1100 1.618 . S
C1673 C177 1.481 . S
C1677 C1040 1.501 . S
C1691 C221 1.429 . S
C1695 N1059 1.396 . S
C1713 N1072 1.477 . S
C1709 C253 1.495 . S
C1731 N1118 1.407 . S
C1727 C17 1.411 . S
C1745 C55 1.472 . S
C1749 N1141 1.467 . S
C1763 C87 1.522 . S
C1767 N1164 1.518 . S
C1785 N1197 1.421 . S
C1781 C113 1.444 . S
C1799 C145 1.494 . S
C1803 C1224 1.516 . S
C1821 C1247 1.544 . S
C1817 C183 1.523 . S
C1835 C215 1.485 . S
C1839 C1270 1.494 . S
C1857 C1284 1.401 . S
C1853 C247 1.394 . S
C1871 C23 1.381 . S
C1875 C1201 1.424 . S
C1889 C151 1.425 . S
C1893 N1243 1.425 . S
C1911 N1266 1.452 . S
C1907 C189 1.454 . S
C1925 C209 1.459 . S
C1929 N1279 1.429 . S
C1947 N1220 1.432 . S
C1943 C241 1.473 . S
C1965 C1146 1.649 . S
C1961 C81 1.638 . S
C1979 C125 1.511 . S
C1983 C1169 1.530 . S
C2001 C1123 1.599 . S
C1997 C49 1.580 . S
C2019 C1316 1.509 . S
C2015 C285 1.472 . S
C2033 C317 1.598 . S
C2037 C1330 1.621 . S
C2051 C349 1.515 . S
C2055 N1358 1.474 . S
C2073 N1371 1.432 . S
C2069 C375 1.447 . S
C2087 C413 1.583 . S
C2091 C1376 1.624 . S
C2105 C433 1.470 . S
C2109 N1312 1.456 . S
C2123 C477 1.516 . S
C2127 N1325 1.490 . S
C2141 C509 1.465 . S
C2145 C1362 1.472 . S
C2163 N1210 1.411 . S
C2159 C273 1.409 . S
C2177 C311 1.459 . S
C2181 N1394 1.427 . S
C2199 N1256 1.433 . S
C2195 C343 1.449 . S
C2213 C369 1.485 . S
C2217 C1431 1.506 . S
C2231 C401 1.523 . S
C2235 C1132 1.548 . S
C2253 C1445 1.578 . S
C2249 C439 1.545 . S
C2267 C471 1.521 . S
C2271 C1178 1.524 . S
C2289 N1463 1.375 . S
C2285 C503 1.384 . S
C2303 C279 1.402 . S
C2307 N1427 1.401 . S
C2325 N1440 1.462 . S
C2321 C407 1.453 . S
C2339 C445 1.458 . S
C2343 N1174 1.460 . S
C2361 C1468 1.444 . S
C2357 C465 1.433 . S
C2375 C497 1.441 . S
C2379 N1128 1.420 . S
C2393 C337 1.542 . S
C2397 C1399 1.555 . S
C2411 C381 1.562 . S
C2415 C1261 1.577 . S
C2429 C305 1.570 . S
C2433 C1215 1.596 . S
C2447 C541 1.530 . S
C2451 C1353 1.574 . S
C2469 C1385 1.558 . S
C2465 C573 1.540 . S
C2483 C605 1.484 . S
C2487 N1302 1.463 . S
C2501 C631 1.429 . S
C2505 N1335 1.414 . S
C2519 C669 1.580 . S
C2523 C1339 1.624 . S
C2537 C689 1.526 . S
C2541 N1348 1.519 . S
C2559 N1381 1.384 . S
C2555 C733 1.406 . S
C2573 C765 1.513 . S
C2577 C1307 1.529 . S
C2595 N1496 1.429 . S
C2591 C529 1.435 . S
C2609 C567 1.402 . S
C2613 N1233 1.401 . S
C2631 N1519 1.361 . S
C2627 C599 1.400 . S
C2645 C625 1.458 . S
C2649 N1289 1.437 . S
C2663 C657 1.498 . S
C2667 C1537 1.529 . S
C2681 C695 1.595 . S
C2685 C1155 1.632 . S
C2703 N1555 1.378 . S
C2699 C727 1.405 . S
C2717 C759 1.441 . S
C2721 C1192 1.448 . S
C2739 C1293 1.465 . S
C2735 C535 1.423 . S
C2757 N1151 1.463 . S
C2753 C663 1.472 . S
C2771 C701 1.546 . S
C2775 C1560 1.590 . S
C2789 C721 1.400 . S
C2793 N1187 1.358 . S
C2811 N1532 1.492 . S
C2807 C753 1.512 . S
C2829 C1238 1.549 . S
C2825 C593 1.537 . S
C2847 C1523 1.576 . S
C2843 C637 1.564 . S
C2865 C1500 1.562 . S
C2861 C561 1.545 . S
C2879 C797 1.423 . S
C2883 N1082 1.427 . S
C2897 C829 1.560 . S
C2901 C1109 1.577 . S
C2919 C1031 1.568 . S
C2915 C861 1.539 . S
C2937 N1049 1.375 . S
C2933 C887 1.403 . S
C2955 C1054 1.626 . S
C2951 C925 1.588 . S
C2973 C1086 1.508 . S
C2969 C945 1.481 . S
C2991 N1105 1.494 . S
C2987 C989 1.520 . S
C3005 C1021 1.527 . S
C3009 N1026 1.508 . S
C3023 C785 1.350 . S
C3027 N1542 1.342 . S
C3045 N1450 1.428 . S
C3041 C823 1.437 . S
C3063 C1569 1.569 . S
C3059 C855 1.548 . S
C3081 C1477 1.382 . S
C3077 C881 1.383 . S
C3095 C913 1.516 . S
C3099 C1491 1.549 . S
C3117 C1408 1.557 . S
C3113 C951 1.527 . S
C3135 C1514 1.632 . S
C3131 C983 1.620 . S
C3149 C1015 1.436 . S
C3153 N1417 1.414 . S
C3171 N1473 1.329 . S
C3167 C791 1.329 . S
C3189 N1404 1.433 . S
C3185 C919 1.433 . S
C3207 N1509 1.415 . S
C3203 C957 1.410 . S
C3221 C977 1.492 . S
C3225 C1422 1.509 . S
C3239 C1009 1.461 . S
C3243 N1486 1.425 . S
C3257 C849 1.634 . S
C3261 C1454 1.647 . S
C3275 C893 1.439 . S
C3279 N1565 1.409 . S
C3297 C1546 1.538 . S
C3293 C817 1.530 . S
