# Generated by pormake.
# Topology tsx, (6,3)-cn, num edge types: 1
# Building blocks:
#     Node 0, Type 0, BuildingBlock: FUNLAD_clean_sbu_0, # of connection points: 6
#     Node 1, Type 0, BuildingBlock: FUNLAD_clean_sbu_0, # of connection points: 6
#     Node 2, Type 1, BuildingBlock: MIDCAF_clean_linker_0, # of connection points: 3
#     Node 3, Type 1, BuildingBlock: MIDCAF_clean_linker_0, # of connection points: 3
#     Node 4, Type 1, BuildingBlock: MIDCAF_clean_linker_0, # of connection points: 3
#     Node 5, Type 1, BuildingBlock: MIDCAF_clean_linker_0, # of connection points: 3
#     Edge 6, Type (0, 1), BuildingBlock: MIFKUJ_clean_linker_0, # of connection points: 2
#     Edge 7, Type (0, 1), BuildingBlock: MIFKUJ_clean_linker_0, # of connection points: 2
#     Edge 8, Type (0, 1), BuildingBlock: MIFKUJ_clean_linker_0, # of connection points: 2
#     Edge 9, Type (0, 1), BuildingBlock: MIFKUJ_clean_linker_0, # of connection points: 2
#     Edge 10, Type (0, 1), BuildingBlock: MIFKUJ_clean_linker_0, # of connection points: 2
#     Edge 11, Type (0, 1), BuildingBlock: MIFKUJ_clean_linker_0, # of connection points: 2
#     Edge 12, Type (0, 1), BuildingBlock: MIFKUJ_clean_linker_0, # of connection points: 2
#     Edge 13, Type (0, 1), BuildingBlock: MIFKUJ_clean_linker_0, # of connection points: 2
#     Edge 14, Type (0, 1), BuildingBlock: MIFKUJ_clean_linker_0, # of connection points: 2
#     Edge 15, Type (0, 1), BuildingBlock: MIFKUJ_clean_linker_0, # of connection points: 2
#     Edge 16, Type (0, 1), BuildingBlock: MIFKUJ_clean_linker_0, # of connection points: 2
#     Edge 17, Type (0, 1), BuildingBlock: MIFKUJ_clean_linker_0, # of connection points: 2
# Relax obj value: 0.166
# Max RMSD: 0.156
# Mean RMSD: 0.096
data_MOF--net-tsx--node1-FUNLAD_clean_sbu_0--node2-MIDCAF_clean_linker_0--edge1-MIFKUJ_clean_linker_0
_symmetry_space_group_name_H-M    P1
_symmetry_Int_Tables_number       1
_symmetry_cell_setting            triclinic
loop_
_symmetry_equiv_pos_as_xyz
'x, y, z'
_cell_length_a     28.897328
_cell_length_b     32.095627
_cell_length_c     60.540157
_cell_angle_alpha  90.998589
_cell_angle_beta   92.050991
_cell_angle_gamma 89.992858
loop_
_atom_site_label
_atom_site_type_symbol
_atom_site_fract_x
_atom_site_fract_y
_atom_site_fract_z
_atom_type_partial_charge
C0 C 0.93284 0.94492 0.00222 0.0
N1 N 0.00775 0.0056 0.05443 0.0
C2 C 0.96733 0.00393 0.06527 0.0
C3 C 0.96774 0.0048 0.08835 0.0
C4 C 0.01008 0.00813 0.10032 0.0
C5 C 0.05119 0.0103 0.08876 0.0
C6 C 0.04926 0.00863 0.0657 0.0
Zn7 Zn 0.00644 0.00268 0.02066 0.0
C8 C 0.06676 0.93534 0.00444 0.0
N9 N 0.00378 -0.00418 0.95015 0.0
C10 C 0.96398 0.00247 0.93801 0.0
C11 C 0.0445 0.98817 0.94021 0.0
C12 C 0.04628 0.98691 0.91723 0.0
C13 C 0.0059 0.99406 0.9043 0.0
C14 C 0.96432 0.00197 0.91492 0.0
Zn15 Zn 0.00409 -0.00133 0.9839 0.0
O16 O 0.95143 0.95837 0.02034 0.0
C17 C 0.94369 0.06596 0.00117 0.0
O18 O 0.94786 0.95745 0.98404 0.0
H19 H 0.07585 0.98343 0.95014 0.0
H20 H 0.93468 0.00183 0.05602 0.0
H21 H 0.93197 0.0084 0.94624 0.0
O22 O 0.95803 0.05098 0.01942 0.0
O23 O 0.95806 0.05069 0.98312 0.0
H24 H 0.08101 0.00949 0.0568 0.0
O25 O 0.06038 0.03971 0.98377 0.0
O26 O 0.06141 0.04699 0.01986 0.0
O27 O 0.05005 0.94679 0.98579 0.0
O28 O 0.05486 0.95422 0.02191 0.0
C29 C 0.07782 0.05619 0.00134 0.0
H30 H 0.93532 0.00336 0.09675 0.0
H31 H 0.08452 0.01251 0.09749 0.0
H32 H 0.07913 0.98123 0.90965 0.0
H33 H 0.93239 0.00734 0.90548 0.0
C34 C 0.42154 0.44029 0.50108 0.0
N35 N 0.48989 0.50401 0.55435 0.0
C36 C 0.44988 0.49778 0.56504 0.0
C37 C 0.45003 0.498 0.58811 0.0
C38 C 0.49154 0.50556 0.60021 0.0
C39 C 0.53219 0.51233 0.58884 0.0
C40 C 0.53068 0.511 0.56577 0.0
Zn41 Zn 0.48887 0.50282 0.52055 0.0
C42 C 0.55566 0.44251 0.50322 0.0
N43 N 0.48603 0.50048 0.45001 0.0
C44 C 0.44564 0.50293 0.43783 0.0
C45 C 0.52747 0.49719 0.44013 0.0
C46 C 0.5294 0.49588 0.41716 0.0
C47 C 0.48833 0.49837 0.40417 0.0
C48 C 0.44603 0.50215 0.41474 0.0
Zn49 Zn 0.48603 0.5017 0.48376 0.0
O50 O 0.43895 0.45375 0.51946 0.0
C51 C 0.41934 0.56212 0.50197 0.0
O52 O 0.43468 0.45582 0.48322 0.0
H53 H 0.55922 0.49568 0.45009 0.0
H54 H 0.41775 0.49266 0.55569 0.0
H55 H 0.41308 0.5054 0.44603 0.0
O56 O 0.43571 0.54724 0.51991 0.0
O57 O 0.43456 0.549 0.48365 0.0
H58 H 0.56218 0.51544 0.55699 0.0
O59 O 0.53745 0.54773 0.48431 0.0
O60 O 0.5388 0.55154 0.52052 0.0
O61 O 0.53747 0.45418 0.48492 0.0
O62 O 0.54215 0.45864 0.52114 0.0
C63 C 0.55355 0.56395 0.50222 0.0
H64 H 0.41798 0.49292 0.59642 0.0
H65 H 0.56489 0.51793 0.59771 0.0
H66 H 0.56276 0.49351 0.40962 0.0
H67 H 0.41359 0.50387 0.40527 0.0
C68 C 0.89529 0.12989 0.44899 0.0
C69 C 0.88978 0.12928 0.47194 0.0
C70 C 0.91944 0.10433 0.485 0.0
C71 C 0.95344 0.07993 0.47519 0.0
H72 H 0.04333 0.97916 0.48647 0.0
H73 H 0.09282 0.93115 0.50755 0.0
H74 H 0.18183 0.91892 0.45194 0.0
H75 H 0.13353 0.9674 0.43127 0.0
H76 H 0.0648 0.96727 0.3829 0.0
H77 H 0.06459 0.96371 0.34255 0.0
H78 H 0.99274 0.08148 0.33947 0.0
H79 H 0.99252 0.08512 0.37977 0.0
H80 H 0.93207 0.10689 0.42145 0.0
H81 H 0.87367 0.14951 0.43853 0.0
H82 H 0.91588 0.10318 0.50272 0.0
H83 H 0.97547 0.06071 0.48567 0.0
N84 N 0.02211 0.02901 0.45376 0.0
N85 N 0.05577 0.00369 0.42147 0.0
N86 N 0.99617 0.05294 0.4191 0.0
C87 C 0.05359 0.00416 0.44387 0.0
C88 C 0.02716 0.02801 0.40898 0.0
C89 C 0.99336 0.05361 0.44146 0.0
C90 C 0.08454 0.97707 0.45721 0.0
C91 C 0.07401 0.96683 0.47897 0.0
C92 C 0.10211 0.93917 0.49098 0.0
C93 C 0.14131 0.92147 0.48144 0.0
C94 C 0.15236 0.93263 0.45992 0.0
C95 C 0.12431 0.96006 0.44794 0.0
C96 C 0.02864 0.02648 0.38456 0.0
C97 C 0.04915 0.99253 0.37364 0.0
C98 C 0.04881 0.99032 0.35056 0.0
C99 C 0.02862 0.0223 0.33796 0.0
C100 C 0.0088 0.05655 0.34883 0.0
C101 C 0.00851 0.05849 0.37189 0.0
C102 C 0.95843 0.08014 0.45214 0.0
C103 C 0.92911 0.10561 0.43921 0.0
C104 C 0.90632 0.87332 0.55476 0.0
C105 C 0.90723 0.86499 0.53195 0.0
C106 C 0.94261 0.8823 0.5197 0.0
C107 C 0.9761 0.90812 0.53011 0.0
H108 H 0.05168 0.02122 0.52045 0.0
H109 H 0.09615 0.07199 0.5003 0.0
H110 H 0.19207 0.08488 0.5564 0.0
H111 H 0.1484 0.03375 0.57628 0.0
H112 H 0.07957 0.03524 0.62378 0.0
H113 H 0.07826 0.04126 0.66407 0.0
H114 H 0.00977 0.92199 0.66636 0.0
H115 H 0.01077 0.91585 0.62619 0.0
H116 H 0.9379 0.9044 0.5828 0.0
H117 H 0.87983 0.85981 0.56465 0.0
H118 H 0.944 0.87629 0.50208 0.0
H119 H 0.00281 0.92132 0.52025 0.0
N120 N 0.03722 0.969 0.55237 0.0
N121 N 0.07085 -0.00309 0.58528 0.0
N122 N 0.01314 0.94597 0.58665 0.0
C123 C 0.06798 -0.00467 0.56281 0.0
C124 C 0.04355 0.97223 0.59731 0.0
C125 C 0.00976 0.94412 0.56423 0.0
C126 C 0.09656 0.02352 0.54994 0.0
C127 C 0.08282 0.03426 0.52826 0.0
C128 C 0.10802 0.06353 0.5168 0.0
C129 C 0.14756 0.08233 0.52678 0.0
C130 C 0.16209 0.0705 0.54816 0.0
C131 C 0.13679 0.04152 0.55964 0.0
C132 C 0.04519 0.97509 0.62176 0.0
C133 C 0.06453 0.01015 0.63287 0.0
C134 C 0.06354 0.01377 0.65591 0.0
C135 C 0.04386 0.98212 0.66827 0.0
C136 C 0.02544 0.94671 0.65722 0.0
C137 C 0.02583 0.94333 0.63421 0.0
C138 C 0.97505 0.9165 0.55299 0.0
C139 C 0.93989 0.89862 0.56518 0.0
C140 C 0.37813 0.60467 0.9544 0.0
C141 C 0.37767 0.60528 0.97759 0.0
C142 C 0.41122 0.58229 0.98954 0.0
C143 C 0.44426 0.55881 0.97842 0.0
H144 H 0.55191 0.47263 0.98742 0.0
H145 H 0.60925 0.428 0.00605 0.0
H146 H 0.66821 0.39831 0.9431 0.0
H147 H 0.61221 0.4428 0.92466 0.0
H148 H 0.55143 0.45641 0.881 0.0
H149 H 0.54863 0.45622 0.8407 0.0
H150 H 0.45994 0.56444 0.8413 0.0
H151 H 0.46253 0.56483 0.88165 0.0
H152 H 0.40998 0.58188 0.92545 0.0
H153 H 0.3535 0.62284 0.9447 0.0
H154 H 0.41168 0.58218 0.00744 0.0
H155 H 0.46957 0.54127 0.98806 0.0
N156 N 0.51104 0.50996 0.95406 0.0
N157 N 0.54061 0.48748 0.92029 0.0
N158 N 0.47801 0.53354 0.92057 0.0
C159 C 0.54217 0.48702 0.94274 0.0
C160 C 0.50872 0.51067 0.90907 0.0
C161 C 0.47881 0.53334 0.94303 0.0
C162 C 0.57733 0.46128 0.95451 0.0
C163 C 0.57737 0.45679 0.97761 0.0
C164 C 0.61008 0.43118 0.98828 0.0
C165 C 0.6435 0.40997 0.97606 0.0
C166 C 0.64359 0.41491 0.95307 0.0
C167 C 0.61104 0.44021 0.94244 0.0
C168 C 0.50721 0.51066 0.88459 0.0
C169 C 0.53136 0.48025 0.87259 0.0
C170 C 0.52957 0.47994 0.8495 0.0
C171 C 0.50406 0.5103 0.83792 0.0
C172 C 0.48016 0.54087 0.84985 0.0
C173 C 0.48148 0.54091 0.87295 0.0
C174 C 0.44439 0.5581 0.95516 0.0
C175 C 0.41093 0.58138 0.94334 0.0
C176 C 0.41175 0.37571 0.05079 0.0
C177 C 0.41602 0.36832 0.02807 0.0
C178 C 0.44937 0.39035 0.01665 0.0
C179 C 0.47714 0.42035 0.0278 0.0
H180 H 0.54483 0.53657 0.01833 0.0
H181 H 0.57915 0.5961 7e-05 0.0
H182 H 0.62601 0.64611 0.0637 0.0
H183 H 0.59179 0.58786 0.08184 0.0
H184 H 0.54865 0.55584 0.12493 0.0
H185 H 0.5464 0.55748 0.16519 0.0
H186 H 0.50155 0.42916 0.16425 0.0
H187 H 0.50367 0.42727 0.12401 0.0
H188 H 0.43504 0.41004 0.07945 0.0
H189 H 0.38663 0.35869 0.05999 0.0
H190 H 0.45324 0.38498 0.9991 0.0
H191 H 0.50218 0.43745 0.01862 0.0
N192 N 0.52093 0.49146 0.05171 0.0
N193 N 0.54575 0.5219 0.08564 0.0
N194 N 0.50265 0.46033 0.08511 0.0
C195 C 0.54389 0.52241 0.06317 0.0
C196 C 0.52544 0.49091 0.09673 0.0
C197 C 0.50018 0.46031 0.06266 0.0
C198 C 0.56528 0.55744 0.0516 0.0
C199 C 0.56238 0.56036 0.0284 0.0
C200 C 0.582 0.59437 0.01792 0.0
C201 C 0.6045 0.62609 0.03049 0.0
C202 C 0.60779 0.62277 0.05358 0.0
C203 C 0.58844 0.58901 0.06399 0.0
C204 C 0.52621 0.49144 0.12121 0.0
C205 C 0.53858 0.52786 0.13327 0.0
C206 C 0.53704 0.52893 0.15632 0.0
C207 C 0.52368 0.49349 0.1678 0.0
C208 C 0.51227 0.45684 0.15582 0.0
C209 C 0.51326 0.45588 0.13276 0.0
C210 C 0.47243 0.42799 0.05058 0.0
C211 C 0.43976 0.40498 0.06194 0.0
H212 H 0.11664 0.08442 0.96403 0.0
H213 H 0.18051 0.13361 0.96142 0.0
H214 H 0.19059 0.14464 0.03255 0.0
H215 H 0.12681 0.09508 0.03537 0.0
H216 H 0.18735 0.21348 0.97445 0.0
H217 H 0.30386 0.15629 0.04868 0.0
H218 H 0.32266 0.08998 0.06695 0.0
H219 H 0.28586 0.02235 0.00707 0.0
H220 H 0.26795 0.08816 0.98831 0.0
H221 H 0.32248 0.36687 0.02829 0.0
H222 H 0.27113 0.31075 0.01506 0.0
H223 H 0.38797 0.24388 0.98965 0.0
H224 H 0.43981 0.3004 0.00308 0.0
H225 H 0.33712 0.19581 0.01592 0.0
H226 H 0.30727 0.27944 0.95376 0.0
H227 H 0.2901 0.34339 0.93305 0.0
H228 H 0.1586 0.35376 0.96352 0.0
H229 H 0.17522 0.29021 0.98468 0.0
C230 C 0.1325 0.09717 0.97916 0.0
C231 C 0.11668 0.08583 -6e-05 0.0
C232 C 0.16894 0.12535 0.9776 0.0
C233 C 0.1905 0.14245 0.99676 0.0
C234 C 0.17479 0.13129 0.01755 0.0
C235 C 0.13823 0.10315 0.01914 0.0
C236 C 0.22869 0.17285 0.99509 0.0
C237 C 0.22024 0.20957 0.98338 0.0
C238 C 0.27214 0.16694 0.00609 0.0
C239 C 0.2842 0.12723 0.01714 0.0
C240 C 0.30015 0.12729 0.03936 0.0
C241 C 0.31065 0.08976 0.04981 0.0
C242 C 0.30543 0.05194 0.03819 0.0
C243 C 0.28991 0.0516 0.01607 0.0
C244 C 0.27956 0.08902 0.00552 0.0
C245 C 0.33703 0.34055 0.01949 0.0
C246 C 0.38494 0.33769 0.01673 0.0
C247 C 0.3077 0.30863 0.01184 0.0
C248 C 0.32573 0.27325 0.00128 0.0
C249 C 0.37344 0.27103 0.9977 0.0
C250 C 0.40288 0.3033 0.00523 0.0
C251 C 0.29489 0.23729 0.99616 0.0
C252 C 0.30462 0.19945 0.00663 0.0
C253 C 0.253 0.24183 0.98362 0.0
C254 C 0.24262 0.28008 0.97089 0.0
C255 C 0.27481 0.2955 0.95617 0.0
C256 C 0.26515 0.33167 0.94433 0.0
C257 C 0.22331 0.35265 0.94698 0.0
C258 C 0.19099 0.33746 0.96147 0.0
C259 C 0.20048 0.30131 0.97336 0.0
H260 H 0.2159 0.38065 0.9378 0.0
H261 H 0.31343 0.02291 0.04632 0.0
H262 H 0.1275 0.91816 0.0385 0.0
H263 H 0.18033 0.85867 0.04158 0.0
H264 H 0.13109 0.81281 0.97762 0.0
H265 H 0.07883 0.8727 0.97415 0.0
H266 H 0.13594 0.75229 0.01543 0.0
H267 H 0.22538 0.85792 0.97766 0.0
H268 H 0.26165 0.92713 0.97496 0.0
H269 H 0.33946 0.90701 0.03559 0.0
H270 H 0.3031 0.83788 0.0388 0.0
H271 H 0.28603 0.61322 0.96637 0.0
H272 H 0.23266 0.66529 0.97998 0.0
H273 H 0.33606 0.70713 0.02866 0.0
H274 H 0.39089 0.6563 0.01409 0.0
H275 H 0.30516 0.77023 0.00809 0.0
H276 H 0.23036 0.6617 0.0435 0.0
H277 H 0.19584 0.59262 0.04901 0.0
H278 H 0.09151 0.61698 0.99862 0.0
H279 H 0.12578 0.68598 0.99253 0.0
C280 C 0.12798 0.89541 0.02508 0.0
C281 C 0.09916 0.9 0.00605 0.0
C282 C 0.15809 0.86154 0.0269 0.0
C283 C 0.15926 0.8315 0.00987 0.0
C284 C 0.13033 0.83575 0.99095 0.0
C285 C 0.10082 0.87002 0.98893 0.0
C286 C 0.19136 0.79592 0.01148 0.0
C287 C 0.17296 0.7559 0.01374 0.0
C288 C 0.23971 0.80129 0.01049 0.0
C289 C 0.26109 0.843 0.00862 0.0
C290 C 0.2498 0.86847 0.99055 0.0
C291 C 0.27047 0.90762 0.98889 0.0
C292 C 0.30277 0.92148 0.00511 0.0
C293 C 0.31439 0.89625 0.02305 0.0
C294 C 0.29378 0.85709 0.02479 0.0
C295 C 0.29732 0.63323 0.98012 0.0
C296 C 0.34292 0.63118 0.9889 0.0
C297 C 0.26646 0.66263 0.98816 0.0
C298 C 0.28011 0.69006 0.0055 0.0
C299 C 0.32473 0.68629 0.01527 0.0
C300 C 0.35592 0.65704 0.00705 0.0
C301 C 0.24981 0.72573 0.01115 0.0
C302 C 0.26837 0.76611 0.01032 0.0
C303 C 0.2017 0.72064 0.01399 0.0
C304 C 0.18085 0.67904 0.01749 0.0
C305 C 0.20026 0.65224 0.03346 0.0
C306 C 0.18069 0.61309 0.03671 0.0
C307 C 0.14154 0.6004 0.02416 0.0
C308 C 0.12183 0.62686 0.00834 0.0
C309 C 0.14128 0.66605 0.00501 0.0
H310 H 0.12643 0.57008 0.02671 0.0
H311 H 0.31901 0.95164 0.00373 0.0
H312 H 0.90015 0.89657 0.96761 0.0
H313 H 0.83891 0.84424 0.96776 0.0
H314 H 0.81696 0.87283 0.03654 0.0
H315 H 0.87948 0.92414 0.0367 0.0
H316 H 0.81869 0.79348 0.03101 0.0
H317 H 0.74066 0.90439 0.99314 0.0
H318 H 0.72924 0.95785 0.96469 0.0
H319 H 0.7278 0.86293 0.9138 0.0
H320 H 0.73983 0.80892 0.94194 0.0
H321 H 0.59981 0.70766 0.04324 0.0
H322 H 0.64997 0.76408 0.03198 0.0
H323 H 0.7085 0.68318 0.98276 0.0
H324 H 0.65921 0.62583 0.9944 0.0
H325 H 0.68743 0.7864 0.97583 0.0
H326 H 0.77365 0.67667 0.01676 0.0
H327 H 0.77808 0.62641 0.04715 0.0
H328 H 0.75716 0.72554 0.0943 0.0
H329 H 0.75185 0.77625 0.06409 0.0
C330 C 0.88211 0.89185 0.98274 0.0
C331 C 0.89462 0.91441 0.00217 0.0
C332 C 0.8469 0.86209 0.98277 0.0
C333 C 0.82286 0.85494 0.00208 0.0
C334 C 0.83504 0.87778 0.02144 0.0
C335 C 0.87073 0.90711 0.02152 0.0
C336 C 0.78643 0.8224 0.00245 0.0
C337 C 0.79 0.79228 0.01895 0.0
C338 C 0.74909 0.82026 0.98659 0.0
C339 C 0.74162 0.85265 0.96964 0.0
C340 C 0.73826 0.89494 0.97587 0.0
C341 C 0.73161 0.92534 0.9598 0.0
C342 C 0.72793 0.9138 0.93745 0.0
C343 C 0.73073 0.87183 0.93112 0.0
C344 C 0.73742 0.8413 0.94712 0.0
C345 C 0.62271 0.70206 0.02972 0.0
C346 C 0.62638 0.66213 0.02001 0.0
C347 C 0.65094 0.73442 0.02318 0.0
C348 C 0.6829 0.72753 0.00667 0.0
C349 C 0.68371 0.68895 0.99546 0.0
C350 C 0.6556 0.65629 0.00213 0.0
C351 C 0.72036 0.75806 0.00421 0.0
C352 C 0.71672 0.78769 0.98754 0.0
C353 C 0.75741 0.76029 0.02002 0.0
C354 C 0.76196 0.73009 0.0382 0.0
C355 C 0.76969 0.68765 0.0336 0.0
C356 C 0.77239 0.65911 0.05078 0.0
C357 C 0.76778 0.67275 0.07264 0.0
C358 C 0.76066 0.715 0.07736 0.0
C359 C 0.75785 0.74365 0.06023 0.0
H360 H 0.76984 0.65061 0.08592 0.0
H361 H 0.72279 0.93738 0.92503 0.0
H362 H 0.88346 0.08645 0.03303 0.0
H363 H 0.8317 0.14685 0.0342 0.0
H364 H 0.8803 0.1865 0.97142 0.0
H365 H 0.9313 0.12537 0.96977 0.0
H366 H 0.87818 0.24839 0.01378 0.0
H367 H 0.78933 0.15244 0.96424 0.0
H368 H 0.75282 0.0843 0.95572 0.0
H369 H 0.67083 0.09681 0.01323 0.0
H370 H 0.70747 0.16478 0.02227 0.0
H371 H 0.73526 0.40175 0.96807 0.0
H372 H 0.78629 0.3453 0.97947 0.0
H373 H 0.67975 0.29663 0.0201 0.0
H374 H 0.62734 0.35214 0.00766 0.0
H375 H 0.70974 0.23739 0.99571 0.0
H376 H 0.785 0.33628 0.0427 0.0
H377 H 0.82113 0.40284 0.05471 0.0
H378 H 0.92792 0.38469 0.00798 0.0
H379 H 0.89208 0.3183 0.99543 0.0
C380 C 0.88293 0.10794 0.01942 0.0
C381 C 0.91128 0.10134 0.00128 0.0
C382 C 0.85346 0.14232 0.02014 0.0
C383 C 0.85257 0.17093 0.00295 0.0
C384 C 0.88083 0.16458 0.98484 0.0
C385 C 0.9096 0.12966 0.98385 0.0
C386 C 0.82197 0.20754 0.00387 0.0
C387 C 0.84139 0.24635 0.00966 0.0
C388 C 0.77381 0.204 -0.00036 0.0
C389 C 0.75158 0.16336 0.99409 0.0
C390 C 0.7639 0.14043 0.97519 0.0
C391 C 0.7431 0.1019 0.97024 0.0
C392 C 0.70966 0.08615 0.98397 0.0
C393 C 0.69682 0.10899 0.00264 0.0
C394 C 0.71757 0.14752 0.00768 0.0
C395 C 0.72283 0.3793 0.97963 0.0
C396 C 0.67706 0.38098 0.98669 0.0
C397 C 0.7523 0.34728 0.9864 0.0
C398 C 0.73703 0.31673 0.00076 0.0
C399 C 0.69227 0.31985 0.00898 0.0
C400 C 0.6625 0.35177 0.00202 0.0
C401 C 0.76597 0.27929 0.0049 0.0
C402 C 0.74634 0.23992 0.00016 0.0
C403 C 0.81385 0.28231 0.0106 0.0
C404 C 0.83563 0.32234 0.01803 0.0
C405 C 0.81599 0.34661 0.03485 0.0
C406 C 0.83646 0.3843 0.04178 0.0
C407 C 0.87676 0.39801 0.03209 0.0
C408 C 0.8967 0.37402 0.01547 0.0
C409 C 0.87636 0.33631 0.00847 0.0
H410 H 0.89256 0.4272 0.03749 0.0
H411 H 0.6936 0.05631 0.98011 0.0
H412 H 0.58614 0.60134 0.46578 0.0
H413 H 0.64833 0.65264 0.46436 0.0
H414 H 0.66491 0.65119 0.53544 0.0
H415 H 0.6028 0.59965 0.53706 0.0
H416 H 0.65835 0.73101 0.48213 0.0
H417 H 0.78075 0.65557 0.54859 0.0
H418 H 0.79792 0.58543 0.56276 0.0
H419 H 0.7511 0.53064 0.5007 0.0
H420 H 0.73481 0.60038 0.486 0.0
H421 H 0.81417 0.86904 0.53666 0.0
H422 H 0.75611 0.81822 0.52371 0.0
H423 H 0.8613 0.74813 0.49047 0.0
H424 H 0.91993 0.79884 0.50379 0.0
H425 H 0.81254 0.69954 0.51659 0.0
H426 H 0.77738 0.796 0.46027 0.0
H427 H 0.76057 0.86432 0.44383 0.0
H428 H 0.63635 0.87411 0.48041 0.0
H429 H 0.65274 0.80612 0.49735 0.0
C430 C 0.6029 0.612 0.48114 0.0
C431 C 0.58975 0.59629 0.50155 0.0
C432 C 0.6383 0.64141 0.48027 0.0
C433 C 0.66142 0.6553 0.49975 0.0
C434 C 0.64777 0.64038 0.52019 0.0
C435 C 0.61221 0.61108 0.5211 0.0
C436 C 0.70037 0.68496 0.49876 0.0
C437 C 0.69216 0.72419 0.48956 0.0
C438 C 0.74481 0.67532 0.50778 0.0
C439 C 0.75616 0.63326 0.51627 0.0
C440 C 0.7745 0.62857 0.53791 0.0
C441 C 0.78408 0.58886 0.54604 0.0
C442 C 0.77554 0.55357 0.53266 0.0
C443 C 0.7577 0.55795 0.51107 0.0
C444 C 0.74829 0.59757 0.50283 0.0
C445 C 0.82478 0.84307 0.52636 0.0
C446 C 0.8715 0.83759 0.52136 0.0
C447 C 0.79155 0.81427 0.5188 0.0
C448 C 0.80439 0.77953 0.50604 0.0
C449 C 0.85075 0.77483 0.50026 0.0
C450 C 0.88407 0.80385 0.50775 0.0
C451 C 0.77002 0.74634 0.50079 0.0
C452 C 0.77901 0.7063 0.50884 0.0
C453 C 0.7266 0.75504 0.49033 0.0
C454 C 0.71647 0.796 0.48018 0.0
C455 C 0.74665 0.81285 0.46495 0.0
C456 C 0.73716 0.8515 0.45551 0.0
C457 C 0.69745 0.87357 0.46109 0.0
C458 C 0.6671 0.85698 0.4761 0.0
C459 C 0.67644 0.81834 0.4856 0.0
H460 H 0.69016 0.90349 0.45377 0.0
H461 H 0.78278 0.52286 0.53903 0.0
H462 H 0.61758 0.42572 0.53695 0.0
H463 H 0.67526 0.36973 0.53835 0.0
H464 H 0.63101 0.32881 0.47274 0.0
H465 H 0.5739 0.38513 0.47098 0.0
H466 H 0.63823 0.26439 0.50731 0.0
H467 H 0.72319 0.38003 0.47617 0.0
H468 H 0.75644 0.45082 0.47656 0.0
H469 H 0.83302 0.42495 0.53685 0.0
H470 H 0.79966 0.35416 0.53699 0.0
H471 H 0.80096 0.13982 0.45654 0.0
H472 H 0.74417 0.18926 0.46985 0.0
H473 H 0.83819 0.22575 0.52376 0.0
H474 H 0.89636 0.17737 0.5098 0.0
H475 H 0.80684 0.29161 0.50425 0.0
H476 H 0.73518 0.17416 0.53322 0.0
H477 H 0.70439 0.1027 0.53475 0.0
H478 H 0.60374 0.13018 0.48318 0.0
H479 H 0.63434 0.20164 0.48107 0.0
C480 C 0.62027 0.40485 0.5228 0.0
C481 C 0.59132 0.40971 0.50383 0.0
C482 C 0.65316 0.373 0.52365 0.0
C483 C 0.65707 0.34528 0.50568 0.0
C484 C 0.62821 0.34996 0.48677 0.0
C485 C 0.59587 0.38221 0.48575 0.0
C486 C 0.69129 0.31125 0.50642 0.0
C487 C 0.67514 0.2701 0.50655 0.0
C488 C 0.73938 0.31913 0.50659 0.0
C489 C 0.75847 0.36201 0.50674 0.0
C490 C 0.74662 0.38962 0.48967 0.0
C491 C 0.76562 0.42969 0.48975 0.0
C492 C 0.7968 0.44236 0.50673 0.0
C493 C 0.80885 0.41508 0.52372 0.0
C494 C 0.78991 0.375 0.52373 0.0
C495 C 0.80951 0.1582 0.4713 0.0
C496 C 0.85333 0.15513 0.48196 0.0
C497 C 0.77671 0.18605 0.47911 0.0
C498 C 0.78668 0.21095 0.49796 0.0
C499 C 0.82972 0.20672 0.50922 0.0
C500 C 0.86278 0.17892 0.50132 0.0
C501 C 0.75387 0.24423 0.50424 0.0
C502 C 0.77012 0.28546 0.50552 0.0
C503 C 0.7059 0.23634 0.50581 0.0
C504 C 0.68727 0.1933 0.50692 0.0
C505 C 0.7067 0.16491 0.52208 0.0
C506 C 0.68924 0.12439 0.52307 0.0
C507 C 0.65217 0.1119 0.50905 0.0
C508 C 0.63245 0.13992 0.49403 0.0
C509 C 0.6498 0.18047 0.49295 0.0
H510 H 0.63869 0.08052 0.50985 0.0
H511 H 0.81186 0.47321 0.50666 0.0
H512 H 0.37664 0.40674 0.46456 0.0
H513 H 0.3224 0.34837 0.4629 0.0
H514 H 0.33572 0.33729 0.53377 0.0
H515 H 0.38949 0.39613 0.53565 0.0
H516 H 0.33517 0.26944 0.47379 0.0
H517 H 0.23525 0.30457 0.55371 0.0
H518 H 0.20931 0.36567 0.57523 0.0
H519 H 0.20941 0.44007 0.51697 0.0
H520 H 0.23469 0.3793 0.49504 0.0
H521 H 0.24073 0.09366 0.52388 0.0
H522 H 0.28022 0.15629 0.51206 0.0
H523 H 0.14855 0.21141 0.49359 0.0
H524 H 0.10874 0.14908 0.50587 0.0
H525 H 0.19801 0.2619 0.52056 0.0
H526 H 0.22434 0.18699 0.45417 0.0
H527 H 0.24702 0.1276 0.43057 0.0
H528 H 0.38649 0.13588 0.45721 0.0
H529 H 0.36451 0.19494 0.48123 0.0
C530 C 0.3678 0.3921 0.47983 0.0
C531 C 0.38734 0.40607 0.50026 0.0
C532 C 0.33689 0.35868 0.47882 0.0
C533 C 0.32478 0.33873 0.4982 0.0
C534 C 0.34405 0.3527 0.51864 0.0
C535 C 0.3749 0.38622 0.51968 0.0
C536 C 0.29317 0.30241 0.49704 0.0
C537 C 0.305 0.26781 0.4839 0.0
C538 C 0.25314 0.30082 0.50977 0.0
C539 C 0.2372 0.33741 0.52277 0.0
C540 C 0.22948 0.3339 0.54546 0.0
C541 C 0.21495 0.3685 0.55774 0.0
C542 C 0.20783 0.40675 0.54749 0.0
C543 C 0.21508 0.41046 0.52491 0.0
C544 C 0.22957 0.37596 0.51255 0.0
C545 C 0.22028 0.11889 0.51698 0.0
C546 C 0.17169 0.11668 0.51595 0.0
C547 C 0.24287 0.15451 0.51006 0.0
C548 C 0.21729 0.18846 0.50191 0.0
C549 C 0.16888 0.1855 0.49981 0.0
C550 C 0.14624 0.14979 0.50668 0.0
C551 C 0.24094 0.22837 0.49791 0.0
C552 C 0.22772 0.26367 0.51016 0.0
C553 C 0.27916 0.23082 0.48405 0.0
C554 C 0.29266 0.19529 0.46962 0.0
C555 C 0.25977 0.17596 0.45513 0.0
C556 C 0.27252 0.14238 0.44165 0.0
C557 C 0.31815 0.12794 0.44241 0.0
C558 C 0.35115 0.1471 0.45664 0.0
C559 C 0.33857 0.18068 0.47017 0.0
H560 H 0.32795 0.10194 0.43196 0.0
H561 H 0.19663 0.4335 0.55702 0.0
H562 H 0.38265 0.60671 0.46743 0.0
H563 H 0.33072 0.66674 0.4695 0.0
H564 H 0.32544 0.65348 0.54015 0.0
H565 H 0.37773 0.59391 0.53833 0.0
H566 H 0.24409 0.67876 0.48363 0.0
H567 H 0.32551 0.75157 0.56363 0.0
H568 H 0.39997 0.75151 0.58493 0.0
H569 H 0.47227 0.7259 0.52545 0.0
H570 H 0.39835 0.72639 0.50378 0.0
H571 H 0.10886 0.8551 0.50398 0.0
H572 H 0.15272 0.79325 0.5151 0.0
H573 H 0.27863 0.8508 0.49446 0.0
H574 H 0.23533 0.91318 0.48409 0.0
H575 H 0.29604 0.80136 0.52915 0.0
H576 H 0.21287 0.79266 0.45816 0.0
H577 H 0.14259 0.79556 0.43387 0.0
H578 H 0.08167 0.69675 0.46994 0.0
H579 H 0.15142 0.6937 0.49464 0.0
C580 C 0.37011 0.61634 0.48338 0.0
C581 C 0.38467 0.59585 0.50273 0.0
C582 C 0.34036 0.65055 0.48452 0.0
C583 C 0.32478 0.66481 0.50501 0.0
C584 C 0.33766 0.64332 0.52423 0.0
C585 C 0.36748 0.60924 0.52312 0.0
C586 C 0.29679 0.7033 0.50632 0.0
C587 C 0.25523 0.70542 0.49374 0.0
C588 C 0.3116 0.73818 0.51937 0.0
C589 C 0.35635 0.73853 0.53216 0.0
C590 C 0.35733 0.74606 0.5551 0.0
C591 C 0.39943 0.74594 0.56723 0.0
C592 C 0.4408 0.73855 0.55656 0.0
C593 C 0.44019 0.73146 0.53371 0.0
C594 C 0.3982 0.73161 0.52151 0.0
C595 C 0.14612 0.85515 0.50257 0.0
C596 C 0.16862 0.8886 0.49277 0.0
C597 C 0.17107 0.8197 0.50878 0.0
C598 C 0.21869 0.81713 0.50509 0.0
C599 C 0.24183 0.85202 0.49729 0.0
C600 C 0.21701 0.88749 0.49119 0.0
C601 C 0.24337 0.77681 0.50645 0.0
C602 C 0.28439 0.77435 0.51946 0.0
C603 C 0.22865 0.7419 0.4934 0.0
C604 C 0.18708 0.74325 0.47836 0.0
C605 C 0.18437 0.77172 0.46096 0.0
C606 C 0.14466 0.77338 0.44713 0.0
C607 C 0.10764 0.74643 0.45039 0.0
C608 C 0.11034 0.71766 0.46746 0.0
C609 C 0.14994 0.71594 0.48137 0.0
H610 H 0.07691 0.74777 0.43967 0.0
H611 H 0.47334 0.73841 0.56598 0.0
H612 H 0.05462 0.06416 0.12786 0.0
H613 H 0.05753 0.06546 0.16829 0.0
H614 H 0.97297 0.95453 0.16822 0.0
H615 H 0.96849 0.95429 0.12774 0.0
H616 H 0.94518 0.00446 0.19839 0.0
H617 H 0.09394 0.95365 0.17944 0.0
H618 H 0.16849 0.95305 0.16087 0.0
H619 H 0.20655 0.06871 0.1933 0.0
H620 H 0.1319 0.07031 0.21184 0.0
H621 H 0.00122 0.95661 0.31145 0.0
H622 H -0.00198 0.95314 0.27091 0.0
H623 H 0.05088 0.07863 0.26892 0.0
H624 H 0.05383 0.08238 0.30945 0.0
H625 H 0.09519 0.01881 0.24034 0.0
H626 H 0.94239 0.06678 0.25906 0.0
H627 H 0.86849 0.06237 0.27803 0.0
H628 H 0.83983 0.94406 0.24626 0.0
H629 H 0.91393 0.94748 0.22734 0.0
C630 C 0.03675 0.04007 0.13653 0.0
C631 C 0.0115 0.00903 0.12477 0.0
C632 C 0.03859 0.04068 0.15961 0.0
C633 C 0.01624 0.00959 0.17136 0.0
C634 C 0.99056 0.97881 0.15957 0.0
C635 C 0.98802 0.97865 0.13647 0.0
C636 C 0.01925 0.00947 0.19592 0.0
C637 C 0.9781 0.00697 0.20751 0.0
C638 C 0.06211 0.0132 0.20794 0.0
C639 C 0.10713 0.01229 0.19688 0.0
C640 C 0.11806 0.97911 0.18249 0.0
C641 C 0.16036 0.97857 0.17199 0.0
C642 C 0.19219 0.01087 0.17586 0.0
C643 C 0.18183 0.04374 0.19029 0.0
C644 C 0.13955 0.04446 0.20083 0.0
C645 C 0.01239 0.98332 0.30233 0.0
C646 C 0.02771 0.01979 0.31351 0.0
C647 C 0.01034 0.98138 0.27924 0.0
C648 C 0.02403 0.01571 0.26701 0.0
C649 C 0.04013 0.05187 0.27812 0.0
C650 C 0.04157 0.05404 0.3012 0.0
C651 C 0.02126 0.01405 0.24257 0.0
C652 C 0.06243 0.01617 0.23109 0.0
C653 C 0.97857 0.00915 0.23067 0.0
C654 C 0.93393 0.00718 0.24197 0.0
C655 C 0.92053 0.03964 0.25627 0.0
C656 C 0.87857 0.03736 0.26699 0.0
C657 C 0.84954 0.0029 0.2634 0.0
C658 C 0.86238 0.9707 0.24905 0.0
C659 C 0.90434 0.97281 0.23831 0.0
H660 H 0.81706 0.0012 0.27171 0.0
H661 H 0.22492 0.01039 0.16771 0.0
H662 H 0.96889 0.05104 0.8757 0.0
H663 H 0.975 0.05198 0.83548 0.0
H664 H 0.05232 0.93694 0.83765 0.0
H665 H 0.04722 0.93651 0.87788 0.0
H666 H 0.09236 0.98852 0.81176 0.0
H667 H 0.93573 0.94214 0.81951 0.0
H668 H 0.85603 0.9456 0.83269 0.0
H669 H 0.83454 0.06173 0.79969 0.0
H670 H 0.91436 0.05923 0.78655 0.0
H671 H 0.06802 0.92421 0.69902 0.0
H672 H 0.06171 0.93003 0.73919 0.0
H673 H 0.00781 0.05469 0.73258 0.0
H674 H 0.01415 0.04907 0.69232 0.0
H675 H 0.95608 0.0027 0.76024 0.0
H676 H 0.11294 0.04603 0.75114 0.0
H677 H 0.19206 0.04008 0.73748 0.0
H678 H 0.21214 0.92619 0.77274 0.0
H679 H 0.13284 0.93114 0.78636 0.0
C680 C 0.98678 0.02578 0.86753 0.0
C681 C 0.00755 0.99368 0.87987 0.0
C682 C 0.99023 0.0263 0.84456 0.0
C683 C 0.01373 0.99429 0.83349 0.0
C684 C 0.03415 0.96205 0.84582 0.0
C685 C 0.0312 0.9618 0.86878 0.0
C686 C 0.01807 0.99471 0.80912 0.0
C687 C 0.06244 0.9911 0.80053 0.0
C688 C 0.97922 -0.00082 0.79441 0.0
C689 C 0.93118 0.00071 0.80225 0.0
C690 C 0.91413 0.96857 0.81521 0.0
C691 C 0.86891 0.97034 0.82265 0.0
C692 C 0.84029 0.00392 0.81709 0.0
C693 C 0.85678 0.03577 0.80402 0.0
C694 C 0.90199 0.03418 0.79656 0.0
C695 C 0.05488 0.95285 0.70616 0.0
C696 C 0.04164 0.98622 0.69261 0.0
C697 C 0.05148 0.9562 0.72906 0.0
C698 C 0.03448 0.99285 0.7388 0.0
C699 C 0.02107 0.02619 0.72533 0.0
C700 C 0.02501 0.02305 0.70242 0.0
C701 C 0.03015 -0.00407 0.76305 0.0
C702 C 0.98588 0.00027 0.77157 0.0
C703 C 0.06899 0.99175 0.7777 0.0
C704 C 0.11678 0.98877 0.7696 0.0
C705 C 0.13407 0.01952 0.75583 0.0
C706 C 0.17899 0.01637 0.74812 0.0
C707 C 0.20707 0.98273 0.7542 0.0
C708 C 0.19033 0.95222 0.76803 0.0
C709 C 0.14541 0.9552 0.77577 0.0
H710 H 0.24184 0.98034 0.74821 0.0
H711 H 0.80529 0.00523 0.82286 0.0
H712 H 0.52393 0.56736 0.62794 0.0
H713 H 0.52533 0.56865 0.66839 0.0
H714 H 0.46463 0.44564 0.66776 0.0
H715 H 0.46107 0.44539 0.62727 0.0
H716 H 0.42629 0.48898 0.69744 0.0
H717 H 0.58456 0.46619 0.68002 0.0
H718 H 0.65852 0.4799 0.66237 0.0
H719 H 0.66837 0.59903 0.69559 0.0
H720 H 0.59413 0.58628 0.71321 0.0
H721 H 0.48785 0.44397 0.80989 0.0
H722 H 0.48534 0.44363 0.76938 0.0
H723 H 0.51419 0.5755 0.77026 0.0
H724 H 0.51676 0.57605 0.81079 0.0
H725 H 0.56904 0.52741 0.74105 0.0
H726 H 0.40862 0.54631 0.75884 0.0
H727 H 0.33652 0.528 0.77699 0.0
H728 H 0.33408 0.40909 0.74334 0.0
H729 H 0.40657 0.42647 0.72522 0.0
C730 C 0.51096 0.54066 0.63652 0.0
C731 C 0.49255 0.50622 0.62463 0.0
C732 C 0.512 0.54127 0.65961 0.0
C733 C 0.49595 0.50687 0.67121 0.0
C734 C 0.47726 0.47254 0.65924 0.0
C735 C 0.47529 0.47234 0.63615 0.0
C736 C 0.49802 0.50689 0.69579 0.0
C737 C 0.45776 0.4968 0.70691 0.0
C738 C 0.53882 0.51772 0.70829 0.0
C739 C 0.58356 0.52543 0.69777 0.0
C740 C 0.60234 0.49544 0.68344 0.0
C741 C 0.64433 0.50302 0.67346 0.0
C742 C 0.66807 0.54035 0.67781 0.0
C743 C 0.64992 0.57015 0.69221 0.0
C744 C 0.6079 0.56274 0.70221 0.0
C745 C 0.49382 0.47283 0.80142 0.0
C746 C 0.50242 0.51006 0.81343 0.0
C747 C 0.49214 0.47263 0.77833 0.0
C748 C 0.49935 0.50959 0.7669 0.0
C749 C 0.50848 0.54671 0.77883 0.0
C750 C 0.50964 0.54702 0.80193 0.0
C751 C 0.49749 0.50948 0.74245 0.0
C752 C 0.53774 0.51954 0.73144 0.0
C753 C 0.457 0.49789 0.73006 0.0
C754 C 0.41326 0.48754 0.74084 0.0
C755 C 0.39292 0.51612 0.75545 0.0
C756 C 0.35194 0.50594 0.7657 0.0
C757 C 0.33079 0.46736 0.76136 0.0
C758 C 0.35052 0.43894 0.74671 0.0
C759 C 0.39153 0.44895 0.73643 0.0
H760 H 0.29907 0.45953 0.76932 0.0
H761 H 0.70058 0.54616 0.67007 0.0
H762 H 0.4433 0.54931 0.37479 0.0
H763 H 0.44857 0.54885 0.33453 0.0
H764 H 0.54188 0.44397 0.33822 0.0
H765 H 0.53744 0.44493 0.37849 0.0
H766 H 0.57354 0.49846 0.31118 0.0
H767 H 0.42615 0.43392 0.32034 0.0
H768 H 0.34712 0.42755 0.33398 0.0
H769 H 0.30647 0.53868 0.2999 0.0
H770 H 0.38548 0.54604 0.2863 0.0
H771 H 0.55736 0.43683 0.19741 0.0
H772 H 0.55092 0.43872 0.23768 0.0
H773 H 0.47658 0.55501 0.23336 0.0
H774 H 0.48285 0.55326 0.19308 0.0
H775 H 0.43506 0.49576 0.26031 0.0
H776 H 0.58412 0.55825 0.25077 0.0
H777 H 0.66309 0.56195 0.23681 0.0
H778 H 0.70021 0.45049 0.27142 0.0
H779 H 0.62119 0.44579 0.28533 0.0
C780 C 0.46456 0.52594 0.36696 0.0
C781 C 0.48993 0.49714 0.37973 0.0
C782 C 0.46753 0.52565 0.34396 0.0
C783 C 0.49525 0.49607 0.3333 0.0
C784 C 0.52038 0.46715 0.34607 0.0
C785 C 0.51782 0.46772 0.36905 0.0
C786 C 0.49896 0.49578 0.3089 0.0
C787 C 0.54323 0.49728 0.30009 0.0
C788 C 0.45943 0.49514 0.29437 0.0
C789 C 0.41186 0.49075 0.30249 0.0
C790 C 0.40046 0.45718 0.3159 0.0
C791 C 0.35565 0.45336 0.32359 0.0
C792 C 0.32183 0.48275 0.31786 0.0
C793 C 0.33272 0.51597 0.30436 0.0
C794 C 0.3775 0.51996 0.29663 0.0
C795 C 0.53961 0.46274 0.20508 0.0
C796 C 0.5207 0.49495 0.19218 0.0
C797 C 0.53615 0.46389 0.22803 0.0
C798 C 0.51348 0.49712 0.23844 0.0
C799 C 0.49427 0.52916 0.2256 0.0
C800 C 0.49815 0.52826 0.20266 0.0
C801 C 0.50951 0.49822 0.26275 0.0
C802 C 0.46525 0.49692 0.27149 0.0
C803 C 0.54901 0.49861 0.27721 0.0
C804 C 0.59659 0.50144 0.26891 0.0
C805 C 0.60899 0.53432 0.25524 0.0
C806 C 0.65379 0.53664 0.24737 0.0
C807 C 0.68661 0.50641 0.25317 0.0
C808 C 0.67473 0.47385 0.26691 0.0
C809 C 0.62995 0.47136 0.27481 0.0
H810 H 0.72129 0.50827 0.24706 0.0
H811 H 0.28715 0.47973 0.32384 0.0
loop_
_geom_bond_atom_site_label_1
_geom_bond_atom_site_label_2
_geom_bond_distance
_geom_bond_site_symmetry_2
_ccdc_geom_bond_type
C0 O16 1.251 . S
C0 O18 1.254 1_554 S
N1 C2 1.333 1_445 S
N1 C6 1.307 . S
N1 Zn7 2.020 . S
C2 N1 1.333 1_665 S
C2 C3 1.379 . S
C2 H20 0.952 . S
C3 C2 1.379 . S
C3 C4 1.390 1_665 S
C3 H30 0.949 . S
C4 C3 1.390 1_445 S
C4 C5 1.357 . S
C5 C4 1.357 . S
C5 C6 1.370 . S
C5 H31 0.950 . S
C6 N1 1.307 . S
C6 C5 1.370 . S
C6 H24 0.948 . S
Zn7 N1 2.020 . S
Zn7 O16 2.039 1_445 S
Zn7 O22 2.034 1_455 S
Zn7 O26 2.025 . S
Zn7 O28 2.024 1_545 S
C8 O27 1.246 1_554 S
C8 O28 1.249 . S
N9 C10 1.307 1_445 S
N9 C11 1.333 . S
N9 Zn15 2.020 . S
C10 N9 1.307 1_665 S
C10 C14 1.370 . S
C10 H21 0.948 . S
C11 N9 1.333 . S
C11 C12 1.379 . S
C11 H19 0.952 . S
C12 C11 1.379 . S
C12 C13 1.390 . S
C12 H32 0.949 . S
C13 C12 1.390 . S
C13 C14 1.357 1_445 S
C14 C10 1.370 . S
C14 C13 1.357 1_665 S
C14 H33 0.950 . S
Zn15 N9 2.020 . S
Zn15 O18 2.025 1_445 S
Zn15 O23 2.024 1_455 S
Zn15 O25 2.039 . S
Zn15 O27 2.034 1_545 S
O16 C0 1.251 . S
O16 Zn7 2.039 1_665 S
C17 O22 1.246 . S
C17 O23 1.249 1_554 S
O18 C0 1.254 1_556 S
O18 Zn15 2.025 1_665 S
H19 C11 0.952 . S
H20 C2 0.952 . S
H21 C10 0.948 . S
O22 Zn7 2.034 1_655 S
O22 C17 1.246 . S
O23 Zn15 2.024 1_655 S
O23 C17 1.249 1_556 S
H24 C6 0.948 . S
O25 Zn15 2.039 . S
O25 C29 1.251 1_556 S
O26 Zn7 2.025 . S
O26 C29 1.254 . S
O27 C8 1.246 1_556 S
O27 Zn15 2.034 1_565 S
O28 Zn7 2.024 1_565 S
O28 C8 1.249 . S
C29 O25 1.251 1_554 S
C29 O26 1.254 . S
H30 C3 0.949 . S
H31 C5 0.950 . S
H32 C12 0.949 . S
H33 C14 0.950 . S
C34 O50 1.251 . S
C34 O52 1.254 . S
N35 C36 1.333 . S
N35 C40 1.307 . S
N35 Zn41 2.020 . S
C36 N35 1.333 . S
C36 C37 1.379 . S
C36 H54 0.952 . S
C37 C36 1.379 . S
C37 C38 1.390 . S
C37 H64 0.949 . S
C38 C37 1.390 . S
C38 C39 1.357 . S
C39 C38 1.357 . S
C39 C40 1.370 . S
C39 H65 0.950 . S
C40 N35 1.307 . S
C40 C39 1.370 . S
C40 H58 0.948 . S
Zn41 N35 2.020 . S
Zn41 O50 2.039 . S
Zn41 O56 2.034 . S
Zn41 O60 2.025 . S
Zn41 O62 2.024 . S
C42 O61 1.246 . S
C42 O62 1.249 . S
N43 C44 1.307 . S
N43 C45 1.333 . S
N43 Zn49 2.020 . S
C44 N43 1.307 . S
C44 C48 1.370 . S
C44 H55 0.948 . S
C45 N43 1.333 . S
C45 C46 1.379 . S
C45 H53 0.952 . S
C46 C45 1.379 . S
C46 C47 1.390 . S
C46 H66 0.949 . S
C47 C46 1.390 . S
C47 C48 1.357 . S
C48 C44 1.370 . S
C48 C47 1.357 . S
C48 H67 0.950 . S
Zn49 N43 2.020 . S
Zn49 O52 2.025 . S
Zn49 O57 2.024 . S
Zn49 O59 2.039 . S
Zn49 O61 2.034 . S
O50 C34 1.251 . S
O50 Zn41 2.039 . S
C51 O56 1.246 . S
C51 O57 1.249 . S
O52 C34 1.254 . S
O52 Zn49 2.025 . S
H53 C45 0.952 . S
H54 C36 0.952 . S
H55 C44 0.948 . S
O56 Zn41 2.034 . S
O56 C51 1.246 . S
O57 Zn49 2.024 . S
O57 C51 1.249 . S
H58 C40 0.948 . S
O59 Zn49 2.039 . S
O59 C63 1.251 . S
O60 Zn41 2.025 . S
O60 C63 1.254 . S
O61 C42 1.246 . S
O61 Zn49 2.034 . S
O62 Zn41 2.024 . S
O62 C42 1.249 . S
C63 O59 1.251 . S
C63 O60 1.254 . S
H64 C37 0.949 . S
H65 C39 0.950 . S
H66 C46 0.949 . S
H67 C48 0.950 . S
C68 C69 1.384 . S
C68 H81 0.947 . S
C68 C103 1.382 . S
C69 C68 1.384 . S
C69 C70 1.378 . S
C70 C69 1.378 . S
C70 C71 1.378 . S
C70 H82 0.952 . S
C71 C70 1.378 . S
C71 H83 0.950 . S
C71 C102 1.383 . S
H72 C91 0.947 . S
H73 C92 0.946 . S
H74 C94 0.953 . S
H75 C95 0.945 . S
H76 C97 0.952 . S
H77 C98 0.949 . S
H78 C100 0.950 . S
H79 C101 0.948 . S
H80 C103 0.951 . S
H81 C68 0.947 . S
H82 C70 0.952 . S
H83 C71 0.950 . S
N84 C87 1.382 1_545 S
N84 C89 1.363 1_455 S
N85 C87 1.371 . S
N85 C88 1.372 1_565 S
N86 C88 1.361 1_655 S
N86 C89 1.377 . S
C87 N84 1.382 1_565 S
C87 N85 1.371 . S
C87 C90 1.480 . S
C88 N85 1.372 1_545 S
C88 N86 1.361 1_455 S
C88 C96 1.457 . S
C89 N84 1.363 1_655 S
C89 N86 1.377 . S
C89 C102 1.479 . S
C90 C87 1.480 . S
C90 C91 1.383 . S
C90 C95 1.385 . S
C91 H72 0.947 . S
C91 C90 1.383 . S
C91 C92 1.388 . S
C92 H73 0.946 . S
C92 C91 1.388 . S
C92 C93 1.384 . S
C93 C92 1.384 . S
C93 C94 1.377 . S
C94 H74 0.953 . S
C94 C93 1.377 . S
C94 C95 1.369 . S
C95 H75 0.945 . S
C95 C90 1.385 . S
C95 C94 1.369 . S
C96 C88 1.457 . S
C96 C97 1.372 1_545 S
C96 C101 1.364 1_455 S
C97 H76 0.952 . S
C97 C96 1.372 1_565 S
C97 C98 1.389 . S
C98 H77 0.949 . S
C98 C97 1.389 . S
C98 C99 1.398 1_565 S
C99 C98 1.398 1_545 S
C99 C100 1.361 1_455 S
C100 H78 0.950 . S
C100 C99 1.361 1_655 S
C100 C101 1.379 . S
C101 H79 0.948 . S
C101 C96 1.364 1_655 S
C101 C100 1.379 . S
C102 C71 1.383 . S
C102 C89 1.479 . S
C102 C103 1.398 . S
C103 C68 1.382 . S
C103 H80 0.951 . S
C103 C102 1.398 . S
C104 C105 1.384 . S
C104 H117 0.947 . S
C104 C139 1.382 . S
C105 C104 1.384 . S
C105 C106 1.378 . S
C106 C105 1.378 . S
C106 C107 1.378 . S
C106 H118 0.952 . S
C107 C106 1.378 . S
C107 H119 0.950 . S
C107 C138 1.383 . S
H108 C127 0.947 . S
H109 C128 0.946 . S
H110 C130 0.953 . S
H111 C131 0.945 . S
H112 C133 0.952 . S
H113 C134 0.949 . S
H114 C136 0.950 1_655 S
H115 C137 0.948 1_655 S
H116 C139 0.951 . S
H117 C104 0.947 . S
H118 C106 0.952 . S
H119 C107 0.950 . S
N120 C123 1.398 . S
N120 C125 1.347 1_445 S
N121 C123 1.371 . S
N121 C124 1.372 . S
N122 C124 1.360 1_665 S
N122 C125 1.377 . S
C123 N120 1.398 . S
C123 N121 1.371 . S
C123 C126 1.480 . S
C124 N121 1.372 . S
C124 N122 1.360 1_445 S
C124 C132 1.457 . S
C125 N120 1.347 1_665 S
C125 N122 1.377 . S
C125 C138 1.479 . S
C126 C123 1.480 . S
C126 C127 1.383 . S
C126 C131 1.385 . S
C127 H108 0.947 . S
C127 C126 1.383 . S
C127 C128 1.388 . S
C128 H109 0.946 . S
C128 C127 1.388 . S
C128 C129 1.384 . S
C129 C128 1.384 . S
C129 C130 1.377 . S
C130 H110 0.953 . S
C130 C129 1.377 . S
C130 C131 1.369 . S
C131 H111 0.945 . S
C131 C126 1.385 . S
C131 C130 1.369 . S
C132 C124 1.457 . S
C132 C133 1.372 . S
C132 C137 1.364 1_545 S
C133 H112 0.952 . S
C133 C132 1.372 . S
C133 C134 1.389 . S
C134 H113 0.949 . S
C134 C133 1.389 . S
C134 C135 1.387 . S
C135 C134 1.387 . S
C135 C136 1.372 1_545 S
C136 H114 0.950 1_455 S
C136 C135 1.372 1_565 S
C136 C137 1.379 . S
C137 H115 0.948 1_455 S
C137 C132 1.364 1_565 S
C137 C136 1.379 . S
C138 C107 1.383 . S
C138 C125 1.479 . S
C138 C139 1.398 . S
C139 C104 1.382 . S
C139 H116 0.951 . S
C139 C138 1.398 . S
C140 C141 1.384 . S
C140 H153 0.947 . S
C140 C175 1.382 . S
C141 C140 1.384 . S
C141 C142 1.378 . S
C142 C141 1.378 . S
C142 C143 1.378 . S
C142 H154 0.952 1_556 S
C143 C142 1.378 . S
C143 H155 0.950 . S
C143 C174 1.383 . S
H144 C163 0.947 . S
H145 C164 0.946 1_554 S
H146 C166 0.953 . S
H147 C167 0.945 . S
H148 C169 0.952 . S
H149 C170 0.949 . S
H150 C172 0.950 . S
H151 C173 0.948 . S
H152 C175 0.951 . S
H153 C140 0.947 . S
H154 C142 0.952 1_554 S
H155 C143 0.950 . S
N156 C159 1.382 . S
N156 C161 1.363 . S
N157 C159 1.371 . S
N157 C160 1.372 . S
N158 C160 1.361 . S
N158 C161 1.377 . S
C159 N156 1.382 . S
C159 N157 1.371 . S
C159 C162 1.480 . S
C160 N157 1.372 . S
C160 N158 1.361 . S
C160 C168 1.457 . S
C161 N156 1.363 . S
C161 N158 1.377 . S
C161 C174 1.479 . S
C162 C159 1.480 . S
C162 C163 1.383 . S
C162 C167 1.385 . S
C163 H144 0.947 . S
C163 C162 1.383 . S
C163 C164 1.388 . S
C164 H145 0.946 1_556 S
C164 C163 1.388 . S
C164 C165 1.384 . S
C165 C164 1.384 . S
C165 C166 1.377 . S
C166 H146 0.953 . S
C166 C165 1.377 . S
C166 C167 1.369 . S
C167 H147 0.945 . S
C167 C162 1.385 . S
C167 C166 1.369 . S
C168 C160 1.457 . S
C168 C169 1.372 . S
C168 C173 1.364 . S
C169 H148 0.952 . S
C169 C168 1.372 . S
C169 C170 1.389 . S
C170 H149 0.949 . S
C170 C169 1.389 . S
C170 C171 1.387 . S
C171 C170 1.387 . S
C171 C172 1.372 . S
C172 H150 0.950 . S
C172 C171 1.372 . S
C172 C173 1.379 . S
C173 H151 0.948 . S
C173 C168 1.364 . S
C173 C172 1.379 . S
C174 C143 1.383 . S
C174 C161 1.479 . S
C174 C175 1.398 . S
C175 C140 1.382 . S
C175 H152 0.951 . S
C175 C174 1.398 . S
C176 C177 1.384 . S
C176 H189 0.947 . S
C176 C211 1.382 . S
C177 C176 1.384 . S
C177 C178 1.378 . S
C178 C177 1.378 . S
C178 C179 1.378 . S
C178 H190 0.952 1_554 S
C179 C178 1.378 . S
C179 H191 0.950 . S
C179 C210 1.383 . S
H180 C199 0.947 . S
H181 C200 0.946 . S
H182 C202 0.953 . S
H183 C203 0.945 . S
H184 C205 0.952 . S
H185 C206 0.949 . S
H186 C208 0.950 . S
H187 C209 0.948 . S
H188 C211 0.951 . S
H189 C176 0.947 . S
H190 C178 0.952 1_556 S
H191 C179 0.950 . S
N192 C195 1.382 . S
N192 C197 1.363 . S
N193 C195 1.371 . S
N193 C196 1.372 . S
N194 C196 1.361 . S
N194 C197 1.377 . S
C195 N192 1.382 . S
C195 N193 1.371 . S
C195 C198 1.480 . S
C196 N193 1.372 . S
C196 N194 1.361 . S
C196 C204 1.457 . S
C197 N192 1.363 . S
C197 N194 1.377 . S
C197 C210 1.479 . S
C198 C195 1.480 . S
C198 C199 1.383 . S
C198 C203 1.385 . S
C199 H180 0.947 . S
C199 C198 1.383 . S
C199 C200 1.388 . S
C200 H181 0.946 . S
C200 C199 1.388 . S
C200 C201 1.384 . S
C201 C200 1.384 . S
C201 C202 1.377 . S
C202 H182 0.953 . S
C202 C201 1.377 . S
C202 C203 1.369 . S
C203 H183 0.945 . S
C203 C198 1.385 . S
C203 C202 1.369 . S
C204 C196 1.457 . S
C204 C205 1.372 . S
C204 C209 1.364 . S
C205 H184 0.952 . S
C205 C204 1.372 . S
C205 C206 1.389 . S
C206 H185 0.949 . S
C206 C205 1.389 . S
C206 C207 1.387 . S
C207 C206 1.387 . S
C207 C208 1.372 . S
C208 H186 0.950 . S
C208 C207 1.372 . S
C208 C209 1.379 . S
C209 H187 0.948 . S
C209 C204 1.364 . S
C209 C208 1.379 . S
C210 C179 1.383 . S
C210 C197 1.479 . S
C210 C211 1.398 . S
C211 C176 1.382 . S
C211 H188 0.951 . S
C211 C210 1.398 . S
H212 C230 0.951 . S
H213 C232 0.951 . S
H214 C234 0.950 . S
H215 C235 0.950 . S
H216 C237 0.950 . S
H217 C240 0.950 . S
H218 C241 0.950 . S
H219 C243 0.950 . S
H220 C244 0.950 . S
H221 C245 0.951 . S
H222 C247 0.951 . S
H223 C249 0.950 . S
H224 C250 0.950 . S
H225 C252 0.950 . S
H226 C255 0.950 . S
H227 C256 0.950 . S
H228 C258 0.950 . S
H229 C259 0.950 . S
C230 H212 0.951 . S
C230 C231 1.366 . S
C230 C232 1.388 . S
C231 C230 1.366 . S
C231 C235 1.385 . S
C232 H213 0.951 . S
C232 C230 1.388 . S
C232 C233 1.366 . S
C233 C232 1.366 . S
C233 C234 1.414 . S
C233 C236 1.499 . S
C234 H214 0.950 . S
C234 C233 1.414 . S
C234 C235 1.374 . S
C235 H215 0.950 . S
C235 C231 1.385 . S
C235 C234 1.374 . S
C236 C233 1.499 . S
C236 C237 1.373 1_554 S
C236 C238 1.389 . S
C237 H216 0.950 . S
C237 C236 1.373 1_556 S
C237 C253 1.377 . S
C238 C236 1.389 . S
C238 C239 1.524 . S
C238 C252 1.377 . S
C239 C238 1.524 . S
C239 C240 1.397 . S
C239 C244 1.363 . S
C240 H217 0.950 . S
C240 C239 1.397 . S
C240 C241 1.334 . S
C241 H218 0.950 . S
C241 C240 1.334 . S
C241 C242 1.287 . S
C242 C241 1.287 . S
C242 C243 1.524 . S
C242 H261 0.913 . S
C243 H219 0.950 . S
C243 C242 1.524 . S
C243 C244 1.415 . S
C244 H220 0.950 . S
C244 C239 1.363 . S
C244 C243 1.415 . S
C245 H221 0.951 . S
C245 C246 1.366 . S
C245 C247 1.388 . S
C246 C245 1.366 . S
C246 C250 1.385 . S
C247 H222 0.951 . S
C247 C245 1.388 . S
C247 C248 1.366 . S
C248 C247 1.366 . S
C248 C249 1.414 . S
C248 C251 1.499 . S
C249 H223 0.950 . S
C249 C248 1.414 . S
C249 C250 1.374 . S
C250 H224 0.950 . S
C250 C246 1.385 . S
C250 C249 1.374 . S
C251 C248 1.499 . S
C251 C252 1.373 . S
C251 C253 1.389 1_554 S
C252 H225 0.950 . S
C252 C238 1.377 . S
C252 C251 1.373 . S
C253 C237 1.377 . S
C253 C251 1.389 1_556 S
C253 C254 1.524 . S
C254 C253 1.524 . S
C254 C255 1.397 . S
C254 C259 1.363 . S
C255 H226 0.950 . S
C255 C254 1.397 . S
C255 C256 1.334 . S
C256 H227 0.950 . S
C256 C255 1.334 . S
C256 C257 1.287 . S
C257 C256 1.287 . S
C257 C258 1.524 . S
C257 H260 0.999 . S
C258 H228 0.950 . S
C258 C257 1.524 . S
C258 C259 1.415 . S
C259 H229 0.950 . S
C259 C254 1.363 . S
C259 C258 1.415 . S
H260 C257 0.999 . S
H261 C242 0.913 . S
H262 C280 0.951 . S
H263 C282 0.951 . S
H264 C284 0.950 . S
H265 C285 0.950 . S
H266 C287 0.944 1_554 S
H267 C290 0.950 . S
H268 C291 0.950 . S
H269 C293 0.950 . S
H270 C294 0.950 1_554 S
H271 C295 0.951 . S
H272 C297 0.951 . S
H273 C299 0.950 . S
H274 C300 0.961 . S
H275 C302 0.950 . S
H276 C305 0.950 . S
H277 C306 0.950 . S
H278 C308 0.950 . S
H279 C309 0.950 . S
C280 H262 0.951 . S
C280 C281 1.366 . S
C280 C282 1.388 . S
C281 C280 1.366 . S
C281 C285 1.385 1_554 S
C282 H263 0.951 . S
C282 C280 1.388 . S
C282 C283 1.366 1_554 S
C283 C282 1.366 1_556 S
C283 C284 1.414 . S
C283 C286 1.499 . S
C284 H264 0.950 . S
C284 C283 1.414 . S
C284 C285 1.374 . S
C285 H265 0.950 . S
C285 C281 1.385 1_556 S
C285 C284 1.374 . S
C286 C283 1.499 . S
C286 C287 1.373 . S
C286 C288 1.389 . S
C287 H266 0.944 1_556 S
C287 C286 1.373 . S
C287 C303 1.377 . S
C288 C286 1.389 . S
C288 C289 1.524 . S
C288 C302 1.377 . S
C289 C288 1.524 . S
C289 C290 1.397 . S
C289 C294 1.363 . S
C290 H267 0.950 . S
C290 C289 1.397 . S
C290 C291 1.334 . S
C291 H268 0.950 . S
C291 C290 1.334 . S
C291 C292 1.287 . S
C292 C291 1.287 . S
C292 C293 1.524 . S
C292 H311 0.913 . S
C293 H269 0.950 . S
C293 C292 1.524 . S
C293 C294 1.415 . S
C294 H270 0.950 1_556 S
C294 C289 1.363 . S
C294 C293 1.415 . S
C295 H271 0.951 . S
C295 C296 1.366 . S
C295 C297 1.388 . S
C296 C295 1.366 . S
C296 C300 1.372 1_556 S
C297 H272 0.951 . S
C297 C295 1.388 . S
C297 C298 1.366 . S
C298 C297 1.366 . S
C298 C299 1.414 1_556 S
C298 C301 1.499 . S
C299 H273 0.950 . S
C299 C298 1.414 1_554 S
C299 C300 1.376 . S
C300 H274 0.961 . S
C300 C296 1.372 1_554 S
C300 C299 1.376 . S
C301 C298 1.499 . S
C301 C302 1.373 . S
C301 C303 1.389 . S
C302 H275 0.950 . S
C302 C288 1.377 . S
C302 C301 1.373 . S
C303 C287 1.377 . S
C303 C301 1.389 . S
C303 C304 1.524 1_556 S
C304 C303 1.524 1_554 S
C304 C305 1.397 . S
C304 C309 1.363 1_554 S
C305 H276 0.950 . S
C305 C304 1.397 . S
C305 C306 1.334 . S
C306 H277 0.950 . S
C306 C305 1.334 . S
C306 C307 1.287 . S
C307 C306 1.287 . S
C307 C308 1.524 1_554 S
C307 H310 0.999 . S
C308 H278 0.950 . S
C308 C307 1.524 1_556 S
C308 C309 1.415 . S
C309 H279 0.950 . S
C309 C304 1.363 1_556 S
C309 C308 1.415 . S
H310 C307 0.999 . S
H311 C292 0.913 . S
H312 C330 0.951 . S
H313 C332 0.951 . S
H314 C334 0.950 . S
H315 C335 0.950 . S
H316 C337 0.950 . S
H317 C340 0.950 . S
H318 C341 0.950 . S
H319 C343 0.950 . S
H320 C344 0.950 . S
H321 C345 0.951 . S
H322 C347 0.951 . S
H323 C349 0.950 1_556 S
H324 C350 0.950 1_556 S
H325 C352 0.950 . S
H326 C355 0.950 . S
H327 C356 0.950 . S
H328 C358 0.950 . S
H329 C359 0.950 . S
C330 H312 0.951 . S
C330 C331 1.366 1_556 S
C330 C332 1.388 . S
C331 C330 1.366 1_554 S
C331 C335 1.385 . S
C332 H313 0.951 . S
C332 C330 1.388 . S
C332 C333 1.366 1_556 S
C333 C332 1.366 1_554 S
C333 C334 1.414 . S
C333 C336 1.499 . S
C334 H314 0.950 . S
C334 C333 1.414 . S
C334 C335 1.374 . S
C335 H315 0.950 . S
C335 C331 1.385 . S
C335 C334 1.374 . S
C336 C333 1.499 . S
C336 C337 1.373 . S
C336 C338 1.389 1_554 S
C337 H316 0.950 . S
C337 C336 1.373 . S
C337 C353 1.377 . S
C338 C336 1.389 1_556 S
C338 C339 1.524 . S
C338 C352 1.377 . S
C339 C338 1.524 . S
C339 C340 1.397 . S
C339 C344 1.363 . S
C340 H317 0.950 . S
C340 C339 1.397 . S
C340 C341 1.334 . S
C341 H318 0.950 . S
C341 C340 1.334 . S
C341 C342 1.287 . S
C342 C341 1.287 . S
C342 C343 1.524 . S
C342 H361 0.913 . S
C343 H319 0.950 . S
C343 C342 1.524 . S
C343 C344 1.415 . S
C344 H320 0.950 . S
C344 C339 1.363 . S
C344 C343 1.415 . S
C345 H321 0.951 . S
C345 C346 1.366 . S
C345 C347 1.388 . S
C346 C345 1.366 . S
C346 C350 1.385 . S
C347 H322 0.951 . S
C347 C345 1.388 . S
C347 C348 1.366 . S
C348 C347 1.366 . S
C348 C349 1.414 . S
C348 C351 1.499 . S
C349 H323 0.950 1_554 S
C349 C348 1.414 . S
C349 C350 1.374 . S
C350 H324 0.950 1_554 S
C350 C346 1.385 . S
C350 C349 1.374 . S
C351 C348 1.499 . S
C351 C352 1.373 1_554 S
C351 C353 1.389 . S
C352 H325 0.950 . S
C352 C338 1.377 . S
C352 C351 1.373 1_556 S
C353 C337 1.377 . S
C353 C351 1.389 . S
C353 C354 1.524 . S
C354 C353 1.524 . S
C354 C355 1.397 . S
C354 C359 1.363 . S
C355 H326 0.950 . S
C355 C354 1.397 . S
C355 C356 1.334 . S
C356 H327 0.950 . S
C356 C355 1.334 . S
C356 C357 1.287 . S
C357 C356 1.287 . S
C357 C358 1.524 . S
C357 H360 0.999 . S
C358 H328 0.950 . S
C358 C357 1.524 . S
C358 C359 1.415 . S
C359 H329 0.950 . S
C359 C354 1.363 . S
C359 C358 1.415 . S
H360 C357 0.999 . S
H361 C342 0.913 . S
H362 C380 0.951 . S
H363 C382 0.951 . S
H364 C384 0.950 . S
H365 C385 0.950 . S
H366 C387 0.950 . S
H367 C390 0.950 . S
H368 C391 0.950 . S
H369 C393 0.950 . S
H370 C394 0.950 . S
H371 C395 0.951 . S
H372 C397 0.951 . S
H373 C399 0.955 . S
H374 C400 0.950 1_554 S
H375 C402 0.950 . S
H376 C405 0.950 . S
H377 C406 0.950 . S
H378 C408 0.950 . S
H379 C409 0.950 1_556 S
C380 H362 0.951 . S
C380 C381 1.366 . S
C380 C382 1.388 . S
C381 C380 1.366 . S
C381 C385 1.385 1_554 S
C382 H363 0.951 . S
C382 C380 1.388 . S
C382 C383 1.366 1_554 S
C383 C382 1.366 1_556 S
C383 C384 1.414 . S
C383 C386 1.499 . S
C384 H364 0.950 . S
C384 C383 1.414 . S
C384 C385 1.374 . S
C385 H365 0.950 . S
C385 C381 1.385 1_556 S
C385 C384 1.374 . S
C386 C383 1.499 . S
C386 C387 1.373 1_556 S
C386 C388 1.389 . S
C387 H366 0.950 . S
C387 C386 1.373 1_554 S
C387 C403 1.377 . S
C388 C386 1.389 . S
C388 C389 1.524 . S
C388 C402 1.377 . S
C389 C388 1.524 . S
C389 C390 1.397 . S
C389 C394 1.363 . S
C390 H367 0.950 . S
C390 C389 1.397 . S
C390 C391 1.334 . S
C391 H368 0.950 . S
C391 C390 1.334 . S
C391 C392 1.287 . S
C392 C391 1.287 . S
C392 C393 1.524 . S
C392 H411 0.913 . S
C393 H369 0.950 . S
C393 C392 1.524 . S
C393 C394 1.415 . S
C394 H370 0.950 . S
C394 C389 1.363 . S
C394 C393 1.415 . S
C395 H371 0.951 . S
C395 C396 1.366 . S
C395 C397 1.388 . S
C396 C395 1.366 . S
C396 C400 1.385 . S
C397 H372 0.951 . S
C397 C395 1.388 . S
C397 C398 1.366 . S
C398 C397 1.366 . S
C398 C399 1.411 1_556 S
C398 C401 1.499 . S
C399 H373 0.955 . S
C399 C398 1.411 1_554 S
C399 C400 1.373 1_554 S
C400 H374 0.950 1_556 S
C400 C396 1.385 . S
C400 C399 1.373 1_556 S
C401 C398 1.499 . S
C401 C402 1.373 . S
C401 C403 1.389 1_556 S
C402 H375 0.950 . S
C402 C388 1.377 . S
C402 C401 1.373 . S
C403 C387 1.377 . S
C403 C401 1.389 1_554 S
C403 C404 1.524 . S
C404 C403 1.524 . S
C404 C405 1.397 . S
C404 C409 1.363 . S
C405 H376 0.950 . S
C405 C404 1.397 . S
C405 C406 1.334 . S
C406 H377 0.950 . S
C406 C405 1.334 . S
C406 C407 1.287 . S
C407 C406 1.287 . S
C407 C408 1.524 . S
C407 H410 0.999 . S
C408 H378 0.950 . S
C408 C407 1.524 . S
C408 C409 1.415 . S
C409 H379 0.950 1_554 S
C409 C404 1.363 . S
C409 C408 1.415 . S
H410 C407 0.999 . S
H411 C392 0.913 . S
H412 C430 0.951 . S
H413 C432 0.951 . S
H414 C434 0.950 . S
H415 C435 0.950 . S
H416 C437 0.950 . S
H417 C440 0.950 . S
H418 C441 0.950 . S
H419 C443 0.950 . S
H420 C444 0.950 . S
H421 C445 0.951 . S
H422 C447 0.951 . S
H423 C449 0.950 . S
H424 C450 0.950 . S
H425 C452 0.950 . S
H426 C455 0.950 . S
H427 C456 0.950 . S
H428 C458 0.950 . S
H429 C459 0.950 . S
C430 H412 0.951 . S
C430 C431 1.366 . S
C430 C432 1.388 . S
C431 C430 1.366 . S
C431 C435 1.385 . S
C432 H413 0.951 . S
C432 C430 1.388 . S
C432 C433 1.366 . S
C433 C432 1.366 . S
C433 C434 1.414 . S
C433 C436 1.499 . S
C434 H414 0.950 . S
C434 C433 1.414 . S
C434 C435 1.374 . S
C435 H415 0.950 . S
C435 C431 1.385 . S
C435 C434 1.374 . S
C436 C433 1.499 . S
C436 C437 1.373 . S
C436 C438 1.389 . S
C437 H416 0.950 . S
C437 C436 1.373 . S
C437 C453 1.377 . S
C438 C436 1.389 . S
C438 C439 1.524 . S
C438 C452 1.377 . S
C439 C438 1.524 . S
C439 C440 1.397 . S
C439 C444 1.363 . S
C440 H417 0.950 . S
C440 C439 1.397 . S
C440 C441 1.334 . S
C441 H418 0.950 . S
C441 C440 1.334 . S
C441 C442 1.287 . S
C442 C441 1.287 . S
C442 C443 1.524 . S
C442 H461 0.913 . S
C443 H419 0.950 . S
C443 C442 1.524 . S
C443 C444 1.415 . S
C444 H420 0.950 . S
C444 C439 1.363 . S
C444 C443 1.415 . S
C445 H421 0.951 . S
C445 C446 1.366 . S
C445 C447 1.388 . S
C446 C445 1.366 . S
C446 C450 1.385 . S
C447 H422 0.951 . S
C447 C445 1.388 . S
C447 C448 1.366 . S
C448 C447 1.366 . S
C448 C449 1.414 . S
C448 C451 1.499 . S
C449 H423 0.950 . S
C449 C448 1.414 . S
C449 C450 1.374 . S
C450 H424 0.950 . S
C450 C446 1.385 . S
C450 C449 1.374 . S
C451 C448 1.499 . S
C451 C452 1.373 . S
C451 C453 1.389 . S
C452 H425 0.950 . S
C452 C438 1.377 . S
C452 C451 1.373 . S
C453 C437 1.377 . S
C453 C451 1.389 . S
C453 C454 1.524 . S
C454 C453 1.524 . S
C454 C455 1.397 . S
C454 C459 1.363 . S
C455 H426 0.950 . S
C455 C454 1.397 . S
C455 C456 1.334 . S
C456 H427 0.950 . S
C456 C455 1.334 . S
C456 C457 1.287 . S
C457 C456 1.287 . S
C457 C458 1.524 . S
C457 H460 0.999 . S
C458 H428 0.950 . S
C458 C457 1.524 . S
C458 C459 1.415 . S
C459 H429 0.950 . S
C459 C454 1.363 . S
C459 C458 1.415 . S
H460 C457 0.999 . S
H461 C442 0.913 . S
H462 C480 0.951 . S
H463 C482 0.951 . S
H464 C484 0.950 . S
H465 C485 0.950 . S
H466 C487 0.950 . S
H467 C490 0.950 . S
H468 C491 0.950 . S
H469 C493 0.950 . S
H470 C494 0.950 . S
H471 C495 0.951 . S
H472 C497 0.951 . S
H473 C499 0.950 . S
H474 C500 0.950 . S
H475 C502 0.950 . S
H476 C505 0.950 . S
H477 C506 0.950 . S
H478 C508 0.950 . S
H479 C509 0.950 . S
C480 H462 0.951 . S
C480 C481 1.366 . S
C480 C482 1.388 . S
C481 C480 1.366 . S
C481 C485 1.385 . S
C482 H463 0.951 . S
C482 C480 1.388 . S
C482 C483 1.366 . S
C483 C482 1.366 . S
C483 C484 1.414 . S
C483 C486 1.499 . S
C484 H464 0.950 . S
C484 C483 1.414 . S
C484 C485 1.374 . S
C485 H465 0.950 . S
C485 C481 1.385 . S
C485 C484 1.374 . S
C486 C483 1.499 . S
C486 C487 1.373 . S
C486 C488 1.389 . S
C487 H466 0.950 . S
C487 C486 1.373 . S
C487 C503 1.377 . S
C488 C486 1.389 . S
C488 C489 1.524 . S
C488 C502 1.377 . S
C489 C488 1.524 . S
C489 C490 1.397 . S
C489 C494 1.363 . S
C490 H467 0.950 . S
C490 C489 1.397 . S
C490 C491 1.334 . S
C491 H468 0.950 . S
C491 C490 1.334 . S
C491 C492 1.287 . S
C492 C491 1.287 . S
C492 C493 1.524 . S
C492 H511 0.913 . S
C493 H469 0.950 . S
C493 C492 1.524 . S
C493 C494 1.415 . S
C494 H470 0.950 . S
C494 C489 1.363 . S
C494 C493 1.415 . S
C495 H471 0.951 . S
C495 C496 1.366 . S
C495 C497 1.388 . S
C496 C495 1.366 . S
C496 C500 1.385 . S
C497 H472 0.951 . S
C497 C495 1.388 . S
C497 C498 1.366 . S
C498 C497 1.366 . S
C498 C499 1.414 . S
C498 C501 1.499 . S
C499 H473 0.950 . S
C499 C498 1.414 . S
C499 C500 1.374 . S
C500 H474 0.950 . S
C500 C496 1.385 . S
C500 C499 1.374 . S
C501 C498 1.499 . S
C501 C502 1.373 . S
C501 C503 1.389 . S
C502 H475 0.950 . S
C502 C488 1.377 . S
C502 C501 1.373 . S
C503 C487 1.377 . S
C503 C501 1.389 . S
C503 C504 1.524 . S
C504 C503 1.524 . S
C504 C505 1.397 . S
C504 C509 1.363 . S
C505 H476 0.950 . S
C505 C504 1.397 . S
C505 C506 1.334 . S
C506 H477 0.950 . S
C506 C505 1.334 . S
C506 C507 1.287 . S
C507 C506 1.287 . S
C507 C508 1.524 . S
C507 H510 0.999 . S
C508 H478 0.950 . S
C508 C507 1.524 . S
C508 C509 1.415 . S
C509 H479 0.950 . S
C509 C504 1.363 . S
C509 C508 1.415 . S
H510 C507 0.999 . S
H511 C492 0.913 . S
H512 C530 0.951 . S
H513 C532 0.951 . S
H514 C534 0.950 . S
H515 C535 0.950 . S
H516 C537 0.950 . S
H517 C540 0.950 . S
H518 C541 0.950 . S
H519 C543 0.950 . S
H520 C544 0.950 . S
H521 C545 0.951 . S
H522 C547 0.951 . S
H523 C549 0.950 . S
H524 C550 0.950 . S
H525 C552 0.950 . S
H526 C555 0.950 . S
H527 C556 0.950 . S
H528 C558 0.950 . S
H529 C559 0.950 . S
C530 H512 0.951 . S
C530 C531 1.366 . S
C530 C532 1.388 . S
C531 C530 1.366 . S
C531 C535 1.385 . S
C532 H513 0.951 . S
C532 C530 1.388 . S
C532 C533 1.366 . S
C533 C532 1.366 . S
C533 C534 1.414 . S
C533 C536 1.499 . S
C534 H514 0.950 . S
C534 C533 1.414 . S
C534 C535 1.374 . S
C535 H515 0.950 . S
C535 C531 1.385 . S
C535 C534 1.374 . S
C536 C533 1.499 . S
C536 C537 1.373 . S
C536 C538 1.389 . S
C537 H516 0.950 . S
C537 C536 1.373 . S
C537 C553 1.377 . S
C538 C536 1.389 . S
C538 C539 1.524 . S
C538 C552 1.377 . S
C539 C538 1.524 . S
C539 C540 1.397 . S
C539 C544 1.363 . S
C540 H517 0.950 . S
C540 C539 1.397 . S
C540 C541 1.334 . S
C541 H518 0.950 . S
C541 C540 1.334 . S
C541 C542 1.287 . S
C542 C541 1.287 . S
C542 C543 1.524 . S
C542 H561 0.913 . S
C543 H519 0.950 . S
C543 C542 1.524 . S
C543 C544 1.415 . S
C544 H520 0.950 . S
C544 C539 1.363 . S
C544 C543 1.415 . S
C545 H521 0.951 . S
C545 C546 1.366 . S
C545 C547 1.388 . S
C546 C545 1.366 . S
C546 C550 1.385 . S
C547 H522 0.951 . S
C547 C545 1.388 . S
C547 C548 1.366 . S
C548 C547 1.366 . S
C548 C549 1.414 . S
C548 C551 1.499 . S
C549 H523 0.950 . S
C549 C548 1.414 . S
C549 C550 1.374 . S
C550 H524 0.950 . S
C550 C546 1.385 . S
C550 C549 1.374 . S
C551 C548 1.499 . S
C551 C552 1.373 . S
C551 C553 1.389 . S
C552 H525 0.950 . S
C552 C538 1.377 . S
C552 C551 1.373 . S
C553 C537 1.377 . S
C553 C551 1.389 . S
C553 C554 1.524 . S
C554 C553 1.524 . S
C554 C555 1.397 . S
C554 C559 1.363 . S
C555 H526 0.950 . S
C555 C554 1.397 . S
C555 C556 1.334 . S
C556 H527 0.950 . S
C556 C555 1.334 . S
C556 C557 1.287 . S
C557 C556 1.287 . S
C557 C558 1.524 . S
C557 H560 0.999 . S
C558 H528 0.950 . S
C558 C557 1.524 . S
C558 C559 1.415 . S
C559 H529 0.950 . S
C559 C554 1.363 . S
C559 C558 1.415 . S
H560 C557 0.999 . S
H561 C542 0.913 . S
H562 C580 0.951 . S
H563 C582 0.951 . S
H564 C584 0.950 . S
H565 C585 0.950 . S
H566 C587 0.950 . S
H567 C590 0.950 . S
H568 C591 0.950 . S
H569 C593 0.950 . S
H570 C594 0.950 . S
H571 C595 0.951 . S
H572 C597 0.951 . S
H573 C599 0.950 . S
H574 C600 0.950 . S
H575 C602 0.950 . S
H576 C605 0.950 . S
H577 C606 0.950 . S
H578 C608 0.950 . S
H579 C609 0.950 . S
C580 H562 0.951 . S
C580 C581 1.366 . S
C580 C582 1.388 . S
C581 C580 1.366 . S
C581 C585 1.385 . S
C582 H563 0.951 . S
C582 C580 1.388 . S
C582 C583 1.366 . S
C583 C582 1.366 . S
C583 C584 1.414 . S
C583 C586 1.499 . S
C584 H564 0.950 . S
C584 C583 1.414 . S
C584 C585 1.374 . S
C585 H565 0.950 . S
C585 C581 1.385 . S
C585 C584 1.374 . S
C586 C583 1.499 . S
C586 C587 1.373 . S
C586 C588 1.389 . S
C587 H566 0.950 . S
C587 C586 1.373 . S
C587 C603 1.377 . S
C588 C586 1.389 . S
C588 C589 1.524 . S
C588 C602 1.377 . S
C589 C588 1.524 . S
C589 C590 1.397 . S
C589 C594 1.363 . S
C590 H567 0.950 . S
C590 C589 1.397 . S
C590 C591 1.334 . S
C591 H568 0.950 . S
C591 C590 1.334 . S
C591 C592 1.287 . S
C592 C591 1.287 . S
C592 C593 1.524 . S
C592 H611 0.913 . S
C593 H569 0.950 . S
C593 C592 1.524 . S
C593 C594 1.415 . S
C594 H570 0.950 . S
C594 C589 1.363 . S
C594 C593 1.415 . S
C595 H571 0.951 . S
C595 C596 1.366 . S
C595 C597 1.388 . S
C596 C595 1.366 . S
C596 C600 1.385 . S
C597 H572 0.951 . S
C597 C595 1.388 . S
C597 C598 1.366 . S
C598 C597 1.366 . S
C598 C599 1.414 . S
C598 C601 1.499 . S
C599 H573 0.950 . S
C599 C598 1.414 . S
C599 C600 1.374 . S
C600 H574 0.950 . S
C600 C596 1.385 . S
C600 C599 1.374 . S
C601 C598 1.499 . S
C601 C602 1.373 . S
C601 C603 1.389 . S
C602 H575 0.950 . S
C602 C588 1.377 . S
C602 C601 1.373 . S
C603 C587 1.377 . S
C603 C601 1.389 . S
C603 C604 1.524 . S
C604 C603 1.524 . S
C604 C605 1.397 . S
C604 C609 1.363 . S
C605 H576 0.950 . S
C605 C604 1.397 . S
C605 C606 1.334 . S
C606 H577 0.950 . S
C606 C605 1.334 . S
C606 C607 1.287 . S
C607 C606 1.287 . S
C607 C608 1.524 . S
C607 H610 0.999 . S
C608 H578 0.950 . S
C608 C607 1.524 . S
C608 C609 1.415 . S
C609 H579 0.950 . S
C609 C604 1.363 . S
C609 C608 1.415 . S
H610 C607 0.999 . S
H611 C592 0.913 . S
H612 C630 0.951 . S
H613 C632 0.951 . S
H614 C634 0.950 . S
H615 C635 0.950 . S
H616 C637 0.950 . S
H617 C640 0.950 . S
H618 C641 0.950 . S
H619 C643 0.950 . S
H620 C644 0.950 . S
H621 C645 0.951 . S
H622 C647 0.951 . S
H623 C649 0.950 . S
H624 C650 0.950 . S
H625 C652 0.950 . S
H626 C655 0.950 . S
H627 C656 0.950 . S
H628 C658 0.950 . S
H629 C659 0.950 . S
C630 H612 0.951 . S
C630 C631 1.366 . S
C630 C632 1.388 . S
C631 C630 1.366 . S
C631 C635 1.385 1_445 S
C632 H613 0.951 . S
C632 C630 1.388 . S
C632 C633 1.366 . S
C633 C632 1.366 . S
C633 C634 1.414 1_445 S
C633 C636 1.499 . S
C634 H614 0.950 . S
C634 C633 1.414 1_665 S
C634 C635 1.374 . S
C635 H615 0.950 . S
C635 C631 1.385 1_665 S
C635 C634 1.374 . S
C636 C633 1.499 . S
C636 C637 1.373 1_445 S
C636 C638 1.389 . S
C637 H616 0.950 . S
C637 C636 1.373 1_665 S
C637 C653 1.377 . S
C638 C636 1.389 . S
C638 C639 1.524 . S
C638 C652 1.377 . S
C639 C638 1.524 . S
C639 C640 1.397 1_545 S
C639 C644 1.363 . S
C640 H617 0.950 . S
C640 C639 1.397 1_565 S
C640 C641 1.334 . S
C641 H618 0.950 . S
C641 C640 1.334 . S
C641 C642 1.287 1_565 S
C642 C641 1.287 1_545 S
C642 C643 1.524 . S
C642 H661 0.913 . S
C643 H619 0.950 . S
C643 C642 1.524 . S
C643 C644 1.415 . S
C644 H620 0.950 . S
C644 C639 1.363 . S
C644 C643 1.415 . S
C645 H621 0.951 . S
C645 C646 1.371 1_565 S
C645 C647 1.388 . S
C646 C645 1.371 1_545 S
C646 C650 1.379 1_655 S
C647 H622 0.951 . S
C647 C645 1.388 . S
C647 C648 1.375 1_565 S
C648 C647 1.375 1_545 S
C648 C649 1.405 1_655 S
C648 C651 1.497 1_655 S
C649 H623 0.950 . S
C649 C648 1.405 1_455 S
C649 C650 1.374 . S
C650 H624 0.950 . S
C650 C646 1.379 1_455 S
C650 C649 1.374 . S
C651 C648 1.497 1_455 S
C651 C652 1.386 . S
C651 C653 1.378 1_445 S
C652 H625 0.950 . S
C652 C638 1.377 . S
C652 C651 1.386 . S
C653 C637 1.377 . S
C653 C651 1.378 1_665 S
C653 C654 1.524 . S
C654 C653 1.524 . S
C654 C655 1.397 1_565 S
C654 C659 1.363 . S
C655 H626 0.950 . S
C655 C654 1.397 1_545 S
C655 C656 1.334 . S
C656 H627 0.950 . S
C656 C655 1.334 . S
C656 C657 1.287 1_545 S
C657 C656 1.287 1_565 S
C657 C658 1.524 . S
C657 H660 0.999 . S
C658 H628 0.950 . S
C658 C657 1.524 . S
C658 C659 1.415 . S
C659 H629 0.950 . S
C659 C654 1.363 . S
C659 C658 1.415 . S
H660 C657 0.999 . S
H661 C642 0.913 . S
H662 C680 0.951 . S
H663 C682 0.951 . S
H664 C684 0.950 . S
H665 C685 0.950 . S
H666 C687 0.952 . S
H667 C690 0.950 . S
H668 C691 0.950 . S
H669 C693 0.950 . S
H670 C694 0.950 . S
H671 C695 0.951 . S
H672 C697 0.951 . S
H673 C699 0.950 1_655 S
H674 C700 0.950 1_655 S
H675 C702 0.950 . S
H676 C705 0.950 . S
H677 C706 0.950 . S
H678 C708 0.950 . S
H679 C709 0.950 . S
C680 H662 0.951 . S
C680 C681 1.366 1_655 S
C680 C682 1.388 . S
C681 C680 1.366 1_455 S
C681 C685 1.385 1_545 S
C682 H663 0.951 . S
C682 C680 1.388 . S
C682 C683 1.366 1_655 S
C683 C682 1.366 1_455 S
C683 C684 1.414 1_545 S
C683 C686 1.499 . S
C684 H664 0.950 . S
C684 C683 1.414 1_565 S
C684 C685 1.374 . S
C685 H665 0.950 . S
C685 C681 1.385 1_565 S
C685 C684 1.374 . S
C686 C683 1.499 . S
C686 C687 1.372 1_545 S
C686 C688 1.389 1_455 S
C687 H666 0.952 . S
C687 C686 1.372 1_565 S
C687 C703 1.376 1_565 S
C688 C686 1.389 1_655 S
C688 C689 1.524 . S
C688 C702 1.377 . S
C689 C688 1.524 . S
C689 C690 1.397 1_545 S
C689 C694 1.363 . S
C690 H667 0.950 . S
C690 C689 1.397 1_565 S
C690 C691 1.334 . S
C691 H668 0.950 . S
C691 C690 1.334 . S
C691 C692 1.287 1_565 S
C692 C691 1.287 1_545 S
C692 C693 1.524 . S
C692 H711 0.913 . S
C693 H669 0.950 . S
C693 C692 1.524 . S
C693 C694 1.415 . S
C694 H670 0.950 . S
C694 C689 1.363 . S
C694 C693 1.415 . S
C695 H671 0.951 . S
C695 C696 1.366 1_565 S
C695 C697 1.388 . S
C696 C695 1.366 1_545 S
C696 C700 1.385 . S
C697 H672 0.951 . S
C697 C695 1.388 . S
C697 C698 1.366 1_565 S
C698 C697 1.366 1_545 S
C698 C699 1.414 . S
C698 C701 1.499 . S
C699 H673 0.950 1_455 S
C699 C698 1.414 . S
C699 C700 1.374 . S
C700 H674 0.950 1_455 S
C700 C696 1.385 . S
C700 C699 1.374 . S
C701 C698 1.499 . S
C701 C702 1.373 1_455 S
C701 C703 1.389 . S
C702 H675 0.950 . S
C702 C688 1.377 . S
C702 C701 1.373 1_655 S
C703 C687 1.376 1_545 S
C703 C701 1.389 . S
C703 C704 1.524 1_545 S
C704 C703 1.524 1_565 S
C704 C705 1.397 1_565 S
C704 C709 1.363 . S
C705 H676 0.950 . S
C705 C704 1.397 1_545 S
C705 C706 1.334 . S
C706 H677 0.950 . S
C706 C705 1.334 . S
C706 C707 1.287 1_545 S
C707 C706 1.287 1_565 S
C707 C708 1.524 . S
C707 H710 0.999 . S
C708 H678 0.950 . S
C708 C707 1.524 . S
C708 C709 1.415 . S
C709 H679 0.950 . S
C709 C704 1.363 . S
C709 C708 1.415 . S
H710 C707 0.999 . S
H711 C692 0.913 . S
H712 C730 0.951 . S
H713 C732 0.951 . S
H714 C734 0.950 . S
H715 C735 0.950 . S
H716 C737 0.950 . S
H717 C740 0.950 . S
H718 C741 0.950 . S
H719 C743 0.950 . S
H720 C744 0.950 . S
H721 C745 0.951 . S
H722 C747 0.951 . S
H723 C749 0.950 . S
H724 C750 0.950 . S
H725 C752 0.950 . S
H726 C755 0.950 . S
H727 C756 0.950 . S
H728 C758 0.950 . S
H729 C759 0.950 . S
C730 H712 0.951 . S
C730 C731 1.366 . S
C730 C732 1.388 . S
C731 C730 1.366 . S
C731 C735 1.385 . S
C732 H713 0.951 . S
C732 C730 1.388 . S
C732 C733 1.366 . S
C733 C732 1.366 . S
C733 C734 1.414 . S
C733 C736 1.499 . S
C734 H714 0.950 . S
C734 C733 1.414 . S
C734 C735 1.374 . S
C735 H715 0.950 . S
C735 C731 1.385 . S
C735 C734 1.374 . S
C736 C733 1.499 . S
C736 C737 1.373 . S
C736 C738 1.389 . S
C737 H716 0.950 . S
C737 C736 1.373 . S
C737 C753 1.377 . S
C738 C736 1.389 . S
C738 C739 1.524 . S
C738 C752 1.377 . S
C739 C738 1.524 . S
C739 C740 1.397 . S
C739 C744 1.363 . S
C740 H717 0.950 . S
C740 C739 1.397 . S
C740 C741 1.334 . S
C741 H718 0.950 . S
C741 C740 1.334 . S
C741 C742 1.287 . S
C742 C741 1.287 . S
C742 C743 1.524 . S
C742 H761 0.913 . S
C743 H719 0.950 . S
C743 C742 1.524 . S
C743 C744 1.415 . S
C744 H720 0.950 . S
C744 C739 1.363 . S
C744 C743 1.415 . S
C745 H721 0.951 . S
C745 C746 1.366 . S
C745 C747 1.388 . S
C746 C745 1.366 . S
C746 C750 1.385 . S
C747 H722 0.951 . S
C747 C745 1.388 . S
C747 C748 1.366 . S
C748 C747 1.366 . S
C748 C749 1.414 . S
C748 C751 1.499 . S
C749 H723 0.950 . S
C749 C748 1.414 . S
C749 C750 1.374 . S
C750 H724 0.950 . S
C750 C746 1.385 . S
C750 C749 1.374 . S
C751 C748 1.499 . S
C751 C752 1.373 . S
C751 C753 1.389 . S
C752 H725 0.950 . S
C752 C738 1.377 . S
C752 C751 1.373 . S
C753 C737 1.377 . S
C753 C751 1.389 . S
C753 C754 1.524 . S
C754 C753 1.524 . S
C754 C755 1.397 . S
C754 C759 1.363 . S
C755 H726 0.950 . S
C755 C754 1.397 . S
C755 C756 1.334 . S
C756 H727 0.950 . S
C756 C755 1.334 . S
C756 C757 1.287 . S
C757 C756 1.287 . S
C757 C758 1.524 . S
C757 H760 0.999 . S
C758 H728 0.950 . S
C758 C757 1.524 . S
C758 C759 1.415 . S
C759 H729 0.950 . S
C759 C754 1.363 . S
C759 C758 1.415 . S
H760 C757 0.999 . S
H761 C742 0.913 . S
H762 C780 0.951 . S
H763 C782 0.951 . S
H764 C784 0.950 . S
H765 C785 0.950 . S
H766 C787 0.950 . S
H767 C790 0.950 . S
H768 C791 0.950 . S
H769 C793 0.950 . S
H770 C794 0.950 . S
H771 C795 0.951 . S
H772 C797 0.951 . S
H773 C799 0.950 . S
H774 C800 0.950 . S
H775 C802 0.950 . S
H776 C805 0.950 . S
H777 C806 0.950 . S
H778 C808 0.950 . S
H779 C809 0.950 . S
C780 H762 0.951 . S
C780 C781 1.366 . S
C780 C782 1.388 . S
C781 C780 1.366 . S
C781 C785 1.385 . S
C782 H763 0.951 . S
C782 C780 1.388 . S
C782 C783 1.366 . S
C783 C782 1.366 . S
C783 C784 1.414 . S
C783 C786 1.499 . S
C784 H764 0.950 . S
C784 C783 1.414 . S
C784 C785 1.374 . S
C785 H765 0.950 . S
C785 C781 1.385 . S
C785 C784 1.374 . S
C786 C783 1.499 . S
C786 C787 1.373 . S
C786 C788 1.389 . S
C787 H766 0.950 . S
C787 C786 1.373 . S
C787 C803 1.377 . S
C788 C786 1.389 . S
C788 C789 1.524 . S
C788 C802 1.377 . S
C789 C788 1.524 . S
C789 C790 1.397 . S
C789 C794 1.363 . S
C790 H767 0.950 . S
C790 C789 1.397 . S
C790 C791 1.334 . S
C791 H768 0.950 . S
C791 C790 1.334 . S
C791 C792 1.287 . S
C792 C791 1.287 . S
C792 C793 1.524 . S
C792 H811 0.913 . S
C793 H769 0.950 . S
C793 C792 1.524 . S
C793 C794 1.415 . S
C794 H770 0.950 . S
C794 C789 1.363 . S
C794 C793 1.415 . S
C795 H771 0.951 . S
C795 C796 1.366 . S
C795 C797 1.388 . S
C796 C795 1.366 . S
C796 C800 1.385 . S
C797 H772 0.951 . S
C797 C795 1.388 . S
C797 C798 1.366 . S
C798 C797 1.366 . S
C798 C799 1.414 . S
C798 C801 1.499 . S
C799 H773 0.950 . S
C799 C798 1.414 . S
C799 C800 1.374 . S
C800 H774 0.950 . S
C800 C796 1.385 . S
C800 C799 1.374 . S
C801 C798 1.499 . S
C801 C802 1.373 . S
C801 C803 1.389 . S
C802 H775 0.950 . S
C802 C788 1.377 . S
C802 C801 1.373 . S
C803 C787 1.377 . S
C803 C801 1.389 . S
C803 C804 1.524 . S
C804 C803 1.524 . S
C804 C805 1.397 . S
C804 C809 1.363 . S
C805 H776 0.950 . S
C805 C804 1.397 . S
C805 C806 1.334 . S
C806 H777 0.950 . S
C806 C805 1.334 . S
C806 C807 1.287 . S
C807 C806 1.287 . S
C807 C808 1.524 . S
C807 H810 0.999 . S
C808 H778 0.950 . S
C808 C807 1.524 . S
C808 C809 1.415 . S
C809 H779 0.950 . S
C809 C804 1.363 . S
C809 C808 1.415 . S
H810 C807 0.999 . S
H811 C792 0.913 . S
C246 C177 1.380 . S
C231 C29 1.407 . S
C281 C8 1.397 . S
C296 C141 1.371 . S
C331 C0 1.389 . S
C346 C201 1.347 . S
C381 C17 1.400 . S
C396 C165 1.354 . S
C431 C63 1.407 . S
C446 C105 1.380 . S
C481 C42 1.397 . S
C496 C69 1.371 . S
C546 C129 1.346 . S
C531 C34 1.389 . S
C596 C93 1.354 . S
C581 C51 1.400 . S
C631 C4 1.480 . S
C646 C99 1.477 1_655 S
C681 C13 1.479 . S
C696 C135 1.477 . S
C746 C171 1.476 . S
C731 C38 1.480 . S
C781 C47 1.479 . S
C796 C207 1.477 . S
