# Generated by pormake.
# Topology dag, (6,3)-cn, num edge types: 1
# Building blocks:
#     Node 0, Type 0, BuildingBlock: IZENUY_clean_sbu_0, # of connection points: 6
#     Node 1, Type 0, BuildingBlock: IZENUY_clean_sbu_0, # of connection points: 6
#     Node 2, Type 0, BuildingBlock: IZENUY_clean_sbu_0, # of connection points: 6
#     Node 3, Type 0, BuildingBlock: IZENUY_clean_sbu_0, # of connection points: 6
#     Node 4, Type 1, BuildingBlock: CUQRIR_clean_linker_1, # of connection points: 3
#     Node 5, Type 1, BuildingBlock: CUQRIR_clean_linker_1, # of connection points: 3
#     Node 6, Type 1, BuildingBlock: CUQRIR_clean_linker_1, # of connection points: 3
#     Node 7, Type 1, BuildingBlock: CUQRIR_clean_linker_1, # of connection points: 3
#     Node 8, Type 1, BuildingBlock: CUQRIR_clean_linker_1, # of connection points: 3
#     Node 9, Type 1, BuildingBlock: CUQRIR_clean_linker_1, # of connection points: 3
#     Node 10, Type 1, BuildingBlock: CUQRIR_clean_linker_1, # of connection points: 3
#     Node 11, Type 1, BuildingBlock: CUQRIR_clean_linker_1, # of connection points: 3
#     Edge 12, Type (0, 1), BuildingBlock: ZUJKAS_clean_linker_0, # of connection points: 2
#     Edge 13, Type (0, 1), BuildingBlock: ZUJKAS_clean_linker_0, # of connection points: 2
#     Edge 14, Type (0, 1), BuildingBlock: ZUJKAS_clean_linker_0, # of connection points: 2
#     Edge 15, Type (0, 1), BuildingBlock: ZUJKAS_clean_linker_0, # of connection points: 2
#     Edge 16, Type (0, 1), BuildingBlock: ZUJKAS_clean_linker_0, # of connection points: 2
#     Edge 17, Type (0, 1), BuildingBlock: ZUJKAS_clean_linker_0, # of connection points: 2
#     Edge 18, Type (0, 1), BuildingBlock: ZUJKAS_clean_linker_0, # of connection points: 2
#     Edge 19, Type (0, 1), BuildingBlock: ZUJKAS_clean_linker_0, # of connection points: 2
#     Edge 20, Type (0, 1), BuildingBlock: ZUJKAS_clean_linker_0, # of connection points: 2
#     Edge 21, Type (0, 1), BuildingBlock: ZUJKAS_clean_linker_0, # of connection points: 2
#     Edge 22, Type (0, 1), BuildingBlock: ZUJKAS_clean_linker_0, # of connection points: 2
#     Edge 23, Type (0, 1), BuildingBlock: ZUJKAS_clean_linker_0, # of connection points: 2
#     Edge 24, Type (0, 1), BuildingBlock: ZUJKAS_clean_linker_0, # of connection points: 2
#     Edge 25, Type (0, 1), BuildingBlock: ZUJKAS_clean_linker_0, # of connection points: 2
#     Edge 26, Type (0, 1), BuildingBlock: ZUJKAS_clean_linker_0, # of connection points: 2
#     Edge 27, Type (0, 1), BuildingBlock: ZUJKAS_clean_linker_0, # of connection points: 2
#     Edge 28, Type (0, 1), BuildingBlock: ZUJKAS_clean_linker_0, # of connection points: 2
#     Edge 29, Type (0, 1), BuildingBlock: ZUJKAS_clean_linker_0, # of connection points: 2
#     Edge 30, Type (0, 1), BuildingBlock: ZUJKAS_clean_linker_0, # of connection points: 2
#     Edge 31, Type (0, 1), BuildingBlock: ZUJKAS_clean_linker_0, # of connection points: 2
#     Edge 32, Type (0, 1), BuildingBlock: ZUJKAS_clean_linker_0, # of connection points: 2
#     Edge 33, Type (0, 1), BuildingBlock: ZUJKAS_clean_linker_0, # of connection points: 2
#     Edge 34, Type (0, 1), BuildingBlock: ZUJKAS_clean_linker_0, # of connection points: 2
#     Edge 35, Type (0, 1), BuildingBlock: ZUJKAS_clean_linker_0, # of connection points: 2
# Relax obj value: 0.082
# Max RMSD: 0.074
# Mean RMSD: 0.068
data_MOF--net-dag--node1-IZENUY_clean_sbu_0--node2-CUQRIR_clean_linker_1--edge1-ZUJKAS_clean_linker_0
_symmetry_space_group_name_H-M    P1
_symmetry_Int_Tables_number       1
_symmetry_cell_setting            triclinic
loop_
_symmetry_equiv_pos_as_xyz
'x, y, z'
_cell_length_a     48.730234
_cell_length_b     49.34719
_cell_length_c     44.027329
_cell_angle_alpha  92.324695
_cell_angle_beta   89.942763
_cell_angle_gamma 89.926799
loop_
_atom_site_label
_atom_site_type_symbol
_atom_site_fract_x
_atom_site_fract_y
_atom_site_fract_z
_atom_type_partial_charge
Fe0 Fe 0.15236 0.89008 0.03853 0.0
Fe1 Fe 0.09306 0.90704 0.02528 0.0
O2 O 0.11778 0.88128 0.03038 0.0
Fe3 Fe 0.10794 0.84671 0.02732 0.0
O4 O 0.11861 0.84125 0.06596 0.0
O5 O 0.15878 0.86101 0.06233 0.0
O6 O 0.14254 0.90897 0.07302 0.0
C7 C 0.12542 0.92817 0.07419 0.0
C8 C 0.16013 0.84692 0.99859 0.0
O9 O 0.1088 0.93147 0.05255 0.0
C10 C 0.07904 0.86693 0.98014 0.0
O11 O 0.15223 0.92084 0.01628 0.0
O12 O 0.11205 0.92015 0.99372 0.0
O13 O 0.14093 0.83464 0.01171 0.0
O14 O 0.1646 0.87173 0.00462 0.0
C15 C 0.06311 0.87194 0.05837 0.0
O16 O 0.07287 0.88733 0.99714 0.0
O17 O 0.09652 0.84988 0.98843 0.0
C18 C 0.13658 0.92813 0.99513 0.0
O19 O 0.07225 0.89569 0.05642 0.0
O20 O 0.07321 0.85242 0.04247 0.0
C21 C 0.14235 0.84592 0.07619 0.0
Fe22 Fe 0.65181 0.61089 0.49373 0.0
Fe23 Fe 0.608 0.6546 0.50716 0.0
O24 O 0.61751 0.61999 0.50275 0.0
Fe25 Fe 0.59265 0.59434 0.5072 0.0
O26 O 0.61155 0.58048 0.53844 0.0
O27 O 0.65139 0.57955 0.515 0.0
O28 O 0.66461 0.62809 0.52799 0.0
C29 C 0.66043 0.65277 0.53513 0.0
C30 C 0.62434 0.57393 0.45755 0.0
O31 O 0.64114 0.66576 0.52302 0.0
C32 C 0.56314 0.6306 0.4752 0.0
O33 O 0.65846 0.64047 0.47097 0.0
O34 O 0.6187 0.66133 0.46871 0.0
O35 O 0.6083 0.57011 0.47958 0.0
O36 O 0.64127 0.59321 0.4587 0.0
C37 C 0.57857 0.63352 0.55341 0.0
O38 O 0.57319 0.64955 0.49199 0.0
O39 O 0.57225 0.6067 0.47622 0.0
C40 C 0.64229 0.65643 0.45802 0.0
O41 O 0.59652 0.65041 0.54595 0.0
O42 O 0.57236 0.61367 0.53566 0.0
C43 C 0.63603 0.57226 0.53644 0.0
Fe44 Fe 0.89178 0.15214 0.00576 0.0
Fe45 Fe 0.90805 0.09205 0.00467 0.0
O46 O 0.88283 0.11749 0.00085 0.0
Fe47 Fe 0.84858 0.10824 0.99209 0.0
O48 O 0.84962 0.12633 0.95712 0.0
O49 O 0.86692 0.16386 0.97772 0.0
O50 O 0.91651 0.1495 0.97504 0.0
C51 C 0.93622 0.13292 0.97371 0.0
C52 C 0.84221 0.15251 0.03458 0.0
O53 O 0.93634 0.11232 0.98998 0.0
C54 C 0.86126 0.07037 0.03318 0.0
O55 O 0.9183 0.14659 0.03456 0.0
O56 O 0.91511 0.10324 0.04359 0.0
O57 O 0.83297 0.1373 0.01311 0.0
O58 O 0.86759 0.15711 0.03683 0.0
C59 C 0.8799 0.07073 0.95589 0.0
O60 O 0.88427 0.06718 0.02007 0.0
O61 O 0.84558 0.08962 0.02661 0.0
C62 C 0.92236 0.12696 0.05171 0.0
O63 O 0.90267 0.07919 0.96596 0.0
O64 O 0.85778 0.07743 0.96939 0.0
C65 C 0.85514 0.15122 0.95575 0.0
Fe66 Fe 0.40654 0.40652 0.52264 0.0
Fe67 Fe 0.34767 0.38958 0.53766 0.0
O68 O 0.38182 0.38079 0.52735 0.0
Fe69 Fe 0.3913 0.34624 0.52171 0.0
O70 O 0.42669 0.35096 0.53537 0.0
O71 O 0.42799 0.39344 0.55222 0.0
O72 O 0.39203 0.42992 0.55192 0.0
C73 C 0.37611 0.42586 0.57402 0.0
C74 C 0.41893 0.36822 0.47471 0.0
O75 O 0.35874 0.40694 0.5726 0.0
C76 C 0.33809 0.34832 0.49573 0.0
O77 O 0.38662 0.42132 0.49278 0.0
O78 O 0.3473 0.42129 0.51723 0.0
O79 O 0.40128 0.35121 0.48262 0.0
O80 O 0.42573 0.38784 0.49257 0.0
C81 C 0.3587 0.34342 0.57202 0.0
O82 O 0.33413 0.37291 0.50342 0.0
O83 O 0.35765 0.33518 0.5071 0.0
C84 C 0.36216 0.42934 0.49578 0.0
O85 O 0.34196 0.35948 0.56003 0.0
O86 O 0.382 0.33893 0.56038 0.0
C87 C 0.43725 0.36959 0.5522 0.0
C88 C 0.12371 0.18882 0.30963 0.0
N89 N 0.11652 0.16692 0.29202 0.0
N90 N 0.14777 0.18428 0.32397 0.0
C91 C 0.10841 0.21529 0.31097 0.0
C92 C 0.15503 0.15887 0.31421 0.0
N93 N 0.13603 0.14836 0.2947 0.0
C94 C 0.18154 0.1452 0.32209 0.0
H95 H 0.11443 0.22714 0.29115 0.0
H96 H 0.11335 0.22729 0.33212 0.0
H97 H 0.08596 0.21174 0.30972 0.0
H98 H 0.18685 0.14943 0.34628 0.0
H99 H 0.19825 0.15339 0.308 0.0
H100 H 0.18032 0.12293 0.31775 0.0
C101 C 0.34475 0.65452 0.81382 0.0
N102 N 0.36525 0.6463 0.79493 0.0
N103 N 0.34893 0.6804 0.82422 0.0
C104 C 0.31997 0.63779 0.82074 0.0
C105 C 0.37259 0.68772 0.81059 0.0
N106 N 0.38244 0.66697 0.79269 0.0
C107 C 0.38477 0.71571 0.81288 0.0
H108 H 0.30428 0.64068 0.80291 0.0
H109 H 0.31106 0.64414 0.84313 0.0
H110 H 0.32539 0.61593 0.82057 0.0
H111 H 0.38331 0.72434 0.83645 0.0
H112 H 0.373 0.72911 0.79798 0.0
H113 H 0.4066 0.71553 0.8057 0.0
C114 C 0.76252 0.83256 0.21456 0.0
N115 N 0.78368 0.84154 0.19795 0.0
N116 N 0.76878 0.8084 0.22634 0.0
C117 C 0.73631 0.84796 0.22039 0.0
C118 C 0.79472 0.80321 0.21656 0.0
N119 N 0.80382 0.82349 0.19936 0.0
C120 C 0.81173 0.77936 0.22548 0.0
H121 H 0.73929 0.86226 0.24022 0.0
H122 H 0.71926 0.83398 0.22552 0.0
H123 H 0.73086 0.85996 0.20048 0.0
H124 H 0.79896 0.76092 0.22702 0.0
H125 H 0.82079 0.78392 0.24823 0.0
H126 H 0.82856 0.77519 0.20896 0.0
C127 C 0.73196 0.33312 0.72047 0.0
N128 N 0.71051 0.34224 0.70434 0.0
N129 N 0.72598 0.3087 0.73188 0.0
C130 C 0.75908 0.34737 0.7238 0.0
C131 C 0.70005 0.30345 0.7222 0.0
N132 N 0.69071 0.32383 0.70541 0.0
C133 C 0.6831 0.27962 0.73123 0.0
H134 H 0.76343 0.35943 0.70361 0.0
H135 H 0.77595 0.33262 0.72693 0.0
H136 H 0.75827 0.36146 0.74406 0.0
H137 H 0.68932 0.27276 0.75391 0.0
H138 H 0.68629 0.26262 0.71432 0.0
H139 H 0.66093 0.28477 0.7317 0.0
C140 C 0.63097 0.30918 0.22875 0.0
N141 N 0.62169 0.33068 0.2459 0.0
N142 N 0.65582 0.31478 0.21656 0.0
C143 C 0.61709 0.28198 0.22627 0.0
C144 C 0.66125 0.34042 0.227 0.0
N145 N 0.64059 0.34998 0.24486 0.0
C146 C 0.68623 0.35649 0.21894 0.0
H147 H 0.6046 0.27838 0.24679 0.0
H148 H 0.63235 0.26541 0.22305 0.0
H149 H 0.60322 0.28153 0.20628 0.0
H150 H 0.69452 0.34955 0.19646 0.0
H151 H 0.70227 0.3537 0.2364 0.0
H152 H 0.68129 0.37844 0.21859 0.0
C153 C 0.19932 0.19422 0.80099 0.0
N154 N 0.18864 0.17489 0.81838 0.0
N155 N 0.22486 0.1871 0.79146 0.0
C156 C 0.18545 0.22061 0.7946 0.0
C157 C 0.22933 0.16273 0.80368 0.0
N158 N 0.20729 0.15533 0.8201 0.0
C159 C 0.25423 0.14531 0.7976 0.0
H160 H 0.1728 0.21783 0.77377 0.0
H161 H 0.2008 0.23672 0.7908 0.0
H162 H 0.17174 0.22715 0.81367 0.0
H163 H 0.26972 0.14995 0.8155 0.0
H164 H 0.26345 0.14949 0.77522 0.0
H165 H 0.24898 0.12346 0.79818 0.0
C166 C 0.26475 0.6721 0.319 0.0
N167 N 0.28663 0.66324 0.33463 0.0
N168 N 0.27092 0.69553 0.30556 0.0
C169 C 0.23807 0.65709 0.3153 0.0
C170 C 0.29733 0.70054 0.31353 0.0
N171 N 0.30681 0.68094 0.33134 0.0
C172 C 0.31437 0.72333 0.302 0.0
H173 H 0.23898 0.64415 0.29412 0.0
H174 H 0.22066 0.67138 0.3133 0.0
H175 H 0.23437 0.64392 0.33471 0.0
H176 H 0.30124 0.74006 0.29421 0.0
H177 H 0.32699 0.71546 0.28259 0.0
H178 H 0.3285 0.73137 0.31988 0.0
C179 C 0.8483 0.83834 0.72027 0.0
N180 N 0.86884 0.84677 0.739 0.0
N181 N 0.85315 0.81271 0.70928 0.0
C182 C 0.82234 0.85399 0.71505 0.0
C183 C 0.8773 0.80588 0.72215 0.0
N184 N 0.8868 0.82658 0.74018 0.0
C185 C 0.89186 0.77927 0.71653 0.0
H186 H 0.80453 0.8401 0.71254 0.0
H187 H 0.8245 0.86499 0.6937 0.0
H188 H 0.81831 0.86906 0.73392 0.0
H189 H 0.88668 0.77032 0.69373 0.0
H190 H 0.88528 0.76496 0.73391 0.0
H191 H 0.91441 0.78196 0.71838 0.0
H192 H 0.16367 0.93328 0.11979 0.0
H193 H 0.16617 0.96878 0.16014 0.0
H194 H 0.09186 0.00468 0.12685 0.0
H195 H 0.08946 0.9697 0.08616 0.0
H196 H 0.13228 0.04187 0.13655 0.0
H197 H 0.12082 0.97886 0.23736 0.0
H198 H 0.14815 0.96809 0.21228 0.0
H199 H 0.11322 0.96618 0.19926 0.0
C200 C 0.14774 0.9486 0.12119 0.0
C201 C 0.12641 0.94869 0.09967 0.0
C202 C 0.14911 0.96878 0.14439 0.0
C203 C 0.12901 0.98917 0.14671 0.0
C204 C 0.10755 0.9891 0.1255 0.0
H205 H 0.09806 0.10895 0.29214 0.0
H206 H 0.09713 0.06926 0.2566 0.0
C207 C 0.10624 0.96907 0.10224 0.0
C208 C 0.13097 0.01144 0.17024 0.0
H209 H 0.13314 0.02507 0.24688 0.0
C210 C 0.13242 0.03819 0.16068 0.0
C211 C 0.13085 0.0066 0.2017 0.0
C212 C 0.12791 0.97841 0.21335 0.0
C213 C 0.13398 0.06025 0.18169 0.0
C214 C 0.13472 0.05537 0.21311 0.0
C215 C 0.13295 0.02867 0.22274 0.0
C216 C 0.13646 0.0779 0.23625 0.0
C217 C 0.13437 0.0886 0.17002 0.0
C218 C 0.15912 0.09545 0.237 0.0
C219 C 0.15951 0.1181 0.25708 0.0
C220 C 0.13743 0.12328 0.27694 0.0
C221 C 0.11529 0.10514 0.27701 0.0
C222 C 0.1148 0.08257 0.25684 0.0
H223 H 0.1257 0.08921 0.14673 0.0
H224 H 0.12262 0.10291 0.18519 0.0
H225 H 0.15591 0.0958 0.16915 0.0
H226 H 0.17616 0.09202 0.22149 0.0
H227 H 0.17653 0.13214 0.25637 0.0
H228 H 0.5764 0.67959 0.5907 0.0
H229 H 0.54555 0.68845 0.63401 0.0
H230 H 0.51266 0.6076 0.62241 0.0
H231 H 0.54293 0.59871 0.57906 0.0
H232 H 0.47268 0.64699 0.62588 0.0
H233 H 0.54737 0.66084 0.72055 0.0
H234 H 0.55318 0.68172 0.68867 0.0
H235 H 0.55669 0.64555 0.68403 0.0
C236 C 0.56283 0.6636 0.59762 0.0
C237 C 0.56201 0.6385 0.5813 0.0
C238 C 0.5453 0.66866 0.62245 0.0
C239 C 0.52694 0.64861 0.63152 0.0
C240 C 0.52665 0.62336 0.61576 0.0
H241 H 0.42652 0.63426 0.79115 0.0
H242 H 0.46239 0.63173 0.75189 0.0
C243 C 0.54399 0.61833 0.59096 0.0
C244 C 0.50678 0.65419 0.65621 0.0
H245 H 0.50058 0.66914 0.73231 0.0
C246 C 0.47877 0.6519 0.64915 0.0
C247 C 0.51482 0.66039 0.68654 0.0
C248 C 0.54464 0.66207 0.69559 0.0
C249 C 0.45854 0.65539 0.67163 0.0
C250 C 0.46654 0.66194 0.70192 0.0
C251 C 0.49454 0.66437 0.709 0.0
C252 C 0.44611 0.66497 0.72676 0.0
C253 C 0.42885 0.65133 0.66278 0.0
C254 C 0.42544 0.68479 0.72594 0.0
C255 C 0.40488 0.68596 0.7481 0.0
C256 C 0.40494 0.66758 0.77159 0.0
C257 C 0.42613 0.64845 0.77304 0.0
C258 C 0.4466 0.64715 0.75081 0.0
H259 H 0.42681 0.63887 0.64131 0.0
H260 H 0.41716 0.64138 0.68086 0.0
H261 H 0.41933 0.67139 0.65921 0.0
H262 H 0.42489 0.69895 0.70779 0.0
H263 H 0.38849 0.70066 0.7465 0.0
H264 H 0.81946 0.07453 0.07478 0.0
H265 H 0.80377 0.03972 0.10897 0.0
H266 H 0.86449 0.98422 0.07121 0.0
H267 H 0.88087 0.01903 0.03801 0.0
H268 H 0.78178 0.99162 0.09778 0.0
H269 H 0.87876 0.97699 0.15959 0.0
H270 H 0.87366 0.00496 0.13505 0.0
H271 H 0.88412 0.97218 0.11948 0.0
C272 C 0.82957 0.05495 0.07398 0.0
C273 C 0.85155 0.04959 0.0539 0.0
C274 C 0.8206 0.0351 0.09351 0.0
C275 C 0.83337 0.00955 0.09316 0.0
C276 C 0.85493 0.00405 0.07266 0.0
H277 H 0.76966 0.8556 0.14191 0.0
H278 H 0.77939 0.899 0.1188 0.0
C279 C 0.86415 0.02394 0.05351 0.0
C280 C 0.82355 0.98813 0.1132 0.0
H281 H 0.84618 0.94033 0.16109 0.0
C282 C 0.79576 0.98066 0.11201 0.0
C283 C 0.84161 0.97422 0.13235 0.0
C284 C 0.87111 0.98273 0.13697 0.0
C285 C 0.78585 0.95881 0.12827 0.0
C286 C 0.80444 0.94346 0.14533 0.0
C287 C 0.83194 0.95178 0.14767 0.0
C288 C 0.79632 0.91806 0.15989 0.0
C289 C 0.75557 0.95255 0.12698 0.0
C290 C 0.8031 0.91404 0.19041 0.0
C291 C 0.79822 0.88904 0.20317 0.0
C292 C 0.78628 0.86788 0.1857 0.0
C293 C 0.77868 0.87198 0.1556 0.0
C294 C 0.78401 0.89679 0.14261 0.0
H295 H 0.74335 0.97111 0.12307 0.0
H296 H 0.75155 0.93793 0.10768 0.0
H297 H 0.74829 0.94358 0.14826 0.0
H298 H 0.81274 0.93005 0.20416 0.0
H299 H 0.80427 0.88591 0.22643 0.0
H300 H 0.46836 0.32335 0.54981 0.0
H301 H 0.51059 0.31459 0.57776 0.0
H302 H 0.50539 0.39399 0.62198 0.0
H303 H 0.46313 0.40305 0.59416 0.0
H304 H 0.5604 0.34866 0.57683 0.0
H305 H 0.51523 0.33937 0.69207 0.0
H306 H 0.49512 0.33522 0.65774 0.0
H307 H 0.50497 0.3685 0.67156 0.0
C308 C 0.47607 0.33893 0.5656 0.0
C309 C 0.46237 0.36393 0.56973 0.0
C310 C 0.50022 0.33388 0.58149 0.0
C311 C 0.51089 0.35357 0.60204 0.0
C312 C 0.49724 0.37845 0.60643 0.0
H313 H 0.65497 0.36458 0.71654 0.0
H314 H 0.61091 0.37152 0.69097 0.0
C315 C 0.47318 0.38361 0.59041 0.0
C316 C 0.53682 0.3484 0.61817 0.0
H317 H 0.56368 0.33898 0.68852 0.0
C318 C 0.56117 0.3464 0.60122 0.0
C319 C 0.53762 0.34567 0.64998 0.0
C320 C 0.51186 0.34709 0.66901 0.0
C321 C 0.5865 0.34214 0.61536 0.0
C322 C 0.5873 0.33913 0.64716 0.0
C323 C 0.56292 0.34117 0.66412 0.0
C324 C 0.61334 0.33432 0.66331 0.0
C325 C 0.61226 0.34154 0.59627 0.0
C326 C 0.62895 0.31088 0.65661 0.0
C327 C 0.6541 0.30705 0.67105 0.0
C328 C 0.66383 0.32653 0.69245 0.0
C329 C 0.64781 0.3495 0.69986 0.0
C330 C 0.62273 0.35338 0.68539 0.0
H331 H 0.60905 0.35123 0.5742 0.0
H332 H 0.62943 0.352 0.60844 0.0
H333 H 0.61841 0.32014 0.59139 0.0
H334 H 0.6218 0.29572 0.63999 0.0
H335 H 0.66631 0.28928 0.66505 0.0
H336 H 0.64259 0.58091 0.39955 0.0
H337 H 0.64316 0.54711 0.35711 0.0
H338 H 0.61023 0.48736 0.41606 0.0
H339 H 0.60835 0.5212 0.45782 0.0
H340 H 0.66971 0.50217 0.34839 0.0
H341 H 0.55979 0.47627 0.34637 0.0
H342 H 0.57282 0.50498 0.36852 0.0
H343 H 0.57329 0.4715 0.38357 0.0
C344 C 0.63526 0.5606 0.40328 0.0
C345 C 0.62516 0.55374 0.43187 0.0
C346 C 0.63556 0.54132 0.37905 0.0
C347 C 0.62605 0.51483 0.38313 0.0
C348 C 0.61665 0.50788 0.41194 0.0
H349 H 0.67493 0.36764 0.28883 0.0
H350 H 0.6714 0.41007 0.31949 0.0
C351 C 0.61582 0.52721 0.43591 0.0
C352 C 0.62719 0.49393 0.3579 0.0
H353 H 0.59041 0.4423 0.32402 0.0
C354 C 0.65223 0.48937 0.34271 0.0
C355 C 0.60425 0.47763 0.34976 0.0
C356 C 0.57598 0.48309 0.3627 0.0
C357 C 0.65533 0.46808 0.32085 0.0
C358 C 0.6331 0.45016 0.31493 0.0
C359 C 0.60767 0.45564 0.32892 0.0
C360 C 0.63599 0.42502 0.29545 0.0
C361 C 0.68239 0.46518 0.30433 0.0
C362 C 0.61671 0.41869 0.2725 0.0
C363 C 0.61836 0.39411 0.25566 0.0
C364 C 0.63949 0.37571 0.26125 0.0
C365 C 0.65886 0.38198 0.28392 0.0
C366 C 0.65692 0.40626 0.30118 0.0
H367 H 0.69261 0.48518 0.30256 0.0
H368 H 0.69627 0.45209 0.31731 0.0
H369 H 0.67976 0.456 0.28108 0.0
H370 H 0.60022 0.43266 0.26781 0.0
H371 H 0.60317 0.38934 0.23833 0.0
H372 H 0.94564 0.17739 0.93975 0.0
H373 H 0.9867 0.18725 0.91006 0.0
H374 H 0.02318 0.11204 0.93618 0.0
H375 H 0.9823 0.10185 0.96564 0.0
H376 H 0.04113 0.19233 0.93146 0.0
H377 H 0.03148 0.10949 0.84317 0.0
H378 H 0.00331 0.12011 0.86756 0.0
H379 H 0.02956 0.09812 0.88134 0.0
C380 C 0.96232 0.16285 0.93904 0.0
C381 C 0.96066 0.13881 0.95508 0.0
C382 C 0.98576 0.16855 0.92209 0.0
C383 C 0.00778 0.15021 0.92064 0.0
C384 C 0.00619 0.12622 0.93656 0.0
H385 H 0.17844 0.16972 0.87787 0.0
H386 H 0.13324 0.16605 0.90207 0.0
C387 C 0.98284 0.12052 0.95354 0.0
C388 C 0.03292 0.15648 0.90342 0.0
H389 H 0.07478 0.13201 0.84647 0.0
C390 C 0.04838 0.17932 0.91268 0.0
C391 C 0.04212 0.13963 0.87873 0.0
C392 C 0.02564 0.1156 0.86687 0.0
C393 C 0.07338 0.18522 0.89854 0.0
C394 C 0.08321 0.16762 0.87481 0.0
C395 C 0.06727 0.14533 0.86485 0.0
C396 C 0.11039 0.17143 0.86059 0.0
C397 C 0.08907 0.21018 0.90912 0.0
C398 C 0.11246 0.1753 0.82925 0.0
C399 C 0.13821 0.1772 0.81551 0.0
C400 C 0.16217 0.17507 0.83287 0.0
C401 C 0.1601 0.17149 0.86422 0.0
C402 C 0.13439 0.16959 0.87799 0.0
H403 H 0.07555 0.22519 0.92128 0.0
H404 H 0.10544 0.20426 0.92506 0.0
H405 H 0.09891 0.22004 0.88968 0.0
H406 H 0.09417 0.17651 0.81542 0.0
H407 H 0.1395 0.17956 0.79121 0.0
H408 H 0.38593 0.44897 0.44473 0.0
H409 H 0.37018 0.48693 0.41521 0.0
H410 H 0.29976 0.49704 0.47403 0.0
H411 H 0.3149 0.45876 0.50318 0.0
H412 H 0.28632 0.50272 0.41465 0.0
H413 H 0.3773 0.5652 0.44581 0.0
H414 H 0.38601 0.53362 0.42652 0.0
H415 H 0.36991 0.53366 0.46334 0.0
C416 C 0.36702 0.45918 0.4513 0.0
C417 C 0.35185 0.45104 0.47654 0.0
C418 C 0.35811 0.48093 0.43448 0.0
C419 C 0.33412 0.49514 0.44284 0.0
C420 C 0.31842 0.48643 0.4673 0.0
H421 H 0.298 0.6594 0.39378 0.0
H422 H 0.30714 0.61769 0.4206 0.0
C423 C 0.32716 0.46456 0.48397 0.0
C424 C 0.32574 0.51962 0.42678 0.0
H425 H 0.34717 0.58281 0.4092 0.0
C426 C 0.2996 0.52028 0.41343 0.0
C427 C 0.3429 0.54266 0.42577 0.0
C428 C 0.37047 0.54394 0.44138 0.0
C429 C 0.29025 0.54331 0.39881 0.0
C430 C 0.30781 0.56599 0.3969 0.0
C431 C 0.33384 0.56534 0.41046 0.0
C432 C 0.29971 0.59084 0.38131 0.0
C433 C 0.26144 0.54333 0.38627 0.0
C434 C 0.29232 0.5896 0.35044 0.0
C435 C 0.28676 0.61339 0.33537 0.0
C436 C 0.28891 0.63868 0.35086 0.0
C437 C 0.29601 0.63995 0.3817 0.0
C438 C 0.3013 0.61622 0.39686 0.0
H439 H 0.24823 0.52832 0.39743 0.0
H440 H 0.25183 0.56368 0.38925 0.0
H441 H 0.2621 0.53775 0.36161 0.0
H442 H 0.29175 0.57036 0.33774 0.0
H443 H 0.28194 0.6122 0.31136 0.0
H444 H 0.07659 0.82003 0.94446 0.0
H445 H 0.04739 0.81108 0.89993 0.0
H446 H 0.01712 0.89328 0.90707 0.0
H447 H 0.04568 0.90223 0.95178 0.0
H448 H 0.97603 0.8564 0.90272 0.0
H449 H 0.05378 0.83477 0.81266 0.0
H450 H 0.05737 0.81453 0.84542 0.0
H451 H 0.0624 0.85059 0.84909 0.0
C452 C 0.06394 0.83627 0.93632 0.0
C453 C 0.0633 0.86178 0.95179 0.0
C454 C 0.0474 0.83118 0.91077 0.0
C455 C 0.03029 0.8516 0.90004 0.0
C456 C 0.03019 0.87724 0.91498 0.0
H457 H 0.92801 0.86268 0.74084 0.0
H458 H 0.96491 0.86705 0.7788 0.0
C459 C 0.04651 0.88229 0.94057 0.0
C460 C 0.01099 0.84594 0.87461 0.0
H461 H 0.00714 0.82616 0.79946 0.0
C462 C 0.98285 0.84979 0.88015 0.0
C463 C 0.01999 0.83757 0.84513 0.0
C464 C 0.05004 0.83435 0.83754 0.0
C465 C 0.96343 0.8454 0.85705 0.0
C466 C 0.97237 0.83639 0.82783 0.0
C467 C 0.00046 0.83271 0.82209 0.0
C468 C 0.95259 0.83167 0.80284 0.0
C469 C 0.93351 0.85092 0.86383 0.0
C470 C 0.93405 0.80998 0.80353 0.0
C471 C 0.91314 0.80751 0.78194 0.0
C472 C 0.91058 0.82668 0.75946 0.0
C473 C 0.92983 0.8477 0.75803 0.0
C474 C 0.9508 0.85014 0.77955 0.0
H475 H 0.93057 0.86221 0.88595 0.0
H476 H 0.92412 0.8628 0.8456 0.0
H477 H 0.92234 0.83139 0.86465 0.0
H478 H 0.93518 0.79557 0.8214 0.0
H479 H 0.89816 0.79145 0.78363 0.0
H480 H 0.83663 0.039 0.93752 0.0
H481 H 0.83623 0.00277 0.89815 0.0
H482 H 0.92077 0.01966 0.87686 0.0
H483 H 0.92162 0.0555 0.91696 0.0
H484 H 0.84422 0.00226 0.83799 0.0
H485 H 0.92423 0.93962 0.89116 0.0
H486 H 0.90875 0.9686 0.91071 0.0
H487 H 0.93547 0.9732 0.88317 0.0
C488 C 0.85516 0.03508 0.92446 0.0
C489 C 0.87926 0.04997 0.93063 0.0
C490 C 0.85489 0.01434 0.90192 0.0
C491 C 0.87862 0.00811 0.88494 0.0
C492 C 0.90243 0.02359 0.89024 0.0
H493 H 0.87357 0.89846 0.72241 0.0
H494 H 0.87678 0.93909 0.7566 0.0
C495 C 0.90283 0.04419 0.91304 0.0
C496 C 0.87825 0.98526 0.86193 0.0
H497 H 0.90825 0.92435 0.84278 0.0
C498 C 0.85825 0.98523 0.83899 0.0
C499 C 0.89635 0.96288 0.86351 0.0
C500 C 0.91724 0.96085 0.88861 0.0
C501 C 0.85566 0.96338 0.81774 0.0
C502 C 0.87409 0.94126 0.81896 0.0
C503 C 0.89427 0.94141 0.84173 0.0
C504 C 0.87203 0.91709 0.79789 0.0
C505 C 0.83256 0.9638 0.79494 0.0
C506 C 0.86896 0.89125 0.80972 0.0
C507 C 0.86748 0.86826 0.79027 0.0
C508 C 0.86905 0.8707 0.75872 0.0
C509 C 0.87201 0.89641 0.74675 0.0
C510 C 0.87372 0.91948 0.76622 0.0
H511 H 0.81611 0.97824 0.80228 0.0
H512 H 0.84069 0.97033 0.77286 0.0
H513 H 0.82336 0.94335 0.79133 0.0
H514 H 0.86768 0.88887 0.83403 0.0
H515 H 0.86523 0.84848 0.79977 0.0
H516 H 0.45737 0.40114 0.45027 0.0
H517 H 0.48587 0.39181 0.40554 0.0
H518 H 0.44459 0.31538 0.38916 0.0
H519 H 0.41602 0.32438 0.43429 0.0
H520 H 0.50099 0.31065 0.38904 0.0
H521 H 0.46922 0.39298 0.31496 0.0
H522 H 0.47819 0.40542 0.3525 0.0
H523 H 0.44913 0.38324 0.34724 0.0
C524 C 0.45406 0.38245 0.43702 0.0
C525 C 0.43445 0.36345 0.446 0.0
C526 C 0.47025 0.37727 0.41126 0.0
C527 C 0.4671 0.35309 0.39376 0.0
C528 C 0.44721 0.33427 0.40225 0.0
H529 H 0.56864 0.32559 0.22936 0.0
H530 H 0.52833 0.32825 0.26332 0.0
C531 C 0.43091 0.33946 0.42804 0.0
C532 C 0.48622 0.34665 0.36825 0.0
H533 H 0.51316 0.37234 0.30382 0.0
C534 C 0.50334 0.32389 0.37013 0.0
C535 C 0.48906 0.36373 0.34338 0.0
C536 C 0.47022 0.38755 0.33918 0.0
C537 C 0.52422 0.31859 0.34872 0.0
C538 C 0.52827 0.33673 0.32508 0.0
C539 C 0.5102 0.35863 0.32219 0.0
C540 C 0.55225 0.33433 0.30444 0.0
C541 C 0.54208 0.29387 0.3519 0.0
C542 C 0.57886 0.33709 0.31632 0.0
C543 C 0.60161 0.33558 0.29706 0.0
C544 C 0.59813 0.33147 0.26561 0.0
C545 C 0.57158 0.32865 0.25363 0.0
C546 C 0.54872 0.33024 0.27292 0.0
H547 H 0.53163 0.27822 0.36517 0.0
H548 H 0.54784 0.28478 0.32929 0.0
H549 H 0.56119 0.29985 0.3641 0.0
H550 H 0.58202 0.34072 0.34049 0.0
H551 H 0.62198 0.33764 0.30664 0.0
H552 H 0.18485 0.95653 0.9972 0.0
H553 H 0.19855 0.99354 0.96518 0.0
H554 H 0.1239 0.98361 0.91343 0.0
H555 H 0.10974 0.94693 0.94561 0.0
H556 H 0.20676 0.9961 0.90277 0.0
H557 H 0.12116 0.06334 0.94157 0.0
H558 H 0.1301 0.03285 0.96059 0.0
H559 H 0.11019 0.0309 0.9262 0.0
C560 C 0.17136 0.96212 0.97893 0.0
C561 C 0.14601 0.94899 0.97423 0.0
C562 C 0.17926 0.98327 0.96064 0.0
C563 C 0.16198 0.99167 0.93736 0.0
C564 C 0.13722 0.97787 0.93177 0.0
H565 H 0.16643 0.11977 0.80912 0.0
H566 H 0.15675 0.07869 0.83684 0.0
C567 C 0.12923 0.95681 0.95011 0.0
C568 C 0.16959 0.01522 0.91932 0.0
H569 H 0.14818 0.07832 0.90073 0.0
C570 C 0.19403 0.01413 0.90238 0.0
C571 C 0.153 0.03876 0.91902 0.0
C572 C 0.12728 0.04174 0.93803 0.0
C573 C 0.20201 0.03577 0.88459 0.0
C574 C 0.18523 0.05912 0.88405 0.0
C575 C 0.16089 0.06027 0.9011 0.0
C576 C 0.19238 0.08273 0.86597 0.0
C577 C 0.228 0.03331 0.86604 0.0
C578 C 0.21564 0.09849 0.87315 0.0
C579 C 0.22103 0.12198 0.85744 0.0
C580 C 0.20317 0.13001 0.83452 0.0
C581 C 0.18029 0.11392 0.8269 0.0
C582 C 0.17484 0.09054 0.84263 0.0
H583 H 0.23525 0.01197 0.86362 0.0
H584 H 0.22487 0.04121 0.84303 0.0
H585 H 0.24438 0.04554 0.87746 0.0
H586 H 0.22914 0.09306 0.89146 0.0
H587 H 0.2386 0.13437 0.86377 0.0
H588 H 0.53697 0.5961 0.43432 0.0
H589 H 0.49545 0.60517 0.40514 0.0
H590 H 0.49183 0.68616 0.44564 0.0
H591 H 0.53349 0.67757 0.47429 0.0
H592 H 0.44476 0.61788 0.4271 0.0
H593 H 0.48204 0.70081 0.35673 0.0
H594 H 0.50499 0.67959 0.37748 0.0
H595 H 0.48757 0.70761 0.39658 0.0
C596 C 0.52748 0.61593 0.43681 0.0
C597 C 0.53858 0.63611 0.45664 0.0
C598 C 0.50378 0.62108 0.4201 0.0
C599 C 0.49082 0.64649 0.42283 0.0
C600 C 0.50188 0.66665 0.44255 0.0
H601 H 0.33434 0.71297 0.37171 0.0
H602 H 0.38036 0.70454 0.39242 0.0
C603 C 0.52562 0.6616 0.45911 0.0
C604 C 0.46481 0.65145 0.40654 0.0
H605 H 0.43331 0.6948 0.359 0.0
C606 C 0.44235 0.63451 0.41194 0.0
C607 C 0.4617 0.67318 0.38679 0.0
C608 C 0.48544 0.69117 0.37879 0.0
C609 C 0.41665 0.6392 0.39882 0.0
C610 C 0.41344 0.66124 0.37962 0.0
C611 C 0.43591 0.678 0.37388 0.0
C612 C 0.38672 0.66731 0.36563 0.0
C613 C 0.39293 0.62094 0.4061 0.0
C614 C 0.37549 0.64945 0.34339 0.0
C615 C 0.34954 0.65444 0.33145 0.0
C616 C 0.3345 0.67732 0.34159 0.0
C617 C 0.34593 0.69548 0.36335 0.0
C618 C 0.372 0.69059 0.3752 0.0
H619 H 0.39735 0.60845 0.42595 0.0
H620 H 0.37404 0.63299 0.41089 0.0
H621 H 0.38879 0.60705 0.38618 0.0
H622 H 0.38667 0.63149 0.33559 0.0
H623 H 0.34091 0.64027 0.31464 0.0
H624 H 0.41883 0.45644 0.59541 0.0
H625 H 0.41837 0.49089 0.63688 0.0
H626 H 0.33236 0.4754 0.65192 0.0
H627 H 0.33315 0.43992 0.61149 0.0
H628 H 0.39287 0.53615 0.64055 0.0
H629 H 0.35776 0.47729 0.73733 0.0
H630 H 0.36808 0.46122 0.70161 0.0
H631 H 0.33384 0.4746 0.70649 0.0
C632 C 0.39993 0.46013 0.60789 0.0
C633 C 0.37604 0.44547 0.6003 0.0
C634 C 0.39967 0.47984 0.63158 0.0
C635 C 0.37543 0.48559 0.64793 0.0
C636 C 0.35154 0.47085 0.64039 0.0
H637 H 0.34281 0.64106 0.73959 0.0
H638 H 0.34529 0.60118 0.70438 0.0
C639 C 0.35195 0.45069 0.6171 0.0
C640 C 0.37478 0.50827 0.67126 0.0
H641 H 0.35439 0.52577 0.74374 0.0
C642 C 0.38468 0.53374 0.6632 0.0
C643 C 0.36457 0.50518 0.70107 0.0
C644 C 0.35576 0.47801 0.71224 0.0
C645 C 0.38411 0.55621 0.68374 0.0
C646 C 0.37223 0.55352 0.71281 0.0
C647 C 0.363 0.52795 0.72124 0.0
C648 C 0.36928 0.57704 0.73471 0.0
C649 C 0.39683 0.58246 0.6743 0.0
C650 C 0.3808 0.57629 0.76393 0.0
C651 C 0.37882 0.59885 0.78412 0.0
C652 C 0.3654 0.62237 0.7753 0.0
C653 C 0.35328 0.62296 0.74653 0.0
C654 C 0.35497 0.60037 0.72645 0.0
H655 H 0.41216 0.57896 0.65585 0.0
H656 H 0.38057 0.59586 0.66561 0.0
H657 H 0.40709 0.59319 0.69381 0.0
H658 H 0.39179 0.55848 0.77086 0.0
H659 H 0.38826 0.59826 0.80633 0.0
H660 H 0.0233 0.90846 0.07596 0.0
H661 H 0.98068 0.89934 0.103 0.0
H662 H 0.00485 0.81569 0.11037 0.0
H663 H 0.04688 0.82444 0.08208 0.0
H664 H 0.95457 0.81774 0.09237 0.0
H665 H 0.96482 0.89048 0.19049 0.0
H666 H 0.96695 0.90729 0.15525 0.0
H667 H 0.99286 0.88294 0.16473 0.0
C668 C 0.01965 0.88821 0.08367 0.0
C669 C 0.03839 0.86714 0.07688 0.0
C670 C 0.99536 0.88305 0.09934 0.0
C671 C 0.9897 0.85693 0.10927 0.0
C672 C 0.00873 0.83603 0.10302 0.0
H673 H 0.85181 0.82451 0.22991 0.0
H674 H 0.89783 0.83084 0.20849 0.0
C675 C 0.03275 0.84104 0.08686 0.0
C676 C 0.96319 0.85089 0.12431 0.0
H677 H 0.91982 0.87221 0.18142 0.0
C678 C 0.94714 0.8295 0.11205 0.0
C679 C 0.95358 0.86591 0.15029 0.0
C680 C 0.97061 0.88772 0.16614 0.0
C681 C 0.9216 0.82308 0.12457 0.0
C682 C 0.91125 0.83915 0.14938 0.0
C683 C 0.92755 0.86013 0.16213 0.0
C684 C 0.88352 0.83468 0.16228 0.0
C685 C 0.90625 0.79883 0.11131 0.0
C686 C 0.8602 0.83491 0.14356 0.0
C687 C 0.83415 0.83063 0.15568 0.0
C688 C 0.83086 0.82674 0.18683 0.0
C689 C 0.85403 0.82702 0.20572 0.0
C690 C 0.88019 0.83087 0.19353 0.0
H691 H 0.92044 0.78389 0.10009 0.0
H692 H 0.89446 0.78845 0.12904 0.0
H693 H 0.89169 0.80562 0.0938 0.0
H694 H 0.8621 0.83855 0.11956 0.0
H695 H 0.81653 0.83031 0.14075 0.0
H696 H 0.61061 0.55397 0.58723 0.0
H697 H 0.62591 0.51764 0.61945 0.0
H698 H 0.69816 0.50608 0.56373 0.0
H699 H 0.68345 0.54271 0.53192 0.0
H700 H 0.63354 0.46523 0.60336 0.0
H701 H 0.73124 0.50798 0.6476 0.0
H702 H 0.70608 0.52824 0.62875 0.0
H703 H 0.72981 0.50735 0.60687 0.0
C704 C 0.62992 0.5439 0.58203 0.0
C705 C 0.64581 0.55127 0.55699 0.0
C706 C 0.63863 0.52315 0.60047 0.0
C707 C 0.66338 0.50941 0.59428 0.0
C708 C 0.67936 0.51685 0.56944 0.0
H709 H 0.70198 0.34642 0.64456 0.0
H710 H 0.6916 0.38807 0.61816 0.0
C711 C 0.67079 0.5377 0.55112 0.0
C712 C 0.67162 0.48612 0.61252 0.0
H713 H 0.72473 0.46023 0.65285 0.0
C714 C 0.65338 0.46426 0.61441 0.0
C715 C 0.69736 0.485 0.6273 0.0
C716 C 0.71713 0.50853 0.62783 0.0
C717 C 0.66046 0.44099 0.62991 0.0
C718 C 0.68681 0.43925 0.64321 0.0
C719 C 0.70473 0.46143 0.64219 0.0
C720 C 0.696 0.41454 0.65831 0.0
C721 C 0.63953 0.41859 0.63208 0.0
C722 C 0.70343 0.41583 0.68916 0.0
C723 C 0.70978 0.3921 0.70402 0.0
C724 C 0.70876 0.3669 0.68819 0.0
C725 C 0.70276 0.36577 0.65704 0.0
C726 C 0.6966 0.38944 0.64214 0.0
H727 H 0.6183 0.42625 0.62901 0.0
H728 H 0.6435 0.40289 0.61384 0.0
H729 H 0.64073 0.40883 0.65433 0.0
H730 H 0.70327 0.43503 0.702 0.0
H731 H 0.71413 0.3932 0.72815 0.0
H732 H 0.93285 0.09075 0.09587 0.0
H733 H 0.96195 0.09754 0.14079 0.0
H734 H 0.97873 0.17942 0.11554 0.0
H735 H 0.94924 0.17309 0.07111 0.0
H736 H 0.01583 0.10821 0.14245 0.0
H737 H 0.96034 0.1913 0.20427 0.0
H738 H 0.94518 0.17185 0.17301 0.0
H739 H 0.968 0.19956 0.1659 0.0
C740 C 0.94248 0.11031 0.10006 0.0
C741 C 0.93869 0.13138 0.07986 0.0
C742 C 0.9591 0.11415 0.12575 0.0
C743 C 0.97221 0.13911 0.1318 0.0
C744 C 0.96828 0.16022 0.11181 0.0
H745 H 0.12221 0.16723 0.23152 0.0
H746 H 0.08597 0.15991 0.19337 0.0
C747 C 0.95154 0.15648 0.08625 0.0
C748 C 0.99144 0.14256 0.15778 0.0
H749 H 0.00714 0.18419 0.21916 0.0
C750 C 0.01374 0.12464 0.15942 0.0
C751 C 0.98853 0.16375 0.18021 0.0
C752 C 0.96405 0.18252 0.18099 0.0
C753 C 0.03374 0.12791 0.18218 0.0
C754 C 0.03174 0.15013 0.20344 0.0
C755 C 0.00888 0.16743 0.20255 0.0
C756 C 0.05338 0.156 0.22643 0.0
C757 C 0.05678 0.10748 0.18313 0.0
C758 C 0.04693 0.15742 0.25757 0.0
C759 C 0.06758 0.16202 0.27922 0.0
C760 C 0.09484 0.16534 0.26995 0.0
C761 C 0.10119 0.16473 0.23889 0.0
C762 C 0.0806 0.16028 0.21726 0.0
H763 H 0.05057 0.08757 0.17262 0.0
H764 H 0.07444 0.11497 0.16995 0.0
H765 H 0.06367 0.10434 0.20677 0.0
H766 H 0.02604 0.15432 0.26513 0.0
H767 H 0.06252 0.16218 0.30318 0.0
H768 H 0.11407 0.80964 0.10985 0.0
H769 H 0.13113 0.7846 0.15283 0.0
H770 H 0.20965 0.82406 0.14572 0.0
H771 H 0.19281 0.84938 0.10307 0.0
H772 H 0.17508 0.74888 0.1522 0.0
H773 H 0.19207 0.83373 0.23631 0.0
H774 H 0.17135 0.83717 0.20268 0.0
H775 H 0.20816 0.83906 0.20035 0.0
C776 C 0.1349 0.81318 0.11758 0.0
C777 C 0.1521 0.8315 0.10297 0.0
C778 C 0.14458 0.79886 0.14215 0.0
C779 C 0.1715 0.80278 0.15269 0.0
C780 C 0.18862 0.82118 0.13834 0.0
H781 H 0.28117 0.69969 0.24613 0.0
H782 H 0.25418 0.72508 0.2097 0.0
C783 C 0.17899 0.83549 0.1138 0.0
C784 C 0.18236 0.78648 0.17746 0.0
H785 H 0.21437 0.79167 0.24634 0.0
C786 C 0.18337 0.75818 0.17297 0.0
C787 C 0.19279 0.79866 0.20468 0.0
C788 C 0.19081 0.82881 0.21149 0.0
C789 C 0.19567 0.74181 0.19442 0.0
C790 C 0.2076 0.75415 0.22077 0.0
C791 C 0.20548 0.78232 0.22592 0.0
C792 C 0.22339 0.73832 0.24259 0.0
C793 C 0.19595 0.71146 0.18861 0.0
C794 C 0.21533 0.73789 0.27319 0.0
C795 C 0.23083 0.72357 0.2939 0.0
C796 C 0.2546 0.70968 0.28425 0.0
C797 C 0.26275 0.71023 0.25376 0.0
C798 C 0.24729 0.72451 0.23306 0.0
H799 H 0.17944 0.70483 0.17259 0.0
H800 H 0.21591 0.70533 0.1783 0.0
H801 H 0.19343 0.70069 0.21009 0.0
H802 H 0.19708 0.74864 0.28101 0.0
H803 H 0.22454 0.7235 0.31749 0.0
H804 H 0.70847 0.63398 0.55909 0.0
H805 H 0.74171 0.65955 0.5905 0.0
H806 H 0.69035 0.73062 0.58796 0.0
H807 H 0.65696 0.70534 0.55679 0.0
H808 H 0.76939 0.70796 0.57445 0.0
H809 H 0.70694 0.72316 0.67933 0.0
H810 H 0.69878 0.69779 0.65001 0.0
H811 H 0.69007 0.73273 0.64511 0.0
C812 C 0.70411 0.65498 0.56542 0.0
C813 C 0.68004 0.6676 0.55539 0.0
C814 C 0.72316 0.66955 0.5833 0.0
C815 C 0.71832 0.69686 0.59175 0.0
C816 C 0.69424 0.70944 0.58205 0.0
H817 H 0.83159 0.82238 0.65448 0.0
H818 H 0.79926 0.79329 0.62527 0.0
C819 C 0.67525 0.69496 0.5641 0.0
C820 C 0.73891 0.71258 0.60972 0.0
H821 H 0.74807 0.74885 0.67658 0.0
C822 C 0.76484 0.71679 0.59686 0.0
C823 C 0.73291 0.72384 0.63901 0.0
C824 C 0.70576 0.719 0.65438 0.0
C825 C 0.78478 0.73252 0.6123 0.0
C826 C 0.77845 0.74453 0.64116 0.0
C827 C 0.75274 0.73981 0.65431 0.0
C828 C 0.79829 0.76192 0.65825 0.0
C829 C 0.81254 0.736 0.59775 0.0
C830 C 0.80799 0.75411 0.68659 0.0
C831 C 0.82622 0.77071 0.70318 0.0
C832 C 0.83493 0.7954 0.69175 0.0
C833 C 0.82512 0.80333 0.66352 0.0
C834 C 0.8069 0.78669 0.64686 0.0
H835 H 0.81632 0.72044 0.57926 0.0
H836 H 0.81356 0.75627 0.58778 0.0
H837 H 0.82917 0.73477 0.61486 0.0
H838 H 0.8014 0.73518 0.69587 0.0
H839 H 0.83323 0.76453 0.72518 0.0
H840 H 0.78633 0.1549 0.02973 0.0
H841 H 0.75444 0.18175 0.06144 0.0
H842 H 0.82169 0.21047 0.11757 0.0
H843 H 0.85392 0.18417 0.08551 0.0
H844 H 0.74214 0.18079 0.12168 0.0
H845 H 0.78578 0.28081 0.09481 0.0
H846 H 0.79493 0.24994 0.07383 0.0
H847 H 0.81049 0.25809 0.1101 0.0
C848 C 0.7944 0.16691 0.04882 0.0
C849 C 0.82275 0.16761 0.05488 0.0
C850 C 0.77611 0.18223 0.06694 0.0
C851 C 0.78574 0.19853 0.09149 0.0
C852 C 0.8139 0.19859 0.09824 0.0
H853 H 0.70829 0.30259 0.22933 0.0
H854 H 0.73941 0.27343 0.1987 0.0
C855 C 0.83227 0.18342 0.07999 0.0
C856 C 0.76625 0.21542 0.10997 0.0
H857 H 0.75223 0.28066 0.13399 0.0
C858 C 0.74426 0.20264 0.12426 0.0
C859 C 0.76896 0.24396 0.11315 0.0
C860 C 0.79114 0.25907 0.09693 0.0
C861 C 0.72525 0.21758 0.14214 0.0
C862 C 0.72826 0.246 0.14563 0.0
C863 C 0.75012 0.25881 0.1313 0.0
C864 C 0.7091 0.26287 0.16437 0.0
C865 C 0.70236 0.20291 0.15764 0.0
C866 C 0.68184 0.2666 0.15508 0.0
C867 C 0.66421 0.28348 0.17237 0.0
C868 C 0.67362 0.29683 0.19911 0.0
C869 C 0.70078 0.29279 0.20853 0.0
C870 C 0.71844 0.27609 0.19119 0.0
H871 H 0.70572 0.18062 0.15711 0.0
H872 H 0.70028 0.21037 0.18167 0.0
H873 H 0.6827 0.20697 0.14595 0.0
H874 H 0.67439 0.25681 0.13422 0.0
H875 H 0.64338 0.28652 0.16468 0.0
H876 H 0.3114 0.34981 0.60482 0.0
H877 H 0.29506 0.32235 0.64596 0.0
H878 H 0.36871 0.27392 0.63969 0.0
H879 H 0.38531 0.30126 0.59825 0.0
H880 H 0.3195 0.24369 0.63881 0.0
H881 H 0.32111 0.31987 0.73483 0.0
H882 H 0.30396 0.33151 0.7017 0.0
H883 H 0.34009 0.32411 0.70007 0.0
C884 C 0.32429 0.33348 0.6123 0.0
C885 C 0.34963 0.32769 0.59814 0.0
C886 C 0.31499 0.31793 0.63599 0.0
C887 C 0.33085 0.29636 0.6461 0.0
C888 C 0.35628 0.29064 0.63231 0.0
H889 H 0.27677 0.20372 0.80183 0.0
H890 H 0.30616 0.22875 0.76704 0.0
C891 C 0.3657 0.30628 0.60865 0.0
C892 C 0.31985 0.27874 0.66961 0.0
H893 H 0.29374 0.28017 0.74163 0.0
C894 C 0.31423 0.25153 0.66145 0.0
C895 C 0.3133 0.28896 0.6992 0.0
C896 C 0.32016 0.31765 0.70964 0.0
C897 C 0.30093 0.23462 0.68165 0.0
C898 C 0.29286 0.24534 0.71055 0.0
C899 C 0.29974 0.27212 0.7193 0.0
C900 C 0.27578 0.22958 0.73126 0.0
C901 C 0.29523 0.20555 0.67174 0.0
C902 C 0.24905 0.22207 0.72267 0.0
C903 C 0.23242 0.20797 0.74242 0.0
C904 C 0.24225 0.20124 0.77107 0.0
C905 C 0.269 0.20866 0.7797 0.0
C906 C 0.28564 0.22292 0.75997 0.0
H907 H 0.30901 0.19853 0.65289 0.0
H908 H 0.29772 0.19189 0.69098 0.0
H909 H 0.27375 0.20384 0.66353 0.0
H910 H 0.24093 0.2274 0.7008 0.0
H911 H 0.21187 0.20225 0.7354 0.0
H912 H 0.61893 0.70043 0.43177 0.0
H913 H 0.63777 0.72653 0.39047 0.0
H914 H 0.707 0.67208 0.38341 0.0
H915 H 0.68872 0.6463 0.42494 0.0
H916 H 0.72263 0.72466 0.38652 0.0
H917 H 0.6412 0.70926 0.29949 0.0
H918 H 0.62891 0.72253 0.33558 0.0
H919 H 0.64349 0.68904 0.33266 0.0
C920 C 0.63803 0.69387 0.42122 0.0
C921 C 0.6524 0.67137 0.43177 0.0
C922 C 0.64868 0.70872 0.3975 0.0
C923 C 0.67364 0.70107 0.38365 0.0
C924 C 0.6877 0.67832 0.39376 0.0
H925 H 0.74884 0.75772 0.21929 0.0
H926 H 0.72471 0.73194 0.25783 0.0
C927 C 0.67721 0.66363 0.41754 0.0
C928 C 0.68611 0.71756 0.35987 0.0
H929 H 0.67582 0.74152 0.28907 0.0
C930 C 0.7124 0.72831 0.36519 0.0
C931 C 0.67284 0.72206 0.33195 0.0
C932 C 0.64516 0.70993 0.32436 0.0
C933 C 0.7258 0.7435 0.34342 0.0
C934 C 0.71224 0.74864 0.31585 0.0
C935 C 0.68601 0.73777 0.31039 0.0
C936 C 0.72538 0.76466 0.29212 0.0
C937 C 0.75462 0.75332 0.34988 0.0
C938 C 0.73318 0.79168 0.29844 0.0
C939 C 0.74717 0.80615 0.27665 0.0
C940 C 0.75331 0.79388 0.24816 0.0
C941 C 0.74461 0.76726 0.24138 0.0
C942 C 0.73074 0.7527 0.26323 0.0
H943 H 0.76455 0.74178 0.36804 0.0
H944 H 0.76759 0.75152 0.32913 0.0
H945 H 0.75394 0.77498 0.35762 0.0
H946 H 0.72874 0.80147 0.32037 0.0
H947 H 0.75366 0.82674 0.28212 0.0
H948 H 0.83172 0.13095 0.90304 0.0
H949 H 0.81372 0.15654 0.86097 0.0
H950 H 0.83708 0.23144 0.90779 0.0
H951 H 0.85564 0.20611 0.94955 0.0
H952 H 0.77232 0.19319 0.86317 0.0
H953 H 0.86716 0.24257 0.82373 0.0
H954 H 0.86775 0.21472 0.84906 0.0
H955 H 0.86113 0.24872 0.86362 0.0
C956 C 0.83327 0.15286 0.90426 0.0
C957 C 0.84513 0.16648 0.92968 0.0
C958 C 0.823 0.16744 0.88018 0.0
C959 C 0.82446 0.19587 0.88102 0.0
C960 C 0.83637 0.20949 0.90628 0.0
H961 H 0.75021 0.32509 0.78443 0.0
H962 H 0.77593 0.29667 0.81911 0.0
C963 C 0.84679 0.19496 0.93027 0.0
C964 C 0.8119 0.2114 0.85647 0.0
H965 H 0.82467 0.26083 0.80621 0.0
C966 C 0.78384 0.20772 0.85044 0.0
C967 C 0.82699 0.23037 0.83992 0.0
C968 C 0.85748 0.23416 0.84417 0.0
C969 C 0.77026 0.22313 0.82899 0.0
C970 C 0.7852 0.24253 0.81303 0.0
C971 C 0.81332 0.24596 0.81865 0.0
C972 C 0.77165 0.25994 0.79099 0.0
C973 C 0.73984 0.21915 0.82415 0.0
C974 C 0.76137 0.24872 0.76353 0.0
C975 C 0.74696 0.26494 0.74372 0.0
C976 C 0.74262 0.29254 0.75113 0.0
C977 C 0.7536 0.3039 0.77821 0.0
C978 C 0.76812 0.28771 0.79797 0.0
H979 H 0.73046 0.20681 0.84197 0.0
H980 H 0.72915 0.23903 0.82398 0.0
H981 H 0.73638 0.20857 0.80176 0.0
H982 H 0.76419 0.22737 0.75765 0.0
H983 H 0.73889 0.25594 0.72275 0.0
H984 H 0.3393 0.29511 0.47596 0.0
H985 H 0.30547 0.27065 0.44465 0.0
H986 H 0.25771 0.34384 0.43847 0.0
H987 H 0.29136 0.36855 0.47018 0.0
H988 H 0.22662 0.29884 0.45354 0.0
H989 H 0.29242 0.27496 0.35322 0.0
H990 H 0.30729 0.2649 0.38832 0.0
H991 H 0.30156 0.30028 0.3822 0.0
C992 C 0.32172 0.30612 0.46783 0.0
C993 C 0.31808 0.33384 0.47561 0.0
C994 C 0.30247 0.29211 0.44976 0.0
C995 C 0.27929 0.30552 0.43889 0.0
C996 C 0.27556 0.33316 0.44652 0.0
H997 H 0.16998 0.22971 0.30316 0.0
H998 H 0.20025 0.26174 0.3312 0.0
C999 C 0.29483 0.34725 0.46461 0.0
C1000 C 0.25848 0.29031 0.42058 0.0
H1001 H 0.25039 0.25034 0.35613 0.0
C1002 C 0.23171 0.28843 0.43209 0.0
C1003 C 0.26509 0.27706 0.39243 0.0
C1004 C 0.29308 0.27957 0.37812 0.0
C1005 C 0.2116 0.27286 0.41669 0.0
C1006 C 0.21862 0.25849 0.38931 0.0
C1007 C 0.24513 0.26114 0.37729 0.0
C1008 C 0.199 0.24016 0.37303 0.0
C1009 C 0.18301 0.27201 0.42981 0.0
C1010 C 0.18831 0.21747 0.38724 0.0
C1011 C 0.17099 0.19938 0.37128 0.0
C1012 C 0.16436 0.20359 0.34087 0.0
C1013 C 0.17481 0.22634 0.32671 0.0
C1014 C 0.19209 0.24447 0.34264 0.0
H1015 H 0.17892 0.28981 0.44542 0.0
H1016 H 0.16729 0.27142 0.41156 0.0
H1017 H 0.18077 0.25346 0.44302 0.0
H1018 H 0.1938 0.21344 0.41045 0.0
H1019 H 0.163 0.18192 0.38248 0.0
H1020 H 0.20904 0.86344 0.97443 0.0
H1021 H 0.24155 0.83607 0.94383 0.0
H1022 H 0.187 0.76746 0.94656 0.0
H1023 H 0.15468 0.7944 0.97757 0.0
H1024 H 0.23962 0.75417 0.96054 0.0
H1025 H 0.23717 0.81148 0.85469 0.0
H1026 H 0.24529 0.83185 0.88819 0.0
H1027 H 0.21199 0.81642 0.8845 0.0
C1028 C 0.20384 0.84259 0.96831 0.0
C1029 C 0.17925 0.83111 0.97852 0.0
C1030 C 0.2224 0.82702 0.95067 0.0
C1031 C 0.21655 0.79981 0.94262 0.0
C1032 C 0.19191 0.78843 0.95248 0.0
H1033 H 0.29785 0.69445 0.80815 0.0
H1034 H 0.26571 0.72351 0.83769 0.0
C1035 C 0.17344 0.80389 0.9702 0.0
C1036 C 0.23652 0.78274 0.925 0.0
H1037 H 0.27096 0.77695 0.85745 0.0
C1038 C 0.24646 0.75913 0.93798 0.0
C1039 C 0.24518 0.7891 0.89545 0.0
C1040 C 0.23419 0.81345 0.87971 0.0
C1041 C 0.2649 0.74175 0.92229 0.0
C1042 C 0.27411 0.74846 0.89306 0.0
C1043 C 0.26406 0.77199 0.87998 0.0
C1044 C 0.29362 0.73097 0.87534 0.0
C1045 C 0.27383 0.71602 0.93688 0.0
C1046 C 0.31998 0.7257 0.8866 0.0
C1047 C 0.33812 0.70895 0.86986 0.0
C1048 C 0.3303 0.69753 0.84152 0.0
C1049 C 0.3041 0.70299 0.8301 0.0
C1050 C 0.2859 0.71963 0.84685 0.0
H1051 H 0.25956 0.71037 0.95528 0.0
H1052 H 0.2751 0.69886 0.91983 0.0
H1053 H 0.29447 0.7191 0.94706 0.0
H1054 H 0.32654 0.73461 0.90827 0.0
H1055 H 0.35823 0.70479 0.87901 0.0
loop_
_geom_bond_atom_site_label_1
_geom_bond_atom_site_label_2
_geom_bond_distance
_geom_bond_site_symmetry_2
_ccdc_geom_bond_type
Fe0 O2 1.918 . S
Fe0 O5 1.997 . S
Fe0 O6 2.002 . S
Fe0 O11 1.976 . S
Fe0 O14 1.996 . S
Fe1 O2 1.918 . S
Fe1 O9 1.997 . S
Fe1 O12 1.996 1_554 S
Fe1 O16 1.976 1_554 S
Fe1 O19 2.002 . S
O2 Fe0 1.918 . S
O2 Fe1 1.918 . S
O2 Fe3 1.918 . S
Fe3 O2 1.918 . S
Fe3 O4 2.002 . S
Fe3 O13 1.976 1_554 S
Fe3 O17 1.996 1_554 S
Fe3 O20 1.997 . S
O4 Fe3 2.002 . S
O4 C21 1.295 . S
O5 Fe0 1.997 . S
O5 C21 1.235 . S
O6 Fe0 2.002 . S
O6 C7 1.295 . S
C7 O6 1.295 . S
C7 O9 1.235 . S
C8 O13 1.287 . S
C8 O14 1.255 1_556 S
O9 Fe1 1.997 . S
O9 C7 1.235 . S
C10 O16 1.287 . S
C10 O17 1.255 . S
O11 Fe0 1.976 . S
O11 C18 1.287 1_554 S
O12 Fe1 1.996 1_556 S
O12 C18 1.255 . S
O13 Fe3 1.976 1_556 S
O13 C8 1.287 . S
O14 Fe0 1.996 . S
O14 C8 1.255 1_554 S
C15 O19 1.295 . S
C15 O20 1.235 . S
O16 Fe1 1.976 1_556 S
O16 C10 1.287 . S
O17 Fe3 1.996 1_556 S
O17 C10 1.255 . S
C18 O11 1.287 1_556 S
C18 O12 1.255 . S
O19 Fe1 2.002 . S
O19 C15 1.295 . S
O20 Fe3 1.997 . S
O20 C15 1.235 . S
C21 O4 1.295 . S
C21 O5 1.235 . S
Fe22 O24 1.918 . S
Fe22 O27 1.997 . S
Fe22 O28 2.002 . S
Fe22 O33 1.976 . S
Fe22 O36 1.996 . S
Fe23 O24 1.918 . S
Fe23 O31 1.997 . S
Fe23 O34 1.996 . S
Fe23 O38 1.976 . S
Fe23 O41 2.002 . S
O24 Fe22 1.918 . S
O24 Fe23 1.918 . S
O24 Fe25 1.918 . S
Fe25 O24 1.918 . S
Fe25 O26 2.002 . S
Fe25 O35 1.976 . S
Fe25 O39 1.996 . S
Fe25 O42 1.997 . S
O26 Fe25 2.002 . S
O26 C43 1.295 . S
O27 Fe22 1.997 . S
O27 C43 1.235 . S
O28 Fe22 2.002 . S
O28 C29 1.295 . S
C29 O28 1.295 . S
C29 O31 1.235 . S
C30 O35 1.287 . S
C30 O36 1.255 . S
O31 Fe23 1.997 . S
O31 C29 1.235 . S
C32 O38 1.287 . S
C32 O39 1.255 . S
O33 Fe22 1.976 . S
O33 C40 1.287 . S
O34 Fe23 1.996 . S
O34 C40 1.255 . S
O35 Fe25 1.976 . S
O35 C30 1.287 . S
O36 Fe22 1.996 . S
O36 C30 1.255 . S
C37 O41 1.295 . S
C37 O42 1.235 . S
O38 Fe23 1.976 . S
O38 C32 1.287 . S
O39 Fe25 1.996 . S
O39 C32 1.255 . S
C40 O33 1.287 . S
C40 O34 1.255 . S
O41 Fe23 2.002 . S
O41 C37 1.295 . S
O42 Fe25 1.997 . S
O42 C37 1.235 . S
C43 O26 1.295 . S
C43 O27 1.235 . S
Fe44 O46 1.918 . S
Fe44 O49 1.997 1_554 S
Fe44 O50 2.002 1_554 S
Fe44 O55 1.976 . S
Fe44 O58 1.996 . S
Fe45 O46 1.918 . S
Fe45 O53 1.997 1_554 S
Fe45 O56 1.996 . S
Fe45 O60 1.976 . S
Fe45 O63 2.002 1_554 S
O46 Fe44 1.918 . S
O46 Fe45 1.918 . S
O46 Fe47 1.918 1_554 S
Fe47 O46 1.918 1_556 S
Fe47 O48 2.002 . S
Fe47 O57 1.976 1_556 S
Fe47 O61 1.996 1_556 S
Fe47 O64 1.997 . S
O48 Fe47 2.002 . S
O48 C65 1.295 . S
O49 Fe44 1.997 1_556 S
O49 C65 1.235 . S
O50 Fe44 2.002 1_556 S
O50 C51 1.295 . S
C51 O50 1.295 . S
C51 O53 1.235 . S
C52 O57 1.287 . S
C52 O58 1.255 . S
O53 Fe45 1.997 1_556 S
O53 C51 1.235 . S
C54 O60 1.287 . S
C54 O61 1.255 . S
O55 Fe44 1.976 . S
O55 C62 1.287 . S
O56 Fe45 1.996 . S
O56 C62 1.255 . S
O57 Fe47 1.976 1_554 S
O57 C52 1.287 . S
O58 Fe44 1.996 . S
O58 C52 1.255 . S
C59 O63 1.295 . S
C59 O64 1.235 . S
O60 Fe45 1.976 . S
O60 C54 1.287 . S
O61 Fe47 1.996 1_554 S
O61 C54 1.255 . S
C62 O55 1.287 . S
C62 O56 1.255 . S
O63 Fe45 2.002 1_556 S
O63 C59 1.295 . S
O64 Fe47 1.997 . S
O64 C59 1.235 . S
C65 O48 1.295 . S
C65 O49 1.235 . S
Fe66 O68 1.918 . S
Fe66 O71 1.997 . S
Fe66 O72 2.002 . S
Fe66 O77 1.976 . S
Fe66 O80 1.996 . S
Fe67 O68 1.918 . S
Fe67 O75 1.997 . S
Fe67 O78 1.996 . S
Fe67 O82 1.976 . S
Fe67 O85 2.002 . S
O68 Fe66 1.918 . S
O68 Fe67 1.918 . S
O68 Fe69 1.918 . S
Fe69 O68 1.918 . S
Fe69 O70 2.002 . S
Fe69 O79 1.976 . S
Fe69 O83 1.996 . S
Fe69 O86 1.997 . S
O70 Fe69 2.002 . S
O70 C87 1.295 . S
O71 Fe66 1.997 . S
O71 C87 1.235 . S
O72 Fe66 2.002 . S
O72 C73 1.295 . S
C73 O72 1.295 . S
C73 O75 1.235 . S
C74 O79 1.287 . S
C74 O80 1.255 . S
O75 Fe67 1.997 . S
O75 C73 1.235 . S
C76 O82 1.287 . S
C76 O83 1.255 . S
O77 Fe66 1.976 . S
O77 C84 1.287 . S
O78 Fe67 1.996 . S
O78 C84 1.255 . S
O79 Fe69 1.976 . S
O79 C74 1.287 . S
O80 Fe66 1.996 . S
O80 C74 1.255 . S
C81 O85 1.295 . S
C81 O86 1.235 . S
O82 Fe67 1.976 . S
O82 C76 1.287 . S
O83 Fe69 1.996 . S
O83 C76 1.255 . S
C84 O77 1.287 . S
C84 O78 1.255 . S
O85 Fe67 2.002 . S
O85 C81 1.295 . S
O86 Fe69 1.997 . S
O86 C81 1.235 . S
C87 O70 1.295 . S
C87 O71 1.235 . S
C88 N89 1.317 . S
C88 N90 1.348 . S
C88 C91 1.485 . S
N89 C88 1.317 . S
N89 N93 1.370 . S
N90 C88 1.348 . S
N90 C92 1.346 . S
C91 C88 1.485 . S
C91 H95 0.960 . S
C91 H96 0.961 . S
C91 H97 0.960 . S
C92 N90 1.346 . S
C92 N93 1.307 . S
C92 C94 1.486 . S
N93 N89 1.370 . S
N93 C92 1.307 . S
C94 C92 1.486 . S
C94 H98 0.960 . S
C94 H99 0.960 . S
C94 H100 0.959 . S
H95 C91 0.960 . S
H96 C91 0.961 . S
H97 C91 0.960 . S
H98 C94 0.960 . S
H99 C94 0.960 . S
H100 C94 0.959 . S
C101 N102 1.317 . S
C101 N103 1.348 . S
C101 C104 1.485 . S
N102 C101 1.317 . S
N102 N106 1.370 . S
N103 C101 1.348 . S
N103 C105 1.346 . S
C104 C101 1.485 . S
C104 H108 0.960 . S
C104 H109 0.961 . S
C104 H110 0.960 . S
C105 N103 1.346 . S
C105 N106 1.307 . S
C105 C107 1.486 . S
N106 N102 1.370 . S
N106 C105 1.307 . S
C107 C105 1.486 . S
C107 H111 0.960 . S
C107 H112 0.960 . S
C107 H113 0.959 . S
H108 C104 0.960 . S
H109 C104 0.961 . S
H110 C104 0.960 . S
H111 C107 0.960 . S
H112 C107 0.960 . S
H113 C107 0.959 . S
C114 N115 1.317 . S
C114 N116 1.348 . S
C114 C117 1.485 . S
N115 C114 1.317 . S
N115 N119 1.370 . S
N116 C114 1.348 . S
N116 C118 1.346 . S
C117 C114 1.485 . S
C117 H121 0.960 . S
C117 H122 0.961 . S
C117 H123 0.960 . S
C118 N116 1.346 . S
C118 N119 1.307 . S
C118 C120 1.486 . S
N119 N115 1.370 . S
N119 C118 1.307 . S
C120 C118 1.486 . S
C120 H124 0.960 . S
C120 H125 0.960 . S
C120 H126 0.959 . S
H121 C117 0.960 . S
H122 C117 0.961 . S
H123 C117 0.960 . S
H124 C120 0.960 . S
H125 C120 0.960 . S
H126 C120 0.959 . S
C127 N128 1.317 . S
C127 N129 1.348 . S
C127 C130 1.485 . S
N128 C127 1.317 . S
N128 N132 1.370 . S
N129 C127 1.348 . S
N129 C131 1.346 . S
C130 C127 1.485 . S
C130 H134 0.960 . S
C130 H135 0.961 . S
C130 H136 0.960 . S
C131 N129 1.346 . S
C131 N132 1.307 . S
C131 C133 1.486 . S
N132 N128 1.370 . S
N132 C131 1.307 . S
C133 C131 1.486 . S
C133 H137 0.960 . S
C133 H138 0.960 . S
C133 H139 0.959 . S
H134 C130 0.960 . S
H135 C130 0.961 . S
H136 C130 0.960 . S
H137 C133 0.960 . S
H138 C133 0.960 . S
H139 C133 0.959 . S
C140 N141 1.317 . S
C140 N142 1.348 . S
C140 C143 1.485 . S
N141 C140 1.317 . S
N141 N145 1.370 . S
N142 C140 1.348 . S
N142 C144 1.346 . S
C143 C140 1.485 . S
C143 H147 0.960 . S
C143 H148 0.961 . S
C143 H149 0.960 . S
C144 N142 1.346 . S
C144 N145 1.307 . S
C144 C146 1.486 . S
N145 N141 1.370 . S
N145 C144 1.307 . S
C146 C144 1.486 . S
C146 H150 0.960 . S
C146 H151 0.960 . S
C146 H152 0.959 . S
H147 C143 0.960 . S
H148 C143 0.961 . S
H149 C143 0.960 . S
H150 C146 0.960 . S
H151 C146 0.960 . S
H152 C146 0.959 . S
C153 N154 1.317 . S
C153 N155 1.348 . S
C153 C156 1.485 . S
N154 C153 1.317 . S
N154 N158 1.370 . S
N155 C153 1.348 . S
N155 C157 1.346 . S
C156 C153 1.485 . S
C156 H160 0.960 . S
C156 H161 0.961 . S
C156 H162 0.960 . S
C157 N155 1.346 . S
C157 N158 1.307 . S
C157 C159 1.486 . S
N158 N154 1.370 . S
N158 C157 1.307 . S
C159 C157 1.486 . S
C159 H163 0.960 . S
C159 H164 0.960 . S
C159 H165 0.959 . S
H160 C156 0.960 . S
H161 C156 0.961 . S
H162 C156 0.960 . S
H163 C159 0.960 . S
H164 C159 0.960 . S
H165 C159 0.959 . S
C166 N167 1.317 . S
C166 N168 1.348 . S
C166 C169 1.485 . S
N167 C166 1.317 . S
N167 N171 1.370 . S
N168 C166 1.348 . S
N168 C170 1.346 . S
C169 C166 1.485 . S
C169 H173 0.960 . S
C169 H174 0.961 . S
C169 H175 0.960 . S
C170 N168 1.346 . S
C170 N171 1.307 . S
C170 C172 1.486 . S
N171 N167 1.370 . S
N171 C170 1.307 . S
C172 C170 1.486 . S
C172 H176 0.960 . S
C172 H177 0.960 . S
C172 H178 0.959 . S
H173 C169 0.960 . S
H174 C169 0.961 . S
H175 C169 0.960 . S
H176 C172 0.960 . S
H177 C172 0.960 . S
H178 C172 0.959 . S
C179 N180 1.317 . S
C179 N181 1.348 . S
C179 C182 1.485 . S
N180 C179 1.317 . S
N180 N184 1.370 . S
N181 C179 1.348 . S
N181 C183 1.346 . S
C182 C179 1.485 . S
C182 H186 0.960 . S
C182 H187 0.961 . S
C182 H188 0.960 . S
C183 N181 1.346 . S
C183 N184 1.307 . S
C183 C185 1.486 . S
N184 N180 1.370 . S
N184 C183 1.307 . S
C185 C183 1.486 . S
C185 H189 0.960 . S
C185 H190 0.960 . S
C185 H191 0.959 . S
H186 C182 0.960 . S
H187 C182 0.961 . S
H188 C182 0.960 . S
H189 C185 0.960 . S
H190 C185 0.960 . S
H191 C185 0.959 . S
H192 C200 0.929 . S
H193 C202 0.930 . S
H194 C204 0.930 . S
H195 C207 0.929 . S
H196 C210 0.930 . S
H197 C212 0.960 . S
H198 C212 0.960 . S
H199 C212 0.960 . S
C200 H192 0.929 . S
C200 C201 1.377 . S
C200 C202 1.384 . S
C201 C200 1.377 . S
C201 C207 1.390 . S
C202 H193 0.930 . S
C202 C200 1.384 . S
C202 C203 1.372 . S
C203 C202 1.372 . S
C203 C204 1.400 . S
C203 C208 1.490 1_565 S
C204 H194 0.930 . S
C204 C203 1.400 . S
C204 C207 1.386 . S
H205 C221 0.930 . S
H206 C222 0.931 . S
C207 H195 0.929 . S
C207 C201 1.390 . S
C207 C204 1.386 . S
C208 C203 1.490 1_545 S
C208 C210 1.395 . S
C208 C211 1.403 . S
H209 C215 0.930 . S
C210 H196 0.930 . S
C210 C208 1.395 . S
C210 C213 1.403 . S
C211 C208 1.403 . S
C211 C212 1.524 1_545 S
C211 C215 1.400 . S
C212 H197 0.960 . S
C212 H198 0.960 . S
C212 H199 0.960 . S
C212 C211 1.524 1_565 S
C213 C210 1.403 . S
C213 C214 1.392 . S
C213 C217 1.495 . S
C214 C213 1.392 . S
C214 C215 1.385 . S
C214 C216 1.478 . S
C215 H209 0.930 . S
C215 C211 1.400 . S
C215 C214 1.385 . S
C216 C214 1.478 . S
C216 C218 1.381 . S
C216 C222 1.383 . S
C217 C213 1.495 . S
C217 H223 0.959 . S
C217 H224 0.961 . S
C217 H225 0.960 . S
C218 C216 1.381 . S
C218 C219 1.394 . S
C218 H226 0.930 . S
C219 C218 1.394 . S
C219 C220 1.383 . S
C219 H227 0.929 . S
C220 C219 1.383 . S
C220 C221 1.377 . S
C221 H205 0.930 . S
C221 C220 1.377 . S
C221 C222 1.379 . S
C222 H206 0.931 . S
C222 C216 1.383 . S
C222 C221 1.379 . S
H223 C217 0.959 . S
H224 C217 0.961 . S
H225 C217 0.960 . S
H226 C218 0.930 . S
H227 C219 0.929 . S
H228 C236 0.929 . S
H229 C238 0.930 . S
H230 C240 0.930 . S
H231 C243 0.929 . S
H232 C246 0.930 . S
H233 C248 0.960 . S
H234 C248 0.960 . S
H235 C248 0.960 . S
C236 H228 0.929 . S
C236 C237 1.377 . S
C236 C238 1.384 . S
C237 C236 1.377 . S
C237 C243 1.390 . S
C238 H229 0.930 . S
C238 C236 1.384 . S
C238 C239 1.372 . S
C239 C238 1.372 . S
C239 C240 1.400 . S
C239 C244 1.490 . S
C240 H230 0.930 . S
C240 C239 1.400 . S
C240 C243 1.386 . S
H241 C257 0.930 . S
H242 C258 0.931 . S
C243 H231 0.929 . S
C243 C237 1.390 . S
C243 C240 1.386 . S
C244 C239 1.490 . S
C244 C246 1.395 . S
C244 C247 1.403 . S
H245 C251 0.930 . S
C246 H232 0.930 . S
C246 C244 1.395 . S
C246 C249 1.403 . S
C247 C244 1.403 . S
C247 C248 1.524 . S
C247 C251 1.400 . S
C248 H233 0.960 . S
C248 H234 0.960 . S
C248 H235 0.960 . S
C248 C247 1.524 . S
C249 C246 1.403 . S
C249 C250 1.392 . S
C249 C253 1.495 . S
C250 C249 1.392 . S
C250 C251 1.385 . S
C250 C252 1.478 . S
C251 H245 0.930 . S
C251 C247 1.400 . S
C251 C250 1.385 . S
C252 C250 1.478 . S
C252 C254 1.381 . S
C252 C258 1.383 . S
C253 C249 1.495 . S
C253 H259 0.959 . S
C253 H260 0.961 . S
C253 H261 0.960 . S
C254 C252 1.381 . S
C254 C255 1.394 . S
C254 H262 0.930 . S
C255 C254 1.394 . S
C255 C256 1.383 . S
C255 H263 0.929 . S
C256 C255 1.383 . S
C256 C257 1.377 . S
C257 H241 0.930 . S
C257 C256 1.377 . S
C257 C258 1.379 . S
C258 H242 0.931 . S
C258 C252 1.383 . S
C258 C257 1.379 . S
H259 C253 0.959 . S
H260 C253 0.961 . S
H261 C253 0.960 . S
H262 C254 0.930 . S
H263 C255 0.929 . S
H264 C272 0.929 . S
H265 C274 0.930 . S
H266 C276 0.930 1_565 S
H267 C279 0.929 . S
H268 C282 0.930 . S
H269 C284 0.960 . S
H270 C284 0.960 . S
H271 C284 0.960 . S
C272 H264 0.929 . S
C272 C273 1.377 . S
C272 C274 1.384 . S
C273 C272 1.377 . S
C273 C279 1.390 . S
C274 H265 0.930 . S
C274 C272 1.384 . S
C274 C275 1.372 . S
C275 C274 1.372 . S
C275 C276 1.400 . S
C275 C280 1.490 1_545 S
C276 H266 0.930 1_545 S
C276 C275 1.400 . S
C276 C279 1.386 . S
H277 C293 0.930 . S
H278 C294 0.931 . S
C279 H267 0.929 . S
C279 C273 1.390 . S
C279 C276 1.386 . S
C280 C275 1.490 1_565 S
C280 C282 1.395 . S
C280 C283 1.403 . S
H281 C287 0.930 . S
C282 H268 0.930 . S
C282 C280 1.395 . S
C282 C285 1.403 . S
C283 C280 1.403 . S
C283 C284 1.524 . S
C283 C287 1.400 . S
C284 H269 0.960 . S
C284 H270 0.960 . S
C284 H271 0.960 . S
C284 C283 1.524 . S
C285 C282 1.403 . S
C285 C286 1.392 . S
C285 C289 1.495 . S
C286 C285 1.392 . S
C286 C287 1.385 . S
C286 C288 1.478 . S
C287 H281 0.930 . S
C287 C283 1.400 . S
C287 C286 1.385 . S
C288 C286 1.478 . S
C288 C290 1.381 . S
C288 C294 1.383 . S
C289 C285 1.495 . S
C289 H295 0.959 . S
C289 H296 0.961 . S
C289 H297 0.960 . S
C290 C288 1.381 . S
C290 C291 1.394 . S
C290 H298 0.930 . S
C291 C290 1.394 . S
C291 C292 1.383 . S
C291 H299 0.929 . S
C292 C291 1.383 . S
C292 C293 1.377 . S
C293 H277 0.930 . S
C293 C292 1.377 . S
C293 C294 1.379 . S
C294 H278 0.931 . S
C294 C288 1.383 . S
C294 C293 1.379 . S
H295 C289 0.959 . S
H296 C289 0.961 . S
H297 C289 0.960 . S
H298 C290 0.930 . S
H299 C291 0.929 . S
H300 C308 0.929 . S
H301 C310 0.930 . S
H302 C312 0.930 . S
H303 C315 0.929 . S
H304 C318 0.930 . S
H305 C320 0.960 . S
H306 C320 0.960 . S
H307 C320 0.960 . S
C308 H300 0.929 . S
C308 C309 1.377 . S
C308 C310 1.384 . S
C309 C308 1.377 . S
C309 C315 1.390 . S
C310 H301 0.930 . S
C310 C308 1.384 . S
C310 C311 1.372 . S
C311 C310 1.372 . S
C311 C312 1.400 . S
C311 C316 1.490 . S
C312 H302 0.930 . S
C312 C311 1.400 . S
C312 C315 1.386 . S
H313 C329 0.930 . S
H314 C330 0.931 . S
C315 H303 0.929 . S
C315 C309 1.390 . S
C315 C312 1.386 . S
C316 C311 1.490 . S
C316 C318 1.395 . S
C316 C319 1.403 . S
H317 C323 0.930 . S
C318 H304 0.930 . S
C318 C316 1.395 . S
C318 C321 1.403 . S
C319 C316 1.403 . S
C319 C320 1.524 . S
C319 C323 1.400 . S
C320 H305 0.960 . S
C320 H306 0.960 . S
C320 H307 0.960 . S
C320 C319 1.524 . S
C321 C318 1.403 . S
C321 C322 1.392 . S
C321 C325 1.495 . S
C322 C321 1.392 . S
C322 C323 1.385 . S
C322 C324 1.478 . S
C323 H317 0.930 . S
C323 C319 1.400 . S
C323 C322 1.385 . S
C324 C322 1.478 . S
C324 C326 1.381 . S
C324 C330 1.383 . S
C325 C321 1.495 . S
C325 H331 0.959 . S
C325 H332 0.961 . S
C325 H333 0.960 . S
C326 C324 1.381 . S
C326 C327 1.394 . S
C326 H334 0.930 . S
C327 C326 1.394 . S
C327 C328 1.383 . S
C327 H335 0.929 . S
C328 C327 1.383 . S
C328 C329 1.377 . S
C329 H313 0.930 . S
C329 C328 1.377 . S
C329 C330 1.379 . S
C330 H314 0.931 . S
C330 C324 1.383 . S
C330 C329 1.379 . S
H331 C325 0.959 . S
H332 C325 0.961 . S
H333 C325 0.960 . S
H334 C326 0.930 . S
H335 C327 0.929 . S
H336 C344 0.929 . S
H337 C346 0.930 . S
H338 C348 0.930 . S
H339 C351 0.929 . S
H340 C354 0.930 . S
H341 C356 0.960 . S
H342 C356 0.960 . S
H343 C356 0.960 . S
C344 H336 0.929 . S
C344 C345 1.377 . S
C344 C346 1.384 . S
C345 C344 1.377 . S
C345 C351 1.390 . S
C346 H337 0.930 . S
C346 C344 1.384 . S
C346 C347 1.372 . S
C347 C346 1.372 . S
C347 C348 1.400 . S
C347 C352 1.490 . S
C348 H338 0.930 . S
C348 C347 1.400 . S
C348 C351 1.386 . S
H349 C365 0.930 . S
H350 C366 0.931 . S
C351 H339 0.929 . S
C351 C345 1.390 . S
C351 C348 1.386 . S
C352 C347 1.490 . S
C352 C354 1.395 . S
C352 C355 1.403 . S
H353 C359 0.930 . S
C354 H340 0.930 . S
C354 C352 1.395 . S
C354 C357 1.403 . S
C355 C352 1.403 . S
C355 C356 1.524 . S
C355 C359 1.400 . S
C356 H341 0.960 . S
C356 H342 0.960 . S
C356 H343 0.960 . S
C356 C355 1.524 . S
C357 C354 1.403 . S
C357 C358 1.392 . S
C357 C361 1.495 . S
C358 C357 1.392 . S
C358 C359 1.385 . S
C358 C360 1.478 . S
C359 H353 0.930 . S
C359 C355 1.400 . S
C359 C358 1.385 . S
C360 C358 1.478 . S
C360 C362 1.381 . S
C360 C366 1.383 . S
C361 C357 1.495 . S
C361 H367 0.959 . S
C361 H368 0.961 . S
C361 H369 0.960 . S
C362 C360 1.381 . S
C362 C363 1.394 . S
C362 H370 0.930 . S
C363 C362 1.394 . S
C363 C364 1.383 . S
C363 H371 0.929 . S
C364 C363 1.383 . S
C364 C365 1.377 . S
C365 H349 0.930 . S
C365 C364 1.377 . S
C365 C366 1.379 . S
C366 H350 0.931 . S
C366 C360 1.383 . S
C366 C365 1.379 . S
H367 C361 0.959 . S
H368 C361 0.961 . S
H369 C361 0.960 . S
H370 C362 0.930 . S
H371 C363 0.929 . S
H372 C380 0.929 . S
H373 C382 0.930 . S
H374 C384 0.930 1_455 S
H375 C387 0.929 . S
H376 C390 0.930 . S
H377 C392 0.960 . S
H378 C392 0.960 . S
H379 C392 0.960 . S
C380 H372 0.929 . S
C380 C381 1.377 . S
C380 C382 1.384 . S
C381 C380 1.377 . S
C381 C387 1.390 . S
C382 H373 0.930 . S
C382 C380 1.384 . S
C382 C383 1.408 . S
C383 C382 1.408 . S
C383 C384 1.405 . S
C383 C388 1.451 1_655 S
C384 H374 0.930 1_655 S
C384 C383 1.405 . S
C384 C387 1.386 . S
H385 C401 0.930 . S
H386 C402 0.931 . S
C387 H375 0.929 . S
C387 C381 1.390 . S
C387 C384 1.386 . S
C388 C383 1.451 1_455 S
C388 C390 1.395 . S
C388 C391 1.403 . S
H389 C395 0.930 . S
C390 H376 0.930 . S
C390 C388 1.395 . S
C390 C393 1.403 . S
C391 C388 1.403 . S
C391 C392 1.524 . S
C391 C395 1.400 . S
C392 H377 0.960 . S
C392 H378 0.960 . S
C392 H379 0.960 . S
C392 C391 1.524 . S
C393 C390 1.403 . S
C393 C394 1.392 . S
C393 C397 1.495 . S
C394 C393 1.392 . S
C394 C395 1.385 . S
C394 C396 1.478 . S
C395 H389 0.930 . S
C395 C391 1.400 . S
C395 C394 1.385 . S
C396 C394 1.478 . S
C396 C398 1.381 . S
C396 C402 1.383 . S
C397 C393 1.495 . S
C397 H403 0.959 . S
C397 H404 0.961 . S
C397 H405 0.960 . S
C398 C396 1.381 . S
C398 C399 1.394 . S
C398 H406 0.930 . S
C399 C398 1.394 . S
C399 C400 1.383 . S
C399 H407 0.929 . S
C400 C399 1.383 . S
C400 C401 1.377 . S
C401 H385 0.930 . S
C401 C400 1.377 . S
C401 C402 1.379 . S
C402 H386 0.931 . S
C402 C396 1.383 . S
C402 C401 1.379 . S
H403 C397 0.959 . S
H404 C397 0.961 . S
H405 C397 0.960 . S
H406 C398 0.930 . S
H407 C399 0.929 . S
H408 C416 0.929 . S
H409 C418 0.930 . S
H410 C420 0.930 . S
H411 C423 0.929 . S
H412 C426 0.930 . S
H413 C428 0.960 . S
H414 C428 0.960 . S
H415 C428 0.960 . S
C416 H408 0.929 . S
C416 C417 1.377 . S
C416 C418 1.384 . S
C417 C416 1.377 . S
C417 C423 1.390 . S
C418 H409 0.930 . S
C418 C416 1.384 . S
C418 C419 1.372 . S
C419 C418 1.372 . S
C419 C420 1.400 . S
C419 C424 1.490 . S
C420 H410 0.930 . S
C420 C419 1.400 . S
C420 C423 1.386 . S
H421 C437 0.930 . S
H422 C438 0.931 . S
C423 H411 0.929 . S
C423 C417 1.390 . S
C423 C420 1.386 . S
C424 C419 1.490 . S
C424 C426 1.395 . S
C424 C427 1.403 . S
H425 C431 0.930 . S
C426 H412 0.930 . S
C426 C424 1.395 . S
C426 C429 1.403 . S
C427 C424 1.403 . S
C427 C428 1.524 . S
C427 C431 1.400 . S
C428 H413 0.960 . S
C428 H414 0.960 . S
C428 H415 0.960 . S
C428 C427 1.524 . S
C429 C426 1.403 . S
C429 C430 1.392 . S
C429 C433 1.495 . S
C430 C429 1.392 . S
C430 C431 1.385 . S
C430 C432 1.478 . S
C431 H425 0.930 . S
C431 C427 1.400 . S
C431 C430 1.385 . S
C432 C430 1.478 . S
C432 C434 1.381 . S
C432 C438 1.383 . S
C433 C429 1.495 . S
C433 H439 0.959 . S
C433 H440 0.961 . S
C433 H441 0.960 . S
C434 C432 1.381 . S
C434 C435 1.394 . S
C434 H442 0.930 . S
C435 C434 1.394 . S
C435 C436 1.383 . S
C435 H443 0.929 . S
C436 C435 1.383 . S
C436 C437 1.377 . S
C437 H421 0.930 . S
C437 C436 1.377 . S
C437 C438 1.379 . S
C438 H422 0.931 . S
C438 C432 1.383 . S
C438 C437 1.379 . S
H439 C433 0.959 . S
H440 C433 0.961 . S
H441 C433 0.960 . S
H442 C434 0.930 . S
H443 C435 0.929 . S
H444 C452 0.929 . S
H445 C454 0.930 . S
H446 C456 0.930 . S
H447 C459 0.929 . S
H448 C462 0.930 . S
H449 C464 0.960 . S
H450 C464 0.960 . S
H451 C464 0.960 . S
C452 H444 0.929 . S
C452 C453 1.377 . S
C452 C454 1.384 . S
C453 C452 1.377 . S
C453 C459 1.390 . S
C454 H445 0.930 . S
C454 C452 1.384 . S
C454 C455 1.372 . S
C455 C454 1.372 . S
C455 C456 1.400 . S
C455 C460 1.490 . S
C456 H446 0.930 . S
C456 C455 1.400 . S
C456 C459 1.386 . S
H457 C473 0.930 . S
H458 C474 0.931 . S
C459 H447 0.929 . S
C459 C453 1.390 . S
C459 C456 1.386 . S
C460 C455 1.490 . S
C460 C462 1.395 1_455 S
C460 C463 1.403 . S
H461 C467 0.930 . S
C462 H448 0.930 . S
C462 C460 1.395 1_655 S
C462 C465 1.403 . S
C463 C460 1.403 . S
C463 C464 1.524 . S
C463 C467 1.400 1_455 S
C464 H449 0.960 . S
C464 H450 0.960 . S
C464 H451 0.960 . S
C464 C463 1.524 . S
C465 C462 1.403 . S
C465 C466 1.392 . S
C465 C469 1.495 . S
C466 C465 1.392 . S
C466 C467 1.385 . S
C466 C468 1.478 . S
C467 H461 0.930 . S
C467 C463 1.400 1_655 S
C467 C466 1.385 . S
C468 C466 1.478 . S
C468 C470 1.381 . S
C468 C474 1.383 . S
C469 C465 1.495 . S
C469 H475 0.959 . S
C469 H476 0.961 . S
C469 H477 0.960 . S
C470 C468 1.381 . S
C470 C471 1.394 . S
C470 H478 0.930 . S
C471 C470 1.394 . S
C471 C472 1.383 . S
C471 H479 0.929 . S
C472 C471 1.383 . S
C472 C473 1.377 . S
C473 H457 0.930 . S
C473 C472 1.377 . S
C473 C474 1.379 . S
C474 H458 0.931 . S
C474 C468 1.383 . S
C474 C473 1.379 . S
H475 C469 0.959 . S
H476 C469 0.961 . S
H477 C469 0.960 . S
H478 C470 0.930 . S
H479 C471 0.929 . S
H480 C488 0.929 . S
H481 C490 0.930 . S
H482 C492 0.930 . S
H483 C495 0.929 . S
H484 C498 0.930 1_545 S
H485 C500 0.960 . S
H486 C500 0.960 . S
H487 C500 0.960 . S
C488 H480 0.929 . S
C488 C489 1.377 . S
C488 C490 1.384 . S
C489 C488 1.377 . S
C489 C495 1.390 . S
C490 H481 0.930 . S
C490 C488 1.384 . S
C490 C491 1.372 . S
C491 C490 1.372 . S
C491 C492 1.400 . S
C491 C496 1.490 1_545 S
C492 H482 0.930 . S
C492 C491 1.400 . S
C492 C495 1.386 . S
H493 C509 0.930 . S
H494 C510 0.931 . S
C495 H483 0.929 . S
C495 C489 1.390 . S
C495 C492 1.386 . S
C496 C491 1.490 1_565 S
C496 C498 1.395 . S
C496 C499 1.403 . S
H497 C503 0.930 . S
C498 H484 0.930 1_565 S
C498 C496 1.395 . S
C498 C501 1.403 . S
C499 C496 1.403 . S
C499 C500 1.524 . S
C499 C503 1.400 . S
C500 H485 0.960 . S
C500 H486 0.960 . S
C500 H487 0.960 . S
C500 C499 1.524 . S
C501 C498 1.403 . S
C501 C502 1.392 . S
C501 C505 1.495 . S
C502 C501 1.392 . S
C502 C503 1.385 . S
C502 C504 1.478 . S
C503 H497 0.930 . S
C503 C499 1.400 . S
C503 C502 1.385 . S
C504 C502 1.478 . S
C504 C506 1.381 . S
C504 C510 1.383 . S
C505 C501 1.495 . S
C505 H511 0.959 . S
C505 H512 0.961 . S
C505 H513 0.960 . S
C506 C504 1.381 . S
C506 C507 1.394 . S
C506 H514 0.930 . S
C507 C506 1.394 . S
C507 C508 1.383 . S
C507 H515 0.929 . S
C508 C507 1.383 . S
C508 C509 1.377 . S
C509 H493 0.930 . S
C509 C508 1.377 . S
C509 C510 1.379 . S
C510 H494 0.931 . S
C510 C504 1.383 . S
C510 C509 1.379 . S
H511 C505 0.959 . S
H512 C505 0.961 . S
H513 C505 0.960 . S
H514 C506 0.930 . S
H515 C507 0.929 . S
H516 C524 0.929 . S
H517 C526 0.930 . S
H518 C528 0.930 . S
H519 C531 0.929 . S
H520 C534 0.930 . S
H521 C536 0.960 . S
H522 C536 0.960 . S
H523 C536 0.960 . S
C524 H516 0.929 . S
C524 C525 1.377 . S
C524 C526 1.384 . S
C525 C524 1.377 . S
C525 C531 1.390 . S
C526 H517 0.930 . S
C526 C524 1.384 . S
C526 C527 1.372 . S
C527 C526 1.372 . S
C527 C528 1.400 . S
C527 C532 1.490 . S
C528 H518 0.930 . S
C528 C527 1.400 . S
C528 C531 1.386 . S
H529 C545 0.930 . S
H530 C546 0.931 . S
C531 H519 0.929 . S
C531 C525 1.390 . S
C531 C528 1.386 . S
C532 C527 1.490 . S
C532 C534 1.395 . S
C532 C535 1.403 . S
H533 C539 0.930 . S
C534 H520 0.930 . S
C534 C532 1.395 . S
C534 C537 1.403 . S
C535 C532 1.403 . S
C535 C536 1.524 . S
C535 C539 1.400 . S
C536 H521 0.960 . S
C536 H522 0.960 . S
C536 H523 0.960 . S
C536 C535 1.524 . S
C537 C534 1.403 . S
C537 C538 1.392 . S
C537 C541 1.495 . S
C538 C537 1.392 . S
C538 C539 1.385 . S
C538 C540 1.478 . S
C539 H533 0.930 . S
C539 C535 1.400 . S
C539 C538 1.385 . S
C540 C538 1.478 . S
C540 C542 1.381 . S
C540 C546 1.383 . S
C541 C537 1.495 . S
C541 H547 0.959 . S
C541 H548 0.961 . S
C541 H549 0.960 . S
C542 C540 1.381 . S
C542 C543 1.394 . S
C542 H550 0.930 . S
C543 C542 1.394 . S
C543 C544 1.383 . S
C543 H551 0.929 . S
C544 C543 1.383 . S
C544 C545 1.377 . S
C545 H529 0.930 . S
C545 C544 1.377 . S
C545 C546 1.379 . S
C546 H530 0.931 . S
C546 C540 1.383 . S
C546 C545 1.379 . S
H547 C541 0.959 . S
H548 C541 0.961 . S
H549 C541 0.960 . S
H550 C542 0.930 . S
H551 C543 0.929 . S
H552 C560 0.929 1_554 S
H553 C562 0.930 . S
H554 C564 0.930 . S
H555 C567 0.929 . S
H556 C570 0.930 . S
H557 C572 0.960 . S
H558 C572 0.960 . S
H559 C572 0.960 . S
C560 H552 0.929 1_556 S
C560 C561 1.377 . S
C560 C562 1.384 . S
C561 C560 1.377 . S
C561 C567 1.390 . S
C562 H553 0.930 . S
C562 C560 1.384 . S
C562 C563 1.372 . S
C563 C562 1.372 . S
C563 C564 1.400 . S
C563 C568 1.490 1_565 S
C564 H554 0.930 . S
C564 C563 1.400 . S
C564 C567 1.386 . S
H565 C581 0.930 . S
H566 C582 0.931 . S
C567 H555 0.929 . S
C567 C561 1.390 . S
C567 C564 1.386 . S
C568 C563 1.490 1_545 S
C568 C570 1.395 . S
C568 C571 1.403 . S
H569 C575 0.930 . S
C570 H556 0.930 . S
C570 C568 1.395 . S
C570 C573 1.403 . S
C571 C568 1.403 . S
C571 C572 1.524 . S
C571 C575 1.400 . S
C572 H557 0.960 . S
C572 H558 0.960 . S
C572 H559 0.960 . S
C572 C571 1.524 . S
C573 C570 1.403 . S
C573 C574 1.392 . S
C573 C577 1.495 . S
C574 C573 1.392 . S
C574 C575 1.385 . S
C574 C576 1.478 . S
C575 H569 0.930 . S
C575 C571 1.400 . S
C575 C574 1.385 . S
C576 C574 1.478 . S
C576 C578 1.381 . S
C576 C582 1.383 . S
C577 C573 1.495 . S
C577 H583 0.959 . S
C577 H584 0.961 . S
C577 H585 0.960 . S
C578 C576 1.381 . S
C578 C579 1.394 . S
C578 H586 0.930 . S
C579 C578 1.394 . S
C579 C580 1.383 . S
C579 H587 0.929 . S
C580 C579 1.383 . S
C580 C581 1.377 . S
C581 H565 0.930 . S
C581 C580 1.377 . S
C581 C582 1.379 . S
C582 H566 0.931 . S
C582 C576 1.383 . S
C582 C581 1.379 . S
H583 C577 0.959 . S
H584 C577 0.961 . S
H585 C577 0.960 . S
H586 C578 0.930 . S
H587 C579 0.929 . S
H588 C596 0.929 . S
H589 C598 0.930 . S
H590 C600 0.930 . S
H591 C603 0.929 . S
H592 C606 0.930 . S
H593 C608 0.960 . S
H594 C608 0.960 . S
H595 C608 0.960 . S
C596 H588 0.929 . S
C596 C597 1.377 . S
C596 C598 1.384 . S
C597 C596 1.377 . S
C597 C603 1.390 . S
C598 H589 0.930 . S
C598 C596 1.384 . S
C598 C599 1.372 . S
C599 C598 1.372 . S
C599 C600 1.400 . S
C599 C604 1.490 . S
C600 H590 0.930 . S
C600 C599 1.400 . S
C600 C603 1.386 . S
H601 C617 0.930 . S
H602 C618 0.931 . S
C603 H591 0.929 . S
C603 C597 1.390 . S
C603 C600 1.386 . S
C604 C599 1.490 . S
C604 C606 1.395 . S
C604 C607 1.403 . S
H605 C611 0.930 . S
C606 H592 0.930 . S
C606 C604 1.395 . S
C606 C609 1.403 . S
C607 C604 1.403 . S
C607 C608 1.524 . S
C607 C611 1.400 . S
C608 H593 0.960 . S
C608 H594 0.960 . S
C608 H595 0.960 . S
C608 C607 1.524 . S
C609 C606 1.403 . S
C609 C610 1.392 . S
C609 C613 1.495 . S
C610 C609 1.392 . S
C610 C611 1.385 . S
C610 C612 1.478 . S
C611 H605 0.930 . S
C611 C607 1.400 . S
C611 C610 1.385 . S
C612 C610 1.478 . S
C612 C614 1.381 . S
C612 C618 1.383 . S
C613 C609 1.495 . S
C613 H619 0.959 . S
C613 H620 0.961 . S
C613 H621 0.960 . S
C614 C612 1.381 . S
C614 C615 1.394 . S
C614 H622 0.930 . S
C615 C614 1.394 . S
C615 C616 1.383 . S
C615 H623 0.929 . S
C616 C615 1.383 . S
C616 C617 1.377 . S
C617 H601 0.930 . S
C617 C616 1.377 . S
C617 C618 1.379 . S
C618 H602 0.931 . S
C618 C612 1.383 . S
C618 C617 1.379 . S
H619 C613 0.959 . S
H620 C613 0.961 . S
H621 C613 0.960 . S
H622 C614 0.930 . S
H623 C615 0.929 . S
H624 C632 0.929 . S
H625 C634 0.930 . S
H626 C636 0.930 . S
H627 C639 0.929 . S
H628 C642 0.930 . S
H629 C644 0.960 . S
H630 C644 0.960 . S
H631 C644 0.960 . S
C632 H624 0.929 . S
C632 C633 1.377 . S
C632 C634 1.384 . S
C633 C632 1.377 . S
C633 C639 1.390 . S
C634 H625 0.930 . S
C634 C632 1.384 . S
C634 C635 1.372 . S
C635 C634 1.372 . S
C635 C636 1.400 . S
C635 C640 1.490 . S
C636 H626 0.930 . S
C636 C635 1.400 . S
C636 C639 1.386 . S
H637 C653 0.930 . S
H638 C654 0.931 . S
C639 H627 0.929 . S
C639 C633 1.390 . S
C639 C636 1.386 . S
C640 C635 1.490 . S
C640 C642 1.395 . S
C640 C643 1.403 . S
H641 C647 0.930 . S
C642 H628 0.930 . S
C642 C640 1.395 . S
C642 C645 1.403 . S
C643 C640 1.403 . S
C643 C644 1.524 . S
C643 C647 1.400 . S
C644 H629 0.960 . S
C644 H630 0.960 . S
C644 H631 0.960 . S
C644 C643 1.524 . S
C645 C642 1.403 . S
C645 C646 1.392 . S
C645 C649 1.495 . S
C646 C645 1.392 . S
C646 C647 1.385 . S
C646 C648 1.478 . S
C647 H641 0.930 . S
C647 C643 1.400 . S
C647 C646 1.385 . S
C648 C646 1.478 . S
C648 C650 1.381 . S
C648 C654 1.383 . S
C649 C645 1.495 . S
C649 H655 0.959 . S
C649 H656 0.961 . S
C649 H657 0.960 . S
C650 C648 1.381 . S
C650 C651 1.394 . S
C650 H658 0.930 . S
C651 C650 1.394 . S
C651 C652 1.383 . S
C651 H659 0.929 . S
C652 C651 1.383 . S
C652 C653 1.377 . S
C653 H637 0.930 . S
C653 C652 1.377 . S
C653 C654 1.379 . S
C654 H638 0.931 . S
C654 C648 1.383 . S
C654 C653 1.379 . S
H655 C649 0.959 . S
H656 C649 0.961 . S
H657 C649 0.960 . S
H658 C650 0.930 . S
H659 C651 0.929 . S
H660 C668 0.929 . S
H661 C670 0.930 1_655 S
H662 C672 0.930 . S
H663 C675 0.929 . S
H664 C678 0.930 . S
H665 C680 0.960 . S
H666 C680 0.960 . S
H667 C680 0.957 1_455 S
C668 H660 0.929 . S
C668 C669 1.377 . S
C668 C670 1.384 . S
C669 C668 1.377 . S
C669 C675 1.390 . S
C670 H661 0.930 1_455 S
C670 C668 1.384 . S
C670 C671 1.373 1_455 S
C671 C670 1.373 1_655 S
C671 C672 1.403 1_655 S
C671 C676 1.486 . S
C672 H662 0.930 . S
C672 C671 1.403 1_455 S
C672 C675 1.386 . S
H673 C689 0.930 . S
H674 C690 0.931 . S
C675 H663 0.929 . S
C675 C669 1.390 . S
C675 C672 1.386 . S
C676 C671 1.486 . S
C676 C678 1.395 . S
C676 C679 1.403 . S
H677 C683 0.930 . S
C678 H664 0.930 . S
C678 C676 1.395 . S
C678 C681 1.403 . S
C679 C676 1.403 . S
C679 C680 1.524 . S
C679 C683 1.400 . S
C680 H665 0.960 . S
C680 H666 0.960 . S
C680 H667 0.957 1_655 S
C680 C679 1.524 . S
C681 C678 1.403 . S
C681 C682 1.392 . S
C681 C685 1.495 . S
C682 C681 1.392 . S
C682 C683 1.385 . S
C682 C684 1.478 . S
C683 H677 0.930 . S
C683 C679 1.400 . S
C683 C682 1.385 . S
C684 C682 1.478 . S
C684 C686 1.381 . S
C684 C690 1.383 . S
C685 C681 1.495 . S
C685 H691 0.959 . S
C685 H692 0.961 . S
C685 H693 0.960 . S
C686 C684 1.381 . S
C686 C687 1.394 . S
C686 H694 0.930 . S
C687 C686 1.394 . S
C687 C688 1.383 . S
C687 H695 0.929 . S
C688 C687 1.383 . S
C688 C689 1.377 . S
C689 H673 0.930 . S
C689 C688 1.377 . S
C689 C690 1.379 . S
C690 H674 0.931 . S
C690 C684 1.383 . S
C690 C689 1.379 . S
H691 C685 0.959 . S
H692 C685 0.961 . S
H693 C685 0.960 . S
H694 C686 0.930 . S
H695 C687 0.929 . S
H696 C704 0.929 . S
H697 C706 0.930 . S
H698 C708 0.930 . S
H699 C711 0.929 . S
H700 C714 0.930 . S
H701 C716 0.960 . S
H702 C716 0.960 . S
H703 C716 0.960 . S
C704 H696 0.929 . S
C704 C705 1.377 . S
C704 C706 1.384 . S
C705 C704 1.377 . S
C705 C711 1.390 . S
C706 H697 0.930 . S
C706 C704 1.384 . S
C706 C707 1.372 . S
C707 C706 1.372 . S
C707 C708 1.400 . S
C707 C712 1.490 . S
C708 H698 0.930 . S
C708 C707 1.400 . S
C708 C711 1.386 . S
H709 C725 0.930 . S
H710 C726 0.931 . S
C711 H699 0.929 . S
C711 C705 1.390 . S
C711 C708 1.386 . S
C712 C707 1.490 . S
C712 C714 1.395 . S
C712 C715 1.403 . S
H713 C719 0.930 . S
C714 H700 0.930 . S
C714 C712 1.395 . S
C714 C717 1.403 . S
C715 C712 1.403 . S
C715 C716 1.524 . S
C715 C719 1.400 . S
C716 H701 0.960 . S
C716 H702 0.960 . S
C716 H703 0.960 . S
C716 C715 1.524 . S
C717 C714 1.403 . S
C717 C718 1.392 . S
C717 C721 1.495 . S
C718 C717 1.392 . S
C718 C719 1.385 . S
C718 C720 1.478 . S
C719 H713 0.930 . S
C719 C715 1.400 . S
C719 C718 1.385 . S
C720 C718 1.478 . S
C720 C722 1.381 . S
C720 C726 1.383 . S
C721 C717 1.495 . S
C721 H727 0.959 . S
C721 H728 0.961 . S
C721 H729 0.960 . S
C722 C720 1.381 . S
C722 C723 1.394 . S
C722 H730 0.930 . S
C723 C722 1.394 . S
C723 C724 1.383 . S
C723 H731 0.929 . S
C724 C723 1.383 . S
C724 C725 1.377 . S
C725 H709 0.930 . S
C725 C724 1.377 . S
C725 C726 1.379 . S
C726 H710 0.931 . S
C726 C720 1.383 . S
C726 C725 1.379 . S
H727 C721 0.959 . S
H728 C721 0.961 . S
H729 C721 0.960 . S
H730 C722 0.930 . S
H731 C723 0.929 . S
H732 C740 0.929 . S
H733 C742 0.930 . S
H734 C744 0.930 . S
H735 C747 0.929 . S
H736 C750 0.930 . S
H737 C752 0.960 . S
H738 C752 0.960 . S
H739 C752 0.960 . S
C740 H732 0.929 . S
C740 C741 1.377 . S
C740 C742 1.384 . S
C741 C740 1.377 . S
C741 C747 1.390 . S
C742 H733 0.930 . S
C742 C740 1.384 . S
C742 C743 1.372 . S
C743 C742 1.372 . S
C743 C744 1.400 . S
C743 C748 1.490 . S
C744 H734 0.930 . S
C744 C743 1.400 . S
C744 C747 1.386 . S
H745 C761 0.930 . S
H746 C762 0.931 . S
C747 H735 0.929 . S
C747 C741 1.390 . S
C747 C744 1.386 . S
C748 C743 1.490 . S
C748 C750 1.395 1_655 S
C748 C751 1.403 . S
H749 C755 0.930 . S
C750 H736 0.930 . S
C750 C748 1.395 1_455 S
C750 C753 1.403 . S
C751 C748 1.403 . S
C751 C752 1.524 . S
C751 C755 1.400 1_655 S
C752 H737 0.960 . S
C752 H738 0.960 . S
C752 H739 0.960 . S
C752 C751 1.524 . S
C753 C750 1.403 . S
C753 C754 1.392 . S
C753 C757 1.495 . S
C754 C753 1.392 . S
C754 C755 1.385 . S
C754 C756 1.478 . S
C755 H749 0.930 . S
C755 C751 1.400 1_455 S
C755 C754 1.385 . S
C756 C754 1.478 . S
C756 C758 1.381 . S
C756 C762 1.383 . S
C757 C753 1.495 . S
C757 H763 0.959 . S
C757 H764 0.961 . S
C757 H765 0.960 . S
C758 C756 1.381 . S
C758 C759 1.394 . S
C758 H766 0.930 . S
C759 C758 1.394 . S
C759 C760 1.383 . S
C759 H767 0.929 . S
C760 C759 1.383 . S
C760 C761 1.377 . S
C761 H745 0.930 . S
C761 C760 1.377 . S
C761 C762 1.379 . S
C762 H746 0.931 . S
C762 C756 1.383 . S
C762 C761 1.379 . S
H763 C757 0.959 . S
H764 C757 0.961 . S
H765 C757 0.960 . S
H766 C758 0.930 . S
H767 C759 0.929 . S
H768 C776 0.929 . S
H769 C778 0.930 . S
H770 C780 0.930 . S
H771 C783 0.929 . S
H772 C786 0.930 . S
H773 C788 0.960 . S
H774 C788 0.960 . S
H775 C788 0.960 . S
C776 H768 0.929 . S
C776 C777 1.377 . S
C776 C778 1.384 . S
C777 C776 1.377 . S
C777 C783 1.390 . S
C778 H769 0.930 . S
C778 C776 1.384 . S
C778 C779 1.372 . S
C779 C778 1.372 . S
C779 C780 1.400 . S
C779 C784 1.490 . S
C780 H770 0.930 . S
C780 C779 1.400 . S
C780 C783 1.386 . S
H781 C797 0.930 . S
H782 C798 0.931 . S
C783 H771 0.929 . S
C783 C777 1.390 . S
C783 C780 1.386 . S
C784 C779 1.490 . S
C784 C786 1.395 . S
C784 C787 1.403 . S
H785 C791 0.930 . S
C786 H772 0.930 . S
C786 C784 1.395 . S
C786 C789 1.403 . S
C787 C784 1.403 . S
C787 C788 1.524 . S
C787 C791 1.400 . S
C788 H773 0.960 . S
C788 H774 0.960 . S
C788 H775 0.960 . S
C788 C787 1.524 . S
C789 C786 1.403 . S
C789 C790 1.392 . S
C789 C793 1.495 . S
C790 C789 1.392 . S
C790 C791 1.385 . S
C790 C792 1.478 . S
C791 H785 0.930 . S
C791 C787 1.400 . S
C791 C790 1.385 . S
C792 C790 1.478 . S
C792 C794 1.381 . S
C792 C798 1.383 . S
C793 C789 1.495 . S
C793 H799 0.959 . S
C793 H800 0.961 . S
C793 H801 0.960 . S
C794 C792 1.381 . S
C794 C795 1.394 . S
C794 H802 0.930 . S
C795 C794 1.394 . S
C795 C796 1.383 . S
C795 H803 0.929 . S
C796 C795 1.383 . S
C796 C797 1.377 . S
C797 H781 0.930 . S
C797 C796 1.377 . S
C797 C798 1.379 . S
C798 H782 0.931 . S
C798 C792 1.383 . S
C798 C797 1.379 . S
H799 C793 0.959 . S
H800 C793 0.961 . S
H801 C793 0.960 . S
H802 C794 0.930 . S
H803 C795 0.929 . S
H804 C812 0.929 . S
H805 C814 0.930 . S
H806 C816 0.930 . S
H807 C819 0.929 . S
H808 C822 0.930 . S
H809 C824 0.960 . S
H810 C824 0.960 . S
H811 C824 0.960 . S
C812 H804 0.929 . S
C812 C813 1.377 . S
C812 C814 1.384 . S
C813 C812 1.377 . S
C813 C819 1.390 . S
C814 H805 0.930 . S
C814 C812 1.384 . S
C814 C815 1.372 . S
C815 C814 1.372 . S
C815 C816 1.400 . S
C815 C820 1.490 . S
C816 H806 0.930 . S
C816 C815 1.400 . S
C816 C819 1.386 . S
H817 C833 0.930 . S
H818 C834 0.931 . S
C819 H807 0.929 . S
C819 C813 1.390 . S
C819 C816 1.386 . S
C820 C815 1.490 . S
C820 C822 1.395 . S
C820 C823 1.403 . S
H821 C827 0.930 . S
C822 H808 0.930 . S
C822 C820 1.395 . S
C822 C825 1.403 . S
C823 C820 1.403 . S
C823 C824 1.524 . S
C823 C827 1.400 . S
C824 H809 0.960 . S
C824 H810 0.960 . S
C824 H811 0.960 . S
C824 C823 1.524 . S
C825 C822 1.403 . S
C825 C826 1.392 . S
C825 C829 1.495 . S
C826 C825 1.392 . S
C826 C827 1.385 . S
C826 C828 1.478 . S
C827 H821 0.930 . S
C827 C823 1.400 . S
C827 C826 1.385 . S
C828 C826 1.478 . S
C828 C830 1.381 . S
C828 C834 1.383 . S
C829 C825 1.495 . S
C829 H835 0.959 . S
C829 H836 0.961 . S
C829 H837 0.960 . S
C830 C828 1.381 . S
C830 C831 1.394 . S
C830 H838 0.930 . S
C831 C830 1.394 . S
C831 C832 1.383 . S
C831 H839 0.929 . S
C832 C831 1.383 . S
C832 C833 1.377 . S
C833 H817 0.930 . S
C833 C832 1.377 . S
C833 C834 1.379 . S
C834 H818 0.931 . S
C834 C828 1.383 . S
C834 C833 1.379 . S
H835 C829 0.959 . S
H836 C829 0.961 . S
H837 C829 0.960 . S
H838 C830 0.930 . S
H839 C831 0.929 . S
H840 C848 0.929 . S
H841 C850 0.930 . S
H842 C852 0.930 . S
H843 C855 0.929 . S
H844 C858 0.930 . S
H845 C860 0.960 . S
H846 C860 0.960 . S
H847 C860 0.960 . S
C848 H840 0.929 . S
C848 C849 1.377 . S
C848 C850 1.384 . S
C849 C848 1.377 . S
C849 C855 1.390 . S
C850 H841 0.930 . S
C850 C848 1.384 . S
C850 C851 1.372 . S
C851 C850 1.372 . S
C851 C852 1.400 . S
C851 C856 1.490 . S
C852 H842 0.930 . S
C852 C851 1.400 . S
C852 C855 1.386 . S
H853 C869 0.930 . S
H854 C870 0.931 . S
C855 H843 0.929 . S
C855 C849 1.390 . S
C855 C852 1.386 . S
C856 C851 1.490 . S
C856 C858 1.395 . S
C856 C859 1.403 . S
H857 C863 0.930 . S
C858 H844 0.930 . S
C858 C856 1.395 . S
C858 C861 1.403 . S
C859 C856 1.403 . S
C859 C860 1.524 . S
C859 C863 1.400 . S
C860 H845 0.960 . S
C860 H846 0.960 . S
C860 H847 0.960 . S
C860 C859 1.524 . S
C861 C858 1.403 . S
C861 C862 1.392 . S
C861 C865 1.495 . S
C862 C861 1.392 . S
C862 C863 1.385 . S
C862 C864 1.478 . S
C863 H857 0.930 . S
C863 C859 1.400 . S
C863 C862 1.385 . S
C864 C862 1.478 . S
C864 C866 1.381 . S
C864 C870 1.383 . S
C865 C861 1.495 . S
C865 H871 0.959 . S
C865 H872 0.961 . S
C865 H873 0.960 . S
C866 C864 1.381 . S
C866 C867 1.394 . S
C866 H874 0.930 . S
C867 C866 1.394 . S
C867 C868 1.383 . S
C867 H875 0.929 . S
C868 C867 1.383 . S
C868 C869 1.377 . S
C869 H853 0.930 . S
C869 C868 1.377 . S
C869 C870 1.379 . S
C870 H854 0.931 . S
C870 C864 1.383 . S
C870 C869 1.379 . S
H871 C865 0.959 . S
H872 C865 0.961 . S
H873 C865 0.960 . S
H874 C866 0.930 . S
H875 C867 0.929 . S
H876 C884 0.929 . S
H877 C886 0.930 . S
H878 C888 0.930 . S
H879 C891 0.929 . S
H880 C894 0.930 . S
H881 C896 0.960 . S
H882 C896 0.960 . S
H883 C896 0.960 . S
C884 H876 0.929 . S
C884 C885 1.377 . S
C884 C886 1.384 . S
C885 C884 1.377 . S
C885 C891 1.390 . S
C886 H877 0.930 . S
C886 C884 1.384 . S
C886 C887 1.372 . S
C887 C886 1.372 . S
C887 C888 1.400 . S
C887 C892 1.490 . S
C888 H878 0.930 . S
C888 C887 1.400 . S
C888 C891 1.386 . S
H889 C905 0.930 . S
H890 C906 0.931 . S
C891 H879 0.929 . S
C891 C885 1.390 . S
C891 C888 1.386 . S
C892 C887 1.490 . S
C892 C894 1.395 . S
C892 C895 1.403 . S
H893 C899 0.930 . S
C894 H880 0.930 . S
C894 C892 1.395 . S
C894 C897 1.403 . S
C895 C892 1.403 . S
C895 C896 1.524 . S
C895 C899 1.400 . S
C896 H881 0.960 . S
C896 H882 0.960 . S
C896 H883 0.960 . S
C896 C895 1.524 . S
C897 C894 1.403 . S
C897 C898 1.392 . S
C897 C901 1.495 . S
C898 C897 1.392 . S
C898 C899 1.385 . S
C898 C900 1.478 . S
C899 H893 0.930 . S
C899 C895 1.400 . S
C899 C898 1.385 . S
C900 C898 1.478 . S
C900 C902 1.381 . S
C900 C906 1.383 . S
C901 C897 1.495 . S
C901 H907 0.959 . S
C901 H908 0.961 . S
C901 H909 0.960 . S
C902 C900 1.381 . S
C902 C903 1.394 . S
C902 H910 0.930 . S
C903 C902 1.394 . S
C903 C904 1.383 . S
C903 H911 0.929 . S
C904 C903 1.383 . S
C904 C905 1.377 . S
C905 H889 0.930 . S
C905 C904 1.377 . S
C905 C906 1.379 . S
C906 H890 0.931 . S
C906 C900 1.383 . S
C906 C905 1.379 . S
H907 C901 0.959 . S
H908 C901 0.961 . S
H909 C901 0.960 . S
H910 C902 0.930 . S
H911 C903 0.929 . S
H912 C920 0.929 . S
H913 C922 0.930 . S
H914 C924 0.930 . S
H915 C927 0.929 . S
H916 C930 0.930 . S
H917 C932 0.960 . S
H918 C932 0.960 . S
H919 C932 0.960 . S
C920 H912 0.929 . S
C920 C921 1.377 . S
C920 C922 1.384 . S
C921 C920 1.377 . S
C921 C927 1.390 . S
C922 H913 0.930 . S
C922 C920 1.384 . S
C922 C923 1.372 . S
C923 C922 1.372 . S
C923 C924 1.400 . S
C923 C928 1.490 . S
C924 H914 0.930 . S
C924 C923 1.400 . S
C924 C927 1.386 . S
H925 C941 0.930 . S
H926 C942 0.931 . S
C927 H915 0.929 . S
C927 C921 1.390 . S
C927 C924 1.386 . S
C928 C923 1.490 . S
C928 C930 1.395 . S
C928 C931 1.403 . S
H929 C935 0.930 . S
C930 H916 0.930 . S
C930 C928 1.395 . S
C930 C933 1.403 . S
C931 C928 1.403 . S
C931 C932 1.524 . S
C931 C935 1.400 . S
C932 H917 0.960 . S
C932 H918 0.960 . S
C932 H919 0.960 . S
C932 C931 1.524 . S
C933 C930 1.403 . S
C933 C934 1.392 . S
C933 C937 1.495 . S
C934 C933 1.392 . S
C934 C935 1.385 . S
C934 C936 1.478 . S
C935 H929 0.930 . S
C935 C931 1.400 . S
C935 C934 1.385 . S
C936 C934 1.478 . S
C936 C938 1.381 . S
C936 C942 1.383 . S
C937 C933 1.495 . S
C937 H943 0.959 . S
C937 H944 0.961 . S
C937 H945 0.960 . S
C938 C936 1.381 . S
C938 C939 1.394 . S
C938 H946 0.930 . S
C939 C938 1.394 . S
C939 C940 1.383 . S
C939 H947 0.929 . S
C940 C939 1.383 . S
C940 C941 1.377 . S
C941 H925 0.930 . S
C941 C940 1.377 . S
C941 C942 1.379 . S
C942 H926 0.931 . S
C942 C936 1.383 . S
C942 C941 1.379 . S
H943 C937 0.959 . S
H944 C937 0.961 . S
H945 C937 0.960 . S
H946 C938 0.930 . S
H947 C939 0.929 . S
H948 C956 0.929 . S
H949 C958 0.930 . S
H950 C960 0.930 . S
H951 C963 0.929 . S
H952 C966 0.930 . S
H953 C968 0.960 . S
H954 C968 0.960 . S
H955 C968 0.960 . S
C956 H948 0.929 . S
C956 C957 1.377 . S
C956 C958 1.384 . S
C957 C956 1.377 . S
C957 C963 1.390 . S
C958 H949 0.930 . S
C958 C956 1.384 . S
C958 C959 1.372 . S
C959 C958 1.372 . S
C959 C960 1.400 . S
C959 C964 1.490 . S
C960 H950 0.930 . S
C960 C959 1.400 . S
C960 C963 1.386 . S
H961 C977 0.930 . S
H962 C978 0.931 . S
C963 H951 0.929 . S
C963 C957 1.390 . S
C963 C960 1.386 . S
C964 C959 1.490 . S
C964 C966 1.395 . S
C964 C967 1.403 . S
H965 C971 0.930 . S
C966 H952 0.930 . S
C966 C964 1.395 . S
C966 C969 1.403 . S
C967 C964 1.403 . S
C967 C968 1.524 . S
C967 C971 1.400 . S
C968 H953 0.960 . S
C968 H954 0.960 . S
C968 H955 0.960 . S
C968 C967 1.524 . S
C969 C966 1.403 . S
C969 C970 1.392 . S
C969 C973 1.495 . S
C970 C969 1.392 . S
C970 C971 1.385 . S
C970 C972 1.478 . S
C971 H965 0.930 . S
C971 C967 1.400 . S
C971 C970 1.385 . S
C972 C970 1.478 . S
C972 C974 1.381 . S
C972 C978 1.383 . S
C973 C969 1.495 . S
C973 H979 0.959 . S
C973 H980 0.961 . S
C973 H981 0.960 . S
C974 C972 1.381 . S
C974 C975 1.394 . S
C974 H982 0.930 . S
C975 C974 1.394 . S
C975 C976 1.383 . S
C975 H983 0.929 . S
C976 C975 1.383 . S
C976 C977 1.377 . S
C977 H961 0.930 . S
C977 C976 1.377 . S
C977 C978 1.379 . S
C978 H962 0.931 . S
C978 C972 1.383 . S
C978 C977 1.379 . S
H979 C973 0.959 . S
H980 C973 0.961 . S
H981 C973 0.960 . S
H982 C974 0.930 . S
H983 C975 0.929 . S
H984 C992 0.929 . S
H985 C994 0.930 . S
H986 C996 0.930 . S
H987 C999 0.929 . S
H988 C1002 0.930 . S
H989 C1004 0.960 . S
H990 C1004 0.960 . S
H991 C1004 0.960 . S
C992 H984 0.929 . S
C992 C993 1.377 . S
C992 C994 1.384 . S
C993 C992 1.377 . S
C993 C999 1.390 . S
C994 H985 0.930 . S
C994 C992 1.384 . S
C994 C995 1.372 . S
C995 C994 1.372 . S
C995 C996 1.400 . S
C995 C1000 1.490 . S
C996 H986 0.930 . S
C996 C995 1.400 . S
C996 C999 1.386 . S
H997 C1013 0.930 . S
H998 C1014 0.931 . S
C999 H987 0.929 . S
C999 C993 1.390 . S
C999 C996 1.386 . S
C1000 C995 1.490 . S
C1000 C1002 1.395 . S
C1000 C1003 1.403 . S
H1001 C1007 0.930 . S
C1002 H988 0.930 . S
C1002 C1000 1.395 . S
C1002 C1005 1.403 . S
C1003 C1000 1.403 . S
C1003 C1004 1.524 . S
C1003 C1007 1.400 . S
C1004 H989 0.960 . S
C1004 H990 0.960 . S
C1004 H991 0.960 . S
C1004 C1003 1.524 . S
C1005 C1002 1.403 . S
C1005 C1006 1.392 . S
C1005 C1009 1.495 . S
C1006 C1005 1.392 . S
C1006 C1007 1.385 . S
C1006 C1008 1.478 . S
C1007 H1001 0.930 . S
C1007 C1003 1.400 . S
C1007 C1006 1.385 . S
C1008 C1006 1.478 . S
C1008 C1010 1.381 . S
C1008 C1014 1.383 . S
C1009 C1005 1.495 . S
C1009 H1015 0.959 . S
C1009 H1016 0.961 . S
C1009 H1017 0.960 . S
C1010 C1008 1.381 . S
C1010 C1011 1.394 . S
C1010 H1018 0.930 . S
C1011 C1010 1.394 . S
C1011 C1012 1.383 . S
C1011 H1019 0.929 . S
C1012 C1011 1.383 . S
C1012 C1013 1.377 . S
C1013 H997 0.930 . S
C1013 C1012 1.377 . S
C1013 C1014 1.379 . S
C1014 H998 0.931 . S
C1014 C1008 1.383 . S
C1014 C1013 1.379 . S
H1015 C1009 0.959 . S
H1016 C1009 0.961 . S
H1017 C1009 0.960 . S
H1018 C1010 0.930 . S
H1019 C1011 0.929 . S
H1020 C1028 0.929 1_554 S
H1021 C1030 0.930 . S
H1022 C1032 0.930 . S
H1023 C1035 0.929 . S
H1024 C1038 0.930 . S
H1025 C1040 0.960 . S
H1026 C1040 0.960 . S
H1027 C1040 0.960 . S
C1028 H1020 0.929 1_556 S
C1028 C1029 1.377 . S
C1028 C1030 1.384 . S
C1029 C1028 1.377 . S
C1029 C1035 1.390 . S
C1030 H1021 0.930 . S
C1030 C1028 1.384 . S
C1030 C1031 1.372 . S
C1031 C1030 1.372 . S
C1031 C1032 1.400 . S
C1031 C1036 1.490 . S
C1032 H1022 0.930 . S
C1032 C1031 1.400 . S
C1032 C1035 1.386 . S
H1033 C1049 0.930 . S
H1034 C1050 0.931 . S
C1035 H1023 0.929 . S
C1035 C1029 1.390 . S
C1035 C1032 1.386 . S
C1036 C1031 1.490 . S
C1036 C1038 1.395 . S
C1036 C1039 1.403 . S
H1037 C1043 0.930 . S
C1038 H1024 0.930 . S
C1038 C1036 1.395 . S
C1038 C1041 1.403 . S
C1039 C1036 1.403 . S
C1039 C1040 1.524 . S
C1039 C1043 1.400 . S
C1040 H1025 0.960 . S
C1040 H1026 0.960 . S
C1040 H1027 0.960 . S
C1040 C1039 1.524 . S
C1041 C1038 1.403 . S
C1041 C1042 1.392 . S
C1041 C1045 1.495 . S
C1042 C1041 1.392 . S
C1042 C1043 1.385 . S
C1042 C1044 1.478 . S
C1043 H1037 0.930 . S
C1043 C1039 1.400 . S
C1043 C1042 1.385 . S
C1044 C1042 1.478 . S
C1044 C1046 1.381 . S
C1044 C1050 1.383 . S
C1045 C1041 1.495 . S
C1045 H1051 0.959 . S
C1045 H1052 0.961 . S
C1045 H1053 0.960 . S
C1046 C1044 1.381 . S
C1046 C1047 1.394 . S
C1046 H1054 0.930 . S
C1047 C1046 1.394 . S
C1047 C1048 1.383 . S
C1047 H1055 0.929 . S
C1048 C1047 1.383 . S
C1048 C1049 1.377 . S
C1049 H1033 0.930 . S
C1049 C1048 1.377 . S
C1049 C1050 1.379 . S
C1050 H1034 0.931 . S
C1050 C1044 1.383 . S
C1050 C1049 1.379 . S
H1051 C1045 0.959 . S
H1052 C1045 0.961 . S
H1053 C1045 0.960 . S
H1054 C1046 0.930 . S
H1055 C1047 0.929 . S
C201 C7 1.316 . S
C220 N93 1.312 . S
C237 C37 1.229 . S
C256 N106 1.219 . S
C273 C54 1.212 . S
C292 N115 1.219 . S
C328 N132 1.342 . S
C309 C87 1.327 . S
C364 N145 1.280 . S
C345 C30 1.280 . S
C381 C51 1.337 . S
C400 N154 1.351 . S
C417 C84 1.260 . S
C436 N167 1.268 . S
C453 C10 1.194 . S
C472 N184 1.180 . S
C489 C59 1.334 . S
C508 N180 1.353 . S
C544 N141 1.200 . S
C525 C74 1.197 . S
C580 N158 1.260 . S
C561 C18 1.246 . S
C597 C32 1.324 . S
C616 N171 1.332 . S
C652 N102 1.335 . S
C633 C73 1.326 . S
C669 C15 1.329 . S
C688 N119 1.352 . S
C724 N128 1.277 . S
C705 C43 1.287 . S
C760 N89 1.187 . S
C741 C62 1.190 . S
C796 N168 1.355 . S
C777 C21 1.363 . S
C832 N181 1.341 . S
C813 C29 1.334 . S
C849 C52 1.300 . S
C868 N142 1.303 . S
C904 N155 1.343 . S
C885 C81 1.348 . S
C940 N116 1.315 . S
C921 C40 1.324 . S
C957 C65 1.364 . S
C976 N129 1.349 . S
C1012 N90 1.307 . S
C993 C76 1.304 . S
C1048 N103 1.340 . S
C1029 C8 1.347 . S
