# Generated by pormake.
# Topology ftw, (4,12)-cn, num edge types: 1
# Building blocks:
#     Node 0, Type 0, BuildingBlock: NAHDIM_clean_linker_0, # of connection points: 4
#     Node 1, Type 0, BuildingBlock: NAHDIM_clean_linker_0, # of connection points: 4
#     Node 2, Type 0, BuildingBlock: NAHDIM_clean_linker_0, # of connection points: 4
#     Node 3, Type 1, BuildingBlock: QEWDON_clean_sbu_0, # of connection points: 12
#     Edge 4, Type (0, 1), BuildingBlock: FUNLAD_clean_linker_1, # of connection points: 2
#     Edge 5, Type (0, 1), BuildingBlock: FUNLAD_clean_linker_1, # of connection points: 2
#     Edge 6, Type (0, 1), BuildingBlock: FUNLAD_clean_linker_1, # of connection points: 2
#     Edge 7, Type (0, 1), BuildingBlock: FUNLAD_clean_linker_1, # of connection points: 2
#     Edge 8, Type (0, 1), BuildingBlock: FUNLAD_clean_linker_1, # of connection points: 2
#     Edge 9, Type (0, 1), BuildingBlock: FUNLAD_clean_linker_1, # of connection points: 2
#     Edge 10, Type (0, 1), BuildingBlock: FUNLAD_clean_linker_1, # of connection points: 2
#     Edge 11, Type (0, 1), BuildingBlock: FUNLAD_clean_linker_1, # of connection points: 2
#     Edge 12, Type (0, 1), BuildingBlock: FUNLAD_clean_linker_1, # of connection points: 2
#     Edge 13, Type (0, 1), BuildingBlock: FUNLAD_clean_linker_1, # of connection points: 2
#     Edge 14, Type (0, 1), BuildingBlock: FUNLAD_clean_linker_1, # of connection points: 2
#     Edge 15, Type (0, 1), BuildingBlock: FUNLAD_clean_linker_1, # of connection points: 2
# Relax obj value: 0.036
# Max RMSD: 0.107
# Mean RMSD: 0.084
data_MOF--net-ftw--node1-QEWDON_clean_sbu_0--node2-NAHDIM_clean_linker_0--edge1-FUNLAD_clean_linker_1
_symmetry_space_group_name_H-M    P1
_symmetry_Int_Tables_number       1
_symmetry_cell_setting            triclinic
loop_
_symmetry_equiv_pos_as_xyz
'x, y, z'
_cell_length_a     33.171901
_cell_length_b     32.620909
_cell_length_c     34.112703
_cell_angle_alpha  90.375495
_cell_angle_beta   89.588084
_cell_angle_gamma 89.518903
loop_
_atom_site_label
_atom_site_type_symbol
_atom_site_fract_x
_atom_site_fract_y
_atom_site_fract_z
_atom_type_partial_charge
C0 C 0.89691 0.67799 0.26104 0.0
C1 C 0.91438 0.71169 0.28756 0.0
C2 C 0.96158 0.66985 0.32665 0.0
C3 C 0.93225 0.64746 0.34715 0.0
C4 C 0.94315 0.61339 0.36989 0.0
C5 C 0.9844 0.60258 0.3737 0.0
C6 C 0.01412 0.6267 0.3551 0.0
C7 C 0.00224 0.6598 0.3316 0.0
C8 C 0.91041 0.58823 0.38878 0.0
C9 C 0.05842 0.61691 0.3592 0.0
C10 C 0.12055 0.39781 0.2392 0.0
C11 C 0.09947 0.36229 0.2602 0.0
C12 C 0.05167 0.40022 0.3034 0.0
C13 C 0.08049 0.418 0.32814 0.0
C14 C 0.06906 0.44746 0.35647 0.0
C15 C 0.02779 0.45809 0.36127 0.0
C16 C 0.99854 0.43837 0.33795 0.0
C17 C 0.01096 0.41 0.30912 0.0
C18 C 0.10129 0.46814 0.38036 0.0
C19 C 0.9542 0.448 0.34274 0.0
C20 C 0.02968 0.3646 0.61735 0.0
C21 C 0.06267 0.38694 0.60284 0.0
C22 C 0.05668 0.42325 0.58162 0.0
C23 C 0.01699 0.43709 0.57396 0.0
C24 C 0.98378 0.41404 0.58747 0.0
C25 C 0.99062 0.37819 0.60907 0.0
C26 C 0.09281 0.44717 0.56783 0.0
C27 C 0.94104 0.42762 0.57955 0.0
C28 C 0.91666 0.72273 0.66875 0.0
C29 C 0.94692 0.695 0.68977 0.0
C30 C 0.98109 0.65225 0.6394 0.0
C31 C 0.01848 0.64399 0.62186 0.0
C32 C 0.02388 0.61083 0.59589 0.0
C33 C 0.99067 0.5857 0.58665 0.0
C34 C 0.9525 0.59418 0.6038 0.0
C35 C 0.94808 0.62727 0.63014 0.0
C36 C 0.06516 0.60245 0.5786 0.0
C37 C 0.91642 0.56817 0.59433 0.0
C38 C 0.99615 0.56427 0.39437 0.0
C39 C 0.00642 0.5301 0.37133 0.0
C40 C 0.01556 0.4922 0.38816 0.0
C41 C 0.01343 0.48779 0.42937 0.0
C42 C 0.0198 0.44961 0.44729 0.0
C43 C 0.01826 0.44576 0.48792 0.0
C44 C 0.01078 0.48004 0.5122 0.0
C45 C 0.01012 0.47666 0.55355 0.0
C46 C 0.00312 0.51155 0.57673 0.0
C47 C 0.99626 0.5499 0.55989 0.0
C48 C 0.996 0.55376 0.5186 0.0
C49 C 0.9884 0.5917 0.50061 0.0
C50 C 0.98849 0.59526 0.45996 0.0
C51 C 0.99626 0.56104 0.43572 0.0
C52 C 0.00445 0.52253 0.45323 0.0
C53 C 0.00371 0.51876 0.49471 0.0
C54 C 0.08801 0.28361 0.62362 0.0
C55 C 0.06928 0.31326 0.65375 0.0
O56 O 0.95222 0.70055 0.30128 0.0
O57 O 0.97844 0.68468 0.66462 0.0
O58 O 0.03387 0.33013 0.63936 0.0
O59 O 0.06147 0.37442 0.27321 0.0
H60 H 0.89359 0.71765 0.3127 0.0
H61 H 0.89059 0.64976 0.27779 0.0
H62 H 0.91837 0.66995 0.23699 0.0
H63 H 0.86804 0.68856 0.24805 0.0
H64 H 0.90072 0.65573 0.34491 0.0
H65 H 0.02478 0.67757 0.31624 0.0
H66 H 0.9148 0.55524 0.38157 0.0
H67 H 0.87981 0.5978 0.37923 0.0
H68 H 0.91195 0.59161 0.42111 0.0
H69 H 0.07769 0.64233 0.34869 0.0
H70 H 0.0659 0.589 0.34174 0.0
H71 H 0.06577 0.61046 0.39028 0.0
H72 H 0.11813 0.35163 0.28518 0.0
H73 H 0.15022 0.3875 0.22738 0.0
H74 H 0.12598 0.4238 0.25951 0.0
H75 H 0.10181 0.40912 0.21458 0.0
H76 H 0.11201 0.40983 0.32498 0.0
H77 H 0.98884 0.39574 0.2903 0.0
H78 H 0.09816 0.45921 0.41154 0.0
H79 H 0.09773 0.50198 0.37886 0.0
H80 H 0.13216 0.4597 0.37017 0.0
H81 H 0.93508 0.42519 0.32748 0.0
H82 H 0.9477 0.4787 0.33033 0.0
H83 H 0.94568 0.44888 0.37429 0.0
H84 H 0.09132 0.33768 0.66068 0.0
H85 H 0.09318 0.37654 0.60799 0.0
H86 H 0.96533 0.3607 0.62002 0.0
H87 H 0.0931 0.44845 0.53532 0.0
H88 H 0.12172 0.43339 0.57769 0.0
H89 H 0.09077 0.47919 0.57897 0.0
H90 H 0.91865 0.40435 0.5887 0.0
H91 H 0.9372 0.43388 0.54782 0.0
H92 H 0.93458 0.45659 0.59575 0.0
H93 H 0.93163 0.66691 0.70046 0.0
H94 H 0.89131 0.73111 0.68879 0.0
H95 H 0.90405 0.70665 0.64289 0.0
H96 H 0.93152 0.7512 0.65858 0.0
H97 H 0.04373 0.66347 0.62904 0.0
H98 H 0.91878 0.63349 0.64305 0.0
H99 H 0.06416 0.60607 0.54629 0.0
H100 H 0.07446 0.57034 0.58464 0.0
H101 H 0.08834 0.62344 0.5905 0.0
H102 H 0.88812 0.58068 0.60749 0.0
H103 H 0.92138 0.53667 0.60555 0.0
H104 H 0.9127 0.56583 0.56207 0.0
H105 H 0.00714 0.53301 0.33965 0.0
H106 H 0.02595 0.42226 0.43004 0.0
H107 H 0.02337 0.4156 0.50009 0.0
H108 H 0.00325 0.50884 0.60842 0.0
H109 H 0.9822 0.61908 0.5178 0.0
H110 H 0.98258 0.62523 0.44772 0.0
H111 H 0.11599 0.26959 0.63545 0.0
H112 H 0.09591 0.30029 0.5964 0.0
H113 H 0.06654 0.25889 0.616 0.0
C114 C 0.75467 0.08817 0.62042 0.0
C115 C 0.73294 0.05828 0.64757 0.0
C116 C 0.6809 0.02327 0.6087 0.0
C117 C 0.6695 0.98519 0.5937 0.0
C118 C 0.6318 0.97969 0.57614 0.0
C119 C 0.60497 0.01344 0.573 0.0
C120 C 0.61649 0.05233 0.58748 0.0
C121 C 0.65433 0.0569 0.60524 0.0
C122 C 0.62046 0.93766 0.56134 0.0
C123 C 0.58872 0.089 0.58424 0.0
C124 C 0.32958 0.91584 0.68084 0.0
C125 C 0.3598 0.94172 0.70379 0.0
C126 C 0.40015 0.97776 0.65394 0.0
C127 C 0.40774 0.01599 0.63737 0.0
C128 C 0.43767 0.02083 0.60853 0.0
C129 C 0.46059 0.9864 0.59588 0.0
C130 C 0.45283 0.94743 0.61209 0.0
C131 C 0.42261 0.94342 0.64087 0.0
C132 C 0.44513 0.06284 0.59184 0.0
C133 C 0.47673 0.91011 0.59914 0.0
C134 C 0.35807 0.93661 0.3545 0.0
C135 C 0.36391 0.97855 0.362 0.0
C136 C 0.40049 0.99265 0.37743 0.0
C137 C 0.43184 0.96426 0.38539 0.0
C138 C 0.42644 0.9222 0.37667 0.0
C139 C 0.3897 0.90901 0.36097 0.0
C140 C 0.40567 0.03784 0.38537 0.0
C141 C 0.45935 0.89114 0.38434 0.0
C142 C 0.70758 0.09633 0.30479 0.0
C143 C 0.7011 0.05152 0.29263 0.0
C144 C 0.63213 0.0349 0.30933 0.0
C145 C 0.59946 0.06108 0.31674 0.0
C146 C 0.56924 0.05042 0.34371 0.0
C147 C 0.5712 0.01188 0.36256 0.0
C148 C 0.60349 0.98451 0.35377 0.0
C149 C 0.63399 0.99664 0.32761 0.0
C150 C 0.53538 0.08045 0.35217 0.0
C151 C 0.60577 0.9425 0.37192 0.0
C152 C 0.56444 0.00752 0.55561 0.0
C153 C 0.5321 0.00046 0.58109 0.0
C154 C 0.49371 0.99161 0.56684 0.0
C155 C 0.48747 0.98843 0.52594 0.0
C156 C 0.44984 0.97737 0.51058 0.0
C157 C 0.44423 0.97374 0.47028 0.0
C158 C 0.47578 0.98192 0.44375 0.0
C159 C 0.47036 0.97844 0.40274 0.0
C160 C 0.50214 0.98783 0.37726 0.0
C161 C 0.5395 0.00054 0.3915 0.0
C162 C 0.54577 0.00323 0.43244 0.0
C163 C 0.5831 0.01527 0.44791 0.0
C164 C 0.58937 0.01649 0.48819 0.0
C165 C 0.55821 0.0069 0.51463 0.0
C166 C 0.5198 0.99646 0.49975 0.0
C167 C 0.51377 0.99386 0.45861 0.0
C168 C 0.25934 0.90271 0.36788 0.0
C169 C 0.28448 0.93679 0.34947 0.0
O170 O 0.71769 0.02591 0.62593 0.0
O171 O 0.66086 0.04651 0.28337 0.0
O172 O 0.32272 0.92177 0.34058 0.0
O173 O 0.37104 0.97568 0.68221 0.0
H174 H 0.70822 0.07454 0.66371 0.0
H175 H 0.7334 0.10072 0.59849 0.0
H176 H 0.77982 0.07241 0.60457 0.0
H177 H 0.76696 0.11421 0.63762 0.0
H178 H 0.69021 0.95949 0.59628 0.0
H179 H 0.66285 0.0868 0.61606 0.0
H180 H 0.59147 0.92815 0.57483 0.0
H181 H 0.64384 0.91414 0.56788 0.0
H182 H 0.61608 0.93863 0.52912 0.0
H183 H 0.6032 0.11779 0.59421 0.0
H184 H 0.56125 0.08395 0.6023 0.0
H185 H 0.57898 0.09274 0.55338 0.0
H186 H 0.38665 0.92265 0.71095 0.0
H187 H 0.32018 0.88896 0.69843 0.0
H188 H 0.34347 0.90436 0.65315 0.0
H189 H 0.30243 0.93433 0.67343 0.0
H190 H 0.39022 0.04227 0.64742 0.0
H191 H 0.41694 0.91342 0.65287 0.0
H192 H 0.44176 0.06191 0.55948 0.0
H193 H 0.47653 0.07224 0.59816 0.0
H194 H 0.42409 0.08637 0.60411 0.0
H195 H 0.46648 0.88173 0.61388 0.0
H196 H 0.50913 0.91469 0.60567 0.0
H197 H 0.47403 0.9059 0.56695 0.0
H198 H 0.28566 0.96186 0.3717 0.0
H199 H 0.34016 0.00037 0.35546 0.0
H200 H 0.38515 0.87682 0.35449 0.0
H201 H 0.41098 0.04294 0.41712 0.0
H202 H 0.37892 0.05618 0.37651 0.0
H203 H 0.43254 0.04917 0.36929 0.0
H204 H 0.45016 0.85943 0.37668 0.0
H205 H 0.46775 0.89214 0.41579 0.0
H206 H 0.48664 0.89892 0.36697 0.0
H207 H 0.7099 0.03128 0.31737 0.0
H208 H 0.73888 0.10118 0.31502 0.0
H209 H 0.68688 0.10458 0.32939 0.0
H210 H 0.70135 0.11714 0.27984 0.0
H211 H 0.5982 0.09036 0.30194 0.0
H212 H 0.65896 0.97609 0.32084 0.0
H213 H 0.53151 0.08477 0.3843 0.0
H214 H 0.50676 0.06804 0.34055 0.0
H215 H 0.54074 0.1108 0.33857 0.0
H216 H 0.629 0.92273 0.35748 0.0
H217 H 0.57612 0.92707 0.37003 0.0
H218 H 0.61342 0.94549 0.40341 0.0
H219 H 0.53692 0.00165 0.61251 0.0
H220 H 0.42443 0.97091 0.52959 0.0
H221 H 0.41473 0.96466 0.46017 0.0
H222 H 0.49766 0.9854 0.34585 0.0
H223 H 0.60811 0.02339 0.42904 0.0
H224 H 0.6189 0.02537 0.4984 0.0
H225 H 0.22822 0.91391 0.37424 0.0
H226 H 0.27324 0.89299 0.39588 0.0
H227 H 0.25786 0.87556 0.34813 0.0
C228 C 0.73664 0.58845 0.92634 0.0
C229 C 0.72288 0.6262 0.94987 0.0
C230 C 0.68006 0.60811 0.00634 0.0
C231 C 0.67854 0.60847 0.04727 0.0
C232 C 0.64228 0.60175 0.06759 0.0
C233 C 0.60657 0.59456 0.0463 0.0
C234 C 0.60795 0.59334 0.00483 0.0
C235 C 0.64477 0.59962 0.98526 0.0
C236 C 0.64209 0.60269 0.11181 0.0
C237 C 0.57046 0.58556 0.9812 0.0
C238 C 0.38277 0.81217 0.18063 0.0
C239 C 0.39255 0.77637 0.15284 0.0
C240 C 0.45053 0.72931 0.14516 0.0
C241 C 0.44125 0.71464 0.1075 0.0
C242 C 0.46083 0.67976 0.09193 0.0
C243 C 0.49026 0.65921 0.1145 0.0
C244 C 0.50061 0.67478 0.15189 0.0
C245 C 0.48077 0.70985 0.16656 0.0
C246 C 0.44966 0.66443 0.05167 0.0
C247 C 0.53206 0.65385 0.17666 0.0
C248 C 0.33184 0.44703 0.19089 0.0
C249 C 0.33286 0.44939 0.14973 0.0
C250 C 0.36953 0.45496 0.1296 0.0
C251 C 0.40577 0.45826 0.15099 0.0
C252 C 0.40478 0.45576 0.19236 0.0
C253 C 0.3678 0.45007 0.21171 0.0
C254 C 0.36963 0.45727 0.08544 0.0
C255 C 0.44281 0.45906 0.21613 0.0
C256 C 0.55603 0.23195 0.04096 0.0
C257 C 0.59388 0.25851 0.04297 0.0
C258 C 0.57119 0.31973 0.08007 0.0
C259 C 0.54687 0.33661 0.05049 0.0
C260 C 0.52506 0.37317 0.05707 0.0
C261 C 0.52791 0.39346 0.09371 0.0
C262 C 0.55269 0.37681 0.1233 0.0
C263 C 0.57389 0.34012 0.11606 0.0
C264 C 0.49887 0.39016 0.02493 0.0
C265 C 0.55658 0.39767 0.16268 0.0
C266 C 0.56767 0.58885 0.06736 0.0
C267 C 0.5464 0.62389 0.07964 0.0
C268 C 0.50963 0.62087 0.09965 0.0
C269 C 0.4929 0.58184 0.10685 0.0
C270 C 0.45548 0.57768 0.126 0.0
C271 C 0.43944 0.53914 0.13327 0.0
C272 C 0.46048 0.50325 0.12218 0.0
C273 C 0.44484 0.46393 0.13019 0.0
C274 C 0.46712 0.42891 0.11974 0.0
C275 C 0.5048 0.43193 0.10139 0.0
C276 C 0.52055 0.47095 0.0924 0.0
C277 C 0.55813 0.47511 0.07354 0.0
C278 C 0.57351 0.51364 0.06508 0.0
C279 C 0.55212 0.54953 0.07551 0.0
C280 C 0.51438 0.54606 0.09494 0.0
C281 C 0.49836 0.50672 0.10299 0.0
C282 C 0.22945 0.44962 0.23238 0.0
C283 C 0.25811 0.44129 0.19781 0.0
O284 O 0.71609 0.61585 0.98869 0.0
O285 O 0.59218 0.28394 0.07561 0.0
O286 O 0.29723 0.44139 0.21175 0.0
O287 O 0.43047 0.76133 0.16235 0.0
H288 H 0.69512 0.63889 0.9363 0.0
H289 H 0.71243 0.56515 0.92639 0.0
H290 H 0.76412 0.57453 0.93929 0.0
H291 H 0.74314 0.59697 0.89546 0.0
H292 H 0.70595 0.61455 0.06333 0.0
H293 H 0.64562 0.59765 0.95361 0.0
H294 H 0.62446 0.62973 0.12227 0.0
H295 H 0.67299 0.60453 0.12403 0.0
H296 H 0.62723 0.57487 0.12345 0.0
H297 H 0.57599 0.58814 0.94915 0.0
H298 H 0.54637 0.60775 0.98987 0.0
H299 H 0.55913 0.55434 0.98744 0.0
H300 H 0.39319 0.78835 0.12245 0.0
H301 H 0.3548 0.82834 0.1718 0.0
H302 H 0.40762 0.83477 0.17977 0.0
H303 H 0.37928 0.80121 0.21125 0.0
H304 H 0.41879 0.73022 0.09021 0.0
H305 H 0.48798 0.7216 0.19544 0.0
H306 H 0.43661 0.6333 0.05399 0.0
H307 H 0.4771 0.6619 0.03293 0.0
H308 H 0.42745 0.68485 0.0371 0.0
H309 H 0.53629 0.66952 0.20534 0.0
H310 H 0.56134 0.65317 0.16071 0.0
H311 H 0.52324 0.62161 0.18206 0.0
H312 H 0.25384 0.46644 0.17629 0.0
H313 H 0.30534 0.44663 0.13313 0.0
H314 H 0.36676 0.44805 0.2434 0.0
H315 H 0.38238 0.48703 0.07604 0.0
H316 H 0.33894 0.45417 0.07299 0.0
H317 H 0.38927 0.4326 0.07305 0.0
H318 H 0.43683 0.45739 0.24817 0.0
H319 H 0.45802 0.48847 0.2097 0.0
H320 H 0.46394 0.43389 0.20772 0.0
H321 H 0.5963 0.27684 0.01565 0.0
H322 H 0.55797 0.21078 0.01535 0.0
H323 H 0.52867 0.25136 0.03762 0.0
H324 H 0.55263 0.21365 0.06814 0.0
H325 H 0.54443 0.32145 0.02235 0.0
H326 H 0.5927 0.32698 0.13867 0.0
H327 H 0.50961 0.42107 0.0166 0.0
H328 H 0.46736 0.39367 0.03575 0.0
H329 H 0.499 0.37025 0.99839 0.0
H330 H 0.57878 0.382 0.18181 0.0
H331 H 0.52683 0.39812 0.17779 0.0
H332 H 0.56596 0.42999 0.1587 0.0
H333 H 0.55888 0.65394 0.07399 0.0
H334 H 0.43806 0.60419 0.13549 0.0
H335 H 0.41046 0.53785 0.14798 0.0
H336 H 0.45529 0.39887 0.12664 0.0
H337 H 0.57605 0.44858 0.06501 0.0
H338 H 0.60256 0.51494 0.05049 0.0
H339 H 0.23126 0.42442 0.2541 0.0
H340 H 0.19786 0.45266 0.22216 0.0
H341 H 0.23771 0.47879 0.24713 0.0
Zn342 Zn 0.16395 0.10967 0.00832 0.0
Zn343 Zn 0.09379 0.09729 0.06903 0.0
O344 O 0.11114 0.07918 0.01554 0.0
H345 H 0.1016 0.05582 1.00083 0.0
C346 C 0.9858 0.13404 0.89332 0.0
O347 O 0.0007 0.15274 0.92415 0.0
Zn348 Zn 0.96107 0.9297 0.03226 0.0
Zn349 Zn 0.95176 0.93431 0.93781 0.0
O350 O 0.96675 0.96721 0.98621 0.0
H351 H 0.98172 0.99249 0.98605 0.0
Zn352 Zn 0.94371 0.08699 0.95414 0.0
O353 O 0.9829 0.08536 0.99985 0.0
Zn354 Zn 0.94582 0.07706 0.0461 0.0
H355 H 0.0108 0.07679 0.99784 0.0
Zn356 Zn 0.09809 0.89272 0.9797 0.0
O357 O 0.07743 0.94691 0.00102 0.0
H358 H 0.0666 0.96994 0.98673 0.0
Zn359 Zn 0.1039 0.94714 0.05341 0.0
C360 C 0.03641 0.83662 0.94948 0.0
O361 O 0.02692 0.8341 0.9868 0.0
O362 O 0.16886 0.16293 0.04146 0.0
O363 O 0.11568 0.1541 0.08062 0.0
O364 O 0.93256 0.87604 0.95017 0.0
O365 O 0.94148 0.87342 0.01485 0.0
O366 O 0.88794 0.10859 0.97072 0.0
O367 O 0.89061 0.10367 0.03578 0.0
C368 C 0.12181 0.02072 0.10211 0.0
O369 O 0.14978 0.8705 0.00558 0.0
O370 O 0.1585 0.91791 0.0521 0.0
O371 O 0.92518 0.96339 0.89047 0.0
C372 C 0.14537 0.17546 0.06889 0.0
O373 O 0.1973 0.10055 0.95699 0.0
C374 C 0.91844 0.99358 0.07434 0.0
O375 O 0.96206 0.10415 0.89815 0.0
C376 C 0.93098 0.85685 0.98253 0.0
O377 O 0.06558 0.85916 0.93895 0.0
C378 C 0.00814 0.10895 0.09771 0.0
O379 O 0.11904 0.0591 0.10837 0.0
O380 O 0.10677 0.00606 0.07097 0.0
C381 C 0.87219 0.11395 0.00448 0.0
O382 O 0.92146 0.95488 0.07075 0.0
O383 O 0.9405 0.01588 0.05274 0.0
C384 C 0.03269 0.90977 0.08674 0.0
O385 O 0.97043 0.10347 0.09413 0.0
O386 O 0.0323 0.09492 0.07162 0.0
C387 C 0.17054 0.8861 0.03312 0.0
O388 O 0.0701 0.9155 0.09161 0.0
O389 O 0.01592 0.92575 0.057 0.0
C390 C 0.90611 0.99707 0.89491 0.0
O391 O 0.90407 0.01426 0.92976 0.0
C392 C 0.20422 0.06404 0.94549 0.0
O393 O 0.19066 0.03336 0.96646 0.0
H394 H 0.10054 0.33156 0.20086 0.0
C395 C 0.09443 0.3269 0.23192 0.0
H396 H 0.07211 0.28577 0.27416 0.0
H397 H 0.98956 0.22491 0.10611 0.0
H398 H 0.95232 0.289 0.10974 0.0
H399 H 0.96606 0.33957 0.16191 0.0
H400 H 0.01728 0.32645 0.2105 0.0
C401 C 0.07831 0.29123 0.24331 0.0
C402 C 0.06735 0.25912 0.21406 0.0
C403 C 0.03667 0.267 0.18623 0.0
C404 C 0.02818 0.23749 0.15663 0.0
C405 C 0.9975 0.24627 0.12912 0.0
C406 C 0.9757 0.2829 0.13095 0.0
C407 C 0.98348 0.31138 0.16027 0.0
C408 C 0.01335 0.30361 0.18778 0.0
H409 H 0.01366 0.12603 0.16022 0.0
C410 C 0.02265 0.13397 0.13055 0.0
H411 H 0.04511 0.17969 0.09353 0.0
H412 H 0.12448 0.23252 0.26561 0.0
H413 H 0.15988 0.16709 0.26364 0.0
H414 H 0.14694 0.11686 0.21093 0.0
H415 H 0.09758 0.1311 0.1607 0.0
C416 C 0.04095 0.16972 0.12362 0.0
C417 C 0.04961 0.1997 0.15547 0.0
C418 C 0.07934 0.19123 0.18405 0.0
C419 C 0.08774 0.22075 0.21376 0.0
C420 C 0.11703 0.21126 0.24234 0.0
C421 C 0.13762 0.17386 0.2415 0.0
C422 C 0.13032 0.14556 0.21184 0.0
C423 C 0.10171 0.15405 0.18328 0.0
H424 H 0.71183 0.02735 0.23167 0.0
C425 C 0.72667 0.0399 0.25736 0.0
H426 H 0.78231 0.05411 0.28336 0.0
H427 H 0.89485 0.94353 0.17813 0.0
H428 H 0.90157 0.91191 0.24184 0.0
H429 H 0.85933 0.93441 0.29765 0.0
H430 H 0.8093 0.98815 0.29012 0.0
C431 C 0.76706 0.0436 0.25713 0.0
C432 C 0.79235 0.03035 0.22289 0.0
C433 C 0.82173 0.999 0.22781 0.0
C434 C 0.84582 0.98566 0.19539 0.0
C435 C 0.87517 0.95449 0.20142 0.0
C436 C 0.87965 0.93621 0.23793 0.0
C437 C 0.85576 0.94882 0.26938 0.0
C438 C 0.82719 0.97984 0.26461 0.0
H439 H 0.89187 0.04428 0.11 0.0
C440 C 0.89045 0.01161 0.10381 0.0
H441 H 0.86388 0.95501 0.11801 0.0
H442 H 0.74315 0.09534 0.2039 0.0
H443 H 0.72881 0.11958 0.13842 0.0
H444 H 0.76278 0.08854 0.081 0.0
H445 H 0.81443 0.03636 0.08858 0.0
C446 C 0.8647 0.98776 0.12401 0.0
C447 C 0.84001 0.00314 0.15781 0.0
C448 C 0.80949 0.03329 0.15256 0.0
C449 C 0.7869 0.0482 0.18541 0.0
C450 C 0.75909 0.08079 0.17975 0.0
C451 C 0.75087 0.09534 0.14236 0.0
C452 C 0.77042 0.07828 0.11001 0.0
C453 C 0.79995 0.0482 0.11485 0.0
H454 H 0.89512 0.77497 0.26967 0.0
C455 C 0.91757 0.75103 0.26456 0.0
H456 H 0.96549 0.73017 0.22865 0.0
H457 H 0.92305 0.82918 0.07871 0.0
H458 H 0.88815 0.76563 0.06367 0.0
H459 H 0.87884 0.71292 0.11394 0.0
H460 H 0.9036 0.72317 0.18001 0.0
C461 C 0.94461 0.75514 0.23534 0.0
C462 C 0.94343 0.7902 0.20766 0.0
C463 C 0.92885 0.78389 0.16917 0.0
C464 C 0.93443 0.81443 0.14006 0.0
C465 C 0.91989 0.80697 0.10181 0.0
C466 C 0.89981 0.77075 0.09278 0.0
C467 C 0.89443 0.74097 0.12117 0.0
C468 C 0.90888 0.7472 0.15892 0.0
H469 H 0.03057 0.87089 0.1384 0.0
C470 C 0.01154 0.8845 0.11604 0.0
H471 H 0.95208 0.88927 0.0951 0.0
H472 H 0.96927 0.81456 0.28014 0.0
H473 H 0.99475 0.88178 0.29768 0.0
H474 H 0.99977 0.93642 0.24822 0.0
H475 H 0.98073 0.92366 0.18056 0.0
C476 C 0.97169 0.87757 0.11767 0.0
C477 C 0.95504 0.85105 0.14956 0.0
C478 C 0.96418 0.85963 0.18942 0.0
C479 C 0.95935 0.82879 0.21834 0.0
C480 C 0.9714 0.83723 0.25725 0.0
C481 C 0.98609 0.87566 0.26769 0.0
C482 C 0.98913 0.90637 0.2398 0.0
C483 C 0.97845 0.89858 0.20106 0.0
H484 H 0.2548 0.98547 0.31374 0.0
C485 C 0.26459 0.95357 0.31322 0.0
H486 H 0.26542 0.89809 0.28072 0.0
H487 H 0.10577 0.96572 0.19511 0.0
H488 H 0.07499 0.92161 0.2435 0.0
H489 H 0.11575 0.88915 0.29504 0.0
H490 H 0.18794 0.9003 0.29826 0.0
C491 C 0.25678 0.93028 0.28156 0.0
C492 C 0.23292 0.94714 0.24856 0.0
C493 C 0.19085 0.94021 0.24696 0.0
C494 C 0.16731 0.95887 0.21714 0.0
C495 C 0.12524 0.95199 0.21674 0.0
C496 C 0.10709 0.92684 0.24448 0.0
C497 C 0.13007 0.90857 0.27352 0.0
C498 C 0.17144 0.91527 0.27506 0.0
H499 H 0.14448 0.96117 0.12461 0.0
C500 C 0.14289 0.99396 0.13032 0.0
H501 H 0.16111 0.04274 0.16693 0.0
H502 H 0.31333 0.96311 0.2412 0.0
H503 H 0.34492 0.00526 0.19142 0.0
H504 H 0.30419 0.03817 0.13999 0.0
H505 H 0.23167 0.02905 0.13791 0.0
C506 C 0.16126 0.00978 0.16197 0.0
C507 C 0.18598 0.98465 0.18917 0.0
C508 C 0.22834 0.9901 0.18986 0.0
C509 C 0.25186 0.97119 0.21949 0.0
C510 C 0.29409 0.97707 0.21946 0.0
C511 C 0.31259 0.00109 0.19102 0.0
C512 C 0.28965 0.01963 0.16208 0.0
C513 C 0.24803 0.01428 0.16132 0.0
H514 H 0.99203 0.73423 0.72049 0.0
C515 C 0.96417 0.71736 0.72455 0.0
H516 H 0.91683 0.70324 0.76375 0.0
H517 H 0.07328 0.75569 0.87598 0.0
H518 H 0.1044 0.69266 0.85207 0.0
H519 H 0.07086 0.65021 0.80208 0.0
H520 H 0.00627 0.67069 0.77544 0.0
C521 C 0.94572 0.71817 0.75976 0.0
C522 C 0.9636 0.74079 0.7934 0.0
C523 C 0.00104 0.72787 0.80922 0.0
C524 C 0.01992 0.75181 0.83871 0.0
C525 C 0.05755 0.73857 0.85361 0.0
C526 C 0.07571 0.7024 0.84023 0.0
C527 C 0.05686 0.67854 0.81204 0.0
C528 C 0.01992 0.69088 0.79672 0.0
H529 H 0.98945 0.7932 0.93068 0.0
C530 C 0.01357 0.81279 0.92033 0.0
H531 H 0.04692 0.83283 0.87113 0.0
H532 H 0.88982 0.77164 0.77262 0.0
H533 H 0.8571 0.83272 0.79926 0.0
H534 H 0.89008 0.87432 0.85028 0.0
H535 H 0.9559 0.855 0.87508 0.0
C536 C 0.02223 0.81422 0.88185 0.0
C537 C 0.00093 0.78802 0.853 0.0
C538 C 0.96255 0.7998 0.83872 0.0
C539 C 0.9437 0.77596 0.80908 0.0
C540 C 0.90547 0.78856 0.79517 0.0
C541 C 0.88637 0.82358 0.81017 0.0
C542 C 0.90492 0.847 0.83891 0.0
C543 C 0.94265 0.8355 0.85299 0.0
H544 H 0.35062 0.93912 0.76874 0.0
C545 C 0.34162 0.95539 0.74244 0.0
H546 H 0.30248 0.99992 0.71871 0.0
H547 H 0.17535 0.98905 0.85725 0.0
H548 H 0.13867 0.9576 0.80386 0.0
H549 H 0.1722 0.9426 0.74054 0.0
H550 H 0.24257 0.95918 0.73013 0.0
C551 C 0.31326 0.98498 0.74506 0.0
C552 C 0.29313 0.99506 0.78313 0.0
C553 C 0.252 0.98506 0.78877 0.0
C554 C 0.23283 0.99316 0.82548 0.0
C555 C 0.1916 0.98312 0.83016 0.0
C556 C 0.17013 0.96512 0.79972 0.0
C557 C 0.189 0.95671 0.76406 0.0
C558 C 0.22942 0.96646 0.75847 0.0
H559 H 0.23628 0.08286 0.89161 0.0
C560 C 0.22653 0.05655 0.90851 0.0
H561 H 0.22382 0.99197 0.91109 0.0
H562 H 0.37092 0.02253 0.78064 0.0
H563 H 0.40828 0.0521 0.83458 0.0
H564 H 0.37643 0.06187 0.89958 0.0
H565 H 0.30686 0.04282 0.91083 0.0
C566 C 0.23457 0.01849 0.89512 0.0
C567 C 0.25483 0.01117 0.85655 0.0
C568 C 0.29601 0.02122 0.85091 0.0
C569 C 0.31493 0.01392 0.81391 0.0
C570 C 0.3555 0.02599 0.80853 0.0
C571 C 0.37724 0.04323 0.83918 0.0
C572 C 0.35927 0.04886 0.87573 0.0
C573 C 0.31918 0.038 0.88172 0.0
H574 H 0.07955 0.29931 0.71696 0.0
C575 C 0.06086 0.29171 0.69192 0.0
H576 H 0.01429 0.25398 0.67072 0.0
H577 H 0.04928 0.12216 0.804 0.0
H578 H 0.07331 0.08581 0.74619 0.0
H579 H 0.07584 0.11997 0.68194 0.0
H580 H 0.05463 0.19092 0.67526 0.0
C581 C 0.03219 0.26311 0.69581 0.0
C582 C 0.02628 0.24142 0.73371 0.0
C583 C 0.03755 0.19957 0.73693 0.0
C584 C 0.03516 0.17957 0.77385 0.0
C585 C 0.0489 0.13846 0.77653 0.0
C586 C 0.06316 0.1173 0.74359 0.0
C587 C 0.06466 0.13655 0.70743 0.0
C588 C 0.05231 0.17727 0.704 0.0
H589 H 0.9759 0.13662 0.82948 0.0
C590 C 0.99292 0.14987 0.85345 0.0
H591 H 0.03419 0.19529 0.8705 0.0
H592 H 0.99754 0.32034 0.73653 0.0
H593 H 0.97164 0.35642 0.79384 0.0
H594 H 0.96732 0.32196 0.85785 0.0
H595 H 0.98875 0.25127 0.86493 0.0
C596 C 0.01797 0.18118 0.84642 0.0
C597 C 0.02028 0.20121 0.80728 0.0
C598 C 0.0079 0.24278 0.80372 0.0
C599 C 0.0107 0.26281 0.76689 0.0
C600 C 0.99708 0.30396 0.76399 0.0
C601 C 0.98184 0.32497 0.79661 0.0
C602 C 0.97938 0.30556 0.83263 0.0
C603 C 0.992 0.26494 0.83629 0.0
H604 H 0.77901 0.01349 0.66966 0.0
C605 C 0.76216 0.04125 0.6771 0.0
H606 H 0.75374 0.08907 0.71828 0.0
H607 H 0.83127 0.93907 0.8267 0.0
H608 H 0.77 0.90213 0.81237 0.0
H609 H 0.72011 0.93003 0.76615 0.0
H610 H 0.73143 0.99471 0.73365 0.0
C611 C 0.76879 0.06012 0.71156 0.0
C612 C 0.79815 0.0435 0.74037 0.0
C613 C 0.79059 0.00589 0.75971 0.0
C614 C 0.81887 0.99029 0.78711 0.0
C615 C 0.81078 0.95248 0.80573 0.0
C616 C 0.77566 0.93095 0.79786 0.0
C617 C 0.74762 0.94662 0.77178 0.0
C618 C 0.7547 0.9837 0.75304 0.0
H619 H 0.8665 0.04337 0.86777 0.0
C620 C 0.88368 0.01539 0.86212 0.0
H621 H 0.89765 0.96855 0.82104 0.0
H622 H 0.82213 0.11605 0.70814 0.0
H623 H 0.8836 0.15288 0.72252 0.0
H624 H 0.93245 0.12587 0.77017 0.0
H625 H 0.92002 0.06196 0.8041 0.0
C626 C 0.88191 0.99737 0.82664 0.0
C627 C 0.85395 0.01292 0.79613 0.0
C628 C 0.86165 0.05037 0.7767 0.0
C629 C 0.83363 0.06575 0.74891 0.0
C630 C 0.84224 0.10306 0.72968 0.0
C631 C 0.87747 0.12447 0.73757 0.0
C632 C 0.90496 0.10928 0.76448 0.0
C633 C 0.89735 0.07266 0.78386 0.0
H634 H 0.27162 0.37605 0.18033 0.0
C635 C 0.24906 0.40038 0.17891 0.0
H636 H 0.19186 0.41797 0.1582 0.0
H637 H 0.17889 0.28628 0.0237 0.0
H638 H 0.17994 0.34982 0.98726 0.0
H639 H 0.19343 0.41561 0.02051 0.0
H640 H 0.20551 0.41834 0.09042 0.0
C641 C 0.21395 0.39335 0.16073 0.0
C642 C 0.20551 0.35341 0.1411 0.0
C643 C 0.19896 0.35233 0.10005 0.0
C644 C 0.19203 0.31429 0.08071 0.0
C645 C 0.18491 0.31422 0.03981 0.0
C646 C 0.18535 0.35049 0.01851 0.0
C647 C 0.19289 0.38753 0.03724 0.0
C648 C 0.19968 0.38864 0.07748 0.0
H649 H 0.13082 0.22551 0.11059 0.0
C650 C 0.15262 0.21505 0.08866 0.0
H651 H 0.20719 0.22813 0.05918 0.0
H652 H 0.21046 0.34483 0.221 0.0
H653 H 0.21373 0.28103 0.2567 0.0
H654 H 0.21043 0.21469 0.22194 0.0
H655 H 0.20032 0.21174 0.15175 0.0
C656 C 0.18552 0.23763 0.08156 0.0
C657 C 0.19224 0.2773 0.10229 0.0
C658 C 0.19926 0.2783 0.14329 0.0
C659 C 0.20448 0.3165 0.16291 0.0
C660 C 0.20847 0.31671 0.20424 0.0
C661 C 0.21013 0.28028 0.22519 0.0
C662 C 0.20786 0.24292 0.20567 0.0
C663 C 0.20203 0.24172 0.16531 0.0
H664 H 0.37088 0.71454 0.17148 0.0
C665 C 0.36155 0.74262 0.15702 0.0
H666 H 0.3039 0.71855 0.15043 0.0
H667 H 0.20419 0.88141 0.14606 0.0
H668 H 0.19302 0.86107 0.21317 0.0
H669 H 0.23446 0.807 0.24338 0.0
H670 H 0.28567 0.77064 0.20539 0.0
C671 C 0.32315 0.74464 0.14468 0.0
C672 C 0.30359 0.78173 0.1278 0.0
C673 C 0.27539 0.8043 0.15094 0.0
C674 C 0.25275 0.83683 0.13404 0.0
C675 C 0.223 0.85704 0.15733 0.0
C676 C 0.2164 0.84592 0.19616 0.0
C677 C 0.23948 0.81517 0.21304 0.0
C678 C 0.26867 0.79449 0.19085 0.0
H679 H 0.21148 0.83295 0.03358 0.0
C680 C 0.20665 0.86342 0.04597 0.0
H681 H 0.22543 0.90651 0.08826 0.0
H682 H 0.35179 0.7422 0.0741 0.0
H683 H 0.3659 0.76406 0.00749 0.0
H684 H 0.33322 0.82605 0.98076 0.0
H685 H 0.28525 0.86563 0.02014 0.0
C686 C 0.23059 0.87652 0.07502 0.0
C687 C 0.2591 0.84739 0.09419 0.0
C688 C 0.28939 0.82666 0.07191 0.0
C689 C 0.31034 0.79266 0.08818 0.0
C690 C 0.33698 0.76969 0.06386 0.0
C691 C 0.34503 0.78172 0.02551 0.0
C692 C 0.3265 0.81651 0.01042 0.0
C693 C 0.29888 0.83878 0.03319 0.0
H694 H 0.62896 0.20361 0.06358 0.0
C695 C 0.63074 0.23137 0.04614 0.0
H696 H 0.66892 0.2704 0.01413 0.0
H697 H 0.83289 0.20479 0.08218 0.0
H698 H 0.82799 0.27144 0.11364 0.0
H699 H 0.76565 0.31289 0.10946 0.0
H700 H 0.7079 0.28801 0.07349 0.0
C701 C 0.66609 0.24152 0.02958 0.0
C702 C 0.70269 0.21517 0.03369 0.0
C703 C 0.73599 0.22981 0.05535 0.0
C704 C 0.7717 0.20557 0.05829 0.0
C705 C 0.80479 0.22152 0.07938 0.0
C706 C 0.80243 0.25983 0.09757 0.0
C707 C 0.76736 0.28319 0.09517 0.0
C708 C 0.73445 0.26855 0.07436 0.0
H709 H 0.81889 0.14338 0.97869 0.0
C710 C 0.83236 0.13427 0.00631 0.0
H711 H 0.82651 0.1356 0.06788 0.0
H712 H 0.64555 0.17889 0.98744 0.0
H713 H 0.64869 0.11055 0.95943 0.0
H714 H 0.70822 0.06612 0.96943 0.0
H715 H 0.76525 0.09018 0.00676 0.0
C716 C 0.81283 0.14307 0.03995 0.0
C717 C 0.77401 0.16658 0.03972 0.0
C718 C 0.73996 0.15115 0.01951 0.0
C719 C 0.70471 0.17591 0.01559 0.0
C720 C 0.67235 0.1608 0.99292 0.0
C721 C 0.67385 0.12167 0.9764 0.0
C722 C 0.70742 0.09673 0.98187 0.0
C723 C 0.74014 0.11112 0.00311 0.0
H724 H 0.74466 0.68877 0.93481 0.0
C725 C 0.75361 0.65991 0.94812 0.0
H726 H 0.80031 0.62777 0.97702 0.0
H727 H 0.92828 0.75446 0.90566 0.0
H728 H 0.94241 0.69484 0.86463 0.0
H729 H 0.89947 0.63365 0.86799 0.0
H730 H 0.84256 0.6312 0.91318 0.0
C731 C 0.79047 0.65636 0.96388 0.0
C732 C 0.8183 0.69183 0.96396 0.0
C733 C 0.85125 0.69278 0.93738 0.0
C734 C 0.87562 0.72836 0.93495 0.0
C735 C 0.90853 0.72842 0.90831 0.0
C736 C 0.91695 0.69444 0.88458 0.0
C737 C 0.89283 0.6599 0.88659 0.0
C738 C 0.86028 0.6589 0.91261 0.0
H739 H 0.91677 0.79797 0.01028 0.0
C740 C 0.91381 0.81542 0.98353 0.0
H741 H 0.88758 0.81789 0.92727 0.0
H742 H 0.76141 0.6972 0.0223 0.0
H743 H 0.74675 0.75663 0.06325 0.0
H744 H 0.78533 0.82043 0.05558 0.0
H745 H 0.8391 0.82495 0.00764 0.0
C746 C 0.89069 0.80101 0.95445 0.0
C747 C 0.86682 0.76292 0.95901 0.0
C748 C 0.83414 0.76166 0.98614 0.0
C749 C 0.81059 0.72562 0.98931 0.0
C750 C 0.77938 0.72433 0.01784 0.0
C751 C 0.77074 0.75815 0.04164 0.0
C752 C 0.79254 0.794 0.03741 0.0
C753 C 0.82367 0.79603 0.00989 0.0
loop_
_geom_bond_atom_site_label_1
_geom_bond_atom_site_label_2
_geom_bond_distance
_geom_bond_site_symmetry_2
_ccdc_geom_bond_type
C0 C1 1.560 . S
C0 H61 0.959 . S
C0 H62 0.959 . S
C0 H63 0.960 . S
C1 C0 1.560 . S
C1 O56 1.426 . S
C1 H60 0.980 . S
C2 C3 1.380 1_455 S
C2 C7 1.418 . S
C2 O56 1.334 . S
C3 C2 1.380 1_655 S
C3 C4 1.369 . S
C3 H64 0.946 . S
C4 C3 1.369 . S
C4 C5 1.401 1_655 S
C4 C8 1.527 . S
C5 C4 1.401 1_455 S
C5 C6 1.405 . S
C5 C38 1.587 1_455 S
C6 C5 1.405 . S
C6 C7 1.332 . S
C6 C9 1.496 . S
C7 C2 1.418 . S
C7 C6 1.332 . S
C7 H65 0.929 . S
C8 C4 1.527 . S
C8 H66 0.959 . S
C8 H67 0.961 . S
C8 H68 0.961 . S
C9 C6 1.496 . S
C9 H69 0.960 . S
C9 H70 0.960 . S
C9 H71 0.961 . S
C10 C11 1.517 . S
C10 H73 0.961 1_655 S
C10 H74 0.960 . S
C10 H75 0.959 . S
C11 C10 1.517 . S
C11 O59 1.468 . S
C11 H72 0.980 1_655 S
C12 C13 1.349 1_655 S
C12 C17 1.367 . S
C12 O59 1.408 . S
C13 C12 1.349 1_455 S
C13 C14 1.407 . S
C13 H76 0.930 . S
C14 C13 1.407 . S
C14 C15 1.449 1_455 S
C14 C18 1.535 . S
C15 C14 1.449 1_655 S
C15 C16 1.384 . S
C15 C40 1.553 . S
C16 C15 1.384 . S
C16 C17 1.364 . S
C16 C19 1.450 . S
C17 C12 1.367 . S
C17 C16 1.364 . S
C17 H77 0.931 . S
C18 C14 1.535 . S
C18 H78 0.959 . S
C18 H79 0.961 . S
C18 H80 0.959 . S
C19 C16 1.450 . S
C19 H81 0.960 . S
C19 H82 0.960 . S
C19 H83 0.960 . S
C20 C21 1.309 1_655 S
C20 C25 1.304 . S
C20 O58 1.435 . S
C21 C20 1.309 1_455 S
C21 C22 1.476 . S
C21 H85 0.930 . S
C22 C21 1.476 . S
C22 C23 1.400 1_455 S
C22 C26 1.567 . S
C23 C22 1.400 1_655 S
C23 C24 1.373 . S
C23 C45 1.432 . S
C24 C23 1.373 . S
C24 C25 1.339 . S
C24 C27 1.530 . S
C25 C20 1.304 . S
C25 C24 1.339 . S
C25 H86 0.930 . S
C26 C22 1.567 . S
C26 H87 0.961 . S
C26 H88 0.960 . S
C26 H89 0.958 . S
C27 C24 1.530 . S
C27 H90 0.961 . S
C27 H91 0.960 . S
C27 H92 0.960 . S
C28 C29 1.530 . S
C28 H94 0.961 . S
C28 H95 0.961 . S
C28 H96 0.959 . S
C29 C28 1.530 . S
C29 O57 1.412 . S
C29 H93 0.980 . S
C30 C31 1.288 . S
C30 C35 1.362 1_455 S
C30 O57 1.393 . S
C31 C30 1.288 . S
C31 C32 1.369 . S
C31 H97 0.932 . S
C32 C31 1.369 . S
C32 C33 1.398 . S
C32 C36 1.527 . S
C33 C32 1.398 . S
C33 C34 1.380 1_455 S
C33 C47 1.497 . S
C34 C33 1.380 1_655 S
C34 C35 1.387 . S
C34 C37 1.603 . S
C35 C30 1.362 1_655 S
C35 C34 1.387 . S
C35 H98 0.940 . S
C36 C32 1.527 . S
C36 H99 0.961 . S
C36 H100 0.959 . S
C36 H101 0.959 . S
C37 C34 1.603 . S
C37 H102 0.960 . S
C37 H103 0.962 . S
C37 H104 0.961 . S
C38 C5 1.587 1_655 S
C38 C39 1.360 . S
C38 C51 1.412 . S
C39 C38 1.360 . S
C39 C40 1.365 . S
C39 H105 0.929 . S
C40 C15 1.553 . S
C40 C39 1.365 . S
C40 C41 1.404 . S
C41 C40 1.404 . S
C41 C42 1.395 . S
C41 C52 1.451 . S
C42 C41 1.395 . S
C42 C43 1.322 . S
C42 H106 0.930 . S
C43 C42 1.322 . S
C43 C44 1.459 . S
C43 H107 0.929 . S
C44 C43 1.459 . S
C44 C45 1.445 . S
C44 C53 1.395 . S
C45 C23 1.432 . S
C45 C44 1.445 . S
C45 C46 1.370 1_655 S
C46 C45 1.370 1_455 S
C46 C47 1.438 . S
C46 H108 0.930 . S
C47 C33 1.497 . S
C47 C46 1.438 . S
C47 C48 1.360 . S
C48 C47 1.360 . S
C48 C49 1.401 . S
C48 C53 1.446 1_455 S
C49 C48 1.401 . S
C49 C50 1.347 . S
C49 H109 0.929 . S
C50 C49 1.347 . S
C50 C51 1.455 1_455 S
C50 H110 0.930 . S
C51 C38 1.412 . S
C51 C50 1.455 1_655 S
C51 C52 1.331 . S
C52 C41 1.451 . S
C52 C51 1.331 . S
C52 C53 1.497 . S
C53 C44 1.395 . S
C53 C48 1.446 1_655 S
C53 C52 1.497 . S
C54 C55 1.582 1_655 S
C54 H111 0.958 1_655 S
C54 H112 0.959 . S
C54 H113 0.958 . S
C55 C54 1.582 1_455 S
C55 O58 1.458 1_455 S
C55 H84 0.980 . S
O56 C1 1.426 . S
O56 C2 1.334 . S
O57 C29 1.412 . S
O57 C30 1.393 . S
O58 C20 1.435 . S
O58 C55 1.458 1_655 S
O59 C11 1.468 . S
O59 C12 1.408 . S
H60 C1 0.980 . S
H61 C0 0.959 . S
H62 C0 0.959 . S
H63 C0 0.960 . S
H64 C3 0.946 . S
H65 C7 0.929 . S
H66 C8 0.959 . S
H67 C8 0.961 . S
H68 C8 0.961 . S
H69 C9 0.960 . S
H70 C9 0.960 . S
H71 C9 0.961 . S
H72 C11 0.980 1_455 S
H73 C10 0.961 1_455 S
H74 C10 0.960 . S
H75 C10 0.959 . S
H76 C13 0.930 . S
H77 C17 0.931 . S
H78 C18 0.959 . S
H79 C18 0.961 . S
H80 C18 0.959 . S
H81 C19 0.960 . S
H82 C19 0.960 . S
H83 C19 0.960 . S
H84 C55 0.980 . S
H85 C21 0.930 . S
H86 C25 0.930 . S
H87 C26 0.961 . S
H88 C26 0.960 . S
H89 C26 0.958 . S
H90 C27 0.961 . S
H91 C27 0.960 . S
H92 C27 0.960 . S
H93 C29 0.980 . S
H94 C28 0.961 . S
H95 C28 0.961 . S
H96 C28 0.959 . S
H97 C31 0.932 . S
H98 C35 0.940 . S
H99 C36 0.961 . S
H100 C36 0.959 . S
H101 C36 0.959 . S
H102 C37 0.960 . S
H103 C37 0.962 . S
H104 C37 0.961 . S
H105 C39 0.929 . S
H106 C42 0.930 . S
H107 C43 0.929 . S
H108 C46 0.930 . S
H109 C49 0.929 . S
H110 C50 0.930 . S
H111 C54 0.958 1_455 S
H112 C54 0.959 . S
H113 C54 0.958 . S
C114 C115 1.560 . S
C114 H175 0.959 . S
C114 H176 0.959 . S
C114 H177 0.960 . S
C115 C114 1.560 . S
C115 O170 1.426 . S
C115 H174 0.980 . S
C116 C117 1.407 1_545 S
C116 C121 1.418 . S
C116 O170 1.334 . S
C117 C116 1.407 1_565 S
C117 C118 1.360 . S
C117 H178 0.929 . S
C118 C117 1.360 . S
C118 C119 1.401 1_565 S
C118 C122 1.527 . S
C119 C118 1.401 1_545 S
C119 C120 1.405 . S
C119 C152 1.587 1_545 S
C120 C119 1.405 . S
C120 C121 1.332 . S
C120 C123 1.496 . S
C121 C116 1.418 . S
C121 C120 1.332 . S
C121 H179 0.929 . S
C122 C118 1.527 . S
C122 H180 0.959 . S
C122 H181 0.961 . S
C122 H182 0.961 . S
C123 C120 1.496 . S
C123 H183 0.960 . S
C123 H184 0.960 . S
C123 H185 0.961 . S
C124 C125 1.517 . S
C124 H187 0.958 . S
C124 H188 0.960 . S
C124 H189 0.959 . S
C125 C124 1.517 . S
C125 O173 1.468 . S
C125 H186 0.980 1_565 S
C126 C127 1.350 1_565 S
C126 C131 1.367 . S
C126 O173 1.408 . S
C127 C126 1.350 1_545 S
C127 C128 1.407 . S
C127 H190 0.930 . S
C128 C127 1.407 . S
C128 C129 1.449 1_545 S
C128 C132 1.535 . S
C129 C128 1.449 1_565 S
C129 C130 1.384 . S
C129 C154 1.553 . S
C130 C129 1.384 . S
C130 C131 1.364 . S
C130 C133 1.450 . S
C131 C126 1.367 . S
C131 C130 1.364 . S
C131 H191 0.931 . S
C132 C128 1.535 . S
C132 H192 0.959 . S
C132 H193 0.961 . S
C132 H194 0.959 . S
C133 C130 1.450 . S
C133 H195 0.960 . S
C133 H196 0.960 . S
C133 H197 0.960 . S
C134 C135 1.309 1_565 S
C134 C139 1.304 . S
C134 O172 1.435 . S
C135 C134 1.309 1_545 S
C135 C136 1.476 . S
C135 H199 0.930 . S
C136 C135 1.476 . S
C136 C137 1.400 1_545 S
C136 C140 1.567 . S
C137 C136 1.400 1_565 S
C137 C138 1.373 . S
C137 C159 1.432 . S
C138 C137 1.373 . S
C138 C139 1.339 . S
C138 C141 1.530 . S
C139 C134 1.304 . S
C139 C138 1.339 . S
C139 H200 0.930 . S
C140 C136 1.567 . S
C140 H201 0.961 . S
C140 H202 0.960 . S
C140 H203 0.958 . S
C141 C138 1.530 . S
C141 H204 0.961 . S
C141 H205 0.960 . S
C141 H206 0.960 . S
C142 C143 1.530 . S
C142 H208 0.961 . S
C142 H209 0.961 . S
C142 H210 0.959 . S
C143 C142 1.530 . S
C143 O171 1.412 . S
C143 H207 0.980 . S
C144 C145 1.288 . S
C144 C149 1.377 1_545 S
C144 O171 1.393 . S
C145 C144 1.288 . S
C145 C146 1.369 . S
C145 H211 0.932 . S
C146 C145 1.369 . S
C146 C147 1.398 . S
C146 C150 1.527 . S
C147 C146 1.398 . S
C147 C148 1.380 1_545 S
C147 C161 1.497 . S
C148 C147 1.380 1_565 S
C148 C149 1.383 . S
C148 C151 1.603 . S
C149 C144 1.377 1_565 S
C149 C148 1.383 . S
C149 H212 0.929 . S
C150 C146 1.527 . S
C150 H213 0.961 . S
C150 H214 0.959 . S
C150 H215 0.959 . S
C151 C148 1.603 . S
C151 H216 0.960 . S
C151 H217 0.962 . S
C151 H218 0.961 . S
C152 C119 1.587 1_565 S
C152 C153 1.360 . S
C152 C165 1.412 . S
C153 C152 1.360 . S
C153 C154 1.365 . S
C153 H219 0.929 . S
C154 C129 1.553 . S
C154 C153 1.365 . S
C154 C155 1.404 . S
C155 C154 1.404 . S
C155 C156 1.395 . S
C155 C166 1.451 . S
C156 C155 1.395 . S
C156 C157 1.322 . S
C156 H220 0.930 . S
C157 C156 1.322 . S
C157 C158 1.459 . S
C157 H221 0.929 . S
C158 C157 1.459 . S
C158 C159 1.445 . S
C158 C167 1.395 . S
C159 C137 1.432 . S
C159 C158 1.445 . S
C159 C160 1.370 . S
C160 C159 1.370 . S
C160 C161 1.438 1_565 S
C160 H222 0.930 . S
C161 C147 1.497 . S
C161 C160 1.438 1_545 S
C161 C162 1.360 1_545 S
C162 C161 1.360 1_565 S
C162 C163 1.401 1_565 S
C162 C167 1.446 . S
C163 C162 1.401 1_545 S
C163 C164 1.347 . S
C163 H223 0.929 . S
C164 C163 1.347 . S
C164 C165 1.455 1_545 S
C164 H224 0.930 . S
C165 C152 1.412 . S
C165 C164 1.455 1_565 S
C165 C166 1.331 . S
C166 C155 1.451 . S
C166 C165 1.331 . S
C166 C167 1.497 . S
C167 C158 1.395 . S
C167 C162 1.446 . S
C167 C166 1.497 . S
C168 C169 1.582 1_565 S
C168 H225 0.962 . S
C168 H226 0.959 . S
C168 H227 0.958 . S
C169 C168 1.582 1_545 S
C169 O172 1.458 1_545 S
C169 H198 0.980 . S
O170 C115 1.426 . S
O170 C116 1.334 . S
O171 C143 1.412 . S
O171 C144 1.393 . S
O172 C134 1.435 . S
O172 C169 1.458 1_565 S
O173 C125 1.468 . S
O173 C126 1.408 . S
H174 C115 0.980 . S
H175 C114 0.959 . S
H176 C114 0.959 . S
H177 C114 0.960 . S
H178 C117 0.929 . S
H179 C121 0.929 . S
H180 C122 0.959 . S
H181 C122 0.961 . S
H182 C122 0.961 . S
H183 C123 0.960 . S
H184 C123 0.960 . S
H185 C123 0.961 . S
H186 C125 0.980 1_545 S
H187 C124 0.958 . S
H188 C124 0.960 . S
H189 C124 0.959 . S
H190 C127 0.930 . S
H191 C131 0.931 . S
H192 C132 0.959 . S
H193 C132 0.961 . S
H194 C132 0.959 . S
H195 C133 0.960 . S
H196 C133 0.960 . S
H197 C133 0.960 . S
H198 C169 0.980 . S
H199 C135 0.930 . S
H200 C139 0.930 . S
H201 C140 0.961 . S
H202 C140 0.960 . S
H203 C140 0.958 . S
H204 C141 0.961 . S
H205 C141 0.960 . S
H206 C141 0.960 . S
H207 C143 0.980 . S
H208 C142 0.961 . S
H209 C142 0.961 . S
H210 C142 0.959 . S
H211 C145 0.932 . S
H212 C149 0.929 . S
H213 C150 0.961 . S
H214 C150 0.959 . S
H215 C150 0.959 . S
H216 C151 0.960 . S
H217 C151 0.962 . S
H218 C151 0.961 . S
H219 C153 0.929 . S
H220 C156 0.930 . S
H221 C157 0.929 . S
H222 C160 0.930 . S
H223 C163 0.929 . S
H224 C164 0.930 . S
H225 C168 0.962 . S
H226 C168 0.959 . S
H227 C168 0.958 . S
C228 C229 1.560 . S
C228 H289 0.959 . S
C228 H290 0.959 . S
C228 H291 0.960 . S
C229 C228 1.560 . S
C229 O284 1.426 . S
C229 H288 0.980 1_556 S
C230 C231 1.407 1_556 S
C230 C235 1.418 . S
C230 O284 1.334 . S
C231 C230 1.407 1_554 S
C231 C232 1.360 . S
C231 H292 0.929 . S
C232 C231 1.360 . S
C232 C233 1.401 . S
C232 C236 1.527 . S
C233 C232 1.401 . S
C233 C234 1.405 1_554 S
C233 C266 1.587 . S
C234 C233 1.405 1_556 S
C234 C235 1.332 . S
C234 C237 1.496 . S
C235 C230 1.418 . S
C235 C234 1.332 . S
C235 H293 0.929 . S
C236 C232 1.527 . S
C236 H294 0.959 . S
C236 H295 0.961 . S
C236 H296 0.961 . S
C237 C234 1.496 . S
C237 H297 0.960 . S
C237 H298 0.960 . S
C237 H299 0.961 . S
C238 C239 1.517 . S
C238 H301 0.961 . S
C238 H302 0.960 . S
C238 H303 0.959 . S
C239 C238 1.517 . S
C239 O287 1.468 . S
C239 H300 0.980 . S
C240 C241 1.349 . S
C240 C245 1.367 . S
C240 O287 1.408 . S
C241 C240 1.349 . S
C241 C242 1.407 . S
C241 H304 0.930 . S
C242 C241 1.407 . S
C242 C243 1.449 . S
C242 C246 1.535 1_554 S
C243 C242 1.449 . S
C243 C244 1.384 . S
C243 C268 1.553 . S
C244 C243 1.384 . S
C244 C245 1.364 . S
C244 C247 1.450 . S
C245 C240 1.367 . S
C245 C244 1.364 . S
C245 H305 0.931 . S
C246 C242 1.535 1_556 S
C246 H306 0.959 . S
C246 H307 0.961 . S
C246 H308 0.959 . S
C247 C244 1.450 . S
C247 H309 0.960 . S
C247 H310 0.960 . S
C247 H311 0.960 . S
C248 C249 1.309 . S
C248 C253 1.304 . S
C248 O286 1.435 . S
C249 C248 1.309 . S
C249 C250 1.476 . S
C249 H313 0.930 1_554 S
C250 C249 1.476 . S
C250 C251 1.400 . S
C250 C254 1.567 1_554 S
C251 C250 1.400 . S
C251 C252 1.373 . S
C251 C273 1.432 . S
C252 C251 1.373 . S
C252 C253 1.339 . S
C252 C255 1.530 . S
C253 C248 1.304 . S
C253 C252 1.339 . S
C253 H314 0.930 . S
C254 C250 1.567 1_556 S
C254 H315 0.961 . S
C254 H316 0.960 . S
C254 H317 0.958 . S
C255 C252 1.530 . S
C255 H318 0.961 . S
C255 H319 0.960 . S
C255 H320 0.960 . S
C256 C257 1.530 1_556 S
C256 H322 0.961 . S
C256 H323 0.961 . S
C256 H324 0.959 . S
C257 C256 1.530 1_554 S
C257 O285 1.412 1_554 S
C257 H321 0.980 . S
C258 C259 1.288 . S
C258 C263 1.377 1_556 S
C258 O285 1.393 . S
C259 C258 1.288 . S
C259 C260 1.369 . S
C259 H325 0.932 . S
C260 C259 1.369 . S
C260 C261 1.398 1_556 S
C260 C264 1.527 . S
C261 C260 1.398 1_554 S
C261 C262 1.380 . S
C261 C275 1.497 . S
C262 C261 1.380 . S
C262 C263 1.383 . S
C262 C265 1.603 . S
C263 C258 1.377 1_554 S
C263 C262 1.383 . S
C263 H326 0.929 . S
C264 C260 1.527 . S
C264 H327 0.961 . S
C264 H328 0.959 . S
C264 H329 0.959 . S
C265 C262 1.603 . S
C265 H330 0.960 . S
C265 H331 0.962 . S
C265 H332 0.961 . S
C266 C233 1.587 . S
C266 C267 1.360 . S
C266 C279 1.412 . S
C267 C266 1.360 . S
C267 C268 1.365 . S
C267 H333 0.929 . S
C268 C243 1.553 . S
C268 C267 1.365 . S
C268 C269 1.404 . S
C269 C268 1.404 . S
C269 C270 1.395 . S
C269 C280 1.451 . S
C270 C269 1.395 . S
C270 C271 1.322 . S
C270 H334 0.930 . S
C271 C270 1.322 . S
C271 C272 1.459 . S
C271 H335 0.929 . S
C272 C271 1.459 . S
C272 C273 1.445 . S
C272 C281 1.395 . S
C273 C251 1.432 . S
C273 C272 1.445 . S
C273 C274 1.370 . S
C274 C273 1.370 . S
C274 C275 1.438 . S
C274 H336 0.930 . S
C275 C261 1.497 . S
C275 C274 1.438 . S
C275 C276 1.360 . S
C276 C275 1.360 . S
C276 C277 1.401 . S
C276 C281 1.446 . S
C277 C276 1.401 . S
C277 C278 1.347 . S
C277 H337 0.929 . S
C278 C277 1.347 . S
C278 C279 1.455 . S
C278 H338 0.930 . S
C279 C266 1.412 . S
C279 C278 1.455 . S
C279 C280 1.331 . S
C280 C269 1.451 . S
C280 C279 1.331 . S
C280 C281 1.497 . S
C281 C272 1.395 . S
C281 C276 1.446 . S
C281 C280 1.497 . S
C282 C283 1.582 . S
C282 H339 0.962 . S
C282 H340 0.959 . S
C282 H341 0.958 . S
C283 C282 1.582 . S
C283 O286 1.458 . S
C283 H312 0.980 . S
O284 C229 1.426 . S
O284 C230 1.334 . S
O285 C257 1.412 1_556 S
O285 C258 1.393 . S
O286 C248 1.435 . S
O286 C283 1.458 . S
O287 C239 1.468 . S
O287 C240 1.408 . S
H288 C229 0.980 1_554 S
H289 C228 0.959 . S
H290 C228 0.959 . S
H291 C228 0.960 . S
H292 C231 0.929 . S
H293 C235 0.929 . S
H294 C236 0.959 . S
H295 C236 0.961 . S
H296 C236 0.961 . S
H297 C237 0.960 . S
H298 C237 0.960 . S
H299 C237 0.961 . S
H300 C239 0.980 . S
H301 C238 0.961 . S
H302 C238 0.960 . S
H303 C238 0.959 . S
H304 C241 0.930 . S
H305 C245 0.931 . S
H306 C246 0.959 . S
H307 C246 0.961 . S
H308 C246 0.959 . S
H309 C247 0.960 . S
H310 C247 0.960 . S
H311 C247 0.960 . S
H312 C283 0.980 . S
H313 C249 0.930 1_556 S
H314 C253 0.930 . S
H315 C254 0.961 . S
H316 C254 0.960 . S
H317 C254 0.958 . S
H318 C255 0.961 . S
H319 C255 0.960 . S
H320 C255 0.960 . S
H321 C257 0.980 . S
H322 C256 0.961 . S
H323 C256 0.961 . S
H324 C256 0.959 . S
H325 C259 0.932 . S
H326 C263 0.929 . S
H327 C264 0.961 . S
H328 C264 0.959 . S
H329 C264 0.959 . S
H330 C265 0.960 . S
H331 C265 0.962 . S
H332 C265 0.961 . S
H333 C267 0.929 . S
H334 C270 0.930 . S
H335 C271 0.929 . S
H336 C274 0.930 . S
H337 C277 0.929 . S
H338 C278 0.930 . S
H339 C282 0.962 . S
H340 C282 0.959 . S
H341 C282 0.958 . S
Zn342 O344 1.933 1_556 S
Zn342 O362 1.985 . S
Zn342 O373 1.955 . S
Zn343 O344 1.911 . S
Zn343 O363 1.970 . S
Zn343 O379 1.945 . S
Zn343 O386 1.981 . S
O344 Zn342 1.933 1_554 S
O344 Zn343 1.911 . S
O344 H345 0.841 . S
H345 O344 0.841 . S
C346 O347 1.246 . S
C346 O375 1.276 1_455 S
O347 C346 1.246 . S
Zn348 O350 1.911 . S
Zn348 O365 1.970 . S
Zn348 O382 1.945 . S
Zn348 O389 1.981 . S
Zn349 O350 1.933 1_556 S
Zn349 O364 1.985 . S
Zn349 O371 1.955 . S
O350 Zn348 1.911 . S
O350 Zn349 1.933 1_554 S
O350 H351 0.841 1_565 S
H351 O350 0.841 1_545 S
Zn352 O353 1.933 1_556 S
Zn352 O366 1.985 . S
Zn352 O375 1.955 . S
O353 Zn352 1.933 1_554 S
O353 Zn354 1.911 . S
O353 H355 0.841 1_655 S
Zn354 O353 1.911 . S
Zn354 O367 1.970 . S
Zn354 O383 1.981 . S
Zn354 O385 1.945 . S
H355 O353 0.841 1_455 S
Zn356 O357 1.933 1_556 S
Zn356 O369 1.985 . S
Zn356 O377 1.955 . S
O357 Zn356 1.933 1_554 S
O357 H358 0.841 . S
O357 Zn359 1.911 . S
H358 O357 0.841 . S
Zn359 O357 1.911 . S
Zn359 O370 1.970 . S
Zn359 O380 1.981 . S
Zn359 O388 1.945 . S
C360 O361 1.246 1_455 S
C360 O377 1.276 . S
O361 C360 1.246 1_655 S
O362 Zn342 1.985 . S
O362 C372 1.245 1_556 S
O363 Zn343 1.970 . S
O363 C372 1.263 . S
O364 Zn349 1.985 . S
O364 C376 1.245 1_556 S
O365 Zn348 1.970 . S
O365 C376 1.263 . S
O366 Zn352 1.985 . S
O366 C381 1.245 1_556 S
O367 Zn354 1.970 . S
O367 C381 1.263 . S
C368 O379 1.262 . S
C368 O380 1.245 1_545 S
O369 Zn356 1.985 . S
O369 C387 1.245 1_556 S
O370 Zn359 1.970 . S
O370 C387 1.263 . S
O371 Zn349 1.955 . S
O371 C390 1.276 1_565 S
C372 O362 1.245 1_554 S
C372 O363 1.263 . S
O373 Zn342 1.955 . S
O373 C392 1.276 . S
C374 O382 1.262 1_545 S
C374 O383 1.245 . S
O375 C346 1.276 1_655 S
O375 Zn352 1.955 . S
C376 O364 1.245 1_554 S
C376 O365 1.263 . S
O377 Zn356 1.955 . S
O377 C360 1.276 . S
C378 O385 1.262 1_455 S
C378 O386 1.245 . S
O379 Zn343 1.945 . S
O379 C368 1.262 . S
O380 Zn359 1.981 . S
O380 C368 1.245 1_565 S
C381 O366 1.245 1_554 S
C381 O367 1.263 . S
O382 Zn348 1.945 . S
O382 C374 1.262 1_565 S
O383 Zn354 1.981 . S
O383 C374 1.245 . S
C384 O388 1.262 . S
C384 O389 1.245 1_455 S
O385 Zn354 1.945 . S
O385 C378 1.262 1_655 S
O386 Zn343 1.981 . S
O386 C378 1.245 . S
C387 O369 1.245 1_554 S
C387 O370 1.263 . S
O388 Zn359 1.945 . S
O388 C384 1.262 . S
O389 Zn348 1.981 . S
O389 C384 1.245 1_655 S
C390 O371 1.276 1_545 S
C390 O391 1.246 . S
O391 C390 1.246 . S
C392 O373 1.276 . S
C392 O393 1.246 1_545 S
O393 C392 1.246 1_565 S
H394 C395 0.951 . S
C395 H394 0.951 . S
C395 C401 1.265 1_455 S
H396 C401 0.950 . S
H397 C405 0.949 1_455 S
H398 C406 0.950 . S
H399 C407 0.951 . S
H400 C408 0.951 . S
C401 C395 1.265 1_655 S
C401 H396 0.950 . S
C401 C402 1.478 1_655 S
C402 C401 1.478 1_455 S
C402 C403 1.397 1_455 S
C402 C419 1.394 . S
C403 C402 1.397 1_655 S
C403 C404 1.438 1_655 S
C403 C408 1.429 . S
C404 C403 1.438 1_455 S
C404 C405 1.428 1_455 S
C404 C417 1.394 . S
C405 H397 0.949 1_655 S
C405 C404 1.428 1_655 S
C405 C406 1.345 . S
C406 H398 0.950 . S
C406 C405 1.345 . S
C406 C407 1.424 . S
C407 H399 0.951 . S
C407 C406 1.424 . S
C407 C408 1.347 . S
C408 H400 0.951 . S
C408 C403 1.429 . S
C408 C407 1.347 . S
H409 C410 0.951 1_655 S
C410 H409 0.951 1_455 S
C410 C416 1.265 . S
H411 C416 0.950 . S
H412 C420 0.949 . S
H413 C421 0.950 . S
H414 C422 0.951 . S
H415 C423 0.951 . S
C416 C410 1.265 . S
C416 H411 0.950 . S
C416 C417 1.478 . S
C417 C404 1.394 . S
C417 C416 1.478 . S
C417 C418 1.397 . S
C418 C417 1.397 . S
C418 C419 1.438 . S
C418 C423 1.429 . S
C419 C402 1.394 . S
C419 C418 1.438 . S
C419 C420 1.428 . S
C420 H412 0.949 . S
C420 C419 1.428 . S
C420 C421 1.345 . S
C421 H413 0.950 . S
C421 C420 1.345 . S
C421 C422 1.424 . S
C422 H414 0.951 . S
C422 C421 1.424 . S
C422 C423 1.347 . S
C423 H415 0.951 . S
C423 C418 1.429 . S
C423 C422 1.347 . S
H424 C425 0.951 . S
C425 H424 0.951 . S
C425 C431 1.265 . S
H426 C431 0.950 . S
H427 C435 0.949 . S
H428 C436 0.950 . S
H429 C437 0.951 . S
H430 C438 0.951 . S
C431 C425 1.265 . S
C431 H426 0.950 . S
C431 C432 1.478 . S
C432 C431 1.478 . S
C432 C433 1.397 1_545 S
C432 C449 1.394 . S
C433 C432 1.397 1_565 S
C433 C434 1.438 . S
C433 C438 1.429 . S
C434 C433 1.438 . S
C434 C435 1.428 . S
C434 C447 1.394 1_565 S
C435 H427 0.949 . S
C435 C434 1.428 . S
C435 C436 1.345 . S
C436 H428 0.950 . S
C436 C435 1.345 . S
C436 C437 1.424 . S
C437 H429 0.951 . S
C437 C436 1.424 . S
C437 C438 1.347 . S
C438 H430 0.951 . S
C438 C433 1.429 . S
C438 C437 1.347 . S
H439 C440 0.951 . S
C440 H439 0.951 . S
C440 C446 1.265 . S
H441 C446 0.950 . S
H442 C450 0.949 . S
H443 C451 0.950 . S
H444 C452 0.951 . S
H445 C453 0.951 . S
C446 C440 1.265 . S
C446 H441 0.950 . S
C446 C447 1.478 . S
C447 C434 1.394 1_545 S
C447 C446 1.478 . S
C447 C448 1.397 . S
C448 C447 1.397 . S
C448 C449 1.438 . S
C448 C453 1.429 . S
C449 C432 1.394 . S
C449 C448 1.438 . S
C449 C450 1.428 . S
C450 H442 0.949 . S
C450 C449 1.428 . S
C450 C451 1.345 . S
C451 H443 0.950 . S
C451 C450 1.345 . S
C451 C452 1.424 . S
C452 H444 0.951 . S
C452 C451 1.424 . S
C452 C453 1.347 . S
C453 H445 0.951 . S
C453 C448 1.429 . S
C453 C452 1.347 . S
H454 C455 0.951 . S
C455 H454 0.951 . S
C455 C461 1.265 . S
H456 C461 0.950 . S
H457 C465 0.949 . S
H458 C466 0.950 . S
H459 C467 0.951 . S
H460 C468 0.951 . S
C461 C455 1.265 . S
C461 H456 0.950 . S
C461 C462 1.478 . S
C462 C461 1.478 . S
C462 C463 1.397 1_455 S
C462 C479 1.394 . S
C463 C462 1.397 1_655 S
C463 C464 1.438 . S
C463 C468 1.429 . S
C464 C463 1.438 . S
C464 C465 1.428 . S
C464 C477 1.394 1_655 S
C465 H457 0.949 . S
C465 C464 1.428 . S
C465 C466 1.345 . S
C466 H458 0.950 . S
C466 C465 1.345 . S
C466 C467 1.424 . S
C467 H459 0.951 . S
C467 C466 1.424 . S
C467 C468 1.347 . S
C468 H460 0.951 . S
C468 C463 1.429 . S
C468 C467 1.347 . S
H469 C470 0.951 . S
C470 H469 0.951 . S
C470 C476 1.265 . S
H471 C476 0.950 1_655 S
H472 C480 0.949 . S
H473 C481 0.950 . S
H474 C482 0.951 . S
H475 C483 0.951 . S
C476 C470 1.265 . S
C476 H471 0.950 1_455 S
C476 C477 1.478 . S
C477 C464 1.394 1_455 S
C477 C476 1.478 . S
C477 C478 1.397 . S
C478 C477 1.397 . S
C478 C479 1.438 . S
C478 C483 1.429 . S
C479 C462 1.394 . S
C479 C478 1.438 . S
C479 C480 1.428 . S
C480 H472 0.949 . S
C480 C479 1.428 . S
C480 C481 1.345 . S
C481 H473 0.950 . S
C481 C480 1.345 . S
C481 C482 1.424 . S
C482 H474 0.951 . S
C482 C481 1.424 . S
C482 C483 1.347 . S
C483 H475 0.951 . S
C483 C478 1.429 . S
C483 C482 1.347 . S
H484 C485 0.951 . S
C485 H484 0.951 . S
C485 C491 1.265 . S
H486 C491 0.950 . S
H487 C495 0.949 . S
H488 C496 0.950 . S
H489 C497 0.951 . S
H490 C498 0.951 . S
C491 C485 1.265 . S
C491 H486 0.950 . S
C491 C492 1.478 . S
C492 C491 1.478 . S
C492 C493 1.397 1_545 S
C492 C509 1.394 . S
C493 C492 1.397 1_565 S
C493 C494 1.438 . S
C493 C498 1.429 . S
C494 C493 1.438 . S
C494 C495 1.428 . S
C494 C507 1.394 1_565 S
C495 H487 0.949 . S
C495 C494 1.428 . S
C495 C496 1.345 . S
C496 H488 0.950 . S
C496 C495 1.345 . S
C496 C497 1.424 . S
C497 H489 0.951 . S
C497 C496 1.424 . S
C497 C498 1.347 . S
C498 H490 0.951 . S
C498 C493 1.429 . S
C498 C497 1.347 . S
H499 C500 0.951 . S
C500 H499 0.951 . S
C500 C506 1.265 . S
H501 C506 0.950 . S
H502 C510 0.949 . S
H503 C511 0.950 . S
H504 C512 0.951 . S
H505 C513 0.951 . S
C506 C500 1.265 . S
C506 H501 0.950 . S
C506 C507 1.478 . S
C507 C494 1.394 1_545 S
C507 C506 1.478 . S
C507 C508 1.397 . S
C508 C507 1.397 . S
C508 C509 1.438 . S
C508 C513 1.429 . S
C509 C492 1.394 . S
C509 C508 1.438 . S
C509 C510 1.428 . S
C510 H502 0.949 . S
C510 C509 1.428 . S
C510 C511 1.345 . S
C511 H503 0.950 . S
C511 C510 1.345 . S
C511 C512 1.424 . S
C512 H504 0.951 . S
C512 C511 1.424 . S
C512 C513 1.347 . S
C513 H505 0.951 . S
C513 C508 1.429 . S
C513 C512 1.347 . S
H514 C515 0.951 . S
C515 H514 0.951 . S
C515 C521 1.267 . S
H516 C521 0.947 1_655 S
H517 C525 0.949 . S
H518 C526 0.950 . S
H519 C527 0.951 . S
H520 C528 0.951 . S
C521 C515 1.267 . S
C521 H516 0.947 1_455 S
C521 C522 1.479 . S
C522 C521 1.479 . S
C522 C523 1.397 . S
C522 C539 1.394 1_455 S
C523 C522 1.397 . S
C523 C524 1.438 . S
C523 C528 1.429 . S
C524 C523 1.438 . S
C524 C525 1.428 . S
C524 C537 1.394 . S
C525 H517 0.949 . S
C525 C524 1.428 . S
C525 C526 1.345 . S
C526 H518 0.950 . S
C526 C525 1.345 . S
C526 C527 1.424 . S
C527 H519 0.951 . S
C527 C526 1.424 . S
C527 C528 1.347 . S
C528 H520 0.951 . S
C528 C523 1.429 . S
C528 C527 1.347 . S
H529 C530 0.951 1_655 S
C530 H529 0.951 1_455 S
C530 C536 1.265 . S
H531 C536 0.950 . S
H532 C540 0.949 . S
H533 C541 0.950 . S
H534 C542 0.951 . S
H535 C543 0.951 . S
C536 C530 1.265 . S
C536 H531 0.950 . S
C536 C537 1.478 . S
C537 C524 1.394 . S
C537 C536 1.478 . S
C537 C538 1.397 1_455 S
C538 C537 1.397 1_655 S
C538 C539 1.438 . S
C538 C543 1.429 . S
C539 C522 1.394 1_655 S
C539 C538 1.438 . S
C539 C540 1.428 . S
C540 H532 0.949 . S
C540 C539 1.428 . S
C540 C541 1.345 . S
C541 H533 0.950 . S
C541 C540 1.345 . S
C541 C542 1.424 . S
C542 H534 0.951 . S
C542 C541 1.424 . S
C542 C543 1.347 . S
C543 H535 0.951 . S
C543 C538 1.429 . S
C543 C542 1.347 . S
H544 C545 0.951 1_565 S
C545 H544 0.951 1_545 S
C545 C551 1.265 . S
H546 C551 0.950 . S
H547 C555 0.949 . S
H548 C556 0.950 . S
H549 C557 0.951 . S
H550 C558 0.951 . S
C551 C545 1.265 . S
C551 H546 0.950 . S
C551 C552 1.478 . S
C552 C551 1.478 . S
C552 C553 1.397 1_545 S
C552 C569 1.394 . S
C553 C552 1.397 1_565 S
C553 C554 1.438 . S
C553 C558 1.429 . S
C554 C553 1.438 . S
C554 C555 1.428 . S
C554 C567 1.394 . S
C555 H547 0.949 . S
C555 C554 1.428 . S
C555 C556 1.345 . S
C556 H548 0.950 . S
C556 C555 1.345 . S
C556 C557 1.424 . S
C557 H549 0.951 . S
C557 C556 1.424 . S
C557 C558 1.347 . S
C558 H550 0.951 . S
C558 C553 1.429 . S
C558 C557 1.347 . S
H559 C560 0.951 1_545 S
C560 H559 0.951 1_565 S
C560 C566 1.265 . S
H561 C566 0.950 . S
H562 C570 0.949 . S
H563 C571 0.950 . S
H564 C572 0.951 . S
H565 C573 0.951 . S
C566 C560 1.265 . S
C566 H561 0.950 . S
C566 C567 1.478 . S
C567 C554 1.394 . S
C567 C566 1.478 . S
C567 C568 1.397 1_565 S
C568 C567 1.397 1_545 S
C568 C569 1.438 . S
C568 C573 1.429 . S
C569 C552 1.394 . S
C569 C568 1.438 . S
C569 C570 1.428 . S
C570 H562 0.949 . S
C570 C569 1.428 . S
C570 C571 1.345 . S
C571 H563 0.950 . S
C571 C570 1.345 . S
C571 C572 1.424 . S
C572 H564 0.951 . S
C572 C571 1.424 . S
C572 C573 1.347 . S
C573 H565 0.951 . S
C573 C568 1.429 . S
C573 C572 1.347 . S
H574 C575 0.951 . S
C575 H574 0.951 . S
C575 C581 1.265 . S
H576 C581 0.950 1_655 S
H577 C585 0.949 . S
H578 C586 0.950 . S
H579 C587 0.951 . S
H580 C588 0.951 . S
C581 C575 1.265 . S
C581 H576 0.950 1_455 S
C581 C582 1.478 . S
C582 C581 1.478 . S
C582 C583 1.397 . S
C582 C599 1.394 . S
C583 C582 1.397 . S
C583 C584 1.438 . S
C583 C588 1.429 1_455 S
C584 C583 1.438 . S
C584 C585 1.428 . S
C584 C597 1.394 . S
C585 H577 0.949 . S
C585 C584 1.428 . S
C585 C586 1.345 1_455 S
C586 H578 0.950 . S
C586 C585 1.345 1_655 S
C586 C587 1.424 . S
C587 H579 0.951 . S
C587 C586 1.424 . S
C587 C588 1.347 . S
C588 H580 0.951 . S
C588 C583 1.429 1_655 S
C588 C587 1.347 . S
H589 C590 0.951 1_655 S
C590 H589 0.951 1_455 S
C590 C596 1.265 . S
H591 C596 0.950 . S
H592 C600 0.949 . S
H593 C601 0.950 . S
H594 C602 0.951 . S
H595 C603 0.951 . S
C596 C590 1.265 . S
C596 H591 0.950 . S
C596 C597 1.478 . S
C597 C584 1.394 . S
C597 C596 1.478 . S
C597 C598 1.397 . S
C598 C597 1.397 . S
C598 C599 1.438 . S
C598 C603 1.429 . S
C599 C582 1.394 . S
C599 C598 1.438 . S
C599 C600 1.428 . S
C600 H592 0.949 . S
C600 C599 1.428 . S
C600 C601 1.345 . S
C601 H593 0.950 . S
C601 C600 1.345 . S
C601 C602 1.424 . S
C602 H594 0.951 . S
C602 C601 1.424 . S
C602 C603 1.347 . S
C603 H595 0.951 . S
C603 C598 1.429 . S
C603 C602 1.347 . S
H604 C605 0.951 . S
C605 H604 0.951 . S
C605 C611 1.265 . S
H606 C611 0.950 . S
H607 C615 0.949 . S
H608 C616 0.950 . S
H609 C617 0.951 . S
H610 C618 0.951 . S
C611 C605 1.265 . S
C611 H606 0.950 . S
C611 C612 1.478 . S
C612 C611 1.478 . S
C612 C613 1.397 1_545 S
C612 C629 1.394 . S
C613 C612 1.397 1_565 S
C613 C614 1.438 . S
C613 C618 1.429 . S
C614 C613 1.438 . S
C614 C615 1.428 . S
C614 C627 1.394 1_565 S
C615 H607 0.949 . S
C615 C614 1.428 . S
C615 C616 1.345 . S
C616 H608 0.950 . S
C616 C615 1.345 . S
C616 C617 1.424 . S
C617 H609 0.951 . S
C617 C616 1.424 . S
C617 C618 1.347 . S
C618 H610 0.951 . S
C618 C613 1.429 . S
C618 C617 1.347 . S
H619 C620 0.951 . S
C620 H619 0.951 . S
C620 C626 1.265 . S
H621 C626 0.950 . S
H622 C630 0.949 . S
H623 C631 0.950 . S
H624 C632 0.951 . S
H625 C633 0.951 . S
C626 C620 1.265 . S
C626 H621 0.950 . S
C626 C627 1.478 . S
C627 C614 1.394 1_545 S
C627 C626 1.478 . S
C627 C628 1.397 . S
C628 C627 1.397 . S
C628 C629 1.438 . S
C628 C633 1.429 . S
C629 C612 1.394 . S
C629 C628 1.438 . S
C629 C630 1.428 . S
C630 H622 0.949 . S
C630 C629 1.428 . S
C630 C631 1.345 . S
C631 H623 0.950 . S
C631 C630 1.345 . S
C631 C632 1.424 . S
C632 H624 0.951 . S
C632 C631 1.424 . S
C632 C633 1.347 . S
C633 H625 0.951 . S
C633 C628 1.429 . S
C633 C632 1.347 . S
H634 C635 0.951 . S
C635 H634 0.951 . S
C635 C641 1.265 . S
H636 C641 0.950 . S
H637 C645 0.949 . S
H638 C646 0.950 . S
H639 C647 0.951 . S
H640 C648 0.951 . S
C641 C635 1.265 . S
C641 H636 0.950 . S
C641 C642 1.478 . S
C642 C641 1.478 . S
C642 C643 1.397 1_554 S
C642 C659 1.394 . S
C643 C642 1.397 1_556 S
C643 C644 1.438 . S
C643 C648 1.429 . S
C644 C643 1.438 . S
C644 C645 1.428 . S
C644 C657 1.394 1_556 S
C645 H637 0.949 . S
C645 C644 1.428 . S
C645 C646 1.345 . S
C646 H638 0.950 . S
C646 C645 1.345 . S
C646 C647 1.424 . S
C647 H639 0.951 . S
C647 C646 1.424 . S
C647 C648 1.347 . S
C648 H640 0.951 . S
C648 C643 1.429 . S
C648 C647 1.347 . S
H649 C650 0.951 . S
C650 H649 0.951 . S
C650 C656 1.265 . S
H651 C656 0.950 . S
H652 C660 0.949 . S
H653 C661 0.950 . S
H654 C662 0.951 . S
H655 C663 0.951 . S
C656 C650 1.265 . S
C656 H651 0.950 . S
C656 C657 1.478 . S
C657 C644 1.394 1_554 S
C657 C656 1.478 . S
C657 C658 1.397 . S
C658 C657 1.397 . S
C658 C659 1.438 . S
C658 C663 1.429 . S
C659 C642 1.394 . S
C659 C658 1.438 . S
C659 C660 1.428 . S
C660 H652 0.949 . S
C660 C659 1.428 . S
C660 C661 1.345 . S
C661 H653 0.950 . S
C661 C660 1.345 . S
C661 C662 1.424 . S
C662 H654 0.951 . S
C662 C661 1.424 . S
C662 C663 1.347 . S
C663 H655 0.951 . S
C663 C658 1.429 . S
C663 C662 1.347 . S
H664 C665 0.951 . S
C665 H664 0.951 . S
C665 C671 1.265 . S
H666 C671 0.950 . S
H667 C675 0.949 . S
H668 C676 0.950 . S
H669 C677 0.951 . S
H670 C678 0.951 . S
C671 C665 1.265 . S
C671 H666 0.950 . S
C671 C672 1.478 . S
C672 C671 1.478 . S
C672 C673 1.397 . S
C672 C689 1.394 1_554 S
C673 C672 1.397 . S
C673 C674 1.438 . S
C673 C678 1.429 . S
C674 C673 1.438 . S
C674 C675 1.428 . S
C674 C687 1.394 . S
C675 H667 0.949 . S
C675 C674 1.428 . S
C675 C676 1.345 . S
C676 H668 0.950 . S
C676 C675 1.345 . S
C676 C677 1.424 . S
C677 H669 0.951 . S
C677 C676 1.424 . S
C677 C678 1.347 . S
C678 H670 0.951 . S
C678 C673 1.429 . S
C678 C677 1.347 . S
H679 C680 0.951 . S
C680 H679 0.951 . S
C680 C686 1.265 . S
H681 C686 0.950 . S
H682 C690 0.949 . S
H683 C691 0.950 . S
H684 C692 0.951 . S
H685 C693 0.951 . S
C686 C680 1.265 . S
C686 H681 0.950 . S
C686 C687 1.478 . S
C687 C674 1.394 . S
C687 C686 1.478 . S
C687 C688 1.397 1_554 S
C688 C687 1.397 1_556 S
C688 C689 1.438 . S
C688 C693 1.429 . S
C689 C672 1.394 1_556 S
C689 C688 1.438 . S
C689 C690 1.428 . S
C690 H682 0.949 . S
C690 C689 1.428 . S
C690 C691 1.345 . S
C691 H683 0.950 . S
C691 C690 1.345 . S
C691 C692 1.424 . S
C692 H684 0.951 . S
C692 C691 1.424 . S
C692 C693 1.347 . S
C693 H685 0.951 . S
C693 C688 1.429 . S
C693 C692 1.347 . S
H694 C695 0.951 . S
C695 H694 0.951 . S
C695 C701 1.265 . S
H696 C701 0.950 . S
H697 C705 0.949 . S
H698 C706 0.950 . S
H699 C707 0.951 . S
H700 C708 0.951 . S
C701 C695 1.265 . S
C701 H696 0.950 . S
C701 C702 1.478 . S
C702 C701 1.478 . S
C702 C703 1.397 . S
C702 C719 1.394 1_554 S
C703 C702 1.397 . S
C703 C704 1.438 . S
C703 C708 1.429 . S
C704 C703 1.438 . S
C704 C705 1.428 . S
C704 C717 1.394 . S
C705 H697 0.949 . S
C705 C704 1.428 . S
C705 C706 1.345 . S
C706 H698 0.950 . S
C706 C705 1.345 . S
C706 C707 1.424 . S
C707 H699 0.951 . S
C707 C706 1.424 . S
C707 C708 1.347 . S
C708 H700 0.951 . S
C708 C703 1.429 . S
C708 C707 1.347 . S
H709 C710 0.951 . S
C710 H709 0.951 . S
C710 C716 1.265 . S
H711 C716 0.950 . S
H712 C720 0.949 . S
H713 C721 0.950 . S
H714 C722 0.951 . S
H715 C723 0.951 . S
C716 C710 1.265 . S
C716 H711 0.950 . S
C716 C717 1.478 . S
C717 C704 1.394 . S
C717 C716 1.478 . S
C717 C718 1.397 1_554 S
C718 C717 1.397 1_556 S
C718 C719 1.438 . S
C718 C723 1.429 . S
C719 C702 1.394 1_556 S
C719 C718 1.438 . S
C719 C720 1.428 . S
C720 H712 0.949 . S
C720 C719 1.428 . S
C720 C721 1.345 . S
C721 H713 0.950 . S
C721 C720 1.345 . S
C721 C722 1.424 . S
C722 H714 0.951 . S
C722 C721 1.424 . S
C722 C723 1.347 . S
C723 H715 0.951 . S
C723 C718 1.429 . S
C723 C722 1.347 . S
H724 C725 0.951 . S
C725 H724 0.951 . S
C725 C731 1.265 . S
H726 C731 0.950 . S
H727 C735 0.949 . S
H728 C736 0.950 . S
H729 C737 0.951 . S
H730 C738 0.951 . S
C731 C725 1.265 . S
C731 H726 0.950 . S
C731 C732 1.478 . S
C732 C731 1.478 . S
C732 C733 1.397 1_554 S
C732 C749 1.394 . S
C733 C732 1.397 1_556 S
C733 C734 1.438 . S
C733 C738 1.429 . S
C734 C733 1.438 . S
C734 C735 1.428 . S
C734 C747 1.394 1_556 S
C735 H727 0.949 . S
C735 C734 1.428 . S
C735 C736 1.345 . S
C736 H728 0.950 . S
C736 C735 1.345 . S
C736 C737 1.424 . S
C737 H729 0.951 . S
C737 C736 1.424 . S
C737 C738 1.347 . S
C738 H730 0.951 . S
C738 C733 1.429 . S
C738 C737 1.347 . S
H739 C740 0.951 . S
C740 H739 0.951 . S
C740 C746 1.265 . S
H741 C746 0.950 . S
H742 C750 0.949 . S
H743 C751 0.950 . S
H744 C752 0.951 . S
H745 C753 0.951 . S
C746 C740 1.265 . S
C746 H741 0.950 . S
C746 C747 1.478 . S
C747 C734 1.394 1_554 S
C747 C746 1.478 . S
C747 C748 1.397 . S
C748 C747 1.397 . S
C748 C749 1.438 . S
C748 C753 1.429 . S
C749 C732 1.394 . S
C749 C748 1.438 . S
C749 C750 1.428 . S
C750 H742 0.949 . S
C750 C749 1.428 . S
C750 C751 1.345 . S
C751 H743 0.950 . S
C751 C750 1.345 . S
C751 C752 1.424 . S
C752 H744 0.951 . S
C752 C751 1.424 . S
C752 C753 1.347 . S
C753 H745 0.951 . S
C753 C748 1.429 . S
C753 C752 1.347 . S
C410 C378 1.601 . S
C395 C11 1.079 1_455 S
C440 C374 1.614 . S
C425 C143 1.432 . S
C470 C384 1.338 . S
C455 C1 1.228 . S
C500 C368 1.695 . S
C485 C169 1.310 . S
C515 C29 1.334 . S
C530 C360 1.584 . S
C560 C392 1.859 1_565 S
C545 C125 1.053 1_545 S
C575 C55 1.515 . S
C590 C346 1.720 . S
C605 C115 1.372 . S
C620 C390 1.567 . S
C635 C283 0.973 . S
C650 C372 1.150 . S
C665 C239 0.582 . S
C680 C387 1.061 . S
C710 C381 0.919 . S
C695 C257 0.976 . S
C740 C376 0.938 . S
C725 C229 0.635 1_554 S
