# Generated by pormake.
# Topology the, (3,8)-cn, num edge types: 1
# Building blocks:
#     Node 0, Type 0, BuildingBlock: CUQRIR_clean_linker_1, # of connection points: 3
#     Node 1, Type 0, BuildingBlock: CUQRIR_clean_linker_1, # of connection points: 3
#     Node 2, Type 0, BuildingBlock: CUQRIR_clean_linker_1, # of connection points: 3
#     Node 3, Type 0, BuildingBlock: CUQRIR_clean_linker_1, # of connection points: 3
#     Node 4, Type 0, BuildingBlock: CUQRIR_clean_linker_1, # of connection points: 3
#     Node 5, Type 0, BuildingBlock: CUQRIR_clean_linker_1, # of connection points: 3
#     Node 6, Type 0, BuildingBlock: CUQRIR_clean_linker_1, # of connection points: 3
#     Node 7, Type 0, BuildingBlock: CUQRIR_clean_linker_1, # of connection points: 3
#     Node 8, Type 1, BuildingBlock: GIZVER_clean_sbu_0, # of connection points: 8
#     Node 9, Type 1, BuildingBlock: GIZVER_clean_sbu_0, # of connection points: 8
#     Node 10, Type 1, BuildingBlock: GIZVER_clean_sbu_0, # of connection points: 8
#     Edge 11, Type (0, 1), BuildingBlock: KIFKEQ_clean_linker_1, # of connection points: 2
#     Edge 12, Type (0, 1), BuildingBlock: KIFKEQ_clean_linker_1, # of connection points: 2
#     Edge 13, Type (0, 1), BuildingBlock: KIFKEQ_clean_linker_1, # of connection points: 2
#     Edge 14, Type (0, 1), BuildingBlock: KIFKEQ_clean_linker_1, # of connection points: 2
#     Edge 15, Type (0, 1), BuildingBlock: KIFKEQ_clean_linker_1, # of connection points: 2
#     Edge 16, Type (0, 1), BuildingBlock: KIFKEQ_clean_linker_1, # of connection points: 2
#     Edge 17, Type (0, 1), BuildingBlock: KIFKEQ_clean_linker_1, # of connection points: 2
#     Edge 18, Type (0, 1), BuildingBlock: KIFKEQ_clean_linker_1, # of connection points: 2
#     Edge 19, Type (0, 1), BuildingBlock: KIFKEQ_clean_linker_1, # of connection points: 2
#     Edge 20, Type (0, 1), BuildingBlock: KIFKEQ_clean_linker_1, # of connection points: 2
#     Edge 21, Type (0, 1), BuildingBlock: KIFKEQ_clean_linker_1, # of connection points: 2
#     Edge 22, Type (0, 1), BuildingBlock: KIFKEQ_clean_linker_1, # of connection points: 2
#     Edge 23, Type (0, 1), BuildingBlock: KIFKEQ_clean_linker_1, # of connection points: 2
#     Edge 24, Type (0, 1), BuildingBlock: KIFKEQ_clean_linker_1, # of connection points: 2
#     Edge 25, Type (0, 1), BuildingBlock: KIFKEQ_clean_linker_1, # of connection points: 2
#     Edge 26, Type (0, 1), BuildingBlock: KIFKEQ_clean_linker_1, # of connection points: 2
#     Edge 27, Type (0, 1), BuildingBlock: KIFKEQ_clean_linker_1, # of connection points: 2
#     Edge 28, Type (0, 1), BuildingBlock: KIFKEQ_clean_linker_1, # of connection points: 2
#     Edge 29, Type (0, 1), BuildingBlock: KIFKEQ_clean_linker_1, # of connection points: 2
#     Edge 30, Type (0, 1), BuildingBlock: KIFKEQ_clean_linker_1, # of connection points: 2
#     Edge 31, Type (0, 1), BuildingBlock: KIFKEQ_clean_linker_1, # of connection points: 2
#     Edge 32, Type (0, 1), BuildingBlock: KIFKEQ_clean_linker_1, # of connection points: 2
#     Edge 33, Type (0, 1), BuildingBlock: KIFKEQ_clean_linker_1, # of connection points: 2
#     Edge 34, Type (0, 1), BuildingBlock: KIFKEQ_clean_linker_1, # of connection points: 2
# Relax obj value: 0.076
# Max RMSD: 0.231
# Mean RMSD: 0.153
data_MOF--net-the--node1-GIZVER_clean_sbu_0--node2-CUQRIR_clean_linker_1--edge1-KIFKEQ_clean_linker_1
_symmetry_space_group_name_H-M    P1
_symmetry_Int_Tables_number       1
_symmetry_cell_setting            triclinic
loop_
_symmetry_equiv_pos_as_xyz
'x, y, z'
_cell_length_a     39.125319
_cell_length_b     36.508298
_cell_length_c     32.686363
_cell_angle_alpha  84.519584
_cell_angle_beta   97.365712
_cell_angle_gamma 107.55572
loop_
_atom_site_label
_atom_site_type_symbol
_atom_site_fract_x
_atom_site_fract_y
_atom_site_fract_z
_atom_type_partial_charge
C0 C 0.38243 0.33358 0.46218 0.0
N1 N 0.40173 0.33223 0.43101 0.0
N2 N 0.36348 0.35923 0.45195 0.0
C3 C 0.38116 0.30885 0.50193 0.0
C4 C 0.37161 0.37313 0.41336 0.0
N5 N 0.39454 0.35642 0.40043 0.0
C6 C 0.35646 0.40269 0.3884 0.0
H7 H 0.37392 0.27811 0.49494 0.0
H8 H 0.36183 0.31288 0.5218 0.0
H9 H 0.40819 0.31632 0.51967 0.0
H10 H 0.36724 0.43054 0.4032 0.0
H11 H 0.32669 0.3937 0.38818 0.0
H12 H 0.36348 0.40763 0.35621 0.0
C13 C 0.72102 0.3037 0.26206 0.0
N14 N 0.74494 0.29525 0.29252 0.0
N15 N 0.73377 0.34031 0.24616 0.0
C16 C 0.68323 0.27799 0.25173 0.0
C17 C 0.76615 0.35395 0.26857 0.0
N18 N 0.77291 0.32667 0.29682 0.0
C19 C 0.79122 0.39399 0.26321 0.0
H20 H 0.68326 0.2599 0.22633 0.0
H21 H 0.66423 0.29507 0.2415 0.0
H22 H 0.67321 0.25871 0.2787 0.0
H23 H 0.7864 0.4123 0.28575 0.0
H24 H 0.78663 0.40668 0.23151 0.0
H25 H 0.8197 0.39373 0.26949 0.0
C26 C 0.79811 0.75021 0.37569 0.0
N27 N 0.79753 0.72433 0.34841 0.0
N28 N 0.77582 0.7715 0.36089 0.0
C29 C 0.82016 0.75431 0.41715 0.0
C30 C 0.76148 0.75752 0.32351 0.0
N31 N 0.77503 0.72905 0.31554 0.0
C32 C 0.73056 0.76787 0.29764 0.0
H33 H 0.80515 0.73303 0.43996 0.0
H34 H 0.82542 0.7836 0.42796 0.0
H35 H 0.84616 0.74842 0.41557 0.0
H36 H 0.71542 0.78016 0.31629 0.0
H37 H 0.71152 0.74226 0.28306 0.0
H38 H 0.74137 0.78961 0.2728 0.0
C39 C 0.33849 0.67777 0.3149 0.0
N40 N 0.3725 0.70194 0.31457 0.0
N41 N 0.31996 0.68904 0.34119 0.0
C42 C 0.32435 0.64128 0.29222 0.0
C43 C 0.34408 0.72095 0.35688 0.0
N44 N 0.37604 0.72881 0.34095 0.0
C45 C 0.33643 0.74483 0.38766 0.0
H46 H 0.30566 0.6185 0.31042 0.0
H47 H 0.34651 0.63043 0.28547 0.0
H48 H 0.30931 0.64727 0.26245 0.0
H49 H 0.30716 0.74157 0.38588 0.0
H50 H 0.35132 0.77567 0.38217 0.0
H51 H 0.34571 0.7353 0.41926 0.0
C52 C 0.36175 0.69028 0.75292 0.0
N53 N 0.39403 0.71747 0.75904 0.0
N54 N 0.34047 0.70156 0.72135 0.0
C55 C 0.35027 0.65342 0.77927 0.0
C56 C 0.36085 0.73696 0.7087 0.0
N57 N 0.39329 0.74696 0.73196 0.0
C58 C 0.35079 0.75962 0.67053 0.0
H59 H 0.35873 0.63079 0.76654 0.0
H60 H 0.32056 0.64347 0.77959 0.0
H61 H 0.36323 0.65739 0.81144 0.0
H62 H 0.33672 0.77945 0.67932 0.0
H63 H 0.33245 0.74035 0.6476 0.0
H64 H 0.37505 0.77695 0.65577 0.0
C65 C 0.36953 0.30343 0.67489 0.0
N66 N 0.36601 0.32803 0.70144 0.0
N67 N 0.39815 0.29033 0.68815 0.0
C68 C 0.34482 0.2921 0.63601 0.0
C69 C 0.41201 0.30798 0.72387 0.0
N70 N 0.39232 0.33086 0.73227 0.0
C71 C 0.44696 0.30604 0.74794 0.0
H72 H 0.31695 0.29176 0.63986 0.0
H73 H 0.34452 0.26335 0.62733 0.0
H74 H 0.35451 0.31357 0.61048 0.0
H75 H 0.46202 0.33412 0.76086 0.0
H76 H 0.46429 0.29788 0.7283 0.0
H77 H 0.44102 0.284 0.77394 0.0
C78 C 0.73835 0.32441 0.7468 0.0
N79 N 0.7612 0.31483 0.72481 0.0
N80 N 0.75651 0.3534 0.77145 0.0
C81 C 0.69818 0.30592 0.74412 0.0
C82 C 0.79132 0.36093 0.76384 0.0
N83 N 0.79425 0.33728 0.73569 0.0
C84 C 0.82243 0.39214 0.78285 0.0
H85 H 0.68761 0.28939 0.71622 0.0
H86 H 0.68413 0.32813 0.74441 0.0
H87 H 0.69175 0.28578 0.77159 0.0
H88 H 0.8429 0.37934 0.79968 0.0
H89 H 0.81415 0.40799 0.80514 0.0
H90 H 0.83539 0.41256 0.75805 0.0
C91 C 0.7693 0.71739 0.66516 0.0
N92 N 0.77943 0.68489 0.66963 0.0
N93 N 0.77767 0.73649 0.62861 0.0
C94 C 0.75033 0.73009 0.69601 0.0
C95 C 0.79267 0.71416 0.61056 0.0
N96 N 0.79353 0.68245 0.63547 0.0
C97 C 0.80901 0.72498 0.57025 0.0
H98 H 0.73517 0.70543 0.71538 0.0
H99 H 0.73148 0.74559 0.6801 0.0
H100 H 0.77075 0.75004 0.7167 0.0
H101 H 0.81396 0.75612 0.56151 0.0
H102 H 0.7902 0.70838 0.5456 0.0
H103 H 0.83479 0.71776 0.57226 0.0
Co104 Co 0.12948 0.46476 0.56364 0.0
Co105 Co 0.09741 0.44249 0.49029 0.0
Co106 Co 0.05442 0.49094 0.52704 0.0
O107 O 0.07966 0.44994 0.53836 0.0
H108 H 0.06488 0.4261 0.55029 0.0
O109 O 0.03092 0.53271 0.51682 0.0
Co110 Co 0.98181 0.52368 0.495 0.0
Co111 Co 0.01756 0.54039 0.56702 0.0
H112 H 0.04654 0.55638 0.50556 0.0
O113 O 0.11272 0.3996 0.4848 0.0
O114 O 0.14565 0.45514 0.51206 0.0
O115 O 0.09538 0.4789 0.44384 0.0
O116 O 0.08688 0.52082 0.48356 0.0
O117 O 0.01858 0.4594 0.48414 0.0
O118 O 0.93699 0.51975 0.47264 0.0
O119 O 0.98476 0.57283 0.47704 0.0
O120 O 0.9729 0.47055 0.50918 0.0
O121 O 0.02175 0.46092 0.56986 0.0
O122 O 0.01976 0.50323 0.61295 0.0
O123 O 0.96902 0.5325 0.54961 0.0
O124 O 1.00894 0.58542 0.57646 0.0
C125 C 0.16374 0.43807 0.59887 0.0
C126 C 0.12207 0.53455 0.56665 0.0
C127 C 0.09824 0.51324 0.45122 0.0
C128 C 0.14354 0.4215 0.50014 0.0
C129 C 0.95088 0.55652 0.46469 0.0
C130 C 0.98467 0.45093 0.48723 0.0
C131 C 1.01328 0.46868 0.60379 0.0
C132 C 0.9759 0.56591 0.56509 0.0
O133 O 0.17368 0.4746 0.58827 0.0
O134 O 0.13105 0.4173 0.58637 0.0
O135 O 0.08851 0.52271 0.57036 0.0
O136 O 0.13533 0.5163 0.54512 0.0
Co137 Co 0.61932 0.9546 0.51122 0.0
Co138 Co 0.63801 0.98908 0.58163 0.0
Co139 Co 0.58115 0.02358 0.52601 0.0
O140 O 0.6242 1.00469 0.52784 0.0
H141 H 0.64444 0.02386 0.51695 0.0
O142 O 0.53912 0.04476 0.52269 0.0
Co143 Co 0.5469 0.0969 0.53836 0.0
Co144 Co 0.52782 0.0626 0.46749 0.0
H145 H 0.51831 0.02648 0.53349 0.0
O146 O 0.68393 0.98293 0.59728 0.0
O147 O 0.6349 0.94 0.56841 0.0
O148 O 0.60362 0.98168 0.62073 0.0
O149 O 0.55875 0.98667 0.5731 0.0
O150 O 0.61023 0.06252 0.56646 0.0
O151 O 0.54954 0.14317 0.55379 0.0
O152 O 0.50114 0.0907 0.54993 0.0
O153 O 0.59612 0.11061 0.52985 0.0
O154 O 0.60416 0.05996 0.48006 0.0
O155 O 0.56301 0.06721 0.42897 0.0
O156 O 0.53569 0.11313 0.48048 0.0
O157 O 0.48465 0.07583 0.44926 0.0
C158 C 0.6515 0.92808 0.48802 0.0
C159 C 0.54976 0.94776 0.49377 0.0
C160 C 0.5702 0.97515 0.60921 0.0
C161 C 0.6683 0.94881 0.58421 0.0
C162 C 0.51578 0.12664 0.55882 0.0
C163 C 0.61714 0.0985 0.55681 0.0
C164 C 0.59567 0.07189 0.44331 0.0
C165 C 0.50368 0.10925 0.4618 0.0
O166 O 0.61856 0.90954 0.49492 0.0
O167 O 0.66464 0.96423 0.49657 0.0
O168 O 0.55227 0.98349 0.48566 0.0
O169 O 0.57124 0.93866 0.52259 0.0
Co170 Co 0.53014 0.55965 0.10901 0.0
Co171 Co 0.50699 0.49256 0.07927 0.0
Co172 Co 0.566 0.54781 0.02284 0.0
O173 O 0.52302 0.54187 0.05391 0.0
H174 H 0.50362 0.54875 0.03672 0.0
O175 O 0.60946 0.55291 0.99379 0.0
Co176 Co 0.60433 0.52605 0.9453 0.0
Co177 Co 0.62603 0.59699 0.96149 0.0
H178 H 0.62927 0.54934 1.01306 0.0
O179 O 0.46124 0.47113 0.09596 0.0
O180 O 0.51066 0.50641 0.13341 0.0
O181 O 0.53728 0.45918 0.07969 0.0
O182 O 0.58293 0.50666 0.05766 0.0
O183 O 0.53327 0.50835 0.98402 0.0
O184 O 0.6025 0.49877 0.90242 0.0
O185 O 0.64625 0.51379 0.95539 0.0
O186 O 0.55987 0.53526 0.9289 0.0
O187 O 0.54976 0.58981 0.98671 0.0
O188 O 0.59392 0.62801 0.9511 0.0
O189 O 0.62789 0.57417 0.91364 0.0
O190 O 0.67385 0.61509 0.95029 0.0
C191 C 0.50223 0.5824 0.14468 0.0
C192 C 0.60146 0.57843 0.10085 0.0
C193 C 0.57039 0.47306 0.07456 0.0
C194 C 0.47809 0.48283 0.13139 0.0
C195 C 0.63308 0.49612 0.9214 0.0
C196 C 0.53274 0.51271 0.94465 0.0
C197 C 0.56226 0.61915 0.96198 0.0
C198 C 0.66154 0.5948 0.91814 0.0
O199 O 0.53366 0.57831 0.15838 0.0
O200 O 0.48714 0.56971 0.10859 0.0
O201 O 0.59866 0.58654 0.06186 0.0
O202 O 0.57609 0.55287 0.11668 0.0
H203 H 0.36016 0.42659 0.47513 0.0
H204 H 0.30376 0.30556 0.47433 0.0
H205 H 0.30709 0.43947 0.4942 0.0
H206 H 0.25145 0.31726 0.49782 0.0
H207 H 0.15043 0.35739 0.46949 0.0
H208 H 0.20523 0.34 0.46759 0.0
H209 H 0.26552 0.43852 0.53719 0.0
H210 H 0.21142 0.45809 0.53475 0.0
C211 C 0.33653 0.40266 0.48033 0.0
C212 C 0.33563 0.36529 0.47274 0.0
C213 C 0.30614 0.40982 0.49184 0.0
C214 C 0.27439 0.37947 0.49699 0.0
C215 C 0.27485 0.34155 0.49292 0.0
C216 C 0.30498 0.33463 0.48025 0.0
C217 C 0.1754 0.37529 0.48443 0.0
C218 C 0.17643 0.40911 0.5023 0.0
C219 C 0.20693 0.36502 0.48391 0.0
C220 C 0.24021 0.38782 0.50217 0.0
C221 C 0.24076 0.42064 0.52188 0.0
C222 C 0.20947 0.43162 0.52106 0.0
H223 H 0.73802 0.28766 0.37416 0.0
H224 H 0.73357 0.22421 0.26823 0.0
H225 H 0.70795 0.22782 0.41215 0.0
H226 H 0.7027 0.16427 0.30556 0.0
H227 H 0.66461 0.10833 0.4742 0.0
H228 H 0.70958 0.15935 0.44003 0.0
H229 H 0.63803 0.14707 0.32688 0.0
H230 H 0.59255 0.09628 0.36112 0.0
C231 C 0.73211 0.26063 0.3598 0.0
C232 C 0.73827 0.26028 0.31854 0.0
C233 C 0.71458 0.22642 0.38127 0.0
C234 C 0.70254 0.19149 0.36153 0.0
C235 C 0.71135 0.19082 0.32135 0.0
C236 C 0.72932 0.2249 0.30021 0.0
C237 C 0.65862 0.11586 0.44177 0.0
C238 C 0.62481 0.09819 0.42038 0.0
C239 C 0.68441 0.14528 0.42235 0.0
C240 C 0.67732 0.15718 0.38088 0.0
C241 C 0.64436 0.13819 0.35882 0.0
C242 C 0.61826 0.1092 0.37844 0.0
H243 H 0.78126 0.66395 0.40296 0.0
H244 H 0.85506 0.72027 0.31377 0.0
H245 H 0.81819 0.62131 0.42754 0.0
H246 H 0.89258 0.6775 0.33802 0.0
H247 H 0.87835 0.53199 0.44243 0.0
H248 H 0.83967 0.56931 0.40803 0.0
H249 H 0.93182 0.67038 0.40353 0.0
H250 H 0.97082 0.63287 0.43779 0.0
C251 C 0.80499 0.66625 0.38793 0.0
C252 C 0.81529 0.69477 0.35629 0.0
C253 C 0.82619 0.64201 0.40193 0.0
C254 C 0.85844 0.64611 0.38485 0.0
C255 C 0.86805 0.67387 0.35203 0.0
C256 C 0.8465 0.69793 0.33775 0.0
C257 C 0.89051 0.56212 0.43395 0.0
C258 C 0.92774 0.57945 0.44299 0.0
C259 C 0.86825 0.58353 0.41429 0.0
C260 C 0.88264 0.6228 0.40297 0.0
C261 C 0.91997 0.64005 0.41136 0.0
C262 C 0.94227 0.61864 0.4313 0.0
H263 H 0.40677 0.79832 0.3036 0.0
H264 H 0.41531 0.72547 0.41329 0.0
H265 H 0.4512 0.85304 0.33727 0.0
H266 H 0.45786 0.77938 0.44798 0.0
H267 H 0.54952 0.87292 0.49814 0.0
H268 H 0.51415 0.82156 0.45594 0.0
H269 H 0.45838 0.8979 0.38823 0.0
H270 H 0.49656 0.95109 0.42929 0.0
C271 C 0.4192 0.79386 0.33448 0.0
C272 C 0.40855 0.75755 0.35556 0.0
C273 C 0.444 0.82532 0.35422 0.0
C274 C 0.4584 0.82115 0.39569 0.0
C275 C 0.44841 0.78412 0.4159 0.0
C276 C 0.42407 0.7529 0.39604 0.0
C277 C 0.5301 0.87929 0.47402 0.0
C278 C 0.52618 0.91659 0.46731 0.0
C279 C 0.50926 0.84931 0.44987 0.0
C280 C 0.48269 0.85488 0.4187 0.0
C281 C 0.47874 0.8923 0.41157 0.0
C282 C 0.50038 0.92284 0.43542 0.0
H283 H 0.2793 0.7224 0.70125 0.0
H284 H 0.3252 0.62956 0.6967 0.0
H285 H 0.22187 0.68356 0.66684 0.0
H286 H 0.26792 0.59034 0.66395 0.0
H287 H 0.15245 0.5171 0.64195 0.0
H288 H 0.20365 0.55913 0.68276 0.0
H289 H 0.20046 0.65446 0.59481 0.0
H290 H 0.14943 0.61196 0.55372 0.0
C291 C 0.27695 0.69364 0.69304 0.0
C292 C 0.30644 0.67874 0.70197 0.0
C293 C 0.24422 0.67145 0.67351 0.0
C294 C 0.24033 0.63378 0.6632 0.0
C295 C 0.26987 0.61898 0.6723 0.0
C296 C 0.30261 0.64132 0.69113 0.0
C297 C 0.16222 0.54727 0.63202 0.0
C298 C 0.14703 0.56159 0.59512 0.0
C299 C 0.19159 0.57122 0.65512 0.0
C300 C 0.20615 0.61 0.64181 0.0
C301 C 0.18959 0.6248 0.60597 0.0
C302 C 0.16042 0.60062 0.58256 0.0
H303 H 0.41788 0.30161 0.61071 0.0
H304 H 0.40998 0.22354 0.71887 0.0
H305 H 0.44254 0.26029 0.57567 0.0
H306 H 0.43508 0.18214 0.68433 0.0
H307 H 0.45285 0.10036 0.59584 0.0
H308 H 0.42139 0.139 0.62506 0.0
H309 H 0.49969 0.24293 0.58408 0.0
H310 H 0.53101 0.2046 0.55533 0.0
C311 C 0.42128 0.2754 0.62679 0.0
C312 C 0.41214 0.26562 0.6674 0.0
C313 C 0.43555 0.25185 0.60692 0.0
C314 C 0.44079 0.21787 0.6272 0.0
C315 C 0.43101 0.20784 0.66767 0.0
C316 C 0.41699 0.2316 0.6876 0.0
C317 C 0.46308 0.13145 0.59281 0.0
C318 C 0.4946 0.14938 0.57363 0.0
C319 C 0.44523 0.15357 0.60973 0.0
C320 C 0.45815 0.19407 0.60712 0.0
C321 C 0.48887 0.21187 0.58649 0.0
C322 C 0.50698 0.18983 0.57023 0.0
H323 H 0.80188 0.35497 0.6549 0.0
H324 H 0.85839 0.33032 0.77117 0.0
H325 H 0.85897 0.37746 0.62382 0.0
H326 H 0.91587 0.35441 0.74085 0.0
H327 H 0.99811 0.46852 0.6833 0.0
H328 H 0.94616 0.42586 0.71526 0.0
H329 H 0.91552 0.35892 0.60748 0.0
H330 H 0.96796 0.40088 0.57583 0.0
C331 C 0.82644 0.35327 0.67336 0.0
C332 C 0.82597 0.34143 0.71544 0.0
C333 C 0.85912 0.3663 0.65574 0.0
C334 C 0.8919 0.36814 0.68011 0.0
C335 C 0.89106 0.35373 0.7215 0.0
C336 C 0.85831 0.34005 0.73883 0.0
C337 C 0.98095 0.44402 0.66694 0.0
C338 C 0.98716 0.43826 0.62697 0.0
C339 C 0.95121 0.41956 0.68525 0.0
C340 C 0.92668 0.38924 0.66369 0.0
C341 C 0.93391 0.38217 0.62469 0.0
C342 C 0.9641 0.40612 0.60673 0.0
H343 H 0.73657 0.74753 0.55894 0.0
H344 H 0.80264 0.80418 0.66367 0.0
H345 H 0.71439 0.80364 0.54029 0.0
H346 H 0.78025 0.85995 0.64602 0.0
H347 H 0.74134 0.96146 0.59691 0.0
H348 H 0.77414 0.91388 0.59825 0.0
H349 H 0.67316 0.82499 0.57517 0.0
H350 H 0.64065 0.87224 0.57343 0.0
C351 C 0.74699 0.77256 0.57716 0.0
C352 C 0.7708 0.77185 0.61285 0.0
C353 C 0.73423 0.80443 0.56678 0.0
C354 C 0.74525 0.83593 0.59201 0.0
C355 C 0.77141 0.83627 0.62582 0.0
C356 C 0.78405 0.80441 0.63614 0.0
C357 C 0.72625 0.93173 0.59213 0.0
C358 C 0.68845 0.92047 0.58541 0.0
C359 C 0.74501 0.90459 0.59268 0.0
C360 C 0.72624 0.86577 0.58659 0.0
C361 C 0.68848 0.85478 0.57918 0.0
C362 C 0.6698 0.8818 0.57868 0.0
H363 H 0.45887 0.32461 0.48244 0.0
H364 H 0.38787 0.27799 0.37597 0.0
H365 H 0.48408 0.27058 0.4883 0.0
H366 H 0.41436 0.22469 0.37985 0.0
H367 H 0.43484 0.11106 0.43466 0.0
H368 H 0.41275 0.16743 0.42341 0.0
H369 H 0.52008 0.24057 0.4588 0.0
H370 H 0.54176 0.18438 0.47116 0.0
C371 C 0.4493 0.30303 0.45978 0.0
C372 C 0.42138 0.30504 0.429 0.0
C373 C 0.46385 0.27222 0.46284 0.0
C374 C 0.45107 0.24299 0.43471 0.0
C375 C 0.42437 0.24627 0.40248 0.0
C376 C 0.40963 0.27702 0.39974 0.0
C377 C 0.45367 0.13921 0.43992 0.0
C378 C 0.48998 0.14319 0.45397 0.0
C379 C 0.4411 0.17159 0.43318 0.0
C380 C 0.46464 0.20866 0.44011 0.0
C381 C 0.50105 0.21251 0.45368 0.0
C382 C 0.51352 0.18022 0.46063 0.0
H383 H 0.83423 0.3066 0.29996 0.0
H384 H 0.77811 0.36374 0.36486 0.0
H385 H 0.88843 0.32833 0.34931 0.0
H386 H 0.8315 0.38581 0.41388 0.0
H387 H 0.9213 0.40553 0.51152 0.0
H388 H 0.87037 0.3663 0.46895 0.0
H389 H 0.93422 0.39019 0.36576 0.0
H390 H 0.98594 0.42881 0.40928 0.0
C391 C 0.83338 0.32294 0.32557 0.0
C392 C 0.80211 0.33301 0.32943 0.0
C393 C 0.86437 0.33577 0.35346 0.0
C394 C 0.8644 0.35873 0.38577 0.0
C395 C 0.83242 0.36757 0.39004 0.0
C396 C 0.80178 0.355 0.3621 0.0
C397 C 0.9248 0.40163 0.48003 0.0
C398 C 0.95753 0.42053 0.46362 0.0
C399 C 0.89547 0.37936 0.45549 0.0
C400 C 0.89782 0.37576 0.41359 0.0
C401 C 0.93144 0.39226 0.39793 0.0
C402 C 0.96112 0.41437 0.42281 0.0
H403 H 0.7478 0.75474 0.43367 0.0
H404 H 0.77641 0.84459 0.33785 0.0
H405 H 0.72253 0.79503 0.4689 0.0
H406 H 0.75032 0.8851 0.37247 0.0
H407 H 0.71954 0.95694 0.46257 0.0
H408 H 0.75464 0.92089 0.4355 0.0
H409 H 0.66858 0.81572 0.45232 0.0
H410 H 0.63398 0.8512 0.47922 0.0
C411 C 0.74919 0.7835 0.42066 0.0
C412 C 0.76404 0.79679 0.38327 0.0
C413 C 0.7345 0.80647 0.44056 0.0
C414 C 0.73424 0.84324 0.4234 0.0
C415 C 0.75041 0.8571 0.3867 0.0
C416 C 0.76509 0.83397 0.36675 0.0
C417 C 0.70828 0.92612 0.46055 0.0
C418 C 0.67382 0.90705 0.47264 0.0
C419 C 0.7283 0.90551 0.44499 0.0
C420 C 0.71441 0.86543 0.4418 0.0
C421 C 0.68032 0.84645 0.4548 0.0
C422 C 0.66029 0.86695 0.46988 0.0
H423 H 0.25734 0.66302 0.29238 0.0
H424 H 0.30372 0.6676 0.41934 0.0
H425 H 0.19877 0.62446 0.31451 0.0
H426 H 0.24536 0.63028 0.4417 0.0
H427 H 0.13133 0.58711 0.47345 0.0
H428 H 0.18238 0.63373 0.44392 0.0
H429 H 0.17426 0.55754 0.34763 0.0
H430 H 0.1232 0.51072 0.37712 0.0
C431 C 0.25484 0.656 0.325 0.0
C432 C 0.28494 0.66844 0.35418 0.0
C433 C 0.22141 0.63406 0.33769 0.0
C434 C 0.21733 0.62457 0.3799 0.0
C435 C 0.24737 0.63772 0.40903 0.0
C436 C 0.2808 0.65914 0.3963 0.0
C437 C 0.13972 0.58062 0.44534 0.0
C438 C 0.1232 0.54492 0.42787 0.0
C439 C 0.16925 0.60726 0.42866 0.0
C440 C 0.18269 0.59912 0.39377 0.0
C441 C 0.16452 0.56474 0.37446 0.0
C442 C 0.13524 0.53787 0.39143 0.0
H443 H 0.4618 0.75422 0.71759 0.0
H444 H 0.3888 0.81896 0.73122 0.0
H445 H 0.50595 0.81349 0.69398 0.0
H446 H 0.43226 0.87809 0.7066 0.0
H447 H 0.49594 0.95244 0.59822 0.0
H448 H 0.45493 0.89928 0.63541 0.0
H449 H 0.54521 0.88012 0.71566 0.0
H450 H 0.58615 0.9333 0.67922 0.0
C451 C 0.4557 0.78132 0.71665 0.0
C452 C 0.42199 0.78215 0.72616 0.0
C453 C 0.48077 0.81521 0.70287 0.0
C454 C 0.47235 0.8504 0.69791 0.0
C455 C 0.43932 0.85139 0.70951 0.0
C456 C 0.4146 0.81769 0.72382 0.0
C457 C 0.50701 0.93746 0.62432 0.0
C458 C 0.54445 0.9473 0.6355 0.0
C459 C 0.4835 0.90697 0.64564 0.0
C460 C 0.49691 0.88529 0.67826 0.0
C461 C 0.53411 0.89599 0.69041 0.0
C462 C 0.55753 0.92676 0.66958 0.0
H463 H 0.36557 0.38952 0.65025 0.0
H464 H 0.30406 0.30801 0.73692 0.0
H465 H 0.31464 0.41559 0.62987 0.0
H466 H 0.25232 0.33353 0.71631 0.0
H467 H 0.16005 0.36128 0.61623 0.0
H468 H 0.20942 0.33546 0.64718 0.0
H469 H 0.27905 0.45106 0.66273 0.0
H470 H 0.23043 0.4767 0.63273 0.0
C471 C 0.34134 0.3781 0.66573 0.0
C472 C 0.33885 0.34776 0.69593 0.0
C473 C 0.31214 0.39267 0.65395 0.0
C474 C 0.27948 0.3766 0.67155 0.0
C475 C 0.27711 0.34639 0.70219 0.0
C476 C 0.3067 0.33222 0.71443 0.0
C477 C 0.18569 0.38105 0.627 0.0
C478 C 0.19123 0.42103 0.62177 0.0
C479 C 0.21392 0.36631 0.6447 0.0
C480 C 0.24816 0.39132 0.65708 0.0
C481 C 0.25314 0.4311 0.65309 0.0
C482 C 0.22509 0.44573 0.63591 0.0
H483 H 0.72463 0.31727 0.64999 0.0
H484 H 0.77437 0.24609 0.73451 0.0
H485 H 0.69622 0.26322 0.6067 0.0
H486 H 0.74721 0.19152 0.69056 0.0
H487 H 0.64699 0.09484 0.63727 0.0
H488 H 0.68943 0.14765 0.67482 0.0
H489 H 0.69968 0.21952 0.5613 0.0
H490 H 0.65601 0.16745 0.52466 0.0
C491 C 0.73031 0.29011 0.65836 0.0
C492 C 0.7514 0.28552 0.69536 0.0
C493 C 0.71417 0.25902 0.63361 0.0
C494 C 0.71905 0.22255 0.6451 0.0
C495 C 0.74222 0.21883 0.68102 0.0
C496 C 0.7582 0.25006 0.70593 0.0
C497 C 0.65888 0.12175 0.62036 0.0
C498 C 0.6478 0.12724 0.57823 0.0
C499 C 0.68336 0.1521 0.6418 0.0
C500 C 0.69768 0.18837 0.62138 0.0
C501 C 0.68851 0.19258 0.57848 0.0
C502 C 0.66364 0.16259 0.55733 0.0
H503 H 0.78314 0.63808 0.57096 0.0
H504 H 0.84847 0.66883 0.68596 0.0
H505 H 0.82541 0.60578 0.55321 0.0
H506 H 0.88981 0.63525 0.66965 0.0
H507 H 0.98141 0.63277 0.59931 0.0
H508 H 0.93323 0.65452 0.61844 0.0
H509 H 0.85446 0.55333 0.56988 0.0
H510 H 0.90302 0.53155 0.54996 0.0
C511 C 0.80597 0.63671 0.59295 0.0
C512 C 0.81277 0.65579 0.62976 0.0
C513 C 0.83006 0.61823 0.58293 0.0
C514 C 0.86126 0.61861 0.60973 0.0
C515 C 0.86635 0.63514 0.64802 0.0
C516 C 0.8424 0.65372 0.65782 0.0
C517 C 0.95387 0.61511 0.59251 0.0
C518 C 0.94611 0.58023 0.57347 0.0
C519 C 0.92623 0.62742 0.60388 0.0
C520 C 0.8901 0.6052 0.59653 0.0
C521 C 0.88209 0.57093 0.57615 0.0
C522 C 0.90989 0.55849 0.56478 0.0
H523 H 0.35824 0.33956 0.32602 0.0
H524 H 0.46315 0.39332 0.38714 0.0
H525 H 0.37809 0.369 0.25967 0.0
H526 H 0.48442 0.42146 0.32055 0.0
H527 H 0.49626 0.50775 0.20962 0.0
H528 H 0.47777 0.47217 0.27393 0.0
H529 H 0.41186 0.37561 0.20489 0.0
H530 H 0.42893 0.41211 0.14071 0.0
C531 C 0.38607 0.3566 0.32468 0.0
C532 C 0.40919 0.36459 0.36128 0.0
C533 C 0.39757 0.37361 0.28675 0.0
C534 C 0.43278 0.39848 0.28454 0.0
C535 C 0.4568 0.40356 0.32106 0.0
C536 C 0.44501 0.38691 0.3591 0.0
C537 C 0.47745 0.4791 0.20824 0.0
C538 C 0.46387 0.4629 0.17005 0.0
C539 C 0.46721 0.45837 0.2452 0.0
C540 C 0.44361 0.42059 0.24497 0.0
C541 C 0.4297 0.40469 0.20655 0.0
C542 C 0.43946 0.42569 0.16959 0.0
H543 H 0.42992 0.75988 0.82365 0.0
H544 H 0.42544 0.66217 0.75683 0.0
H545 H 0.47232 0.74107 0.87847 0.0
H546 H 0.46632 0.64264 0.81162 0.0
H547 H 0.48922 0.59243 0.94394 0.0
H548 H 0.45116 0.62236 0.89519 0.0
H549 H 0.54149 0.7235 0.88046 0.0
H550 H 0.58002 0.69336 0.92857 0.0
C551 C 0.43873 0.73501 0.82034 0.0
C552 C 0.42445 0.71227 0.78635 0.0
C553 C 0.46257 0.72405 0.85169 0.0
C554 C 0.47183 0.68995 0.84952 0.0
C555 C 0.45909 0.66865 0.81433 0.0
C556 C 0.43599 0.67992 0.78295 0.0
C557 C 0.50079 0.62145 0.93128 0.0
C558 C 0.53769 0.64044 0.94009 0.0
C559 C 0.47906 0.63846 0.90319 0.0
C560 C 0.49353 0.67512 0.88403 0.0
C561 C 0.52972 0.6953 0.89496 0.0
C562 C 0.55169 0.67798 0.92244 0.0
H563 H 0.40121 0.40763 0.72559 0.0
H564 H 0.40494 0.31323 0.81391 0.0
H565 H 0.42632 0.4529 0.77953 0.0
H566 H 0.43277 0.35841 0.86761 0.0
H567 H 0.47638 0.44806 0.96308 0.0
H568 H 0.4341 0.40494 0.91391 0.0
H569 H 0.48333 0.47834 0.81259 0.0
H570 H 0.52375 0.52142 0.8609 0.0
C571 C 0.40665 0.39649 0.75681 0.0
C572 C 0.40117 0.35688 0.76545 0.0
C573 C 0.42181 0.42251 0.78777 0.0
C574 C 0.43261 0.40968 0.82812 0.0
C575 C 0.42488 0.3697 0.83723 0.0
C576 C 0.40917 0.34369 0.80635 0.0
C577 C 0.47756 0.45525 0.93027 0.0
C578 C 0.50372 0.48818 0.91615 0.0
C579 C 0.45352 0.43034 0.90196 0.0
C580 C 0.45507 0.43781 0.85889 0.0
C581 C 0.48047 0.47159 0.84517 0.0
C582 C 0.50415 0.49633 0.8732 0.0
H583 H 0.76363 0.42956 0.76492 0.0
H584 H 0.71446 0.32364 0.83296 0.0
H585 H 0.7361 0.46442 0.80534 0.0
H586 H 0.68531 0.35801 0.87189 0.0
H587 H 0.60458 0.43283 0.87709 0.0
H588 H 0.63662 0.39782 0.84365 0.0
H589 H 0.73828 0.47612 0.88877 0.0
H590 H 0.70617 0.51064 0.92354 0.0
C591 C 0.74722 0.41392 0.78886 0.0
C592 C 0.74135 0.37405 0.79619 0.0
C593 C 0.73147 0.43375 0.81183 0.0
C594 C 0.70875 0.41385 0.84174 0.0
C595 C 0.70274 0.37395 0.84896 0.0
C596 C 0.71919 0.35431 0.82665 0.0
C597 C 0.63379 0.44234 0.88023 0.0
C598 C 0.65294 0.47426 0.9031 0.0
C599 C 0.65205 0.42225 0.86122 0.0
C600 C 0.68983 0.43428 0.86378 0.0
C601 C 0.70911 0.46631 0.88647 0.0
C602 C 0.6908 0.48584 0.90649 0.0
H603 H 0.81949 0.68239 0.74233 0.0
H604 H 0.71947 0.62618 0.67282 0.0
H605 H 0.79655 0.64912 0.80597 0.0
H606 H 0.6946 0.59552 0.73611 0.0
H607 H 0.64968 0.54904 0.85283 0.0
H608 H 0.68545 0.55776 0.79533 0.0
H609 H 0.75921 0.66055 0.84753 0.0
H610 H 0.72536 0.64936 0.90669 0.0
C611 C 0.79303 0.66154 0.74069 0.0
C612 C 0.77132 0.65616 0.70295 0.0
C613 C 0.77937 0.64322 0.77722 0.0
C614 C 0.74311 0.62048 0.77685 0.0
C615 C 0.72265 0.61243 0.73823 0.0
C616 C 0.73682 0.62985 0.70167 0.0
C617 C 0.67411 0.57285 0.85258 0.0
C618 C 0.68461 0.59847 0.88447 0.0
C619 C 0.69452 0.57819 0.81919 0.0
C620 C 0.72526 0.61021 0.81597 0.0
C621 C 0.7363 0.63506 0.84877 0.0
C622 C 0.71652 0.62897 0.88275 0.0
H623 H 0.77092 0.75093 0.23436 0.0
H624 H 0.74834 0.6514 0.31978 0.0
H625 H 0.73383 0.71222 0.17894 0.0
H626 H 0.71406 0.61169 0.26409 0.0
H627 H 0.60792 0.57218 0.18453 0.0
H628 H 0.65651 0.60549 0.23256 0.0
H629 H 0.71692 0.66333 0.13113 0.0
H630 H 0.6665 0.63041 0.08202 0.0
C631 C 0.75906 0.72037 0.2408 0.0
C632 C 0.76212 0.70427 0.28143 0.0
C633 C 0.73796 0.69804 0.20899 0.0
C634 C 0.71995 0.65884 0.21703 0.0
C635 C 0.72641 0.64202 0.25686 0.0
C636 C 0.74681 0.66458 0.28879 0.0
C637 C 0.63154 0.59177 0.17207 0.0
C638 C 0.63308 0.59862 0.12915 0.0
C639 C 0.65989 0.61069 0.19996 0.0
C640 C 0.69122 0.6369 0.18612 0.0
C641 C 0.69319 0.64351 0.14307 0.0
C642 C 0.66435 0.62462 0.11485 0.0
H643 H 0.42552 0.6708 0.34435 0.0
H644 H 0.37768 0.71668 0.23338 0.0
H645 H 0.45836 0.64287 0.30316 0.0
H646 H 0.41111 0.69013 0.19158 0.0
H647 H 0.43547 0.59484 0.12897 0.0
H648 H 0.40844 0.62884 0.17042 0.0
H649 H 0.50337 0.65022 0.2587 0.0
H650 H 0.52968 0.61534 0.21812 0.0
C651 C 0.42346 0.67638 0.31113 0.0
C652 C 0.39982 0.69658 0.292 0.0
C653 C 0.44196 0.6601 0.28732 0.0
C654 C 0.43715 0.66362 0.2437 0.0
C655 C 0.41503 0.68596 0.22489 0.0
C656 C 0.39648 0.70199 0.24876 0.0
C657 C 0.45047 0.60665 0.15731 0.0
C658 C 0.48474 0.60211 0.1701 0.0
C659 C 0.43514 0.62657 0.18099 0.0
C660 C 0.4537 0.64272 0.21806 0.0
C661 C 0.48793 0.63796 0.23078 0.0
C662 C 0.50313 0.61795 0.20726 0.0
H663 H 0.72266 0.4083 0.2561 0.0
H664 H 0.69999 0.31847 0.17128 0.0
H665 H 0.68514 0.44062 0.20954 0.0
H666 H 0.66085 0.3498 0.12545 0.0
H667 H 0.55678 0.39633 0.0992 0.0
H668 H 0.59934 0.36448 0.13699 0.0
H669 H 0.68464 0.47166 0.13254 0.0
H670 H 0.6427 0.50338 0.09426 0.0
C671 C 0.71021 0.39593 0.22709 0.0
C672 C 0.71442 0.36111 0.21703 0.0
C673 C 0.68854 0.41419 0.20064 0.0
C674 C 0.67006 0.39756 0.16404 0.0
C675 C 0.67464 0.36303 0.15363 0.0
C676 C 0.69697 0.34521 0.17969 0.0
C677 C 0.58471 0.41292 0.10575 0.0
C678 C 0.59629 0.45236 0.0937 0.0
C679 C 0.60904 0.39469 0.12723 0.0
C680 C 0.64516 0.41574 0.13773 0.0
C681 C 0.6569 0.45488 0.12495 0.0
C682 C 0.63284 0.47291 0.10283 0.0
loop_
_geom_bond_atom_site_label_1
_geom_bond_atom_site_label_2
_geom_bond_distance
_geom_bond_site_symmetry_2
_ccdc_geom_bond_type
C0 N1 1.317 . S
C0 N2 1.348 . S
C0 C3 1.485 . S
N1 C0 1.317 . S
N1 N5 1.370 . S
N2 C0 1.348 . S
N2 C4 1.346 . S
C3 C0 1.485 . S
C3 H7 0.960 . S
C3 H8 0.961 . S
C3 H9 0.960 . S
C4 N2 1.346 . S
C4 N5 1.307 . S
C4 C6 1.486 . S
N5 N1 1.370 . S
N5 C4 1.307 . S
C6 C4 1.486 . S
C6 H10 0.960 . S
C6 H11 0.960 . S
C6 H12 0.959 . S
H7 C3 0.960 . S
H8 C3 0.961 . S
H9 C3 0.960 . S
H10 C6 0.960 . S
H11 C6 0.960 . S
H12 C6 0.959 . S
C13 N14 1.317 . S
C13 N15 1.348 . S
C13 C16 1.485 . S
N14 C13 1.317 . S
N14 N18 1.370 . S
N15 C13 1.348 . S
N15 C17 1.346 . S
C16 C13 1.485 . S
C16 H20 0.960 . S
C16 H21 0.961 . S
C16 H22 0.960 . S
C17 N15 1.346 . S
C17 N18 1.307 . S
C17 C19 1.486 . S
N18 N14 1.370 . S
N18 C17 1.307 . S
C19 C17 1.486 . S
C19 H23 0.960 . S
C19 H24 0.960 . S
C19 H25 0.959 . S
H20 C16 0.960 . S
H21 C16 0.961 . S
H22 C16 0.960 . S
H23 C19 0.960 . S
H24 C19 0.960 . S
H25 C19 0.959 . S
C26 N27 1.317 . S
C26 N28 1.348 . S
C26 C29 1.485 . S
N27 C26 1.317 . S
N27 N31 1.370 . S
N28 C26 1.348 . S
N28 C30 1.346 . S
C29 C26 1.485 . S
C29 H33 0.960 . S
C29 H34 0.961 . S
C29 H35 0.960 . S
C30 N28 1.346 . S
C30 N31 1.307 . S
C30 C32 1.486 . S
N31 N27 1.370 . S
N31 C30 1.307 . S
C32 C30 1.486 . S
C32 H36 0.960 . S
C32 H37 0.960 . S
C32 H38 0.959 . S
H33 C29 0.960 . S
H34 C29 0.961 . S
H35 C29 0.960 . S
H36 C32 0.960 . S
H37 C32 0.960 . S
H38 C32 0.959 . S
C39 N40 1.317 . S
C39 N41 1.348 . S
C39 C42 1.485 . S
N40 C39 1.317 . S
N40 N44 1.370 . S
N41 C39 1.348 . S
N41 C43 1.346 . S
C42 C39 1.485 . S
C42 H46 0.960 . S
C42 H47 0.961 . S
C42 H48 0.960 . S
C43 N41 1.346 . S
C43 N44 1.307 . S
C43 C45 1.486 . S
N44 N40 1.370 . S
N44 C43 1.307 . S
C45 C43 1.486 . S
C45 H49 0.960 . S
C45 H50 0.960 . S
C45 H51 0.959 . S
H46 C42 0.960 . S
H47 C42 0.961 . S
H48 C42 0.960 . S
H49 C45 0.960 . S
H50 C45 0.960 . S
H51 C45 0.959 . S
C52 N53 1.317 . S
C52 N54 1.348 . S
C52 C55 1.485 . S
N53 C52 1.317 . S
N53 N57 1.370 . S
N54 C52 1.348 . S
N54 C56 1.346 . S
C55 C52 1.485 . S
C55 H59 0.960 . S
C55 H60 0.961 . S
C55 H61 0.960 . S
C56 N54 1.346 . S
C56 N57 1.307 . S
C56 C58 1.486 . S
N57 N53 1.370 . S
N57 C56 1.307 . S
C58 C56 1.486 . S
C58 H62 0.960 . S
C58 H63 0.960 . S
C58 H64 0.959 . S
H59 C55 0.960 . S
H60 C55 0.961 . S
H61 C55 0.960 . S
H62 C58 0.960 . S
H63 C58 0.960 . S
H64 C58 0.959 . S
C65 N66 1.317 . S
C65 N67 1.348 . S
C65 C68 1.485 . S
N66 C65 1.317 . S
N66 N70 1.370 . S
N67 C65 1.348 . S
N67 C69 1.346 . S
C68 C65 1.485 . S
C68 H72 0.960 . S
C68 H73 0.961 . S
C68 H74 0.960 . S
C69 N67 1.346 . S
C69 N70 1.307 . S
C69 C71 1.486 . S
N70 N66 1.370 . S
N70 C69 1.307 . S
C71 C69 1.486 . S
C71 H75 0.960 . S
C71 H76 0.960 . S
C71 H77 0.959 . S
H72 C68 0.960 . S
H73 C68 0.961 . S
H74 C68 0.960 . S
H75 C71 0.960 . S
H76 C71 0.960 . S
H77 C71 0.959 . S
C78 N79 1.317 . S
C78 N80 1.348 . S
C78 C81 1.485 . S
N79 C78 1.317 . S
N79 N83 1.370 . S
N80 C78 1.348 . S
N80 C82 1.346 . S
C81 C78 1.485 . S
C81 H85 0.960 . S
C81 H86 0.961 . S
C81 H87 0.960 . S
C82 N80 1.346 . S
C82 N83 1.307 . S
C82 C84 1.486 . S
N83 N79 1.370 . S
N83 C82 1.307 . S
C84 C82 1.486 . S
C84 H88 0.960 . S
C84 H89 0.960 . S
C84 H90 0.959 . S
H85 C81 0.960 . S
H86 C81 0.961 . S
H87 C81 0.960 . S
H88 C84 0.960 . S
H89 C84 0.960 . S
H90 C84 0.959 . S
C91 N92 1.317 . S
C91 N93 1.348 . S
C91 C94 1.485 . S
N92 C91 1.317 . S
N92 N96 1.370 . S
N93 C91 1.348 . S
N93 C95 1.346 . S
C94 C91 1.485 . S
C94 H98 0.960 . S
C94 H99 0.961 . S
C94 H100 0.960 . S
C95 N93 1.346 . S
C95 N96 1.307 . S
C95 C97 1.486 . S
N96 N92 1.370 . S
N96 C95 1.307 . S
C97 C95 1.486 . S
C97 H101 0.960 . S
C97 H102 0.960 . S
C97 H103 0.959 . S
H98 C94 0.960 . S
H99 C94 0.961 . S
H100 C94 0.960 . S
H101 C97 0.960 . S
H102 C97 0.960 . S
H103 C97 0.959 . S
Co104 O107 2.042 . S
Co104 O114 2.264 . S
Co104 O133 2.286 . S
Co104 O134 2.069 . S
Co104 O136 2.015 . S
Co105 O107 2.122 . S
Co105 O113 2.073 . S
Co105 O114 2.327 . S
Co105 O115 1.976 . S
Co106 O107 2.087 . S
Co106 O109 2.087 . S
Co106 O116 2.111 . S
Co106 O117 2.143 1_455 S
Co106 O121 2.111 . S
Co106 O135 2.143 . S
O107 Co104 2.042 . S
O107 Co105 2.122 . S
O107 Co106 2.087 . S
O107 H108 0.980 . S
H108 O107 0.980 . S
O109 Co106 2.087 . S
O109 Co110 2.042 1_455 S
O109 Co111 2.122 1_455 S
O109 H112 0.980 . S
Co110 O109 2.042 1_655 S
Co110 O118 2.286 . S
Co110 O119 2.069 . S
Co110 O120 2.015 . S
Co110 O123 2.264 . S
Co111 O109 2.122 1_655 S
Co111 O122 1.976 . S
Co111 O123 2.327 . S
Co111 O124 2.073 . S
H112 O109 0.980 . S
O113 Co105 2.073 . S
O113 C128 1.245 . S
O114 Co104 2.264 . S
O114 Co105 2.327 . S
O114 C128 1.257 . S
O115 Co105 1.976 . S
O115 C127 1.251 . S
O116 Co106 2.111 . S
O116 C127 1.274 . S
O117 Co106 2.143 1_655 S
O117 C130 1.246 . S
O118 Co110 2.286 . S
O118 C129 1.259 . S
O119 Co110 2.069 . S
O119 C129 1.289 . S
O120 Co110 2.015 . S
O120 C130 1.257 . S
O121 Co106 2.111 . S
O121 C131 1.274 1_455 S
O122 Co111 1.976 . S
O122 C131 1.251 . S
O123 Co110 2.264 . S
O123 Co111 2.327 . S
O123 C132 1.257 . S
O124 Co111 2.073 . S
O124 C132 1.245 . S
C125 O133 1.259 . S
C125 O134 1.289 . S
C126 O135 1.246 . S
C126 O136 1.257 . S
C127 O115 1.251 . S
C127 O116 1.274 . S
C128 O113 1.245 . S
C128 O114 1.257 . S
C129 O118 1.259 . S
C129 O119 1.289 . S
C130 O117 1.246 . S
C130 O120 1.257 . S
C131 O121 1.274 1_655 S
C131 O122 1.251 . S
C132 O123 1.257 . S
C132 O124 1.245 . S
O133 Co104 2.286 . S
O133 C125 1.259 . S
O134 Co104 2.069 . S
O134 C125 1.289 . S
O135 Co106 2.143 . S
O135 C126 1.246 . S
O136 Co104 2.015 . S
O136 C126 1.257 . S
Co137 O140 2.042 . S
Co137 O147 2.264 . S
Co137 O166 2.286 . S
Co137 O167 2.069 . S
Co137 O169 2.015 . S
Co138 O140 2.122 . S
Co138 O146 2.073 . S
Co138 O147 2.327 . S
Co138 O148 1.976 . S
Co139 O140 2.087 1_545 S
Co139 O142 2.087 . S
Co139 O149 2.111 1_545 S
Co139 O150 2.143 . S
Co139 O154 2.111 . S
Co139 O168 2.143 1_545 S
O140 Co137 2.042 . S
O140 Co138 2.122 . S
O140 Co139 2.087 1_565 S
O140 H141 0.980 1_565 S
H141 O140 0.980 1_545 S
O142 Co139 2.087 . S
O142 Co143 2.042 . S
O142 Co144 2.122 . S
O142 H145 0.980 . S
Co143 O142 2.042 . S
Co143 O151 2.286 . S
Co143 O152 2.069 . S
Co143 O153 2.015 . S
Co143 O156 2.264 . S
Co144 O142 2.122 . S
Co144 O155 1.976 . S
Co144 O156 2.327 . S
Co144 O157 2.073 . S
H145 O142 0.980 . S
O146 Co138 2.073 . S
O146 C161 1.245 . S
O147 Co137 2.264 . S
O147 Co138 2.327 . S
O147 C161 1.257 . S
O148 Co138 1.976 . S
O148 C160 1.251 . S
O149 Co139 2.111 1_565 S
O149 C160 1.274 . S
O150 Co139 2.143 . S
O150 C163 1.246 . S
O151 Co143 2.286 . S
O151 C162 1.259 . S
O152 Co143 2.069 . S
O152 C162 1.289 . S
O153 Co143 2.015 . S
O153 C163 1.257 . S
O154 Co139 2.111 . S
O154 C164 1.274 . S
O155 Co144 1.976 . S
O155 C164 1.251 . S
O156 Co143 2.264 . S
O156 Co144 2.327 . S
O156 C165 1.257 . S
O157 Co144 2.073 . S
O157 C165 1.245 . S
C158 O166 1.259 . S
C158 O167 1.289 . S
C159 O168 1.246 . S
C159 O169 1.257 . S
C160 O148 1.251 . S
C160 O149 1.274 . S
C161 O146 1.245 . S
C161 O147 1.257 . S
C162 O151 1.259 . S
C162 O152 1.289 . S
C163 O150 1.246 . S
C163 O153 1.257 . S
C164 O154 1.274 . S
C164 O155 1.251 . S
C165 O156 1.257 . S
C165 O157 1.245 . S
O166 Co137 2.286 . S
O166 C158 1.259 . S
O167 Co137 2.069 . S
O167 C158 1.289 . S
O168 Co139 2.143 1_565 S
O168 C159 1.246 . S
O169 Co137 2.015 . S
O169 C159 1.257 . S
Co170 O173 2.042 . S
Co170 O180 2.264 . S
Co170 O199 2.286 . S
Co170 O200 2.069 . S
Co170 O202 2.015 . S
Co171 O173 2.122 . S
Co171 O179 2.073 . S
Co171 O180 2.327 . S
Co171 O181 1.976 . S
Co172 O173 2.087 . S
Co172 O175 2.087 1_554 S
Co172 O182 2.111 . S
Co172 O183 2.143 1_554 S
Co172 O187 2.111 1_554 S
Co172 O201 2.143 . S
O173 Co170 2.042 . S
O173 Co171 2.122 . S
O173 Co172 2.087 . S
O173 H174 0.980 . S
H174 O173 0.980 . S
O175 Co172 2.087 1_556 S
O175 Co176 2.042 . S
O175 Co177 2.122 . S
O175 H178 0.980 . S
Co176 O175 2.042 . S
Co176 O184 2.286 . S
Co176 O185 2.069 . S
Co176 O186 2.015 . S
Co176 O189 2.264 . S
Co177 O175 2.122 . S
Co177 O188 1.976 . S
Co177 O189 2.327 . S
Co177 O190 2.073 . S
H178 O175 0.980 . S
O179 Co171 2.073 . S
O179 C194 1.245 . S
O180 Co170 2.264 . S
O180 Co171 2.327 . S
O180 C194 1.257 . S
O181 Co171 1.976 . S
O181 C193 1.251 . S
O182 Co172 2.111 . S
O182 C193 1.274 . S
O183 Co172 2.143 1_556 S
O183 C196 1.246 . S
O184 Co176 2.286 . S
O184 C195 1.259 . S
O185 Co176 2.069 . S
O185 C195 1.289 . S
O186 Co176 2.015 . S
O186 C196 1.257 . S
O187 Co172 2.111 1_556 S
O187 C197 1.274 . S
O188 Co177 1.976 . S
O188 C197 1.251 . S
O189 Co176 2.264 . S
O189 Co177 2.327 . S
O189 C198 1.257 . S
O190 Co177 2.073 . S
O190 C198 1.245 . S
C191 O199 1.259 . S
C191 O200 1.289 . S
C192 O201 1.246 . S
C192 O202 1.257 . S
C193 O181 1.251 . S
C193 O182 1.274 . S
C194 O179 1.245 . S
C194 O180 1.257 . S
C195 O184 1.259 . S
C195 O185 1.289 . S
C196 O183 1.246 . S
C196 O186 1.257 . S
C197 O187 1.274 . S
C197 O188 1.251 . S
C198 O189 1.257 . S
C198 O190 1.245 . S
O199 Co170 2.286 . S
O199 C191 1.259 . S
O200 Co170 2.069 . S
O200 C191 1.289 . S
O201 Co172 2.143 . S
O201 C192 1.246 . S
O202 Co170 2.015 . S
O202 C192 1.257 . S
H203 C211 0.950 . S
H204 C216 0.950 . S
H205 C213 0.950 . S
H206 C215 0.950 . S
H207 C217 0.950 . S
H208 C219 0.950 . S
H209 C221 0.950 . S
H210 C222 0.950 . S
C211 H203 0.950 . S
C211 C212 1.386 . S
C211 C213 1.391 . S
C212 C211 1.386 . S
C212 C216 1.393 . S
C213 H205 0.950 . S
C213 C211 1.391 . S
C213 C214 1.400 . S
C214 C213 1.400 . S
C214 C215 1.398 . S
C214 C220 1.491 . S
C215 H206 0.950 . S
C215 C214 1.398 . S
C215 C216 1.391 . S
C216 H204 0.950 . S
C216 C212 1.393 . S
C216 C215 1.391 . S
C217 H207 0.950 . S
C217 C218 1.386 . S
C217 C219 1.391 . S
C218 C217 1.386 . S
C218 C222 1.393 . S
C219 H208 0.950 . S
C219 C217 1.391 . S
C219 C220 1.400 . S
C220 C214 1.491 . S
C220 C219 1.400 . S
C220 C221 1.398 . S
C221 H209 0.950 . S
C221 C220 1.398 . S
C221 C222 1.391 . S
C222 H210 0.950 . S
C222 C218 1.393 . S
C222 C221 1.391 . S
H223 C231 0.950 . S
H224 C236 0.950 . S
H225 C233 0.950 . S
H226 C235 0.950 . S
H227 C237 0.950 . S
H228 C239 0.950 . S
H229 C241 0.950 . S
H230 C242 0.950 . S
C231 H223 0.950 . S
C231 C232 1.386 . S
C231 C233 1.391 . S
C232 C231 1.386 . S
C232 C236 1.393 . S
C233 H225 0.950 . S
C233 C231 1.391 . S
C233 C234 1.400 . S
C234 C233 1.400 . S
C234 C235 1.398 . S
C234 C240 1.491 . S
C235 H226 0.950 . S
C235 C234 1.398 . S
C235 C236 1.391 . S
C236 H224 0.950 . S
C236 C232 1.393 . S
C236 C235 1.391 . S
C237 H227 0.950 . S
C237 C238 1.386 . S
C237 C239 1.391 . S
C238 C237 1.386 . S
C238 C242 1.393 . S
C239 H228 0.950 . S
C239 C237 1.391 . S
C239 C240 1.400 . S
C240 C234 1.491 . S
C240 C239 1.400 . S
C240 C241 1.398 . S
C241 H229 0.950 . S
C241 C240 1.398 . S
C241 C242 1.391 . S
C242 H230 0.950 . S
C242 C238 1.393 . S
C242 C241 1.391 . S
H243 C251 0.950 . S
H244 C256 0.950 . S
H245 C253 0.950 . S
H246 C255 0.950 . S
H247 C257 0.950 . S
H248 C259 0.950 . S
H249 C261 0.950 . S
H250 C262 0.950 . S
C251 H243 0.950 . S
C251 C252 1.386 . S
C251 C253 1.391 . S
C252 C251 1.386 . S
C252 C256 1.393 . S
C253 H245 0.950 . S
C253 C251 1.391 . S
C253 C254 1.400 . S
C254 C253 1.400 . S
C254 C255 1.398 . S
C254 C260 1.491 . S
C255 H246 0.950 . S
C255 C254 1.398 . S
C255 C256 1.391 . S
C256 H244 0.950 . S
C256 C252 1.393 . S
C256 C255 1.391 . S
C257 H247 0.950 . S
C257 C258 1.386 . S
C257 C259 1.391 . S
C258 C257 1.386 . S
C258 C262 1.393 . S
C259 H248 0.950 . S
C259 C257 1.391 . S
C259 C260 1.400 . S
C260 C254 1.491 . S
C260 C259 1.400 . S
C260 C261 1.398 . S
C261 H249 0.950 . S
C261 C260 1.398 . S
C261 C262 1.391 . S
C262 H250 0.950 . S
C262 C258 1.393 . S
C262 C261 1.391 . S
H263 C271 0.950 . S
H264 C276 0.950 . S
H265 C273 0.950 . S
H266 C275 0.950 . S
H267 C277 0.950 . S
H268 C279 0.950 . S
H269 C281 0.950 . S
H270 C282 0.950 . S
C271 H263 0.950 . S
C271 C272 1.386 . S
C271 C273 1.391 . S
C272 C271 1.386 . S
C272 C276 1.393 . S
C273 H265 0.950 . S
C273 C271 1.391 . S
C273 C274 1.400 . S
C274 C273 1.400 . S
C274 C275 1.398 . S
C274 C280 1.491 . S
C275 H266 0.950 . S
C275 C274 1.398 . S
C275 C276 1.391 . S
C276 H264 0.950 . S
C276 C272 1.393 . S
C276 C275 1.391 . S
C277 H267 0.950 . S
C277 C278 1.386 . S
C277 C279 1.391 . S
C278 C277 1.386 . S
C278 C282 1.393 . S
C279 H268 0.950 . S
C279 C277 1.391 . S
C279 C280 1.400 . S
C280 C274 1.491 . S
C280 C279 1.400 . S
C280 C281 1.398 . S
C281 H269 0.950 . S
C281 C280 1.398 . S
C281 C282 1.391 . S
C282 H270 0.950 . S
C282 C278 1.393 . S
C282 C281 1.391 . S
H283 C291 0.950 . S
H284 C296 0.950 . S
H285 C293 0.950 . S
H286 C295 0.950 . S
H287 C297 0.950 . S
H288 C299 0.950 . S
H289 C301 0.950 . S
H290 C302 0.950 . S
C291 H283 0.950 . S
C291 C292 1.386 . S
C291 C293 1.391 . S
C292 C291 1.386 . S
C292 C296 1.393 . S
C293 H285 0.950 . S
C293 C291 1.391 . S
C293 C294 1.400 . S
C294 C293 1.400 . S
C294 C295 1.398 . S
C294 C300 1.491 . S
C295 H286 0.950 . S
C295 C294 1.398 . S
C295 C296 1.391 . S
C296 H284 0.950 . S
C296 C292 1.393 . S
C296 C295 1.391 . S
C297 H287 0.950 . S
C297 C298 1.386 . S
C297 C299 1.391 . S
C298 C297 1.386 . S
C298 C302 1.393 . S
C299 H288 0.950 . S
C299 C297 1.391 . S
C299 C300 1.400 . S
C300 C294 1.491 . S
C300 C299 1.400 . S
C300 C301 1.398 . S
C301 H289 0.950 . S
C301 C300 1.398 . S
C301 C302 1.391 . S
C302 H290 0.950 . S
C302 C298 1.393 . S
C302 C301 1.391 . S
H303 C311 0.950 . S
H304 C316 0.950 . S
H305 C313 0.950 . S
H306 C315 0.950 . S
H307 C317 0.950 . S
H308 C319 0.950 . S
H309 C321 0.950 . S
H310 C322 0.950 . S
C311 H303 0.950 . S
C311 C312 1.386 . S
C311 C313 1.391 . S
C312 C311 1.386 . S
C312 C316 1.393 . S
C313 H305 0.950 . S
C313 C311 1.391 . S
C313 C314 1.400 . S
C314 C313 1.400 . S
C314 C315 1.398 . S
C314 C320 1.491 . S
C315 H306 0.950 . S
C315 C314 1.398 . S
C315 C316 1.391 . S
C316 H304 0.950 . S
C316 C312 1.393 . S
C316 C315 1.391 . S
C317 H307 0.950 . S
C317 C318 1.386 . S
C317 C319 1.391 . S
C318 C317 1.386 . S
C318 C322 1.393 . S
C319 H308 0.950 . S
C319 C317 1.391 . S
C319 C320 1.400 . S
C320 C314 1.491 . S
C320 C319 1.400 . S
C320 C321 1.398 . S
C321 H309 0.950 . S
C321 C320 1.398 . S
C321 C322 1.391 . S
C322 H310 0.950 . S
C322 C318 1.393 . S
C322 C321 1.391 . S
H323 C331 0.950 . S
H324 C336 0.950 . S
H325 C333 0.950 . S
H326 C335 0.950 . S
H327 C337 0.950 . S
H328 C339 0.950 . S
H329 C341 0.950 . S
H330 C342 0.950 . S
C331 H323 0.950 . S
C331 C332 1.386 . S
C331 C333 1.391 . S
C332 C331 1.386 . S
C332 C336 1.393 . S
C333 H325 0.950 . S
C333 C331 1.391 . S
C333 C334 1.400 . S
C334 C333 1.400 . S
C334 C335 1.398 . S
C334 C340 1.491 . S
C335 H326 0.950 . S
C335 C334 1.398 . S
C335 C336 1.391 . S
C336 H324 0.950 . S
C336 C332 1.393 . S
C336 C335 1.391 . S
C337 H327 0.950 . S
C337 C338 1.386 . S
C337 C339 1.391 . S
C338 C337 1.386 . S
C338 C342 1.393 . S
C339 H328 0.950 . S
C339 C337 1.391 . S
C339 C340 1.400 . S
C340 C334 1.491 . S
C340 C339 1.400 . S
C340 C341 1.398 . S
C341 H329 0.950 . S
C341 C340 1.398 . S
C341 C342 1.391 . S
C342 H330 0.950 . S
C342 C338 1.393 . S
C342 C341 1.391 . S
H343 C351 0.950 . S
H344 C356 0.950 . S
H345 C353 0.950 . S
H346 C355 0.950 . S
H347 C357 0.950 . S
H348 C359 0.950 . S
H349 C361 0.950 . S
H350 C362 0.950 . S
C351 H343 0.950 . S
C351 C352 1.386 . S
C351 C353 1.391 . S
C352 C351 1.386 . S
C352 C356 1.393 . S
C353 H345 0.950 . S
C353 C351 1.391 . S
C353 C354 1.400 . S
C354 C353 1.400 . S
C354 C355 1.398 . S
C354 C360 1.491 . S
C355 H346 0.950 . S
C355 C354 1.398 . S
C355 C356 1.391 . S
C356 H344 0.950 . S
C356 C352 1.393 . S
C356 C355 1.391 . S
C357 H347 0.950 . S
C357 C358 1.386 . S
C357 C359 1.391 . S
C358 C357 1.386 . S
C358 C362 1.393 . S
C359 H348 0.950 . S
C359 C357 1.391 . S
C359 C360 1.400 . S
C360 C354 1.491 . S
C360 C359 1.400 . S
C360 C361 1.398 . S
C361 H349 0.950 . S
C361 C360 1.398 . S
C361 C362 1.391 . S
C362 H350 0.950 . S
C362 C358 1.393 . S
C362 C361 1.391 . S
H363 C371 0.950 . S
H364 C376 0.950 . S
H365 C373 0.950 . S
H366 C375 0.950 . S
H367 C377 0.950 . S
H368 C379 0.950 . S
H369 C381 0.950 . S
H370 C382 0.950 . S
C371 H363 0.950 . S
C371 C372 1.386 . S
C371 C373 1.391 . S
C372 C371 1.386 . S
C372 C376 1.393 . S
C373 H365 0.950 . S
C373 C371 1.391 . S
C373 C374 1.400 . S
C374 C373 1.400 . S
C374 C375 1.398 . S
C374 C380 1.491 . S
C375 H366 0.950 . S
C375 C374 1.398 . S
C375 C376 1.391 . S
C376 H364 0.950 . S
C376 C372 1.393 . S
C376 C375 1.391 . S
C377 H367 0.950 . S
C377 C378 1.386 . S
C377 C379 1.391 . S
C378 C377 1.386 . S
C378 C382 1.393 . S
C379 H368 0.950 . S
C379 C377 1.391 . S
C379 C380 1.400 . S
C380 C374 1.491 . S
C380 C379 1.400 . S
C380 C381 1.398 . S
C381 H369 0.950 . S
C381 C380 1.398 . S
C381 C382 1.391 . S
C382 H370 0.950 . S
C382 C378 1.393 . S
C382 C381 1.391 . S
H383 C391 0.950 . S
H384 C396 0.950 . S
H385 C393 0.950 . S
H386 C395 0.950 . S
H387 C397 0.950 . S
H388 C399 0.950 . S
H389 C401 0.950 . S
H390 C402 0.950 . S
C391 H383 0.950 . S
C391 C392 1.386 . S
C391 C393 1.391 . S
C392 C391 1.386 . S
C392 C396 1.393 . S
C393 H385 0.950 . S
C393 C391 1.391 . S
C393 C394 1.400 . S
C394 C393 1.400 . S
C394 C395 1.398 . S
C394 C400 1.491 . S
C395 H386 0.950 . S
C395 C394 1.398 . S
C395 C396 1.391 . S
C396 H384 0.950 . S
C396 C392 1.393 . S
C396 C395 1.391 . S
C397 H387 0.950 . S
C397 C398 1.386 . S
C397 C399 1.391 . S
C398 C397 1.386 . S
C398 C402 1.393 . S
C399 H388 0.950 . S
C399 C397 1.391 . S
C399 C400 1.400 . S
C400 C394 1.491 . S
C400 C399 1.400 . S
C400 C401 1.398 . S
C401 H389 0.950 . S
C401 C400 1.398 . S
C401 C402 1.391 . S
C402 H390 0.950 . S
C402 C398 1.393 . S
C402 C401 1.391 . S
H403 C411 0.950 . S
H404 C416 0.950 . S
H405 C413 0.950 . S
H406 C415 0.950 . S
H407 C417 0.950 . S
H408 C419 0.950 . S
H409 C421 0.950 . S
H410 C422 0.950 . S
C411 H403 0.950 . S
C411 C412 1.386 . S
C411 C413 1.391 . S
C412 C411 1.386 . S
C412 C416 1.393 . S
C413 H405 0.950 . S
C413 C411 1.391 . S
C413 C414 1.400 . S
C414 C413 1.400 . S
C414 C415 1.398 . S
C414 C420 1.491 . S
C415 H406 0.950 . S
C415 C414 1.398 . S
C415 C416 1.391 . S
C416 H404 0.950 . S
C416 C412 1.393 . S
C416 C415 1.391 . S
C417 H407 0.950 . S
C417 C418 1.386 . S
C417 C419 1.391 . S
C418 C417 1.386 . S
C418 C422 1.393 . S
C419 H408 0.950 . S
C419 C417 1.391 . S
C419 C420 1.400 . S
C420 C414 1.491 . S
C420 C419 1.400 . S
C420 C421 1.398 . S
C421 H409 0.950 . S
C421 C420 1.398 . S
C421 C422 1.391 . S
C422 H410 0.950 . S
C422 C418 1.393 . S
C422 C421 1.391 . S
H423 C431 0.950 . S
H424 C436 0.950 . S
H425 C433 0.950 . S
H426 C435 0.950 . S
H427 C437 0.950 . S
H428 C439 0.950 . S
H429 C441 0.950 . S
H430 C442 0.950 . S
C431 H423 0.950 . S
C431 C432 1.386 . S
C431 C433 1.391 . S
C432 C431 1.386 . S
C432 C436 1.393 . S
C433 H425 0.950 . S
C433 C431 1.391 . S
C433 C434 1.400 . S
C434 C433 1.400 . S
C434 C435 1.398 . S
C434 C440 1.491 . S
C435 H426 0.950 . S
C435 C434 1.398 . S
C435 C436 1.391 . S
C436 H424 0.950 . S
C436 C432 1.393 . S
C436 C435 1.391 . S
C437 H427 0.950 . S
C437 C438 1.386 . S
C437 C439 1.391 . S
C438 C437 1.386 . S
C438 C442 1.393 . S
C439 H428 0.950 . S
C439 C437 1.391 . S
C439 C440 1.400 . S
C440 C434 1.491 . S
C440 C439 1.400 . S
C440 C441 1.398 . S
C441 H429 0.950 . S
C441 C440 1.398 . S
C441 C442 1.391 . S
C442 H430 0.950 . S
C442 C438 1.393 . S
C442 C441 1.391 . S
H443 C451 0.950 . S
H444 C456 0.950 . S
H445 C453 0.950 . S
H446 C455 0.950 . S
H447 C457 0.950 . S
H448 C459 0.950 . S
H449 C461 0.950 . S
H450 C462 0.950 . S
C451 H443 0.950 . S
C451 C452 1.386 . S
C451 C453 1.391 . S
C452 C451 1.386 . S
C452 C456 1.393 . S
C453 H445 0.950 . S
C453 C451 1.391 . S
C453 C454 1.400 . S
C454 C453 1.400 . S
C454 C455 1.398 . S
C454 C460 1.491 . S
C455 H446 0.950 . S
C455 C454 1.398 . S
C455 C456 1.391 . S
C456 H444 0.950 . S
C456 C452 1.393 . S
C456 C455 1.391 . S
C457 H447 0.950 . S
C457 C458 1.386 . S
C457 C459 1.391 . S
C458 C457 1.386 . S
C458 C462 1.393 . S
C459 H448 0.950 . S
C459 C457 1.391 . S
C459 C460 1.400 . S
C460 C454 1.491 . S
C460 C459 1.400 . S
C460 C461 1.398 . S
C461 H449 0.950 . S
C461 C460 1.398 . S
C461 C462 1.391 . S
C462 H450 0.950 . S
C462 C458 1.393 . S
C462 C461 1.391 . S
H463 C471 0.950 . S
H464 C476 0.950 . S
H465 C473 0.950 . S
H466 C475 0.950 . S
H467 C477 0.950 . S
H468 C479 0.950 . S
H469 C481 0.950 . S
H470 C482 0.950 . S
C471 H463 0.950 . S
C471 C472 1.386 . S
C471 C473 1.391 . S
C472 C471 1.386 . S
C472 C476 1.393 . S
C473 H465 0.950 . S
C473 C471 1.391 . S
C473 C474 1.400 . S
C474 C473 1.400 . S
C474 C475 1.398 . S
C474 C480 1.491 . S
C475 H466 0.950 . S
C475 C474 1.398 . S
C475 C476 1.391 . S
C476 H464 0.950 . S
C476 C472 1.393 . S
C476 C475 1.391 . S
C477 H467 0.950 . S
C477 C478 1.386 . S
C477 C479 1.391 . S
C478 C477 1.386 . S
C478 C482 1.393 . S
C479 H468 0.950 . S
C479 C477 1.391 . S
C479 C480 1.400 . S
C480 C474 1.491 . S
C480 C479 1.400 . S
C480 C481 1.398 . S
C481 H469 0.950 . S
C481 C480 1.398 . S
C481 C482 1.391 . S
C482 H470 0.950 . S
C482 C478 1.393 . S
C482 C481 1.391 . S
H483 C491 0.950 . S
H484 C496 0.950 . S
H485 C493 0.950 . S
H486 C495 0.950 . S
H487 C497 0.950 . S
H488 C499 0.950 . S
H489 C501 0.950 . S
H490 C502 0.950 . S
C491 H483 0.950 . S
C491 C492 1.386 . S
C491 C493 1.391 . S
C492 C491 1.386 . S
C492 C496 1.393 . S
C493 H485 0.950 . S
C493 C491 1.391 . S
C493 C494 1.400 . S
C494 C493 1.400 . S
C494 C495 1.398 . S
C494 C500 1.491 . S
C495 H486 0.950 . S
C495 C494 1.398 . S
C495 C496 1.391 . S
C496 H484 0.950 . S
C496 C492 1.393 . S
C496 C495 1.391 . S
C497 H487 0.950 . S
C497 C498 1.386 . S
C497 C499 1.391 . S
C498 C497 1.386 . S
C498 C502 1.393 . S
C499 H488 0.950 . S
C499 C497 1.391 . S
C499 C500 1.400 . S
C500 C494 1.491 . S
C500 C499 1.400 . S
C500 C501 1.398 . S
C501 H489 0.950 . S
C501 C500 1.398 . S
C501 C502 1.391 . S
C502 H490 0.950 . S
C502 C498 1.393 . S
C502 C501 1.391 . S
H503 C511 0.950 . S
H504 C516 0.950 . S
H505 C513 0.950 . S
H506 C515 0.950 . S
H507 C517 0.950 . S
H508 C519 0.950 . S
H509 C521 0.950 . S
H510 C522 0.950 . S
C511 H503 0.950 . S
C511 C512 1.386 . S
C511 C513 1.391 . S
C512 C511 1.386 . S
C512 C516 1.393 . S
C513 H505 0.950 . S
C513 C511 1.391 . S
C513 C514 1.400 . S
C514 C513 1.400 . S
C514 C515 1.398 . S
C514 C520 1.491 . S
C515 H506 0.950 . S
C515 C514 1.398 . S
C515 C516 1.391 . S
C516 H504 0.950 . S
C516 C512 1.393 . S
C516 C515 1.391 . S
C517 H507 0.950 . S
C517 C518 1.386 . S
C517 C519 1.391 . S
C518 C517 1.386 . S
C518 C522 1.393 . S
C519 H508 0.950 . S
C519 C517 1.391 . S
C519 C520 1.400 . S
C520 C514 1.491 . S
C520 C519 1.400 . S
C520 C521 1.398 . S
C521 H509 0.950 . S
C521 C520 1.398 . S
C521 C522 1.391 . S
C522 H510 0.950 . S
C522 C518 1.393 . S
C522 C521 1.391 . S
H523 C531 0.950 . S
H524 C536 0.950 . S
H525 C533 0.950 . S
H526 C535 0.950 . S
H527 C537 0.950 . S
H528 C539 0.950 . S
H529 C541 0.950 . S
H530 C542 0.950 . S
C531 H523 0.950 . S
C531 C532 1.386 . S
C531 C533 1.391 . S
C532 C531 1.386 . S
C532 C536 1.393 . S
C533 H525 0.950 . S
C533 C531 1.391 . S
C533 C534 1.400 . S
C534 C533 1.400 . S
C534 C535 1.398 . S
C534 C540 1.491 . S
C535 H526 0.950 . S
C535 C534 1.398 . S
C535 C536 1.391 . S
C536 H524 0.950 . S
C536 C532 1.393 . S
C536 C535 1.391 . S
C537 H527 0.950 . S
C537 C538 1.386 . S
C537 C539 1.391 . S
C538 C537 1.386 . S
C538 C542 1.393 . S
C539 H528 0.950 . S
C539 C537 1.391 . S
C539 C540 1.400 . S
C540 C534 1.491 . S
C540 C539 1.400 . S
C540 C541 1.398 . S
C541 H529 0.950 . S
C541 C540 1.398 . S
C541 C542 1.391 . S
C542 H530 0.950 . S
C542 C538 1.393 . S
C542 C541 1.391 . S
H543 C551 0.950 . S
H544 C556 0.950 . S
H545 C553 0.950 . S
H546 C555 0.950 . S
H547 C557 0.950 . S
H548 C559 0.950 . S
H549 C561 0.950 . S
H550 C562 0.950 . S
C551 H543 0.950 . S
C551 C552 1.386 . S
C551 C553 1.391 . S
C552 C551 1.386 . S
C552 C556 1.393 . S
C553 H545 0.950 . S
C553 C551 1.391 . S
C553 C554 1.400 . S
C554 C553 1.400 . S
C554 C555 1.398 . S
C554 C560 1.491 . S
C555 H546 0.950 . S
C555 C554 1.398 . S
C555 C556 1.391 . S
C556 H544 0.950 . S
C556 C552 1.393 . S
C556 C555 1.391 . S
C557 H547 0.950 . S
C557 C558 1.386 . S
C557 C559 1.391 . S
C558 C557 1.386 . S
C558 C562 1.393 . S
C559 H548 0.950 . S
C559 C557 1.391 . S
C559 C560 1.400 . S
C560 C554 1.491 . S
C560 C559 1.400 . S
C560 C561 1.398 . S
C561 H549 0.950 . S
C561 C560 1.398 . S
C561 C562 1.391 . S
C562 H550 0.950 . S
C562 C558 1.393 . S
C562 C561 1.391 . S
H563 C571 0.950 . S
H564 C576 0.950 . S
H565 C573 0.950 . S
H566 C575 0.950 . S
H567 C577 0.950 . S
H568 C579 0.950 . S
H569 C581 0.950 . S
H570 C582 0.950 . S
C571 H563 0.950 . S
C571 C572 1.386 . S
C571 C573 1.391 . S
C572 C571 1.386 . S
C572 C576 1.393 . S
C573 H565 0.950 . S
C573 C571 1.391 . S
C573 C574 1.400 . S
C574 C573 1.400 . S
C574 C575 1.398 . S
C574 C580 1.491 . S
C575 H566 0.950 . S
C575 C574 1.398 . S
C575 C576 1.391 . S
C576 H564 0.950 . S
C576 C572 1.393 . S
C576 C575 1.391 . S
C577 H567 0.950 . S
C577 C578 1.386 . S
C577 C579 1.391 . S
C578 C577 1.386 . S
C578 C582 1.393 . S
C579 H568 0.950 . S
C579 C577 1.391 . S
C579 C580 1.400 . S
C580 C574 1.491 . S
C580 C579 1.400 . S
C580 C581 1.398 . S
C581 H569 0.950 . S
C581 C580 1.398 . S
C581 C582 1.391 . S
C582 H570 0.950 . S
C582 C578 1.393 . S
C582 C581 1.391 . S
H583 C591 0.950 . S
H584 C596 0.950 . S
H585 C593 0.950 . S
H586 C595 0.950 . S
H587 C597 0.950 . S
H588 C599 0.950 . S
H589 C601 0.950 . S
H590 C602 0.950 . S
C591 H583 0.950 . S
C591 C592 1.386 . S
C591 C593 1.391 . S
C592 C591 1.386 . S
C592 C596 1.393 . S
C593 H585 0.950 . S
C593 C591 1.391 . S
C593 C594 1.400 . S
C594 C593 1.400 . S
C594 C595 1.398 . S
C594 C600 1.491 . S
C595 H586 0.950 . S
C595 C594 1.398 . S
C595 C596 1.391 . S
C596 H584 0.950 . S
C596 C592 1.393 . S
C596 C595 1.391 . S
C597 H587 0.950 . S
C597 C598 1.386 . S
C597 C599 1.391 . S
C598 C597 1.386 . S
C598 C602 1.393 . S
C599 H588 0.950 . S
C599 C597 1.391 . S
C599 C600 1.400 . S
C600 C594 1.491 . S
C600 C599 1.400 . S
C600 C601 1.398 . S
C601 H589 0.950 . S
C601 C600 1.398 . S
C601 C602 1.391 . S
C602 H590 0.950 . S
C602 C598 1.393 . S
C602 C601 1.391 . S
H603 C611 0.950 . S
H604 C616 0.950 . S
H605 C613 0.950 . S
H606 C615 0.950 . S
H607 C617 0.950 . S
H608 C619 0.950 . S
H609 C621 0.950 . S
H610 C622 0.950 . S
C611 H603 0.950 . S
C611 C612 1.386 . S
C611 C613 1.391 . S
C612 C611 1.386 . S
C612 C616 1.393 . S
C613 H605 0.950 . S
C613 C611 1.391 . S
C613 C614 1.400 . S
C614 C613 1.400 . S
C614 C615 1.398 . S
C614 C620 1.491 . S
C615 H606 0.950 . S
C615 C614 1.398 . S
C615 C616 1.391 . S
C616 H604 0.950 . S
C616 C612 1.393 . S
C616 C615 1.391 . S
C617 H607 0.950 . S
C617 C618 1.386 . S
C617 C619 1.391 . S
C618 C617 1.386 . S
C618 C622 1.393 . S
C619 H608 0.950 . S
C619 C617 1.391 . S
C619 C620 1.400 . S
C620 C614 1.491 . S
C620 C619 1.400 . S
C620 C621 1.398 . S
C621 H609 0.950 . S
C621 C620 1.398 . S
C621 C622 1.391 . S
C622 H610 0.950 . S
C622 C618 1.393 . S
C622 C621 1.391 . S
H623 C631 0.950 . S
H624 C636 0.950 . S
H625 C633 0.950 . S
H626 C635 0.950 . S
H627 C637 0.950 . S
H628 C639 0.950 . S
H629 C641 0.950 . S
H630 C642 0.950 . S
C631 H623 0.950 . S
C631 C632 1.386 . S
C631 C633 1.391 . S
C632 C631 1.386 . S
C632 C636 1.393 . S
C633 H625 0.950 . S
C633 C631 1.391 . S
C633 C634 1.400 . S
C634 C633 1.400 . S
C634 C635 1.398 . S
C634 C640 1.491 . S
C635 H626 0.950 . S
C635 C634 1.398 . S
C635 C636 1.391 . S
C636 H624 0.950 . S
C636 C632 1.393 . S
C636 C635 1.391 . S
C637 H627 0.950 . S
C637 C638 1.386 . S
C637 C639 1.391 . S
C638 C637 1.386 . S
C638 C642 1.393 . S
C639 H628 0.950 . S
C639 C637 1.391 . S
C639 C640 1.400 . S
C640 C634 1.491 . S
C640 C639 1.400 . S
C640 C641 1.398 . S
C641 H629 0.950 . S
C641 C640 1.398 . S
C641 C642 1.391 . S
C642 H630 0.950 . S
C642 C638 1.393 . S
C642 C641 1.391 . S
H643 C651 0.950 . S
H644 C656 0.950 . S
H645 C653 0.950 . S
H646 C655 0.950 . S
H647 C657 0.950 . S
H648 C659 0.950 . S
H649 C661 0.950 . S
H650 C662 0.950 . S
C651 H643 0.950 . S
C651 C652 1.386 . S
C651 C653 1.391 . S
C652 C651 1.386 . S
C652 C656 1.393 . S
C653 H645 0.950 . S
C653 C651 1.391 . S
C653 C654 1.400 . S
C654 C653 1.400 . S
C654 C655 1.398 . S
C654 C660 1.491 . S
C655 H646 0.950 . S
C655 C654 1.398 . S
C655 C656 1.391 . S
C656 H644 0.950 . S
C656 C652 1.393 . S
C656 C655 1.391 . S
C657 H647 0.950 . S
C657 C658 1.386 . S
C657 C659 1.391 . S
C658 C657 1.386 . S
C658 C662 1.393 . S
C659 H648 0.950 . S
C659 C657 1.391 . S
C659 C660 1.400 . S
C660 C654 1.491 . S
C660 C659 1.400 . S
C660 C661 1.398 . S
C661 H649 0.950 . S
C661 C660 1.398 . S
C661 C662 1.391 . S
C662 H650 0.950 . S
C662 C658 1.393 . S
C662 C661 1.391 . S
H663 C671 0.950 . S
H664 C676 0.950 . S
H665 C673 0.950 . S
H666 C675 0.950 . S
H667 C677 0.950 . S
H668 C679 0.950 . S
H669 C681 0.950 . S
H670 C682 0.950 . S
C671 H663 0.950 . S
C671 C672 1.386 . S
C671 C673 1.391 . S
C672 C671 1.386 . S
C672 C676 1.393 . S
C673 H665 0.950 . S
C673 C671 1.391 . S
C673 C674 1.400 . S
C674 C673 1.400 . S
C674 C675 1.398 . S
C674 C680 1.491 . S
C675 H666 0.950 . S
C675 C674 1.398 . S
C675 C676 1.391 . S
C676 H664 0.950 . S
C676 C672 1.393 . S
C676 C675 1.391 . S
C677 H667 0.950 . S
C677 C678 1.386 . S
C677 C679 1.391 . S
C678 C677 1.386 . S
C678 C682 1.393 . S
C679 H668 0.950 . S
C679 C677 1.391 . S
C679 C680 1.400 . S
C680 C674 1.491 . S
C680 C679 1.400 . S
C680 C681 1.398 . S
C681 H669 0.950 . S
C681 C680 1.398 . S
C681 C682 1.391 . S
C682 H670 0.950 . S
C682 C678 1.393 . S
C682 C681 1.391 . S
C218 C128 1.262 . S
C212 N2 1.344 . S
C238 C164 1.229 . S
C232 N14 1.278 . S
C258 C129 1.565 . S
C252 N27 1.555 . S
C278 C159 1.730 . S
C272 N44 1.764 . S
C298 C126 1.131 . S
C292 N54 1.165 . S
C312 N67 1.601 . S
C318 C162 1.599 . S
C332 N83 0.850 . S
C338 C131 0.862 . S
C358 C161 1.197 . S
C352 N93 1.237 . S
C378 C165 1.654 . S
C372 N1 1.705 . S
C398 C130 1.098 . S
C392 N18 1.126 . S
C418 C158 1.313 . S
C412 N28 1.323 . S
C438 C127 1.234 . S
C432 N41 1.331 . S
C458 C160 1.781 . S
C452 N57 1.873 . S
C472 N66 1.541 . S
C478 C125 1.534 . S
C492 N79 1.504 . S
C498 C163 1.434 . S
C518 C132 1.427 . S
C512 N96 1.483 . S
C538 C194 1.835 . S
C532 N5 1.930 . S
C552 N53 1.916 . S
C558 C197 1.798 . S
C578 C196 1.879 . S
C572 N70 1.932 . S
C592 N80 1.687 . S
C598 C195 1.665 . S
C618 C198 1.749 . S
C612 N92 1.799 . S
C632 N31 1.660 . S
C638 C192 1.619 . S
C658 C191 2.182 . S
C652 N40 2.151 . S
C672 N15 1.276 . S
C678 C193 1.160 . S
