# Generated by pormake.
# Topology ptr, (4,4)-cn, num edge types: 1
# Building blocks:
#     Node 0, Type 0, BuildingBlock: GALJAG_clean_sbu_0, # of connection points: 4
#     Node 1, Type 0, BuildingBlock: GALJAG_clean_sbu_0, # of connection points: 4
#     Node 2, Type 0, BuildingBlock: GALJAG_clean_sbu_0, # of connection points: 4
#     Node 3, Type 0, BuildingBlock: GALJAG_clean_sbu_0, # of connection points: 4
#     Node 4, Type 0, BuildingBlock: GALJAG_clean_sbu_0, # of connection points: 4
#     Node 5, Type 0, BuildingBlock: GALJAG_clean_sbu_0, # of connection points: 4
#     Node 6, Type 0, BuildingBlock: GALJAG_clean_sbu_0, # of connection points: 4
#     Node 7, Type 0, BuildingBlock: GALJAG_clean_sbu_0, # of connection points: 4
#     Node 8, Type 0, BuildingBlock: GALJAG_clean_sbu_0, # of connection points: 4
#     Node 9, Type 0, BuildingBlock: GALJAG_clean_sbu_0, # of connection points: 4
#     Node 10, Type 0, BuildingBlock: GALJAG_clean_sbu_0, # of connection points: 4
#     Node 11, Type 0, BuildingBlock: GALJAG_clean_sbu_0, # of connection points: 4
#     Node 12, Type 0, BuildingBlock: GALJAG_clean_sbu_0, # of connection points: 4
#     Node 13, Type 0, BuildingBlock: GALJAG_clean_sbu_0, # of connection points: 4
#     Node 14, Type 0, BuildingBlock: GALJAG_clean_sbu_0, # of connection points: 4
#     Node 15, Type 0, BuildingBlock: GALJAG_clean_sbu_0, # of connection points: 4
#     Node 16, Type 0, BuildingBlock: GALJAG_clean_sbu_0, # of connection points: 4
#     Node 17, Type 0, BuildingBlock: GALJAG_clean_sbu_0, # of connection points: 4
#     Node 18, Type 1, BuildingBlock: AZAVOO_clean_linker_0, # of connection points: 4
#     Node 19, Type 1, BuildingBlock: AZAVOO_clean_linker_0, # of connection points: 4
#     Node 20, Type 1, BuildingBlock: AZAVOO_clean_linker_0, # of connection points: 4
#     Node 21, Type 1, BuildingBlock: AZAVOO_clean_linker_0, # of connection points: 4
#     Node 22, Type 1, BuildingBlock: AZAVOO_clean_linker_0, # of connection points: 4
#     Node 23, Type 1, BuildingBlock: AZAVOO_clean_linker_0, # of connection points: 4
#     Node 24, Type 1, BuildingBlock: AZAVOO_clean_linker_0, # of connection points: 4
#     Node 25, Type 1, BuildingBlock: AZAVOO_clean_linker_0, # of connection points: 4
#     Node 26, Type 1, BuildingBlock: AZAVOO_clean_linker_0, # of connection points: 4
#     Node 27, Type 1, BuildingBlock: AZAVOO_clean_linker_0, # of connection points: 4
#     Node 28, Type 1, BuildingBlock: AZAVOO_clean_linker_0, # of connection points: 4
#     Node 29, Type 1, BuildingBlock: AZAVOO_clean_linker_0, # of connection points: 4
#     Node 30, Type 1, BuildingBlock: AZAVOO_clean_linker_0, # of connection points: 4
#     Node 31, Type 1, BuildingBlock: AZAVOO_clean_linker_0, # of connection points: 4
#     Node 32, Type 1, BuildingBlock: AZAVOO_clean_linker_0, # of connection points: 4
#     Node 33, Type 1, BuildingBlock: AZAVOO_clean_linker_0, # of connection points: 4
#     Node 34, Type 1, BuildingBlock: AZAVOO_clean_linker_0, # of connection points: 4
#     Node 35, Type 1, BuildingBlock: AZAVOO_clean_linker_0, # of connection points: 4
#     Edge 36, Type (0, 1), BuildingBlock: XUDNAN_clean_linker_2, # of connection points: 2
#     Edge 37, Type (0, 1), BuildingBlock: XUDNAN_clean_linker_2, # of connection points: 2
#     Edge 38, Type (0, 1), BuildingBlock: XUDNAN_clean_linker_2, # of connection points: 2
#     Edge 39, Type (0, 1), BuildingBlock: XUDNAN_clean_linker_2, # of connection points: 2
#     Edge 40, Type (0, 1), BuildingBlock: XUDNAN_clean_linker_2, # of connection points: 2
#     Edge 41, Type (0, 1), BuildingBlock: XUDNAN_clean_linker_2, # of connection points: 2
#     Edge 42, Type (0, 1), BuildingBlock: XUDNAN_clean_linker_2, # of connection points: 2
#     Edge 43, Type (0, 1), BuildingBlock: XUDNAN_clean_linker_2, # of connection points: 2
#     Edge 44, Type (0, 1), BuildingBlock: XUDNAN_clean_linker_2, # of connection points: 2
#     Edge 45, Type (0, 1), BuildingBlock: XUDNAN_clean_linker_2, # of connection points: 2
#     Edge 46, Type (0, 1), BuildingBlock: XUDNAN_clean_linker_2, # of connection points: 2
#     Edge 47, Type (0, 1), BuildingBlock: XUDNAN_clean_linker_2, # of connection points: 2
#     Edge 48, Type (0, 1), BuildingBlock: XUDNAN_clean_linker_2, # of connection points: 2
#     Edge 49, Type (0, 1), BuildingBlock: XUDNAN_clean_linker_2, # of connection points: 2
#     Edge 50, Type (0, 1), BuildingBlock: XUDNAN_clean_linker_2, # of connection points: 2
#     Edge 51, Type (0, 1), BuildingBlock: XUDNAN_clean_linker_2, # of connection points: 2
#     Edge 52, Type (0, 1), BuildingBlock: XUDNAN_clean_linker_2, # of connection points: 2
#     Edge 53, Type (0, 1), BuildingBlock: XUDNAN_clean_linker_2, # of connection points: 2
#     Edge 54, Type (0, 1), BuildingBlock: XUDNAN_clean_linker_2, # of connection points: 2
#     Edge 55, Type (0, 1), BuildingBlock: XUDNAN_clean_linker_2, # of connection points: 2
#     Edge 56, Type (0, 1), BuildingBlock: XUDNAN_clean_linker_2, # of connection points: 2
#     Edge 57, Type (0, 1), BuildingBlock: XUDNAN_clean_linker_2, # of connection points: 2
#     Edge 58, Type (0, 1), BuildingBlock: XUDNAN_clean_linker_2, # of connection points: 2
#     Edge 59, Type (0, 1), BuildingBlock: XUDNAN_clean_linker_2, # of connection points: 2
#     Edge 60, Type (0, 1), BuildingBlock: XUDNAN_clean_linker_2, # of connection points: 2
#     Edge 61, Type (0, 1), BuildingBlock: XUDNAN_clean_linker_2, # of connection points: 2
#     Edge 62, Type (0, 1), BuildingBlock: XUDNAN_clean_linker_2, # of connection points: 2
#     Edge 63, Type (0, 1), BuildingBlock: XUDNAN_clean_linker_2, # of connection points: 2
#     Edge 64, Type (0, 1), BuildingBlock: XUDNAN_clean_linker_2, # of connection points: 2
#     Edge 65, Type (0, 1), BuildingBlock: XUDNAN_clean_linker_2, # of connection points: 2
#     Edge 66, Type (0, 1), BuildingBlock: XUDNAN_clean_linker_2, # of connection points: 2
#     Edge 67, Type (0, 1), BuildingBlock: XUDNAN_clean_linker_2, # of connection points: 2
#     Edge 68, Type (0, 1), BuildingBlock: XUDNAN_clean_linker_2, # of connection points: 2
#     Edge 69, Type (0, 1), BuildingBlock: XUDNAN_clean_linker_2, # of connection points: 2
#     Edge 70, Type (0, 1), BuildingBlock: XUDNAN_clean_linker_2, # of connection points: 2
#     Edge 71, Type (0, 1), BuildingBlock: XUDNAN_clean_linker_2, # of connection points: 2
#     Edge 72, Type (0, 1), BuildingBlock: XUDNAN_clean_linker_2, # of connection points: 2
#     Edge 73, Type (0, 1), BuildingBlock: XUDNAN_clean_linker_2, # of connection points: 2
#     Edge 74, Type (0, 1), BuildingBlock: XUDNAN_clean_linker_2, # of connection points: 2
#     Edge 75, Type (0, 1), BuildingBlock: XUDNAN_clean_linker_2, # of connection points: 2
#     Edge 76, Type (0, 1), BuildingBlock: XUDNAN_clean_linker_2, # of connection points: 2
#     Edge 77, Type (0, 1), BuildingBlock: XUDNAN_clean_linker_2, # of connection points: 2
#     Edge 78, Type (0, 1), BuildingBlock: XUDNAN_clean_linker_2, # of connection points: 2
#     Edge 79, Type (0, 1), BuildingBlock: XUDNAN_clean_linker_2, # of connection points: 2
#     Edge 80, Type (0, 1), BuildingBlock: XUDNAN_clean_linker_2, # of connection points: 2
#     Edge 81, Type (0, 1), BuildingBlock: XUDNAN_clean_linker_2, # of connection points: 2
#     Edge 82, Type (0, 1), BuildingBlock: XUDNAN_clean_linker_2, # of connection points: 2
#     Edge 83, Type (0, 1), BuildingBlock: XUDNAN_clean_linker_2, # of connection points: 2
#     Edge 84, Type (0, 1), BuildingBlock: XUDNAN_clean_linker_2, # of connection points: 2
#     Edge 85, Type (0, 1), BuildingBlock: XUDNAN_clean_linker_2, # of connection points: 2
#     Edge 86, Type (0, 1), BuildingBlock: XUDNAN_clean_linker_2, # of connection points: 2
#     Edge 87, Type (0, 1), BuildingBlock: XUDNAN_clean_linker_2, # of connection points: 2
#     Edge 88, Type (0, 1), BuildingBlock: XUDNAN_clean_linker_2, # of connection points: 2
#     Edge 89, Type (0, 1), BuildingBlock: XUDNAN_clean_linker_2, # of connection points: 2
#     Edge 90, Type (0, 1), BuildingBlock: XUDNAN_clean_linker_2, # of connection points: 2
#     Edge 91, Type (0, 1), BuildingBlock: XUDNAN_clean_linker_2, # of connection points: 2
#     Edge 92, Type (0, 1), BuildingBlock: XUDNAN_clean_linker_2, # of connection points: 2
#     Edge 93, Type (0, 1), BuildingBlock: XUDNAN_clean_linker_2, # of connection points: 2
#     Edge 94, Type (0, 1), BuildingBlock: XUDNAN_clean_linker_2, # of connection points: 2
#     Edge 95, Type (0, 1), BuildingBlock: XUDNAN_clean_linker_2, # of connection points: 2
#     Edge 96, Type (0, 1), BuildingBlock: XUDNAN_clean_linker_2, # of connection points: 2
#     Edge 97, Type (0, 1), BuildingBlock: XUDNAN_clean_linker_2, # of connection points: 2
#     Edge 98, Type (0, 1), BuildingBlock: XUDNAN_clean_linker_2, # of connection points: 2
#     Edge 99, Type (0, 1), BuildingBlock: XUDNAN_clean_linker_2, # of connection points: 2
#     Edge 100, Type (0, 1), BuildingBlock: XUDNAN_clean_linker_2, # of connection points: 2
#     Edge 101, Type (0, 1), BuildingBlock: XUDNAN_clean_linker_2, # of connection points: 2
#     Edge 102, Type (0, 1), BuildingBlock: XUDNAN_clean_linker_2, # of connection points: 2
#     Edge 103, Type (0, 1), BuildingBlock: XUDNAN_clean_linker_2, # of connection points: 2
#     Edge 104, Type (0, 1), BuildingBlock: XUDNAN_clean_linker_2, # of connection points: 2
#     Edge 105, Type (0, 1), BuildingBlock: XUDNAN_clean_linker_2, # of connection points: 2
#     Edge 106, Type (0, 1), BuildingBlock: XUDNAN_clean_linker_2, # of connection points: 2
#     Edge 107, Type (0, 1), BuildingBlock: XUDNAN_clean_linker_2, # of connection points: 2
# Relax obj value: 0.032
# Max RMSD: 0.163
# Mean RMSD: 0.100
data_MOF--net-ptr--node1-GALJAG_clean_sbu_0--node2-AZAVOO_clean_linker_0--edge1-XUDNAN_clean_linker_2
_symmetry_space_group_name_H-M    P1
_symmetry_Int_Tables_number       1
_symmetry_cell_setting            triclinic
loop_
_symmetry_equiv_pos_as_xyz
'x, y, z'
_cell_length_a     80.660061
_cell_length_b     79.147668
_cell_length_c     72.305436
_cell_angle_alpha  92.633057
_cell_angle_beta   92.453146
_cell_angle_gamma 120.17562
loop_
_atom_site_label
_atom_site_type_symbol
_atom_site_fract_x
_atom_site_fract_y
_atom_site_fract_z
_atom_type_partial_charge
In0 In 0.00984 0.37051 0.01972 0.0
O1 O 0.98565 0.36676 0.03764 0.0
O2 O 0.01237 0.39354 0.0414 0.0
C3 C 0.98933 0.3387 0.99587 0.0
C4 C 0.03083 0.36004 0.04131 0.0
C5 C 0.02141 0.39707 0.99399 0.0
O6 O 0.98145 0.3453 0.00645 0.0
O7 O 0.00749 0.34819 0.99736 0.0
O8 O 0.03273 0.39246 0.00184 0.0
O9 O 0.00465 0.38858 0.99939 0.0
C10 C 0.99546 0.38349 0.04622 0.0
O11 O 0.0379 0.37714 0.03597 0.0
O12 O 0.01348 0.34853 0.03578 0.0
In13 In 0.62556 0.61809 0.05066 0.0
O14 O 0.62872 0.59968 0.07267 0.0
O15 O 0.60489 0.60436 0.07275 0.0
C16 C 0.65555 0.62908 0.02972 0.0
C17 C 0.63667 0.65319 0.06822 0.0
C18 C 0.59787 0.5955 0.02383 0.0
O19 O 0.65203 0.61685 0.04184 0.0
O20 O 0.64392 0.63527 0.02826 0.0
O21 O 0.60207 0.61292 0.02832 0.0
O22 O 0.60735 0.58961 0.03306 0.0
C23 C 0.61364 0.59663 0.08018 0.0
O24 O 0.62012 0.64288 0.05988 0.0
O25 O 0.64725 0.6457 0.06777 0.0
In26 In 0.37978 0.99103 0.01723 0.0
O27 O 0.37907 0.01888 0.011 0.0
O28 O 0.35734 0.9915 0.99774 0.0
C29 C 0.40622 0.00547 0.04668 0.0
C30 C 0.39552 0.98448 0.98745 0.0
C31 C 0.35071 0.96272 0.03452 0.0
O32 O 0.39737 0.01402 0.04145 0.0
O33 O 0.4022 0.99023 0.03671 0.0
O34 O 0.36269 0.95985 0.02634 0.0
O35 O 0.35319 0.97972 0.03373 0.0
C36 C 0.36421 0.00979 0.99985 0.0
O37 O 0.38031 0.97126 0.99355 0.0
O38 O 0.40302 0.00093 0.9966 0.0
In39 In 0.99098 0.63368 0.0434 0.0
O40 O 0.00745 0.62509 0.0232 0.0
O41 O 0.97688 0.6079 0.02227 0.0
C42 C 0.01576 0.66505 0.06613 0.0
C43 C 0.97387 0.64957 0.02371 0.0
C44 C 0.98056 0.60771 0.06937 0.0
O45 O 0.02127 0.65957 0.05209 0.0
O46 O 0.998 0.65496 0.06829 0.0
O47 O 0.96892 0.61226 0.06205 0.0
O48 O 0.99716 0.61618 0.06349 0.0
C49 C 0.99214 0.61043 0.01572 0.0
O50 O 0.96491 0.63665 0.03489 0.0
O51 O 0.99135 0.65463 0.02292 0.0
In52 In 0.3707 0.37899 0.00327 0.0
O53 O 0.37833 0.40079 0.98055 0.0
O54 O 0.38888 0.38094 0.97977 0.0
C55 C 0.34165 0.37982 0.01965 0.0
C56 C 0.35333 0.34089 0.99082 0.0
C57 C 0.39953 0.39871 0.02998 0.0
O58 O 0.34564 0.38508 0.00338 0.0
O59 O 0.35244 0.37461 0.02747 0.0
O60 O 0.38934 0.38022 0.02864 0.0
O61 O 0.39538 0.4071 0.0177 0.0
C62 C 0.38802 0.39459 0.97231 0.0
O63 O 0.36942 0.3494 1.00019 0.0
O64 O 0.34596 0.35145 0.98824 0.0
In65 In 0.63006 0.02165 0.04824 0.0
O66 O 0.62972 0.04014 0.07331 0.0
O67 O 0.60906 0.00966 0.07077 0.0
C68 C 0.66213 0.04774 0.03312 0.0
C69 C 0.64155 0.99647 0.05788 0.0
C70 C 0.60474 0.01966 0.02131 0.0
O71 O 0.65736 0.05163 0.04848 0.0
O72 O 0.65078 0.03077 0.02557 0.0
O73 O 0.60796 0.00572 0.02307 0.0
O74 O 0.61362 0.03382 0.03344 0.0
C75 C 0.61578 0.02592 0.08008 0.0
O76 O 0.62538 0.99055 0.0492 0.0
O77 O 0.65154 0.01476 0.06156 0.0
In78 In 0.67198 0.70071 0.34852 0.0
O79 O 0.64907 0.70364 0.36334 0.0
O80 O 0.67825 0.7255 0.37024 0.0
C81 C 0.64677 0.66282 0.33701 0.0
C82 C 0.70196 0.70093 0.36718 0.0
C83 C 0.67681 0.72045 0.3178 0.0
O84 O 0.64658 0.6706 0.35253 0.0
O85 O 0.65991 0.67408 0.32722 0.0
O86 O 0.68759 0.71387 0.32264 0.0
O87 O 0.66361 0.71699 0.32838 0.0
C88 C 0.66083 0.71912 0.37304 0.0
O89 O 0.70419 0.71304 0.35542 0.0
O90 O 0.68468 0.68854 0.36929 0.0
In91 In 0.29578 0.94442 0.39196 0.0
O92 O 0.29873 0.92924 0.4171 0.0
O93 O 0.27121 0.92518 0.40944 0.0
C94 C 0.32224 0.94153 0.37262 0.0
C95 C 0.31107 0.98011 0.41035 0.0
C96 C 0.27044 0.93623 0.36245 0.0
O97 O 0.3091 0.92709 0.37993 0.0
O98 O 0.32223 0.95736 0.37541 0.0
O99 O 0.2805 0.95328 0.37031 0.0
O100 O 0.27283 0.92339 0.36977 0.0
C101 C 0.28129 0.92151 0.4205 0.0
O102 O 0.29336 0.96981 0.4053 0.0
O103 O 0.32093 0.97238 0.40616 0.0
In104 In 0.0492 0.33196 0.34974 0.0
O105 O 0.05704 0.36416 0.35448 0.0
O106 O 0.03399 0.34559 0.33474 0.0
C107 C 0.076 0.33846 0.37706 0.0
C108 C 0.05968 0.32301 0.31709 0.0
C109 C 0.01688 0.30515 0.36439 0.0
O110 O 0.07821 0.35137 0.36617 0.0
O111 O 0.06054 0.32225 0.37389 0.0
O112 O 0.02475 0.30049 0.35199 0.0
O113 O 0.02526 0.32325 0.36926 0.0
C114 C 0.04422 0.36251 0.3427 0.0
O115 O 0.07077 0.32934 0.33168 0.0
O116 O 0.0432 0.3205 0.31913 0.0
In117 In 0.66878 0.97555 0.37261 0.0
O118 O 0.68968 0.97677 0.35182 0.0
O119 O 0.66421 0.94933 0.35393 0.0
C120 C 0.69061 0.01361 0.38551 0.0
C121 C 0.63712 0.97475 0.35716 0.0
C122 C 0.6716 0.95586 0.40094 0.0
O123 O 0.69205 0.0073 0.36967 0.0
O124 O 0.67797 0.00083 0.39472 0.0
O125 O 0.65545 0.9517 0.3933 0.0
O126 O 0.6859 0.96969 0.39425 0.0
C127 C 0.67968 0.95887 0.34614 0.0
O128 O 0.63853 0.97165 0.37398 0.0
O129 O 0.6514 0.97794 0.34835 0.0
In130 In 0.03577 0.71369 0.34021 0.0
O131 O 0.0384 0.73875 0.32335 0.0
O132 O 0.06069 0.73178 0.32309 0.0
C133 C 0.00145 0.69971 0.35507 0.0
C134 C 0.02722 0.68386 0.31507 0.0
C135 C 0.06041 0.72546 0.37088 0.0
O136 O 0.01081 0.71715 0.35054 0.0
O137 O 0.00932 0.6897 0.35193 0.0
O138 O 0.05632 0.71042 0.3605 0.0
O139 O 0.05224 0.73465 0.36569 0.0
C140 C 0.05419 0.74223 0.31718 0.0
O141 O 0.03667 0.68644 0.33039 0.0
O142 O 0.02205 0.69628 0.31249 0.0
In143 In 0.28622 0.32628 0.37088 0.0
O144 O 0.28805 0.29936 0.37758 0.0
O145 O 0.31042 0.32758 0.38895 0.0
C146 C 0.25736 0.31385 0.34423 0.0
C147 C 0.27194 0.3311 0.40229 0.0
C148 C 0.31535 0.34645 0.34959 0.0
O149 O 0.26312 0.3028 0.35027 0.0
O150 O 0.26562 0.33095 0.35223 0.0
O151 O 0.31063 0.35539 0.36137 0.0
O152 O 0.3052 0.32802 0.34864 0.0
C153 C 0.30376 0.30928 0.38751 0.0
O154 O 0.28355 0.34583 0.39398 0.0
O155 O 0.26714 0.31465 0.39421 0.0
In156 In 0.33422 0.025 0.69003 0.0
O157 O 0.35112 0.02343 0.71545 0.0
O158 O 0.36271 0.02515 0.68941 0.0
C159 C 0.33637 0.04301 0.6587 0.0
C160 C 0.32146 0.0436 0.71243 0.0
C161 C 0.31087 0.98659 0.67965 0.0
O162 O 0.35016 0.05013 0.67111 0.0
O163 O 0.32172 0.02737 0.66235 0.0
O164 O 0.30968 0.99424 0.6949 0.0
O165 O 0.32395 0.99818 0.67003 0.0
C166 C 0.36434 0.02372 0.70659 0.0
O167 O 0.31098 0.02592 0.70625 0.0
O168 O 0.33831 0.05194 0.70717 0.0
In169 In 0.97227 0.28919 0.72009 0.0
O170 O 0.96858 0.31505 0.72989 0.0
O171 O 0.9962 0.31809 0.73422 0.0
C172 C 0.9438 0.27028 0.69264 0.0
C173 C 0.95797 0.26706 0.74904 0.0
C174 C 0.00252 0.29205 0.70294 0.0
O175 O 0.95328 0.28876 0.69507 0.0
O176 O 0.94855 0.26165 0.70407 0.0
O177 O 0.99761 0.28408 0.71805 0.0
O178 O 0.99213 0.29848 0.69651 0.0
C179 C 0.98589 0.32573 0.7362 0.0
O180 O 0.97014 0.2661 0.7393 0.0
O181 O 0.95337 0.27942 0.7444 0.0
In182 In 0.71304 0.66742 0.68427 0.0
O183 O 0.71638 0.69762 0.69046 0.0
O184 O 0.6958 0.67835 0.66876 0.0
C185 C 0.73621 0.66479 0.7106 0.0
C186 C 0.73116 0.6704 0.65304 0.0
C187 C 0.67884 0.64066 0.69567 0.0
O188 O 0.73487 0.68 0.70979 0.0
O189 O 0.72645 0.6515 0.69788 0.0
O190 O 0.68483 0.6378 0.68059 0.0
O191 O 0.69003 0.65685 0.70466 0.0
C192 C 0.70373 0.6949 0.67781 0.0
O193 O 0.71716 0.65424 0.65696 0.0
O194 O 0.73613 0.68454 0.66499 0.0
In195 In 0.32587 0.29425 0.70674 0.0
O196 O 0.3393 0.27975 0.68976 0.0
O197 O 0.30892 0.26429 0.69108 0.0
C198 C 0.35718 0.32805 0.72008 0.0
C199 C 0.30988 0.30766 0.68221 0.0
C200 C 0.31519 0.27572 0.73823 0.0
O201 O 0.35817 0.31503 0.71019 0.0
O202 O 0.34032 0.32412 0.72301 0.0
O203 O 0.30362 0.27828 0.728 0.0
O204 O 0.33181 0.28271 0.73266 0.0
C205 C 0.32336 0.26453 0.68475 0.0
O206 O 0.30303 0.30227 0.69773 0.0
O207 O 0.32468 0.3066 0.67955 0.0
In208 In 0.70588 0.0504 0.66929 0.0
O209 O 0.70399 0.07186 0.64983 0.0
O210 O 0.72888 0.06917 0.65051 0.0
C211 C 0.67116 0.03738 0.68313 0.0
C212 C 0.70502 0.02068 0.64893 0.0
C213 C 0.72854 0.06195 0.70136 0.0
O214 O 0.68284 0.0554 0.68201 0.0
O215 O 0.67671 0.02618 0.67664 0.0
O216 O 0.72039 0.04472 0.69392 0.0
O217 O 0.72537 0.07359 0.69261 0.0
C218 C 0.72009 0.07699 0.64354 0.0
O219 O 0.71804 0.03106 0.66156 0.0
O220 O 0.69212 0.02518 0.64654 0.0
In221 In 0.94831 0.66738 0.70775 0.0
O222 O 0.94015 0.6352 0.70664 0.0
O223 O 0.96533 0.65596 0.72328 0.0
C224 C 0.92334 0.65487 0.67721 0.0
C225 C 0.93485 0.67818 0.73708 0.0
C226 C 0.98124 0.6979 0.69757 0.0
O227 O 0.91801 0.64905 0.69301 0.0
O228 O 0.94114 0.66642 0.67683 0.0
O229 O 0.96831 0.70007 0.7046 0.0
O230 O 0.97783 0.68049 0.69627 0.0
C231 C 0.95425 0.63826 0.71747 0.0
O232 O 0.93308 0.68228 0.72076 0.0
O233 O 0.94367 0.66891 0.73871 0.0
H234 H 0.17836 0.37909 0.04265 0.0
H235 H 0.27075 0.30153 0.17381 0.0
H236 H 0.16605 0.37076 0.13732 0.0
H237 H 0.13921 0.37076 0.12078 0.0
H238 H 0.10158 0.31095 0.13403 0.0
H239 H 0.1291 0.31047 0.1485 0.0
H240 H 0.20156 0.37528 0.11939 0.0
H241 H 0.19652 0.38241 0.08775 0.0
H242 H 0.14661 0.32428 0.07808 0.0
H243 H 0.15198 0.31724 0.10966 0.0
H244 H 0.23372 0.36871 0.14272 0.0
H245 H 0.25681 0.37616 0.11903 0.0
H246 H 0.21391 0.32606 0.08404 0.0
H247 H 0.19109 0.3182 0.10809 0.0
H248 H 0.23158 0.35825 0.18065 0.0
H249 H 0.258 0.35249 0.18881 0.0
H250 H 0.22835 0.29721 0.15541 0.0
H251 H 0.20196 0.3031 0.14753 0.0
H252 H 0.20465 0.35586 0.203 0.0
H253 H 0.21248 0.34695 0.23259 0.0
H254 H 0.17857 0.28559 0.21284 0.0
H255 H 0.17254 0.29502 0.18279 0.0
H256 H 0.16384 0.36247 0.18352 0.0
H257 H 0.14098 0.35872 0.20671 0.0
H258 H 0.12172 0.29707 0.20639 0.0
H259 H 0.14395 0.30062 0.18269 0.0
O260 O 0.18013 0.37594 0.05508 0.0
O261 O 0.15448 0.34597 0.05089 0.0
O262 O 0.27514 0.33271 0.18783 0.0
O263 O 0.26051 0.30418 0.17082 0.0
C264 C 0.16686 0.33895 0.14936 0.0
C265 C 0.18021 0.34145 0.13606 0.0
C266 C 0.19627 0.33945 0.14091 0.0
C267 C 0.1987 0.33439 0.15888 0.0
C268 C 0.18534 0.3317 0.17212 0.0
C269 C 0.16948 0.33413 0.16746 0.0
C270 C 0.14969 0.34048 0.14377 0.0
C271 C 0.15195 0.3577 0.13673 0.0
C272 C 0.13643 0.3577 0.12739 0.0
C273 C 0.11808 0.34067 0.12553 0.0
C274 C 0.11555 0.32411 0.1344 0.0
C275 C 0.13124 0.32391 0.14311 0.0
C276 C 0.17714 0.34576 0.11681 0.0
C277 C 0.1896 0.36409 0.11038 0.0
C278 C 0.18666 0.36813 0.09232 0.0
C279 C 0.17115 0.35392 0.08039 0.0
C280 C 0.15869 0.33555 0.08691 0.0
C281 C 0.1617 0.33151 0.10494 0.0
C282 C 0.21069 0.34293 0.12715 0.0
C283 C 0.22942 0.35911 0.13011 0.0
C284 C 0.24255 0.36339 0.11656 0.0
C285 C 0.23705 0.35177 0.09968 0.0
C286 C 0.21841 0.33537 0.09686 0.0
C287 C 0.20542 0.33086 0.11057 0.0
C288 C 0.21484 0.33103 0.16361 0.0
C289 C 0.23079 0.34487 0.17521 0.0
C290 C 0.24588 0.34156 0.17979 0.0
C291 C 0.24527 0.32436 0.17278 0.0
C292 C 0.22927 0.31059 0.16107 0.0
C293 C 0.21419 0.31391 0.15652 0.0
C294 C 0.18802 0.32608 0.19082 0.0
C295 C 0.19888 0.34051 0.2052 0.0
C296 C 0.20318 0.3353 0.2222 0.0
C297 C 0.19627 0.31545 0.22532 0.0
C298 C 0.18465 0.30103 0.21098 0.0
C299 C 0.1809 0.30633 0.19382 0.0
C300 C 0.15579 0.33188 0.18161 0.0
C301 C 0.15469 0.34815 0.18844 0.0
C302 C 0.14173 0.34603 0.20165 0.0
C303 C 0.12987 0.32766 0.20832 0.0
C304 C 0.13094 0.31139 0.20152 0.0
C305 C 0.14368 0.31345 0.18812 0.0
C306 C 0.16802 0.35829 0.06123 0.0
C307 C 0.26124 0.32074 0.17764 0.0
H308 H 0.62974 0.80575 0.04487 0.0
H309 H 0.70067 0.96977 0.19881 0.0
H310 H 0.63276 0.79561 0.14106 0.0
H311 H 0.6318 0.76694 0.12604 0.0
H312 H 0.69016 0.7883 0.14857 0.0
H313 H 0.69159 0.81789 0.1616 0.0
H314 H 0.63 0.82913 0.12286 0.0
H315 H 0.62453 0.81867 0.0897 0.0
H316 H 0.68125 0.82554 0.09039 0.0
H317 H 0.68661 0.83621 0.12349 0.0
H318 H 0.63567 0.86702 0.14672 0.0
H319 H 0.63551 0.89109 0.1268 0.0
H320 H 0.68875 0.90087 0.10567 0.0
H321 H 0.68918 0.87744 0.1263 0.0
H322 H 0.6423 0.87279 0.18609 0.0
H323 H 0.64781 0.90507 0.19705 0.0
H324 H 0.70585 0.93186 0.17991 0.0
H325 H 0.70016 0.89946 0.16914 0.0
H326 H 0.64485 0.84815 0.20973 0.0
H327 H 0.65238 0.86706 0.23959 0.0
H328 H 0.71314 0.89286 0.23213 0.0
H329 H 0.70524 0.87495 0.20165 0.0
H330 H 0.64027 0.80061 0.19089 0.0
H331 H 0.64477 0.7803 0.21292 0.0
H332 H 0.70598 0.8214 0.21779 0.0
H333 H 0.70136 0.8413 0.19555 0.0
O334 O 0.63224 0.81 0.05796 0.0
O335 O 0.66149 0.8137 0.05908 0.0
O336 O 0.66811 0.94234 0.20308 0.0
O337 O 0.69807 0.95684 0.19452 0.0
C338 C 0.66383 0.82784 0.15887 0.0
C339 C 0.66191 0.83964 0.14573 0.0
C340 C 0.66372 0.85776 0.15171 0.0
C341 C 0.66769 0.86423 0.17072 0.0
C342 C 0.66981 0.85263 0.18381 0.0
C343 C 0.66789 0.83444 0.17795 0.0
C344 C 0.66227 0.80894 0.15238 0.0
C345 C 0.64532 0.79404 0.14273 0.0
C346 C 0.64475 0.7775 0.13431 0.0
C347 C 0.66098 0.77521 0.13583 0.0
C348 C 0.67754 0.78968 0.14653 0.0
C349 C 0.67828 0.8065 0.15441 0.0
C350 C 0.65867 0.83337 0.12557 0.0
C351 C 0.64124 0.82844 0.11579 0.0
C352 C 0.63814 0.82242 0.09687 0.0
C353 C 0.65244 0.82124 0.08739 0.0
C354 C 0.66993 0.82627 0.09726 0.0
C355 C 0.67302 0.83233 0.11617 0.0
C356 C 0.6625 0.87061 0.13804 0.0
C357 C 0.64721 0.8743 0.13768 0.0
C358 C 0.64707 0.88792 0.12616 0.0
C359 C 0.66219 0.89802 0.11469 0.0
C360 C 0.67706 0.89361 0.11454 0.0
C361 C 0.67726 0.88011 0.12619 0.0
C362 C 0.67085 0.88385 0.17689 0.0
C363 C 0.65619 0.88567 0.18474 0.0
C364 C 0.65937 0.90411 0.19096 0.0
C365 C 0.6773 0.92106 0.18938 0.0
C366 C 0.6919 0.91913 0.18136 0.0
C367 C 0.68869 0.90067 0.17517 0.0
C368 C 0.67449 0.86015 0.20361 0.0
C369 C 0.65977 0.85755 0.21481 0.0
C370 C 0.66416 0.86838 0.23193 0.0
C371 C 0.68342 0.88177 0.23829 0.0
C372 C 0.69815 0.88312 0.22754 0.0
C373 C 0.6937 0.87262 0.21025 0.0
C374 C 0.67047 0.82249 0.19177 0.0
C375 C 0.65461 0.80522 0.19681 0.0
C376 C 0.65721 0.79371 0.20942 0.0
C377 C 0.67574 0.79924 0.21707 0.0
C378 C 0.69156 0.81662 0.212 0.0
C379 C 0.68893 0.82814 0.19947 0.0
C380 C 0.64907 0.81477 0.06731 0.0
C381 C 0.6808 0.94067 0.19608 0.0
H382 H 0.15737 0.81668 0.04216 0.0
H383 H 0.30751 0.94598 0.19615 0.0
H384 H 0.13926 0.83262 0.13248 0.0
H385 H 0.11057 0.80184 0.12027 0.0
H386 H 0.12478 0.77027 0.15891 0.0
H387 H 0.15402 0.80084 0.17039 0.0
H388 H 0.17745 0.86214 0.11394 0.0
H389 H 0.16937 0.84795 0.08178 0.0
H390 H 0.16691 0.79536 0.09959 0.0
H391 H 0.17526 0.80983 0.13165 0.0
H392 H 0.21797 0.89883 0.13769 0.0
H393 H 0.24465 0.91262 0.11784 0.0
H394 H 0.2407 0.85603 0.11072 0.0
H395 H 0.21558 0.84318 0.13224 0.0
H396 H 0.21286 0.90758 0.17902 0.0
H397 H 0.24451 0.93583 0.18893 0.0
H398 H 0.27011 0.89959 0.18117 0.0
H399 H 0.23835 0.87142 0.17149 0.0
H400 H 0.17582 0.88184 0.20086 0.0
H401 H 0.1852 0.89678 0.23288 0.0
H402 H 0.22559 0.87622 0.23834 0.0
H403 H 0.21582 0.86104 0.20663 0.0
H404 H 0.13633 0.84134 0.17803 0.0
H405 H 0.11332 0.82599 0.2015 0.0
H406 H 0.15383 0.8143 0.23105 0.0
H407 H 0.17592 0.82826 0.20688 0.0
O408 O 0.16071 0.82207 0.05495 0.0
O409 O 0.15944 0.79528 0.06485 0.0
O410 O 0.28093 0.95301 0.19619 0.0
O411 O 0.29481 0.93505 0.19232 0.0
C412 C 0.16753 0.83713 0.15792 0.0
C413 C 0.18141 0.84557 0.14469 0.0
C414 C 0.19974 0.86204 0.15008 0.0
C415 C 0.20404 0.87033 0.16863 0.0
C416 C 0.19018 0.86202 0.18182 0.0
C417 C 0.17196 0.84532 0.17654 0.0
C418 C 0.1488 0.81902 0.15232 0.0
C419 C 0.13616 0.81909 0.13836 0.0
C420 C 0.11986 0.80156 0.13138 0.0
C421 C 0.11564 0.78381 0.13864 0.0
C422 C 0.12778 0.78385 0.15316 0.0
C423 C 0.14436 0.80128 0.1598 0.0
C424 C 0.17685 0.83699 0.12513 0.0
C425 C 0.17525 0.8476 0.11084 0.0
C426 C 0.17058 0.83943 0.0925 0.0
C427 C 0.16743 0.82049 0.08812 0.0
C428 C 0.1692 0.80996 0.10248 0.0
C429 C 0.17392 0.81817 0.12081 0.0
C430 C 0.21483 0.87 0.13654 0.0
C431 C 0.22301 0.88949 0.13194 0.0
C432 C 0.23815 0.89727 0.12033 0.0
C433 C 0.24508 0.88555 0.11257 0.0
C434 C 0.23626 0.86578 0.11671 0.0
C435 C 0.22157 0.85822 0.12879 0.0
C436 C 0.22333 0.88748 0.17449 0.0
C437 C 0.22532 0.90578 0.17951 0.0
C438 C 0.24342 0.92188 0.18514 0.0
C439 C 0.25986 0.91997 0.18582 0.0
C440 C 0.25777 0.90159 0.18078 0.0
C441 C 0.23966 0.88548 0.1752 0.0
C442 C 0.1952 0.87044 0.20143 0.0
C443 C 0.18657 0.88046 0.20908 0.0
C444 C 0.19203 0.88906 0.22729 0.0
C445 C 0.20613 0.88767 0.23816 0.0
C446 C 0.21449 0.87734 0.23046 0.0
C447 C 0.20906 0.8688 0.2123 0.0
C448 C 0.15787 0.83603 0.19077 0.0
C449 C 0.1401 0.83527 0.18951 0.0
C450 C 0.12706 0.82668 0.20307 0.0
C451 C 0.13164 0.81887 0.21828 0.0
C452 C 0.14955 0.81977 0.21944 0.0
C453 C 0.16238 0.82802 0.20574 0.0
C454 C 0.16229 0.81179 0.06864 0.0
C455 C 0.27912 0.93704 0.19176 0.0
H456 H 0.32412 0.1703 0.01407 0.0
H457 H 0.33262 0.0472 0.85156 0.0
H458 H 0.2936 0.1673 0.91707 0.0
H459 H 0.29437 0.19603 0.93217 0.0
H460 H 0.34992 0.23345 0.91167 0.0
H461 H 0.34907 0.20451 0.8967 0.0
H462 H 0.29911 0.13706 0.93723 0.0
H463 H 0.30431 0.14655 0.97059 0.0
H464 H 0.36151 0.1939 0.96262 0.0
H465 H 0.35617 0.18411 0.9293 0.0
H466 H 0.2947 0.10377 0.91574 0.0
H467 H 0.29747 0.07972 0.93359 0.0
H468 H 0.35945 0.1164 0.93729 0.0
H469 H 0.35636 0.14078 0.92014 0.0
H470 H 0.28934 0.0985 0.86991 0.0
H471 H 0.28746 0.06817 0.85768 0.0
H472 H 0.34861 0.09408 0.87107 0.0
H473 H 0.3503 0.12439 0.88301 0.0
H474 H 0.28721 0.13115 0.84797 0.0
H475 H 0.28214 0.11607 0.81634 0.0
H476 H 0.34096 0.1285 0.81986 0.0
H477 H 0.34606 0.14442 0.85084 0.0
H478 H 0.2891 0.16823 0.87611 0.0
H479 H 0.2839 0.18814 0.8544 0.0
H480 H 0.33621 0.20057 0.82927 0.0
H481 H 0.34194 0.18184 0.85193 0.0
O482 O 0.32241 0.16672 1.00085 0.0
O483 O 0.35166 0.19089 0.99599 0.0
O484 O 0.30157 0.04641 0.8496 0.0
O485 O 0.33294 0.059 0.85632 0.0
C486 C 0.32143 0.16622 0.89821 0.0
C487 C 0.32401 0.15428 0.91064 0.0
C488 C 0.32355 0.13709 0.90378 0.0
C489 C 0.32102 0.13206 0.8845 0.0
C490 C 0.31907 0.14427 0.87197 0.0
C491 C 0.31894 0.16126 0.87881 0.0
C492 C 0.32126 0.18387 0.90579 0.0
C493 C 0.30584 0.18173 0.91569 0.0
C494 C 0.30629 0.19814 0.92425 0.0
C495 C 0.32224 0.21698 0.92314 0.0
C496 C 0.33754 0.21909 0.91292 0.0
C497 C 0.33702 0.20265 0.90424 0.0
C498 C 0.3273 0.15985 0.93091 0.0
C499 C 0.3128 0.14938 0.94275 0.0
C500 C 0.31579 0.15488 0.96178 0.0
C501 C 0.33334 0.17099 0.96928 0.0
C502 C 0.34784 0.18142 0.95731 0.0
C503 C 0.34483 0.17588 0.93829 0.0
C504 C 0.32532 0.12395 0.91667 0.0
C505 C 0.30884 0.10675 0.92077 0.0
C506 C 0.31049 0.09295 0.93079 0.0
C507 C 0.32871 0.09594 0.93665 0.0
C508 C 0.3452 0.11366 0.93317 0.0
C509 C 0.34349 0.12759 0.92333 0.0
C510 C 0.31993 0.11357 0.87739 0.0
C511 C 0.3023 0.09757 0.87018 0.0
C512 C 0.30127 0.08028 0.86322 0.0
C513 C 0.31789 0.07869 0.86342 0.0
C514 C 0.33554 0.09479 0.87073 0.0
C515 C 0.33654 0.11209 0.87762 0.0
C516 C 0.31696 0.13876 0.85172 0.0
C517 C 0.29913 0.13115 0.84161 0.0
C518 C 0.29621 0.12231 0.82364 0.0
C519 C 0.31104 0.12076 0.81557 0.0
C520 C 0.32923 0.12956 0.82541 0.0
C521 C 0.33218 0.13859 0.84322 0.0
C522 C 0.31595 0.17361 0.86569 0.0
C523 C 0.29959 0.17553 0.8661 0.0
C524 C 0.29652 0.18673 0.85348 0.0
C525 C 0.30959 0.19601 0.83996 0.0
C526 C 0.32598 0.19401 0.83964 0.0
C527 C 0.3292 0.18309 0.85247 0.0
C528 C 0.33643 0.17686 0.98949 0.0
C529 C 0.3169 0.06037 0.85602 0.0
H530 H 0.85705 0.21698 0.01062 0.0
H531 H 0.71216 0.04019 0.86512 0.0
H532 H 0.8514 0.20631 0.89666 0.0
H533 H 0.88168 0.2357 0.90842 0.0
H534 H 0.90082 0.19917 0.93308 0.0
H535 H 0.87041 0.16986 0.9215 0.0
H536 H 0.83227 0.19545 0.93165 0.0
H537 H 0.84254 0.20946 0.96378 0.0
H538 H 0.84377 0.15767 0.9783 0.0
H539 H 0.83375 0.14396 0.94605 0.0
H540 H 0.79111 0.16195 0.93018 0.0
H541 H 0.76847 0.14914 0.95434 0.0
H542 H 0.77081 0.09573 0.95061 0.0
H543 H 0.79352 0.10872 0.92645 0.0
H544 H 0.76815 0.13496 0.89333 0.0
H545 H 0.73604 0.10667 0.88512 0.0
H546 H 0.7613 0.07061 0.87412 0.0
H547 H 0.7933 0.09896 0.88258 0.0
H548 H 0.78856 0.14495 0.85655 0.0
H549 H 0.77684 0.12895 0.82526 0.0
H550 H 0.81838 0.10966 0.82759 0.0
H551 H 0.82947 0.12509 0.85924 0.0
H552 H 0.83151 0.17964 0.85514 0.0
H553 H 0.85456 0.19462 0.8317 0.0
H554 H 0.8919 0.17736 0.85901 0.0
H555 H 0.86821 0.16146 0.88169 0.0
O556 O 0.85296 0.21115 0.998 0.0
O557 O 0.85302 0.18407 0.00483 0.0
O558 O 0.7124 0.07073 0.87447 0.0
O559 O 0.72468 0.0516 0.86851 0.0
C560 C 0.83964 0.16861 0.90315 0.0
C561 C 0.82651 0.16045 0.91694 0.0
C562 C 0.80791 0.14432 0.91214 0.0
C563 C 0.8025 0.13619 0.89357 0.0
C564 C 0.81566 0.14441 0.87974 0.0
C565 C 0.83428 0.16062 0.88454 0.0
C566 C 0.8588 0.18605 0.90827 0.0
C567 C 0.86228 0.20469 0.90436 0.0
C568 C 0.87946 0.22139 0.91114 0.0
C569 C 0.89348 0.21961 0.92166 0.0
C570 C 0.89028 0.20087 0.92487 0.0
C571 C 0.87297 0.18419 0.91833 0.0
C572 C 0.83237 0.16875 0.93654 0.0
C573 C 0.83485 0.18721 0.94179 0.0
C574 C 0.84067 0.19514 0.96015 0.0
C575 C 0.84401 0.1847 0.97361 0.0
C576 C 0.84135 0.16611 0.96829 0.0
C577 C 0.83559 0.15823 0.9499 0.0
C578 C 0.79396 0.13627 0.9266 0.0
C579 C 0.78678 0.14752 0.93465 0.0
C580 C 0.77392 0.14022 0.94848 0.0
C581 C 0.76792 0.12146 0.95441 0.0
C582 C 0.77505 0.11016 0.9462 0.0
C583 C 0.78802 0.11754 0.93245 0.0
C584 C 0.78302 0.11899 0.88858 0.0
C585 C 0.76669 0.12091 0.88923 0.0
C586 C 0.74839 0.10475 0.88449 0.0
C587 C 0.7461 0.08637 0.87896 0.0
C588 C 0.76254 0.08454 0.87831 0.0
C589 C 0.78083 0.10071 0.88311 0.0
C590 C 0.80975 0.13605 0.86019 0.0
C591 C 0.79515 0.13731 0.85026 0.0
C592 C 0.7886 0.12831 0.83232 0.0
C593 C 0.79665 0.11798 0.82392 0.0
C594 C 0.81169 0.11726 0.83376 0.0
C595 C 0.81816 0.12619 0.85175 0.0
C596 C 0.84817 0.16946 0.87012 0.0
C597 C 0.84458 0.17893 0.8559 0.0
C598 C 0.8579 0.18768 0.84265 0.0
C599 C 0.8752 0.18733 0.84348 0.0
C600 C 0.87866 0.17771 0.85775 0.0
C601 C 0.86523 0.16878 0.87085 0.0
C602 C 0.85026 0.19321 0.99309 0.0
C603 C 0.72669 0.06915 0.87386 0.0
H604 H 0.8627 0.67804 0.0254 0.0
H605 H 0.70189 0.62773 0.86163 0.0
H606 H 0.87443 0.70075 0.92085 0.0
H607 H 0.90226 0.70236 0.93777 0.0
H608 H 0.87213 0.63906 0.93574 0.0
H609 H 0.84433 0.6377 0.91929 0.0
H610 H 0.84997 0.69544 0.95013 0.0
H611 H 0.85882 0.69409 0.9826 0.0
H612 H 0.82021 0.63129 0.97777 0.0
H613 H 0.81162 0.63287 0.94525 0.0
H614 H 0.80959 0.69081 0.94356 0.0
H615 H 0.78508 0.68837 0.9639 0.0
H616 H 0.74969 0.62675 0.94642 0.0
H617 H 0.77437 0.62932 0.92608 0.0
H618 H 0.78802 0.68643 0.90637 0.0
H619 H 0.75593 0.68005 0.89617 0.0
H620 H 0.74241 0.62391 0.86995 0.0
H621 H 0.77447 0.63038 0.88045 0.0
H622 H 0.80697 0.69055 0.8705 0.0
H623 H 0.79477 0.68747 0.83839 0.0
H624 H 0.8051 0.63952 0.82665 0.0
H625 H 0.81489 0.64123 0.85922 0.0
H626 H 0.85542 0.70414 0.8787 0.0
H627 H 0.87597 0.71151 0.85289 0.0
H628 H 0.86745 0.65294 0.85153 0.0
H629 H 0.84767 0.64614 0.87799 0.0
O630 O 0.85884 0.67827 0.0126 0.0
O631 O 0.83872 0.64604 0.00943 0.0
O632 O 0.72228 0.65955 0.8797 0.0
O633 O 0.71465 0.63059 0.8659 0.0
C634 C 0.83925 0.66809 0.91243 0.0
C635 C 0.82561 0.66503 0.92545 0.0
C636 C 0.80758 0.66251 0.91952 0.0
C637 C 0.80298 0.66268 0.90049 0.0
C638 C 0.81678 0.66624 0.88746 0.0
C639 C 0.83511 0.66935 0.89355 0.0
C640 C 0.85745 0.66912 0.91883 0.0
C641 C 0.8741 0.68727 0.92366 0.0
C642 C 0.88993 0.68813 0.93337 0.0
C643 C 0.8893 0.67083 0.93834 0.0
C644 C 0.87294 0.65266 0.93248 0.0
C645 C 0.85715 0.65183 0.92286 0.0
C646 C 0.8302 0.66425 0.94538 0.0
C647 C 0.84343 0.68143 0.95614 0.0
C648 C 0.84845 0.6806 0.97467 0.0
C649 C 0.84026 0.66257 0.98277 0.0
C650 C 0.8268 0.64541 0.97196 0.0
C651 C 0.82182 0.64627 0.95342 0.0
C652 C 0.79367 0.66027 0.93332 0.0
C653 C 0.79668 0.67672 0.94437 0.0
C654 C 0.78266 0.67532 0.95587 0.0
C655 C 0.76546 0.65739 0.95662 0.0
C656 C 0.76287 0.6407 0.94619 0.0
C657 C 0.77687 0.64216 0.93454 0.0
C658 C 0.78352 0.65884 0.8942 0.0
C659 C 0.77806 0.67272 0.89852 0.0
C660 C 0.75975 0.66907 0.89262 0.0
C661 C 0.7466 0.65146 0.88224 0.0
C662 C 0.75218 0.63761 0.87792 0.0
C663 C 0.77047 0.64126 0.88387 0.0
C664 C 0.81172 0.66604 0.86733 0.0
C665 C 0.80646 0.6793 0.86097 0.0
C666 C 0.79972 0.67767 0.84244 0.0
C667 C 0.79867 0.66307 0.82969 0.0
C668 C 0.80505 0.65056 0.836 0.0
C669 C 0.81109 0.65177 0.85464 0.0
C670 C 0.85002 0.6746 0.88012 0.0
C671 C 0.85841 0.69309 0.87309 0.0
C672 C 0.86996 0.69717 0.85819 0.0
C673 C 0.8731 0.6827 0.84983 0.0
C674 C 0.8655 0.66451 0.85765 0.0
C675 C 0.85416 0.66055 0.87276 0.0
C676 C 0.84583 0.66171 0.00239 0.0
C677 C 0.72714 0.64752 0.87591 0.0
H678 H 0.84659 0.71363 0.37609 0.0
H679 H 0.91971 0.61843 0.51286 0.0
H680 H 0.83436 0.70707 0.47898 0.0
H681 H 0.81434 0.71678 0.46136 0.0
H682 H 0.77141 0.6557 0.44862 0.0
H683 H 0.79132 0.64626 0.46681 0.0
H684 H 0.86411 0.70438 0.45303 0.0
H685 H 0.86157 0.7137 0.42167 0.0
H686 H 0.81192 0.65618 0.4075 0.0
H687 H 0.81474 0.64703 0.43887 0.0
H688 H 0.89311 0.69197 0.47336 0.0
H689 H 0.91581 0.69368 0.45106 0.0
H690 H 0.86998 0.6421 0.41984 0.0
H691 H 0.84759 0.64017 0.44258 0.0
H692 H 0.88959 0.68306 0.51344 0.0
H693 H 0.9134 0.67424 0.52359 0.0
H694 H 0.88001 0.61804 0.49217 0.0
H695 H 0.85618 0.62697 0.48233 0.0
H696 H 0.8629 0.68837 0.53352 0.0
H697 H 0.87049 0.6826 0.56492 0.0
H698 H 0.83879 0.62016 0.55027 0.0
H699 H 0.8312 0.6261 0.51882 0.0
H700 H 0.83816 0.69924 0.51942 0.0
H701 H 0.82012 0.70272 0.54405 0.0
H702 H 0.7769 0.64133 0.53388 0.0
H703 H 0.79574 0.63791 0.50974 0.0
O704 O 0.84744 0.70958 0.38835 0.0
O705 O 0.82195 0.67982 0.38178 0.0
O706 O 0.92706 0.65132 0.52511 0.0
O707 O 0.91053 0.6223 0.50904 0.0
C708 C 0.82837 0.67029 0.48032 0.0
C709 C 0.84081 0.66976 0.4674 0.0
C710 C 0.85497 0.6652 0.47299 0.0
C711 C 0.85648 0.66079 0.49147 0.0
C712 C 0.84411 0.66141 0.50442 0.0
C713 C 0.83013 0.6663 0.49888 0.0
C714 C 0.81423 0.67599 0.47418 0.0
C715 C 0.82031 0.69585 0.47294 0.0
C716 C 0.80897 0.70133 0.46263 0.0
C717 C 0.79143 0.68701 0.45325 0.0
C718 C 0.78476 0.66712 0.45572 0.0
C719 C 0.79608 0.66167 0.46616 0.0
C720 C 0.8396 0.67506 0.44816 0.0
C721 C 0.85277 0.6938 0.44308 0.0
C722 C 0.85125 0.69909 0.42518 0.0
C723 C 0.83651 0.6857 0.41208 0.0
C724 C 0.82342 0.66685 0.41724 0.0
C725 C 0.82499 0.66158 0.43513 0.0
C726 C 0.86875 0.66588 0.45964 0.0
C727 C 0.88806 0.68096 0.46177 0.0
C728 C 0.90093 0.68204 0.44891 0.0
C729 C 0.89471 0.66805 0.43362 0.0
C730 C 0.87531 0.65297 0.43155 0.0
C731 C 0.86247 0.65188 0.44447 0.0
C732 C 0.87112 0.65559 0.49729 0.0
C733 C 0.8874 0.66882 0.50886 0.0
C734 C 0.901 0.66376 0.51458 0.0
C735 C 0.89858 0.6454 0.50872 0.0
C736 C 0.8823 0.63227 0.49697 0.0
C737 C 0.86868 0.63733 0.4913 0.0
C738 C 0.84644 0.65765 0.52398 0.0
C739 C 0.85727 0.67344 0.53722 0.0
C740 C 0.86173 0.67012 0.55506 0.0
C741 C 0.85533 0.65093 0.55997 0.0
C742 C 0.84379 0.63508 0.54689 0.0
C743 C 0.83946 0.63843 0.52897 0.0
C744 C 0.8182 0.66837 0.51281 0.0
C745 C 0.82474 0.68659 0.52247 0.0
C746 C 0.8143 0.68854 0.53648 0.0
C747 C 0.79691 0.67233 0.54095 0.0
C748 C 0.7903 0.65407 0.531 0.0
C749 C 0.80092 0.65211 0.51709 0.0
C750 C 0.8348 0.69144 0.39315 0.0
C751 C 0.91295 0.63993 0.51482 0.0
H752 H 0.33942 0.15584 0.38118 0.0
H753 H 0.35045 0.28662 0.54435 0.0
H754 H 0.31812 0.1301 0.47439 0.0
H755 H 0.31685 0.10094 0.46024 0.0
H756 H 0.37108 0.11735 0.49022 0.0
H757 H 0.37286 0.14736 0.50318 0.0
H758 H 0.31983 0.16382 0.45679 0.0
H759 H 0.32264 0.15939 0.4236 0.0
H760 H 0.38055 0.17086 0.43555 0.0
H761 H 0.37762 0.17548 0.46871 0.0
H762 H 0.31421 0.19193 0.48321 0.0
H763 H 0.31214 0.21522 0.46361 0.0
H764 H 0.37182 0.23909 0.45261 0.0
H765 H 0.37386 0.216 0.47276 0.0
H766 H 0.31318 0.19033 0.5261 0.0
H767 H 0.30981 0.21773 0.53829 0.0
H768 H 0.36778 0.25835 0.52485 0.0
H769 H 0.37104 0.23081 0.51294 0.0
H770 H 0.31577 0.15439 0.54445 0.0
H771 H 0.31003 0.1611 0.5759 0.0
H772 H 0.36244 0.21767 0.57883 0.0
H773 H 0.36919 0.20955 0.54834 0.0
H774 H 0.31631 0.12527 0.51961 0.0
H775 H 0.31464 0.10159 0.54095 0.0
H776 H 0.37262 0.14303 0.56354 0.0
H777 H 0.37374 0.16695 0.54253 0.0
O778 O 0.33864 0.15771 0.39437 0.0
O779 O 0.36831 0.16361 0.40127 0.0
O780 O 0.3217 0.25402 0.54635 0.0
O781 O 0.35139 0.27552 0.53961 0.0
C782 C 0.34655 0.15915 0.49746 0.0
C783 C 0.3469 0.17282 0.4853 0.0
C784 C 0.34553 0.18897 0.49233 0.0
C785 C 0.34446 0.19188 0.51156 0.0
C786 C 0.34484 0.17865 0.52387 0.0
C787 C 0.34578 0.16221 0.51678 0.0
C788 C 0.34565 0.14096 0.48969 0.0
C789 C 0.32981 0.12747 0.47777 0.0
C790 C 0.329 0.11063 0.46989 0.0
C791 C 0.34383 0.10664 0.47409 0.0
C792 C 0.35954 0.12005 0.48638 0.0
C793 C 0.3605 0.13712 0.49399 0.0
C794 C 0.34858 0.17011 0.46513 0.0
C795 C 0.33316 0.16551 0.45219 0.0
C796 C 0.33478 0.16292 0.43325 0.0
C797 C 0.35183 0.1648 0.42691 0.0
C798 C 0.36722 0.16933 0.43996 0.0
C799 C 0.36559 0.17196 0.45889 0.0
C800 C 0.34421 0.20239 0.47947 0.0
C801 C 0.32681 0.20216 0.47651 0.0
C802 C 0.32562 0.21536 0.46518 0.0
C803 C 0.34182 0.229 0.45653 0.0
C804 C 0.35916 0.22891 0.45924 0.0
C805 C 0.36033 0.21569 0.47062 0.0
C806 C 0.34237 0.20859 0.5187 0.0
C807 C 0.32514 0.20516 0.52586 0.0
C808 C 0.32325 0.22083 0.53278 0.0
C809 C 0.33854 0.24024 0.53256 0.0
C810 C 0.35573 0.2436 0.52524 0.0
C811 C 0.35762 0.22791 0.51839 0.0
C812 C 0.34289 0.18148 0.544 0.0
C813 C 0.32642 0.16786 0.5522 0.0
C814 C 0.32294 0.17199 0.57012 0.0
C815 C 0.33543 0.19023 0.57996 0.0
C816 C 0.35247 0.20339 0.572 0.0
C817 C 0.3563 0.19888 0.55437 0.0
C818 C 0.34515 0.14776 0.5295 0.0
C819 C 0.32865 0.12917 0.52914 0.0
C820 C 0.32781 0.11562 0.54129 0.0
C821 C 0.34357 0.12029 0.55392 0.0
C822 C 0.36014 0.13899 0.55418 0.0
C823 C 0.36087 0.15263 0.54212 0.0
C824 C 0.3535 0.16202 0.40678 0.0
C825 C 0.33663 0.25694 0.53993 0.0
H826 H 0.82198 0.17311 0.3714 0.0
H827 H 0.97622 0.2761 0.53128 0.0
H828 H 0.80706 0.18534 0.46615 0.0
H829 H 0.77901 0.15912 0.44757 0.0
H830 H 0.78861 0.11608 0.47288 0.0
H831 H 0.81678 0.14242 0.49128 0.0
H832 H 0.8447 0.21106 0.44682 0.0
H833 H 0.8358 0.20038 0.41379 0.0
H834 H 0.83137 0.14493 0.4242 0.0
H835 H 0.84058 0.15593 0.45713 0.0
H836 H 0.88296 0.24148 0.46821 0.0
H837 H 0.90693 0.25502 0.44524 0.0
H838 H 0.90868 0.20124 0.4414 0.0
H839 H 0.88431 0.18773 0.46388 0.0
H840 H 0.88354 0.24793 0.51417 0.0
H841 H 0.91618 0.27318 0.52576 0.0
H842 H 0.93632 0.23296 0.51277 0.0
H843 H 0.90359 0.20781 0.5014 0.0
H844 H 0.84919 0.22409 0.53647 0.0
H845 H 0.85918 0.23277 0.56988 0.0
H846 H 0.88751 0.19882 0.56759 0.0
H847 H 0.87798 0.19066 0.5343 0.0
H848 H 0.80447 0.18646 0.51015 0.0
H849 H 0.78033 0.16914 0.53212 0.0
H850 H 0.81611 0.14805 0.55586 0.0
H851 H 0.83895 0.16369 0.53273 0.0
O852 O 0.82573 0.17714 0.38447 0.0
O853 O 0.82342 0.14879 0.39061 0.0
O854 O 0.95208 0.28647 0.53331 0.0
O855 O 0.96319 0.2664 0.52679 0.0
C856 C 0.83357 0.18155 0.48719 0.0
C857 C 0.8479 0.1905 0.4745 0.0
C858 C 0.86678 0.20506 0.48095 0.0
C859 C 0.87139 0.21078 0.5001 0.0
C860 C 0.85724 0.20161 0.51286 0.0
C861 C 0.83828 0.18689 0.50645 0.0
C862 C 0.81402 0.16579 0.47996 0.0
C863 C 0.80276 0.17023 0.46808 0.0
C864 C 0.78686 0.15526 0.45739 0.0
C865 C 0.78182 0.1356 0.4586 0.0
C866 C 0.79212 0.1311 0.47172 0.0
C867 C 0.80817 0.14611 0.48229 0.0
C868 C 0.84322 0.18425 0.45434 0.0
C869 C 0.84195 0.19668 0.4419 0.0
C870 C 0.83679 0.19051 0.42306 0.0
C871 C 0.8328 0.17177 0.41636 0.0
C872 C 0.83431 0.15943 0.4289 0.0
C873 C 0.83954 0.16566 0.44771 0.0
C874 C 0.8819 0.21364 0.46763 0.0
C875 C 0.8886 0.23271 0.4624 0.0
C876 C 0.90236 0.24042 0.44934 0.0
C877 C 0.90973 0.22921 0.44138 0.0
C878 C 0.90309 0.21017 0.44693 0.0
C879 C 0.88927 0.20245 0.45988 0.0
C880 C 0.89126 0.22611 0.50689 0.0
C881 C 0.89504 0.24463 0.51385 0.0
C882 C 0.91368 0.25901 0.52045 0.0
C883 C 0.92887 0.25509 0.52017 0.0
C884 C 0.92498 0.23648 0.51316 0.0
C885 C 0.90632 0.2221 0.50661 0.0
C886 C 0.8628 0.20667 0.53306 0.0
C887 C 0.85756 0.21857 0.54324 0.0
C888 C 0.8633 0.22355 0.5622 0.0
C889 C 0.87399 0.21634 0.57122 0.0
C890 C 0.87913 0.2044 0.56096 0.0
C891 C 0.87375 0.19978 0.542 0.0
C892 C 0.82362 0.17656 0.51994 0.0
C893 C 0.80692 0.1779 0.52 0.0
C894 C 0.79324 0.16815 0.53276 0.0
C895 C 0.79613 0.15712 0.54594 0.0
C896 C 0.813 0.15596 0.54579 0.0
C897 C 0.82636 0.16526 0.53275 0.0
C898 C 0.82704 0.16514 0.3964 0.0
C899 C 0.94871 0.27031 0.52716 0.0
H900 H 0.01177 0.54141 0.3441 0.0
H901 H 0.00782 0.38461 0.21477 0.0
H902 H 0.97072 0.51434 0.25247 0.0
H903 H 0.97465 0.54643 0.26168 0.0
H904 H 0.0203 0.57367 0.225 0.0
H905 H 0.01699 0.54167 0.21646 0.0
H906 H 0.97894 0.48803 0.27692 0.0
H907 H 0.98809 0.50614 0.30748 0.0
H908 H 0.0398 0.55205 0.28654 0.0
H909 H 0.03062 0.53366 0.25613 0.0
H910 H 0.97436 0.44837 0.26005 0.0
H911 H 0.98373 0.43266 0.28339 0.0
H912 H 0.04298 0.47901 0.28304 0.0
H913 H 0.03338 0.49473 0.25994 0.0
H914 H 0.96178 0.43498 0.21606 0.0
H915 H 0.96089 0.40368 0.21155 0.0
H916 H 0.0227 0.43383 0.22249 0.0
H917 H 0.0234 0.46503 0.22669 0.0
H918 H 0.95544 0.46077 0.18696 0.0
H919 H 0.95024 0.44317 0.15645 0.0
H920 H 0.00993 0.4585 0.16007 0.0
H921 H 0.01506 0.47655 0.18996 0.0
H922 H 0.95817 0.50302 0.20787 0.0
H923 H 0.95159 0.51928 0.18309 0.0
H924 H 0.00128 0.52579 0.15643 0.0
H925 H 0.00846 0.51083 0.18196 0.0
O926 O 0.00856 0.53436 0.33198 0.0
O927 O 0.03479 0.55769 0.32044 0.0
O928 O 0.97607 0.38205 0.21034 0.0
O929 O 0.00777 0.3968 0.2163 0.0
C930 C 0.99322 0.50679 0.2306 0.0
C931 C 0.99819 0.49885 0.24559 0.0
C932 C 0.99784 0.48094 0.24271 0.0
C933 C 0.99302 0.47115 0.22477 0.0
C934 C 0.98874 0.47939 0.20965 0.0
C935 C 0.98852 0.49708 0.21256 0.0
C936 C 0.99366 0.52569 0.2339 0.0
C937 C 0.98147 0.5272 0.2463 0.0
C938 C 0.9837 0.54545 0.25154 0.0
C939 C 0.9978 0.56238 0.24405 0.0
C940 C 0.00927 0.56074 0.23085 0.0
C941 C 0.00734 0.54252 0.22593 0.0
C942 C 0.00411 0.50954 0.26432 0.0
C943 C 0.99232 0.50192 0.27902 0.0
C944 C 0.99754 0.51233 0.29643 0.0
C945 C 0.01465 0.53057 0.29944 0.0
C946 C 0.02652 0.53807 0.28469 0.0
C947 C 0.02131 0.5276 0.26731 0.0
C948 C 0.0032 0.47263 0.2583 0.0
C949 C 0.98931 0.45524 0.26524 0.0
C950 C 0.99471 0.44625 0.27847 0.0
C951 C 0.01413 0.45451 0.28497 0.0
C952 C 0.02789 0.47238 0.27849 0.0
C953 C 0.02246 0.48136 0.26526 0.0
C954 C 0.99263 0.45223 0.22179 0.0
C955 C 0.97511 0.43478 0.2174 0.0
C956 C 0.97465 0.41694 0.21487 0.0
C957 C 0.99173 0.41625 0.21672 0.0
C958 C 0.00928 0.43382 0.22101 0.0
C959 C 0.00972 0.45165 0.22347 0.0
C960 C 0.98561 0.46987 0.19065 0.0
C961 C 0.9674 0.46052 0.18096 0.0
C962 C 0.96444 0.45037 0.16364 0.0
C963 C 0.97967 0.44942 0.1558 0.0
C964 C 0.99795 0.45919 0.16548 0.0
C965 C 0.00089 0.46937 0.18266 0.0
C966 C 0.98378 0.5057 0.19675 0.0
C967 C 0.96763 0.508 0.19667 0.0
C968 C 0.9638 0.51715 0.18237 0.0
C969 C 0.97591 0.52394 0.16768 0.0
C970 C 0.99183 0.52113 0.16763 0.0
C971 C 0.99582 0.5123 0.18209 0.0
C972 C 0.02001 0.54174 0.31788 0.0
C973 C 0.99131 0.39731 0.21424 0.0
H974 H 0.48686 0.51165 0.34977 0.0
H975 H 0.37916 0.36374 0.1852 0.0
H976 H 0.49977 0.52565 0.25297 0.0
H977 H 0.5261 0.55294 0.27233 0.0
H978 H 0.5632 0.52978 0.26066 0.0
H979 H 0.53649 0.50193 0.24172 0.0
H980 H 0.46478 0.49365 0.27009 0.0
H981 H 0.46961 0.50232 0.30358 0.0
H982 H 0.51541 0.48893 0.307 0.0
H983 H 0.51023 0.48004 0.27353 0.0
H984 H 0.43226 0.46108 0.24437 0.0
H985 H 0.40697 0.43891 0.26359 0.0
H986 H 0.44406 0.418 0.2839 0.0
H987 H 0.4691 0.44001 0.2646 0.0
H988 H 0.43683 0.46066 0.19998 0.0
H989 H 0.40714 0.43253 0.18559 0.0
H990 H 0.42299 0.39333 0.21012 0.0
H991 H 0.45274 0.42159 0.22424 0.0
H992 H 0.47539 0.49315 0.18399 0.0
H993 H 0.46798 0.48448 0.15059 0.0
H994 H 0.47023 0.43165 0.15727 0.0
H995 H 0.4775 0.44043 0.19077 0.0
H996 H 0.51025 0.52616 0.20962 0.0
H997 H 0.53533 0.54496 0.18886 0.0
H998 H 0.54359 0.49551 0.17887 0.0
H999 H 0.51897 0.47711 0.20011 0.0
O1000 O 0.48506 0.50796 0.33657 0.0
O1001 O 0.50858 0.50102 0.33755 0.0
O1002 O 0.38337 0.39591 0.17832 0.0
O1003 O 0.39078 0.37513 0.19074 0.0
C1004 C 0.49911 0.49352 0.23756 0.0
C1005 C 0.48451 0.48143 0.24897 0.0
C1006 C 0.46751 0.46484 0.24098 0.0
C1007 C 0.46505 0.46027 0.22159 0.0
C1008 C 0.47985 0.47201 0.21023 0.0
C1009 C 0.49702 0.48851 0.21826 0.0
C1010 C 0.51618 0.51173 0.24609 0.0
C1011 C 0.51366 0.5266 0.25433 0.0
C1012 C 0.52863 0.54212 0.26536 0.0
C1013 C 0.54649 0.54325 0.26799 0.0
C1014 C 0.54949 0.52913 0.25873 0.0
C1015 C 0.53433 0.51334 0.24791 0.0
C1016 C 0.48711 0.48616 0.26941 0.0
C1017 C 0.47572 0.49243 0.27813 0.0
C1018 C 0.47858 0.49746 0.29725 0.0
C1019 C 0.49292 0.49635 0.30797 0.0
C1020 C 0.50425 0.48997 0.29916 0.0
C1021 C 0.50133 0.48488 0.28005 0.0
C1022 C 0.45242 0.45201 0.25303 0.0
C1023 C 0.43489 0.45174 0.25304 0.0
C1024 C 0.42056 0.43922 0.2641 0.0
C1025 C 0.42355 0.4267 0.27517 0.0
C1026 C 0.4413 0.42734 0.27536 0.0
C1027 C 0.45561 0.43991 0.26441 0.0
C1028 C 0.44691 0.44314 0.21314 0.0
C1029 C 0.43386 0.44598 0.20219 0.0
C1030 C 0.41691 0.42989 0.19402 0.0
C1031 C 0.41269 0.41066 0.19671 0.0
C1032 C 0.42579 0.40792 0.20777 0.0
C1033 C 0.44276 0.42402 0.21589 0.0
C1034 C 0.47694 0.46741 0.18979 0.0
C1035 C 0.47454 0.47985 0.17818 0.0
C1036 C 0.47037 0.47488 0.1591 0.0
C1037 C 0.46849 0.45734 0.15126 0.0
C1038 C 0.47135 0.44513 0.16291 0.0
C1039 C 0.47558 0.45015 0.182 0.0
C1040 C 0.51281 0.50029 0.20637 0.0
C1041 C 0.51767 0.51952 0.20312 0.0
C1042 C 0.53188 0.53015 0.19114 0.0
C1043 C 0.54143 0.52171 0.18215 0.0
C1044 C 0.53672 0.50254 0.18574 0.0
C1045 C 0.52255 0.49195 0.19775 0.0
C1046 C 0.49605 0.50189 0.32825 0.0
C1047 C 0.39472 0.39352 0.18801 0.0
H1048 H 0.50292 0.98385 0.35987 0.0
H1049 H 0.36335 0.95586 0.19553 0.0
H1050 H 0.5251 0.01972 0.27064 0.0
H1051 H 0.54917 0.01847 0.29138 0.0
H1052 H 0.53969 0.96636 0.25978 0.0
H1053 H 0.51525 0.96746 0.23923 0.0
H1054 H 0.48616 0.00579 0.28827 0.0
H1055 H 0.49255 0.00109 0.32047 0.0
H1056 H 0.49503 0.94978 0.30173 0.0
H1057 H 0.48831 0.95445 0.26965 0.0
H1058 H 0.44807 0.00042 0.26256 0.0
H1059 H 0.42127 0.98844 0.28233 0.0
H1060 H 0.4224 0.93458 0.28606 0.0
H1061 H 0.448 0.94607 0.26492 0.0
H1062 H 0.45631 0.01422 0.22296 0.0
H1063 H 0.4257 0.01025 0.21074 0.0
H1064 H 0.39913 0.94741 0.21236 0.0
H1065 H 0.4299 0.95157 0.22437 0.0
H1066 H 0.49703 0.02808 0.20638 0.0
H1067 H 0.49011 0.03675 0.17607 0.0
H1068 H 0.44846 0.97571 0.16101 0.0
H1069 H 0.45601 0.96719 0.19099 0.0
H1070 H 0.53319 0.02695 0.22987 0.0
H1071 H 0.55801 0.03662 0.20784 0.0
H1072 H 0.52025 0.98404 0.17251 0.0
H1073 H 0.49636 0.97387 0.19528 0.0
O1074 O 0.50001 0.9852 0.34708 0.0
O1075 O 0.50147 0.95913 0.33668 0.0
O1076 O 0.39002 0.99023 0.19965 0.0
O1077 O 0.37564 0.95785 0.20033 0.0
C1078 C 0.49971 0.99071 0.24551 0.0
C1079 C 0.48417 0.98415 0.25703 0.0
C1080 C 0.46629 0.9814 0.2501 0.0
C1081 C 0.46401 0.98563 0.23171 0.0
C1082 C 0.47947 0.9921 0.2201 0.0
C1083 C 0.49725 0.99426 0.22688 0.0
C1084 C 0.51833 0.99361 0.25351 0.0
C1085 C 0.52872 0.00845 0.26777 0.0
C1086 C 0.54228 0.0076 0.27971 0.0
C1087 C 0.54598 0.99211 0.27736 0.0
C1088 C 0.53706 0.97843 0.26189 0.0
C1089 C 0.52323 0.97913 0.25006 0.0
C1090 C 0.48685 0.9805 0.27665 0.0
C1091 C 0.48789 0.99343 0.29119 0.0
C1092 C 0.49163 0.99076 0.30954 0.0
C1093 C 0.49439 0.97511 0.31367 0.0
C1094 C 0.49302 0.962 0.29904 0.0
C1095 C 0.4892 0.96464 0.28071 0.0
C1096 C 0.44997 0.97412 0.26223 0.0
C1097 C 0.4423 0.98592 0.26744 0.0
C1098 C 0.42713 0.97911 0.279 0.0
C1099 C 0.41961 0.96051 0.28599 0.0
C1100 C 0.42748 0.9488 0.28076 0.0
C1101 C 0.44232 0.95545 0.26884 0.0
C1102 C 0.44532 0.98318 0.22452 0.0
C1103 C 0.44387 0.99961 0.22061 0.0
C1104 C 0.42636 0.9973 0.21367 0.0
C1105 C 0.40995 0.9785 0.21057 0.0
C1106 C 0.41147 0.96208 0.21459 0.0
C1107 C 0.42901 0.96441 0.22148 0.0
C1108 C 0.47695 0.99702 0.20093 0.0
C1109 C 0.4867 0.01657 0.19636 0.0
C1110 C 0.48258 0.0215 0.17911 0.0
C1111 C 0.46861 0.00696 0.16613 0.0
C1112 C 0.45945 0.98728 0.17053 0.0
C1113 C 0.46364 0.98237 0.18773 0.0
C1114 C 0.51293 0.9997 0.21421 0.0
C1115 C 0.5305 0.01734 0.21755 0.0
C1116 C 0.54457 0.02297 0.20478 0.0
C1117 C 0.5412 0.01122 0.18822 0.0
C1118 C 0.52364 0.99337 0.18516 0.0
C1119 C 0.5098 0.9876 0.1981 0.0
C1120 C 0.49882 0.97259 0.33313 0.0
C1121 C 0.39132 0.97596 0.20319 0.0
H1122 H 0.49947 0.04048 0.71062 0.0
H1123 H 0.62768 0.00743 0.85017 0.0
H1124 H 0.49499 0.03654 0.81402 0.0
H1125 H 0.46909 0.03658 0.795 0.0
H1126 H 0.44185 0.97393 0.78364 0.0
H1127 H 0.4674 0.97384 0.80332 0.0
H1128 H 0.52857 0.04311 0.78687 0.0
H1129 H 0.52022 0.04794 0.75536 0.0
H1130 H 0.48272 0.98527 0.74476 0.0
H1131 H 0.49136 0.98067 0.77622 0.0
H1132 H 0.56859 0.04017 0.80411 0.0
H1133 H 0.59031 0.04087 0.78115 0.0
H1134 H 0.54593 0.98359 0.75754 0.0
H1135 H 0.52518 0.98241 0.78146 0.0
H1136 H 0.56646 0.04093 0.8482 0.0
H1137 H 0.59787 0.04539 0.85821 0.0
H1138 H 0.58133 0.9889 0.8306 0.0
H1139 H 0.5499 0.98454 0.82087 0.0
H1140 H 0.52418 0.03216 0.86851 0.0
H1141 H 0.53358 0.03499 0.90123 0.0
H1142 H 0.547 0.98886 0.89171 0.0
H1143 H 0.53466 0.98422 0.85945 0.0
H1144 H 0.49026 0.02643 0.84885 0.0
H1145 H 0.46732 0.01826 0.87275 0.0
H1146 H 0.46462 0.9626 0.87664 0.0
H1147 H 0.4871 0.97068 0.85242 0.0
O1148 O 0.5029 0.03821 0.72287 0.0
O1149 O 0.48362 0.00591 0.71824 0.0
O1150 O 0.62313 0.03494 0.86045 0.0
O1151 O 0.61536 0.00604 0.84642 0.0
C1152 C 0.50112 0.00605 0.81652 0.0
C1153 C 0.51459 0.00894 0.80336 0.0
C1154 C 0.53216 0.01013 0.80888 0.0
C1155 C 0.53683 0.00973 0.82789 0.0
C1156 C 0.5234 0.00702 0.84118 0.0
C1157 C 0.50519 0.00441 0.8353 0.0
C1158 C 0.48296 0.00517 0.81015 0.0
C1159 C 0.48293 0.02271 0.8082 0.0
C1160 C 0.46825 0.02273 0.79725 0.0
C1161 C 0.45366 0.00527 0.78784 0.0
C1162 C 0.45299 0.98754 0.79083 0.0
C1163 C 0.46744 0.98746 0.80215 0.0
C1164 C 0.51053 0.01157 0.7838 0.0
C1165 C 0.51871 0.03045 0.77763 0.0
C1166 C 0.51385 0.03316 0.75967 0.0
C1167 C 0.50072 0.01699 0.74757 0.0
C1168 C 0.49283 0.99804 0.75373 0.0
C1169 C 0.49775 0.99536 0.77168 0.0
C1170 C 0.5453 0.0112 0.79453 0.0
C1171 C 0.56369 0.02773 0.79406 0.0
C1172 C 0.576 0.02818 0.78075 0.0
C1173 C 0.57 0.01224 0.76743 0.0
C1174 C 0.55134 0.99596 0.76776 0.0
C1175 C 0.53927 0.99535 0.78129 0.0
C1176 C 0.55592 0.01241 0.83384 0.0
C1177 C 0.56964 0.02953 0.84438 0.0
C1178 C 0.58758 0.03204 0.85004 0.0
C1179 C 0.59212 0.01749 0.8452 0.0
C1180 C 0.57832 0.00039 0.83457 0.0
C1181 C 0.56037 0.99787 0.82896 0.0
C1182 C 0.52878 0.00805 0.86141 0.0
C1183 C 0.52862 0.02226 0.87358 0.0
C1184 C 0.5345 0.02416 0.89235 0.0
C1185 C 0.54171 0.01258 0.89937 0.0
C1186 C 0.54148 0.99803 0.88714 0.0
C1187 C 0.53472 0.99555 0.86848 0.0
C1188 C 0.4902 0.99906 0.84875 0.0
C1189 C 0.48438 0.01231 0.85459 0.0
C1190 C 0.47149 0.00772 0.86842 0.0
C1191 C 0.46415 0.98978 0.87663 0.0
C1192 C 0.46977 0.97642 0.87046 0.0
C1193 C 0.48267 0.98103 0.85667 0.0
C1194 C 0.4952 0.01995 0.72867 0.0
C1195 C 0.61115 0.02009 0.85118 0.0
H1196 H 0.99034 0.47799 0.71338 0.0
H1197 H 0.00175 0.62057 0.86597 0.0
H1198 H 0.98307 0.4664 0.81119 0.0
H1199 H 0.9831 0.43832 0.7964 0.0
H1200 H 0.042 0.46176 0.81836 0.0
H1201 H 0.04227 0.49091 0.83161 0.0
H1202 H 0.97841 0.49317 0.79016 0.0
H1203 H 0.97767 0.48481 0.75704 0.0
H1204 H 0.03883 0.50647 0.76283 0.0
H1205 H 0.03941 0.51502 0.79591 0.0
H1206 H 0.97047 0.51837 0.81404 0.0
H1207 H 0.95957 0.53364 0.7916 0.0
H1208 H 0.01777 0.56875 0.776 0.0
H1209 H 0.02857 0.5532 0.79847 0.0
H1210 H 0.97693 0.52623 0.8581 0.0
H1211 H 0.97009 0.55178 0.86862 0.0
H1212 H 0.02261 0.59549 0.84694 0.0
H1213 H 0.02941 0.56982 0.83673 0.0
H1214 H 0.9889 0.49782 0.87914 0.0
H1215 H 0.98503 0.50807 0.91009 0.0
H1216 H 0.03176 0.5668 0.90402 0.0
H1217 H 0.03671 0.55579 0.87377 0.0
H1218 H 0.99218 0.46721 0.85649 0.0
H1219 H 0.99871 0.45006 0.88048 0.0
H1220 H 0.05403 0.50193 0.89531 0.0
H1221 H 0.04756 0.51879 0.87093 0.0
O1222 O 0.99098 0.48154 0.72649 0.0
O1223 O 0.02242 0.4928 0.73022 0.0
O1224 O 0.97733 0.58716 0.873 0.0
O1225 O 0.0041 0.61018 0.86195 0.0
C1226 C 0.01299 0.49913 0.82877 0.0
C1227 C 0.00952 0.50987 0.81557 0.0
C1228 C 0.00656 0.5253 0.82153 0.0
C1229 C 0.00796 0.53067 0.84064 0.0
C1230 C 0.01264 0.52081 0.85392 0.0
C1231 C 0.01509 0.50493 0.84796 0.0
C1232 C 0.01275 0.48088 0.82223 0.0
C1233 C 0.99601 0.46549 0.81276 0.0
C1234 C 0.996 0.44923 0.8045 0.0
C1235 C 0.01259 0.44758 0.80602 0.0
C1236 C 0.02908 0.46263 0.81643 0.0
C1237 C 0.02922 0.47921 0.82428 0.0
C1238 C 0.00901 0.50492 0.79538 0.0
C1239 C 0.99167 0.49632 0.7842 0.0
C1240 C 0.99127 0.49144 0.76531 0.0
C1241 C 0.0082 0.49501 0.75727 0.0
C1242 C 0.02554 0.50357 0.76856 0.0
C1243 C 0.02592 0.50847 0.78745 0.0
C1244 C 0.00028 0.53471 0.80783 0.0
C1245 C 0.98084 0.52932 0.80573 0.0
C1246 C 0.97464 0.53795 0.79286 0.0
C1247 C 0.98783 0.55229 0.78203 0.0
C1248 C 0.00735 0.55777 0.78424 0.0
C1249 C 0.01351 0.54891 0.79698 0.0
C1250 C 0.00369 0.5462 0.84673 0.0
C1251 C 0.98695 0.54134 0.85569 0.0
C1252 C 0.98307 0.55596 0.86165 0.0
C1253 C 0.99582 0.57569 0.85864 0.0
C1254 C 0.01251 0.58045 0.8495 0.0
C1255 C 0.0164 0.56583 0.84361 0.0
C1256 C 0.013 0.52606 0.87406 0.0
C1257 C 0.99884 0.51268 0.88479 0.0
C1258 C 0.9964 0.51872 0.90239 0.0
C1259 C 0.00766 0.53847 0.90942 0.0
C1260 C 0.0228 0.55149 0.89919 0.0
C1261 C 0.02558 0.54526 0.88178 0.0
C1262 C 0.01943 0.49421 0.86191 0.0
C1263 C 0.00581 0.47476 0.86475 0.0
C1264 C 0.0095 0.46507 0.87858 0.0
C1265 C 0.02687 0.47467 0.88986 0.0
C1266 C 0.04062 0.49406 0.88674 0.0
C1267 C 0.0369 0.50374 0.87291 0.0
C1268 C 0.00771 0.48975 0.7372 0.0
C1269 C 0.99179 0.59128 0.86498 0.0
H1270 H 0.48407 0.49809 0.70042 0.0
H1271 H 0.63383 0.62144 0.8571 0.0
H1272 H 0.4652 0.49587 0.79661 0.0
H1273 H 0.44182 0.46411 0.78036 0.0
H1274 H 0.47217 0.43788 0.80544 0.0
H1275 H 0.49555 0.46961 0.82129 0.0
H1276 H 0.50082 0.53303 0.77686 0.0
H1277 H 0.49282 0.52283 0.74367 0.0
H1278 H 0.50314 0.47495 0.75156 0.0
H1279 H 0.51138 0.48549 0.78464 0.0
H1280 H 0.54146 0.56995 0.79721 0.0
H1281 H 0.56455 0.58576 0.7737 0.0
H1282 H 0.57128 0.53503 0.76741 0.0
H1283 H 0.54851 0.51954 0.79094 0.0
H1284 H 0.53811 0.57422 0.84307 0.0
H1285 H 0.56836 0.60387 0.85401 0.0
H1286 H 0.59964 0.57473 0.83908 0.0
H1287 H 0.56928 0.54513 0.82837 0.0
H1288 H 0.50662 0.54448 0.86631 0.0
H1289 H 0.51531 0.5518 0.89999 0.0
H1290 H 0.55504 0.53061 0.8952 0.0
H1291 H 0.54656 0.52366 0.8617 0.0
H1292 H 0.46775 0.50389 0.84418 0.0
H1293 H 0.44661 0.48093 0.86591 0.0
H1294 H 0.48982 0.46556 0.87943 0.0
H1295 H 0.5106 0.48821 0.85764 0.0
O1296 O 0.48735 0.50191 0.71357 0.0
O1297 O 0.49269 0.47744 0.71839 0.0
O1298 O 0.60491 0.6242 0.86041 0.0
O1299 O 0.62167 0.60991 0.85289 0.0
C1300 C 0.49857 0.50466 0.81645 0.0
C1301 C 0.51122 0.51616 0.80331 0.0
C1302 C 0.52872 0.53337 0.8093 0.0
C1303 C 0.53313 0.53962 0.8284 0.0
C1304 C 0.52035 0.52828 0.84152 0.0
C1305 C 0.50315 0.5107 0.83557 0.0
C1306 C 0.48203 0.48501 0.81015 0.0
C1307 C 0.46643 0.48312 0.79898 0.0
C1308 C 0.45314 0.46501 0.78972 0.0
C1309 C 0.45538 0.44863 0.79147 0.0
C1310 C 0.47028 0.45034 0.80365 0.0
C1311 C 0.48349 0.46838 0.81291 0.0
C1312 C 0.50647 0.50988 0.78316 0.0
C1313 C 0.50135 0.52035 0.77137 0.0
C1314 C 0.49678 0.51448 0.75243 0.0
C1315 C 0.49727 0.49802 0.74497 0.0
C1316 C 0.50255 0.48764 0.75685 0.0
C1317 C 0.50718 0.49357 0.77577 0.0
C1318 C 0.54318 0.54354 0.79564 0.0
C1319 C 0.54802 0.56235 0.7908 0.0
C1320 C 0.56119 0.57132 0.7774 0.0
C1321 C 0.56954 0.56151 0.76857 0.0
C1322 C 0.56481 0.54279 0.77369 0.0
C1323 C 0.55186 0.53396 0.78717 0.0
C1324 C 0.55154 0.55761 0.83482 0.0
C1325 C 0.55152 0.57429 0.84218 0.0
C1326 C 0.56881 0.5912 0.8484 0.0
C1327 C 0.58643 0.59168 0.84738 0.0
C1328 C 0.58635 0.57487 0.84003 0.0
C1329 C 0.56904 0.55797 0.83385 0.0
C1330 C 0.52601 0.53359 0.86165 0.0
C1331 C 0.5173 0.54159 0.87258 0.0
C1332 C 0.52227 0.54577 0.89171 0.0
C1333 C 0.53572 0.54161 0.90012 0.0
C1334 C 0.54448 0.53374 0.88906 0.0
C1335 C 0.53976 0.52989 0.86997 0.0
C1336 C 0.49071 0.49774 0.84941 0.0
C1337 C 0.47264 0.49564 0.85197 0.0
C1338 C 0.46066 0.48263 0.86441 0.0
C1339 C 0.46653 0.47138 0.87428 0.0
C1340 C 0.48481 0.47384 0.87186 0.0
C1341 C 0.49676 0.48687 0.85955 0.0
C1342 C 0.49232 0.49178 0.72486 0.0
C1343 C 0.60484 0.60961 0.85397 0.0
H1344 H 0.66173 0.86226 0.67511 0.0
H1345 H 0.65715 0.70844 0.54157 0.0
H1346 H 0.64041 0.85427 0.57743 0.0
H1347 H 0.65136 0.88801 0.5892 0.0
H1348 H 0.70476 0.9076 0.56335 0.0
H1349 H 0.69404 0.87378 0.5524 0.0
H1350 H 0.63651 0.81879 0.60211 0.0
H1351 H 0.64166 0.83309 0.63404 0.0
H1352 H 0.70027 0.87569 0.6242 0.0
H1353 H 0.69501 0.86106 0.5924 0.0
H1354 H 0.63374 0.77729 0.58659 0.0
H1355 H 0.64037 0.76031 0.61089 0.0
H1356 H 0.69984 0.80682 0.61669 0.0
H1357 H 0.69318 0.82344 0.59236 0.0
H1358 H 0.62306 0.76979 0.5408 0.0
H1359 H 0.61788 0.73671 0.53494 0.0
H1360 H 0.67738 0.75816 0.55308 0.0
H1361 H 0.68243 0.79119 0.55863 0.0
H1362 H 0.62655 0.80329 0.51214 0.0
H1363 H 0.62268 0.78816 0.48072 0.0
H1364 H 0.67637 0.7891 0.49115 0.0
H1365 H 0.68055 0.80514 0.52193 0.0
H1366 H 0.63531 0.84669 0.5313 0.0
H1367 H 0.64028 0.86934 0.50723 0.0
H1368 H 0.69125 0.86812 0.49321 0.0
H1369 H 0.68653 0.84613 0.5176 0.0
O1370 O 0.66004 0.85678 0.66246 0.0
O1371 O 0.69001 0.87843 0.65666 0.0
O1372 O 0.62842 0.71115 0.53422 0.0
O1373 O 0.65882 0.72139 0.54368 0.0
C1374 C 0.66169 0.84095 0.56043 0.0
C1375 C 0.66199 0.83027 0.5755 0.0
C1376 C 0.65963 0.81144 0.57216 0.0
C1377 C 0.65608 0.80288 0.55378 0.0
C1378 C 0.65583 0.81356 0.53868 0.0
C1379 C 0.65882 0.83269 0.54198 0.0
C1380 C 0.66647 0.86158 0.56415 0.0
C1381 C 0.6543 0.86594 0.57401 0.0
C1382 C 0.66056 0.88522 0.58064 0.0
C1383 C 0.67904 0.90045 0.57741 0.0
C1384 C 0.69059 0.89615 0.56637 0.0
C1385 C 0.6844 0.87687 0.55989 0.0
C1386 C 0.66532 0.839 0.59491 0.0
C1387 C 0.65046 0.83119 0.6069 0.0
C1388 C 0.65343 0.8394 0.62512 0.0
C1389 C 0.67136 0.85558 0.63166 0.0
C1390 C 0.68628 0.86328 0.6196 0.0
C1391 C 0.68329 0.855 0.60141 0.0
C1392 C 0.66296 0.80164 0.58777 0.0
C1393 C 0.64814 0.78383 0.59323 0.0
C1394 C 0.65196 0.77417 0.60706 0.0
C1395 C 0.67061 0.7823 0.61575 0.0
C1396 C 0.68527 0.80035 0.6105 0.0
C1397 C 0.6815 0.80986 0.59659 0.0
C1398 C 0.65306 0.78284 0.55026 0.0
C1399 C 0.63495 0.7673 0.54347 0.0
C1400 C 0.63203 0.74843 0.54016 0.0
C1401 C 0.64721 0.74478 0.5436 0.0
C1402 C 0.66538 0.76044 0.55033 0.0
C1403 C 0.66828 0.77931 0.55358 0.0
C1404 C 0.65372 0.80511 0.51937 0.0
C1405 C 0.63754 0.80041 0.50748 0.0
C1406 C 0.6353 0.79163 0.48961 0.0
C1407 C 0.64918 0.78732 0.48338 0.0
C1408 C 0.66554 0.79245 0.49529 0.0
C1409 C 0.66785 0.80139 0.51302 0.0
C1410 C 0.66055 0.84474 0.52619 0.0
C1411 C 0.64744 0.85121 0.52289 0.0
C1412 C 0.65024 0.86405 0.50908 0.0
C1413 C 0.66625 0.87065 0.49841 0.0
C1414 C 0.67895 0.86357 0.50138 0.0
C1415 C 0.67617 0.85083 0.51517 0.0
C1416 C 0.67444 0.86433 0.65099 0.0
C1417 C 0.64417 0.72474 0.54019 0.0
H1418 H 0.18135 0.85698 0.68854 0.0
H1419 H 0.03586 0.70508 0.52243 0.0
H1420 H 0.18458 0.85974 0.57401 0.0
H1421 H 0.21275 0.88526 0.59301 0.0
H1422 H 0.21909 0.84075 0.61934 0.0
H1423 H 0.19123 0.81527 0.5999 0.0
H1424 H 0.16132 0.84682 0.60856 0.0
H1425 H 0.17039 0.85652 0.64168 0.0
H1426 H 0.16007 0.79845 0.6506 0.0
H1427 H 0.15139 0.78905 0.61735 0.0
H1428 H 0.11977 0.818 0.60381 0.0
H1429 H 0.09509 0.80566 0.62581 0.0
H1430 H 0.08372 0.74677 0.61203 0.0
H1431 H 0.10991 0.75972 0.59152 0.0
H1432 H 0.09604 0.79474 0.56243 0.0
H1433 H 0.0636 0.76973 0.55012 0.0
H1434 H 0.08441 0.73021 0.5365 0.0
H1435 H 0.11672 0.75526 0.54905 0.0
H1436 H 0.11849 0.80455 0.52743 0.0
H1437 H 0.10827 0.79045 0.49549 0.0
H1438 H 0.1494 0.77058 0.49815 0.0
H1439 H 0.15829 0.78334 0.53061 0.0
H1440 H 0.16353 0.84195 0.53537 0.0
H1441 H 0.18793 0.85978 0.51386 0.0
H1442 H 0.21803 0.82997 0.53079 0.0
H1443 H 0.19385 0.81283 0.55288 0.0
O1444 O 0.17751 0.85276 0.67552 0.0
O1445 O 0.17135 0.8225 0.67949 0.0
O1446 O 0.03851 0.73601 0.53489 0.0
O1447 O 0.04852 0.71519 0.52748 0.0
C1448 C 0.16618 0.82053 0.57796 0.0
C1449 C 0.1514 0.81176 0.59022 0.0
C1450 C 0.13245 0.7978 0.58323 0.0
C1451 C 0.12844 0.79206 0.56399 0.0
C1452 C 0.1432 0.80093 0.55168 0.0
C1453 C 0.16198 0.81548 0.55866 0.0
C1454 C 0.18582 0.83566 0.58563 0.0
C1455 C 0.19253 0.85551 0.5833 0.0
C1456 C 0.20854 0.87005 0.59423 0.0
C1457 C 0.21788 0.86491 0.60779 0.0
C1458 C 0.21199 0.84506 0.60912 0.0
C1459 C 0.19621 0.83054 0.59796 0.0
C1460 C 0.15582 0.81728 0.61054 0.0
C1461 C 0.16106 0.83623 0.61769 0.0
C1462 C 0.1662 0.84172 0.63662 0.0
C1463 C 0.16602 0.82828 0.64879 0.0
C1464 C 0.16041 0.80917 0.64161 0.0
C1465 C 0.15537 0.80374 0.62264 0.0
C1466 C 0.11675 0.78981 0.59609 0.0
C1467 C 0.11212 0.80247 0.60577 0.0
C1468 C 0.09774 0.79528 0.61817 0.0
C1469 C 0.08716 0.77511 0.62077 0.0
C1470 C 0.09171 0.76242 0.61079 0.0
C1471 C 0.10651 0.76974 0.59878 0.0
C1472 C 0.10871 0.77679 0.55667 0.0
C1473 C 0.09353 0.78063 0.55688 0.0
C1474 C 0.07503 0.76634 0.54979 0.0
C1475 C 0.07141 0.74796 0.54232 0.0
C1476 C 0.08669 0.74419 0.54215 0.0
C1477 C 0.10516 0.75848 0.54929 0.0
C1478 C 0.13895 0.79475 0.53146 0.0
C1479 C 0.12528 0.79715 0.52108 0.0
C1480 C 0.11962 0.78924 0.5027 0.0
C1481 C 0.12786 0.77917 0.49413 0.0
C1482 C 0.14235 0.77778 0.50434 0.0
C1483 C 0.14769 0.78532 0.52285 0.0
C1484 C 0.17694 0.82612 0.54564 0.0
C1485 C 0.17543 0.83932 0.53442 0.0
C1486 C 0.18934 0.84937 0.52203 0.0
C1487 C 0.20495 0.84625 0.52044 0.0
C1488 C 0.20638 0.83296 0.53178 0.0
C1489 C 0.19254 0.82306 0.54434 0.0
C1490 C 0.17175 0.83425 0.66886 0.0
C1491 C 0.05181 0.73276 0.5347 0.0
H1492 H 0.19362 0.33973 0.69109 0.0
H1493 H 0.04526 0.31272 0.5371 0.0
H1494 H 0.21084 0.36643 0.59932 0.0
H1495 H 0.23745 0.36395 0.61406 0.0
H1496 H 0.21945 0.31051 0.58006 0.0
H1497 H 0.19223 0.31237 0.56614 0.0
H1498 H 0.17448 0.3601 0.61968 0.0
H1499 H 0.1826 0.35651 0.6517 0.0
H1500 H 0.17905 0.30177 0.63398 0.0
H1501 H 0.17063 0.30538 0.60208 0.0
H1502 H 0.13684 0.35708 0.59904 0.0
H1503 H 0.11287 0.34808 0.6221 0.0
H1504 H 0.10639 0.29044 0.62166 0.0
H1505 H 0.13025 0.29953 0.59867 0.0
H1506 H 0.14026 0.36677 0.55664 0.0
H1507 H 0.10976 0.36458 0.54686 0.0
H1508 H 0.08018 0.30191 0.55128 0.0
H1509 H 0.11081 0.30431 0.56087 0.0
H1510 H 0.17194 0.37354 0.53414 0.0
H1511 H 0.16253 0.37662 0.50243 0.0
H1512 H 0.12789 0.31341 0.49381 0.0
H1513 H 0.13666 0.3107 0.52585 0.0
H1514 H 0.21085 0.3716 0.54725 0.0
H1515 H 0.23108 0.37091 0.52286 0.0
H1516 H 0.19058 0.30931 0.50969 0.0
H1517 H 0.17056 0.31014 0.53373 0.0
O1518 O 0.1901 0.3407 0.67838 0.0
O1519 O 0.18853 0.31288 0.66846 0.0
O1520 O 0.07341 0.34626 0.5388 0.0
O1521 O 0.05751 0.31401 0.54093 0.0
C1522 C 0.18139 0.33898 0.57567 0.0
C1523 C 0.16789 0.3357 0.58901 0.0
C1524 C 0.1502 0.33441 0.58368 0.0
C1525 C 0.14626 0.33709 0.56518 0.0
C1526 C 0.15962 0.34018 0.55184 0.0
C1527 C 0.17697 0.3407 0.55696 0.0
C1528 C 0.19965 0.33968 0.5815 0.0
C1529 C 0.21284 0.35437 0.5948 0.0
C1530 C 0.22791 0.3529 0.60328 0.0
C1531 C 0.23035 0.33702 0.59817 0.0
C1532 C 0.21787 0.32294 0.5841 0.0
C1533 C 0.20248 0.32413 0.57599 0.0
C1534 C 0.17208 0.33306 0.60856 0.0
C1535 C 0.17533 0.34728 0.62278 0.0
C1536 C 0.18003 0.34522 0.64104 0.0
C1537 C 0.18157 0.32889 0.64539 0.0
C1538 C 0.17805 0.31455 0.63111 0.0
C1539 C 0.17326 0.31658 0.61287 0.0
C1540 C 0.13535 0.32899 0.59728 0.0
C1541 C 0.13014 0.34249 0.60388 0.0
C1542 C 0.11644 0.33731 0.61699 0.0
C1543 C 0.10784 0.31859 0.62378 0.0
C1544 C 0.11298 0.30507 0.61694 0.0
C1545 C 0.12655 0.31021 0.60377 0.0
C1546 C 0.1277 0.33571 0.55948 0.0
C1547 C 0.12717 0.35259 0.55545 0.0
C1548 C 0.10973 0.35129 0.5499 0.0
C1549 C 0.09252 0.33306 0.5483 0.0
C1550 C 0.09315 0.31617 0.55238 0.0
C1551 C 0.11061 0.3175 0.5579 0.0
C1552 C 0.15491 0.34192 0.53223 0.0
C1553 C 0.16237 0.36041 0.52532 0.0
C1554 C 0.15706 0.36209 0.50714 0.0
C1555 C 0.14437 0.34526 0.49547 0.0
C1556 C 0.13735 0.32672 0.50244 0.0
C1557 C 0.14246 0.32509 0.52069 0.0
C1558 C 0.18936 0.34087 0.5423 0.0
C1559 C 0.2064 0.35802 0.53901 0.0
C1560 C 0.21782 0.35764 0.52508 0.0
C1561 C 0.21241 0.34002 0.51453 0.0
C1562 C 0.19517 0.32302 0.51774 0.0
C1563 C 0.18373 0.32347 0.53142 0.0
C1564 C 0.18692 0.32693 0.66474 0.0
C1565 C 0.07396 0.33159 0.54239 0.0
H1566 H 0.01371 0.41972 0.06481 0.0
H1567 H 0.96069 0.3635 0.06134 0.0
H1568 H 0.94937 0.37528 0.08752 0.0
H1569 H 0.01999 0.42684 0.11319 0.0
H1570 H 0.02944 0.45293 0.11412 0.0
H1571 H 0.03247 0.44062 0.09415 0.0
H1572 H 0.01609 0.45428 0.07275 0.0
H1573 H 0.01303 0.46667 0.09269 0.0
H1574 H 0.9925 0.44994 0.07721 0.0
H1575 H 0.94523 0.39245 0.11585 0.0
H1576 H 0.94866 0.41336 0.14388 0.0
H1577 H 0.00391 0.45864 0.12771 0.0
C1578 C 0.9996 0.40995 0.06939 0.0
C1579 C 0.98805 0.39071 0.06107 0.0
C1580 C 0.96973 0.37834 0.06751 0.0
C1581 C 0.96318 0.38491 0.08233 0.0
C1582 C 0.97505 0.40394 0.09038 0.0
C1583 C 0.99283 0.4163 0.08404 0.0
C1584 C 0.00327 0.43571 0.09558 0.0
C1585 C 0.02242 0.43921 0.10481 0.0
C1586 C 0.0064 0.45265 0.08385 0.0
C1587 C 0.98883 0.43217 0.10975 0.0
C1588 C 0.97257 0.41385 0.10646 0.0
C1589 C 0.95776 0.40695 0.11838 0.0
C1590 C 0.9598 0.41898 0.13422 0.0
C1591 C 0.97654 0.43767 0.13801 0.0
C1592 C 0.99099 0.44439 0.12532 0.0
H1593 H 0.58091 0.58767 0.09687 0.0
H1594 H 0.62998 0.57907 0.09996 0.0
H1595 H 0.61731 0.55939 0.12702 0.0
H1596 H 0.57728 0.5924 0.14594 0.0
H1597 H 0.55136 0.57944 0.14393 0.0
H1598 H 0.56454 0.59297 0.1251 0.0
H1599 H 0.54599 0.56167 0.10257 0.0
H1600 H 0.53272 0.54806 0.12131 0.0
H1601 H 0.546 0.53968 0.10806 0.0
H1602 H 0.59871 0.54031 0.15373 0.0
H1603 H 0.57585 0.52331 0.17737 0.0
H1604 H 0.53901 0.54434 0.15583 0.0
C1605 C 0.58906 0.58171 0.10324 0.0
C1606 C 0.60645 0.5849 0.09636 0.0
C1607 C 0.61663 0.57679 0.10505 0.0
C1608 C 0.60955 0.56562 0.12041 0.0
C1609 C 0.59231 0.56276 0.12684 0.0
C1610 C 0.58222 0.57057 0.11847 0.0
C1611 C 0.56393 0.56519 0.12774 0.0
C1612 C 0.56431 0.5836 0.13618 0.0
C1613 C 0.54611 0.55292 0.11411 0.0
C1614 C 0.56522 0.55307 0.14267 0.0
C1615 C 0.58168 0.55184 0.14199 0.0
C1616 C 0.58579 0.54119 0.15436 0.0
C1617 C 0.57267 0.53151 0.16768 0.0
C1618 C 0.55565 0.53252 0.16851 0.0
C1619 C 0.55202 0.54353 0.15581 0.0
H1620 H 0.42335 0.98661 0.06192 0.0
H1621 H 0.41696 0.03754 0.07102 0.0
H1622 H 0.43509 0.04533 0.1017 0.0
H1623 H 0.41532 0.97183 0.10672 0.0
H1624 H 0.43244 0.96355 0.10784 0.0
H1625 H 0.42122 0.96345 0.08576 0.0
H1626 H 0.45472 0.98493 0.0734 0.0
H1627 H 0.46608 0.985 0.09544 0.0
H1628 H 0.47181 0.00785 0.08603 0.0
H1629 H 0.45114 0.04558 0.1326 0.0
H1630 H 0.46359 0.03832 0.16108 0.0
H1631 H 0.45967 0.98732 0.13146 0.0
C1632 C 0.42613 0.99966 0.07017 0.0
C1633 C 0.41887 0.01157 0.06404 0.0
C1634 C 0.42252 0.02831 0.0754 0.0
C1635 C 0.43281 0.03285 0.09283 0.0
C1636 C 0.4394 0.02053 0.09863 0.0
C1637 C 0.43629 0.00434 0.08757 0.0
C1638 C 0.44361 0.99265 0.09749 0.0
C1639 C 0.42716 0.97163 0.09957 0.0
C1640 C 0.46003 0.99261 0.08749 0.0
C1641 C 0.45089 0.00449 0.11606 0.0
C1642 C 0.44854 0.02063 0.11639 0.0
C1643 C 0.45333 0.03316 0.13239 0.0
C1644 C 0.46049 0.02896 0.14849 0.0
C1645 C 0.46274 0.0123 0.14854 0.0
C1646 C 0.45809 0.00013 0.13195 0.0
H1647 H 0.42742 0.01118 0.97104 0.0
H1648 H 0.38139 0.95039 0.96545 0.0
H1649 H 0.39381 0.94512 0.9364 0.0
H1650 H 0.42771 0.01932 0.92278 0.0
H1651 H 0.45347 0.03473 0.92326 0.0
H1652 H 0.44126 0.03364 0.94384 0.0
H1653 H 0.46292 0.02374 0.96228 0.0
H1654 H 0.47529 0.02492 0.94179 0.0
H1655 H 0.46433 0.00277 0.95374 0.0
H1656 H 0.41094 0.94665 0.90769 0.0
H1657 H 0.43192 0.95468 0.8817 0.0
H1658 H 0.46695 0.01441 0.90621 0.0
C1659 C 0.42002 0.99673 0.96376 0.0
C1660 C 0.40346 0.98117 0.9705 0.0
C1661 C 0.39413 0.9625 0.96054 0.0
C1662 C 0.40106 0.95938 0.94403 0.0
C1663 C 0.41733 0.97507 0.93767 0.0
C1664 C 0.42674 0.99337 0.94726 0.0
C1665 C 0.44387 0.00778 0.93738 0.0
C1666 C 0.44142 0.02488 0.93147 0.0
C1667 C 0.46271 0.01524 0.94952 0.0
C1668 C 0.44259 0.99477 0.92071 0.0
C1669 C 0.42719 0.97595 0.92114 0.0
C1670 C 0.42309 0.96132 0.90724 0.0
C1671 C 0.43513 0.966 0.89258 0.0
C1672 C 0.4511 0.98516 0.8919 0.0
C1673 C 0.45474 0.9997 0.90617 0.0
H1674 H 0.99839 0.40734 0.97491 0.0
H1675 H 0.05644 0.41712 0.97915 0.0
H1676 H 0.06457 0.43862 0.95311 0.0
H1677 H 0.99282 0.40461 0.92573 0.0
H1678 H 0.97915 0.41694 0.9252 0.0
H1679 H 0.97829 0.40308 0.94456 0.0
H1680 H 0.98903 0.4337 0.96726 0.0
H1681 H 0.98982 0.44763 0.94798 0.0
H1682 H 0.0108 0.45621 0.96385 0.0
H1683 H 0.06585 0.45849 0.92594 0.0
H1684 H 0.06026 0.475 0.90017 0.0
H1685 H 0.00133 0.45188 0.91431 0.0
C1686 C 0.01288 0.41411 0.97048 0.0
C1687 C 0.02682 0.41063 0.97906 0.0
C1688 C 0.04556 0.41966 0.97278 0.0
C1689 C 0.05029 0.43186 0.95801 0.0
C1690 C 0.0361 0.43483 0.94975 0.0
C1691 C 0.01779 0.42623 0.95582 0.0
C1692 C 0.00499 0.43137 0.94446 0.0
C1693 C 0.9878 0.4129 0.93439 0.0
C1694 C 0.99827 0.44292 0.95661 0.0
C1695 C 0.0189 0.44415 0.93092 0.0
C1696 C 0.03679 0.44606 0.93419 0.0
C1697 C 0.05191 0.45715 0.92332 0.0
C1698 C 0.04862 0.46652 0.90877 0.0
C1699 C 0.03034 0.46469 0.90519 0.0
C1700 C 0.01537 0.45335 0.9165 0.0
H1701 H 0.58392 0.60736 0.99496 0.0
H1702 H 0.58145 0.5561 0.01689 0.0
H1703 H 0.56182 0.5359 0.98878 0.0
H1704 H 0.53481 0.58136 0.96988 0.0
H1705 H 0.54304 0.59649 0.95061 0.0
H1706 H 0.55433 0.60637 0.97365 0.0
H1707 H 0.58749 0.61586 0.96162 0.0
H1708 H 0.57632 0.60593 0.93862 0.0
H1709 H 0.59071 0.59725 0.94984 0.0
H1710 H 0.54633 0.52223 0.95714 0.0
H1711 H 0.53536 0.51576 0.92381 0.0
H1712 H 0.54761 0.57561 0.92188 0.0
C1713 C 0.57873 0.59177 0.99405 0.0
C1714 C 0.58404 0.58322 0.00813 0.0
C1715 C 0.57746 0.5629 0.00628 0.0
C1716 C 0.56625 0.5513 0.99039 0.0
C1717 C 0.56171 0.56023 0.9765 0.0
C1718 C 0.56761 0.57997 0.97817 0.0
C1719 C 0.56226 0.58624 0.96045 0.0
C1720 C 0.54774 0.59301 0.96386 0.0
C1721 C 0.58027 0.60226 0.95215 0.0
C1722 C 0.55304 0.56711 0.94839 0.0
C1723 C 0.55268 0.55226 0.95803 0.0
C1724 C 0.54621 0.53363 0.94953 0.0
C1725 C 0.54012 0.53012 0.93061 0.0
C1726 C 0.54056 0.54516 0.92041 0.0
C1727 C 0.54679 0.56378 0.9295 0.0
H1728 H 0.02244 0.61133 0.99803 0.0
H1729 H 0.96018 0.57916 0.99865 0.0
H1730 H 0.95788 0.55673 0.97278 0.0
H1731 H 0.02376 0.6079 0.94863 0.0
H1732 H 0.04428 0.60455 0.94898 0.0
H1733 H 0.04143 0.61794 0.9682 0.0
H1734 H 0.0435 0.5945 0.99082 0.0
H1735 H 0.04635 0.58103 0.97165 0.0
H1736 H 0.02727 0.56845 0.98672 0.0
H1737 H 0.96164 0.53893 0.94612 0.0
H1738 H 0.97134 0.52615 0.91984 0.0
H1739 H 0.03142 0.56813 0.93652 0.0
C1740 C 0.00837 0.59949 0.99276 0.0
C1741 C 0.99149 0.59702 1.00039 0.0
C1742 C 0.97332 0.58138 0.99308 0.0
C1743 C 0.97183 0.5685 0.97838 0.0
C1744 C 0.98864 0.57132 0.97112 0.0
C1745 C 0.00658 0.58633 0.97801 0.0
C1746 C 0.02224 0.58611 0.96722 0.0
C1747 C 0.03359 0.60526 0.95769 0.0
C1748 C 0.03563 0.58229 0.97986 0.0
C1749 C 0.01018 0.56883 0.95309 0.0
C1750 C 0.99086 0.56056 0.95572 0.0
C1751 C 0.97675 0.54501 0.94409 0.0
C1752 C 0.98248 0.5377 0.92925 0.0
C1753 C 0.00222 0.54576 0.92616 0.0
C1754 C 0.01623 0.56153 0.93841 0.0
H1755 H 0.39806 0.43006 0.95804 0.0
H1756 H 0.4007 0.37694 0.94853 0.0
H1757 H 0.41917 0.39013 0.92133 0.0
H1758 H 0.39454 0.43899 0.90869 0.0
H1759 H 0.40979 0.46518 0.91287 0.0
H1760 H 0.39523 0.451 0.93075 0.0
H1761 H 0.42564 0.46513 0.95354 0.0
H1762 H 0.44029 0.4793 0.93573 0.0
H1763 H 0.44572 0.46267 0.9471 0.0
H1764 H 0.43883 0.40932 0.89661 0.0
H1765 H 0.45903 0.43388 0.87547 0.0
H1766 H 0.44467 0.47528 0.90067 0.0
C1767 C 0.40227 0.42113 0.95 0.0
C1768 C 0.39789 0.40244 0.95533 0.0
C1769 C 0.40391 0.39129 0.9447 0.0
C1770 C 0.41435 0.39862 0.92919 0.0
C1771 C 0.41874 0.41718 0.92445 0.0
C1772 C 0.41292 0.42833 0.93446 0.0
C1773 C 0.42061 0.44831 0.92688 0.0
C1774 C 0.40405 0.45102 0.91935 0.0
C1775 C 0.43385 0.46482 0.9417 0.0
C1776 C 0.43186 0.44665 0.91128 0.0
C1777 C 0.43042 0.42849 0.9101 0.0
C1778 C 0.44002 0.42358 0.89731 0.0
C1779 C 0.45155 0.43767 0.88545 0.0
C1780 C 0.45349 0.45649 0.88648 0.0
C1781 C 0.4433 0.46093 0.89945 0.0
H1782 H 0.58232 0.99088 0.99334 0.0
H1783 H 0.60193 0.05118 0.01284 0.0
H1784 H 0.58658 0.05515 0.98461 0.0
H1785 H 0.58933 0.99849 0.94623 0.0
H1786 H 0.56788 0.97628 0.9372 0.0
H1787 H 0.57911 0.97732 0.95961 0.0
H1788 H 0.54717 0.9671 0.97469 0.0
H1789 H 0.53576 0.96583 0.95226 0.0
H1790 H 0.53534 0.98105 0.97135 0.0
H1791 H 0.57338 0.05429 0.95298 0.0
H1792 H 0.55947 0.04764 0.92099 0.0
H1793 H 0.54445 0.98663 0.92254 0.0
C1794 C 0.58304 0.00477 0.99178 0.0
C1795 C 0.59335 0.02073 0.0053 0.0
C1796 C 0.59408 0.03872 0.00274 0.0
C1797 C 0.58543 0.04116 0.98671 0.0
C1798 C 0.57578 0.02537 0.97347 0.0
C1799 C 0.57416 0.0074 0.97592 0.0
C1800 C 0.56316 0.99301 0.95922 0.0
C1801 C 0.57562 0.98586 0.95003 0.0
C1802 C 0.54423 0.97573 0.96471 0.0
C1803 C 0.55946 0.00596 0.94687 0.0
C1804 C 0.56697 0.02456 0.9554 0.0
C1805 C 0.56684 0.0396 0.94634 0.0
C1806 C 0.55865 0.03553 0.92808 0.0
C1807 C 0.55019 0.01639 0.91902 0.0
C1808 C 0.55065 0.00144 0.92876 0.0
H1809 H 0.59125 0.99677 0.10079 0.0
H1810 H 0.62211 0.05992 0.09839 0.0
H1811 H 0.60751 0.06332 0.12672 0.0
H1812 H 0.5479 0.99167 0.11573 0.0
H1813 H 0.54369 0.97277 0.13103 0.0
H1814 H 0.55708 0.97544 0.11101 0.0
H1815 H 0.58559 0.97889 0.13209 0.0
H1816 H 0.57226 0.97617 0.15219 0.0
H1817 H 0.59583 0.99737 0.15129 0.0
H1818 H 0.58763 0.05944 0.154 0.0
H1819 H 0.56522 0.04889 0.17876 0.0
H1820 H 0.54942 0.9884 0.16464 0.0
C1821 C 0.59501 0.01132 0.10629 0.0
C1822 C 0.60773 0.02809 0.0974 0.0
C1823 C 0.6124 0.04689 0.10503 0.0
C1824 C 0.60418 0.04896 0.12109 0.0
C1825 C 0.59156 0.03209 0.12945 0.0
C1826 C 0.58717 0.01365 0.12241 0.0
C1827 C 0.57312 0.99787 0.13393 0.0
C1828 C 0.55434 0.9836 0.12222 0.0
C1829 C 0.58225 0.98693 0.14291 0.0
C1830 C 0.56996 0.01026 0.14833 0.0
C1831 C 0.5807 0.02994 0.14552 0.0
C1832 C 0.5794 0.04408 0.15653 0.0
C1833 C 0.5667 0.03792 0.17069 0.0
C1834 C 0.55553 0.01777 0.17388 0.0
C1835 C 0.5575 0.00388 0.16259 0.0
H1836 H 0.0052 0.60269 0.0922 0.0
H1837 H 0.94452 0.58115 0.07921 0.0
H1838 H 0.93643 0.55709 0.10297 0.0
H1839 H 0.00153 0.55685 0.09995 0.0
H1840 H 0.01981 0.56671 0.11899 0.0
H1841 H 0.02065 0.58208 0.10102 0.0
H1842 H 0.02115 0.60717 0.12574 0.0
H1843 H 0.02043 0.59193 0.14379 0.0
H1844 H 0.00248 0.59905 0.14166 0.0
H1845 H 0.93527 0.53452 0.1275 0.0
H1846 H 0.94099 0.51666 0.15173 0.0
H1847 H 0.00262 0.55492 0.14967 0.0
C1848 C 0.99019 0.59291 0.09434 0.0
C1849 C 0.97545 0.59366 0.08383 0.0
C1850 C 0.95601 0.58078 0.08715 0.0
C1851 C 0.9513 0.56707 0.10057 0.0
C1852 C 0.96623 0.56664 0.11063 0.0
C1853 C 0.98528 0.57938 0.10778 0.0
C1854 C 0.99868 0.57628 0.12058 0.0
C1855 C 0.01088 0.57011 0.10947 0.0
C1856 C 0.01143 0.5947 0.13372 0.0
C1857 C 0.98421 0.55963 0.13099 0.0
C1858 C 0.96557 0.55418 0.12503 0.0
C1859 C 0.94982 0.53881 0.1324 0.0
C1860 C 0.95324 0.52883 0.14627 0.0
C1861 C 0.97228 0.53434 0.15276 0.0
C1862 C 0.98788 0.55003 0.14493 0.0
H1863 H 0.40294 0.38616 0.06382 0.0
H1864 H 0.4286 0.43674 0.03125 0.0
H1865 H 0.45122 0.45657 0.05812 0.0
H1866 H 0.40344 0.41183 0.10469 0.0
H1867 H 0.40864 0.39765 0.12024 0.0
H1868 H 0.39623 0.38675 0.09783 0.0
H1869 H 0.42221 0.37797 0.09006 0.0
H1870 H 0.4347 0.38882 0.11251 0.0
H1871 H 0.44718 0.397 0.09174 0.0
H1872 H 0.4693 0.4715 0.08907 0.0
H1873 H 0.48102 0.48071 0.12215 0.0
H1874 H 0.44256 0.42076 0.13493 0.0
C1875 C 0.41365 0.40128 0.06224 0.0
C1876 C 0.41422 0.4099 0.04543 0.0
C1877 C 0.42804 0.42986 0.04399 0.0
C1878 C 0.44097 0.44121 0.05915 0.0
C1879 C 0.4398 0.43239 0.07567 0.0
C1880 C 0.42649 0.41289 0.07732 0.0
C1881 C 0.42712 0.40744 0.09705 0.0
C1882 C 0.40771 0.40052 0.10544 0.0
C1883 C 0.43317 0.39189 0.09788 0.0
C1884 C 0.44263 0.427 0.10628 0.0
C1885 C 0.44991 0.44114 0.09366 0.0
C1886 C 0.4638 0.46053 0.09906 0.0
C1887 C 0.47027 0.46565 0.1179 0.0
C1888 C 0.46273 0.45147 0.13115 0.0
C1889 C 0.44889 0.43186 0.12512 0.0
H1890 H 0.68363 0.7526 0.39548 0.0
H1891 H 0.62427 0.70653 0.38275 0.0
H1892 H 0.61431 0.72076 0.40804 0.0
H1893 H 0.6827 0.75391 0.44368 0.0
H1894 H 0.69799 0.78011 0.44772 0.0
H1895 H 0.70019 0.76749 0.42748 0.0
H1896 H 0.6946 0.79004 0.40636 0.0
H1897 H 0.69246 0.8028 0.42658 0.0
H1898 H 0.67342 0.79202 0.40824 0.0
H1899 H 0.61132 0.73808 0.43658 0.0
H1900 H 0.61547 0.75738 0.46594 0.0
H1901 H 0.67661 0.79302 0.45915 0.0
C1902 C 0.6685 0.7457 0.39781 0.0
C1903 C 0.65471 0.7285 0.38716 0.0
C1904 C 0.63506 0.71977 0.39073 0.0
C1905 C 0.62927 0.72776 0.40504 0.0
C1906 C 0.64327 0.74456 0.41549 0.0
C1907 C 0.66246 0.75352 0.41197 0.0
C1908 C 0.67478 0.77083 0.42584 0.0
C1909 C 0.6898 0.7679 0.43682 0.0
C1910 C 0.68438 0.79006 0.41617 0.0
C1911 C 0.65959 0.76986 0.43804 0.0
C1912 C 0.64149 0.75471 0.43177 0.0
C1913 C 0.62538 0.75022 0.44144 0.0
C1914 C 0.62787 0.76136 0.45807 0.0
C1915 C 0.64635 0.77682 0.46489 0.0
C1916 C 0.6623 0.78125 0.45445 0.0
H1917 H 0.24355 0.90019 0.42794 0.0
H1918 H 0.30115 0.9163 0.4492 0.0
H1919 H 0.28788 0.89786 0.47676 0.0
H1920 H 0.22608 0.90431 0.47095 0.0
H1921 H 0.20229 0.8835 0.46549 0.0
H1922 H 0.21625 0.89725 0.44715 0.0
H1923 H 0.21248 0.86552 0.43085 0.0
H1924 H 0.19841 0.85164 0.44911 0.0
H1925 H 0.21957 0.85079 0.44354 0.0
H1926 H 0.26832 0.87925 0.50288 0.0
H1927 H 0.24406 0.86105 0.52493 0.0
H1928 H 0.19919 0.85579 0.48556 0.0
C1929 C 0.25336 0.89972 0.43833 0.0
C1930 C 0.27337 0.90967 0.43648 0.0
C1931 C 0.28576 0.90872 0.45034 0.0
C1932 C 0.27836 0.89831 0.46603 0.0
C1933 C 0.25855 0.8888 0.46752 0.0
C1934 C 0.24622 0.88928 0.45395 0.0
C1935 C 0.22555 0.87805 0.45894 0.0
C1936 C 0.21705 0.89159 0.46074 0.0
C1937 C 0.21328 0.86045 0.44477 0.0
C1938 C 0.22819 0.87145 0.47759 0.0
C1939 C 0.2473 0.87777 0.48231 0.0
C1940 C 0.25328 0.87401 0.49921 0.0
C1941 C 0.23935 0.86354 0.51161 0.0
C1942 C 0.21963 0.85687 0.50703 0.0
C1943 C 0.2141 0.86082 0.48967 0.0
H1944 H 0.06956 0.31769 0.40761 0.0
H1945 H 0.11362 0.36799 0.38236 0.0
H1946 H 0.13651 0.37466 0.40945 0.0
H1947 H 0.08153 0.34027 0.45374 0.0
H1948 H 0.0762 0.31813 0.46444 0.0
H1949 H 0.06386 0.31671 0.44257 0.0
H1950 H 0.07501 0.29393 0.42792 0.0
H1951 H 0.08742 0.2953 0.44975 0.0
H1952 H 0.1003 0.30191 0.42906 0.0
H1953 H 0.15446 0.37566 0.43952 0.0
H1954 H 0.16556 0.37208 0.47065 0.0
H1955 H 0.10869 0.32251 0.47684 0.0
C1956 C 0.0841 0.32997 0.40768 0.0
C1957 C 0.08994 0.34222 0.39284 0.0
C1958 C 0.10893 0.35839 0.39358 0.0
C1959 C 0.12201 0.36225 0.40888 0.0
C1960 C 0.11575 0.34992 0.42335 0.0
C1961 C 0.09719 0.3342 0.42292 0.0
C1962 C 0.0937 0.32379 0.44061 0.0
C1963 C 0.07789 0.3248 0.45095 0.0
C1964 C 0.08882 0.30247 0.43659 0.0
C1965 C 0.11321 0.33606 0.45108 0.0
C1966 C 0.1258 0.35096 0.44086 0.0
C1967 C 0.14468 0.36411 0.44769 0.0
C1968 C 0.1508 0.36203 0.46547 0.0
C1969 C 0.13803 0.34704 0.47635 0.0
C1970 C 0.11899 0.33393 0.46889 0.0
H1971 H 0.09281 0.32307 0.30954 0.0
H1972 H 0.04103 0.31812 0.2832 0.0
H1973 H 0.05293 0.31768 0.25239 0.0
H1974 H 0.1254 0.3547 0.27936 0.0
H1975 H 0.13995 0.34334 0.27886 0.0
H1976 H 0.12691 0.342 0.29885 0.0
H1977 H 0.11008 0.30409 0.29568 0.0
H1978 H 0.12321 0.30532 0.27575 0.0
H1979 H 0.09732 0.29089 0.27395 0.0
H1980 H 0.07167 0.32079 0.22464 0.0
H1981 H 0.09505 0.32452 0.20167 0.0
H1982 H 0.13393 0.32593 0.24572 0.0
C1983 C 0.08387 0.3216 0.29727 0.0
C1984 C 0.066 0.32062 0.29874 0.0
C1985 C 0.05472 0.31877 0.28238 0.0
C1986 C 0.06137 0.31856 0.26482 0.0
C1987 C 0.07921 0.31993 0.26384 0.0
C1988 C 0.09018 0.3211 0.2796 0.0
C1989 C 0.10896 0.32264 0.27468 0.0
C1990 C 0.12633 0.34181 0.28346 0.0
C1991 C 0.10995 0.30466 0.28035 0.0
C1992 C 0.10706 0.32273 0.25375 0.0
C1993 C 0.08978 0.32114 0.24778 0.0
C1994 C 0.08512 0.32176 0.22911 0.0
C1995 C 0.09843 0.32394 0.21621 0.0
C1996 C 0.11605 0.32536 0.22206 0.0
C1997 C 0.12041 0.32469 0.24101 0.0
H1998 H 0.6551 0.7357 0.30488 0.0
H1999 H 0.70461 0.73022 0.29327 0.0
H2000 H 0.70938 0.74924 0.2658 0.0
H2001 H 0.63725 0.73125 0.25712 0.0
H2002 H 0.6297 0.74895 0.2611 0.0
H2003 H 0.63002 0.73461 0.2796 0.0
H2004 H 0.6521 0.76646 0.30051 0.0
H2005 H 0.65184 0.78089 0.28208 0.0
H2006 H 0.67442 0.78488 0.29231 0.0
H2007 H 0.70911 0.76949 0.24003 0.0
H2008 H 0.7037 0.78923 0.21767 0.0
H2009 H 0.65441 0.78151 0.24627 0.0
C2010 C 0.6669 0.73843 0.29652 0.0
C2011 C 0.67949 0.73149 0.30118 0.0
C2012 C 0.69479 0.7354 0.28992 0.0
C2013 C 0.6976 0.74617 0.27431 0.0
C2014 C 0.68496 0.75287 0.27014 0.0
C2015 C 0.6699 0.74913 0.2809 0.0
C2016 C 0.6585 0.75817 0.27355 0.0
C2017 C 0.63763 0.74229 0.26748 0.0
C2018 C 0.65928 0.77351 0.28797 0.0
C2019 C 0.66957 0.7677 0.25703 0.0
C2020 C 0.68477 0.76447 0.25529 0.0
C2021 C 0.69724 0.7721 0.24124 0.0
C2022 C 0.69412 0.78338 0.22868 0.0
C2023 C 0.67865 0.78693 0.23023 0.0
C2024 C 0.66621 0.77886 0.24458 0.0
H2025 H 0.25113 0.90141 0.34141 0.0
H2026 H 0.26239 0.96117 0.34413 0.0
H2027 H 0.24426 0.9543 0.31358 0.0
H2028 H 0.25836 0.89834 0.29469 0.0
H2029 H 0.23978 0.87303 0.29002 0.0
H2030 H 0.25142 0.8819 0.31301 0.0
H2031 H 0.21835 0.86992 0.32644 0.0
H2032 H 0.20656 0.86089 0.30346 0.0
H2033 H 0.20259 0.87796 0.31717 0.0
H2034 H 0.22738 0.94161 0.28143 0.0
H2035 H 0.21375 0.92442 0.25034 0.0
H2036 H 0.21367 0.87305 0.269 0.0
C2037 C 0.24943 0.91294 0.33578 0.0
C2038 C 0.25804 0.93178 0.34518 0.0
C2039 C 0.25579 0.94659 0.3372 0.0
C2040 C 0.2455 0.94281 0.31988 0.0
C2041 C 0.23752 0.92415 0.3108 0.0
C2042 C 0.23931 0.90944 0.31853 0.0
C2043 C 0.23068 0.89111 0.30543 0.0
C2044 C 0.24597 0.8858 0.3005 0.0
C2045 C 0.21352 0.87396 0.31361 0.0
C2046 C 0.22418 0.89793 0.28889 0.0
C2047 C 0.22801 0.91693 0.2923 0.0
C2048 C 0.22408 0.92663 0.27871 0.0
C2049 C 0.21627 0.91673 0.26111 0.0
C2050 C 0.21262 0.89739 0.25725 0.0
C2051 C 0.21639 0.88786 0.27149 0.0
H2052 H 0.66127 0.92033 0.33262 0.0
H2053 H 0.71027 0.97753 0.32509 0.0
H2054 H 0.71815 0.96332 0.29811 0.0
H2055 H 0.68408 0.89166 0.31884 0.0
H2056 H 0.66206 0.87199 0.30729 0.0
H2057 H 0.66123 0.88632 0.32695 0.0
H2058 H 0.63897 0.89447 0.30716 0.0
H2059 H 0.63979 0.88026 0.28745 0.0
H2060 H 0.6467 0.90556 0.28558 0.0
H2061 H 0.71864 0.9438 0.27024 0.0
H2062 H 0.71246 0.92022 0.24385 0.0
H2063 H 0.66431 0.87496 0.27046 0.0
C2064 C 0.67383 0.92979 0.32546 0.0
C2065 C 0.68518 0.95003 0.33093 0.0
C2066 C 0.70142 0.96198 0.32116 0.0
C2067 C 0.70602 0.95404 0.30584 0.0
C2068 C 0.69437 0.93409 0.30063 0.0
C2069 C 0.67871 0.92208 0.31023 0.0
C2070 C 0.66806 0.90131 0.30125 0.0
C2071 C 0.66892 0.88697 0.31436 0.0
C2072 C 0.64715 0.89504 0.29499 0.0
C2073 C 0.67984 0.90367 0.28479 0.0
C2074 C 0.695 0.92267 0.28476 0.0
C2075 C 0.7071 0.92876 0.27032 0.0
C2076 C 0.70353 0.91513 0.25542 0.0
C2077 C 0.68804 0.89551 0.25506 0.0
C2078 C 0.67626 0.88977 0.27018 0.0
H2079 H 0.082 0.74435 0.29587 0.0
H2080 H 0.04785 0.77157 0.30647 0.0
H2081 H 0.06392 0.79448 0.28223 0.0
H2082 H 0.12576 0.78767 0.28714 0.0
H2083 H 0.13135 0.77549 0.26888 0.0
H2084 H 0.11754 0.76188 0.28737 0.0
H2085 H 0.09032 0.73723 0.26323 0.0
H2086 H 0.10404 0.75077 0.24467 0.0
H2087 H 0.07994 0.74619 0.24653 0.0
H2088 H 0.08457 0.81478 0.25692 0.0
H2089 H 0.10687 0.82986 0.23244 0.0
H2090 H 0.12524 0.78711 0.23739 0.0
C2091 C 0.07799 0.75524 0.29323 0.0
C2092 C 0.06384 0.75636 0.30315 0.0
C2093 C 0.05875 0.77057 0.29906 0.0
C2094 C 0.06779 0.7836 0.28533 0.0
C2095 C 0.08167 0.78202 0.27574 0.0
C2096 C 0.08661 0.76807 0.27947 0.0
C2097 C 0.10147 0.76888 0.26692 0.0
C2098 C 0.12013 0.77378 0.27826 0.0
C2099 C 0.09345 0.74962 0.25461 0.0
C2100 C 0.10432 0.78559 0.2556 0.0
C2101 C 0.09289 0.79309 0.2609 0.0
C2102 C 0.09346 0.8089 0.25258 0.0
C2103 C 0.10609 0.81727 0.23856 0.0
C2104 C 0.1179 0.80973 0.23286 0.0
C2105 C 0.11674 0.79354 0.24151 0.0
H2106 H 0.24103 0.33405 0.32986 0.0
H2107 H 0.24401 0.28112 0.32051 0.0
H2108 H 0.22594 0.27413 0.29003 0.0
H2109 H 0.19187 0.31378 0.30575 0.0
H2110 H 0.19829 0.33692 0.29657 0.0
H2111 H 0.20929 0.3364 0.31861 0.0
H2112 H 0.24298 0.35737 0.30646 0.0
H2113 H 0.23212 0.35774 0.28435 0.0
H2114 H 0.24875 0.34884 0.28551 0.0
H2115 H 0.21251 0.27584 0.25888 0.0
H2116 H 0.2018 0.28422 0.23028 0.0
H2117 H 0.20456 0.33444 0.26061 0.0
C2118 C 0.23742 0.32072 0.32161 0.0
C2119 C 0.24388 0.3081 0.32755 0.0
C2120 C 0.23908 0.29091 0.31628 0.0
C2121 C 0.22885 0.28684 0.29893 0.0
C2122 C 0.22322 0.2999 0.29321 0.0
C2123 C 0.22698 0.31629 0.30435 0.0
C2124 C 0.2202 0.32847 0.29449 0.0
C2125 C 0.20394 0.32891 0.30444 0.0
C2126 C 0.23702 0.34933 0.29259 0.0
C2127 C 0.2128 0.31682 0.2758 0.0
C2128 C 0.21462 0.30037 0.27539 0.0
C2129 C 0.21042 0.28833 0.25918 0.0
C2130 C 0.20418 0.29319 0.24296 0.0
C2131 C 0.20192 0.30988 0.24299 0.0
C2132 C 0.20611 0.32163 0.25985 0.0
H2133 H 0.26275 0.35767 0.4184 0.0
H2134 H 0.26777 0.30676 0.42859 0.0
H2135 H 0.25647 0.30614 0.45971 0.0
H2136 H 0.27589 0.38046 0.467 0.0
H2137 H 0.25823 0.38805 0.46599 0.0
H2138 H 0.26908 0.38635 0.44521 0.0
H2139 H 0.23529 0.36289 0.42886 0.0
H2140 H 0.22437 0.36453 0.44955 0.0
H2141 H 0.219 0.34091 0.43946 0.0
H2142 H 0.24252 0.30889 0.48823 0.0
H2143 H 0.22493 0.3141 0.51276 0.0
H2144 H 0.22743 0.36267 0.48498 0.0
C2145 C 0.2618 0.3467 0.4274 0.0
C2146 C 0.26621 0.33231 0.42119 0.0
C2147 C 0.26441 0.31787 0.4331 0.0
C2148 C 0.25812 0.31747 0.45085 0.0
C2149 C 0.25354 0.33154 0.45652 0.0
C2150 C 0.25516 0.34587 0.44522 0.0
C2151 C 0.24754 0.35804 0.45434 0.0
C2152 C 0.26365 0.3795 0.45837 0.0
C2153 C 0.23054 0.35649 0.44233 0.0
C2154 C 0.24104 0.34798 0.47221 0.0
C2155 C 0.24495 0.33292 0.4732 0.0
C2156 C 0.23952 0.32074 0.48775 0.0
C2157 C 0.22948 0.32375 0.50156 0.0
C2158 C 0.22487 0.33876 0.50073 0.0
C2159 C 0.23105 0.35129 0.48605 0.0
H2160 H 0.64378 0.92302 0.41636 0.0
H2161 H 0.70499 0.96549 0.42062 0.0
H2162 H 0.7099 0.94862 0.44619 0.0
H2163 H 0.6391 0.91732 0.46581 0.0
H2164 H 0.62221 0.89134 0.46278 0.0
H2165 H 0.62319 0.90695 0.44498 0.0
H2166 H 0.62872 0.88548 0.42076 0.0
H2167 H 0.62775 0.86981 0.43848 0.0
H2168 H 0.64843 0.88117 0.42502 0.0
H2169 H 0.70859 0.92736 0.47082 0.0
H2170 H 0.70109 0.9025 0.49329 0.0
H2171 H 0.64082 0.87299 0.47323 0.0
C2172 C 0.65817 0.92879 0.42276 0.0
C2173 C 0.674 0.94559 0.41651 0.0
C2174 C 0.69265 0.95265 0.42515 0.0
C2175 C 0.6956 0.94318 0.43972 0.0
C2176 C 0.67977 0.92664 0.4455 0.0
C2177 C 0.66142 0.91944 0.43735 0.0
C2178 C 0.64704 0.90114 0.44613 0.0
C2179 C 0.632 0.90439 0.45548 0.0
C2180 C 0.63742 0.88335 0.43173 0.0
C2181 C 0.66023 0.89921 0.4604 0.0
C2182 C 0.67904 0.91414 0.45977 0.0
C2183 C 0.69393 0.91554 0.47142 0.0
C2184 C 0.68953 0.90126 0.48405 0.0
C2185 C 0.6704 0.88567 0.48493 0.0
C2186 C 0.65556 0.88477 0.47297 0.0
H2187 H 0.07416 0.75927 0.39335 0.0
H2188 H 0.07489 0.70484 0.38763 0.0
H2189 H 0.09409 0.71364 0.41774 0.0
H2190 H 0.12326 0.78932 0.41554 0.0
H2191 H 0.11667 0.80349 0.43052 0.0
H2192 H 0.10408 0.79345 0.40798 0.0
H2193 H 0.0717 0.77601 0.42329 0.0
H2194 H 0.08417 0.7859 0.44586 0.0
H2195 H 0.06868 0.75979 0.44121 0.0
H2196 H 0.1105 0.72694 0.44968 0.0
H2197 H 0.12407 0.74425 0.48052 0.0
H2198 H 0.11459 0.79119 0.46453 0.0
C2199 C 0.07856 0.74932 0.39833 0.0
C2200 C 0.07304 0.73136 0.38819 0.0
C2201 C 0.07903 0.7187 0.39516 0.0
C2202 C 0.08993 0.72357 0.41224 0.0
C2203 C 0.09491 0.74127 0.42202 0.0
C2204 C 0.0896 0.75405 0.41524 0.0
C2205 C 0.09634 0.77188 0.42872 0.0
C2206 C 0.11096 0.79065 0.42018 0.0
C2207 C 0.0792 0.77348 0.43515 0.0
C2208 C 0.10582 0.76689 0.44437 0.0
C2209 C 0.10489 0.74921 0.44021 0.0
C2210 C 0.11167 0.741 0.45294 0.0
C2211 C 0.11951 0.75107 0.47043 0.0
C2212 C 0.12066 0.76928 0.47506 0.0
C2213 C 0.11389 0.7773 0.46163 0.0
H2214 H 0.34205 0.08118 0.72844 0.0
H2215 H 0.28617 0.02812 0.7264 0.0
H2216 H 0.27606 0.04368 0.75032 0.0
H2217 H 0.34749 0.09136 0.77629 0.0
H2218 H 0.35914 0.11761 0.7758 0.0
H2219 H 0.36116 0.10322 0.75701 0.0
H2220 H 0.34765 0.11791 0.73353 0.0
H2221 H 0.34562 0.13241 0.75229 0.0
H2222 H 0.32485 0.11624 0.73682 0.0
H2223 H 0.27339 0.06356 0.77679 0.0
H2224 H 0.27828 0.08609 0.8038 0.0
H2225 H 0.33544 0.12693 0.78773 0.0
C2226 C 0.32756 0.07297 0.73277 0.0
C2227 C 0.31486 0.05347 0.72554 0.0
C2228 C 0.2961 0.04311 0.73171 0.0
C2229 C 0.29022 0.05185 0.74525 0.0
C2230 C 0.3032 0.07099 0.75233 0.0
C2231 C 0.32144 0.08148 0.74622 0.0
C2232 C 0.33307 0.10133 0.75695 0.0
C2233 C 0.35128 0.10349 0.76711 0.0
C2234 C 0.33809 0.11796 0.74413 0.0
C2235 C 0.31875 0.10011 0.77047 0.0
C2236 C 0.30155 0.08258 0.76745 0.0
C2237 C 0.28665 0.07752 0.77904 0.0
C2238 C 0.28953 0.09053 0.79432 0.0
C2239 C 0.3072 0.10846 0.79791 0.0
C2240 C 0.32177 0.11338 0.78549 0.0
H2241 H 0.93321 0.26826 0.77302 0.0
H2242 H 0.96168 0.23591 0.75832 0.0
H2243 H 0.94424 0.21234 0.7815 0.0
H2244 H 0.93324 0.26151 0.8227 0.0
H2245 H 0.90997 0.25919 0.82447 0.0
H2246 H 0.92543 0.27393 0.80738 0.0
H2247 H 0.89828 0.25365 0.78149 0.0
H2248 H 0.88279 0.23875 0.79846 0.0
H2249 H 0.88771 0.22739 0.77893 0.0
H2250 H 0.922 0.19113 0.80483 0.0
H2251 H 0.89793 0.17478 0.82756 0.0
H2252 H 0.88514 0.22195 0.82786 0.0
C2253 C 0.93594 0.25634 0.77482 0.0
C2254 C 0.94879 0.25389 0.76389 0.0
C2255 C 0.95194 0.23809 0.76661 0.0
C2256 C 0.94208 0.22462 0.77971 0.0
C2257 C 0.92927 0.22729 0.79006 0.0
C2258 C 0.92633 0.24287 0.78789 0.0
C2259 C 0.91156 0.24226 0.8005 0.0
C2260 C 0.9206 0.26029 0.8146 0.0
C2261 C 0.89405 0.2404 0.78916 0.0
C2262 C 0.9064 0.22372 0.80989 0.0
C2263 C 0.91676 0.21529 0.8037 0.0
C2264 C 0.91399 0.19774 0.80997 0.0
C2265 C 0.90034 0.18861 0.82297 0.0
C2266 C 0.88964 0.19708 0.82964 0.0
C2267 C 0.89286 0.21492 0.82296 0.0
H2268 H 0.76105 0.69179 0.73857 0.0
H2269 H 0.7348 0.63074 0.71787 0.0
H2270 H 0.7494 0.62421 0.74518 0.0
H2271 H 0.80639 0.69605 0.75833 0.0
H2272 H 0.80839 0.712 0.77798 0.0
H2273 H 0.79694 0.71228 0.75613 0.0
H2274 H 0.76643 0.70527 0.77256 0.0
H2275 H 0.77771 0.7048 0.7944 0.0
H2276 H 0.75485 0.68405 0.78577 0.0
H2277 H 0.76333 0.62328 0.77612 0.0
H2278 H 0.77821 0.62846 0.80766 0.0
H2279 H 0.79854 0.69086 0.80751 0.0
C2280 C 0.75866 0.67714 0.73966 0.0
C2281 C 0.74678 0.66176 0.72609 0.0
C2282 C 0.74391 0.64276 0.72804 0.0
C2283 C 0.75212 0.63889 0.74353 0.0
C2284 C 0.76344 0.65423 0.75682 0.0
C2285 C 0.76702 0.67305 0.75495 0.0
C2286 C 0.77945 0.68673 0.77154 0.0
C2287 C 0.79895 0.70271 0.76564 0.0
C2288 C 0.76898 0.69574 0.78166 0.0
C2289 C 0.78175 0.67249 0.78323 0.0
C2290 C 0.77236 0.65385 0.77445 0.0
C2291 C 0.77121 0.63792 0.78296 0.0
C2292 C 0.77993 0.64111 0.80092 0.0
C2293 C 0.79004 0.66018 0.81023 0.0
C2294 C 0.79098 0.67606 0.80104 0.0
H2295 H 0.73701 0.64427 0.63173 0.0
H2296 H 0.74622 0.70328 0.63465 0.0
H2297 H 0.762 0.70921 0.60526 0.0
H2298 H 0.78302 0.65779 0.61522 0.0
H2299 H 0.77444 0.63566 0.60033 0.0
H2300 H 0.76233 0.63531 0.62079 0.0
H2301 H 0.73022 0.62144 0.6006 0.0
H2302 H 0.74228 0.62183 0.58007 0.0
H2303 H 0.72893 0.63446 0.58129 0.0
H2304 H 0.77671 0.70897 0.57587 0.0
H2305 H 0.79235 0.70381 0.5495 0.0
H2306 H 0.77651 0.64599 0.56666 0.0
C2307 C 0.74218 0.65832 0.626 0.0
C2308 C 0.74029 0.67329 0.63531 0.0
C2309 C 0.74755 0.69165 0.6277 0.0
C2310 C 0.75644 0.69511 0.61097 0.0
C2311 C 0.75822 0.68017 0.60216 0.0
C2312 C 0.75155 0.66221 0.60946 0.0
C2313 C 0.75666 0.64927 0.5978 0.0
C2314 C 0.7699 0.64422 0.60922 0.0
C2315 C 0.73843 0.63065 0.58944 0.0
C2316 C 0.76724 0.6628 0.58288 0.0
C2317 C 0.7677 0.68042 0.58557 0.0
C2318 C 0.77661 0.6953 0.57369 0.0
C2319 C 0.78561 0.69227 0.55881 0.0
C2320 C 0.78597 0.6746 0.55605 0.0
C2321 C 0.7764 0.6596 0.5682 0.0
H2322 H 0.35546 0.08192 0.65154 0.0
H2323 H 0.31884 0.02304 0.62574 0.0
H2324 H 0.31891 0.03648 0.5956 0.0
H2325 H 0.33143 0.10259 0.62745 0.0
H2326 H 0.35281 0.12585 0.6252 0.0
H2327 H 0.35172 0.11165 0.64434 0.0
H2328 H 0.38269 0.11233 0.63498 0.0
H2329 H 0.38385 0.12652 0.61577 0.0
H2330 H 0.38359 0.10374 0.61172 0.0
H2331 H 0.32227 0.05598 0.56862 0.0
H2332 H 0.32637 0.08046 0.54672 0.0
H2333 H 0.35841 0.12701 0.59041 0.0
C2334 C 0.34775 0.07193 0.63943 0.0
C2335 C 0.3373 0.05147 0.64081 0.0
C2336 C 0.32695 0.03877 0.62488 0.0
C2337 C 0.32699 0.04625 0.60771 0.0
C2338 C 0.33723 0.06649 0.60678 0.0
C2339 C 0.34726 0.0792 0.62221 0.0
C2340 C 0.35568 0.10035 0.61765 0.0
C2341 C 0.34741 0.11071 0.62935 0.0
C2342 C 0.37777 0.11138 0.62018 0.0
C2343 C 0.34866 0.09747 0.59733 0.0
C2344 C 0.33833 0.07783 0.59131 0.0
C2345 C 0.33024 0.07142 0.57317 0.0
C2346 C 0.33251 0.08547 0.56088 0.0
C2347 C 0.34251 0.10571 0.56682 0.0
C2348 C 0.35087 0.11171 0.58529 0.0
H2349 H 0.93625 0.28461 0.66132 0.0
H2350 H 0.91863 0.23105 0.68862 0.0
H2351 H 0.89636 0.21179 0.6615 0.0
H2352 H 0.88856 0.26898 0.63681 0.0
H2353 H 0.89917 0.28077 0.61625 0.0
H2354 H 0.91206 0.29072 0.6387 0.0
H2355 H 0.94102 0.28885 0.62693 0.0
H2356 H 0.92823 0.27884 0.60451 0.0
H2357 H 0.93735 0.26574 0.61715 0.0
H2358 H 0.87896 0.19798 0.63052 0.0
H2359 H 0.86681 0.19053 0.59747 0.0
H2360 H 0.89494 0.2527 0.58989 0.0
C2361 C 0.92735 0.26888 0.66173 0.0
C2362 C 0.92908 0.25932 0.6771 0.0
C2363 C 0.9175 0.23868 0.67701 0.0
C2364 C 0.90476 0.22761 0.66169 0.0
C2365 C 0.90369 0.23738 0.64658 0.0
C2366 C 0.91455 0.25755 0.64647 0.0
C2367 C 0.91162 0.2642 0.62787 0.0
C2368 C 0.90229 0.27692 0.63004 0.0
C2369 C 0.93069 0.27504 0.61857 0.0
C2370 C 0.89787 0.24458 0.61743 0.0
C2371 C 0.89338 0.22933 0.62857 0.0
C2372 C 0.88208 0.20978 0.62174 0.0
C2373 C 0.87531 0.20568 0.60298 0.0
C2374 C 0.87982 0.22105 0.5913 0.0
C2375 C 0.89099 0.24073 0.59869 0.0
H2376 H 0.35222 0.26079 0.66981 0.0
H2377 H 0.29011 0.2332 0.66919 0.0
H2378 H 0.2865 0.2089 0.64441 0.0
H2379 H 0.35489 0.25682 0.62224 0.0
H2380 H 0.37407 0.25136 0.62306 0.0
H2381 H 0.37194 0.26525 0.64226 0.0
H2382 H 0.37076 0.24012 0.66469 0.0
H2383 H 0.37301 0.22619 0.64554 0.0
H2384 H 0.3531 0.2145 0.65989 0.0
H2385 H 0.28958 0.19096 0.617 0.0
H2386 H 0.29889 0.17909 0.58979 0.0
H2387 H 0.35914 0.2159 0.60963 0.0
C2388 C 0.33788 0.24937 0.66472 0.0
C2389 C 0.32144 0.24885 0.67141 0.0
C2390 C 0.3029 0.23383 0.66431 0.0
C2391 C 0.3007 0.21993 0.65024 0.0
C2392 C 0.31717 0.22109 0.64365 0.0
C2393 C 0.33541 0.23522 0.65079 0.0
C2394 C 0.3507 0.2338 0.6405 0.0
C2395 C 0.36365 0.25294 0.63148 0.0
C2396 C 0.36259 0.22832 0.65343 0.0
C2397 C 0.33817 0.21717 0.626 0.0
C2398 C 0.3189 0.21002 0.62815 0.0
C2399 C 0.30461 0.19599 0.61547 0.0
C2400 C 0.31013 0.18918 0.60006 0.0
C2401 C 0.32984 0.19619 0.59746 0.0
C2402 C 0.34395 0.21015 0.61095 0.0
H2403 H 0.74459 0.07746 0.61887 0.0
H2404 H 0.71342 0.10662 0.63467 0.0
H2405 H 0.72864 0.13006 0.61057 0.0
H2406 H 0.78813 0.11911 0.61 0.0
H2407 H 0.79233 0.1075 0.59017 0.0
H2408 H 0.7786 0.09299 0.60825 0.0
H2409 H 0.75015 0.07089 0.58407 0.0
H2410 H 0.76385 0.08527 0.56587 0.0
H2411 H 0.74038 0.08192 0.56915 0.0
H2412 H 0.74983 0.15193 0.58628 0.0
H2413 H 0.77274 0.16859 0.56271 0.0
H2414 H 0.78696 0.12238 0.56108 0.0
C2415 C 0.74091 0.08875 0.61722 0.0
C2416 C 0.72802 0.09043 0.62868 0.0
C2417 C 0.72331 0.10516 0.62598 0.0
C2418 C 0.7319 0.11851 0.61237 0.0
C2419 C 0.74478 0.11657 0.6014 0.0
C2420 C 0.74897 0.10181 0.60351 0.0
C2421 C 0.76305 0.1026 0.58996 0.0
C2422 C 0.78162 0.10574 0.60021 0.0
C2423 C 0.7538 0.08407 0.57646 0.0
C2424 C 0.76659 0.12044 0.58015 0.0
C2425 C 0.75603 0.12839 0.58694 0.0
C2426 C 0.75788 0.14559 0.58063 0.0
C2427 C 0.77088 0.15489 0.5671 0.0
C2428 C 0.78177 0.14688 0.55983 0.0
C2429 C 0.77923 0.12923 0.56639 0.0
H2430 H 0.9314 0.67129 0.64412 0.0
H2431 H 0.88478 0.62745 0.67315 0.0
H2432 H 0.86211 0.62064 0.6458 0.0
H2433 H 0.9048 0.69077 0.62346 0.0
H2434 H 0.9165 0.69527 0.60207 0.0
H2435 H 0.92912 0.69554 0.62332 0.0
H2436 H 0.93544 0.66914 0.60824 0.0
H2437 H 0.92292 0.66886 0.58689 0.0
H2438 H 0.91545 0.64642 0.59791 0.0
H2439 H 0.84449 0.61938 0.61518 0.0
H2440 H 0.83342 0.62445 0.5845 0.0
H2441 H 0.89175 0.66985 0.57657 0.0
C2442 C 0.91647 0.66006 0.64466 0.0
C2443 C 0.90984 0.64977 0.66067 0.0
C2444 C 0.89014 0.63542 0.66095 0.0
C2445 C 0.87719 0.63146 0.6455 0.0
C2446 C 0.8842 0.64208 0.62998 0.0
C2447 C 0.90339 0.6561 0.62951 0.0
C2448 C 0.90723 0.66615 0.6116 0.0
C2449 C 0.91486 0.68824 0.61535 0.0
C2450 C 0.92108 0.66241 0.60051 0.0
C2451 C 0.88718 0.6557 0.60207 0.0
C2452 C 0.87407 0.64174 0.61276 0.0
C2453 C 0.85465 0.63026 0.6067 0.0
C2454 C 0.84849 0.6332 0.58928 0.0
C2455 C 0.86171 0.64764 0.57829 0.0
C2456 C 0.88128 0.65892 0.58481 0.0
H2457 H 0.93334 0.6671 0.77264 0.0
H2458 H 0.91699 0.69971 0.73686 0.0
H2459 H 0.90107 0.70604 0.7625 0.0
H2460 H 0.88997 0.64366 0.79478 0.0
H2461 H 0.90112 0.6448 0.8173 0.0
H2462 H 0.91254 0.64409 0.79666 0.0
H2463 H 0.94354 0.67615 0.80904 0.0
H2464 H 0.93224 0.67692 0.82978 0.0
H2465 H 0.94216 0.6976 0.81578 0.0
H2466 H 0.88506 0.70682 0.79107 0.0
H2467 H 0.87022 0.7024 0.82081 0.0
H2468 H 0.89766 0.67002 0.83859 0.0
C2469 C 0.92665 0.67581 0.77029 0.0
C2470 C 0.92645 0.683 0.75279 0.0
C2471 C 0.91734 0.69412 0.75018 0.0
C2472 C 0.90829 0.69781 0.76465 0.0
C2473 C 0.90851 0.6903 0.78166 0.0
C2474 C 0.9175 0.6796 0.78459 0.0
C2475 C 0.9149 0.67246 0.80393 0.0
C2476 C 0.90398 0.64992 0.80311 0.0
C2477 C 0.93437 0.68132 0.8153 0.0
C2478 C 0.90281 0.6806 0.81132 0.0
C2479 C 0.89938 0.6909 0.79827 0.0
C2480 C 0.88791 0.69907 0.80153 0.0
C2481 C 0.87965 0.69659 0.81858 0.0
C2482 C 0.88294 0.68609 0.83226 0.0
C2483 C 0.89481 0.67811 0.8285 0.0
H2484 H 0.3394 0.27532 0.7653 0.0
H2485 H 0.27888 0.2501 0.74821 0.0
H2486 H 0.27046 0.22817 0.77393 0.0
H2487 H 0.33776 0.2323 0.77603 0.0
H2488 H 0.35494 0.24295 0.79595 0.0
H2489 H 0.35601 0.25789 0.77751 0.0
H2490 H 0.3536 0.28218 0.80098 0.0
H2491 H 0.35274 0.26742 0.81956 0.0
H2492 H 0.33394 0.27316 0.8158 0.0
H2493 H 0.26919 0.20645 0.79932 0.0
H2494 H 0.27483 0.18829 0.82322 0.0
H2495 H 0.33627 0.22942 0.82464 0.0
C2496 C 0.32435 0.26543 0.76716 0.0
C2497 C 0.30976 0.26436 0.7548 0.0
C2498 C 0.29025 0.25121 0.75763 0.0
C2499 C 0.28536 0.23869 0.77216 0.0
C2500 C 0.30017 0.23978 0.78383 0.0
C2501 C 0.31926 0.25306 0.78164 0.0
C2502 C 0.33253 0.2509 0.79553 0.0
C2503 C 0.3461 0.2457 0.78566 0.0
C2504 C 0.34387 0.26952 0.80875 0.0
C2505 C 0.31799 0.23391 0.80554 0.0
C2506 C 0.2994 0.22771 0.79868 0.0
C2507 C 0.28367 0.21145 0.80505 0.0
C2508 C 0.28704 0.20127 0.81874 0.0
C2509 C 0.30602 0.2074 0.82602 0.0
C2510 C 0.32159 0.22413 0.81937 0.0
H2511 H 0.74468 0.0972 0.72215 0.0
H2512 H 0.73892 0.03959 0.72081 0.0
H2513 H 0.75751 0.04845 0.7512 0.0
H2514 H 0.79345 0.12439 0.74493 0.0
H2515 H 0.78855 0.14075 0.75866 0.0
H2516 H 0.7759 0.13037 0.73619 0.0
H2517 H 0.74334 0.11649 0.7511 0.0
H2518 H 0.75586 0.12678 0.7736 0.0
H2519 H 0.7386 0.10093 0.76998 0.0
H2520 H 0.77504 0.06277 0.78237 0.0
H2521 H 0.79002 0.08148 0.81251 0.0
H2522 H 0.78488 0.13002 0.79349 0.0
C2523 C 0.74754 0.08655 0.72816 0.0
C2524 C 0.74043 0.06774 0.71912 0.0
C2525 C 0.74427 0.05411 0.7275 0.0
C2526 C 0.75485 0.05901 0.74473 0.0
C2527 C 0.76151 0.07761 0.75337 0.0
C2528 C 0.75805 0.09119 0.74539 0.0
C2529 C 0.76609 0.10984 0.75799 0.0
C2530 C 0.78194 0.12737 0.7489 0.0
C2531 C 0.75001 0.11373 0.76349 0.0
C2532 C 0.77431 0.10448 0.77442 0.0
C2533 C 0.77165 0.08589 0.7714 0.0
C2534 C 0.77743 0.07745 0.78482 0.0
C2535 C 0.78603 0.08825 0.80186 0.0
C2536 C 0.78874 0.10728 0.80536 0.0
C2537 C 0.78293 0.11549 0.79131 0.0
H2538 H 0.06241 0.38264 0.06584 0.0
H2539 H 0.02365 0.32285 0.04318 0.0
H2540 H 0.04129 0.31138 0.06273 0.0
H2541 H 0.1056 0.37994 0.06985 0.0
H2542 H 0.11456 0.39455 0.09169 0.0
H2543 H 0.09918 0.39822 0.07562 0.0
H2544 H 0.07568 0.39231 0.10118 0.0
H2545 H 0.09098 0.38859 0.11732 0.0
H2546 H 0.066 0.36999 0.11285 0.0
H2547 H 0.06393 0.30663 0.08326 0.0
H2548 H 0.0891 0.30835 0.10479 0.0
H2549 H 0.11119 0.3707 0.11717 0.0
C2550 C 0.05775 0.36717 0.06496 0.0
C2551 C 0.04179 0.35361 0.05293 0.0
C2552 C 0.03587 0.33345 0.05232 0.0
C2553 C 0.04579 0.3268 0.06335 0.0
C2554 C 0.0614 0.34047 0.07514 0.0
C2555 C 0.06726 0.3602 0.07621 0.0
C2556 C 0.08418 0.37165 0.09048 0.0
C2557 C 0.10193 0.38699 0.08136 0.0
C2558 C 0.07889 0.38119 0.1064 0.0
C2559 C 0.08706 0.3553 0.09703 0.0
C2560 C 0.07383 0.33749 0.08789 0.0
C2561 C 0.07416 0.32042 0.0908 0.0
C2562 C 0.08847 0.32156 0.10333 0.0
C2563 C 0.10217 0.33961 0.11316 0.0
C2564 C 0.10118 0.35664 0.10997 0.0
H2565 H 0.61564 0.66713 0.08526 0.0
H2566 H 0.6735 0.68324 0.07213 0.0
H2567 H 0.68591 0.7162 0.08777 0.0
H2568 H 0.61945 0.71412 0.08032 0.0
H2569 H 0.60586 0.71267 0.09994 0.0
H2570 H 0.60129 0.69057 0.08699 0.0
H2571 H 0.60742 0.6775 0.11721 0.0
H2572 H 0.612 0.69956 0.13024 0.0
H2573 H 0.62977 0.69212 0.13119 0.0
H2574 H 0.69184 0.74756 0.10356 0.0
H2575 H 0.69156 0.7749 0.12063 0.0
H2576 H 0.63041 0.73743 0.12693 0.0
C2577 C 0.63088 0.6777 0.08559 0.0
C2578 C 0.64364 0.67282 0.07739 0.0
C2579 C 0.66353 0.68679 0.07834 0.0
C2580 C 0.6707 0.70553 0.08714 0.0
C2581 C 0.65781 0.70991 0.0952 0.0
C2582 C 0.63836 0.69637 0.09474 0.0
C2583 C 0.62784 0.70463 0.10529 0.0
C2584 C 0.61272 0.70555 0.09236 0.0
C2585 C 0.61872 0.69275 0.12198 0.0
C2586 C 0.64438 0.72497 0.11153 0.0
C2587 C 0.66148 0.72772 0.10539 0.0
C2588 C 0.67861 0.7455 0.10875 0.0
C2589 C 0.6783 0.76092 0.1187 0.0
C2590 C 0.66104 0.75844 0.12556 0.0
C2591 C 0.64388 0.74007 0.12189 0.0
H2592 H 0.31777 0.96122 0.04478 0.0
H2593 H 0.3498 0.93075 0.04821 0.0
H2594 H 0.32584 0.90714 0.06797 0.0
H2595 H 0.30369 0.95652 0.09071 0.0
H2596 H 0.2799 0.95226 0.08471 0.0
H2597 H 0.29919 0.96639 0.07037 0.0
H2598 H 0.27934 0.9429 0.04159 0.0
H2599 H 0.25991 0.92878 0.05582 0.0
H2600 H 0.27004 0.91694 0.04235 0.0
H2601 H 0.30016 0.88895 0.08966 0.0
H2602 H 0.27293 0.87529 0.10929 0.0
H2603 H 0.25559 0.91543 0.089 0.0
C2604 C 0.31962 0.94946 0.04957 0.0
C2605 C 0.33563 0.94779 0.04506 0.0
C2606 C 0.33757 0.9322 0.05148 0.0
C2607 C 0.32409 0.91878 0.06274 0.0
C2608 C 0.30858 0.92098 0.06714 0.0
C2609 C 0.30609 0.93572 0.0605 0.0
C2610 C 0.2881 0.93473 0.06718 0.0
C2611 C 0.29302 0.9536 0.07894 0.0
C2612 C 0.27348 0.93059 0.05076 0.0
C2613 C 0.2811 0.91741 0.07895 0.0
C2614 C 0.29318 0.90978 0.07883 0.0
C2615 C 0.29032 0.89449 0.08952 0.0
C2616 C 0.27463 0.8867 0.10054 0.0
C2617 C 0.26168 0.89393 0.10062 0.0
C2618 C 0.26509 0.9095 0.08952 0.0
H2619 H 0.37609 0.0492 0.00132 0.0
H2620 H 0.33283 0.99243 0.97507 0.0
H2621 H 0.31864 0.00827 0.95694 0.0
H2622 H 0.34463 0.06982 0.00433 0.0
H2623 H 0.36302 0.09399 0.99931 0.0
H2624 H 0.36955 0.0782 0.01078 0.0
H2625 H 0.3924 0.08193 0.98514 0.0
H2626 H 0.38589 0.09768 0.97358 0.0
H2627 H 0.38305 0.076 0.96117 0.0
H2628 H 0.31 0.03001 0.94062 0.0
H2629 H 0.30692 0.05644 0.92738 0.0
H2630 H 0.3549 0.09941 0.9648 0.0
C2631 C 0.36356 0.04012 0.99184 0.0
C2632 C 0.35556 0.01957 0.98961 0.0
C2633 C 0.3392 0.00819 0.97703 0.0
C2634 C 0.33102 0.01704 0.96666 0.0
C2635 C 0.3393 0.0373 0.96907 0.0
C2636 C 0.35514 0.04874 0.98138 0.0
C2637 C 0.36133 0.07027 0.98102 0.0
C2638 C 0.35952 0.07855 0.99999 0.0
C2639 C 0.38189 0.08216 0.97486 0.0
C2640 C 0.34662 0.0691 0.96644 0.0
C2641 C 0.33406 0.04992 0.95979 0.0
C2642 C 0.31957 0.04508 0.94589 0.0
C2643 C 0.31785 0.06024 0.93856 0.0
C2644 C 0.33047 0.08007 0.94518 0.0
C2645 C 0.34503 0.08446 0.95937 0.0
H2646 H 0.9505 0.31867 0.98682 0.0
H2647 H 0.0031 0.31891 0.97589 0.0
H2648 H 0.98444 0.28885 0.95488 0.0
H2649 H 0.92035 0.26695 0.98733 0.0
H2650 H 0.89965 0.2662 0.97594 0.0
H2651 H 0.91722 0.28792 0.98981 0.0
H2652 H 0.92169 0.30867 0.96173 0.0
H2653 H 0.90413 0.28699 0.94777 0.0
H2654 H 0.92788 0.30188 0.94007 0.0
H2655 H 0.95979 0.25782 0.93632 0.0
H2656 H 0.93096 0.22882 0.92054 0.0
H2657 H 0.89486 0.24973 0.94277 0.0
C2658 C 0.95809 0.31243 0.97995 0.0
C2659 C 0.97822 0.32105 0.98298 0.0
C2660 C 0.98767 0.31252 0.97372 0.0
C2661 C 0.97721 0.29546 0.96178 0.0
C2662 C 0.95735 0.28726 0.95915 0.0
C2663 C 0.9479 0.29553 0.96787 0.0
C2664 C 0.92647 0.28381 0.96274 0.0
C2665 C 0.91527 0.27574 0.97998 0.0
C2666 C 0.91965 0.29607 0.95246 0.0
C2667 C 0.92531 0.26755 0.94991 0.0
C2668 C 0.94326 0.26974 0.94806 0.0
C2669 C 0.94568 0.25604 0.93751 0.0
C2670 C 0.92929 0.23965 0.92866 0.0
C2671 C 0.91083 0.23727 0.93031 0.0
C2672 C 0.90888 0.25145 0.94099 0.0
H2673 H 0.67942 0.61392 0.02428 0.0
H2674 H 0.6692 0.66059 0.00926 0.0
H2675 H 0.69665 0.67319 0.98981 0.0
H2676 H 0.73165 0.64236 0.02591 0.0
H2677 H 0.73398 0.6225 0.01577 0.0
H2678 H 0.71388 0.61735 0.02921 0.0
H2679 H 0.69031 0.59519 0.00147 0.0
H2680 H 0.71033 0.60027 0.98795 0.0
H2681 H 0.69196 0.60506 0.9792 0.0
H2682 H 0.72483 0.68089 0.97206 0.0
H2683 H 0.75163 0.68237 0.95561 0.0
H2684 H 0.74357 0.63034 0.98093 0.0
C2685 C 0.68307 0.62684 0.01696 0.0
C2686 C 0.67223 0.63632 0.01831 0.0
C2687 C 0.67729 0.65308 0.00841 0.0
C2688 C 0.6929 0.6604 0.99736 0.0
C2689 C 0.70326 0.65073 0.99624 0.0
C2690 C 0.69856 0.63427 0.00564 0.0
C2691 C 0.71181 0.62639 0.00143 0.0
C2692 C 0.72353 0.6272 0.01914 0.0
C2693 C 0.70042 0.60549 0.99194 0.0
C2694 C 0.72455 0.64096 0.98816 0.0
C2695 C 0.71943 0.65497 0.98554 0.0
C2696 C 0.72904 0.67005 0.97401 0.0
C2697 C 0.74429 0.67083 0.96481 0.0
C2698 C 0.74971 0.65655 0.9671 0.0
C2699 C 0.73967 0.6414 0.97891 0.0
H2700 H 0.93527 0.63642 0.01768 0.0
H2701 H 0.99141 0.67988 0.00167 0.0
H2702 H 0.97599 0.69112 0.97903 0.0
H2703 H 0.9121 0.62312 0.97267 0.0
H2704 H 0.88951 0.61986 0.97952 0.0
H2705 H 0.90489 0.61632 0.99569 0.0
H2706 H 0.9051 0.64194 0.01951 0.0
H2707 H 0.88958 0.64545 0.00345 0.0
H2708 H 0.91219 0.66615 0.01269 0.0
H2709 H 0.95445 0.69625 0.95671 0.0
H2710 H 0.92824 0.6951 0.93666 0.0
H2711 H 0.8862 0.64849 0.96734 0.0
C2712 C 0.94431 0.64854 0.00965 0.0
C2713 C 0.96454 0.65735 0.01149 0.0
C2714 C 0.97588 0.67296 1.00052 0.0
C2715 C 0.96726 0.67945 0.98763 0.0
C2716 C 0.94728 0.67021 0.98587 0.0
C2717 C 0.93593 0.65516 0.99664 0.0
C2718 C 0.91476 0.64711 0.99139 0.0
C2719 C 0.90473 0.62531 0.9844 0.0
C2720 C 0.90482 0.65036 0.00773 0.0
C2721 C 0.916 0.65977 0.97582 0.0
C2722 C 0.93487 0.67308 0.97292 0.0
C2723 C 0.9396 0.686 0.95896 0.0
C2724 C 0.92462 0.68528 0.94767 0.0
C2725 C 0.90516 0.67167 0.95036 0.0
C2726 C 0.90091 0.65887 0.96473 0.0
H2727 H 0.37039 0.31876 0.9853 0.0
H2728 H 0.31645 0.31789 0.97601 0.0
H2729 H 0.30227 0.28552 0.95858 0.0
H2730 H 0.36957 0.29835 0.94067 0.0
H2731 H 0.37992 0.28406 0.94829 0.0
H2732 H 0.3854 0.30629 0.96157 0.0
H2733 H 0.3735 0.28718 0.99091 0.0
H2734 H 0.36817 0.2649 0.97775 0.0
H2735 H 0.34967 0.26598 0.98997 0.0
H2736 H 0.29445 0.25416 0.94084 0.0
H2737 H 0.29348 0.22571 0.9241 0.0
H2738 H 0.35267 0.24721 0.94432 0.0
C2739 C 0.35548 0.31155 0.97992 0.0
C2740 C 0.34444 0.32071 0.98212 0.0
C2741 C 0.32511 0.31106 0.97454 0.0
C2742 C 0.31694 0.29268 0.96463 0.0
C2743 C 0.32831 0.28421 0.96235 0.0
C2744 C 0.34714 0.29328 0.96981 0.0
C2745 C 0.35653 0.28147 0.9645 0.0
C2746 C 0.37388 0.29325 0.95308 0.0
C2747 C 0.3623 0.27447 0.98181 0.0
C2748 C 0.3401 0.26449 0.95274 0.0
C2749 C 0.32392 0.26629 0.95179 0.0
C2750 C 0.30699 0.25252 0.94158 0.0
C2751 C 0.30656 0.2364 0.93215 0.0
C2752 C 0.32298 0.23427 0.93291 0.0
C2753 C 0.33996 0.24856 0.94333 0.0
H2754 H 0.67513 0.0418 1.00061 0.0
H2755 H 0.68849 0.08551 0.04606 0.0
H2756 H 0.71747 0.10912 0.03115 0.0
H2757 H 0.724 0.05447 0.99401 0.0
H2758 H 0.71995 0.0501 0.9691 0.0
H2759 H 0.70049 0.03667 0.98351 0.0
H2760 H 0.67999 0.04852 0.96592 0.0
H2761 H 0.69937 0.06196 0.95144 0.0
H2762 H 0.6895 0.07442 0.96438 0.0
H2763 H 0.74463 0.12808 0.01083 0.0
H2764 H 0.76805 0.14084 0.98687 0.0
H2765 H 0.7366 0.08455 0.95485 0.0
C2766 C 0.68417 0.05633 0.00747 0.0
C2767 C 0.6796 0.06186 0.02449 0.0
C2768 C 0.69177 0.08099 0.03302 0.0
C2769 C 0.70824 0.09448 0.02466 0.0
C2770 C 0.7123 0.08854 0.00783 0.0
C2771 C 0.70063 0.06991 0.99936 0.0
C2772 C 0.70804 0.0672 0.98124 0.0
C2773 C 0.71344 0.05116 0.98202 0.0
C2774 C 0.69335 0.06277 0.96478 0.0
C2775 C 0.72569 0.08727 0.98077 0.0
C2776 C 0.72791 0.09938 0.99622 0.0
C2777 C 0.74303 0.11872 0.99869 0.0
C2778 C 0.75619 0.12586 0.98497 0.0
C2779 C 0.75415 0.11368 0.96902 0.0
C2780 C 0.7387 0.09413 0.967 0.0
H2781 H 0.6202 0.9569 0.0622 0.0
H2782 H 0.67843 0.00667 0.06755 0.0
H2783 H 0.69029 0.98592 0.08005 0.0
H2784 H 0.62353 0.93816 0.10432 0.0
H2785 H 0.60919 0.91267 0.09607 0.0
H2786 H 0.60538 0.93064 0.08537 0.0
H2787 H 0.61098 0.91929 0.05324 0.0
H2788 H 0.61473 0.90118 0.06385 0.0
H2789 H 0.63284 0.91884 0.05026 0.0
H2790 H 0.6956 0.961 0.0943 0.0
H2791 H 0.69402 0.93338 0.11004 0.0
H2792 H 0.63242 0.89926 0.09567 0.0
C2793 C 0.63548 0.96326 0.06563 0.0
C2794 C 0.64844 0.98333 0.06381 0.0
C2795 C 0.66828 0.9913 0.06883 0.0
C2796 C 0.67517 0.97963 0.07587 0.0
C2797 C 0.66202 0.96 0.07785 0.0
C2798 C 0.6426 0.95181 0.07289 0.0
C2799 C 0.63144 0.93069 0.0778 0.0
C2800 C 0.61651 0.92789 0.09172 0.0
C2801 C 0.62194 0.91667 0.06024 0.0
C2802 C 0.64757 0.9285 0.08666 0.0
C2803 C 0.6651 0.94552 0.08632 0.0
C2804 C 0.68201 0.94746 0.0944 0.0
C2805 C 0.68097 0.93161 0.10322 0.0
C2806 C 0.66314 0.91403 0.10396 0.0
C2807 C 0.64627 0.91247 0.09537 0.0
H2808 H 0.05075 0.69734 0.06054 0.0
H2809 H 0.01018 0.66978 0.10223 0.0
H2810 H 0.03147 0.69697 0.12534 0.0
H2811 H 0.09435 0.71727 0.09077 0.0
H2812 H 0.1066 0.73994 0.07974 0.0
H2813 H 0.08857 0.71791 0.06654 0.0
H2814 H 0.06998 0.73545 0.05727 0.0
H2815 H 0.08795 0.75751 0.07047 0.0
H2816 H 0.06301 0.74675 0.07516 0.0
H2817 H 0.05738 0.72646 0.1442 0.0
H2818 H 0.08552 0.75791 0.15705 0.0
H2819 H 0.10828 0.76778 0.10286 0.0
C2820 C 0.04647 0.69704 0.07457 0.0
C2821 C 0.0289 0.68145 0.07967 0.0
C2822 C 0.02358 0.68163 0.09806 0.0
C2823 C 0.03559 0.69696 0.1113 0.0
C2824 C 0.05276 0.71218 0.10586 0.0
C2825 C 0.05814 0.71249 0.08791 0.0
C2826 C 0.07701 0.73105 0.0856 0.0
C2827 C 0.09255 0.72625 0.08036 0.0
C2828 C 0.07432 0.74342 0.07128 0.0
C2829 C 0.0814 0.741 0.10505 0.0
C2830 C 0.0673 0.72974 0.11656 0.0
C2831 C 0.06844 0.7355 0.13531 0.0
C2832 C 0.08442 0.7533 0.14249 0.0
C2833 C 0.09881 0.76519 0.13087 0.0
C2834 C 0.09725 0.75899 0.11192 0.0
H2835 H 0.33511 0.37612 0.05628 0.0
H2836 H 0.31035 0.37992 0.00329 0.0
H2837 H 0.28095 0.37399 0.01816 0.0
H2838 H 0.29296 0.33782 0.07191 0.0
H2839 H 0.29811 0.34748 0.09585 0.0
H2840 H 0.31752 0.35318 0.08128 0.0
H2841 H 0.3309 0.39033 0.08879 0.0
H2842 H 0.31161 0.38474 0.10353 0.0
H2843 H 0.3154 0.40031 0.08483 0.0
H2844 H 0.25317 0.36467 0.03851 0.0
H2845 H 0.23043 0.3557 0.06318 0.0
H2846 H 0.27415 0.35941 0.10291 0.0
C2847 C 0.3236 0.37597 0.04784 0.0
C2848 C 0.32495 0.37846 0.02863 0.0
C2849 C 0.30962 0.37816 0.01805 0.0
C2850 C 0.29286 0.37473 0.02636 0.0
C2851 C 0.29185 0.37192 0.04529 0.0
C2852 C 0.30695 0.37281 0.05594 0.0
C2853 C 0.30225 0.36907 0.07592 0.0
C2854 C 0.30273 0.3508 0.08156 0.0
C2855 C 0.31585 0.38719 0.08904 0.0
C2856 C 0.28198 0.36555 0.07484 0.0
C2857 C 0.27618 0.36717 0.05705 0.0
C2858 C 0.25766 0.36361 0.05252 0.0
C2859 C 0.24482 0.35841 0.06655 0.0
C2860 C 0.25062 0.35699 0.08491 0.0
C2861 C 0.26946 0.36067 0.08905 0.0
H2862 H 0.70027 0.67835 0.39546 0.0
H2863 H 0.74036 0.72529 0.36379 0.0
H2864 H 0.76758 0.72717 0.38272 0.0
H2865 H 0.72706 0.6978 0.43974 0.0
H2866 H 0.72107 0.67416 0.44739 0.0
H2867 H 0.70474 0.67627 0.43119 0.0
H2868 H 0.70533 0.65059 0.40808 0.0
H2869 H 0.72161 0.64835 0.42425 0.0
H2870 H 0.72807 0.65451 0.40092 0.0
H2871 H 0.79034 0.72378 0.40491 0.0
H2872 H 0.8072 0.71522 0.42857 0.0
H2873 H 0.75225 0.6712 0.44657 0.0
C2874 C 0.71478 0.68897 0.39245 0.0
C2875 C 0.71824 0.70165 0.37812 0.0
C2876 C 0.73741 0.71542 0.37468 0.0
C2877 C 0.75295 0.71661 0.38537 0.0
C2878 C 0.74904 0.70398 0.39947 0.0
C2879 C 0.73045 0.69041 0.40303 0.0
C2880 C 0.73019 0.67862 0.41906 0.0
C2881 C 0.72017 0.68192 0.43531 0.0
C2882 C 0.72074 0.65672 0.41269 0.0
C2883 C 0.75156 0.68764 0.42393 0.0
C2884 C 0.76217 0.70224 0.41246 0.0
C2885 C 0.78219 0.7125 0.41408 0.0
C2886 C 0.79163 0.70764 0.42771 0.0
C2887 C 0.78108 0.6927 0.43965 0.0
C2888 C 0.76075 0.68265 0.43768 0.0
H2889 H 0.29253 0.99713 0.42691 0.0
H2890 H 0.34923 0.00745 0.41592 0.0
H2891 H 0.36394 0.04068 0.43172 0.0
H2892 H 0.30144 0.04523 0.42014 0.0
H2893 H 0.28754 0.04583 0.43876 0.0
H2894 H 0.28149 0.02277 0.42679 0.0
H2895 H 0.28451 0.00946 0.45809 0.0
H2896 H 0.29053 0.03248 0.47016 0.0
H2897 H 0.30648 0.02286 0.47286 0.0
H2898 H 0.37231 0.07334 0.44731 0.0
H2899 H 0.37387 0.10264 0.46259 0.0
H2900 H 0.31184 0.07009 0.46543 0.0
C2901 C 0.30804 0.00639 0.42787 0.0
C2902 C 0.31976 0.99979 0.42015 0.0
C2903 C 0.34 0.01224 0.42177 0.0
C2904 C 0.34848 0.03113 0.4307 0.0
C2905 C 0.33653 0.03723 0.43812 0.0
C2906 C 0.31676 0.02519 0.43695 0.0
C2907 C 0.30719 0.03527 0.44619 0.0
C2908 C 0.29362 0.0374 0.43213 0.0
C2909 C 0.29655 0.02437 0.46281 0.0
C2910 C 0.32465 0.05496 0.45247 0.0
C2911 C 0.34142 0.05582 0.44766 0.0
C2912 C 0.35929 0.07277 0.45139 0.0
C2913 C 0.36003 0.08931 0.46022 0.0
C2914 C 0.34301 0.08878 0.46538 0.0
C2915 C 0.32514 0.0712 0.46154 0.0
H2916 H 0.00168 0.31119 0.39535 0.0
H2917 H 0.99322 0.26632 0.35303 0.0
H2918 H 0.96448 0.24203 0.36778 0.0
H2919 H 0.98853 0.28036 0.43323 0.0
H2920 H 0.97687 0.29185 0.44462 0.0
H2921 H 0.99633 0.30573 0.43036 0.0
H2922 H 0.97444 0.31444 0.41067 0.0
H2923 H 0.9549 0.30057 0.42486 0.0
H2924 H 0.9517 0.29504 0.40005 0.0
H2925 H 0.93655 0.22278 0.38716 0.0
H2926 H 0.91218 0.2097 0.41012 0.0
H2927 H 0.94001 0.26697 0.44058 0.0
C2928 C 0.99371 0.29628 0.38912 0.0
C2929 C 0.99958 0.29063 0.37299 0.0
C2930 C 0.98893 0.27094 0.36537 0.0
C2931 C 0.97259 0.25707 0.37363 0.0
C2932 C 0.96722 0.26313 0.38956 0.0
C2933 C 0.97752 0.28224 0.39727 0.0
C2934 C 0.96906 0.28488 0.41472 0.0
C2935 C 0.98356 0.29106 0.43174 0.0
C2936 C 0.96211 0.2996 0.41243 0.0
C2937 C 0.95232 0.26427 0.4156 0.0
C2938 C 0.95146 0.25196 0.40094 0.0
C2939 C 0.93717 0.23226 0.39877 0.0
C2940 C 0.92346 0.22494 0.41198 0.0
C2941 C 0.92418 0.23724 0.42728 0.0
C2942 C 0.93886 0.25719 0.42898 0.0
H2943 H 0.0186 0.36184 0.31646 0.0
H2944 H 0.06414 0.40048 0.3581 0.0
H2945 H 0.06036 0.42825 0.34903 0.0
H2946 H 0.03184 0.39549 0.28187 0.0
H2947 H 0.00747 0.38744 0.27338 0.0
H2948 H 0.01304 0.37059 0.28401 0.0
H2949 H 0.98744 0.36369 0.30761 0.0
H2950 H 0.9818 0.38055 0.29704 0.0
H2951 H 0.98873 0.38385 0.32156 0.0
H2952 H 0.05235 0.45202 0.33425 0.0
H2953 H 0.041 0.46977 0.31495 0.0
H2954 H 0.00127 0.41521 0.28285 0.0
C2955 C 0.02766 0.37609 0.32382 0.0
C2956 C 0.04162 0.37903 0.33802 0.0
C2957 C 0.05331 0.39793 0.34721 0.0
C2958 C 0.05125 0.41376 0.34217 0.0
C2959 C 0.03742 0.41036 0.32797 0.0
C2960 C 0.02583 0.39197 0.31895 0.0
C2961 C 0.01257 0.39225 0.30369 0.0
C2962 C 0.01647 0.38608 0.28462 0.0
C2963 C 0.99138 0.37932 0.30772 0.0
C2964 C 0.01864 0.41373 0.30534 0.0
C2965 C 0.03291 0.42396 0.31947 0.0
C2966 C 0.04112 0.44413 0.32321 0.0
C2967 C 0.03466 0.4541 0.31212 0.0
C2968 C 0.02016 0.44387 0.29746 0.0
C2969 C 0.01205 0.4234 0.29419 0.0
H2970 H 0.64114 0.64404 0.30242 0.0
H2971 H 0.61882 0.63597 0.35689 0.0
H2972 H 0.59229 0.60308 0.34561 0.0
H2973 H 0.5967 0.62227 0.27679 0.0
H2974 H 0.60284 0.61059 0.25853 0.0
H2975 H 0.62138 0.63259 0.2713 0.0
H2976 H 0.63988 0.61482 0.27997 0.0
H2977 H 0.62141 0.59274 0.26714 0.0
H2978 H 0.62783 0.59226 0.29122 0.0
H2979 H 0.56652 0.57298 0.32792 0.0
H2980 H 0.5433 0.54675 0.3048 0.0
H2981 H 0.58227 0.5735 0.2618 0.0
C2982 C 0.63088 0.63516 0.31205 0.0
C2983 C 0.63205 0.6425 0.33055 0.0
C2984 C 0.61821 0.63061 0.34268 0.0
C2985 C 0.60312 0.61189 0.33642 0.0
C2986 C 0.60214 0.60523 0.31802 0.0
C2987 C 0.61569 0.6164 0.30601 0.0
C2988 C 0.61057 0.60621 0.28661 0.0
C2989 C 0.6077 0.61866 0.27248 0.0
C2990 C 0.62583 0.60121 0.2809 0.0
C2991 C 0.59175 0.58785 0.2895 0.0
C2992 C 0.58725 0.58757 0.30777 0.0
C2993 C 0.57 0.57285 0.31365 0.0
C2994 C 0.55692 0.5581 0.30047 0.0
C2995 C 0.5612 0.55817 0.2817 0.0
C2996 C 0.57892 0.57304 0.27618 0.0
H2997 H 0.35603 0.97135 0.36217 0.0
H2998 H 0.31893 0.90814 0.35594 0.0
H2999 H 0.34027 0.90587 0.3336 0.0
H3000 H 0.36696 0.97842 0.31562 0.0
H3001 H 0.39172 0.99732 0.32079 0.0
H3002 H 0.37411 0.99389 0.33695 0.0
H3003 H 0.39437 0.98956 0.36309 0.0
H3004 H 0.41217 0.9932 0.34705 0.0
H3005 H 0.40137 0.97138 0.35951 0.0
H3006 H 0.36409 0.911 0.30982 0.0
H3007 H 0.38998 0.92264 0.28848 0.0
H3008 H 0.41294 0.9823 0.31238 0.0
C3009 C 0.35253 0.95701 0.35626 0.0
C3010 C 0.33585 0.93991 0.36071 0.0
C3011 C 0.33172 0.9214 0.35276 0.0
C3012 C 0.34371 0.91999 0.34003 0.0
C3013 C 0.35989 0.93719 0.33568 0.0
C3014 C 0.36448 0.95532 0.3438 0.0
C3015 C 0.38262 0.97158 0.33672 0.0
C3016 C 0.3786 0.98615 0.32694 0.0
C3017 C 0.39858 0.98204 0.35253 0.0
C3018 C 0.38731 0.95982 0.32304 0.0
C3019 C 0.374 0.94003 0.32258 0.0
C3020 C 0.37482 0.92642 0.31033 0.0
C3021 C 0.3897 0.9332 0.29831 0.0
C3022 C 0.40376 0.95342 0.29875 0.0
C3023 C 0.40244 0.96679 0.31142 0.0
H3024 H 0.62921 0.97561 0.32025 0.0
H3025 H 0.60804 0.97599 0.37434 0.0
H3026 H 0.58195 0.97987 0.35966 0.0
H3027 H 0.62089 0.01152 0.30193 0.0
H3028 H 0.61339 0.99966 0.27877 0.0
H3029 H 0.6298 0.99605 0.29341 0.0
H3030 H 0.6068 0.95843 0.28915 0.0
H3031 H 0.59036 0.96191 0.27438 0.0
H3032 H 0.5821 0.9482 0.29455 0.0
H3033 H 0.55955 0.98586 0.33921 0.0
H3034 H 0.54113 0.99133 0.31436 0.0
H3035 H 0.57633 0.98592 0.27349 0.0
C3036 C 0.61898 0.97633 0.329 0.0
C3037 C 0.62063 0.97554 0.34845 0.0
C3038 C 0.60697 0.9765 0.35941 0.0
C3039 C 0.59216 0.97875 0.3512 0.0
C3040 C 0.59113 0.97978 0.332 0.0
C3041 C 0.60404 0.97837 0.32102 0.0
C3042 C 0.59989 0.98003 0.30075 0.0
C3043 C 0.61701 0.99788 0.29328 0.0
C3044 C 0.59446 0.96101 0.28902 0.0
C3045 C 0.58279 0.98293 0.30204 0.0
C3046 C 0.578 0.9828 0.3202 0.0
C3047 C 0.56311 0.98587 0.32495 0.0
C3048 C 0.55283 0.9891 0.31078 0.0
C3049 C 0.55741 0.98913 0.29207 0.0
C3050 C 0.5725 0.98587 0.28767 0.0
H3051 H 0.02571 0.64934 0.32112 0.0
H3052 H 0.01767 0.68145 0.278 0.0
H3053 H 0.0096 0.65395 0.25477 0.0
H3054 H 0.04644 0.62652 0.29384 0.0
H3055 H 0.03402 0.60357 0.3044 0.0
H3056 H 0.03982 0.62607 0.3174 0.0
H3057 H 0.00391 0.61161 0.32354 0.0
H3058 H 0.99802 0.58909 0.31054 0.0
H3059 H 0.986 0.60221 0.30418 0.0
H3060 H 0.0034 0.62324 0.23615 0.0
H3061 H 0.99713 0.59053 0.22404 0.0
H3062 H 0.00711 0.57794 0.27977 0.0
C3063 C 0.02236 0.6506 0.30676 0.0
C3064 C 0.02243 0.6675 0.30126 0.0
C3065 C 0.01768 0.66857 0.28244 0.0
C3066 C 0.01314 0.65308 0.26917 0.0
C3067 C 0.01316 0.63656 0.27505 0.0
C3068 C 0.01745 0.63515 0.29344 0.0
C3069 C 0.01572 0.61552 0.29629 0.0
C3070 C 0.03516 0.61808 0.3034 0.0
C3071 C 0.99997 0.60393 0.30941 0.0
C3072 C 0.0099 0.60616 0.27663 0.0
C3073 C 0.00869 0.61858 0.26453 0.0
C3074 C 0.00413 0.61332 0.24552 0.0
C3075 C 0.00064 0.59481 0.23876 0.0
C3076 C 0.00144 0.58181 0.25106 0.0
C3077 C 0.00612 0.58758 0.27018 0.0
H3078 H 0.33654 0.38566 0.34216 0.0
H3079 H 0.33159 0.32883 0.33104 0.0
H3080 H 0.35873 0.34343 0.31143 0.0
H3081 H 0.34799 0.40124 0.29592 0.0
H3082 H 0.36497 0.42647 0.30348 0.0
H3083 H 0.34538 0.41192 0.31737 0.0
H3084 H 0.36959 0.41981 0.34569 0.0
H3085 H 0.38925 0.43441 0.33189 0.0
H3086 H 0.38878 0.41458 0.34359 0.0
H3087 H 0.38594 0.36335 0.29313 0.0
H3088 H 0.4119 0.38806 0.27603 0.0
H3089 H 0.39974 0.43244 0.29772 0.0
C3090 C 0.34128 0.37639 0.33564 0.0
C3091 C 0.33194 0.35611 0.33814 0.0
C3092 C 0.33844 0.34438 0.32929 0.0
C3093 C 0.3539 0.35253 0.31814 0.0
C3094 C 0.36273 0.37245 0.31582 0.0
C3095 C 0.35671 0.3843 0.3242 0.0
C3096 C 0.36864 0.40523 0.31885 0.0
C3097 C 0.35599 0.41158 0.30828 0.0
C3098 C 0.37972 0.41934 0.33603 0.0
C3099 C 0.38219 0.40314 0.30621 0.0
C3100 C 0.37851 0.38409 0.30481 0.0
C3101 C 0.38904 0.37836 0.29412 0.0
C3102 C 0.40381 0.39251 0.28454 0.0
C3103 C 0.40789 0.41215 0.28564 0.0
C3104 C 0.39685 0.4175 0.29658 0.0
H3105 H 0.28994 0.27024 0.39164 0.0
H3106 H 0.33964 0.32818 0.40531 0.0
H3107 H 0.35576 0.31362 0.42264 0.0
H3108 H 0.29029 0.25216 0.43528 0.0
H3109 H 0.28299 0.22764 0.42614 0.0
H3110 H 0.27598 0.24239 0.41347 0.0
H3111 H 0.29151 0.23758 0.38454 0.0
H3112 H 0.29855 0.22278 0.39712 0.0
H3113 H 0.31638 0.24397 0.38658 0.0
H3114 H 0.36574 0.29311 0.43989 0.0
H3115 H 0.36852 0.26805 0.45662 0.0
H3116 H 0.31244 0.2234 0.43168 0.0
C3117 C 0.30432 0.27981 0.39807 0.0
C3118 C 0.31359 0.30031 0.39709 0.0
C3119 C 0.33229 0.31241 0.40589 0.0
C3120 C 0.34159 0.30429 0.41571 0.0
C3121 C 0.33199 0.28404 0.41659 0.0
C3122 C 0.31377 0.27195 0.40803 0.0
C3123 C 0.30624 0.25078 0.41197 0.0
C3124 C 0.28779 0.24278 0.42233 0.0
C3125 C 0.30298 0.23803 0.39398 0.0
C3126 C 0.32293 0.25293 0.42434 0.0
C3127 C 0.33771 0.27221 0.42667 0.0
C3128 C 0.35436 0.27792 0.438 0.0
C3129 C 0.35585 0.26357 0.44737 0.0
C3130 C 0.34074 0.24376 0.4454 0.0
C3131 C 0.32419 0.23843 0.43354 0.0
H3132 H 0.69871 0.02768 0.42197 0.0
H3133 H 0.71186 0.04546 0.3661 0.0
H3134 H 0.73477 0.0794 0.37886 0.0
H3135 H 0.70312 0.07323 0.44244 0.0
H3136 H 0.71445 0.07224 0.46408 0.0
H3137 H 0.69763 0.04988 0.45051 0.0
H3138 H 0.72336 0.03945 0.45009 0.0
H3139 H 0.74024 0.06176 0.46361 0.0
H3140 H 0.74642 0.05564 0.44163 0.0
H3141 H 0.75727 0.11086 0.39765 0.0
H3142 H 0.77924 0.13729 0.42114 0.0
H3143 H 0.75244 0.09881 0.46492 0.0
C3144 C 0.70615 0.03882 0.41243 0.0
C3145 C 0.7034 0.03407 0.39305 0.0
C3146 C 0.71373 0.04888 0.38099 0.0
C3147 C 0.7267 0.06817 0.3881 0.0
C3148 C 0.72927 0.07235 0.4073 0.0
C3149 C 0.71937 0.05808 0.41932 0.0
C3150 C 0.72588 0.06606 0.43939 0.0
C3151 C 0.70928 0.06531 0.44971 0.0
C3152 C 0.73449 0.05507 0.44925 0.0
C3153 C 0.74116 0.08698 0.43678 0.0
C3154 C 0.74268 0.09037 0.41817 0.0
C3155 C 0.75609 0.10844 0.41226 0.0
C3156 C 0.76842 0.12339 0.42571 0.0
C3157 C 0.76739 0.12014 0.44484 0.0
C3158 C 0.75348 0.10171 0.4504 0.0
H3159 H 0.98572 0.71946 0.37263 0.0
H3160 H 0.97614 0.66122 0.35823 0.0
H3161 H 0.94694 0.64682 0.37538 0.0
H3162 H 0.97213 0.71109 0.41858 0.0
H3163 H 0.96043 0.7254 0.41897 0.0
H3164 H 0.97965 0.73127 0.40409 0.0
H3165 H 0.95742 0.728 0.37554 0.0
H3166 H 0.93815 0.72226 0.39036 0.0
H3167 H 0.93459 0.7057 0.37063 0.0
H3168 H 0.92017 0.63873 0.39559 0.0
H3169 H 0.89715 0.63743 0.41762 0.0
H3170 H 0.92362 0.70076 0.4192 0.0
C3171 C 0.97724 0.70367 0.37281 0.0
C3172 C 0.98311 0.69144 0.36402 0.0
C3173 C 0.97188 0.67086 0.36485 0.0
C3174 C 0.95525 0.66253 0.37453 0.0
C3175 C 0.95003 0.67496 0.38336 0.0
C3176 C 0.9606 0.69507 0.38258 0.0
C3177 C 0.9523 0.70509 0.39418 0.0
C3178 C 0.967 0.71903 0.40988 0.0
C3179 C 0.94519 0.7159 0.38194 0.0
C3180 C 0.93564 0.68748 0.40178 0.0
C3181 C 0.93453 0.67025 0.39523 0.0
C3182 C 0.92072 0.6521 0.40065 0.0
C3183 C 0.90764 0.6515 0.41312 0.0
C3184 C 0.90846 0.66896 0.42008 0.0
C3185 C 0.92267 0.68716 0.41423 0.0
H3186 H 0.37575 0.02886 0.74362 0.0
H3187 H 0.38725 0.01251 0.68963 0.0
H3188 H 0.41103 0.00551 0.7047 0.0
H3189 H 0.42542 0.0531 0.76336 0.0
H3190 H 0.4187 0.045 0.78617 0.0
H3191 H 0.40275 0.04884 0.77105 0.0
H3192 H 0.37545 0.01326 0.77441 0.0
H3193 H 0.39135 0.00924 0.78938 0.0
H3194 H 0.37934 0.99316 0.76874 0.0
H3195 H 0.43195 0.99832 0.72576 0.0
H3196 H 0.45134 0.99491 0.7512 0.0
H3197 H 0.42778 0.01786 0.79132 0.0
C3198 C 0.38339 0.02394 0.73498 0.0
C3199 C 0.37967 0.02115 0.71548 0.0
C3200 C 0.38998 0.01481 0.7046 0.0
C3201 C 0.40342 0.01071 0.71303 0.0
C3202 C 0.40656 0.01332 0.73232 0.0
C3203 C 0.39709 0.02011 0.74315 0.0
C3204 C 0.40339 0.02205 0.76356 0.0
C3205 C 0.41315 0.04352 0.7715 0.0
C3206 C 0.38636 0.00862 0.77467 0.0
C3207 C 0.41769 0.01503 0.76256 0.0
C3208 C 0.41916 0.00988 0.74441 0.0
C3209 C 0.43101 0.00242 0.74 0.0
C3210 C 0.44184 0.0004 0.7545 0.0
C3211 C 0.44088 0.00603 0.7731 0.0
C3212 C 0.42869 0.01346 0.77717 0.0
H3213 H 0.96607 0.33989 0.75498 0.0
H3214 H 0.02304 0.35568 0.73908 0.0
H3215 H 0.03631 0.38847 0.75559 0.0
H3216 H 0.97004 0.38699 0.75177 0.0
H3217 H 0.95716 0.38524 0.77203 0.0
H3218 H 0.95209 0.36332 0.75841 0.0
H3219 H 0.95914 0.34969 0.78778 0.0
H3220 H 0.96427 0.3716 0.80147 0.0
H3221 H 0.98192 0.364 0.80117 0.0
H3222 H 0.04303 0.41993 0.77277 0.0
H3223 H 0.04313 0.44724 0.79054 0.0
H3224 H 0.98237 0.40951 0.79827 0.0
C3225 C 0.9813 0.35034 0.75486 0.0
C3226 C 0.99354 0.34542 0.74562 0.0
C3227 C 0.01344 0.35927 0.74605 0.0
C3228 C 0.02109 0.37789 0.75537 0.0
C3229 C 0.00868 0.38228 0.76447 0.0
C3230 C 0.98925 0.36885 0.76446 0.0
C3231 C 0.97919 0.377 0.77589 0.0
C3232 C 0.96371 0.37821 0.7638 0.0
C3233 C 0.97063 0.36485 0.79257 0.0
C3234 C 0.99594 0.39721 0.78209 0.0
C3235 C 0.01279 0.40001 0.77525 0.0
C3236 C 0.02998 0.41781 0.77845 0.0
C3237 C 0.02991 0.43323 0.78878 0.0
C3238 C 0.01281 0.43072 0.79607 0.0
C3239 C 0.99571 0.41224 0.79279 0.0
H3240 H 0.66355 0.64495 0.72721 0.0
H3241 H 0.65266 0.60373 0.68017 0.0
H3242 H 0.62249 0.57934 0.69297 0.0
H3243 H 0.64725 0.61056 0.76127 0.0
H3244 H 0.63668 0.6222 0.77435 0.0
H3245 H 0.65674 0.63659 0.76094 0.0
H3246 H 0.63688 0.64917 0.74337 0.0
H3247 H 0.61673 0.63481 0.75674 0.0
H3248 H 0.61381 0.63177 0.73173 0.0
H3249 H 0.59436 0.55901 0.71187 0.0
H3250 H 0.57037 0.5444 0.73512 0.0
H3251 H 0.59989 0.59921 0.7696 0.0
C3252 C 0.65475 0.63085 0.7195 0.0
C3253 C 0.66041 0.6262 0.70268 0.0
C3254 C 0.64855 0.60758 0.69305 0.0
C3255 C 0.63141 0.59367 0.70021 0.0
C3256 C 0.62634 0.5987 0.71693 0.0
C3257 C 0.63765 0.61688 0.7264 0.0
C3258 C 0.62934 0.61851 0.74433 0.0
C3259 C 0.64334 0.62217 0.76121 0.0
C3260 C 0.62386 0.63451 0.74401 0.0
C3261 C 0.61168 0.5983 0.74364 0.0
C3262 C 0.61016 0.5871 0.72771 0.0
C3263 C 0.59536 0.56769 0.72433 0.0
C3264 C 0.58188 0.5595 0.73765 0.0
C3265 C 0.58327 0.57069 0.75414 0.0
C3266 C 0.59829 0.5904 0.75701 0.0
H3267 H 0.67912 0.69263 0.64945 0.0
H3268 H 0.7182 0.73163 0.69527 0.0
H3269 H 0.7118 0.75764 0.6859 0.0
H3270 H 0.69319 0.72786 0.61689 0.0
H3271 H 0.66945 0.71812 0.60561 0.0
H3272 H 0.6757 0.70214 0.61703 0.0
H3273 H 0.64669 0.69125 0.63717 0.0
H3274 H 0.64034 0.70723 0.6258 0.0
H3275 H 0.6443 0.7095 0.65074 0.0
H3276 H 0.70291 0.78006 0.67002 0.0
H3277 H 0.69254 0.79721 0.64881 0.0
H3278 H 0.65957 0.74339 0.61334 0.0
C3279 C 0.68611 0.70653 0.65771 0.0
C3280 C 0.69909 0.71011 0.67315 0.0
C3281 C 0.70814 0.72858 0.68345 0.0
C3282 C 0.70456 0.7434 0.67824 0.0
C3283 C 0.69186 0.73946 0.66278 0.0
C3284 C 0.68274 0.72144 0.6527 0.0
C3285 C 0.67064 0.72125 0.63601 0.0
C3286 C 0.67768 0.71711 0.61782 0.0
C3287 C 0.64922 0.70643 0.63753 0.0
C3288 C 0.67463 0.74209 0.63804 0.0
C3289 C 0.68678 0.75233 0.65364 0.0
C3290 C 0.69326 0.77213 0.65788 0.0
C3291 C 0.68737 0.78176 0.64572 0.0
C3292 C 0.67518 0.7716 0.6295 0.0
C3293 C 0.66856 0.75144 0.62583 0.0
H3294 H 0.30379 0.97094 0.64395 0.0
H3295 H 0.28682 0.95626 0.69975 0.0
H3296 H 0.26287 0.92231 0.68758 0.0
H3297 H 0.25698 0.94496 0.62222 0.0
H3298 H 0.26375 0.93735 0.60138 0.0
H3299 H 0.28087 0.95965 0.61476 0.0
H3300 H 0.30487 0.94701 0.61748 0.0
H3301 H 0.2878 0.92464 0.60409 0.0
H3302 H 0.29739 0.92368 0.62674 0.0
H3303 H 0.23992 0.89048 0.669 0.0
H3304 H 0.21815 0.86395 0.64539 0.0
H3305 H 0.2493 0.9002 0.60167 0.0
C3306 C 0.29528 0.96048 0.65366 0.0
C3307 C 0.29726 0.96607 0.67282 0.0
C3308 C 0.28556 0.95216 0.68504 0.0
C3309 C 0.272 0.93288 0.67826 0.0
C3310 C 0.27028 0.92789 0.65923 0.0
C3311 C 0.28153 0.94134 0.6471 0.0
C3312 C 0.27585 0.93283 0.62713 0.0
C3313 C 0.26895 0.94438 0.61571 0.0
C3314 C 0.29247 0.93199 0.61835 0.0
C3315 C 0.25946 0.91251 0.62987 0.0
C3316 C 0.25667 0.90983 0.64849 0.0
C3317 C 0.24208 0.89236 0.6544 0.0
C3318 C 0.22987 0.87736 0.64092 0.0
C3319 C 0.23221 0.88003 0.62176 0.0
C3320 C 0.24729 0.89779 0.61623 0.0
H3321 H 0.01643 0.30999 0.6711 0.0
H3322 H 0.0265 0.27866 0.71375 0.0
H3323 H 0.05473 0.28226 0.69827 0.0
H3324 H 0.02942 0.2896 0.63276 0.0
H3325 H 0.04079 0.31212 0.62139 0.0
H3326 H 0.02142 0.30704 0.63585 0.0
H3327 H 0.04324 0.33987 0.6555 0.0
H3328 H 0.0627 0.34502 0.64114 0.0
H3329 H 0.06612 0.34484 0.66591 0.0
H3330 H 0.08175 0.2892 0.67807 0.0
H3331 H 0.10571 0.29901 0.65464 0.0
H3332 H 0.07793 0.3258 0.62517 0.0
C3333 C 0.02456 0.30387 0.67717 0.0
C3334 C 0.01929 0.29402 0.69362 0.0
C3335 C 0.0303 0.28624 0.70116 0.0
C3336 C 0.04635 0.28822 0.69247 0.0
C3337 C 0.05118 0.29805 0.67629 0.0
C3338 C 0.04062 0.30575 0.66872 0.0
C3339 C 0.04886 0.31566 0.65123 0.0
C3340 C 0.03425 0.30549 0.63431 0.0
C3341 C 0.05563 0.33765 0.6536 0.0
C3342 C 0.06571 0.31233 0.65013 0.0
C3343 C 0.06678 0.30212 0.66471 0.0
C3344 C 0.08104 0.29716 0.66658 0.0
C3345 C 0.09451 0.30271 0.65316 0.0
C3346 C 0.09366 0.31313 0.63806 0.0
C3347 C 0.07908 0.31804 0.63665 0.0
H3348 H 0.27995 0.3151 0.68464 0.0
H3349 H 0.31965 0.31382 0.64667 0.0
H3350 H 0.30439 0.32236 0.62146 0.0
H3351 H 0.23868 0.29419 0.65243 0.0
H3352 H 0.22966 0.30959 0.6609 0.0
H3353 H 0.24404 0.30396 0.67634 0.0
H3354 H 0.26783 0.34106 0.68419 0.0
H3355 H 0.25347 0.34676 0.66878 0.0
H3356 H 0.27867 0.35666 0.66566 0.0
H3357 H 0.28359 0.32859 0.59975 0.0
H3358 H 0.25943 0.33426 0.58333 0.0
H3359 H 0.2342 0.33342 0.63527 0.0
C3360 C 0.28549 0.31678 0.67105 0.0
C3361 C 0.30099 0.31378 0.66763 0.0
C3362 C 0.30784 0.31609 0.64966 0.0
C3363 C 0.29926 0.32092 0.63521 0.0
C3364 C 0.28394 0.32363 0.63895 0.0
C3365 C 0.27721 0.32185 0.65644 0.0
C3366 C 0.26042 0.32545 0.65659 0.0
C3367 C 0.24212 0.30721 0.66188 0.0
C3368 C 0.2654 0.34357 0.66958 0.0
C3369 C 0.25865 0.32919 0.6364 0.0
C3370 C 0.27233 0.32799 0.62648 0.0
C3371 C 0.27297 0.32985 0.6074 0.0
C3372 C 0.25923 0.33302 0.59819 0.0
C3373 C 0.24526 0.33452 0.60813 0.0
C3374 C 0.24504 0.33271 0.62748 0.0
H3375 H 0.6759 0.99191 0.6252 0.0
H3376 H 0.7342 0.0129 0.64814 0.0
H3377 H 0.73442 0.98553 0.6307 0.0
H3378 H 0.65951 0.94126 0.6278 0.0
H3379 H 0.64443 0.93338 0.60641 0.0
H3380 H 0.64921 0.95541 0.61962 0.0
H3381 H 0.66206 0.97515 0.5908 0.0
H3382 H 0.6573 0.95316 0.57748 0.0
H3383 H 0.6811 0.97446 0.57924 0.0
H3384 H 0.72804 0.95545 0.61218 0.0
H3385 H 0.7151 0.92362 0.59427 0.0
H3386 H 0.66081 0.92168 0.58302 0.0
C3387 C 0.68876 0.99083 0.62636 0.0
C3388 C 0.70507 0.00454 0.63794 0.0
C3389 C 0.72156 0.00255 0.63933 0.0
C3390 C 0.72185 0.9871 0.62944 0.0
C3391 C 0.70552 0.97375 0.61825 0.0
C3392 C 0.68926 0.97538 0.61666 0.0
C3393 C 0.67334 0.95843 0.60436 0.0
C3394 C 0.65558 0.94641 0.6152 0.0
C3395 C 0.66815 0.96574 0.58694 0.0
C3396 C 0.68316 0.94693 0.59952 0.0
C3397 C 0.70177 0.95617 0.60756 0.0
C3398 C 0.71357 0.94817 0.60561 0.0
C3399 C 0.70612 0.93014 0.59528 0.0
C3400 C 0.68701 0.92025 0.58702 0.0
C3401 C 0.67547 0.92889 0.58913 0.0
H3402 H 0.0133 0.69808 0.68645 0.0
H3403 H 0.98617 0.73345 0.6896 0.0
H3404 H 0.01146 0.75813 0.67169 0.0
H3405 H 0.06363 0.74001 0.69012 0.0
H3406 H 0.07131 0.72751 0.67426 0.0
H3407 H 0.05208 0.71365 0.6888 0.0
H3408 H 0.03 0.69329 0.65957 0.0
H3409 H 0.04902 0.70725 0.64493 0.0
H3410 H 0.02606 0.70572 0.6411 0.0
H3411 H 0.0369 0.77638 0.64988 0.0
H3412 H 0.06275 0.78898 0.6286 0.0
H3413 H 0.07522 0.7433 0.64199 0.0
C3414 C 0.01294 0.71123 0.68371 0.0
C3415 C 0.99782 0.7139 0.68939 0.0
C3416 C 0.99772 0.73121 0.68548 0.0
C3417 C 0.01198 0.74526 0.67527 0.0
C3418 C 0.02639 0.74192 0.6694 0.0
C3419 C 0.02721 0.72553 0.67379 0.0
C3420 C 0.04389 0.72515 0.66533 0.0
C3421 C 0.0586 0.72668 0.68054 0.0
C3422 C 0.03681 0.70676 0.65194 0.0
C3423 C 0.05193 0.74355 0.65499 0.0
C3424 C 0.04162 0.75298 0.65749 0.0
C3425 C 0.04544 0.76944 0.64823 0.0
C3426 C 0.0603 0.77656 0.63621 0.0
C3427 C 0.07141 0.76741 0.63368 0.0
C3428 C 0.06709 0.7507 0.64338 0.0
H3429 H 0.98349 0.64167 0.74088 0.0
H3430 H 0.93166 0.59894 0.70777 0.0
H3431 H 0.93582 0.57222 0.71916 0.0
H3432 H 0.01038 0.61607 0.73485 0.0
H3433 H 0.02124 0.62297 0.75831 0.0
H3434 H 0.01487 0.63874 0.74657 0.0
H3435 H 0.99424 0.63783 0.77344 0.0
H3436 H 0.00053 0.62207 0.78525 0.0
H3437 H 0.97559 0.6145 0.78005 0.0
H3438 H 0.94434 0.55015 0.73589 0.0
H3439 H 0.95692 0.53434 0.75642 0.0
H3440 H 0.00339 0.59153 0.77823 0.0
C3441 C 0.97314 0.62671 0.73585 0.0
C3442 C 0.95726 0.62234 0.72343 0.0
C3443 C 0.94395 0.60258 0.71726 0.0
C3444 C 0.94621 0.58733 0.72363 0.0
C3445 C 0.96192 0.59212 0.73605 0.0
C3446 C 0.97521 0.61134 0.74202 0.0
C3447 C 0.99037 0.61252 0.75598 0.0
C3448 C 0.0104 0.6232 0.74847 0.0
C3449 C 0.99016 0.6223 0.77479 0.0
C3450 C 0.98334 0.59094 0.75718 0.0
C3451 C 0.96695 0.57942 0.74553 0.0
C3452 C 0.95727 0.55902 0.74493 0.0
C3453 C 0.96446 0.55018 0.75666 0.0
C3454 C 0.98116 0.56174 0.76878 0.0
C3455 C 0.9908 0.58236 0.76885 0.0
H3456 H 0.35874 0.35814 0.74198 0.0
H3457 H 0.39464 0.33834 0.71701 0.0
H3458 H 0.4236 0.36738 0.73217 0.0
H3459 H 0.39122 0.41036 0.73817 0.0
H3460 H 0.3858 0.41744 0.76013 0.0
H3461 H 0.3679 0.39546 0.74676 0.0
H3462 H 0.36474 0.37528 0.77499 0.0
H3463 H 0.38269 0.39717 0.7884 0.0
H3464 H 0.38588 0.37626 0.78559 0.0
H3465 H 0.44841 0.39753 0.75096 0.0
H3466 H 0.46784 0.42782 0.77139 0.0
H3467 H 0.41603 0.42841 0.78411 0.0
C3468 C 0.37271 0.36001 0.73957 0.0
C3469 C 0.37448 0.34601 0.72831 0.0
C3470 C 0.39298 0.34892 0.72555 0.0
C3471 C 0.4095 0.36535 0.73411 0.0
C3472 C 0.40726 0.37875 0.7453 0.0
C3473 C 0.38937 0.37637 0.74797 0.0
C3474 C 0.39098 0.39284 0.76091 0.0
C3475 C 0.38354 0.40473 0.75089 0.0
C3476 C 0.38045 0.38491 0.77851 0.0
C3477 C 0.41257 0.40473 0.76525 0.0
C3478 C 0.42165 0.3963 0.75609 0.0
C3479 C 0.44149 0.4043 0.75818 0.0
C3480 C 0.45237 0.4214 0.76991 0.0
C3481 C 0.44341 0.43034 0.77942 0.0
C3482 C 0.42325 0.42192 0.77694 0.0
H3483 H 0.65684 0.05846 0.70075 0.0
H3484 H 0.64548 0.99927 0.68804 0.0
H3485 H 0.6178 0.98648 0.70727 0.0
H3486 H 0.64622 0.05344 0.74753 0.0
H3487 H 0.63463 0.06787 0.74778 0.0
H3488 H 0.65275 0.07252 0.73185 0.0
H3489 H 0.62883 0.0675 0.70416 0.0
H3490 H 0.61069 0.06305 0.72004 0.0
H3491 H 0.60581 0.04517 0.7011 0.0
H3492 H 0.59369 0.98038 0.73019 0.0
H3493 H 0.57262 0.98085 0.75347 0.0
H3494 H 0.59781 0.04368 0.75012 0.0
C3495 C 0.64829 0.04279 0.70175 0.0
C3496 C 0.6533 0.02985 0.69288 0.0
C3497 C 0.64189 0.00945 0.69466 0.0
C3498 C 0.62615 0.00203 0.70558 0.0
C3499 C 0.62186 0.01518 0.7145 0.0
C3500 C 0.63239 0.03508 0.71253 0.0
C3501 C 0.62492 0.04599 0.72408 0.0
C3502 C 0.64056 0.06083 0.73867 0.0
C3503 C 0.6171 0.05601 0.7116 0.0
C3504 C 0.60886 0.02913 0.73311 0.0
C3505 C 0.6074 0.01152 0.72738 0.0
C3506 C 0.59437 0.99401 0.73448 0.0
C3507 C 0.58234 0.99444 0.74765 0.0
C3508 C 0.58316 0.01223 0.75352 0.0
C3509 C 0.59672 0.0298 0.74607 0.0
loop_
_geom_bond_atom_site_label_1
_geom_bond_atom_site_label_2
_geom_bond_distance
_geom_bond_site_symmetry_2
_ccdc_geom_bond_type
In0 O1 2.250 1_455 S
In0 O2 2.329 . S
In0 O6 2.223 1_455 S
In0 O7 2.340 1_454 S
In0 O8 2.285 1_554 S
In0 O9 2.266 1_454 S
In0 O11 2.364 . S
In0 O12 2.361 . S
O1 In0 2.250 1_655 S
O1 C10 1.233 1_655 S
O2 In0 2.329 . S
O2 C10 1.265 . S
C3 O6 1.252 1_556 S
C3 O7 1.260 . S
C4 O11 1.240 . S
C4 O12 1.252 . S
C5 O8 1.252 . S
C5 O9 1.272 1_455 S
O6 In0 2.223 1_655 S
O6 C3 1.252 1_554 S
O7 In0 2.340 1_656 S
O7 C3 1.260 . S
O8 In0 2.285 1_556 S
O8 C5 1.252 . S
O9 In0 2.266 1_656 S
O9 C5 1.272 1_655 S
C10 O1 1.233 1_455 S
C10 O2 1.265 . S
O11 In0 2.364 . S
O11 C4 1.240 . S
O12 In0 2.361 . S
O12 C4 1.252 . S
In13 O14 2.294 . S
In13 O15 2.326 . S
In13 O19 2.266 . S
In13 O20 2.326 . S
In13 O21 2.266 . S
In13 O22 2.326 . S
In13 O24 2.294 . S
In13 O25 2.326 . S
O14 In13 2.294 . S
O14 C23 1.240 . S
O15 In13 2.326 . S
O15 C23 1.252 . S
C16 O19 1.252 . S
C16 O20 1.260 . S
C17 O24 1.240 . S
C17 O25 1.252 . S
C18 O21 1.252 . S
C18 O22 1.260 . S
O19 In13 2.266 . S
O19 C16 1.252 . S
O20 In13 2.326 . S
O20 C16 1.260 . S
O21 In13 2.266 . S
O21 C18 1.252 . S
O22 In13 2.326 . S
O22 C18 1.260 . S
C23 O14 1.240 . S
C23 O15 1.252 . S
O24 In13 2.294 . S
O24 C17 1.240 . S
O25 In13 2.326 . S
O25 C17 1.252 . S
In26 O27 2.308 . S
In26 O28 2.334 1_554 S
In26 O32 2.269 . S
In26 O33 2.316 1_545 S
In26 O34 2.258 1_545 S
In26 O35 2.328 1_545 S
In26 O37 2.286 1_544 S
In26 O38 2.329 1_554 S
O27 In26 2.308 . S
O27 C36 1.286 . S
O28 In26 2.334 1_556 S
O28 C36 1.240 1_556 S
C29 O32 1.252 . S
C29 O33 1.260 1_545 S
C30 O37 1.240 . S
C30 O38 1.251 1_565 S
C31 O34 1.252 . S
C31 O35 1.260 . S
O32 In26 2.269 . S
O32 C29 1.252 . S
O33 In26 2.316 1_565 S
O33 C29 1.260 1_565 S
O34 In26 2.258 1_565 S
O34 C31 1.252 . S
O35 In26 2.328 1_565 S
O35 C31 1.260 . S
C36 O27 1.286 . S
C36 O28 1.240 1_554 S
O37 In26 2.286 1_566 S
O37 C30 1.240 . S
O38 In26 2.329 1_556 S
O38 C30 1.251 1_545 S
In39 O40 2.292 . S
In39 O41 2.326 1_455 S
In39 O45 2.265 . S
In39 O46 2.326 . S
In39 O47 2.267 1_455 S
In39 O48 2.324 . S
In39 O50 2.296 1_455 S
In39 O51 2.327 1_455 S
O40 In39 2.292 . S
O40 C49 1.260 . S
O41 In39 2.326 1_655 S
O41 C49 1.215 1_655 S
C42 O45 1.252 . S
C42 O46 1.260 . S
C43 O50 1.240 . S
C43 O51 1.252 . S
C44 O47 1.317 . S
C44 O48 1.210 1_655 S
O45 In39 2.265 . S
O45 C42 1.252 . S
O46 In39 2.326 . S
O46 C42 1.260 . S
O47 In39 2.267 1_655 S
O47 C44 1.317 . S
O48 In39 2.324 . S
O48 C44 1.210 1_455 S
C49 O40 1.260 . S
C49 O41 1.215 1_455 S
O50 In39 2.296 1_655 S
O50 C43 1.240 . S
O51 In39 2.327 1_655 S
O51 C43 1.252 . S
In52 O53 2.294 1_554 S
In52 O54 2.326 1_554 S
In52 O58 2.266 . S
In52 O59 2.326 . S
In52 O60 2.266 . S
In52 O61 2.326 . S
In52 O63 2.294 1_554 S
In52 O64 2.326 1_554 S
O53 In52 2.294 1_556 S
O53 C62 1.240 . S
O54 In52 2.326 1_556 S
O54 C62 1.252 . S
C55 O58 1.252 . S
C55 O59 1.260 . S
C56 O63 1.240 . S
C56 O64 1.252 . S
C57 O60 1.252 . S
C57 O61 1.260 . S
O58 In52 2.266 . S
O58 C55 1.252 . S
O59 In52 2.326 . S
O59 C55 1.260 . S
O60 In52 2.266 . S
O60 C57 1.252 . S
O61 In52 2.326 . S
O61 C57 1.260 . S
C62 O53 1.240 . S
C62 O54 1.252 . S
O63 In52 2.294 1_556 S
O63 C56 1.240 . S
O64 In52 2.326 1_556 S
O64 C56 1.252 . S
In65 O66 2.293 . S
In65 O67 2.326 1_545 S
In65 O71 2.265 . S
In65 O72 2.326 . S
In65 O73 2.267 1_545 S
In65 O74 2.324 . S
In65 O76 2.296 1_545 S
In65 O77 2.327 1_545 S
O66 In65 2.293 . S
O66 C75 1.240 . S
O67 In65 2.326 1_565 S
O67 C75 1.252 1_565 S
C68 O71 1.252 . S
C68 O72 1.260 . S
C69 O76 1.240 . S
C69 O77 1.252 . S
C70 O73 1.252 . S
C70 O74 1.260 1_565 S
O71 In65 2.265 . S
O71 C68 1.252 . S
O72 In65 2.326 . S
O72 C68 1.260 . S
O73 In65 2.267 1_565 S
O73 C70 1.252 . S
O74 In65 2.324 . S
O74 C70 1.260 1_545 S
C75 O66 1.240 . S
C75 O67 1.252 1_545 S
O76 In65 2.296 1_565 S
O76 C69 1.240 . S
O77 In65 2.327 1_565 S
O77 C69 1.252 . S
In78 O79 2.294 . S
In78 O80 2.326 . S
In78 O84 2.266 . S
In78 O85 2.326 . S
In78 O86 2.266 . S
In78 O87 2.326 . S
In78 O89 2.294 . S
In78 O90 2.326 . S
O79 In78 2.294 . S
O79 C88 1.240 . S
O80 In78 2.326 . S
O80 C88 1.252 . S
C81 O84 1.252 . S
C81 O85 1.260 . S
C82 O89 1.240 . S
C82 O90 1.252 . S
C83 O86 1.252 . S
C83 O87 1.260 . S
O84 In78 2.266 . S
O84 C81 1.252 . S
O85 In78 2.326 . S
O85 C81 1.260 . S
O86 In78 2.266 . S
O86 C83 1.252 . S
O87 In78 2.326 . S
O87 C83 1.260 . S
C88 O79 1.240 . S
C88 O80 1.252 . S
O89 In78 2.294 . S
O89 C82 1.240 . S
O90 In78 2.326 . S
O90 C82 1.252 . S
In91 O92 2.294 . S
In91 O93 2.326 . S
In91 O97 2.266 . S
In91 O98 2.326 . S
In91 O99 2.266 . S
In91 O100 2.326 . S
In91 O102 2.294 . S
In91 O103 2.326 . S
O92 In91 2.294 . S
O92 C101 1.240 . S
O93 In91 2.326 . S
O93 C101 1.252 . S
C94 O97 1.252 . S
C94 O98 1.260 . S
C95 O102 1.240 . S
C95 O103 1.252 . S
C96 O99 1.252 . S
C96 O100 1.260 . S
O97 In91 2.266 . S
O97 C94 1.252 . S
O98 In91 2.326 . S
O98 C94 1.260 . S
O99 In91 2.266 . S
O99 C96 1.252 . S
O100 In91 2.326 . S
O100 C96 1.260 . S
C101 O92 1.240 . S
C101 O93 1.252 . S
O102 In91 2.294 . S
O102 C95 1.240 . S
O103 In91 2.326 . S
O103 C95 1.252 . S
In104 O105 2.294 . S
In104 O106 2.326 . S
In104 O110 2.266 . S
In104 O111 2.326 . S
In104 O112 2.266 . S
In104 O113 2.326 . S
In104 O115 2.294 . S
In104 O116 2.326 . S
O105 In104 2.294 . S
O105 C114 1.240 . S
O106 In104 2.326 . S
O106 C114 1.252 . S
C107 O110 1.252 . S
C107 O111 1.260 . S
C108 O115 1.240 . S
C108 O116 1.252 . S
C109 O112 1.252 . S
C109 O113 1.260 . S
O110 In104 2.266 . S
O110 C107 1.252 . S
O111 In104 2.326 . S
O111 C107 1.260 . S
O112 In104 2.266 . S
O112 C109 1.252 . S
O113 In104 2.326 . S
O113 C109 1.260 . S
C114 O105 1.240 . S
C114 O106 1.252 . S
O115 In104 2.294 . S
O115 C108 1.240 . S
O116 In104 2.326 . S
O116 C108 1.252 . S
In117 O118 2.294 . S
In117 O119 2.326 . S
In117 O123 2.266 . S
In117 O124 2.326 . S
In117 O125 2.266 . S
In117 O126 2.326 . S
In117 O128 2.294 . S
In117 O129 2.326 . S
O118 In117 2.294 . S
O118 C127 1.240 . S
O119 In117 2.326 . S
O119 C127 1.252 . S
C120 O123 1.252 . S
C120 O124 1.260 . S
C121 O128 1.240 . S
C121 O129 1.252 . S
C122 O125 1.252 . S
C122 O126 1.260 . S
O123 In117 2.266 . S
O123 C120 1.252 . S
O124 In117 2.326 . S
O124 C120 1.260 . S
O125 In117 2.266 . S
O125 C122 1.252 . S
O126 In117 2.326 . S
O126 C122 1.260 . S
C127 O118 1.240 . S
C127 O119 1.252 . S
O128 In117 2.294 . S
O128 C121 1.240 . S
O129 In117 2.326 . S
O129 C121 1.252 . S
In130 O131 2.294 . S
In130 O132 2.326 . S
In130 O136 2.266 . S
In130 O137 2.326 . S
In130 O138 2.266 . S
In130 O139 2.326 . S
In130 O141 2.294 . S
In130 O142 2.326 . S
O131 In130 2.294 . S
O131 C140 1.240 . S
O132 In130 2.326 . S
O132 C140 1.252 . S
C133 O136 1.252 . S
C133 O137 1.260 . S
C134 O141 1.240 . S
C134 O142 1.252 . S
C135 O138 1.252 . S
C135 O139 1.260 . S
O136 In130 2.266 . S
O136 C133 1.252 . S
O137 In130 2.326 . S
O137 C133 1.260 . S
O138 In130 2.266 . S
O138 C135 1.252 . S
O139 In130 2.326 . S
O139 C135 1.260 . S
C140 O131 1.240 . S
C140 O132 1.252 . S
O141 In130 2.294 . S
O141 C134 1.240 . S
O142 In130 2.326 . S
O142 C134 1.252 . S
In143 O144 2.294 . S
In143 O145 2.326 . S
In143 O149 2.266 . S
In143 O150 2.326 . S
In143 O151 2.266 . S
In143 O152 2.326 . S
In143 O154 2.294 . S
In143 O155 2.326 . S
O144 In143 2.294 . S
O144 C153 1.240 . S
O145 In143 2.326 . S
O145 C153 1.252 . S
C146 O149 1.252 . S
C146 O150 1.260 . S
C147 O154 1.240 . S
C147 O155 1.252 . S
C148 O151 1.252 . S
C148 O152 1.260 . S
O149 In143 2.266 . S
O149 C146 1.252 . S
O150 In143 2.326 . S
O150 C146 1.260 . S
O151 In143 2.266 . S
O151 C148 1.252 . S
O152 In143 2.326 . S
O152 C148 1.260 . S
C153 O144 1.240 . S
C153 O145 1.252 . S
O154 In143 2.294 . S
O154 C147 1.240 . S
O155 In143 2.326 . S
O155 C147 1.252 . S
In156 O157 2.294 . S
In156 O158 2.326 . S
In156 O162 2.266 . S
In156 O163 2.326 . S
In156 O164 2.266 . S
In156 O165 2.326 . S
In156 O167 2.294 . S
In156 O168 2.326 . S
O157 In156 2.294 . S
O157 C166 1.240 . S
O158 In156 2.326 . S
O158 C166 1.252 . S
C159 O162 1.252 . S
C159 O163 1.260 . S
C160 O167 1.240 . S
C160 O168 1.252 . S
C161 O164 1.252 . S
C161 O165 1.260 . S
O162 In156 2.266 . S
O162 C159 1.252 . S
O163 In156 2.326 . S
O163 C159 1.260 . S
O164 In156 2.266 . S
O164 C161 1.252 . S
O165 In156 2.326 . S
O165 C161 1.260 . S
C166 O157 1.240 . S
C166 O158 1.252 . S
O167 In156 2.294 . S
O167 C160 1.240 . S
O168 In156 2.326 . S
O168 C160 1.252 . S
In169 O170 2.294 . S
In169 O171 2.326 . S
In169 O175 2.266 . S
In169 O176 2.326 . S
In169 O177 2.266 . S
In169 O178 2.326 . S
In169 O180 2.294 . S
In169 O181 2.326 . S
O170 In169 2.294 . S
O170 C179 1.240 . S
O171 In169 2.326 . S
O171 C179 1.252 . S
C172 O175 1.252 . S
C172 O176 1.260 . S
C173 O180 1.240 . S
C173 O181 1.252 . S
C174 O177 1.252 . S
C174 O178 1.260 . S
O175 In169 2.266 . S
O175 C172 1.252 . S
O176 In169 2.326 . S
O176 C172 1.260 . S
O177 In169 2.266 . S
O177 C174 1.252 . S
O178 In169 2.326 . S
O178 C174 1.260 . S
C179 O170 1.240 . S
C179 O171 1.252 . S
O180 In169 2.294 . S
O180 C173 1.240 . S
O181 In169 2.326 . S
O181 C173 1.252 . S
In182 O183 2.294 . S
In182 O184 2.326 . S
In182 O188 2.266 . S
In182 O189 2.326 . S
In182 O190 2.266 . S
In182 O191 2.326 . S
In182 O193 2.294 . S
In182 O194 2.326 . S
O183 In182 2.294 . S
O183 C192 1.240 . S
O184 In182 2.326 . S
O184 C192 1.252 . S
C185 O188 1.252 . S
C185 O189 1.260 . S
C186 O193 1.240 . S
C186 O194 1.252 . S
C187 O190 1.252 . S
C187 O191 1.260 . S
O188 In182 2.266 . S
O188 C185 1.252 . S
O189 In182 2.326 . S
O189 C185 1.260 . S
O190 In182 2.266 . S
O190 C187 1.252 . S
O191 In182 2.326 . S
O191 C187 1.260 . S
C192 O183 1.240 . S
C192 O184 1.252 . S
O193 In182 2.294 . S
O193 C186 1.240 . S
O194 In182 2.326 . S
O194 C186 1.252 . S
In195 O196 2.294 . S
In195 O197 2.326 . S
In195 O201 2.266 . S
In195 O202 2.326 . S
In195 O203 2.266 . S
In195 O204 2.326 . S
In195 O206 2.294 . S
In195 O207 2.326 . S
O196 In195 2.294 . S
O196 C205 1.240 . S
O197 In195 2.326 . S
O197 C205 1.252 . S
C198 O201 1.252 . S
C198 O202 1.260 . S
C199 O206 1.240 . S
C199 O207 1.252 . S
C200 O203 1.252 . S
C200 O204 1.260 . S
O201 In195 2.266 . S
O201 C198 1.252 . S
O202 In195 2.326 . S
O202 C198 1.260 . S
O203 In195 2.266 . S
O203 C200 1.252 . S
O204 In195 2.326 . S
O204 C200 1.260 . S
C205 O196 1.240 . S
C205 O197 1.252 . S
O206 In195 2.294 . S
O206 C199 1.240 . S
O207 In195 2.326 . S
O207 C199 1.252 . S
In208 O209 2.294 . S
In208 O210 2.326 . S
In208 O214 2.266 . S
In208 O215 2.326 . S
In208 O216 2.266 . S
In208 O217 2.326 . S
In208 O219 2.294 . S
In208 O220 2.326 . S
O209 In208 2.294 . S
O209 C218 1.240 . S
O210 In208 2.326 . S
O210 C218 1.252 . S
C211 O214 1.252 . S
C211 O215 1.260 . S
C212 O219 1.240 . S
C212 O220 1.252 . S
C213 O216 1.252 . S
C213 O217 1.260 . S
O214 In208 2.266 . S
O214 C211 1.252 . S
O215 In208 2.326 . S
O215 C211 1.260 . S
O216 In208 2.266 . S
O216 C213 1.252 . S
O217 In208 2.326 . S
O217 C213 1.260 . S
C218 O209 1.240 . S
C218 O210 1.252 . S
O219 In208 2.294 . S
O219 C212 1.240 . S
O220 In208 2.326 . S
O220 C212 1.252 . S
In221 O222 2.294 . S
In221 O223 2.326 . S
In221 O227 2.266 . S
In221 O228 2.326 . S
In221 O229 2.266 . S
In221 O230 2.326 . S
In221 O232 2.294 . S
In221 O233 2.326 . S
O222 In221 2.294 . S
O222 C231 1.240 . S
O223 In221 2.326 . S
O223 C231 1.252 . S
C224 O227 1.252 . S
C224 O228 1.260 . S
C225 O232 1.240 . S
C225 O233 1.252 . S
C226 O229 1.252 . S
C226 O230 1.260 . S
O227 In221 2.266 . S
O227 C224 1.252 . S
O228 In221 2.326 . S
O228 C224 1.260 . S
O229 In221 2.266 . S
O229 C226 1.252 . S
O230 In221 2.326 . S
O230 C226 1.260 . S
C231 O222 1.240 . S
C231 O223 1.252 . S
O232 In221 2.294 . S
O232 C225 1.240 . S
O233 In221 2.326 . S
O233 C225 1.252 . S
H234 O260 0.856 . S
H235 O263 0.854 . S
H236 C271 0.930 . S
H237 C272 0.930 . S
H238 C274 0.930 . S
H239 C275 0.930 . S
H240 C277 0.931 . S
H241 C278 0.930 . S
H242 C280 0.930 . S
H243 C281 0.929 . S
H244 C283 0.930 . S
H245 C284 0.931 . S
H246 C286 0.930 . S
H247 C287 0.929 . S
H248 C289 0.931 . S
H249 C290 0.930 . S
H250 C292 0.930 . S
H251 C293 0.932 . S
H252 C295 0.930 . S
H253 C296 0.929 . S
H254 C298 0.931 . S
H255 C299 0.930 . S
H256 C301 0.929 . S
H257 C302 0.931 . S
H258 C304 0.930 . S
H259 C305 0.929 . S
O260 H234 0.856 . S
O260 C306 1.300 . S
O261 C306 1.209 . S
O262 C307 1.199 . S
O263 H235 0.854 . S
O263 C307 1.297 . S
C264 C265 1.404 . S
C264 C269 1.397 . S
C264 C270 1.492 . S
C265 C264 1.404 . S
C265 C266 1.396 . S
C265 C276 1.492 . S
C266 C265 1.396 . S
C266 C267 1.397 . S
C266 C282 1.509 . S
C267 C266 1.397 . S
C267 C268 1.412 . S
C267 C288 1.485 . S
C268 C267 1.412 . S
C268 C269 1.388 . S
C268 C294 1.490 . S
C269 C264 1.397 . S
C269 C268 1.388 . S
C269 C300 1.519 . S
C270 C264 1.492 . S
C270 C271 1.363 . S
C270 C275 1.390 . S
C271 H236 0.930 . S
C271 C270 1.363 . S
C271 C272 1.372 . S
C272 H237 0.930 . S
C272 C271 1.372 . S
C272 C273 1.383 . S
C273 C272 1.383 . S
C273 C274 1.395 . S
C274 H238 0.930 . S
C274 C273 1.395 . S
C274 C275 1.362 . S
C275 H239 0.930 . S
C275 C270 1.390 . S
C275 C274 1.362 . S
C276 C265 1.492 . S
C276 C277 1.377 . S
C276 C281 1.397 . S
C277 H240 0.931 . S
C277 C276 1.377 . S
C277 C278 1.376 . S
C278 H241 0.930 . S
C278 C277 1.376 . S
C278 C279 1.376 . S
C279 C278 1.376 . S
C279 C280 1.378 . S
C279 C306 1.486 . S
C280 H242 0.930 . S
C280 C279 1.378 . S
C280 C281 1.376 . S
C281 H243 0.929 . S
C281 C276 1.397 . S
C281 C280 1.376 . S
C282 C266 1.509 . S
C282 C283 1.391 . S
C282 C287 1.386 . S
C283 H244 0.930 . S
C283 C282 1.391 . S
C283 C284 1.375 . S
C284 H245 0.931 . S
C284 C283 1.375 . S
C284 C285 1.375 . S
C285 C284 1.375 . S
C285 C286 1.361 . S
C286 H246 0.930 . S
C286 C285 1.361 . S
C286 C287 1.399 . S
C287 H247 0.929 . S
C287 C282 1.386 . S
C287 C286 1.399 . S
C288 C267 1.485 . S
C288 C289 1.394 . S
C288 C293 1.360 . S
C289 H248 0.931 . S
C289 C288 1.394 . S
C289 C290 1.372 . S
C290 H249 0.930 . S
C290 C289 1.372 . S
C290 C291 1.397 . S
C291 C290 1.397 . S
C291 C292 1.390 . S
C291 C307 1.476 . S
C292 H250 0.930 . S
C292 C291 1.390 . S
C292 C293 1.366 . S
C293 H251 0.932 . S
C293 C288 1.360 . S
C293 C292 1.366 . S
C294 C268 1.490 . S
C294 C295 1.380 . S
C294 C299 1.386 . S
C295 H252 0.930 . S
C295 C294 1.380 . S
C295 C296 1.381 . S
C296 H253 0.929 . S
C296 C295 1.381 . S
C296 C297 1.371 . S
C297 C296 1.371 . S
C297 C298 1.380 . S
C298 H254 0.931 . S
C298 C297 1.380 . S
C298 C299 1.387 . S
C299 H255 0.930 . S
C299 C294 1.386 . S
C299 C298 1.387 . S
C300 C269 1.519 . S
C300 C301 1.377 . S
C300 C305 1.361 . S
C301 H256 0.929 . S
C301 C300 1.377 . S
C301 C302 1.386 . S
C302 H257 0.931 . S
C302 C301 1.386 . S
C302 C303 1.363 . S
C303 C302 1.363 . S
C303 C304 1.385 . S
C304 H258 0.930 . S
C304 C303 1.385 . S
C304 C305 1.396 . S
C305 H259 0.929 . S
C305 C300 1.361 . S
C305 C304 1.396 . S
C306 O260 1.300 . S
C306 O261 1.209 . S
C306 C279 1.486 . S
C307 O262 1.199 . S
C307 O263 1.297 . S
C307 C291 1.476 . S
H308 O334 0.856 . S
H309 O337 0.854 . S
H310 C345 0.930 . S
H311 C346 0.930 . S
H312 C348 0.930 . S
H313 C349 0.930 . S
H314 C351 0.931 . S
H315 C352 0.930 . S
H316 C354 0.930 . S
H317 C355 0.929 . S
H318 C357 0.930 . S
H319 C358 0.931 . S
H320 C360 0.930 . S
H321 C361 0.929 . S
H322 C363 0.931 . S
H323 C364 0.930 . S
H324 C366 0.930 . S
H325 C367 0.932 . S
H326 C369 0.930 . S
H327 C370 0.929 . S
H328 C372 0.931 . S
H329 C373 0.930 . S
H330 C375 0.929 . S
H331 C376 0.931 . S
H332 C378 0.930 . S
H333 C379 0.929 . S
O334 H308 0.856 . S
O334 C380 1.300 . S
O335 C380 1.209 . S
O336 C381 1.199 . S
O337 H309 0.854 . S
O337 C381 1.297 . S
C338 C339 1.404 . S
C338 C343 1.397 . S
C338 C344 1.492 . S
C339 C338 1.404 . S
C339 C340 1.396 . S
C339 C350 1.492 . S
C340 C339 1.396 . S
C340 C341 1.397 . S
C340 C356 1.509 . S
C341 C340 1.397 . S
C341 C342 1.412 . S
C341 C362 1.485 . S
C342 C341 1.412 . S
C342 C343 1.388 . S
C342 C368 1.490 . S
C343 C338 1.397 . S
C343 C342 1.388 . S
C343 C374 1.519 . S
C344 C338 1.492 . S
C344 C345 1.363 . S
C344 C349 1.390 . S
C345 H310 0.930 . S
C345 C344 1.363 . S
C345 C346 1.372 . S
C346 H311 0.930 . S
C346 C345 1.372 . S
C346 C347 1.383 . S
C347 C346 1.383 . S
C347 C348 1.395 . S
C348 H312 0.930 . S
C348 C347 1.395 . S
C348 C349 1.362 . S
C349 H313 0.930 . S
C349 C344 1.390 . S
C349 C348 1.362 . S
C350 C339 1.492 . S
C350 C351 1.377 . S
C350 C355 1.397 . S
C351 H314 0.931 . S
C351 C350 1.377 . S
C351 C352 1.376 . S
C352 H315 0.930 . S
C352 C351 1.376 . S
C352 C353 1.376 . S
C353 C352 1.376 . S
C353 C354 1.378 . S
C353 C380 1.486 . S
C354 H316 0.930 . S
C354 C353 1.378 . S
C354 C355 1.376 . S
C355 H317 0.929 . S
C355 C350 1.397 . S
C355 C354 1.376 . S
C356 C340 1.509 . S
C356 C357 1.391 . S
C356 C361 1.386 . S
C357 H318 0.930 . S
C357 C356 1.391 . S
C357 C358 1.375 . S
C358 H319 0.931 . S
C358 C357 1.375 . S
C358 C359 1.375 . S
C359 C358 1.375 . S
C359 C360 1.361 . S
C360 H320 0.930 . S
C360 C359 1.361 . S
C360 C361 1.399 . S
C361 H321 0.929 . S
C361 C356 1.386 . S
C361 C360 1.399 . S
C362 C341 1.485 . S
C362 C363 1.394 . S
C362 C367 1.360 . S
C363 H322 0.931 . S
C363 C362 1.394 . S
C363 C364 1.372 . S
C364 H323 0.930 . S
C364 C363 1.372 . S
C364 C365 1.397 . S
C365 C364 1.397 . S
C365 C366 1.390 . S
C365 C381 1.476 . S
C366 H324 0.930 . S
C366 C365 1.390 . S
C366 C367 1.366 . S
C367 H325 0.932 . S
C367 C362 1.360 . S
C367 C366 1.366 . S
C368 C342 1.490 . S
C368 C369 1.380 . S
C368 C373 1.386 . S
C369 H326 0.930 . S
C369 C368 1.380 . S
C369 C370 1.381 . S
C370 H327 0.929 . S
C370 C369 1.381 . S
C370 C371 1.371 . S
C371 C370 1.371 . S
C371 C372 1.380 . S
C372 H328 0.931 . S
C372 C371 1.380 . S
C372 C373 1.387 . S
C373 H329 0.930 . S
C373 C368 1.386 . S
C373 C372 1.387 . S
C374 C343 1.519 . S
C374 C375 1.377 . S
C374 C379 1.361 . S
C375 H330 0.929 . S
C375 C374 1.377 . S
C375 C376 1.386 . S
C376 H331 0.931 . S
C376 C375 1.386 . S
C376 C377 1.363 . S
C377 C376 1.363 . S
C377 C378 1.385 . S
C378 H332 0.930 . S
C378 C377 1.385 . S
C378 C379 1.396 . S
C379 H333 0.929 . S
C379 C374 1.361 . S
C379 C378 1.396 . S
C380 O334 1.300 . S
C380 O335 1.209 . S
C380 C353 1.486 . S
C381 O336 1.199 . S
C381 O337 1.297 . S
C381 C365 1.476 . S
H382 O408 0.856 . S
H383 O411 0.854 . S
H384 C419 0.930 . S
H385 C420 0.930 . S
H386 C422 0.930 . S
H387 C423 0.930 . S
H388 C425 0.931 . S
H389 C426 0.930 . S
H390 C428 0.930 . S
H391 C429 0.929 . S
H392 C431 0.930 . S
H393 C432 0.931 . S
H394 C434 0.930 . S
H395 C435 0.929 . S
H396 C437 0.931 . S
H397 C438 0.930 . S
H398 C440 0.930 . S
H399 C441 0.932 . S
H400 C443 0.930 . S
H401 C444 0.929 . S
H402 C446 0.931 . S
H403 C447 0.930 . S
H404 C449 0.929 . S
H405 C450 0.931 . S
H406 C452 0.930 . S
H407 C453 0.929 . S
O408 H382 0.856 . S
O408 C454 1.300 . S
O409 C454 1.209 . S
O410 C455 1.199 . S
O411 H383 0.854 . S
O411 C455 1.297 . S
C412 C413 1.404 . S
C412 C417 1.397 . S
C412 C418 1.492 . S
C413 C412 1.404 . S
C413 C414 1.396 . S
C413 C424 1.492 . S
C414 C413 1.396 . S
C414 C415 1.397 . S
C414 C430 1.509 . S
C415 C414 1.397 . S
C415 C416 1.412 . S
C415 C436 1.485 . S
C416 C415 1.412 . S
C416 C417 1.388 . S
C416 C442 1.490 . S
C417 C412 1.397 . S
C417 C416 1.388 . S
C417 C448 1.519 . S
C418 C412 1.492 . S
C418 C419 1.363 . S
C418 C423 1.390 . S
C419 H384 0.930 . S
C419 C418 1.363 . S
C419 C420 1.372 . S
C420 H385 0.930 . S
C420 C419 1.372 . S
C420 C421 1.383 . S
C421 C420 1.383 . S
C421 C422 1.395 . S
C422 H386 0.930 . S
C422 C421 1.395 . S
C422 C423 1.362 . S
C423 H387 0.930 . S
C423 C418 1.390 . S
C423 C422 1.362 . S
C424 C413 1.492 . S
C424 C425 1.377 . S
C424 C429 1.397 . S
C425 H388 0.931 . S
C425 C424 1.377 . S
C425 C426 1.376 . S
C426 H389 0.930 . S
C426 C425 1.376 . S
C426 C427 1.376 . S
C427 C426 1.376 . S
C427 C428 1.378 . S
C427 C454 1.486 . S
C428 H390 0.930 . S
C428 C427 1.378 . S
C428 C429 1.376 . S
C429 H391 0.929 . S
C429 C424 1.397 . S
C429 C428 1.376 . S
C430 C414 1.509 . S
C430 C431 1.391 . S
C430 C435 1.386 . S
C431 H392 0.930 . S
C431 C430 1.391 . S
C431 C432 1.375 . S
C432 H393 0.931 . S
C432 C431 1.375 . S
C432 C433 1.375 . S
C433 C432 1.375 . S
C433 C434 1.361 . S
C434 H394 0.930 . S
C434 C433 1.361 . S
C434 C435 1.399 . S
C435 H395 0.929 . S
C435 C430 1.386 . S
C435 C434 1.399 . S
C436 C415 1.485 . S
C436 C437 1.394 . S
C436 C441 1.360 . S
C437 H396 0.931 . S
C437 C436 1.394 . S
C437 C438 1.372 . S
C438 H397 0.930 . S
C438 C437 1.372 . S
C438 C439 1.397 . S
C439 C438 1.397 . S
C439 C440 1.390 . S
C439 C455 1.476 . S
C440 H398 0.930 . S
C440 C439 1.390 . S
C440 C441 1.366 . S
C441 H399 0.932 . S
C441 C436 1.360 . S
C441 C440 1.366 . S
C442 C416 1.490 . S
C442 C443 1.380 . S
C442 C447 1.386 . S
C443 H400 0.930 . S
C443 C442 1.380 . S
C443 C444 1.381 . S
C444 H401 0.929 . S
C444 C443 1.381 . S
C444 C445 1.371 . S
C445 C444 1.371 . S
C445 C446 1.380 . S
C446 H402 0.931 . S
C446 C445 1.380 . S
C446 C447 1.387 . S
C447 H403 0.930 . S
C447 C442 1.386 . S
C447 C446 1.387 . S
C448 C417 1.519 . S
C448 C449 1.377 . S
C448 C453 1.361 . S
C449 H404 0.929 . S
C449 C448 1.377 . S
C449 C450 1.386 . S
C450 H405 0.931 . S
C450 C449 1.386 . S
C450 C451 1.363 . S
C451 C450 1.363 . S
C451 C452 1.385 . S
C452 H406 0.930 . S
C452 C451 1.385 . S
C452 C453 1.396 . S
C453 H407 0.929 . S
C453 C448 1.361 . S
C453 C452 1.396 . S
C454 O408 1.300 . S
C454 O409 1.209 . S
C454 C427 1.486 . S
C455 O410 1.199 . S
C455 O411 1.297 . S
C455 C439 1.476 . S
H456 O482 0.856 1_554 S
H457 O485 0.854 . S
H458 C493 0.930 . S
H459 C494 0.930 . S
H460 C496 0.930 . S
H461 C497 0.930 . S
H462 C499 0.931 . S
H463 C500 0.930 . S
H464 C502 0.930 . S
H465 C503 0.929 . S
H466 C505 0.930 . S
H467 C506 0.931 . S
H468 C508 0.930 . S
H469 C509 0.929 . S
H470 C511 0.931 . S
H471 C512 0.930 . S
H472 C514 0.930 . S
H473 C515 0.932 . S
H474 C517 0.930 . S
H475 C518 0.929 . S
H476 C520 0.931 . S
H477 C521 0.930 . S
H478 C523 0.929 . S
H479 C524 0.931 . S
H480 C526 0.930 . S
H481 C527 0.929 . S
O482 H456 0.856 1_556 S
O482 C528 1.300 . S
O483 C528 1.209 . S
O484 C529 1.199 . S
O485 H457 0.854 . S
O485 C529 1.297 . S
C486 C487 1.404 . S
C486 C491 1.397 . S
C486 C492 1.492 . S
C487 C486 1.404 . S
C487 C488 1.396 . S
C487 C498 1.492 . S
C488 C487 1.396 . S
C488 C489 1.397 . S
C488 C504 1.509 . S
C489 C488 1.397 . S
C489 C490 1.412 . S
C489 C510 1.485 . S
C490 C489 1.412 . S
C490 C491 1.388 . S
C490 C516 1.490 . S
C491 C486 1.397 . S
C491 C490 1.388 . S
C491 C522 1.519 . S
C492 C486 1.492 . S
C492 C493 1.363 . S
C492 C497 1.390 . S
C493 H458 0.930 . S
C493 C492 1.363 . S
C493 C494 1.372 . S
C494 H459 0.930 . S
C494 C493 1.372 . S
C494 C495 1.383 . S
C495 C494 1.383 . S
C495 C496 1.395 . S
C496 H460 0.930 . S
C496 C495 1.395 . S
C496 C497 1.362 . S
C497 H461 0.930 . S
C497 C492 1.390 . S
C497 C496 1.362 . S
C498 C487 1.492 . S
C498 C499 1.377 . S
C498 C503 1.397 . S
C499 H462 0.931 . S
C499 C498 1.377 . S
C499 C500 1.376 . S
C500 H463 0.930 . S
C500 C499 1.376 . S
C500 C501 1.376 . S
C501 C500 1.376 . S
C501 C502 1.378 . S
C501 C528 1.486 . S
C502 H464 0.930 . S
C502 C501 1.378 . S
C502 C503 1.376 . S
C503 H465 0.929 . S
C503 C498 1.397 . S
C503 C502 1.376 . S
C504 C488 1.509 . S
C504 C505 1.391 . S
C504 C509 1.386 . S
C505 H466 0.930 . S
C505 C504 1.391 . S
C505 C506 1.375 . S
C506 H467 0.931 . S
C506 C505 1.375 . S
C506 C507 1.375 . S
C507 C506 1.375 . S
C507 C508 1.361 . S
C508 H468 0.930 . S
C508 C507 1.361 . S
C508 C509 1.399 . S
C509 H469 0.929 . S
C509 C504 1.386 . S
C509 C508 1.399 . S
C510 C489 1.485 . S
C510 C511 1.394 . S
C510 C515 1.360 . S
C511 H470 0.931 . S
C511 C510 1.394 . S
C511 C512 1.372 . S
C512 H471 0.930 . S
C512 C511 1.372 . S
C512 C513 1.397 . S
C513 C512 1.397 . S
C513 C514 1.390 . S
C513 C529 1.476 . S
C514 H472 0.930 . S
C514 C513 1.390 . S
C514 C515 1.366 . S
C515 H473 0.932 . S
C515 C510 1.360 . S
C515 C514 1.366 . S
C516 C490 1.490 . S
C516 C517 1.380 . S
C516 C521 1.386 . S
C517 H474 0.930 . S
C517 C516 1.380 . S
C517 C518 1.381 . S
C518 H475 0.929 . S
C518 C517 1.381 . S
C518 C519 1.371 . S
C519 C518 1.371 . S
C519 C520 1.380 . S
C520 H476 0.931 . S
C520 C519 1.380 . S
C520 C521 1.387 . S
C521 H477 0.930 . S
C521 C516 1.386 . S
C521 C520 1.387 . S
C522 C491 1.519 . S
C522 C523 1.377 . S
C522 C527 1.361 . S
C523 H478 0.929 . S
C523 C522 1.377 . S
C523 C524 1.386 . S
C524 H479 0.931 . S
C524 C523 1.386 . S
C524 C525 1.363 . S
C525 C524 1.363 . S
C525 C526 1.385 . S
C526 H480 0.930 . S
C526 C525 1.385 . S
C526 C527 1.396 . S
C527 H481 0.929 . S
C527 C522 1.361 . S
C527 C526 1.396 . S
C528 O482 1.300 . S
C528 O483 1.209 . S
C528 C501 1.486 . S
C529 O484 1.199 . S
C529 O485 1.297 . S
C529 C513 1.476 . S
H530 O556 0.856 . S
H531 O559 0.854 . S
H532 C567 0.930 . S
H533 C568 0.930 . S
H534 C570 0.930 . S
H535 C571 0.930 . S
H536 C573 0.931 . S
H537 C574 0.930 . S
H538 C576 0.930 . S
H539 C577 0.929 . S
H540 C579 0.930 . S
H541 C580 0.931 . S
H542 C582 0.930 . S
H543 C583 0.929 . S
H544 C585 0.931 . S
H545 C586 0.930 . S
H546 C588 0.930 . S
H547 C589 0.932 . S
H548 C591 0.930 . S
H549 C592 0.929 . S
H550 C594 0.931 . S
H551 C595 0.930 . S
H552 C597 0.929 . S
H553 C598 0.931 . S
H554 C600 0.930 . S
H555 C601 0.929 . S
O556 H530 0.856 . S
O556 C602 1.300 1_554 S
O557 C602 1.209 1_554 S
O558 C603 1.199 . S
O559 H531 0.854 . S
O559 C603 1.297 . S
C560 C561 1.404 . S
C560 C565 1.397 . S
C560 C566 1.492 . S
C561 C560 1.404 . S
C561 C562 1.396 . S
C561 C572 1.492 . S
C562 C561 1.396 . S
C562 C563 1.397 . S
C562 C578 1.509 . S
C563 C562 1.397 . S
C563 C564 1.412 . S
C563 C584 1.485 . S
C564 C563 1.412 . S
C564 C565 1.388 . S
C564 C590 1.490 . S
C565 C560 1.397 . S
C565 C564 1.388 . S
C565 C596 1.519 . S
C566 C560 1.492 . S
C566 C567 1.363 . S
C566 C571 1.390 . S
C567 H532 0.930 . S
C567 C566 1.363 . S
C567 C568 1.372 . S
C568 H533 0.930 . S
C568 C567 1.372 . S
C568 C569 1.383 . S
C569 C568 1.383 . S
C569 C570 1.395 . S
C570 H534 0.930 . S
C570 C569 1.395 . S
C570 C571 1.362 . S
C571 H535 0.930 . S
C571 C566 1.390 . S
C571 C570 1.362 . S
C572 C561 1.492 . S
C572 C573 1.377 . S
C572 C577 1.397 . S
C573 H536 0.931 . S
C573 C572 1.377 . S
C573 C574 1.376 . S
C574 H537 0.930 . S
C574 C573 1.376 . S
C574 C575 1.376 . S
C575 C574 1.376 . S
C575 C576 1.378 . S
C575 C602 1.486 . S
C576 H538 0.930 . S
C576 C575 1.378 . S
C576 C577 1.376 . S
C577 H539 0.929 . S
C577 C572 1.397 . S
C577 C576 1.376 . S
C578 C562 1.509 . S
C578 C579 1.391 . S
C578 C583 1.386 . S
C579 H540 0.930 . S
C579 C578 1.391 . S
C579 C580 1.375 . S
C580 H541 0.931 . S
C580 C579 1.375 . S
C580 C581 1.375 . S
C581 C580 1.375 . S
C581 C582 1.361 . S
C582 H542 0.930 . S
C582 C581 1.361 . S
C582 C583 1.399 . S
C583 H543 0.929 . S
C583 C578 1.386 . S
C583 C582 1.399 . S
C584 C563 1.485 . S
C584 C585 1.394 . S
C584 C589 1.360 . S
C585 H544 0.931 . S
C585 C584 1.394 . S
C585 C586 1.372 . S
C586 H545 0.930 . S
C586 C585 1.372 . S
C586 C587 1.397 . S
C587 C586 1.397 . S
C587 C588 1.390 . S
C587 C603 1.476 . S
C588 H546 0.930 . S
C588 C587 1.390 . S
C588 C589 1.366 . S
C589 H547 0.932 . S
C589 C584 1.360 . S
C589 C588 1.366 . S
C590 C564 1.490 . S
C590 C591 1.380 . S
C590 C595 1.386 . S
C591 H548 0.930 . S
C591 C590 1.380 . S
C591 C592 1.381 . S
C592 H549 0.929 . S
C592 C591 1.381 . S
C592 C593 1.371 . S
C593 C592 1.371 . S
C593 C594 1.380 . S
C594 H550 0.931 . S
C594 C593 1.380 . S
C594 C595 1.387 . S
C595 H551 0.930 . S
C595 C590 1.386 . S
C595 C594 1.387 . S
C596 C565 1.519 . S
C596 C597 1.377 . S
C596 C601 1.361 . S
C597 H552 0.929 . S
C597 C596 1.377 . S
C597 C598 1.386 . S
C598 H553 0.931 . S
C598 C597 1.386 . S
C598 C599 1.363 . S
C599 C598 1.363 . S
C599 C600 1.385 . S
C600 H554 0.930 . S
C600 C599 1.385 . S
C600 C601 1.396 . S
C601 H555 0.929 . S
C601 C596 1.361 . S
C601 C600 1.396 . S
C602 O556 1.300 1_556 S
C602 O557 1.209 1_556 S
C602 C575 1.486 . S
C603 O558 1.199 . S
C603 O559 1.297 . S
C603 C587 1.476 . S
H604 O630 0.856 . S
H605 O633 0.854 . S
H606 C641 0.930 . S
H607 C642 0.930 . S
H608 C644 0.930 . S
H609 C645 0.930 . S
H610 C647 0.931 . S
H611 C648 0.930 . S
H612 C650 0.930 . S
H613 C651 0.929 . S
H614 C653 0.930 . S
H615 C654 0.931 . S
H616 C656 0.930 . S
H617 C657 0.929 . S
H618 C659 0.931 . S
H619 C660 0.930 . S
H620 C662 0.930 . S
H621 C663 0.932 . S
H622 C665 0.930 . S
H623 C666 0.929 . S
H624 C668 0.931 . S
H625 C669 0.930 . S
H626 C671 0.929 . S
H627 C672 0.931 . S
H628 C674 0.930 . S
H629 C675 0.929 . S
O630 H604 0.856 . S
O630 C676 1.300 . S
O631 C676 1.209 . S
O632 C677 1.199 . S
O633 H605 0.854 . S
O633 C677 1.297 . S
C634 C635 1.404 . S
C634 C639 1.397 . S
C634 C640 1.492 . S
C635 C634 1.404 . S
C635 C636 1.396 . S
C635 C646 1.492 . S
C636 C635 1.396 . S
C636 C637 1.397 . S
C636 C652 1.509 . S
C637 C636 1.397 . S
C637 C638 1.412 . S
C637 C658 1.485 . S
C638 C637 1.412 . S
C638 C639 1.388 . S
C638 C664 1.490 . S
C639 C634 1.397 . S
C639 C638 1.388 . S
C639 C670 1.519 . S
C640 C634 1.492 . S
C640 C641 1.363 . S
C640 C645 1.390 . S
C641 H606 0.930 . S
C641 C640 1.363 . S
C641 C642 1.372 . S
C642 H607 0.930 . S
C642 C641 1.372 . S
C642 C643 1.383 . S
C643 C642 1.383 . S
C643 C644 1.395 . S
C644 H608 0.930 . S
C644 C643 1.395 . S
C644 C645 1.362 . S
C645 H609 0.930 . S
C645 C640 1.390 . S
C645 C644 1.362 . S
C646 C635 1.492 . S
C646 C647 1.377 . S
C646 C651 1.397 . S
C647 H610 0.931 . S
C647 C646 1.377 . S
C647 C648 1.376 . S
C648 H611 0.930 . S
C648 C647 1.376 . S
C648 C649 1.376 . S
C649 C648 1.376 . S
C649 C650 1.378 . S
C649 C676 1.486 1_556 S
C650 H612 0.930 . S
C650 C649 1.378 . S
C650 C651 1.376 . S
C651 H613 0.929 . S
C651 C646 1.397 . S
C651 C650 1.376 . S
C652 C636 1.509 . S
C652 C653 1.391 . S
C652 C657 1.386 . S
C653 H614 0.930 . S
C653 C652 1.391 . S
C653 C654 1.375 . S
C654 H615 0.931 . S
C654 C653 1.375 . S
C654 C655 1.375 . S
C655 C654 1.375 . S
C655 C656 1.361 . S
C656 H616 0.930 . S
C656 C655 1.361 . S
C656 C657 1.399 . S
C657 H617 0.929 . S
C657 C652 1.386 . S
C657 C656 1.399 . S
C658 C637 1.485 . S
C658 C659 1.394 . S
C658 C663 1.360 . S
C659 H618 0.931 . S
C659 C658 1.394 . S
C659 C660 1.372 . S
C660 H619 0.930 . S
C660 C659 1.372 . S
C660 C661 1.397 . S
C661 C660 1.397 . S
C661 C662 1.390 . S
C661 C677 1.476 . S
C662 H620 0.930 . S
C662 C661 1.390 . S
C662 C663 1.366 . S
C663 H621 0.932 . S
C663 C658 1.360 . S
C663 C662 1.366 . S
C664 C638 1.490 . S
C664 C665 1.380 . S
C664 C669 1.386 . S
C665 H622 0.930 . S
C665 C664 1.380 . S
C665 C666 1.381 . S
C666 H623 0.929 . S
C666 C665 1.381 . S
C666 C667 1.371 . S
C667 C666 1.371 . S
C667 C668 1.380 . S
C668 H624 0.931 . S
C668 C667 1.380 . S
C668 C669 1.387 . S
C669 H625 0.930 . S
C669 C664 1.386 . S
C669 C668 1.387 . S
C670 C639 1.519 . S
C670 C671 1.377 . S
C670 C675 1.361 . S
C671 H626 0.929 . S
C671 C670 1.377 . S
C671 C672 1.386 . S
C672 H627 0.931 . S
C672 C671 1.386 . S
C672 C673 1.363 . S
C673 C672 1.363 . S
C673 C674 1.385 . S
C674 H628 0.930 . S
C674 C673 1.385 . S
C674 C675 1.396 . S
C675 H629 0.929 . S
C675 C670 1.361 . S
C675 C674 1.396 . S
C676 O630 1.300 . S
C676 O631 1.209 . S
C676 C649 1.486 1_554 S
C677 O632 1.199 . S
C677 O633 1.297 . S
C677 C661 1.476 . S
H678 O704 0.856 . S
H679 O707 0.854 . S
H680 C715 0.930 . S
H681 C716 0.930 . S
H682 C718 0.930 . S
H683 C719 0.930 . S
H684 C721 0.931 . S
H685 C722 0.930 . S
H686 C724 0.930 . S
H687 C725 0.929 . S
H688 C727 0.930 . S
H689 C728 0.931 . S
H690 C730 0.930 . S
H691 C731 0.929 . S
H692 C733 0.931 . S
H693 C734 0.930 . S
H694 C736 0.930 . S
H695 C737 0.932 . S
H696 C739 0.930 . S
H697 C740 0.929 . S
H698 C742 0.931 . S
H699 C743 0.930 . S
H700 C745 0.929 . S
H701 C746 0.931 . S
H702 C748 0.930 . S
H703 C749 0.929 . S
O704 H678 0.856 . S
O704 C750 1.300 . S
O705 C750 1.209 . S
O706 C751 1.199 . S
O707 H679 0.854 . S
O707 C751 1.297 . S
C708 C709 1.404 . S
C708 C713 1.397 . S
C708 C714 1.492 . S
C709 C708 1.404 . S
C709 C710 1.396 . S
C709 C720 1.492 . S
C710 C709 1.396 . S
C710 C711 1.397 . S
C710 C726 1.509 . S
C711 C710 1.397 . S
C711 C712 1.412 . S
C711 C732 1.485 . S
C712 C711 1.412 . S
C712 C713 1.388 . S
C712 C738 1.490 . S
C713 C708 1.397 . S
C713 C712 1.388 . S
C713 C744 1.519 . S
C714 C708 1.492 . S
C714 C715 1.363 . S
C714 C719 1.390 . S
C715 H680 0.930 . S
C715 C714 1.363 . S
C715 C716 1.372 . S
C716 H681 0.930 . S
C716 C715 1.372 . S
C716 C717 1.383 . S
C717 C716 1.383 . S
C717 C718 1.395 . S
C718 H682 0.930 . S
C718 C717 1.395 . S
C718 C719 1.362 . S
C719 H683 0.930 . S
C719 C714 1.390 . S
C719 C718 1.362 . S
C720 C709 1.492 . S
C720 C721 1.377 . S
C720 C725 1.397 . S
C721 H684 0.931 . S
C721 C720 1.377 . S
C721 C722 1.376 . S
C722 H685 0.930 . S
C722 C721 1.376 . S
C722 C723 1.376 . S
C723 C722 1.376 . S
C723 C724 1.378 . S
C723 C750 1.486 . S
C724 H686 0.930 . S
C724 C723 1.378 . S
C724 C725 1.376 . S
C725 H687 0.929 . S
C725 C720 1.397 . S
C725 C724 1.376 . S
C726 C710 1.509 . S
C726 C727 1.391 . S
C726 C731 1.386 . S
C727 H688 0.930 . S
C727 C726 1.391 . S
C727 C728 1.375 . S
C728 H689 0.931 . S
C728 C727 1.375 . S
C728 C729 1.375 . S
C729 C728 1.375 . S
C729 C730 1.361 . S
C730 H690 0.930 . S
C730 C729 1.361 . S
C730 C731 1.399 . S
C731 H691 0.929 . S
C731 C726 1.386 . S
C731 C730 1.399 . S
C732 C711 1.485 . S
C732 C733 1.394 . S
C732 C737 1.360 . S
C733 H692 0.931 . S
C733 C732 1.394 . S
C733 C734 1.372 . S
C734 H693 0.930 . S
C734 C733 1.372 . S
C734 C735 1.397 . S
C735 C734 1.397 . S
C735 C736 1.390 . S
C735 C751 1.476 . S
C736 H694 0.930 . S
C736 C735 1.390 . S
C736 C737 1.366 . S
C737 H695 0.932 . S
C737 C732 1.360 . S
C737 C736 1.366 . S
C738 C712 1.490 . S
C738 C739 1.380 . S
C738 C743 1.386 . S
C739 H696 0.930 . S
C739 C738 1.380 . S
C739 C740 1.381 . S
C740 H697 0.929 . S
C740 C739 1.381 . S
C740 C741 1.371 . S
C741 C740 1.371 . S
C741 C742 1.380 . S
C742 H698 0.931 . S
C742 C741 1.380 . S
C742 C743 1.387 . S
C743 H699 0.930 . S
C743 C738 1.386 . S
C743 C742 1.387 . S
C744 C713 1.519 . S
C744 C745 1.377 . S
C744 C749 1.361 . S
C745 H700 0.929 . S
C745 C744 1.377 . S
C745 C746 1.386 . S
C746 H701 0.931 . S
C746 C745 1.386 . S
C746 C747 1.363 . S
C747 C746 1.363 . S
C747 C748 1.385 . S
C748 H702 0.930 . S
C748 C747 1.385 . S
C748 C749 1.396 . S
C749 H703 0.929 . S
C749 C744 1.361 . S
C749 C748 1.396 . S
C750 O704 1.300 . S
C750 O705 1.209 . S
C750 C723 1.486 . S
C751 O706 1.199 . S
C751 O707 1.297 . S
C751 C735 1.476 . S
H752 O778 0.856 . S
H753 O781 0.854 . S
H754 C789 0.930 . S
H755 C790 0.930 . S
H756 C792 0.930 . S
H757 C793 0.930 . S
H758 C795 0.931 . S
H759 C796 0.930 . S
H760 C798 0.930 . S
H761 C799 0.929 . S
H762 C801 0.930 . S
H763 C802 0.931 . S
H764 C804 0.930 . S
H765 C805 0.929 . S
H766 C807 0.931 . S
H767 C808 0.930 . S
H768 C810 0.930 . S
H769 C811 0.932 . S
H770 C813 0.930 . S
H771 C814 0.929 . S
H772 C816 0.931 . S
H773 C817 0.930 . S
H774 C819 0.929 . S
H775 C820 0.931 . S
H776 C822 0.930 . S
H777 C823 0.929 . S
O778 H752 0.856 . S
O778 C824 1.300 . S
O779 C824 1.209 . S
O780 C825 1.199 . S
O781 H753 0.854 . S
O781 C825 1.297 . S
C782 C783 1.404 . S
C782 C787 1.397 . S
C782 C788 1.492 . S
C783 C782 1.404 . S
C783 C784 1.396 . S
C783 C794 1.492 . S
C784 C783 1.396 . S
C784 C785 1.397 . S
C784 C800 1.509 . S
C785 C784 1.397 . S
C785 C786 1.412 . S
C785 C806 1.485 . S
C786 C785 1.412 . S
C786 C787 1.388 . S
C786 C812 1.490 . S
C787 C782 1.397 . S
C787 C786 1.388 . S
C787 C818 1.519 . S
C788 C782 1.492 . S
C788 C789 1.363 . S
C788 C793 1.390 . S
C789 H754 0.930 . S
C789 C788 1.363 . S
C789 C790 1.372 . S
C790 H755 0.930 . S
C790 C789 1.372 . S
C790 C791 1.383 . S
C791 C790 1.383 . S
C791 C792 1.395 . S
C792 H756 0.930 . S
C792 C791 1.395 . S
C792 C793 1.362 . S
C793 H757 0.930 . S
C793 C788 1.390 . S
C793 C792 1.362 . S
C794 C783 1.492 . S
C794 C795 1.377 . S
C794 C799 1.397 . S
C795 H758 0.931 . S
C795 C794 1.377 . S
C795 C796 1.376 . S
C796 H759 0.930 . S
C796 C795 1.376 . S
C796 C797 1.376 . S
C797 C796 1.376 . S
C797 C798 1.378 . S
C797 C824 1.486 . S
C798 H760 0.930 . S
C798 C797 1.378 . S
C798 C799 1.376 . S
C799 H761 0.929 . S
C799 C794 1.397 . S
C799 C798 1.376 . S
C800 C784 1.509 . S
C800 C801 1.391 . S
C800 C805 1.386 . S
C801 H762 0.930 . S
C801 C800 1.391 . S
C801 C802 1.375 . S
C802 H763 0.931 . S
C802 C801 1.375 . S
C802 C803 1.375 . S
C803 C802 1.375 . S
C803 C804 1.361 . S
C804 H764 0.930 . S
C804 C803 1.361 . S
C804 C805 1.399 . S
C805 H765 0.929 . S
C805 C800 1.386 . S
C805 C804 1.399 . S
C806 C785 1.485 . S
C806 C807 1.394 . S
C806 C811 1.360 . S
C807 H766 0.931 . S
C807 C806 1.394 . S
C807 C808 1.372 . S
C808 H767 0.930 . S
C808 C807 1.372 . S
C808 C809 1.397 . S
C809 C808 1.397 . S
C809 C810 1.390 . S
C809 C825 1.476 . S
C810 H768 0.930 . S
C810 C809 1.390 . S
C810 C811 1.366 . S
C811 H769 0.932 . S
C811 C806 1.360 . S
C811 C810 1.366 . S
C812 C786 1.490 . S
C812 C813 1.380 . S
C812 C817 1.386 . S
C813 H770 0.930 . S
C813 C812 1.380 . S
C813 C814 1.381 . S
C814 H771 0.929 . S
C814 C813 1.381 . S
C814 C815 1.371 . S
C815 C814 1.371 . S
C815 C816 1.380 . S
C816 H772 0.931 . S
C816 C815 1.380 . S
C816 C817 1.387 . S
C817 H773 0.930 . S
C817 C812 1.386 . S
C817 C816 1.387 . S
C818 C787 1.519 . S
C818 C819 1.377 . S
C818 C823 1.361 . S
C819 H774 0.929 . S
C819 C818 1.377 . S
C819 C820 1.386 . S
C820 H775 0.931 . S
C820 C819 1.386 . S
C820 C821 1.363 . S
C821 C820 1.363 . S
C821 C822 1.385 . S
C822 H776 0.930 . S
C822 C821 1.385 . S
C822 C823 1.396 . S
C823 H777 0.929 . S
C823 C818 1.361 . S
C823 C822 1.396 . S
C824 O778 1.300 . S
C824 O779 1.209 . S
C824 C797 1.486 . S
C825 O780 1.199 . S
C825 O781 1.297 . S
C825 C809 1.476 . S
H826 O852 0.856 . S
H827 O855 0.854 . S
H828 C863 0.930 . S
H829 C864 0.930 . S
H830 C866 0.930 . S
H831 C867 0.930 . S
H832 C869 0.931 . S
H833 C870 0.930 . S
H834 C872 0.930 . S
H835 C873 0.929 . S
H836 C875 0.930 . S
H837 C876 0.931 . S
H838 C878 0.930 . S
H839 C879 0.929 . S
H840 C881 0.931 . S
H841 C882 0.930 . S
H842 C884 0.930 . S
H843 C885 0.932 . S
H844 C887 0.930 . S
H845 C888 0.929 . S
H846 C890 0.931 . S
H847 C891 0.930 . S
H848 C893 0.929 . S
H849 C894 0.931 . S
H850 C896 0.930 . S
H851 C897 0.929 . S
O852 H826 0.856 . S
O852 C898 1.300 . S
O853 C898 1.209 . S
O854 C899 1.199 . S
O855 H827 0.854 . S
O855 C899 1.297 . S
C856 C857 1.404 . S
C856 C861 1.397 . S
C856 C862 1.492 . S
C857 C856 1.404 . S
C857 C858 1.396 . S
C857 C868 1.492 . S
C858 C857 1.396 . S
C858 C859 1.397 . S
C858 C874 1.509 . S
C859 C858 1.397 . S
C859 C860 1.412 . S
C859 C880 1.485 . S
C860 C859 1.412 . S
C860 C861 1.388 . S
C860 C886 1.490 . S
C861 C856 1.397 . S
C861 C860 1.388 . S
C861 C892 1.519 . S
C862 C856 1.492 . S
C862 C863 1.363 . S
C862 C867 1.390 . S
C863 H828 0.930 . S
C863 C862 1.363 . S
C863 C864 1.372 . S
C864 H829 0.930 . S
C864 C863 1.372 . S
C864 C865 1.383 . S
C865 C864 1.383 . S
C865 C866 1.395 . S
C866 H830 0.930 . S
C866 C865 1.395 . S
C866 C867 1.362 . S
C867 H831 0.930 . S
C867 C862 1.390 . S
C867 C866 1.362 . S
C868 C857 1.492 . S
C868 C869 1.377 . S
C868 C873 1.397 . S
C869 H832 0.931 . S
C869 C868 1.377 . S
C869 C870 1.376 . S
C870 H833 0.930 . S
C870 C869 1.376 . S
C870 C871 1.376 . S
C871 C870 1.376 . S
C871 C872 1.378 . S
C871 C898 1.486 . S
C872 H834 0.930 . S
C872 C871 1.378 . S
C872 C873 1.376 . S
C873 H835 0.929 . S
C873 C868 1.397 . S
C873 C872 1.376 . S
C874 C858 1.509 . S
C874 C875 1.391 . S
C874 C879 1.386 . S
C875 H836 0.930 . S
C875 C874 1.391 . S
C875 C876 1.375 . S
C876 H837 0.931 . S
C876 C875 1.375 . S
C876 C877 1.375 . S
C877 C876 1.375 . S
C877 C878 1.361 . S
C878 H838 0.930 . S
C878 C877 1.361 . S
C878 C879 1.399 . S
C879 H839 0.929 . S
C879 C874 1.386 . S
C879 C878 1.399 . S
C880 C859 1.485 . S
C880 C881 1.394 . S
C880 C885 1.360 . S
C881 H840 0.931 . S
C881 C880 1.394 . S
C881 C882 1.372 . S
C882 H841 0.930 . S
C882 C881 1.372 . S
C882 C883 1.397 . S
C883 C882 1.397 . S
C883 C884 1.390 . S
C883 C899 1.476 . S
C884 H842 0.930 . S
C884 C883 1.390 . S
C884 C885 1.366 . S
C885 H843 0.932 . S
C885 C880 1.360 . S
C885 C884 1.366 . S
C886 C860 1.490 . S
C886 C887 1.380 . S
C886 C891 1.386 . S
C887 H844 0.930 . S
C887 C886 1.380 . S
C887 C888 1.381 . S
C888 H845 0.929 . S
C888 C887 1.381 . S
C888 C889 1.371 . S
C889 C888 1.371 . S
C889 C890 1.380 . S
C890 H846 0.931 . S
C890 C889 1.380 . S
C890 C891 1.387 . S
C891 H847 0.930 . S
C891 C886 1.386 . S
C891 C890 1.387 . S
C892 C861 1.519 . S
C892 C893 1.377 . S
C892 C897 1.361 . S
C893 H848 0.929 . S
C893 C892 1.377 . S
C893 C894 1.386 . S
C894 H849 0.931 . S
C894 C893 1.386 . S
C894 C895 1.363 . S
C895 C894 1.363 . S
C895 C896 1.385 . S
C896 H850 0.930 . S
C896 C895 1.385 . S
C896 C897 1.396 . S
C897 H851 0.929 . S
C897 C892 1.361 . S
C897 C896 1.396 . S
C898 O852 1.300 . S
C898 O853 1.209 . S
C898 C871 1.486 . S
C899 O854 1.199 . S
C899 O855 1.297 . S
C899 C883 1.476 . S
H900 O926 0.856 . S
H901 O929 0.854 . S
H902 C937 0.930 . S
H903 C938 0.930 . S
H904 C940 0.930 . S
H905 C941 0.930 . S
H906 C943 0.931 . S
H907 C944 0.930 1_655 S
H908 C946 0.930 . S
H909 C947 0.929 . S
H910 C949 0.930 . S
H911 C950 0.916 1_655 S
H912 C952 0.930 . S
H913 C953 0.929 . S
H914 C955 0.931 . S
H915 C956 0.930 . S
H916 C958 0.930 . S
H917 C959 0.932 . S
H918 C961 0.930 . S
H919 C962 0.929 . S
H920 C964 0.931 . S
H921 C965 0.930 . S
H922 C967 0.929 . S
H923 C968 0.931 . S
H924 C970 0.930 . S
H925 C971 0.929 . S
O926 H900 0.856 . S
O926 C972 1.300 . S
O927 C972 1.209 . S
O928 C973 1.199 1_655 S
O929 H901 0.854 . S
O929 C973 1.297 . S
C930 C931 1.404 . S
C930 C935 1.394 . S
C930 C936 1.492 . S
C931 C930 1.404 . S
C931 C932 1.396 . S
C931 C942 1.492 . S
C932 C931 1.396 . S
C932 C933 1.397 . S
C932 C948 1.509 . S
C933 C932 1.397 . S
C933 C934 1.421 . S
C933 C954 1.485 . S
C934 C933 1.421 . S
C934 C935 1.406 . S
C934 C960 1.490 1_455 S
C935 C930 1.394 . S
C935 C934 1.406 . S
C935 C966 1.489 1_455 S
C936 C930 1.492 . S
C936 C937 1.363 1_455 S
C936 C941 1.390 . S
C937 H902 0.930 . S
C937 C936 1.363 1_655 S
C937 C938 1.372 . S
C938 H903 0.930 . S
C938 C937 1.372 . S
C938 C939 1.383 . S
C939 C938 1.383 . S
C939 C940 1.395 1_655 S
C940 H904 0.930 . S
C940 C939 1.395 1_455 S
C940 C941 1.362 . S
C941 H905 0.930 . S
C941 C936 1.390 . S
C941 C940 1.362 . S
C942 C931 1.492 . S
C942 C943 1.377 1_455 S
C942 C947 1.397 . S
C943 H906 0.931 . S
C943 C942 1.377 1_655 S
C943 C944 1.376 1_655 S
C944 H907 0.930 1_455 S
C944 C943 1.376 1_455 S
C944 C945 1.376 . S
C945 C944 1.376 . S
C945 C946 1.378 . S
C945 C972 1.486 . S
C946 H908 0.930 . S
C946 C945 1.378 . S
C946 C947 1.376 . S
C947 H909 0.929 . S
C947 C942 1.397 . S
C947 C946 1.376 . S
C948 C932 1.509 . S
C948 C949 1.391 1_455 S
C948 C953 1.386 . S
C949 H910 0.930 . S
C949 C948 1.391 1_655 S
C949 C950 1.355 1_655 S
C950 H911 0.916 1_455 S
C950 C949 1.355 1_455 S
C950 C951 1.411 . S
C951 C950 1.411 . S
C951 C952 1.361 . S
C952 H912 0.930 . S
C952 C951 1.361 . S
C952 C953 1.399 . S
C953 H913 0.929 . S
C953 C948 1.386 . S
C953 C952 1.399 . S
C954 C933 1.485 . S
C954 C955 1.394 1_455 S
C954 C959 1.360 . S
C955 H914 0.931 . S
C955 C954 1.394 1_655 S
C955 C956 1.372 . S
C956 H915 0.930 . S
C956 C955 1.372 . S
C956 C957 1.397 1_655 S
C957 C956 1.397 1_455 S
C957 C958 1.390 . S
C957 C973 1.476 . S
C958 H916 0.930 . S
C958 C957 1.390 . S
C958 C959 1.366 . S
C959 H917 0.932 . S
C959 C954 1.360 . S
C959 C958 1.366 . S
C960 C934 1.490 1_655 S
C960 C961 1.380 . S
C960 C965 1.386 1_655 S
C961 H918 0.930 . S
C961 C960 1.380 . S
C961 C962 1.381 . S
C962 H919 0.929 . S
C962 C961 1.381 . S
C962 C963 1.371 . S
C963 C962 1.371 . S
C963 C964 1.380 1_655 S
C964 H920 0.931 . S
C964 C963 1.380 1_455 S
C964 C965 1.387 . S
C965 H921 0.930 . S
C965 C960 1.386 1_455 S
C965 C964 1.387 . S
C966 C935 1.489 1_655 S
C966 C967 1.407 . S
C966 C971 1.341 1_655 S
C967 H922 0.929 . S
C967 C966 1.407 . S
C967 C968 1.386 . S
C968 H923 0.931 . S
C968 C967 1.386 . S
C968 C969 1.376 . S
C969 C968 1.376 . S
C969 C970 1.366 1_655 S
C970 H924 0.930 . S
C970 C969 1.366 1_455 S
C970 C971 1.396 . S
C971 H925 0.929 . S
C971 C966 1.341 1_455 S
C971 C970 1.396 . S
C972 O926 1.300 . S
C972 O927 1.209 . S
C972 C945 1.486 . S
C973 O928 1.199 1_455 S
C973 O929 1.297 . S
C973 C957 1.476 . S
H974 O1000 0.856 . S
H975 O1003 0.854 . S
H976 C1011 0.930 . S
H977 C1012 0.930 . S
H978 C1014 0.930 . S
H979 C1015 0.930 . S
H980 C1017 0.931 . S
H981 C1018 0.930 . S
H982 C1020 0.930 . S
H983 C1021 0.929 . S
H984 C1023 0.930 . S
H985 C1024 0.931 . S
H986 C1026 0.930 . S
H987 C1027 0.929 . S
H988 C1029 0.931 . S
H989 C1030 0.930 . S
H990 C1032 0.930 . S
H991 C1033 0.932 . S
H992 C1035 0.930 . S
H993 C1036 0.929 . S
H994 C1038 0.931 . S
H995 C1039 0.930 . S
H996 C1041 0.929 . S
H997 C1042 0.931 . S
H998 C1044 0.930 . S
H999 C1045 0.929 . S
O1000 H974 0.856 . S
O1000 C1046 1.300 . S
O1001 C1046 1.209 . S
O1002 C1047 1.199 . S
O1003 H975 0.854 . S
O1003 C1047 1.297 . S
C1004 C1005 1.404 . S
C1004 C1009 1.397 . S
C1004 C1010 1.492 . S
C1005 C1004 1.404 . S
C1005 C1006 1.396 . S
C1005 C1016 1.492 . S
C1006 C1005 1.396 . S
C1006 C1007 1.397 . S
C1006 C1022 1.509 . S
C1007 C1006 1.397 . S
C1007 C1008 1.412 . S
C1007 C1028 1.485 . S
C1008 C1007 1.412 . S
C1008 C1009 1.388 . S
C1008 C1034 1.490 . S
C1009 C1004 1.397 . S
C1009 C1008 1.388 . S
C1009 C1040 1.519 . S
C1010 C1004 1.492 . S
C1010 C1011 1.363 . S
C1010 C1015 1.390 . S
C1011 H976 0.930 . S
C1011 C1010 1.363 . S
C1011 C1012 1.372 . S
C1012 H977 0.930 . S
C1012 C1011 1.372 . S
C1012 C1013 1.383 . S
C1013 C1012 1.383 . S
C1013 C1014 1.395 . S
C1014 H978 0.930 . S
C1014 C1013 1.395 . S
C1014 C1015 1.362 . S
C1015 H979 0.930 . S
C1015 C1010 1.390 . S
C1015 C1014 1.362 . S
C1016 C1005 1.492 . S
C1016 C1017 1.377 . S
C1016 C1021 1.397 . S
C1017 H980 0.931 . S
C1017 C1016 1.377 . S
C1017 C1018 1.376 . S
C1018 H981 0.930 . S
C1018 C1017 1.376 . S
C1018 C1019 1.376 . S
C1019 C1018 1.376 . S
C1019 C1020 1.378 . S
C1019 C1046 1.486 . S
C1020 H982 0.930 . S
C1020 C1019 1.378 . S
C1020 C1021 1.376 . S
C1021 H983 0.929 . S
C1021 C1016 1.397 . S
C1021 C1020 1.376 . S
C1022 C1006 1.509 . S
C1022 C1023 1.391 . S
C1022 C1027 1.386 . S
C1023 H984 0.930 . S
C1023 C1022 1.391 . S
C1023 C1024 1.375 . S
C1024 H985 0.931 . S
C1024 C1023 1.375 . S
C1024 C1025 1.375 . S
C1025 C1024 1.375 . S
C1025 C1026 1.361 . S
C1026 H986 0.930 . S
C1026 C1025 1.361 . S
C1026 C1027 1.399 . S
C1027 H987 0.929 . S
C1027 C1022 1.386 . S
C1027 C1026 1.399 . S
C1028 C1007 1.485 . S
C1028 C1029 1.394 . S
C1028 C1033 1.360 . S
C1029 H988 0.931 . S
C1029 C1028 1.394 . S
C1029 C1030 1.372 . S
C1030 H989 0.930 . S
C1030 C1029 1.372 . S
C1030 C1031 1.397 . S
C1031 C1030 1.397 . S
C1031 C1032 1.390 . S
C1031 C1047 1.476 . S
C1032 H990 0.930 . S
C1032 C1031 1.390 . S
C1032 C1033 1.366 . S
C1033 H991 0.932 . S
C1033 C1028 1.360 . S
C1033 C1032 1.366 . S
C1034 C1008 1.490 . S
C1034 C1035 1.380 . S
C1034 C1039 1.386 . S
C1035 H992 0.930 . S
C1035 C1034 1.380 . S
C1035 C1036 1.381 . S
C1036 H993 0.929 . S
C1036 C1035 1.381 . S
C1036 C1037 1.371 . S
C1037 C1036 1.371 . S
C1037 C1038 1.380 . S
C1038 H994 0.931 . S
C1038 C1037 1.380 . S
C1038 C1039 1.387 . S
C1039 H995 0.930 . S
C1039 C1034 1.386 . S
C1039 C1038 1.387 . S
C1040 C1009 1.519 . S
C1040 C1041 1.377 . S
C1040 C1045 1.361 . S
C1041 H996 0.929 . S
C1041 C1040 1.377 . S
C1041 C1042 1.386 . S
C1042 H997 0.931 . S
C1042 C1041 1.386 . S
C1042 C1043 1.363 . S
C1043 C1042 1.363 . S
C1043 C1044 1.385 . S
C1044 H998 0.930 . S
C1044 C1043 1.385 . S
C1044 C1045 1.396 . S
C1045 H999 0.929 . S
C1045 C1040 1.361 . S
C1045 C1044 1.396 . S
C1046 O1000 1.300 . S
C1046 O1001 1.209 . S
C1046 C1019 1.486 . S
C1047 O1002 1.199 . S
C1047 O1003 1.297 . S
C1047 C1031 1.476 . S
H1048 O1074 0.856 . S
H1049 O1077 0.854 . S
H1050 C1085 0.930 . S
H1051 C1086 0.930 . S
H1052 C1088 0.930 . S
H1053 C1089 0.930 . S
H1054 C1091 0.931 . S
H1055 C1092 0.971 . S
H1056 C1094 0.930 . S
H1057 C1095 0.929 . S
H1058 C1097 0.930 . S
H1059 C1098 0.931 . S
H1060 C1100 0.930 . S
H1061 C1101 0.929 . S
H1062 C1103 0.931 . S
H1063 C1104 0.930 . S
H1064 C1106 0.930 . S
H1065 C1107 0.932 . S
H1066 C1109 0.930 . S
H1067 C1110 0.929 . S
H1068 C1112 0.931 . S
H1069 C1113 0.930 . S
H1070 C1115 0.929 . S
H1071 C1116 0.931 . S
H1072 C1118 0.930 . S
H1073 C1119 0.929 . S
O1074 H1048 0.856 . S
O1074 C1120 1.300 . S
O1075 C1120 1.209 . S
O1076 C1121 1.199 1_545 S
O1077 H1049 0.854 . S
O1077 C1121 1.297 . S
C1078 C1079 1.404 . S
C1078 C1083 1.413 . S
C1078 C1084 1.492 . S
C1079 C1078 1.404 . S
C1079 C1080 1.396 . S
C1079 C1090 1.492 . S
C1080 C1079 1.396 . S
C1080 C1081 1.397 . S
C1080 C1096 1.509 . S
C1081 C1080 1.397 . S
C1081 C1082 1.410 . S
C1081 C1102 1.485 . S
C1082 C1081 1.410 . S
C1082 C1083 1.369 . S
C1082 C1108 1.487 1_565 S
C1083 C1078 1.413 . S
C1083 C1082 1.369 . S
C1083 C1114 1.531 1_565 S
C1084 C1078 1.492 . S
C1084 C1085 1.363 1_565 S
C1084 C1089 1.390 . S
C1085 H1050 0.930 . S
C1085 C1084 1.363 1_545 S
C1085 C1086 1.372 . S
C1086 H1051 0.930 . S
C1086 C1085 1.372 . S
C1086 C1087 1.383 . S
C1087 C1086 1.383 . S
C1087 C1088 1.395 1_545 S
C1088 H1052 0.930 . S
C1088 C1087 1.395 1_565 S
C1088 C1089 1.362 . S
C1089 H1053 0.930 . S
C1089 C1084 1.390 . S
C1089 C1088 1.362 . S
C1090 C1079 1.492 . S
C1090 C1091 1.377 1_565 S
C1090 C1095 1.397 . S
C1091 H1054 0.931 . S
C1091 C1090 1.377 1_545 S
C1091 C1092 1.397 . S
C1092 H1055 0.971 . S
C1092 C1091 1.397 . S
C1092 C1093 1.316 1_545 S
C1093 C1092 1.316 1_565 S
C1093 C1094 1.378 . S
C1093 C1120 1.486 . S
C1094 H1056 0.930 . S
C1094 C1093 1.378 . S
C1094 C1095 1.376 . S
C1095 H1057 0.929 . S
C1095 C1090 1.397 . S
C1095 C1094 1.376 . S
C1096 C1080 1.509 . S
C1096 C1097 1.391 1_565 S
C1096 C1101 1.386 . S
C1097 H1058 0.930 . S
C1097 C1096 1.391 1_545 S
C1097 C1098 1.375 . S
C1098 H1059 0.931 . S
C1098 C1097 1.375 . S
C1098 C1099 1.375 1_545 S
C1099 C1098 1.375 1_565 S
C1099 C1100 1.361 . S
C1100 H1060 0.930 . S
C1100 C1099 1.361 . S
C1100 C1101 1.399 . S
C1101 H1061 0.929 . S
C1101 C1096 1.386 . S
C1101 C1100 1.399 . S
C1102 C1081 1.485 . S
C1102 C1103 1.394 1_565 S
C1102 C1107 1.360 . S
C1103 H1062 0.931 . S
C1103 C1102 1.394 1_545 S
C1103 C1104 1.372 . S
C1104 H1063 0.930 . S
C1104 C1103 1.372 . S
C1104 C1105 1.397 1_545 S
C1105 C1104 1.397 1_565 S
C1105 C1106 1.390 . S
C1105 C1121 1.476 . S
C1106 H1064 0.930 . S
C1106 C1105 1.390 . S
C1106 C1107 1.366 . S
C1107 H1065 0.932 . S
C1107 C1102 1.360 . S
C1107 C1106 1.366 . S
C1108 C1082 1.487 1_545 S
C1108 C1109 1.380 . S
C1108 C1113 1.386 1_545 S
C1109 H1066 0.930 . S
C1109 C1108 1.380 . S
C1109 C1110 1.381 . S
C1110 H1067 0.929 . S
C1110 C1109 1.381 . S
C1110 C1111 1.371 . S
C1111 C1110 1.371 . S
C1111 C1112 1.380 1_545 S
C1112 H1068 0.931 . S
C1112 C1111 1.380 1_565 S
C1112 C1113 1.387 . S
C1113 H1069 0.930 . S
C1113 C1108 1.386 1_565 S
C1113 C1112 1.387 . S
C1114 C1083 1.531 1_545 S
C1114 C1115 1.375 . S
C1114 C1119 1.365 1_545 S
C1115 H1070 0.929 . S
C1115 C1114 1.375 . S
C1115 C1116 1.386 . S
C1116 H1071 0.931 . S
C1116 C1115 1.386 . S
C1116 C1117 1.363 1_545 S
C1117 C1116 1.363 1_565 S
C1117 C1118 1.385 . S
C1118 H1072 0.930 . S
C1118 C1117 1.385 . S
C1118 C1119 1.396 . S
C1119 H1073 0.929 . S
C1119 C1114 1.365 1_565 S
C1119 C1118 1.396 . S
C1120 O1074 1.300 . S
C1120 O1075 1.209 . S
C1120 C1093 1.486 . S
C1121 O1076 1.199 1_565 S
C1121 O1077 1.297 . S
C1121 C1105 1.476 . S
H1122 O1148 0.856 . S
H1123 O1151 0.854 . S
H1124 C1159 0.930 . S
H1125 C1160 0.930 . S
H1126 C1162 0.930 . S
H1127 C1163 0.930 . S
H1128 C1165 0.931 . S
H1129 C1166 0.930 . S
H1130 C1168 0.930 . S
H1131 C1169 0.929 . S
H1132 C1171 0.930 . S
H1133 C1172 0.931 . S
H1134 C1174 0.930 . S
H1135 C1175 0.929 . S
H1136 C1177 0.931 . S
H1137 C1178 0.930 . S
H1138 C1180 0.930 . S
H1139 C1181 0.932 . S
H1140 C1183 0.930 . S
H1141 C1184 0.929 . S
H1142 C1186 0.931 . S
H1143 C1187 0.930 . S
H1144 C1189 0.929 . S
H1145 C1190 0.931 . S
H1146 C1192 0.930 . S
H1147 C1193 0.929 . S
O1148 H1122 0.856 . S
O1148 C1194 1.300 . S
O1149 C1194 1.209 1_565 S
O1150 C1195 1.199 1_545 S
O1151 H1123 0.854 . S
O1151 C1195 1.297 . S
C1152 C1153 1.404 . S
C1152 C1157 1.397 1_545 S
C1152 C1158 1.492 . S
C1153 C1152 1.404 . S
C1153 C1154 1.396 . S
C1153 C1164 1.492 . S
C1154 C1153 1.396 . S
C1154 C1155 1.395 1_545 S
C1154 C1170 1.532 . S
C1155 C1154 1.395 1_565 S
C1155 C1156 1.419 . S
C1155 C1176 1.491 . S
C1156 C1155 1.419 . S
C1156 C1157 1.371 . S
C1156 C1182 1.489 . S
C1157 C1152 1.397 1_565 S
C1157 C1156 1.371 . S
C1157 C1188 1.519 . S
C1158 C1152 1.492 . S
C1158 C1159 1.363 . S
C1158 C1163 1.390 1_545 S
C1159 H1124 0.930 . S
C1159 C1158 1.363 . S
C1159 C1160 1.372 . S
C1160 H1125 0.930 . S
C1160 C1159 1.372 . S
C1160 C1161 1.383 . S
C1161 C1160 1.383 . S
C1161 C1162 1.395 1_545 S
C1162 H1126 0.930 . S
C1162 C1161 1.395 1_565 S
C1162 C1163 1.362 . S
C1163 H1127 0.930 . S
C1163 C1158 1.390 1_565 S
C1163 C1162 1.362 . S
C1164 C1153 1.492 . S
C1164 C1165 1.377 . S
C1164 C1169 1.397 1_545 S
C1165 H1128 0.931 . S
C1165 C1164 1.377 . S
C1165 C1166 1.376 . S
C1166 H1129 0.930 . S
C1166 C1165 1.376 . S
C1166 C1167 1.376 . S
C1167 C1166 1.376 . S
C1167 C1168 1.378 1_545 S
C1167 C1194 1.486 . S
C1168 H1130 0.930 . S
C1168 C1167 1.378 1_565 S
C1168 C1169 1.376 . S
C1169 H1131 0.929 . S
C1169 C1164 1.397 1_565 S
C1169 C1168 1.376 . S
C1170 C1154 1.532 . S
C1170 C1171 1.421 . S
C1170 C1175 1.337 1_545 S
C1171 H1132 0.930 . S
C1171 C1170 1.421 . S
C1171 C1172 1.375 . S
C1172 H1133 0.931 . S
C1172 C1171 1.375 . S
C1172 C1173 1.412 . S
C1173 C1172 1.412 . S
C1173 C1174 1.342 1_545 S
C1174 H1134 0.930 . S
C1174 C1173 1.342 1_565 S
C1174 C1175 1.399 . S
C1175 H1135 0.929 . S
C1175 C1170 1.337 1_565 S
C1175 C1174 1.399 . S
C1176 C1155 1.491 . S
C1176 C1177 1.394 1_565 S
C1176 C1181 1.360 . S
C1177 H1136 0.931 . S
C1177 C1176 1.394 1_545 S
C1177 C1178 1.372 . S
C1178 H1137 0.930 . S
C1178 C1177 1.372 . S
C1178 C1179 1.397 1_545 S
C1179 C1178 1.397 1_565 S
C1179 C1180 1.390 . S
C1179 C1195 1.476 . S
C1180 H1138 0.930 . S
C1180 C1179 1.390 . S
C1180 C1181 1.366 . S
C1181 H1139 0.932 . S
C1181 C1176 1.360 . S
C1181 C1180 1.366 . S
C1182 C1156 1.489 . S
C1182 C1183 1.349 1_565 S
C1182 C1187 1.425 . S
C1183 H1140 0.930 . S
C1183 C1182 1.349 1_545 S
C1183 C1184 1.381 . S
C1184 H1141 0.929 . S
C1184 C1183 1.381 . S
C1184 C1185 1.398 . S
C1185 C1184 1.398 . S
C1185 C1186 1.358 1_545 S
C1186 H1142 0.931 . S
C1186 C1185 1.358 1_565 S
C1186 C1187 1.387 . S
C1187 H1143 0.930 . S
C1187 C1182 1.425 . S
C1187 C1186 1.387 . S
C1188 C1157 1.519 . S
C1188 C1189 1.377 1_565 S
C1188 C1193 1.361 . S
C1189 H1144 0.929 . S
C1189 C1188 1.377 1_545 S
C1189 C1190 1.386 . S
C1190 H1145 0.931 . S
C1190 C1189 1.386 . S
C1190 C1191 1.363 1_545 S
C1191 C1190 1.363 1_565 S
C1191 C1192 1.385 . S
C1192 H1146 0.930 . S
C1192 C1191 1.385 . S
C1192 C1193 1.396 . S
C1193 H1147 0.929 . S
C1193 C1188 1.361 . S
C1193 C1192 1.396 . S
C1194 O1148 1.300 . S
C1194 O1149 1.209 1_545 S
C1194 C1167 1.486 . S
C1195 O1150 1.199 1_565 S
C1195 O1151 1.297 . S
C1195 C1179 1.476 . S
H1196 O1222 0.856 . S
H1197 O1225 0.854 . S
H1198 C1233 0.930 . S
H1199 C1234 0.930 . S
H1200 C1236 0.930 . S
H1201 C1237 0.930 . S
H1202 C1239 0.931 . S
H1203 C1240 0.930 . S
H1204 C1242 0.930 . S
H1205 C1243 0.929 . S
H1206 C1245 0.930 . S
H1207 C1246 0.931 . S
H1208 C1248 0.930 . S
H1209 C1249 0.929 . S
H1210 C1251 0.931 . S
H1211 C1252 0.930 . S
H1212 C1254 0.930 . S
H1213 C1255 0.932 . S
H1214 C1257 0.930 . S
H1215 C1258 0.929 . S
H1216 C1260 0.931 . S
H1217 C1261 0.930 . S
H1218 C1263 0.929 . S
H1219 C1264 0.931 . S
H1220 C1266 0.930 . S
H1221 C1267 0.929 . S
O1222 H1196 0.856 . S
O1222 C1268 1.300 . S
O1223 C1268 1.209 1_455 S
O1224 C1269 1.199 1_655 S
O1225 H1197 0.854 . S
O1225 C1269 1.297 . S
C1226 C1227 1.404 . S
C1226 C1231 1.396 1_655 S
C1226 C1232 1.492 . S
C1227 C1226 1.404 . S
C1227 C1228 1.396 . S
C1227 C1238 1.492 . S
C1228 C1227 1.396 . S
C1228 C1229 1.397 . S
C1228 C1244 1.509 . S
C1229 C1228 1.397 . S
C1229 C1230 1.399 1_655 S
C1229 C1250 1.485 1_655 S
C1230 C1229 1.399 1_455 S
C1230 C1231 1.410 . S
C1230 C1256 1.485 . S
C1231 C1226 1.396 1_455 S
C1231 C1230 1.410 . S
C1231 C1262 1.516 . S
C1232 C1226 1.492 . S
C1232 C1233 1.363 . S
C1232 C1237 1.390 1_655 S
C1233 H1198 0.930 . S
C1233 C1232 1.363 . S
C1233 C1234 1.372 . S
C1234 H1199 0.930 . S
C1234 C1233 1.372 . S
C1234 C1235 1.383 . S
C1235 C1234 1.383 . S
C1235 C1236 1.395 1_655 S
C1236 H1200 0.930 . S
C1236 C1235 1.395 1_455 S
C1236 C1237 1.362 . S
C1237 H1201 0.930 . S
C1237 C1232 1.390 1_455 S
C1237 C1236 1.362 . S
C1238 C1227 1.492 . S
C1238 C1239 1.377 . S
C1238 C1243 1.397 1_655 S
C1239 H1202 0.931 . S
C1239 C1238 1.377 . S
C1239 C1240 1.376 . S
C1240 H1203 0.930 . S
C1240 C1239 1.376 . S
C1240 C1241 1.376 . S
C1241 C1240 1.376 . S
C1241 C1242 1.378 1_655 S
C1241 C1268 1.486 . S
C1242 H1204 0.930 . S
C1242 C1241 1.378 1_455 S
C1242 C1243 1.376 . S
C1243 H1205 0.929 . S
C1243 C1238 1.397 1_455 S
C1243 C1242 1.376 . S
C1244 C1228 1.509 . S
C1244 C1245 1.391 . S
C1244 C1249 1.386 1_655 S
C1245 H1206 0.930 . S
C1245 C1244 1.391 . S
C1245 C1246 1.375 . S
C1246 H1207 0.931 . S
C1246 C1245 1.375 . S
C1246 C1247 1.375 . S
C1247 C1246 1.375 . S
C1247 C1248 1.361 1_655 S
C1248 H1208 0.930 . S
C1248 C1247 1.361 1_455 S
C1248 C1249 1.399 . S
C1249 H1209 0.929 . S
C1249 C1244 1.386 1_455 S
C1249 C1248 1.399 . S
C1250 C1229 1.485 1_455 S
C1250 C1251 1.394 1_455 S
C1250 C1255 1.360 . S
C1251 H1210 0.931 . S
C1251 C1250 1.394 1_655 S
C1251 C1252 1.372 . S
C1252 H1211 0.930 . S
C1252 C1251 1.372 . S
C1252 C1253 1.397 1_655 S
C1253 C1252 1.397 1_455 S
C1253 C1254 1.390 . S
C1253 C1269 1.476 . S
C1254 H1212 0.930 . S
C1254 C1253 1.390 . S
C1254 C1255 1.366 . S
C1255 H1213 0.932 . S
C1255 C1250 1.360 . S
C1255 C1254 1.366 . S
C1256 C1230 1.485 . S
C1256 C1257 1.380 1_455 S
C1256 C1261 1.386 . S
C1257 H1214 0.930 . S
C1257 C1256 1.380 1_655 S
C1257 C1258 1.381 . S
C1258 H1215 0.929 . S
C1258 C1257 1.381 . S
C1258 C1259 1.371 1_655 S
C1259 C1258 1.371 1_455 S
C1259 C1260 1.380 . S
C1260 H1216 0.931 . S
C1260 C1259 1.380 . S
C1260 C1261 1.387 . S
C1261 H1217 0.930 . S
C1261 C1256 1.386 . S
C1261 C1260 1.387 . S
C1262 C1231 1.516 . S
C1262 C1263 1.377 1_455 S
C1262 C1267 1.361 . S
C1263 H1218 0.929 . S
C1263 C1262 1.377 1_655 S
C1263 C1264 1.386 . S
C1264 H1219 0.931 . S
C1264 C1263 1.386 . S
C1264 C1265 1.363 1_655 S
C1265 C1264 1.363 1_455 S
C1265 C1266 1.385 . S
C1266 H1220 0.930 . S
C1266 C1265 1.385 . S
C1266 C1267 1.396 . S
C1267 H1221 0.929 . S
C1267 C1262 1.361 . S
C1267 C1266 1.396 . S
C1268 O1222 1.300 . S
C1268 O1223 1.209 1_655 S
C1268 C1241 1.486 . S
C1269 O1224 1.199 1_455 S
C1269 O1225 1.297 . S
C1269 C1253 1.476 . S
H1270 O1296 0.856 . S
H1271 O1299 0.854 . S
H1272 C1307 0.930 . S
H1273 C1308 0.930 . S
H1274 C1310 0.930 . S
H1275 C1311 0.930 . S
H1276 C1313 0.931 . S
H1277 C1314 0.930 . S
H1278 C1316 0.930 . S
H1279 C1317 0.929 . S
H1280 C1319 0.930 . S
H1281 C1320 0.931 . S
H1282 C1322 0.930 . S
H1283 C1323 0.929 . S
H1284 C1325 0.931 . S
H1285 C1326 0.930 . S
H1286 C1328 0.930 . S
H1287 C1329 0.932 . S
H1288 C1331 0.930 . S
H1289 C1332 0.929 . S
H1290 C1334 0.931 . S
H1291 C1335 0.930 . S
H1292 C1337 0.929 . S
H1293 C1338 0.931 . S
H1294 C1340 0.930 . S
H1295 C1341 0.929 . S
O1296 H1270 0.856 . S
O1296 C1342 1.300 . S
O1297 C1342 1.209 . S
O1298 C1343 1.199 . S
O1299 H1271 0.854 . S
O1299 C1343 1.297 . S
C1300 C1301 1.404 . S
C1300 C1305 1.397 . S
C1300 C1306 1.492 . S
C1301 C1300 1.404 . S
C1301 C1302 1.396 . S
C1301 C1312 1.492 . S
C1302 C1301 1.396 . S
C1302 C1303 1.397 . S
C1302 C1318 1.509 . S
C1303 C1302 1.397 . S
C1303 C1304 1.412 . S
C1303 C1324 1.485 . S
C1304 C1303 1.412 . S
C1304 C1305 1.388 . S
C1304 C1330 1.490 . S
C1305 C1300 1.397 . S
C1305 C1304 1.388 . S
C1305 C1336 1.519 . S
C1306 C1300 1.492 . S
C1306 C1307 1.363 . S
C1306 C1311 1.390 . S
C1307 H1272 0.930 . S
C1307 C1306 1.363 . S
C1307 C1308 1.372 . S
C1308 H1273 0.930 . S
C1308 C1307 1.372 . S
C1308 C1309 1.383 . S
C1309 C1308 1.383 . S
C1309 C1310 1.395 . S
C1310 H1274 0.930 . S
C1310 C1309 1.395 . S
C1310 C1311 1.362 . S
C1311 H1275 0.930 . S
C1311 C1306 1.390 . S
C1311 C1310 1.362 . S
C1312 C1301 1.492 . S
C1312 C1313 1.377 . S
C1312 C1317 1.397 . S
C1313 H1276 0.931 . S
C1313 C1312 1.377 . S
C1313 C1314 1.376 . S
C1314 H1277 0.930 . S
C1314 C1313 1.376 . S
C1314 C1315 1.376 . S
C1315 C1314 1.376 . S
C1315 C1316 1.378 . S
C1315 C1342 1.486 . S
C1316 H1278 0.930 . S
C1316 C1315 1.378 . S
C1316 C1317 1.376 . S
C1317 H1279 0.929 . S
C1317 C1312 1.397 . S
C1317 C1316 1.376 . S
C1318 C1302 1.509 . S
C1318 C1319 1.391 . S
C1318 C1323 1.386 . S
C1319 H1280 0.930 . S
C1319 C1318 1.391 . S
C1319 C1320 1.375 . S
C1320 H1281 0.931 . S
C1320 C1319 1.375 . S
C1320 C1321 1.375 . S
C1321 C1320 1.375 . S
C1321 C1322 1.361 . S
C1322 H1282 0.930 . S
C1322 C1321 1.361 . S
C1322 C1323 1.399 . S
C1323 H1283 0.929 . S
C1323 C1318 1.386 . S
C1323 C1322 1.399 . S
C1324 C1303 1.485 . S
C1324 C1325 1.394 . S
C1324 C1329 1.360 . S
C1325 H1284 0.931 . S
C1325 C1324 1.394 . S
C1325 C1326 1.372 . S
C1326 H1285 0.930 . S
C1326 C1325 1.372 . S
C1326 C1327 1.397 . S
C1327 C1326 1.397 . S
C1327 C1328 1.390 . S
C1327 C1343 1.476 . S
C1328 H1286 0.930 . S
C1328 C1327 1.390 . S
C1328 C1329 1.366 . S
C1329 H1287 0.932 . S
C1329 C1324 1.360 . S
C1329 C1328 1.366 . S
C1330 C1304 1.490 . S
C1330 C1331 1.380 . S
C1330 C1335 1.386 . S
C1331 H1288 0.930 . S
C1331 C1330 1.380 . S
C1331 C1332 1.381 . S
C1332 H1289 0.929 . S
C1332 C1331 1.381 . S
C1332 C1333 1.371 . S
C1333 C1332 1.371 . S
C1333 C1334 1.380 . S
C1334 H1290 0.931 . S
C1334 C1333 1.380 . S
C1334 C1335 1.387 . S
C1335 H1291 0.930 . S
C1335 C1330 1.386 . S
C1335 C1334 1.387 . S
C1336 C1305 1.519 . S
C1336 C1337 1.377 . S
C1336 C1341 1.361 . S
C1337 H1292 0.929 . S
C1337 C1336 1.377 . S
C1337 C1338 1.386 . S
C1338 H1293 0.931 . S
C1338 C1337 1.386 . S
C1338 C1339 1.363 . S
C1339 C1338 1.363 . S
C1339 C1340 1.385 . S
C1340 H1294 0.930 . S
C1340 C1339 1.385 . S
C1340 C1341 1.396 . S
C1341 H1295 0.929 . S
C1341 C1336 1.361 . S
C1341 C1340 1.396 . S
C1342 O1296 1.300 . S
C1342 O1297 1.209 . S
C1342 C1315 1.486 . S
C1343 O1298 1.199 . S
C1343 O1299 1.297 . S
C1343 C1327 1.476 . S
H1344 O1370 0.856 . S
H1345 O1373 0.854 . S
H1346 C1381 0.930 . S
H1347 C1382 0.930 . S
H1348 C1384 0.930 . S
H1349 C1385 0.930 . S
H1350 C1387 0.931 . S
H1351 C1388 0.930 . S
H1352 C1390 0.930 . S
H1353 C1391 0.929 . S
H1354 C1393 0.930 . S
H1355 C1394 0.931 . S
H1356 C1396 0.930 . S
H1357 C1397 0.929 . S
H1358 C1399 0.931 . S
H1359 C1400 0.930 . S
H1360 C1402 0.930 . S
H1361 C1403 0.932 . S
H1362 C1405 0.930 . S
H1363 C1406 0.929 . S
H1364 C1408 0.931 . S
H1365 C1409 0.930 . S
H1366 C1411 0.929 . S
H1367 C1412 0.931 . S
H1368 C1414 0.930 . S
H1369 C1415 0.929 . S
O1370 H1344 0.856 . S
O1370 C1416 1.300 . S
O1371 C1416 1.209 . S
O1372 C1417 1.199 . S
O1373 H1345 0.854 . S
O1373 C1417 1.297 . S
C1374 C1375 1.404 . S
C1374 C1379 1.397 . S
C1374 C1380 1.492 . S
C1375 C1374 1.404 . S
C1375 C1376 1.396 . S
C1375 C1386 1.492 . S
C1376 C1375 1.396 . S
C1376 C1377 1.397 . S
C1376 C1392 1.509 . S
C1377 C1376 1.397 . S
C1377 C1378 1.412 . S
C1377 C1398 1.485 . S
C1378 C1377 1.412 . S
C1378 C1379 1.388 . S
C1378 C1404 1.490 . S
C1379 C1374 1.397 . S
C1379 C1378 1.388 . S
C1379 C1410 1.519 . S
C1380 C1374 1.492 . S
C1380 C1381 1.363 . S
C1380 C1385 1.390 . S
C1381 H1346 0.930 . S
C1381 C1380 1.363 . S
C1381 C1382 1.372 . S
C1382 H1347 0.930 . S
C1382 C1381 1.372 . S
C1382 C1383 1.383 . S
C1383 C1382 1.383 . S
C1383 C1384 1.395 . S
C1384 H1348 0.930 . S
C1384 C1383 1.395 . S
C1384 C1385 1.362 . S
C1385 H1349 0.930 . S
C1385 C1380 1.390 . S
C1385 C1384 1.362 . S
C1386 C1375 1.492 . S
C1386 C1387 1.377 . S
C1386 C1391 1.397 . S
C1387 H1350 0.931 . S
C1387 C1386 1.377 . S
C1387 C1388 1.376 . S
C1388 H1351 0.930 . S
C1388 C1387 1.376 . S
C1388 C1389 1.376 . S
C1389 C1388 1.376 . S
C1389 C1390 1.378 . S
C1389 C1416 1.486 . S
C1390 H1352 0.930 . S
C1390 C1389 1.378 . S
C1390 C1391 1.376 . S
C1391 H1353 0.929 . S
C1391 C1386 1.397 . S
C1391 C1390 1.376 . S
C1392 C1376 1.509 . S
C1392 C1393 1.391 . S
C1392 C1397 1.386 . S
C1393 H1354 0.930 . S
C1393 C1392 1.391 . S
C1393 C1394 1.375 . S
C1394 H1355 0.931 . S
C1394 C1393 1.375 . S
C1394 C1395 1.375 . S
C1395 C1394 1.375 . S
C1395 C1396 1.361 . S
C1396 H1356 0.930 . S
C1396 C1395 1.361 . S
C1396 C1397 1.399 . S
C1397 H1357 0.929 . S
C1397 C1392 1.386 . S
C1397 C1396 1.399 . S
C1398 C1377 1.485 . S
C1398 C1399 1.394 . S
C1398 C1403 1.360 . S
C1399 H1358 0.931 . S
C1399 C1398 1.394 . S
C1399 C1400 1.372 . S
C1400 H1359 0.930 . S
C1400 C1399 1.372 . S
C1400 C1401 1.397 . S
C1401 C1400 1.397 . S
C1401 C1402 1.390 . S
C1401 C1417 1.476 . S
C1402 H1360 0.930 . S
C1402 C1401 1.390 . S
C1402 C1403 1.366 . S
C1403 H1361 0.932 . S
C1403 C1398 1.360 . S
C1403 C1402 1.366 . S
C1404 C1378 1.490 . S
C1404 C1405 1.380 . S
C1404 C1409 1.386 . S
C1405 H1362 0.930 . S
C1405 C1404 1.380 . S
C1405 C1406 1.381 . S
C1406 H1363 0.929 . S
C1406 C1405 1.381 . S
C1406 C1407 1.371 . S
C1407 C1406 1.371 . S
C1407 C1408 1.380 . S
C1408 H1364 0.931 . S
C1408 C1407 1.380 . S
C1408 C1409 1.387 . S
C1409 H1365 0.930 . S
C1409 C1404 1.386 . S
C1409 C1408 1.387 . S
C1410 C1379 1.519 . S
C1410 C1411 1.377 . S
C1410 C1415 1.361 . S
C1411 H1366 0.929 . S
C1411 C1410 1.377 . S
C1411 C1412 1.386 . S
C1412 H1367 0.931 . S
C1412 C1411 1.386 . S
C1412 C1413 1.363 . S
C1413 C1412 1.363 . S
C1413 C1414 1.385 . S
C1414 H1368 0.930 . S
C1414 C1413 1.385 . S
C1414 C1415 1.396 . S
C1415 H1369 0.929 . S
C1415 C1410 1.361 . S
C1415 C1414 1.396 . S
C1416 O1370 1.300 . S
C1416 O1371 1.209 . S
C1416 C1389 1.486 . S
C1417 O1372 1.199 . S
C1417 O1373 1.297 . S
C1417 C1401 1.476 . S
H1418 O1444 0.856 . S
H1419 O1447 0.854 . S
H1420 C1455 0.930 . S
H1421 C1456 0.930 . S
H1422 C1458 0.930 . S
H1423 C1459 0.930 . S
H1424 C1461 0.931 . S
H1425 C1462 0.930 . S
H1426 C1464 0.930 . S
H1427 C1465 0.929 . S
H1428 C1467 0.930 . S
H1429 C1468 0.931 . S
H1430 C1470 0.930 . S
H1431 C1471 0.929 . S
H1432 C1473 0.931 . S
H1433 C1474 0.930 . S
H1434 C1476 0.930 . S
H1435 C1477 0.932 . S
H1436 C1479 0.930 . S
H1437 C1480 0.929 . S
H1438 C1482 0.931 . S
H1439 C1483 0.930 . S
H1440 C1485 0.929 . S
H1441 C1486 0.931 . S
H1442 C1488 0.930 . S
H1443 C1489 0.929 . S
O1444 H1418 0.856 . S
O1444 C1490 1.300 . S
O1445 C1490 1.209 . S
O1446 C1491 1.199 . S
O1447 H1419 0.854 . S
O1447 C1491 1.297 . S
C1448 C1449 1.404 . S
C1448 C1453 1.397 . S
C1448 C1454 1.492 . S
C1449 C1448 1.404 . S
C1449 C1450 1.396 . S
C1449 C1460 1.492 . S
C1450 C1449 1.396 . S
C1450 C1451 1.397 . S
C1450 C1466 1.509 . S
C1451 C1450 1.397 . S
C1451 C1452 1.412 . S
C1451 C1472 1.485 . S
C1452 C1451 1.412 . S
C1452 C1453 1.388 . S
C1452 C1478 1.490 . S
C1453 C1448 1.397 . S
C1453 C1452 1.388 . S
C1453 C1484 1.519 . S
C1454 C1448 1.492 . S
C1454 C1455 1.363 . S
C1454 C1459 1.390 . S
C1455 H1420 0.930 . S
C1455 C1454 1.363 . S
C1455 C1456 1.372 . S
C1456 H1421 0.930 . S
C1456 C1455 1.372 . S
C1456 C1457 1.383 . S
C1457 C1456 1.383 . S
C1457 C1458 1.395 . S
C1458 H1422 0.930 . S
C1458 C1457 1.395 . S
C1458 C1459 1.362 . S
C1459 H1423 0.930 . S
C1459 C1454 1.390 . S
C1459 C1458 1.362 . S
C1460 C1449 1.492 . S
C1460 C1461 1.377 . S
C1460 C1465 1.397 . S
C1461 H1424 0.931 . S
C1461 C1460 1.377 . S
C1461 C1462 1.376 . S
C1462 H1425 0.930 . S
C1462 C1461 1.376 . S
C1462 C1463 1.376 . S
C1463 C1462 1.376 . S
C1463 C1464 1.378 . S
C1463 C1490 1.486 . S
C1464 H1426 0.930 . S
C1464 C1463 1.378 . S
C1464 C1465 1.376 . S
C1465 H1427 0.929 . S
C1465 C1460 1.397 . S
C1465 C1464 1.376 . S
C1466 C1450 1.509 . S
C1466 C1467 1.391 . S
C1466 C1471 1.386 . S
C1467 H1428 0.930 . S
C1467 C1466 1.391 . S
C1467 C1468 1.375 . S
C1468 H1429 0.931 . S
C1468 C1467 1.375 . S
C1468 C1469 1.375 . S
C1469 C1468 1.375 . S
C1469 C1470 1.361 . S
C1470 H1430 0.930 . S
C1470 C1469 1.361 . S
C1470 C1471 1.399 . S
C1471 H1431 0.929 . S
C1471 C1466 1.386 . S
C1471 C1470 1.399 . S
C1472 C1451 1.485 . S
C1472 C1473 1.394 . S
C1472 C1477 1.360 . S
C1473 H1432 0.931 . S
C1473 C1472 1.394 . S
C1473 C1474 1.372 . S
C1474 H1433 0.930 . S
C1474 C1473 1.372 . S
C1474 C1475 1.397 . S
C1475 C1474 1.397 . S
C1475 C1476 1.390 . S
C1475 C1491 1.476 . S
C1476 H1434 0.930 . S
C1476 C1475 1.390 . S
C1476 C1477 1.366 . S
C1477 H1435 0.932 . S
C1477 C1472 1.360 . S
C1477 C1476 1.366 . S
C1478 C1452 1.490 . S
C1478 C1479 1.380 . S
C1478 C1483 1.386 . S
C1479 H1436 0.930 . S
C1479 C1478 1.380 . S
C1479 C1480 1.381 . S
C1480 H1437 0.929 . S
C1480 C1479 1.381 . S
C1480 C1481 1.371 . S
C1481 C1480 1.371 . S
C1481 C1482 1.380 . S
C1482 H1438 0.931 . S
C1482 C1481 1.380 . S
C1482 C1483 1.387 . S
C1483 H1439 0.930 . S
C1483 C1478 1.386 . S
C1483 C1482 1.387 . S
C1484 C1453 1.519 . S
C1484 C1485 1.377 . S
C1484 C1489 1.361 . S
C1485 H1440 0.929 . S
C1485 C1484 1.377 . S
C1485 C1486 1.386 . S
C1486 H1441 0.931 . S
C1486 C1485 1.386 . S
C1486 C1487 1.363 . S
C1487 C1486 1.363 . S
C1487 C1488 1.385 . S
C1488 H1442 0.930 . S
C1488 C1487 1.385 . S
C1488 C1489 1.396 . S
C1489 H1443 0.929 . S
C1489 C1484 1.361 . S
C1489 C1488 1.396 . S
C1490 O1444 1.300 . S
C1490 O1445 1.209 . S
C1490 C1463 1.486 . S
C1491 O1446 1.199 . S
C1491 O1447 1.297 . S
C1491 C1475 1.476 . S
H1492 O1518 0.856 . S
H1493 O1521 0.854 . S
H1494 C1529 0.930 . S
H1495 C1530 0.930 . S
H1496 C1532 0.930 . S
H1497 C1533 0.930 . S
H1498 C1535 0.931 . S
H1499 C1536 0.930 . S
H1500 C1538 0.930 . S
H1501 C1539 0.929 . S
H1502 C1541 0.930 . S
H1503 C1542 0.931 . S
H1504 C1544 0.930 . S
H1505 C1545 0.929 . S
H1506 C1547 0.931 . S
H1507 C1548 0.930 . S
H1508 C1550 0.930 . S
H1509 C1551 0.932 . S
H1510 C1553 0.930 . S
H1511 C1554 0.929 . S
H1512 C1556 0.931 . S
H1513 C1557 0.930 . S
H1514 C1559 0.929 . S
H1515 C1560 0.931 . S
H1516 C1562 0.930 . S
H1517 C1563 0.929 . S
O1518 H1492 0.856 . S
O1518 C1564 1.300 . S
O1519 C1564 1.209 . S
O1520 C1565 1.199 . S
O1521 H1493 0.854 . S
O1521 C1565 1.297 . S
C1522 C1523 1.404 . S
C1522 C1527 1.397 . S
C1522 C1528 1.492 . S
C1523 C1522 1.404 . S
C1523 C1524 1.396 . S
C1523 C1534 1.492 . S
C1524 C1523 1.396 . S
C1524 C1525 1.397 . S
C1524 C1540 1.509 . S
C1525 C1524 1.397 . S
C1525 C1526 1.412 . S
C1525 C1546 1.485 . S
C1526 C1525 1.412 . S
C1526 C1527 1.388 . S
C1526 C1552 1.490 . S
C1527 C1522 1.397 . S
C1527 C1526 1.388 . S
C1527 C1558 1.519 . S
C1528 C1522 1.492 . S
C1528 C1529 1.363 . S
C1528 C1533 1.390 . S
C1529 H1494 0.930 . S
C1529 C1528 1.363 . S
C1529 C1530 1.372 . S
C1530 H1495 0.930 . S
C1530 C1529 1.372 . S
C1530 C1531 1.383 . S
C1531 C1530 1.383 . S
C1531 C1532 1.395 . S
C1532 H1496 0.930 . S
C1532 C1531 1.395 . S
C1532 C1533 1.362 . S
C1533 H1497 0.930 . S
C1533 C1528 1.390 . S
C1533 C1532 1.362 . S
C1534 C1523 1.492 . S
C1534 C1535 1.377 . S
C1534 C1539 1.397 . S
C1535 H1498 0.931 . S
C1535 C1534 1.377 . S
C1535 C1536 1.376 . S
C1536 H1499 0.930 . S
C1536 C1535 1.376 . S
C1536 C1537 1.376 . S
C1537 C1536 1.376 . S
C1537 C1538 1.378 . S
C1537 C1564 1.486 . S
C1538 H1500 0.930 . S
C1538 C1537 1.378 . S
C1538 C1539 1.376 . S
C1539 H1501 0.929 . S
C1539 C1534 1.397 . S
C1539 C1538 1.376 . S
C1540 C1524 1.509 . S
C1540 C1541 1.391 . S
C1540 C1545 1.386 . S
C1541 H1502 0.930 . S
C1541 C1540 1.391 . S
C1541 C1542 1.375 . S
C1542 H1503 0.931 . S
C1542 C1541 1.375 . S
C1542 C1543 1.375 . S
C1543 C1542 1.375 . S
C1543 C1544 1.361 . S
C1544 H1504 0.930 . S
C1544 C1543 1.361 . S
C1544 C1545 1.399 . S
C1545 H1505 0.929 . S
C1545 C1540 1.386 . S
C1545 C1544 1.399 . S
C1546 C1525 1.485 . S
C1546 C1547 1.394 . S
C1546 C1551 1.360 . S
C1547 H1506 0.931 . S
C1547 C1546 1.394 . S
C1547 C1548 1.372 . S
C1548 H1507 0.930 . S
C1548 C1547 1.372 . S
C1548 C1549 1.397 . S
C1549 C1548 1.397 . S
C1549 C1550 1.390 . S
C1549 C1565 1.476 . S
C1550 H1508 0.930 . S
C1550 C1549 1.390 . S
C1550 C1551 1.366 . S
C1551 H1509 0.932 . S
C1551 C1546 1.360 . S
C1551 C1550 1.366 . S
C1552 C1526 1.490 . S
C1552 C1553 1.380 . S
C1552 C1557 1.386 . S
C1553 H1510 0.930 . S
C1553 C1552 1.380 . S
C1553 C1554 1.381 . S
C1554 H1511 0.929 . S
C1554 C1553 1.381 . S
C1554 C1555 1.371 . S
C1555 C1554 1.371 . S
C1555 C1556 1.380 . S
C1556 H1512 0.931 . S
C1556 C1555 1.380 . S
C1556 C1557 1.387 . S
C1557 H1513 0.930 . S
C1557 C1552 1.386 . S
C1557 C1556 1.387 . S
C1558 C1527 1.519 . S
C1558 C1559 1.377 . S
C1558 C1563 1.361 . S
C1559 H1514 0.929 . S
C1559 C1558 1.377 . S
C1559 C1560 1.386 . S
C1560 H1515 0.931 . S
C1560 C1559 1.386 . S
C1560 C1561 1.363 . S
C1561 C1560 1.363 . S
C1561 C1562 1.385 . S
C1562 H1516 0.930 . S
C1562 C1561 1.385 . S
C1562 C1563 1.396 . S
C1563 H1517 0.929 . S
C1563 C1558 1.361 . S
C1563 C1562 1.396 . S
C1564 O1518 1.300 . S
C1564 O1519 1.209 . S
C1564 C1537 1.486 . S
C1565 O1520 1.199 . S
C1565 O1521 1.297 . S
C1565 C1549 1.476 . S
H1566 C1578 0.930 . S
H1567 C1580 0.930 . S
H1568 C1581 0.930 . S
H1569 C1585 0.959 . S
H1570 C1585 0.959 . S
H1571 C1585 0.961 . S
H1572 C1586 0.960 . S
H1573 C1586 0.961 . S
H1574 C1586 0.959 . S
H1575 C1589 0.929 . S
H1576 C1590 0.931 . S
H1577 C1592 0.930 1_455 S
C1578 H1566 0.930 . S
C1578 C1579 1.399 1_455 S
C1578 C1583 1.399 . S
C1579 C1578 1.399 1_655 S
C1579 C1580 1.376 . S
C1580 H1567 0.930 . S
C1580 C1579 1.376 . S
C1580 C1581 1.388 . S
C1581 H1568 0.930 . S
C1581 C1580 1.388 . S
C1581 C1582 1.390 . S
C1582 C1581 1.390 . S
C1582 C1583 1.394 1_655 S
C1582 C1588 1.465 . S
C1583 C1578 1.399 . S
C1583 C1582 1.394 1_455 S
C1583 C1584 1.516 . S
C1584 C1583 1.516 . S
C1584 C1585 1.502 . S
C1584 C1586 1.561 . S
C1584 C1587 1.526 1_455 S
C1585 H1569 0.959 . S
C1585 H1570 0.959 . S
C1585 H1571 0.961 . S
C1585 C1584 1.502 . S
C1586 H1572 0.960 . S
C1586 H1573 0.961 . S
C1586 H1574 0.959 . S
C1586 C1584 1.561 . S
C1587 C1584 1.526 1_655 S
C1587 C1588 1.396 . S
C1587 C1592 1.390 . S
C1588 C1582 1.465 . S
C1588 C1587 1.396 . S
C1588 C1589 1.399 . S
C1589 H1575 0.929 . S
C1589 C1588 1.399 . S
C1589 C1590 1.385 . S
C1590 H1576 0.931 . S
C1590 C1589 1.385 . S
C1590 C1591 1.389 . S
C1591 C1590 1.389 . S
C1591 C1592 1.387 . S
C1592 H1577 0.930 1_655 S
C1592 C1587 1.390 . S
C1592 C1591 1.387 . S
H1593 C1605 0.930 . S
H1594 C1607 0.930 . S
H1595 C1608 0.930 . S
H1596 C1612 0.959 . S
H1597 C1612 0.959 . S
H1598 C1612 0.961 . S
H1599 C1613 0.960 . S
H1600 C1613 0.961 . S
H1601 C1613 0.959 . S
H1602 C1616 0.929 . S
H1603 C1617 0.931 . S
H1604 C1619 0.930 . S
C1605 H1593 0.930 . S
C1605 C1606 1.399 . S
C1605 C1610 1.399 . S
C1606 C1605 1.399 . S
C1606 C1607 1.376 . S
C1607 H1594 0.930 . S
C1607 C1606 1.376 . S
C1607 C1608 1.388 . S
C1608 H1595 0.930 . S
C1608 C1607 1.388 . S
C1608 C1609 1.390 . S
C1609 C1608 1.390 . S
C1609 C1610 1.394 . S
C1609 C1615 1.465 . S
C1610 C1605 1.399 . S
C1610 C1609 1.394 . S
C1610 C1611 1.516 . S
C1611 C1610 1.516 . S
C1611 C1612 1.502 . S
C1611 C1613 1.561 . S
C1611 C1614 1.526 . S
C1612 H1596 0.959 . S
C1612 H1597 0.959 . S
C1612 H1598 0.961 . S
C1612 C1611 1.502 . S
C1613 H1599 0.960 . S
C1613 H1600 0.961 . S
C1613 H1601 0.959 . S
C1613 C1611 1.561 . S
C1614 C1611 1.526 . S
C1614 C1615 1.396 . S
C1614 C1619 1.390 . S
C1615 C1609 1.465 . S
C1615 C1614 1.396 . S
C1615 C1616 1.399 . S
C1616 H1602 0.929 . S
C1616 C1615 1.399 . S
C1616 C1617 1.385 . S
C1617 H1603 0.931 . S
C1617 C1616 1.385 . S
C1617 C1618 1.389 . S
C1618 C1617 1.389 . S
C1618 C1619 1.387 . S
C1619 H1604 0.930 . S
C1619 C1614 1.390 . S
C1619 C1618 1.387 . S
H1620 C1632 0.930 . S
H1621 C1634 0.930 . S
H1622 C1635 0.930 . S
H1623 C1639 0.959 . S
H1624 C1639 0.959 . S
H1625 C1639 0.961 . S
H1626 C1640 0.960 . S
H1627 C1640 0.961 . S
H1628 C1640 0.959 . S
H1629 C1643 0.929 . S
H1630 C1644 0.941 . S
H1631 C1646 0.930 . S
C1632 H1620 0.930 . S
C1632 C1633 1.399 . S
C1632 C1637 1.399 . S
C1633 C1632 1.399 . S
C1633 C1634 1.376 1_545 S
C1634 H1621 0.930 . S
C1634 C1633 1.376 1_565 S
C1634 C1635 1.388 . S
C1635 H1622 0.930 . S
C1635 C1634 1.388 . S
C1635 C1636 1.390 1_565 S
C1636 C1635 1.390 1_545 S
C1636 C1637 1.394 . S
C1636 C1642 1.465 . S
C1637 C1632 1.399 . S
C1637 C1636 1.394 . S
C1637 C1638 1.516 . S
C1638 C1637 1.516 . S
C1638 C1639 1.502 . S
C1638 C1640 1.561 . S
C1638 C1641 1.526 . S
C1639 H1623 0.959 . S
C1639 H1624 0.959 . S
C1639 H1625 0.961 . S
C1639 C1638 1.502 . S
C1640 H1626 0.960 . S
C1640 H1627 0.961 . S
C1640 H1628 0.959 . S
C1640 C1638 1.561 . S
C1641 C1638 1.526 . S
C1641 C1642 1.396 . S
C1641 C1646 1.390 . S
C1642 C1636 1.465 . S
C1642 C1641 1.396 . S
C1642 C1643 1.399 1_545 S
C1643 H1629 0.929 . S
C1643 C1642 1.399 1_565 S
C1643 C1644 1.381 . S
C1644 H1630 0.941 . S
C1644 C1643 1.381 . S
C1644 C1645 1.384 1_565 S
C1645 C1644 1.384 1_545 S
C1645 C1646 1.387 . S
C1646 H1631 0.930 . S
C1646 C1641 1.390 . S
C1646 C1645 1.387 . S
H1647 C1659 0.930 . S
H1648 C1661 0.930 . S
H1649 C1662 0.930 . S
H1650 C1666 0.959 . S
H1651 C1666 0.959 . S
H1652 C1666 0.961 . S
H1653 C1667 0.960 . S
H1654 C1667 0.961 . S
H1655 C1667 0.959 . S
H1656 C1670 0.929 . S
H1657 C1671 0.931 . S
H1658 C1673 0.930 . S
C1659 H1647 0.930 . S
C1659 C1660 1.399 1_545 S
C1659 C1664 1.399 . S
C1660 C1659 1.399 1_565 S
C1660 C1661 1.376 . S
C1661 H1648 0.930 . S
C1661 C1660 1.376 . S
C1661 C1662 1.388 . S
C1662 H1649 0.930 . S
C1662 C1661 1.388 . S
C1662 C1663 1.390 . S
C1663 C1662 1.390 . S
C1663 C1664 1.394 1_565 S
C1663 C1669 1.465 . S
C1664 C1659 1.399 . S
C1664 C1663 1.394 1_545 S
C1664 C1665 1.516 . S
C1665 C1664 1.516 . S
C1665 C1666 1.502 . S
C1665 C1667 1.561 . S
C1665 C1668 1.503 1_545 S
C1666 H1650 0.959 . S
C1666 H1651 0.959 . S
C1666 H1652 0.961 . S
C1666 C1665 1.502 . S
C1667 H1653 0.960 . S
C1667 H1654 0.961 . S
C1667 H1655 0.959 . S
C1667 C1665 1.561 . S
C1668 C1665 1.503 1_565 S
C1668 C1669 1.420 . S
C1668 C1673 1.392 1_565 S
C1669 C1663 1.465 . S
C1669 C1668 1.420 . S
C1669 C1670 1.399 . S
C1670 H1656 0.929 . S
C1670 C1669 1.399 . S
C1670 C1671 1.385 . S
C1671 H1657 0.931 . S
C1671 C1670 1.385 . S
C1671 C1672 1.389 . S
C1672 C1671 1.389 . S
C1672 C1673 1.387 1_565 S
C1673 H1658 0.930 . S
C1673 C1668 1.392 1_545 S
C1673 C1672 1.387 1_545 S
H1674 C1686 0.930 . S
H1675 C1688 0.930 . S
H1676 C1689 0.930 . S
H1677 C1693 0.959 . S
H1678 C1693 0.959 . S
H1679 C1693 0.961 . S
H1680 C1694 0.960 . S
H1681 C1694 0.961 . S
H1682 C1694 0.959 . S
H1683 C1697 0.929 . S
H1684 C1698 0.931 . S
H1685 C1700 0.930 . S
C1686 H1674 0.930 . S
C1686 C1687 1.399 . S
C1686 C1691 1.399 . S
C1687 C1686 1.399 . S
C1687 C1688 1.376 1_455 S
C1688 H1675 0.930 . S
C1688 C1687 1.376 1_655 S
C1688 C1689 1.388 . S
C1689 H1676 0.930 . S
C1689 C1688 1.388 . S
C1689 C1690 1.390 1_655 S
C1690 C1689 1.390 1_455 S
C1690 C1691 1.394 . S
C1690 C1696 1.465 . S
C1691 C1686 1.399 . S
C1691 C1690 1.394 . S
C1691 C1692 1.516 . S
C1692 C1691 1.516 . S
C1692 C1693 1.502 . S
C1692 C1694 1.561 . S
C1692 C1695 1.526 . S
C1693 H1677 0.959 . S
C1693 H1678 0.959 . S
C1693 H1679 0.961 . S
C1693 C1692 1.502 . S
C1694 H1680 0.960 . S
C1694 H1681 0.961 . S
C1694 H1682 0.959 . S
C1694 C1692 1.561 . S
C1695 C1692 1.526 . S
C1695 C1696 1.396 . S
C1695 C1700 1.390 . S
C1696 C1690 1.465 . S
C1696 C1695 1.396 . S
C1696 C1697 1.399 1_455 S
C1697 H1683 0.929 . S
C1697 C1696 1.399 1_655 S
C1697 C1698 1.385 . S
C1698 H1684 0.931 . S
C1698 C1697 1.385 . S
C1698 C1699 1.389 1_655 S
C1699 C1698 1.389 1_455 S
C1699 C1700 1.387 . S
C1700 H1685 0.930 . S
C1700 C1695 1.390 . S
C1700 C1699 1.387 . S
H1701 C1713 0.930 . S
H1702 C1715 0.970 . S
H1703 C1716 0.930 . S
H1704 C1720 0.959 . S
H1705 C1720 0.959 . S
H1706 C1720 0.961 . S
H1707 C1721 0.960 . S
H1708 C1721 0.961 . S
H1709 C1721 0.959 . S
H1710 C1724 0.929 . S
H1711 C1725 0.931 . S
H1712 C1727 0.930 . S
C1713 H1701 0.930 . S
C1713 C1714 1.399 1_556 S
C1713 C1718 1.399 . S
C1714 C1713 1.399 1_554 S
C1714 C1715 1.383 . S
C1715 H1702 0.970 . S
C1715 C1714 1.383 . S
C1715 C1716 1.345 1_554 S
C1716 H1703 0.930 . S
C1716 C1715 1.345 1_556 S
C1716 C1717 1.390 . S
C1717 C1716 1.390 . S
C1717 C1718 1.394 . S
C1717 C1723 1.465 . S
C1718 C1713 1.399 . S
C1718 C1717 1.394 . S
C1718 C1719 1.516 . S
C1719 C1718 1.516 . S
C1719 C1720 1.502 . S
C1719 C1721 1.561 . S
C1719 C1722 1.526 . S
C1720 H1704 0.959 . S
C1720 H1705 0.959 . S
C1720 H1706 0.961 . S
C1720 C1719 1.502 . S
C1721 H1707 0.960 . S
C1721 H1708 0.961 . S
C1721 H1709 0.959 . S
C1721 C1719 1.561 . S
C1722 C1719 1.526 . S
C1722 C1723 1.396 . S
C1722 C1727 1.390 . S
C1723 C1717 1.465 . S
C1723 C1722 1.396 . S
C1723 C1724 1.399 . S
C1724 H1710 0.929 . S
C1724 C1723 1.399 . S
C1724 C1725 1.385 . S
C1725 H1711 0.931 . S
C1725 C1724 1.385 . S
C1725 C1726 1.389 . S
C1726 C1725 1.389 . S
C1726 C1727 1.387 . S
C1727 H1712 0.930 . S
C1727 C1722 1.390 . S
C1727 C1726 1.387 . S
H1728 C1740 0.930 1_554 S
H1729 C1742 0.930 . S
H1730 C1743 0.930 . S
H1731 C1747 0.959 . S
H1732 C1747 0.959 . S
H1733 C1747 0.961 . S
H1734 C1748 0.962 1_455 S
H1735 C1748 0.931 1_455 S
H1736 C1748 0.995 . S
H1737 C1751 0.929 . S
H1738 C1752 0.931 . S
H1739 C1754 0.930 . S
C1740 H1728 0.930 1_556 S
C1740 C1741 1.378 1_455 S
C1740 C1745 1.399 . S
C1741 C1740 1.378 1_655 S
C1741 C1742 1.392 . S
C1742 H1729 0.930 . S
C1742 C1741 1.392 . S
C1742 C1743 1.388 . S
C1743 H1730 0.930 . S
C1743 C1742 1.388 . S
C1743 C1744 1.390 . S
C1744 C1743 1.390 . S
C1744 C1745 1.394 1_655 S
C1744 C1750 1.465 . S
C1745 C1740 1.399 . S
C1745 C1744 1.394 1_455 S
C1745 C1746 1.516 . S
C1746 C1745 1.516 . S
C1746 C1747 1.502 . S
C1746 C1748 1.555 1_455 S
C1746 C1749 1.526 . S
C1747 H1731 0.959 . S
C1747 H1732 0.959 . S
C1747 H1733 0.961 . S
C1747 C1746 1.502 . S
C1748 H1734 0.962 1_655 S
C1748 H1735 0.931 1_655 S
C1748 H1736 0.995 . S
C1748 C1746 1.555 1_655 S
C1749 C1746 1.526 . S
C1749 C1750 1.396 1_455 S
C1749 C1754 1.390 . S
C1750 C1744 1.465 . S
C1750 C1749 1.396 1_655 S
C1750 C1751 1.399 . S
C1751 H1737 0.929 . S
C1751 C1750 1.399 . S
C1751 C1752 1.385 . S
C1752 H1738 0.931 . S
C1752 C1751 1.385 . S
C1752 C1753 1.398 . S
C1753 C1752 1.398 . S
C1753 C1754 1.384 1_655 S
C1754 H1739 0.930 . S
C1754 C1749 1.390 . S
C1754 C1753 1.384 1_455 S
H1755 C1767 0.930 . S
H1756 C1769 0.930 . S
H1757 C1770 0.930 . S
H1758 C1774 0.959 . S
H1759 C1774 0.959 . S
H1760 C1774 0.961 . S
H1761 C1775 0.960 . S
H1762 C1775 0.961 . S
H1763 C1775 0.959 . S
H1764 C1778 0.929 . S
H1765 C1779 0.931 . S
H1766 C1781 0.930 . S
C1767 H1755 0.930 . S
C1767 C1768 1.399 . S
C1767 C1772 1.399 . S
C1768 C1767 1.399 . S
C1768 C1769 1.376 . S
C1769 H1756 0.930 . S
C1769 C1768 1.376 . S
C1769 C1770 1.388 . S
C1770 H1757 0.930 . S
C1770 C1769 1.388 . S
C1770 C1771 1.390 . S
C1771 C1770 1.390 . S
C1771 C1772 1.394 . S
C1771 C1777 1.465 . S
C1772 C1767 1.399 . S
C1772 C1771 1.394 . S
C1772 C1773 1.516 . S
C1773 C1772 1.516 . S
C1773 C1774 1.502 . S
C1773 C1775 1.561 . S
C1773 C1776 1.526 . S
C1774 H1758 0.959 . S
C1774 H1759 0.959 . S
C1774 H1760 0.961 . S
C1774 C1773 1.502 . S
C1775 H1761 0.960 . S
C1775 H1762 0.961 . S
C1775 H1763 0.959 . S
C1775 C1773 1.561 . S
C1776 C1773 1.526 . S
C1776 C1777 1.396 . S
C1776 C1781 1.390 . S
C1777 C1771 1.465 . S
C1777 C1776 1.396 . S
C1777 C1778 1.399 . S
C1778 H1764 0.929 . S
C1778 C1777 1.399 . S
C1778 C1779 1.385 . S
C1779 H1765 0.931 . S
C1779 C1778 1.385 . S
C1779 C1780 1.389 . S
C1780 C1779 1.389 . S
C1780 C1781 1.387 . S
C1781 H1766 0.930 . S
C1781 C1776 1.390 . S
C1781 C1780 1.387 . S
H1782 C1794 0.930 . S
H1783 C1796 0.930 1_554 S
H1784 C1797 0.930 . S
H1785 C1801 0.959 . S
H1786 C1801 0.959 . S
H1787 C1801 0.961 . S
H1788 C1802 0.960 . S
H1789 C1802 0.961 . S
H1790 C1802 0.959 . S
H1791 C1805 0.929 . S
H1792 C1806 0.931 . S
H1793 C1808 0.930 . S
C1794 H1782 0.930 . S
C1794 C1795 1.399 . S
C1794 C1799 1.399 . S
C1795 C1794 1.399 . S
C1795 C1796 1.376 1_565 S
C1796 H1783 0.930 1_556 S
C1796 C1795 1.376 1_545 S
C1796 C1797 1.388 . S
C1797 H1784 0.930 . S
C1797 C1796 1.388 . S
C1797 C1798 1.390 . S
C1798 C1797 1.390 . S
C1798 C1799 1.394 1_545 S
C1798 C1804 1.465 . S
C1799 C1794 1.399 . S
C1799 C1798 1.394 1_565 S
C1799 C1800 1.516 . S
C1800 C1799 1.516 . S
C1800 C1801 1.502 . S
C1800 C1802 1.561 . S
C1800 C1803 1.526 . S
C1801 H1785 0.959 . S
C1801 H1786 0.959 . S
C1801 H1787 0.961 . S
C1801 C1800 1.502 . S
C1802 H1788 0.960 . S
C1802 H1789 0.961 . S
C1802 H1790 0.959 . S
C1802 C1800 1.561 . S
C1803 C1800 1.526 . S
C1803 C1804 1.396 1_565 S
C1803 C1808 1.390 . S
C1804 C1798 1.465 . S
C1804 C1803 1.396 1_545 S
C1804 C1805 1.399 . S
C1805 H1791 0.929 . S
C1805 C1804 1.399 . S
C1805 C1806 1.385 . S
C1806 H1792 0.931 . S
C1806 C1805 1.385 . S
C1806 C1807 1.389 . S
C1807 C1806 1.389 . S
C1807 C1808 1.387 1_545 S
C1808 H1793 0.930 . S
C1808 C1803 1.390 . S
C1808 C1807 1.387 1_565 S
H1809 C1821 0.930 . S
H1810 C1823 0.930 . S
H1811 C1824 0.930 . S
H1812 C1828 0.959 . S
H1813 C1828 0.959 . S
H1814 C1828 0.961 . S
H1815 C1829 0.960 . S
H1816 C1829 0.960 . S
H1817 C1829 0.960 1_545 S
H1818 C1832 0.929 . S
H1819 C1833 0.931 . S
H1820 C1835 0.930 . S
C1821 H1809 0.930 . S
C1821 C1822 1.399 1_565 S
C1821 C1826 1.399 . S
C1822 C1821 1.399 1_545 S
C1822 C1823 1.376 . S
C1823 H1810 0.930 . S
C1823 C1822 1.376 . S
C1823 C1824 1.388 . S
C1824 H1811 0.930 . S
C1824 C1823 1.388 . S
C1824 C1825 1.390 . S
C1825 C1824 1.390 . S
C1825 C1826 1.394 1_545 S
C1825 C1831 1.465 . S
C1826 C1821 1.399 . S
C1826 C1825 1.394 1_565 S
C1826 C1827 1.516 . S
C1827 C1826 1.516 . S
C1827 C1828 1.502 . S
C1827 C1829 1.561 . S
C1827 C1830 1.526 . S
C1828 H1812 0.959 . S
C1828 H1813 0.959 . S
C1828 H1814 0.961 . S
C1828 C1827 1.502 . S
C1829 H1815 0.960 . S
C1829 H1816 0.960 . S
C1829 H1817 0.960 1_565 S
C1829 C1827 1.561 . S
C1830 C1827 1.526 . S
C1830 C1831 1.396 1_565 S
C1830 C1835 1.390 . S
C1831 C1825 1.465 . S
C1831 C1830 1.396 1_545 S
C1831 C1832 1.399 . S
C1832 H1818 0.929 . S
C1832 C1831 1.399 . S
C1832 C1833 1.385 . S
C1833 H1819 0.931 . S
C1833 C1832 1.385 . S
C1833 C1834 1.426 . S
C1834 C1833 1.426 . S
C1834 C1835 1.352 1_545 S
C1835 H1820 0.930 . S
C1835 C1830 1.390 . S
C1835 C1834 1.352 1_565 S
H1836 C1848 0.930 . S
H1837 C1850 0.930 . S
H1838 C1851 0.930 . S
H1839 C1855 0.959 . S
H1840 C1855 0.959 . S
H1841 C1855 0.961 . S
H1842 C1856 0.960 . S
H1843 C1856 0.961 . S
H1844 C1856 0.959 . S
H1845 C1859 0.929 . S
H1846 C1860 0.931 . S
H1847 C1862 0.930 . S
C1848 H1836 0.930 . S
C1848 C1849 1.399 1_455 S
C1848 C1853 1.399 . S
C1849 C1848 1.399 1_655 S
C1849 C1850 1.376 . S
C1850 H1837 0.930 . S
C1850 C1849 1.376 . S
C1850 C1851 1.388 . S
C1851 H1838 0.930 . S
C1851 C1850 1.388 . S
C1851 C1852 1.390 . S
C1852 C1851 1.390 . S
C1852 C1853 1.394 1_655 S
C1852 C1858 1.465 . S
C1853 C1848 1.399 . S
C1853 C1852 1.394 1_455 S
C1853 C1854 1.516 . S
C1854 C1853 1.516 . S
C1854 C1855 1.502 . S
C1854 C1856 1.561 . S
C1854 C1857 1.526 . S
C1855 H1839 0.959 . S
C1855 H1840 0.959 . S
C1855 H1841 0.961 . S
C1855 C1854 1.502 . S
C1856 H1842 0.960 . S
C1856 H1843 0.961 . S
C1856 H1844 0.959 . S
C1856 C1854 1.561 . S
C1857 C1854 1.526 . S
C1857 C1858 1.396 1_455 S
C1857 C1862 1.390 . S
C1858 C1852 1.465 . S
C1858 C1857 1.396 1_655 S
C1858 C1859 1.399 . S
C1859 H1845 0.929 . S
C1859 C1858 1.399 . S
C1859 C1860 1.385 . S
C1860 H1846 0.931 . S
C1860 C1859 1.385 . S
C1860 C1861 1.389 . S
C1861 C1860 1.389 . S
C1861 C1862 1.387 1_655 S
C1862 H1847 0.930 . S
C1862 C1857 1.390 . S
C1862 C1861 1.387 1_455 S
H1863 C1875 0.930 . S
H1864 C1877 0.930 . S
H1865 C1878 0.930 . S
H1866 C1882 0.959 . S
H1867 C1882 0.959 . S
H1868 C1882 0.961 . S
H1869 C1883 0.960 . S
H1870 C1883 0.961 . S
H1871 C1883 0.959 . S
H1872 C1886 0.929 . S
H1873 C1887 0.931 . S
H1874 C1889 0.930 . S
C1875 H1863 0.930 . S
C1875 C1876 1.399 . S
C1875 C1880 1.399 . S
C1876 C1875 1.399 . S
C1876 C1877 1.376 . S
C1877 H1864 0.930 . S
C1877 C1876 1.376 . S
C1877 C1878 1.388 . S
C1878 H1865 0.930 . S
C1878 C1877 1.388 . S
C1878 C1879 1.390 . S
C1879 C1878 1.390 . S
C1879 C1880 1.394 . S
C1879 C1885 1.465 . S
C1880 C1875 1.399 . S
C1880 C1879 1.394 . S
C1880 C1881 1.516 . S
C1881 C1880 1.516 . S
C1881 C1882 1.502 . S
C1881 C1883 1.561 . S
C1881 C1884 1.526 . S
C1882 H1866 0.959 . S
C1882 H1867 0.959 . S
C1882 H1868 0.961 . S
C1882 C1881 1.502 . S
C1883 H1869 0.960 . S
C1883 H1870 0.961 . S
C1883 H1871 0.959 . S
C1883 C1881 1.561 . S
C1884 C1881 1.526 . S
C1884 C1885 1.396 . S
C1884 C1889 1.390 . S
C1885 C1879 1.465 . S
C1885 C1884 1.396 . S
C1885 C1886 1.399 . S
C1886 H1872 0.929 . S
C1886 C1885 1.399 . S
C1886 C1887 1.385 . S
C1887 H1873 0.931 . S
C1887 C1886 1.385 . S
C1887 C1888 1.389 . S
C1888 C1887 1.389 . S
C1888 C1889 1.387 . S
C1889 H1874 0.930 . S
C1889 C1884 1.390 . S
C1889 C1888 1.387 . S
H1890 C1902 0.930 . S
H1891 C1904 0.930 . S
H1892 C1905 0.930 . S
H1893 C1909 0.959 . S
H1894 C1909 0.959 . S
H1895 C1909 0.961 . S
H1896 C1910 0.960 . S
H1897 C1910 0.961 . S
H1898 C1910 0.959 . S
H1899 C1913 0.929 . S
H1900 C1914 0.931 . S
H1901 C1916 0.930 . S
C1902 H1890 0.930 . S
C1902 C1903 1.399 . S
C1902 C1907 1.399 . S
C1903 C1902 1.399 . S
C1903 C1904 1.376 . S
C1904 H1891 0.930 . S
C1904 C1903 1.376 . S
C1904 C1905 1.388 . S
C1905 H1892 0.930 . S
C1905 C1904 1.388 . S
C1905 C1906 1.390 . S
C1906 C1905 1.390 . S
C1906 C1907 1.394 . S
C1906 C1912 1.465 . S
C1907 C1902 1.399 . S
C1907 C1906 1.394 . S
C1907 C1908 1.516 . S
C1908 C1907 1.516 . S
C1908 C1909 1.502 . S
C1908 C1910 1.561 . S
C1908 C1911 1.526 . S
C1909 H1893 0.959 . S
C1909 H1894 0.959 . S
C1909 H1895 0.961 . S
C1909 C1908 1.502 . S
C1910 H1896 0.960 . S
C1910 H1897 0.961 . S
C1910 H1898 0.959 . S
C1910 C1908 1.561 . S
C1911 C1908 1.526 . S
C1911 C1912 1.396 . S
C1911 C1916 1.390 . S
C1912 C1906 1.465 . S
C1912 C1911 1.396 . S
C1912 C1913 1.399 . S
C1913 H1899 0.929 . S
C1913 C1912 1.399 . S
C1913 C1914 1.385 . S
C1914 H1900 0.931 . S
C1914 C1913 1.385 . S
C1914 C1915 1.389 . S
C1915 C1914 1.389 . S
C1915 C1916 1.387 . S
C1916 H1901 0.930 . S
C1916 C1911 1.390 . S
C1916 C1915 1.387 . S
H1917 C1929 0.930 . S
H1918 C1931 0.930 . S
H1919 C1932 0.930 . S
H1920 C1936 0.959 . S
H1921 C1936 0.959 . S
H1922 C1936 0.961 . S
H1923 C1937 0.960 . S
H1924 C1937 0.961 . S
H1925 C1937 0.959 . S
H1926 C1940 0.929 . S
H1927 C1941 0.931 . S
H1928 C1943 0.930 . S
C1929 H1917 0.930 . S
C1929 C1930 1.399 . S
C1929 C1934 1.399 . S
C1930 C1929 1.399 . S
C1930 C1931 1.376 . S
C1931 H1918 0.930 . S
C1931 C1930 1.376 . S
C1931 C1932 1.388 . S
C1932 H1919 0.930 . S
C1932 C1931 1.388 . S
C1932 C1933 1.390 . S
C1933 C1932 1.390 . S
C1933 C1934 1.394 . S
C1933 C1939 1.465 . S
C1934 C1929 1.399 . S
C1934 C1933 1.394 . S
C1934 C1935 1.516 . S
C1935 C1934 1.516 . S
C1935 C1936 1.502 . S
C1935 C1937 1.561 . S
C1935 C1938 1.526 . S
C1936 H1920 0.959 . S
C1936 H1921 0.959 . S
C1936 H1922 0.961 . S
C1936 C1935 1.502 . S
C1937 H1923 0.960 . S
C1937 H1924 0.961 . S
C1937 H1925 0.959 . S
C1937 C1935 1.561 . S
C1938 C1935 1.526 . S
C1938 C1939 1.396 . S
C1938 C1943 1.390 . S
C1939 C1933 1.465 . S
C1939 C1938 1.396 . S
C1939 C1940 1.399 . S
C1940 H1926 0.929 . S
C1940 C1939 1.399 . S
C1940 C1941 1.385 . S
C1941 H1927 0.931 . S
C1941 C1940 1.385 . S
C1941 C1942 1.389 . S
C1942 C1941 1.389 . S
C1942 C1943 1.387 . S
C1943 H1928 0.930 . S
C1943 C1938 1.390 . S
C1943 C1942 1.387 . S
H1944 C1956 0.930 . S
H1945 C1958 0.930 . S
H1946 C1959 0.930 . S
H1947 C1963 0.959 . S
H1948 C1963 0.959 . S
H1949 C1963 0.961 . S
H1950 C1964 0.960 . S
H1951 C1964 0.961 . S
H1952 C1964 0.959 . S
H1953 C1967 0.929 . S
H1954 C1968 0.931 . S
H1955 C1970 0.930 . S
C1956 H1944 0.930 . S
C1956 C1957 1.399 . S
C1956 C1961 1.399 . S
C1957 C1956 1.399 . S
C1957 C1958 1.376 . S
C1958 H1945 0.930 . S
C1958 C1957 1.376 . S
C1958 C1959 1.388 . S
C1959 H1946 0.930 . S
C1959 C1958 1.388 . S
C1959 C1960 1.390 . S
C1960 C1959 1.390 . S
C1960 C1961 1.394 . S
C1960 C1966 1.465 . S
C1961 C1956 1.399 . S
C1961 C1960 1.394 . S
C1961 C1962 1.516 . S
C1962 C1961 1.516 . S
C1962 C1963 1.502 . S
C1962 C1964 1.561 . S
C1962 C1965 1.526 . S
C1963 H1947 0.959 . S
C1963 H1948 0.959 . S
C1963 H1949 0.961 . S
C1963 C1962 1.502 . S
C1964 H1950 0.960 . S
C1964 H1951 0.961 . S
C1964 H1952 0.959 . S
C1964 C1962 1.561 . S
C1965 C1962 1.526 . S
C1965 C1966 1.396 . S
C1965 C1970 1.390 . S
C1966 C1960 1.465 . S
C1966 C1965 1.396 . S
C1966 C1967 1.399 . S
C1967 H1953 0.929 . S
C1967 C1966 1.399 . S
C1967 C1968 1.385 . S
C1968 H1954 0.931 . S
C1968 C1967 1.385 . S
C1968 C1969 1.389 . S
C1969 C1968 1.389 . S
C1969 C1970 1.387 . S
C1970 H1955 0.930 . S
C1970 C1965 1.390 . S
C1970 C1969 1.387 . S
H1971 C1983 0.930 . S
H1972 C1985 0.930 . S
H1973 C1986 0.930 . S
H1974 C1990 0.959 . S
H1975 C1990 0.959 . S
H1976 C1990 0.961 . S
H1977 C1991 0.960 . S
H1978 C1991 0.961 . S
H1979 C1991 0.959 . S
H1980 C1994 0.929 . S
H1981 C1995 0.931 . S
H1982 C1997 0.930 . S
C1983 H1971 0.930 . S
C1983 C1984 1.399 . S
C1983 C1988 1.399 . S
C1984 C1983 1.399 . S
C1984 C1985 1.376 . S
C1985 H1972 0.930 . S
C1985 C1984 1.376 . S
C1985 C1986 1.388 . S
C1986 H1973 0.930 . S
C1986 C1985 1.388 . S
C1986 C1987 1.390 . S
C1987 C1986 1.390 . S
C1987 C1988 1.394 . S
C1987 C1993 1.465 . S
C1988 C1983 1.399 . S
C1988 C1987 1.394 . S
C1988 C1989 1.516 . S
C1989 C1988 1.516 . S
C1989 C1990 1.502 . S
C1989 C1991 1.561 . S
C1989 C1992 1.526 . S
C1990 H1974 0.959 . S
C1990 H1975 0.959 . S
C1990 H1976 0.961 . S
C1990 C1989 1.502 . S
C1991 H1977 0.960 . S
C1991 H1978 0.961 . S
C1991 H1979 0.959 . S
C1991 C1989 1.561 . S
C1992 C1989 1.526 . S
C1992 C1993 1.396 . S
C1992 C1997 1.390 . S
C1993 C1987 1.465 . S
C1993 C1992 1.396 . S
C1993 C1994 1.399 . S
C1994 H1980 0.929 . S
C1994 C1993 1.399 . S
C1994 C1995 1.385 . S
C1995 H1981 0.931 . S
C1995 C1994 1.385 . S
C1995 C1996 1.389 . S
C1996 C1995 1.389 . S
C1996 C1997 1.387 . S
C1997 H1982 0.930 . S
C1997 C1992 1.390 . S
C1997 C1996 1.387 . S
H1998 C2010 0.930 . S
H1999 C2012 0.930 . S
H2000 C2013 0.930 . S
H2001 C2017 0.959 . S
H2002 C2017 0.959 . S
H2003 C2017 0.961 . S
H2004 C2018 0.960 . S
H2005 C2018 0.961 . S
H2006 C2018 0.959 . S
H2007 C2021 0.929 . S
H2008 C2022 0.931 . S
H2009 C2024 0.930 . S
C2010 H1998 0.930 . S
C2010 C2011 1.399 . S
C2010 C2015 1.399 . S
C2011 C2010 1.399 . S
C2011 C2012 1.376 . S
C2012 H1999 0.930 . S
C2012 C2011 1.376 . S
C2012 C2013 1.388 . S
C2013 H2000 0.930 . S
C2013 C2012 1.388 . S
C2013 C2014 1.390 . S
C2014 C2013 1.390 . S
C2014 C2015 1.394 . S
C2014 C2020 1.465 . S
C2015 C2010 1.399 . S
C2015 C2014 1.394 . S
C2015 C2016 1.516 . S
C2016 C2015 1.516 . S
C2016 C2017 1.502 . S
C2016 C2018 1.561 . S
C2016 C2019 1.526 . S
C2017 H2001 0.959 . S
C2017 H2002 0.959 . S
C2017 H2003 0.961 . S
C2017 C2016 1.502 . S
C2018 H2004 0.960 . S
C2018 H2005 0.961 . S
C2018 H2006 0.959 . S
C2018 C2016 1.561 . S
C2019 C2016 1.526 . S
C2019 C2020 1.396 . S
C2019 C2024 1.390 . S
C2020 C2014 1.465 . S
C2020 C2019 1.396 . S
C2020 C2021 1.399 . S
C2021 H2007 0.929 . S
C2021 C2020 1.399 . S
C2021 C2022 1.385 . S
C2022 H2008 0.931 . S
C2022 C2021 1.385 . S
C2022 C2023 1.389 . S
C2023 C2022 1.389 . S
C2023 C2024 1.387 . S
C2024 H2009 0.930 . S
C2024 C2019 1.390 . S
C2024 C2023 1.387 . S
H2025 C2037 0.930 . S
H2026 C2039 0.930 . S
H2027 C2040 0.930 . S
H2028 C2044 0.959 . S
H2029 C2044 0.959 . S
H2030 C2044 0.961 . S
H2031 C2045 0.960 . S
H2032 C2045 0.961 . S
H2033 C2045 0.959 . S
H2034 C2048 0.929 . S
H2035 C2049 0.931 . S
H2036 C2051 0.930 . S
C2037 H2025 0.930 . S
C2037 C2038 1.399 . S
C2037 C2042 1.399 . S
C2038 C2037 1.399 . S
C2038 C2039 1.376 . S
C2039 H2026 0.930 . S
C2039 C2038 1.376 . S
C2039 C2040 1.388 . S
C2040 H2027 0.930 . S
C2040 C2039 1.388 . S
C2040 C2041 1.390 . S
C2041 C2040 1.390 . S
C2041 C2042 1.394 . S
C2041 C2047 1.465 . S
C2042 C2037 1.399 . S
C2042 C2041 1.394 . S
C2042 C2043 1.516 . S
C2043 C2042 1.516 . S
C2043 C2044 1.502 . S
C2043 C2045 1.561 . S
C2043 C2046 1.526 . S
C2044 H2028 0.959 . S
C2044 H2029 0.959 . S
C2044 H2030 0.961 . S
C2044 C2043 1.502 . S
C2045 H2031 0.960 . S
C2045 H2032 0.961 . S
C2045 H2033 0.959 . S
C2045 C2043 1.561 . S
C2046 C2043 1.526 . S
C2046 C2047 1.396 . S
C2046 C2051 1.390 . S
C2047 C2041 1.465 . S
C2047 C2046 1.396 . S
C2047 C2048 1.399 . S
C2048 H2034 0.929 . S
C2048 C2047 1.399 . S
C2048 C2049 1.385 . S
C2049 H2035 0.931 . S
C2049 C2048 1.385 . S
C2049 C2050 1.389 . S
C2050 C2049 1.389 . S
C2050 C2051 1.387 . S
C2051 H2036 0.930 . S
C2051 C2046 1.390 . S
C2051 C2050 1.387 . S
H2052 C2064 0.930 . S
H2053 C2066 0.930 . S
H2054 C2067 0.930 . S
H2055 C2071 0.959 . S
H2056 C2071 0.959 . S
H2057 C2071 0.961 . S
H2058 C2072 0.960 . S
H2059 C2072 0.961 . S
H2060 C2072 0.959 . S
H2061 C2075 0.929 . S
H2062 C2076 0.931 . S
H2063 C2078 0.930 . S
C2064 H2052 0.930 . S
C2064 C2065 1.399 . S
C2064 C2069 1.399 . S
C2065 C2064 1.399 . S
C2065 C2066 1.376 . S
C2066 H2053 0.930 . S
C2066 C2065 1.376 . S
C2066 C2067 1.388 . S
C2067 H2054 0.930 . S
C2067 C2066 1.388 . S
C2067 C2068 1.390 . S
C2068 C2067 1.390 . S
C2068 C2069 1.394 . S
C2068 C2074 1.465 . S
C2069 C2064 1.399 . S
C2069 C2068 1.394 . S
C2069 C2070 1.516 . S
C2070 C2069 1.516 . S
C2070 C2071 1.502 . S
C2070 C2072 1.561 . S
C2070 C2073 1.526 . S
C2071 H2055 0.959 . S
C2071 H2056 0.959 . S
C2071 H2057 0.961 . S
C2071 C2070 1.502 . S
C2072 H2058 0.960 . S
C2072 H2059 0.961 . S
C2072 H2060 0.959 . S
C2072 C2070 1.561 . S
C2073 C2070 1.526 . S
C2073 C2074 1.396 . S
C2073 C2078 1.390 . S
C2074 C2068 1.465 . S
C2074 C2073 1.396 . S
C2074 C2075 1.399 . S
C2075 H2061 0.929 . S
C2075 C2074 1.399 . S
C2075 C2076 1.385 . S
C2076 H2062 0.931 . S
C2076 C2075 1.385 . S
C2076 C2077 1.389 . S
C2077 C2076 1.389 . S
C2077 C2078 1.387 . S
C2078 H2063 0.930 . S
C2078 C2073 1.390 . S
C2078 C2077 1.387 . S
H2079 C2091 0.930 . S
H2080 C2093 0.930 . S
H2081 C2094 0.930 . S
H2082 C2098 0.959 . S
H2083 C2098 0.959 . S
H2084 C2098 0.961 . S
H2085 C2099 0.960 . S
H2086 C2099 0.961 . S
H2087 C2099 0.959 . S
H2088 C2102 0.929 . S
H2089 C2103 0.931 . S
H2090 C2105 0.930 . S
C2091 H2079 0.930 . S
C2091 C2092 1.399 . S
C2091 C2096 1.399 . S
C2092 C2091 1.399 . S
C2092 C2093 1.376 . S
C2093 H2080 0.930 . S
C2093 C2092 1.376 . S
C2093 C2094 1.388 . S
C2094 H2081 0.930 . S
C2094 C2093 1.388 . S
C2094 C2095 1.390 . S
C2095 C2094 1.390 . S
C2095 C2096 1.394 . S
C2095 C2101 1.465 . S
C2096 C2091 1.399 . S
C2096 C2095 1.394 . S
C2096 C2097 1.516 . S
C2097 C2096 1.516 . S
C2097 C2098 1.502 . S
C2097 C2099 1.561 . S
C2097 C2100 1.526 . S
C2098 H2082 0.959 . S
C2098 H2083 0.959 . S
C2098 H2084 0.961 . S
C2098 C2097 1.502 . S
C2099 H2085 0.960 . S
C2099 H2086 0.961 . S
C2099 H2087 0.959 . S
C2099 C2097 1.561 . S
C2100 C2097 1.526 . S
C2100 C2101 1.396 . S
C2100 C2105 1.390 . S
C2101 C2095 1.465 . S
C2101 C2100 1.396 . S
C2101 C2102 1.399 . S
C2102 H2088 0.929 . S
C2102 C2101 1.399 . S
C2102 C2103 1.385 . S
C2103 H2089 0.931 . S
C2103 C2102 1.385 . S
C2103 C2104 1.389 . S
C2104 C2103 1.389 . S
C2104 C2105 1.387 . S
C2105 H2090 0.930 . S
C2105 C2100 1.390 . S
C2105 C2104 1.387 . S
H2106 C2118 0.930 . S
H2107 C2120 0.930 . S
H2108 C2121 0.930 . S
H2109 C2125 0.959 . S
H2110 C2125 0.959 . S
H2111 C2125 0.961 . S
H2112 C2126 0.960 . S
H2113 C2126 0.961 . S
H2114 C2126 0.959 . S
H2115 C2129 0.929 . S
H2116 C2130 0.931 . S
H2117 C2132 0.930 . S
C2118 H2106 0.930 . S
C2118 C2119 1.399 . S
C2118 C2123 1.399 . S
C2119 C2118 1.399 . S
C2119 C2120 1.376 . S
C2120 H2107 0.930 . S
C2120 C2119 1.376 . S
C2120 C2121 1.388 . S
C2121 H2108 0.930 . S
C2121 C2120 1.388 . S
C2121 C2122 1.390 . S
C2122 C2121 1.390 . S
C2122 C2123 1.394 . S
C2122 C2128 1.465 . S
C2123 C2118 1.399 . S
C2123 C2122 1.394 . S
C2123 C2124 1.516 . S
C2124 C2123 1.516 . S
C2124 C2125 1.502 . S
C2124 C2126 1.561 . S
C2124 C2127 1.526 . S
C2125 H2109 0.959 . S
C2125 H2110 0.959 . S
C2125 H2111 0.961 . S
C2125 C2124 1.502 . S
C2126 H2112 0.960 . S
C2126 H2113 0.961 . S
C2126 H2114 0.959 . S
C2126 C2124 1.561 . S
C2127 C2124 1.526 . S
C2127 C2128 1.396 . S
C2127 C2132 1.390 . S
C2128 C2122 1.465 . S
C2128 C2127 1.396 . S
C2128 C2129 1.399 . S
C2129 H2115 0.929 . S
C2129 C2128 1.399 . S
C2129 C2130 1.385 . S
C2130 H2116 0.931 . S
C2130 C2129 1.385 . S
C2130 C2131 1.389 . S
C2131 C2130 1.389 . S
C2131 C2132 1.387 . S
C2132 H2117 0.930 . S
C2132 C2127 1.390 . S
C2132 C2131 1.387 . S
H2133 C2145 0.930 . S
H2134 C2147 0.930 . S
H2135 C2148 0.930 . S
H2136 C2152 0.959 . S
H2137 C2152 0.959 . S
H2138 C2152 0.961 . S
H2139 C2153 0.960 . S
H2140 C2153 0.961 . S
H2141 C2153 0.959 . S
H2142 C2156 0.929 . S
H2143 C2157 0.931 . S
H2144 C2159 0.930 . S
C2145 H2133 0.930 . S
C2145 C2146 1.399 . S
C2145 C2150 1.399 . S
C2146 C2145 1.399 . S
C2146 C2147 1.376 . S
C2147 H2134 0.930 . S
C2147 C2146 1.376 . S
C2147 C2148 1.388 . S
C2148 H2135 0.930 . S
C2148 C2147 1.388 . S
C2148 C2149 1.390 . S
C2149 C2148 1.390 . S
C2149 C2150 1.394 . S
C2149 C2155 1.465 . S
C2150 C2145 1.399 . S
C2150 C2149 1.394 . S
C2150 C2151 1.516 . S
C2151 C2150 1.516 . S
C2151 C2152 1.502 . S
C2151 C2153 1.561 . S
C2151 C2154 1.526 . S
C2152 H2136 0.959 . S
C2152 H2137 0.959 . S
C2152 H2138 0.961 . S
C2152 C2151 1.502 . S
C2153 H2139 0.960 . S
C2153 H2140 0.961 . S
C2153 H2141 0.959 . S
C2153 C2151 1.561 . S
C2154 C2151 1.526 . S
C2154 C2155 1.396 . S
C2154 C2159 1.390 . S
C2155 C2149 1.465 . S
C2155 C2154 1.396 . S
C2155 C2156 1.399 . S
C2156 H2142 0.929 . S
C2156 C2155 1.399 . S
C2156 C2157 1.385 . S
C2157 H2143 0.931 . S
C2157 C2156 1.385 . S
C2157 C2158 1.389 . S
C2158 C2157 1.389 . S
C2158 C2159 1.387 . S
C2159 H2144 0.930 . S
C2159 C2154 1.390 . S
C2159 C2158 1.387 . S
H2160 C2172 0.930 . S
H2161 C2174 0.930 . S
H2162 C2175 0.930 . S
H2163 C2179 0.959 . S
H2164 C2179 0.959 . S
H2165 C2179 0.961 . S
H2166 C2180 0.960 . S
H2167 C2180 0.961 . S
H2168 C2180 0.959 . S
H2169 C2183 0.929 . S
H2170 C2184 0.931 . S
H2171 C2186 0.930 . S
C2172 H2160 0.930 . S
C2172 C2173 1.399 . S
C2172 C2177 1.399 . S
C2173 C2172 1.399 . S
C2173 C2174 1.376 . S
C2174 H2161 0.930 . S
C2174 C2173 1.376 . S
C2174 C2175 1.388 . S
C2175 H2162 0.930 . S
C2175 C2174 1.388 . S
C2175 C2176 1.390 . S
C2176 C2175 1.390 . S
C2176 C2177 1.394 . S
C2176 C2182 1.465 . S
C2177 C2172 1.399 . S
C2177 C2176 1.394 . S
C2177 C2178 1.516 . S
C2178 C2177 1.516 . S
C2178 C2179 1.502 . S
C2178 C2180 1.561 . S
C2178 C2181 1.526 . S
C2179 H2163 0.959 . S
C2179 H2164 0.959 . S
C2179 H2165 0.961 . S
C2179 C2178 1.502 . S
C2180 H2166 0.960 . S
C2180 H2167 0.961 . S
C2180 H2168 0.959 . S
C2180 C2178 1.561 . S
C2181 C2178 1.526 . S
C2181 C2182 1.396 . S
C2181 C2186 1.390 . S
C2182 C2176 1.465 . S
C2182 C2181 1.396 . S
C2182 C2183 1.399 . S
C2183 H2169 0.929 . S
C2183 C2182 1.399 . S
C2183 C2184 1.385 . S
C2184 H2170 0.931 . S
C2184 C2183 1.385 . S
C2184 C2185 1.389 . S
C2185 C2184 1.389 . S
C2185 C2186 1.387 . S
C2186 H2171 0.930 . S
C2186 C2181 1.390 . S
C2186 C2185 1.387 . S
H2187 C2199 0.930 . S
H2188 C2201 0.930 . S
H2189 C2202 0.930 . S
H2190 C2206 0.959 . S
H2191 C2206 0.959 . S
H2192 C2206 0.961 . S
H2193 C2207 0.960 . S
H2194 C2207 0.961 . S
H2195 C2207 0.959 . S
H2196 C2210 0.929 . S
H2197 C2211 0.931 . S
H2198 C2213 0.930 . S
C2199 H2187 0.930 . S
C2199 C2200 1.399 . S
C2199 C2204 1.399 . S
C2200 C2199 1.399 . S
C2200 C2201 1.376 . S
C2201 H2188 0.930 . S
C2201 C2200 1.376 . S
C2201 C2202 1.388 . S
C2202 H2189 0.930 . S
C2202 C2201 1.388 . S
C2202 C2203 1.390 . S
C2203 C2202 1.390 . S
C2203 C2204 1.394 . S
C2203 C2209 1.465 . S
C2204 C2199 1.399 . S
C2204 C2203 1.394 . S
C2204 C2205 1.516 . S
C2205 C2204 1.516 . S
C2205 C2206 1.502 . S
C2205 C2207 1.561 . S
C2205 C2208 1.526 . S
C2206 H2190 0.959 . S
C2206 H2191 0.959 . S
C2206 H2192 0.961 . S
C2206 C2205 1.502 . S
C2207 H2193 0.960 . S
C2207 H2194 0.961 . S
C2207 H2195 0.959 . S
C2207 C2205 1.561 . S
C2208 C2205 1.526 . S
C2208 C2209 1.396 . S
C2208 C2213 1.390 . S
C2209 C2203 1.465 . S
C2209 C2208 1.396 . S
C2209 C2210 1.399 . S
C2210 H2196 0.929 . S
C2210 C2209 1.399 . S
C2210 C2211 1.385 . S
C2211 H2197 0.931 . S
C2211 C2210 1.385 . S
C2211 C2212 1.389 . S
C2212 C2211 1.389 . S
C2212 C2213 1.387 . S
C2213 H2198 0.930 . S
C2213 C2208 1.390 . S
C2213 C2212 1.387 . S
H2214 C2226 0.930 . S
H2215 C2228 0.930 . S
H2216 C2229 0.930 . S
H2217 C2233 0.959 . S
H2218 C2233 0.959 . S
H2219 C2233 0.961 . S
H2220 C2234 0.960 . S
H2221 C2234 0.961 . S
H2222 C2234 0.959 . S
H2223 C2237 0.929 . S
H2224 C2238 0.931 . S
H2225 C2240 0.930 . S
C2226 H2214 0.930 . S
C2226 C2227 1.399 . S
C2226 C2231 1.399 . S
C2227 C2226 1.399 . S
C2227 C2228 1.376 . S
C2228 H2215 0.930 . S
C2228 C2227 1.376 . S
C2228 C2229 1.388 . S
C2229 H2216 0.930 . S
C2229 C2228 1.388 . S
C2229 C2230 1.390 . S
C2230 C2229 1.390 . S
C2230 C2231 1.394 . S
C2230 C2236 1.465 . S
C2231 C2226 1.399 . S
C2231 C2230 1.394 . S
C2231 C2232 1.516 . S
C2232 C2231 1.516 . S
C2232 C2233 1.502 . S
C2232 C2234 1.561 . S
C2232 C2235 1.526 . S
C2233 H2217 0.959 . S
C2233 H2218 0.959 . S
C2233 H2219 0.961 . S
C2233 C2232 1.502 . S
C2234 H2220 0.960 . S
C2234 H2221 0.961 . S
C2234 H2222 0.959 . S
C2234 C2232 1.561 . S
C2235 C2232 1.526 . S
C2235 C2236 1.396 . S
C2235 C2240 1.390 . S
C2236 C2230 1.465 . S
C2236 C2235 1.396 . S
C2236 C2237 1.399 . S
C2237 H2223 0.929 . S
C2237 C2236 1.399 . S
C2237 C2238 1.385 . S
C2238 H2224 0.931 . S
C2238 C2237 1.385 . S
C2238 C2239 1.389 . S
C2239 C2238 1.389 . S
C2239 C2240 1.387 . S
C2240 H2225 0.930 . S
C2240 C2235 1.390 . S
C2240 C2239 1.387 . S
H2241 C2253 0.930 . S
H2242 C2255 0.930 . S
H2243 C2256 0.930 . S
H2244 C2260 0.959 . S
H2245 C2260 0.959 . S
H2246 C2260 0.961 . S
H2247 C2261 0.960 . S
H2248 C2261 0.961 . S
H2249 C2261 0.959 . S
H2250 C2264 0.929 . S
H2251 C2265 0.931 . S
H2252 C2267 0.930 . S
C2253 H2241 0.930 . S
C2253 C2254 1.399 . S
C2253 C2258 1.399 . S
C2254 C2253 1.399 . S
C2254 C2255 1.376 . S
C2255 H2242 0.930 . S
C2255 C2254 1.376 . S
C2255 C2256 1.388 . S
C2256 H2243 0.930 . S
C2256 C2255 1.388 . S
C2256 C2257 1.390 . S
C2257 C2256 1.390 . S
C2257 C2258 1.394 . S
C2257 C2263 1.465 . S
C2258 C2253 1.399 . S
C2258 C2257 1.394 . S
C2258 C2259 1.516 . S
C2259 C2258 1.516 . S
C2259 C2260 1.502 . S
C2259 C2261 1.561 . S
C2259 C2262 1.526 . S
C2260 H2244 0.959 . S
C2260 H2245 0.959 . S
C2260 H2246 0.961 . S
C2260 C2259 1.502 . S
C2261 H2247 0.960 . S
C2261 H2248 0.961 . S
C2261 H2249 0.959 . S
C2261 C2259 1.561 . S
C2262 C2259 1.526 . S
C2262 C2263 1.396 . S
C2262 C2267 1.390 . S
C2263 C2257 1.465 . S
C2263 C2262 1.396 . S
C2263 C2264 1.399 . S
C2264 H2250 0.929 . S
C2264 C2263 1.399 . S
C2264 C2265 1.385 . S
C2265 H2251 0.931 . S
C2265 C2264 1.385 . S
C2265 C2266 1.389 . S
C2266 C2265 1.389 . S
C2266 C2267 1.387 . S
C2267 H2252 0.930 . S
C2267 C2262 1.390 . S
C2267 C2266 1.387 . S
H2268 C2280 0.930 . S
H2269 C2282 0.930 . S
H2270 C2283 0.930 . S
H2271 C2287 0.959 . S
H2272 C2287 0.959 . S
H2273 C2287 0.961 . S
H2274 C2288 0.960 . S
H2275 C2288 0.961 . S
H2276 C2288 0.959 . S
H2277 C2291 0.929 . S
H2278 C2292 0.931 . S
H2279 C2294 0.930 . S
C2280 H2268 0.930 . S
C2280 C2281 1.399 . S
C2280 C2285 1.399 . S
C2281 C2280 1.399 . S
C2281 C2282 1.376 . S
C2282 H2269 0.930 . S
C2282 C2281 1.376 . S
C2282 C2283 1.388 . S
C2283 H2270 0.930 . S
C2283 C2282 1.388 . S
C2283 C2284 1.390 . S
C2284 C2283 1.390 . S
C2284 C2285 1.394 . S
C2284 C2290 1.465 . S
C2285 C2280 1.399 . S
C2285 C2284 1.394 . S
C2285 C2286 1.516 . S
C2286 C2285 1.516 . S
C2286 C2287 1.502 . S
C2286 C2288 1.561 . S
C2286 C2289 1.526 . S
C2287 H2271 0.959 . S
C2287 H2272 0.959 . S
C2287 H2273 0.961 . S
C2287 C2286 1.502 . S
C2288 H2274 0.960 . S
C2288 H2275 0.961 . S
C2288 H2276 0.959 . S
C2288 C2286 1.561 . S
C2289 C2286 1.526 . S
C2289 C2290 1.396 . S
C2289 C2294 1.390 . S
C2290 C2284 1.465 . S
C2290 C2289 1.396 . S
C2290 C2291 1.399 . S
C2291 H2277 0.929 . S
C2291 C2290 1.399 . S
C2291 C2292 1.385 . S
C2292 H2278 0.931 . S
C2292 C2291 1.385 . S
C2292 C2293 1.389 . S
C2293 C2292 1.389 . S
C2293 C2294 1.387 . S
C2294 H2279 0.930 . S
C2294 C2289 1.390 . S
C2294 C2293 1.387 . S
H2295 C2307 0.930 . S
H2296 C2309 0.930 . S
H2297 C2310 0.930 . S
H2298 C2314 0.959 . S
H2299 C2314 0.959 . S
H2300 C2314 0.961 . S
H2301 C2315 0.960 . S
H2302 C2315 0.961 . S
H2303 C2315 0.959 . S
H2304 C2318 0.929 . S
H2305 C2319 0.931 . S
H2306 C2321 0.930 . S
C2307 H2295 0.930 . S
C2307 C2308 1.399 . S
C2307 C2312 1.399 . S
C2308 C2307 1.399 . S
C2308 C2309 1.376 . S
C2309 H2296 0.930 . S
C2309 C2308 1.376 . S
C2309 C2310 1.388 . S
C2310 H2297 0.930 . S
C2310 C2309 1.388 . S
C2310 C2311 1.390 . S
C2311 C2310 1.390 . S
C2311 C2312 1.394 . S
C2311 C2317 1.465 . S
C2312 C2307 1.399 . S
C2312 C2311 1.394 . S
C2312 C2313 1.516 . S
C2313 C2312 1.516 . S
C2313 C2314 1.502 . S
C2313 C2315 1.561 . S
C2313 C2316 1.526 . S
C2314 H2298 0.959 . S
C2314 H2299 0.959 . S
C2314 H2300 0.961 . S
C2314 C2313 1.502 . S
C2315 H2301 0.960 . S
C2315 H2302 0.961 . S
C2315 H2303 0.959 . S
C2315 C2313 1.561 . S
C2316 C2313 1.526 . S
C2316 C2317 1.396 . S
C2316 C2321 1.390 . S
C2317 C2311 1.465 . S
C2317 C2316 1.396 . S
C2317 C2318 1.399 . S
C2318 H2304 0.929 . S
C2318 C2317 1.399 . S
C2318 C2319 1.385 . S
C2319 H2305 0.931 . S
C2319 C2318 1.385 . S
C2319 C2320 1.389 . S
C2320 C2319 1.389 . S
C2320 C2321 1.387 . S
C2321 H2306 0.930 . S
C2321 C2316 1.390 . S
C2321 C2320 1.387 . S
H2322 C2334 0.930 . S
H2323 C2336 0.930 . S
H2324 C2337 0.930 . S
H2325 C2341 0.959 . S
H2326 C2341 0.959 . S
H2327 C2341 0.961 . S
H2328 C2342 0.960 . S
H2329 C2342 0.961 . S
H2330 C2342 0.959 . S
H2331 C2345 0.929 . S
H2332 C2346 0.931 . S
H2333 C2348 0.930 . S
C2334 H2322 0.930 . S
C2334 C2335 1.399 . S
C2334 C2339 1.399 . S
C2335 C2334 1.399 . S
C2335 C2336 1.376 . S
C2336 H2323 0.930 . S
C2336 C2335 1.376 . S
C2336 C2337 1.388 . S
C2337 H2324 0.930 . S
C2337 C2336 1.388 . S
C2337 C2338 1.390 . S
C2338 C2337 1.390 . S
C2338 C2339 1.394 . S
C2338 C2344 1.465 . S
C2339 C2334 1.399 . S
C2339 C2338 1.394 . S
C2339 C2340 1.516 . S
C2340 C2339 1.516 . S
C2340 C2341 1.502 . S
C2340 C2342 1.561 . S
C2340 C2343 1.526 . S
C2341 H2325 0.959 . S
C2341 H2326 0.959 . S
C2341 H2327 0.961 . S
C2341 C2340 1.502 . S
C2342 H2328 0.960 . S
C2342 H2329 0.961 . S
C2342 H2330 0.959 . S
C2342 C2340 1.561 . S
C2343 C2340 1.526 . S
C2343 C2344 1.396 . S
C2343 C2348 1.390 . S
C2344 C2338 1.465 . S
C2344 C2343 1.396 . S
C2344 C2345 1.399 . S
C2345 H2331 0.929 . S
C2345 C2344 1.399 . S
C2345 C2346 1.385 . S
C2346 H2332 0.931 . S
C2346 C2345 1.385 . S
C2346 C2347 1.389 . S
C2347 C2346 1.389 . S
C2347 C2348 1.387 . S
C2348 H2333 0.930 . S
C2348 C2343 1.390 . S
C2348 C2347 1.387 . S
H2349 C2361 0.930 . S
H2350 C2363 0.930 . S
H2351 C2364 0.930 . S
H2352 C2368 0.959 . S
H2353 C2368 0.959 . S
H2354 C2368 0.961 . S
H2355 C2369 0.960 . S
H2356 C2369 0.961 . S
H2357 C2369 0.959 . S
H2358 C2372 0.929 . S
H2359 C2373 0.931 . S
H2360 C2375 0.930 . S
C2361 H2349 0.930 . S
C2361 C2362 1.399 . S
C2361 C2366 1.399 . S
C2362 C2361 1.399 . S
C2362 C2363 1.376 . S
C2363 H2350 0.930 . S
C2363 C2362 1.376 . S
C2363 C2364 1.388 . S
C2364 H2351 0.930 . S
C2364 C2363 1.388 . S
C2364 C2365 1.390 . S
C2365 C2364 1.390 . S
C2365 C2366 1.394 . S
C2365 C2371 1.465 . S
C2366 C2361 1.399 . S
C2366 C2365 1.394 . S
C2366 C2367 1.516 . S
C2367 C2366 1.516 . S
C2367 C2368 1.502 . S
C2367 C2369 1.561 . S
C2367 C2370 1.526 . S
C2368 H2352 0.959 . S
C2368 H2353 0.959 . S
C2368 H2354 0.961 . S
C2368 C2367 1.502 . S
C2369 H2355 0.960 . S
C2369 H2356 0.961 . S
C2369 H2357 0.959 . S
C2369 C2367 1.561 . S
C2370 C2367 1.526 . S
C2370 C2371 1.396 . S
C2370 C2375 1.390 . S
C2371 C2365 1.465 . S
C2371 C2370 1.396 . S
C2371 C2372 1.399 . S
C2372 H2358 0.929 . S
C2372 C2371 1.399 . S
C2372 C2373 1.385 . S
C2373 H2359 0.931 . S
C2373 C2372 1.385 . S
C2373 C2374 1.389 . S
C2374 C2373 1.389 . S
C2374 C2375 1.387 . S
C2375 H2360 0.930 . S
C2375 C2370 1.390 . S
C2375 C2374 1.387 . S
H2376 C2388 0.930 . S
H2377 C2390 0.930 . S
H2378 C2391 0.930 . S
H2379 C2395 0.959 . S
H2380 C2395 0.959 . S
H2381 C2395 0.961 . S
H2382 C2396 0.960 . S
H2383 C2396 0.961 . S
H2384 C2396 0.959 . S
H2385 C2399 0.929 . S
H2386 C2400 0.931 . S
H2387 C2402 0.930 . S
C2388 H2376 0.930 . S
C2388 C2389 1.399 . S
C2388 C2393 1.399 . S
C2389 C2388 1.399 . S
C2389 C2390 1.376 . S
C2390 H2377 0.930 . S
C2390 C2389 1.376 . S
C2390 C2391 1.388 . S
C2391 H2378 0.930 . S
C2391 C2390 1.388 . S
C2391 C2392 1.390 . S
C2392 C2391 1.390 . S
C2392 C2393 1.394 . S
C2392 C2398 1.465 . S
C2393 C2388 1.399 . S
C2393 C2392 1.394 . S
C2393 C2394 1.516 . S
C2394 C2393 1.516 . S
C2394 C2395 1.502 . S
C2394 C2396 1.561 . S
C2394 C2397 1.526 . S
C2395 H2379 0.959 . S
C2395 H2380 0.959 . S
C2395 H2381 0.961 . S
C2395 C2394 1.502 . S
C2396 H2382 0.960 . S
C2396 H2383 0.961 . S
C2396 H2384 0.959 . S
C2396 C2394 1.561 . S
C2397 C2394 1.526 . S
C2397 C2398 1.396 . S
C2397 C2402 1.390 . S
C2398 C2392 1.465 . S
C2398 C2397 1.396 . S
C2398 C2399 1.399 . S
C2399 H2385 0.929 . S
C2399 C2398 1.399 . S
C2399 C2400 1.385 . S
C2400 H2386 0.931 . S
C2400 C2399 1.385 . S
C2400 C2401 1.389 . S
C2401 C2400 1.389 . S
C2401 C2402 1.387 . S
C2402 H2387 0.930 . S
C2402 C2397 1.390 . S
C2402 C2401 1.387 . S
H2403 C2415 0.930 . S
H2404 C2417 0.930 . S
H2405 C2418 0.930 . S
H2406 C2422 0.959 . S
H2407 C2422 0.959 . S
H2408 C2422 0.961 . S
H2409 C2423 0.960 . S
H2410 C2423 0.961 . S
H2411 C2423 0.959 . S
H2412 C2426 0.929 . S
H2413 C2427 0.931 . S
H2414 C2429 0.930 . S
C2415 H2403 0.930 . S
C2415 C2416 1.399 . S
C2415 C2420 1.399 . S
C2416 C2415 1.399 . S
C2416 C2417 1.376 . S
C2417 H2404 0.930 . S
C2417 C2416 1.376 . S
C2417 C2418 1.388 . S
C2418 H2405 0.930 . S
C2418 C2417 1.388 . S
C2418 C2419 1.390 . S
C2419 C2418 1.390 . S
C2419 C2420 1.394 . S
C2419 C2425 1.465 . S
C2420 C2415 1.399 . S
C2420 C2419 1.394 . S
C2420 C2421 1.516 . S
C2421 C2420 1.516 . S
C2421 C2422 1.502 . S
C2421 C2423 1.561 . S
C2421 C2424 1.526 . S
C2422 H2406 0.959 . S
C2422 H2407 0.959 . S
C2422 H2408 0.961 . S
C2422 C2421 1.502 . S
C2423 H2409 0.960 . S
C2423 H2410 0.961 . S
C2423 H2411 0.959 . S
C2423 C2421 1.561 . S
C2424 C2421 1.526 . S
C2424 C2425 1.396 . S
C2424 C2429 1.390 . S
C2425 C2419 1.465 . S
C2425 C2424 1.396 . S
C2425 C2426 1.399 . S
C2426 H2412 0.929 . S
C2426 C2425 1.399 . S
C2426 C2427 1.385 . S
C2427 H2413 0.931 . S
C2427 C2426 1.385 . S
C2427 C2428 1.389 . S
C2428 C2427 1.389 . S
C2428 C2429 1.387 . S
C2429 H2414 0.930 . S
C2429 C2424 1.390 . S
C2429 C2428 1.387 . S
H2430 C2442 0.930 . S
H2431 C2444 0.930 . S
H2432 C2445 0.930 . S
H2433 C2449 0.959 . S
H2434 C2449 0.959 . S
H2435 C2449 0.961 . S
H2436 C2450 0.960 . S
H2437 C2450 0.961 . S
H2438 C2450 0.959 . S
H2439 C2453 0.929 . S
H2440 C2454 0.931 . S
H2441 C2456 0.930 . S
C2442 H2430 0.930 . S
C2442 C2443 1.399 . S
C2442 C2447 1.399 . S
C2443 C2442 1.399 . S
C2443 C2444 1.376 . S
C2444 H2431 0.930 . S
C2444 C2443 1.376 . S
C2444 C2445 1.388 . S
C2445 H2432 0.930 . S
C2445 C2444 1.388 . S
C2445 C2446 1.390 . S
C2446 C2445 1.390 . S
C2446 C2447 1.394 . S
C2446 C2452 1.465 . S
C2447 C2442 1.399 . S
C2447 C2446 1.394 . S
C2447 C2448 1.516 . S
C2448 C2447 1.516 . S
C2448 C2449 1.502 . S
C2448 C2450 1.561 . S
C2448 C2451 1.526 . S
C2449 H2433 0.959 . S
C2449 H2434 0.959 . S
C2449 H2435 0.961 . S
C2449 C2448 1.502 . S
C2450 H2436 0.960 . S
C2450 H2437 0.961 . S
C2450 H2438 0.959 . S
C2450 C2448 1.561 . S
C2451 C2448 1.526 . S
C2451 C2452 1.396 . S
C2451 C2456 1.390 . S
C2452 C2446 1.465 . S
C2452 C2451 1.396 . S
C2452 C2453 1.399 . S
C2453 H2439 0.929 . S
C2453 C2452 1.399 . S
C2453 C2454 1.385 . S
C2454 H2440 0.931 . S
C2454 C2453 1.385 . S
C2454 C2455 1.389 . S
C2455 C2454 1.389 . S
C2455 C2456 1.387 . S
C2456 H2441 0.930 . S
C2456 C2451 1.390 . S
C2456 C2455 1.387 . S
H2457 C2469 0.930 . S
H2458 C2471 0.930 . S
H2459 C2472 0.930 . S
H2460 C2476 0.959 . S
H2461 C2476 0.959 . S
H2462 C2476 0.961 . S
H2463 C2477 0.960 . S
H2464 C2477 0.961 . S
H2465 C2477 0.959 . S
H2466 C2480 0.929 . S
H2467 C2481 0.931 . S
H2468 C2483 0.930 . S
C2469 H2457 0.930 . S
C2469 C2470 1.399 . S
C2469 C2474 1.399 . S
C2470 C2469 1.399 . S
C2470 C2471 1.376 . S
C2471 H2458 0.930 . S
C2471 C2470 1.376 . S
C2471 C2472 1.388 . S
C2472 H2459 0.930 . S
C2472 C2471 1.388 . S
C2472 C2473 1.390 . S
C2473 C2472 1.390 . S
C2473 C2474 1.394 . S
C2473 C2479 1.465 . S
C2474 C2469 1.399 . S
C2474 C2473 1.394 . S
C2474 C2475 1.516 . S
C2475 C2474 1.516 . S
C2475 C2476 1.502 . S
C2475 C2477 1.561 . S
C2475 C2478 1.526 . S
C2476 H2460 0.959 . S
C2476 H2461 0.959 . S
C2476 H2462 0.961 . S
C2476 C2475 1.502 . S
C2477 H2463 0.960 . S
C2477 H2464 0.961 . S
C2477 H2465 0.959 . S
C2477 C2475 1.561 . S
C2478 C2475 1.526 . S
C2478 C2479 1.396 . S
C2478 C2483 1.390 . S
C2479 C2473 1.465 . S
C2479 C2478 1.396 . S
C2479 C2480 1.399 . S
C2480 H2466 0.929 . S
C2480 C2479 1.399 . S
C2480 C2481 1.385 . S
C2481 H2467 0.931 . S
C2481 C2480 1.385 . S
C2481 C2482 1.389 . S
C2482 C2481 1.389 . S
C2482 C2483 1.387 . S
C2483 H2468 0.930 . S
C2483 C2478 1.390 . S
C2483 C2482 1.387 . S
H2484 C2496 0.930 . S
H2485 C2498 0.930 . S
H2486 C2499 0.930 . S
H2487 C2503 0.959 . S
H2488 C2503 0.959 . S
H2489 C2503 0.961 . S
H2490 C2504 0.960 . S
H2491 C2504 0.961 . S
H2492 C2504 0.959 . S
H2493 C2507 0.929 . S
H2494 C2508 0.931 . S
H2495 C2510 0.930 . S
C2496 H2484 0.930 . S
C2496 C2497 1.399 . S
C2496 C2501 1.399 . S
C2497 C2496 1.399 . S
C2497 C2498 1.376 . S
C2498 H2485 0.930 . S
C2498 C2497 1.376 . S
C2498 C2499 1.388 . S
C2499 H2486 0.930 . S
C2499 C2498 1.388 . S
C2499 C2500 1.390 . S
C2500 C2499 1.390 . S
C2500 C2501 1.394 . S
C2500 C2506 1.465 . S
C2501 C2496 1.399 . S
C2501 C2500 1.394 . S
C2501 C2502 1.516 . S
C2502 C2501 1.516 . S
C2502 C2503 1.502 . S
C2502 C2504 1.561 . S
C2502 C2505 1.526 . S
C2503 H2487 0.959 . S
C2503 H2488 0.959 . S
C2503 H2489 0.961 . S
C2503 C2502 1.502 . S
C2504 H2490 0.960 . S
C2504 H2491 0.961 . S
C2504 H2492 0.959 . S
C2504 C2502 1.561 . S
C2505 C2502 1.526 . S
C2505 C2506 1.396 . S
C2505 C2510 1.390 . S
C2506 C2500 1.465 . S
C2506 C2505 1.396 . S
C2506 C2507 1.399 . S
C2507 H2493 0.929 . S
C2507 C2506 1.399 . S
C2507 C2508 1.385 . S
C2508 H2494 0.931 . S
C2508 C2507 1.385 . S
C2508 C2509 1.389 . S
C2509 C2508 1.389 . S
C2509 C2510 1.387 . S
C2510 H2495 0.930 . S
C2510 C2505 1.390 . S
C2510 C2509 1.387 . S
H2511 C2523 0.930 . S
H2512 C2525 0.930 . S
H2513 C2526 0.930 . S
H2514 C2530 0.959 . S
H2515 C2530 0.959 . S
H2516 C2530 0.961 . S
H2517 C2531 0.960 . S
H2518 C2531 0.961 . S
H2519 C2531 0.959 . S
H2520 C2534 0.929 . S
H2521 C2535 0.931 . S
H2522 C2537 0.930 . S
C2523 H2511 0.930 . S
C2523 C2524 1.399 . S
C2523 C2528 1.399 . S
C2524 C2523 1.399 . S
C2524 C2525 1.376 . S
C2525 H2512 0.930 . S
C2525 C2524 1.376 . S
C2525 C2526 1.388 . S
C2526 H2513 0.930 . S
C2526 C2525 1.388 . S
C2526 C2527 1.390 . S
C2527 C2526 1.390 . S
C2527 C2528 1.394 . S
C2527 C2533 1.465 . S
C2528 C2523 1.399 . S
C2528 C2527 1.394 . S
C2528 C2529 1.516 . S
C2529 C2528 1.516 . S
C2529 C2530 1.502 . S
C2529 C2531 1.561 . S
C2529 C2532 1.526 . S
C2530 H2514 0.959 . S
C2530 H2515 0.959 . S
C2530 H2516 0.961 . S
C2530 C2529 1.502 . S
C2531 H2517 0.960 . S
C2531 H2518 0.961 . S
C2531 H2519 0.959 . S
C2531 C2529 1.561 . S
C2532 C2529 1.526 . S
C2532 C2533 1.396 . S
C2532 C2537 1.390 . S
C2533 C2527 1.465 . S
C2533 C2532 1.396 . S
C2533 C2534 1.399 . S
C2534 H2520 0.929 . S
C2534 C2533 1.399 . S
C2534 C2535 1.385 . S
C2535 H2521 0.931 . S
C2535 C2534 1.385 . S
C2535 C2536 1.389 . S
C2536 C2535 1.389 . S
C2536 C2537 1.387 . S
C2537 H2522 0.930 . S
C2537 C2532 1.390 . S
C2537 C2536 1.387 . S
H2538 C2550 0.930 . S
H2539 C2552 0.930 . S
H2540 C2553 0.930 . S
H2541 C2557 0.959 . S
H2542 C2557 0.959 . S
H2543 C2557 0.961 . S
H2544 C2558 0.960 . S
H2545 C2558 0.961 . S
H2546 C2558 0.959 . S
H2547 C2561 0.929 . S
H2548 C2562 0.931 . S
H2549 C2564 0.930 . S
C2550 H2538 0.930 . S
C2550 C2551 1.399 . S
C2550 C2555 1.399 . S
C2551 C2550 1.399 . S
C2551 C2552 1.376 . S
C2552 H2539 0.930 . S
C2552 C2551 1.376 . S
C2552 C2553 1.388 . S
C2553 H2540 0.930 . S
C2553 C2552 1.388 . S
C2553 C2554 1.390 . S
C2554 C2553 1.390 . S
C2554 C2555 1.394 . S
C2554 C2560 1.465 . S
C2555 C2550 1.399 . S
C2555 C2554 1.394 . S
C2555 C2556 1.516 . S
C2556 C2555 1.516 . S
C2556 C2557 1.502 . S
C2556 C2558 1.561 . S
C2556 C2559 1.526 . S
C2557 H2541 0.959 . S
C2557 H2542 0.959 . S
C2557 H2543 0.961 . S
C2557 C2556 1.502 . S
C2558 H2544 0.960 . S
C2558 H2545 0.961 . S
C2558 H2546 0.959 . S
C2558 C2556 1.561 . S
C2559 C2556 1.526 . S
C2559 C2560 1.396 . S
C2559 C2564 1.390 . S
C2560 C2554 1.465 . S
C2560 C2559 1.396 . S
C2560 C2561 1.399 . S
C2561 H2547 0.929 . S
C2561 C2560 1.399 . S
C2561 C2562 1.385 . S
C2562 H2548 0.931 . S
C2562 C2561 1.385 . S
C2562 C2563 1.389 . S
C2563 C2562 1.389 . S
C2563 C2564 1.387 . S
C2564 H2549 0.930 . S
C2564 C2559 1.390 . S
C2564 C2563 1.387 . S
H2565 C2577 0.930 . S
H2566 C2579 0.930 . S
H2567 C2580 0.930 . S
H2568 C2584 0.959 . S
H2569 C2584 0.959 . S
H2570 C2584 0.961 . S
H2571 C2585 0.960 . S
H2572 C2585 0.961 . S
H2573 C2585 0.959 . S
H2574 C2588 0.929 . S
H2575 C2589 0.931 . S
H2576 C2591 0.930 . S
C2577 H2565 0.930 . S
C2577 C2578 1.399 . S
C2577 C2582 1.399 . S
C2578 C2577 1.399 . S
C2578 C2579 1.376 . S
C2579 H2566 0.930 . S
C2579 C2578 1.376 . S
C2579 C2580 1.388 . S
C2580 H2567 0.930 . S
C2580 C2579 1.388 . S
C2580 C2581 1.390 . S
C2581 C2580 1.390 . S
C2581 C2582 1.394 . S
C2581 C2587 1.465 . S
C2582 C2577 1.399 . S
C2582 C2581 1.394 . S
C2582 C2583 1.516 . S
C2583 C2582 1.516 . S
C2583 C2584 1.502 . S
C2583 C2585 1.561 . S
C2583 C2586 1.526 . S
C2584 H2568 0.959 . S
C2584 H2569 0.959 . S
C2584 H2570 0.961 . S
C2584 C2583 1.502 . S
C2585 H2571 0.960 . S
C2585 H2572 0.961 . S
C2585 H2573 0.959 . S
C2585 C2583 1.561 . S
C2586 C2583 1.526 . S
C2586 C2587 1.396 . S
C2586 C2591 1.390 . S
C2587 C2581 1.465 . S
C2587 C2586 1.396 . S
C2587 C2588 1.399 . S
C2588 H2574 0.929 . S
C2588 C2587 1.399 . S
C2588 C2589 1.385 . S
C2589 H2575 0.931 . S
C2589 C2588 1.385 . S
C2589 C2590 1.389 . S
C2590 C2589 1.389 . S
C2590 C2591 1.387 . S
C2591 H2576 0.930 . S
C2591 C2586 1.390 . S
C2591 C2590 1.387 . S
H2592 C2604 0.930 . S
H2593 C2606 0.930 . S
H2594 C2607 0.930 . S
H2595 C2611 0.959 . S
H2596 C2611 0.959 . S
H2597 C2611 0.961 . S
H2598 C2612 0.960 . S
H2599 C2612 0.961 . S
H2600 C2612 0.959 . S
H2601 C2615 0.929 . S
H2602 C2616 0.931 . S
H2603 C2618 0.930 . S
C2604 H2592 0.930 . S
C2604 C2605 1.399 . S
C2604 C2609 1.399 . S
C2605 C2604 1.399 . S
C2605 C2606 1.376 . S
C2606 H2593 0.930 . S
C2606 C2605 1.376 . S
C2606 C2607 1.388 . S
C2607 H2594 0.930 . S
C2607 C2606 1.388 . S
C2607 C2608 1.390 . S
C2608 C2607 1.390 . S
C2608 C2609 1.394 . S
C2608 C2614 1.465 . S
C2609 C2604 1.399 . S
C2609 C2608 1.394 . S
C2609 C2610 1.516 . S
C2610 C2609 1.516 . S
C2610 C2611 1.502 . S
C2610 C2612 1.561 . S
C2610 C2613 1.526 . S
C2611 H2595 0.959 . S
C2611 H2596 0.959 . S
C2611 H2597 0.961 . S
C2611 C2610 1.502 . S
C2612 H2598 0.960 . S
C2612 H2599 0.961 . S
C2612 H2600 0.959 . S
C2612 C2610 1.561 . S
C2613 C2610 1.526 . S
C2613 C2614 1.396 . S
C2613 C2618 1.390 . S
C2614 C2608 1.465 . S
C2614 C2613 1.396 . S
C2614 C2615 1.399 . S
C2615 H2601 0.929 . S
C2615 C2614 1.399 . S
C2615 C2616 1.385 . S
C2616 H2602 0.931 . S
C2616 C2615 1.385 . S
C2616 C2617 1.389 . S
C2617 C2616 1.389 . S
C2617 C2618 1.387 . S
C2618 H2603 0.930 . S
C2618 C2613 1.390 . S
C2618 C2617 1.387 . S
H2619 C2631 0.918 1_554 S
H2620 C2633 0.930 . S
H2621 C2634 0.930 . S
H2622 C2638 0.959 . S
H2623 C2638 0.959 . S
H2624 C2638 0.961 . S
H2625 C2639 0.960 1_554 S
H2626 C2639 0.961 1_554 S
H2627 C2639 0.959 . S
H2628 C2642 0.929 . S
H2629 C2643 0.931 . S
H2630 C2645 0.930 . S
C2631 H2619 0.918 1_556 S
C2631 C2632 1.404 . S
C2631 C2636 1.406 . S
C2632 C2631 1.404 . S
C2632 C2633 1.376 . S
C2633 H2620 0.930 . S
C2633 C2632 1.376 . S
C2633 C2634 1.388 . S
C2634 H2621 0.930 . S
C2634 C2633 1.388 . S
C2634 C2635 1.390 . S
C2635 C2634 1.390 . S
C2635 C2636 1.394 . S
C2635 C2641 1.465 . S
C2636 C2631 1.406 . S
C2636 C2635 1.394 . S
C2636 C2637 1.516 . S
C2637 C2636 1.516 . S
C2637 C2638 1.502 1_556 S
C2637 C2639 1.561 . S
C2637 C2640 1.526 . S
C2638 H2622 0.959 . S
C2638 H2623 0.959 . S
C2638 H2624 0.961 . S
C2638 C2637 1.502 1_554 S
C2639 H2625 0.960 1_556 S
C2639 H2626 0.961 1_556 S
C2639 H2627 0.959 . S
C2639 C2637 1.561 . S
C2640 C2637 1.526 . S
C2640 C2641 1.396 . S
C2640 C2645 1.390 . S
C2641 C2635 1.465 . S
C2641 C2640 1.396 . S
C2641 C2642 1.399 . S
C2642 H2628 0.929 . S
C2642 C2641 1.399 . S
C2642 C2643 1.385 . S
C2643 H2629 0.931 . S
C2643 C2642 1.385 . S
C2643 C2644 1.389 . S
C2644 C2643 1.389 . S
C2644 C2645 1.387 . S
C2645 H2630 0.930 . S
C2645 C2640 1.390 . S
C2645 C2644 1.387 . S
H2646 C2658 0.930 1_554 S
H2647 C2660 0.930 . S
H2648 C2661 0.930 . S
H2649 C2665 0.959 . S
H2650 C2665 0.959 . S
H2651 C2665 0.961 1_554 S
H2652 C2666 0.960 . S
H2653 C2666 0.961 . S
H2654 C2666 0.959 . S
H2655 C2669 0.929 . S
H2656 C2670 0.931 . S
H2657 C2672 0.930 . S
C2658 H2646 0.930 1_556 S
C2658 C2659 1.399 . S
C2658 C2663 1.399 . S
C2659 C2658 1.399 . S
C2659 C2660 1.376 . S
C2660 H2647 0.930 . S
C2660 C2659 1.376 . S
C2660 C2661 1.388 . S
C2661 H2648 0.930 . S
C2661 C2660 1.388 . S
C2661 C2662 1.390 . S
C2662 C2661 1.390 . S
C2662 C2663 1.394 . S
C2662 C2668 1.465 . S
C2663 C2658 1.399 . S
C2663 C2662 1.394 . S
C2663 C2664 1.516 . S
C2664 C2663 1.516 . S
C2664 C2665 1.502 . S
C2664 C2666 1.561 . S
C2664 C2667 1.526 . S
C2665 H2649 0.959 . S
C2665 H2650 0.959 . S
C2665 H2651 0.961 1_556 S
C2665 C2664 1.502 . S
C2666 H2652 0.960 . S
C2666 H2653 0.961 . S
C2666 H2654 0.959 . S
C2666 C2664 1.561 . S
C2667 C2664 1.526 . S
C2667 C2668 1.396 . S
C2667 C2672 1.390 . S
C2668 C2662 1.465 . S
C2668 C2667 1.396 . S
C2668 C2669 1.399 . S
C2669 H2655 0.929 . S
C2669 C2668 1.399 . S
C2669 C2670 1.385 . S
C2670 H2656 0.931 . S
C2670 C2669 1.385 . S
C2670 C2671 1.389 . S
C2671 C2670 1.389 . S
C2671 C2672 1.387 . S
C2672 H2657 0.930 . S
C2672 C2667 1.390 . S
C2672 C2671 1.387 . S
H2673 C2685 0.930 . S
H2674 C2687 0.930 . S
H2675 C2688 0.930 . S
H2676 C2692 0.959 . S
H2677 C2692 0.959 . S
H2678 C2692 0.961 . S
H2679 C2693 0.960 . S
H2680 C2693 0.961 . S
H2681 C2693 0.959 . S
H2682 C2696 0.929 . S
H2683 C2697 0.931 . S
H2684 C2699 0.950 . S
C2685 H2673 0.930 . S
C2685 C2686 1.399 . S
C2685 C2690 1.399 . S
C2686 C2685 1.399 . S
C2686 C2687 1.376 . S
C2687 H2674 0.930 . S
C2687 C2686 1.376 . S
C2687 C2688 1.388 1_554 S
C2688 H2675 0.930 . S
C2688 C2687 1.388 1_556 S
C2688 C2689 1.390 . S
C2689 C2688 1.390 . S
C2689 C2690 1.394 1_556 S
C2689 C2695 1.465 . S
C2690 C2685 1.399 . S
C2690 C2689 1.394 1_554 S
C2690 C2691 1.516 . S
C2691 C2690 1.516 . S
C2691 C2692 1.502 . S
C2691 C2693 1.561 . S
C2691 C2694 1.526 1_554 S
C2692 H2676 0.959 . S
C2692 H2677 0.959 . S
C2692 H2678 0.961 . S
C2692 C2691 1.502 . S
C2693 H2679 0.960 . S
C2693 H2680 0.961 . S
C2693 H2681 0.959 . S
C2693 C2691 1.561 . S
C2694 C2691 1.526 1_556 S
C2694 C2695 1.396 . S
C2694 C2699 1.390 . S
C2695 C2689 1.465 . S
C2695 C2694 1.396 . S
C2695 C2696 1.399 . S
C2696 H2682 0.929 . S
C2696 C2695 1.399 . S
C2696 C2697 1.385 . S
C2697 H2683 0.931 . S
C2697 C2696 1.385 . S
C2697 C2698 1.389 . S
C2698 C2697 1.389 . S
C2698 C2699 1.387 . S
C2699 H2684 0.950 . S
C2699 C2694 1.390 . S
C2699 C2698 1.387 . S
H2700 C2712 0.930 . S
H2701 C2714 0.930 . S
H2702 C2715 0.930 . S
H2703 C2719 0.959 . S
H2704 C2719 0.959 . S
H2705 C2719 0.961 1_554 S
H2706 C2720 0.960 . S
H2707 C2720 0.961 . S
H2708 C2720 0.979 . S
H2709 C2723 0.929 . S
H2710 C2724 0.931 . S
H2711 C2726 0.930 . S
C2712 H2700 0.930 . S
C2712 C2713 1.405 . S
C2712 C2717 1.399 1_554 S
C2713 C2712 1.405 . S
C2713 C2714 1.347 1_554 S
C2714 H2701 0.930 . S
C2714 C2713 1.347 1_556 S
C2714 C2715 1.388 . S
C2715 H2702 0.930 . S
C2715 C2714 1.388 . S
C2715 C2716 1.390 . S
C2716 C2715 1.390 . S
C2716 C2717 1.394 . S
C2716 C2722 1.465 . S
C2717 C2712 1.399 1_556 S
C2717 C2716 1.394 . S
C2717 C2718 1.516 . S
C2718 C2717 1.516 . S
C2718 C2719 1.502 . S
C2718 C2720 1.561 1_556 S
C2718 C2721 1.526 . S
C2719 H2703 0.959 . S
C2719 H2704 0.959 . S
C2719 H2705 0.961 1_556 S
C2719 C2718 1.502 . S
C2720 H2706 0.960 . S
C2720 H2707 0.961 . S
C2720 H2708 0.979 . S
C2720 C2718 1.561 1_554 S
C2721 C2718 1.526 . S
C2721 C2722 1.396 . S
C2721 C2726 1.390 . S
C2722 C2716 1.465 . S
C2722 C2721 1.396 . S
C2722 C2723 1.399 . S
C2723 H2709 0.929 . S
C2723 C2722 1.399 . S
C2723 C2724 1.385 . S
C2724 H2710 0.931 . S
C2724 C2723 1.385 . S
C2724 C2725 1.389 . S
C2725 C2724 1.389 . S
C2725 C2726 1.387 . S
C2726 H2711 0.930 . S
C2726 C2721 1.390 . S
C2726 C2725 1.387 . S
H2727 C2739 0.930 . S
H2728 C2741 0.930 . S
H2729 C2742 0.930 . S
H2730 C2746 0.959 . S
H2731 C2746 0.959 . S
H2732 C2746 0.961 . S
H2733 C2747 0.960 . S
H2734 C2747 0.961 . S
H2735 C2747 0.959 . S
H2736 C2750 0.929 . S
H2737 C2751 0.931 . S
H2738 C2753 0.930 . S
C2739 H2727 0.930 . S
C2739 C2740 1.399 . S
C2739 C2744 1.399 . S
C2740 C2739 1.399 . S
C2740 C2741 1.376 . S
C2741 H2728 0.930 . S
C2741 C2740 1.376 . S
C2741 C2742 1.388 . S
C2742 H2729 0.930 . S
C2742 C2741 1.388 . S
C2742 C2743 1.390 . S
C2743 C2742 1.390 . S
C2743 C2744 1.394 . S
C2743 C2749 1.465 . S
C2744 C2739 1.399 . S
C2744 C2743 1.394 . S
C2744 C2745 1.516 . S
C2745 C2744 1.516 . S
C2745 C2746 1.502 . S
C2745 C2747 1.561 . S
C2745 C2748 1.526 . S
C2746 H2730 0.959 . S
C2746 H2731 0.959 . S
C2746 H2732 0.961 . S
C2746 C2745 1.502 . S
C2747 H2733 0.960 . S
C2747 H2734 0.961 . S
C2747 H2735 0.959 . S
C2747 C2745 1.561 . S
C2748 C2745 1.526 . S
C2748 C2749 1.396 . S
C2748 C2753 1.390 . S
C2749 C2743 1.465 . S
C2749 C2748 1.396 . S
C2749 C2750 1.399 . S
C2750 H2736 0.929 . S
C2750 C2749 1.399 . S
C2750 C2751 1.385 . S
C2751 H2737 0.931 . S
C2751 C2750 1.385 . S
C2751 C2752 1.389 . S
C2752 C2751 1.389 . S
C2752 C2753 1.387 . S
C2753 H2738 0.930 . S
C2753 C2748 1.390 . S
C2753 C2752 1.387 . S
H2754 C2766 0.930 . S
H2755 C2768 0.930 . S
H2756 C2769 0.930 . S
H2757 C2773 0.959 1_554 S
H2758 C2773 0.959 . S
H2759 C2773 0.961 1_554 S
H2760 C2774 0.960 . S
H2761 C2774 0.961 . S
H2762 C2774 0.959 . S
H2763 C2777 0.929 . S
H2764 C2778 0.931 . S
H2765 C2780 0.930 . S
C2766 H2754 0.930 . S
C2766 C2767 1.399 . S
C2766 C2771 1.399 1_554 S
C2767 C2766 1.399 . S
C2767 C2768 1.376 . S
C2768 H2755 0.930 . S
C2768 C2767 1.376 . S
C2768 C2769 1.388 1_554 S
C2769 H2756 0.930 . S
C2769 C2768 1.388 1_556 S
C2769 C2770 1.390 . S
C2770 C2769 1.390 . S
C2770 C2771 1.394 . S
C2770 C2776 1.465 . S
C2771 C2766 1.399 1_556 S
C2771 C2770 1.394 . S
C2771 C2772 1.516 . S
C2772 C2771 1.516 . S
C2772 C2773 1.502 . S
C2772 C2774 1.561 . S
C2772 C2775 1.526 . S
C2773 H2757 0.959 1_556 S
C2773 H2758 0.959 . S
C2773 H2759 0.961 1_556 S
C2773 C2772 1.502 . S
C2774 H2760 0.960 . S
C2774 H2761 0.961 . S
C2774 H2762 0.959 . S
C2774 C2772 1.561 . S
C2775 C2772 1.526 . S
C2775 C2776 1.396 . S
C2775 C2780 1.390 . S
C2776 C2770 1.465 . S
C2776 C2775 1.396 . S
C2776 C2777 1.399 . S
C2777 H2763 0.929 . S
C2777 C2776 1.399 . S
C2777 C2778 1.385 . S
C2778 H2764 0.931 . S
C2778 C2777 1.385 . S
C2778 C2779 1.389 . S
C2779 C2778 1.389 . S
C2779 C2780 1.387 . S
C2780 H2765 0.930 . S
C2780 C2775 1.390 . S
C2780 C2779 1.387 . S
H2781 C2793 0.930 . S
H2782 C2795 0.930 . S
H2783 C2796 0.930 . S
H2784 C2800 0.959 . S
H2785 C2800 0.959 . S
H2786 C2800 0.961 . S
H2787 C2801 0.960 . S
H2788 C2801 0.961 . S
H2789 C2801 0.959 . S
H2790 C2804 0.929 . S
H2791 C2805 0.931 . S
H2792 C2807 0.930 . S
C2793 H2781 0.930 . S
C2793 C2794 1.399 . S
C2793 C2798 1.399 . S
C2794 C2793 1.399 . S
C2794 C2795 1.376 . S
C2795 H2782 0.930 . S
C2795 C2794 1.376 . S
C2795 C2796 1.388 . S
C2796 H2783 0.930 . S
C2796 C2795 1.388 . S
C2796 C2797 1.390 . S
C2797 C2796 1.390 . S
C2797 C2798 1.394 . S
C2797 C2803 1.465 . S
C2798 C2793 1.399 . S
C2798 C2797 1.394 . S
C2798 C2799 1.516 . S
C2799 C2798 1.516 . S
C2799 C2800 1.502 . S
C2799 C2801 1.561 . S
C2799 C2802 1.526 . S
C2800 H2784 0.959 . S
C2800 H2785 0.959 . S
C2800 H2786 0.961 . S
C2800 C2799 1.502 . S
C2801 H2787 0.960 . S
C2801 H2788 0.961 . S
C2801 H2789 0.959 . S
C2801 C2799 1.561 . S
C2802 C2799 1.526 . S
C2802 C2803 1.396 . S
C2802 C2807 1.390 . S
C2803 C2797 1.465 . S
C2803 C2802 1.396 . S
C2803 C2804 1.399 . S
C2804 H2790 0.929 . S
C2804 C2803 1.399 . S
C2804 C2805 1.385 . S
C2805 H2791 0.931 . S
C2805 C2804 1.385 . S
C2805 C2806 1.389 . S
C2806 C2805 1.389 . S
C2806 C2807 1.387 . S
C2807 H2792 0.930 . S
C2807 C2802 1.390 . S
C2807 C2806 1.387 . S
H2808 C2820 0.930 . S
H2809 C2822 0.930 . S
H2810 C2823 0.930 . S
H2811 C2827 0.959 . S
H2812 C2827 0.959 . S
H2813 C2827 0.961 . S
H2814 C2828 0.960 . S
H2815 C2828 0.961 . S
H2816 C2828 0.959 . S
H2817 C2831 0.929 . S
H2818 C2832 0.931 . S
H2819 C2834 0.930 . S
C2820 H2808 0.930 . S
C2820 C2821 1.399 . S
C2820 C2825 1.399 . S
C2821 C2820 1.399 . S
C2821 C2822 1.376 . S
C2822 H2809 0.930 . S
C2822 C2821 1.376 . S
C2822 C2823 1.388 . S
C2823 H2810 0.930 . S
C2823 C2822 1.388 . S
C2823 C2824 1.390 . S
C2824 C2823 1.390 . S
C2824 C2825 1.394 . S
C2824 C2830 1.465 . S
C2825 C2820 1.399 . S
C2825 C2824 1.394 . S
C2825 C2826 1.516 . S
C2826 C2825 1.516 . S
C2826 C2827 1.502 . S
C2826 C2828 1.561 . S
C2826 C2829 1.526 . S
C2827 H2811 0.959 . S
C2827 H2812 0.959 . S
C2827 H2813 0.961 . S
C2827 C2826 1.502 . S
C2828 H2814 0.960 . S
C2828 H2815 0.961 . S
C2828 H2816 0.959 . S
C2828 C2826 1.561 . S
C2829 C2826 1.526 . S
C2829 C2830 1.396 . S
C2829 C2834 1.390 . S
C2830 C2824 1.465 . S
C2830 C2829 1.396 . S
C2830 C2831 1.399 . S
C2831 H2817 0.929 . S
C2831 C2830 1.399 . S
C2831 C2832 1.385 . S
C2832 H2818 0.931 . S
C2832 C2831 1.385 . S
C2832 C2833 1.389 . S
C2833 C2832 1.389 . S
C2833 C2834 1.387 . S
C2834 H2819 0.930 . S
C2834 C2829 1.390 . S
C2834 C2833 1.387 . S
H2835 C2847 0.930 . S
H2836 C2849 0.930 . S
H2837 C2850 0.930 . S
H2838 C2854 0.959 . S
H2839 C2854 0.959 . S
H2840 C2854 0.961 . S
H2841 C2855 0.960 . S
H2842 C2855 0.961 . S
H2843 C2855 0.959 . S
H2844 C2858 0.929 . S
H2845 C2859 0.931 . S
H2846 C2861 0.930 . S
C2847 H2835 0.930 . S
C2847 C2848 1.399 . S
C2847 C2852 1.399 . S
C2848 C2847 1.399 . S
C2848 C2849 1.376 . S
C2849 H2836 0.930 . S
C2849 C2848 1.376 . S
C2849 C2850 1.388 . S
C2850 H2837 0.930 . S
C2850 C2849 1.388 . S
C2850 C2851 1.390 . S
C2851 C2850 1.390 . S
C2851 C2852 1.394 . S
C2851 C2857 1.465 . S
C2852 C2847 1.399 . S
C2852 C2851 1.394 . S
C2852 C2853 1.516 . S
C2853 C2852 1.516 . S
C2853 C2854 1.502 . S
C2853 C2855 1.561 . S
C2853 C2856 1.526 . S
C2854 H2838 0.959 . S
C2854 H2839 0.959 . S
C2854 H2840 0.961 . S
C2854 C2853 1.502 . S
C2855 H2841 0.960 . S
C2855 H2842 0.961 . S
C2855 H2843 0.959 . S
C2855 C2853 1.561 . S
C2856 C2853 1.526 . S
C2856 C2857 1.396 . S
C2856 C2861 1.390 . S
C2857 C2851 1.465 . S
C2857 C2856 1.396 . S
C2857 C2858 1.399 . S
C2858 H2844 0.929 . S
C2858 C2857 1.399 . S
C2858 C2859 1.385 . S
C2859 H2845 0.931 . S
C2859 C2858 1.385 . S
C2859 C2860 1.389 . S
C2860 C2859 1.389 . S
C2860 C2861 1.387 . S
C2861 H2846 0.930 . S
C2861 C2856 1.390 . S
C2861 C2860 1.387 . S
H2862 C2874 0.930 . S
H2863 C2876 0.930 . S
H2864 C2877 0.930 . S
H2865 C2881 0.959 . S
H2866 C2881 0.959 . S
H2867 C2881 0.961 . S
H2868 C2882 0.960 . S
H2869 C2882 0.961 . S
H2870 C2882 0.959 . S
H2871 C2885 0.929 . S
H2872 C2886 0.931 . S
H2873 C2888 0.930 . S
C2874 H2862 0.930 . S
C2874 C2875 1.399 . S
C2874 C2879 1.399 . S
C2875 C2874 1.399 . S
C2875 C2876 1.376 . S
C2876 H2863 0.930 . S
C2876 C2875 1.376 . S
C2876 C2877 1.388 . S
C2877 H2864 0.930 . S
C2877 C2876 1.388 . S
C2877 C2878 1.390 . S
C2878 C2877 1.390 . S
C2878 C2879 1.394 . S
C2878 C2884 1.465 . S
C2879 C2874 1.399 . S
C2879 C2878 1.394 . S
C2879 C2880 1.516 . S
C2880 C2879 1.516 . S
C2880 C2881 1.502 . S
C2880 C2882 1.561 . S
C2880 C2883 1.526 . S
C2881 H2865 0.959 . S
C2881 H2866 0.959 . S
C2881 H2867 0.961 . S
C2881 C2880 1.502 . S
C2882 H2868 0.960 . S
C2882 H2869 0.961 . S
C2882 H2870 0.959 . S
C2882 C2880 1.561 . S
C2883 C2880 1.526 . S
C2883 C2884 1.396 . S
C2883 C2888 1.390 . S
C2884 C2878 1.465 . S
C2884 C2883 1.396 . S
C2884 C2885 1.399 . S
C2885 H2871 0.929 . S
C2885 C2884 1.399 . S
C2885 C2886 1.385 . S
C2886 H2872 0.931 . S
C2886 C2885 1.385 . S
C2886 C2887 1.389 . S
C2887 C2886 1.389 . S
C2887 C2888 1.387 . S
C2888 H2873 0.930 . S
C2888 C2883 1.390 . S
C2888 C2887 1.387 . S
H2889 C2901 0.930 . S
H2890 C2903 0.930 . S
H2891 C2904 0.930 . S
H2892 C2908 0.959 . S
H2893 C2908 0.959 . S
H2894 C2908 0.961 . S
H2895 C2909 0.960 . S
H2896 C2909 0.961 . S
H2897 C2909 0.959 . S
H2898 C2912 0.929 . S
H2899 C2913 0.931 . S
H2900 C2915 0.930 . S
C2901 H2889 0.930 . S
C2901 C2902 1.399 . S
C2901 C2906 1.399 . S
C2902 C2901 1.399 . S
C2902 C2903 1.376 . S
C2903 H2890 0.930 . S
C2903 C2902 1.376 . S
C2903 C2904 1.388 . S
C2904 H2891 0.930 . S
C2904 C2903 1.388 . S
C2904 C2905 1.390 . S
C2905 C2904 1.390 . S
C2905 C2906 1.394 . S
C2905 C2911 1.465 . S
C2906 C2901 1.399 . S
C2906 C2905 1.394 . S
C2906 C2907 1.516 . S
C2907 C2906 1.516 . S
C2907 C2908 1.502 . S
C2907 C2909 1.561 . S
C2907 C2910 1.526 . S
C2908 H2892 0.959 . S
C2908 H2893 0.959 . S
C2908 H2894 0.961 . S
C2908 C2907 1.502 . S
C2909 H2895 0.960 . S
C2909 H2896 0.961 . S
C2909 H2897 0.959 . S
C2909 C2907 1.561 . S
C2910 C2907 1.526 . S
C2910 C2911 1.396 . S
C2910 C2915 1.390 . S
C2911 C2905 1.465 . S
C2911 C2910 1.396 . S
C2911 C2912 1.399 . S
C2912 H2898 0.929 . S
C2912 C2911 1.399 . S
C2912 C2913 1.385 . S
C2913 H2899 0.931 . S
C2913 C2912 1.385 . S
C2913 C2914 1.389 . S
C2914 C2913 1.389 . S
C2914 C2915 1.387 . S
C2915 H2900 0.930 . S
C2915 C2910 1.390 . S
C2915 C2914 1.387 . S
H2916 C2928 0.930 1_455 S
H2917 C2930 0.930 . S
H2918 C2931 0.930 . S
H2919 C2935 0.959 . S
H2920 C2935 0.959 . S
H2921 C2935 0.961 . S
H2922 C2936 0.960 . S
H2923 C2936 0.961 . S
H2924 C2936 0.959 . S
H2925 C2939 0.929 . S
H2926 C2940 0.931 . S
H2927 C2942 0.930 . S
C2928 H2916 0.930 1_655 S
C2928 C2929 1.398 1_655 S
C2928 C2933 1.399 . S
C2929 C2928 1.398 1_455 S
C2929 C2930 1.372 1_455 S
C2930 H2917 0.930 . S
C2930 C2929 1.372 1_655 S
C2930 C2931 1.388 . S
C2931 H2918 0.930 . S
C2931 C2930 1.388 . S
C2931 C2932 1.390 . S
C2932 C2931 1.390 . S
C2932 C2933 1.394 . S
C2932 C2938 1.465 . S
C2933 C2928 1.399 . S
C2933 C2932 1.394 . S
C2933 C2934 1.516 . S
C2934 C2933 1.516 . S
C2934 C2935 1.502 . S
C2934 C2936 1.561 . S
C2934 C2937 1.526 . S
C2935 H2919 0.959 . S
C2935 H2920 0.959 . S
C2935 H2921 0.961 . S
C2935 C2934 1.502 . S
C2936 H2922 0.960 . S
C2936 H2923 0.961 . S
C2936 H2924 0.959 . S
C2936 C2934 1.561 . S
C2937 C2934 1.526 . S
C2937 C2938 1.396 . S
C2937 C2942 1.390 . S
C2938 C2932 1.465 . S
C2938 C2937 1.396 . S
C2938 C2939 1.399 . S
C2939 H2925 0.929 . S
C2939 C2938 1.399 . S
C2939 C2940 1.385 . S
C2940 H2926 0.931 . S
C2940 C2939 1.385 . S
C2940 C2941 1.389 . S
C2941 C2940 1.389 . S
C2941 C2942 1.387 . S
C2942 H2927 0.930 . S
C2942 C2937 1.390 . S
C2942 C2941 1.387 . S
H2943 C2955 0.930 . S
H2944 C2957 0.930 . S
H2945 C2958 0.930 . S
H2946 C2962 0.959 . S
H2947 C2962 0.959 . S
H2948 C2962 0.961 . S
H2949 C2963 0.960 . S
H2950 C2963 0.961 . S
H2951 C2963 0.959 . S
H2952 C2966 0.929 . S
H2953 C2967 0.931 . S
H2954 C2969 0.930 . S
C2955 H2943 0.930 . S
C2955 C2956 1.399 . S
C2955 C2960 1.399 . S
C2956 C2955 1.399 . S
C2956 C2957 1.376 . S
C2957 H2944 0.930 . S
C2957 C2956 1.376 . S
C2957 C2958 1.388 . S
C2958 H2945 0.930 . S
C2958 C2957 1.388 . S
C2958 C2959 1.390 . S
C2959 C2958 1.390 . S
C2959 C2960 1.394 . S
C2959 C2965 1.465 . S
C2960 C2955 1.399 . S
C2960 C2959 1.394 . S
C2960 C2961 1.516 . S
C2961 C2960 1.516 . S
C2961 C2962 1.502 . S
C2961 C2963 1.561 1_455 S
C2961 C2964 1.526 . S
C2962 H2946 0.959 . S
C2962 H2947 0.959 . S
C2962 H2948 0.961 . S
C2962 C2961 1.502 . S
C2963 H2949 0.960 . S
C2963 H2950 0.961 . S
C2963 H2951 0.959 . S
C2963 C2961 1.561 1_655 S
C2964 C2961 1.526 . S
C2964 C2965 1.396 . S
C2964 C2969 1.390 . S
C2965 C2959 1.465 . S
C2965 C2964 1.396 . S
C2965 C2966 1.399 . S
C2966 H2952 0.929 . S
C2966 C2965 1.399 . S
C2966 C2967 1.385 . S
C2967 H2953 0.931 . S
C2967 C2966 1.385 . S
C2967 C2968 1.389 . S
C2968 C2967 1.389 . S
C2968 C2969 1.387 . S
C2969 H2954 0.930 . S
C2969 C2964 1.390 . S
C2969 C2968 1.387 . S
H2970 C2982 0.930 . S
H2971 C2984 0.930 . S
H2972 C2985 0.930 . S
H2973 C2989 0.959 . S
H2974 C2989 0.959 . S
H2975 C2989 0.961 . S
H2976 C2990 0.960 . S
H2977 C2990 0.961 . S
H2978 C2990 0.959 . S
H2979 C2993 0.929 . S
H2980 C2994 0.931 . S
H2981 C2996 0.930 . S
C2982 H2970 0.930 . S
C2982 C2983 1.399 . S
C2982 C2987 1.399 . S
C2983 C2982 1.399 . S
C2983 C2984 1.376 . S
C2984 H2971 0.930 . S
C2984 C2983 1.376 . S
C2984 C2985 1.388 . S
C2985 H2972 0.930 . S
C2985 C2984 1.388 . S
C2985 C2986 1.390 . S
C2986 C2985 1.390 . S
C2986 C2987 1.394 . S
C2986 C2992 1.465 . S
C2987 C2982 1.399 . S
C2987 C2986 1.394 . S
C2987 C2988 1.516 . S
C2988 C2987 1.516 . S
C2988 C2989 1.502 . S
C2988 C2990 1.561 . S
C2988 C2991 1.526 . S
C2989 H2973 0.959 . S
C2989 H2974 0.959 . S
C2989 H2975 0.961 . S
C2989 C2988 1.502 . S
C2990 H2976 0.960 . S
C2990 H2977 0.961 . S
C2990 H2978 0.959 . S
C2990 C2988 1.561 . S
C2991 C2988 1.526 . S
C2991 C2992 1.396 . S
C2991 C2996 1.390 . S
C2992 C2986 1.465 . S
C2992 C2991 1.396 . S
C2992 C2993 1.399 . S
C2993 H2979 0.929 . S
C2993 C2992 1.399 . S
C2993 C2994 1.385 . S
C2994 H2980 0.931 . S
C2994 C2993 1.385 . S
C2994 C2995 1.389 . S
C2995 C2994 1.389 . S
C2995 C2996 1.387 . S
C2996 H2981 0.930 . S
C2996 C2991 1.390 . S
C2996 C2995 1.387 . S
H2997 C3009 0.930 . S
H2998 C3011 0.930 . S
H2999 C3012 0.930 . S
H3000 C3016 0.959 . S
H3001 C3016 0.959 . S
H3002 C3016 0.961 . S
H3003 C3017 0.960 1_545 S
H3004 C3017 0.961 1_545 S
H3005 C3017 0.959 . S
H3006 C3020 0.929 . S
H3007 C3021 0.931 . S
H3008 C3023 0.930 1_545 S
C3009 H2997 0.930 . S
C3009 C3010 1.399 . S
C3009 C3014 1.399 . S
C3010 C3009 1.399 . S
C3010 C3011 1.376 . S
C3011 H2998 0.930 . S
C3011 C3010 1.376 . S
C3011 C3012 1.388 . S
C3012 H2999 0.930 . S
C3012 C3011 1.388 . S
C3012 C3013 1.390 . S
C3013 C3012 1.390 . S
C3013 C3014 1.394 . S
C3013 C3019 1.465 . S
C3014 C3009 1.399 . S
C3014 C3013 1.394 . S
C3014 C3015 1.516 . S
C3015 C3014 1.516 . S
C3015 C3016 1.502 1_565 S
C3015 C3017 1.561 . S
C3015 C3018 1.526 . S
C3016 H3000 0.959 . S
C3016 H3001 0.959 . S
C3016 H3002 0.961 . S
C3016 C3015 1.502 1_545 S
C3017 H3003 0.960 1_565 S
C3017 H3004 0.961 1_565 S
C3017 H3005 0.959 . S
C3017 C3015 1.561 . S
C3018 C3015 1.526 . S
C3018 C3019 1.396 . S
C3018 C3023 1.390 . S
C3019 C3013 1.465 . S
C3019 C3018 1.396 . S
C3019 C3020 1.399 . S
C3020 H3006 0.929 . S
C3020 C3019 1.399 . S
C3020 C3021 1.385 . S
C3021 H3007 0.931 . S
C3021 C3020 1.385 . S
C3021 C3022 1.389 . S
C3022 C3021 1.389 . S
C3022 C3023 1.387 . S
C3023 H3008 0.930 1_565 S
C3023 C3018 1.390 . S
C3023 C3022 1.387 . S
H3024 C3036 0.930 . S
H3025 C3038 0.930 . S
H3026 C3039 0.930 1_545 S
H3027 C3043 0.959 . S
H3028 C3043 0.959 . S
H3029 C3043 0.961 . S
H3030 C3044 0.960 . S
H3031 C3044 0.961 . S
H3032 C3044 0.959 . S
H3033 C3047 0.929 . S
H3034 C3048 0.931 . S
H3035 C3050 0.930 . S
C3036 H3024 0.930 . S
C3036 C3037 1.399 . S
C3036 C3041 1.399 . S
C3037 C3036 1.399 . S
C3037 C3038 1.376 . S
C3038 H3025 0.930 . S
C3038 C3037 1.376 . S
C3038 C3039 1.388 . S
C3039 H3026 0.930 1_565 S
C3039 C3038 1.388 . S
C3039 C3040 1.390 . S
C3040 C3039 1.390 . S
C3040 C3041 1.394 . S
C3040 C3046 1.465 . S
C3041 C3036 1.399 . S
C3041 C3040 1.394 . S
C3041 C3042 1.516 . S
C3042 C3041 1.516 . S
C3042 C3043 1.502 . S
C3042 C3044 1.561 . S
C3042 C3045 1.526 . S
C3043 H3027 0.959 . S
C3043 H3028 0.959 . S
C3043 H3029 0.961 . S
C3043 C3042 1.502 . S
C3044 H3030 0.960 . S
C3044 H3031 0.961 . S
C3044 H3032 0.959 . S
C3044 C3042 1.561 . S
C3045 C3042 1.526 . S
C3045 C3046 1.396 . S
C3045 C3050 1.390 . S
C3046 C3040 1.465 . S
C3046 C3045 1.396 . S
C3046 C3047 1.399 1_565 S
C3047 H3033 0.929 . S
C3047 C3046 1.399 1_545 S
C3047 C3048 1.385 . S
C3048 H3034 0.931 . S
C3048 C3047 1.385 . S
C3048 C3049 1.420 . S
C3049 C3048 1.420 . S
C3049 C3050 1.327 1_545 S
C3050 H3035 0.930 . S
C3050 C3045 1.390 . S
C3050 C3049 1.327 1_565 S
H3051 C3063 0.930 . S
H3052 C3065 0.930 . S
H3053 C3066 0.930 . S
H3054 C3070 0.959 . S
H3055 C3070 0.959 . S
H3056 C3070 0.961 . S
H3057 C3071 0.960 . S
H3058 C3071 0.961 . S
H3059 C3071 0.959 . S
H3060 C3074 0.929 . S
H3061 C3075 0.931 . S
H3062 C3077 0.930 . S
C3063 H3051 0.930 . S
C3063 C3064 1.399 . S
C3063 C3068 1.399 . S
C3064 C3063 1.399 . S
C3064 C3065 1.376 . S
C3065 H3052 0.930 . S
C3065 C3064 1.376 . S
C3065 C3066 1.388 . S
C3066 H3053 0.930 . S
C3066 C3065 1.388 . S
C3066 C3067 1.390 . S
C3067 C3066 1.390 . S
C3067 C3068 1.394 . S
C3067 C3073 1.465 . S
C3068 C3063 1.399 . S
C3068 C3067 1.394 . S
C3068 C3069 1.516 1_455 S
C3069 C3068 1.516 1_655 S
C3069 C3070 1.502 . S
C3069 C3071 1.561 . S
C3069 C3072 1.531 1_655 S
C3070 H3054 0.959 . S
C3070 H3055 0.959 . S
C3070 H3056 0.961 . S
C3070 C3069 1.502 . S
C3071 H3057 0.960 . S
C3071 H3058 0.961 . S
C3071 H3059 0.959 . S
C3071 C3069 1.561 . S
C3072 C3069 1.531 1_455 S
C3072 C3073 1.391 . S
C3072 C3077 1.389 1_455 S
C3073 C3067 1.465 . S
C3073 C3072 1.391 . S
C3073 C3074 1.399 . S
C3074 H3060 0.929 . S
C3074 C3073 1.399 . S
C3074 C3075 1.385 . S
C3075 H3061 0.931 . S
C3075 C3074 1.385 . S
C3075 C3076 1.389 . S
C3076 C3075 1.389 . S
C3076 C3077 1.387 1_455 S
C3077 H3062 0.930 . S
C3077 C3072 1.389 1_655 S
C3077 C3076 1.387 1_655 S
H3078 C3090 0.930 . S
H3079 C3092 0.930 . S
H3080 C3093 0.930 . S
H3081 C3097 0.959 . S
H3082 C3097 0.959 . S
H3083 C3097 0.961 . S
H3084 C3098 0.960 . S
H3085 C3098 0.961 . S
H3086 C3098 0.959 . S
H3087 C3101 0.929 . S
H3088 C3102 0.931 . S
H3089 C3104 0.930 . S
C3090 H3078 0.930 . S
C3090 C3091 1.399 . S
C3090 C3095 1.399 . S
C3091 C3090 1.399 . S
C3091 C3092 1.376 . S
C3092 H3079 0.930 . S
C3092 C3091 1.376 . S
C3092 C3093 1.388 . S
C3093 H3080 0.930 . S
C3093 C3092 1.388 . S
C3093 C3094 1.390 . S
C3094 C3093 1.390 . S
C3094 C3095 1.394 . S
C3094 C3100 1.465 . S
C3095 C3090 1.399 . S
C3095 C3094 1.394 . S
C3095 C3096 1.516 . S
C3096 C3095 1.516 . S
C3096 C3097 1.502 . S
C3096 C3098 1.561 . S
C3096 C3099 1.526 . S
C3097 H3081 0.959 . S
C3097 H3082 0.959 . S
C3097 H3083 0.961 . S
C3097 C3096 1.502 . S
C3098 H3084 0.960 . S
C3098 H3085 0.961 . S
C3098 H3086 0.959 . S
C3098 C3096 1.561 . S
C3099 C3096 1.526 . S
C3099 C3100 1.396 . S
C3099 C3104 1.390 . S
C3100 C3094 1.465 . S
C3100 C3099 1.396 . S
C3100 C3101 1.399 . S
C3101 H3087 0.929 . S
C3101 C3100 1.399 . S
C3101 C3102 1.385 . S
C3102 H3088 0.931 . S
C3102 C3101 1.385 . S
C3102 C3103 1.389 . S
C3103 C3102 1.389 . S
C3103 C3104 1.387 . S
C3104 H3089 0.930 . S
C3104 C3099 1.390 . S
C3104 C3103 1.387 . S
H3105 C3117 0.930 . S
H3106 C3119 0.930 . S
H3107 C3120 0.930 . S
H3108 C3124 0.959 . S
H3109 C3124 0.959 . S
H3110 C3124 0.961 . S
H3111 C3125 0.960 . S
H3112 C3125 0.961 . S
H3113 C3125 0.959 . S
H3114 C3128 0.929 . S
H3115 C3129 0.931 . S
H3116 C3131 0.930 . S
C3117 H3105 0.930 . S
C3117 C3118 1.399 . S
C3117 C3122 1.399 . S
C3118 C3117 1.399 . S
C3118 C3119 1.376 . S
C3119 H3106 0.930 . S
C3119 C3118 1.376 . S
C3119 C3120 1.388 . S
C3120 H3107 0.930 . S
C3120 C3119 1.388 . S
C3120 C3121 1.390 . S
C3121 C3120 1.390 . S
C3121 C3122 1.394 . S
C3121 C3127 1.465 . S
C3122 C3117 1.399 . S
C3122 C3121 1.394 . S
C3122 C3123 1.516 . S
C3123 C3122 1.516 . S
C3123 C3124 1.502 . S
C3123 C3125 1.561 . S
C3123 C3126 1.526 . S
C3124 H3108 0.959 . S
C3124 H3109 0.959 . S
C3124 H3110 0.961 . S
C3124 C3123 1.502 . S
C3125 H3111 0.960 . S
C3125 H3112 0.961 . S
C3125 H3113 0.959 . S
C3125 C3123 1.561 . S
C3126 C3123 1.526 . S
C3126 C3127 1.396 . S
C3126 C3131 1.390 . S
C3127 C3121 1.465 . S
C3127 C3126 1.396 . S
C3127 C3128 1.399 . S
C3128 H3114 0.929 . S
C3128 C3127 1.399 . S
C3128 C3129 1.385 . S
C3129 H3115 0.931 . S
C3129 C3128 1.385 . S
C3129 C3130 1.389 . S
C3130 C3129 1.389 . S
C3130 C3131 1.387 . S
C3131 H3116 0.930 . S
C3131 C3126 1.390 . S
C3131 C3130 1.387 . S
H3132 C3144 0.930 . S
H3133 C3146 0.930 . S
H3134 C3147 0.930 . S
H3135 C3151 0.959 . S
H3136 C3151 0.959 . S
H3137 C3151 0.961 . S
H3138 C3152 0.960 . S
H3139 C3152 0.961 . S
H3140 C3152 0.959 . S
H3141 C3155 0.929 . S
H3142 C3156 0.931 . S
H3143 C3158 0.930 . S
C3144 H3132 0.930 . S
C3144 C3145 1.399 . S
C3144 C3149 1.399 . S
C3145 C3144 1.399 . S
C3145 C3146 1.376 . S
C3146 H3133 0.930 . S
C3146 C3145 1.376 . S
C3146 C3147 1.388 . S
C3147 H3134 0.930 . S
C3147 C3146 1.388 . S
C3147 C3148 1.390 . S
C3148 C3147 1.390 . S
C3148 C3149 1.394 . S
C3148 C3154 1.465 . S
C3149 C3144 1.399 . S
C3149 C3148 1.394 . S
C3149 C3150 1.516 . S
C3150 C3149 1.516 . S
C3150 C3151 1.502 . S
C3150 C3152 1.561 . S
C3150 C3153 1.526 . S
C3151 H3135 0.959 . S
C3151 H3136 0.959 . S
C3151 H3137 0.961 . S
C3151 C3150 1.502 . S
C3152 H3138 0.960 . S
C3152 H3139 0.961 . S
C3152 H3140 0.959 . S
C3152 C3150 1.561 . S
C3153 C3150 1.526 . S
C3153 C3154 1.396 . S
C3153 C3158 1.390 . S
C3154 C3148 1.465 . S
C3154 C3153 1.396 . S
C3154 C3155 1.399 . S
C3155 H3141 0.929 . S
C3155 C3154 1.399 . S
C3155 C3156 1.385 . S
C3156 H3142 0.931 . S
C3156 C3155 1.385 . S
C3156 C3157 1.389 . S
C3157 C3156 1.389 . S
C3157 C3158 1.387 . S
C3158 H3143 0.930 . S
C3158 C3153 1.390 . S
C3158 C3157 1.387 . S
H3159 C3171 0.930 . S
H3160 C3173 0.930 . S
H3161 C3174 0.930 . S
H3162 C3178 0.959 . S
H3163 C3178 0.959 . S
H3164 C3178 0.961 . S
H3165 C3179 0.960 . S
H3166 C3179 0.961 . S
H3167 C3179 0.959 . S
H3168 C3182 0.929 . S
H3169 C3183 0.931 . S
H3170 C3185 0.930 . S
C3171 H3159 0.930 . S
C3171 C3172 1.399 . S
C3171 C3176 1.399 . S
C3172 C3171 1.399 . S
C3172 C3173 1.376 . S
C3173 H3160 0.930 . S
C3173 C3172 1.376 . S
C3173 C3174 1.388 . S
C3174 H3161 0.930 . S
C3174 C3173 1.388 . S
C3174 C3175 1.390 . S
C3175 C3174 1.390 . S
C3175 C3176 1.394 . S
C3175 C3181 1.465 . S
C3176 C3171 1.399 . S
C3176 C3175 1.394 . S
C3176 C3177 1.516 . S
C3177 C3176 1.516 . S
C3177 C3178 1.502 . S
C3177 C3179 1.561 . S
C3177 C3180 1.526 . S
C3178 H3162 0.959 . S
C3178 H3163 0.959 . S
C3178 H3164 0.961 . S
C3178 C3177 1.502 . S
C3179 H3165 0.960 . S
C3179 H3166 0.961 . S
C3179 H3167 0.959 . S
C3179 C3177 1.561 . S
C3180 C3177 1.526 . S
C3180 C3181 1.396 . S
C3180 C3185 1.390 . S
C3181 C3175 1.465 . S
C3181 C3180 1.396 . S
C3181 C3182 1.399 . S
C3182 H3168 0.929 . S
C3182 C3181 1.399 . S
C3182 C3183 1.385 . S
C3183 H3169 0.931 . S
C3183 C3182 1.385 . S
C3183 C3184 1.389 . S
C3184 C3183 1.389 . S
C3184 C3185 1.387 . S
C3185 H3170 0.930 . S
C3185 C3180 1.390 . S
C3185 C3184 1.387 . S
H3186 C3198 0.930 . S
H3187 C3200 0.930 1_565 S
H3188 C3201 0.930 . S
H3189 C3205 0.959 . S
H3190 C3205 0.959 . S
H3191 C3205 0.961 . S
H3192 C3206 0.960 . S
H3193 C3206 0.961 . S
H3194 C3206 0.959 . S
H3195 C3209 0.929 . S
H3196 C3210 0.931 . S
H3197 C3212 0.930 . S
C3198 H3186 0.930 . S
C3198 C3199 1.399 . S
C3198 C3203 1.399 . S
C3199 C3198 1.399 . S
C3199 C3200 1.376 . S
C3200 H3187 0.930 1_545 S
C3200 C3199 1.376 . S
C3200 C3201 1.388 1_545 S
C3201 H3188 0.930 . S
C3201 C3200 1.388 1_565 S
C3201 C3202 1.390 1_565 S
C3202 C3201 1.390 1_545 S
C3202 C3203 1.394 . S
C3202 C3208 1.465 . S
C3203 C3198 1.399 . S
C3203 C3202 1.394 . S
C3203 C3204 1.516 . S
C3204 C3203 1.516 . S
C3204 C3205 1.502 . S
C3204 C3206 1.561 . S
C3204 C3207 1.526 . S
C3205 H3189 0.959 . S
C3205 H3190 0.959 . S
C3205 H3191 0.961 . S
C3205 C3204 1.502 . S
C3206 H3192 0.960 . S
C3206 H3193 0.961 . S
C3206 H3194 0.959 . S
C3206 C3204 1.561 . S
C3207 C3204 1.526 . S
C3207 C3208 1.396 . S
C3207 C3212 1.390 . S
C3208 C3202 1.465 . S
C3208 C3207 1.396 . S
C3208 C3209 1.399 1_545 S
C3209 H3195 0.929 . S
C3209 C3208 1.399 1_565 S
C3209 C3210 1.385 . S
C3210 H3196 0.931 . S
C3210 C3209 1.385 . S
C3210 C3211 1.389 1_565 S
C3211 C3210 1.389 1_545 S
C3211 C3212 1.387 . S
C3212 H3197 0.930 . S
C3212 C3207 1.390 . S
C3212 C3211 1.387 . S
H3213 C3225 0.930 . S
H3214 C3227 0.930 1_455 S
H3215 C3228 0.918 1_455 S
H3216 C3232 0.959 . S
H3217 C3232 0.959 . S
H3218 C3232 0.961 . S
H3219 C3233 0.960 . S
H3220 C3233 0.961 . S
H3221 C3233 0.959 . S
H3222 C3236 0.929 . S
H3223 C3237 0.931 . S
H3224 C3239 0.930 . S
C3225 H3213 0.930 . S
C3225 C3226 1.399 . S
C3225 C3230 1.399 . S
C3226 C3225 1.399 . S
C3226 C3227 1.376 . S
C3227 H3214 0.930 1_655 S
C3227 C3226 1.376 . S
C3227 C3228 1.387 . S
C3228 H3215 0.918 1_655 S
C3228 C3227 1.387 . S
C3228 C3229 1.404 . S
C3229 C3228 1.404 . S
C3229 C3230 1.394 . S
C3229 C3235 1.465 . S
C3230 C3225 1.399 . S
C3230 C3229 1.394 . S
C3230 C3231 1.516 . S
C3231 C3230 1.516 . S
C3231 C3232 1.502 . S
C3231 C3233 1.561 . S
C3231 C3234 1.526 . S
C3232 H3216 0.959 . S
C3232 H3217 0.959 . S
C3232 H3218 0.961 . S
C3232 C3231 1.502 . S
C3233 H3219 0.960 . S
C3233 H3220 0.961 . S
C3233 H3221 0.959 . S
C3233 C3231 1.561 . S
C3234 C3231 1.526 . S
C3234 C3235 1.396 . S
C3234 C3239 1.390 . S
C3235 C3229 1.465 . S
C3235 C3234 1.396 . S
C3235 C3236 1.399 1_655 S
C3236 H3222 0.929 . S
C3236 C3235 1.399 1_455 S
C3236 C3237 1.385 . S
C3237 H3223 0.931 . S
C3237 C3236 1.385 . S
C3237 C3238 1.389 1_455 S
C3238 C3237 1.389 1_655 S
C3238 C3239 1.387 . S
C3239 H3224 0.930 . S
C3239 C3234 1.390 . S
C3239 C3238 1.387 . S
H3240 C3252 0.930 . S
H3241 C3254 0.930 . S
H3242 C3255 0.930 . S
H3243 C3259 0.959 . S
H3244 C3259 0.959 . S
H3245 C3259 0.961 . S
H3246 C3260 0.960 . S
H3247 C3260 0.961 . S
H3248 C3260 0.959 . S
H3249 C3263 0.929 . S
H3250 C3264 0.931 . S
H3251 C3266 0.930 . S
C3252 H3240 0.930 . S
C3252 C3253 1.399 . S
C3252 C3257 1.399 . S
C3253 C3252 1.399 . S
C3253 C3254 1.376 . S
C3254 H3241 0.930 . S
C3254 C3253 1.376 . S
C3254 C3255 1.388 . S
C3255 H3242 0.930 . S
C3255 C3254 1.388 . S
C3255 C3256 1.390 . S
C3256 C3255 1.390 . S
C3256 C3257 1.394 . S
C3256 C3262 1.465 . S
C3257 C3252 1.399 . S
C3257 C3256 1.394 . S
C3257 C3258 1.516 . S
C3258 C3257 1.516 . S
C3258 C3259 1.502 . S
C3258 C3260 1.561 . S
C3258 C3261 1.526 . S
C3259 H3243 0.959 . S
C3259 H3244 0.959 . S
C3259 H3245 0.961 . S
C3259 C3258 1.502 . S
C3260 H3246 0.960 . S
C3260 H3247 0.961 . S
C3260 H3248 0.959 . S
C3260 C3258 1.561 . S
C3261 C3258 1.526 . S
C3261 C3262 1.396 . S
C3261 C3266 1.390 . S
C3262 C3256 1.465 . S
C3262 C3261 1.396 . S
C3262 C3263 1.399 . S
C3263 H3249 0.929 . S
C3263 C3262 1.399 . S
C3263 C3264 1.385 . S
C3264 H3250 0.931 . S
C3264 C3263 1.385 . S
C3264 C3265 1.389 . S
C3265 C3264 1.389 . S
C3265 C3266 1.387 . S
C3266 H3251 0.930 . S
C3266 C3261 1.390 . S
C3266 C3265 1.387 . S
H3267 C3279 0.930 . S
H3268 C3281 0.930 . S
H3269 C3282 0.930 . S
H3270 C3286 0.959 . S
H3271 C3286 0.959 . S
H3272 C3286 0.961 . S
H3273 C3287 0.960 . S
H3274 C3287 0.961 . S
H3275 C3287 0.959 . S
H3276 C3290 0.929 . S
H3277 C3291 0.931 . S
H3278 C3293 0.930 . S
C3279 H3267 0.930 . S
C3279 C3280 1.399 . S
C3279 C3284 1.399 . S
C3280 C3279 1.399 . S
C3280 C3281 1.376 . S
C3281 H3268 0.930 . S
C3281 C3280 1.376 . S
C3281 C3282 1.388 . S
C3282 H3269 0.930 . S
C3282 C3281 1.388 . S
C3282 C3283 1.390 . S
C3283 C3282 1.390 . S
C3283 C3284 1.394 . S
C3283 C3289 1.465 . S
C3284 C3279 1.399 . S
C3284 C3283 1.394 . S
C3284 C3285 1.516 . S
C3285 C3284 1.516 . S
C3285 C3286 1.502 . S
C3285 C3287 1.561 . S
C3285 C3288 1.526 . S
C3286 H3270 0.959 . S
C3286 H3271 0.959 . S
C3286 H3272 0.961 . S
C3286 C3285 1.502 . S
C3287 H3273 0.960 . S
C3287 H3274 0.961 . S
C3287 H3275 0.959 . S
C3287 C3285 1.561 . S
C3288 C3285 1.526 . S
C3288 C3289 1.396 . S
C3288 C3293 1.390 . S
C3289 C3283 1.465 . S
C3289 C3288 1.396 . S
C3289 C3290 1.399 . S
C3290 H3276 0.929 . S
C3290 C3289 1.399 . S
C3290 C3291 1.385 . S
C3291 H3277 0.931 . S
C3291 C3290 1.385 . S
C3291 C3292 1.389 . S
C3292 C3291 1.389 . S
C3292 C3293 1.387 . S
C3293 H3278 0.930 . S
C3293 C3288 1.390 . S
C3293 C3292 1.387 . S
H3294 C3306 0.930 . S
H3295 C3308 0.930 . S
H3296 C3309 0.930 . S
H3297 C3313 0.959 . S
H3298 C3313 0.959 . S
H3299 C3313 0.961 . S
H3300 C3314 0.960 . S
H3301 C3314 0.961 . S
H3302 C3314 0.959 . S
H3303 C3317 0.929 . S
H3304 C3318 0.931 . S
H3305 C3320 0.930 . S
C3306 H3294 0.930 . S
C3306 C3307 1.399 . S
C3306 C3311 1.399 . S
C3307 C3306 1.399 . S
C3307 C3308 1.376 . S
C3308 H3295 0.930 . S
C3308 C3307 1.376 . S
C3308 C3309 1.388 . S
C3309 H3296 0.930 . S
C3309 C3308 1.388 . S
C3309 C3310 1.390 . S
C3310 C3309 1.390 . S
C3310 C3311 1.394 . S
C3310 C3316 1.465 . S
C3311 C3306 1.399 . S
C3311 C3310 1.394 . S
C3311 C3312 1.516 . S
C3312 C3311 1.516 . S
C3312 C3313 1.502 . S
C3312 C3314 1.561 . S
C3312 C3315 1.526 . S
C3313 H3297 0.959 . S
C3313 H3298 0.959 . S
C3313 H3299 0.961 . S
C3313 C3312 1.502 . S
C3314 H3300 0.960 . S
C3314 H3301 0.961 . S
C3314 H3302 0.959 . S
C3314 C3312 1.561 . S
C3315 C3312 1.526 . S
C3315 C3316 1.396 . S
C3315 C3320 1.390 . S
C3316 C3310 1.465 . S
C3316 C3315 1.396 . S
C3316 C3317 1.399 . S
C3317 H3303 0.929 . S
C3317 C3316 1.399 . S
C3317 C3318 1.385 . S
C3318 H3304 0.931 . S
C3318 C3317 1.385 . S
C3318 C3319 1.389 . S
C3319 C3318 1.389 . S
C3319 C3320 1.387 . S
C3320 H3305 0.930 . S
C3320 C3315 1.390 . S
C3320 C3319 1.387 . S
H3321 C3333 0.930 . S
H3322 C3335 0.930 . S
H3323 C3336 0.930 . S
H3324 C3340 0.959 . S
H3325 C3340 0.959 . S
H3326 C3340 0.961 . S
H3327 C3341 0.960 . S
H3328 C3341 0.961 . S
H3329 C3341 0.959 . S
H3330 C3344 0.929 . S
H3331 C3345 0.931 . S
H3332 C3347 0.930 . S
C3333 H3321 0.930 . S
C3333 C3334 1.399 . S
C3333 C3338 1.399 . S
C3334 C3333 1.399 . S
C3334 C3335 1.376 . S
C3335 H3322 0.930 . S
C3335 C3334 1.376 . S
C3335 C3336 1.388 . S
C3336 H3323 0.930 . S
C3336 C3335 1.388 . S
C3336 C3337 1.390 . S
C3337 C3336 1.390 . S
C3337 C3338 1.394 . S
C3337 C3343 1.465 . S
C3338 C3333 1.399 . S
C3338 C3337 1.394 . S
C3338 C3339 1.516 . S
C3339 C3338 1.516 . S
C3339 C3340 1.502 . S
C3339 C3341 1.561 . S
C3339 C3342 1.526 . S
C3340 H3324 0.959 . S
C3340 H3325 0.959 . S
C3340 H3326 0.961 . S
C3340 C3339 1.502 . S
C3341 H3327 0.960 . S
C3341 H3328 0.961 . S
C3341 H3329 0.959 . S
C3341 C3339 1.561 . S
C3342 C3339 1.526 . S
C3342 C3343 1.396 . S
C3342 C3347 1.390 . S
C3343 C3337 1.465 . S
C3343 C3342 1.396 . S
C3343 C3344 1.399 . S
C3344 H3330 0.929 . S
C3344 C3343 1.399 . S
C3344 C3345 1.385 . S
C3345 H3331 0.931 . S
C3345 C3344 1.385 . S
C3345 C3346 1.389 . S
C3346 C3345 1.389 . S
C3346 C3347 1.387 . S
C3347 H3332 0.930 . S
C3347 C3342 1.390 . S
C3347 C3346 1.387 . S
H3348 C3360 0.930 . S
H3349 C3362 0.930 . S
H3350 C3363 0.930 . S
H3351 C3367 0.959 . S
H3352 C3367 0.959 . S
H3353 C3367 0.961 . S
H3354 C3368 0.960 . S
H3355 C3368 0.961 . S
H3356 C3368 0.959 . S
H3357 C3371 0.929 . S
H3358 C3372 0.931 . S
H3359 C3374 0.930 . S
C3360 H3348 0.930 . S
C3360 C3361 1.399 . S
C3360 C3365 1.399 . S
C3361 C3360 1.399 . S
C3361 C3362 1.376 . S
C3362 H3349 0.930 . S
C3362 C3361 1.376 . S
C3362 C3363 1.388 . S
C3363 H3350 0.930 . S
C3363 C3362 1.388 . S
C3363 C3364 1.390 . S
C3364 C3363 1.390 . S
C3364 C3365 1.394 . S
C3364 C3370 1.465 . S
C3365 C3360 1.399 . S
C3365 C3364 1.394 . S
C3365 C3366 1.516 . S
C3366 C3365 1.516 . S
C3366 C3367 1.502 . S
C3366 C3368 1.561 . S
C3366 C3369 1.526 . S
C3367 H3351 0.959 . S
C3367 H3352 0.959 . S
C3367 H3353 0.961 . S
C3367 C3366 1.502 . S
C3368 H3354 0.960 . S
C3368 H3355 0.961 . S
C3368 H3356 0.959 . S
C3368 C3366 1.561 . S
C3369 C3366 1.526 . S
C3369 C3370 1.396 . S
C3369 C3374 1.390 . S
C3370 C3364 1.465 . S
C3370 C3369 1.396 . S
C3370 C3371 1.399 . S
C3371 H3357 0.929 . S
C3371 C3370 1.399 . S
C3371 C3372 1.385 . S
C3372 H3358 0.931 . S
C3372 C3371 1.385 . S
C3372 C3373 1.389 . S
C3373 C3372 1.389 . S
C3373 C3374 1.387 . S
C3374 H3359 0.930 . S
C3374 C3369 1.390 . S
C3374 C3373 1.387 . S
H3375 C3387 0.930 . S
H3376 C3389 0.930 . S
H3377 C3390 0.930 . S
H3378 C3394 0.959 . S
H3379 C3394 0.959 . S
H3380 C3394 0.961 . S
H3381 C3395 0.960 . S
H3382 C3395 0.961 . S
H3383 C3395 0.959 . S
H3384 C3398 0.929 . S
H3385 C3399 0.931 . S
H3386 C3401 0.930 . S
C3387 H3375 0.930 . S
C3387 C3388 1.399 . S
C3387 C3392 1.399 . S
C3388 C3387 1.399 . S
C3388 C3389 1.376 . S
C3389 H3376 0.930 . S
C3389 C3388 1.376 . S
C3389 C3390 1.388 . S
C3390 H3377 0.930 . S
C3390 C3389 1.388 . S
C3390 C3391 1.390 . S
C3391 C3390 1.390 . S
C3391 C3392 1.394 . S
C3391 C3397 1.465 . S
C3392 C3387 1.399 . S
C3392 C3391 1.394 . S
C3392 C3393 1.516 . S
C3393 C3392 1.516 . S
C3393 C3394 1.502 . S
C3393 C3395 1.561 . S
C3393 C3396 1.526 . S
C3394 H3378 0.959 . S
C3394 H3379 0.959 . S
C3394 H3380 0.961 . S
C3394 C3393 1.502 . S
C3395 H3381 0.960 . S
C3395 H3382 0.961 . S
C3395 H3383 0.959 . S
C3395 C3393 1.561 . S
C3396 C3393 1.526 . S
C3396 C3397 1.396 . S
C3396 C3401 1.390 . S
C3397 C3391 1.465 . S
C3397 C3396 1.396 . S
C3397 C3398 1.399 . S
C3398 H3384 0.929 . S
C3398 C3397 1.399 . S
C3398 C3399 1.385 . S
C3399 H3385 0.931 . S
C3399 C3398 1.385 . S
C3399 C3400 1.389 . S
C3400 C3399 1.389 . S
C3400 C3401 1.387 . S
C3401 H3386 0.930 . S
C3401 C3396 1.390 . S
C3401 C3400 1.387 . S
H3402 C3414 0.930 . S
H3403 C3416 0.949 . S
H3404 C3417 0.930 . S
H3405 C3421 0.959 . S
H3406 C3421 0.959 . S
H3407 C3421 0.961 . S
H3408 C3422 0.960 . S
H3409 C3422 0.961 . S
H3410 C3422 0.959 . S
H3411 C3425 0.929 . S
H3412 C3426 0.931 . S
H3413 C3428 0.930 . S
C3414 H3402 0.930 . S
C3414 C3415 1.447 . S
C3414 C3419 1.399 . S
C3415 C3414 1.447 . S
C3415 C3416 1.353 1_455 S
C3416 H3403 0.949 . S
C3416 C3415 1.353 1_655 S
C3416 C3417 1.377 1_655 S
C3417 H3404 0.930 . S
C3417 C3416 1.377 1_455 S
C3417 C3418 1.390 . S
C3418 C3417 1.390 . S
C3418 C3419 1.394 . S
C3418 C3424 1.465 . S
C3419 C3414 1.399 . S
C3419 C3418 1.394 . S
C3419 C3420 1.516 . S
C3420 C3419 1.516 . S
C3420 C3421 1.502 . S
C3420 C3422 1.561 . S
C3420 C3423 1.526 . S
C3421 H3405 0.959 . S
C3421 H3406 0.959 . S
C3421 H3407 0.961 . S
C3421 C3420 1.502 . S
C3422 H3408 0.960 . S
C3422 H3409 0.961 . S
C3422 H3410 0.959 . S
C3422 C3420 1.561 . S
C3423 C3420 1.526 . S
C3423 C3424 1.396 . S
C3423 C3428 1.390 . S
C3424 C3418 1.465 . S
C3424 C3423 1.396 . S
C3424 C3425 1.399 . S
C3425 H3411 0.929 . S
C3425 C3424 1.399 . S
C3425 C3426 1.385 . S
C3426 H3412 0.931 . S
C3426 C3425 1.385 . S
C3426 C3427 1.389 . S
C3427 C3426 1.389 . S
C3427 C3428 1.387 . S
C3428 H3413 0.930 . S
C3428 C3423 1.390 . S
C3428 C3427 1.387 . S
H3429 C3441 0.930 . S
H3430 C3443 0.930 . S
H3431 C3444 0.930 . S
H3432 C3448 0.959 . S
H3433 C3448 0.959 . S
H3434 C3448 0.961 . S
H3435 C3449 0.960 . S
H3436 C3449 0.961 . S
H3437 C3449 0.959 . S
H3438 C3452 0.929 . S
H3439 C3453 0.931 . S
H3440 C3455 0.930 . S
C3441 H3429 0.930 . S
C3441 C3442 1.399 . S
C3441 C3446 1.399 . S
C3442 C3441 1.399 . S
C3442 C3443 1.376 . S
C3443 H3430 0.930 . S
C3443 C3442 1.376 . S
C3443 C3444 1.388 . S
C3444 H3431 0.930 . S
C3444 C3443 1.388 . S
C3444 C3445 1.390 . S
C3445 C3444 1.390 . S
C3445 C3446 1.394 . S
C3445 C3451 1.465 . S
C3446 C3441 1.399 . S
C3446 C3445 1.394 . S
C3446 C3447 1.468 1_655 S
C3447 C3446 1.468 1_455 S
C3447 C3448 1.534 . S
C3447 C3449 1.570 . S
C3447 C3450 1.532 1_455 S
C3448 H3432 0.959 . S
C3448 H3433 0.959 . S
C3448 H3434 0.961 . S
C3448 C3447 1.534 . S
C3449 H3435 0.960 . S
C3449 H3436 0.961 . S
C3449 H3437 0.959 . S
C3449 C3447 1.570 . S
C3450 C3447 1.532 1_655 S
C3450 C3451 1.396 . S
C3450 C3455 1.390 1_655 S
C3451 C3445 1.465 . S
C3451 C3450 1.396 . S
C3451 C3452 1.399 . S
C3452 H3438 0.929 . S
C3452 C3451 1.399 . S
C3452 C3453 1.385 . S
C3453 H3439 0.931 . S
C3453 C3452 1.385 . S
C3453 C3454 1.389 . S
C3454 C3453 1.389 . S
C3454 C3455 1.387 1_655 S
C3455 H3440 0.930 . S
C3455 C3450 1.390 1_455 S
C3455 C3454 1.387 1_455 S
H3456 C3468 0.930 . S
H3457 C3470 0.930 . S
H3458 C3471 0.930 . S
H3459 C3475 0.959 . S
H3460 C3475 0.959 . S
H3461 C3475 0.961 . S
H3462 C3476 0.960 . S
H3463 C3476 0.961 . S
H3464 C3476 0.959 . S
H3465 C3479 0.929 . S
H3466 C3480 0.931 . S
H3467 C3482 0.930 . S
C3468 H3456 0.930 . S
C3468 C3469 1.399 . S
C3468 C3473 1.399 . S
C3469 C3468 1.399 . S
C3469 C3470 1.376 . S
C3470 H3457 0.930 . S
C3470 C3469 1.376 . S
C3470 C3471 1.388 . S
C3471 H3458 0.930 . S
C3471 C3470 1.388 . S
C3471 C3472 1.390 . S
C3472 C3471 1.390 . S
C3472 C3473 1.394 . S
C3472 C3478 1.465 . S
C3473 C3468 1.399 . S
C3473 C3472 1.394 . S
C3473 C3474 1.516 . S
C3474 C3473 1.516 . S
C3474 C3475 1.502 . S
C3474 C3476 1.561 . S
C3474 C3477 1.526 . S
C3475 H3459 0.959 . S
C3475 H3460 0.959 . S
C3475 H3461 0.961 . S
C3475 C3474 1.502 . S
C3476 H3462 0.960 . S
C3476 H3463 0.961 . S
C3476 H3464 0.959 . S
C3476 C3474 1.561 . S
C3477 C3474 1.526 . S
C3477 C3478 1.396 . S
C3477 C3482 1.390 . S
C3478 C3472 1.465 . S
C3478 C3477 1.396 . S
C3478 C3479 1.399 . S
C3479 H3465 0.929 . S
C3479 C3478 1.399 . S
C3479 C3480 1.385 . S
C3480 H3466 0.931 . S
C3480 C3479 1.385 . S
C3480 C3481 1.389 . S
C3481 C3480 1.389 . S
C3481 C3482 1.387 . S
C3482 H3467 0.930 . S
C3482 C3477 1.390 . S
C3482 C3481 1.387 . S
H3483 C3495 0.930 . S
H3484 C3497 0.930 . S
H3485 C3498 0.930 1_565 S
H3486 C3502 0.959 . S
H3487 C3502 0.959 . S
H3488 C3502 0.961 . S
H3489 C3503 0.960 . S
H3490 C3503 0.961 . S
H3491 C3503 0.959 . S
H3492 C3506 0.929 . S
H3493 C3507 0.931 . S
H3494 C3509 0.930 . S
C3495 H3483 0.930 . S
C3495 C3496 1.399 . S
C3495 C3500 1.399 . S
C3496 C3495 1.399 . S
C3496 C3497 1.376 . S
C3497 H3484 0.930 . S
C3497 C3496 1.376 . S
C3497 C3498 1.388 . S
C3498 H3485 0.930 1_545 S
C3498 C3497 1.388 . S
C3498 C3499 1.390 . S
C3499 C3498 1.390 . S
C3499 C3500 1.394 . S
C3499 C3505 1.465 . S
C3500 C3495 1.399 . S
C3500 C3499 1.394 . S
C3500 C3501 1.516 . S
C3501 C3500 1.516 . S
C3501 C3502 1.502 . S
C3501 C3503 1.561 . S
C3501 C3504 1.526 . S
C3502 H3486 0.959 . S
C3502 H3487 0.959 . S
C3502 H3488 0.961 . S
C3502 C3501 1.502 . S
C3503 H3489 0.960 . S
C3503 H3490 0.961 . S
C3503 H3491 0.959 . S
C3503 C3501 1.561 . S
C3504 C3501 1.526 . S
C3504 C3505 1.396 . S
C3504 C3509 1.390 . S
C3505 C3499 1.465 . S
C3505 C3504 1.396 . S
C3505 C3506 1.399 1_545 S
C3506 H3492 0.929 . S
C3506 C3505 1.399 1_565 S
C3506 C3507 1.385 . S
C3507 H3493 0.931 . S
C3507 C3506 1.385 . S
C3507 C3508 1.389 1_565 S
C3508 C3507 1.389 1_545 S
C3508 C3509 1.387 . S
C3509 H3494 0.930 . S
C3509 C3504 1.390 . S
C3509 C3508 1.387 . S
C1579 C10 1.203 1_655 S
C1591 C963 1.219 . S
C1606 C23 1.600 . S
C1618 C1043 1.593 . S
C1645 C1111 1.344 . S
C1633 C29 1.415 . S
C1660 C30 1.831 . S
C1672 C1191 1.798 . S
C1687 C5 1.602 . S
C1699 C1265 1.573 . S
C1714 C18 1.617 . S
C1726 C1333 1.524 . S
C1741 C49 1.149 1_656 S
C1753 C1259 1.056 1_655 S
C1780 C1339 1.492 . S
C1768 C62 1.486 . S
C1807 C1185 1.349 . S
C1795 C70 1.337 1_556 S
C1822 C75 1.780 . S
C1834 C1117 1.747 1_545 S
C1861 C969 1.529 . S
C1849 C44 1.527 . S
C1876 C57 1.459 . S
C1888 C1037 1.463 . S
C1903 C88 1.353 . S
C1915 C1407 1.322 . S
C1930 C101 1.634 . S
C1942 C1487 1.616 . S
C1969 C1555 1.525 . S
C1957 C107 1.548 . S
C1984 C108 1.926 . S
C1996 C303 1.863 . S
C2011 C83 1.705 . S
C2023 C377 1.690 . S
C2038 C96 1.622 . S
C2050 C445 1.532 . S
C2065 C127 1.149 . S
C2077 C371 1.097 . S
C2092 C140 1.523 . S
C2104 C451 1.513 . S
C2131 C297 1.362 . S
C2119 C146 1.391 . S
C2158 C1561 1.837 . S
C2146 C147 1.865 . S
C2185 C1413 1.569 . S
C2173 C122 1.577 . S
C2212 C1481 1.460 . S
C2200 C135 1.491 . S
C2227 C160 1.297 . S
C2239 C519 1.255 . S
C2254 C173 1.641 . S
C2266 C599 1.579 . S
C2281 C185 1.547 . S
C2293 C667 1.455 . S
C2308 C186 1.975 . S
C2320 C747 1.911 . S
C2347 C821 1.646 . S
C2335 C159 1.712 . S
C2374 C889 1.560 . S
C2362 C172 1.669 . S
C2401 C815 1.176 . S
C2389 C205 1.201 . S
C2428 C895 1.514 . S
C2416 C218 1.516 . S
C2443 C224 1.386 . S
C2455 C741 1.367 . S
C2482 C673 1.809 . S
C2470 C225 1.809 . S
C2497 C200 1.585 . S
C2509 C525 1.577 . S
C2536 C593 1.434 . S
C2524 C213 1.459 . S
C2563 C273 1.914 . S
C2551 C4 1.930 . S
C2578 C17 1.450 . S
C2590 C347 1.428 . S
C2617 C433 1.443 . S
C2605 C31 1.465 . S
C2644 C507 1.172 . S
C2632 C36 1.194 1_556 S
C2671 C569 1.599 . S
C2659 C3 1.600 . S
C2698 C655 1.509 . S
C2686 C16 1.527 . S
C2713 C43 2.071 . S
C2725 C643 2.012 . S
C2740 C56 1.593 . S
C2752 C495 1.545 . S
C2767 C68 1.634 . S
C2779 C581 1.561 . S
C2794 C69 1.389 . S
C2806 C359 1.387 . S
C2833 C421 1.705 . S
C2821 C42 1.732 . S
C2848 C55 1.688 . S
C2860 C285 1.685 . S
C2887 C717 1.872 . S
C2875 C82 1.938 . S
C2902 C95 1.534 1_545 S
C2914 C791 1.512 . S
C2929 C109 1.493 . S
C2941 C877 1.495 . S
C2968 C951 1.163 . S
C2956 C114 1.131 . S
C2983 C81 1.580 . S
C2995 C1013 1.544 . S
C3010 C94 1.476 . S
C3022 C1099 1.477 . S
C3037 C121 1.931 . S
C3049 C1087 1.880 . S
C3064 C134 1.502 . S
C3076 C939 1.443 1_455 S
C3103 C1025 1.579 . S
C3091 C148 1.576 . S
C3118 C153 1.387 . S
C3130 C803 1.394 . S
C3145 C120 1.785 1_545 S
C3157 C865 1.678 . S
C3184 C729 1.733 . S
C3172 C133 1.737 1_655 S
C3211 C1161 1.819 . S
C3199 C166 1.861 . S
C3226 C179 1.418 . S
C3238 C1235 1.406 . S
C3253 C187 1.446 . S
C3265 C1321 1.452 . S
C3292 C1395 1.232 . S
C3280 C192 1.210 . S
C3319 C1457 1.600 . S
C3307 C161 1.638 1_565 S
C3334 C174 1.585 1_455 S
C3346 C1543 1.588 . S
C3361 C199 2.044 . S
C3373 C1531 1.994 . S
C3388 C212 1.674 1_565 S
C3400 C1383 1.584 . S
C3427 C1469 1.578 . S
C3415 C226 1.620 1_455 S
C3454 C1247 1.187 . S
C3442 C231 1.262 . S
C3481 C1309 1.624 . S
C3469 C198 1.725 . S
C3496 C211 1.557 . S
C3508 C1173 1.554 . S
