# Generated by pormake.
# Topology tsx, (6,3)-cn, num edge types: 1
# Building blocks:
#     Node 0, Type 0, BuildingBlock: VOLQOD_clean_sbu_1, # of connection points: 6
#     Node 1, Type 0, BuildingBlock: VOLQOD_clean_sbu_1, # of connection points: 6
#     Node 2, Type 1, BuildingBlock: INOVEN_clean_linker_0, # of connection points: 3
#     Node 3, Type 1, BuildingBlock: INOVEN_clean_linker_0, # of connection points: 3
#     Node 4, Type 1, BuildingBlock: INOVEN_clean_linker_0, # of connection points: 3
#     Node 5, Type 1, BuildingBlock: INOVEN_clean_linker_0, # of connection points: 3
#     Edge 6, Type (0, 1), BuildingBlock: XIVTED_clean_linker_0, # of connection points: 2
#     Edge 7, Type (0, 1), BuildingBlock: XIVTED_clean_linker_0, # of connection points: 2
#     Edge 8, Type (0, 1), BuildingBlock: XIVTED_clean_linker_0, # of connection points: 2
#     Edge 9, Type (0, 1), BuildingBlock: XIVTED_clean_linker_0, # of connection points: 2
#     Edge 10, Type (0, 1), BuildingBlock: XIVTED_clean_linker_0, # of connection points: 2
#     Edge 11, Type (0, 1), BuildingBlock: XIVTED_clean_linker_0, # of connection points: 2
#     Edge 12, Type (0, 1), BuildingBlock: XIVTED_clean_linker_0, # of connection points: 2
#     Edge 13, Type (0, 1), BuildingBlock: XIVTED_clean_linker_0, # of connection points: 2
#     Edge 14, Type (0, 1), BuildingBlock: XIVTED_clean_linker_0, # of connection points: 2
#     Edge 15, Type (0, 1), BuildingBlock: XIVTED_clean_linker_0, # of connection points: 2
#     Edge 16, Type (0, 1), BuildingBlock: XIVTED_clean_linker_0, # of connection points: 2
#     Edge 17, Type (0, 1), BuildingBlock: XIVTED_clean_linker_0, # of connection points: 2
# Relax obj value: 0.050
# Max RMSD: 0.106
# Mean RMSD: 0.096
data_MOF--net-tsx--node1-VOLQOD_clean_sbu_1--node2-INOVEN_clean_linker_0--edge1-XIVTED_clean_linker_0
_symmetry_space_group_name_H-M    P1
_symmetry_Int_Tables_number       1
_symmetry_cell_setting            triclinic
loop_
_symmetry_equiv_pos_as_xyz
'x, y, z'
_cell_length_a     21.238629
_cell_length_b     21.974989
_cell_length_c     37.529708
_cell_angle_alpha  90.396185
_cell_angle_beta   97.697795
_cell_angle_gamma 89.849748
loop_
_atom_site_label
_atom_site_type_symbol
_atom_site_fract_x
_atom_site_fract_y
_atom_site_fract_z
_atom_type_partial_charge
O0 O 0.05688 0.98801 0.08574 0.0
Zn1 Zn 0.07283 0.98347 0.03388 0.0
O2 O 0.99449 -0.0014 0.00093 0.0
Zn3 Zn 0.97259 0.92754 0.97015 0.0
Zn4 Zn 0.9247 0.01637 0.0286 0.0
Zn5 Zn 0.00746 0.06775 0.97059 0.0
O6 O 0.9692 0.94781 0.91744 0.0
O7 O 0.99596 0.04535 0.91814 0.0
O8 O 0.10937 0.90098 0.02436 0.0
O9 O 0.03938 0.86328 0.98054 0.0
O10 O 0.88885 0.89101 0.97865 0.0
O11 O 0.85501 0.95416 0.01845 0.0
O12 O 0.88763 0.10001 0.01794 0.0
O13 O 0.13988 0.04613 0.02762 0.0
O14 O 0.94583 0.13406 0.97743 0.0
O15 O 0.09447 0.10324 0.98283 0.0
C16 C 0.00766 0.00082 0.10037 0.0
C17 C 0.98049 0.9963 0.90101 0.0
C18 C 0.84743 0.90685 0.99853 0.0
C19 C 0.09056 0.85845 0.00226 0.0
C20 C 0.90171 0.14151 0.99687 0.0
C21 C 0.14177 0.09049 0.00611 0.0
O22 O 0.95477 0.01289 0.08154 0.0
O23 O 0.56638 0.5138 0.5847 0.0
Zn24 Zn 0.58094 0.50503 0.53295 0.0
O25 O 0.50231 0.51623 0.50006 0.0
Zn26 Zn 0.48445 0.44125 0.47186 0.0
Zn27 Zn 0.43334 0.5339 0.5281 0.0
Zn28 Zn 0.51028 0.58511 0.46805 0.0
O29 O 0.48023 0.45833 0.41876 0.0
O30 O 0.49903 0.55754 0.41626 0.0
O31 O 0.62067 0.42311 0.52686 0.0
O32 O 0.55403 0.37862 0.48406 0.0
O33 O 0.40157 0.40365 0.48157 0.0
O34 O 0.36776 0.46836 0.52065 0.0
O35 O 0.39027 0.6133 0.51463 0.0
O36 O 0.64506 0.5675 0.52353 0.0
O37 O 0.44517 0.65082 0.47359 0.0
O38 O 0.59679 0.62339 0.47884 0.0
C39 C 0.51799 0.52859 0.59955 0.0
C40 C 0.48747 0.50623 0.40077 0.0
C41 C 0.36072 0.41991 0.50176 0.0
C42 C 0.60485 0.37778 0.50637 0.0
C43 C 0.40055 0.65534 0.49303 0.0
C44 C 0.6453 0.61122 0.50147 0.0
O45 O 0.46437 0.53867 0.58102 0.0
H46 H 0.04371 0.01138 0.47418 0.0
H47 H 0.12399 0.96284 0.37839 0.0
H48 H 0.95016 0.06512 0.37045 0.0
N49 N 0.94059 0.07024 0.43839 0.0
N50 N 0.94159 0.08329 0.47085 0.0
C51 C 0.04224 0.01277 0.44523 0.0
C52 C 0.09082 0.98493 0.42877 0.0
C53 C 0.99145 0.04173 0.42386 0.0
C54 C 0.98939 0.04227 0.38645 0.0
C55 C 0.03741 0.0148 0.36969 0.0
C56 C 0.08796 0.98639 0.39114 0.0
H57 H 0.98912 0.97145 0.53001 0.0
H58 H 0.93475 0.8963 0.62689 0.0
H59 H 0.03887 0.06416 0.63109 0.0
N60 N 0.0461 0.06891 0.55992 0.0
N61 N 0.05991 0.11938 0.57414 0.0
C62 C 0.98836 0.9738 0.55882 0.0
C63 C 0.95949 0.92748 0.57631 0.0
C64 C 0.01628 0.02343 0.57834 0.0
C65 C 0.01579 0.02652 0.61583 0.0
C66 C 0.98742 0.98022 0.63379 0.0
C67 C 0.95906 0.93111 0.61365 0.0
H68 H 0.55023 0.49029 0.97086 0.0
H69 H 0.63843 0.47508 0.87445 0.0
H70 H 0.46015 0.56806 0.8722 0.0
N71 N 0.4537 0.55831 0.94301 0.0
N72 N 0.40003 0.57042 0.92687 0.0
C73 C 0.55121 0.50023 0.9427 0.0
C74 C 0.59898 0.4757 0.92438 0.0
C75 C 0.50185 0.53456 0.9241 0.0
C76 C 0.49989 0.54394 0.88682 0.0
C77 C 0.54837 0.52126 0.86842 0.0
C78 C 0.59921 0.49022 0.88801 0.0
H79 H 0.48358 0.45151 0.02975 0.0
H80 H 0.43812 0.38187 0.13015 0.0
H81 H 0.53352 0.55349 0.12761 0.0
N82 N 0.53677 0.55396 0.05624 0.0
N83 N 0.54448 0.60672 0.06845 0.0
C84 C 0.48427 0.45591 0.05858 0.0
C85 C 0.45857 0.40982 0.078 0.0
C86 C 0.51038 0.5082 0.07625 0.0
C87 C 0.51168 0.5139 0.11377 0.0
C88 C 0.4868 0.46796 0.13361 0.0
C89 C 0.46003 0.41634 0.11537 0.0
H90 H 0.16133 0.19128 0.96641 0.0
H91 H 0.47098 0.29051 0.09781 0.0
H92 H 0.25112 0.0813 0.05386 0.0
H93 H 0.37208 0.40749 0.01692 0.0
H94 H 0.40291 0.20605 0.07427 0.0
H95 H 0.24924 0.26318 0.97713 0.0
C96 C 0.1998 0.18184 0.98765 0.0
C97 C 0.19825 0.13054 0.00965 0.0
C98 C 0.39658 0.24993 0.06133 0.0
C99 C 0.2991 0.21295 0.02205 0.0
C100 C 0.4354 0.29813 0.07475 0.0
C101 C 0.42635 0.35625 0.05965 0.0
C102 C 0.34804 0.25999 0.03271 0.0
C103 C 0.38049 0.36343 0.02941 0.0
C104 C 0.25004 0.223 0.99372 0.0
C105 C 0.24985 0.12053 0.03649 0.0
N106 N 0.34234 0.31604 0.01725 0.0
N107 N 0.29781 0.1617 0.04217 0.0
H108 H 0.20855 0.83444 0.03939 0.0
H109 H 0.27946 0.57999 0.89953 0.0
H110 H 0.06622 0.75971 0.95793 0.0
H111 H 0.41238 0.62605 0.99274 0.0
H112 H 0.19762 0.63949 0.92409 0.0
H113 H 0.28106 0.75272 0.02691 0.0
C114 C 0.19216 0.80043 0.01927 0.0
C115 C 0.13154 0.80463 -0.00077 0.0
C116 C 0.24432 0.63597 0.93955 0.0
C117 C 0.21438 0.71141 0.98469 0.0
C118 C 0.29076 0.60205 0.9255 0.0
C119 C 0.35207 0.59847 0.94407 0.0
C120 C 0.25995 0.66761 0.97219 0.0
C121 C 0.36532 0.62781 0.9776 0.0
C122 C 0.23361 0.75377 0.01217 0.0
C123 C 0.11278 0.75896 0.9737 0.0
N124 N 0.31968 0.66199 0.99039 0.0
N125 N 0.15433 0.71482 0.96685 0.0
H126 H 0.81888 0.79697 0.96474 0.0
H127 H 0.55022 0.72259 0.08724 0.0
H128 H 0.74949 0.92545 0.03797 0.0
H129 H 0.60948 0.59523 0.01051 0.0
H130 H 0.61402 0.80162 0.06373 0.0
H131 H 0.7344 0.7266 0.97531 0.0
C132 C 0.78549 0.81077 0.98269 0.0
C133 C 0.79196 0.86699 0.00088 0.0
C134 C 0.61262 0.75668 0.05164 0.0
C135 C 0.69534 0.78643 0.01321 0.0
C136 C 0.57613 0.71184 0.06502 0.0
C137 C 0.57503 0.65286 0.05094 0.0
C138 C 0.64914 0.74202 0.02419 0.0
C139 C 0.60928 0.6404 0.02218 0.0
C140 C 0.73727 0.77049 0.98873 0.0
C141 C 0.74697 0.88242 0.02365 0.0
N142 N 0.64568 0.68458 0.01002 0.0
N143 N 0.70109 0.84215 0.02942 0.0
H144 H 0.90788 0.23101 0.94769 0.0
H145 H 0.65892 0.469 0.99492 0.0
H146 H 0.8101 0.18187 0.03718 0.0
H147 H 0.64174 0.37511 0.89242 0.0
H148 H 0.73747 0.39167 0.01945 0.0
H149 H 0.8372 0.31817 0.93633 0.0
C150 C 0.87229 0.23894 0.96535 0.0
C151 C 0.86411 0.19831 0.99303 0.0
C152 C 0.71616 0.38887 0.99161 0.0
C153 C 0.78423 0.29868 0.98037 0.0
C154 C 0.67148 0.43258 0.97761 0.0
C155 C 0.64497 0.42978 0.94119 0.0
C156 C 0.73461 0.34338 0.96874 0.0
C157 C 0.66273 0.38115 0.92012 0.0
C158 C 0.83224 0.28877 0.95885 0.0
C159 C 0.81731 0.21156 0.0152 0.0
N160 N 0.70702 0.34059 0.93404 0.0
N161 N 0.77837 0.26059 0.00816 0.0
H162 H 0.76165 0.59247 0.54068 0.0
H163 H 0.8752 0.93219 0.51446 0.0
H164 H 0.65813 0.72001 0.46767 0.0
H165 H 0.96927 0.80667 0.59208 0.0
H166 H 0.80793 0.84892 0.4877 0.0
H167 H 0.84969 0.66399 0.55055 0.0
C168 C 0.75761 0.63532 0.52645 0.0
C169 C 0.70186 0.65078 0.50387 0.0
C170 C 0.84397 0.83942 0.51023 0.0
C171 C 0.80254 0.73315 0.51525 0.0
C172 C 0.88255 0.8868 0.52535 0.0
C173 C 0.92687 0.87628 0.55589 0.0
C174 C 0.84999 0.78139 0.52585 0.0
C175 C 0.93458 0.8168 0.56901 0.0
C176 C 0.80802 0.67614 0.53206 0.0
C177 C 0.69987 0.70652 0.48568 0.0
N178 N 0.89594 0.77174 0.5542 0.0
N179 N 0.74915 0.74613 0.49218 0.0
H180 H 0.59021 0.27395 0.46513 0.0
H181 H 0.94182 0.15082 0.53052 0.0
H182 H 0.71915 0.36058 0.54894 0.0
H183 H 0.82022 0.08447 0.43731 0.0
H184 H 0.85417 0.21571 0.54542 0.0
H185 H 0.66745 0.19237 0.4622 0.0
C186 C 0.63449 0.27563 0.48316 0.0
C187 C 0.64842 0.32478 0.50697 0.0
C188 C 0.84654 0.18635 0.52195 0.0
C189 C 0.73747 0.23132 0.50363 0.0
C190 C 0.89634 0.14921 0.51366 0.0
C191 C 0.8885 0.11333 0.48246 0.0
C192 C 0.7885 0.18684 0.49891 0.0
C193 C 0.82867 0.11248 0.4613 0.0
C194 C 0.67868 0.22897 0.48145 0.0
C195 C 0.70654 0.32399 0.52988 0.0
N196 N 0.78126 0.14908 0.46975 0.0
N197 N 0.74916 0.27835 0.52741 0.0
H198 H 0.26262 0.44248 0.5402 0.0
H199 H 0.11489 0.10854 0.51256 0.0
H200 H 0.33376 0.30651 0.47202 0.0
H201 H 0.07967 0.23228 0.59727 0.0
H202 H 0.18011 0.18662 0.48875 0.0
H203 H 0.17969 0.37232 0.55212 0.0
C204 C 0.26057 0.39802 0.52745 0.0
C205 C 0.30597 0.38007 0.5055 0.0
C206 C 0.15755 0.19687 0.51232 0.0
C207 C 0.21089 0.29927 0.51924 0.0
C208 C 0.1203 0.15249 0.52584 0.0
C209 C 0.09252 0.1645 0.5571 0.0
C210 C 0.16646 0.25331 0.5301 0.0
C211 C 0.10079 0.22179 0.57325 0.0
C212 C 0.21313 0.35793 0.53434 0.0
C213 C 0.30018 0.32209 0.4894 0.0
N214 N 0.13727 0.26409 0.5597 0.0
N215 N 0.25384 0.28344 0.49688 0.0
H216 H 0.29327 0.67579 0.52479 0.0
H217 H 0.2177 0.99265 0.4249 0.0
H218 H 0.41401 0.76016 0.4555 0.0
H219 H 0.08159 0.89608 0.47868 0.0
H220 H 0.29879 0.91812 0.44712 0.0
H221 H 0.22336 0.76463 0.51783 0.0
C222 C 0.30537 0.71309 0.50827 0.0
C223 C 0.35934 0.7101 0.49035 0.0
C224 C 0.2515 0.91362 0.45456 0.0
C225 C 0.27956 0.81216 0.48255 0.0
C226 C 0.20534 0.95631 0.44205 0.0
C227 C 0.14275 0.94985 0.44956 0.0
C228 C 0.23492 0.86384 0.4746 0.0
C229 C 0.1293 0.90251 0.47222 0.0
C230 C 0.2654 0.76384 0.50438 0.0
C231 C 0.37264 0.76006 0.46951 0.0
N232 N 0.17482 0.86061 0.4835 0.0
N233 N 0.33288 0.80882 0.46605 0.0
H234 H 0.90998 0.00966 0.14083 0.0
H235 H 0.13488 0.02836 0.32906 0.0
H236 H 0.11445 0.99596 0.15043 0.0
H237 H 0.93223 -0.00058 0.31934 0.0
H238 H 0.12836 0.02412 0.26359 0.0
H239 H 0.91731 0.01387 0.2062 0.0
C240 C 0.95648 0.00752 0.15665 0.0
C241 C 0.01172 0.00241 0.14005 0.0
C242 C 0.08536 0.0187 0.27583 0.0
C243 C 0.02036 0.00747 0.21505 0.0
C244 C 0.08904 0.02088 0.31322 0.0
C245 C 0.03402 0.01416 0.32985 0.0
C246 C 0.0262 0.01014 0.25482 0.0
C247 C 0.97578 0.00574 0.30781 0.0
C248 C 0.96058 0.0098 0.19402 0.0
C249 C 0.07061 -0.0003 0.16204 0.0
N250 N 0.97343 0.00402 0.27147 0.0
N251 N 0.07339 0.00248 0.19842 0.0
H252 H 0.98516 0.09312 0.85574 0.0
H253 H 0.00328 0.88598 0.68177 0.0
H254 H 0.97109 0.89711 0.85585 0.0
H255 H 0.97077 0.07998 0.67641 0.0
H256 H -0.0014 0.88997 0.74629 0.0
H257 H 0.98643 0.08994 0.79073 0.0
C258 C 0.98214 0.04939 0.84212 0.0
C259 C 0.97811 0.99525 0.86137 0.0
C260 C 0.99236 0.93166 0.731 0.0
C261 C 0.98005 0.99139 0.78693 0.0
C262 C 0.99477 0.92944 0.69407 0.0
C263 C 0.98699 0.9827 0.67342 0.0
C264 C 0.98266 0.98762 0.74767 0.0
C265 C 0.9777 0.03785 0.69119 0.0
C266 C 0.98279 0.04768 0.80498 0.0
C267 C 0.97413 0.94 0.84218 0.0
N268 N 0.97582 0.03888 0.72727 0.0
N269 N 0.97558 0.93949 0.80608 0.0
H270 H 0.44118 0.59055 0.64056 0.0
H271 H 0.58583 0.43576 0.82209 0.0
H272 H 0.60762 0.47565 0.64867 0.0
H273 H 0.49982 0.61419 0.8231 0.0
H274 H 0.58151 0.44209 0.75731 0.0
H275 H 0.44957 0.59278 0.70644 0.0
C276 C 0.4795 0.56591 0.65618 0.0
C277 C 0.52369 0.53265 0.63915 0.0
C278 C 0.56401 0.48003 0.77176 0.0
C279 C 0.53284 0.53451 0.71409 0.0
C280 C 0.56683 0.4768 0.8089 0.0
C281 C 0.54438 0.52515 0.82852 0.0
C282 C 0.53709 0.53123 0.75364 0.0
C283 C 0.51757 0.57573 0.80927 0.0
C284 C 0.48436 0.56751 0.69367 0.0
C285 C 0.57262 0.50192 0.66066 0.0
N286 N 0.5144 0.57737 0.7728 0.0
N287 N 0.57544 0.50302 0.697 0.0
H288 H 0.48543 0.59925 0.35223 0.0
H289 H 0.5099 0.37867 0.18448 0.0
H290 H 0.48421 0.40315 0.35898 0.0
H291 H 0.46663 0.57028 0.17333 0.0
H292 H 0.50798 0.38795 0.24912 0.0
H293 H 0.48548 0.59064 0.28726 0.0
C294 C 0.485 0.55437 0.34008 0.0
C295 C 0.48482 0.50182 0.36118 0.0
C296 C 0.49882 0.42796 0.23253 0.0
C297 C 0.48536 0.49175 0.2868 0.0
C298 C 0.49965 0.42269 0.19555 0.0
C299 C 0.48803 0.47371 0.17325 0.0
C300 C 0.48677 0.48477 0.24756 0.0
C301 C 0.47654 0.52982 0.18941 0.0
C302 C 0.48496 0.54953 0.30296 0.0
C303 C 0.48417 0.44492 0.34386 0.0
N304 N 0.47621 0.53384 0.22556 0.0
N305 N 0.48478 0.44143 0.30774 0.0
loop_
_geom_bond_atom_site_label_1
_geom_bond_atom_site_label_2
_geom_bond_distance
_geom_bond_site_symmetry_2
_ccdc_geom_bond_type
O0 Zn1 1.953 . S
O0 C16 1.225 1_565 S
Zn1 O0 1.953 . S
Zn1 O2 1.949 1_565 S
Zn1 O8 1.919 . S
Zn1 O13 1.924 1_565 S
O2 Zn1 1.949 1_545 S
O2 Zn3 1.923 1_444 S
O2 Zn4 1.950 1_455 S
O2 Zn5 1.945 1_554 S
Zn3 O2 1.923 1_666 S
Zn3 O6 1.933 . S
Zn3 O9 1.941 1_655 S
Zn3 O10 1.965 . S
Zn4 O2 1.950 1_655 S
Zn4 O11 1.938 1_545 S
Zn4 O12 1.906 . S
Zn4 O22 1.953 . S
Zn5 O2 1.945 1_556 S
Zn5 O7 1.932 . S
Zn5 O14 1.977 1_455 S
Zn5 O15 1.910 . S
O6 Zn3 1.933 . S
O6 C17 1.230 1_565 S
O7 Zn5 1.932 . S
O7 C17 1.305 1_455 S
O8 Zn1 1.919 . S
O8 C19 1.253 1_554 S
O9 Zn3 1.941 1_455 S
O9 C19 1.283 . S
O10 Zn3 1.965 . S
O10 C18 1.303 1_556 S
O11 Zn4 1.938 1_565 S
O11 C18 1.247 . S
O12 Zn4 1.906 . S
O12 C20 1.304 1_554 S
O13 Zn1 1.924 1_545 S
O13 C21 1.311 . S
O14 Zn5 1.977 1_655 S
O14 C20 1.272 . S
O15 Zn5 1.910 . S
O15 C21 1.231 1_556 S
C16 O0 1.225 1_545 S
C16 O22 1.298 1_455 S
C17 O6 1.230 1_545 S
C17 O7 1.305 1_655 S
C18 O10 1.303 1_554 S
C18 O11 1.247 . S
C19 O8 1.253 1_556 S
C19 O9 1.283 . S
C20 O12 1.304 1_556 S
C20 O14 1.272 . S
C21 O13 1.311 . S
C21 O15 1.231 1_554 S
O22 Zn4 1.953 . S
O22 C16 1.298 1_655 S
O23 Zn24 1.953 . S
O23 C39 1.225 . S
Zn24 O23 1.953 . S
Zn24 O25 1.949 . S
Zn24 O31 1.919 . S
Zn24 O36 1.924 . S
O25 Zn24 1.949 . S
O25 Zn26 1.923 . S
O25 Zn27 1.950 . S
O25 Zn28 1.945 . S
Zn26 O25 1.923 . S
Zn26 O29 1.933 . S
Zn26 O32 1.941 . S
Zn26 O33 1.965 . S
Zn27 O25 1.950 . S
Zn27 O34 1.938 . S
Zn27 O35 1.906 . S
Zn27 O45 1.953 . S
Zn28 O25 1.945 . S
Zn28 O30 1.932 . S
Zn28 O37 1.977 . S
Zn28 O38 1.910 . S
O29 Zn26 1.933 . S
O29 C40 1.226 . S
O30 Zn28 1.932 . S
O30 C40 1.307 . S
O31 Zn24 1.919 . S
O31 C42 1.253 . S
O32 Zn26 1.941 . S
O32 C42 1.283 . S
O33 Zn26 1.965 . S
O33 C41 1.303 . S
O34 Zn27 1.938 . S
O34 C41 1.247 . S
O35 Zn27 1.906 . S
O35 C43 1.304 . S
O36 Zn24 1.924 . S
O36 C44 1.311 . S
O37 Zn28 1.977 . S
O37 C43 1.272 . S
O38 Zn28 1.910 . S
O38 C44 1.231 . S
C39 O23 1.225 . S
C39 O45 1.298 . S
C40 O29 1.226 . S
C40 O30 1.307 . S
C41 O33 1.303 . S
C41 O34 1.247 . S
C42 O31 1.253 . S
C42 O32 1.283 . S
C43 O35 1.304 . S
C43 O37 1.272 . S
C44 O36 1.311 . S
C44 O38 1.231 . S
O45 Zn27 1.953 . S
O45 C39 1.298 . S
H46 C51 0.929 . S
H47 C56 0.931 . S
H48 C54 0.930 . S
N49 N50 1.234 . S
N49 C53 1.453 . S
N50 N49 1.234 . S
C51 H46 0.929 . S
C51 C52 1.373 . S
C51 C53 1.368 1_465 S
C52 C51 1.373 . S
C52 C56 1.397 . S
C53 N49 1.453 . S
C53 C51 1.368 1_645 S
C53 C54 1.373 . S
C54 H48 0.930 . S
C54 C53 1.373 . S
C54 C55 1.374 1_655 S
C55 C54 1.374 1_455 S
C55 C56 1.379 1_545 S
C56 H47 0.931 . S
C56 C52 1.397 . S
C56 C55 1.379 1_565 S
H57 C62 0.929 . S
H58 C67 0.931 . S
H59 C65 0.930 . S
N60 N61 1.234 . S
N60 C64 1.453 . S
N61 N60 1.234 . S
C62 H57 0.929 . S
C62 C63 1.373 . S
C62 C64 1.368 1_665 S
C63 C62 1.373 . S
C63 C67 1.397 . S
C64 N60 1.453 . S
C64 C62 1.368 1_445 S
C64 C65 1.373 . S
C65 H59 0.930 . S
C65 C64 1.373 . S
C65 C66 1.371 1_455 S
C66 C65 1.371 1_655 S
C66 C67 1.383 1_545 S
C67 H58 0.931 . S
C67 C63 1.397 . S
C67 C66 1.383 1_565 S
H68 C73 0.929 . S
H69 C78 0.931 . S
H70 C76 0.930 . S
N71 N72 1.234 . S
N71 C75 1.453 . S
N72 N71 1.234 . S
C73 H68 0.929 . S
C73 C74 1.373 . S
C73 C75 1.368 . S
C74 C73 1.373 . S
C74 C78 1.397 . S
C75 N71 1.453 . S
C75 C73 1.368 . S
C75 C76 1.373 . S
C76 H70 0.930 . S
C76 C75 1.373 . S
C76 C77 1.371 . S
C77 C76 1.371 . S
C77 C78 1.383 . S
C78 H69 0.931 . S
C78 C74 1.397 . S
C78 C77 1.383 . S
H79 C84 0.929 . S
H80 C89 0.931 . S
H81 C87 0.930 . S
N82 N83 1.234 . S
N82 C86 1.453 . S
N83 N82 1.234 . S
C84 H79 0.929 . S
C84 C85 1.373 . S
C84 C86 1.368 . S
C85 C84 1.373 . S
C85 C89 1.397 . S
C86 N82 1.453 . S
C86 C84 1.368 . S
C86 C87 1.373 . S
C87 H81 0.930 . S
C87 C86 1.373 . S
C87 C88 1.371 . S
C88 C87 1.371 . S
C88 C89 1.383 . S
C89 H80 0.931 . S
C89 C85 1.397 . S
C89 C88 1.383 . S
H90 C96 0.930 . S
H91 C100 0.930 . S
H92 C105 0.929 . S
H93 C103 0.929 . S
H94 C98 0.929 . S
H95 C104 0.929 . S
C96 H90 0.930 . S
C96 C97 1.367 . S
C96 C104 1.378 . S
C97 C96 1.367 . S
C97 C105 1.433 . S
C98 H94 0.929 . S
C98 C100 1.378 . S
C98 C102 1.350 . S
C99 C102 1.463 . S
C99 C104 1.350 . S
C99 N107 1.427 . S
C100 H91 0.930 . S
C100 C98 1.378 . S
C100 C101 1.367 . S
C101 C100 1.367 . S
C101 C103 1.433 . S
C102 C98 1.350 . S
C102 C99 1.463 . S
C102 N106 1.427 . S
C103 H93 0.929 . S
C103 C101 1.433 . S
C103 N106 1.384 . S
C104 H95 0.929 . S
C104 C96 1.378 . S
C104 C99 1.350 . S
C105 H92 0.929 . S
C105 C97 1.433 . S
C105 N107 1.384 . S
N106 C102 1.427 . S
N106 C103 1.384 . S
N107 C99 1.427 . S
N107 C105 1.384 . S
H108 C114 0.930 . S
H109 C118 0.930 . S
H110 C123 0.929 . S
H111 C121 0.929 . S
H112 C116 0.929 . S
H113 C122 0.929 1_554 S
C114 H108 0.930 . S
C114 C115 1.367 1_554 S
C114 C122 1.378 1_554 S
C115 C114 1.367 1_556 S
C115 C123 1.433 . S
C116 H112 0.929 . S
C116 C118 1.378 . S
C116 C120 1.350 . S
C117 C120 1.463 . S
C117 C122 1.350 . S
C117 N125 1.427 . S
C118 H109 0.930 . S
C118 C116 1.378 . S
C118 C119 1.367 . S
C119 C118 1.367 . S
C119 C121 1.433 . S
C120 C116 1.350 . S
C120 C117 1.463 . S
C120 N124 1.427 . S
C121 H111 0.929 . S
C121 C119 1.433 . S
C121 N124 1.384 . S
C122 H113 0.929 1_556 S
C122 C114 1.378 1_556 S
C122 C117 1.350 . S
C123 H110 0.929 . S
C123 C115 1.433 . S
C123 N125 1.384 . S
N124 C120 1.427 . S
N124 C121 1.384 . S
N125 C117 1.427 . S
N125 C123 1.384 . S
H126 C132 0.930 . S
H127 C136 0.930 . S
H128 C141 0.929 . S
H129 C139 0.929 . S
H130 C134 0.929 . S
H131 C140 0.929 1_556 S
C132 H126 0.930 . S
C132 C133 1.367 1_556 S
C132 C140 1.378 1_556 S
C133 C132 1.367 1_554 S
C133 C141 1.433 . S
C134 H130 0.929 . S
C134 C136 1.378 . S
C134 C138 1.350 . S
C135 C138 1.463 . S
C135 C140 1.350 . S
C135 N143 1.427 . S
C136 H127 0.930 . S
C136 C134 1.378 . S
C136 C137 1.367 . S
C137 C136 1.367 . S
C137 C139 1.433 . S
C138 C134 1.350 . S
C138 C135 1.463 . S
C138 N142 1.427 . S
C139 H129 0.929 . S
C139 C137 1.433 . S
C139 N142 1.384 . S
C140 H131 0.929 1_554 S
C140 C132 1.378 1_554 S
C140 C135 1.350 . S
C141 H128 0.929 . S
C141 C133 1.433 . S
C141 N143 1.384 . S
N142 C138 1.427 . S
N142 C139 1.384 . S
N143 C135 1.427 . S
N143 C141 1.384 . S
H144 C150 0.930 . S
H145 C154 0.930 . S
H146 C159 0.944 . S
H147 C157 0.929 . S
H148 C152 0.929 . S
H149 C158 0.929 . S
C150 H144 0.930 . S
C150 C151 1.367 . S
C150 C158 1.378 . S
C151 C150 1.367 . S
C151 C159 1.421 1_556 S
C152 H148 0.929 . S
C152 C154 1.378 . S
C152 C156 1.350 . S
C153 C156 1.463 . S
C153 C158 1.350 . S
C153 N161 1.427 . S
C154 H145 0.930 . S
C154 C152 1.378 . S
C154 C155 1.367 . S
C155 C154 1.367 . S
C155 C157 1.433 . S
C156 C152 1.350 . S
C156 C153 1.463 . S
C156 N160 1.427 . S
C157 H147 0.929 . S
C157 C155 1.433 . S
C157 N160 1.384 . S
C158 H149 0.929 . S
C158 C150 1.378 . S
C158 C153 1.350 . S
C159 H146 0.944 . S
C159 C151 1.421 1_554 S
C159 N161 1.381 1_554 S
N160 C156 1.427 . S
N160 C157 1.384 . S
N161 C153 1.427 . S
N161 C159 1.381 1_556 S
H162 C168 0.930 . S
H163 C172 0.930 . S
H164 C177 0.929 . S
H165 C175 0.929 . S
H166 C170 0.929 . S
H167 C176 0.929 . S
C168 H162 0.930 . S
C168 C169 1.367 . S
C168 C176 1.378 . S
C169 C168 1.367 . S
C169 C177 1.433 . S
C170 H166 0.929 . S
C170 C172 1.378 . S
C170 C174 1.350 . S
C171 C174 1.463 . S
C171 C176 1.350 . S
C171 N179 1.427 . S
C172 H163 0.930 . S
C172 C170 1.378 . S
C172 C173 1.367 . S
C173 C172 1.367 . S
C173 C175 1.433 . S
C174 C170 1.350 . S
C174 C171 1.463 . S
C174 N178 1.427 . S
C175 H165 0.929 . S
C175 C173 1.433 . S
C175 N178 1.384 . S
C176 H167 0.929 . S
C176 C168 1.378 . S
C176 C171 1.350 . S
C177 H164 0.929 . S
C177 C169 1.433 . S
C177 N179 1.384 . S
N178 C174 1.427 . S
N178 C175 1.384 . S
N179 C171 1.427 . S
N179 C177 1.384 . S
H180 C186 0.930 . S
H181 C190 0.930 . S
H182 C195 0.929 . S
H183 C193 0.929 . S
H184 C188 0.929 . S
H185 C194 0.929 . S
C186 H180 0.930 . S
C186 C187 1.367 . S
C186 C194 1.378 . S
C187 C186 1.367 . S
C187 C195 1.433 . S
C188 H184 0.929 . S
C188 C190 1.378 . S
C188 C192 1.350 . S
C189 C192 1.463 . S
C189 C194 1.350 . S
C189 N197 1.427 . S
C190 H181 0.930 . S
C190 C188 1.378 . S
C190 C191 1.367 . S
C191 C190 1.367 . S
C191 C193 1.433 . S
C192 C188 1.350 . S
C192 C189 1.463 . S
C192 N196 1.427 . S
C193 H183 0.929 . S
C193 C191 1.433 . S
C193 N196 1.384 . S
C194 H185 0.929 . S
C194 C186 1.378 . S
C194 C189 1.350 . S
C195 H182 0.929 . S
C195 C187 1.433 . S
C195 N197 1.384 . S
N196 C192 1.427 . S
N196 C193 1.384 . S
N197 C189 1.427 . S
N197 C195 1.384 . S
H198 C204 0.930 . S
H199 C208 0.930 . S
H200 C213 0.929 . S
H201 C211 0.929 . S
H202 C206 0.929 . S
H203 C212 0.929 . S
C204 H198 0.930 . S
C204 C205 1.367 . S
C204 C212 1.378 . S
C205 C204 1.367 . S
C205 C213 1.433 . S
C206 H202 0.929 . S
C206 C208 1.378 . S
C206 C210 1.350 . S
C207 C210 1.463 . S
C207 C212 1.350 . S
C207 N215 1.427 . S
C208 H199 0.930 . S
C208 C206 1.378 . S
C208 C209 1.367 . S
C209 C208 1.367 . S
C209 C211 1.433 . S
C210 C206 1.350 . S
C210 C207 1.463 . S
C210 N214 1.427 . S
C211 H201 0.929 . S
C211 C209 1.433 . S
C211 N214 1.384 . S
C212 H203 0.929 . S
C212 C204 1.378 . S
C212 C207 1.350 . S
C213 H200 0.929 . S
C213 C205 1.433 . S
C213 N215 1.384 . S
N214 C210 1.427 . S
N214 C211 1.384 . S
N215 C207 1.427 . S
N215 C213 1.384 . S
H216 C222 0.930 . S
H217 C226 0.930 . S
H218 C231 0.929 . S
H219 C229 0.929 . S
H220 C224 0.929 . S
H221 C230 0.929 . S
C222 H216 0.930 . S
C222 C223 1.367 . S
C222 C230 1.378 . S
C223 C222 1.367 . S
C223 C231 1.433 . S
C224 H220 0.929 . S
C224 C226 1.378 . S
C224 C228 1.350 . S
C225 C228 1.463 . S
C225 C230 1.350 . S
C225 N233 1.427 . S
C226 H217 0.930 . S
C226 C224 1.378 . S
C226 C227 1.367 . S
C227 C226 1.367 . S
C227 C229 1.433 . S
C228 C224 1.350 . S
C228 C225 1.463 . S
C228 N232 1.427 . S
C229 H219 0.929 . S
C229 C227 1.433 . S
C229 N232 1.384 . S
C230 H221 0.929 . S
C230 C222 1.378 . S
C230 C225 1.350 . S
C231 H218 0.929 . S
C231 C223 1.433 . S
C231 N233 1.384 . S
N232 C228 1.427 . S
N232 C229 1.384 . S
N233 C225 1.427 . S
N233 C231 1.384 . S
H234 C240 0.930 . S
H235 C244 0.930 . S
H236 C249 0.929 . S
H237 C247 0.929 . S
H238 C242 0.929 . S
H239 C248 0.929 . S
C240 H234 0.930 . S
C240 C241 1.367 1_655 S
C240 C248 1.378 . S
C241 C240 1.367 1_455 S
C241 C249 1.433 1_545 S
C242 H238 0.929 . S
C242 C244 1.378 . S
C242 C246 1.350 1_565 S
C243 C246 1.463 . S
C243 C248 1.350 1_455 S
C243 N251 1.427 1_545 S
C244 H235 0.930 . S
C244 C242 1.378 . S
C244 C245 1.367 1_565 S
C245 C244 1.367 1_545 S
C245 C247 1.433 1_455 S
C246 C242 1.350 1_545 S
C246 C243 1.463 . S
C246 N250 1.427 1_455 S
C247 H237 0.929 . S
C247 C245 1.433 1_655 S
C247 N250 1.384 . S
C248 H239 0.929 . S
C248 C240 1.378 . S
C248 C243 1.350 1_655 S
C249 H236 0.929 . S
C249 C241 1.433 1_565 S
C249 N251 1.384 . S
N250 C246 1.427 1_655 S
N250 C247 1.384 . S
N251 C243 1.427 1_565 S
N251 C249 1.384 . S
H252 C258 0.930 . S
H253 C262 0.930 . S
H254 C267 0.929 . S
H255 C265 0.929 . S
H256 C260 0.929 . S
H257 C266 0.929 . S
C258 H252 0.930 . S
C258 C259 1.376 . S
C258 C266 1.378 . S
C259 C258 1.376 . S
C259 C267 1.426 1_445 S
C260 H256 0.929 . S
C260 C262 1.378 . S
C260 C264 1.357 1_565 S
C261 C264 1.464 1_455 S
C261 C266 1.350 . S
C261 N269 1.427 1_445 S
C262 H253 0.930 . S
C262 C260 1.378 . S
C262 C263 1.366 1_665 S
C263 C262 1.366 1_445 S
C263 C265 1.434 . S
C264 C260 1.357 1_545 S
C264 C261 1.464 1_655 S
C264 N268 1.418 1_655 S
C265 H255 0.929 . S
C265 C263 1.434 . S
C265 N268 1.384 . S
C266 H257 0.929 . S
C266 C258 1.378 . S
C266 C261 1.350 . S
C267 H254 0.929 . S
C267 C259 1.426 1_665 S
C267 N269 1.384 . S
N268 C264 1.418 1_455 S
N268 C265 1.384 . S
N269 C261 1.427 1_665 S
N269 C267 1.384 . S
H270 C276 0.930 . S
H271 C280 0.930 . S
H272 C285 0.929 . S
H273 C283 0.929 . S
H274 C278 0.929 . S
H275 C284 0.929 . S
C276 H270 0.930 . S
C276 C277 1.367 . S
C276 C284 1.378 . S
C277 C276 1.367 . S
C277 C285 1.433 . S
C278 H274 0.929 . S
C278 C280 1.378 . S
C278 C282 1.350 . S
C279 C282 1.463 . S
C279 C284 1.350 . S
C279 N287 1.427 . S
C280 H271 0.930 . S
C280 C278 1.378 . S
C280 C281 1.367 . S
C281 C280 1.367 . S
C281 C283 1.433 . S
C282 C278 1.350 . S
C282 C279 1.463 . S
C282 N286 1.427 . S
C283 H273 0.929 . S
C283 C281 1.433 . S
C283 N286 1.384 . S
C284 H275 0.929 . S
C284 C276 1.378 . S
C284 C279 1.350 . S
C285 H272 0.929 . S
C285 C277 1.433 . S
C285 N287 1.384 . S
N286 C282 1.427 . S
N286 C283 1.384 . S
N287 C279 1.427 . S
N287 C285 1.384 . S
H288 C294 0.930 . S
H289 C298 0.930 . S
H290 C303 0.929 . S
H291 C301 0.929 . S
H292 C296 0.929 . S
H293 C302 0.929 . S
C294 H288 0.930 . S
C294 C295 1.367 . S
C294 C302 1.378 . S
C295 C294 1.367 . S
C295 C303 1.433 . S
C296 H292 0.929 . S
C296 C298 1.378 . S
C296 C300 1.350 . S
C297 C300 1.463 . S
C297 C302 1.350 . S
C297 N305 1.427 . S
C298 H289 0.930 . S
C298 C296 1.378 . S
C298 C299 1.367 . S
C299 C298 1.367 . S
C299 C301 1.433 . S
C300 C296 1.350 . S
C300 C297 1.463 . S
C300 N304 1.427 . S
C301 H291 0.929 . S
C301 C299 1.433 . S
C301 N304 1.384 . S
C302 H293 0.929 . S
C302 C294 1.378 . S
C302 C297 1.350 . S
C303 H290 0.929 . S
C303 C295 1.433 . S
C303 N305 1.384 . S
N304 C300 1.427 . S
N304 C301 1.384 . S
N305 C297 1.427 . S
N305 C303 1.384 . S
C101 C85 1.513 . S
C97 C21 1.512 . S
C115 C19 1.410 . S
C119 N72 1.386 . S
C133 C18 1.381 . S
C137 N83 1.367 . S
C151 C20 1.502 . S
C155 C74 1.508 . S
C169 C44 1.515 . S
C173 C63 1.519 . S
C187 C42 1.412 . S
C191 N50 1.392 . S
C209 N61 1.379 . S
C205 C41 1.382 . S
C227 C52 1.502 . S
C223 C43 1.497 . S
C241 C16 1.526 . S
C245 C55 1.519 . S
C259 C17 1.486 1_455 S
C263 C66 1.482 1_455 S
C281 C77 1.519 . S
C277 C39 1.527 . S
C295 C40 1.491 . S
C299 C88 1.482 . S
