# Generated by pormake.
# Topology ptr, (4,4)-cn, num edge types: 1
# Building blocks:
#     Node 0, Type 0, BuildingBlock: AZAVOO_clean_sbu_0, # of connection points: 4
#     Node 1, Type 0, BuildingBlock: AZAVOO_clean_sbu_0, # of connection points: 4
#     Node 2, Type 0, BuildingBlock: AZAVOO_clean_sbu_0, # of connection points: 4
#     Node 3, Type 0, BuildingBlock: AZAVOO_clean_sbu_0, # of connection points: 4
#     Node 4, Type 0, BuildingBlock: AZAVOO_clean_sbu_0, # of connection points: 4
#     Node 5, Type 0, BuildingBlock: AZAVOO_clean_sbu_0, # of connection points: 4
#     Node 6, Type 0, BuildingBlock: AZAVOO_clean_sbu_0, # of connection points: 4
#     Node 7, Type 0, BuildingBlock: AZAVOO_clean_sbu_0, # of connection points: 4
#     Node 8, Type 0, BuildingBlock: AZAVOO_clean_sbu_0, # of connection points: 4
#     Node 9, Type 0, BuildingBlock: AZAVOO_clean_sbu_0, # of connection points: 4
#     Node 10, Type 0, BuildingBlock: AZAVOO_clean_sbu_0, # of connection points: 4
#     Node 11, Type 0, BuildingBlock: AZAVOO_clean_sbu_0, # of connection points: 4
#     Node 12, Type 0, BuildingBlock: AZAVOO_clean_sbu_0, # of connection points: 4
#     Node 13, Type 0, BuildingBlock: AZAVOO_clean_sbu_0, # of connection points: 4
#     Node 14, Type 0, BuildingBlock: AZAVOO_clean_sbu_0, # of connection points: 4
#     Node 15, Type 0, BuildingBlock: AZAVOO_clean_sbu_0, # of connection points: 4
#     Node 16, Type 0, BuildingBlock: AZAVOO_clean_sbu_0, # of connection points: 4
#     Node 17, Type 0, BuildingBlock: AZAVOO_clean_sbu_0, # of connection points: 4
#     Node 18, Type 1, BuildingBlock: MIFKUJ_clean_linker_1, # of connection points: 4
#     Node 19, Type 1, BuildingBlock: MIFKUJ_clean_linker_1, # of connection points: 4
#     Node 20, Type 1, BuildingBlock: MIFKUJ_clean_linker_1, # of connection points: 4
#     Node 21, Type 1, BuildingBlock: MIFKUJ_clean_linker_1, # of connection points: 4
#     Node 22, Type 1, BuildingBlock: MIFKUJ_clean_linker_1, # of connection points: 4
#     Node 23, Type 1, BuildingBlock: MIFKUJ_clean_linker_1, # of connection points: 4
#     Node 24, Type 1, BuildingBlock: MIFKUJ_clean_linker_1, # of connection points: 4
#     Node 25, Type 1, BuildingBlock: MIFKUJ_clean_linker_1, # of connection points: 4
#     Node 26, Type 1, BuildingBlock: MIFKUJ_clean_linker_1, # of connection points: 4
#     Node 27, Type 1, BuildingBlock: MIFKUJ_clean_linker_1, # of connection points: 4
#     Node 28, Type 1, BuildingBlock: MIFKUJ_clean_linker_1, # of connection points: 4
#     Node 29, Type 1, BuildingBlock: MIFKUJ_clean_linker_1, # of connection points: 4
#     Node 30, Type 1, BuildingBlock: MIFKUJ_clean_linker_1, # of connection points: 4
#     Node 31, Type 1, BuildingBlock: MIFKUJ_clean_linker_1, # of connection points: 4
#     Node 32, Type 1, BuildingBlock: MIFKUJ_clean_linker_1, # of connection points: 4
#     Node 33, Type 1, BuildingBlock: MIFKUJ_clean_linker_1, # of connection points: 4
#     Node 34, Type 1, BuildingBlock: MIFKUJ_clean_linker_1, # of connection points: 4
#     Node 35, Type 1, BuildingBlock: MIFKUJ_clean_linker_1, # of connection points: 4
#     Edge 36, Type (0, 1), BuildingBlock: XIVTED_clean_linker_0, # of connection points: 2
#     Edge 37, Type (0, 1), BuildingBlock: XIVTED_clean_linker_0, # of connection points: 2
#     Edge 38, Type (0, 1), BuildingBlock: XIVTED_clean_linker_0, # of connection points: 2
#     Edge 39, Type (0, 1), BuildingBlock: XIVTED_clean_linker_0, # of connection points: 2
#     Edge 40, Type (0, 1), BuildingBlock: XIVTED_clean_linker_0, # of connection points: 2
#     Edge 41, Type (0, 1), BuildingBlock: XIVTED_clean_linker_0, # of connection points: 2
#     Edge 42, Type (0, 1), BuildingBlock: XIVTED_clean_linker_0, # of connection points: 2
#     Edge 43, Type (0, 1), BuildingBlock: XIVTED_clean_linker_0, # of connection points: 2
#     Edge 44, Type (0, 1), BuildingBlock: XIVTED_clean_linker_0, # of connection points: 2
#     Edge 45, Type (0, 1), BuildingBlock: XIVTED_clean_linker_0, # of connection points: 2
#     Edge 46, Type (0, 1), BuildingBlock: XIVTED_clean_linker_0, # of connection points: 2
#     Edge 47, Type (0, 1), BuildingBlock: XIVTED_clean_linker_0, # of connection points: 2
#     Edge 48, Type (0, 1), BuildingBlock: XIVTED_clean_linker_0, # of connection points: 2
#     Edge 49, Type (0, 1), BuildingBlock: XIVTED_clean_linker_0, # of connection points: 2
#     Edge 50, Type (0, 1), BuildingBlock: XIVTED_clean_linker_0, # of connection points: 2
#     Edge 51, Type (0, 1), BuildingBlock: XIVTED_clean_linker_0, # of connection points: 2
#     Edge 52, Type (0, 1), BuildingBlock: XIVTED_clean_linker_0, # of connection points: 2
#     Edge 53, Type (0, 1), BuildingBlock: XIVTED_clean_linker_0, # of connection points: 2
#     Edge 54, Type (0, 1), BuildingBlock: XIVTED_clean_linker_0, # of connection points: 2
#     Edge 55, Type (0, 1), BuildingBlock: XIVTED_clean_linker_0, # of connection points: 2
#     Edge 56, Type (0, 1), BuildingBlock: XIVTED_clean_linker_0, # of connection points: 2
#     Edge 57, Type (0, 1), BuildingBlock: XIVTED_clean_linker_0, # of connection points: 2
#     Edge 58, Type (0, 1), BuildingBlock: XIVTED_clean_linker_0, # of connection points: 2
#     Edge 59, Type (0, 1), BuildingBlock: XIVTED_clean_linker_0, # of connection points: 2
#     Edge 60, Type (0, 1), BuildingBlock: XIVTED_clean_linker_0, # of connection points: 2
#     Edge 61, Type (0, 1), BuildingBlock: XIVTED_clean_linker_0, # of connection points: 2
#     Edge 62, Type (0, 1), BuildingBlock: XIVTED_clean_linker_0, # of connection points: 2
#     Edge 63, Type (0, 1), BuildingBlock: XIVTED_clean_linker_0, # of connection points: 2
#     Edge 64, Type (0, 1), BuildingBlock: XIVTED_clean_linker_0, # of connection points: 2
#     Edge 65, Type (0, 1), BuildingBlock: XIVTED_clean_linker_0, # of connection points: 2
#     Edge 66, Type (0, 1), BuildingBlock: XIVTED_clean_linker_0, # of connection points: 2
#     Edge 67, Type (0, 1), BuildingBlock: XIVTED_clean_linker_0, # of connection points: 2
#     Edge 68, Type (0, 1), BuildingBlock: XIVTED_clean_linker_0, # of connection points: 2
#     Edge 69, Type (0, 1), BuildingBlock: XIVTED_clean_linker_0, # of connection points: 2
#     Edge 70, Type (0, 1), BuildingBlock: XIVTED_clean_linker_0, # of connection points: 2
#     Edge 71, Type (0, 1), BuildingBlock: XIVTED_clean_linker_0, # of connection points: 2
#     Edge 72, Type (0, 1), BuildingBlock: XIVTED_clean_linker_0, # of connection points: 2
#     Edge 73, Type (0, 1), BuildingBlock: XIVTED_clean_linker_0, # of connection points: 2
#     Edge 74, Type (0, 1), BuildingBlock: XIVTED_clean_linker_0, # of connection points: 2
#     Edge 75, Type (0, 1), BuildingBlock: XIVTED_clean_linker_0, # of connection points: 2
#     Edge 76, Type (0, 1), BuildingBlock: XIVTED_clean_linker_0, # of connection points: 2
#     Edge 77, Type (0, 1), BuildingBlock: XIVTED_clean_linker_0, # of connection points: 2
#     Edge 78, Type (0, 1), BuildingBlock: XIVTED_clean_linker_0, # of connection points: 2
#     Edge 79, Type (0, 1), BuildingBlock: XIVTED_clean_linker_0, # of connection points: 2
#     Edge 80, Type (0, 1), BuildingBlock: XIVTED_clean_linker_0, # of connection points: 2
#     Edge 81, Type (0, 1), BuildingBlock: XIVTED_clean_linker_0, # of connection points: 2
#     Edge 82, Type (0, 1), BuildingBlock: XIVTED_clean_linker_0, # of connection points: 2
#     Edge 83, Type (0, 1), BuildingBlock: XIVTED_clean_linker_0, # of connection points: 2
#     Edge 84, Type (0, 1), BuildingBlock: XIVTED_clean_linker_0, # of connection points: 2
#     Edge 85, Type (0, 1), BuildingBlock: XIVTED_clean_linker_0, # of connection points: 2
#     Edge 86, Type (0, 1), BuildingBlock: XIVTED_clean_linker_0, # of connection points: 2
#     Edge 87, Type (0, 1), BuildingBlock: XIVTED_clean_linker_0, # of connection points: 2
#     Edge 88, Type (0, 1), BuildingBlock: XIVTED_clean_linker_0, # of connection points: 2
#     Edge 89, Type (0, 1), BuildingBlock: XIVTED_clean_linker_0, # of connection points: 2
#     Edge 90, Type (0, 1), BuildingBlock: XIVTED_clean_linker_0, # of connection points: 2
#     Edge 91, Type (0, 1), BuildingBlock: XIVTED_clean_linker_0, # of connection points: 2
#     Edge 92, Type (0, 1), BuildingBlock: XIVTED_clean_linker_0, # of connection points: 2
#     Edge 93, Type (0, 1), BuildingBlock: XIVTED_clean_linker_0, # of connection points: 2
#     Edge 94, Type (0, 1), BuildingBlock: XIVTED_clean_linker_0, # of connection points: 2
#     Edge 95, Type (0, 1), BuildingBlock: XIVTED_clean_linker_0, # of connection points: 2
#     Edge 96, Type (0, 1), BuildingBlock: XIVTED_clean_linker_0, # of connection points: 2
#     Edge 97, Type (0, 1), BuildingBlock: XIVTED_clean_linker_0, # of connection points: 2
#     Edge 98, Type (0, 1), BuildingBlock: XIVTED_clean_linker_0, # of connection points: 2
#     Edge 99, Type (0, 1), BuildingBlock: XIVTED_clean_linker_0, # of connection points: 2
#     Edge 100, Type (0, 1), BuildingBlock: XIVTED_clean_linker_0, # of connection points: 2
#     Edge 101, Type (0, 1), BuildingBlock: XIVTED_clean_linker_0, # of connection points: 2
#     Edge 102, Type (0, 1), BuildingBlock: XIVTED_clean_linker_0, # of connection points: 2
#     Edge 103, Type (0, 1), BuildingBlock: XIVTED_clean_linker_0, # of connection points: 2
#     Edge 104, Type (0, 1), BuildingBlock: XIVTED_clean_linker_0, # of connection points: 2
#     Edge 105, Type (0, 1), BuildingBlock: XIVTED_clean_linker_0, # of connection points: 2
#     Edge 106, Type (0, 1), BuildingBlock: XIVTED_clean_linker_0, # of connection points: 2
#     Edge 107, Type (0, 1), BuildingBlock: XIVTED_clean_linker_0, # of connection points: 2
# Relax obj value: 0.079
# Max RMSD: 0.278
# Mean RMSD: 0.120
data_MOF--net-ptr--node1-AZAVOO_clean_sbu_0--node2-MIFKUJ_clean_linker_1--edge1-XIVTED_clean_linker_0
_symmetry_space_group_name_H-M    P1
_symmetry_Int_Tables_number       1
_symmetry_cell_setting            triclinic
loop_
_symmetry_equiv_pos_as_xyz
'x, y, z'
_cell_length_a     90.931088
_cell_length_b     89.482535
_cell_length_c     59.440706
_cell_angle_alpha  91.181906
_cell_angle_beta   90.996356
_cell_angle_gamma 120.01247
loop_
_atom_site_label
_atom_site_type_symbol
_atom_site_fract_x
_atom_site_fract_y
_atom_site_fract_z
_atom_type_partial_charge
Mg0 Mg 0.02044 0.33846 0.98704 0.0
O1 O 0.0068 0.34836 0.01052 0.0
O2 O 0.99011 0.35381 0.98816 0.0
Mg3 Mg 0.99204 0.34688 0.95167 0.0
C4 C 0.99616 0.35362 0.00763 0.0
C5 C 0.0418 0.34017 0.03043 0.0
O6 O 0.04749 0.35676 0.02843 0.0
O7 O 0.99626 0.31181 0.98249 0.0
O8 O 0.98031 0.3185 0.96054 0.0
O9 O 0.04054 0.36616 0.9819 0.0
O10 O 0.01745 0.35145 0.96031 0.0
C11 C 0.98252 0.30751 0.97123 0.0
C12 C 0.03092 0.36588 0.9654 0.0
O13 O 0.03013 0.32949 0.01681 0.0
Mg14 Mg 0.65759 0.64587 0.03997 0.0
O15 O 0.6373 0.64015 0.01242 0.0
O16 O 0.61378 0.63562 0.02959 0.0
Mg17 Mg 0.6183 0.63599 0.06775 0.0
C18 C 0.62193 0.63692 0.01175 0.0
C19 C 0.69338 0.66833 0.02151 0.0
O20 O 0.69624 0.67245 0.04312 0.0
O21 O 0.66052 0.67226 0.0484 0.0
O22 O 0.63759 0.66499 0.06874 0.0
O23 O 0.64987 0.61787 0.04042 0.0
O24 O 0.63862 0.63006 0.06134 0.0
C25 C 0.65171 0.67632 0.06094 0.0
C26 C 0.63865 0.61628 0.05476 0.0
O27 O 0.67838 0.65755 0.01447 0.0
Mg28 Mg 0.34375 0.99288 0.98891 0.0
O29 O 0.36227 0.00405 0.0194 0.0
O30 O 0.38675 0.02581 0.00773 0.0
Mg31 Mg 0.38442 0.02733 0.96956 0.0
C32 C 0.3775 0.01628 0.02329 0.0
C33 C 0.3068 0.97515 0.00428 0.0
O34 O 0.30477 0.97691 0.98274 0.0
O35 O 0.34064 0.01647 0.98806 0.0
O36 O 0.365 0.03641 0.97374 0.0
O37 O 0.35224 0.97377 0.98171 0.0
O38 O 0.36409 2e-05 0.9682 0.0
C39 C 0.35012 0.03155 0.98076 0.0
C40 C 0.36414 0.98577 0.97029 0.0
O41 O 0.32164 0.98013 0.01227 0.0
Mg42 Mg 0.98106 0.65712 0.04228 0.0
O43 O 0.99337 0.64751 0.01628 0.0
O44 O 0.01311 0.64427 0.03502 0.0
Mg45 Mg 0.01335 0.65126 0.07221 0.0
C46 C 0.00499 0.64342 0.01686 0.0
C47 C 0.9622 0.67381 0.02138 0.0
O48 O 0.96316 0.67757 0.04304 0.0
O49 O 0.0045 0.68434 0.04447 0.0
O50 O 0.02291 0.67943 0.06373 0.0
O51 O 0.96237 0.62938 0.04921 0.0
O52 O 0.98689 0.64513 0.06768 0.0
C53 C 0.01906 0.68966 0.05402 0.0
C54 C 0.97342 0.63037 0.0641 0.0
O55 O 0.96876 0.66497 0.01447 0.0
Mg56 Mg 0.34121 0.35016 0.97347 0.0
O57 O 0.36384 0.35551 0.99679 0.0
O58 O 0.38499 0.35895 0.97496 0.0
Mg59 Mg 0.37619 0.35634 0.93796 0.0
C60 C 0.37899 0.35848 0.99437 0.0
C61 C 0.31157 0.34516 0.0009 0.0
O62 O 0.31091 0.35308 0.98286 0.0
O63 O 0.33544 0.32259 0.96532 0.0
O64 O 0.35603 0.32782 0.94131 0.0
O65 O 0.35112 0.37867 0.97166 0.0
O66 O 0.35747 0.3636 0.94795 0.0
C67 C 0.34258 0.31736 0.95137 0.0
C68 C 0.35957 0.37832 0.95454 0.0
O69 O 0.32341 0.3416 0.0029 0.0
Mg70 Mg 0.6616 0.01426 0.04533 0.0
O71 O 0.64176 0.00178 0.01648 0.0
O72 O 0.61837 0.97946 0.0295 0.0
Mg73 Mg 0.62327 0.97788 0.06703 0.0
C74 C 0.62661 0.98919 0.01351 0.0
C75 C 0.69608 0.02898 0.02222 0.0
O76 O 0.69893 0.0224 0.04021 0.0
O77 O 0.66687 0.99204 0.04461 0.0
O78 O 0.64353 0.97047 0.05905 0.0
O79 O 0.65083 0.03118 0.05422 0.0
O80 O 0.64258 0.00565 0.06854 0.0
C81 C 0.65834 0.97657 0.05108 0.0
C82 C 0.6407 0.01892 0.06704 0.0
O83 O 0.68186 0.0283 0.01964 0.0
Mg84 Mg 0.67637 0.66792 0.31971 0.0
O85 O 0.66332 0.67631 0.34618 0.0
O86 O 0.64426 0.68053 0.3273 0.0
Mg87 Mg 0.64527 0.67555 0.28972 0.0
C88 C 0.65171 0.68042 0.34565 0.0
C89 C 0.69493 0.65053 0.33962 0.0
O90 O 0.69376 0.6469 0.3179 0.0
O91 O 0.65285 0.64078 0.31512 0.0
O92 O 0.63535 0.64691 0.29573 0.0
O93 O 0.6955 0.69586 0.31513 0.0
O94 O 0.67152 0.6813 0.29516 0.0
C95 C 0.63868 0.63606 0.30473 0.0
C96 C 0.68506 0.69578 0.29997 0.0
O97 O 0.68822 0.65913 0.34697 0.0
Mg98 Mg 0.31239 0.98229 0.37715 0.0
O99 O 0.29179 0.97643 0.34975 0.0
O100 O 0.26903 0.97281 0.36806 0.0
Mg101 Mg 0.27425 0.97468 0.40612 0.0
C102 C 0.27648 0.97341 0.3498 0.0
C103 C 0.34723 0.99443 0.36019 0.0
O104 O 0.34786 0.99135 0.38161 0.0
O105 O 0.31646 0.00932 0.38396 0.0
O106 O 0.29419 0.00349 0.40501 0.0
O107 O 0.3039 0.95422 0.37939 0.0
O108 O 0.29381 0.96772 0.39984 0.0
C109 C 0.30823 0.01421 0.39637 0.0
C110 C 0.29338 0.95353 0.39428 0.0
O111 O 0.33331 0.99217 0.3517 0.0
Mg112 Mg 0.00542 0.30538 0.31048 0.0
O113 O 0.02964 0.31862 0.3329 0.0
O114 O 0.05202 0.3298 0.3107 0.0
Mg115 Mg 0.04198 0.32502 0.27411 0.0
C116 C 0.04565 0.32675 0.33019 0.0
C117 C 0.97632 0.30372 0.3376 0.0
O118 O 0.97292 0.30701 0.31733 0.0
O119 O 0.00825 0.33147 0.30285 0.0
O120 O 0.03022 0.34227 0.2799 0.0
O121 O 0.00734 0.28131 0.30819 0.0
O122 O 0.01831 0.30244 0.28412 0.0
C123 C 0.01858 0.34337 0.29028 0.0
C124 C 0.01617 0.28788 0.2905 0.0
O125 O 0.98953 0.30251 0.34084 0.0
Mg126 Mg 0.66055 0.99176 0.36593 0.0
O127 O 0.6729 0.98351 0.3382 0.0
O128 O 0.69382 0.9813 0.35535 0.0
Mg129 Mg 0.69442 0.98704 0.39296 0.0
C130 C 0.68515 0.98034 0.3377 0.0
C131 C 0.63529 0.98801 0.32683 0.0
O132 O 0.63209 0.97199 0.32734 0.0
O133 O 0.68325 0.01917 0.36836 0.0
O134 O 0.70303 0.01544 0.38604 0.0
O135 O 0.64239 0.96412 0.37192 0.0
O136 O 0.66731 0.97926 0.38975 0.0
C137 C 0.69812 0.02516 0.37718 0.0
C138 C 0.6537 0.96457 0.38589 0.0
O139 O 0.6469 -0.00063 0.3399 0.0
Mg140 Mg 0.01589 0.68388 0.31249 0.0
O141 O 0.03505 0.69149 0.34235 0.0
O142 O 0.05994 0.69753 0.32803 0.0
Mg143 Mg 0.0573 0.69572 0.28965 0.0
C144 C 0.0507 0.69587 0.34478 0.0
C145 C 0.97919 0.66747 0.32769 0.0
O146 O 0.97779 0.66978 0.30617 0.0
O147 O 0.015 0.65807 0.30695 0.0
O148 O 0.03983 0.66643 0.29083 0.0
O149 O 0.02214 0.71133 0.30956 0.0
O150 O 0.03544 0.69987 0.29177 0.0
C151 C 0.0255 0.6546 0.2975 0.0
C152 C 0.03414 0.71327 0.29641 0.0
O153 O 0.99379 0.67193 0.33617 0.0
Mg154 Mg 0.33514 0.36196 0.37407 0.0
O155 O 0.31123 0.34543 0.35221 0.0
O156 O 0.28935 0.3309 0.37446 0.0
Mg157 Mg 0.29948 0.33888 0.41106 0.0
C158 C 0.29553 0.33478 0.3549 0.0
C159 C 0.34898 0.37078 0.32501 0.0
O160 O 0.33669 0.37435 0.32252 0.0
O161 O 0.33662 0.33822 0.38342 0.0
O162 O 0.31586 0.32605 0.4081 0.0
O163 O 0.32926 0.3836 0.37498 0.0
O164 O 0.32097 0.36319 0.39998 0.0
C165 C 0.32834 0.3267 0.39767 0.0
C166 C 0.32099 0.37667 0.39295 0.0
O167 O 0.35128 0.36567 0.34382 0.0
Mg168 Mg 0.34488 0.01008 0.656 0.0
O169 O 0.33092 0.01739 0.68242 0.0
O170 O 0.31021 0.01899 0.66371 0.0
Mg171 Mg 0.31081 0.01302 0.6264 0.0
C172 C 0.3184 0.02016 0.68194 0.0
C173 C 0.36613 0.99575 0.67635 0.0
O174 O 0.36496 0.99165 0.65477 0.0
O175 O 0.32307 0.98216 0.65298 0.0
O176 O 0.30306 0.98501 0.63433 0.0
O177 O 0.36204 0.03807 0.65029 0.0
O178 O 0.33797 0.02161 0.63105 0.0
C179 C 0.30827 0.97572 0.64371 0.0
C180 C 0.35088 0.03672 0.63533 0.0
O181 O 0.35852 0.00353 0.68336 0.0
Mg182 Mg 0.99498 0.31605 0.7115 0.0
O183 O 0.97215 0.30759 0.68671 0.0
O184 O 0.94993 0.30268 0.70731 0.0
Mg185 Mg 0.95842 0.3088 0.74428 0.0
C186 C 0.95645 0.30298 0.68836 0.0
C187 C 0.0263 0.3229 0.68709 0.0
O188 O 0.02767 0.31728 0.70682 0.0
O189 O 0.99834 0.34294 0.71604 0.0
O190 O 0.97582 0.33738 0.73652 0.0
O191 O 0.98725 0.28839 0.7164 0.0
O192 O 0.97887 0.30325 0.73737 0.0
C193 C 0.98931 0.34788 0.72658 0.0
C194 C 0.97811 0.28878 0.73261 0.0
O195 O 0.01328 0.32423 0.68271 0.0
Mg196 Mg 0.67887 0.65096 0.65323 0.0
O197 O 0.69872 0.66761 0.68071 0.0
O198 O 0.7218 0.68729 0.66354 0.0
Mg199 Mg 0.71747 0.68193 0.62538 0.0
C200 C 0.71379 0.68059 0.6814 0.0
C201 C 0.64324 0.63764 0.67032 0.0
O202 O 0.64139 0.63875 0.64855 0.0
O203 O 0.67439 0.67304 0.6446 0.0
O204 O 0.69697 0.68965 0.62427 0.0
O205 O 0.68832 0.632 0.65258 0.0
O206 O 0.69819 0.65515 0.63196 0.0
C207 C 0.68257 0.68587 0.63208 0.0
C208 C 0.69916 0.642 0.63823 0.0
O209 O 0.6578 0.64156 0.67839 0.0
Mg210 Mg 0.32091 0.32713 0.69888 0.0
O211 O 0.33505 0.32 0.67276 0.0
O212 O 0.35491 0.31726 0.69193 0.0
Mg213 Mg 0.35254 0.32075 0.72965 0.0
C214 C 0.34738 0.31698 0.67345 0.0
C215 C 0.3001 0.34203 0.67852 0.0
O216 O 0.29836 0.34286 0.70033 0.0
O217 O 0.34366 0.35463 0.70458 0.0
O218 O 0.36062 0.34923 0.72641 0.0
O219 O 0.30221 0.2989 0.70278 0.0
O220 O 0.32592 0.31359 0.72318 0.0
C221 C 0.35701 0.35977 0.7171 0.0
C222 C 0.31259 0.299 0.71804 0.0
O223 O 0.3093 0.33603 0.67143 0.0
Mg224 Mg 0.68026 0.01255 0.64278 0.0
O225 O 0.70295 0.02164 0.66791 0.0
O226 O 0.72532 0.02586 0.64817 0.0
Mg227 Mg 0.71716 0.01953 0.611 0.0
C228 C 0.71862 0.02601 0.66681 0.0
C229 C 0.66256 0.01634 0.68475 0.0
O230 O 0.67457 0.03242 0.68234 0.0
O231 O 0.67723 0.98574 0.63944 0.0
O232 O 0.69953 0.99095 0.61876 0.0
O233 O 0.68769 0.03997 0.63676 0.0
O234 O 0.69655 0.02507 0.61683 0.0
C235 C 0.68608 0.98057 0.6289 0.0
C236 C 0.69705 0.03948 0.62093 0.0
O237 O 0.66188 0.00466 0.67153 0.0
Mg238 Mg 0.98884 0.67932 0.70481 0.0
O239 O 0.96655 0.6662 0.67903 0.0
O240 O 0.94284 0.65191 0.6983 0.0
Mg241 Mg 0.94979 0.65634 0.73602 0.0
C242 C 0.95045 0.65652 0.6797 0.0
C243 C 0.02156 0.68551 0.68438 0.0
O244 O 0.02344 0.68332 0.70582 0.0
O245 O 0.98699 0.65359 0.71224 0.0
O246 O 0.96376 0.64103 0.73288 0.0
O247 O 0.98558 0.70264 0.70725 0.0
O248 O 0.97337 0.68017 0.72906 0.0
C249 C 0.97651 0.64114 0.724 0.0
C250 C 0.97556 0.69492 0.72358 0.0
O251 O 0.00774 0.68439 0.67747 0.0
H252 H 0.14206 0.2943 0.21832 0.0
H253 H 0.11606 0.28568 0.23848 0.0
H254 H 0.08647 0.25239 0.1819 0.0
H255 H 0.11267 0.26098 0.16177 0.0
H256 H 0.15759 0.2794 0.20313 0.0
H257 H 0.13323 0.31025 0.17145 0.0
H258 H 0.11271 0.31649 0.15318 0.0
H259 H 0.11158 0.28707 0.09394 0.0
H260 H 0.13174 0.28044 0.11261 0.0
H261 H 0.19317 0.27948 0.14469 0.0
H262 H 0.21769 0.28858 0.12081 0.0
H263 H 0.21921 0.33703 0.11065 0.0
H264 H 0.19459 0.32773 0.13415 0.0
H265 H 0.16375 0.30228 0.12652 0.0
H266 H 0.17673 0.26573 0.19894 0.0
H267 H 0.19884 0.26987 0.22655 0.0
H268 H 0.22714 0.32404 0.21172 0.0
H269 H 0.20505 0.31984 0.18428 0.0
C270 C 0.12931 0.27846 0.18842 0.0
C271 C 0.13001 0.28491 0.21037 0.0
C272 C 0.11512 0.27989 0.22195 0.0
C273 C 0.09922 0.26833 0.21178 0.0
C274 C 0.09855 0.26142 0.19007 0.0
C275 C 0.11349 0.26637 0.17854 0.0
C276 C 0.14517 0.28469 0.17586 0.0
C277 C 0.1589 0.28422 0.18625 0.0
C278 C 0.14705 0.29167 0.15425 0.0
C279 C 0.13391 0.2947 0.14351 0.0
C280 C 0.12834 0.30489 0.15467 0.0
C281 C 0.11674 0.30861 0.1441 0.0
C282 C 0.1105 0.30232 0.12205 0.0
C283 C 0.11594 0.29195 0.11102 0.0
C284 C 0.12757 0.28824 0.1216 0.0
C285 C 0.19199 0.30289 0.14109 0.0
C286 C 0.19895 0.29215 0.13756 0.0
C287 C 0.21299 0.29739 0.12394 0.0
C288 C 0.22031 0.31346 0.11362 0.0
C289 C 0.21367 0.32442 0.11793 0.0
C290 C 0.19963 0.31916 0.13144 0.0
C291 C 0.17616 0.29679 0.15371 0.0
C292 C 0.16237 0.29717 0.14322 0.0
C293 C 0.17454 0.29062 0.17576 0.0
C294 C 0.18924 0.29243 0.18939 0.0
C295 C 0.18786 0.27843 0.20134 0.0
C296 C 0.20046 0.28083 0.21721 0.0
C297 C 0.2147 0.29732 0.22147 0.0
C298 C 0.21646 0.31114 0.20867 0.0
C299 C 0.20383 0.30873 0.19287 0.0
H300 H 0.72805 0.89347 0.21517 0.0
H301 H 0.72489 0.91494 0.23719 0.0
H302 H 0.67996 0.90299 0.19707 0.0
H303 H 0.6825 0.8807 0.17638 0.0
H304 H 0.70746 0.85959 0.21272 0.0
H305 H 0.72918 0.90386 0.15201 0.0
H306 H 0.72622 0.92347 0.12656 0.0
H307 H 0.67561 0.88249 0.10682 0.0
H308 H 0.67919 0.86298 0.13108 0.0
H309 H 0.68184 0.82348 0.12699 0.0
H310 H 0.67685 0.79691 0.10774 0.0
H311 H 0.71783 0.79823 0.14711 0.0
H312 H 0.72357 0.82549 0.1655 0.0
H313 H 0.7051 0.85428 0.12934 0.0
H314 H 0.67806 0.81207 0.18586 0.0
H315 H 0.67474 0.78753 0.20695 0.0
H316 H 0.72591 0.81868 0.23468 0.0
H317 H 0.72888 0.84339 0.21395 0.0
C318 C 0.70572 0.88564 0.19379 0.0
C319 C 0.71757 0.89554 0.21107 0.0
C320 C 0.71581 0.90797 0.22352 0.0
C321 C 0.70219 0.91084 0.21893 0.0
C322 C 0.69051 0.90107 0.20133 0.0
C323 C 0.69214 0.88849 0.18913 0.0
C324 C 0.70688 0.87153 0.18177 0.0
C325 C 0.70733 0.85866 0.19448 0.0
C326 C 0.70607 0.86981 0.15799 0.0
C327 C 0.7044 0.88204 0.14335 0.0
C328 C 0.71753 0.8992 0.14204 0.0
C329 C 0.71576 0.91037 0.12754 0.0
C330 C 0.70071 0.90459 0.11439 0.0
C331 C 0.68758 0.88736 0.11605 0.0
C332 C 0.68951 0.87618 0.13015 0.0
C333 C 0.70294 0.82643 0.14799 0.0
C334 C 0.69003 0.81831 0.13122 0.0
C335 C 0.68716 0.80313 0.12021 0.0
C336 C 0.69696 0.7956 0.12601 0.0
C337 C 0.71007 0.80381 0.14246 0.0
C338 C 0.71323 0.81927 0.1531 0.0
C339 C 0.70527 0.84219 0.1602 0.0
C340 C 0.70564 0.85542 0.14759 0.0
C341 C 0.70604 0.84381 0.18401 0.0
C342 C 0.70377 0.82944 0.19819 0.0
C343 C 0.6885 0.81362 0.19663 0.0
C344 C 0.68669 0.79957 0.20857 0.0
C345 C 0.70015 0.80101 0.22229 0.0
C346 C 0.71525 0.81711 0.22442 0.0
C347 C 0.717 0.83124 0.21255 0.0
H348 H 0.11427 0.85973 0.19714 0.0
H349 H 0.097 0.83635 0.2223 0.0
H350 H 0.11283 0.80376 0.1884 0.0
H351 H 0.13064 0.82732 0.16432 0.0
H352 H 0.14798 0.87575 0.19465 0.0
H353 H 0.10099 0.84155 0.14188 0.0
H354 H 0.08082 0.8143 0.12231 0.0
H355 H 0.12253 0.81315 0.09018 0.0
H356 H 0.14254 0.83962 0.11065 0.0
H357 H 0.17997 0.87528 0.11384 0.0
H358 H 0.20405 0.89309 0.0907 0.0
H359 H 0.20588 0.93902 0.11821 0.0
H360 H 0.18112 0.92105 0.14091 0.0
H361 H 0.15005 0.87026 0.11185 0.0
H362 H 0.19393 0.89171 0.17219 0.0
H363 H 0.21564 0.91111 0.19995 0.0
H364 H 0.18413 0.93289 0.21757 0.0
H365 H 0.16227 0.91296 0.19037 0.0
C366 C 0.12355 0.84521 0.17861 0.0
C367 C 0.11389 0.84749 0.19508 0.0
C368 C 0.10397 0.83409 0.20937 0.0
C369 C 0.10362 0.81821 0.20748 0.0
C370 C 0.11302 0.8159 0.19061 0.0
C371 C 0.12301 0.82929 0.17652 0.0
C372 C 0.13546 0.85985 0.16496 0.0
C373 C 0.1482 0.87472 0.17645 0.0
C374 C 0.13595 0.85831 0.14126 0.0
C375 C 0.12335 0.8426 0.12801 0.0
C376 C 0.10577 0.83538 0.13067 0.0
C377 C 0.09423 0.81989 0.11925 0.0
C378 C 0.10005 0.81141 0.10482 0.0
C379 C 0.1176 0.8191 0.1015 0.0
C380 C 0.12908 0.83441 0.11303 0.0
C381 C 0.17862 0.89678 0.12908 0.0
C382 C 0.18542 0.88918 0.11487 0.0
C383 C 0.19919 0.89933 0.10167 0.0
C384 C 0.20666 0.91735 0.1026 0.0
C385 C 0.2003 0.92511 0.1173 0.0
C386 C 0.18623 0.91487 0.13031 0.0
C387 C 0.16323 0.88542 0.14175 0.0
C388 C 0.14961 0.8714 0.13 0.0
C389 C 0.16231 0.88731 0.16526 0.0
C390 C 0.17653 0.90094 0.17923 0.0
C391 C 0.19189 0.90092 0.18174 0.0
C392 C 0.20431 0.91208 0.19761 0.0
C393 C 0.20161 0.92349 0.21124 0.0
C394 C 0.18653 0.92404 0.20776 0.0
C395 C 0.17406 0.91276 0.19208 0.0
H396 H 0.2681 0.14959 0.80093 0.0
H397 H 0.27172 0.17369 0.77838 0.0
H398 H 0.31444 0.20885 0.82172 0.0
H399 H 0.31145 0.18462 0.84304 0.0
H400 H 0.28942 0.13749 0.80743 0.0
H401 H 0.26642 0.16531 0.8554 0.0
H402 H 0.27037 0.1917 0.87451 0.0
H403 H 0.31047 0.19359 0.91657 0.0
H404 H 0.30717 0.1679 0.89688 0.0
H405 H 0.31753 0.12227 0.8598 0.0
H406 H 0.32645 0.1071 0.88521 0.0
H407 H 0.27939 0.08778 0.92018 0.0
H408 H 0.27022 0.10258 0.89402 0.0
H409 H 0.28618 0.13693 0.89062 0.0
H410 H 0.3147 0.13089 0.80839 0.0
H411 H 0.31934 0.11014 0.78685 0.0
H412 H 0.27507 0.06813 0.81577 0.0
H413 H 0.27043 0.08904 0.8373 0.0
C414 C 0.28932 0.16532 0.82391 0.0
C415 C 0.27828 0.16251 0.80547 0.0
C416 C 0.28028 0.17634 0.79272 0.0
C417 C 0.29337 0.19329 0.79818 0.0
C418 C 0.30439 0.196 0.81671 0.0
C419 C 0.30253 0.18215 0.8292 0.0
C420 C 0.28748 0.15059 0.83709 0.0
C421 C 0.28849 0.13727 0.82561 0.0
C422 C 0.28635 0.15034 0.86088 0.0
C423 C 0.28669 0.16473 0.87438 0.0
C424 C 0.27601 0.17135 0.8688 0.0
C425 C 0.27818 0.18634 0.87979 0.0
C426 C 0.29071 0.19462 0.897 0.0
C427 C 0.30058 0.18734 0.90356 0.0
C428 C 0.29869 0.17263 0.89227 0.0
C429 C 0.29308 0.11332 0.87475 0.0
C430 C 0.3089 0.11439 0.87252 0.0
C431 C 0.31412 0.10596 0.88733 0.0
C432 C 0.30372 0.09644 0.9049 0.0
C433 C 0.28765 0.09496 0.90676 0.0
C434 C 0.28241 0.10341 0.89186 0.0
C435 C 0.28879 0.12433 0.86103 0.0
C436 C 0.28657 0.13691 0.87238 0.0
C437 C 0.2895 0.12431 0.83729 0.0
C438 C 0.29219 0.11153 0.8244 0.0
C439 C 0.30597 0.11722 0.81008 0.0
C440 C 0.30871 0.10534 0.79796 0.0
C441 C 0.29761 0.0875 0.7997 0.0
C442 C 0.28379 0.0818 0.81403 0.0
C443 C 0.28116 0.09371 0.82638 0.0
H444 H 0.83531 0.09121 0.82431 0.0
H445 H 0.81401 0.07194 0.79598 0.0
H446 H 0.78178 0.09269 0.81428 0.0
H447 H 0.80296 0.11161 0.84278 0.0
H448 H 0.85108 0.12745 0.82372 0.0
H449 H 0.81656 0.08219 0.87875 0.0
H450 H 0.79067 0.06381 0.89929 0.0
H451 H 0.78535 0.10828 0.91449 0.0
H452 H 0.81102 0.12642 0.89406 0.0
H453 H 0.85329 0.16315 0.90723 0.0
H454 H 0.87356 0.1886 0.92942 0.0
H455 H 0.91486 0.18347 0.90297 0.0
H456 H 0.89435 0.15729 0.88179 0.0
H457 H 0.84295 0.13155 0.90542 0.0
H458 H 0.86711 0.17475 0.85324 0.0
H459 H 0.88851 0.1989 0.83279 0.0
H460 H 0.9083 0.16681 0.80822 0.0
H461 H 0.88646 0.14245 0.8286 0.0
C462 C 0.82065 0.1027 0.83581 0.0
C463 C 0.82352 0.09138 0.82242 0.0
C464 C 0.81137 0.08046 0.80613 0.0
C465 C 0.79618 0.08081 0.80272 0.0
C466 C 0.79317 0.09185 0.81664 0.0
C467 C 0.8053 0.10271 0.83297 0.0
C468 C 0.83434 0.11568 0.85115 0.0
C469 C 0.84953 0.12806 0.84172 0.0
C470 C 0.83189 0.11719 0.8743 0.0
C471 C 0.81568 0.10563 0.88501 0.0
C472 C 0.80966 0.08787 0.8863 0.0
C473 C 0.79495 0.07744 0.89808 0.0
C474 C 0.78601 0.08464 0.90844 0.0
C475 C 0.79184 0.10233 0.90645 0.0
C476 C 0.80657 0.11273 0.89495 0.0
C477 C 0.87224 0.15834 0.89257 0.0
C478 C 0.86668 0.16728 0.90648 0.0
C479 C 0.87834 0.182 0.919 0.0
C480 C 0.8959 0.18829 0.91776 0.0
C481 C 0.90145 0.17898 0.90445 0.0
C482 C 0.88973 0.1641 0.89209 0.0
C483 C 0.85973 0.14342 0.87805 0.0
C484 C 0.84481 0.13068 0.88757 0.0
C485 C 0.86189 0.14227 0.85466 0.0
C486 C 0.8754 0.15692 0.84273 0.0
C487 C 0.87619 0.17297 0.84368 0.0
C488 C 0.88848 0.18679 0.83201 0.0
C489 C 0.90025 0.18485 0.81904 0.0
C490 C 0.89936 0.16869 0.81795 0.0
C491 C 0.88697 0.1548 0.82964 0.0
H492 H 0.81233 0.6885 0.82837 0.0
H493 H 0.78855 0.68483 0.80444 0.0
H494 H 0.79694 0.73447 0.82844 0.0
H495 H 0.82072 0.73795 0.85279 0.0
H496 H 0.84697 0.71842 0.82532 0.0
H497 H 0.80166 0.68774 0.8768 0.0
H498 H 0.77775 0.68248 0.89996 0.0
H499 H 0.8089 0.73182 0.93474 0.0
H500 H 0.83288 0.73685 0.91161 0.0
H501 H 0.88146 0.73621 0.91442 0.0
H502 H 0.9011 0.73089 0.93681 0.0
H503 H 0.88912 0.68662 0.89343 0.0
H504 H 0.86982 0.69225 0.87093 0.0
H505 H 0.84767 0.71525 0.90848 0.0
H506 H 0.89538 0.74091 0.86121 0.0
H507 H 0.91855 0.74332 0.83824 0.0
H508 H 0.88203 0.7024 0.79347 0.0
H509 H 0.85901 0.69957 0.81675 0.0
C510 C 0.81822 0.71347 0.84229 0.0
C511 C 0.80891 0.69849 0.82868 0.0
C512 C 0.79528 0.69637 0.81515 0.0
C513 C 0.79088 0.70934 0.81466 0.0
C514 C 0.8001 0.72429 0.82851 0.0
C515 C 0.81361 0.72628 0.84241 0.0
C516 C 0.83327 0.71586 0.85536 0.0
C517 C 0.8472 0.71766 0.84351 0.0
C518 C 0.83366 0.71549 0.87907 0.0
C519 C 0.81896 0.71278 0.89233 0.0
C520 C 0.80324 0.69754 0.88917 0.0
C521 C 0.78958 0.69457 0.90241 0.0
C522 C 0.79138 0.70676 0.91917 0.0
C523 C 0.80713 0.72209 0.92216 0.0
C524 C 0.82082 0.72503 0.90891 0.0
C525 C 0.87427 0.71473 0.89089 0.0
C526 C 0.88322 0.72547 0.90963 0.0
C527 C 0.89437 0.72233 0.92249 0.0
C528 C 0.89666 0.70825 0.91704 0.0
C529 C 0.88791 0.69773 0.89797 0.0
C530 C 0.87682 0.70092 0.88507 0.0
C531 C 0.86132 0.7171 0.87837 0.0
C532 C 0.84777 0.71634 0.89033 0.0
C533 C 0.86124 0.71827 0.85463 0.0
C534 C 0.87543 0.71992 0.84088 0.0
C535 C 0.89237 0.73232 0.84659 0.0
C536 C 0.90558 0.73381 0.83339 0.0
C537 C 0.90203 0.72316 0.814 0.0
C538 C 0.88509 0.71098 0.8081 0.0
C539 C 0.87194 0.70932 0.82146 0.0
H540 H 0.81924 0.64246 0.5309 0.0
H541 H 0.80001 0.64419 0.55727 0.0
H542 H 0.75728 0.60172 0.5214 0.0
H543 H 0.77687 0.59955 0.49539 0.0
H544 H 0.82581 0.6177 0.52371 0.0
H545 H 0.80294 0.64687 0.47873 0.0
H546 H 0.78141 0.65043 0.45821 0.0
H547 H 0.76673 0.60334 0.4195 0.0
H548 H 0.78856 0.60014 0.43975 0.0
H549 H 0.85457 0.60356 0.46608 0.0
H550 H 0.87843 0.60913 0.44229 0.0
H551 H 0.87818 0.65374 0.41638 0.0
H552 H 0.85467 0.64839 0.44037 0.0
H553 H 0.82379 0.62393 0.44127 0.0
H554 H 0.83957 0.59522 0.5164 0.0
H555 H 0.86141 0.59871 0.54392 0.0
H556 H 0.8923 0.65209 0.52627 0.0
H557 H 0.87055 0.64828 0.49826 0.0
C558 C 0.7995 0.62094 0.5111 0.0
C559 C 0.80574 0.63344 0.52873 0.0
C560 C 0.7947 0.63451 0.5437 0.0
C561 C 0.77709 0.62319 0.54133 0.0
C562 C 0.77079 0.61055 0.52374 0.0
C563 C 0.78194 0.60942 0.50873 0.0
C564 C 0.81173 0.61998 0.49584 0.0
C565 C 0.82528 0.61887 0.50561 0.0
C566 C 0.81101 0.62151 0.47228 0.0
C567 C 0.79729 0.62319 0.46084 0.0
C568 C 0.79494 0.63723 0.46598 0.0
C569 C 0.78257 0.63921 0.45426 0.0
C570 C 0.77232 0.62721 0.4371 0.0
C571 C 0.77456 0.61301 0.4323 0.0
C572 C 0.78697 0.61109 0.44396 0.0
C573 C 0.85284 0.62559 0.45512 0.0
C574 C 0.85978 0.61466 0.45549 0.0
C575 C 0.87339 0.61782 0.44186 0.0
C576 C 0.88009 0.63181 0.42741 0.0
C577 C 0.87311 0.6427 0.42709 0.0
C578 C 0.85967 0.63965 0.44082 0.0
C579 C 0.83837 0.62249 0.46935 0.0
C580 C 0.82422 0.62248 0.45931 0.0
C581 C 0.83872 0.62038 0.49282 0.0
C582 C 0.85347 0.62148 0.50531 0.0
C583 C 0.85128 0.60752 0.518 0.0
C584 C 0.86372 0.6096 0.53389 0.0
C585 C 0.87848 0.62578 0.53764 0.0
C586 C 0.88115 0.63943 0.52375 0.0
C587 C 0.86873 0.63728 0.50771 0.0
H588 H 0.39194 0.2306 0.55175 0.0
H589 H 0.38852 0.25149 0.57467 0.0
H590 H 0.34638 0.24339 0.53108 0.0
H591 H 0.3491 0.22158 0.50935 0.0
H592 H 0.37117 0.19735 0.54546 0.0
H593 H 0.39421 0.24606 0.49646 0.0
H594 H 0.39117 0.26838 0.47717 0.0
H595 H 0.34961 0.22893 0.43628 0.0
H596 H 0.35211 0.20668 0.45612 0.0
H597 H 0.34839 0.16595 0.45733 0.0
H598 H 0.34184 0.13895 0.43777 0.0
H599 H 0.38076 0.13683 0.47779 0.0
H600 H 0.38803 0.16444 0.49655 0.0
H601 H 0.37316 0.19661 0.46214 0.0
H602 H 0.3428 0.15099 0.51535 0.0
H603 H 0.3386 0.12611 0.53653 0.0
H604 H 0.38903 0.15677 0.56684 0.0
H605 H 0.3928 0.18171 0.54614 0.0
C606 C 0.37095 0.22465 0.5286 0.0
C607 C 0.38196 0.23333 0.54715 0.0
C608 C 0.38009 0.24546 0.56011 0.0
C609 C 0.36721 0.2493 0.55475 0.0
C610 C 0.35631 0.24068 0.53598 0.0
C611 C 0.35801 0.22834 0.52327 0.0
C612 C 0.37249 0.21115 0.51553 0.0
C613 C 0.37192 0.19741 0.52726 0.0
C614 C 0.37313 0.21093 0.4917 0.0
C615 C 0.37316 0.22466 0.47808 0.0
C616 C 0.3845 0.24222 0.48328 0.0
C617 C 0.38284 0.25494 0.4722 0.0
C618 C 0.37015 0.2503 0.45532 0.0
C619 C 0.3596 0.23282 0.44908 0.0
C620 C 0.36103 0.22011 0.46044 0.0
C621 C 0.3685 0.16712 0.47878 0.0
C622 C 0.35584 0.15995 0.46156 0.0
C623 C 0.35209 0.14453 0.45037 0.0
C624 C 0.36075 0.13584 0.4564 0.0
C625 C 0.37384 0.14328 0.47299 0.0
C626 C 0.37789 0.15895 0.48382 0.0
C627 C 0.3711 0.1826 0.49199 0.0
C628 C 0.37268 0.19678 0.48036 0.0
C629 C 0.37084 0.18302 0.5158 0.0
C630 C 0.36815 0.1681 0.52909 0.0
C631 C 0.35289 0.15231 0.52664 0.0
C632 C 0.35058 0.13808 0.53866 0.0
C633 C 0.36351 0.13935 0.55334 0.0
C634 C 0.3787 0.15533 0.55596 0.0
C635 C 0.38093 0.1696 0.54407 0.0
H636 H 0.78554 0.18411 0.52272 0.0
H637 H 0.76356 0.15875 0.54126 0.0
H638 H 0.78509 0.12855 0.51546 0.0
H639 H 0.80661 0.15378 0.49664 0.0
H640 H 0.82202 0.19741 0.53136 0.0
H641 H 0.7812 0.17824 0.46376 0.0
H642 H 0.76127 0.15369 0.43955 0.0
H643 H 0.80053 0.14068 0.42823 0.0
H644 H 0.82046 0.16588 0.45107 0.0
H645 H 0.87268 0.21875 0.48464 0.0
H646 H 0.89761 0.23933 0.46452 0.0
H647 H 0.86905 0.26218 0.43791 0.0
H648 H 0.84401 0.24099 0.45731 0.0
H649 H 0.83039 0.20319 0.4491 0.0
H650 H 0.85173 0.20288 0.53972 0.0
H651 H 0.8723 0.22089 0.56933 0.0
H652 H 0.87757 0.26656 0.53878 0.0
H653 H 0.85628 0.24841 0.50945 0.0
C654 C 0.79751 0.17071 0.50812 0.0
C655 C 0.7853 0.17192 0.52086 0.0
C656 C 0.77285 0.15746 0.53156 0.0
C657 C 0.77255 0.14159 0.52989 0.0
C658 C 0.7847 0.14044 0.51678 0.0
C659 C 0.79706 0.15486 0.50602 0.0
C660 C 0.8116 0.18627 0.49852 0.0
C661 C 0.82383 0.1989 0.51337 0.0
C662 C 0.81401 0.18778 0.47513 0.0
C663 C 0.80227 0.17386 0.45907 0.0
C664 C 0.7855 0.17022 0.45563 0.0
C665 C 0.77408 0.15603 0.44197 0.0
C666 C 0.77913 0.14496 0.43189 0.0
C667 C 0.79613 0.14897 0.43515 0.0
C668 C 0.80759 0.16336 0.44837 0.0
C669 C 0.85658 0.22838 0.47235 0.0
C670 C 0.87193 0.22837 0.4747 0.0
C671 C 0.88619 0.24024 0.46329 0.0
C672 C 0.88534 0.25237 0.44941 0.0
C673 C 0.87008 0.2528 0.44803 0.0
C674 C 0.85579 0.2408 0.45921 0.0
C675 C 0.84097 0.21456 0.48201 0.0
C676 C 0.82848 0.20211 0.46709 0.0
C677 C 0.83884 0.21277 0.5055 0.0
C678 C 0.85235 0.22422 0.52231 0.0
C679 C 0.85722 0.21676 0.53933 0.0
C680 C 0.86901 0.22704 0.55621 0.0
C681 C 0.87642 0.24506 0.55631 0.0
C682 C 0.87207 0.25268 0.53892 0.0
C683 C 0.85997 0.24232 0.52215 0.0
H684 H 0.94688 0.48626 0.14847 0.0
H685 H 0.94453 0.50926 0.12994 0.0
H686 H 0.99792 0.54446 0.14463 0.0
H687 H 4e-05 0.52157 0.16333 0.0
H688 H 0.96915 0.47247 0.14026 0.0
H689 H 0.95963 0.50568 0.19909 0.0
H690 H 0.96701 0.53265 0.21966 0.0
H691 H 0.01582 0.53868 0.23886 0.0
H692 H 0.00878 0.51241 0.21736 0.0
H693 H 0.01016 0.47309 0.21478 0.0
H694 H 0.01728 0.45411 0.23528 0.0
H695 H 0.96854 0.41032 0.21509 0.0
H696 H 0.96126 0.42954 0.19513 0.0
H697 H 0.98624 0.48064 0.22129 0.0
H698 H 0.00289 0.45738 0.16098 0.0
H699 H 0.0038 0.43574 0.13635 0.0
H700 H 0.95046 0.41435 0.11904 0.0
H701 H 0.94982 0.43639 0.14339 0.0
C702 C 0.97355 0.50232 0.15757 0.0
C703 C 0.95806 0.49893 0.14754 0.0
C704 C 0.95676 0.51206 0.13692 0.0
C705 C 0.97098 0.52877 0.13606 0.0
C706 C 0.98661 0.53188 0.14547 0.0
C707 C 0.98788 0.51879 0.15607 0.0
C708 C 0.97483 0.48883 0.17003 0.0
C709 C 0.97252 0.47405 0.15809 0.0
C710 C 0.97993 0.49128 0.19309 0.0
C711 C 0.98373 0.50712 0.2064 0.0
C712 C 0.97197 0.51291 0.20758 0.0
C713 C 0.97613 0.52822 0.21958 0.0
C714 C 0.99207 0.53791 0.23079 0.0
C715 C 0.00357 0.53176 0.23008 0.0
C716 C -0.00052 0.5166 0.21796 0.0
C717 C 0.98522 0.45272 0.20335 0.0
C718 C 0.00097 0.45941 0.21484 0.0
C719 C 0.00508 0.44853 0.22642 0.0
C720 C 0.99349 0.43072 0.22677 0.0
C721 C 0.97766 0.42403 0.21532 0.0
C722 C 0.97356 0.43495 0.20371 0.0
C723 C 0.98098 0.46454 0.19146 0.0
C724 C 0.98255 0.47889 0.20355 0.0
C725 C 0.97605 0.46212 0.16838 0.0
C726 C 0.97625 0.44842 0.15414 0.0
C727 C 0.99135 0.4479 0.15206 0.0
C728 C 0.99182 0.43544 0.13803 0.0
C729 C 0.97719 0.42322 0.12569 0.0
C730 C 0.96203 0.42368 0.12803 0.0
C731 C 0.9616 0.43622 0.14201 0.0
H732 H 0.49931 0.41937 0.14791 0.0
H733 H 0.47761 0.40034 0.11972 0.0
H734 H 0.44695 0.42303 0.1375 0.0
H735 H 0.46856 0.44182 0.16561 0.0
H736 H 0.51642 0.4559 0.14837 0.0
H737 H 0.47803 0.41007 0.1997 0.0
H738 H 0.44971 0.39231 0.21511 0.0
H739 H 0.44847 0.43864 0.23348 0.0
H740 H 0.47644 0.45616 0.21795 0.0
H741 H 0.51625 0.49033 0.23171 0.0
H742 H 0.53541 0.51582 0.25453 0.0
H743 H 0.57835 0.51297 0.22961 0.0
H744 H 0.55892 0.48663 0.20779 0.0
H745 H 0.50667 0.45937 0.22961 0.0
H746 H 0.53319 0.50355 0.17992 0.0
H747 H 0.55332 0.52709 0.15747 0.0
H748 H 0.56993 0.49361 0.12821 0.0
H749 H 0.55022 0.47019 0.15172 0.0
C750 C 0.48543 0.43181 0.15911 0.0
C751 C 0.48781 0.42007 0.14586 0.0
C752 C 0.47543 0.40927 0.1297 0.0
C753 C 0.46049 0.41011 0.12638 0.0
C754 C 0.45811 0.42177 0.13989 0.0
C755 C 0.47048 0.43255 0.15599 0.0
C756 C 0.49906 0.44416 0.17508 0.0
C757 C 0.51458 0.45638 0.16631 0.0
C758 C 0.49615 0.44544 0.19812 0.0
C759 C 0.47932 0.43441 0.20778 0.0
C760 C 0.47159 0.41633 0.20702 0.0
C761 C 0.45547 0.40624 0.21582 0.0
C762 C 0.44684 0.4141 0.22529 0.0
C763 C 0.45466 0.43219 0.22594 0.0
C764 C 0.47074 0.44223 0.21734 0.0
C765 C 0.53607 0.48652 0.21778 0.0
C766 C 0.52976 0.49492 0.23144 0.0
C767 C 0.5408 0.50971 0.2443 0.0
C768 C 0.55849 0.51669 0.24368 0.0
C769 C 0.56481 0.50795 0.23061 0.0
C770 C 0.5537 0.49297 0.21789 0.0
C771 C 0.5241 0.4715 0.20291 0.0
C772 C 0.50894 0.45864 0.21187 0.0
C773 C 0.52678 0.47048 0.17962 0.0
C774 C 0.5404 0.48517 0.1678 0.0
C775 C 0.5415 0.50138 0.16919 0.0
C776 C 0.55283 0.51476 0.15603 0.0
C777 C 0.56307 0.51215 0.14082 0.0
C778 C 0.5623 0.49606 0.13987 0.0
C779 C 0.55101 0.48266 0.15321 0.0
H780 H 0.5374 0.05236 0.17415 0.0
H781 H 0.5593 0.0521 0.15103 0.0
H782 H 0.53993 0.99841 0.16583 0.0
H783 H 0.51854 -0.00098 0.18939 0.0
H784 H 0.50125 0.03038 0.16987 0.0
H785 H 0.54724 0.04473 0.22345 0.0
H786 H 0.5691 0.03965 0.23993 0.0
H787 H 0.53008 0.98999 0.26194 0.0
H788 H 0.50831 0.99493 0.24477 0.0
H789 H 0.46684 0.99721 0.25052 0.0
H790 H 0.44358 0.99413 0.27356 0.0
H791 H 0.45098 0.04284 0.2506 0.0
H792 H 0.47453 0.04606 0.2278 0.0
H793 H 0.499 0.01902 0.25142 0.0
H794 H 0.45303 0.00324 0.19895 0.0
H795 H 0.43081 0.00338 0.17562 0.0
H796 H 0.46834 0.05125 0.14718 0.0
H797 H 0.49015 0.05168 0.17186 0.0
C798 C 0.52655 0.02578 0.18365 0.0
C799 C 0.53794 0.04057 0.17235 0.0
C800 C 0.55037 0.04036 0.15907 0.0
C801 C 0.55146 0.02526 0.15667 0.0
C802 C 0.53973 0.01037 0.16769 0.0
C803 C 0.52743 0.01065 0.18108 0.0
C804 C 0.51356 0.02601 0.19802 0.0
C805 C 0.50088 0.02831 0.18783 0.0
C806 C 0.51292 0.02264 0.2212 0.0
C807 C 0.52614 0.02014 0.23268 0.0
C808 C 0.5434 0.03274 0.2318 0.0
C809 C 0.55588 0.02987 0.24138 0.0
C810 C 0.55136 0.01436 0.25215 0.0
C811 C 0.53402 0.00194 0.25345 0.0
C812 C 0.52155 0.00483 0.24387 0.0
C813 C 0.4724 0.02182 0.23732 0.0
C814 C 0.46357 0.00731 0.25056 0.0
C815 C 0.45027 0.00556 0.26371 0.0
C816 C 0.44548 0.01825 0.26386 0.0
C817 C 0.45429 0.03277 0.2506 0.0
C818 C 0.46774 0.03462 0.23759 0.0
C819 C 0.48645 0.02344 0.2233 0.0
C820 C 0.49939 0.02143 0.23356 0.0
C821 C 0.48715 0.02681 0.20003 0.0
C822 C 0.47328 0.02755 0.18738 0.0
C823 C 0.45638 0.01405 0.18822 0.0
C824 C 0.44369 0.01401 0.17454 0.0
C825 C 0.4477 0.02725 0.15927 0.0
C826 C 0.4646 0.04096 0.15891 0.0
C827 C 0.4772 0.04114 0.17287 0.0
H828 H 0.49117 0.00796 0.86099 0.0
H829 H 0.46889 0.00675 0.88441 0.0
H830 H 0.43652 0.95287 0.86456 0.0
H831 H 0.45866 0.95465 0.84006 0.0
H832 H 0.5042 0.98305 0.86628 0.0
H833 H 0.48049 0.00591 0.81368 0.0
H834 H 0.45785 0.00633 0.79156 0.0
H835 H 0.44623 0.95806 0.75828 0.0
H836 H 0.46914 0.9579 0.78036 0.0
H837 H 0.51989 0.96426 0.77848 0.0
H838 H 0.54503 0.96952 0.75785 0.0
H839 H 0.57585 0.01512 0.80009 0.0
H840 H 0.55065 0.01032 0.81963 0.0
H841 H 0.50423 0.98267 0.78278 0.0
H842 H 0.52946 0.96079 0.83653 0.0
H843 H 0.55126 0.9609 0.86163 0.0
H844 H 0.55966 0.00839 0.89377 0.0
H845 H 0.53789 0.00817 0.8688 0.0
C846 C 0.47647 0.98142 0.84884 0.0
C847 C 0.47917 0.99597 0.86155 0.0
C848 C 0.46647 0.99516 0.87513 0.0
C849 C 0.45093 0.97962 0.87673 0.0
C850 C 0.44821 0.9651 0.86362 0.0
C851 C 0.46085 0.96604 0.84967 0.0
C852 C 0.49048 0.98209 0.83595 0.0
C853 C 0.50429 0.98306 0.84802 0.0
C854 C 0.49028 0.98171 0.81219 0.0
C855 C 0.47637 0.98177 0.79885 0.0
C856 C 0.47294 0.99532 0.8018 0.0
C857 C 0.45994 0.99551 0.78915 0.0
C858 C 0.45012 0.98218 0.77319 0.0
C859 C 0.45364 0.96863 0.77024 0.0
C860 C 0.46669 0.96847 0.78289 0.0
C861 C 0.53341 0.98674 0.80082 0.0
C862 C 0.53208 0.97541 0.7832 0.0
C863 C 0.54649 0.97835 0.77158 0.0
C864 C 0.56251 0.99273 0.77734 0.0
C865 C 0.56373 0.00404 0.79499 0.0
C866 C 0.54934 0.00117 0.80643 0.0
C867 C 0.5182 0.98382 0.81315 0.0
C868 C 0.50409 0.98238 0.80102 0.0
C869 C 0.5181 0.98385 0.83695 0.0
C870 C 0.53209 0.98447 0.85085 0.0
C871 C 0.53616 0.97131 0.84883 0.0
C872 C 0.54853 0.97134 0.86319 0.0
C873 C 0.55716 0.98467 0.87959 0.0
C874 C 0.55336 0.99807 0.88112 0.0
C875 C 0.54086 0.9979 0.867 0.0
H876 H 0.04596 0.55403 0.89183 0.0
H877 H 0.04298 0.57483 0.91562 0.0
H878 H 0.99382 0.55832 0.88383 0.0
H879 H 0.99625 0.53658 0.86174 0.0
H880 H 0.02957 0.52059 0.88943 0.0
H881 H 0.03763 0.56391 0.83422 0.0
H882 H 0.02992 0.58203 0.81227 0.0
H883 H 0.98372 0.53644 0.78857 0.0
H884 H 0.99117 0.51859 0.811 0.0
H885 H 0.99424 0.47728 0.81658 0.0
H886 H 0.9911 0.45314 0.79324 0.0
H887 H 0.04522 0.47272 0.80045 0.0
H888 H 0.04797 0.49639 0.82497 0.0
H889 H 0.01676 0.51344 0.80715 0.0
H890 H 0.00314 0.47174 0.86354 0.0
H891 H 0.00663 0.44938 0.88142 0.0
H892 H 0.05833 0.48727 0.90118 0.0
H893 H 0.05469 0.50973 0.88314 0.0
C894 C 0.02149 0.5439 0.87461 0.0
C895 C 0.0345 0.55485 0.89009 0.0
C896 C 0.03285 0.56693 0.90352 0.0
C897 C 0.01819 0.56848 0.90165 0.0
C898 C 0.00521 0.55747 0.88607 0.0
C899 C 0.00672 0.54517 0.87303 0.0
C900 C 0.0231 0.53081 0.86064 0.0
C901 C 0.02715 0.51935 0.87136 0.0
C902 C 0.01945 0.52868 0.83711 0.0
C903 C 0.01492 0.53993 0.82435 0.0
C904 C 0.02578 0.55789 0.82444 0.0
C905 C 0.02144 0.56818 0.81172 0.0
C906 C 0.0062 0.56065 0.7987 0.0
C907 C 0.99542 0.54267 0.79864 0.0
C908 C -0.00026 0.53243 0.81133 0.0
C909 C 0.02131 0.48854 0.82246 0.0
C910 C 0.00539 0.47629 0.81318 0.0
C911 C 0.00368 0.46259 0.79961 0.0
C912 C 0.01795 0.46104 0.79457 0.0
C913 C 0.03392 0.47335 0.80408 0.0
C914 C 0.03556 0.48694 0.81803 0.0
C915 C 0.0229 0.50335 0.83599 0.0
C916 C 0.01958 0.51509 0.82516 0.0
C917 C 0.02675 0.50544 0.85934 0.0
C918 C 0.02875 0.49231 0.87167 0.0
C919 C 0.01525 0.47524 0.87166 0.0
C920 C 0.01728 0.46247 0.88184 0.0
C921 C 0.03285 0.4665 0.89241 0.0
C922 C 0.04619 0.48377 0.89319 0.0
C923 C 0.04414 0.49659 0.88288 0.0
H924 H 0.45219 0.52647 0.8642 0.0
H925 H 0.43182 0.50191 0.88564 0.0
H926 H 0.44818 0.46946 0.85251 0.0
H927 H 0.46807 0.49387 0.83089 0.0
H928 H 0.4878 0.54058 0.8627 0.0
H929 H 0.43868 0.51181 0.81287 0.0
H930 H 0.41618 0.48538 0.79406 0.0
H931 H 0.45368 0.48131 0.75503 0.0
H932 H 0.47621 0.50722 0.77451 0.0
H933 H 0.51593 0.54305 0.77735 0.0
H934 H 0.53982 0.5615 0.75435 0.0
H935 H 0.54422 0.60672 0.78833 0.0
H936 H 0.51959 0.58812 0.81095 0.0
H937 H 0.48635 0.53879 0.77928 0.0
H938 H 0.53455 0.56107 0.8313 0.0
H939 H 0.55824 0.58061 0.85638 0.0
H940 H 0.52452 0.59235 0.89348 0.0
H941 H 0.50136 0.57401 0.86715 0.0
C942 C 0.4614 0.51188 0.84574 0.0
C943 C 0.45129 0.51402 0.86158 0.0
C944 C 0.43974 0.5 0.87388 0.0
C945 C 0.43826 0.48367 0.87068 0.0
C946 C 0.44867 0.48173 0.85504 0.0
C947 C 0.46011 0.49568 0.84272 0.0
C948 C 0.47372 0.5266 0.83269 0.0
C949 C 0.48738 0.54048 0.84444 0.0
C950 C 0.47317 0.52606 0.80887 0.0
C951 C 0.45923 0.51138 0.7955 0.0
C952 C 0.44209 0.50525 0.80028 0.0
C953 C 0.42923 0.49023 0.78943 0.0
C954 C 0.43323 0.48133 0.77314 0.0
C955 C 0.45025 0.48803 0.76737 0.0
C956 C 0.46313 0.50284 0.77852 0.0
C957 C 0.51589 0.56416 0.79589 0.0
C958 C 0.52184 0.55693 0.77976 0.0
C959 C 0.53551 0.56746 0.76664 0.0
C960 C 0.54373 0.58547 0.76954 0.0
C961 C 0.53805 0.59282 0.78589 0.0
C962 C 0.52406 0.58223 0.7988 0.0
C963 C 0.50107 0.55244 0.80926 0.0
C964 C 0.48672 0.53919 0.79755 0.0
C965 C 0.50129 0.55328 0.83312 0.0
C966 C 0.51617 0.56625 0.84705 0.0
C967 C 0.5324 0.56831 0.84437 0.0
C968 C 0.54591 0.57929 0.85906 0.0
C969 C 0.54341 0.58808 0.87721 0.0
C970 C 0.52717 0.58616 0.87956 0.0
C971 C 0.51378 0.57547 0.8646 0.0
H972 H 0.60966 0.8301 0.50087 0.0
H973 H 0.6138 0.85508 0.47978 0.0
H974 H 0.65794 0.85791 0.44951 0.0
H975 H 0.65384 0.83304 0.47077 0.0
H976 H 0.62935 0.80035 0.47234 0.0
H977 H 0.61141 0.82119 0.55784 0.0
H978 H 0.62021 0.84745 0.58109 0.0
H979 H 0.6662 0.87398 0.54366 0.0
H980 H 0.65771 0.84769 0.52129 0.0
H981 H 0.64752 0.79323 0.56334 0.0
H982 H 0.64974 0.77181 0.58545 0.0
H983 H 0.60959 0.73094 0.54442 0.0
H984 H 0.60658 0.75246 0.52294 0.0
H985 H 0.62724 0.80301 0.55555 0.0
H986 H 0.65115 0.77665 0.51006 0.0
H987 H 0.65393 0.75462 0.48881 0.0
H988 H 0.61168 0.74596 0.44504 0.0
H989 H 0.6083 0.76712 0.46733 0.0
C990 C 0.63147 0.82976 0.48743 0.0
C991 C 0.62018 0.83606 0.4896 0.0
C992 C 0.6225 0.85026 0.47747 0.0
C993 C 0.63623 0.85846 0.46307 0.0
C994 C 0.64736 0.85195 0.46066 0.0
C995 C 0.64494 0.83766 0.47263 0.0
C996 C 0.62966 0.81537 0.50126 0.0
C997 C 0.62873 0.80079 0.49054 0.0
C998 C 0.62947 0.81629 0.52502 0.0
C999 C 0.63378 0.83254 0.5376 0.0
C1000 C 0.62332 0.83273 0.55459 0.0
C1001 C 0.62834 0.84775 0.5678 0.0
C1002 C 0.64397 0.86276 0.56434 0.0
C1003 C 0.65422 0.86257 0.54703 0.0
C1004 C 0.64924 0.8476 0.53394 0.0
C1005 C 0.62703 0.77451 0.54121 0.0
C1006 C 0.63879 0.77967 0.55943 0.0
C1007 C 0.64006 0.76744 0.57212 0.0
C1008 C 0.62981 0.7498 0.5666 0.0
C1009 C 0.61761 0.74451 0.54893 0.0
C1010 C 0.61601 0.75679 0.53657 0.0
C1011 C 0.627 0.78784 0.52674 0.0
C1012 C 0.62745 0.80225 0.53732 0.0
C1013 C 0.62792 0.78721 0.50295 0.0
C1014 C 0.62932 0.77337 0.49056 0.0
C1015 C 0.64223 0.76971 0.49621 0.0
C1016 C 0.64396 0.75724 0.4838 0.0
C1017 C 0.63304 0.74842 0.46511 0.0
C1018 C 0.62013 0.75215 0.45954 0.0
C1019 C 0.61827 0.76443 0.47215 0.0
H1020 H 0.16566 0.7619 0.49473 0.0
H1021 H 0.14312 0.74279 0.46806 0.0
H1022 H 0.10745 0.75217 0.50416 0.0
H1023 H 0.13044 0.77229 0.52983 0.0
H1024 H 0.17755 0.7951 0.4993 0.0
H1025 H 0.14868 0.747 0.54882 0.0
H1026 H 0.1245 0.72583 0.57006 0.0
H1027 H 0.12395 0.76737 0.60744 0.0
H1028 H 0.14729 0.78844 0.58555 0.0
H1029 H 0.18594 0.83182 0.58018 0.0
H1030 H 0.20723 0.85788 0.60028 0.0
H1031 H 0.2465 0.84758 0.57798 0.0
H1032 H 0.22501 0.82209 0.55658 0.0
H1033 H 0.17771 0.797 0.58267 0.0
H1034 H 0.19749 0.84273 0.53292 0.0
H1035 H 0.21552 0.86662 0.50944 0.0
H1036 H 0.22814 0.83316 0.47116 0.0
H1037 H 0.2109 0.80952 0.49586 0.0
C1038 C 0.14978 0.76847 0.51442 0.0
C1039 C 0.15295 0.75974 0.497 0.0
C1040 C 0.13993 0.74862 0.48186 0.0
C1041 C 0.12334 0.74583 0.48385 0.0
C1042 C 0.12007 0.75415 0.50184 0.0
C1043 C 0.13318 0.76549 0.5168 0.0
C1044 C 0.16416 0.78187 0.52861 0.0
C1045 C 0.17778 0.79522 0.51756 0.0
C1046 C 0.16406 0.7825 0.55245 0.0
C1047 C 0.14977 0.76937 0.56542 0.0
C1048 C 0.14321 0.75157 0.56135 0.0
C1049 C 0.1295 0.73949 0.57352 0.0
C1050 C 0.12255 0.74509 0.59034 0.0
C1051 C 0.12926 0.76281 0.59464 0.0
C1052 C 0.14262 0.77483 0.58219 0.0
C1053 C 0.20392 0.8251 0.56684 0.0
C1054 C 0.19915 0.83515 0.57978 0.0
C1055 C 0.21141 0.85003 0.59145 0.0
C1056 C 0.22876 0.855 0.59096 0.0
C1057 C 0.23339 0.84449 0.57849 0.0
C1058 C 0.2211 0.82979 0.56636 0.0
C1059 C 0.19085 0.81007 0.55327 0.0
C1060 C 0.1776 0.79649 0.56441 0.0
C1061 C 0.19088 0.80951 0.5295 0.0
C1062 C 0.20311 0.82439 0.5165 0.0
C1063 C 0.20458 0.84065 0.51999 0.0
C1064 C 0.21465 0.85424 0.5062 0.0
C1065 C 0.22315 0.85179 0.4882 0.0
C1066 C 0.22192 0.83558 0.48498 0.0
C1067 C 0.212 0.82201 0.49901 0.0
H1068 H 0.13755 0.3427 0.50443 0.0
H1069 H 0.11491 0.33456 0.47571 0.0
H1070 H 0.13382 0.38837 0.46304 0.0
H1071 H 0.15677 0.39648 0.49146 0.0
H1072 H 0.18 0.38346 0.48549 0.0
H1073 H 0.14715 0.34195 0.56145 0.0
H1074 H 0.12226 0.33279 0.58442 0.0
H1075 H 0.119 0.37723 0.5644 0.0
H1076 H 0.14384 0.38622 0.54119 0.0
H1077 H 0.20987 0.39578 0.57567 0.0
H1078 H 0.23073 0.39251 0.59826 0.0
H1079 H 0.2274 0.35405 0.54996 0.0
H1080 H 0.20689 0.35778 0.52719 0.0
H1081 H 0.17707 0.36966 0.56619 0.0
H1082 H 0.22689 0.40705 0.52445 0.0
H1083 H 0.25206 0.41389 0.50272 0.0
H1084 H 0.22021 0.37493 0.45239 0.0
H1085 H 0.1953 0.36784 0.47427 0.0
C1086 C 0.14874 0.37019 0.50011 0.0
C1087 C 0.13657 0.35276 0.49587 0.0
C1088 C 0.12373 0.34812 0.47942 0.0
C1089 C 0.12272 0.36086 0.46722 0.0
C1090 C 0.13431 0.37835 0.47237 0.0
C1091 C 0.14738 0.38298 0.48853 0.0
C1092 C 0.16408 0.37468 0.51413 0.0
C1093 C 0.17947 0.38064 0.50322 0.0
C1094 C 0.16325 0.37092 0.53716 0.0
C1095 C 0.14739 0.36479 0.54967 0.0
C1096 C 0.14102 0.34967 0.56192 0.0
C1097 C 0.12683 0.34449 0.5751 0.0
C1098 C 0.11875 0.35437 0.57642 0.0
C1099 C 0.12483 0.36924 0.56358 0.0
C1100 C 0.13904 0.37441 0.55034 0.0
C1101 C 0.20689 0.3771 0.5497 0.0
C1102 C 0.21383 0.38682 0.56982 0.0
C1103 C 0.22567 0.38483 0.5828 0.0
C1104 C 0.23066 0.37287 0.5761 0.0
C1105 C 0.22404 0.36352 0.55554 0.0
C1106 C 0.21227 0.36561 0.5425 0.0
C1107 C 0.19294 0.37782 0.53734 0.0
C1108 C 0.17777 0.37279 0.54855 0.0
C1109 C 0.19386 0.38199 0.51436 0.0
C1110 C 0.2092 0.3868 0.50113 0.0
C1111 C 0.22535 0.39994 0.50879 0.0
C1112 C 0.23969 0.40392 0.49631 0.0
C1113 C 0.23805 0.39503 0.47579 0.0
C1114 C 0.22183 0.38222 0.46791 0.0
C1115 C 0.20758 0.37811 0.48048 0.0
H1116 H 0.0095 0.36069 0.05115 0.0
H1117 H 0.96139 0.41191 0.08406 0.0
H1118 H 0.97221 0.36354 0.00827 0.0
H1119 H 0.99504 0.40595 0.13046 0.0
H1120 H 0.96416 0.39272 0.05705 0.0
H1121 H 0.00341 0.37574 0.08131 0.0
C1122 C -8e-05 0.36428 0.04813 0.0
C1123 C 0.99148 0.36096 0.02701 0.0
C1124 C 0.97087 0.3955 0.07319 0.0
C1125 C 0.98455 0.37828 0.06139 0.0
C1126 C 0.9692 0.4064 0.08874 0.0
C1127 C 0.97802 0.41065 0.10964 0.0
C1128 C 0.98155 0.38882 0.07838 0.0
C1129 C 0.98821 0.4033 0.11444 0.0
C1130 C 0.99648 0.37292 0.06534 0.0
C1131 C 0.97918 0.36594 0.02413 0.0
N1132 N 0.98978 0.39284 0.09889 0.0
N1133 N 0.9762 0.37443 0.04101 0.0
H1134 H 0.60634 0.60547 0.0677 0.0
H1135 H 0.59555 0.52215 0.12773 0.0
H1136 H 0.64302 0.58861 0.06159 0.0
H1137 H 0.55499 0.5335 0.11833 0.0
H1138 H 0.61325 0.54601 0.10338 0.0
H1139 H 0.5874 0.57889 0.08617 0.0
C1140 C 0.61041 0.59616 0.07025 0.0
C1141 C 0.62637 0.59936 0.06346 0.0
C1142 C 0.60043 0.54317 0.10657 0.0
C1143 C 0.60473 0.56878 0.08466 0.0
C1144 C 0.59032 0.52955 0.12042 0.0
C1145 C 0.57385 0.52599 0.12537 0.0
C1146 C 0.59403 0.55329 0.09772 0.0
C1147 C 0.56776 0.53605 0.11551 0.0
C1148 C 0.59953 0.58089 0.08068 0.0
C1149 C 0.6308 0.5866 0.06666 0.0
N1150 N 0.57788 0.54929 0.10232 0.0
N1151 N 0.62011 0.57192 0.07735 0.0
H1152 H 0.36739 0.99286 0.05671 0.0
H1153 H 0.44437 0.0538 0.14181 0.0
H1154 H 0.40522 0.04507 0.04186 0.0
H1155 H 0.42136 0.99822 0.13829 0.0
H1156 H 0.42537 0.05179 0.11082 0.0
H1157 H 0.38236 0.99595 0.09268 0.0
C1158 C 0.37868 0.00506 0.06115 0.0
C1159 C 0.38518 0.01868 0.04616 0.0
C1160 C 0.42442 0.04006 0.11708 0.0
C1161 C 0.40222 0.02228 0.08726 0.0
C1162 C 0.43532 0.04117 0.13468 0.0
C1163 C 0.43473 0.02618 0.14259 0.0
C1164 C 0.41264 0.02385 0.10752 0.0
C1165 C 0.42229 0.01016 0.13303 0.0
C1166 C 0.38724 0.00676 0.08161 0.0
C1167 C 0.39989 0.03418 0.0528 0.0
N1168 N 0.41181 0.00943 0.11595 0.0
N1169 N 0.40795 0.03555 0.07285 0.0
H1170 H 0.39792 0.00905 0.969 0.0
H1171 H 0.41601 0.9608 0.87117 0.0
H1172 H 0.3603 0.95712 0.94786 0.0
H1173 H 0.45583 0.996 0.91809 0.0
H1174 H 0.39496 0.9604 0.89658 0.0
H1175 H 0.4192 0.00605 0.94789 0.0
C1176 C 0.39419 0.997 0.95996 0.0
C1177 C 0.37738 0.98335 0.95994 0.0
C1178 C 0.40833 0.96809 0.90129 0.0
C1179 C 0.40149 0.9799 0.93562 0.0
C1180 C 0.42038 0.96831 0.88684 0.0
C1181 C 0.43782 0.97861 0.89228 0.0
C1182 C 0.41375 0.97846 0.92109 0.0
C1183 C 0.44261 0.98825 0.91276 0.0
C1184 C 0.40633 0.99525 0.94806 0.0
C1185 C 0.3732 0.96789 0.94827 0.0
N1186 N 0.43066 0.9881 0.92626 0.0
N1187 N 0.38514 0.96665 0.9362 0.0
H1188 H 0.05111 0.39991 0.97973 0.0
H1189 H 0.02238 0.43447 0.87391 0.0
H1190 H 0.01773 0.36773 0.92499 0.0
H1191 H 0.0485 0.46673 0.9327 0.0
H1192 H 0.02405 0.41079 0.89075 0.0
H1193 H 0.05374 0.42543 0.96114 0.0
C1194 C 0.04449 0.39824 0.96373 0.0
C1195 C 0.03406 0.38168 0.95397 0.0
C1196 C 0.02947 0.42303 0.90002 0.0
C1197 C 0.03702 0.41065 0.93271 0.0
C1198 C 0.02844 0.43656 0.89043 0.0
C1199 C 0.03506 0.45253 0.90207 0.0
C1200 C 0.03717 0.42539 0.92148 0.0
C1201 C 0.04322 0.45462 0.92315 0.0
C1202 C 0.04594 0.41277 0.9532 0.0
C1203 C 0.02574 0.38022 0.93327 0.0
N1204 N 0.04393 0.44114 0.93229 0.0
N1205 N 0.02737 0.39447 0.9234 0.0
H1206 H 0.62898 0.62551 0.97257 0.0
H1207 H 0.54974 0.61733 0.90195 0.0
H1208 H 0.59377 0.63927 0.00081 0.0
H1209 H 0.56881 0.58211 0.89232 0.0
H1210 H 0.57036 0.6315 0.93317 0.0
H1211 H 0.6116 0.61589 0.93762 0.0
C1212 C 0.61776 0.62678 0.9713 0.0
C1213 C 0.61274 0.63308 0.98969 0.0
C1214 C 0.57007 0.62075 0.92401 0.0
C1215 C 0.59295 0.62223 0.94977 0.0
C1216 C 0.55822 0.61254 0.90625 0.0
C1217 C 0.55724 0.59824 0.89449 0.0
C1218 C 0.58128 0.61489 0.92982 0.0
C1219 C 0.56907 0.59313 0.90055 0.0
C1220 C 0.60782 0.6212 0.95142 0.0
C1221 C 0.59802 0.63435 0.98712 0.0
N1222 N 0.58054 0.60141 0.9178 0.0
N1223 N 0.58862 0.62895 0.96752 0.0
H1224 H 0.0343 0.64407 0.00563 0.0
H1225 H 0.98888 0.56535 0.91912 0.0
H1226 H 0.9825 0.62463 0.98231 0.0
H1227 H 0.04302 0.6007 0.91791 0.0
H1228 H 0.98613 0.58584 0.94377 0.0
H1229 H 0.03787 0.62746 0.97512 0.0
C1230 C 0.02376 0.63649 0.99388 0.0
C1231 C 0.00807 0.63569 0.99652 0.0
C1232 C 0.99858 0.58914 0.93792 0.0
C1233 C 0.01196 0.61637 0.96196 0.0
C1234 C 0.0002 0.57747 0.9237 0.0
C1235 C 0.01626 0.58116 0.91627 0.0
C1236 C 0.01312 0.60452 0.94522 0.0
C1237 C 0.03043 0.597 0.92349 0.0
C1238 C 0.02581 0.62704 0.97648 0.0
C1239 C 0.99483 0.62568 0.98082 0.0
N1240 N 0.02855 0.60798 0.93773 0.0
N1241 N 0.99698 0.61616 0.96442 0.0
H1242 H 0.37418 0.38027 0.9144 0.0
H1243 H 0.42979 0.48296 0.9151 0.0
H1244 H 0.3716 0.41225 0.96779 0.0
H1245 H 0.41866 0.45005 0.85562 0.0
H1246 H 0.41035 0.45761 0.93606 0.0
H1247 H 0.39293 0.40609 0.89433 0.0
C1248 C 0.37765 0.39276 0.922 0.0
C1249 C 0.37135 0.39411 0.94285 0.0
C1250 C 0.41216 0.45601 0.91841 0.0
C1251 C 0.39281 0.42382 0.91979 0.0
C1252 C 0.42318 0.47046 0.90638 0.0
C1253 C 0.42599 0.46864 0.88356 0.0
C1254 C 0.40403 0.43963 0.90758 0.0
C1255 C 0.41722 0.45207 0.87327 0.0
C1256 C 0.38828 0.40751 0.91043 0.0
C1257 C 0.37617 0.41065 0.95173 0.0
N1258 N 0.40674 0.43824 0.88538 0.0
N1259 N 0.38669 0.42491 0.94017 0.0
H1260 H 0.59603 0.96185 0.99846 0.0
H1261 H 0.5887 0.01099 0.89287 0.0
H1262 H 0.63718 0.01079 0.97792 0.0
H1263 H 0.55313 0.95737 0.904 0.0
H1264 H 0.6071 0.01086 0.92328 0.0
H1265 H 0.58053 0.95948 0.96335 0.0
C1266 C 0.60189 0.97203 0.9865 0.0
C1267 C 0.61788 0.98663 0.99129 0.0
C1268 C 0.59538 -0.00094 0.91891 0.0
C1269 C 0.60011 0.98404 0.95112 0.0
C1270 C 0.58486 -0.00085 0.90162 0.0
C1271 C 0.56934 0.9842 0.89604 0.0
C1272 C 0.59022 0.98397 0.93095 0.0
C1273 C 0.56503 0.96915 0.90772 0.0
C1274 C 0.59303 0.97064 0.96642 0.0
C1275 C 0.62486 -0.00067 0.97504 0.0
N1276 N 0.57531 0.96947 0.92483 0.0
N1277 N 0.61585 0.99784 0.95582 0.0
H1278 H 0.62159 0.99789 0.09995 0.0
H1279 H 0.56406 0.04106 0.11661 0.0
H1280 H 0.62918 0.04192 0.06254 0.0
H1281 H 0.56949 0.00892 0.16546 0.0
H1282 H 0.58587 0.03991 0.09426 0.0
H1283 H 0.59991 -0.00034 0.12133 0.0
C1284 C 0.61862 0.00789 0.09612 0.0
C1285 C 0.6272 0.01977 0.07941 0.0
C1286 C 0.58226 0.03315 0.1099 0.0
C1287 C 0.60238 0.02191 0.10398 0.0
C1288 C 0.56988 0.03386 0.12274 0.0
C1289 C 0.56483 0.025 0.14294 0.0
C1290 C 0.58951 0.0234 0.11722 0.0
C1291 C 0.57267 0.01566 0.14981 0.0
C1292 C 0.6063 0.00895 0.10845 0.0
C1293 C 0.62289 0.03253 0.07532 0.0
N1294 N 0.58454 0.01506 0.13694 0.0
N1295 N 0.61071 0.03325 0.08752 0.0
H1296 H 0.99093 0.62994 0.10132 0.0
H1297 H 0.95314 0.52785 0.09755 0.0
H1298 H 0.95178 0.59595 0.053 0.0
H1299 H 0.98559 0.56233 0.15142 0.0
H1300 H 0.95222 0.55214 0.0806 0.0
H1301 H 0.98914 0.60496 0.11932 0.0
C1302 C 0.98193 0.61718 0.09448 0.0
C1303 C 0.97157 0.61503 0.07552 0.0
C1304 C 0.95948 0.55433 0.09617 0.0
C1305 C 0.96943 0.58622 0.09615 0.0
C1306 C 0.95997 0.54047 0.1059 0.0
C1307 C 0.96962 0.54307 0.12583 0.0
C1308 C 0.96874 0.5709 0.10642 0.0
C1309 C 0.9783 0.55975 0.13579 0.0
C1310 C 0.98086 0.60289 0.10484 0.0
C1311 C 0.96 0.59817 0.06759 0.0
N1312 N 0.97772 0.57299 0.12594 0.0
N1313 N 0.95932 0.58437 0.07786 0.0
H1314 H 0.41235 0.36649 0.99626 0.0
H1315 H 0.42563 0.39362 0.12741 0.0
H1316 H 0.37186 0.36075 0.03866 0.0
H1317 H 0.46647 0.40272 0.0836 0.0
H1318 H 0.40527 0.37868 0.09612 0.0
H1319 H 0.43173 0.37664 0.0291 0.0
C1320 C 0.40746 0.3672 0.01249 0.0
C1321 C 0.39042 0.36288 0.01458 0.0
C1322 C 0.41868 0.38383 0.0934 0.0
C1323 C 0.41269 0.37463 0.05236 0.0
C1324 C 0.43033 0.39244 0.11124 0.0
C1325 C 0.44784 0.39959 0.10813 0.0
C1326 C 0.42454 0.38235 0.07222 0.0
C1327 C 0.45312 0.39733 0.08688 0.0
C1328 C 0.41858 0.37304 0.03126 0.0
C1329 C 0.38488 0.36402 0.03615 0.0
N1330 N 0.44154 0.38904 0.06973 0.0
N1331 N 0.396 0.3699 0.05414 0.0
H1332 H 0.6221 0.67962 0.35529 0.0
H1333 H 0.66309 0.74989 0.45421 0.0
H1334 H 0.67227 0.69621 0.38311 0.0
H1335 H 0.60875 0.71848 0.44311 0.0
H1336 H 0.66692 0.73065 0.42839 0.0
H1337 H 0.61698 0.69392 0.38716 0.0
C1338 C 0.63197 0.6861 0.36827 0.0
C1339 C 0.64767 0.68679 0.36649 0.0
C1340 C 0.65416 0.72789 0.43181 0.0
C1341 C 0.642 0.70348 0.40283 0.0
C1342 C 0.65192 0.73884 0.44668 0.0
C1343 C 0.63554 0.73598 0.45082 0.0
C1344 C 0.63996 0.7141 0.42069 0.0
C1345 C 0.62164 0.72153 0.44009 0.0
C1346 C 0.62902 0.69424 0.38648 0.0
C1347 C 0.65997 0.69531 0.38386 0.0
N1348 N 0.62418 0.71128 0.42536 0.0
N1349 N 0.65698 0.70358 0.40113 0.0
H1350 H 0.29431 0.92341 0.39382 0.0
H1351 H 0.21458 0.87507 0.47244 0.0
H1352 H 0.26599 0.94654 0.4197 0.0
H1353 H 0.25316 0.86056 0.46743 0.0
H1354 H 0.23064 0.89878 0.44755 0.0
H1355 H 0.27641 0.8975 0.41497 0.0
C1356 C 0.28421 0.92297 0.4037 0.0
C1357 C 0.28168 0.93721 0.40505 0.0
C1358 C 0.23558 0.89039 0.45189 0.0
C1359 C 0.26124 0.90771 0.42913 0.0
C1360 C 0.22649 0.87691 0.46626 0.0
C1361 C 0.23264 0.86591 0.47239 0.0
C1362 C 0.25087 0.89286 0.44332 0.0
C1363 C 0.24788 0.86865 0.46313 0.0
C1364 C 0.27409 0.90825 0.41583 0.0
C1365 C 0.26847 0.93597 0.41818 0.0
N1366 N 0.25651 0.88189 0.44909 0.0
N1367 N 0.25876 0.9215 0.4297 0.0
H1368 H 0.07794 0.33207 0.33331 0.0
H1369 H 0.09861 0.37011 0.45898 0.0
H1370 H 0.03964 0.33428 0.37279 0.0
H1371 H 0.11998 0.3406 0.43098 0.0
H1372 H 0.0795 0.36207 0.42546 0.0
H1373 H 0.09655 0.34052 0.36705 0.0
C1374 C 0.07349 0.33445 0.34904 0.0
C1375 C 0.0572 0.33242 0.35029 0.0
C1376 C 0.08835 0.35733 0.42678 0.0
C1377 C 0.07848 0.34225 0.38878 0.0
C1378 C 0.09922 0.36193 0.44578 0.0
C1379 C 0.11072 0.35586 0.44769 0.0
C1380 C 0.08939 0.34703 0.40943 0.0
C1381 C 0.11113 0.34535 0.43018 0.0
C1382 C 0.08408 0.33917 0.36827 0.0
C1383 C 0.05206 0.33559 0.37115 0.0
N1384 N 0.10072 0.34139 0.41167 0.0
N1385 N 0.06273 0.34047 0.38959 0.0
H1386 H 0.02188 0.28925 0.2461 0.0
H1387 H 0.09138 0.26183 0.25629 0.0
H1388 H 0.02953 0.26857 0.30724 0.0
H1389 H 0.0714 0.26774 0.19281 0.0
H1390 H 0.06772 0.26192 0.27527 0.0
H1391 H 0.03869 0.27933 0.22611 0.0
C1392 C 0.027 0.28242 0.25525 0.0
C1393 C 0.0245 0.27983 0.27834 0.0
C1394 C 0.06834 0.26283 0.25714 0.0
C1395 C 0.04403 0.26866 0.25566 0.0
C1396 C 0.08187 0.26287 0.24632 0.0
C1397 C 0.08348 0.26502 0.22298 0.0
C1398 C 0.05651 0.26519 0.24453 0.0
C1399 C 0.07067 0.26603 0.21081 0.0
C1400 C 0.03654 0.27669 0.24382 0.0
C1401 C 0.03124 0.2708 0.2894 0.0
N1402 N 0.05789 0.26639 0.22178 0.0
N1403 N 0.04102 0.26579 0.27802 0.0
H1404 H 0.70806 0.72951 0.31243 0.0
H1405 H 0.68454 0.76754 0.206 0.0
H1406 H 0.66879 0.69831 0.26263 0.0
H1407 H 0.71225 0.79931 0.26453 0.0
H1408 H 0.68121 0.74228 0.22509 0.0
H1409 H 0.71233 0.75555 0.29367 0.0
C1410 C 0.70036 0.72814 0.29758 0.0
C1411 C 0.688 0.71173 0.28913 0.0
C1412 C 0.68798 0.75477 0.2338 0.0
C1413 C 0.69291 0.74133 0.26758 0.0
C1414 C 0.68981 0.76922 0.22295 0.0
C1415 C 0.69851 0.78562 0.23374 0.0
C1416 C 0.69503 0.75663 0.25558 0.0
C1417 C 0.70553 0.78697 0.25548 0.0
C1418 C 0.70277 0.74298 0.28694 0.0
C1419 C 0.67837 0.71068 0.26985 0.0
N1420 N 0.70363 0.77266 0.2657 0.0
N1421 N 0.68107 0.72525 0.2597 0.0
H1422 H 0.24412 0.96752 0.34319 0.0
H1423 H 0.23667 0.9394 0.21285 0.0
H1424 H 0.2859 0.96956 0.30717 0.0
H1425 H 0.1942 0.93056 0.25327 0.0
H1426 H 0.25579 0.95381 0.24556 0.0
H1427 H 0.22677 0.95776 0.30859 0.0
C1428 C 0.24973 0.96605 0.32798 0.0
C1429 C 0.2665 0.96922 0.32823 0.0
C1430 C 0.24229 0.94882 0.24715 0.0
C1431 C 0.24651 0.95789 0.28836 0.0
C1432 C 0.23134 0.94052 0.22851 0.0
C1433 C 0.21373 0.93367 0.23021 0.0
C1434 C 0.23561 0.95033 0.26765 0.0
C1435 C 0.20766 0.93582 0.25091 0.0
C1436 C 0.23976 0.96042 0.30818 0.0
C1437 C 0.27303 0.96719 0.30784 0.0
N1438 N 0.21854 0.94386 0.26876 0.0
N1439 N 0.26298 0.96152 0.28876 0.0
H1440 H 0.7151 0.98299 0.32539 0.0
H1441 H 0.67213 0.90827 0.23215 0.0
H1442 H 0.66305 0.96232 0.30232 0.0
H1443 H 0.72653 0.94194 0.23848 0.0
H1444 H 0.66843 0.92783 0.25747 0.0
H1445 H 0.71962 0.96822 0.29356 0.0
C1446 C 0.70467 0.97552 0.31343 0.0
C1447 C 0.68864 0.9738 0.31658 0.0
C1448 C 0.68116 0.93102 0.25311 0.0
C1449 C 0.69365 0.95657 0.28031 0.0
C1450 C 0.68332 0.91988 0.23853 0.0
C1451 C 0.69971 0.92332 0.23315 0.0
C1452 C 0.69547 0.94561 0.26275 0.0
C1453 C 0.71367 0.93847 0.24246 0.0
C1454 C 0.70728 0.96711 0.29524 0.0
C1455 C 0.67562 0.96402 0.30049 0.0
N1456 N 0.71123 0.94893 0.25696 0.0
N1457 N 0.67833 0.95553 0.28324 0.0
H1458 H 0.06435 0.72324 0.27628 0.0
H1459 H 0.07215 0.8079 0.22482 0.0
H1460 H 0.03011 0.74158 0.29375 0.0
H1461 H 0.11314 0.79668 0.22664 0.0
H1462 H 0.0561 0.78371 0.24949 0.0
H1463 H 0.08193 0.74991 0.25726 0.0
C1464 C 0.06057 0.73292 0.27631 0.0
C1465 C 0.04569 0.73011 0.28663 0.0
C1466 C 0.06866 0.78666 0.24457 0.0
C1467 C 0.06574 0.76076 0.26445 0.0
C1468 C 0.07784 0.80048 0.23054 0.0
C1469 C 0.09393 0.8042 0.22334 0.0
C1470 C 0.07557 0.77644 0.25129 0.0
C1471 C 0.10061 0.79404 0.2312 0.0
C1472 C 0.07067 0.74822 0.26543 0.0
C1473 C 0.04151 0.74324 0.28605 0.0
N1474 N 0.09135 0.78058 0.24456 0.0
N1475 N 0.05139 0.75794 0.27489 0.0
H1476 H 0.30377 0.34103 0.31058 0.0
H1477 H 0.2077 0.28424 0.2637 0.0
H1478 H 0.26117 0.31162 0.35287 0.0
H1479 H 0.24951 0.31778 0.22264 0.0
H1480 H 0.22757 0.2915 0.29569 0.0
H1481 H 0.28453 0.3302 0.2776 0.0
C1482 C 0.29039 0.33222 0.31298 0.0
C1483 C 0.2841 0.32735 0.33465 0.0
C1484 C 0.23243 0.29719 0.27965 0.0
C1485 C 0.26195 0.31489 0.29677 0.0
C1486 C 0.2211 0.29293 0.26129 0.0
C1487 C 0.22692 0.30044 0.24041 0.0
C1488 C 0.24975 0.30905 0.27718 0.0
C1489 C 0.24441 0.31186 0.23848 0.0
C1490 C 0.2794 0.32605 0.29408 0.0
C1491 C 0.26662 0.31582 0.33656 0.0
N1492 N 0.25519 0.31586 0.25663 0.0
N1493 N 0.25616 0.31006 0.31789 0.0
H1494 H 0.31473 0.37413 0.43726 0.0
H1495 H 0.24312 0.3986 0.4304 0.0
H1496 H 0.30582 0.39449 0.37664 0.0
H1497 H 0.26717 0.39749 0.49305 0.0
H1498 H 0.26605 0.39808 0.40995 0.0
H1499 H 0.29739 0.38313 0.45773 0.0
C1500 C 0.30915 0.3806 0.42829 0.0
C1501 C 0.31154 0.38345 0.40521 0.0
C1502 C 0.26647 0.39831 0.42818 0.0
C1503 C 0.29151 0.39367 0.42853 0.0
C1504 C 0.25338 0.39853 0.43984 0.0
C1505 C 0.25318 0.39789 0.46342 0.0
C1506 C 0.27925 0.39714 0.44022 0.0
C1507 C 0.26684 0.39801 0.47488 0.0
C1508 C 0.29935 0.38585 0.44002 0.0
C1509 C 0.30421 0.39205 0.39444 0.0
N1510 N 0.27917 0.39733 0.46314 0.0
N1511 N 0.29423 0.39663 0.40614 0.0
H1512 H 0.62606 0.93208 0.38146 0.0
H1513 H 0.66622 0.88864 0.45882 0.0
H1514 H 0.6756 0.96077 0.41441 0.0
H1515 H 0.61292 0.86365 0.43996 0.0
H1516 H 0.67077 0.91434 0.43928 0.0
H1517 H 0.62187 0.90603 0.39959 0.0
C1518 C 0.6361 0.93291 0.39242 0.0
C1519 C 0.65124 0.94866 0.39635 0.0
C1520 C 0.65808 0.90324 0.43941 0.0
C1521 C 0.64652 0.91885 0.41711 0.0
C1522 C 0.6555 0.88853 0.45042 0.0
C1523 C 0.63916 0.874 0.45099 0.0
C1524 C 0.64426 0.90337 0.4287 0.0
C1525 C 0.62568 0.87464 0.44009 0.0
C1526 C 0.63367 0.91803 0.4028 0.0
C1527 C 0.66378 0.94893 0.41076 0.0
N1528 N 0.62854 0.88906 0.42933 0.0
N1529 N 0.66115 0.93425 0.42058 0.0
H1530 H 0.04161 0.70754 0.38206 0.0
H1531 H 0.11833 0.71677 0.46008 0.0
H1532 H 0.0783 0.6939 0.35928 0.0
H1533 H 0.09767 0.7508 0.46724 0.0
H1534 H 0.09875 0.70222 0.42798 0.0
H1535 H 0.05721 0.7173 0.41847 0.0
C1536 C 0.05278 0.70636 0.38484 0.0
C1537 C 0.05877 0.70005 0.36758 0.0
C1538 C 0.09844 0.71277 0.43679 0.0
C1539 C 0.07647 0.71098 0.40908 0.0
C1540 C 0.10968 0.72118 0.45505 0.0
C1541 C 0.10994 0.7353 0.4663 0.0
C1542 C 0.08716 0.71829 0.42987 0.0
C1543 C 0.09795 0.73996 0.45932 0.0
C1544 C 0.06169 0.71199 0.40553 0.0
C1545 C 0.07336 0.69885 0.37204 0.0
N1546 N 0.08712 0.73154 0.44149 0.0
N1547 N 0.08171 0.70428 0.39235 0.0
H1548 H 0.28831 0.0185 0.69108 0.0
H1549 H 0.32729 0.08739 0.79281 0.0
H1550 H 0.33857 0.03643 0.71963 0.0
H1551 H 0.27378 0.05934 0.77487 0.0
H1552 H 0.33164 0.06837 0.76699 0.0
H1553 H 0.2825 0.03252 0.72254 0.0
C1554 C 0.29807 0.02523 0.70412 0.0
C1555 C 0.314 0.0264 0.70262 0.0
C1556 C 0.31891 0.06624 0.7689 0.0
C1557 C 0.3075 0.04274 0.7386 0.0
C1558 C 0.31645 0.07715 0.78353 0.0
C1559 C 0.30017 0.07502 0.78585 0.0
C1560 C 0.30505 0.05324 0.75624 0.0
C1561 C 0.28653 0.0614 0.77366 0.0
C1562 C 0.29473 0.03322 0.72212 0.0
C1563 C 0.32611 0.03519 0.72011 0.0
N1564 N 0.28931 0.05117 0.75918 0.0
N1565 N 0.3227 0.04325 0.73721 0.0
H1566 H 0.96223 0.28728 0.77155 0.0
H1567 H 0.91154 0.18468 0.77641 0.0
H1568 H 0.96867 0.25499 0.72238 0.0
H1569 H 0.91828 0.21885 0.83294 0.0
H1570 H 0.93122 0.20975 0.7552 0.0
H1571 H 0.94423 0.26182 0.79276 0.0
C1572 C 0.95979 0.27479 0.76514 0.0
C1573 C 0.96691 0.27324 0.74512 0.0
C1574 C 0.92843 0.2117 0.77229 0.0
C1575 C 0.94632 0.24396 0.76946 0.0
C1576 C 0.91728 0.1974 0.78446 0.0
C1577 C 0.9131 0.19966 0.80644 0.0
C1578 C 0.93532 0.22835 0.78213 0.0
C1579 C 0.9208 0.21649 0.81589 0.0
C1580 C 0.94958 0.26026 0.77736 0.0
C1581 C 0.96342 0.25674 0.73775 0.0
N1582 N 0.93142 0.23017 0.80364 0.0
N1583 N 0.95328 0.24269 0.74989 0.0
H1584 H 0.7042 0.66573 0.72243 0.0
H1585 H 0.79236 0.73295 0.78495 0.0
H1586 H 0.74417 0.71023 0.69086 0.0
H1587 H 0.75904 0.68149 0.80737 0.0
H1588 H 0.7717 0.72799 0.75451 0.0
H1589 H 0.72117 0.67467 0.75759 0.0
C1590 C 0.71642 0.67751 0.72294 0.0
C1591 C 0.72286 0.68711 0.70352 0.0
C1592 C 0.76882 0.71788 0.76629 0.0
C1593 C 0.74232 0.69738 0.74377 0.0
C1594 C 0.78053 0.72074 0.78373 0.0
C1595 C 0.77743 0.70754 0.79853 0.0
C1596 C 0.75387 0.70175 0.76378 0.0
C1597 C 0.76199 0.69191 0.79611 0.0
C1598 C 0.72612 0.68256 0.74302 0.0
C1599 C 0.73878 0.7023 0.7053 0.0
N1600 N 0.75082 0.68941 0.77897 0.0
N1601 N 0.74801 0.7069 0.72501 0.0
H1602 H 0.73153 0.66548 0.62812 0.0
H1603 H 0.74864 0.59753 0.56101 0.0
H1604 H 0.69607 0.61073 0.62682 0.0
H1605 H 0.77918 0.65296 0.55747 0.0
H1606 H 0.73041 0.60132 0.5878 0.0
H1607 H 0.75093 0.66033 0.60616 0.0
C1608 C 0.72785 0.65234 0.62321 0.0
C1609 C 0.71205 0.63855 0.6288 0.0
C1610 C 0.74116 0.61261 0.5812 0.0
C1611 C 0.73419 0.63246 0.60353 0.0
C1612 C 0.75148 0.61047 0.56579 0.0
C1613 C 0.76552 0.62496 0.55707 0.0
C1614 C 0.74496 0.62935 0.58787 0.0
C1615 C 0.76871 0.64141 0.56403 0.0
C1616 C 0.73896 0.64937 0.6107 0.0
C1617 C 0.70817 0.62171 0.62271 0.0
N1618 N 0.75854 0.64314 0.57898 0.0
N1619 N 0.71909 0.61912 0.61008 0.0
H1620 H 0.3726 0.07085 0.64656 0.0
H1621 H 0.34744 0.10543 0.5383 0.0
H1622 H 0.33298 0.03744 0.59839 0.0
H1623 H 0.37452 0.13825 0.5964 0.0
H1624 H 0.34386 0.08051 0.55871 0.0
H1625 H 0.37547 0.09594 0.62696 0.0
C1626 C 0.36449 0.0688 0.63189 0.0
C1627 C 0.35252 0.05204 0.6241 0.0
C1628 C 0.35054 0.09317 0.56701 0.0
C1629 C 0.35583 0.08064 0.60154 0.0
C1630 C 0.35252 0.10742 0.55541 0.0
C1631 C 0.36125 0.12404 0.56562 0.0
C1632 C 0.35749 0.0955 0.58893 0.0
C1633 C 0.3679 0.12577 0.58767 0.0
C1634 C 0.36611 0.08311 0.62076 0.0
C1635 C 0.34232 0.05013 0.60504 0.0
N1636 N 0.36593 0.1117 0.59855 0.0
N1637 N 0.34427 0.06425 0.59434 0.0
H1638 H 0.96508 0.30443 0.64385 0.0
H1639 H 0.86994 0.24136 0.60078 0.0
H1640 H 0.92181 0.2873 0.68627 0.0
H1641 H 0.90905 0.27238 0.55486 0.0
H1642 H 0.88948 0.25721 0.63244 0.0
H1643 H 0.94556 0.29212 0.61093 0.0
C1644 C 0.95152 0.2982 0.64626 0.0
C1645 C 0.9451 0.29682 0.66793 0.0
C1646 C 0.8938 0.26068 0.61547 0.0
C1647 C 0.92279 0.28263 0.63043 0.0
C1648 C 0.88267 0.2516 0.59743 0.0
C1649 C 0.88796 0.25557 0.57528 0.0
C1650 C 0.91048 0.27368 0.61137 0.0
C1651 C 0.90453 0.26901 0.57177 0.0
C1652 C 0.94041 0.29123 0.62746 0.0
C1653 C 0.9274 0.28866 0.66998 0.0
N1654 N 0.91532 0.27749 0.58967 0.0
N1655 N 0.9169 0.28175 0.65153 0.0
H1656 H 0.3773 0.318 0.66468 0.0
H1657 H 0.3372 0.24796 0.56544 0.0
H1658 H 0.32759 0.30165 0.63532 0.0
H1659 H 0.3915 0.27892 0.57747 0.0
H1660 H 0.33333 0.26725 0.59102 0.0
H1661 H 0.38287 0.30377 0.63312 0.0
C1662 C 0.36765 0.31163 0.65142 0.0
C1663 C 0.35192 0.31094 0.65271 0.0
C1664 C 0.3461 0.26991 0.58787 0.0
C1665 C 0.3581 0.29433 0.61677 0.0
C1666 C 0.34836 0.25893 0.57313 0.0
C1667 C 0.36473 0.26166 0.56925 0.0
C1668 C 0.36025 0.28362 0.59917 0.0
C1669 C 0.3786 0.27598 0.58025 0.0
C1670 C 0.37084 0.30351 0.63341 0.0
C1671 C 0.3399 0.30254 0.635 0.0
N1672 N 0.37603 0.28628 0.59487 0.0
N1673 N 0.34313 0.29431 0.61795 0.0
H1674 H 0.70556 0.07309 0.63001 0.0
H1675 H 0.75583 0.10736 0.51636 0.0
H1676 H 0.7134 0.04086 0.58237 0.0
H1677 H 0.76113 0.14135 0.57246 0.0
H1678 H 0.73731 0.08263 0.5386 0.0
H1679 H 0.72324 0.09819 0.60746 0.0
C1680 C 0.71103 0.07131 0.61485 0.0
C1681 C 0.70808 0.0549 0.60809 0.0
C1682 C 0.74251 0.09552 0.54602 0.0
C1683 C 0.72807 0.08341 0.58218 0.0
C1684 C 0.75313 0.10965 0.53335 0.0
C1685 C 0.76019 0.1265 0.54257 0.0
C1686 C 0.73877 0.0982 0.56803 0.0
C1687 C 0.75587 0.12863 0.56453 0.0
C1688 C 0.72111 0.08561 0.60202 0.0
C1689 C 0.71545 0.05329 0.5883 0.0
N1690 N 0.74546 0.11464 0.57653 0.0
N1691 N 0.72504 0.06736 0.576 0.0
H1692 H 0.91626 0.63412 0.67407 0.0
H1693 H 0.91348 0.64556 0.54104 0.0
H1694 H 0.96114 0.66562 0.6365 0.0
H1695 H 0.86959 0.61345 0.57989 0.0
H1696 H 0.93151 0.65221 0.57516 0.0
H1697 H 0.89932 0.6255 0.63909 0.0
C1698 C 0.92259 0.63921 0.65847 0.0
C1699 C 0.94018 0.6507 0.65832 0.0
C1700 C 0.91794 0.64359 0.57613 0.0
C1701 C 0.92074 0.64085 0.61799 0.0
C1702 C 0.90764 0.63983 0.55667 0.0
C1703 C 0.88997 0.62888 0.55751 0.0
C1704 C 0.91051 0.63644 0.5966 0.0
C1705 C 0.88314 0.62172 0.57824 0.0
C1706 C 0.91289 0.63426 0.63844 0.0
C1707 C 0.94763 0.65677 0.63747 0.0
N1708 N 0.89339 0.62569 0.59689 0.0
N1709 N 0.93786 0.65184 0.61816 0.0
H1710 H 0.96436 0.71663 0.70875 0.0
H1711 H 0.93029 0.72302 0.82956 0.0
H1712 H 0.96757 0.69055 0.76726 0.0
H1713 H 0.90504 0.72445 0.7682 0.0
H1714 H 0.95088 0.71974 0.80714 0.0
H1715 H 0.94865 0.72745 0.73088 0.0
C1716 C 0.96191 0.71337 0.72625 0.0
C1717 C 0.96704 0.70256 0.73621 0.0
C1718 C 0.94097 0.72102 0.79861 0.0
C1719 C 0.9497 0.7151 0.76144 0.0
C1720 C 0.92931 0.72301 0.81137 0.0
C1721 C 0.91589 0.72381 0.80066 0.0
C1722 C 0.93927 0.72001 0.77503 0.0
C1723 C 0.91511 0.72361 0.77702 0.0
C1724 C 0.95299 0.71948 0.73879 0.0
C1725 C 0.96362 0.69867 0.7589 0.0
N1726 N 0.9266 0.72162 0.76492 0.0
N1727 N 0.95521 0.70496 0.77077 0.0
H1728 H 0.33335 0.29532 0.7485 0.0
H1729 H 0.26885 0.19853 0.77781 0.0
H1730 H 0.28505 0.26617 0.71258 0.0
H1731 H 0.32327 0.22193 0.78727 0.0
H1732 H 0.27329 0.22358 0.75666 0.0
H1733 H 0.3286 0.26914 0.76621 0.0
C1734 C 0.32181 0.28341 0.74408 0.0
C1735 C 0.30972 0.28297 0.72869 0.0
C1736 C 0.28421 0.22312 0.76332 0.0
C1737 C 0.30398 0.25285 0.74955 0.0
C1738 C 0.28172 0.2088 0.77533 0.0
C1739 C 0.2957 0.2081 0.7846 0.0
C1740 C 0.30075 0.23693 0.76083 0.0
C1741 C 0.31205 0.222 0.78103 0.0
C1742 C 0.31909 0.26842 0.75431 0.0
C1743 C 0.29479 0.26709 0.72421 0.0
N1744 N 0.3141 0.23586 0.76962 0.0
N1745 N 0.29227 0.25264 0.73472 0.0
H1746 H 0.75242 0.03619 0.67112 0.0
H1747 H 0.76116 0.06384 0.80185 0.0
H1748 H 0.71006 0.02987 0.70992 0.0
H1749 H 0.80357 0.07468 0.76016 0.0
H1750 H 0.74181 0.04907 0.76949 0.0
H1751 H 0.77079 0.04779 0.70474 0.0
C1752 C 0.74692 0.03716 0.68672 0.0
C1753 C 0.72963 0.03211 0.68758 0.0
C1754 C 0.75535 0.0546 0.76749 0.0
C1755 C 0.75076 0.04551 0.72632 0.0
C1756 C 0.76642 0.0631 0.78594 0.0
C1757 C 0.78407 0.0706 0.78379 0.0
C1758 C 0.76195 0.05355 0.7467 0.0
C1759 C 0.79009 0.06894 0.7628 0.0
C1760 C 0.75747 0.04382 0.70596 0.0
C1761 C 0.7233 0.03364 0.7084 0.0
N1762 N 0.77908 0.06068 0.74512 0.0
N1763 N 0.73388 0.04027 0.72691 0.0
H1764 H 0.06705 0.35948 0.06192 0.0
H1765 H 0.08258 0.2819 0.09442 0.0
H1766 H 0.03604 0.30723 0.03551 0.0
H1767 H 0.11205 0.33376 0.1227 0.0
H1768 H 0.06464 0.29056 0.07389 0.0
H1769 H 0.08267 0.3499 0.08579 0.0
C1770 C 0.06342 0.34596 0.06125 0.0
C1771 C 0.05025 0.33418 0.04656 0.0
C1772 C 0.07497 0.30002 0.08469 0.0
C1773 C 0.06823 0.3231 0.0738 0.0
C1774 C 0.08529 0.29511 0.09633 0.0
C1775 C 0.09891 0.30712 0.11029 0.0
C1776 C 0.07832 0.31712 0.08689 0.0
C1777 C 0.10161 0.32399 0.11235 0.0
C1778 C 0.07237 0.34049 0.07489 0.0
C1779 C 0.04611 0.31679 0.04652 0.0
N1780 N 0.09149 0.3285 0.1007 0.0
N1781 N 0.05514 0.31182 0.05979 0.0
H1782 H 0.67524 0.70593 0.0407 0.0
H1783 H 0.68949 0.76646 0.148 0.0
H1784 H 0.64465 0.68793 0.09952 0.0
H1785 H 0.69412 0.78619 0.08135 0.0
H1786 H 0.67915 0.73749 0.13127 0.0
H1787 H 0.68781 0.73576 0.05607 0.0
C1788 C 0.67113 0.70825 0.05674 0.0
C1789 C 0.6588 0.69447 0.06879 0.0
C1790 C 0.68258 0.74822 0.12034 0.0
C1791 C 0.67341 0.7282 0.08658 0.0
C1792 C 0.68859 0.76469 0.12984 0.0
C1793 C 0.6926 0.77861 0.11597 0.0
C1794 C 0.68089 0.74573 0.09684 0.0
C1795 C 0.69106 0.77569 0.09253 0.0
C1796 C 0.67829 0.7252 0.06545 0.0
C1797 C 0.65397 0.69816 0.08954 0.0
N1798 N 0.68534 0.75952 0.08362 0.0
N1799 N 0.66141 0.71464 0.09788 0.0
H1800 H 0.30699 0.97549 0.05038 0.0
H1801 H 0.20725 0.9135 0.05726 0.0
H1802 H 0.2731 0.95821 0.99183 0.0
H1803 H 0.2382 0.94447 0.11433 0.0
H1804 H 0.23155 0.92877 0.03313 0.0
H1805 H 0.28232 0.96305 0.07442 0.0
C1806 C 0.29437 0.96907 0.04258 0.0
C1807 C 0.29208 0.9678 0.01906 0.0
C1808 C 0.23301 0.93236 0.05088 0.0
C1809 C 0.26388 0.95356 0.04644 0.0
C1810 C 0.21919 0.92364 0.06463 0.0
C1811 C 0.22083 0.92775 0.08775 0.0
C1812 C 0.24868 0.94509 0.0604 0.0
C1813 C 0.23647 0.94101 0.09653 0.0
C1814 C 0.28031 0.96208 0.05632 0.0
C1815 C 0.27545 0.95946 0.00987 0.0
N1816 N 0.24991 0.94911 0.08286 0.0
N1817 N 0.26198 0.95254 0.02358 0.0
H1818 H 0.31668 0.02307 0.98193 0.0
H1819 H 0.33541 0.11055 0.92468 0.0
H1820 H 0.36694 0.06583 0.97113 0.0
H1821 H 0.28611 0.06433 0.92296 0.0
H1822 H 0.34628 0.09643 0.94906 0.0
H1823 H 0.30459 0.04036 0.96836 0.0
C1824 C 0.3252 0.03621 0.97717 0.0
C1825 C 0.34286 0.04291 0.97728 0.0
C1826 C 0.33305 0.08941 0.9435 0.0
C1827 C 0.32908 0.06266 0.9616 0.0
C1828 C 0.32686 0.09742 0.92946 0.0
C1829 C 0.30991 0.08847 0.92139 0.0
C1830 C 0.32224 0.07231 0.94955 0.0
C1831 C 0.29928 0.07168 0.92871 0.0
C1832 C 0.31827 0.04602 0.96929 0.0
C1833 C 0.35326 0.06004 0.97098 0.0
N1834 N 0.30567 0.06405 0.94219 0.0
N1835 N 0.3462 0.06924 0.96315 0.0
H1836 H 0.94906 0.29518 0.96133 0.0
H1837 H 0.92664 0.19743 0.9392 0.0
H1838 H 0.98499 0.27815 0.97533 0.0
H1839 H 0.89362 0.21754 0.92221 0.0
H1840 H 0.94725 0.22575 0.95609 0.0
H1841 H 0.92748 0.26558 0.95162 0.0
C1842 C 0.95237 0.28515 0.96257 0.0
C1843 C 0.96893 0.28919 0.9689 0.0
C1844 C 0.93541 0.22386 0.94883 0.0
C1845 C 0.94419 0.25508 0.95742 0.0
C1846 C 0.92368 0.20774 0.93906 0.0
C1847 C 0.90831 0.20502 0.92924 0.0
C1848 C 0.93175 0.23737 0.94877 0.0
C1849 C 0.90511 0.21883 0.92986 0.0
C1850 C 0.94002 0.26821 0.95697 0.0
C1851 C 0.97239 0.2756 0.97049 0.0
N1852 N 0.91671 0.23434 0.93934 0.0
N1853 N 0.96017 0.25914 0.96448 0.0
H1854 H 0.69184 0.66331 0.9757 0.0
H1855 H 0.79272 0.71353 0.96461 0.0
H1856 H 0.72724 0.68971 0.0315 0.0
H1857 H 0.75739 0.69148 0.90774 0.0
H1858 H 0.7689 0.70583 0.98914 0.0
H1859 H 0.71564 0.67419 0.95035 0.0
C1860 C 0.70461 0.67145 0.98262 0.0
C1861 C 0.70756 0.67552 0.00579 0.0
C1862 C 0.76635 0.70276 0.97128 0.0
C1863 C 0.73487 0.68798 0.97686 0.0
C1864 C 0.77997 0.70726 0.95721 0.0
C1865 C 0.77707 0.70309 0.93405 0.0
C1866 C 0.74967 0.69395 0.96218 0.0
C1867 C 0.76022 0.69469 0.92554 0.0
C1868 C 0.7182 0.67768 0.96812 0.0
C1869 C 0.72437 0.68619 0.01378 0.0
N1870 N 0.74717 0.69032 0.93961 0.0
N1871 N 0.73739 0.69196 0.99936 0.0
H1872 H 0.94571 0.69135 0.03186 0.0
H1873 H 0.91787 0.69592 0.90474 0.0
H1874 H 0.95836 0.66946 0.97517 0.0
H1875 H 0.89994 0.71074 0.96316 0.0
H1876 H 0.93432 0.68785 0.92965 0.0
H1877 H 0.93063 0.70039 0.00633 0.0
C1878 C 0.94535 0.68845 0.01401 0.0
C1879 C 0.9533 0.67956 0.00568 0.0
C1880 C 0.92681 0.69292 0.93698 0.0
C1881 C 0.93595 0.68996 0.9762 0.0
C1882 C 0.91736 0.69747 0.92277 0.0
C1883 C 0.90745 0.70405 0.93179 0.0
C1884 C 0.92643 0.69498 0.96041 0.0
C1885 C 0.90755 0.70601 0.95532 0.0
C1886 C 0.93669 0.69362 0.99941 0.0
C1887 C 0.95239 0.67623 0.98235 0.0
N1888 N 0.91684 0.70149 0.96875 0.0
N1889 N 0.94386 0.68142 0.96841 0.0
H1890 H 0.34629 0.30351 0.91231 0.0
H1891 H 0.29468 0.20548 0.94136 0.0
H1892 H 0.31962 0.28907 0.97464 0.0
H1893 H 0.29716 0.22295 0.87372 0.0
H1894 H 0.30607 0.23538 0.95577 0.0
H1895 H 0.33148 0.2733 0.89973 0.0
C1896 C 0.33742 0.29396 0.92348 0.0
C1897 C 0.33423 0.29883 0.94462 0.0
C1898 C 0.30383 0.23255 0.93783 0.0
C1899 C 0.31721 0.26414 0.93018 0.0
C1900 C 0.29738 0.21558 0.92962 0.0
C1901 C 0.29496 0.21182 0.90634 0.0
C1902 C 0.3083 0.24579 0.92257 0.0
C1903 C 0.29868 0.2253 0.89178 0.0
C1904 C 0.32885 0.27674 0.91616 0.0
C1905 C 0.32244 0.28585 0.95822 0.0
N1906 N 0.30542 0.24173 0.90011 0.0
N1907 N 0.31442 0.269 0.95084 0.0
H1908 H 0.72618 0.02913 0.02034 0.0
H1909 H 0.75561 0.08397 0.90912 0.0
H1910 H 0.6952 0.04527 0.98409 0.0
H1911 H 0.78318 0.06183 0.94031 0.0
H1912 H 0.73302 0.06941 0.93592 0.0
H1913 H 0.74712 0.0409 0.99103 0.0
C1914 C 0.72379 0.03518 0.00624 0.0
C1915 C 0.70895 0.03629 0.00473 0.0
C1916 C 0.74393 0.06759 0.93678 0.0
C1917 C 0.73286 0.04974 0.97105 0.0
C1918 C 0.75682 0.07592 0.92152 0.0
C1919 C 0.77131 0.07416 0.9226 0.0
C1920 C 0.74561 0.05757 0.9534 0.0
C1921 C 0.77217 0.06343 0.93881 0.0
C1922 C 0.73572 0.04182 0.98945 0.0
C1923 C 0.70649 0.04417 0.98598 0.0
N1924 N 0.75958 0.05567 0.95372 0.0
N1925 N 0.71836 0.05066 0.96992 0.0
H1926 H 0.64363 0.94146 0.04768 0.0
H1927 H 0.71266 0.93939 0.12145 0.0
H1928 H 0.692 0.98807 0.05888 0.0
H1929 H 0.68292 0.89712 0.07381 0.0
H1930 H 0.70514 0.95759 0.09979 0.0
H1931 H 0.65697 0.92448 0.05788 0.0
C1932 C 0.65712 0.94807 0.05185 0.0
C1933 C 0.66672 0.96616 0.05258 0.0
C1934 C 0.70051 0.94439 0.09395 0.0
C1935 C 0.68186 0.94694 0.06481 0.0
C1936 C 0.70484 0.93396 0.10626 0.0
C1937 C 0.69818 0.91651 0.09979 0.0
C1938 C 0.68916 0.93723 0.07536 0.0
C1939 C 0.68789 0.91028 0.08 0.0
C1940 C 0.66472 0.93841 0.0576 0.0
C1941 C 0.68417 0.97414 0.05808 0.0
N1942 N 0.68339 0.92052 0.06877 0.0
N1943 N 0.69112 0.96448 0.06455 0.0
H1944 H 0.05321 0.70472 0.0613 0.0
H1945 H 0.06774 0.79943 0.08657 0.0
H1946 H 0.01346 0.71717 0.05156 0.0
H1947 H 0.10502 0.7839 0.09907 0.0
H1948 H 0.04829 0.77047 0.07033 0.0
H1949 H 0.07319 0.73492 0.07062 0.0
C1950 C 0.04871 0.71387 0.06089 0.0
C1951 C 0.03158 0.70836 0.05589 0.0
C1952 C 0.06079 0.7735 0.07648 0.0
C1953 C 0.05445 0.74313 0.06695 0.0
C1954 C 0.07186 0.78998 0.08588 0.0
C1955 C 0.0881 0.79418 0.09417 0.0
C1956 C 0.066 0.76114 0.07541 0.0
C1957 C 0.09279 0.78145 0.09258 0.0
C1958 C 0.06014 0.73115 0.06628 0.0
C1959 C 0.02656 0.72087 0.05536 0.0
N1960 N 0.08181 0.76557 0.08348 0.0
N1961 N 0.0379 0.73767 0.06114 0.0
H1962 H 0.30875 0.32872 0.0406 0.0
H1963 H 0.22408 0.32942 0.0737 0.0
H1964 H 0.28486 0.35095 0.00071 0.0
H1965 H 0.24794 0.30862 0.11633 0.0
H1966 H 0.24655 0.33737 0.04697 0.0
H1967 H 0.28683 0.32107 0.06864 0.0
C1968 C 0.29893 0.332 0.03774 0.0
C1969 C 0.29864 0.34047 0.01825 0.0
C1970 C 0.24695 0.33111 0.06219 0.0
C1971 C 0.27357 0.33177 0.05019 0.0
C1972 C 0.23415 0.32667 0.07758 0.0
C1973 C 0.23417 0.31845 0.09743 0.0
C1974 C 0.25992 0.32728 0.06652 0.0
C1975 C 0.24736 0.31483 0.10118 0.0
C1976 C 0.28643 0.32764 0.05375 0.0
C1977 C 0.28561 0.34442 0.01543 0.0
N1978 N 0.25972 0.31928 0.08587 0.0
N1979 N 0.27363 0.34003 0.03118 0.0
H1980 H 0.71091 0.63264 0.32834 0.0
H1981 H 0.75158 0.63959 0.45149 0.0
H1982 H 0.70188 0.65743 0.38522 0.0
H1983 H 0.76462 0.62096 0.39182 0.0
H1984 H 0.73186 0.6445 0.42851 0.0
H1985 H 0.72878 0.62617 0.35246 0.0
C1986 C 0.71261 0.63667 0.34596 0.0
C1987 C 0.70492 0.64568 0.35471 0.0
C1988 C 0.73901 0.63928 0.4205 0.0
C1989 C 0.72554 0.63832 0.38256 0.0
C1990 C 0.75035 0.63655 0.43358 0.0
C1991 C 0.75983 0.62981 0.42364 0.0
C1992 C 0.73709 0.63523 0.39729 0.0
C1993 C 0.75744 0.62589 0.40038 0.0
C1994 C 0.72288 0.63298 0.35974 0.0
C1995 C 0.70759 0.6505 0.37773 0.0
N1996 N 0.74637 0.62867 0.38806 0.0
N1997 N 0.71773 0.6468 0.39085 0.0
H1998 H 0.33228 0.04265 0.37459 0.0
H1999 H 0.35137 0.10666 0.47932 0.0
H2000 H 0.30218 0.02773 0.43407 0.0
H2001 H 0.3566 0.12531 0.41195 0.0
H2002 H 0.33889 0.07713 0.46362 0.0
H2003 H 0.3463 0.07295 0.3885 0.0
C2004 C 0.32856 0.04575 0.39045 0.0
C2005 C 0.31599 0.03267 0.40314 0.0
C2006 C 0.34291 0.08772 0.45229 0.0
C2007 C 0.33223 0.06695 0.41927 0.0
C2008 C 0.35014 0.10452 0.46121 0.0
C2009 C 0.35499 0.11834 0.44685 0.0
C2010 C 0.34079 0.08476 0.42887 0.0
C2011 C 0.35294 0.11492 0.4235 0.0
C2012 C 0.33654 0.06297 0.39832 0.0
C2013 C 0.31168 0.03737 0.42362 0.0
N2014 N 0.34603 0.09841 0.41516 0.0
N2015 N 0.31992 0.05409 0.43116 0.0
H2016 H 0.94555 0.30215 0.33489 0.0
H2017 H 0.91973 0.26804 0.45941 0.0
H2018 H 0.9792 0.29638 0.38151 0.0
H2019 H 0.88391 0.26183 0.40623 0.0
H2020 H 0.94292 0.28345 0.43362 0.0
H2021 H 0.92423 0.29275 0.36374 0.0
C2022 C 0.94853 0.29906 0.35126 0.0
C2023 C 0.9641 0.29982 0.3557 0.0
C2024 C 0.92997 0.27884 0.42774 0.0
C2025 C 0.93971 0.28903 0.38878 0.0
C2026 C 0.91671 0.26998 0.4424 0.0
C2027 C 0.89976 0.26347 0.435 0.0
C2028 C 0.92628 0.28132 0.40556 0.0
C2029 C 0.89671 0.26674 0.41288 0.0
C2030 C 0.93633 0.29366 0.36771 0.0
C2031 C 0.96729 0.2958 0.37729 0.0
N2032 N 0.90981 0.27533 0.39895 0.0
N2033 N 0.95514 0.29045 0.39301 0.0
H2034 H 0.99145 0.34743 0.30084 0.0
H2035 H 0.02393 0.43148 0.22733 0.0
H2036 H 0.03993 0.37292 0.26887 0.0
H2037 H 0.9735 0.4037 0.25352 0.0
H2038 H 0.03117 0.41211 0.24653 0.0
H2039 H 0.98599 0.37007 0.28806 0.0
C2040 C 0.00105 0.3579 0.29142 0.0
C2041 C 0.01609 0.35815 0.28567 0.0
C2042 C 0.01854 0.41027 0.24818 0.0
C2043 C 0.00985 0.38398 0.27088 0.0
C2044 C 0.01442 0.42139 0.2373 0.0
C2045 C 0.99806 0.41917 0.23876 0.0
C2046 C 0.00622 0.39679 0.26062 0.0
C2047 C 0.98618 0.40571 0.25167 0.0
C2048 C 0.99788 0.37077 0.28403 0.0
C2049 C 0.02807 0.37206 0.27347 0.0
N2050 N 0.99048 0.39498 0.26206 0.0
N2051 N 0.02463 0.38432 0.26634 0.0
H2052 H 0.60496 0.6218 0.29444 0.0
H2053 H 0.58918 0.52692 0.26613 0.0
H2054 H 0.64358 0.608 0.30616 0.0
H2055 H 0.55464 0.54501 0.24832 0.0
H2056 H 0.60828 0.55515 0.28455 0.0
H2057 H 0.5851 0.59214 0.28242 0.0
C2058 C 0.60923 0.61247 0.2947 0.0
C2059 C 0.62604 0.61747 0.30108 0.0
C2060 C 0.59644 0.55283 0.27674 0.0
C2061 C 0.60328 0.5833 0.28693 0.0
C2062 C 0.58557 0.53676 0.26609 0.0
C2063 C 0.57018 0.53347 0.25567 0.0
C2064 C 0.59188 0.56569 0.27698 0.0
C2065 C 0.56614 0.54671 0.25644 0.0
C2066 C 0.59786 0.59549 0.28775 0.0
C2067 C 0.63074 0.60471 0.30133 0.0
N2068 N 0.5769 0.56215 0.26683 0.0
N2069 N 0.61947 0.58822 0.29407 0.0
H2070 H 0.37774 0.9981 0.37338 0.0
H2071 H 0.41902 0.0234 0.25239 0.0
H2072 H 0.35099 0.00242 0.31541 0.0
H2073 H 0.44001 0.00868 0.30758 0.0
H2074 H 0.39537 0.01898 0.27598 0.0
H2075 H 0.40206 0.00522 0.35023 0.0
C2076 C 0.37699 0.00061 0.35577 0.0
C2077 C 0.36225 -0.00044 0.34629 0.0
C2078 C 0.40518 0.01675 0.2829 0.0
C2079 C 0.39015 0.00773 0.31961 0.0
C2080 C 0.4187 0.01936 0.26952 0.0
C2081 C 0.43142 0.0163 0.27803 0.0
C2082 C 0.4045 0.01121 0.305 0.0
C2083 C 0.43035 0.01096 0.30025 0.0
C2084 C 0.39089 0.00465 0.34254 0.0
C2085 C 0.36207 0.00301 0.32338 0.0
N2086 N 0.41714 0.00859 0.31295 0.0
N2087 N 0.37582 0.00692 0.31078 0.0
H2088 H 0.60847 0.96656 0.29852 0.0
H2089 H 0.58072 0.03707 0.27575 0.0
H2090 H 0.6367 0.01929 0.32424 0.0
H2091 H 0.55236 0.98421 0.25059 0.0
H2092 H 0.60221 0.03127 0.29182 0.0
H2093 H 0.58877 0.97328 0.27892 0.0
C2094 C 0.61062 0.9796 0.29991 0.0
C2095 C 0.62422 0.99235 0.31317 0.0
C2096 C 0.59131 0.02095 0.28274 0.0
C2097 C 0.60159 0.00012 0.29086 0.0
C2098 C 0.57905 0.02427 0.27346 0.0
C2099 C 0.56464 0.01109 0.26186 0.0
C2100 C 0.58918 0.00432 0.28042 0.0
C2101 C 0.5631 0.9947 0.25971 0.0
C2102 C 0.59932 0.98342 0.28874 0.0
C2103 C 0.62636 0.00903 0.31428 0.0
N2104 N 0.57518 0.99178 0.26892 0.0
N2105 N 0.61512 0.01239 0.30339 0.0
H2106 H 0.99404 0.62536 0.30042 0.0
H2107 H 0.02307 0.56744 0.23163 0.0
H2108 H 0.04563 0.64238 0.28179 0.0
H2109 H 0.97245 0.54674 0.25662 0.0
H2110 H 0.03136 0.59479 0.25102 0.0
H2111 H 0.98574 0.5962 0.28615 0.0
C2112 C 0.00367 0.62294 0.29364 0.0
C2113 C 0.02053 0.63642 0.29208 0.0
C2114 C 0.01845 0.58427 0.25242 0.0
C2115 C 0.01109 0.60319 0.27555 0.0
C2116 C 0.01371 0.56857 0.2414 0.0
C2117 C 0.99705 0.55467 0.24258 0.0
C2118 C 0.00643 0.58628 0.26462 0.0
C2119 C 0.98539 0.55714 0.25505 0.0
C2120 C -0.0011 0.60631 0.28542 0.0
C2121 C 0.03245 0.6325 0.28312 0.0
N2122 N 0.99029 0.57267 0.26556 0.0
N2123 N 0.02746 0.61633 0.27506 0.0
H2124 H 0.35141 0.38645 0.28496 0.0
H2125 H 0.43682 0.38705 0.25335 0.0
H2126 H 0.37358 0.36181 0.32343 0.0
H2127 H 0.41885 0.41779 0.22067 0.0
H2128 H 0.41065 0.37309 0.27438 0.0
H2129 H 0.37311 0.39366 0.25683 0.0
C2130 C 0.36073 0.3824 0.28738 0.0
C2131 C 0.36085 0.37376 0.30674 0.0
C2132 C 0.41234 0.38275 0.26242 0.0
C2133 C 0.38565 0.38193 0.27467 0.0
C2134 C 0.42722 0.39062 0.2503 0.0
C2135 C 0.43009 0.40375 0.23551 0.0
C2136 C 0.40027 0.38805 0.25969 0.0
C2137 C 0.41727 0.40796 0.23228 0.0
C2138 C 0.37311 0.38653 0.27134 0.0
C2139 C 0.37315 0.36872 0.30893 0.0
N2140 N 0.40298 0.40025 0.24444 0.0
N2141 N 0.38513 0.373 0.29319 0.0
H2142 H 0.34818 0.31713 0.37386 0.0
H2143 H 0.36535 0.2738 0.47865 0.0
H2144 H 0.32273 0.30971 0.43679 0.0
H2145 H 0.36613 0.25587 0.411 0.0
H2146 H 0.35562 0.29272 0.46358 0.0
H2147 H 0.3599 0.29923 0.38718 0.0
C2148 C 0.34499 0.31167 0.39037 0.0
C2149 C 0.33443 0.31485 0.40422 0.0
C2150 C 0.35807 0.28475 0.45204 0.0
C2151 C 0.34808 0.29494 0.4196 0.0
C2152 C 0.36378 0.27412 0.46058 0.0
C2153 C 0.36653 0.26333 0.44599 0.0
C2154 C 0.35532 0.28474 0.42874 0.0
C2155 C 0.36406 0.264 0.42274 0.0
C2156 C 0.35167 0.30151 0.39791 0.0
C2157 C 0.3307 0.3075 0.42547 0.0
N2158 N 0.3586 0.27458 0.41475 0.0
N2159 N 0.33767 0.29805 0.4326 0.0
H2160 H 0.68951 0.05016 0.38307 0.0
H2161 H 0.78465 0.12848 0.39589 0.0
H2162 H 0.73279 0.04297 0.37691 0.0
H2163 H 0.74479 0.12421 0.43862 0.0
H2164 H 0.76469 0.10024 0.37866 0.0
H2165 H 0.7089 0.08085 0.3928 0.0
C2166 C 0.70309 0.05512 0.38326 0.0
C2167 C 0.70959 0.04404 0.37933 0.0
C2168 C 0.76036 0.10568 0.39165 0.0
C2169 C 0.73168 0.07895 0.39017 0.0
C2170 C 0.77176 0.12174 0.40168 0.0
C2171 C 0.76661 0.1288 0.41916 0.0
C2172 C 0.74356 0.09674 0.39866 0.0
C2173 C 0.74946 0.11955 0.42516 0.0
C2174 C 0.7141 0.07255 0.38895 0.0
C2175 C 0.72729 0.05108 0.38 0.0
N2176 N 0.73859 0.104 0.41498 0.0
N2177 N 0.73774 0.06812 0.38534 0.0
H2178 H 0.94681 0.65896 0.31515 0.0
H2179 H 0.90947 0.63156 0.43803 0.0
H2180 H 0.97713 0.66007 0.37256 0.0
H2181 H 0.88295 0.63964 0.38297 0.0
H2182 H 0.93335 0.63871 0.41345 0.0
H2183 H 0.92228 0.64867 0.33899 0.0
C2184 C 0.94831 0.65698 0.33276 0.0
C2185 C 0.9641 0.66049 0.34189 0.0
C2186 C 0.92227 0.63886 0.40676 0.0
C2187 C 0.93598 0.64869 0.36934 0.0
C2188 C 0.90862 0.63469 0.42072 0.0
C2189 C 0.89428 0.63514 0.41255 0.0
C2190 C 0.92149 0.64336 0.38444 0.0
C2191 C 0.89388 0.63939 0.39004 0.0
C2192 C 0.93428 0.65112 0.34638 0.0
C2193 C 0.96523 0.65761 0.36484 0.0
N2194 N 0.90728 0.64335 0.37681 0.0
N2195 N 0.95136 0.65191 0.3778 0.0
H2196 H 0.37266 0.00347 0.72177 0.0
H2197 H 0.44186 0.97313 0.7284 0.0
H2198 H 0.38462 0.98029 0.66583 0.0
H2199 H 0.42756 0.99251 0.78614 0.0
H2200 H 0.42034 0.97501 0.70558 0.0
H2201 H 0.39215 -0.00096 0.74596 0.0
C2202 C 0.3793 0.99737 0.7146 0.0
C2203 C 0.37705 0.99232 0.69169 0.0
C2204 C 0.42184 0.97879 0.72327 0.0
C2205 C 0.39941 0.98728 0.71926 0.0
C2206 C 0.43409 0.97762 0.73637 0.0
C2207 C 0.4366 0.98269 0.75928 0.0
C2208 C 0.41201 0.98515 0.73304 0.0
C2209 C 0.42629 0.9887 0.7685 0.0
C2210 C 0.39043 0.99485 0.72842 0.0
C2211 C 0.38598 0.98446 0.68335 0.0
N2212 N 0.41451 0.98982 0.75535 0.0
N2213 N 0.3968 0.98226 0.69708 0.0
H2214 H 0.02203 0.37413 0.7333 0.0
H2215 H 0.99614 0.44571 0.75788 0.0
H2216 H 0.97033 0.36363 0.7279 0.0
H2217 H 0.03526 0.44307 0.79697 0.0
H2218 H 0.9907 0.41974 0.73659 0.0
H2219 H 0.03111 0.40391 0.74603 0.0
C2220 C 0.01269 0.37824 0.7342 0.0
C2221 C 0.99541 0.36647 0.7297 0.0
C2222 C 0.00059 0.42502 0.74968 0.0
C2223 C 0.00567 0.40026 0.744 0.0
C2224 C 0.00363 0.43975 0.76204 0.0
C2225 C 0.01594 0.44646 0.77972 0.0
C2226 C 0.01014 0.4171 0.75466 0.0
C2227 C 0.02567 0.43847 0.78355 0.0
C2228 C 0.01785 0.39512 0.74162 0.0
C2229 C 0.98376 0.37233 0.73137 0.0
N2230 N 0.02249 0.42414 0.77121 0.0
N2231 N 0.98909 0.38883 0.73844 0.0
H2232 H 0.60999 0.62477 0.65755 0.0
H2233 H 0.57588 0.61047 0.78298 0.0
H2234 H 0.64303 0.63757 0.71651 0.0
H2235 H 0.54436 0.58458 0.72391 0.0
H2236 H 0.60053 0.62532 0.75887 0.0
H2237 H 0.58569 0.61458 0.68183 0.0
C2238 C 0.61215 0.62549 0.67562 0.0
C2239 C 0.62855 0.63188 0.68501 0.0
C2240 C 0.58818 0.61651 0.75122 0.0
C2241 C 0.60076 0.62032 0.71291 0.0
C2242 C 0.57415 0.60817 0.7649 0.0
C2243 C 0.55819 0.59627 0.75532 0.0
C2244 C 0.58608 0.61301 0.72786 0.0
C2245 C 0.55653 0.59358 0.73189 0.0
C2246 C 0.59826 0.61966 0.68946 0.0
C2247 C 0.63058 0.63259 0.70856 0.0
N2248 N 0.57031 0.60184 0.71895 0.0
N2249 N 0.61682 0.62684 0.72173 0.0
H2250 H 0.68904 0.70394 0.59385 0.0
H2251 H 0.63145 0.74471 0.61164 0.0
H2252 H 0.65694 0.68909 0.65143 0.0
H2253 H 0.63766 0.72754 0.54602 0.0
H2254 H 0.64308 0.72786 0.62892 0.0
H2255 H 0.67366 0.71739 0.57839 0.0
C2256 C 0.67889 0.7037 0.6034 0.0
C2257 C 0.67428 0.69542 0.624 0.0
C2258 C 0.64156 0.72757 0.61078 0.0
C2259 C 0.65664 0.71076 0.6063 0.0
C2260 C 0.63495 0.7371 0.60096 0.0
C2261 C 0.63359 0.73738 0.57744 0.0
C2262 C 0.64727 0.71879 0.59687 0.0
C2263 C 0.63838 0.72748 0.56422 0.0
C2264 C 0.67001 0.7112 0.59443 0.0
C2265 C 0.66087 0.69535 0.63549 0.0
N2266 N 0.64531 0.71882 0.57412 0.0
N2267 N 0.65255 0.70306 0.62655 0.0
H2268 H 0.27392 0.95716 0.64739 0.0
H2269 H 0.26174 0.87714 0.5787 0.0
H2270 H 0.31747 0.95152 0.63464 0.0
H2271 H 0.22599 0.87079 0.62986 0.0
H2272 H 0.282 0.90511 0.59613 0.0
H2273 H 0.25529 0.92628 0.63834 0.0
C2274 C 0.27954 0.94933 0.64302 0.0
C2275 C 0.29721 0.95681 0.64178 0.0
C2276 C 0.26976 0.89744 0.60361 0.0
C2277 C 0.27606 0.92179 0.63077 0.0
C2278 C 0.25815 0.88137 0.59375 0.0
C2279 C 0.24188 0.87145 0.60256 0.0
C2280 C 0.265 0.90388 0.62206 0.0
C2281 C 0.23807 0.87806 0.62191 0.0
C2282 C 0.26894 0.93177 0.6379 0.0
C2283 C 0.30389 0.94617 0.63594 0.0
N2284 N 0.2494 0.89397 0.63075 0.0
N2285 N 0.29328 0.92922 0.63016 0.0
H2286 H 0.05539 0.32145 0.6921 0.0
H2287 H 0.08923 0.3554 0.56951 0.0
H2288 H 0.02786 0.33482 0.64436 0.0
H2289 H 0.11617 0.34274 0.61911 0.0
H2290 H 0.06646 0.34787 0.59615 0.0
H2291 H 0.07754 0.32898 0.66498 0.0
C2292 C 0.05399 0.32598 0.67588 0.0
C2293 C 0.03973 0.32751 0.67051 0.0
C2294 C 0.07735 0.34671 0.60114 0.0
C2295 C 0.06517 0.3362 0.63922 0.0
C2296 C 0.09037 0.35107 0.58599 0.0
C2297 C 0.1046 0.34961 0.59203 0.0
C2298 C 0.0786 0.34091 0.62249 0.0
C2299 C 0.10532 0.34378 0.61354 0.0
C2300 C 0.06668 0.33029 0.66036 0.0
C2301 C 0.03864 0.33346 0.6492 0.0
N2302 N 0.09254 0.33967 0.62794 0.0
N2303 N 0.05121 0.33759 0.63431 0.0
H2304 H 0.30056 0.34232 0.63215 0.0
H2305 H 0.23077 0.37169 0.62215 0.0
H2306 H 0.27874 0.35412 0.68896 0.0
H2307 H 0.25596 0.36587 0.56451 0.0
H2308 H 0.24844 0.36523 0.6466 0.0
H2309 H 0.28446 0.35065 0.60684 0.0
C2310 C 0.29244 0.3467 0.63931 0.0
C2311 C 0.29098 0.34747 0.66274 0.0
C2312 C 0.2502 0.36544 0.62862 0.0
C2313 C 0.27251 0.35696 0.63389 0.0
C2314 C 0.24016 0.36927 0.61459 0.0
C2315 C 0.24188 0.36944 0.59114 0.0
C2316 C 0.26205 0.3616 0.61926 0.0
C2317 C 0.25403 0.36572 0.58244 0.0
C2318 C 0.28327 0.35146 0.62485 0.0
C2319 C 0.28027 0.35327 0.67105 0.0
N2320 N 0.26362 0.36192 0.59648 0.0
N2321 N 0.27144 0.35772 0.65667 0.0
H2322 H 0.65352 0.95368 0.63302 0.0
H2323 H 0.67602 0.88446 0.58173 0.0
H2324 H 0.70421 0.96486 0.61781 0.0
H2325 H 0.6253 0.87704 0.58019 0.0
H2326 H 0.68612 0.91181 0.6025 0.0
H2327 H 0.64274 0.92339 0.62165 0.0
C2328 C 0.66243 0.94971 0.62773 0.0
C2329 C 0.67977 0.96185 0.62609 0.0
C2330 C 0.67276 0.90415 0.59775 0.0
C2331 C 0.66752 0.92733 0.61301 0.0
C2332 C 0.66699 0.88858 0.58576 0.0
C2333 C 0.64983 0.87859 0.5788 0.0
C2334 C 0.66132 0.90983 0.60292 0.0
C2335 C 0.63864 0.88434 0.58516 0.0
C2336 C 0.65625 0.93246 0.62111 0.0
C2337 C 0.69072 0.95599 0.61906 0.0
N2338 N 0.6446 0.89968 0.59669 0.0
N2339 N 0.68439 0.93919 0.61264 0.0
H2340 H 0.02173 0.68893 0.63856 0.0
H2341 H 0.12188 0.74169 0.63558 0.0
H2342 H 0.0541 0.69403 0.69567 0.0
H2343 H 0.09073 0.72095 0.57495 0.0
H2344 H 0.09703 0.72402 0.65789 0.0
H2345 H 0.04648 0.70032 0.61463 0.0
C2346 C 0.034 0.6923 0.64602 0.0
C2347 C 0.0359 0.69072 0.66919 0.0
C2348 C 0.09563 0.7231 0.6397 0.0
C2349 C 0.06419 0.70381 0.64201 0.0
C2350 C 0.10979 0.73317 0.62703 0.0
C2351 C 0.10822 0.73269 0.60352 0.0
C2352 C 0.07973 0.71278 0.62877 0.0
C2353 C 0.09236 0.72154 0.5931 0.0
C2354 C 0.04809 0.69872 0.63235 0.0
C2355 C 0.05206 0.69515 0.67794 0.0
N2356 N 0.0786 0.71218 0.60584 0.0
N2357 N 0.06561 0.7017 0.6644 0.0
H2358 H 0.00607 0.64034 0.71851 0.0
H2359 H 0.97481 0.55748 0.79395 0.0
H2360 H 0.95533 0.61053 0.74328 0.0
H2361 H 0.0265 0.58831 0.77298 0.0
H2362 H 0.96688 0.57513 0.77189 0.0
H2363 H 0.01305 0.61951 0.73422 0.0
C2364 C 0.99631 0.62928 0.7269 0.0
C2365 C 0.98014 0.6273 0.72983 0.0
C2366 C 0.97995 0.57802 0.77201 0.0
C2367 C 0.98812 0.60357 0.74802 0.0
C2368 C 0.98448 0.56789 0.78455 0.0
C2369 C 0.00136 0.57143 0.78534 0.0
C2370 C 0.99238 0.59187 0.76017 0.0
C2371 C 0.0134 0.58528 0.77309 0.0
C2372 C 0.00035 0.61745 0.73599 0.0
C2373 C 0.96802 0.61271 0.74086 0.0
N2374 N 0.00868 0.59504 0.76104 0.0
N2375 N 0.97231 0.60151 0.74971 0.0
H2376 H 0.3626 0.3883 0.69323 0.0
H2377 H 0.41068 0.45385 0.79647 0.0
H2378 H 0.3756 0.37341 0.7558 0.0
H2379 H 0.42612 0.46988 0.72885 0.0
H2380 H 0.39107 0.4246 0.78166 0.0
H2381 H 0.38018 0.4189 0.70589 0.0
C2382 C 0.36913 0.39145 0.70953 0.0
C2383 C 0.36777 0.37832 0.7234 0.0
C2384 C 0.39862 0.43458 0.77005 0.0
C2385 C 0.38724 0.41289 0.73808 0.0
C2386 C 0.40969 0.45127 0.77846 0.0
C2387 C 0.42001 0.46424 0.76384 0.0
C2388 C 0.39766 0.43088 0.74684 0.0
C2389 C 0.41841 0.46015 0.74064 0.0
C2390 C 0.37912 0.40882 0.7167 0.0
C2391 C 0.37643 0.38308 0.74443 0.0
N2392 N 0.4074 0.44377 0.73278 0.0
N2393 N 0.38564 0.39992 0.75118 0.0
H2394 H 0.63599 0.9845 0.69469 0.0
H2395 H 0.58871 0.02398 0.76497 0.0
H2396 H 0.6578 0.03888 0.71108 0.0
H2397 H 0.57132 0.96936 0.76092 0.0
H2398 H 0.61386 0.0295 0.74465 0.0
H2399 H 0.61207 0.97846 0.71849 0.0
C2400 C 0.63583 0.99516 0.70343 0.0
C2401 C 0.64888 0.01224 0.70077 0.0
C2402 C 0.60459 0.01631 0.74829 0.0
C2403 C 0.62147 0.00542 0.72782 0.0
C2404 C 0.59023 0.01313 0.76001 0.0
C2405 C 0.57785 0.99617 0.76479 0.0
C2406 C 0.60661 0.00243 0.74105 0.0
C2407 C 0.58039 0.98263 0.75738 0.0
C2408 C 0.62216 0.99169 0.717 0.0
C2409 C 0.64801 0.02552 0.71255 0.0
N2410 N 0.59446 0.98605 0.74582 0.0
N2411 N 0.63448 0.02184 0.7254 0.0
loop_
_geom_bond_atom_site_label_1
_geom_bond_atom_site_label_2
_geom_bond_distance
_geom_bond_site_symmetry_2
_ccdc_geom_bond_type
Mg0 O1 2.028 1_556 S
Mg0 O7 1.986 1_455 S
Mg0 O9 2.114 . S
Mg0 O10 2.251 1_455 S
Mg0 O13 2.010 1_556 S
O1 Mg0 2.028 1_554 S
O1 C4 1.250 1_455 S
O2 Mg3 2.028 1_554 S
O2 C4 1.248 . S
Mg3 O2 2.028 1_556 S
Mg3 O8 2.032 . S
Mg3 O10 2.079 . S
C4 O1 1.250 1_655 S
C4 O2 1.248 . S
C5 O6 1.264 . S
C5 O13 1.249 . S
O6 C5 1.264 . S
O7 Mg0 1.986 1_655 S
O7 C11 1.246 . S
O8 Mg3 2.032 . S
O8 C11 1.259 . S
O9 Mg0 2.114 . S
O9 C12 1.252 . S
O10 Mg0 2.251 1_655 S
O10 Mg3 2.079 . S
O10 C12 1.273 1_655 S
C11 O7 1.246 . S
C11 O8 1.259 . S
C12 O9 1.252 . S
C12 O10 1.273 1_455 S
O13 Mg0 2.010 1_554 S
O13 C5 1.249 . S
Mg14 O15 2.028 1_554 S
Mg14 O21 1.986 . S
Mg14 O23 2.114 . S
Mg14 O24 2.251 . S
Mg14 O27 2.010 . S
O15 Mg14 2.028 1_556 S
O15 C18 1.250 . S
O16 Mg17 2.038 . S
O16 C18 1.241 1_554 S
Mg17 O16 2.038 . S
Mg17 O22 2.032 . S
Mg17 O24 2.079 . S
C18 O15 1.250 . S
C18 O16 1.241 1_556 S
C19 O20 1.267 . S
C19 O27 1.253 . S
O20 C19 1.267 . S
O21 Mg14 1.986 . S
O21 C25 1.246 . S
O22 Mg17 2.032 . S
O22 C25 1.259 . S
O23 Mg14 2.114 . S
O23 C26 1.252 . S
O24 Mg14 2.251 . S
O24 Mg17 2.079 . S
O24 C26 1.273 . S
C25 O21 1.246 . S
C25 O22 1.259 . S
C26 O23 1.252 . S
C26 O24 1.273 . S
O27 Mg14 2.010 . S
O27 C19 1.253 . S
Mg28 O29 2.033 1_566 S
Mg28 O35 1.987 1_565 S
Mg28 O37 2.114 . S
Mg28 O38 2.251 1_565 S
Mg28 O41 2.010 1_556 S
O29 Mg28 2.033 1_544 S
O29 C32 1.258 . S
O30 Mg31 2.028 1_554 S
O30 C32 1.248 . S
Mg31 O30 2.028 1_556 S
Mg31 O36 2.032 . S
Mg31 O38 2.079 . S
C32 O29 1.258 . S
C32 O30 1.248 . S
C33 O34 1.264 . S
C33 O41 1.249 . S
O34 C33 1.264 . S
O35 Mg28 1.987 1_545 S
O35 C39 1.252 . S
O36 Mg31 2.032 . S
O36 C39 1.259 . S
O37 Mg28 2.114 . S
O37 C40 1.252 . S
O38 Mg28 2.251 1_545 S
O38 Mg31 2.079 . S
O38 C40 1.273 1_545 S
C39 O35 1.252 . S
C39 O36 1.259 . S
C40 O37 1.252 . S
C40 O38 1.273 1_565 S
O41 Mg28 2.010 1_554 S
O41 C33 1.249 . S
Mg42 O43 2.028 1_654 S
Mg42 O49 1.986 1_655 S
Mg42 O51 2.114 . S
Mg42 O52 2.251 1_655 S
Mg42 O55 2.010 . S
O43 Mg42 2.028 1_456 S
O43 C46 1.251 . S
O44 Mg45 2.028 1_556 S
O44 C46 1.248 . S
Mg45 O44 2.028 1_554 S
Mg45 O50 2.032 . S
Mg45 O52 2.079 . S
C46 O43 1.251 . S
C46 O44 1.248 . S
C47 O48 1.264 . S
C47 O55 1.249 . S
O48 C47 1.264 . S
O49 Mg42 1.986 1_455 S
O49 C53 1.246 . S
O50 Mg45 2.032 . S
O50 C53 1.259 . S
O51 Mg42 2.114 . S
O51 C54 1.252 . S
O52 Mg42 2.251 1_455 S
O52 Mg45 2.079 . S
O52 C54 1.273 1_455 S
C53 O49 1.246 . S
C53 O50 1.259 . S
C54 O51 1.252 . S
C54 O52 1.273 1_655 S
O55 Mg42 2.010 . S
O55 C47 1.249 . S
Mg56 O57 2.010 1_556 S
Mg56 O63 1.986 . S
Mg56 O65 2.121 . S
Mg56 O66 2.264 . S
Mg56 O69 2.002 1_556 S
O57 Mg56 2.010 1_554 S
O57 C60 1.250 . S
O58 Mg59 2.028 1_554 S
O58 C60 1.248 . S
Mg59 O58 2.028 1_556 S
Mg59 O64 2.032 . S
Mg59 O66 2.079 . S
C60 O57 1.250 . S
C60 O58 1.248 . S
C61 O62 1.264 . S
C61 O69 1.249 . S
O62 C61 1.264 . S
O63 Mg56 1.986 . S
O63 C67 1.246 . S
O64 Mg59 2.032 . S
O64 C67 1.259 . S
O65 Mg56 2.121 . S
O65 C68 1.252 . S
O66 Mg56 2.264 . S
O66 Mg59 2.079 . S
O66 C68 1.273 . S
C67 O63 1.246 . S
C67 O64 1.259 . S
C68 O65 1.252 . S
C68 O66 1.273 . S
O69 Mg56 2.002 1_554 S
O69 C61 1.249 . S
Mg70 O71 2.028 1_554 S
Mg70 O77 1.986 1_545 S
Mg70 O79 2.114 . S
Mg70 O80 2.251 1_545 S
Mg70 O83 2.010 . S
O71 Mg70 2.028 1_556 S
O71 C74 1.250 1_545 S
O72 Mg73 2.027 1_556 S
O72 C74 1.249 . S
Mg73 O72 2.027 1_554 S
Mg73 O78 2.032 . S
Mg73 O80 2.079 . S
C74 O71 1.250 1_565 S
C74 O72 1.249 . S
C75 O76 1.264 . S
C75 O83 1.249 . S
O76 C75 1.264 . S
O77 Mg70 1.986 1_565 S
O77 C81 1.246 . S
O78 Mg73 2.032 . S
O78 C81 1.259 . S
O79 Mg70 2.114 . S
O79 C82 1.252 . S
O80 Mg70 2.251 1_565 S
O80 Mg73 2.079 . S
O80 C82 1.273 1_565 S
C81 O77 1.246 . S
C81 O78 1.259 . S
C82 O79 1.252 . S
C82 O80 1.273 1_545 S
O83 Mg70 2.010 . S
O83 C75 1.249 . S
Mg84 O85 2.028 . S
Mg84 O91 1.986 . S
Mg84 O93 2.114 . S
Mg84 O94 2.251 . S
Mg84 O97 2.010 . S
O85 Mg84 2.028 . S
O85 C88 1.250 . S
O86 Mg87 2.028 . S
O86 C88 1.248 . S
Mg87 O86 2.028 . S
Mg87 O92 2.032 . S
Mg87 O94 2.079 . S
C88 O85 1.250 . S
C88 O86 1.248 . S
C89 O90 1.264 . S
C89 O97 1.249 . S
O90 C89 1.264 . S
O91 Mg84 1.986 . S
O91 C95 1.246 . S
O92 Mg87 2.032 . S
O92 C95 1.259 . S
O93 Mg84 2.114 . S
O93 C96 1.252 . S
O94 Mg84 2.251 . S
O94 Mg87 2.079 . S
O94 C96 1.273 . S
C95 O91 1.246 . S
C95 O92 1.259 . S
C96 O93 1.252 . S
C96 O94 1.273 . S
O97 Mg84 2.010 . S
O97 C89 1.249 . S
Mg98 O99 2.028 . S
Mg98 O105 1.986 1_565 S
Mg98 O107 2.114 . S
Mg98 O108 2.251 . S
Mg98 O111 2.010 . S
O99 Mg98 2.028 . S
O99 C102 1.250 . S
O100 Mg101 2.028 . S
O100 C102 1.248 . S
Mg101 O100 2.028 . S
Mg101 O106 2.032 1_565 S
Mg101 O108 2.079 . S
C102 O99 1.250 . S
C102 O100 1.248 . S
C103 O104 1.264 . S
C103 O111 1.249 . S
O104 C103 1.264 . S
O105 Mg98 1.986 1_545 S
O105 C109 1.246 . S
O106 Mg101 2.032 1_545 S
O106 C109 1.259 . S
O107 Mg98 2.114 . S
O107 C110 1.252 . S
O108 Mg98 2.251 . S
O108 Mg101 2.079 . S
O108 C110 1.273 . S
C109 O105 1.246 . S
C109 O106 1.259 . S
C110 O107 1.252 . S
C110 O108 1.273 . S
O111 Mg98 2.010 . S
O111 C103 1.249 . S
Mg112 O113 2.028 . S
Mg112 O119 1.986 . S
Mg112 O121 2.114 . S
Mg112 O122 2.251 . S
Mg112 O125 2.010 1_455 S
O113 Mg112 2.028 . S
O113 C116 1.250 . S
O114 Mg115 2.028 . S
O114 C116 1.248 . S
Mg115 O114 2.028 . S
Mg115 O120 2.032 . S
Mg115 O122 2.079 . S
C116 O113 1.250 . S
C116 O114 1.248 . S
C117 O118 1.264 . S
C117 O125 1.249 . S
O118 C117 1.264 . S
O119 Mg112 1.986 . S
O119 C123 1.246 . S
O120 Mg115 2.032 . S
O120 C123 1.259 . S
O121 Mg112 2.114 . S
O121 C124 1.252 . S
O122 Mg112 2.251 . S
O122 Mg115 2.079 . S
O122 C124 1.273 . S
C123 O119 1.246 . S
C123 O120 1.259 . S
C124 O121 1.252 . S
C124 O122 1.273 . S
O125 Mg112 2.010 1_655 S
O125 C117 1.249 . S
Mg126 O127 2.028 . S
Mg126 O133 1.986 1_565 S
Mg126 O135 2.114 . S
Mg126 O136 2.251 . S
Mg126 O139 2.010 . S
O127 Mg126 2.028 . S
O127 C130 1.250 . S
O128 Mg129 2.028 . S
O128 C130 1.248 . S
Mg129 O128 2.028 . S
Mg129 O134 2.032 1_565 S
Mg129 O136 2.079 . S
C130 O127 1.250 . S
C130 O128 1.248 . S
C131 O132 1.264 . S
C131 O139 1.249 . S
O132 C131 1.264 . S
O133 Mg126 1.986 1_545 S
O133 C137 1.246 . S
O134 Mg129 2.032 1_545 S
O134 C137 1.259 . S
O135 Mg126 2.114 . S
O135 C138 1.252 . S
O136 Mg126 2.251 . S
O136 Mg129 2.079 . S
O136 C138 1.273 . S
C137 O133 1.246 . S
C137 O134 1.259 . S
C138 O135 1.252 . S
C138 O136 1.273 . S
O139 Mg126 2.010 . S
O139 C131 1.249 . S
Mg140 O141 2.028 . S
Mg140 O147 1.986 . S
Mg140 O149 2.114 . S
Mg140 O150 2.251 . S
Mg140 O153 2.010 1_455 S
O141 Mg140 2.028 . S
O141 C144 1.250 . S
O142 Mg143 2.028 . S
O142 C144 1.248 . S
Mg143 O142 2.028 . S
Mg143 O148 2.032 . S
Mg143 O150 2.079 . S
C144 O141 1.250 . S
C144 O142 1.248 . S
C145 O146 1.264 . S
C145 O153 1.249 . S
O146 C145 1.264 . S
O147 Mg140 1.986 . S
O147 C151 1.246 . S
O148 Mg143 2.032 . S
O148 C151 1.259 . S
O149 Mg140 2.114 . S
O149 C152 1.252 . S
O150 Mg140 2.251 . S
O150 Mg143 2.079 . S
O150 C152 1.273 . S
C151 O147 1.246 . S
C151 O148 1.259 . S
C152 O149 1.252 . S
C152 O150 1.273 . S
O153 Mg140 2.010 1_655 S
O153 C145 1.249 . S
Mg154 O155 2.028 . S
Mg154 O161 1.986 . S
Mg154 O163 2.114 . S
Mg154 O164 2.251 . S
Mg154 O167 2.010 . S
O155 Mg154 2.028 . S
O155 C158 1.250 . S
O156 Mg157 2.028 . S
O156 C158 1.248 . S
Mg157 O156 2.028 . S
Mg157 O162 2.032 . S
Mg157 O164 2.079 . S
C158 O155 1.250 . S
C158 O156 1.248 . S
C159 O160 1.264 . S
C159 O167 1.249 . S
O160 C159 1.264 . S
O161 Mg154 1.986 . S
O161 C165 1.246 . S
O162 Mg157 2.032 . S
O162 C165 1.259 . S
O163 Mg154 2.114 . S
O163 C166 1.252 . S
O164 Mg154 2.251 . S
O164 Mg157 2.079 . S
O164 C166 1.273 . S
C165 O161 1.246 . S
C165 O162 1.259 . S
C166 O163 1.252 . S
C166 O164 1.273 . S
O167 Mg154 2.010 . S
O167 C159 1.249 . S
Mg168 O169 2.028 . S
Mg168 O175 1.986 1_545 S
Mg168 O177 2.114 . S
Mg168 O178 2.251 . S
Mg168 O181 2.010 . S
O169 Mg168 2.028 . S
O169 C172 1.250 . S
O170 Mg171 2.028 . S
O170 C172 1.248 . S
Mg171 O170 2.028 . S
Mg171 O176 2.032 1_545 S
Mg171 O178 2.079 . S
C172 O169 1.250 . S
C172 O170 1.248 . S
C173 O174 1.264 . S
C173 O181 1.249 . S
O174 C173 1.264 . S
O175 Mg168 1.986 1_565 S
O175 C179 1.246 . S
O176 Mg171 2.032 1_565 S
O176 C179 1.259 . S
O177 Mg168 2.114 . S
O177 C180 1.252 . S
O178 Mg168 2.251 . S
O178 Mg171 2.079 . S
O178 C180 1.273 . S
C179 O175 1.246 . S
C179 O176 1.259 . S
C180 O177 1.252 . S
C180 O178 1.273 . S
O181 Mg168 2.010 . S
O181 C173 1.249 . S
Mg182 O183 2.028 . S
Mg182 O189 1.986 . S
Mg182 O191 2.114 . S
Mg182 O192 2.251 . S
Mg182 O195 2.010 1_655 S
O183 Mg182 2.028 . S
O183 C186 1.250 . S
O184 Mg185 2.028 . S
O184 C186 1.248 . S
Mg185 O184 2.028 . S
Mg185 O190 2.032 . S
Mg185 O192 2.079 . S
C186 O183 1.250 . S
C186 O184 1.248 . S
C187 O188 1.264 . S
C187 O195 1.249 . S
O188 C187 1.264 . S
O189 Mg182 1.986 . S
O189 C193 1.246 . S
O190 Mg185 2.032 . S
O190 C193 1.259 . S
O191 Mg182 2.114 . S
O191 C194 1.252 . S
O192 Mg182 2.251 . S
O192 Mg185 2.079 . S
O192 C194 1.273 . S
C193 O189 1.246 . S
C193 O190 1.259 . S
C194 O191 1.252 . S
C194 O192 1.273 . S
O195 Mg182 2.010 1_455 S
O195 C187 1.249 . S
Mg196 O197 2.028 . S
Mg196 O203 1.986 . S
Mg196 O205 2.114 . S
Mg196 O206 2.251 . S
Mg196 O209 2.010 . S
O197 Mg196 2.028 . S
O197 C200 1.250 . S
O198 Mg199 2.028 . S
O198 C200 1.248 . S
Mg199 O198 2.028 . S
Mg199 O204 2.032 . S
Mg199 O206 2.079 . S
C200 O197 1.250 . S
C200 O198 1.248 . S
C201 O202 1.264 . S
C201 O209 1.249 . S
O202 C201 1.264 . S
O203 Mg196 1.986 . S
O203 C207 1.246 . S
O204 Mg199 2.032 . S
O204 C207 1.259 . S
O205 Mg196 2.114 . S
O205 C208 1.252 . S
O206 Mg196 2.251 . S
O206 Mg199 2.079 . S
O206 C208 1.273 . S
C207 O203 1.246 . S
C207 O204 1.259 . S
C208 O205 1.252 . S
C208 O206 1.273 . S
O209 Mg196 2.010 . S
O209 C201 1.249 . S
Mg210 O211 2.028 . S
Mg210 O217 1.986 . S
Mg210 O219 2.114 . S
Mg210 O220 2.251 . S
Mg210 O223 2.010 . S
O211 Mg210 2.028 . S
O211 C214 1.250 . S
O212 Mg213 2.028 . S
O212 C214 1.248 . S
Mg213 O212 2.028 . S
Mg213 O218 2.032 . S
Mg213 O220 2.079 . S
C214 O211 1.250 . S
C214 O212 1.248 . S
C215 O216 1.264 . S
C215 O223 1.249 . S
O216 C215 1.264 . S
O217 Mg210 1.986 . S
O217 C221 1.246 . S
O218 Mg213 2.032 . S
O218 C221 1.259 . S
O219 Mg210 2.114 . S
O219 C222 1.252 . S
O220 Mg210 2.251 . S
O220 Mg213 2.079 . S
O220 C222 1.273 . S
C221 O217 1.246 . S
C221 O218 1.259 . S
C222 O219 1.252 . S
C222 O220 1.273 . S
O223 Mg210 2.010 . S
O223 C215 1.249 . S
Mg224 O225 2.028 . S
Mg224 O231 1.986 1_545 S
Mg224 O233 2.114 . S
Mg224 O234 2.251 . S
Mg224 O237 2.010 . S
O225 Mg224 2.028 . S
O225 C228 1.250 . S
O226 Mg227 2.028 . S
O226 C228 1.248 . S
Mg227 O226 2.028 . S
Mg227 O232 2.032 1_545 S
Mg227 O234 2.079 . S
C228 O225 1.250 . S
C228 O226 1.248 . S
C229 O230 1.264 . S
C229 O237 1.249 . S
O230 C229 1.264 . S
O231 Mg224 1.986 1_565 S
O231 C235 1.246 . S
O232 Mg227 2.032 1_565 S
O232 C235 1.259 . S
O233 Mg224 2.114 . S
O233 C236 1.252 . S
O234 Mg224 2.251 . S
O234 Mg227 2.079 . S
O234 C236 1.273 . S
C235 O231 1.246 . S
C235 O232 1.259 . S
C236 O233 1.252 . S
C236 O234 1.273 . S
O237 Mg224 2.010 . S
O237 C229 1.249 . S
Mg238 O239 2.028 . S
Mg238 O245 1.986 . S
Mg238 O247 2.114 . S
Mg238 O248 2.251 . S
Mg238 O251 2.010 1_655 S
O239 Mg238 2.028 . S
O239 C242 1.250 . S
O240 Mg241 2.028 . S
O240 C242 1.248 . S
Mg241 O240 2.028 . S
Mg241 O246 2.032 . S
Mg241 O248 2.079 . S
C242 O239 1.250 . S
C242 O240 1.248 . S
C243 O244 1.264 . S
C243 O251 1.249 . S
O244 C243 1.264 . S
O245 Mg238 1.986 . S
O245 C249 1.246 . S
O246 Mg241 2.032 . S
O246 C249 1.259 . S
O247 Mg238 2.114 . S
O247 C250 1.252 . S
O248 Mg238 2.251 . S
O248 Mg241 2.079 . S
O248 C250 1.273 . S
C249 O245 1.246 . S
C249 O246 1.259 . S
C250 O247 1.252 . S
C250 O248 1.273 . S
O251 Mg238 2.010 1_455 S
O251 C243 1.249 . S
H252 C271 0.949 . S
H253 C272 0.950 . S
H254 C274 0.950 . S
H255 C275 0.950 . S
H256 C277 0.950 . S
H257 C280 0.950 . S
H258 C281 0.950 . S
H259 C283 0.951 . S
H260 C284 0.949 . S
H261 C286 0.949 . S
H262 C287 0.950 . S
H263 C289 0.950 . S
H264 C290 0.950 . S
H265 C292 0.950 . S
H266 C295 0.950 . S
H267 C296 0.950 . S
H268 C298 0.951 . S
H269 C299 0.949 . S
C270 C271 1.376 . S
C270 C275 1.386 . S
C270 C276 1.483 . S
C271 H252 0.949 . S
C271 C270 1.376 . S
C271 C272 1.397 . S
C272 H253 0.950 . S
C272 C271 1.397 . S
C272 C273 1.391 . S
C273 C272 1.391 . S
C273 C274 1.405 . S
C274 H254 0.950 . S
C274 C273 1.405 . S
C274 C275 1.367 . S
C275 H255 0.950 . S
C275 C270 1.386 . S
C275 C274 1.367 . S
C276 C270 1.483 . S
C276 C277 1.382 . S
C276 C278 1.403 . S
C277 H256 0.950 . S
C277 C276 1.382 . S
C277 C293 1.411 . S
C278 C276 1.403 . S
C278 C279 1.489 . S
C278 C292 1.411 . S
C279 C278 1.489 . S
C279 C280 1.383 . S
C279 C284 1.382 . S
C280 H257 0.950 . S
C280 C279 1.383 . S
C280 C281 1.395 . S
C281 H258 0.950 . S
C281 C280 1.395 . S
C281 C282 1.288 . S
C282 C281 1.288 . S
C282 C283 1.392 . S
C283 H259 0.951 . S
C283 C282 1.392 . S
C283 C284 1.392 . S
C284 H260 0.949 . S
C284 C279 1.382 . S
C284 C283 1.392 . S
C285 C286 1.376 . S
C285 C290 1.386 . S
C285 C291 1.483 . S
C286 H261 0.949 . S
C286 C285 1.376 . S
C286 C287 1.397 . S
C287 H262 0.950 . S
C287 C286 1.397 . S
C287 C288 1.391 . S
C288 C287 1.391 . S
C288 C289 1.405 . S
C289 H263 0.950 . S
C289 C288 1.405 . S
C289 C290 1.367 . S
C290 H264 0.950 . S
C290 C285 1.386 . S
C290 C289 1.367 . S
C291 C285 1.483 . S
C291 C292 1.382 . S
C291 C293 1.403 . S
C292 H265 0.950 . S
C292 C278 1.411 . S
C292 C291 1.382 . S
C293 C277 1.411 . S
C293 C291 1.403 . S
C293 C294 1.489 . S
C294 C293 1.489 . S
C294 C295 1.383 . S
C294 C299 1.382 . S
C295 H266 0.950 . S
C295 C294 1.383 . S
C295 C296 1.395 . S
C296 H267 0.950 . S
C296 C295 1.395 . S
C296 C297 1.288 . S
C297 C296 1.288 . S
C297 C298 1.392 . S
C298 H268 0.951 . S
C298 C297 1.392 . S
C298 C299 1.392 . S
C299 H269 0.949 . S
C299 C294 1.382 . S
C299 C298 1.392 . S
H300 C319 0.949 . S
H301 C320 0.950 . S
H302 C322 0.950 . S
H303 C323 0.950 . S
H304 C325 0.950 . S
H305 C328 0.950 . S
H306 C329 0.950 . S
H307 C331 0.951 . S
H308 C332 0.949 . S
H309 C334 0.949 . S
H310 C335 0.950 . S
H311 C337 0.950 . S
H312 C338 0.950 . S
H313 C340 0.950 . S
H314 C343 0.950 . S
H315 C344 0.950 . S
H316 C346 0.951 . S
H317 C347 0.949 . S
C318 C319 1.376 . S
C318 C323 1.386 . S
C318 C324 1.483 . S
C319 H300 0.949 . S
C319 C318 1.376 . S
C319 C320 1.397 . S
C320 H301 0.950 . S
C320 C319 1.397 . S
C320 C321 1.391 . S
C321 C320 1.391 . S
C321 C322 1.405 . S
C322 H302 0.950 . S
C322 C321 1.405 . S
C322 C323 1.367 . S
C323 H303 0.950 . S
C323 C318 1.386 . S
C323 C322 1.367 . S
C324 C318 1.483 . S
C324 C325 1.382 . S
C324 C326 1.403 . S
C325 H304 0.950 . S
C325 C324 1.382 . S
C325 C341 1.411 . S
C326 C324 1.403 . S
C326 C327 1.489 . S
C326 C340 1.411 . S
C327 C326 1.489 . S
C327 C328 1.383 . S
C327 C332 1.382 . S
C328 H305 0.950 . S
C328 C327 1.383 . S
C328 C329 1.395 . S
C329 H306 0.950 . S
C329 C328 1.395 . S
C329 C330 1.288 . S
C330 C329 1.288 . S
C330 C331 1.392 . S
C331 H307 0.951 . S
C331 C330 1.392 . S
C331 C332 1.392 . S
C332 H308 0.949 . S
C332 C327 1.382 . S
C332 C331 1.392 . S
C333 C334 1.376 . S
C333 C338 1.386 . S
C333 C339 1.483 . S
C334 H309 0.949 . S
C334 C333 1.376 . S
C334 C335 1.397 . S
C335 H310 0.950 . S
C335 C334 1.397 . S
C335 C336 1.391 . S
C336 C335 1.391 . S
C336 C337 1.405 . S
C337 H311 0.950 . S
C337 C336 1.405 . S
C337 C338 1.367 . S
C338 H312 0.950 . S
C338 C333 1.386 . S
C338 C337 1.367 . S
C339 C333 1.483 . S
C339 C340 1.382 . S
C339 C341 1.403 . S
C340 H313 0.950 . S
C340 C326 1.411 . S
C340 C339 1.382 . S
C341 C325 1.411 . S
C341 C339 1.403 . S
C341 C342 1.489 . S
C342 C341 1.489 . S
C342 C343 1.383 . S
C342 C347 1.382 . S
C343 H314 0.950 . S
C343 C342 1.383 . S
C343 C344 1.395 . S
C344 H315 0.950 . S
C344 C343 1.395 . S
C344 C345 1.288 . S
C345 C344 1.288 . S
C345 C346 1.392 . S
C346 H316 0.951 . S
C346 C345 1.392 . S
C346 C347 1.392 . S
C347 H317 0.949 . S
C347 C342 1.382 . S
C347 C346 1.392 . S
H348 C367 0.949 . S
H349 C368 0.950 . S
H350 C370 0.950 . S
H351 C371 0.950 . S
H352 C373 0.950 . S
H353 C376 0.950 . S
H354 C377 0.950 . S
H355 C379 0.951 . S
H356 C380 0.949 . S
H357 C382 0.949 . S
H358 C383 0.950 . S
H359 C385 0.950 . S
H360 C386 0.950 . S
H361 C388 0.950 . S
H362 C391 0.950 . S
H363 C392 0.950 . S
H364 C394 0.951 . S
H365 C395 0.949 . S
C366 C367 1.376 . S
C366 C371 1.386 . S
C366 C372 1.483 . S
C367 H348 0.949 . S
C367 C366 1.376 . S
C367 C368 1.397 . S
C368 H349 0.950 . S
C368 C367 1.397 . S
C368 C369 1.391 . S
C369 C368 1.391 . S
C369 C370 1.405 . S
C370 H350 0.950 . S
C370 C369 1.405 . S
C370 C371 1.367 . S
C371 H351 0.950 . S
C371 C366 1.386 . S
C371 C370 1.367 . S
C372 C366 1.483 . S
C372 C373 1.382 . S
C372 C374 1.403 . S
C373 H352 0.950 . S
C373 C372 1.382 . S
C373 C389 1.411 . S
C374 C372 1.403 . S
C374 C375 1.489 . S
C374 C388 1.411 . S
C375 C374 1.489 . S
C375 C376 1.383 . S
C375 C380 1.382 . S
C376 H353 0.950 . S
C376 C375 1.383 . S
C376 C377 1.395 . S
C377 H354 0.950 . S
C377 C376 1.395 . S
C377 C378 1.288 . S
C378 C377 1.288 . S
C378 C379 1.392 . S
C379 H355 0.951 . S
C379 C378 1.392 . S
C379 C380 1.392 . S
C380 H356 0.949 . S
C380 C375 1.382 . S
C380 C379 1.392 . S
C381 C382 1.376 . S
C381 C386 1.386 . S
C381 C387 1.483 . S
C382 H357 0.949 . S
C382 C381 1.376 . S
C382 C383 1.397 . S
C383 H358 0.950 . S
C383 C382 1.397 . S
C383 C384 1.391 . S
C384 C383 1.391 . S
C384 C385 1.405 . S
C385 H359 0.950 . S
C385 C384 1.405 . S
C385 C386 1.367 . S
C386 H360 0.950 . S
C386 C381 1.386 . S
C386 C385 1.367 . S
C387 C381 1.483 . S
C387 C388 1.382 . S
C387 C389 1.403 . S
C388 H361 0.950 . S
C388 C374 1.411 . S
C388 C387 1.382 . S
C389 C373 1.411 . S
C389 C387 1.403 . S
C389 C390 1.489 . S
C390 C389 1.489 . S
C390 C391 1.383 . S
C390 C395 1.382 . S
C391 H362 0.950 . S
C391 C390 1.383 . S
C391 C392 1.395 . S
C392 H363 0.950 . S
C392 C391 1.395 . S
C392 C393 1.288 . S
C393 C392 1.288 . S
C393 C394 1.392 . S
C394 H364 0.951 . S
C394 C393 1.392 . S
C394 C395 1.392 . S
C395 H365 0.949 . S
C395 C390 1.382 . S
C395 C394 1.392 . S
H396 C415 0.949 . S
H397 C416 0.950 . S
H398 C418 0.950 . S
H399 C419 0.950 . S
H400 C421 0.950 . S
H401 C424 0.950 . S
H402 C425 0.950 . S
H403 C427 0.951 . S
H404 C428 0.949 . S
H405 C430 0.949 . S
H406 C431 0.950 . S
H407 C433 0.950 . S
H408 C434 0.950 . S
H409 C436 0.950 . S
H410 C439 0.950 . S
H411 C440 0.950 . S
H412 C442 0.951 . S
H413 C443 0.949 . S
C414 C415 1.376 . S
C414 C419 1.386 . S
C414 C420 1.483 . S
C415 H396 0.949 . S
C415 C414 1.376 . S
C415 C416 1.397 . S
C416 H397 0.950 . S
C416 C415 1.397 . S
C416 C417 1.391 . S
C417 C416 1.391 . S
C417 C418 1.405 . S
C418 H398 0.950 . S
C418 C417 1.405 . S
C418 C419 1.367 . S
C419 H399 0.950 . S
C419 C414 1.386 . S
C419 C418 1.367 . S
C420 C414 1.483 . S
C420 C421 1.382 . S
C420 C422 1.403 . S
C421 H400 0.950 . S
C421 C420 1.382 . S
C421 C437 1.411 . S
C422 C420 1.403 . S
C422 C423 1.489 . S
C422 C436 1.411 . S
C423 C422 1.489 . S
C423 C424 1.383 . S
C423 C428 1.382 . S
C424 H401 0.950 . S
C424 C423 1.383 . S
C424 C425 1.395 . S
C425 H402 0.950 . S
C425 C424 1.395 . S
C425 C426 1.288 . S
C426 C425 1.288 . S
C426 C427 1.392 . S
C427 H403 0.951 . S
C427 C426 1.392 . S
C427 C428 1.392 . S
C428 H404 0.949 . S
C428 C423 1.382 . S
C428 C427 1.392 . S
C429 C430 1.376 . S
C429 C434 1.386 . S
C429 C435 1.483 . S
C430 H405 0.949 . S
C430 C429 1.376 . S
C430 C431 1.397 . S
C431 H406 0.950 . S
C431 C430 1.397 . S
C431 C432 1.391 . S
C432 C431 1.391 . S
C432 C433 1.405 . S
C433 H407 0.950 . S
C433 C432 1.405 . S
C433 C434 1.367 . S
C434 H408 0.950 . S
C434 C429 1.386 . S
C434 C433 1.367 . S
C435 C429 1.483 . S
C435 C436 1.382 . S
C435 C437 1.403 . S
C436 H409 0.950 . S
C436 C422 1.411 . S
C436 C435 1.382 . S
C437 C421 1.411 . S
C437 C435 1.403 . S
C437 C438 1.489 . S
C438 C437 1.489 . S
C438 C439 1.383 . S
C438 C443 1.382 . S
C439 H410 0.950 . S
C439 C438 1.383 . S
C439 C440 1.395 . S
C440 H411 0.950 . S
C440 C439 1.395 . S
C440 C441 1.288 . S
C441 C440 1.288 . S
C441 C442 1.392 . S
C442 H412 0.951 . S
C442 C441 1.392 . S
C442 C443 1.392 . S
C443 H413 0.949 . S
C443 C438 1.382 . S
C443 C442 1.392 . S
H444 C463 0.949 . S
H445 C464 0.950 . S
H446 C466 0.950 . S
H447 C467 0.950 . S
H448 C469 0.950 . S
H449 C472 0.950 . S
H450 C473 0.950 . S
H451 C475 0.951 . S
H452 C476 0.949 . S
H453 C478 0.949 . S
H454 C479 0.950 . S
H455 C481 0.950 . S
H456 C482 0.950 . S
H457 C484 0.950 . S
H458 C487 0.950 . S
H459 C488 0.950 . S
H460 C490 0.951 . S
H461 C491 0.949 . S
C462 C463 1.376 . S
C462 C467 1.386 . S
C462 C468 1.483 . S
C463 H444 0.949 . S
C463 C462 1.376 . S
C463 C464 1.397 . S
C464 H445 0.950 . S
C464 C463 1.397 . S
C464 C465 1.391 . S
C465 C464 1.391 . S
C465 C466 1.405 . S
C466 H446 0.950 . S
C466 C465 1.405 . S
C466 C467 1.367 . S
C467 H447 0.950 . S
C467 C462 1.386 . S
C467 C466 1.367 . S
C468 C462 1.483 . S
C468 C469 1.382 . S
C468 C470 1.403 . S
C469 H448 0.950 . S
C469 C468 1.382 . S
C469 C485 1.411 . S
C470 C468 1.403 . S
C470 C471 1.489 . S
C470 C484 1.411 . S
C471 C470 1.489 . S
C471 C472 1.383 . S
C471 C476 1.382 . S
C472 H449 0.950 . S
C472 C471 1.383 . S
C472 C473 1.395 . S
C473 H450 0.950 . S
C473 C472 1.395 . S
C473 C474 1.288 . S
C474 C473 1.288 . S
C474 C475 1.392 . S
C475 H451 0.951 . S
C475 C474 1.392 . S
C475 C476 1.392 . S
C476 H452 0.949 . S
C476 C471 1.382 . S
C476 C475 1.392 . S
C477 C478 1.376 . S
C477 C482 1.386 . S
C477 C483 1.483 . S
C478 H453 0.949 . S
C478 C477 1.376 . S
C478 C479 1.397 . S
C479 H454 0.950 . S
C479 C478 1.397 . S
C479 C480 1.391 . S
C480 C479 1.391 . S
C480 C481 1.405 . S
C481 H455 0.950 . S
C481 C480 1.405 . S
C481 C482 1.367 . S
C482 H456 0.950 . S
C482 C477 1.386 . S
C482 C481 1.367 . S
C483 C477 1.483 . S
C483 C484 1.382 . S
C483 C485 1.403 . S
C484 H457 0.950 . S
C484 C470 1.411 . S
C484 C483 1.382 . S
C485 C469 1.411 . S
C485 C483 1.403 . S
C485 C486 1.489 . S
C486 C485 1.489 . S
C486 C487 1.383 . S
C486 C491 1.382 . S
C487 H458 0.950 . S
C487 C486 1.383 . S
C487 C488 1.395 . S
C488 H459 0.950 . S
C488 C487 1.395 . S
C488 C489 1.288 . S
C489 C488 1.288 . S
C489 C490 1.392 . S
C490 H460 0.951 . S
C490 C489 1.392 . S
C490 C491 1.392 . S
C491 H461 0.949 . S
C491 C486 1.382 . S
C491 C490 1.392 . S
H492 C511 0.949 . S
H493 C512 0.950 . S
H494 C514 0.950 . S
H495 C515 0.950 . S
H496 C517 0.950 . S
H497 C520 0.950 . S
H498 C521 0.950 . S
H499 C523 0.951 . S
H500 C524 0.949 . S
H501 C526 0.949 . S
H502 C527 0.950 . S
H503 C529 0.950 . S
H504 C530 0.950 . S
H505 C532 0.950 . S
H506 C535 0.950 . S
H507 C536 0.950 . S
H508 C538 0.951 . S
H509 C539 0.949 . S
C510 C511 1.376 . S
C510 C515 1.386 . S
C510 C516 1.483 . S
C511 H492 0.949 . S
C511 C510 1.376 . S
C511 C512 1.397 . S
C512 H493 0.950 . S
C512 C511 1.397 . S
C512 C513 1.391 . S
C513 C512 1.391 . S
C513 C514 1.405 . S
C514 H494 0.950 . S
C514 C513 1.405 . S
C514 C515 1.367 . S
C515 H495 0.950 . S
C515 C510 1.386 . S
C515 C514 1.367 . S
C516 C510 1.483 . S
C516 C517 1.382 . S
C516 C518 1.403 . S
C517 H496 0.950 . S
C517 C516 1.382 . S
C517 C533 1.411 . S
C518 C516 1.403 . S
C518 C519 1.489 . S
C518 C532 1.411 . S
C519 C518 1.489 . S
C519 C520 1.383 . S
C519 C524 1.382 . S
C520 H497 0.950 . S
C520 C519 1.383 . S
C520 C521 1.395 . S
C521 H498 0.950 . S
C521 C520 1.395 . S
C521 C522 1.288 . S
C522 C521 1.288 . S
C522 C523 1.392 . S
C523 H499 0.951 . S
C523 C522 1.392 . S
C523 C524 1.392 . S
C524 H500 0.949 . S
C524 C519 1.382 . S
C524 C523 1.392 . S
C525 C526 1.376 . S
C525 C530 1.386 . S
C525 C531 1.483 . S
C526 H501 0.949 . S
C526 C525 1.376 . S
C526 C527 1.397 . S
C527 H502 0.950 . S
C527 C526 1.397 . S
C527 C528 1.391 . S
C528 C527 1.391 . S
C528 C529 1.405 . S
C529 H503 0.950 . S
C529 C528 1.405 . S
C529 C530 1.367 . S
C530 H504 0.950 . S
C530 C525 1.386 . S
C530 C529 1.367 . S
C531 C525 1.483 . S
C531 C532 1.382 . S
C531 C533 1.403 . S
C532 H505 0.950 . S
C532 C518 1.411 . S
C532 C531 1.382 . S
C533 C517 1.411 . S
C533 C531 1.403 . S
C533 C534 1.489 . S
C534 C533 1.489 . S
C534 C535 1.383 . S
C534 C539 1.382 . S
C535 H506 0.950 . S
C535 C534 1.383 . S
C535 C536 1.395 . S
C536 H507 0.950 . S
C536 C535 1.395 . S
C536 C537 1.288 . S
C537 C536 1.288 . S
C537 C538 1.392 . S
C538 H508 0.951 . S
C538 C537 1.392 . S
C538 C539 1.392 . S
C539 H509 0.949 . S
C539 C534 1.382 . S
C539 C538 1.392 . S
H540 C559 0.949 . S
H541 C560 0.950 . S
H542 C562 0.950 . S
H543 C563 0.950 . S
H544 C565 0.950 . S
H545 C568 0.950 . S
H546 C569 0.950 . S
H547 C571 0.951 . S
H548 C572 0.949 . S
H549 C574 0.949 . S
H550 C575 0.950 . S
H551 C577 0.950 . S
H552 C578 0.950 . S
H553 C580 0.950 . S
H554 C583 0.950 . S
H555 C584 0.950 . S
H556 C586 0.951 . S
H557 C587 0.949 . S
C558 C559 1.376 . S
C558 C563 1.386 . S
C558 C564 1.483 . S
C559 H540 0.949 . S
C559 C558 1.376 . S
C559 C560 1.397 . S
C560 H541 0.950 . S
C560 C559 1.397 . S
C560 C561 1.391 . S
C561 C560 1.391 . S
C561 C562 1.405 . S
C562 H542 0.950 . S
C562 C561 1.405 . S
C562 C563 1.367 . S
C563 H543 0.950 . S
C563 C558 1.386 . S
C563 C562 1.367 . S
C564 C558 1.483 . S
C564 C565 1.382 . S
C564 C566 1.403 . S
C565 H544 0.950 . S
C565 C564 1.382 . S
C565 C581 1.411 . S
C566 C564 1.403 . S
C566 C567 1.489 . S
C566 C580 1.411 . S
C567 C566 1.489 . S
C567 C568 1.383 . S
C567 C572 1.382 . S
C568 H545 0.950 . S
C568 C567 1.383 . S
C568 C569 1.395 . S
C569 H546 0.950 . S
C569 C568 1.395 . S
C569 C570 1.288 . S
C570 C569 1.288 . S
C570 C571 1.392 . S
C571 H547 0.951 . S
C571 C570 1.392 . S
C571 C572 1.392 . S
C572 H548 0.949 . S
C572 C567 1.382 . S
C572 C571 1.392 . S
C573 C574 1.376 . S
C573 C578 1.386 . S
C573 C579 1.483 . S
C574 H549 0.949 . S
C574 C573 1.376 . S
C574 C575 1.397 . S
C575 H550 0.950 . S
C575 C574 1.397 . S
C575 C576 1.391 . S
C576 C575 1.391 . S
C576 C577 1.405 . S
C577 H551 0.950 . S
C577 C576 1.405 . S
C577 C578 1.367 . S
C578 H552 0.950 . S
C578 C573 1.386 . S
C578 C577 1.367 . S
C579 C573 1.483 . S
C579 C580 1.382 . S
C579 C581 1.403 . S
C580 H553 0.950 . S
C580 C566 1.411 . S
C580 C579 1.382 . S
C581 C565 1.411 . S
C581 C579 1.403 . S
C581 C582 1.489 . S
C582 C581 1.489 . S
C582 C583 1.383 . S
C582 C587 1.382 . S
C583 H554 0.950 . S
C583 C582 1.383 . S
C583 C584 1.395 . S
C584 H555 0.950 . S
C584 C583 1.395 . S
C584 C585 1.288 . S
C585 C584 1.288 . S
C585 C586 1.392 . S
C586 H556 0.951 . S
C586 C585 1.392 . S
C586 C587 1.392 . S
C587 H557 0.949 . S
C587 C582 1.382 . S
C587 C586 1.392 . S
H588 C607 0.949 . S
H589 C608 0.950 . S
H590 C610 0.950 . S
H591 C611 0.950 . S
H592 C613 0.950 . S
H593 C616 0.950 . S
H594 C617 0.950 . S
H595 C619 0.951 . S
H596 C620 0.949 . S
H597 C622 0.949 . S
H598 C623 0.950 . S
H599 C625 0.950 . S
H600 C626 0.950 . S
H601 C628 0.950 . S
H602 C631 0.950 . S
H603 C632 0.950 . S
H604 C634 0.951 . S
H605 C635 0.949 . S
C606 C607 1.376 . S
C606 C611 1.386 . S
C606 C612 1.483 . S
C607 H588 0.949 . S
C607 C606 1.376 . S
C607 C608 1.397 . S
C608 H589 0.950 . S
C608 C607 1.397 . S
C608 C609 1.391 . S
C609 C608 1.391 . S
C609 C610 1.405 . S
C610 H590 0.950 . S
C610 C609 1.405 . S
C610 C611 1.367 . S
C611 H591 0.950 . S
C611 C606 1.386 . S
C611 C610 1.367 . S
C612 C606 1.483 . S
C612 C613 1.382 . S
C612 C614 1.403 . S
C613 H592 0.950 . S
C613 C612 1.382 . S
C613 C629 1.411 . S
C614 C612 1.403 . S
C614 C615 1.489 . S
C614 C628 1.411 . S
C615 C614 1.489 . S
C615 C616 1.383 . S
C615 C620 1.382 . S
C616 H593 0.950 . S
C616 C615 1.383 . S
C616 C617 1.395 . S
C617 H594 0.950 . S
C617 C616 1.395 . S
C617 C618 1.288 . S
C618 C617 1.288 . S
C618 C619 1.392 . S
C619 H595 0.951 . S
C619 C618 1.392 . S
C619 C620 1.392 . S
C620 H596 0.949 . S
C620 C615 1.382 . S
C620 C619 1.392 . S
C621 C622 1.376 . S
C621 C626 1.386 . S
C621 C627 1.483 . S
C622 H597 0.949 . S
C622 C621 1.376 . S
C622 C623 1.397 . S
C623 H598 0.950 . S
C623 C622 1.397 . S
C623 C624 1.391 . S
C624 C623 1.391 . S
C624 C625 1.405 . S
C625 H599 0.950 . S
C625 C624 1.405 . S
C625 C626 1.367 . S
C626 H600 0.950 . S
C626 C621 1.386 . S
C626 C625 1.367 . S
C627 C621 1.483 . S
C627 C628 1.382 . S
C627 C629 1.403 . S
C628 H601 0.950 . S
C628 C614 1.411 . S
C628 C627 1.382 . S
C629 C613 1.411 . S
C629 C627 1.403 . S
C629 C630 1.489 . S
C630 C629 1.489 . S
C630 C631 1.383 . S
C630 C635 1.382 . S
C631 H602 0.950 . S
C631 C630 1.383 . S
C631 C632 1.395 . S
C632 H603 0.950 . S
C632 C631 1.395 . S
C632 C633 1.288 . S
C633 C632 1.288 . S
C633 C634 1.392 . S
C634 H604 0.951 . S
C634 C633 1.392 . S
C634 C635 1.392 . S
C635 H605 0.949 . S
C635 C630 1.382 . S
C635 C634 1.392 . S
H636 C655 0.949 . S
H637 C656 0.950 . S
H638 C658 0.950 . S
H639 C659 0.950 . S
H640 C661 0.950 . S
H641 C664 0.950 . S
H642 C665 0.950 . S
H643 C667 0.951 . S
H644 C668 0.949 . S
H645 C670 0.949 . S
H646 C671 0.950 . S
H647 C673 0.950 . S
H648 C674 0.950 . S
H649 C676 0.950 . S
H650 C679 0.950 . S
H651 C680 0.950 . S
H652 C682 0.951 . S
H653 C683 0.949 . S
C654 C655 1.376 . S
C654 C659 1.386 . S
C654 C660 1.483 . S
C655 H636 0.949 . S
C655 C654 1.376 . S
C655 C656 1.397 . S
C656 H637 0.950 . S
C656 C655 1.397 . S
C656 C657 1.391 . S
C657 C656 1.391 . S
C657 C658 1.405 . S
C658 H638 0.950 . S
C658 C657 1.405 . S
C658 C659 1.367 . S
C659 H639 0.950 . S
C659 C654 1.386 . S
C659 C658 1.367 . S
C660 C654 1.483 . S
C660 C661 1.382 . S
C660 C662 1.403 . S
C661 H640 0.950 . S
C661 C660 1.382 . S
C661 C677 1.411 . S
C662 C660 1.403 . S
C662 C663 1.489 . S
C662 C676 1.411 . S
C663 C662 1.489 . S
C663 C664 1.383 . S
C663 C668 1.382 . S
C664 H641 0.950 . S
C664 C663 1.383 . S
C664 C665 1.395 . S
C665 H642 0.950 . S
C665 C664 1.395 . S
C665 C666 1.288 . S
C666 C665 1.288 . S
C666 C667 1.392 . S
C667 H643 0.951 . S
C667 C666 1.392 . S
C667 C668 1.392 . S
C668 H644 0.949 . S
C668 C663 1.382 . S
C668 C667 1.392 . S
C669 C670 1.376 . S
C669 C674 1.386 . S
C669 C675 1.483 . S
C670 H645 0.949 . S
C670 C669 1.376 . S
C670 C671 1.397 . S
C671 H646 0.950 . S
C671 C670 1.397 . S
C671 C672 1.391 . S
C672 C671 1.391 . S
C672 C673 1.405 . S
C673 H647 0.950 . S
C673 C672 1.405 . S
C673 C674 1.367 . S
C674 H648 0.950 . S
C674 C669 1.386 . S
C674 C673 1.367 . S
C675 C669 1.483 . S
C675 C676 1.382 . S
C675 C677 1.403 . S
C676 H649 0.950 . S
C676 C662 1.411 . S
C676 C675 1.382 . S
C677 C661 1.411 . S
C677 C675 1.403 . S
C677 C678 1.489 . S
C678 C677 1.489 . S
C678 C679 1.383 . S
C678 C683 1.382 . S
C679 H650 0.950 . S
C679 C678 1.383 . S
C679 C680 1.395 . S
C680 H651 0.950 . S
C680 C679 1.395 . S
C680 C681 1.288 . S
C681 C680 1.288 . S
C681 C682 1.392 . S
C682 H652 0.951 . S
C682 C681 1.392 . S
C682 C683 1.392 . S
C683 H653 0.949 . S
C683 C678 1.382 . S
C683 C682 1.392 . S
H684 C703 0.949 . S
H685 C704 0.950 . S
H686 C706 0.950 . S
H687 C707 0.950 . S
H688 C709 0.950 . S
H689 C712 0.950 . S
H690 C713 0.950 . S
H691 C715 0.951 . S
H692 C716 0.949 . S
H693 C718 0.949 . S
H694 C719 0.950 . S
H695 C721 0.950 . S
H696 C722 0.950 . S
H697 C724 0.950 . S
H698 C727 0.950 . S
H699 C728 0.950 . S
H700 C730 0.951 . S
H701 C731 0.949 . S
C702 C703 1.376 . S
C702 C707 1.386 1_655 S
C702 C708 1.483 . S
C703 H684 0.949 . S
C703 C702 1.376 . S
C703 C704 1.397 . S
C704 H685 0.950 . S
C704 C703 1.397 . S
C704 C705 1.391 . S
C705 C704 1.391 . S
C705 C706 1.405 1_655 S
C706 H686 0.950 . S
C706 C705 1.405 1_455 S
C706 C707 1.367 . S
C707 H687 0.950 . S
C707 C702 1.386 1_455 S
C707 C706 1.367 . S
C708 C702 1.483 . S
C708 C709 1.382 . S
C708 C710 1.403 1_655 S
C709 H688 0.950 . S
C709 C708 1.382 . S
C709 C725 1.411 . S
C710 C708 1.403 1_455 S
C710 C711 1.489 . S
C710 C724 1.411 . S
C711 C710 1.489 . S
C711 C712 1.383 1_455 S
C711 C716 1.382 . S
C712 H689 0.950 . S
C712 C711 1.383 1_655 S
C712 C713 1.395 . S
C713 H690 0.950 . S
C713 C712 1.395 . S
C713 C714 1.288 1_655 S
C714 C713 1.288 1_455 S
C714 C715 1.392 . S
C715 H691 0.951 . S
C715 C714 1.392 . S
C715 C716 1.392 . S
C716 H692 0.949 . S
C716 C711 1.382 . S
C716 C715 1.392 . S
C717 C718 1.376 . S
C717 C722 1.386 1_455 S
C717 C723 1.483 . S
C718 H693 0.949 . S
C718 C717 1.376 . S
C718 C719 1.397 . S
C719 H694 0.950 . S
C719 C718 1.397 . S
C719 C720 1.391 . S
C720 C719 1.391 . S
C720 C721 1.405 1_455 S
C721 H695 0.950 . S
C721 C720 1.405 1_655 S
C721 C722 1.367 . S
C722 H696 0.950 . S
C722 C717 1.386 1_655 S
C722 C721 1.367 . S
C723 C717 1.483 . S
C723 C724 1.382 . S
C723 C725 1.403 1_455 S
C724 H697 0.950 . S
C724 C710 1.411 . S
C724 C723 1.382 . S
C725 C709 1.411 . S
C725 C723 1.403 1_655 S
C725 C726 1.489 . S
C726 C725 1.489 . S
C726 C727 1.383 1_655 S
C726 C731 1.382 . S
C727 H698 0.950 . S
C727 C726 1.383 1_455 S
C727 C728 1.395 . S
C728 H699 0.950 . S
C728 C727 1.395 . S
C728 C729 1.288 1_455 S
C729 C728 1.288 1_655 S
C729 C730 1.392 . S
C730 H700 0.951 . S
C730 C729 1.392 . S
C730 C731 1.392 . S
C731 H701 0.949 . S
C731 C726 1.382 . S
C731 C730 1.392 . S
H732 C751 0.949 . S
H733 C752 0.950 . S
H734 C754 0.950 . S
H735 C755 0.950 . S
H736 C757 0.950 . S
H737 C760 0.950 . S
H738 C761 0.950 . S
H739 C763 0.951 . S
H740 C764 0.949 . S
H741 C766 0.949 . S
H742 C767 0.950 . S
H743 C769 0.950 . S
H744 C770 0.950 . S
H745 C772 0.950 . S
H746 C775 0.950 . S
H747 C776 0.950 . S
H748 C778 0.951 . S
H749 C779 0.949 . S
C750 C751 1.376 . S
C750 C755 1.386 . S
C750 C756 1.483 . S
C751 H732 0.949 . S
C751 C750 1.376 . S
C751 C752 1.397 . S
C752 H733 0.950 . S
C752 C751 1.397 . S
C752 C753 1.391 . S
C753 C752 1.391 . S
C753 C754 1.405 . S
C754 H734 0.950 . S
C754 C753 1.405 . S
C754 C755 1.367 . S
C755 H735 0.950 . S
C755 C750 1.386 . S
C755 C754 1.367 . S
C756 C750 1.483 . S
C756 C757 1.382 . S
C756 C758 1.403 . S
C757 H736 0.950 . S
C757 C756 1.382 . S
C757 C773 1.411 . S
C758 C756 1.403 . S
C758 C759 1.489 . S
C758 C772 1.411 . S
C759 C758 1.489 . S
C759 C760 1.383 . S
C759 C764 1.382 . S
C760 H737 0.950 . S
C760 C759 1.383 . S
C760 C761 1.395 . S
C761 H738 0.950 . S
C761 C760 1.395 . S
C761 C762 1.288 . S
C762 C761 1.288 . S
C762 C763 1.392 . S
C763 H739 0.951 . S
C763 C762 1.392 . S
C763 C764 1.392 . S
C764 H740 0.949 . S
C764 C759 1.382 . S
C764 C763 1.392 . S
C765 C766 1.376 . S
C765 C770 1.386 . S
C765 C771 1.483 . S
C766 H741 0.949 . S
C766 C765 1.376 . S
C766 C767 1.397 . S
C767 H742 0.950 . S
C767 C766 1.397 . S
C767 C768 1.391 . S
C768 C767 1.391 . S
C768 C769 1.405 . S
C769 H743 0.950 . S
C769 C768 1.405 . S
C769 C770 1.367 . S
C770 H744 0.950 . S
C770 C765 1.386 . S
C770 C769 1.367 . S
C771 C765 1.483 . S
C771 C772 1.382 . S
C771 C773 1.403 . S
C772 H745 0.950 . S
C772 C758 1.411 . S
C772 C771 1.382 . S
C773 C757 1.411 . S
C773 C771 1.403 . S
C773 C774 1.489 . S
C774 C773 1.489 . S
C774 C775 1.383 . S
C774 C779 1.382 . S
C775 H746 0.950 . S
C775 C774 1.383 . S
C775 C776 1.395 . S
C776 H747 0.950 . S
C776 C775 1.395 . S
C776 C777 1.288 . S
C777 C776 1.288 . S
C777 C778 1.392 . S
C778 H748 0.951 . S
C778 C777 1.392 . S
C778 C779 1.392 . S
C779 H749 0.949 . S
C779 C774 1.382 . S
C779 C778 1.392 . S
H780 C799 0.949 . S
H781 C800 0.950 . S
H782 C802 0.950 . S
H783 C803 0.950 . S
H784 C805 0.950 . S
H785 C808 0.950 . S
H786 C809 0.950 . S
H787 C811 0.951 . S
H788 C812 0.949 . S
H789 C814 0.949 . S
H790 C815 0.950 . S
H791 C817 0.950 . S
H792 C818 0.950 . S
H793 C820 0.950 . S
H794 C823 0.950 . S
H795 C824 0.950 . S
H796 C826 0.951 . S
H797 C827 0.949 . S
C798 C799 1.376 . S
C798 C803 1.386 1_545 S
C798 C804 1.483 . S
C799 H780 0.949 . S
C799 C798 1.376 . S
C799 C800 1.397 . S
C800 H781 0.950 . S
C800 C799 1.397 . S
C800 C801 1.391 . S
C801 C800 1.391 . S
C801 C802 1.405 1_545 S
C802 H782 0.950 . S
C802 C801 1.405 1_565 S
C802 C803 1.367 . S
C803 H783 0.950 . S
C803 C798 1.386 1_565 S
C803 C802 1.367 . S
C804 C798 1.483 . S
C804 C805 1.382 . S
C804 C806 1.403 1_545 S
C805 H784 0.950 . S
C805 C804 1.382 . S
C805 C821 1.411 . S
C806 C804 1.403 1_565 S
C806 C807 1.489 . S
C806 C820 1.411 . S
C807 C806 1.489 . S
C807 C808 1.383 1_565 S
C807 C812 1.382 . S
C808 H785 0.950 . S
C808 C807 1.383 1_545 S
C808 C809 1.395 . S
C809 H786 0.950 . S
C809 C808 1.395 . S
C809 C810 1.288 1_545 S
C810 C809 1.288 1_565 S
C810 C811 1.392 . S
C811 H787 0.951 . S
C811 C810 1.392 . S
C811 C812 1.392 . S
C812 H788 0.949 . S
C812 C807 1.382 . S
C812 C811 1.392 . S
C813 C814 1.376 . S
C813 C818 1.386 1_565 S
C813 C819 1.483 . S
C814 H789 0.949 . S
C814 C813 1.376 . S
C814 C815 1.397 . S
C815 H790 0.950 . S
C815 C814 1.397 . S
C815 C816 1.391 . S
C816 C815 1.391 . S
C816 C817 1.405 1_565 S
C817 H791 0.950 . S
C817 C816 1.405 1_545 S
C817 C818 1.367 . S
C818 H792 0.950 . S
C818 C813 1.386 1_545 S
C818 C817 1.367 . S
C819 C813 1.483 . S
C819 C820 1.382 . S
C819 C821 1.403 1_565 S
C820 H793 0.950 . S
C820 C806 1.411 . S
C820 C819 1.382 . S
C821 C805 1.411 . S
C821 C819 1.403 1_545 S
C821 C822 1.489 . S
C822 C821 1.489 . S
C822 C823 1.383 1_545 S
C822 C827 1.382 . S
C823 H794 0.950 . S
C823 C822 1.383 1_565 S
C823 C824 1.395 . S
C824 H795 0.950 . S
C824 C823 1.395 . S
C824 C825 1.288 1_565 S
C825 C824 1.288 1_545 S
C825 C826 1.392 . S
C826 H796 0.951 . S
C826 C825 1.392 . S
C826 C827 1.392 . S
C827 H797 0.949 . S
C827 C822 1.382 . S
C827 C826 1.392 . S
H828 C847 0.949 . S
H829 C848 0.950 . S
H830 C850 0.950 . S
H831 C851 0.950 . S
H832 C853 0.950 . S
H833 C856 0.950 . S
H834 C857 0.950 . S
H835 C859 0.951 . S
H836 C860 0.949 . S
H837 C862 0.949 . S
H838 C863 0.950 . S
H839 C865 0.950 . S
H840 C866 0.950 . S
H841 C868 0.950 . S
H842 C871 0.950 . S
H843 C872 0.950 . S
H844 C874 0.951 . S
H845 C875 0.949 . S
C846 C847 1.376 . S
C846 C851 1.386 1_545 S
C846 C852 1.506 . S
C847 H828 0.949 . S
C847 C846 1.376 . S
C847 C848 1.397 . S
C848 H829 0.950 . S
C848 C847 1.397 . S
C848 C849 1.391 1_545 S
C849 C848 1.391 1_565 S
C849 C850 1.405 . S
C850 H830 0.950 . S
C850 C849 1.405 . S
C850 C851 1.367 . S
C851 H831 0.950 . S
C851 C846 1.386 1_565 S
C851 C850 1.367 . S
C852 C846 1.506 . S
C852 C853 1.360 . S
C852 C854 1.400 1_545 S
C853 H832 0.950 . S
C853 C852 1.360 . S
C853 C869 1.446 . S
C854 C852 1.400 1_565 S
C854 C855 1.485 . S
C854 C868 1.437 . S
C855 C854 1.485 . S
C855 C856 1.342 1_565 S
C855 C860 1.404 . S
C856 H833 0.950 . S
C856 C855 1.342 1_545 S
C856 C857 1.395 . S
C857 H834 0.950 . S
C857 C856 1.395 . S
C857 C858 1.288 . S
C858 C857 1.288 . S
C858 C859 1.392 1_545 S
C859 H835 0.951 . S
C859 C858 1.392 1_565 S
C859 C860 1.392 . S
C860 H836 0.949 . S
C860 C855 1.404 . S
C860 C859 1.392 . S
C861 C862 1.376 1_545 S
C861 C866 1.386 . S
C861 C867 1.498 1_545 S
C862 H837 0.949 . S
C862 C861 1.376 1_565 S
C862 C863 1.397 . S
C863 H838 0.950 . S
C863 C862 1.397 . S
C863 C864 1.391 1_565 S
C864 C863 1.391 1_545 S
C864 C865 1.405 . S
C865 H839 0.950 . S
C865 C864 1.405 . S
C865 C866 1.367 . S
C866 H840 0.950 . S
C866 C861 1.386 . S
C866 C865 1.367 . S
C867 C861 1.498 1_565 S
C867 C868 1.366 . S
C867 C869 1.400 1_565 S
C868 H841 0.950 . S
C868 C854 1.437 . S
C868 C867 1.366 . S
C869 C853 1.446 . S
C869 C867 1.400 1_545 S
C869 C870 1.485 . S
C870 C869 1.485 . S
C870 C871 1.325 1_545 S
C870 C875 1.413 . S
C871 H842 0.950 . S
C871 C870 1.325 1_565 S
C871 C872 1.395 . S
C872 H843 0.950 . S
C872 C871 1.395 . S
C872 C873 1.324 . S
C873 C872 1.324 . S
C873 C874 1.321 1_565 S
C874 H844 0.951 . S
C874 C873 1.321 1_545 S
C874 C875 1.392 . S
C875 H845 0.949 . S
C875 C870 1.413 . S
C875 C874 1.392 . S
H876 C895 0.949 . S
H877 C896 0.950 . S
H878 C898 0.950 . S
H879 C899 0.950 . S
H880 C901 0.950 . S
H881 C904 0.950 . S
H882 C905 0.950 . S
H883 C907 0.951 . S
H884 C908 0.949 . S
H885 C910 0.949 . S
H886 C911 0.950 . S
H887 C913 0.950 . S
H888 C914 0.950 . S
H889 C916 0.950 . S
H890 C919 0.950 . S
H891 C920 0.950 . S
H892 C922 0.951 . S
H893 C923 0.949 . S
C894 C895 1.376 . S
C894 C899 1.386 1_455 S
C894 C900 1.483 . S
C895 H876 0.949 . S
C895 C894 1.376 . S
C895 C896 1.397 . S
C896 H877 0.950 . S
C896 C895 1.397 . S
C896 C897 1.391 . S
C897 C896 1.391 . S
C897 C898 1.405 1_455 S
C898 H878 0.950 . S
C898 C897 1.405 1_655 S
C898 C899 1.367 . S
C899 H879 0.950 . S
C899 C894 1.386 1_655 S
C899 C898 1.367 . S
C900 C894 1.483 . S
C900 C901 1.382 . S
C900 C902 1.403 1_455 S
C901 H880 0.950 . S
C901 C900 1.382 . S
C901 C917 1.411 . S
C902 C900 1.403 1_655 S
C902 C903 1.489 . S
C902 C916 1.411 . S
C903 C902 1.489 . S
C903 C904 1.383 1_655 S
C903 C908 1.382 . S
C904 H881 0.950 . S
C904 C903 1.383 1_455 S
C904 C905 1.395 . S
C905 H882 0.950 . S
C905 C904 1.395 . S
C905 C906 1.288 1_455 S
C906 C905 1.288 1_655 S
C906 C907 1.392 . S
C907 H883 0.951 . S
C907 C906 1.392 . S
C907 C908 1.392 . S
C908 H884 0.949 . S
C908 C903 1.382 . S
C908 C907 1.392 . S
C909 C910 1.376 . S
C909 C914 1.386 1_655 S
C909 C915 1.483 . S
C910 H885 0.949 . S
C910 C909 1.376 . S
C910 C911 1.397 . S
C911 H886 0.950 . S
C911 C910 1.397 . S
C911 C912 1.391 . S
C912 C911 1.391 . S
C912 C913 1.405 1_655 S
C913 H887 0.950 . S
C913 C912 1.405 1_455 S
C913 C914 1.367 . S
C914 H888 0.950 . S
C914 C909 1.386 1_455 S
C914 C913 1.367 . S
C915 C909 1.483 . S
C915 C916 1.382 . S
C915 C917 1.403 1_655 S
C916 H889 0.950 . S
C916 C902 1.411 . S
C916 C915 1.382 . S
C917 C901 1.411 . S
C917 C915 1.403 1_455 S
C917 C918 1.489 . S
C918 C917 1.489 . S
C918 C919 1.383 1_455 S
C918 C923 1.382 . S
C919 H890 0.950 . S
C919 C918 1.383 1_655 S
C919 C920 1.395 . S
C920 H891 0.950 . S
C920 C919 1.395 . S
C920 C921 1.288 1_655 S
C921 C920 1.288 1_455 S
C921 C922 1.392 . S
C922 H892 0.951 . S
C922 C921 1.392 . S
C922 C923 1.392 . S
C923 H893 0.949 . S
C923 C918 1.382 . S
C923 C922 1.392 . S
H924 C943 0.949 . S
H925 C944 0.950 . S
H926 C946 0.950 . S
H927 C947 0.950 . S
H928 C949 0.950 . S
H929 C952 0.950 . S
H930 C953 0.950 . S
H931 C955 0.951 . S
H932 C956 0.949 . S
H933 C958 0.949 . S
H934 C959 0.950 . S
H935 C961 0.950 . S
H936 C962 0.950 . S
H937 C964 0.950 . S
H938 C967 0.950 . S
H939 C968 0.950 . S
H940 C970 0.951 . S
H941 C971 0.949 . S
C942 C943 1.376 . S
C942 C947 1.386 . S
C942 C948 1.483 . S
C943 H924 0.949 . S
C943 C942 1.376 . S
C943 C944 1.397 . S
C944 H925 0.950 . S
C944 C943 1.397 . S
C944 C945 1.391 . S
C945 C944 1.391 . S
C945 C946 1.405 . S
C946 H926 0.950 . S
C946 C945 1.405 . S
C946 C947 1.367 . S
C947 H927 0.950 . S
C947 C942 1.386 . S
C947 C946 1.367 . S
C948 C942 1.483 . S
C948 C949 1.382 . S
C948 C950 1.403 . S
C949 H928 0.950 . S
C949 C948 1.382 . S
C949 C965 1.411 . S
C950 C948 1.403 . S
C950 C951 1.489 . S
C950 C964 1.411 . S
C951 C950 1.489 . S
C951 C952 1.383 . S
C951 C956 1.382 . S
C952 H929 0.950 . S
C952 C951 1.383 . S
C952 C953 1.395 . S
C953 H930 0.950 . S
C953 C952 1.395 . S
C953 C954 1.288 . S
C954 C953 1.288 . S
C954 C955 1.392 . S
C955 H931 0.951 . S
C955 C954 1.392 . S
C955 C956 1.392 . S
C956 H932 0.949 . S
C956 C951 1.382 . S
C956 C955 1.392 . S
C957 C958 1.376 . S
C957 C962 1.386 . S
C957 C963 1.483 . S
C958 H933 0.949 . S
C958 C957 1.376 . S
C958 C959 1.397 . S
C959 H934 0.950 . S
C959 C958 1.397 . S
C959 C960 1.391 . S
C960 C959 1.391 . S
C960 C961 1.405 . S
C961 H935 0.950 . S
C961 C960 1.405 . S
C961 C962 1.367 . S
C962 H936 0.950 . S
C962 C957 1.386 . S
C962 C961 1.367 . S
C963 C957 1.483 . S
C963 C964 1.382 . S
C963 C965 1.403 . S
C964 H937 0.950 . S
C964 C950 1.411 . S
C964 C963 1.382 . S
C965 C949 1.411 . S
C965 C963 1.403 . S
C965 C966 1.489 . S
C966 C965 1.489 . S
C966 C967 1.383 . S
C966 C971 1.382 . S
C967 H938 0.950 . S
C967 C966 1.383 . S
C967 C968 1.395 . S
C968 H939 0.950 . S
C968 C967 1.395 . S
C968 C969 1.288 . S
C969 C968 1.288 . S
C969 C970 1.392 . S
C970 H940 0.951 . S
C970 C969 1.392 . S
C970 C971 1.392 . S
C971 H941 0.949 . S
C971 C966 1.382 . S
C971 C970 1.392 . S
H972 C991 0.949 . S
H973 C992 0.950 . S
H974 C994 0.950 . S
H975 C995 0.950 . S
H976 C997 0.950 . S
H977 C1000 0.950 . S
H978 C1001 0.950 . S
H979 C1003 0.951 . S
H980 C1004 0.949 . S
H981 C1006 0.949 . S
H982 C1007 0.950 . S
H983 C1009 0.950 . S
H984 C1010 0.950 . S
H985 C1012 0.950 . S
H986 C1015 0.950 . S
H987 C1016 0.950 . S
H988 C1018 0.951 . S
H989 C1019 0.949 . S
C990 C991 1.376 . S
C990 C995 1.386 . S
C990 C996 1.483 . S
C991 H972 0.949 . S
C991 C990 1.376 . S
C991 C992 1.397 . S
C992 H973 0.950 . S
C992 C991 1.397 . S
C992 C993 1.391 . S
C993 C992 1.391 . S
C993 C994 1.405 . S
C994 H974 0.950 . S
C994 C993 1.405 . S
C994 C995 1.367 . S
C995 H975 0.950 . S
C995 C990 1.386 . S
C995 C994 1.367 . S
C996 C990 1.483 . S
C996 C997 1.382 . S
C996 C998 1.403 . S
C997 H976 0.950 . S
C997 C996 1.382 . S
C997 C1013 1.411 . S
C998 C996 1.403 . S
C998 C999 1.489 . S
C998 C1012 1.411 . S
C999 C998 1.489 . S
C999 C1000 1.383 . S
C999 C1004 1.382 . S
C1000 H977 0.950 . S
C1000 C999 1.383 . S
C1000 C1001 1.395 . S
C1001 H978 0.950 . S
C1001 C1000 1.395 . S
C1001 C1002 1.288 . S
C1002 C1001 1.288 . S
C1002 C1003 1.392 . S
C1003 H979 0.951 . S
C1003 C1002 1.392 . S
C1003 C1004 1.392 . S
C1004 H980 0.949 . S
C1004 C999 1.382 . S
C1004 C1003 1.392 . S
C1005 C1006 1.376 . S
C1005 C1010 1.386 . S
C1005 C1011 1.483 . S
C1006 H981 0.949 . S
C1006 C1005 1.376 . S
C1006 C1007 1.397 . S
C1007 H982 0.950 . S
C1007 C1006 1.397 . S
C1007 C1008 1.391 . S
C1008 C1007 1.391 . S
C1008 C1009 1.405 . S
C1009 H983 0.950 . S
C1009 C1008 1.405 . S
C1009 C1010 1.367 . S
C1010 H984 0.950 . S
C1010 C1005 1.386 . S
C1010 C1009 1.367 . S
C1011 C1005 1.483 . S
C1011 C1012 1.382 . S
C1011 C1013 1.403 . S
C1012 H985 0.950 . S
C1012 C998 1.411 . S
C1012 C1011 1.382 . S
C1013 C997 1.411 . S
C1013 C1011 1.403 . S
C1013 C1014 1.489 . S
C1014 C1013 1.489 . S
C1014 C1015 1.383 . S
C1014 C1019 1.382 . S
C1015 H986 0.950 . S
C1015 C1014 1.383 . S
C1015 C1016 1.395 . S
C1016 H987 0.950 . S
C1016 C1015 1.395 . S
C1016 C1017 1.288 . S
C1017 C1016 1.288 . S
C1017 C1018 1.392 . S
C1018 H988 0.951 . S
C1018 C1017 1.392 . S
C1018 C1019 1.392 . S
C1019 H989 0.949 . S
C1019 C1014 1.382 . S
C1019 C1018 1.392 . S
H1020 C1039 0.949 . S
H1021 C1040 0.950 . S
H1022 C1042 0.950 . S
H1023 C1043 0.950 . S
H1024 C1045 0.950 . S
H1025 C1048 0.950 . S
H1026 C1049 0.950 . S
H1027 C1051 0.951 . S
H1028 C1052 0.949 . S
H1029 C1054 0.949 . S
H1030 C1055 0.950 . S
H1031 C1057 0.950 . S
H1032 C1058 0.950 . S
H1033 C1060 0.950 . S
H1034 C1063 0.950 . S
H1035 C1064 0.950 . S
H1036 C1066 0.951 . S
H1037 C1067 0.949 . S
C1038 C1039 1.376 . S
C1038 C1043 1.386 . S
C1038 C1044 1.483 . S
C1039 H1020 0.949 . S
C1039 C1038 1.376 . S
C1039 C1040 1.397 . S
C1040 H1021 0.950 . S
C1040 C1039 1.397 . S
C1040 C1041 1.391 . S
C1041 C1040 1.391 . S
C1041 C1042 1.405 . S
C1042 H1022 0.950 . S
C1042 C1041 1.405 . S
C1042 C1043 1.367 . S
C1043 H1023 0.950 . S
C1043 C1038 1.386 . S
C1043 C1042 1.367 . S
C1044 C1038 1.483 . S
C1044 C1045 1.382 . S
C1044 C1046 1.403 . S
C1045 H1024 0.950 . S
C1045 C1044 1.382 . S
C1045 C1061 1.411 . S
C1046 C1044 1.403 . S
C1046 C1047 1.489 . S
C1046 C1060 1.411 . S
C1047 C1046 1.489 . S
C1047 C1048 1.383 . S
C1047 C1052 1.382 . S
C1048 H1025 0.950 . S
C1048 C1047 1.383 . S
C1048 C1049 1.395 . S
C1049 H1026 0.950 . S
C1049 C1048 1.395 . S
C1049 C1050 1.288 . S
C1050 C1049 1.288 . S
C1050 C1051 1.392 . S
C1051 H1027 0.951 . S
C1051 C1050 1.392 . S
C1051 C1052 1.392 . S
C1052 H1028 0.949 . S
C1052 C1047 1.382 . S
C1052 C1051 1.392 . S
C1053 C1054 1.376 . S
C1053 C1058 1.386 . S
C1053 C1059 1.483 . S
C1054 H1029 0.949 . S
C1054 C1053 1.376 . S
C1054 C1055 1.397 . S
C1055 H1030 0.950 . S
C1055 C1054 1.397 . S
C1055 C1056 1.391 . S
C1056 C1055 1.391 . S
C1056 C1057 1.405 . S
C1057 H1031 0.950 . S
C1057 C1056 1.405 . S
C1057 C1058 1.367 . S
C1058 H1032 0.950 . S
C1058 C1053 1.386 . S
C1058 C1057 1.367 . S
C1059 C1053 1.483 . S
C1059 C1060 1.382 . S
C1059 C1061 1.403 . S
C1060 H1033 0.950 . S
C1060 C1046 1.411 . S
C1060 C1059 1.382 . S
C1061 C1045 1.411 . S
C1061 C1059 1.403 . S
C1061 C1062 1.489 . S
C1062 C1061 1.489 . S
C1062 C1063 1.383 . S
C1062 C1067 1.382 . S
C1063 H1034 0.950 . S
C1063 C1062 1.383 . S
C1063 C1064 1.395 . S
C1064 H1035 0.950 . S
C1064 C1063 1.395 . S
C1064 C1065 1.288 . S
C1065 C1064 1.288 . S
C1065 C1066 1.392 . S
C1066 H1036 0.951 . S
C1066 C1065 1.392 . S
C1066 C1067 1.392 . S
C1067 H1037 0.949 . S
C1067 C1062 1.382 . S
C1067 C1066 1.392 . S
H1068 C1087 0.949 . S
H1069 C1088 0.950 . S
H1070 C1090 0.950 . S
H1071 C1091 0.950 . S
H1072 C1093 0.950 . S
H1073 C1096 0.950 . S
H1074 C1097 0.950 . S
H1075 C1099 0.951 . S
H1076 C1100 0.949 . S
H1077 C1102 0.949 . S
H1078 C1103 0.950 . S
H1079 C1105 0.950 . S
H1080 C1106 0.950 . S
H1081 C1108 0.950 . S
H1082 C1111 0.950 . S
H1083 C1112 0.950 . S
H1084 C1114 0.951 . S
H1085 C1115 0.949 . S
C1086 C1087 1.376 . S
C1086 C1091 1.386 . S
C1086 C1092 1.483 . S
C1087 H1068 0.949 . S
C1087 C1086 1.376 . S
C1087 C1088 1.397 . S
C1088 H1069 0.950 . S
C1088 C1087 1.397 . S
C1088 C1089 1.391 . S
C1089 C1088 1.391 . S
C1089 C1090 1.405 . S
C1090 H1070 0.950 . S
C1090 C1089 1.405 . S
C1090 C1091 1.367 . S
C1091 H1071 0.950 . S
C1091 C1086 1.386 . S
C1091 C1090 1.367 . S
C1092 C1086 1.483 . S
C1092 C1093 1.382 . S
C1092 C1094 1.403 . S
C1093 H1072 0.950 . S
C1093 C1092 1.382 . S
C1093 C1109 1.411 . S
C1094 C1092 1.403 . S
C1094 C1095 1.489 . S
C1094 C1108 1.411 . S
C1095 C1094 1.489 . S
C1095 C1096 1.383 . S
C1095 C1100 1.382 . S
C1096 H1073 0.950 . S
C1096 C1095 1.383 . S
C1096 C1097 1.395 . S
C1097 H1074 0.950 . S
C1097 C1096 1.395 . S
C1097 C1098 1.288 . S
C1098 C1097 1.288 . S
C1098 C1099 1.392 . S
C1099 H1075 0.951 . S
C1099 C1098 1.392 . S
C1099 C1100 1.392 . S
C1100 H1076 0.949 . S
C1100 C1095 1.382 . S
C1100 C1099 1.392 . S
C1101 C1102 1.376 . S
C1101 C1106 1.386 . S
C1101 C1107 1.483 . S
C1102 H1077 0.949 . S
C1102 C1101 1.376 . S
C1102 C1103 1.397 . S
C1103 H1078 0.950 . S
C1103 C1102 1.397 . S
C1103 C1104 1.391 . S
C1104 C1103 1.391 . S
C1104 C1105 1.405 . S
C1105 H1079 0.950 . S
C1105 C1104 1.405 . S
C1105 C1106 1.367 . S
C1106 H1080 0.950 . S
C1106 C1101 1.386 . S
C1106 C1105 1.367 . S
C1107 C1101 1.483 . S
C1107 C1108 1.382 . S
C1107 C1109 1.403 . S
C1108 H1081 0.950 . S
C1108 C1094 1.411 . S
C1108 C1107 1.382 . S
C1109 C1093 1.411 . S
C1109 C1107 1.403 . S
C1109 C1110 1.489 . S
C1110 C1109 1.489 . S
C1110 C1111 1.383 . S
C1110 C1115 1.382 . S
C1111 H1082 0.950 . S
C1111 C1110 1.383 . S
C1111 C1112 1.395 . S
C1112 H1083 0.950 . S
C1112 C1111 1.395 . S
C1112 C1113 1.288 . S
C1113 C1112 1.288 . S
C1113 C1114 1.392 . S
C1114 H1084 0.951 . S
C1114 C1113 1.392 . S
C1114 C1115 1.392 . S
C1115 H1085 0.949 . S
C1115 C1110 1.382 . S
C1115 C1114 1.392 . S
H1116 C1122 0.930 . S
H1117 C1126 0.930 . S
H1118 C1131 0.929 . S
H1119 C1129 0.929 . S
H1120 C1124 0.929 . S
H1121 C1130 0.929 . S
C1122 H1116 0.930 . S
C1122 C1123 1.367 1_455 S
C1122 C1130 1.378 . S
C1123 C1122 1.367 1_655 S
C1123 C1131 1.433 . S
C1124 H1120 0.929 . S
C1124 C1126 1.378 . S
C1124 C1128 1.350 . S
C1125 C1128 1.463 . S
C1125 C1130 1.350 1_655 S
C1125 N1133 1.427 . S
C1126 H1117 0.930 . S
C1126 C1124 1.378 . S
C1126 C1127 1.367 . S
C1127 C1126 1.367 . S
C1127 C1129 1.433 1_655 S
C1128 C1124 1.350 . S
C1128 C1125 1.463 . S
C1128 N1132 1.427 1_655 S
C1129 H1119 0.929 . S
C1129 C1127 1.433 1_455 S
C1129 N1132 1.384 . S
C1130 H1121 0.929 . S
C1130 C1122 1.378 . S
C1130 C1125 1.350 1_455 S
C1131 H1118 0.929 . S
C1131 C1123 1.433 . S
C1131 N1133 1.384 . S
N1132 C1128 1.427 1_455 S
N1132 C1129 1.384 . S
N1133 C1125 1.427 . S
N1133 C1131 1.384 . S
H1134 C1140 0.930 . S
H1135 C1144 0.930 . S
H1136 C1149 0.929 . S
H1137 C1147 0.929 . S
H1138 C1142 0.929 . S
H1139 C1148 0.929 . S
C1140 H1134 0.930 . S
C1140 C1141 1.367 . S
C1140 C1148 1.378 . S
C1141 C1140 1.367 . S
C1141 C1149 1.433 . S
C1142 H1138 0.929 . S
C1142 C1144 1.378 . S
C1142 C1146 1.350 . S
C1143 C1146 1.463 . S
C1143 C1148 1.350 . S
C1143 N1151 1.427 . S
C1144 H1135 0.930 . S
C1144 C1142 1.378 . S
C1144 C1145 1.367 . S
C1145 C1144 1.367 . S
C1145 C1147 1.433 . S
C1146 C1142 1.350 . S
C1146 C1143 1.463 . S
C1146 N1150 1.427 . S
C1147 H1137 0.929 . S
C1147 C1145 1.433 . S
C1147 N1150 1.384 . S
C1148 H1139 0.929 . S
C1148 C1140 1.378 . S
C1148 C1143 1.350 . S
C1149 H1136 0.929 . S
C1149 C1141 1.433 . S
C1149 N1151 1.384 . S
N1150 C1146 1.427 . S
N1150 C1147 1.384 . S
N1151 C1143 1.427 . S
N1151 C1149 1.384 . S
H1152 C1158 0.930 . S
H1153 C1162 0.930 . S
H1154 C1167 0.929 . S
H1155 C1165 0.929 . S
H1156 C1160 0.929 . S
H1157 C1166 0.929 . S
C1158 H1152 0.930 . S
C1158 C1159 1.367 1_565 S
C1158 C1166 1.378 . S
C1159 C1158 1.367 1_545 S
C1159 C1167 1.433 . S
C1160 H1156 0.929 . S
C1160 C1162 1.378 . S
C1160 C1164 1.350 . S
C1161 C1164 1.463 . S
C1161 C1166 1.350 1_545 S
C1161 N1169 1.427 . S
C1162 H1153 0.930 . S
C1162 C1160 1.378 . S
C1162 C1163 1.367 . S
C1163 C1162 1.367 . S
C1163 C1165 1.433 1_545 S
C1164 C1160 1.350 . S
C1164 C1161 1.463 . S
C1164 N1168 1.427 1_545 S
C1165 H1155 0.929 . S
C1165 C1163 1.433 1_565 S
C1165 N1168 1.384 . S
C1166 H1157 0.929 . S
C1166 C1158 1.378 . S
C1166 C1161 1.350 1_565 S
C1167 H1154 0.929 . S
C1167 C1159 1.433 . S
C1167 N1169 1.384 . S
N1168 C1164 1.427 1_565 S
N1168 C1165 1.384 . S
N1169 C1161 1.427 . S
N1169 C1167 1.384 . S
H1170 C1176 0.930 . S
H1171 C1180 0.930 . S
H1172 C1185 0.929 . S
H1173 C1183 0.929 . S
H1174 C1178 0.929 . S
H1175 C1184 0.929 . S
C1176 H1170 0.930 . S
C1176 C1177 1.367 1_545 S
C1176 C1184 1.378 . S
C1177 C1176 1.367 1_565 S
C1177 C1185 1.433 . S
C1178 H1174 0.929 . S
C1178 C1180 1.378 . S
C1178 C1182 1.350 . S
C1179 C1182 1.463 . S
C1179 C1184 1.350 1_565 S
C1179 N1187 1.427 . S
C1180 H1171 0.930 . S
C1180 C1178 1.378 . S
C1180 C1181 1.367 . S
C1181 C1180 1.367 . S
C1181 C1183 1.433 1_565 S
C1182 C1178 1.350 . S
C1182 C1179 1.463 . S
C1182 N1186 1.427 1_565 S
C1183 H1173 0.929 . S
C1183 C1181 1.433 1_545 S
C1183 N1186 1.384 . S
C1184 H1175 0.929 . S
C1184 C1176 1.378 . S
C1184 C1179 1.350 1_545 S
C1185 H1172 0.929 . S
C1185 C1177 1.433 . S
C1185 N1187 1.384 . S
N1186 C1182 1.427 1_545 S
N1186 C1183 1.384 . S
N1187 C1179 1.427 . S
N1187 C1185 1.384 . S
H1188 C1194 0.930 . S
H1189 C1198 0.930 . S
H1190 C1203 0.929 . S
H1191 C1201 0.929 . S
H1192 C1196 0.924 . S
H1193 C1202 0.929 . S
C1194 H1188 0.930 . S
C1194 C1195 1.367 . S
C1194 C1202 1.378 . S
C1195 C1194 1.367 . S
C1195 C1203 1.433 . S
C1196 H1192 0.924 . S
C1196 C1198 1.403 . S
C1196 C1200 1.332 1_655 S
C1197 C1200 1.463 . S
C1197 C1202 1.350 . S
C1197 N1205 1.427 . S
C1198 H1189 0.930 . S
C1198 C1196 1.403 . S
C1198 C1199 1.367 1_655 S
C1199 C1198 1.367 1_455 S
C1199 C1201 1.433 . S
C1200 C1196 1.332 1_455 S
C1200 C1197 1.463 . S
C1200 N1204 1.427 . S
C1201 H1191 0.929 . S
C1201 C1199 1.433 . S
C1201 N1204 1.384 . S
C1202 H1193 0.929 . S
C1202 C1194 1.378 . S
C1202 C1197 1.350 . S
C1203 H1190 0.929 . S
C1203 C1195 1.433 . S
C1203 N1205 1.384 . S
N1204 C1200 1.427 . S
N1204 C1201 1.384 . S
N1205 C1197 1.427 . S
N1205 C1203 1.384 . S
H1206 C1212 0.930 . S
H1207 C1216 0.930 . S
H1208 C1221 0.929 . S
H1209 C1219 0.929 . S
H1210 C1214 0.929 . S
H1211 C1220 0.929 . S
C1212 H1206 0.930 . S
C1212 C1213 1.367 . S
C1212 C1220 1.378 . S
C1213 C1212 1.367 . S
C1213 C1221 1.433 . S
C1214 H1210 0.929 . S
C1214 C1216 1.378 . S
C1214 C1218 1.350 . S
C1215 C1218 1.463 . S
C1215 C1220 1.350 . S
C1215 N1223 1.427 . S
C1216 H1207 0.930 . S
C1216 C1214 1.378 . S
C1216 C1217 1.367 . S
C1217 C1216 1.367 . S
C1217 C1219 1.433 . S
C1218 C1214 1.350 . S
C1218 C1215 1.463 . S
C1218 N1222 1.427 . S
C1219 H1209 0.929 . S
C1219 C1217 1.433 . S
C1219 N1222 1.384 . S
C1220 H1211 0.929 . S
C1220 C1212 1.378 . S
C1220 C1215 1.350 . S
C1221 H1208 0.929 . S
C1221 C1213 1.433 . S
C1221 N1223 1.384 . S
N1222 C1218 1.427 . S
N1222 C1219 1.384 . S
N1223 C1215 1.427 . S
N1223 C1221 1.384 . S
H1224 C1230 0.930 . S
H1225 C1234 0.930 . S
H1226 C1239 0.929 . S
H1227 C1237 0.929 . S
H1228 C1232 0.929 . S
H1229 C1238 0.929 . S
C1230 H1224 0.930 . S
C1230 C1231 1.367 . S
C1230 C1238 1.378 . S
C1231 C1230 1.367 . S
C1231 C1239 1.433 1_455 S
C1232 H1228 0.929 . S
C1232 C1234 1.378 . S
C1232 C1236 1.350 1_655 S
C1233 C1236 1.463 . S
C1233 C1238 1.350 . S
C1233 N1241 1.427 1_455 S
C1234 H1225 0.930 . S
C1234 C1232 1.378 . S
C1234 C1235 1.367 1_655 S
C1235 C1234 1.367 1_455 S
C1235 C1237 1.433 . S
C1236 C1232 1.350 1_455 S
C1236 C1233 1.463 . S
C1236 N1240 1.427 . S
C1237 H1227 0.929 . S
C1237 C1235 1.433 . S
C1237 N1240 1.384 . S
C1238 H1229 0.929 . S
C1238 C1230 1.378 . S
C1238 C1233 1.350 . S
C1239 H1226 0.929 . S
C1239 C1231 1.433 1_655 S
C1239 N1241 1.384 . S
N1240 C1236 1.427 . S
N1240 C1237 1.384 . S
N1241 C1233 1.427 1_655 S
N1241 C1239 1.384 . S
H1242 C1248 0.930 . S
H1243 C1252 0.930 . S
H1244 C1257 0.929 . S
H1245 C1255 0.929 . S
H1246 C1250 0.929 . S
H1247 C1256 0.929 . S
C1248 H1242 0.930 . S
C1248 C1249 1.367 . S
C1248 C1256 1.378 . S
C1249 C1248 1.367 . S
C1249 C1257 1.433 . S
C1250 H1246 0.929 . S
C1250 C1252 1.378 . S
C1250 C1254 1.350 . S
C1251 C1254 1.463 . S
C1251 C1256 1.350 . S
C1251 N1259 1.427 . S
C1252 H1243 0.930 . S
C1252 C1250 1.378 . S
C1252 C1253 1.367 . S
C1253 C1252 1.367 . S
C1253 C1255 1.433 . S
C1254 C1250 1.350 . S
C1254 C1251 1.463 . S
C1254 N1258 1.427 . S
C1255 H1245 0.929 . S
C1255 C1253 1.433 . S
C1255 N1258 1.384 . S
C1256 H1247 0.929 . S
C1256 C1248 1.378 . S
C1256 C1251 1.350 . S
C1257 H1244 0.929 . S
C1257 C1249 1.433 . S
C1257 N1259 1.384 . S
N1258 C1254 1.427 . S
N1258 C1255 1.384 . S
N1259 C1251 1.427 . S
N1259 C1257 1.384 . S
H1260 C1266 0.930 . S
H1261 C1270 0.930 . S
H1262 C1275 0.929 . S
H1263 C1273 0.929 . S
H1264 C1268 0.929 . S
H1265 C1274 0.929 . S
C1266 H1260 0.930 . S
C1266 C1267 1.367 . S
C1266 C1274 1.378 . S
C1267 C1266 1.367 . S
C1267 C1275 1.433 1_565 S
C1268 H1264 0.929 . S
C1268 C1270 1.378 . S
C1268 C1272 1.350 1_545 S
C1269 C1272 1.463 . S
C1269 C1274 1.350 . S
C1269 N1277 1.427 1_565 S
C1270 H1261 0.930 . S
C1270 C1268 1.378 . S
C1270 C1271 1.367 1_545 S
C1271 C1270 1.367 1_565 S
C1271 C1273 1.433 . S
C1272 C1268 1.350 1_565 S
C1272 C1269 1.463 . S
C1272 N1276 1.427 . S
C1273 H1263 0.929 . S
C1273 C1271 1.433 . S
C1273 N1276 1.384 . S
C1274 H1265 0.929 . S
C1274 C1266 1.378 . S
C1274 C1269 1.350 . S
C1275 H1262 0.929 . S
C1275 C1267 1.433 1_545 S
C1275 N1277 1.384 . S
N1276 C1272 1.427 . S
N1276 C1273 1.384 . S
N1277 C1269 1.427 1_545 S
N1277 C1275 1.384 . S
H1278 C1284 0.930 . S
H1279 C1288 0.930 . S
H1280 C1293 0.929 . S
H1281 C1291 0.959 . S
H1282 C1286 0.929 . S
H1283 C1292 0.930 . S
C1284 H1278 0.930 . S
C1284 C1285 1.367 . S
C1284 C1292 1.378 . S
C1285 C1284 1.367 . S
C1285 C1293 1.433 . S
C1286 H1282 0.929 . S
C1286 C1288 1.378 . S
C1286 C1290 1.350 . S
C1287 C1290 1.463 . S
C1287 C1292 1.350 . S
C1287 N1295 1.427 . S
C1288 H1279 0.930 . S
C1288 C1286 1.378 . S
C1288 C1289 1.367 . S
C1289 C1288 1.367 . S
C1289 C1291 1.386 1_545 S
C1290 C1286 1.350 . S
C1290 C1287 1.463 . S
C1290 N1294 1.427 . S
C1291 H1281 0.959 . S
C1291 C1289 1.386 1_565 S
C1291 N1294 1.405 1_565 S
C1292 H1283 0.930 . S
C1292 C1284 1.378 . S
C1292 C1287 1.350 . S
C1293 H1280 0.929 . S
C1293 C1285 1.433 . S
C1293 N1295 1.384 . S
N1294 C1290 1.427 . S
N1294 C1291 1.405 1_545 S
N1295 C1287 1.427 . S
N1295 C1293 1.384 . S
H1296 C1302 0.930 . S
H1297 C1306 0.930 . S
H1298 C1311 0.929 . S
H1299 C1309 0.929 . S
H1300 C1304 0.929 . S
H1301 C1310 0.929 . S
C1302 H1296 0.930 . S
C1302 C1303 1.367 . S
C1302 C1310 1.378 . S
C1303 C1302 1.367 . S
C1303 C1311 1.433 . S
C1304 H1300 0.929 . S
C1304 C1306 1.378 . S
C1304 C1308 1.350 . S
C1305 C1308 1.463 . S
C1305 C1310 1.350 . S
C1305 N1313 1.427 . S
C1306 H1297 0.930 . S
C1306 C1304 1.378 . S
C1306 C1307 1.367 . S
C1307 C1306 1.367 . S
C1307 C1309 1.433 . S
C1308 C1304 1.350 . S
C1308 C1305 1.463 . S
C1308 N1312 1.427 . S
C1309 H1299 0.929 . S
C1309 C1307 1.433 . S
C1309 N1312 1.384 . S
C1310 H1301 0.929 . S
C1310 C1302 1.378 . S
C1310 C1305 1.350 . S
C1311 H1298 0.929 . S
C1311 C1303 1.433 . S
C1311 N1313 1.384 . S
N1312 C1308 1.427 . S
N1312 C1309 1.384 . S
N1313 C1305 1.427 . S
N1313 C1311 1.384 . S
H1314 C1320 0.930 . S
H1315 C1324 0.930 . S
H1316 C1329 0.929 . S
H1317 C1327 0.929 . S
H1318 C1322 0.929 . S
H1319 C1328 0.929 . S
C1320 H1314 0.930 . S
C1320 C1321 1.367 . S
C1320 C1328 1.378 . S
C1321 C1320 1.367 . S
C1321 C1329 1.433 . S
C1322 H1318 0.929 . S
C1322 C1324 1.378 . S
C1322 C1326 1.350 . S
C1323 C1326 1.463 . S
C1323 C1328 1.350 . S
C1323 N1331 1.427 . S
C1324 H1315 0.930 . S
C1324 C1322 1.378 . S
C1324 C1325 1.367 . S
C1325 C1324 1.367 . S
C1325 C1327 1.433 . S
C1326 C1322 1.350 . S
C1326 C1323 1.463 . S
C1326 N1330 1.427 . S
C1327 H1317 0.929 . S
C1327 C1325 1.433 . S
C1327 N1330 1.384 . S
C1328 H1319 0.929 . S
C1328 C1320 1.378 . S
C1328 C1323 1.350 . S
C1329 H1316 0.929 . S
C1329 C1321 1.433 . S
C1329 N1331 1.384 . S
N1330 C1326 1.427 . S
N1330 C1327 1.384 . S
N1331 C1323 1.427 . S
N1331 C1329 1.384 . S
H1332 C1338 0.930 . S
H1333 C1342 0.930 . S
H1334 C1347 0.929 . S
H1335 C1345 0.929 . S
H1336 C1340 0.929 . S
H1337 C1346 0.929 . S
C1338 H1332 0.930 . S
C1338 C1339 1.367 . S
C1338 C1346 1.378 . S
C1339 C1338 1.367 . S
C1339 C1347 1.433 . S
C1340 H1336 0.929 . S
C1340 C1342 1.378 . S
C1340 C1344 1.350 . S
C1341 C1344 1.463 . S
C1341 C1346 1.350 . S
C1341 N1349 1.427 . S
C1342 H1333 0.930 . S
C1342 C1340 1.378 . S
C1342 C1343 1.367 . S
C1343 C1342 1.367 . S
C1343 C1345 1.433 . S
C1344 C1340 1.350 . S
C1344 C1341 1.463 . S
C1344 N1348 1.427 . S
C1345 H1335 0.929 . S
C1345 C1343 1.433 . S
C1345 N1348 1.384 . S
C1346 H1337 0.929 . S
C1346 C1338 1.378 . S
C1346 C1341 1.350 . S
C1347 H1334 0.929 . S
C1347 C1339 1.433 . S
C1347 N1349 1.384 . S
N1348 C1344 1.427 . S
N1348 C1345 1.384 . S
N1349 C1341 1.427 . S
N1349 C1347 1.384 . S
H1350 C1356 0.930 . S
H1351 C1360 0.930 . S
H1352 C1365 0.929 . S
H1353 C1363 0.929 . S
H1354 C1358 0.929 . S
H1355 C1364 0.929 . S
C1356 H1350 0.930 . S
C1356 C1357 1.367 . S
C1356 C1364 1.378 . S
C1357 C1356 1.367 . S
C1357 C1365 1.433 . S
C1358 H1354 0.929 . S
C1358 C1360 1.378 . S
C1358 C1362 1.350 . S
C1359 C1362 1.463 . S
C1359 C1364 1.350 . S
C1359 N1367 1.427 . S
C1360 H1351 0.930 . S
C1360 C1358 1.378 . S
C1360 C1361 1.367 . S
C1361 C1360 1.367 . S
C1361 C1363 1.433 . S
C1362 C1358 1.350 . S
C1362 C1359 1.463 . S
C1362 N1366 1.427 . S
C1363 H1353 0.929 . S
C1363 C1361 1.433 . S
C1363 N1366 1.384 . S
C1364 H1355 0.929 . S
C1364 C1356 1.378 . S
C1364 C1359 1.350 . S
C1365 H1352 0.929 . S
C1365 C1357 1.433 . S
C1365 N1367 1.384 . S
N1366 C1362 1.427 . S
N1366 C1363 1.384 . S
N1367 C1359 1.427 . S
N1367 C1365 1.384 . S
H1368 C1374 0.930 . S
H1369 C1378 0.930 . S
H1370 C1383 0.929 . S
H1371 C1381 0.929 . S
H1372 C1376 0.929 . S
H1373 C1382 0.929 . S
C1374 H1368 0.930 . S
C1374 C1375 1.367 . S
C1374 C1382 1.378 . S
C1375 C1374 1.367 . S
C1375 C1383 1.433 . S
C1376 H1372 0.929 . S
C1376 C1378 1.378 . S
C1376 C1380 1.350 . S
C1377 C1380 1.463 . S
C1377 C1382 1.350 . S
C1377 N1385 1.427 . S
C1378 H1369 0.930 . S
C1378 C1376 1.378 . S
C1378 C1379 1.367 . S
C1379 C1378 1.367 . S
C1379 C1381 1.433 . S
C1380 C1376 1.350 . S
C1380 C1377 1.463 . S
C1380 N1384 1.427 . S
C1381 H1371 0.929 . S
C1381 C1379 1.433 . S
C1381 N1384 1.384 . S
C1382 H1373 0.929 . S
C1382 C1374 1.378 . S
C1382 C1377 1.350 . S
C1383 H1370 0.929 . S
C1383 C1375 1.433 . S
C1383 N1385 1.384 . S
N1384 C1380 1.427 . S
N1384 C1381 1.384 . S
N1385 C1377 1.427 . S
N1385 C1383 1.384 . S
H1386 C1392 0.930 . S
H1387 C1396 0.930 . S
H1388 C1401 0.929 . S
H1389 C1399 0.929 . S
H1390 C1394 0.929 . S
H1391 C1400 0.929 . S
C1392 H1386 0.930 . S
C1392 C1393 1.367 . S
C1392 C1400 1.378 . S
C1393 C1392 1.367 . S
C1393 C1401 1.433 . S
C1394 H1390 0.929 . S
C1394 C1396 1.378 . S
C1394 C1398 1.350 . S
C1395 C1398 1.463 . S
C1395 C1400 1.350 . S
C1395 N1403 1.427 . S
C1396 H1387 0.930 . S
C1396 C1394 1.378 . S
C1396 C1397 1.367 . S
C1397 C1396 1.367 . S
C1397 C1399 1.433 . S
C1398 C1394 1.350 . S
C1398 C1395 1.463 . S
C1398 N1402 1.427 . S
C1399 H1389 0.929 . S
C1399 C1397 1.433 . S
C1399 N1402 1.384 . S
C1400 H1391 0.929 . S
C1400 C1392 1.378 . S
C1400 C1395 1.350 . S
C1401 H1388 0.929 . S
C1401 C1393 1.433 . S
C1401 N1403 1.384 . S
N1402 C1398 1.427 . S
N1402 C1399 1.384 . S
N1403 C1395 1.427 . S
N1403 C1401 1.384 . S
H1404 C1410 0.930 . S
H1405 C1414 0.930 . S
H1406 C1419 0.929 . S
H1407 C1417 0.929 . S
H1408 C1412 0.929 . S
H1409 C1418 0.929 . S
C1410 H1404 0.930 . S
C1410 C1411 1.367 . S
C1410 C1418 1.378 . S
C1411 C1410 1.367 . S
C1411 C1419 1.433 . S
C1412 H1408 0.929 . S
C1412 C1414 1.378 . S
C1412 C1416 1.350 . S
C1413 C1416 1.463 . S
C1413 C1418 1.350 . S
C1413 N1421 1.427 . S
C1414 H1405 0.930 . S
C1414 C1412 1.378 . S
C1414 C1415 1.367 . S
C1415 C1414 1.367 . S
C1415 C1417 1.433 . S
C1416 C1412 1.350 . S
C1416 C1413 1.463 . S
C1416 N1420 1.427 . S
C1417 H1407 0.929 . S
C1417 C1415 1.433 . S
C1417 N1420 1.384 . S
C1418 H1409 0.929 . S
C1418 C1410 1.378 . S
C1418 C1413 1.350 . S
C1419 H1406 0.929 . S
C1419 C1411 1.433 . S
C1419 N1421 1.384 . S
N1420 C1416 1.427 . S
N1420 C1417 1.384 . S
N1421 C1413 1.427 . S
N1421 C1419 1.384 . S
H1422 C1428 0.930 . S
H1423 C1432 0.930 . S
H1424 C1437 0.929 . S
H1425 C1435 0.929 . S
H1426 C1430 0.929 . S
H1427 C1436 0.929 . S
C1428 H1422 0.930 . S
C1428 C1429 1.367 . S
C1428 C1436 1.378 . S
C1429 C1428 1.367 . S
C1429 C1437 1.433 . S
C1430 H1426 0.929 . S
C1430 C1432 1.378 . S
C1430 C1434 1.350 . S
C1431 C1434 1.463 . S
C1431 C1436 1.350 . S
C1431 N1439 1.427 . S
C1432 H1423 0.930 . S
C1432 C1430 1.378 . S
C1432 C1433 1.367 . S
C1433 C1432 1.367 . S
C1433 C1435 1.433 . S
C1434 C1430 1.350 . S
C1434 C1431 1.463 . S
C1434 N1438 1.427 . S
C1435 H1425 0.929 . S
C1435 C1433 1.433 . S
C1435 N1438 1.384 . S
C1436 H1427 0.929 . S
C1436 C1428 1.378 . S
C1436 C1431 1.350 . S
C1437 H1424 0.929 . S
C1437 C1429 1.433 . S
C1437 N1439 1.384 . S
N1438 C1434 1.427 . S
N1438 C1435 1.384 . S
N1439 C1431 1.427 . S
N1439 C1437 1.384 . S
H1440 C1446 0.930 . S
H1441 C1450 0.930 . S
H1442 C1455 0.929 . S
H1443 C1453 0.929 . S
H1444 C1448 0.929 . S
H1445 C1454 0.929 . S
C1446 H1440 0.930 . S
C1446 C1447 1.367 . S
C1446 C1454 1.378 . S
C1447 C1446 1.367 . S
C1447 C1455 1.433 . S
C1448 H1444 0.929 . S
C1448 C1450 1.378 . S
C1448 C1452 1.350 . S
C1449 C1452 1.463 . S
C1449 C1454 1.350 . S
C1449 N1457 1.427 . S
C1450 H1441 0.930 . S
C1450 C1448 1.378 . S
C1450 C1451 1.367 . S
C1451 C1450 1.367 . S
C1451 C1453 1.433 . S
C1452 C1448 1.350 . S
C1452 C1449 1.463 . S
C1452 N1456 1.427 . S
C1453 H1443 0.929 . S
C1453 C1451 1.433 . S
C1453 N1456 1.384 . S
C1454 H1445 0.929 . S
C1454 C1446 1.378 . S
C1454 C1449 1.350 . S
C1455 H1442 0.929 . S
C1455 C1447 1.433 . S
C1455 N1457 1.384 . S
N1456 C1452 1.427 . S
N1456 C1453 1.384 . S
N1457 C1449 1.427 . S
N1457 C1455 1.384 . S
H1458 C1464 0.930 . S
H1459 C1468 0.930 . S
H1460 C1473 0.929 . S
H1461 C1471 0.929 . S
H1462 C1466 0.929 . S
H1463 C1472 0.929 . S
C1464 H1458 0.930 . S
C1464 C1465 1.367 . S
C1464 C1472 1.378 . S
C1465 C1464 1.367 . S
C1465 C1473 1.433 . S
C1466 H1462 0.929 . S
C1466 C1468 1.378 . S
C1466 C1470 1.350 . S
C1467 C1470 1.463 . S
C1467 C1472 1.350 . S
C1467 N1475 1.427 . S
C1468 H1459 0.930 . S
C1468 C1466 1.378 . S
C1468 C1469 1.367 . S
C1469 C1468 1.367 . S
C1469 C1471 1.433 . S
C1470 C1466 1.350 . S
C1470 C1467 1.463 . S
C1470 N1474 1.427 . S
C1471 H1461 0.929 . S
C1471 C1469 1.433 . S
C1471 N1474 1.384 . S
C1472 H1463 0.929 . S
C1472 C1464 1.378 . S
C1472 C1467 1.350 . S
C1473 H1460 0.929 . S
C1473 C1465 1.433 . S
C1473 N1475 1.384 . S
N1474 C1470 1.427 . S
N1474 C1471 1.384 . S
N1475 C1467 1.427 . S
N1475 C1473 1.384 . S
H1476 C1482 0.930 . S
H1477 C1486 0.930 . S
H1478 C1491 0.929 . S
H1479 C1489 0.929 . S
H1480 C1484 0.929 . S
H1481 C1490 0.929 . S
C1482 H1476 0.930 . S
C1482 C1483 1.367 . S
C1482 C1490 1.378 . S
C1483 C1482 1.367 . S
C1483 C1491 1.433 . S
C1484 H1480 0.929 . S
C1484 C1486 1.378 . S
C1484 C1488 1.350 . S
C1485 C1488 1.463 . S
C1485 C1490 1.350 . S
C1485 N1493 1.427 . S
C1486 H1477 0.930 . S
C1486 C1484 1.378 . S
C1486 C1487 1.367 . S
C1487 C1486 1.367 . S
C1487 C1489 1.433 . S
C1488 C1484 1.350 . S
C1488 C1485 1.463 . S
C1488 N1492 1.427 . S
C1489 H1479 0.929 . S
C1489 C1487 1.433 . S
C1489 N1492 1.384 . S
C1490 H1481 0.929 . S
C1490 C1482 1.378 . S
C1490 C1485 1.350 . S
C1491 H1478 0.929 . S
C1491 C1483 1.433 . S
C1491 N1493 1.384 . S
N1492 C1488 1.427 . S
N1492 C1489 1.384 . S
N1493 C1485 1.427 . S
N1493 C1491 1.384 . S
H1494 C1500 0.930 . S
H1495 C1504 0.930 . S
H1496 C1509 0.929 . S
H1497 C1507 0.929 . S
H1498 C1502 0.929 . S
H1499 C1508 0.929 . S
C1500 H1494 0.930 . S
C1500 C1501 1.367 . S
C1500 C1508 1.378 . S
C1501 C1500 1.367 . S
C1501 C1509 1.433 . S
C1502 H1498 0.929 . S
C1502 C1504 1.378 . S
C1502 C1506 1.350 . S
C1503 C1506 1.463 . S
C1503 C1508 1.350 . S
C1503 N1511 1.427 . S
C1504 H1495 0.930 . S
C1504 C1502 1.378 . S
C1504 C1505 1.367 . S
C1505 C1504 1.367 . S
C1505 C1507 1.433 . S
C1506 C1502 1.350 . S
C1506 C1503 1.463 . S
C1506 N1510 1.427 . S
C1507 H1497 0.929 . S
C1507 C1505 1.433 . S
C1507 N1510 1.384 . S
C1508 H1499 0.929 . S
C1508 C1500 1.378 . S
C1508 C1503 1.350 . S
C1509 H1496 0.929 . S
C1509 C1501 1.433 . S
C1509 N1511 1.384 . S
N1510 C1506 1.427 . S
N1510 C1507 1.384 . S
N1511 C1503 1.427 . S
N1511 C1509 1.384 . S
H1512 C1518 0.930 . S
H1513 C1522 0.930 . S
H1514 C1527 0.929 . S
H1515 C1525 0.929 . S
H1516 C1520 0.929 . S
H1517 C1526 0.929 . S
C1518 H1512 0.930 . S
C1518 C1519 1.367 . S
C1518 C1526 1.378 . S
C1519 C1518 1.367 . S
C1519 C1527 1.433 . S
C1520 H1516 0.929 . S
C1520 C1522 1.378 . S
C1520 C1524 1.350 . S
C1521 C1524 1.463 . S
C1521 C1526 1.350 . S
C1521 N1529 1.427 . S
C1522 H1513 0.930 . S
C1522 C1520 1.378 . S
C1522 C1523 1.367 . S
C1523 C1522 1.367 . S
C1523 C1525 1.433 . S
C1524 C1520 1.350 . S
C1524 C1521 1.463 . S
C1524 N1528 1.427 . S
C1525 H1515 0.929 . S
C1525 C1523 1.433 . S
C1525 N1528 1.384 . S
C1526 H1517 0.929 . S
C1526 C1518 1.378 . S
C1526 C1521 1.350 . S
C1527 H1514 0.929 . S
C1527 C1519 1.433 . S
C1527 N1529 1.384 . S
N1528 C1524 1.427 . S
N1528 C1525 1.384 . S
N1529 C1521 1.427 . S
N1529 C1527 1.384 . S
H1530 C1536 0.930 . S
H1531 C1540 0.930 . S
H1532 C1545 0.929 . S
H1533 C1543 0.929 . S
H1534 C1538 0.929 . S
H1535 C1544 0.929 . S
C1536 H1530 0.930 . S
C1536 C1537 1.367 . S
C1536 C1544 1.378 . S
C1537 C1536 1.367 . S
C1537 C1545 1.433 . S
C1538 H1534 0.929 . S
C1538 C1540 1.378 . S
C1538 C1542 1.350 . S
C1539 C1542 1.463 . S
C1539 C1544 1.350 . S
C1539 N1547 1.427 . S
C1540 H1531 0.930 . S
C1540 C1538 1.378 . S
C1540 C1541 1.367 . S
C1541 C1540 1.367 . S
C1541 C1543 1.433 . S
C1542 C1538 1.350 . S
C1542 C1539 1.463 . S
C1542 N1546 1.427 . S
C1543 H1533 0.929 . S
C1543 C1541 1.433 . S
C1543 N1546 1.384 . S
C1544 H1535 0.929 . S
C1544 C1536 1.378 . S
C1544 C1539 1.350 . S
C1545 H1532 0.929 . S
C1545 C1537 1.433 . S
C1545 N1547 1.384 . S
N1546 C1542 1.427 . S
N1546 C1543 1.384 . S
N1547 C1539 1.427 . S
N1547 C1545 1.384 . S
H1548 C1554 0.930 . S
H1549 C1558 0.930 . S
H1550 C1563 0.929 . S
H1551 C1561 0.929 . S
H1552 C1556 0.929 . S
H1553 C1562 0.929 . S
C1554 H1548 0.930 . S
C1554 C1555 1.367 . S
C1554 C1562 1.378 . S
C1555 C1554 1.367 . S
C1555 C1563 1.433 . S
C1556 H1552 0.929 . S
C1556 C1558 1.378 . S
C1556 C1560 1.350 . S
C1557 C1560 1.463 . S
C1557 C1562 1.350 . S
C1557 N1565 1.427 . S
C1558 H1549 0.930 . S
C1558 C1556 1.378 . S
C1558 C1559 1.367 . S
C1559 C1558 1.367 . S
C1559 C1561 1.433 . S
C1560 C1556 1.350 . S
C1560 C1557 1.463 . S
C1560 N1564 1.427 . S
C1561 H1551 0.929 . S
C1561 C1559 1.433 . S
C1561 N1564 1.384 . S
C1562 H1553 0.929 . S
C1562 C1554 1.378 . S
C1562 C1557 1.350 . S
C1563 H1550 0.929 . S
C1563 C1555 1.433 . S
C1563 N1565 1.384 . S
N1564 C1560 1.427 . S
N1564 C1561 1.384 . S
N1565 C1557 1.427 . S
N1565 C1563 1.384 . S
H1566 C1572 0.930 . S
H1567 C1576 0.930 . S
H1568 C1581 0.929 . S
H1569 C1579 0.929 . S
H1570 C1574 0.929 . S
H1571 C1580 0.929 . S
C1572 H1566 0.930 . S
C1572 C1573 1.367 . S
C1572 C1580 1.378 . S
C1573 C1572 1.367 . S
C1573 C1581 1.433 . S
C1574 H1570 0.929 . S
C1574 C1576 1.378 . S
C1574 C1578 1.350 . S
C1575 C1578 1.463 . S
C1575 C1580 1.350 . S
C1575 N1583 1.427 . S
C1576 H1567 0.930 . S
C1576 C1574 1.378 . S
C1576 C1577 1.367 . S
C1577 C1576 1.367 . S
C1577 C1579 1.433 . S
C1578 C1574 1.350 . S
C1578 C1575 1.463 . S
C1578 N1582 1.427 . S
C1579 H1569 0.929 . S
C1579 C1577 1.433 . S
C1579 N1582 1.384 . S
C1580 H1571 0.929 . S
C1580 C1572 1.378 . S
C1580 C1575 1.350 . S
C1581 H1568 0.929 . S
C1581 C1573 1.433 . S
C1581 N1583 1.384 . S
N1582 C1578 1.427 . S
N1582 C1579 1.384 . S
N1583 C1575 1.427 . S
N1583 C1581 1.384 . S
H1584 C1590 0.930 . S
H1585 C1594 0.930 . S
H1586 C1599 0.929 . S
H1587 C1597 0.929 . S
H1588 C1592 0.929 . S
H1589 C1598 0.929 . S
C1590 H1584 0.930 . S
C1590 C1591 1.367 . S
C1590 C1598 1.378 . S
C1591 C1590 1.367 . S
C1591 C1599 1.433 . S
C1592 H1588 0.929 . S
C1592 C1594 1.378 . S
C1592 C1596 1.350 . S
C1593 C1596 1.463 . S
C1593 C1598 1.350 . S
C1593 N1601 1.427 . S
C1594 H1585 0.930 . S
C1594 C1592 1.378 . S
C1594 C1595 1.367 . S
C1595 C1594 1.367 . S
C1595 C1597 1.433 . S
C1596 C1592 1.350 . S
C1596 C1593 1.463 . S
C1596 N1600 1.427 . S
C1597 H1587 0.929 . S
C1597 C1595 1.433 . S
C1597 N1600 1.384 . S
C1598 H1589 0.929 . S
C1598 C1590 1.378 . S
C1598 C1593 1.350 . S
C1599 H1586 0.929 . S
C1599 C1591 1.433 . S
C1599 N1601 1.384 . S
N1600 C1596 1.427 . S
N1600 C1597 1.384 . S
N1601 C1593 1.427 . S
N1601 C1599 1.384 . S
H1602 C1608 0.930 . S
H1603 C1612 0.930 . S
H1604 C1617 0.929 . S
H1605 C1615 0.929 . S
H1606 C1610 0.929 . S
H1607 C1616 0.929 . S
C1608 H1602 0.930 . S
C1608 C1609 1.367 . S
C1608 C1616 1.378 . S
C1609 C1608 1.367 . S
C1609 C1617 1.433 . S
C1610 H1606 0.929 . S
C1610 C1612 1.378 . S
C1610 C1614 1.350 . S
C1611 C1614 1.463 . S
C1611 C1616 1.350 . S
C1611 N1619 1.427 . S
C1612 H1603 0.930 . S
C1612 C1610 1.378 . S
C1612 C1613 1.367 . S
C1613 C1612 1.367 . S
C1613 C1615 1.433 . S
C1614 C1610 1.350 . S
C1614 C1611 1.463 . S
C1614 N1618 1.427 . S
C1615 H1605 0.929 . S
C1615 C1613 1.433 . S
C1615 N1618 1.384 . S
C1616 H1607 0.929 . S
C1616 C1608 1.378 . S
C1616 C1611 1.350 . S
C1617 H1604 0.929 . S
C1617 C1609 1.433 . S
C1617 N1619 1.384 . S
N1618 C1614 1.427 . S
N1618 C1615 1.384 . S
N1619 C1611 1.427 . S
N1619 C1617 1.384 . S
H1620 C1626 0.930 . S
H1621 C1630 0.930 . S
H1622 C1635 0.929 . S
H1623 C1633 0.929 . S
H1624 C1628 0.929 . S
H1625 C1634 0.929 . S
C1626 H1620 0.930 . S
C1626 C1627 1.367 . S
C1626 C1634 1.378 . S
C1627 C1626 1.367 . S
C1627 C1635 1.433 . S
C1628 H1624 0.929 . S
C1628 C1630 1.378 . S
C1628 C1632 1.350 . S
C1629 C1632 1.463 . S
C1629 C1634 1.350 . S
C1629 N1637 1.427 . S
C1630 H1621 0.930 . S
C1630 C1628 1.378 . S
C1630 C1631 1.367 . S
C1631 C1630 1.367 . S
C1631 C1633 1.433 . S
C1632 C1628 1.350 . S
C1632 C1629 1.463 . S
C1632 N1636 1.427 . S
C1633 H1623 0.929 . S
C1633 C1631 1.433 . S
C1633 N1636 1.384 . S
C1634 H1625 0.929 . S
C1634 C1626 1.378 . S
C1634 C1629 1.350 . S
C1635 H1622 0.929 . S
C1635 C1627 1.433 . S
C1635 N1637 1.384 . S
N1636 C1632 1.427 . S
N1636 C1633 1.384 . S
N1637 C1629 1.427 . S
N1637 C1635 1.384 . S
H1638 C1644 0.930 . S
H1639 C1648 0.930 . S
H1640 C1653 0.929 . S
H1641 C1651 0.929 . S
H1642 C1646 0.929 . S
H1643 C1652 0.929 . S
C1644 H1638 0.930 . S
C1644 C1645 1.367 . S
C1644 C1652 1.378 . S
C1645 C1644 1.367 . S
C1645 C1653 1.433 . S
C1646 H1642 0.929 . S
C1646 C1648 1.378 . S
C1646 C1650 1.350 . S
C1647 C1650 1.463 . S
C1647 C1652 1.350 . S
C1647 N1655 1.427 . S
C1648 H1639 0.930 . S
C1648 C1646 1.378 . S
C1648 C1649 1.367 . S
C1649 C1648 1.367 . S
C1649 C1651 1.433 . S
C1650 C1646 1.350 . S
C1650 C1647 1.463 . S
C1650 N1654 1.427 . S
C1651 H1641 0.929 . S
C1651 C1649 1.433 . S
C1651 N1654 1.384 . S
C1652 H1643 0.929 . S
C1652 C1644 1.378 . S
C1652 C1647 1.350 . S
C1653 H1640 0.929 . S
C1653 C1645 1.433 . S
C1653 N1655 1.384 . S
N1654 C1650 1.427 . S
N1654 C1651 1.384 . S
N1655 C1647 1.427 . S
N1655 C1653 1.384 . S
H1656 C1662 0.930 . S
H1657 C1666 0.930 . S
H1658 C1671 0.929 . S
H1659 C1669 0.929 . S
H1660 C1664 0.929 . S
H1661 C1670 0.929 . S
C1662 H1656 0.930 . S
C1662 C1663 1.367 . S
C1662 C1670 1.378 . S
C1663 C1662 1.367 . S
C1663 C1671 1.433 . S
C1664 H1660 0.929 . S
C1664 C1666 1.378 . S
C1664 C1668 1.350 . S
C1665 C1668 1.463 . S
C1665 C1670 1.350 . S
C1665 N1673 1.427 . S
C1666 H1657 0.930 . S
C1666 C1664 1.378 . S
C1666 C1667 1.367 . S
C1667 C1666 1.367 . S
C1667 C1669 1.433 . S
C1668 C1664 1.350 . S
C1668 C1665 1.463 . S
C1668 N1672 1.427 . S
C1669 H1659 0.929 . S
C1669 C1667 1.433 . S
C1669 N1672 1.384 . S
C1670 H1661 0.929 . S
C1670 C1662 1.378 . S
C1670 C1665 1.350 . S
C1671 H1658 0.929 . S
C1671 C1663 1.433 . S
C1671 N1673 1.384 . S
N1672 C1668 1.427 . S
N1672 C1669 1.384 . S
N1673 C1665 1.427 . S
N1673 C1671 1.384 . S
H1674 C1680 0.930 . S
H1675 C1684 0.930 . S
H1676 C1689 0.929 . S
H1677 C1687 0.929 . S
H1678 C1682 0.929 . S
H1679 C1688 0.929 . S
C1680 H1674 0.930 . S
C1680 C1681 1.367 . S
C1680 C1688 1.378 . S
C1681 C1680 1.367 . S
C1681 C1689 1.433 . S
C1682 H1678 0.929 . S
C1682 C1684 1.378 . S
C1682 C1686 1.350 . S
C1683 C1686 1.463 . S
C1683 C1688 1.350 . S
C1683 N1691 1.427 . S
C1684 H1675 0.930 . S
C1684 C1682 1.378 . S
C1684 C1685 1.367 . S
C1685 C1684 1.367 . S
C1685 C1687 1.433 . S
C1686 C1682 1.350 . S
C1686 C1683 1.463 . S
C1686 N1690 1.427 . S
C1687 H1677 0.929 . S
C1687 C1685 1.433 . S
C1687 N1690 1.384 . S
C1688 H1679 0.929 . S
C1688 C1680 1.378 . S
C1688 C1683 1.350 . S
C1689 H1676 0.929 . S
C1689 C1681 1.433 . S
C1689 N1691 1.384 . S
N1690 C1686 1.427 . S
N1690 C1687 1.384 . S
N1691 C1683 1.427 . S
N1691 C1689 1.384 . S
H1692 C1698 0.930 . S
H1693 C1702 0.930 . S
H1694 C1707 0.929 . S
H1695 C1705 0.929 . S
H1696 C1700 0.929 . S
H1697 C1706 0.929 . S
C1698 H1692 0.930 . S
C1698 C1699 1.367 . S
C1698 C1706 1.378 . S
C1699 C1698 1.367 . S
C1699 C1707 1.433 . S
C1700 H1696 0.929 . S
C1700 C1702 1.378 . S
C1700 C1704 1.350 . S
C1701 C1704 1.463 . S
C1701 C1706 1.350 . S
C1701 N1709 1.427 . S
C1702 H1693 0.930 . S
C1702 C1700 1.378 . S
C1702 C1703 1.367 . S
C1703 C1702 1.367 . S
C1703 C1705 1.433 . S
C1704 C1700 1.350 . S
C1704 C1701 1.463 . S
C1704 N1708 1.427 . S
C1705 H1695 0.929 . S
C1705 C1703 1.433 . S
C1705 N1708 1.384 . S
C1706 H1697 0.929 . S
C1706 C1698 1.378 . S
C1706 C1701 1.350 . S
C1707 H1694 0.929 . S
C1707 C1699 1.433 . S
C1707 N1709 1.384 . S
N1708 C1704 1.427 . S
N1708 C1705 1.384 . S
N1709 C1701 1.427 . S
N1709 C1707 1.384 . S
H1710 C1716 0.930 . S
H1711 C1720 0.930 . S
H1712 C1725 0.929 . S
H1713 C1723 0.929 . S
H1714 C1718 0.929 . S
H1715 C1724 0.929 . S
C1716 H1710 0.930 . S
C1716 C1717 1.367 . S
C1716 C1724 1.378 . S
C1717 C1716 1.367 . S
C1717 C1725 1.433 . S
C1718 H1714 0.929 . S
C1718 C1720 1.378 . S
C1718 C1722 1.350 . S
C1719 C1722 1.463 . S
C1719 C1724 1.350 . S
C1719 N1727 1.427 . S
C1720 H1711 0.930 . S
C1720 C1718 1.378 . S
C1720 C1721 1.367 . S
C1721 C1720 1.367 . S
C1721 C1723 1.433 . S
C1722 C1718 1.350 . S
C1722 C1719 1.463 . S
C1722 N1726 1.427 . S
C1723 H1713 0.929 . S
C1723 C1721 1.433 . S
C1723 N1726 1.384 . S
C1724 H1715 0.929 . S
C1724 C1716 1.378 . S
C1724 C1719 1.350 . S
C1725 H1712 0.929 . S
C1725 C1717 1.433 . S
C1725 N1727 1.384 . S
N1726 C1722 1.427 . S
N1726 C1723 1.384 . S
N1727 C1719 1.427 . S
N1727 C1725 1.384 . S
H1728 C1734 0.930 . S
H1729 C1738 0.930 . S
H1730 C1743 0.929 . S
H1731 C1741 0.929 . S
H1732 C1736 0.929 . S
H1733 C1742 0.929 . S
C1734 H1728 0.930 . S
C1734 C1735 1.367 . S
C1734 C1742 1.378 . S
C1735 C1734 1.367 . S
C1735 C1743 1.433 . S
C1736 H1732 0.929 . S
C1736 C1738 1.378 . S
C1736 C1740 1.350 . S
C1737 C1740 1.463 . S
C1737 C1742 1.350 . S
C1737 N1745 1.427 . S
C1738 H1729 0.930 . S
C1738 C1736 1.378 . S
C1738 C1739 1.367 . S
C1739 C1738 1.367 . S
C1739 C1741 1.433 . S
C1740 C1736 1.350 . S
C1740 C1737 1.463 . S
C1740 N1744 1.427 . S
C1741 H1731 0.929 . S
C1741 C1739 1.433 . S
C1741 N1744 1.384 . S
C1742 H1733 0.929 . S
C1742 C1734 1.378 . S
C1742 C1737 1.350 . S
C1743 H1730 0.929 . S
C1743 C1735 1.433 . S
C1743 N1745 1.384 . S
N1744 C1740 1.427 . S
N1744 C1741 1.384 . S
N1745 C1737 1.427 . S
N1745 C1743 1.384 . S
H1746 C1752 0.930 . S
H1747 C1756 0.930 . S
H1748 C1761 0.929 . S
H1749 C1759 0.929 . S
H1750 C1754 0.929 . S
H1751 C1760 0.929 . S
C1752 H1746 0.930 . S
C1752 C1753 1.367 . S
C1752 C1760 1.378 . S
C1753 C1752 1.367 . S
C1753 C1761 1.433 . S
C1754 H1750 0.929 . S
C1754 C1756 1.378 . S
C1754 C1758 1.350 . S
C1755 C1758 1.463 . S
C1755 C1760 1.350 . S
C1755 N1763 1.427 . S
C1756 H1747 0.930 . S
C1756 C1754 1.378 . S
C1756 C1757 1.367 . S
C1757 C1756 1.367 . S
C1757 C1759 1.433 . S
C1758 C1754 1.350 . S
C1758 C1755 1.463 . S
C1758 N1762 1.427 . S
C1759 H1749 0.929 . S
C1759 C1757 1.433 . S
C1759 N1762 1.384 . S
C1760 H1751 0.929 . S
C1760 C1752 1.378 . S
C1760 C1755 1.350 . S
C1761 H1748 0.929 . S
C1761 C1753 1.433 . S
C1761 N1763 1.384 . S
N1762 C1758 1.427 . S
N1762 C1759 1.384 . S
N1763 C1755 1.427 . S
N1763 C1761 1.384 . S
H1764 C1770 0.930 . S
H1765 C1774 0.930 . S
H1766 C1779 0.929 . S
H1767 C1777 0.929 . S
H1768 C1772 0.929 . S
H1769 C1778 0.929 . S
C1770 H1764 0.930 . S
C1770 C1771 1.367 . S
C1770 C1778 1.378 . S
C1771 C1770 1.367 . S
C1771 C1779 1.433 . S
C1772 H1768 0.929 . S
C1772 C1774 1.378 . S
C1772 C1776 1.350 . S
C1773 C1776 1.463 . S
C1773 C1778 1.350 . S
C1773 N1781 1.427 . S
C1774 H1765 0.930 . S
C1774 C1772 1.378 . S
C1774 C1775 1.367 . S
C1775 C1774 1.367 . S
C1775 C1777 1.433 . S
C1776 C1772 1.350 . S
C1776 C1773 1.463 . S
C1776 N1780 1.427 . S
C1777 H1767 0.929 . S
C1777 C1775 1.433 . S
C1777 N1780 1.384 . S
C1778 H1769 0.929 . S
C1778 C1770 1.378 . S
C1778 C1773 1.350 . S
C1779 H1766 0.929 . S
C1779 C1771 1.433 . S
C1779 N1781 1.384 . S
N1780 C1776 1.427 . S
N1780 C1777 1.384 . S
N1781 C1773 1.427 . S
N1781 C1779 1.384 . S
H1782 C1788 0.930 . S
H1783 C1792 0.930 . S
H1784 C1797 0.929 . S
H1785 C1795 0.929 . S
H1786 C1790 0.929 . S
H1787 C1796 0.929 . S
C1788 H1782 0.930 . S
C1788 C1789 1.367 . S
C1788 C1796 1.378 . S
C1789 C1788 1.367 . S
C1789 C1797 1.433 . S
C1790 H1786 0.929 . S
C1790 C1792 1.378 . S
C1790 C1794 1.350 . S
C1791 C1794 1.463 . S
C1791 C1796 1.350 . S
C1791 N1799 1.427 . S
C1792 H1783 0.930 . S
C1792 C1790 1.378 . S
C1792 C1793 1.367 . S
C1793 C1792 1.367 . S
C1793 C1795 1.433 . S
C1794 C1790 1.350 . S
C1794 C1791 1.463 . S
C1794 N1798 1.427 . S
C1795 H1785 0.929 . S
C1795 C1793 1.433 . S
C1795 N1798 1.384 . S
C1796 H1787 0.929 . S
C1796 C1788 1.378 . S
C1796 C1791 1.350 . S
C1797 H1784 0.929 . S
C1797 C1789 1.433 . S
C1797 N1799 1.384 . S
N1798 C1794 1.427 . S
N1798 C1795 1.384 . S
N1799 C1791 1.427 . S
N1799 C1797 1.384 . S
H1800 C1806 0.930 . S
H1801 C1810 0.930 . S
H1802 C1815 0.929 . S
H1803 C1813 0.929 . S
H1804 C1808 0.929 . S
H1805 C1814 0.929 . S
C1806 H1800 0.930 . S
C1806 C1807 1.367 . S
C1806 C1814 1.378 . S
C1807 C1806 1.367 . S
C1807 C1815 1.433 . S
C1808 H1804 0.929 . S
C1808 C1810 1.378 . S
C1808 C1812 1.350 . S
C1809 C1812 1.463 . S
C1809 C1814 1.350 . S
C1809 N1817 1.427 . S
C1810 H1801 0.930 . S
C1810 C1808 1.378 . S
C1810 C1811 1.367 . S
C1811 C1810 1.367 . S
C1811 C1813 1.433 . S
C1812 C1808 1.350 . S
C1812 C1809 1.463 . S
C1812 N1816 1.427 . S
C1813 H1803 0.929 . S
C1813 C1811 1.433 . S
C1813 N1816 1.384 . S
C1814 H1805 0.929 . S
C1814 C1806 1.378 . S
C1814 C1809 1.350 . S
C1815 H1802 0.929 . S
C1815 C1807 1.433 . S
C1815 N1817 1.384 . S
N1816 C1812 1.427 . S
N1816 C1813 1.384 . S
N1817 C1809 1.427 . S
N1817 C1815 1.384 . S
H1818 C1824 0.930 . S
H1819 C1828 0.930 . S
H1820 C1833 0.929 1_554 S
H1821 C1831 0.929 . S
H1822 C1826 0.929 . S
H1823 C1832 0.929 . S
C1824 H1818 0.930 . S
C1824 C1825 1.367 . S
C1824 C1832 1.378 . S
C1825 C1824 1.367 . S
C1825 C1833 1.433 . S
C1826 H1822 0.929 . S
C1826 C1828 1.378 . S
C1826 C1830 1.350 . S
C1827 C1830 1.463 . S
C1827 C1832 1.350 . S
C1827 N1835 1.427 . S
C1828 H1819 0.930 . S
C1828 C1826 1.378 . S
C1828 C1829 1.367 . S
C1829 C1828 1.367 . S
C1829 C1831 1.433 . S
C1830 C1826 1.350 . S
C1830 C1827 1.463 . S
C1830 N1834 1.427 . S
C1831 H1821 0.929 . S
C1831 C1829 1.433 . S
C1831 N1834 1.384 . S
C1832 H1823 0.929 . S
C1832 C1824 1.378 . S
C1832 C1827 1.350 . S
C1833 H1820 0.929 1_556 S
C1833 C1825 1.433 . S
C1833 N1835 1.384 . S
N1834 C1830 1.427 . S
N1834 C1831 1.384 . S
N1835 C1827 1.427 . S
N1835 C1833 1.384 . S
H1836 C1842 0.930 . S
H1837 C1846 0.930 . S
H1838 C1851 0.929 . S
H1839 C1849 0.929 . S
H1840 C1844 0.929 . S
H1841 C1850 0.929 . S
C1842 H1836 0.930 . S
C1842 C1843 1.367 . S
C1842 C1850 1.378 . S
C1843 C1842 1.367 . S
C1843 C1851 1.433 . S
C1844 H1840 0.929 . S
C1844 C1846 1.378 . S
C1844 C1848 1.350 . S
C1845 C1848 1.463 . S
C1845 C1850 1.350 . S
C1845 N1853 1.427 . S
C1846 H1837 0.930 . S
C1846 C1844 1.378 . S
C1846 C1847 1.367 . S
C1847 C1846 1.367 . S
C1847 C1849 1.433 . S
C1848 C1844 1.350 . S
C1848 C1845 1.463 . S
C1848 N1852 1.427 . S
C1849 H1839 0.929 . S
C1849 C1847 1.433 . S
C1849 N1852 1.384 . S
C1850 H1841 0.929 . S
C1850 C1842 1.378 . S
C1850 C1845 1.350 . S
C1851 H1838 0.929 . S
C1851 C1843 1.433 . S
C1851 N1853 1.384 . S
N1852 C1848 1.427 . S
N1852 C1849 1.384 . S
N1853 C1845 1.427 . S
N1853 C1851 1.384 . S
H1854 C1860 0.930 . S
H1855 C1864 0.930 . S
H1856 C1869 0.929 1_554 S
H1857 C1867 0.929 . S
H1858 C1862 0.929 . S
H1859 C1868 0.929 . S
C1860 H1854 0.930 . S
C1860 C1861 1.367 . S
C1860 C1868 1.378 . S
C1861 C1860 1.367 . S
C1861 C1869 1.433 . S
C1862 H1858 0.929 . S
C1862 C1864 1.378 . S
C1862 C1866 1.350 . S
C1863 C1866 1.463 . S
C1863 C1868 1.350 . S
C1863 N1871 1.427 . S
C1864 H1855 0.930 . S
C1864 C1862 1.378 . S
C1864 C1865 1.367 . S
C1865 C1864 1.367 . S
C1865 C1867 1.433 . S
C1866 C1862 1.350 . S
C1866 C1863 1.463 . S
C1866 N1870 1.427 . S
C1867 H1857 0.929 . S
C1867 C1865 1.433 . S
C1867 N1870 1.384 . S
C1868 H1859 0.929 . S
C1868 C1860 1.378 . S
C1868 C1863 1.350 . S
C1869 H1856 0.929 1_556 S
C1869 C1861 1.433 . S
C1869 N1871 1.384 . S
N1870 C1866 1.427 . S
N1870 C1867 1.384 . S
N1871 C1863 1.427 . S
N1871 C1869 1.384 . S
H1872 C1878 0.930 1_554 S
H1873 C1882 0.930 . S
H1874 C1887 0.929 . S
H1875 C1885 0.929 . S
H1876 C1880 0.929 . S
H1877 C1886 0.929 . S
C1878 H1872 0.930 1_556 S
C1878 C1879 1.367 . S
C1878 C1886 1.378 . S
C1879 C1878 1.367 . S
C1879 C1887 1.433 . S
C1880 H1876 0.929 . S
C1880 C1882 1.378 . S
C1880 C1884 1.350 . S
C1881 C1884 1.463 . S
C1881 C1886 1.350 . S
C1881 N1889 1.427 . S
C1882 H1873 0.930 . S
C1882 C1880 1.378 . S
C1882 C1883 1.367 . S
C1883 C1882 1.367 . S
C1883 C1885 1.433 . S
C1884 C1880 1.350 . S
C1884 C1881 1.463 . S
C1884 N1888 1.427 . S
C1885 H1875 0.929 . S
C1885 C1883 1.433 . S
C1885 N1888 1.384 . S
C1886 H1877 0.929 . S
C1886 C1878 1.378 . S
C1886 C1881 1.350 . S
C1887 H1874 0.929 . S
C1887 C1879 1.433 . S
C1887 N1889 1.384 . S
N1888 C1884 1.427 . S
N1888 C1885 1.384 . S
N1889 C1881 1.427 . S
N1889 C1887 1.384 . S
H1890 C1896 0.930 . S
H1891 C1900 0.930 . S
H1892 C1905 0.929 1_554 S
H1893 C1903 0.929 . S
H1894 C1898 0.929 . S
H1895 C1904 0.929 . S
C1896 H1890 0.930 . S
C1896 C1897 1.367 . S
C1896 C1904 1.378 . S
C1897 C1896 1.367 . S
C1897 C1905 1.433 . S
C1898 H1894 0.929 . S
C1898 C1900 1.378 . S
C1898 C1902 1.350 . S
C1899 C1902 1.463 . S
C1899 C1904 1.350 . S
C1899 N1907 1.427 . S
C1900 H1891 0.930 . S
C1900 C1898 1.378 . S
C1900 C1901 1.367 . S
C1901 C1900 1.367 . S
C1901 C1903 1.433 . S
C1902 C1898 1.350 . S
C1902 C1899 1.463 . S
C1902 N1906 1.427 . S
C1903 H1893 0.929 . S
C1903 C1901 1.433 . S
C1903 N1906 1.384 . S
C1904 H1895 0.929 . S
C1904 C1896 1.378 . S
C1904 C1899 1.350 . S
C1905 H1892 0.929 1_556 S
C1905 C1897 1.433 . S
C1905 N1907 1.384 . S
N1906 C1902 1.427 . S
N1906 C1903 1.384 . S
N1907 C1899 1.427 . S
N1907 C1905 1.384 . S
H1908 C1914 0.930 1_554 S
H1909 C1918 0.930 . S
H1910 C1923 0.929 . S
H1911 C1921 0.929 . S
H1912 C1916 0.929 . S
H1913 C1922 0.929 . S
C1914 H1908 0.930 1_556 S
C1914 C1915 1.367 . S
C1914 C1922 1.378 . S
C1915 C1914 1.367 . S
C1915 C1923 1.433 . S
C1916 H1912 0.929 . S
C1916 C1918 1.378 . S
C1916 C1920 1.350 . S
C1917 C1920 1.463 . S
C1917 C1922 1.350 . S
C1917 N1925 1.427 . S
C1918 H1909 0.930 . S
C1918 C1916 1.378 . S
C1918 C1919 1.367 . S
C1919 C1918 1.367 . S
C1919 C1921 1.433 . S
C1920 C1916 1.350 . S
C1920 C1917 1.463 . S
C1920 N1924 1.427 . S
C1921 H1911 0.929 . S
C1921 C1919 1.433 . S
C1921 N1924 1.384 . S
C1922 H1913 0.929 . S
C1922 C1914 1.378 . S
C1922 C1917 1.350 . S
C1923 H1910 0.929 . S
C1923 C1915 1.433 . S
C1923 N1925 1.384 . S
N1924 C1920 1.427 . S
N1924 C1921 1.384 . S
N1925 C1917 1.427 . S
N1925 C1923 1.384 . S
H1926 C1932 0.930 . S
H1927 C1936 0.930 . S
H1928 C1941 0.929 . S
H1929 C1939 0.929 . S
H1930 C1934 0.929 . S
H1931 C1940 0.929 . S
C1932 H1926 0.930 . S
C1932 C1933 1.367 . S
C1932 C1940 1.378 . S
C1933 C1932 1.367 . S
C1933 C1941 1.433 . S
C1934 H1930 0.929 . S
C1934 C1936 1.378 . S
C1934 C1938 1.350 . S
C1935 C1938 1.463 . S
C1935 C1940 1.350 . S
C1935 N1943 1.427 . S
C1936 H1927 0.930 . S
C1936 C1934 1.378 . S
C1936 C1937 1.367 . S
C1937 C1936 1.367 . S
C1937 C1939 1.433 . S
C1938 C1934 1.350 . S
C1938 C1935 1.463 . S
C1938 N1942 1.427 . S
C1939 H1929 0.929 . S
C1939 C1937 1.433 . S
C1939 N1942 1.384 . S
C1940 H1931 0.929 . S
C1940 C1932 1.378 . S
C1940 C1935 1.350 . S
C1941 H1928 0.929 . S
C1941 C1933 1.433 . S
C1941 N1943 1.384 . S
N1942 C1938 1.427 . S
N1942 C1939 1.384 . S
N1943 C1935 1.427 . S
N1943 C1941 1.384 . S
H1944 C1950 0.930 . S
H1945 C1954 0.930 . S
H1946 C1959 0.929 . S
H1947 C1957 0.929 . S
H1948 C1952 0.929 . S
H1949 C1958 0.929 . S
C1950 H1944 0.930 . S
C1950 C1951 1.367 . S
C1950 C1958 1.378 . S
C1951 C1950 1.367 . S
C1951 C1959 1.433 . S
C1952 H1948 0.929 . S
C1952 C1954 1.378 . S
C1952 C1956 1.350 . S
C1953 C1956 1.463 . S
C1953 C1958 1.350 . S
C1953 N1961 1.427 . S
C1954 H1945 0.930 . S
C1954 C1952 1.378 . S
C1954 C1955 1.367 . S
C1955 C1954 1.367 . S
C1955 C1957 1.433 . S
C1956 C1952 1.350 . S
C1956 C1953 1.463 . S
C1956 N1960 1.427 . S
C1957 H1947 0.929 . S
C1957 C1955 1.433 . S
C1957 N1960 1.384 . S
C1958 H1949 0.929 . S
C1958 C1950 1.378 . S
C1958 C1953 1.350 . S
C1959 H1946 0.929 . S
C1959 C1951 1.433 . S
C1959 N1961 1.384 . S
N1960 C1956 1.427 . S
N1960 C1957 1.384 . S
N1961 C1953 1.427 . S
N1961 C1959 1.384 . S
H1962 C1968 0.930 . S
H1963 C1972 0.930 . S
H1964 C1977 0.929 . S
H1965 C1975 0.929 . S
H1966 C1970 0.929 . S
H1967 C1976 0.929 . S
C1968 H1962 0.930 . S
C1968 C1969 1.367 . S
C1968 C1976 1.378 . S
C1969 C1968 1.367 . S
C1969 C1977 1.433 . S
C1970 H1966 0.929 . S
C1970 C1972 1.378 . S
C1970 C1974 1.350 . S
C1971 C1974 1.463 . S
C1971 C1976 1.350 . S
C1971 N1979 1.427 . S
C1972 H1963 0.930 . S
C1972 C1970 1.378 . S
C1972 C1973 1.367 . S
C1973 C1972 1.367 . S
C1973 C1975 1.433 . S
C1974 C1970 1.350 . S
C1974 C1971 1.463 . S
C1974 N1978 1.427 . S
C1975 H1965 0.929 . S
C1975 C1973 1.433 . S
C1975 N1978 1.384 . S
C1976 H1967 0.929 . S
C1976 C1968 1.378 . S
C1976 C1971 1.350 . S
C1977 H1964 0.929 . S
C1977 C1969 1.433 . S
C1977 N1979 1.384 . S
N1978 C1974 1.427 . S
N1978 C1975 1.384 . S
N1979 C1971 1.427 . S
N1979 C1977 1.384 . S
H1980 C1986 0.930 . S
H1981 C1990 0.930 . S
H1982 C1995 0.929 . S
H1983 C1993 0.929 . S
H1984 C1988 0.929 . S
H1985 C1994 0.929 . S
C1986 H1980 0.930 . S
C1986 C1987 1.367 . S
C1986 C1994 1.378 . S
C1987 C1986 1.367 . S
C1987 C1995 1.433 . S
C1988 H1984 0.929 . S
C1988 C1990 1.378 . S
C1988 C1992 1.350 . S
C1989 C1992 1.463 . S
C1989 C1994 1.350 . S
C1989 N1997 1.427 . S
C1990 H1981 0.930 . S
C1990 C1988 1.378 . S
C1990 C1991 1.367 . S
C1991 C1990 1.367 . S
C1991 C1993 1.433 . S
C1992 C1988 1.350 . S
C1992 C1989 1.463 . S
C1992 N1996 1.427 . S
C1993 H1983 0.929 . S
C1993 C1991 1.433 . S
C1993 N1996 1.384 . S
C1994 H1985 0.929 . S
C1994 C1986 1.378 . S
C1994 C1989 1.350 . S
C1995 H1982 0.929 . S
C1995 C1987 1.433 . S
C1995 N1997 1.384 . S
N1996 C1992 1.427 . S
N1996 C1993 1.384 . S
N1997 C1989 1.427 . S
N1997 C1995 1.384 . S
H1998 C2004 0.930 . S
H1999 C2008 0.930 . S
H2000 C2013 0.929 . S
H2001 C2011 0.929 . S
H2002 C2006 0.929 . S
H2003 C2012 0.929 . S
C2004 H1998 0.930 . S
C2004 C2005 1.367 . S
C2004 C2012 1.378 . S
C2005 C2004 1.367 . S
C2005 C2013 1.433 . S
C2006 H2002 0.929 . S
C2006 C2008 1.378 . S
C2006 C2010 1.350 . S
C2007 C2010 1.463 . S
C2007 C2012 1.350 . S
C2007 N2015 1.427 . S
C2008 H1999 0.930 . S
C2008 C2006 1.378 . S
C2008 C2009 1.367 . S
C2009 C2008 1.367 . S
C2009 C2011 1.433 . S
C2010 C2006 1.350 . S
C2010 C2007 1.463 . S
C2010 N2014 1.427 . S
C2011 H2001 0.929 . S
C2011 C2009 1.433 . S
C2011 N2014 1.384 . S
C2012 H2003 0.929 . S
C2012 C2004 1.378 . S
C2012 C2007 1.350 . S
C2013 H2000 0.929 . S
C2013 C2005 1.433 . S
C2013 N2015 1.384 . S
N2014 C2010 1.427 . S
N2014 C2011 1.384 . S
N2015 C2007 1.427 . S
N2015 C2013 1.384 . S
H2016 C2022 0.930 . S
H2017 C2026 0.930 . S
H2018 C2031 0.929 . S
H2019 C2029 0.929 . S
H2020 C2024 0.929 . S
H2021 C2030 0.929 . S
C2022 H2016 0.930 . S
C2022 C2023 1.367 . S
C2022 C2030 1.378 . S
C2023 C2022 1.367 . S
C2023 C2031 1.433 . S
C2024 H2020 0.929 . S
C2024 C2026 1.378 . S
C2024 C2028 1.350 . S
C2025 C2028 1.463 . S
C2025 C2030 1.350 . S
C2025 N2033 1.427 . S
C2026 H2017 0.930 . S
C2026 C2024 1.378 . S
C2026 C2027 1.367 . S
C2027 C2026 1.367 . S
C2027 C2029 1.433 . S
C2028 C2024 1.350 . S
C2028 C2025 1.463 . S
C2028 N2032 1.427 . S
C2029 H2019 0.929 . S
C2029 C2027 1.433 . S
C2029 N2032 1.384 . S
C2030 H2021 0.929 . S
C2030 C2022 1.378 . S
C2030 C2025 1.350 . S
C2031 H2018 0.929 . S
C2031 C2023 1.433 . S
C2031 N2033 1.384 . S
N2032 C2028 1.427 . S
N2032 C2029 1.384 . S
N2033 C2025 1.427 . S
N2033 C2031 1.384 . S
H2034 C2040 0.911 1_655 S
H2035 C2044 0.930 . S
H2036 C2049 0.929 . S
H2037 C2047 0.929 . S
H2038 C2042 0.929 . S
H2039 C2048 0.929 . S
C2040 H2034 0.911 1_455 S
C2040 C2041 1.413 . S
C2040 C2048 1.352 1_455 S
C2041 C2040 1.413 . S
C2041 C2049 1.433 . S
C2042 H2038 0.929 . S
C2042 C2044 1.378 . S
C2042 C2046 1.350 . S
C2043 C2046 1.463 . S
C2043 C2048 1.350 1_455 S
C2043 N2051 1.427 . S
C2044 H2035 0.930 . S
C2044 C2042 1.378 . S
C2044 C2045 1.367 . S
C2045 C2044 1.367 . S
C2045 C2047 1.433 1_455 S
C2046 C2042 1.350 . S
C2046 C2043 1.463 . S
C2046 N2050 1.427 1_455 S
C2047 H2037 0.929 . S
C2047 C2045 1.433 1_655 S
C2047 N2050 1.384 . S
C2048 H2039 0.929 . S
C2048 C2040 1.352 1_655 S
C2048 C2043 1.350 1_655 S
C2049 H2036 0.929 . S
C2049 C2041 1.433 . S
C2049 N2051 1.384 . S
N2050 C2046 1.427 1_655 S
N2050 C2047 1.384 . S
N2051 C2043 1.427 . S
N2051 C2049 1.384 . S
H2052 C2058 0.930 . S
H2053 C2062 0.930 . S
H2054 C2067 0.929 . S
H2055 C2065 0.929 . S
H2056 C2060 0.929 . S
H2057 C2066 0.929 . S
C2058 H2052 0.930 . S
C2058 C2059 1.367 . S
C2058 C2066 1.378 . S
C2059 C2058 1.367 . S
C2059 C2067 1.433 . S
C2060 H2056 0.929 . S
C2060 C2062 1.378 . S
C2060 C2064 1.350 . S
C2061 C2064 1.463 . S
C2061 C2066 1.350 . S
C2061 N2069 1.427 . S
C2062 H2053 0.930 . S
C2062 C2060 1.378 . S
C2062 C2063 1.367 . S
C2063 C2062 1.367 . S
C2063 C2065 1.433 . S
C2064 C2060 1.350 . S
C2064 C2061 1.463 . S
C2064 N2068 1.427 . S
C2065 H2055 0.929 . S
C2065 C2063 1.433 . S
C2065 N2068 1.384 . S
C2066 H2057 0.929 . S
C2066 C2058 1.378 . S
C2066 C2061 1.350 . S
C2067 H2054 0.929 . S
C2067 C2059 1.433 . S
C2067 N2069 1.384 . S
N2068 C2064 1.427 . S
N2068 C2065 1.384 . S
N2069 C2061 1.427 . S
N2069 C2067 1.384 . S
H2070 C2076 0.930 . S
H2071 C2080 0.930 . S
H2072 C2085 0.929 . S
H2073 C2083 0.931 1_545 S
H2074 C2078 0.929 . S
H2075 C2084 0.929 . S
C2076 H2070 0.930 . S
C2076 C2077 1.367 . S
C2076 C2084 1.378 . S
C2077 C2076 1.367 . S
C2077 C2085 1.433 . S
C2078 H2074 0.929 . S
C2078 C2080 1.378 . S
C2078 C2082 1.350 . S
C2079 C2082 1.463 . S
C2079 C2084 1.350 . S
C2079 N2087 1.427 . S
C2080 H2071 0.930 . S
C2080 C2078 1.378 . S
C2080 C2081 1.367 . S
C2081 C2080 1.367 . S
C2081 C2083 1.433 . S
C2082 C2078 1.350 . S
C2082 C2079 1.463 . S
C2082 N2086 1.427 . S
C2083 H2073 0.931 1_565 S
C2083 C2081 1.433 . S
C2083 N2086 1.384 . S
C2084 H2075 0.929 . S
C2084 C2076 1.378 . S
C2084 C2079 1.350 . S
C2085 H2072 0.929 . S
C2085 C2077 1.433 . S
C2085 N2087 1.384 . S
N2086 C2082 1.427 . S
N2086 C2083 1.384 . S
N2087 C2079 1.427 . S
N2087 C2085 1.384 . S
H2088 C2094 0.930 . S
H2089 C2098 0.930 . S
H2090 C2103 0.947 . S
H2091 C2101 0.929 . S
H2092 C2096 0.929 . S
H2093 C2102 0.929 . S
C2094 H2088 0.930 . S
C2094 C2095 1.367 . S
C2094 C2102 1.378 . S
C2095 C2094 1.367 . S
C2095 C2103 1.393 1_565 S
C2096 H2092 0.929 . S
C2096 C2098 1.378 . S
C2096 C2100 1.350 1_545 S
C2097 C2100 1.463 . S
C2097 C2102 1.350 . S
C2097 N2105 1.427 1_565 S
C2098 H2089 0.930 . S
C2098 C2096 1.378 . S
C2098 C2099 1.367 1_545 S
C2099 C2098 1.367 1_565 S
C2099 C2101 1.433 . S
C2100 C2096 1.350 1_565 S
C2100 C2097 1.463 . S
C2100 N2104 1.427 . S
C2101 H2091 0.929 . S
C2101 C2099 1.433 . S
C2101 N2104 1.384 . S
C2102 H2093 0.929 . S
C2102 C2094 1.378 . S
C2102 C2097 1.350 . S
C2103 H2090 0.947 . S
C2103 C2095 1.393 1_545 S
C2103 N2105 1.406 . S
N2104 C2100 1.427 . S
N2104 C2101 1.384 . S
N2105 C2097 1.427 1_545 S
N2105 C2103 1.406 . S
H2106 C2112 0.930 1_655 S
H2107 C2116 0.930 . S
H2108 C2121 0.929 . S
H2109 C2119 0.929 . S
H2110 C2114 0.929 . S
H2111 C2120 0.929 1_655 S
C2112 H2106 0.930 1_455 S
C2112 C2113 1.367 . S
C2112 C2120 1.378 . S
C2113 C2112 1.367 . S
C2113 C2121 1.433 . S
C2114 H2110 0.929 . S
C2114 C2116 1.378 . S
C2114 C2118 1.350 . S
C2115 C2118 1.463 . S
C2115 C2120 1.350 . S
C2115 N2123 1.427 . S
C2116 H2107 0.930 . S
C2116 C2114 1.378 . S
C2116 C2117 1.367 . S
C2117 C2116 1.367 . S
C2117 C2119 1.433 1_455 S
C2118 C2114 1.350 . S
C2118 C2115 1.463 . S
C2118 N2122 1.427 1_455 S
C2119 H2109 0.929 . S
C2119 C2117 1.433 1_655 S
C2119 N2122 1.384 . S
C2120 H2111 0.929 1_455 S
C2120 C2112 1.378 . S
C2120 C2115 1.350 . S
C2121 H2108 0.929 . S
C2121 C2113 1.433 . S
C2121 N2123 1.384 . S
N2122 C2118 1.427 1_655 S
N2122 C2119 1.384 . S
N2123 C2115 1.427 . S
N2123 C2121 1.384 . S
H2124 C2130 0.930 . S
H2125 C2134 0.930 . S
H2126 C2139 0.929 . S
H2127 C2137 0.929 . S
H2128 C2132 0.929 . S
H2129 C2138 0.929 . S
C2130 H2124 0.930 . S
C2130 C2131 1.367 . S
C2130 C2138 1.378 . S
C2131 C2130 1.367 . S
C2131 C2139 1.433 . S
C2132 H2128 0.929 . S
C2132 C2134 1.378 . S
C2132 C2136 1.350 . S
C2133 C2136 1.463 . S
C2133 C2138 1.350 . S
C2133 N2141 1.427 . S
C2134 H2125 0.930 . S
C2134 C2132 1.378 . S
C2134 C2135 1.367 . S
C2135 C2134 1.367 . S
C2135 C2137 1.433 . S
C2136 C2132 1.350 . S
C2136 C2133 1.463 . S
C2136 N2140 1.427 . S
C2137 H2127 0.929 . S
C2137 C2135 1.433 . S
C2137 N2140 1.384 . S
C2138 H2129 0.929 . S
C2138 C2130 1.378 . S
C2138 C2133 1.350 . S
C2139 H2126 0.929 . S
C2139 C2131 1.433 . S
C2139 N2141 1.384 . S
N2140 C2136 1.427 . S
N2140 C2137 1.384 . S
N2141 C2133 1.427 . S
N2141 C2139 1.384 . S
H2142 C2148 0.930 . S
H2143 C2152 0.930 . S
H2144 C2157 0.929 . S
H2145 C2155 0.929 . S
H2146 C2150 0.929 . S
H2147 C2156 0.929 . S
C2148 H2142 0.930 . S
C2148 C2149 1.367 . S
C2148 C2156 1.378 . S
C2149 C2148 1.367 . S
C2149 C2157 1.433 . S
C2150 H2146 0.929 . S
C2150 C2152 1.378 . S
C2150 C2154 1.350 . S
C2151 C2154 1.463 . S
C2151 C2156 1.350 . S
C2151 N2159 1.427 . S
C2152 H2143 0.930 . S
C2152 C2150 1.378 . S
C2152 C2153 1.367 . S
C2153 C2152 1.367 . S
C2153 C2155 1.433 . S
C2154 C2150 1.350 . S
C2154 C2151 1.463 . S
C2154 N2158 1.427 . S
C2155 H2145 0.929 . S
C2155 C2153 1.433 . S
C2155 N2158 1.384 . S
C2156 H2147 0.929 . S
C2156 C2148 1.378 . S
C2156 C2151 1.350 . S
C2157 H2144 0.929 . S
C2157 C2149 1.433 . S
C2157 N2159 1.384 . S
N2158 C2154 1.427 . S
N2158 C2155 1.384 . S
N2159 C2151 1.427 . S
N2159 C2157 1.384 . S
H2160 C2166 0.930 . S
H2161 C2170 0.930 . S
H2162 C2175 0.929 . S
H2163 C2173 0.929 . S
H2164 C2168 0.929 . S
H2165 C2174 0.929 . S
C2166 H2160 0.930 . S
C2166 C2167 1.367 . S
C2166 C2174 1.378 . S
C2167 C2166 1.367 . S
C2167 C2175 1.433 . S
C2168 H2164 0.929 . S
C2168 C2170 1.378 . S
C2168 C2172 1.350 . S
C2169 C2172 1.463 . S
C2169 C2174 1.350 . S
C2169 N2177 1.427 . S
C2170 H2161 0.930 . S
C2170 C2168 1.378 . S
C2170 C2171 1.367 . S
C2171 C2170 1.367 . S
C2171 C2173 1.433 . S
C2172 C2168 1.350 . S
C2172 C2169 1.463 . S
C2172 N2176 1.427 . S
C2173 H2163 0.929 . S
C2173 C2171 1.433 . S
C2173 N2176 1.384 . S
C2174 H2165 0.929 . S
C2174 C2166 1.378 . S
C2174 C2169 1.350 . S
C2175 H2162 0.929 . S
C2175 C2167 1.433 . S
C2175 N2177 1.384 . S
N2176 C2172 1.427 . S
N2176 C2173 1.384 . S
N2177 C2169 1.427 . S
N2177 C2175 1.384 . S
H2178 C2184 0.930 . S
H2179 C2188 0.930 . S
H2180 C2193 0.929 . S
H2181 C2191 0.929 . S
H2182 C2186 0.929 . S
H2183 C2192 0.929 . S
C2184 H2178 0.930 . S
C2184 C2185 1.367 . S
C2184 C2192 1.378 . S
C2185 C2184 1.367 . S
C2185 C2193 1.433 . S
C2186 H2182 0.929 . S
C2186 C2188 1.378 . S
C2186 C2190 1.350 . S
C2187 C2190 1.463 . S
C2187 C2192 1.350 . S
C2187 N2195 1.427 . S
C2188 H2179 0.930 . S
C2188 C2186 1.378 . S
C2188 C2189 1.367 . S
C2189 C2188 1.367 . S
C2189 C2191 1.433 . S
C2190 C2186 1.350 . S
C2190 C2187 1.463 . S
C2190 N2194 1.427 . S
C2191 H2181 0.929 . S
C2191 C2189 1.433 . S
C2191 N2194 1.384 . S
C2192 H2183 0.929 . S
C2192 C2184 1.378 . S
C2192 C2187 1.350 . S
C2193 H2180 0.929 . S
C2193 C2185 1.433 . S
C2193 N2195 1.384 . S
N2194 C2190 1.427 . S
N2194 C2191 1.384 . S
N2195 C2187 1.427 . S
N2195 C2193 1.384 . S
H2196 C2202 0.930 . S
H2197 C2206 0.930 . S
H2198 C2211 0.929 . S
H2199 C2209 0.929 . S
H2200 C2204 0.952 . S
H2201 C2210 0.929 . S
C2202 H2196 0.930 . S
C2202 C2203 1.367 . S
C2202 C2210 1.378 . S
C2203 C2202 1.367 . S
C2203 C2211 1.433 . S
C2204 H2200 0.952 . S
C2204 C2206 1.424 . S
C2204 C2208 1.286 1_565 S
C2205 C2208 1.463 . S
C2205 C2210 1.350 . S
C2205 N2213 1.427 . S
C2206 H2197 0.930 . S
C2206 C2204 1.424 . S
C2206 C2207 1.367 1_565 S
C2207 C2206 1.367 1_545 S
C2207 C2209 1.433 . S
C2208 C2204 1.286 1_545 S
C2208 C2205 1.463 . S
C2208 N2212 1.427 . S
C2209 H2199 0.929 . S
C2209 C2207 1.433 . S
C2209 N2212 1.384 . S
C2210 H2201 0.929 . S
C2210 C2202 1.378 . S
C2210 C2205 1.350 . S
C2211 H2198 0.929 . S
C2211 C2203 1.433 . S
C2211 N2213 1.384 . S
N2212 C2208 1.427 . S
N2212 C2209 1.384 . S
N2213 C2205 1.427 . S
N2213 C2211 1.384 . S
H2214 C2220 0.930 . S
H2215 C2224 0.930 . S
H2216 C2229 0.929 . S
H2217 C2227 0.944 . S
H2218 C2222 0.929 . S
H2219 C2228 0.929 . S
C2220 H2214 0.930 . S
C2220 C2221 1.367 . S
C2220 C2228 1.378 . S
C2221 C2220 1.367 . S
C2221 C2229 1.433 . S
C2222 H2218 0.929 . S
C2222 C2224 1.378 . S
C2222 C2226 1.350 . S
C2223 C2226 1.463 . S
C2223 C2228 1.350 . S
C2223 N2231 1.427 . S
C2224 H2215 0.930 . S
C2224 C2222 1.378 . S
C2224 C2225 1.367 . S
C2225 C2224 1.367 . S
C2225 C2227 1.400 1_655 S
C2226 C2222 1.350 . S
C2226 C2223 1.463 . S
C2226 N2230 1.427 . S
C2227 H2217 0.944 . S
C2227 C2225 1.400 1_455 S
C2227 N2230 1.404 1_455 S
C2228 H2219 0.929 . S
C2228 C2220 1.378 . S
C2228 C2223 1.350 . S
C2229 H2216 0.929 . S
C2229 C2221 1.433 . S
C2229 N2231 1.384 . S
N2230 C2226 1.427 . S
N2230 C2227 1.404 1_655 S
N2231 C2223 1.427 . S
N2231 C2229 1.384 . S
H2232 C2238 0.930 . S
H2233 C2242 0.930 . S
H2234 C2247 0.929 . S
H2235 C2245 0.929 . S
H2236 C2240 0.929 . S
H2237 C2246 0.929 . S
C2238 H2232 0.930 . S
C2238 C2239 1.367 . S
C2238 C2246 1.378 . S
C2239 C2238 1.367 . S
C2239 C2247 1.433 . S
C2240 H2236 0.929 . S
C2240 C2242 1.378 . S
C2240 C2244 1.350 . S
C2241 C2244 1.463 . S
C2241 C2246 1.350 . S
C2241 N2249 1.427 . S
C2242 H2233 0.930 . S
C2242 C2240 1.378 . S
C2242 C2243 1.367 . S
C2243 C2242 1.367 . S
C2243 C2245 1.433 . S
C2244 C2240 1.350 . S
C2244 C2241 1.463 . S
C2244 N2248 1.427 . S
C2245 H2235 0.929 . S
C2245 C2243 1.433 . S
C2245 N2248 1.384 . S
C2246 H2237 0.929 . S
C2246 C2238 1.378 . S
C2246 C2241 1.350 . S
C2247 H2234 0.929 . S
C2247 C2239 1.433 . S
C2247 N2249 1.384 . S
N2248 C2244 1.427 . S
N2248 C2245 1.384 . S
N2249 C2241 1.427 . S
N2249 C2247 1.384 . S
H2250 C2256 0.930 . S
H2251 C2260 0.930 . S
H2252 C2265 0.929 . S
H2253 C2263 0.929 . S
H2254 C2258 0.929 . S
H2255 C2264 0.929 . S
C2256 H2250 0.930 . S
C2256 C2257 1.367 . S
C2256 C2264 1.378 . S
C2257 C2256 1.367 . S
C2257 C2265 1.433 . S
C2258 H2254 0.929 . S
C2258 C2260 1.378 . S
C2258 C2262 1.350 . S
C2259 C2262 1.463 . S
C2259 C2264 1.350 . S
C2259 N2267 1.427 . S
C2260 H2251 0.930 . S
C2260 C2258 1.378 . S
C2260 C2261 1.367 . S
C2261 C2260 1.367 . S
C2261 C2263 1.433 . S
C2262 C2258 1.350 . S
C2262 C2259 1.463 . S
C2262 N2266 1.427 . S
C2263 H2253 0.929 . S
C2263 C2261 1.433 . S
C2263 N2266 1.384 . S
C2264 H2255 0.929 . S
C2264 C2256 1.378 . S
C2264 C2259 1.350 . S
C2265 H2252 0.929 . S
C2265 C2257 1.433 . S
C2265 N2267 1.384 . S
N2266 C2262 1.427 . S
N2266 C2263 1.384 . S
N2267 C2259 1.427 . S
N2267 C2265 1.384 . S
H2268 C2274 0.930 . S
H2269 C2278 0.930 . S
H2270 C2283 0.929 . S
H2271 C2281 0.929 . S
H2272 C2276 0.929 . S
H2273 C2282 0.929 . S
C2274 H2268 0.930 . S
C2274 C2275 1.367 . S
C2274 C2282 1.378 . S
C2275 C2274 1.367 . S
C2275 C2283 1.433 . S
C2276 H2272 0.929 . S
C2276 C2278 1.378 . S
C2276 C2280 1.350 . S
C2277 C2280 1.463 . S
C2277 C2282 1.350 . S
C2277 N2285 1.427 . S
C2278 H2269 0.930 . S
C2278 C2276 1.378 . S
C2278 C2279 1.367 . S
C2279 C2278 1.367 . S
C2279 C2281 1.433 . S
C2280 C2276 1.350 . S
C2280 C2277 1.463 . S
C2280 N2284 1.427 . S
C2281 H2271 0.929 . S
C2281 C2279 1.433 . S
C2281 N2284 1.384 . S
C2282 H2273 0.929 . S
C2282 C2274 1.378 . S
C2282 C2277 1.350 . S
C2283 H2270 0.929 . S
C2283 C2275 1.433 . S
C2283 N2285 1.384 . S
N2284 C2280 1.427 . S
N2284 C2281 1.384 . S
N2285 C2277 1.427 . S
N2285 C2283 1.384 . S
H2286 C2292 0.930 . S
H2287 C2296 0.930 . S
H2288 C2301 0.929 . S
H2289 C2299 0.929 . S
H2290 C2294 0.929 . S
H2291 C2300 0.929 . S
C2292 H2286 0.930 . S
C2292 C2293 1.367 . S
C2292 C2300 1.378 . S
C2293 C2292 1.367 . S
C2293 C2301 1.433 . S
C2294 H2290 0.929 . S
C2294 C2296 1.378 . S
C2294 C2298 1.350 . S
C2295 C2298 1.463 . S
C2295 C2300 1.350 . S
C2295 N2303 1.427 . S
C2296 H2287 0.930 . S
C2296 C2294 1.378 . S
C2296 C2297 1.367 . S
C2297 C2296 1.367 . S
C2297 C2299 1.433 . S
C2298 C2294 1.350 . S
C2298 C2295 1.463 . S
C2298 N2302 1.427 . S
C2299 H2289 0.929 . S
C2299 C2297 1.433 . S
C2299 N2302 1.384 . S
C2300 H2291 0.929 . S
C2300 C2292 1.378 . S
C2300 C2295 1.350 . S
C2301 H2288 0.929 . S
C2301 C2293 1.433 . S
C2301 N2303 1.384 . S
N2302 C2298 1.427 . S
N2302 C2299 1.384 . S
N2303 C2295 1.427 . S
N2303 C2301 1.384 . S
H2304 C2310 0.930 . S
H2305 C2314 0.930 . S
H2306 C2319 0.929 . S
H2307 C2317 0.929 . S
H2308 C2312 0.929 . S
H2309 C2318 0.929 . S
C2310 H2304 0.930 . S
C2310 C2311 1.367 . S
C2310 C2318 1.378 . S
C2311 C2310 1.367 . S
C2311 C2319 1.433 . S
C2312 H2308 0.929 . S
C2312 C2314 1.378 . S
C2312 C2316 1.350 . S
C2313 C2316 1.463 . S
C2313 C2318 1.350 . S
C2313 N2321 1.427 . S
C2314 H2305 0.930 . S
C2314 C2312 1.378 . S
C2314 C2315 1.367 . S
C2315 C2314 1.367 . S
C2315 C2317 1.433 . S
C2316 C2312 1.350 . S
C2316 C2313 1.463 . S
C2316 N2320 1.427 . S
C2317 H2307 0.929 . S
C2317 C2315 1.433 . S
C2317 N2320 1.384 . S
C2318 H2309 0.929 . S
C2318 C2310 1.378 . S
C2318 C2313 1.350 . S
C2319 H2306 0.929 . S
C2319 C2311 1.433 . S
C2319 N2321 1.384 . S
N2320 C2316 1.427 . S
N2320 C2317 1.384 . S
N2321 C2313 1.427 . S
N2321 C2319 1.384 . S
H2322 C2328 0.930 . S
H2323 C2332 0.930 . S
H2324 C2337 0.929 . S
H2325 C2335 0.929 . S
H2326 C2330 0.929 . S
H2327 C2336 0.929 . S
C2328 H2322 0.930 . S
C2328 C2329 1.367 . S
C2328 C2336 1.378 . S
C2329 C2328 1.367 . S
C2329 C2337 1.433 . S
C2330 H2326 0.929 . S
C2330 C2332 1.378 . S
C2330 C2334 1.350 . S
C2331 C2334 1.463 . S
C2331 C2336 1.350 . S
C2331 N2339 1.427 . S
C2332 H2323 0.930 . S
C2332 C2330 1.378 . S
C2332 C2333 1.367 . S
C2333 C2332 1.367 . S
C2333 C2335 1.433 . S
C2334 C2330 1.350 . S
C2334 C2331 1.463 . S
C2334 N2338 1.427 . S
C2335 H2325 0.929 . S
C2335 C2333 1.433 . S
C2335 N2338 1.384 . S
C2336 H2327 0.929 . S
C2336 C2328 1.378 . S
C2336 C2331 1.350 . S
C2337 H2324 0.929 . S
C2337 C2329 1.433 . S
C2337 N2339 1.384 . S
N2338 C2334 1.427 . S
N2338 C2335 1.384 . S
N2339 C2331 1.427 . S
N2339 C2337 1.384 . S
H2340 C2346 0.930 . S
H2341 C2350 0.930 . S
H2342 C2355 0.929 . S
H2343 C2353 0.929 . S
H2344 C2348 0.929 . S
H2345 C2354 0.929 . S
C2346 H2340 0.930 . S
C2346 C2347 1.367 . S
C2346 C2354 1.378 . S
C2347 C2346 1.367 . S
C2347 C2355 1.433 . S
C2348 H2344 0.929 . S
C2348 C2350 1.378 . S
C2348 C2352 1.350 . S
C2349 C2352 1.463 . S
C2349 C2354 1.350 . S
C2349 N2357 1.427 . S
C2350 H2341 0.930 . S
C2350 C2348 1.378 . S
C2350 C2351 1.367 . S
C2351 C2350 1.367 . S
C2351 C2353 1.433 . S
C2352 C2348 1.350 . S
C2352 C2349 1.463 . S
C2352 N2356 1.427 . S
C2353 H2343 0.929 . S
C2353 C2351 1.433 . S
C2353 N2356 1.384 . S
C2354 H2345 0.929 . S
C2354 C2346 1.378 . S
C2354 C2349 1.350 . S
C2355 H2342 0.929 . S
C2355 C2347 1.433 . S
C2355 N2357 1.384 . S
N2356 C2352 1.427 . S
N2356 C2353 1.384 . S
N2357 C2349 1.427 . S
N2357 C2355 1.384 . S
H2358 C2364 0.930 . S
H2359 C2368 0.930 . S
H2360 C2373 0.929 . S
H2361 C2371 0.929 . S
H2362 C2366 0.929 . S
H2363 C2372 0.929 . S
C2364 H2358 0.930 . S
C2364 C2365 1.367 1_455 S
C2364 C2372 1.378 . S
C2365 C2364 1.367 1_655 S
C2365 C2373 1.433 . S
C2366 H2362 0.929 . S
C2366 C2368 1.378 . S
C2366 C2370 1.350 . S
C2367 C2370 1.463 . S
C2367 C2372 1.350 1_655 S
C2367 N2375 1.427 . S
C2368 H2359 0.930 . S
C2368 C2366 1.378 . S
C2368 C2369 1.367 . S
C2369 C2368 1.367 . S
C2369 C2371 1.433 1_655 S
C2370 C2366 1.350 . S
C2370 C2367 1.463 . S
C2370 N2374 1.427 1_655 S
C2371 H2361 0.929 . S
C2371 C2369 1.433 1_455 S
C2371 N2374 1.384 . S
C2372 H2363 0.929 . S
C2372 C2364 1.378 . S
C2372 C2367 1.350 1_455 S
C2373 H2360 0.929 . S
C2373 C2365 1.433 . S
C2373 N2375 1.384 . S
N2374 C2370 1.427 1_455 S
N2374 C2371 1.384 . S
N2375 C2367 1.427 . S
N2375 C2373 1.384 . S
H2376 C2382 0.930 . S
H2377 C2386 0.930 . S
H2378 C2391 0.929 . S
H2379 C2389 0.929 . S
H2380 C2384 0.929 . S
H2381 C2390 0.929 . S
C2382 H2376 0.930 . S
C2382 C2383 1.367 . S
C2382 C2390 1.378 . S
C2383 C2382 1.367 . S
C2383 C2391 1.433 . S
C2384 H2380 0.929 . S
C2384 C2386 1.378 . S
C2384 C2388 1.350 . S
C2385 C2388 1.463 . S
C2385 C2390 1.350 . S
C2385 N2393 1.427 . S
C2386 H2377 0.930 . S
C2386 C2384 1.378 . S
C2386 C2387 1.367 . S
C2387 C2386 1.367 . S
C2387 C2389 1.433 . S
C2388 C2384 1.350 . S
C2388 C2385 1.463 . S
C2388 N2392 1.427 . S
C2389 H2379 0.929 . S
C2389 C2387 1.433 . S
C2389 N2392 1.384 . S
C2390 H2381 0.929 . S
C2390 C2382 1.378 . S
C2390 C2385 1.350 . S
C2391 H2378 0.929 . S
C2391 C2383 1.433 . S
C2391 N2393 1.384 . S
N2392 C2388 1.427 . S
N2392 C2389 1.384 . S
N2393 C2385 1.427 . S
N2393 C2391 1.384 . S
H2394 C2400 0.930 . S
H2395 C2404 0.930 . S
H2396 C2409 0.929 . S
H2397 C2407 0.929 . S
H2398 C2402 0.929 . S
H2399 C2408 0.929 . S
C2400 H2394 0.930 . S
C2400 C2401 1.367 1_565 S
C2400 C2408 1.378 . S
C2401 C2400 1.367 1_545 S
C2401 C2409 1.433 . S
C2402 H2398 0.929 . S
C2402 C2404 1.378 . S
C2402 C2406 1.350 . S
C2403 C2406 1.463 . S
C2403 C2408 1.350 1_545 S
C2403 N2411 1.427 . S
C2404 H2395 0.930 . S
C2404 C2402 1.378 . S
C2404 C2405 1.367 . S
C2405 C2404 1.367 . S
C2405 C2407 1.433 1_545 S
C2406 C2402 1.350 . S
C2406 C2403 1.463 . S
C2406 N2410 1.427 1_545 S
C2407 H2397 0.929 . S
C2407 C2405 1.433 1_565 S
C2407 N2410 1.384 . S
C2408 H2399 0.929 . S
C2408 C2400 1.378 . S
C2408 C2403 1.350 1_565 S
C2409 H2396 0.929 . S
C2409 C2401 1.433 . S
C2409 N2411 1.384 . S
N2410 C2406 1.427 1_565 S
N2410 C2407 1.384 . S
N2411 C2403 1.427 . S
N2411 C2409 1.384 . S
C1123 C4 1.471 . S
C1127 C729 1.499 . S
C1141 C26 1.548 . S
C1145 C777 1.553 . S
C1163 C825 1.448 . S
C1159 C32 1.419 . S
C1177 C40 1.424 . S
C1181 C849 1.452 . S
C1195 C12 1.477 . S
C1199 C921 1.494 . S
C1213 C18 1.479 . S
C1217 C969 1.530 . S
C1231 C46 1.457 . S
C1235 C897 1.495 . S
C1253 C945 1.551 . S
C1249 C68 1.550 . S
C1271 C873 1.502 . S
C1267 C74 1.417 . S
C1285 C82 1.421 . S
C1289 C801 1.440 . S
C1307 C705 1.510 . S
C1303 C54 1.496 . S
C1321 C60 1.475 . S
C1325 C753 1.529 . S
C1339 C88 1.595 . S
C1343 C1017 1.639 . S
C1357 C110 1.615 . S
C1361 C1065 1.610 . S
C1379 C1089 1.596 . S
C1375 C116 1.552 . S
C1393 C124 1.488 . S
C1397 C273 1.489 . S
C1411 C96 1.550 . S
C1415 C345 1.555 . S
C1429 C102 1.517 . S
C1433 C393 1.564 . S
C1447 C130 1.529 . S
C1451 C321 1.570 . S
C1465 C152 1.610 . S
C1469 C369 1.610 . S
C1487 C297 1.571 . S
C1483 C158 1.555 . S
C1505 C1113 1.526 . S
C1501 C166 1.552 . S
C1523 C993 1.543 . S
C1519 C138 1.539 . S
C1541 C1041 1.602 . S
C1537 C144 1.557 . S
C1555 C172 1.531 . S
C1559 C441 1.582 . S
C1573 C194 1.605 . S
C1577 C489 1.603 . S
C1591 C200 1.561 . S
C1595 C513 1.598 . S
C1609 C208 1.542 . S
C1613 C561 1.541 . S
C1631 C633 1.550 . S
C1627 C180 1.546 . S
C1649 C681 1.585 . S
C1645 C186 1.549 . S
C1667 C609 1.648 . S
C1663 C214 1.607 . S
C1685 C657 1.614 . S
C1681 C236 1.616 . S
C1699 C242 1.535 . S
C1703 C585 1.549 . S
C1721 C537 1.459 . S
C1717 C250 1.480 . S
C1735 C222 1.557 . S
C1739 C417 1.563 . S
C1757 C465 1.574 . S
C1753 C228 1.529 . S
C1775 C282 1.508 . S
C1771 C5 1.291 . S
C1789 C25 1.422 . S
C1793 C336 1.383 . S
C1811 C384 1.491 . S
C1807 C33 1.306 . S
C1829 C432 1.383 . S
C1825 C39 1.388 . S
C1847 C480 1.441 . S
C1843 C11 1.463 . S
C1865 C522 1.419 . S
C1861 C19 1.201 1_556 S
C1879 C47 1.284 1_556 S
C1883 C528 1.517 . S
C1897 C67 1.417 . S
C1901 C426 1.382 . S
C1915 C75 1.291 1_556 S
C1919 C474 1.466 . S
C1933 C81 1.410 . S
C1937 C330 1.382 . S
C1955 C378 1.412 . S
C1951 C53 1.443 . S
C1969 C61 1.184 . S
C1973 C288 1.399 . S
C1991 C570 1.462 . S
C1987 C89 1.209 . S
C2005 C109 1.504 . S
C2009 C624 1.466 . S
C2023 C117 1.266 . S
C2027 C672 1.482 . S
C2045 C720 1.242 . S
C2041 C123 1.237 . S
C2059 C95 1.398 . S
C2063 C768 1.385 . S
C2077 C103 1.080 . S
C2081 C816 1.260 . S
C2095 C131 1.108 . S
C2099 C810 1.263 . S
C2113 C151 1.268 . S
C2117 C714 1.260 . S
C2135 C762 1.403 . S
C2131 C159 1.215 . S
C2149 C165 1.390 . S
C2153 C618 1.352 . S
C2167 C137 1.485 . S
C2171 C666 1.445 . S
C2189 C576 1.482 . S
C2185 C145 1.257 . S
C2207 C858 1.289 . S
C2203 C173 1.123 . S
C2221 C193 1.240 . S
C2225 C912 1.253 . S
C2239 C201 1.197 . S
C2243 C960 1.407 . S
C2261 C1008 1.359 . S
C2257 C207 1.376 . S
C2279 C1056 1.471 . S
C2275 C179 1.501 . S
C2293 C187 1.255 . S
C2297 C1098 1.494 . S
C2311 C215 1.257 . S
C2315 C1104 1.476 . S
C2329 C235 1.497 . S
C2333 C1002 1.458 . S
C2351 C1050 1.465 . S
C2347 C243 1.284 . S
C2369 C906 1.217 . S
C2365 C249 1.211 . S
C2387 C954 1.373 . S
C2383 C221 1.411 . S
C2401 C229 1.100 . S
C2405 C864 1.274 . S
