# Generated by pormake.
# Topology nom, (4,4)-cn, num edge types: 1
# Building blocks:
#     Node 0, Type 0, BuildingBlock: MUDLON_clean_linker_0, # of connection points: 4
#     Node 1, Type 0, BuildingBlock: MUDLON_clean_linker_0, # of connection points: 4
#     Node 2, Type 0, BuildingBlock: MUDLON_clean_linker_0, # of connection points: 4
#     Node 3, Type 0, BuildingBlock: MUDLON_clean_linker_0, # of connection points: 4
#     Node 4, Type 0, BuildingBlock: MUDLON_clean_linker_0, # of connection points: 4
#     Node 5, Type 0, BuildingBlock: MUDLON_clean_linker_0, # of connection points: 4
#     Node 6, Type 1, BuildingBlock: GALJAG_clean_sbu_0, # of connection points: 4
#     Node 7, Type 1, BuildingBlock: GALJAG_clean_sbu_0, # of connection points: 4
#     Node 8, Type 1, BuildingBlock: GALJAG_clean_sbu_0, # of connection points: 4
#     Node 9, Type 1, BuildingBlock: GALJAG_clean_sbu_0, # of connection points: 4
#     Node 10, Type 1, BuildingBlock: GALJAG_clean_sbu_0, # of connection points: 4
#     Node 11, Type 1, BuildingBlock: GALJAG_clean_sbu_0, # of connection points: 4
#     Edge 12, Type (0, 1), BuildingBlock: XIVTED_clean_linker_0, # of connection points: 2
#     Edge 13, Type (0, 1), BuildingBlock: XIVTED_clean_linker_0, # of connection points: 2
#     Edge 14, Type (0, 1), BuildingBlock: XIVTED_clean_linker_0, # of connection points: 2
#     Edge 15, Type (0, 1), BuildingBlock: XIVTED_clean_linker_0, # of connection points: 2
#     Edge 16, Type (0, 1), BuildingBlock: XIVTED_clean_linker_0, # of connection points: 2
#     Edge 17, Type (0, 1), BuildingBlock: XIVTED_clean_linker_0, # of connection points: 2
#     Edge 18, Type (0, 1), BuildingBlock: XIVTED_clean_linker_0, # of connection points: 2
#     Edge 19, Type (0, 1), BuildingBlock: XIVTED_clean_linker_0, # of connection points: 2
#     Edge 20, Type (0, 1), BuildingBlock: XIVTED_clean_linker_0, # of connection points: 2
#     Edge 21, Type (0, 1), BuildingBlock: XIVTED_clean_linker_0, # of connection points: 2
#     Edge 22, Type (0, 1), BuildingBlock: XIVTED_clean_linker_0, # of connection points: 2
#     Edge 23, Type (0, 1), BuildingBlock: XIVTED_clean_linker_0, # of connection points: 2
#     Edge 24, Type (0, 1), BuildingBlock: XIVTED_clean_linker_0, # of connection points: 2
#     Edge 25, Type (0, 1), BuildingBlock: XIVTED_clean_linker_0, # of connection points: 2
#     Edge 26, Type (0, 1), BuildingBlock: XIVTED_clean_linker_0, # of connection points: 2
#     Edge 27, Type (0, 1), BuildingBlock: XIVTED_clean_linker_0, # of connection points: 2
#     Edge 28, Type (0, 1), BuildingBlock: XIVTED_clean_linker_0, # of connection points: 2
#     Edge 29, Type (0, 1), BuildingBlock: XIVTED_clean_linker_0, # of connection points: 2
#     Edge 30, Type (0, 1), BuildingBlock: XIVTED_clean_linker_0, # of connection points: 2
#     Edge 31, Type (0, 1), BuildingBlock: XIVTED_clean_linker_0, # of connection points: 2
#     Edge 32, Type (0, 1), BuildingBlock: XIVTED_clean_linker_0, # of connection points: 2
#     Edge 33, Type (0, 1), BuildingBlock: XIVTED_clean_linker_0, # of connection points: 2
#     Edge 34, Type (0, 1), BuildingBlock: XIVTED_clean_linker_0, # of connection points: 2
#     Edge 35, Type (0, 1), BuildingBlock: XIVTED_clean_linker_0, # of connection points: 2
# Relax obj value: 0.015
# Max RMSD: 0.120
# Mean RMSD: 0.084
data_MOF--net-nom--node1-GALJAG_clean_sbu_0--node2-MUDLON_clean_linker_0--edge1-XIVTED_clean_linker_0
_symmetry_space_group_name_H-M    P1
_symmetry_Int_Tables_number       1
_symmetry_cell_setting            triclinic
loop_
_symmetry_equiv_pos_as_xyz
'x, y, z'
_cell_length_a     60.233947
_cell_length_b     61.182511
_cell_length_c     62.908676
_cell_angle_alpha  90.423986
_cell_angle_beta   89.80141
_cell_angle_gamma 120.58441
loop_
_atom_site_label
_atom_site_type_symbol
_atom_site_fract_x
_atom_site_fract_y
_atom_site_fract_z
_atom_type_partial_charge
H0 H 0.12191 0.58844 0.33099 0.0
N1 N 0.09635 0.61385 0.34035 0.0
H2 H 0.15968 0.60347 0.30839 0.0
H3 H 0.11703 0.65437 0.3154 0.0
H4 H 0.15543 0.66995 0.29296 0.0
H5 H 0.11871 0.65088 0.36896 0.0
H6 H 0.13472 0.64891 0.4042 0.0
H7 H 0.0902 0.57106 0.35959 0.0
H8 H 0.10598 0.56884 0.3948 0.0
H9 H 0.07927 0.57001 0.3165 0.0
H10 H 0.05437 0.61507 0.35079 0.0
H11 H 0.03485 0.53885 0.30819 0.0
H12 H 0.00947 0.58308 0.34355 0.0
H13 H 0.88307 0.43417 0.29448 0.0
H14 H 0.86514 0.42201 0.25872 0.0
H15 H 0.90739 0.50096 0.24022 0.0
H16 H 0.92373 0.51292 0.27615 0.0
H17 H 0.8845 0.50364 0.30438 0.0
H18 H 0.8483 0.49761 0.32622 0.0
H19 H 0.86292 0.45204 0.36984 0.0
H20 H 0.89836 0.45723 0.3472 0.0
H21 H 0.95248 0.47405 0.31708 0.0
H22 H 0.9973 0.50657 0.32404 0.0
H23 H 0.97716 0.56473 0.3175 0.0
N24 N 0.9129 0.48059 0.31003 0.0
H25 H 0.93224 0.53194 0.31176 0.0
C26 C 0.11657 0.62037 0.32494 0.0
C27 C 0.12872 0.60601 0.3225 0.0
C28 C 0.15051 0.61473 0.30964 0.0
C29 C 0.16076 0.63805 0.29904 0.0
C30 C 0.14791 0.6518 0.30074 0.0
C31 C 0.12603 0.643 0.31358 0.0
C32 C 0.10334 0.61125 0.36168 0.0
C33 C 0.11561 0.63288 0.37468 0.0
C34 C 0.12463 0.63166 0.39479 0.0
C35 C 0.12165 0.60871 0.40225 0.0
C36 C 0.10881 0.58685 0.38939 0.0
C37 C 0.09966 0.58807 0.3693 0.0
C38 C 0.07033 0.59526 0.33414 0.0
C39 C 0.06436 0.57337 0.32224 0.0
C40 C 0.03871 0.55525 0.31768 0.0
C41 C 0.0184 0.55828 0.32525 0.0
C42 C 0.0245 0.58023 0.3371 0.0
C43 C 0.05015 0.5985 0.34138 0.0
C44 C 0.90492 0.47432 0.28811 0.0
C45 C 0.88858 0.44877 0.2826 0.0
C46 C 0.87848 0.44188 0.26207 0.0
C47 C 0.88477 0.46048 0.24643 0.0
C48 C 0.9017 0.4861 0.25187 0.0
C49 C 0.91143 0.493 0.27251 0.0
C50 C 0.89379 0.4804 0.32401 0.0
C51 C 0.88003 0.49252 0.31872 0.0
C52 C 0.85942 0.48921 0.33137 0.0
C53 C 0.85238 0.47401 0.34969 0.0
C54 C 0.86734 0.46333 0.35559 0.0
C55 C 0.88772 0.46641 0.3428 0.0
C56 C 0.93911 0.50051 0.31383 0.0
C57 C 0.95785 0.49385 0.31722 0.0
C58 C 0.98349 0.51252 0.32099 0.0
C59 C 0.99102 0.5384 0.3212 0.0
C60 C 0.9721 0.54503 0.31776 0.0
C61 C 0.94637 0.52629 0.31429 0.0
H62 H 0.43217 0.89985 0.47043 0.0
N63 N 0.40675 0.924 0.45696 0.0
H64 H 0.41503 0.86323 0.49345 0.0
H65 H 0.36287 0.90319 0.47869 0.0
H66 H 0.34492 0.86552 0.50126 0.0
H67 H 0.37141 0.90933 0.42671 0.0
H68 H 0.37224 0.89318 0.39133 0.0
H69 H 0.44732 0.92205 0.43929 0.0
H70 H 0.44758 0.90384 0.40479 0.0
H71 H 0.45337 0.94231 0.4775 0.0
H72 H 0.40283 0.96419 0.44861 0.0
H73 H 0.48425 0.98643 0.48563 0.0
H74 H 0.43439 0.00879 0.45563 0.0
H75 H 0.58415 0.13341 0.50631 0.0
H76 H 0.59609 0.14867 0.54287 0.0
H77 H 0.51589 0.1049 0.56124 0.0
H78 H 0.50411 0.09073 0.52476 0.0
H79 H 0.50769 0.1268 0.50058 0.0
H80 H 0.51129 0.16477 0.48493 0.0
H81 H 0.56767 0.16826 0.4403 0.0
H82 H 0.56359 0.1298 0.4559 0.0
H83 H 0.54619 0.06927 0.47854 0.0
H84 H 0.51481 0.02497 0.47003 0.0
H85 H 0.45283 0.03955 0.48257 0.0
N86 N 0.53702 0.10561 0.49034 0.0
H87 H 0.48424 0.08381 0.48985 0.0
C88 C 0.39883 0.90453 0.47285 0.0
C89 C 0.41344 0.89309 0.47746 0.0
C90 C 0.40342 0.8718 0.49051 0.0
C91 C 0.37843 0.86116 0.499 0.0
C92 C 0.36432 0.87331 0.49517 0.0
C93 C 0.37449 0.89479 0.48223 0.0
C94 C 0.40894 0.91633 0.43575 0.0
C95 C 0.38818 0.90843 0.42181 0.0
C96 C 0.38863 0.89892 0.40169 0.0
C97 C 0.40973 0.89655 0.39522 0.0
C98 C 0.43101 0.90539 0.40904 0.0
C99 C 0.43075 0.91548 0.429 0.0
C100 C 0.42541 0.94981 0.4627 0.0
C101 C 0.44878 0.95651 0.47291 0.0
C102 C 0.46671 0.98198 0.47733 0.0
C103 C 0.46193 0.00133 0.4713 0.0
C104 C 0.4386 0.99448 0.46092 0.0
C105 C 0.42056 0.96901 0.45679 0.0
C106 C 0.54335 0.11088 0.51263 0.0
C107 C 0.56925 0.12681 0.51835 0.0
C108 C 0.57602 0.13543 0.53928 0.0
C109 C 0.55692 0.12817 0.55502 0.0
C110 C 0.53105 0.11126 0.54946 0.0
C111 C 0.52429 0.10285 0.5285 0.0
C112 C 0.53552 0.12547 0.47941 0.0
C113 C 0.52035 0.13528 0.4871 0.0
C114 C 0.52258 0.15717 0.47824 0.0
C115 C 0.53999 0.1697 0.46154 0.0
C116 C 0.55394 0.15897 0.45304 0.0
C117 C 0.55172 0.13707 0.46195 0.0
C118 C 0.51772 0.07989 0.48486 0.0
C119 C 0.5258 0.06284 0.47926 0.0
C120 C 0.5078 0.03748 0.47462 0.0
C121 C 0.48118 0.02852 0.47574 0.0
C122 C 0.47312 0.04576 0.48122 0.0
C123 C 0.49116 0.07119 0.48556 0.0
H124 H 0.4313 0.55099 0.66431 0.0
N125 N 0.40477 0.50078 0.67551 0.0
H126 H 0.41611 0.572 0.64084 0.0
H127 H 0.36347 0.47876 0.65047 0.0
H128 H 0.34736 0.49987 0.62759 0.0
H129 H 0.3656 0.48978 0.70135 0.0
H130 H 0.36649 0.51141 0.73456 0.0
H131 H 0.44815 0.53753 0.69599 0.0
H132 H 0.44919 0.559 0.72924 0.0
H133 H 0.44977 0.52744 0.65212 0.0
H134 H 0.40411 0.45938 0.68862 0.0
H135 H 0.4819 0.51553 0.64613 0.0
H136 H 0.43711 0.4478 0.68347 0.0
H137 H 0.58806 0.47836 0.63133 0.0
H138 H 0.59918 0.47514 0.59451 0.0
H139 H 0.51803 0.43055 0.579 0.0
H140 H 0.50727 0.43264 0.61587 0.0
H141 H 0.51576 0.40495 0.64272 0.0
H142 H 0.52401 0.37496 0.66141 0.0
H143 H 0.57894 0.43578 0.70191 0.0
H144 H 0.57081 0.46577 0.68282 0.0
H145 H 0.54791 0.50189 0.65697 0.0
H146 H 0.51471 0.51273 0.664 0.0
H147 H 0.45601 0.43344 0.65793 0.0
N148 N 0.54149 0.45654 0.64873 0.0
H149 H 0.48941 0.42281 0.65194 0.0
C150 C 0.39855 0.51312 0.65905 0.0
C151 C 0.41336 0.53952 0.65586 0.0
C152 C 0.40445 0.5516 0.6426 0.0
C153 C 0.3803 0.53771 0.63256 0.0
C154 C 0.36615 0.51116 0.63489 0.0
C155 C 0.37526 0.49903 0.64799 0.0
C156 C 0.40669 0.51181 0.69627 0.0
C157 C 0.38393 0.50461 0.70756 0.0
C158 C 0.38446 0.5171 0.72637 0.0
C159 C 0.4079 0.53696 0.73436 0.0
C160 C 0.43089 0.54363 0.72349 0.0
C161 C 0.4303 0.53132 0.7045 0.0
C162 C 0.4241 0.4941 0.67074 0.0
C163 C 0.44646 0.50988 0.65889 0.0
C164 C 0.46517 0.50315 0.65564 0.0
C165 C 0.46226 0.48075 0.66441 0.0
C166 C 0.43988 0.465 0.6762 0.0
C167 C 0.42104 0.47162 0.67925 0.0
C168 C 0.54695 0.45602 0.62644 0.0
C169 C 0.57274 0.46809 0.61987 0.0
C170 C 0.57901 0.46634 0.59877 0.0
C171 C 0.55951 0.45256 0.58367 0.0
C172 C 0.5336 0.44097 0.59021 0.0
C173 C 0.52737 0.44243 0.61137 0.0
C174 C 0.54286 0.4377 0.66136 0.0
C175 C 0.52917 0.41176 0.65589 0.0
C176 C 0.53386 0.39458 0.66665 0.0
C177 C 0.55234 0.40303 0.68301 0.0
C178 C 0.56491 0.42875 0.68916 0.0
C179 C 0.56018 0.44586 0.67841 0.0
C180 C 0.52125 0.46169 0.65387 0.0
C181 C 0.52786 0.4869 0.65737 0.0
C182 C 0.50882 0.49303 0.66117 0.0
C183 C 0.48258 0.474 0.6613 0.0
C184 C 0.47599 0.44858 0.65816 0.0
C185 C 0.49513 0.44246 0.6546 0.0
H186 H 0.1273 0.54593 0.80745 0.0
N187 N 0.09432 0.49643 0.79549 0.0
H188 H 0.16335 0.56094 0.83187 0.0
H189 H 0.10571 0.46845 0.82016 0.0
H190 H 0.14136 0.48331 0.84553 0.0
H191 H 0.11291 0.47959 0.76535 0.0
H192 H 0.13128 0.49919 0.73102 0.0
H193 H 0.0962 0.53892 0.77903 0.0
H194 H 0.114 0.55825 0.74481 0.0
H195 H 0.0818 0.52902 0.81507 0.0
H196 H 0.05029 0.45304 0.79035 0.0
H197 H 0.03855 0.52043 0.82315 0.0
H198 H 0.00682 0.44369 0.79941 0.0
H199 H 0.89104 0.48289 0.84647 0.0
H200 H 0.87342 0.47674 0.88235 0.0
H201 H 0.90728 0.43099 0.89727 0.0
H202 H 0.92315 0.43586 0.861 0.0
H203 H 0.89859 0.41089 0.83046 0.0
H204 H 0.85992 0.377 0.81313 0.0
H205 H 0.84732 0.43314 0.78326 0.0
H206 H 0.886 0.46697 0.80084 0.0
H207 H 0.95947 0.49094 0.85196 0.0
H208 H 0.0025 0.49847 0.84541 0.0
H209 H 0.97549 0.45339 0.78794 0.0
N210 N 0.91594 0.46181 0.8289 0.0
H211 H 0.9324 0.44479 0.79486 0.0
C212 C 0.11393 0.50594 0.81175 0.0
C213 C 0.13001 0.53207 0.81577 0.0
C214 C 0.15061 0.54066 0.82997 0.0
C215 C 0.15546 0.52336 0.84063 0.0
C216 C 0.13854 0.4972 0.83732 0.0
C217 C 0.11804 0.48864 0.82298 0.0
C218 C 0.10309 0.50758 0.77478 0.0
C219 C 0.11288 0.49661 0.76081 0.0
C220 C 0.12327 0.5078 0.7412 0.0
C221 C 0.12415 0.53033 0.7352 0.0
C222 C 0.1139 0.54108 0.74907 0.0
C223 C 0.10349 0.52986 0.76865 0.0
C224 C 0.06924 0.49164 0.80189 0.0
C225 C 0.06559 0.51037 0.81156 0.0
C226 C 0.04074 0.50533 0.81636 0.0
C227 C 0.01905 0.48136 0.81187 0.0
C228 C 0.02294 0.46252 0.80271 0.0
C229 C 0.04776 0.4677 0.79769 0.0
C230 C 0.9086 0.46013 0.85104 0.0
C231 C 0.89482 0.47177 0.85762 0.0
C232 C 0.88489 0.4683 0.87822 0.0
C233 C 0.88882 0.4533 0.89289 0.0
C234 C 0.90331 0.44221 0.8864 0.0
C235 C 0.91274 0.44525 0.86566 0.0
C236 C 0.895 0.4415 0.81705 0.0
C237 C 0.88758 0.4159 0.82011 0.0
C238 C 0.86549 0.39656 0.8102 0.0
C239 C 0.85052 0.40243 0.79694 0.0
C240 C 0.85859 0.42805 0.79323 0.0
C241 C 0.88058 0.44737 0.80328 0.0
C242 C 0.94159 0.46561 0.82496 0.0
C243 C 0.96242 0.48188 0.83828 0.0
C244 C 0.98732 0.48662 0.8343 0.0
C245 C 0.99248 0.47613 0.81635 0.0
C246 C 0.9721 0.461 0.80238 0.0
C247 C 0.94715 0.456 0.80647 0.0
H248 H 0.59426 0.13341 0.96711 0.0
N249 N 0.61322 0.10199 0.95769 0.0
H250 H 0.61492 0.1713 0.98905 0.0
H251 H 0.65385 0.11702 0.98292 0.0
H252 H 0.67395 0.15426 0.00634 0.0
H253 H 0.64675 0.12112 0.92591 0.0
H254 H 0.64039 0.13464 0.89104 0.0
H255 H 0.56815 0.09706 0.94263 0.0
H256 H 0.56153 0.11017 0.90785 0.0
H257 H 0.57088 0.08863 0.98292 0.0
H258 H 0.61252 0.05926 0.94897 0.0
H259 H 0.53834 0.04568 0.99327 0.0
H260 H 0.57952 0.01605 0.95851 0.0
H261 H 0.42881 0.89721 0.01113 0.0
H262 H 0.41634 0.88071 0.04709 0.0
H263 H 0.49623 0.9242 0.06658 0.0
H264 H 0.50857 0.93936 0.03052 0.0
H265 H 0.50227 0.90076 0.00536 0.0
H266 H 0.49652 0.86233 0.98832 0.0
H267 H 0.44381 0.86464 0.94326 0.0
H268 H 0.45 0.90354 0.96031 0.0
H269 H 0.47032 0.9642 0.9862 0.0
H270 H 0.50393 0.00772 0.97788 0.0
H271 H 0.56201 0.9871 0.98727 0.0
N272 N 0.47613 0.92527 0.99578 0.0
H273 H 0.5284 0.94372 0.99476 0.0
C274 C 0.62289 0.12258 0.97294 0.0
C275 C 0.61163 0.13772 0.97556 0.0
C276 C 0.62339 0.15938 0.98845 0.0
C277 C 0.64639 0.1662 -0.00059 0.0
C278 C 0.65668 0.15009 0.99775 0.0
C279 C 0.6451 0.12863 0.98456 0.0
C280 C 0.60806 0.10809 0.93685 0.0
C281 C 0.62806 0.11848 0.92192 0.0
C282 C 0.62432 0.12606 0.90202 0.0
C283 C 0.60043 0.12347 0.8967 0.0
C284 C 0.58022 0.11263 0.91155 0.0
C285 C 0.58395 0.10497 0.93143 0.0
C286 C 0.59437 0.07716 0.96531 0.0
C287 C 0.57316 0.07298 0.97781 0.0
C288 C 0.55436 0.04831 0.98352 0.0
C289 C 0.55624 0.02734 0.97669 0.0
C290 C 0.57763 0.03171 0.96437 0.0
C291 C 0.59646 0.05635 0.95881 0.0
C292 C 0.4695 0.91957 0.01796 0.0
C293 C 0.44353 0.90349 0.02329 0.0
C294 C 0.43646 0.89416 0.04392 0.0
C295 C 0.45529 0.90095 0.05981 0.0
C296 C 0.48124 0.91812 0.05469 0.0
C297 C 0.48832 0.92714 0.03398 0.0
C298 C 0.47639 0.905 0.98413 0.0
C299 C 0.48996 0.89343 0.99152 0.0
C300 C 0.48651 0.87131 0.98184 0.0
C301 C 0.46947 0.86029 0.96461 0.0
C302 C 0.45719 0.87276 0.95642 0.0
C303 C 0.46062 0.8949 0.96615 0.0
C304 C 0.49668 0.95064 0.99099 0.0
C305 C 0.49033 0.96915 0.98637 0.0
C306 C 0.50959 0.99404 0.98182 0.0
C307 C 0.53573 0.00097 0.98194 0.0
C308 C 0.54208 0.98237 0.98671 0.0
C309 C 0.52279 0.95746 0.99109 0.0
H310 H 0.55314 0.43142 0.15487 0.0
N311 N 0.56159 0.47637 0.16764 0.0
H312 H 0.582 0.42215 0.1347 0.0
H313 H 0.60653 0.51164 0.14798 0.0
H314 H 0.63485 0.50267 0.12672 0.0
H315 H 0.60796 0.49888 0.18853 0.0
H316 H 0.61556 0.48939 0.22445 0.0
H317 H 0.52626 0.44758 0.19626 0.0
H318 H 0.53376 0.43798 0.23244 0.0
H319 H 0.5249 0.47378 0.14276 0.0
H320 H 0.58957 0.52606 0.18144 0.0
H321 H 0.51682 0.508 0.13361 0.0
H322 H 0.58149 0.56015 0.17252 0.0
H323 H 0.48382 0.57926 0.1159 0.0
H324 H 0.46218 0.57628 0.08238 0.0
H325 H 0.52777 0.6476 0.06266 0.0
H326 H 0.54947 0.65016 0.09622 0.0
H327 H 0.55078 0.66611 0.1405 0.0
H328 H 0.52988 0.68398 0.16205 0.0
H329 H 0.4658 0.60837 0.17342 0.0
H330 H 0.48686 0.59071 0.15186 0.0
H331 H 0.53337 0.58279 0.10263 0.0
H332 H 0.54028 0.54872 0.11286 0.0
H333 H 0.54769 0.57239 0.17846 0.0
N334 N 0.53124 0.61799 0.12863 0.0
H335 H 0.54051 0.60666 0.16846 0.0
C336 C 0.57743 0.47208 0.15288 0.0
C337 C 0.57077 0.44701 0.14844 0.0
C338 C 0.58732 0.4418 0.13679 0.0
C339 C 0.61093 0.46165 0.12903 0.0
C340 C 0.61709 0.48687 0.13272 0.0
C341 C 0.60066 0.49206 0.14469 0.0
C342 C 0.56644 0.47369 0.18964 0.0
C343 C 0.5916 0.4858 0.19804 0.0
C344 C 0.59595 0.48028 0.21856 0.0
C345 C 0.57527 0.46274 0.23114 0.0
C346 C 0.55004 0.45166 0.22313 0.0
C347 C 0.54572 0.45706 0.20251 0.0
C348 C 0.55758 0.49715 0.16288 0.0
C349 C 0.53726 0.4926 0.14931 0.0
C350 C 0.53275 0.51214 0.14408 0.0
C351 C 0.54847 0.53671 0.15244 0.0
C352 C 0.56885 0.54132 0.1661 0.0
C353 C 0.5735 0.52179 0.17117 0.0
C354 C 0.51837 0.61503 0.10854 0.0
C355 C 0.49352 0.59427 0.1044 0.0
C356 C 0.48114 0.59261 0.08521 0.0
C357 C 0.49321 0.61171 0.06983 0.0
C358 C 0.51809 0.63235 0.07401 0.0
C359 C 0.53048 0.63395 0.09317 0.0
C360 C 0.52041 0.6272 0.14443 0.0
C361 C 0.53252 0.65341 0.14808 0.0
C362 C 0.52055 0.66355 0.16042 0.0
C363 C 0.49606 0.64759 0.16929 0.0
C364 C 0.48448 0.62117 0.16652 0.0
C365 C 0.49652 0.61105 0.15422 0.0
C366 C 0.53416 0.59663 0.13486 0.0
C367 C 0.53545 0.58042 0.11939 0.0
C368 C 0.53969 0.56088 0.12518 0.0
C369 C 0.5439 0.55751 0.1465 0.0
C370 C 0.54413 0.57433 0.16191 0.0
C371 C 0.53961 0.59378 0.15615 0.0
In372 In 0.62468 0.39864 0.40863 0.0
O373 O 0.66553 0.43251 0.40346 0.0
O374 O 0.66126 0.39642 0.40902 0.0
C375 C 0.60963 0.41618 0.4418 0.0
C376 C 0.60941 0.40832 0.37124 0.0
C377 C 0.6027 0.34879 0.41784 0.0
O378 O 0.63305 0.42593 0.43659 0.0
O379 O 0.59399 0.39812 0.43002 0.0
O380 O 0.60027 0.35633 0.39984 0.0
O381 O 0.61617 0.36628 0.43092 0.0
C382 C 0.67637 0.41956 0.4051 0.0
O383 O 0.6221 0.39716 0.37242 0.0
O384 O 0.60397 0.41421 0.38893 0.0
In385 In 0.25192 0.63588 0.5682 0.0
O386 O 0.2674 0.60908 0.5623 0.0
O387 O 0.28518 0.63739 0.58635 0.0
C388 C 0.2194 0.62335 0.53498 0.0
C389 C 0.2209 0.61581 0.60231 0.0
C390 C 0.28339 0.68527 0.55852 0.0
O391 O 0.23579 0.61634 0.53618 0.0
O392 O 0.21926 0.63631 0.55061 0.0
O393 O 0.2665 0.67826 0.57292 0.0
O394 O 0.28455 0.66746 0.54937 0.0
C395 C 0.28443 0.61893 0.57662 0.0
O396 O 0.23755 0.63916 0.60114 0.0
O397 O 0.21973 0.60286 0.58622 0.0
In398 In 0.62418 0.2474 0.7315 0.0
O399 O 0.66734 0.27161 0.7242 0.0
O400 O 0.65525 0.26877 0.75638 0.0
C401 C 0.61014 0.21971 0.6952 0.0
C402 C 0.60761 0.21261 0.76274 0.0
C403 C 0.60766 0.28063 0.72597 0.0
O404 O 0.63277 0.2301 0.7025 0.0
O405 O 0.59472 0.2233 0.70617 0.0
O406 O 0.59374 0.25926 0.73451 0.0
O407 O 0.62971 0.28516 0.72042 0.0
C408 C 0.67376 0.27781 0.74338 0.0
O409 O 0.6032 0.23071 0.76282 0.0
O410 O 0.61977 0.21179 0.74669 0.0
In411 In 0.38409 0.63198 0.90577 0.0
O412 O 0.34508 0.59496 0.90371 0.0
O413 O 0.34519 0.62967 0.90321 0.0
C414 C 0.40451 0.61995 0.93849 0.0
C415 C 0.39795 0.62051 0.86831 0.0
C416 C 0.4032 0.68153 0.9152 0.0
O417 O 0.3806 0.61171 0.93707 0.0
O418 O 0.41784 0.63375 0.92326 0.0
O419 O 0.40765 0.67445 0.89759 0.0
O420 O 0.38898 0.66374 0.9276 0.0
C421 C 0.33206 0.60578 0.90232 0.0
O422 O 0.38715 0.63356 0.86947 0.0
O423 O 0.40233 0.6139 0.88598 0.0
In424 In 0.76759 0.39284 0.06864 0.0
O425 O 0.77712 0.38411 0.10158 0.0
O426 O 0.79893 0.422 0.09066 0.0
C427 C 0.74038 0.34316 0.05816 0.0
C428 C 0.73401 0.40855 0.07758 0.0
C429 C 0.79716 0.40983 0.03323 0.0
O430 O 0.76152 0.35287 0.0681 0.0
O431 O 0.73294 0.35847 0.05358 0.0
O432 O 0.77903 0.41398 0.03685 0.0
O433 O 0.80055 0.39752 0.0475 0.0
C434 C 0.79484 0.40655 0.10537 0.0
O435 O 0.75652 0.42343 0.07083 0.0
O436 O 0.72847 0.38585 0.07979 0.0
In437 In 0.38716 0.76891 0.22817 0.0
O438 O 0.41662 0.75669 0.23481 0.0
O439 O 0.38965 0.738 0.20983 0.0
C440 C 0.39617 0.80094 0.26112 0.0
C441 C 0.40241 0.80014 0.19426 0.0
C442 C 0.3385 0.7331 0.23815 0.0
O443 O 0.41023 0.79153 0.25753 0.0
O444 O 0.37813 0.79454 0.24798 0.0
O445 O 0.34386 0.74682 0.22185 0.0
O446 O 0.35774 0.73703 0.24909 0.0
C447 C 0.40852 0.74011 0.22023 0.0
O448 O 0.37907 0.78407 0.19785 0.0
O449 O 0.41802 0.80044 0.20771 0.0
H450 H 0.17489 0.66376 0.26108 0.0
H451 H 0.32233 0.70083 0.27192 0.0
H452 H 0.20395 0.63744 0.31133 0.0
H453 H 0.2938 0.7254 0.22001 0.0
H454 H 0.27827 0.67485 0.28501 0.0
H455 H 0.21752 0.68422 0.24437 0.0
C456 C 0.19018 0.66218 0.26855 0.0
C457 C 0.18581 0.64889 0.28766 0.0
C458 C 0.28157 0.68575 0.27066 0.0
C459 C 0.23461 0.67217 0.26862 0.0
C460 C 0.30674 0.70056 0.26316 0.0
C461 C 0.31172 0.71539 0.24493 0.0
C462 C 0.26122 0.68589 0.25993 0.0
C463 C 0.29079 0.71429 0.23417 0.0
C464 C 0.21448 0.67376 0.25895 0.0
C465 C 0.20628 0.6472 0.29647 0.0
N466 N 0.26646 0.69996 0.24194 0.0
N467 N 0.22977 0.65883 0.28697 0.0
H468 H 0.54621 0.20909 0.48647 0.0
H469 H 0.5801 0.3072 0.39127 0.0
H470 H 0.54703 0.18848 0.42082 0.0
H471 H 0.59856 0.32889 0.45714 0.0
H472 H 0.56204 0.26255 0.40133 0.0
H473 H 0.55882 0.25194 0.47541 0.0
C474 C 0.54865 0.21346 0.46967 0.0
C475 C 0.54552 0.19512 0.45454 0.0
C476 C 0.57 0.27713 0.41354 0.0
C477 C 0.56045 0.24444 0.44178 0.0
C478 C 0.58023 0.30255 0.40783 0.0
C479 C 0.59094 0.32173 0.4234 0.0
C480 C 0.57023 0.27095 0.43497 0.0
C481 C 0.59064 0.31472 0.44461 0.0
C482 C 0.55611 0.23803 0.46338 0.0
C483 C 0.54946 0.2021 0.43302 0.0
N484 N 0.58045 0.28993 0.44976 0.0
N485 N 0.55677 0.22625 0.42726 0.0
H486 H 0.3506 0.52353 0.59611 0.0
H487 H 0.32298 0.63815 0.606 0.0
H488 H 0.38336 0.58231 0.64424 0.0
H489 H 0.28421 0.57695 0.56061 0.0
H490 H 0.34869 0.61995 0.61752 0.0
H491 H 0.32918 0.54456 0.58045 0.0
C492 C 0.35342 0.54089 0.60332 0.0
C493 C 0.36887 0.55113 0.62154 0.0
C494 C 0.33467 0.61051 0.60496 0.0
C495 C 0.34454 0.57533 0.60363 0.0
C496 C 0.31999 0.62093 0.59836 0.0
C497 C 0.30132 0.60894 0.58243 0.0
C498 C 0.33062 0.58783 0.59564 0.0
C499 C 0.29835 0.58674 0.57301 0.0
C500 C 0.34126 0.55292 0.59432 0.0
C501 C 0.37204 0.57386 0.63002 0.0
N502 N 0.31275 0.57678 0.57985 0.0
N503 N 0.35992 0.58507 0.62106 0.0
H504 H 0.81295 0.36088 0.81761 0.0
H505 H 0.71615 0.3071 0.7186 0.0
H506 H 0.83134 0.39766 0.75653 0.0
H507 H 0.69258 0.28675 0.78379 0.0
H508 H 0.76039 0.33613 0.73086 0.0
H509 H 0.77073 0.32891 0.80391 0.0
C510 C 0.80822 0.36203 0.80121 0.0
C511 C 0.82566 0.38198 0.78819 0.0
C512 C 0.74551 0.32523 0.74243 0.0
C513 C 0.77724 0.34558 0.77246 0.0
C514 C 0.72033 0.30865 0.73546 0.0
C515 C 0.70071 0.29464 0.75023 0.0
C516 C 0.75108 0.32752 0.76428 0.0
C517 C 0.70711 0.29733 0.77188 0.0
C518 C 0.78404 0.3439 0.79346 0.0
C519 C 0.81835 0.38273 0.76715 0.0
N520 N 0.73174 0.31342 0.77825 0.0
N521 N 0.79466 0.36478 0.75993 0.0
H522 H 0.45902 0.81899 0.9882 0.0
H523 H 0.42861 0.72399 0.89013 0.0
H524 H 0.46336 0.84299 0.92321 0.0
H525 H 0.40295 0.70018 0.95443 0.0
H526 H 0.44673 0.76843 0.90155 0.0
H527 H 0.44456 0.77606 0.97564 0.0
C528 C 0.45729 0.81531 0.97124 0.0
C529 C 0.46249 0.83465 0.95672 0.0
C530 C 0.4371 0.7534 0.91308 0.0
C531 C 0.44547 0.78528 0.94222 0.0
C532 C 0.42682 0.72812 0.90661 0.0
C533 C 0.41421 0.70842 0.92136 0.0
C534 C 0.43502 0.7589 0.93448 0.0
C535 C 0.4124 0.71475 0.9425 0.0
C536 C 0.44877 0.79071 0.96409 0.0
C537 C 0.45938 0.82859 0.93494 0.0
N538 N 0.42276 0.7394 0.94843 0.0
N539 N 0.45107 0.80438 0.92831 0.0
H540 H 0.66399 0.48867 0.13137 0.0
H541 H 0.68196 0.37919 0.08282 0.0
H542 H 0.60083 0.4214 0.10266 0.0
H543 H 0.74436 0.45708 0.08438 0.0
H544 H 0.65194 0.39335 0.09284 0.0
H545 H 0.69398 0.47699 0.11645 0.0
C546 C 0.65635 0.47166 0.12168 0.0
C547 C 0.62965 0.45596 0.11844 0.0
C548 C 0.67217 0.40735 0.09083 0.0
C549 C 0.66405 0.44213 0.10187 0.0
C550 C 0.68931 0.39928 0.08523 0.0
C551 C 0.71565 0.41701 0.08283 0.0
C552 C 0.68153 0.43327 0.09447 0.0
C553 C 0.72417 0.44282 0.08605 0.0
C554 C 0.67356 0.46494 0.11329 0.0
C555 C 0.6211 0.43385 0.10607 0.0
N556 N 0.70718 0.45017 0.09194 0.0
N557 N 0.6382 0.42745 0.09846 0.0
H558 H 0.34634 0.84566 0.53401 0.0
H559 H 0.32197 0.70424 0.52919 0.0
H560 H 0.38267 0.81981 0.48923 0.0
H561 H 0.28188 0.72705 0.57276 0.0
H562 H 0.34692 0.74776 0.51654 0.0
H563 H 0.32473 0.80353 0.55033 0.0
C564 C 0.34986 0.83121 0.52765 0.0
C565 C 0.36642 0.83638 0.51021 0.0
C566 C 0.33277 0.74335 0.52894 0.0
C567 C 0.34187 0.7882 0.52888 0.0
C568 C 0.31852 0.71847 0.53619 0.0
C569 C 0.29973 0.712 0.55197 0.0
C570 C 0.32818 0.76199 0.53743 0.0
C571 C 0.29616 0.73125 0.56052 0.0
C572 C 0.3376 0.8072 0.53703 0.0
C573 C 0.37046 0.81695 0.50283 0.0
N574 N 0.31016 0.75539 0.55305 0.0
N575 N 0.35822 0.79379 0.51213 0.0
H576 H 0.60112 0.41334 0.69172 0.0
H577 H 0.55878 0.27291 0.73013 0.0
H578 H 0.52153 0.35309 0.69495 0.0
H579 H 0.63653 0.32966 0.71301 0.0
H580 H 0.5447 0.30316 0.72183 0.0
H581 H 0.61428 0.38414 0.70447 0.0
C582 C 0.58635 0.39404 0.69541 0.0
C583 C 0.56015 0.38568 0.69227 0.0
C584 C 0.56484 0.30897 0.71999 0.0
C585 C 0.57519 0.35191 0.70658 0.0
C586 C 0.57289 0.29177 0.72476 0.0
C587 C 0.59883 0.29879 0.72215 0.0
C588 C 0.58294 0.33337 0.71275 0.0
C589 C 0.61632 0.32342 0.71514 0.0
C590 C 0.59391 0.37729 0.70251 0.0
C591 C 0.54195 0.36027 0.69694 0.0
N592 N 0.60805 0.33979 0.71069 0.0
N593 N 0.54981 0.34425 0.70384 0.0
H594 H 0.1869 0.50318 0.84409 0.0
H595 H 0.29949 0.62453 0.90227 0.0
H596 H 0.17826 0.56508 0.86726 0.0
H597 H 0.30112 0.55555 0.89206 0.0
H598 H 0.25443 0.60249 0.89087 0.0
H599 H 0.22778 0.52106 0.863 0.0
C600 C 0.19331 0.52029 0.85343 0.0
C601 C 0.17907 0.5327 0.85389 0.0
C602 C 0.26452 0.59207 0.89136 0.0
C603 C 0.22638 0.55365 0.87524 0.0
C604 C 0.29025 0.60465 0.89786 0.0
C605 C 0.30408 0.59187 0.89796 0.0
C606 C 0.25263 0.56662 0.88465 0.0
C607 C 0.29117 0.56612 0.89215 0.0
C608 C 0.21681 0.5306 0.86414 0.0
C609 C 0.18877 0.55511 0.86603 0.0
N610 N 0.26624 0.55441 0.88548 0.0
N611 N 0.21192 0.56499 0.87602 0.0
H612 H 0.69882 0.19815 0.00381 0.0
H613 H 0.68999 0.31532 0.04584 0.0
H614 H 0.62609 0.19089 0.02198 0.0
H615 H 0.75764 0.30964 0.05622 0.0
H616 H 0.66659 0.27085 0.03415 0.0
H617 H 0.72126 0.23992 0.02065 0.0
C618 C 0.68747 0.20503 0.0116 0.0
C619 C 0.66036 0.19078 0.01129 0.0
C620 C 0.68649 0.27931 0.03915 0.0
C621 C 0.68618 0.23919 0.03001 0.0
C622 C 0.69987 0.30467 0.04571 0.0
C623 C 0.72577 0.31612 0.05193 0.0
C624 C 0.69928 0.2655 0.03841 0.0
C625 C 0.73766 0.30148 0.05156 0.0
C626 C 0.70039 0.22904 0.02109 0.0
C627 C 0.64693 0.20126 0.0213 0.0
N628 N 0.7244 0.27697 0.04467 0.0
N629 N 0.65996 0.22493 0.03001 0.0
H630 H 0.44525 0.63297 0.1645 0.0
H631 H 0.45333 0.74551 0.23624 0.0
H632 H 0.51441 0.68773 0.19745 0.0
H633 H 0.39113 0.70001 0.19274 0.0
H634 H 0.47387 0.72115 0.22613 0.0
H635 H 0.4229 0.65362 0.17903 0.0
C636 C 0.45565 0.64911 0.17507 0.0
C637 C 0.48178 0.65865 0.17973 0.0
C638 C 0.45568 0.71645 0.21888 0.0
C639 C 0.45635 0.68268 0.19618 0.0
C640 C 0.44393 0.73029 0.22467 0.0
C641 C 0.42057 0.72484 0.21522 0.0
C642 C 0.44386 0.69691 0.20366 0.0
C643 C 0.40921 0.70494 0.20033 0.0
C644 C 0.44292 0.66104 0.18321 0.0
C645 C 0.49434 0.67991 0.19325 0.0
N646 N 0.42098 0.69173 0.195 0.0
N647 N 0.48153 0.69127 0.20095 0.0
H648 H 0.81759 0.42854 0.36763 0.0
H649 H 0.71265 0.46788 0.39308 0.0
H650 H 0.83196 0.50457 0.35849 0.0
H651 H 0.70307 0.39469 0.40736 0.0
H652 H 0.75737 0.48291 0.38256 0.0
H653 H 0.77683 0.41709 0.38454 0.0
C654 C 0.81244 0.44302 0.36947 0.0
C655 C 0.8284 0.46762 0.36155 0.0
C656 C 0.74554 0.46365 0.3882 0.0
C657 C 0.78104 0.45429 0.38055 0.0
C658 C 0.72005 0.45508 0.39424 0.0
C659 C 0.7041 0.42995 0.40095 0.0
C660 C 0.75503 0.4469 0.38881 0.0
C661 C 0.71464 0.41417 0.40216 0.0
C662 C 0.78895 0.43636 0.37902 0.0
C663 C 0.82017 0.48528 0.36403 0.0
N664 N 0.73935 0.42284 0.39599 0.0
N665 N 0.79698 0.47822 0.37317 0.0
H666 H 0.12078 0.631 0.43995 0.0
H667 H 0.21618 0.59631 0.49906 0.0
H668 H 0.14859 0.58498 0.41159 0.0
H669 H 0.18441 0.63839 0.52843 0.0
H670 H 0.18999 0.59012 0.46745 0.0
H671 H 0.14246 0.63226 0.47308 0.0
C672 C 0.1314 0.6211 0.44072 0.0
C673 C 0.13298 0.60797 0.42295 0.0
C674 C 0.18862 0.60057 0.48086 0.0
C675 C 0.15784 0.60929 0.46084 0.0
C676 C 0.20356 0.60409 0.4989 0.0
C677 C 0.20254 0.61798 0.51633 0.0
C678 C 0.17264 0.61111 0.48024 0.0
C679 C 0.18585 0.62762 0.51531 0.0
C680 C 0.14369 0.62173 0.45966 0.0
C681 C 0.14669 0.59516 0.42495 0.0
N682 N 0.17168 0.62414 0.49752 0.0
N683 N 0.15875 0.5963 0.44349 0.0
H684 H 0.52998 0.14329 0.5803 0.0
H685 H 0.63883 0.20682 0.66983 0.0
H686 H 0.59964 0.13948 0.57914 0.0
H687 H 0.56353 0.19865 0.67525 0.0
H688 H 0.62539 0.18279 0.63636 0.0
H689 H 0.54226 0.16378 0.61503 0.0
C690 C 0.54771 0.14642 0.58745 0.0
C691 C 0.56374 0.13951 0.57672 0.0
C692 C 0.61179 0.18617 0.64493 0.0
C693 C 0.57825 0.16366 0.61646 0.0
C694 C 0.61946 0.19992 0.66399 0.0
C695 C 0.60228 0.20478 0.67526 0.0
C696 C 0.58683 0.1774 0.63706 0.0
C697 C 0.57741 0.19536 0.66704 0.0
C698 C 0.55481 0.15833 0.60726 0.0
C699 C 0.58681 0.14472 0.58666 0.0
N700 N 0.57047 0.18223 0.6484 0.0
N701 N 0.59342 0.15658 0.60592 0.0
H702 H 0.37674 0.55622 0.74298 0.0
H703 H 0.4261 0.59746 0.86174 0.0
H704 H 0.43969 0.55049 0.76911 0.0
H705 H 0.3809 0.62308 0.82871 0.0
H706 H 0.43059 0.57908 0.82847 0.0
H707 H 0.37667 0.57921 0.77491 0.0
C708 C 0.39051 0.55976 0.7555 0.0
C709 C 0.40813 0.55131 0.75351 0.0
C710 C 0.41991 0.58894 0.82846 0.0
C711 C 0.40824 0.57767 0.79003 0.0
C712 C 0.41734 0.59942 0.84743 0.0
C713 C 0.40305 0.61173 0.84796 0.0
C714 C 0.40778 0.59046 0.80998 0.0
C715 C 0.3921 0.61376 0.82898 0.0
C716 C 0.3906 0.57305 0.77363 0.0
C717 C 0.42583 0.55675 0.77003 0.0
N718 N 0.39447 0.60299 0.81079 0.0
N719 N 0.42529 0.56941 0.78771 0.0
H720 H 0.8802 0.48524 0.91839 0.0
H721 H 0.82722 0.39217 0.01728 0.0
H722 H 0.87004 0.41 0.91696 0.0
H723 H 0.8018 0.44515 0.00428 0.0
H724 H 0.85095 0.40379 0.98364 0.0
H725 H 0.8587 0.47565 0.95295 0.0
C726 C 0.87347 0.46671 0.9252 0.0
C727 C 0.87699 0.44841 0.9145 0.0
C728 C 0.84024 0.41291 0.98821 0.0
C729 C 0.85304 0.43774 0.95442 0.0
C730 C 0.8268 0.4064 0.00741 0.0
C731 C 0.81247 0.41767 0.01348 0.0
C732 C 0.83971 0.43116 0.97519 0.0
C733 C 0.81252 0.43593 8e-05 0.0
C734 C 0.86132 0.46136 0.94501 0.0
C735 C 0.86833 0.42498 0.92459 0.0
N736 N 0.82604 0.44222 0.98155 0.0
N737 N 0.85686 0.42038 0.94397 0.0
H738 H 0.41137 0.8873 0.08324 0.0
H739 H 0.45154 0.8303 0.17972 0.0
H740 H 0.48262 0.8864 0.08501 0.0
H741 H 0.37258 0.80826 0.16643 0.0
H742 H 0.46513 0.85705 0.14807 0.0
H743 H 0.39868 0.86412 0.11679 0.0
C744 C 0.42439 0.88231 0.09063 0.0
C745 C 0.4481 0.8888 0.08111 0.0
C746 C 0.44484 0.8464 0.15212 0.0
C747 C 0.43381 0.86265 0.11973 0.0
C748 C 0.43708 0.83119 0.17019 0.0
C749 C 0.41089 0.81696 0.1756 0.0
C750 C 0.4263 0.8476 0.13952 0.0
C751 C 0.39296 0.81883 0.16272 0.0
C752 C 0.41714 0.86916 0.10983 0.0
C753 C 0.46435 0.88224 0.09178 0.0
N754 N 0.401 0.8339 0.14526 0.0
N755 N 0.45689 0.86952 0.11047 0.0
H756 H 0.61166 0.45037 0.24055 0.0
H757 H 0.57872 0.42862 0.36439 0.0
H758 H 0.54993 0.45682 0.26898 0.0
H759 H 0.62511 0.40376 0.33159 0.0
H760 H 0.56976 0.44171 0.33028 0.0
H761 H 0.61922 0.43648 0.27463 0.0
C762 C 0.59983 0.44906 0.25404 0.0
C763 C 0.58023 0.45488 0.25198 0.0
C764 C 0.58178 0.43327 0.33057 0.0
C765 C 0.58861 0.43874 0.29103 0.0
C766 C 0.58691 0.42582 0.35 0.0
C767 C 0.60268 0.41511 0.35077 0.0
C768 C 0.59276 0.43024 0.31186 0.0
C769 C 0.61282 0.4119 0.33169 0.0
C770 C 0.604 0.44091 0.27345 0.0
C771 C 0.56517 0.45239 0.26989 0.0
N772 N 0.60781 0.41958 0.31303 0.0
N773 N 0.56974 0.44461 0.28872 0.0
H774 H 0.4501 0.90635 0.36814 0.0
H775 H 0.36107 0.81182 0.27743 0.0
H776 H 0.36761 0.85749 0.37509 0.0
H777 H 0.43823 0.8262 0.28741 0.0
H778 H 0.36519 0.83635 0.30952 0.0
H779 H 0.44793 0.88401 0.33504 0.0
C780 C 0.43156 0.89098 0.36286 0.0
C781 C 0.40898 0.88397 0.37459 0.0
C782 C 0.38124 0.8342 0.30463 0.0
C783 C 0.40646 0.85896 0.3364 0.0
C784 C 0.37897 0.82033 0.28629 0.0
C785 C 0.39932 0.81692 0.27985 0.0
C786 C 0.40418 0.84513 0.31642 0.0
C787 C 0.42207 0.8283 0.29195 0.0
C788 C 0.43039 0.87836 0.3439 0.0
C789 C 0.3855 0.86416 0.36652 0.0
N790 N 0.42396 0.84204 0.30969 0.0
N791 N 0.38486 0.8525 0.34791 0.0
H792 H 0.60004 0.48693 0.55886 0.0
H793 H 0.5614 0.39322 0.45889 0.0
H794 H 0.53436 0.41055 0.55778 0.0
H795 H 0.6386 0.45635 0.46862 0.0
H796 H 0.54828 0.40368 0.4924 0.0
H797 H 0.61177 0.47985 0.52327 0.0
C798 C 0.58806 0.46869 0.55122 0.0
C799 C 0.56618 0.44929 0.5615 0.0
C800 C 0.56806 0.41533 0.48715 0.0
C801 C 0.57928 0.44136 0.52057 0.0
C802 C 0.57554 0.40944 0.46799 0.0
C803 C 0.60117 0.42385 0.46105 0.0
C804 C 0.58627 0.43591 0.49941 0.0
C805 C 0.61868 0.44468 0.47347 0.0
C806 C 0.59473 0.46475 0.53085 0.0
C807 C 0.55114 0.42626 0.55049 0.0
N808 N 0.61092 0.45008 0.49212 0.0
N809 N 0.55799 0.42296 0.53068 0.0
H810 H 0.12029 0.50832 0.69618 0.0
H811 H 0.22088 0.63901 0.63974 0.0
H812 H 0.15623 0.58118 0.72796 0.0
H813 H 0.18459 0.56599 0.60824 0.0
H814 H 0.19579 0.61856 0.67175 0.0
H815 H 0.14234 0.52943 0.66337 0.0
C816 C 0.13283 0.52876 0.69627 0.0
C817 C 0.13646 0.54298 0.71489 0.0
C818 C 0.19322 0.60703 0.6578 0.0
C819 C 0.16169 0.56733 0.67731 0.0
C820 C 0.20751 0.6187 0.63953 0.0
C821 C 0.20486 0.60415 0.62135 0.0
C822 C 0.17621 0.58062 0.65788 0.0
C823 C 0.18728 0.57792 0.62193 0.0
C824 C 0.14533 0.54083 0.67749 0.0
C825 C 0.15264 0.56947 0.71395 0.0
N826 N 0.17371 0.56699 0.63992 0.0
N827 N 0.16474 0.58077 0.69551 0.0
H828 H 0.57635 0.15046 0.88924 0.0
H829 H 0.61749 0.17397 0.76675 0.0
H830 H 0.61698 0.11852 0.85726 0.0
H831 H 0.58416 0.21224 0.8002 0.0
H832 H 0.61197 0.14897 0.79851 0.0
H833 H 0.57368 0.16869 0.85559 0.0
C834 C 0.58442 0.147 0.87508 0.0
C835 C 0.59706 0.13307 0.87609 0.0
C836 C 0.60565 0.16268 0.79886 0.0
C837 C 0.59431 0.15413 0.83757 0.0
C838 C 0.60873 0.17691 0.78071 0.0
C839 C 0.60146 0.19535 0.78092 0.0
C840 C 0.59527 0.16695 0.81738 0.0
C841 C 0.59015 0.1983 0.79942 0.0
C842 C 0.58302 0.15755 0.8559 0.0
C843 C 0.60743 0.12947 0.85728 0.0
N844 N 0.58758 0.18439 0.81697 0.0
N845 N 0.60592 0.14003 0.83882 0.0
H846 H 0.51355 0.62425 0.02964 0.0
H847 H 0.38116 0.5958 0.97552 0.0
H848 H 0.44211 0.59623 0.06412 0.0
H849 H 0.45489 0.63367 0.94376 0.0
H850 H 0.40214 0.59137 0.00713 0.0
H851 H 0.49141 0.62382 0.99707 0.0
C852 C 0.49322 0.61805 0.03039 0.0
C853 C 0.47973 0.61042 0.04971 0.0
C854 C 0.41369 0.60052 0.9932 0.0
C855 C 0.45416 0.60959 0.01237 0.0
C856 C 0.40171 0.60298 0.97515 0.0
C857 C 0.41635 0.61523 0.95706 0.0
C858 C 0.44046 0.61033 0.9931 0.0
C859 C 0.44291 0.62419 0.95741 0.0
C860 C 0.48055 0.61767 0.01175 0.0
C861 C 0.45326 0.60205 0.04958 0.0
N862 N 0.45412 0.62165 0.97517 0.0
N863 N 0.44137 0.60196 0.03123 0.0
H864 H 0.87003 0.48687 0.22043 0.0
H865 H 0.79713 0.37608 0.1358 0.0
H866 H 0.87223 0.41742 0.22298 0.0
H867 H 0.82514 0.45461 0.12093 0.0
H868 H 0.82041 0.38948 0.16971 0.0
H869 H 0.84978 0.4742 0.18553 0.0
C870 C 0.86659 0.4691 0.21364 0.0
C871 C 0.873 0.45326 0.22482 0.0
C872 C 0.82154 0.40375 0.15895 0.0
C873 C 0.849 0.43834 0.185 0.0
C874 C 0.80821 0.39613 0.13968 0.0
C875 C 0.80925 0.41429 0.12559 0.0
C876 C 0.83557 0.42966 0.16431 0.0
C877 C 0.82391 0.44002 0.13134 0.0
C878 C 0.85484 0.46183 0.19373 0.0
C879 C 0.86728 0.43011 0.21525 0.0
N880 N 0.83633 0.44695 0.15035 0.0
N881 N 0.85546 0.42328 0.19597 0.0
loop_
_geom_bond_atom_site_label_1
_geom_bond_atom_site_label_2
_geom_bond_distance
_geom_bond_site_symmetry_2
_ccdc_geom_bond_type
H0 C27 0.929 . S
N1 C26 1.433 . S
N1 C32 1.435 . S
N1 C38 1.423 . S
H2 C28 0.930 . S
H3 C31 0.931 . S
H4 C30 0.929 . S
H5 C33 0.930 . S
H6 C34 0.932 . S
H7 C37 0.929 . S
H8 C36 0.931 . S
H9 C39 0.929 . S
H10 C43 0.932 . S
H11 C40 0.931 . S
H12 C42 0.929 . S
H13 C45 0.929 . S
H14 C46 0.930 . S
H15 C48 0.929 . S
H16 C49 0.931 . S
H17 C51 0.930 . S
H18 C52 0.932 . S
H19 C54 0.931 . S
H20 C55 0.929 . S
H21 C57 0.929 . S
H22 C58 0.931 . S
H23 C60 0.929 . S
N24 C44 1.433 . S
N24 C50 1.435 . S
N24 C56 1.423 . S
H25 C61 0.932 . S
C26 N1 1.433 . S
C26 C27 1.363 . S
C26 C31 1.370 . S
C27 H0 0.929 . S
C27 C26 1.363 . S
C27 C28 1.385 . S
C28 H2 0.930 . S
C28 C27 1.385 . S
C28 C29 1.357 . S
C29 C28 1.357 . S
C29 C30 1.406 . S
C30 H4 0.929 . S
C30 C29 1.406 . S
C30 C31 1.391 . S
C31 H3 0.931 . S
C31 C26 1.370 . S
C31 C30 1.391 . S
C32 N1 1.435 . S
C32 C33 1.358 . S
C32 C37 1.371 . S
C33 H5 0.930 . S
C33 C32 1.358 . S
C33 C34 1.405 . S
C34 H6 0.932 . S
C34 C33 1.405 . S
C34 C35 1.383 . S
C35 C34 1.383 . S
C35 C36 1.393 . S
C36 H8 0.931 . S
C36 C35 1.393 . S
C36 C37 1.382 . S
C37 H7 0.929 . S
C37 C32 1.371 . S
C37 C36 1.382 . S
C38 N1 1.423 . S
C38 C39 1.362 . S
C38 C43 1.388 . S
C39 H9 0.929 . S
C39 C38 1.362 . S
C39 C40 1.376 . S
C40 H11 0.931 . S
C40 C39 1.376 . S
C40 C41 1.396 . S
C41 C40 1.396 . S
C41 C42 1.348 . S
C41 C59 1.472 1_455 S
C42 H12 0.929 . S
C42 C41 1.348 . S
C42 C43 1.443 . S
C43 H10 0.932 . S
C43 C38 1.388 . S
C43 C42 1.443 . S
C44 N24 1.433 . S
C44 C45 1.363 . S
C44 C49 1.370 . S
C45 H13 0.929 . S
C45 C44 1.363 . S
C45 C46 1.385 . S
C46 H14 0.930 . S
C46 C45 1.385 . S
C46 C47 1.357 . S
C47 C46 1.357 . S
C47 C48 1.406 . S
C48 H15 0.929 . S
C48 C47 1.406 . S
C48 C49 1.391 . S
C49 H16 0.931 . S
C49 C44 1.370 . S
C49 C48 1.391 . S
C50 N24 1.435 . S
C50 C51 1.358 . S
C50 C55 1.371 . S
C51 H17 0.930 . S
C51 C50 1.358 . S
C51 C52 1.405 . S
C52 H18 0.932 . S
C52 C51 1.405 . S
C52 C53 1.383 . S
C53 C52 1.383 . S
C53 C54 1.393 . S
C54 H19 0.931 . S
C54 C53 1.393 . S
C54 C55 1.382 . S
C55 H20 0.929 . S
C55 C50 1.371 . S
C55 C54 1.382 . S
C56 N24 1.423 . S
C56 C57 1.362 . S
C56 C61 1.388 . S
C57 H21 0.929 . S
C57 C56 1.362 . S
C57 C58 1.376 . S
C58 H22 0.931 . S
C58 C57 1.376 . S
C58 C59 1.396 . S
C59 C41 1.472 1_655 S
C59 C58 1.396 . S
C59 C60 1.348 . S
C60 H23 0.929 . S
C60 C59 1.348 . S
C60 C61 1.443 . S
C61 H25 0.932 . S
C61 C56 1.388 . S
C61 C60 1.443 . S
H62 C89 0.929 . S
N63 C88 1.433 . S
N63 C94 1.435 . S
N63 C100 1.423 . S
H64 C90 0.930 . S
H65 C93 0.931 . S
H66 C92 0.929 . S
H67 C95 0.930 . S
H68 C96 0.932 . S
H69 C99 0.929 . S
H70 C98 0.931 . S
H71 C101 0.929 . S
H72 C105 0.932 . S
H73 C102 0.931 . S
H74 C104 0.929 1_545 S
H75 C107 0.929 . S
H76 C108 0.930 . S
H77 C110 0.929 . S
H78 C111 0.931 . S
H79 C113 0.930 . S
H80 C114 0.932 . S
H81 C116 0.931 . S
H82 C117 0.929 . S
H83 C119 0.929 . S
H84 C120 0.931 . S
H85 C122 0.929 . S
N86 C106 1.433 . S
N86 C112 1.435 . S
N86 C118 1.423 . S
H87 C123 0.932 . S
C88 N63 1.433 . S
C88 C89 1.363 . S
C88 C93 1.370 . S
C89 H62 0.929 . S
C89 C88 1.363 . S
C89 C90 1.385 . S
C90 H64 0.930 . S
C90 C89 1.385 . S
C90 C91 1.357 . S
C91 C90 1.357 . S
C91 C92 1.406 . S
C92 H66 0.929 . S
C92 C91 1.406 . S
C92 C93 1.391 . S
C93 H65 0.931 . S
C93 C88 1.370 . S
C93 C92 1.391 . S
C94 N63 1.435 . S
C94 C95 1.358 . S
C94 C99 1.371 . S
C95 H67 0.930 . S
C95 C94 1.358 . S
C95 C96 1.405 . S
C96 H68 0.932 . S
C96 C95 1.405 . S
C96 C97 1.383 . S
C97 C96 1.383 . S
C97 C98 1.393 . S
C98 H70 0.931 . S
C98 C97 1.393 . S
C98 C99 1.382 . S
C99 H69 0.929 . S
C99 C94 1.371 . S
C99 C98 1.382 . S
C100 N63 1.423 . S
C100 C101 1.362 . S
C100 C105 1.388 . S
C101 H71 0.929 . S
C101 C100 1.362 . S
C101 C102 1.376 . S
C102 H73 0.931 . S
C102 C101 1.376 . S
C102 C103 1.396 1_565 S
C103 C102 1.396 1_545 S
C103 C104 1.348 1_545 S
C103 C121 1.472 . S
C104 H74 0.929 1_565 S
C104 C103 1.348 1_565 S
C104 C105 1.443 . S
C105 H72 0.932 . S
C105 C100 1.388 . S
C105 C104 1.443 . S
C106 N86 1.433 . S
C106 C107 1.363 . S
C106 C111 1.370 . S
C107 H75 0.929 . S
C107 C106 1.363 . S
C107 C108 1.385 . S
C108 H76 0.930 . S
C108 C107 1.385 . S
C108 C109 1.357 . S
C109 C108 1.357 . S
C109 C110 1.406 . S
C110 H77 0.929 . S
C110 C109 1.406 . S
C110 C111 1.391 . S
C111 H78 0.931 . S
C111 C106 1.370 . S
C111 C110 1.391 . S
C112 N86 1.435 . S
C112 C113 1.358 . S
C112 C117 1.371 . S
C113 H79 0.930 . S
C113 C112 1.358 . S
C113 C114 1.405 . S
C114 H80 0.932 . S
C114 C113 1.405 . S
C114 C115 1.383 . S
C115 C114 1.383 . S
C115 C116 1.393 . S
C116 H81 0.931 . S
C116 C115 1.393 . S
C116 C117 1.382 . S
C117 H82 0.929 . S
C117 C112 1.371 . S
C117 C116 1.382 . S
C118 N86 1.423 . S
C118 C119 1.362 . S
C118 C123 1.388 . S
C119 H83 0.929 . S
C119 C118 1.362 . S
C119 C120 1.376 . S
C120 H84 0.931 . S
C120 C119 1.376 . S
C120 C121 1.396 . S
C121 C103 1.472 . S
C121 C120 1.396 . S
C121 C122 1.348 . S
C122 H85 0.929 . S
C122 C121 1.348 . S
C122 C123 1.443 . S
C123 H87 0.932 . S
C123 C118 1.388 . S
C123 C122 1.443 . S
H124 C151 0.929 . S
N125 C150 1.433 . S
N125 C156 1.435 . S
N125 C162 1.423 . S
H126 C152 0.930 . S
H127 C155 0.931 . S
H128 C154 0.929 . S
H129 C157 0.930 . S
H130 C158 0.932 . S
H131 C161 0.929 . S
H132 C160 0.931 . S
H133 C163 0.929 . S
H134 C167 0.932 . S
H135 C164 0.931 . S
H136 C166 0.929 . S
H137 C169 0.929 . S
H138 C170 0.930 . S
H139 C172 0.929 . S
H140 C173 0.931 . S
H141 C175 0.930 . S
H142 C176 0.932 . S
H143 C178 0.931 . S
H144 C179 0.929 . S
H145 C181 0.929 . S
H146 C182 0.931 . S
H147 C184 0.929 . S
N148 C168 1.433 . S
N148 C174 1.435 . S
N148 C180 1.423 . S
H149 C185 0.932 . S
C150 N125 1.433 . S
C150 C151 1.363 . S
C150 C155 1.370 . S
C151 H124 0.929 . S
C151 C150 1.363 . S
C151 C152 1.385 . S
C152 H126 0.930 . S
C152 C151 1.385 . S
C152 C153 1.357 . S
C153 C152 1.357 . S
C153 C154 1.406 . S
C154 H128 0.929 . S
C154 C153 1.406 . S
C154 C155 1.391 . S
C155 H127 0.931 . S
C155 C150 1.370 . S
C155 C154 1.391 . S
C156 N125 1.435 . S
C156 C157 1.358 . S
C156 C161 1.371 . S
C157 H129 0.930 . S
C157 C156 1.358 . S
C157 C158 1.405 . S
C158 H130 0.932 . S
C158 C157 1.405 . S
C158 C159 1.383 . S
C159 C158 1.383 . S
C159 C160 1.393 . S
C160 H132 0.931 . S
C160 C159 1.393 . S
C160 C161 1.382 . S
C161 H131 0.929 . S
C161 C156 1.371 . S
C161 C160 1.382 . S
C162 N125 1.423 . S
C162 C163 1.362 . S
C162 C167 1.388 . S
C163 H133 0.929 . S
C163 C162 1.362 . S
C163 C164 1.376 . S
C164 H135 0.931 . S
C164 C163 1.376 . S
C164 C165 1.396 . S
C165 C164 1.396 . S
C165 C166 1.348 . S
C165 C183 1.472 . S
C166 H136 0.929 . S
C166 C165 1.348 . S
C166 C167 1.443 . S
C167 H134 0.932 . S
C167 C162 1.388 . S
C167 C166 1.443 . S
C168 N148 1.433 . S
C168 C169 1.363 . S
C168 C173 1.370 . S
C169 H137 0.929 . S
C169 C168 1.363 . S
C169 C170 1.385 . S
C170 H138 0.930 . S
C170 C169 1.385 . S
C170 C171 1.357 . S
C171 C170 1.357 . S
C171 C172 1.406 . S
C172 H139 0.929 . S
C172 C171 1.406 . S
C172 C173 1.391 . S
C173 H140 0.931 . S
C173 C168 1.370 . S
C173 C172 1.391 . S
C174 N148 1.435 . S
C174 C175 1.358 . S
C174 C179 1.371 . S
C175 H141 0.930 . S
C175 C174 1.358 . S
C175 C176 1.405 . S
C176 H142 0.932 . S
C176 C175 1.405 . S
C176 C177 1.383 . S
C177 C176 1.383 . S
C177 C178 1.393 . S
C178 H143 0.931 . S
C178 C177 1.393 . S
C178 C179 1.382 . S
C179 H144 0.929 . S
C179 C174 1.371 . S
C179 C178 1.382 . S
C180 N148 1.423 . S
C180 C181 1.362 . S
C180 C185 1.388 . S
C181 H145 0.929 . S
C181 C180 1.362 . S
C181 C182 1.376 . S
C182 H146 0.931 . S
C182 C181 1.376 . S
C182 C183 1.396 . S
C183 C165 1.472 . S
C183 C182 1.396 . S
C183 C184 1.348 . S
C184 H147 0.929 . S
C184 C183 1.348 . S
C184 C185 1.443 . S
C185 H149 0.932 . S
C185 C180 1.388 . S
C185 C184 1.443 . S
H186 C213 0.929 . S
N187 C212 1.433 . S
N187 C218 1.435 . S
N187 C224 1.423 . S
H188 C214 0.930 . S
H189 C217 0.931 . S
H190 C216 0.929 . S
H191 C219 0.930 . S
H192 C220 0.932 . S
H193 C223 0.929 . S
H194 C222 0.931 . S
H195 C225 0.929 . S
H196 C229 0.932 . S
H197 C226 0.931 . S
H198 C228 0.929 . S
H199 C231 0.929 . S
H200 C232 0.930 . S
H201 C234 0.929 . S
H202 C235 0.931 . S
H203 C237 0.930 . S
H204 C238 0.932 . S
H205 C240 0.931 . S
H206 C241 0.929 . S
H207 C243 0.929 . S
H208 C244 0.931 . S
H209 C246 0.929 . S
N210 C230 1.433 . S
N210 C236 1.435 . S
N210 C242 1.423 . S
H211 C247 0.932 . S
C212 N187 1.433 . S
C212 C213 1.363 . S
C212 C217 1.370 . S
C213 H186 0.929 . S
C213 C212 1.363 . S
C213 C214 1.385 . S
C214 H188 0.930 . S
C214 C213 1.385 . S
C214 C215 1.357 . S
C215 C214 1.357 . S
C215 C216 1.406 . S
C216 H190 0.929 . S
C216 C215 1.406 . S
C216 C217 1.391 . S
C217 H189 0.931 . S
C217 C212 1.370 . S
C217 C216 1.391 . S
C218 N187 1.435 . S
C218 C219 1.358 . S
C218 C223 1.371 . S
C219 H191 0.930 . S
C219 C218 1.358 . S
C219 C220 1.405 . S
C220 H192 0.932 . S
C220 C219 1.405 . S
C220 C221 1.383 . S
C221 C220 1.383 . S
C221 C222 1.393 . S
C222 H194 0.931 . S
C222 C221 1.393 . S
C222 C223 1.382 . S
C223 H193 0.929 . S
C223 C218 1.371 . S
C223 C222 1.382 . S
C224 N187 1.423 . S
C224 C225 1.362 . S
C224 C229 1.388 . S
C225 H195 0.929 . S
C225 C224 1.362 . S
C225 C226 1.376 . S
C226 H197 0.931 . S
C226 C225 1.376 . S
C226 C227 1.396 . S
C227 C226 1.396 . S
C227 C228 1.348 . S
C227 C245 1.472 1_455 S
C228 H198 0.929 . S
C228 C227 1.348 . S
C228 C229 1.443 . S
C229 H196 0.932 . S
C229 C224 1.388 . S
C229 C228 1.443 . S
C230 N210 1.433 . S
C230 C231 1.363 . S
C230 C235 1.370 . S
C231 H199 0.929 . S
C231 C230 1.363 . S
C231 C232 1.385 . S
C232 H200 0.930 . S
C232 C231 1.385 . S
C232 C233 1.357 . S
C233 C232 1.357 . S
C233 C234 1.406 . S
C234 H201 0.929 . S
C234 C233 1.406 . S
C234 C235 1.391 . S
C235 H202 0.931 . S
C235 C230 1.370 . S
C235 C234 1.391 . S
C236 N210 1.435 . S
C236 C237 1.358 . S
C236 C241 1.371 . S
C237 H203 0.930 . S
C237 C236 1.358 . S
C237 C238 1.405 . S
C238 H204 0.932 . S
C238 C237 1.405 . S
C238 C239 1.383 . S
C239 C238 1.383 . S
C239 C240 1.393 . S
C240 H205 0.931 . S
C240 C239 1.393 . S
C240 C241 1.382 . S
C241 H206 0.929 . S
C241 C236 1.371 . S
C241 C240 1.382 . S
C242 N210 1.423 . S
C242 C243 1.362 . S
C242 C247 1.388 . S
C243 H207 0.929 . S
C243 C242 1.362 . S
C243 C244 1.376 . S
C244 H208 0.931 . S
C244 C243 1.376 . S
C244 C245 1.396 . S
C245 C227 1.472 1_655 S
C245 C244 1.396 . S
C245 C246 1.348 . S
C246 H209 0.929 . S
C246 C245 1.348 . S
C246 C247 1.443 . S
C247 H211 0.932 . S
C247 C242 1.388 . S
C247 C246 1.443 . S
H248 C275 0.929 . S
N249 C274 1.433 . S
N249 C280 1.435 . S
N249 C286 1.423 . S
H250 C276 0.930 . S
H251 C279 0.931 . S
H252 C278 0.929 . S
H253 C281 0.930 . S
H254 C282 0.932 . S
H255 C285 0.929 . S
H256 C284 0.931 . S
H257 C287 0.929 . S
H258 C291 0.932 . S
H259 C288 0.931 . S
H260 C290 0.929 . S
H261 C293 0.929 . S
H262 C294 0.930 . S
H263 C296 0.929 . S
H264 C297 0.931 . S
H265 C299 0.930 . S
H266 C300 0.932 . S
H267 C302 0.931 . S
H268 C303 0.929 . S
H269 C305 0.929 . S
H270 C306 0.931 . S
H271 C308 0.929 . S
N272 C292 1.433 . S
N272 C298 1.435 1_554 S
N272 C304 1.445 . S
H273 C309 0.932 . S
C274 N249 1.433 . S
C274 C275 1.363 . S
C274 C279 1.370 . S
C275 H248 0.929 . S
C275 C274 1.363 . S
C275 C276 1.385 . S
C276 H250 0.930 . S
C276 C275 1.385 . S
C276 C277 1.357 1_556 S
C277 C276 1.357 1_554 S
C277 C278 1.406 . S
C278 H252 0.929 . S
C278 C277 1.406 . S
C278 C279 1.391 1_554 S
C279 H251 0.931 . S
C279 C274 1.370 . S
C279 C278 1.391 1_556 S
C280 N249 1.435 . S
C280 C281 1.358 . S
C280 C285 1.371 . S
C281 H253 0.930 . S
C281 C280 1.358 . S
C281 C282 1.405 . S
C282 H254 0.932 . S
C282 C281 1.405 . S
C282 C283 1.383 . S
C283 C282 1.383 . S
C283 C284 1.393 . S
C284 H256 0.931 . S
C284 C283 1.393 . S
C284 C285 1.382 . S
C285 H255 0.929 . S
C285 C280 1.371 . S
C285 C284 1.382 . S
C286 N249 1.423 . S
C286 C287 1.362 . S
C286 C291 1.388 . S
C287 H257 0.929 . S
C287 C286 1.362 . S
C287 C288 1.376 . S
C288 H259 0.931 . S
C288 C287 1.376 . S
C288 C289 1.396 . S
C289 C288 1.396 . S
C289 C290 1.348 . S
C289 C307 1.472 1_545 S
C290 H260 0.929 . S
C290 C289 1.348 . S
C290 C291 1.443 . S
C291 H258 0.932 . S
C291 C286 1.388 . S
C291 C290 1.443 . S
C292 N272 1.433 . S
C292 C293 1.363 . S
C292 C297 1.370 . S
C293 H261 0.929 . S
C293 C292 1.363 . S
C293 C294 1.385 . S
C294 H262 0.930 . S
C294 C293 1.385 . S
C294 C295 1.357 . S
C295 C294 1.357 . S
C295 C296 1.406 . S
C296 H263 0.929 . S
C296 C295 1.406 . S
C296 C297 1.391 . S
C297 H264 0.931 . S
C297 C292 1.370 . S
C297 C296 1.391 . S
C298 N272 1.435 1_556 S
C298 C299 1.358 1_556 S
C298 C303 1.371 . S
C299 H265 0.930 . S
C299 C298 1.358 1_554 S
C299 C300 1.405 1_554 S
C300 H266 0.932 . S
C300 C299 1.405 1_556 S
C300 C301 1.383 . S
C301 C300 1.383 . S
C301 C302 1.393 . S
C302 H267 0.931 . S
C302 C301 1.393 . S
C302 C303 1.382 . S
C303 H268 0.929 . S
C303 C298 1.371 . S
C303 C302 1.382 . S
C304 N272 1.445 . S
C304 C305 1.384 . S
C304 C309 1.347 1_554 S
C305 H269 0.929 . S
C305 C304 1.384 . S
C305 C306 1.376 . S
C306 H270 0.931 . S
C306 C305 1.376 . S
C306 C307 1.396 1_554 S
C307 C289 1.472 1_565 S
C307 C306 1.396 1_556 S
C307 C308 1.348 . S
C308 H271 0.929 . S
C308 C307 1.348 . S
C308 C309 1.443 . S
C309 H273 0.932 . S
C309 C304 1.347 1_556 S
C309 C308 1.443 . S
H310 C337 0.929 . S
N311 C336 1.433 . S
N311 C342 1.435 . S
N311 C348 1.423 . S
H312 C338 0.930 . S
H313 C341 0.931 . S
H314 C340 0.929 . S
H315 C343 0.930 . S
H316 C344 0.932 . S
H317 C347 0.929 . S
H318 C346 0.931 . S
H319 C349 0.929 . S
H320 C353 0.932 . S
H321 C350 0.931 . S
H322 C352 0.929 . S
H323 C355 0.929 . S
H324 C356 0.930 . S
H325 C358 0.929 . S
H326 C359 0.931 . S
H327 C361 0.930 . S
H328 C362 0.932 . S
H329 C364 0.931 . S
H330 C365 0.929 . S
H331 C367 0.929 . S
H332 C368 0.931 . S
H333 C370 0.929 . S
N334 C354 1.433 . S
N334 C360 1.435 . S
N334 C366 1.423 . S
H335 C371 0.932 . S
C336 N311 1.433 . S
C336 C337 1.363 . S
C336 C341 1.370 . S
C337 H310 0.929 . S
C337 C336 1.363 . S
C337 C338 1.385 . S
C338 H312 0.930 . S
C338 C337 1.385 . S
C338 C339 1.357 . S
C339 C338 1.357 . S
C339 C340 1.406 . S
C340 H314 0.929 . S
C340 C339 1.406 . S
C340 C341 1.391 . S
C341 H313 0.931 . S
C341 C336 1.370 . S
C341 C340 1.391 . S
C342 N311 1.435 . S
C342 C343 1.358 . S
C342 C347 1.371 . S
C343 H315 0.930 . S
C343 C342 1.358 . S
C343 C344 1.405 . S
C344 H316 0.932 . S
C344 C343 1.405 . S
C344 C345 1.383 . S
C345 C344 1.383 . S
C345 C346 1.393 . S
C346 H318 0.931 . S
C346 C345 1.393 . S
C346 C347 1.382 . S
C347 H317 0.929 . S
C347 C342 1.371 . S
C347 C346 1.382 . S
C348 N311 1.423 . S
C348 C349 1.362 . S
C348 C353 1.388 . S
C349 H319 0.929 . S
C349 C348 1.362 . S
C349 C350 1.376 . S
C350 H321 0.931 . S
C350 C349 1.376 . S
C350 C351 1.396 . S
C351 C350 1.396 . S
C351 C352 1.348 . S
C351 C369 1.472 . S
C352 H322 0.929 . S
C352 C351 1.348 . S
C352 C353 1.443 . S
C353 H320 0.932 . S
C353 C348 1.388 . S
C353 C352 1.443 . S
C354 N334 1.433 . S
C354 C355 1.363 . S
C354 C359 1.370 . S
C355 H323 0.929 . S
C355 C354 1.363 . S
C355 C356 1.385 . S
C356 H324 0.930 . S
C356 C355 1.385 . S
C356 C357 1.357 . S
C357 C356 1.357 . S
C357 C358 1.406 . S
C358 H325 0.929 . S
C358 C357 1.406 . S
C358 C359 1.391 . S
C359 H326 0.931 . S
C359 C354 1.370 . S
C359 C358 1.391 . S
C360 N334 1.435 . S
C360 C361 1.358 . S
C360 C365 1.371 . S
C361 H327 0.930 . S
C361 C360 1.358 . S
C361 C362 1.405 . S
C362 H328 0.932 . S
C362 C361 1.405 . S
C362 C363 1.383 . S
C363 C362 1.383 . S
C363 C364 1.393 . S
C364 H329 0.931 . S
C364 C363 1.393 . S
C364 C365 1.382 . S
C365 H330 0.929 . S
C365 C360 1.371 . S
C365 C364 1.382 . S
C366 N334 1.423 . S
C366 C367 1.362 . S
C366 C371 1.388 . S
C367 H331 0.929 . S
C367 C366 1.362 . S
C367 C368 1.376 . S
C368 H332 0.931 . S
C368 C367 1.376 . S
C368 C369 1.396 . S
C369 C351 1.472 . S
C369 C368 1.396 . S
C369 C370 1.348 . S
C370 H333 0.929 . S
C370 C369 1.348 . S
C370 C371 1.443 . S
C371 H335 0.932 . S
C371 C366 1.388 . S
C371 C370 1.443 . S
In372 O373 2.294 . S
In372 O374 2.326 . S
In372 O378 2.266 . S
In372 O379 2.326 . S
In372 O380 2.266 . S
In372 O381 2.326 . S
In372 O383 2.294 . S
In372 O384 2.326 . S
O373 In372 2.294 . S
O373 C382 1.240 . S
O374 In372 2.326 . S
O374 C382 1.252 . S
C375 O378 1.252 . S
C375 O379 1.260 . S
C376 O383 1.240 . S
C376 O384 1.252 . S
C377 O380 1.252 . S
C377 O381 1.260 . S
O378 In372 2.266 . S
O378 C375 1.252 . S
O379 In372 2.326 . S
O379 C375 1.260 . S
O380 In372 2.266 . S
O380 C377 1.252 . S
O381 In372 2.326 . S
O381 C377 1.260 . S
C382 O373 1.240 . S
C382 O374 1.252 . S
O383 In372 2.294 . S
O383 C376 1.240 . S
O384 In372 2.326 . S
O384 C376 1.252 . S
In385 O386 2.294 . S
In385 O387 2.326 . S
In385 O391 2.266 . S
In385 O392 2.326 . S
In385 O393 2.266 . S
In385 O394 2.326 . S
In385 O396 2.294 . S
In385 O397 2.326 . S
O386 In385 2.294 . S
O386 C395 1.240 . S
O387 In385 2.326 . S
O387 C395 1.252 . S
C388 O391 1.252 . S
C388 O392 1.260 . S
C389 O396 1.240 . S
C389 O397 1.252 . S
C390 O393 1.252 . S
C390 O394 1.260 . S
O391 In385 2.266 . S
O391 C388 1.252 . S
O392 In385 2.326 . S
O392 C388 1.260 . S
O393 In385 2.266 . S
O393 C390 1.252 . S
O394 In385 2.326 . S
O394 C390 1.260 . S
C395 O386 1.240 . S
C395 O387 1.252 . S
O396 In385 2.294 . S
O396 C389 1.240 . S
O397 In385 2.326 . S
O397 C389 1.252 . S
In398 O399 2.294 . S
In398 O400 2.326 . S
In398 O404 2.266 . S
In398 O405 2.326 . S
In398 O406 2.266 . S
In398 O407 2.326 . S
In398 O409 2.294 . S
In398 O410 2.326 . S
O399 In398 2.294 . S
O399 C408 1.240 . S
O400 In398 2.326 . S
O400 C408 1.252 . S
C401 O404 1.252 . S
C401 O405 1.260 . S
C402 O409 1.240 . S
C402 O410 1.252 . S
C403 O406 1.252 . S
C403 O407 1.260 . S
O404 In398 2.266 . S
O404 C401 1.252 . S
O405 In398 2.326 . S
O405 C401 1.260 . S
O406 In398 2.266 . S
O406 C403 1.252 . S
O407 In398 2.326 . S
O407 C403 1.260 . S
C408 O399 1.240 . S
C408 O400 1.252 . S
O409 In398 2.294 . S
O409 C402 1.240 . S
O410 In398 2.326 . S
O410 C402 1.252 . S
In411 O412 2.294 . S
In411 O413 2.326 . S
In411 O417 2.266 . S
In411 O418 2.326 . S
In411 O419 2.266 . S
In411 O420 2.326 . S
In411 O422 2.294 . S
In411 O423 2.326 . S
O412 In411 2.294 . S
O412 C421 1.240 . S
O413 In411 2.326 . S
O413 C421 1.252 . S
C414 O417 1.252 . S
C414 O418 1.260 . S
C415 O422 1.240 . S
C415 O423 1.252 . S
C416 O419 1.252 . S
C416 O420 1.260 . S
O417 In411 2.266 . S
O417 C414 1.252 . S
O418 In411 2.326 . S
O418 C414 1.260 . S
O419 In411 2.266 . S
O419 C416 1.252 . S
O420 In411 2.326 . S
O420 C416 1.260 . S
C421 O412 1.240 . S
C421 O413 1.252 . S
O422 In411 2.294 . S
O422 C415 1.240 . S
O423 In411 2.326 . S
O423 C415 1.252 . S
In424 O425 2.294 . S
In424 O426 2.326 . S
In424 O430 2.266 . S
In424 O431 2.326 . S
In424 O432 2.266 . S
In424 O433 2.326 . S
In424 O435 2.294 . S
In424 O436 2.326 . S
O425 In424 2.294 . S
O425 C434 1.240 . S
O426 In424 2.326 . S
O426 C434 1.252 . S
C427 O430 1.252 . S
C427 O431 1.260 . S
C428 O435 1.240 . S
C428 O436 1.252 . S
C429 O432 1.252 . S
C429 O433 1.260 . S
O430 In424 2.266 . S
O430 C427 1.252 . S
O431 In424 2.326 . S
O431 C427 1.260 . S
O432 In424 2.266 . S
O432 C429 1.252 . S
O433 In424 2.326 . S
O433 C429 1.260 . S
C434 O425 1.240 . S
C434 O426 1.252 . S
O435 In424 2.294 . S
O435 C428 1.240 . S
O436 In424 2.326 . S
O436 C428 1.252 . S
In437 O438 2.294 . S
In437 O439 2.326 . S
In437 O443 2.266 . S
In437 O444 2.326 . S
In437 O445 2.266 . S
In437 O446 2.326 . S
In437 O448 2.294 . S
In437 O449 2.326 . S
O438 In437 2.294 . S
O438 C447 1.240 . S
O439 In437 2.326 . S
O439 C447 1.252 . S
C440 O443 1.252 . S
C440 O444 1.260 . S
C441 O448 1.240 . S
C441 O449 1.252 . S
C442 O445 1.252 . S
C442 O446 1.260 . S
O443 In437 2.266 . S
O443 C440 1.252 . S
O444 In437 2.326 . S
O444 C440 1.260 . S
O445 In437 2.266 . S
O445 C442 1.252 . S
O446 In437 2.326 . S
O446 C442 1.260 . S
C447 O438 1.240 . S
C447 O439 1.252 . S
O448 In437 2.294 . S
O448 C441 1.240 . S
O449 In437 2.326 . S
O449 C441 1.252 . S
H450 C456 0.930 . S
H451 C460 0.930 . S
H452 C465 0.929 . S
H453 C463 0.929 . S
H454 C458 0.929 . S
H455 C464 0.929 . S
C456 H450 0.930 . S
C456 C457 1.367 . S
C456 C464 1.378 . S
C457 C456 1.367 . S
C457 C465 1.433 . S
C458 H454 0.929 . S
C458 C460 1.378 . S
C458 C462 1.350 . S
C459 C462 1.463 . S
C459 C464 1.350 . S
C459 N467 1.427 . S
C460 H451 0.930 . S
C460 C458 1.378 . S
C460 C461 1.367 . S
C461 C460 1.367 . S
C461 C463 1.433 . S
C462 C458 1.350 . S
C462 C459 1.463 . S
C462 N466 1.427 . S
C463 H453 0.929 . S
C463 C461 1.433 . S
C463 N466 1.384 . S
C464 H455 0.929 . S
C464 C456 1.378 . S
C464 C459 1.350 . S
C465 H452 0.929 . S
C465 C457 1.433 . S
C465 N467 1.384 . S
N466 C462 1.427 . S
N466 C463 1.384 . S
N467 C459 1.427 . S
N467 C465 1.384 . S
H468 C474 0.930 . S
H469 C478 0.930 . S
H470 C483 0.929 . S
H471 C481 0.929 . S
H472 C476 0.929 . S
H473 C482 0.929 . S
C474 H468 0.930 . S
C474 C475 1.367 . S
C474 C482 1.378 . S
C475 C474 1.367 . S
C475 C483 1.433 . S
C476 H472 0.929 . S
C476 C478 1.378 . S
C476 C480 1.350 . S
C477 C480 1.463 . S
C477 C482 1.350 . S
C477 N485 1.427 . S
C478 H469 0.930 . S
C478 C476 1.378 . S
C478 C479 1.367 . S
C479 C478 1.367 . S
C479 C481 1.433 . S
C480 C476 1.350 . S
C480 C477 1.463 . S
C480 N484 1.427 . S
C481 H471 0.929 . S
C481 C479 1.433 . S
C481 N484 1.384 . S
C482 H473 0.929 . S
C482 C474 1.378 . S
C482 C477 1.350 . S
C483 H470 0.929 . S
C483 C475 1.433 . S
C483 N485 1.384 . S
N484 C480 1.427 . S
N484 C481 1.384 . S
N485 C477 1.427 . S
N485 C483 1.384 . S
H486 C492 0.930 . S
H487 C496 0.930 . S
H488 C501 0.929 . S
H489 C499 0.929 . S
H490 C494 0.929 . S
H491 C500 0.929 . S
C492 H486 0.930 . S
C492 C493 1.367 . S
C492 C500 1.378 . S
C493 C492 1.367 . S
C493 C501 1.433 . S
C494 H490 0.929 . S
C494 C496 1.378 . S
C494 C498 1.350 . S
C495 C498 1.463 . S
C495 C500 1.350 . S
C495 N503 1.427 . S
C496 H487 0.930 . S
C496 C494 1.378 . S
C496 C497 1.367 . S
C497 C496 1.367 . S
C497 C499 1.433 . S
C498 C494 1.350 . S
C498 C495 1.463 . S
C498 N502 1.427 . S
C499 H489 0.929 . S
C499 C497 1.433 . S
C499 N502 1.384 . S
C500 H491 0.929 . S
C500 C492 1.378 . S
C500 C495 1.350 . S
C501 H488 0.929 . S
C501 C493 1.433 . S
C501 N503 1.384 . S
N502 C498 1.427 . S
N502 C499 1.384 . S
N503 C495 1.427 . S
N503 C501 1.384 . S
H504 C510 0.930 . S
H505 C514 0.930 . S
H506 C519 0.929 . S
H507 C517 0.929 . S
H508 C512 0.929 . S
H509 C518 0.929 . S
C510 H504 0.930 . S
C510 C511 1.367 . S
C510 C518 1.378 . S
C511 C510 1.367 . S
C511 C519 1.433 . S
C512 H508 0.929 . S
C512 C514 1.378 . S
C512 C516 1.350 . S
C513 C516 1.463 . S
C513 C518 1.350 . S
C513 N521 1.427 . S
C514 H505 0.930 . S
C514 C512 1.378 . S
C514 C515 1.367 . S
C515 C514 1.367 . S
C515 C517 1.433 . S
C516 C512 1.350 . S
C516 C513 1.463 . S
C516 N520 1.427 . S
C517 H507 0.929 . S
C517 C515 1.433 . S
C517 N520 1.384 . S
C518 H509 0.929 . S
C518 C510 1.378 . S
C518 C513 1.350 . S
C519 H506 0.929 . S
C519 C511 1.433 . S
C519 N521 1.384 . S
N520 C516 1.427 . S
N520 C517 1.384 . S
N521 C513 1.427 . S
N521 C519 1.384 . S
H522 C528 0.930 . S
H523 C532 0.930 . S
H524 C537 0.929 . S
H525 C535 0.929 . S
H526 C530 0.929 . S
H527 C536 0.929 . S
C528 H522 0.930 . S
C528 C529 1.367 . S
C528 C536 1.378 . S
C529 C528 1.367 . S
C529 C537 1.433 . S
C530 H526 0.929 . S
C530 C532 1.378 . S
C530 C534 1.350 . S
C531 C534 1.463 . S
C531 C536 1.350 . S
C531 N539 1.427 . S
C532 H523 0.930 . S
C532 C530 1.378 . S
C532 C533 1.367 . S
C533 C532 1.367 . S
C533 C535 1.433 . S
C534 C530 1.350 . S
C534 C531 1.463 . S
C534 N538 1.427 . S
C535 H525 0.929 . S
C535 C533 1.433 . S
C535 N538 1.384 . S
C536 H527 0.929 . S
C536 C528 1.378 . S
C536 C531 1.350 . S
C537 H524 0.929 . S
C537 C529 1.433 . S
C537 N539 1.384 . S
N538 C534 1.427 . S
N538 C535 1.384 . S
N539 C531 1.427 . S
N539 C537 1.384 . S
H540 C546 0.930 . S
H541 C550 0.930 . S
H542 C555 0.929 . S
H543 C553 0.929 . S
H544 C548 0.929 . S
H545 C554 0.929 . S
C546 H540 0.930 . S
C546 C547 1.367 . S
C546 C554 1.378 . S
C547 C546 1.367 . S
C547 C555 1.433 . S
C548 H544 0.929 . S
C548 C550 1.378 . S
C548 C552 1.350 . S
C549 C552 1.463 . S
C549 C554 1.350 . S
C549 N557 1.427 . S
C550 H541 0.930 . S
C550 C548 1.378 . S
C550 C551 1.367 . S
C551 C550 1.367 . S
C551 C553 1.433 . S
C552 C548 1.350 . S
C552 C549 1.463 . S
C552 N556 1.427 . S
C553 H543 0.929 . S
C553 C551 1.433 . S
C553 N556 1.384 . S
C554 H545 0.929 . S
C554 C546 1.378 . S
C554 C549 1.350 . S
C555 H542 0.929 . S
C555 C547 1.433 . S
C555 N557 1.384 . S
N556 C552 1.427 . S
N556 C553 1.384 . S
N557 C549 1.427 . S
N557 C555 1.384 . S
H558 C564 0.930 . S
H559 C568 0.930 . S
H560 C573 0.929 . S
H561 C571 0.929 . S
H562 C566 0.929 . S
H563 C572 0.929 . S
C564 H558 0.930 . S
C564 C565 1.367 . S
C564 C572 1.378 . S
C565 C564 1.367 . S
C565 C573 1.433 . S
C566 H562 0.929 . S
C566 C568 1.378 . S
C566 C570 1.350 . S
C567 C570 1.463 . S
C567 C572 1.350 . S
C567 N575 1.427 . S
C568 H559 0.930 . S
C568 C566 1.378 . S
C568 C569 1.367 . S
C569 C568 1.367 . S
C569 C571 1.433 . S
C570 C566 1.350 . S
C570 C567 1.463 . S
C570 N574 1.427 . S
C571 H561 0.929 . S
C571 C569 1.433 . S
C571 N574 1.384 . S
C572 H563 0.929 . S
C572 C564 1.378 . S
C572 C567 1.350 . S
C573 H560 0.929 . S
C573 C565 1.433 . S
C573 N575 1.384 . S
N574 C570 1.427 . S
N574 C571 1.384 . S
N575 C567 1.427 . S
N575 C573 1.384 . S
H576 C582 0.930 . S
H577 C586 0.930 . S
H578 C591 0.929 . S
H579 C589 0.929 . S
H580 C584 0.929 . S
H581 C590 0.929 . S
C582 H576 0.930 . S
C582 C583 1.367 . S
C582 C590 1.378 . S
C583 C582 1.367 . S
C583 C591 1.433 . S
C584 H580 0.929 . S
C584 C586 1.378 . S
C584 C588 1.350 . S
C585 C588 1.463 . S
C585 C590 1.350 . S
C585 N593 1.427 . S
C586 H577 0.930 . S
C586 C584 1.378 . S
C586 C587 1.367 . S
C587 C586 1.367 . S
C587 C589 1.433 . S
C588 C584 1.350 . S
C588 C585 1.463 . S
C588 N592 1.427 . S
C589 H579 0.929 . S
C589 C587 1.433 . S
C589 N592 1.384 . S
C590 H581 0.929 . S
C590 C582 1.378 . S
C590 C585 1.350 . S
C591 H578 0.929 . S
C591 C583 1.433 . S
C591 N593 1.384 . S
N592 C588 1.427 . S
N592 C589 1.384 . S
N593 C585 1.427 . S
N593 C591 1.384 . S
H594 C600 0.930 . S
H595 C604 0.930 . S
H596 C609 0.929 . S
H597 C607 0.929 . S
H598 C602 0.929 . S
H599 C608 0.929 . S
C600 H594 0.930 . S
C600 C601 1.367 . S
C600 C608 1.378 . S
C601 C600 1.367 . S
C601 C609 1.433 . S
C602 H598 0.929 . S
C602 C604 1.378 . S
C602 C606 1.350 . S
C603 C606 1.463 . S
C603 C608 1.350 . S
C603 N611 1.427 . S
C604 H595 0.930 . S
C604 C602 1.378 . S
C604 C605 1.367 . S
C605 C604 1.367 . S
C605 C607 1.433 . S
C606 C602 1.350 . S
C606 C603 1.463 . S
C606 N610 1.427 . S
C607 H597 0.929 . S
C607 C605 1.433 . S
C607 N610 1.384 . S
C608 H599 0.929 . S
C608 C600 1.378 . S
C608 C603 1.350 . S
C609 H596 0.929 . S
C609 C601 1.433 . S
C609 N611 1.384 . S
N610 C606 1.427 . S
N610 C607 1.384 . S
N611 C603 1.427 . S
N611 C609 1.384 . S
H612 C618 0.930 . S
H613 C622 0.930 . S
H614 C627 0.929 . S
H615 C625 0.929 . S
H616 C620 0.929 . S
H617 C626 0.929 . S
C618 H612 0.930 . S
C618 C619 1.367 . S
C618 C626 1.378 . S
C619 C618 1.367 . S
C619 C627 1.433 . S
C620 H616 0.929 . S
C620 C622 1.378 . S
C620 C624 1.350 . S
C621 C624 1.463 . S
C621 C626 1.350 . S
C621 N629 1.427 . S
C622 H613 0.930 . S
C622 C620 1.378 . S
C622 C623 1.367 . S
C623 C622 1.367 . S
C623 C625 1.433 . S
C624 C620 1.350 . S
C624 C621 1.463 . S
C624 N628 1.427 . S
C625 H615 0.929 . S
C625 C623 1.433 . S
C625 N628 1.384 . S
C626 H617 0.929 . S
C626 C618 1.378 . S
C626 C621 1.350 . S
C627 H614 0.929 . S
C627 C619 1.433 . S
C627 N629 1.384 . S
N628 C624 1.427 . S
N628 C625 1.384 . S
N629 C621 1.427 . S
N629 C627 1.384 . S
H630 C636 0.930 . S
H631 C640 0.930 . S
H632 C645 0.929 . S
H633 C643 0.929 . S
H634 C638 0.929 . S
H635 C644 0.929 . S
C636 H630 0.930 . S
C636 C637 1.367 . S
C636 C644 1.378 . S
C637 C636 1.367 . S
C637 C645 1.433 . S
C638 H634 0.929 . S
C638 C640 1.378 . S
C638 C642 1.350 . S
C639 C642 1.463 . S
C639 C644 1.350 . S
C639 N647 1.427 . S
C640 H631 0.930 . S
C640 C638 1.378 . S
C640 C641 1.367 . S
C641 C640 1.367 . S
C641 C643 1.433 . S
C642 C638 1.350 . S
C642 C639 1.463 . S
C642 N646 1.427 . S
C643 H633 0.929 . S
C643 C641 1.433 . S
C643 N646 1.384 . S
C644 H635 0.929 . S
C644 C636 1.378 . S
C644 C639 1.350 . S
C645 H632 0.929 . S
C645 C637 1.433 . S
C645 N647 1.384 . S
N646 C642 1.427 . S
N646 C643 1.384 . S
N647 C639 1.427 . S
N647 C645 1.384 . S
H648 C654 0.930 . S
H649 C658 0.930 . S
H650 C663 0.929 . S
H651 C661 0.929 . S
H652 C656 0.929 . S
H653 C662 0.929 . S
C654 H648 0.930 . S
C654 C655 1.367 . S
C654 C662 1.378 . S
C655 C654 1.367 . S
C655 C663 1.433 . S
C656 H652 0.929 . S
C656 C658 1.378 . S
C656 C660 1.350 . S
C657 C660 1.463 . S
C657 C662 1.350 . S
C657 N665 1.427 . S
C658 H649 0.930 . S
C658 C656 1.378 . S
C658 C659 1.367 . S
C659 C658 1.367 . S
C659 C661 1.433 . S
C660 C656 1.350 . S
C660 C657 1.463 . S
C660 N664 1.427 . S
C661 H651 0.929 . S
C661 C659 1.433 . S
C661 N664 1.384 . S
C662 H653 0.929 . S
C662 C654 1.378 . S
C662 C657 1.350 . S
C663 H650 0.929 . S
C663 C655 1.433 . S
C663 N665 1.384 . S
N664 C660 1.427 . S
N664 C661 1.384 . S
N665 C657 1.427 . S
N665 C663 1.384 . S
H666 C672 0.930 . S
H667 C676 0.930 . S
H668 C681 0.929 . S
H669 C679 0.929 . S
H670 C674 0.929 . S
H671 C680 0.929 . S
C672 H666 0.930 . S
C672 C673 1.367 . S
C672 C680 1.378 . S
C673 C672 1.367 . S
C673 C681 1.433 . S
C674 H670 0.929 . S
C674 C676 1.378 . S
C674 C678 1.350 . S
C675 C678 1.463 . S
C675 C680 1.350 . S
C675 N683 1.427 . S
C676 H667 0.930 . S
C676 C674 1.378 . S
C676 C677 1.367 . S
C677 C676 1.367 . S
C677 C679 1.433 . S
C678 C674 1.350 . S
C678 C675 1.463 . S
C678 N682 1.427 . S
C679 H669 0.929 . S
C679 C677 1.433 . S
C679 N682 1.384 . S
C680 H671 0.929 . S
C680 C672 1.378 . S
C680 C675 1.350 . S
C681 H668 0.929 . S
C681 C673 1.433 . S
C681 N683 1.384 . S
N682 C678 1.427 . S
N682 C679 1.384 . S
N683 C675 1.427 . S
N683 C681 1.384 . S
H684 C690 0.930 . S
H685 C694 0.930 . S
H686 C699 0.929 . S
H687 C697 0.929 . S
H688 C692 0.929 . S
H689 C698 0.929 . S
C690 H684 0.930 . S
C690 C691 1.367 . S
C690 C698 1.378 . S
C691 C690 1.367 . S
C691 C699 1.433 . S
C692 H688 0.929 . S
C692 C694 1.378 . S
C692 C696 1.350 . S
C693 C696 1.463 . S
C693 C698 1.350 . S
C693 N701 1.427 . S
C694 H685 0.930 . S
C694 C692 1.378 . S
C694 C695 1.367 . S
C695 C694 1.367 . S
C695 C697 1.433 . S
C696 C692 1.350 . S
C696 C693 1.463 . S
C696 N700 1.427 . S
C697 H687 0.929 . S
C697 C695 1.433 . S
C697 N700 1.384 . S
C698 H689 0.929 . S
C698 C690 1.378 . S
C698 C693 1.350 . S
C699 H686 0.929 . S
C699 C691 1.433 . S
C699 N701 1.384 . S
N700 C696 1.427 . S
N700 C697 1.384 . S
N701 C693 1.427 . S
N701 C699 1.384 . S
H702 C708 0.930 . S
H703 C712 0.930 . S
H704 C717 0.929 . S
H705 C715 0.929 . S
H706 C710 0.929 . S
H707 C716 0.929 . S
C708 H702 0.930 . S
C708 C709 1.367 . S
C708 C716 1.378 . S
C709 C708 1.367 . S
C709 C717 1.433 . S
C710 H706 0.929 . S
C710 C712 1.378 . S
C710 C714 1.350 . S
C711 C714 1.463 . S
C711 C716 1.350 . S
C711 N719 1.427 . S
C712 H703 0.930 . S
C712 C710 1.378 . S
C712 C713 1.367 . S
C713 C712 1.367 . S
C713 C715 1.433 . S
C714 C710 1.350 . S
C714 C711 1.463 . S
C714 N718 1.427 . S
C715 H705 0.929 . S
C715 C713 1.433 . S
C715 N718 1.384 . S
C716 H707 0.929 . S
C716 C708 1.378 . S
C716 C711 1.350 . S
C717 H704 0.929 . S
C717 C709 1.433 . S
C717 N719 1.384 . S
N718 C714 1.427 . S
N718 C715 1.384 . S
N719 C711 1.427 . S
N719 C717 1.384 . S
H720 C726 0.930 . S
H721 C730 0.930 . S
H722 C735 0.929 . S
H723 C733 0.929 . S
H724 C728 0.930 . S
H725 C734 0.929 . S
C726 H720 0.930 . S
C726 C727 1.367 . S
C726 C734 1.378 . S
C727 C726 1.367 . S
C727 C735 1.433 . S
C728 H724 0.930 . S
C728 C730 1.378 1_556 S
C728 C732 1.350 . S
C729 C732 1.463 . S
C729 C734 1.350 . S
C729 N737 1.427 . S
C730 H721 0.930 . S
C730 C728 1.378 1_554 S
C730 C731 1.367 . S
C731 C730 1.367 . S
C731 C733 1.433 1_554 S
C732 C728 1.350 . S
C732 C729 1.463 . S
C732 N736 1.427 . S
C733 H723 0.929 . S
C733 C731 1.433 1_556 S
C733 N736 1.384 . S
C734 H725 0.929 . S
C734 C726 1.378 . S
C734 C729 1.350 . S
C735 H722 0.929 . S
C735 C727 1.433 . S
C735 N737 1.384 . S
N736 C732 1.427 . S
N736 C733 1.384 . S
N737 C729 1.427 . S
N737 C735 1.384 . S
H738 C744 0.930 . S
H739 C748 0.930 . S
H740 C753 0.929 . S
H741 C751 0.929 . S
H742 C746 0.929 . S
H743 C752 0.929 . S
C744 H738 0.930 . S
C744 C745 1.367 . S
C744 C752 1.378 . S
C745 C744 1.367 . S
C745 C753 1.433 . S
C746 H742 0.929 . S
C746 C748 1.378 . S
C746 C750 1.350 . S
C747 C750 1.463 . S
C747 C752 1.350 . S
C747 N755 1.427 . S
C748 H739 0.930 . S
C748 C746 1.378 . S
C748 C749 1.367 . S
C749 C748 1.367 . S
C749 C751 1.433 . S
C750 C746 1.350 . S
C750 C747 1.463 . S
C750 N754 1.427 . S
C751 H741 0.929 . S
C751 C749 1.433 . S
C751 N754 1.384 . S
C752 H743 0.929 . S
C752 C744 1.378 . S
C752 C747 1.350 . S
C753 H740 0.929 . S
C753 C745 1.433 . S
C753 N755 1.384 . S
N754 C750 1.427 . S
N754 C751 1.384 . S
N755 C747 1.427 . S
N755 C753 1.384 . S
H756 C762 0.930 . S
H757 C766 0.930 . S
H758 C771 0.929 . S
H759 C769 0.929 . S
H760 C764 0.929 . S
H761 C770 0.929 . S
C762 H756 0.930 . S
C762 C763 1.367 . S
C762 C770 1.378 . S
C763 C762 1.367 . S
C763 C771 1.433 . S
C764 H760 0.929 . S
C764 C766 1.378 . S
C764 C768 1.350 . S
C765 C768 1.463 . S
C765 C770 1.350 . S
C765 N773 1.427 . S
C766 H757 0.930 . S
C766 C764 1.378 . S
C766 C767 1.367 . S
C767 C766 1.367 . S
C767 C769 1.433 . S
C768 C764 1.350 . S
C768 C765 1.463 . S
C768 N772 1.427 . S
C769 H759 0.929 . S
C769 C767 1.433 . S
C769 N772 1.384 . S
C770 H761 0.929 . S
C770 C762 1.378 . S
C770 C765 1.350 . S
C771 H758 0.929 . S
C771 C763 1.433 . S
C771 N773 1.384 . S
N772 C768 1.427 . S
N772 C769 1.384 . S
N773 C765 1.427 . S
N773 C771 1.384 . S
H774 C780 0.930 . S
H775 C784 0.930 . S
H776 C789 0.929 . S
H777 C787 0.929 . S
H778 C782 0.929 . S
H779 C788 0.929 . S
C780 H774 0.930 . S
C780 C781 1.367 . S
C780 C788 1.378 . S
C781 C780 1.367 . S
C781 C789 1.433 . S
C782 H778 0.929 . S
C782 C784 1.378 . S
C782 C786 1.350 . S
C783 C786 1.463 . S
C783 C788 1.350 . S
C783 N791 1.427 . S
C784 H775 0.930 . S
C784 C782 1.378 . S
C784 C785 1.367 . S
C785 C784 1.367 . S
C785 C787 1.433 . S
C786 C782 1.350 . S
C786 C783 1.463 . S
C786 N790 1.427 . S
C787 H777 0.929 . S
C787 C785 1.433 . S
C787 N790 1.384 . S
C788 H779 0.929 . S
C788 C780 1.378 . S
C788 C783 1.350 . S
C789 H776 0.929 . S
C789 C781 1.433 . S
C789 N791 1.384 . S
N790 C786 1.427 . S
N790 C787 1.384 . S
N791 C783 1.427 . S
N791 C789 1.384 . S
H792 C798 0.930 . S
H793 C802 0.930 . S
H794 C807 0.929 . S
H795 C805 0.929 . S
H796 C800 0.929 . S
H797 C806 0.929 . S
C798 H792 0.930 . S
C798 C799 1.367 . S
C798 C806 1.378 . S
C799 C798 1.367 . S
C799 C807 1.433 . S
C800 H796 0.929 . S
C800 C802 1.378 . S
C800 C804 1.350 . S
C801 C804 1.463 . S
C801 C806 1.350 . S
C801 N809 1.427 . S
C802 H793 0.930 . S
C802 C800 1.378 . S
C802 C803 1.367 . S
C803 C802 1.367 . S
C803 C805 1.433 . S
C804 C800 1.350 . S
C804 C801 1.463 . S
C804 N808 1.427 . S
C805 H795 0.929 . S
C805 C803 1.433 . S
C805 N808 1.384 . S
C806 H797 0.929 . S
C806 C798 1.378 . S
C806 C801 1.350 . S
C807 H794 0.929 . S
C807 C799 1.433 . S
C807 N809 1.384 . S
N808 C804 1.427 . S
N808 C805 1.384 . S
N809 C801 1.427 . S
N809 C807 1.384 . S
H810 C816 0.930 . S
H811 C820 0.930 . S
H812 C825 0.929 . S
H813 C823 0.929 . S
H814 C818 0.929 . S
H815 C824 0.929 . S
C816 H810 0.930 . S
C816 C817 1.367 . S
C816 C824 1.378 . S
C817 C816 1.367 . S
C817 C825 1.433 . S
C818 H814 0.929 . S
C818 C820 1.378 . S
C818 C822 1.350 . S
C819 C822 1.463 . S
C819 C824 1.350 . S
C819 N827 1.427 . S
C820 H811 0.930 . S
C820 C818 1.378 . S
C820 C821 1.367 . S
C821 C820 1.367 . S
C821 C823 1.433 . S
C822 C818 1.350 . S
C822 C819 1.463 . S
C822 N826 1.427 . S
C823 H813 0.929 . S
C823 C821 1.433 . S
C823 N826 1.384 . S
C824 H815 0.929 . S
C824 C816 1.378 . S
C824 C819 1.350 . S
C825 H812 0.929 . S
C825 C817 1.433 . S
C825 N827 1.384 . S
N826 C822 1.427 . S
N826 C823 1.384 . S
N827 C819 1.427 . S
N827 C825 1.384 . S
H828 C834 0.930 . S
H829 C838 0.930 . S
H830 C843 0.929 . S
H831 C841 0.929 . S
H832 C836 0.929 . S
H833 C842 0.929 . S
C834 H828 0.930 . S
C834 C835 1.367 . S
C834 C842 1.378 . S
C835 C834 1.367 . S
C835 C843 1.433 . S
C836 H832 0.929 . S
C836 C838 1.378 . S
C836 C840 1.350 . S
C837 C840 1.463 . S
C837 C842 1.350 . S
C837 N845 1.427 . S
C838 H829 0.930 . S
C838 C836 1.378 . S
C838 C839 1.367 . S
C839 C838 1.367 . S
C839 C841 1.433 . S
C840 C836 1.350 . S
C840 C837 1.463 . S
C840 N844 1.427 . S
C841 H831 0.929 . S
C841 C839 1.433 . S
C841 N844 1.384 . S
C842 H833 0.929 . S
C842 C834 1.378 . S
C842 C837 1.350 . S
C843 H830 0.929 . S
C843 C835 1.433 . S
C843 N845 1.384 . S
N844 C840 1.427 . S
N844 C841 1.384 . S
N845 C837 1.427 . S
N845 C843 1.384 . S
H846 C852 0.930 . S
H847 C856 0.930 . S
H848 C861 0.929 . S
H849 C859 0.929 . S
H850 C854 0.919 1_554 S
H851 C860 0.929 1_556 S
C852 H846 0.930 . S
C852 C853 1.367 . S
C852 C860 1.378 . S
C853 C852 1.367 . S
C853 C861 1.433 . S
C854 H850 0.919 1_556 S
C854 C856 1.385 . S
C854 C858 1.353 . S
C855 C858 1.463 1_554 S
C855 C860 1.350 . S
C855 N863 1.427 . S
C856 H847 0.930 . S
C856 C854 1.385 . S
C856 C857 1.367 . S
C857 C856 1.367 . S
C857 C859 1.433 . S
C858 C854 1.353 . S
C858 C855 1.463 1_556 S
C858 N862 1.427 . S
C859 H849 0.929 . S
C859 C857 1.433 . S
C859 N862 1.384 . S
C860 H851 0.929 1_554 S
C860 C852 1.378 . S
C860 C855 1.350 . S
C861 H848 0.929 . S
C861 C853 1.433 . S
C861 N863 1.384 . S
N862 C858 1.427 . S
N862 C859 1.384 . S
N863 C855 1.427 . S
N863 C861 1.384 . S
H864 C870 0.930 . S
H865 C874 0.930 . S
H866 C879 0.929 . S
H867 C877 0.929 . S
H868 C872 0.929 . S
H869 C878 0.929 . S
C870 H864 0.930 . S
C870 C871 1.367 . S
C870 C878 1.378 . S
C871 C870 1.367 . S
C871 C879 1.433 . S
C872 H868 0.929 . S
C872 C874 1.378 . S
C872 C876 1.350 . S
C873 C876 1.463 . S
C873 C878 1.350 . S
C873 N881 1.427 . S
C874 H865 0.930 . S
C874 C872 1.378 . S
C874 C875 1.367 . S
C875 C874 1.367 . S
C875 C877 1.433 . S
C876 C872 1.350 . S
C876 C873 1.463 . S
C876 N880 1.427 . S
C877 H867 0.929 . S
C877 C875 1.433 . S
C877 N880 1.384 . S
C878 H869 0.929 . S
C878 C870 1.378 . S
C878 C873 1.350 . S
C879 H866 0.929 . S
C879 C871 1.433 . S
C879 N881 1.384 . S
N880 C876 1.427 . S
N880 C877 1.384 . S
N881 C873 1.427 . S
N881 C879 1.384 . S
C461 C442 1.642 . S
C457 C29 1.556 . S
C475 C115 1.536 . S
C479 C377 1.558 . S
C493 C153 1.580 . S
C497 C395 1.667 . S
C511 C239 1.525 . S
C515 C408 1.543 . S
C533 C416 1.599 . S
C529 C301 1.574 . S
C547 C339 1.782 . S
C551 C428 1.897 . S
C565 C91 1.585 . S
C569 C390 1.674 . S
C583 C177 1.537 . S
C587 C403 1.554 . S
C601 C215 1.542 . S
C605 C421 1.640 . S
C623 C427 1.903 . S
C619 C277 1.788 . S
C641 C447 1.585 . S
C637 C363 1.562 . S
C659 C382 1.548 . S
C655 C53 1.537 . S
C673 C35 1.688 . S
C677 C388 1.729 . S
C691 C109 1.520 . S
C695 C401 1.654 . S
C713 C415 1.592 . S
C709 C159 1.557 . S
C727 C233 1.707 . S
C731 C429 1.856 . S
C749 C441 1.686 . S
C745 C295 1.520 . S
C767 C376 1.578 . S
C763 C345 1.540 . S
C785 C440 1.597 . S
C781 C97 1.564 . S
C799 C171 1.515 . S
C803 C375 1.648 . S
C821 C389 1.726 . S
C817 C221 1.687 . S
C835 C283 1.536 . S
C839 C402 1.574 . S
C853 C357 1.549 . S
C857 C414 1.699 . S
C871 C47 1.715 . S
C875 C434 1.852 . S
