# Generated by pormake.
# Topology zzz, (3,6)-cn, num edge types: 1
# Building blocks:
#     Node 0, Type 0, BuildingBlock: KAKCAD_clean_linker_0, # of connection points: 3
#     Node 1, Type 0, BuildingBlock: KAKCAD_clean_linker_0, # of connection points: 3
#     Node 2, Type 0, BuildingBlock: KAKCAD_clean_linker_0, # of connection points: 3
#     Node 3, Type 0, BuildingBlock: KAKCAD_clean_linker_0, # of connection points: 3
#     Node 4, Type 0, BuildingBlock: KAKCAD_clean_linker_0, # of connection points: 3
#     Node 5, Type 0, BuildingBlock: KAKCAD_clean_linker_0, # of connection points: 3
#     Node 6, Type 0, BuildingBlock: KAKCAD_clean_linker_0, # of connection points: 3
#     Node 7, Type 0, BuildingBlock: KAKCAD_clean_linker_0, # of connection points: 3
#     Node 8, Type 1, BuildingBlock: JUFBIX_clean_sbu_0, # of connection points: 6
#     Node 9, Type 1, BuildingBlock: JUFBIX_clean_sbu_0, # of connection points: 6
#     Node 10, Type 1, BuildingBlock: JUFBIX_clean_sbu_0, # of connection points: 6
#     Node 11, Type 1, BuildingBlock: JUFBIX_clean_sbu_0, # of connection points: 6
#     Edge 12, Type (0, 1), None
#     Edge 13, Type (0, 1), None
#     Edge 14, Type (0, 1), None
#     Edge 15, Type (0, 1), None
#     Edge 16, Type (0, 1), None
#     Edge 17, Type (0, 1), None
#     Edge 18, Type (0, 1), None
#     Edge 19, Type (0, 1), None
#     Edge 20, Type (0, 1), None
#     Edge 21, Type (0, 1), None
#     Edge 22, Type (0, 1), None
#     Edge 23, Type (0, 1), None
#     Edge 24, Type (0, 1), None
#     Edge 25, Type (0, 1), None
#     Edge 26, Type (0, 1), None
#     Edge 27, Type (0, 1), None
#     Edge 28, Type (0, 1), None
#     Edge 29, Type (0, 1), None
#     Edge 30, Type (0, 1), None
#     Edge 31, Type (0, 1), None
#     Edge 32, Type (0, 1), None
#     Edge 33, Type (0, 1), None
#     Edge 34, Type (0, 1), None
#     Edge 35, Type (0, 1), None
# Relax obj value: 0.265
# Max RMSD: 0.229
# Mean RMSD: 0.186
data_MOF--net-zzz--node1-JUFBIX_clean_sbu_0--node2-KAKCAD_clean_linker_0--edge1-none
_symmetry_space_group_name_H-M    P1
_symmetry_Int_Tables_number       1
_symmetry_cell_setting            triclinic
loop_
_symmetry_equiv_pos_as_xyz
'x, y, z'
_cell_length_a     32.511556
_cell_length_b     32.476747
_cell_length_c     13.127823
_cell_angle_alpha  78.289903
_cell_angle_beta   90.526242
_cell_angle_gamma 93.583128
loop_
_atom_site_label
_atom_site_type_symbol
_atom_site_fract_x
_atom_site_fract_y
_atom_site_fract_z
_atom_type_partial_charge
C0 C 0.93201 0.45133 0.98586 0.0
C1 C 0.972 0.4442 0.0222 0.0
C2 C 0.89967 0.44923 0.05543 0.0
C3 C 0.90639 0.4389 0.16367 0.0
C4 C 0.94562 0.42545 0.19849 0.0
C5 C 0.97851 0.42912 0.12829 0.0
C6 C 0.87561 0.44998 0.23668 0.0
C7 C 0.83437 0.45547 0.20659 0.0
C8 C 0.80882 0.47825 0.25728 0.0
C9 C 0.82303 0.49181 0.34768 0.0
C10 C 0.86271 0.48217 0.38585 0.0
C11 C 0.88881 0.46247 0.32862 0.0
C12 C 0.87966 0.49284 0.48317 0.0
C13 C 0.89647 0.53372 0.48441 0.0
C14 C 0.88982 0.45953 0.56362 0.0
C15 C 0.91913 0.46603 0.63798 0.0
C16 C 0.93863 0.50612 0.63447 0.0
C17 C 0.77057 0.49241 0.20245 0.0
C18 C 0.7725 0.53086 0.13029 0.0
C19 C 0.73688 0.46343 0.199 0.0
C20 C 0.70668 0.472 0.12175 0.0
C21 C 0.7103 0.50917 0.04479 0.0
C22 C 0.74283 0.53906 0.05195 0.0
C23 C 0.92556 0.54041 0.5604 0.0
H24 H 0.92656 0.46331 0.90385 0.0
H25 H 0.87073 0.46011 0.02279 0.0
H26 H 0.95196 0.41522 0.28037 0.0
H27 H 1.00934 0.42348 0.15764 0.0
H28 H 0.82248 0.4448 0.13848 0.0
H29 H 0.92035 0.45914 0.3545 0.0
H30 H 0.80362 0.50951 0.38739 0.0
H31 H 0.88988 0.55971 0.4217 0.0
H32 H 0.87785 0.42765 0.56333 0.0
H33 H 0.92846 0.43908 0.69455 0.0
H34 H 0.79875 0.55319 0.12956 0.0
H35 H 0.73538 0.43305 0.25181 0.0
H36 H 0.94036 0.57157 0.55559 0.0
H37 H 0.74616 0.56814 0.99451 0.0
H38 H 0.68209 0.4483 0.11791 0.0
C39 C 0.07365 0.87015 0.97405 0.0
C40 C 0.08382 0.90978 0.99758 0.0
C41 C 0.07732 0.83369 0.04902 0.0
C42 C 0.09174 0.83586 0.14936 0.0
C43 C 0.10736 0.87518 0.16776 0.0
C44 C 0.10307 0.91198 0.09266 0.0
C45 C 0.08089 0.79999 0.23714 0.0
C46 C 0.07613 0.75878 0.21973 0.0
C47 C 0.04885 0.72866 0.28069 0.0
C48 C 0.02949 0.73857 0.36757 0.0
C49 C 0.03855 0.77813 0.39346 0.0
C50 C 0.06414 0.80839 0.32816 0.0
C51 C 1.01687 0.79274 0.47646 0.0
C52 C 0.97932 0.81157 0.45282 0.0
C53 C 0.03948 0.80083 0.56247 0.0
C54 C 0.0267 0.83019 0.61816 0.0
C55 C 0.99138 0.85255 0.58777 0.0
C56 C 0.03439 0.69233 0.235 0.0
C57 C 0.99607 0.69364 0.18463 0.0
C58 C 0.06282 0.6643 0.21384 0.0
C59 C 0.05441 0.64057 0.13736 0.0
C60 C 1.01774 0.64512 0.0794 0.0
C61 C 0.98792 0.67044 0.10702 0.0
C62 C 0.96664 0.84121 0.50804 0.0
H63 H 0.05973 0.86729 0.90027 0.0
H64 H 0.06477 0.80446 0.03046 0.0
H65 H 0.11989 0.87795 0.24295 0.0
H66 H 0.11217 0.94214 0.11186 0.0
H67 H 0.08939 0.75161 0.15032 0.0
H68 H 0.06691 0.84008 0.34305 0.0
H69 H 1.00675 0.71646 0.41203 0.0
H70 H 0.96195 0.80659 0.38507 0.0
H71 H 0.06891 0.78722 0.58086 0.0
H72 H 0.04588 0.83712 0.68108 0.0
H73 H 0.97399 0.71562 0.19816 0.0
H74 H 0.09287 0.66337 0.25036 0.0
H75 H 0.93926 0.85759 0.4824 0.0
H76 H 0.95915 0.67396 0.06491 0.0
H77 H 0.07801 0.62134 0.118 0.0
C78 C 0.67616 0.02254 0.90215 0.0
C79 C 0.64026 0.03777 0.93669 0.0
C80 C 0.71376 0.02719 0.9512 0.0
C81 C 0.7167 0.04776 0.03533 0.0
C82 C 0.68172 0.06705 0.06244 0.0
C83 C 0.64364 0.06151 0.01465 0.0
C84 C 0.75266 0.04104 0.10668 0.0
C85 C 0.79233 0.03615 0.07072 0.0
C86 C 0.82339 0.01948 0.1401 0.0
C87 C 0.81436 0.00824 0.24797 0.0
C88 C 0.7749 0.01437 0.28436 0.0
C89 C 0.74506 0.03124 0.21348 0.0
C90 C 0.7595 0.9978 0.39161 0.0
C91 C 0.74373 0.95574 0.41586 0.0
C92 C 0.74411 0.02658 0.44624 0.0
C93 C 0.70976 0.01514 0.51178 0.0
C94 C 0.69018 0.97442 0.52511 0.0
C95 C 0.86362 0.01121 0.09611 0.0
C96 C 0.86396 0.98944 0.01378 0.0
C97 C 0.90134 0.02795 0.12832 0.0
C98 C 0.93821 0.02477 0.07567 0.0
C99 C 0.93821 1.00427 0.99064 0.0
C100 C 0.90066 0.98584 0.96221 0.0
C101 C 0.70949 0.94413 0.48194 0.0
H102 H 0.67496 1.00461 0.84089 0.0
H103 H 0.73957 0.01161 0.9281 0.0
H104 H 0.68316 0.08426 0.12506 0.0
H105 H 0.61676 0.07455 0.04097 0.0
H106 H 0.79874 0.044 0.98794 0.0
H107 H 0.71412 0.03274 0.24216 0.0
H108 H 0.83708 0.99359 0.30206 0.0
H109 H 0.75456 0.933 0.37389 0.0
H110 H 0.75523 0.05941 0.42773 0.0
H111 H 0.69685 0.03945 0.54449 0.0
H112 H 0.83546 0.97592 0.98756 0.0
H113 H 0.90204 0.04506 0.19113 0.0
H114 H 0.69667 0.91202 0.49294 0.0
H115 H 0.89927 0.96969 0.89759 0.0
H116 H 0.96654 0.03928 0.09997 0.0
C117 C 0.50445 0.63154 0.57729 0.0
C118 C 0.542 0.61243 0.60097 0.0
C119 C 0.50225 0.66719 0.49773 0.0
C120 C 0.5374 0.68417 0.43906 0.0
C121 C 0.57573 0.66796 0.47025 0.0
C122 C 0.57807 0.63246 0.55098 0.0
C123 C 0.53132 0.70163 0.32738 0.0
C124 C 0.53435 0.74486 0.28031 0.0
C125 C 0.5302 0.75738 0.17073 0.0
C126 C 0.52284 0.72602 0.11101 0.0
C127 C 0.52045 0.68331 0.15871 0.0
C128 C 0.52382 0.67168 0.26604 0.0
C129 C 0.52004 0.64968 0.09866 0.0
C130 C 0.48669 0.6419 0.03522 0.0
C131 C 0.55239 0.62252 0.11351 0.0
C132 C 0.55176 0.58821 0.06545 0.0
C133 C 0.51874 0.58025 0.0012 0.0
C134 C 0.53505 0.80251 0.1159 0.0
C135 C 0.51486 0.83416 0.15089 0.0
C136 C 0.55796 0.81368 0.02285 0.0
C137 C 0.55923 0.85476 0.96396 0.0
C138 C 0.53774 0.88611 0.99635 0.0
C139 C 0.5161 0.87551 0.09161 0.0
C140 C 0.48594 0.60713 0.98689 0.0
H141 H 0.47618 0.61752 0.6161 0.0
H142 H 0.47222 0.67832 0.47388 0.0
H143 H 0.60312 0.6797 0.42449 0.0
H144 H 0.60754 0.61889 0.56852 0.0
H145 H 0.54084 0.76818 0.32765 0.0
H146 H 0.52213 0.6384 0.30232 0.0
H147 H 0.52023 0.73465 0.02711 0.0
H148 H 0.46122 0.66231 0.02422 0.0
H149 H 0.57829 0.62789 0.16279 0.0
H150 H 0.57759 0.56825 0.07737 0.0
H151 H 0.49687 0.82661 0.222 0.0
H152 H 0.57458 0.79036 0.99448 0.0
H153 H 0.46049 0.60201 0.93618 0.0
H154 H 0.49933 0.89889 0.11925 0.0
H155 H 0.57662 0.86172 0.89186 0.0
C156 C 0.14244 0.59743 0.56976 0.0
C157 C 0.1045 0.57654 0.55495 0.0
C158 C 0.17412 0.60016 0.49676 0.0
C159 C 0.16802 0.58172 0.40905 0.0
C160 C 0.12798 0.56628 0.38844 0.0
C161 C 0.09658 0.56372 0.4609 0.0
C162 C 0.20351 0.57022 0.35194 0.0
C163 C 0.23836 0.55447 0.40658 0.0
C164 C 0.26666 0.53251 0.36132 0.0
C165 C 0.25934 0.52518 0.26001 0.0
C166 C 0.22497 0.54203 0.20341 0.0
C167 C 0.1988 0.56615 0.24844 0.0
C168 C 0.2104 0.53027 0.10504 0.0
C169 C 0.2002 0.56262 0.022 0.0
C170 C 0.19357 0.48909 0.10708 0.0
C171 C 0.1635 0.48151 0.03427 0.0
C172 C 0.14962 0.51517 0.9598 0.0
C173 C 0.30127 0.51482 0.42707 0.0
C174 C 0.34103 0.53464 0.41359 0.0
C175 C 0.29257 0.48398 0.51715 0.0
C176 C 0.32224 0.47476 0.59495 0.0
C177 C 0.36133 0.49641 0.58517 0.0
C178 C 0.37085 0.52545 0.49176 0.0
C179 C 0.16974 0.55527 0.95102 0.0
H180 H 0.14912 0.60718 0.64268 0.0
H181 H 0.20427 0.61323 0.5137 0.0
H182 H 0.12166 0.55153 0.32262 0.0
H183 H 0.06748 0.54723 0.44876 0.0
H184 H 0.24238 0.55679 0.48732 0.0
H185 H 0.17207 0.57847 0.20549 0.0
H186 H 0.27936 0.50583 0.22697 0.0
H187 H 0.21235 0.59468 0.01914 0.0
H188 H 0.20028 0.46373 0.17129 0.0
H189 H 0.14843 0.45029 0.04251 0.0
H190 H 0.34819 0.55916 0.3458 0.0
H191 H 0.26196 0.46863 0.52985 0.0
H192 H 0.15993 0.58166 0.89343 0.0
H193 H 0.40047 0.54291 0.48139 0.0
H194 H 0.31399 0.45159 0.66442 0.0
C195 C 1.00378 0.14607 0.63712 0.0
C196 C 0.99353 0.10653 0.61314 0.0
C197 C 1.00067 0.18262 0.56213 0.0
C198 C 0.98669 0.18065 0.46131 0.0
C199 C 0.97084 0.14147 0.44243 0.0
C200 C 0.97463 0.10456 0.51754 0.0
C201 C 0.99816 0.21649 0.37385 0.0
C202 C 1.00361 0.25763 0.39161 0.0
C203 C 0.03117 0.28744 0.33059 0.0
C204 C 0.05009 0.27739 0.24339 0.0
C205 C 0.04042 0.23801 0.21729 0.0
C206 C 1.0146 0.20798 0.28258 0.0
C207 C 0.06175 0.22332 0.134 0.0
C208 C 0.03886 0.21535 0.04832 0.0
C209 C 0.09932 0.20448 0.15689 0.0
C210 C 0.11174 0.17486 0.10136 0.0
C211 C 0.0867 0.16359 0.02205 0.0
C212 C 0.04605 0.32383 0.37546 0.0
C213 C 1.01774 0.35135 0.39969 0.0
C214 C 0.08541 0.32368 0.42043 0.0
C215 C 0.09494 0.34774 0.4956 0.0
C216 C 0.06548 0.37284 0.52585 0.0
C217 C 0.02752 0.376 0.47342 0.0
C218 C 0.05139 0.18603 0.99225 0.0
H219 H 1.01741 0.14877 0.71132 0.0
H220 H 1.01334 0.2117 0.58124 0.0
H221 H 0.95852 0.13884 0.36695 0.0
H222 H 0.96545 0.07448 0.49798 0.0
H223 H 0.99054 0.26497 0.46102 0.0
H224 H 1.01138 0.17636 0.26735 0.0
H225 H 0.07293 0.29929 0.19868 0.0
H226 H 1.00943 0.22903 0.03049 0.0
H227 H 0.11691 0.20942 0.22435 0.0
H228 H 0.13913 0.15842 0.12649 0.0
H229 H 0.98691 0.3512 0.36773 0.0
H230 H 0.10745 0.30207 0.40454 0.0
H231 H 0.03201 0.17917 0.92961 0.0
H232 H 1.00413 0.39493 0.49523 0.0
H233 H 0.1246 0.3452 0.53372 0.0
C234 C 0.39798 0.9549 0.71482 0.0
C235 C 0.43532 0.9675 0.66091 0.0
C236 C 0.36079 0.95357 0.66035 0.0
C237 C 0.36028 0.96613 0.55126 0.0
C238 C 0.39825 0.97847 0.49871 0.0
C239 C 0.43519 0.97812 0.55253 0.0
C240 C 0.32101 0.97017 0.49078 0.0
C241 C 0.28468 0.98244 0.53065 0.0
C242 C 0.25171 0.99624 0.46391 0.0
C243 C 0.25761 1.0018 0.35495 0.0
C244 C 0.2937 0.98851 0.31575 0.0
C245 C 0.32213 0.96818 0.38562 0.0
C246 C 0.30992 1.00447 0.20863 0.0
C247 C 0.32592 0.97563 0.15501 0.0
C248 C 0.32571 0.04656 0.18429 0.0
C249 C 0.3608 0.05797 0.12107 0.0
C250 C 0.38084 0.02753 0.08023 0.0
C251 C 0.21217 1.0056 0.50953 0.0
C252 C 0.21242 0.02782 0.59116 0.0
C253 C 0.17417 0.98856 0.47967 0.0
C254 C 0.13774 0.99169 0.5338 0.0
C255 C 0.13836 0.01238 0.6184 0.0
C256 C 0.17606 0.03129 0.64453 0.0
C257 C 0.36115 0.98687 0.09233 0.0
H258 H 0.3975 0.94688 0.79907 0.0
H259 H 0.33257 0.94364 0.70394 0.0
H260 H 0.39984 0.99063 0.41571 0.0
H261 H 0.4634 0.98908 0.50942 0.0
H262 H 0.28225 0.98219 0.61291 0.0
H263 H 0.34875 0.95619 0.35506 0.0
H264 H 0.235 0.01715 0.30164 0.0
H265 H 0.31466 0.94284 0.1729 0.0
H266 H 0.31431 0.06952 0.22478 0.0
H267 H 0.37361 0.09007 0.11057 0.0
H268 H 0.24103 0.04178 0.61549 0.0
H269 H 0.1729 0.97104 0.41763 0.0
H270 H 0.37456 0.96247 0.06095 0.0
H271 H 0.17782 0.0477 0.70867 0.0
H272 H 0.10929 0.97688 0.51111 0.0
C273 C 0.49696 0.37531 0.07923 0.0
C274 C 0.53253 0.39379 0.02408 0.0
C275 C 0.49984 0.34089 0.16261 0.0
C276 C 0.53816 0.32414 0.19103 0.0
C277 C 0.57274 0.33989 0.12903 0.0
C278 C 0.57 0.37437 0.04662 0.0
C279 C 0.54515 0.30482 0.30118 0.0
C280 C 0.53999 0.26122 0.34344 0.0
C281 C 0.5442 0.24641 0.45206 0.0
C282 C 0.55338 0.27584 0.51594 0.0
C283 C 0.55902 0.31897 0.47311 0.0
C284 C 0.55548 0.33294 0.36623 0.0
C285 C 0.56199 0.35073 0.53903 0.0
C286 C 0.52949 0.35209 0.60714 0.0
C287 C 0.59294 0.38371 0.52169 0.0
C288 C 0.59079 0.41811 0.57038 0.0
C289 C 0.55693 0.42039 0.63395 0.0
C290 C 0.53801 0.20084 0.50193 0.0
C291 C 0.51421 0.18873 0.59326 0.0
C292 C 0.55862 0.16977 0.46564 0.0
C293 C 0.55709 0.128 0.52255 0.0
C294 C 0.5347 0.11645 0.61654 0.0
C295 C 0.51256 0.14723 0.64964 0.0
C296 C 0.52678 0.38674 0.65336 0.0
H297 H 0.4676 0.38929 0.06312 0.0
H298 H 0.47297 0.33009 0.21118 0.0
H299 H 0.60279 0.32832 0.15092 0.0
H300 H 0.5979 0.38731 0.00438 0.0
H301 H 0.5318 0.23938 0.29314 0.0
H302 H 0.55842 0.36653 0.33368 0.0
H303 H 0.55592 0.26532 0.59947 0.0
H304 H 0.50498 0.32739 0.62028 0.0
H305 H 0.61805 0.38335 0.46823 0.0
H306 H 0.61461 0.44345 0.55553 0.0
H307 H 0.49747 0.21172 0.62263 0.0
H308 H 0.57735 0.17814 0.39583 0.0
H309 H 0.50081 0.38727 0.70414 0.0
H310 H 0.49461 0.13958 0.72083 0.0
H311 H 0.57434 0.10508 0.4944 0.0
Co312 Co 0.05545 0.029 0.85027 0.0
C313 C 0.97619 1.00411 0.92737 0.0
Co314 Co 0.0216 0.98717 0.76047 0.0
C315 C 0.06635 0.10235 0.93996 0.0
C316 C 0.12292 0.07216 0.93972 0.0
N317 N 0.08275 0.06864 0.91448 0.0
N318 N 0.09453 0.12701 0.97994 0.0
C319 C 0.13023 0.1079 0.98036 0.0
H320 H 0.03401 0.10825 0.93044 0.0
H321 H 0.14548 0.05036 0.92843 0.0
C322 C 0.10073 0.01222 0.68306 0.0
N323 N 0.99446 0.94739 0.69605 0.0
C324 C 1.01114 0.91381 0.6705 0.0
C325 C 0.95437 0.94368 0.67028 0.0
N326 N 0.98321 0.88907 0.62994 0.0
C327 C 0.94739 0.90798 0.62923 0.0
C328 C 1.00743 0.06854 0.68309 0.0
O329 O 0.10159 0.03189 0.75776 0.0
O330 O 0.06799 0.99058 0.66857 0.0
O331 O 0.99818 0.03183 0.66685 0.0
O332 O 0.03186 0.07301 0.75665 0.0
O333 O 0.9755 0.98431 0.85285 0.0
H334 H 0.93164 0.96534 0.68138 0.0
H335 H 0.0435 0.90808 0.68034 0.0
O336 O 1.00894 0.02569 0.94227 0.0
O337 O 0.07884 0.98439 0.94383 0.0
O338 O 0.04525 0.94312 0.85416 0.0
C339 C 0.06968 0.94767 0.92767 0.0
H340 H 0.1596 0.11893 0.00759 0.0
H341 H 0.91815 0.89684 0.60151 0.0
Co342 Co 0.51759 0.01168 0.86474 0.0
C343 C 0.53719 0.92898 0.92896 0.0
Co344 Co 0.55508 0.99055 0.74653 0.0
C345 C 0.44346 0.01263 0.98421 0.0
C346 C 0.48394 0.06683 0.98699 0.0
N347 N 0.48132 0.0303 0.95324 0.0
N348 N 0.4219 0.03683 0.03471 0.0
C349 C 0.44777 0.07085 0.03724 0.0
H350 H 0.4316 0.98299 0.96686 0.0
H351 H 0.50996 0.08972 0.97313 0.0
C352 C 0.53532 0.07333 0.68269 0.0
N353 N 0.59108 0.9717 0.6581 0.0
C354 C 0.6288 0.98924 0.62558 0.0
C355 C 0.58794 0.93517 0.62434 0.0
N356 N 0.64972 0.96501 0.57376 0.0
C357 C 0.62363 0.93105 0.57235 0.0
C358 C 0.47341 0.97566 0.71619 0.0
O359 O 0.5168 0.06499 0.77029 0.0
O360 O 0.55513 0.04478 0.65495 0.0
O361 O 0.50841 0.97231 0.67729 0.0
O362 O 0.47128 0.99141 0.7966 0.0
O363 O 0.55457 0.93666 0.83984 0.0
H364 H 0.5618 0.91246 0.6389 0.0
H365 H 0.64093 0.01887 0.64243 0.0
O366 O 0.51871 0.95813 0.95783 0.0
O367 O 0.56559 0.03204 0.93179 0.0
O368 O 0.60057 0.00892 0.81521 0.0
C369 C 0.60011 0.02665 0.89245 0.0
H370 H 0.44135 0.09706 0.07265 0.0
H371 H 0.6295 0.90491 0.53615 0.0
Co372 Co 0.57112 0.50621 0.82115 0.0
C373 C 0.53205 0.43443 0.94814 0.0
Co374 Co 0.50344 0.49893 0.79997 0.0
C375 C 0.64262 0.50314 0.95368 0.0
C376 C 0.65846 0.53141 0.79598 0.0
N377 N 0.62655 0.51285 0.85673 0.0
N378 N 0.68307 0.51516 0.95602 0.0
C379 C 0.69316 0.53297 0.85677 0.0
H380 H 0.62466 0.48863 0.02204 0.0
H381 H 0.6565 0.54363 0.71318 0.0
C382 C 0.54241 0.57098 0.67385 0.0
N383 N 0.4479 0.49236 0.76613 0.0
C384 C 0.43116 0.49884 0.66972 0.0
C385 C 0.41573 0.47994 0.83132 0.0
N386 N 0.38978 0.49094 0.67193 0.0
C387 C 0.38009 0.47902 0.77391 0.0
C388 C 0.52227 0.54774 0.93907 0.0
O389 O 0.57543 0.55756 0.71793 0.0
O390 O 0.5088 0.54878 0.69483 0.0
O391 O 0.4912 0.53311 0.89536 0.0
O392 O 0.5581 0.53779 0.9199 0.0
O393 O 0.49875 0.44874 0.90755 0.0
H394 H 0.418 0.47236 0.91523 0.0
H395 H 0.44917 0.50897 0.59916 0.0
O396 O 0.56595 0.45541 0.92235 0.0
O397 O 0.58364 0.47387 0.72175 0.0
O398 O 0.51639 0.46494 0.7058 0.0
C399 C 0.55252 0.45634 0.68447 0.0
H400 H 0.72357 0.54585 0.82984 0.0
H401 H 0.34929 0.47122 0.80538 0.0
Co402 Co 0.03528 0.54056 0.81823 0.0
C403 C 0.11086 0.51088 0.90187 0.0
Co404 Co 0.05161 0.47987 0.78225 0.0
C405 C 0.02835 0.59214 0.96932 0.0
C406 C 0.99932 0.61944 0.82666 0.0
N407 N 0.02077 0.58637 0.87158 0.0
N408 N 1.01256 0.62739 0.98748 0.0
C409 C 0.9942 0.6447 0.89779 0.0
H410 H 0.04483 0.57055 0.02673 0.0
H411 H 0.9882 0.62485 0.74744 0.0
C412 C 0.97635 0.50976 0.69695 0.0
N413 N 0.06587 0.43388 0.7293 0.0
C414 C 0.05697 0.4272 0.63296 0.0
C415 C 0.08794 0.40122 0.77376 0.0
N416 N 0.07245 0.39172 0.61536 0.0
C417 C 0.09207 0.37525 0.7038 0.0
C418 C 1.00549 0.46466 0.95329 0.0
O419 O 0.98513 0.54146 0.73809 0.0
O420 O 1.0011 0.48044 0.70783 0.0
O421 O 0.02454 0.44449 0.89723 0.0
O422 O 1.00741 0.50468 0.93145 0.0
O423 O 0.10235 0.47963 0.85903 0.0
H424 H 0.10001 0.39645 0.85206 0.0
H425 H 0.03959 0.44816 0.57625 0.0
O426 O 0.08541 0.53947 0.89482 0.0
O427 O 0.06304 0.576 0.70463 0.0
O428 O 0.07781 0.51562 0.66654 0.0
C429 C 0.07986 0.55565 0.64512 0.0
H430 H 0.97914 0.67412 0.88361 0.0
H431 H 0.10717 0.34586 0.71811 0.0
loop_
_geom_bond_atom_site_label_1
_geom_bond_atom_site_label_2
_geom_bond_distance
_geom_bond_site_symmetry_2
_ccdc_geom_bond_type
C0 C1 1.386 . S
C0 C2 1.397 . S
C0 H24 0.931 . S
C1 C0 1.386 . S
C1 C5 1.397 1_556 S
C2 C0 1.397 . S
C2 C3 1.384 1_556 S
C2 H25 0.930 . S
C3 C2 1.384 1_554 S
C3 C4 1.377 . S
C3 C6 1.481 . S
C4 C3 1.377 . S
C4 C5 1.389 . S
C4 H26 0.929 . S
C5 C1 1.397 1_554 S
C5 C4 1.389 . S
C5 H27 0.931 . S
C6 C3 1.481 . S
C6 C7 1.387 . S
C6 C11 1.390 . S
C7 C6 1.387 . S
C7 C8 1.401 . S
C7 H28 0.930 . S
C8 C7 1.401 . S
C8 C9 1.376 . S
C8 C17 1.511 . S
C9 C8 1.376 . S
C9 C10 1.392 . S
C9 H30 0.931 . S
C10 C9 1.392 . S
C10 C11 1.361 . S
C10 C12 1.500 . S
C11 C6 1.390 . S
C11 C10 1.361 . S
C11 H29 0.931 . S
C12 C10 1.500 . S
C12 C13 1.371 . S
C12 C14 1.365 . S
C13 C12 1.371 . S
C13 C23 1.386 . S
C13 H31 0.931 . S
C14 C12 1.365 . S
C14 C15 1.409 . S
C14 H32 0.929 . S
C15 C14 1.409 . S
C15 C16 1.380 . S
C15 H33 0.930 . S
C16 C15 1.380 . S
C16 C23 1.357 . S
C17 C8 1.511 . S
C17 C18 1.341 . S
C17 C19 1.371 . S
C18 C17 1.341 . S
C18 C22 1.394 . S
C18 H34 0.930 . S
C19 C17 1.371 . S
C19 C20 1.392 . S
C19 H35 0.931 . S
C20 C19 1.392 . S
C20 C21 1.331 . S
C20 H38 0.932 . S
C21 C20 1.331 . S
C21 C22 1.336 . S
C22 C18 1.394 . S
C22 C21 1.336 . S
C22 H37 0.929 1_554 S
C23 C13 1.386 . S
C23 C16 1.357 . S
C23 H36 0.928 . S
H24 C0 0.931 . S
H25 C2 0.930 . S
H26 C4 0.929 . S
H27 C5 0.931 . S
H28 C7 0.930 . S
H29 C11 0.931 . S
H30 C9 0.931 . S
H31 C13 0.931 . S
H32 C14 0.929 . S
H33 C15 0.930 . S
H34 C18 0.930 . S
H35 C19 0.931 . S
H36 C23 0.928 . S
H37 C22 0.929 1_556 S
H38 C20 0.932 . S
C39 C40 1.386 . S
C39 C41 1.397 . S
C39 H63 0.931 . S
C40 C39 1.386 . S
C40 C44 1.397 . S
C41 C39 1.397 . S
C41 C42 1.384 . S
C41 H64 0.930 . S
C42 C41 1.384 . S
C42 C43 1.377 . S
C42 C45 1.481 . S
C43 C42 1.377 . S
C43 C44 1.389 . S
C43 H65 0.929 . S
C44 C40 1.397 . S
C44 C43 1.389 . S
C44 H66 0.931 . S
C45 C42 1.481 . S
C45 C46 1.387 . S
C45 C50 1.390 1_556 S
C46 C45 1.387 . S
C46 C47 1.401 1_556 S
C46 H67 0.930 . S
C47 C46 1.401 1_554 S
C47 C48 1.376 . S
C47 C56 1.511 . S
C48 C47 1.376 . S
C48 C49 1.392 . S
C48 H69 0.931 . S
C49 C48 1.392 . S
C49 C50 1.361 . S
C49 C51 1.500 . S
C50 C45 1.390 1_554 S
C50 C49 1.361 . S
C50 H68 0.931 . S
C51 C49 1.500 . S
C51 C52 1.371 . S
C51 C53 1.365 . S
C52 C51 1.371 . S
C52 C62 1.386 . S
C52 H70 0.931 . S
C53 C51 1.365 . S
C53 C54 1.409 . S
C53 H71 0.929 . S
C54 C53 1.409 . S
C54 C55 1.380 . S
C54 H72 0.930 . S
C55 C54 1.380 . S
C55 C62 1.357 . S
C56 C47 1.511 . S
C56 C57 1.341 1_554 S
C56 C58 1.371 . S
C57 C56 1.341 1_556 S
C57 C61 1.394 . S
C57 H73 0.930 . S
C58 C56 1.371 . S
C58 C59 1.392 . S
C58 H74 0.931 . S
C59 C58 1.392 . S
C59 C60 1.331 1_554 S
C59 H77 0.932 . S
C60 C59 1.331 1_556 S
C60 C61 1.336 . S
C61 C57 1.394 . S
C61 C60 1.336 . S
C61 H76 0.929 . S
C62 C52 1.386 . S
C62 C55 1.357 . S
C62 H75 0.928 . S
H63 C39 0.931 . S
H64 C41 0.930 . S
H65 C43 0.929 . S
H66 C44 0.931 . S
H67 C46 0.930 . S
H68 C50 0.931 . S
H69 C48 0.931 . S
H70 C52 0.931 . S
H71 C53 0.929 . S
H72 C54 0.930 . S
H73 C57 0.930 . S
H74 C58 0.931 . S
H75 C62 0.928 . S
H76 C61 0.929 . S
H77 C59 0.932 . S
C78 C79 1.395 . S
C78 C80 1.397 . S
C78 H102 0.931 . S
C79 C78 1.395 . S
C79 C83 1.387 1_565 S
C80 C78 1.397 . S
C80 C81 1.390 . S
C80 H103 0.930 . S
C81 C80 1.390 . S
C81 C82 1.372 1_565 S
C81 C84 1.480 . S
C82 C81 1.372 1_545 S
C82 C83 1.389 . S
C82 H104 0.929 . S
C83 C79 1.387 1_545 S
C83 C82 1.389 . S
C83 H105 0.931 . S
C84 C81 1.480 . S
C84 C85 1.387 . S
C84 C89 1.394 1_556 S
C85 C84 1.387 . S
C85 C86 1.401 1_556 S
C85 H106 0.930 . S
C86 C85 1.401 1_554 S
C86 C87 1.376 . S
C86 C95 1.511 . S
C87 C86 1.376 . S
C87 C88 1.393 . S
C87 H108 0.931 . S
C88 C87 1.393 . S
C88 C89 1.360 . S
C88 C90 1.493 1_565 S
C89 C84 1.394 1_554 S
C89 C88 1.360 . S
C89 H107 0.930 . S
C90 C88 1.493 1_545 S
C90 C91 1.362 1_545 S
C90 C92 1.380 . S
C91 C90 1.362 1_565 S
C91 C101 1.386 . S
C91 H109 0.931 . S
C92 C90 1.380 . S
C92 C93 1.409 . S
C92 H110 0.929 . S
C93 C92 1.409 . S
C93 C94 1.381 . S
C93 H111 0.930 . S
C94 C93 1.381 . S
C94 C101 1.356 1_545 S
C95 C86 1.511 . S
C95 C96 1.341 1_554 S
C95 C97 1.371 1_565 S
C96 C95 1.341 1_556 S
C96 C100 1.394 . S
C96 H112 0.930 . S
C97 C95 1.371 1_545 S
C97 C98 1.392 . S
C97 H113 0.931 . S
C98 C97 1.392 . S
C98 C99 1.331 1_544 S
C98 H116 0.932 . S
C99 C98 1.331 1_566 S
C99 C100 1.336 . S
C100 C96 1.394 . S
C100 C99 1.336 . S
C100 H115 0.929 . S
C101 C91 1.386 . S
C101 C94 1.356 1_565 S
C101 H114 0.928 . S
H102 C78 0.931 . S
H103 C80 0.930 . S
H104 C82 0.929 . S
H105 C83 0.931 . S
H106 C85 0.930 . S
H107 C89 0.930 . S
H108 C87 0.931 . S
H109 C91 0.931 . S
H110 C92 0.929 . S
H111 C93 0.930 . S
H112 C96 0.930 . S
H113 C97 0.931 . S
H114 C101 0.928 . S
H115 C100 0.929 . S
H116 C98 0.932 . S
C117 C118 1.386 . S
C117 C119 1.397 . S
C117 H141 0.931 . S
C118 C117 1.386 . S
C118 C122 1.397 . S
C119 C117 1.397 . S
C119 C120 1.384 . S
C119 H142 0.930 . S
C120 C119 1.384 . S
C120 C121 1.377 . S
C120 C123 1.481 . S
C121 C120 1.377 . S
C121 C122 1.389 . S
C121 H143 0.929 . S
C122 C118 1.397 . S
C122 C121 1.389 . S
C122 H144 0.931 . S
C123 C120 1.481 . S
C123 C124 1.387 . S
C123 C128 1.390 . S
C124 C123 1.387 . S
C124 C125 1.401 . S
C124 H145 0.930 . S
C125 C124 1.401 . S
C125 C126 1.376 . S
C125 C134 1.511 . S
C126 C125 1.376 . S
C126 C127 1.392 . S
C126 H147 0.931 1_554 S
C127 C126 1.392 . S
C127 C128 1.361 . S
C127 C129 1.500 . S
C128 C123 1.390 . S
C128 C127 1.361 . S
C128 H146 0.931 . S
C129 C127 1.500 . S
C129 C130 1.371 1_554 S
C129 C131 1.365 . S
C130 C129 1.371 1_556 S
C130 C140 1.386 . S
C130 H148 0.931 . S
C131 C129 1.365 . S
C131 C132 1.409 1_554 S
C131 H149 0.929 . S
C132 C131 1.409 1_556 S
C132 C133 1.380 . S
C132 H150 0.930 . S
C133 C132 1.380 . S
C133 C140 1.357 . S
C134 C125 1.511 . S
C134 C135 1.341 . S
C134 C136 1.371 1_554 S
C135 C134 1.341 . S
C135 C139 1.394 . S
C135 H151 0.930 . S
C136 C134 1.371 1_556 S
C136 C137 1.392 . S
C136 H152 0.931 . S
C137 C136 1.392 . S
C137 C138 1.331 1_556 S
C137 H155 0.932 . S
C138 C137 1.331 1_554 S
C138 C139 1.336 . S
C139 C135 1.394 . S
C139 C138 1.336 . S
C139 H154 0.929 . S
C140 C130 1.386 . S
C140 C133 1.357 . S
C140 H153 0.928 . S
H141 C117 0.931 . S
H142 C119 0.930 . S
H143 C121 0.929 . S
H144 C122 0.931 . S
H145 C124 0.930 . S
H146 C128 0.931 . S
H147 C126 0.931 1_556 S
H148 C130 0.931 . S
H149 C131 0.929 . S
H150 C132 0.930 . S
H151 C135 0.930 . S
H152 C136 0.931 . S
H153 C140 0.928 . S
H154 C139 0.929 . S
H155 C137 0.932 . S
C156 C157 1.386 . S
C156 C158 1.397 . S
C156 H180 0.931 . S
C157 C156 1.386 . S
C157 C161 1.397 . S
C158 C156 1.397 . S
C158 C159 1.384 . S
C158 H181 0.930 . S
C159 C158 1.384 . S
C159 C160 1.377 . S
C159 C162 1.481 . S
C160 C159 1.377 . S
C160 C161 1.389 . S
C160 H182 0.929 . S
C161 C157 1.397 . S
C161 C160 1.389 . S
C161 H183 0.931 . S
C162 C159 1.481 . S
C162 C163 1.387 . S
C162 C167 1.390 . S
C163 C162 1.387 . S
C163 C164 1.401 . S
C163 H184 0.930 . S
C164 C163 1.401 . S
C164 C165 1.376 . S
C164 C173 1.511 . S
C165 C164 1.376 . S
C165 C166 1.392 . S
C165 H186 0.931 . S
C166 C165 1.392 . S
C166 C167 1.361 . S
C166 C168 1.500 . S
C167 C162 1.390 . S
C167 C166 1.361 . S
C167 H185 0.931 . S
C168 C166 1.500 . S
C168 C169 1.371 . S
C168 C170 1.365 . S
C169 C168 1.371 . S
C169 C179 1.386 1_554 S
C169 H187 0.931 . S
C170 C168 1.365 . S
C170 C171 1.409 . S
C170 H188 0.929 . S
C171 C170 1.409 . S
C171 C172 1.380 1_554 S
C171 H189 0.930 . S
C172 C171 1.380 1_556 S
C172 C179 1.357 . S
C173 C164 1.511 . S
C173 C174 1.341 . S
C173 C175 1.371 . S
C174 C173 1.341 . S
C174 C178 1.394 . S
C174 H190 0.930 . S
C175 C173 1.371 . S
C175 C176 1.392 . S
C175 H191 0.931 . S
C176 C175 1.392 . S
C176 C177 1.331 . S
C176 H194 0.932 . S
C177 C176 1.331 . S
C177 C178 1.336 . S
C178 C174 1.394 . S
C178 C177 1.336 . S
C178 H193 0.929 . S
C179 C169 1.386 1_556 S
C179 C172 1.357 . S
C179 H192 0.928 . S
H180 C156 0.931 . S
H181 C158 0.930 . S
H182 C160 0.929 . S
H183 C161 0.931 . S
H184 C163 0.930 . S
H185 C167 0.931 . S
H186 C165 0.931 . S
H187 C169 0.931 . S
H188 C170 0.929 . S
H189 C171 0.930 . S
H190 C174 0.930 . S
H191 C175 0.931 . S
H192 C179 0.928 . S
H193 C178 0.929 . S
H194 C176 0.932 . S
C195 C196 1.386 . S
C195 C197 1.397 . S
C195 H219 0.931 . S
C196 C195 1.386 . S
C196 C200 1.397 . S
C197 C195 1.397 . S
C197 C198 1.384 . S
C197 H220 0.930 . S
C198 C197 1.384 . S
C198 C199 1.377 . S
C198 C201 1.481 . S
C199 C198 1.377 . S
C199 C200 1.389 . S
C199 H221 0.929 . S
C200 C196 1.397 . S
C200 C199 1.389 . S
C200 H222 0.931 . S
C201 C198 1.481 . S
C201 C202 1.387 . S
C201 C206 1.390 . S
C202 C201 1.387 . S
C202 C203 1.401 . S
C202 H223 0.930 . S
C203 C202 1.401 . S
C203 C204 1.376 . S
C203 C212 1.511 . S
C204 C203 1.376 . S
C204 C205 1.392 . S
C204 H225 0.931 . S
C205 C204 1.392 . S
C205 C206 1.361 . S
C205 C207 1.500 . S
C206 C201 1.390 . S
C206 C205 1.361 . S
C206 H224 0.931 . S
C207 C205 1.500 . S
C207 C208 1.371 . S
C207 C209 1.365 . S
C208 C207 1.371 . S
C208 C218 1.386 . S
C208 H226 0.931 . S
C209 C207 1.365 . S
C209 C210 1.409 . S
C209 H227 0.929 . S
C210 C209 1.409 . S
C210 C211 1.380 . S
C210 H228 0.930 . S
C211 C210 1.380 . S
C211 C218 1.357 . S
C212 C203 1.511 . S
C212 C213 1.341 . S
C212 C214 1.371 . S
C213 C212 1.341 . S
C213 C217 1.394 . S
C213 H229 0.930 . S
C214 C212 1.371 . S
C214 C215 1.392 . S
C214 H230 0.931 . S
C215 C214 1.392 . S
C215 C216 1.331 . S
C215 H233 0.932 . S
C216 C215 1.331 . S
C216 C217 1.336 . S
C217 C213 1.394 . S
C217 C216 1.336 . S
C217 H232 0.929 . S
C218 C208 1.386 . S
C218 C211 1.357 . S
C218 H231 0.928 . S
H219 C195 0.931 . S
H220 C197 0.930 . S
H221 C199 0.929 . S
H222 C200 0.931 . S
H223 C202 0.930 . S
H224 C206 0.931 . S
H225 C204 0.931 . S
H226 C208 0.931 . S
H227 C209 0.929 . S
H228 C210 0.930 . S
H229 C213 0.930 . S
H230 C214 0.931 . S
H231 C218 0.928 . S
H232 C217 0.929 . S
H233 C215 0.932 . S
C234 C235 1.390 . S
C234 C236 1.397 . S
C234 H258 0.931 . S
C235 C234 1.390 . S
C235 C239 1.394 1_565 S
C236 C234 1.397 . S
C236 C237 1.385 . S
C236 H259 0.930 . S
C237 C236 1.385 . S
C237 C238 1.376 1_565 S
C237 C240 1.478 . S
C238 C237 1.376 1_545 S
C238 C239 1.389 . S
C238 H260 0.929 . S
C239 C235 1.394 1_545 S
C239 C238 1.389 . S
C239 H261 0.931 . S
C240 C237 1.478 . S
C240 C241 1.385 . S
C240 C245 1.394 . S
C241 C240 1.385 . S
C241 C242 1.400 . S
C241 H262 0.930 . S
C242 C241 1.400 . S
C242 C243 1.382 . S
C242 C251 1.509 . S
C243 C242 1.382 . S
C243 C244 1.392 . S
C243 H264 0.931 . S
C244 C243 1.392 . S
C244 C245 1.362 . S
C244 C246 1.499 1_565 S
C245 C240 1.394 . S
C245 C244 1.362 . S
C245 H263 0.932 . S
C246 C244 1.499 1_545 S
C246 C247 1.371 1_545 S
C246 C248 1.365 . S
C247 C246 1.371 1_565 S
C247 C257 1.386 . S
C247 H265 0.931 . S
C248 C246 1.365 . S
C248 C249 1.409 . S
C248 H266 0.929 . S
C249 C248 1.409 . S
C249 C250 1.385 . S
C249 H267 0.930 . S
C250 C249 1.385 . S
C250 C257 1.354 1_545 S
C251 C242 1.509 . S
C251 C252 1.341 . S
C251 C253 1.371 1_565 S
C252 C251 1.341 . S
C252 C256 1.394 . S
C252 H268 0.930 . S
C253 C251 1.371 1_545 S
C253 C254 1.392 . S
C253 H269 0.931 . S
C254 C253 1.392 . S
C254 C255 1.328 1_545 S
C254 H272 0.932 . S
C255 C254 1.328 1_565 S
C255 C256 1.342 . S
C256 C252 1.394 . S
C256 C255 1.342 . S
C256 H271 0.929 . S
C257 C247 1.386 . S
C257 C250 1.354 1_565 S
C257 H270 0.928 . S
H258 C234 0.931 . S
H259 C236 0.930 . S
H260 C238 0.929 . S
H261 C239 0.931 . S
H262 C241 0.930 . S
H263 C245 0.932 . S
H264 C243 0.931 . S
H265 C247 0.931 . S
H266 C248 0.929 . S
H267 C249 0.930 . S
H268 C252 0.930 . S
H269 C253 0.931 . S
H270 C257 0.928 . S
H271 C256 0.929 . S
H272 C254 0.932 . S
C273 C274 1.386 . S
C273 C275 1.397 . S
C273 H297 0.931 . S
C274 C273 1.386 . S
C274 C278 1.397 . S
C275 C273 1.397 . S
C275 C276 1.384 . S
C275 H298 0.930 . S
C276 C275 1.384 . S
C276 C277 1.377 . S
C276 C279 1.481 . S
C277 C276 1.377 . S
C277 C278 1.389 . S
C277 H299 0.929 . S
C278 C274 1.397 . S
C278 C277 1.389 . S
C278 H300 0.931 . S
C279 C276 1.481 . S
C279 C280 1.387 . S
C279 C284 1.390 . S
C280 C279 1.387 . S
C280 C281 1.401 . S
C280 H301 0.930 . S
C281 C280 1.401 . S
C281 C282 1.376 . S
C281 C290 1.511 . S
C282 C281 1.376 . S
C282 C283 1.392 . S
C282 H303 0.931 . S
C283 C282 1.392 . S
C283 C284 1.361 . S
C283 C285 1.500 . S
C284 C279 1.390 . S
C284 C283 1.361 . S
C284 H302 0.931 . S
C285 C283 1.500 . S
C285 C286 1.371 . S
C285 C287 1.365 . S
C286 C285 1.371 . S
C286 C296 1.386 . S
C286 H304 0.931 . S
C287 C285 1.365 . S
C287 C288 1.409 . S
C287 H305 0.929 . S
C288 C287 1.409 . S
C288 C289 1.380 . S
C288 H306 0.930 . S
C289 C288 1.380 . S
C289 C296 1.357 . S
C290 C281 1.511 . S
C290 C291 1.341 . S
C290 C292 1.371 . S
C291 C290 1.341 . S
C291 C295 1.394 . S
C291 H307 0.930 . S
C292 C290 1.371 . S
C292 C293 1.392 . S
C292 H308 0.931 . S
C293 C292 1.392 . S
C293 C294 1.331 . S
C293 H311 0.932 . S
C294 C293 1.331 . S
C294 C295 1.336 . S
C295 C291 1.394 . S
C295 C294 1.336 . S
C295 H310 0.929 . S
C296 C286 1.386 . S
C296 C289 1.357 . S
C296 H309 0.928 . S
H297 C273 0.931 . S
H298 C275 0.930 . S
H299 C277 0.929 . S
H300 C278 0.931 . S
H301 C280 0.930 . S
H302 C284 0.931 . S
H303 C282 0.931 . S
H304 C286 0.931 . S
H305 C287 0.929 . S
H306 C288 0.930 . S
H307 C291 0.930 . S
H308 C292 0.931 . S
H309 C296 0.928 . S
H310 C295 0.929 . S
H311 C293 0.932 . S
Co312 N317 2.057 1_556 S
Co312 O329 2.021 1_545 S
Co312 O332 2.062 . S
Co312 O336 2.117 1_455 S
Co312 O337 2.020 1_545 S
C313 O333 1.259 . S
C313 O336 1.258 . S
Co314 N323 2.057 1_455 S
Co314 O330 2.117 . S
Co314 O331 2.020 1_565 S
Co314 O333 2.021 1_465 S
Co314 O338 2.062 1_455 S
C315 N317 1.316 . S
C315 N318 1.347 . S
C315 H320 0.931 . S
C316 N317 1.375 . S
C316 C319 1.350 . S
C316 H321 0.930 1_455 S
N317 Co312 2.057 1_554 S
N317 C315 1.316 . S
N317 C316 1.375 . S
N318 C315 1.347 . S
N318 C319 1.373 . S
C319 C316 1.350 . S
C319 N318 1.373 . S
C319 H340 0.931 . S
H320 C315 0.931 . S
H321 C316 0.930 1_655 S
C322 O329 1.259 . S
C322 O330 1.258 . S
N323 Co314 2.057 1_655 S
N323 C324 1.316 . S
N323 C325 1.375 1_655 S
C324 N323 1.316 . S
C324 N326 1.347 . S
C324 H335 0.931 . S
C325 N323 1.375 1_455 S
C325 C327 1.350 . S
C325 H334 0.930 . S
N326 C324 1.347 . S
N326 C327 1.373 1_655 S
C327 C325 1.350 . S
C327 N326 1.373 1_455 S
C327 H341 0.931 . S
C328 O331 1.256 . S
C328 O332 1.255 . S
O329 Co312 2.021 1_565 S
O329 C322 1.259 . S
O330 Co314 2.117 . S
O330 C322 1.258 . S
O331 Co314 2.020 1_545 S
O331 C328 1.256 . S
O332 Co312 2.062 . S
O332 C328 1.255 . S
O333 C313 1.259 . S
O333 Co314 2.021 1_645 S
H334 C325 0.930 . S
H335 C324 0.931 . S
O336 Co312 2.117 1_655 S
O336 C313 1.258 . S
O337 Co312 2.020 1_565 S
O337 C339 1.256 1_455 S
O338 Co314 2.062 1_655 S
O338 C339 1.255 . S
C339 O337 1.256 1_655 S
C339 O338 1.255 . S
H340 C319 0.931 . S
H341 C327 0.931 . S
Co342 N347 2.057 1_546 S
Co342 O359 2.021 . S
Co342 O362 2.062 1_545 S
Co342 O366 2.117 1_545 S
Co342 O367 2.020 . S
C343 O363 1.259 . S
C343 O366 1.258 . S
Co344 N353 2.057 1_565 S
Co344 O360 2.117 1_565 S
Co344 O361 2.020 . S
Co344 O363 2.021 . S
Co344 O368 2.062 1_565 S
C345 N347 1.316 1_545 S
C345 N348 1.347 . S
C345 H350 0.931 . S
C346 N347 1.375 . S
C346 C349 1.350 . S
C346 H351 0.930 . S
N347 Co342 2.057 1_564 S
N347 C345 1.316 1_565 S
N347 C346 1.375 . S
N348 C345 1.347 . S
N348 C349 1.373 1_545 S
C349 C346 1.350 . S
C349 N348 1.373 1_565 S
C349 H370 0.931 . S
H350 C345 0.931 . S
H351 C346 0.930 . S
C352 O359 1.259 . S
C352 O360 1.258 . S
N353 Co344 2.057 1_545 S
N353 C354 1.316 1_545 S
N353 C355 1.375 . S
C354 N353 1.316 1_565 S
C354 N356 1.347 . S
C354 H365 0.931 . S
C355 N353 1.375 . S
C355 C357 1.350 . S
C355 H364 0.930 . S
N356 C354 1.347 . S
N356 C357 1.373 1_565 S
C357 C355 1.350 . S
C357 N356 1.373 1_545 S
C357 H371 0.931 . S
C358 O361 1.256 . S
C358 O362 1.255 . S
O359 Co342 2.021 . S
O359 C352 1.259 . S
O360 Co344 2.117 1_545 S
O360 C352 1.258 . S
O361 Co344 2.020 . S
O361 C358 1.256 . S
O362 Co342 2.062 1_565 S
O362 C358 1.255 . S
O363 C343 1.259 . S
O363 Co344 2.021 . S
H364 C355 0.930 . S
H365 C354 0.931 . S
O366 Co342 2.117 1_565 S
O366 C343 1.258 . S
O367 Co342 2.020 . S
O367 C369 1.256 . S
O368 Co344 2.062 1_545 S
O368 C369 1.255 . S
C369 O367 1.256 . S
C369 O368 1.255 . S
H370 C349 0.931 . S
H371 C357 0.931 . S
Co372 N377 2.057 . S
Co372 O389 2.021 . S
Co372 O392 2.062 . S
Co372 O396 2.117 . S
Co372 O397 2.020 . S
C373 O393 1.259 . S
C373 O396 1.258 . S
Co374 N383 2.057 . S
Co374 O390 2.117 . S
Co374 O391 2.020 . S
Co374 O393 2.021 . S
Co374 O398 2.062 . S
C375 N377 1.316 . S
C375 N378 1.347 . S
C375 H380 0.931 . S
C376 N377 1.375 . S
C376 C379 1.350 1_556 S
C376 H381 0.930 1_556 S
N377 Co372 2.057 . S
N377 C375 1.316 . S
N377 C376 1.375 . S
N378 C375 1.347 . S
N378 C379 1.373 1_556 S
C379 C376 1.350 1_554 S
C379 N378 1.373 1_554 S
C379 H400 0.931 . S
H380 C375 0.931 . S
H381 C376 0.930 1_554 S
C382 O389 1.259 . S
C382 O390 1.258 . S
N383 Co374 2.057 . S
N383 C384 1.316 . S
N383 C385 1.375 . S
C384 N383 1.316 . S
C384 N386 1.347 . S
C384 H395 0.931 . S
C385 N383 1.375 . S
C385 C387 1.350 . S
C385 H394 0.930 . S
N386 C384 1.347 . S
N386 C387 1.373 . S
C387 C385 1.350 . S
C387 N386 1.373 . S
C387 H401 0.931 . S
C388 O391 1.256 . S
C388 O392 1.255 . S
O389 Co372 2.021 . S
O389 C382 1.259 . S
O390 Co374 2.117 . S
O390 C382 1.258 . S
O391 Co374 2.020 . S
O391 C388 1.256 . S
O392 Co372 2.062 . S
O392 C388 1.255 . S
O393 C373 1.259 . S
O393 Co374 2.021 . S
H394 C385 0.930 . S
H395 C384 0.931 . S
O396 Co372 2.117 . S
O396 C373 1.258 . S
O397 Co372 2.020 . S
O397 C399 1.256 . S
O398 Co374 2.062 . S
O398 C399 1.255 . S
C399 O397 1.256 . S
C399 O398 1.255 . S
H400 C379 0.931 . S
H401 C387 0.931 . S
Co402 N407 2.057 . S
Co402 O419 2.021 1_455 S
Co402 O422 2.062 1_455 S
Co402 O426 2.117 . S
Co402 O427 2.020 . S
C403 O423 1.259 . S
C403 O426 1.258 . S
Co404 N413 2.057 . S
Co404 O420 2.117 1_455 S
Co404 O421 2.020 1_455 S
Co404 O423 2.021 . S
Co404 O428 2.062 . S
C405 N407 1.316 1_655 S
C405 N408 1.347 . S
C405 H410 0.931 . S
C406 N407 1.375 . S
C406 C409 1.350 . S
C406 H411 0.930 . S
N407 Co402 2.057 . S
N407 C405 1.316 1_455 S
N407 C406 1.375 . S
N408 C405 1.347 . S
N408 C409 1.373 1_655 S
C409 C406 1.350 . S
C409 N408 1.373 1_455 S
C409 H430 0.931 . S
H410 C405 0.931 . S
H411 C406 0.930 . S
C412 O419 1.259 . S
C412 O420 1.258 . S
N413 Co404 2.057 . S
N413 C414 1.316 . S
N413 C415 1.375 . S
C414 N413 1.316 . S
C414 N416 1.347 . S
C414 H425 0.931 . S
C415 N413 1.375 . S
C415 C417 1.350 . S
C415 H424 0.930 1_455 S
N416 C414 1.347 . S
N416 C417 1.373 . S
C417 C415 1.350 . S
C417 N416 1.373 . S
C417 H431 0.931 . S
C418 O421 1.256 . S
C418 O422 1.255 . S
O419 Co402 2.021 1_655 S
O419 C412 1.259 . S
O420 Co404 2.117 1_655 S
O420 C412 1.258 . S
O421 Co404 2.020 1_655 S
O421 C418 1.256 . S
O422 Co402 2.062 1_655 S
O422 C418 1.255 . S
O423 C403 1.259 . S
O423 Co404 2.021 . S
H424 C415 0.930 1_655 S
H425 C414 0.931 . S
O426 Co402 2.117 . S
O426 C403 1.258 . S
O427 Co402 2.020 . S
O427 C429 1.256 . S
O428 Co404 2.062 . S
O428 C429 1.255 . S
C429 O427 1.256 . S
C429 O428 1.255 . S
H430 C409 0.931 . S
H431 C417 0.931 . S
C255 C322 2.184 . S
C352 C294 2.835 . S
N386 C177 2.399 . S
N416 C216 3.150 . S
C313 C99 2.199 1_545 S
C138 C343 2.801 1_554 S
C21 N378 2.397 1_554 S
C60 N408 3.196 . S
C328 C196 3.755 . S
C358 C235 2.354 . S
C399 C289 2.028 . S
C157 C429 0.280 . S
C40 C339 3.777 . S
C369 C79 2.353 1_545 S
C388 C133 2.043 . S
C1 C418 0.267 . S
C211 N318 3.148 . S
C250 N348 2.884 . S
C373 C274 2.951 1_556 S
C403 C172 2.545 . S
C55 N326 3.142 . S
N356 C94 2.885 1_565 S
C382 C118 2.941 . S
C16 C412 2.552 . S
