# Generated by pormake.
# Topology anh, (6,3)-cn, num edge types: 1
# Building blocks:
#     Node 0, Type 0, BuildingBlock: PAMTOO_clean_sbu_0, # of connection points: 6
#     Node 1, Type 0, BuildingBlock: PAMTOO_clean_sbu_0, # of connection points: 6
#     Node 2, Type 0, BuildingBlock: PAMTOO_clean_sbu_0, # of connection points: 6
#     Node 3, Type 1, BuildingBlock: VETTIZ_charged_linker_0, # of connection points: 3
#     Node 4, Type 1, BuildingBlock: VETTIZ_charged_linker_0, # of connection points: 3
#     Node 5, Type 1, BuildingBlock: VETTIZ_charged_linker_0, # of connection points: 3
#     Node 6, Type 1, BuildingBlock: VETTIZ_charged_linker_0, # of connection points: 3
#     Node 7, Type 1, BuildingBlock: VETTIZ_charged_linker_0, # of connection points: 3
#     Node 8, Type 1, BuildingBlock: VETTIZ_charged_linker_0, # of connection points: 3
#     Edge 9, Type (0, 1), BuildingBlock: CIFDUS_clean_linker_0, # of connection points: 2
#     Edge 10, Type (0, 1), BuildingBlock: CIFDUS_clean_linker_0, # of connection points: 2
#     Edge 11, Type (0, 1), BuildingBlock: CIFDUS_clean_linker_0, # of connection points: 2
#     Edge 12, Type (0, 1), BuildingBlock: CIFDUS_clean_linker_0, # of connection points: 2
#     Edge 13, Type (0, 1), BuildingBlock: CIFDUS_clean_linker_0, # of connection points: 2
#     Edge 14, Type (0, 1), BuildingBlock: CIFDUS_clean_linker_0, # of connection points: 2
#     Edge 15, Type (0, 1), BuildingBlock: CIFDUS_clean_linker_0, # of connection points: 2
#     Edge 16, Type (0, 1), BuildingBlock: CIFDUS_clean_linker_0, # of connection points: 2
#     Edge 17, Type (0, 1), BuildingBlock: CIFDUS_clean_linker_0, # of connection points: 2
#     Edge 18, Type (0, 1), BuildingBlock: CIFDUS_clean_linker_0, # of connection points: 2
#     Edge 19, Type (0, 1), BuildingBlock: CIFDUS_clean_linker_0, # of connection points: 2
#     Edge 20, Type (0, 1), BuildingBlock: CIFDUS_clean_linker_0, # of connection points: 2
#     Edge 21, Type (0, 1), BuildingBlock: CIFDUS_clean_linker_0, # of connection points: 2
#     Edge 22, Type (0, 1), BuildingBlock: CIFDUS_clean_linker_0, # of connection points: 2
#     Edge 23, Type (0, 1), BuildingBlock: CIFDUS_clean_linker_0, # of connection points: 2
#     Edge 24, Type (0, 1), BuildingBlock: CIFDUS_clean_linker_0, # of connection points: 2
#     Edge 25, Type (0, 1), BuildingBlock: CIFDUS_clean_linker_0, # of connection points: 2
#     Edge 26, Type (0, 1), BuildingBlock: CIFDUS_clean_linker_0, # of connection points: 2
# Relax obj value: 0.196
# Max RMSD: 0.202
# Mean RMSD: 0.162
data_MOF--net-anh--node1-PAMTOO_clean_sbu_0--node2-VETTIZ_charged_linker_0--edge1-CIFDUS_clean_linker_0
_symmetry_space_group_name_H-M    P1
_symmetry_Int_Tables_number       1
_symmetry_cell_setting            triclinic
loop_
_symmetry_equiv_pos_as_xyz
'x, y, z'
_cell_length_a     31.473471
_cell_length_b     30.7339
_cell_length_c     60.580324
_cell_angle_alpha  89.549873
_cell_angle_beta   96.11362
_cell_angle_gamma 100.81026
loop_
_atom_site_label
_atom_site_type_symbol
_atom_site_fract_x
_atom_site_fract_y
_atom_site_fract_z
_atom_type_partial_charge
Dy0 Dy 1.08589 0.64126 0.15165 0.0
Dy1 Dy 1.06147 0.53204 0.15227 0.0
C2 C 1.06683 0.58496 0.10785 0.0
O3 O 1.01625 0.62755 0.15852 0.0
O4 O 0.99625 0.55382 0.14848 0.0
O5 O 0.10618 0.69945 0.13258 0.0
O6 O 0.09227 0.70628 0.16651 0.0
O7 O 1.05802 0.55533 0.18658 0.0
O8 O 0.10642 0.62095 0.18596 0.0
O9 O 0.13491 0.54661 0.15804 0.0
O10 O 0.14885 0.61967 0.14746 0.0
O11 O 1.06725 0.46873 0.16668 0.0
O12 O 1.02656 0.47185 0.13568 0.0
C13 C 0.98622 0.5919 0.15386 0.0
O14 O 1.05423 0.6165 0.11834 0.0
O15 O 1.0809 0.55289 0.11896 0.0
C16 C 0.14768 0.75952 0.15336 0.0
C17 C 0.22487 0.8233 0.16013 0.0
C18 C 0.18442 0.83638 0.15526 0.0
C19 C 0.14614 0.80468 0.15184 0.0
C20 C 0.18787 0.74623 0.15823 0.0
C21 C 0.22622 0.77786 0.16151 0.0
C22 C 0.10744 0.72654 0.14918 0.0
C23 C 1.0852 0.58831 0.19689 0.0
C24 C 0.16224 0.58262 0.15317 0.0
C25 C 1.00193 0.41521 0.16038 0.0
C26 C 0.93069 0.35691 0.17553 0.0
C27 C 0.96027 0.38547 0.19045 0.0
C28 C 0.99536 0.41443 0.18296 0.0
C29 C 0.97301 0.38617 0.1455 0.0
C30 C 0.93766 0.35739 0.15296 0.0
C31 C 1.03778 0.44685 0.15196 0.0
H32 H 0.18243 0.87112 0.15397 0.0
H33 H 0.11534 0.81543 0.14796 0.0
H34 H 0.1895 0.71141 0.15952 0.0
H35 H 0.25681 0.76681 0.16557 0.0
H36 H 0.95644 0.38541 0.20801 0.0
H37 H 1.01707 0.4364 0.19488 0.0
H38 H 0.9774 0.38622 0.128 0.0
H39 H 0.91532 0.33622 0.14097 0.0
Dy40 Dy 0.57643 0.0188 0.50904 0.0
Dy41 Dy 0.6824 0.04881 0.51765 0.0
C42 C 0.62434 0.02666 0.5573 0.0
O43 O 0.58925 0.09149 0.51735 0.0
O44 O 0.65823 0.11027 0.50688 0.0
O45 O 0.51287 1.01008 0.52089 0.0
O46 O 0.5192 0.99481 0.48668 0.0
O47 O 0.6662 0.03063 0.48171 0.0
O48 O 0.5985 0.04796 0.47761 0.0
O49 O 0.66905 0.97641 0.52457 0.0
O50 O 0.60324 0.95756 0.50339 0.0
O51 O 0.74669 0.05285 0.50725 0.0
O52 O 0.73906 0.07872 0.53934 0.0
C53 C 0.62195 0.12142 0.51172 0.0
O54 O 0.5957 1.00052 0.54378 0.0
O55 O 0.65478 0.05604 0.54958 0.0
C56 C 0.46387 0.94806 0.50379 0.0
C57 C 0.40941 0.86445 0.50648 0.0
C58 C 0.4169 0.89433 0.52453 0.0
C59 C 0.44395 0.93579 0.52321 0.0
C60 C 0.45553 0.91841 0.48563 0.0
C61 C 0.42878 0.87712 0.48699 0.0
C62 C 0.49331 0.99135 0.50232 0.0
C63 C 0.63299 0.04053 0.46906 0.0
C64 C 0.63807 0.9465 0.51424 0.0
C65 C 0.79282 0.11921 0.51925 0.0
C66 C 0.84209 0.19863 0.50516 0.0
C67 C 0.85963 0.15968 0.50681 0.0
C68 C 0.83509 0.12024 0.51377 0.0
C69 C 0.77564 0.15825 0.5182 0.0
C70 C 0.80008 0.19763 0.51127 0.0
C71 C 0.76553 0.07697 0.52439 0.0
H72 H 0.40224 0.88546 0.53972 0.0
H73 H 0.44941 0.95811 0.53741 0.0
H74 H 0.4697 0.92698 0.47029 0.0
H75 H 0.42272 0.8553 0.47258 0.0
H76 H 0.89169 0.15929 0.50195 0.0
H77 H 0.84867 0.09031 0.51431 0.0
H78 H 0.74299 0.15811 0.52234 0.0
H79 H 0.78588 0.22717 0.51044 0.0
Dy80 Dy 0.63646 0.51301 0.84779 0.0
Dy81 Dy 0.53225 0.50919 0.83757 0.0
C82 C 0.59231 0.51269 0.79968 0.0
O83 O 0.62794 0.58357 0.8418 0.0
O84 O 0.55845 0.57743 0.8507 0.0
O85 O 0.70055 0.54529 0.84131 0.0
O86 O 0.69274 0.4885 0.86299 0.0
O87 O 0.54293 0.48896 0.87295 0.0
O88 O 0.61414 0.52452 0.88041 0.0
O89 O 0.5392 0.4388 0.83271 0.0
O90 O 0.60728 0.44131 0.85134 0.0
O91 O 0.46927 0.51635 0.84642 0.0
O92 O 0.47728 0.50196 0.81237 0.0
C93 C 0.59562 0.60187 0.8469 0.0
O94 O 0.61651 0.49126 0.81283 0.0
O95 O 0.56596 0.53461 0.80812 0.0
C96 C 0.74652 0.49398 0.83825 0.0
C97 C 0.8046 0.46106 0.8135 0.0
C98 C 0.76922 0.47725 0.8026 0.0
C99 C 0.74015 0.49325 0.81488 0.0
C100 C 0.78035 0.47562 0.8491 0.0
C101 C 0.80907 0.45914 0.83685 0.0
C102 C 0.71899 0.51492 0.85138 0.0
C103 C 0.57686 0.50528 0.88705 0.0
C104 C 0.57023 0.4189 0.84178 0.0
C105 C 0.43669 0.55632 0.8188 0.0
C106 C 0.4075 0.63701 0.81356 0.0
C107 C 0.45209 0.63644 0.81515 0.0
C108 C 0.46655 0.59623 0.81741 0.0
C109 C 0.39206 0.55657 0.81597 0.0
C110 C 0.37751 0.59673 0.81317 0.0
C111 C 0.45277 0.51598 0.82573 0.0
H112 H 0.76513 0.47919 0.78466 0.0
H113 H 0.71368 0.50653 0.80609 0.0
H114 H 0.78553 0.47554 0.86707 0.0
H115 H 0.8365 0.44761 0.84574 0.0
H116 H 0.47565 0.66714 0.81574 0.0
H117 H 0.50117 0.5965 0.81926 0.0
H118 H 0.36864 0.52612 0.81705 0.0
H119 H 0.34293 0.59662 0.81238 0.0
C120 C 0.70826 0.13945 0.20147 0.0
C121 C 0.74383 0.167 0.2135 0.0
C122 C 0.74811 0.16583 0.23687 0.0
C123 C 0.68109 0.1122 0.23604 0.0
C124 C 0.67712 0.11252 0.21309 0.0
C125 C 0.63603 0.08258 0.20318 0.0
H126 H 0.44462 0.94944 0.2205 0.0
C127 C 0.64271 0.08243 0.24314 0.0
C128 C 0.61597 0.06486 0.22399 0.0
H129 H 0.49273 0.98412 0.15732 0.0
H130 H 0.55971 0.02631 0.17625 0.0
H131 H 0.53238 0.92791 0.24382 0.0
H132 H 0.47373 0.04331 0.24301 0.0
H133 H 0.49689 0.03872 0.27036 0.0
H134 H 0.45483 0.99466 0.25837 0.0
H135 H 0.48842 0.93187 0.2598 0.0
H136 H 0.54451 0.95052 0.27074 0.0
C137 C 0.64888 0.04547 0.18967 0.0
C138 C 0.60774 0.11127 0.18938 0.0
C139 C 0.6251 0.06576 0.32548 0.0
C140 C 0.59151 0.04261 0.33699 0.0
C141 C 0.555 0.01645 0.32494 0.0
C142 C 0.55161 0.01382 0.30178 0.0
C143 C 0.58497 0.03779 0.29044 0.0
C144 C 0.62105 0.06299 0.30226 0.0
C145 C 0.65278 0.08678 0.28729 0.0
C146 C 0.6298 0.07144 0.26456 0.0
C147 C 0.5902 0.04291 0.26659 0.0
C148 C 0.6961 0.06972 0.29225 0.0
C149 C 0.6566 0.13734 0.29097 0.0
C150 C 0.46939 0.96646 0.2107 0.0
C151 C 0.46323 0.9643 0.18746 0.0
C152 C 0.49678 0.9857 0.17529 0.0
C153 C 0.53545 1.0102 0.18631 0.0
C154 C 0.54055 0.01291 0.20968 0.0
C155 C 0.50791 0.99057 0.22137 0.0
C156 C 0.51862 0.99568 0.246 0.0
C157 C 0.56296 0.02534 0.24737 0.0
C158 C 0.57578 0.03577 0.22613 0.0
C159 C 0.52088 0.94923 0.25578 0.0
C160 C 0.48427 0.01899 0.25511 0.0
H161 H 0.72222 0.1395 0.26594 0.0
H162 H 0.70415 0.13979 0.18349 0.0
H163 H 0.60805 0.14285 0.19831 0.0
H164 H 0.57321 0.09527 0.18644 0.0
H165 H 0.62022 0.1197 0.1731 0.0
H166 H 0.67822 0.03467 0.19815 0.0
H167 H 0.65647 0.05711 0.17287 0.0
H168 H 0.62349 0.01523 0.18799 0.0
H169 H 0.65338 0.08643 0.33431 0.0
H170 H 0.52902 0.99783 0.33348 0.0
H171 H 0.52288 0.99349 0.29364 0.0
H172 H 0.68984 0.0337 0.29595 0.0
H173 H 0.71621 0.08723 0.30686 0.0
H174 H 0.71554 0.07281 0.27798 0.0
H175 H 0.62551 0.14524 0.29549 0.0
H176 H 0.66302 0.15674 0.27586 0.0
H177 H 0.68233 0.15005 0.3046 0.0
H178 H 0.77562 0.1862 0.24646 0.0
C179 C 0.71711 0.13855 0.24816 0.0
C180 C 0.59803 0.6478 0.52626 0.0
C181 C 0.60032 0.68951 0.53639 0.0
C182 C 0.59615 0.69185 0.55919 0.0
C183 C 0.58835 0.61238 0.5619 0.0
C184 C 0.59236 0.60949 0.53947 0.0
C185 C 0.59101 0.56204 0.53233 0.0
H186 H 0.56426 0.34409 0.5623 0.0
C187 C 0.58317 0.56753 0.57121 0.0
C188 C 0.58458 0.53738 0.55408 0.0
H189 H 0.59037 0.39623 0.49781 0.0
H190 H 0.59239 0.47128 0.51142 0.0
H191 H 0.63478 0.41243 0.58814 0.0
H192 H 0.49732 0.40621 0.57329 0.0
H193 H 0.51067 0.42291 0.60124 0.0
H194 H 0.52049 0.37008 0.5925 0.0
H195 H 0.59613 0.37864 0.60378 0.0
H196 H 0.61849 0.43567 0.61141 0.0
C197 C 0.6352 0.55908 0.5241 0.0
C198 C 0.55178 0.54829 0.51463 0.0
C199 C 0.56749 0.54895 0.65351 0.0
C200 C 0.56384 0.51191 0.66737 0.0
C201 C 0.56121 0.46954 0.65802 0.0
C202 C 0.56288 0.46421 0.63522 0.0
C203 C 0.56757 0.50167 0.6216 0.0
C204 C 0.56956 0.54307 0.63079 0.0
C205 C 0.57558 0.57913 0.61391 0.0
C206 C 0.57731 0.55257 0.59309 0.0
C207 C 0.57244 0.50738 0.59769 0.0
C208 C 0.61947 0.61081 0.62094 0.0
C209 C 0.53493 0.60129 0.61228 0.0
C210 C 0.56991 0.37161 0.55101 0.0
C211 C 0.57639 0.36442 0.52894 0.0
C212 C 0.58499 0.40116 0.5149 0.0
C213 C 0.58615 0.44453 0.52284 0.0
C214 C 0.57947 0.45108 0.54513 0.0
C215 C 0.57198 0.41466 0.55874 0.0
C216 C 0.56807 0.42686 0.58219 0.0
C217 C 0.57346 0.47662 0.58057 0.0
C218 C 0.57983 0.49118 0.55883 0.0
C219 C 0.60599 0.41254 0.59731 0.0
C220 C 0.52193 0.40531 0.58783 0.0
H221 H 0.58719 0.65821 0.58917 0.0
H222 H 0.60135 0.64527 0.50874 0.0
H223 H 0.52219 0.55806 0.52007 0.0
H224 H 0.54356 0.51218 0.51171 0.0
H225 H 0.55811 0.56472 0.49859 0.0
H226 H 0.66244 0.57914 0.535 0.0
H227 H 0.63694 0.57182 0.50694 0.0
H228 H 0.64183 0.52508 0.52454 0.0
H229 H 0.57008 0.58197 0.66029 0.0
H230 H 0.55791 0.44048 0.66839 0.0
H231 H 0.56083 0.4311 0.62917 0.0
H232 H 0.6433 0.59283 0.63012 0.0
H233 H 0.61498 0.63793 0.63196 0.0
H234 H 0.63597 0.62531 0.60664 0.0
H235 H 0.50516 0.57674 0.61496 0.0
H236 H 0.52742 0.61491 0.5957 0.0
H237 H 0.53866 0.62796 0.625 0.0
H238 H 0.59747 0.72356 0.56721 0.0
C239 C 0.59007 0.65373 0.57192 0.0
C240 C 0.22571 0.69897 0.85479 0.0
C241 C 0.25509 0.73014 0.86858 0.0
C242 C 0.24655 0.73491 0.89078 0.0
C243 C 0.18699 0.67165 0.88603 0.0
C244 C 0.19288 0.66981 0.86384 0.0
C245 C 0.16491 0.63016 0.85198 0.0
H246 H 1.01506 0.44382 0.85568 0.0
C247 C 0.15516 0.63166 0.89083 0.0
C248 C 0.14254 0.60723 0.8709 0.0
H249 H 1.06809 0.50614 0.79777 0.0
H250 H 0.11762 0.56047 0.82133 0.0
H251 H 0.10876 0.45581 0.888 0.0
H252 H 1.00306 0.52648 0.87718 0.0
H253 H 1.0186 0.52864 0.90588 0.0
H254 H 0.99897 0.47565 0.89228 0.0
H255 H 1.05759 0.43729 0.89875 0.0
H256 H 0.10122 0.47525 0.91418 0.0
C257 C 0.19481 0.60187 0.84234 0.0
C258 C 0.13242 0.64697 0.83443 0.0
C259 C 0.11722 0.5989 0.9697 0.0
C260 C 0.09161 0.56228 0.979 0.0
C261 C 1.06949 0.52692 0.9651 0.0
C262 C 1.07304 0.52768 0.9423 0.0
C263 C 0.09916 0.5641 0.93323 0.0
C264 C 0.12074 0.59898 0.94682 0.0
C265 C 0.14851 0.63387 0.93424 0.0
C266 C 0.13921 0.61448 0.91083 0.0
C267 C 0.1104 0.57358 0.91047 0.0
C268 C 0.19665 0.63642 0.94369 0.0
C269 C 0.13185 0.67785 0.93595 0.0
C270 C 1.03857 0.46786 0.848 0.0
C271 C 1.03761 0.47053 0.82475 0.0
C272 C 1.06807 0.50341 0.81561 0.0
C273 C 0.09632 0.53529 0.82933 0.0
C274 C 0.09395 0.53435 0.85241 0.0
C275 C 1.06629 0.50024 0.86139 0.0
C276 C 1.06613 0.5056 0.88602 0.0
C277 C 0.09749 0.54924 0.8903 0.0
C278 C 0.11369 0.56586 0.87064 0.0
C279 C 1.08401 0.46646 0.89749 0.0
C280 C 1.01935 0.50899 0.8908 0.0
H281 H 0.2089 0.70978 0.91681 0.0
H282 H 0.2308 0.69331 0.83776 0.0
H283 H 0.12225 0.6771 0.84054 0.0
H284 H 0.10177 0.62285 0.83067 0.0
H285 H 0.14729 0.65576 0.81878 0.0
H286 H 0.22568 0.6035 0.8534 0.0
H287 H 0.2034 0.61378 0.82574 0.0
H288 H 0.1804 0.56623 0.84105 0.0
H289 H 0.13502 0.62625 0.9801 0.0
H290 H 1.04926 0.49862 0.9719 0.0
H291 H 1.05536 0.49971 0.93265 0.0
H292 H 0.20292 0.60311 0.94873 0.0
H293 H 0.20516 0.65853 0.95855 0.0
H294 H 0.21972 0.64765 0.93141 0.0
H295 H 0.09566 0.6717 0.93405 0.0
H296 H 0.14176 0.70131 0.92274 0.0
H297 H 0.14333 0.69424 0.95235 0.0
H298 H 0.26788 0.75913 0.90176 0.0
C299 C 0.21255 0.70588 0.89956 0.0
C300 C 1.04272 0.42666 0.46771 0.0
C301 C 1.00786 0.39585 0.45719 0.0
C302 C 0.99837 0.39728 0.43394 0.0
C303 C 1.0589 0.45817 0.43201 0.0
C304 C 1.06775 0.45738 0.45484 0.0
C305 C 0.10654 0.49186 0.46326 0.0
H306 H 0.27633 0.64975 0.44024 0.0
C307 C 0.09225 0.49239 0.42342 0.0
C308 C 0.12042 0.51215 0.44162 0.0
H309 H 0.23715 0.61067 0.50477 0.0
H310 H 0.1764 0.55695 0.4875 0.0
H311 H 0.25741 0.55236 0.41726 0.0
H312 H 0.18227 0.65531 0.41931 0.0
H313 H 0.17205 0.63318 0.39226 0.0
H314 H 0.22666 0.65916 0.40266 0.0
H315 H 0.26862 0.60261 0.40188 0.0
H316 H 0.23009 0.55495 0.39058 0.0
C317 C 0.14131 0.46796 0.47535 0.0
C318 C 0.09097 0.52553 0.47798 0.0
C319 C 0.08938 0.5181 0.34034 0.0
C320 C 0.11769 0.54546 0.3273 0.0
C321 C 0.1557 0.57205 0.33794 0.0
C322 C 0.16493 0.57202 0.36106 0.0
C323 C 0.13605 0.54496 0.37382 0.0
C324 C 0.09931 0.51819 0.36342 0.0
C325 C 1.07337 0.49017 0.37961 0.0
C326 C 0.09998 0.5056 0.40148 0.0
C327 C 0.13645 0.5378 0.39796 0.0
C328 C 1.07332 0.44079 0.3744 0.0
C329 C 1.02759 0.5024 0.37802 0.0
C330 C 0.2551 0.62894 0.45063 0.0
C331 C 0.26173 0.63351 0.47383 0.0
C332 C 0.23266 0.60717 0.48685 0.0
C333 C 0.1975 0.57622 0.47679 0.0
C334 C 0.19111 0.57222 0.45348 0.0
C335 C 0.2195 0.5987 0.44085 0.0
C336 C 0.20606 0.5926 0.41637 0.0
C337 C 0.16508 0.55771 0.4163 0.0
C338 C 0.15678 0.54544 0.43803 0.0
C339 C 0.24237 0.57501 0.40577 0.0
C340 C 0.19647 0.63726 0.40695 0.0
H341 H 1.01495 0.42736 0.40372 0.0
H342 H 1.05045 0.42676 0.48557 0.0
H343 H 1.0565 0.52794 0.47277 0.0
H344 H 0.10931 0.55966 0.47659 0.0
H345 H 0.09321 0.51569 0.49569 0.0
H346 H 0.14441 0.43834 0.46564 0.0
H347 H 0.13232 0.4566 0.49197 0.0
H348 H 0.17411 0.48872 0.47743 0.0
H349 H 1.05981 0.49733 0.33282 0.0
H350 H 0.17872 0.59263 0.32837 0.0
H351 H 0.19431 0.59307 0.36809 0.0
H352 H 0.10299 0.43689 0.36672 0.0
H353 H 1.0447 0.42627 0.36267 0.0
H354 H 1.07405 0.42032 0.38947 0.0
H355 H 1.0299 0.53882 0.3763 0.0
H356 H 1.01091 0.49372 0.39302 0.0
H357 H 1.00657 0.48616 0.36336 0.0
H358 H 0.97203 0.37361 0.42539 0.0
C359 C 1.02361 0.42827 0.42133 0.0
C360 C 0.62452 0.89362 0.82592 0.0
C361 C 0.6325 0.85601 0.81494 0.0
C362 C 0.63697 0.85812 0.7921 0.0
C363 C 0.62632 0.93404 0.79121 0.0
C364 C 0.62199 0.93262 0.8137 0.0
C365 C 0.61595 0.97706 0.82231 0.0
H366 H 0.59269 0.18984 0.797 0.0
C367 C 0.62256 0.97867 0.7831 0.0
C368 C 0.61649 1.00457 0.80117 0.0
H369 H 0.59565 0.13255 0.86226 0.0
H370 H 0.60521 0.06242 0.84658 0.0
H371 H 0.67147 0.15607 0.78432 0.0
H372 H 0.53463 0.10603 0.77027 0.0
H373 H 0.55773 0.10066 0.74554 0.0
H374 H 0.56251 0.15484 0.7578 0.0
H375 H 0.63902 0.1782 0.76249 0.0
H376 H 0.66556 0.13239 0.75771 0.0
C377 C 0.65496 0.99507 0.83954 0.0
C378 C 0.57158 0.97082 0.83173 0.0
C379 C 0.63255 1.01181 0.70114 0.0
C380 C 0.63169 0.0505 0.68871 0.0
C381 C 0.62585 0.08919 0.69933 0.0
C382 C 0.62097 0.08945 0.722 0.0
C383 C 0.62224 0.05067 0.73432 0.0
C384 C 0.62807 0.01279 0.72389 0.0
C385 C 0.62975 0.97516 0.73978 0.0
C386 C 0.62392 0.9968 0.76149 0.0
C387 C 0.61924 0.04075 0.75808 0.0
C388 C 0.67522 0.9622 0.74022 0.0
C389 C 0.59085 0.93743 0.73234 0.0
C390 C 0.59463 0.16204 0.80795 0.0
C391 C 0.59249 0.1664 0.83076 0.0
C392 C 0.59684 0.12981 0.84453 0.0
C393 C 0.60244 0.08926 0.83541 0.0
C394 C 0.60457 0.08566 0.81237 0.0
C395 C 0.60099 0.12215 0.79926 0.0
C396 C 0.60625 0.11449 0.77546 0.0
C397 C 0.61282 0.06706 0.77606 0.0
C398 C 0.61163 0.04958 0.79762 0.0
C399 C 0.64742 0.147 0.76948 0.0
C400 C 0.56333 0.11948 0.76136 0.0
H401 H 0.63748 0.89561 0.76288 0.0
H402 H 0.62121 0.89288 0.84353 0.0
H403 H 0.54567 0.95141 0.81987 0.0
H404 H 0.56132 1.00253 0.83456 0.0
H405 H 0.57254 0.95265 0.84765 0.0
H406 H 0.68588 0.98963 0.83366 0.0
H407 H 0.65148 0.97801 0.85567 0.0
H408 H 0.65916 0.03109 0.84236 0.0
H409 H 0.63745 0.9817 0.69344 0.0
H410 H 0.62459 0.11923 0.69 0.0
H411 H 0.61641 0.11996 0.729 0.0
H412 H 0.70029 0.99079 0.73602 0.0
H413 H 0.67478 0.93518 0.72808 0.0
H414 H 0.68768 0.95216 0.75688 0.0
H415 H 0.5616 0.95118 0.72608 0.0
H416 H 0.58031 0.91545 0.74602 0.0
H417 H 0.59857 0.91715 0.71875 0.0
H418 H 0.64272 0.82954 0.78331 0.0
C419 C 0.63379 0.89662 0.78023 0.0
C420 C 0.69049 0.56591 0.1498 0.0
C421 C 0.72807 0.58065 0.13865 0.0
C422 C 0.72269 0.59905 0.1174 0.0
C423 C 0.64457 0.58157 0.11703 0.0
C424 C 0.64874 0.56823 0.13882 0.0
C425 C 0.6041 0.55665 0.14739 0.0
H426 H 0.38353 0.50385 0.11983 0.0
C427 C 0.5983 0.57337 0.10849 0.0
C428 C 0.57355 0.56297 0.12647 0.0
H429 H 0.44142 0.58613 0.17641 0.0
H430 H 0.51372 0.59032 0.16348 0.0
H431 H 0.42921 0.57165 0.0914 0.0
H432 H 0.46298 0.44669 0.11133 0.0
H433 H 0.47231 0.45398 0.08333 0.0
H434 H 0.41796 0.4508 0.09111 0.0
H435 H 0.39946 0.51977 0.0799 0.0
H436 H 0.44641 0.54952 0.06815 0.0
C437 C 0.60194 0.58839 0.1666 0.0
C438 C 0.59568 0.50813 0.15493 0.0
C439 C 0.56353 0.54135 0.02572 0.0
C440 C 0.5271 0.51689 0.01287 0.0
C441 C 0.49026 0.49825 0.02347 0.0
C442 C 0.4896 0.50436 0.04633 0.0
C443 C 0.52613 0.52939 0.05881 0.0
C444 C 0.56273 0.54622 0.04859 0.0
C445 C 0.59977 0.56909 0.06468 0.0
C446 C 0.57907 0.56302 0.0864 0.0
C447 C 0.53563 0.54121 0.08263 0.0
C448 C 0.60989 0.6186 0.05843 0.0
C449 C 0.63913 0.54517 0.06412 0.0
C450 C 0.41195 0.52012 0.13039 0.0
C451 C 0.40696 0.54241 0.14977 0.0
C452 C 0.4446 0.56684 0.162 0.0
C453 C 0.48646 0.5681 0.15506 0.0
C454 C 0.49076 0.54451 0.13588 0.0
C455 C 0.45334 0.52342 0.12323 0.0
C456 C 0.4615 0.51475 0.09982 0.0
C457 C 0.5094 0.53484 0.10041 0.0
C458 C 0.52745 0.54866 0.12199 0.0
C459 C 0.43264 0.53978 0.08383 0.0
C460 C 0.45302 0.46396 0.09597 0.0
H461 H 0.67929 0.61454 0.09065 0.0
H462 H 0.69363 0.55301 0.16645 0.0
H463 H 0.59891 0.4855 0.14122 0.0
H464 H 0.56229 0.49867 0.15997 0.0
H465 H 0.61922 0.5032 0.16932 0.0
H466 H 0.59719 0.62136 0.16026 0.0
H467 H 0.63244 0.59318 0.17811 0.0
H468 H 0.57549 0.57454 0.17677 0.0
H469 H 0.59231 0.55659 0.0182 0.0
H470 H 0.46204 0.47848 0.01416 0.0
H471 H 0.46058 0.48945 0.05339 0.0
H472 H 0.57933 0.63143 0.05398 0.0
H473 H 0.6291 0.62341 0.04394 0.0
H474 H 0.62774 0.6398 0.07235 0.0
H475 H 0.63453 0.52075 0.05024 0.0
H476 H 0.64458 0.52617 0.0795 0.0
H477 H 0.66956 0.56871 0.0617 0.0
H478 H 0.7507 0.61158 0.10866 0.0
C479 C 0.68136 0.59982 0.10669 0.0
H480 H 0.20465 0.51163 0.15911 0.0
H481 H 0.22841 0.653 0.14915 0.0
H482 H 0.30597 0.65387 0.14973 0.0
H483 H 0.36768 0.61426 0.15099 0.0
H484 H 0.34409 0.4727 0.15871 0.0
H485 H 0.26683 0.47222 0.16137 0.0
C486 C 0.22674 0.54269 0.15717 0.0
C487 C 0.21006 0.58216 0.15405 0.0
C488 C 0.27186 0.54301 0.15723 0.0
C489 C 0.23969 0.62196 0.15152 0.0
C490 C 0.28439 0.62258 0.15188 0.0
C491 C 0.34574 0.5835 0.15378 0.0
C492 C 0.36184 0.54366 0.15506 0.0
C493 C 0.30092 0.58332 0.15454 0.0
C494 C 0.33268 0.50387 0.158 0.0
C495 C 0.28838 0.50357 0.15935 0.0
H496 H 0.92819 0.23414 0.51414 0.0
H497 H 0.81061 0.25455 0.47523 0.0
H498 H 0.85103 0.31934 0.45821 0.0
H499 H 0.92028 0.36773 0.45283 0.0
H500 H 1.03853 0.34577 0.49048 0.0
H501 H 0.9973 0.28434 0.50967 0.0
C502 C 0.91148 0.25276 0.50191 0.0
C503 C 0.86652 0.23946 0.49593 0.0
C504 C 0.93501 0.28969 0.49196 0.0
C505 C 0.84513 0.26435 0.48032 0.0
C506 C 0.86825 0.30123 0.47046 0.0
C507 C 0.93702 0.34945 0.46522 0.0
C508 C 0.98239 0.36108 0.47011 0.0
C509 C 0.91326 0.31381 0.47592 0.0
C510 C 1.00355 0.33769 0.48653 0.0
C511 C 0.98006 0.30236 0.49739 0.0
H512 H 0.66549 0.66508 0.83823 0.0
H513 H 0.53316 0.64951 0.85435 0.0
H514 H 0.53458 0.72828 0.84876 0.0
H515 H 0.57076 0.80066 0.83533 0.0
H516 H 0.70235 0.81575 0.81869 0.0
H517 H 0.70426 0.73898 0.82893 0.0
C518 C 0.63716 0.67897 0.84084 0.0
C519 C 0.5991 0.65094 0.84636 0.0
C520 C 0.63809 0.7246 0.83756 0.0
C521 C 0.56285 0.66989 0.84983 0.0
C522 C 0.56358 0.71516 0.84667 0.0
C523 C 0.6002 0.78741 0.83464 0.0
C524 C 0.63643 0.81379 0.82638 0.0
C525 C 0.60065 0.74272 0.84002 0.0
C526 C 0.67417 0.79604 0.82513 0.0
C527 C 0.67514 0.75204 0.83081 0.0
H528 H 0.91315 0.52636 0.15659 0.0
H529 H 0.95353 0.66781 0.15059 0.0
H530 H 0.87817 0.67719 0.14806 0.0
H531 H 0.8001 0.64545 0.14468 0.0
H532 H 0.75779 0.5049 0.15133 0.0
H533 H 0.83392 0.49513 0.15701 0.0
C534 C 0.90546 0.55924 0.15485 0.0
C535 C 0.93945 0.59625 0.15358 0.0
C536 C 0.86145 0.56469 0.15368 0.0
C537 C 0.92852 0.63861 0.1516 0.0
C538 C 0.88521 0.64411 0.15013 0.0
C539 C 0.80757 0.61278 0.14792 0.0
C540 C 0.77317 0.57599 0.1477 0.0
C541 C 0.85136 0.60744 0.15085 0.0
C542 C 0.78349 0.53387 0.15176 0.0
C543 C 0.82712 0.52824 0.1547 0.0
H544 H 0.4237 0.78561 0.49237 0.0
H545 H 0.32982 0.84526 0.5223 0.0
H546 H 0.27736 0.77546 0.51802 0.0
H547 H 0.25492 0.70103 0.50082 0.0
H548 H 0.34744 0.64412 0.46841 0.0
H549 H 0.40383 0.70914 0.47861 0.0
C550 C 0.39184 0.78319 0.4981 0.0
C551 C 0.38035 0.82066 0.50728 0.0
C552 C 0.36156 0.74351 0.49498 0.0
C553 C 0.33942 0.81685 0.51516 0.0
C554 C 0.30931 0.77705 0.51257 0.0
C555 C 0.28778 0.70254 0.49656 0.0
C556 C 0.29725 0.6682 0.48388 0.0
C557 C 0.31954 0.74065 0.50183 0.0
C558 C 0.33964 0.67045 0.47813 0.0
C559 C 0.37173 0.7076 0.48387 0.0
H560 H 0.61934 0.36436 0.86409 0.0
H561 H 0.50788 0.36258 0.81566 0.0
H562 H 0.50202 0.28315 0.80999 0.0
H563 H 0.53231 0.21548 0.81618 0.0
H564 H 0.64357 0.21626 0.86432 0.0
H565 H 0.64515 0.29439 0.87308 0.0
C566 C 0.59352 0.34656 0.85243 0.0
C567 C 0.56441 0.36977 0.84013 0.0
C568 C 0.59022 0.30059 0.84923 0.0
C569 C 0.53086 0.34587 0.82531 0.0
C570 C 0.5275 0.30033 0.82201 0.0
C571 C 0.55643 0.23261 0.82888 0.0
C572 C 0.58792 0.21022 0.83952 0.0
C573 C 0.55749 0.27756 0.83353 0.0
C574 C 0.6188 0.23265 0.85603 0.0
C575 C 0.61996 0.27745 0.86085 0.0
H576 H 0.58033 0.87389 0.49639 0.0
H577 H 0.7032 0.91176 0.53694 0.0
H578 H 0.70543 0.83431 0.54432 0.0
H579 H 0.66865 0.7566 0.54309 0.0
H580 H 0.54539 0.71748 0.50366 0.0
H581 H 0.54755 0.79428 0.49157 0.0
C582 C 0.60788 0.86521 0.5066 0.0
C583 C 0.64122 0.89892 0.51635 0.0
C584 C 0.60895 0.82026 0.51094 0.0
C585 C 0.67681 0.88681 0.52938 0.0
C586 C 0.6782 0.84239 0.53362 0.0
C587 C 0.64297 0.76481 0.53129 0.0
C588 C 0.60706 0.73168 0.52414 0.0
C589 C 0.64397 0.80899 0.52499 0.0
C590 C 0.57363 0.74247 0.50909 0.0
C591 C 0.57465 0.78644 0.50244 0.0
H592 H 0.84782 0.39204 0.81689 0.0
H593 H 0.84451 0.51596 0.7835 0.0
H594 H 0.92011 0.52195 0.77661 0.0
H595 H 0.99007 0.50507 0.79161 0.0
H596 H 0.99512 0.38417 0.82754 0.0
H597 H 0.91606 0.363 0.8212 0.0
C598 C 0.86327 0.41934 0.8073 0.0
C599 C 0.84132 0.45425 0.80142 0.0
C600 C 0.90741 0.42357 0.80428 0.0
C601 C 0.86097 0.48893 0.78849 0.0
C602 C 0.90445 0.49264 0.78475 0.0
C603 C 0.97428 0.47292 0.79702 0.0
C604 C 0.99808 0.44729 0.81104 0.0
C605 C 0.92876 0.46211 0.79426 0.0
C606 C 0.97715 0.40525 0.8174 0.0
C607 C 0.93188 0.39335 0.81399 0.0
H608 H 0.30355 0.82472 0.14476 0.0
H609 H 0.23674 0.8973 0.18607 0.0
H610 H 0.30397 0.95025 0.19611 0.0
H611 H 0.3826 0.97251 0.19556 0.0
H612 H 0.45083 0.89982 0.15525 0.0
H613 H 0.3821 0.85067 0.14206 0.0
C614 C 0.3038 0.85222 0.15591 0.0
C615 C 0.26529 0.85693 0.16478 0.0
C616 C 0.34272 0.88249 0.16173 0.0
C617 C 0.26584 0.89311 0.17891 0.0
C618 C 0.3043 0.92328 0.18475 0.0
C619 C 0.38228 0.94615 0.1837 0.0
C620 C 0.42157 0.93938 0.17652 0.0
C621 C 0.34301 0.91783 0.17657 0.0
C622 C 0.42085 0.90565 0.16092 0.0
C623 C 0.38167 0.87738 0.15356 0.0
H624 H 0.5519 0.15765 0.51927 0.0
H625 H 0.68382 0.19264 0.50247 0.0
H626 H 0.67976 0.27101 0.5037 0.0
H627 H 0.6406 0.33035 0.51247 0.0
H628 H 0.50956 0.29495 0.53003 0.0
H629 H 0.51107 0.21639 0.52514 0.0
C630 C 0.57972 0.18233 0.51574 0.0
C631 C 0.61829 0.16901 0.51111 0.0
C632 C 0.57722 0.22753 0.51648 0.0
C633 C 0.65381 0.20169 0.50636 0.0
C634 C 0.65152 0.24669 0.50699 0.0
C635 C 0.6121 0.30537 0.51464 0.0
C636 C 0.57496 0.31827 0.52149 0.0
C637 C 0.61363 0.26009 0.51237 0.0
C638 C 0.53842 0.28566 0.52466 0.0
C639 C 0.53939 0.24077 0.52202 0.0
H640 H 0.42406 0.68704 0.8504 0.0
H641 H 0.35451 0.6774 0.78494 0.0
H642 H 0.30899 0.72817 0.796 0.0
H643 H 0.27599 0.7546 0.82677 0.0
H644 H 0.33483 0.74419 0.89378 0.0
H645 H 0.3992 0.72713 0.87983 0.0
C646 C 0.40019 0.69779 0.83836 0.0
C647 C 0.39208 0.67854 0.81703 0.0
C648 C 0.37188 0.7237 0.8454 0.0
C649 C 0.36094 0.69193 0.80148 0.0
C650 C 0.33482 0.72068 0.80788 0.0
C651 C 0.30337 0.74955 0.83832 0.0
C652 C 0.29893 0.74721 0.86124 0.0
C653 C 0.33781 0.73374 0.83024 0.0
C654 C 0.33605 0.74443 0.876 0.0
C655 C 0.37284 0.73366 0.86801 0.0
H656 H 0.89553 0.27141 0.16259 0.0
H657 H 0.87942 0.37603 0.20637 0.0
H658 H 0.81948 0.32691 0.22127 0.0
H659 H 0.77315 0.25382 0.22285 0.0
H660 H 0.78708 0.14925 0.17873 0.0
H661 H 0.84548 0.19924 0.16244 0.0
C662 C 0.87854 0.2837 0.17516 0.0
C663 C 0.89253 0.32727 0.18355 0.0
C664 C 0.84359 0.25536 0.18352 0.0
C665 C 0.8702 0.34239 0.19998 0.0
C666 C 0.83563 0.31443 0.20841 0.0
C667 C 0.78899 0.24203 0.20964 0.0
C668 C 0.77629 0.19789 0.20214 0.0
C669 C 0.82244 0.27077 0.20051 0.0
C670 C 0.79634 0.18317 0.18473 0.0
C671 C 0.82985 0.21165 0.17553 0.0
H672 H 1.08337 0.52181 0.0807 0.0
H673 H 1.05306 0.65314 0.08039 0.0
H674 H 1.05888 0.65813 0.04053 0.0
H675 H 1.07353 0.62542 0.00575 0.0
H676 H 0.10254 0.49372 0.00623 0.0
H677 H 0.09636 0.48867 0.04606 0.0
C678 C 1.0779 0.5515 0.07193 0.0
C679 C 1.06789 0.58705 0.08353 0.0
C680 C 1.08124 0.55415 0.04905 0.0
C681 C 1.06069 0.6252 0.07186 0.0
C682 C 1.06417 0.62818 0.04908 0.0
C683 C 1.07873 0.5958 0.01467 0.0
C684 C 0.08853 0.56004 0.00318 0.0
C685 C 1.0747 0.59297 0.03752 0.0
C686 C 0.09467 0.52154 0.01477 0.0
C687 C 0.09123 0.51867 0.03751 0.0
H688 H 0.5676 0.05361 0.43841 0.0
H689 H 0.69982 0.03145 0.44496 0.0
H690 H 0.69931 0.0319 0.40457 0.0
H691 H 0.66016 0.03598 0.36733 0.0
H692 H 0.5277 0.05704 0.36133 0.0
H693 H 0.52946 0.05952 0.40167 0.0
C694 C 0.59646 0.04908 0.43108 0.0
C695 C 0.63364 0.0424 0.44471 0.0
C696 C 0.59582 0.04899 0.40794 0.0
C697 C 0.67068 0.03653 0.43485 0.0
C698 C 0.67043 0.03678 0.41176 0.0
C699 C 0.6319 0.04155 0.37491 0.0
C700 C 0.59379 0.04607 0.36144 0.0
C701 C 0.63304 0.04265 0.39814 0.0
C702 C 0.55721 0.05287 0.3714 0.0
C703 C 0.55824 0.05446 0.39444 0.0
H704 H 0.54558 0.55187 0.76759 0.0
H705 H 0.64158 0.46787 0.77731 0.0
H706 H 0.64104 0.46034 0.73729 0.0
H707 H 0.61251 0.47634 0.69952 0.0
H708 H 0.51717 0.56064 0.68942 0.0
H709 H 0.51841 0.56955 0.72963 0.0
C710 C 0.56652 0.53208 0.76095 0.0
C711 C 0.59341 0.51033 0.77543 0.0
C712 C 0.56608 0.52782 0.73787 0.0
C713 C 0.62045 0.48491 0.76656 0.0
C714 C 0.62015 0.48049 0.74366 0.0
C715 C 0.59178 0.49638 0.70616 0.0
C716 C 0.56451 0.51748 0.69163 0.0
C717 C 0.59285 0.50147 0.72918 0.0
C718 C 0.53848 0.54416 0.70036 0.0
C719 C 0.53911 0.54915 0.7233 0.0
H720 H 0.66989 0.08316 0.58934 0.0
H721 H 0.57281 0.96349 0.57962 0.0
H722 H 0.56777 0.95933 0.61956 0.0
H723 H 0.58968 0.99079 0.65721 0.0
H724 H 0.68521 0.11144 0.66659 0.0
H725 H 0.69212 0.11413 0.62678 0.0
C726 C 0.64773 0.05605 0.59593 0.0
C727 C 0.62177 0.02372 0.5815 0.0
C728 C 0.64466 0.05409 0.61885 0.0
C729 C 0.59308 0.98893 0.59035 0.0
C730 C 0.5902 0.98647 0.61319 0.0
C731 C 0.61227 0.01738 0.6505 0.0
C732 C 0.63688 0.05088 0.66472 0.0
C733 C 0.61569 0.01898 0.62758 0.0
C734 C 0.66566 0.08551 0.65588 0.0
C735 C 0.6697 0.087 0.63316 0.0
H736 H 0.50454 0.50465 0.90793 0.0
H737 H 0.64142 0.5009 0.91991 0.0
H738 H 0.63723 0.50091 0.9599 0.0
H739 H 0.59554 0.50453 0.9913 0.0
H740 H 0.4602 0.51554 0.97968 0.0
H741 H 0.46264 0.50886 0.93973 0.0
C742 C 0.53328 0.5034 0.91934 0.0
C743 C 0.5732 0.50278 0.91107 0.0
C744 C 0.53091 0.50463 0.94234 0.0
C745 C 0.61037 0.50168 0.92595 0.0
C746 C 0.608 0.50162 0.94879 0.0
C747 C 0.56662 0.50603 0.98009 0.0
C748 C 0.52785 0.51087 0.98858 0.0
C749 C 0.5686 0.50372 0.95715 0.0
C750 C 0.49042 0.51135 0.9737 0.0
C751 C 0.49184 0.5079 0.95081 0.0
H752 H 1.06679 0.51804 0.22392 0.0
H753 H 0.12122 0.65791 0.22475 0.0
H754 H 0.13496 0.65712 0.2652 0.0
H755 H 0.13157 0.61678 0.30018 0.0
H756 H 1.08156 0.47587 0.29908 0.0
H757 H 1.06516 0.47731 0.25887 0.0
C758 C 1.08145 0.54842 0.23295 0.0
C759 C 0.09283 0.58801 0.22136 0.0
C760 C 0.08988 0.54761 0.25614 0.0
C761 C 0.11225 0.62697 0.23328 0.0
C762 C 0.12006 0.62657 0.2564 0.0
C763 C 0.11762 0.58621 0.29117 0.0
C764 C 0.10783 0.5463 0.30275 0.0
C765 C 0.10919 0.58703 0.26798 0.0
C766 C 0.08884 0.50725 0.29073 0.0
C767 C 1.07972 0.50794 0.26768 0.0
loop_
_geom_bond_atom_site_label_1
_geom_bond_atom_site_label_2
_geom_bond_distance
_geom_bond_site_symmetry_2
_ccdc_geom_bond_type
Dy0 O3 2.307 1_455 S
Dy0 O5 2.395 . S
Dy0 O6 2.379 . S
Dy0 O8 2.339 . S
Dy0 O10 2.298 . S
Dy0 O14 2.275 . S
Dy0 C22 2.738 . S
Dy1 O4 2.298 . S
Dy1 O7 2.275 1_655 S
Dy1 O9 2.307 1_655 S
Dy1 O11 2.395 . S
Dy1 O12 2.379 . S
Dy1 O15 2.339 . S
Dy1 C31 2.738 . S
C2 O14 1.254 . S
C2 O15 1.257 1_455 S
O3 Dy0 2.307 1_655 S
O3 C13 1.266 . S
O4 Dy1 2.298 . S
O4 C13 1.236 . S
O5 Dy0 2.395 . S
O5 C22 1.255 . S
O6 Dy0 2.379 . S
O6 C22 1.249 . S
O7 Dy1 2.275 1_455 S
O7 C23 1.254 . S
O8 Dy0 2.339 . S
O8 C23 1.257 . S
O9 Dy1 2.307 1_455 S
O9 C24 1.266 . S
O10 Dy0 2.298 . S
O10 C24 1.236 . S
O11 Dy1 2.395 . S
O11 C31 1.255 . S
O12 Dy1 2.379 . S
O12 C31 1.249 . S
C13 O3 1.266 . S
C13 O4 1.236 . S
O14 Dy0 2.275 . S
O14 C2 1.254 . S
O15 Dy1 2.339 . S
O15 C2 1.257 1_655 S
C16 C19 1.344 . S
C16 C20 1.328 . S
C16 C22 1.516 . S
C17 C18 1.304 . S
C17 C21 1.323 . S
C18 C17 1.304 . S
C18 C19 1.371 . S
C18 H32 0.930 . S
C19 C16 1.344 . S
C19 C18 1.371 . S
C19 H33 0.931 . S
C20 C16 1.328 . S
C20 C21 1.433 . S
C20 H34 0.931 . S
C21 C17 1.323 . S
C21 C20 1.433 . S
C21 H35 0.933 . S
C22 Dy0 2.738 . S
C22 O5 1.255 . S
C22 O6 1.249 . S
C22 C16 1.516 . S
C23 O7 1.254 . S
C23 O8 1.257 . S
C24 O9 1.266 . S
C24 O10 1.236 . S
C25 C28 1.344 . S
C25 C29 1.328 . S
C25 C31 1.516 . S
C26 C27 1.304 . S
C26 C30 1.323 . S
C27 C26 1.304 . S
C27 C28 1.371 . S
C27 H36 0.930 . S
C28 C25 1.344 . S
C28 C27 1.371 . S
C28 H37 0.931 . S
C29 C25 1.328 . S
C29 C30 1.433 . S
C29 H38 0.931 . S
C30 C26 1.323 . S
C30 C29 1.433 . S
C30 H39 0.933 . S
C31 Dy1 2.738 . S
C31 O11 1.255 . S
C31 O12 1.249 . S
C31 C25 1.516 . S
H32 C18 0.930 . S
H33 C19 0.931 . S
H34 C20 0.931 . S
H35 C21 0.933 . S
H36 C27 0.930 . S
H37 C28 0.931 . S
H38 C29 0.931 . S
H39 C30 0.933 . S
Dy40 O43 2.318 . S
Dy40 O45 2.388 1_545 S
Dy40 O46 2.372 1_545 S
Dy40 O48 2.339 . S
Dy40 O50 2.287 1_545 S
Dy40 O54 2.275 . S
Dy40 C62 2.731 1_545 S
Dy41 O44 2.298 . S
Dy41 O47 2.275 . S
Dy41 O49 2.307 1_545 S
Dy41 O51 2.395 . S
Dy41 O52 2.379 . S
Dy41 O55 2.339 . S
Dy41 C71 2.738 . S
C42 O54 1.254 . S
C42 O55 1.257 . S
O43 Dy40 2.318 . S
O43 C53 1.266 . S
O44 Dy41 2.298 . S
O44 C53 1.236 . S
O45 Dy40 2.388 1_565 S
O45 C62 1.255 . S
O46 Dy40 2.372 1_565 S
O46 C62 1.249 . S
O47 Dy41 2.275 . S
O47 C63 1.254 . S
O48 Dy40 2.339 . S
O48 C63 1.257 . S
O49 Dy41 2.307 1_565 S
O49 C64 1.266 . S
O50 Dy40 2.287 1_565 S
O50 C64 1.236 . S
O51 Dy41 2.395 . S
O51 C71 1.255 . S
O52 Dy41 2.379 . S
O52 C71 1.249 . S
C53 O43 1.266 . S
C53 O44 1.236 . S
O54 Dy40 2.275 . S
O54 C42 1.254 . S
O55 Dy41 2.339 . S
O55 C42 1.257 . S
C56 C59 1.344 . S
C56 C60 1.328 . S
C56 C62 1.516 . S
C57 C58 1.304 . S
C57 C61 1.323 . S
C58 C57 1.304 . S
C58 C59 1.371 . S
C58 H72 0.930 . S
C59 C56 1.344 . S
C59 C58 1.371 . S
C59 H73 0.931 . S
C60 C56 1.328 . S
C60 C61 1.433 . S
C60 H74 0.931 . S
C61 C57 1.323 . S
C61 C60 1.433 . S
C61 H75 0.933 . S
C62 Dy40 2.731 1_565 S
C62 O45 1.255 . S
C62 O46 1.249 . S
C62 C56 1.516 . S
C63 O47 1.254 . S
C63 O48 1.257 . S
C64 O49 1.266 . S
C64 O50 1.236 . S
C65 C68 1.344 . S
C65 C69 1.328 . S
C65 C71 1.516 . S
C66 C67 1.304 . S
C66 C70 1.323 . S
C67 C66 1.304 . S
C67 C68 1.371 . S
C67 H76 0.930 . S
C68 C65 1.344 . S
C68 C67 1.371 . S
C68 H77 0.931 . S
C69 C65 1.328 . S
C69 C70 1.433 . S
C69 H78 0.931 . S
C70 C66 1.323 . S
C70 C69 1.433 . S
C70 H79 0.933 . S
C71 Dy41 2.738 . S
C71 O51 1.255 . S
C71 O52 1.249 . S
C71 C65 1.516 . S
H72 C58 0.930 . S
H73 C59 0.931 . S
H74 C60 0.931 . S
H75 C61 0.933 . S
H76 C67 0.930 . S
H77 C68 0.931 . S
H78 C69 0.931 . S
H79 C70 0.933 . S
Dy80 O83 2.307 . S
Dy80 O85 2.395 . S
Dy80 O86 2.379 . S
Dy80 O88 2.339 . S
Dy80 O90 2.298 . S
Dy80 O94 2.275 . S
Dy80 C102 2.738 . S
Dy81 O84 2.298 . S
Dy81 O87 2.275 . S
Dy81 O89 2.307 . S
Dy81 O91 2.395 . S
Dy81 O92 2.379 . S
Dy81 O95 2.339 . S
Dy81 C111 2.738 . S
C82 O94 1.254 . S
C82 O95 1.257 . S
O83 Dy80 2.307 . S
O83 C93 1.266 . S
O84 Dy81 2.298 . S
O84 C93 1.236 . S
O85 Dy80 2.395 . S
O85 C102 1.255 . S
O86 Dy80 2.379 . S
O86 C102 1.249 . S
O87 Dy81 2.275 . S
O87 C103 1.254 . S
O88 Dy80 2.339 . S
O88 C103 1.257 . S
O89 Dy81 2.307 . S
O89 C104 1.266 . S
O90 Dy80 2.298 . S
O90 C104 1.236 . S
O91 Dy81 2.395 . S
O91 C111 1.255 . S
O92 Dy81 2.379 . S
O92 C111 1.249 . S
C93 O83 1.266 . S
C93 O84 1.236 . S
O94 Dy80 2.275 . S
O94 C82 1.254 . S
O95 Dy81 2.339 . S
O95 C82 1.257 . S
C96 C99 1.344 . S
C96 C100 1.328 . S
C96 C102 1.516 . S
C97 C98 1.304 . S
C97 C101 1.323 . S
C98 C97 1.304 . S
C98 C99 1.371 . S
C98 H112 0.930 . S
C99 C96 1.344 . S
C99 C98 1.371 . S
C99 H113 0.931 . S
C100 C96 1.328 . S
C100 C101 1.433 . S
C100 H114 0.931 . S
C101 C97 1.323 . S
C101 C100 1.433 . S
C101 H115 0.933 . S
C102 Dy80 2.738 . S
C102 O85 1.255 . S
C102 O86 1.249 . S
C102 C96 1.516 . S
C103 O87 1.254 . S
C103 O88 1.257 . S
C104 O89 1.266 . S
C104 O90 1.236 . S
C105 C108 1.344 . S
C105 C109 1.328 . S
C105 C111 1.516 . S
C106 C107 1.304 . S
C106 C110 1.323 . S
C107 C106 1.304 . S
C107 C108 1.371 . S
C107 H116 0.930 . S
C108 C105 1.344 . S
C108 C107 1.371 . S
C108 H117 0.931 . S
C109 C105 1.328 . S
C109 C110 1.433 . S
C109 H118 0.931 . S
C110 C106 1.323 . S
C110 C109 1.433 . S
C110 H119 0.933 . S
C111 Dy81 2.738 . S
C111 O91 1.255 . S
C111 O92 1.249 . S
C111 C105 1.516 . S
H112 C98 0.930 . S
H113 C99 0.931 . S
H114 C100 0.931 . S
H115 C101 0.933 . S
H116 C107 0.930 . S
H117 C108 0.931 . S
H118 C109 0.931 . S
H119 C110 0.933 . S
C120 C121 1.391 . S
C120 C124 1.391 . S
C120 H162 0.948 . S
C121 C120 1.391 . S
C121 C122 1.391 . S
C122 C121 1.391 . S
C122 H178 0.947 . S
C122 C179 1.392 . S
C123 C124 1.391 . S
C123 C127 1.397 . S
C123 C179 1.419 . S
C124 C120 1.391 . S
C124 C123 1.391 . S
C124 C125 1.399 . S
C125 C124 1.399 . S
C125 C128 1.396 . S
C125 C137 1.453 . S
C125 C138 1.684 . S
H126 C150 0.948 . S
C127 C123 1.397 . S
C127 C128 1.394 . S
C127 C146 1.723 . S
C128 C125 1.396 . S
C128 C127 1.394 . S
C128 C158 1.723 . S
H129 C152 0.947 . S
H130 C153 0.940 1_545 S
H131 C159 0.982 . S
H132 C160 0.979 1_545 S
H133 C160 0.980 . S
H134 C160 0.983 . S
H135 C159 0.979 . S
H136 C159 0.977 . S
C137 C125 1.453 . S
C137 H166 0.982 . S
C137 H167 0.979 . S
C137 H168 0.977 . S
C138 C125 1.684 . S
C138 H163 0.979 . S
C138 H164 0.980 . S
C138 H165 0.983 . S
C139 C140 1.391 . S
C139 C144 1.391 . S
C139 H169 0.948 . S
C140 C139 1.391 . S
C140 C141 1.391 . S
C141 C140 1.391 . S
C141 C142 1.392 . S
C141 H170 0.940 1_545 S
C142 C141 1.392 . S
C142 C143 1.419 . S
C142 H171 0.948 1_545 S
C143 C142 1.419 . S
C143 C144 1.391 . S
C143 C147 1.397 . S
C144 C139 1.391 . S
C144 C143 1.391 . S
C144 C145 1.399 . S
C145 C144 1.399 . S
C145 C146 1.396 . S
C145 C148 1.453 . S
C145 C149 1.684 . S
C146 C127 1.723 . S
C146 C145 1.396 . S
C146 C147 1.394 . S
C147 C143 1.397 . S
C147 C146 1.394 . S
C147 C157 1.723 . S
C148 C145 1.453 . S
C148 H172 0.982 . S
C148 H173 0.979 . S
C148 H174 0.977 . S
C149 C145 1.684 . S
C149 H175 0.979 . S
C149 H176 0.980 . S
C149 H177 0.983 . S
C150 H126 0.948 . S
C150 C151 1.391 . S
C150 C155 1.391 . S
C151 C150 1.391 . S
C151 C152 1.391 . S
C152 H129 0.947 . S
C152 C151 1.391 . S
C152 C153 1.399 . S
C153 H130 0.940 1_565 S
C153 C152 1.399 . S
C153 C154 1.419 . S
C154 C153 1.419 . S
C154 C155 1.393 . S
C154 C158 1.395 1_565 S
C155 C150 1.391 . S
C155 C154 1.393 . S
C155 C156 1.399 . S
C156 C155 1.399 . S
C156 C157 1.396 1_565 S
C156 C159 1.453 . S
C156 C160 1.684 . S
C157 C147 1.723 . S
C157 C156 1.396 1_545 S
C157 C158 1.394 . S
C158 C128 1.723 . S
C158 C154 1.395 1_545 S
C158 C157 1.394 . S
C159 H131 0.982 . S
C159 H135 0.979 . S
C159 H136 0.977 . S
C159 C156 1.453 . S
C160 H132 0.979 1_565 S
C160 H133 0.980 . S
C160 H134 0.983 . S
C160 C156 1.684 . S
H161 C179 0.948 . S
H162 C120 0.948 . S
H163 C138 0.979 . S
H164 C138 0.980 . S
H165 C138 0.983 . S
H166 C137 0.982 . S
H167 C137 0.979 . S
H168 C137 0.977 . S
H169 C139 0.948 . S
H170 C141 0.940 1_565 S
H171 C142 0.948 1_565 S
H172 C148 0.982 . S
H173 C148 0.979 . S
H174 C148 0.977 . S
H175 C149 0.979 . S
H176 C149 0.980 . S
H177 C149 0.983 . S
H178 C122 0.947 . S
C179 C122 1.392 . S
C179 C123 1.419 . S
C179 H161 0.948 . S
C180 C181 1.391 . S
C180 C184 1.391 . S
C180 H222 0.948 . S
C181 C180 1.391 . S
C181 C182 1.391 . S
C182 C181 1.391 . S
C182 H238 0.947 . S
C182 C239 1.392 . S
C183 C184 1.391 . S
C183 C187 1.397 . S
C183 C239 1.419 . S
C184 C180 1.391 . S
C184 C183 1.391 . S
C184 C185 1.399 . S
C185 C184 1.399 . S
C185 C188 1.396 . S
C185 C197 1.453 . S
C185 C198 1.684 . S
H186 C210 0.948 . S
C187 C183 1.397 . S
C187 C188 1.394 . S
C187 C206 1.723 . S
C188 C185 1.396 . S
C188 C187 1.394 . S
C188 C218 1.723 . S
H189 C212 0.947 . S
H190 C213 0.948 . S
H191 C219 0.982 . S
H192 C220 0.979 . S
H193 C220 0.980 . S
H194 C220 0.983 . S
H195 C219 0.979 . S
H196 C219 0.977 . S
C197 C185 1.453 . S
C197 H226 0.982 . S
C197 H227 0.979 . S
C197 H228 0.977 . S
C198 C185 1.684 . S
C198 H223 0.979 . S
C198 H224 0.980 . S
C198 H225 0.983 . S
C199 C200 1.391 . S
C199 C204 1.391 . S
C199 H229 0.948 . S
C200 C199 1.391 . S
C200 C201 1.391 . S
C201 C200 1.391 . S
C201 C202 1.392 . S
C201 H230 0.947 . S
C202 C201 1.392 . S
C202 C203 1.419 . S
C202 H231 0.948 . S
C203 C202 1.419 . S
C203 C204 1.391 . S
C203 C207 1.397 . S
C204 C199 1.391 . S
C204 C203 1.391 . S
C204 C205 1.399 . S
C205 C204 1.399 . S
C205 C206 1.396 . S
C205 C208 1.453 . S
C205 C209 1.684 . S
C206 C187 1.723 . S
C206 C205 1.396 . S
C206 C207 1.394 . S
C207 C203 1.397 . S
C207 C206 1.394 . S
C207 C217 1.723 . S
C208 C205 1.453 . S
C208 H232 0.982 . S
C208 H233 0.979 . S
C208 H234 0.977 . S
C209 C205 1.684 . S
C209 H235 0.979 . S
C209 H236 0.980 . S
C209 H237 0.983 . S
C210 H186 0.948 . S
C210 C211 1.391 . S
C210 C215 1.391 . S
C211 C210 1.391 . S
C211 C212 1.391 . S
C212 H189 0.947 . S
C212 C211 1.391 . S
C212 C213 1.392 . S
C213 H190 0.948 . S
C213 C212 1.392 . S
C213 C214 1.419 . S
C214 C213 1.419 . S
C214 C215 1.391 . S
C214 C218 1.397 . S
C215 C210 1.391 . S
C215 C214 1.391 . S
C215 C216 1.399 . S
C216 C215 1.399 . S
C216 C217 1.396 . S
C216 C219 1.453 . S
C216 C220 1.684 . S
C217 C207 1.723 . S
C217 C216 1.396 . S
C217 C218 1.394 . S
C218 C188 1.723 . S
C218 C214 1.397 . S
C218 C217 1.394 . S
C219 H191 0.982 . S
C219 H195 0.979 . S
C219 H196 0.977 . S
C219 C216 1.453 . S
C220 H192 0.979 . S
C220 H193 0.980 . S
C220 H194 0.983 . S
C220 C216 1.684 . S
H221 C239 0.948 . S
H222 C180 0.948 . S
H223 C198 0.979 . S
H224 C198 0.980 . S
H225 C198 0.983 . S
H226 C197 0.982 . S
H227 C197 0.979 . S
H228 C197 0.977 . S
H229 C199 0.948 . S
H230 C201 0.947 . S
H231 C202 0.948 . S
H232 C208 0.982 . S
H233 C208 0.979 . S
H234 C208 0.977 . S
H235 C209 0.979 . S
H236 C209 0.980 . S
H237 C209 0.983 . S
H238 C182 0.947 . S
C239 C182 1.392 . S
C239 C183 1.419 . S
C239 H221 0.948 . S
C240 C241 1.391 . S
C240 C244 1.391 . S
C240 H282 0.948 . S
C241 C240 1.391 . S
C241 C242 1.391 . S
C242 C241 1.391 . S
C242 H298 0.947 . S
C242 C299 1.392 . S
C243 C244 1.391 . S
C243 C247 1.397 . S
C243 C299 1.419 . S
C244 C240 1.391 . S
C244 C243 1.391 . S
C244 C245 1.399 . S
C245 C244 1.399 . S
C245 C248 1.396 . S
C245 C257 1.453 . S
C245 C258 1.684 . S
H246 C270 0.948 . S
C247 C243 1.397 . S
C247 C248 1.394 . S
C247 C266 1.723 . S
C248 C245 1.396 . S
C248 C247 1.394 . S
C248 C278 1.723 1_455 S
H249 C272 0.947 . S
H250 C273 0.948 . S
H251 C279 0.982 . S
H252 C280 0.979 . S
H253 C280 0.980 . S
H254 C280 0.983 . S
H255 C279 0.979 . S
H256 C279 0.977 . S
C257 C245 1.453 . S
C257 H286 0.982 . S
C257 H287 0.979 . S
C257 H288 0.977 1_455 S
C258 C245 1.684 . S
C258 H283 0.979 . S
C258 H284 0.980 . S
C258 H285 0.983 . S
C259 C260 1.391 1_556 S
C259 C264 1.391 . S
C259 H289 0.931 1_556 S
C260 C259 1.391 1_554 S
C260 C261 1.391 1_454 S
C261 C260 1.391 1_656 S
C261 C262 1.392 . S
C261 H290 0.947 1_556 S
C262 C261 1.392 . S
C262 C263 1.419 1_655 S
C262 H291 0.948 . S
C263 C262 1.419 1_455 S
C263 C264 1.391 . S
C263 C267 1.397 . S
C264 C259 1.391 . S
C264 C263 1.391 . S
C264 C265 1.399 . S
C265 C264 1.399 . S
C265 C266 1.396 . S
C265 C268 1.453 . S
C265 C269 1.684 . S
C266 C247 1.723 . S
C266 C265 1.396 . S
C266 C267 1.394 . S
C267 C263 1.397 . S
C267 C266 1.394 . S
C267 C277 1.723 1_455 S
C268 C265 1.453 . S
C268 H292 0.982 . S
C268 H293 0.979 . S
C268 H294 0.977 . S
C269 C265 1.684 . S
C269 H295 0.979 . S
C269 H296 0.980 . S
C269 H297 0.983 . S
C270 H246 0.948 . S
C270 C271 1.391 . S
C270 C275 1.391 . S
C271 C270 1.391 . S
C271 C272 1.391 . S
C272 H249 0.947 . S
C272 C271 1.391 . S
C272 C273 1.392 . S
C273 H250 0.948 . S
C273 C272 1.392 . S
C273 C274 1.419 . S
C274 C273 1.419 . S
C274 C275 1.391 . S
C274 C278 1.397 . S
C275 C270 1.391 . S
C275 C274 1.391 . S
C275 C276 1.399 . S
C276 C275 1.399 . S
C276 C277 1.396 . S
C276 C279 1.453 . S
C276 C280 1.684 . S
C277 C267 1.723 1_655 S
C277 C276 1.396 . S
C277 C278 1.394 . S
C278 C248 1.723 1_655 S
C278 C274 1.397 . S
C278 C277 1.394 . S
C279 H251 0.982 . S
C279 H255 0.979 . S
C279 H256 0.977 . S
C279 C276 1.453 . S
C280 H252 0.979 . S
C280 H253 0.980 . S
C280 H254 0.983 . S
C280 C276 1.684 . S
H281 C299 0.948 . S
H282 C240 0.948 . S
H283 C258 0.979 . S
H284 C258 0.980 . S
H285 C258 0.983 . S
H286 C257 0.982 . S
H287 C257 0.979 . S
H288 C257 0.977 1_655 S
H289 C259 0.931 1_554 S
H290 C261 0.947 1_554 S
H291 C262 0.948 . S
H292 C268 0.982 . S
H293 C268 0.979 . S
H294 C268 0.977 . S
H295 C269 0.979 . S
H296 C269 0.980 . S
H297 C269 0.983 . S
H298 C242 0.947 . S
C299 C242 1.392 . S
C299 C243 1.419 . S
C299 H281 0.948 . S
C300 C301 1.391 . S
C300 C304 1.391 . S
C300 H342 0.948 . S
C301 C300 1.391 . S
C301 C302 1.391 . S
C302 C301 1.391 . S
C302 H358 0.947 . S
C302 C359 1.392 . S
C303 C304 1.391 . S
C303 C307 1.397 . S
C303 C359 1.419 . S
C304 C300 1.391 . S
C304 C303 1.391 . S
C304 C305 1.399 . S
C305 C304 1.399 . S
C305 C308 1.396 1_655 S
C305 C317 1.453 1_655 S
C305 C318 1.684 . S
H306 C330 0.948 . S
C307 C303 1.397 . S
C307 C308 1.394 1_655 S
C307 C326 1.723 . S
C308 C305 1.396 1_455 S
C308 C307 1.394 1_455 S
C308 C338 1.723 . S
H309 C332 0.947 . S
H310 C333 0.948 . S
H311 C339 0.982 . S
H312 C340 0.979 . S
H313 C340 0.980 . S
H314 C340 0.983 . S
H315 C339 0.979 . S
H316 C339 0.977 . S
C317 C305 1.453 1_455 S
C317 H346 0.982 . S
C317 H347 0.979 . S
C317 H348 0.977 . S
C318 C305 1.684 . S
C318 H343 0.979 . S
C318 H344 0.980 1_655 S
C318 H345 0.983 . S
C319 C320 1.391 . S
C319 C324 1.391 . S
C319 H349 0.948 . S
C320 C319 1.391 . S
C320 C321 1.391 1_655 S
C321 C320 1.391 1_455 S
C321 C322 1.392 . S
C321 H350 0.947 . S
C322 C321 1.392 . S
C322 C323 1.419 . S
C322 H351 0.948 . S
C323 C322 1.419 . S
C323 C324 1.391 1_455 S
C323 C327 1.397 . S
C324 C319 1.391 . S
C324 C323 1.391 1_655 S
C324 C325 1.399 . S
C325 C324 1.399 . S
C325 C326 1.396 . S
C325 C328 1.453 . S
C325 C329 1.684 . S
C326 C307 1.723 . S
C326 C325 1.396 . S
C326 C327 1.394 1_655 S
C327 C323 1.397 . S
C327 C326 1.394 1_455 S
C327 C337 1.723 . S
C328 C325 1.453 . S
C328 H352 0.982 . S
C328 H353 0.979 . S
C328 H354 0.977 . S
C329 C325 1.684 . S
C329 H355 0.979 . S
C329 H356 0.980 . S
C329 H357 0.983 . S
C330 H306 0.948 . S
C330 C331 1.391 . S
C330 C335 1.391 . S
C331 C330 1.391 . S
C331 C332 1.391 . S
C332 H309 0.947 . S
C332 C331 1.391 . S
C332 C333 1.392 . S
C333 H310 0.948 . S
C333 C332 1.392 . S
C333 C334 1.419 . S
C334 C333 1.419 . S
C334 C335 1.391 . S
C334 C338 1.397 . S
C335 C330 1.391 . S
C335 C334 1.391 . S
C335 C336 1.399 . S
C336 C335 1.399 . S
C336 C337 1.396 . S
C336 C339 1.453 . S
C336 C340 1.684 . S
C337 C327 1.723 . S
C337 C336 1.396 . S
C337 C338 1.394 . S
C338 C308 1.723 . S
C338 C334 1.397 . S
C338 C337 1.394 . S
C339 H311 0.982 . S
C339 H315 0.979 . S
C339 H316 0.977 . S
C339 C336 1.453 . S
C340 H312 0.979 . S
C340 H313 0.980 . S
C340 H314 0.983 . S
C340 C336 1.684 . S
H341 C359 0.948 . S
H342 C300 0.948 . S
H343 C318 0.979 . S
H344 C318 0.980 1_455 S
H345 C318 0.983 . S
H346 C317 0.982 . S
H347 C317 0.979 . S
H348 C317 0.977 . S
H349 C319 0.948 . S
H350 C321 0.947 . S
H351 C322 0.948 . S
H352 C328 0.982 . S
H353 C328 0.979 . S
H354 C328 0.977 . S
H355 C329 0.979 . S
H356 C329 0.980 . S
H357 C329 0.983 . S
H358 C302 0.947 . S
C359 C302 1.392 . S
C359 C303 1.419 . S
C359 H341 0.948 . S
C360 C361 1.391 . S
C360 C364 1.391 . S
C360 H402 0.948 . S
C361 C360 1.391 . S
C361 C362 1.391 . S
C362 C361 1.391 . S
C362 H418 0.947 . S
C362 C419 1.392 . S
C363 C364 1.391 . S
C363 C367 1.397 . S
C363 C419 1.419 . S
C364 C360 1.391 . S
C364 C363 1.391 . S
C364 C365 1.399 . S
C365 C364 1.399 . S
C365 C368 1.396 . S
C365 C377 1.453 . S
C365 C378 1.684 . S
H366 C390 0.948 . S
C367 C363 1.397 . S
C367 C368 1.394 . S
C367 C386 1.723 . S
C368 C365 1.396 . S
C368 C367 1.394 . S
C368 C398 1.723 1_565 S
H369 C392 0.947 . S
H370 C393 0.948 . S
H371 C399 0.982 . S
H372 C400 0.979 . S
H373 C400 0.980 . S
H374 C400 0.983 . S
H375 C399 0.979 . S
H376 C399 0.977 . S
C377 C365 1.453 . S
C377 H406 0.982 . S
C377 H407 0.979 . S
C377 H408 0.977 1_565 S
C378 C365 1.684 . S
C378 H403 0.979 . S
C378 H404 0.997 . S
C378 H405 0.983 . S
C379 C380 1.391 1_565 S
C379 C384 1.391 . S
C379 H409 0.948 . S
C380 C379 1.391 1_545 S
C380 C381 1.391 . S
C381 C380 1.391 . S
C381 C382 1.392 . S
C381 H410 0.947 . S
C382 C381 1.392 . S
C382 C383 1.419 . S
C382 H411 0.948 . S
C383 C382 1.419 . S
C383 C384 1.391 1_545 S
C383 C387 1.397 . S
C384 C379 1.391 . S
C384 C383 1.391 1_565 S
C384 C385 1.399 . S
C385 C384 1.399 . S
C385 C386 1.396 . S
C385 C388 1.453 . S
C385 C389 1.684 . S
C386 C367 1.723 . S
C386 C385 1.396 . S
C386 C387 1.394 1_565 S
C387 C383 1.397 . S
C387 C386 1.394 1_545 S
C387 C397 1.723 . S
C388 C385 1.453 . S
C388 H412 0.982 . S
C388 H413 0.979 . S
C388 H414 0.977 . S
C389 C385 1.684 . S
C389 H415 0.979 . S
C389 H416 0.980 . S
C389 H417 0.983 . S
C390 H366 0.948 . S
C390 C391 1.391 . S
C390 C395 1.391 . S
C391 C390 1.391 . S
C391 C392 1.391 . S
C392 H369 0.947 . S
C392 C391 1.391 . S
C392 C393 1.392 . S
C393 H370 0.948 . S
C393 C392 1.392 . S
C393 C394 1.419 . S
C394 C393 1.419 . S
C394 C395 1.391 . S
C394 C398 1.397 . S
C395 C390 1.391 . S
C395 C394 1.391 . S
C395 C396 1.399 . S
C396 C395 1.399 . S
C396 C397 1.396 . S
C396 C399 1.453 . S
C396 C400 1.684 . S
C397 C387 1.723 . S
C397 C396 1.396 . S
C397 C398 1.394 . S
C398 C368 1.723 1_545 S
C398 C394 1.397 . S
C398 C397 1.394 . S
C399 H371 0.982 . S
C399 H375 0.979 . S
C399 H376 0.977 . S
C399 C396 1.453 . S
C400 H372 0.979 . S
C400 H373 0.980 . S
C400 H374 0.983 . S
C400 C396 1.684 . S
H401 C419 0.948 . S
H402 C360 0.948 . S
H403 C378 0.979 . S
H404 C378 0.997 . S
H405 C378 0.983 . S
H406 C377 0.982 . S
H407 C377 0.979 . S
H408 C377 0.977 1_545 S
H409 C379 0.948 . S
H410 C381 0.947 . S
H411 C382 0.948 . S
H412 C388 0.982 . S
H413 C388 0.979 . S
H414 C388 0.977 . S
H415 C389 0.979 . S
H416 C389 0.980 . S
H417 C389 0.983 . S
H418 C362 0.947 . S
C419 C362 1.392 . S
C419 C363 1.419 . S
C419 H401 0.948 . S
C420 C421 1.391 . S
C420 C424 1.391 . S
C420 H462 0.948 . S
C421 C420 1.391 . S
C421 C422 1.391 . S
C422 C421 1.391 . S
C422 H478 0.947 . S
C422 C479 1.392 . S
C423 C424 1.391 . S
C423 C427 1.397 . S
C423 C479 1.419 . S
C424 C420 1.391 . S
C424 C423 1.391 . S
C424 C425 1.399 . S
C425 C424 1.399 . S
C425 C428 1.396 . S
C425 C437 1.453 . S
C425 C438 1.684 . S
H426 C450 0.948 . S
C427 C423 1.397 . S
C427 C428 1.394 . S
C427 C446 1.723 . S
C428 C425 1.396 . S
C428 C427 1.394 . S
C428 C458 1.723 . S
H429 C452 0.947 . S
H430 C453 0.948 . S
H431 C459 0.982 . S
H432 C460 0.979 . S
H433 C460 0.980 . S
H434 C460 0.983 . S
H435 C459 0.979 . S
H436 C459 0.977 . S
C437 C425 1.453 . S
C437 H466 0.982 . S
C437 H467 0.979 . S
C437 H468 0.977 . S
C438 C425 1.684 . S
C438 H463 0.979 . S
C438 H464 0.980 . S
C438 H465 0.983 . S
C439 C440 1.391 . S
C439 C444 1.391 . S
C439 H469 0.948 . S
C440 C439 1.391 . S
C440 C441 1.391 . S
C441 C440 1.391 . S
C441 C442 1.392 . S
C441 H470 0.947 . S
C442 C441 1.392 . S
C442 C443 1.419 . S
C442 H471 0.948 . S
C443 C442 1.419 . S
C443 C444 1.391 . S
C443 C447 1.397 . S
C444 C439 1.391 . S
C444 C443 1.391 . S
C444 C445 1.399 . S
C445 C444 1.399 . S
C445 C446 1.396 . S
C445 C448 1.453 . S
C445 C449 1.684 . S
C446 C427 1.723 . S
C446 C445 1.396 . S
C446 C447 1.394 . S
C447 C443 1.397 . S
C447 C446 1.394 . S
C447 C457 1.723 . S
C448 C445 1.453 . S
C448 H472 0.982 . S
C448 H473 0.979 . S
C448 H474 0.977 . S
C449 C445 1.684 . S
C449 H475 0.979 . S
C449 H476 0.980 . S
C449 H477 0.983 . S
C450 H426 0.948 . S
C450 C451 1.391 . S
C450 C455 1.391 . S
C451 C450 1.391 . S
C451 C452 1.391 . S
C452 H429 0.947 . S
C452 C451 1.391 . S
C452 C453 1.392 . S
C453 H430 0.948 . S
C453 C452 1.392 . S
C453 C454 1.419 . S
C454 C453 1.419 . S
C454 C455 1.391 . S
C454 C458 1.397 . S
C455 C450 1.391 . S
C455 C454 1.391 . S
C455 C456 1.399 . S
C456 C455 1.399 . S
C456 C457 1.396 . S
C456 C459 1.453 . S
C456 C460 1.684 . S
C457 C447 1.723 . S
C457 C456 1.396 . S
C457 C458 1.394 . S
C458 C428 1.723 . S
C458 C454 1.397 . S
C458 C457 1.394 . S
C459 H431 0.982 . S
C459 H435 0.979 . S
C459 H436 0.977 . S
C459 C456 1.453 . S
C460 H432 0.979 . S
C460 H433 0.980 . S
C460 H434 0.983 . S
C460 C456 1.684 . S
H461 C479 0.948 . S
H462 C420 0.948 . S
H463 C438 0.979 . S
H464 C438 0.980 . S
H465 C438 0.983 . S
H466 C437 0.982 . S
H467 C437 0.979 . S
H468 C437 0.977 . S
H469 C439 0.948 . S
H470 C441 0.947 . S
H471 C442 0.948 . S
H472 C448 0.982 . S
H473 C448 0.979 . S
H474 C448 0.977 . S
H475 C449 0.979 . S
H476 C449 0.980 . S
H477 C449 0.983 . S
H478 C422 0.947 . S
C479 C422 1.392 . S
C479 C423 1.419 . S
C479 H461 0.948 . S
H480 C486 0.930 . S
H481 C489 0.930 . S
H482 C490 0.930 . S
H483 C491 0.930 . S
H484 C494 0.930 . S
H485 C495 0.930 . S
C486 H480 0.930 . S
C486 C487 1.355 . S
C486 C488 1.415 . S
C487 C486 1.355 . S
C487 C489 1.419 . S
C488 C486 1.415 . S
C488 C493 1.425 . S
C488 C495 1.409 . S
C489 H481 0.930 . S
C489 C487 1.419 . S
C489 C490 1.362 . S
C490 H482 0.930 . S
C490 C489 1.362 . S
C490 C493 1.409 . S
C491 H483 0.930 . S
C491 C492 1.355 . S
C491 C493 1.415 . S
C492 C491 1.355 . S
C492 C494 1.419 . S
C493 C488 1.425 . S
C493 C490 1.409 . S
C493 C491 1.415 . S
C494 H484 0.930 . S
C494 C492 1.419 . S
C494 C495 1.362 . S
C495 H485 0.930 . S
C495 C488 1.409 . S
C495 C494 1.362 . S
H496 C502 0.930 . S
H497 C505 0.930 . S
H498 C506 0.930 . S
H499 C507 0.930 . S
H500 C510 0.930 . S
H501 C511 0.930 . S
C502 H496 0.930 . S
C502 C503 1.355 . S
C502 C504 1.415 . S
C503 C502 1.355 . S
C503 C505 1.419 . S
C504 C502 1.415 . S
C504 C509 1.425 . S
C504 C511 1.409 . S
C505 H497 0.930 . S
C505 C503 1.419 . S
C505 C506 1.362 . S
C506 H498 0.930 . S
C506 C505 1.362 . S
C506 C509 1.409 . S
C507 H499 0.930 . S
C507 C508 1.355 . S
C507 C509 1.415 . S
C508 C507 1.355 . S
C508 C510 1.419 . S
C509 C504 1.425 . S
C509 C506 1.409 . S
C509 C507 1.415 . S
C510 H500 0.930 . S
C510 C508 1.419 . S
C510 C511 1.362 . S
C511 H501 0.930 . S
C511 C504 1.409 . S
C511 C510 1.362 . S
H512 C518 0.930 . S
H513 C521 0.930 . S
H514 C522 0.930 . S
H515 C523 0.930 . S
H516 C526 0.930 . S
H517 C527 0.930 . S
C518 H512 0.930 . S
C518 C519 1.355 . S
C518 C520 1.415 . S
C519 C518 1.355 . S
C519 C521 1.419 . S
C520 C518 1.415 . S
C520 C525 1.425 . S
C520 C527 1.409 . S
C521 H513 0.930 . S
C521 C519 1.419 . S
C521 C522 1.362 . S
C522 H514 0.930 . S
C522 C521 1.362 . S
C522 C525 1.409 . S
C523 H515 0.930 . S
C523 C524 1.355 . S
C523 C525 1.415 . S
C524 C523 1.355 . S
C524 C526 1.419 . S
C525 C520 1.425 . S
C525 C522 1.409 . S
C525 C523 1.415 . S
C526 H516 0.930 . S
C526 C524 1.419 . S
C526 C527 1.362 . S
C527 H517 0.930 . S
C527 C520 1.409 . S
C527 C526 1.362 . S
H528 C534 0.930 . S
H529 C537 0.930 . S
H530 C538 0.930 . S
H531 C539 0.930 . S
H532 C542 0.930 . S
H533 C543 0.930 . S
C534 H528 0.930 . S
C534 C535 1.355 . S
C534 C536 1.415 . S
C535 C534 1.355 . S
C535 C537 1.419 . S
C536 C534 1.415 . S
C536 C541 1.425 . S
C536 C543 1.409 . S
C537 H529 0.930 . S
C537 C535 1.419 . S
C537 C538 1.362 . S
C538 H530 0.930 . S
C538 C537 1.362 . S
C538 C541 1.409 . S
C539 H531 0.930 . S
C539 C540 1.355 . S
C539 C541 1.415 . S
C540 C539 1.355 . S
C540 C542 1.419 . S
C541 C536 1.425 . S
C541 C538 1.409 . S
C541 C539 1.415 . S
C542 H532 0.930 . S
C542 C540 1.419 . S
C542 C543 1.362 . S
C543 H533 0.930 . S
C543 C536 1.409 . S
C543 C542 1.362 . S
H544 C550 0.930 . S
H545 C553 0.930 . S
H546 C554 0.930 . S
H547 C555 0.930 . S
H548 C558 0.930 . S
H549 C559 0.930 . S
C550 H544 0.930 . S
C550 C551 1.355 . S
C550 C552 1.415 . S
C551 C550 1.355 . S
C551 C553 1.419 . S
C552 C550 1.415 . S
C552 C557 1.425 . S
C552 C559 1.409 . S
C553 H545 0.930 . S
C553 C551 1.419 . S
C553 C554 1.362 . S
C554 H546 0.930 . S
C554 C553 1.362 . S
C554 C557 1.409 . S
C555 H547 0.930 . S
C555 C556 1.355 . S
C555 C557 1.415 . S
C556 C555 1.355 . S
C556 C558 1.419 . S
C557 C552 1.425 . S
C557 C554 1.409 . S
C557 C555 1.415 . S
C558 H548 0.930 . S
C558 C556 1.419 . S
C558 C559 1.362 . S
C559 H549 0.930 . S
C559 C552 1.409 . S
C559 C558 1.362 . S
H560 C566 0.930 . S
H561 C569 0.930 . S
H562 C570 0.930 . S
H563 C571 0.930 . S
H564 C574 0.930 . S
H565 C575 0.930 . S
C566 H560 0.930 . S
C566 C567 1.355 . S
C566 C568 1.415 . S
C567 C566 1.355 . S
C567 C569 1.419 . S
C568 C566 1.415 . S
C568 C573 1.425 . S
C568 C575 1.409 . S
C569 H561 0.930 . S
C569 C567 1.419 . S
C569 C570 1.362 . S
C570 H562 0.930 . S
C570 C569 1.362 . S
C570 C573 1.409 . S
C571 H563 0.930 . S
C571 C572 1.355 . S
C571 C573 1.415 . S
C572 C571 1.355 . S
C572 C574 1.419 . S
C573 C568 1.425 . S
C573 C570 1.409 . S
C573 C571 1.415 . S
C574 H564 0.930 . S
C574 C572 1.419 . S
C574 C575 1.362 . S
C575 H565 0.930 . S
C575 C568 1.409 . S
C575 C574 1.362 . S
H576 C582 0.930 . S
H577 C585 0.930 . S
H578 C586 0.930 . S
H579 C587 0.930 . S
H580 C590 0.930 . S
H581 C591 0.930 . S
C582 H576 0.930 . S
C582 C583 1.355 . S
C582 C584 1.415 . S
C583 C582 1.355 . S
C583 C585 1.419 . S
C584 C582 1.415 . S
C584 C589 1.425 . S
C584 C591 1.409 . S
C585 H577 0.930 . S
C585 C583 1.419 . S
C585 C586 1.362 . S
C586 H578 0.930 . S
C586 C585 1.362 . S
C586 C589 1.409 . S
C587 H579 0.930 . S
C587 C588 1.355 . S
C587 C589 1.415 . S
C588 C587 1.355 . S
C588 C590 1.419 . S
C589 C584 1.425 . S
C589 C586 1.409 . S
C589 C587 1.415 . S
C590 H580 0.930 . S
C590 C588 1.419 . S
C590 C591 1.362 . S
C591 H581 0.930 . S
C591 C584 1.409 . S
C591 C590 1.362 . S
H592 C598 0.930 . S
H593 C601 0.930 . S
H594 C602 0.930 . S
H595 C603 0.930 . S
H596 C606 0.930 . S
H597 C607 0.930 . S
C598 H592 0.930 . S
C598 C599 1.355 . S
C598 C600 1.415 . S
C599 C598 1.355 . S
C599 C601 1.419 . S
C600 C598 1.415 . S
C600 C605 1.425 . S
C600 C607 1.409 . S
C601 H593 0.930 . S
C601 C599 1.419 . S
C601 C602 1.362 . S
C602 H594 0.930 . S
C602 C601 1.362 . S
C602 C605 1.409 . S
C603 H595 0.930 . S
C603 C604 1.355 . S
C603 C605 1.415 . S
C604 C603 1.355 . S
C604 C606 1.419 . S
C605 C600 1.425 . S
C605 C602 1.409 . S
C605 C603 1.415 . S
C606 H596 0.930 . S
C606 C604 1.419 . S
C606 C607 1.362 . S
C607 H597 0.930 . S
C607 C600 1.409 . S
C607 C606 1.362 . S
H608 C614 0.930 . S
H609 C617 0.930 . S
H610 C618 0.930 . S
H611 C619 0.930 . S
H612 C622 0.930 . S
H613 C623 0.930 . S
C614 H608 0.930 . S
C614 C615 1.355 . S
C614 C616 1.415 . S
C615 C614 1.355 . S
C615 C617 1.419 . S
C616 C614 1.415 . S
C616 C621 1.425 . S
C616 C623 1.409 . S
C617 H609 0.930 . S
C617 C615 1.419 . S
C617 C618 1.362 . S
C618 H610 0.930 . S
C618 C617 1.362 . S
C618 C621 1.409 . S
C619 H611 0.930 . S
C619 C620 1.355 . S
C619 C621 1.415 . S
C620 C619 1.355 . S
C620 C622 1.419 . S
C621 C616 1.425 . S
C621 C618 1.409 . S
C621 C619 1.415 . S
C622 H612 0.930 . S
C622 C620 1.419 . S
C622 C623 1.362 . S
C623 H613 0.930 . S
C623 C616 1.409 . S
C623 C622 1.362 . S
H624 C630 0.930 . S
H625 C633 0.930 . S
H626 C634 0.930 . S
H627 C635 0.930 . S
H628 C638 0.930 . S
H629 C639 0.930 . S
C630 H624 0.930 . S
C630 C631 1.355 . S
C630 C632 1.415 . S
C631 C630 1.355 . S
C631 C633 1.419 . S
C632 C630 1.415 . S
C632 C637 1.425 . S
C632 C639 1.409 . S
C633 H625 0.930 . S
C633 C631 1.419 . S
C633 C634 1.362 . S
C634 H626 0.930 . S
C634 C633 1.362 . S
C634 C637 1.409 . S
C635 H627 0.930 . S
C635 C636 1.355 . S
C635 C637 1.415 . S
C636 C635 1.355 . S
C636 C638 1.419 . S
C637 C632 1.425 . S
C637 C634 1.409 . S
C637 C635 1.415 . S
C638 H628 0.930 . S
C638 C636 1.419 . S
C638 C639 1.362 . S
C639 H629 0.930 . S
C639 C632 1.409 . S
C639 C638 1.362 . S
H640 C646 0.930 . S
H641 C649 0.930 . S
H642 C650 0.930 . S
H643 C651 0.930 . S
H644 C654 0.930 . S
H645 C655 0.930 . S
C646 H640 0.930 . S
C646 C647 1.355 . S
C646 C648 1.415 . S
C647 C646 1.355 . S
C647 C649 1.419 . S
C648 C646 1.415 . S
C648 C653 1.425 . S
C648 C655 1.409 . S
C649 H641 0.930 . S
C649 C647 1.419 . S
C649 C650 1.362 . S
C650 H642 0.930 . S
C650 C649 1.362 . S
C650 C653 1.409 . S
C651 H643 0.930 . S
C651 C652 1.355 . S
C651 C653 1.415 . S
C652 C651 1.355 . S
C652 C654 1.419 . S
C653 C648 1.425 . S
C653 C650 1.409 . S
C653 C651 1.415 . S
C654 H644 0.930 . S
C654 C652 1.419 . S
C654 C655 1.362 . S
C655 H645 0.930 . S
C655 C648 1.409 . S
C655 C654 1.362 . S
H656 C662 0.930 . S
H657 C665 0.930 . S
H658 C666 0.930 . S
H659 C667 0.930 . S
H660 C670 0.930 . S
H661 C671 0.930 . S
C662 H656 0.930 . S
C662 C663 1.355 . S
C662 C664 1.415 . S
C663 C662 1.355 . S
C663 C665 1.419 . S
C664 C662 1.415 . S
C664 C669 1.425 . S
C664 C671 1.409 . S
C665 H657 0.930 . S
C665 C663 1.419 . S
C665 C666 1.362 . S
C666 H658 0.930 . S
C666 C665 1.362 . S
C666 C669 1.409 . S
C667 H659 0.930 . S
C667 C668 1.355 . S
C667 C669 1.415 . S
C668 C667 1.355 . S
C668 C670 1.419 . S
C669 C664 1.425 . S
C669 C666 1.409 . S
C669 C667 1.415 . S
C670 H660 0.930 . S
C670 C668 1.419 . S
C670 C671 1.362 . S
C671 H661 0.930 . S
C671 C664 1.409 . S
C671 C670 1.362 . S
H672 C678 0.930 . S
H673 C681 0.930 . S
H674 C682 0.930 . S
H675 C683 0.930 . S
H676 C686 0.930 . S
H677 C687 0.930 . S
C678 H672 0.930 . S
C678 C679 1.355 1_655 S
C678 C680 1.415 1_655 S
C679 C678 1.355 1_455 S
C679 C681 1.419 . S
C680 C678 1.415 1_455 S
C680 C685 1.425 . S
C680 C687 1.409 1_455 S
C681 H673 0.930 . S
C681 C679 1.419 . S
C681 C682 1.362 . S
C682 H674 0.930 . S
C682 C681 1.362 . S
C682 C685 1.409 . S
C683 H675 0.930 . S
C683 C684 1.355 . S
C683 C685 1.415 . S
C684 C683 1.355 . S
C684 C686 1.419 1_455 S
C685 C680 1.425 . S
C685 C682 1.409 . S
C685 C683 1.415 . S
C686 H676 0.930 . S
C686 C684 1.419 1_655 S
C686 C687 1.362 . S
C687 H677 0.930 . S
C687 C680 1.409 1_655 S
C687 C686 1.362 . S
H688 C694 0.930 . S
H689 C697 0.930 . S
H690 C698 0.930 . S
H691 C699 0.930 . S
H692 C702 0.930 . S
H693 C703 0.930 . S
C694 H688 0.930 . S
C694 C695 1.355 . S
C694 C696 1.415 . S
C695 C694 1.355 . S
C695 C697 1.419 . S
C696 C694 1.415 . S
C696 C701 1.425 . S
C696 C703 1.409 . S
C697 H689 0.930 . S
C697 C695 1.419 . S
C697 C698 1.362 . S
C698 H690 0.930 . S
C698 C697 1.362 . S
C698 C701 1.409 . S
C699 H691 0.930 . S
C699 C700 1.355 . S
C699 C701 1.415 . S
C700 C699 1.355 . S
C700 C702 1.419 . S
C701 C696 1.425 . S
C701 C698 1.409 . S
C701 C699 1.415 . S
C702 H692 0.930 . S
C702 C700 1.419 . S
C702 C703 1.362 . S
C703 H693 0.930 . S
C703 C696 1.409 . S
C703 C702 1.362 . S
H704 C710 0.930 . S
H705 C713 0.930 . S
H706 C714 0.930 . S
H707 C715 0.930 . S
H708 C718 0.930 . S
H709 C719 0.930 . S
C710 H704 0.930 . S
C710 C711 1.355 . S
C710 C712 1.415 . S
C711 C710 1.355 . S
C711 C713 1.419 . S
C712 C710 1.415 . S
C712 C717 1.425 . S
C712 C719 1.409 . S
C713 H705 0.930 . S
C713 C711 1.419 . S
C713 C714 1.362 . S
C714 H706 0.930 . S
C714 C713 1.362 . S
C714 C717 1.409 . S
C715 H707 0.930 . S
C715 C716 1.355 . S
C715 C717 1.415 . S
C716 C715 1.355 . S
C716 C718 1.419 . S
C717 C712 1.425 . S
C717 C714 1.409 . S
C717 C715 1.415 . S
C718 H708 0.930 . S
C718 C716 1.419 . S
C718 C719 1.362 . S
C719 H709 0.930 . S
C719 C712 1.409 . S
C719 C718 1.362 . S
H720 C726 0.930 . S
H721 C729 0.930 . S
H722 C730 0.930 . S
H723 C731 0.930 . S
H724 C734 0.930 . S
H725 C735 0.930 . S
C726 H720 0.930 . S
C726 C727 1.355 . S
C726 C728 1.415 . S
C727 C726 1.355 . S
C727 C729 1.419 1_545 S
C728 C726 1.415 . S
C728 C733 1.425 1_545 S
C728 C735 1.409 . S
C729 H721 0.930 . S
C729 C727 1.419 1_565 S
C729 C730 1.362 . S
C730 H722 0.930 . S
C730 C729 1.362 . S
C730 C733 1.409 . S
C731 H723 0.930 . S
C731 C732 1.355 1_565 S
C731 C733 1.415 . S
C732 C731 1.355 1_545 S
C732 C734 1.419 . S
C733 C728 1.425 1_565 S
C733 C730 1.409 . S
C733 C731 1.415 . S
C734 H724 0.930 . S
C734 C732 1.419 . S
C734 C735 1.362 . S
C735 H725 0.930 . S
C735 C728 1.409 . S
C735 C734 1.362 . S
H736 C742 0.930 . S
H737 C745 0.930 . S
H738 C746 0.930 . S
H739 C747 0.930 . S
H740 C750 0.930 . S
H741 C751 0.930 . S
C742 H736 0.930 . S
C742 C743 1.355 . S
C742 C744 1.415 . S
C743 C742 1.355 . S
C743 C745 1.419 . S
C744 C742 1.415 . S
C744 C749 1.425 . S
C744 C751 1.409 . S
C745 H737 0.930 . S
C745 C743 1.419 . S
C745 C746 1.362 . S
C746 H738 0.930 . S
C746 C745 1.362 . S
C746 C749 1.409 . S
C747 H739 0.930 . S
C747 C748 1.355 . S
C747 C749 1.415 . S
C748 C747 1.355 . S
C748 C750 1.419 . S
C749 C744 1.425 . S
C749 C746 1.409 . S
C749 C747 1.415 . S
C750 H740 0.930 . S
C750 C748 1.419 . S
C750 C751 1.362 . S
C751 H741 0.930 . S
C751 C744 1.409 . S
C751 C750 1.362 . S
H752 C758 0.930 . S
H753 C761 0.930 . S
H754 C762 0.930 . S
H755 C763 0.930 . S
H756 C766 0.930 . S
H757 C767 0.930 . S
C758 H752 0.930 . S
C758 C759 1.355 1_655 S
C758 C760 1.415 . S
C759 C758 1.355 1_455 S
C759 C761 1.419 . S
C760 C758 1.415 . S
C760 C765 1.425 1_655 S
C760 C767 1.409 . S
C761 H753 0.930 . S
C761 C759 1.419 . S
C761 C762 1.362 . S
C762 H754 0.930 . S
C762 C761 1.362 . S
C762 C765 1.409 . S
C763 H755 0.930 . S
C763 C764 1.355 1_455 S
C763 C765 1.415 . S
C764 C763 1.355 1_655 S
C764 C766 1.419 . S
C765 C760 1.425 1_455 S
C765 C762 1.409 . S
C765 C763 1.415 . S
C766 H756 0.930 . S
C766 C764 1.419 . S
C766 C767 1.362 . S
C767 H757 0.930 . S
C767 C760 1.409 . S
C767 C766 1.362 . S
C487 C24 2.974 . S
C492 C451 2.956 . S
C503 C66 1.203 . S
C508 C301 1.181 . S
C519 C93 1.891 . S
C524 C361 1.767 . S
C535 C13 3.120 . S
C540 C421 2.935 . S
C556 C331 1.338 . S
C551 C57 1.332 . S
C572 C391 2.020 . S
C567 C104 2.005 . S
C583 C64 1.990 . S
C588 C181 1.802 . S
C599 C97 0.591 . S
C604 C271 0.608 . S
C615 C17 1.364 . S
C620 C151 1.372 . S
C636 C211 1.870 . S
C631 C53 1.913 . S
C652 C241 0.268 . S
C647 C106 0.556 . S
C663 C26 1.180 . S
C668 C121 1.203 . S
C684 C260 1.004 . S
C679 C2 1.074 . S
C695 C63 1.481 . S
C700 C140 1.434 . S
C711 C82 1.377 . S
C716 C200 1.321 . S
C732 C380 1.374 . S
C727 C42 1.402 . S
C748 C440 1.761 1_556 S
C743 C103 1.718 . S
C759 C23 1.444 . S
C764 C320 1.498 . S
