# Generated by pormake.
# Topology llj, (12,3)-cn, num edge types: 1
# Building blocks:
#     Node 0, Type 0, BuildingBlock: QEWDON_clean_sbu_0, # of connection points: 12
#     Node 1, Type 0, BuildingBlock: QEWDON_clean_sbu_0, # of connection points: 12
#     Node 2, Type 1, BuildingBlock: BETDIP_clean_linker_0, # of connection points: 3
#     Node 3, Type 1, BuildingBlock: BETDIP_clean_linker_0, # of connection points: 3
#     Node 4, Type 1, BuildingBlock: BETDIP_clean_linker_0, # of connection points: 3
#     Node 5, Type 1, BuildingBlock: BETDIP_clean_linker_0, # of connection points: 3
#     Node 6, Type 1, BuildingBlock: BETDIP_clean_linker_0, # of connection points: 3
#     Node 7, Type 1, BuildingBlock: BETDIP_clean_linker_0, # of connection points: 3
#     Node 8, Type 1, BuildingBlock: BETDIP_clean_linker_0, # of connection points: 3
#     Node 9, Type 1, BuildingBlock: BETDIP_clean_linker_0, # of connection points: 3
#     Edge 10, Type (0, 1), BuildingBlock: OJICUG_clean_linker_0, # of connection points: 2
#     Edge 11, Type (0, 1), BuildingBlock: OJICUG_clean_linker_0, # of connection points: 2
#     Edge 12, Type (0, 1), BuildingBlock: OJICUG_clean_linker_0, # of connection points: 2
#     Edge 13, Type (0, 1), BuildingBlock: OJICUG_clean_linker_0, # of connection points: 2
#     Edge 14, Type (0, 1), BuildingBlock: OJICUG_clean_linker_0, # of connection points: 2
#     Edge 15, Type (0, 1), BuildingBlock: OJICUG_clean_linker_0, # of connection points: 2
#     Edge 16, Type (0, 1), BuildingBlock: OJICUG_clean_linker_0, # of connection points: 2
#     Edge 17, Type (0, 1), BuildingBlock: OJICUG_clean_linker_0, # of connection points: 2
#     Edge 18, Type (0, 1), BuildingBlock: OJICUG_clean_linker_0, # of connection points: 2
#     Edge 19, Type (0, 1), BuildingBlock: OJICUG_clean_linker_0, # of connection points: 2
#     Edge 20, Type (0, 1), BuildingBlock: OJICUG_clean_linker_0, # of connection points: 2
#     Edge 21, Type (0, 1), BuildingBlock: OJICUG_clean_linker_0, # of connection points: 2
#     Edge 22, Type (0, 1), BuildingBlock: OJICUG_clean_linker_0, # of connection points: 2
#     Edge 23, Type (0, 1), BuildingBlock: OJICUG_clean_linker_0, # of connection points: 2
#     Edge 24, Type (0, 1), BuildingBlock: OJICUG_clean_linker_0, # of connection points: 2
#     Edge 25, Type (0, 1), BuildingBlock: OJICUG_clean_linker_0, # of connection points: 2
#     Edge 26, Type (0, 1), BuildingBlock: OJICUG_clean_linker_0, # of connection points: 2
#     Edge 27, Type (0, 1), BuildingBlock: OJICUG_clean_linker_0, # of connection points: 2
#     Edge 28, Type (0, 1), BuildingBlock: OJICUG_clean_linker_0, # of connection points: 2
#     Edge 29, Type (0, 1), BuildingBlock: OJICUG_clean_linker_0, # of connection points: 2
#     Edge 30, Type (0, 1), BuildingBlock: OJICUG_clean_linker_0, # of connection points: 2
#     Edge 31, Type (0, 1), BuildingBlock: OJICUG_clean_linker_0, # of connection points: 2
#     Edge 32, Type (0, 1), BuildingBlock: OJICUG_clean_linker_0, # of connection points: 2
#     Edge 33, Type (0, 1), BuildingBlock: OJICUG_clean_linker_0, # of connection points: 2
# Relax obj value: 0.010
# Max RMSD: 0.093
# Mean RMSD: 0.081
data_MOF--net-llj--node1-QEWDON_clean_sbu_0--node2-BETDIP_clean_linker_0--edge1-OJICUG_clean_linker_0
_symmetry_space_group_name_H-M    P1
_symmetry_Int_Tables_number       1
_symmetry_cell_setting            triclinic
loop_
_symmetry_equiv_pos_as_xyz
'x, y, z'
_cell_length_a     30.561844
_cell_length_b     30.328161
_cell_length_c     18.744045
_cell_angle_alpha  90.763501
_cell_angle_beta   91.841018
_cell_angle_gamma 90.46359
loop_
_atom_site_label
_atom_site_type_symbol
_atom_site_fract_x
_atom_site_fract_y
_atom_site_fract_z
_atom_type_partial_charge
Zn0 Zn 0.93585 0.11251 0.93275 0.0
Zn1 Zn 0.93011 0.09041 0.09812 0.0
O2 O 0.96773 0.0826 0.01411 0.0
H3 H 0.98959 0.06017 0.00814 0.0
C4 C 0.8862 0.01699 0.82912 0.0
O5 O 0.8896 0.03846 0.89039 0.0
Zn6 Zn 0.0591 0.90604 0.09824 0.0
Zn7 Zn 0.05331 0.88907 0.92973 0.0
O8 O 0.02128 0.91598 0.01125 0.0
H9 H -0.00049 0.93867 0.00578 0.0
Zn10 Zn 0.90028 0.94088 0.9208 0.0
O11 O 0.9177 0.97449 0.01006 0.0
Zn12 Zn 0.90467 0.93386 0.08972 0.0
H13 H 0.9413 0.99584 0.01104 0.0
Zn14 Zn 0.09464 0.05715 0.93613 0.0
O15 O 0.07218 0.02391 0.01954 0.0
H16 H 0.04869 0.0025 0.01486 0.0
Zn17 Zn 0.08433 0.0628 0.10464 0.0
C18 C 0.10596 0.98223 0.84029 0.0
O19 O 0.10236 0.96076 0.90022 0.0
O20 O 0.8825 0.14908 0.95981 0.0
O21 O 0.87984 0.13269 0.07497 0.0
O22 O 0.10615 0.85165 0.95877 0.0
O23 O 0.10917 0.8638 0.07626 0.0
O24 O 0.86171 0.88701 0.93762 0.0
O25 O 0.86149 0.8845 0.05624 0.0
C26 C 0.00852 0.10619 0.18417 0.0
O27 O 0.13345 0.11034 0.96318 0.0
O28 O 0.12676 0.11321 0.08108 0.0
O29 O 0.0209 0.87946 0.83255 0.0
C30 C 0.86483 0.15294 0.02021 0.0
O31 O 0.96812 0.12317 0.83951 0.0
C32 C 0.98035 0.88961 0.17416 0.0
O33 O 0.88986 0.97532 0.82811 0.0
C34 C 0.12387 0.84542 0.02021 0.0
O35 O 0.10384 0.02402 0.84127 0.0
C36 C 0.88849 0.01174 0.17422 0.0
O37 O 0.96759 0.11337 0.18106 0.0
O38 O 0.02544 0.08681 0.13122 0.0
C39 C 0.84885 0.86955 -0.00528 0.0
O40 O 0.02129 0.88237 0.17531 0.0
O41 O 0.96349 0.90887 0.12012 0.0
C42 C 0.10144 0.98368 0.18468 0.0
O43 O 0.8816 0.97032 0.17119 0.0
O44 O 0.90707 0.02973 0.12207 0.0
C45 C 0.14275 0.12806 0.0238 0.0
O46 O 0.10799 0.02517 0.185 0.0
O47 O 0.08251 0.96611 0.12972 0.0
C48 C 0.97938 0.87747 0.83025 0.0
O49 O 0.9583 0.88038 0.89004 0.0
C50 C 0.00961 0.12115 0.84042 0.0
O51 O 0.03078 0.11356 0.90103 0.0
Zn52 Zn 0.42981 0.59458 0.41189 0.0
Zn53 Zn 0.42498 0.59091 0.58073 0.0
O54 O 0.46534 0.58128 0.50057 0.0
H55 H 0.48832 0.55968 0.50014 0.0
C56 C 0.37921 0.50829 0.31316 0.0
O57 O 0.37628 0.52848 0.37521 0.0
Zn58 Zn 0.55942 0.40982 0.58656 0.0
Zn59 Zn 0.55658 0.39058 0.41847 0.0
O60 O 0.52238 0.41742 0.49809 0.0
H61 H 0.49971 0.4391 0.49139 0.0
Zn62 Zn 0.39932 0.43541 0.40651 0.0
O63 O 0.41566 0.472 0.49374 0.0
Zn64 Zn 0.40426 0.43292 0.57596 0.0
H65 H 0.4378 0.49487 0.49342 0.0
Zn66 Zn 0.59768 0.5594 0.42698 0.0
O67 O 0.5696 0.52814 0.50773 0.0
H68 H 0.54711 0.50579 0.50122 0.0
Zn69 Zn 0.57901 0.56746 0.59328 0.0
C70 C 0.61093 0.48405 0.33155 0.0
O71 O 0.60631 0.4622 0.3909 0.0
O72 O 0.37449 0.62964 0.43067 0.0
O73 O 0.37369 0.63074 0.54943 0.0
O74 O 0.61014 0.35478 0.45069 0.0
O75 O 0.61122 0.36923 0.56749 0.0
O76 O 0.36323 0.38013 0.4269 0.0
O77 O 0.3635 0.38139 0.54573 0.0
C78 C 0.50153 0.61079 0.66916 0.0
O79 O 0.63396 0.61414 0.45584 0.0
O80 O 0.62102 0.61833 0.57193 0.0
O81 O 0.5255 0.37893 0.32048 0.0
C82 C 0.35737 0.64189 0.4886 0.0
O83 O 0.46273 0.60687 0.32001 0.0
C84 C 0.48083 0.39086 0.66196 0.0
O85 O 0.3885 0.46759 0.31146 0.0
C86 C 0.62722 0.35023 0.51305 0.0
O87 O 0.60891 0.52585 0.33308 0.0
C88 C 0.38513 0.51143 0.65769 0.0
O89 O 0.46039 0.61686 0.66456 0.0
O90 O 0.51938 0.59063 0.61783 0.0
C91 C 0.35141 0.36398 0.48568 0.0
O92 O 0.52195 0.38482 0.66289 0.0
O93 O 0.46352 0.41026 0.6084 0.0
C94 C 0.59692 0.48914 0.67402 0.0
O95 O 0.37965 0.46981 0.6552 0.0
O96 O 0.4033 0.52985 0.60555 0.0
C97 C 0.63956 0.6329 0.51669 0.0
O98 O 0.60202 0.5308 0.67486 0.0
O99 O 0.57987 0.47098 0.618 0.0
C100 C 0.48403 0.37587 0.31786 0.0
O101 O 0.46271 0.37903 0.3774 0.0
C102 C 0.50423 0.60938 0.32151 0.0
O103 O 0.52596 0.60387 0.38226 0.0
H104 H 0.33341 0.31269 0.86618 0.0
H105 H 0.33912 0.3091 0.09511 0.0
H106 H 0.43713 0.38055 -0.01531 0.0
H107 H 0.26814 0.29412 0.08492 0.0
C108 C 0.26456 0.27498 0.03571 0.0
C109 C 0.34883 0.32324 0.91647 0.0
C110 C 0.38823 0.34755 0.91734 0.0
C111 C 0.32991 0.31071 0.98037 0.0
C112 C 0.35141 0.32155 0.04581 0.0
C113 C 0.39041 0.34639 0.04786 0.0
C114 C 0.40777 0.36026 0.98343 0.0
N115 N 0.29118 0.28434 0.97676 0.0
H116 H 0.67579 0.34287 0.88271 0.0
H117 H 0.68064 0.3426 0.11165 0.0
H118 H 0.60474 0.44 0.00056 0.0
H119 H 0.70339 0.27378 0.10006 0.0
C120 C 0.71948 0.27178 0.04937 0.0
C121 C 0.66485 0.35642 0.9328 0.0
C122 C 0.63898 0.39446 0.93359 0.0
C123 C 0.67864 0.33647 -0.00355 0.0
C124 C 0.6675 0.35564 0.06215 0.0
C125 C 0.64141 0.39357 0.06406 0.0
C126 C 0.62613 0.4117 -0.00052 0.0
N127 N 0.70646 0.29932 -0.00813 0.0
H128 H 0.64696 0.68875 0.11989 0.0
H129 H 0.6466 0.69434 0.89095 0.0
H130 H 0.54735 0.61993 -0.00607 0.0
H131 H 0.71667 0.71345 0.90764 0.0
C132 C 0.71979 0.73001 0.95926 0.0
C133 C 0.63281 0.67846 0.06853 0.0
C134 C 0.5943 0.65287 0.06473 0.0
C135 C 0.65283 0.69235 0.00651 0.0
C136 C 0.63321 0.68162 0.93929 0.0
C137 C 0.59451 0.65618 0.93456 0.0
C138 C 0.5762 0.64095 -0.00254 0.0
N139 N 0.691 0.71931 0.01452 0.0
H140 H 0.30829 0.65636 0.87175 0.0
H141 H 0.30668 0.65191 0.10015 0.0
H142 H 0.38152 0.55726 -0.01522 0.0
H143 H 0.28611 0.72152 0.0943 0.0
C144 C 0.26867 0.72466 0.0433 0.0
C145 C 0.31998 0.64184 0.92123 0.0
C146 C 0.34574 0.60372 0.92009 0.0
C147 C 0.30734 0.66058 -0.01403 0.0
C148 C 0.31932 0.63996 0.0504 0.0
C149 C 0.34561 0.60215 0.05048 0.0
C150 C 0.35991 0.58539 -0.01485 0.0
N151 N 0.27981 0.69809 0.98363 0.0
H152 H 0.83028 0.81888 0.37677 0.0
H153 H 0.8327 0.81656 0.60561 0.0
H154 H 0.93363 0.88554 0.49788 0.0
H155 H 0.7624 0.7988 0.59337 0.0
C156 C 0.75914 0.78108 0.54277 0.0
C157 C 0.84518 0.82962 0.42735 0.0
C158 C 0.88498 0.85318 0.42925 0.0
C159 C 0.82517 0.81776 0.49054 0.0
C160 C 0.84593 0.82848 0.55664 0.0
C161 C 0.88551 0.85239 0.55967 0.0
C162 C 0.90388 0.86583 0.49577 0.0
N163 N 0.78626 0.79182 0.48518 0.0
H164 H 0.175 0.8371 0.62726 0.0
H165 H 0.17788 0.83679 0.39852 0.0
H166 H 0.10562 0.93622 0.508 0.0
H167 H 0.19679 0.76637 0.41046 0.0
C168 C 0.21388 0.76393 0.46189 0.0
C169 C 0.16401 0.85101 0.57691 0.0
C170 C 0.13894 0.88959 0.57577 0.0
C171 C 0.17679 0.83073 0.51355 0.0
C172 C 0.16564 0.85022 0.44764 0.0
C173 C 0.14069 0.88898 0.44541 0.0
C174 C 0.12627 0.90736 0.5096 0.0
N175 N 0.20355 0.79274 0.5191 0.0
H176 H 0.1572 0.18199 0.63317 0.0
H177 H 0.15679 0.1815 0.40414 0.0
H178 H 0.05462 0.11432 0.51231 0.0
H179 H 0.22755 0.19797 0.41904 0.0
C180 C 0.23049 0.21671 0.46872 0.0
C181 C 0.14268 0.17078 0.58256 0.0
C182 C 0.10298 0.14713 0.58051 0.0
C183 C 0.1632 0.18196 0.51958 0.0
C184 C 0.14305 0.17035 0.45322 0.0
C185 C 0.10338 0.14649 0.45011 0.0
C186 C 0.08445 0.13392 0.51413 0.0
N187 N 0.20211 0.20791 0.5254 0.0
H188 H 0.81253 0.15885 0.38336 0.0
H189 H 0.81185 0.15931 0.61231 0.0
H190 H 0.88432 0.06085 0.50094 0.0
H191 H 0.78753 0.22735 0.60305 0.0
C192 C 0.77179 0.23024 0.55064 0.0
C193 C 0.82406 0.14516 0.43359 0.0
C194 C 0.84935 0.10673 0.43428 0.0
C195 C 0.81169 0.16534 0.49737 0.0
C196 C 0.8238 0.14604 0.56292 0.0
C197 C 0.84947 0.10778 0.56463 0.0
C198 C 0.86323 0.08939 0.50008 0.0
N199 N 0.78438 0.20295 0.4927 0.0
C200 C 0.19438 0.17965 0.9652 0.0
C201 C 0.17318 0.16636 0.02703 0.0
H202 H 0.23978 0.22417 0.91919 0.0
C203 C 0.18163 0.18985 0.09124 0.0
H204 H 0.18865 0.16241 0.91474 0.0
C205 C 0.21089 0.22561 0.09351 0.0
C206 C 0.23242 0.2383 0.03189 0.0
H207 H 0.16575 0.1806 0.13975 0.0
H208 H 0.2171 0.24304 0.1437 0.0
C209 C 0.22378 0.21511 0.96766 0.0
C210 C 0.8058 0.18682 0.09273 0.0
C211 C 0.82659 0.18218 0.02718 0.0
H212 H 0.75535 0.21887 0.15064 0.0
C213 C 0.81094 0.20641 0.96836 0.0
H214 H 0.81693 0.16858 0.13909 0.0
C215 C 0.77585 0.23514 0.97517 0.0
C216 C 0.75553 0.24018 0.0409 0.0
H217 H 0.82605 0.20358 0.91703 0.0
H218 H 0.76495 0.25358 0.92892 0.0
C219 C 0.77055 0.21553 0.09942 0.0
C220 C 0.8101 0.81095 0.92135 0.0
C221 C 0.81766 0.83195 -0.01189 0.0
H222 H 0.77343 0.76217 0.86065 0.0
C223 C 0.79388 0.8178 0.04666 0.0
H224 H 0.82804 0.82075 0.87513 0.0
C225 C 0.76228 0.78427 0.03797 0.0
C226 C 0.75426 0.76408 0.97074 0.0
H227 H 0.79893 0.83328 0.09872 0.0
H228 H 0.74391 0.77456 0.08373 0.0
C229 C 0.77888 0.77732 0.9129 0.0
C230 C 0.18362 0.8087 0.09239 0.0
C231 C 0.16187 0.81558 0.02624 0.0
H232 H 0.23482 0.77448 0.14915 0.0
C233 C 0.1764 0.7931 0.9654 0.0
H234 H 0.17336 0.82557 0.14025 0.0
C235 C 0.21134 0.76393 0.97067 0.0
C236 C 0.23269 0.75669 0.03684 0.0
H237 H 0.16053 0.79765 0.91354 0.0
H238 H 0.22136 0.74692 0.9228 0.0
C239 C 0.21881 0.77956 0.09753 0.0
C240 C 0.69129 0.68665 0.46346 0.0
C241 C 0.66885 0.67196 0.52316 0.0
H242 H 0.73721 0.73253 0.42253 0.0
C243 C 0.67532 0.69452 0.58877 0.0
H244 H 0.68702 0.6702 0.41203 0.0
C245 C 0.70414 0.73055 0.59462 0.0
C246 C 0.72707 0.74452 0.53519 0.0
H247 H 0.65845 0.68416 0.63574 0.0
H248 H 0.709 0.7471 0.64588 0.0
C249 C 0.72014 0.72246 0.46944 0.0
C250 C 0.29673 0.67712 0.41774 0.0
C251 C 0.31865 0.67088 0.48401 0.0
H252 H 0.24628 0.71125 0.35951 0.0
C253 C 0.30436 0.69407 0.54423 0.0
H254 H 0.30664 0.65956 0.37028 0.0
C255 C 0.26983 0.72396 0.5377 0.0
C256 C 0.24878 0.73083 0.47097 0.0
H257 H 0.32051 0.68999 0.59598 0.0
H258 H 0.26008 0.742 0.58476 0.0
C259 C 0.26209 0.70665 0.41142 0.0
C260 C 0.30054 0.31116 0.54431 0.0
C261 C 0.32228 0.32473 0.4833 0.0
H262 H 0.2542 0.2664 0.58782 0.0
C263 C 0.31492 0.30117 0.41877 0.0
H264 H 0.30554 0.32855 0.59481 0.0
C265 C 0.28582 0.26546 0.41495 0.0
C266 C 0.26318 0.25278 0.47527 0.0
H267 H 0.33137 0.31051 0.37083 0.0
H268 H 0.28035 0.24829 0.36434 0.0
C269 C 0.27106 0.27562 0.54025 0.0
C270 C 0.68197 0.29808 0.46358 0.0
C271 C 0.66564 0.32116 0.52247 0.0
H272 H 0.72816 0.25143 0.42597 0.0
C273 C 0.68567 0.31521 0.59027 0.0
H274 H 0.66749 0.30194 0.41054 0.0
C275 C 0.72072 0.28618 0.59901 0.0
C276 C 0.73625 0.2625 0.54032 0.0
H277 H 0.674 0.33255 0.63674 0.0
H278 H 0.73526 0.28171 0.65188 0.0
C279 C 0.71682 0.26903 0.47242 0.0
C280 C 0.01139 0.13049 0.31165 0.0
C281 C 0.03389 0.11786 0.25052 0.0
H282 H 0.01545 0.15039 0.4211 0.0
C283 C 0.07981 0.11616 0.25471 0.0
H284 H 0.976 0.13262 0.31051 0.0
C285 C 0.10263 0.12533 0.31928 0.0
C286 C 0.07991 0.13706 0.38072 0.0
H287 H 0.09821 0.10789 0.20841 0.0
H288 H 0.13796 0.12269 0.3212 0.0
C289 C 0.03406 0.14019 0.37562 0.0
C290 C 0.87794 0.083 0.24189 0.0
C291 C 0.87745 0.03673 0.23954 0.0
H292 H 0.87069 0.1416 0.3052 0.0
C293 C 0.86677 0.01379 0.30134 0.0
H294 H 0.88492 0.10168 0.19529 0.0
C295 C 0.85753 0.03656 0.36407 0.0
C296 C 0.85908 0.08292 0.36693 0.0
H297 H 0.86577 0.97807 0.3016 0.0
H298 H 0.84878 0.01769 0.41023 0.0
C299 C 0.86915 0.10592 0.30493 0.0
C300 C 0.90901 0.88009 0.23645 0.0
C301 C 0.95494 0.87882 0.23761 0.0
H302 H 0.85071 0.87456 0.29627 0.0
C303 C 0.97735 0.86772 0.3014 0.0
H304 H 0.89071 0.88703 0.18784 0.0
C305 C 0.95454 0.85911 0.36284 0.0
C306 C 0.90864 0.86196 0.36268 0.0
H307 H 0.01276 0.86593 0.3043 0.0
H308 H 0.9731 0.84989 0.41044 0.0
C309 C 0.88606 0.87219 0.29851 0.0
C310 C 0.12507 0.98128 0.31304 0.0
C311 C 0.11311 0.95836 0.24962 0.0
H312 H 0.14398 0.97756 0.42324 0.0
C313 C 0.11189 0.91204 0.25031 0.0
H314 H 0.12678 0.01698 0.31471 0.0
C315 C 0.121 0.88921 0.3135 0.0
C316 C 0.13191 0.91235 0.37719 0.0
H317 H 0.10395 0.89334 0.20237 0.0
H318 H 0.11882 0.85355 0.31268 0.0
C319 C 0.13451 0.95863 0.37575 0.0
C320 C 0.11275 0.91203 0.76974 0.0
C321 C 0.11318 0.95834 0.7726 0.0
H322 H 0.11866 0.85393 0.70502 0.0
C323 C 0.12113 0.9818 0.71022 0.0
H324 H 0.10703 0.89302 0.81705 0.0
C325 C 0.12913 0.95946 0.64655 0.0
C326 C 0.12859 0.91306 0.6433 0.0
H327 H 0.12198 0.01753 0.71069 0.0
H328 H 0.13675 0.97876 0.6003 0.0
C329 C 0.1199 0.88962 0.70561 0.0
C330 C 0.07934 0.12261 0.77377 0.0
C331 C 0.0336 0.12703 0.77404 0.0
H332 H 0.13709 0.12421 0.71216 0.0
C333 C 0.01087 0.13717 0.71016 0.0
H334 H 0.09779 0.11481 0.82215 0.0
C335 C 0.03341 0.14329 0.64752 0.0
C336 C 0.07921 0.13893 0.64703 0.0
H337 H 0.97562 0.14091 0.70856 0.0
H338 H 0.01492 0.15236 0.59977 0.0
C339 C 0.1019 0.12828 0.71083 0.0
C340 C 0.87682 0.08694 0.76064 0.0
C341 C 0.87726 0.04063 0.76197 0.0
H342 H 0.86919 0.14464 0.697 0.0
C343 C 0.86855 0.01675 0.69838 0.0
H344 H 0.883 0.10623 0.80897 0.0
C345 C 0.8594 0.03863 0.63487 0.0
C346 C 0.85955 0.085 0.63292 0.0
H347 H 0.86818 0.98102 0.69766 0.0
H348 H 0.85151 0.01898 0.58747 0.0
C349 C 0.86845 0.10894 0.6966 0.0
C350 C 0.90949 0.87572 0.75673 0.0
C351 C 0.95528 0.87195 0.76116 0.0
H352 H 0.85158 0.87396 0.68945 0.0
C353 C 0.97799 0.86276 0.69883 0.0
H354 H 0.89109 0.88298 0.80375 0.0
C355 C 0.95533 0.85677 0.63363 0.0
C356 C 0.90945 0.86046 0.62896 0.0
H357 H 0.01328 0.85949 0.70046 0.0
H358 H 0.97383 0.84829 0.58715 0.0
C359 C 0.88682 0.87032 0.69124 0.0
C360 C 0.57227 0.62374 0.74 0.0
C361 C 0.5263 0.62462 0.73513 0.0
H362 H 0.6301 0.6325 0.8068 0.0
C363 C 0.50335 0.63817 0.79528 0.0
H364 H 0.591 0.6145 0.69462 0.0
C365 C 0.52565 0.64925 0.8591 0.0
C366 C 0.57156 0.64685 0.8648 0.0
H367 H 0.46792 0.63966 0.7936 0.0
H368 H 0.50679 0.65956 0.90425 0.0
C369 C 0.59472 0.63462 0.8042 0.0
C370 C 0.37259 0.58228 0.72577 0.0
C371 C 0.37355 0.53601 0.72305 0.0
H372 H 0.36449 0.64027 0.79041 0.0
C373 C 0.36403 0.51246 0.78477 0.0
H374 H 0.37831 0.60135 0.67881 0.0
C375 C 0.35476 0.53455 0.84798 0.0
C376 C 0.3553 0.58088 0.8517 0.0
H377 H 0.36402 0.47673 0.78469 0.0
H378 H 0.34685 0.51508 0.89391 0.0
C379 C 0.36395 0.60457 0.78961 0.0
C380 C 0.47883 0.36504 0.78729 0.0
C381 C 0.45581 0.37804 0.72503 0.0
H382 H 0.47578 0.34429 0.89512 0.0
C383 C 0.40987 0.37924 0.72536 0.0
H384 H 0.51424 0.36322 0.78915 0.0
C385 C 0.38758 0.36931 0.78746 0.0
C386 C 0.41088 0.35742 0.85017 0.0
H387 H 0.39108 0.38778 0.67799 0.0
H388 H 0.35222 0.37159 0.78659 0.0
C389 C 0.45672 0.35465 0.84868 0.0
C390 C 0.618 0.48712 0.80348 0.0
C391 C 0.60822 0.46411 0.73929 0.0
H392 H 0.63627 0.48354 0.9139 0.0
C393 C 0.60917 0.41785 0.73922 0.0
H394 H 0.61796 0.52284 0.80571 0.0
C395 C 0.61848 0.39503 0.80217 0.0
C396 C 0.62788 0.41812 0.86647 0.0
H397 H 0.60305 0.39915 0.69077 0.0
H398 H 0.61805 0.35933 0.80041 0.0
C399 C 0.62795 0.46448 0.86602 0.0
C400 C 0.61829 0.41424 0.25981 0.0
C401 C 0.61839 0.46056 0.26353 0.0
H402 H 0.62407 0.35663 0.1936 0.0
C403 C 0.62579 0.48451 0.20142 0.0
H404 H 0.61294 0.39486 0.30687 0.0
C405 C 0.63316 0.46269 0.13709 0.0
C406 C 0.63268 0.41633 0.13288 0.0
H407 H 0.62637 0.52024 0.20249 0.0
H408 H 0.64 0.48235 0.09088 0.0
C409 C 0.62504 0.39233 0.19502 0.0
C410 C 0.57347 0.61931 0.25535 0.0
C411 C 0.52751 0.61951 0.25587 0.0
H412 H 0.63068 0.62827 0.19412 0.0
C413 C 0.50378 0.63016 0.19317 0.0
H414 H 0.59266 0.61146 0.30297 0.0
C415 C 0.52551 0.64089 0.13147 0.0
C416 C 0.57153 0.64054 0.13053 0.0
H417 H 0.46832 0.6309 0.1919 0.0
H418 H 0.5061 0.65028 0.08485 0.0
C419 C 0.59527 0.62938 0.19314 0.0
C420 C 0.36957 0.57867 0.24651 0.0
C421 C 0.37142 0.53242 0.24618 0.0
H422 H 0.36203 0.63712 0.18502 0.0
C423 C 0.3655 0.5093 0.18121 0.0
H424 H 0.374 0.5974 0.29575 0.0
C425 C 0.35725 0.53193 0.11799 0.0
C426 C 0.35569 0.57833 0.11791 0.0
H427 H 0.36638 0.47359 0.17927 0.0
H428 H 0.3512 0.51281 0.06944 0.0
C429 C 0.36233 0.60143 0.18299 0.0
C430 C 0.48304 0.36085 0.18631 0.0
C431 C 0.46013 0.3691 0.24879 0.0
H432 H 0.47912 0.34612 0.07462 0.0
C433 C 0.41421 0.37083 0.24463 0.0
H434 H 0.51845 0.35915 0.18775 0.0
C435 C 0.39161 0.3645 0.17932 0.0
C436 C 0.41441 0.35552 0.11686 0.0
H437 H 0.39561 0.37719 0.29178 0.0
H438 H 0.35624 0.36671 0.17785 0.0
C439 C 0.46044 0.35382 0.12122 0.0
loop_
_geom_bond_atom_site_label_1
_geom_bond_atom_site_label_2
_geom_bond_distance
_geom_bond_site_symmetry_2
_ccdc_geom_bond_type
Zn0 O2 1.933 1_556 S
Zn0 O20 1.985 . S
Zn0 O31 1.955 . S
Zn1 O2 1.911 . S
Zn1 O21 1.970 . S
Zn1 O37 1.945 . S
Zn1 O44 1.981 . S
O2 Zn0 1.933 1_554 S
O2 Zn1 1.911 . S
O2 H3 0.841 1_655 S
H3 O2 0.841 1_455 S
C4 O5 1.246 . S
C4 O33 1.276 1_545 S
O5 C4 1.246 . S
Zn6 O8 1.911 . S
Zn6 O23 1.970 . S
Zn6 O40 1.945 . S
Zn6 O47 1.981 . S
Zn7 O8 1.933 1_556 S
Zn7 O22 1.985 . S
Zn7 O29 1.955 . S
O8 Zn6 1.911 . S
O8 Zn7 1.933 1_554 S
O8 H9 0.841 1_455 S
H9 O8 0.841 1_655 S
Zn10 O11 1.933 1_556 S
Zn10 O24 1.985 . S
Zn10 O33 1.955 . S
O11 Zn10 1.933 1_554 S
O11 Zn12 1.911 . S
O11 H13 0.841 1_565 S
Zn12 O11 1.911 . S
Zn12 O25 1.970 . S
Zn12 O41 1.981 . S
Zn12 O43 1.945 . S
H13 O11 0.841 1_545 S
Zn14 O15 1.933 1_556 S
Zn14 O27 1.985 . S
Zn14 O35 1.955 . S
O15 Zn14 1.933 1_554 S
O15 H16 0.841 1_545 S
O15 Zn17 1.911 . S
H16 O15 0.841 1_565 S
Zn17 O15 1.911 . S
Zn17 O28 1.970 . S
Zn17 O38 1.981 . S
Zn17 O46 1.945 . S
C18 O19 1.246 . S
C18 O35 1.276 1_565 S
O19 C18 1.246 . S
O20 Zn0 1.985 . S
O20 C30 1.245 1_556 S
O21 Zn1 1.970 . S
O21 C30 1.263 . S
O22 Zn7 1.985 . S
O22 C34 1.245 1_556 S
O23 Zn6 1.970 . S
O23 C34 1.263 . S
O24 Zn10 1.985 . S
O24 C39 1.245 1_556 S
O25 Zn12 1.970 . S
O25 C39 1.263 . S
C26 O37 1.262 1_455 S
C26 O38 1.245 . S
O27 Zn14 1.985 . S
O27 C45 1.245 1_556 S
O28 Zn17 1.970 . S
O28 C45 1.263 . S
O29 Zn7 1.955 . S
O29 C48 1.276 1_455 S
C30 O20 1.245 1_554 S
C30 O21 1.263 . S
O31 Zn0 1.955 . S
O31 C50 1.276 1_655 S
C32 O40 1.262 1_655 S
C32 O41 1.245 . S
O33 C4 1.276 1_565 S
O33 Zn10 1.955 . S
C34 O22 1.245 1_554 S
C34 O23 1.263 . S
O35 Zn14 1.955 . S
O35 C18 1.276 1_545 S
C36 O43 1.262 1_545 S
C36 O44 1.245 . S
O37 Zn1 1.945 . S
O37 C26 1.262 1_655 S
O38 Zn17 1.981 . S
O38 C26 1.245 . S
C39 O24 1.245 1_554 S
C39 O25 1.263 . S
O40 Zn6 1.945 . S
O40 C32 1.262 1_455 S
O41 Zn12 1.981 . S
O41 C32 1.245 . S
C42 O46 1.262 1_565 S
C42 O47 1.245 . S
O43 Zn12 1.945 . S
O43 C36 1.262 1_565 S
O44 Zn1 1.981 . S
O44 C36 1.245 . S
C45 O27 1.245 1_554 S
C45 O28 1.263 . S
O46 Zn17 1.945 . S
O46 C42 1.262 1_545 S
O47 Zn6 1.981 . S
O47 C42 1.245 . S
C48 O29 1.276 1_655 S
C48 O49 1.246 . S
O49 C48 1.246 . S
C50 O31 1.276 1_455 S
C50 O51 1.246 . S
O51 C50 1.246 . S
Zn52 O54 1.933 . S
Zn52 O72 1.985 . S
Zn52 O83 1.955 . S
Zn53 O54 1.911 . S
Zn53 O73 1.970 . S
Zn53 O89 1.945 . S
Zn53 O96 1.981 . S
O54 Zn52 1.933 . S
O54 Zn53 1.911 . S
O54 H55 0.841 . S
H55 O54 0.841 . S
C56 O57 1.246 . S
C56 O85 1.276 . S
O57 C56 1.246 . S
Zn58 O60 1.911 . S
Zn58 O75 1.970 . S
Zn58 O92 1.945 . S
Zn58 O99 1.981 . S
Zn59 O60 1.933 . S
Zn59 O74 1.985 . S
Zn59 O81 1.955 . S
O60 Zn58 1.911 . S
O60 Zn59 1.933 . S
O60 H61 0.841 . S
H61 O60 0.841 . S
Zn62 O63 1.933 . S
Zn62 O76 1.985 . S
Zn62 O85 1.955 . S
O63 Zn62 1.933 . S
O63 Zn64 1.911 . S
O63 H65 0.841 . S
Zn64 O63 1.911 . S
Zn64 O77 1.970 . S
Zn64 O93 1.981 . S
Zn64 O95 1.945 . S
H65 O63 0.841 . S
Zn66 O67 1.933 . S
Zn66 O79 1.985 . S
Zn66 O87 1.955 . S
O67 Zn66 1.933 . S
O67 H68 0.841 . S
O67 Zn69 1.911 . S
H68 O67 0.841 . S
Zn69 O67 1.911 . S
Zn69 O80 1.970 . S
Zn69 O90 1.981 . S
Zn69 O98 1.945 . S
C70 O71 1.246 . S
C70 O87 1.276 . S
O71 C70 1.246 . S
O72 Zn52 1.985 . S
O72 C82 1.245 . S
O73 Zn53 1.970 . S
O73 C82 1.263 . S
O74 Zn59 1.985 . S
O74 C86 1.245 . S
O75 Zn58 1.970 . S
O75 C86 1.263 . S
O76 Zn62 1.985 . S
O76 C91 1.245 . S
O77 Zn64 1.970 . S
O77 C91 1.263 . S
C78 O89 1.262 . S
C78 O90 1.245 . S
O79 Zn66 1.985 . S
O79 C97 1.245 . S
O80 Zn69 1.970 . S
O80 C97 1.263 . S
O81 Zn59 1.955 . S
O81 C100 1.276 . S
C82 O72 1.245 . S
C82 O73 1.263 . S
O83 Zn52 1.955 . S
O83 C102 1.276 . S
C84 O92 1.262 . S
C84 O93 1.245 . S
O85 C56 1.276 . S
O85 Zn62 1.955 . S
C86 O74 1.245 . S
C86 O75 1.263 . S
O87 Zn66 1.955 . S
O87 C70 1.276 . S
C88 O95 1.262 . S
C88 O96 1.245 . S
O89 Zn53 1.945 . S
O89 C78 1.262 . S
O90 Zn69 1.981 . S
O90 C78 1.245 . S
C91 O76 1.245 . S
C91 O77 1.263 . S
O92 Zn58 1.945 . S
O92 C84 1.262 . S
O93 Zn64 1.981 . S
O93 C84 1.245 . S
C94 O98 1.262 . S
C94 O99 1.245 . S
O95 Zn64 1.945 . S
O95 C88 1.262 . S
O96 Zn53 1.981 . S
O96 C88 1.245 . S
C97 O79 1.245 . S
C97 O80 1.263 . S
O98 Zn69 1.945 . S
O98 C94 1.262 . S
O99 Zn58 1.981 . S
O99 C94 1.245 . S
C100 O81 1.276 . S
C100 O101 1.246 . S
O101 C100 1.246 . S
C102 O83 1.276 . S
C102 O103 1.246 . S
O103 C102 1.246 . S
H104 C109 0.930 . S
H105 C112 0.930 . S
H106 C114 0.930 . S
H107 C108 1.016 . S
C108 H107 1.016 . S
C108 N115 1.286 1_554 S
C109 H104 0.930 . S
C109 C110 1.397 . S
C109 C111 1.361 1_556 S
C110 C109 1.397 . S
C110 C114 1.390 1_556 S
C111 C109 1.361 1_554 S
C111 C112 1.393 . S
C111 N115 1.413 1_554 S
C112 H105 0.930 . S
C112 C111 1.393 . S
C112 C113 1.399 . S
C113 C112 1.399 . S
C113 C114 1.381 . S
C114 H106 0.930 . S
C114 C110 1.390 1_554 S
C114 C113 1.381 . S
N115 C108 1.286 1_556 S
N115 C111 1.413 1_556 S
H116 C121 0.930 . S
H117 C124 0.930 . S
H118 C126 0.930 . S
H119 C120 1.016 . S
C120 H119 1.016 . S
C120 N127 1.286 1_554 S
C121 H116 0.930 . S
C121 C122 1.397 . S
C121 C123 1.361 1_556 S
C122 C121 1.397 . S
C122 C126 1.390 1_556 S
C123 C121 1.361 1_554 S
C123 C124 1.393 . S
C123 N127 1.413 1_554 S
C124 H117 0.930 . S
C124 C123 1.393 . S
C124 C125 1.399 . S
C125 C124 1.399 . S
C125 C126 1.381 . S
C126 H118 0.930 . S
C126 C122 1.390 1_554 S
C126 C125 1.381 . S
N127 C120 1.286 1_556 S
N127 C123 1.413 1_556 S
H128 C133 0.930 . S
H129 C136 0.930 . S
H130 C138 0.930 . S
H131 C132 1.011 1_556 S
C132 H131 1.011 1_554 S
C132 N139 1.289 . S
C133 H128 0.930 . S
C133 C134 1.397 . S
C133 C135 1.361 . S
C134 C133 1.397 . S
C134 C138 1.390 . S
C135 C133 1.361 . S
C135 C136 1.393 1_554 S
C135 N139 1.413 . S
C136 H129 0.930 . S
C136 C135 1.393 1_556 S
C136 C137 1.399 . S
C137 C136 1.399 . S
C137 C138 1.381 1_556 S
C138 H130 0.930 . S
C138 C134 1.390 . S
C138 C137 1.381 1_554 S
N139 C132 1.289 . S
N139 C135 1.413 . S
H140 C145 0.930 . S
H141 C148 0.930 . S
H142 C150 0.930 . S
H143 C144 1.016 . S
C144 H143 1.016 . S
C144 N151 1.286 1_554 S
C145 H140 0.930 . S
C145 C146 1.397 . S
C145 C147 1.364 . S
C146 C145 1.397 . S
C146 C150 1.390 1_556 S
C147 C145 1.364 . S
C147 C148 1.390 1_556 S
C147 N151 1.413 . S
C148 H141 0.930 . S
C148 C147 1.390 1_554 S
C148 C149 1.399 . S
C149 C148 1.399 . S
C149 C150 1.381 . S
C150 H142 0.930 . S
C150 C146 1.390 1_554 S
C150 C149 1.381 . S
N151 C144 1.286 1_556 S
N151 C147 1.413 . S
H152 C157 0.930 . S
H153 C160 0.930 . S
H154 C162 0.930 . S
H155 C156 1.016 . S
C156 H155 1.016 . S
C156 N163 1.286 . S
C157 H152 0.930 . S
C157 C158 1.397 . S
C157 C159 1.361 . S
C158 C157 1.397 . S
C158 C162 1.390 . S
C159 C157 1.361 . S
C159 C160 1.393 . S
C159 N163 1.413 . S
C160 H153 0.930 . S
C160 C159 1.393 . S
C160 C161 1.399 . S
C161 C160 1.399 . S
C161 C162 1.381 . S
C162 H154 0.930 . S
C162 C158 1.390 . S
C162 C161 1.381 . S
N163 C156 1.286 . S
N163 C159 1.413 . S
H164 C169 0.930 . S
H165 C172 0.930 . S
H166 C174 0.930 . S
H167 C168 1.016 . S
C168 H167 1.016 . S
C168 N175 1.286 . S
C169 H164 0.930 . S
C169 C170 1.397 . S
C169 C171 1.361 . S
C170 C169 1.397 . S
C170 C174 1.390 . S
C171 C169 1.361 . S
C171 C172 1.393 . S
C171 N175 1.413 . S
C172 H165 0.930 . S
C172 C171 1.393 . S
C172 C173 1.399 . S
C173 C172 1.399 . S
C173 C174 1.381 . S
C174 H166 0.930 . S
C174 C170 1.390 . S
C174 C173 1.381 . S
N175 C168 1.286 . S
N175 C171 1.413 . S
H176 C181 0.930 . S
H177 C184 0.930 . S
H178 C186 0.930 . S
H179 C180 1.016 . S
C180 H179 1.016 . S
C180 N187 1.286 . S
C181 H176 0.930 . S
C181 C182 1.397 . S
C181 C183 1.361 . S
C182 C181 1.397 . S
C182 C186 1.390 . S
C183 C181 1.361 . S
C183 C184 1.393 . S
C183 N187 1.413 . S
C184 H177 0.930 . S
C184 C183 1.393 . S
C184 C185 1.399 . S
C185 C184 1.399 . S
C185 C186 1.381 . S
C186 H178 0.930 . S
C186 C182 1.390 . S
C186 C185 1.381 . S
N187 C180 1.286 . S
N187 C183 1.413 . S
H188 C193 0.930 . S
H189 C196 0.930 . S
H190 C198 0.930 . S
H191 C192 1.016 . S
C192 H191 1.016 . S
C192 N199 1.286 . S
C193 H188 0.930 . S
C193 C194 1.397 . S
C193 C195 1.361 . S
C194 C193 1.397 . S
C194 C198 1.390 . S
C195 C193 1.361 . S
C195 C196 1.393 . S
C195 N199 1.413 . S
C196 H189 0.930 . S
C196 C195 1.393 . S
C196 C197 1.399 . S
C197 C196 1.399 . S
C197 C198 1.381 . S
C198 H190 0.930 . S
C198 C194 1.390 . S
C198 C197 1.381 . S
N199 C192 1.286 . S
N199 C195 1.413 . S
C200 C201 1.387 1_556 S
C200 H204 0.950 . S
C200 C209 1.390 . S
C201 C200 1.387 1_554 S
C201 C203 1.387 . S
H202 C209 0.950 . S
C203 C201 1.387 . S
C203 C205 1.390 . S
C203 H207 0.950 . S
H204 C200 0.950 . S
C205 C203 1.390 . S
C205 C206 1.387 . S
C205 H208 0.950 . S
C206 C205 1.387 . S
C206 C209 1.387 1_554 S
H207 C203 0.950 . S
H208 C205 0.950 . S
C209 C200 1.390 . S
C209 H202 0.950 . S
C209 C206 1.387 1_556 S
C210 C211 1.387 . S
C210 H214 0.950 . S
C210 C219 1.390 . S
C211 C210 1.387 . S
C211 C213 1.387 1_554 S
H212 C219 0.950 . S
C213 C211 1.387 1_556 S
C213 C215 1.390 . S
C213 H217 0.950 . S
H214 C210 0.950 . S
C215 C213 1.390 . S
C215 C216 1.387 1_556 S
C215 H218 0.950 . S
C216 C215 1.387 1_554 S
C216 C219 1.387 . S
H217 C213 0.950 . S
H218 C215 0.950 . S
C219 C210 1.390 . S
C219 H212 0.950 . S
C219 C216 1.387 . S
C220 C221 1.387 1_556 S
C220 H224 0.950 . S
C220 C229 1.390 . S
C221 C220 1.387 1_554 S
C221 C223 1.387 . S
H222 C229 0.950 . S
C223 C221 1.387 . S
C223 C225 1.390 . S
C223 H227 0.950 . S
H224 C220 0.950 . S
C225 C223 1.390 . S
C225 C226 1.387 . S
C225 H228 0.950 . S
C226 C225 1.387 . S
C226 C229 1.387 1_554 S
H227 C223 0.950 . S
H228 C225 0.950 . S
C229 C220 1.390 . S
C229 H222 0.950 . S
C229 C226 1.387 1_556 S
C230 C231 1.387 . S
C230 H234 0.950 . S
C230 C239 1.390 . S
C231 C230 1.387 . S
C231 C233 1.387 1_554 S
H232 C239 0.950 . S
C233 C231 1.387 1_556 S
C233 C235 1.390 . S
C233 H237 0.950 . S
H234 C230 0.950 . S
C235 C233 1.390 . S
C235 C236 1.387 1_556 S
C235 H238 0.950 . S
C236 C235 1.387 1_554 S
C236 C239 1.387 . S
H237 C233 0.950 . S
H238 C235 0.950 . S
C239 C230 1.390 . S
C239 H232 0.950 . S
C239 C236 1.387 . S
C240 C241 1.387 . S
C240 H244 0.950 . S
C240 C249 1.390 . S
C241 C240 1.387 . S
C241 C243 1.387 . S
H242 C249 0.950 . S
C243 C241 1.387 . S
C243 C245 1.390 . S
C243 H247 0.950 . S
H244 C240 0.950 . S
C245 C243 1.390 . S
C245 C246 1.387 . S
C245 H248 0.950 . S
C246 C245 1.387 . S
C246 C249 1.387 . S
H247 C243 0.950 . S
H248 C245 0.950 . S
C249 C240 1.390 . S
C249 H242 0.950 . S
C249 C246 1.387 . S
C250 C251 1.387 . S
C250 H254 0.950 . S
C250 C259 1.390 . S
C251 C250 1.387 . S
C251 C253 1.387 . S
H252 C259 0.950 . S
C253 C251 1.387 . S
C253 C255 1.390 . S
C253 H257 0.950 . S
H254 C250 0.950 . S
C255 C253 1.390 . S
C255 C256 1.387 . S
C255 H258 0.950 . S
C256 C255 1.387 . S
C256 C259 1.387 . S
H257 C253 0.950 . S
H258 C255 0.950 . S
C259 C250 1.390 . S
C259 H252 0.950 . S
C259 C256 1.387 . S
C260 C261 1.387 . S
C260 H264 0.950 . S
C260 C269 1.390 . S
C261 C260 1.387 . S
C261 C263 1.387 . S
H262 C269 0.950 . S
C263 C261 1.387 . S
C263 C265 1.390 . S
C263 H267 0.950 . S
H264 C260 0.950 . S
C265 C263 1.390 . S
C265 C266 1.387 . S
C265 H268 0.950 . S
C266 C265 1.387 . S
C266 C269 1.387 . S
H267 C263 0.950 . S
H268 C265 0.950 . S
C269 C260 1.390 . S
C269 H262 0.950 . S
C269 C266 1.387 . S
C270 C271 1.387 . S
C270 H274 0.950 . S
C270 C279 1.390 . S
C271 C270 1.387 . S
C271 C273 1.387 . S
H272 C279 0.950 . S
C273 C271 1.387 . S
C273 C275 1.390 . S
C273 H277 0.950 . S
H274 C270 0.950 . S
C275 C273 1.390 . S
C275 C276 1.387 . S
C275 H278 0.950 . S
C276 C275 1.387 . S
C276 C279 1.387 . S
H277 C273 0.950 . S
H278 C275 0.950 . S
C279 C270 1.390 . S
C279 H272 0.950 . S
C279 C276 1.387 . S
C280 C281 1.387 . S
C280 H284 0.950 . S
C280 C289 1.390 . S
C281 C280 1.387 . S
C281 C283 1.387 . S
H282 C289 0.950 . S
C283 C281 1.387 . S
C283 C285 1.390 . S
C283 H287 0.950 . S
H284 C280 0.950 . S
C285 C283 1.390 . S
C285 C286 1.387 . S
C285 H288 0.950 . S
C286 C285 1.387 . S
C286 C289 1.387 . S
H287 C283 0.950 . S
H288 C285 0.950 . S
C289 C280 1.390 . S
C289 H282 0.950 . S
C289 C286 1.387 . S
C290 C291 1.387 . S
C290 H294 0.950 . S
C290 C299 1.390 . S
C291 C290 1.387 . S
C291 C293 1.387 . S
H292 C299 0.950 . S
C293 C291 1.387 . S
C293 C295 1.390 . S
C293 H297 0.950 1_545 S
H294 C290 0.950 . S
C295 C293 1.390 . S
C295 C296 1.387 . S
C295 H298 0.948 1_545 S
C296 C295 1.387 . S
C296 C299 1.387 . S
H297 C293 0.950 1_565 S
H298 C295 0.948 1_565 S
C299 C290 1.390 . S
C299 H292 0.950 . S
C299 C296 1.387 . S
C300 C301 1.387 . S
C300 H304 0.950 . S
C300 C309 1.390 . S
C301 C300 1.387 . S
C301 C303 1.387 . S
H302 C309 0.950 . S
C303 C301 1.387 . S
C303 C305 1.390 . S
C303 H307 0.950 1_655 S
H304 C300 0.950 . S
C305 C303 1.390 . S
C305 C306 1.387 . S
C305 H308 0.950 . S
C306 C305 1.387 . S
C306 C309 1.387 . S
H307 C303 0.950 1_455 S
H308 C305 0.950 . S
C309 C300 1.390 . S
C309 H302 0.950 . S
C309 C306 1.387 . S
C310 C311 1.387 . S
C310 H314 0.950 1_565 S
C310 C319 1.390 . S
C311 C310 1.387 . S
C311 C313 1.387 . S
H312 C319 0.950 . S
C313 C311 1.387 . S
C313 C315 1.390 . S
C313 H317 0.950 . S
H314 C310 0.950 1_545 S
C315 C313 1.390 . S
C315 C316 1.387 . S
C315 H318 0.950 . S
C316 C315 1.387 . S
C316 C319 1.387 . S
H317 C313 0.950 . S
H318 C315 0.950 . S
C319 C310 1.390 . S
C319 H312 0.950 . S
C319 C316 1.387 . S
C320 C321 1.387 . S
C320 H324 0.950 . S
C320 C329 1.390 . S
C321 C320 1.387 . S
C321 C323 1.387 . S
H322 C329 0.950 . S
C323 C321 1.387 . S
C323 C325 1.390 . S
C323 H327 0.950 1_565 S
H324 C320 0.950 . S
C325 C323 1.390 . S
C325 C326 1.387 . S
C325 H328 0.950 1_565 S
C326 C325 1.387 . S
C326 C329 1.387 . S
H327 C323 0.950 1_545 S
H328 C325 0.950 1_545 S
C329 C320 1.390 . S
C329 H322 0.950 . S
C329 C326 1.387 . S
C330 C331 1.387 . S
C330 H334 0.950 . S
C330 C339 1.390 . S
C331 C330 1.387 . S
C331 C333 1.387 . S
H332 C339 0.950 . S
C333 C331 1.387 . S
C333 C335 1.390 . S
C333 H337 0.950 1_455 S
H334 C330 0.950 . S
C335 C333 1.390 . S
C335 C336 1.387 . S
C335 H338 0.950 . S
C336 C335 1.387 . S
C336 C339 1.387 . S
H337 C333 0.950 1_655 S
H338 C335 0.950 . S
C339 C330 1.390 . S
C339 H332 0.950 . S
C339 C336 1.387 . S
C340 C341 1.387 . S
C340 H344 0.950 . S
C340 C349 1.390 . S
C341 C340 1.387 . S
C341 C343 1.387 . S
H342 C349 0.950 . S
C343 C341 1.387 . S
C343 C345 1.390 . S
C343 H347 0.950 1_545 S
H344 C340 0.950 . S
C345 C343 1.390 . S
C345 C346 1.387 . S
C345 H348 0.950 . S
C346 C345 1.387 . S
C346 C349 1.387 . S
H347 C343 0.950 1_565 S
H348 C345 0.950 . S
C349 C340 1.390 . S
C349 H342 0.950 . S
C349 C346 1.387 . S
C350 C351 1.387 . S
C350 H354 0.950 . S
C350 C359 1.390 . S
C351 C350 1.387 . S
C351 C353 1.387 . S
H352 C359 0.950 . S
C353 C351 1.387 . S
C353 C355 1.390 . S
C353 H357 0.950 1_655 S
H354 C350 0.950 . S
C355 C353 1.390 . S
C355 C356 1.387 . S
C355 H358 0.950 . S
C356 C355 1.387 . S
C356 C359 1.387 . S
H357 C353 0.950 1_455 S
H358 C355 0.950 . S
C359 C350 1.390 . S
C359 H352 0.950 . S
C359 C356 1.387 . S
C360 C361 1.387 . S
C360 H364 0.950 . S
C360 C369 1.390 . S
C361 C360 1.387 . S
C361 C363 1.387 . S
H362 C369 0.950 . S
C363 C361 1.387 . S
C363 C365 1.390 . S
C363 H367 0.950 . S
H364 C360 0.950 . S
C365 C363 1.390 . S
C365 C366 1.387 . S
C365 H368 0.950 . S
C366 C365 1.387 . S
C366 C369 1.387 . S
H367 C363 0.950 . S
H368 C365 0.950 . S
C369 C360 1.390 . S
C369 H362 0.950 . S
C369 C366 1.387 . S
C370 C371 1.387 . S
C370 H374 0.950 . S
C370 C379 1.390 . S
C371 C370 1.387 . S
C371 C373 1.387 . S
H372 C379 0.950 . S
C373 C371 1.387 . S
C373 C375 1.390 . S
C373 H377 0.950 . S
H374 C370 0.950 . S
C375 C373 1.390 . S
C375 C376 1.387 . S
C375 H378 0.950 . S
C376 C375 1.387 . S
C376 C379 1.387 . S
H377 C373 0.950 . S
H378 C375 0.950 . S
C379 C370 1.390 . S
C379 H372 0.950 . S
C379 C376 1.387 . S
C380 C381 1.387 . S
C380 H384 0.950 . S
C380 C389 1.390 . S
C381 C380 1.387 . S
C381 C383 1.387 . S
H382 C389 0.950 . S
C383 C381 1.387 . S
C383 C385 1.390 . S
C383 H387 0.950 . S
H384 C380 0.950 . S
C385 C383 1.390 . S
C385 C386 1.387 . S
C385 H388 0.950 . S
C386 C385 1.387 . S
C386 C389 1.387 . S
H387 C383 0.950 . S
H388 C385 0.950 . S
C389 C380 1.390 . S
C389 H382 0.950 . S
C389 C386 1.387 . S
C390 C391 1.387 . S
C390 H394 0.950 . S
C390 C399 1.390 . S
C391 C390 1.387 . S
C391 C393 1.387 . S
H392 C399 0.950 . S
C393 C391 1.387 . S
C393 C395 1.390 . S
C393 H397 0.950 . S
H394 C390 0.950 . S
C395 C393 1.390 . S
C395 C396 1.387 . S
C395 H398 0.950 . S
C396 C395 1.387 . S
C396 C399 1.387 . S
H397 C393 0.950 . S
H398 C395 0.950 . S
C399 C390 1.390 . S
C399 H392 0.950 . S
C399 C396 1.387 . S
C400 C401 1.387 . S
C400 H404 0.950 . S
C400 C409 1.390 . S
C401 C400 1.387 . S
C401 C403 1.387 . S
H402 C409 0.950 . S
C403 C401 1.387 . S
C403 C405 1.390 . S
C403 H407 0.950 . S
H404 C400 0.950 . S
C405 C403 1.390 . S
C405 C406 1.387 . S
C405 H408 0.950 . S
C406 C405 1.387 . S
C406 C409 1.387 . S
H407 C403 0.950 . S
H408 C405 0.950 . S
C409 C400 1.390 . S
C409 H402 0.950 . S
C409 C406 1.387 . S
C410 C411 1.387 . S
C410 H414 0.950 . S
C410 C419 1.390 . S
C411 C410 1.387 . S
C411 C413 1.387 . S
H412 C419 0.950 . S
C413 C411 1.387 . S
C413 C415 1.390 . S
C413 H417 0.950 . S
H414 C410 0.950 . S
C415 C413 1.390 . S
C415 C416 1.387 . S
C415 H418 0.950 . S
C416 C415 1.387 . S
C416 C419 1.387 . S
H417 C413 0.950 . S
H418 C415 0.950 . S
C419 C410 1.390 . S
C419 H412 0.950 . S
C419 C416 1.387 . S
C420 C421 1.387 . S
C420 H424 0.950 . S
C420 C429 1.390 . S
C421 C420 1.387 . S
C421 C423 1.387 . S
H422 C429 0.950 . S
C423 C421 1.387 . S
C423 C425 1.390 . S
C423 H427 0.950 . S
H424 C420 0.950 . S
C425 C423 1.390 . S
C425 C426 1.387 . S
C425 H428 0.950 . S
C426 C425 1.387 . S
C426 C429 1.387 . S
H427 C423 0.950 . S
H428 C425 0.950 . S
C429 C420 1.390 . S
C429 H422 0.950 . S
C429 C426 1.387 . S
C430 C431 1.387 . S
C430 H434 0.950 . S
C430 C439 1.390 . S
C431 C430 1.387 . S
C431 C433 1.387 . S
H432 C439 0.950 . S
C433 C431 1.387 . S
C433 C435 1.390 . S
C433 H437 0.950 . S
H434 C430 0.950 . S
C435 C433 1.390 . S
C435 C436 1.387 . S
C435 H438 0.950 . S
C436 C435 1.387 . S
C436 C439 1.387 . S
H437 C433 0.950 . S
H438 C435 0.950 . S
C439 C430 1.390 . S
C439 H432 0.950 . S
C439 C436 1.387 . S
C201 C45 1.548 . S
C206 C108 1.559 . S
C211 C30 1.554 . S
C216 C120 1.567 . S
C221 C39 1.550 . S
C226 C132 1.549 . S
C236 C144 1.562 . S
C231 C34 1.551 . S
C241 C97 1.549 . S
C246 C156 1.561 . S
C256 C168 1.549 . S
C251 C82 1.550 . S
C266 C180 1.548 . S
C261 C91 1.550 . S
C276 C192 1.564 . S
C271 C86 1.550 . S
C286 C185 1.530 . S
C281 C26 1.482 . S
C296 C194 1.501 . S
C291 C36 1.462 . S
C306 C158 1.519 . S
C301 C32 1.484 . S
C316 C173 1.548 . S
C311 C42 1.505 . S
C321 C18 1.525 . S
C326 C170 1.609 . S
C336 C182 1.623 . S
C331 C50 1.545 . S
C341 C4 1.572 . S
C346 C197 1.621 . S
C351 C48 1.551 . S
C356 C161 1.605 . S
C366 C137 1.554 . S
C361 C78 1.509 . S
C371 C88 1.471 . S
C376 C146 1.509 . S
C386 C110 1.534 . S
C381 C84 1.496 . S
C396 C122 1.473 . S
C391 C94 1.439 . S
C406 C125 1.651 . S
C401 C70 1.596 . S
C416 C134 1.602 . S
C411 C102 1.524 . S
C421 C56 1.563 . S
C426 C149 1.613 . S
C431 C100 1.538 . S
C436 C113 1.590 . S
