# Generated by pormake.
# Topology ctn, (3,4)-cn, num edge types: 1
# Building blocks:
#     Node 0, Type 0, BuildingBlock: KAKCAD_clean_linker_0, # of connection points: 3
#     Node 1, Type 0, BuildingBlock: KAKCAD_clean_linker_0, # of connection points: 3
#     Node 2, Type 0, BuildingBlock: KAKCAD_clean_linker_0, # of connection points: 3
#     Node 3, Type 0, BuildingBlock: KAKCAD_clean_linker_0, # of connection points: 3
#     Node 4, Type 0, BuildingBlock: KAKCAD_clean_linker_0, # of connection points: 3
#     Node 5, Type 0, BuildingBlock: KAKCAD_clean_linker_0, # of connection points: 3
#     Node 6, Type 0, BuildingBlock: KAKCAD_clean_linker_0, # of connection points: 3
#     Node 7, Type 0, BuildingBlock: KAKCAD_clean_linker_0, # of connection points: 3
#     Node 8, Type 0, BuildingBlock: KAKCAD_clean_linker_0, # of connection points: 3
#     Node 9, Type 0, BuildingBlock: KAKCAD_clean_linker_0, # of connection points: 3
#     Node 10, Type 0, BuildingBlock: KAKCAD_clean_linker_0, # of connection points: 3
#     Node 11, Type 0, BuildingBlock: KAKCAD_clean_linker_0, # of connection points: 3
#     Node 12, Type 0, BuildingBlock: KAKCAD_clean_linker_0, # of connection points: 3
#     Node 13, Type 0, BuildingBlock: KAKCAD_clean_linker_0, # of connection points: 3
#     Node 14, Type 0, BuildingBlock: KAKCAD_clean_linker_0, # of connection points: 3
#     Node 15, Type 0, BuildingBlock: KAKCAD_clean_linker_0, # of connection points: 3
#     Node 16, Type 1, BuildingBlock: KUFVIS_clean_sbu_0, # of connection points: 4
#     Node 17, Type 1, BuildingBlock: KUFVIS_clean_sbu_0, # of connection points: 4
#     Node 18, Type 1, BuildingBlock: KUFVIS_clean_sbu_0, # of connection points: 4
#     Node 19, Type 1, BuildingBlock: KUFVIS_clean_sbu_0, # of connection points: 4
#     Node 20, Type 1, BuildingBlock: KUFVIS_clean_sbu_0, # of connection points: 4
#     Node 21, Type 1, BuildingBlock: KUFVIS_clean_sbu_0, # of connection points: 4
#     Node 22, Type 1, BuildingBlock: KUFVIS_clean_sbu_0, # of connection points: 4
#     Node 23, Type 1, BuildingBlock: KUFVIS_clean_sbu_0, # of connection points: 4
#     Node 24, Type 1, BuildingBlock: KUFVIS_clean_sbu_0, # of connection points: 4
#     Node 25, Type 1, BuildingBlock: KUFVIS_clean_sbu_0, # of connection points: 4
#     Node 26, Type 1, BuildingBlock: KUFVIS_clean_sbu_0, # of connection points: 4
#     Node 27, Type 1, BuildingBlock: KUFVIS_clean_sbu_0, # of connection points: 4
#     Edge 28, Type (0, 1), BuildingBlock: TEMPAE_clean_linker_10, # of connection points: 2
#     Edge 29, Type (0, 1), BuildingBlock: TEMPAE_clean_linker_10, # of connection points: 2
#     Edge 30, Type (0, 1), BuildingBlock: TEMPAE_clean_linker_10, # of connection points: 2
#     Edge 31, Type (0, 1), BuildingBlock: TEMPAE_clean_linker_10, # of connection points: 2
#     Edge 32, Type (0, 1), BuildingBlock: TEMPAE_clean_linker_10, # of connection points: 2
#     Edge 33, Type (0, 1), BuildingBlock: TEMPAE_clean_linker_10, # of connection points: 2
#     Edge 34, Type (0, 1), BuildingBlock: TEMPAE_clean_linker_10, # of connection points: 2
#     Edge 35, Type (0, 1), BuildingBlock: TEMPAE_clean_linker_10, # of connection points: 2
#     Edge 36, Type (0, 1), BuildingBlock: TEMPAE_clean_linker_10, # of connection points: 2
#     Edge 37, Type (0, 1), BuildingBlock: TEMPAE_clean_linker_10, # of connection points: 2
#     Edge 38, Type (0, 1), BuildingBlock: TEMPAE_clean_linker_10, # of connection points: 2
#     Edge 39, Type (0, 1), BuildingBlock: TEMPAE_clean_linker_10, # of connection points: 2
#     Edge 40, Type (0, 1), BuildingBlock: TEMPAE_clean_linker_10, # of connection points: 2
#     Edge 41, Type (0, 1), BuildingBlock: TEMPAE_clean_linker_10, # of connection points: 2
#     Edge 42, Type (0, 1), BuildingBlock: TEMPAE_clean_linker_10, # of connection points: 2
#     Edge 43, Type (0, 1), BuildingBlock: TEMPAE_clean_linker_10, # of connection points: 2
#     Edge 44, Type (0, 1), BuildingBlock: TEMPAE_clean_linker_10, # of connection points: 2
#     Edge 45, Type (0, 1), BuildingBlock: TEMPAE_clean_linker_10, # of connection points: 2
#     Edge 46, Type (0, 1), BuildingBlock: TEMPAE_clean_linker_10, # of connection points: 2
#     Edge 47, Type (0, 1), BuildingBlock: TEMPAE_clean_linker_10, # of connection points: 2
#     Edge 48, Type (0, 1), BuildingBlock: TEMPAE_clean_linker_10, # of connection points: 2
#     Edge 49, Type (0, 1), BuildingBlock: TEMPAE_clean_linker_10, # of connection points: 2
#     Edge 50, Type (0, 1), BuildingBlock: TEMPAE_clean_linker_10, # of connection points: 2
#     Edge 51, Type (0, 1), BuildingBlock: TEMPAE_clean_linker_10, # of connection points: 2
#     Edge 52, Type (0, 1), BuildingBlock: TEMPAE_clean_linker_10, # of connection points: 2
#     Edge 53, Type (0, 1), BuildingBlock: TEMPAE_clean_linker_10, # of connection points: 2
#     Edge 54, Type (0, 1), BuildingBlock: TEMPAE_clean_linker_10, # of connection points: 2
#     Edge 55, Type (0, 1), BuildingBlock: TEMPAE_clean_linker_10, # of connection points: 2
#     Edge 56, Type (0, 1), BuildingBlock: TEMPAE_clean_linker_10, # of connection points: 2
#     Edge 57, Type (0, 1), BuildingBlock: TEMPAE_clean_linker_10, # of connection points: 2
#     Edge 58, Type (0, 1), BuildingBlock: TEMPAE_clean_linker_10, # of connection points: 2
#     Edge 59, Type (0, 1), BuildingBlock: TEMPAE_clean_linker_10, # of connection points: 2
#     Edge 60, Type (0, 1), BuildingBlock: TEMPAE_clean_linker_10, # of connection points: 2
#     Edge 61, Type (0, 1), BuildingBlock: TEMPAE_clean_linker_10, # of connection points: 2
#     Edge 62, Type (0, 1), BuildingBlock: TEMPAE_clean_linker_10, # of connection points: 2
#     Edge 63, Type (0, 1), BuildingBlock: TEMPAE_clean_linker_10, # of connection points: 2
#     Edge 64, Type (0, 1), BuildingBlock: TEMPAE_clean_linker_10, # of connection points: 2
#     Edge 65, Type (0, 1), BuildingBlock: TEMPAE_clean_linker_10, # of connection points: 2
#     Edge 66, Type (0, 1), BuildingBlock: TEMPAE_clean_linker_10, # of connection points: 2
#     Edge 67, Type (0, 1), BuildingBlock: TEMPAE_clean_linker_10, # of connection points: 2
#     Edge 68, Type (0, 1), BuildingBlock: TEMPAE_clean_linker_10, # of connection points: 2
#     Edge 69, Type (0, 1), BuildingBlock: TEMPAE_clean_linker_10, # of connection points: 2
#     Edge 70, Type (0, 1), BuildingBlock: TEMPAE_clean_linker_10, # of connection points: 2
#     Edge 71, Type (0, 1), BuildingBlock: TEMPAE_clean_linker_10, # of connection points: 2
#     Edge 72, Type (0, 1), BuildingBlock: TEMPAE_clean_linker_10, # of connection points: 2
#     Edge 73, Type (0, 1), BuildingBlock: TEMPAE_clean_linker_10, # of connection points: 2
#     Edge 74, Type (0, 1), BuildingBlock: TEMPAE_clean_linker_10, # of connection points: 2
#     Edge 75, Type (0, 1), BuildingBlock: TEMPAE_clean_linker_10, # of connection points: 2
# Relax obj value: 0.012
# Max RMSD: 0.061
# Mean RMSD: 0.028
data_MOF--net-ctn--node1-KUFVIS_clean_sbu_0--node2-KAKCAD_clean_linker_0--edge1-TEMPAE_clean_linker_10
_symmetry_space_group_name_H-M    P1
_symmetry_Int_Tables_number       1
_symmetry_cell_setting            triclinic
loop_
_symmetry_equiv_pos_as_xyz
'x, y, z'
_cell_length_a     67.640489
_cell_length_b     67.399771
_cell_length_c     67.681721
_cell_angle_alpha  91.013704
_cell_angle_beta   90.568308
_cell_angle_gamma 91.718711
loop_
_atom_site_label
_atom_site_type_symbol
_atom_site_fract_x
_atom_site_fract_y
_atom_site_fract_z
_atom_type_partial_charge
C0 C 0.02599 0.09193 0.99272 0.0
C1 C 0.02897 0.11176 0.99938 0.0
C2 C 0.03086 0.07611 0.00477 0.0
C3 C 0.03838 0.07968 0.02392 0.0
C4 C 0.0412 0.09931 0.03078 0.0
C5 C 0.03678 0.11518 0.01859 0.0
C6 C 0.04323 0.0629 0.03671 0.0
C7 C 0.05863 0.05034 0.03161 0.0
C8 C 0.06339 0.03435 0.04368 0.0
C9 C 0.05205 0.03071 0.06061 0.0
C10 C 0.03639 0.04299 0.06576 0.0
C11 C 0.03231 0.05931 0.05388 0.0
C12 C 0.02403 0.03839 0.08325 0.0
C13 C 0.01723 0.01882 0.08652 0.0
C14 C 0.01888 0.05343 0.09674 0.0
C15 C 0.00731 0.04895 0.11321 0.0
C16 C 1.00045 0.02938 0.11641 0.0
C17 C 0.0803 0.02154 0.03879 0.0
C18 C 0.08343 0.015 0.01926 0.0
C19 C 0.09345 0.01576 0.0537 0.0
C20 C 0.10934 0.00373 0.0492 0.0
C21 C 0.11243 0.9971 0.0297 0.0
C22 C 0.09928 0.00286 0.01478 0.0
C23 C 0.00552 0.01438 0.10286 0.0
H24 H 0.01961 0.08853 0.97829 0.0
H25 H 0.02845 0.06103 0.99926 0.0
H26 H 0.04713 0.10237 0.04549 0.0
H27 H 0.03973 0.13012 0.0242 0.0
H28 H 0.06722 0.05337 0.01851 0.0
H29 H 0.02021 0.06884 0.05758 0.0
H30 H 0.05538 0.01822 0.06982 0.0
H31 H 0.02078 0.00693 0.0763 0.0
H32 H 0.02399 0.06863 0.09467 0.0
H33 H 0.00353 0.06085 0.12333 0.0
H34 H 0.07349 0.01906 0.00746 0.0
H35 H 0.09158 0.02072 0.06886 0.0
H36 H 1.00058 0.99914 0.105 0.0
H37 H 0.10136 0.99815 0.99957 0.0
H38 H 0.11909 0.99942 0.06107 0.0
C39 C 0.37405 0.72456 0.24134 0.0
C40 C 0.3799 0.70818 0.25224 0.0
C41 C 0.35911 0.7224 0.22694 0.0
C42 C 0.34991 0.70372 0.2229 0.0
C43 C 0.35635 0.68723 0.23344 0.0
C44 C 0.37102 0.68947 0.24806 0.0
C45 C 0.33321 0.70153 0.20831 0.0
C46 C 0.33284 0.71305 0.19118 0.0
C47 C 0.31665 0.71181 0.17791 0.0
C48 C 0.30127 0.69779 0.18149 0.0
C49 C 0.30145 0.68573 0.19827 0.0
C50 C 0.31728 0.6882 0.21181 0.0
C51 C 0.28509 0.6707 0.20176 0.0
C52 C 0.26573 0.67363 0.1948 0.0
C53 C 0.28873 0.65309 0.21193 0.0
C54 C 0.27349 0.63911 0.21532 0.0
C55 C 0.2542 0.6419 0.20807 0.0
C56 C 0.31526 0.7257 0.1609 0.0
C57 C 0.32339 0.74517 0.16235 0.0
C58 C 0.30481 0.7201 0.14348 0.0
C59 C 0.30155 0.7338 0.12861 0.0
C60 C 0.30928 0.75342 0.13025 0.0
C61 C 0.32073 0.75867 0.14716 0.0
C62 C 0.25067 0.65932 0.19755 0.0
H63 H 0.38056 0.73918 0.24444 0.0
H64 H 0.3544 0.73553 0.21943 0.0
H65 H 0.35002 0.67252 0.23047 0.0
H66 H 0.37543 0.67658 0.25616 0.0
H67 H 0.3453 0.72292 0.18811 0.0
H68 H 0.31698 0.68008 0.22546 0.0
H69 H 0.28896 0.69639 0.17124 0.0
H70 H 0.26196 0.68706 0.18729 0.0
H71 H 0.30342 0.6499 0.21723 0.0
H72 H 0.27695 0.62621 0.22383 0.0
H73 H 0.33137 0.75032 0.17548 0.0
H74 H 0.29878 0.70517 0.14131 0.0
H75 H 0.23627 0.66203 0.19124 0.0
H76 H 0.32752 0.77334 0.14891 0.0
H77 H 0.29244 0.72899 0.1161 0.0
C78 C 1.00076 0.47192 0.10351 0.0
C79 C 0.00903 0.49108 0.10693 0.0
C80 C 0.98857 0.46787 0.08702 0.0
C81 C 0.98423 0.48291 0.07366 0.0
C82 C 0.99222 0.50215 0.07725 0.0
C83 C 0.00455 0.50616 0.09365 0.0
C84 C 0.9719 0.47843 0.05571 0.0
C85 C 0.95677 0.49108 0.05015 0.0
C86 C 0.94522 0.48706 0.03305 0.0
C87 C 0.94944 0.47038 0.02115 0.0
C88 C 0.96453 0.45741 0.02648 0.0
C89 C 0.97545 0.46155 0.04398 0.0
C90 C 0.96885 0.43949 0.01402 0.0
C91 C 0.95366 0.42893 0.00362 0.0
C92 C 0.98824 0.43252 0.01267 0.0
C93 C 0.9922 0.41529 1.00178 0.0
C94 C 0.97701 0.4047 0.99142 0.0
C95 C 0.92849 0.50005 0.02795 0.0
C96 C 0.9159 0.50698 0.04281 0.0
C97 C 0.92484 0.50552 0.00831 0.0
C98 C 0.90901 0.51763 0.00367 0.0
C99 C 0.8964 0.52451 0.01855 0.0
C100 C 0.9001 0.51904 0.03818 0.0
C101 C 0.95771 0.41196 0.99233 0.0
H102 H 0.00403 0.45996 0.11339 0.0
H103 H 0.9825 0.45294 0.08474 0.0
H104 H 0.98927 0.51401 0.06715 0.0
H105 H 0.01054 0.52111 0.09599 0.0
H106 H 0.95391 0.50405 0.05925 0.0
H107 H 0.98688 0.45165 0.04855 0.0
H108 H 0.94082 0.46745 0.00781 0.0
H109 H 0.93849 0.43353 0.00438 0.0
H110 H 1.0005 0.44036 0.02002 0.0
H111 H 0.00722 0.41019 1.00178 0.0
H112 H 0.9181 0.50289 0.05806 0.0
H113 H 0.93433 0.50059 0.99652 0.0
H114 H 0.94561 0.4046 0.98426 0.0
H115 H 0.89087 0.52425 0.05006 0.0
H116 H 0.90653 0.52143 0.98839 0.0
C117 C 0.68565 0.76026 0.14597 0.0
C118 C 0.70499 0.75652 0.13973 0.0
C119 C 0.68236 0.77405 0.16125 0.0
C120 C 0.69836 0.78433 0.17059 0.0
C121 C 0.7177 0.78005 0.16474 0.0
C122 C 0.72096 0.76637 0.14949 0.0
C123 C 0.69517 0.79991 0.18602 0.0
C124 C 0.6813 0.79707 0.20106 0.0
C125 C 0.67889 0.81162 0.21604 0.0
C126 C 0.69162 0.82866 0.21624 0.0
C127 C 0.70601 0.83158 0.20153 0.0
C128 C 0.70674 0.81751 0.18598 0.0
C129 C 0.72111 0.84842 0.20284 0.0
C130 C 0.71762 0.8662 0.21339 0.0
C131 C 0.7398 0.84644 0.1941 0.0
C132 C 0.75433 0.86146 0.19579 0.0
C133 C 0.75132 0.87866 0.20729 0.0
C134 C 0.66329 0.80884 0.2315 0.0
C135 C 0.64568 0.79785 0.22718 0.0
C136 C 0.66563 0.81723 0.25064 0.0
C137 C 0.65077 0.81503 0.26475 0.0
C138 C 0.63332 0.80374 0.26053 0.0
C139 C 0.63117 0.79503 0.24152 0.0
C140 C 0.73259 0.88093 0.21586 0.0
H141 H 0.67303 0.75297 0.13865 0.0
H142 H 0.6673 0.77708 0.16535 0.0
H143 H 0.73039 0.78734 0.17194 0.0
H144 H 0.73605 0.76351 0.14532 0.0
H145 H 0.67279 0.78322 0.2013 0.0
H146 H 0.71651 0.82004 0.17366 0.0
H147 H 0.69042 0.83958 0.22797 0.0
H148 H 0.70343 0.86882 0.22001 0.0
H149 H 0.74371 0.83303 0.18626 0.0
H150 H 0.76813 0.85924 0.18824 0.0
H151 H 0.64288 0.79142 0.21262 0.0
H152 H 0.679 0.82543 0.25497 0.0
H153 H 0.72953 0.89384 0.22493 0.0
H154 H 0.61834 0.7858 0.23756 0.0
H155 H 0.65308 0.82237 0.27897 0.0
C156 C 0.98968 0.97702 0.4238 0.0
C157 C 0.99837 0.98537 0.40693 0.0
C158 C 1.00132 0.97153 0.43989 0.0
C159 C 0.02206 0.9739 0.43948 0.0
C160 C 0.03075 0.98212 0.42255 0.0
C161 C 0.01909 0.98793 0.4066 0.0
C162 C 0.03449 0.96823 0.45678 0.0
C163 C 0.02909 0.95184 0.46845 0.0
C164 C 0.04025 0.94711 0.4853 0.0
C165 C 0.05719 0.9588 0.49032 0.0
C166 C 0.06312 0.97478 0.47855 0.0
C167 C 0.0517 0.97948 0.46196 0.0
C168 C 0.08116 0.98686 0.48362 0.0
C169 C 0.08296 0.99673 0.50202 0.0
C170 C 0.09628 0.98928 0.46971 0.0
C171 C 0.11279 1.00165 0.474 0.0
C172 C 0.11423 0.01211 0.4921 0.0
C173 C 0.03432 0.92991 0.49765 0.0
C174 C 0.03443 0.93173 0.51838 0.0
C175 C 0.0288 0.91149 0.48885 0.0
C176 C 0.02379 0.89519 0.50052 0.0
C177 C 0.02399 0.89699 0.52126 0.0
C178 C 0.02924 0.91548 0.53004 0.0
C179 C 0.09926 0.00946 0.50613 0.0
H180 H 0.97383 0.97442 0.42456 0.0
H181 H 0.99396 0.96559 0.45272 0.0
H182 H 0.04666 0.98395 0.42145 0.0
H183 H 0.02639 0.99452 0.39405 0.0
H184 H 0.0161 0.94277 0.46454 0.0
H185 H 0.05601 0.99235 0.45348 0.0
H186 H 0.06609 0.95518 0.50309 0.0
H187 H 0.07142 0.99513 0.51292 0.0
H188 H 0.09518 0.98176 0.45544 0.0
H189 H 0.12408 0.00364 0.4629 0.0
H190 H 0.03845 0.94576 0.5256 0.0
H191 H 0.02872 0.90958 0.47292 0.0
H192 H 0.10006 0.01747 0.52015 0.0
H193 H 0.02971 0.91731 0.54597 0.0
H194 H 0.01968 0.88117 0.49331 0.0
C195 C 0.13982 0.68416 0.76198 0.0
C196 C 0.13425 0.70337 0.75686 0.0
C197 C 0.15568 0.68149 0.77505 0.0
C198 C 0.16629 0.69797 0.78321 0.0
C199 C 0.16099 0.71712 0.77762 0.0
C200 C 0.14516 0.71978 0.76468 0.0
C201 C 0.18269 0.69554 0.79774 0.0
C202 C 0.19678 0.68085 0.79509 0.0
C203 C 0.213 0.67964 0.80818 0.0
C204 C 0.2152 0.69369 0.82378 0.0
C205 C 0.20114 0.70842 0.82681 0.0
C206 C 0.18465 0.70867 0.81401 0.0
C207 C 0.20389 0.72404 0.8427 0.0
C208 C 0.21397 0.72028 0.8605 0.0
C209 C 0.19662 0.74318 0.84 0.0
C210 C 0.19906 0.75791 0.85461 0.0
C211 C 0.20962 0.75438 0.87214 0.0
C212 C 0.2278 0.6639 0.80539 0.0
C213 C 0.22168 0.6444 0.80002 0.0
C214 C 0.24813 0.66817 0.80827 0.0
C215 C 0.26195 0.6533 0.80598 0.0
C216 C 0.25581 0.63381 0.80063 0.0
C217 C 0.23552 0.62955 0.79764 0.0
C218 C 0.21702 0.73529 0.87489 0.0
H219 H 0.13161 0.67123 0.75625 0.0
H220 H 0.15932 0.66656 0.77913 0.0
H221 H 0.16916 0.73014 0.78321 0.0
H222 H 0.14151 0.73474 0.76069 0.0
H223 H 0.19548 0.67078 0.78246 0.0
H224 H 0.17314 0.71919 0.81662 0.0
H225 H 0.22797 0.69316 0.83347 0.0
H226 H 0.21954 0.70573 0.86344 0.0
H227 H 0.18921 0.74707 0.82643 0.0
H228 H 0.1926 0.77213 0.85197 0.0
H229 H 0.20614 0.64051 0.79796 0.0
H230 H 0.25343 0.68309 0.81205 0.0
H231 H 0.22546 0.73192 0.888 0.0
H232 H 0.2303 0.61463 0.79373 0.0
H233 H 0.27751 0.65714 0.80807 0.0
C234 C 1.00107 0.60114 0.49928 0.0
C235 C 0.99539 0.60137 0.51924 0.0
C236 C 0.99664 0.5846 0.48701 0.0
C237 C 0.98674 0.56767 0.49444 0.0
C238 C 0.98134 0.56785 0.51446 0.0
C239 C 0.98529 0.58451 0.52654 0.0
C240 C 0.98185 0.54994 0.4815 0.0
C241 C 0.99439 0.54437 0.46602 0.0
C242 C 0.98976 0.52771 0.45381 0.0
C243 C 0.97263 0.51612 0.45767 0.0
C244 C 0.96003 0.52124 0.47323 0.0
C245 C 0.96456 0.53835 0.48472 0.0
C246 C 0.94206 0.50883 0.47758 0.0
C247 C 0.92988 0.50098 0.46223 0.0
C248 C 0.93682 0.50497 0.49725 0.0
C249 C 0.91971 0.49376 0.50147 0.0
C250 C 0.90745 0.48605 0.48613 0.0
C251 C 0.00264 0.52269 0.43679 0.0
C252 C 0.01062 0.53784 0.42498 0.0
C253 C 0.00678 0.50285 0.43197 0.0
C254 C 0.01856 0.4983 0.41569 0.0
C255 C 0.02652 0.51349 0.40393 0.0
C256 C 0.02241 0.5333 0.4088 0.0
C257 C 0.91278 0.48972 0.46645 0.0
H258 H 0.00906 0.61368 0.49308 0.0
H259 H 1.00083 0.58525 0.47164 0.0
H260 H 0.97407 0.55507 0.52098 0.0
H261 H 0.98019 0.58412 0.54164 0.0
H262 H 0.00803 0.55277 0.46365 0.0
H263 H 0.95428 0.54283 0.496 0.0
H264 H 0.96903 0.50315 0.4485 0.0
H265 H 0.93331 0.5039 0.44694 0.0
H266 H 0.94605 0.51051 0.50943 0.0
H267 H 0.91617 0.49096 0.51676 0.0
H268 H 0.00742 0.55324 0.428 0.0
H269 H 1.00109 0.49083 0.44089 0.0
H270 H 0.90349 0.48424 0.4543 0.0
H271 H 0.02797 0.54534 0.39981 0.0
H272 H 0.02159 0.48291 0.41242 0.0
C273 C 0.8207 0.77257 0.86865 0.0
C274 C 0.80202 0.76344 0.87156 0.0
C275 C 0.82337 0.78678 0.85397 0.0
C276 C 0.80737 0.79233 0.84206 0.0
C277 C 0.78865 0.78336 0.84516 0.0
C278 C 0.78603 0.76905 0.85968 0.0
C279 C 0.81018 0.80704 0.8261 0.0
C280 C 0.82634 0.80578 0.81328 0.0
C281 C 0.8285 0.81882 0.79743 0.0
C282 C 0.8145 0.83354 0.79469 0.0
C283 C 0.79843 0.83536 0.80758 0.0
C284 C 0.79636 0.82194 0.82318 0.0
C285 C 0.78378 0.85117 0.80459 0.0
C286 C 0.79005 0.87039 0.79915 0.0
C287 C 0.76341 0.84716 0.80693 0.0
C288 C 0.74967 0.86193 0.80373 0.0
C289 C 0.75595 0.88108 0.79808 0.0
C290 C 0.84496 0.81652 0.78328 0.0
C291 C 0.86445 0.81441 0.7901 0.0
C292 C 0.84116 0.81583 0.76284 0.0
C293 C 0.85644 0.81259 0.74951 0.0
C294 C 0.87598 0.81021 0.75626 0.0
C295 C 0.8798 0.81144 0.77676 0.0
C296 C 0.77632 0.88513 0.79593 0.0
H297 H 0.83331 0.76852 0.87754 0.0
H298 H 0.83795 0.79351 0.85202 0.0
H299 H 0.77607 0.78717 0.83611 0.0
H300 H 0.7714 0.76247 0.86171 0.0
H301 H 0.83682 0.79407 0.81513 0.0
H302 H 0.78415 0.82329 0.83331 0.0
H303 H 0.81608 0.84349 0.78236 0.0
H304 H 0.80563 0.87411 0.79755 0.0
H305 H 0.75802 0.83247 0.81084 0.0
H306 H 0.73408 0.85822 0.80526 0.0
H307 H 0.86782 0.81509 0.80579 0.0
H308 H 0.82624 0.81718 0.75718 0.0
H309 H 0.7817 0.8998 0.79191 0.0
H310 H 0.89466 0.81006 0.78254 0.0
H311 H 0.85277 0.81135 0.73392 0.0
C312 C 0.3217 0.27091 0.36615 0.0
C313 C 0.30299 0.26224 0.36992 0.0
C314 C 0.32403 0.285 0.35131 0.0
C315 C 0.30764 0.29091 0.34013 0.0
C316 C 0.2889 0.28246 0.34415 0.0
C317 C 0.28661 0.26824 0.35881 0.0
C318 C 0.31006 0.3053 0.32384 0.0
C319 C 0.32531 0.30319 0.31012 0.0
C320 C 0.32707 0.3159 0.29395 0.0
C321 C 0.31312 0.33077 0.29153 0.0
C322 C 0.29784 0.33349 0.30529 0.0
C323 C 0.29666 0.32066 0.32152 0.0
C324 C 0.28307 0.34946 0.30256 0.0
C325 C 0.28817 0.36706 0.29264 0.0
C326 C 0.26361 0.34722 0.3096 0.0
C327 C 0.24983 0.36205 0.30694 0.0
C328 C 0.25477 0.37938 0.2965 0.0
C329 C 0.34333 0.31341 0.27946 0.0
C330 C 0.36244 0.30877 0.28593 0.0
C331 C 0.33989 0.31544 0.25906 0.0
C332 C 0.3551 0.31268 0.24551 0.0
C333 C 0.37412 0.30771 0.25197 0.0
C334 C 0.37761 0.3059 0.27238 0.0
C335 C 0.27419 0.38155 0.28934 0.0
H336 H 0.33458 0.26654 0.37445 0.0
H337 H 0.33864 0.29133 0.34862 0.0
H338 H 0.27602 0.28655 0.33568 0.0
H339 H 0.27197 0.26201 0.36153 0.0
H340 H 0.33542 0.29113 0.31166 0.0
H341 H 0.28546 0.32267 0.33263 0.0
H342 H 0.31423 0.34019 0.2788 0.0
H343 H 0.30301 0.36984 0.28734 0.0
H344 H 0.25875 0.33387 0.31701 0.0
H345 H 0.23529 0.35979 0.31316 0.0
H346 H 0.36572 0.30734 0.30153 0.0
H347 H 0.32533 0.31878 0.25349 0.0
H348 H 0.27873 0.39434 0.28088 0.0
H349 H 0.39197 0.30182 0.27792 0.0
H350 H 0.3519 0.31439 0.22993 0.0
C351 C 0.49211 0.99551 0.60889 0.0
C352 C 0.51276 0.99351 0.60854 0.0
C353 C 0.48056 0.99151 0.59192 0.0
C354 C 0.48936 0.9854 0.57416 0.0
C355 C 0.51 0.98347 0.57381 0.0
C356 C 0.52154 0.98744 0.59076 0.0
C357 C 0.47708 0.98089 0.55611 0.0
C358 C 0.46111 0.9928 0.55113 0.0
C359 C 0.44944 0.9886 0.53414 0.0
C360 C 0.45407 0.97227 0.52196 0.0
C361 C 0.46998 0.96012 0.52666 0.0
C362 C 0.4813 0.96456 0.5438 0.0
C363 C 0.47462 0.94258 0.51394 0.0
C364 C 0.45938 0.93028 0.50576 0.0
C365 C 0.49436 0.93775 0.51022 0.0
C366 C 0.49874 0.92093 0.49884 0.0
C367 C 0.48349 0.90857 0.4908 0.0
C368 C 0.43237 1.00123 0.52923 0.0
C369 C 0.41977 0.00794 0.54417 0.0
C370 C 0.42851 0.00669 0.50962 0.0
C371 C 0.41251 0.0186 0.5051 0.0
C372 C 0.39992 0.0253 0.52007 0.0
C373 C 0.40377 0.01981 0.53966 0.0
C374 C 0.46376 0.91351 0.49432 0.0
H375 H 0.48487 1.00035 0.62226 0.0
H376 H 0.46469 0.99297 0.59281 0.0
H377 H 0.51732 0.97901 0.56035 0.0
H378 H 0.53735 0.98552 0.58998 0.0
H379 H 0.45803 0.00568 0.56028 0.0
H380 H 0.49314 0.95491 0.5479 0.0
H381 H 0.4452 0.96894 0.50884 0.0
H382 H 0.44402 0.93332 0.50857 0.0
H383 H 0.50649 0.94705 0.51601 0.0
H384 H 0.51409 0.91769 0.49619 0.0
H385 H 0.42215 0.00387 0.5594 0.0
H386 H 0.43801 1.00196 0.49775 0.0
H387 H 0.45165 0.90414 0.4886 0.0
H388 H 0.39454 0.02488 0.5516 0.0
H389 H 0.4099 0.0224 0.48984 0.0
C390 C 0.1996 0.27909 0.63033 0.0
C391 C 0.20238 0.25899 0.63453 0.0
C392 C 0.19576 0.29275 0.64546 0.0
C393 C 0.19453 0.28667 0.66517 0.0
C394 C 0.19668 0.26649 0.66935 0.0
C395 C 0.2006 0.2528 0.65419 0.0
C396 C 0.1923 0.30155 0.68141 0.0
C397 C 0.17902 0.29814 0.69685 0.0
C398 C 0.17709 0.31216 0.71239 0.0
C399 C 0.18986 0.32916 0.71278 0.0
C400 C 0.20388 0.3325 0.6978 0.0
C401 C 0.2042 0.31893 0.68177 0.0
C402 C 0.21896 0.34931 0.69932 0.0
C403 C 0.21535 0.36695 0.71005 0.0
C404 C 0.23767 0.34746 0.69063 0.0
C405 C 0.25218 0.36249 0.69261 0.0
C406 C 0.24904 0.37956 0.70427 0.0
C407 C 0.16178 0.30901 0.72806 0.0
C408 C 0.14401 0.2983 0.72375 0.0
C409 C 0.16454 0.31682 0.74738 0.0
C410 C 0.14991 0.31435 0.7617 0.0
C411 C 0.13229 0.30333 0.75746 0.0
C412 C 0.12975 0.29517 0.73826 0.0
C413 C 0.23026 0.3817 0.71275 0.0
H414 H 0.20043 0.28429 0.6153 0.0
H415 H 0.19389 0.30816 0.64175 0.0
H416 H 0.19604 0.2614 0.68443 0.0
H417 H 0.20282 0.23747 0.65798 0.0
H418 H 0.17018 0.28448 0.69661 0.0
H419 H 0.21417 0.3215 0.66962 0.0
H420 H 0.18901 0.33972 0.72488 0.0
H421 H 0.20111 0.36943 0.71661 0.0
H422 H 0.24158 0.33415 0.68262 0.0
H423 H 0.26606 0.36039 0.68516 0.0
H424 H 0.14086 0.29234 0.70907 0.0
H425 H 0.17805 0.32479 0.75169 0.0
H426 H 0.22711 0.39449 0.72193 0.0
H427 H 0.11679 0.28615 0.73427 0.0
H428 H 0.15252 0.32127 0.77606 0.0
C429 C 0.87702 0.22219 0.73679 0.0
C430 C 0.88281 0.20558 0.74738 0.0
C431 C 0.86233 0.22029 0.72212 0.0
C432 C 0.85333 0.20164 0.71748 0.0
C433 C 0.85974 0.18492 0.72769 0.0
C434 C 0.87414 0.18691 0.74261 0.0
C435 C 0.83679 0.19973 0.70267 0.0
C436 C 0.83645 0.21179 0.68591 0.0
C437 C 0.82029 0.21094 0.67258 0.0
C438 C 0.80496 0.19672 0.67565 0.0
C439 C 0.80517 0.18407 0.692 0.0
C440 C 0.82093 0.18618 0.70566 0.0
C441 C 0.78886 0.16889 0.69504 0.0
C442 C 0.76943 0.1721 0.68846 0.0
C443 C 0.79259 0.15093 0.70456 0.0
C444 C 0.77732 0.13695 0.70788 0.0
C445 C 0.75791 0.14015 0.70124 0.0
C446 C 0.81892 0.22544 0.65605 0.0
C447 C 0.82727 0.24479 0.65807 0.0
C448 C 0.80836 0.22052 0.63851 0.0
C449 C 0.80526 0.23473 0.62409 0.0
C450 C 0.81328 0.2542 0.62626 0.0
C451 C 0.82479 0.25879 0.64329 0.0
C452 C 0.75432 0.15783 0.69117 0.0
H453 H 0.88338 0.23678 0.74035 0.0
H454 H 0.85764 0.23357 0.71488 0.0
H455 H 0.85355 0.17025 0.72427 0.0
H456 H 0.87851 0.17385 0.75047 0.0
H457 H 0.8489 0.22179 0.68322 0.0
H458 H 0.8206 0.17762 0.71903 0.0
H459 H 0.79264 0.19562 0.66539 0.0
H460 H 0.76563 0.18576 0.6814 0.0
H461 H 0.80735 0.14752 0.7095 0.0
H462 H 0.78083 0.12379 0.71597 0.0
H463 H 0.83532 0.24947 0.67131 0.0
H464 H 0.80215 0.20573 0.63588 0.0
H465 H 0.7398 0.16081 0.68531 0.0
H466 H 0.83179 0.27331 0.64547 0.0
H467 H 0.79607 0.2304 0.61148 0.0
C468 C 0.534 0.59208 0.49115 0.0
C469 C 0.52759 0.61009 0.49934 0.0
C470 C 0.53836 0.57615 0.50327 0.0
C471 C 0.53654 0.5778 0.52392 0.0
C472 C 0.53024 0.59585 0.53211 0.0
C473 C 0.52578 0.61175 0.51999 0.0
C474 C 0.54111 0.56076 0.53684 0.0
C475 C 0.55708 0.54851 0.53255 0.0
C476 C 0.56141 0.53237 0.54457 0.0
C477 C 0.54954 0.52848 0.56105 0.0
C478 C 0.53352 0.54046 0.56561 0.0
C479 C 0.52945 0.55659 0.55348 0.0
C480 C 0.52093 0.53595 0.58295 0.0
C481 C 0.51434 0.51636 0.58648 0.0
C482 C 0.51556 0.55113 0.59618 0.0
C483 C 0.504 0.54677 0.61268 0.0
C484 C 0.49738 0.52718 0.61617 0.0
C485 C 0.5783 0.5195 0.53993 0.0
C486 C 0.58134 0.51262 0.52051 0.0
C487 C 0.59134 0.51378 0.55496 0.0
C488 C 0.60705 0.50143 0.55066 0.0
C489 C 0.60997 0.49439 0.53127 0.0
C490 C 0.59694 0.50012 0.51624 0.0
C491 C 0.50263 0.51204 0.60285 0.0
H492 H 0.5358 0.59031 0.47535 0.0
H493 H 0.54294 0.56243 0.49638 0.0
H494 H 0.52888 0.59778 0.54796 0.0
H495 H 0.52067 0.62528 0.52683 0.0
H496 H 0.56649 0.5518 0.52009 0.0
H497 H 0.51679 0.56554 0.5567 0.0
H498 H 0.55276 0.51602 0.57034 0.0
H499 H 0.5181 0.50438 0.57646 0.0
H500 H 0.52053 0.56634 0.59392 0.0
H501 H 0.50007 0.55877 0.62261 0.0
H502 H 0.57145 0.51665 0.50864 0.0
H503 H 0.58948 0.51897 0.57004 0.0
H504 H 0.49787 0.49679 0.60522 0.0
H505 H 0.59892 0.49508 0.50112 0.0
H506 H 0.61677 0.49718 0.56257 0.0
C507 C 0.48572 0.47929 0.92422 0.0
C508 C 0.49423 0.48778 0.90733 0.0
C509 C 0.49752 0.47375 0.94018 0.0
C510 C 0.51824 0.47627 0.93962 0.0
C511 C 0.52675 0.4847 0.9227 0.0
C512 C 0.51493 0.49052 0.90688 0.0
C513 C 0.53089 0.47041 0.95668 0.0
C514 C 0.52582 0.45367 0.96802 0.0
C515 C 0.53753 0.44836 0.98431 0.0
C516 C 0.55453 0.46003 0.98922 0.0
C517 C 0.56 0.47647 0.97789 0.0
C518 C 0.54814 0.48161 0.96177 0.0
C519 C 0.57803 0.48855 0.98293 0.0
C520 C 0.58009 0.49796 1.00154 0.0
C521 C 0.59292 0.49138 0.96885 0.0
C522 C 0.60948 0.50366 0.9732 0.0
C523 C 0.61119 0.51364 0.99154 0.0
C524 C 0.53221 0.43054 0.99611 0.0
C525 C 0.51245 0.42622 1.00122 0.0
C526 C 0.54695 0.41779 0.00253 0.0
C527 C 0.54211 0.40127 0.01391 0.0
C528 C 0.52239 0.39701 0.01917 0.0
C529 C 0.50761 0.40968 0.01266 0.0
C530 C 0.59643 0.51061 0.00573 0.0
H531 H 0.46989 0.47658 0.92506 0.0
H532 H 0.49033 0.46761 0.95302 0.0
H533 H 0.54263 0.48665 0.92149 0.0
H534 H 0.52208 0.49722 0.8943 0.0
H535 H 0.51301 0.44444 0.96388 0.0
H536 H 0.55218 0.49476 0.95357 0.0
H537 H 0.5636 0.45633 1.00184 0.0
H538 H 0.56873 0.49605 0.01258 0.0
H539 H 0.59162 0.48422 0.95442 0.0
H540 H 0.6206 0.50595 0.96199 0.0
H541 H 0.50075 0.43581 0.99665 0.0
H542 H 0.56228 0.42052 0.99868 0.0
H543 H 0.59744 0.51825 0.01994 0.0
H544 H 0.49225 0.40675 0.0163 0.0
H545 H 0.55392 0.39199 0.01886 0.0
C546 C 0.64982 0.18905 0.25667 0.0
C547 C 0.64563 0.20847 0.251 0.0
C548 C 0.66495 0.18569 0.27037 0.0
C549 C 0.67626 0.20167 0.27862 0.0
C550 C 0.67247 0.22101 0.27238 0.0
C551 C 0.6573 0.22437 0.25881 0.0
C552 C 0.69132 0.19839 0.29434 0.0
C553 C 0.70393 0.18216 0.29333 0.0
C554 C 0.71811 0.17916 0.3083 0.0
C555 C 0.71934 0.19248 0.32455 0.0
C556 C 0.70703 0.20883 0.32562 0.0
C557 C 0.69309 0.21164 0.31056 0.0
C558 C 0.70904 0.22347 0.3421 0.0
C559 C 0.70741 0.21756 0.36181 0.0
C560 C 0.71222 0.24364 0.33805 0.0
C561 C 0.71366 0.25771 0.35341 0.0
C562 C 0.71154 0.25201 0.37321 0.0
C563 C 0.73213 0.16259 0.30665 0.0
C564 C 0.72567 0.14367 0.29972 0.0
C565 C 0.75221 0.16569 0.31176 0.0
C566 C 0.76551 0.15031 0.30991 0.0
C567 C 0.7591 0.13143 0.30288 0.0
C568 C 0.739 0.12827 0.29786 0.0
C569 C 0.70848 0.23171 0.37722 0.0
H570 H 0.64097 0.17651 0.25101 0.0
H571 H 0.66734 0.17064 0.27497 0.0
H572 H 0.68118 0.23363 0.27808 0.0
H573 H 0.65466 0.23946 0.25445 0.0
H574 H 0.70313 0.17223 0.28056 0.0
H575 H 0.68334 0.22407 0.31174 0.0
H576 H 0.73007 0.19035 0.33626 0.0
H577 H 0.70484 0.20207 0.36524 0.0
H578 H 0.71376 0.2485 0.32295 0.0
H579 H 0.71661 0.27306 0.34969 0.0
H580 H 0.71027 0.1407 0.2959 0.0
H581 H 0.75777 0.18016 0.3168 0.0
H582 H 0.70654 0.22674 0.39222 0.0
H583 H 0.73353 0.11383 0.29263 0.0
H584 H 0.78094 0.15336 0.31357 0.0
C585 C 0.49752 0.10551 0.99656 0.0
C586 C 0.49285 0.10545 0.01678 0.0
C587 C 0.49267 0.08903 0.98432 0.0
C588 C 0.48325 0.07197 0.99204 0.0
C589 C 0.47867 0.07199 0.01227 0.0
C590 C 0.48311 0.08852 0.02434 0.0
C591 C 0.47833 0.05405 0.97936 0.0
C592 C 0.49063 0.04842 0.96371 0.0
C593 C 0.48651 0.03093 0.95261 0.0
C594 C 0.47021 0.01867 0.95758 0.0
C595 C 0.45744 0.02418 0.97289 0.0
C596 C 0.46145 0.04211 0.98331 0.0
C597 C 0.43982 0.01143 0.97801 0.0
C598 C 0.42902 1.0007 0.96329 0.0
C599 C 0.43345 0.01015 0.9977 0.0
C600 C 0.41649 0.99894 0.00246 0.0
C601 C 0.40561 0.98831 0.98772 0.0
C602 C 0.49893 0.02577 0.93543 0.0
C603 C 0.5027 0.03987 0.9208 0.0
C604 C 0.50671 0.00674 0.93325 0.0
C605 C 0.51818 1.00199 0.9168 0.0
C606 C 0.52168 0.01604 0.90205 0.0
C607 C 0.51382 0.03501 0.90422 0.0
C608 C 0.41228 0.98917 0.9681 0.0
H609 H 0.50515 0.11816 0.99017 0.0
H610 H 0.49622 0.08977 0.96878 0.0
H611 H 0.47181 0.05909 0.019 0.0
H612 H 0.47877 0.08796 0.03967 0.0
H613 H 0.50373 0.05732 0.96036 0.0
H614 H 0.45118 0.04696 0.99443 0.0
H615 H 0.46742 0.00495 0.9493 0.0
H616 H 0.43325 1.00142 0.94793 0.0
H617 H 0.44154 0.01783 0.00957 0.0
H618 H 0.41179 0.99889 0.0177 0.0
H619 H 0.49677 0.05459 0.92205 0.0
H620 H 0.50406 0.99563 0.94437 0.0
H621 H 0.40461 0.98089 0.95635 0.0
H622 H 0.51648 0.04618 0.89316 0.0
H623 H 0.5241 0.98727 0.91546 0.0
Mn624 Mn 0.25163 0.87349 0.00638 0.0
Mn625 Mn 0.2547 0.8978 0.96333 0.0
C626 C 0.23808 0.85921 0.97764 0.0
C627 C 0.26485 0.85238 0.02964 0.0
C628 C 0.22624 0.90862 0.996 0.0
O629 O 0.27336 0.89465 0.01198 0.0
O630 O 0.27624 0.90745 0.98147 0.0
C631 C 0.29272 0.88291 0.94868 0.0
N632 N 0.273 0.8855 0.946 0.0
C633 C 0.27404 0.87211 0.91287 0.0
C634 C 0.29438 0.86931 0.91524 0.0
C635 C 0.30373 0.87461 0.93328 0.0
C636 C 0.26379 0.88009 0.92886 0.0
H637 H 0.29998 0.88719 0.96241 0.0
C638 C 0.28176 0.90605 0.99952 0.0
O639 O 0.25152 0.86501 0.03438 0.0
O640 O 0.27076 0.85215 0.01145 0.0
N641 N 0.23489 0.88961 0.94429 0.0
C642 C 0.21498 0.89204 0.94486 0.0
C643 C 0.20332 0.88691 0.92816 0.0
C644 C 0.2123 0.87974 0.91094 0.0
C645 C 0.23283 0.87742 0.9107 0.0
C646 C 0.24363 0.88243 0.9279 0.0
H647 H 0.20805 0.89793 0.95792 0.0
O648 O 0.23214 0.85341 0.99483 0.0
O649 O 0.2519 0.873 0.9778 0.0
O650 O 0.23032 0.8944 0.00737 0.0
O651 O 0.2351 0.9116 0.9797 0.0
C652 C 0.24303 0.87039 0.89407 0.0
C653 C 0.26355 0.86739 0.89525 0.0
H654 H 0.30295 0.86309 0.90334 0.0
H655 H 0.31942 0.87248 0.93525 0.0
H656 H 0.18748 0.8887 0.92848 0.0
H657 H 0.20329 0.87599 0.89801 0.0
H658 H 0.23517 0.867 0.88035 0.0
H659 H 0.27112 0.8615 0.8825 0.0
Mn660 Mn 0.13505 0.50771 0.25 0.0
Mn661 Mn 0.11269 0.55163 0.25502 0.0
C662 C 0.15002 0.5365 0.23808 0.0
C663 C 0.15559 0.48313 0.26151 0.0
C664 C 0.10072 0.52092 0.22363 0.0
O665 O 0.11448 0.50181 0.27122 0.0
O666 O 0.10105 0.53191 0.27323 0.0
C667 C 0.12671 0.56142 0.29571 0.0
N668 N 0.12496 0.56641 0.27637 0.0
C669 C 0.13986 0.59872 0.2829 0.0
C670 C 0.14179 0.59398 0.3029 0.0
C671 C 0.1353 0.57519 0.30931 0.0
C672 C 0.13154 0.58426 0.26998 0.0
H673 H 0.12154 0.54708 0.30073 0.0
C674 C 0.10223 0.51387 0.27858 0.0
O675 O 0.1422 0.47933 0.24802 0.0
O676 O 0.15684 0.50111 0.2687 0.0
N677 N 0.1223 0.5725 0.23859 0.0
C678 C 0.11989 0.57449 0.21872 0.0
C679 C 0.12557 0.59246 0.20993 0.0
C680 C 0.13323 0.6083 0.2217 0.0
C681 C 0.13563 0.60588 0.24211 0.0
C682 C 0.12985 0.5876 0.25001 0.0
H683 H 0.11351 0.56252 0.20969 0.0
O684 O 0.15475 0.51919 0.23126 0.0
O685 O 0.13687 0.53652 0.25198 0.0
O686 O 0.11334 0.50817 0.22861 0.0
O687 O 0.09925 0.53769 0.2325 0.0
C688 C 0.14329 0.62096 0.25497 0.0
C689 C 0.14572 0.61728 0.27529 0.0
H690 H 0.14822 0.60464 0.31346 0.0
H691 H 0.13676 0.5714 0.32471 0.0
H692 H 0.12373 0.59421 0.19416 0.0
H693 H 0.13718 0.62228 0.21491 0.0
H694 H 0.14753 0.63541 0.24937 0.0
H695 H 0.15198 0.62887 0.28495 0.0
Mn696 Mn 0.7528 0.63377 1.00184 0.0
Mn697 Mn 0.71168 0.65311 0.98197 0.0
C698 C 0.72271 0.61618 0.00305 0.0
C699 C 0.7817 0.61551 1.00014 0.0
C700 C 0.72859 0.66629 0.02175 0.0
O701 O 0.76426 0.65543 0.98407 0.0
O702 O 0.73577 0.66655 0.97161 0.0
C703 C 0.71711 0.63951 0.94059 0.0
N704 N 0.70569 0.64063 0.957 0.0
C705 C 0.67777 0.62537 0.93976 0.0
C706 C 0.68921 0.62404 0.92263 0.0
C707 C 0.70901 0.63102 0.9231 0.0
C708 C 0.68678 0.6336 0.95683 0.0
H709 H 0.73223 0.64515 0.94084 0.0
C710 C 0.75465 0.667 0.97303 0.0
O711 O 0.77931 0.62917 0.01355 0.0
O712 O 0.76746 0.61276 0.98725 0.0
N713 N 0.68692 0.64199 0.99032 0.0
C714 C 0.67817 0.64383 0.00828 0.0
C715 C 0.65823 0.63795 0.01031 0.0
C716 C 0.64746 0.63052 0.9938 0.0
C717 C 0.65688 0.62837 0.97557 0.0
C718 C 0.67673 0.63462 0.97442 0.0
H719 H 0.68623 0.65011 0.02086 0.0
O720 O 0.73694 0.61272 0.01541 0.0
O721 O 0.72649 0.62974 0.99001 0.0
O722 O 0.74319 0.65476 0.02162 0.0
O723 O 0.71606 0.66688 0.0076 0.0
C724 C 0.64732 0.62052 0.95843 0.0
C725 C 0.65781 0.61884 0.94058 0.0
H726 H 0.68295 0.61768 0.90907 0.0
H727 H 0.71793 0.63004 0.90995 0.0
H728 H 0.65107 0.6395 0.02445 0.0
H729 H 0.63193 0.62653 0.99533 0.0
H730 H 0.63194 0.61558 0.95885 0.0
H731 H 0.65039 0.61251 0.92758 0.0
Mn732 Mn 0.879 0.00366 0.25842 0.0
Mn733 Mn 0.89836 0.95819 0.25625 0.0
C734 C 0.86222 0.97768 0.24165 0.0
C735 C 0.85969 0.02773 0.27337 0.0
C736 C 0.9133 0.99269 0.23169 0.0
O737 O 0.89978 0.005 0.28079 0.0
O738 O 0.90941 0.97327 0.27937 0.0
C739 C 0.88064 0.9417 0.29254 0.0
N740 N 0.88402 0.9403 0.27277 0.0
C741 C 0.86838 0.90782 0.27072 0.0
C742 C 0.86499 0.90874 0.29112 0.0
C743 C 0.87095 0.92586 0.30204 0.0
C744 C 0.8777 0.92423 0.26202 0.0
H745 H 0.88526 0.95481 0.30094 0.0
C746 C 0.90969 0.99061 0.28741 0.0
O747 O 0.87383 0.03241 0.26136 0.0
O748 O 0.85725 0.00903 0.27735 0.0
N749 N 0.88878 0.94171 0.23474 0.0
C750 C 0.89165 0.94393 0.21499 0.0
C751 C 0.88579 0.92846 0.20184 0.0
C752 C 0.87749 0.91074 0.20917 0.0
C753 C 0.87468 0.90884 0.22956 0.0
C754 C 0.88041 0.9249 0.24189 0.0
H755 H 0.89852 0.9573 0.20935 0.0
O756 O 0.85871 0.99599 0.23758 0.0
O757 O 0.87539 0.97515 0.25537 0.0
O758 O 0.90061 0.00495 0.2376 0.0
O759 O 0.91418 0.97508 0.23824 0.0
C760 C 0.86647 0.89163 0.23817 0.0
C761 C 0.86294 0.89126 0.25867 0.0
H762 H 0.8577 0.89647 0.29852 0.0
H763 H 0.86822 0.92677 0.31775 0.0
H764 H 0.88795 0.93006 0.18612 0.0
H765 H 0.87321 0.89874 0.19901 0.0
H766 H 0.86246 0.87872 0.22908 0.0
H767 H 0.85603 0.87816 0.265 0.0
Mn768 Mn 0.25526 0.13308 0.50117 0.0
Mn769 Mn 0.21422 0.15172 0.48041 0.0
C770 C 0.22525 0.11533 0.5024 0.0
C771 C 0.28429 0.11496 0.50018 0.0
C772 C 0.2306 0.1658 0.52012 0.0
O773 O 0.26681 0.15443 0.48309 0.0
O774 O 0.23836 0.16518 0.47018 0.0
C775 C 0.22035 0.13742 0.43937 0.0
N776 N 0.20869 0.13875 0.45559 0.0
C777 C 0.18112 0.12297 0.43822 0.0
C778 C 0.19281 0.12142 0.4213 0.0
C779 C 0.21256 0.12855 0.42192 0.0
C780 C 0.18982 0.13158 0.45527 0.0
H781 H 0.23543 0.14318 0.43974 0.0
C782 C 0.25722 0.16578 0.4718 0.0
O783 O 0.28168 0.12887 0.51328 0.0
O784 O 0.2702 0.11187 0.48718 0.0
N785 N 0.18942 0.14058 0.48861 0.0
C786 C 0.18039 0.14273 0.50639 0.0
C787 C 0.16044 0.1368 0.50821 0.0
C788 C 0.14995 0.12899 0.49169 0.0
C789 C 0.15967 0.12651 0.47365 0.0
C790 C 0.17951 0.13285 0.47269 0.0
H791 H 0.18822 0.1493 0.51897 0.0
O792 O 0.23937 0.11223 0.51499 0.0
O793 O 0.22909 0.12863 0.48911 0.0
O794 O 0.24532 0.15443 0.52037 0.0
O795 O 0.21817 0.16595 0.50585 0.0
C796 C 0.15041 0.11828 0.45652 0.0
C797 C 0.16118 0.11632 0.43887 0.0
H798 H 0.18679 0.11476 0.40776 0.0
H799 H 0.22167 0.1274 0.40893 0.0
H800 H 0.15305 0.13861 0.52221 0.0
H801 H 0.13441 0.12497 0.49304 0.0
H802 H 0.13506 0.11325 0.4568 0.0
H803 H 0.15399 0.1097 0.42588 0.0
Mn804 Mn 0.3755 0.50495 0.75806 0.0
Mn805 Mn 0.39453 0.45927 0.75703 0.0
C806 C 0.35881 0.47883 0.74142 0.0
C807 C 0.35625 0.52952 0.77226 0.0
C808 C 0.41008 0.49319 0.73205 0.0
O809 O 0.39594 0.50652 0.78074 0.0
O810 O 0.40529 0.4747 0.78005 0.0
C811 C 0.37609 0.44358 0.79331 0.0
N812 N 0.3798 0.44179 0.77364 0.0
C813 C 0.36406 0.40934 0.77195 0.0
C814 C 0.36031 0.41068 0.79226 0.0
C815 C 0.36616 0.42798 0.80295 0.0
C816 C 0.37361 0.42554 0.7631 0.0
H817 H 0.38064 0.45683 0.80155 0.0
C818 C 0.40561 0.49217 0.78779 0.0
O819 O 0.3706 0.5338 0.76035 0.0
O820 O 0.35353 0.51093 0.77657 0.0
N821 N 0.38525 0.44244 0.73567 0.0
C822 C 0.38859 0.4442 0.71595 0.0
C823 C 0.38303 0.42845 0.70302 0.0
C824 C 0.37455 0.41091 0.71056 0.0
C825 C 0.37121 0.40949 0.73091 0.0
C826 C 0.3767 0.4258 0.74301 0.0
H827 H 0.39563 0.45743 0.71016 0.0
O828 O 0.35549 0.4971 0.73704 0.0
O829 O 0.37169 0.47639 0.75544 0.0
O830 O 0.39741 0.50566 0.73756 0.0
O831 O 0.41076 0.47572 0.73897 0.0
C832 C 0.36274 0.3925 0.7397 0.0
C833 C 0.35879 0.39256 0.76013 0.0
H834 H 0.35285 0.39858 0.79978 0.0
H835 H 0.36317 0.4292 0.81859 0.0
H836 H 0.38558 0.42969 0.68733 0.0
H837 H 0.37052 0.39869 0.70057 0.0
H838 H 0.35892 0.3794 0.73081 0.0
H839 H 0.35172 0.37963 0.7666 0.0
Mn840 Mn 0.75245 0.3745 0.50476 0.0
Mn841 Mn 0.75017 0.39643 0.46031 0.0
C842 C 0.7375 0.35777 0.47807 0.0
C843 C 0.76806 0.35518 0.52813 0.0
C844 C 0.72329 0.4068 0.49426 0.0
O845 O 0.77347 0.39679 0.50753 0.0
O846 O 0.77118 0.40948 0.47704 0.0
C847 C 0.78923 0.38554 0.44476 0.0
N848 N 0.76918 0.38565 0.44276 0.0
C849 C 0.77057 0.37156 0.40993 0.0
C850 C 0.79125 0.37132 0.4116 0.0
C851 C 0.8006 0.37823 0.42914 0.0
C852 C 0.76002 0.3788 0.42606 0.0
H853 H 0.79648 0.39106 0.45813 0.0
C854 C 0.77901 0.40901 0.49432 0.0
O855 O 0.75475 0.36772 0.53315 0.0
O856 O 0.77283 0.35424 0.50962 0.0
N857 N 0.73071 0.38523 0.44237 0.0
C858 C 0.71063 0.38527 0.4437 0.0
C859 C 0.69899 0.37825 0.42761 0.0
C860 C 0.70811 0.3716 0.41025 0.0
C861 C 0.72882 0.37161 0.40929 0.0
C862 C 0.73963 0.37866 0.42583 0.0
H863 H 0.70357 0.39072 0.45687 0.0
O864 O 0.73317 0.35309 0.49606 0.0
O865 O 0.75054 0.3722 0.47612 0.0
O866 O 0.73018 0.39448 0.50643 0.0
O867 O 0.72982 0.4087 0.47677 0.0
C868 C 0.73916 0.36491 0.3926 0.0
C869 C 0.76001 0.36475 0.39296 0.0
H870 H 0.80007 0.36577 0.39955 0.0
H871 H 0.81655 0.37806 0.43056 0.0
H872 H 0.68302 0.3782 0.42848 0.0
H873 H 0.69907 0.36647 0.39779 0.0
H874 H 0.73123 0.35967 0.37945 0.0
H875 H 0.76777 0.35922 0.38017 0.0
Mn876 Mn 0.63737 0.01041 0.75199 0.0
Mn877 Mn 0.61704 0.05542 0.75549 0.0
C878 C 0.6527 0.03784 0.73741 0.0
C879 C 0.65756 0.98582 0.76436 0.0
C880 C 0.60155 0.02258 0.7276 0.0
O881 O 0.61757 0.00695 0.77455 0.0
O882 O 0.60755 0.03846 0.77724 0.0
C883 C 0.63652 0.06949 0.79277 0.0
N884 N 0.63201 0.07229 0.77339 0.0
C885 C 0.64717 0.10502 0.77436 0.0
C886 C 0.65176 0.10262 0.79441 0.0
C887 C 0.64659 0.08469 0.8036 0.0
C888 C 0.63751 0.08919 0.76424 0.0
H889 H 0.63249 0.05576 0.79986 0.0
C890 C 0.60785 0.02054 0.78317 0.0
O891 O 0.64323 0.98165 0.75195 0.0
O892 O 0.65992 0.00428 0.76995 0.0
N893 N 0.62497 0.07369 0.73559 0.0
C894 C 0.62065 0.07307 0.71588 0.0
C895 C 0.62526 0.08966 0.70436 0.0
C896 C 0.63383 0.10685 0.71331 0.0
C897 C 0.63819 0.1071 0.73362 0.0
C898 C 0.63355 0.09003 0.74427 0.0
H899 H 0.61356 0.0601 0.70903 0.0
O900 O 0.65658 0.01995 0.73154 0.0
O901 O 0.64024 0.03913 0.7518 0.0
O902 O 0.61481 0.01019 0.73164 0.0
O903 O 0.60062 0.03951 0.73626 0.0
C904 C 0.64684 0.12367 0.74376 0.0
C905 C 0.6517 0.1225 0.76402 0.0
H906 H 0.65934 0.1144 0.80286 0.0
H907 H 0.65021 0.08266 0.81903 0.0
H908 H 0.62192 0.08933 0.68869 0.0
H909 H 0.63711 0.11972 0.70443 0.0
H910 H 0.65004 0.13731 0.73605 0.0
H911 H 0.65885 0.13515 0.77151 0.0
Mn912 Mn 0.00374 0.25247 0.87717 0.0
Mn913 Mn 0.95792 0.24999 0.89669 0.0
C914 C 0.97794 0.23632 0.85994 0.0
C915 C 0.02849 0.26721 0.85817 0.0
C916 C 0.99129 0.22433 0.91027 0.0
O917 O 0.00517 0.27466 0.89806 0.0
O918 O 0.97396 0.27201 0.90956 0.0
C919 C 0.94289 0.28842 0.88333 0.0
N920 N 0.94097 0.26829 0.88419 0.0
C921 C 0.90907 0.26846 0.86815 0.0
C922 C 0.91069 0.2892 0.86715 0.0
C923 C 0.92773 0.29921 0.87467 0.0
C924 C 0.92473 0.2585 0.8768 0.0
H925 H 0.95583 0.29618 0.8893 0.0
C926 C 0.99129 0.28024 0.90933 0.0
O927 O 0.03254 0.25478 0.87192 0.0
O928 O 0.0101 0.27178 0.85587 0.0
N929 N 0.94068 0.22973 0.88538 0.0
C930 C 0.94223 0.20965 0.88591 0.0
C931 C 0.92676 0.19738 0.87822 0.0
C932 C 0.90979 0.20589 0.87029 0.0
C933 C 0.90863 0.22661 0.86971 0.0
C934 C 0.92455 0.23806 0.87748 0.0
H935 H 0.95519 0.20305 0.89211 0.0
O936 O 0.99618 0.23193 0.85668 0.0
O937 O 0.97519 0.24996 0.87342 0.0
O938 O 0.00424 0.23141 0.8986 0.0
O939 O 0.97354 0.23016 0.9107 0.0
C940 C 0.89236 0.23635 0.86162 0.0
C941 C 0.89263 0.25725 0.86072 0.0
H942 H 0.899 0.29758 0.86052 0.0
H943 H 0.92912 0.31522 0.87392 0.0
H944 H 0.92784 0.1814 0.87855 0.0
H945 H 0.89782 0.19637 0.86454 0.0
H946 H 0.87964 0.22792 0.85584 0.0
H947 H 0.88021 0.26455 0.85411 0.0
Mn948 Mn 0.50403 0.75392 0.37994 0.0
Mn949 Mn 0.45858 0.75153 0.40019 0.0
C950 C 0.47777 0.7386 0.36269 0.0
C951 C 0.52884 0.76875 0.36103 0.0
C952 C 0.49157 0.72474 0.41224 0.0
O953 O 0.50614 0.7755 0.40155 0.0
O954 O 0.47524 0.77259 0.41354 0.0
C955 C 0.44446 0.79078 0.38828 0.0
N956 N 0.44197 0.77066 0.38857 0.0
C957 C 0.40993 0.77216 0.37302 0.0
C958 C 0.41212 0.7929 0.3726 0.0
C959 C 0.42951 0.80224 0.38016 0.0
C960 C 0.42542 0.76151 0.38111 0.0
H961 H 0.45772 0.79803 0.39427 0.0
C962 C 0.49257 0.78081 0.41337 0.0
O963 O 0.53278 0.75586 0.37438 0.0
O964 O 0.51054 0.77379 0.35915 0.0
N965 N 0.44066 0.73205 0.38862 0.0
C966 C 0.44148 0.71188 0.38898 0.0
C967 C 0.42548 0.70025 0.38143 0.0
C968 C 0.40871 0.70947 0.3739 0.0
C969 C 0.40826 0.73025 0.3736 0.0
C970 C 0.42468 0.74105 0.38123 0.0
H971 H 0.4542 0.70475 0.39507 0.0
O972 O 0.49589 0.73414 0.35893 0.0
O973 O 0.47541 0.75191 0.37659 0.0
O974 O 0.5044 0.73201 0.40054 0.0
O975 O 0.47398 0.73097 0.41326 0.0
C976 C 0.39219 0.74068 0.36602 0.0
C977 C 0.39308 0.76161 0.3656 0.0
H978 H 0.40058 0.80179 0.36641 0.0
H979 H 0.43133 0.81824 0.37985 0.0
H980 H 0.42597 0.68422 0.38161 0.0
H981 H 0.3963 0.70043 0.36834 0.0
H982 H 0.37913 0.73276 0.36029 0.0
H983 H 0.38079 0.76943 0.3594 0.0
Mn984 Mn 0.00372 0.75054 0.62906 0.0
Mn985 Mn 0.98063 0.71027 0.64834 0.0
C986 C 0.00507 0.72001 0.61258 0.0
C987 C 0.00376 0.77931 0.6102 0.0
C988 C 0.01983 0.7276 0.6639 0.0
O989 O 0.98527 0.76255 0.64956 0.0
O990 O 0.96856 0.73481 0.65852 0.0
C991 C 0.94103 0.71357 0.62983 0.0
N992 N 0.95724 0.70275 0.63372 0.0
C993 C 0.9417 0.6732 0.61951 0.0
C994 C 0.92476 0.68398 0.61543 0.0
C995 C 0.9245 0.7043 0.62046 0.0
C996 C 0.95783 0.68334 0.62851 0.0
H997 H 0.94073 0.72912 0.63392 0.0
C998 C 0.97148 0.75366 0.65903 0.0
O999 O 0.01648 0.77694 0.62436 0.0
O1000 O 0.99061 0.76509 0.60722 0.0
N1001 N 0.99037 0.6852 0.64002 0.0
C1002 C 0.00821 0.67726 0.64412 0.0
C1003 C 0.01098 0.65705 0.64007 0.0
C1004 C 0.99533 0.6452 0.63212 0.0
C1005 C 0.97725 0.65379 0.62761 0.0
C1006 C 0.97533 0.67398 0.63206 0.0
H1007 H 0.02009 0.68616 0.6508 0.0
O1008 O 0.01793 0.73419 0.6092 0.0
O1009 O 0.99133 0.72422 0.62522 0.0
O1010 O 0.02192 0.74097 0.65097 0.0
O1011 O 0.00456 0.71607 0.66466 0.0
C1012 C 0.96097 0.6431 0.61911 0.0
C1013 C 0.94327 0.65284 0.6149 0.0
H1014 H 0.91192 0.67685 0.60836 0.0
H1015 H 0.91152 0.71274 0.61729 0.0
H1016 H 0.02502 0.65053 0.64343 0.0
H1017 H 0.99739 0.6295 0.6295 0.0
H1018 H 0.96198 0.62744 0.61555 0.0
H1019 H 0.93098 0.64454 0.60806 0.0
Mn1020 Mn 0.50719 0.25214 0.12909 0.0
Mn1021 Mn 0.48742 0.21102 0.15008 0.0
C1022 C 0.50854 0.22163 0.11265 0.0
C1023 C 0.50526 0.28068 0.11006 0.0
C1024 C 0.52702 0.22955 0.16251 0.0
O1025 O 0.48932 0.26367 0.15032 0.0
O1026 O 0.47634 0.23521 0.16218 0.0
C1027 C 0.44603 0.21424 0.13613 0.0
N1028 N 0.46271 0.20356 0.13782 0.0
C1029 C 0.44618 0.17428 0.12414 0.0
C1030 C 0.42879 0.18494 0.12224 0.0
C1031 C 0.42876 0.20504 0.12813 0.0
C1032 C 0.46301 0.18434 0.13184 0.0
H1033 H 0.44589 0.22959 0.14097 0.0
C1034 C 0.47782 0.25417 0.16191 0.0
O1035 O 0.51875 0.27887 0.12359 0.0
O1036 O 0.49247 0.26601 0.10781 0.0
N1037 N 0.49647 0.18624 0.14019 0.0
C1038 C 0.51467 0.17836 0.14234 0.0
C1039 C 0.51722 0.1583 0.1374 0.0
C1040 C 0.50101 0.14652 0.13057 0.0
C1041 C 0.48252 0.15506 0.12806 0.0
C1042 C 0.48085 0.17509 0.13334 0.0
H1043 H 0.52703 0.18721 0.14817 0.0
O1044 O 0.52084 0.23611 0.10859 0.0
O1045 O 0.49549 0.22541 0.12615 0.0
O1046 O 0.52706 0.24356 0.15012 0.0
O1047 O 0.51278 0.21685 0.16386 0.0
C1048 C 0.46563 0.14445 0.12079 0.0
C1049 C 0.44752 0.1541 0.11866 0.0
H1050 H 0.4154 0.17785 0.11625 0.0
H1051 H 0.4154 0.21337 0.12671 0.0
H1052 H 0.53156 0.15183 0.13922 0.0
H1053 H 0.50296 0.13093 0.12729 0.0
H1054 H 0.46645 0.12891 0.11661 0.0
H1055 H 0.43471 0.14586 0.11277 0.0
C1056 C 0.21482 0.76679 0.90739 0.0
C1057 C 0.2132 0.77074 0.88712 0.0
C1058 C 0.2186 0.78217 0.92137 0.0
C1059 C 0.22009 0.8021 0.9151 0.0
C1060 C 0.21789 0.8062 0.8948 0.0
C1061 C 0.21508 0.79054 0.8811 0.0
C1062 C 0.22122 0.77706 0.94285 0.0
C1063 C 0.21905 0.82703 0.88717 0.0
C1064 C 0.21354 0.84113 0.95568 0.0
C1065 C 0.23317 0.84693 0.95995 0.0
C1066 C 0.20899 0.82725 0.94043 0.0
C1067 C 0.2245 0.81848 0.92977 0.0
C1068 C 0.24434 0.82476 0.93375 0.0
C1069 C 0.24842 0.83889 0.94883 0.0
C1070 C 0.18762 0.82179 0.93587 0.0
C1071 C 0.2613 0.81608 0.92254 0.0
H1072 H 0.21308 0.7517 0.91244 0.0
H1073 H 0.21459 0.79398 0.86553 0.0
H1074 H 0.2359 0.78272 0.94831 0.0
H1075 H 0.20984 0.78438 0.95188 0.0
H1076 H 0.2201 0.76081 0.94529 0.0
H1077 H 0.21026 0.82835 0.87333 0.0
H1078 H 0.21368 0.83794 0.89816 0.0
H1079 H 0.23469 0.83074 0.88371 0.0
H1080 H 0.20178 0.84732 0.96439 0.0
H1081 H 0.26364 0.84308 0.95247 0.0
H1082 H 0.18461 0.80593 0.93917 0.0
H1083 H 0.18452 0.82374 0.9199 0.0
H1084 H 0.17729 0.83094 0.94455 0.0
H1085 H 0.26128 0.79975 0.92443 0.0
H1086 H 0.27587 0.8225 0.92752 0.0
H1087 H 0.25951 0.81885 0.90653 0.0
C1088 C 0.03293 0.49362 0.37296 0.0
C1089 C 0.03874 0.50889 0.38635 0.0
C1090 C 0.04324 0.4906 0.35526 0.0
C1091 C 0.05971 0.50317 0.35087 0.0
C1092 C 0.06624 0.51791 0.36482 0.0
C1093 C 0.0557 0.52057 0.38237 0.0
C1094 C 0.03586 0.47468 0.34082 0.0
C1095 C 0.08378 0.53158 0.36079 0.0
C1096 C 0.09594 0.49414 0.30917 0.0
C1097 C 0.08952 0.50775 0.29523 0.0
C1098 C 0.08572 0.49152 0.32702 0.0
C1099 C 0.06872 0.50271 0.33086 0.0
C1100 C 0.06142 0.51533 0.31616 0.0
C1101 C 0.07191 0.51771 0.29859 0.0
C1102 C 0.09387 0.4778 0.34226 0.0
C1103 C 0.04325 0.5274 0.3195 0.0
H1104 H 0.0198 0.48458 0.37588 0.0
H1105 H 0.06051 0.53212 0.39284 0.0
H1106 H 0.02886 0.4817 0.32791 0.0
H1107 H 0.04834 0.46594 0.33521 0.0
H1108 H 0.0248 0.4644 0.34755 0.0
H1109 H 0.08799 0.5411 0.37383 0.0
H1110 H 0.09673 0.52285 0.35643 0.0
H1111 H 0.08023 0.54134 0.34829 0.0
H1112 H 0.10957 0.48645 0.30669 0.0
H1113 H 0.06674 0.52808 0.28776 0.0
H1114 H 0.08183 0.4685 0.34867 0.0
H1115 H 0.10083 0.48674 0.35452 0.0
H1116 H 0.10516 0.46794 0.33595 0.0
H1117 H 0.03081 0.51779 0.32466 0.0
H1118 H 0.03845 0.53501 0.30591 0.0
H1119 H 0.04642 0.53883 0.3312 0.0
C1120 C 0.78784 0.73078 0.88268 0.0
C1121 C 0.79902 0.74821 0.88699 0.0
C1122 C 0.78341 0.717 0.89743 0.0
C1123 C 0.79019 0.72078 0.91704 0.0
C1124 C 0.80221 0.73792 0.92132 0.0
C1125 C 0.80654 0.75141 0.90622 0.0
C1126 C 0.7707 0.69884 0.89216 0.0
C1127 C 0.80963 0.74255 0.94204 0.0
C1128 C 0.75588 0.69914 0.95552 0.0
C1129 C 0.76535 0.68172 0.96073 0.0
C1130 C 0.76431 0.71238 0.94204 0.0
C1131 C 0.78263 0.70805 0.9333 0.0
C1132 C 0.79273 0.69092 0.93911 0.0
C1133 C 0.78401 0.67798 0.95289 0.0
C1134 C 0.75313 0.73059 0.93655 0.0
C1135 C 0.81226 0.68577 0.93007 0.0
H1136 H 0.78229 0.72806 0.86777 0.0
H1137 H 0.81513 0.76489 0.90966 0.0
H1138 H 0.7776 0.68528 0.89777 0.0
H1139 H 0.75607 0.69998 0.89931 0.0
H1140 H 0.76829 0.69704 0.87596 0.0
H1141 H 0.82072 0.75506 0.94249 0.0
H1142 H 0.79701 0.74658 0.95151 0.0
H1143 H 0.81637 0.72932 0.94854 0.0
H1144 H 0.74156 0.70227 0.96172 0.0
H1145 H 0.79136 0.66451 0.95682 0.0
H1146 H 0.74829 0.72936 0.92085 0.0
H1147 H 0.76287 0.74408 0.9381 0.0
H1148 H 0.73985 0.73262 0.94582 0.0
H1149 H 0.80993 0.68158 0.91427 0.0
H1150 H 0.81923 0.67323 0.93765 0.0
H1151 H 0.82265 0.69882 0.93064 0.0
C1152 C 0.99274 0.9878 0.37019 0.0
C1153 C 0.9859 0.99071 0.38953 0.0
C1154 C 0.9806 0.99115 0.35371 0.0
C1155 C 0.96092 0.99712 0.35653 0.0
C1156 C 0.95417 1.00095 0.37592 0.0
C1157 C 0.96678 0.9979 0.39215 0.0
C1158 C 0.98849 0.98713 0.33328 0.0
C1159 C 0.93323 0.00711 0.37961 0.0
C1160 C 0.93066 0.01163 0.31129 0.0
C1161 C 0.92175 0.99328 0.30576 0.0
C1162 C 0.94332 0.01331 0.32797 0.0
C1163 C 0.9467 0.99636 0.33953 0.0
C1164 C 0.93708 0.97806 0.33439 0.0
C1165 C 0.92498 0.97671 0.31751 0.0
C1166 C 0.9536 0.03299 0.33282 0.0
C1167 C 0.93988 0.95967 0.34647 0.0
H1168 H 0.00734 0.98207 0.36784 0.0
H1169 H 0.96145 1.00075 0.40694 0.0
H1170 H 0.9815 0.97323 0.32712 0.0
H1171 H 0.98474 0.9993 0.3232 0.0
H1172 H 0.00478 0.98551 0.33339 0.0
H1173 H 0.93098 0.0118 0.39523 0.0
H1174 H 0.92929 0.01948 0.36987 0.0
H1175 H 0.92287 0.99445 0.37606 0.0
H1176 H 0.9283 0.02446 0.30222 0.0
H1177 H 0.91809 0.96248 0.31347 0.0
H1178 H 0.96976 0.03168 0.33077 0.0
H1179 H 0.95127 0.03722 0.34852 0.0
H1180 H 0.94831 0.04506 0.32332 0.0
H1181 H 0.9555 0.95519 0.3457 0.0
H1182 H 0.93025 0.94696 0.34124 0.0
H1183 H 0.93659 0.9628 0.36223 0.0
C1184 C 0.19889 0.22549 0.61767 0.0
C1185 C 0.20748 0.24471 0.61846 0.0
C1186 C 0.20329 0.21211 0.6023 0.0
C1187 C 0.21655 0.21808 0.58731 0.0
C1188 C 0.22553 0.23732 0.58821 0.0
C1189 C 0.22093 0.25036 0.60378 0.0
C1190 C 0.19342 0.19171 0.60186 0.0
C1191 C 0.23975 0.24426 0.57253 0.0
C1192 C 0.23949 0.17887 0.55425 0.0
C1193 C 0.22733 0.1793 0.53733 0.0
C1194 C 0.23613 0.19133 0.57068 0.0
C1195 C 0.22029 0.2046 0.57017 0.0
C1196 C 0.20803 0.20516 0.55315 0.0
C1197 C 0.21167 0.19252 0.53699 0.0
C1198 C 0.24948 0.19028 0.58862 0.0
C1199 C 0.19104 0.21916 0.55197 0.0
H1200 H 0.18837 0.22105 0.62885 0.0
H1201 H 0.22795 0.26503 0.60448 0.0
H1202 H 0.18376 0.18998 0.58856 0.0
H1203 H 0.20472 0.18015 0.60083 0.0
H1204 H 0.18431 0.18897 0.61516 0.0
H1205 H 0.24598 0.25942 0.57573 0.0
H1206 H 0.25212 0.23389 0.57125 0.0
H1207 H 0.23207 0.24428 0.55796 0.0
H1208 H 0.25159 0.16869 0.55474 0.0
H1209 H 0.20214 0.19304 0.52405 0.0
H1210 H 0.24061 0.18644 0.60179 0.0
H1211 H 0.25677 0.20499 0.59167 0.0
H1212 H 0.26109 0.1791 0.58673 0.0
H1213 H 0.18052 0.21619 0.56411 0.0
H1214 H 0.18287 0.21775 0.53767 0.0
H1215 H 0.19664 0.23472 0.55387 0.0
C1216 C 0.46807 0.51014 0.63157 0.0
C1217 C 0.48503 0.52251 0.63364 0.0
C1218 C 0.45624 0.50556 0.64791 0.0
C1219 C 0.46161 0.51339 0.66684 0.0
C1220 C 0.47878 0.5258 0.66904 0.0
C1221 C 0.49023 0.5303 0.6524 0.0
C1222 C 0.4379 0.49248 0.64488 0.0
C1223 C 0.48511 0.53426 0.689 0.0
C1224 C 0.42116 0.51621 0.70532 0.0
C1225 C 0.42404 0.49892 0.71614 0.0
C1226 C 0.4334 0.5212 0.68942 0.0
C1227 C 0.44908 0.50873 0.68426 0.0
C1228 C 0.45239 0.49151 0.69537 0.0
C1229 C 0.43978 0.48675 0.71109 0.0
C1230 C 0.42927 0.5396 0.67783 0.0
C1231 C 0.46908 0.47795 0.69046 0.0
H1232 H 0.46387 0.50426 0.61707 0.0
H1233 H 0.50345 0.53969 0.65411 0.0
H1234 H 0.43881 0.47911 0.65414 0.0
H1235 H 0.42467 0.50057 0.64964 0.0
H1236 H 0.43577 0.48762 0.62922 0.0
H1237 H 0.499 0.54344 0.68827 0.0
H1238 H 0.47331 0.54357 0.69512 0.0
H1239 H 0.48738 0.52205 0.69949 0.0
H1240 H 0.40902 0.5257 0.70898 0.0
H1241 H 0.4422 0.47339 0.71935 0.0
H1242 H 0.42564 0.53541 0.66225 0.0
H1243 H 0.44262 0.54956 0.67767 0.0
H1244 H 0.4168 0.54799 0.68402 0.0
H1245 H 0.46678 0.47143 0.67542 0.0
H1246 H 0.47027 0.46567 0.70111 0.0
H1247 H 0.48334 0.48653 0.69041 0.0
C1248 C 0.80816 0.2899 0.61691 0.0
C1249 C 0.809 0.26974 0.61128 0.0
C1250 C 0.80331 0.30448 0.60324 0.0
C1251 C 0.79822 0.29879 0.58359 0.0
C1252 C 0.79913 0.2786 0.57767 0.0
C1253 C 0.80497 0.26445 0.5914 0.0
C1254 C 0.80319 0.32595 0.61001 0.0
C1255 C 0.79325 0.2718 0.55699 0.0
C1256 C 0.76353 0.33251 0.55637 0.0
C1257 C 0.77616 0.34143 0.54264 0.0
C1258 C 0.77047 0.3184 0.56954 0.0
C1259 C 0.79076 0.31375 0.56957 0.0
C1260 C 0.80373 0.32322 0.5561 0.0
C1261 C 0.79616 0.33663 0.54245 0.0
C1262 C 0.75599 0.30813 0.58311 0.0
C1263 C 0.82559 0.31933 0.55624 0.0
H1264 H 0.81078 0.29442 0.63216 0.0
H1265 H 0.80611 0.24917 0.58647 0.0
H1266 H 0.81126 0.33549 0.59937 0.0
H1267 H 0.78775 0.33101 0.61058 0.0
H1268 H 0.81004 0.32826 0.62489 0.0
H1269 H 0.79464 0.25553 0.55474 0.0
H1270 H 0.77769 0.27565 0.55396 0.0
H1271 H 0.80257 0.27955 0.54599 0.0
H1272 H 0.748 0.33607 0.55632 0.0
H1273 H 0.80592 0.34364 0.53186 0.0
H1274 H 0.76013 0.31137 0.59875 0.0
H1275 H 0.75646 0.2918 0.58081 0.0
H1276 H 0.74056 0.31281 0.58063 0.0
H1277 H 0.83185 0.32215 0.57129 0.0
H1278 H 0.83384 0.32878 0.54564 0.0
H1279 H 0.82804 0.30354 0.5524 0.0
C1280 C 0.54351 0.00778 0.62522 0.0
C1281 C 0.52511 0.99771 0.6266 0.0
C1282 C 0.55546 0.0116 0.64203 0.0
C1283 C 0.54887 0.00529 0.66076 0.0
C1284 C 0.53028 0.99524 0.66231 0.0
C1285 C 0.51865 0.99155 0.64523 0.0
C1286 C 0.57517 0.02239 0.63973 0.0
C1287 C 0.52273 0.98827 0.68201 0.0
C1288 C 0.58826 0.99957 0.70064 0.0
C1289 C 0.58714 0.01754 0.71135 0.0
C1290 C 0.57566 0.99524 0.6844 0.0
C1291 C 0.56153 0.00917 0.67868 0.0
C1292 C 0.55998 0.02712 0.68967 0.0
C1293 C 0.57279 0.03109 0.70583 0.0
C1294 C 0.5778 0.97594 0.67306 0.0
C1295 C 0.54506 0.04233 0.6841 0.0
H1296 H 0.54851 0.01288 0.61097 0.0
H1297 H 0.5046 0.98353 0.64644 0.0
H1298 H 0.57562 0.03624 0.64886 0.0
H1299 H 0.58724 0.01303 0.64512 0.0
H1300 H 0.57817 0.02628 0.62414 0.0
H1301 H 0.50783 0.98095 0.68077 0.0
H1302 H 0.53311 0.97763 0.68842 0.0
H1303 H 0.522 1.00103 0.69253 0.0
H1304 H 0.59925 0.98895 0.70471 0.0
H1305 H 0.57173 0.04502 0.71394 0.0
H1306 H 0.58228 0.97904 0.65766 0.0
H1307 H 0.5634 0.96763 0.67226 0.0
H1308 H 0.58895 0.96632 0.67986 0.0
H1309 H 0.54828 0.04794 0.66913 0.0
H1310 H 0.54513 0.05515 0.69466 0.0
H1311 H 0.52997 0.0354 0.68355 0.0
C1312 C 0.91559 0.21736 0.76141 0.0
C1313 C 0.89711 0.20789 0.76404 0.0
C1314 C 0.92885 0.22036 0.77737 0.0
C1315 C 0.92323 0.21426 0.79651 0.0
C1316 C 0.90472 0.20431 0.7991 0.0
C1317 C 0.89195 0.20114 0.7828 0.0
C1318 C 0.94879 0.23024 0.77378 0.0
C1319 C 0.89785 0.19791 0.81917 0.0
C1320 C 0.96303 0.21097 0.83647 0.0
C1321 C 0.9625 0.22986 0.8454 0.0
C1322 C 0.95018 0.20555 0.82069 0.0
C1323 C 0.9363 0.21928 0.81389 0.0
C1324 C 0.93551 0.23825 0.82314 0.0
C1325 C 0.949 0.24348 0.83839 0.0
C1326 C 0.95192 0.18541 0.81086 0.0
C1327 C 0.92067 0.25317 0.81666 0.0
H1328 H 0.91965 0.22239 0.74683 0.0
H1329 H 0.87756 0.19398 0.78487 0.0
H1330 H 0.94968 0.24498 0.78135 0.0
H1331 H 0.96071 0.22123 0.78006 0.0
H1332 H 0.95162 0.23235 0.75781 0.0
H1333 H 0.88524 0.18698 0.81816 0.0
H1334 H 0.90999 0.19138 0.82778 0.0
H1335 H 0.89292 0.21117 0.82742 0.0
H1336 H 0.97385 0.20061 0.84153 0.0
H1337 H 0.94933 0.25845 0.84447 0.0
H1338 H 0.95571 0.18723 0.79507 0.0
H1339 H 0.93754 0.17708 0.81132 0.0
H1340 H 0.96339 0.17641 0.81799 0.0
H1341 H 0.92312 0.25708 0.80101 0.0
H1342 H 0.92157 0.26703 0.82578 0.0
H1343 H 0.90548 0.24658 0.81762 0.0
C1344 C 0.50278 0.87762 0.48544 0.0
C1345 C 0.48806 0.89038 0.47907 0.0
C1346 C 0.50634 0.85978 0.47517 0.0
C1347 C 0.49494 0.85457 0.45809 0.0
C1348 C 0.48054 0.86772 0.45122 0.0
C1349 C 0.47726 0.88541 0.46179 0.0
C1350 C 0.52175 0.84614 0.48303 0.0
C1351 C 0.46814 0.86281 0.433 0.0
C1352 C 0.50919 0.81387 0.42153 0.0
C1353 C 0.49593 0.79842 0.4266 0.0
C1354 C 0.50969 0.83204 0.43216 0.0
C1355 C 0.49676 0.83471 0.44829 0.0
C1356 C 0.48426 0.81871 0.45417 0.0
C1357 C 0.48396 0.80084 0.44324 0.0
C1358 C 0.52325 0.84873 0.42545 0.0
C1359 C 0.47041 0.82078 0.4714 0.0
H1360 H 0.51109 0.88126 0.49886 0.0
H1361 H 0.4661 0.89534 0.45659 0.0
H1362 H 0.51442 0.83237 0.48846 0.0
H1363 H 0.53192 0.84173 0.47108 0.0
H1364 H 0.5306 0.85313 0.49534 0.0
H1365 H 0.45852 0.87518 0.42885 0.0
H1366 H 0.47779 0.85929 0.42034 0.0
H1367 H 0.45861 0.84945 0.43565 0.0
H1368 H 0.51841 0.81216 0.40863 0.0
H1369 H 0.4738 0.78891 0.44738 0.0
H1370 H 0.53161 0.85545 0.43819 0.0
H1371 H 0.51431 0.86055 0.41894 0.0
H1372 H 0.53393 0.84365 0.4142 0.0
H1373 H 0.47858 0.82661 0.48466 0.0
H1374 H 0.46293 0.80645 0.47513 0.0
H1375 H 0.45891 0.83159 0.46779 0.0
C1376 C 0.09675 0.29705 0.76753 0.0
C1377 C 0.11678 0.30013 0.77292 0.0
C1378 C 0.08228 0.29256 0.78165 0.0
C1379 C 0.08765 0.29215 0.80189 0.0
C1380 C 0.10754 0.29629 0.80764 0.0
C1381 C 0.12189 0.29973 0.79312 0.0
C1382 C 0.06136 0.28759 0.7748 0.0
C1383 C 0.11376 0.29669 0.82913 0.0
C1384 C 0.04533 0.2939 0.83864 0.0
C1385 C 0.04389 0.27407 0.84442 0.0
C1386 C 0.05997 0.3002 0.8253 0.0
C1387 C 0.07272 0.2861 0.81687 0.0
C1388 C 0.07101 0.26598 0.8225 0.0
C1389 C 0.05692 0.26032 0.83654 0.0
C1390 C 0.0619 0.32191 0.82036 0.0
C1391 C 0.08372 0.25032 0.81331 0.0
H1392 H 0.09223 0.29794 0.7522 0.0
H1393 H 0.13719 0.30169 0.79774 0.0
H1394 H 0.05696 0.27241 0.77952 0.0
H1395 H 0.05096 0.29797 0.78171 0.0
H1396 H 0.05964 0.28829 0.75849 0.0
H1397 H 0.12909 0.30278 0.83133 0.0
H1398 H 0.10357 0.30579 0.83799 0.0
H1399 H 0.113 0.28143 0.83499 0.0
H1400 H 0.03527 0.30451 0.84485 0.0
H1401 H 0.05559 0.24493 0.84087 0.0
H1402 H 0.0586 0.32397 0.80446 0.0
H1403 H 0.07733 0.32742 0.8231 0.0
H1404 H 0.05176 0.33114 0.82918 0.0
H1405 H 0.08192 0.25026 0.79699 0.0
H1406 H 0.07995 0.23521 0.8187 0.0
H1407 H 0.09955 0.25372 0.81668 0.0
C1408 C 0.51278 0.62363 0.46828 0.0
C1409 C 0.52271 0.62702 0.4864 0.0
C1410 C 0.50797 0.63943 0.45601 0.0
C1411 C 0.51306 0.65917 0.46203 0.0
C1412 C 0.5231 0.66272 0.48027 0.0
C1413 C 0.52786 0.64663 0.49217 0.0
C1414 C 0.49731 0.63499 0.43665 0.0
C1415 C 0.52875 0.68355 0.48725 0.0
C1416 C 0.51561 0.69921 0.42304 0.0
C1417 C 0.49721 0.7081 0.42513 0.0
C1418 C 0.52096 0.68329 0.43493 0.0
C1419 C 0.50766 0.67611 0.44936 0.0
C1420 C 0.48913 0.68506 0.45163 0.0
C1421 C 0.48411 0.70087 0.43948 0.0
C1422 C 0.5408 0.67405 0.43195 0.0
C1423 C 0.47457 0.67793 0.46693 0.0
H1424 H 0.50845 0.6086 0.46378 0.0
H1425 H 0.53581 0.64943 0.50597 0.0
H1426 H 0.48276 0.64216 0.43661 0.0
H1427 H 0.50594 0.64128 0.42426 0.0
H1428 H 0.49486 0.61881 0.43386 0.0
H1429 H 0.53647 0.68382 0.50182 0.0
H1430 H 0.53855 0.69082 0.47631 0.0
H1431 H 0.51532 0.69253 0.48846 0.0
H1432 H 0.52585 0.70457 0.41199 0.0
H1433 H 0.46986 0.70758 0.44128 0.0
H1434 H 0.53868 0.65807 0.42803 0.0
H1435 H 0.54956 0.67502 0.44589 0.0
H1436 H 0.54947 0.68137 0.42012 0.0
H1437 H 0.47047 0.66208 0.46408 0.0
H1438 H 0.46087 0.68661 0.46699 0.0
H1439 H 0.48149 0.67903 0.48186 0.0
C1440 C 0.8923 0.81365 0.72309 0.0
C1441 C 0.89201 0.80546 0.74205 0.0
C1442 C 0.90611 0.80771 0.70894 0.0
C1443 C 0.92018 0.79345 0.7139 0.0
C1444 C 0.92066 0.78593 0.7333 0.0
C1445 C 0.90651 0.79188 0.74705 0.0
C1446 C 0.905 0.81599 0.68839 0.0
C1447 C 0.93554 0.77082 0.73927 0.0
C1448 C 0.93881 0.75766 0.67502 0.0
C1449 C 0.95796 0.76528 0.67151 0.0
C1450 C 0.92616 0.76719 0.68814 0.0
C1451 C 0.93288 0.78464 0.69836 0.0
C1452 C 0.95199 0.7928 0.69448 0.0
C1453 C 0.96428 0.78309 0.68092 0.0
C1454 C 0.90577 0.75817 0.69152 0.0
C1455 C 0.95976 0.81125 0.70525 0.0
H1456 H 0.88149 0.82448 0.71916 0.0
H1457 H 0.90636 0.78521 0.76149 0.0
H1458 H 0.91982 0.82141 0.68363 0.0
H1459 H 0.90005 0.80404 0.67781 0.0
H1460 H 0.89455 0.82834 0.68741 0.0
H1461 H 0.93548 0.76819 0.75543 0.0
H1462 H 0.93212 0.7565 0.73144 0.0
H1463 H 0.95066 0.77576 0.73496 0.0
H1464 H 0.93373 0.74401 0.66766 0.0
H1465 H 0.9791 0.78899 0.67834 0.0
H1466 H 0.89438 0.76949 0.68951 0.0
H1467 H 0.90468 0.75293 0.70693 0.0
H1468 H 0.90228 0.74542 0.68132 0.0
H1469 H 0.949 0.82329 0.70417 0.0
H1470 H 0.97419 0.81665 0.69938 0.0
H1471 H 0.9617 0.80805 0.72117 0.0
C1472 C 0.00691 0.88141 0.55018 0.0
C1473 C 0.01923 0.87954 0.53373 0.0
C1474 C 0.00297 0.86524 0.56253 0.0
C1475 C 0.0117 0.84679 0.55846 0.0
C1476 C 0.0239 0.84473 0.5417 0.0
C1477 C 0.02746 0.8611 0.52951 0.0
C1478 C 0.98973 0.868 0.58013 0.0
C1479 C 0.03366 0.82539 0.53693 0.0
C1480 C 0.02008 0.8115 0.60073 0.0
C1481 C 0.00494 0.79706 0.59754 0.0
C1482 C 0.02225 0.82784 0.58828 0.0
C1483 C 0.00892 0.82992 0.57224 0.0
C1484 C 0.99335 0.81562 0.56916 0.0
C1485 C 0.99157 0.79934 0.58182 0.0
C1486 C 0.03908 0.84271 0.59209 0.0
C1487 C 0.97878 0.81738 0.55229 0.0
H1488 H 1.00032 0.89555 0.55339 0.0
H1489 H 0.03716 0.85961 0.51695 0.0
H1490 H 0.97753 0.85662 0.57975 0.0
H1491 H 0.99829 0.86594 0.59398 0.0
H1492 H 0.98324 0.88294 0.58066 0.0
H1493 H 0.04208 0.82598 0.52293 0.0
H1494 H 0.04396 0.8217 0.54909 0.0
H1495 H 0.02236 0.81314 0.5357 0.0
H1496 H 0.03049 0.80989 0.61283 0.0
H1497 H 0.97983 0.78826 0.57925 0.0
H1498 H 0.03325 0.85783 0.59401 0.0
H1499 H 0.04905 0.84304 0.57918 0.0
H1500 H 0.0479 0.8392 0.60544 0.0
H1501 H 0.97172 0.83201 0.55305 0.0
H1502 H 0.96702 0.80551 0.55239 0.0
H1503 H 0.98664 0.81653 0.53801 0.0
C1504 C 0.11437 0.69521 0.7261 0.0
C1505 C 0.11702 0.70648 0.74359 0.0
C1506 C 0.09849 0.69857 0.71316 0.0
C1507 C 0.08487 0.71345 0.71791 0.0
C1508 C 0.08734 0.72468 0.73568 0.0
C1509 C 0.10339 0.72108 0.74827 0.0
C1510 C 0.09641 0.68636 0.69429 0.0
C1511 C 0.07304 0.74054 0.74137 0.0
C1512 C 0.05435 0.73513 0.6765 0.0
C1513 C 0.03624 0.72458 0.6782 0.0
C1514 C 0.07029 0.73164 0.68931 0.0
C1515 C 0.06808 0.71735 0.70427 0.0
C1516 C 0.0498 0.70684 0.70625 0.0
C1517 C 0.03414 0.71053 0.69319 0.0
C1518 C 0.08958 0.74313 0.68671 0.0
C1519 C 0.04682 0.69158 0.72211 0.0
H1520 H 0.12497 0.68404 0.72233 0.0
H1521 H 0.10521 0.72964 0.76191 0.0
H1522 H 0.08178 0.67846 0.69374 0.0
H1523 H 0.0971 0.69625 0.68137 0.0
H1524 H 0.10814 0.67526 0.69284 0.0
H1525 H 0.07692 0.7478 0.75582 0.0
H1526 H 0.07284 0.75209 0.7299 0.0
H1527 H 0.05783 0.734 0.74222 0.0
H1528 H 0.05621 0.74595 0.66496 0.0
H1529 H 0.02026 0.70228 0.69468 0.0
H1530 H 0.10165 0.73271 0.68379 0.0
H1531 H 0.09354 0.75153 0.70051 0.0
H1532 H 0.0889 0.75374 0.67437 0.0
H1533 H 0.05752 0.67956 0.72019 0.0
H1534 H 0.03162 0.68487 0.72185 0.0
H1535 H 0.0497 0.69851 0.73689 0.0
C1536 C 0.00343 0.61637 0.55271 0.0
C1537 C 0.99973 0.61899 0.5325 0.0
C1538 C 0.00558 0.63258 0.56588 0.0
C1539 C 0.00454 0.65213 0.55872 0.0
C1540 C 0.00236 0.655 0.53813 0.0
C1541 C 0.99958 0.63844 0.52533 0.0
C1542 C 0.00774 0.62832 0.58754 0.0
C1543 C 0.00268 0.67556 0.52961 0.0
C1544 C 0.98696 0.69408 0.59198 0.0
C1545 C 0.00478 0.70187 0.59995 0.0
C1546 C 0.98665 0.6776 0.57894 0.0
C1547 C 0.0047 0.66947 0.57278 0.0
C1548 C 0.02282 0.67789 0.58013 0.0
C1549 C 0.02262 0.69384 0.59379 0.0
C1550 C 0.96699 0.66886 0.57181 0.0
C1551 C 0.0424 0.67013 0.57344 0.0
H1552 H 0.00436 0.60153 0.55847 0.0
H1553 H 0.99679 0.64083 0.50978 0.0
H1554 H 0.01554 0.64052 0.59589 0.0
H1555 H 0.99272 0.62615 0.59368 0.0
H1556 H 0.0158 0.61442 0.58986 0.0
H1557 H 0.00392 0.67519 0.51326 0.0
H1558 H 0.98892 0.68317 0.53353 0.0
H1559 H 0.01528 0.68461 0.53592 0.0
H1560 H 0.97326 0.70109 0.5957 0.0
H1561 H 0.03648 0.70025 0.59947 0.0
H1562 H 0.96583 0.65294 0.57569 0.0
H1563 H 0.96583 0.66963 0.55551 0.0
H1564 H 0.95429 0.67667 0.57828 0.0
H1565 H 0.04399 0.65468 0.57846 0.0
H1566 H 0.05514 0.6793 0.5793 0.0
H1567 H 0.04301 0.6698 0.55705 0.0
C1568 C 0.76467 0.91369 0.21462 0.0
C1569 C 0.76801 0.89346 0.21096 0.0
C1570 C 0.78046 0.92726 0.21889 0.0
C1571 C 0.80017 0.92067 0.2188 0.0
C1572 C 0.80362 0.90051 0.21437 0.0
C1573 C 0.78763 0.88716 0.21118 0.0
C1574 C 0.77604 0.94856 0.22393 0.0
C1575 C 0.82409 0.89245 0.21377 0.0
C1576 C 0.84155 0.96017 0.21555 0.0
C1577 C 0.84803 0.96174 0.23523 0.0
C1578 C 0.82635 0.94646 0.20986 0.0
C1579 C 0.81701 0.93458 0.22433 0.0
C1580 C 0.82381 0.93595 0.24419 0.0
C1581 C 0.83918 0.94956 0.24939 0.0
C1582 C 0.82034 0.9446 0.18837 0.0
C1583 C 0.81464 0.92328 0.26003 0.0
H1584 H 0.74973 0.91902 0.21424 0.0
H1585 H 0.79072 0.87158 0.20923 0.0
H1586 H 0.78174 0.9524 0.23899 0.0
H1587 H 0.78371 0.95864 0.21351 0.0
H1588 H 0.75995 0.95138 0.22338 0.0
H1589 H 0.82498 0.88023 0.20261 0.0
H1590 H 0.83544 0.90401 0.21032 0.0
H1591 H 0.82736 0.88614 0.22841 0.0
H1592 H 0.84836 0.96969 0.20464 0.0
H1593 H 0.84385 0.95116 0.26472 0.0
H1594 H 0.80457 0.9483 0.18654 0.0
H1595 H 0.82187 0.92901 0.18316 0.0
H1596 H 0.82943 0.95448 0.17885 0.0
H1597 H 0.79845 0.92547 0.26051 0.0
H1598 H 0.8211 0.92672 0.2749 0.0
H1599 H 0.81689 0.90738 0.2565 0.0
C1600 C 0.78824 0.11239 0.31463 0.0
C1601 C 0.77348 0.11528 0.30034 0.0
C1602 C 0.80246 0.09783 0.31195 0.0
C1603 C 0.80192 0.08586 0.29453 0.0
C1604 C 0.78684 0.08845 0.28023 0.0
C1605 C 0.77281 0.10311 0.2833 0.0
C1606 C 0.81825 0.09546 0.32758 0.0
C1607 C 0.78578 0.07605 0.26142 0.0
C1608 C 0.84882 0.06281 0.27557 0.0
C1609 C 0.84595 0.04286 0.2807 0.0
C1610 C 0.83487 0.07704 0.28048 0.0
C1611 C 0.8176 0.07122 0.29079 0.0
C1612 C 0.81494 0.05125 0.29663 0.0
C1613 C 0.82916 0.03729 0.29152 0.0
C1614 C 0.83832 0.0982 0.27404 0.0
C1615 C 0.79676 0.04447 0.3077 0.0
H1616 H 0.78869 0.12154 0.32797 0.0
H1617 H 0.76162 0.1054 0.27207 0.0
H1618 H 0.81829 0.07986 0.33253 0.0
H1619 H 0.83302 0.09891 0.3213 0.0
H1620 H 0.81611 0.10534 0.34066 0.0
H1621 H 0.77266 0.07933 0.25217 0.0
H1622 H 0.7993 0.07885 0.25261 0.0
H1623 H 0.78522 0.06003 0.26495 0.0
H1624 H 0.86177 0.06726 0.26724 0.0
H1625 H 0.82682 0.02191 0.29552 0.0
H1626 H 0.83731 0.10855 0.28689 0.0
H1627 H 0.82667 0.10215 0.26327 0.0
H1628 H 0.85298 0.10055 0.26706 0.0
H1629 H 0.79475 0.05403 0.321 0.0
H1630 H 0.79754 0.02879 0.31236 0.0
H1631 H 0.78346 0.04592 0.29817 0.0
C1632 C 0.38573 0.9666 0.01074 0.0
C1633 C 0.38729 0.97656 0.99271 0.0
C1634 C 0.36862 0.95534 0.0154 0.0
C1635 C 0.35288 0.95354 1.0015 0.0
C1636 C 0.35426 0.96366 0.98338 0.0
C1637 C 0.37127 0.97523 0.97935 0.0
C1638 C 0.36753 0.9451 0.03503 0.0
C1639 C 0.33791 0.96192 0.96801 0.0
C1640 C 0.31811 0.90851 0.99892 0.0
C1641 C 0.30034 0.91662 0.00499 0.0
C1642 C 0.33566 0.92009 0.99878 0.0
C1643 C 0.33541 0.9402 0.00517 0.0
C1644 C 0.31774 0.94797 0.01283 0.0
C1645 C 0.30026 0.93612 0.01239 0.0
C1646 C 0.35403 0.91125 0.99021 0.0
C1647 C 0.31698 0.96917 0.02025 0.0
H1648 H 0.39802 0.96725 0.02114 0.0
H1649 H 0.37198 0.98324 0.96563 0.0
H1650 H 0.35352 0.94858 0.04255 0.0
H1651 H 0.36757 0.92877 0.03264 0.0
H1652 H 0.38013 0.94952 0.04497 0.0
H1653 H 0.34128 0.9707 0.95466 0.0
H1654 H 0.33548 0.94613 0.96342 0.0
H1655 H 0.32386 0.96707 0.97434 0.0
H1656 H 0.31802 0.89341 0.9931 0.0
H1657 H 0.28638 0.94239 0.01683 0.0
H1658 H 0.36694 0.9142 1.00016 0.0
H1659 H 0.3574 0.91831 0.97589 0.0
H1660 H 0.35227 0.89496 0.98764 0.0
H1661 H 0.32997 0.97299 0.02987 0.0
H1662 H 0.30327 0.9719 0.02865 0.0
H1663 H 0.31748 0.97932 0.00753 0.0
C1664 C 0.24561 0.41495 0.29048 0.0
C1665 C 0.23974 0.39492 0.29281 0.0
C1666 C 0.23186 0.42941 0.2858 0.0
C1667 C 0.21151 0.42405 0.28433 0.0
C1668 C 0.20529 0.40414 0.28749 0.0
C1669 C 0.21945 0.38979 0.29122 0.0
C1670 C 0.2392 0.45037 0.28196 0.0
C1671 C 0.18366 0.3979 0.28669 0.0
C1672 C 0.1753 0.46625 0.2874 0.0
C1673 C 0.16949 0.46786 0.26759 0.0
C1674 C 0.18855 0.45168 0.29318 0.0
C1675 C 0.19683 0.43909 0.27866 0.0
C1676 C 0.1912 0.44096 0.25857 0.0
C1677 C 0.17727 0.45504 0.25335 0.0
C1678 C 0.19351 0.44962 0.31483 0.0
C1679 C 0.20021 0.42839 0.24251 0.0
H1680 H 0.26103 0.41948 0.29222 0.0
H1681 H 0.21449 0.37446 0.29251 0.0
H1682 H 0.23453 0.45478 0.26693 0.0
H1683 H 0.23257 0.46085 0.29262 0.0
H1684 H 0.25556 0.45202 0.28313 0.0
H1685 H 0.18107 0.38242 0.29165 0.0
H1686 H 0.17494 0.40797 0.29612 0.0
H1687 H 0.17793 0.39899 0.27136 0.0
H1688 H 0.16914 0.47611 0.29841 0.0
H1689 H 0.17291 0.45645 0.23799 0.0
H1690 H 0.20951 0.45279 0.31744 0.0
H1691 H 0.19036 0.43413 0.31943 0.0
H1692 H 0.18499 0.45981 0.32435 0.0
H1693 H 0.21656 0.43027 0.24302 0.0
H1694 H 0.19487 0.43228 0.22754 0.0
H1695 H 0.1966 0.41246 0.24493 0.0
C1696 C 0.15024 0.02176 0.4951 0.0
C1697 C 0.13039 0.02707 0.49557 0.0
C1698 C 0.16555 0.03624 0.49741 0.0
C1699 C 0.16085 0.05654 0.49951 0.0
C1700 C 0.14073 0.06178 0.50028 0.0
C1701 C 0.12579 0.04699 0.49843 0.0
C1702 C 0.18675 0.02984 0.49752 0.0
C1703 C 0.13474 0.08306 0.50182 0.0
C1704 C 0.19959 0.09439 0.51906 0.0
C1705 C 0.20775 0.1016 0.50155 0.0
C1706 C 0.18436 0.07972 0.51865 0.0
C1707 C 0.17692 0.07226 0.50024 0.0
C1708 C 0.18507 0.07961 0.48251 0.0
C1709 C 0.20075 0.09378 0.48341 0.0
C1710 C 0.17642 0.07198 0.53789 0.0
C1711 C 0.1773 0.07243 0.46258 0.0
H1712 H 0.15374 0.00628 0.49299 0.0
H1713 H 0.1104 0.05108 0.49852 0.0
H1714 H 0.19449 0.03565 0.48437 0.0
H1715 H 0.19465 0.0361 0.51078 0.0
H1716 H 0.18785 0.01342 0.49746 0.0
H1717 H 0.14494 0.09203 0.51156 0.0
H1718 H 0.13515 0.08932 0.4868 0.0
H1719 H 0.11946 0.08434 0.50747 0.0
H1720 H 0.20536 0.10005 0.53314 0.0
H1721 H 0.20778 0.09851 0.4699 0.0
H1722 H 0.17779 0.05562 0.53829 0.0
H1723 H 0.16047 0.07514 0.53907 0.0
H1724 H 0.18433 0.07873 0.55093 0.0
H1725 H 0.17934 0.05625 0.4608 0.0
H1726 H 0.18482 0.08007 0.4502 0.0
H1727 H 0.16118 0.07494 0.4615 0.0
C1728 C 0.74483 0.10507 0.70685 0.0
C1729 C 0.74139 0.12547 0.70524 0.0
C1730 C 0.72951 0.09146 0.71163 0.0
C1731 C 0.71002 0.09816 0.71413 0.0
C1732 C 0.70633 0.11853 0.71171 0.0
C1733 C 0.72202 0.13191 0.70787 0.0
C1734 C 0.73426 0.06993 0.71439 0.0
C1735 C 0.68601 0.12667 0.71386 0.0
C1736 C 0.66934 0.05776 0.71124 0.0
C1737 C 0.66542 0.05476 0.73125 0.0
C1738 C 0.68316 0.07249 0.7054 0.0
C1739 C 0.69381 0.08393 0.71996 0.0
C1740 C 0.6895 0.08118 0.7402 0.0
C1741 C 0.67539 0.06659 0.74558 0.0
C1742 C 0.68646 0.07576 0.68368 0.0
C1743 C 0.70017 0.09328 0.7562 0.0
H1744 H 0.75952 0.09963 0.70444 0.0
H1745 H 0.71898 0.14758 0.70733 0.0
H1746 H 0.7301 0.06533 0.7295 0.0
H1747 H 0.72548 0.06041 0.7038 0.0
H1748 H 0.75019 0.06711 0.71223 0.0
H1749 H 0.68404 0.13967 0.70425 0.0
H1750 H 0.6743 0.11538 0.71016 0.0
H1751 H 0.68434 0.13183 0.72937 0.0
H1752 H 0.66164 0.04853 0.70018 0.0
H1753 H 0.67264 0.06396 0.76108 0.0
H1754 H 0.70185 0.07215 0.67981 0.0
H1755 H 0.68448 0.09163 0.68026 0.0
H1756 H 0.67614 0.06653 0.67423 0.0
H1757 H 0.71634 0.09118 0.75518 0.0
H1758 H 0.69523 0.08918 0.77123 0.0
H1759 H 0.69756 0.10928 0.75413 0.0
C1760 C 0.38496 0.0536 0.5019 0.0
C1761 C 0.38289 0.03807 0.51537 0.0
C1762 C 0.36923 0.06619 0.49794 0.0
C1763 C 0.35096 0.06322 0.50767 0.0
C1764 C 0.34867 0.04736 0.52099 0.0
C1765 C 0.36462 0.035 0.52466 0.0
C1766 C 0.37231 0.08294 0.48368 0.0
C1767 C 0.32943 0.04362 0.53164 0.0
C1768 C 0.31682 0.10649 0.51527 0.0
C1769 C 0.30204 0.10251 0.50092 0.0
C1770 C 0.33301 0.09408 0.5173 0.0
C1771 C 0.33452 0.07721 0.50469 0.0
C1772 C 0.31991 0.07338 0.48984 0.0
C1773 C 0.30385 0.08607 0.48812 0.0
C1774 C 0.34825 0.09877 0.5333 0.0
C1775 C 0.321 0.05558 0.47608 0.0
H1776 H 0.39906 0.05624 0.4948 0.0
H1777 H 0.36275 0.02286 0.53482 0.0
H1778 H 0.36066 0.0822 0.47202 0.0
H1779 H 0.37105 0.09739 0.49161 0.0
H1780 H 0.38701 0.08262 0.47653 0.0
H1781 H 0.3298 0.03025 0.54099 0.0
H1782 H 0.32617 0.05664 0.54119 0.0
H1783 H 0.31708 0.04168 0.52081 0.0
H1784 H 0.3156 0.11916 0.52521 0.0
H1785 H 0.2925 0.08287 0.47701 0.0
H1786 H 0.36325 0.09979 0.52684 0.0
H1787 H 0.34827 0.0866 0.54413 0.0
H1788 H 0.34542 0.11291 0.54131 0.0
H1789 H 0.33551 0.05562 0.46857 0.0
H1790 H 0.30907 0.05522 0.46467 0.0
H1791 H 0.31981 0.04175 0.48469 0.0
C1792 C 0.64562 0.48546 0.53426 0.0
C1793 C 0.62656 0.4811 0.52672 0.0
C1794 C 0.6615 0.47327 0.52972 0.0
C1795 C 0.65822 0.4562 0.51748 0.0
C1796 C 0.63894 0.45154 0.5101 0.0
C1797 C 0.62337 0.46409 0.51472 0.0
C1798 C 0.68187 0.47887 0.5377 0.0
C1799 C 0.63478 0.43338 0.49717 0.0
C1800 C 0.70134 0.43558 0.48888 0.0
C1801 C 0.7068 0.41953 0.50051 0.0
C1802 C 0.68571 0.44769 0.49435 0.0
C1803 C 0.67508 0.44361 0.51179 0.0
C1804 C 0.68046 0.42747 0.52362 0.0
C1805 C 0.69631 0.41568 0.5179 0.0
C1806 C 0.68057 0.46487 0.48142 0.0
C1807 C 0.66935 0.42254 0.54223 0.0
H1808 H 0.6482 0.49868 0.54339 0.0
H1809 H 0.60861 0.46052 0.50907 0.0
H1810 H 0.68785 0.46643 0.5462 0.0
H1811 H 0.69209 0.4817 0.52527 0.0
H1812 H 0.68186 0.49232 0.54743 0.0
H1813 H 0.61884 0.43142 0.49326 0.0
H1814 H 0.64335 0.43451 0.48332 0.0
H1815 H 0.63962 0.4199 0.50481 0.0
H1816 H 0.70935 0.43879 0.47547 0.0
H1817 H 0.70032 0.4033 0.52696 0.0
H1818 H 0.68145 0.47895 0.49017 0.0
H1819 H 0.66513 0.46293 0.47587 0.0
H1820 H 0.69055 0.46631 0.46855 0.0
H1821 H 0.67001 0.43546 0.55262 0.0
H1822 H 0.67539 0.40951 0.54982 0.0
H1823 H 0.65352 0.41935 0.53863 0.0
C1824 C 0.72161 0.26329 0.4077 0.0
C1825 C 0.71262 0.26729 0.38946 0.0
C1826 C 0.72373 0.27805 0.42256 0.0
C1827 C 0.71721 0.29745 0.41894 0.0
C1828 C 0.70741 0.30134 0.40092 0.0
C1829 C 0.70511 0.28622 0.38652 0.0
C1830 C 0.73339 0.273 0.44197 0.0
C1831 C 0.70028 0.3217 0.39619 0.0
C1832 C 0.71291 0.33432 0.46186 0.0
C1833 C 0.73153 0.34399 0.46174 0.0
C1834 C 0.70794 0.31919 0.44797 0.0
C1835 C 0.72185 0.31387 0.43345 0.0
C1836 C 0.74058 0.32382 0.43314 0.0
C1837 C 0.74538 0.33834 0.44766 0.0
C1838 C 0.68807 0.30852 0.44919 0.0
C1839 C 0.75568 0.31891 0.41766 0.0
H1840 H 0.72754 0.24879 0.41022 0.0
H1841 H 0.6976 0.2894 0.37277 0.0
H1842 H 0.74814 0.28058 0.44324 0.0
H1843 H 0.7244 0.27831 0.45451 0.0
H1844 H 0.73534 0.25677 0.4434 0.0
H1845 H 0.6886 0.32108 0.38452 0.0
H1846 H 0.69447 0.3294 0.40941 0.0
H1847 H 0.71296 0.33066 0.39064 0.0
H1848 H 0.70239 0.3383 0.47314 0.0
H1849 H 0.76017 0.34493 0.44828 0.0
H1850 H 0.69017 0.29242 0.45133 0.0
H1851 H 0.67971 0.31004 0.43514 0.0
H1852 H 0.67901 0.31429 0.4615 0.0
H1853 H 0.75984 0.30318 0.41879 0.0
H1854 H 0.76933 0.32841 0.41913 0.0
H1855 H 0.7492 0.32079 0.40271 0.0
C1856 C 0.52666 0.0153 0.86552 0.0
C1857 C 0.53375 0.01128 0.88451 0.0
C1858 C 0.53873 0.01321 0.84892 0.0
C1859 C 0.55851 0.00732 0.8514 0.0
C1860 C 0.5654 0.00219 0.87043 0.0
C1861 C 0.55286 0.0041 0.88677 0.0
C1862 C 0.53066 0.01853 0.82888 0.0
C1863 C 0.58644 0.99609 0.87378 0.0
C1864 C 0.58819 0.99718 0.80473 0.0
C1865 C 0.59659 0.01608 0.80134 0.0
C1866 C 0.57605 0.99383 0.82125 0.0
C1867 C 0.57264 0.00966 0.83477 0.0
C1868 C 0.58187 0.02846 0.83181 0.0
C1869 C 0.59351 0.03146 0.8151 0.0
C1870 C 0.56626 0.97365 0.8238 0.0
C1871 C 0.57899 0.04569 0.84601 0.0
H1872 H 0.51177 0.02059 0.86373 0.0
H1873 H 0.55838 1.00103 0.90146 0.0
H1874 H 0.53755 0.03283 0.82423 0.0
H1875 H 0.53439 0.00708 0.81765 0.0
H1876 H 0.51436 0.02007 0.82898 0.0
H1877 H 0.58864 0.98986 0.8887 0.0
H1878 H 0.59072 0.98492 0.86251 0.0
H1879 H 0.59656 0.00923 0.8723 0.0
H1880 H 0.59047 0.98525 0.79412 0.0
H1881 H 0.60008 0.04607 0.81274 0.0
H1882 H 0.55005 0.97471 0.8216 0.0
H1883 H 0.56873 0.96836 0.83903 0.0
H1884 H 0.57182 0.96247 0.81313 0.0
H1885 H 0.5633 0.05002 0.84563 0.0
H1886 H 0.58841 0.05888 0.84238 0.0
H1887 H 0.58248 0.0413 0.86134 0.0
C1888 C 0.30855 0.25 0.40434 0.0
C1889 C 0.30035 0.24698 0.38537 0.0
C1890 C 0.30454 0.2365 0.41952 0.0
C1891 C 0.29217 0.21953 0.41556 0.0
C1892 C 0.28473 0.21592 0.39615 0.0
C1893 C 0.28883 0.22971 0.38134 0.0
C1894 C 0.31266 0.24097 0.44002 0.0
C1895 C 0.27164 0.19792 0.39121 0.0
C1896 C 0.28633 0.17658 0.45127 0.0
C1897 C 0.26791 0.18051 0.45954 0.0
C1898 C 0.29492 0.18953 0.4374 0.0
C1899 C 0.28493 0.20686 0.432 0.0
C1900 C 0.2669 0.21139 0.44123 0.0
C1901 C 0.25859 0.19813 0.45475 0.0
C1902 C 0.31412 0.18416 0.42782 0.0
C1903 C 0.25586 0.22983 0.43618 0.0
H1904 H 0.31742 0.26335 0.40755 0.0
H1905 H 0.28276 0.22713 0.3666 0.0
H1906 H 0.30041 0.2452 0.44988 0.0
H1907 H 0.31936 0.22761 0.44629 0.0
H1908 H 0.32395 0.25329 0.44016 0.0
H1909 H 0.26875 0.1962 0.37508 0.0
H1910 H 0.27852 0.18426 0.39658 0.0
H1911 H 0.25726 0.19925 0.39879 0.0
H1912 H 0.29355 0.16295 0.45488 0.0
H1913 H 0.24445 0.20139 0.46131 0.0
H1914 H 0.32466 0.19709 0.42808 0.0
H1915 H 0.3113 0.17996 0.4121 0.0
H1916 H 0.32116 0.17154 0.43522 0.0
H1917 H 0.26586 0.24315 0.43749 0.0
H1918 H 0.24294 0.23204 0.44589 0.0
H1919 H 0.25051 0.22873 0.42064 0.0
C1920 C 0.46254 0.50019 0.89268 0.0
C1921 C 0.48165 0.49301 0.89 0.0
C1922 C 0.44986 0.5032 0.8765 0.0
C1923 C 0.4565 0.49926 0.85709 0.0
C1924 C 0.47615 0.49324 0.8542 0.0
C1925 C 0.48838 0.48999 0.87063 0.0
C1926 C 0.42896 0.50946 0.88026 0.0
C1927 C 0.48392 0.48905 0.83375 0.0
C1928 C 0.4205 0.47862 0.81826 0.0
C1929 C 0.41745 0.49505 0.80625 0.0
C1930 C 0.43252 0.4801 0.83518 0.0
C1931 C 0.44221 0.49842 0.84015 0.0
C1932 C 0.43893 0.51526 0.8284 0.0
C1933 C 0.42638 0.51343 0.81164 0.0
C1934 C 0.43523 0.46184 0.84745 0.0
C1935 C 0.44923 0.53496 0.8331 0.0
H1936 H 0.45729 0.50308 0.90749 0.0
H1937 H 0.50297 0.48425 0.86824 0.0
H1938 H 0.425 0.52174 0.87041 0.0
H1939 H 0.41854 0.49679 0.87689 0.0
H1940 H 0.42683 0.5143 0.89584 0.0
H1941 H 0.5002 0.48731 0.83379 0.0
H1942 H 0.4768 0.47516 0.8277 0.0
H1943 H 0.48021 0.5012 0.82362 0.0
H1944 H 0.41357 0.46437 0.81435 0.0
H1945 H 0.42414 0.52615 0.8024 0.0
H1946 H 0.43197 0.46514 0.86318 0.0
H1947 H 0.45083 0.45727 0.84672 0.0
H1948 H 0.42555 0.44912 0.84234 0.0
H1949 H 0.44699 0.53926 0.84879 0.0
H1950 H 0.44389 0.54698 0.82356 0.0
H1951 H 0.46539 0.53364 0.83096 0.0
C1952 C 0.72233 0.74829 0.10824 0.0
C1953 C 0.70862 0.74284 0.12275 0.0
C1954 C 0.72599 0.73569 0.09205 0.0
C1955 C 0.71574 0.71711 0.09032 0.0
C1956 C 0.70195 0.71145 0.10497 0.0
C1957 C 0.6985 0.72442 0.12097 0.0
C1958 C 0.74064 0.74237 0.07666 0.0
C1959 C 0.69082 0.69171 0.10369 0.0
C1960 C 0.7106 0.69339 0.03913 0.0
C1961 C 0.72559 0.6794 0.03931 0.0
C1962 C 0.70722 0.70567 0.05563 0.0
C1963 C 0.71903 0.70391 0.07285 0.0
C1964 C 0.73415 0.68982 0.07321 0.0
C1965 C 0.73729 0.67778 0.05642 0.0
C1966 C 0.69105 0.7206 0.0546 0.0
C1967 C 0.74699 0.68747 0.09134 0.0
H1968 H 0.73 0.76263 0.10938 0.0
H1969 H 0.68804 0.72005 0.13224 0.0
H1970 H 0.75242 0.73137 0.07508 0.0
H1971 H 0.7331 0.74328 0.06209 0.0
H1972 H 0.74767 0.75709 0.08038 0.0
H1973 H 0.68097 0.68932 0.11652 0.0
H1974 H 0.68171 0.69082 0.08996 0.0
H1975 H 0.70139 0.67946 0.10293 0.0
H1976 H 0.70144 0.69483 0.02603 0.0
H1977 H 0.74884 0.66698 0.0568 0.0
H1978 H 0.69741 0.73581 0.05709 0.0
H1979 H 0.68014 0.71783 0.06645 0.0
H1980 H 0.68313 0.72006 0.04013 0.0
H1981 H 0.75511 0.70165 0.0949 0.0
H1982 H 0.75789 0.67561 0.08937 0.0
H1983 H 0.73762 0.68387 0.10424 0.0
C1984 C 0.99316 0.03197 0.15266 0.0
C1985 C 0.98797 0.02455 0.13376 0.0
C1986 C 0.98168 0.02717 0.16921 0.0
C1987 C 0.96448 0.01482 0.16676 0.0
C1988 C 0.95908 0.00744 0.14767 0.0
C1989 C 0.97093 0.01232 0.13144 0.0
C1990 C 0.98803 0.03517 0.18933 0.0
C1991 C 0.94072 0.99445 0.14438 0.0
C1992 C 0.94288 0.9869 0.21035 0.0
C1993 C 0.92711 0.99887 0.2158 0.0
C1994 C 0.95542 0.99214 0.19472 0.0
C1995 C 0.95202 0.00966 0.1841 0.0
C1996 C 0.93631 0.02193 0.18966 0.0
C1997 C 0.92413 0.01645 0.20547 0.0
C1998 C 0.97214 0.97877 0.18937 0.0
C1999 C 0.93208 0.04063 0.17861 0.0
H2000 H 0.00642 0.04127 0.15457 0.0
H2001 H 0.96673 0.00674 0.11683 0.0
H2002 H 0.97618 0.04422 0.19576 0.0
H2003 H 0.99045 0.02271 0.19948 0.0
H2004 H 1.00184 0.04448 0.18876 0.0
H2005 H 0.9385 0.99005 0.1286 0.0
H2006 H 0.94168 0.9808 0.15322 0.0
H2007 H 0.92751 0.00239 0.14945 0.0
H2008 H 0.94539 0.97333 0.21823 0.0
H2009 H 0.91197 0.02579 0.20944 0.0
H2010 H 0.98637 0.9874 0.18951 0.0
H2011 H 0.96982 0.97267 0.17417 0.0
H2012 H 0.97339 0.9662 0.19966 0.0
H2013 H 0.9454 0.05063 0.17865 0.0
H2014 H 0.91961 0.04882 0.18509 0.0
H2015 H 0.92839 0.03685 0.16295 0.0
C2016 C 0.30099 0.76256 0.09508 0.0
C2017 C 0.30475 0.76843 0.11485 0.0
C2018 C 0.29502 0.77623 0.08093 0.0
C2019 C 0.29365 0.79651 0.08633 0.0
C2020 C 0.29836 0.80278 0.10591 0.0
C2021 C 0.30339 0.78867 0.11999 0.0
C2022 C 0.28957 0.76882 0.06033 0.0
C2023 C 0.29772 0.82439 0.11213 0.0
C2024 C 0.2924 0.83361 0.04454 0.0
C2025 C 0.27239 0.83836 0.04418 0.0
C2026 C 0.29966 0.82036 0.0585 0.0
C2027 C 0.28639 0.81102 0.07175 0.0
C2028 C 0.26607 0.81553 0.07111 0.0
C2029 C 0.2594 0.82948 0.05761 0.0
C2030 C 0.32154 0.8166 0.05926 0.0
C2031 C 0.2513 0.80538 0.08447 0.0
H2032 H 0.30249 0.7472 0.09056 0.0
H2033 H 0.30578 0.7936 0.13515 0.0
H2034 H 0.27403 0.77244 0.05689 0.0
H2035 H 0.29903 0.77637 0.0493 0.0
H2036 H 0.29115 0.75253 0.05855 0.0
H2037 H 0.30404 0.82715 0.12717 0.0
H2038 H 0.30602 0.83376 0.10153 0.0
H2039 H 0.28219 0.82923 0.11203 0.0
H2040 H 0.30244 0.84063 0.03421 0.0
H2041 H 0.24387 0.83303 0.05716 0.0
H2042 H 0.32416 0.8007 0.05611 0.0
H2043 H 0.32746 0.82004 0.07433 0.0
H2044 H 0.32998 0.82567 0.04849 0.0
H2045 H 0.25204 0.78903 0.08258 0.0
H2046 H 0.2359 0.80981 0.08141 0.0
H2047 H 0.25495 0.80903 0.10014 0.0
C2048 C 0.01769 0.48811 0.1429 0.0
C2049 C 0.02247 0.49525 0.12414 0.0
C2050 C 0.03026 0.49197 0.15926 0.0
C2051 C 0.04814 0.5031 0.15679 0.0
C2052 C 0.05311 0.51022 0.13785 0.0
C2053 C 0.04019 0.50628 0.12179 0.0
C2054 C 0.02434 0.48427 0.17923 0.0
C2055 C 0.0721 0.52198 0.13456 0.0
C2056 C 0.07219 0.52924 0.20155 0.0
C2057 C 0.08716 0.51619 0.20662 0.0
C2058 C 0.05934 0.52509 0.18548 0.0
C2059 C 0.06153 0.50752 0.17405 0.0
C2060 C 0.07657 0.49427 0.17903 0.0
C2061 C 0.08916 0.49873 0.19527 0.0
C2062 C 0.04342 0.53956 0.1807 0.0
C2063 C 0.07945 0.47543 0.16714 0.0
H2064 H 0.00393 0.47974 0.14484 0.0
H2065 H 0.04409 0.5116 0.10728 0.0
H2066 H 0.0359 0.47453 0.18503 0.0
H2067 H 0.02308 0.49685 0.18989 0.0
H2068 H 0.01002 0.47576 0.17866 0.0
H2069 H 0.07392 0.52623 0.11888 0.0
H2070 H 0.07244 0.53569 0.1439 0.0
H2071 H 0.08494 0.51317 0.13904 0.0
H2072 H 0.07043 0.54277 0.21017 0.0
H2073 H 0.10067 0.48854 0.19896 0.0
H2074 H 0.02867 0.53193 0.18106 0.0
H2075 H 0.04548 0.5452 0.16554 0.0
H2076 H 0.04349 0.55242 0.1912 0.0
H2077 H 0.06571 0.46602 0.16723 0.0
H2078 H 0.09183 0.46668 0.17293 0.0
H2079 H 0.0825 0.47907 0.15152 0.0
C2080 C 0.41294 0.7202 0.26551 0.0
C2081 C 0.39453 0.71076 0.26861 0.0
C2082 C 0.42656 0.72331 0.28116 0.0
C2083 C 0.42137 0.71735 0.30047 0.0
C2084 C 0.4029 0.70749 0.30353 0.0
C2085 C 0.38976 0.70423 0.28755 0.0
C2086 C 0.44643 0.7331 0.27706 0.0
C2087 C 0.39648 0.70124 0.3238 0.0
C2088 C 0.46211 0.71356 0.33939 0.0
C2089 C 0.46195 0.7324 0.34845 0.0
C2090 C 0.44885 0.70833 0.3239 0.0
C2091 C 0.43495 0.72222 0.3175 0.0
C2092 C 0.43456 0.74117 0.32686 0.0
C2093 C 0.44842 0.74619 0.34184 0.0
C2094 C 0.45016 0.6882 0.31394 0.0
C2095 C 0.41972 0.75627 0.32081 0.0
H2096 H 0.4167 0.72507 0.25079 0.0
H2097 H 0.37542 0.6971 0.28998 0.0
H2098 H 0.44763 0.74778 0.2847 0.0
H2099 H 0.45846 0.72396 0.28293 0.0
H2100 H 0.44882 0.73528 0.26102 0.0
H2101 H 0.40873 0.69445 0.33202 0.0
H2102 H 0.39208 0.71461 0.3322 0.0
H2103 H 0.38365 0.69056 0.32316 0.0
H2104 H 0.47294 0.70306 0.34414 0.0
H2105 H 0.44902 0.76113 0.34803 0.0
H2106 H 0.4535 0.69004 0.29804 0.0
H2107 H 0.43575 0.67998 0.31479 0.0
H2108 H 0.46176 0.67909 0.3207 0.0
H2109 H 0.42187 0.76024 0.30514 0.0
H2110 H 0.42094 0.77007 0.33 0.0
H2111 H 0.4045 0.74981 0.32207 0.0
C2112 C 0.9995 0.38391 0.9704 0.0
C2113 C 0.98124 0.38617 0.97983 0.0
C2114 C 0.00358 0.36657 0.95951 0.0
C2115 C 0.98886 0.3513 0.95741 0.0
C2116 C 0.97043 0.35341 0.96684 0.0
C2117 C 0.96698 0.37061 0.97815 0.0
C2118 C 0.02358 0.36471 0.95005 0.0
C2119 C 0.95416 0.33765 0.96467 0.0
C2120 C 0.98868 0.31661 0.91259 0.0
C2121 C 0.99412 0.29873 0.92098 0.0
C2122 C 0.98744 0.33398 0.92418 0.0
C2123 C 0.99224 0.33352 0.94459 0.0
C2124 C 0.99889 0.31568 0.95286 0.0
C2125 C 0.99945 0.29835 0.94099 0.0
C2126 C 0.97988 0.35249 0.91481 0.0
C2127 C 0.00467 0.31471 0.97441 0.0
H2128 H 0.01059 0.39583 0.9712 0.0
H2129 H 0.95302 0.37177 0.98572 0.0
H2130 H 0.03017 0.35044 0.95413 0.0
H2131 H 0.02192 0.36461 0.93373 0.0
H2132 H 0.03401 0.37706 0.95452 0.0
H2133 H 0.94058 0.34165 0.97273 0.0
H2134 H 0.9503 0.33528 0.94881 0.0
H2135 H 0.95932 0.32333 0.97031 0.0
H2136 H 0.98453 0.31679 0.89708 0.0
H2137 H 0.00349 0.28441 0.94743 0.0
H2138 H 0.99038 0.3652 0.9176 0.0
H2139 H 0.96558 0.35638 0.92156 0.0
H2140 H 0.97759 0.35061 0.8986 0.0
H2141 H 0.01499 0.32725 0.97851 0.0
H2142 H 0.01179 0.30055 0.97795 0.0
H2143 H 0.99134 0.31609 0.98368 0.0
C2144 C 0.62245 0.80093 0.29612 0.0
C2145 C 0.6176 0.8008 0.27584 0.0
C2146 C 0.60793 0.79771 0.31053 0.0
C2147 C 0.58814 0.79329 0.30462 0.0
C2148 C 0.58303 0.79319 0.28429 0.0
C2149 C 0.59766 0.79742 0.27026 0.0
C2150 C 0.6139 0.79861 0.3321 0.0
C2151 C 0.56223 0.78792 0.27729 0.0
C2152 C 0.55744 0.76181 0.33961 0.0
C2153 C 0.54424 0.77555 0.3472 0.0
C2154 C 0.57155 0.76735 0.32554 0.0
C2155 C 0.5731 0.78736 0.31955 0.0
C2156 C 0.56014 0.80147 0.32765 0.0
C2157 C 0.54551 0.79527 0.34105 0.0
C2158 C 0.5845 0.75166 0.31675 0.0
C2159 C 0.56186 0.82308 0.32229 0.0
H2160 H 0.63768 0.80311 0.3009 0.0
H2161 H 0.59335 0.79789 0.25483 0.0
H2162 H 0.60351 0.80779 0.34064 0.0
H2163 H 0.6132 0.78348 0.33827 0.0
H2164 H 0.62914 0.80488 0.33437 0.0
H2165 H 0.56067 0.7884 0.26095 0.0
H2166 H 0.55795 0.77276 0.28215 0.0
H2167 H 0.55164 0.79826 0.28396 0.0
H2168 H 0.55626 0.74648 0.34419 0.0
H2169 H 0.53532 0.80589 0.34702 0.0
H2170 H 0.60027 0.75527 0.32022 0.0
H2171 H 0.58286 0.75131 0.30041 0.0
H2172 H 0.58082 0.73662 0.32236 0.0
H2173 H 0.57719 0.82883 0.32515 0.0
H2174 H 0.55149 0.83235 0.33078 0.0
H2175 H 0.55878 0.82479 0.3063 0.0
C2176 C 0.02588 0.12717 0.96578 0.0
C2177 C 0.02388 0.12871 0.98641 0.0
C2178 C 0.02062 0.14272 0.95339 0.0
C2179 C 0.01373 0.16058 0.96178 0.0
C2180 C 0.01208 0.16248 0.98256 0.0
C2181 C 0.01688 0.14647 0.99456 0.0
C2182 C 0.02225 0.13995 0.93128 0.0
C2183 C 0.00516 0.18142 0.99213 0.0
C2184 C 0.01673 0.20661 0.92993 0.0
C2185 C 0.99701 0.20827 0.92373 0.0
C2186 C 0.02232 0.19141 0.94262 0.0
C2187 C 0.00795 0.17716 0.94879 0.0
C2188 C 0.98805 0.17868 0.94244 0.0
C2189 C 0.98277 0.19437 0.93026 0.0
C2190 C 0.04358 0.19066 0.9495 0.0
C2191 C 0.97236 0.16352 0.94825 0.0
H2192 H 0.03168 0.11382 0.9592 0.0
H2193 H 0.01485 0.14786 0.01037 0.0
H2194 H 0.00768 0.14222 0.92412 0.0
H2195 H 0.0328 0.15118 0.92531 0.0
H2196 H 0.02731 0.12494 0.92705 0.0
H2197 H 0.00581 0.18097 0.00852 0.0
H2198 H 0.01441 0.19424 0.98718 0.0
H2199 H 0.98971 0.1841 0.98751 0.0
H2200 H 0.02778 0.2174 0.9251 0.0
H2201 H 0.96751 0.1955 0.9255 0.0
H2202 H 0.0501 0.17659 0.94438 0.0
H2203 H 0.0443 0.19092 0.96589 0.0
H2204 H 0.05278 0.20326 0.94397 0.0
H2205 H 0.97672 0.14846 0.94343 0.0
H2206 H 0.95767 0.16653 0.94166 0.0
H2207 H 0.97095 0.16338 0.96456 0.0
C2208 C 0.3857 0.2928 0.21997 0.0
C2209 C 0.39006 0.30354 0.23752 0.0
C2210 C 0.40074 0.28726 0.20702 0.0
C2211 C 0.4207 0.29239 0.21177 0.0
C2212 C 0.42517 0.30392 0.22902 0.0
C2213 C 0.4098 0.3094 0.24164 0.0
C2214 C 0.39532 0.27503 0.18875 0.0
C2215 C 0.44625 0.30968 0.23462 0.0
C2216 C 0.45751 0.25571 0.19239 0.0
C2217 C 0.4649 0.26518 0.17558 0.0
C2218 C 0.44371 0.26476 0.20462 0.0
C2219 C 0.43688 0.28376 0.19989 0.0
C2220 C 0.44475 0.29376 0.18334 0.0
C2221 C 0.45878 0.28439 0.1714 0.0
C2222 C 0.43594 0.25365 0.22227 0.0
C2223 C 0.43776 0.31399 0.17779 0.0
H2224 H 0.37057 0.28799 0.21671 0.0
H2225 H 0.41331 0.31804 0.25494 0.0
H2226 H 0.40253 0.28146 0.17557 0.0
H2227 H 0.40074 0.25976 0.19036 0.0
H2228 H 0.37908 0.27407 0.18606 0.0
H2229 H 0.44711 0.32034 0.24733 0.0
H2230 H 0.4543 0.2962 0.23865 0.0
H2231 H 0.45401 0.31639 0.2219 0.0
H2232 H 0.46233 0.24096 0.19588 0.0
H2233 H 0.46436 0.29176 0.1584 0.0
H2234 H 0.41991 0.25015 0.22019 0.0
H2235 H 0.43765 0.26302 0.23586 0.0
H2236 H 0.44366 0.23955 0.22459 0.0
H2237 H 0.42201 0.3128 0.17305 0.0
H2238 H 0.44653 0.32051 0.16558 0.0
H2239 H 0.43867 0.32429 0.19075 0.0
C2240 C 0.50402 0.38123 0.04728 0.0
C2241 C 0.51745 0.3796 0.03169 0.0
C2242 C 0.50019 0.36526 0.05993 0.0
C2243 C 0.51005 0.34722 0.05695 0.0
C2244 C 0.52318 0.3453 0.04091 0.0
C2245 C 0.5267 0.36147 0.02849 0.0
C2246 C 0.4861 0.36792 0.07686 0.0
C2247 C 0.53395 0.32631 0.03717 0.0
C2248 C 0.51938 0.31377 0.10046 0.0
C2249 C 0.50529 0.29832 0.09723 0.0
C2250 C 0.52074 0.32995 0.08773 0.0
C2251 C 0.50769 0.33078 0.0713 0.0
C2252 C 0.49307 0.3155 0.06823 0.0
C2253 C 0.49204 0.29944 0.08124 0.0
C2254 C 0.53652 0.34593 0.09159 0.0
C2255 C 0.47884 0.31589 0.05093 0.0
H2256 H 0.49694 0.39521 0.04999 0.0
H2257 H 0.53682 0.35995 0.01628 0.0
H2258 H 0.47477 0.35567 0.07675 0.0
H2259 H 0.49432 0.36731 0.09109 0.0
H2260 H 0.47849 0.38228 0.07627 0.0
H2261 H 0.54287 0.32684 0.02348 0.0
H2262 H 0.54397 0.32349 0.04983 0.0
H2263 H 0.52324 0.31355 0.03594 0.0
H2264 H 0.52966 0.31308 0.1128 0.0
H2265 H 0.4811 0.28757 0.07864 0.0
H2266 H 0.52976 0.3607 0.09253 0.0
H2267 H 0.54706 0.34629 0.07913 0.0
H2268 H 0.54495 0.34353 0.10547 0.0
H2269 H 0.47108 0.33016 0.05086 0.0
H2270 H 0.46763 0.30351 0.05122 0.0
H2271 H 0.48713 0.31483 0.03691 0.0
C2272 C 0.62546 0.20059 0.22036 0.0
C2273 C 0.62872 0.21224 0.23753 0.0
C2274 C 0.60929 0.20385 0.20775 0.0
C2275 C 0.59596 0.21899 0.21254 0.0
C2276 C 0.59924 0.23084 0.2298 0.0
C2277 C 0.6156 0.22737 0.24204 0.0
C2278 C 0.60639 0.19102 0.18938 0.0
C2279 C 0.58525 0.24697 0.23554 0.0
C2280 C 0.56222 0.23823 0.17229 0.0
C2281 C 0.54455 0.2274 0.17563 0.0
C2282 C 0.57909 0.23562 0.18415 0.0
C2283 C 0.57824 0.22201 0.19984 0.0
C2284 C 0.5604 0.21123 0.20345 0.0
C2285 C 0.54383 0.21399 0.19127 0.0
C2286 C 0.5979 0.24728 0.17977 0.0
C2287 C 0.55882 0.19672 0.22015 0.0
H2288 H 0.63566 0.18901 0.21672 0.0
H2289 H 0.61791 0.23624 0.25543 0.0
H2290 H 0.59211 0.18255 0.19013 0.0
H2291 H 0.60572 0.20046 0.17615 0.0
H2292 H 0.61845 0.18034 0.18742 0.0
H2293 H 0.59015 0.25517 0.2492 0.0
H2294 H 0.58398 0.25771 0.2234 0.0
H2295 H 0.57026 0.24038 0.23798 0.0
H2296 H 0.563 0.24854 0.1602 0.0
H2297 H 0.53027 0.20558 0.19406 0.0
H2298 H 0.60997 0.23696 0.1765 0.0
H2299 H 0.60261 0.25637 0.19291 0.0
H2300 H 0.59615 0.25728 0.16703 0.0
H2301 H 0.56962 0.18482 0.21807 0.0
H2302 H 0.54378 0.18975 0.2212 0.0
H2303 H 0.56252 0.2044 0.23441 0.0
C2304 C 0.50318 0.11964 0.04996 0.0
C2305 C 0.49801 0.12278 0.03016 0.0
C2306 C 0.50618 0.13551 0.0634 0.0
C2307 C 0.50446 0.15524 0.05692 0.0
C2308 C 0.50069 0.15864 0.03664 0.0
C2309 C 0.49718 0.14239 0.02357 0.0
C2310 C 0.50992 0.13073 0.08473 0.0
C2311 C 0.50003 0.17944 0.02878 0.0
C2312 C 0.48918 0.1959 0.09294 0.0
C2313 C 0.50749 0.2038 0.09955 0.0
C2314 C 0.488 0.1798 0.07945 0.0
C2315 C 0.50557 0.17218 0.07147 0.0
C2316 C 0.52412 0.18067 0.07751 0.0
C2317 C 0.52485 0.19625 0.09163 0.0
C2318 C 0.46795 0.17092 0.07378 0.0
C2319 C 0.54316 0.17339 0.06896 0.0
H2320 H 0.50459 0.10464 0.0552 0.0
H2321 H 0.49327 0.14514 0.00832 0.0
H2322 H 0.51871 0.14256 0.09265 0.0
H2323 H 0.4954 0.12891 0.09201 0.0
H2324 H 0.51771 0.11653 0.08614 0.0
H2325 H 0.49968 0.17955 0.01237 0.0
H2326 H 0.48668 0.18681 0.03429 0.0
H2327 H 0.51311 0.1884 0.03413 0.0
H2328 H 0.47574 0.20252 0.09808 0.0
H2329 H 0.53904 0.20275 0.09628 0.0
H2330 H 0.46738 0.15487 0.07721 0.0
H2331 H 0.46537 0.17216 0.05766 0.0
H2332 H 0.45575 0.17831 0.0816 0.0
H2333 H 0.54528 0.15777 0.07322 0.0
H2334 H 0.55624 0.18248 0.07413 0.0
H2335 H 0.54244 0.17367 0.05258 0.0
C2336 C 0.28526 0.38809 0.7088 0.0
C2337 C 0.26565 0.39437 0.70826 0.0
C2338 C 0.30116 0.40145 0.71246 0.0
C2339 C 0.29758 0.42157 0.71694 0.0
C2340 C 0.27786 0.42813 0.71662 0.0
C2341 C 0.26219 0.41456 0.71195 0.0
C2342 C 0.32165 0.39341 0.7123 0.0
C2343 C 0.2733 0.44941 0.72162 0.0
C2344 C 0.33565 0.45061 0.74858 0.0
C2345 C 0.34484 0.46283 0.73466 0.0
C2346 C 0.32051 0.43689 0.74295 0.0
C2347 C 0.31426 0.4355 0.72292 0.0
C2348 C 0.32393 0.44745 0.70871 0.0
C2349 C 0.33891 0.46122 0.71481 0.0
C2350 C 0.311 0.42411 0.75851 0.0
C2351 C 0.31848 0.44561 0.68708 0.0
H2352 H 0.2884 0.37254 0.70678 0.0
H2353 H 0.24724 0.41985 0.7113 0.0
H2354 H 0.3331 0.40504 0.70943 0.0
H2355 H 0.32446 0.38678 0.72689 0.0
H2356 H 0.32287 0.38142 0.70094 0.0
H2357 H 0.25722 0.45222 0.72067 0.0
H2358 H 0.27861 0.45318 0.73684 0.0
H2359 H 0.28124 0.45955 0.71146 0.0
H2360 H 0.33987 0.45224 0.76402 0.0
H2361 H 0.34598 0.47079 0.70409 0.0
H2362 H 0.31328 0.40823 0.75492 0.0
H2363 H 0.29481 0.42634 0.75869 0.0
H2364 H 0.31718 0.42743 0.77352 0.0
H2365 H 0.32021 0.43004 0.68189 0.0
H2366 H 0.32778 0.45555 0.67781 0.0
H2367 H 0.30274 0.44923 0.68485 0.0
C2368 C 0.28619 0.61628 0.81157 0.0
C2369 C 0.27056 0.61805 0.79798 0.0
C2370 C 0.30044 0.60172 0.80899 0.0
C2371 C 0.2991 0.5887 0.79235 0.0
C2372 C 0.28325 0.5903 0.77868 0.0
C2373 C 0.26917 0.60491 0.78169 0.0
C2374 C 0.31702 0.60039 0.82396 0.0
C2375 C 0.28138 0.57681 0.76066 0.0
C2376 C 0.34521 0.56459 0.77277 0.0
C2377 C 0.34265 0.54499 0.77916 0.0
C2378 C 0.33141 0.57905 0.77738 0.0
C2379 C 0.31464 0.57386 0.78875 0.0
C2380 C 0.31232 0.55429 0.79585 0.0
C2381 C 0.32634 0.54006 0.79093 0.0
C2382 C 0.33443 0.59974 0.76951 0.0
C2383 C 0.29472 0.54822 0.80814 0.0
H2384 H 0.28721 0.62622 0.82433 0.0
H2385 H 0.25727 0.60634 0.77101 0.0
H2386 H 0.31734 0.58518 0.82993 0.0
H2387 H 0.33144 0.60334 0.81673 0.0
H2388 H 0.31555 0.61113 0.83646 0.0
H2389 H 0.2679 0.57962 0.75175 0.0
H2390 H 0.29452 0.57898 0.75116 0.0
H2391 H 0.28091 0.56106 0.76516 0.0
H2392 H 0.35778 0.56855 0.76368 0.0
H2393 H 0.32426 0.52496 0.79593 0.0
H2394 H 0.33404 0.61086 0.78177 0.0
H2395 H 0.32223 0.60302 0.7591 0.0
H2396 H 0.3487 0.60164 0.76168 0.0
H2397 H 0.29336 0.55853 0.82098 0.0
H2398 H 0.29577 0.53285 0.81365 0.0
H2399 H 0.28097 0.54913 0.79917 0.0
C2400 C 0.87629 0.4809 0.50552 0.0
C2401 C 0.88899 0.47449 0.49058 0.0
C2402 C 0.85828 0.47072 0.50909 0.0
C2403 C 0.85285 0.45373 0.49745 0.0
C2404 C 0.86591 0.44683 0.48278 0.0
C2405 C 0.88379 0.4573 0.47952 0.0
C2406 C 0.84473 0.47857 0.52481 0.0
C2407 C 0.86072 0.42872 0.4701 0.0
C2408 C 0.8116 0.41702 0.51115 0.0
C2409 C 0.79652 0.42233 0.49806 0.0
C2410 C 0.82981 0.42768 0.51185 0.0
C2411 C 0.83288 0.44407 0.4993 0.0
C2412 C 0.81722 0.45025 0.48706 0.0
C2413 C 0.79929 0.43929 0.48656 0.0
C2414 C 0.84614 0.42069 0.52514 0.0
C2415 C 0.81975 0.46778 0.47361 0.0
H2416 H 0.88013 0.49426 0.51402 0.0
H2417 H 0.89369 0.45207 0.46819 0.0
H2418 H 0.83122 0.48428 0.51775 0.0
H2419 H 0.83995 0.46648 0.53476 0.0
H2420 H 0.8519 0.49075 0.53383 0.0
H2421 H 0.87301 0.42456 0.46023 0.0
H2422 H 0.8569 0.41591 0.47955 0.0
H2423 H 0.84753 0.4316 0.46083 0.0
H2424 H 0.8096 0.40388 0.52001 0.0
H2425 H 0.78763 0.44362 0.47656 0.0
H2426 H 0.85304 0.43336 0.53361 0.0
H2427 H 0.85786 0.41408 0.51599 0.0
H2428 H 0.84071 0.40937 0.53569 0.0
H2429 H 0.82578 0.48093 0.48202 0.0
H2430 H 0.80562 0.47177 0.46642 0.0
H2431 H 0.83052 0.46424 0.4619 0.0
C2432 C 0.74354 0.90905 0.77779 0.0
C2433 C 0.74131 0.89667 0.79413 0.0
C2434 C 0.72977 0.92365 0.77368 0.0
C2435 C 0.71333 0.92601 0.78621 0.0
C2436 C 0.71103 0.91366 0.8028 0.0
C2437 C 0.72503 0.89914 0.80654 0.0
C2438 C 0.73271 0.93642 0.75577 0.0
C2439 C 0.69376 0.91575 0.81655 0.0
C2440 C 0.68714 0.97519 0.78372 0.0
C2441 C 0.67113 0.97032 0.77103 0.0
C2442 C 0.70076 0.96083 0.78913 0.0
C2443 C 0.69835 0.94113 0.78164 0.0
C2444 C 0.68197 0.93604 0.76917 0.0
C2445 C 0.66858 0.95067 0.76404 0.0
C2446 C 0.71799 0.96684 0.80251 0.0
C2447 C 0.67884 0.91522 0.76088 0.0
H2448 H 0.7559 0.90707 0.76796 0.0
H2449 H 0.72331 0.88981 0.81933 0.0
H2450 H 0.71995 0.93422 0.74545 0.0
H2451 H 0.73337 0.95234 0.76027 0.0
H2452 H 0.74647 0.93298 0.74773 0.0
H2453 H 0.69426 0.90522 0.82898 0.0
H2454 H 0.69358 0.93111 0.82273 0.0
H2455 H 0.67967 0.91309 0.80826 0.0
H2456 H 0.68922 0.99032 0.78921 0.0
H2457 H 0.65624 0.94675 0.75424 0.0
H2458 H 0.73207 0.96504 0.79449 0.0
H2459 H 0.71838 0.95704 0.8155 0.0
H2460 H 0.71726 0.98249 0.80782 0.0
H2461 H 0.69147 0.91134 0.75137 0.0
H2462 H 0.66497 0.91348 0.752 0.0
H2463 H 0.67829 0.90441 0.77305 0.0
C2464 C 0.62293 0.54833 0.99858 0.0
C2465 C 0.62743 0.52847 0.99518 0.0
C2466 C 0.63795 0.56303 1.00064 0.0
C2467 C 0.65803 0.55773 0.99954 0.0
C2468 C 0.66264 0.53746 0.9969 0.0
C2469 C 0.64725 0.52309 0.99439 0.0
C2470 C 0.63206 0.5843 0.00278 0.0
C2471 C 0.6838 0.53097 0.99666 0.0
C2472 C 0.69792 0.59517 0.98386 0.0
C2473 C 0.70514 0.60255 0.00209 0.0
C2474 C 0.68218 0.58108 0.98281 0.0
C2475 C 0.67417 0.57337 1.00046 0.0
C2476 C 0.68183 0.58038 0.01894 0.0
C2477 C 0.69712 0.59499 0.01952 0.0
C2478 C 0.67417 0.57438 0.96282 0.0
C2479 C 0.67406 0.57223 0.03808 0.0
H2480 H 0.60756 0.55248 0.99893 0.0
H2481 H 0.65067 0.50764 0.99188 0.0
H2482 H 0.64238 0.59299 0.01264 0.0
H2483 H 0.63238 0.59095 0.98793 0.0
H2484 H 0.61684 0.5855 0.0086 0.0
H2485 H 0.68484 0.51455 0.99622 0.0
H2486 H 0.69144 0.53704 0.98357 0.0
H2487 H 0.69185 0.5369 0.00997 0.0
H2488 H 0.70484 0.60016 0.9704 0.0
H2489 H 0.70305 0.6003 0.03365 0.0
H2490 H 0.65806 0.57699 0.96197 0.0
H2491 H 0.67612 0.55822 0.96066 0.0
H2492 H 0.68162 0.58225 0.95054 0.0
H2493 H 0.65814 0.57541 0.03951 0.0
H2494 H 0.68212 0.57866 0.05119 0.0
H2495 H 0.67537 0.55585 0.0381 0.0
C2496 C 0.24168 0.60668 0.21377 0.0
C2497 C 0.23781 0.62694 0.21167 0.0
C2498 C 0.22646 0.59272 0.21788 0.0
C2499 C 0.20669 0.59892 0.21916 0.0
C2500 C 0.20259 0.61912 0.21631 0.0
C2501 C 0.21814 0.6329 0.21316 0.0
C2502 C 0.23158 0.57134 0.22101 0.0
C2503 C 0.18175 0.62628 0.21681 0.0
C2504 C 0.16723 0.55767 0.21339 0.0
C2505 C 0.16229 0.55413 0.23308 0.0
C2506 C 0.18099 0.57282 0.20856 0.0
C2507 C 0.19045 0.5843 0.22386 0.0
C2508 C 0.18514 0.581 0.24377 0.0
C2509 C 0.17119 0.56588 0.24813 0.0
C2510 C 0.18581 0.57614 0.18712 0.0
C2511 C 0.1948 0.59286 0.26056 0.0
H2512 H 0.25661 0.60157 0.21216 0.0
H2513 H 0.21474 0.64844 0.21213 0.0
H2514 H 0.22652 0.56658 0.23578 0.0
H2515 H 0.22379 0.56163 0.20986 0.0
H2516 H 0.24772 0.56897 0.21995 0.0
H2517 H 0.18076 0.64208 0.21261 0.0
H2518 H 0.17219 0.61706 0.20665 0.0
H2519 H 0.17602 0.62464 0.23193 0.0
H2520 H 0.16048 0.54838 0.20178 0.0
H2521 H 0.16779 0.56273 0.2634 0.0
H2522 H 0.20125 0.5719 0.18425 0.0
H2523 H 0.18473 0.59209 0.18361 0.0
H2524 H 0.17579 0.56734 0.17698 0.0
H2525 H 0.21087 0.59002 0.26102 0.0
H2526 H 0.18835 0.58908 0.2751 0.0
H2527 H 0.19317 0.60897 0.2582 0.0
C2528 C 0.86119 0.53448 0.02303 0.0
C2529 C 0.8795 0.53741 0.01377 0.0
C2530 C 0.84539 0.54705 0.01945 0.0
C2531 C 0.84787 0.56298 0.00624 0.0
C2532 C 0.86615 0.56575 0.99647 0.0
C2533 C 0.88173 0.55295 1.00035 0.0
C2534 C 0.82615 0.5435 0.03014 0.0
C2535 C 0.86941 0.58256 0.9823 0.0
C2536 C 0.8009 0.58664 0.98739 0.0
C2537 C 0.79937 0.60293 1.00044 0.0
C2538 C 0.81685 0.57377 0.98875 0.0
C2539 C 0.83164 0.57727 0.0035 0.0
C2540 C 0.83045 0.59401 0.01632 0.0
C2541 C 0.81437 0.6066 0.01464 0.0
C2542 C 0.81761 0.55612 0.97477 0.0
C2543 C 0.84589 0.59834 0.03221 0.0
H2544 H 0.85919 0.52232 0.03315 0.0
H2545 H 0.89586 0.55546 0.99325 0.0
H2546 H 0.82314 0.55647 0.03986 0.0
H2547 H 0.81373 0.5419 0.01934 0.0
H2548 H 0.82633 0.53001 0.03932 0.0
H2549 H 0.88403 0.58199 0.975 0.0
H2550 H 0.85765 0.58213 0.97075 0.0
H2551 H 0.86851 0.59698 0.99036 0.0
H2552 H 0.78939 0.58368 0.97639 0.0
H2553 H 0.81337 0.61916 0.02476 0.0
H2554 H 0.81618 0.5422 0.98322 0.0
H2555 H 0.83209 0.55598 0.96723 0.0
H2556 H 0.80565 0.55611 0.9634 0.0
H2557 H 0.8458 0.58609 0.04295 0.0
H2558 H 0.84335 0.61248 0.04035 0.0
H2559 H 0.86084 0.59917 0.02562 0.0
C2560 C 0.14813 0.9884 0.03324 0.0
C2561 C 0.12932 0.98421 0.02498 0.0
C2562 C 0.16418 0.97635 0.02894 0.0
C2563 C 0.16137 0.95963 0.01614 0.0
C2564 C 0.14241 0.95528 0.00781 0.0
C2565 C 0.12664 0.96764 0.01228 0.0
C2566 C 0.18419 0.98158 0.03801 0.0
C2567 C 0.13877 0.93753 0.99419 0.0
C2568 C 0.20582 0.93849 0.98999 0.0
C2569 C 0.21002 0.92202 1.00158 0.0
C2570 C 0.19018 0.95093 0.99467 0.0
C2571 C 0.17831 0.9468 0.01129 0.0
C2572 C 0.18251 0.93031 0.02315 0.0
C2573 C 0.19832 0.91816 0.01819 0.0
C2574 C 0.18626 0.96843 0.98171 0.0
C2575 C 0.17015 0.92537 0.04096 0.0
H2576 H 0.15037 1.0013 0.04287 0.0
H2577 H 0.1121 0.96416 0.00605 0.0
H2578 H 0.18945 0.96899 0.04678 0.0
H2579 H 0.19514 0.98427 0.02618 0.0
H2580 H 0.1839 0.99499 0.04777 0.0
H2581 H 0.12314 0.93611 0.98905 0.0
H2582 H 0.14843 0.93872 0.98108 0.0
H2583 H 0.14262 0.92374 0.00187 0.0
H2584 H 0.21472 0.94168 0.97714 0.0
H2585 H 0.20133 0.90548 0.02724 0.0
H2586 H 0.18683 0.98236 0.99071 0.0
H2587 H 0.17119 0.96687 0.97514 0.0
H2588 H 0.1971 0.96986 0.96956 0.0
H2589 H 0.17038 0.93817 0.0515 0.0
H2590 H 0.17545 0.91215 0.04877 0.0
H2591 H 0.15452 0.92249 0.03634 0.0
loop_
_geom_bond_atom_site_label_1
_geom_bond_atom_site_label_2
_geom_bond_distance
_geom_bond_site_symmetry_2
_ccdc_geom_bond_type
C0 C1 1.386 . S
C0 C2 1.397 . S
C0 H24 0.931 . S
C1 C0 1.386 . S
C1 C5 1.397 1_556 S
C2 C0 1.397 . S
C2 C3 1.384 1_556 S
C2 H25 0.930 . S
C3 C2 1.384 1_554 S
C3 C4 1.377 . S
C3 C6 1.481 . S
C4 C3 1.377 . S
C4 C5 1.389 . S
C4 H26 0.929 . S
C5 C1 1.397 1_554 S
C5 C4 1.389 . S
C5 H27 0.931 . S
C6 C3 1.481 . S
C6 C7 1.387 . S
C6 C11 1.390 . S
C7 C6 1.387 . S
C7 C8 1.401 . S
C7 H28 0.930 . S
C8 C7 1.401 . S
C8 C9 1.376 . S
C8 C17 1.511 . S
C9 C8 1.376 . S
C9 C10 1.392 . S
C9 H30 0.931 . S
C10 C9 1.392 . S
C10 C11 1.361 . S
C10 C12 1.500 . S
C11 C6 1.390 . S
C11 C10 1.361 . S
C11 H29 0.931 . S
C12 C10 1.500 . S
C12 C13 1.371 . S
C12 C14 1.362 1_455 S
C13 C12 1.371 . S
C13 C23 1.386 1_455 S
C13 H31 0.923 1_545 S
C14 C12 1.362 1_655 S
C14 C15 1.413 . S
C14 H32 0.928 1_655 S
C15 C14 1.413 . S
C15 C16 1.380 . S
C15 H33 0.930 . S
C16 C15 1.380 . S
C16 C23 1.357 . S
C17 C8 1.511 . S
C17 C18 1.341 . S
C17 C19 1.371 1_545 S
C18 C17 1.341 . S
C18 C22 1.394 1_545 S
C18 H34 0.928 1_554 S
C19 C17 1.371 1_565 S
C19 C20 1.392 . S
C19 H35 0.931 . S
C20 C19 1.392 . S
C20 C21 1.331 . S
C20 H38 0.932 . S
C21 C20 1.331 . S
C21 C22 1.336 . S
C22 C18 1.394 1_565 S
C22 C21 1.336 . S
C22 H37 0.929 1_554 S
C23 C13 1.386 1_655 S
C23 C16 1.357 . S
C23 H36 0.928 1_545 S
H24 C0 0.931 . S
H25 C2 0.930 . S
H26 C4 0.929 . S
H27 C5 0.931 . S
H28 C7 0.930 . S
H29 C11 0.931 . S
H30 C9 0.931 . S
H31 C13 0.923 1_565 S
H32 C14 0.928 1_455 S
H33 C15 0.930 . S
H34 C18 0.928 1_556 S
H35 C19 0.931 . S
H36 C23 0.928 1_565 S
H37 C22 0.929 1_556 S
H38 C20 0.932 . S
C39 C40 1.386 . S
C39 C41 1.397 . S
C39 H63 0.931 . S
C40 C39 1.386 . S
C40 C44 1.397 . S
C41 C39 1.397 . S
C41 C42 1.384 . S
C41 H64 0.930 . S
C42 C41 1.384 . S
C42 C43 1.377 . S
C42 C45 1.481 . S
C43 C42 1.377 . S
C43 C44 1.389 . S
C43 H65 0.929 . S
C44 C40 1.397 . S
C44 C43 1.389 . S
C44 H66 0.931 . S
C45 C42 1.481 . S
C45 C46 1.387 . S
C45 C50 1.390 . S
C46 C45 1.387 . S
C46 C47 1.401 . S
C46 H67 0.930 . S
C47 C46 1.401 . S
C47 C48 1.376 . S
C47 C56 1.511 . S
C48 C47 1.376 . S
C48 C49 1.392 . S
C48 H69 0.931 . S
C49 C48 1.392 . S
C49 C50 1.361 . S
C49 C51 1.500 . S
C50 C45 1.390 . S
C50 C49 1.361 . S
C50 H68 0.931 . S
C51 C49 1.500 . S
C51 C52 1.371 . S
C51 C53 1.365 . S
C52 C51 1.371 . S
C52 C62 1.386 . S
C52 H70 0.931 . S
C53 C51 1.365 . S
C53 C54 1.409 . S
C53 H71 0.929 . S
C54 C53 1.409 . S
C54 C55 1.380 . S
C54 H72 0.930 . S
C55 C54 1.380 . S
C55 C62 1.357 . S
C56 C47 1.511 . S
C56 C57 1.341 . S
C56 C58 1.371 . S
C57 C56 1.341 . S
C57 C61 1.394 . S
C57 H73 0.930 . S
C58 C56 1.371 . S
C58 C59 1.392 . S
C58 H74 0.931 . S
C59 C58 1.392 . S
C59 C60 1.331 . S
C59 H77 0.932 . S
C60 C59 1.331 . S
C60 C61 1.336 . S
C61 C57 1.394 . S
C61 C60 1.336 . S
C61 H76 0.929 . S
C62 C52 1.386 . S
C62 C55 1.357 . S
C62 H75 0.928 . S
H63 C39 0.931 . S
H64 C41 0.930 . S
H65 C43 0.929 . S
H66 C44 0.931 . S
H67 C46 0.930 . S
H68 C50 0.931 . S
H69 C48 0.931 . S
H70 C52 0.931 . S
H71 C53 0.929 . S
H72 C54 0.930 . S
H73 C57 0.930 . S
H74 C58 0.931 . S
H75 C62 0.928 . S
H76 C61 0.929 . S
H77 C59 0.932 . S
C78 C79 1.386 1_655 S
C78 C80 1.397 . S
C78 H102 0.931 . S
C79 C78 1.386 1_455 S
C79 C83 1.397 . S
C80 C78 1.397 . S
C80 C81 1.384 . S
C80 H103 0.930 . S
C81 C80 1.384 . S
C81 C82 1.377 1_655 S
C81 C84 1.481 . S
C82 C81 1.377 1_455 S
C82 C83 1.389 . S
C82 H104 0.929 . S
C83 C79 1.397 . S
C83 C82 1.389 . S
C83 H105 0.931 . S
C84 C81 1.481 . S
C84 C85 1.387 . S
C84 C89 1.390 . S
C85 C84 1.387 . S
C85 C86 1.401 . S
C85 H106 0.930 . S
C86 C85 1.401 . S
C86 C87 1.376 . S
C86 C95 1.511 . S
C87 C86 1.376 . S
C87 C88 1.392 . S
C87 H108 0.931 . S
C88 C87 1.392 . S
C88 C89 1.361 . S
C88 C90 1.500 . S
C89 C84 1.390 . S
C89 C88 1.361 . S
C89 H107 0.931 . S
C90 C88 1.500 . S
C90 C91 1.371 1_554 S
C90 C92 1.365 . S
C91 C90 1.371 1_556 S
C91 C101 1.386 . S
C91 H109 0.935 . S
C92 C90 1.365 . S
C92 C93 1.409 1_554 S
C92 H110 0.929 1_655 S
C93 C92 1.409 1_556 S
C93 C94 1.380 . S
C93 H111 0.930 1_655 S
C94 C93 1.380 . S
C94 C101 1.357 . S
C95 C86 1.511 . S
C95 C96 1.341 . S
C95 C97 1.371 . S
C96 C95 1.341 . S
C96 C100 1.394 . S
C96 H112 0.930 . S
C97 C95 1.371 . S
C97 C98 1.392 . S
C97 H113 0.917 1_554 S
C98 C97 1.392 . S
C98 C99 1.331 . S
C98 H116 0.932 1_554 S
C99 C98 1.331 . S
C99 C100 1.336 . S
C100 C96 1.394 . S
C100 C99 1.336 . S
C100 H115 0.929 . S
C101 C91 1.386 . S
C101 C94 1.357 . S
C101 H114 0.928 . S
H102 C78 0.931 . S
H103 C80 0.930 . S
H104 C82 0.929 . S
H105 C83 0.931 . S
H106 C85 0.930 . S
H107 C89 0.931 . S
H108 C87 0.931 . S
H109 C91 0.935 . S
H110 C92 0.929 1_455 S
H111 C93 0.930 1_455 S
H112 C96 0.930 . S
H113 C97 0.917 1_556 S
H114 C101 0.928 . S
H115 C100 0.929 . S
H116 C98 0.932 1_556 S
C117 C118 1.386 . S
C117 C119 1.397 . S
C117 H141 0.931 . S
C118 C117 1.386 . S
C118 C122 1.397 . S
C119 C117 1.397 . S
C119 C120 1.384 . S
C119 H142 0.930 . S
C120 C119 1.384 . S
C120 C121 1.377 . S
C120 C123 1.481 . S
C121 C120 1.377 . S
C121 C122 1.389 . S
C121 H143 0.929 . S
C122 C118 1.397 . S
C122 C121 1.389 . S
C122 H144 0.931 . S
C123 C120 1.481 . S
C123 C124 1.387 . S
C123 C128 1.390 . S
C124 C123 1.387 . S
C124 C125 1.401 . S
C124 H145 0.930 . S
C125 C124 1.401 . S
C125 C126 1.376 . S
C125 C134 1.511 . S
C126 C125 1.376 . S
C126 C127 1.392 . S
C126 H147 0.931 . S
C127 C126 1.392 . S
C127 C128 1.361 . S
C127 C129 1.500 . S
C128 C123 1.390 . S
C128 C127 1.361 . S
C128 H146 0.931 . S
C129 C127 1.500 . S
C129 C130 1.371 . S
C129 C131 1.365 . S
C130 C129 1.371 . S
C130 C140 1.386 . S
C130 H148 0.931 . S
C131 C129 1.365 . S
C131 C132 1.409 . S
C131 H149 0.929 . S
C132 C131 1.409 . S
C132 C133 1.380 . S
C132 H150 0.930 . S
C133 C132 1.380 . S
C133 C140 1.357 . S
C134 C125 1.511 . S
C134 C135 1.341 . S
C134 C136 1.371 . S
C135 C134 1.341 . S
C135 C139 1.394 . S
C135 H151 0.930 . S
C136 C134 1.371 . S
C136 C137 1.392 . S
C136 H152 0.931 . S
C137 C136 1.392 . S
C137 C138 1.331 . S
C137 H155 0.932 . S
C138 C137 1.331 . S
C138 C139 1.336 . S
C139 C135 1.394 . S
C139 C138 1.336 . S
C139 H154 0.929 . S
C140 C130 1.386 . S
C140 C133 1.357 . S
C140 H153 0.928 . S
H141 C117 0.931 . S
H142 C119 0.930 . S
H143 C121 0.929 . S
H144 C122 0.931 . S
H145 C124 0.930 . S
H146 C128 0.931 . S
H147 C126 0.931 . S
H148 C130 0.931 . S
H149 C131 0.929 . S
H150 C132 0.930 . S
H151 C135 0.930 . S
H152 C136 0.931 . S
H153 C140 0.928 . S
H154 C139 0.929 . S
H155 C137 0.932 . S
C156 C157 1.386 . S
C156 C158 1.397 . S
C156 H180 0.931 . S
C157 C156 1.386 . S
C157 C161 1.397 1_655 S
C158 C156 1.397 . S
C158 C159 1.384 1_655 S
C158 H181 0.930 . S
C159 C158 1.384 1_455 S
C159 C160 1.377 . S
C159 C162 1.481 . S
C160 C159 1.377 . S
C160 C161 1.389 . S
C160 H182 0.929 . S
C161 C157 1.397 1_455 S
C161 C160 1.389 . S
C161 H183 0.931 . S
C162 C159 1.481 . S
C162 C163 1.387 . S
C162 C167 1.390 . S
C163 C162 1.387 . S
C163 C164 1.401 . S
C163 H184 0.930 . S
C164 C163 1.401 . S
C164 C165 1.376 . S
C164 C173 1.511 . S
C165 C164 1.376 . S
C165 C166 1.392 . S
C165 H186 0.931 . S
C166 C165 1.392 . S
C166 C167 1.361 . S
C166 C168 1.522 . S
C167 C162 1.390 . S
C167 C166 1.361 . S
C167 H185 0.931 . S
C168 C166 1.522 . S
C168 C169 1.365 1_565 S
C168 C170 1.349 1_565 S
C169 C168 1.365 1_545 S
C169 C179 1.386 . S
C169 H187 0.931 1_545 S
C170 C168 1.349 1_545 S
C170 C171 1.409 . S
C170 H188 0.929 . S
C171 C170 1.409 . S
C171 C172 1.380 . S
C171 H189 0.930 . S
C172 C171 1.380 . S
C172 C179 1.357 . S
C173 C164 1.511 . S
C173 C174 1.341 . S
C173 C175 1.371 . S
C174 C173 1.341 . S
C174 C178 1.394 . S
C174 H190 0.930 . S
C175 C173 1.371 . S
C175 C176 1.392 . S
C175 H191 0.931 . S
C176 C175 1.392 . S
C176 C177 1.331 . S
C176 H194 0.932 . S
C177 C176 1.331 . S
C177 C178 1.336 . S
C178 C174 1.394 . S
C178 C177 1.336 . S
C178 H193 0.929 1_455 S
C179 C169 1.386 . S
C179 C172 1.357 . S
C179 H192 0.928 . S
H180 C156 0.931 . S
H181 C158 0.930 . S
H182 C160 0.929 . S
H183 C161 0.931 . S
H184 C163 0.930 . S
H185 C167 0.931 . S
H186 C165 0.931 . S
H187 C169 0.931 1_565 S
H188 C170 0.929 . S
H189 C171 0.930 . S
H190 C174 0.930 . S
H191 C175 0.931 . S
H192 C179 0.928 . S
H193 C178 0.929 1_655 S
H194 C176 0.932 . S
C195 C196 1.386 . S
C195 C197 1.397 . S
C195 H219 0.931 . S
C196 C195 1.386 . S
C196 C200 1.397 . S
C197 C195 1.397 . S
C197 C198 1.384 . S
C197 H220 0.930 . S
C198 C197 1.384 . S
C198 C199 1.377 . S
C198 C201 1.481 . S
C199 C198 1.377 . S
C199 C200 1.389 . S
C199 H221 0.929 . S
C200 C196 1.397 . S
C200 C199 1.389 . S
C200 H222 0.931 . S
C201 C198 1.481 . S
C201 C202 1.387 . S
C201 C206 1.390 . S
C202 C201 1.387 . S
C202 C203 1.401 . S
C202 H223 0.930 . S
C203 C202 1.401 . S
C203 C204 1.376 . S
C203 C212 1.511 . S
C204 C203 1.376 . S
C204 C205 1.392 . S
C204 H225 0.931 . S
C205 C204 1.392 . S
C205 C206 1.361 . S
C205 C207 1.500 . S
C206 C201 1.390 . S
C206 C205 1.361 . S
C206 H224 0.931 . S
C207 C205 1.500 . S
C207 C208 1.371 . S
C207 C209 1.365 . S
C208 C207 1.371 . S
C208 C218 1.386 . S
C208 H226 0.931 . S
C209 C207 1.365 . S
C209 C210 1.409 . S
C209 H227 0.929 . S
C210 C209 1.409 . S
C210 C211 1.380 . S
C210 H228 0.930 . S
C211 C210 1.380 . S
C211 C218 1.357 . S
C212 C203 1.511 . S
C212 C213 1.341 . S
C212 C214 1.371 . S
C213 C212 1.341 . S
C213 C217 1.394 . S
C213 H229 0.930 . S
C214 C212 1.371 . S
C214 C215 1.392 . S
C214 H230 0.931 . S
C215 C214 1.392 . S
C215 C216 1.331 . S
C215 H233 0.932 . S
C216 C215 1.331 . S
C216 C217 1.336 . S
C217 C213 1.394 . S
C217 C216 1.336 . S
C217 H232 0.929 . S
C218 C208 1.386 . S
C218 C211 1.357 . S
C218 H231 0.928 . S
H219 C195 0.931 . S
H220 C197 0.930 . S
H221 C199 0.929 . S
H222 C200 0.931 . S
H223 C202 0.930 . S
H224 C206 0.931 . S
H225 C204 0.931 . S
H226 C208 0.931 . S
H227 C209 0.929 . S
H228 C210 0.930 . S
H229 C213 0.930 . S
H230 C214 0.931 . S
H231 C218 0.928 . S
H232 C217 0.929 . S
H233 C215 0.932 . S
C234 C235 1.386 . S
C234 C236 1.397 . S
C234 H258 0.931 . S
C235 C234 1.386 . S
C235 C239 1.397 . S
C236 C234 1.397 . S
C236 C237 1.384 . S
C236 H259 0.930 . S
C237 C236 1.384 . S
C237 C238 1.377 . S
C237 C240 1.481 . S
C238 C237 1.377 . S
C238 C239 1.389 . S
C238 H260 0.929 . S
C239 C235 1.397 . S
C239 C238 1.389 . S
C239 H261 0.931 . S
C240 C237 1.481 . S
C240 C241 1.387 . S
C240 C245 1.390 . S
C241 C240 1.387 . S
C241 C242 1.401 . S
C241 H262 0.930 . S
C242 C241 1.401 . S
C242 C243 1.376 . S
C242 C251 1.511 . S
C243 C242 1.376 . S
C243 C244 1.392 . S
C243 H264 0.931 . S
C244 C243 1.392 . S
C244 C245 1.361 . S
C244 C246 1.500 . S
C245 C240 1.390 . S
C245 C244 1.361 . S
C245 H263 0.931 . S
C246 C244 1.500 . S
C246 C247 1.371 . S
C246 C248 1.365 . S
C247 C246 1.371 . S
C247 C257 1.386 . S
C247 H265 0.931 . S
C248 C246 1.365 . S
C248 C249 1.409 . S
C248 H266 0.929 . S
C249 C248 1.409 . S
C249 C250 1.380 . S
C249 H267 0.930 . S
C250 C249 1.380 . S
C250 C257 1.357 . S
C251 C242 1.511 . S
C251 C252 1.341 1_655 S
C251 C253 1.376 . S
C252 C251 1.341 1_455 S
C252 C256 1.394 . S
C252 H268 0.930 . S
C253 C251 1.376 . S
C253 C254 1.366 1_655 S
C253 H269 0.955 . S
C254 C253 1.366 1_455 S
C254 C255 1.331 . S
C254 H272 0.932 . S
C255 C254 1.331 . S
C255 C256 1.336 . S
C256 C252 1.394 . S
C256 C255 1.336 . S
C256 H271 0.929 . S
C257 C247 1.386 . S
C257 C250 1.357 . S
C257 H270 0.928 . S
H258 C234 0.931 . S
H259 C236 0.930 . S
H260 C238 0.929 . S
H261 C239 0.931 . S
H262 C241 0.930 . S
H263 C245 0.931 . S
H264 C243 0.931 . S
H265 C247 0.931 . S
H266 C248 0.929 . S
H267 C249 0.930 . S
H268 C252 0.930 . S
H269 C253 0.955 . S
H270 C257 0.928 . S
H271 C256 0.929 . S
H272 C254 0.932 . S
C273 C274 1.386 . S
C273 C275 1.397 . S
C273 H297 0.931 . S
C274 C273 1.386 . S
C274 C278 1.397 . S
C275 C273 1.397 . S
C275 C276 1.384 . S
C275 H298 0.930 . S
C276 C275 1.384 . S
C276 C277 1.377 . S
C276 C279 1.481 . S
C277 C276 1.377 . S
C277 C278 1.389 . S
C277 H299 0.929 . S
C278 C274 1.397 . S
C278 C277 1.389 . S
C278 H300 0.931 . S
C279 C276 1.481 . S
C279 C280 1.387 . S
C279 C284 1.390 . S
C280 C279 1.387 . S
C280 C281 1.401 . S
C280 H301 0.930 . S
C281 C280 1.401 . S
C281 C282 1.376 . S
C281 C290 1.511 . S
C282 C281 1.376 . S
C282 C283 1.392 . S
C282 H303 0.931 . S
C283 C282 1.392 . S
C283 C284 1.361 . S
C283 C285 1.500 . S
C284 C279 1.390 . S
C284 C283 1.361 . S
C284 H302 0.931 . S
C285 C283 1.500 . S
C285 C286 1.371 . S
C285 C287 1.365 . S
C286 C285 1.371 . S
C286 C296 1.386 . S
C286 H304 0.931 . S
C287 C285 1.365 . S
C287 C288 1.409 . S
C287 H305 0.929 . S
C288 C287 1.409 . S
C288 C289 1.380 . S
C288 H306 0.930 . S
C289 C288 1.380 . S
C289 C296 1.357 . S
C290 C281 1.511 . S
C290 C291 1.341 . S
C290 C292 1.371 . S
C291 C290 1.341 . S
C291 C295 1.394 . S
C291 H307 0.930 . S
C292 C290 1.371 . S
C292 C293 1.392 . S
C292 H308 0.931 . S
C293 C292 1.392 . S
C293 C294 1.331 . S
C293 H311 0.932 . S
C294 C293 1.331 . S
C294 C295 1.336 . S
C295 C291 1.394 . S
C295 C294 1.336 . S
C295 H310 0.929 . S
C296 C286 1.386 . S
C296 C289 1.357 . S
C296 H309 0.928 . S
H297 C273 0.931 . S
H298 C275 0.930 . S
H299 C277 0.929 . S
H300 C278 0.931 . S
H301 C280 0.930 . S
H302 C284 0.931 . S
H303 C282 0.931 . S
H304 C286 0.931 . S
H305 C287 0.929 . S
H306 C288 0.930 . S
H307 C291 0.930 . S
H308 C292 0.931 . S
H309 C296 0.928 . S
H310 C295 0.929 . S
H311 C293 0.932 . S
C312 C313 1.386 . S
C312 C314 1.397 . S
C312 H336 0.931 . S
C313 C312 1.386 . S
C313 C317 1.397 . S
C314 C312 1.397 . S
C314 C315 1.384 . S
C314 H337 0.930 . S
C315 C314 1.384 . S
C315 C316 1.377 . S
C315 C318 1.481 . S
C316 C315 1.377 . S
C316 C317 1.389 . S
C316 H338 0.929 . S
C317 C313 1.397 . S
C317 C316 1.389 . S
C317 H339 0.931 . S
C318 C315 1.481 . S
C318 C319 1.387 . S
C318 C323 1.390 . S
C319 C318 1.387 . S
C319 C320 1.401 . S
C319 H340 0.930 . S
C320 C319 1.401 . S
C320 C321 1.376 . S
C320 C329 1.511 . S
C321 C320 1.376 . S
C321 C322 1.392 . S
C321 H342 0.931 . S
C322 C321 1.392 . S
C322 C323 1.361 . S
C322 C324 1.500 . S
C323 C318 1.390 . S
C323 C322 1.361 . S
C323 H341 0.931 . S
C324 C322 1.500 . S
C324 C325 1.371 . S
C324 C326 1.365 . S
C325 C324 1.371 . S
C325 C335 1.386 . S
C325 H343 0.931 . S
C326 C324 1.365 . S
C326 C327 1.409 . S
C326 H344 0.929 . S
C327 C326 1.409 . S
C327 C328 1.380 . S
C327 H345 0.930 . S
C328 C327 1.380 . S
C328 C335 1.357 . S
C329 C320 1.511 . S
C329 C330 1.341 . S
C329 C331 1.371 . S
C330 C329 1.341 . S
C330 C334 1.394 . S
C330 H346 0.930 . S
C331 C329 1.371 . S
C331 C332 1.392 . S
C331 H347 0.931 . S
C332 C331 1.392 . S
C332 C333 1.331 . S
C332 H350 0.932 . S
C333 C332 1.331 . S
C333 C334 1.336 . S
C334 C330 1.394 . S
C334 C333 1.336 . S
C334 H349 0.929 . S
C335 C325 1.386 . S
C335 C328 1.357 . S
C335 H348 0.928 . S
H336 C312 0.931 . S
H337 C314 0.930 . S
H338 C316 0.929 . S
H339 C317 0.931 . S
H340 C319 0.930 . S
H341 C323 0.931 . S
H342 C321 0.931 . S
H343 C325 0.931 . S
H344 C326 0.929 . S
H345 C327 0.930 . S
H346 C330 0.930 . S
H347 C331 0.931 . S
H348 C335 0.928 . S
H349 C334 0.929 . S
H350 C332 0.932 . S
C351 C352 1.386 . S
C351 C353 1.397 . S
C351 H375 0.931 . S
C352 C351 1.386 . S
C352 C356 1.397 . S
C353 C351 1.397 . S
C353 C354 1.384 . S
C353 H376 0.930 . S
C354 C353 1.384 . S
C354 C355 1.377 . S
C354 C357 1.481 . S
C355 C354 1.377 . S
C355 C356 1.389 . S
C355 H377 0.929 . S
C356 C352 1.397 . S
C356 C355 1.389 . S
C356 H378 0.931 . S
C357 C354 1.481 . S
C357 C358 1.387 . S
C357 C362 1.390 . S
C358 C357 1.387 . S
C358 C359 1.401 . S
C358 H379 0.930 . S
C359 C358 1.401 . S
C359 C360 1.376 . S
C359 C368 1.511 . S
C360 C359 1.376 . S
C360 C361 1.392 . S
C360 H381 0.931 . S
C361 C360 1.392 . S
C361 C362 1.361 . S
C361 C363 1.500 . S
C362 C357 1.390 . S
C362 C361 1.361 . S
C362 H380 0.931 . S
C363 C361 1.500 . S
C363 C364 1.371 . S
C363 C365 1.365 . S
C364 C363 1.371 . S
C364 C374 1.386 . S
C364 H382 0.931 . S
C365 C363 1.365 . S
C365 C366 1.409 . S
C365 H383 0.929 . S
C366 C365 1.409 . S
C366 C367 1.380 . S
C366 H384 0.930 . S
C367 C366 1.380 . S
C367 C374 1.357 . S
C368 C359 1.511 . S
C368 C369 1.341 1_565 S
C368 C370 1.371 . S
C369 C368 1.341 1_545 S
C369 C373 1.394 . S
C369 H385 0.930 . S
C370 C368 1.371 . S
C370 C371 1.392 1_565 S
C370 H386 0.931 . S
C371 C370 1.392 1_545 S
C371 C372 1.331 . S
C371 H389 0.932 . S
C372 C371 1.331 . S
C372 C373 1.336 . S
C373 C369 1.394 . S
C373 C372 1.336 . S
C373 H388 0.929 . S
C374 C364 1.386 . S
C374 C367 1.357 . S
C374 H387 0.928 . S
H375 C351 0.931 . S
H376 C353 0.930 . S
H377 C355 0.929 . S
H378 C356 0.931 . S
H379 C358 0.930 . S
H380 C362 0.931 . S
H381 C360 0.931 . S
H382 C364 0.931 . S
H383 C365 0.929 . S
H384 C366 0.930 . S
H385 C369 0.930 . S
H386 C370 0.931 . S
H387 C374 0.928 . S
H388 C373 0.929 . S
H389 C371 0.932 . S
C390 C391 1.386 . S
C390 C392 1.397 . S
C390 H414 0.931 . S
C391 C390 1.386 . S
C391 C395 1.397 . S
C392 C390 1.397 . S
C392 C393 1.384 . S
C392 H415 0.930 . S
C393 C392 1.384 . S
C393 C394 1.377 . S
C393 C396 1.481 . S
C394 C393 1.377 . S
C394 C395 1.389 . S
C394 H416 0.929 . S
C395 C391 1.397 . S
C395 C394 1.389 . S
C395 H417 0.931 . S
C396 C393 1.481 . S
C396 C397 1.387 . S
C396 C401 1.390 . S
C397 C396 1.387 . S
C397 C398 1.401 . S
C397 H418 0.930 . S
C398 C397 1.401 . S
C398 C399 1.376 . S
C398 C407 1.511 . S
C399 C398 1.376 . S
C399 C400 1.392 . S
C399 H420 0.931 . S
C400 C399 1.392 . S
C400 C401 1.361 . S
C400 C402 1.500 . S
C401 C396 1.390 . S
C401 C400 1.361 . S
C401 H419 0.931 . S
C402 C400 1.500 . S
C402 C403 1.371 . S
C402 C404 1.365 . S
C403 C402 1.371 . S
C403 C413 1.386 . S
C403 H421 0.931 . S
C404 C402 1.365 . S
C404 C405 1.409 . S
C404 H422 0.929 . S
C405 C404 1.409 . S
C405 C406 1.380 . S
C405 H423 0.930 . S
C406 C405 1.380 . S
C406 C413 1.357 . S
C407 C398 1.511 . S
C407 C408 1.341 . S
C407 C409 1.371 . S
C408 C407 1.341 . S
C408 C412 1.394 . S
C408 H424 0.930 . S
C409 C407 1.371 . S
C409 C410 1.392 . S
C409 H425 0.931 . S
C410 C409 1.392 . S
C410 C411 1.331 . S
C410 H428 0.932 . S
C411 C410 1.331 . S
C411 C412 1.336 . S
C412 C408 1.394 . S
C412 C411 1.336 . S
C412 H427 0.929 . S
C413 C403 1.386 . S
C413 C406 1.357 . S
C413 H426 0.928 . S
H414 C390 0.931 . S
H415 C392 0.930 . S
H416 C394 0.929 . S
H417 C395 0.931 . S
H418 C397 0.930 . S
H419 C401 0.931 . S
H420 C399 0.931 . S
H421 C403 0.931 . S
H422 C404 0.929 . S
H423 C405 0.930 . S
H424 C408 0.930 . S
H425 C409 0.931 . S
H426 C413 0.928 . S
H427 C412 0.929 . S
H428 C410 0.932 . S
C429 C430 1.386 . S
C429 C431 1.397 . S
C429 H453 0.931 . S
C430 C429 1.386 . S
C430 C434 1.397 . S
C431 C429 1.397 . S
C431 C432 1.384 . S
C431 H454 0.930 . S
C432 C431 1.384 . S
C432 C433 1.377 . S
C432 C435 1.481 . S
C433 C432 1.377 . S
C433 C434 1.389 . S
C433 H455 0.929 . S
C434 C430 1.397 . S
C434 C433 1.389 . S
C434 H456 0.931 . S
C435 C432 1.481 . S
C435 C436 1.387 . S
C435 C440 1.390 . S
C436 C435 1.387 . S
C436 C437 1.401 . S
C436 H457 0.930 . S
C437 C436 1.401 . S
C437 C438 1.376 . S
C437 C446 1.511 . S
C438 C437 1.376 . S
C438 C439 1.392 . S
C438 H459 0.931 . S
C439 C438 1.392 . S
C439 C440 1.361 . S
C439 C441 1.500 . S
C440 C435 1.390 . S
C440 C439 1.361 . S
C440 H458 0.931 . S
C441 C439 1.500 . S
C441 C442 1.371 . S
C441 C443 1.365 . S
C442 C441 1.371 . S
C442 C452 1.386 . S
C442 H460 0.931 . S
C443 C441 1.365 . S
C443 C444 1.409 . S
C443 H461 0.929 . S
C444 C443 1.409 . S
C444 C445 1.380 . S
C444 H462 0.930 . S
C445 C444 1.380 . S
C445 C452 1.357 . S
C446 C437 1.511 . S
C446 C447 1.341 . S
C446 C448 1.371 . S
C447 C446 1.341 . S
C447 C451 1.394 . S
C447 H463 0.930 . S
C448 C446 1.371 . S
C448 C449 1.392 . S
C448 H464 0.931 . S
C449 C448 1.392 . S
C449 C450 1.331 . S
C449 H467 0.932 . S
C450 C449 1.331 . S
C450 C451 1.336 . S
C451 C447 1.394 . S
C451 C450 1.336 . S
C451 H466 0.929 . S
C452 C442 1.386 . S
C452 C445 1.357 . S
C452 H465 0.928 . S
H453 C429 0.931 . S
H454 C431 0.930 . S
H455 C433 0.929 . S
H456 C434 0.931 . S
H457 C436 0.930 . S
H458 C440 0.931 . S
H459 C438 0.931 . S
H460 C442 0.931 . S
H461 C443 0.929 . S
H462 C444 0.930 . S
H463 C447 0.930 . S
H464 C448 0.931 . S
H465 C452 0.928 . S
H466 C451 0.929 . S
H467 C449 0.932 . S
C468 C469 1.386 . S
C468 C470 1.397 . S
C468 H492 0.931 . S
C469 C468 1.386 . S
C469 C473 1.397 . S
C470 C468 1.397 . S
C470 C471 1.384 . S
C470 H493 0.930 . S
C471 C470 1.384 . S
C471 C472 1.377 . S
C471 C474 1.481 . S
C472 C471 1.377 . S
C472 C473 1.389 . S
C472 H494 0.929 . S
C473 C469 1.397 . S
C473 C472 1.389 . S
C473 H495 0.931 . S
C474 C471 1.481 . S
C474 C475 1.387 . S
C474 C479 1.390 . S
C475 C474 1.387 . S
C475 C476 1.401 . S
C475 H496 0.930 . S
C476 C475 1.401 . S
C476 C477 1.376 . S
C476 C485 1.511 . S
C477 C476 1.376 . S
C477 C478 1.392 . S
C477 H498 0.931 . S
C478 C477 1.392 . S
C478 C479 1.361 . S
C478 C480 1.500 . S
C479 C474 1.390 . S
C479 C478 1.361 . S
C479 H497 0.931 . S
C480 C478 1.500 . S
C480 C481 1.371 . S
C480 C482 1.365 . S
C481 C480 1.371 . S
C481 C491 1.386 . S
C481 H499 0.931 . S
C482 C480 1.365 . S
C482 C483 1.409 . S
C482 H500 0.929 . S
C483 C482 1.409 . S
C483 C484 1.380 . S
C483 H501 0.930 . S
C484 C483 1.380 . S
C484 C491 1.357 . S
C485 C476 1.511 . S
C485 C486 1.341 . S
C485 C487 1.371 . S
C486 C485 1.341 . S
C486 C490 1.394 . S
C486 H502 0.930 . S
C487 C485 1.371 . S
C487 C488 1.392 . S
C487 H503 0.931 . S
C488 C487 1.392 . S
C488 C489 1.331 . S
C488 H506 0.932 . S
C489 C488 1.331 . S
C489 C490 1.336 . S
C490 C486 1.394 . S
C490 C489 1.336 . S
C490 H505 0.929 . S
C491 C481 1.386 . S
C491 C484 1.357 . S
C491 H504 0.928 . S
H492 C468 0.931 . S
H493 C470 0.930 . S
H494 C472 0.929 . S
H495 C473 0.931 . S
H496 C475 0.930 . S
H497 C479 0.931 . S
H498 C477 0.931 . S
H499 C481 0.931 . S
H500 C482 0.929 . S
H501 C483 0.930 . S
H502 C486 0.930 . S
H503 C487 0.931 . S
H504 C491 0.928 . S
H505 C490 0.929 . S
H506 C488 0.932 . S
C507 C508 1.386 . S
C507 C509 1.397 . S
C507 H531 0.931 . S
C508 C507 1.386 . S
C508 C512 1.397 . S
C509 C507 1.397 . S
C509 C510 1.384 . S
C509 H532 0.930 . S
C510 C509 1.384 . S
C510 C511 1.377 . S
C510 C513 1.481 . S
C511 C510 1.377 . S
C511 C512 1.389 . S
C511 H533 0.929 . S
C512 C508 1.397 . S
C512 C511 1.389 . S
C512 H534 0.931 . S
C513 C510 1.481 . S
C513 C514 1.387 . S
C513 C518 1.390 . S
C514 C513 1.387 . S
C514 C515 1.401 . S
C514 H535 0.930 . S
C515 C514 1.401 . S
C515 C516 1.376 . S
C515 C524 1.511 . S
C516 C515 1.376 . S
C516 C517 1.392 . S
C516 H537 0.931 . S
C517 C516 1.392 . S
C517 C518 1.361 . S
C517 C519 1.500 . S
C518 C513 1.390 . S
C518 C517 1.361 . S
C518 H536 0.931 . S
C519 C517 1.500 . S
C519 C520 1.371 . S
C519 C521 1.365 . S
C520 C519 1.371 . S
C520 C530 1.386 . S
C520 H538 0.931 1_556 S
C521 C519 1.365 . S
C521 C522 1.409 . S
C521 H539 0.929 . S
C522 C521 1.409 . S
C522 C523 1.380 . S
C522 H540 0.930 . S
C523 C522 1.380 . S
C523 C530 1.357 . S
C524 C515 1.511 . S
C524 C525 1.341 . S
C524 C526 1.371 1_556 S
C525 C524 1.341 . S
C525 C529 1.394 1_556 S
C525 H541 0.930 . S
C526 C524 1.371 1_554 S
C526 C527 1.392 . S
C526 H542 0.931 . S
C527 C526 1.392 . S
C527 C528 1.331 . S
C527 H545 0.932 . S
C528 C527 1.331 . S
C528 C529 1.336 . S
C529 C525 1.394 1_554 S
C529 C528 1.336 . S
C529 H544 0.929 . S
C530 C520 1.386 . S
C530 C523 1.357 . S
C530 H543 0.928 1_556 S
H531 C507 0.931 . S
H532 C509 0.930 . S
H533 C511 0.929 . S
H534 C512 0.931 . S
H535 C514 0.930 . S
H536 C518 0.931 . S
H537 C516 0.931 . S
H538 C520 0.931 1_554 S
H539 C521 0.929 . S
H540 C522 0.930 . S
H541 C525 0.930 . S
H542 C526 0.931 . S
H543 C530 0.928 1_554 S
H544 C529 0.929 . S
H545 C527 0.932 . S
C546 C547 1.386 . S
C546 C548 1.397 . S
C546 H570 0.931 . S
C547 C546 1.386 . S
C547 C551 1.397 . S
C548 C546 1.397 . S
C548 C549 1.384 . S
C548 H571 0.930 . S
C549 C548 1.384 . S
C549 C550 1.377 . S
C549 C552 1.481 . S
C550 C549 1.377 . S
C550 C551 1.389 . S
C550 H572 0.929 . S
C551 C547 1.397 . S
C551 C550 1.389 . S
C551 H573 0.931 . S
C552 C549 1.481 . S
C552 C553 1.387 . S
C552 C557 1.390 . S
C553 C552 1.387 . S
C553 C554 1.401 . S
C553 H574 0.930 . S
C554 C553 1.401 . S
C554 C555 1.376 . S
C554 C563 1.511 . S
C555 C554 1.376 . S
C555 C556 1.392 . S
C555 H576 0.931 . S
C556 C555 1.392 . S
C556 C557 1.361 . S
C556 C558 1.500 . S
C557 C552 1.390 . S
C557 C556 1.361 . S
C557 H575 0.931 . S
C558 C556 1.500 . S
C558 C559 1.371 . S
C558 C560 1.365 . S
C559 C558 1.371 . S
C559 C569 1.386 . S
C559 H577 0.931 . S
C560 C558 1.365 . S
C560 C561 1.409 . S
C560 H578 0.929 . S
C561 C560 1.409 . S
C561 C562 1.380 . S
C561 H579 0.930 . S
C562 C561 1.380 . S
C562 C569 1.357 . S
C563 C554 1.511 . S
C563 C564 1.341 . S
C563 C565 1.371 . S
C564 C563 1.341 . S
C564 C568 1.394 . S
C564 H580 0.930 . S
C565 C563 1.371 . S
C565 C566 1.392 . S
C565 H581 0.931 . S
C566 C565 1.392 . S
C566 C567 1.331 . S
C566 H584 0.932 . S
C567 C566 1.331 . S
C567 C568 1.336 . S
C568 C564 1.394 . S
C568 C567 1.336 . S
C568 H583 0.929 . S
C569 C559 1.386 . S
C569 C562 1.357 . S
C569 H582 0.928 . S
H570 C546 0.931 . S
H571 C548 0.930 . S
H572 C550 0.929 . S
H573 C551 0.931 . S
H574 C553 0.930 . S
H575 C557 0.931 . S
H576 C555 0.931 . S
H577 C559 0.931 . S
H578 C560 0.929 . S
H579 C561 0.930 . S
H580 C564 0.930 . S
H581 C565 0.931 . S
H582 C569 0.928 . S
H583 C568 0.929 . S
H584 C566 0.932 . S
C585 C586 1.386 . S
C585 C587 1.397 1_554 S
C585 H609 0.931 1_554 S
C586 C585 1.386 . S
C586 C590 1.397 . S
C587 C585 1.397 1_556 S
C587 C588 1.384 . S
C587 H610 0.930 . S
C588 C587 1.384 . S
C588 C589 1.377 1_556 S
C588 C591 1.481 . S
C589 C588 1.377 1_554 S
C589 C590 1.389 . S
C589 H611 0.929 . S
C590 C586 1.397 . S
C590 C589 1.389 . S
C590 H612 0.931 . S
C591 C588 1.481 . S
C591 C592 1.387 . S
C591 C596 1.390 . S
C592 C591 1.387 . S
C592 C593 1.401 . S
C592 H613 0.930 . S
C593 C592 1.401 . S
C593 C594 1.376 . S
C593 C602 1.511 . S
C594 C593 1.376 . S
C594 C595 1.392 . S
C594 H615 0.931 . S
C595 C594 1.392 . S
C595 C596 1.361 . S
C595 C597 1.500 . S
C596 C591 1.390 . S
C596 C595 1.361 . S
C596 H614 0.931 . S
C597 C595 1.500 . S
C597 C598 1.371 . S
C597 C599 1.365 . S
C598 C597 1.371 . S
C598 C608 1.386 1_545 S
C598 H616 0.931 . S
C599 C597 1.365 . S
C599 C600 1.401 1_546 S
C599 H617 0.929 1_556 S
C600 C599 1.401 1_564 S
C600 C601 1.346 1_554 S
C600 H618 0.973 . S
C601 C600 1.346 1_556 S
C601 C608 1.357 . S
C602 C593 1.511 . S
C602 C603 1.341 . S
C602 C604 1.371 . S
C603 C602 1.341 . S
C603 C607 1.394 . S
C603 H619 0.930 . S
C604 C602 1.371 . S
C604 C605 1.392 . S
C604 H620 0.931 . S
C605 C604 1.392 . S
C605 C606 1.331 . S
C605 H623 0.932 1_545 S
C606 C605 1.331 . S
C606 C607 1.336 . S
C607 C603 1.394 . S
C607 C606 1.336 . S
C607 H622 0.929 . S
C608 C598 1.386 1_565 S
C608 C601 1.357 . S
C608 H621 0.928 . S
H609 C585 0.931 1_556 S
H610 C587 0.930 . S
H611 C589 0.929 . S
H612 C590 0.931 . S
H613 C592 0.930 . S
H614 C596 0.931 . S
H615 C594 0.931 . S
H616 C598 0.931 . S
H617 C599 0.929 1_554 S
H618 C600 0.973 . S
H619 C603 0.930 . S
H620 C604 0.931 . S
H621 C608 0.928 . S
H622 C607 0.929 . S
H623 C605 0.932 1_565 S
Mn624 O629 2.095 . S
Mn624 O639 2.162 . S
Mn624 O640 2.297 . S
Mn624 O648 2.380 1_554 S
Mn624 O649 2.209 1_554 S
Mn624 O650 2.094 . S
Mn625 O630 2.121 . S
Mn625 N632 2.257 . S
Mn625 N641 2.282 . S
Mn625 O649 2.215 . S
Mn625 O651 2.117 . S
C626 O648 1.243 . S
C626 O649 1.283 . S
C627 O639 1.281 . S
C627 O640 1.236 . S
C628 O650 1.240 . S
C628 O651 1.264 1_554 S
O629 Mn624 2.095 . S
O629 C638 1.250 . S
O630 Mn625 2.121 . S
O630 C638 1.258 1_556 S
C631 N632 1.326 . S
C631 C635 1.460 . S
C631 H637 0.929 . S
N632 Mn625 2.257 . S
N632 C631 1.326 . S
N632 C636 1.362 . S
C633 C634 1.258 . S
C633 C636 1.431 . S
C633 C653 1.449 . S
C634 C633 1.258 . S
C634 C635 1.477 . S
C634 H654 0.931 . S
C635 C631 1.460 . S
C635 C634 1.477 . S
C635 H655 0.930 . S
C636 N632 1.362 . S
C636 C633 1.431 . S
C636 C646 1.476 . S
H637 C631 0.929 . S
C638 O629 1.250 . S
C638 O630 1.258 1_554 S
O639 Mn624 2.162 . S
O639 C627 1.281 . S
O640 Mn624 2.297 . S
O640 C627 1.236 . S
N641 Mn625 2.282 . S
N641 C642 1.328 . S
N641 C646 1.318 . S
C642 N641 1.328 . S
C642 C643 1.457 . S
C642 H647 0.929 . S
C643 C642 1.457 . S
C643 C644 1.291 . S
C643 H656 0.931 . S
C644 C643 1.291 . S
C644 C645 1.373 . S
C644 H657 0.929 . S
C645 C644 1.373 . S
C645 C646 1.396 . S
C645 C652 1.403 . S
C646 C636 1.476 . S
C646 N641 1.318 . S
C646 C645 1.396 . S
H647 C642 0.929 . S
O648 Mn624 2.380 1_556 S
O648 C626 1.243 . S
O649 Mn624 2.209 1_556 S
O649 Mn625 2.215 . S
O649 C626 1.283 . S
O650 Mn624 2.094 . S
O650 C628 1.240 . S
O651 Mn625 2.117 . S
O651 C628 1.264 1_556 S
C652 C645 1.403 . S
C652 C653 1.399 . S
C652 H658 0.929 . S
C653 C633 1.449 . S
C653 C652 1.399 . S
C653 H659 0.930 . S
H654 C634 0.931 . S
H655 C635 0.930 . S
H656 C643 0.931 . S
H657 C644 0.929 . S
H658 C652 0.929 . S
H659 C653 0.930 . S
Mn660 O665 2.095 . S
Mn660 O675 2.162 . S
Mn660 O676 2.297 . S
Mn660 O684 2.385 . S
Mn660 O685 2.209 . S
Mn660 O686 2.094 . S
Mn661 O666 2.121 . S
Mn661 N668 2.257 . S
Mn661 N677 2.282 . S
Mn661 O685 2.215 . S
Mn661 O687 2.117 . S
C662 O684 1.234 . S
C662 O685 1.283 . S
C663 O675 1.281 . S
C663 O676 1.236 . S
C664 O686 1.240 . S
C664 O687 1.264 . S
O665 Mn660 2.095 . S
O665 C674 1.250 . S
O666 Mn661 2.121 . S
O666 C674 1.258 . S
C667 N668 1.326 . S
C667 C671 1.460 . S
C667 H673 0.929 . S
N668 Mn661 2.257 . S
N668 C667 1.326 . S
N668 C672 1.362 . S
C669 C670 1.258 . S
C669 C672 1.431 . S
C669 C689 1.449 . S
C670 C669 1.258 . S
C670 C671 1.477 . S
C670 H690 0.931 . S
C671 C667 1.460 . S
C671 C670 1.477 . S
C671 H691 0.930 . S
C672 N668 1.362 . S
C672 C669 1.431 . S
C672 C682 1.476 . S
H673 C667 0.929 . S
C674 O665 1.250 . S
C674 O666 1.258 . S
O675 Mn660 2.162 . S
O675 C663 1.281 . S
O676 Mn660 2.297 . S
O676 C663 1.236 . S
N677 Mn661 2.282 . S
N677 C678 1.328 . S
N677 C682 1.318 . S
C678 N677 1.328 . S
C678 C679 1.457 . S
C678 H683 0.929 . S
C679 C678 1.457 . S
C679 C680 1.291 . S
C679 H692 0.931 . S
C680 C679 1.291 . S
C680 C681 1.373 . S
C680 H693 0.929 . S
C681 C680 1.373 . S
C681 C682 1.396 . S
C681 C688 1.403 . S
C682 C672 1.476 . S
C682 N677 1.318 . S
C682 C681 1.396 . S
H683 C678 0.929 . S
O684 Mn660 2.385 . S
O684 C662 1.234 . S
O685 Mn660 2.209 . S
O685 Mn661 2.215 . S
O685 C662 1.283 . S
O686 Mn660 2.094 . S
O686 C664 1.240 . S
O687 Mn661 2.117 . S
O687 C664 1.264 . S
C688 C681 1.403 . S
C688 C689 1.399 . S
C688 H694 0.929 . S
C689 C669 1.449 . S
C689 C688 1.399 . S
C689 H695 0.930 . S
H690 C670 0.931 . S
H691 C671 0.930 . S
H692 C679 0.931 . S
H693 C680 0.929 . S
H694 C688 0.929 . S
H695 C689 0.930 . S
Mn696 O701 2.095 1_554 S
Mn696 O711 2.162 . S
Mn696 O712 2.297 1_554 S
Mn696 O720 2.385 . S
Mn696 O721 2.209 1_554 S
Mn696 O722 2.094 . S
Mn697 O702 2.121 . S
Mn697 N704 2.257 . S
Mn697 N713 2.282 . S
Mn697 O721 2.215 . S
Mn697 O723 2.117 1_556 S
C698 O720 1.231 1_556 S
C698 O721 1.285 . S
C699 O711 1.281 . S
C699 O712 1.236 1_554 S
C700 O722 1.240 . S
C700 O723 1.264 . S
O701 Mn696 2.095 1_556 S
O701 C710 1.250 . S
O702 Mn697 2.121 . S
O702 C710 1.258 . S
C703 N704 1.326 . S
C703 C707 1.460 . S
C703 H709 0.929 . S
N704 Mn697 2.257 . S
N704 C703 1.326 . S
N704 C708 1.362 . S
C705 C706 1.258 . S
C705 C708 1.431 . S
C705 C725 1.449 . S
C706 C705 1.258 . S
C706 C707 1.477 . S
C706 H726 0.931 . S
C707 C703 1.460 . S
C707 C706 1.477 . S
C707 H727 0.930 . S
C708 N704 1.362 . S
C708 C705 1.431 . S
C708 C718 1.476 . S
H709 C703 0.929 . S
C710 O701 1.250 . S
C710 O702 1.258 . S
O711 Mn696 2.162 . S
O711 C699 1.281 . S
O712 Mn696 2.297 1_556 S
O712 C699 1.236 1_556 S
N713 Mn697 2.282 . S
N713 C714 1.328 1_556 S
N713 C718 1.318 . S
C714 N713 1.328 1_554 S
C714 C715 1.457 . S
C714 H719 0.929 . S
C715 C714 1.457 . S
C715 C716 1.291 . S
C715 H728 0.931 . S
C716 C715 1.291 . S
C716 C717 1.373 1_554 S
C716 H729 0.929 . S
C717 C716 1.373 1_556 S
C717 C718 1.396 . S
C717 C724 1.403 . S
C718 C708 1.476 . S
C718 N713 1.318 . S
C718 C717 1.396 . S
H719 C714 0.929 . S
O720 Mn696 2.385 . S
O720 C698 1.231 1_554 S
O721 Mn696 2.209 1_556 S
O721 Mn697 2.215 . S
O721 C698 1.285 . S
O722 Mn696 2.094 . S
O722 C700 1.240 . S
O723 Mn697 2.117 1_554 S
O723 C700 1.264 . S
C724 C717 1.403 . S
C724 C725 1.399 . S
C724 H730 0.929 . S
C725 C705 1.449 . S
C725 C724 1.399 . S
C725 H731 0.930 . S
H726 C706 0.931 . S
H727 C707 0.930 . S
H728 C715 0.931 . S
H729 C716 0.929 . S
H730 C724 0.929 . S
H731 C725 0.930 . S
Mn732 O737 2.095 . S
Mn732 O747 2.162 . S
Mn732 O748 2.297 . S
Mn732 O756 2.378 1_545 S
Mn732 O757 2.209 1_545 S
Mn732 O758 2.094 . S
Mn733 O738 2.121 . S
Mn733 N740 2.257 . S
Mn733 N749 2.282 . S
Mn733 O757 2.215 . S
Mn733 O759 2.117 . S
C734 O756 1.249 . S
C734 O757 1.283 . S
C735 O747 1.281 . S
C735 O748 1.236 . S
C736 O758 1.240 . S
C736 O759 1.264 1_545 S
O737 Mn732 2.095 . S
O737 C746 1.250 . S
O738 Mn733 2.121 . S
O738 C746 1.258 1_565 S
C739 N740 1.326 . S
C739 C743 1.460 . S
C739 H745 0.929 . S
N740 Mn733 2.257 . S
N740 C739 1.326 . S
N740 C744 1.362 . S
C741 C742 1.258 . S
C741 C744 1.431 . S
C741 C761 1.449 . S
C742 C741 1.258 . S
C742 C743 1.477 . S
C742 H762 0.931 . S
C743 C739 1.460 . S
C743 C742 1.477 . S
C743 H763 0.930 . S
C744 N740 1.362 . S
C744 C741 1.431 . S
C744 C754 1.476 . S
H745 C739 0.929 . S
C746 O737 1.250 . S
C746 O738 1.258 1_545 S
O747 Mn732 2.162 . S
O747 C735 1.281 . S
O748 Mn732 2.297 . S
O748 C735 1.236 . S
N749 Mn733 2.282 . S
N749 C750 1.328 . S
N749 C754 1.318 . S
C750 N749 1.328 . S
C750 C751 1.457 . S
C750 H755 0.929 . S
C751 C750 1.457 . S
C751 C752 1.291 . S
C751 H764 0.931 . S
C752 C751 1.291 . S
C752 C753 1.373 . S
C752 H765 0.929 . S
C753 C752 1.373 . S
C753 C754 1.396 . S
C753 C760 1.403 . S
C754 C744 1.476 . S
C754 N749 1.318 . S
C754 C753 1.396 . S
H755 C750 0.929 . S
O756 Mn732 2.378 1_565 S
O756 C734 1.249 . S
O757 Mn732 2.209 1_565 S
O757 Mn733 2.215 . S
O757 C734 1.283 . S
O758 Mn732 2.094 . S
O758 C736 1.240 . S
O759 Mn733 2.117 . S
O759 C736 1.264 1_565 S
C760 C753 1.403 . S
C760 C761 1.399 . S
C760 H766 0.929 . S
C761 C741 1.449 . S
C761 C760 1.399 . S
C761 H767 0.930 . S
H762 C742 0.931 . S
H763 C743 0.930 . S
H764 C751 0.931 . S
H765 C752 0.929 . S
H766 C760 0.929 . S
H767 C761 0.930 . S
Mn768 O773 2.095 . S
Mn768 O783 2.162 . S
Mn768 O784 2.297 . S
Mn768 O792 2.385 . S
Mn768 O793 2.209 . S
Mn768 O794 2.094 . S
Mn769 O774 2.121 . S
Mn769 N776 2.257 . S
Mn769 N785 2.282 . S
Mn769 O793 2.215 . S
Mn769 O795 2.117 . S
C770 O792 1.234 . S
C770 O793 1.283 . S
C771 O783 1.281 . S
C771 O784 1.236 . S
C772 O794 1.240 . S
C772 O795 1.264 . S
O773 Mn768 2.095 . S
O773 C782 1.250 . S
O774 Mn769 2.121 . S
O774 C782 1.258 . S
C775 N776 1.326 . S
C775 C779 1.460 . S
C775 H781 0.929 . S
N776 Mn769 2.257 . S
N776 C775 1.326 . S
N776 C780 1.362 . S
C777 C778 1.258 . S
C777 C780 1.431 . S
C777 C797 1.449 . S
C778 C777 1.258 . S
C778 C779 1.477 . S
C778 H798 0.931 . S
C779 C775 1.460 . S
C779 C778 1.477 . S
C779 H799 0.930 . S
C780 N776 1.362 . S
C780 C777 1.431 . S
C780 C790 1.476 . S
H781 C775 0.929 . S
C782 O773 1.250 . S
C782 O774 1.258 . S
O783 Mn768 2.162 . S
O783 C771 1.281 . S
O784 Mn768 2.297 . S
O784 C771 1.236 . S
N785 Mn769 2.282 . S
N785 C786 1.328 . S
N785 C790 1.318 . S
C786 N785 1.328 . S
C786 C787 1.457 . S
C786 H791 0.929 . S
C787 C786 1.457 . S
C787 C788 1.291 . S
C787 H800 0.931 . S
C788 C787 1.291 . S
C788 C789 1.373 . S
C788 H801 0.929 . S
C789 C788 1.373 . S
C789 C790 1.396 . S
C789 C796 1.403 . S
C790 C780 1.476 . S
C790 N785 1.318 . S
C790 C789 1.396 . S
H791 C786 0.929 . S
O792 Mn768 2.385 . S
O792 C770 1.234 . S
O793 Mn768 2.209 . S
O793 Mn769 2.215 . S
O793 C770 1.283 . S
O794 Mn768 2.094 . S
O794 C772 1.240 . S
O795 Mn769 2.117 . S
O795 C772 1.264 . S
C796 C789 1.403 . S
C796 C797 1.399 . S
C796 H802 0.929 . S
C797 C777 1.449 . S
C797 C796 1.399 . S
C797 H803 0.930 . S
H798 C778 0.931 . S
H799 C779 0.930 . S
H800 C787 0.931 . S
H801 C788 0.929 . S
H802 C796 0.929 . S
H803 C797 0.930 . S
Mn804 O809 2.095 . S
Mn804 O819 2.162 . S
Mn804 O820 2.297 . S
Mn804 O828 2.385 . S
Mn804 O829 2.209 . S
Mn804 O830 2.094 . S
Mn805 O810 2.121 . S
Mn805 N812 2.257 . S
Mn805 N821 2.282 . S
Mn805 O829 2.215 . S
Mn805 O831 2.117 . S
C806 O828 1.234 . S
C806 O829 1.283 . S
C807 O819 1.281 . S
C807 O820 1.236 . S
C808 O830 1.240 . S
C808 O831 1.264 . S
O809 Mn804 2.095 . S
O809 C818 1.250 . S
O810 Mn805 2.121 . S
O810 C818 1.258 . S
C811 N812 1.326 . S
C811 C815 1.460 . S
C811 H817 0.929 . S
N812 Mn805 2.257 . S
N812 C811 1.326 . S
N812 C816 1.362 . S
C813 C814 1.258 . S
C813 C816 1.431 . S
C813 C833 1.449 . S
C814 C813 1.258 . S
C814 C815 1.477 . S
C814 H834 0.931 . S
C815 C811 1.460 . S
C815 C814 1.477 . S
C815 H835 0.930 . S
C816 N812 1.362 . S
C816 C813 1.431 . S
C816 C826 1.476 . S
H817 C811 0.929 . S
C818 O809 1.250 . S
C818 O810 1.258 . S
O819 Mn804 2.162 . S
O819 C807 1.281 . S
O820 Mn804 2.297 . S
O820 C807 1.236 . S
N821 Mn805 2.282 . S
N821 C822 1.328 . S
N821 C826 1.318 . S
C822 N821 1.328 . S
C822 C823 1.457 . S
C822 H827 0.929 . S
C823 C822 1.457 . S
C823 C824 1.291 . S
C823 H836 0.931 . S
C824 C823 1.291 . S
C824 C825 1.373 . S
C824 H837 0.929 . S
C825 C824 1.373 . S
C825 C826 1.396 . S
C825 C832 1.403 . S
C826 C816 1.476 . S
C826 N821 1.318 . S
C826 C825 1.396 . S
H827 C822 0.929 . S
O828 Mn804 2.385 . S
O828 C806 1.234 . S
O829 Mn804 2.209 . S
O829 Mn805 2.215 . S
O829 C806 1.283 . S
O830 Mn804 2.094 . S
O830 C808 1.240 . S
O831 Mn805 2.117 . S
O831 C808 1.264 . S
C832 C825 1.403 . S
C832 C833 1.399 . S
C832 H838 0.929 . S
C833 C813 1.449 . S
C833 C832 1.399 . S
C833 H839 0.930 . S
H834 C814 0.931 . S
H835 C815 0.930 . S
H836 C823 0.931 . S
H837 C824 0.929 . S
H838 C832 0.929 . S
H839 C833 0.930 . S
Mn840 O845 2.095 . S
Mn840 O855 2.162 . S
Mn840 O856 2.297 . S
Mn840 O864 2.385 . S
Mn840 O865 2.209 . S
Mn840 O866 2.094 . S
Mn841 O846 2.121 . S
Mn841 N848 2.257 . S
Mn841 N857 2.282 . S
Mn841 O865 2.215 . S
Mn841 O867 2.117 . S
C842 O864 1.234 . S
C842 O865 1.283 . S
C843 O855 1.281 . S
C843 O856 1.236 . S
C844 O866 1.240 . S
C844 O867 1.264 . S
O845 Mn840 2.095 . S
O845 C854 1.250 . S
O846 Mn841 2.121 . S
O846 C854 1.258 . S
C847 N848 1.326 . S
C847 C851 1.460 . S
C847 H853 0.929 . S
N848 Mn841 2.257 . S
N848 C847 1.326 . S
N848 C852 1.362 . S
C849 C850 1.258 . S
C849 C852 1.431 . S
C849 C869 1.449 . S
C850 C849 1.258 . S
C850 C851 1.477 . S
C850 H870 0.931 . S
C851 C847 1.460 . S
C851 C850 1.477 . S
C851 H871 0.930 . S
C852 N848 1.362 . S
C852 C849 1.431 . S
C852 C862 1.476 . S
H853 C847 0.929 . S
C854 O845 1.250 . S
C854 O846 1.258 . S
O855 Mn840 2.162 . S
O855 C843 1.281 . S
O856 Mn840 2.297 . S
O856 C843 1.236 . S
N857 Mn841 2.282 . S
N857 C858 1.328 . S
N857 C862 1.318 . S
C858 N857 1.328 . S
C858 C859 1.457 . S
C858 H863 0.929 . S
C859 C858 1.457 . S
C859 C860 1.291 . S
C859 H872 0.931 . S
C860 C859 1.291 . S
C860 C861 1.373 . S
C860 H873 0.929 . S
C861 C860 1.373 . S
C861 C862 1.396 . S
C861 C868 1.403 . S
C862 C852 1.476 . S
C862 N857 1.318 . S
C862 C861 1.396 . S
H863 C858 0.929 . S
O864 Mn840 2.385 . S
O864 C842 1.234 . S
O865 Mn840 2.209 . S
O865 Mn841 2.215 . S
O865 C842 1.283 . S
O866 Mn840 2.094 . S
O866 C844 1.240 . S
O867 Mn841 2.117 . S
O867 C844 1.264 . S
C868 C861 1.403 . S
C868 C869 1.399 . S
C868 H874 0.929 . S
C869 C849 1.449 . S
C869 C868 1.399 . S
C869 H875 0.930 . S
H870 C850 0.931 . S
H871 C851 0.930 . S
H872 C859 0.931 . S
H873 C860 0.929 . S
H874 C868 0.929 . S
H875 C869 0.930 . S
Mn876 O881 2.095 . S
Mn876 O891 2.162 . S
Mn876 O892 2.297 . S
Mn876 O900 2.385 1_565 S
Mn876 O901 2.209 1_565 S
Mn876 O902 2.094 . S
Mn877 O882 2.121 . S
Mn877 N884 2.257 . S
Mn877 N893 2.282 . S
Mn877 O901 2.215 . S
Mn877 O903 2.117 . S
C878 O900 1.234 . S
C878 O901 1.283 . S
C879 O891 1.281 . S
C879 O892 1.236 . S
C880 O902 1.221 1_545 S
C880 O903 1.289 . S
O881 Mn876 2.095 . S
O881 C890 1.250 1_565 S
O882 Mn877 2.121 . S
O882 C890 1.258 . S
C883 N884 1.326 . S
C883 C887 1.460 . S
C883 H889 0.929 . S
N884 Mn877 2.257 . S
N884 C883 1.326 . S
N884 C888 1.362 . S
C885 C886 1.258 . S
C885 C888 1.431 . S
C885 C905 1.449 . S
C886 C885 1.258 . S
C886 C887 1.477 . S
C886 H906 0.931 . S
C887 C883 1.460 . S
C887 C886 1.477 . S
C887 H907 0.930 . S
C888 N884 1.362 . S
C888 C885 1.431 . S
C888 C898 1.476 . S
H889 C883 0.929 . S
C890 O881 1.250 1_545 S
C890 O882 1.258 . S
O891 Mn876 2.162 . S
O891 C879 1.281 . S
O892 Mn876 2.297 . S
O892 C879 1.236 . S
N893 Mn877 2.282 . S
N893 C894 1.328 . S
N893 C898 1.318 . S
C894 N893 1.328 . S
C894 C895 1.457 . S
C894 H899 0.929 . S
C895 C894 1.457 . S
C895 C896 1.291 . S
C895 H908 0.931 . S
C896 C895 1.291 . S
C896 C897 1.373 . S
C896 H909 0.929 . S
C897 C896 1.373 . S
C897 C898 1.396 . S
C897 C904 1.403 . S
C898 C888 1.476 . S
C898 N893 1.318 . S
C898 C897 1.396 . S
H899 C894 0.929 . S
O900 Mn876 2.385 1_545 S
O900 C878 1.234 . S
O901 Mn876 2.209 1_545 S
O901 Mn877 2.215 . S
O901 C878 1.283 . S
O902 Mn876 2.094 . S
O902 C880 1.221 1_565 S
O903 Mn877 2.117 . S
O903 C880 1.289 . S
C904 C897 1.403 . S
C904 C905 1.399 . S
C904 H910 0.929 . S
C905 C885 1.449 . S
C905 C904 1.399 . S
C905 H911 0.930 . S
H906 C886 0.931 . S
H907 C887 0.930 . S
H908 C895 0.931 . S
H909 C896 0.929 . S
H910 C904 0.929 . S
H911 C905 0.930 . S
Mn912 O917 2.095 . S
Mn912 O927 2.162 . S
Mn912 O928 2.297 . S
Mn912 O936 2.385 1_455 S
Mn912 O937 2.209 1_455 S
Mn912 O938 2.094 . S
Mn913 O918 2.121 . S
Mn913 N920 2.257 . S
Mn913 N929 2.282 . S
Mn913 O937 2.215 . S
Mn913 O939 2.117 . S
C914 O936 1.234 . S
C914 O937 1.283 . S
C915 O927 1.281 . S
C915 O928 1.236 . S
C916 O938 1.240 . S
C916 O939 1.264 1_455 S
O917 Mn912 2.095 . S
O917 C926 1.250 1_455 S
O918 Mn913 2.121 . S
O918 C926 1.258 . S
C919 N920 1.326 . S
C919 C923 1.460 . S
C919 H925 0.929 . S
N920 Mn913 2.257 . S
N920 C919 1.326 . S
N920 C924 1.362 . S
C921 C922 1.258 . S
C921 C924 1.431 . S
C921 C941 1.449 . S
C922 C921 1.258 . S
C922 C923 1.477 . S
C922 H942 0.931 . S
C923 C919 1.460 . S
C923 C922 1.477 . S
C923 H943 0.930 . S
C924 N920 1.362 . S
C924 C921 1.431 . S
C924 C934 1.476 . S
H925 C919 0.929 . S
C926 O917 1.250 1_655 S
C926 O918 1.258 . S
O927 Mn912 2.162 . S
O927 C915 1.281 . S
O928 Mn912 2.297 . S
O928 C915 1.236 . S
N929 Mn913 2.282 . S
N929 C930 1.328 . S
N929 C934 1.318 . S
C930 N929 1.328 . S
C930 C931 1.457 . S
C930 H935 0.929 . S
C931 C930 1.457 . S
C931 C932 1.291 . S
C931 H944 0.931 . S
C932 C931 1.291 . S
C932 C933 1.373 . S
C932 H945 0.929 . S
C933 C932 1.373 . S
C933 C934 1.396 . S
C933 C940 1.403 . S
C934 C924 1.476 . S
C934 N929 1.318 . S
C934 C933 1.396 . S
H935 C930 0.929 . S
O936 Mn912 2.385 1_655 S
O936 C914 1.234 . S
O937 Mn912 2.209 1_655 S
O937 Mn913 2.215 . S
O937 C914 1.283 . S
O938 Mn912 2.094 . S
O938 C916 1.240 . S
O939 Mn913 2.117 . S
O939 C916 1.264 1_655 S
C940 C933 1.403 . S
C940 C941 1.399 . S
C940 H946 0.929 . S
C941 C921 1.449 . S
C941 C940 1.399 . S
C941 H947 0.930 . S
H942 C922 0.931 . S
H943 C923 0.930 . S
H944 C931 0.931 . S
H945 C932 0.929 . S
H946 C940 0.929 . S
H947 C941 0.930 . S
Mn948 O953 2.095 . S
Mn948 O963 2.162 . S
Mn948 O964 2.297 . S
Mn948 O972 2.385 . S
Mn948 O973 2.209 . S
Mn948 O974 2.094 . S
Mn949 O954 2.121 . S
Mn949 N956 2.257 . S
Mn949 N965 2.282 . S
Mn949 O973 2.215 . S
Mn949 O975 2.117 . S
C950 O972 1.234 . S
C950 O973 1.283 . S
C951 O963 1.281 . S
C951 O964 1.236 . S
C952 O974 1.240 . S
C952 O975 1.264 . S
O953 Mn948 2.095 . S
O953 C962 1.250 . S
O954 Mn949 2.121 . S
O954 C962 1.258 . S
C955 N956 1.326 . S
C955 C959 1.460 . S
C955 H961 0.929 . S
N956 Mn949 2.257 . S
N956 C955 1.326 . S
N956 C960 1.362 . S
C957 C958 1.258 . S
C957 C960 1.431 . S
C957 C977 1.449 . S
C958 C957 1.258 . S
C958 C959 1.477 . S
C958 H978 0.931 . S
C959 C955 1.460 . S
C959 C958 1.477 . S
C959 H979 0.930 . S
C960 N956 1.362 . S
C960 C957 1.431 . S
C960 C970 1.476 . S
H961 C955 0.929 . S
C962 O953 1.250 . S
C962 O954 1.258 . S
O963 Mn948 2.162 . S
O963 C951 1.281 . S
O964 Mn948 2.297 . S
O964 C951 1.236 . S
N965 Mn949 2.282 . S
N965 C966 1.328 . S
N965 C970 1.318 . S
C966 N965 1.328 . S
C966 C967 1.457 . S
C966 H971 0.929 . S
C967 C966 1.457 . S
C967 C968 1.291 . S
C967 H980 0.931 . S
C968 C967 1.291 . S
C968 C969 1.373 . S
C968 H981 0.929 . S
C969 C968 1.373 . S
C969 C970 1.396 . S
C969 C976 1.403 . S
C970 C960 1.476 . S
C970 N965 1.318 . S
C970 C969 1.396 . S
H971 C966 0.929 . S
O972 Mn948 2.385 . S
O972 C950 1.234 . S
O973 Mn948 2.209 . S
O973 Mn949 2.215 . S
O973 C950 1.283 . S
O974 Mn948 2.094 . S
O974 C952 1.240 . S
O975 Mn949 2.117 . S
O975 C952 1.264 . S
C976 C969 1.403 . S
C976 C977 1.399 . S
C976 H982 0.929 . S
C977 C957 1.449 . S
C977 C976 1.399 . S
C977 H983 0.930 . S
H978 C958 0.931 . S
H979 C959 0.930 . S
H980 C967 0.931 . S
H981 C968 0.929 . S
H982 C976 0.929 . S
H983 C977 0.930 . S
Mn984 O989 2.095 1_455 S
Mn984 O999 2.162 . S
Mn984 O1000 2.297 1_455 S
Mn984 O1008 2.385 . S
Mn984 O1009 2.209 1_455 S
Mn984 O1010 2.094 . S
Mn985 O990 2.121 . S
Mn985 N992 2.257 . S
Mn985 N1001 2.282 1_655 S
Mn985 O1009 2.215 . S
Mn985 O1011 2.117 1_655 S
C986 O1008 1.234 . S
C986 O1009 1.283 1_455 S
C987 O999 1.281 . S
C987 O1000 1.236 1_455 S
C988 O1010 1.240 . S
C988 O1011 1.264 . S
O989 Mn984 2.095 1_655 S
O989 C998 1.250 . S
O990 Mn985 2.121 . S
O990 C998 1.258 . S
C991 N992 1.326 . S
C991 C995 1.460 . S
C991 H997 0.929 . S
N992 Mn985 2.257 . S
N992 C991 1.326 . S
N992 C996 1.362 . S
C993 C994 1.258 . S
C993 C996 1.431 . S
C993 C1013 1.449 . S
C994 C993 1.258 . S
C994 C995 1.477 . S
C994 H1014 0.931 . S
C995 C991 1.460 . S
C995 C994 1.477 . S
C995 H1015 0.930 . S
C996 N992 1.362 . S
C996 C993 1.431 . S
C996 C1006 1.476 . S
H997 C991 0.929 . S
C998 O989 1.250 . S
C998 O990 1.258 . S
O999 Mn984 2.162 . S
O999 C987 1.281 . S
O1000 Mn984 2.297 1_655 S
O1000 C987 1.236 1_655 S
N1001 Mn985 2.282 1_455 S
N1001 C1002 1.328 . S
N1001 C1006 1.318 1_455 S
C1002 N1001 1.328 . S
C1002 C1003 1.457 . S
C1002 H1007 0.929 . S
C1003 C1002 1.457 . S
C1003 C1004 1.291 . S
C1003 H1016 0.931 . S
C1004 C1003 1.291 . S
C1004 C1005 1.373 1_455 S
C1004 H1017 0.929 . S
C1005 C1004 1.373 1_655 S
C1005 C1006 1.396 . S
C1005 C1012 1.403 . S
C1006 C996 1.476 . S
C1006 N1001 1.318 1_655 S
C1006 C1005 1.396 . S
H1007 C1002 0.929 . S
O1008 Mn984 2.385 . S
O1008 C986 1.234 . S
O1009 Mn984 2.209 1_655 S
O1009 Mn985 2.215 . S
O1009 C986 1.283 1_655 S
O1010 Mn984 2.094 . S
O1010 C988 1.240 . S
O1011 Mn985 2.117 1_455 S
O1011 C988 1.264 . S
C1012 C1005 1.403 . S
C1012 C1013 1.399 . S
C1012 H1018 0.929 . S
C1013 C993 1.449 . S
C1013 C1012 1.399 . S
C1013 H1019 0.930 . S
H1014 C994 0.931 . S
H1015 C995 0.930 . S
H1016 C1003 0.931 . S
H1017 C1004 0.929 . S
H1018 C1012 0.929 . S
H1019 C1013 0.930 . S
Mn1020 O1025 2.095 . S
Mn1020 O1035 2.162 . S
Mn1020 O1036 2.297 . S
Mn1020 O1044 2.385 . S
Mn1020 O1045 2.209 . S
Mn1020 O1046 2.094 . S
Mn1021 O1026 2.121 . S
Mn1021 N1028 2.257 . S
Mn1021 N1037 2.282 . S
Mn1021 O1045 2.215 . S
Mn1021 O1047 2.117 . S
C1022 O1044 1.234 . S
C1022 O1045 1.283 . S
C1023 O1035 1.281 . S
C1023 O1036 1.236 . S
C1024 O1046 1.240 . S
C1024 O1047 1.264 . S
O1025 Mn1020 2.095 . S
O1025 C1034 1.250 . S
O1026 Mn1021 2.121 . S
O1026 C1034 1.258 . S
C1027 N1028 1.326 . S
C1027 C1031 1.460 . S
C1027 H1033 0.929 . S
N1028 Mn1021 2.257 . S
N1028 C1027 1.326 . S
N1028 C1032 1.362 . S
C1029 C1030 1.258 . S
C1029 C1032 1.431 . S
C1029 C1049 1.449 . S
C1030 C1029 1.258 . S
C1030 C1031 1.477 . S
C1030 H1050 0.931 . S
C1031 C1027 1.460 . S
C1031 C1030 1.477 . S
C1031 H1051 0.930 . S
C1032 N1028 1.362 . S
C1032 C1029 1.431 . S
C1032 C1042 1.476 . S
H1033 C1027 0.929 . S
C1034 O1025 1.250 . S
C1034 O1026 1.258 . S
O1035 Mn1020 2.162 . S
O1035 C1023 1.281 . S
O1036 Mn1020 2.297 . S
O1036 C1023 1.236 . S
N1037 Mn1021 2.282 . S
N1037 C1038 1.328 . S
N1037 C1042 1.318 . S
C1038 N1037 1.328 . S
C1038 C1039 1.457 . S
C1038 H1043 0.929 . S
C1039 C1038 1.457 . S
C1039 C1040 1.291 . S
C1039 H1052 0.931 . S
C1040 C1039 1.291 . S
C1040 C1041 1.373 . S
C1040 H1053 0.929 . S
C1041 C1040 1.373 . S
C1041 C1042 1.396 . S
C1041 C1048 1.403 . S
C1042 C1032 1.476 . S
C1042 N1037 1.318 . S
C1042 C1041 1.396 . S
H1043 C1038 0.929 . S
O1044 Mn1020 2.385 . S
O1044 C1022 1.234 . S
O1045 Mn1020 2.209 . S
O1045 Mn1021 2.215 . S
O1045 C1022 1.283 . S
O1046 Mn1020 2.094 . S
O1046 C1024 1.240 . S
O1047 Mn1021 2.117 . S
O1047 C1024 1.264 . S
C1048 C1041 1.403 . S
C1048 C1049 1.399 . S
C1048 H1054 0.929 . S
C1049 C1029 1.449 . S
C1049 C1048 1.399 . S
C1049 H1055 0.930 . S
H1050 C1030 0.931 . S
H1051 C1031 0.930 . S
H1052 C1039 0.931 . S
H1053 C1040 0.929 . S
H1054 C1048 0.929 . S
H1055 C1049 0.930 . S
C1056 C1057 1.391 . S
C1056 C1058 1.394 . S
C1056 H1072 0.931 . S
C1057 C1056 1.391 . S
C1057 C1061 1.376 . S
C1058 C1056 1.394 . S
C1058 C1059 1.369 . S
C1058 C1062 1.531 . S
C1059 C1058 1.369 . S
C1059 C1060 1.410 . S
C1059 C1067 1.503 . S
C1060 C1059 1.410 . S
C1060 C1061 1.392 . S
C1060 C1063 1.511 . S
C1061 C1057 1.376 . S
C1061 C1060 1.392 . S
C1061 H1073 0.929 . S
C1062 C1058 1.531 . S
C1062 H1074 0.960 . S
C1062 H1075 0.962 . S
C1062 H1076 0.960 . S
C1063 C1060 1.511 . S
C1063 H1077 0.961 . S
C1063 H1078 0.961 . S
C1063 H1079 0.961 . S
C1064 C1065 1.370 . S
C1064 C1066 1.363 . S
C1064 H1080 0.931 . S
C1065 C1064 1.370 . S
C1065 C1069 1.408 . S
C1066 C1064 1.363 . S
C1066 C1067 1.370 . S
C1066 C1070 1.524 . S
C1067 C1059 1.503 . S
C1067 C1066 1.370 . S
C1067 C1068 1.403 . S
C1068 C1067 1.403 . S
C1068 C1069 1.404 . S
C1068 C1071 1.539 . S
C1069 C1065 1.408 . S
C1069 C1068 1.404 . S
C1069 H1081 0.930 . S
C1070 C1066 1.524 . S
C1070 H1082 0.956 . S
C1070 H1083 0.961 . S
C1070 H1084 0.961 . S
C1071 C1068 1.539 . S
C1071 H1085 0.958 . S
C1071 H1086 0.961 . S
C1071 H1087 0.960 . S
H1072 C1056 0.931 . S
H1073 C1061 0.929 . S
H1074 C1062 0.960 . S
H1075 C1062 0.962 . S
H1076 C1062 0.960 . S
H1077 C1063 0.961 . S
H1078 C1063 0.961 . S
H1079 C1063 0.961 . S
H1080 C1064 0.931 . S
H1081 C1069 0.930 . S
H1082 C1070 0.956 . S
H1083 C1070 0.961 . S
H1084 C1070 0.961 . S
H1085 C1071 0.958 . S
H1086 C1071 0.961 . S
H1087 C1071 0.960 . S
C1088 C1089 1.391 . S
C1088 C1090 1.394 . S
C1088 H1104 0.931 . S
C1089 C1088 1.391 . S
C1089 C1093 1.376 . S
C1090 C1088 1.394 . S
C1090 C1091 1.369 . S
C1090 C1094 1.531 . S
C1091 C1090 1.369 . S
C1091 C1092 1.410 . S
C1091 C1099 1.503 . S
C1092 C1091 1.410 . S
C1092 C1093 1.392 . S
C1092 C1095 1.511 . S
C1093 C1089 1.376 . S
C1093 C1092 1.392 . S
C1093 H1105 0.929 . S
C1094 C1090 1.531 . S
C1094 H1106 0.960 . S
C1094 H1107 0.962 . S
C1094 H1108 0.960 . S
C1095 C1092 1.511 . S
C1095 H1109 0.961 . S
C1095 H1110 0.961 . S
C1095 H1111 0.961 . S
C1096 C1097 1.370 . S
C1096 C1098 1.363 . S
C1096 H1112 0.931 . S
C1097 C1096 1.370 . S
C1097 C1101 1.408 . S
C1098 C1096 1.363 . S
C1098 C1099 1.370 . S
C1098 C1102 1.524 . S
C1099 C1091 1.503 . S
C1099 C1098 1.370 . S
C1099 C1100 1.403 . S
C1100 C1099 1.403 . S
C1100 C1101 1.404 . S
C1100 C1103 1.539 . S
C1101 C1097 1.408 . S
C1101 C1100 1.404 . S
C1101 H1113 0.930 . S
C1102 C1098 1.524 . S
C1102 H1114 0.956 . S
C1102 H1115 0.961 . S
C1102 H1116 0.961 . S
C1103 C1100 1.539 . S
C1103 H1117 0.958 . S
C1103 H1118 0.961 . S
C1103 H1119 0.960 . S
H1104 C1088 0.931 . S
H1105 C1093 0.929 . S
H1106 C1094 0.960 . S
H1107 C1094 0.962 . S
H1108 C1094 0.960 . S
H1109 C1095 0.961 . S
H1110 C1095 0.961 . S
H1111 C1095 0.961 . S
H1112 C1096 0.931 . S
H1113 C1101 0.930 . S
H1114 C1102 0.956 . S
H1115 C1102 0.961 . S
H1116 C1102 0.961 . S
H1117 C1103 0.958 . S
H1118 C1103 0.961 . S
H1119 C1103 0.960 . S
C1120 C1121 1.391 . S
C1120 C1122 1.394 . S
C1120 H1136 0.931 . S
C1121 C1120 1.391 . S
C1121 C1125 1.376 . S
C1122 C1120 1.394 . S
C1122 C1123 1.369 . S
C1122 C1126 1.531 . S
C1123 C1122 1.369 . S
C1123 C1124 1.410 . S
C1123 C1131 1.503 . S
C1124 C1123 1.410 . S
C1124 C1125 1.392 . S
C1124 C1127 1.511 . S
C1125 C1121 1.376 . S
C1125 C1124 1.392 . S
C1125 H1137 0.929 . S
C1126 C1122 1.531 . S
C1126 H1138 0.960 . S
C1126 H1139 0.962 . S
C1126 H1140 0.960 . S
C1127 C1124 1.511 . S
C1127 H1141 0.961 . S
C1127 H1142 0.961 . S
C1127 H1143 0.961 . S
C1128 C1129 1.370 . S
C1128 C1130 1.363 . S
C1128 H1144 0.931 . S
C1129 C1128 1.370 . S
C1129 C1133 1.408 . S
C1130 C1128 1.363 . S
C1130 C1131 1.370 . S
C1130 C1134 1.524 . S
C1131 C1123 1.503 . S
C1131 C1130 1.370 . S
C1131 C1132 1.403 . S
C1132 C1131 1.403 . S
C1132 C1133 1.404 . S
C1132 C1135 1.539 . S
C1133 C1129 1.408 . S
C1133 C1132 1.404 . S
C1133 H1145 0.930 . S
C1134 C1130 1.524 . S
C1134 H1146 0.956 . S
C1134 H1147 0.961 . S
C1134 H1148 0.961 . S
C1135 C1132 1.539 . S
C1135 H1149 0.958 . S
C1135 H1150 0.961 . S
C1135 H1151 0.960 . S
H1136 C1120 0.931 . S
H1137 C1125 0.929 . S
H1138 C1126 0.960 . S
H1139 C1126 0.962 . S
H1140 C1126 0.960 . S
H1141 C1127 0.961 . S
H1142 C1127 0.961 . S
H1143 C1127 0.961 . S
H1144 C1128 0.931 . S
H1145 C1133 0.930 . S
H1146 C1134 0.956 . S
H1147 C1134 0.961 . S
H1148 C1134 0.961 . S
H1149 C1135 0.958 . S
H1150 C1135 0.961 . S
H1151 C1135 0.960 . S
C1152 C1153 1.391 . S
C1152 C1154 1.394 . S
C1152 H1168 0.931 . S
C1153 C1152 1.391 . S
C1153 C1157 1.376 . S
C1154 C1152 1.394 . S
C1154 C1155 1.369 . S
C1154 C1158 1.531 . S
C1155 C1154 1.369 . S
C1155 C1156 1.407 1_565 S
C1155 C1163 1.503 . S
C1156 C1155 1.407 1_545 S
C1156 C1157 1.392 1_545 S
C1156 C1159 1.515 . S
C1157 C1153 1.376 . S
C1157 C1156 1.392 1_565 S
C1157 H1169 0.929 1_565 S
C1158 C1154 1.531 . S
C1158 H1170 0.960 . S
C1158 H1171 0.962 . S
C1158 H1172 0.960 . S
C1159 C1156 1.515 . S
C1159 H1173 0.961 . S
C1159 H1174 0.961 . S
C1159 H1175 0.961 . S
C1160 C1161 1.370 . S
C1160 C1162 1.363 . S
C1160 H1176 0.931 . S
C1161 C1160 1.370 . S
C1161 C1165 1.408 1_545 S
C1162 C1160 1.363 . S
C1162 C1163 1.370 1_545 S
C1162 C1166 1.524 . S
C1163 C1155 1.503 . S
C1163 C1162 1.370 1_565 S
C1163 C1164 1.403 . S
C1164 C1163 1.403 . S
C1164 C1165 1.404 . S
C1164 C1167 1.539 . S
C1165 C1161 1.408 1_565 S
C1165 C1164 1.404 . S
C1165 H1177 0.930 . S
C1166 C1162 1.524 . S
C1166 H1178 0.956 . S
C1166 H1179 0.961 . S
C1166 H1180 0.961 . S
C1167 C1164 1.539 . S
C1167 H1181 0.958 . S
C1167 H1182 0.961 . S
C1167 H1183 0.960 . S
H1168 C1152 0.931 . S
H1169 C1157 0.929 1_545 S
H1170 C1158 0.960 . S
H1171 C1158 0.962 . S
H1172 C1158 0.960 . S
H1173 C1159 0.961 . S
H1174 C1159 0.961 . S
H1175 C1159 0.961 . S
H1176 C1160 0.931 . S
H1177 C1165 0.930 . S
H1178 C1166 0.956 . S
H1179 C1166 0.961 . S
H1180 C1166 0.961 . S
H1181 C1167 0.958 . S
H1182 C1167 0.961 . S
H1183 C1167 0.960 . S
C1184 C1185 1.391 . S
C1184 C1186 1.394 . S
C1184 H1200 0.931 . S
C1185 C1184 1.391 . S
C1185 C1189 1.376 . S
C1186 C1184 1.394 . S
C1186 C1187 1.369 . S
C1186 C1190 1.531 . S
C1187 C1186 1.369 . S
C1187 C1188 1.410 . S
C1187 C1195 1.503 . S
C1188 C1187 1.410 . S
C1188 C1189 1.392 . S
C1188 C1191 1.511 . S
C1189 C1185 1.376 . S
C1189 C1188 1.392 . S
C1189 H1201 0.929 . S
C1190 C1186 1.531 . S
C1190 H1202 0.960 . S
C1190 H1203 0.962 . S
C1190 H1204 0.960 . S
C1191 C1188 1.511 . S
C1191 H1205 0.961 . S
C1191 H1206 0.961 . S
C1191 H1207 0.961 . S
C1192 C1193 1.370 . S
C1192 C1194 1.363 . S
C1192 H1208 0.931 . S
C1193 C1192 1.370 . S
C1193 C1197 1.408 . S
C1194 C1192 1.363 . S
C1194 C1195 1.370 . S
C1194 C1198 1.524 . S
C1195 C1187 1.503 . S
C1195 C1194 1.370 . S
C1195 C1196 1.403 . S
C1196 C1195 1.403 . S
C1196 C1197 1.404 . S
C1196 C1199 1.539 . S
C1197 C1193 1.408 . S
C1197 C1196 1.404 . S
C1197 H1209 0.930 . S
C1198 C1194 1.524 . S
C1198 H1210 0.956 . S
C1198 H1211 0.961 . S
C1198 H1212 0.961 . S
C1199 C1196 1.539 . S
C1199 H1213 0.958 . S
C1199 H1214 0.961 . S
C1199 H1215 0.960 . S
H1200 C1184 0.931 . S
H1201 C1189 0.929 . S
H1202 C1190 0.960 . S
H1203 C1190 0.962 . S
H1204 C1190 0.960 . S
H1205 C1191 0.961 . S
H1206 C1191 0.961 . S
H1207 C1191 0.961 . S
H1208 C1192 0.931 . S
H1209 C1197 0.930 . S
H1210 C1198 0.956 . S
H1211 C1198 0.961 . S
H1212 C1198 0.961 . S
H1213 C1199 0.958 . S
H1214 C1199 0.961 . S
H1215 C1199 0.960 . S
C1216 C1217 1.391 . S
C1216 C1218 1.394 . S
C1216 H1232 0.931 . S
C1217 C1216 1.391 . S
C1217 C1221 1.376 . S
C1218 C1216 1.394 . S
C1218 C1219 1.369 . S
C1218 C1222 1.531 . S
C1219 C1218 1.369 . S
C1219 C1220 1.410 . S
C1219 C1227 1.503 . S
C1220 C1219 1.410 . S
C1220 C1221 1.392 . S
C1220 C1223 1.511 . S
C1221 C1217 1.376 . S
C1221 C1220 1.392 . S
C1221 H1233 0.929 . S
C1222 C1218 1.531 . S
C1222 H1234 0.960 . S
C1222 H1235 0.962 . S
C1222 H1236 0.960 . S
C1223 C1220 1.511 . S
C1223 H1237 0.961 . S
C1223 H1238 0.961 . S
C1223 H1239 0.961 . S
C1224 C1225 1.370 . S
C1224 C1226 1.363 . S
C1224 H1240 0.931 . S
C1225 C1224 1.370 . S
C1225 C1229 1.408 . S
C1226 C1224 1.363 . S
C1226 C1227 1.370 . S
C1226 C1230 1.524 . S
C1227 C1219 1.503 . S
C1227 C1226 1.370 . S
C1227 C1228 1.403 . S
C1228 C1227 1.403 . S
C1228 C1229 1.404 . S
C1228 C1231 1.539 . S
C1229 C1225 1.408 . S
C1229 C1228 1.404 . S
C1229 H1241 0.930 . S
C1230 C1226 1.524 . S
C1230 H1242 0.956 . S
C1230 H1243 0.961 . S
C1230 H1244 0.961 . S
C1231 C1228 1.539 . S
C1231 H1245 0.958 . S
C1231 H1246 0.961 . S
C1231 H1247 0.960 . S
H1232 C1216 0.931 . S
H1233 C1221 0.929 . S
H1234 C1222 0.960 . S
H1235 C1222 0.962 . S
H1236 C1222 0.960 . S
H1237 C1223 0.961 . S
H1238 C1223 0.961 . S
H1239 C1223 0.961 . S
H1240 C1224 0.931 . S
H1241 C1229 0.930 . S
H1242 C1230 0.956 . S
H1243 C1230 0.961 . S
H1244 C1230 0.961 . S
H1245 C1231 0.958 . S
H1246 C1231 0.961 . S
H1247 C1231 0.960 . S
C1248 C1249 1.391 . S
C1248 C1250 1.394 . S
C1248 H1264 0.931 . S
C1249 C1248 1.391 . S
C1249 C1253 1.376 . S
C1250 C1248 1.394 . S
C1250 C1251 1.369 . S
C1250 C1254 1.531 . S
C1251 C1250 1.369 . S
C1251 C1252 1.410 . S
C1251 C1259 1.503 . S
C1252 C1251 1.410 . S
C1252 C1253 1.392 . S
C1252 C1255 1.511 . S
C1253 C1249 1.376 . S
C1253 C1252 1.392 . S
C1253 H1265 0.929 . S
C1254 C1250 1.531 . S
C1254 H1266 0.960 . S
C1254 H1267 0.962 . S
C1254 H1268 0.960 . S
C1255 C1252 1.511 . S
C1255 H1269 0.961 . S
C1255 H1270 0.961 . S
C1255 H1271 0.961 . S
C1256 C1257 1.370 . S
C1256 C1258 1.363 . S
C1256 H1272 0.931 . S
C1257 C1256 1.370 . S
C1257 C1261 1.408 . S
C1258 C1256 1.363 . S
C1258 C1259 1.370 . S
C1258 C1262 1.524 . S
C1259 C1251 1.503 . S
C1259 C1258 1.370 . S
C1259 C1260 1.403 . S
C1260 C1259 1.403 . S
C1260 C1261 1.404 . S
C1260 C1263 1.539 . S
C1261 C1257 1.408 . S
C1261 C1260 1.404 . S
C1261 H1273 0.930 . S
C1262 C1258 1.524 . S
C1262 H1274 0.956 . S
C1262 H1275 0.961 . S
C1262 H1276 0.961 . S
C1263 C1260 1.539 . S
C1263 H1277 0.958 . S
C1263 H1278 0.961 . S
C1263 H1279 0.960 . S
H1264 C1248 0.931 . S
H1265 C1253 0.929 . S
H1266 C1254 0.960 . S
H1267 C1254 0.962 . S
H1268 C1254 0.960 . S
H1269 C1255 0.961 . S
H1270 C1255 0.961 . S
H1271 C1255 0.961 . S
H1272 C1256 0.931 . S
H1273 C1261 0.930 . S
H1274 C1262 0.956 . S
H1275 C1262 0.961 . S
H1276 C1262 0.961 . S
H1277 C1263 0.958 . S
H1278 C1263 0.961 . S
H1279 C1263 0.960 . S
C1280 C1281 1.391 1_545 S
C1280 C1282 1.394 . S
C1280 H1296 0.931 . S
C1281 C1280 1.391 1_565 S
C1281 C1285 1.376 . S
C1282 C1280 1.394 . S
C1282 C1283 1.369 1_545 S
C1282 C1286 1.531 . S
C1283 C1282 1.369 1_565 S
C1283 C1284 1.410 . S
C1283 C1291 1.503 . S
C1284 C1283 1.410 . S
C1284 C1285 1.392 . S
C1284 C1287 1.511 . S
C1285 C1281 1.376 . S
C1285 C1284 1.392 . S
C1285 H1297 0.929 . S
C1286 C1282 1.531 . S
C1286 H1298 0.960 . S
C1286 H1299 0.962 . S
C1286 H1300 0.960 . S
C1287 C1284 1.511 . S
C1287 H1301 0.961 . S
C1287 H1302 0.961 . S
C1287 H1303 0.961 . S
C1288 C1289 1.370 . S
C1288 C1290 1.363 . S
C1288 H1304 0.931 . S
C1289 C1288 1.370 . S
C1289 C1293 1.408 . S
C1290 C1288 1.363 . S
C1290 C1291 1.370 . S
C1290 C1294 1.524 . S
C1291 C1283 1.503 . S
C1291 C1290 1.370 . S
C1291 C1292 1.403 . S
C1292 C1291 1.403 . S
C1292 C1293 1.404 . S
C1292 C1295 1.539 . S
C1293 C1289 1.408 . S
C1293 C1292 1.404 . S
C1293 H1305 0.930 . S
C1294 C1290 1.524 . S
C1294 H1306 0.956 1_565 S
C1294 H1307 0.961 . S
C1294 H1308 0.961 . S
C1295 C1292 1.539 . S
C1295 H1309 0.958 1_565 S
C1295 H1310 0.961 . S
C1295 H1311 0.960 . S
H1296 C1280 0.931 . S
H1297 C1285 0.929 . S
H1298 C1286 0.960 . S
H1299 C1286 0.962 . S
H1300 C1286 0.960 . S
H1301 C1287 0.961 . S
H1302 C1287 0.961 . S
H1303 C1287 0.961 . S
H1304 C1288 0.931 . S
H1305 C1293 0.930 . S
H1306 C1294 0.956 1_545 S
H1307 C1294 0.961 . S
H1308 C1294 0.961 . S
H1309 C1295 0.958 1_545 S
H1310 C1295 0.961 . S
H1311 C1295 0.960 . S
C1312 C1313 1.391 . S
C1312 C1314 1.394 . S
C1312 H1328 0.931 . S
C1313 C1312 1.391 . S
C1313 C1317 1.376 . S
C1314 C1312 1.394 . S
C1314 C1315 1.369 . S
C1314 C1318 1.531 . S
C1315 C1314 1.369 . S
C1315 C1316 1.410 . S
C1315 C1323 1.503 . S
C1316 C1315 1.410 . S
C1316 C1317 1.392 . S
C1316 C1319 1.511 . S
C1317 C1313 1.376 . S
C1317 C1316 1.392 . S
C1317 H1329 0.929 . S
C1318 C1314 1.531 . S
C1318 H1330 0.960 . S
C1318 H1331 0.962 . S
C1318 H1332 0.960 . S
C1319 C1316 1.511 . S
C1319 H1333 0.961 . S
C1319 H1334 0.961 . S
C1319 H1335 0.961 . S
C1320 C1321 1.370 . S
C1320 C1322 1.363 . S
C1320 H1336 0.931 . S
C1321 C1320 1.370 . S
C1321 C1325 1.408 . S
C1322 C1320 1.363 . S
C1322 C1323 1.370 . S
C1322 C1326 1.524 . S
C1323 C1315 1.503 . S
C1323 C1322 1.370 . S
C1323 C1324 1.403 . S
C1324 C1323 1.403 . S
C1324 C1325 1.404 . S
C1324 C1327 1.539 . S
C1325 C1321 1.408 . S
C1325 C1324 1.404 . S
C1325 H1337 0.930 . S
C1326 C1322 1.524 . S
C1326 H1338 0.956 . S
C1326 H1339 0.961 . S
C1326 H1340 0.961 . S
C1327 C1324 1.539 . S
C1327 H1341 0.958 . S
C1327 H1342 0.961 . S
C1327 H1343 0.960 . S
H1328 C1312 0.931 . S
H1329 C1317 0.929 . S
H1330 C1318 0.960 . S
H1331 C1318 0.962 . S
H1332 C1318 0.960 . S
H1333 C1319 0.961 . S
H1334 C1319 0.961 . S
H1335 C1319 0.961 . S
H1336 C1320 0.931 . S
H1337 C1325 0.930 . S
H1338 C1326 0.956 . S
H1339 C1326 0.961 . S
H1340 C1326 0.961 . S
H1341 C1327 0.958 . S
H1342 C1327 0.961 . S
H1343 C1327 0.960 . S
C1344 C1345 1.391 . S
C1344 C1346 1.394 . S
C1344 H1360 0.931 . S
C1345 C1344 1.391 . S
C1345 C1349 1.376 . S
C1346 C1344 1.394 . S
C1346 C1347 1.369 . S
C1346 C1350 1.531 . S
C1347 C1346 1.369 . S
C1347 C1348 1.410 . S
C1347 C1355 1.503 . S
C1348 C1347 1.410 . S
C1348 C1349 1.392 . S
C1348 C1351 1.511 . S
C1349 C1345 1.376 . S
C1349 C1348 1.392 . S
C1349 H1361 0.929 . S
C1350 C1346 1.531 . S
C1350 H1362 0.960 . S
C1350 H1363 0.962 . S
C1350 H1364 0.960 . S
C1351 C1348 1.511 . S
C1351 H1365 0.961 . S
C1351 H1366 0.961 . S
C1351 H1367 0.961 . S
C1352 C1353 1.370 . S
C1352 C1354 1.363 . S
C1352 H1368 0.931 . S
C1353 C1352 1.370 . S
C1353 C1357 1.408 . S
C1354 C1352 1.363 . S
C1354 C1355 1.370 . S
C1354 C1358 1.524 . S
C1355 C1347 1.503 . S
C1355 C1354 1.370 . S
C1355 C1356 1.403 . S
C1356 C1355 1.403 . S
C1356 C1357 1.404 . S
C1356 C1359 1.539 . S
C1357 C1353 1.408 . S
C1357 C1356 1.404 . S
C1357 H1369 0.930 . S
C1358 C1354 1.524 . S
C1358 H1370 0.956 . S
C1358 H1371 0.961 . S
C1358 H1372 0.961 . S
C1359 C1356 1.539 . S
C1359 H1373 0.958 . S
C1359 H1374 0.961 . S
C1359 H1375 0.960 . S
H1360 C1344 0.931 . S
H1361 C1349 0.929 . S
H1362 C1350 0.960 . S
H1363 C1350 0.962 . S
H1364 C1350 0.960 . S
H1365 C1351 0.961 . S
H1366 C1351 0.961 . S
H1367 C1351 0.961 . S
H1368 C1352 0.931 . S
H1369 C1357 0.930 . S
H1370 C1358 0.956 . S
H1371 C1358 0.961 . S
H1372 C1358 0.961 . S
H1373 C1359 0.958 . S
H1374 C1359 0.961 . S
H1375 C1359 0.960 . S
C1376 C1377 1.391 . S
C1376 C1378 1.394 . S
C1376 H1392 0.931 . S
C1377 C1376 1.391 . S
C1377 C1381 1.376 . S
C1378 C1376 1.394 . S
C1378 C1379 1.369 . S
C1378 C1382 1.531 . S
C1379 C1378 1.369 . S
C1379 C1380 1.410 . S
C1379 C1387 1.503 . S
C1380 C1379 1.410 . S
C1380 C1381 1.392 . S
C1380 C1383 1.511 . S
C1381 C1377 1.376 . S
C1381 C1380 1.392 . S
C1381 H1393 0.929 . S
C1382 C1378 1.531 . S
C1382 H1394 0.960 . S
C1382 H1395 0.962 . S
C1382 H1396 0.960 . S
C1383 C1380 1.511 . S
C1383 H1397 0.961 . S
C1383 H1398 0.961 . S
C1383 H1399 0.961 . S
C1384 C1385 1.370 . S
C1384 C1386 1.363 . S
C1384 H1400 0.931 . S
C1385 C1384 1.370 . S
C1385 C1389 1.408 . S
C1386 C1384 1.363 . S
C1386 C1387 1.370 . S
C1386 C1390 1.524 . S
C1387 C1379 1.503 . S
C1387 C1386 1.370 . S
C1387 C1388 1.403 . S
C1388 C1387 1.403 . S
C1388 C1389 1.404 . S
C1388 C1391 1.539 . S
C1389 C1385 1.408 . S
C1389 C1388 1.404 . S
C1389 H1401 0.930 . S
C1390 C1386 1.524 . S
C1390 H1402 0.956 . S
C1390 H1403 0.961 . S
C1390 H1404 0.961 . S
C1391 C1388 1.539 . S
C1391 H1405 0.958 . S
C1391 H1406 0.961 . S
C1391 H1407 0.960 . S
H1392 C1376 0.931 . S
H1393 C1381 0.929 . S
H1394 C1382 0.960 . S
H1395 C1382 0.962 . S
H1396 C1382 0.960 . S
H1397 C1383 0.961 . S
H1398 C1383 0.961 . S
H1399 C1383 0.961 . S
H1400 C1384 0.931 . S
H1401 C1389 0.930 . S
H1402 C1390 0.956 . S
H1403 C1390 0.961 . S
H1404 C1390 0.961 . S
H1405 C1391 0.958 . S
H1406 C1391 0.961 . S
H1407 C1391 0.960 . S
C1408 C1409 1.391 . S
C1408 C1410 1.394 . S
C1408 H1424 0.931 . S
C1409 C1408 1.391 . S
C1409 C1413 1.376 . S
C1410 C1408 1.394 . S
C1410 C1411 1.369 . S
C1410 C1414 1.531 . S
C1411 C1410 1.369 . S
C1411 C1412 1.410 . S
C1411 C1419 1.503 . S
C1412 C1411 1.410 . S
C1412 C1413 1.392 . S
C1412 C1415 1.511 . S
C1413 C1409 1.376 . S
C1413 C1412 1.392 . S
C1413 H1425 0.929 . S
C1414 C1410 1.531 . S
C1414 H1426 0.960 . S
C1414 H1427 0.962 . S
C1414 H1428 0.960 . S
C1415 C1412 1.511 . S
C1415 H1429 0.961 . S
C1415 H1430 0.961 . S
C1415 H1431 0.961 . S
C1416 C1417 1.370 . S
C1416 C1418 1.363 . S
C1416 H1432 0.931 . S
C1417 C1416 1.370 . S
C1417 C1421 1.408 . S
C1418 C1416 1.363 . S
C1418 C1419 1.370 . S
C1418 C1422 1.524 . S
C1419 C1411 1.503 . S
C1419 C1418 1.370 . S
C1419 C1420 1.403 . S
C1420 C1419 1.403 . S
C1420 C1421 1.404 . S
C1420 C1423 1.539 . S
C1421 C1417 1.408 . S
C1421 C1420 1.404 . S
C1421 H1433 0.930 . S
C1422 C1418 1.524 . S
C1422 H1434 0.956 . S
C1422 H1435 0.961 . S
C1422 H1436 0.961 . S
C1423 C1420 1.539 . S
C1423 H1437 0.958 . S
C1423 H1438 0.961 . S
C1423 H1439 0.960 . S
H1424 C1408 0.931 . S
H1425 C1413 0.929 . S
H1426 C1414 0.960 . S
H1427 C1414 0.962 . S
H1428 C1414 0.960 . S
H1429 C1415 0.961 . S
H1430 C1415 0.961 . S
H1431 C1415 0.961 . S
H1432 C1416 0.931 . S
H1433 C1421 0.930 . S
H1434 C1422 0.956 . S
H1435 C1422 0.961 . S
H1436 C1422 0.961 . S
H1437 C1423 0.958 . S
H1438 C1423 0.961 . S
H1439 C1423 0.960 . S
C1440 C1441 1.391 . S
C1440 C1442 1.394 . S
C1440 H1456 0.931 . S
C1441 C1440 1.391 . S
C1441 C1445 1.376 . S
C1442 C1440 1.394 . S
C1442 C1443 1.369 . S
C1442 C1446 1.531 . S
C1443 C1442 1.369 . S
C1443 C1444 1.410 . S
C1443 C1451 1.503 . S
C1444 C1443 1.410 . S
C1444 C1445 1.392 . S
C1444 C1447 1.511 . S
C1445 C1441 1.376 . S
C1445 C1444 1.392 . S
C1445 H1457 0.929 . S
C1446 C1442 1.531 . S
C1446 H1458 0.960 . S
C1446 H1459 0.962 . S
C1446 H1460 0.960 . S
C1447 C1444 1.511 . S
C1447 H1461 0.961 . S
C1447 H1462 0.961 . S
C1447 H1463 0.961 . S
C1448 C1449 1.370 . S
C1448 C1450 1.363 . S
C1448 H1464 0.931 . S
C1449 C1448 1.370 . S
C1449 C1453 1.408 . S
C1450 C1448 1.363 . S
C1450 C1451 1.370 . S
C1450 C1454 1.524 . S
C1451 C1443 1.503 . S
C1451 C1450 1.370 . S
C1451 C1452 1.403 . S
C1452 C1451 1.403 . S
C1452 C1453 1.404 . S
C1452 C1455 1.539 . S
C1453 C1449 1.408 . S
C1453 C1452 1.404 . S
C1453 H1465 0.930 . S
C1454 C1450 1.524 . S
C1454 H1466 0.956 . S
C1454 H1467 0.961 . S
C1454 H1468 0.961 . S
C1455 C1452 1.539 . S
C1455 H1469 0.958 . S
C1455 H1470 0.961 . S
C1455 H1471 0.960 . S
H1456 C1440 0.931 . S
H1457 C1445 0.929 . S
H1458 C1446 0.960 . S
H1459 C1446 0.962 . S
H1460 C1446 0.960 . S
H1461 C1447 0.961 . S
H1462 C1447 0.961 . S
H1463 C1447 0.961 . S
H1464 C1448 0.931 . S
H1465 C1453 0.930 . S
H1466 C1454 0.956 . S
H1467 C1454 0.961 . S
H1468 C1454 0.961 . S
H1469 C1455 0.958 . S
H1470 C1455 0.961 . S
H1471 C1455 0.960 . S
C1472 C1473 1.391 . S
C1472 C1474 1.394 . S
C1472 H1488 0.914 1_455 S
C1473 C1472 1.391 . S
C1473 C1477 1.376 . S
C1474 C1472 1.394 . S
C1474 C1475 1.369 . S
C1474 C1478 1.531 1_455 S
C1475 C1474 1.369 . S
C1475 C1476 1.410 . S
C1475 C1483 1.503 . S
C1476 C1475 1.410 . S
C1476 C1477 1.392 . S
C1476 C1479 1.511 . S
C1477 C1473 1.376 . S
C1477 C1476 1.392 . S
C1477 H1489 0.929 . S
C1478 C1474 1.531 1_655 S
C1478 H1490 0.960 . S
C1478 H1491 0.962 . S
C1478 H1492 0.960 . S
C1479 C1476 1.511 . S
C1479 H1493 0.961 . S
C1479 H1494 0.961 . S
C1479 H1495 0.961 . S
C1480 C1481 1.370 . S
C1480 C1482 1.363 . S
C1480 H1496 0.931 1_455 S
C1481 C1480 1.370 . S
C1481 C1485 1.408 . S
C1482 C1480 1.363 . S
C1482 C1483 1.370 . S
C1482 C1486 1.524 1_455 S
C1483 C1475 1.503 . S
C1483 C1482 1.370 . S
C1483 C1484 1.403 . S
C1484 C1483 1.403 . S
C1484 C1485 1.404 . S
C1484 C1487 1.539 . S
C1485 C1481 1.408 . S
C1485 C1484 1.404 . S
C1485 H1497 0.930 . S
C1486 C1482 1.524 1_655 S
C1486 H1498 0.956 . S
C1486 H1499 0.961 1_655 S
C1486 H1500 0.961 . S
C1487 C1484 1.539 . S
C1487 H1501 0.958 . S
C1487 H1502 0.961 . S
C1487 H1503 0.960 . S
H1488 C1472 0.914 1_655 S
H1489 C1477 0.929 . S
H1490 C1478 0.960 . S
H1491 C1478 0.962 . S
H1492 C1478 0.960 . S
H1493 C1479 0.961 . S
H1494 C1479 0.961 . S
H1495 C1479 0.961 . S
H1496 C1480 0.931 1_655 S
H1497 C1485 0.930 . S
H1498 C1486 0.956 . S
H1499 C1486 0.961 1_455 S
H1500 C1486 0.961 . S
H1501 C1487 0.958 . S
H1502 C1487 0.961 . S
H1503 C1487 0.960 . S
C1504 C1505 1.391 . S
C1504 C1506 1.394 . S
C1504 H1520 0.931 . S
C1505 C1504 1.391 . S
C1505 C1509 1.376 . S
C1506 C1504 1.394 . S
C1506 C1507 1.369 . S
C1506 C1510 1.531 . S
C1507 C1506 1.369 . S
C1507 C1508 1.410 . S
C1507 C1515 1.503 . S
C1508 C1507 1.410 . S
C1508 C1509 1.392 . S
C1508 C1511 1.511 . S
C1509 C1505 1.376 . S
C1509 C1508 1.392 . S
C1509 H1521 0.929 . S
C1510 C1506 1.531 . S
C1510 H1522 0.960 . S
C1510 H1523 0.962 . S
C1510 H1524 0.960 . S
C1511 C1508 1.511 . S
C1511 H1525 0.961 . S
C1511 H1526 0.961 . S
C1511 H1527 0.961 . S
C1512 C1513 1.370 . S
C1512 C1514 1.363 . S
C1512 H1528 0.931 . S
C1513 C1512 1.370 . S
C1513 C1517 1.408 . S
C1514 C1512 1.363 . S
C1514 C1515 1.370 . S
C1514 C1518 1.524 . S
C1515 C1507 1.503 . S
C1515 C1514 1.370 . S
C1515 C1516 1.403 . S
C1516 C1515 1.403 . S
C1516 C1517 1.404 . S
C1516 C1519 1.539 . S
C1517 C1513 1.408 . S
C1517 C1516 1.404 . S
C1517 H1529 0.930 . S
C1518 C1514 1.524 . S
C1518 H1530 0.956 . S
C1518 H1531 0.961 . S
C1518 H1532 0.961 . S
C1519 C1516 1.539 . S
C1519 H1533 0.958 . S
C1519 H1534 0.961 . S
C1519 H1535 0.960 . S
H1520 C1504 0.931 . S
H1521 C1509 0.929 . S
H1522 C1510 0.960 . S
H1523 C1510 0.962 . S
H1524 C1510 0.960 . S
H1525 C1511 0.961 . S
H1526 C1511 0.961 . S
H1527 C1511 0.961 . S
H1528 C1512 0.931 . S
H1529 C1517 0.930 . S
H1530 C1518 0.956 . S
H1531 C1518 0.961 . S
H1532 C1518 0.961 . S
H1533 C1519 0.958 . S
H1534 C1519 0.961 . S
H1535 C1519 0.960 . S
C1536 C1537 1.391 1_455 S
C1536 C1538 1.394 . S
C1536 H1552 0.931 . S
C1537 C1536 1.391 1_655 S
C1537 C1541 1.376 . S
C1538 C1536 1.394 . S
C1538 C1539 1.369 1_455 S
C1538 C1542 1.531 . S
C1539 C1538 1.369 1_655 S
C1539 C1540 1.410 . S
C1539 C1547 1.503 . S
C1540 C1539 1.410 . S
C1540 C1541 1.392 . S
C1540 C1543 1.511 . S
C1541 C1537 1.376 . S
C1541 C1540 1.392 . S
C1541 H1553 0.929 . S
C1542 C1538 1.531 . S
C1542 H1554 0.960 . S
C1542 H1555 0.962 . S
C1542 H1556 0.960 . S
C1543 C1540 1.511 . S
C1543 H1557 0.961 . S
C1543 H1558 0.961 . S
C1543 H1559 0.961 . S
C1544 C1545 1.353 1_655 S
C1544 C1546 1.363 . S
C1544 H1560 0.931 . S
C1545 C1544 1.353 1_455 S
C1545 C1549 1.426 . S
C1546 C1544 1.363 . S
C1546 C1547 1.370 . S
C1546 C1550 1.524 . S
C1547 C1539 1.503 . S
C1547 C1546 1.370 . S
C1547 C1548 1.403 1_655 S
C1548 C1547 1.403 1_455 S
C1548 C1549 1.404 . S
C1548 C1551 1.539 . S
C1549 C1545 1.426 . S
C1549 C1548 1.404 . S
C1549 H1561 0.930 . S
C1550 C1546 1.524 . S
C1550 H1562 0.956 . S
C1550 H1563 0.961 . S
C1550 H1564 0.961 . S
C1551 C1548 1.539 . S
C1551 H1565 0.958 . S
C1551 H1566 0.961 . S
C1551 H1567 0.960 . S
H1552 C1536 0.931 . S
H1553 C1541 0.929 . S
H1554 C1542 0.960 . S
H1555 C1542 0.962 . S
H1556 C1542 0.960 . S
H1557 C1543 0.961 . S
H1558 C1543 0.961 . S
H1559 C1543 0.961 . S
H1560 C1544 0.931 . S
H1561 C1549 0.930 . S
H1562 C1550 0.956 . S
H1563 C1550 0.961 . S
H1564 C1550 0.961 . S
H1565 C1551 0.958 . S
H1566 C1551 0.961 . S
H1567 C1551 0.960 . S
C1568 C1569 1.391 . S
C1568 C1570 1.394 . S
C1568 H1584 0.931 . S
C1569 C1568 1.391 . S
C1569 C1573 1.376 . S
C1570 C1568 1.394 . S
C1570 C1571 1.369 . S
C1570 C1574 1.531 . S
C1571 C1570 1.369 . S
C1571 C1572 1.410 . S
C1571 C1579 1.503 . S
C1572 C1571 1.410 . S
C1572 C1573 1.392 . S
C1572 C1575 1.511 . S
C1573 C1569 1.376 . S
C1573 C1572 1.392 . S
C1573 H1585 0.929 . S
C1574 C1570 1.531 . S
C1574 H1586 0.960 . S
C1574 H1587 0.962 . S
C1574 H1588 0.960 . S
C1575 C1572 1.511 . S
C1575 H1589 0.961 . S
C1575 H1590 0.961 . S
C1575 H1591 0.961 . S
C1576 C1577 1.370 . S
C1576 C1578 1.363 . S
C1576 H1592 0.931 . S
C1577 C1576 1.370 . S
C1577 C1581 1.408 . S
C1578 C1576 1.363 . S
C1578 C1579 1.370 . S
C1578 C1582 1.524 . S
C1579 C1571 1.503 . S
C1579 C1578 1.370 . S
C1579 C1580 1.403 . S
C1580 C1579 1.403 . S
C1580 C1581 1.404 . S
C1580 C1583 1.539 . S
C1581 C1577 1.408 . S
C1581 C1580 1.404 . S
C1581 H1593 0.930 . S
C1582 C1578 1.524 . S
C1582 H1594 0.956 . S
C1582 H1595 0.961 . S
C1582 H1596 0.961 . S
C1583 C1580 1.539 . S
C1583 H1597 0.958 . S
C1583 H1598 0.961 . S
C1583 H1599 0.960 . S
H1584 C1568 0.931 . S
H1585 C1573 0.929 . S
H1586 C1574 0.960 . S
H1587 C1574 0.962 . S
H1588 C1574 0.960 . S
H1589 C1575 0.961 . S
H1590 C1575 0.961 . S
H1591 C1575 0.961 . S
H1592 C1576 0.931 . S
H1593 C1581 0.930 . S
H1594 C1582 0.956 . S
H1595 C1582 0.961 . S
H1596 C1582 0.961 . S
H1597 C1583 0.958 . S
H1598 C1583 0.961 . S
H1599 C1583 0.960 . S
C1600 C1601 1.391 . S
C1600 C1602 1.394 . S
C1600 H1616 0.931 . S
C1601 C1600 1.391 . S
C1601 C1605 1.376 . S
C1602 C1600 1.394 . S
C1602 C1603 1.369 . S
C1602 C1606 1.531 . S
C1603 C1602 1.369 . S
C1603 C1604 1.410 . S
C1603 C1611 1.503 . S
C1604 C1603 1.410 . S
C1604 C1605 1.392 . S
C1604 C1607 1.511 . S
C1605 C1601 1.376 . S
C1605 C1604 1.392 . S
C1605 H1617 0.929 . S
C1606 C1602 1.531 . S
C1606 H1618 0.960 . S
C1606 H1619 0.962 . S
C1606 H1620 0.960 . S
C1607 C1604 1.511 . S
C1607 H1621 0.961 . S
C1607 H1622 0.961 . S
C1607 H1623 0.961 . S
C1608 C1609 1.370 . S
C1608 C1610 1.363 . S
C1608 H1624 0.931 . S
C1609 C1608 1.370 . S
C1609 C1613 1.408 . S
C1610 C1608 1.363 . S
C1610 C1611 1.370 . S
C1610 C1614 1.524 . S
C1611 C1603 1.503 . S
C1611 C1610 1.370 . S
C1611 C1612 1.403 . S
C1612 C1611 1.403 . S
C1612 C1613 1.404 . S
C1612 C1615 1.539 . S
C1613 C1609 1.408 . S
C1613 C1612 1.404 . S
C1613 H1625 0.930 . S
C1614 C1610 1.524 . S
C1614 H1626 0.956 . S
C1614 H1627 0.961 . S
C1614 H1628 0.961 . S
C1615 C1612 1.539 . S
C1615 H1629 0.958 . S
C1615 H1630 0.961 . S
C1615 H1631 0.960 . S
H1616 C1600 0.931 . S
H1617 C1605 0.929 . S
H1618 C1606 0.960 . S
H1619 C1606 0.962 . S
H1620 C1606 0.960 . S
H1621 C1607 0.961 . S
H1622 C1607 0.961 . S
H1623 C1607 0.961 . S
H1624 C1608 0.931 . S
H1625 C1613 0.930 . S
H1626 C1614 0.956 . S
H1627 C1614 0.961 . S
H1628 C1614 0.961 . S
H1629 C1615 0.958 . S
H1630 C1615 0.961 . S
H1631 C1615 0.960 . S
C1632 C1633 1.391 1_554 S
C1632 C1634 1.394 . S
C1632 H1648 0.931 . S
C1633 C1632 1.391 1_556 S
C1633 C1637 1.376 . S
C1634 C1632 1.394 . S
C1634 C1635 1.369 1_554 S
C1634 C1638 1.531 . S
C1635 C1634 1.369 1_556 S
C1635 C1636 1.410 . S
C1635 C1643 1.508 . S
C1636 C1635 1.410 . S
C1636 C1637 1.392 . S
C1636 C1639 1.511 . S
C1637 C1633 1.376 . S
C1637 C1636 1.392 . S
C1637 H1649 0.929 . S
C1638 C1634 1.531 . S
C1638 H1650 0.960 . S
C1638 H1651 0.962 . S
C1638 H1652 0.960 . S
C1639 C1636 1.511 . S
C1639 H1653 0.961 . S
C1639 H1654 0.961 . S
C1639 H1655 0.961 . S
C1640 C1641 1.370 1_556 S
C1640 C1642 1.363 . S
C1640 H1656 0.931 . S
C1641 C1640 1.370 1_554 S
C1641 C1645 1.408 . S
C1642 C1640 1.363 . S
C1642 C1643 1.386 . S
C1642 C1646 1.524 . S
C1643 C1635 1.508 . S
C1643 C1642 1.386 . S
C1643 C1644 1.383 1_556 S
C1644 C1643 1.383 1_554 S
C1644 C1645 1.404 . S
C1644 C1647 1.539 . S
C1645 C1641 1.408 . S
C1645 C1644 1.404 . S
C1645 H1657 0.930 . S
C1646 C1642 1.524 . S
C1646 H1658 0.956 . S
C1646 H1659 0.961 . S
C1646 H1660 0.961 . S
C1647 C1644 1.539 . S
C1647 H1661 0.958 . S
C1647 H1662 0.961 . S
C1647 H1663 0.960 . S
H1648 C1632 0.931 . S
H1649 C1637 0.929 . S
H1650 C1638 0.960 . S
H1651 C1638 0.962 . S
H1652 C1638 0.960 . S
H1653 C1639 0.961 . S
H1654 C1639 0.961 . S
H1655 C1639 0.961 . S
H1656 C1640 0.931 . S
H1657 C1645 0.930 . S
H1658 C1646 0.956 . S
H1659 C1646 0.961 . S
H1660 C1646 0.961 . S
H1661 C1647 0.958 . S
H1662 C1647 0.961 . S
H1663 C1647 0.960 . S
C1664 C1665 1.391 . S
C1664 C1666 1.394 . S
C1664 H1680 0.931 . S
C1665 C1664 1.391 . S
C1665 C1669 1.376 . S
C1666 C1664 1.394 . S
C1666 C1667 1.369 . S
C1666 C1670 1.531 . S
C1667 C1666 1.369 . S
C1667 C1668 1.410 . S
C1667 C1675 1.503 . S
C1668 C1667 1.410 . S
C1668 C1669 1.392 . S
C1668 C1671 1.511 . S
C1669 C1665 1.376 . S
C1669 C1668 1.392 . S
C1669 H1681 0.929 . S
C1670 C1666 1.531 . S
C1670 H1682 0.960 . S
C1670 H1683 0.962 . S
C1670 H1684 0.960 . S
C1671 C1668 1.511 . S
C1671 H1685 0.961 . S
C1671 H1686 0.961 . S
C1671 H1687 0.961 . S
C1672 C1673 1.370 . S
C1672 C1674 1.363 . S
C1672 H1688 0.931 . S
C1673 C1672 1.370 . S
C1673 C1677 1.408 . S
C1674 C1672 1.363 . S
C1674 C1675 1.370 . S
C1674 C1678 1.524 . S
C1675 C1667 1.503 . S
C1675 C1674 1.370 . S
C1675 C1676 1.403 . S
C1676 C1675 1.403 . S
C1676 C1677 1.404 . S
C1676 C1679 1.539 . S
C1677 C1673 1.408 . S
C1677 C1676 1.404 . S
C1677 H1689 0.930 . S
C1678 C1674 1.524 . S
C1678 H1690 0.956 . S
C1678 H1691 0.961 . S
C1678 H1692 0.961 . S
C1679 C1676 1.539 . S
C1679 H1693 0.958 . S
C1679 H1694 0.961 . S
C1679 H1695 0.960 . S
H1680 C1664 0.931 . S
H1681 C1669 0.929 . S
H1682 C1670 0.960 . S
H1683 C1670 0.962 . S
H1684 C1670 0.960 . S
H1685 C1671 0.961 . S
H1686 C1671 0.961 . S
H1687 C1671 0.961 . S
H1688 C1672 0.931 . S
H1689 C1677 0.930 . S
H1690 C1678 0.956 . S
H1691 C1678 0.961 . S
H1692 C1678 0.961 . S
H1693 C1679 0.958 . S
H1694 C1679 0.961 . S
H1695 C1679 0.960 . S
C1696 C1697 1.391 . S
C1696 C1698 1.394 . S
C1696 H1712 0.931 . S
C1697 C1696 1.391 . S
C1697 C1701 1.376 . S
C1698 C1696 1.394 . S
C1698 C1699 1.369 . S
C1698 C1702 1.531 . S
C1699 C1698 1.369 . S
C1699 C1700 1.410 . S
C1699 C1707 1.503 . S
C1700 C1699 1.410 . S
C1700 C1701 1.392 . S
C1700 C1703 1.511 . S
C1701 C1697 1.376 . S
C1701 C1700 1.392 . S
C1701 H1713 0.929 . S
C1702 C1698 1.531 . S
C1702 H1714 0.960 . S
C1702 H1715 0.962 . S
C1702 H1716 0.960 . S
C1703 C1700 1.511 . S
C1703 H1717 0.961 . S
C1703 H1718 0.961 . S
C1703 H1719 0.961 . S
C1704 C1705 1.370 . S
C1704 C1706 1.363 . S
C1704 H1720 0.931 . S
C1705 C1704 1.370 . S
C1705 C1709 1.408 . S
C1706 C1704 1.363 . S
C1706 C1707 1.370 . S
C1706 C1710 1.524 . S
C1707 C1699 1.503 . S
C1707 C1706 1.370 . S
C1707 C1708 1.403 . S
C1708 C1707 1.403 . S
C1708 C1709 1.404 . S
C1708 C1711 1.539 . S
C1709 C1705 1.408 . S
C1709 C1708 1.404 . S
C1709 H1721 0.930 . S
C1710 C1706 1.524 . S
C1710 H1722 0.956 . S
C1710 H1723 0.961 . S
C1710 H1724 0.961 . S
C1711 C1708 1.539 . S
C1711 H1725 0.958 . S
C1711 H1726 0.961 . S
C1711 H1727 0.960 . S
H1712 C1696 0.931 . S
H1713 C1701 0.929 . S
H1714 C1702 0.960 . S
H1715 C1702 0.962 . S
H1716 C1702 0.960 . S
H1717 C1703 0.961 . S
H1718 C1703 0.961 . S
H1719 C1703 0.961 . S
H1720 C1704 0.931 . S
H1721 C1709 0.930 . S
H1722 C1710 0.956 . S
H1723 C1710 0.961 . S
H1724 C1710 0.961 . S
H1725 C1711 0.958 . S
H1726 C1711 0.961 . S
H1727 C1711 0.960 . S
C1728 C1729 1.391 . S
C1728 C1730 1.394 . S
C1728 H1744 0.931 . S
C1729 C1728 1.391 . S
C1729 C1733 1.376 . S
C1730 C1728 1.394 . S
C1730 C1731 1.369 . S
C1730 C1734 1.531 . S
C1731 C1730 1.369 . S
C1731 C1732 1.410 . S
C1731 C1739 1.503 . S
C1732 C1731 1.410 . S
C1732 C1733 1.392 . S
C1732 C1735 1.511 . S
C1733 C1729 1.376 . S
C1733 C1732 1.392 . S
C1733 H1745 0.929 . S
C1734 C1730 1.531 . S
C1734 H1746 0.960 . S
C1734 H1747 0.962 . S
C1734 H1748 0.960 . S
C1735 C1732 1.511 . S
C1735 H1749 0.961 . S
C1735 H1750 0.961 . S
C1735 H1751 0.961 . S
C1736 C1737 1.370 . S
C1736 C1738 1.363 . S
C1736 H1752 0.931 . S
C1737 C1736 1.370 . S
C1737 C1741 1.408 . S
C1738 C1736 1.363 . S
C1738 C1739 1.370 . S
C1738 C1742 1.524 . S
C1739 C1731 1.503 . S
C1739 C1738 1.370 . S
C1739 C1740 1.403 . S
C1740 C1739 1.403 . S
C1740 C1741 1.404 . S
C1740 C1743 1.539 . S
C1741 C1737 1.408 . S
C1741 C1740 1.404 . S
C1741 H1753 0.930 . S
C1742 C1738 1.524 . S
C1742 H1754 0.956 . S
C1742 H1755 0.961 . S
C1742 H1756 0.961 . S
C1743 C1740 1.539 . S
C1743 H1757 0.958 . S
C1743 H1758 0.961 . S
C1743 H1759 0.960 . S
H1744 C1728 0.931 . S
H1745 C1733 0.929 . S
H1746 C1734 0.960 . S
H1747 C1734 0.962 . S
H1748 C1734 0.960 . S
H1749 C1735 0.961 . S
H1750 C1735 0.961 . S
H1751 C1735 0.961 . S
H1752 C1736 0.931 . S
H1753 C1741 0.930 . S
H1754 C1742 0.956 . S
H1755 C1742 0.961 . S
H1756 C1742 0.961 . S
H1757 C1743 0.958 . S
H1758 C1743 0.961 . S
H1759 C1743 0.960 . S
C1760 C1761 1.391 . S
C1760 C1762 1.394 . S
C1760 H1776 0.931 . S
C1761 C1760 1.391 . S
C1761 C1765 1.376 . S
C1762 C1760 1.394 . S
C1762 C1763 1.369 . S
C1762 C1766 1.531 . S
C1763 C1762 1.369 . S
C1763 C1764 1.410 . S
C1763 C1771 1.503 . S
C1764 C1763 1.410 . S
C1764 C1765 1.392 . S
C1764 C1767 1.511 . S
C1765 C1761 1.376 . S
C1765 C1764 1.392 . S
C1765 H1777 0.929 . S
C1766 C1762 1.531 . S
C1766 H1778 0.960 . S
C1766 H1779 0.962 . S
C1766 H1780 0.960 . S
C1767 C1764 1.511 . S
C1767 H1781 0.961 . S
C1767 H1782 0.961 . S
C1767 H1783 0.961 . S
C1768 C1769 1.370 . S
C1768 C1770 1.363 . S
C1768 H1784 0.931 . S
C1769 C1768 1.370 . S
C1769 C1773 1.408 . S
C1770 C1768 1.363 . S
C1770 C1771 1.370 . S
C1770 C1774 1.524 . S
C1771 C1763 1.503 . S
C1771 C1770 1.370 . S
C1771 C1772 1.403 . S
C1772 C1771 1.403 . S
C1772 C1773 1.404 . S
C1772 C1775 1.539 . S
C1773 C1769 1.408 . S
C1773 C1772 1.404 . S
C1773 H1785 0.930 . S
C1774 C1770 1.524 . S
C1774 H1786 0.956 . S
C1774 H1787 0.961 . S
C1774 H1788 0.961 . S
C1775 C1772 1.539 . S
C1775 H1789 0.958 . S
C1775 H1790 0.961 . S
C1775 H1791 0.960 . S
H1776 C1760 0.931 . S
H1777 C1765 0.929 . S
H1778 C1766 0.960 . S
H1779 C1766 0.962 . S
H1780 C1766 0.960 . S
H1781 C1767 0.961 . S
H1782 C1767 0.961 . S
H1783 C1767 0.961 . S
H1784 C1768 0.931 . S
H1785 C1773 0.930 . S
H1786 C1774 0.956 . S
H1787 C1774 0.961 . S
H1788 C1774 0.961 . S
H1789 C1775 0.958 . S
H1790 C1775 0.961 . S
H1791 C1775 0.960 . S
C1792 C1793 1.391 . S
C1792 C1794 1.394 . S
C1792 H1808 0.931 . S
C1793 C1792 1.391 . S
C1793 C1797 1.376 . S
C1794 C1792 1.394 . S
C1794 C1795 1.369 . S
C1794 C1798 1.531 . S
C1795 C1794 1.369 . S
C1795 C1796 1.410 . S
C1795 C1803 1.503 . S
C1796 C1795 1.410 . S
C1796 C1797 1.392 . S
C1796 C1799 1.511 . S
C1797 C1793 1.376 . S
C1797 C1796 1.392 . S
C1797 H1809 0.929 . S
C1798 C1794 1.531 . S
C1798 H1810 0.960 . S
C1798 H1811 0.962 . S
C1798 H1812 0.960 . S
C1799 C1796 1.511 . S
C1799 H1813 0.961 . S
C1799 H1814 0.961 . S
C1799 H1815 0.961 . S
C1800 C1801 1.370 . S
C1800 C1802 1.363 . S
C1800 H1816 0.931 . S
C1801 C1800 1.370 . S
C1801 C1805 1.408 . S
C1802 C1800 1.363 . S
C1802 C1803 1.370 . S
C1802 C1806 1.524 . S
C1803 C1795 1.503 . S
C1803 C1802 1.370 . S
C1803 C1804 1.403 . S
C1804 C1803 1.403 . S
C1804 C1805 1.404 . S
C1804 C1807 1.539 . S
C1805 C1801 1.408 . S
C1805 C1804 1.404 . S
C1805 H1817 0.930 . S
C1806 C1802 1.524 . S
C1806 H1818 0.956 . S
C1806 H1819 0.961 . S
C1806 H1820 0.961 . S
C1807 C1804 1.539 . S
C1807 H1821 0.958 . S
C1807 H1822 0.961 . S
C1807 H1823 0.960 . S
H1808 C1792 0.931 . S
H1809 C1797 0.929 . S
H1810 C1798 0.960 . S
H1811 C1798 0.962 . S
H1812 C1798 0.960 . S
H1813 C1799 0.961 . S
H1814 C1799 0.961 . S
H1815 C1799 0.961 . S
H1816 C1800 0.931 . S
H1817 C1805 0.930 . S
H1818 C1806 0.956 . S
H1819 C1806 0.961 . S
H1820 C1806 0.961 . S
H1821 C1807 0.958 . S
H1822 C1807 0.961 . S
H1823 C1807 0.960 . S
C1824 C1825 1.391 . S
C1824 C1826 1.394 . S
C1824 H1840 0.931 . S
C1825 C1824 1.391 . S
C1825 C1829 1.376 . S
C1826 C1824 1.394 . S
C1826 C1827 1.369 . S
C1826 C1830 1.531 . S
C1827 C1826 1.369 . S
C1827 C1828 1.410 . S
C1827 C1835 1.503 . S
C1828 C1827 1.410 . S
C1828 C1829 1.392 . S
C1828 C1831 1.511 . S
C1829 C1825 1.376 . S
C1829 C1828 1.392 . S
C1829 H1841 0.929 . S
C1830 C1826 1.531 . S
C1830 H1842 0.960 . S
C1830 H1843 0.962 . S
C1830 H1844 0.960 . S
C1831 C1828 1.511 . S
C1831 H1845 0.961 . S
C1831 H1846 0.961 . S
C1831 H1847 0.961 . S
C1832 C1833 1.370 . S
C1832 C1834 1.363 . S
C1832 H1848 0.931 . S
C1833 C1832 1.370 . S
C1833 C1837 1.408 . S
C1834 C1832 1.363 . S
C1834 C1835 1.370 . S
C1834 C1838 1.524 . S
C1835 C1827 1.503 . S
C1835 C1834 1.370 . S
C1835 C1836 1.403 . S
C1836 C1835 1.403 . S
C1836 C1837 1.404 . S
C1836 C1839 1.539 . S
C1837 C1833 1.408 . S
C1837 C1836 1.404 . S
C1837 H1849 0.930 . S
C1838 C1834 1.524 . S
C1838 H1850 0.956 . S
C1838 H1851 0.961 . S
C1838 H1852 0.961 . S
C1839 C1836 1.539 . S
C1839 H1853 0.958 . S
C1839 H1854 0.961 . S
C1839 H1855 0.960 . S
H1840 C1824 0.931 . S
H1841 C1829 0.929 . S
H1842 C1830 0.960 . S
H1843 C1830 0.962 . S
H1844 C1830 0.960 . S
H1845 C1831 0.961 . S
H1846 C1831 0.961 . S
H1847 C1831 0.961 . S
H1848 C1832 0.931 . S
H1849 C1837 0.930 . S
H1850 C1838 0.956 . S
H1851 C1838 0.961 . S
H1852 C1838 0.961 . S
H1853 C1839 0.958 . S
H1854 C1839 0.961 . S
H1855 C1839 0.960 . S
C1856 C1857 1.391 . S
C1856 C1858 1.394 . S
C1856 H1872 0.931 . S
C1857 C1856 1.391 . S
C1857 C1861 1.376 . S
C1858 C1856 1.394 . S
C1858 C1859 1.369 . S
C1858 C1862 1.531 . S
C1859 C1858 1.369 . S
C1859 C1860 1.410 . S
C1859 C1867 1.503 . S
C1860 C1859 1.410 . S
C1860 C1861 1.392 . S
C1860 C1863 1.511 . S
C1861 C1857 1.376 . S
C1861 C1860 1.392 . S
C1861 H1873 0.929 . S
C1862 C1858 1.531 . S
C1862 H1874 0.960 . S
C1862 H1875 0.962 . S
C1862 H1876 0.960 . S
C1863 C1860 1.511 . S
C1863 H1877 0.961 1_545 S
C1863 H1878 0.961 1_545 S
C1863 H1879 0.961 . S
C1864 C1865 1.370 1_565 S
C1864 C1866 1.363 . S
C1864 H1880 0.931 . S
C1865 C1864 1.370 1_545 S
C1865 C1869 1.408 . S
C1866 C1864 1.363 . S
C1866 C1867 1.370 1_565 S
C1866 C1870 1.524 . S
C1867 C1859 1.503 . S
C1867 C1866 1.370 1_545 S
C1867 C1868 1.403 . S
C1868 C1867 1.403 . S
C1868 C1869 1.404 . S
C1868 C1871 1.539 . S
C1869 C1865 1.408 . S
C1869 C1868 1.404 . S
C1869 H1881 0.930 . S
C1870 C1866 1.524 . S
C1870 H1882 0.956 . S
C1870 H1883 0.961 . S
C1870 H1884 0.961 . S
C1871 C1868 1.539 . S
C1871 H1885 0.958 . S
C1871 H1886 0.961 . S
C1871 H1887 0.960 . S
H1872 C1856 0.931 . S
H1873 C1861 0.929 . S
H1874 C1862 0.960 . S
H1875 C1862 0.962 . S
H1876 C1862 0.960 . S
H1877 C1863 0.961 1_565 S
H1878 C1863 0.961 1_565 S
H1879 C1863 0.961 . S
H1880 C1864 0.931 . S
H1881 C1869 0.930 . S
H1882 C1870 0.956 . S
H1883 C1870 0.961 . S
H1884 C1870 0.961 . S
H1885 C1871 0.958 . S
H1886 C1871 0.961 . S
H1887 C1871 0.960 . S
C1888 C1889 1.391 . S
C1888 C1890 1.394 . S
C1888 H1904 0.931 . S
C1889 C1888 1.391 . S
C1889 C1893 1.376 . S
C1890 C1888 1.394 . S
C1890 C1891 1.369 . S
C1890 C1894 1.531 . S
C1891 C1890 1.369 . S
C1891 C1892 1.410 . S
C1891 C1899 1.503 . S
C1892 C1891 1.410 . S
C1892 C1893 1.392 . S
C1892 C1895 1.511 . S
C1893 C1889 1.376 . S
C1893 C1892 1.392 . S
C1893 H1905 0.929 . S
C1894 C1890 1.531 . S
C1894 H1906 0.960 . S
C1894 H1907 0.962 . S
C1894 H1908 0.960 . S
C1895 C1892 1.511 . S
C1895 H1909 0.961 . S
C1895 H1910 0.961 . S
C1895 H1911 0.961 . S
C1896 C1897 1.370 . S
C1896 C1898 1.363 . S
C1896 H1912 0.931 . S
C1897 C1896 1.370 . S
C1897 C1901 1.408 . S
C1898 C1896 1.363 . S
C1898 C1899 1.370 . S
C1898 C1902 1.524 . S
C1899 C1891 1.503 . S
C1899 C1898 1.370 . S
C1899 C1900 1.403 . S
C1900 C1899 1.403 . S
C1900 C1901 1.404 . S
C1900 C1903 1.539 . S
C1901 C1897 1.408 . S
C1901 C1900 1.404 . S
C1901 H1913 0.930 . S
C1902 C1898 1.524 . S
C1902 H1914 0.956 . S
C1902 H1915 0.961 . S
C1902 H1916 0.961 . S
C1903 C1900 1.539 . S
C1903 H1917 0.958 . S
C1903 H1918 0.961 . S
C1903 H1919 0.960 . S
H1904 C1888 0.931 . S
H1905 C1893 0.929 . S
H1906 C1894 0.960 . S
H1907 C1894 0.962 . S
H1908 C1894 0.960 . S
H1909 C1895 0.961 . S
H1910 C1895 0.961 . S
H1911 C1895 0.961 . S
H1912 C1896 0.931 . S
H1913 C1901 0.930 . S
H1914 C1902 0.956 . S
H1915 C1902 0.961 . S
H1916 C1902 0.961 . S
H1917 C1903 0.958 . S
H1918 C1903 0.961 . S
H1919 C1903 0.960 . S
C1920 C1921 1.391 . S
C1920 C1922 1.394 . S
C1920 H1936 0.931 . S
C1921 C1920 1.391 . S
C1921 C1925 1.376 . S
C1922 C1920 1.394 . S
C1922 C1923 1.369 . S
C1922 C1926 1.531 . S
C1923 C1922 1.369 . S
C1923 C1924 1.410 . S
C1923 C1931 1.503 . S
C1924 C1923 1.410 . S
C1924 C1925 1.392 . S
C1924 C1927 1.511 . S
C1925 C1921 1.376 . S
C1925 C1924 1.392 . S
C1925 H1937 0.929 . S
C1926 C1922 1.531 . S
C1926 H1938 0.960 . S
C1926 H1939 0.962 . S
C1926 H1940 0.960 . S
C1927 C1924 1.511 . S
C1927 H1941 0.961 . S
C1927 H1942 0.961 . S
C1927 H1943 0.961 . S
C1928 C1929 1.370 . S
C1928 C1930 1.363 . S
C1928 H1944 0.931 . S
C1929 C1928 1.370 . S
C1929 C1933 1.408 . S
C1930 C1928 1.363 . S
C1930 C1931 1.370 . S
C1930 C1934 1.524 . S
C1931 C1923 1.503 . S
C1931 C1930 1.370 . S
C1931 C1932 1.403 . S
C1932 C1931 1.403 . S
C1932 C1933 1.404 . S
C1932 C1935 1.539 . S
C1933 C1929 1.408 . S
C1933 C1932 1.404 . S
C1933 H1945 0.930 . S
C1934 C1930 1.524 . S
C1934 H1946 0.956 . S
C1934 H1947 0.961 . S
C1934 H1948 0.961 . S
C1935 C1932 1.539 . S
C1935 H1949 0.958 . S
C1935 H1950 0.961 . S
C1935 H1951 0.960 . S
H1936 C1920 0.931 . S
H1937 C1925 0.929 . S
H1938 C1926 0.960 . S
H1939 C1926 0.962 . S
H1940 C1926 0.960 . S
H1941 C1927 0.961 . S
H1942 C1927 0.961 . S
H1943 C1927 0.961 . S
H1944 C1928 0.931 . S
H1945 C1933 0.930 . S
H1946 C1934 0.956 . S
H1947 C1934 0.961 . S
H1948 C1934 0.961 . S
H1949 C1935 0.958 . S
H1950 C1935 0.961 . S
H1951 C1935 0.960 . S
C1952 C1953 1.391 . S
C1952 C1954 1.394 . S
C1952 H1968 0.931 . S
C1953 C1952 1.391 . S
C1953 C1957 1.376 . S
C1954 C1952 1.394 . S
C1954 C1955 1.369 . S
C1954 C1958 1.531 . S
C1955 C1954 1.369 . S
C1955 C1956 1.410 . S
C1955 C1963 1.503 . S
C1956 C1955 1.410 . S
C1956 C1957 1.392 . S
C1956 C1959 1.511 . S
C1957 C1953 1.376 . S
C1957 C1956 1.392 . S
C1957 H1969 0.929 . S
C1958 C1954 1.531 . S
C1958 H1970 0.960 . S
C1958 H1971 0.962 . S
C1958 H1972 0.960 . S
C1959 C1956 1.511 . S
C1959 H1973 0.961 . S
C1959 H1974 0.961 . S
C1959 H1975 0.961 . S
C1960 C1961 1.370 . S
C1960 C1962 1.363 . S
C1960 H1976 0.931 . S
C1961 C1960 1.370 . S
C1961 C1965 1.408 . S
C1962 C1960 1.363 . S
C1962 C1963 1.370 . S
C1962 C1966 1.524 . S
C1963 C1955 1.503 . S
C1963 C1962 1.370 . S
C1963 C1964 1.403 . S
C1964 C1963 1.403 . S
C1964 C1965 1.404 . S
C1964 C1967 1.539 . S
C1965 C1961 1.408 . S
C1965 C1964 1.404 . S
C1965 H1977 0.930 . S
C1966 C1962 1.524 . S
C1966 H1978 0.956 . S
C1966 H1979 0.961 . S
C1966 H1980 0.961 . S
C1967 C1964 1.539 . S
C1967 H1981 0.958 . S
C1967 H1982 0.961 . S
C1967 H1983 0.960 . S
H1968 C1952 0.931 . S
H1969 C1957 0.929 . S
H1970 C1958 0.960 . S
H1971 C1958 0.962 . S
H1972 C1958 0.960 . S
H1973 C1959 0.961 . S
H1974 C1959 0.961 . S
H1975 C1959 0.961 . S
H1976 C1960 0.931 . S
H1977 C1965 0.930 . S
H1978 C1966 0.956 . S
H1979 C1966 0.961 . S
H1980 C1966 0.961 . S
H1981 C1967 0.958 . S
H1982 C1967 0.961 . S
H1983 C1967 0.960 . S
C1984 C1985 1.391 . S
C1984 C1986 1.394 . S
C1984 H2000 0.931 . S
C1985 C1984 1.391 . S
C1985 C1989 1.376 . S
C1986 C1984 1.394 . S
C1986 C1987 1.369 . S
C1986 C1990 1.531 . S
C1987 C1986 1.369 . S
C1987 C1988 1.410 . S
C1987 C1995 1.503 . S
C1988 C1987 1.410 . S
C1988 C1989 1.392 . S
C1988 C1991 1.533 . S
C1989 C1985 1.376 . S
C1989 C1988 1.392 . S
C1989 H2001 0.929 . S
C1990 C1986 1.531 . S
C1990 H2002 0.960 . S
C1990 H2003 0.962 . S
C1990 H2004 0.960 . S
C1991 C1988 1.533 . S
C1991 H2005 0.929 1_545 S
C1991 H2006 0.943 1_545 S
C1991 H2007 0.990 . S
C1992 C1993 1.394 . S
C1992 C1994 1.369 . S
C1992 H2008 0.902 1_545 S
C1993 C1992 1.394 . S
C1993 C1997 1.408 . S
C1994 C1992 1.369 . S
C1994 C1995 1.370 . S
C1994 C1998 1.524 1_545 S
C1995 C1987 1.503 . S
C1995 C1994 1.370 . S
C1995 C1996 1.403 . S
C1996 C1995 1.403 . S
C1996 C1997 1.404 . S
C1996 C1999 1.539 . S
C1997 C1993 1.408 . S
C1997 C1996 1.404 . S
C1997 H2009 0.930 . S
C1998 C1994 1.524 1_565 S
C1998 H2010 0.956 . S
C1998 H2011 0.961 . S
C1998 H2012 0.961 . S
C1999 C1996 1.539 . S
C1999 H2013 0.958 . S
C1999 H2014 0.961 . S
C1999 H2015 0.960 . S
H2000 C1984 0.931 . S
H2001 C1989 0.929 . S
H2002 C1990 0.960 . S
H2003 C1990 0.962 . S
H2004 C1990 0.960 . S
H2005 C1991 0.929 1_565 S
H2006 C1991 0.943 1_565 S
H2007 C1991 0.990 . S
H2008 C1992 0.902 1_565 S
H2009 C1997 0.930 . S
H2010 C1998 0.956 . S
H2011 C1998 0.961 . S
H2012 C1998 0.961 . S
H2013 C1999 0.958 . S
H2014 C1999 0.961 . S
H2015 C1999 0.960 . S
C2016 C2017 1.391 . S
C2016 C2018 1.394 . S
C2016 H2032 0.931 . S
C2017 C2016 1.391 . S
C2017 C2021 1.376 . S
C2018 C2016 1.394 . S
C2018 C2019 1.369 . S
C2018 C2022 1.531 . S
C2019 C2018 1.369 . S
C2019 C2020 1.410 . S
C2019 C2027 1.503 . S
C2020 C2019 1.410 . S
C2020 C2021 1.392 . S
C2020 C2023 1.511 . S
C2021 C2017 1.376 . S
C2021 C2020 1.392 . S
C2021 H2033 0.929 . S
C2022 C2018 1.531 . S
C2022 H2034 0.960 . S
C2022 H2035 0.962 . S
C2022 H2036 0.960 . S
C2023 C2020 1.511 . S
C2023 H2037 0.961 . S
C2023 H2038 0.961 . S
C2023 H2039 0.961 . S
C2024 C2025 1.370 . S
C2024 C2026 1.363 . S
C2024 H2040 0.931 . S
C2025 C2024 1.370 . S
C2025 C2029 1.408 . S
C2026 C2024 1.363 . S
C2026 C2027 1.370 . S
C2026 C2030 1.524 . S
C2027 C2019 1.503 . S
C2027 C2026 1.370 . S
C2027 C2028 1.403 . S
C2028 C2027 1.403 . S
C2028 C2029 1.404 . S
C2028 C2031 1.539 . S
C2029 C2025 1.408 . S
C2029 C2028 1.404 . S
C2029 H2041 0.930 . S
C2030 C2026 1.524 . S
C2030 H2042 0.956 . S
C2030 H2043 0.961 . S
C2030 H2044 0.961 . S
C2031 C2028 1.539 . S
C2031 H2045 0.958 . S
C2031 H2046 0.961 . S
C2031 H2047 0.960 . S
H2032 C2016 0.931 . S
H2033 C2021 0.929 . S
H2034 C2022 0.960 . S
H2035 C2022 0.962 . S
H2036 C2022 0.960 . S
H2037 C2023 0.961 . S
H2038 C2023 0.961 . S
H2039 C2023 0.961 . S
H2040 C2024 0.931 . S
H2041 C2029 0.930 . S
H2042 C2030 0.956 . S
H2043 C2030 0.961 . S
H2044 C2030 0.961 . S
H2045 C2031 0.958 . S
H2046 C2031 0.961 . S
H2047 C2031 0.960 . S
C2048 C2049 1.391 . S
C2048 C2050 1.394 . S
C2048 H2064 0.931 . S
C2049 C2048 1.391 . S
C2049 C2053 1.376 . S
C2050 C2048 1.394 . S
C2050 C2051 1.369 . S
C2050 C2054 1.531 . S
C2051 C2050 1.369 . S
C2051 C2052 1.410 . S
C2051 C2059 1.503 . S
C2052 C2051 1.410 . S
C2052 C2053 1.392 . S
C2052 C2055 1.511 . S
C2053 C2049 1.376 . S
C2053 C2052 1.392 . S
C2053 H2065 0.929 . S
C2054 C2050 1.531 . S
C2054 H2066 0.960 . S
C2054 H2067 0.962 . S
C2054 H2068 0.960 . S
C2055 C2052 1.511 . S
C2055 H2069 0.961 . S
C2055 H2070 0.961 . S
C2055 H2071 0.961 . S
C2056 C2057 1.370 . S
C2056 C2058 1.363 . S
C2056 H2072 0.931 . S
C2057 C2056 1.370 . S
C2057 C2061 1.408 . S
C2058 C2056 1.363 . S
C2058 C2059 1.370 . S
C2058 C2062 1.524 . S
C2059 C2051 1.503 . S
C2059 C2058 1.370 . S
C2059 C2060 1.403 . S
C2060 C2059 1.403 . S
C2060 C2061 1.404 . S
C2060 C2063 1.539 . S
C2061 C2057 1.408 . S
C2061 C2060 1.404 . S
C2061 H2073 0.930 . S
C2062 C2058 1.524 . S
C2062 H2074 0.956 . S
C2062 H2075 0.961 . S
C2062 H2076 0.961 . S
C2063 C2060 1.539 . S
C2063 H2077 0.958 . S
C2063 H2078 0.961 . S
C2063 H2079 0.960 . S
H2064 C2048 0.931 . S
H2065 C2053 0.929 . S
H2066 C2054 0.960 . S
H2067 C2054 0.962 . S
H2068 C2054 0.960 . S
H2069 C2055 0.961 . S
H2070 C2055 0.961 . S
H2071 C2055 0.961 . S
H2072 C2056 0.931 . S
H2073 C2061 0.930 . S
H2074 C2062 0.956 . S
H2075 C2062 0.961 . S
H2076 C2062 0.961 . S
H2077 C2063 0.958 . S
H2078 C2063 0.961 . S
H2079 C2063 0.960 . S
C2080 C2081 1.391 . S
C2080 C2082 1.394 . S
C2080 H2096 0.931 . S
C2081 C2080 1.391 . S
C2081 C2085 1.376 . S
C2082 C2080 1.394 . S
C2082 C2083 1.369 . S
C2082 C2086 1.531 . S
C2083 C2082 1.369 . S
C2083 C2084 1.410 . S
C2083 C2091 1.503 . S
C2084 C2083 1.410 . S
C2084 C2085 1.392 . S
C2084 C2087 1.511 . S
C2085 C2081 1.376 . S
C2085 C2084 1.392 . S
C2085 H2097 0.929 . S
C2086 C2082 1.531 . S
C2086 H2098 0.960 . S
C2086 H2099 0.962 . S
C2086 H2100 0.960 . S
C2087 C2084 1.511 . S
C2087 H2101 0.961 . S
C2087 H2102 0.961 . S
C2087 H2103 0.961 . S
C2088 C2089 1.370 . S
C2088 C2090 1.363 . S
C2088 H2104 0.931 . S
C2089 C2088 1.370 . S
C2089 C2093 1.408 . S
C2090 C2088 1.363 . S
C2090 C2091 1.370 . S
C2090 C2094 1.524 . S
C2091 C2083 1.503 . S
C2091 C2090 1.370 . S
C2091 C2092 1.403 . S
C2092 C2091 1.403 . S
C2092 C2093 1.404 . S
C2092 C2095 1.539 . S
C2093 C2089 1.408 . S
C2093 C2092 1.404 . S
C2093 H2105 0.930 . S
C2094 C2090 1.524 . S
C2094 H2106 0.956 . S
C2094 H2107 0.961 . S
C2094 H2108 0.961 . S
C2095 C2092 1.539 . S
C2095 H2109 0.958 . S
C2095 H2110 0.961 . S
C2095 H2111 0.960 . S
H2096 C2080 0.931 . S
H2097 C2085 0.929 . S
H2098 C2086 0.960 . S
H2099 C2086 0.962 . S
H2100 C2086 0.960 . S
H2101 C2087 0.961 . S
H2102 C2087 0.961 . S
H2103 C2087 0.961 . S
H2104 C2088 0.931 . S
H2105 C2093 0.930 . S
H2106 C2094 0.956 . S
H2107 C2094 0.961 . S
H2108 C2094 0.961 . S
H2109 C2095 0.958 . S
H2110 C2095 0.961 . S
H2111 C2095 0.960 . S
C2112 C2113 1.391 1_455 S
C2112 C2114 1.394 . S
C2112 H2128 0.931 . S
C2113 C2112 1.391 1_655 S
C2113 C2117 1.376 . S
C2114 C2112 1.394 . S
C2114 C2115 1.369 1_455 S
C2114 C2118 1.531 . S
C2115 C2114 1.369 1_655 S
C2115 C2116 1.410 . S
C2115 C2123 1.503 . S
C2116 C2115 1.410 . S
C2116 C2117 1.392 . S
C2116 C2119 1.511 . S
C2117 C2113 1.376 . S
C2117 C2116 1.392 . S
C2117 H2129 0.929 . S
C2118 C2114 1.531 . S
C2118 H2130 0.960 . S
C2118 H2131 0.962 . S
C2118 H2132 0.960 . S
C2119 C2116 1.511 . S
C2119 H2133 0.961 . S
C2119 H2134 0.961 . S
C2119 H2135 0.961 . S
C2120 C2121 1.370 . S
C2120 C2122 1.363 . S
C2120 H2136 0.931 . S
C2121 C2120 1.370 . S
C2121 C2125 1.408 1_655 S
C2122 C2120 1.363 . S
C2122 C2123 1.370 . S
C2122 C2126 1.524 . S
C2123 C2115 1.503 . S
C2123 C2122 1.370 . S
C2123 C2124 1.403 1_655 S
C2124 C2123 1.403 1_455 S
C2124 C2125 1.404 . S
C2124 C2127 1.539 . S
C2125 C2121 1.408 1_455 S
C2125 C2124 1.404 . S
C2125 H2137 0.930 . S
C2126 C2122 1.524 . S
C2126 H2138 0.956 . S
C2126 H2139 0.961 . S
C2126 H2140 0.961 . S
C2127 C2124 1.539 . S
C2127 H2141 0.958 . S
C2127 H2142 0.961 . S
C2127 H2143 0.960 . S
H2128 C2112 0.931 . S
H2129 C2117 0.929 . S
H2130 C2118 0.960 . S
H2131 C2118 0.962 . S
H2132 C2118 0.960 . S
H2133 C2119 0.961 . S
H2134 C2119 0.961 . S
H2135 C2119 0.961 . S
H2136 C2120 0.931 . S
H2137 C2125 0.930 . S
H2138 C2126 0.956 . S
H2139 C2126 0.961 . S
H2140 C2126 0.961 . S
H2141 C2127 0.958 . S
H2142 C2127 0.961 . S
H2143 C2127 0.960 . S
C2144 C2145 1.391 . S
C2144 C2146 1.394 . S
C2144 H2160 0.931 . S
C2145 C2144 1.391 . S
C2145 C2149 1.376 . S
C2146 C2144 1.394 . S
C2146 C2147 1.369 . S
C2146 C2150 1.531 . S
C2147 C2146 1.369 . S
C2147 C2148 1.410 . S
C2147 C2155 1.503 . S
C2148 C2147 1.410 . S
C2148 C2149 1.392 . S
C2148 C2151 1.511 . S
C2149 C2145 1.376 . S
C2149 C2148 1.392 . S
C2149 H2161 0.929 . S
C2150 C2146 1.531 . S
C2150 H2162 0.960 . S
C2150 H2163 0.962 . S
C2150 H2164 0.960 . S
C2151 C2148 1.511 . S
C2151 H2165 0.961 . S
C2151 H2166 0.961 . S
C2151 H2167 0.961 . S
C2152 C2153 1.370 . S
C2152 C2154 1.363 . S
C2152 H2168 0.931 . S
C2153 C2152 1.370 . S
C2153 C2157 1.408 . S
C2154 C2152 1.363 . S
C2154 C2155 1.370 . S
C2154 C2158 1.524 . S
C2155 C2147 1.503 . S
C2155 C2154 1.370 . S
C2155 C2156 1.403 . S
C2156 C2155 1.403 . S
C2156 C2157 1.404 . S
C2156 C2159 1.539 . S
C2157 C2153 1.408 . S
C2157 C2156 1.404 . S
C2157 H2169 0.930 . S
C2158 C2154 1.524 . S
C2158 H2170 0.956 . S
C2158 H2171 0.961 . S
C2158 H2172 0.961 . S
C2159 C2156 1.539 . S
C2159 H2173 0.958 . S
C2159 H2174 0.961 . S
C2159 H2175 0.960 . S
H2160 C2144 0.931 . S
H2161 C2149 0.929 . S
H2162 C2150 0.960 . S
H2163 C2150 0.962 . S
H2164 C2150 0.960 . S
H2165 C2151 0.961 . S
H2166 C2151 0.961 . S
H2167 C2151 0.961 . S
H2168 C2152 0.931 . S
H2169 C2157 0.930 . S
H2170 C2158 0.956 . S
H2171 C2158 0.961 . S
H2172 C2158 0.961 . S
H2173 C2159 0.958 . S
H2174 C2159 0.961 . S
H2175 C2159 0.960 . S
C2176 C2177 1.391 . S
C2176 C2178 1.394 . S
C2176 H2192 0.931 . S
C2177 C2176 1.391 . S
C2177 C2181 1.376 . S
C2178 C2176 1.394 . S
C2178 C2179 1.369 . S
C2178 C2182 1.531 . S
C2179 C2178 1.369 . S
C2179 C2180 1.410 1_455 S
C2179 C2187 1.503 . S
C2180 C2179 1.410 1_655 S
C2180 C2181 1.392 1_655 S
C2180 C2183 1.511 . S
C2181 C2177 1.376 . S
C2181 C2180 1.392 1_455 S
C2181 H2193 0.929 1_455 S
C2182 C2178 1.531 . S
C2182 H2194 0.960 . S
C2182 H2195 0.962 . S
C2182 H2196 0.960 . S
C2183 C2180 1.511 . S
C2183 H2197 0.961 . S
C2183 H2198 0.961 . S
C2183 H2199 0.961 . S
C2184 C2185 1.370 . S
C2184 C2186 1.363 . S
C2184 H2200 0.931 . S
C2185 C2184 1.370 . S
C2185 C2189 1.424 . S
C2186 C2184 1.363 . S
C2186 C2187 1.370 . S
C2186 C2190 1.524 . S
C2187 C2179 1.503 . S
C2187 C2186 1.370 . S
C2187 C2188 1.403 . S
C2188 C2187 1.403 . S
C2188 C2189 1.412 . S
C2188 C2191 1.539 1_455 S
C2189 C2185 1.424 . S
C2189 C2188 1.412 . S
C2189 H2201 0.910 1_455 S
C2190 C2186 1.524 . S
C2190 H2202 0.956 . S
C2190 H2203 0.961 . S
C2190 H2204 0.961 . S
C2191 C2188 1.539 1_655 S
C2191 H2205 0.958 1_655 S
C2191 H2206 0.961 . S
C2191 H2207 0.960 . S
H2192 C2176 0.931 . S
H2193 C2181 0.929 1_655 S
H2194 C2182 0.960 . S
H2195 C2182 0.962 . S
H2196 C2182 0.960 . S
H2197 C2183 0.961 . S
H2198 C2183 0.961 . S
H2199 C2183 0.961 . S
H2200 C2184 0.931 . S
H2201 C2189 0.910 1_655 S
H2202 C2190 0.956 . S
H2203 C2190 0.961 . S
H2204 C2190 0.961 . S
H2205 C2191 0.958 1_455 S
H2206 C2191 0.961 . S
H2207 C2191 0.960 . S
C2208 C2209 1.391 . S
C2208 C2210 1.394 . S
C2208 H2224 0.931 . S
C2209 C2208 1.391 . S
C2209 C2213 1.376 . S
C2210 C2208 1.394 . S
C2210 C2211 1.369 . S
C2210 C2214 1.531 . S
C2211 C2210 1.369 . S
C2211 C2212 1.410 . S
C2211 C2219 1.503 . S
C2212 C2211 1.410 . S
C2212 C2213 1.392 . S
C2212 C2215 1.511 . S
C2213 C2209 1.376 . S
C2213 C2212 1.392 . S
C2213 H2225 0.929 . S
C2214 C2210 1.531 . S
C2214 H2226 0.960 . S
C2214 H2227 0.962 . S
C2214 H2228 0.960 . S
C2215 C2212 1.511 . S
C2215 H2229 0.961 . S
C2215 H2230 0.961 . S
C2215 H2231 0.961 . S
C2216 C2217 1.370 . S
C2216 C2218 1.363 . S
C2216 H2232 0.931 . S
C2217 C2216 1.370 . S
C2217 C2221 1.408 . S
C2218 C2216 1.363 . S
C2218 C2219 1.370 . S
C2218 C2222 1.524 . S
C2219 C2211 1.503 . S
C2219 C2218 1.370 . S
C2219 C2220 1.403 . S
C2220 C2219 1.403 . S
C2220 C2221 1.404 . S
C2220 C2223 1.539 . S
C2221 C2217 1.408 . S
C2221 C2220 1.404 . S
C2221 H2233 0.930 . S
C2222 C2218 1.524 . S
C2222 H2234 0.956 . S
C2222 H2235 0.961 . S
C2222 H2236 0.961 . S
C2223 C2220 1.539 . S
C2223 H2237 0.958 . S
C2223 H2238 0.961 . S
C2223 H2239 0.960 . S
H2224 C2208 0.931 . S
H2225 C2213 0.929 . S
H2226 C2214 0.960 . S
H2227 C2214 0.962 . S
H2228 C2214 0.960 . S
H2229 C2215 0.961 . S
H2230 C2215 0.961 . S
H2231 C2215 0.961 . S
H2232 C2216 0.931 . S
H2233 C2221 0.930 . S
H2234 C2222 0.956 . S
H2235 C2222 0.961 . S
H2236 C2222 0.961 . S
H2237 C2223 0.958 . S
H2238 C2223 0.961 . S
H2239 C2223 0.960 . S
C2240 C2241 1.391 . S
C2240 C2242 1.394 . S
C2240 H2256 0.931 . S
C2241 C2240 1.391 . S
C2241 C2245 1.376 . S
C2242 C2240 1.394 . S
C2242 C2243 1.369 . S
C2242 C2246 1.531 . S
C2243 C2242 1.369 . S
C2243 C2244 1.410 . S
C2243 C2251 1.503 . S
C2244 C2243 1.410 . S
C2244 C2245 1.392 . S
C2244 C2247 1.511 . S
C2245 C2241 1.376 . S
C2245 C2244 1.392 . S
C2245 H2257 0.929 . S
C2246 C2242 1.531 . S
C2246 H2258 0.960 . S
C2246 H2259 0.962 . S
C2246 H2260 0.960 . S
C2247 C2244 1.511 . S
C2247 H2261 0.961 . S
C2247 H2262 0.961 . S
C2247 H2263 0.961 . S
C2248 C2249 1.370 . S
C2248 C2250 1.363 . S
C2248 H2264 0.931 . S
C2249 C2248 1.370 . S
C2249 C2253 1.408 . S
C2250 C2248 1.363 . S
C2250 C2251 1.370 . S
C2250 C2254 1.524 . S
C2251 C2243 1.503 . S
C2251 C2250 1.370 . S
C2251 C2252 1.403 . S
C2252 C2251 1.403 . S
C2252 C2253 1.404 . S
C2252 C2255 1.539 . S
C2253 C2249 1.408 . S
C2253 C2252 1.404 . S
C2253 H2265 0.930 . S
C2254 C2250 1.524 . S
C2254 H2266 0.956 . S
C2254 H2267 0.961 . S
C2254 H2268 0.961 . S
C2255 C2252 1.539 . S
C2255 H2269 0.958 . S
C2255 H2270 0.961 . S
C2255 H2271 0.960 . S
H2256 C2240 0.931 . S
H2257 C2245 0.929 . S
H2258 C2246 0.960 . S
H2259 C2246 0.962 . S
H2260 C2246 0.960 . S
H2261 C2247 0.961 . S
H2262 C2247 0.961 . S
H2263 C2247 0.961 . S
H2264 C2248 0.931 . S
H2265 C2253 0.930 . S
H2266 C2254 0.956 . S
H2267 C2254 0.961 . S
H2268 C2254 0.961 . S
H2269 C2255 0.958 . S
H2270 C2255 0.961 . S
H2271 C2255 0.960 . S
C2272 C2273 1.391 . S
C2272 C2274 1.394 . S
C2272 H2288 0.931 . S
C2273 C2272 1.391 . S
C2273 C2277 1.376 . S
C2274 C2272 1.394 . S
C2274 C2275 1.369 . S
C2274 C2278 1.531 . S
C2275 C2274 1.369 . S
C2275 C2276 1.410 . S
C2275 C2283 1.503 . S
C2276 C2275 1.410 . S
C2276 C2277 1.392 . S
C2276 C2279 1.511 . S
C2277 C2273 1.376 . S
C2277 C2276 1.392 . S
C2277 H2289 0.929 . S
C2278 C2274 1.531 . S
C2278 H2290 0.960 . S
C2278 H2291 0.962 . S
C2278 H2292 0.960 . S
C2279 C2276 1.511 . S
C2279 H2293 0.961 . S
C2279 H2294 0.961 . S
C2279 H2295 0.961 . S
C2280 C2281 1.370 . S
C2280 C2282 1.363 . S
C2280 H2296 0.931 . S
C2281 C2280 1.370 . S
C2281 C2285 1.408 . S
C2282 C2280 1.363 . S
C2282 C2283 1.370 . S
C2282 C2286 1.524 . S
C2283 C2275 1.503 . S
C2283 C2282 1.370 . S
C2283 C2284 1.403 . S
C2284 C2283 1.403 . S
C2284 C2285 1.404 . S
C2284 C2287 1.539 . S
C2285 C2281 1.408 . S
C2285 C2284 1.404 . S
C2285 H2297 0.930 . S
C2286 C2282 1.524 . S
C2286 H2298 0.956 . S
C2286 H2299 0.961 . S
C2286 H2300 0.961 . S
C2287 C2284 1.539 . S
C2287 H2301 0.958 . S
C2287 H2302 0.961 . S
C2287 H2303 0.960 . S
H2288 C2272 0.931 . S
H2289 C2277 0.929 . S
H2290 C2278 0.960 . S
H2291 C2278 0.962 . S
H2292 C2278 0.960 . S
H2293 C2279 0.961 . S
H2294 C2279 0.961 . S
H2295 C2279 0.961 . S
H2296 C2280 0.931 . S
H2297 C2285 0.930 . S
H2298 C2286 0.956 . S
H2299 C2286 0.961 . S
H2300 C2286 0.961 . S
H2301 C2287 0.958 . S
H2302 C2287 0.961 . S
H2303 C2287 0.960 . S
C2304 C2305 1.391 . S
C2304 C2306 1.394 . S
C2304 H2320 0.931 . S
C2305 C2304 1.391 . S
C2305 C2309 1.376 . S
C2306 C2304 1.394 . S
C2306 C2307 1.369 . S
C2306 C2310 1.531 . S
C2307 C2306 1.369 . S
C2307 C2308 1.410 . S
C2307 C2315 1.503 . S
C2308 C2307 1.410 . S
C2308 C2309 1.392 . S
C2308 C2311 1.511 . S
C2309 C2305 1.376 . S
C2309 C2308 1.392 . S
C2309 H2321 0.929 . S
C2310 C2306 1.531 . S
C2310 H2322 0.960 . S
C2310 H2323 0.962 . S
C2310 H2324 0.960 . S
C2311 C2308 1.511 . S
C2311 H2325 0.961 . S
C2311 H2326 0.961 . S
C2311 H2327 0.961 . S
C2312 C2313 1.370 . S
C2312 C2314 1.363 . S
C2312 H2328 0.931 . S
C2313 C2312 1.370 . S
C2313 C2317 1.408 . S
C2314 C2312 1.363 . S
C2314 C2315 1.370 . S
C2314 C2318 1.524 . S
C2315 C2307 1.503 . S
C2315 C2314 1.370 . S
C2315 C2316 1.403 . S
C2316 C2315 1.403 . S
C2316 C2317 1.404 . S
C2316 C2319 1.539 . S
C2317 C2313 1.408 . S
C2317 C2316 1.404 . S
C2317 H2329 0.930 . S
C2318 C2314 1.524 . S
C2318 H2330 0.956 . S
C2318 H2331 0.961 . S
C2318 H2332 0.961 . S
C2319 C2316 1.539 . S
C2319 H2333 0.958 . S
C2319 H2334 0.961 . S
C2319 H2335 0.960 . S
H2320 C2304 0.931 . S
H2321 C2309 0.929 . S
H2322 C2310 0.960 . S
H2323 C2310 0.962 . S
H2324 C2310 0.960 . S
H2325 C2311 0.961 . S
H2326 C2311 0.961 . S
H2327 C2311 0.961 . S
H2328 C2312 0.931 . S
H2329 C2317 0.930 . S
H2330 C2318 0.956 . S
H2331 C2318 0.961 . S
H2332 C2318 0.961 . S
H2333 C2319 0.958 . S
H2334 C2319 0.961 . S
H2335 C2319 0.960 . S
C2336 C2337 1.391 . S
C2336 C2338 1.394 . S
C2336 H2352 0.931 . S
C2337 C2336 1.391 . S
C2337 C2341 1.376 . S
C2338 C2336 1.394 . S
C2338 C2339 1.369 . S
C2338 C2342 1.531 . S
C2339 C2338 1.369 . S
C2339 C2340 1.410 . S
C2339 C2347 1.503 . S
C2340 C2339 1.410 . S
C2340 C2341 1.392 . S
C2340 C2343 1.511 . S
C2341 C2337 1.376 . S
C2341 C2340 1.392 . S
C2341 H2353 0.929 . S
C2342 C2338 1.531 . S
C2342 H2354 0.960 . S
C2342 H2355 0.962 . S
C2342 H2356 0.960 . S
C2343 C2340 1.511 . S
C2343 H2357 0.961 . S
C2343 H2358 0.961 . S
C2343 H2359 0.961 . S
C2344 C2345 1.370 . S
C2344 C2346 1.363 . S
C2344 H2360 0.931 . S
C2345 C2344 1.370 . S
C2345 C2349 1.408 . S
C2346 C2344 1.363 . S
C2346 C2347 1.370 . S
C2346 C2350 1.524 . S
C2347 C2339 1.503 . S
C2347 C2346 1.370 . S
C2347 C2348 1.403 . S
C2348 C2347 1.403 . S
C2348 C2349 1.404 . S
C2348 C2351 1.539 . S
C2349 C2345 1.408 . S
C2349 C2348 1.404 . S
C2349 H2361 0.930 . S
C2350 C2346 1.524 . S
C2350 H2362 0.956 . S
C2350 H2363 0.961 . S
C2350 H2364 0.961 . S
C2351 C2348 1.539 . S
C2351 H2365 0.958 . S
C2351 H2366 0.961 . S
C2351 H2367 0.960 . S
H2352 C2336 0.931 . S
H2353 C2341 0.929 . S
H2354 C2342 0.960 . S
H2355 C2342 0.962 . S
H2356 C2342 0.960 . S
H2357 C2343 0.961 . S
H2358 C2343 0.961 . S
H2359 C2343 0.961 . S
H2360 C2344 0.931 . S
H2361 C2349 0.930 . S
H2362 C2350 0.956 . S
H2363 C2350 0.961 . S
H2364 C2350 0.961 . S
H2365 C2351 0.958 . S
H2366 C2351 0.961 . S
H2367 C2351 0.960 . S
C2368 C2369 1.391 . S
C2368 C2370 1.394 . S
C2368 H2384 0.931 . S
C2369 C2368 1.391 . S
C2369 C2373 1.376 . S
C2370 C2368 1.394 . S
C2370 C2371 1.369 . S
C2370 C2374 1.531 . S
C2371 C2370 1.369 . S
C2371 C2372 1.410 . S
C2371 C2379 1.503 . S
C2372 C2371 1.410 . S
C2372 C2373 1.392 . S
C2372 C2375 1.511 . S
C2373 C2369 1.376 . S
C2373 C2372 1.392 . S
C2373 H2385 0.929 . S
C2374 C2370 1.531 . S
C2374 H2386 0.960 . S
C2374 H2387 0.962 . S
C2374 H2388 0.960 . S
C2375 C2372 1.511 . S
C2375 H2389 0.961 . S
C2375 H2390 0.961 . S
C2375 H2391 0.961 . S
C2376 C2377 1.370 . S
C2376 C2378 1.363 . S
C2376 H2392 0.931 . S
C2377 C2376 1.370 . S
C2377 C2381 1.408 . S
C2378 C2376 1.363 . S
C2378 C2379 1.370 . S
C2378 C2382 1.524 . S
C2379 C2371 1.503 . S
C2379 C2378 1.370 . S
C2379 C2380 1.403 . S
C2380 C2379 1.403 . S
C2380 C2381 1.404 . S
C2380 C2383 1.539 . S
C2381 C2377 1.408 . S
C2381 C2380 1.404 . S
C2381 H2393 0.930 . S
C2382 C2378 1.524 . S
C2382 H2394 0.956 . S
C2382 H2395 0.961 . S
C2382 H2396 0.961 . S
C2383 C2380 1.539 . S
C2383 H2397 0.958 . S
C2383 H2398 0.961 . S
C2383 H2399 0.960 . S
H2384 C2368 0.931 . S
H2385 C2373 0.929 . S
H2386 C2374 0.960 . S
H2387 C2374 0.962 . S
H2388 C2374 0.960 . S
H2389 C2375 0.961 . S
H2390 C2375 0.961 . S
H2391 C2375 0.961 . S
H2392 C2376 0.931 . S
H2393 C2381 0.930 . S
H2394 C2382 0.956 . S
H2395 C2382 0.961 . S
H2396 C2382 0.961 . S
H2397 C2383 0.958 . S
H2398 C2383 0.961 . S
H2399 C2383 0.960 . S
C2400 C2401 1.391 . S
C2400 C2402 1.394 . S
C2400 H2416 0.931 . S
C2401 C2400 1.391 . S
C2401 C2405 1.376 . S
C2402 C2400 1.394 . S
C2402 C2403 1.369 . S
C2402 C2406 1.531 . S
C2403 C2402 1.369 . S
C2403 C2404 1.410 . S
C2403 C2411 1.503 . S
C2404 C2403 1.410 . S
C2404 C2405 1.392 . S
C2404 C2407 1.511 . S
C2405 C2401 1.376 . S
C2405 C2404 1.392 . S
C2405 H2417 0.929 . S
C2406 C2402 1.531 . S
C2406 H2418 0.960 . S
C2406 H2419 0.962 . S
C2406 H2420 0.960 . S
C2407 C2404 1.511 . S
C2407 H2421 0.961 . S
C2407 H2422 0.961 . S
C2407 H2423 0.961 . S
C2408 C2409 1.370 . S
C2408 C2410 1.363 . S
C2408 H2424 0.931 . S
C2409 C2408 1.370 . S
C2409 C2413 1.408 . S
C2410 C2408 1.363 . S
C2410 C2411 1.370 . S
C2410 C2414 1.524 . S
C2411 C2403 1.503 . S
C2411 C2410 1.370 . S
C2411 C2412 1.403 . S
C2412 C2411 1.403 . S
C2412 C2413 1.404 . S
C2412 C2415 1.539 . S
C2413 C2409 1.408 . S
C2413 C2412 1.404 . S
C2413 H2425 0.930 . S
C2414 C2410 1.524 . S
C2414 H2426 0.956 . S
C2414 H2427 0.961 . S
C2414 H2428 0.961 . S
C2415 C2412 1.539 . S
C2415 H2429 0.958 . S
C2415 H2430 0.961 . S
C2415 H2431 0.960 . S
H2416 C2400 0.931 . S
H2417 C2405 0.929 . S
H2418 C2406 0.960 . S
H2419 C2406 0.962 . S
H2420 C2406 0.960 . S
H2421 C2407 0.961 . S
H2422 C2407 0.961 . S
H2423 C2407 0.961 . S
H2424 C2408 0.931 . S
H2425 C2413 0.930 . S
H2426 C2414 0.956 . S
H2427 C2414 0.961 . S
H2428 C2414 0.961 . S
H2429 C2415 0.958 . S
H2430 C2415 0.961 . S
H2431 C2415 0.960 . S
C2432 C2433 1.391 . S
C2432 C2434 1.394 . S
C2432 H2448 0.931 . S
C2433 C2432 1.391 . S
C2433 C2437 1.376 . S
C2434 C2432 1.394 . S
C2434 C2435 1.369 . S
C2434 C2438 1.531 . S
C2435 C2434 1.369 . S
C2435 C2436 1.410 . S
C2435 C2443 1.503 . S
C2436 C2435 1.410 . S
C2436 C2437 1.392 . S
C2436 C2439 1.511 . S
C2437 C2433 1.376 . S
C2437 C2436 1.392 . S
C2437 H2449 0.929 . S
C2438 C2434 1.531 . S
C2438 H2450 0.960 . S
C2438 H2451 0.962 . S
C2438 H2452 0.960 . S
C2439 C2436 1.511 . S
C2439 H2453 0.961 . S
C2439 H2454 0.961 . S
C2439 H2455 0.961 . S
C2440 C2441 1.370 . S
C2440 C2442 1.363 . S
C2440 H2456 0.931 . S
C2441 C2440 1.370 . S
C2441 C2445 1.408 . S
C2442 C2440 1.363 . S
C2442 C2443 1.370 . S
C2442 C2446 1.524 . S
C2443 C2435 1.503 . S
C2443 C2442 1.370 . S
C2443 C2444 1.403 . S
C2444 C2443 1.403 . S
C2444 C2445 1.404 . S
C2444 C2447 1.539 . S
C2445 C2441 1.408 . S
C2445 C2444 1.404 . S
C2445 H2457 0.930 . S
C2446 C2442 1.524 . S
C2446 H2458 0.956 . S
C2446 H2459 0.961 . S
C2446 H2460 0.961 . S
C2447 C2444 1.539 . S
C2447 H2461 0.958 . S
C2447 H2462 0.961 . S
C2447 H2463 0.960 . S
H2448 C2432 0.931 . S
H2449 C2437 0.929 . S
H2450 C2438 0.960 . S
H2451 C2438 0.962 . S
H2452 C2438 0.960 . S
H2453 C2439 0.961 . S
H2454 C2439 0.961 . S
H2455 C2439 0.961 . S
H2456 C2440 0.931 . S
H2457 C2445 0.930 . S
H2458 C2446 0.956 . S
H2459 C2446 0.961 . S
H2460 C2446 0.961 . S
H2461 C2447 0.958 . S
H2462 C2447 0.961 . S
H2463 C2447 0.960 . S
C2464 C2465 1.391 . S
C2464 C2466 1.394 . S
C2464 H2480 0.931 . S
C2465 C2464 1.391 . S
C2465 C2469 1.376 . S
C2466 C2464 1.394 . S
C2466 C2467 1.369 . S
C2466 C2470 1.531 1_556 S
C2467 C2466 1.369 . S
C2467 C2468 1.410 . S
C2467 C2475 1.503 . S
C2468 C2467 1.410 . S
C2468 C2469 1.392 . S
C2468 C2471 1.511 . S
C2469 C2465 1.376 . S
C2469 C2468 1.392 . S
C2469 H2481 0.929 . S
C2470 C2466 1.531 1_554 S
C2470 H2482 0.960 . S
C2470 H2483 0.999 . S
C2470 H2484 0.960 . S
C2471 C2468 1.511 . S
C2471 H2485 0.961 . S
C2471 H2486 0.961 . S
C2471 H2487 0.961 . S
C2472 C2473 1.370 . S
C2472 C2474 1.363 . S
C2472 H2488 0.931 . S
C2473 C2472 1.370 . S
C2473 C2477 1.408 1_556 S
C2474 C2472 1.363 . S
C2474 C2475 1.370 . S
C2474 C2478 1.524 . S
C2475 C2467 1.503 . S
C2475 C2474 1.370 . S
C2475 C2476 1.403 1_556 S
C2476 C2475 1.403 1_554 S
C2476 C2477 1.404 . S
C2476 C2479 1.539 . S
C2477 C2473 1.408 1_554 S
C2477 C2476 1.404 . S
C2477 H2489 0.930 . S
C2478 C2474 1.524 . S
C2478 H2490 0.956 . S
C2478 H2491 0.961 . S
C2478 H2492 0.961 . S
C2479 C2476 1.539 . S
C2479 H2493 0.958 . S
C2479 H2494 0.961 . S
C2479 H2495 0.960 . S
H2480 C2464 0.931 . S
H2481 C2469 0.929 . S
H2482 C2470 0.960 . S
H2483 C2470 0.999 . S
H2484 C2470 0.960 . S
H2485 C2471 0.961 . S
H2486 C2471 0.961 . S
H2487 C2471 0.961 . S
H2488 C2472 0.931 . S
H2489 C2477 0.930 . S
H2490 C2478 0.956 . S
H2491 C2478 0.961 . S
H2492 C2478 0.961 . S
H2493 C2479 0.958 . S
H2494 C2479 0.961 . S
H2495 C2479 0.960 . S
C2496 C2497 1.391 . S
C2496 C2498 1.394 . S
C2496 H2512 0.931 . S
C2497 C2496 1.391 . S
C2497 C2501 1.376 . S
C2498 C2496 1.394 . S
C2498 C2499 1.369 . S
C2498 C2502 1.531 . S
C2499 C2498 1.369 . S
C2499 C2500 1.410 . S
C2499 C2507 1.503 . S
C2500 C2499 1.410 . S
C2500 C2501 1.392 . S
C2500 C2503 1.511 . S
C2501 C2497 1.376 . S
C2501 C2500 1.392 . S
C2501 H2513 0.929 . S
C2502 C2498 1.531 . S
C2502 H2514 0.960 . S
C2502 H2515 0.962 . S
C2502 H2516 0.960 . S
C2503 C2500 1.511 . S
C2503 H2517 0.961 . S
C2503 H2518 0.961 . S
C2503 H2519 0.961 . S
C2504 C2505 1.370 . S
C2504 C2506 1.363 . S
C2504 H2520 0.931 . S
C2505 C2504 1.370 . S
C2505 C2509 1.408 . S
C2506 C2504 1.363 . S
C2506 C2507 1.370 . S
C2506 C2510 1.524 . S
C2507 C2499 1.503 . S
C2507 C2506 1.370 . S
C2507 C2508 1.403 . S
C2508 C2507 1.403 . S
C2508 C2509 1.404 . S
C2508 C2511 1.539 . S
C2509 C2505 1.408 . S
C2509 C2508 1.404 . S
C2509 H2521 0.930 . S
C2510 C2506 1.524 . S
C2510 H2522 0.956 . S
C2510 H2523 0.961 . S
C2510 H2524 0.961 . S
C2511 C2508 1.539 . S
C2511 H2525 0.958 . S
C2511 H2526 0.961 . S
C2511 H2527 0.960 . S
H2512 C2496 0.931 . S
H2513 C2501 0.929 . S
H2514 C2502 0.960 . S
H2515 C2502 0.962 . S
H2516 C2502 0.960 . S
H2517 C2503 0.961 . S
H2518 C2503 0.961 . S
H2519 C2503 0.961 . S
H2520 C2504 0.931 . S
H2521 C2509 0.930 . S
H2522 C2510 0.956 . S
H2523 C2510 0.961 . S
H2524 C2510 0.961 . S
H2525 C2511 0.958 . S
H2526 C2511 0.961 . S
H2527 C2511 0.960 . S
C2528 C2529 1.391 . S
C2528 C2530 1.394 . S
C2528 H2544 0.931 . S
C2529 C2528 1.391 . S
C2529 C2533 1.376 . S
C2530 C2528 1.394 . S
C2530 C2531 1.369 . S
C2530 C2534 1.531 . S
C2531 C2530 1.369 . S
C2531 C2532 1.410 . S
C2531 C2539 1.503 . S
C2532 C2531 1.410 . S
C2532 C2533 1.392 . S
C2532 C2535 1.511 . S
C2533 C2529 1.376 . S
C2533 C2532 1.392 . S
C2533 H2545 0.929 . S
C2534 C2530 1.531 . S
C2534 H2546 0.960 . S
C2534 H2547 0.962 . S
C2534 H2548 0.960 . S
C2535 C2532 1.511 . S
C2535 H2549 0.961 . S
C2535 H2550 0.961 . S
C2535 H2551 0.961 . S
C2536 C2537 1.370 1_556 S
C2536 C2538 1.363 . S
C2536 H2552 0.931 . S
C2537 C2536 1.370 1_554 S
C2537 C2541 1.408 . S
C2538 C2536 1.363 . S
C2538 C2539 1.370 1_556 S
C2538 C2542 1.524 . S
C2539 C2531 1.503 . S
C2539 C2538 1.370 1_554 S
C2539 C2540 1.403 . S
C2540 C2539 1.403 . S
C2540 C2541 1.404 . S
C2540 C2543 1.539 . S
C2541 C2537 1.408 . S
C2541 C2540 1.404 . S
C2541 H2553 0.930 . S
C2542 C2538 1.524 . S
C2542 H2554 0.956 . S
C2542 H2555 0.961 . S
C2542 H2556 0.961 . S
C2543 C2540 1.539 . S
C2543 H2557 0.958 . S
C2543 H2558 0.961 . S
C2543 H2559 0.960 . S
H2544 C2528 0.931 . S
H2545 C2533 0.929 . S
H2546 C2534 0.960 . S
H2547 C2534 0.962 . S
H2548 C2534 0.960 . S
H2549 C2535 0.961 . S
H2550 C2535 0.961 . S
H2551 C2535 0.961 . S
H2552 C2536 0.931 . S
H2553 C2541 0.930 . S
H2554 C2542 0.956 . S
H2555 C2542 0.961 . S
H2556 C2542 0.961 . S
H2557 C2543 0.958 . S
H2558 C2543 0.961 . S
H2559 C2543 0.960 . S
C2560 C2561 1.391 . S
C2560 C2562 1.394 . S
C2560 H2576 0.931 . S
C2561 C2560 1.391 . S
C2561 C2565 1.376 . S
C2562 C2560 1.394 . S
C2562 C2563 1.369 . S
C2562 C2566 1.531 . S
C2563 C2562 1.369 . S
C2563 C2564 1.410 . S
C2563 C2571 1.503 . S
C2564 C2563 1.410 . S
C2564 C2565 1.392 . S
C2564 C2567 1.511 . S
C2565 C2561 1.376 . S
C2565 C2564 1.392 . S
C2565 H2577 0.929 . S
C2566 C2562 1.531 . S
C2566 H2578 0.960 . S
C2566 H2579 0.962 . S
C2566 H2580 0.960 . S
C2567 C2564 1.511 . S
C2567 H2581 0.961 . S
C2567 H2582 0.961 . S
C2567 H2583 0.961 . S
C2568 C2569 1.370 1_556 S
C2568 C2570 1.360 1_556 S
C2568 H2584 0.931 . S
C2569 C2568 1.370 1_554 S
C2569 C2573 1.408 . S
C2570 C2568 1.360 1_554 S
C2570 C2571 1.394 . S
C2570 C2574 1.504 1_554 S
C2571 C2563 1.503 . S
C2571 C2570 1.394 . S
C2571 C2572 1.403 . S
C2572 C2571 1.403 . S
C2572 C2573 1.404 . S
C2572 C2575 1.539 . S
C2573 C2569 1.408 . S
C2573 C2572 1.404 . S
C2573 H2585 0.930 . S
C2574 C2570 1.504 1_556 S
C2574 H2586 0.956 . S
C2574 H2587 0.961 . S
C2574 H2588 0.961 . S
C2575 C2572 1.539 . S
C2575 H2589 0.958 . S
C2575 H2590 0.961 . S
C2575 H2591 0.960 . S
H2576 C2560 0.931 . S
H2577 C2565 0.929 . S
H2578 C2566 0.960 . S
H2579 C2566 0.962 . S
H2580 C2566 0.960 . S
H2581 C2567 0.961 . S
H2582 C2567 0.961 . S
H2583 C2567 0.961 . S
H2584 C2568 0.931 . S
H2585 C2573 0.930 . S
H2586 C2574 0.956 . S
H2587 C2574 0.961 . S
H2588 C2574 0.961 . S
H2589 C2575 0.958 . S
H2590 C2575 0.961 . S
H2591 C2575 0.960 . S
C1065 C626 1.445 . S
C1057 C211 1.435 . S
C1097 C674 1.614 . S
C1089 C255 1.666 . S
C1121 C274 1.428 . S
C1129 C710 1.387 . S
C1161 C746 1.581 . S
C1153 C157 1.630 . S
C1193 C772 1.477 . S
C1185 C391 1.479 . S
C1225 C808 1.585 . S
C1217 C484 1.584 . S
C1249 C450 1.489 . S
C1257 C843 1.503 . S
C1289 C880 1.610 1_565 S
C1281 C352 1.605 . S
C1313 C430 1.420 . S
C1321 C914 1.441 . S
C1353 C962 1.555 . S
C1345 C367 1.608 . S
C1377 C411 1.458 . S
C1385 C915 1.479 . S
C1417 C952 1.614 . S
C1409 C469 1.613 . S
C1441 C294 1.473 . S
C1449 C998 1.395 . S
C1473 C177 1.626 . S
C1481 C987 1.627 . S
C1505 C196 1.499 . S
C1513 C988 1.489 . S
C1537 C235 1.646 . S
C1545 C986 1.645 . S
C1569 C133 1.449 . S
C1577 C734 1.460 . S
C1601 C567 1.448 . S
C1609 C735 1.447 . S
C1641 C638 1.598 . S
C1633 C601 1.644 . S
C1673 C663 1.470 . S
C1665 C328 1.462 . S
C1697 C172 1.622 . S
C1705 C770 1.627 . S
C1737 C878 1.484 . S
C1729 C445 1.469 . S
C1769 C771 1.612 . S
C1761 C372 1.602 . S
C1801 C844 1.609 . S
C1793 C489 1.611 . S
C1833 C842 1.448 . S
C1825 C562 1.425 . S
C1857 C606 1.672 . S
C1865 C890 1.621 . S
C1889 C313 1.437 . S
C1897 C782 1.360 . S
C1929 C818 1.580 . S
C1921 C508 1.628 . S
C1953 C118 1.463 . S
C1961 C700 1.487 . S
C1993 C736 1.587 . S
C1985 C16 1.587 . S
C2025 C627 1.501 . S
C2017 C60 1.480 . S
C2057 C664 1.614 . S
C2049 C79 1.605 . S
C2081 C40 1.431 . S
C2089 C950 1.436 . S
C2113 C94 1.607 . S
C2121 C926 1.564 . S
C2145 C138 1.466 . S
C2153 C951 1.480 . S
C2177 C1 1.619 . S
C2185 C916 1.611 . S
C2217 C1034 1.416 . S
C2209 C333 1.464 . S
C2249 C1023 1.627 . S
C2241 C528 1.629 . S
C2281 C1024 1.488 . S
C2273 C547 1.500 . S
C2305 C586 1.643 . S
C2313 C1022 1.644 . S
C2337 C406 1.459 . S
C2345 C806 1.453 . S
C2377 C807 1.447 . S
C2369 C216 1.450 . S
C2409 C854 1.590 . S
C2401 C250 1.643 . S
C2441 C879 1.472 . S
C2433 C289 1.454 . S
C2465 C523 1.624 . S
C2473 C698 1.623 . S
C2505 C662 1.483 . S
C2497 C55 1.478 . S
C2529 C99 1.607 . S
C2537 C699 1.606 . S
C2569 C628 1.611 . S
C2561 C21 1.608 . S
