# Generated by pormake.
# Topology tsx, (6,3)-cn, num edge types: 1
# Building blocks:
#     Node 0, Type 0, BuildingBlock: FUNLAD_clean_sbu_0, # of connection points: 6
#     Node 1, Type 0, BuildingBlock: FUNLAD_clean_sbu_0, # of connection points: 6
#     Node 2, Type 1, BuildingBlock: PAMTOO_clean_linker_0, # of connection points: 3
#     Node 3, Type 1, BuildingBlock: PAMTOO_clean_linker_0, # of connection points: 3
#     Node 4, Type 1, BuildingBlock: PAMTOO_clean_linker_0, # of connection points: 3
#     Node 5, Type 1, BuildingBlock: PAMTOO_clean_linker_0, # of connection points: 3
#     Edge 6, Type (0, 1), BuildingBlock: ZUJKAS_clean_linker_0, # of connection points: 2
#     Edge 7, Type (0, 1), BuildingBlock: ZUJKAS_clean_linker_0, # of connection points: 2
#     Edge 8, Type (0, 1), BuildingBlock: ZUJKAS_clean_linker_0, # of connection points: 2
#     Edge 9, Type (0, 1), BuildingBlock: ZUJKAS_clean_linker_0, # of connection points: 2
#     Edge 10, Type (0, 1), BuildingBlock: ZUJKAS_clean_linker_0, # of connection points: 2
#     Edge 11, Type (0, 1), BuildingBlock: ZUJKAS_clean_linker_0, # of connection points: 2
#     Edge 12, Type (0, 1), BuildingBlock: ZUJKAS_clean_linker_0, # of connection points: 2
#     Edge 13, Type (0, 1), BuildingBlock: ZUJKAS_clean_linker_0, # of connection points: 2
#     Edge 14, Type (0, 1), BuildingBlock: ZUJKAS_clean_linker_0, # of connection points: 2
#     Edge 15, Type (0, 1), BuildingBlock: ZUJKAS_clean_linker_0, # of connection points: 2
#     Edge 16, Type (0, 1), BuildingBlock: ZUJKAS_clean_linker_0, # of connection points: 2
#     Edge 17, Type (0, 1), BuildingBlock: ZUJKAS_clean_linker_0, # of connection points: 2
# Relax obj value: 0.122
# Max RMSD: 0.129
# Mean RMSD: 0.118
data_MOF--net-tsx--node1-FUNLAD_clean_sbu_0--node2-PAMTOO_clean_linker_0--edge1-ZUJKAS_clean_linker_0
_symmetry_space_group_name_H-M    P1
_symmetry_Int_Tables_number       1
_symmetry_cell_setting            triclinic
loop_
_symmetry_equiv_pos_as_xyz
'x, y, z'
_cell_length_a     25.352556
_cell_length_b     28.022682
_cell_length_c     49.890549
_cell_angle_alpha  82.491238
_cell_angle_beta   92.008084
_cell_angle_gamma 90.025732
loop_
_atom_site_label
_atom_site_type_symbol
_atom_site_fract_x
_atom_site_fract_y
_atom_site_fract_z
_atom_type_partial_charge
C0 C 0.94976 0.94929 -0.00229 0.0
N1 N 0.02996 0.00473 0.0618 0.0
C2 C 0.98383 0.00402 0.07497 0.0
C3 C 0.98429 0.00365 0.10295 0.0
C4 C 0.03269 0.0039 0.11752 0.0
C5 C 0.07968 0.00286 0.10349 0.0
C6 C 0.07739 0.0034 0.07549 0.0
Zn7 Zn 0.02796 0.01358 0.02069 0.0
C8 C 0.10373 0.95196 -0.00202 0.0
N9 N 0.02258 0.03618 0.93473 0.0
C10 C 0.97658 0.03583 0.91987 0.0
C11 C 0.07004 0.03908 0.92275 0.0
C12 C 0.07268 0.04005 0.89486 0.0
C13 C 0.02605 0.03795 0.87909 0.0
C14 C 0.9774 0.03682 0.8918 0.0
Zn15 Zn 0.02319 0.02713 0.97589 0.0
O16 O 0.96983 0.9593 0.02001 0.0
C17 C 0.9482 0.08942 -0.00139 0.0
O18 O 0.96487 0.97237 0.97567 0.0
H19 H 0.10615 0.03932 0.93492 0.0
H20 H 0.94658 0.00526 0.06365 0.0
H21 H 0.93931 0.03338 0.92986 0.0
O22 O 0.96833 0.06678 0.02028 0.0
O23 O 0.9636 0.07977 0.97594 0.0
H24 H 0.11357 0.00404 0.06459 0.0
O25 O 0.08117 0.08197 0.97668 0.0
O26 O 0.08597 0.06786 0.02093 0.0
O27 O 0.08314 0.97434 0.97637 0.0
O28 O 0.08782 0.96099 0.02065 0.0
C29 C 0.10104 0.09151 -0.00091 0.0
H30 H 0.94712 0.00495 0.11289 0.0
H31 H 0.11784 0.00224 0.11399 0.0
H32 H 0.11094 0.04175 0.88579 0.0
H33 H 0.94056 0.03491 0.88034 0.0
C34 C 0.44654 0.45802 0.49905 0.0
N35 N 0.52365 0.51063 0.56443 0.0
C36 C 0.4769 0.50861 0.57709 0.0
C37 C 0.4761 0.50412 0.60524 0.0
C38 C 0.52387 0.50162 0.62047 0.0
C39 C 0.57153 0.50276 0.60688 0.0
C40 C 0.5705 0.50736 0.5787 0.0
Zn41 Zn 0.52345 0.52136 0.52336 0.0
C42 C 0.59942 0.45789 0.50101 0.0
N43 N 0.5222 0.54507 0.43746 0.0
C44 C 0.47576 0.54563 0.42291 0.0
C45 C 0.56927 0.54896 0.42509 0.0
C46 C 0.57093 0.55263 0.39699 0.0
C47 C 0.5237 0.55193 0.38152 0.0
C48 C 0.47561 0.5489 0.39476 0.0
Zn49 Zn 0.52206 0.53456 0.47857 0.0
O50 O 0.46483 0.46844 0.52159 0.0
C51 C 0.44584 0.59799 0.50079 0.0
O52 O 0.46331 0.48057 0.47726 0.0
H53 H 0.60572 0.54811 0.43707 0.0
H54 H 0.44013 0.51115 0.56532 0.0
H55 H 0.43881 0.54262 0.43318 0.0
O56 O 0.46448 0.57545 0.52285 0.0
O57 O 0.46286 0.58795 0.47851 0.0
H58 H 0.60718 0.50921 0.56818 0.0
O59 O 0.58103 0.58796 0.48043 0.0
O60 O 0.58241 0.5743 0.52473 0.0
O61 O 0.58109 0.4811 0.4791 0.0
O62 O 0.58228 0.46732 0.52338 0.0
C63 C 0.59971 0.59713 0.50316 0.0
H64 H 0.4385 0.50278 0.61497 0.0
H65 H 0.60923 0.50151 0.61785 0.0
H66 H 0.60883 0.55439 0.38756 0.0
H67 H 0.43833 0.54877 0.38348 0.0
H68 H 0.0885 0.94912 0.40972 0.0
H69 H 0.97942 0.06769 0.4058 0.0
H70 H 0.03145 0.99313 0.48278 0.0
H71 H 0.90968 0.02243 0.4749 0.0
C72 C 0.91699 0.05421 0.4598 0.0
O73 O 0.97051 0.06246 0.4579 0.0
H74 H 0.89966 0.04618 0.44006 0.0
C75 C 0.06379 0.97242 0.41973 0.0
C76 C 0.06313 0.96629 0.44808 0.0
C77 C 0.03382 0.00874 0.40417 0.0
C78 C 0.00356 0.03985 0.41737 0.0
C79 C 0.00208 0.03379 0.44564 0.0
C80 C 0.03246 0.99753 0.46099 0.0
H81 H 0.12656 0.07933 0.59298 0.0
H82 H 0.02251 0.95845 0.59027 0.0
H83 H 0.07753 0.03495 0.51657 0.0
H84 H 0.96418 0.00637 0.51231 0.0
C85 C 0.96456 0.97995 0.53086 0.0
O86 O 0.01589 0.96603 0.53788 0.0
H87 H 0.94696 0.99836 0.54696 0.0
C88 C 0.10512 0.05477 0.58155 0.0
C89 C 0.1067 0.06117 0.55316 0.0
C90 C 0.07479 0.01799 0.59525 0.0
C91 C 0.04659 0.98685 0.58022 0.0
C92 C 0.04756 0.99314 0.552 0.0
C93 C 0.07804 0.02977 0.53846 0.0
H94 H 0.60975 0.45022 0.91346 0.0
H95 H 0.51433 0.57838 0.90747 0.0
H96 H 0.57385 0.51242 0.98511 0.0
H97 H 0.46433 0.5458 0.98537 0.0
C98 C 0.46359 0.57211 0.96676 0.0
O99 O 0.51468 0.58192 0.95927 0.0
H100 H 0.44132 0.5551 0.95085 0.0
C101 C 0.59048 0.47782 0.92299 0.0
C102 C 0.59521 0.47674 0.95118 0.0
C103 C 0.56166 0.51432 0.90694 0.0
C104 C 0.53807 0.5506 0.91936 0.0
C105 C 0.54231 0.54975 0.94745 0.0
C106 C 0.57148 0.5133 0.96334 0.0
H107 H 0.59617 0.60229 0.09131 0.0
H108 H 0.48624 0.48506 0.09261 0.0
H109 H 0.53508 0.55865 0.01677 0.0
H110 H 0.41211 0.53006 0.02078 0.0
C111 C 0.42007 0.50053 0.03744 0.0
O112 O 0.47361 0.49096 0.04036 0.0
H113 H 0.40538 0.51249 0.05629 0.0
C114 C 0.57173 0.57863 0.08064 0.0
C115 C 0.56978 0.58463 0.05222 0.0
C116 C 0.54167 0.543 0.09544 0.0
C117 C 0.50983 0.51274 0.08154 0.0
C118 C 0.5069 0.51876 0.05327 0.0
C119 C 0.53748 0.55413 0.03861 0.0
H120 H 0.13292 0.15668 0.95703 0.0
H121 H 0.19358 0.22427 0.95928 0.0
H122 H 0.21706 0.18304 0.0452 0.0
H123 H 0.15672 0.1155 0.04321 0.0
H124 H 0.17988 0.29994 -0.00845 0.0
H125 H 0.3687 0.20182 0.01736 0.0
H126 H 0.31166 0.17435 0.00303 0.0
H127 H 0.31527 0.18065 0.03844 0.0
C128 C 0.15144 0.16168 0.97636 0.0
C129 C 0.13998 0.13071 -5e-05 0.0
C130 C 0.18603 0.20031 0.97759 0.0
C131 C 0.21025 0.20823 0.00234 0.0
C132 C 0.19949 0.17701 0.02582 0.0
H133 H 0.33519 0.45755 0.0631 0.0
H134 H 0.28566 0.38727 0.05197 0.0
C135 C 0.16473 0.1386 0.02466 0.0
C136 C 0.24409 0.25087 0.00407 0.0
H137 H 0.36741 0.28498 0.02362 0.0
C138 C 0.22104 0.29673 -0.00175 0.0
C139 C 0.29787 0.24654 0.01259 0.0
C140 C 0.3251 0.19822 0.01799 0.0
C141 C 0.24983 0.33835 0.00182 0.0
C142 C 0.30283 0.33384 0.01159 0.0
C143 C 0.32658 0.28818 0.01633 0.0
C144 C 0.33333 0.37601 0.0182 0.0
C145 C 0.22323 0.38685 -0.00457 0.0
C146 C 0.37693 0.39241 0.00308 0.0
C147 C 0.4052 0.43264 0.00937 0.0
C148 C 0.3908 0.4564 0.03116 0.0
C149 C 0.34733 0.43965 0.04634 0.0
C150 C 0.31892 0.39973 0.03994 0.0
H151 H 0.18702 0.38514 0.98239 0.0
H152 H 0.21178 0.39956 0.01458 0.0
H153 H 0.25052 0.41375 0.98516 0.0
H154 H 0.38859 0.37447 0.98625 0.0
H155 H 0.43823 0.44533 -0.00279 0.0
H156 H 0.14116 0.92064 0.9527 0.0
H157 H 0.20924 0.85999 0.95015 0.0
H158 H 0.23058 0.84187 0.03703 0.0
H159 H 0.16162 0.90197 0.03988 0.0
H160 H 0.31462 0.85775 0.96735 0.0
H161 H 0.20403 0.70473 0.02091 0.0
H162 H 0.17313 0.76174 0.00858 0.0
H163 H 0.21295 0.75519 0.03937 0.0
C164 C 0.1602 0.90372 0.97131 0.0
C165 C 0.14565 0.91582 -0.00347 0.0
C166 C 0.19921 0.86916 0.96979 0.0
C167 C 0.22441 0.84601 -0.00659 0.0
C168 C 0.21083 0.85866 0.0186 0.0
H169 H 0.45268 0.61022 0.01431 0.0
H170 H 0.4003 0.68043 0.02169 0.0
C171 C 0.17157 0.89312 0.02017 0.0
C172 C 0.26459 0.80841 -0.00852 0.0
H173 H 0.29057 0.6886 0.00859 0.0
C174 C 0.3095 0.82078 0.97642 0.0
C175 C 0.25771 0.76024 0.00336 0.0
C176 C 0.20918 0.74441 0.01877 0.0
C177 C 0.34769 0.78615 0.97283 0.0
C178 C 0.34037 0.73793 0.98437 0.0
C179 C 0.29606 0.72574 -0.00012 0.0
C180 C 0.3766 0.69887 0.97952 0.0
C181 C 0.39558 0.80139 0.95679 0.0
C182 C 0.38107 0.68644 0.95334 0.0
C183 C 0.41074 0.64626 0.94915 0.0
C184 C 0.43577 0.61762 0.97112 0.0
C185 C 0.43313 0.63129 -0.00287 0.0
C186 C 0.40334 0.67138 0.00134 0.0
H187 H 0.40239 0.84078 0.95553 0.0
H188 H 0.43149 0.78212 0.96588 0.0
H189 H 0.38953 0.79241 0.93589 0.0
H190 H 0.36014 0.70683 0.93629 0.0
H191 H 0.41277 0.63658 0.92888 0.0
H192 H 0.91477 0.88904 0.04088 0.0
H193 H 0.84873 0.82564 0.04069 0.0
H194 H 0.82713 0.85894 0.95417 0.0
H195 H 0.89332 0.92283 0.95411 0.0
H196 H 0.73143 0.84885 0.98277 0.0
H197 H 0.86658 0.69437 0.0127 0.0
H198 H 0.87311 0.74042 0.03447 0.0
H199 H 0.88976 0.7535 -0.00047 0.0
C200 C 0.89619 0.88289 0.02176 0.0
C201 C 0.90954 0.91091 -0.00251 0.0
C202 C 0.85864 0.84641 0.02168 0.0
C203 C 0.83369 0.83709 -0.00263 0.0
C204 C 0.84629 0.86533 0.97312 0.0
H205 H 0.63419 0.57849 0.00975 0.0
H206 H 0.69493 0.6404 0.98958 0.0
C207 C 0.88412 0.90177 0.97314 0.0
C208 C 0.79335 0.7987 -0.00232 0.0
H209 H 0.77433 0.67943 0.01904 0.0
C210 C 0.74086 0.81163 0.99027 0.0
C211 C 0.80586 0.75003 0.00693 0.0
C212 C 0.86198 0.73356 0.0136 0.0
C213 C 0.70004 0.77765 -0.00642 0.0
C214 C 0.71209 0.72976 0.00488 0.0
C215 C 0.76501 0.71622 0.01058 0.0
C216 C 0.67043 0.69459 0.01381 0.0
C217 C 0.64427 0.79358 0.9855 0.0
C218 C 0.6361 0.70474 0.03379 0.0
C219 C 0.6017 0.66962 0.0453 0.0
C220 C 0.60113 0.62342 0.0372 0.0
C221 C 0.63373 0.61384 0.0163 0.0
C222 C 0.66849 0.64908 0.00485 0.0
H223 H 0.64364 0.82473 0.96923 0.0
H224 H 0.62077 0.7639 0.97842 0.0
H225 H 0.62501 0.8051 0.00324 0.0
H226 H 0.63752 0.7392 0.04141 0.0
H227 H 0.57658 0.67816 0.06115 0.0
H228 H 0.90146 0.14833 0.95647 0.0
H229 H 0.84083 0.21525 0.95891 0.0
H230 H 0.84616 0.18565 0.04598 0.0
H231 H 0.90662 0.11825 0.0438 0.0
H232 H 0.74334 0.2033 0.0228 0.0
H233 H 0.88397 0.3448 0.98395 0.0
H234 H 0.87695 0.29823 0.96257 0.0
H235 H 0.90449 0.28398 -0.00359 0.0
C236 C 0.88966 0.15588 0.97615 0.0
C237 C 0.90915 0.12816 -6e-05 0.0
C238 C 0.85529 0.19433 0.97752 0.0
C239 C 0.83993 0.20589 0.00265 0.0
C240 C 0.85799 0.1775 0.02641 0.0
H241 H 0.67206 0.48175 0.99068 0.0
H242 H 0.72975 0.41579 0.01166 0.0
C243 C 0.89249 0.13904 0.02509 0.0
C244 C 0.80466 0.24752 0.00385 0.0
H245 H 0.79242 0.36742 0.98169 0.0
C246 C 0.75426 0.23938 0.01424 0.0
C247 C 0.81952 0.29473 -0.00663 0.0
C248 C 0.8744 0.30615 0.98371 0.0
C249 C 0.71693 0.27675 0.01255 0.0
C250 C 0.7303 0.32304 -0.0002 0.0
C251 C 0.78198 0.33184 -0.00873 0.0
C252 C 0.69006 0.36098 -0.00827 0.0
C253 C 0.66317 0.26598 0.02383 0.0
C254 C 0.6481 0.35181 0.97407 0.0
C255 C 0.61543 0.38917 0.96215 0.0
C256 C 0.62433 0.43658 0.96745 0.0
C257 C 0.66437 0.44546 0.98633 0.0
C258 C 0.69731 0.40791 -0.00176 0.0
H259 H 0.6654 0.2366 0.04111 0.0
H260 H 0.64534 0.2983 0.03068 0.0
H261 H 0.63675 0.25378 0.0079 0.0
H262 H 0.64238 0.3162 0.96826 0.0
H263 H 0.58445 0.38131 0.94788 0.0
H264 H 0.65008 0.6487 0.4612 0.0
H265 H 0.71857 0.70967 0.46394 0.0
H266 H 0.7105 0.69046 0.5509 0.0
H267 H 0.64292 0.629 0.54844 0.0
H268 H 0.71177 0.79511 0.48484 0.0
H269 H 0.86798 0.68017 0.5406 0.0
H270 H 0.8108 0.65551 0.52483 0.0
H271 H 0.80634 0.67621 0.55734 0.0
C272 C 0.66312 0.65725 0.48092 0.0
C273 C 0.6412 0.63389 0.50461 0.0
C274 C 0.70226 0.69204 0.48244 0.0
C275 C 0.72028 0.70392 0.50764 0.0
C276 C 0.69815 0.68095 0.53128 0.0
H277 H 0.91065 0.92169 0.56849 0.0
H278 H 0.85403 0.85303 0.5614 0.0
C279 C 0.65921 0.64607 0.52981 0.0
C280 C 0.76035 0.74199 0.50923 0.0
H281 H 0.87973 0.76532 0.53853 0.0
C282 C 0.7488 0.78851 0.49628 0.0
C283 C 0.80863 0.73319 0.52417 0.0
C284 C 0.82449 0.68346 0.53731 0.0
C285 C 0.78341 0.82691 0.49869 0.0
C286 C 0.83098 0.81831 0.5142 0.0
C287 C 0.84308 0.77167 0.52672 0.0
C288 C 0.86759 0.85782 0.51855 0.0
C289 C 0.76809 0.8767 0.4854 0.0
C290 C 0.89484 0.88222 0.49693 0.0
C291 C 0.92707 0.92129 0.50096 0.0
C292 C 0.93197 0.93671 0.5266 0.0
C293 C 0.90648 0.91094 0.54844 0.0
C294 C 0.87442 0.87179 0.54444 0.0
H295 H 0.72599 0.87878 0.47836 0.0
H296 H 0.77515 0.90359 0.49962 0.0
H297 H 0.79277 0.88672 0.46762 0.0
H298 H 0.89081 0.87129 0.47692 0.0
H299 H 0.94742 0.93988 0.48399 0.0
H300 H 0.64697 0.43243 0.45671 0.0
H301 H 0.70778 0.36547 0.45486 0.0
H302 H 0.70233 0.32877 0.54138 0.0
H303 H 0.641 0.39567 0.54349 0.0
H304 H 0.8087 0.34469 0.48238 0.0
H305 H 0.65834 0.2036 0.5102 0.0
H306 H 0.64066 0.2656 0.49905 0.0
H307 H 0.66731 0.24831 0.53273 0.0
C308 C 0.65879 0.41029 0.4754 0.0
C309 C 0.6388 0.41916 0.50024 0.0
C310 C 0.69365 0.37211 0.47429 0.0
C311 C 0.70897 0.3419 0.49792 0.0
C312 C 0.69032 0.35133 0.52286 0.0
H313 H 0.88668 0.0712 0.51002 0.0
H314 H 0.84113 0.14255 0.52185 0.0
C315 C 0.65548 0.38966 0.52403 0.0
C316 C 0.74344 0.29991 0.49611 0.0
H317 H 0.7434 0.17721 0.50168 0.0
C318 C 0.79464 0.30803 0.48677 0.0
C319 C 0.72493 0.2522 0.50196 0.0
C320 C 0.66971 0.24159 0.51137 0.0
C321 C 0.82771 0.2696 0.48278 0.0
C322 C 0.80857 0.22195 0.48775 0.0
C323 C 0.75794 0.2138 0.49788 0.0
C324 C 0.83905 0.18022 0.48108 0.0
C325 C 0.88282 0.28039 0.47329 0.0
C326 C 0.85283 0.1778 0.45427 0.0
C327 C 0.87865 0.13723 0.44754 0.0
C328 C 0.89037 0.09811 0.46742 0.0
C329 C 0.87746 0.10079 0.49433 0.0
C330 C 0.85161 0.14144 0.50107 0.0
H331 H 0.89681 0.31573 0.47849 0.0
H332 H 0.91113 0.25203 0.4823 0.0
H333 H 0.88286 0.28186 0.45095 0.0
H334 H 0.84263 0.20688 0.43843 0.0
H335 H 0.88871 0.13596 0.42672 0.0
H336 H 0.40066 0.42417 0.4546 0.0
H337 H 0.3405 0.35559 0.4542 0.0
H338 H 0.34563 0.3342 0.54141 0.0
H339 H 0.40556 0.40214 0.54211 0.0
H340 H 0.36613 0.24955 0.51491 0.0
H341 H 0.18204 0.34846 0.47693 0.0
H342 H 0.2415 0.36149 0.45867 0.0
H343 H 0.23676 0.37791 0.49205 0.0
C344 C 0.38863 0.40506 0.47369 0.0
C345 C 0.40791 0.41858 0.4984 0.0
C346 C 0.35423 0.36601 0.47339 0.0
C347 C 0.33863 0.34008 0.49777 0.0
C348 C 0.35734 0.35383 0.52239 0.0
H349 H 0.10701 0.1541 0.5636 0.0
H350 H 0.16265 0.21978 0.54409 0.0
C351 C 0.3915 0.39275 0.52273 0.0
C352 C 0.30387 0.29767 0.49812 0.0
H353 H 0.1751 0.26516 0.49024 0.0
C354 C 0.32452 0.25263 0.50909 0.0
C355 C 0.24973 0.30215 0.4905 0.0
C356 C 0.22577 0.35004 0.47897 0.0
C357 C 0.2919 0.21222 0.5139 0.0
C358 C 0.2373 0.21704 0.50725 0.0
C359 C 0.21707 0.26163 0.49511 0.0
C360 C 0.19984 0.17824 0.5163 0.0
C361 C 0.3155 0.16547 0.52761 0.0
C362 C 0.20139 0.13342 0.50662 0.0
C363 C 0.16985 0.09552 0.51795 0.0
C364 C 0.13651 0.10203 0.53914 0.0
C365 C 0.13324 0.1477 0.54775 0.0
C366 C 0.16458 0.18539 0.53643 0.0
H367 H 0.35689 0.16982 0.53495 0.0
H368 H 0.29175 0.15071 0.54505 0.0
H369 H 0.31524 0.13871 0.51306 0.0
H370 H 0.22792 0.12744 0.49083 0.0
H371 H 0.17296 0.06074 0.51086 0.0
H372 H 0.40034 0.62788 0.54482 0.0
H373 H 0.33396 0.69131 0.54503 0.0
H374 H 0.33296 0.71699 0.45789 0.0
H375 H 0.39951 0.6541 0.45743 0.0
H376 H 0.34127 0.80135 0.48389 0.0
H377 H 0.17591 0.68343 0.52193 0.0
H378 H 0.23699 0.67773 0.54157 0.0
H379 H 0.23409 0.66002 0.50826 0.0
C380 C 0.3859 0.64693 0.52568 0.0
C381 C 0.40516 0.63584 0.50108 0.0
C382 C 0.34781 0.68303 0.52586 0.0
C383 C 0.32824 0.70849 0.50147 0.0
C384 C 0.34755 0.69766 0.47694 0.0
H385 H 0.06629 0.8727 0.43949 0.0
H386 H 0.12975 0.81117 0.45889 0.0
C387 C 0.38551 0.66163 0.47672 0.0
C388 C 0.28806 0.74695 0.5012 0.0
H389 H 0.15774 0.76621 0.5115 0.0
C390 C 0.3013 0.79393 0.49027 0.0
C391 C 0.236 0.73693 0.50952 0.0
C392 C 0.21947 0.6868 0.52083 0.0
C393 C 0.26336 0.83086 0.48642 0.0
C394 C 0.2109 0.8206 0.49407 0.0
C395 C 0.19812 0.77401 0.50595 0.0
C396 C 0.16762 0.85571 0.48617 0.0
C397 C 0.279 0.87984 0.47275 0.0
C398 C 0.16641 0.90054 0.49591 0.0
C399 C 0.13012 0.93599 0.48472 0.0
C400 C 0.09483 0.92694 0.46362 0.0
C401 C 0.09372 0.88086 0.4554 0.0
C402 C 0.12972 0.8456 0.46658 0.0
H403 H 0.31907 0.87965 0.46443 0.0
H404 H 0.25035 0.89267 0.45601 0.0
H405 H 0.27882 0.90599 0.48763 0.0
H406 H 0.19485 0.90873 0.51135 0.0
H407 H 0.13164 0.97118 0.49148 0.0
H408 H 0.96914 0.95802 0.15599 0.0
H409 H 0.96994 0.9661 0.20424 0.0
H410 H 0.10034 0.06485 0.19394 0.0
H411 H 0.09929 0.05779 0.14559 0.0
H412 H 0.11304 0.98897 0.23797 0.0
H413 H 0.92205 0.08578 0.23861 0.0
H414 H 0.91901 0.03191 0.22262 0.0
H415 H 0.95707 0.0822 0.20801 0.0
C416 C 0.99764 0.98184 0.16393 0.0
C417 C 0.0341 0.00731 0.14695 0.0
C418 C 0.99801 0.98641 0.19146 0.0
C419 C 0.0347 0.01659 0.20245 0.0
C420 C 0.0716 0.04154 0.18572 0.0
H421 H 0.03651 0.09089 0.36765 0.0
H422 H 0.03797 0.09644 0.31817 0.0
C423 C 0.07118 0.03714 0.15817 0.0
C424 C 0.03561 0.02088 0.23163 0.0
H425 H 0.96111 0.05505 0.28156 0.0
C426 C 0.08006 0.00377 0.2475 0.0
C427 C 0.99275 0.04081 0.24382 0.0
C428 C 0.94515 0.06166 0.2274 0.0
C429 C 0.08194 0.00441 0.27555 0.0
C430 C 0.03808 0.02229 0.2879 0.0
C431 C 0.99445 0.04108 0.27193 0.0
C432 C 0.03586 0.01943 0.31756 0.0
C433 C 0.13058 0.9856 0.29183 0.0
C434 C 0.03303 0.97438 0.3333 0.0
C435 C 0.03168 0.97109 0.36136 0.0
C436 C 0.03328 0.01286 0.37423 0.0
C437 C 0.03498 0.05811 0.35832 0.0
C438 C 0.03608 0.06135 0.33013 0.0
H439 H 0.16512 0.98391 0.27888 0.0
H440 H 0.1407 0.00857 0.30779 0.0
H441 H 0.12281 0.94869 0.3019 0.0
H442 H 0.03179 0.94171 0.32382 0.0
H443 H 0.02909 0.93576 0.37299 0.0
H444 H 0.09269 0.98261 0.85446 0.0
H445 H 0.09892 0.97821 0.80609 0.0
H446 H 0.97078 0.08002 0.78907 0.0
H447 H 0.96493 0.08543 0.83758 0.0
H448 H 0.01797 0.95187 0.76925 0.0
H449 H 0.09306 0.13774 0.74145 0.0
H450 H 0.09463 0.10825 0.77589 0.0
H451 H 0.0338 0.13264 0.76039 0.0
C452 C 0.06617 0.00447 0.84042 0.0
C453 C 0.02868 0.03479 0.84976 0.0
C454 C 0.06954 0.00161 0.81285 0.0
C455 C 0.03572 0.02917 0.7941 0.0
C456 C 0.99766 0.05895 0.80329 0.0
H457 H 0.98514 0.00238 0.62392 0.0
H458 H 0.97568 0.00227 0.67251 0.0
C459 C 0.9941 0.06172 0.83095 0.0
C460 C 0.04057 0.02648 0.76494 0.0
H461 H 0.07531 0.09184 0.70568 0.0
C462 C 0.03037 0.98244 0.75529 0.0
C463 C 0.05744 0.06633 0.74699 0.0
C464 C 0.07082 0.11389 0.75662 0.0
C465 C 0.03623 0.97727 0.72797 0.0
C466 C 0.05227 0.01734 0.70994 0.0
C467 C 0.06281 0.06129 0.71963 0.0
C468 C 0.05852 0.01448 0.68089 0.0
C469 C 0.02618 0.92887 0.71867 0.0
C470 C 0.10825 0.02152 0.6696 0.0
C471 C 0.11389 0.02133 0.64188 0.0
C472 C 0.06975 0.01447 0.62496 0.0
C473 C 0.02007 0.00684 0.63646 0.0
C474 C 0.01452 0.00692 0.66419 0.0
H475 H 0.02568 0.89949 0.73593 0.0
H476 H 0.98724 0.92959 0.70774 0.0
H477 H 0.05672 0.92049 0.70454 0.0
H478 H 0.14263 0.02745 0.68225 0.0
H479 H 0.15273 0.02684 0.63366 0.0
H480 H 0.58659 0.44619 0.65802 0.0
H481 H 0.58976 0.44626 0.70711 0.0
H482 H 0.46565 0.55292 0.69924 0.0
H483 H 0.46235 0.55325 0.6502 0.0
H484 H 0.61192 0.52468 0.73458 0.0
H485 H 0.41365 0.45003 0.75839 0.0
H486 H 0.444 0.44584 0.72657 0.0
H487 H 0.4129 0.50097 0.73248 0.0
C488 C 0.55992 0.46959 0.66677 0.0
C489 C 0.52412 0.49962 0.65028 0.0
C490 C 0.56164 0.46944 0.69477 0.0
C491 C 0.52748 0.49914 0.70675 0.0
C492 C 0.49152 0.52896 0.6904 0.0
H493 H 0.56782 0.5896 0.86626 0.0
H494 H 0.55843 0.5866 0.81745 0.0
C495 C 0.48969 0.52908 0.66241 0.0
C496 C 0.53125 0.50068 0.73623 0.0
H497 H 0.46095 0.48276 0.79373 0.0
C498 C 0.57902 0.51537 0.74756 0.0
C499 C 0.48834 0.48807 0.75305 0.0
C500 C 0.43695 0.4699 0.7421 0.0
C501 C 0.58485 0.51842 0.77532 0.0
C502 C 0.54144 0.50724 0.792 0.0
C503 C 0.4939 0.49187 0.78075 0.0
C504 C 0.54517 0.50973 0.82138 0.0
C505 C 0.63765 0.53274 0.78665 0.0
C506 C 0.53925 0.46777 0.83961 0.0
C507 C 0.5441 0.46944 0.86739 0.0
C508 C 0.55483 0.51319 0.87743 0.0
C509 C 0.55949 0.55543 0.8591 0.0
C510 C 0.55462 0.5537 0.83127 0.0
H511 H 0.66984 0.52906 0.77249 0.0
H512 H 0.63588 0.57095 0.79023 0.0
H513 H 0.64769 0.51049 0.80625 0.0
H514 H 0.53152 0.43359 0.83232 0.0
H515 H 0.53929 0.43647 0.88104 0.0
H516 H 0.58306 0.60902 0.34557 0.0
H517 H 0.58728 0.60682 0.29671 0.0
H518 H 0.4717 0.49336 0.30183 0.0
H519 H 0.46759 0.49495 0.35067 0.0
H520 H 0.57025 0.47867 0.27274 0.0
H521 H 0.46515 0.65164 0.23866 0.0
H522 H 0.5173 0.65254 0.26402 0.0
H523 H 0.45836 0.61907 0.27208 0.0
C524 C 0.55857 0.58363 0.33625 0.0
C525 C 0.52483 0.55228 0.35186 0.0
C526 C 0.56082 0.58261 0.3084 0.0
C527 C 0.52955 0.55014 0.29581 0.0
C528 C 0.49592 0.51878 0.31129 0.0
H529 H 0.45611 0.5345 0.12724 0.0
H530 H 0.45481 0.53381 0.17633 0.0
C531 C 0.49336 0.51999 0.33908 0.0
C532 C 0.53246 0.54821 0.26651 0.0
H533 H 0.49993 0.6105 0.20479 0.0
C534 C 0.55499 0.50744 0.25782 0.0
C535 C 0.51217 0.58578 0.24731 0.0
C536 C 0.48651 0.62971 0.25582 0.0
C537 C 0.55801 0.50337 0.2302 0.0
C538 C 0.53806 0.54111 0.21098 0.0
C539 C 0.5153 0.58177 0.21969 0.0
C540 C 0.53957 0.53881 0.18166 0.0
C541 C 0.58167 0.45854 0.2217 0.0
C542 C 0.58775 0.54167 0.16859 0.0
C543 C 0.58864 0.54202 0.14059 0.0
C544 C 0.54132 0.53943 0.1253 0.0
C545 C 0.4932 0.53584 0.13857 0.0
C546 C 0.49235 0.53577 0.16652 0.0
H547 H 0.58652 0.42926 0.23891 0.0
H548 H 0.55661 0.44529 0.20554 0.0
H549 H 0.6211 0.46712 0.2134 0.0
H550 H 0.62452 0.54452 0.17999 0.0
H551 H 0.62626 0.54459 0.13087 0.0
loop_
_geom_bond_atom_site_label_1
_geom_bond_atom_site_label_2
_geom_bond_distance
_geom_bond_site_symmetry_2
_ccdc_geom_bond_type
C0 O16 1.251 . S
C0 O18 1.254 1_554 S
N1 C2 1.309 1_445 S
N1 C6 1.307 . S
N1 Zn7 2.020 . S
C2 N1 1.309 1_665 S
C2 C3 1.382 . S
C2 H20 0.974 . S
C3 C2 1.382 . S
C3 C4 1.390 1_665 S
C3 H30 0.949 . S
C4 C3 1.390 1_445 S
C4 C5 1.357 . S
C5 C4 1.357 . S
C5 C6 1.370 . S
C5 H31 0.950 . S
C6 N1 1.307 . S
C6 C5 1.370 . S
C6 H24 0.948 . S
Zn7 N1 2.020 . S
Zn7 O16 2.039 1_445 S
Zn7 O22 2.034 1_455 S
Zn7 O26 2.025 . S
Zn7 O28 2.024 1_545 S
C8 O27 1.246 1_554 S
C8 O28 1.249 . S
N9 C10 1.307 1_455 S
N9 C11 1.333 . S
N9 Zn15 2.020 . S
C10 N9 1.307 1_655 S
C10 C14 1.370 . S
C10 H21 0.948 . S
C11 N9 1.333 . S
C11 C12 1.379 . S
C11 H19 0.952 . S
C12 C11 1.379 . S
C12 C13 1.390 . S
C12 H32 0.949 . S
C13 C12 1.390 . S
C13 C14 1.357 1_455 S
C14 C10 1.370 . S
C14 C13 1.357 1_655 S
C14 H33 0.950 . S
Zn15 N9 2.020 . S
Zn15 O18 2.025 1_445 S
Zn15 O23 2.024 1_455 S
Zn15 O25 2.039 . S
Zn15 O27 2.034 1_545 S
O16 C0 1.251 . S
O16 Zn7 2.039 1_665 S
C17 O22 1.246 . S
C17 O23 1.249 1_554 S
O18 C0 1.254 1_556 S
O18 Zn15 2.025 1_665 S
H19 C11 0.952 . S
H20 C2 0.974 . S
H21 C10 0.948 . S
O22 Zn7 2.034 1_655 S
O22 C17 1.246 . S
O23 Zn15 2.024 1_655 S
O23 C17 1.249 1_556 S
H24 C6 0.948 . S
O25 Zn15 2.039 . S
O25 C29 1.251 1_556 S
O26 Zn7 2.025 . S
O26 C29 1.254 . S
O27 C8 1.246 1_556 S
O27 Zn15 2.034 1_565 S
O28 Zn7 2.024 1_565 S
O28 C8 1.249 . S
C29 O25 1.251 1_554 S
C29 O26 1.254 . S
H30 C3 0.949 . S
H31 C5 0.950 . S
H32 C12 0.949 . S
H33 C14 0.950 . S
C34 O50 1.251 . S
C34 O52 1.254 . S
N35 C36 1.333 . S
N35 C40 1.307 . S
N35 Zn41 2.020 . S
C36 N35 1.333 . S
C36 C37 1.379 . S
C36 H54 0.952 . S
C37 C36 1.379 . S
C37 C38 1.390 . S
C37 H64 0.949 . S
C38 C37 1.390 . S
C38 C39 1.357 . S
C39 C38 1.357 . S
C39 C40 1.370 . S
C39 H65 0.950 . S
C40 N35 1.307 . S
C40 C39 1.370 . S
C40 H58 0.948 . S
Zn41 N35 2.020 . S
Zn41 O50 2.039 . S
Zn41 O56 2.034 . S
Zn41 O60 2.025 . S
Zn41 O62 2.024 . S
C42 O61 1.246 . S
C42 O62 1.249 . S
N43 C44 1.307 . S
N43 C45 1.333 . S
N43 Zn49 2.020 . S
C44 N43 1.307 . S
C44 C48 1.370 . S
C44 H55 0.948 . S
C45 N43 1.333 . S
C45 C46 1.379 . S
C45 H53 0.952 . S
C46 C45 1.379 . S
C46 C47 1.390 . S
C46 H66 0.949 . S
C47 C46 1.390 . S
C47 C48 1.357 . S
C48 C44 1.370 . S
C48 C47 1.357 . S
C48 H67 0.950 . S
Zn49 N43 2.020 . S
Zn49 O52 2.025 . S
Zn49 O57 2.024 . S
Zn49 O59 2.039 . S
Zn49 O61 2.034 . S
O50 C34 1.251 . S
O50 Zn41 2.039 . S
C51 O56 1.246 . S
C51 O57 1.249 . S
O52 C34 1.254 . S
O52 Zn49 2.025 . S
H53 C45 0.952 . S
H54 C36 0.952 . S
H55 C44 0.948 . S
O56 Zn41 2.034 . S
O56 C51 1.246 . S
O57 Zn49 2.024 . S
O57 C51 1.249 . S
H58 C40 0.948 . S
O59 Zn49 2.039 . S
O59 C63 1.251 . S
O60 Zn41 2.025 . S
O60 C63 1.254 . S
O61 C42 1.246 . S
O61 Zn49 2.034 . S
O62 Zn41 2.024 . S
O62 C42 1.249 . S
C63 O59 1.251 . S
C63 O60 1.254 . S
H64 C37 0.949 . S
H65 C39 0.950 . S
H66 C46 0.949 . S
H67 C48 0.950 . S
H68 C75 0.929 . S
H69 C78 0.930 . S
H70 C80 0.929 . S
H71 C72 0.969 . S
C72 H71 0.969 . S
C72 O73 1.550 . S
C72 H74 0.973 . S
O73 C72 1.550 . S
O73 C79 1.412 . S
H74 C72 0.973 . S
C75 H68 0.929 . S
C75 C76 1.400 . S
C75 C77 1.364 . S
C76 C75 1.400 . S
C76 C80 1.377 . S
C77 C75 1.364 . S
C77 C78 1.374 1_465 S
C78 H69 0.930 . S
C78 C77 1.374 1_645 S
C78 C79 1.383 . S
C79 O73 1.412 . S
C79 C78 1.383 . S
C79 C80 1.394 1_645 S
C80 H70 0.929 . S
C80 C76 1.377 . S
C80 C79 1.394 1_465 S
H81 C88 0.929 . S
H82 C91 0.928 1_665 S
H83 C93 0.929 . S
H84 C85 0.969 . S
C85 H84 0.969 . S
C85 O86 1.550 . S
C85 H87 0.973 . S
O86 C85 1.550 . S
O86 C92 1.412 1_665 S
H87 C85 0.973 . S
C88 H81 0.929 . S
C88 C89 1.400 . S
C88 C90 1.364 . S
C89 C88 1.400 . S
C89 C93 1.377 . S
C90 C88 1.364 . S
C90 C91 1.374 . S
C91 H82 0.928 1_445 S
C91 C90 1.374 . S
C91 C92 1.383 . S
C92 O86 1.412 1_445 S
C92 C91 1.383 . S
C92 C93 1.394 . S
C93 H83 0.929 . S
C93 C89 1.377 . S
C93 C92 1.394 . S
H94 C101 0.929 . S
H95 C104 0.930 . S
H96 C106 0.929 1_554 S
H97 C98 0.969 . S
C98 H97 0.969 . S
C98 O99 1.550 . S
C98 H100 0.973 . S
O99 C98 1.550 . S
O99 C105 1.412 . S
H100 C98 0.973 . S
C101 H94 0.929 . S
C101 C102 1.400 . S
C101 C103 1.364 . S
C102 C101 1.400 . S
C102 C106 1.377 . S
C103 C101 1.364 . S
C103 C104 1.374 . S
C104 H95 0.930 . S
C104 C103 1.374 . S
C104 C105 1.383 . S
C105 O99 1.412 . S
C105 C104 1.383 . S
C105 C106 1.394 . S
C106 H96 0.929 1_556 S
C106 C102 1.377 . S
C106 C105 1.394 . S
H107 C114 0.929 . S
H108 C117 0.930 . S
H109 C119 0.929 . S
H110 C111 0.969 . S
C111 H110 0.969 . S
C111 O112 1.550 . S
C111 H113 0.973 . S
O112 C111 1.550 . S
O112 C118 1.412 . S
H113 C111 0.973 . S
C114 H107 0.929 . S
C114 C115 1.400 . S
C114 C116 1.364 . S
C115 C114 1.400 . S
C115 C119 1.377 . S
C116 C114 1.364 . S
C116 C117 1.374 . S
C117 H108 0.930 . S
C117 C116 1.374 . S
C117 C118 1.383 . S
C118 O112 1.412 . S
C118 C117 1.383 . S
C118 C119 1.394 . S
C119 H109 0.929 . S
C119 C115 1.377 . S
C119 C118 1.394 . S
H120 C128 0.929 . S
H121 C130 0.930 . S
H122 C132 0.930 . S
H123 C135 0.929 . S
H124 C138 0.930 . S
H125 C140 0.960 . S
H126 C140 0.960 . S
H127 C140 0.960 . S
C128 H120 0.929 . S
C128 C129 1.377 1_556 S
C128 C130 1.384 . S
C129 C128 1.377 1_554 S
C129 C135 1.390 . S
C130 H121 0.930 . S
C130 C128 1.384 . S
C130 C131 1.372 1_556 S
C131 C130 1.372 1_554 S
C131 C132 1.400 . S
C131 C136 1.490 . S
C132 H122 0.930 . S
C132 C131 1.400 . S
C132 C135 1.386 . S
H133 C149 0.930 . S
H134 C150 0.931 . S
C135 H123 0.929 . S
C135 C129 1.390 . S
C135 C132 1.386 . S
C136 C131 1.490 . S
C136 C138 1.395 . S
C136 C139 1.403 . S
H137 C143 0.930 . S
C138 H124 0.930 . S
C138 C136 1.395 . S
C138 C141 1.403 . S
C139 C136 1.403 . S
C139 C140 1.524 . S
C139 C143 1.400 . S
C140 H125 0.960 . S
C140 H126 0.960 . S
C140 H127 0.960 . S
C140 C139 1.524 . S
C141 C138 1.403 . S
C141 C142 1.392 . S
C141 C145 1.495 . S
C142 C141 1.392 . S
C142 C143 1.385 . S
C142 C144 1.478 . S
C143 H137 0.930 . S
C143 C139 1.400 . S
C143 C142 1.385 . S
C144 C142 1.478 . S
C144 C146 1.381 1_554 S
C144 C150 1.383 . S
C145 C141 1.495 . S
C145 H151 0.957 1_554 S
C145 H152 0.961 . S
C145 H153 0.960 1_554 S
C146 C144 1.381 1_556 S
C146 C147 1.394 . S
C146 H154 0.930 . S
C147 C146 1.394 . S
C147 C148 1.383 1_556 S
C147 H155 0.929 . S
C148 C147 1.383 1_554 S
C148 C149 1.377 . S
C149 H133 0.930 . S
C149 C148 1.377 . S
C149 C150 1.379 . S
C150 H134 0.931 . S
C150 C144 1.383 . S
C150 C149 1.379 . S
H151 C145 0.957 1_556 S
H152 C145 0.961 . S
H153 C145 0.960 1_556 S
H154 C146 0.930 . S
H155 C147 0.929 . S
H156 C164 0.929 . S
H157 C166 0.930 . S
H158 C168 0.930 . S
H159 C171 0.929 . S
H160 C174 0.930 . S
H161 C176 0.960 . S
H162 C176 0.960 . S
H163 C176 0.960 . S
C164 H156 0.929 . S
C164 C165 1.377 1_556 S
C164 C166 1.384 . S
C165 C164 1.377 1_554 S
C165 C171 1.390 . S
C166 H157 0.930 . S
C166 C164 1.384 . S
C166 C167 1.372 1_556 S
C167 C166 1.372 1_554 S
C167 C168 1.400 . S
C167 C172 1.490 . S
C168 H158 0.930 . S
C168 C167 1.400 . S
C168 C171 1.386 . S
H169 C185 0.930 . S
H170 C186 0.931 . S
C171 H159 0.929 . S
C171 C165 1.390 . S
C171 C168 1.386 . S
C172 C167 1.490 . S
C172 C174 1.395 1_554 S
C172 C175 1.403 . S
H173 C179 0.930 . S
C174 H160 0.930 . S
C174 C172 1.395 1_556 S
C174 C177 1.403 . S
C175 C172 1.403 . S
C175 C176 1.524 . S
C175 C179 1.400 . S
C176 H161 0.960 . S
C176 H162 0.960 . S
C176 H163 0.960 . S
C176 C175 1.524 . S
C177 C174 1.403 . S
C177 C178 1.392 . S
C177 C181 1.495 . S
C178 C177 1.392 . S
C178 C179 1.385 1_556 S
C178 C180 1.478 . S
C179 H173 0.930 . S
C179 C175 1.400 . S
C179 C178 1.385 1_554 S
C180 C178 1.478 . S
C180 C182 1.381 . S
C180 C186 1.383 1_556 S
C181 C177 1.495 . S
C181 H187 0.959 . S
C181 H188 0.961 . S
C181 H189 0.960 . S
C182 C180 1.381 . S
C182 C183 1.394 . S
C182 H190 0.930 . S
C183 C182 1.394 . S
C183 C184 1.383 . S
C183 H191 0.929 . S
C184 C183 1.383 . S
C184 C185 1.377 1_556 S
C185 H169 0.930 . S
C185 C184 1.377 1_554 S
C185 C186 1.379 . S
C186 H170 0.931 . S
C186 C180 1.383 1_554 S
C186 C185 1.379 . S
H187 C181 0.959 . S
H188 C181 0.961 . S
H189 C181 0.960 . S
H190 C182 0.930 . S
H191 C183 0.929 . S
H192 C200 0.929 . S
H193 C202 0.930 . S
H194 C204 0.930 . S
H195 C207 0.929 1_556 S
H196 C210 0.930 . S
H197 C212 0.960 . S
H198 C212 0.960 . S
H199 C212 0.960 . S
C200 H192 0.929 . S
C200 C201 1.377 . S
C200 C202 1.384 . S
C201 C200 1.377 . S
C201 C207 1.390 . S
C202 H193 0.930 . S
C202 C200 1.384 . S
C202 C203 1.372 . S
C203 C202 1.372 . S
C203 C204 1.400 . S
C203 C208 1.490 . S
C204 H194 0.930 . S
C204 C203 1.400 . S
C204 C207 1.386 . S
H205 C221 0.930 . S
H206 C222 0.931 . S
C207 H195 0.929 1_554 S
C207 C201 1.390 . S
C207 C204 1.386 . S
C208 C203 1.490 . S
C208 C210 1.395 . S
C208 C211 1.403 . S
H209 C215 0.930 . S
C210 H196 0.930 . S
C210 C208 1.395 . S
C210 C213 1.403 . S
C211 C208 1.403 . S
C211 C212 1.524 . S
C211 C215 1.400 . S
C212 H197 0.960 . S
C212 H198 0.960 . S
C212 H199 0.960 . S
C212 C211 1.524 . S
C213 C210 1.403 . S
C213 C214 1.392 . S
C213 C217 1.506 . S
C214 C213 1.392 . S
C214 C215 1.385 . S
C214 C216 1.478 . S
C215 H209 0.930 . S
C215 C211 1.400 . S
C215 C214 1.385 . S
C216 C214 1.478 . S
C216 C218 1.381 . S
C216 C222 1.383 . S
C217 C213 1.506 . S
C217 H223 0.951 1_554 S
C217 H224 0.938 1_554 S
C217 H225 0.980 . S
C218 C216 1.381 . S
C218 C219 1.394 . S
C218 H226 0.930 . S
C219 C218 1.394 . S
C219 C220 1.383 . S
C219 H227 0.929 . S
C220 C219 1.383 . S
C220 C221 1.377 . S
C221 H205 0.930 . S
C221 C220 1.377 . S
C221 C222 1.379 . S
C222 H206 0.931 . S
C222 C216 1.383 . S
C222 C221 1.379 . S
H223 C217 0.951 1_556 S
H224 C217 0.938 1_556 S
H225 C217 0.980 . S
H226 C218 0.930 . S
H227 C219 0.929 . S
H228 C236 0.929 . S
H229 C238 0.930 . S
H230 C240 0.930 . S
H231 C243 0.929 . S
H232 C246 0.930 . S
H233 C248 0.960 . S
H234 C248 0.960 . S
H235 C248 0.960 . S
C236 H228 0.929 . S
C236 C237 1.377 1_556 S
C236 C238 1.384 . S
C237 C236 1.377 1_554 S
C237 C243 1.390 . S
C238 H229 0.930 . S
C238 C236 1.384 . S
C238 C239 1.372 . S
C239 C238 1.372 . S
C239 C240 1.400 1_556 S
C239 C244 1.490 . S
C240 H230 0.930 . S
C240 C239 1.400 1_554 S
C240 C243 1.386 . S
H241 C257 0.930 1_554 S
H242 C258 0.930 1_554 S
C243 H231 0.929 . S
C243 C237 1.390 . S
C243 C240 1.386 . S
C244 C239 1.490 . S
C244 C246 1.395 1_556 S
C244 C247 1.403 . S
H245 C251 0.930 . S
C246 H232 0.930 . S
C246 C244 1.395 1_554 S
C246 C249 1.403 . S
C247 C244 1.403 . S
C247 C248 1.524 . S
C247 C251 1.400 . S
C248 H233 0.960 . S
C248 H234 0.960 . S
C248 H235 0.960 . S
C248 C247 1.524 . S
C249 C246 1.403 . S
C249 C250 1.392 1_554 S
C249 C253 1.495 . S
C250 C249 1.392 1_556 S
C250 C251 1.385 . S
C250 C252 1.478 . S
C251 H245 0.930 . S
C251 C247 1.400 . S
C251 C250 1.385 . S
C252 C250 1.478 . S
C252 C254 1.381 . S
C252 C258 1.384 . S
C253 C249 1.495 . S
C253 H259 0.959 . S
C253 H260 0.961 . S
C253 H261 0.960 . S
C254 C252 1.381 . S
C254 C255 1.394 . S
C254 H262 0.930 . S
C255 C254 1.394 . S
C255 C256 1.383 . S
C255 H263 0.929 . S
C256 C255 1.383 . S
C256 C257 1.377 . S
C257 H241 0.930 1_556 S
C257 C256 1.377 . S
C257 C258 1.380 . S
C258 H242 0.930 1_556 S
C258 C252 1.384 . S
C258 C257 1.380 . S
H259 C253 0.959 . S
H260 C253 0.961 . S
H261 C253 0.960 . S
H262 C254 0.930 . S
H263 C255 0.929 . S
H264 C272 0.929 . S
H265 C274 0.930 . S
H266 C276 0.930 . S
H267 C279 0.929 . S
H268 C282 0.930 . S
H269 C284 0.960 . S
H270 C284 0.960 . S
H271 C284 0.960 . S
C272 H264 0.929 . S
C272 C273 1.377 . S
C272 C274 1.384 . S
C273 C272 1.377 . S
C273 C279 1.390 . S
C274 H265 0.930 . S
C274 C272 1.384 . S
C274 C275 1.372 . S
C275 C274 1.372 . S
C275 C276 1.400 . S
C275 C280 1.490 . S
C276 H266 0.930 . S
C276 C275 1.400 . S
C276 C279 1.386 . S
H277 C293 0.930 . S
H278 C294 0.931 . S
C279 H267 0.929 . S
C279 C273 1.390 . S
C279 C276 1.386 . S
C280 C275 1.490 . S
C280 C282 1.395 . S
C280 C283 1.403 . S
H281 C287 0.930 . S
C282 H268 0.930 . S
C282 C280 1.395 . S
C282 C285 1.403 . S
C283 C280 1.403 . S
C283 C284 1.524 . S
C283 C287 1.400 . S
C284 H269 0.960 . S
C284 H270 0.960 . S
C284 H271 0.960 . S
C284 C283 1.524 . S
C285 C282 1.403 . S
C285 C286 1.392 . S
C285 C289 1.495 . S
C286 C285 1.392 . S
C286 C287 1.385 . S
C286 C288 1.478 . S
C287 H281 0.930 . S
C287 C283 1.400 . S
C287 C286 1.385 . S
C288 C286 1.478 . S
C288 C290 1.381 . S
C288 C294 1.383 . S
C289 C285 1.495 . S
C289 H295 0.959 . S
C289 H296 0.961 . S
C289 H297 0.960 . S
C290 C288 1.381 . S
C290 C291 1.394 . S
C290 H298 0.930 . S
C291 C290 1.394 . S
C291 C292 1.383 . S
C291 H299 0.929 . S
C292 C291 1.383 . S
C292 C293 1.377 . S
C293 H277 0.930 . S
C293 C292 1.377 . S
C293 C294 1.379 . S
C294 H278 0.931 . S
C294 C288 1.383 . S
C294 C293 1.379 . S
H295 C289 0.959 . S
H296 C289 0.961 . S
H297 C289 0.960 . S
H298 C290 0.930 . S
H299 C291 0.929 . S
H300 C308 0.929 . S
H301 C310 0.930 . S
H302 C312 0.930 . S
H303 C315 0.929 . S
H304 C318 0.930 . S
H305 C320 0.960 . S
H306 C320 0.960 . S
H307 C320 0.960 . S
C308 H300 0.929 . S
C308 C309 1.377 . S
C308 C310 1.384 . S
C309 C308 1.377 . S
C309 C315 1.390 . S
C310 H301 0.930 . S
C310 C308 1.384 . S
C310 C311 1.372 . S
C311 C310 1.372 . S
C311 C312 1.400 . S
C311 C316 1.490 . S
C312 H302 0.930 . S
C312 C311 1.400 . S
C312 C315 1.386 . S
H313 C329 0.930 . S
H314 C330 0.931 . S
C315 H303 0.929 . S
C315 C309 1.390 . S
C315 C312 1.386 . S
C316 C311 1.490 . S
C316 C318 1.395 . S
C316 C319 1.403 . S
H317 C323 0.930 . S
C318 H304 0.930 . S
C318 C316 1.395 . S
C318 C321 1.403 . S
C319 C316 1.403 . S
C319 C320 1.524 . S
C319 C323 1.400 . S
C320 H305 0.960 . S
C320 H306 0.960 . S
C320 H307 0.960 . S
C320 C319 1.524 . S
C321 C318 1.403 . S
C321 C322 1.392 . S
C321 C325 1.495 . S
C322 C321 1.392 . S
C322 C323 1.385 . S
C322 C324 1.478 . S
C323 H317 0.930 . S
C323 C319 1.400 . S
C323 C322 1.385 . S
C324 C322 1.478 . S
C324 C326 1.381 . S
C324 C330 1.383 . S
C325 C321 1.495 . S
C325 H331 0.959 . S
C325 H332 0.961 . S
C325 H333 0.960 . S
C326 C324 1.381 . S
C326 C327 1.394 . S
C326 H334 0.930 . S
C327 C326 1.394 . S
C327 C328 1.383 . S
C327 H335 0.929 . S
C328 C327 1.383 . S
C328 C329 1.377 . S
C329 H313 0.930 . S
C329 C328 1.377 . S
C329 C330 1.379 . S
C330 H314 0.931 . S
C330 C324 1.383 . S
C330 C329 1.379 . S
H331 C325 0.959 . S
H332 C325 0.961 . S
H333 C325 0.960 . S
H334 C326 0.930 . S
H335 C327 0.929 . S
H336 C344 0.929 . S
H337 C346 0.930 . S
H338 C348 0.930 . S
H339 C351 0.929 . S
H340 C354 0.930 . S
H341 C356 0.960 . S
H342 C356 0.960 . S
H343 C356 0.960 . S
C344 H336 0.929 . S
C344 C345 1.377 . S
C344 C346 1.384 . S
C345 C344 1.377 . S
C345 C351 1.390 . S
C346 H337 0.930 . S
C346 C344 1.384 . S
C346 C347 1.372 . S
C347 C346 1.372 . S
C347 C348 1.400 . S
C347 C352 1.490 . S
C348 H338 0.930 . S
C348 C347 1.400 . S
C348 C351 1.386 . S
H349 C365 0.930 . S
H350 C366 0.931 . S
C351 H339 0.929 . S
C351 C345 1.390 . S
C351 C348 1.386 . S
C352 C347 1.490 . S
C352 C354 1.395 . S
C352 C355 1.403 . S
H353 C359 0.930 . S
C354 H340 0.930 . S
C354 C352 1.395 . S
C354 C357 1.403 . S
C355 C352 1.403 . S
C355 C356 1.524 . S
C355 C359 1.400 . S
C356 H341 0.960 . S
C356 H342 0.960 . S
C356 H343 0.960 . S
C356 C355 1.524 . S
C357 C354 1.403 . S
C357 C358 1.392 . S
C357 C361 1.495 . S
C358 C357 1.392 . S
C358 C359 1.385 . S
C358 C360 1.478 . S
C359 H353 0.930 . S
C359 C355 1.400 . S
C359 C358 1.385 . S
C360 C358 1.478 . S
C360 C362 1.381 . S
C360 C366 1.383 . S
C361 C357 1.495 . S
C361 H367 0.959 . S
C361 H368 0.961 . S
C361 H369 0.960 . S
C362 C360 1.381 . S
C362 C363 1.394 . S
C362 H370 0.930 . S
C363 C362 1.394 . S
C363 C364 1.383 . S
C363 H371 0.929 . S
C364 C363 1.383 . S
C364 C365 1.377 . S
C365 H349 0.930 . S
C365 C364 1.377 . S
C365 C366 1.379 . S
C366 H350 0.931 . S
C366 C360 1.383 . S
C366 C365 1.379 . S
H367 C361 0.959 . S
H368 C361 0.961 . S
H369 C361 0.960 . S
H370 C362 0.930 . S
H371 C363 0.929 . S
H372 C380 0.929 . S
H373 C382 0.930 . S
H374 C384 0.930 . S
H375 C387 0.929 . S
H376 C390 0.930 . S
H377 C392 0.960 . S
H378 C392 0.960 . S
H379 C392 0.960 . S
C380 H372 0.929 . S
C380 C381 1.377 . S
C380 C382 1.384 . S
C381 C380 1.377 . S
C381 C387 1.390 . S
C382 H373 0.930 . S
C382 C380 1.384 . S
C382 C383 1.372 . S
C383 C382 1.372 . S
C383 C384 1.400 . S
C383 C388 1.490 . S
C384 H374 0.930 . S
C384 C383 1.400 . S
C384 C387 1.386 . S
H385 C401 0.930 . S
H386 C402 0.931 . S
C387 H375 0.929 . S
C387 C381 1.390 . S
C387 C384 1.386 . S
C388 C383 1.490 . S
C388 C390 1.395 . S
C388 C391 1.403 . S
H389 C395 0.930 . S
C390 H376 0.930 . S
C390 C388 1.395 . S
C390 C393 1.403 . S
C391 C388 1.403 . S
C391 C392 1.524 . S
C391 C395 1.400 . S
C392 H377 0.960 . S
C392 H378 0.960 . S
C392 H379 0.960 . S
C392 C391 1.524 . S
C393 C390 1.403 . S
C393 C394 1.392 . S
C393 C397 1.495 . S
C394 C393 1.392 . S
C394 C395 1.385 . S
C394 C396 1.478 . S
C395 H389 0.930 . S
C395 C391 1.400 . S
C395 C394 1.385 . S
C396 C394 1.478 . S
C396 C398 1.381 . S
C396 C402 1.383 . S
C397 C393 1.495 . S
C397 H403 0.959 . S
C397 H404 0.961 . S
C397 H405 0.960 . S
C398 C396 1.381 . S
C398 C399 1.394 . S
C398 H406 0.930 . S
C399 C398 1.394 . S
C399 C400 1.383 . S
C399 H407 0.929 . S
C400 C399 1.383 . S
C400 C401 1.377 . S
C401 H385 0.930 . S
C401 C400 1.377 . S
C401 C402 1.379 . S
C402 H386 0.931 . S
C402 C396 1.383 . S
C402 C401 1.379 . S
H403 C397 0.959 . S
H404 C397 0.961 . S
H405 C397 0.960 . S
H406 C398 0.930 . S
H407 C399 0.929 . S
H408 C416 0.929 1_655 S
H409 C418 0.930 1_655 S
H410 C420 0.930 . S
H411 C423 0.929 . S
H412 C426 0.930 . S
H413 C428 0.960 . S
H414 C428 0.960 . S
H415 C428 0.961 . S
C416 H408 0.929 1_455 S
C416 C417 1.361 1_565 S
C416 C418 1.384 . S
C417 C416 1.361 1_545 S
C417 C423 1.409 . S
C418 H409 0.930 1_455 S
C418 C416 1.384 . S
C418 C419 1.372 . S
C419 C418 1.372 . S
C419 C420 1.400 1_565 S
C419 C424 1.490 . S
C420 H410 0.930 . S
C420 C419 1.400 1_545 S
C420 C423 1.386 . S
H421 C437 0.930 . S
H422 C438 0.931 . S
C423 H411 0.929 . S
C423 C417 1.409 . S
C423 C420 1.386 . S
C424 C419 1.490 . S
C424 C426 1.395 . S
C424 C427 1.403 1_565 S
H425 C431 0.930 1_655 S
C426 H412 0.930 . S
C426 C424 1.395 . S
C426 C429 1.403 . S
C427 C424 1.403 1_545 S
C427 C428 1.524 1_455 S
C427 C431 1.400 . S
C428 H413 0.960 . S
C428 H414 0.960 . S
C428 H415 0.961 . S
C428 C427 1.524 1_655 S
C429 C426 1.403 . S
C429 C430 1.392 . S
C429 C433 1.495 . S
C430 C429 1.392 . S
C430 C431 1.385 1_565 S
C430 C432 1.478 . S
C431 H425 0.930 1_455 S
C431 C427 1.400 . S
C431 C430 1.385 1_545 S
C432 C430 1.478 . S
C432 C434 1.381 1_455 S
C432 C438 1.383 1_565 S
C433 C429 1.495 . S
C433 H439 0.959 . S
C433 H440 0.961 . S
C433 H441 0.960 . S
C434 C432 1.381 1_655 S
C434 C435 1.394 . S
C434 H442 0.930 . S
C435 C434 1.394 . S
C435 C436 1.383 1_655 S
C435 H443 0.929 . S
C436 C435 1.383 1_455 S
C436 C437 1.377 1_565 S
C437 H421 0.930 . S
C437 C436 1.377 1_545 S
C437 C438 1.379 . S
C438 H422 0.931 . S
C438 C432 1.383 1_545 S
C438 C437 1.379 . S
H439 C433 0.959 . S
H440 C433 0.961 . S
H441 C433 0.960 . S
H442 C434 0.930 . S
H443 C435 0.929 . S
H444 C452 0.929 . S
H445 C454 0.930 . S
H446 C456 0.930 . S
H447 C459 0.929 . S
H448 C462 0.930 1_565 S
H449 C464 0.960 . S
H450 C464 0.960 . S
H451 C464 0.960 1_655 S
C452 H444 0.929 . S
C452 C453 1.377 . S
C452 C454 1.384 . S
C453 C452 1.377 . S
C453 C459 1.390 1_455 S
C454 H445 0.930 . S
C454 C452 1.384 . S
C454 C455 1.372 . S
C455 C454 1.372 . S
C455 C456 1.400 1_455 S
C455 C460 1.490 . S
C456 H446 0.930 . S
C456 C455 1.400 1_655 S
C456 C459 1.386 . S
H457 C473 0.930 . S
H458 C474 0.931 . S
C459 H447 0.929 . S
C459 C453 1.390 1_655 S
C459 C456 1.386 . S
C460 C455 1.490 . S
C460 C462 1.395 . S
C460 C463 1.403 . S
H461 C467 0.930 . S
C462 H448 0.930 1_545 S
C462 C460 1.395 . S
C462 C465 1.404 . S
C463 C460 1.403 . S
C463 C464 1.524 . S
C463 C467 1.400 . S
C464 H449 0.960 . S
C464 H450 0.960 . S
C464 H451 0.960 1_455 S
C464 C463 1.524 . S
C465 C462 1.404 . S
C465 C466 1.393 . S
C465 C469 1.494 1_545 S
C466 C465 1.393 . S
C466 C467 1.385 . S
C466 C468 1.478 . S
C467 H461 0.930 . S
C467 C463 1.400 . S
C467 C466 1.385 . S
C468 C466 1.478 . S
C468 C470 1.381 . S
C468 C474 1.383 1_455 S
C469 C465 1.494 1_565 S
C469 H475 0.959 . S
C469 H476 0.961 . S
C469 H477 0.960 . S
C470 C468 1.381 . S
C470 C471 1.394 . S
C470 H478 0.930 . S
C471 C470 1.394 . S
C471 C472 1.383 . S
C471 H479 0.929 . S
C472 C471 1.383 . S
C472 C473 1.377 1_455 S
C473 H457 0.930 . S
C473 C472 1.377 1_655 S
C473 C474 1.379 . S
C474 H458 0.931 . S
C474 C468 1.383 1_655 S
C474 C473 1.379 . S
H475 C469 0.959 . S
H476 C469 0.961 . S
H477 C469 0.960 . S
H478 C470 0.930 . S
H479 C471 0.929 . S
H480 C488 0.929 . S
H481 C490 0.930 . S
H482 C492 0.930 . S
H483 C495 0.929 . S
H484 C498 0.930 . S
H485 C500 0.960 . S
H486 C500 0.960 . S
H487 C500 0.960 . S
C488 H480 0.929 . S
C488 C489 1.377 . S
C488 C490 1.384 . S
C489 C488 1.377 . S
C489 C495 1.390 . S
C490 H481 0.930 . S
C490 C488 1.384 . S
C490 C491 1.372 . S
C491 C490 1.372 . S
C491 C492 1.400 . S
C491 C496 1.490 . S
C492 H482 0.930 . S
C492 C491 1.400 . S
C492 C495 1.386 . S
H493 C509 0.930 . S
H494 C510 0.931 . S
C495 H483 0.929 . S
C495 C489 1.390 . S
C495 C492 1.386 . S
C496 C491 1.490 . S
C496 C498 1.395 . S
C496 C499 1.403 . S
H497 C503 0.930 . S
C498 H484 0.930 . S
C498 C496 1.395 . S
C498 C501 1.403 . S
C499 C496 1.403 . S
C499 C500 1.524 . S
C499 C503 1.400 . S
C500 H485 0.960 . S
C500 H486 0.960 . S
C500 H487 0.960 . S
C500 C499 1.524 . S
C501 C498 1.403 . S
C501 C502 1.392 . S
C501 C505 1.495 . S
C502 C501 1.392 . S
C502 C503 1.385 . S
C502 C504 1.478 . S
C503 H497 0.930 . S
C503 C499 1.400 . S
C503 C502 1.385 . S
C504 C502 1.478 . S
C504 C506 1.381 . S
C504 C510 1.383 . S
C505 C501 1.495 . S
C505 H511 0.959 . S
C505 H512 0.961 . S
C505 H513 0.960 . S
C506 C504 1.381 . S
C506 C507 1.394 . S
C506 H514 0.930 . S
C507 C506 1.394 . S
C507 C508 1.383 . S
C507 H515 0.929 . S
C508 C507 1.383 . S
C508 C509 1.377 . S
C509 H493 0.930 . S
C509 C508 1.377 . S
C509 C510 1.379 . S
C510 H494 0.931 . S
C510 C504 1.383 . S
C510 C509 1.379 . S
H511 C505 0.959 . S
H512 C505 0.961 . S
H513 C505 0.960 . S
H514 C506 0.930 . S
H515 C507 0.929 . S
H516 C524 0.929 . S
H517 C526 0.930 . S
H518 C528 0.930 . S
H519 C531 0.929 . S
H520 C534 0.930 . S
H521 C536 0.960 . S
H522 C536 0.960 . S
H523 C536 0.960 . S
C524 H516 0.929 . S
C524 C525 1.377 . S
C524 C526 1.384 . S
C525 C524 1.377 . S
C525 C531 1.390 . S
C526 H517 0.930 . S
C526 C524 1.384 . S
C526 C527 1.372 . S
C527 C526 1.372 . S
C527 C528 1.400 . S
C527 C532 1.490 . S
C528 H518 0.930 . S
C528 C527 1.400 . S
C528 C531 1.386 . S
H529 C545 0.930 . S
H530 C546 0.931 . S
C531 H519 0.929 . S
C531 C525 1.390 . S
C531 C528 1.386 . S
C532 C527 1.490 . S
C532 C534 1.395 . S
C532 C535 1.403 . S
H533 C539 0.930 . S
C534 H520 0.930 . S
C534 C532 1.395 . S
C534 C537 1.403 . S
C535 C532 1.403 . S
C535 C536 1.524 . S
C535 C539 1.400 . S
C536 H521 0.960 . S
C536 H522 0.960 . S
C536 H523 0.960 . S
C536 C535 1.524 . S
C537 C534 1.403 . S
C537 C538 1.392 . S
C537 C541 1.495 . S
C538 C537 1.392 . S
C538 C539 1.385 . S
C538 C540 1.478 . S
C539 H533 0.930 . S
C539 C535 1.400 . S
C539 C538 1.385 . S
C540 C538 1.478 . S
C540 C542 1.381 . S
C540 C546 1.383 . S
C541 C537 1.495 . S
C541 H547 0.959 . S
C541 H548 0.961 . S
C541 H549 0.960 . S
C542 C540 1.381 . S
C542 C543 1.394 . S
C542 H550 0.930 . S
C543 C542 1.394 . S
C543 C544 1.383 . S
C543 H551 0.929 . S
C544 C543 1.383 . S
C544 C545 1.377 . S
C545 H529 0.930 . S
C545 C544 1.377 . S
C545 C546 1.379 . S
C546 H530 0.931 . S
C546 C540 1.383 . S
C546 C545 1.379 . S
H547 C541 0.959 . S
H548 C541 0.961 . S
H549 C541 0.960 . S
H550 C542 0.930 . S
H551 C543 0.929 . S
C148 C111 1.215 . S
C129 C29 1.351 . S
C165 C8 1.368 . S
C184 C98 1.247 . S
C201 C0 1.488 . S
C220 C115 1.472 . S
C237 C17 1.472 . S
C256 C102 1.467 . S
C273 C63 1.351 . S
C292 C85 1.222 . S
C309 C42 1.367 . S
C328 C72 1.276 . S
C364 C89 1.464 . S
C345 C34 1.488 . S
C400 C76 1.453 . S
C381 C51 1.474 . S
C417 C4 1.512 . S
C436 C77 1.500 . S
C453 C13 1.525 . S
C472 C90 1.527 . S
C508 C103 1.503 . S
C489 C38 1.514 . S
C525 C47 1.525 . S
C544 C116 1.523 . S
