# Generated by pormake.
# Topology pyr, (3,6)-cn, num edge types: 1
# Building blocks:
#     Node 0, Type 0, BuildingBlock: BETDAH_clean_linker_0, # of connection points: 3
#     Node 1, Type 0, BuildingBlock: BETDAH_clean_linker_0, # of connection points: 3
#     Node 2, Type 0, BuildingBlock: BETDAH_clean_linker_0, # of connection points: 3
#     Node 3, Type 0, BuildingBlock: BETDAH_clean_linker_0, # of connection points: 3
#     Node 4, Type 0, BuildingBlock: BETDAH_clean_linker_0, # of connection points: 3
#     Node 5, Type 0, BuildingBlock: BETDAH_clean_linker_0, # of connection points: 3
#     Node 6, Type 0, BuildingBlock: BETDAH_clean_linker_0, # of connection points: 3
#     Node 7, Type 0, BuildingBlock: BETDAH_clean_linker_0, # of connection points: 3
#     Node 8, Type 1, BuildingBlock: BETFEN_clean_sbu_0, # of connection points: 6
#     Node 9, Type 1, BuildingBlock: BETFEN_clean_sbu_0, # of connection points: 6
#     Node 10, Type 1, BuildingBlock: BETFEN_clean_sbu_0, # of connection points: 6
#     Node 11, Type 1, BuildingBlock: BETFEN_clean_sbu_0, # of connection points: 6
#     Edge 12, Type (0, 1), BuildingBlock: XUDNAN_clean_linker_2, # of connection points: 2
#     Edge 13, Type (0, 1), BuildingBlock: XUDNAN_clean_linker_2, # of connection points: 2
#     Edge 14, Type (0, 1), BuildingBlock: XUDNAN_clean_linker_2, # of connection points: 2
#     Edge 15, Type (0, 1), BuildingBlock: XUDNAN_clean_linker_2, # of connection points: 2
#     Edge 16, Type (0, 1), BuildingBlock: XUDNAN_clean_linker_2, # of connection points: 2
#     Edge 17, Type (0, 1), BuildingBlock: XUDNAN_clean_linker_2, # of connection points: 2
#     Edge 18, Type (0, 1), BuildingBlock: XUDNAN_clean_linker_2, # of connection points: 2
#     Edge 19, Type (0, 1), BuildingBlock: XUDNAN_clean_linker_2, # of connection points: 2
#     Edge 20, Type (0, 1), BuildingBlock: XUDNAN_clean_linker_2, # of connection points: 2
#     Edge 21, Type (0, 1), BuildingBlock: XUDNAN_clean_linker_2, # of connection points: 2
#     Edge 22, Type (0, 1), BuildingBlock: XUDNAN_clean_linker_2, # of connection points: 2
#     Edge 23, Type (0, 1), BuildingBlock: XUDNAN_clean_linker_2, # of connection points: 2
#     Edge 24, Type (0, 1), BuildingBlock: XUDNAN_clean_linker_2, # of connection points: 2
#     Edge 25, Type (0, 1), BuildingBlock: XUDNAN_clean_linker_2, # of connection points: 2
#     Edge 26, Type (0, 1), BuildingBlock: XUDNAN_clean_linker_2, # of connection points: 2
#     Edge 27, Type (0, 1), BuildingBlock: XUDNAN_clean_linker_2, # of connection points: 2
#     Edge 28, Type (0, 1), BuildingBlock: XUDNAN_clean_linker_2, # of connection points: 2
#     Edge 29, Type (0, 1), BuildingBlock: XUDNAN_clean_linker_2, # of connection points: 2
#     Edge 30, Type (0, 1), BuildingBlock: XUDNAN_clean_linker_2, # of connection points: 2
#     Edge 31, Type (0, 1), BuildingBlock: XUDNAN_clean_linker_2, # of connection points: 2
#     Edge 32, Type (0, 1), BuildingBlock: XUDNAN_clean_linker_2, # of connection points: 2
#     Edge 33, Type (0, 1), BuildingBlock: XUDNAN_clean_linker_2, # of connection points: 2
#     Edge 34, Type (0, 1), BuildingBlock: XUDNAN_clean_linker_2, # of connection points: 2
#     Edge 35, Type (0, 1), BuildingBlock: XUDNAN_clean_linker_2, # of connection points: 2
# Relax obj value: 0.160
# Max RMSD: 0.294
# Mean RMSD: 0.130
data_MOF--net-pyr--node1-BETFEN_clean_sbu_0--node2-BETDAH_clean_linker_0--edge1-XUDNAN_clean_linker_2
_symmetry_space_group_name_H-M    P1
_symmetry_Int_Tables_number       1
_symmetry_cell_setting            triclinic
loop_
_symmetry_equiv_pos_as_xyz
'x, y, z'
_cell_length_a     35.744191
_cell_length_b     40.620212
_cell_length_c     38.866628
_cell_angle_alpha  92.267406
_cell_angle_beta   100.94748
_cell_angle_gamma 117.17584
loop_
_atom_site_label
_atom_site_type_symbol
_atom_site_fract_x
_atom_site_fract_y
_atom_site_fract_z
_atom_type_partial_charge
H0 H 0.454 0.33334 0.33636 0.0
H1 H 0.49153 0.42189 0.27208 0.0
H2 H 0.44361 0.4323 0.36256 0.0
C3 C 0.45914 0.36094 0.33135 0.0
C4 C 0.44782 0.38124 0.35371 0.0
C5 C 0.47418 0.37474 0.30134 0.0
C6 C 0.4801 0.41048 0.295 0.0
C7 C 0.4696 0.43124 0.31735 0.0
C8 C 0.45361 0.4167 0.34661 0.0
N9 N 0.47067 0.46496 0.30821 0.0
C10 C 0.43409 0.46371 0.28682 0.0
H11 H 0.40035 0.87991 0.77082 0.0
H12 H 0.29541 0.90352 0.73075 0.0
H13 H 0.35033 0.86672 0.65889 0.0
C14 C 0.37757 0.88125 0.74905 0.0
C15 C 0.37847 0.87095 0.71439 0.0
C16 C 0.34776 0.89298 0.75582 0.0
C17 C 0.31933 0.89543 0.72664 0.0
C18 C 0.32076 0.88641 0.69176 0.0
C19 C 0.34968 0.87362 0.68591 0.0
N20 N 0.29319 0.88945 0.66192 0.0
C21 C 0.27469 0.91302 0.66266 0.0
H22 H 0.65996 0.32724 0.91824 0.0
H23 H 0.65913 0.39486 0.83615 0.0
H24 H 0.54969 0.28686 0.82979 0.0
C25 C 0.64391 0.33048 0.89301 0.0
C26 C 0.60215 0.30251 0.87605 0.0
C27 C 0.6649 0.36351 0.87862 0.0
C28 C 0.64316 0.36932 0.84718 0.0
C29 C 0.60134 0.34155 0.82961 0.0
C30 C 0.58153 0.30824 0.84391 0.0
N31 N 0.57819 0.34563 0.79737 0.0
C32 C 0.58949 0.37865 0.78264 0.0
H33 H 0.88131 0.7466 0.43513 0.0
H34 H 0.92096 0.74299 0.33784 0.0
H35 H 0.83255 0.64113 0.36975 0.0
C36 C 0.88113 0.73034 0.41222 0.0
C37 C 0.85488 0.69136 0.40625 0.0
C38 C 0.90493 0.74926 0.38798 0.0
C39 C 0.90368 0.72855 0.35721 0.0
C40 C 0.87795 0.68917 0.35083 0.0
C41 C 0.85312 0.67116 0.37514 0.0
N42 N 0.87185 0.66703 0.31867 0.0
C43 C 0.90277 0.67059 0.2996 0.0
H44 H 0.71265 0.69104 0.76422 0.0
H45 H 0.61118 0.67702 0.81633 0.0
H46 H 0.61487 0.72031 0.71749 0.0
C47 C 0.68301 0.69218 0.76457 0.0
C48 C 0.6661 0.70667 0.73725 0.0
C49 C 0.6635 0.68113 0.79324 0.0
C50 C 0.62639 0.68477 0.79424 0.0
C51 C 0.60854 0.69823 0.76648 0.0
C52 C 0.62793 0.70844 0.73788 0.0
N53 N 0.57226 0.70342 0.76773 0.0
C54 C 0.57396 0.72769 0.79487 0.0
H55 H 0.79129 0.16528 0.34421 0.0
H56 H 0.80429 0.21058 0.45019 0.0
H57 H 0.73963 0.24015 0.36131 0.0
C58 C 0.78615 0.1832 0.36208 0.0
C59 C 0.76471 0.20315 0.34835 0.0
C60 C 0.80039 0.18562 0.39872 0.0
C61 C 0.79353 0.20867 0.42181 0.0
C62 C 0.7711 0.22798 0.40866 0.0
C63 C 0.75658 0.22508 0.3718 0.0
N64 N 0.76361 0.24973 0.43336 0.0
C65 C 0.73636 0.26559 0.42499 0.0
H66 H 0.39127 0.76067 0.18427 0.0
H67 H 0.40175 0.68861 0.25911 0.0
H68 H 0.51654 0.78323 0.24562 0.0
C69 C 0.41149 0.75441 0.20452 0.0
C70 C 0.45658 0.77702 0.2131 0.0
C71 C 0.39178 0.72298 0.22123 0.0
C72 C 0.41708 0.7133 0.24673 0.0
C73 C 0.46235 0.73486 0.25494 0.0
C74 C 0.48167 0.76655 0.23828 0.0
N75 N 0.48984 0.72467 0.27821 0.0
C76 C 0.47934 0.704 0.30591 0.0
H77 H 0.2177 0.37995 0.69192 0.0
H78 H 0.25896 0.47998 0.76351 0.0
H79 H 0.16085 0.37465 0.78123 0.0
C80 C 0.215 0.3941 0.71484 0.0
C81 C 0.1859 0.37291 0.73487 0.0
C82 C 0.2417 0.43276 0.72467 0.0
C83 C 0.23771 0.45037 0.75477 0.0
C84 C 0.20777 0.43012 0.7748 0.0
C85 C 0.18198 0.391 0.76488 0.0
N86 N 0.21 0.44929 0.80746 0.0
C87 C 0.17589 0.44633 0.82224 0.0
Pr88 Pr 1.01647 0.04506 0.57376 0.0
Pr89 Pr 0.07546 0.08299 0.53609 0.0
C90 C 0.96691 1.00105 0.61485 0.0
C91 C 0.93047 0.96502 0.61649 0.0
C92 C 0.91493 0.9605 0.6473 0.0
C93 C 0.88266 0.9259 0.65134 0.0
C94 C 0.86532 0.8951 0.62458 0.0
C95 C 0.87991 0.89994 0.59307 0.0
C96 C 0.91259 0.93477 0.58911 0.0
C97 C 0.06356 0.12178 0.60227 0.0
C98 C 0.11016 0.04632 0.59424 0.0
C99 C 0.12796 0.13134 0.49925 0.0
C100 C 0.17177 0.162 0.50056 0.0
C101 C 0.20319 0.15402 0.49128 0.0
C102 C 0.24183 0.18277 0.48645 0.0
C103 C 0.24979 0.22011 0.49057 0.0
C104 C 0.21952 0.22834 0.50185 0.0
C105 C 0.18078 0.19955 0.50664 0.0
C106 C 0.02953 1.00629 0.50755 0.0
C107 C 0.97823 0.07525 0.51141 0.0
O108 O 0.9585 0.02512 0.59845 0.0
O109 O 1.0018 1.00076 0.60984 0.0
O110 O 0.08012 0.10184 0.59425 0.0
O111 O 1.02192 0.10287 0.59397 0.0
O112 O 0.12389 0.07862 0.58244 0.0
O113 O 0.06826 0.02396 0.58807 0.0
O114 O 0.12306 0.09764 0.50105 0.0
O115 O 0.10282 0.13843 0.51512 0.0
O116 O 1.01228 0.02561 0.51585 0.0
O117 O 0.07117 0.02607 0.51456 0.0
O118 O 0.96638 0.04434 0.52556 0.0
O119 O 1.0197 0.09888 0.51682 0.0
H120 H 0.92837 0.98364 0.66861 0.0
H121 H 0.87143 0.92316 0.6756 0.0
H122 H 0.86699 0.87661 0.57207 0.0
H123 H 0.92442 0.93794 0.56512 0.0
H124 H 0.1972 0.12542 0.4862 0.0
H125 H 0.2648 0.17564 0.47812 0.0
H126 H 0.22454 0.25679 0.50488 0.0
H127 H 0.15707 0.20662 0.51348 0.0
Pr128 Pr 0.49413 0.0485 0.0711 0.0
Pr129 Pr 0.55759 0.04736 0.0378 0.0
C130 C 0.45123 0.05868 0.11694 0.0
C131 C 0.45557 0.09386 0.13336 0.0
C132 C 0.47601 0.12671 0.11865 0.0
C133 C 0.4803 0.16039 0.1336 0.0
C134 C 0.46462 0.16202 0.1638 0.0
C135 C 0.44519 0.12926 0.17912 0.0
C136 C 0.44058 0.09534 0.16389 0.0
C137 C 0.5092 0.09591 1.01892 0.0
C138 C 0.597 0.10667 0.10735 0.0
C139 C 0.60179 0.03877 0.99222 0.0
C140 C 0.59905 1.00479 0.97455 0.0
C141 C 0.5773 0.97046 0.98664 0.0
C142 C 0.57481 0.938 0.97043 0.0
C143 C 0.59371 0.93917 0.9416 0.0
C144 C 0.61463 0.97348 0.92901 0.0
C145 C 0.61738 1.0061 0.94547 0.0
C146 C 0.54234 0.99911 0.08917 0.0
C147 C 0.4536 0.98995 1.00174 0.0
O148 O 0.4847 0.05322 0.12687 0.0
O149 O 0.43557 0.05067 0.08272 0.0
O150 O 0.53887 0.09429 0.04118 0.0
O151 O 0.47146 0.0734 0.02359 0.0
O152 O 0.60466 0.10279 0.07608 0.0
O153 O 0.55887 0.08478 0.11312 0.0
O154 O 0.568 0.04377 0.98226 0.0
O155 O 0.61644 0.04545 0.02654 0.0
O156 O 0.51264 1.00114 0.06722 0.0
O157 O 0.5801 0.02247 0.08512 0.0
O158 O 0.44563 0.99413 0.03273 0.0
O159 O 0.49219 0.0106 0.99606 0.0
H160 H 0.48851 0.12626 0.09541 0.0
H161 H 0.49599 0.18525 0.12154 0.0
H162 H 0.43268 0.12971 0.20233 0.0
H163 H 0.42513 0.07031 0.17579 0.0
H164 H 0.5624 0.96882 1.00879 0.0
H165 H 0.55789 0.91192 0.98036 0.0
H166 H 0.62965 0.97524 0.90695 0.0
H167 H 0.634 0.03233 0.93566 0.0
Pr168 Pr 0.562 0.60326 0.5781 0.0
Pr169 Pr 0.52843 0.51741 0.54231 0.0
C170 C 0.56708 0.67138 0.58454 0.0
C171 C 0.55615 0.69539 0.60526 0.0
C172 C 0.55126 0.69061 0.64003 0.0
C173 C 0.53852 0.7128 0.6582 0.0
C174 C 0.52929 0.73911 0.64137 0.0
C175 C 0.53405 0.74363 0.60659 0.0
C176 C 0.54767 0.72212 0.5888 0.0
C177 C 0.57705 0.56203 0.63015 0.0
C178 C 0.46754 0.53426 0.58731 0.0
C179 C 0.52078 0.44953 0.52382 0.0
C180 C 0.53758 0.43124 0.50214 0.0
C181 C 0.51332 0.39273 0.49014 0.0
C182 C 0.53005 0.37425 0.47181 0.0
C183 C 0.5718 0.39388 0.4658 0.0
C184 C 0.59566 0.43269 0.47716 0.0
C185 C 0.57858 0.45126 0.49496 0.0
C186 C 0.50945 0.56384 0.49888 0.0
C187 C 0.62782 0.58622 0.5387 0.0
O188 O 0.53411 0.64212 0.56423 0.0
O189 O 0.59869 0.66493 0.59984 0.0
O190 O 0.55968 0.55059 0.59763 0.0
O191 O 0.58847 0.59746 0.63689 0.0
O192 O 0.4778 0.50861 0.57677 0.0
O193 O 0.49041 0.57003 0.58438 0.0
O194 O 0.54828 0.47265 0.55203 0.0
O195 O 0.49459 0.4611 0.50706 0.0
O196 O 0.54349 0.57272 0.52208 0.0
O197 O 0.48324 0.52806 0.49557 0.0
O198 O 0.6216 0.61168 0.55552 0.0
O199 O 0.59869 0.55018 0.53122 0.0
H200 H 0.55675 0.66951 0.6529 0.0
H201 H 0.53469 0.70872 0.68495 0.0
H202 H 0.52714 0.7638 0.59317 0.0
H203 H 0.55081 0.72587 0.56184 0.0
H204 H 0.48187 0.37673 0.49582 0.0
H205 H 0.51107 0.34431 0.46371 0.0
H206 H 0.62778 0.44858 0.47267 0.0
H207 H 0.59784 0.48104 0.50392 0.0
Pr208 Pr 1.01706 0.58111 0.03349 0.0
Pr209 Pr 0.03973 0.52853 0.0764 0.0
C210 C 0.98119 0.60937 0.98381 0.0
C211 C 0.94163 0.6134 0.97258 0.0
C212 C 0.94126 0.64666 0.98336 0.0
C213 C 0.90487 0.65135 0.97085 0.0
C214 C 0.86808 0.62294 0.94712 0.0
C215 C 0.86821 0.58943 0.93684 0.0
C216 C 0.9046 0.5848 0.94925 0.0
C217 C 0.10104 0.61482 0.07519 0.0
C218 C 1.00437 0.58217 0.1142 0.0
C219 C 0.07035 0.49614 0.12543 0.0
C220 C 0.10597 0.48708 0.13598 0.0
C221 C 0.09927 0.45644 0.15409 0.0
C222 C 0.13314 0.44833 0.16605 0.0
C223 C 0.1744 0.47087 0.16021 0.0
C224 C 0.18083 0.50111 0.14139 0.0
C225 C 0.14686 0.50919 0.12931 0.0
C226 C 0.95417 0.49713 0.03634 0.0
C227 C 0.05726 0.53007 0.99719 0.0
O228 O 0.97677 0.57558 0.97926 0.0
O229 O 1.00906 0.62968 1.01314 0.0
O230 O 0.0823 0.58276 0.05712 0.0
O231 O 0.07769 0.63177 0.06983 0.0
O232 O 0.02865 0.56517 0.11874 0.0
O233 O 0.98829 0.58614 0.082 0.0
O234 O 0.08042 0.53154 0.12968 0.0
O235 O 0.04132 0.47724 0.09624 0.0
O236 O 0.97537 0.5288 0.05472 0.0
O237 O 0.9762 0.47892 0.03972 0.0
O238 O 0.03319 0.54729 0.99203 0.0
O239 O 0.07066 0.52426 0.02933 0.0
H240 H 0.96944 0.66943 1.00091 0.0
H241 H 0.90615 0.67775 0.97886 0.0
H242 H 0.84027 0.56683 0.91892 0.0
H243 H 0.90384 0.55892 0.9401 0.0
H244 H 0.06794 0.43909 0.15948 0.0
H245 H 0.12732 0.42493 0.18061 0.0
H246 H 0.2121 0.51829 0.13593 0.0
H247 H 0.15257 0.53282 0.1151 0.0
H248 H 0.38774 0.30815 0.35028 0.0
H249 H 0.45597 0.41415 0.42033 0.0
H250 H 0.4148 0.38426 0.46482 0.0
H251 H 0.28684 0.27835 0.36947 0.0
H252 H 0.27398 0.22982 0.36724 0.0
H253 H 0.30987 0.25958 0.3419 0.0
H254 H 0.3689 0.24249 0.3713 0.0
H255 H 0.33315 0.21257 0.39676 0.0
H256 H 0.38605 0.24938 0.41891 0.0
H257 H 0.36306 0.34213 0.50067 0.0
H258 H 0.30571 0.29225 0.52373 0.0
H259 H 0.27573 0.21475 0.4302 0.0
C260 C 0.39523 0.32506 0.37533 0.0
C261 C 0.42557 0.3635 0.38184 0.0
C262 C 0.43272 0.38469 0.41456 0.0
C263 C 0.40972 0.36789 0.4401 0.0
C264 C 0.38028 0.3298 0.43275 0.0
C265 C 0.37326 0.30873 0.40115 0.0
C266 C 0.33898 0.26871 0.39877 0.0
C267 C 0.30013 0.25855 0.36751 0.0
C268 C 0.35792 0.2417 0.3963 0.0
C269 C 0.32728 0.27044 0.43387 0.0
C270 C 0.35135 0.30581 0.45325 0.0
C271 C 0.34438 0.31426 0.48584 0.0
C272 C 0.31173 0.28586 0.49867 0.0
C273 C 0.28673 0.24952 0.47898 0.0
C274 C 0.29506 0.24192 0.44635 0.0
H275 H 0.37351 0.86789 0.81693 0.0
H276 H 0.32278 0.943 0.78114 0.0
H277 H 0.32864 0.96385 0.84285 0.0
H278 H 0.33678 0.85003 0.89997 0.0
H279 H 0.38765 0.85419 0.92358 0.0
H280 H 0.36817 0.8368 0.87685 0.0
H281 H 0.43959 0.88812 0.86506 0.0
H282 H 0.45935 0.90517 0.91164 0.0
H283 H 0.45723 0.93647 0.88063 0.0
H284 H 0.34839 0.98291 0.90842 0.0
H285 H 0.39143 1.00622 0.97022 0.0
H286 H 0.44094 0.92762 0.96216 0.0
C287 C 0.36356 0.88879 0.82149 0.0
C288 C 0.34745 0.90341 0.79324 0.0
C289 C 0.33401 0.93012 0.80156 0.0
C290 C 0.33738 0.94241 0.83683 0.0
C291 C 0.35498 0.92839 0.86378 0.0
C292 C 0.36862 0.90267 0.85645 0.0
C293 C 0.39398 0.89727 0.88967 0.0
C294 C 0.37021 0.85718 0.898 0.0
C295 C 0.44025 0.90738 0.88656 0.0
C296 C 0.39389 0.92508 0.91669 0.0
C297 C 0.36961 0.94155 0.90151 0.0
C298 C 0.36687 0.96978 0.92072 0.0
C299 C 0.39108 0.98264 0.95583 0.0
C300 C 0.41837 0.9679 0.97085 0.0
C301 C 0.41905 0.93827 0.95141 0.0
H302 H 0.55254 0.37813 0.71485 0.0
H303 H 0.63955 0.45148 0.81104 0.0
H304 H 0.6469 0.50663 0.78178 0.0
H305 H 0.60664 0.43673 0.65261 0.0
H306 H 0.55692 0.42558 0.62121 0.0
H307 H 0.55951 0.39211 0.64935 0.0
H308 H 0.49452 0.38906 0.67211 0.0
H309 H 0.49185 0.42256 0.64408 0.0
H310 H 0.49731 0.4316 0.69102 0.0
H311 H 0.64241 0.55341 0.7428 0.0
H312 H 0.62811 0.5889 0.69663 0.0
H313 H 0.54475 0.48538 0.62479 0.0
C314 C 0.57351 0.40591 0.72949 0.0
C315 C 0.59585 0.41092 0.765 0.0
C316 C 0.62255 0.44737 0.7837 0.0
C317 C 0.62683 0.47873 0.7673 0.0
C318 C 0.60422 0.473 0.73221 0.0
C319 C 0.57817 0.4375 0.71344 0.0
C320 C 0.55671 0.43906 0.67627 0.0
C321 C 0.5708 0.42238 0.64821 0.0
C322 C 0.50717 0.4194 0.67055 0.0
C323 C 0.57476 0.48097 0.67701 0.0
C324 C 0.60195 0.49998 0.70961 0.0
C325 C 0.62148 0.5388 0.71713 0.0
C326 C 0.61309 0.55871 0.69072 0.0
C327 C 0.58564 0.53992 0.65703 0.0
C328 C 0.56632 0.50051 0.65013 0.0
H329 H 0.88378 0.65785 0.22717 0.0
H330 H 0.9769 0.66638 0.32107 0.0
H331 H 1.01406 0.64647 0.2837 0.0
H332 H 0.87407 0.57633 0.18115 0.0
H333 H 0.86979 0.59049 0.13783 0.0
H334 H 0.85239 0.6081 0.17141 0.0
H335 H 0.90368 0.67607 0.16415 0.0
H336 H 0.92095 0.65865 0.13028 0.0
H337 H 0.96035 0.69068 0.16836 0.0
H338 H 0.03764 0.62077 0.23638 0.0
H339 H 0.04899 0.59524 0.18301 0.0
H340 H 0.94181 0.60433 0.11837 0.0
C341 C 0.91268 0.65642 0.23968 0.0
C342 C 0.92807 0.66436 0.27703 0.0
C343 C 0.96514 0.66114 0.29255 0.0
C344 C 0.98627 0.64964 0.27147 0.0
C345 C 0.97001 0.64144 0.23476 0.0
C346 C 0.93432 0.64509 0.2189 0.0
C347 C 0.92277 0.63348 0.17894 0.0
C348 C 0.87704 0.60012 0.16662 0.0
C349 C 0.92721 0.6667 0.15927 0.0
C350 C 0.95709 0.62222 0.17482 0.0
C351 C 0.98391 0.62699 0.20743 0.0
C352 C 1.01702 0.61728 0.21073 0.0
C353 C 1.02308 0.60255 0.18012 0.0
C354 C 0.99643 0.59764 0.1462 0.0
C355 C 0.96304 0.60788 0.14372 0.0
H356 H 0.50259 0.32224 0.31328 0.0
H357 H 0.45313 0.3692 0.22887 0.0
H358 H 0.45092 0.32287 0.18482 0.0
H359 H 0.56555 0.29422 0.26558 0.0
H360 H 0.55044 0.25122 0.28415 0.0
H361 H 0.55443 0.29155 0.30902 0.0
H362 H 0.47576 0.2525 0.31527 0.0
H363 H 0.47126 0.21213 0.29017 0.0
H364 H 0.43281 0.22887 0.27605 0.0
H365 H 0.44759 0.26838 0.15001 0.0
H366 H 0.44392 0.20931 0.12673 0.0
H367 H 0.49098 0.19483 0.23347 0.0
C368 C 0.49167 0.32312 0.28554 0.0
C369 C 0.47842 0.34985 0.27476 0.0
C370 C 0.4646 0.34988 0.23804 0.0
C371 C 0.46282 0.32337 0.21271 0.0
C372 C 0.47475 0.2968 0.22436 0.0
C373 C 0.48902 0.29647 0.25989 0.0
C374 C 0.49668 0.26308 0.26548 0.0
C375 C 0.54463 0.27579 0.28203 0.0
C376 C 0.46737 0.23765 0.28807 0.0
C377 C 0.4836 0.24429 0.22754 0.0
C378 C 0.4716 0.26452 0.20427 0.0
C379 C 0.45734 0.25249 0.16792 0.0
C380 C 0.45543 0.21896 0.15495 0.0
C381 C 0.46733 0.19761 0.17827 0.0
C382 C 0.48154 0.21052 0.21506 0.0
H383 H 0.19055 0.89566 0.63898 0.0
H384 H 0.31947 0.98798 0.6791 0.0
H385 H 0.29074 0.03292 0.66918 0.0
H386 H 0.15732 0.93752 0.57013 0.0
H387 H 0.10233 0.91875 0.57463 0.0
H388 H 0.13241 0.89397 0.58734 0.0
H389 H 0.11792 0.89455 0.65016 0.0
H390 H 0.08756 0.91919 0.63755 0.0
H391 H 0.13248 0.93841 0.67575 0.0
H392 H 0.24881 0.06752 0.64986 0.0
H393 H 0.19632 0.08934 0.62526 0.0
H394 H 0.09416 0.97431 0.59955 0.0
C395 C 0.21241 0.92535 0.64625 0.0
C396 C 0.25701 0.9387 0.66009 0.0
C397 C 0.28509 0.97753 0.66879 0.0
C398 C 0.26907 1.00314 0.66319 0.0
C399 C 0.22488 0.98926 0.64903 0.0
C400 C 0.19686 0.95125 0.64094 0.0
C401 C 0.15109 0.94368 0.62482 0.0
C402 C 0.13486 0.92222 0.58699 0.0
C403 C 0.12046 0.92272 0.64849 0.0
C404 C 0.15786 0.98331 0.62462 0.0
C405 C 0.20063 1.00921 0.63863 0.0
C406 C 0.21512 0.04752 0.63931 0.0
C407 C 0.18513 0.05965 0.62521 0.0
C408 C 0.14113 0.03358 0.6109 0.0
C409 C 0.12742 0.99497 0.61096 0.0
H410 H 0.73326 0.35103 0.90354 0.0
H411 H 0.69651 0.43902 0.89668 0.0
H412 H 0.76821 0.48388 0.93464 0.0
H413 H 0.78773 0.37608 0.99272 0.0
H414 H 0.82994 0.36498 0.98753 0.0
H415 H 0.77763 0.34093 0.95728 0.0
H416 H 0.81302 0.36115 0.90414 0.0
H417 H 0.86557 0.38496 0.93421 0.0
H418 H 0.84795 0.41002 0.90355 0.0
H419 H 0.84065 0.51685 0.97871 0.0
H420 H 0.91124 0.53747 1.02041 0.0
H421 H 0.90103 0.42794 0.99708 0.0
C422 C 0.74055 0.37989 0.90966 0.0
C423 C 0.70943 0.39165 0.89732 0.0
C424 C 0.7201 0.4296 0.90567 0.0
C425 C 0.76059 0.45514 0.92734 0.0
C426 C 0.79005 0.44228 0.93998 0.0
C427 C 0.78076 0.40567 0.93095 0.0
C428 C 0.8174 0.39853 0.94867 0.0
C429 C 0.80225 0.36835 0.97299 0.0
C430 C 0.83716 0.38805 0.92099 0.0
C431 C 0.84848 0.43663 0.96984 0.0
C432 C 0.83211 0.46148 0.9645 0.0
C433 C 0.85408 0.49782 0.9826 0.0
C434 C 0.89403 0.50919 1.00636 0.0
C435 C 0.91164 0.48432 1.01176 0.0
C436 C 0.88849 0.44761 0.99322 0.0
H437 H 0.76941 0.63508 0.39318 0.0
H438 H 0.88018 0.70632 0.47856 0.0
H439 H 0.83516 0.68354 0.52178 0.0
H440 H 0.69161 0.64714 0.42638 0.0
H441 H 0.64911 0.59953 0.41349 0.0
H442 H 0.69054 0.61863 0.38906 0.0
H443 H 0.70884 0.56458 0.39991 0.0
H444 H 0.66722 0.54517 0.42425 0.0
H445 H 0.72193 0.55581 0.44456 0.0
H446 H 0.77675 0.66009 0.55496 0.0
H447 H 0.70951 0.63254 0.57656 0.0
H448 H 0.6367 0.57189 0.47169 0.0
C449 C 0.78449 0.64512 0.42104 0.0
C450 C 0.82847 0.67291 0.43227 0.0
C451 C 0.84653 0.68561 0.46906 0.0
C452 C 0.82124 0.67266 0.49393 0.0
C453 C 0.77784 0.64632 0.48194 0.0
C454 C 0.75965 0.6321 0.44646 0.0
C455 C 0.71165 0.60491 0.44072 0.0
C456 C 0.68412 0.61837 0.41595 0.0
C457 C 0.70184 0.56526 0.42652 0.0
C458 C 0.7056 0.60699 0.47832 0.0
C459 C 0.7443 0.63116 0.50161 0.0
C460 C 0.74647 0.6404 0.53715 0.0
C461 C 0.70815 0.6247 0.54921 0.0
C462 C 0.66823 0.5995 0.52604 0.0
C463 C 0.66707 0.5902 0.49021 0.0
H464 H 0.40852 0.51658 0.27402 0.0
H465 H 0.37013 0.39893 0.24984 0.0
H466 H 0.30005 0.38822 0.21254 0.0
H467 H 0.30514 0.5048 0.28081 0.0
H468 H 0.31001 0.54533 0.26061 0.0
H469 H 0.35776 0.54404 0.28406 0.0
H470 H 0.38921 0.55714 0.2284 0.0
H471 H 0.34155 0.55847 0.20467 0.0
H472 H 0.35818 0.52693 0.18696 0.0
H473 H 0.23338 0.3898 0.18042 0.0
H474 H 0.17428 0.4036 0.15445 0.0
H475 H 0.25604 0.52058 0.19845 0.0
C476 C 0.38532 0.48871 0.26055 0.0
C477 C 0.39419 0.45846 0.26439 0.0
C478 C 0.36348 0.4223 0.24686 0.0
C479 C 0.32377 0.41602 0.2257 0.0
C480 C 0.31562 0.44634 0.2224 0.0
C481 C 0.34553 0.48202 0.23921 0.0
C482 C 0.32818 0.50948 0.23186 0.0
C483 C 0.32508 0.52692 0.26639 0.0
C484 C 0.35594 0.53979 0.21177 0.0
C485 C 0.28374 0.48358 0.20858 0.0
C486 C 0.27721 0.4473 0.20349 0.0
C487 C 0.23818 0.41813 0.184 0.0
C488 C 0.20478 0.42617 0.16948 0.0
C489 C 0.2107 0.46311 0.17434 0.0
C490 C 0.25088 0.49218 0.1939 0.0
H491 H 0.63801 0.26428 0.91603 0.0
H492 H 0.51549 0.26337 0.87516 0.0
H493 H 0.47901 0.20916 0.905 0.0
H494 H 0.59659 0.1641 0.91242 0.0
H495 H 0.63244 0.168 0.95365 0.0
H496 H 0.64881 0.20496 0.92672 0.0
H497 H 0.66254 0.25276 0.97988 0.0
H498 H 0.64618 0.21597 1.00697 0.0
H499 H 0.61966 0.24464 1.00192 0.0
H500 H 0.45575 0.15642 0.94041 0.0
H501 H 0.44727 0.10934 0.98045 0.0
H502 H 0.58528 0.1464 1.00238 0.0
C503 C 0.60352 0.2529 0.91333 0.0
C504 C 0.57977 0.26831 0.89277 0.0
C505 C 0.53452 0.25186 0.88985 0.0
C506 C 0.51345 0.22114 0.90702 0.0
C507 C 0.53796 0.20717 0.92736 0.0
C508 C 0.582 0.22253 0.93074 0.0
C509 C 0.601 0.20314 0.95554 0.0
C510 C 0.62088 0.18391 0.9359 0.0
C511 C 0.63431 0.23078 0.988 0.0
C512 C 0.56071 0.17464 0.96578 0.0
C513 C 0.52471 0.17734 0.94888 0.0
C514 C 0.48369 0.15408 0.95382 0.0
C515 C 0.47925 0.12741 0.97668 0.0
C516 C 0.51563 0.12431 0.99471 0.0
C517 C 0.55693 0.14826 0.98909 0.0
H518 H 0.97761 0.79779 0.43834 0.0
H519 H 0.87613 0.79346 0.35427 0.0
H520 H 0.89737 0.85936 0.37515 0.0
H521 H 0.96751 0.85101 0.50429 0.0
H522 H 1.0244 0.87907 0.52423 0.0
H523 H 1.00456 0.83302 0.50081 0.0
H524 H 0.05749 0.8601 0.45986 0.0
H525 H 0.07824 0.90616 0.4838 0.0
H526 H 0.05789 0.89764 0.43642 0.0
H527 H 0.92224 0.9223 0.41137 0.0
H528 H 0.95801 0.98173 0.45286 0.0
H529 H 0.04812 0.94791 0.51012 0.0
C530 C 0.9612 0.81134 0.42347 0.0
C531 C 0.9259 0.79086 0.39408 0.0
C532 C 0.90402 0.80899 0.37611 0.0
C533 C 0.91555 0.84627 0.3881 0.0
C534 C 0.94955 0.86534 0.41786 0.0
C535 C 0.97296 0.84886 0.43468 0.0
C536 C 1.00761 0.87531 0.46647 0.0
C537 C 1.00057 0.85859 0.50098 0.0
C538 C 0.053 0.88541 0.46132 0.0
C539 C 0.99944 0.90886 0.46538 0.0
C540 C 0.96535 0.90233 0.43747 0.0
C541 C 0.94961 0.92803 0.43277 0.0
C542 C 0.96986 0.96157 0.45661 0.0
C543 C 1.00605 0.96955 0.48437 0.0
C544 C 1.02088 0.94274 0.48875 0.0
H545 H 0.36469 0.8159 0.66217 0.0
H546 H 0.46207 0.89408 0.75244 0.0
H547 H 0.50977 0.86705 0.74527 0.0
H548 H 0.3818 0.7377 0.67654 0.0
H549 H 0.37534 0.72337 0.63037 0.0
H550 H 0.34809 0.74819 0.64297 0.0
H551 H 0.38376 0.7987 0.604 0.0
H552 H 0.41071 0.7738 0.59094 0.0
H553 H 0.44179 0.82225 0.6105 0.0
H554 H 0.54531 0.82847 0.73038 0.0
H555 H 0.57006 0.7879 0.70317 0.0
H556 H 0.45279 0.73988 0.61965 0.0
C557 C 0.39621 0.82781 0.68024 0.0
C558 C 0.40897 0.85677 0.70832 0.0
C559 C 0.45063 0.87112 0.73138 0.0
C560 C 0.4782 0.85606 0.72746 0.0
C561 C 0.46406 0.82698 0.70004 0.0
C562 C 0.42444 0.81357 0.67637 0.0
C563 C 0.41767 0.78328 0.64821 0.0
C564 C 0.3784 0.74593 0.64963 0.0
C565 C 0.41323 0.79524 0.61123 0.0
C566 C 0.45954 0.78157 0.65987 0.0
C567 C 0.48566 0.80659 0.69014 0.0
C568 C 0.52536 0.80909 0.70648 0.0
C569 C 0.53907 0.78592 0.69101 0.0
C570 C 0.51341 0.76122 0.65929 0.0
C571 C 0.47309 0.75889 0.64376 0.0
H572 H 0.75291 0.75263 0.74957 0.0
H573 H 0.636 0.7024 0.66588 0.0
H574 H 0.67694 0.73972 0.62418 0.0
H575 H 0.79125 0.84094 0.73018 0.0
H576 H 0.84766 0.8528 0.74059 0.0
H577 H 0.81085 0.81766 0.76164 0.0
H578 H 0.83313 0.76978 0.73919 0.0
H579 H 0.87048 0.80498 0.71825 0.0
H580 H 0.82968 0.7609 0.69258 0.0
H581 H 0.72941 0.78893 0.59434 0.0
H582 H 0.78753 0.84597 0.57983 0.0
H583 H 0.86955 0.86182 0.68333 0.0
C584 C 0.73618 0.74828 0.72214 0.0
C585 C 0.69123 0.72438 0.71078 0.0
C586 C 0.67032 0.72069 0.67499 0.0
C587 C 0.69344 0.74151 0.65114 0.0
C588 C 0.73762 0.76559 0.66351 0.0
C589 C 0.75878 0.76873 0.69816 0.0
C590 C 0.80522 0.79919 0.70615 0.0
C591 C 0.81422 0.82941 0.73641 0.0
C592 C 0.83647 0.78272 0.71452 0.0
C593 C 0.80648 0.8139 0.67109 0.0
C594 C 0.76754 0.79384 0.64652 0.0
C595 C 0.7603 0.80438 0.61315 0.0
C596 C 0.79341 0.83671 0.60509 0.0
C597 C 0.83282 0.85819 0.63053 0.0
C598 C 0.83965 0.8459 0.66344 0.0
H599 H 0.68374 0.18618 0.31086 0.0
H600 H 0.8114 0.2107 0.29836 0.0
H601 H 0.78427 0.1977 0.23325 0.0
H602 H 0.62789 0.10943 0.24647 0.0
H603 H 0.58237 0.11742 0.23064 0.0
H604 H 0.61343 0.13512 0.27552 0.0
H605 H 0.62723 0.20202 0.2653 0.0
H606 H 0.59606 0.18439 0.22025 0.0
H607 H 0.65078 0.22197 0.22919 0.0
H608 H 0.74124 0.17463 0.16999 0.0
H609 H 0.68523 0.14041 0.11475 0.0
H610 H 0.58597 0.13055 0.16908 0.0
C611 C 0.70622 0.18999 0.29432 0.0
C612 C 0.74969 0.19976 0.30948 0.0
C613 C 0.77795 0.20329 0.28713 0.0
C614 C 0.76291 0.19621 0.25017 0.0
C615 C 0.71953 0.18571 0.23597 0.0
C616 C 0.6916 0.18269 0.2574 0.0
C617 C 0.64554 0.16676 0.2359 0.0
C618 C 0.61558 0.13001 0.24784 0.0
C619 C 0.62894 0.19551 0.23777 0.0
C620 C 0.65167 0.15999 0.19929 0.0
C621 C 0.69464 0.17177 0.19964 0.0
C622 C 0.70757 0.16584 0.16927 0.0
C623 C 0.6756 0.14647 0.13799 0.0
C624 C 0.63135 0.13286 0.13764 0.0
C625 C 0.6196 0.14075 0.16847 0.0
H626 H 0.4356 0.63084 0.31774 0.0
H627 H 0.52924 0.74353 0.36808 0.0
H628 H 0.54315 0.71969 0.42388 0.0
H629 H 0.39336 0.59895 0.39836 0.0
H630 H 0.38676 0.55262 0.38837 0.0
H631 H 0.38108 0.57857 0.35296 0.0
H632 H 0.43941 0.57023 0.32896 0.0
H633 H 0.44539 0.54444 0.36434 0.0
H634 H 0.49188 0.58525 0.35784 0.0
H635 H 0.55568 0.68404 0.47006 0.0
H636 H 0.55967 0.63877 0.50851 0.0
H637 H 0.45242 0.54801 0.43327 0.0
C638 C 0.45809 0.65039 0.34091 0.0
C639 C 0.48115 0.68908 0.33904 0.0
C640 C 0.51102 0.71391 0.36935 0.0
C641 C 0.5192 0.70061 0.40107 0.0
C642 C 0.4968 0.66234 0.40213 0.0
C643 C 0.46625 0.6375 0.37322 0.0
C644 C 0.44797 0.59758 0.38175 0.0
C645 C 0.3994 0.58096 0.38028 0.0
C646 C 0.45671 0.57293 0.35674 0.0
C647 C 0.47403 0.60398 0.41954 0.0
C648 C 0.50212 0.64164 0.43041 0.0
C649 C 0.53272 0.65464 0.46251 0.0
C650 C 0.53448 0.62865 0.48438 0.0
C651 C 0.50496 0.59004 0.4749 0.0
C652 C 0.47429 0.57751 0.44188 0.0
H653 H 0.1839 0.45224 0.89393 0.0
H654 H 0.10829 0.45872 0.79574 0.0
H655 H 0.06876 0.47951 0.82965 0.0
H656 H 0.09629 0.41907 0.94217 0.0
H657 H 0.13216 0.44625 0.98372 0.0
H658 H 0.15229 0.42961 0.95163 0.0
H659 H 0.21151 0.4974 0.95271 0.0
H660 H 0.1913 0.51428 0.98451 0.0
H661 H 0.196 0.53317 0.94342 0.0
H662 H 0.04097 0.50403 0.8748 0.0
H663 H 1.02396 0.52648 0.92664 0.0
H664 H 0.11648 0.50329 0.99652 0.0
C665 C 0.15824 0.45717 0.87962 0.0
C666 C 0.14848 0.45315 0.84208 0.0
C667 C 0.11565 0.46089 0.82435 0.0
C668 C 0.09323 0.47294 0.84348 0.0
C669 C 0.10395 0.47717 0.8805 0.0
C670 C 0.1354 0.46913 0.89841 0.0
C671 C 0.14145 0.47694 0.93833 0.0
C672 C 0.12985 0.44081 0.95494 0.0
C673 C 0.18782 0.50725 0.95576 0.0
C674 C 0.10891 0.49102 0.94014 0.0
C675 C 0.08772 0.49099 0.90644 0.0
C676 C 0.05718 0.50382 0.90124 0.0
C677 C 0.04782 0.51672 0.93103 0.0
C678 C 0.06863 0.51672 0.96599 0.0
C679 C 0.09965 0.50355 0.97033 0.0
H680 H 0.56204 0.78797 0.78481 0.0
H681 H 0.59427 0.72847 0.86546 0.0
H682 H 0.60228 0.77618 0.91225 0.0
H683 H 0.63661 0.8808 0.82983 0.0
H684 H 0.6005 0.89973 0.81498 0.0
H685 H 0.59678 0.86052 0.78847 0.0
H686 H 0.51533 0.8222 0.78932 0.0
H687 H 0.51959 0.86186 0.81561 0.0
H688 H 0.50029 0.81714 0.83125 0.0
H689 H 0.6074 0.83052 0.94978 0.0
H690 H 0.60992 0.88806 0.97603 0.0
H691 H 0.57462 0.91263 0.87078 0.0
C692 C 0.57052 0.78505 0.81239 0.0
C693 C 0.57733 0.75478 0.82196 0.0
C694 C 0.58872 0.75158 0.858 0.0
C695 C 0.59336 0.77849 0.88459 0.0
C696 C 0.58651 0.80825 0.87444 0.0
C697 C 0.57533 0.8117 0.83922 0.0
C698 C 0.57029 0.84656 0.83547 0.0
C699 C 0.60299 0.87349 0.81604 0.0
C700 C 0.52361 0.83633 0.81681 0.0
C701 C 0.58076 0.86238 0.87408 0.0
C702 C 0.5898 0.83973 0.89609 0.0
C703 C 0.60026 0.8484 0.93282 0.0
C704 C 0.60143 0.88105 0.94748 0.0
C705 C 0.59239 0.90477 0.92547 0.0
C706 C 0.58205 0.89523 0.88827 0.0
H707 H 0.88114 0.20941 0.44151 0.0
H708 H 0.76459 0.10987 0.38698 0.0
H709 H 0.79708 0.07046 0.41005 0.0
H710 H 0.95514 0.17678 0.42389 0.0
H711 H 0.99301 0.19847 0.46607 0.0
H712 H 0.95997 0.21869 0.44642 0.0
H713 H 0.93104 0.21539 0.50318 0.0
H714 H 0.96405 0.19523 0.523 0.0
H715 H 0.90652 0.17125 0.51948 0.0
H716 H 0.84133 0.04191 0.44103 0.0
H717 H 0.89637 0.02646 0.47392 0.0
H718 H 0.98621 0.14475 0.50443 0.0
C719 C 0.86255 0.1793 0.43465 0.0
C720 C 0.82034 0.16249 0.41271 0.0
C721 C 0.797 0.12311 0.40378 0.0
C722 C 0.81514 0.10057 0.41681 0.0
C723 C 0.8569 0.11794 0.43832 0.0
C724 C 0.88053 0.15642 0.44688 0.0
C725 C 0.92533 0.16805 0.46941 0.0
C726 C 0.96043 0.1919 0.45029 0.0
C727 C 0.93212 0.18869 0.50593 0.0
C728 C 0.9231 0.13012 0.47235 0.0
C729 C 0.88318 0.10156 0.45458 0.0
C730 C 0.87286 0.06405 0.45474 0.0
C731 C 0.90423 0.05553 0.47351 0.0
C732 C 0.94558 0.08439 0.4913 0.0
C733 C 0.95507 0.12212 0.49053 0.0
H734 H 0.34495 0.66999 0.16366 0.0
H735 H 0.33334 0.72838 0.25329 0.0
H736 H 0.25456 0.70146 0.22793 0.0
H737 H 0.2767 0.68497 0.0996 0.0
H738 H 0.25238 0.63997 0.07259 0.0
H739 H 0.30602 0.6587 0.1003 0.0
H740 H 0.28242 0.59928 0.13063 0.0
H741 H 0.22832 0.57987 0.10326 0.0
H742 H 0.23708 0.58485 0.15091 0.0
H743 H 0.18131 0.67795 0.1879 0.0
H744 H 0.11586 0.65348 0.13902 0.0
H745 H 0.17315 0.60661 0.0766 0.0
C746 C 0.32529 0.67572 0.1785 0.0
C747 C 0.34446 0.70038 0.21068 0.0
C748 C 0.3186 0.7087 0.22901 0.0
C749 C 0.27405 0.69373 0.2147 0.0
C750 C 0.25614 0.67034 0.18224 0.0
C751 C 0.28078 0.66079 0.16467 0.0
C752 C 0.25432 0.63725 0.12907 0.0
C753 C 0.27351 0.65638 0.09861 0.0
C754 C 0.25027 0.59795 0.1284 0.0
C755 C 0.21138 0.63628 0.12868 0.0
C756 C 0.21318 0.65558 0.15962 0.0
C757 C 0.17914 0.66199 0.16396 0.0
C758 C 0.14233 0.64832 0.13599 0.0
C759 C 0.13969 0.62811 0.10435 0.0
C760 C 0.1743 0.62147 0.10086 0.0
H761 H 0.29359 0.41097 0.69584 0.0
H762 H 0.26461 0.50313 0.70663 0.0
H763 H 0.31752 0.53793 0.67168 0.0
H764 H 0.40771 0.46685 0.70236 0.0
H765 H 0.41011 0.4352 0.67008 0.0
H766 H 0.37013 0.41758 0.69605 0.0
H767 H 0.30945 0.38787 0.63857 0.0
H768 H 0.34926 0.40553 0.61242 0.0
H769 H 0.3054 0.41684 0.60562 0.0
H770 H 0.37348 0.56276 0.63534 0.0
H771 H 0.42992 0.5769 0.6021 0.0
H772 H 0.42237 0.46826 0.61361 0.0
C773 C 0.29799 0.43833 0.69063 0.0
C774 C 0.27454 0.45416 0.70407 0.0
C775 C 0.28225 0.49043 0.69708 0.0
C776 C 0.31209 0.51034 0.677 0.0
C777 C 0.33423 0.49375 0.66398 0.0
C778 C 0.32769 0.45862 0.67062 0.0
C779 C 0.3561 0.44735 0.65386 0.0
C780 C 0.3879 0.4414 0.68229 0.0
C781 C 0.32839 0.41232 0.62596 0.0
C782 C 0.37963 0.48165 0.6367 0.0
C783 C 0.36643 0.50802 0.64288 0.0
C784 C 0.38395 0.54226 0.63031 0.0
C785 C 0.41609 0.55001 0.61135 0.0
C786 C 0.4307 0.5237 0.6049 0.0
C787 C 0.41172 0.48886 0.6176 0.0
H788 H 0.69965 0.63481 0.78891 0.0
H789 H 0.67588 0.70015 0.86469 0.0
H790 H 0.71949 0.68635 0.91354 0.0
H791 H 0.70268 0.56418 0.84496 0.0
H792 H 0.74617 0.56285 0.82894 0.0
H793 H 0.70783 0.57304 0.80055 0.0
H794 H 0.77011 0.63464 0.79069 0.0
H795 H 0.80887 0.62492 0.81888 0.0
H796 H 0.80796 0.6683 0.82845 0.0
H797 H 0.77328 0.67206 0.95328 0.0
H798 H 0.8311 0.65725 0.98059 0.0
H799 H 0.82156 0.60361 0.87816 0.0
C800 C 0.70302 0.64576 0.81582 0.0
C801 C 0.68424 0.66852 0.82295 0.0
C802 C 0.68933 0.68215 0.85857 0.0
C803 C 0.71425 0.67461 0.8865 0.0
C804 C 0.7336 0.65319 0.87838 0.0
C805 C 0.72795 0.63873 0.84388 0.0
C806 C 0.75506 0.61931 0.84178 0.0
C807 C 0.7262 0.57735 0.82828 0.0
C808 C 0.78741 0.63792 0.81859 0.0
C809 C 0.77788 0.62602 0.88037 0.0
C810 C 0.76476 0.64524 0.90116 0.0
C811 C 0.78337 0.65659 0.93732 0.0
C812 C 0.81644 0.64832 0.95254 0.0
C813 C 0.83079 0.6291 0.93159 0.0
C814 C 0.81071 0.61753 0.89511 0.0
H815 H 0.42359 0.82417 0.18872 0.0
H816 H 0.53607 0.80675 0.19591 0.0
H817 H 0.56989 0.8622 0.16692 0.0
H818 H 0.42199 0.84996 0.10059 0.0
H819 H 0.40406 0.88377 0.1089 0.0
H820 H 0.38933 0.8439 0.13229 0.0
H821 H 0.42266 0.88804 0.19211 0.0
H822 H 0.43762 0.92807 0.16893 0.0
H823 H 0.47819 0.92421 0.20141 0.0
H824 H 0.59246 0.9199 0.13828 0.0
H825 H 0.60054 0.97389 0.10785 0.0
H826 H 0.47083 0.95109 0.11305 0.0
C827 C 0.45512 0.83152 0.18394 0.0
C828 C 0.47711 0.8108 0.19525 0.0
C829 C 0.51872 0.82233 0.18867 0.0
C830 C 0.53817 0.85372 0.17182 0.0
C831 C 0.51548 0.87318 0.16105 0.0
C832 C 0.47469 0.86235 0.16645 0.0
C833 C 0.45672 0.88744 0.15099 0.0
C834 C 0.41559 0.86492 0.12143 0.0
C835 C 0.44831 0.90817 0.1801 0.0
C836 C 0.49398 0.91421 0.1362 0.0
C837 C 0.52766 0.90558 0.14273 0.0
C838 C 0.5662 0.92675 0.13277 0.0
C839 C 0.57048 0.95748 0.11557 0.0
C840 C 0.53622 0.9666 0.1079 0.0
C841 C 0.49736 0.94454 0.11829 0.0
H842 H 0.11436 0.32699 0.68214 0.0
H843 H 0.21423 0.32703 0.76496 0.0
H844 H 0.19364 0.26231 0.7404 0.0
H845 H 0.03393 0.2261 0.67852 0.0
H846 H 1.01468 0.22028 0.63119 0.0
H847 H 0.03487 0.26511 0.65741 0.0
H848 H 0.08918 0.29549 0.61816 0.0
H849 H 0.06987 0.25068 0.59236 0.0
H850 H 0.1265 0.27815 0.61345 0.0
H851 H 0.16947 0.20137 0.70129 0.0
H852 H 0.13432 0.14391 0.65722 0.0
H853 H 0.0455 0.18047 0.60266 0.0
C854 C 0.13053 0.31267 0.69589 0.0
C855 C 0.16513 0.33156 0.72604 0.0
C856 C 0.18683 0.31259 0.74253 0.0
C857 C 0.17566 0.27601 0.72848 0.0
C858 C 0.14229 0.25849 0.69809 0.0
C859 C 0.11916 0.27576 0.68256 0.0
C860 C 0.0852 0.25092 0.64972 0.0
C861 C 0.03945 0.23994 0.65451 0.0
C862 C 0.09319 0.26996 0.61647 0.0
C863 C 0.09343 0.2174 0.64881 0.0
C864 C 0.12696 0.22257 0.67664 0.0
C865 C 0.14256 0.19669 0.67986 0.0
C866 C 0.12269 0.16429 0.65456 0.0
C867 C 0.08703 0.15764 0.62679 0.0
C868 C 0.07239 0.18466 0.62393 0.0
H869 H 0.74813 0.32531 0.46696 0.0
H870 H 0.66151 0.24357 0.37552 0.0
H871 H 0.61094 0.27027 0.37298 0.0
H872 H 0.66785 0.32281 0.50841 0.0
H873 H 0.69564 0.37205 0.52521 0.0
H874 H 0.72606 0.34848 0.51761 0.0
H875 H 0.76274 0.3962 0.47669 0.0
H876 H 0.73245 0.41998 0.48424 0.0
H877 H 0.72966 0.40331 0.43967 0.0
H878 H 0.5674 0.3033 0.3841 0.0
H879 H 0.53571 0.34026 0.40686 0.0
H880 H 0.65203 0.4005 0.49059 0.0
C881 C 0.71884 0.31358 0.44605 0.0
C882 C 0.70855 0.2828 0.42119 0.0
C883 C 0.66981 0.26748 0.39453 0.0
C884 C 0.64103 0.28244 0.39296 0.0
C885 C 0.65178 0.31269 0.41824 0.0
C886 C 0.68996 0.3282 0.44415 0.0
C887 C 0.69319 0.35935 0.46922 0.0
C888 C 0.69582 0.3501 0.50736 0.0
C889 C 0.7318 0.39694 0.46732 0.0
C890 C 0.65065 0.35872 0.45381 0.0
C891 C 0.62715 0.33171 0.42437 0.0
C892 C 0.58578 0.32476 0.4069 0.0
C893 C 0.56797 0.34576 0.42006 0.0
C894 C 0.5916 0.37348 0.45027 0.0
C895 C 0.63359 0.38011 0.46699 0.0
loop_
_geom_bond_atom_site_label_1
_geom_bond_atom_site_label_2
_geom_bond_distance
_geom_bond_site_symmetry_2
_ccdc_geom_bond_type
H0 C3 0.929 . S
H1 C6 0.929 . S
H2 C8 0.930 . S
C3 H0 0.929 . S
C3 C4 1.398 . S
C3 C5 1.396 . S
C4 C3 1.398 . S
C4 C8 1.407 . S
C5 C3 1.396 . S
C5 C6 1.394 . S
C6 H1 0.929 . S
C6 C5 1.394 . S
C6 C7 1.382 . S
C7 C6 1.382 . S
C7 C8 1.392 . S
C7 N9 1.420 . S
C8 H2 0.930 . S
C8 C4 1.407 . S
C8 C7 1.392 . S
N9 C7 1.420 . S
N9 C10 1.244 . S
C10 N9 1.244 . S
H11 C14 0.929 . S
H12 C17 0.929 . S
H13 C19 0.930 . S
C14 H11 0.929 . S
C14 C15 1.398 . S
C14 C16 1.396 . S
C15 C14 1.398 . S
C15 C19 1.407 . S
C16 C14 1.396 . S
C16 C17 1.394 . S
C17 H12 0.929 . S
C17 C16 1.394 . S
C17 C18 1.382 . S
C18 C17 1.382 . S
C18 C19 1.392 . S
C18 N20 1.420 . S
C19 H13 0.930 . S
C19 C15 1.407 . S
C19 C18 1.392 . S
N20 C18 1.420 . S
N20 C21 1.244 . S
C21 N20 1.244 . S
H22 C25 0.929 . S
H23 C28 0.929 . S
H24 C30 0.930 . S
C25 H22 0.929 . S
C25 C26 1.398 . S
C25 C27 1.396 . S
C26 C25 1.398 . S
C26 C30 1.407 . S
C27 C25 1.396 . S
C27 C28 1.394 . S
C28 H23 0.929 . S
C28 C27 1.394 . S
C28 C29 1.382 . S
C29 C28 1.382 . S
C29 C30 1.392 . S
C29 N31 1.420 . S
C30 H24 0.930 . S
C30 C26 1.407 . S
C30 C29 1.392 . S
N31 C29 1.420 . S
N31 C32 1.244 . S
C32 N31 1.244 . S
H33 C36 0.929 . S
H34 C39 0.929 . S
H35 C41 0.930 . S
C36 H33 0.929 . S
C36 C37 1.398 . S
C36 C38 1.396 . S
C37 C36 1.398 . S
C37 C41 1.407 . S
C38 C36 1.396 . S
C38 C39 1.394 . S
C39 H34 0.929 . S
C39 C38 1.394 . S
C39 C40 1.382 . S
C40 C39 1.382 . S
C40 C41 1.392 . S
C40 N42 1.420 . S
C41 H35 0.930 . S
C41 C37 1.407 . S
C41 C40 1.392 . S
N42 C40 1.420 . S
N42 C43 1.244 . S
C43 N42 1.244 . S
H44 C47 0.929 . S
H45 C50 0.929 . S
H46 C52 0.930 . S
C47 H44 0.929 . S
C47 C48 1.398 . S
C47 C49 1.396 . S
C48 C47 1.398 . S
C48 C52 1.407 . S
C49 C47 1.396 . S
C49 C50 1.394 . S
C50 H45 0.929 . S
C50 C49 1.394 . S
C50 C51 1.382 . S
C51 C50 1.382 . S
C51 C52 1.392 . S
C51 N53 1.420 . S
C52 H46 0.930 . S
C52 C48 1.407 . S
C52 C51 1.392 . S
N53 C51 1.420 . S
N53 C54 1.244 . S
C54 N53 1.244 . S
H55 C58 0.929 . S
H56 C61 0.929 . S
H57 C63 0.930 . S
C58 H55 0.929 . S
C58 C59 1.398 . S
C58 C60 1.396 . S
C59 C58 1.398 . S
C59 C63 1.407 . S
C60 C58 1.396 . S
C60 C61 1.394 . S
C61 H56 0.929 . S
C61 C60 1.394 . S
C61 C62 1.382 . S
C62 C61 1.382 . S
C62 C63 1.392 . S
C62 N64 1.420 . S
C63 H57 0.930 . S
C63 C59 1.407 . S
C63 C62 1.392 . S
N64 C62 1.420 . S
N64 C65 1.244 . S
C65 N64 1.244 . S
H66 C69 0.929 . S
H67 C72 0.929 . S
H68 C74 0.930 . S
C69 H66 0.929 . S
C69 C70 1.398 . S
C69 C71 1.396 . S
C70 C69 1.398 . S
C70 C74 1.407 . S
C71 C69 1.396 . S
C71 C72 1.394 . S
C72 H67 0.929 . S
C72 C71 1.394 . S
C72 C73 1.382 . S
C73 C72 1.382 . S
C73 C74 1.392 . S
C73 N75 1.420 . S
C74 H68 0.930 . S
C74 C70 1.407 . S
C74 C73 1.392 . S
N75 C73 1.420 . S
N75 C76 1.244 . S
C76 N75 1.244 . S
H77 C80 0.929 . S
H78 C83 0.929 . S
H79 C85 0.930 . S
C80 H77 0.929 . S
C80 C81 1.398 . S
C80 C82 1.396 . S
C81 C80 1.398 . S
C81 C85 1.407 . S
C82 C80 1.396 . S
C82 C83 1.394 . S
C83 H78 0.929 . S
C83 C82 1.394 . S
C83 C84 1.382 . S
C84 C83 1.382 . S
C84 C85 1.392 . S
C84 N86 1.420 . S
C85 H79 0.930 . S
C85 C81 1.407 . S
C85 C84 1.392 . S
N86 C84 1.420 . S
N86 C87 1.244 . S
C87 N86 1.244 . S
Pr88 C90 2.880 1_545 S
Pr88 O108 2.562 1_545 S
Pr88 O109 2.490 1_545 S
Pr88 O110 2.695 1_655 S
Pr88 O111 2.512 1_655 S
Pr88 O113 2.437 1_645 S
Pr88 O116 2.436 1_545 S
Pr88 O118 2.438 . S
Pr89 C99 2.880 . S
Pr89 O110 2.436 . S
Pr89 O112 2.438 . S
Pr89 O114 2.562 . S
Pr89 O115 2.490 . S
Pr89 O116 2.695 1_445 S
Pr89 O117 2.512 1_545 S
Pr89 O119 2.437 . S
C90 Pr88 2.880 1_565 S
C90 C91 1.491 . S
C90 O108 1.254 . S
C90 O109 1.225 . S
C91 C90 1.491 . S
C91 C92 1.392 . S
C91 C96 1.356 . S
C92 C91 1.392 . S
C92 C93 1.368 . S
C92 H120 0.929 . S
C93 C92 1.368 . S
C93 C94 1.386 . S
C93 H121 0.929 . S
C94 C93 1.386 . S
C94 C95 1.373 . S
C95 C94 1.373 . S
C95 C96 1.409 . S
C95 H122 0.931 . S
C96 C91 1.356 . S
C96 C95 1.409 . S
C96 H123 0.930 . S
C97 O110 1.270 . S
C97 O111 1.248 . S
C98 O112 1.267 1_565 S
C98 O113 1.278 . S
C99 Pr89 2.880 . S
C99 C100 1.491 . S
C99 O114 1.254 . S
C99 O115 1.225 . S
C100 C99 1.491 . S
C100 C101 1.392 . S
C100 C105 1.356 . S
C101 C100 1.392 . S
C101 C102 1.368 . S
C101 H124 0.929 . S
C102 C101 1.368 . S
C102 C103 1.386 . S
C102 H125 0.929 . S
C103 C102 1.386 . S
C103 C104 1.373 . S
C104 C103 1.373 . S
C104 C105 1.409 . S
C104 H126 0.931 . S
C105 C100 1.356 . S
C105 C104 1.409 . S
C105 H127 0.930 . S
C106 O116 1.270 . S
C106 O117 1.248 1_655 S
C107 O118 1.267 . S
C107 O119 1.278 1_655 S
O108 Pr88 2.562 1_565 S
O108 C90 1.254 . S
O109 Pr88 2.490 1_565 S
O109 C90 1.225 . S
O110 Pr88 2.695 1_455 S
O110 Pr89 2.436 . S
O110 C97 1.270 . S
O111 Pr88 2.512 1_455 S
O111 C97 1.248 . S
O112 Pr89 2.438 . S
O112 C98 1.267 1_545 S
O113 Pr88 2.437 1_465 S
O113 C98 1.278 . S
O114 Pr89 2.562 . S
O114 C99 1.254 . S
O115 Pr89 2.490 . S
O115 C99 1.225 . S
O116 Pr88 2.436 1_565 S
O116 Pr89 2.695 1_665 S
O116 C106 1.270 . S
O117 Pr89 2.512 1_565 S
O117 C106 1.248 1_455 S
O118 Pr88 2.438 . S
O118 C107 1.267 . S
O119 Pr89 2.437 . S
O119 C107 1.278 1_455 S
H120 C92 0.929 . S
H121 C93 0.929 . S
H122 C95 0.931 . S
H123 C96 0.930 . S
H124 C101 0.929 . S
H125 C102 0.929 . S
H126 C104 0.931 . S
H127 C105 0.930 . S
Pr128 C130 2.880 . S
Pr128 O148 2.562 . S
Pr128 O149 2.490 . S
Pr128 O150 2.695 . S
Pr128 O151 2.512 . S
Pr128 O153 2.437 . S
Pr128 O156 2.464 . S
Pr128 O158 2.438 1_545 S
Pr129 C139 2.866 1_544 S
Pr129 O150 2.436 . S
Pr129 O152 2.438 . S
Pr129 O154 2.562 1_544 S
Pr129 O155 2.490 1_545 S
Pr129 O156 2.684 . S
Pr129 O157 2.512 1_545 S
Pr129 O159 2.437 1_545 S
C130 Pr128 2.880 . S
C130 C131 1.491 . S
C130 O148 1.254 . S
C130 O149 1.225 . S
C131 C130 1.491 . S
C131 C132 1.392 . S
C131 C136 1.356 . S
C132 C131 1.392 . S
C132 C133 1.368 . S
C132 H160 0.929 . S
C133 C132 1.368 . S
C133 C134 1.386 . S
C133 H161 0.929 . S
C134 C133 1.386 . S
C134 C135 1.373 . S
C135 C134 1.373 . S
C135 C136 1.409 . S
C135 H162 0.931 . S
C136 C131 1.356 . S
C136 C135 1.409 . S
C136 H163 0.930 . S
C137 O150 1.270 . S
C137 O151 1.248 . S
C138 O152 1.267 . S
C138 O153 1.278 . S
C139 Pr129 2.866 1_566 S
C139 C140 1.505 . S
C139 O154 1.260 . S
C139 O155 1.206 1_556 S
C140 C139 1.505 . S
C140 C141 1.392 . S
C140 C145 1.356 . S
C141 C140 1.392 . S
C141 C142 1.368 . S
C141 H164 0.929 1_556 S
C142 C141 1.368 . S
C142 C143 1.386 . S
C142 H165 0.929 . S
C143 C142 1.386 . S
C143 C144 1.373 . S
C144 C143 1.373 . S
C144 C145 1.409 . S
C144 H166 0.931 . S
C145 C140 1.356 . S
C145 C144 1.409 . S
C145 H167 0.930 . S
C146 O156 1.240 1_565 S
C146 O157 1.248 . S
C147 O158 1.267 1_556 S
C147 O159 1.278 1_556 S
O148 Pr128 2.562 . S
O148 C130 1.254 . S
O149 Pr128 2.490 . S
O149 C130 1.225 . S
O150 Pr128 2.695 . S
O150 Pr129 2.436 . S
O150 C137 1.270 . S
O151 Pr128 2.512 . S
O151 C137 1.248 . S
O152 Pr129 2.438 . S
O152 C138 1.267 . S
O153 Pr128 2.437 . S
O153 C138 1.278 . S
O154 Pr129 2.562 1_566 S
O154 C139 1.260 . S
O155 Pr129 2.490 1_565 S
O155 C139 1.206 1_554 S
O156 Pr128 2.464 . S
O156 Pr129 2.684 . S
O156 C146 1.240 1_545 S
O157 Pr129 2.512 1_565 S
O157 C146 1.248 . S
O158 Pr128 2.438 1_565 S
O158 C147 1.267 1_554 S
O159 Pr129 2.437 1_565 S
O159 C147 1.278 1_554 S
H160 C132 0.929 . S
H161 C133 0.929 . S
H162 C135 0.931 . S
H163 C136 0.930 . S
H164 C141 0.929 1_554 S
H165 C142 0.929 . S
H166 C144 0.931 . S
H167 C145 0.930 . S
Pr168 C170 2.880 . S
Pr168 O188 2.562 . S
Pr168 O189 2.490 . S
Pr168 O190 2.695 . S
Pr168 O191 2.512 . S
Pr168 O193 2.437 . S
Pr168 O196 2.436 . S
Pr168 O198 2.438 . S
Pr169 C179 2.880 . S
Pr169 O190 2.436 . S
Pr169 O192 2.438 . S
Pr169 O194 2.562 . S
Pr169 O195 2.490 . S
Pr169 O196 2.695 . S
Pr169 O197 2.512 . S
Pr169 O199 2.437 . S
C170 Pr168 2.880 . S
C170 C171 1.491 . S
C170 O188 1.254 . S
C170 O189 1.225 . S
C171 C170 1.491 . S
C171 C172 1.392 . S
C171 C176 1.356 . S
C172 C171 1.392 . S
C172 C173 1.368 . S
C172 H200 0.929 . S
C173 C172 1.368 . S
C173 C174 1.386 . S
C173 H201 0.929 . S
C174 C173 1.386 . S
C174 C175 1.373 . S
C175 C174 1.373 . S
C175 C176 1.409 . S
C175 H202 0.931 . S
C176 C171 1.356 . S
C176 C175 1.409 . S
C176 H203 0.930 . S
C177 O190 1.270 . S
C177 O191 1.248 . S
C178 O192 1.267 . S
C178 O193 1.278 . S
C179 Pr169 2.880 . S
C179 C180 1.491 . S
C179 O194 1.254 . S
C179 O195 1.225 . S
C180 C179 1.491 . S
C180 C181 1.392 . S
C180 C185 1.356 . S
C181 C180 1.392 . S
C181 C182 1.368 . S
C181 H204 0.929 . S
C182 C181 1.368 . S
C182 C183 1.386 . S
C182 H205 0.929 . S
C183 C182 1.386 . S
C183 C184 1.373 . S
C184 C183 1.373 . S
C184 C185 1.409 . S
C184 H206 0.931 . S
C185 C180 1.356 . S
C185 C184 1.409 . S
C185 H207 0.930 . S
C186 O196 1.270 . S
C186 O197 1.248 . S
C187 O198 1.267 . S
C187 O199 1.278 . S
O188 Pr168 2.562 . S
O188 C170 1.254 . S
O189 Pr168 2.490 . S
O189 C170 1.225 . S
O190 Pr168 2.695 . S
O190 Pr169 2.436 . S
O190 C177 1.270 . S
O191 Pr168 2.512 . S
O191 C177 1.248 . S
O192 Pr169 2.438 . S
O192 C178 1.267 . S
O193 Pr168 2.437 . S
O193 C178 1.278 . S
O194 Pr169 2.562 . S
O194 C179 1.254 . S
O195 Pr169 2.490 . S
O195 C179 1.225 . S
O196 Pr168 2.436 . S
O196 Pr169 2.695 . S
O196 C186 1.270 . S
O197 Pr169 2.512 . S
O197 C186 1.248 . S
O198 Pr168 2.438 . S
O198 C187 1.267 . S
O199 Pr169 2.437 . S
O199 C187 1.278 . S
H200 C172 0.929 . S
H201 C173 0.929 . S
H202 C175 0.931 . S
H203 C176 0.930 . S
H204 C181 0.929 . S
H205 C182 0.929 . S
H206 C184 0.931 . S
H207 C185 0.930 . S
Pr208 C210 2.880 1_455 S
Pr208 O228 2.562 1_455 S
Pr208 O229 2.490 . S
Pr208 O230 2.695 1_556 S
Pr208 O231 2.512 1_556 S
Pr208 O233 2.437 1_556 S
Pr208 O236 2.436 1_455 S
Pr208 O238 2.438 . S
Pr209 C219 2.880 . S
Pr209 O230 2.436 . S
Pr209 O232 2.413 1_455 S
Pr209 O234 2.562 . S
Pr209 O235 2.490 . S
Pr209 O236 2.695 1_454 S
Pr209 O237 2.512 1_454 S
Pr209 O239 2.437 1_554 S
C210 Pr208 2.880 1_655 S
C210 C211 1.491 . S
C210 O228 1.254 . S
C210 O229 1.225 1_655 S
C211 C210 1.491 . S
C211 C212 1.392 . S
C211 C216 1.356 . S
C212 C211 1.392 . S
C212 C213 1.368 . S
C212 H240 0.929 1_655 S
C213 C212 1.368 . S
C213 C214 1.386 . S
C213 H241 0.929 . S
C214 C213 1.386 . S
C214 C215 1.373 . S
C215 C214 1.373 . S
C215 C216 1.409 . S
C215 H242 0.931 . S
C216 C211 1.356 . S
C216 C215 1.409 . S
C216 H243 0.930 . S
C217 O230 1.270 . S
C217 O231 1.248 . S
C218 O232 1.282 . S
C218 O233 1.278 1_655 S
C219 Pr209 2.880 . S
C219 C220 1.491 . S
C219 O234 1.254 . S
C219 O235 1.225 . S
C220 C219 1.491 . S
C220 C221 1.392 . S
C220 C225 1.356 . S
C221 C220 1.392 . S
C221 C222 1.368 . S
C221 H244 0.929 . S
C222 C221 1.368 . S
C222 C223 1.386 . S
C222 H245 0.929 . S
C223 C222 1.386 . S
C223 C224 1.373 . S
C224 C223 1.373 . S
C224 C225 1.409 . S
C224 H246 0.931 . S
C225 C220 1.356 . S
C225 C224 1.409 . S
C225 H247 0.930 . S
C226 O236 1.270 . S
C226 O237 1.248 . S
C227 O238 1.267 . S
C227 O239 1.278 . S
O228 Pr208 2.562 1_655 S
O228 C210 1.254 . S
O229 Pr208 2.490 . S
O229 C210 1.225 1_455 S
O230 Pr208 2.695 1_554 S
O230 Pr209 2.436 . S
O230 C217 1.270 . S
O231 Pr208 2.512 1_554 S
O231 C217 1.248 . S
O232 Pr209 2.413 1_655 S
O232 C218 1.282 . S
O233 Pr208 2.437 1_554 S
O233 C218 1.278 1_455 S
O234 Pr209 2.562 . S
O234 C219 1.254 . S
O235 Pr209 2.490 . S
O235 C219 1.225 . S
O236 Pr208 2.436 1_655 S
O236 Pr209 2.695 1_656 S
O236 C226 1.270 . S
O237 Pr209 2.512 1_656 S
O237 C226 1.248 . S
O238 Pr208 2.438 . S
O238 C227 1.267 . S
O239 Pr209 2.437 1_556 S
O239 C227 1.278 . S
H240 C212 0.929 1_455 S
H241 C213 0.929 . S
H242 C215 0.931 . S
H243 C216 0.930 . S
H244 C221 0.929 . S
H245 C222 0.929 . S
H246 C224 0.931 . S
H247 C225 0.930 . S
H248 C260 0.930 . S
H249 C262 0.930 . S
H250 C263 0.930 . S
H251 C267 0.959 . S
H252 C267 0.959 . S
H253 C267 0.961 . S
H254 C268 0.960 . S
H255 C268 0.961 . S
H256 C268 0.959 . S
H257 C271 0.929 . S
H258 C272 0.931 . S
H259 C274 0.930 . S
C260 H248 0.930 . S
C260 C261 1.399 . S
C260 C265 1.399 . S
C261 C260 1.399 . S
C261 C262 1.376 . S
C262 H249 0.930 . S
C262 C261 1.376 . S
C262 C263 1.388 . S
C263 H250 0.930 . S
C263 C262 1.388 . S
C263 C264 1.390 . S
C264 C263 1.390 . S
C264 C265 1.394 . S
C264 C270 1.465 . S
C265 C260 1.399 . S
C265 C264 1.394 . S
C265 C266 1.516 . S
C266 C265 1.516 . S
C266 C267 1.502 . S
C266 C268 1.561 . S
C266 C269 1.526 . S
C267 H251 0.959 . S
C267 H252 0.959 . S
C267 H253 0.961 . S
C267 C266 1.502 . S
C268 H254 0.960 . S
C268 H255 0.961 . S
C268 H256 0.959 . S
C268 C266 1.561 . S
C269 C266 1.526 . S
C269 C270 1.396 . S
C269 C274 1.390 . S
C270 C264 1.465 . S
C270 C269 1.396 . S
C270 C271 1.399 . S
C271 H257 0.929 . S
C271 C270 1.399 . S
C271 C272 1.385 . S
C272 H258 0.931 . S
C272 C271 1.385 . S
C272 C273 1.389 . S
C273 C272 1.389 . S
C273 C274 1.387 . S
C274 H259 0.930 . S
C274 C269 1.390 . S
C274 C273 1.387 . S
H275 C287 0.930 . S
H276 C289 0.930 . S
H277 C290 0.930 . S
H278 C294 0.959 . S
H279 C294 0.959 . S
H280 C294 0.961 . S
H281 C295 0.960 . S
H282 C295 0.961 . S
H283 C295 0.959 . S
H284 C298 0.929 . S
H285 C299 0.931 . S
H286 C301 0.930 . S
C287 H275 0.930 . S
C287 C288 1.399 . S
C287 C292 1.399 . S
C288 C287 1.399 . S
C288 C289 1.376 . S
C289 H276 0.930 . S
C289 C288 1.376 . S
C289 C290 1.388 . S
C290 H277 0.930 . S
C290 C289 1.388 . S
C290 C291 1.390 . S
C291 C290 1.390 . S
C291 C292 1.394 . S
C291 C297 1.465 . S
C292 C287 1.399 . S
C292 C291 1.394 . S
C292 C293 1.516 . S
C293 C292 1.516 . S
C293 C294 1.502 . S
C293 C295 1.561 . S
C293 C296 1.526 . S
C294 H278 0.959 . S
C294 H279 0.959 . S
C294 H280 0.961 . S
C294 C293 1.502 . S
C295 H281 0.960 . S
C295 H282 0.961 . S
C295 H283 0.959 . S
C295 C293 1.561 . S
C296 C293 1.526 . S
C296 C297 1.396 . S
C296 C301 1.390 . S
C297 C291 1.465 . S
C297 C296 1.396 . S
C297 C298 1.399 . S
C298 H284 0.929 . S
C298 C297 1.399 . S
C298 C299 1.385 . S
C299 H285 0.931 . S
C299 C298 1.385 . S
C299 C300 1.389 . S
C300 C299 1.389 . S
C300 C301 1.387 . S
C301 H286 0.930 . S
C301 C296 1.390 . S
C301 C300 1.387 . S
H302 C314 0.930 . S
H303 C316 0.930 . S
H304 C317 0.930 . S
H305 C321 0.959 . S
H306 C321 0.959 . S
H307 C321 0.961 . S
H308 C322 0.960 . S
H309 C322 0.961 . S
H310 C322 0.959 . S
H311 C325 0.929 . S
H312 C326 0.931 . S
H313 C328 0.930 . S
C314 H302 0.930 . S
C314 C315 1.399 . S
C314 C319 1.399 . S
C315 C314 1.399 . S
C315 C316 1.376 . S
C316 H303 0.930 . S
C316 C315 1.376 . S
C316 C317 1.388 . S
C317 H304 0.930 . S
C317 C316 1.388 . S
C317 C318 1.390 . S
C318 C317 1.390 . S
C318 C319 1.394 . S
C318 C324 1.465 . S
C319 C314 1.399 . S
C319 C318 1.394 . S
C319 C320 1.516 . S
C320 C319 1.516 . S
C320 C321 1.502 . S
C320 C322 1.561 . S
C320 C323 1.526 . S
C321 H305 0.959 . S
C321 H306 0.959 . S
C321 H307 0.961 . S
C321 C320 1.502 . S
C322 H308 0.960 . S
C322 H309 0.961 . S
C322 H310 0.959 . S
C322 C320 1.561 . S
C323 C320 1.526 . S
C323 C324 1.396 . S
C323 C328 1.390 . S
C324 C318 1.465 . S
C324 C323 1.396 . S
C324 C325 1.399 . S
C325 H311 0.929 . S
C325 C324 1.399 . S
C325 C326 1.385 . S
C326 H312 0.931 . S
C326 C325 1.385 . S
C326 C327 1.389 . S
C327 C326 1.389 . S
C327 C328 1.387 . S
C328 H313 0.930 . S
C328 C323 1.390 . S
C328 C327 1.387 . S
H329 C341 0.930 . S
H330 C343 0.930 . S
H331 C344 0.930 . S
H332 C348 0.959 . S
H333 C348 0.959 . S
H334 C348 0.961 . S
H335 C349 0.960 . S
H336 C349 0.961 . S
H337 C349 0.959 . S
H338 C352 0.929 . S
H339 C353 0.931 . S
H340 C355 0.930 . S
C341 H329 0.930 . S
C341 C342 1.399 . S
C341 C346 1.399 . S
C342 C341 1.399 . S
C342 C343 1.376 . S
C343 H330 0.930 . S
C343 C342 1.376 . S
C343 C344 1.388 . S
C344 H331 0.930 . S
C344 C343 1.388 . S
C344 C345 1.390 . S
C345 C344 1.390 . S
C345 C346 1.394 . S
C345 C351 1.465 . S
C346 C341 1.399 . S
C346 C345 1.394 . S
C346 C347 1.516 . S
C347 C346 1.516 . S
C347 C348 1.502 . S
C347 C349 1.561 . S
C347 C350 1.526 . S
C348 H332 0.959 . S
C348 H333 0.959 . S
C348 H334 0.961 . S
C348 C347 1.502 . S
C349 H335 0.960 . S
C349 H336 0.961 . S
C349 H337 0.959 . S
C349 C347 1.561 . S
C350 C347 1.526 . S
C350 C351 1.396 . S
C350 C355 1.390 . S
C351 C345 1.465 . S
C351 C350 1.396 . S
C351 C352 1.399 . S
C352 H338 0.929 . S
C352 C351 1.399 . S
C352 C353 1.385 . S
C353 H339 0.931 . S
C353 C352 1.385 . S
C353 C354 1.389 . S
C354 C353 1.389 . S
C354 C355 1.387 . S
C355 H340 0.930 . S
C355 C350 1.390 . S
C355 C354 1.387 . S
H356 C368 0.930 . S
H357 C370 0.930 . S
H358 C371 0.930 . S
H359 C375 0.959 . S
H360 C375 0.959 . S
H361 C375 0.961 . S
H362 C376 0.960 . S
H363 C376 0.961 . S
H364 C376 0.959 . S
H365 C379 0.929 . S
H366 C380 0.931 . S
H367 C382 0.930 . S
C368 H356 0.930 . S
C368 C369 1.399 . S
C368 C373 1.399 . S
C369 C368 1.399 . S
C369 C370 1.376 . S
C370 H357 0.930 . S
C370 C369 1.376 . S
C370 C371 1.388 . S
C371 H358 0.930 . S
C371 C370 1.388 . S
C371 C372 1.390 . S
C372 C371 1.390 . S
C372 C373 1.394 . S
C372 C378 1.465 . S
C373 C368 1.399 . S
C373 C372 1.394 . S
C373 C374 1.516 . S
C374 C373 1.516 . S
C374 C375 1.502 . S
C374 C376 1.561 . S
C374 C377 1.526 . S
C375 H359 0.959 . S
C375 H360 0.959 . S
C375 H361 0.961 . S
C375 C374 1.502 . S
C376 H362 0.960 . S
C376 H363 0.961 . S
C376 H364 0.959 . S
C376 C374 1.561 . S
C377 C374 1.526 . S
C377 C378 1.396 . S
C377 C382 1.390 . S
C378 C372 1.465 . S
C378 C377 1.396 . S
C378 C379 1.399 . S
C379 H365 0.929 . S
C379 C378 1.399 . S
C379 C380 1.385 . S
C380 H366 0.931 . S
C380 C379 1.385 . S
C380 C381 1.389 . S
C381 C380 1.389 . S
C381 C382 1.387 . S
C382 H367 0.930 . S
C382 C377 1.390 . S
C382 C381 1.387 . S
H383 C395 0.930 . S
H384 C397 0.930 . S
H385 C398 0.930 . S
H386 C402 0.959 . S
H387 C402 0.959 . S
H388 C402 0.961 . S
H389 C403 0.960 . S
H390 C403 0.961 . S
H391 C403 0.959 . S
H392 C406 0.929 . S
H393 C407 0.931 . S
H394 C409 0.930 . S
C395 H383 0.930 . S
C395 C396 1.399 . S
C395 C400 1.399 . S
C396 C395 1.399 . S
C396 C397 1.376 . S
C397 H384 0.930 . S
C397 C396 1.376 . S
C397 C398 1.388 . S
C398 H385 0.930 . S
C398 C397 1.388 . S
C398 C399 1.390 . S
C399 C398 1.390 . S
C399 C400 1.394 . S
C399 C405 1.465 . S
C400 C395 1.399 . S
C400 C399 1.394 . S
C400 C401 1.516 . S
C401 C400 1.516 . S
C401 C402 1.502 . S
C401 C403 1.561 . S
C401 C404 1.526 . S
C402 H386 0.959 . S
C402 H387 0.959 . S
C402 H388 0.961 . S
C402 C401 1.502 . S
C403 H389 0.960 . S
C403 H390 0.961 . S
C403 H391 0.959 . S
C403 C401 1.561 . S
C404 C401 1.526 . S
C404 C405 1.396 . S
C404 C409 1.390 . S
C405 C399 1.465 . S
C405 C404 1.396 . S
C405 C406 1.399 . S
C406 H392 0.929 . S
C406 C405 1.399 . S
C406 C407 1.385 . S
C407 H393 0.931 . S
C407 C406 1.385 . S
C407 C408 1.389 . S
C408 C407 1.389 . S
C408 C409 1.387 . S
C409 H394 0.930 . S
C409 C404 1.390 . S
C409 C408 1.387 . S
H410 C422 0.930 . S
H411 C424 0.930 . S
H412 C425 0.930 . S
H413 C429 0.959 . S
H414 C429 0.959 . S
H415 C429 0.961 . S
H416 C430 0.960 . S
H417 C430 0.961 . S
H418 C430 0.959 . S
H419 C433 0.929 . S
H420 C434 0.939 . S
H421 C436 0.930 . S
C422 H410 0.930 . S
C422 C423 1.399 . S
C422 C427 1.399 . S
C423 C422 1.399 . S
C423 C424 1.376 . S
C424 H411 0.930 . S
C424 C423 1.376 . S
C424 C425 1.388 . S
C425 H412 0.930 . S
C425 C424 1.388 . S
C425 C426 1.390 . S
C426 C425 1.390 . S
C426 C427 1.394 . S
C426 C432 1.465 . S
C427 C422 1.399 . S
C427 C426 1.394 . S
C427 C428 1.516 . S
C428 C427 1.516 . S
C428 C429 1.502 . S
C428 C430 1.561 . S
C428 C431 1.526 . S
C429 H413 0.959 . S
C429 H414 0.959 . S
C429 H415 0.961 . S
C429 C428 1.502 . S
C430 H416 0.960 . S
C430 H417 0.961 . S
C430 H418 0.959 . S
C430 C428 1.561 . S
C431 C428 1.526 . S
C431 C432 1.396 . S
C431 C436 1.390 . S
C432 C426 1.465 . S
C432 C431 1.396 . S
C432 C433 1.399 . S
C433 H419 0.929 . S
C433 C432 1.399 . S
C433 C434 1.385 . S
C434 H420 0.939 . S
C434 C433 1.385 . S
C434 C435 1.389 . S
C435 C434 1.389 . S
C435 C436 1.387 . S
C436 H421 0.930 . S
C436 C431 1.390 . S
C436 C435 1.387 . S
H437 C449 0.930 . S
H438 C451 0.930 . S
H439 C452 0.930 . S
H440 C456 0.959 . S
H441 C456 0.959 . S
H442 C456 0.961 . S
H443 C457 0.960 . S
H444 C457 0.961 . S
H445 C457 0.959 . S
H446 C460 0.929 . S
H447 C461 0.931 . S
H448 C463 0.930 . S
C449 H437 0.930 . S
C449 C450 1.399 . S
C449 C454 1.399 . S
C450 C449 1.399 . S
C450 C451 1.376 . S
C451 H438 0.930 . S
C451 C450 1.376 . S
C451 C452 1.388 . S
C452 H439 0.930 . S
C452 C451 1.388 . S
C452 C453 1.390 . S
C453 C452 1.390 . S
C453 C454 1.394 . S
C453 C459 1.465 . S
C454 C449 1.399 . S
C454 C453 1.394 . S
C454 C455 1.516 . S
C455 C454 1.516 . S
C455 C456 1.502 . S
C455 C457 1.561 . S
C455 C458 1.526 . S
C456 H440 0.959 . S
C456 H441 0.959 . S
C456 H442 0.961 . S
C456 C455 1.502 . S
C457 H443 0.960 . S
C457 H444 0.961 . S
C457 H445 0.959 . S
C457 C455 1.561 . S
C458 C455 1.526 . S
C458 C459 1.396 . S
C458 C463 1.390 . S
C459 C453 1.465 . S
C459 C458 1.396 . S
C459 C460 1.399 . S
C460 H446 0.929 . S
C460 C459 1.399 . S
C460 C461 1.385 . S
C461 H447 0.931 . S
C461 C460 1.385 . S
C461 C462 1.389 . S
C462 C461 1.389 . S
C462 C463 1.387 . S
C463 H448 0.930 . S
C463 C458 1.390 . S
C463 C462 1.387 . S
H464 C476 0.930 . S
H465 C478 0.930 . S
H466 C479 0.930 . S
H467 C483 0.959 . S
H468 C483 0.959 . S
H469 C483 0.961 . S
H470 C484 0.960 . S
H471 C484 0.961 . S
H472 C484 0.959 . S
H473 C487 0.929 . S
H474 C488 0.931 . S
H475 C490 0.930 . S
C476 H464 0.930 . S
C476 C477 1.399 . S
C476 C481 1.399 . S
C477 C476 1.399 . S
C477 C478 1.376 . S
C478 H465 0.930 . S
C478 C477 1.376 . S
C478 C479 1.388 . S
C479 H466 0.930 . S
C479 C478 1.388 . S
C479 C480 1.390 . S
C480 C479 1.390 . S
C480 C481 1.394 . S
C480 C486 1.465 . S
C481 C476 1.399 . S
C481 C480 1.394 . S
C481 C482 1.516 . S
C482 C481 1.516 . S
C482 C483 1.502 . S
C482 C484 1.561 . S
C482 C485 1.526 . S
C483 H467 0.959 . S
C483 H468 0.959 . S
C483 H469 0.961 . S
C483 C482 1.502 . S
C484 H470 0.960 . S
C484 H471 0.961 . S
C484 H472 0.959 . S
C484 C482 1.561 . S
C485 C482 1.526 . S
C485 C486 1.396 . S
C485 C490 1.390 . S
C486 C480 1.465 . S
C486 C485 1.396 . S
C486 C487 1.399 . S
C487 H473 0.929 . S
C487 C486 1.399 . S
C487 C488 1.385 . S
C488 H474 0.931 . S
C488 C487 1.385 . S
C488 C489 1.389 . S
C489 C488 1.389 . S
C489 C490 1.387 . S
C490 H475 0.930 . S
C490 C485 1.390 . S
C490 C489 1.387 . S
H491 C503 0.930 . S
H492 C505 0.930 . S
H493 C506 0.930 . S
H494 C510 0.959 . S
H495 C510 0.959 . S
H496 C510 0.961 . S
H497 C511 0.960 . S
H498 C511 0.961 . S
H499 C511 0.959 . S
H500 C514 0.929 . S
H501 C515 0.931 . S
H502 C517 0.930 . S
C503 H491 0.930 . S
C503 C504 1.399 . S
C503 C508 1.399 . S
C504 C503 1.399 . S
C504 C505 1.376 . S
C505 H492 0.930 . S
C505 C504 1.376 . S
C505 C506 1.388 . S
C506 H493 0.930 . S
C506 C505 1.388 . S
C506 C507 1.390 . S
C507 C506 1.390 . S
C507 C508 1.394 . S
C507 C513 1.465 . S
C508 C503 1.399 . S
C508 C507 1.394 . S
C508 C509 1.516 . S
C509 C508 1.516 . S
C509 C510 1.502 . S
C509 C511 1.561 . S
C509 C512 1.526 . S
C510 H494 0.959 . S
C510 H495 0.959 . S
C510 H496 0.961 . S
C510 C509 1.502 . S
C511 H497 0.960 . S
C511 H498 0.961 . S
C511 H499 0.959 . S
C511 C509 1.561 . S
C512 C509 1.526 . S
C512 C513 1.396 . S
C512 C517 1.390 . S
C513 C507 1.465 . S
C513 C512 1.396 . S
C513 C514 1.399 . S
C514 H500 0.929 . S
C514 C513 1.399 . S
C514 C515 1.385 . S
C515 H501 0.931 . S
C515 C514 1.385 . S
C515 C516 1.389 . S
C516 C515 1.389 . S
C516 C517 1.387 . S
C517 H502 0.930 . S
C517 C512 1.390 . S
C517 C516 1.387 . S
H518 C530 0.930 . S
H519 C532 0.930 . S
H520 C533 0.930 . S
H521 C537 0.959 . S
H522 C537 0.959 . S
H523 C537 0.961 . S
H524 C538 0.960 . S
H525 C538 0.961 . S
H526 C538 0.959 . S
H527 C541 0.929 . S
H528 C542 0.931 . S
H529 C544 0.930 . S
C530 H518 0.930 . S
C530 C531 1.399 . S
C530 C535 1.399 . S
C531 C530 1.399 . S
C531 C532 1.376 . S
C532 H519 0.930 . S
C532 C531 1.376 . S
C532 C533 1.388 . S
C533 H520 0.930 . S
C533 C532 1.388 . S
C533 C534 1.390 . S
C534 C533 1.390 . S
C534 C535 1.394 . S
C534 C540 1.465 . S
C535 C530 1.399 . S
C535 C534 1.394 . S
C535 C536 1.516 . S
C536 C535 1.516 . S
C536 C537 1.502 . S
C536 C538 1.561 . S
C536 C539 1.526 . S
C537 H521 0.959 . S
C537 H522 0.959 . S
C537 H523 0.961 . S
C537 C536 1.502 . S
C538 H524 0.960 . S
C538 H525 0.961 . S
C538 H526 0.959 . S
C538 C536 1.561 . S
C539 C536 1.526 . S
C539 C540 1.396 . S
C539 C544 1.390 . S
C540 C534 1.465 . S
C540 C539 1.396 . S
C540 C541 1.399 . S
C541 H527 0.929 . S
C541 C540 1.399 . S
C541 C542 1.385 . S
C542 H528 0.931 . S
C542 C541 1.385 . S
C542 C543 1.389 . S
C543 C542 1.389 . S
C543 C544 1.387 . S
C544 H529 0.930 . S
C544 C539 1.390 . S
C544 C543 1.387 . S
H545 C557 0.930 . S
H546 C559 0.930 . S
H547 C560 0.930 . S
H548 C564 0.959 . S
H549 C564 0.959 . S
H550 C564 0.961 . S
H551 C565 0.960 . S
H552 C565 0.961 . S
H553 C565 0.959 . S
H554 C568 0.929 . S
H555 C569 0.931 . S
H556 C571 0.930 . S
C557 H545 0.930 . S
C557 C558 1.399 . S
C557 C562 1.399 . S
C558 C557 1.399 . S
C558 C559 1.376 . S
C559 H546 0.930 . S
C559 C558 1.376 . S
C559 C560 1.388 . S
C560 H547 0.930 . S
C560 C559 1.388 . S
C560 C561 1.390 . S
C561 C560 1.390 . S
C561 C562 1.394 . S
C561 C567 1.465 . S
C562 C557 1.399 . S
C562 C561 1.394 . S
C562 C563 1.516 . S
C563 C562 1.516 . S
C563 C564 1.502 . S
C563 C565 1.561 . S
C563 C566 1.526 . S
C564 H548 0.959 . S
C564 H549 0.959 . S
C564 H550 0.961 . S
C564 C563 1.502 . S
C565 H551 0.960 . S
C565 H552 0.961 . S
C565 H553 0.959 . S
C565 C563 1.561 . S
C566 C563 1.526 . S
C566 C567 1.396 . S
C566 C571 1.390 . S
C567 C561 1.465 . S
C567 C566 1.396 . S
C567 C568 1.399 . S
C568 H554 0.929 . S
C568 C567 1.399 . S
C568 C569 1.385 . S
C569 H555 0.931 . S
C569 C568 1.385 . S
C569 C570 1.389 . S
C570 C569 1.389 . S
C570 C571 1.387 . S
C571 H556 0.930 . S
C571 C566 1.390 . S
C571 C570 1.387 . S
H572 C584 0.930 . S
H573 C586 0.930 . S
H574 C587 0.930 . S
H575 C591 0.959 . S
H576 C591 0.959 . S
H577 C591 0.961 . S
H578 C592 0.960 . S
H579 C592 0.961 . S
H580 C592 0.959 . S
H581 C595 0.929 . S
H582 C596 0.931 . S
H583 C598 0.930 . S
C584 H572 0.930 . S
C584 C585 1.399 . S
C584 C589 1.399 . S
C585 C584 1.399 . S
C585 C586 1.376 . S
C586 H573 0.930 . S
C586 C585 1.376 . S
C586 C587 1.388 . S
C587 H574 0.930 . S
C587 C586 1.388 . S
C587 C588 1.390 . S
C588 C587 1.390 . S
C588 C589 1.394 . S
C588 C594 1.465 . S
C589 C584 1.399 . S
C589 C588 1.394 . S
C589 C590 1.516 . S
C590 C589 1.516 . S
C590 C591 1.502 . S
C590 C592 1.561 . S
C590 C593 1.526 . S
C591 H575 0.959 . S
C591 H576 0.959 . S
C591 H577 0.961 . S
C591 C590 1.502 . S
C592 H578 0.960 . S
C592 H579 0.961 . S
C592 H580 0.959 . S
C592 C590 1.561 . S
C593 C590 1.526 . S
C593 C594 1.396 . S
C593 C598 1.390 . S
C594 C588 1.465 . S
C594 C593 1.396 . S
C594 C595 1.399 . S
C595 H581 0.929 . S
C595 C594 1.399 . S
C595 C596 1.385 . S
C596 H582 0.931 . S
C596 C595 1.385 . S
C596 C597 1.389 . S
C597 C596 1.389 . S
C597 C598 1.387 . S
C598 H583 0.930 . S
C598 C593 1.390 . S
C598 C597 1.387 . S
H599 C611 0.930 . S
H600 C613 0.930 . S
H601 C614 0.930 . S
H602 C618 0.959 . S
H603 C618 0.959 . S
H604 C618 0.961 . S
H605 C619 0.960 . S
H606 C619 0.961 . S
H607 C619 0.959 . S
H608 C622 0.929 . S
H609 C623 0.931 . S
H610 C625 0.930 . S
C611 H599 0.930 . S
C611 C612 1.399 . S
C611 C616 1.399 . S
C612 C611 1.399 . S
C612 C613 1.376 . S
C613 H600 0.930 . S
C613 C612 1.376 . S
C613 C614 1.388 . S
C614 H601 0.930 . S
C614 C613 1.388 . S
C614 C615 1.390 . S
C615 C614 1.390 . S
C615 C616 1.394 . S
C615 C621 1.465 . S
C616 C611 1.399 . S
C616 C615 1.394 . S
C616 C617 1.516 . S
C617 C616 1.516 . S
C617 C618 1.502 . S
C617 C619 1.561 . S
C617 C620 1.526 . S
C618 H602 0.959 . S
C618 H603 0.959 . S
C618 H604 0.961 . S
C618 C617 1.502 . S
C619 H605 0.960 . S
C619 H606 0.961 . S
C619 H607 0.959 . S
C619 C617 1.561 . S
C620 C617 1.526 . S
C620 C621 1.396 . S
C620 C625 1.390 . S
C621 C615 1.465 . S
C621 C620 1.396 . S
C621 C622 1.399 . S
C622 H608 0.929 . S
C622 C621 1.399 . S
C622 C623 1.385 . S
C623 H609 0.931 . S
C623 C622 1.385 . S
C623 C624 1.389 . S
C624 C623 1.389 . S
C624 C625 1.387 . S
C625 H610 0.930 . S
C625 C620 1.390 . S
C625 C624 1.387 . S
H626 C638 0.930 . S
H627 C640 0.930 . S
H628 C641 0.930 . S
H629 C645 0.959 . S
H630 C645 0.959 . S
H631 C645 0.961 . S
H632 C646 0.960 . S
H633 C646 0.961 . S
H634 C646 0.959 . S
H635 C649 0.929 . S
H636 C650 0.931 . S
H637 C652 0.930 . S
C638 H626 0.930 . S
C638 C639 1.399 . S
C638 C643 1.399 . S
C639 C638 1.399 . S
C639 C640 1.376 . S
C640 H627 0.930 . S
C640 C639 1.376 . S
C640 C641 1.388 . S
C641 H628 0.930 . S
C641 C640 1.388 . S
C641 C642 1.390 . S
C642 C641 1.390 . S
C642 C643 1.394 . S
C642 C648 1.465 . S
C643 C638 1.399 . S
C643 C642 1.394 . S
C643 C644 1.516 . S
C644 C643 1.516 . S
C644 C645 1.502 . S
C644 C646 1.561 . S
C644 C647 1.526 . S
C645 H629 0.959 . S
C645 H630 0.959 . S
C645 H631 0.961 . S
C645 C644 1.502 . S
C646 H632 0.960 . S
C646 H633 0.961 . S
C646 H634 0.959 . S
C646 C644 1.561 . S
C647 C644 1.526 . S
C647 C648 1.396 . S
C647 C652 1.390 . S
C648 C642 1.465 . S
C648 C647 1.396 . S
C648 C649 1.399 . S
C649 H635 0.929 . S
C649 C648 1.399 . S
C649 C650 1.385 . S
C650 H636 0.931 . S
C650 C649 1.385 . S
C650 C651 1.389 . S
C651 C650 1.389 . S
C651 C652 1.387 . S
C652 H637 0.930 . S
C652 C647 1.390 . S
C652 C651 1.387 . S
H653 C665 0.930 . S
H654 C667 0.930 . S
H655 C668 0.930 . S
H656 C672 0.959 . S
H657 C672 0.959 . S
H658 C672 0.961 . S
H659 C673 0.960 . S
H660 C673 0.961 . S
H661 C673 0.959 . S
H662 C676 0.929 . S
H663 C677 0.931 . S
H664 C679 0.930 . S
C665 H653 0.930 . S
C665 C666 1.399 . S
C665 C670 1.399 . S
C666 C665 1.399 . S
C666 C667 1.376 . S
C667 H654 0.930 . S
C667 C666 1.376 . S
C667 C668 1.388 . S
C668 H655 0.930 . S
C668 C667 1.388 . S
C668 C669 1.390 . S
C669 C668 1.390 . S
C669 C670 1.394 . S
C669 C675 1.465 . S
C670 C665 1.399 . S
C670 C669 1.394 . S
C670 C671 1.516 . S
C671 C670 1.516 . S
C671 C672 1.502 . S
C671 C673 1.561 . S
C671 C674 1.526 . S
C672 H656 0.959 . S
C672 H657 0.959 . S
C672 H658 0.961 . S
C672 C671 1.502 . S
C673 H659 0.960 . S
C673 H660 0.961 . S
C673 H661 0.959 . S
C673 C671 1.561 . S
C674 C671 1.526 . S
C674 C675 1.396 . S
C674 C679 1.390 . S
C675 C669 1.465 . S
C675 C674 1.396 . S
C675 C676 1.399 . S
C676 H662 0.929 . S
C676 C675 1.399 . S
C676 C677 1.385 . S
C677 H663 0.931 . S
C677 C676 1.385 . S
C677 C678 1.389 . S
C678 C677 1.389 . S
C678 C679 1.387 . S
C679 H664 0.930 . S
C679 C674 1.390 . S
C679 C678 1.387 . S
H680 C692 0.930 . S
H681 C694 0.930 . S
H682 C695 0.930 . S
H683 C699 0.959 . S
H684 C699 0.959 . S
H685 C699 0.961 . S
H686 C700 0.960 . S
H687 C700 0.961 . S
H688 C700 0.959 . S
H689 C703 0.929 . S
H690 C704 0.931 . S
H691 C706 0.930 . S
C692 H680 0.930 . S
C692 C693 1.399 . S
C692 C697 1.399 . S
C693 C692 1.399 . S
C693 C694 1.376 . S
C694 H681 0.930 . S
C694 C693 1.376 . S
C694 C695 1.388 . S
C695 H682 0.930 . S
C695 C694 1.388 . S
C695 C696 1.390 . S
C696 C695 1.390 . S
C696 C697 1.394 . S
C696 C702 1.465 . S
C697 C692 1.399 . S
C697 C696 1.394 . S
C697 C698 1.516 . S
C698 C697 1.516 . S
C698 C699 1.502 . S
C698 C700 1.561 . S
C698 C701 1.526 . S
C699 H683 0.959 . S
C699 H684 0.959 . S
C699 H685 0.961 . S
C699 C698 1.502 . S
C700 H686 0.960 . S
C700 H687 0.961 . S
C700 H688 0.959 . S
C700 C698 1.561 . S
C701 C698 1.526 . S
C701 C702 1.396 . S
C701 C706 1.390 . S
C702 C696 1.465 . S
C702 C701 1.396 . S
C702 C703 1.399 . S
C703 H689 0.929 . S
C703 C702 1.399 . S
C703 C704 1.385 . S
C704 H690 0.931 . S
C704 C703 1.385 . S
C704 C705 1.389 . S
C705 C704 1.389 . S
C705 C706 1.387 . S
C706 H691 0.930 . S
C706 C701 1.390 . S
C706 C705 1.387 . S
H707 C719 0.930 . S
H708 C721 0.930 . S
H709 C722 0.930 . S
H710 C726 0.959 . S
H711 C726 0.959 . S
H712 C726 0.961 . S
H713 C727 0.960 . S
H714 C727 0.961 . S
H715 C727 0.959 . S
H716 C730 0.929 . S
H717 C731 0.931 . S
H718 C733 0.930 . S
C719 H707 0.930 . S
C719 C720 1.399 . S
C719 C724 1.399 . S
C720 C719 1.399 . S
C720 C721 1.376 . S
C721 H708 0.930 . S
C721 C720 1.376 . S
C721 C722 1.388 . S
C722 H709 0.930 . S
C722 C721 1.388 . S
C722 C723 1.390 . S
C723 C722 1.390 . S
C723 C724 1.394 . S
C723 C729 1.465 . S
C724 C719 1.399 . S
C724 C723 1.394 . S
C724 C725 1.516 . S
C725 C724 1.516 . S
C725 C726 1.502 . S
C725 C727 1.561 . S
C725 C728 1.526 . S
C726 H710 0.959 . S
C726 H711 0.959 . S
C726 H712 0.961 . S
C726 C725 1.502 . S
C727 H713 0.960 . S
C727 H714 0.961 . S
C727 H715 0.959 . S
C727 C725 1.561 . S
C728 C725 1.526 . S
C728 C729 1.396 . S
C728 C733 1.390 . S
C729 C723 1.465 . S
C729 C728 1.396 . S
C729 C730 1.399 . S
C730 H716 0.929 . S
C730 C729 1.399 . S
C730 C731 1.385 . S
C731 H717 0.931 . S
C731 C730 1.385 . S
C731 C732 1.389 . S
C732 C731 1.389 . S
C732 C733 1.387 . S
C733 H718 0.930 . S
C733 C728 1.390 . S
C733 C732 1.387 . S
H734 C746 0.930 . S
H735 C748 0.930 . S
H736 C749 0.930 . S
H737 C753 0.959 . S
H738 C753 0.959 . S
H739 C753 0.961 . S
H740 C754 0.960 . S
H741 C754 0.961 . S
H742 C754 0.959 . S
H743 C757 0.929 . S
H744 C758 0.931 . S
H745 C760 0.930 . S
C746 H734 0.930 . S
C746 C747 1.399 . S
C746 C751 1.399 . S
C747 C746 1.399 . S
C747 C748 1.376 . S
C748 H735 0.930 . S
C748 C747 1.376 . S
C748 C749 1.388 . S
C749 H736 0.930 . S
C749 C748 1.388 . S
C749 C750 1.390 . S
C750 C749 1.390 . S
C750 C751 1.394 . S
C750 C756 1.465 . S
C751 C746 1.399 . S
C751 C750 1.394 . S
C751 C752 1.516 . S
C752 C751 1.516 . S
C752 C753 1.502 . S
C752 C754 1.561 . S
C752 C755 1.526 . S
C753 H737 0.959 . S
C753 H738 0.959 . S
C753 H739 0.961 . S
C753 C752 1.502 . S
C754 H740 0.960 . S
C754 H741 0.961 . S
C754 H742 0.959 . S
C754 C752 1.561 . S
C755 C752 1.526 . S
C755 C756 1.396 . S
C755 C760 1.390 . S
C756 C750 1.465 . S
C756 C755 1.396 . S
C756 C757 1.399 . S
C757 H743 0.929 . S
C757 C756 1.399 . S
C757 C758 1.385 . S
C758 H744 0.931 . S
C758 C757 1.385 . S
C758 C759 1.389 . S
C759 C758 1.389 . S
C759 C760 1.387 . S
C760 H745 0.930 . S
C760 C755 1.390 . S
C760 C759 1.387 . S
H761 C773 0.930 . S
H762 C775 0.930 . S
H763 C776 0.930 . S
H764 C780 0.959 . S
H765 C780 0.959 . S
H766 C780 0.961 . S
H767 C781 0.960 . S
H768 C781 0.961 . S
H769 C781 0.959 . S
H770 C784 0.929 . S
H771 C785 0.931 . S
H772 C787 0.930 . S
C773 H761 0.930 . S
C773 C774 1.399 . S
C773 C778 1.399 . S
C774 C773 1.399 . S
C774 C775 1.376 . S
C775 H762 0.930 . S
C775 C774 1.376 . S
C775 C776 1.388 . S
C776 H763 0.930 . S
C776 C775 1.388 . S
C776 C777 1.390 . S
C777 C776 1.390 . S
C777 C778 1.394 . S
C777 C783 1.465 . S
C778 C773 1.399 . S
C778 C777 1.394 . S
C778 C779 1.516 . S
C779 C778 1.516 . S
C779 C780 1.502 . S
C779 C781 1.561 . S
C779 C782 1.526 . S
C780 H764 0.959 . S
C780 H765 0.959 . S
C780 H766 0.961 . S
C780 C779 1.502 . S
C781 H767 0.960 . S
C781 H768 0.961 . S
C781 H769 0.959 . S
C781 C779 1.561 . S
C782 C779 1.526 . S
C782 C783 1.396 . S
C782 C787 1.390 . S
C783 C777 1.465 . S
C783 C782 1.396 . S
C783 C784 1.399 . S
C784 H770 0.929 . S
C784 C783 1.399 . S
C784 C785 1.385 . S
C785 H771 0.931 . S
C785 C784 1.385 . S
C785 C786 1.389 . S
C786 C785 1.389 . S
C786 C787 1.387 . S
C787 H772 0.930 . S
C787 C782 1.390 . S
C787 C786 1.387 . S
H788 C800 0.930 . S
H789 C802 0.930 . S
H790 C803 0.930 . S
H791 C807 0.959 . S
H792 C807 0.959 . S
H793 C807 0.961 . S
H794 C808 0.960 . S
H795 C808 0.961 . S
H796 C808 0.959 . S
H797 C811 0.929 . S
H798 C812 0.931 . S
H799 C814 0.930 . S
C800 H788 0.930 . S
C800 C801 1.399 . S
C800 C805 1.399 . S
C801 C800 1.399 . S
C801 C802 1.376 . S
C802 H789 0.930 . S
C802 C801 1.376 . S
C802 C803 1.388 . S
C803 H790 0.930 . S
C803 C802 1.388 . S
C803 C804 1.390 . S
C804 C803 1.390 . S
C804 C805 1.394 . S
C804 C810 1.465 . S
C805 C800 1.399 . S
C805 C804 1.394 . S
C805 C806 1.516 . S
C806 C805 1.516 . S
C806 C807 1.502 . S
C806 C808 1.561 . S
C806 C809 1.526 . S
C807 H791 0.959 . S
C807 H792 0.959 . S
C807 H793 0.961 . S
C807 C806 1.502 . S
C808 H794 0.960 . S
C808 H795 0.961 . S
C808 H796 0.959 . S
C808 C806 1.561 . S
C809 C806 1.526 . S
C809 C810 1.396 . S
C809 C814 1.390 . S
C810 C804 1.465 . S
C810 C809 1.396 . S
C810 C811 1.399 . S
C811 H797 0.929 . S
C811 C810 1.399 . S
C811 C812 1.385 . S
C812 H798 0.931 . S
C812 C811 1.385 . S
C812 C813 1.389 . S
C813 C812 1.389 . S
C813 C814 1.387 . S
C814 H799 0.930 . S
C814 C809 1.390 . S
C814 C813 1.387 . S
H815 C827 0.930 . S
H816 C829 0.930 . S
H817 C830 0.930 . S
H818 C834 0.959 . S
H819 C834 0.959 . S
H820 C834 0.961 . S
H821 C835 0.960 . S
H822 C835 0.961 . S
H823 C835 0.959 . S
H824 C838 0.929 . S
H825 C839 0.931 . S
H826 C841 0.930 . S
C827 H815 0.930 . S
C827 C828 1.399 . S
C827 C832 1.399 . S
C828 C827 1.399 . S
C828 C829 1.376 . S
C829 H816 0.930 . S
C829 C828 1.376 . S
C829 C830 1.388 . S
C830 H817 0.930 . S
C830 C829 1.388 . S
C830 C831 1.390 . S
C831 C830 1.390 . S
C831 C832 1.394 . S
C831 C837 1.465 . S
C832 C827 1.399 . S
C832 C831 1.394 . S
C832 C833 1.516 . S
C833 C832 1.516 . S
C833 C834 1.502 . S
C833 C835 1.561 . S
C833 C836 1.526 . S
C834 H818 0.959 . S
C834 H819 0.959 . S
C834 H820 0.961 . S
C834 C833 1.502 . S
C835 H821 0.960 . S
C835 H822 0.961 . S
C835 H823 0.959 . S
C835 C833 1.561 . S
C836 C833 1.526 . S
C836 C837 1.396 . S
C836 C841 1.390 . S
C837 C831 1.465 . S
C837 C836 1.396 . S
C837 C838 1.399 . S
C838 H824 0.929 . S
C838 C837 1.399 . S
C838 C839 1.385 . S
C839 H825 0.931 . S
C839 C838 1.385 . S
C839 C840 1.389 . S
C840 C839 1.389 . S
C840 C841 1.387 . S
C841 H826 0.930 . S
C841 C836 1.390 . S
C841 C840 1.387 . S
H842 C854 0.930 . S
H843 C856 0.930 . S
H844 C857 0.930 . S
H845 C861 0.959 . S
H846 C861 0.959 . S
H847 C861 0.961 . S
H848 C862 0.960 . S
H849 C862 0.961 . S
H850 C862 0.959 . S
H851 C865 0.929 . S
H852 C866 0.931 . S
H853 C868 0.930 . S
C854 H842 0.930 . S
C854 C855 1.399 . S
C854 C859 1.399 . S
C855 C854 1.399 . S
C855 C856 1.376 . S
C856 H843 0.930 . S
C856 C855 1.376 . S
C856 C857 1.388 . S
C857 H844 0.930 . S
C857 C856 1.388 . S
C857 C858 1.390 . S
C858 C857 1.390 . S
C858 C859 1.394 . S
C858 C864 1.465 . S
C859 C854 1.399 . S
C859 C858 1.394 . S
C859 C860 1.516 . S
C860 C859 1.516 . S
C860 C861 1.502 . S
C860 C862 1.561 . S
C860 C863 1.526 . S
C861 H845 0.959 . S
C861 H846 0.959 . S
C861 H847 0.961 . S
C861 C860 1.502 . S
C862 H848 0.960 . S
C862 H849 0.961 . S
C862 H850 0.959 . S
C862 C860 1.561 . S
C863 C860 1.526 . S
C863 C864 1.396 . S
C863 C868 1.390 . S
C864 C858 1.465 . S
C864 C863 1.396 . S
C864 C865 1.399 . S
C865 H851 0.929 . S
C865 C864 1.399 . S
C865 C866 1.385 . S
C866 H852 0.931 . S
C866 C865 1.385 . S
C866 C867 1.389 . S
C867 C866 1.389 . S
C867 C868 1.387 . S
C868 H853 0.930 . S
C868 C863 1.390 . S
C868 C867 1.387 . S
H869 C881 0.930 . S
H870 C883 0.930 . S
H871 C884 0.930 . S
H872 C888 0.959 . S
H873 C888 0.959 . S
H874 C888 0.961 . S
H875 C889 0.960 . S
H876 C889 0.961 . S
H877 C889 0.959 . S
H878 C892 0.929 . S
H879 C893 0.931 . S
H880 C895 0.930 . S
C881 H869 0.930 . S
C881 C882 1.399 . S
C881 C886 1.399 . S
C882 C881 1.399 . S
C882 C883 1.376 . S
C883 H870 0.930 . S
C883 C882 1.376 . S
C883 C884 1.388 . S
C884 H871 0.930 . S
C884 C883 1.388 . S
C884 C885 1.390 . S
C885 C884 1.390 . S
C885 C886 1.394 . S
C885 C891 1.465 . S
C886 C881 1.399 . S
C886 C885 1.394 . S
C886 C887 1.516 . S
C887 C886 1.516 . S
C887 C888 1.502 . S
C887 C889 1.561 . S
C887 C890 1.526 . S
C888 H872 0.959 . S
C888 H873 0.959 . S
C888 H874 0.961 . S
C888 C887 1.502 . S
C889 H875 0.960 . S
C889 H876 0.961 . S
C889 H877 0.959 . S
C889 C887 1.561 . S
C890 C887 1.526 . S
C890 C891 1.396 . S
C890 C895 1.390 . S
C891 C885 1.465 . S
C891 C890 1.396 . S
C891 C892 1.399 . S
C892 H878 0.929 . S
C892 C891 1.399 . S
C892 C893 1.385 . S
C893 H879 0.931 . S
C893 C892 1.385 . S
C893 C894 1.389 . S
C894 C893 1.389 . S
C894 C895 1.387 . S
C895 H880 0.930 . S
C895 C890 1.390 . S
C895 C894 1.387 . S
C261 C4 1.078 . S
C273 C103 1.013 . S
C288 C16 1.628 . S
C300 C147 1.705 . S
C327 C177 1.882 . S
C315 C32 1.800 . S
C342 C43 2.638 . S
C354 C218 2.614 . S
C381 C134 1.196 . S
C369 C5 1.159 . S
C408 C98 2.104 . S
C396 C21 2.055 . S
C435 C226 1.078 . S
C423 C27 1.128 . S
C462 C187 2.212 . S
C450 C37 2.219 . S
C477 C10 0.945 . S
C489 C223 1.063 . S
C516 C137 2.178 1_556 S
C504 C26 2.256 . S
C531 C38 1.739 . S
C543 C106 1.687 . S
C558 C15 2.221 . S
C570 C174 2.224 . S
C597 C94 1.190 . S
C585 C48 1.252 . S
C612 C59 1.373 . S
C624 C138 1.330 . S
C639 C76 1.943 . S
C651 C186 1.939 . S
C666 C87 2.436 . S
C678 C227 2.411 . S
C693 C54 0.700 . S
C705 C143 0.675 . S
C732 C107 2.831 . S
C720 C60 2.786 . S
C759 C217 1.062 . S
C747 C71 1.051 . S
C786 C178 1.940 . S
C774 C82 1.920 . S
C801 C49 1.352 . S
C813 C214 1.513 . S
C840 C146 1.473 . S
C828 C70 1.515 . S
C867 C97 2.095 . S
C855 C81 2.168 . S
C882 C65 1.916 . S
C894 C183 1.902 . S
