# Generated by pormake.
# Topology anh, (6,3)-cn, num edge types: 1
# Building blocks:
#     Node 0, Type 0, BuildingBlock: MIFKUJ_clean_sbu_0, # of connection points: 6
#     Node 1, Type 0, BuildingBlock: MIFKUJ_clean_sbu_0, # of connection points: 6
#     Node 2, Type 0, BuildingBlock: MIFKUJ_clean_sbu_0, # of connection points: 6
#     Node 3, Type 1, BuildingBlock: BETDAH_clean_linker_0, # of connection points: 3
#     Node 4, Type 1, BuildingBlock: BETDAH_clean_linker_0, # of connection points: 3
#     Node 5, Type 1, BuildingBlock: BETDAH_clean_linker_0, # of connection points: 3
#     Node 6, Type 1, BuildingBlock: BETDAH_clean_linker_0, # of connection points: 3
#     Node 7, Type 1, BuildingBlock: BETDAH_clean_linker_0, # of connection points: 3
#     Node 8, Type 1, BuildingBlock: BETDAH_clean_linker_0, # of connection points: 3
#     Edge 9, Type (0, 1), BuildingBlock: AJUNOK_clean_linker_0, # of connection points: 2
#     Edge 10, Type (0, 1), BuildingBlock: AJUNOK_clean_linker_0, # of connection points: 2
#     Edge 11, Type (0, 1), BuildingBlock: AJUNOK_clean_linker_0, # of connection points: 2
#     Edge 12, Type (0, 1), BuildingBlock: AJUNOK_clean_linker_0, # of connection points: 2
#     Edge 13, Type (0, 1), BuildingBlock: AJUNOK_clean_linker_0, # of connection points: 2
#     Edge 14, Type (0, 1), BuildingBlock: AJUNOK_clean_linker_0, # of connection points: 2
#     Edge 15, Type (0, 1), BuildingBlock: AJUNOK_clean_linker_0, # of connection points: 2
#     Edge 16, Type (0, 1), BuildingBlock: AJUNOK_clean_linker_0, # of connection points: 2
#     Edge 17, Type (0, 1), BuildingBlock: AJUNOK_clean_linker_0, # of connection points: 2
#     Edge 18, Type (0, 1), BuildingBlock: AJUNOK_clean_linker_0, # of connection points: 2
#     Edge 19, Type (0, 1), BuildingBlock: AJUNOK_clean_linker_0, # of connection points: 2
#     Edge 20, Type (0, 1), BuildingBlock: AJUNOK_clean_linker_0, # of connection points: 2
#     Edge 21, Type (0, 1), BuildingBlock: AJUNOK_clean_linker_0, # of connection points: 2
#     Edge 22, Type (0, 1), BuildingBlock: AJUNOK_clean_linker_0, # of connection points: 2
#     Edge 23, Type (0, 1), BuildingBlock: AJUNOK_clean_linker_0, # of connection points: 2
#     Edge 24, Type (0, 1), BuildingBlock: AJUNOK_clean_linker_0, # of connection points: 2
#     Edge 25, Type (0, 1), BuildingBlock: AJUNOK_clean_linker_0, # of connection points: 2
#     Edge 26, Type (0, 1), BuildingBlock: AJUNOK_clean_linker_0, # of connection points: 2
# Relax obj value: 0.068
# Max RMSD: 0.137
# Mean RMSD: 0.099
data_MOF--net-anh--node1-MIFKUJ_clean_sbu_0--node2-BETDAH_clean_linker_0--edge1-AJUNOK_clean_linker_0
_symmetry_space_group_name_H-M    P1
_symmetry_Int_Tables_number       1
_symmetry_cell_setting            triclinic
loop_
_symmetry_equiv_pos_as_xyz
'x, y, z'
_cell_length_a     24.190072
_cell_length_b     24.131569
_cell_length_c     33.35814
_cell_angle_alpha  96.650252
_cell_angle_beta   93.179074
_cell_angle_gamma 120.18517
loop_
_atom_site_label
_atom_site_type_symbol
_atom_site_fract_x
_atom_site_fract_y
_atom_site_fract_z
_atom_type_partial_charge
Zn0 Zn 0.09193 0.49473 0.15544 0.0
Zn1 Zn 0.90509 0.41523 0.15922 0.0
C2 C 0.21966 0.52428 0.17764 0.0
O3 O 0.2063 0.54197 0.21278 0.0
C4 C 0.86396 0.50598 0.14097 0.0
O5 O 0.90258 0.51873 0.1128 0.0
O6 O 0.12046 0.58834 0.17283 0.0
O7 O 0.03902 0.46099 0.10087 0.0
O8 O 0.93444 0.41848 0.10344 0.0
C9 C 0.1459 0.6298 0.1493 0.0
O10 O 0.14256 0.6094 0.11049 0.0
O11 O 0.17574 0.49862 0.14722 0.0
C12 C 0.7935 0.31555 0.18472 0.0
O13 O 0.80857 0.36466 0.21355 0.0
O14 O 0.83005 0.32436 0.15716 0.0
O15 O 0.96324 0.43219 0.21096 0.0
O16 O 0.06198 0.45139 0.20428 0.0
O17 O 0.86257 0.46871 0.16535 0.0
C18 C 0.98172 0.43434 0.08323 0.0
C19 C 0.01676 0.43996 0.22579 0.0
Zn20 Zn 0.59683 0.164 0.50971 0.0
Zn21 Zn 0.50697 0.97043 0.50752 0.0
C22 C 0.73036 0.25594 0.53107 0.0
O23 O 0.70589 0.27817 0.55822 0.0
C24 C 0.41748 0.83529 0.47808 0.0
O25 O 0.46515 0.84395 0.45747 0.0
O26 O 0.58661 0.24163 0.51669 0.0
O27 O 0.54864 0.11233 0.45473 0.0
O28 O 0.50344 0.00719 0.45703 0.0
C29 C 0.59251 0.27644 0.48962 0.0
O30 O 0.60291 0.26011 0.45313 0.0
O31 O 0.69271 0.20199 0.50788 0.0
C32 C 0.56939 0.91179 0.53606 0.0
O33 O 0.52879 0.90497 0.56233 0.0
O34 O 0.57514 0.94645 0.50889 0.0
O35 O 0.5153 0.02028 0.56217 0.0
O36 O 0.56691 0.12658 0.56098 0.0
O37 O 0.42267 0.88384 0.50133 0.0
C38 C 0.51567 0.05335 0.43743 0.0
C39 C 0.53907 0.07854 0.57969 0.0
Zn40 Zn 0.61754 0.58631 0.83952 0.0
Zn41 Zn 0.48449 0.62842 0.83038 0.0
C42 C 0.58166 0.4665 0.86562 0.0
O43 O 0.62719 0.50739 0.89528 0.0
C44 C 0.48591 0.74363 0.81392 0.0
O45 O 0.45401 0.70424 0.77953 0.0
O46 O 0.70585 0.59728 0.8461 0.0
O47 O 0.60474 0.60551 0.78496 0.0
O48 O 0.52071 0.61951 0.77739 0.0
C49 C 0.71361 0.5589 0.82078 0.0
O50 O 0.66813 0.52303 0.78995 0.0
O51 O 0.56074 0.48945 0.84019 0.0
C52 C 0.35691 0.57546 0.84964 0.0
O53 O 0.3904 0.60975 0.885 0.0
O54 O 0.38719 0.57468 0.81978 0.0
O55 O 0.50909 0.60578 0.88344 0.0
O56 O 0.61345 0.64433 0.88556 0.0
O57 O 0.50549 0.72243 0.84132 0.0
C58 C 0.56634 0.61479 0.76329 0.0
C59 C 0.56319 0.62244 0.90307 0.0
H60 H 0.3372 0.90394 0.27021 0.0
H61 H 0.52106 0.05225 0.24478 0.0
H62 H 0.38565 0.90234 0.14806 0.0
C63 C 0.37064 0.92524 0.24854 0.0
C64 C 0.3544 0.89481 0.20771 0.0
C65 C 0.43129 0.98078 0.26243 0.0
C66 C 0.47365 0.01023 0.23414 0.0
C67 C 0.45595 0.98303 0.19247 0.0
C68 C 0.39698 0.92502 0.17973 0.0
N69 N 0.49737 0.01043 0.16278 0.0
C70 C 0.55565 0.06921 0.17066 0.0
H71 H 0.57043 0.49688 0.59576 0.0
H72 H 0.64598 0.69688 0.5851 0.0
H73 H 0.65802 0.56911 0.48962 0.0
C74 C 0.59285 0.53591 0.57814 0.0
C75 C 0.61195 0.52478 0.54046 0.0
C76 C 0.60571 0.59794 0.59443 0.0
C77 C 0.63515 0.6487 0.57203 0.0
C78 C 0.65188 0.63763 0.5334 0.0
C79 C 0.64188 0.57626 0.51838 0.0
N80 N 0.67879 0.68747 0.50925 0.0
C81 C 0.66582 0.73754 0.51319 0.0
H82 H 0.87848 0.4769 0.92254 0.0
H83 H 0.01898 0.42548 0.89102 0.0
H84 H 0.93169 0.48273 0.80157 0.0
C85 C 0.90635 0.46979 0.90034 0.0
C86 C 0.90023 0.48269 0.86091 0.0
C87 C 0.94855 0.44847 0.91146 0.0
C88 C 0.98616 0.44171 0.88278 0.0
C89 C 0.98003 0.4541 0.84309 0.0
C90 C 0.93603 0.47302 0.83215 0.0
N91 N 0.01745 0.44801 0.81355 0.0
C92 C 0.08103 0.46433 0.82317 0.0
H93 H 0.17919 0.58344 0.38708 0.0
H94 H 0.01823 0.41832 0.42368 0.0
H95 H 0.17069 0.56836 0.51375 0.0
C96 C 0.15439 0.55688 0.41074 0.0
C97 C 0.18127 0.58284 0.45148 0.0
C98 C 0.09543 0.49772 0.4003 0.0
C99 C 0.06314 0.46452 0.43143 0.0
C100 C 0.09061 0.48986 0.4725 0.0
C101 C 0.14957 0.54888 0.48218 0.0
N102 N 0.06179 0.45642 0.50476 0.0
C103 C 0.99604 0.41359 0.50375 0.0
H104 H 0.54625 0.22788 0.75126 0.0
H105 H 0.51414 0.03928 0.76638 0.0
H106 H 0.5325 0.17398 0.87001 0.0
C107 C 0.53763 0.19157 0.77028 0.0
C108 C 0.53835 0.20728 0.81219 0.0
C109 C 0.52817 0.13081 0.7531 0.0
C110 C 0.5216 0.08626 0.77909 0.0
C111 C 0.52408 0.10211 0.82141 0.0
C112 C 0.53177 0.1623 0.83754 0.0
N113 N 0.51888 0.05905 0.84875 0.0
C114 C 0.51526 0.9996 0.8381 0.0
H115 H 0.67389 0.5714 0.05622 0.0
H116 H 0.52242 0.60085 0.09503 0.0
H117 H 0.63999 0.57175 0.18137 0.0
C118 C 0.64723 0.57615 0.08014 0.0
C119 C 0.66289 0.56955 0.11975 0.0
C120 C 0.59696 0.58785 0.07084 0.0
C121 C 0.56062 0.59093 0.10164 0.0
C122 C 0.57579 0.58411 0.14146 0.0
C123 C 0.62761 0.57501 0.15036 0.0
N124 N 0.54116 0.58748 0.17369 0.0
C125 C 0.47929 0.5776 0.16851 0.0
C126 C 0.33307 0.56661 0.20829 0.0
C127 C 0.28583 0.53718 0.17373 0.0
C128 C 0.39626 0.58042 0.20596 0.0
C129 C 0.41462 0.56553 0.16905 0.0
H130 H 0.32135 0.5791 0.23756 0.0
H131 H 0.43089 0.60251 0.23337 0.0
S132 S 0.31144 0.48962 0.0695 0.0
N133 N 0.26315 0.49451 0.10102 0.0
N134 N 0.38237 0.5206 0.09717 0.0
C135 C 0.36878 0.53665 0.13419 0.0
C136 C 0.3042 0.52245 0.1364 0.0
C137 C 0.82805 0.27005 0.49968 0.0
C138 C 0.79902 0.29653 0.52473 0.0
C139 C 0.89228 0.30844 0.49232 0.0
C140 C 0.92914 0.37454 0.50946 0.0
H141 H 0.80111 0.21927 0.48577 0.0
H142 H 0.91321 0.28626 0.47333 0.0
S143 S 0.87683 0.46865 0.57576 0.0
N144 N 0.81319 0.39433 0.56583 0.0
N145 N 0.93323 0.46553 0.55166 0.0
C146 C 0.90109 0.40185 0.53409 0.0
C147 C 0.83614 0.36306 0.54185 0.0
C148 C 0.47292 0.83178 0.7896 0.0
C149 C 0.49662 0.81078 0.82053 0.0
C150 C 0.48001 0.89378 0.79516 0.0
C151 C 0.51117 0.93712 0.83178 0.0
H152 H 0.448 0.79989 0.76087 0.0
H153 H 0.46035 0.90754 0.77081 0.0
S154 S 0.58333 0.90835 0.92204 0.0
N155 N 0.55385 0.84033 0.88911 0.0
N156 N 0.56683 0.9565 0.89918 0.0
C157 C 0.53585 0.91772 0.86272 0.0
C158 C 0.52871 0.85464 0.8572 0.0
C159 C 0.82331 0.57614 0.11875 0.0
C160 C 0.8151 0.52595 0.13997 0.0
C161 C 0.77466 0.5911 0.11337 0.0
C162 C 0.7156 0.55611 0.12868 0.0
H163 H 0.86732 0.60349 0.1056 0.0
H164 H 0.78308 0.62992 0.09661 0.0
S165 S 0.66905 0.41908 0.18579 0.0
N166 N 0.74314 0.44139 0.17668 0.0
N167 N 0.65135 0.46844 0.16556 0.0
C168 C 0.70709 0.50648 0.15053 0.0
C169 C 0.75687 0.49166 0.15641 0.0
C170 C 0.30011 0.76332 0.4842 0.0
C171 C 0.35859 0.76993 0.47385 0.0
C172 C 0.24306 0.7022 0.47807 0.0
C173 C 0.24269 0.64576 0.46151 0.0
H174 H 0.29795 0.8058 0.49612 0.0
H175 H 0.19862 0.69923 0.48528 0.0
S176 S 0.38348 0.63491 0.43397 0.0
N177 N 0.41308 0.71325 0.44958 0.0
N178 N 0.30557 0.59895 0.43774 0.0
C179 C 0.30089 0.65114 0.45246 0.0
C180 C 0.35896 0.71311 0.45874 0.0
C181 C 0.51594 0.35333 0.82567 0.0
C182 C 0.5668 0.39809 0.85614 0.0
C183 C 0.5062 0.29129 0.81238 0.0
C184 C 0.54673 0.2713 0.82909 0.0
H185 H 0.48423 0.36682 0.81121 0.0
H186 H 0.46711 0.25892 0.78837 0.0
S187 S 0.68815 0.36986 0.90856 0.0
N188 N 0.65889 0.41751 0.90228 0.0
N189 N 0.64011 0.30112 0.87712 0.0
C190 C 0.597 0.31483 0.86 0.0
C191 C 0.60712 0.37809 0.87356 0.0
C192 C 0.65505 0.88807 0.51728 0.0
C193 C 0.59581 0.86842 0.53232 0.0
C194 C 0.67855 0.84545 0.51138 0.0
C195 C 0.64273 0.78191 0.51966 0.0
H196 H 0.6833 0.93657 0.51008 0.0
H197 H 0.72446 0.86202 0.49997 0.0
S198 S 0.48294 0.70492 0.5562 0.0
N199 N 0.50097 0.78002 0.55371 0.0
N200 N 0.54461 0.7 0.54155 0.0
C201 C 0.58328 0.76134 0.53401 0.0
C202 C 0.55987 0.80469 0.54066 0.0
C203 C 0.76628 0.49394 0.80495 0.0
C204 C 0.76608 0.54535 0.82965 0.0
C205 C 0.81057 0.47485 0.81483 0.0
C206 C 0.85635 0.50628 0.84984 0.0
H207 H 0.73082 0.46683 0.77825 0.0
H208 H 0.80776 0.43395 0.79553 0.0
S209 S 0.88048 0.64719 0.92282 0.0
N210 N 0.81861 0.62983 0.88953 0.0
N211 N 0.90218 0.59411 0.90775 0.0
C212 C 0.85829 0.55907 0.8741 0.0
C213 C 0.81319 0.57863 0.86406 0.0
C214 C 0.20751 0.74781 0.14333 0.0
C215 C 0.19232 0.69859 0.16695 0.0
C216 C 0.2582 0.8118 0.15736 0.0
C217 C 0.29648 0.82857 0.19515 0.0
H218 H 0.18084 0.73653 0.11344 0.0
H219 H 0.26832 0.84806 0.13805 0.0
S220 S 0.27804 0.71629 0.26777 0.0
N221 N 0.21899 0.67103 0.23023 0.0
N222 N 0.3166 0.78941 0.25522 0.0
C223 C 0.28123 0.77964 0.21918 0.0
C224 C 0.22859 0.71516 0.20543 0.0
C225 C 0.61729 0.37081 0.54174 0.0
C226 C 0.59537 0.33878 0.50117 0.0
C227 C 0.6225 0.43076 0.55388 0.0
C228 C 0.60505 0.46076 0.52613 0.0
H229 H 0.63189 0.35009 0.56425 0.0
H230 H 0.64131 0.45423 0.58525 0.0
S231 S 0.54082 0.39474 0.41684 0.0
N232 N 0.55453 0.34023 0.43333 0.0
N233 N 0.56207 0.45237 0.45651 0.0
C234 C 0.58213 0.42882 0.48551 0.0
C235 C 0.57777 0.36795 0.47296 0.0
C236 C 0.25057 0.51611 0.80462 0.0
C237 C 0.28533 0.54229 0.84406 0.0
C238 C 0.18348 0.48902 0.79819 0.0
C239 C 0.14891 0.48684 0.83093 0.0
H240 H 0.27543 0.51797 0.77833 0.0
H241 H 0.15875 0.47096 0.76731 0.0
S242 S 0.21476 0.54426 0.94011 0.0
N243 N 0.27833 0.56081 0.9166 0.0
N244 N 0.15243 0.51018 0.90395 0.0
C245 C 0.18212 0.51084 0.87046 0.0
C246 C 0.25037 0.53847 0.87717 0.0
C247 C 0.7217 0.19748 0.1554 0.0
C248 C 0.73321 0.25202 0.18314 0.0
C249 C 0.66399 0.13757 0.15205 0.0
C250 C 0.61588 0.13029 0.17619 0.0
H251 H 0.7573 0.20106 0.13588 0.0
H252 H 0.65667 0.09694 0.13008 0.0
S253 S 0.62059 0.25646 0.25317 0.0
N254 N 0.69051 0.29373 0.23536 0.0
N255 N 0.58212 0.18097 0.22844 0.0
C256 C 0.62637 0.18359 0.20415 0.0
C257 C 0.68514 0.24458 0.20782 0.0
C258 C 0.02502 0.46166 0.01722 0.0
C259 C 0.97143 0.4294 0.03824 0.0
C260 C 0.01718 0.46542 0.97589 0.0
C261 C 0.95548 0.43687 0.95376 0.0
H262 H 0.0737 0.48662 0.03308 0.0
H263 H 0.05983 0.49332 0.96166 0.0
S264 S 0.7994 0.33904 0.99244 0.0
N265 N 0.8543 0.36316 0.0324 0.0
N266 N 0.83988 0.36935 0.95452 0.0
C267 C 0.9015 0.40137 0.97363 0.0
C268 C 0.90938 0.39778 0.01585 0.0
C269 C 0.46303 0.97218 0.37338 0.0
C270 C 0.49319 0.0373 0.3929 0.0
C271 C 0.4433 0.95496 0.33142 0.0
C272 C 0.45247 0.00188 0.30696 0.0
H273 H 0.45513 0.93384 0.39047 0.0
H274 H 0.42146 0.90428 0.31791 0.0
S275 S 0.5264 0.17871 0.34255 0.0
N276 N 0.52989 0.14902 0.38418 0.0
N277 N 0.49193 0.11592 0.3051 0.0
C278 C 0.48198 0.06708 0.3258 0.0
C279 C 0.50231 0.08486 0.36877 0.0
C280 C 0.52284 0.58471 0.68917 0.0
C281 C 0.57565 0.61913 0.72017 0.0
C282 C 0.53248 0.57981 0.64804 0.0
C283 C 0.59504 0.61065 0.63682 0.0
H284 H 0.47417 0.55858 0.69684 0.0
H285 H 0.49104 0.55034 0.62497 0.0
S286 S 0.74857 0.71106 0.70614 0.0
N287 N 0.6922 0.68742 0.73666 0.0
N288 N 0.70991 0.67943 0.65946 0.0
C289 C 0.64777 0.64795 0.66735 0.0
C290 C 0.63816 0.65191 0.70905 0.0
C291 C 0.56181 0.07011 0.65184 0.0
C292 C 0.53433 0.09078 0.62329 0.0
C293 C 0.55918 0.08276 0.69362 0.0
C294 C 0.52754 0.11514 0.7083 0.0
H295 H 0.58687 0.04539 0.64186 0.0
H296 H 0.58334 0.06816 0.71457 0.0
S297 S 0.44055 0.17119 0.64436 0.0
N298 N 0.47163 0.14154 0.61154 0.0
N299 N 0.46242 0.16155 0.68959 0.0
C300 C 0.49747 0.13349 0.67947 0.0
C301 C 0.50189 0.12221 0.6371 0.0
C302 C 0.62986 0.64873 0.96997 0.0
C303 C 0.56853 0.61596 0.94666 0.0
C304 C 0.63789 0.64064 0.01029 0.0
C305 C 0.58509 0.59902 0.0291 0.0
H306 H 0.67245 0.68065 0.95692 0.0
H307 H 0.68622 0.66684 0.02679 0.0
S308 S 0.41406 0.50218 0.98181 0.0
N309 N 0.45353 0.54117 0.94578 0.0
N310 N 0.46904 0.52498 0.02155 0.0
C311 C 0.5232 0.56695 0.0066 0.0
C312 C 0.51485 0.57557 0.96541 0.0
C313 C 0.09095 0.4548 0.28684 0.0
C314 C 0.03026 0.44294 0.27043 0.0
C315 C 0.11005 0.46907 0.32892 0.0
C316 C 0.06932 0.47175 0.35655 0.0
H317 H 0.12536 0.45575 0.26709 0.0
H318 H 0.15814 0.48026 0.33992 0.0
S319 S 0.90306 0.43779 0.33032 0.0
N320 N 0.92722 0.42937 0.28588 0.0
N321 N 0.96382 0.45661 0.36506 0.0
C322 C 0.00707 0.456 0.34098 0.0
C323 C 0.98744 0.44153 0.29794 0.0
loop_
_geom_bond_atom_site_label_1
_geom_bond_atom_site_label_2
_geom_bond_distance
_geom_bond_site_symmetry_2
_ccdc_geom_bond_type
Zn0 O6 1.969 . S
Zn0 O7 1.965 . S
Zn0 O11 2.024 . S
Zn0 O16 1.969 . S
Zn1 O8 1.969 . S
Zn1 O14 1.969 . S
Zn1 O15 1.965 . S
Zn1 O17 2.024 . S
C2 O3 1.229 . S
C2 O11 1.058 . S
O3 C2 1.229 . S
C4 O5 1.229 . S
C4 O17 1.058 . S
O5 C4 1.229 . S
O6 Zn0 1.969 . S
O6 C9 1.267 . S
O7 Zn0 1.965 . S
O7 C18 1.260 . S
O8 Zn1 1.969 . S
O8 C18 1.258 1_655 S
C9 O6 1.267 . S
C9 O10 1.228 . S
O10 C9 1.228 . S
O11 Zn0 2.024 . S
O11 C2 1.058 . S
C12 O13 1.228 . S
C12 O14 1.267 . S
O13 C12 1.228 . S
O14 Zn1 1.969 . S
O14 C12 1.267 . S
O15 Zn1 1.965 . S
O15 C19 1.260 1_655 S
O16 Zn0 1.969 . S
O16 C19 1.258 . S
O17 Zn1 2.024 . S
O17 C4 1.058 . S
C18 O7 1.260 . S
C18 O8 1.258 1_455 S
C19 O15 1.260 1_455 S
C19 O16 1.258 . S
Zn20 O26 1.969 . S
Zn20 O27 1.965 . S
Zn20 O31 2.024 . S
Zn20 O36 1.969 . S
Zn21 O28 1.969 . S
Zn21 O34 1.969 . S
Zn21 O35 1.965 1_565 S
Zn21 O37 2.024 . S
C22 O23 1.229 . S
C22 O31 1.058 . S
O23 C22 1.229 . S
C24 O25 1.229 . S
C24 O37 1.058 . S
O25 C24 1.229 . S
O26 Zn20 1.969 . S
O26 C29 1.267 . S
O27 Zn20 1.965 . S
O27 C38 1.260 . S
O28 Zn21 1.969 . S
O28 C38 1.258 1_565 S
C29 O26 1.267 . S
C29 O30 1.228 . S
O30 C29 1.228 . S
O31 Zn20 2.024 . S
O31 C22 1.058 . S
C32 O33 1.228 . S
C32 O34 1.267 . S
O33 C32 1.228 . S
O34 Zn21 1.969 . S
O34 C32 1.267 . S
O35 Zn21 1.965 1_545 S
O35 C39 1.260 . S
O36 Zn20 1.969 . S
O36 C39 1.258 . S
O37 Zn21 2.024 . S
O37 C24 1.058 . S
C38 O27 1.260 . S
C38 O28 1.258 1_545 S
C39 O35 1.260 . S
C39 O36 1.258 . S
Zn40 O46 1.969 . S
Zn40 O47 1.965 . S
Zn40 O51 2.024 . S
Zn40 O56 1.969 . S
Zn41 O48 1.969 . S
Zn41 O54 1.969 . S
Zn41 O55 1.965 . S
Zn41 O57 2.024 . S
C42 O43 1.229 . S
C42 O51 1.058 . S
O43 C42 1.229 . S
C44 O45 1.229 . S
C44 O57 1.058 . S
O45 C44 1.229 . S
O46 Zn40 1.969 . S
O46 C49 1.267 . S
O47 Zn40 1.965 . S
O47 C58 1.260 . S
O48 Zn41 1.969 . S
O48 C58 1.258 . S
C49 O46 1.267 . S
C49 O50 1.228 . S
O50 C49 1.228 . S
O51 Zn40 2.024 . S
O51 C42 1.058 . S
C52 O53 1.228 . S
C52 O54 1.267 . S
O53 C52 1.228 . S
O54 Zn41 1.969 . S
O54 C52 1.267 . S
O55 Zn41 1.965 . S
O55 C59 1.260 . S
O56 Zn40 1.969 . S
O56 C59 1.258 . S
O57 Zn41 2.024 . S
O57 C44 1.058 . S
C58 O47 1.260 . S
C58 O48 1.258 . S
C59 O55 1.260 . S
C59 O56 1.258 . S
H60 C63 0.929 . S
H61 C66 0.929 . S
H62 C68 0.930 1_565 S
C63 H60 0.929 . S
C63 C64 1.398 . S
C63 C65 1.396 1_565 S
C64 C63 1.398 . S
C64 C68 1.407 1_565 S
C65 C63 1.396 1_545 S
C65 C66 1.394 . S
C66 H61 0.929 . S
C66 C65 1.394 . S
C66 C67 1.382 . S
C67 C66 1.382 . S
C67 C68 1.392 . S
C67 N69 1.420 . S
C68 H62 0.930 1_545 S
C68 C64 1.407 1_545 S
C68 C67 1.392 . S
N69 C67 1.420 . S
N69 C70 1.244 . S
C70 N69 1.244 . S
H71 C74 0.929 . S
H72 C77 0.929 . S
H73 C79 0.930 . S
C74 H71 0.929 . S
C74 C75 1.398 . S
C74 C76 1.396 . S
C75 C74 1.398 . S
C75 C79 1.407 . S
C76 C74 1.396 . S
C76 C77 1.394 . S
C77 H72 0.929 . S
C77 C76 1.394 . S
C77 C78 1.382 . S
C78 C77 1.382 . S
C78 C79 1.392 . S
C78 N80 1.420 . S
C79 H73 0.930 . S
C79 C75 1.407 . S
C79 C78 1.392 . S
N80 C78 1.420 . S
N80 C81 1.244 . S
C81 N80 1.244 . S
H82 C85 0.929 . S
H83 C88 0.929 . S
H84 C90 0.931 . S
C85 H82 0.929 . S
C85 C86 1.398 . S
C85 C87 1.396 1_655 S
C86 C85 1.398 . S
C86 C90 1.407 1_655 S
C87 C85 1.396 1_455 S
C87 C88 1.394 . S
C88 H83 0.929 . S
C88 C87 1.394 . S
C88 C89 1.382 . S
C89 C88 1.382 . S
C89 C90 1.392 . S
C89 N91 1.420 . S
C90 H84 0.931 . S
C90 C86 1.407 1_455 S
C90 C89 1.392 . S
N91 C89 1.420 . S
N91 C92 1.244 . S
C92 N91 1.244 . S
H93 C96 0.929 . S
H94 C99 0.929 1_655 S
H95 C101 0.930 . S
C96 H93 0.929 . S
C96 C97 1.398 . S
C96 C98 1.396 . S
C97 C96 1.398 . S
C97 C101 1.407 . S
C98 C96 1.396 . S
C98 C99 1.394 . S
C99 H94 0.929 1_455 S
C99 C98 1.394 . S
C99 C100 1.382 . S
C100 C99 1.382 . S
C100 C101 1.392 . S
C100 N102 1.420 1_455 S
C101 H95 0.930 . S
C101 C97 1.407 . S
C101 C100 1.392 . S
N102 C100 1.420 1_655 S
N102 C103 1.244 . S
C103 N102 1.244 . S
H104 C107 0.929 . S
H105 C110 0.929 1_565 S
H106 C112 0.930 . S
C107 H104 0.929 . S
C107 C108 1.398 . S
C107 C109 1.396 . S
C108 C107 1.398 . S
C108 C112 1.407 . S
C109 C107 1.396 . S
C109 C110 1.394 . S
C110 H105 0.929 1_545 S
C110 C109 1.394 . S
C110 C111 1.382 . S
C111 C110 1.382 . S
C111 C112 1.392 . S
C111 N113 1.420 1_545 S
C112 H106 0.930 . S
C112 C108 1.407 . S
C112 C111 1.392 . S
N113 C111 1.420 1_565 S
N113 C114 1.244 . S
C114 N113 1.244 . S
H115 C118 0.929 . S
H116 C121 0.929 . S
H117 C123 0.930 . S
C118 H115 0.929 . S
C118 C119 1.398 . S
C118 C120 1.396 . S
C119 C118 1.398 . S
C119 C123 1.407 . S
C120 C118 1.396 . S
C120 C121 1.394 . S
C121 H116 0.929 . S
C121 C120 1.394 . S
C121 C122 1.382 . S
C122 C121 1.382 . S
C122 C123 1.392 . S
C122 N124 1.420 . S
C123 H117 0.930 . S
C123 C119 1.407 . S
C123 C122 1.392 . S
N124 C122 1.420 . S
N124 C125 1.244 . S
C125 N124 1.244 . S
C126 C127 1.369 . S
C126 C128 1.419 . S
C126 H130 0.930 . S
C127 C126 1.369 . S
C127 C136 1.429 . S
C128 C126 1.419 . S
C128 C129 1.363 . S
C128 H131 0.929 . S
C129 C128 1.363 . S
C129 C135 1.428 . S
H130 C126 0.930 . S
H131 C128 0.929 . S
S132 N133 1.613 . S
S132 N134 1.610 . S
N133 S132 1.613 . S
N133 C136 1.350 . S
N134 S132 1.610 . S
N134 C135 1.351 . S
C135 C129 1.428 . S
C135 N134 1.351 . S
C135 C136 1.434 . S
C136 C127 1.429 . S
C136 N133 1.350 . S
C136 C135 1.434 . S
C137 C138 1.369 . S
C137 C139 1.419 . S
C137 H141 0.930 . S
C138 C137 1.369 . S
C138 C147 1.429 . S
C139 C137 1.419 . S
C139 C140 1.363 . S
C139 H142 0.929 . S
C140 C139 1.363 . S
C140 C146 1.428 . S
H141 C137 0.930 . S
H142 C139 0.929 . S
S143 N144 1.613 . S
S143 N145 1.610 . S
N144 S143 1.613 . S
N144 C147 1.350 . S
N145 S143 1.610 . S
N145 C146 1.351 . S
C146 C140 1.428 . S
C146 N145 1.351 . S
C146 C147 1.434 . S
C147 C138 1.429 . S
C147 N144 1.350 . S
C147 C146 1.434 . S
C148 C149 1.369 . S
C148 C150 1.419 . S
C148 H152 0.930 . S
C149 C148 1.369 . S
C149 C158 1.429 . S
C150 C148 1.419 . S
C150 C151 1.363 . S
C150 H153 0.929 . S
C151 C150 1.363 . S
C151 C157 1.428 . S
H152 C148 0.930 . S
H153 C150 0.929 . S
S154 N155 1.613 . S
S154 N156 1.610 . S
N155 S154 1.613 . S
N155 C158 1.350 . S
N156 S154 1.610 . S
N156 C157 1.351 . S
C157 C151 1.428 . S
C157 N156 1.351 . S
C157 C158 1.434 . S
C158 C149 1.429 . S
C158 N155 1.350 . S
C158 C157 1.434 . S
C159 C160 1.369 . S
C159 C161 1.419 . S
C159 H163 0.930 . S
C160 C159 1.369 . S
C160 C169 1.429 . S
C161 C159 1.419 . S
C161 C162 1.363 . S
C161 H164 0.929 . S
C162 C161 1.363 . S
C162 C168 1.428 . S
H163 C159 0.930 . S
H164 C161 0.929 . S
S165 N166 1.613 . S
S165 N167 1.610 . S
N166 S165 1.613 . S
N166 C169 1.350 . S
N167 S165 1.610 . S
N167 C168 1.351 . S
C168 C162 1.428 . S
C168 N167 1.351 . S
C168 C169 1.434 . S
C169 C160 1.429 . S
C169 N166 1.350 . S
C169 C168 1.434 . S
C170 C171 1.369 . S
C170 C172 1.419 . S
C170 H174 0.930 . S
C171 C170 1.369 . S
C171 C180 1.429 . S
C172 C170 1.419 . S
C172 C173 1.363 . S
C172 H175 0.929 . S
C173 C172 1.363 . S
C173 C179 1.428 . S
H174 C170 0.930 . S
H175 C172 0.929 . S
S176 N177 1.613 . S
S176 N178 1.610 . S
N177 S176 1.613 . S
N177 C180 1.350 . S
N178 S176 1.610 . S
N178 C179 1.351 . S
C179 C173 1.428 . S
C179 N178 1.351 . S
C179 C180 1.434 . S
C180 C171 1.429 . S
C180 N177 1.350 . S
C180 C179 1.434 . S
C181 C182 1.369 . S
C181 C183 1.419 . S
C181 H185 0.930 . S
C182 C181 1.369 . S
C182 C191 1.429 . S
C183 C181 1.419 . S
C183 C184 1.363 . S
C183 H186 0.929 . S
C184 C183 1.363 . S
C184 C190 1.428 . S
H185 C181 0.930 . S
H186 C183 0.929 . S
S187 N188 1.613 . S
S187 N189 1.610 . S
N188 S187 1.613 . S
N188 C191 1.350 . S
N189 S187 1.610 . S
N189 C190 1.351 . S
C190 C184 1.428 . S
C190 N189 1.351 . S
C190 C191 1.434 . S
C191 C182 1.429 . S
C191 N188 1.350 . S
C191 C190 1.434 . S
C192 C193 1.369 . S
C192 C194 1.419 . S
C192 H196 0.930 . S
C193 C192 1.369 . S
C193 C202 1.429 . S
C194 C192 1.419 . S
C194 C195 1.363 . S
C194 H197 0.929 . S
C195 C194 1.363 . S
C195 C201 1.428 . S
H196 C192 0.930 . S
H197 C194 0.929 . S
S198 N199 1.613 . S
S198 N200 1.610 . S
N199 S198 1.613 . S
N199 C202 1.350 . S
N200 S198 1.610 . S
N200 C201 1.351 . S
C201 C195 1.428 . S
C201 N200 1.351 . S
C201 C202 1.434 . S
C202 C193 1.429 . S
C202 N199 1.350 . S
C202 C201 1.434 . S
C203 C204 1.369 . S
C203 C205 1.419 . S
C203 H207 0.930 . S
C204 C203 1.369 . S
C204 C213 1.429 . S
C205 C203 1.419 . S
C205 C206 1.363 . S
C205 H208 0.929 . S
C206 C205 1.363 . S
C206 C212 1.428 . S
H207 C203 0.930 . S
H208 C205 0.929 . S
S209 N210 1.613 . S
S209 N211 1.610 . S
N210 S209 1.613 . S
N210 C213 1.350 . S
N211 S209 1.610 . S
N211 C212 1.351 . S
C212 C206 1.428 . S
C212 N211 1.351 . S
C212 C213 1.434 . S
C213 C204 1.429 . S
C213 N210 1.350 . S
C213 C212 1.434 . S
C214 C215 1.369 . S
C214 C216 1.419 . S
C214 H218 0.930 . S
C215 C214 1.369 . S
C215 C224 1.429 . S
C216 C214 1.419 . S
C216 C217 1.363 . S
C216 H219 0.929 . S
C217 C216 1.363 . S
C217 C223 1.428 . S
H218 C214 0.930 . S
H219 C216 0.929 . S
S220 N221 1.613 . S
S220 N222 1.610 . S
N221 S220 1.613 . S
N221 C224 1.350 . S
N222 S220 1.610 . S
N222 C223 1.351 . S
C223 C217 1.428 . S
C223 N222 1.351 . S
C223 C224 1.434 . S
C224 C215 1.429 . S
C224 N221 1.350 . S
C224 C223 1.434 . S
C225 C226 1.369 . S
C225 C227 1.419 . S
C225 H229 0.930 . S
C226 C225 1.369 . S
C226 C235 1.429 . S
C227 C225 1.419 . S
C227 C228 1.363 . S
C227 H230 0.929 . S
C228 C227 1.363 . S
C228 C234 1.428 . S
H229 C225 0.930 . S
H230 C227 0.929 . S
S231 N232 1.613 . S
S231 N233 1.610 . S
N232 S231 1.613 . S
N232 C235 1.350 . S
N233 S231 1.610 . S
N233 C234 1.351 . S
C234 C228 1.428 . S
C234 N233 1.351 . S
C234 C235 1.434 . S
C235 C226 1.429 . S
C235 N232 1.350 . S
C235 C234 1.434 . S
C236 C237 1.369 . S
C236 C238 1.419 . S
C236 H240 0.930 . S
C237 C236 1.369 . S
C237 C246 1.429 . S
C238 C236 1.419 . S
C238 C239 1.363 . S
C238 H241 0.929 . S
C239 C238 1.363 . S
C239 C245 1.428 . S
H240 C236 0.930 . S
H241 C238 0.929 . S
S242 N243 1.613 . S
S242 N244 1.610 . S
N243 S242 1.613 . S
N243 C246 1.350 . S
N244 S242 1.610 . S
N244 C245 1.351 . S
C245 C239 1.428 . S
C245 N244 1.351 . S
C245 C246 1.434 . S
C246 C237 1.429 . S
C246 N243 1.350 . S
C246 C245 1.434 . S
C247 C248 1.369 . S
C247 C249 1.419 . S
C247 H251 0.930 . S
C248 C247 1.369 . S
C248 C257 1.429 . S
C249 C247 1.419 . S
C249 C250 1.363 . S
C249 H252 0.929 . S
C250 C249 1.363 . S
C250 C256 1.428 . S
H251 C247 0.930 . S
H252 C249 0.929 . S
S253 N254 1.613 . S
S253 N255 1.610 . S
N254 S253 1.613 . S
N254 C257 1.350 . S
N255 S253 1.610 . S
N255 C256 1.351 . S
C256 C250 1.428 . S
C256 N255 1.351 . S
C256 C257 1.434 . S
C257 C248 1.429 . S
C257 N254 1.350 . S
C257 C256 1.434 . S
C258 C259 1.369 . S
C258 C260 1.419 . S
C258 H262 0.930 . S
C259 C258 1.369 . S
C259 C268 1.429 1_455 S
C260 C258 1.419 . S
C260 C261 1.363 1_554 S
C260 H263 0.929 1_554 S
C261 C260 1.363 1_556 S
C261 C267 1.428 1_455 S
H262 C258 0.930 . S
H263 C260 0.929 1_556 S
S264 N265 1.613 1_556 S
S264 N266 1.610 . S
N265 S264 1.613 1_554 S
N265 C268 1.350 . S
N266 S264 1.610 . S
N266 C267 1.351 . S
C267 C261 1.428 1_655 S
C267 N266 1.351 . S
C267 C268 1.434 1_556 S
C268 C259 1.429 1_655 S
C268 N265 1.350 . S
C268 C267 1.434 1_554 S
C269 C270 1.369 . S
C269 C271 1.419 . S
C269 H273 0.930 1_545 S
C270 C269 1.369 . S
C270 C279 1.429 . S
C271 C269 1.419 . S
C271 C272 1.363 . S
C271 H274 0.929 1_545 S
C272 C271 1.363 . S
C272 C278 1.428 . S
H273 C269 0.930 1_565 S
H274 C271 0.929 1_565 S
S275 N276 1.613 . S
S275 N277 1.610 . S
N276 S275 1.613 . S
N276 C279 1.350 . S
N277 S275 1.610 . S
N277 C278 1.351 . S
C278 C272 1.428 . S
C278 N277 1.351 . S
C278 C279 1.434 . S
C279 C270 1.429 . S
C279 N276 1.350 . S
C279 C278 1.434 . S
C280 C281 1.369 . S
C280 C282 1.419 . S
C280 H284 0.930 . S
C281 C280 1.369 . S
C281 C290 1.429 . S
C282 C280 1.419 . S
C282 C283 1.363 . S
C282 H285 0.929 . S
C283 C282 1.363 . S
C283 C289 1.428 . S
H284 C280 0.930 . S
H285 C282 0.929 . S
S286 N287 1.613 . S
S286 N288 1.610 . S
N287 S286 1.613 . S
N287 C290 1.350 . S
N288 S286 1.610 . S
N288 C289 1.351 . S
C289 C283 1.428 . S
C289 N288 1.351 . S
C289 C290 1.434 . S
C290 C281 1.429 . S
C290 N287 1.350 . S
C290 C289 1.434 . S
C291 C292 1.369 . S
C291 C293 1.419 . S
C291 H295 0.930 1_545 S
C292 C291 1.369 . S
C292 C301 1.429 . S
C293 C291 1.419 . S
C293 C294 1.363 . S
C293 H296 0.929 1_545 S
C294 C293 1.363 . S
C294 C300 1.428 . S
H295 C291 0.930 1_565 S
H296 C293 0.929 1_565 S
S297 N298 1.613 . S
S297 N299 1.610 . S
N298 S297 1.613 . S
N298 C301 1.350 . S
N299 S297 1.610 . S
N299 C300 1.351 . S
C300 C294 1.428 . S
C300 N299 1.351 . S
C300 C301 1.434 . S
C301 C292 1.429 . S
C301 N298 1.350 . S
C301 C300 1.434 . S
C302 C303 1.369 . S
C302 C304 1.419 1_556 S
C302 H306 0.930 . S
C303 C302 1.369 . S
C303 C312 1.429 . S
C304 C302 1.419 1_554 S
C304 C305 1.363 . S
C304 H307 0.929 . S
C305 C304 1.363 . S
C305 C311 1.428 1_554 S
H306 C302 0.930 . S
H307 C304 0.929 . S
S308 N309 1.613 . S
S308 N310 1.610 1_556 S
N309 S308 1.613 . S
N309 C312 1.350 . S
N310 S308 1.610 1_554 S
N310 C311 1.351 1_554 S
C311 C305 1.428 1_556 S
C311 N310 1.351 1_556 S
C311 C312 1.434 . S
C312 C303 1.429 . S
C312 N309 1.350 . S
C312 C311 1.434 . S
C313 C314 1.369 . S
C313 C315 1.419 . S
C313 H317 0.930 . S
C314 C313 1.369 . S
C314 C323 1.429 1_455 S
C315 C313 1.419 . S
C315 C316 1.363 . S
C315 H318 0.929 . S
C316 C315 1.363 . S
C316 C322 1.428 1_455 S
H317 C313 0.930 . S
H318 C315 0.929 . S
S319 N320 1.613 . S
S319 N321 1.610 . S
N320 S319 1.613 . S
N320 C323 1.350 . S
N321 S319 1.610 . S
N321 C322 1.351 . S
C322 C316 1.428 1_655 S
C322 N321 1.351 . S
C322 C323 1.434 . S
C323 C314 1.429 1_655 S
C323 N320 1.350 . S
C323 C322 1.434 . S
C127 C2 1.498 . S
C129 C125 1.550 . S
C138 C22 1.491 . S
C140 C103 1.564 . S
C149 C44 1.498 . S
C151 C114 1.560 . S
C160 C4 1.440 . S
C162 C119 1.547 . S
C173 C97 1.538 . S
C171 C24 1.453 . S
C184 C108 1.529 . S
C182 C42 1.427 . S
C193 C32 1.424 . S
C195 C81 1.397 . S
C204 C49 1.229 . S
C206 C86 1.246 . S
C215 C9 1.203 . S
C217 C64 1.236 . S
C228 C75 1.280 . S
C226 C29 1.216 . S
C239 C92 1.352 . S
C237 C52 1.324 . S
C248 C12 1.334 . S
C250 C70 1.352 . S
C261 C87 1.486 . S
C259 C18 1.494 . S
C270 C38 1.471 . S
C272 C65 1.467 . S
C281 C58 1.457 . S
C283 C76 1.492 . S
C294 C109 1.520 . S
C292 C39 1.506 . S
C305 C120 1.526 . S
C303 C59 1.518 . S
C314 C19 1.509 . S
C316 C98 1.536 . S
