# Generated by pormake.
# Topology pth, (4,4)-cn, num edge types: 1
# Building blocks:
#     Node 0, Type 0, BuildingBlock: NAHDIM_clean_sbu_0, # of connection points: 4
#     Node 1, Type 0, BuildingBlock: NAHDIM_clean_sbu_0, # of connection points: 4
#     Node 2, Type 0, BuildingBlock: NAHDIM_clean_sbu_0, # of connection points: 4
#     Node 3, Type 1, BuildingBlock: NAWXER_clean_linker_0, # of connection points: 4
#     Node 4, Type 1, BuildingBlock: NAWXER_clean_linker_0, # of connection points: 4
#     Node 5, Type 1, BuildingBlock: NAWXER_clean_linker_0, # of connection points: 4
#     Edge 6, Type (0, 1), BuildingBlock: OJICUG_clean_linker_0, # of connection points: 2
#     Edge 7, Type (0, 1), BuildingBlock: OJICUG_clean_linker_0, # of connection points: 2
#     Edge 8, Type (0, 1), BuildingBlock: OJICUG_clean_linker_0, # of connection points: 2
#     Edge 9, Type (0, 1), BuildingBlock: OJICUG_clean_linker_0, # of connection points: 2
#     Edge 10, Type (0, 1), BuildingBlock: OJICUG_clean_linker_0, # of connection points: 2
#     Edge 11, Type (0, 1), BuildingBlock: OJICUG_clean_linker_0, # of connection points: 2
#     Edge 12, Type (0, 1), BuildingBlock: OJICUG_clean_linker_0, # of connection points: 2
#     Edge 13, Type (0, 1), BuildingBlock: OJICUG_clean_linker_0, # of connection points: 2
#     Edge 14, Type (0, 1), BuildingBlock: OJICUG_clean_linker_0, # of connection points: 2
#     Edge 15, Type (0, 1), BuildingBlock: OJICUG_clean_linker_0, # of connection points: 2
#     Edge 16, Type (0, 1), BuildingBlock: OJICUG_clean_linker_0, # of connection points: 2
#     Edge 17, Type (0, 1), BuildingBlock: OJICUG_clean_linker_0, # of connection points: 2
# Relax obj value: 0.041
# Max RMSD: 0.166
# Mean RMSD: 0.084
data_MOF--net-pth--node1-NAHDIM_clean_sbu_0--node2-NAWXER_clean_linker_0--edge1-OJICUG_clean_linker_0
_symmetry_space_group_name_H-M    P1
_symmetry_Int_Tables_number       1
_symmetry_cell_setting            triclinic
loop_
_symmetry_equiv_pos_as_xyz
'x, y, z'
_cell_length_a     22.661493
_cell_length_b     22.837659
_cell_length_c     50.17023
_cell_angle_alpha  91.876042
_cell_angle_beta   89.998978
_cell_angle_gamma 120.84118
loop_
_atom_site_label
_atom_site_type_symbol
_atom_site_fract_x
_atom_site_fract_y
_atom_site_fract_z
_atom_type_partial_charge
C0 C 0.98204 0.93414 0.07325 0.0
O1 O 0.92464 0.93484 0.07088 0.0
O2 O 0.9892 0.08896 0.06442 0.0
Zn3 Zn 0.01208 0.0351 0.0382 0.0
O4 O 0.93291 0.96927 0.01419 0.0
C5 C 0.09115 0.15282 0.00795 0.0
O6 O 0.04315 0.16434 0.01653 0.0
O7 O 0.03403 0.97646 0.06027 0.0
C8 C 0.90654 0.98206 0.99453 0.0
O9 O 0.92862 0.04557 0.98868 0.0
C10 C 0.94176 0.10277 0.06267 0.0
O11 O 0.89994 0.08025 0.0418 0.0
O12 O 0.09058 0.09968 0.01524 0.0
C13 C 0.04804 0.14472 0.32074 0.0
O14 O 0.00658 0.08042 0.31345 0.0
O15 O 0.04023 -0.00133 0.34227 0.0
Zn16 Zn 0.05773 0.0792 0.36611 0.0
O17 O 0.97698 0.06354 0.38826 0.0
C18 C 0.13015 0.04371 0.40055 0.0
O19 O 0.07675 0.98431 0.39324 0.0
O20 O 0.07989 0.15896 0.34309 0.0
C21 C 0.93651 0.01183 0.40146 0.0
O22 O 0.94302 0.9579 0.40067 0.0
C23 C 0.98375 0.94637 0.33467 0.0
O24 O 0.92538 0.94016 0.34224 0.0
O25 O 0.13576 0.09746 0.39121 0.0
C26 C 0.12283 0.03185 0.66561 0.0
O27 O 0.12597 0.08928 0.67267 0.0
O28 O 0.94919 0.00711 0.67679 0.0
Zn29 Zn 0.01114 0.98884 0.69925 0.0
O30 O 0.0713 0.06655 0.72503 0.0
C31 C 0.9555 0.90124 0.74446 0.0
O32 O 0.0092 0.95141 0.7572 0.0
O33 O 0.07488 0.97644 0.67474 0.0
C34 C 0.05731 0.10632 0.73811 0.0
O35 O -0.00362 0.09938 0.73531 0.0
C36 C 0.96011 0.06352 0.66823 0.0
O37 O 0.01794 0.12009 0.67458 0.0
O38 O 0.94847 0.90467 0.71951 0.0
C39 C 0.97023 0.32242 0.24418 0.0
C40 C 0.03143 0.34522 0.25902 0.0
C41 C 0.96016 0.36806 0.22985 0.0
C42 C 0.01117 0.43741 0.22995 0.0
C43 C 0.0819 0.41503 0.25945 0.0
C44 C 0.07162 0.46072 0.24516 0.0
C45 C 0.00124 0.48618 0.21478 0.0
C46 C 0.01696 0.34719 0.15241 0.0
C47 C 0.95491 0.30634 0.13793 0.0
C48 C 0.02608 0.40178 0.16891 0.0
C49 C 0.97348 0.41673 0.17117 0.0
C50 C 0.90213 0.32127 0.14055 0.0
C51 C 0.91166 0.37636 0.15681 0.0
C52 C 0.98355 0.47632 0.18735 0.0
C53 C 0.03872 0.75261 0.15896 0.0
C54 C 0.98668 0.73405 0.1396 0.0
C55 C 0.03804 0.70335 0.17497 0.0
C56 C 0.98517 0.63468 0.17197 0.0
C57 C 0.93425 0.66519 0.13646 0.0
C58 C 0.93381 0.61593 0.15237 0.0
C59 C 0.98564 0.58165 0.18796 0.0
C60 C 0.94165 0.70642 0.24582 0.0
C61 C -0.00877 0.74127 0.26624 0.0
C62 C 0.94419 0.65741 0.2293 0.0
C63 C -0.00303 0.64293 0.23257 0.0
C64 C 0.04334 0.72584 0.26976 0.0
C65 C 0.04598 0.67695 0.25316 0.0
C66 C -0.00166 0.58912 0.2158 0.0
H67 H 0.9295 0.26936 0.24395 0.0
H68 H 0.91222 0.34924 0.21889 0.0
H69 H 0.12973 0.43424 0.27052 0.0
H70 H 0.1114 0.5142 0.24564 0.0
H71 H 0.05932 0.33827 0.15047 0.0
H72 H 0.07472 0.43324 0.17944 0.0
H73 H 0.85337 0.29044 0.13006 0.0
H74 H 0.87054 0.38731 0.15829 0.0
H75 H 0.07961 0.8053 0.16188 0.0
H76 H 0.07931 0.71882 0.18947 0.0
H77 H 0.894 0.64923 0.12145 0.0
H78 H 0.89312 0.56314 0.14944 0.0
H79 H 0.90106 0.71729 0.24247 0.0
H80 H 0.90426 0.63023 0.21419 0.0
H81 H 0.08161 0.75088 0.28561 0.0
H82 H 0.08643 0.66577 0.25637 0.0
N83 N 0.00723 0.54187 0.22806 0.0
N84 N 0.97721 0.52476 0.17492 0.0
C85 C 0.76171 0.08194 0.48899 0.0
C86 C 0.73999 0.02618 0.47079 0.0
C87 C 0.7143 0.08703 0.50521 0.0
C88 C 0.6444 0.03636 0.50354 0.0
C89 C 0.67001 0.97547 0.46925 0.0
C90 C 0.62259 0.98085 0.48532 0.0
C91 C 0.59305 0.04219 0.51968 0.0
C92 C 0.72377 0.00926 0.57787 0.0
C93 C 0.75797 0.06233 0.5973 0.0
C94 C 0.67252 0.00642 0.56146 0.0
C95 C 0.65507 0.05708 0.56393 0.0
C96 C 0.7404 0.113 0.5997 0.0
C97 C 0.68913 0.11012 0.58327 0.0
C98 C 0.59859 0.05303 0.54768 0.0
C99 C 0.31631 -0.00682 0.57572 0.0
C100 C 0.3324 0.0411 0.5969 0.0
C101 C 0.3681 -0.00311 0.55946 0.0
C102 C 0.43688 0.04892 0.56394 0.0
C103 C 0.40142 0.09257 0.60154 0.0
C104 C 0.45315 0.09617 0.5853 0.0
C105 C 0.49253 0.05148 0.54766 0.0
C106 C 0.36822 0.0965 0.49122 0.0
C107 C 0.33589 0.04787 0.47016 0.0
C108 C 0.41746 0.09506 0.50753 0.0
C109 C 0.43487 0.04468 0.50317 0.0
C110 C 0.3543 -0.00175 0.46562 0.0
C111 C 0.40351 -0.00309 0.48187 0.0
C112 C 0.48875 0.04395 0.51955 0.0
H113 H 0.81541 0.12162 0.49068 0.0
H114 H 0.73207 0.13099 0.51877 0.0
H115 H 0.65171 0.93242 0.45517 0.0
H116 H 0.56874 0.94155 0.48357 0.0
H117 H 0.73642 0.96968 0.5754 0.0
H118 H 0.64574 0.96395 0.54719 0.0
H119 H 0.76504 0.15394 0.61473 0.0
H120 H 0.67584 0.14927 0.58573 0.0
H121 H 0.26364 0.95309 0.57159 0.0
H122 H 0.35442 0.95849 0.54361 0.0
H123 H 0.41562 0.12956 0.61798 0.0
H124 H 0.50596 0.13603 0.58941 0.0
H125 H 0.35501 0.13523 0.49524 0.0
H126 H 0.44244 0.13379 0.52334 0.0
H127 H 0.33121 0.96082 0.44926 0.0
H128 H 0.41691 0.95827 0.47787 0.0
N129 N 0.53857 0.03847 0.50671 0.0
N130 N 0.54791 0.05689 0.56058 0.0
C131 C 0.30308 0.30146 0.82657 0.0
C132 C 0.26905 0.31732 0.80721 0.0
C133 C 0.35769 0.35333 0.84173 0.0
C134 C 0.37902 0.42193 0.83787 0.0
C135 C 0.29049 0.38608 0.80345 0.0
C136 C 0.34539 0.43794 0.81851 0.0
C137 C 0.43771 0.47742 0.85325 0.0
C138 C 0.26956 0.36316 0.91268 0.0
C139 C 0.28957 0.33602 0.93323 0.0
C140 C 0.31833 0.41001 0.89552 0.0
C141 C 0.38786 0.43006 0.89847 0.0
C142 C 0.35925 0.35637 0.9361 0.0
C143 C 0.40787 0.40316 0.91898 0.0
C144 C 0.44113 0.48156 0.8814 0.0
C145 C 0.68309 0.76632 0.90267 0.0
C146 C 0.70372 0.7562 0.92771 0.0
C147 C 0.63344 0.71097 0.88707 0.0
C148 C 0.60487 0.64399 0.89576 0.0
C149 C 0.67355 0.68919 0.93663 0.0
C150 C 0.62505 0.63387 0.9208 0.0
C151 C 0.55003 0.58464 0.88011 0.0
C152 C 0.73184 0.67456 0.82738 0.0
C153 C 0.72447 0.70403 0.8044 0.0
C154 C 0.67486 0.63309 0.84271 0.0
C155 C 0.60941 0.62083 0.83558 0.0
C156 C 0.65848 0.68994 0.79685 0.0
C157 C 0.60145 0.64839 0.81222 0.0
C158 C 0.54909 0.5775 0.85198 0.0
H159 H 0.28752 0.24891 0.82996 0.0
H160 H 0.38373 0.3399 0.85625 0.0
H161 H 0.26589 0.39984 0.78841 0.0
H162 H 0.36154 0.49065 0.81509 0.0
H163 H 0.21618 0.34823 0.90989 0.0
H164 H 0.30185 0.43125 0.88024 0.0
H165 H 0.3765 0.33732 0.95197 0.0
H166 H 0.46139 0.4185 0.92178 0.0
H167 H 0.7053 0.81697 0.89499 0.0
H168 H 0.61686 0.72091 0.8684 0.0
H169 H 0.6865 0.67924 0.95607 0.0
H170 H 0.60292 0.58297 0.92828 0.0
H171 H 0.78164 0.68321 0.83345 0.0
H172 H 0.68198 0.61052 0.86017 0.0
H173 H 0.65108 0.7123 0.7794 0.0
H174 H 0.55132 0.63897 0.80618 0.0
N175 N 0.49216 0.52514 0.83959 0.0
N176 N 0.49668 0.53546 0.89366 0.0
C177 C 0.97257 0.16172 0.10765 0.0
C178 C 0.93909 0.14995 0.08278 0.0
H179 H 0.00186 0.21844 0.14486 0.0
C180 C 0.90715 0.18689 0.07677 0.0
H181 H -0.00295 0.13345 0.11295 0.0
C182 C 0.91118 0.23677 0.09485 0.0
C183 C 0.94642 0.25006 0.11948 0.0
H184 H 0.88134 0.1792 0.05769 0.0
H185 H 0.88869 0.26648 0.08905 0.0
C186 C 0.97577 0.21083 0.12586 0.0
C187 C 0.83624 0.95662 0.43207 0.0
C188 C 0.88495 0.01449 0.41873 0.0
H189 H 0.75226 0.91503 0.45913 0.0
C190 C 0.88523 0.07592 0.42255 0.0
H191 H 0.83472 0.90858 0.42957 0.0
C192 C 0.8384 0.07963 0.43954 0.0
C193 C 0.78986 0.02192 0.45293 0.0
H194 H 0.92207 0.12152 0.4126 0.0
H195 H 0.83971 0.1276 0.44196 0.0
C196 C 0.78893 0.96023 0.44892 0.0
C197 C 0.83847 0.7961 0.7463 0.0
C198 C 0.89913 0.84633 0.7595 0.0
H199 H 0.7361 0.7113 0.75006 0.0
C200 C 0.90324 0.84676 0.78747 0.0
H201 H 0.83365 0.79416 0.72476 0.0
C202 C 0.84711 0.79963 0.80196 0.0
C203 C 0.7856 0.75088 0.78882 0.0
H204 H 0.9491 0.88482 0.79829 0.0
H205 H 0.85118 0.80298 0.82353 0.0
C206 C 0.78233 0.74894 0.7608 0.0
C207 C 0.92413 0.83401 0.10234 0.0
C208 C 0.9845 0.88393 0.09038 0.0
H209 H 0.87775 0.74814 0.12734 0.0
C210 C 0.04612 0.88477 0.09494 0.0
H211 H 0.87575 0.83192 0.0993 0.0
C212 C 0.04715 0.83648 0.11111 0.0
C213 C 0.98649 0.78622 0.12283 0.0
H214 H 0.09346 0.92261 0.08601 0.0
H215 H 0.09514 0.83777 0.1141 0.0
C216 C 0.92509 0.78567 0.11831 0.0
C217 C 0.2418 0.1085 0.42662 0.0
C218 C 0.18253 0.04638 0.41896 0.0
H219 H 0.33727 0.15775 0.44876 0.0
C220 C 0.17348 0.98546 0.42884 0.0
H221 H 0.25019 0.15628 0.41936 0.0
C222 C 0.22289 0.98632 0.44564 0.0
C223 C 0.28268 0.04811 0.45301 0.0
H224 H 0.12823 0.93668 0.42352 0.0
H225 H 0.21405 0.93842 0.45296 0.0
C226 C 0.29142 0.10936 0.44355 0.0
C227 C 0.10127 0.21144 0.768 0.0
C228 C 0.11014 0.15974 0.75635 0.0
H229 H 0.14472 0.30199 0.79335 0.0
C230 C 0.17091 0.15969 0.76199 0.0
H231 H 0.05504 0.21285 0.76404 0.0
C232 C 0.22182 0.2103 0.77876 0.0
C233 C 0.21347 0.26247 0.79017 0.0
H234 H 0.17942 0.12056 0.75338 0.0
H235 H 0.26844 0.20934 0.78237 0.0
C236 C 0.15267 0.26258 0.78466 0.0
C237 C 0.91991 0.12515 0.63967 0.0
C238 C 0.90832 0.06421 0.65049 0.0
H239 H 0.88184 0.17229 0.61408 0.0
C240 C 0.84688 0.00305 0.64382 0.0
H241 H 0.96678 0.17309 0.64435 0.0
C242 C 0.79836 0.00265 0.6266 0.0
C243 C 0.81001 0.06337 0.61559 0.0
H244 H 0.83609 0.95517 0.65187 0.0
H245 H 0.75125 0.95473 0.62215 0.0
C246 C 0.87117 0.12473 0.6224 0.0
C247 C 0.80931 0.93332 0.96102 0.0
C248 C 0.85444 0.92503 0.97743 0.0
H249 H 0.72476 0.88616 0.93314 0.0
C250 C 0.85037 0.86157 0.97717 0.0
H251 H 0.81122 0.9817 0.96092 0.0
C252 C 0.80238 0.80748 0.96076 0.0
C253 C 0.75611 0.81494 0.9446 0.0
H254 H 0.88519 0.85392 0.98933 0.0
H255 H 0.80224 0.76 0.96059 0.0
C256 C 0.76016 0.87864 0.94495 0.0
C257 C 0.92379 0.83316 0.30955 0.0
C258 C 0.98484 0.89368 0.31709 0.0
H259 H 0.87793 0.73698 0.28792 0.0
C260 C 0.04775 0.90367 0.30773 0.0
H261 H 0.87455 0.82382 0.3165 0.0
C262 C 0.04965 0.85433 0.29124 0.0
C263 C 0.98875 0.79363 0.28376 0.0
H264 H 0.0958 0.94986 0.31305 0.0
H265 H 0.09891 0.8642 0.28409 0.0
C266 C 0.92573 0.78358 0.29307 0.0
C267 C 0.17383 0.97267 0.63981 0.0
C268 C 0.17522 0.03299 0.64769 0.0
H269 H 0.22283 0.92792 0.61771 0.0
C270 C 0.22793 0.09551 0.63841 0.0
H271 H 0.13392 0.92373 0.64664 0.0
C272 C 0.27847 0.09787 0.62186 0.0
C273 C 0.27759 0.03779 0.61413 0.0
H274 H 0.23043 0.14297 0.64397 0.0
H275 H 0.31802 0.14686 0.61492 0.0
C276 C 0.22451 0.97505 0.62315 0.0
C277 C 0.1932 0.18738 0.97884 0.0
C278 C 0.1427 0.19969 0.9891 0.0
H279 H 0.27861 0.22025 0.95281 0.0
C280 C 0.1407 0.25682 0.98073 0.0
H281 H 0.19591 0.14364 0.98479 0.0
C282 C 0.18798 0.30061 0.96249 0.0
C283 C 0.23847 0.2884 0.95219 0.0
H284 H 0.10253 0.2679 0.98826 0.0
H285 H 0.1856 0.34469 0.95676 0.0
C286 C 0.24066 0.23135 0.96058 0.0
C287 C 0.0771 0.26536 0.31471 0.0
C288 C 0.05121 0.19865 0.3042 0.0
H289 H 0.09002 0.36375 0.3089 0.0
C290 C 0.02323 0.18207 0.27816 0.0
H291 H 0.09873 0.27957 0.33476 0.0
C292 C 0.01881 0.23027 0.26328 0.0
C293 C 0.04174 0.29613 0.27415 0.0
H294 H 0.0035 0.13131 0.26937 0.0
H295 H -0.00335 0.21558 0.24332 0.0
C296 C 0.07221 0.3136 0.29985 0.0
loop_
_geom_bond_atom_site_label_1
_geom_bond_atom_site_label_2
_geom_bond_distance
_geom_bond_site_symmetry_2
_ccdc_geom_bond_type
C0 O1 1.160 . S
C0 O7 1.185 . S
O1 C0 1.160 . S
O2 Zn3 1.899 . S
O2 C10 1.284 1_455 S
Zn3 O2 1.899 . S
Zn3 O4 2.032 1_445 S
Zn3 O7 2.086 1_545 S
Zn3 O12 1.977 . S
O4 Zn3 2.032 1_665 S
O4 C8 1.278 . S
C5 O6 1.203 . S
C5 O12 1.267 . S
O6 C5 1.203 . S
O7 C0 1.185 . S
O7 Zn3 2.086 1_565 S
C8 O4 1.278 . S
C8 O9 1.211 1_564 S
O9 C8 1.211 1_546 S
C10 O2 1.284 1_655 S
C10 O11 1.273 . S
O11 C10 1.273 . S
O12 Zn3 1.977 . S
O12 C5 1.267 . S
C13 O14 1.160 . S
C13 O20 1.185 . S
O14 C13 1.160 . S
O15 Zn16 1.899 . S
O15 C23 1.284 1_545 S
Zn16 O15 1.899 . S
Zn16 O17 2.032 1_455 S
Zn16 O20 2.086 . S
Zn16 O25 1.977 . S
O17 Zn16 2.032 1_655 S
O17 C21 1.278 . S
C18 O19 1.203 . S
C18 O25 1.267 . S
O19 C18 1.203 . S
O20 C13 1.185 . S
O20 Zn16 2.086 . S
C21 O17 1.278 . S
C21 O22 1.211 . S
O22 C21 1.211 . S
C23 O15 1.284 1_565 S
C23 O24 1.273 1_455 S
O24 C23 1.273 1_655 S
O25 Zn16 1.977 . S
O25 C18 1.267 . S
C26 O27 1.160 . S
C26 O33 1.185 1_545 S
O27 C26 1.160 . S
O28 Zn29 1.899 1_655 S
O28 C36 1.284 . S
Zn29 O28 1.899 1_455 S
Zn29 O30 2.032 . S
Zn29 O33 2.086 1_545 S
Zn29 O38 1.977 1_445 S
O30 Zn29 2.032 . S
O30 C34 1.278 . S
C31 O32 1.203 . S
C31 O38 1.267 . S
O32 C31 1.203 . S
O33 C26 1.185 1_565 S
O33 Zn29 2.086 1_565 S
C34 O30 1.278 . S
C34 O35 1.211 . S
O35 C34 1.211 . S
C36 O28 1.284 . S
C36 O37 1.273 . S
O37 C36 1.273 . S
O38 Zn29 1.977 1_665 S
O38 C31 1.267 . S
C39 C40 1.384 1_655 S
C39 C41 1.384 . S
C39 H67 0.931 . S
C40 C39 1.384 1_455 S
C40 C43 1.382 . S
C41 C39 1.384 . S
C41 C42 1.381 1_655 S
C41 H68 0.930 . S
C42 C41 1.381 1_455 S
C42 C44 1.381 . S
C42 C45 1.487 . S
C43 C40 1.382 . S
C43 C44 1.387 . S
C43 H69 0.930 . S
C44 C42 1.381 . S
C44 C43 1.387 . S
C44 H70 0.931 . S
C45 C42 1.487 . S
C45 C52 1.399 . S
C45 N83 1.343 . S
C46 C47 1.384 . S
C46 C48 1.384 . S
C46 H71 0.931 . S
C47 C46 1.384 . S
C47 C50 1.382 1_455 S
C48 C46 1.384 . S
C48 C49 1.381 . S
C48 H72 0.930 . S
C49 C48 1.381 . S
C49 C51 1.381 1_455 S
C49 C52 1.487 . S
C50 C47 1.382 1_655 S
C50 C51 1.387 . S
C50 H73 0.930 . S
C51 C49 1.381 1_655 S
C51 C50 1.387 . S
C51 H74 0.931 . S
C52 C45 1.399 . S
C52 C49 1.487 . S
C52 N84 1.343 . S
C53 C54 1.384 . S
C53 C55 1.384 . S
C53 H75 0.931 . S
C54 C53 1.384 . S
C54 C57 1.382 1_455 S
C55 C53 1.384 . S
C55 C56 1.381 . S
C55 H76 0.930 . S
C56 C55 1.381 . S
C56 C58 1.381 1_455 S
C56 C59 1.487 . S
C57 C54 1.382 1_655 S
C57 C58 1.387 . S
C57 H77 0.930 . S
C58 C56 1.381 1_655 S
C58 C57 1.387 . S
C58 H78 0.931 . S
C59 C56 1.487 . S
C59 C66 1.399 . S
C59 N84 1.343 . S
C60 C61 1.384 1_655 S
C60 C62 1.384 . S
C60 H79 0.931 . S
C61 C60 1.384 1_455 S
C61 C64 1.382 . S
C62 C60 1.384 . S
C62 C63 1.381 1_655 S
C62 H80 0.930 . S
C63 C62 1.381 1_455 S
C63 C65 1.381 . S
C63 C66 1.487 . S
C64 C61 1.382 . S
C64 C65 1.387 . S
C64 H81 0.930 . S
C65 C63 1.381 . S
C65 C64 1.387 . S
C65 H82 0.931 . S
C66 C59 1.399 . S
C66 C63 1.487 . S
C66 N83 1.343 . S
H67 C39 0.931 . S
H68 C41 0.930 . S
H69 C43 0.930 . S
H70 C44 0.931 . S
H71 C46 0.931 . S
H72 C48 0.930 . S
H73 C50 0.930 . S
H74 C51 0.931 . S
H75 C53 0.931 . S
H76 C55 0.930 . S
H77 C57 0.930 . S
H78 C58 0.931 . S
H79 C60 0.931 . S
H80 C62 0.930 . S
H81 C64 0.930 . S
H82 C65 0.931 . S
N83 C45 1.343 . S
N83 C66 1.343 . S
N84 C52 1.343 . S
N84 C59 1.343 . S
C85 C86 1.384 . S
C85 C87 1.384 . S
C85 H113 0.931 . S
C86 C85 1.384 . S
C86 C89 1.382 1_545 S
C87 C85 1.384 . S
C87 C88 1.381 . S
C87 H114 0.930 . S
C88 C87 1.381 . S
C88 C90 1.381 1_545 S
C88 C91 1.487 . S
C89 C86 1.382 1_565 S
C89 C90 1.387 . S
C89 H115 0.930 . S
C90 C88 1.381 1_565 S
C90 C89 1.387 . S
C90 H116 0.931 . S
C91 C88 1.487 . S
C91 C98 1.399 . S
C91 N129 1.343 . S
C92 C93 1.384 1_565 S
C92 C94 1.384 . S
C92 H117 0.931 . S
C93 C92 1.384 1_545 S
C93 C96 1.382 . S
C94 C92 1.384 . S
C94 C95 1.381 1_565 S
C94 H118 0.930 . S
C95 C94 1.381 1_545 S
C95 C97 1.381 . S
C95 C98 1.487 . S
C96 C93 1.382 . S
C96 C97 1.387 . S
C96 H119 0.930 . S
C97 C95 1.381 . S
C97 C96 1.387 . S
C97 H120 0.931 . S
C98 C91 1.399 . S
C98 C95 1.487 . S
C98 N130 1.343 . S
C99 C100 1.384 1_565 S
C99 C101 1.384 . S
C99 H121 0.931 . S
C100 C99 1.384 1_545 S
C100 C103 1.382 . S
C101 C99 1.384 . S
C101 C102 1.381 1_565 S
C101 H122 0.930 . S
C102 C101 1.381 1_545 S
C102 C104 1.381 . S
C102 C105 1.487 . S
C103 C100 1.382 . S
C103 C104 1.387 . S
C103 H123 0.930 . S
C104 C102 1.381 . S
C104 C103 1.387 . S
C104 H124 0.931 . S
C105 C102 1.487 . S
C105 C112 1.399 . S
C105 N130 1.343 . S
C106 C107 1.384 . S
C106 C108 1.384 . S
C106 H125 0.931 . S
C107 C106 1.384 . S
C107 C110 1.382 1_545 S
C108 C106 1.384 . S
C108 C109 1.381 . S
C108 H126 0.930 . S
C109 C108 1.381 . S
C109 C111 1.381 1_545 S
C109 C112 1.487 . S
C110 C107 1.382 1_565 S
C110 C111 1.387 . S
C110 H127 0.930 . S
C111 C109 1.381 1_565 S
C111 C110 1.387 . S
C111 H128 0.931 . S
C112 C105 1.399 . S
C112 C109 1.487 . S
C112 N129 1.343 . S
H113 C85 0.931 . S
H114 C87 0.930 . S
H115 C89 0.930 . S
H116 C90 0.931 . S
H117 C92 0.931 . S
H118 C94 0.930 . S
H119 C96 0.930 . S
H120 C97 0.931 . S
H121 C99 0.931 . S
H122 C101 0.930 . S
H123 C103 0.930 . S
H124 C104 0.931 . S
H125 C106 0.931 . S
H126 C108 0.930 . S
H127 C110 0.930 . S
H128 C111 0.931 . S
N129 C91 1.343 . S
N129 C112 1.343 . S
N130 C98 1.343 . S
N130 C105 1.343 . S
C131 C132 1.384 . S
C131 C133 1.384 . S
C131 H159 0.931 . S
C132 C131 1.384 . S
C132 C135 1.382 . S
C133 C131 1.384 . S
C133 C134 1.381 . S
C133 H160 0.930 . S
C134 C133 1.381 . S
C134 C136 1.381 . S
C134 C137 1.487 . S
C135 C132 1.382 . S
C135 C136 1.387 . S
C135 H161 0.930 . S
C136 C134 1.381 . S
C136 C135 1.387 . S
C136 H162 0.931 . S
C137 C134 1.487 . S
C137 C144 1.399 . S
C137 N175 1.343 . S
C138 C139 1.384 . S
C138 C140 1.384 . S
C138 H163 0.931 . S
C139 C138 1.384 . S
C139 C142 1.382 . S
C140 C138 1.384 . S
C140 C141 1.381 . S
C140 H164 0.930 . S
C141 C140 1.381 . S
C141 C143 1.381 . S
C141 C144 1.487 . S
C142 C139 1.382 . S
C142 C143 1.387 . S
C142 H165 0.930 . S
C143 C141 1.381 . S
C143 C142 1.387 . S
C143 H166 0.931 . S
C144 C137 1.399 . S
C144 C141 1.487 . S
C144 N176 1.343 . S
C145 C146 1.384 . S
C145 C147 1.384 . S
C145 H167 0.931 . S
C146 C145 1.384 . S
C146 C149 1.382 . S
C147 C145 1.384 . S
C147 C148 1.381 . S
C147 H168 0.930 . S
C148 C147 1.381 . S
C148 C150 1.381 . S
C148 C151 1.487 . S
C149 C146 1.382 . S
C149 C150 1.387 . S
C149 H169 0.930 . S
C150 C148 1.381 . S
C150 C149 1.387 . S
C150 H170 0.931 . S
C151 C148 1.487 . S
C151 C158 1.399 . S
C151 N176 1.343 . S
C152 C153 1.384 . S
C152 C154 1.384 . S
C152 H171 0.931 . S
C153 C152 1.384 . S
C153 C156 1.382 . S
C154 C152 1.384 . S
C154 C155 1.381 . S
C154 H172 0.930 . S
C155 C154 1.381 . S
C155 C157 1.381 . S
C155 C158 1.487 . S
C156 C153 1.382 . S
C156 C157 1.387 . S
C156 H173 0.930 . S
C157 C155 1.381 . S
C157 C156 1.387 . S
C157 H174 0.931 . S
C158 C151 1.399 . S
C158 C155 1.487 . S
C158 N175 1.343 . S
H159 C131 0.931 . S
H160 C133 0.930 . S
H161 C135 0.930 . S
H162 C136 0.931 . S
H163 C138 0.931 . S
H164 C140 0.930 . S
H165 C142 0.930 . S
H166 C143 0.931 . S
H167 C145 0.931 . S
H168 C147 0.930 . S
H169 C149 0.930 . S
H170 C150 0.931 . S
H171 C152 0.931 . S
H172 C154 0.930 . S
H173 C156 0.930 . S
H174 C157 0.931 . S
N175 C137 1.343 . S
N175 C158 1.343 . S
N176 C144 1.343 . S
N176 C151 1.343 . S
C177 C178 1.387 . S
C177 H181 0.950 . S
C177 C186 1.390 . S
C178 C177 1.387 . S
C178 C180 1.387 1_655 S
H179 C186 0.950 . S
C180 C178 1.387 1_455 S
C180 C182 1.390 . S
C180 H184 0.950 . S
H181 C177 0.950 . S
C182 C180 1.390 . S
C182 C183 1.387 . S
C182 H185 0.950 . S
C183 C182 1.387 . S
C183 C186 1.387 1_455 S
H184 C180 0.950 . S
H185 C182 0.950 . S
C186 C177 1.390 . S
C186 H179 0.950 . S
C186 C183 1.387 1_655 S
C187 C188 1.387 1_565 S
C187 H191 0.950 . S
C187 C196 1.390 . S
C188 C187 1.387 1_545 S
C188 C190 1.387 . S
H189 C196 0.950 . S
C190 C188 1.387 . S
C190 C192 1.390 . S
C190 H194 0.950 . S
H191 C187 0.950 . S
C192 C190 1.390 . S
C192 C193 1.387 . S
C192 H195 0.950 . S
C193 C192 1.387 . S
C193 C196 1.387 1_545 S
H194 C190 0.950 . S
H195 C192 0.950 . S
C196 C187 1.390 . S
C196 H189 0.950 . S
C196 C193 1.387 1_565 S
C197 C198 1.387 . S
C197 H201 0.950 . S
C197 C206 1.390 . S
C198 C197 1.387 . S
C198 C200 1.387 . S
H199 C206 0.950 . S
C200 C198 1.387 . S
C200 C202 1.390 . S
C200 H204 0.950 . S
H201 C197 0.950 . S
C202 C200 1.390 . S
C202 C203 1.387 . S
C202 H205 0.950 . S
C203 C202 1.387 . S
C203 C206 1.387 . S
H204 C200 0.950 . S
H205 C202 0.950 . S
C206 C197 1.390 . S
C206 H199 0.950 . S
C206 C203 1.387 . S
C207 C208 1.387 1_655 S
C207 H211 0.950 . S
C207 C216 1.390 . S
C208 C207 1.387 1_455 S
C208 C210 1.387 . S
H209 C216 0.950 . S
C210 C208 1.387 . S
C210 C212 1.390 . S
C210 H214 0.950 . S
H211 C207 0.950 . S
C212 C210 1.390 . S
C212 C213 1.387 . S
C212 H215 0.950 . S
C213 C212 1.387 . S
C213 C216 1.387 1_455 S
H214 C210 0.950 . S
H215 C212 0.950 . S
C216 C207 1.390 . S
C216 H209 0.950 . S
C216 C213 1.387 1_655 S
C217 C218 1.387 . S
C217 H221 0.950 . S
C217 C226 1.390 . S
C218 C217 1.387 . S
C218 C220 1.387 . S
H219 C226 0.950 . S
C220 C218 1.387 . S
C220 C222 1.390 1_545 S
C220 H224 0.950 1_545 S
H221 C217 0.950 . S
C222 C220 1.390 1_565 S
C222 C223 1.387 1_565 S
C222 H225 0.950 . S
C223 C222 1.387 1_545 S
C223 C226 1.387 . S
H224 C220 0.950 1_565 S
H225 C222 0.950 . S
C226 C217 1.390 . S
C226 H219 0.950 . S
C226 C223 1.387 . S
C227 C228 1.387 . S
C227 H231 0.950 . S
C227 C236 1.390 . S
C228 C227 1.387 . S
C228 C230 1.387 . S
H229 C236 0.950 . S
C230 C228 1.387 . S
C230 C232 1.390 . S
C230 H234 0.950 . S
H231 C227 0.950 . S
C232 C230 1.390 . S
C232 C233 1.387 . S
C232 H235 0.950 . S
C233 C232 1.387 . S
C233 C236 1.387 . S
H234 C230 0.950 . S
H235 C232 0.950 . S
C236 C227 1.390 . S
C236 H229 0.950 . S
C236 C233 1.387 . S
C237 C238 1.387 . S
C237 H241 0.950 . S
C237 C246 1.390 . S
C238 C237 1.387 . S
C238 C240 1.387 . S
H239 C246 0.950 . S
C240 C238 1.387 . S
C240 C242 1.390 1_545 S
C240 H244 0.950 1_545 S
H241 C237 0.950 . S
C242 C240 1.390 1_565 S
C242 C243 1.387 1_565 S
C242 H245 0.950 . S
C243 C242 1.387 1_545 S
C243 C246 1.387 . S
H244 C240 0.950 1_565 S
H245 C242 0.950 . S
C246 C237 1.390 . S
C246 H239 0.950 . S
C246 C243 1.387 . S
C247 C248 1.387 . S
C247 H251 0.950 . S
C247 C256 1.390 . S
C248 C247 1.387 . S
C248 C250 1.387 . S
H249 C256 0.950 . S
C250 C248 1.387 . S
C250 C252 1.390 . S
C250 H254 0.950 1_556 S
H251 C247 0.950 . S
C252 C250 1.390 . S
C252 C253 1.387 . S
C252 H255 0.950 . S
C253 C252 1.387 . S
C253 C256 1.387 . S
H254 C250 0.950 1_554 S
H255 C252 0.950 . S
C256 C247 1.390 . S
C256 H249 0.950 . S
C256 C253 1.387 . S
C257 C258 1.387 1_655 S
C257 H261 0.950 . S
C257 C266 1.390 . S
C258 C257 1.387 1_455 S
C258 C260 1.387 . S
H259 C266 0.950 . S
C260 C258 1.387 . S
C260 C262 1.390 . S
C260 H264 0.950 . S
H261 C257 0.950 . S
C262 C260 1.390 . S
C262 C263 1.387 . S
C262 H265 0.950 . S
C263 C262 1.387 . S
C263 C266 1.387 1_455 S
H264 C260 0.950 . S
H265 C262 0.950 . S
C266 C257 1.390 . S
C266 H259 0.950 . S
C266 C263 1.387 1_655 S
C267 C268 1.376 1_565 S
C267 H271 0.950 . S
C267 C276 1.390 . S
C268 C267 1.376 1_545 S
C268 C270 1.395 . S
H269 C276 0.950 . S
C270 C268 1.395 . S
C270 C272 1.390 . S
C270 H274 0.950 . S
H271 C267 0.950 . S
C272 C270 1.390 . S
C272 C273 1.387 . S
C272 H275 0.950 . S
C273 C272 1.387 . S
C273 C276 1.387 1_545 S
H274 C270 0.950 . S
H275 C272 0.950 . S
C276 C267 1.390 . S
C276 H269 0.950 . S
C276 C273 1.387 1_565 S
C277 C278 1.387 . S
C277 H281 0.950 . S
C277 C286 1.390 . S
C278 C277 1.387 . S
C278 C280 1.387 . S
H279 C286 0.950 . S
C280 C278 1.387 . S
C280 C282 1.390 . S
C280 H284 0.950 1_556 S
H281 C277 0.950 . S
C282 C280 1.390 . S
C282 C283 1.387 . S
C282 H285 0.950 . S
C283 C282 1.387 . S
C283 C286 1.387 . S
H284 C280 0.950 1_554 S
H285 C282 0.950 . S
C286 C277 1.390 . S
C286 H279 0.950 . S
C286 C283 1.387 . S
C287 C288 1.387 . S
C287 H291 0.950 . S
C287 C296 1.390 . S
C288 C287 1.387 . S
C288 C290 1.387 . S
H289 C296 0.950 . S
C290 C288 1.387 . S
C290 C292 1.390 1_455 S
C290 H294 0.950 1_455 S
H291 C287 0.950 . S
C292 C290 1.390 1_655 S
C292 C293 1.387 1_655 S
C292 H295 0.950 . S
C293 C292 1.387 1_455 S
C293 C296 1.387 . S
H294 C290 0.950 1_655 S
H295 C292 0.950 . S
C296 C287 1.390 . S
C296 H289 0.950 . S
C296 C293 1.387 . S
C183 C47 1.432 . S
C178 C10 1.433 . S
C188 C21 1.450 . S
C193 C86 1.483 . S
C198 C31 1.395 . S
C203 C153 1.492 . S
C208 C0 1.405 . S
C213 C54 1.465 . S
C223 C107 1.480 . S
C218 C18 1.393 . S
C228 C34 1.415 . S
C233 C132 1.445 . S
C243 C93 1.429 . S
C238 C36 1.435 . S
C248 C8 1.416 1_556 S
C253 C146 1.446 . S
C263 C61 1.437 . S
C258 C23 1.436 . S
C273 C100 1.407 . S
C268 C26 1.363 . S
C283 C139 1.485 . S
C278 C5 1.400 1_556 S
C288 C13 1.410 . S
C293 C40 1.462 . S
