# Generated by pormake.
# Topology rtl, (3,6)-cn, num edge types: 1
# Building blocks:
#     Node 0, Type 0, BuildingBlock: MIDCAF_clean_linker_0, # of connection points: 3
#     Node 1, Type 0, BuildingBlock: MIDCAF_clean_linker_0, # of connection points: 3
#     Node 2, Type 0, BuildingBlock: MIDCAF_clean_linker_0, # of connection points: 3
#     Node 3, Type 0, BuildingBlock: MIDCAF_clean_linker_0, # of connection points: 3
#     Node 4, Type 1, BuildingBlock: KUMBOL_clean_sbu_1, # of connection points: 6
#     Node 5, Type 1, BuildingBlock: KUMBOL_clean_sbu_1, # of connection points: 6
#     Edge 6, Type (0, 1), BuildingBlock: OJICUG_clean_linker_0, # of connection points: 2
#     Edge 7, Type (0, 1), BuildingBlock: OJICUG_clean_linker_0, # of connection points: 2
#     Edge 8, Type (0, 1), BuildingBlock: OJICUG_clean_linker_0, # of connection points: 2
#     Edge 9, Type (0, 1), BuildingBlock: OJICUG_clean_linker_0, # of connection points: 2
#     Edge 10, Type (0, 1), BuildingBlock: OJICUG_clean_linker_0, # of connection points: 2
#     Edge 11, Type (0, 1), BuildingBlock: OJICUG_clean_linker_0, # of connection points: 2
#     Edge 12, Type (0, 1), BuildingBlock: OJICUG_clean_linker_0, # of connection points: 2
#     Edge 13, Type (0, 1), BuildingBlock: OJICUG_clean_linker_0, # of connection points: 2
#     Edge 14, Type (0, 1), BuildingBlock: OJICUG_clean_linker_0, # of connection points: 2
#     Edge 15, Type (0, 1), BuildingBlock: OJICUG_clean_linker_0, # of connection points: 2
#     Edge 16, Type (0, 1), BuildingBlock: OJICUG_clean_linker_0, # of connection points: 2
#     Edge 17, Type (0, 1), BuildingBlock: OJICUG_clean_linker_0, # of connection points: 2
# Relax obj value: 0.018
# Max RMSD: 0.113
# Mean RMSD: 0.067
data_MOF--net-rtl--node1-KUMBOL_clean_sbu_1--node2-MIDCAF_clean_linker_0--edge1-OJICUG_clean_linker_0
_symmetry_space_group_name_H-M    P1
_symmetry_Int_Tables_number       1
_symmetry_cell_setting            triclinic
loop_
_symmetry_equiv_pos_as_xyz
'x, y, z'
_cell_length_a     30.928484
_cell_length_b     31.750535
_cell_length_c     28.280029
_cell_angle_alpha  76.833863
_cell_angle_beta   99.478318
_cell_angle_gamma 90.929726
loop_
_atom_site_label
_atom_site_type_symbol
_atom_site_fract_x
_atom_site_fract_y
_atom_site_fract_z
_atom_type_partial_charge
C0 C 0.14667 0.91656 0.13012 0.0
C1 C 0.16557 0.8997 0.17945 0.0
C2 C 0.20227 0.87147 0.1894 0.0
C3 C 0.21878 0.85954 0.15095 0.0
H4 H 0.3165 0.78017 0.11237 0.0
H5 H 0.37039 0.72176 0.12147 0.0
H6 H 0.31261 0.70205 0.9785 0.0
H7 H 0.26026 0.76033 0.96889 0.0
H8 H 0.20312 0.83069 0.89436 0.0
H9 H 0.16462 0.85987 0.81109 0.0
H10 H 0.12065 0.97035 0.85684 0.0
H11 H 0.15903 0.94126 0.94051 0.0
H12 H 0.14706 0.91817 0.05455 0.0
H13 H 0.11785 0.9376 0.12082 0.0
H14 H 0.21804 0.8583 0.22691 0.0
H15 H 0.24657 0.83717 0.15989 0.0
N16 N 0.24322 0.82761 0.06941 0.0
N17 N 0.23464 0.83116 0.98455 0.0
N18 N 0.19535 0.87941 0.01347 0.0
C19 C 0.25372 0.81252 0.03128 0.0
C20 C 0.20568 0.86472 0.97526 0.0
C21 C 0.21378 0.8611 0.06063 0.0
C22 C 0.28458 0.77539 0.03958 0.0
C23 C 0.31535 0.76314 0.08308 0.0
C24 C 0.34609 0.72966 0.08834 0.0
C25 C 0.34632 0.70784 0.05028 0.0
C26 C 0.31426 0.71903 0.00789 0.0
C27 C 0.28404 0.75245 1.00249 0.0
C28 C 0.18402 0.88355 0.92422 0.0
C29 C 0.18551 0.86133 0.88677 0.0
C30 C 0.16331 0.87786 0.83912 0.0
C31 C 0.1396 0.91719 0.82777 0.0
C32 C 0.13892 0.94003 0.86471 0.0
C33 C 0.16069 0.92323 0.9126 0.0
C34 C 0.1991 0.87579 0.10173 0.0
C35 C 0.16333 0.90502 0.09188 0.0
C36 C 0.61843 0.60225 0.50948 0.0
C37 C 0.62917 0.62154 0.46305 0.0
C38 C 0.64846 0.66243 0.45652 0.0
C39 C 0.65849 0.68263 0.49592 0.0
H40 H 0.7177 0.78881 0.53627 0.0
H41 H 0.77321 0.843 0.52314 0.0
H42 H 0.82558 0.81044 0.67866 0.0
H43 H 0.76858 0.75655 0.69212 0.0
H44 H 0.698 0.69327 0.76284 0.0
H45 H 0.67055 0.6618 0.83962 0.0
H46 H 0.56965 0.5975 0.75938 0.0
H47 H 0.5965 0.62853 0.68339 0.0
H48 H 0.62056 0.60613 0.58434 0.0
H49 H 0.60407 0.57055 0.51613 0.0
H50 H 0.65643 0.67863 0.42107 0.0
H51 H 0.67419 0.7137 0.4897 0.0
N52 N 0.69172 0.71542 0.58186 0.0
N53 N 0.69428 0.7152 0.66543 0.0
N54 N 0.65058 0.66573 0.6295 0.0
C55 C 0.70727 0.73221 0.62128 0.0
C56 C 0.66542 0.68206 0.66955 0.0
C57 C 0.6636 0.68213 0.58558 0.0
C58 C 0.73894 0.76792 0.61523 0.0
C59 C 0.74086 0.79323 0.56786 0.0
C60 C 0.77298 0.82423 0.56023 0.0
C61 C 0.80456 0.83062 0.59962 0.0
C62 C 0.80172 0.8065 0.64744 0.0
C63 C 0.76911 0.77556 0.6552 0.0
C64 C 0.64952 0.66358 0.71675 0.0
C65 C 0.66992 0.67248 0.76162 0.0
C66 C 0.65439 0.65428 0.80563 0.0
C67 C 0.61778 0.62736 0.8055 0.0
C68 C 0.59754 0.61853 0.76069 0.0
C69 C 0.61323 0.63622 0.71705 0.0
C70 C 0.64923 0.66257 0.54279 0.0
C71 C 0.62818 0.62258 0.54881 0.0
C72 C 0.86708 0.09287 0.9581 0.0
C73 C 0.84817 0.10979 0.90879 0.0
C74 C 0.81152 0.13807 0.89889 0.0
C75 C 0.79507 0.15001 0.93739 0.0
H76 H 0.69808 0.22994 0.97571 0.0
H77 H 0.64408 0.28824 0.96675 0.0
H78 H 0.70038 0.30631 0.11086 0.0
H79 H 0.7529 0.24822 0.12029 0.0
H80 H 0.81091 0.17852 0.19409 0.0
H81 H 0.84934 0.1492 0.27735 0.0
H82 H 0.89295 0.03863 0.23149 0.0
H83 H 0.85465 0.06787 0.14781 0.0
H84 H 0.86676 0.0912 0.03369 0.0
H85 H 0.89587 0.07178 0.96735 0.0
H86 H 0.79574 0.15129 0.8614 0.0
H87 H 0.76732 0.17241 0.92849 0.0
N88 N 0.77071 0.18184 0.01903 0.0
N89 N 0.77927 0.1781 0.10392 0.0
N90 N 0.81854 0.12993 0.07488 0.0
C91 C 0.76021 0.19685 0.05722 0.0
C92 C 0.80822 0.14455 0.11314 0.0
C93 C 0.80012 0.14833 0.02774 0.0
C94 C 0.72931 0.23393 0.04903 0.0
C95 C 0.6989 0.24659 0.00528 0.0
C96 C 0.6681 0.28 1.0001 0.0
C97 C 0.66742 0.3013 0.0385 0.0
C98 C 0.69911 0.28972 0.08117 0.0
C99 C 0.72942 0.25641 0.08647 0.0
C100 C 0.82985 0.12563 0.16417 0.0
C101 C 0.82843 0.14783 0.20165 0.0
C102 C 0.85059 0.13122 0.24929 0.0
C103 C 0.87418 0.09183 0.26061 0.0
C104 C 0.87478 0.069 0.22364 0.0
C105 C 0.85306 0.08588 0.17575 0.0
C106 C 0.81476 0.13369 0.98659 0.0
C107 C 0.85049 0.10441 0.99638 0.0
C108 C 0.39905 0.40051 0.58808 0.0
C109 C 0.38078 0.38468 0.63089 0.0
C110 C 0.35625 0.34684 0.63442 0.0
C111 C 0.34828 0.32642 0.59514 0.0
H112 H 0.297 0.21757 0.5544 0.0
H113 H 0.24094 0.16386 0.56652 0.0
H114 H 0.18912 0.19829 0.41093 0.0
H115 H 0.24663 0.25186 0.39848 0.0
H116 H 0.31732 0.3161 0.32977 0.0
H117 H 0.34437 0.34849 0.25313 0.0
H118 H 0.446 0.41139 0.33415 0.0
H119 H 0.41941 0.37937 0.41024 0.0
H120 H 0.40406 0.39414 0.51534 0.0
H121 H 0.41791 0.42979 0.58424 0.0
H122 H 0.34227 0.33357 0.66724 0.0
H123 H 0.32824 0.29795 0.59894 0.0
N124 N 0.32295 0.29136 0.51019 0.0
N125 N 0.32126 0.29272 0.42659 0.0
N126 N 0.36478 0.34153 0.46404 0.0
C127 C 0.30784 0.27513 0.4703 0.0
C128 C 0.35023 0.3258 0.4234 0.0
C129 C 0.35118 0.32454 0.50756 0.0
C130 C 0.27604 0.23947 0.47549 0.0
C131 C 0.27387 0.21368 0.52256 0.0
C132 C 0.24144 0.18295 0.52962 0.0
C133 C 0.20982 0.17727 0.48993 0.0
C134 C 0.21298 0.20175 0.44236 0.0
C135 C 0.24589 0.23248 0.43518 0.0
C136 C 0.36614 0.34499 0.37636 0.0
C137 C 0.34547 0.33678 0.33124 0.0
C138 C 0.36078 0.35554 0.28727 0.0
C139 C 0.39743 0.38238 0.2876 0.0
C140 C 0.41801 0.39049 0.33267 0.0
C141 C 0.40251 0.37224 0.37635 0.0
C142 C 0.36442 0.3435 0.5511 0.0
C143 C 0.39086 0.38019 0.5485 0.0
C144 C 0.93165 0.13017 0.47637 0.0
C145 C 0.8598 0.10827 0.44262 0.0
C146 C 0.89911 0.09941 0.4768 0.0
C147 C 0.8542 0.14778 0.40748 0.0
C148 C 0.92599 0.17002 0.44142 0.0
C149 C 0.88717 0.17857 0.40691 0.0
N150 N 0.96956 0.12043 0.50903 0.0
C151 C 0.00241 0.14952 0.50999 0.0
C152 C 0.95984 0.19983 0.44173 0.0
C153 C 0.99813 0.1896 0.47634 0.0
Gd154 Gd 0.03857 0.95686 0.52586 0.0
Gd155 Gd 0.97482 0.05186 0.56252 0.0
N156 N 0.90601 0.06084 0.51037 0.0
C157 C 0.82708 0.07731 0.44505 0.0
C158 C 0.87275 0.0322 0.51523 0.0
C159 C 0.8333 0.03947 0.48208 0.0
H160 H 0.87555 0.00436 0.54537 0.0
H161 H 0.80742 0.01617 0.48565 0.0
H162 H 0.13784 0.00413 0.54417 0.0
H163 H 0.03171 0.14199 0.53714 0.0
H164 H 0.20577 0.9918 0.60418 0.0
H165 H 0.79643 0.08288 0.41947 0.0
H166 H 0.82436 0.15492 0.38072 0.0
H167 H 0.98138 0.8668 0.55014 0.0
H168 H 0.95674 0.2308 0.41548 0.0
H169 H 0.02435 0.21255 0.47712 0.0
H170 H 0.18822 0.85252 0.70772 0.0
H171 H 0.88235 0.20888 0.37956 0.0
H172 H 0.05571 0.77726 0.6716 0.0
H173 H 0.98834 0.79599 0.60969 0.0
N174 N 0.04348 0.88806 0.57883 0.0
C175 C 0.08126 0.87805 0.61164 0.0
C176 C 0.01055 0.85908 0.57745 0.0
C177 C 0.05277 0.80835 0.64557 0.0
C178 C 0.01462 0.81885 0.61081 0.0
C179 C 0.08671 0.83804 0.64632 0.0
H180 H 0.13007 0.79876 0.70811 0.0
N181 N 0.10721 0.94742 0.57833 0.0
C182 C 0.11391 0.90868 0.61163 0.0
C183 C 0.18589 0.93044 0.64404 0.0
C184 C 0.1531 0.89955 0.64597 0.0
C185 C 0.14051 0.97606 0.57401 0.0
C186 C 0.17985 0.96851 0.60733 0.0
O187 O 0.98179 0.05761 0.48299 0.0
O188 O 0.97808 0.98766 0.47439 0.0
O189 O 0.07989 0.96036 0.47001 0.0
O190 O 0.03859 0.90537 0.48681 0.0
O191 O 0.95062 0.98295 0.58332 0.0
O192 O 0.96564 0.94909 0.52327 0.0
O193 O 0.03183 0.95113 0.60545 0.0
O194 O 0.03528 0.0211 0.61409 0.0
O195 O 0.93354 0.04873 0.61834 0.0
O196 O 0.97499 0.10356 0.60131 0.0
O197 O 0.06298 0.02572 0.50525 0.0
O198 O 0.04774 0.05975 0.56509 0.0
C199 C 0.97067 0.0292 0.45638 0.0
C200 C 0.94368 0.95214 0.5586 0.0
C201 C 0.04893 0.92986 0.40447 0.0
C202 C 0.06473 0.93164 0.32248 0.0
C203 C 0.99133 0.94914 0.33328 0.0
C204 C 0.00513 0.94167 0.38404 0.0
C205 C 0.021 0.94447 0.30254 0.0
C206 C 0.07858 0.92433 0.37364 0.0
C207 C 0.0643 0.92544 0.45741 0.0
C208 C 0.15849 0.85988 0.68083 0.0
C209 C 0.12542 0.8292 0.68098 0.0
H210 H 0.21644 0.92467 0.66977 0.0
C211 C 0.04286 0.97957 0.63205 0.0
C212 C 0.06983 0.05659 0.52989 0.0
C213 C 0.96463 0.07938 0.6837 0.0
C214 C 0.94884 0.07774 0.76566 0.0
C215 C 0.02224 0.06021 0.75488 0.0
C216 C 0.00843 0.0676 0.70414 0.0
C217 C 0.99258 0.06494 0.78561 0.0
C218 C 0.93499 0.08497 0.71451 0.0
C219 C 0.94924 0.08367 0.63078 0.0
H220 H 0.95756 0.95853 0.31775 0.0
H221 H 0.9817 0.94517 0.40735 0.0
H222 H 0.00962 0.95009 0.26324 0.0
H223 H 0.11243 0.91512 0.38926 0.0
H224 H 0.05601 0.05083 0.77042 0.0
H225 H 0.03185 0.06404 0.68084 0.0
H226 H 0.00396 0.05937 0.82491 0.0
H227 H 0.90112 0.09416 0.69889 0.0
C228 C 0.64729 0.54972 0.07269 0.0
C229 C 0.64175 0.62807 0.05544 0.0
C230 C 0.62283 0.5872 0.06862 0.0
C231 C 0.68485 0.63071 0.04544 0.0
C232 C 0.69053 0.55227 0.06262 0.0
C233 C 0.70914 0.59295 0.04898 0.0
N234 N 0.62807 0.51076 0.08451 0.0
C235 C 0.65035 0.47317 0.08811 0.0
C236 C 0.71354 0.51382 0.06578 0.0
C237 C 0.69336 0.4741 0.07867 0.0
Gd238 Gd 0.4564 0.49489 0.99142 0.0
Gd239 Gd 0.55617 0.51228 0.0997 0.0
N240 N 0.58075 0.5837 0.0776 0.0
C241 C 0.61699 0.66513 0.05324 0.0
C242 C 0.5577 0.61972 0.07863 0.0
C243 C 0.57504 0.66087 0.06555 0.0
H244 H 0.52656 0.61734 0.09101 0.0
H245 H 0.55628 0.68929 0.06579 0.0
H246 H 0.48784 0.39095 0.99643 0.0
H247 H 0.63508 0.44247 0.09893 0.0
H248 H 0.46051 0.31802 0.02197 0.0
H249 H 0.63037 0.69709 0.04334 0.0
H250 H 0.69977 0.66186 0.03509 0.0
H251 H 0.37661 0.56204 0.99655 0.0
H252 H 0.74681 0.51445 0.05826 0.0
H253 H 0.71095 0.44421 0.08144 0.0
H254 H 0.3183 0.34058 0.05917 0.0
H255 H 0.74229 0.59557 0.04098 0.0
H256 H 0.26779 0.48635 0.03969 0.0
H257 H 0.30145 0.55775 0.0164 0.0
N258 N 0.38534 0.49398 0.00966 0.0
C259 C 0.3673 0.4544 0.02145 0.0
C260 C 0.36226 0.53083 0.00731 0.0
C261 C 0.30073 0.48809 0.03108 0.0
C262 C 0.31967 0.52846 0.01814 0.0
C263 C 0.32453 0.45042 0.03293 0.0
H264 H 0.27444 0.40542 0.05572 0.0
N265 N 0.43411 0.42261 0.01357 0.0
C266 C 0.39257 0.41774 0.02417 0.0
C267 C 0.40021 0.34006 0.03785 0.0
C268 C 0.37486 0.37627 0.03732 0.0
C269 C 0.4575 0.38745 0.01057 0.0
C270 C 0.44142 0.34574 0.0237 0.0
O271 O 0.57106 0.52766 0.02137 0.0
O272 O 0.50311 0.55014 0.97883 0.0
O273 O 0.45321 0.47753 0.91987 0.0
O274 O 0.41124 0.52921 0.92836 0.0
O275 O 0.4921 0.54933 0.09225 0.0
O276 O 0.46563 0.56044 0.0091 0.0
O277 O 0.44176 0.48087 0.06989 0.0
O278 O 0.50951 0.45706 0.11072 0.0
O279 O 0.55653 0.53014 0.17051 0.0
O280 O 0.59958 0.47819 0.16445 0.0
O281 O 0.52093 0.45902 0.99767 0.0
O282 O 0.54687 0.44712 0.0809 0.0
C283 C 0.54549 0.54653 0.98039 0.0
C284 C 0.46548 0.56925 0.05233 0.0
C285 C 0.40307 0.51609 0.8465 0.0
C286 C 0.3854 0.49461 0.76812 0.0
C287 C 0.35841 0.56349 0.77634 0.0
C288 C 0.37897 0.55489 0.82536 0.0
C289 C 0.36127 0.53341 0.74794 0.0
C290 C 0.4068 0.48617 0.81737 0.0
C291 C 0.42295 0.50709 0.89905 0.0
C292 C 0.33227 0.3722 0.04881 0.0
C293 C 0.3072 0.40914 0.04664 0.0
H294 H 0.38777 0.30768 0.04769 0.0
C295 C 0.46752 0.46164 0.11051 0.0
C296 C 0.54768 0.43905 0.03744 0.0
C297 C 0.60393 0.49131 0.24587 0.0
C298 C 0.61791 0.51275 0.32433 0.0
C299 C 0.63909 0.44075 0.31982 0.0
C300 C 0.62297 0.45043 0.26943 0.0
C301 C 0.6366 0.47174 0.34722 0.0
C302 C 0.60142 0.52254 0.2736 0.0
C303 C 0.58623 0.5004 0.19278 0.0
H304 H 0.33983 0.59339 0.76047 0.0
H305 H 0.37583 0.57863 0.84677 0.0
H306 H 0.34458 0.54038 0.7101 0.0
H307 H 0.42496 0.45597 0.83322 0.0
H308 H 0.6536 0.40916 0.33768 0.0
H309 H 0.62504 0.42573 0.24898 0.0
H310 H 0.64952 0.46384 0.38628 0.0
H311 H 0.58702 0.55427 0.25592 0.0
C312 C 0.1577 0.12047 0.46641 0.0
C313 C 0.17318 0.14689 0.49904 0.0
H314 H 0.11305 0.07125 0.45049 0.0
C315 C 0.15371 0.14376 0.54131 0.0
H316 H 0.17212 0.12173 0.43374 0.0
C317 C 0.12032 0.11456 0.5512 0.0
C318 C 0.10503 0.08794 0.51884 0.0
H319 H 0.16413 0.16411 0.56686 0.0
H320 H 0.10663 0.11277 0.58447 0.0
C321 C 0.12404 0.09129 0.47623 0.0
C322 C 0.39338 0.64248 0.09678 0.0
C323 C 0.38016 0.67424 0.05326 0.0
H324 H 0.43112 0.58397 0.1307 0.0
C325 C 0.39811 0.67277 0.01111 0.0
H326 H 0.38008 0.6427 0.12982 0.0
C327 C 0.42661 0.6392 0.01148 0.0
C328 C 0.4384 0.60647 0.05421 0.0
H329 H 0.38964 0.69737 0.97738 0.0
H330 H 0.43902 0.63864 0.97796 0.0
C331 C 0.42245 0.60887 0.09727 0.0
C332 C 0.86002 0.8647 0.54757 0.0
C333 C 0.84082 0.86138 0.59005 0.0
H334 H 0.90668 0.89602 0.50401 0.0
C335 C 0.8563 0.88791 0.62258 0.0
H336 H 0.84962 0.8443 0.52207 0.0
C337 C 0.88978 0.91724 0.61254 0.0
C338 C 0.90857 0.92071 0.56977 0.0
H339 H 0.84207 0.88656 0.65539 0.0
H340 H 0.90081 0.93729 0.63826 0.0
C341 C 0.8932 0.89411 0.53743 0.0
C342 C 0.61476 0.33536 0.07754 0.0
C343 C 0.63343 0.33472 0.03563 0.0
H344 H 0.57311 0.36863 0.11075 0.0
C345 C 0.62082 0.36712 0.99255 0.0
H346 H 0.6228 0.31026 0.1109 0.0
C347 C 0.59164 0.40055 0.9923 0.0
C348 C 0.57497 0.40211 0.0352 0.0
H349 H 0.63469 0.36751 0.95971 0.0
H350 H 0.58343 0.42597 0.95927 0.0
C351 C 0.58612 0.36872 0.07741 0.0
C352 C 0.1251 0.95057 0.2141 0.0
C353 C 0.14502 0.90975 0.21981 0.0
H354 H 0.08387 0.98929 0.24211 0.0
C355 C 0.14178 0.8776 0.26248 0.0
H356 H 0.12784 0.9765 0.18247 0.0
C357 C 0.11739 0.88544 0.2972 0.0
C358 C 0.09533 0.9253 0.28958 0.0
H359 H 0.15625 0.84567 0.26798 0.0
H360 H 0.11395 0.85963 0.32874 0.0
C361 C 0.10013 0.95808 0.24833 0.0
C362 C 0.55457 0.60894 0.8512 0.0
C363 C 0.60004 0.60853 0.85146 0.0
H364 H 0.50193 0.59005 0.89125 0.0
C365 C 0.62784 0.58843 0.89508 0.0
H366 H 0.53229 0.62451 0.81834 0.0
C367 C 0.61036 0.56825 0.9371 0.0
C368 C 0.56478 0.56839 0.93662 0.0
H369 H 0.66299 0.58719 0.89628 0.0
H370 H 0.63254 0.55205 0.9696 0.0
C371 C 0.53719 0.58925 0.89317 0.0
C372 C 0.89524 0.03228 0.33581 0.0
C373 C 0.89914 0.07534 0.31058 0.0
H374 H 0.91398 0.98416 0.40254 0.0
C375 C 0.92716 0.10279 0.33328 0.0
H376 H 0.87351 0.01063 0.31919 0.0
C377 C 0.95104 0.08743 0.38029 0.0
C378 C 0.94678 0.04454 0.40585 0.0
H379 H 0.93104 0.13603 0.31439 0.0
H380 H 0.97289 0.10916 0.3966 0.0
C381 C 0.91859 0.01711 0.38327 0.0
C382 C 0.4234 0.42716 0.68762 0.0
C383 C 0.38363 0.40962 0.66974 0.0
H384 H 0.45533 0.46731 0.73422 0.0
C385 C 0.34542 0.41795 0.6873 0.0
H386 H 0.45333 0.42113 0.67481 0.0
C387 C 0.34656 0.44442 0.72063 0.0
C388 C 0.38601 0.46262 0.73767 0.0
H389 H 0.31421 0.40535 0.6738 0.0
H390 H 0.31637 0.45153 0.73232 0.0
C391 C 0.42464 0.45321 0.72174 0.0
C392 C 0.65551 0.59887 0.39289 0.0
C393 C 0.62312 0.5977 0.42282 0.0
H394 H 0.67872 0.57289 0.33768 0.0
C395 C 0.58671 0.57118 0.41622 0.0
H396 H 0.68432 0.61832 0.39738 0.0
C397 C 0.58388 0.54496 0.38227 0.0
C398 C 0.6171 0.54519 0.35398 0.0
H399 H 0.56087 0.56994 0.43807 0.0
H400 H 0.55649 0.52349 0.37917 0.0
C401 C 0.65248 0.57284 0.3588 0.0
C402 C 0.8719 0.13186 0.82572 0.0
C403 C 0.86864 0.09971 0.86838 0.0
H404 H 0.89972 0.14981 0.75944 0.0
C405 C 0.88848 0.05887 0.87405 0.0
H406 H 0.85749 0.16381 0.82025 0.0
C407 C 0.91341 0.05133 0.8398 0.0
C408 C 0.91825 0.08411 0.79856 0.0
H409 H 0.88572 0.03293 0.90567 0.0
H410 H 0.92963 0.02009 0.84598 0.0
C411 C 0.89625 0.124 0.79097 0.0
C412 C 0.38657 0.42172 0.19812 0.0
C413 C 0.41478 0.4017 0.24148 0.0
H414 H 0.38101 0.4575 0.12328 0.0
C415 C 0.46015 0.40128 0.24104 0.0
H416 H 0.3515 0.42304 0.19745 0.0
C417 C 0.47697 0.42049 0.19849 0.0
C418 C 0.44892 0.44093 0.1552 0.0
H419 H 0.48275 0.38582 0.27368 0.0
H420 H 0.51215 0.4195 0.19976 0.0
C421 C 0.4035 0.44148 0.15559 0.0
C422 C 0.08673 0.90603 0.75508 0.0
C423 C 0.1146 0.93359 0.77779 0.0
H424 H 0.04107 0.89951 0.69178 0.0
C425 C 0.11828 0.9767 0.75259 0.0
H426 H 0.08302 0.87276 0.77396 0.0
C427 C 0.09488 0.99181 0.70514 0.0
C428 C 0.06683 0.96427 0.68256 0.0
H429 H 0.13989 0.99844 0.76921 0.0
H430 H 0.09933 0.0248 0.68589 0.0
C431 C 0.0628 0.92134 0.70809 0.0
loop_
_geom_bond_atom_site_label_1
_geom_bond_atom_site_label_2
_geom_bond_distance
_geom_bond_site_symmetry_2
_ccdc_geom_bond_type
C0 C1 1.384 . S
C0 H13 0.947 . S
C0 C35 1.382 . S
C1 C0 1.384 . S
C1 C2 1.378 . S
C2 C1 1.378 . S
C2 C3 1.378 . S
C2 H14 0.952 . S
C3 C2 1.378 . S
C3 H15 0.950 . S
C3 C34 1.383 . S
H4 C23 0.947 . S
H5 C24 0.946 . S
H6 C26 0.953 . S
H7 C27 0.945 . S
H8 C29 0.952 . S
H9 C30 0.949 . S
H10 C32 0.950 . S
H11 C33 0.948 . S
H12 C35 0.951 . S
H13 C0 0.947 . S
H14 C2 0.952 . S
H15 C3 0.950 . S
N16 C19 1.382 . S
N16 C21 1.363 . S
N17 C19 1.371 1_556 S
N17 C20 1.372 . S
N18 C20 1.361 1_554 S
N18 C21 1.377 . S
C19 N16 1.382 . S
C19 N17 1.371 1_554 S
C19 C22 1.480 . S
C20 N17 1.372 . S
C20 N18 1.361 1_556 S
C20 C28 1.457 . S
C21 N16 1.363 . S
C21 N18 1.377 . S
C21 C34 1.479 . S
C22 C19 1.480 . S
C22 C23 1.383 . S
C22 C27 1.385 1_554 S
C23 H4 0.947 . S
C23 C22 1.383 . S
C23 C24 1.388 . S
C24 H5 0.946 . S
C24 C23 1.388 . S
C24 C25 1.384 . S
C25 C24 1.384 . S
C25 C26 1.377 1_554 S
C26 H6 0.953 . S
C26 C25 1.377 1_556 S
C26 C27 1.369 . S
C27 H7 0.945 . S
C27 C22 1.385 1_556 S
C27 C26 1.369 . S
C28 C20 1.457 . S
C28 C29 1.372 . S
C28 C33 1.364 . S
C29 H8 0.952 . S
C29 C28 1.372 . S
C29 C30 1.389 . S
C30 H9 0.949 . S
C30 C29 1.389 . S
C30 C31 1.387 . S
C31 C30 1.387 . S
C31 C32 1.372 . S
C32 H10 0.950 . S
C32 C31 1.372 . S
C32 C33 1.379 . S
C33 H11 0.948 . S
C33 C28 1.364 . S
C33 C32 1.379 . S
C34 C3 1.383 . S
C34 C21 1.479 . S
C34 C35 1.398 . S
C35 C0 1.382 . S
C35 H12 0.951 . S
C35 C34 1.398 . S
C36 C37 1.384 . S
C36 H49 0.947 . S
C36 C71 1.382 . S
C37 C36 1.384 . S
C37 C38 1.378 . S
C38 C37 1.378 . S
C38 C39 1.378 . S
C38 H50 0.952 . S
C39 C38 1.378 . S
C39 H51 0.950 . S
C39 C70 1.383 . S
H40 C59 0.947 . S
H41 C60 0.946 . S
H42 C62 0.953 . S
H43 C63 0.945 . S
H44 C65 0.952 . S
H45 C66 0.949 . S
H46 C68 0.950 . S
H47 C69 0.948 . S
H48 C71 0.951 . S
H49 C36 0.947 . S
H50 C38 0.952 . S
H51 C39 0.950 . S
N52 C55 1.382 . S
N52 C57 1.363 . S
N53 C55 1.371 . S
N53 C56 1.372 . S
N54 C56 1.361 . S
N54 C57 1.377 . S
C55 N52 1.382 . S
C55 N53 1.371 . S
C55 C58 1.480 . S
C56 N53 1.372 . S
C56 N54 1.361 . S
C56 C64 1.457 . S
C57 N52 1.363 . S
C57 N54 1.377 . S
C57 C70 1.479 . S
C58 C55 1.480 . S
C58 C59 1.383 . S
C58 C63 1.385 . S
C59 H40 0.947 . S
C59 C58 1.383 . S
C59 C60 1.388 . S
C60 H41 0.946 . S
C60 C59 1.388 . S
C60 C61 1.384 . S
C61 C60 1.384 . S
C61 C62 1.377 . S
C62 H42 0.953 . S
C62 C61 1.377 . S
C62 C63 1.369 . S
C63 H43 0.945 . S
C63 C58 1.385 . S
C63 C62 1.369 . S
C64 C56 1.457 . S
C64 C65 1.372 . S
C64 C69 1.364 . S
C65 H44 0.952 . S
C65 C64 1.372 . S
C65 C66 1.389 . S
C66 H45 0.949 . S
C66 C65 1.389 . S
C66 C67 1.387 . S
C67 C66 1.387 . S
C67 C68 1.372 . S
C68 H46 0.950 . S
C68 C67 1.372 . S
C68 C69 1.379 . S
C69 H47 0.948 . S
C69 C64 1.364 . S
C69 C68 1.379 . S
C70 C39 1.383 . S
C70 C57 1.479 . S
C70 C71 1.398 . S
C71 C36 1.382 . S
C71 H48 0.951 . S
C71 C70 1.398 . S
C72 C73 1.384 . S
C72 H85 0.947 . S
C72 C107 1.382 . S
C73 C72 1.384 . S
C73 C74 1.378 . S
C74 C73 1.378 . S
C74 C75 1.378 . S
C74 H86 0.952 . S
C75 C74 1.378 . S
C75 H87 0.950 . S
C75 C106 1.383 . S
H76 C95 0.947 1_556 S
H77 C96 0.946 1_556 S
H78 C98 0.953 . S
H79 C99 0.945 . S
H80 C101 0.952 . S
H81 C102 0.949 . S
H82 C104 0.950 . S
H83 C105 0.948 . S
H84 C107 0.951 1_554 S
H85 C72 0.947 . S
H86 C74 0.952 . S
H87 C75 0.950 . S
N88 C91 1.382 . S
N88 C93 1.363 . S
N89 C91 1.371 . S
N89 C92 1.372 . S
N90 C92 1.361 . S
N90 C93 1.377 . S
C91 N88 1.382 . S
C91 N89 1.371 . S
C91 C94 1.480 . S
C92 N89 1.372 . S
C92 N90 1.361 . S
C92 C100 1.457 . S
C93 N88 1.363 . S
C93 N90 1.377 . S
C93 C106 1.479 1_554 S
C94 C91 1.480 . S
C94 C95 1.383 . S
C94 C99 1.385 . S
C95 H76 0.947 1_554 S
C95 C94 1.383 . S
C95 C96 1.388 . S
C96 H77 0.946 1_554 S
C96 C95 1.388 . S
C96 C97 1.384 . S
C97 C96 1.384 . S
C97 C98 1.377 . S
C98 H78 0.953 . S
C98 C97 1.377 . S
C98 C99 1.369 . S
C99 H79 0.945 . S
C99 C94 1.385 . S
C99 C98 1.369 . S
C100 C92 1.457 . S
C100 C101 1.372 . S
C100 C105 1.364 . S
C101 H80 0.952 . S
C101 C100 1.372 . S
C101 C102 1.389 . S
C102 H81 0.949 . S
C102 C101 1.389 . S
C102 C103 1.387 . S
C103 C102 1.387 . S
C103 C104 1.372 . S
C104 H82 0.950 . S
C104 C103 1.372 . S
C104 C105 1.379 . S
C105 H83 0.948 . S
C105 C100 1.364 . S
C105 C104 1.379 . S
C106 C75 1.383 . S
C106 C93 1.479 1_556 S
C106 C107 1.398 . S
C107 C72 1.382 . S
C107 H84 0.951 1_556 S
C107 C106 1.398 . S
C108 C109 1.384 . S
C108 H121 0.947 . S
C108 C143 1.382 . S
C109 C108 1.384 . S
C109 C110 1.378 . S
C110 C109 1.378 . S
C110 C111 1.378 . S
C110 H122 0.952 . S
C111 C110 1.378 . S
C111 H123 0.950 . S
C111 C142 1.383 . S
H112 C131 0.947 . S
H113 C132 0.946 . S
H114 C134 0.953 . S
H115 C135 0.945 . S
H116 C137 0.952 . S
H117 C138 0.949 . S
H118 C140 0.950 . S
H119 C141 0.948 . S
H120 C143 0.951 . S
H121 C108 0.947 . S
H122 C110 0.952 . S
H123 C111 0.950 . S
N124 C127 1.382 . S
N124 C129 1.363 . S
N125 C127 1.371 . S
N125 C128 1.372 . S
N126 C128 1.361 . S
N126 C129 1.377 . S
C127 N124 1.382 . S
C127 N125 1.371 . S
C127 C130 1.480 . S
C128 N125 1.372 . S
C128 N126 1.361 . S
C128 C136 1.457 . S
C129 N124 1.363 . S
C129 N126 1.377 . S
C129 C142 1.479 . S
C130 C127 1.480 . S
C130 C131 1.383 . S
C130 C135 1.385 . S
C131 H112 0.947 . S
C131 C130 1.383 . S
C131 C132 1.388 . S
C132 H113 0.946 . S
C132 C131 1.388 . S
C132 C133 1.384 . S
C133 C132 1.384 . S
C133 C134 1.377 . S
C134 H114 0.953 . S
C134 C133 1.377 . S
C134 C135 1.369 . S
C135 H115 0.945 . S
C135 C130 1.385 . S
C135 C134 1.369 . S
C136 C128 1.457 . S
C136 C137 1.372 . S
C136 C141 1.364 . S
C137 H116 0.952 . S
C137 C136 1.372 . S
C137 C138 1.389 . S
C138 H117 0.949 . S
C138 C137 1.389 . S
C138 C139 1.387 . S
C139 C138 1.387 . S
C139 C140 1.372 . S
C140 H118 0.950 . S
C140 C139 1.372 . S
C140 C141 1.379 . S
C141 H119 0.948 . S
C141 C136 1.364 . S
C141 C140 1.379 . S
C142 C111 1.383 . S
C142 C129 1.479 . S
C142 C143 1.398 . S
C143 C108 1.382 . S
C143 H120 0.951 . S
C143 C142 1.398 . S
C144 C146 1.422 . S
C144 C148 1.415 . S
C144 N150 1.369 . S
C145 C146 1.421 . S
C145 C147 1.417 . S
C145 C157 1.422 . S
C146 C144 1.422 . S
C146 C145 1.421 . S
C146 N156 1.359 . S
C147 C145 1.417 . S
C147 C149 1.329 . S
C147 H166 0.930 . S
C148 C144 1.415 . S
C148 C149 1.437 . S
C148 C152 1.413 . S
C149 C147 1.329 . S
C149 C148 1.437 . S
C149 H171 0.929 . S
N150 C144 1.369 . S
N150 C151 1.338 . S
N150 Gd155 2.622 . S
C151 N150 1.338 . S
C151 C153 1.378 . S
C151 H163 0.929 1_655 S
C152 C148 1.413 . S
C152 C153 1.348 . S
C152 H168 0.931 . S
C153 C151 1.378 . S
C153 C152 1.348 . S
C153 H169 0.930 1_655 S
Gd154 N174 2.622 . S
Gd154 N181 2.570 . S
Gd154 O188 2.345 1_465 S
Gd154 O189 2.468 . S
Gd154 O190 2.427 . S
Gd154 O192 2.388 1_455 S
Gd154 O193 2.386 . S
Gd154 O197 2.307 1_565 S
Gd154 C207 2.805 . S
Gd155 N150 2.622 . S
Gd155 N156 2.570 . S
Gd155 O187 2.386 . S
Gd155 O191 2.307 1_545 S
Gd155 O194 2.353 1_655 S
Gd155 O195 2.468 . S
Gd155 O196 2.427 . S
Gd155 O198 2.388 1_655 S
Gd155 C219 2.805 . S
N156 C146 1.359 . S
N156 Gd155 2.570 . S
N156 C158 1.343 . S
C157 C145 1.422 . S
C157 C159 1.321 . S
C157 H165 0.931 . S
C158 N156 1.343 . S
C158 C159 1.390 . S
C158 H160 0.931 . S
C159 C157 1.321 . S
C159 C158 1.390 . S
C159 H161 0.930 . S
H160 C158 0.931 . S
H161 C159 0.930 . S
H162 C185 0.931 . S
H163 C151 0.929 1_455 S
H164 C186 0.930 . S
H165 C157 0.931 . S
H166 C147 0.930 . S
H167 C176 0.929 1_655 S
H168 C152 0.931 . S
H169 C153 0.930 1_455 S
H170 C208 0.930 . S
H171 C149 0.929 . S
H172 C177 0.931 . S
H173 C178 0.930 1_655 S
N174 Gd154 2.622 . S
N174 C175 1.369 . S
N174 C176 1.338 . S
C175 N174 1.369 . S
C175 C179 1.415 . S
C175 C182 1.422 . S
C176 H167 0.929 1_455 S
C176 N174 1.338 . S
C176 C178 1.378 . S
C177 H172 0.931 . S
C177 C178 1.348 . S
C177 C179 1.413 . S
C178 H173 0.930 1_455 S
C178 C176 1.378 . S
C178 C177 1.348 . S
C179 C175 1.415 . S
C179 C177 1.413 . S
C179 C209 1.437 . S
H180 C209 0.929 . S
N181 Gd154 2.570 . S
N181 C182 1.359 . S
N181 C185 1.343 . S
C182 C175 1.422 . S
C182 N181 1.359 . S
C182 C184 1.421 . S
C183 C184 1.422 . S
C183 C186 1.321 . S
C183 H210 0.931 . S
C184 C182 1.421 . S
C184 C183 1.422 . S
C184 C208 1.417 . S
C185 H162 0.931 . S
C185 N181 1.343 . S
C185 C186 1.390 . S
C186 H164 0.930 . S
C186 C183 1.321 . S
C186 C185 1.390 . S
O187 Gd155 2.386 . S
O187 C199 1.265 . S
O188 Gd154 2.345 1_645 S
O188 C199 1.256 . S
O189 Gd154 2.468 . S
O189 C207 1.263 . S
O190 Gd154 2.427 . S
O190 C207 1.252 . S
O191 Gd155 2.307 1_565 S
O191 C200 1.261 . S
O192 Gd154 2.388 1_655 S
O192 C200 1.252 . S
O193 Gd154 2.386 . S
O193 C211 1.265 . S
O194 Gd155 2.353 1_455 S
O194 C211 1.242 1_545 S
O195 Gd155 2.468 . S
O195 C219 1.263 . S
O196 Gd155 2.427 . S
O196 C219 1.252 . S
O197 Gd154 2.307 1_545 S
O197 C212 1.261 . S
O198 Gd155 2.388 1_455 S
O198 C212 1.252 . S
C199 O187 1.265 . S
C199 O188 1.256 . S
C200 O191 1.261 . S
C200 O192 1.252 . S
C201 C204 1.394 . S
C201 C206 1.370 . S
C201 C207 1.500 . S
C202 C205 1.383 . S
C202 C206 1.395 . S
C203 C204 1.396 . S
C203 C205 1.365 . S
C203 H220 0.929 . S
C204 C201 1.394 . S
C204 C203 1.396 . S
C204 H221 0.930 . S
C205 C202 1.383 . S
C205 C203 1.365 . S
C205 H222 0.931 . S
C206 C201 1.370 . S
C206 C202 1.395 . S
C206 H223 0.930 . S
C207 Gd154 2.805 . S
C207 O189 1.263 . S
C207 O190 1.252 . S
C207 C201 1.500 . S
C208 H170 0.930 . S
C208 C184 1.417 . S
C208 C209 1.329 . S
C209 C179 1.437 . S
C209 H180 0.929 . S
C209 C208 1.329 . S
H210 C183 0.931 . S
C211 O193 1.265 . S
C211 O194 1.242 1_565 S
C212 O197 1.261 . S
C212 O198 1.252 . S
C213 C216 1.394 . S
C213 C218 1.370 . S
C213 C219 1.500 . S
C214 C217 1.383 . S
C214 C218 1.395 . S
C215 C216 1.396 . S
C215 C217 1.365 . S
C215 H224 0.929 . S
C216 C213 1.394 . S
C216 C215 1.396 . S
C216 H225 0.930 . S
C217 C214 1.383 . S
C217 C215 1.365 . S
C217 H226 0.931 . S
C218 C213 1.370 . S
C218 C214 1.395 . S
C218 H227 0.930 . S
C219 Gd155 2.805 . S
C219 O195 1.263 . S
C219 O196 1.252 . S
C219 C213 1.500 . S
H220 C203 0.929 . S
H221 C204 0.930 . S
H222 C205 0.931 . S
H223 C206 0.930 . S
H224 C215 0.929 . S
H225 C216 0.930 . S
H226 C217 0.931 . S
H227 C218 0.930 . S
C228 C230 1.422 . S
C228 C232 1.415 . S
C228 N234 1.369 . S
C229 C230 1.421 . S
C229 C231 1.417 . S
C229 C241 1.422 . S
C230 C228 1.422 . S
C230 C229 1.421 . S
C230 N240 1.359 . S
C231 C229 1.417 . S
C231 C233 1.329 . S
C231 H250 0.930 . S
C232 C228 1.415 . S
C232 C233 1.437 . S
C232 C236 1.413 . S
C233 C231 1.329 . S
C233 C232 1.437 . S
C233 H255 0.929 . S
N234 C228 1.369 . S
N234 C235 1.338 . S
N234 Gd239 2.622 . S
C235 N234 1.338 . S
C235 C237 1.378 . S
C235 H247 0.929 . S
C236 C232 1.413 . S
C236 C237 1.348 . S
C236 H252 0.931 . S
C237 C235 1.378 . S
C237 C236 1.348 . S
C237 H253 0.930 . S
Gd238 N258 2.621 1_556 S
Gd238 N265 2.570 1_556 S
Gd238 O272 2.353 . S
Gd238 O273 2.468 . S
Gd238 O274 2.427 . S
Gd238 O276 2.388 1_556 S
Gd238 O277 2.386 1_556 S
Gd238 O281 2.307 1_556 S
Gd238 C291 2.805 . S
Gd239 N234 2.622 . S
Gd239 N240 2.570 . S
Gd239 O271 2.386 . S
Gd239 O275 2.307 . S
Gd239 O278 2.353 . S
Gd239 O279 2.468 . S
Gd239 O280 2.427 . S
Gd239 O282 2.388 . S
Gd239 C303 2.805 . S
N240 C230 1.359 . S
N240 Gd239 2.570 . S
N240 C242 1.343 . S
C241 C229 1.422 . S
C241 C243 1.321 . S
C241 H249 0.931 . S
C242 N240 1.343 . S
C242 C243 1.390 . S
C242 H244 0.931 . S
C243 C241 1.321 . S
C243 C242 1.390 . S
C243 H245 0.930 . S
H244 C242 0.931 . S
H245 C243 0.930 . S
H246 C269 0.931 . S
H247 C235 0.929 . S
H248 C270 0.930 . S
H249 C241 0.931 . S
H250 C231 0.930 . S
H251 C260 0.929 . S
H252 C236 0.931 . S
H253 C237 0.930 . S
H254 C292 0.930 . S
H255 C233 0.929 . S
H256 C261 0.931 . S
H257 C262 0.930 . S
N258 Gd238 2.621 1_554 S
N258 C259 1.370 . S
N258 C260 1.338 1_554 S
C259 N258 1.370 . S
C259 C263 1.415 . S
C259 C266 1.422 . S
C260 H251 0.929 . S
C260 N258 1.338 1_556 S
C260 C262 1.378 . S
C261 H256 0.931 . S
C261 C262 1.348 1_554 S
C261 C263 1.413 . S
C262 H257 0.930 . S
C262 C260 1.378 . S
C262 C261 1.348 1_556 S
C263 C259 1.415 . S
C263 C261 1.413 . S
C263 C293 1.437 . S
H264 C293 0.929 . S
N265 Gd238 2.570 1_554 S
N265 C266 1.359 . S
N265 C269 1.343 . S
C266 C259 1.422 . S
C266 N265 1.359 . S
C266 C268 1.421 . S
C267 C268 1.422 . S
C267 C270 1.321 . S
C267 H294 0.931 . S
C268 C266 1.421 . S
C268 C267 1.422 . S
C268 C292 1.417 . S
C269 H246 0.931 . S
C269 N265 1.343 . S
C269 C270 1.390 . S
C270 H248 0.930 . S
C270 C267 1.321 . S
C270 C269 1.390 . S
O271 Gd239 2.386 . S
O271 C283 1.265 1_554 S
O272 Gd238 2.353 . S
O272 C283 1.242 . S
O273 Gd238 2.468 . S
O273 C291 1.263 . S
O274 Gd238 2.427 . S
O274 C291 1.252 . S
O275 Gd239 2.307 . S
O275 C284 1.261 . S
O276 Gd238 2.388 1_554 S
O276 C284 1.252 . S
O277 Gd238 2.386 1_554 S
O277 C295 1.265 . S
O278 Gd239 2.353 . S
O278 C295 1.242 . S
O279 Gd239 2.468 . S
O279 C303 1.263 . S
O280 Gd239 2.427 . S
O280 C303 1.252 . S
O281 Gd238 2.307 1_554 S
O281 C296 1.261 . S
O282 Gd239 2.388 . S
O282 C296 1.252 . S
C283 O271 1.265 1_556 S
C283 O272 1.242 . S
C284 O275 1.261 . S
C284 O276 1.252 . S
C285 C288 1.394 . S
C285 C290 1.370 . S
C285 C291 1.500 . S
C286 C289 1.383 . S
C286 C290 1.395 . S
C287 C288 1.396 . S
C287 C289 1.365 . S
C287 H304 0.929 . S
C288 C285 1.394 . S
C288 C287 1.396 . S
C288 H305 0.930 . S
C289 C286 1.383 . S
C289 C287 1.365 . S
C289 H306 0.931 . S
C290 C285 1.370 . S
C290 C286 1.395 . S
C290 H307 0.930 . S
C291 Gd238 2.805 . S
C291 O273 1.263 . S
C291 O274 1.252 . S
C291 C285 1.500 . S
C292 H254 0.930 . S
C292 C268 1.417 . S
C292 C293 1.329 . S
C293 C263 1.437 . S
C293 H264 0.929 . S
C293 C292 1.329 . S
H294 C267 0.931 . S
C295 O277 1.265 . S
C295 O278 1.242 . S
C296 O281 1.261 . S
C296 O282 1.252 . S
C297 C300 1.394 . S
C297 C302 1.370 . S
C297 C303 1.500 . S
C298 C301 1.383 . S
C298 C302 1.395 . S
C299 C300 1.396 . S
C299 C301 1.365 . S
C299 H308 0.929 . S
C300 C297 1.394 . S
C300 C299 1.396 . S
C300 H309 0.930 . S
C301 C298 1.383 . S
C301 C299 1.365 . S
C301 H310 0.931 . S
C302 C297 1.370 . S
C302 C298 1.395 . S
C302 H311 0.930 . S
C303 Gd239 2.805 . S
C303 O279 1.263 . S
C303 O280 1.252 . S
C303 C297 1.500 . S
H304 C287 0.929 . S
H305 C288 0.930 . S
H306 C289 0.931 . S
H307 C290 0.930 . S
H308 C299 0.929 . S
H309 C300 0.930 . S
H310 C301 0.931 . S
H311 C302 0.930 . S
C312 C313 1.387 . S
C312 H316 0.950 . S
C312 C321 1.390 . S
C313 C312 1.387 . S
C313 C315 1.387 . S
H314 C321 0.950 . S
C315 C313 1.387 . S
C315 C317 1.390 . S
C315 H319 0.950 . S
H316 C312 0.950 . S
C317 C315 1.390 . S
C317 C318 1.387 . S
C317 H320 0.950 . S
C318 C317 1.387 . S
C318 C321 1.387 . S
H319 C315 0.950 . S
H320 C317 0.950 . S
C321 C312 1.390 . S
C321 H314 0.950 . S
C321 C318 1.387 . S
C322 C323 1.387 . S
C322 H326 0.950 . S
C322 C331 1.390 . S
C323 C322 1.387 . S
C323 C325 1.387 . S
H324 C331 0.950 . S
C325 C323 1.387 . S
C325 C327 1.390 . S
C325 H329 0.950 1_554 S
H326 C322 0.950 . S
C327 C325 1.390 . S
C327 C328 1.387 . S
C327 H330 0.950 1_554 S
C328 C327 1.387 . S
C328 C331 1.387 . S
H329 C325 0.950 1_556 S
H330 C327 0.950 1_556 S
C331 C322 1.390 . S
C331 H324 0.950 . S
C331 C328 1.387 . S
C332 C333 1.387 . S
C332 H336 0.950 . S
C332 C341 1.390 . S
C333 C332 1.387 . S
C333 C335 1.387 . S
H334 C341 0.950 . S
C335 C333 1.387 . S
C335 C337 1.390 . S
C335 H339 0.950 . S
H336 C332 0.950 . S
C337 C335 1.390 . S
C337 C338 1.387 . S
C337 H340 0.950 . S
C338 C337 1.387 . S
C338 C341 1.387 . S
H339 C335 0.950 . S
H340 C337 0.950 . S
C341 C332 1.390 . S
C341 H334 0.950 . S
C341 C338 1.387 . S
C342 C343 1.387 . S
C342 H346 0.950 . S
C342 C351 1.390 . S
C343 C342 1.387 . S
C343 C345 1.387 1_554 S
H344 C351 0.950 . S
C345 C343 1.387 1_556 S
C345 C347 1.390 . S
C345 H349 0.950 . S
H346 C342 0.950 . S
C347 C345 1.390 . S
C347 C348 1.387 1_556 S
C347 H350 0.950 . S
C348 C347 1.387 1_554 S
C348 C351 1.387 . S
H349 C345 0.950 . S
H350 C347 0.950 . S
C351 C342 1.390 . S
C351 H344 0.950 . S
C351 C348 1.387 . S
C352 C353 1.387 . S
C352 H356 0.950 . S
C352 C361 1.390 . S
C353 C352 1.387 . S
C353 C355 1.387 . S
H354 C361 0.950 . S
C355 C353 1.387 . S
C355 C357 1.390 . S
C355 H359 0.950 . S
H356 C352 0.950 . S
C357 C355 1.390 . S
C357 C358 1.387 . S
C357 H360 0.950 . S
C358 C357 1.387 . S
C358 C361 1.387 . S
H359 C355 0.950 . S
H360 C357 0.950 . S
C361 C352 1.390 . S
C361 H354 0.950 . S
C361 C358 1.387 . S
C362 C363 1.387 . S
C362 H366 0.950 . S
C362 C371 1.390 . S
C363 C362 1.387 . S
C363 C365 1.387 . S
H364 C371 0.950 . S
C365 C363 1.387 . S
C365 C367 1.390 . S
C365 H369 0.950 . S
H366 C362 0.950 . S
C367 C365 1.390 . S
C367 C368 1.387 . S
C367 H370 0.950 . S
C368 C367 1.387 . S
C368 C371 1.387 . S
H369 C365 0.950 . S
H370 C367 0.950 . S
C371 C362 1.390 . S
C371 H364 0.950 . S
C371 C368 1.387 . S
C372 C373 1.387 . S
C372 H376 0.950 1_545 S
C372 C381 1.390 . S
C373 C372 1.387 . S
C373 C375 1.387 . S
H374 C381 0.950 1_565 S
C375 C373 1.387 . S
C375 C377 1.390 . S
C375 H379 0.950 . S
H376 C372 0.950 1_565 S
C377 C375 1.390 . S
C377 C378 1.387 . S
C377 H380 0.950 . S
C378 C377 1.387 . S
C378 C381 1.387 . S
H379 C375 0.950 . S
H380 C377 0.950 . S
C381 C372 1.390 . S
C381 H374 0.950 1_545 S
C381 C378 1.387 . S
C382 C383 1.387 . S
C382 H386 0.950 . S
C382 C391 1.390 . S
C383 C382 1.387 . S
C383 C385 1.387 . S
H384 C391 0.950 . S
C385 C383 1.387 . S
C385 C387 1.390 . S
C385 H389 0.950 . S
H386 C382 0.950 . S
C387 C385 1.390 . S
C387 C388 1.387 . S
C387 H390 0.950 . S
C388 C387 1.387 . S
C388 C391 1.387 . S
H389 C385 0.950 . S
H390 C387 0.950 . S
C391 C382 1.390 . S
C391 H384 0.950 . S
C391 C388 1.387 . S
C392 C393 1.387 . S
C392 H396 0.950 . S
C392 C401 1.390 . S
C393 C392 1.387 . S
C393 C395 1.387 . S
H394 C401 0.950 . S
C395 C393 1.387 . S
C395 C397 1.390 . S
C395 H399 0.950 . S
H396 C392 0.950 . S
C397 C395 1.390 . S
C397 C398 1.387 . S
C397 H400 0.950 . S
C398 C397 1.387 . S
C398 C401 1.387 . S
H399 C395 0.950 . S
H400 C397 0.950 . S
C401 C392 1.390 . S
C401 H394 0.950 . S
C401 C398 1.387 . S
C402 C403 1.387 . S
C402 H406 0.950 . S
C402 C411 1.390 . S
C403 C402 1.387 . S
C403 C405 1.387 . S
H404 C411 0.950 . S
C405 C403 1.387 . S
C405 C407 1.390 . S
C405 H409 0.950 . S
H406 C402 0.950 . S
C407 C405 1.390 . S
C407 C408 1.387 . S
C407 H410 0.936 1_545 S
C408 C407 1.387 . S
C408 C411 1.387 . S
H409 C405 0.950 . S
H410 C407 0.936 1_565 S
C411 C402 1.390 . S
C411 H404 0.950 . S
C411 C408 1.387 . S
C412 C413 1.387 . S
C412 H416 0.950 . S
C412 C421 1.390 . S
C413 C412 1.387 . S
C413 C415 1.387 . S
H414 C421 0.950 . S
C415 C413 1.387 . S
C415 C417 1.390 . S
C415 H419 0.950 . S
H416 C412 0.950 . S
C417 C415 1.390 . S
C417 C418 1.387 . S
C417 H420 0.950 . S
C418 C417 1.387 . S
C418 C421 1.387 . S
H419 C415 0.950 . S
H420 C417 0.950 . S
C421 C412 1.390 . S
C421 H414 0.950 . S
C421 C418 1.387 . S
C422 C423 1.387 . S
C422 H426 0.950 . S
C422 C431 1.390 . S
C423 C422 1.387 . S
C423 C425 1.387 1_565 S
H424 C431 0.950 . S
C425 C423 1.387 1_545 S
C425 C427 1.390 . S
C425 H429 0.950 . S
H426 C422 0.950 . S
C427 C425 1.390 . S
C427 C428 1.387 1_545 S
C427 H430 0.950 . S
C428 C427 1.387 1_565 S
C428 C431 1.387 . S
H429 C425 0.950 . S
H430 C427 0.950 . S
C431 C422 1.390 . S
C431 H424 0.950 . S
C431 C428 1.387 . S
C318 C212 1.673 . S
C313 C133 1.667 . S
C323 C25 1.652 . S
C328 C284 1.661 . S
C333 C61 1.636 . S
C338 C200 1.673 . S
C343 C97 1.601 . S
C348 C296 1.661 . S
C358 C202 1.424 . S
C353 C1 1.557 . S
C368 C283 1.631 . S
C363 C67 1.585 . S
C373 C103 1.600 . S
C378 C199 1.666 . S
C383 C109 1.533 . S
C388 C286 1.408 . S
C398 C298 1.408 . S
C393 C37 1.522 . S
C408 C214 1.424 . S
C403 C73 1.538 . S
C418 C295 1.631 . S
C413 C139 1.614 . S
C423 C31 1.652 . S
C428 C211 1.666 . S
